# Generated by pormake.
# Topology tbo, (3,4)-cn, num edge types: 1
# Building blocks:
#     Node 0, Type 0, BuildingBlock: OLANEW_clean_sbu_2, # of connection points: 3
#     Node 1, Type 0, BuildingBlock: OLANEW_clean_sbu_2, # of connection points: 3
#     Node 2, Type 0, BuildingBlock: OLANEW_clean_sbu_2, # of connection points: 3
#     Node 3, Type 0, BuildingBlock: OLANEW_clean_sbu_2, # of connection points: 3
#     Node 4, Type 0, BuildingBlock: OLANEW_clean_sbu_2, # of connection points: 3
#     Node 5, Type 0, BuildingBlock: OLANEW_clean_sbu_2, # of connection points: 3
#     Node 6, Type 0, BuildingBlock: OLANEW_clean_sbu_2, # of connection points: 3
#     Node 7, Type 0, BuildingBlock: OLANEW_clean_sbu_2, # of connection points: 3
#     Node 8, Type 0, BuildingBlock: OLANEW_clean_sbu_2, # of connection points: 3
#     Node 9, Type 0, BuildingBlock: OLANEW_clean_sbu_2, # of connection points: 3
#     Node 10, Type 0, BuildingBlock: OLANEW_clean_sbu_2, # of connection points: 3
#     Node 11, Type 0, BuildingBlock: OLANEW_clean_sbu_2, # of connection points: 3
#     Node 12, Type 0, BuildingBlock: OLANEW_clean_sbu_2, # of connection points: 3
#     Node 13, Type 0, BuildingBlock: OLANEW_clean_sbu_2, # of connection points: 3
#     Node 14, Type 0, BuildingBlock: OLANEW_clean_sbu_2, # of connection points: 3
#     Node 15, Type 0, BuildingBlock: OLANEW_clean_sbu_2, # of connection points: 3
#     Node 16, Type 0, BuildingBlock: OLANEW_clean_sbu_2, # of connection points: 3
#     Node 17, Type 0, BuildingBlock: OLANEW_clean_sbu_2, # of connection points: 3
#     Node 18, Type 0, BuildingBlock: OLANEW_clean_sbu_2, # of connection points: 3
#     Node 19, Type 0, BuildingBlock: OLANEW_clean_sbu_2, # of connection points: 3
#     Node 20, Type 0, BuildingBlock: OLANEW_clean_sbu_2, # of connection points: 3
#     Node 21, Type 0, BuildingBlock: OLANEW_clean_sbu_2, # of connection points: 3
#     Node 22, Type 0, BuildingBlock: OLANEW_clean_sbu_2, # of connection points: 3
#     Node 23, Type 0, BuildingBlock: OLANEW_clean_sbu_2, # of connection points: 3
#     Node 24, Type 0, BuildingBlock: OLANEW_clean_sbu_2, # of connection points: 3
#     Node 25, Type 0, BuildingBlock: OLANEW_clean_sbu_2, # of connection points: 3
#     Node 26, Type 0, BuildingBlock: OLANEW_clean_sbu_2, # of connection points: 3
#     Node 27, Type 0, BuildingBlock: OLANEW_clean_sbu_2, # of connection points: 3
#     Node 28, Type 0, BuildingBlock: OLANEW_clean_sbu_2, # of connection points: 3
#     Node 29, Type 0, BuildingBlock: OLANEW_clean_sbu_2, # of connection points: 3
#     Node 30, Type 0, BuildingBlock: OLANEW_clean_sbu_2, # of connection points: 3
#     Node 31, Type 0, BuildingBlock: OLANEW_clean_sbu_2, # of connection points: 3
#     Node 32, Type 1, BuildingBlock: KUFVIS_clean_linker_0, # of connection points: 4
#     Node 33, Type 1, BuildingBlock: KUFVIS_clean_linker_0, # of connection points: 4
#     Node 34, Type 1, BuildingBlock: KUFVIS_clean_linker_0, # of connection points: 4
#     Node 35, Type 1, BuildingBlock: KUFVIS_clean_linker_0, # of connection points: 4
#     Node 36, Type 1, BuildingBlock: KUFVIS_clean_linker_0, # of connection points: 4
#     Node 37, Type 1, BuildingBlock: KUFVIS_clean_linker_0, # of connection points: 4
#     Node 38, Type 1, BuildingBlock: KUFVIS_clean_linker_0, # of connection points: 4
#     Node 39, Type 1, BuildingBlock: KUFVIS_clean_linker_0, # of connection points: 4
#     Node 40, Type 1, BuildingBlock: KUFVIS_clean_linker_0, # of connection points: 4
#     Node 41, Type 1, BuildingBlock: KUFVIS_clean_linker_0, # of connection points: 4
#     Node 42, Type 1, BuildingBlock: KUFVIS_clean_linker_0, # of connection points: 4
#     Node 43, Type 1, BuildingBlock: KUFVIS_clean_linker_0, # of connection points: 4
#     Node 44, Type 1, BuildingBlock: KUFVIS_clean_linker_0, # of connection points: 4
#     Node 45, Type 1, BuildingBlock: KUFVIS_clean_linker_0, # of connection points: 4
#     Node 46, Type 1, BuildingBlock: KUFVIS_clean_linker_0, # of connection points: 4
#     Node 47, Type 1, BuildingBlock: KUFVIS_clean_linker_0, # of connection points: 4
#     Node 48, Type 1, BuildingBlock: KUFVIS_clean_linker_0, # of connection points: 4
#     Node 49, Type 1, BuildingBlock: KUFVIS_clean_linker_0, # of connection points: 4
#     Node 50, Type 1, BuildingBlock: KUFVIS_clean_linker_0, # of connection points: 4
#     Node 51, Type 1, BuildingBlock: KUFVIS_clean_linker_0, # of connection points: 4
#     Node 52, Type 1, BuildingBlock: KUFVIS_clean_linker_0, # of connection points: 4
#     Node 53, Type 1, BuildingBlock: KUFVIS_clean_linker_0, # of connection points: 4
#     Node 54, Type 1, BuildingBlock: KUFVIS_clean_linker_0, # of connection points: 4
#     Node 55, Type 1, BuildingBlock: KUFVIS_clean_linker_0, # of connection points: 4
#     Edge 56, Type (0, 1), BuildingBlock: XUDNAN_clean_linker_2, # of connection points: 2
#     Edge 57, Type (0, 1), BuildingBlock: XUDNAN_clean_linker_2, # of connection points: 2
#     Edge 58, Type (0, 1), BuildingBlock: XUDNAN_clean_linker_2, # of connection points: 2
#     Edge 59, Type (0, 1), BuildingBlock: XUDNAN_clean_linker_2, # of connection points: 2
#     Edge 60, Type (0, 1), BuildingBlock: XUDNAN_clean_linker_2, # of connection points: 2
#     Edge 61, Type (0, 1), BuildingBlock: XUDNAN_clean_linker_2, # of connection points: 2
#     Edge 62, Type (0, 1), BuildingBlock: XUDNAN_clean_linker_2, # of connection points: 2
#     Edge 63, Type (0, 1), BuildingBlock: XUDNAN_clean_linker_2, # of connection points: 2
#     Edge 64, Type (0, 1), BuildingBlock: XUDNAN_clean_linker_2, # of connection points: 2
#     Edge 65, Type (0, 1), BuildingBlock: XUDNAN_clean_linker_2, # of connection points: 2
#     Edge 66, Type (0, 1), BuildingBlock: XUDNAN_clean_linker_2, # of connection points: 2
#     Edge 67, Type (0, 1), BuildingBlock: XUDNAN_clean_linker_2, # of connection points: 2
#     Edge 68, Type (0, 1), BuildingBlock: XUDNAN_clean_linker_2, # of connection points: 2
#     Edge 69, Type (0, 1), BuildingBlock: XUDNAN_clean_linker_2, # of connection points: 2
#     Edge 70, Type (0, 1), BuildingBlock: XUDNAN_clean_linker_2, # of connection points: 2
#     Edge 71, Type (0, 1), BuildingBlock: XUDNAN_clean_linker_2, # of connection points: 2
#     Edge 72, Type (0, 1), BuildingBlock: XUDNAN_clean_linker_2, # of connection points: 2
#     Edge 73, Type (0, 1), BuildingBlock: XUDNAN_clean_linker_2, # of connection points: 2
#     Edge 74, Type (0, 1), BuildingBlock: XUDNAN_clean_linker_2, # of connection points: 2
#     Edge 75, Type (0, 1), BuildingBlock: XUDNAN_clean_linker_2, # of connection points: 2
#     Edge 76, Type (0, 1), BuildingBlock: XUDNAN_clean_linker_2, # of connection points: 2
#     Edge 77, Type (0, 1), BuildingBlock: XUDNAN_clean_linker_2, # of connection points: 2
#     Edge 78, Type (0, 1), BuildingBlock: XUDNAN_clean_linker_2, # of connection points: 2
#     Edge 79, Type (0, 1), BuildingBlock: XUDNAN_clean_linker_2, # of connection points: 2
#     Edge 80, Type (0, 1), BuildingBlock: XUDNAN_clean_linker_2, # of connection points: 2
#     Edge 81, Type (0, 1), BuildingBlock: XUDNAN_clean_linker_2, # of connection points: 2
#     Edge 82, Type (0, 1), BuildingBlock: XUDNAN_clean_linker_2, # of connection points: 2
#     Edge 83, Type (0, 1), BuildingBlock: XUDNAN_clean_linker_2, # of connection points: 2
#     Edge 84, Type (0, 1), BuildingBlock: XUDNAN_clean_linker_2, # of connection points: 2
#     Edge 85, Type (0, 1), BuildingBlock: XUDNAN_clean_linker_2, # of connection points: 2
#     Edge 86, Type (0, 1), BuildingBlock: XUDNAN_clean_linker_2, # of connection points: 2
#     Edge 87, Type (0, 1), BuildingBlock: XUDNAN_clean_linker_2, # of connection points: 2
#     Edge 88, Type (0, 1), BuildingBlock: XUDNAN_clean_linker_2, # of connection points: 2
#     Edge 89, Type (0, 1), BuildingBlock: XUDNAN_clean_linker_2, # of connection points: 2
#     Edge 90, Type (0, 1), BuildingBlock: XUDNAN_clean_linker_2, # of connection points: 2
#     Edge 91, Type (0, 1), BuildingBlock: XUDNAN_clean_linker_2, # of connection points: 2
#     Edge 92, Type (0, 1), BuildingBlock: XUDNAN_clean_linker_2, # of connection points: 2
#     Edge 93, Type (0, 1), BuildingBlock: XUDNAN_clean_linker_2, # of connection points: 2
#     Edge 94, Type (0, 1), BuildingBlock: XUDNAN_clean_linker_2, # of connection points: 2
#     Edge 95, Type (0, 1), BuildingBlock: XUDNAN_clean_linker_2, # of connection points: 2
#     Edge 96, Type (0, 1), BuildingBlock: XUDNAN_clean_linker_2, # of connection points: 2
#     Edge 97, Type (0, 1), BuildingBlock: XUDNAN_clean_linker_2, # of connection points: 2
#     Edge 98, Type (0, 1), BuildingBlock: XUDNAN_clean_linker_2, # of connection points: 2
#     Edge 99, Type (0, 1), BuildingBlock: XUDNAN_clean_linker_2, # of connection points: 2
#     Edge 100, Type (0, 1), BuildingBlock: XUDNAN_clean_linker_2, # of connection points: 2
#     Edge 101, Type (0, 1), BuildingBlock: XUDNAN_clean_linker_2, # of connection points: 2
#     Edge 102, Type (0, 1), BuildingBlock: XUDNAN_clean_linker_2, # of connection points: 2
#     Edge 103, Type (0, 1), BuildingBlock: XUDNAN_clean_linker_2, # of connection points: 2
#     Edge 104, Type (0, 1), BuildingBlock: XUDNAN_clean_linker_2, # of connection points: 2
#     Edge 105, Type (0, 1), BuildingBlock: XUDNAN_clean_linker_2, # of connection points: 2
#     Edge 106, Type (0, 1), BuildingBlock: XUDNAN_clean_linker_2, # of connection points: 2
#     Edge 107, Type (0, 1), BuildingBlock: XUDNAN_clean_linker_2, # of connection points: 2
#     Edge 108, Type (0, 1), BuildingBlock: XUDNAN_clean_linker_2, # of connection points: 2
#     Edge 109, Type (0, 1), BuildingBlock: XUDNAN_clean_linker_2, # of connection points: 2
#     Edge 110, Type (0, 1), BuildingBlock: XUDNAN_clean_linker_2, # of connection points: 2
#     Edge 111, Type (0, 1), BuildingBlock: XUDNAN_clean_linker_2, # of connection points: 2
#     Edge 112, Type (0, 1), BuildingBlock: XUDNAN_clean_linker_2, # of connection points: 2
#     Edge 113, Type (0, 1), BuildingBlock: XUDNAN_clean_linker_2, # of connection points: 2
#     Edge 114, Type (0, 1), BuildingBlock: XUDNAN_clean_linker_2, # of connection points: 2
#     Edge 115, Type (0, 1), BuildingBlock: XUDNAN_clean_linker_2, # of connection points: 2
#     Edge 116, Type (0, 1), BuildingBlock: XUDNAN_clean_linker_2, # of connection points: 2
#     Edge 117, Type (0, 1), BuildingBlock: XUDNAN_clean_linker_2, # of connection points: 2
#     Edge 118, Type (0, 1), BuildingBlock: XUDNAN_clean_linker_2, # of connection points: 2
#     Edge 119, Type (0, 1), BuildingBlock: XUDNAN_clean_linker_2, # of connection points: 2
#     Edge 120, Type (0, 1), BuildingBlock: XUDNAN_clean_linker_2, # of connection points: 2
#     Edge 121, Type (0, 1), BuildingBlock: XUDNAN_clean_linker_2, # of connection points: 2
#     Edge 122, Type (0, 1), BuildingBlock: XUDNAN_clean_linker_2, # of connection points: 2
#     Edge 123, Type (0, 1), BuildingBlock: XUDNAN_clean_linker_2, # of connection points: 2
#     Edge 124, Type (0, 1), BuildingBlock: XUDNAN_clean_linker_2, # of connection points: 2
#     Edge 125, Type (0, 1), BuildingBlock: XUDNAN_clean_linker_2, # of connection points: 2
#     Edge 126, Type (0, 1), BuildingBlock: XUDNAN_clean_linker_2, # of connection points: 2
#     Edge 127, Type (0, 1), BuildingBlock: XUDNAN_clean_linker_2, # of connection points: 2
#     Edge 128, Type (0, 1), BuildingBlock: XUDNAN_clean_linker_2, # of connection points: 2
#     Edge 129, Type (0, 1), BuildingBlock: XUDNAN_clean_linker_2, # of connection points: 2
#     Edge 130, Type (0, 1), BuildingBlock: XUDNAN_clean_linker_2, # of connection points: 2
#     Edge 131, Type (0, 1), BuildingBlock: XUDNAN_clean_linker_2, # of connection points: 2
#     Edge 132, Type (0, 1), BuildingBlock: XUDNAN_clean_linker_2, # of connection points: 2
#     Edge 133, Type (0, 1), BuildingBlock: XUDNAN_clean_linker_2, # of connection points: 2
#     Edge 134, Type (0, 1), BuildingBlock: XUDNAN_clean_linker_2, # of connection points: 2
#     Edge 135, Type (0, 1), BuildingBlock: XUDNAN_clean_linker_2, # of connection points: 2
#     Edge 136, Type (0, 1), BuildingBlock: XUDNAN_clean_linker_2, # of connection points: 2
#     Edge 137, Type (0, 1), BuildingBlock: XUDNAN_clean_linker_2, # of connection points: 2
#     Edge 138, Type (0, 1), BuildingBlock: XUDNAN_clean_linker_2, # of connection points: 2
#     Edge 139, Type (0, 1), BuildingBlock: XUDNAN_clean_linker_2, # of connection points: 2
#     Edge 140, Type (0, 1), BuildingBlock: XUDNAN_clean_linker_2, # of connection points: 2
#     Edge 141, Type (0, 1), BuildingBlock: XUDNAN_clean_linker_2, # of connection points: 2
#     Edge 142, Type (0, 1), BuildingBlock: XUDNAN_clean_linker_2, # of connection points: 2
#     Edge 143, Type (0, 1), BuildingBlock: XUDNAN_clean_linker_2, # of connection points: 2
#     Edge 144, Type (0, 1), BuildingBlock: XUDNAN_clean_linker_2, # of connection points: 2
#     Edge 145, Type (0, 1), BuildingBlock: XUDNAN_clean_linker_2, # of connection points: 2
#     Edge 146, Type (0, 1), BuildingBlock: XUDNAN_clean_linker_2, # of connection points: 2
#     Edge 147, Type (0, 1), BuildingBlock: XUDNAN_clean_linker_2, # of connection points: 2
#     Edge 148, Type (0, 1), BuildingBlock: XUDNAN_clean_linker_2, # of connection points: 2
#     Edge 149, Type (0, 1), BuildingBlock: XUDNAN_clean_linker_2, # of connection points: 2
#     Edge 150, Type (0, 1), BuildingBlock: XUDNAN_clean_linker_2, # of connection points: 2
#     Edge 151, Type (0, 1), BuildingBlock: XUDNAN_clean_linker_2, # of connection points: 2
# Relax obj value: 0.018
# Max RMSD: 0.150
# Mean RMSD: 0.098
data_MOF--net-tbo--node1-OLANEW_clean_sbu_2--node2-KUFVIS_clean_linker_0--edge1-XUDNAN_clean_linker_2
_symmetry_space_group_name_H-M    P1
_symmetry_Int_Tables_number       1
_symmetry_cell_setting            triclinic
loop_
_symmetry_equiv_pos_as_xyz
'x, y, z'
_cell_length_a     76.574526
_cell_length_b     78.829299
_cell_length_c     75.757806
_cell_angle_alpha  97.28474
_cell_angle_beta   87.269799
_cell_angle_gamma 98.695163
loop_
_atom_site_label
_atom_site_type_symbol
_atom_site_fract_x
_atom_site_fract_y
_atom_site_fract_z
_atom_type_partial_charge
O0 O 0.20336 0.1731 0.15586 0.0
Cd1 Cd 0.18854 0.16397 0.18338 0.0
O2 O 0.19127 0.19694 0.15593 0.0
Cd3 Cd 0.16989 0.19378 0.17612 0.0
O4 O 0.14431 0.20132 0.18607 0.0
C5 C 0.1337 0.20362 0.17445 0.0
O6 O 0.13828 0.20064 0.15753 0.0
C7 C 0.20224 0.18703 0.14937 0.0
C8 C 0.20401 0.13883 0.19796 0.0
O9 O 0.19052 0.13457 0.1881 0.0
O10 O 0.21039 0.15489 0.20077 0.0
O11 O 0.8605 0.17981 0.1698 0.0
Cd12 Cd 0.83144 0.16364 0.1618 0.0
O13 O 0.87214 0.15643 0.17263 0.0
Cd14 Cd 0.8487 0.13728 0.16704 0.0
O15 O 0.83357 0.1136 0.17522 0.0
C16 C 0.83504 0.11213 0.19158 0.0
O17 O 0.84461 0.1247 0.2015 0.0
C18 C 0.87361 0.17279 0.17337 0.0
C19 C 0.81475 0.1764 0.13526 0.0
O20 O 0.81405 0.18321 0.15152 0.0
O21 O 0.82356 0.16375 0.13149 0.0
O22 O 0.89003 0.82637 0.16638 0.0
Cd23 Cd 0.90246 0.83339 0.19609 0.0
O24 O 0.88243 0.85174 0.16327 0.0
Cd25 Cd 0.88853 0.86492 0.18996 0.0
O26 O 0.88123 0.88256 0.21302 0.0
C27 C 0.87263 0.89439 0.20984 0.0
O28 O 0.86937 0.89567 0.19322 0.0
C29 C 0.88352 0.83613 0.15712 0.0
C30 C 0.92981 0.81453 0.20073 0.0
O31 O 0.91361 0.80748 0.2009 0.0
O32 O 0.93325 0.8305 0.19831 0.0
O33 O 0.21484 0.88585 0.1822 0.0
Cd34 Cd 0.2028 0.85518 0.17858 0.0
O35 O 0.19039 0.89631 0.17855 0.0
Cd36 Cd 0.17514 0.87047 0.17688 0.0
O37 O 0.16188 0.84672 0.18646 0.0
C38 C 0.16764 0.8432 0.20083 0.0
O39 O 0.18083 0.85373 0.20849 0.0
C40 C 0.20687 0.89875 0.18138 0.0
C41 C 0.21437 0.83802 0.14693 0.0
O42 O 0.22461 0.84246 0.16012 0.0
O43 O 0.19858 0.84165 0.14857 0.0
O44 O 0.20308 0.85297 0.86088 0.0
Cd45 Cd 0.18417 0.82593 0.8661 0.0
O46 O 0.18918 0.87059 0.87937 0.0
Cd47 Cd 0.16767 0.84977 0.88339 0.0
O48 O 0.14231 0.83532 0.87469 0.0
C49 C 0.12941 0.84378 0.87489 0.0
O50 O 0.13172 0.86018 0.88146 0.0
C51 C 0.20182 0.86817 0.86829 0.0
C52 C 0.19468 0.80964 0.89368 0.0
O53 O 0.20272 0.80874 0.87844 0.0
O54 O 0.18182 0.81844 0.89606 0.0
O55 O 0.20348 0.15427 0.88565 0.0
Cd56 Cd 0.18915 0.13974 0.85859 0.0
O57 O 0.19674 0.18015 0.88353 0.0
Cd58 Cd 0.18008 0.17332 0.86021 0.0
O59 O 0.16162 0.17709 0.84023 0.0
C60 C 0.16029 0.19263 0.83823 0.0
O61 O 0.17009 0.20523 0.84788 0.0
C62 C 0.20444 0.17022 0.89152 0.0
C63 C 0.20418 0.10991 0.84703 0.0
O64 O 0.21094 0.12462 0.84235 0.0
O65 O 0.19013 0.10924 0.85698 0.0
O66 O 0.88349 0.26731 0.9058 0.0
Cd67 Cd 0.89872 0.27787 0.87953 0.0
O68 O 0.87328 0.24273 0.8902 0.0
Cd69 Cd 0.85809 0.21674 0.88577 0.0
O70 O 0.8463 0.19041 0.87585 0.0
C71 C 0.85442 0.17778 0.87741 0.0
O72 O 0.86952 0.18079 0.88561 0.0
C73 C 0.87387 0.25262 0.90486 0.0
C74 C 0.92298 0.25784 0.86266 0.0
O75 O 0.92799 0.2709 0.87409 0.0
O76 O 0.90644 0.25398 0.85963 0.0
O77 O 0.89094 0.87847 0.83759 0.0
Cd78 Cd 0.86711 0.89278 0.85318 0.0
O79 O 0.88579 0.85495 0.8513 0.0
Cd80 Cd 0.866 0.86123 0.87213 0.0
O81 O 0.85128 0.8543 0.89657 0.0
C82 C 0.8505 0.83862 0.8994 0.0
O83 O 0.85803 0.82804 0.88766 0.0
C84 C 0.89423 0.86346 0.83955 0.0
C85 C 0.86027 0.92283 0.83978 0.0
O86 O 0.86995 0.92382 0.85333 0.0
O87 O 0.85413 0.90772 0.83233 0.0
O88 O 0.20902 0.67626 0.66872 0.0
Cd89 Cd 0.19411 0.66263 0.69403 0.0
O90 O 0.19708 0.70037 0.66997 0.0
Cd91 Cd 0.17638 0.69751 0.69096 0.0
O92 O 0.15166 0.70556 0.70305 0.0
C93 C 0.14127 0.71016 0.69253 0.0
O94 O 0.14563 0.70922 0.67548 0.0
C95 C 0.20793 0.69054 0.6629 0.0
C96 C 0.21334 0.63901 0.70665 0.0
O97 O 0.20341 0.63456 0.6932 0.0
O98 O 0.21431 0.65462 0.71416 0.0
O99 O 0.86626 0.68158 0.69142 0.0
Cd100 Cd 0.83692 0.6669 0.68234 0.0
O101 O 0.87379 0.65834 0.70062 0.0
Cd102 Cd 0.84949 0.64031 0.69519 0.0
O103 O 0.83507 0.61575 0.70205 0.0
C104 C 0.8443 0.6036 0.70182 0.0
O105 O 0.86095 0.60636 0.69647 0.0
C106 C 0.87749 0.6742 0.69829 0.0
C107 C 0.82375 0.67913 0.65327 0.0
O108 O 0.82249 0.68698 0.66906 0.0
O109 O 0.83146 0.66564 0.65114 0.0
O110 O 0.89553 0.33138 0.65518 0.0
Cd111 Cd 0.91116 0.33895 0.68321 0.0
O112 O 0.88726 0.35682 0.65415 0.0
Cd113 Cd 0.8965 0.36855 0.6804 0.0
O114 O 0.89045 0.38364 0.70566 0.0
C115 C 0.88224 0.39633 0.70459 0.0
O116 O 0.87896 0.39997 0.68873 0.0
C117 C 0.88778 0.34132 0.64727 0.0
C118 C 0.93231 0.31414 0.68862 0.0
O119 O 0.91558 0.31169 0.69169 0.0
O120 O 0.93922 0.32838 0.68299 0.0
O121 O 0.22186 0.40781 0.67722 0.0
Cd122 Cd 0.19915 0.38292 0.66994 0.0
O123 O 0.22867 0.39647 0.70062 0.0
Cd124 Cd 0.20839 0.37379 0.69747 0.0
O125 O 0.18506 0.35511 0.70201 0.0
C126 C 0.17073 0.361 0.70654 0.0
O127 O 0.17058 0.37774 0.70756 0.0
C128 C 0.23123 0.40862 0.69081 0.0
C129 C 0.21023 0.35847 0.64371 0.0
O130 O 0.20099 0.36971 0.63988 0.0
O131 O 0.2144 0.35887 0.65995 0.0
O132 O 0.21169 0.36787 0.37572 0.0
Cd133 Cd 0.19628 0.34021 0.38409 0.0
O134 O 0.18555 0.36797 0.36567 0.0
Cd135 Cd 0.16427 0.37384 0.35028 0.0
O136 O 0.13949 0.36812 0.3362 0.0
C137 C 0.13322 0.35216 0.33369 0.0
O138 O 0.14193 0.34097 0.33957 0.0
C139 C 0.20158 0.37504 0.36713 0.0
C140 C 0.20728 0.32585 0.41273 0.0
O141 O 0.21517 0.32415 0.39744 0.0
O142 O 0.19469 0.33503 0.41472 0.0
O143 O 0.19214 0.66049 0.39558 0.0
Cd144 Cd 0.17702 0.64194 0.37092 0.0
O145 O 0.1675 0.66793 0.40825 0.0
Cd146 Cd 0.15221 0.6592 0.38418 0.0
O147 O 0.13884 0.66079 0.35957 0.0
C148 C 0.12653 0.67005 0.36026 0.0
O149 O 0.12176 0.67769 0.37579 0.0
C150 C 0.18409 0.66795 0.4087 0.0
C151 C 0.19615 0.61503 0.35891 0.0
O152 O 0.19747 0.62852 0.35082 0.0
O153 O 0.18564 0.61415 0.37254 0.0
O154 O 0.89055 0.76209 0.42463 0.0
Cd155 Cd 0.91164 0.78313 0.41077 0.0
O156 O 0.89037 0.73999 0.40374 0.0
Cd157 Cd 0.88222 0.71359 0.3907 0.0
O158 O 0.87298 0.68774 0.37711 0.0
C159 C 0.86936 0.68565 0.36069 0.0
O160 O 0.87134 0.69921 0.35194 0.0
C161 C 0.88451 0.74661 0.41865 0.0
C162 C 0.93764 0.77018 0.38854 0.0
O163 O 0.94038 0.77496 0.40512 0.0
O164 O 0.9224 0.77103 0.38268 0.0
O165 O 0.89466 0.37992 0.32846 0.0
Cd166 Cd 0.87699 0.39669 0.35026 0.0
O167 O 0.89025 0.35507 0.33992 0.0
Cd168 Cd 0.87439 0.36057 0.36433 0.0
O169 O 0.86266 0.35259 0.38967 0.0
C170 C 0.85847 0.33644 0.39044 0.0
O171 O 0.86091 0.32566 0.37613 0.0
C172 C 0.89706 0.3642 0.32792 0.0
C173 C 0.86763 0.4264 0.33817 0.0
O174 O 0.88223 0.42699 0.34598 0.0
O175 O 0.85755 0.4118 0.3359 0.0
O176 O 0.71312 0.17353 0.65609 0.0
Cd177 Cd 0.70133 0.16167 0.68349 0.0
O178 O 0.69888 0.1961 0.65623 0.0
Cd179 Cd 0.67828 0.19287 0.6774 0.0
O180 O 0.65299 0.19807 0.69091 0.0
C181 C 0.65083 0.21367 0.69598 0.0
O182 O 0.66398 0.22605 0.69363 0.0
C183 C 0.71053 0.18701 0.64949 0.0
C184 C 0.72615 0.14441 0.6976 0.0
O185 O 0.71323 0.13583 0.68864 0.0
O186 O 0.72722 0.16092 0.69998 0.0
O187 O 0.37264 0.1818 0.68883 0.0
Cd188 Cd 0.34604 0.16549 0.67459 0.0
O189 O 0.38094 0.15823 0.69644 0.0
Cd190 Cd 0.35808 0.13936 0.68775 0.0
O191 O 0.34335 0.11404 0.69184 0.0
C192 C 0.35246 0.10176 0.69133 0.0
O193 O 0.36941 0.1048 0.68717 0.0
C194 C 0.38376 0.17449 0.69596 0.0
C195 C 0.33431 0.1814 0.64724 0.0
O196 O 0.32785 0.18381 0.66313 0.0
O197 O 0.34634 0.17162 0.64435 0.0
O198 O 0.3945 0.81921 0.65916 0.0
Cd199 Cd 0.40924 0.82918 0.68739 0.0
O200 O 0.38889 0.84503 0.65505 0.0
Cd201 Cd 0.39628 0.85817 0.68143 0.0
O202 O 0.38995 0.87503 0.70546 0.0
C203 C 0.38102 0.88693 0.70327 0.0
O204 O 0.37694 0.88872 0.68702 0.0
C205 C 0.38851 0.82904 0.64958 0.0
C206 C 0.43668 0.81076 0.69296 0.0
O207 O 0.42072 0.80562 0.6979 0.0
O208 O 0.43966 0.8245 0.68522 0.0
O209 O 0.70376 0.89758 0.69042 0.0
Cd210 Cd 0.68803 0.8681 0.68385 0.0
O211 O 0.72628 0.88955 0.70259 0.0
Cd212 Cd 0.71294 0.86318 0.70282 0.0
O213 O 0.69189 0.84336 0.71038 0.0
C214 C 0.67876 0.84926 0.71848 0.0
O215 O 0.67909 0.8661 0.7214 0.0
C216 C 0.71881 0.90138 0.69751 0.0
C217 C 0.70108 0.8487 0.65402 0.0
O218 O 0.68867 0.85767 0.65264 0.0
O219 O 0.70748 0.84913 0.66941 0.0
O220 O 0.70604 0.85992 0.37343 0.0
Cd221 Cd 0.69097 0.83197 0.3812 0.0
O222 O 0.67967 0.86492 0.36778 0.0
Cd223 Cd 0.66097 0.87704 0.35452 0.0
O224 O 0.63878 0.86988 0.33673 0.0
C225 C 0.63055 0.87954 0.32896 0.0
O226 O 0.63517 0.89639 0.33147 0.0
C227 C 0.69628 0.86959 0.36772 0.0
C228 C 0.70235 0.81914 0.41067 0.0
O229 O 0.71066 0.81757 0.3956 0.0
O230 O 0.68899 0.82731 0.41202 0.0
O231 O 0.69688 0.16713 0.39242 0.0
Cd232 Cd 0.6805 0.14718 0.36943 0.0
O233 O 0.67405 0.18078 0.39985 0.0
Cd234 Cd 0.65861 0.17036 0.37632 0.0
O235 O 0.63989 0.17326 0.35632 0.0
C236 C 0.64503 0.18055 0.34254 0.0
O237 O 0.66203 0.18531 0.33973 0.0
C238 C 0.68962 0.17824 0.40273 0.0
C239 C 0.69717 0.11827 0.3583 0.0
O240 O 0.69877 0.13107 0.34916 0.0
O241 O 0.68773 0.11911 0.37272 0.0
O242 O 0.37491 0.2565 0.40552 0.0
Cd243 Cd 0.39138 0.27519 0.38547 0.0
O244 O 0.37586 0.23242 0.38764 0.0
Cd245 Cd 0.3699 0.20457 0.37925 0.0
O246 O 0.362 0.17787 0.3674 0.0
C247 C 0.35931 0.17508 0.35079 0.0
O248 O 0.36159 0.18825 0.34146 0.0
C249 C 0.37067 0.24022 0.40225 0.0
C250 C 0.41917 0.26139 0.36705 0.0
O251 O 0.42128 0.27 0.38252 0.0
O252 O 0.40376 0.259 0.36045 0.0
O253 O 0.38063 0.87395 0.33244 0.0
Cd254 Cd 0.35498 0.88574 0.34752 0.0
O255 O 0.37716 0.84945 0.34453 0.0
Cd256 Cd 0.35695 0.85357 0.36562 0.0
O257 O 0.34334 0.84672 0.39066 0.0
C258 C 0.34142 0.83085 0.39311 0.0
O259 O 0.34708 0.81972 0.38055 0.0
C260 C 0.38511 0.85919 0.33355 0.0
C261 C 0.34584 0.91521 0.33463 0.0
O262 O 0.35485 0.91661 0.3487 0.0
O263 O 0.34144 0.90002 0.32643 0.0
O264 O 0.70634 0.67959 0.16755 0.0
Cd265 Cd 0.69156 0.6656 0.1927 0.0
O266 O 0.6925 0.70233 0.16697 0.0
Cd267 Cd 0.67091 0.69882 0.18706 0.0
O268 O 0.6454 0.70556 0.19859 0.0
C269 C 0.63209 0.70285 0.18862 0.0
O270 O 0.63387 0.69531 0.17227 0.0
C271 C 0.70445 0.6933 0.16098 0.0
C272 C 0.71135 0.64218 0.20491 0.0
O273 O 0.70128 0.63771 0.19156 0.0
O274 O 0.71218 0.65774 0.21256 0.0
O275 O 0.37352 0.67823 0.15803 0.0
Cd276 Cd 0.34746 0.6569 0.15003 0.0
O277 O 0.36898 0.67486 0.18637 0.0
Cd278 Cd 0.34868 0.6521 0.18308 0.0
O279 O 0.3357 0.62743 0.19102 0.0
C280 C 0.34507 0.6154 0.1909 0.0
O281 O 0.36156 0.61803 0.18503 0.0
C282 C 0.37757 0.68264 0.17423 0.0
C283 C 0.3271 0.66696 0.12458 0.0
O284 O 0.32604 0.67313 0.14101 0.0
O285 O 0.33783 0.65605 0.12007 0.0
O286 O 0.40456 0.33712 0.14672 0.0
Cd287 Cd 0.42286 0.35503 0.16958 0.0
O288 O 0.37851 0.34176 0.15838 0.0
Cd289 Cd 0.38727 0.36164 0.18027 0.0
O290 O 0.38059 0.38495 0.19649 0.0
C291 C 0.3726 0.38434 0.21156 0.0
O292 O 0.36954 0.36955 0.21823 0.0
C293 C 0.38779 0.33426 0.1463 0.0
C294 C 0.44624 0.33553 0.18202 0.0
O295 O 0.43178 0.33784 0.1906 0.0
O296 O 0.44977 0.34262 0.16771 0.0
O297 O 0.7152 0.40795 0.17437 0.0
Cd298 Cd 0.6916 0.38335 0.16899 0.0
O299 O 0.72554 0.39569 0.19542 0.0
Cd300 Cd 0.70608 0.3724 0.19351 0.0
O301 O 0.68466 0.35385 0.20275 0.0
C302 C 0.67306 0.36036 0.21287 0.0
O303 O 0.67454 0.37727 0.21634 0.0
C304 C 0.72632 0.40837 0.18642 0.0
C305 C 0.69871 0.3583 0.14129 0.0
O306 O 0.68999 0.37036 0.13865 0.0
O307 O 0.70432 0.35825 0.15694 0.0
O308 O 0.6847 0.36266 0.88021 0.0
Cd309 Cd 0.66271 0.3474 0.89955 0.0
O310 O 0.67752 0.38861 0.888 0.0
Cd311 Cd 0.65296 0.37667 0.89995 0.0
O312 O 0.62911 0.36003 0.89004 0.0
C313 C 0.6301 0.35583 0.8733 0.0
O314 O 0.64459 0.36162 0.86459 0.0
C315 C 0.68757 0.37887 0.87932 0.0
C316 C 0.67658 0.32234 0.9154 0.0
O317 O 0.66954 0.31877 0.90011 0.0
O318 O 0.67704 0.33778 0.92326 0.0
O319 O 0.69618 0.6459 0.90552 0.0
Cd320 Cd 0.67798 0.62726 0.88305 0.0
O321 O 0.68969 0.67102 0.90006 0.0
Cd322 Cd 0.67149 0.66161 0.87827 0.0
O323 O 0.65366 0.66435 0.85725 0.0
C324 C 0.65312 0.67974 0.85413 0.0
O325 O 0.6631 0.69248 0.86342 0.0
C326 C 0.69798 0.66227 0.90893 0.0
C327 C 0.69524 0.59938 0.8694 0.0
O328 O 0.69604 0.61269 0.8611 0.0
O329 O 0.68609 0.59912 0.88399 0.0
O330 O 0.38746 0.77625 0.90701 0.0
Cd331 Cd 0.40397 0.79304 0.8854 0.0
O332 O 0.38481 0.75264 0.88794 0.0
Cd333 Cd 0.37665 0.72502 0.87989 0.0
O334 O 0.37242 0.69823 0.86725 0.0
C335 C 0.35686 0.69053 0.86424 0.0
O336 O 0.34341 0.69877 0.8692 0.0
C337 C 0.38171 0.76027 0.90332 0.0
C338 C 0.43101 0.77618 0.86948 0.0
O339 O 0.43358 0.78682 0.88369 0.0
O340 O 0.41561 0.77355 0.86283 0.0
O341 O 0.40285 0.38359 0.8403 0.0
Cd342 Cd 0.3833 0.40052 0.85983 0.0
O343 O 0.39656 0.35941 0.85281 0.0
Cd344 Cd 0.37821 0.36613 0.87488 0.0
O345 O 0.36298 0.35811 0.89864 0.0
C346 C 0.36131 0.34204 0.90012 0.0
O347 O 0.36839 0.33186 0.88759 0.0
C348 C 0.40487 0.36792 0.84101 0.0
C349 C 0.37367 0.42937 0.84616 0.0
O350 O 0.38792 0.43064 0.85477 0.0
O351 O 0.36417 0.41446 0.84371 0.0
H352 H 0.28672 0.25564 0.96128 0.0
H353 H 0.30606 0.27968 0.01189 0.0
H354 H 0.27399 0.22922 0.00721 0.0
H355 H 0.26645 0.23682 0.035 0.0
H356 H 0.29461 0.25241 0.08315 0.0
H357 H 0.3168 0.27028 0.03465 0.0
C358 C 0.28769 0.25531 0.97546 0.0
C359 C 0.27868 0.24121 0.98329 0.0
C360 C 0.29796 0.26897 0.98561 0.0
C361 C 0.29869 0.26871 0.0041 0.0
C362 C 0.29017 0.25437 0.01234 0.0
C363 C 0.28043 0.24054 0.00154 0.0
C364 C 0.29143 0.25375 0.03203 0.0
C365 C 0.27807 0.24387 0.04156 0.0
C366 C 0.27929 0.24325 0.0599 0.0
C367 C 0.29362 0.25302 0.06901 0.0
C368 C 0.30705 0.26294 0.05999 0.0
C369 C 0.30607 0.26297 0.0415 0.0
H370 H 0.74077 0.25022 0.08195 0.0
H371 H 0.7624 0.22859 0.03218 0.0
H372 H 0.73617 0.27325 0.03423 0.0
H373 H 0.72722 0.2584 0.00633 0.0
H374 H 0.76262 0.25433 0.96093 0.0
H375 H 0.77873 0.24414 0.01165 0.0
C376 C 0.74336 0.25047 0.0678 0.0
C377 C 0.73714 0.26312 0.05923 0.0
C378 C 0.75273 0.23806 0.05823 0.0
C379 C 0.75526 0.23809 0.03971 0.0
C380 C 0.74903 0.25053 0.03083 0.0
C381 C 0.74016 0.26307 0.04078 0.0
C382 C 0.7525 0.251 0.01134 0.0
C383 C 0.73988 0.25566 0.00061 0.0
C384 C 0.74342 0.2566 0.98238 0.0
C385 C 0.75969 0.25288 0.97484 0.0
C386 C 0.77254 0.24838 0.98529 0.0
C387 C 0.76877 0.24738 0.0035 0.0
H388 H 0.78147 0.75559 0.96887 0.0
H389 H 0.77128 0.73265 0.01724 0.0
H390 H 0.8012 0.78392 0.01762 0.0
H391 H 0.81303 0.77724 0.04118 0.0
H392 H 0.79348 0.76175 0.09156 0.0
H393 H 0.7646 0.74135 0.04479 0.0
C394 C 0.78285 0.7564 0.98315 0.0
C395 C 0.79281 0.77103 0.99216 0.0
C396 C 0.77469 0.74278 0.99222 0.0
C397 C 0.77702 0.74362 0.01061 0.0
C398 C 0.78647 0.75843 0.02029 0.0
C399 C 0.79408 0.77224 0.01077 0.0
C400 C 0.78843 0.75936 0.04014 0.0
C401 C 0.80284 0.77001 0.04878 0.0
C402 C 0.80465 0.77111 0.0673 0.0
C403 C 0.79216 0.76108 0.07729 0.0
C404 C 0.77805 0.75003 0.06907 0.0
C405 C 0.77605 0.74943 0.05065 0.0
H406 H 0.25141 0.7404 0.07413 0.0
H407 H 0.26706 0.71516 0.02327 0.0
H408 H 0.2472 0.76374 0.02682 0.0
H409 H 0.23589 0.74988 -0.00071 0.0
H410 H 0.27054 0.74442 0.95317 0.0
H411 H 0.28461 0.72995 0.0027 0.0
C412 C 0.25278 0.73974 0.05977 0.0
C413 C 0.24825 0.7533 0.05149 0.0
C414 C 0.26012 0.72607 0.04983 0.0
C415 C 0.26143 0.72555 0.03115 0.0
C416 C 0.25642 0.73887 0.02257 0.0
C417 C 0.25007 0.75282 0.03298 0.0
C418 C 0.25954 0.73924 0.00304 0.0
C419 C 0.24775 0.7458 0.99288 0.0
C420 C 0.25151 0.74775 0.97479 0.0
C421 C 0.26732 0.74283 0.96696 0.0
C422 C 0.2795 0.73668 0.97699 0.0
C423 C 0.27523 0.73453 0.99487 0.0
H424 H 0.06396 0.2796 0.24542 0.0
H425 H 0.01652 0.25923 0.21757 0.0
H426 H 0.01549 0.29688 0.26439 0.0
H427 H 0.99259 0.30361 0.25236 0.0
H428 H 0.94211 0.27444 0.23941 0.0
H429 H 0.98905 0.25166 0.22524 0.0
C430 C 0.0498 0.27887 0.24427 0.0
C431 C 0.04064 0.28968 0.25615 0.0
C432 C 0.0411 0.26745 0.23069 0.0
C433 C 0.02295 0.2676 0.22852 0.0
C434 C 0.01324 0.27825 0.24051 0.0
C435 C 0.02242 0.28911 0.25443 0.0
C436 C 0.99356 0.27762 0.2391 0.0
C437 C 0.98501 0.2917 0.24651 0.0
C438 C 0.9665 0.29044 0.24704 0.0
C439 C 0.95639 0.27538 0.23898 0.0
C440 C 0.96449 0.26153 0.23059 0.0
C441 C 0.98299 0.26264 0.23106 0.0
H442 H 0.7858 0.93978 0.30025 0.0
H443 H 0.8025 0.98544 0.27543 0.0
H444 H 0.75096 0.9779 0.30116 0.0
H445 H 0.75757 0.0065 0.30924 0.0
H446 H 0.77023 0.0498 0.27951 0.0
H447 H 0.78899 0.00223 0.26035 0.0
C448 C 0.78291 0.95194 0.29681 0.0
C449 C 0.7668 0.95771 0.30242 0.0
C450 C 0.79539 0.96153 0.28642 0.0
C451 C 0.7923 0.97777 0.28261 0.0
C452 C 0.77652 0.98421 0.28843 0.0
C453 C 0.76362 0.97371 0.29774 0.0
C454 C 0.77375 0.00204 0.28531 0.0
C455 C 0.76379 0.01197 0.29772 0.0
C456 C 0.76194 0.02907 0.29549 0.0
C457 C 0.77081 0.03642 0.28104 0.0
C458 C 0.78058 0.02685 0.26846 0.0
C459 C 0.78166 0.00957 0.27037 0.0
H460 H 0.10696 0.73217 0.25841 0.0
H461 H 0.05289 0.72153 0.27639 0.0
H462 H 0.06984 0.76516 0.24764 0.0
H463 H 0.03894 0.75483 0.23755 0.0
H464 H 0.99679 0.76709 0.27404 0.0
H465 H 0.03942 0.74455 0.2921 0.0
C466 C 0.09357 0.73515 0.25896 0.0
C467 C 0.08998 0.74971 0.25161 0.0
C468 C 0.08034 0.7251 0.26811 0.0
C469 C 0.06309 0.72924 0.26921 0.0
C470 C 0.05906 0.74348 0.2615 0.0
C471 C 0.0726 0.75357 0.25263 0.0
C472 C 0.04133 0.74907 0.2645 0.0
C473 C 0.03295 0.75507 0.25081 0.0
C474 C 0.01686 0.76153 0.25432 0.0
C475 C 0.00909 0.76185 0.27144 0.0
C476 C 0.01694 0.75547 0.2851 0.0
C477 C 0.03311 0.7492 0.28153 0.0
H478 H 0.28486 0.09374 0.27291 0.0
H479 H 0.26474 0.04304 0.24868 0.0
H480 H 0.31093 0.0511 0.28105 0.0
H481 H 0.30303 0.02425 0.28571 0.0
H482 H 0.28343 0.97473 0.25793 0.0
H483 H 0.27518 0.02045 0.2368 0.0
C484 C 0.28599 0.08012 0.2701 0.0
C485 C 0.29918 0.07358 0.27829 0.0
C486 C 0.27386 0.06928 0.25889 0.0
C487 C 0.27461 0.05138 0.25668 0.0
C488 C 0.28784 0.0443 0.26463 0.0
C489 C 0.30024 0.05578 0.27523 0.0
C490 C 0.28832 0.02503 0.26208 0.0
C491 C 0.29631 0.01671 0.27448 0.0
C492 C 0.29555 -0.00147 0.27252 0.0
C493 C 0.28568 0.98869 0.25861 0.0
C494 C 0.27808 0.99656 0.24591 0.0
C495 C 0.28015 0.01464 0.24734 0.0
H496 H 0.06905 0.7765 0.77595 0.0
H497 H 0.02346 0.75944 0.74403 0.0
H498 H 0.01853 0.78919 0.79537 0.0
H499 H 0.99852 0.80033 0.78058 0.0
H500 H 0.94844 0.77315 0.76295 0.0
H501 H 0.99521 0.74917 0.75172 0.0
C502 C 0.05493 0.77549 0.77436 0.0
C503 C 0.04471 0.784 0.7875 0.0
C504 C 0.04734 0.76616 0.75888 0.0
C505 C 0.02925 0.76618 0.75619 0.0
C506 C 0.01866 0.77479 0.76912 0.0
C507 C 0.02656 0.7833 0.78488 0.0
C508 C -0.00067 0.77468 0.76653 0.0
C509 C 0.99091 0.78888 0.77377 0.0
C510 C 0.97255 0.78828 0.77272 0.0
C511 C 0.96262 0.77364 0.76364 0.0
C512 C 0.97072 0.75961 0.75567 0.0
C513 C 0.98904 0.76018 0.75738 0.0
H514 H 0.2987 0.93252 0.80101 0.0
H515 H 0.31505 0.97708 0.77413 0.0
H516 H 0.26597 0.97251 0.80493 0.0
H517 H 0.27196 0.00108 0.80893 0.0
H518 H 0.28045 0.04032 0.77403 0.0
H519 H 0.30102 0.99277 0.75913 0.0
C520 C 0.2963 0.94494 0.79776 0.0
C521 C 0.28124 0.95182 0.80488 0.0
C522 C 0.30816 0.95377 0.78619 0.0
C523 C 0.30527 0.97006 0.78232 0.0
C524 C 0.29016 0.97728 0.78911 0.0
C525 C 0.2781 0.96778 0.8002 0.0
C526 C 0.28701 0.99462 0.78466 0.0
C527 C 0.27713 0.0052 0.79638 0.0
C528 C 0.27418 0.02143 0.79232 0.0
C529 C 0.28217 0.02759 0.77684 0.0
C530 C 0.29243 0.0176 0.76509 0.0
C531 C 0.29414 0.00088 0.76879 0.0
H532 H 0.1074 0.26134 0.75922 0.0
H533 H 0.05849 0.22895 0.76916 0.0
H534 H 0.05856 0.27427 0.74285 0.0
H535 H 0.03455 0.2563 0.72956 0.0
H536 H 0.98503 0.24037 0.75594 0.0
H537 H 0.03331 0.23992 0.78204 0.0
C538 C 0.09317 0.25843 0.75811 0.0
C539 C 0.08412 0.26942 0.74992 0.0
C540 C 0.08404 0.24382 0.76513 0.0
C541 C 0.06558 0.2402 0.76376 0.0
C542 C 0.05618 0.25117 0.75585 0.0
C543 C 0.06563 0.26569 0.74889 0.0
C544 C 0.03648 0.24787 0.75554 0.0
C545 C 0.02733 0.25141 0.74096 0.0
C546 C 0.00876 0.2486 0.741 0.0
C547 C -0.00063 0.24199 0.75555 0.0
C548 C 0.00816 0.23881 0.77028 0.0
C549 C 0.02665 0.24186 0.7703 0.0
H550 H 0.80134 0.10248 0.7808 0.0
H551 H 0.78934 0.05386 0.74849 0.0
H552 H 0.8077 0.05601 0.80203 0.0
H553 H 0.81986 0.03306 0.79025 0.0
H554 H 0.79367 0.98282 0.77022 0.0
H555 H 0.77727 0.02761 0.75358 0.0
C556 C 0.80041 0.08852 0.7793 0.0
C557 C 0.80561 0.08036 0.79316 0.0
C558 C 0.79414 0.079 0.76339 0.0
C559 C 0.7935 0.06093 0.76114 0.0
C560 C 0.79876 0.05227 0.77487 0.0
C561 C 0.80443 0.06226 0.79096 0.0
C562 C 0.79819 0.03293 0.77271 0.0
C563 C 0.80967 0.0251 0.78227 0.0
C564 C 0.80829 0.00697 0.78139 0.0
C565 C 0.79562 0.99673 0.77033 0.0
C566 C 0.78509 0.00404 0.7596 0.0
C567 C 0.78605 0.0221 0.76125 0.0
H568 H 0.27232 0.75262 0.46808 0.0
H569 H 0.26454 0.72986 0.5166 0.0
H570 H 0.29927 0.77842 0.51438 0.0
H571 H 0.31123 0.77155 0.53738 0.0
H572 H 0.29464 0.75661 0.58873 0.0
H573 H 0.26168 0.73808 0.5445 0.0
C574 C 0.27544 0.75287 0.48194 0.0
C575 C 0.28754 0.76646 0.48994 0.0
C576 C 0.26675 0.74003 0.49172 0.0
C577 C 0.27065 0.74051 0.5097 0.0
C578 C 0.28235 0.7543 0.51846 0.0
C579 C 0.29051 0.76742 0.50828 0.0
C580 C 0.28587 0.75492 0.53803 0.0
C581 C 0.3013 0.76477 0.5456 0.0
C582 C 0.30444 0.76567 0.56388 0.0
C583 C 0.29233 0.75612 0.57465 0.0
C584 C 0.27728 0.74577 0.56747 0.0
C585 C 0.2739 0.74551 0.54938 0.0
H586 H 0.75844 0.75295 0.59224 0.0
H587 H 0.77783 0.72845 0.54288 0.0
H588 H 0.75412 0.77473 0.54394 0.0
H589 H 0.74397 0.76239 0.51821 0.0
H590 H 0.76951 0.74574 0.46887 0.0
H591 H 0.79029 0.73714 0.5179 0.0
C592 C 0.76097 0.75275 0.57804 0.0
C593 C 0.75491 0.76516 0.56907 0.0
C594 C 0.76987 0.73981 0.5688 0.0
C595 C 0.77161 0.73876 0.55009 0.0
C596 C 0.76544 0.75096 0.54072 0.0
C597 C 0.75779 0.76448 0.55058 0.0
C598 C 0.76667 0.74954 0.52074 0.0
C599 C 0.75439 0.75625 0.51117 0.0
C600 C 0.75566 0.75552 0.49252 0.0
C601 C 0.7686 0.74678 0.48328 0.0
C602 C 0.78097 0.74002 0.49237 0.0
C603 C 0.78018 0.74174 0.51105 0.0
H604 H 0.78338 0.26034 0.4619 0.0
H605 H 0.76491 0.24306 0.5115 0.0
H606 H 0.81445 0.27746 0.50799 0.0
H607 H 0.81097 0.28418 0.53592 0.0
H608 H 0.79687 0.26161 0.58396 0.0
H609 H 0.77449 0.23631 0.53527 0.0
C610 C 0.78555 0.26005 0.47589 0.0
C611 C 0.80009 0.27053 0.48406 0.0
C612 C 0.77319 0.24985 0.48575 0.0
C613 C 0.77518 0.25039 0.50414 0.0
C614 C 0.79008 0.26019 0.51277 0.0
C615 C 0.80258 0.27009 0.50229 0.0
C616 C 0.7923 0.26032 0.53255 0.0
C617 C 0.80365 0.27373 0.54233 0.0
C618 C 0.80591 0.27385 0.56065 0.0
C619 C 0.79572 0.2612 0.56969 0.0
C620 C 0.78407 0.24799 0.56057 0.0
C621 C 0.78294 0.24718 0.54202 0.0
H622 H 0.26911 0.25821 0.58948 0.0
H623 H 0.25663 0.2744 0.54041 0.0
H624 H 0.28024 0.22816 0.54005 0.0
H625 H 0.28998 0.23419 0.51339 0.0
H626 H 0.26608 0.24161 0.46564 0.0
H627 H 0.24507 0.2618 0.516 0.0
C628 C 0.26884 0.2561 0.5751 0.0
C629 C 0.27687 0.24258 0.56571 0.0
C630 C 0.26055 0.26701 0.56597 0.0
C631 C 0.26128 0.26481 0.54728 0.0
C632 C 0.26798 0.25068 0.53753 0.0
C633 C 0.27548 0.23946 0.54705 0.0
C634 C 0.26718 0.24782 0.51754 0.0
C635 C 0.27948 0.23884 0.50718 0.0
C636 C 0.27872 0.23617 0.48856 0.0
C637 C 0.26617 0.24322 0.48006 0.0
C638 C 0.25459 0.25327 0.48986 0.0
C639 C 0.25459 0.25473 0.50855 0.0
H640 H 0.79316 0.42775 0.79979 0.0
H641 H 0.75796 0.46585 0.80672 0.0
H642 H 0.80977 0.47715 0.78205 0.0
H643 H 0.79495 0.49302 0.76726 0.0
H644 H 0.77669 0.54017 0.78943 0.0
H645 H 0.7632 0.49462 0.81571 0.0
C646 C 0.79039 0.44057 0.79833 0.0
C647 C 0.80297 0.45171 0.78968 0.0
C648 C 0.77416 0.44558 0.80466 0.0
C649 C 0.77073 0.46224 0.80248 0.0
C650 C 0.78343 0.47391 0.79428 0.0
C651 C 0.79958 0.46842 0.78806 0.0
C652 C 0.78009 0.4918 0.79216 0.0
C653 C 0.78794 0.50014 0.77773 0.0
C654 C 0.78691 0.51761 0.77664 0.0
C655 C 0.77691 0.52651 0.78968 0.0
C656 C 0.76768 0.51818 0.80343 0.0
C657 C 0.76967 0.50091 0.80477 0.0
H658 H 0.29899 0.60177 0.77906 0.0
H659 H 0.28202 0.54862 0.76005 0.0
H660 H 0.32664 0.56312 0.79454 0.0
H661 H 0.32172 0.53597 0.79953 0.0
H662 H 0.31799 0.48694 0.7673 0.0
H663 H 0.29559 0.52766 0.74899 0.0
C664 C 0.30013 0.58821 0.77876 0.0
C665 C 0.31305 0.5836 0.78899 0.0
C666 C 0.2891 0.57573 0.76794 0.0
C667 C 0.29135 0.55825 0.76743 0.0
C668 C 0.30522 0.55326 0.77648 0.0
C669 C 0.31598 0.56628 0.7873 0.0
C670 C 0.30859 0.53467 0.77433 0.0
C671 C 0.31763 0.52804 0.78731 0.0
C672 C 0.32091 0.51075 0.78489 0.0
C673 C 0.31504 0.50008 0.76949 0.0
C674 C 0.3051 0.50584 0.75706 0.0
C675 C 0.30257 0.52325 0.75916 0.0
H676 H 0.28285 0.43809 0.28487 0.0
H677 H 0.25747 0.48255 0.30137 0.0
H678 H 0.30693 0.48778 0.27165 0.0
H679 H 0.29498 0.50687 0.25918 0.0
H680 H 0.2808 0.55543 0.28239 0.0
H681 H 0.26462 0.51031 0.30862 0.0
C682 C 0.28296 0.45191 0.28563 0.0
C683 C 0.29636 0.46198 0.27662 0.0
C684 C 0.26929 0.4594 0.29523 0.0
C685 C 0.26844 0.47705 0.29467 0.0
C686 C 0.28165 0.48749 0.28566 0.0
C687 C 0.29594 0.47983 0.27744 0.0
C688 C 0.28065 0.50626 0.28454 0.0
C689 C 0.28889 0.51436 0.27008 0.0
C690 C 0.28912 0.53208 0.26923 0.0
C691 C 0.28016 0.54164 0.28261 0.0
C692 C 0.27058 0.53374 0.29641 0.0
C693 C 0.27138 0.51618 0.29759 0.0
H694 H 0.79848 0.60311 0.27634 0.0
H695 H 0.77973 0.55083 0.25545 0.0
H696 H 0.82538 0.56251 0.28859 0.0
H697 H 0.81894 0.53564 0.29383 0.0
H698 H 0.81318 0.48691 0.26113 0.0
H699 H 0.79135 0.52866 0.24418 0.0
C700 C 0.79959 0.58949 0.27502 0.0
C701 C 0.8125 0.58393 0.28458 0.0
C702 C 0.78811 0.57768 0.26389 0.0
C703 C 0.7895 0.55994 0.26285 0.0
C704 C 0.80305 0.55399 0.27144 0.0
C705 C 0.81454 0.56635 0.28218 0.0
C706 C 0.8054 0.5351 0.26899 0.0
C707 C 0.81438 0.52795 0.28163 0.0
C708 C 0.81703 0.51051 0.27892 0.0
C709 C 0.81056 0.50015 0.26359 0.0
C710 C 0.80038 0.50631 0.25163 0.0
C711 C 0.79848 0.52391 0.254 0.0
H712 H 0.4541 0.27486 0.7619 0.0
H713 H 0.50467 0.30177 0.77832 0.0
H714 H 0.50025 0.24983 0.75115 0.0
H715 H 0.52888 0.25903 0.74329 0.0
H716 H 0.57391 0.27449 0.77634 0.0
H717 H 0.52468 0.29163 0.79325 0.0
C718 C 0.46827 0.27517 0.76247 0.0
C719 C 0.47604 0.2608 0.75489 0.0
C720 C 0.4785 0.28989 0.77106 0.0
C721 C 0.49685 0.29024 0.77192 0.0
C722 C 0.50497 0.27569 0.76512 0.0
C723 C 0.49435 0.26111 0.75647 0.0
C724 C 0.52423 0.27543 0.76787 0.0
C725 C 0.5346 0.26593 0.75543 0.0
C726 C 0.55258 0.26561 0.75837 0.0
C727 C 0.5602 0.27501 0.77377 0.0
C728 C 0.5503 0.28462 0.78621 0.0
C729 C 0.53232 0.28453 0.78333 0.0
H730 H 0.61154 0.7461 0.76593 0.0
H731 H 0.56 0.71738 0.77434 0.0
H732 H 0.56571 0.76282 0.74733 0.0
H733 H 0.54007 0.74617 0.73396 0.0
H734 H 0.49308 0.74995 0.76655 0.0
H735 H 0.53776 0.73351 0.78775 0.0
C736 C 0.59741 0.74404 0.76402 0.0
C737 C 0.58988 0.7559 0.75557 0.0
C738 C 0.58675 0.73008 0.77088 0.0
C739 C 0.56835 0.72781 0.76868 0.0
C740 C 0.56058 0.73959 0.76016 0.0
C741 C 0.57154 0.75339 0.75344 0.0
C742 C 0.54107 0.73936 0.76061 0.0
C743 C 0.5327 0.74438 0.74632 0.0
C744 C 0.51521 0.74798 0.74822 0.0
C745 C 0.50602 0.74593 0.76446 0.0
C746 C 0.5139 0.74047 0.7787 0.0
C747 C 0.53136 0.73698 0.77656 0.0
H748 H 0.44375 0.78293 0.24581 0.0
H749 H 0.49351 0.80514 0.26803 0.0
H750 H 0.49103 0.76551 0.22268 0.0
H751 H 0.51555 0.75983 0.23301 0.0
H752 H 0.56631 0.78895 0.24555 0.0
H753 H 0.52008 0.81276 0.25805 0.0
C754 C 0.45798 0.78347 0.24584 0.0
C755 C 0.46629 0.77241 0.23333 0.0
C756 C 0.46786 0.79566 0.25794 0.0
C757 C 0.48631 0.7963 0.25789 0.0
C758 C 0.49516 0.78544 0.24529 0.0
C759 C 0.48483 0.77376 0.23281 0.0
C760 C 0.515 0.78628 0.24521 0.0
C761 C 0.52335 0.7719 0.23812 0.0
C762 C 0.54188 0.77274 0.23803 0.0
C763 C 0.55203 0.78794 0.24572 0.0
C764 C 0.54413 0.80206 0.25354 0.0
C765 C 0.52579 0.80142 0.25262 0.0
H766 H 0.60577 0.25807 0.26754 0.0
H767 H 0.5627 0.27881 0.24847 0.0
H768 H 0.55336 0.22884 0.26691 0.0
H769 H 0.53112 0.24282 0.28182 0.0
H770 H 0.48695 0.26075 0.26124 0.0
H771 H 0.5373 0.26641 0.23332 0.0
C772 C 0.59199 0.25633 0.26412 0.0
C773 C 0.58036 0.2417 0.26846 0.0
C774 C 0.58568 0.2695 0.25653 0.0
C775 C 0.5676 0.26817 0.25344 0.0
C776 C 0.55575 0.25373 0.25753 0.0
C777 C 0.5624 0.24025 0.26429 0.0
C778 C 0.53633 0.25394 0.25718 0.0
C779 C 0.52548 0.24839 0.27146 0.0
C780 C 0.50774 0.25101 0.2732 0.0
C781 C 0.5006 0.2586 0.25993 0.0
C782 C 0.51111 0.26432 0.24549 0.0
C783 C 0.52895 0.26173 0.24413 0.0
H784 H 0.21492 0.21965 0.14181 0.0
H785 H 0.21547 0.16558 0.12233 0.0
H786 H 0.23359 0.17409 0.096 0.0
H787 H 0.21311 0.23564 0.09961 0.0
H788 H 0.22793 0.25532 0.10584 0.0
H789 H 0.21431 0.24495 0.1226 0.0
H790 H 0.24215 0.24364 0.14026 0.0
H791 H 0.25582 0.25415 0.12366 0.0
H792 H 0.26007 0.23363 0.12927 0.0
H793 H 0.25113 0.18881 0.07135 0.0
H794 H 0.26999 0.20835 0.05264 0.0
H795 H 0.25954 0.25256 0.08957 0.0
C796 C 0.21878 0.2096 0.13195 0.0
C797 C 0.21367 0.19195 0.13397 0.0
C798 C 0.21926 0.17917 0.12099 0.0
C799 C 0.22944 0.18389 0.10596 0.0
C800 C 0.23413 0.20144 0.10429 0.0
C801 C 0.22923 0.21408 0.11712 0.0
C802 C 0.23691 0.232 0.11283 0.0
C803 C 0.22218 0.2426 0.11005 0.0
C804 C 0.24949 0.2414 0.12737 0.0
C805 C 0.24687 0.22751 0.09555 0.0
C806 C 0.24488 0.20984 0.09067 0.0
C807 C 0.25281 0.20266 0.07509 0.0
C808 C 0.26338 0.21382 0.0645 0.0
C809 C 0.26612 0.23189 0.06969 0.0
C810 C 0.25759 0.23878 0.08531 0.0
H811 H 0.80312 0.20779 0.13632 0.0
H812 H 0.80508 0.15918 0.10277 0.0
H813 H 0.78847 0.1692 0.07987 0.0
H814 H 0.7596 0.21417 0.12531 0.0
H815 H 0.76538 0.23718 0.12512 0.0
H816 H 0.77699 0.22605 0.13911 0.0
H817 H 0.80684 0.23797 0.12441 0.0
H818 H 0.79532 0.24924 0.1105 0.0
H819 H 0.80977 0.2344 0.10055 0.0
H820 H 0.77082 0.18421 0.06105 0.0
H821 H 0.75584 0.20402 0.04647 0.0
H822 H 0.76748 0.24368 0.09137 0.0
C823 C 0.80001 0.19924 0.12417 0.0
C824 C 0.80529 0.18266 0.12135 0.0
C825 C 0.80118 0.17194 0.10519 0.0
C826 C 0.79168 0.17748 0.09215 0.0
C827 C 0.78658 0.19386 0.09538 0.0
C828 C 0.79079 0.20467 0.1109 0.0
C829 C 0.78439 0.22193 0.11076 0.0
C830 C 0.77078 0.225 0.12598 0.0
C831 C 0.80001 0.23676 0.1116 0.0
C832 C 0.77584 0.2191 0.0928 0.0
C833 C 0.77709 0.20277 0.08422 0.0
C834 C 0.76994 0.19711 0.06756 0.0
C835 C 0.76155 0.20853 0.05933 0.0
C836 C 0.76055 0.22556 0.06762 0.0
C837 C 0.76774 0.23075 0.08468 0.0
H838 H 0.87214 0.80215 0.14536 0.0
H839 H 0.87594 0.8539 0.13029 0.0
H840 H 0.85901 0.84219 0.10337 0.0
H841 H 0.8735 0.77854 0.09954 0.0
H842 H 0.85744 0.76086 0.10554 0.0
H843 H 0.87231 0.77291 0.12194 0.0
H844 H 0.84552 0.77925 0.14263 0.0
H845 H 0.83061 0.76737 0.12629 0.0
H846 H 0.82853 0.78949 0.13444 0.0
H847 H 0.83897 0.82529 0.07987 0.0
H848 H 0.81673 0.80476 0.06237 0.0
H849 H 0.82552 0.76421 0.09319 0.0
C850 C 0.86989 0.81096 0.13612 0.0
C851 C 0.87554 0.82892 0.13982 0.0
C852 C 0.87185 0.84008 0.12766 0.0
C853 C 0.86228 0.83354 0.11231 0.0
C854 C 0.85647 0.81581 0.10931 0.0
C855 C 0.86017 0.80467 0.12087 0.0
C856 C 0.85088 0.78647 0.11565 0.0
C857 C 0.86434 0.77396 0.11035 0.0
C858 C 0.83813 0.78029 0.13064 0.0
C859 C 0.84096 0.78921 0.09968 0.0
C860 C 0.84458 0.80615 0.09603 0.0
C861 C 0.83623 0.81194 0.08245 0.0
C862 C 0.82366 0.80018 0.07254 0.0
C863 C 0.8194 0.7829 0.07641 0.0
C864 C 0.82845 0.77735 0.08996 0.0
H865 H 0.19955 0.80703 0.13001 0.0
H866 H 0.2438 0.84804 0.12734 0.0
H867 H 0.25549 0.83191 0.10026 0.0
H868 H 0.22508 0.77337 0.11949 0.0
H869 H 0.20832 0.75889 0.10696 0.0
H870 H 0.20202 0.77473 0.12438 0.0
H871 H 0.18394 0.78679 0.10202 0.0
H872 H 0.19022 0.77097 0.0845 0.0
H873 H 0.19461 0.79363 0.08185 0.0
H874 H 0.26283 0.811 0.07433 0.0
H875 H 0.26745 0.7852 0.05339 0.0
H876 H 0.22007 0.7565 0.07471 0.0
C877 C 0.21147 0.81271 0.12341 0.0
C878 C 0.22067 0.82884 0.13036 0.0
C879 C 0.23656 0.83574 0.12195 0.0
C880 C 0.24321 0.82672 0.10657 0.0
C881 C 0.23395 0.81071 0.10008 0.0
C882 C 0.21856 0.80362 0.10836 0.0
C883 C 0.21232 0.78536 0.09993 0.0
C884 C 0.21192 0.77233 0.1135 0.0
C885 C 0.1942 0.78413 0.09158 0.0
C886 C 0.22672 0.78321 0.08578 0.0
C887 C 0.23881 0.79814 0.08582 0.0
C888 C 0.25342 0.79926 0.07411 0.0
C889 C 0.25591 0.78462 0.06227 0.0
C890 C 0.24405 0.76905 0.06249 0.0
C891 C 0.22922 0.76836 0.07428 0.0
H892 H 0.22768 0.80288 0.89983 0.0
H893 H 0.17332 0.79551 0.91957 0.0
H894 H 0.18166 0.7785 0.94235 0.0
H895 H 0.23852 0.7617 0.9059 0.0
H896 H 0.26052 0.76993 0.91338 0.0
H897 H 0.25022 0.78128 0.89852 0.0
H898 H 0.25509 0.80925 0.92083 0.0
H899 H 0.26557 0.79802 0.93566 0.0
H900 H 0.24696 0.80871 0.94351 0.0
H901 H 0.19586 0.76048 0.96155 0.0
H902 H 0.21509 0.7459 0.9779 0.0
H903 H 0.2607 0.76845 0.94787 0.0
C904 C 0.21756 0.79769 0.90898 0.0
C905 C 0.19984 0.80035 0.9079 0.0
C906 C 0.18698 0.79361 0.92023 0.0
C907 C 0.19158 0.78388 0.93314 0.0
C908 C 0.20916 0.78135 0.93375 0.0
C909 C 0.222 0.78836 0.92221 0.0
C910 C 0.24006 0.78438 0.92611 0.0
C911 C 0.24778 0.77369 0.91002 0.0
C912 C 0.25266 0.80109 0.93188 0.0
C913 C 0.23534 0.77378 0.94143 0.0
C914 C 0.21745 0.77198 0.94552 0.0
C915 C 0.20995 0.76207 0.95868 0.0
C916 C 0.22106 0.75392 0.96801 0.0
C917 C 0.23959 0.75596 0.96441 0.0
C918 C 0.24666 0.76617 0.95091 0.0
H919 H 0.21197 0.20419 0.90561 0.0
H920 H 0.22116 0.15258 0.9131 0.0
H921 H 0.23993 0.16489 0.93861 0.0
H922 H 0.25526 0.22498 0.9145 0.0
H923 H 0.24849 0.24455 0.92584 0.0
H924 H 0.23482 0.23155 0.90904 0.0
H925 H 0.20828 0.22937 0.93163 0.0
H926 H 0.22188 0.24241 0.9485 0.0
H927 H 0.21062 0.22142 0.95255 0.0
H928 H 0.2589 0.18319 0.96261 0.0
H929 H 0.27684 0.20597 0.98246 0.0
H930 H 0.25492 0.24524 0.95897 0.0
C931 C 0.21774 0.19542 0.91271 0.0
C932 C 0.21503 0.1774 0.90736 0.0
C933 C 0.22301 0.16643 0.91695 0.0
C934 C 0.23367 0.17329 0.93149 0.0
C935 C 0.2362 0.19114 0.93628 0.0
C936 C 0.22843 0.20203 0.92717 0.0
C937 C 0.2338 0.22077 0.93444 0.0
C938 C 0.24368 0.23106 0.9201 0.0
C939 C 0.21768 0.22897 0.94224 0.0
C940 C 0.24601 0.21877 0.94889 0.0
C941 C 0.24715 0.2016 0.94989 0.0
C942 C 0.25801 0.19667 0.96202 0.0
C943 C 0.26809 0.20968 0.97328 0.0
C944 C 0.2673 0.22735 0.97221 0.0
C945 C 0.25593 0.23184 0.95998 0.0
H946 H 0.8402 0.23526 0.90454 0.0
H947 H 0.88136 0.26139 0.93986 0.0
H948 H 0.86044 0.25889 0.96555 0.0
H949 H 0.80767 0.25611 0.92333 0.0
H950 H 0.7899 0.23824 0.92094 0.0
H951 H 0.80876 0.23843 0.90589 0.0
H952 H 0.81422 0.20877 0.91406 0.0
H953 H 0.79512 0.20831 0.92896 0.0
H954 H 0.81626 0.20595 0.93708 0.0
H955 H 0.83424 0.25832 0.98617 0.0
H956 H 0.80481 0.25939 0.0004 0.0
H957 H 0.78054 0.23262 0.95199 0.0
C958 C 0.84507 0.23957 0.91777 0.0
C959 C 0.86251 0.24807 0.92031 0.0
C960 C 0.8681 0.25458 0.93772 0.0
C961 C 0.85633 0.25317 0.95238 0.0
C962 C 0.83904 0.24518 0.94938 0.0
C963 C 0.83345 0.23831 0.93252 0.0
C964 C 0.81368 0.23239 0.93257 0.0
C965 C 0.80448 0.24187 0.91994 0.0
C966 C 0.80958 0.21268 0.92789 0.0
C967 C 0.80892 0.23783 0.95187 0.0
C968 C 0.82377 0.24489 0.9614 0.0
C969 C 0.82255 0.25237 0.979 0.0
C970 C 0.80573 0.25286 0.98701 0.0
C971 C 0.79029 0.24595 0.9774 0.0
C972 C 0.79204 0.238 0.95972 0.0
H973 H 0.84496 0.80534 0.90736 0.0
H974 H 0.83574 0.85722 0.92813 0.0
H975 H 0.82113 0.84602 0.9551 0.0
H976 H 0.80386 0.7835 0.92224 0.0
H977 H 0.81312 0.76505 0.92734 0.0
H978 H 0.82327 0.7774 0.91018 0.0
H979 H 0.85313 0.78219 0.92617 0.0
H980 H 0.84304 0.7699 0.94343 0.0
H981 H 0.85414 0.79163 0.94912 0.0
H982 H 0.80705 0.82853 0.97992 0.0
H983 H 0.79369 0.80638 -0.00092 0.0
H984 H 0.81254 0.76649 0.96147 0.0
C985 C 0.83995 0.81443 0.91757 0.0
C986 C 0.84155 0.83219 0.91562 0.0
C987 C 0.83468 0.84355 0.92931 0.0
C988 C 0.8264 0.83731 0.9447 0.0
C989 C 0.8251 0.81969 0.94619 0.0
C990 C 0.83165 0.80843 0.93291 0.0
C991 C 0.82822 0.79002 0.93734 0.0
C992 C 0.81641 0.77831 0.92345 0.0
C993 C 0.84567 0.78303 0.93912 0.0
C994 C 0.81859 0.79258 0.95514 0.0
C995 C 0.81698 0.80976 0.96016 0.0
C996 C 0.80829 0.81506 0.97609 0.0
C997 C 0.80084 0.80242 0.98695 0.0
C998 C 0.802 0.78471 0.98173 0.0
C999 C 0.81126 0.7799 0.96574 0.0
H1000 H 0.12097 0.21344 0.20827 0.0
H1001 H 0.1089 0.21028 0.15243 0.0
H1002 H 0.08241 0.22415 0.16074 0.0
H1003 H 0.0748 0.20563 0.22505 0.0
H1004 H 0.07919 0.22071 0.24484 0.0
H1005 H 0.09638 0.20919 0.23456 0.0
H1006 H 0.11677 0.2383 0.23234 0.0
H1007 H 0.09965 0.24988 0.24255 0.0
H1008 H 0.10916 0.25458 0.22118 0.0
H1009 H 0.05849 0.2407 0.17506 0.0
H1010 H 0.03934 0.2584 0.19432 0.0
H1011 H 0.06638 0.24968 0.2407 0.0
C1012 C 0.11261 0.21541 0.19779 0.0
C1013 C 0.11705 0.21073 0.17968 0.0
C1014 C 0.10581 0.21371 0.1664 0.0
C1015 C 0.09068 0.22157 0.17098 0.0
C1016 C 0.08684 0.22628 0.18893 0.0
C1017 C 0.09743 0.2232 0.20213 0.0
C1018 C 0.09084 0.23024 0.22036 0.0
C1019 C 0.08495 0.21557 0.23188 0.0
C1020 C 0.10494 0.24407 0.22964 0.0
C1021 C 0.07521 0.23812 0.21531 0.0
C1022 C 0.073 0.23561 0.19714 0.0
C1023 C 0.05995 0.24254 0.18934 0.0
C1024 C 0.04905 0.25251 0.20039 0.0
C1025 C 0.05133 0.2555 0.21904 0.0
C1026 C 0.06438 0.24783 0.22649 0.0
H1027 H 0.83293 0.10744 0.22668 0.0
H1028 H 0.81796 0.08165 0.17438 0.0
H1029 H 0.80425 0.0557 0.18805 0.0
H1030 H 0.84309 0.07005 0.24505 0.0
H1031 H 0.83406 0.07664 0.26681 0.0
H1032 H 0.84337 0.09269 0.25273 0.0
H1033 H 0.81399 0.10558 0.2553 0.0
H1034 H 0.80466 0.08967 0.26949 0.0
H1035 H 0.79363 0.09168 0.24953 0.0
H1036 H 0.79147 0.0327 0.20805 0.0
H1037 H 0.77904 0.01595 0.23256 0.0
H1038 H 0.8026 0.05741 0.27114 0.0
C1039 C 0.82689 0.09632 0.21803 0.0
C1040 C 0.82658 0.09655 0.19945 0.0
C1041 C 0.81835 0.08176 0.18866 0.0
C1042 C 0.81061 0.06694 0.19629 0.0
C1043 C 0.81122 0.06716 0.2147 0.0
C1044 C 0.81908 0.08155 0.2254 0.0
C1045 C 0.81732 0.07897 0.24486 0.0
C1046 C 0.83554 0.07962 0.25283 0.0
C1047 C 0.80677 0.09226 0.25541 0.0
C1048 C 0.80706 0.06095 0.24354 0.0
C1049 C 0.80379 0.0542 0.22607 0.0
C1050 C 0.79404 0.03784 0.22176 0.0
C1051 C 0.78713 0.02838 0.23571 0.0
C1052 C 0.78988 0.03544 0.25366 0.0
C1053 C 0.80028 0.05175 0.25751 0.0
H1054 H 0.9592 0.82552 0.22048 0.0
H1055 H 0.93185 0.78086 0.18842 0.0
H1056 H 0.9546 0.76349 0.19496 0.0
H1057 H 0.00514 0.81612 0.21154 0.0
H1058 H 0.01128 0.82309 0.23428 0.0
H1059 H 0.99474 0.8328 0.22459 0.0
H1060 H 0.97255 0.82478 0.2502 0.0
H1061 H 0.98903 0.8152 0.25998 0.0
H1062 H 0.96787 0.8026 0.25469 0.0
H1063 H 0.97905 0.75046 0.20674 0.0
H1064 H 0.00069 0.74184 0.22595 0.0
H1065 H 0.01058 0.79429 0.25221 0.0
C1066 C 0.95832 0.81221 0.21447 0.0
C1067 C 0.94402 0.80455 0.20368 0.0
C1068 C 0.94284 0.78694 0.19658 0.0
C1069 C 0.95575 0.77704 0.20013 0.0
C1070 C 0.96961 0.78488 0.21102 0.0
C1071 C 0.97084 0.80202 0.21829 0.0
C1072 C 0.98558 0.80671 0.23148 0.0
C1073 C 4e-05 0.8205 0.22508 0.0
C1074 C 0.97832 0.81266 0.25019 0.0
C1075 C 0.99217 0.78946 0.23083 0.0
C1076 C 0.98313 0.77715 0.21857 0.0
C1077 C 0.98636 0.76003 0.21621 0.0
C1078 C 0.99872 0.75526 0.22707 0.0
C1079 C 0.0074 0.76749 0.24026 0.0
C1080 C 0.00434 0.78484 0.24191 0.0
H1081 H 0.24167 0.90804 0.18959 0.0
H1082 H 0.19358 0.92945 0.18362 0.0
H1083 H 0.20845 0.95833 0.19563 0.0
H1084 H 0.25189 0.9298 0.23017 0.0
H1085 H 0.27552 0.93343 0.22654 0.0
H1086 H 0.26247 0.91528 0.2143 0.0
H1087 H 0.27515 0.92563 0.18452 0.0
H1088 H 0.28845 0.94379 0.1967 0.0
H1089 H 0.27364 0.94732 0.18018 0.0
H1090 H 0.22668 0.98346 0.21291 0.0
H1091 H 0.24695 0.00293 0.23334 0.0
H1092 H 0.2836 0.96544 0.22719 0.0
C1093 C 0.2344 0.91888 0.19028 0.0
C1094 C 0.21646 0.91647 0.18562 0.0
C1095 C 0.20736 0.93098 0.18701 0.0
C1096 C 0.21571 0.94745 0.19379 0.0
C1097 C 0.23321 0.94922 0.1989 0.0
C1098 C 0.24252 0.93536 0.197 0.0
C1099 C 0.26054 0.94026 0.20516 0.0
C1100 C 0.26271 0.92903 0.21991 0.0
C1101 C 0.27532 0.93919 0.19078 0.0
C1102 C 0.25956 0.9588 0.21273 0.0
C1103 C 0.24382 0.96383 0.20875 0.0
C1104 C 0.23925 0.97983 0.21572 0.0
C1105 C 0.25091 0.99084 0.22729 0.0
C1106 C 0.26697 0.9858 0.23184 0.0
C1107 C 0.27145 0.96971 0.22404 0.0
H1108 H 0.12152 0.81113 0.85701 0.0
H1109 H 0.10018 0.85914 0.87163 0.0
H1110 H 0.07436 0.84773 0.85318 0.0
H1111 H 0.11062 0.80544 0.81282 0.0
H1112 H 0.10482 0.78227 0.81089 0.0
H1113 H 0.12038 0.7931 0.82716 0.0
H1114 H 0.10111 0.77942 0.85224 0.0
H1115 H 0.08554 0.7684 0.83599 0.0
H1116 H 0.07814 0.78213 0.85484 0.0
H1117 H 0.05308 0.83281 0.83009 0.0
H1118 H 0.0374 0.81503 0.80493 0.0
H1119 H 0.07169 0.77609 0.80638 0.0
C1120 C 0.11121 0.81909 0.8567 0.0
C1121 C 0.11288 0.83603 0.8658 0.0
C1122 C 0.0992 0.84611 0.86483 0.0
C1123 C 0.08444 0.83973 0.8544 0.0
C1124 C 0.08346 0.82318 0.84518 0.0
C1125 C 0.09637 0.81291 0.84639 0.0
C1126 C 0.09278 0.79608 0.83418 0.0
C1127 C 0.10805 0.79412 0.82046 0.0
C1128 C 0.08917 0.78059 0.84496 0.0
C1129 C 0.07622 0.7988 0.82542 0.0
C1130 C 0.07097 0.81443 0.83206 0.0
C1131 C 0.05682 0.82035 0.82506 0.0
C1132 C 0.04793 0.81009 0.8108 0.0
C1133 C 0.05319 0.79406 0.80365 0.0
C1134 C 0.06734 0.78829 0.81139 0.0
H1135 H 0.23665 0.10815 0.83063 0.0
H1136 H 0.19043 0.07624 0.85034 0.0
H1137 H 0.20411 0.05008 0.84024 0.0
H1138 H 0.24453 0.08018 0.79164 0.0
H1139 H 0.26827 0.08454 0.79283 0.0
H1140 H 0.25509 0.1007 0.80223 0.0
H1141 H 0.26961 0.10211 0.83271 0.0
H1142 H 0.28283 0.08592 0.82339 0.0
H1143 H 0.26899 0.08258 0.84293 0.0
H1144 H 0.2222 0.02729 0.82626 0.0
H1145 H 0.24314 0.00982 0.80963 0.0
H1146 H 0.27829 0.05689 0.80095 0.0
C1147 C 0.22941 0.09567 0.83289 0.0
C1148 C 0.21244 0.09423 0.84123 0.0
C1149 C 0.20345 0.07766 0.84399 0.0
C1150 C 0.21113 0.06273 0.83832 0.0
C1151 C 0.22787 0.06461 0.8301 0.0
C1152 C 0.23694 0.08068 0.82749 0.0
C1153 C 0.25462 0.07919 0.81807 0.0
C1154 C 0.25568 0.08659 0.80013 0.0
C1155 C 0.26992 0.08797 0.82999 0.0
C1156 C 0.25393 0.05975 0.81544 0.0
C1157 C 0.23844 0.05155 0.82251 0.0
C1158 C 0.23449 0.03358 0.82088 0.0
C1159 C 0.24656 0.02375 0.81152 0.0
C1160 C 0.26243 0.0319 0.80392 0.0
C1161 C 0.26622 0.05017 0.80634 0.0
H1162 H 0.95826 0.26875 0.858 0.0
H1163 H 0.91676 0.22632 0.84254 0.0
H1164 H 0.93736 0.21318 0.8208 0.0
H1165 H 0.97307 0.27463 0.81658 0.0
H1166 H 0.99624 0.28013 0.82126 0.0
H1167 H 0.97998 0.28382 0.83861 0.0
H1168 H 0.99415 0.26521 0.8582 0.0
H1169 H 0.01054 0.26147 0.84082 0.0
H1170 H 0.99712 0.24342 0.84955 0.0
H1171 H 0.95981 0.20794 0.79698 0.0
H1172 H 0.9822 0.2114 0.77259 0.0
H1173 H 0.00938 0.25706 0.80318 0.0
C1174 C 0.95373 0.25633 0.85056 0.0
C1175 C 0.93598 0.24845 0.85206 0.0
C1176 C 0.93035 0.23251 0.84167 0.0
C1177 C 0.94199 0.2249 0.82936 0.0
C1178 C 0.95924 0.23335 0.82767 0.0
C1179 C 0.96515 0.24868 0.83808 0.0
C1180 C 0.98331 0.25654 0.83182 0.0
C1181 C 0.98312 0.27485 0.82676 0.0
C1182 C 0.9971 0.25666 0.84594 0.0
C1183 C 0.98625 0.24381 0.81562 0.0
C1184 C 0.9724 0.23029 0.81372 0.0
C1185 C 0.97099 0.21815 0.79859 0.0
C1186 C 0.98371 0.2202 0.78481 0.0
C1187 C 0.99761 0.23428 0.78628 0.0
C1188 C -0.00079 0.24585 0.8021 0.0
H1189 H 0.84861 0.92608 0.80684 0.0
H1190 H 0.86133 0.95515 0.85828 0.0
H1191 H 0.85146 0.98081 0.84841 0.0
H1192 H 0.86294 0.96242 0.78074 0.0
H1193 H 0.84556 0.95544 0.76505 0.0
H1194 H 0.85449 0.93976 0.77596 0.0
H1195 H 0.82301 0.92822 0.78736 0.0
H1196 H 0.81403 0.9439 0.77655 0.0
H1197 H 0.81001 0.943 0.80007 0.0
H1198 H 0.83705 0.00238 0.83373 0.0
H1199 H 0.82108 0.01818 0.81513 0.0
H1200 H 0.82098 0.97592 0.77229 0.0
C1201 C 0.8495 0.9379 0.81597 0.0
C1202 C 0.85569 0.93859 0.83336 0.0
C1203 C 0.85671 0.95433 0.84487 0.0
C1204 C 0.8511 0.96898 0.83939 0.0
C1205 C 0.84485 0.9678 0.82221 0.0
C1206 C 0.84431 0.95272 0.81059 0.0
C1207 C 0.83685 0.95471 0.79293 0.0
C1208 C 0.8508 0.95298 0.77777 0.0
C1209 C 0.81998 0.94169 0.78901 0.0
C1210 C 0.83276 0.97306 0.79661 0.0
C1211 C 0.83742 0.98043 0.81355 0.0
C1212 C 0.83366 -0.00316 0.8203 0.0
C1213 C 0.82467 0.0058 0.80955 0.0
C1214 C 0.8196 -0.00159 0.79214 0.0
C1215 C 0.82427 0.98198 0.78558 0.0
H1216 H 0.23716 0.14164 0.21149 0.0
H1217 H 0.1883 0.10619 0.20308 0.0
H1218 H 0.20062 0.08455 0.21781 0.0
H1219 H 0.26608 0.10889 0.20271 0.0
H1220 H 0.28165 0.11934 0.21921 0.0
H1221 H 0.26886 0.13205 0.20821 0.0
H1222 H 0.25731 0.14518 0.23887 0.0
H1223 H 0.26999 0.13243 0.24994 0.0
H1224 H 0.24649 0.131 0.25424 0.0
H1225 H 0.21789 0.06731 0.23494 0.0
H1226 H 0.23934 0.05504 0.25093 0.0
H1227 H 0.27788 0.10078 0.24565 0.0
C1228 C 0.22905 0.12932 0.21274 0.0
C1229 C 0.21172 0.12564 0.20621 0.0
C1230 C 0.20162 0.10929 0.20795 0.0
C1231 C 0.20849 0.09693 0.21635 0.0
C1232 C 0.22558 0.101 0.22272 0.0
C1233 C 0.23582 0.11672 0.22081 0.0
C1234 C 0.25396 0.1177 0.2284 0.0
C1235 C 0.26849 0.1196 0.21376 0.0
C1236 C 0.25711 0.13245 0.24377 0.0
C1237 C 0.25225 0.10018 0.23508 0.0
C1238 C 0.23576 0.09078 0.23181 0.0
C1239 C 0.23095 0.07446 0.23732 0.0
C1240 C 0.24334 0.06752 0.2463 0.0
C1241 C 0.26052 0.07676 0.24954 0.0
C1242 C 0.26488 0.09333 0.24371 0.0
H1243 H 0.22573 0.86816 0.84025 0.0
H1244 H 0.20528 0.90206 0.88341 0.0
H1245 H 0.22383 0.92722 0.87232 0.0
H1246 H 0.27062 0.89128 0.83875 0.0
H1247 H 0.27244 0.88745 0.81481 0.0
H1248 H 0.25851 0.87212 0.82697 0.0
H1249 H 0.23192 0.87489 0.80814 0.0
H1250 H 0.24571 0.89031 0.79602 0.0
H1251 H 0.22571 0.89592 0.80723 0.0
H1252 H 0.24387 0.94885 0.85561 0.0
H1253 H 0.2641 0.96499 0.83509 0.0
H1254 H 0.27008 0.91676 0.80232 0.0
C1255 C 0.22535 0.88082 0.84759 0.0
C1256 C 0.21412 0.8831 0.86279 0.0
C1257 C 0.21383 0.89997 0.87179 0.0
C1258 C 0.22431 0.91434 0.86557 0.0
C1259 C 0.23495 0.91164 0.85033 0.0
C1260 C 0.23557 0.89528 0.8415 0.0
C1261 C 0.2475 0.89588 0.82501 0.0
C1262 C 0.2632 0.8861 0.82648 0.0
C1263 C 0.23708 0.88884 0.80811 0.0
C1264 C 0.25346 0.91515 0.82587 0.0
C1265 C 0.24616 0.92404 0.84059 0.0
C1266 C 0.24967 0.942 0.84405 0.0
C1267 C 0.26106 0.95107 0.83223 0.0
C1268 C 0.26875 0.94218 0.81708 0.0
C1269 C 0.26471 0.92397 0.8139 0.0
H1270 H 0.15493 0.22459 0.83102 0.0
H1271 H 0.13701 0.1698 0.81701 0.0
H1272 H 0.1156 0.17679 0.79656 0.0
H1273 H 0.11264 0.23847 0.83099 0.0
H1274 H 0.12099 0.25815 0.82167 0.0
H1275 H 0.13502 0.24874 0.8349 0.0
H1276 H 0.15834 0.24798 0.80896 0.0
H1277 H 0.14437 0.25739 0.79565 0.0
H1278 H 0.15189 0.2372 0.78733 0.0
H1279 H 0.09573 0.19002 0.77791 0.0
H1280 H 0.07953 0.20831 0.76233 0.0
H1281 H 0.11053 0.25425 0.78898 0.0
C1282 C 0.14656 0.21401 0.82363 0.0
C1283 C 0.14767 0.19662 0.82563 0.0
C1284 C 0.13643 0.18322 0.8157 0.0
C1285 C 0.12422 0.18706 0.80405 0.0
C1286 C 0.12344 0.20437 0.80247 0.0
C1287 C 0.13436 0.21761 0.81198 0.0
C1288 C 0.13088 0.23513 0.80801 0.0
C1289 C 0.1245 0.24574 0.8249 0.0
C1290 C 0.14735 0.245 0.79948 0.0
C1291 C 0.11626 0.22971 0.79482 0.0
C1292 C 0.11212 0.21193 0.79178 0.0
C1293 C 0.09889 0.20396 0.78019 0.0
C1294 C 0.08969 0.21445 0.77148 0.0
C1295 C 0.09379 0.23272 0.77437 0.0
C1296 C 0.10726 0.24034 0.78625 0.0
H1297 H 0.82389 0.16728 0.85898 0.0
H1298 H 0.87022 0.14864 0.87578 0.0
H1299 H 0.86076 0.12018 0.85874 0.0
H1300 H 0.7934 0.12572 0.859 0.0
H1301 H 0.78244 0.12927 0.83954 0.0
H1302 H 0.79167 0.14743 0.85488 0.0
H1303 H 0.81014 0.16052 0.82899 0.0
H1304 H 0.80104 0.14242 0.81363 0.0
H1305 H 0.82466 0.1478 0.81553 0.0
H1306 H 0.84828 0.09505 0.83688 0.0
H1307 H 0.83367 0.07536 0.81222 0.0
H1308 H 0.7947 0.10983 0.81083 0.0
C1309 C 0.83187 0.15712 0.85939 0.0
C1310 C 0.8478 0.16021 0.86874 0.0
C1311 C 0.85794 0.14659 0.86877 0.0
C1312 C 0.85265 0.13034 0.85916 0.0
C1313 C 0.83708 0.12785 0.84976 0.0
C1314 C 0.82674 0.14082 0.84995 0.0
C1315 C 0.81128 0.13523 0.83776 0.0
C1316 C 0.79365 0.13436 0.84844 0.0
C1317 C 0.81183 0.1472 0.82311 0.0
C1318 C 0.81492 0.11737 0.83016 0.0
C1319 C 0.82973 0.11324 0.83738 0.0
C1320 C 0.83644 0.09798 0.83139 0.0
C1321 C 0.82799 0.08681 0.81742 0.0
C1322 C 0.813 0.09098 0.80954 0.0
C1323 C 0.80619 0.10627 0.81642 0.0
H1324 H 0.8983 0.82929 0.83398 0.0
H1325 H 0.92098 0.87955 0.81919 0.0
H1326 H 0.944 0.86603 0.80081 0.0
H1327 H 0.93882 0.81251 0.83699 0.0
H1328 H 0.92999 0.79092 0.82761 0.0
H1329 H 0.9156 0.80467 0.83971 0.0
H1330 H 0.89544 0.80049 0.8125 0.0
H1331 H 0.90975 0.7867 0.80033 0.0
H1332 H 0.90489 0.80542 0.79116 0.0
H1333 H 0.9652 0.84667 0.78461 0.0
H1334 H 0.98114 0.82308 0.77043 0.0
H1335 H 0.94354 0.78574 0.79517 0.0
C1336 C 0.90812 0.83751 0.82694 0.0
C1337 C 0.90789 0.85553 0.82813 0.0
C1338 C 0.92088 0.86573 0.81848 0.0
C1339 C 0.93404 0.85817 0.80806 0.0
C1340 C 0.93391 0.84036 0.80727 0.0
C1341 C 0.92116 0.83017 0.81633 0.0
C1342 C 0.92355 0.8113 0.81297 0.0
C1343 C 0.92721 0.80446 0.83035 0.0
C1344 C 0.90745 0.80034 0.80368 0.0
C1345 C 0.9397 0.81241 0.80064 0.0
C1346 C 0.94562 0.82927 0.79759 0.0
C1347 C 0.9606 0.83343 0.78685 0.0
C1348 C 0.96961 0.81999 0.77892 0.0
C1349 C 0.96349 0.8026 0.78161 0.0
C1350 C 0.94839 0.79888 0.79269 0.0
H1351 H 0.85193 0.91932 0.207 0.0
H1352 H 0.87597 0.89478 0.24587 0.0
H1353 H 0.86133 0.912 0.27014 0.0
H1354 H 0.8536 0.9624 0.23328 0.0
H1355 H 0.83247 0.96542 0.22564 0.0
H1356 H 0.84647 0.95268 0.21148 0.0
H1357 H 0.82102 0.92685 0.2086 0.0
H1358 H 0.80698 0.9395 0.22269 0.0
H1359 H 0.81078 0.91889 0.22846 0.0
H1360 H 0.84161 0.92965 0.28997 0.0
H1361 H 0.81829 0.94607 0.30366 0.0
H1362 H 0.80734 0.95911 0.25179 0.0
C1363 C 0.85442 0.91777 0.22061 0.0
C1364 C 0.86517 0.90572 0.22452 0.0
C1365 C 0.86786 0.90397 0.24254 0.0
C1366 C 0.85963 0.91374 0.25642 0.0
C1367 C 0.84886 0.92529 0.25207 0.0
C1368 C 0.84632 0.9274 0.23459 0.0
C1369 C 0.83313 0.93971 0.23339 0.0
C1370 C 0.84195 0.95602 0.22548 0.0
C1371 C 0.81703 0.93069 0.22266 0.0
C1372 C 0.82823 0.94381 0.25289 0.0
C1373 C 0.83758 0.93551 0.26348 0.0
C1374 C 0.83441 0.9364 0.28183 0.0
C1375 C 0.82112 0.9457 0.28948 0.0
C1376 C 0.81113 0.95396 0.27879 0.0
C1377 C 0.81505 0.95327 0.26033 0.0
H1378 H 0.13614 0.82234 0.19277 0.0
H1379 H 0.18034 0.82974 0.22817 0.0
H1380 H 0.16605 0.80533 0.24355 0.0
H1381 H 0.10286 0.81309 0.22544 0.0
H1382 H 0.08913 0.79697 0.21114 0.0
H1383 H 0.10343 0.81406 0.20176 0.0
H1384 H 0.11808 0.79142 0.18064 0.0
H1385 H 0.10376 0.77424 0.18991 0.0
H1386 H 0.1274 0.7749 0.18984 0.0
H1387 H 0.14642 0.7817 0.25636 0.0
H1388 H 0.12241 0.76023 0.26613 0.0
H1389 H 0.09073 0.76755 0.22239 0.0
C1390 C 0.14292 0.81865 0.20358 0.0
C1391 C 0.15938 0.82791 0.20924 0.0
C1392 C 0.16772 0.82285 0.22361 0.0
C1393 C 0.15975 0.80896 0.2324 0.0
C1394 C 0.14343 0.80026 0.22667 0.0
C1395 C 0.13509 0.80485 0.21259 0.0
C1396 C 0.11715 0.7939 0.20978 0.0
C1397 C 0.10227 0.80518 0.21218 0.0
C1398 C 0.11657 0.78296 0.19145 0.0
C1399 C 0.11662 0.78268 0.22468 0.0
C1400 C 0.132 0.78649 0.23413 0.0
C1401 C 0.13442 0.77838 0.24891 0.0
C1402 C 0.12072 0.76609 0.25427 0.0
C1403 C 0.10475 0.76196 0.24487 0.0
C1404 C 0.10278 0.77036 0.22981 0.0
H1405 H 0.8817 0.20836 0.1776 0.0
H1406 H 0.90284 0.16159 0.18457 0.0
H1407 H 0.92891 0.1792 0.19878 0.0
H1408 H 0.92474 0.23441 0.16842 0.0
H1409 H 0.91828 0.25389 0.18031 0.0
H1410 H 0.90187 0.23761 0.16943 0.0
H1411 H 0.88399 0.2362 0.19925 0.0
H1412 H 0.90043 0.2523 0.21027 0.0
H1413 H 0.89455 0.23169 0.21856 0.0
H1414 H 0.95116 0.20161 0.21494 0.0
H1415 H 0.96918 0.22746 0.22997 0.0
H1416 H 0.93468 0.25986 0.21104 0.0
C1417 C 0.89195 0.20182 0.18182 0.0
C1418 C 0.89016 0.18356 0.17995 0.0
C1419 C 0.90387 0.17554 0.18579 0.0
C1420 C 0.91875 0.18543 0.19392 0.0
C1421 C 0.91988 0.20336 0.19596 0.0
C1422 C 0.90699 0.21151 0.18987 0.0
C1423 C 0.91122 0.23097 0.19419 0.0
C1424 C 0.91421 0.23973 0.17707 0.0
C1425 C 0.89668 0.23821 0.20629 0.0
C1426 C 0.92827 0.23241 0.20401 0.0
C1427 C 0.93303 0.21634 0.20488 0.0
C1428 C 0.94777 0.21431 0.21405 0.0
C1429 C 0.958 0.22913 0.22247 0.0
C1430 C 0.95355 0.24582 0.22158 0.0
C1431 C 0.93846 0.24735 0.21212 0.0
H1432 H 0.22015 0.72326 0.65481 0.0
H1433 H 0.22018 0.66908 0.6354 0.0
H1434 H 0.23663 0.67733 0.60813 0.0
H1435 H 0.21529 0.73852 0.613 0.0
H1436 H 0.23026 0.75836 0.61796 0.0
H1437 H 0.21811 0.74824 0.63574 0.0
H1438 H 0.24738 0.74746 0.65123 0.0
H1439 H 0.2596 0.75773 0.6336 0.0
H1440 H 0.26468 0.73743 0.639 0.0
H1441 H 0.2519 0.6916 0.5823 0.0
H1442 H 0.26847 0.71078 0.56178 0.0
H1443 H 0.26039 0.75557 0.59904 0.0
C1444 C 0.22363 0.71314 0.64482 0.0
C1445 C 0.21879 0.69552 0.64715 0.0
C1446 C 0.2238 0.68265 0.6339 0.0
C1447 C 0.23304 0.68722 0.61832 0.0
C1448 C 0.23743 0.70471 0.61634 0.0
C1449 C 0.23319 0.71748 0.62938 0.0
C1450 C 0.24023 0.73533 0.6244 0.0
C1451 C 0.22507 0.74572 0.62267 0.0
C1452 C 0.25378 0.74505 0.63785 0.0
C1453 C 0.24897 0.73062 0.60645 0.0
C1454 C 0.24698 0.7129 0.60191 0.0
C1455 C 0.25364 0.70548 0.58578 0.0
C1456 C 0.2629 0.71645 0.57416 0.0
C1457 C 0.26565 0.73459 0.57887 0.0
C1458 C 0.25847 0.74173 0.59517 0.0
H1459 H 0.81517 0.71132 0.65119 0.0
H1460 H 0.81509 0.66072 0.62098 0.0
H1461 H 0.80114 0.67053 0.59604 0.0
H1462 H 0.77386 0.71972 0.6371 0.0
H1463 H 0.78125 0.74233 0.63568 0.0
H1464 H 0.79119 0.73134 0.65114 0.0
H1465 H 0.82217 0.74065 0.63715 0.0
H1466 H 0.81233 0.75178 0.62174 0.0
H1467 H 0.82595 0.73556 0.61353 0.0
H1468 H 0.78567 0.68556 0.57504 0.0
H1469 H 0.77218 0.70517 0.55871 0.0
H1470 H 0.78484 0.74661 0.60178 0.0
C1471 C 0.81224 0.70231 0.63932 0.0
C1472 C 0.81612 0.68523 0.63804 0.0
C1473 C 0.81225 0.67388 0.62222 0.0
C1474 C 0.80428 0.67931 0.60802 0.0
C1475 C 0.80049 0.6962 0.60976 0.0
C1476 C 0.80456 0.7076 0.62492 0.0
C1477 C 0.79955 0.72518 0.62328 0.0
C1478 C 0.78563 0.72991 0.63765 0.0
C1479 C 0.81598 0.73911 0.62396 0.0
C1480 C 0.7918 0.72184 0.60493 0.0
C1481 C 0.79234 0.70503 0.59739 0.0
C1482 C 0.78542 0.69883 0.58072 0.0
C1483 C 0.77788 0.71015 0.57147 0.0
C1484 C 0.77748 0.72759 0.57879 0.0
C1485 C 0.78463 0.73337 0.59578 0.0
H1486 H 0.87819 0.30738 0.63399 0.0
H1487 H 0.8742 0.35968 0.62413 0.0
H1488 H 0.8545 0.34809 0.59917 0.0
H1489 H 0.87629 0.28735 0.5871 0.0
H1490 H 0.86306 0.26783 0.59294 0.0
H1491 H 0.8786 0.28026 0.60847 0.0
H1492 H 0.85338 0.2822 0.63238 0.0
H1493 H 0.83776 0.26995 0.61691 0.0
H1494 H 0.83396 0.29094 0.62747 0.0
H1495 H 0.83314 0.33072 0.57689 0.0
H1496 H 0.81188 0.30899 0.55935 0.0
H1497 H 0.82968 0.26829 0.58426 0.0
C1498 C 0.87356 0.31641 0.62631 0.0
C1499 C 0.87786 0.33445 0.63094 0.0
C1500 C 0.87115 0.34581 0.62078 0.0
C1501 C 0.85997 0.33935 0.60656 0.0
C1502 C 0.85561 0.32149 0.60266 0.0
C1503 C 0.86227 0.31019 0.6122 0.0
C1504 C 0.85452 0.29163 0.60626 0.0
C1505 C 0.86898 0.28115 0.59821 0.0
C1506 C 0.8443 0.2832 0.62167 0.0
C1507 C 0.84218 0.29427 0.59217 0.0
C1508 C 0.84312 0.31155 0.5901 0.0
C1509 C 0.83244 0.31714 0.57825 0.0
C1510 C 0.82044 0.30472 0.56833 0.0
C1511 C 0.81912 0.28698 0.57047 0.0
C1512 C 0.83029 0.28178 0.58244 0.0
H1513 H 0.23788 0.34002 0.64402 0.0
H1514 H 0.19448 0.34693 0.61209 0.0
H1515 H 0.20247 0.32402 0.58915 0.0
H1516 H 0.26854 0.33324 0.60673 0.0
H1517 H 0.27859 0.31749 0.61644 0.0
H1518 H 0.26924 0.33416 0.63059 0.0
H1519 H 0.24942 0.3108 0.64662 0.0
H1520 H 0.25864 0.29405 0.63244 0.0
H1521 H 0.23507 0.29399 0.63373 0.0
H1522 H 0.21401 0.29958 0.57064 0.0
H1523 H 0.23009 0.27683 0.55586 0.0
H1524 H 0.268 0.2874 0.59827 0.0
C1525 C 0.23007 0.33668 0.6322 0.0
C1526 C 0.21549 0.34515 0.62983 0.0
C1527 C 0.2057 0.34061 0.61412 0.0
C1528 C 0.2101 0.32758 0.60107 0.0
C1529 C 0.22447 0.31942 0.60383 0.0
C1530 C 0.23449 0.32391 0.61885 0.0
C1531 C 0.24966 0.31347 0.61816 0.0
C1532 C 0.26757 0.3253 0.61796 0.0
C1533 C 0.2481 0.30242 0.63366 0.0
C1534 C 0.24647 0.30229 0.60048 0.0
C1535 C 0.23177 0.30586 0.59257 0.0
C1536 C 0.22574 0.29688 0.57651 0.0
C1537 C 0.23512 0.28405 0.56815 0.0
C1538 C 0.25064 0.28046 0.57561 0.0
C1539 C 0.25625 0.28971 0.59213 0.0
H1540 H 0.23731 0.31153 0.41548 0.0
H1541 H 0.18729 0.31877 0.44259 0.0
H1542 H 0.19359 0.30073 0.4653 0.0
H1543 H 0.237 0.26792 0.42222 0.0
H1544 H 0.26034 0.27021 0.42604 0.0
H1545 H 0.25214 0.28406 0.41223 0.0
H1546 H 0.26686 0.31115 0.43213 0.0
H1547 H 0.27532 0.29737 0.44585 0.0
H1548 H 0.26208 0.31333 0.45578 0.0
H1549 H 0.20468 0.2801 0.48394 0.0
H1550 H 0.22087 0.26109 0.49849 0.0
H1551 H 0.26439 0.26944 0.46014 0.0
C1552 C 0.22775 0.30945 0.42627 0.0
C1553 C 0.2118 0.31651 0.42725 0.0
C1554 C 0.19965 0.31355 0.44163 0.0
C1555 C 0.20307 0.30325 0.45454 0.0
C1556 C 0.21879 0.29622 0.453 0.0
C1557 C 0.23105 0.29944 0.43938 0.0
C1558 C 0.24703 0.29057 0.44082 0.0
C1559 C 0.24924 0.27741 0.42435 0.0
C1560 C 0.26381 0.3039 0.44383 0.0
C1561 C 0.24173 0.28164 0.4572 0.0
C1562 C 0.22537 0.28492 0.464 0.0
C1563 C 0.21762 0.27762 0.47885 0.0
C1564 C 0.22696 0.26688 0.48708 0.0
C1565 C 0.24397 0.26365 0.48054 0.0
C1566 C 0.25131 0.27123 0.46536 0.0
H1567 H 0.21967 0.6793 0.41028 0.0
H1568 H 0.171 0.67722 0.44223 0.0
H1569 H 0.18755 0.69306 0.46799 0.0
H1570 H 0.2493 0.67533 0.44568 0.0
H1571 H 0.26693 0.69053 0.43762 0.0
H1572 H 0.25158 0.67755 0.42226 0.0
H1573 H 0.24417 0.70529 0.41104 0.0
H1574 H 0.2595 0.71833 0.42632 0.0
H1575 H 0.23682 0.72204 0.42682 0.0
H1576 H 0.20919 0.71028 0.48982 0.0
H1577 H 0.23375 0.72953 0.5053 0.0
H1578 H 0.26807 0.72104 0.4588 0.0
C1579 C 0.21254 0.68193 0.42278 0.0
C1580 C 0.19407 0.67691 0.42431 0.0
C1581 C 0.18515 0.68092 0.44078 0.0
C1582 C 0.19445 0.68983 0.4555 0.0
C1583 C 0.21264 0.69471 0.4535 0.0
C1584 C 0.22157 0.69101 0.43752 0.0
C1585 C 0.24087 0.69886 0.43844 0.0
C1586 C 0.25288 0.68472 0.43585 0.0
C1587 C 0.24561 0.7119 0.42485 0.0
C1588 C 0.24134 0.7078 0.45735 0.0
C1589 C 0.225 0.70503 0.46591 0.0
C1590 C 0.22208 0.71243 0.4833 0.0
C1591 C 0.23612 0.72326 0.49202 0.0
C1592 C 0.25281 0.72673 0.48327 0.0
C1593 C 0.25546 0.71863 0.46581 0.0
H1594 H 0.8779 0.75185 0.45423 0.0
H1595 H 0.85703 0.72218 0.40572 0.0
H1596 H 0.83 0.71151 0.42219 0.0
H1597 H 0.85455 0.72239 0.48712 0.0
H1598 H 0.85061 0.74088 0.50254 0.0
H1599 H 0.87028 0.74195 0.48842 0.0
H1600 H 0.86216 0.76909 0.47654 0.0
H1601 H 0.84252 0.76806 0.49048 0.0
H1602 H 0.84091 0.76796 0.4668 0.0
H1603 H 0.80311 0.7092 0.44191 0.0
H1604 H 0.77868 0.71615 0.46273 0.0
H1605 H 0.81625 0.74852 0.49815 0.0
C1606 C 0.86794 0.74251 0.44724 0.0
C1607 C 0.86991 0.73735 0.4288 0.0
C1608 C 0.85633 0.72562 0.41997 0.0
C1609 C 0.84078 0.71961 0.42925 0.0
C1610 C 0.83899 0.72548 0.44732 0.0
C1611 C 0.8523 0.73661 0.45626 0.0
C1612 C 0.8461 0.74338 0.47474 0.0
C1613 C 0.85597 0.73675 0.48905 0.0
C1614 C 0.84803 0.76329 0.47726 0.0
C1615 C 0.82691 0.73523 0.47441 0.0
C1616 C 0.82318 0.72455 0.45867 0.0
C1617 C 0.80595 0.71718 0.45444 0.0
C1618 C 0.79216 0.72125 0.46629 0.0
C1619 C 0.79565 0.73275 0.48208 0.0
C1620 C 0.81329 0.73931 0.48643 0.0
H1621 H 0.84559 0.30289 0.39509 0.0
H1622 H 0.85498 0.35461 0.42361 0.0
H1623 H 0.84315 0.34303 0.45135 0.0
H1624 H 0.80467 0.28957 0.41693 0.0
H1625 H 0.80859 0.26762 0.41713 0.0
H1626 H 0.81864 0.27994 0.3999 0.0
H1627 H 0.84953 0.27418 0.40808 0.0
H1628 H 0.83956 0.26192 0.42542 0.0
H1629 H 0.85671 0.27998 0.43065 0.0
H1630 H 0.82939 0.32567 0.47588 0.0
H1631 H 0.81321 0.30449 0.49449 0.0
H1632 H 0.81312 0.26424 0.44973 0.0
C1633 C 0.84528 0.31181 0.40717 0.0
C1634 C 0.85129 0.32968 0.40716 0.0
C1635 C 0.85047 0.34088 0.42327 0.0
C1636 C 0.84383 0.3344 0.43911 0.0
C1637 C 0.83806 0.3167 0.43863 0.0
C1638 C 0.83865 0.30558 0.42304 0.0
C1639 C 0.83096 0.28723 0.42585 0.0
C1640 C 0.81475 0.28072 0.41427 0.0
C1641 C 0.84503 0.27512 0.42229 0.0
C1642 C 0.82572 0.28975 0.44542 0.0
C1643 C 0.83007 0.30679 0.45263 0.0
C1644 C 0.82604 0.31227 0.47038 0.0
C1645 C 0.81696 0.30011 0.4809 0.0
C1646 C 0.81191 0.28268 0.47361 0.0
C1647 C 0.81671 0.27747 0.45571 0.0
H1648 H 0.12889 0.71598 0.7273 0.0
H1649 H 0.11687 0.72085 0.67289 0.0
H1650 H 0.09068 0.73424 0.68372 0.0
H1651 H 0.08297 0.7063 0.74333 0.0
H1652 H 0.08721 0.71862 0.76481 0.0
H1653 H 0.10451 0.70851 0.75272 0.0
H1654 H 0.12475 0.73813 0.75472 0.0
H1655 H 0.1075 0.74833 0.76674 0.0
H1656 H 0.11708 0.75615 0.74657 0.0
H1657 H 0.06667 0.74877 0.70056 0.0
H1658 H 0.04677 0.76311 0.72221 0.0
H1659 H 0.07373 0.74788 0.76552 0.0
C1660 C 0.12065 0.71968 0.71765 0.0
C1661 C 0.12498 0.71732 0.69922 0.0
C1662 C 0.11387 0.72248 0.68707 0.0
C1663 C 0.09892 0.7301 0.69308 0.0
C1664 C 0.09513 0.73242 0.71131 0.0
C1665 C 0.10561 0.7273 0.72342 0.0
C1666 C 0.0989 0.73176 0.74233 0.0
C1667 C 0.09305 0.71531 0.75133 0.0
C1668 C 0.11289 0.74434 0.75323 0.0
C1669 C 0.08321 0.74044 0.73895 0.0
C1670 C 0.0812 0.74063 0.72098 0.0
C1671 C 0.068 0.74852 0.71468 0.0
C1672 C 0.05667 0.75655 0.72709 0.0
C1673 C 0.05859 0.75667 0.74563 0.0
C1674 C 0.07195 0.74824 0.75149 0.0
H1675 H 0.81117 0.59454 0.71667 0.0
H1676 H 0.8616 0.57621 0.70448 0.0
H1677 H 0.8513 0.55076 0.72002 0.0
H1678 H 0.80574 0.58344 0.75972 0.0
H1679 H 0.78222 0.57658 0.75894 0.0
H1680 H 0.79261 0.59237 0.7451 0.0
H1681 H 0.77969 0.57318 0.71705 0.0
H1682 H 0.76911 0.55736 0.73085 0.0
H1683 H 0.78372 0.55107 0.71264 0.0
H1684 H 0.83716 0.52941 0.73997 0.0
H1685 H 0.81961 0.5129 0.76181 0.0
H1686 H 0.77747 0.5438 0.75964 0.0
C1687 C 0.81991 0.58499 0.71693 0.0
C1688 C 0.83721 0.5874 0.70933 0.0
C1689 C 0.84829 0.57467 0.71016 0.0
C1690 C 0.84256 0.56013 0.71895 0.0
C1691 C 0.82562 0.55837 0.72668 0.0
C1692 C 0.81436 0.57032 0.72559 0.0
C1693 C 0.79718 0.56583 0.7359 0.0
C1694 C 0.79428 0.58042 0.75079 0.0
C1695 C 0.7815 0.5616 0.72336 0.0
C1696 C 0.80082 0.54984 0.74344 0.0
C1697 C 0.81725 0.54571 0.73787 0.0
C1698 C 0.82408 0.53226 0.7441 0.0
C1699 C 0.81391 0.52286 0.75646 0.0
C1700 C 0.79699 0.52684 0.76244 0.0
C1701 C 0.79034 0.54039 0.75552 0.0
H1702 H 0.96684 0.31925 0.69871 0.0
H1703 H 0.92212 0.27936 0.6863 0.0
H1704 H 0.93946 0.25728 0.6935 0.0
H1705 H 0.0027 0.29276 0.68392 0.0
H1706 H 0.01629 0.30247 0.70238 0.0
H1707 H 0.00164 0.3148 0.69326 0.0
H1708 H 0.98694 0.32101 0.72448 0.0
H1709 H 0.0016 0.30885 0.73365 0.0
H1710 H 0.97802 0.30317 0.73651 0.0
H1711 H 0.96008 0.24008 0.70491 0.0
H1712 H 0.98141 0.22934 0.72258 0.0
H1713 H 0.01259 0.28029 0.72891 0.0
C1714 C 0.96091 0.3058 0.69706 0.0
C1715 C 0.94324 0.30093 0.69173 0.0
C1716 C 0.93568 0.28331 0.69028 0.0
C1717 C 0.94547 0.27067 0.6942 0.0
C1718 C 0.96278 0.27588 0.69969 0.0
C1719 C 0.97042 0.29304 0.70126 0.0
C1720 C 0.98837 0.29544 0.70965 0.0
C1721 C 0.00312 0.30174 0.69651 0.0
C1722 C 0.98874 0.30784 0.7271 0.0
C1723 C 0.98935 0.27707 0.71308 0.0
C1724 C 0.97462 0.26594 0.70682 0.0
C1725 C 0.97179 0.2486 0.70963 0.0
C1726 C 0.98397 0.2426 0.71965 0.0
C1727 C 0.9987 0.25394 0.72692 0.0
C1728 C 0.0017 0.27125 0.72309 0.0
H1729 H 0.24883 0.41621 0.72183 0.0
H1730 H 0.24263 0.43631 0.67211 0.0
H1731 H 0.26262 0.46308 0.68263 0.0
H1732 H 0.24692 0.45493 0.74924 0.0
H1733 H 0.26273 0.45126 0.7647 0.0
H1734 H 0.24962 0.43319 0.75235 0.0
H1735 H 0.27815 0.42119 0.74013 0.0
H1736 H 0.29136 0.43926 0.75249 0.0
H1737 H 0.29495 0.43476 0.72878 0.0
H1738 H 0.28237 0.48852 0.69984 0.0
H1739 H 0.29913 0.5099 0.72201 0.0
H1740 H 0.28991 0.4728 0.76043 0.0
C1741 C 0.25188 0.42606 0.71295 0.0
C1742 C 0.24426 0.42411 0.69609 0.0
C1743 C 0.2484 0.4375 0.68507 0.0
C1744 C 0.25975 0.45273 0.69092 0.0
C1745 C 0.26678 0.45433 0.70781 0.0
C1746 C 0.26296 0.44129 0.71862 0.0
C1747 C 0.27106 0.44644 0.73663 0.0
C1748 C 0.25673 0.44646 0.7516 0.0
C1749 C 0.28469 0.43472 0.73968 0.0
C1750 C 0.27988 0.46453 0.73443 0.0
C1751 C 0.27753 0.46888 0.71771 0.0
C1752 C 0.28432 0.48518 0.71295 0.0
C1753 C 0.29371 0.49729 0.72568 0.0
C1754 C 0.29604 0.49305 0.74298 0.0
C1755 C 0.28891 0.47641 0.74723 0.0
H1756 H 0.11932 0.31879 0.32256 0.0
H1757 H 0.1101 0.37176 0.32236 0.0
H1758 H 0.08325 0.36126 0.30492 0.0
H1759 H 0.10772 0.30456 0.27851 0.0
H1760 H 0.09752 0.28328 0.28283 0.0
H1761 H 0.11482 0.29492 0.29678 0.0
H1762 H 0.09414 0.29167 0.32464 0.0
H1763 H 0.07673 0.28003 0.31074 0.0
H1764 H 0.07292 0.29906 0.32542 0.0
H1765 H 0.05842 0.34486 0.28578 0.0
H1766 H 0.03896 0.32418 0.26527 0.0
H1767 H 0.06487 0.28228 0.27822 0.0
C1768 C 0.11154 0.32821 0.3191 0.0
C1769 C 0.11675 0.34609 0.32389 0.0
C1770 C 0.10632 0.35798 0.31886 0.0
C1771 C 0.09102 0.35214 0.30903 0.0
C1772 C 0.08634 0.33439 0.30439 0.0
C1773 C 0.09634 0.32262 0.30926 0.0
C1774 C 0.08928 0.30435 0.30161 0.0
C1775 C 0.10316 0.29632 0.2892 0.0
C1776 C 0.08288 0.29312 0.31649 0.0
C1777 C 0.07397 0.30767 0.29133 0.0
C1778 C 0.07228 0.32503 0.29327 0.0
C1779 C 0.05951 0.33122 0.28432 0.0
C1780 C 0.04847 0.3194 0.27278 0.0
C1781 C 0.05045 0.30168 0.27019 0.0
C1782 C 0.0631 0.29577 0.27992 0.0
H1783 H 0.21025 0.60725 0.32557 0.0
H1784 H 0.2057 0.59121 0.3785 0.0
H1785 H 0.22425 0.56845 0.36852 0.0
H1786 H 0.20738 0.56399 0.30203 0.0
H1787 H 0.22271 0.57059 0.28453 0.0
H1788 H 0.20928 0.58562 0.29603 0.0
H1789 H 0.23751 0.6074 0.30401 0.0
H1790 H 0.25102 0.59238 0.29262 0.0
H1791 H 0.25482 0.60069 0.31561 0.0
H1792 H 0.24484 0.54845 0.35286 0.0
H1793 H 0.2637 0.53157 0.33242 0.0
H1794 H 0.25197 0.55915 0.28927 0.0
C1795 C 0.21316 0.59895 0.33506 0.0
C1796 C 0.20666 0.60103 0.35283 0.0
C1797 C 0.21055 0.58979 0.3648 0.0
C1798 C 0.22111 0.57688 0.35927 0.0
C1799 C 0.2274 0.57522 0.34166 0.0
C1800 C 0.22335 0.58581 0.32968 0.0
C1801 C 0.23131 0.5811 0.31139 0.0
C1802 C 0.2168 0.57496 0.29769 0.0
C1803 C 0.24444 0.5963 0.30558 0.0
C1804 C 0.24071 0.5664 0.315 0.0
C1805 C 0.23845 0.56324 0.33253 0.0
C1806 C 0.2465 0.55065 0.33902 0.0
C1807 C 0.25711 0.54103 0.32725 0.0
C1808 C 0.25942 0.54391 0.30912 0.0
C1809 C 0.25088 0.55672 0.30305 0.0
H1810 H 0.93518 0.75728 0.35336 0.0
H1811 H 0.97266 0.77219 0.39578 0.0
H1812 H 0.99716 0.76739 0.37421 0.0
H1813 H 0.95915 0.72386 0.32794 0.0
H1814 H 0.95325 0.72944 0.30688 0.0
H1815 H 0.9386 0.73195 0.32607 0.0
H1816 H 0.93907 0.76414 0.32185 0.0
H1817 H 0.95383 0.76179 0.30282 0.0
H1818 H 0.95995 0.77815 0.32122 0.0
H1819 H 0.01772 0.76476 0.3474 0.0
H1820 H 0.03256 0.76306 0.31772 0.0
H1821 H 0.98149 0.74841 0.29319 0.0
C1822 C 0.9485 0.75917 0.3582 0.0
C1823 C 0.95202 0.7651 0.37624 0.0
C1824 C 0.96964 0.76755 0.38202 0.0
C1825 C 0.98365 0.76487 0.36988 0.0
C1826 C 0.97977 0.7595 0.35208 0.0
C1827 C 0.96259 0.75644 0.34631 0.0
C1828 C 0.962 0.75174 0.32634 0.0
C1829 C 0.9527 0.73314 0.32153 0.0
C1830 C 0.9532 0.76473 0.31755 0.0
C1831 C 0.98155 0.75327 0.32169 0.0
C1832 C 0.9916 0.75763 0.3367 0.0
C1833 C 0.00999 0.76097 0.33558 0.0
C1834 C 0.01831 0.75991 0.31864 0.0
C1835 C 0.00822 0.75554 0.30307 0.0
C1836 C 0.98961 0.75192 0.30477 0.0
H1837 H 0.83663 0.42947 0.32294 0.0
H1838 H 0.88704 0.45884 0.3393 0.0
H1839 H 0.87864 0.48471 0.32843 0.0
H1840 H 0.83421 0.44754 0.28299 0.0
H1841 H 0.81067 0.44763 0.28485 0.0
H1842 H 0.82037 0.43191 0.29489 0.0
H1843 H 0.80615 0.442 0.32543 0.0
H1844 H 0.79648 0.45783 0.31546 0.0
H1845 H 0.81034 0.46448 0.33442 0.0
H1846 H 0.8651 0.5071 0.31383 0.0
H1847 H 0.84818 0.52313 0.29612 0.0
H1848 H 0.80646 0.47915 0.29075 0.0
C1849 C 0.84588 0.44136 0.32437 0.0
C1850 C 0.86251 0.44209 0.33199 0.0
C1851 C 0.87421 0.45794 0.33354 0.0
C1852 C 0.86953 0.47273 0.32744 0.0
C1853 C 0.85303 0.47154 0.31995 0.0
C1854 C 0.84139 0.45623 0.31846 0.0
C1855 C 0.82474 0.45806 0.30932 0.0
C1856 C 0.82237 0.44555 0.29199 0.0
C1857 C 0.80847 0.45544 0.32192 0.0
C1858 C 0.82895 0.47667 0.30557 0.0
C1859 C 0.84526 0.48434 0.31187 0.0
C1860 C 0.85223 0.50125 0.30901 0.0
C1861 C 0.8425 0.51032 0.29905 0.0
C1862 C 0.82604 0.5024 0.29199 0.0
C1863 C 0.81906 0.48556 0.29585 0.0
H1864 H 0.22837 0.64126 0.73929 0.0
H1865 H 0.22103 0.60841 0.68895 0.0
H1866 H 0.23832 0.58782 0.69956 0.0
H1867 H 0.27246 0.63511 0.74617 0.0
H1868 H 0.2694 0.63467 0.76985 0.0
H1869 H 0.25618 0.6466 0.7584 0.0
H1870 H 0.22766 0.62932 0.77067 0.0
H1871 H 0.24082 0.61733 0.78216 0.0
H1872 H 0.22445 0.60602 0.76684 0.0
H1873 H 0.25821 0.57177 0.71508 0.0
H1874 H 0.27812 0.5612 0.73444 0.0
H1875 H 0.27004 0.60315 0.77569 0.0
C1876 C 0.23036 0.62972 0.7305 0.0
C1877 C 0.22341 0.62649 0.71324 0.0
C1878 C 0.22621 0.61116 0.70223 0.0
C1879 C 0.23602 0.59938 0.70814 0.0
C1880 C 0.24273 0.60297 0.72522 0.0
C1881 C 0.23987 0.61768 0.73631 0.0
C1882 C 0.24847 0.61848 0.75407 0.0
C1883 C 0.26246 0.63467 0.7573 0.0
C1884 C 0.23451 0.61774 0.76933 0.0
C1885 C 0.25694 0.60213 0.7511 0.0
C1886 C 0.25351 0.59336 0.73438 0.0
C1887 C 0.26075 0.5784 0.72832 0.0
C1888 C 0.27196 0.57239 0.73953 0.0
C1889 C 0.27578 0.58122 0.75675 0.0
C1890 C 0.26775 0.59611 0.76259 0.0
H1891 H 0.23593 0.38498 0.35671 0.0
H1892 H 0.18357 0.39966 0.35679 0.0
H1893 H 0.19504 0.42282 0.33841 0.0
H1894 H 0.25976 0.42915 0.35988 0.0
H1895 H 0.27791 0.42286 0.34578 0.0
H1896 H 0.26553 0.40773 0.35929 0.0
H1897 H 0.25918 0.38567 0.33112 0.0
H1898 H 0.27138 0.40079 0.31751 0.0
H1899 H 0.2488 0.39191 0.31257 0.0
H1900 H 0.212 0.44324 0.31832 0.0
H1901 H 0.23345 0.46056 0.29992 0.0
H1902 H 0.27512 0.43387 0.31488 0.0
C1903 C 0.2269 0.39318 0.35305 0.0
C1904 C 0.20871 0.39015 0.35777 0.0
C1905 C 0.19737 0.40124 0.35274 0.0
C1906 C 0.20383 0.41458 0.34247 0.0
C1907 C 0.22172 0.41686 0.33755 0.0
C1908 C 0.23314 0.40663 0.3429 0.0
C1909 C 0.25177 0.4117 0.33578 0.0
C1910 C 0.26449 0.41826 0.3511 0.0
C1911 C 0.25815 0.39662 0.32352 0.0
C1912 C 0.24898 0.42621 0.32538 0.0
C1913 C 0.23157 0.42899 0.32654 0.0
C1914 C 0.22574 0.44135 0.31753 0.0
C1915 C 0.23807 0.4512 0.30717 0.0
C1916 C 0.25608 0.44873 0.30596 0.0
C1917 C 0.26147 0.43603 0.31529 0.0
H1918 H 0.10115 0.69054 0.35735 0.0
H1919 H 0.13459 0.65768 0.32576 0.0
H1920 H 0.12355 0.66562 0.29827 0.0
H1921 H 0.06369 0.68254 0.32664 0.0
H1922 H 0.05955 0.70462 0.33098 0.0
H1923 H 0.06847 0.69475 0.34808 0.0
H1924 H 0.09493 0.71958 0.35092 0.0
H1925 H 0.08609 0.72951 0.3339 0.0
H1926 H 0.10827 0.72431 0.3314 0.0
H1927 H 0.11157 0.6798 0.27441 0.0
H1928 H 0.0994 0.69896 0.25619 0.0
H1929 H 0.0734 0.72205 0.3033 0.0
C1930 C 0.10591 0.68472 0.34466 0.0
C1931 C 0.11872 0.67344 0.34373 0.0
C1932 C 0.12474 0.6663 0.32683 0.0
C1933 C 0.1185 0.6707 0.31113 0.0
C1934 C 0.10613 0.68213 0.31253 0.0
C1935 C 0.09981 0.68895 0.32888 0.0
C1936 C 0.08752 0.70189 0.32682 0.0
C1937 C 0.06869 0.69556 0.33353 0.0
C1938 C 0.09464 0.71988 0.33631 0.0
C1939 C 0.08833 0.7017 0.30679 0.0
C1940 C 0.09901 0.6901 0.29876 0.0
C1941 C 0.10291 0.68868 0.28051 0.0
C1942 C 0.09598 0.6996 0.27027 0.0
C1943 C 0.08526 0.71175 0.27831 0.0
C1944 C 0.08113 0.71252 0.29674 0.0
H1945 H 0.85912 0.67705 0.32605 0.0
H1946 H 0.86413 0.65486 0.37486 0.0
H1947 H 0.85198 0.62606 0.36003 0.0
H1948 H 0.8182 0.65211 0.31373 0.0
H1949 H 0.82351 0.64973 0.2902 0.0
H1950 H 0.83364 0.66839 0.30428 0.0
H1951 H 0.86468 0.66146 0.2934 0.0
H1952 H 0.85463 0.64276 0.27926 0.0
H1953 H 0.87044 0.64045 0.29536 0.0
H1954 H 0.83776 0.59996 0.34039 0.0
H1955 H 0.82208 0.57868 0.31764 0.0
H1956 H 0.8271 0.61773 0.28136 0.0
C1957 C 0.85783 0.66613 0.3336 0.0
C1958 C 0.86262 0.66824 0.35163 0.0
C1959 C 0.86058 0.65359 0.36103 0.0
C1960 C 0.85372 0.63716 0.35271 0.0
C1961 C 0.84903 0.63556 0.33497 0.0
C1962 C 0.85101 0.64964 0.32551 0.0
C1963 C 0.84433 0.64455 0.30679 0.0
C1964 C 0.82901 0.65427 0.30357 0.0
C1965 C 0.85942 0.64748 0.29288 0.0
C1966 C 0.83799 0.62546 0.3073 0.0
C1967 C 0.84093 0.6205 0.32362 0.0
C1968 C 0.83558 0.60365 0.32748 0.0
C1969 C 0.82678 0.59161 0.3144 0.0
C1970 C 0.82337 0.59644 0.29763 0.0
C1971 C 0.82934 0.61359 0.29405 0.0
H1972 H 0.89945 0.32985 0.3189 0.0
H1973 H 0.92011 0.38074 0.3044 0.0
H1974 H 0.93987 0.36751 0.28162 0.0
H1975 H 0.93974 0.31253 0.31447 0.0
H1976 H 0.92983 0.29122 0.30531 0.0
H1977 H 0.91705 0.30469 0.32003 0.0
H1978 H 0.89333 0.30158 0.29607 0.0
H1979 H 0.90603 0.28805 0.28128 0.0
H1980 H 0.89983 0.3072 0.27411 0.0
H1981 H 0.95872 0.34853 0.26148 0.0
H1982 H 0.97351 0.32534 0.24461 0.0
H1983 H 0.9396 0.28714 0.27192 0.0
C1984 C 0.90805 0.33825 0.3109 0.0
C1985 C 0.90825 0.35637 0.31351 0.0
C1986 C 0.91967 0.36684 0.30264 0.0
C1987 C 0.93098 0.35944 0.28969 0.0
C1988 C 0.93057 0.34154 0.28763 0.0
C1989 C 0.91925 0.33109 0.29784 0.0
C1990 C 0.9213 0.31224 0.2931 0.0
C1991 C 0.92734 0.30474 0.30918 0.0
C1992 C 0.9041 0.30165 0.2857 0.0
C1993 C 0.93571 0.31368 0.27876 0.0
C1994 C 0.94097 0.33067 0.27581 0.0
C1995 C 0.95458 0.33517 0.26359 0.0
C1996 C 0.96295 0.32195 0.25413 0.0
C1997 C 0.95758 0.30446 0.25685 0.0
C1998 C 0.94376 0.30037 0.26933 0.0
H1999 H 0.86208 0.42233 0.70612 0.0
H2000 H 0.88511 0.39119 0.7395 0.0
H2001 H 0.86993 0.40478 0.7659 0.0
H2002 H 0.86283 0.46158 0.73908 0.0
H2003 H 0.8419 0.46582 0.73208 0.0
H2004 H 0.85647 0.4554 0.71629 0.0
H2005 H 0.83135 0.42985 0.70879 0.0
H2006 H 0.81676 0.44017 0.72451 0.0
H2007 H 0.82061 0.41849 0.72648 0.0
H2008 H 0.84946 0.41921 0.78798 0.0
H2009 H 0.82547 0.43331 0.80384 0.0
H2010 H 0.81598 0.45492 0.75591 0.0
C2011 C 0.86428 0.41862 0.71902 0.0
C2012 C 0.87484 0.40572 0.72073 0.0
C2013 C 0.87715 0.40109 0.73785 0.0
C2014 C 0.86861 0.40878 0.75294 0.0
C2015 C 0.85795 0.42116 0.7507 0.0
C2016 C 0.85587 0.42614 0.73417 0.0
C2017 C 0.8426 0.43867 0.73506 0.0
C2018 C 0.85149 0.45642 0.73035 0.0
C2019 C 0.82691 0.43135 0.723 0.0
C2020 C 0.83707 0.43953 0.75455 0.0
C2021 C 0.84622 0.42952 0.76342 0.0
C2022 C 0.84242 0.4273 0.78124 0.0
C2023 C 0.82874 0.43529 0.79011 0.0
C2024 C 0.81898 0.44531 0.78114 0.0
C2025 C 0.8235 0.44769 0.76324 0.0
H2026 H 0.16688 0.32582 0.70695 0.0
H2027 H 0.13875 0.37002 0.71861 0.0
H2028 H 0.11296 0.35113 0.72964 0.0
H2029 H 0.12844 0.29424 0.69262 0.0
H2030 H 0.13596 0.27717 0.70261 0.0
H2031 H 0.15177 0.29399 0.69456 0.0
H2032 H 0.16567 0.30075 0.72567 0.0
H2033 H 0.14984 0.28405 0.73385 0.0
H2034 H 0.15185 0.30583 0.74498 0.0
H2035 H 0.0911 0.3279 0.74141 0.0
H2036 H 0.0744 0.30181 0.7523 0.0
H2037 H 0.11634 0.27255 0.73198 0.0
C2038 C 0.15522 0.33151 0.71161 0.0
C2039 C 0.15484 0.34941 0.71191 0.0
C2040 C 0.13936 0.35634 0.71822 0.0
C2041 C 0.12462 0.34571 0.72451 0.0
C2042 C 0.12554 0.32818 0.72429 0.0
C2043 C 0.14038 0.32109 0.71789 0.0
C2044 C 0.13818 0.30196 0.71965 0.0
C2045 C 0.13861 0.29121 0.70127 0.0
C2046 C 0.15222 0.29792 0.73176 0.0
C2047 C 0.11992 0.29947 0.72836 0.0
C2048 C 0.11283 0.31473 0.73086 0.0
C2049 C 0.0964 0.3158 0.73929 0.0
C2050 C 0.08696 0.30087 0.74534 0.0
C2051 C 0.09396 0.28505 0.74291 0.0
C2052 C 0.11063 0.28443 0.73418 0.0
H2053 H 0.88826 0.70938 0.70047 0.0
H2054 H 0.90489 0.66159 0.71151 0.0
H2055 H 0.93161 0.67814 0.72548 0.0
H2056 H 0.93314 0.73225 0.69143 0.0
H2057 H 0.92782 0.75269 0.70205 0.0
H2058 H 0.91084 0.73698 0.69128 0.0
H2059 H 0.89191 0.73804 0.72057 0.0
H2060 H 0.90886 0.75362 0.73146 0.0
H2061 H 0.90118 0.73375 0.7407 0.0
H2062 H 0.95493 0.69987 0.74094 0.0
H2063 H 0.97373 0.72529 0.75589 0.0
H2064 H 0.94275 0.75902 0.73391 0.0
C2065 C 0.89769 0.70237 0.70549 0.0
C2066 C 0.89444 0.68416 0.70484 0.0
C2067 C 0.90704 0.67552 0.7118 0.0
C2068 C 0.92231 0.68481 0.71977 0.0
C2069 C 0.9249 0.70274 0.72058 0.0
C2070 C 0.91305 0.71145 0.71349 0.0
C2071 C 0.91853 0.73084 0.71695 0.0
C2072 C 0.92284 0.73865 0.69938 0.0
C2073 C 0.90427 0.73957 0.72809 0.0
C2074 C 0.93503 0.73165 0.72748 0.0
C2075 C 0.93854 0.7153 0.72933 0.0
C2076 C 0.95253 0.71275 0.73932 0.0
C2077 C 0.9632 0.7273 0.7477 0.0
C2078 C 0.95986 0.74423 0.74603 0.0
C2079 C 0.94565 0.74631 0.73559 0.0
H2080 H 0.71835 0.21968 0.63985 0.0
H2081 H 0.72793 0.16692 0.62433 0.0
H2082 H 0.74656 0.17638 0.59874 0.0
H2083 H 0.71703 0.23226 0.59565 0.0
H2084 H 0.72856 0.25373 0.60184 0.0
H2085 H 0.71511 0.24255 0.61816 0.0
H2086 H 0.74194 0.24672 0.6387 0.0
H2087 H 0.75544 0.25792 0.62247 0.0
H2088 H 0.76221 0.23928 0.63021 0.0
H2089 H 0.76425 0.19194 0.57457 0.0
H2090 H 0.78147 0.21259 0.5558 0.0
H2091 H 0.76152 0.25509 0.58848 0.0
C2092 C 0.7242 0.21007 0.63096 0.0
C2093 C 0.72154 0.19252 0.63398 0.0
C2094 C 0.72975 0.18042 0.62225 0.0
C2095 C 0.7403 0.18567 0.60764 0.0
C2096 C 0.74268 0.20309 0.60507 0.0
C2097 C 0.735 0.21512 0.61654 0.0
C2098 C 0.74044 0.23321 0.61155 0.0
C2099 C 0.72432 0.24088 0.6065 0.0
C2100 C 0.75061 0.24497 0.62663 0.0
C2101 C 0.75242 0.22953 0.59549 0.0
C2102 C 0.75338 0.21207 0.59177 0.0
C2103 C 0.76361 0.20564 0.57742 0.0
C2104 C 0.77328 0.2174 0.56679 0.0
C2105 C 0.77283 0.23537 0.57078 0.0
C2106 C 0.76215 0.24141 0.58523 0.0
H2107 H 0.30489 0.19761 0.64725 0.0
H2108 H 0.34962 0.18366 0.61414 0.0
H2109 H 0.33948 0.19732 0.58969 0.0
H2110 H 0.27339 0.18968 0.61191 0.0
H2111 H 0.26202 0.20755 0.62047 0.0
H2112 H 0.27282 0.19678 0.63548 0.0
H2113 H 0.29102 0.22602 0.64761 0.0
H2114 H 0.28029 0.23688 0.63262 0.0
H2115 H 0.30406 0.2389 0.63232 0.0
H2116 H 0.3252 0.21334 0.56927 0.0
H2117 H 0.3073 0.22989 0.55379 0.0
H2118 H 0.27058 0.23189 0.59933 0.0
C2119 C 0.31257 0.19746 0.63486 0.0
C2120 C 0.3281 0.18962 0.63263 0.0
C2121 C 0.33769 0.18957 0.61616 0.0
C2122 C 0.33204 0.19731 0.60219 0.0
C2123 C 0.31669 0.20491 0.60482 0.0
C2124 C 0.30701 0.20497 0.62069 0.0
C2125 C 0.29088 0.21387 0.61993 0.0
C2126 C 0.27376 0.20121 0.62207 0.0
C2127 C 0.29162 0.22987 0.63395 0.0
C2128 C 0.29311 0.21896 0.60122 0.0
C2129 C 0.30812 0.2137 0.59279 0.0
C2130 C 0.31329 0.21733 0.57565 0.0
C2131 C 0.30288 0.22664 0.56689 0.0
C2132 C 0.2873 0.2321 0.57515 0.0
C2133 C 0.28241 0.22807 0.59258 0.0
H2134 H 0.37544 0.79515 0.63887 0.0
H2135 H 0.38089 0.84658 0.62264 0.0
H2136 H 0.36286 0.83503 0.59646 0.0
H2137 H 0.3747 0.77064 0.59328 0.0
H2138 H 0.35824 0.75363 0.60002 0.0
H2139 H 0.37392 0.76539 0.61581 0.0
H2140 H 0.34811 0.77312 0.63722 0.0
H2141 H 0.33239 0.7615 0.6215 0.0
H2142 H 0.33135 0.78389 0.62937 0.0
H2143 H 0.34144 0.81861 0.57409 0.0
H2144 H 0.31778 0.79878 0.55787 0.0
H2145 H 0.32619 0.75808 0.5887 0.0
C2146 C 0.37329 0.80389 0.62952 0.0
C2147 C 0.37971 0.82174 0.63272 0.0
C2148 C 0.37618 0.83284 0.62043 0.0
C2149 C 0.366 0.82639 0.60547 0.0
C2150 C 0.35945 0.8088 0.60297 0.0
C2151 C 0.36301 0.79769 0.61462 0.0
C2152 C 0.35295 0.77972 0.60995 0.0
C2153 C 0.36572 0.76657 0.60443 0.0
C2154 C 0.34046 0.77425 0.62543 0.0
C2155 C 0.34274 0.7826 0.59423 0.0
C2156 C 0.34689 0.79938 0.59021 0.0
C2157 C 0.33831 0.80536 0.57692 0.0
C2158 C 0.32492 0.79398 0.56772 0.0
C2159 C 0.32013 0.77688 0.57199 0.0
C2160 C 0.32949 0.77109 0.58516 0.0
H2161 H 0.72931 0.83084 0.65219 0.0
H2162 H 0.68719 0.8416 0.62079 0.0
H2163 H 0.69689 0.82201 0.59537 0.0
H2164 H 0.76217 0.82855 0.61587 0.0
H2165 H 0.77138 0.81132 0.62389 0.0
H2166 H 0.76147 0.82666 0.63937 0.0
H2167 H 0.74052 0.8015 0.65154 0.0
H2168 H 0.75029 0.78611 0.63604 0.0
H2169 H 0.72676 0.78629 0.63638 0.0
H2170 H 0.71004 0.79994 0.57408 0.0
H2171 H 0.72643 0.77792 0.55789 0.0
H2172 H 0.76096 0.78267 0.60269 0.0
C2173 C 0.72219 0.82919 0.63993 0.0
C2174 C 0.70747 0.83774 0.63847 0.0
C2175 C 0.69853 0.83522 0.62219 0.0
C2176 C 0.70393 0.82411 0.60769 0.0
C2177 C 0.71837 0.81574 0.60965 0.0
C2178 C 0.72748 0.81825 0.6253 0.0
C2179 C 0.74245 0.80755 0.62399 0.0
C2180 C 0.76043 0.81922 0.62589 0.0
C2181 C 0.73984 0.79459 0.63781 0.0
C2182 C 0.74017 0.79842 0.60525 0.0
C2183 C 0.72621 0.80332 0.59722 0.0
C2184 C 0.72116 0.7962 0.58013 0.0
C2185 C 0.73065 0.78376 0.571 0.0
C2186 C 0.74515 0.77861 0.57889 0.0
C2187 C 0.74992 0.78617 0.59626 0.0
H2188 H 0.73425 0.80899 0.41548 0.0
H2189 H 0.68195 0.81051 0.43977 0.0
H2190 H 0.68972 0.79449 0.46362 0.0
H2191 H 0.73923 0.76698 0.42394 0.0
H2192 H 0.76232 0.77229 0.42898 0.0
H2193 H 0.75283 0.78428 0.41414 0.0
H2194 H 0.76352 0.81295 0.43393 0.0
H2195 H 0.77324 0.80105 0.44872 0.0
H2196 H 0.75751 0.81511 0.45732 0.0
H2197 H 0.70269 0.77622 0.48354 0.0
H2198 H 0.72059 0.75975 0.49938 0.0
H2199 H 0.76508 0.77266 0.46328 0.0
C2200 C 0.72447 0.80607 0.42589 0.0
C2201 C 0.70748 0.81093 0.42576 0.0
C2202 C 0.69509 0.80697 0.43967 0.0
C2203 C 0.69935 0.79781 0.45323 0.0
C2204 C 0.71615 0.79297 0.45281 0.0
C2205 C 0.72861 0.79723 0.43966 0.0
C2206 C 0.74578 0.79072 0.44233 0.0
C2207 C 0.75029 0.7778 0.4264 0.0
C2208 C 0.7609 0.80586 0.44578 0.0
C2209 C 0.74094 0.78184 0.45882 0.0
C2210 C 0.72378 0.78316 0.46464 0.0
C2211 C 0.71624 0.77534 0.47926 0.0
C2212 C 0.72657 0.76607 0.48824 0.0
C2213 C 0.74435 0.76483 0.4827 0.0
C2214 C 0.7515 0.77297 0.46779 0.0
H2215 H 0.72549 0.18502 0.40712 0.0
H2216 H 0.67544 0.1949 0.43257 0.0
H2217 H 0.69133 0.21296 0.45753 0.0
H2218 H 0.74915 0.18379 0.44756 0.0
H2219 H 0.76959 0.19485 0.43914 0.0
H2220 H 0.75425 0.18158 0.42397 0.0
H2221 H 0.75359 0.2076 0.40636 0.0
H2222 H 0.76888 0.22093 0.42148 0.0
H2223 H 0.74794 0.22757 0.41791 0.0
H2224 H 0.7127 0.23059 0.47939 0.0
H2225 H 0.73809 0.2478 0.49559 0.0
H2226 H 0.77408 0.22732 0.4553 0.0
C2227 C 0.71788 0.19078 0.41807 0.0
C2228 C 0.69923 0.18846 0.41797 0.0
C2229 C 0.68974 0.1965 0.43238 0.0
C2230 C 0.69864 0.20673 0.44664 0.0
C2231 C 0.71704 0.20891 0.44625 0.0
C2232 C 0.72657 0.20125 0.43229 0.0
C2233 C 0.74626 0.20652 0.43457 0.0
C2234 C 0.75534 0.19074 0.43642 0.0
C2235 C 0.75465 0.21623 0.41917 0.0
C2236 C 0.7463 0.21844 0.4519 0.0
C2237 C 0.72934 0.21948 0.45855 0.0
C2238 C 0.72606 0.22983 0.47434 0.0
C2239 C 0.74052 0.23949 0.48348 0.0
C2240 C 0.75798 0.23887 0.47667 0.0
C2241 C 0.76084 0.2281 0.46074 0.0
H2242 H 0.36914 0.24841 0.438 0.0
H2243 H 0.34413 0.21298 0.39499 0.0
H2244 H 0.32038 0.20254 0.41576 0.0
H2245 H 0.35331 0.22115 0.47598 0.0
H2246 H 0.35002 0.24041 0.49053 0.0
H2247 H 0.36764 0.24119 0.47384 0.0
H2248 H 0.35547 0.26605 0.46131 0.0
H2249 H 0.33788 0.26529 0.4778 0.0
H2250 H 0.33283 0.26284 0.45453 0.0
H2251 H 0.29612 0.20147 0.4386 0.0
H2252 H 0.27382 0.20969 0.46149 0.0
H2253 H 0.31418 0.24585 0.48993 0.0
C2254 C 0.35906 0.23789 0.43318 0.0
C2255 C 0.35874 0.23114 0.41502 0.0
C2256 C 0.34509 0.2178 0.40897 0.0
C2257 C 0.33144 0.21188 0.4207 0.0
C2258 C 0.33173 0.21935 0.43842 0.0
C2259 C 0.34536 0.23193 0.4447 0.0
C2260 C 0.34126 0.23994 0.46339 0.0
C2261 C 0.3538 0.23539 0.47673 0.0
C2262 C 0.34188 0.25968 0.46428 0.0
C2263 C 0.32264 0.23089 0.46614 0.0
C2264 C 0.31754 0.21872 0.4518 0.0
C2265 C 0.30013 0.21052 0.45016 0.0
C2266 C 0.28754 0.21528 0.46316 0.0
C2267 C 0.29244 0.22814 0.47755 0.0
C2268 C 0.3103 0.23553 0.47938 0.0
H2269 H 0.33329 0.7975 0.40066 0.0
H2270 H 0.33142 0.85053 0.4236 0.0
H2271 H 0.31865 0.84012 0.45163 0.0
H2272 H 0.29232 0.77932 0.41982 0.0
H2273 H 0.30011 0.75956 0.42327 0.0
H2274 H 0.30947 0.77137 0.40539 0.0
H2275 H 0.34077 0.77274 0.41762 0.0
H2276 H 0.33149 0.761 0.43559 0.0
H2277 H 0.34504 0.78172 0.44036 0.0
H2278 H 0.30577 0.8234 0.47738 0.0
H2279 H 0.29258 0.80202 0.49743 0.0
H2280 H 0.30319 0.76038 0.45709 0.0
C2281 C 0.33026 0.80698 0.41156 0.0
C2282 C 0.33342 0.82486 0.40991 0.0
C2283 C 0.32912 0.83677 0.42452 0.0
C2284 C 0.32191 0.83098 0.44052 0.0
C2285 C 0.31905 0.81324 0.44169 0.0
C2286 C 0.32303 0.80144 0.42752 0.0
C2287 C 0.31834 0.78306 0.43188 0.0
C2288 C 0.30422 0.77272 0.41935 0.0
C2289 C 0.3349 0.77411 0.43133 0.0
C2290 C 0.31098 0.78629 0.45068 0.0
C2291 C 0.31159 0.80375 0.45624 0.0
C2292 C 0.30529 0.80971 0.47314 0.0
C2293 C 0.29792 0.79749 0.48449 0.0
C2294 C 0.29681 0.77954 0.47881 0.0
C2295 C 0.3037 0.774 0.46177 0.0
H2296 H 0.64357 0.24534 0.71127 0.0
H2297 H 0.61922 0.19204 0.69859 0.0
H2298 H 0.59064 0.19984 0.71119 0.0
H2299 H 0.62088 0.25308 0.753 0.0
H2300 H 0.61898 0.27514 0.75045 0.0
H2301 H 0.63711 0.26535 0.73976 0.0
H2302 H 0.6284 0.27278 0.70929 0.0
H2303 H 0.61014 0.28248 0.71989 0.0
H2304 H 0.60629 0.26545 0.70164 0.0
H2305 H 0.56456 0.21377 0.72582 0.0
H2306 H 0.54435 0.23194 0.74305 0.0
H2307 H 0.5862 0.27581 0.74591 0.0
C2308 C 0.63224 0.23527 0.71105 0.0
C2309 C 0.63367 0.21807 0.70386 0.0
C2310 C 0.61849 0.20531 0.70402 0.0
C2311 C 0.60217 0.20964 0.71108 0.0
C2312 C 0.60123 0.22677 0.71798 0.0
C2313 C 0.61594 0.23934 0.7181 0.0
C2314 C 0.61172 0.25666 0.72689 0.0
C2315 C 0.62283 0.26291 0.74351 0.0
C2316 C 0.61429 0.27013 0.71363 0.0
C2317 C 0.59238 0.25189 0.73185 0.0
C2318 C 0.58646 0.23465 0.72647 0.0
C2319 C 0.56907 0.2273 0.73002 0.0
C2320 C 0.55764 0.23773 0.73969 0.0
C2321 C 0.56368 0.25527 0.74584 0.0
C2322 C 0.58119 0.26242 0.74147 0.0
H2323 H 0.31826 0.09164 0.70285 0.0
H2324 H 0.36959 0.07439 0.69467 0.0
H2325 H 0.3583 0.04847 0.70913 0.0
H2326 H 0.3098 0.08048 0.74494 0.0
H2327 H 0.28647 0.07311 0.74261 0.0
H2328 H 0.29754 0.08889 0.72912 0.0
H2329 H 0.28681 0.06917 0.70052 0.0
H2330 H 0.27555 0.05334 0.71397 0.0
H2331 H 0.29142 0.04721 0.69691 0.0
H2332 H 0.34326 0.02737 0.72884 0.0
H2333 H 0.32521 0.01198 0.75116 0.0
H2334 H 0.28256 0.04111 0.74452 0.0
C2335 C 0.32699 0.08218 0.70366 0.0
C2336 C 0.34482 0.08508 0.69762 0.0
C2337 C 0.35587 0.07247 0.69914 0.0
C2338 C 0.34956 0.05765 0.70731 0.0
C2339 C 0.33209 0.05545 0.71363 0.0
C2340 C 0.32085 0.06722 0.71165 0.0
C2341 C 0.30309 0.06248 0.72085 0.0
C2342 C 0.299 0.0771 0.73523 0.0
C2343 C 0.28835 0.05777 0.70725 0.0
C2344 C 0.30643 0.04673 0.72903 0.0
C2345 C 0.32316 0.0428 0.72456 0.0
C2346 C 0.32993 0.02998 0.73203 0.0
C2347 C 0.31946 0.0212 0.74467 0.0
C2348 C 0.3023 0.02515 0.74972 0.0
C2349 C 0.29561 0.03776 0.74124 0.0
H2350 H 0.43436 0.78079 0.7084 0.0
H2351 H 0.47215 0.81994 0.68635 0.0
H2352 H 0.49664 0.80575 0.69472 0.0
H2353 H 0.45795 0.7781 0.74573 0.0
H2354 H 0.45206 0.75508 0.74577 0.0
H2355 H 0.43754 0.76713 0.73621 0.0
H2356 H 0.43852 0.74703 0.70642 0.0
H2357 H 0.45309 0.73491 0.71591 0.0
H2358 H 0.45956 0.74421 0.69562 0.0
H2359 H 0.51702 0.78933 0.70872 0.0
H2360 H 0.53141 0.77231 0.72733 0.0
H2361 H 0.4804 0.74275 0.73863 0.0
C2362 C 0.44776 0.78622 0.70503 0.0
C2363 C 0.45131 0.80147 0.69668 0.0
C2364 C 0.46908 0.80823 0.69268 0.0
C2365 C 0.48309 0.80023 0.69733 0.0
C2366 C 0.47914 0.78535 0.7058 0.0
C2367 C 0.46189 0.77834 0.70949 0.0
C2368 C 0.46121 0.76293 0.71972 0.0
C2369 C 0.45163 0.766 0.73793 0.0
C2370 C 0.45258 0.74628 0.70876 0.0
C2371 C 0.48076 0.76275 0.72177 0.0
C2372 C 0.49091 0.77566 0.71351 0.0
C2373 C 0.50923 0.77892 0.71491 0.0
C2374 C 0.51733 0.76906 0.72543 0.0
C2375 C 0.50711 0.75606 0.73444 0.0
C2376 C 0.48864 0.75258 0.732 0.0
H2377 H 0.75337 0.91386 0.70423 0.0
H2378 H 0.70203 0.92999 0.70109 0.0
H2379 H 0.71434 0.95969 0.71348 0.0
H2380 H 0.76441 0.9361 0.74446 0.0
H2381 H 0.78755 0.94219 0.73929 0.0
H2382 H 0.77555 0.92308 0.72754 0.0
H2383 H 0.78461 0.93466 0.69738 0.0
H2384 H 0.79688 0.95378 0.70905 0.0
H2385 H 0.78011 0.95575 0.69384 0.0
H2386 H 0.73101 0.98603 0.7313 0.0
H2387 H 0.75117 0.00714 0.75062 0.0
H2388 H 0.7921 0.97435 0.7396 0.0
C2389 C 0.74484 0.92375 0.70567 0.0
C2390 C 0.72677 0.91965 0.70171 0.0
C2391 C 0.71598 0.9329 0.70389 0.0
C2392 C 0.72284 0.9498 0.71095 0.0
C2393 C 0.7406 0.95328 0.71536 0.0
C2394 C 0.75154 0.94069 0.71241 0.0
C2395 C 0.76981 0.94735 0.71933 0.0
C2396 C 0.77459 0.93654 0.73349 0.0
C2397 C 0.78367 0.94792 0.70398 0.0
C2398 C 0.76718 0.96534 0.72745 0.0
C2399 C 0.75032 0.96864 0.72496 0.0
C2400 C 0.74441 0.98379 0.73292 0.0
C2401 C 0.75597 0.99574 0.74385 0.0
C2402 C 0.77325 0.99244 0.7467 0.0
C2403 C 0.77894 0.97724 0.7379 0.0
H2404 H 0.61922 0.84511 0.32053 0.0
H2405 H 0.60926 0.89564 0.3101 0.0
H2406 H 0.58546 0.88157 0.28976 0.0
H2407 H 0.613 0.82405 0.27648 0.0
H2408 H 0.60265 0.80386 0.2836 0.0
H2409 H 0.61845 0.81805 0.29751 0.0
H2410 H 0.59535 0.81843 0.32368 0.0
H2411 H 0.57949 0.8042 0.30986 0.0
H2412 H 0.5741 0.82461 0.3205 0.0
H2413 H 0.56266 0.86131 0.27015 0.0
H2414 H 0.54369 0.83701 0.25306 0.0
H2415 H 0.56929 0.80054 0.27714 0.0
C2416 C 0.61204 0.85331 0.31405 0.0
C2417 C 0.6161 0.8715 0.31694 0.0
C2418 C 0.60637 0.88167 0.30811 0.0
C2419 C 0.59283 0.87379 0.29655 0.0
C2420 C 0.58924 0.85577 0.294 0.0
C2421 C 0.59862 0.84571 0.30254 0.0
C2422 C 0.59252 0.82665 0.29752 0.0
C2423 C 0.60755 0.81763 0.28822 0.0
C2424 C 0.58491 0.81797 0.31386 0.0
C2425 C 0.57826 0.82747 0.28472 0.0
C2426 C 0.57643 0.84432 0.28283 0.0
C2427 C 0.56399 0.84808 0.27157 0.0
C2428 C 0.55324 0.83423 0.26197 0.0
C2429 C 0.55513 0.81691 0.26366 0.0
C2430 C 0.56773 0.81363 0.27531 0.0
H2431 H 0.70677 0.10657 0.32428 0.0
H2432 H 0.7073 0.0955 0.37886 0.0
H2433 H 0.72296 0.07052 0.36887 0.0
H2434 H 0.69873 0.06152 0.30467 0.0
H2435 H 0.71227 0.06555 0.2851 0.0
H2436 H 0.70103 0.08236 0.29667 0.0
H2437 H 0.73088 0.10282 0.29995 0.0
H2438 H 0.7422 0.08607 0.28843 0.0
H2439 H 0.74894 0.09599 0.31028 0.0
H2440 H 0.74074 0.04803 0.3528 0.0
H2441 H 0.75736 0.02914 0.33203 0.0
H2442 H 0.74192 0.05325 0.28784 0.0
C2443 C 0.71016 0.09887 0.33412 0.0
C2444 C 0.70597 0.10301 0.35235 0.0
C2445 C 0.71041 0.09251 0.36482 0.0
C2446 C 0.7193 0.07833 0.35927 0.0
C2447 C 0.72333 0.07463 0.34118 0.0
C2448 C 0.71866 0.08448 0.32878 0.0
C2449 C 0.72426 0.07773 0.31012 0.0
C2450 C 0.70811 0.07141 0.29846 0.0
C2451 C 0.73735 0.09147 0.30171 0.0
C2452 C 0.7332 0.0628 0.31397 0.0
C2453 C 0.73264 0.06122 0.33193 0.0
C2454 C 0.741 0.04896 0.33865 0.0
C2455 C 0.75032 0.03818 0.3267 0.0
C2456 C 0.75107 0.0396 0.30819 0.0
C2457 C 0.74199 0.0519 0.30188 0.0
H2458 H 0.41985 0.2468 0.33229 0.0
H2459 H 0.45302 0.26347 0.378 0.0
H2460 H 0.47925 0.25777 0.35935 0.0
H2461 H 0.44658 0.21298 0.31012 0.0
H2462 H 0.44276 0.21832 0.28832 0.0
H2463 H 0.42622 0.22044 0.3059 0.0
H2464 H 0.42657 0.25246 0.30111 0.0
H2465 H 0.44314 0.25051 0.28368 0.0
H2466 H 0.44718 0.267 0.30239 0.0
H2467 H 0.50198 0.25558 0.33518 0.0
H2468 H 0.51964 0.25652 0.30738 0.0
H2469 H 0.47201 0.2396 0.27711 0.0
C2470 C 0.43256 0.24872 0.33851 0.0
C2471 C 0.4344 0.25552 0.3566 0.0
C2472 C 0.45129 0.2582 0.36417 0.0
C2473 C 0.46627 0.25493 0.35371 0.0
C2474 C 0.46409 0.2488 0.33576 0.0
C2475 C 0.44764 0.24551 0.32824 0.0
C2476 C 0.44914 0.24079 0.30826 0.0
C2477 C 0.44067 0.22201 0.30284 0.0
C2478 C 0.44103 0.25345 0.29829 0.0
C2479 C 0.46903 0.24285 0.30563 0.0
C2480 C 0.47739 0.24719 0.32169 0.0
C2481 C 0.49564 0.25165 0.32255 0.0
C2482 C 0.5056 0.25203 0.30659 0.0
C2483 C 0.49732 0.24791 0.2899 0.0
C2484 C 0.47881 0.24279 0.28957 0.0
H2485 H 0.33702 0.91905 0.30081 0.0
H2486 H 0.34158 0.946 0.35434 0.0
H2487 H 0.33016 0.97087 0.34439 0.0
H2488 H 0.35102 0.95752 0.27827 0.0
H2489 H 0.33617 0.95009 0.26023 0.0
H2490 H 0.34497 0.93468 0.27163 0.0
H2491 H 0.31314 0.92002 0.27839 0.0
H2492 H 0.30426 0.93544 0.26711 0.0
H2493 H 0.29749 0.93282 0.28984 0.0
H2494 H 0.31564 0.99183 0.32878 0.0
H2495 H 0.30169 0.00775 0.30865 0.0
H2496 H 0.31001 0.96832 0.26475 0.0
C2497 C 0.33572 0.93023 0.31042 0.0
C2498 C 0.34011 0.93056 0.32838 0.0
C2499 C 0.33835 0.94549 0.3405 0.0
C2500 C 0.33182 0.95966 0.33498 0.0
C2501 C 0.32745 0.95886 0.3172 0.0
C2502 C 0.32961 0.94462 0.30505 0.0
C2503 C 0.32417 0.94703 0.28667 0.0
C2504 C 0.34003 0.94735 0.27342 0.0
C2505 C 0.30886 0.93299 0.28013 0.0
C2506 C 0.31819 0.96463 0.29045 0.0
C2507 C 0.32006 0.97124 0.30812 0.0
C2508 C 0.31443 0.9869 0.31483 0.0
C2509 C 0.3066 0.99595 0.3032 0.0
C2510 C 0.30462 0.98946 0.28493 0.0
C2511 C 0.31089 0.97368 0.27861 0.0
H2512 H 0.72215 0.11173 0.70806 0.0
H2513 H 0.76047 0.15768 0.70389 0.0
H2514 H 0.78304 0.14399 0.71673 0.0
H2515 H 0.73526 0.10476 0.75033 0.0
H2516 H 0.73167 0.08149 0.74612 0.0
H2517 H 0.71911 0.09392 0.73454 0.0
H2518 H 0.72968 0.0789 0.70437 0.0
H2519 H 0.7424 0.0665 0.7159 0.0
H2520 H 0.75303 0.07956 0.69946 0.0
H2521 H 0.80098 0.12634 0.73136 0.0
H2522 H 0.81239 0.10707 0.74982 0.0
H2523 H 0.76241 0.07279 0.74623 0.0
C2524 C 0.7354 0.11874 0.70957 0.0
C2525 C 0.73964 0.13571 0.70481 0.0
C2526 C 0.75695 0.14467 0.70741 0.0
C2527 C 0.7699 0.13695 0.71457 0.0
C2528 C 0.76531 0.12029 0.71926 0.0
C2529 C 0.74844 0.11132 0.71706 0.0
C2530 C 0.74659 0.09427 0.72486 0.0
C2531 C 0.73231 0.09358 0.73985 0.0
C2532 C 0.74269 0.0789 0.71027 0.0
C2533 C 0.76494 0.09524 0.73207 0.0
C2534 C 0.77558 0.11024 0.72835 0.0
C2535 C 0.79281 0.11451 0.73426 0.0
C2536 C 0.79917 0.1035 0.74475 0.0
C2537 C 0.78831 0.08844 0.74943 0.0
C2538 C 0.77111 0.08404 0.74259 0.0
H2539 H 0.72236 0.87159 0.34215 0.0
H2540 H 0.68767 0.90214 0.37476 0.0
H2541 H 0.70157 0.9283 0.36143 0.0
H2542 H 0.76097 0.90296 0.3424 0.0
H2543 H 0.76698 0.89725 0.31936 0.0
H2544 H 0.7546 0.88123 0.33182 0.0
H2545 H 0.73022 0.87534 0.30829 0.0
H2546 H 0.74257 0.8913 0.29572 0.0
H2547 H 0.72001 0.89305 0.30271 0.0
H2548 H 0.72128 0.95139 0.34609 0.0
H2549 H 0.74255 0.96896 0.32793 0.0
H2550 H 0.76074 0.92203 0.30196 0.0
C2551 C 0.71778 0.88383 0.34649 0.0
C2552 C 0.70422 0.88506 0.35962 0.0
C2553 C 0.69818 0.9011 0.36476 0.0
C2554 C 0.70599 0.91596 0.35729 0.0
C2555 C 0.71944 0.91436 0.34436 0.0
C2556 C 0.72501 0.89861 0.33875 0.0
C2557 C 0.73907 0.90015 0.32409 0.0
C2558 C 0.75643 0.8951 0.32976 0.0
C2559 C 0.73257 0.88932 0.30667 0.0
C2560 C 0.7409 0.91931 0.32263 0.0
C2561 C 0.72964 0.92733 0.33455 0.0
C2562 C 0.72987 0.94517 0.33641 0.0
C2563 C 0.74196 0.95505 0.32584 0.0
C2564 C 0.75347 0.94707 0.31322 0.0
C2565 C 0.75256 0.92885 0.31156 0.0
H2566 H 0.65141 0.1963 0.312 0.0
H2567 H 0.60907 0.17651 0.34744 0.0
H2568 H 0.58759 0.18783 0.33055 0.0
H2569 H 0.63654 0.2351 0.30794 0.0
H2570 H 0.64258 0.2356 0.2847 0.0
H2571 H 0.65449 0.22432 0.29822 0.0
H2572 H 0.64761 0.19625 0.27638 0.0
H2573 H 0.63578 0.2075 0.26269 0.0
H2574 H 0.625 0.18798 0.27094 0.0
H2575 H 0.57153 0.20456 0.3127 0.0
H2576 H 0.56137 0.22395 0.29389 0.0
H2577 H 0.61348 0.23116 0.26803 0.0
C2578 C 0.63758 0.19403 0.31599 0.0
C2579 C 0.63195 0.18551 0.33108 0.0
C2580 C 0.61372 0.18294 0.33593 0.0
C2581 C 0.6014 0.18932 0.32641 0.0
C2582 C 0.60745 0.19803 0.3119 0.0
C2583 C 0.62505 0.20019 0.30653 0.0
C2584 C 0.62816 0.21079 0.29099 0.0
C2585 C 0.64121 0.22743 0.29576 0.0
C2586 C 0.63451 0.19998 0.27426 0.0
C2587 C 0.60965 0.21474 0.2889 0.0
C2588 C 0.59793 0.20719 0.30106 0.0
C2589 C 0.58044 0.21012 0.30275 0.0
C2590 C 0.57476 0.22111 0.29179 0.0
C2591 C 0.58643 0.22896 0.27901 0.0
C2592 C 0.60409 0.22546 0.27752 0.0
H2593 H 0.34964 0.16552 0.31621 0.0
H2594 H 0.35421 0.14477 0.36593 0.0
H2595 H 0.34196 0.11566 0.35181 0.0
H2596 H 0.30875 0.14136 0.30487 0.0
H2597 H 0.31373 0.13821 0.28129 0.0
H2598 H 0.3245 0.15695 0.29477 0.0
H2599 H 0.35509 0.14882 0.28379 0.0
H2600 H 0.34438 0.13002 0.27024 0.0
H2601 H 0.36023 0.12769 0.2863 0.0
H2602 H 0.32703 0.08924 0.33282 0.0
H2603 H 0.30983 0.06807 0.31092 0.0
H2604 H 0.31556 0.10621 0.27366 0.0
C2605 C 0.34833 0.15483 0.32409 0.0
C2606 C 0.35295 0.15743 0.34217 0.0
C2607 C 0.35081 0.1431 0.35204 0.0
C2608 C 0.34392 0.1265 0.34412 0.0
C2609 C 0.33931 0.12445 0.32631 0.0
C2610 C 0.34147 0.13823 0.31642 0.0
C2611 C 0.33447 0.13286 0.29789 0.0
C2612 C 0.31947 0.14294 0.29452 0.0
C2613 C 0.34944 0.13497 0.28372 0.0
C2614 C 0.32762 0.11399 0.29902 0.0
C2615 C 0.33071 0.1093 0.31543 0.0
C2616 C 0.32474 0.09271 0.31985 0.0
C2617 C 0.31507 0.08074 0.30729 0.0
C2618 C 0.31136 0.08547 0.29057 0.0
C2619 C 0.3181 0.10222 0.28635 0.0
H2620 H 0.39042 0.82572 0.32338 0.0
H2621 H 0.41263 0.87875 0.31748 0.0
H2622 H 0.43723 0.86833 0.29884 0.0
H2623 H 0.43138 0.80877 0.32518 0.0
H2624 H 0.42355 0.78848 0.31223 0.0
H2625 H 0.4082 0.80015 0.32571 0.0
H2626 H 0.38958 0.80007 0.29801 0.0
H2627 H 0.40481 0.78833 0.28447 0.0
H2628 H 0.40007 0.80854 0.27849 0.0
H2629 H 0.45975 0.85189 0.28116 0.0
H2630 H 0.4765 0.83082 0.26333 0.0
H2631 H 0.43854 0.78865 0.27961 0.0
C2632 C 0.40051 0.83517 0.31827 0.0
C2633 C 0.39969 0.85308 0.32202 0.0
C2634 C 0.41299 0.86498 0.31479 0.0
C2635 C 0.42705 0.85918 0.30427 0.0
C2636 C 0.4275 0.84143 0.30091 0.0
C2637 C 0.41443 0.8296 0.30751 0.0
C2638 C 0.41743 0.8112 0.30121 0.0
C2639 C 0.42031 0.80159 0.31703 0.0
C2640 C 0.40206 0.80147 0.28987 0.0
C2641 C 0.43424 0.81449 0.29003 0.0
C2642 C 0.43999 0.832 0.2902 0.0
C2643 C 0.45533 0.83816 0.28091 0.0
C2644 C 0.46481 0.82612 0.27091 0.0
C2645 C 0.45881 0.80814 0.2701 0.0
C2646 C 0.4434 0.80233 0.27994 0.0
H2647 H 0.36019 0.91215 0.70258 0.0
H2648 H 0.38576 0.8859 0.73886 0.0
H2649 H 0.37206 0.90238 0.76441 0.0
H2650 H 0.36315 0.95438 0.73037 0.0
H2651 H 0.34175 0.95794 0.72399 0.0
H2652 H 0.35502 0.94543 0.7087 0.0
H2653 H 0.32925 0.91989 0.70605 0.0
H2654 H 0.31593 0.93231 0.72129 0.0
H2655 H 0.31982 0.91135 0.72594 0.0
H2656 H 0.35334 0.91979 0.78586 0.0
H2657 H 0.33119 0.93666 0.80136 0.0
H2658 H 0.31802 0.95137 0.75092 0.0
C2659 C 0.36319 0.91005 0.71589 0.0
C2660 C 0.37411 0.89775 0.7187 0.0
C2661 C 0.3775 0.8953 0.73636 0.0
C2662 C 0.3698 0.90463 0.75096 0.0
C2663 C 0.35886 0.91644 0.74769 0.0
C2664 C 0.35564 0.91924 0.73057 0.0
C2665 C 0.34252 0.93182 0.73056 0.0
C2666 C 0.35113 0.94837 0.72296 0.0
C2667 C 0.3259 0.92333 0.72036 0.0
C2668 C 0.3385 0.93534 0.75032 0.0
C2669 C 0.34816 0.92649 0.76001 0.0
C2670 C 0.34588 0.92694 0.77842 0.0
C2671 C 0.33322 0.93648 0.7871 0.0
C2672 C 0.32297 0.94541 0.77736 0.0
C2673 C 0.32592 0.94501 0.75878 0.0
H2674 H 0.67461 0.81378 0.71695 0.0
H2675 H 0.64813 0.85833 0.73405 0.0
H2676 H 0.62249 0.83917 0.74481 0.0
H2677 H 0.63561 0.78448 0.70202 0.0
H2678 H 0.64254 0.766 0.70993 0.0
H2679 H 0.65882 0.78314 0.70319 0.0
H2680 H 0.67313 0.78672 0.73401 0.0
H2681 H 0.65689 0.76961 0.74086 0.0
H2682 H 0.65971 0.79055 0.75392 0.0
H2683 H 0.60005 0.8156 0.75418 0.0
H2684 H 0.58201 0.7888 0.76184 0.0
H2685 H 0.62264 0.75921 0.73855 0.0
C2686 C 0.66339 0.81949 0.72289 0.0
C2687 C 0.66337 0.83757 0.72464 0.0
C2688 C 0.64846 0.84454 0.73257 0.0
C2689 C 0.63381 0.83377 0.73871 0.0
C2690 C 0.63427 0.81605 0.73685 0.0
C2691 C 0.64864 0.80892 0.72916 0.0
C2692 C 0.64578 0.78945 0.72906 0.0
C2693 C 0.64568 0.78023 0.70991 0.0
C2694 C 0.6597 0.78375 0.74012 0.0
C2695 C 0.62759 0.7868 0.73795 0.0
C2696 C 0.62122 0.80234 0.74227 0.0
C2697 C 0.60482 0.80333 0.75074 0.0
C2698 C 0.59462 0.78801 0.75492 0.0
C2699 C 0.60082 0.77188 0.75059 0.0
C2700 C 0.61757 0.77134 0.74203 0.0
H2701 H 0.39394 0.20987 0.69915 0.0
H2702 H 0.40985 0.16232 0.71191 0.0
H2703 H 0.43576 0.17909 0.72715 0.0
H2704 H 0.43862 0.23222 0.69142 0.0
H2705 H 0.43338 0.25293 0.70135 0.0
H2706 H 0.41645 0.23714 0.69062 0.0
H2707 H 0.39698 0.23898 0.71954 0.0
H2708 H 0.41387 0.25471 0.73037 0.0
H2709 H 0.40581 0.23519 0.74009 0.0
H2710 H 0.45903 0.20097 0.74253 0.0
H2711 H 0.47828 0.22655 0.75659 0.0
H2712 H 0.44807 0.25991 0.73304 0.0
C2713 C 0.40296 0.20297 0.70499 0.0
C2714 C 0.3998 0.18474 0.70429 0.0
C2715 C 0.41192 0.17625 0.71222 0.0
C2716 C 0.42673 0.18566 0.72092 0.0
C2717 C 0.42934 0.20358 0.72154 0.0
C2718 C 0.41787 0.21217 0.71372 0.0
C2719 C 0.42353 0.23156 0.71674 0.0
C2720 C 0.42828 0.23889 0.69897 0.0
C2721 C 0.4092 0.24064 0.72732 0.0
C2722 C 0.43979 0.2325 0.72769 0.0
C2723 C 0.44294 0.21622 0.73025 0.0
C2724 C 0.45684 0.2138 0.74043 0.0
C2725 C 0.46779 0.22843 0.74828 0.0
C2726 C 0.46483 0.2453 0.74588 0.0
C2727 C 0.45067 0.24724 0.73529 0.0
H2728 H 0.71548 0.72616 0.15262 0.0
H2729 H 0.71921 0.67229 0.13479 0.0
H2730 H 0.73702 0.68087 0.10838 0.0
H2731 H 0.71286 0.74043 0.10971 0.0
H2732 H 0.72667 0.76086 0.11535 0.0
H2733 H 0.71363 0.75049 0.13246 0.0
H2734 H 0.74181 0.7514 0.15041 0.0
H2735 H 0.7549 0.76191 0.13343 0.0
H2736 H 0.76038 0.74215 0.13986 0.0
H2737 H 0.75355 0.69537 0.08329 0.0
H2738 H 0.77096 0.71489 0.06359 0.0
H2739 H 0.75839 0.75932 0.09899 0.0
C2740 C 0.72002 0.71618 0.14313 0.0
C2741 C 0.71586 0.69854 0.14566 0.0
C2742 C 0.72227 0.68587 0.13311 0.0
C2743 C 0.7323 0.69062 0.11802 0.0
C2744 C 0.73605 0.70811 0.11584 0.0
C2745 C 0.73039 0.72072 0.12822 0.0
C2746 C 0.73708 0.73866 0.12327 0.0
C2747 C 0.72164 0.74816 0.12 0.0
C2748 C 0.74927 0.74914 0.13759 0.0
C2749 C 0.74732 0.73418 0.10613 0.0
C2750 C 0.74633 0.71648 0.10191 0.0
C2751 C 0.75449 0.70925 0.08652 0.0
C2752 C 0.76424 0.72039 0.07536 0.0
C2753 C 0.76596 0.73854 0.07981 0.0
C2754 C 0.75727 0.74548 0.09532 0.0
H2755 H 0.31467 0.69776 0.1257 0.0
H2756 H 0.31538 0.6484 0.09328 0.0
H2757 H 0.29688 0.6574 0.07119 0.0
H2758 H 0.27034 0.70392 0.11706 0.0
H2759 H 0.27616 0.72679 0.11592 0.0
H2760 H 0.28856 0.71606 0.12957 0.0
H2761 H 0.31758 0.72715 0.1129 0.0
H2762 H 0.30529 0.73803 0.09932 0.0
H2763 H 0.31911 0.72276 0.08897 0.0
H2764 H 0.27759 0.67187 0.05299 0.0
H2765 H 0.26194 0.69146 0.03874 0.0
H2766 H 0.27687 0.7322 0.08192 0.0
C2767 C 0.31081 0.6888 0.11402 0.0
C2768 C 0.31626 0.67233 0.11125 0.0
C2769 C 0.31128 0.66108 0.09563 0.0
C2770 C 0.30072 0.66604 0.08308 0.0
C2771 C 0.29552 0.6824 0.08623 0.0
C2772 C 0.30064 0.69369 0.10119 0.0
C2773 C 0.2943 0.71092 0.10094 0.0
C2774 C 0.28158 0.71463 0.11682 0.0
C2775 C 0.31001 0.72558 0.1005 0.0
C2776 C 0.28471 0.70755 0.08355 0.0
C2777 C 0.28533 0.69098 0.07535 0.0
C2778 C 0.27718 0.68494 0.05923 0.0
C2779 C 0.2684 0.69624 0.05117 0.0
C2780 C 0.26808 0.71352 0.05907 0.0
C2781 C 0.27637 0.71906 0.07556 0.0
H2782 H 0.35223 0.32394 0.14233 0.0
H2783 H 0.40324 0.3182 0.11656 0.0
H2784 H 0.38824 0.2996 0.09134 0.0
H2785 H 0.33132 0.28039 0.12931 0.0
H2786 H 0.31017 0.28677 0.12611 0.0
H2787 H 0.32501 0.29953 0.14208 0.0
H2788 H 0.32369 0.32669 0.12642 0.0
H2789 H 0.3089 0.314 0.11037 0.0
H2790 H 0.32919 0.32614 0.10297 0.0
H2791 H 0.3674 0.28193 0.06859 0.0
H2792 H 0.34249 0.26566 0.05096 0.0
H2793 H 0.30548 0.28329 0.09186 0.0
C2794 C 0.3603 0.31876 0.13143 0.0
C2795 C 0.37893 0.32257 0.13144 0.0
C2796 C 0.38895 0.31546 0.11688 0.0
C2797 C 0.38055 0.30491 0.10247 0.0
C2798 C 0.36214 0.30155 0.10285 0.0
C2799 C 0.35216 0.3082 0.11701 0.0
C2800 C 0.3326 0.3026 0.11427 0.0
C2801 C 0.32429 0.29167 0.1288 0.0
C2802 C 0.32304 0.31829 0.11346 0.0
C2803 C 0.3331 0.29178 0.09634 0.0
C2804 C 0.35024 0.29135 0.0899 0.0
C2805 C 0.35393 0.28218 0.07351 0.0
C2806 C 0.33971 0.27308 0.06355 0.0
C2807 C 0.32207 0.27319 0.07006 0.0
C2808 C 0.31883 0.28279 0.08662 0.0
H2809 H 0.72241 0.33536 0.14038 0.0
H2810 H 0.6822 0.35031 0.10944 0.0
H2811 H 0.68689 0.32689 0.08554 0.0
H2812 H 0.75177 0.32573 0.10322 0.0
H2813 H 0.75873 0.30777 0.11214 0.0
H2814 H 0.7518 0.32538 0.12697 0.0
H2815 H 0.72853 0.30372 0.14177 0.0
H2816 H 0.73531 0.28606 0.12688 0.0
H2817 H 0.71249 0.28941 0.12817 0.0
H2818 H 0.69555 0.30151 0.06532 0.0
H2819 H 0.70906 0.27733 0.04919 0.0
H2820 H 0.74484 0.28014 0.09263 0.0
C2821 C 0.71456 0.33369 0.12859 0.0
C2822 C 0.70188 0.3446 0.12678 0.0
C2823 C 0.692 0.34211 0.11109 0.0
C2824 C 0.69452 0.3288 0.09748 0.0
C2825 C 0.70706 0.31822 0.09973 0.0
C2826 C 0.71705 0.32062 0.1148 0.0
C2827 C 0.7301 0.30784 0.11364 0.0
C2828 C 0.74923 0.31724 0.11401 0.0
C2829 C 0.72638 0.29606 0.1285 0.0
C2830 C 0.72586 0.29786 0.09556 0.0
C2831 C 0.71244 0.30395 0.08783 0.0
C2832 C 0.70618 0.29672 0.07118 0.0
C2833 C 0.71402 0.28305 0.06208 0.0
C2834 C 0.72813 0.27685 0.06953 0.0
C2835 C 0.73396 0.28435 0.0866 0.0
H2836 H 0.69037 0.32523 0.94869 0.0
H2837 H 0.68034 0.28957 0.90047 0.0
H2838 H 0.69435 0.26795 0.91339 0.0
H2839 H 0.73251 0.31535 0.95631 0.0
H2840 H 0.72971 0.31706 0.9802 0.0
H2841 H 0.71783 0.32928 0.96767 0.0
H2842 H 0.68825 0.31568 0.9816 0.0
H2843 H 0.70007 0.30337 0.99417 0.0
H2844 H 0.68271 0.29248 0.97977 0.0
H2845 H 0.71163 0.25119 0.93042 0.0
H2846 H 0.73046 0.24025 0.95078 0.0
H2847 H 0.72836 0.28624 0.98836 0.0
C2848 C 0.69095 0.31281 0.94091 0.0
C2849 C 0.68425 0.30911 0.92355 0.0
C2850 C 0.68533 0.29271 0.9138 0.0
C2851 C 0.69325 0.28032 0.92104 0.0
C2852 C 0.69986 0.28445 0.93811 0.0
C2853 C 0.69869 0.30024 0.94799 0.0
C2854 C 0.7074 0.30165 0.96578 0.0
C2855 C 0.72277 0.31672 0.96759 0.0
C2856 C 0.69379 0.30339 0.98124 0.0
C2857 C 0.71401 0.28433 0.96418 0.0
C2858 C 0.70946 0.27458 0.94814 0.0
C2859 C 0.71504 0.25858 0.94314 0.0
C2860 C 0.72573 0.25249 0.95473 0.0
C2861 C 0.73062 0.26232 0.97117 0.0
C2862 C 0.72445 0.27831 0.97604 0.0
H2863 H 0.70609 0.69722 0.91875 0.0
H2864 H 0.71684 0.64767 0.93143 0.0
H2865 H 0.73689 0.6627 0.95492 0.0
H2866 H 0.74984 0.71954 0.92434 0.0
H2867 H 0.74289 0.73963 0.93395 0.0
H2868 H 0.72893 0.72491 0.91862 0.0
H2869 H 0.70315 0.72439 0.9421 0.0
H2870 H 0.71704 0.73912 0.95751 0.0
H2871 H 0.70647 0.71869 0.96388 0.0
H2872 H 0.75642 0.68342 0.97675 0.0
H2873 H 0.77415 0.70809 0.99445 0.0
H2874 H 0.75017 0.74372 0.96742 0.0
C2875 C 0.71258 0.68947 0.9265 0.0
C2876 C 0.70984 0.67123 0.92323 0.0
C2877 C 0.71869 0.66165 0.93367 0.0
C2878 C 0.7301 0.67007 0.94707 0.0
C2879 C 0.73251 0.68808 0.9499 0.0
C2880 C 0.72399 0.69765 0.93988 0.0
C2881 C 0.72912 0.71685 0.94525 0.0
C2882 C 0.73824 0.72575 0.92961 0.0
C2883 C 0.71298 0.72525 0.95263 0.0
C2884 C 0.74197 0.71661 0.95974 0.0
C2885 C 0.74372 0.69992 0.96233 0.0
C2886 C 0.75509 0.69655 0.97489 0.0
C2887 C 0.76503 0.71062 0.98494 0.0
C2888 C 0.76359 0.72782 0.98229 0.0
C2889 C 0.75174 0.73073 0.96962 0.0
H2890 H 0.35044 0.73885 0.8985 0.0
H2891 H 0.38805 0.76277 0.93845 0.0
H2892 H 0.36711 0.753 0.9621 0.0
H2893 H 0.31548 0.7533 0.91943 0.0
H2894 H 0.29913 0.73468 0.91363 0.0
H2895 H 0.31849 0.73864 0.89959 0.0
H2896 H 0.32613 0.70827 0.90256 0.0
H2897 H 0.30661 0.70406 0.91651 0.0
H2898 H 0.32794 0.7019 0.92434 0.0
H2899 H 0.34079 0.74701 0.98102 0.0
H2900 H 0.31087 0.74546 0.99415 0.0
H2901 H 0.28923 0.72471 0.94253 0.0
C2902 C 0.35452 0.74119 0.91219 0.0
C2903 C 0.37091 0.7512 0.91675 0.0
C2904 C 0.37561 0.75488 0.93479 0.0
C2905 C 0.36384 0.74931 0.94827 0.0
C2906 C 0.34739 0.74014 0.94348 0.0
C2907 C 0.34273 0.73595 0.92586 0.0
C2908 C 0.32326 0.72869 0.92446 0.0
C2909 C 0.31353 0.73948 0.91365 0.0
C2910 C 0.32085 0.70959 0.9165 0.0
C2911 C 0.31753 0.7306 0.94395 0.0
C2912 C 0.33176 0.73676 0.95468 0.0
C2913 C 0.32959 0.74162 0.97286 0.0
C2914 C 0.31243 0.74059 0.98024 0.0
C2915 C 0.29754 0.73475 0.96947 0.0
C2916 C 0.30027 0.72918 0.95118 0.0
H2917 H 0.354 0.30798 0.90523 0.0
H2918 H 0.34688 0.35932 0.92996 0.0
H2919 H 0.33103 0.34653 0.95554 0.0
H2920 H 0.31178 0.28674 0.9177 0.0
H2921 H 0.31983 0.26715 0.92131 0.0
H2922 H 0.33108 0.28054 0.9055 0.0
H2923 H 0.36036 0.28258 0.922 0.0
H2924 H 0.34917 0.26923 0.9379 0.0
H2925 H 0.36109 0.29021 0.94546 0.0
H2926 H 0.31536 0.3275 0.97842 0.0
H2927 H 0.30037 0.30418 0.99535 0.0
H2928 H 0.31821 0.26586 0.9551 0.0
C2929 C 0.3492 0.31661 0.91603 0.0
C2930 C 0.35174 0.33468 0.91558 0.0
C2931 C 0.34511 0.34543 0.92999 0.0
C2932 C 0.33614 0.33828 0.9446 0.0
C2933 C 0.33389 0.32037 0.94459 0.0
C2934 C 0.34022 0.30971 0.93061 0.0
C2935 C 0.33574 0.29087 0.93341 0.0
C2936 C 0.3239 0.28074 0.9186 0.0
C2937 C 0.35259 0.28275 0.93478 0.0
C2938 C 0.32574 0.29251 0.95109 0.0
C2939 C 0.32488 0.30959 0.95747 0.0
C2940 C 0.31602 0.3141 0.97353 0.0
C2941 C 0.30763 0.3008 0.98311 0.0
C2942 C 0.30805 0.28322 0.97651 0.0
C2943 C 0.31748 0.27917 0.96042 0.0
H2944 H 0.62457 0.7219 0.22047 0.0
H2945 H 0.6016 0.6989 0.17014 0.0
H2946 H 0.57456 0.71179 0.17867 0.0
H2947 H 0.58281 0.71741 0.24757 0.0
H2948 H 0.58896 0.73787 0.26092 0.0
H2949 H 0.60577 0.72533 0.25167 0.0
H2950 H 0.62135 0.75154 0.2366 0.0
H2951 H 0.60458 0.7641 0.24575 0.0
H2952 H 0.60903 0.76144 0.22206 0.0
H2953 H 0.55119 0.7297 0.19133 0.0
H2954 H 0.5337 0.75118 0.20708 0.0
H2955 H 0.57117 0.76141 0.24975 0.0
C2956 C 0.61373 0.71929 0.21139 0.0
C2957 C 0.61526 0.70933 0.19463 0.0
C2958 C 0.6008 0.70644 0.18306 0.0
C2959 C 0.58533 0.71368 0.1878 0.0
C2960 C 0.58438 0.72369 0.20426 0.0
C2961 C 0.59815 0.72639 0.21593 0.0
C2962 C 0.59421 0.73851 0.23234 0.0
C2963 C 0.59285 0.72922 0.24912 0.0
C2964 C 0.60811 0.75486 0.23429 0.0
C2965 C 0.57635 0.7426 0.2278 0.0
C2966 C 0.57081 0.73382 0.21163 0.0
C2967 C 0.55526 0.73643 0.20416 0.0
C2968 C 0.54533 0.74861 0.21327 0.0
C2969 C 0.55099 0.75809 0.22968 0.0
C2970 C 0.56649 0.75458 0.23716 0.0
H2971 H 0.31247 0.60702 0.20695 0.0
H2972 H 0.36241 0.58801 0.19379 0.0
H2973 H 0.3524 0.56306 0.21022 0.0
H2974 H 0.3084 0.59716 0.25049 0.0
H2975 H 0.2848 0.59063 0.25055 0.0
H2976 H 0.29494 0.60591 0.23604 0.0
H2977 H 0.28094 0.58624 0.20877 0.0
H2978 H 0.27063 0.57093 0.22325 0.0
H2979 H 0.28459 0.564 0.20472 0.0
H2980 H 0.33839 0.54204 0.23085 0.0
H2981 H 0.32109 0.52616 0.25346 0.0
H2982 H 0.27972 0.55806 0.25213 0.0
C2983 C 0.32117 0.59743 0.2072 0.0
C2984 C 0.33823 0.59949 0.19905 0.0
C2985 C 0.34927 0.58673 0.19988 0.0
C2986 C 0.3437 0.57247 0.20917 0.0
C2987 C 0.32698 0.57106 0.21741 0.0
C2988 C 0.3158 0.5831 0.21637 0.0
C2989 C 0.29891 0.57912 0.22728 0.0
C2990 C 0.29665 0.59409 0.24196 0.0
C2991 C 0.28281 0.57481 0.21529 0.0
C2992 C 0.3026 0.56329 0.23507 0.0
C2993 C 0.31879 0.55876 0.22911 0.0
C2994 C 0.32554 0.54526 0.23536 0.0
C2995 C 0.31555 0.53625 0.24815 0.0
C2996 C 0.29897 0.54076 0.2546 0.0
C2997 C 0.29238 0.55431 0.24765 0.0
H2998 H 0.44853 0.3274 0.21581 0.0
H2999 H 0.47118 0.3193 0.16236 0.0
H3000 H 0.49049 0.30023 0.17259 0.0
H3001 H 0.48963 0.3291 0.23842 0.0
H3002 H 0.47902 0.31841 0.25661 0.0
H3003 H 0.46705 0.33131 0.24493 0.0
H3004 H 0.44245 0.30507 0.2384 0.0
H3005 H 0.45441 0.29206 0.24995 0.0
H3006 H 0.4482 0.28498 0.22725 0.0
H3007 H 0.50614 0.28063 0.18858 0.0
H3008 H 0.51829 0.26394 0.20933 0.0
H3009 H 0.48717 0.2873 0.25265 0.0
C3010 C 0.45757 0.32162 0.20626 0.0
C3011 C 0.4583 0.32472 0.18828 0.0
C3012 C 0.47044 0.3171 0.17622 0.0
C3013 C 0.48141 0.30622 0.18189 0.0
C3014 C 0.48028 0.30333 0.19971 0.0
C3015 C 0.46883 0.31102 0.21176 0.0
C3016 C 0.47042 0.30616 0.23024 0.0
C3017 C 0.47692 0.3222 0.24332 0.0
C3018 C 0.45283 0.29649 0.23684 0.0
C3019 C 0.48431 0.2943 0.22667 0.0
C3020 C 0.48978 0.29272 0.20899 0.0
C3021 C 0.50211 0.28195 0.20251 0.0
C3022 C 0.50902 0.27258 0.21444 0.0
C3023 C 0.50373 0.27416 0.23271 0.0
C3024 C 0.4913 0.28537 0.23877 0.0
H3025 H 0.74498 0.41613 0.21668 0.0
H3026 H 0.73594 0.43655 0.16789 0.0
H3027 H 0.7554 0.4638 0.17824 0.0
H3028 H 0.74221 0.45436 0.24477 0.0
H3029 H 0.7587 0.45104 0.25968 0.0
H3030 H 0.74584 0.43275 0.24739 0.0
H3031 H 0.77461 0.42186 0.2342 0.0
H3032 H 0.78757 0.44012 0.24651 0.0
H3033 H 0.79066 0.43604 0.2227 0.0
H3034 H 0.7754 0.48952 0.19521 0.0
H3035 H 0.79269 0.51083 0.21706 0.0
H3036 H 0.78526 0.47321 0.255 0.0
C3037 C 0.74733 0.42614 0.20793 0.0
C3038 C 0.7391 0.42413 0.19138 0.0
C3039 C 0.74223 0.43778 0.18059 0.0
C3040 C 0.75326 0.45327 0.18635 0.0
C3041 C 0.7609 0.45491 0.20297 0.0
C3042 C 0.75796 0.44165 0.21357 0.0
C3043 C 0.76643 0.44682 0.23139 0.0
C3044 C 0.75246 0.44621 0.2467 0.0
C3045 C 0.78066 0.43554 0.23383 0.0
C3046 C 0.77455 0.46514 0.22931 0.0
C3047 C 0.7715 0.46963 0.21281 0.0
C3048 C 0.77784 0.48608 0.20817 0.0
C3049 C 0.78754 0.49816 0.22072 0.0
C3050 C 0.7906 0.49375 0.23778 0.0
C3051 C 0.78377 0.477 0.24197 0.0
H3052 H 0.62899 0.34538 0.83762 0.0
H3053 H 0.59801 0.34131 0.8868 0.0
H3054 H 0.57371 0.3229 0.86993 0.0
H3055 H 0.59308 0.34783 0.80978 0.0
H3056 H 0.60192 0.33526 0.79084 0.0
H3057 H 0.61662 0.34811 0.80687 0.0
H3058 H 0.63027 0.32091 0.81159 0.0
H3059 H 0.6156 0.30798 0.79558 0.0
H3060 H 0.61605 0.30206 0.81775 0.0
H3061 H 0.55286 0.30458 0.84723 0.0
H3062 H 0.53769 0.28781 0.821 0.0
H3063 H 0.58264 0.30476 0.78719 0.0
C3064 C 0.61711 0.34066 0.84491 0.0
C3065 C 0.6154 0.34479 0.86354 0.0
C3066 C 0.59961 0.33831 0.87252 0.0
C3067 C 0.58575 0.32787 0.86305 0.0
C3068 C 0.58791 0.32407 0.84465 0.0
C3069 C 0.60323 0.3303 0.83571 0.0
C3070 C 0.60244 0.32434 0.81596 0.0
C3071 C 0.60358 0.33981 0.80524 0.0
C3072 C 0.61695 0.31316 0.80987 0.0
C3073 C 0.5843 0.3137 0.81512 0.0
C3074 C 0.57605 0.31368 0.83174 0.0
C3075 C 0.5592 0.30457 0.83415 0.0
C3076 C 0.55065 0.29516 0.81917 0.0
C3077 C 0.559 0.29493 0.80205 0.0
C3078 C 0.57599 0.30447 0.80011 0.0
H3079 H 0.70714 0.591 0.83522 0.0
H3080 H 0.70543 0.57529 0.8882 0.0
H3081 H 0.72314 0.55215 0.87713 0.0
H3082 H 0.70306 0.54733 0.8116 0.0
H3083 H 0.71755 0.55386 0.79344 0.0
H3084 H 0.70453 0.56892 0.80559 0.0
H3085 H 0.733 0.59075 0.81227 0.0
H3086 H 0.74611 0.57572 0.80024 0.0
H3087 H 0.75093 0.58412 0.82302 0.0
H3088 H 0.74306 0.53215 0.86052 0.0
H3089 H 0.76168 0.51568 0.83945 0.0
H3090 H 0.74768 0.5428 0.79686 0.0
C3091 C 0.71042 0.58264 0.84448 0.0
C3092 C 0.705 0.58497 0.86258 0.0
C3093 C 0.70942 0.57369 0.87425 0.0
C3094 C 0.71951 0.56054 0.8681 0.0
C3095 C 0.72478 0.55868 0.85018 0.0
C3096 C 0.72017 0.56927 0.83849 0.0
C3097 C 0.72734 0.5645 0.81986 0.0
C3098 C 0.71222 0.55828 0.80686 0.0
C3099 C 0.7401 0.57968 0.81348 0.0
C3100 C 0.73702 0.54982 0.82296 0.0
C3101 C 0.73549 0.54668 0.84052 0.0
C3102 C 0.7441 0.53429 0.84666 0.0
C3103 C 0.75457 0.52489 0.83451 0.0
C3104 C 0.75621 0.52779 0.81635 0.0
C3105 C 0.74704 0.54033 0.81063 0.0
H3106 H 0.42974 0.75383 0.83871 0.0
H3107 H 0.46532 0.78004 0.87976 0.0
H3108 H 0.49033 0.7687 0.86295 0.0
H3109 H 0.45357 0.71526 0.82646 0.0
H3110 H 0.44913 0.71464 0.80322 0.0
H3111 H 0.43358 0.72202 0.82001 0.0
H3112 H 0.43534 0.75072 0.8062 0.0
H3113 H 0.45083 0.74345 0.78944 0.0
H3114 H 0.45658 0.76365 0.80337 0.0
H3115 H 0.51182 0.75918 0.83954 0.0
H3116 H 0.52807 0.75253 0.81135 0.0
H3117 H 0.47861 0.7309 0.78599 0.0
C3118 C 0.44271 0.75679 0.84441 0.0
C3119 C 0.44559 0.76779 0.86055 0.0
C3120 C 0.46279 0.77159 0.86744 0.0
C3121 C 0.47707 0.76513 0.85804 0.0
C3122 C 0.47387 0.7547 0.84191 0.0
C3123 C 0.45708 0.75042 0.83522 0.0
C3124 C 0.45744 0.74064 0.81671 0.0
C3125 C 0.44786 0.72203 0.8166 0.0
C3126 C 0.44959 0.75019 0.80314 0.0
C3127 C 0.47714 0.74096 0.81363 0.0
C3128 C 0.48638 0.74884 0.82844 0.0
C3129 C 0.50476 0.75251 0.82804 0.0
C3130 C 0.5139 0.74857 0.81193 0.0
C3131 C 0.50465 0.74105 0.79642 0.0
C3132 C 0.48608 0.73659 0.7976 0.0
H3133 H 0.3428 0.43118 0.82997 0.0
H3134 H 0.39215 0.46222 0.84715 0.0
H3135 H 0.38303 0.48753 0.83579 0.0
H3136 H 0.34027 0.44887 0.7897 0.0
H3137 H 0.31661 0.44812 0.79118 0.0
H3138 H 0.32681 0.43289 0.80147 0.0
H3139 H 0.31181 0.44252 0.83174 0.0
H3140 H 0.30167 0.45788 0.82153 0.0
H3141 H 0.31513 0.46504 0.8407 0.0
H3142 H 0.36885 0.50924 0.82073 0.0
H3143 H 0.3515 0.5245 0.80262 0.0
H3144 H 0.3112 0.47933 0.79687 0.0
C3145 C 0.35169 0.4433 0.83144 0.0
C3146 C 0.36822 0.44466 0.83946 0.0
C3147 C 0.37941 0.46082 0.84108 0.0
C3148 C 0.37432 0.4753 0.8347 0.0
C3149 C 0.35792 0.4735 0.82687 0.0
C3150 C 0.34677 0.45788 0.82527 0.0
C3151 C 0.3301 0.45908 0.81585 0.0
C3152 C 0.32836 0.4465 0.79852 0.0
C3153 C 0.31371 0.45595 0.82819 0.0
C3154 C 0.33371 0.47771 0.81206 0.0
C3155 C 0.34975 0.48592 0.81857 0.0
C3156 C 0.35619 0.50296 0.81574 0.0
C3157 C 0.3462 0.51159 0.80556 0.0
C3158 C 0.33003 0.50312 0.79827 0.0
C3159 C 0.32357 0.48616 0.80214 0.0
H3160 H 0.72746 0.64456 0.23707 0.0
H3161 H 0.71879 0.61167 0.18689 0.0
H3162 H 0.73656 0.59117 0.19683 0.0
H3163 H 0.772 0.63831 0.24258 0.0
H3164 H 0.76963 0.63785 0.2663 0.0
H3165 H 0.75608 0.64987 0.25534 0.0
H3166 H 0.72788 0.63269 0.26832 0.0
H3167 H 0.74136 0.62063 0.27934 0.0
H3168 H 0.72455 0.6094 0.26448 0.0
H3169 H 0.75676 0.57508 0.21158 0.0
H3170 H 0.77676 0.56403 0.23035 0.0
H3171 H 0.77014 0.60601 0.27211 0.0
C3172 C 0.72929 0.63303 0.22818 0.0
C3173 C 0.72178 0.62977 0.21115 0.0
C3174 C 0.72438 0.61446 0.19999 0.0
C3175 C 0.73447 0.60273 0.20552 0.0
C3176 C 0.74171 0.60634 0.22235 0.0
C3177 C 0.73911 0.62104 0.2336 0.0
C3178 C 0.74823 0.62177 0.25109 0.0
C3179 C 0.76232 0.63791 0.25399 0.0
C3180 C 0.73469 0.62108 0.26673 0.0
C3181 C 0.75661 0.60537 0.24779 0.0
C3182 C 0.75274 0.59669 0.23113 0.0
C3183 C 0.75965 0.58163 0.22478 0.0
C3184 C 0.77092 0.57535 0.23568 0.0
C3185 C 0.77511 0.58395 0.25293 0.0
C3186 C 0.76755 0.59909 0.25901 0.0
H3187 H 0.7018 0.41302 0.87788 0.0
H3188 H 0.70479 0.36085 0.85264 0.0
H3189 H 0.72633 0.37246 0.83042 0.0
H3190 H 0.70528 0.43366 0.83812 0.0
H3191 H 0.71912 0.45294 0.84751 0.0
H3192 H 0.70385 0.44072 0.86166 0.0
H3193 H 0.72947 0.43778 0.88168 0.0
H3194 H 0.74478 0.45016 0.86771 0.0
H3195 H 0.74856 0.42898 0.87177 0.0
H3196 H 0.7461 0.38948 0.81004 0.0
H3197 H 0.76587 0.41076 0.79455 0.0
H3198 H 0.75203 0.45204 0.83391 0.0
C3199 C 0.70707 0.40405 0.86773 0.0
C3200 C 0.70157 0.38601 0.86699 0.0
C3201 C 0.70884 0.3747 0.85355 0.0
C3202 C 0.72102 0.38117 0.84079 0.0
C3203 C 0.72596 0.39898 0.84174 0.0
C3204 C 0.71947 0.41028 0.85499 0.0
C3205 C 0.72743 0.42884 0.85316 0.0
C3206 C 0.71306 0.43968 0.84992 0.0
C3207 C 0.7382 0.43691 0.86955 0.0
C3208 C 0.73931 0.42616 0.83675 0.0
C3209 C 0.73807 0.40884 0.83031 0.0
C3210 C 0.74742 0.40307 0.81511 0.0
C3211 C 0.75871 0.41528 0.80647 0.0
C3212 C 0.76083 0.43309 0.81317 0.0
C3213 C 0.75072 0.43856 0.82839 0.0
H3214 H 0.6499 0.71135 0.84446 0.0
H3215 H 0.63003 0.65669 0.83279 0.0
H3216 H 0.61069 0.66339 0.81011 0.0
H3217 H 0.60889 0.72691 0.84003 0.0
H3218 H 0.61912 0.74566 0.83003 0.0
H3219 H 0.63126 0.73641 0.84523 0.0
H3220 H 0.65625 0.73326 0.82125 0.0
H3221 H 0.64417 0.74247 0.80597 0.0
H3222 H 0.65097 0.72158 0.79968 0.0
H3223 H 0.59327 0.67648 0.78863 0.0
H3224 H 0.57989 0.69467 0.77017 0.0
H3225 H 0.61144 0.74042 0.79649 0.0
C3226 C 0.64151 0.70073 0.83716 0.0
C3227 C 0.6415 0.68348 0.84043 0.0
C3228 C 0.63028 0.67002 0.83053 0.0
C3229 C 0.61924 0.6737 0.81762 0.0
C3230 C 0.6196 0.69089 0.81477 0.0
C3231 C 0.63048 0.70417 0.82428 0.0
C3232 C 0.6285 0.72154 0.81877 0.0
C3233 C 0.62152 0.73332 0.83445 0.0
C3234 C 0.64601 0.73022 0.81095 0.0
C3235 C 0.61483 0.71603 0.80461 0.0
C3236 C 0.60978 0.69832 0.80248 0.0
C3237 C 0.59716 0.69036 0.79019 0.0
C3238 C 0.58959 0.70078 0.77982 0.0
C3239 C 0.59473 0.71894 0.78174 0.0
C3240 C 0.60747 0.72655 0.7944 0.0
H3241 H 0.32524 0.67107 0.85476 0.0
H3242 H 0.38185 0.67022 0.85115 0.0
H3243 H 0.37687 0.64157 0.83318 0.0
H3244 H 0.312 0.62483 0.85744 0.0
H3245 H 0.29289 0.62373 0.84412 0.0
H3246 H 0.30094 0.64351 0.85782 0.0
H3247 H 0.30342 0.66009 0.83013 0.0
H3248 H 0.29543 0.64039 0.81637 0.0
H3249 H 0.31629 0.65279 0.81088 0.0
H3250 H 0.36559 0.61364 0.81377 0.0
H3251 H 0.34895 0.58935 0.7945 0.0
H3252 H 0.29999 0.60871 0.81156 0.0
C3253 C 0.33661 0.6648 0.8504 0.0
C3254 C 0.35393 0.6729 0.8544 0.0
C3255 C 0.36844 0.66426 0.84829 0.0
C3256 C 0.36574 0.64796 0.8381 0.0
C3257 C 0.34848 0.64043 0.83421 0.0
C3258 C 0.33416 0.64857 0.84025 0.0
C3259 C 0.31699 0.63819 0.8336 0.0
C3260 C 0.305 0.63221 0.84917 0.0
C3261 C 0.30748 0.64848 0.82206 0.0
C3262 C 0.32388 0.62312 0.82256 0.0
C3263 C 0.34204 0.6245 0.82315 0.0
C3264 C 0.35133 0.61234 0.81336 0.0
C3265 C 0.34179 0.59856 0.80252 0.0
C3266 C 0.3232 0.59718 0.80149 0.0
C3267 C 0.31422 0.6095 0.81193 0.0
H3268 H 0.40687 0.3333 0.8341 0.0
H3269 H 0.43107 0.38318 0.81946 0.0
H3270 H 0.45268 0.36882 0.79982 0.0
H3271 H 0.44633 0.31492 0.83545 0.0
H3272 H 0.43664 0.29358 0.82612 0.0
H3273 H 0.42302 0.30781 0.83869 0.0
H3274 H 0.40228 0.30454 0.81203 0.0
H3275 H 0.41581 0.29024 0.79939 0.0
H3276 H 0.41143 0.3093 0.79053 0.0
H3277 H 0.4727 0.34871 0.78281 0.0
H3278 H 0.48777 0.32459 0.76841 0.0
H3279 H 0.44957 0.28816 0.7937 0.0
C3280 C 0.41666 0.34125 0.82673 0.0
C3281 C 0.41729 0.35941 0.82839 0.0
C3282 C 0.43028 0.36926 0.81839 0.0
C3283 C 0.44264 0.36121 0.80724 0.0
C3284 C 0.44174 0.34328 0.80609 0.0
C3285 C 0.42893 0.33344 0.81545 0.0
C3286 C 0.43062 0.3144 0.81186 0.0
C3287 C 0.43438 0.30727 0.82905 0.0
C3288 C 0.41405 0.30401 0.80292 0.0
C3289 C 0.44648 0.31504 0.79914 0.0
C3290 C 0.45282 0.3318 0.79602 0.0
C3291 C 0.46774 0.33554 0.78507 0.0
C3292 C 0.47626 0.32179 0.77702 0.0
C3293 C 0.46975 0.30452 0.77982 0.0
C3294 C 0.45469 0.30121 0.79108 0.0
H3295 H 0.35565 0.38797 0.24436 0.0
H3296 H 0.37148 0.41484 0.19824 0.0
H3297 H 0.35542 0.4386 0.21098 0.0
H3298 H 0.31276 0.39784 0.24927 0.0
H3299 H 0.3121 0.40102 0.27327 0.0
H3300 H 0.32628 0.38686 0.26154 0.0
H3301 H 0.35337 0.40441 0.278 0.0
H3302 H 0.33923 0.41854 0.28993 0.0
H3303 H 0.3582 0.42742 0.27727 0.0
H3304 H 0.33467 0.45746 0.22668 0.0
H3305 H 0.31246 0.47134 0.24532 0.0
H3306 H 0.31178 0.4336 0.28263 0.0
C3307 C 0.35603 0.399 0.23709 0.0
C3308 C 0.36483 0.39951 0.22027 0.0
C3309 C 0.3649 0.41416 0.21116 0.0
C3310 C 0.3558 0.42773 0.21828 0.0
C3311 C 0.34689 0.42661 0.23465 0.0
C3312 C 0.34715 0.41277 0.2441 0.0
C3313 C 0.33592 0.41446 0.26109 0.0
C3314 C 0.32088 0.39914 0.26129 0.0
C3315 C 0.34737 0.41632 0.27755 0.0
C3316 C 0.32886 0.43112 0.25941 0.0
C3317 C 0.33539 0.43792 0.24408 0.0
C3318 C 0.32981 0.45252 0.23896 0.0
C3319 C 0.31723 0.46041 0.24978 0.0
C3320 C 0.31041 0.45383 0.26573 0.0
C3321 C 0.31655 0.43903 0.27058 0.0
H3322 H 0.66775 0.32487 0.21114 0.0
H3323 H 0.6455 0.37072 0.23352 0.0
H3324 H 0.62144 0.35244 0.24797 0.0
H3325 H 0.62652 0.29757 0.202 0.0
H3326 H 0.6339 0.27844 0.20793 0.0
H3327 H 0.64957 0.29513 0.1995 0.0
H3328 H 0.66817 0.29735 0.22762 0.0
H3329 H 0.65249 0.28072 0.23619 0.0
H3330 H 0.65787 0.30143 0.24933 0.0
H3331 H 0.59958 0.32944 0.25949 0.0
H3332 H 0.58087 0.30286 0.26711 0.0
H3333 H 0.61729 0.27181 0.2377 0.0
C3334 C 0.65781 0.33106 0.21907 0.0
C3335 C 0.6585 0.34924 0.22119 0.0
C3336 C 0.64526 0.35683 0.2317 0.0
C3337 C 0.63155 0.34657 0.23999 0.0
C3338 C 0.6313 0.32874 0.23771 0.0
C3339 C 0.64405 0.32101 0.22752 0.0
C3340 C 0.64056 0.30152 0.2271 0.0
C3341 C 0.63745 0.29265 0.208 0.0
C3342 C 0.65567 0.29487 0.23557 0.0
C3343 C 0.62376 0.29951 0.23853 0.0
C3344 C 0.6187 0.3154 0.24453 0.0
C3345 C 0.60341 0.31692 0.25492 0.0
C3346 C 0.59285 0.30178 0.25912 0.0
C3347 C 0.59765 0.28535 0.25294 0.0
C3348 C 0.61344 0.28424 0.24272 0.0
H3349 H 0.38549 0.69866 0.2076 0.0
H3350 H 0.40307 0.69832 0.15226 0.0
H3351 H 0.42816 0.72108 0.16119 0.0
H3352 H 0.39584 0.74451 0.21966 0.0
H3353 H 0.4027 0.74249 0.24163 0.0
H3354 H 0.38637 0.72618 0.23073 0.0
H3355 H 0.40557 0.70263 0.23482 0.0
H3356 H 0.42199 0.71886 0.24569 0.0
H3357 H 0.42815 0.70482 0.22648 0.0
H3358 H 0.4519 0.74359 0.1767 0.0
H3359 H 0.47096 0.7649 0.19708 0.0
H3360 H 0.43701 0.75036 0.24182 0.0
C3361 C 0.39459 0.70333 0.19731 0.0
C3362 C 0.39235 0.69664 0.17922 0.0
C3363 C 0.40451 0.70326 0.1662 0.0
C3364 C 0.41882 0.71614 0.17115 0.0
C3365 C 0.42068 0.72234 0.18916 0.0
C3366 C 0.40878 0.71621 0.20199 0.0
C3367 C 0.41345 0.7251 0.22039 0.0
C3368 C 0.39871 0.73517 0.22858 0.0
C3369 C 0.41754 0.71207 0.23256 0.0
C3370 C 0.4299 0.73719 0.21598 0.0
C3371 C 0.43397 0.73538 0.19793 0.0
C3372 C 0.44878 0.74513 0.19084 0.0
C3373 C 0.45957 0.75712 0.2025 0.0
C3374 C 0.45539 0.75932 0.22099 0.0
C3375 C 0.4404 0.74911 0.22772 0.0
loop_
_geom_bond_atom_site_label_1
_geom_bond_atom_site_label_2
_geom_bond_distance
_geom_bond_site_symmetry_2
_ccdc_geom_bond_type
O0 Cd1 2.300 . S
O0 C7 1.275 . S
Cd1 O0 2.300 . S
Cd1 O9 2.381 . S
Cd1 O10 2.378 . S
O2 Cd3 2.385 . S
O2 C7 1.255 . S
Cd3 O2 2.385 . S
Cd3 O4 2.317 . S
O4 Cd3 2.317 . S
O4 C5 1.232 . S
C5 O4 1.232 . S
C5 O6 1.218 . S
O6 C5 1.218 . S
C7 O0 1.275 . S
C7 O2 1.255 . S
C8 O9 1.258 . S
C8 O10 1.256 . S
O9 Cd1 2.381 . S
O9 C8 1.258 . S
O10 Cd1 2.378 . S
O10 C8 1.256 . S
O11 Cd12 2.300 . S
O11 C18 1.275 . S
Cd12 O11 2.300 . S
Cd12 O20 2.381 . S
Cd12 O21 2.378 . S
O13 Cd14 2.385 . S
O13 C18 1.255 . S
Cd14 O13 2.385 . S
Cd14 O15 2.317 . S
O15 Cd14 2.317 . S
O15 C16 1.232 . S
C16 O15 1.232 . S
C16 O17 1.218 . S
O17 C16 1.218 . S
C18 O11 1.275 . S
C18 O13 1.255 . S
C19 O20 1.258 . S
C19 O21 1.256 . S
O20 Cd12 2.381 . S
O20 C19 1.258 . S
O21 Cd12 2.378 . S
O21 C19 1.256 . S
O22 Cd23 2.300 . S
O22 C29 1.275 . S
Cd23 O22 2.300 . S
Cd23 O31 2.381 . S
Cd23 O32 2.378 . S
O24 Cd25 2.385 . S
O24 C29 1.255 . S
Cd25 O24 2.385 . S
Cd25 O26 2.317 . S
O26 Cd25 2.317 . S
O26 C27 1.232 . S
C27 O26 1.232 . S
C27 O28 1.218 . S
O28 C27 1.218 . S
C29 O22 1.275 . S
C29 O24 1.255 . S
C30 O31 1.258 . S
C30 O32 1.256 . S
O31 Cd23 2.381 . S
O31 C30 1.258 . S
O32 Cd23 2.378 . S
O32 C30 1.256 . S
O33 Cd34 2.300 . S
O33 C40 1.275 . S
Cd34 O33 2.300 . S
Cd34 O42 2.381 . S
Cd34 O43 2.378 . S
O35 Cd36 2.385 . S
O35 C40 1.255 . S
Cd36 O35 2.385 . S
Cd36 O37 2.317 . S
O37 Cd36 2.317 . S
O37 C38 1.232 . S
C38 O37 1.232 . S
C38 O39 1.218 . S
O39 C38 1.218 . S
C40 O33 1.275 . S
C40 O35 1.255 . S
C41 O42 1.258 . S
C41 O43 1.256 . S
O42 Cd34 2.381 . S
O42 C41 1.258 . S
O43 Cd34 2.378 . S
O43 C41 1.256 . S
O44 Cd45 2.300 . S
O44 C51 1.275 . S
Cd45 O44 2.300 . S
Cd45 O53 2.381 . S
Cd45 O54 2.378 . S
O46 Cd47 2.385 . S
O46 C51 1.255 . S
Cd47 O46 2.385 . S
Cd47 O48 2.317 . S
O48 Cd47 2.317 . S
O48 C49 1.232 . S
C49 O48 1.232 . S
C49 O50 1.218 . S
O50 C49 1.218 . S
C51 O44 1.275 . S
C51 O46 1.255 . S
C52 O53 1.258 . S
C52 O54 1.256 . S
O53 Cd45 2.381 . S
O53 C52 1.258 . S
O54 Cd45 2.378 . S
O54 C52 1.256 . S
O55 Cd56 2.300 . S
O55 C62 1.275 . S
Cd56 O55 2.300 . S
Cd56 O64 2.381 . S
Cd56 O65 2.378 . S
O57 Cd58 2.385 . S
O57 C62 1.255 . S
Cd58 O57 2.385 . S
Cd58 O59 2.317 . S
O59 Cd58 2.317 . S
O59 C60 1.232 . S
C60 O59 1.232 . S
C60 O61 1.218 . S
O61 C60 1.218 . S
C62 O55 1.275 . S
C62 O57 1.255 . S
C63 O64 1.258 . S
C63 O65 1.256 . S
O64 Cd56 2.381 . S
O64 C63 1.258 . S
O65 Cd56 2.378 . S
O65 C63 1.256 . S
O66 Cd67 2.300 . S
O66 C73 1.275 . S
Cd67 O66 2.300 . S
Cd67 O75 2.381 . S
Cd67 O76 2.378 . S
O68 Cd69 2.385 . S
O68 C73 1.255 . S
Cd69 O68 2.385 . S
Cd69 O70 2.317 . S
O70 Cd69 2.317 . S
O70 C71 1.232 . S
C71 O70 1.232 . S
C71 O72 1.218 . S
O72 C71 1.218 . S
C73 O66 1.275 . S
C73 O68 1.255 . S
C74 O75 1.258 . S
C74 O76 1.256 . S
O75 Cd67 2.381 . S
O75 C74 1.258 . S
O76 Cd67 2.378 . S
O76 C74 1.256 . S
O77 Cd78 2.300 . S
O77 C84 1.275 . S
Cd78 O77 2.300 . S
Cd78 O86 2.381 . S
Cd78 O87 2.378 . S
O79 Cd80 2.385 . S
O79 C84 1.255 . S
Cd80 O79 2.385 . S
Cd80 O81 2.317 . S
O81 Cd80 2.317 . S
O81 C82 1.232 . S
C82 O81 1.232 . S
C82 O83 1.218 . S
O83 C82 1.218 . S
C84 O77 1.275 . S
C84 O79 1.255 . S
C85 O86 1.258 . S
C85 O87 1.256 . S
O86 Cd78 2.381 . S
O86 C85 1.258 . S
O87 Cd78 2.378 . S
O87 C85 1.256 . S
O88 Cd89 2.300 . S
O88 C95 1.275 . S
Cd89 O88 2.300 . S
Cd89 O97 2.381 . S
Cd89 O98 2.378 . S
O90 Cd91 2.385 . S
O90 C95 1.255 . S
Cd91 O90 2.385 . S
Cd91 O92 2.317 . S
O92 Cd91 2.317 . S
O92 C93 1.232 . S
C93 O92 1.232 . S
C93 O94 1.218 . S
O94 C93 1.218 . S
C95 O88 1.275 . S
C95 O90 1.255 . S
C96 O97 1.258 . S
C96 O98 1.256 . S
O97 Cd89 2.381 . S
O97 C96 1.258 . S
O98 Cd89 2.378 . S
O98 C96 1.256 . S
O99 Cd100 2.300 . S
O99 C106 1.275 . S
Cd100 O99 2.300 . S
Cd100 O108 2.381 . S
Cd100 O109 2.378 . S
O101 Cd102 2.385 . S
O101 C106 1.255 . S
Cd102 O101 2.385 . S
Cd102 O103 2.317 . S
O103 Cd102 2.317 . S
O103 C104 1.232 . S
C104 O103 1.232 . S
C104 O105 1.218 . S
O105 C104 1.218 . S
C106 O99 1.275 . S
C106 O101 1.255 . S
C107 O108 1.258 . S
C107 O109 1.256 . S
O108 Cd100 2.381 . S
O108 C107 1.258 . S
O109 Cd100 2.378 . S
O109 C107 1.256 . S
O110 Cd111 2.300 . S
O110 C117 1.275 . S
Cd111 O110 2.300 . S
Cd111 O119 2.381 . S
Cd111 O120 2.378 . S
O112 Cd113 2.385 . S
O112 C117 1.255 . S
Cd113 O112 2.385 . S
Cd113 O114 2.317 . S
O114 Cd113 2.317 . S
O114 C115 1.232 . S
C115 O114 1.232 . S
C115 O116 1.218 . S
O116 C115 1.218 . S
C117 O110 1.275 . S
C117 O112 1.255 . S
C118 O119 1.258 . S
C118 O120 1.256 . S
O119 Cd111 2.381 . S
O119 C118 1.258 . S
O120 Cd111 2.378 . S
O120 C118 1.256 . S
O121 Cd122 2.300 . S
O121 C128 1.275 . S
Cd122 O121 2.300 . S
Cd122 O130 2.381 . S
Cd122 O131 2.378 . S
O123 Cd124 2.385 . S
O123 C128 1.255 . S
Cd124 O123 2.385 . S
Cd124 O125 2.317 . S
O125 Cd124 2.317 . S
O125 C126 1.232 . S
C126 O125 1.232 . S
C126 O127 1.218 . S
O127 C126 1.218 . S
C128 O121 1.275 . S
C128 O123 1.255 . S
C129 O130 1.258 . S
C129 O131 1.256 . S
O130 Cd122 2.381 . S
O130 C129 1.258 . S
O131 Cd122 2.378 . S
O131 C129 1.256 . S
O132 Cd133 2.300 . S
O132 C139 1.275 . S
Cd133 O132 2.300 . S
Cd133 O141 2.381 . S
Cd133 O142 2.378 . S
O134 Cd135 2.385 . S
O134 C139 1.255 . S
Cd135 O134 2.385 . S
Cd135 O136 2.317 . S
O136 Cd135 2.317 . S
O136 C137 1.232 . S
C137 O136 1.232 . S
C137 O138 1.218 . S
O138 C137 1.218 . S
C139 O132 1.275 . S
C139 O134 1.255 . S
C140 O141 1.258 . S
C140 O142 1.256 . S
O141 Cd133 2.381 . S
O141 C140 1.258 . S
O142 Cd133 2.378 . S
O142 C140 1.256 . S
O143 Cd144 2.300 . S
O143 C150 1.275 . S
Cd144 O143 2.300 . S
Cd144 O152 2.381 . S
Cd144 O153 2.378 . S
O145 Cd146 2.385 . S
O145 C150 1.255 . S
Cd146 O145 2.385 . S
Cd146 O147 2.317 . S
O147 Cd146 2.317 . S
O147 C148 1.232 . S
C148 O147 1.232 . S
C148 O149 1.218 . S
O149 C148 1.218 . S
C150 O143 1.275 . S
C150 O145 1.255 . S
C151 O152 1.258 . S
C151 O153 1.256 . S
O152 Cd144 2.381 . S
O152 C151 1.258 . S
O153 Cd144 2.378 . S
O153 C151 1.256 . S
O154 Cd155 2.300 . S
O154 C161 1.275 . S
Cd155 O154 2.300 . S
Cd155 O163 2.381 . S
Cd155 O164 2.378 . S
O156 Cd157 2.385 . S
O156 C161 1.255 . S
Cd157 O156 2.385 . S
Cd157 O158 2.317 . S
O158 Cd157 2.317 . S
O158 C159 1.232 . S
C159 O158 1.232 . S
C159 O160 1.218 . S
O160 C159 1.218 . S
C161 O154 1.275 . S
C161 O156 1.255 . S
C162 O163 1.258 . S
C162 O164 1.256 . S
O163 Cd155 2.381 . S
O163 C162 1.258 . S
O164 Cd155 2.378 . S
O164 C162 1.256 . S
O165 Cd166 2.300 . S
O165 C172 1.275 . S
Cd166 O165 2.300 . S
Cd166 O174 2.381 . S
Cd166 O175 2.378 . S
O167 Cd168 2.385 . S
O167 C172 1.255 . S
Cd168 O167 2.385 . S
Cd168 O169 2.317 . S
O169 Cd168 2.317 . S
O169 C170 1.232 . S
C170 O169 1.232 . S
C170 O171 1.218 . S
O171 C170 1.218 . S
C172 O165 1.275 . S
C172 O167 1.255 . S
C173 O174 1.258 . S
C173 O175 1.256 . S
O174 Cd166 2.381 . S
O174 C173 1.258 . S
O175 Cd166 2.378 . S
O175 C173 1.256 . S
O176 Cd177 2.300 . S
O176 C183 1.275 . S
Cd177 O176 2.300 . S
Cd177 O185 2.381 . S
Cd177 O186 2.378 . S
O178 Cd179 2.385 . S
O178 C183 1.255 . S
Cd179 O178 2.385 . S
Cd179 O180 2.317 . S
O180 Cd179 2.317 . S
O180 C181 1.232 . S
C181 O180 1.232 . S
C181 O182 1.218 . S
O182 C181 1.218 . S
C183 O176 1.275 . S
C183 O178 1.255 . S
C184 O185 1.258 . S
C184 O186 1.256 . S
O185 Cd177 2.381 . S
O185 C184 1.258 . S
O186 Cd177 2.378 . S
O186 C184 1.256 . S
O187 Cd188 2.300 . S
O187 C194 1.275 . S
Cd188 O187 2.300 . S
Cd188 O196 2.381 . S
Cd188 O197 2.378 . S
O189 Cd190 2.385 . S
O189 C194 1.255 . S
Cd190 O189 2.385 . S
Cd190 O191 2.317 . S
O191 Cd190 2.317 . S
O191 C192 1.232 . S
C192 O191 1.232 . S
C192 O193 1.218 . S
O193 C192 1.218 . S
C194 O187 1.275 . S
C194 O189 1.255 . S
C195 O196 1.258 . S
C195 O197 1.256 . S
O196 Cd188 2.381 . S
O196 C195 1.258 . S
O197 Cd188 2.378 . S
O197 C195 1.256 . S
O198 Cd199 2.300 . S
O198 C205 1.275 . S
Cd199 O198 2.300 . S
Cd199 O207 2.381 . S
Cd199 O208 2.378 . S
O200 Cd201 2.385 . S
O200 C205 1.255 . S
Cd201 O200 2.385 . S
Cd201 O202 2.317 . S
O202 Cd201 2.317 . S
O202 C203 1.232 . S
C203 O202 1.232 . S
C203 O204 1.218 . S
O204 C203 1.218 . S
C205 O198 1.275 . S
C205 O200 1.255 . S
C206 O207 1.258 . S
C206 O208 1.256 . S
O207 Cd199 2.381 . S
O207 C206 1.258 . S
O208 Cd199 2.378 . S
O208 C206 1.256 . S
O209 Cd210 2.300 . S
O209 C216 1.275 . S
Cd210 O209 2.300 . S
Cd210 O218 2.381 . S
Cd210 O219 2.378 . S
O211 Cd212 2.385 . S
O211 C216 1.255 . S
Cd212 O211 2.385 . S
Cd212 O213 2.317 . S
O213 Cd212 2.317 . S
O213 C214 1.232 . S
C214 O213 1.232 . S
C214 O215 1.218 . S
O215 C214 1.218 . S
C216 O209 1.275 . S
C216 O211 1.255 . S
C217 O218 1.258 . S
C217 O219 1.256 . S
O218 Cd210 2.381 . S
O218 C217 1.258 . S
O219 Cd210 2.378 . S
O219 C217 1.256 . S
O220 Cd221 2.300 . S
O220 C227 1.275 . S
Cd221 O220 2.300 . S
Cd221 O229 2.381 . S
Cd221 O230 2.378 . S
O222 Cd223 2.385 . S
O222 C227 1.255 . S
Cd223 O222 2.385 . S
Cd223 O224 2.317 . S
O224 Cd223 2.317 . S
O224 C225 1.232 . S
C225 O224 1.232 . S
C225 O226 1.218 . S
O226 C225 1.218 . S
C227 O220 1.275 . S
C227 O222 1.255 . S
C228 O229 1.258 . S
C228 O230 1.256 . S
O229 Cd221 2.381 . S
O229 C228 1.258 . S
O230 Cd221 2.378 . S
O230 C228 1.256 . S
O231 Cd232 2.300 . S
O231 C238 1.275 . S
Cd232 O231 2.300 . S
Cd232 O240 2.381 . S
Cd232 O241 2.378 . S
O233 Cd234 2.385 . S
O233 C238 1.255 . S
Cd234 O233 2.385 . S
Cd234 O235 2.317 . S
O235 Cd234 2.317 . S
O235 C236 1.232 . S
C236 O235 1.232 . S
C236 O237 1.218 . S
O237 C236 1.218 . S
C238 O231 1.275 . S
C238 O233 1.255 . S
C239 O240 1.258 . S
C239 O241 1.256 . S
O240 Cd232 2.381 . S
O240 C239 1.258 . S
O241 Cd232 2.378 . S
O241 C239 1.256 . S
O242 Cd243 2.300 . S
O242 C249 1.275 . S
Cd243 O242 2.300 . S
Cd243 O251 2.381 . S
Cd243 O252 2.378 . S
O244 Cd245 2.385 . S
O244 C249 1.255 . S
Cd245 O244 2.385 . S
Cd245 O246 2.317 . S
O246 Cd245 2.317 . S
O246 C247 1.232 . S
C247 O246 1.232 . S
C247 O248 1.218 . S
O248 C247 1.218 . S
C249 O242 1.275 . S
C249 O244 1.255 . S
C250 O251 1.258 . S
C250 O252 1.256 . S
O251 Cd243 2.381 . S
O251 C250 1.258 . S
O252 Cd243 2.378 . S
O252 C250 1.256 . S
O253 Cd254 2.300 . S
O253 C260 1.275 . S
Cd254 O253 2.300 . S
Cd254 O262 2.381 . S
Cd254 O263 2.378 . S
O255 Cd256 2.385 . S
O255 C260 1.255 . S
Cd256 O255 2.385 . S
Cd256 O257 2.317 . S
O257 Cd256 2.317 . S
O257 C258 1.232 . S
C258 O257 1.232 . S
C258 O259 1.218 . S
O259 C258 1.218 . S
C260 O253 1.275 . S
C260 O255 1.255 . S
C261 O262 1.258 . S
C261 O263 1.256 . S
O262 Cd254 2.381 . S
O262 C261 1.258 . S
O263 Cd254 2.378 . S
O263 C261 1.256 . S
O264 Cd265 2.300 . S
O264 C271 1.275 . S
Cd265 O264 2.300 . S
Cd265 O273 2.381 . S
Cd265 O274 2.378 . S
O266 Cd267 2.385 . S
O266 C271 1.255 . S
Cd267 O266 2.385 . S
Cd267 O268 2.317 . S
O268 Cd267 2.317 . S
O268 C269 1.232 . S
C269 O268 1.232 . S
C269 O270 1.218 . S
O270 C269 1.218 . S
C271 O264 1.275 . S
C271 O266 1.255 . S
C272 O273 1.258 . S
C272 O274 1.256 . S
O273 Cd265 2.381 . S
O273 C272 1.258 . S
O274 Cd265 2.378 . S
O274 C272 1.256 . S
O275 Cd276 2.300 . S
O275 C282 1.275 . S
Cd276 O275 2.300 . S
Cd276 O284 2.381 . S
Cd276 O285 2.378 . S
O277 Cd278 2.385 . S
O277 C282 1.255 . S
Cd278 O277 2.385 . S
Cd278 O279 2.317 . S
O279 Cd278 2.317 . S
O279 C280 1.232 . S
C280 O279 1.232 . S
C280 O281 1.218 . S
O281 C280 1.218 . S
C282 O275 1.275 . S
C282 O277 1.255 . S
C283 O284 1.258 . S
C283 O285 1.256 . S
O284 Cd276 2.381 . S
O284 C283 1.258 . S
O285 Cd276 2.378 . S
O285 C283 1.256 . S
O286 Cd287 2.300 . S
O286 C293 1.275 . S
Cd287 O286 2.300 . S
Cd287 O295 2.381 . S
Cd287 O296 2.378 . S
O288 Cd289 2.385 . S
O288 C293 1.255 . S
Cd289 O288 2.385 . S
Cd289 O290 2.317 . S
O290 Cd289 2.317 . S
O290 C291 1.232 . S
C291 O290 1.232 . S
C291 O292 1.218 . S
O292 C291 1.218 . S
C293 O286 1.275 . S
C293 O288 1.255 . S
C294 O295 1.258 . S
C294 O296 1.256 . S
O295 Cd287 2.381 . S
O295 C294 1.258 . S
O296 Cd287 2.378 . S
O296 C294 1.256 . S
O297 Cd298 2.300 . S
O297 C304 1.275 . S
Cd298 O297 2.300 . S
Cd298 O306 2.381 . S
Cd298 O307 2.378 . S
O299 Cd300 2.385 . S
O299 C304 1.255 . S
Cd300 O299 2.385 . S
Cd300 O301 2.317 . S
O301 Cd300 2.317 . S
O301 C302 1.232 . S
C302 O301 1.232 . S
C302 O303 1.218 . S
O303 C302 1.218 . S
C304 O297 1.275 . S
C304 O299 1.255 . S
C305 O306 1.258 . S
C305 O307 1.256 . S
O306 Cd298 2.381 . S
O306 C305 1.258 . S
O307 Cd298 2.378 . S
O307 C305 1.256 . S
O308 Cd309 2.300 . S
O308 C315 1.275 . S
Cd309 O308 2.300 . S
Cd309 O317 2.381 . S
Cd309 O318 2.378 . S
O310 Cd311 2.385 . S
O310 C315 1.255 . S
Cd311 O310 2.385 . S
Cd311 O312 2.317 . S
O312 Cd311 2.317 . S
O312 C313 1.232 . S
C313 O312 1.232 . S
C313 O314 1.218 . S
O314 C313 1.218 . S
C315 O308 1.275 . S
C315 O310 1.255 . S
C316 O317 1.258 . S
C316 O318 1.256 . S
O317 Cd309 2.381 . S
O317 C316 1.258 . S
O318 Cd309 2.378 . S
O318 C316 1.256 . S
O319 Cd320 2.300 . S
O319 C326 1.275 . S
Cd320 O319 2.300 . S
Cd320 O328 2.381 . S
Cd320 O329 2.378 . S
O321 Cd322 2.385 . S
O321 C326 1.255 . S
Cd322 O321 2.385 . S
Cd322 O323 2.317 . S
O323 Cd322 2.317 . S
O323 C324 1.232 . S
C324 O323 1.232 . S
C324 O325 1.218 . S
O325 C324 1.218 . S
C326 O319 1.275 . S
C326 O321 1.255 . S
C327 O328 1.258 . S
C327 O329 1.256 . S
O328 Cd320 2.381 . S
O328 C327 1.258 . S
O329 Cd320 2.378 . S
O329 C327 1.256 . S
O330 Cd331 2.300 . S
O330 C337 1.275 . S
Cd331 O330 2.300 . S
Cd331 O339 2.381 . S
Cd331 O340 2.378 . S
O332 Cd333 2.385 . S
O332 C337 1.255 . S
Cd333 O332 2.385 . S
Cd333 O334 2.317 . S
O334 Cd333 2.317 . S
O334 C335 1.232 . S
C335 O334 1.232 . S
C335 O336 1.218 . S
O336 C335 1.218 . S
C337 O330 1.275 . S
C337 O332 1.255 . S
C338 O339 1.258 . S
C338 O340 1.256 . S
O339 Cd331 2.381 . S
O339 C338 1.258 . S
O340 Cd331 2.378 . S
O340 C338 1.256 . S
O341 Cd342 2.300 . S
O341 C348 1.275 . S
Cd342 O341 2.300 . S
Cd342 O350 2.381 . S
Cd342 O351 2.378 . S
O343 Cd344 2.385 . S
O343 C348 1.255 . S
Cd344 O343 2.385 . S
Cd344 O345 2.317 . S
O345 Cd344 2.317 . S
O345 C346 1.232 . S
C346 O345 1.232 . S
C346 O347 1.218 . S
O347 C346 1.218 . S
C348 O341 1.275 . S
C348 O343 1.255 . S
C349 O350 1.258 . S
C349 O351 1.256 . S
O350 Cd342 2.381 . S
O350 C349 1.258 . S
O351 Cd342 2.378 . S
O351 C349 1.256 . S
H352 C358 0.930 . S
H353 C361 0.931 . S
H354 C363 0.931 . S
H355 C365 0.930 . S
H356 C367 0.930 . S
H357 C369 0.931 . S
C358 H352 0.930 . S
C358 C359 1.380 1_556 S
C358 C360 1.394 1_556 S
C359 C358 1.380 1_554 S
C359 C363 1.382 . S
C360 C358 1.394 1_554 S
C360 C361 1.400 . S
C361 H353 0.931 . S
C361 C360 1.400 . S
C361 C362 1.375 . S
C362 C361 1.375 . S
C362 C363 1.415 . S
C362 C364 1.501 . S
C363 H354 0.931 . S
C363 C359 1.382 . S
C363 C362 1.415 . S
C364 C362 1.501 . S
C364 C365 1.384 . S
C364 C369 1.408 . S
C365 H355 0.930 . S
C365 C364 1.384 . S
C365 C366 1.389 . S
C366 C365 1.389 . S
C366 C367 1.405 . S
C367 H356 0.930 . S
C367 C366 1.405 . S
C367 C368 1.364 . S
C368 C367 1.364 . S
C368 C369 1.400 . S
C369 H357 0.931 . S
C369 C364 1.408 . S
C369 C368 1.400 . S
H370 C376 0.930 . S
H371 C379 0.931 . S
H372 C381 0.931 . S
H373 C383 0.930 . S
H374 C385 0.930 . S
H375 C387 0.931 . S
C376 H370 0.930 . S
C376 C377 1.380 . S
C376 C378 1.394 . S
C377 C376 1.380 . S
C377 C381 1.382 . S
C378 C376 1.394 . S
C378 C379 1.400 . S
C379 H371 0.931 . S
C379 C378 1.400 . S
C379 C380 1.375 . S
C380 C379 1.375 . S
C380 C381 1.415 . S
C380 C382 1.501 1_554 S
C381 H372 0.931 . S
C381 C377 1.382 . S
C381 C380 1.415 . S
C382 C380 1.501 1_556 S
C382 C383 1.384 . S
C382 C387 1.408 . S
C383 H373 0.930 . S
C383 C382 1.384 . S
C383 C384 1.389 . S
C384 C383 1.389 . S
C384 C385 1.405 . S
C385 H374 0.930 . S
C385 C384 1.405 . S
C385 C386 1.364 . S
C386 C385 1.364 . S
C386 C387 1.400 . S
C387 H375 0.931 . S
C387 C382 1.408 . S
C387 C386 1.400 . S
H388 C394 0.930 . S
H389 C397 0.931 . S
H390 C399 0.931 . S
H391 C401 0.930 . S
H392 C403 0.930 . S
H393 C405 0.931 . S
C394 H388 0.930 . S
C394 C395 1.380 1_556 S
C394 C396 1.394 1_556 S
C395 C394 1.380 1_554 S
C395 C399 1.382 . S
C396 C394 1.394 1_554 S
C396 C397 1.400 . S
C397 H389 0.931 . S
C397 C396 1.400 . S
C397 C398 1.375 . S
C398 C397 1.375 . S
C398 C399 1.415 . S
C398 C400 1.501 . S
C399 H390 0.931 . S
C399 C395 1.382 . S
C399 C398 1.415 . S
C400 C398 1.501 . S
C400 C401 1.384 . S
C400 C405 1.408 . S
C401 H391 0.930 . S
C401 C400 1.384 . S
C401 C402 1.389 . S
C402 C401 1.389 . S
C402 C403 1.405 . S
C403 H392 0.930 . S
C403 C402 1.405 . S
C403 C404 1.364 . S
C404 C403 1.364 . S
C404 C405 1.400 . S
C405 H393 0.931 . S
C405 C400 1.408 . S
C405 C404 1.400 . S
H406 C412 0.930 . S
H407 C415 0.931 . S
H408 C417 0.931 . S
H409 C419 0.930 . S
H410 C421 0.930 . S
H411 C423 0.931 . S
C412 H406 0.930 . S
C412 C413 1.380 . S
C412 C414 1.394 . S
C413 C412 1.380 . S
C413 C417 1.382 . S
C414 C412 1.394 . S
C414 C415 1.400 . S
C415 H407 0.931 . S
C415 C414 1.400 . S
C415 C416 1.375 . S
C416 C415 1.375 . S
C416 C417 1.415 . S
C416 C418 1.501 1_554 S
C417 H408 0.931 . S
C417 C413 1.382 . S
C417 C416 1.415 . S
C418 C416 1.501 1_556 S
C418 C419 1.384 . S
C418 C423 1.408 . S
C419 H409 0.930 . S
C419 C418 1.384 . S
C419 C420 1.389 . S
C420 C419 1.389 . S
C420 C421 1.405 . S
C421 H410 0.930 . S
C421 C420 1.405 . S
C421 C422 1.364 . S
C422 C421 1.364 . S
C422 C423 1.400 . S
C423 H411 0.931 . S
C423 C418 1.408 . S
C423 C422 1.400 . S
H424 C430 0.930 . S
H425 C433 0.931 . S
H426 C435 0.931 . S
H427 C437 0.930 . S
H428 C439 0.930 . S
H429 C441 0.931 . S
C430 H424 0.930 . S
C430 C431 1.380 . S
C430 C432 1.394 . S
C431 C430 1.380 . S
C431 C435 1.382 . S
C432 C430 1.394 . S
C432 C433 1.400 . S
C433 H425 0.931 . S
C433 C432 1.400 . S
C433 C434 1.375 . S
C434 C433 1.375 . S
C434 C435 1.415 . S
C434 C436 1.501 1_455 S
C435 H426 0.931 . S
C435 C431 1.382 . S
C435 C434 1.415 . S
C436 C434 1.501 1_655 S
C436 C437 1.384 . S
C436 C441 1.408 . S
C437 H427 0.930 . S
C437 C436 1.384 . S
C437 C438 1.389 . S
C438 C437 1.389 . S
C438 C439 1.405 . S
C439 H428 0.930 . S
C439 C438 1.405 . S
C439 C440 1.364 . S
C440 C439 1.364 . S
C440 C441 1.400 . S
C441 H429 0.931 . S
C441 C436 1.408 . S
C441 C440 1.400 . S
H442 C448 0.930 . S
H443 C451 0.931 . S
H444 C453 0.931 . S
H445 C455 0.930 . S
H446 C457 0.930 . S
H447 C459 0.931 . S
C448 H442 0.930 . S
C448 C449 1.380 . S
C448 C450 1.394 . S
C449 C448 1.380 . S
C449 C453 1.382 . S
C450 C448 1.394 . S
C450 C451 1.400 . S
C451 H443 0.931 . S
C451 C450 1.400 . S
C451 C452 1.375 . S
C452 C451 1.375 . S
C452 C453 1.415 . S
C452 C454 1.501 1_565 S
C453 H444 0.931 . S
C453 C449 1.382 . S
C453 C452 1.415 . S
C454 C452 1.501 1_545 S
C454 C455 1.384 . S
C454 C459 1.408 . S
C455 H445 0.930 . S
C455 C454 1.384 . S
C455 C456 1.389 . S
C456 C455 1.389 . S
C456 C457 1.405 . S
C457 H446 0.930 . S
C457 C456 1.405 . S
C457 C458 1.364 . S
C458 C457 1.364 . S
C458 C459 1.400 . S
C459 H447 0.931 . S
C459 C454 1.408 . S
C459 C458 1.400 . S
H460 C466 0.930 . S
H461 C469 0.931 . S
H462 C471 0.931 . S
H463 C473 0.930 . S
H464 C475 0.930 . S
H465 C477 0.931 . S
C466 H460 0.930 . S
C466 C467 1.380 . S
C466 C468 1.394 . S
C467 C466 1.380 . S
C467 C471 1.382 . S
C468 C466 1.394 . S
C468 C469 1.400 . S
C469 H461 0.931 . S
C469 C468 1.400 . S
C469 C470 1.375 . S
C470 C469 1.375 . S
C470 C471 1.415 . S
C470 C472 1.501 . S
C471 H462 0.931 . S
C471 C467 1.382 . S
C471 C470 1.415 . S
C472 C470 1.501 . S
C472 C473 1.384 . S
C472 C477 1.408 . S
C473 H463 0.930 . S
C473 C472 1.384 . S
C473 C474 1.389 . S
C474 C473 1.389 . S
C474 C475 1.405 . S
C475 H464 0.930 . S
C475 C474 1.405 . S
C475 C476 1.364 . S
C476 C475 1.364 . S
C476 C477 1.400 . S
C477 H465 0.931 . S
C477 C472 1.408 . S
C477 C476 1.400 . S
H478 C484 0.930 . S
H479 C487 0.931 . S
H480 C489 0.931 . S
H481 C491 0.930 . S
H482 C493 0.930 . S
H483 C495 0.931 . S
C484 H478 0.930 . S
C484 C485 1.380 . S
C484 C486 1.394 . S
C485 C484 1.380 . S
C485 C489 1.382 . S
C486 C484 1.394 . S
C486 C487 1.400 . S
C487 H479 0.931 . S
C487 C486 1.400 . S
C487 C488 1.375 . S
C488 C487 1.375 . S
C488 C489 1.415 . S
C488 C490 1.501 . S
C489 H480 0.931 . S
C489 C485 1.382 . S
C489 C488 1.415 . S
C490 C488 1.501 . S
C490 C491 1.384 . S
C490 C495 1.408 1_545 S
C491 H481 0.930 . S
C491 C490 1.384 . S
C491 C492 1.389 1_545 S
C492 C491 1.389 1_565 S
C492 C493 1.405 . S
C493 H482 0.930 . S
C493 C492 1.405 . S
C493 C494 1.364 . S
C494 C493 1.364 . S
C494 C495 1.400 . S
C495 H483 0.931 . S
C495 C490 1.408 1_565 S
C495 C494 1.400 . S
H496 C502 0.930 . S
H497 C505 0.931 . S
H498 C507 0.931 . S
H499 C509 0.930 . S
H500 C511 0.930 . S
H501 C513 0.931 . S
C502 H496 0.930 . S
C502 C503 1.380 . S
C502 C504 1.394 . S
C503 C502 1.380 . S
C503 C507 1.382 . S
C504 C502 1.394 . S
C504 C505 1.400 . S
C505 H497 0.931 . S
C505 C504 1.400 . S
C505 C506 1.375 . S
C506 C505 1.375 . S
C506 C507 1.415 . S
C506 C508 1.501 1_455 S
C507 H498 0.931 . S
C507 C503 1.382 . S
C507 C506 1.415 . S
C508 C506 1.501 1_655 S
C508 C509 1.384 . S
C508 C513 1.408 . S
C509 H499 0.930 . S
C509 C508 1.384 . S
C509 C510 1.389 . S
C510 C509 1.389 . S
C510 C511 1.405 . S
C511 H500 0.930 . S
C511 C510 1.405 . S
C511 C512 1.364 . S
C512 C511 1.364 . S
C512 C513 1.400 . S
C513 H501 0.931 . S
C513 C508 1.408 . S
C513 C512 1.400 . S
H514 C520 0.930 . S
H515 C523 0.931 . S
H516 C525 0.931 . S
H517 C527 0.930 . S
H518 C529 0.930 . S
H519 C531 0.931 . S
C520 H514 0.930 . S
C520 C521 1.380 . S
C520 C522 1.394 . S
C521 C520 1.380 . S
C521 C525 1.382 . S
C522 C520 1.394 . S
C522 C523 1.400 . S
C523 H515 0.931 . S
C523 C522 1.400 . S
C523 C524 1.375 . S
C524 C523 1.375 . S
C524 C525 1.415 . S
C524 C526 1.501 1_565 S
C525 H516 0.931 . S
C525 C521 1.382 . S
C525 C524 1.415 . S
C526 C524 1.501 1_545 S
C526 C527 1.384 . S
C526 C531 1.408 . S
C527 H517 0.930 . S
C527 C526 1.384 . S
C527 C528 1.389 . S
C528 C527 1.389 . S
C528 C529 1.405 . S
C529 H518 0.930 . S
C529 C528 1.405 . S
C529 C530 1.364 . S
C530 C529 1.364 . S
C530 C531 1.400 . S
C531 H519 0.931 . S
C531 C526 1.408 . S
C531 C530 1.400 . S
H532 C538 0.930 . S
H533 C541 0.931 . S
H534 C543 0.931 . S
H535 C545 0.930 . S
H536 C547 0.930 . S
H537 C549 0.931 . S
C538 H532 0.930 . S
C538 C539 1.380 . S
C538 C540 1.394 . S
C539 C538 1.380 . S
C539 C543 1.382 . S
C540 C538 1.394 . S
C540 C541 1.400 . S
C541 H533 0.931 . S
C541 C540 1.400 . S
C541 C542 1.375 . S
C542 C541 1.375 . S
C542 C543 1.415 . S
C542 C544 1.501 . S
C543 H534 0.931 . S
C543 C539 1.382 . S
C543 C542 1.415 . S
C544 C542 1.501 . S
C544 C545 1.384 . S
C544 C549 1.408 . S
C545 H535 0.930 . S
C545 C544 1.384 . S
C545 C546 1.389 . S
C546 C545 1.389 . S
C546 C547 1.405 . S
C547 H536 0.930 . S
C547 C546 1.405 . S
C547 C548 1.364 . S
C548 C547 1.364 . S
C548 C549 1.400 . S
C549 H537 0.931 . S
C549 C544 1.408 . S
C549 C548 1.400 . S
H550 C556 0.930 . S
H551 C559 0.931 . S
H552 C561 0.931 . S
H553 C563 0.930 . S
H554 C565 0.930 . S
H555 C567 0.931 . S
C556 H550 0.930 . S
C556 C557 1.380 . S
C556 C558 1.394 . S
C557 C556 1.380 . S
C557 C561 1.382 . S
C558 C556 1.394 . S
C558 C559 1.400 . S
C559 H551 0.931 . S
C559 C558 1.400 . S
C559 C560 1.375 . S
C560 C559 1.375 . S
C560 C561 1.415 . S
C560 C562 1.501 . S
C561 H552 0.931 . S
C561 C557 1.382 . S
C561 C560 1.415 . S
C562 C560 1.501 . S
C562 C563 1.384 . S
C562 C567 1.408 1_545 S
C563 H553 0.930 . S
C563 C562 1.384 . S
C563 C564 1.389 1_545 S
C564 C563 1.389 1_565 S
C564 C565 1.405 . S
C565 H554 0.930 . S
C565 C564 1.405 . S
C565 C566 1.364 . S
C566 C565 1.364 . S
C566 C567 1.400 . S
C567 H555 0.931 . S
C567 C562 1.408 1_565 S
C567 C566 1.400 . S
H568 C574 0.930 . S
H569 C577 0.931 . S
H570 C579 0.931 . S
H571 C581 0.930 . S
H572 C583 0.930 . S
H573 C585 0.931 . S
C574 H568 0.930 . S
C574 C575 1.380 . S
C574 C576 1.394 . S
C575 C574 1.380 . S
C575 C579 1.382 . S
C576 C574 1.394 . S
C576 C577 1.400 . S
C577 H569 0.931 . S
C577 C576 1.400 . S
C577 C578 1.375 . S
C578 C577 1.375 . S
C578 C579 1.415 . S
C578 C580 1.501 . S
C579 H570 0.931 . S
C579 C575 1.382 . S
C579 C578 1.415 . S
C580 C578 1.501 . S
C580 C581 1.384 . S
C580 C585 1.408 . S
C581 H571 0.930 . S
C581 C580 1.384 . S
C581 C582 1.389 . S
C582 C581 1.389 . S
C582 C583 1.405 . S
C583 H572 0.930 . S
C583 C582 1.405 . S
C583 C584 1.364 . S
C584 C583 1.364 . S
C584 C585 1.400 . S
C585 H573 0.931 . S
C585 C580 1.408 . S
C585 C584 1.400 . S
H586 C592 0.930 . S
H587 C595 0.931 . S
H588 C597 0.931 . S
H589 C599 0.930 . S
H590 C601 0.930 . S
H591 C603 0.931 . S
C592 H586 0.930 . S
C592 C593 1.380 . S
C592 C594 1.394 . S
C593 C592 1.380 . S
C593 C597 1.382 . S
C594 C592 1.394 . S
C594 C595 1.400 . S
C595 H587 0.931 . S
C595 C594 1.400 . S
C595 C596 1.375 . S
C596 C595 1.375 . S
C596 C597 1.415 . S
C596 C598 1.501 . S
C597 H588 0.931 . S
C597 C593 1.382 . S
C597 C596 1.415 . S
C598 C596 1.501 . S
C598 C599 1.384 . S
C598 C603 1.408 . S
C599 H589 0.930 . S
C599 C598 1.384 . S
C599 C600 1.389 . S
C600 C599 1.389 . S
C600 C601 1.405 . S
C601 H590 0.930 . S
C601 C600 1.405 . S
C601 C602 1.364 . S
C602 C601 1.364 . S
C602 C603 1.400 . S
C603 H591 0.931 . S
C603 C598 1.408 . S
C603 C602 1.400 . S
H604 C610 0.930 . S
H605 C613 0.931 . S
H606 C615 0.931 . S
H607 C617 0.930 . S
H608 C619 0.930 . S
H609 C621 0.931 . S
C610 H604 0.930 . S
C610 C611 1.380 . S
C610 C612 1.394 . S
C611 C610 1.380 . S
C611 C615 1.382 . S
C612 C610 1.394 . S
C612 C613 1.400 . S
C613 H605 0.931 . S
C613 C612 1.400 . S
C613 C614 1.375 . S
C614 C613 1.375 . S
C614 C615 1.415 . S
C614 C616 1.501 . S
C615 H606 0.931 . S
C615 C611 1.382 . S
C615 C614 1.415 . S
C616 C614 1.501 . S
C616 C617 1.384 . S
C616 C621 1.408 . S
C617 H607 0.930 . S
C617 C616 1.384 . S
C617 C618 1.389 . S
C618 C617 1.389 . S
C618 C619 1.405 . S
C619 H608 0.930 . S
C619 C618 1.405 . S
C619 C620 1.364 . S
C620 C619 1.364 . S
C620 C621 1.400 . S
C621 H609 0.931 . S
C621 C616 1.408 . S
C621 C620 1.400 . S
H622 C628 0.930 . S
H623 C631 0.931 . S
H624 C633 0.931 . S
H625 C635 0.930 . S
H626 C637 0.930 . S
H627 C639 0.931 . S
C628 H622 0.930 . S
C628 C629 1.380 . S
C628 C630 1.394 . S
C629 C628 1.380 . S
C629 C633 1.382 . S
C630 C628 1.394 . S
C630 C631 1.400 . S
C631 H623 0.931 . S
C631 C630 1.400 . S
C631 C632 1.375 . S
C632 C631 1.375 . S
C632 C633 1.415 . S
C632 C634 1.501 . S
C633 H624 0.931 . S
C633 C629 1.382 . S
C633 C632 1.415 . S
C634 C632 1.501 . S
C634 C635 1.384 . S
C634 C639 1.408 . S
C635 H625 0.930 . S
C635 C634 1.384 . S
C635 C636 1.389 . S
C636 C635 1.389 . S
C636 C637 1.405 . S
C637 H626 0.930 . S
C637 C636 1.405 . S
C637 C638 1.364 . S
C638 C637 1.364 . S
C638 C639 1.400 . S
C639 H627 0.931 . S
C639 C634 1.408 . S
C639 C638 1.400 . S
H640 C646 0.930 . S
H641 C649 0.931 . S
H642 C651 0.931 . S
H643 C653 0.930 . S
H644 C655 0.930 . S
H645 C657 0.931 . S
C646 H640 0.930 . S
C646 C647 1.380 . S
C646 C648 1.394 . S
C647 C646 1.380 . S
C647 C651 1.382 . S
C648 C646 1.394 . S
C648 C649 1.400 . S
C649 H641 0.931 . S
C649 C648 1.400 . S
C649 C650 1.375 . S
C650 C649 1.375 . S
C650 C651 1.415 . S
C650 C652 1.501 . S
C651 H642 0.931 . S
C651 C647 1.382 . S
C651 C650 1.415 . S
C652 C650 1.501 . S
C652 C653 1.384 . S
C652 C657 1.408 . S
C653 H643 0.930 . S
C653 C652 1.384 . S
C653 C654 1.389 . S
C654 C653 1.389 . S
C654 C655 1.405 . S
C655 H644 0.930 . S
C655 C654 1.405 . S
C655 C656 1.364 . S
C656 C655 1.364 . S
C656 C657 1.400 . S
C657 H645 0.931 . S
C657 C652 1.408 . S
C657 C656 1.400 . S
H658 C664 0.930 . S
H659 C667 0.931 . S
H660 C669 0.931 . S
H661 C671 0.930 . S
H662 C673 0.930 . S
H663 C675 0.931 . S
C664 H658 0.930 . S
C664 C665 1.380 . S
C664 C666 1.394 . S
C665 C664 1.380 . S
C665 C669 1.382 . S
C666 C664 1.394 . S
C666 C667 1.400 . S
C667 H659 0.931 . S
C667 C666 1.400 . S
C667 C668 1.375 . S
C668 C667 1.375 . S
C668 C669 1.415 . S
C668 C670 1.501 . S
C669 H660 0.931 . S
C669 C665 1.382 . S
C669 C668 1.415 . S
C670 C668 1.501 . S
C670 C671 1.384 . S
C670 C675 1.408 . S
C671 H661 0.930 . S
C671 C670 1.384 . S
C671 C672 1.389 . S
C672 C671 1.389 . S
C672 C673 1.405 . S
C673 H662 0.930 . S
C673 C672 1.405 . S
C673 C674 1.364 . S
C674 C673 1.364 . S
C674 C675 1.400 . S
C675 H663 0.931 . S
C675 C670 1.408 . S
C675 C674 1.400 . S
H676 C682 0.930 . S
H677 C685 0.931 . S
H678 C687 0.931 . S
H679 C689 0.930 . S
H680 C691 0.930 . S
H681 C693 0.931 . S
C682 H676 0.930 . S
C682 C683 1.380 . S
C682 C684 1.394 . S
C683 C682 1.380 . S
C683 C687 1.382 . S
C684 C682 1.394 . S
C684 C685 1.400 . S
C685 H677 0.931 . S
C685 C684 1.400 . S
C685 C686 1.375 . S
C686 C685 1.375 . S
C686 C687 1.415 . S
C686 C688 1.501 . S
C687 H678 0.931 . S
C687 C683 1.382 . S
C687 C686 1.415 . S
C688 C686 1.501 . S
C688 C689 1.384 . S
C688 C693 1.408 . S
C689 H679 0.930 . S
C689 C688 1.384 . S
C689 C690 1.389 . S
C690 C689 1.389 . S
C690 C691 1.405 . S
C691 H680 0.930 . S
C691 C690 1.405 . S
C691 C692 1.364 . S
C692 C691 1.364 . S
C692 C693 1.400 . S
C693 H681 0.931 . S
C693 C688 1.408 . S
C693 C692 1.400 . S
H694 C700 0.930 . S
H695 C703 0.931 . S
H696 C705 0.931 . S
H697 C707 0.930 . S
H698 C709 0.930 . S
H699 C711 0.931 . S
C700 H694 0.930 . S
C700 C701 1.380 . S
C700 C702 1.394 . S
C701 C700 1.380 . S
C701 C705 1.382 . S
C702 C700 1.394 . S
C702 C703 1.400 . S
C703 H695 0.931 . S
C703 C702 1.400 . S
C703 C704 1.375 . S
C704 C703 1.375 . S
C704 C705 1.415 . S
C704 C706 1.501 . S
C705 H696 0.931 . S
C705 C701 1.382 . S
C705 C704 1.415 . S
C706 C704 1.501 . S
C706 C707 1.384 . S
C706 C711 1.408 . S
C707 H697 0.930 . S
C707 C706 1.384 . S
C707 C708 1.389 . S
C708 C707 1.389 . S
C708 C709 1.405 . S
C709 H698 0.930 . S
C709 C708 1.405 . S
C709 C710 1.364 . S
C710 C709 1.364 . S
C710 C711 1.400 . S
C711 H699 0.931 . S
C711 C706 1.408 . S
C711 C710 1.400 . S
H712 C718 0.930 . S
H713 C721 0.931 . S
H714 C723 0.931 . S
H715 C725 0.930 . S
H716 C727 0.930 . S
H717 C729 0.931 . S
C718 H712 0.930 . S
C718 C719 1.380 . S
C718 C720 1.394 . S
C719 C718 1.380 . S
C719 C723 1.382 . S
C720 C718 1.394 . S
C720 C721 1.400 . S
C721 H713 0.931 . S
C721 C720 1.400 . S
C721 C722 1.375 . S
C722 C721 1.375 . S
C722 C723 1.415 . S
C722 C724 1.501 . S
C723 H714 0.931 . S
C723 C719 1.382 . S
C723 C722 1.415 . S
C724 C722 1.501 . S
C724 C725 1.384 . S
C724 C729 1.408 . S
C725 H715 0.930 . S
C725 C724 1.384 . S
C725 C726 1.389 . S
C726 C725 1.389 . S
C726 C727 1.405 . S
C727 H716 0.930 . S
C727 C726 1.405 . S
C727 C728 1.364 . S
C728 C727 1.364 . S
C728 C729 1.400 . S
C729 H717 0.931 . S
C729 C724 1.408 . S
C729 C728 1.400 . S
H730 C736 0.930 . S
H731 C739 0.931 . S
H732 C741 0.931 . S
H733 C743 0.930 . S
H734 C745 0.930 . S
H735 C747 0.931 . S
C736 H730 0.930 . S
C736 C737 1.380 . S
C736 C738 1.394 . S
C737 C736 1.380 . S
C737 C741 1.382 . S
C738 C736 1.394 . S
C738 C739 1.400 . S
C739 H731 0.931 . S
C739 C738 1.400 . S
C739 C740 1.375 . S
C740 C739 1.375 . S
C740 C741 1.415 . S
C740 C742 1.501 . S
C741 H732 0.931 . S
C741 C737 1.382 . S
C741 C740 1.415 . S
C742 C740 1.501 . S
C742 C743 1.384 . S
C742 C747 1.408 . S
C743 H733 0.930 . S
C743 C742 1.384 . S
C743 C744 1.389 . S
C744 C743 1.389 . S
C744 C745 1.405 . S
C745 H734 0.930 . S
C745 C744 1.405 . S
C745 C746 1.364 . S
C746 C745 1.364 . S
C746 C747 1.400 . S
C747 H735 0.931 . S
C747 C742 1.408 . S
C747 C746 1.400 . S
H748 C754 0.930 . S
H749 C757 0.931 . S
H750 C759 0.931 . S
H751 C761 0.930 . S
H752 C763 0.930 . S
H753 C765 0.931 . S
C754 H748 0.930 . S
C754 C755 1.380 . S
C754 C756 1.394 . S
C755 C754 1.380 . S
C755 C759 1.382 . S
C756 C754 1.394 . S
C756 C757 1.400 . S
C757 H749 0.931 . S
C757 C756 1.400 . S
C757 C758 1.375 . S
C758 C757 1.375 . S
C758 C759 1.415 . S
C758 C760 1.501 . S
C759 H750 0.931 . S
C759 C755 1.382 . S
C759 C758 1.415 . S
C760 C758 1.501 . S
C760 C761 1.384 . S
C760 C765 1.408 . S
C761 H751 0.930 . S
C761 C760 1.384 . S
C761 C762 1.389 . S
C762 C761 1.389 . S
C762 C763 1.405 . S
C763 H752 0.930 . S
C763 C762 1.405 . S
C763 C764 1.364 . S
C764 C763 1.364 . S
C764 C765 1.400 . S
C765 H753 0.931 . S
C765 C760 1.408 . S
C765 C764 1.400 . S
H766 C772 0.930 . S
H767 C775 0.931 . S
H768 C777 0.931 . S
H769 C779 0.930 . S
H770 C781 0.930 . S
H771 C783 0.931 . S
C772 H766 0.930 . S
C772 C773 1.380 . S
C772 C774 1.394 . S
C773 C772 1.380 . S
C773 C777 1.382 . S
C774 C772 1.394 . S
C774 C775 1.400 . S
C775 H767 0.931 . S
C775 C774 1.400 . S
C775 C776 1.375 . S
C776 C775 1.375 . S
C776 C777 1.415 . S
C776 C778 1.501 . S
C777 H768 0.931 . S
C777 C773 1.382 . S
C777 C776 1.415 . S
C778 C776 1.501 . S
C778 C779 1.384 . S
C778 C783 1.408 . S
C779 H769 0.930 . S
C779 C778 1.384 . S
C779 C780 1.389 . S
C780 C779 1.389 . S
C780 C781 1.405 . S
C781 H770 0.930 . S
C781 C780 1.405 . S
C781 C782 1.364 . S
C782 C781 1.364 . S
C782 C783 1.400 . S
C783 H771 0.931 . S
C783 C778 1.408 . S
C783 C782 1.400 . S
H784 C796 0.930 . S
H785 C798 0.930 . S
H786 C799 0.930 . S
H787 C803 0.959 . S
H788 C803 0.959 . S
H789 C803 0.961 . S
H790 C804 0.960 . S
H791 C804 0.961 . S
H792 C804 0.959 . S
H793 C807 0.929 . S
H794 C808 0.931 . S
H795 C810 0.930 . S
C796 H784 0.930 . S
C796 C797 1.399 . S
C796 C801 1.399 . S
C797 C796 1.399 . S
C797 C798 1.376 . S
C798 H785 0.930 . S
C798 C797 1.376 . S
C798 C799 1.388 . S
C799 H786 0.930 . S
C799 C798 1.388 . S
C799 C800 1.390 . S
C800 C799 1.390 . S
C800 C801 1.394 . S
C800 C806 1.465 . S
C801 C796 1.399 . S
C801 C800 1.394 . S
C801 C802 1.516 . S
C802 C801 1.516 . S
C802 C803 1.502 . S
C802 C804 1.561 . S
C802 C805 1.526 . S
C803 H787 0.959 . S
C803 H788 0.959 . S
C803 H789 0.961 . S
C803 C802 1.502 . S
C804 H790 0.960 . S
C804 H791 0.961 . S
C804 H792 0.959 . S
C804 C802 1.561 . S
C805 C802 1.526 . S
C805 C806 1.396 . S
C805 C810 1.390 . S
C806 C800 1.465 . S
C806 C805 1.396 . S
C806 C807 1.399 . S
C807 H793 0.929 . S
C807 C806 1.399 . S
C807 C808 1.385 . S
C808 H794 0.931 . S
C808 C807 1.385 . S
C808 C809 1.389 . S
C809 C808 1.389 . S
C809 C810 1.387 . S
C810 H795 0.930 . S
C810 C805 1.390 . S
C810 C809 1.387 . S
H811 C823 0.930 . S
H812 C825 0.930 . S
H813 C826 0.930 . S
H814 C830 0.959 . S
H815 C830 0.959 . S
H816 C830 0.961 . S
H817 C831 0.960 . S
H818 C831 0.961 . S
H819 C831 0.959 . S
H820 C834 0.929 . S
H821 C835 0.931 . S
H822 C837 0.930 . S
C823 H811 0.930 . S
C823 C824 1.399 . S
C823 C828 1.399 . S
C824 C823 1.399 . S
C824 C825 1.376 . S
C825 H812 0.930 . S
C825 C824 1.376 . S
C825 C826 1.388 . S
C826 H813 0.930 . S
C826 C825 1.388 . S
C826 C827 1.390 . S
C827 C826 1.390 . S
C827 C828 1.394 . S
C827 C833 1.465 . S
C828 C823 1.399 . S
C828 C827 1.394 . S
C828 C829 1.516 . S
C829 C828 1.516 . S
C829 C830 1.502 . S
C829 C831 1.561 . S
C829 C832 1.526 . S
C830 H814 0.959 . S
C830 H815 0.959 . S
C830 H816 0.961 . S
C830 C829 1.502 . S
C831 H817 0.960 . S
C831 H818 0.961 . S
C831 H819 0.959 . S
C831 C829 1.561 . S
C832 C829 1.526 . S
C832 C833 1.396 . S
C832 C837 1.390 . S
C833 C827 1.465 . S
C833 C832 1.396 . S
C833 C834 1.399 . S
C834 H820 0.929 . S
C834 C833 1.399 . S
C834 C835 1.385 . S
C835 H821 0.931 . S
C835 C834 1.385 . S
C835 C836 1.389 . S
C836 C835 1.389 . S
C836 C837 1.387 . S
C837 H822 0.930 . S
C837 C832 1.390 . S
C837 C836 1.387 . S
H838 C850 0.930 . S
H839 C852 0.930 . S
H840 C853 0.930 . S
H841 C857 0.959 . S
H842 C857 0.959 . S
H843 C857 0.961 . S
H844 C858 0.960 . S
H845 C858 0.961 . S
H846 C858 0.959 . S
H847 C861 0.929 . S
H848 C862 0.931 . S
H849 C864 0.930 . S
C850 H838 0.930 . S
C850 C851 1.399 . S
C850 C855 1.399 . S
C851 C850 1.399 . S
C851 C852 1.376 . S
C852 H839 0.930 . S
C852 C851 1.376 . S
C852 C853 1.388 . S
C853 H840 0.930 . S
C853 C852 1.388 . S
C853 C854 1.390 . S
C854 C853 1.390 . S
C854 C855 1.394 . S
C854 C860 1.465 . S
C855 C850 1.399 . S
C855 C854 1.394 . S
C855 C856 1.516 . S
C856 C855 1.516 . S
C856 C857 1.502 . S
C856 C858 1.561 . S
C856 C859 1.526 . S
C857 H841 0.959 . S
C857 H842 0.959 . S
C857 H843 0.961 . S
C857 C856 1.502 . S
C858 H844 0.960 . S
C858 H845 0.961 . S
C858 H846 0.959 . S
C858 C856 1.561 . S
C859 C856 1.526 . S
C859 C860 1.396 . S
C859 C864 1.390 . S
C860 C854 1.465 . S
C860 C859 1.396 . S
C860 C861 1.399 . S
C861 H847 0.929 . S
C861 C860 1.399 . S
C861 C862 1.385 . S
C862 H848 0.931 . S
C862 C861 1.385 . S
C862 C863 1.389 . S
C863 C862 1.389 . S
C863 C864 1.387 . S
C864 H849 0.930 . S
C864 C859 1.390 . S
C864 C863 1.387 . S
H865 C877 0.930 . S
H866 C879 0.930 . S
H867 C880 0.930 . S
H868 C884 0.959 . S
H869 C884 0.959 . S
H870 C884 0.961 . S
H871 C885 0.960 . S
H872 C885 0.961 . S
H873 C885 0.959 . S
H874 C888 0.929 . S
H875 C889 0.931 . S
H876 C891 0.930 . S
C877 H865 0.930 . S
C877 C878 1.399 . S
C877 C882 1.399 . S
C878 C877 1.399 . S
C878 C879 1.376 . S
C879 H866 0.930 . S
C879 C878 1.376 . S
C879 C880 1.388 . S
C880 H867 0.930 . S
C880 C879 1.388 . S
C880 C881 1.390 . S
C881 C880 1.390 . S
C881 C882 1.394 . S
C881 C887 1.465 . S
C882 C877 1.399 . S
C882 C881 1.394 . S
C882 C883 1.516 . S
C883 C882 1.516 . S
C883 C884 1.502 . S
C883 C885 1.561 . S
C883 C886 1.526 . S
C884 H868 0.959 . S
C884 H869 0.959 . S
C884 H870 0.961 . S
C884 C883 1.502 . S
C885 H871 0.960 . S
C885 H872 0.961 . S
C885 H873 0.959 . S
C885 C883 1.561 . S
C886 C883 1.526 . S
C886 C887 1.396 . S
C886 C891 1.390 . S
C887 C881 1.465 . S
C887 C886 1.396 . S
C887 C888 1.399 . S
C888 H874 0.929 . S
C888 C887 1.399 . S
C888 C889 1.385 . S
C889 H875 0.931 . S
C889 C888 1.385 . S
C889 C890 1.389 . S
C890 C889 1.389 . S
C890 C891 1.387 . S
C891 H876 0.930 . S
C891 C886 1.390 . S
C891 C890 1.387 . S
H892 C904 0.930 . S
H893 C906 0.930 . S
H894 C907 0.930 . S
H895 C911 0.959 . S
H896 C911 0.959 . S
H897 C911 0.961 . S
H898 C912 0.960 . S
H899 C912 0.961 . S
H900 C912 0.959 . S
H901 C915 0.929 . S
H902 C916 0.931 . S
H903 C918 0.930 . S
C904 H892 0.930 . S
C904 C905 1.399 . S
C904 C909 1.399 . S
C905 C904 1.399 . S
C905 C906 1.376 . S
C906 H893 0.930 . S
C906 C905 1.376 . S
C906 C907 1.388 . S
C907 H894 0.930 . S
C907 C906 1.388 . S
C907 C908 1.390 . S
C908 C907 1.390 . S
C908 C909 1.394 . S
C908 C914 1.465 . S
C909 C904 1.399 . S
C909 C908 1.394 . S
C909 C910 1.516 . S
C910 C909 1.516 . S
C910 C911 1.502 . S
C910 C912 1.561 . S
C910 C913 1.526 . S
C911 H895 0.959 . S
C911 H896 0.959 . S
C911 H897 0.961 . S
C911 C910 1.502 . S
C912 H898 0.960 . S
C912 H899 0.961 . S
C912 H900 0.959 . S
C912 C910 1.561 . S
C913 C910 1.526 . S
C913 C914 1.396 . S
C913 C918 1.390 . S
C914 C908 1.465 . S
C914 C913 1.396 . S
C914 C915 1.399 . S
C915 H901 0.929 . S
C915 C914 1.399 . S
C915 C916 1.385 . S
C916 H902 0.931 . S
C916 C915 1.385 . S
C916 C917 1.389 . S
C917 C916 1.389 . S
C917 C918 1.387 . S
C918 H903 0.930 . S
C918 C913 1.390 . S
C918 C917 1.387 . S
H919 C931 0.930 . S
H920 C933 0.930 . S
H921 C934 0.930 . S
H922 C938 0.959 . S
H923 C938 0.959 . S
H924 C938 0.961 . S
H925 C939 0.960 . S
H926 C939 0.961 . S
H927 C939 0.959 . S
H928 C942 0.929 . S
H929 C943 0.931 . S
H930 C945 0.930 . S
C931 H919 0.930 . S
C931 C932 1.399 . S
C931 C936 1.399 . S
C932 C931 1.399 . S
C932 C933 1.376 . S
C933 H920 0.930 . S
C933 C932 1.376 . S
C933 C934 1.388 . S
C934 H921 0.930 . S
C934 C933 1.388 . S
C934 C935 1.390 . S
C935 C934 1.390 . S
C935 C936 1.394 . S
C935 C941 1.465 . S
C936 C931 1.399 . S
C936 C935 1.394 . S
C936 C937 1.516 . S
C937 C936 1.516 . S
C937 C938 1.502 . S
C937 C939 1.561 . S
C937 C940 1.526 . S
C938 H922 0.959 . S
C938 H923 0.959 . S
C938 H924 0.961 . S
C938 C937 1.502 . S
C939 H925 0.960 . S
C939 H926 0.961 . S
C939 H927 0.959 . S
C939 C937 1.561 . S
C940 C937 1.526 . S
C940 C941 1.396 . S
C940 C945 1.390 . S
C941 C935 1.465 . S
C941 C940 1.396 . S
C941 C942 1.399 . S
C942 H928 0.929 . S
C942 C941 1.399 . S
C942 C943 1.385 . S
C943 H929 0.931 . S
C943 C942 1.385 . S
C943 C944 1.389 . S
C944 C943 1.389 . S
C944 C945 1.387 . S
C945 H930 0.930 . S
C945 C940 1.390 . S
C945 C944 1.387 . S
H946 C958 0.930 . S
H947 C960 0.930 . S
H948 C961 0.930 . S
H949 C965 0.959 . S
H950 C965 0.959 . S
H951 C965 0.961 . S
H952 C966 0.960 . S
H953 C966 0.961 . S
H954 C966 0.959 . S
H955 C969 0.929 . S
H956 C970 0.931 . S
H957 C972 0.930 . S
C958 H946 0.930 . S
C958 C959 1.399 . S
C958 C963 1.399 . S
C959 C958 1.399 . S
C959 C960 1.376 . S
C960 H947 0.930 . S
C960 C959 1.376 . S
C960 C961 1.388 . S
C961 H948 0.930 . S
C961 C960 1.388 . S
C961 C962 1.390 . S
C962 C961 1.390 . S
C962 C963 1.394 . S
C962 C968 1.465 . S
C963 C958 1.399 . S
C963 C962 1.394 . S
C963 C964 1.516 . S
C964 C963 1.516 . S
C964 C965 1.502 . S
C964 C966 1.561 . S
C964 C967 1.526 . S
C965 H949 0.959 . S
C965 H950 0.959 . S
C965 H951 0.961 . S
C965 C964 1.502 . S
C966 H952 0.960 . S
C966 H953 0.961 . S
C966 H954 0.959 . S
C966 C964 1.561 . S
C967 C964 1.526 . S
C967 C968 1.396 . S
C967 C972 1.390 . S
C968 C962 1.465 . S
C968 C967 1.396 . S
C968 C969 1.399 . S
C969 H955 0.929 . S
C969 C968 1.399 . S
C969 C970 1.385 . S
C970 H956 0.931 . S
C970 C969 1.385 . S
C970 C971 1.389 . S
C971 C970 1.389 . S
C971 C972 1.387 . S
C972 H957 0.930 . S
C972 C967 1.390 . S
C972 C971 1.387 . S
H973 C985 0.930 . S
H974 C987 0.930 . S
H975 C988 0.930 . S
H976 C992 0.959 . S
H977 C992 0.959 . S
H978 C992 0.961 . S
H979 C993 0.960 . S
H980 C993 0.961 . S
H981 C993 0.959 . S
H982 C996 0.929 . S
H983 C997 0.931 1_554 S
H984 C999 0.930 . S
C985 H973 0.930 . S
C985 C986 1.399 . S
C985 C990 1.399 . S
C986 C985 1.399 . S
C986 C987 1.376 . S
C987 H974 0.930 . S
C987 C986 1.376 . S
C987 C988 1.388 . S
C988 H975 0.930 . S
C988 C987 1.388 . S
C988 C989 1.390 . S
C989 C988 1.390 . S
C989 C990 1.394 . S
C989 C995 1.465 . S
C990 C985 1.399 . S
C990 C989 1.394 . S
C990 C991 1.516 . S
C991 C990 1.516 . S
C991 C992 1.502 . S
C991 C993 1.561 . S
C991 C994 1.526 . S
C992 H976 0.959 . S
C992 H977 0.959 . S
C992 H978 0.961 . S
C992 C991 1.502 . S
C993 H979 0.960 . S
C993 H980 0.961 . S
C993 H981 0.959 . S
C993 C991 1.561 . S
C994 C991 1.526 . S
C994 C995 1.396 . S
C994 C999 1.390 . S
C995 C989 1.465 . S
C995 C994 1.396 . S
C995 C996 1.399 . S
C996 H982 0.929 . S
C996 C995 1.399 . S
C996 C997 1.385 . S
C997 H983 0.931 1_556 S
C997 C996 1.385 . S
C997 C998 1.389 . S
C998 C997 1.389 . S
C998 C999 1.387 . S
C999 H984 0.930 . S
C999 C994 1.390 . S
C999 C998 1.387 . S
H1000 C1012 0.930 . S
H1001 C1014 0.930 . S
H1002 C1015 0.930 . S
H1003 C1019 0.959 . S
H1004 C1019 0.959 . S
H1005 C1019 0.961 . S
H1006 C1020 0.960 . S
H1007 C1020 0.961 . S
H1008 C1020 0.959 . S
H1009 C1023 0.929 . S
H1010 C1024 0.931 . S
H1011 C1026 0.930 . S
C1012 H1000 0.930 . S
C1012 C1013 1.399 . S
C1012 C1017 1.399 . S
C1013 C1012 1.399 . S
C1013 C1014 1.376 . S
C1014 H1001 0.930 . S
C1014 C1013 1.376 . S
C1014 C1015 1.388 . S
C1015 H1002 0.930 . S
C1015 C1014 1.388 . S
C1015 C1016 1.390 . S
C1016 C1015 1.390 . S
C1016 C1017 1.394 . S
C1016 C1022 1.465 . S
C1017 C1012 1.399 . S
C1017 C1016 1.394 . S
C1017 C1018 1.516 . S
C1018 C1017 1.516 . S
C1018 C1019 1.502 . S
C1018 C1020 1.561 . S
C1018 C1021 1.526 . S
C1019 H1003 0.959 . S
C1019 H1004 0.959 . S
C1019 H1005 0.961 . S
C1019 C1018 1.502 . S
C1020 H1006 0.960 . S
C1020 H1007 0.961 . S
C1020 H1008 0.959 . S
C1020 C1018 1.561 . S
C1021 C1018 1.526 . S
C1021 C1022 1.396 . S
C1021 C1026 1.390 . S
C1022 C1016 1.465 . S
C1022 C1021 1.396 . S
C1022 C1023 1.399 . S
C1023 H1009 0.929 . S
C1023 C1022 1.399 . S
C1023 C1024 1.385 . S
C1024 H1010 0.931 . S
C1024 C1023 1.385 . S
C1024 C1025 1.389 . S
C1025 C1024 1.389 . S
C1025 C1026 1.387 . S
C1026 H1011 0.930 . S
C1026 C1021 1.390 . S
C1026 C1025 1.387 . S
H1027 C1039 0.930 . S
H1028 C1041 0.930 . S
H1029 C1042 0.930 . S
H1030 C1046 0.959 . S
H1031 C1046 0.959 . S
H1032 C1046 0.961 . S
H1033 C1047 0.960 . S
H1034 C1047 0.961 . S
H1035 C1047 0.959 . S
H1036 C1050 0.929 . S
H1037 C1051 0.931 . S
H1038 C1053 0.930 . S
C1039 H1027 0.930 . S
C1039 C1040 1.399 . S
C1039 C1044 1.399 . S
C1040 C1039 1.399 . S
C1040 C1041 1.376 . S
C1041 H1028 0.930 . S
C1041 C1040 1.376 . S
C1041 C1042 1.388 . S
C1042 H1029 0.930 . S
C1042 C1041 1.388 . S
C1042 C1043 1.390 . S
C1043 C1042 1.390 . S
C1043 C1044 1.394 . S
C1043 C1049 1.465 . S
C1044 C1039 1.399 . S
C1044 C1043 1.394 . S
C1044 C1045 1.516 . S
C1045 C1044 1.516 . S
C1045 C1046 1.502 . S
C1045 C1047 1.561 . S
C1045 C1048 1.526 . S
C1046 H1030 0.959 . S
C1046 H1031 0.959 . S
C1046 H1032 0.961 . S
C1046 C1045 1.502 . S
C1047 H1033 0.960 . S
C1047 H1034 0.961 . S
C1047 H1035 0.959 . S
C1047 C1045 1.561 . S
C1048 C1045 1.526 . S
C1048 C1049 1.396 . S
C1048 C1053 1.390 . S
C1049 C1043 1.465 . S
C1049 C1048 1.396 . S
C1049 C1050 1.399 . S
C1050 H1036 0.929 . S
C1050 C1049 1.399 . S
C1050 C1051 1.385 . S
C1051 H1037 0.931 . S
C1051 C1050 1.385 . S
C1051 C1052 1.389 . S
C1052 C1051 1.389 . S
C1052 C1053 1.387 . S
C1053 H1038 0.930 . S
C1053 C1048 1.390 . S
C1053 C1052 1.387 . S
H1054 C1066 0.930 . S
H1055 C1068 0.930 . S
H1056 C1069 0.930 . S
H1057 C1073 0.959 . S
H1058 C1073 0.959 . S
H1059 C1073 0.961 . S
H1060 C1074 0.960 . S
H1061 C1074 0.961 . S
H1062 C1074 0.959 . S
H1063 C1077 0.929 . S
H1064 C1078 0.931 . S
H1065 C1080 0.930 . S
C1066 H1054 0.930 . S
C1066 C1067 1.399 . S
C1066 C1071 1.399 . S
C1067 C1066 1.399 . S
C1067 C1068 1.376 . S
C1068 H1055 0.930 . S
C1068 C1067 1.376 . S
C1068 C1069 1.388 . S
C1069 H1056 0.930 . S
C1069 C1068 1.388 . S
C1069 C1070 1.390 . S
C1070 C1069 1.390 . S
C1070 C1071 1.394 . S
C1070 C1076 1.465 . S
C1071 C1066 1.399 . S
C1071 C1070 1.394 . S
C1071 C1072 1.516 . S
C1072 C1071 1.516 . S
C1072 C1073 1.502 . S
C1072 C1074 1.561 . S
C1072 C1075 1.526 . S
C1073 H1057 0.959 . S
C1073 H1058 0.959 . S
C1073 H1059 0.961 . S
C1073 C1072 1.502 . S
C1074 H1060 0.960 . S
C1074 H1061 0.961 . S
C1074 H1062 0.959 . S
C1074 C1072 1.561 . S
C1075 C1072 1.526 . S
C1075 C1076 1.396 . S
C1075 C1080 1.390 1_655 S
C1076 C1070 1.465 . S
C1076 C1075 1.396 . S
C1076 C1077 1.399 . S
C1077 H1063 0.929 . S
C1077 C1076 1.399 . S
C1077 C1078 1.385 1_655 S
C1078 H1064 0.931 . S
C1078 C1077 1.385 1_455 S
C1078 C1079 1.389 . S
C1079 C1078 1.389 . S
C1079 C1080 1.387 . S
C1080 H1065 0.930 . S
C1080 C1075 1.390 1_455 S
C1080 C1079 1.387 . S
H1081 C1093 0.930 . S
H1082 C1095 0.930 . S
H1083 C1096 0.930 . S
H1084 C1100 0.959 . S
H1085 C1100 0.959 . S
H1086 C1100 0.961 . S
H1087 C1101 0.960 . S
H1088 C1101 0.961 . S
H1089 C1101 0.959 . S
H1090 C1104 0.929 . S
H1091 C1105 0.931 . S
H1092 C1107 0.930 . S
C1093 H1081 0.930 . S
C1093 C1094 1.399 . S
C1093 C1098 1.399 . S
C1094 C1093 1.399 . S
C1094 C1095 1.376 . S
C1095 H1082 0.930 . S
C1095 C1094 1.376 . S
C1095 C1096 1.388 . S
C1096 H1083 0.930 . S
C1096 C1095 1.388 . S
C1096 C1097 1.390 . S
C1097 C1096 1.390 . S
C1097 C1098 1.394 . S
C1097 C1103 1.465 . S
C1098 C1093 1.399 . S
C1098 C1097 1.394 . S
C1098 C1099 1.516 . S
C1099 C1098 1.516 . S
C1099 C1100 1.502 . S
C1099 C1101 1.561 . S
C1099 C1102 1.526 . S
C1100 H1084 0.959 . S
C1100 H1085 0.959 . S
C1100 H1086 0.961 . S
C1100 C1099 1.502 . S
C1101 H1087 0.960 . S
C1101 H1088 0.961 . S
C1101 H1089 0.959 . S
C1101 C1099 1.561 . S
C1102 C1099 1.526 . S
C1102 C1103 1.396 . S
C1102 C1107 1.390 . S
C1103 C1097 1.465 . S
C1103 C1102 1.396 . S
C1103 C1104 1.399 . S
C1104 H1090 0.929 . S
C1104 C1103 1.399 . S
C1104 C1105 1.385 . S
C1105 H1091 0.931 . S
C1105 C1104 1.385 . S
C1105 C1106 1.389 . S
C1106 C1105 1.389 . S
C1106 C1107 1.387 . S
C1107 H1092 0.930 . S
C1107 C1102 1.390 . S
C1107 C1106 1.387 . S
H1108 C1120 0.930 . S
H1109 C1122 0.930 . S
H1110 C1123 0.930 . S
H1111 C1127 0.959 . S
H1112 C1127 0.959 . S
H1113 C1127 0.961 . S
H1114 C1128 0.960 . S
H1115 C1128 0.961 . S
H1116 C1128 0.959 . S
H1117 C1131 0.929 . S
H1118 C1132 0.931 . S
H1119 C1134 0.930 . S
C1120 H1108 0.930 . S
C1120 C1121 1.399 . S
C1120 C1125 1.399 . S
C1121 C1120 1.399 . S
C1121 C1122 1.376 . S
C1122 H1109 0.930 . S
C1122 C1121 1.376 . S
C1122 C1123 1.388 . S
C1123 H1110 0.930 . S
C1123 C1122 1.388 . S
C1123 C1124 1.390 . S
C1124 C1123 1.390 . S
C1124 C1125 1.394 . S
C1124 C1130 1.465 . S
C1125 C1120 1.399 . S
C1125 C1124 1.394 . S
C1125 C1126 1.516 . S
C1126 C1125 1.516 . S
C1126 C1127 1.502 . S
C1126 C1128 1.561 . S
C1126 C1129 1.526 . S
C1127 H1111 0.959 . S
C1127 H1112 0.959 . S
C1127 H1113 0.961 . S
C1127 C1126 1.502 . S
C1128 H1114 0.960 . S
C1128 H1115 0.961 . S
C1128 H1116 0.959 . S
C1128 C1126 1.561 . S
C1129 C1126 1.526 . S
C1129 C1130 1.396 . S
C1129 C1134 1.390 . S
C1130 C1124 1.465 . S
C1130 C1129 1.396 . S
C1130 C1131 1.399 . S
C1131 H1117 0.929 . S
C1131 C1130 1.399 . S
C1131 C1132 1.385 . S
C1132 H1118 0.931 . S
C1132 C1131 1.385 . S
C1132 C1133 1.389 . S
C1133 C1132 1.389 . S
C1133 C1134 1.387 . S
C1134 H1119 0.930 . S
C1134 C1129 1.390 . S
C1134 C1133 1.387 . S
H1135 C1147 0.930 . S
H1136 C1149 0.930 . S
H1137 C1150 0.930 . S
H1138 C1154 0.959 . S
H1139 C1154 0.959 . S
H1140 C1154 0.961 . S
H1141 C1155 0.960 . S
H1142 C1155 0.961 . S
H1143 C1155 0.959 . S
H1144 C1158 0.929 . S
H1145 C1159 0.931 . S
H1146 C1161 0.930 . S
C1147 H1135 0.930 . S
C1147 C1148 1.399 . S
C1147 C1152 1.399 . S
C1148 C1147 1.399 . S
C1148 C1149 1.376 . S
C1149 H1136 0.930 . S
C1149 C1148 1.376 . S
C1149 C1150 1.388 . S
C1150 H1137 0.930 . S
C1150 C1149 1.388 . S
C1150 C1151 1.390 . S
C1151 C1150 1.390 . S
C1151 C1152 1.394 . S
C1151 C1157 1.465 . S
C1152 C1147 1.399 . S
C1152 C1151 1.394 . S
C1152 C1153 1.516 . S
C1153 C1152 1.516 . S
C1153 C1154 1.502 . S
C1153 C1155 1.561 . S
C1153 C1156 1.526 . S
C1154 H1138 0.959 . S
C1154 H1139 0.959 . S
C1154 H1140 0.961 . S
C1154 C1153 1.502 . S
C1155 H1141 0.960 . S
C1155 H1142 0.961 . S
C1155 H1143 0.959 . S
C1155 C1153 1.561 . S
C1156 C1153 1.526 . S
C1156 C1157 1.396 . S
C1156 C1161 1.390 . S
C1157 C1151 1.465 . S
C1157 C1156 1.396 . S
C1157 C1158 1.399 . S
C1158 H1144 0.929 . S
C1158 C1157 1.399 . S
C1158 C1159 1.385 . S
C1159 H1145 0.931 . S
C1159 C1158 1.385 . S
C1159 C1160 1.389 . S
C1160 C1159 1.389 . S
C1160 C1161 1.387 . S
C1161 H1146 0.930 . S
C1161 C1156 1.390 . S
C1161 C1160 1.387 . S
H1162 C1174 0.930 . S
H1163 C1176 0.930 . S
H1164 C1177 0.930 . S
H1165 C1181 0.959 . S
H1166 C1181 0.959 . S
H1167 C1181 0.961 . S
H1168 C1182 0.960 . S
H1169 C1182 0.961 . S
H1170 C1182 0.959 . S
H1171 C1185 0.929 . S
H1172 C1186 0.931 . S
H1173 C1188 0.930 . S
C1174 H1162 0.930 . S
C1174 C1175 1.399 . S
C1174 C1179 1.399 . S
C1175 C1174 1.399 . S
C1175 C1176 1.376 . S
C1176 H1163 0.930 . S
C1176 C1175 1.376 . S
C1176 C1177 1.388 . S
C1177 H1164 0.930 . S
C1177 C1176 1.388 . S
C1177 C1178 1.390 . S
C1178 C1177 1.390 . S
C1178 C1179 1.394 . S
C1178 C1184 1.465 . S
C1179 C1174 1.399 . S
C1179 C1178 1.394 . S
C1179 C1180 1.516 . S
C1180 C1179 1.516 . S
C1180 C1181 1.502 . S
C1180 C1182 1.561 . S
C1180 C1183 1.526 . S
C1181 H1165 0.959 . S
C1181 H1166 0.959 . S
C1181 H1167 0.961 . S
C1181 C1180 1.502 . S
C1182 H1168 0.960 . S
C1182 H1169 0.961 . S
C1182 H1170 0.959 . S
C1182 C1180 1.561 . S
C1183 C1180 1.526 . S
C1183 C1184 1.396 . S
C1183 C1188 1.390 . S
C1184 C1178 1.465 . S
C1184 C1183 1.396 . S
C1184 C1185 1.399 . S
C1185 H1171 0.929 . S
C1185 C1184 1.399 . S
C1185 C1186 1.385 1_655 S
C1186 H1172 0.931 . S
C1186 C1185 1.385 1_455 S
C1186 C1187 1.389 . S
C1187 C1186 1.389 . S
C1187 C1188 1.387 1_455 S
C1188 H1173 0.930 . S
C1188 C1183 1.390 . S
C1188 C1187 1.387 1_655 S
H1189 C1201 0.930 . S
H1190 C1203 0.930 . S
H1191 C1204 0.930 . S
H1192 C1208 0.959 . S
H1193 C1208 0.959 . S
H1194 C1208 0.961 . S
H1195 C1209 0.960 . S
H1196 C1209 0.961 . S
H1197 C1209 0.959 . S
H1198 C1212 0.929 . S
H1199 C1213 0.931 . S
H1200 C1215 0.930 . S
C1201 H1189 0.930 . S
C1201 C1202 1.399 . S
C1201 C1206 1.399 . S
C1202 C1201 1.399 . S
C1202 C1203 1.376 . S
C1203 H1190 0.930 . S
C1203 C1202 1.376 . S
C1203 C1204 1.388 . S
C1204 H1191 0.930 . S
C1204 C1203 1.388 . S
C1204 C1205 1.390 . S
C1205 C1204 1.390 . S
C1205 C1206 1.394 . S
C1205 C1211 1.465 . S
C1206 C1201 1.399 . S
C1206 C1205 1.394 . S
C1206 C1207 1.516 . S
C1207 C1206 1.516 . S
C1207 C1208 1.502 . S
C1207 C1209 1.561 . S
C1207 C1210 1.526 . S
C1208 H1192 0.959 . S
C1208 H1193 0.959 . S
C1208 H1194 0.961 . S
C1208 C1207 1.502 . S
C1209 H1195 0.960 . S
C1209 H1196 0.961 . S
C1209 H1197 0.959 . S
C1209 C1207 1.561 . S
C1210 C1207 1.526 . S
C1210 C1211 1.396 . S
C1210 C1215 1.390 . S
C1211 C1205 1.465 . S
C1211 C1210 1.396 . S
C1211 C1212 1.399 . S
C1212 H1198 0.929 . S
C1212 C1211 1.399 . S
C1212 C1213 1.385 . S
C1213 H1199 0.931 . S
C1213 C1212 1.385 . S
C1213 C1214 1.389 . S
C1214 C1213 1.389 . S
C1214 C1215 1.387 . S
C1215 H1200 0.930 . S
C1215 C1210 1.390 . S
C1215 C1214 1.387 . S
H1216 C1228 0.930 . S
H1217 C1230 0.930 . S
H1218 C1231 0.930 . S
H1219 C1235 0.959 . S
H1220 C1235 0.959 . S
H1221 C1235 0.961 . S
H1222 C1236 0.960 . S
H1223 C1236 0.961 . S
H1224 C1236 0.959 . S
H1225 C1239 0.929 . S
H1226 C1240 0.931 . S
H1227 C1242 0.930 . S
C1228 H1216 0.930 . S
C1228 C1229 1.399 . S
C1228 C1233 1.399 . S
C1229 C1228 1.399 . S
C1229 C1230 1.376 . S
C1230 H1217 0.930 . S
C1230 C1229 1.376 . S
C1230 C1231 1.388 . S
C1231 H1218 0.930 . S
C1231 C1230 1.388 . S
C1231 C1232 1.390 . S
C1232 C1231 1.390 . S
C1232 C1233 1.394 . S
C1232 C1238 1.465 . S
C1233 C1228 1.399 . S
C1233 C1232 1.394 . S
C1233 C1234 1.516 . S
C1234 C1233 1.516 . S
C1234 C1235 1.502 . S
C1234 C1236 1.561 . S
C1234 C1237 1.526 . S
C1235 H1219 0.959 . S
C1235 H1220 0.959 . S
C1235 H1221 0.961 . S
C1235 C1234 1.502 . S
C1236 H1222 0.960 . S
C1236 H1223 0.961 . S
C1236 H1224 0.959 . S
C1236 C1234 1.561 . S
C1237 C1234 1.526 . S
C1237 C1238 1.396 . S
C1237 C1242 1.390 . S
C1238 C1232 1.465 . S
C1238 C1237 1.396 . S
C1238 C1239 1.399 . S
C1239 H1225 0.929 . S
C1239 C1238 1.399 . S
C1239 C1240 1.385 . S
C1240 H1226 0.931 . S
C1240 C1239 1.385 . S
C1240 C1241 1.389 . S
C1241 C1240 1.389 . S
C1241 C1242 1.387 . S
C1242 H1227 0.930 . S
C1242 C1237 1.390 . S
C1242 C1241 1.387 . S
H1243 C1255 0.930 . S
H1244 C1257 0.930 . S
H1245 C1258 0.930 . S
H1246 C1262 0.959 . S
H1247 C1262 0.959 . S
H1248 C1262 0.961 . S
H1249 C1263 0.960 . S
H1250 C1263 0.961 . S
H1251 C1263 0.959 . S
H1252 C1266 0.929 . S
H1253 C1267 0.931 . S
H1254 C1269 0.930 . S
C1255 H1243 0.930 . S
C1255 C1256 1.399 . S
C1255 C1260 1.399 . S
C1256 C1255 1.399 . S
C1256 C1257 1.376 . S
C1257 H1244 0.930 . S
C1257 C1256 1.376 . S
C1257 C1258 1.388 . S
C1258 H1245 0.930 . S
C1258 C1257 1.388 . S
C1258 C1259 1.390 . S
C1259 C1258 1.390 . S
C1259 C1260 1.394 . S
C1259 C1265 1.465 . S
C1260 C1255 1.399 . S
C1260 C1259 1.394 . S
C1260 C1261 1.516 . S
C1261 C1260 1.516 . S
C1261 C1262 1.502 . S
C1261 C1263 1.561 . S
C1261 C1264 1.526 . S
C1262 H1246 0.959 . S
C1262 H1247 0.959 . S
C1262 H1248 0.961 . S
C1262 C1261 1.502 . S
C1263 H1249 0.960 . S
C1263 H1250 0.961 . S
C1263 H1251 0.959 . S
C1263 C1261 1.561 . S
C1264 C1261 1.526 . S
C1264 C1265 1.396 . S
C1264 C1269 1.390 . S
C1265 C1259 1.465 . S
C1265 C1264 1.396 . S
C1265 C1266 1.399 . S
C1266 H1252 0.929 . S
C1266 C1265 1.399 . S
C1266 C1267 1.385 . S
C1267 H1253 0.931 . S
C1267 C1266 1.385 . S
C1267 C1268 1.389 . S
C1268 C1267 1.389 . S
C1268 C1269 1.387 . S
C1269 H1254 0.930 . S
C1269 C1264 1.390 . S
C1269 C1268 1.387 . S
H1270 C1282 0.930 . S
H1271 C1284 0.930 . S
H1272 C1285 0.930 . S
H1273 C1289 0.959 . S
H1274 C1289 0.959 . S
H1275 C1289 0.961 . S
H1276 C1290 0.960 . S
H1277 C1290 0.961 . S
H1278 C1290 0.959 . S
H1279 C1293 0.929 . S
H1280 C1294 0.931 . S
H1281 C1296 0.930 . S
C1282 H1270 0.930 . S
C1282 C1283 1.399 . S
C1282 C1287 1.399 . S
C1283 C1282 1.399 . S
C1283 C1284 1.376 . S
C1284 H1271 0.930 . S
C1284 C1283 1.376 . S
C1284 C1285 1.388 . S
C1285 H1272 0.930 . S
C1285 C1284 1.388 . S
C1285 C1286 1.390 . S
C1286 C1285 1.390 . S
C1286 C1287 1.394 . S
C1286 C1292 1.465 . S
C1287 C1282 1.399 . S
C1287 C1286 1.394 . S
C1287 C1288 1.516 . S
C1288 C1287 1.516 . S
C1288 C1289 1.502 . S
C1288 C1290 1.561 . S
C1288 C1291 1.526 . S
C1289 H1273 0.959 . S
C1289 H1274 0.959 . S
C1289 H1275 0.961 . S
C1289 C1288 1.502 . S
C1290 H1276 0.960 . S
C1290 H1277 0.961 . S
C1290 H1278 0.959 . S
C1290 C1288 1.561 . S
C1291 C1288 1.526 . S
C1291 C1292 1.396 . S
C1291 C1296 1.390 . S
C1292 C1286 1.465 . S
C1292 C1291 1.396 . S
C1292 C1293 1.399 . S
C1293 H1279 0.929 . S
C1293 C1292 1.399 . S
C1293 C1294 1.385 . S
C1294 H1280 0.931 . S
C1294 C1293 1.385 . S
C1294 C1295 1.389 . S
C1295 C1294 1.389 . S
C1295 C1296 1.387 . S
C1296 H1281 0.930 . S
C1296 C1291 1.390 . S
C1296 C1295 1.387 . S
H1297 C1309 0.930 . S
H1298 C1311 0.930 . S
H1299 C1312 0.930 . S
H1300 C1316 0.959 . S
H1301 C1316 0.959 . S
H1302 C1316 0.961 . S
H1303 C1317 0.960 . S
H1304 C1317 0.961 . S
H1305 C1317 0.959 . S
H1306 C1320 0.929 . S
H1307 C1321 0.931 . S
H1308 C1323 0.930 . S
C1309 H1297 0.930 . S
C1309 C1310 1.399 . S
C1309 C1314 1.399 . S
C1310 C1309 1.399 . S
C1310 C1311 1.376 . S
C1311 H1298 0.930 . S
C1311 C1310 1.376 . S
C1311 C1312 1.388 . S
C1312 H1299 0.930 . S
C1312 C1311 1.388 . S
C1312 C1313 1.390 . S
C1313 C1312 1.390 . S
C1313 C1314 1.394 . S
C1313 C1319 1.465 . S
C1314 C1309 1.399 . S
C1314 C1313 1.394 . S
C1314 C1315 1.516 . S
C1315 C1314 1.516 . S
C1315 C1316 1.502 . S
C1315 C1317 1.561 . S
C1315 C1318 1.526 . S
C1316 H1300 0.959 . S
C1316 H1301 0.959 . S
C1316 H1302 0.961 . S
C1316 C1315 1.502 . S
C1317 H1303 0.960 . S
C1317 H1304 0.961 . S
C1317 H1305 0.959 . S
C1317 C1315 1.561 . S
C1318 C1315 1.526 . S
C1318 C1319 1.396 . S
C1318 C1323 1.390 . S
C1319 C1313 1.465 . S
C1319 C1318 1.396 . S
C1319 C1320 1.399 . S
C1320 H1306 0.929 . S
C1320 C1319 1.399 . S
C1320 C1321 1.385 . S
C1321 H1307 0.931 . S
C1321 C1320 1.385 . S
C1321 C1322 1.389 . S
C1322 C1321 1.389 . S
C1322 C1323 1.387 . S
C1323 H1308 0.930 . S
C1323 C1318 1.390 . S
C1323 C1322 1.387 . S
H1324 C1336 0.930 . S
H1325 C1338 0.930 . S
H1326 C1339 0.930 . S
H1327 C1343 0.959 . S
H1328 C1343 0.959 . S
H1329 C1343 0.961 . S
H1330 C1344 0.960 . S
H1331 C1344 0.961 . S
H1332 C1344 0.959 . S
H1333 C1347 0.929 . S
H1334 C1348 0.931 . S
H1335 C1350 0.930 . S
C1336 H1324 0.930 . S
C1336 C1337 1.399 . S
C1336 C1341 1.399 . S
C1337 C1336 1.399 . S
C1337 C1338 1.376 . S
C1338 H1325 0.930 . S
C1338 C1337 1.376 . S
C1338 C1339 1.388 . S
C1339 H1326 0.930 . S
C1339 C1338 1.388 . S
C1339 C1340 1.390 . S
C1340 C1339 1.390 . S
C1340 C1341 1.394 . S
C1340 C1346 1.465 . S
C1341 C1336 1.399 . S
C1341 C1340 1.394 . S
C1341 C1342 1.516 . S
C1342 C1341 1.516 . S
C1342 C1343 1.502 . S
C1342 C1344 1.561 . S
C1342 C1345 1.526 . S
C1343 H1327 0.959 . S
C1343 H1328 0.959 . S
C1343 H1329 0.961 . S
C1343 C1342 1.502 . S
C1344 H1330 0.960 . S
C1344 H1331 0.961 . S
C1344 H1332 0.959 . S
C1344 C1342 1.561 . S
C1345 C1342 1.526 . S
C1345 C1346 1.396 . S
C1345 C1350 1.390 . S
C1346 C1340 1.465 . S
C1346 C1345 1.396 . S
C1346 C1347 1.399 . S
C1347 H1333 0.929 . S
C1347 C1346 1.399 . S
C1347 C1348 1.385 . S
C1348 H1334 0.931 . S
C1348 C1347 1.385 . S
C1348 C1349 1.389 . S
C1349 C1348 1.389 . S
C1349 C1350 1.387 . S
C1350 H1335 0.930 . S
C1350 C1345 1.390 . S
C1350 C1349 1.387 . S
H1351 C1363 0.930 . S
H1352 C1365 0.930 . S
H1353 C1366 0.930 . S
H1354 C1370 0.959 . S
H1355 C1370 0.959 . S
H1356 C1370 0.961 . S
H1357 C1371 0.960 . S
H1358 C1371 0.961 . S
H1359 C1371 0.959 . S
H1360 C1374 0.929 . S
H1361 C1375 0.931 . S
H1362 C1377 0.930 . S
C1363 H1351 0.930 . S
C1363 C1364 1.399 . S
C1363 C1368 1.399 . S
C1364 C1363 1.399 . S
C1364 C1365 1.376 . S
C1365 H1352 0.930 . S
C1365 C1364 1.376 . S
C1365 C1366 1.388 . S
C1366 H1353 0.930 . S
C1366 C1365 1.388 . S
C1366 C1367 1.390 . S
C1367 C1366 1.390 . S
C1367 C1368 1.394 . S
C1367 C1373 1.465 . S
C1368 C1363 1.399 . S
C1368 C1367 1.394 . S
C1368 C1369 1.516 . S
C1369 C1368 1.516 . S
C1369 C1370 1.502 . S
C1369 C1371 1.561 . S
C1369 C1372 1.526 . S
C1370 H1354 0.959 . S
C1370 H1355 0.959 . S
C1370 H1356 0.961 . S
C1370 C1369 1.502 . S
C1371 H1357 0.960 . S
C1371 H1358 0.961 . S
C1371 H1359 0.959 . S
C1371 C1369 1.561 . S
C1372 C1369 1.526 . S
C1372 C1373 1.396 . S
C1372 C1377 1.390 . S
C1373 C1367 1.465 . S
C1373 C1372 1.396 . S
C1373 C1374 1.399 . S
C1374 H1360 0.929 . S
C1374 C1373 1.399 . S
C1374 C1375 1.385 . S
C1375 H1361 0.931 . S
C1375 C1374 1.385 . S
C1375 C1376 1.389 . S
C1376 C1375 1.389 . S
C1376 C1377 1.387 . S
C1377 H1362 0.930 . S
C1377 C1372 1.390 . S
C1377 C1376 1.387 . S
H1378 C1390 0.930 . S
H1379 C1392 0.930 . S
H1380 C1393 0.930 . S
H1381 C1397 0.959 . S
H1382 C1397 0.959 . S
H1383 C1397 0.961 . S
H1384 C1398 0.960 . S
H1385 C1398 0.961 . S
H1386 C1398 0.959 . S
H1387 C1401 0.929 . S
H1388 C1402 0.931 . S
H1389 C1404 0.930 . S
C1390 H1378 0.930 . S
C1390 C1391 1.399 . S
C1390 C1395 1.399 . S
C1391 C1390 1.399 . S
C1391 C1392 1.376 . S
C1392 H1379 0.930 . S
C1392 C1391 1.376 . S
C1392 C1393 1.388 . S
C1393 H1380 0.930 . S
C1393 C1392 1.388 . S
C1393 C1394 1.390 . S
C1394 C1393 1.390 . S
C1394 C1395 1.394 . S
C1394 C1400 1.465 . S
C1395 C1390 1.399 . S
C1395 C1394 1.394 . S
C1395 C1396 1.516 . S
C1396 C1395 1.516 . S
C1396 C1397 1.502 . S
C1396 C1398 1.561 . S
C1396 C1399 1.526 . S
C1397 H1381 0.959 . S
C1397 H1382 0.959 . S
C1397 H1383 0.961 . S
C1397 C1396 1.502 . S
C1398 H1384 0.960 . S
C1398 H1385 0.961 . S
C1398 H1386 0.959 . S
C1398 C1396 1.561 . S
C1399 C1396 1.526 . S
C1399 C1400 1.396 . S
C1399 C1404 1.390 . S
C1400 C1394 1.465 . S
C1400 C1399 1.396 . S
C1400 C1401 1.399 . S
C1401 H1387 0.929 . S
C1401 C1400 1.399 . S
C1401 C1402 1.385 . S
C1402 H1388 0.931 . S
C1402 C1401 1.385 . S
C1402 C1403 1.389 . S
C1403 C1402 1.389 . S
C1403 C1404 1.387 . S
C1404 H1389 0.930 . S
C1404 C1399 1.390 . S
C1404 C1403 1.387 . S
H1405 C1417 0.930 . S
H1406 C1419 0.930 . S
H1407 C1420 0.930 . S
H1408 C1424 0.959 . S
H1409 C1424 0.959 . S
H1410 C1424 0.961 . S
H1411 C1425 0.960 . S
H1412 C1425 0.961 . S
H1413 C1425 0.959 . S
H1414 C1428 0.929 . S
H1415 C1429 0.931 . S
H1416 C1431 0.930 . S
C1417 H1405 0.930 . S
C1417 C1418 1.399 . S
C1417 C1422 1.399 . S
C1418 C1417 1.399 . S
C1418 C1419 1.376 . S
C1419 H1406 0.930 . S
C1419 C1418 1.376 . S
C1419 C1420 1.388 . S
C1420 H1407 0.930 . S
C1420 C1419 1.388 . S
C1420 C1421 1.390 . S
C1421 C1420 1.390 . S
C1421 C1422 1.394 . S
C1421 C1427 1.465 . S
C1422 C1417 1.399 . S
C1422 C1421 1.394 . S
C1422 C1423 1.516 . S
C1423 C1422 1.516 . S
C1423 C1424 1.502 . S
C1423 C1425 1.561 . S
C1423 C1426 1.526 . S
C1424 H1408 0.959 . S
C1424 H1409 0.959 . S
C1424 H1410 0.961 . S
C1424 C1423 1.502 . S
C1425 H1411 0.960 . S
C1425 H1412 0.961 . S
C1425 H1413 0.959 . S
C1425 C1423 1.561 . S
C1426 C1423 1.526 . S
C1426 C1427 1.396 . S
C1426 C1431 1.390 . S
C1427 C1421 1.465 . S
C1427 C1426 1.396 . S
C1427 C1428 1.399 . S
C1428 H1414 0.929 . S
C1428 C1427 1.399 . S
C1428 C1429 1.385 . S
C1429 H1415 0.931 . S
C1429 C1428 1.385 . S
C1429 C1430 1.389 . S
C1430 C1429 1.389 . S
C1430 C1431 1.387 . S
C1431 H1416 0.930 . S
C1431 C1426 1.390 . S
C1431 C1430 1.387 . S
H1432 C1444 0.930 . S
H1433 C1446 0.930 . S
H1434 C1447 0.930 . S
H1435 C1451 0.959 . S
H1436 C1451 0.959 . S
H1437 C1451 0.961 . S
H1438 C1452 0.960 . S
H1439 C1452 0.961 . S
H1440 C1452 0.959 . S
H1441 C1455 0.929 . S
H1442 C1456 0.931 . S
H1443 C1458 0.930 . S
C1444 H1432 0.930 . S
C1444 C1445 1.399 . S
C1444 C1449 1.399 . S
C1445 C1444 1.399 . S
C1445 C1446 1.376 . S
C1446 H1433 0.930 . S
C1446 C1445 1.376 . S
C1446 C1447 1.388 . S
C1447 H1434 0.930 . S
C1447 C1446 1.388 . S
C1447 C1448 1.390 . S
C1448 C1447 1.390 . S
C1448 C1449 1.394 . S
C1448 C1454 1.465 . S
C1449 C1444 1.399 . S
C1449 C1448 1.394 . S
C1449 C1450 1.516 . S
C1450 C1449 1.516 . S
C1450 C1451 1.502 . S
C1450 C1452 1.561 . S
C1450 C1453 1.526 . S
C1451 H1435 0.959 . S
C1451 H1436 0.959 . S
C1451 H1437 0.961 . S
C1451 C1450 1.502 . S
C1452 H1438 0.960 . S
C1452 H1439 0.961 . S
C1452 H1440 0.959 . S
C1452 C1450 1.561 . S
C1453 C1450 1.526 . S
C1453 C1454 1.396 . S
C1453 C1458 1.390 . S
C1454 C1448 1.465 . S
C1454 C1453 1.396 . S
C1454 C1455 1.399 . S
C1455 H1441 0.929 . S
C1455 C1454 1.399 . S
C1455 C1456 1.385 . S
C1456 H1442 0.931 . S
C1456 C1455 1.385 . S
C1456 C1457 1.389 . S
C1457 C1456 1.389 . S
C1457 C1458 1.387 . S
C1458 H1443 0.930 . S
C1458 C1453 1.390 . S
C1458 C1457 1.387 . S
H1459 C1471 0.930 . S
H1460 C1473 0.930 . S
H1461 C1474 0.930 . S
H1462 C1478 0.959 . S
H1463 C1478 0.959 . S
H1464 C1478 0.961 . S
H1465 C1479 0.960 . S
H1466 C1479 0.961 . S
H1467 C1479 0.959 . S
H1468 C1482 0.929 . S
H1469 C1483 0.931 . S
H1470 C1485 0.930 . S
C1471 H1459 0.930 . S
C1471 C1472 1.399 . S
C1471 C1476 1.399 . S
C1472 C1471 1.399 . S
C1472 C1473 1.376 . S
C1473 H1460 0.930 . S
C1473 C1472 1.376 . S
C1473 C1474 1.388 . S
C1474 H1461 0.930 . S
C1474 C1473 1.388 . S
C1474 C1475 1.390 . S
C1475 C1474 1.390 . S
C1475 C1476 1.394 . S
C1475 C1481 1.465 . S
C1476 C1471 1.399 . S
C1476 C1475 1.394 . S
C1476 C1477 1.516 . S
C1477 C1476 1.516 . S
C1477 C1478 1.502 . S
C1477 C1479 1.561 . S
C1477 C1480 1.526 . S
C1478 H1462 0.959 . S
C1478 H1463 0.959 . S
C1478 H1464 0.961 . S
C1478 C1477 1.502 . S
C1479 H1465 0.960 . S
C1479 H1466 0.961 . S
C1479 H1467 0.959 . S
C1479 C1477 1.561 . S
C1480 C1477 1.526 . S
C1480 C1481 1.396 . S
C1480 C1485 1.390 . S
C1481 C1475 1.465 . S
C1481 C1480 1.396 . S
C1481 C1482 1.399 . S
C1482 H1468 0.929 . S
C1482 C1481 1.399 . S
C1482 C1483 1.385 . S
C1483 H1469 0.931 . S
C1483 C1482 1.385 . S
C1483 C1484 1.389 . S
C1484 C1483 1.389 . S
C1484 C1485 1.387 . S
C1485 H1470 0.930 . S
C1485 C1480 1.390 . S
C1485 C1484 1.387 . S
H1486 C1498 0.930 . S
H1487 C1500 0.930 . S
H1488 C1501 0.930 . S
H1489 C1505 0.959 . S
H1490 C1505 0.959 . S
H1491 C1505 0.961 . S
H1492 C1506 0.960 . S
H1493 C1506 0.961 . S
H1494 C1506 0.959 . S
H1495 C1509 0.929 . S
H1496 C1510 0.931 . S
H1497 C1512 0.930 . S
C1498 H1486 0.930 . S
C1498 C1499 1.399 . S
C1498 C1503 1.399 . S
C1499 C1498 1.399 . S
C1499 C1500 1.376 . S
C1500 H1487 0.930 . S
C1500 C1499 1.376 . S
C1500 C1501 1.388 . S
C1501 H1488 0.930 . S
C1501 C1500 1.388 . S
C1501 C1502 1.390 . S
C1502 C1501 1.390 . S
C1502 C1503 1.394 . S
C1502 C1508 1.465 . S
C1503 C1498 1.399 . S
C1503 C1502 1.394 . S
C1503 C1504 1.516 . S
C1504 C1503 1.516 . S
C1504 C1505 1.502 . S
C1504 C1506 1.561 . S
C1504 C1507 1.526 . S
C1505 H1489 0.959 . S
C1505 H1490 0.959 . S
C1505 H1491 0.961 . S
C1505 C1504 1.502 . S
C1506 H1492 0.960 . S
C1506 H1493 0.961 . S
C1506 H1494 0.959 . S
C1506 C1504 1.561 . S
C1507 C1504 1.526 . S
C1507 C1508 1.396 . S
C1507 C1512 1.390 . S
C1508 C1502 1.465 . S
C1508 C1507 1.396 . S
C1508 C1509 1.399 . S
C1509 H1495 0.929 . S
C1509 C1508 1.399 . S
C1509 C1510 1.385 . S
C1510 H1496 0.931 . S
C1510 C1509 1.385 . S
C1510 C1511 1.389 . S
C1511 C1510 1.389 . S
C1511 C1512 1.387 . S
C1512 H1497 0.930 . S
C1512 C1507 1.390 . S
C1512 C1511 1.387 . S
H1513 C1525 0.930 . S
H1514 C1527 0.930 . S
H1515 C1528 0.930 . S
H1516 C1532 0.959 . S
H1517 C1532 0.959 . S
H1518 C1532 0.961 . S
H1519 C1533 0.960 . S
H1520 C1533 0.961 . S
H1521 C1533 0.959 . S
H1522 C1536 0.929 . S
H1523 C1537 0.931 . S
H1524 C1539 0.930 . S
C1525 H1513 0.930 . S
C1525 C1526 1.399 . S
C1525 C1530 1.399 . S
C1526 C1525 1.399 . S
C1526 C1527 1.376 . S
C1527 H1514 0.930 . S
C1527 C1526 1.376 . S
C1527 C1528 1.388 . S
C1528 H1515 0.930 . S
C1528 C1527 1.388 . S
C1528 C1529 1.390 . S
C1529 C1528 1.390 . S
C1529 C1530 1.394 . S
C1529 C1535 1.465 . S
C1530 C1525 1.399 . S
C1530 C1529 1.394 . S
C1530 C1531 1.516 . S
C1531 C1530 1.516 . S
C1531 C1532 1.502 . S
C1531 C1533 1.561 . S
C1531 C1534 1.526 . S
C1532 H1516 0.959 . S
C1532 H1517 0.959 . S
C1532 H1518 0.961 . S
C1532 C1531 1.502 . S
C1533 H1519 0.960 . S
C1533 H1520 0.961 . S
C1533 H1521 0.959 . S
C1533 C1531 1.561 . S
C1534 C1531 1.526 . S
C1534 C1535 1.396 . S
C1534 C1539 1.390 . S
C1535 C1529 1.465 . S
C1535 C1534 1.396 . S
C1535 C1536 1.399 . S
C1536 H1522 0.929 . S
C1536 C1535 1.399 . S
C1536 C1537 1.385 . S
C1537 H1523 0.931 . S
C1537 C1536 1.385 . S
C1537 C1538 1.389 . S
C1538 C1537 1.389 . S
C1538 C1539 1.387 . S
C1539 H1524 0.930 . S
C1539 C1534 1.390 . S
C1539 C1538 1.387 . S
H1540 C1552 0.930 . S
H1541 C1554 0.930 . S
H1542 C1555 0.930 . S
H1543 C1559 0.959 . S
H1544 C1559 0.959 . S
H1545 C1559 0.961 . S
H1546 C1560 0.960 . S
H1547 C1560 0.961 . S
H1548 C1560 0.959 . S
H1549 C1563 0.929 . S
H1550 C1564 0.931 . S
H1551 C1566 0.930 . S
C1552 H1540 0.930 . S
C1552 C1553 1.399 . S
C1552 C1557 1.399 . S
C1553 C1552 1.399 . S
C1553 C1554 1.376 . S
C1554 H1541 0.930 . S
C1554 C1553 1.376 . S
C1554 C1555 1.388 . S
C1555 H1542 0.930 . S
C1555 C1554 1.388 . S
C1555 C1556 1.390 . S
C1556 C1555 1.390 . S
C1556 C1557 1.394 . S
C1556 C1562 1.465 . S
C1557 C1552 1.399 . S
C1557 C1556 1.394 . S
C1557 C1558 1.516 . S
C1558 C1557 1.516 . S
C1558 C1559 1.502 . S
C1558 C1560 1.561 . S
C1558 C1561 1.526 . S
C1559 H1543 0.959 . S
C1559 H1544 0.959 . S
C1559 H1545 0.961 . S
C1559 C1558 1.502 . S
C1560 H1546 0.960 . S
C1560 H1547 0.961 . S
C1560 H1548 0.959 . S
C1560 C1558 1.561 . S
C1561 C1558 1.526 . S
C1561 C1562 1.396 . S
C1561 C1566 1.390 . S
C1562 C1556 1.465 . S
C1562 C1561 1.396 . S
C1562 C1563 1.399 . S
C1563 H1549 0.929 . S
C1563 C1562 1.399 . S
C1563 C1564 1.385 . S
C1564 H1550 0.931 . S
C1564 C1563 1.385 . S
C1564 C1565 1.389 . S
C1565 C1564 1.389 . S
C1565 C1566 1.387 . S
C1566 H1551 0.930 . S
C1566 C1561 1.390 . S
C1566 C1565 1.387 . S
H1567 C1579 0.930 . S
H1568 C1581 0.930 . S
H1569 C1582 0.930 . S
H1570 C1586 0.959 . S
H1571 C1586 0.959 . S
H1572 C1586 0.961 . S
H1573 C1587 0.960 . S
H1574 C1587 0.961 . S
H1575 C1587 0.959 . S
H1576 C1590 0.929 . S
H1577 C1591 0.931 . S
H1578 C1593 0.930 . S
C1579 H1567 0.930 . S
C1579 C1580 1.399 . S
C1579 C1584 1.399 . S
C1580 C1579 1.399 . S
C1580 C1581 1.376 . S
C1581 H1568 0.930 . S
C1581 C1580 1.376 . S
C1581 C1582 1.388 . S
C1582 H1569 0.930 . S
C1582 C1581 1.388 . S
C1582 C1583 1.390 . S
C1583 C1582 1.390 . S
C1583 C1584 1.394 . S
C1583 C1589 1.465 . S
C1584 C1579 1.399 . S
C1584 C1583 1.394 . S
C1584 C1585 1.516 . S
C1585 C1584 1.516 . S
C1585 C1586 1.502 . S
C1585 C1587 1.561 . S
C1585 C1588 1.526 . S
C1586 H1570 0.959 . S
C1586 H1571 0.959 . S
C1586 H1572 0.961 . S
C1586 C1585 1.502 . S
C1587 H1573 0.960 . S
C1587 H1574 0.961 . S
C1587 H1575 0.959 . S
C1587 C1585 1.561 . S
C1588 C1585 1.526 . S
C1588 C1589 1.396 . S
C1588 C1593 1.390 . S
C1589 C1583 1.465 . S
C1589 C1588 1.396 . S
C1589 C1590 1.399 . S
C1590 H1576 0.929 . S
C1590 C1589 1.399 . S
C1590 C1591 1.385 . S
C1591 H1577 0.931 . S
C1591 C1590 1.385 . S
C1591 C1592 1.389 . S
C1592 C1591 1.389 . S
C1592 C1593 1.387 . S
C1593 H1578 0.930 . S
C1593 C1588 1.390 . S
C1593 C1592 1.387 . S
H1594 C1606 0.930 . S
H1595 C1608 0.930 . S
H1596 C1609 0.930 . S
H1597 C1613 0.959 . S
H1598 C1613 0.959 . S
H1599 C1613 0.961 . S
H1600 C1614 0.960 . S
H1601 C1614 0.961 . S
H1602 C1614 0.959 . S
H1603 C1617 0.929 . S
H1604 C1618 0.931 . S
H1605 C1620 0.930 . S
C1606 H1594 0.930 . S
C1606 C1607 1.399 . S
C1606 C1611 1.399 . S
C1607 C1606 1.399 . S
C1607 C1608 1.376 . S
C1608 H1595 0.930 . S
C1608 C1607 1.376 . S
C1608 C1609 1.388 . S
C1609 H1596 0.930 . S
C1609 C1608 1.388 . S
C1609 C1610 1.390 . S
C1610 C1609 1.390 . S
C1610 C1611 1.394 . S
C1610 C1616 1.465 . S
C1611 C1606 1.399 . S
C1611 C1610 1.394 . S
C1611 C1612 1.516 . S
C1612 C1611 1.516 . S
C1612 C1613 1.502 . S
C1612 C1614 1.561 . S
C1612 C1615 1.526 . S
C1613 H1597 0.959 . S
C1613 H1598 0.959 . S
C1613 H1599 0.961 . S
C1613 C1612 1.502 . S
C1614 H1600 0.960 . S
C1614 H1601 0.961 . S
C1614 H1602 0.959 . S
C1614 C1612 1.561 . S
C1615 C1612 1.526 . S
C1615 C1616 1.396 . S
C1615 C1620 1.390 . S
C1616 C1610 1.465 . S
C1616 C1615 1.396 . S
C1616 C1617 1.399 . S
C1617 H1603 0.929 . S
C1617 C1616 1.399 . S
C1617 C1618 1.385 . S
C1618 H1604 0.931 . S
C1618 C1617 1.385 . S
C1618 C1619 1.389 . S
C1619 C1618 1.389 . S
C1619 C1620 1.387 . S
C1620 H1605 0.930 . S
C1620 C1615 1.390 . S
C1620 C1619 1.387 . S
H1621 C1633 0.930 . S
H1622 C1635 0.930 . S
H1623 C1636 0.930 . S
H1624 C1640 0.959 . S
H1625 C1640 0.959 . S
H1626 C1640 0.961 . S
H1627 C1641 0.960 . S
H1628 C1641 0.961 . S
H1629 C1641 0.959 . S
H1630 C1644 0.929 . S
H1631 C1645 0.931 . S
H1632 C1647 0.930 . S
C1633 H1621 0.930 . S
C1633 C1634 1.399 . S
C1633 C1638 1.399 . S
C1634 C1633 1.399 . S
C1634 C1635 1.376 . S
C1635 H1622 0.930 . S
C1635 C1634 1.376 . S
C1635 C1636 1.388 . S
C1636 H1623 0.930 . S
C1636 C1635 1.388 . S
C1636 C1637 1.390 . S
C1637 C1636 1.390 . S
C1637 C1638 1.394 . S
C1637 C1643 1.465 . S
C1638 C1633 1.399 . S
C1638 C1637 1.394 . S
C1638 C1639 1.516 . S
C1639 C1638 1.516 . S
C1639 C1640 1.502 . S
C1639 C1641 1.561 . S
C1639 C1642 1.526 . S
C1640 H1624 0.959 . S
C1640 H1625 0.959 . S
C1640 H1626 0.961 . S
C1640 C1639 1.502 . S
C1641 H1627 0.960 . S
C1641 H1628 0.961 . S
C1641 H1629 0.959 . S
C1641 C1639 1.561 . S
C1642 C1639 1.526 . S
C1642 C1643 1.396 . S
C1642 C1647 1.390 . S
C1643 C1637 1.465 . S
C1643 C1642 1.396 . S
C1643 C1644 1.399 . S
C1644 H1630 0.929 . S
C1644 C1643 1.399 . S
C1644 C1645 1.385 . S
C1645 H1631 0.931 . S
C1645 C1644 1.385 . S
C1645 C1646 1.389 . S
C1646 C1645 1.389 . S
C1646 C1647 1.387 . S
C1647 H1632 0.930 . S
C1647 C1642 1.390 . S
C1647 C1646 1.387 . S
H1648 C1660 0.930 . S
H1649 C1662 0.930 . S
H1650 C1663 0.930 . S
H1651 C1667 0.959 . S
H1652 C1667 0.959 . S
H1653 C1667 0.961 . S
H1654 C1668 0.960 . S
H1655 C1668 0.961 . S
H1656 C1668 0.959 . S
H1657 C1671 0.929 . S
H1658 C1672 0.931 . S
H1659 C1674 0.930 . S
C1660 H1648 0.930 . S
C1660 C1661 1.399 . S
C1660 C1665 1.399 . S
C1661 C1660 1.399 . S
C1661 C1662 1.376 . S
C1662 H1649 0.930 . S
C1662 C1661 1.376 . S
C1662 C1663 1.388 . S
C1663 H1650 0.930 . S
C1663 C1662 1.388 . S
C1663 C1664 1.390 . S
C1664 C1663 1.390 . S
C1664 C1665 1.394 . S
C1664 C1670 1.465 . S
C1665 C1660 1.399 . S
C1665 C1664 1.394 . S
C1665 C1666 1.516 . S
C1666 C1665 1.516 . S
C1666 C1667 1.502 . S
C1666 C1668 1.561 . S
C1666 C1669 1.526 . S
C1667 H1651 0.959 . S
C1667 H1652 0.959 . S
C1667 H1653 0.961 . S
C1667 C1666 1.502 . S
C1668 H1654 0.960 . S
C1668 H1655 0.961 . S
C1668 H1656 0.959 . S
C1668 C1666 1.561 . S
C1669 C1666 1.526 . S
C1669 C1670 1.396 . S
C1669 C1674 1.390 . S
C1670 C1664 1.465 . S
C1670 C1669 1.396 . S
C1670 C1671 1.399 . S
C1671 H1657 0.929 . S
C1671 C1670 1.399 . S
C1671 C1672 1.385 . S
C1672 H1658 0.931 . S
C1672 C1671 1.385 . S
C1672 C1673 1.389 . S
C1673 C1672 1.389 . S
C1673 C1674 1.387 . S
C1674 H1659 0.930 . S
C1674 C1669 1.390 . S
C1674 C1673 1.387 . S
H1675 C1687 0.930 . S
H1676 C1689 0.930 . S
H1677 C1690 0.930 . S
H1678 C1694 0.959 . S
H1679 C1694 0.959 . S
H1680 C1694 0.961 . S
H1681 C1695 0.960 . S
H1682 C1695 0.961 . S
H1683 C1695 0.959 . S
H1684 C1698 0.929 . S
H1685 C1699 0.931 . S
H1686 C1701 0.930 . S
C1687 H1675 0.930 . S
C1687 C1688 1.399 . S
C1687 C1692 1.399 . S
C1688 C1687 1.399 . S
C1688 C1689 1.376 . S
C1689 H1676 0.930 . S
C1689 C1688 1.376 . S
C1689 C1690 1.388 . S
C1690 H1677 0.930 . S
C1690 C1689 1.388 . S
C1690 C1691 1.390 . S
C1691 C1690 1.390 . S
C1691 C1692 1.394 . S
C1691 C1697 1.465 . S
C1692 C1687 1.399 . S
C1692 C1691 1.394 . S
C1692 C1693 1.516 . S
C1693 C1692 1.516 . S
C1693 C1694 1.502 . S
C1693 C1695 1.561 . S
C1693 C1696 1.526 . S
C1694 H1678 0.959 . S
C1694 H1679 0.959 . S
C1694 H1680 0.961 . S
C1694 C1693 1.502 . S
C1695 H1681 0.960 . S
C1695 H1682 0.961 . S
C1695 H1683 0.959 . S
C1695 C1693 1.561 . S
C1696 C1693 1.526 . S
C1696 C1697 1.396 . S
C1696 C1701 1.390 . S
C1697 C1691 1.465 . S
C1697 C1696 1.396 . S
C1697 C1698 1.399 . S
C1698 H1684 0.929 . S
C1698 C1697 1.399 . S
C1698 C1699 1.385 . S
C1699 H1685 0.931 . S
C1699 C1698 1.385 . S
C1699 C1700 1.389 . S
C1700 C1699 1.389 . S
C1700 C1701 1.387 . S
C1701 H1686 0.930 . S
C1701 C1696 1.390 . S
C1701 C1700 1.387 . S
H1702 C1714 0.930 . S
H1703 C1716 0.930 . S
H1704 C1717 0.930 . S
H1705 C1721 0.959 . S
H1706 C1721 0.959 1_455 S
H1707 C1721 0.961 . S
H1708 C1722 0.960 . S
H1709 C1722 0.961 . S
H1710 C1722 0.959 . S
H1711 C1725 0.929 . S
H1712 C1726 0.931 . S
H1713 C1728 0.930 . S
C1714 H1702 0.930 . S
C1714 C1715 1.399 . S
C1714 C1719 1.399 . S
C1715 C1714 1.399 . S
C1715 C1716 1.376 . S
C1716 H1703 0.930 . S
C1716 C1715 1.376 . S
C1716 C1717 1.388 . S
C1717 H1704 0.930 . S
C1717 C1716 1.388 . S
C1717 C1718 1.390 . S
C1718 C1717 1.390 . S
C1718 C1719 1.394 . S
C1718 C1724 1.465 . S
C1719 C1714 1.399 . S
C1719 C1718 1.394 . S
C1719 C1720 1.516 . S
C1720 C1719 1.516 . S
C1720 C1721 1.502 . S
C1720 C1722 1.561 . S
C1720 C1723 1.526 . S
C1721 H1705 0.959 . S
C1721 H1706 0.959 1_655 S
C1721 H1707 0.961 . S
C1721 C1720 1.502 . S
C1722 H1708 0.960 . S
C1722 H1709 0.961 . S
C1722 H1710 0.959 . S
C1722 C1720 1.561 . S
C1723 C1720 1.526 . S
C1723 C1724 1.396 . S
C1723 C1728 1.390 1_655 S
C1724 C1718 1.465 . S
C1724 C1723 1.396 . S
C1724 C1725 1.399 . S
C1725 H1711 0.929 . S
C1725 C1724 1.399 . S
C1725 C1726 1.385 1_655 S
C1726 H1712 0.931 . S
C1726 C1725 1.385 1_455 S
C1726 C1727 1.389 . S
C1727 C1726 1.389 . S
C1727 C1728 1.387 . S
C1728 H1713 0.930 . S
C1728 C1723 1.390 1_455 S
C1728 C1727 1.387 . S
H1729 C1741 0.930 . S
H1730 C1743 0.930 . S
H1731 C1744 0.930 . S
H1732 C1748 0.959 . S
H1733 C1748 0.959 . S
H1734 C1748 0.961 . S
H1735 C1749 0.960 . S
H1736 C1749 0.961 . S
H1737 C1749 0.959 . S
H1738 C1752 0.929 . S
H1739 C1753 0.931 . S
H1740 C1755 0.930 . S
C1741 H1729 0.930 . S
C1741 C1742 1.399 . S
C1741 C1746 1.399 . S
C1742 C1741 1.399 . S
C1742 C1743 1.376 . S
C1743 H1730 0.930 . S
C1743 C1742 1.376 . S
C1743 C1744 1.388 . S
C1744 H1731 0.930 . S
C1744 C1743 1.388 . S
C1744 C1745 1.390 . S
C1745 C1744 1.390 . S
C1745 C1746 1.394 . S
C1745 C1751 1.465 . S
C1746 C1741 1.399 . S
C1746 C1745 1.394 . S
C1746 C1747 1.516 . S
C1747 C1746 1.516 . S
C1747 C1748 1.502 . S
C1747 C1749 1.561 . S
C1747 C1750 1.526 . S
C1748 H1732 0.959 . S
C1748 H1733 0.959 . S
C1748 H1734 0.961 . S
C1748 C1747 1.502 . S
C1749 H1735 0.960 . S
C1749 H1736 0.961 . S
C1749 H1737 0.959 . S
C1749 C1747 1.561 . S
C1750 C1747 1.526 . S
C1750 C1751 1.396 . S
C1750 C1755 1.390 . S
C1751 C1745 1.465 . S
C1751 C1750 1.396 . S
C1751 C1752 1.399 . S
C1752 H1738 0.929 . S
C1752 C1751 1.399 . S
C1752 C1753 1.385 . S
C1753 H1739 0.931 . S
C1753 C1752 1.385 . S
C1753 C1754 1.389 . S
C1754 C1753 1.389 . S
C1754 C1755 1.387 . S
C1755 H1740 0.930 . S
C1755 C1750 1.390 . S
C1755 C1754 1.387 . S
H1756 C1768 0.930 . S
H1757 C1770 0.930 . S
H1758 C1771 0.930 . S
H1759 C1775 0.959 . S
H1760 C1775 0.959 . S
H1761 C1775 0.961 . S
H1762 C1776 0.960 . S
H1763 C1776 0.961 . S
H1764 C1776 0.959 . S
H1765 C1779 0.929 . S
H1766 C1780 0.931 . S
H1767 C1782 0.930 . S
C1768 H1756 0.930 . S
C1768 C1769 1.399 . S
C1768 C1773 1.399 . S
C1769 C1768 1.399 . S
C1769 C1770 1.376 . S
C1770 H1757 0.930 . S
C1770 C1769 1.376 . S
C1770 C1771 1.388 . S
C1771 H1758 0.930 . S
C1771 C1770 1.388 . S
C1771 C1772 1.390 . S
C1772 C1771 1.390 . S
C1772 C1773 1.394 . S
C1772 C1778 1.465 . S
C1773 C1768 1.399 . S
C1773 C1772 1.394 . S
C1773 C1774 1.516 . S
C1774 C1773 1.516 . S
C1774 C1775 1.502 . S
C1774 C1776 1.561 . S
C1774 C1777 1.526 . S
C1775 H1759 0.959 . S
C1775 H1760 0.959 . S
C1775 H1761 0.961 . S
C1775 C1774 1.502 . S
C1776 H1762 0.960 . S
C1776 H1763 0.961 . S
C1776 H1764 0.959 . S
C1776 C1774 1.561 . S
C1777 C1774 1.526 . S
C1777 C1778 1.396 . S
C1777 C1782 1.390 . S
C1778 C1772 1.465 . S
C1778 C1777 1.396 . S
C1778 C1779 1.399 . S
C1779 H1765 0.929 . S
C1779 C1778 1.399 . S
C1779 C1780 1.385 . S
C1780 H1766 0.931 . S
C1780 C1779 1.385 . S
C1780 C1781 1.389 . S
C1781 C1780 1.389 . S
C1781 C1782 1.387 . S
C1782 H1767 0.930 . S
C1782 C1777 1.390 . S
C1782 C1781 1.387 . S
H1783 C1795 0.930 . S
H1784 C1797 0.930 . S
H1785 C1798 0.930 . S
H1786 C1802 0.959 . S
H1787 C1802 0.959 . S
H1788 C1802 0.961 . S
H1789 C1803 0.960 . S
H1790 C1803 0.961 . S
H1791 C1803 0.959 . S
H1792 C1806 0.929 . S
H1793 C1807 0.931 . S
H1794 C1809 0.930 . S
C1795 H1783 0.930 . S
C1795 C1796 1.399 . S
C1795 C1800 1.399 . S
C1796 C1795 1.399 . S
C1796 C1797 1.376 . S
C1797 H1784 0.930 . S
C1797 C1796 1.376 . S
C1797 C1798 1.388 . S
C1798 H1785 0.930 . S
C1798 C1797 1.388 . S
C1798 C1799 1.390 . S
C1799 C1798 1.390 . S
C1799 C1800 1.394 . S
C1799 C1805 1.465 . S
C1800 C1795 1.399 . S
C1800 C1799 1.394 . S
C1800 C1801 1.516 . S
C1801 C1800 1.516 . S
C1801 C1802 1.502 . S
C1801 C1803 1.561 . S
C1801 C1804 1.526 . S
C1802 H1786 0.959 . S
C1802 H1787 0.959 . S
C1802 H1788 0.961 . S
C1802 C1801 1.502 . S
C1803 H1789 0.960 . S
C1803 H1790 0.961 . S
C1803 H1791 0.959 . S
C1803 C1801 1.561 . S
C1804 C1801 1.526 . S
C1804 C1805 1.396 . S
C1804 C1809 1.390 . S
C1805 C1799 1.465 . S
C1805 C1804 1.396 . S
C1805 C1806 1.399 . S
C1806 H1792 0.929 . S
C1806 C1805 1.399 . S
C1806 C1807 1.385 . S
C1807 H1793 0.931 . S
C1807 C1806 1.385 . S
C1807 C1808 1.389 . S
C1808 C1807 1.389 . S
C1808 C1809 1.387 . S
C1809 H1794 0.930 . S
C1809 C1804 1.390 . S
C1809 C1808 1.387 . S
H1810 C1822 0.930 . S
H1811 C1824 0.930 . S
H1812 C1825 0.930 . S
H1813 C1829 0.959 . S
H1814 C1829 0.959 . S
H1815 C1829 0.961 . S
H1816 C1830 0.960 . S
H1817 C1830 0.961 . S
H1818 C1830 0.959 . S
H1819 C1833 0.929 . S
H1820 C1834 0.944 . S
H1821 C1836 0.930 1_455 S
C1822 H1810 0.930 . S
C1822 C1823 1.399 . S
C1822 C1827 1.399 . S
C1823 C1822 1.399 . S
C1823 C1824 1.376 . S
C1824 H1811 0.930 . S
C1824 C1823 1.376 . S
C1824 C1825 1.388 . S
C1825 H1812 0.930 . S
C1825 C1824 1.388 . S
C1825 C1826 1.390 . S
C1826 C1825 1.390 . S
C1826 C1827 1.394 . S
C1826 C1832 1.465 . S
C1827 C1822 1.399 . S
C1827 C1826 1.394 . S
C1827 C1828 1.516 . S
C1828 C1827 1.516 . S
C1828 C1829 1.502 . S
C1828 C1830 1.561 . S
C1828 C1831 1.526 . S
C1829 H1813 0.959 . S
C1829 H1814 0.959 . S
C1829 H1815 0.961 . S
C1829 C1828 1.502 . S
C1830 H1816 0.960 . S
C1830 H1817 0.961 . S
C1830 H1818 0.959 . S
C1830 C1828 1.561 . S
C1831 C1828 1.526 . S
C1831 C1832 1.396 . S
C1831 C1836 1.390 . S
C1832 C1826 1.465 . S
C1832 C1831 1.396 . S
C1832 C1833 1.399 . S
C1833 H1819 0.929 . S
C1833 C1832 1.399 . S
C1833 C1834 1.365 1_655 S
C1834 H1820 0.944 . S
C1834 C1833 1.365 1_455 S
C1834 C1835 1.397 . S
C1835 C1834 1.397 . S
C1835 C1836 1.387 1_455 S
C1836 H1821 0.930 1_655 S
C1836 C1831 1.390 . S
C1836 C1835 1.387 1_655 S
H1837 C1849 0.930 . S
H1838 C1851 0.930 . S
H1839 C1852 0.930 . S
H1840 C1856 0.959 . S
H1841 C1856 0.959 . S
H1842 C1856 0.961 . S
H1843 C1857 0.960 . S
H1844 C1857 0.961 . S
H1845 C1857 0.959 . S
H1846 C1860 0.929 . S
H1847 C1861 0.931 . S
H1848 C1863 0.930 . S
C1849 H1837 0.930 . S
C1849 C1850 1.399 . S
C1849 C1854 1.399 . S
C1850 C1849 1.399 . S
C1850 C1851 1.376 . S
C1851 H1838 0.930 . S
C1851 C1850 1.376 . S
C1851 C1852 1.388 . S
C1852 H1839 0.930 . S
C1852 C1851 1.388 . S
C1852 C1853 1.390 . S
C1853 C1852 1.390 . S
C1853 C1854 1.394 . S
C1853 C1859 1.465 . S
C1854 C1849 1.399 . S
C1854 C1853 1.394 . S
C1854 C1855 1.516 . S
C1855 C1854 1.516 . S
C1855 C1856 1.502 . S
C1855 C1857 1.561 . S
C1855 C1858 1.526 . S
C1856 H1840 0.959 . S
C1856 H1841 0.959 . S
C1856 H1842 0.961 . S
C1856 C1855 1.502 . S
C1857 H1843 0.960 . S
C1857 H1844 0.961 . S
C1857 H1845 0.959 . S
C1857 C1855 1.561 . S
C1858 C1855 1.526 . S
C1858 C1859 1.396 . S
C1858 C1863 1.390 . S
C1859 C1853 1.465 . S
C1859 C1858 1.396 . S
C1859 C1860 1.399 . S
C1860 H1846 0.929 . S
C1860 C1859 1.399 . S
C1860 C1861 1.385 . S
C1861 H1847 0.931 . S
C1861 C1860 1.385 . S
C1861 C1862 1.389 . S
C1862 C1861 1.389 . S
C1862 C1863 1.387 . S
C1863 H1848 0.930 . S
C1863 C1858 1.390 . S
C1863 C1862 1.387 . S
H1864 C1876 0.930 . S
H1865 C1878 0.930 . S
H1866 C1879 0.930 . S
H1867 C1883 0.959 . S
H1868 C1883 0.959 . S
H1869 C1883 0.961 . S
H1870 C1884 0.960 . S
H1871 C1884 0.961 . S
H1872 C1884 0.959 . S
H1873 C1887 0.929 . S
H1874 C1888 0.931 . S
H1875 C1890 0.930 . S
C1876 H1864 0.930 . S
C1876 C1877 1.399 . S
C1876 C1881 1.399 . S
C1877 C1876 1.399 . S
C1877 C1878 1.376 . S
C1878 H1865 0.930 . S
C1878 C1877 1.376 . S
C1878 C1879 1.388 . S
C1879 H1866 0.930 . S
C1879 C1878 1.388 . S
C1879 C1880 1.390 . S
C1880 C1879 1.390 . S
C1880 C1881 1.394 . S
C1880 C1886 1.465 . S
C1881 C1876 1.399 . S
C1881 C1880 1.394 . S
C1881 C1882 1.516 . S
C1882 C1881 1.516 . S
C1882 C1883 1.502 . S
C1882 C1884 1.561 . S
C1882 C1885 1.526 . S
C1883 H1867 0.959 . S
C1883 H1868 0.959 . S
C1883 H1869 0.961 . S
C1883 C1882 1.502 . S
C1884 H1870 0.960 . S
C1884 H1871 0.961 . S
C1884 H1872 0.959 . S
C1884 C1882 1.561 . S
C1885 C1882 1.526 . S
C1885 C1886 1.396 . S
C1885 C1890 1.390 . S
C1886 C1880 1.465 . S
C1886 C1885 1.396 . S
C1886 C1887 1.399 . S
C1887 H1873 0.929 . S
C1887 C1886 1.399 . S
C1887 C1888 1.385 . S
C1888 H1874 0.931 . S
C1888 C1887 1.385 . S
C1888 C1889 1.389 . S
C1889 C1888 1.389 . S
C1889 C1890 1.387 . S
C1890 H1875 0.930 . S
C1890 C1885 1.390 . S
C1890 C1889 1.387 . S
H1891 C1903 0.930 . S
H1892 C1905 0.930 . S
H1893 C1906 0.930 . S
H1894 C1910 0.959 . S
H1895 C1910 0.959 . S
H1896 C1910 0.961 . S
H1897 C1911 0.960 . S
H1898 C1911 0.961 . S
H1899 C1911 0.959 . S
H1900 C1914 0.929 . S
H1901 C1915 0.931 . S
H1902 C1917 0.930 . S
C1903 H1891 0.930 . S
C1903 C1904 1.399 . S
C1903 C1908 1.399 . S
C1904 C1903 1.399 . S
C1904 C1905 1.376 . S
C1905 H1892 0.930 . S
C1905 C1904 1.376 . S
C1905 C1906 1.388 . S
C1906 H1893 0.930 . S
C1906 C1905 1.388 . S
C1906 C1907 1.390 . S
C1907 C1906 1.390 . S
C1907 C1908 1.394 . S
C1907 C1913 1.465 . S
C1908 C1903 1.399 . S
C1908 C1907 1.394 . S
C1908 C1909 1.516 . S
C1909 C1908 1.516 . S
C1909 C1910 1.502 . S
C1909 C1911 1.561 . S
C1909 C1912 1.526 . S
C1910 H1894 0.959 . S
C1910 H1895 0.959 . S
C1910 H1896 0.961 . S
C1910 C1909 1.502 . S
C1911 H1897 0.960 . S
C1911 H1898 0.961 . S
C1911 H1899 0.959 . S
C1911 C1909 1.561 . S
C1912 C1909 1.526 . S
C1912 C1913 1.396 . S
C1912 C1917 1.390 . S
C1913 C1907 1.465 . S
C1913 C1912 1.396 . S
C1913 C1914 1.399 . S
C1914 H1900 0.929 . S
C1914 C1913 1.399 . S
C1914 C1915 1.385 . S
C1915 H1901 0.931 . S
C1915 C1914 1.385 . S
C1915 C1916 1.389 . S
C1916 C1915 1.389 . S
C1916 C1917 1.387 . S
C1917 H1902 0.930 . S
C1917 C1912 1.390 . S
C1917 C1916 1.387 . S
H1918 C1930 0.930 . S
H1919 C1932 0.930 . S
H1920 C1933 0.930 . S
H1921 C1937 0.959 . S
H1922 C1937 0.959 . S
H1923 C1937 0.961 . S
H1924 C1938 0.960 . S
H1925 C1938 0.961 . S
H1926 C1938 0.959 . S
H1927 C1941 0.929 . S
H1928 C1942 0.931 . S
H1929 C1944 0.930 . S
C1930 H1918 0.930 . S
C1930 C1931 1.399 . S
C1930 C1935 1.399 . S
C1931 C1930 1.399 . S
C1931 C1932 1.376 . S
C1932 H1919 0.930 . S
C1932 C1931 1.376 . S
C1932 C1933 1.388 . S
C1933 H1920 0.930 . S
C1933 C1932 1.388 . S
C1933 C1934 1.390 . S
C1934 C1933 1.390 . S
C1934 C1935 1.394 . S
C1934 C1940 1.465 . S
C1935 C1930 1.399 . S
C1935 C1934 1.394 . S
C1935 C1936 1.516 . S
C1936 C1935 1.516 . S
C1936 C1937 1.502 . S
C1936 C1938 1.561 . S
C1936 C1939 1.526 . S
C1937 H1921 0.959 . S
C1937 H1922 0.959 . S
C1937 H1923 0.961 . S
C1937 C1936 1.502 . S
C1938 H1924 0.960 . S
C1938 H1925 0.961 . S
C1938 H1926 0.959 . S
C1938 C1936 1.561 . S
C1939 C1936 1.526 . S
C1939 C1940 1.396 . S
C1939 C1944 1.390 . S
C1940 C1934 1.465 . S
C1940 C1939 1.396 . S
C1940 C1941 1.399 . S
C1941 H1927 0.929 . S
C1941 C1940 1.399 . S
C1941 C1942 1.385 . S
C1942 H1928 0.931 . S
C1942 C1941 1.385 . S
C1942 C1943 1.389 . S
C1943 C1942 1.389 . S
C1943 C1944 1.387 . S
C1944 H1929 0.930 . S
C1944 C1939 1.390 . S
C1944 C1943 1.387 . S
H1945 C1957 0.930 . S
H1946 C1959 0.930 . S
H1947 C1960 0.930 . S
H1948 C1964 0.959 . S
H1949 C1964 0.959 . S
H1950 C1964 0.961 . S
H1951 C1965 0.960 . S
H1952 C1965 0.961 . S
H1953 C1965 0.959 . S
H1954 C1968 0.929 . S
H1955 C1969 0.931 . S
H1956 C1971 0.930 . S
C1957 H1945 0.930 . S
C1957 C1958 1.399 . S
C1957 C1962 1.399 . S
C1958 C1957 1.399 . S
C1958 C1959 1.376 . S
C1959 H1946 0.930 . S
C1959 C1958 1.376 . S
C1959 C1960 1.388 . S
C1960 H1947 0.930 . S
C1960 C1959 1.388 . S
C1960 C1961 1.390 . S
C1961 C1960 1.390 . S
C1961 C1962 1.394 . S
C1961 C1967 1.465 . S
C1962 C1957 1.399 . S
C1962 C1961 1.394 . S
C1962 C1963 1.516 . S
C1963 C1962 1.516 . S
C1963 C1964 1.502 . S
C1963 C1965 1.561 . S
C1963 C1966 1.526 . S
C1964 H1948 0.959 . S
C1964 H1949 0.959 . S
C1964 H1950 0.961 . S
C1964 C1963 1.502 . S
C1965 H1951 0.960 . S
C1965 H1952 0.961 . S
C1965 H1953 0.959 . S
C1965 C1963 1.561 . S
C1966 C1963 1.526 . S
C1966 C1967 1.396 . S
C1966 C1971 1.390 . S
C1967 C1961 1.465 . S
C1967 C1966 1.396 . S
C1967 C1968 1.399 . S
C1968 H1954 0.929 . S
C1968 C1967 1.399 . S
C1968 C1969 1.385 . S
C1969 H1955 0.931 . S
C1969 C1968 1.385 . S
C1969 C1970 1.389 . S
C1970 C1969 1.389 . S
C1970 C1971 1.387 . S
C1971 H1956 0.930 . S
C1971 C1966 1.390 . S
C1971 C1970 1.387 . S
H1972 C1984 0.930 . S
H1973 C1986 0.930 . S
H1974 C1987 0.930 . S
H1975 C1991 0.959 . S
H1976 C1991 0.959 . S
H1977 C1991 0.961 . S
H1978 C1992 0.960 . S
H1979 C1992 0.961 . S
H1980 C1992 0.959 . S
H1981 C1995 0.929 . S
H1982 C1996 0.931 . S
H1983 C1998 0.930 . S
C1984 H1972 0.930 . S
C1984 C1985 1.399 . S
C1984 C1989 1.399 . S
C1985 C1984 1.399 . S
C1985 C1986 1.376 . S
C1986 H1973 0.930 . S
C1986 C1985 1.376 . S
C1986 C1987 1.388 . S
C1987 H1974 0.930 . S
C1987 C1986 1.388 . S
C1987 C1988 1.390 . S
C1988 C1987 1.390 . S
C1988 C1989 1.394 . S
C1988 C1994 1.465 . S
C1989 C1984 1.399 . S
C1989 C1988 1.394 . S
C1989 C1990 1.516 . S
C1990 C1989 1.516 . S
C1990 C1991 1.502 . S
C1990 C1992 1.561 . S
C1990 C1993 1.526 . S
C1991 H1975 0.959 . S
C1991 H1976 0.959 . S
C1991 H1977 0.961 . S
C1991 C1990 1.502 . S
C1992 H1978 0.960 . S
C1992 H1979 0.961 . S
C1992 H1980 0.959 . S
C1992 C1990 1.561 . S
C1993 C1990 1.526 . S
C1993 C1994 1.396 . S
C1993 C1998 1.390 . S
C1994 C1988 1.465 . S
C1994 C1993 1.396 . S
C1994 C1995 1.399 . S
C1995 H1981 0.929 . S
C1995 C1994 1.399 . S
C1995 C1996 1.385 . S
C1996 H1982 0.931 . S
C1996 C1995 1.385 . S
C1996 C1997 1.389 . S
C1997 C1996 1.389 . S
C1997 C1998 1.387 . S
C1998 H1983 0.930 . S
C1998 C1993 1.390 . S
C1998 C1997 1.387 . S
H1999 C2011 0.930 . S
H2000 C2013 0.930 . S
H2001 C2014 0.930 . S
H2002 C2018 0.959 . S
H2003 C2018 0.959 . S
H2004 C2018 0.961 . S
H2005 C2019 0.960 . S
H2006 C2019 0.961 . S
H2007 C2019 0.959 . S
H2008 C2022 0.929 . S
H2009 C2023 0.931 . S
H2010 C2025 0.930 . S
C2011 H1999 0.930 . S
C2011 C2012 1.399 . S
C2011 C2016 1.399 . S
C2012 C2011 1.399 . S
C2012 C2013 1.376 . S
C2013 H2000 0.930 . S
C2013 C2012 1.376 . S
C2013 C2014 1.388 . S
C2014 H2001 0.930 . S
C2014 C2013 1.388 . S
C2014 C2015 1.390 . S
C2015 C2014 1.390 . S
C2015 C2016 1.394 . S
C2015 C2021 1.465 . S
C2016 C2011 1.399 . S
C2016 C2015 1.394 . S
C2016 C2017 1.516 . S
C2017 C2016 1.516 . S
C2017 C2018 1.502 . S
C2017 C2019 1.561 . S
C2017 C2020 1.526 . S
C2018 H2002 0.959 . S
C2018 H2003 0.959 . S
C2018 H2004 0.961 . S
C2018 C2017 1.502 . S
C2019 H2005 0.960 . S
C2019 H2006 0.961 . S
C2019 H2007 0.959 . S
C2019 C2017 1.561 . S
C2020 C2017 1.526 . S
C2020 C2021 1.396 . S
C2020 C2025 1.390 . S
C2021 C2015 1.465 . S
C2021 C2020 1.396 . S
C2021 C2022 1.399 . S
C2022 H2008 0.929 . S
C2022 C2021 1.399 . S
C2022 C2023 1.385 . S
C2023 H2009 0.931 . S
C2023 C2022 1.385 . S
C2023 C2024 1.389 . S
C2024 C2023 1.389 . S
C2024 C2025 1.387 . S
C2025 H2010 0.930 . S
C2025 C2020 1.390 . S
C2025 C2024 1.387 . S
H2026 C2038 0.930 . S
H2027 C2040 0.930 . S
H2028 C2041 0.930 . S
H2029 C2045 0.959 . S
H2030 C2045 0.959 . S
H2031 C2045 0.961 . S
H2032 C2046 0.960 . S
H2033 C2046 0.961 . S
H2034 C2046 0.959 . S
H2035 C2049 0.929 . S
H2036 C2050 0.931 . S
H2037 C2052 0.930 . S
C2038 H2026 0.930 . S
C2038 C2039 1.399 . S
C2038 C2043 1.399 . S
C2039 C2038 1.399 . S
C2039 C2040 1.376 . S
C2040 H2027 0.930 . S
C2040 C2039 1.376 . S
C2040 C2041 1.388 . S
C2041 H2028 0.930 . S
C2041 C2040 1.388 . S
C2041 C2042 1.390 . S
C2042 C2041 1.390 . S
C2042 C2043 1.394 . S
C2042 C2048 1.465 . S
C2043 C2038 1.399 . S
C2043 C2042 1.394 . S
C2043 C2044 1.516 . S
C2044 C2043 1.516 . S
C2044 C2045 1.502 . S
C2044 C2046 1.561 . S
C2044 C2047 1.526 . S
C2045 H2029 0.959 . S
C2045 H2030 0.959 . S
C2045 H2031 0.961 . S
C2045 C2044 1.502 . S
C2046 H2032 0.960 . S
C2046 H2033 0.961 . S
C2046 H2034 0.959 . S
C2046 C2044 1.561 . S
C2047 C2044 1.526 . S
C2047 C2048 1.396 . S
C2047 C2052 1.390 . S
C2048 C2042 1.465 . S
C2048 C2047 1.396 . S
C2048 C2049 1.399 . S
C2049 H2035 0.929 . S
C2049 C2048 1.399 . S
C2049 C2050 1.385 . S
C2050 H2036 0.931 . S
C2050 C2049 1.385 . S
C2050 C2051 1.389 . S
C2051 C2050 1.389 . S
C2051 C2052 1.387 . S
C2052 H2037 0.930 . S
C2052 C2047 1.390 . S
C2052 C2051 1.387 . S
H2053 C2065 0.930 . S
H2054 C2067 0.930 . S
H2055 C2068 0.930 . S
H2056 C2072 0.959 . S
H2057 C2072 0.959 . S
H2058 C2072 0.961 . S
H2059 C2073 0.960 . S
H2060 C2073 0.961 . S
H2061 C2073 0.959 . S
H2062 C2076 0.929 . S
H2063 C2077 0.931 . S
H2064 C2079 0.930 . S
C2065 H2053 0.930 . S
C2065 C2066 1.399 . S
C2065 C2070 1.399 . S
C2066 C2065 1.399 . S
C2066 C2067 1.376 . S
C2067 H2054 0.930 . S
C2067 C2066 1.376 . S
C2067 C2068 1.388 . S
C2068 H2055 0.930 . S
C2068 C2067 1.388 . S
C2068 C2069 1.390 . S
C2069 C2068 1.390 . S
C2069 C2070 1.394 . S
C2069 C2075 1.465 . S
C2070 C2065 1.399 . S
C2070 C2069 1.394 . S
C2070 C2071 1.516 . S
C2071 C2070 1.516 . S
C2071 C2072 1.502 . S
C2071 C2073 1.561 . S
C2071 C2074 1.526 . S
C2072 H2056 0.959 . S
C2072 H2057 0.959 . S
C2072 H2058 0.961 . S
C2072 C2071 1.502 . S
C2073 H2059 0.960 . S
C2073 H2060 0.961 . S
C2073 H2061 0.959 . S
C2073 C2071 1.561 . S
C2074 C2071 1.526 . S
C2074 C2075 1.396 . S
C2074 C2079 1.390 . S
C2075 C2069 1.465 . S
C2075 C2074 1.396 . S
C2075 C2076 1.399 . S
C2076 H2062 0.929 . S
C2076 C2075 1.399 . S
C2076 C2077 1.385 . S
C2077 H2063 0.931 . S
C2077 C2076 1.385 . S
C2077 C2078 1.389 . S
C2078 C2077 1.389 . S
C2078 C2079 1.387 . S
C2079 H2064 0.930 . S
C2079 C2074 1.390 . S
C2079 C2078 1.387 . S
H2080 C2092 0.930 . S
H2081 C2094 0.930 . S
H2082 C2095 0.930 . S
H2083 C2099 0.959 . S
H2084 C2099 0.959 . S
H2085 C2099 0.961 . S
H2086 C2100 0.960 . S
H2087 C2100 0.961 . S
H2088 C2100 0.959 . S
H2089 C2103 0.929 . S
H2090 C2104 0.931 . S
H2091 C2106 0.930 . S
C2092 H2080 0.930 . S
C2092 C2093 1.399 . S
C2092 C2097 1.399 . S
C2093 C2092 1.399 . S
C2093 C2094 1.376 . S
C2094 H2081 0.930 . S
C2094 C2093 1.376 . S
C2094 C2095 1.388 . S
C2095 H2082 0.930 . S
C2095 C2094 1.388 . S
C2095 C2096 1.390 . S
C2096 C2095 1.390 . S
C2096 C2097 1.394 . S
C2096 C2102 1.465 . S
C2097 C2092 1.399 . S
C2097 C2096 1.394 . S
C2097 C2098 1.516 . S
C2098 C2097 1.516 . S
C2098 C2099 1.502 . S
C2098 C2100 1.561 . S
C2098 C2101 1.526 . S
C2099 H2083 0.959 . S
C2099 H2084 0.959 . S
C2099 H2085 0.961 . S
C2099 C2098 1.502 . S
C2100 H2086 0.960 . S
C2100 H2087 0.961 . S
C2100 H2088 0.959 . S
C2100 C2098 1.561 . S
C2101 C2098 1.526 . S
C2101 C2102 1.396 . S
C2101 C2106 1.390 . S
C2102 C2096 1.465 . S
C2102 C2101 1.396 . S
C2102 C2103 1.399 . S
C2103 H2089 0.929 . S
C2103 C2102 1.399 . S
C2103 C2104 1.385 . S
C2104 H2090 0.931 . S
C2104 C2103 1.385 . S
C2104 C2105 1.389 . S
C2105 C2104 1.389 . S
C2105 C2106 1.387 . S
C2106 H2091 0.930 . S
C2106 C2101 1.390 . S
C2106 C2105 1.387 . S
H2107 C2119 0.930 . S
H2108 C2121 0.930 . S
H2109 C2122 0.930 . S
H2110 C2126 0.959 . S
H2111 C2126 0.959 . S
H2112 C2126 0.961 . S
H2113 C2127 0.960 . S
H2114 C2127 0.961 . S
H2115 C2127 0.959 . S
H2116 C2130 0.929 . S
H2117 C2131 0.931 . S
H2118 C2133 0.930 . S
C2119 H2107 0.930 . S
C2119 C2120 1.399 . S
C2119 C2124 1.399 . S
C2120 C2119 1.399 . S
C2120 C2121 1.376 . S
C2121 H2108 0.930 . S
C2121 C2120 1.376 . S
C2121 C2122 1.388 . S
C2122 H2109 0.930 . S
C2122 C2121 1.388 . S
C2122 C2123 1.390 . S
C2123 C2122 1.390 . S
C2123 C2124 1.394 . S
C2123 C2129 1.465 . S
C2124 C2119 1.399 . S
C2124 C2123 1.394 . S
C2124 C2125 1.516 . S
C2125 C2124 1.516 . S
C2125 C2126 1.502 . S
C2125 C2127 1.561 . S
C2125 C2128 1.526 . S
C2126 H2110 0.959 . S
C2126 H2111 0.959 . S
C2126 H2112 0.961 . S
C2126 C2125 1.502 . S
C2127 H2113 0.960 . S
C2127 H2114 0.961 . S
C2127 H2115 0.959 . S
C2127 C2125 1.561 . S
C2128 C2125 1.526 . S
C2128 C2129 1.396 . S
C2128 C2133 1.390 . S
C2129 C2123 1.465 . S
C2129 C2128 1.396 . S
C2129 C2130 1.399 . S
C2130 H2116 0.929 . S
C2130 C2129 1.399 . S
C2130 C2131 1.385 . S
C2131 H2117 0.931 . S
C2131 C2130 1.385 . S
C2131 C2132 1.389 . S
C2132 C2131 1.389 . S
C2132 C2133 1.387 . S
C2133 H2118 0.930 . S
C2133 C2128 1.390 . S
C2133 C2132 1.387 . S
H2134 C2146 0.930 . S
H2135 C2148 0.930 . S
H2136 C2149 0.930 . S
H2137 C2153 0.959 . S
H2138 C2153 0.959 . S
H2139 C2153 0.961 . S
H2140 C2154 0.960 . S
H2141 C2154 0.961 . S
H2142 C2154 0.959 . S
H2143 C2157 0.929 . S
H2144 C2158 0.931 . S
H2145 C2160 0.930 . S
C2146 H2134 0.930 . S
C2146 C2147 1.399 . S
C2146 C2151 1.399 . S
C2147 C2146 1.399 . S
C2147 C2148 1.376 . S
C2148 H2135 0.930 . S
C2148 C2147 1.376 . S
C2148 C2149 1.388 . S
C2149 H2136 0.930 . S
C2149 C2148 1.388 . S
C2149 C2150 1.390 . S
C2150 C2149 1.390 . S
C2150 C2151 1.394 . S
C2150 C2156 1.465 . S
C2151 C2146 1.399 . S
C2151 C2150 1.394 . S
C2151 C2152 1.516 . S
C2152 C2151 1.516 . S
C2152 C2153 1.502 . S
C2152 C2154 1.561 . S
C2152 C2155 1.526 . S
C2153 H2137 0.959 . S
C2153 H2138 0.959 . S
C2153 H2139 0.961 . S
C2153 C2152 1.502 . S
C2154 H2140 0.960 . S
C2154 H2141 0.961 . S
C2154 H2142 0.959 . S
C2154 C2152 1.561 . S
C2155 C2152 1.526 . S
C2155 C2156 1.396 . S
C2155 C2160 1.390 . S
C2156 C2150 1.465 . S
C2156 C2155 1.396 . S
C2156 C2157 1.399 . S
C2157 H2143 0.929 . S
C2157 C2156 1.399 . S
C2157 C2158 1.385 . S
C2158 H2144 0.931 . S
C2158 C2157 1.385 . S
C2158 C2159 1.389 . S
C2159 C2158 1.389 . S
C2159 C2160 1.387 . S
C2160 H2145 0.930 . S
C2160 C2155 1.390 . S
C2160 C2159 1.387 . S
H2161 C2173 0.930 . S
H2162 C2175 0.930 . S
H2163 C2176 0.930 . S
H2164 C2180 0.959 . S
H2165 C2180 0.959 . S
H2166 C2180 0.961 . S
H2167 C2181 0.960 . S
H2168 C2181 0.961 . S
H2169 C2181 0.959 . S
H2170 C2184 0.929 . S
H2171 C2185 0.931 . S
H2172 C2187 0.930 . S
C2173 H2161 0.930 . S
C2173 C2174 1.399 . S
C2173 C2178 1.399 . S
C2174 C2173 1.399 . S
C2174 C2175 1.376 . S
C2175 H2162 0.930 . S
C2175 C2174 1.376 . S
C2175 C2176 1.388 . S
C2176 H2163 0.930 . S
C2176 C2175 1.388 . S
C2176 C2177 1.390 . S
C2177 C2176 1.390 . S
C2177 C2178 1.394 . S
C2177 C2183 1.465 . S
C2178 C2173 1.399 . S
C2178 C2177 1.394 . S
C2178 C2179 1.516 . S
C2179 C2178 1.516 . S
C2179 C2180 1.502 . S
C2179 C2181 1.561 . S
C2179 C2182 1.526 . S
C2180 H2164 0.959 . S
C2180 H2165 0.959 . S
C2180 H2166 0.961 . S
C2180 C2179 1.502 . S
C2181 H2167 0.960 . S
C2181 H2168 0.961 . S
C2181 H2169 0.959 . S
C2181 C2179 1.561 . S
C2182 C2179 1.526 . S
C2182 C2183 1.396 . S
C2182 C2187 1.390 . S
C2183 C2177 1.465 . S
C2183 C2182 1.396 . S
C2183 C2184 1.399 . S
C2184 H2170 0.929 . S
C2184 C2183 1.399 . S
C2184 C2185 1.385 . S
C2185 H2171 0.931 . S
C2185 C2184 1.385 . S
C2185 C2186 1.389 . S
C2186 C2185 1.389 . S
C2186 C2187 1.387 . S
C2187 H2172 0.930 . S
C2187 C2182 1.390 . S
C2187 C2186 1.387 . S
H2188 C2200 0.930 . S
H2189 C2202 0.930 . S
H2190 C2203 0.930 . S
H2191 C2207 0.959 . S
H2192 C2207 0.959 . S
H2193 C2207 0.961 . S
H2194 C2208 0.960 . S
H2195 C2208 0.961 . S
H2196 C2208 0.959 . S
H2197 C2211 0.929 . S
H2198 C2212 0.931 . S
H2199 C2214 0.930 . S
C2200 H2188 0.930 . S
C2200 C2201 1.399 . S
C2200 C2205 1.399 . S
C2201 C2200 1.399 . S
C2201 C2202 1.376 . S
C2202 H2189 0.930 . S
C2202 C2201 1.376 . S
C2202 C2203 1.388 . S
C2203 H2190 0.930 . S
C2203 C2202 1.388 . S
C2203 C2204 1.390 . S
C2204 C2203 1.390 . S
C2204 C2205 1.394 . S
C2204 C2210 1.465 . S
C2205 C2200 1.399 . S
C2205 C2204 1.394 . S
C2205 C2206 1.516 . S
C2206 C2205 1.516 . S
C2206 C2207 1.502 . S
C2206 C2208 1.561 . S
C2206 C2209 1.526 . S
C2207 H2191 0.959 . S
C2207 H2192 0.959 . S
C2207 H2193 0.961 . S
C2207 C2206 1.502 . S
C2208 H2194 0.960 . S
C2208 H2195 0.961 . S
C2208 H2196 0.959 . S
C2208 C2206 1.561 . S
C2209 C2206 1.526 . S
C2209 C2210 1.396 . S
C2209 C2214 1.390 . S
C2210 C2204 1.465 . S
C2210 C2209 1.396 . S
C2210 C2211 1.399 . S
C2211 H2197 0.929 . S
C2211 C2210 1.399 . S
C2211 C2212 1.385 . S
C2212 H2198 0.931 . S
C2212 C2211 1.385 . S
C2212 C2213 1.389 . S
C2213 C2212 1.389 . S
C2213 C2214 1.387 . S
C2214 H2199 0.930 . S
C2214 C2209 1.390 . S
C2214 C2213 1.387 . S
H2215 C2227 0.930 . S
H2216 C2229 0.930 . S
H2217 C2230 0.930 . S
H2218 C2234 0.959 . S
H2219 C2234 0.959 . S
H2220 C2234 0.961 . S
H2221 C2235 0.960 . S
H2222 C2235 0.961 . S
H2223 C2235 0.959 . S
H2224 C2238 0.929 . S
H2225 C2239 0.931 . S
H2226 C2241 0.930 . S
C2227 H2215 0.930 . S
C2227 C2228 1.399 . S
C2227 C2232 1.399 . S
C2228 C2227 1.399 . S
C2228 C2229 1.376 . S
C2229 H2216 0.930 . S
C2229 C2228 1.376 . S
C2229 C2230 1.388 . S
C2230 H2217 0.930 . S
C2230 C2229 1.388 . S
C2230 C2231 1.390 . S
C2231 C2230 1.390 . S
C2231 C2232 1.394 . S
C2231 C2237 1.465 . S
C2232 C2227 1.399 . S
C2232 C2231 1.394 . S
C2232 C2233 1.516 . S
C2233 C2232 1.516 . S
C2233 C2234 1.502 . S
C2233 C2235 1.561 . S
C2233 C2236 1.526 . S
C2234 H2218 0.959 . S
C2234 H2219 0.959 . S
C2234 H2220 0.961 . S
C2234 C2233 1.502 . S
C2235 H2221 0.960 . S
C2235 H2222 0.961 . S
C2235 H2223 0.959 . S
C2235 C2233 1.561 . S
C2236 C2233 1.526 . S
C2236 C2237 1.396 . S
C2236 C2241 1.390 . S
C2237 C2231 1.465 . S
C2237 C2236 1.396 . S
C2237 C2238 1.399 . S
C2238 H2224 0.929 . S
C2238 C2237 1.399 . S
C2238 C2239 1.385 . S
C2239 H2225 0.931 . S
C2239 C2238 1.385 . S
C2239 C2240 1.389 . S
C2240 C2239 1.389 . S
C2240 C2241 1.387 . S
C2241 H2226 0.930 . S
C2241 C2236 1.390 . S
C2241 C2240 1.387 . S
H2242 C2254 0.930 . S
H2243 C2256 0.930 . S
H2244 C2257 0.930 . S
H2245 C2261 0.959 . S
H2246 C2261 0.959 . S
H2247 C2261 0.961 . S
H2248 C2262 0.960 . S
H2249 C2262 0.961 . S
H2250 C2262 0.959 . S
H2251 C2265 0.929 . S
H2252 C2266 0.931 . S
H2253 C2268 0.930 . S
C2254 H2242 0.930 . S
C2254 C2255 1.399 . S
C2254 C2259 1.399 . S
C2255 C2254 1.399 . S
C2255 C2256 1.376 . S
C2256 H2243 0.930 . S
C2256 C2255 1.376 . S
C2256 C2257 1.388 . S
C2257 H2244 0.930 . S
C2257 C2256 1.388 . S
C2257 C2258 1.390 . S
C2258 C2257 1.390 . S
C2258 C2259 1.394 . S
C2258 C2264 1.465 . S
C2259 C2254 1.399 . S
C2259 C2258 1.394 . S
C2259 C2260 1.516 . S
C2260 C2259 1.516 . S
C2260 C2261 1.502 . S
C2260 C2262 1.561 . S
C2260 C2263 1.526 . S
C2261 H2245 0.959 . S
C2261 H2246 0.959 . S
C2261 H2247 0.961 . S
C2261 C2260 1.502 . S
C2262 H2248 0.960 . S
C2262 H2249 0.961 . S
C2262 H2250 0.959 . S
C2262 C2260 1.561 . S
C2263 C2260 1.526 . S
C2263 C2264 1.396 . S
C2263 C2268 1.390 . S
C2264 C2258 1.465 . S
C2264 C2263 1.396 . S
C2264 C2265 1.399 . S
C2265 H2251 0.929 . S
C2265 C2264 1.399 . S
C2265 C2266 1.385 . S
C2266 H2252 0.931 . S
C2266 C2265 1.385 . S
C2266 C2267 1.389 . S
C2267 C2266 1.389 . S
C2267 C2268 1.387 . S
C2268 H2253 0.930 . S
C2268 C2263 1.390 . S
C2268 C2267 1.387 . S
H2269 C2281 0.930 . S
H2270 C2283 0.930 . S
H2271 C2284 0.930 . S
H2272 C2288 0.959 . S
H2273 C2288 0.959 . S
H2274 C2288 0.961 . S
H2275 C2289 0.960 . S
H2276 C2289 0.961 . S
H2277 C2289 0.959 . S
H2278 C2292 0.929 . S
H2279 C2293 0.931 . S
H2280 C2295 0.930 . S
C2281 H2269 0.930 . S
C2281 C2282 1.399 . S
C2281 C2286 1.399 . S
C2282 C2281 1.399 . S
C2282 C2283 1.376 . S
C2283 H2270 0.930 . S
C2283 C2282 1.376 . S
C2283 C2284 1.388 . S
C2284 H2271 0.930 . S
C2284 C2283 1.388 . S
C2284 C2285 1.390 . S
C2285 C2284 1.390 . S
C2285 C2286 1.394 . S
C2285 C2291 1.465 . S
C2286 C2281 1.399 . S
C2286 C2285 1.394 . S
C2286 C2287 1.516 . S
C2287 C2286 1.516 . S
C2287 C2288 1.502 . S
C2287 C2289 1.561 . S
C2287 C2290 1.526 . S
C2288 H2272 0.959 . S
C2288 H2273 0.959 . S
C2288 H2274 0.961 . S
C2288 C2287 1.502 . S
C2289 H2275 0.960 . S
C2289 H2276 0.961 . S
C2289 H2277 0.959 . S
C2289 C2287 1.561 . S
C2290 C2287 1.526 . S
C2290 C2291 1.396 . S
C2290 C2295 1.390 . S
C2291 C2285 1.465 . S
C2291 C2290 1.396 . S
C2291 C2292 1.399 . S
C2292 H2278 0.929 . S
C2292 C2291 1.399 . S
C2292 C2293 1.385 . S
C2293 H2279 0.931 . S
C2293 C2292 1.385 . S
C2293 C2294 1.389 . S
C2294 C2293 1.389 . S
C2294 C2295 1.387 . S
C2295 H2280 0.930 . S
C2295 C2290 1.390 . S
C2295 C2294 1.387 . S
H2296 C2308 0.930 . S
H2297 C2310 0.930 . S
H2298 C2311 0.930 . S
H2299 C2315 0.959 . S
H2300 C2315 0.959 . S
H2301 C2315 0.961 . S
H2302 C2316 0.960 . S
H2303 C2316 0.961 . S
H2304 C2316 0.959 . S
H2305 C2319 0.929 . S
H2306 C2320 0.931 . S
H2307 C2322 0.930 . S
C2308 H2296 0.930 . S
C2308 C2309 1.399 . S
C2308 C2313 1.399 . S
C2309 C2308 1.399 . S
C2309 C2310 1.376 . S
C2310 H2297 0.930 . S
C2310 C2309 1.376 . S
C2310 C2311 1.388 . S
C2311 H2298 0.930 . S
C2311 C2310 1.388 . S
C2311 C2312 1.390 . S
C2312 C2311 1.390 . S
C2312 C2313 1.394 . S
C2312 C2318 1.465 . S
C2313 C2308 1.399 . S
C2313 C2312 1.394 . S
C2313 C2314 1.516 . S
C2314 C2313 1.516 . S
C2314 C2315 1.502 . S
C2314 C2316 1.561 . S
C2314 C2317 1.526 . S
C2315 H2299 0.959 . S
C2315 H2300 0.959 . S
C2315 H2301 0.961 . S
C2315 C2314 1.502 . S
C2316 H2302 0.960 . S
C2316 H2303 0.961 . S
C2316 H2304 0.959 . S
C2316 C2314 1.561 . S
C2317 C2314 1.526 . S
C2317 C2318 1.396 . S
C2317 C2322 1.390 . S
C2318 C2312 1.465 . S
C2318 C2317 1.396 . S
C2318 C2319 1.399 . S
C2319 H2305 0.929 . S
C2319 C2318 1.399 . S
C2319 C2320 1.385 . S
C2320 H2306 0.931 . S
C2320 C2319 1.385 . S
C2320 C2321 1.389 . S
C2321 C2320 1.389 . S
C2321 C2322 1.387 . S
C2322 H2307 0.930 . S
C2322 C2317 1.390 . S
C2322 C2321 1.387 . S
H2323 C2335 0.930 . S
H2324 C2337 0.930 . S
H2325 C2338 0.930 . S
H2326 C2342 0.959 . S
H2327 C2342 0.959 . S
H2328 C2342 0.961 . S
H2329 C2343 0.960 . S
H2330 C2343 0.961 . S
H2331 C2343 0.959 . S
H2332 C2346 0.929 . S
H2333 C2347 0.931 . S
H2334 C2349 0.930 . S
C2335 H2323 0.930 . S
C2335 C2336 1.399 . S
C2335 C2340 1.399 . S
C2336 C2335 1.399 . S
C2336 C2337 1.376 . S
C2337 H2324 0.930 . S
C2337 C2336 1.376 . S
C2337 C2338 1.388 . S
C2338 H2325 0.930 . S
C2338 C2337 1.388 . S
C2338 C2339 1.390 . S
C2339 C2338 1.390 . S
C2339 C2340 1.394 . S
C2339 C2345 1.465 . S
C2340 C2335 1.399 . S
C2340 C2339 1.394 . S
C2340 C2341 1.516 . S
C2341 C2340 1.516 . S
C2341 C2342 1.502 . S
C2341 C2343 1.561 . S
C2341 C2344 1.526 . S
C2342 H2326 0.959 . S
C2342 H2327 0.959 . S
C2342 H2328 0.961 . S
C2342 C2341 1.502 . S
C2343 H2329 0.960 . S
C2343 H2330 0.961 . S
C2343 H2331 0.959 . S
C2343 C2341 1.561 . S
C2344 C2341 1.526 . S
C2344 C2345 1.396 . S
C2344 C2349 1.390 . S
C2345 C2339 1.465 . S
C2345 C2344 1.396 . S
C2345 C2346 1.399 . S
C2346 H2332 0.929 . S
C2346 C2345 1.399 . S
C2346 C2347 1.385 . S
C2347 H2333 0.931 . S
C2347 C2346 1.385 . S
C2347 C2348 1.389 . S
C2348 C2347 1.389 . S
C2348 C2349 1.387 . S
C2349 H2334 0.930 . S
C2349 C2344 1.390 . S
C2349 C2348 1.387 . S
H2350 C2362 0.930 . S
H2351 C2364 0.930 . S
H2352 C2365 0.930 . S
H2353 C2369 0.959 . S
H2354 C2369 0.959 . S
H2355 C2369 0.961 . S
H2356 C2370 0.960 . S
H2357 C2370 0.961 . S
H2358 C2370 0.959 . S
H2359 C2373 0.929 . S
H2360 C2374 0.931 . S
H2361 C2376 0.930 . S
C2362 H2350 0.930 . S
C2362 C2363 1.399 . S
C2362 C2367 1.399 . S
C2363 C2362 1.399 . S
C2363 C2364 1.376 . S
C2364 H2351 0.930 . S
C2364 C2363 1.376 . S
C2364 C2365 1.388 . S
C2365 H2352 0.930 . S
C2365 C2364 1.388 . S
C2365 C2366 1.390 . S
C2366 C2365 1.390 . S
C2366 C2367 1.394 . S
C2366 C2372 1.465 . S
C2367 C2362 1.399 . S
C2367 C2366 1.394 . S
C2367 C2368 1.516 . S
C2368 C2367 1.516 . S
C2368 C2369 1.502 . S
C2368 C2370 1.561 . S
C2368 C2371 1.526 . S
C2369 H2353 0.959 . S
C2369 H2354 0.959 . S
C2369 H2355 0.961 . S
C2369 C2368 1.502 . S
C2370 H2356 0.960 . S
C2370 H2357 0.961 . S
C2370 H2358 0.959 . S
C2370 C2368 1.561 . S
C2371 C2368 1.526 . S
C2371 C2372 1.396 . S
C2371 C2376 1.390 . S
C2372 C2366 1.465 . S
C2372 C2371 1.396 . S
C2372 C2373 1.399 . S
C2373 H2359 0.929 . S
C2373 C2372 1.399 . S
C2373 C2374 1.385 . S
C2374 H2360 0.931 . S
C2374 C2373 1.385 . S
C2374 C2375 1.389 . S
C2375 C2374 1.389 . S
C2375 C2376 1.387 . S
C2376 H2361 0.930 . S
C2376 C2371 1.390 . S
C2376 C2375 1.387 . S
H2377 C2389 0.930 . S
H2378 C2391 0.930 . S
H2379 C2392 0.930 . S
H2380 C2396 0.959 . S
H2381 C2396 0.959 . S
H2382 C2396 0.961 . S
H2383 C2397 0.960 . S
H2384 C2397 0.961 . S
H2385 C2397 0.959 . S
H2386 C2400 0.929 . S
H2387 C2401 0.931 . S
H2388 C2403 0.930 . S
C2389 H2377 0.930 . S
C2389 C2390 1.399 . S
C2389 C2394 1.399 . S
C2390 C2389 1.399 . S
C2390 C2391 1.376 . S
C2391 H2378 0.930 . S
C2391 C2390 1.376 . S
C2391 C2392 1.388 . S
C2392 H2379 0.930 . S
C2392 C2391 1.388 . S
C2392 C2393 1.390 . S
C2393 C2392 1.390 . S
C2393 C2394 1.394 . S
C2393 C2399 1.465 . S
C2394 C2389 1.399 . S
C2394 C2393 1.394 . S
C2394 C2395 1.516 . S
C2395 C2394 1.516 . S
C2395 C2396 1.502 . S
C2395 C2397 1.561 . S
C2395 C2398 1.526 . S
C2396 H2380 0.959 . S
C2396 H2381 0.959 . S
C2396 H2382 0.961 . S
C2396 C2395 1.502 . S
C2397 H2383 0.960 . S
C2397 H2384 0.961 . S
C2397 H2385 0.959 . S
C2397 C2395 1.561 . S
C2398 C2395 1.526 . S
C2398 C2399 1.396 . S
C2398 C2403 1.390 . S
C2399 C2393 1.465 . S
C2399 C2398 1.396 . S
C2399 C2400 1.399 . S
C2400 H2386 0.929 . S
C2400 C2399 1.399 . S
C2400 C2401 1.385 . S
C2401 H2387 0.931 . S
C2401 C2400 1.385 . S
C2401 C2402 1.389 . S
C2402 C2401 1.389 . S
C2402 C2403 1.387 . S
C2403 H2388 0.930 . S
C2403 C2398 1.390 . S
C2403 C2402 1.387 . S
H2404 C2416 0.930 . S
H2405 C2418 0.930 . S
H2406 C2419 0.930 . S
H2407 C2423 0.959 . S
H2408 C2423 0.959 . S
H2409 C2423 0.961 . S
H2410 C2424 0.960 . S
H2411 C2424 0.961 . S
H2412 C2424 0.959 . S
H2413 C2427 0.929 . S
H2414 C2428 0.931 . S
H2415 C2430 0.930 . S
C2416 H2404 0.930 . S
C2416 C2417 1.399 . S
C2416 C2421 1.399 . S
C2417 C2416 1.399 . S
C2417 C2418 1.376 . S
C2418 H2405 0.930 . S
C2418 C2417 1.376 . S
C2418 C2419 1.388 . S
C2419 H2406 0.930 . S
C2419 C2418 1.388 . S
C2419 C2420 1.390 . S
C2420 C2419 1.390 . S
C2420 C2421 1.394 . S
C2420 C2426 1.465 . S
C2421 C2416 1.399 . S
C2421 C2420 1.394 . S
C2421 C2422 1.516 . S
C2422 C2421 1.516 . S
C2422 C2423 1.502 . S
C2422 C2424 1.561 . S
C2422 C2425 1.526 . S
C2423 H2407 0.959 . S
C2423 H2408 0.959 . S
C2423 H2409 0.961 . S
C2423 C2422 1.502 . S
C2424 H2410 0.960 . S
C2424 H2411 0.961 . S
C2424 H2412 0.959 . S
C2424 C2422 1.561 . S
C2425 C2422 1.526 . S
C2425 C2426 1.396 . S
C2425 C2430 1.390 . S
C2426 C2420 1.465 . S
C2426 C2425 1.396 . S
C2426 C2427 1.399 . S
C2427 H2413 0.929 . S
C2427 C2426 1.399 . S
C2427 C2428 1.385 . S
C2428 H2414 0.931 . S
C2428 C2427 1.385 . S
C2428 C2429 1.389 . S
C2429 C2428 1.389 . S
C2429 C2430 1.387 . S
C2430 H2415 0.930 . S
C2430 C2425 1.390 . S
C2430 C2429 1.387 . S
H2431 C2443 0.930 . S
H2432 C2445 0.930 . S
H2433 C2446 0.930 . S
H2434 C2450 0.959 . S
H2435 C2450 0.959 . S
H2436 C2450 0.961 . S
H2437 C2451 0.960 . S
H2438 C2451 0.961 . S
H2439 C2451 0.959 . S
H2440 C2454 0.929 . S
H2441 C2455 0.931 . S
H2442 C2457 0.930 . S
C2443 H2431 0.930 . S
C2443 C2444 1.399 . S
C2443 C2448 1.399 . S
C2444 C2443 1.399 . S
C2444 C2445 1.376 . S
C2445 H2432 0.930 . S
C2445 C2444 1.376 . S
C2445 C2446 1.388 . S
C2446 H2433 0.930 . S
C2446 C2445 1.388 . S
C2446 C2447 1.390 . S
C2447 C2446 1.390 . S
C2447 C2448 1.394 . S
C2447 C2453 1.465 . S
C2448 C2443 1.399 . S
C2448 C2447 1.394 . S
C2448 C2449 1.516 . S
C2449 C2448 1.516 . S
C2449 C2450 1.502 . S
C2449 C2451 1.561 . S
C2449 C2452 1.526 . S
C2450 H2434 0.959 . S
C2450 H2435 0.959 . S
C2450 H2436 0.961 . S
C2450 C2449 1.502 . S
C2451 H2437 0.960 . S
C2451 H2438 0.961 . S
C2451 H2439 0.959 . S
C2451 C2449 1.561 . S
C2452 C2449 1.526 . S
C2452 C2453 1.396 . S
C2452 C2457 1.390 . S
C2453 C2447 1.465 . S
C2453 C2452 1.396 . S
C2453 C2454 1.399 . S
C2454 H2440 0.929 . S
C2454 C2453 1.399 . S
C2454 C2455 1.385 . S
C2455 H2441 0.931 . S
C2455 C2454 1.385 . S
C2455 C2456 1.389 . S
C2456 C2455 1.389 . S
C2456 C2457 1.387 . S
C2457 H2442 0.930 . S
C2457 C2452 1.390 . S
C2457 C2456 1.387 . S
H2458 C2470 0.930 . S
H2459 C2472 0.930 . S
H2460 C2473 0.930 . S
H2461 C2477 0.959 . S
H2462 C2477 0.959 . S
H2463 C2477 0.961 . S
H2464 C2478 0.960 . S
H2465 C2478 0.961 . S
H2466 C2478 0.959 . S
H2467 C2481 0.929 . S
H2468 C2482 0.931 . S
H2469 C2484 0.930 . S
C2470 H2458 0.930 . S
C2470 C2471 1.399 . S
C2470 C2475 1.399 . S
C2471 C2470 1.399 . S
C2471 C2472 1.376 . S
C2472 H2459 0.930 . S
C2472 C2471 1.376 . S
C2472 C2473 1.388 . S
C2473 H2460 0.930 . S
C2473 C2472 1.388 . S
C2473 C2474 1.390 . S
C2474 C2473 1.390 . S
C2474 C2475 1.394 . S
C2474 C2480 1.465 . S
C2475 C2470 1.399 . S
C2475 C2474 1.394 . S
C2475 C2476 1.516 . S
C2476 C2475 1.516 . S
C2476 C2477 1.502 . S
C2476 C2478 1.561 . S
C2476 C2479 1.526 . S
C2477 H2461 0.959 . S
C2477 H2462 0.959 . S
C2477 H2463 0.961 . S
C2477 C2476 1.502 . S
C2478 H2464 0.960 . S
C2478 H2465 0.961 . S
C2478 H2466 0.959 . S
C2478 C2476 1.561 . S
C2479 C2476 1.526 . S
C2479 C2480 1.396 . S
C2479 C2484 1.390 . S
C2480 C2474 1.465 . S
C2480 C2479 1.396 . S
C2480 C2481 1.399 . S
C2481 H2467 0.929 . S
C2481 C2480 1.399 . S
C2481 C2482 1.385 . S
C2482 H2468 0.931 . S
C2482 C2481 1.385 . S
C2482 C2483 1.389 . S
C2483 C2482 1.389 . S
C2483 C2484 1.387 . S
C2484 H2469 0.930 . S
C2484 C2479 1.390 . S
C2484 C2483 1.387 . S
H2485 C2497 0.930 . S
H2486 C2499 0.930 . S
H2487 C2500 0.930 . S
H2488 C2504 0.959 . S
H2489 C2504 0.959 . S
H2490 C2504 0.961 . S
H2491 C2505 0.960 . S
H2492 C2505 0.961 . S
H2493 C2505 0.959 . S
H2494 C2508 0.929 . S
H2495 C2509 0.931 . S
H2496 C2511 0.930 . S
C2497 H2485 0.930 . S
C2497 C2498 1.399 . S
C2497 C2502 1.399 . S
C2498 C2497 1.399 . S
C2498 C2499 1.376 . S
C2499 H2486 0.930 . S
C2499 C2498 1.376 . S
C2499 C2500 1.388 . S
C2500 H2487 0.930 . S
C2500 C2499 1.388 . S
C2500 C2501 1.390 . S
C2501 C2500 1.390 . S
C2501 C2502 1.394 . S
C2501 C2507 1.465 . S
C2502 C2497 1.399 . S
C2502 C2501 1.394 . S
C2502 C2503 1.516 . S
C2503 C2502 1.516 . S
C2503 C2504 1.502 . S
C2503 C2505 1.561 . S
C2503 C2506 1.526 . S
C2504 H2488 0.959 . S
C2504 H2489 0.959 . S
C2504 H2490 0.961 . S
C2504 C2503 1.502 . S
C2505 H2491 0.960 . S
C2505 H2492 0.961 . S
C2505 H2493 0.959 . S
C2505 C2503 1.561 . S
C2506 C2503 1.526 . S
C2506 C2507 1.396 . S
C2506 C2511 1.390 . S
C2507 C2501 1.465 . S
C2507 C2506 1.396 . S
C2507 C2508 1.399 . S
C2508 H2494 0.929 . S
C2508 C2507 1.399 . S
C2508 C2509 1.385 . S
C2509 H2495 0.931 . S
C2509 C2508 1.385 . S
C2509 C2510 1.389 . S
C2510 C2509 1.389 . S
C2510 C2511 1.387 . S
C2511 H2496 0.930 . S
C2511 C2506 1.390 . S
C2511 C2510 1.387 . S
H2512 C2524 0.930 . S
H2513 C2526 0.930 . S
H2514 C2527 0.930 . S
H2515 C2531 0.959 . S
H2516 C2531 0.959 . S
H2517 C2531 0.961 . S
H2518 C2532 0.960 . S
H2519 C2532 0.961 . S
H2520 C2532 0.959 . S
H2521 C2535 0.929 . S
H2522 C2536 0.931 . S
H2523 C2538 0.930 . S
C2524 H2512 0.930 . S
C2524 C2525 1.399 . S
C2524 C2529 1.399 . S
C2525 C2524 1.399 . S
C2525 C2526 1.376 . S
C2526 H2513 0.930 . S
C2526 C2525 1.376 . S
C2526 C2527 1.388 . S
C2527 H2514 0.930 . S
C2527 C2526 1.388 . S
C2527 C2528 1.390 . S
C2528 C2527 1.390 . S
C2528 C2529 1.394 . S
C2528 C2534 1.465 . S
C2529 C2524 1.399 . S
C2529 C2528 1.394 . S
C2529 C2530 1.516 . S
C2530 C2529 1.516 . S
C2530 C2531 1.502 . S
C2530 C2532 1.561 . S
C2530 C2533 1.526 . S
C2531 H2515 0.959 . S
C2531 H2516 0.959 . S
C2531 H2517 0.961 . S
C2531 C2530 1.502 . S
C2532 H2518 0.960 . S
C2532 H2519 0.961 . S
C2532 H2520 0.959 . S
C2532 C2530 1.561 . S
C2533 C2530 1.526 . S
C2533 C2534 1.396 . S
C2533 C2538 1.390 . S
C2534 C2528 1.465 . S
C2534 C2533 1.396 . S
C2534 C2535 1.399 . S
C2535 H2521 0.929 . S
C2535 C2534 1.399 . S
C2535 C2536 1.385 . S
C2536 H2522 0.931 . S
C2536 C2535 1.385 . S
C2536 C2537 1.389 . S
C2537 C2536 1.389 . S
C2537 C2538 1.387 . S
C2538 H2523 0.930 . S
C2538 C2533 1.390 . S
C2538 C2537 1.387 . S
H2539 C2551 0.930 . S
H2540 C2553 0.930 . S
H2541 C2554 0.930 . S
H2542 C2558 0.959 . S
H2543 C2558 0.959 . S
H2544 C2558 0.961 . S
H2545 C2559 0.960 . S
H2546 C2559 0.961 . S
H2547 C2559 0.959 . S
H2548 C2562 0.929 . S
H2549 C2563 0.931 . S
H2550 C2565 0.930 . S
C2551 H2539 0.930 . S
C2551 C2552 1.399 . S
C2551 C2556 1.399 . S
C2552 C2551 1.399 . S
C2552 C2553 1.376 . S
C2553 H2540 0.930 . S
C2553 C2552 1.376 . S
C2553 C2554 1.388 . S
C2554 H2541 0.930 . S
C2554 C2553 1.388 . S
C2554 C2555 1.390 . S
C2555 C2554 1.390 . S
C2555 C2556 1.394 . S
C2555 C2561 1.465 . S
C2556 C2551 1.399 . S
C2556 C2555 1.394 . S
C2556 C2557 1.516 . S
C2557 C2556 1.516 . S
C2557 C2558 1.502 . S
C2557 C2559 1.561 . S
C2557 C2560 1.526 . S
C2558 H2542 0.959 . S
C2558 H2543 0.959 . S
C2558 H2544 0.961 . S
C2558 C2557 1.502 . S
C2559 H2545 0.960 . S
C2559 H2546 0.961 . S
C2559 H2547 0.959 . S
C2559 C2557 1.561 . S
C2560 C2557 1.526 . S
C2560 C2561 1.396 . S
C2560 C2565 1.390 . S
C2561 C2555 1.465 . S
C2561 C2560 1.396 . S
C2561 C2562 1.399 . S
C2562 H2548 0.929 . S
C2562 C2561 1.399 . S
C2562 C2563 1.385 . S
C2563 H2549 0.931 . S
C2563 C2562 1.385 . S
C2563 C2564 1.389 . S
C2564 C2563 1.389 . S
C2564 C2565 1.387 . S
C2565 H2550 0.930 . S
C2565 C2560 1.390 . S
C2565 C2564 1.387 . S
H2566 C2578 0.930 . S
H2567 C2580 0.930 . S
H2568 C2581 0.930 . S
H2569 C2585 0.959 . S
H2570 C2585 0.959 . S
H2571 C2585 0.961 . S
H2572 C2586 0.960 . S
H2573 C2586 0.961 . S
H2574 C2586 0.959 . S
H2575 C2589 0.929 . S
H2576 C2590 0.931 . S
H2577 C2592 0.930 . S
C2578 H2566 0.930 . S
C2578 C2579 1.399 . S
C2578 C2583 1.399 . S
C2579 C2578 1.399 . S
C2579 C2580 1.376 . S
C2580 H2567 0.930 . S
C2580 C2579 1.376 . S
C2580 C2581 1.388 . S
C2581 H2568 0.930 . S
C2581 C2580 1.388 . S
C2581 C2582 1.390 . S
C2582 C2581 1.390 . S
C2582 C2583 1.394 . S
C2582 C2588 1.465 . S
C2583 C2578 1.399 . S
C2583 C2582 1.394 . S
C2583 C2584 1.516 . S
C2584 C2583 1.516 . S
C2584 C2585 1.502 . S
C2584 C2586 1.561 . S
C2584 C2587 1.526 . S
C2585 H2569 0.959 . S
C2585 H2570 0.959 . S
C2585 H2571 0.961 . S
C2585 C2584 1.502 . S
C2586 H2572 0.960 . S
C2586 H2573 0.961 . S
C2586 H2574 0.959 . S
C2586 C2584 1.561 . S
C2587 C2584 1.526 . S
C2587 C2588 1.396 . S
C2587 C2592 1.390 . S
C2588 C2582 1.465 . S
C2588 C2587 1.396 . S
C2588 C2589 1.399 . S
C2589 H2575 0.929 . S
C2589 C2588 1.399 . S
C2589 C2590 1.385 . S
C2590 H2576 0.931 . S
C2590 C2589 1.385 . S
C2590 C2591 1.389 . S
C2591 C2590 1.389 . S
C2591 C2592 1.387 . S
C2592 H2577 0.930 . S
C2592 C2587 1.390 . S
C2592 C2591 1.387 . S
H2593 C2605 0.930 . S
H2594 C2607 0.930 . S
H2595 C2608 0.930 . S
H2596 C2612 0.959 . S
H2597 C2612 0.959 . S
H2598 C2612 0.961 . S
H2599 C2613 0.960 . S
H2600 C2613 0.961 . S
H2601 C2613 0.959 . S
H2602 C2616 0.929 . S
H2603 C2617 0.931 . S
H2604 C2619 0.930 . S
C2605 H2593 0.930 . S
C2605 C2606 1.399 . S
C2605 C2610 1.399 . S
C2606 C2605 1.399 . S
C2606 C2607 1.376 . S
C2607 H2594 0.930 . S
C2607 C2606 1.376 . S
C2607 C2608 1.388 . S
C2608 H2595 0.930 . S
C2608 C2607 1.388 . S
C2608 C2609 1.390 . S
C2609 C2608 1.390 . S
C2609 C2610 1.394 . S
C2609 C2615 1.465 . S
C2610 C2605 1.399 . S
C2610 C2609 1.394 . S
C2610 C2611 1.516 . S
C2611 C2610 1.516 . S
C2611 C2612 1.502 . S
C2611 C2613 1.561 . S
C2611 C2614 1.526 . S
C2612 H2596 0.959 . S
C2612 H2597 0.959 . S
C2612 H2598 0.961 . S
C2612 C2611 1.502 . S
C2613 H2599 0.960 . S
C2613 H2600 0.961 . S
C2613 H2601 0.959 . S
C2613 C2611 1.561 . S
C2614 C2611 1.526 . S
C2614 C2615 1.396 . S
C2614 C2619 1.390 . S
C2615 C2609 1.465 . S
C2615 C2614 1.396 . S
C2615 C2616 1.399 . S
C2616 H2602 0.929 . S
C2616 C2615 1.399 . S
C2616 C2617 1.385 . S
C2617 H2603 0.931 . S
C2617 C2616 1.385 . S
C2617 C2618 1.389 . S
C2618 C2617 1.389 . S
C2618 C2619 1.387 . S
C2619 H2604 0.930 . S
C2619 C2614 1.390 . S
C2619 C2618 1.387 . S
H2620 C2632 0.930 . S
H2621 C2634 0.930 . S
H2622 C2635 0.930 . S
H2623 C2639 0.959 . S
H2624 C2639 0.959 . S
H2625 C2639 0.961 . S
H2626 C2640 0.960 . S
H2627 C2640 0.961 . S
H2628 C2640 0.959 . S
H2629 C2643 0.929 . S
H2630 C2644 0.931 . S
H2631 C2646 0.930 . S
C2632 H2620 0.930 . S
C2632 C2633 1.399 . S
C2632 C2637 1.399 . S
C2633 C2632 1.399 . S
C2633 C2634 1.376 . S
C2634 H2621 0.930 . S
C2634 C2633 1.376 . S
C2634 C2635 1.388 . S
C2635 H2622 0.930 . S
C2635 C2634 1.388 . S
C2635 C2636 1.390 . S
C2636 C2635 1.390 . S
C2636 C2637 1.394 . S
C2636 C2642 1.465 . S
C2637 C2632 1.399 . S
C2637 C2636 1.394 . S
C2637 C2638 1.516 . S
C2638 C2637 1.516 . S
C2638 C2639 1.502 . S
C2638 C2640 1.561 . S
C2638 C2641 1.526 . S
C2639 H2623 0.959 . S
C2639 H2624 0.959 . S
C2639 H2625 0.961 . S
C2639 C2638 1.502 . S
C2640 H2626 0.960 . S
C2640 H2627 0.961 . S
C2640 H2628 0.959 . S
C2640 C2638 1.561 . S
C2641 C2638 1.526 . S
C2641 C2642 1.396 . S
C2641 C2646 1.390 . S
C2642 C2636 1.465 . S
C2642 C2641 1.396 . S
C2642 C2643 1.399 . S
C2643 H2629 0.929 . S
C2643 C2642 1.399 . S
C2643 C2644 1.385 . S
C2644 H2630 0.931 . S
C2644 C2643 1.385 . S
C2644 C2645 1.389 . S
C2645 C2644 1.389 . S
C2645 C2646 1.387 . S
C2646 H2631 0.930 . S
C2646 C2641 1.390 . S
C2646 C2645 1.387 . S
H2647 C2659 0.930 . S
H2648 C2661 0.930 . S
H2649 C2662 0.930 . S
H2650 C2666 0.959 . S
H2651 C2666 0.959 . S
H2652 C2666 0.961 . S
H2653 C2667 0.960 . S
H2654 C2667 0.961 . S
H2655 C2667 0.959 . S
H2656 C2670 0.929 . S
H2657 C2671 0.931 . S
H2658 C2673 0.930 . S
C2659 H2647 0.930 . S
C2659 C2660 1.399 . S
C2659 C2664 1.399 . S
C2660 C2659 1.399 . S
C2660 C2661 1.376 . S
C2661 H2648 0.930 . S
C2661 C2660 1.376 . S
C2661 C2662 1.388 . S
C2662 H2649 0.930 . S
C2662 C2661 1.388 . S
C2662 C2663 1.390 . S
C2663 C2662 1.390 . S
C2663 C2664 1.394 . S
C2663 C2669 1.465 . S
C2664 C2659 1.399 . S
C2664 C2663 1.394 . S
C2664 C2665 1.516 . S
C2665 C2664 1.516 . S
C2665 C2666 1.502 . S
C2665 C2667 1.561 . S
C2665 C2668 1.526 . S
C2666 H2650 0.959 . S
C2666 H2651 0.959 . S
C2666 H2652 0.961 . S
C2666 C2665 1.502 . S
C2667 H2653 0.960 . S
C2667 H2654 0.961 . S
C2667 H2655 0.959 . S
C2667 C2665 1.561 . S
C2668 C2665 1.526 . S
C2668 C2669 1.396 . S
C2668 C2673 1.390 . S
C2669 C2663 1.465 . S
C2669 C2668 1.396 . S
C2669 C2670 1.399 . S
C2670 H2656 0.929 . S
C2670 C2669 1.399 . S
C2670 C2671 1.385 . S
C2671 H2657 0.931 . S
C2671 C2670 1.385 . S
C2671 C2672 1.389 . S
C2672 C2671 1.389 . S
C2672 C2673 1.387 . S
C2673 H2658 0.930 . S
C2673 C2668 1.390 . S
C2673 C2672 1.387 . S
H2674 C2686 0.930 . S
H2675 C2688 0.930 . S
H2676 C2689 0.930 . S
H2677 C2693 0.959 . S
H2678 C2693 0.959 . S
H2679 C2693 0.961 . S
H2680 C2694 0.960 . S
H2681 C2694 0.961 . S
H2682 C2694 0.959 . S
H2683 C2697 0.929 . S
H2684 C2698 0.931 . S
H2685 C2700 0.930 . S
C2686 H2674 0.930 . S
C2686 C2687 1.399 . S
C2686 C2691 1.399 . S
C2687 C2686 1.399 . S
C2687 C2688 1.376 . S
C2688 H2675 0.930 . S
C2688 C2687 1.376 . S
C2688 C2689 1.388 . S
C2689 H2676 0.930 . S
C2689 C2688 1.388 . S
C2689 C2690 1.390 . S
C2690 C2689 1.390 . S
C2690 C2691 1.394 . S
C2690 C2696 1.465 . S
C2691 C2686 1.399 . S
C2691 C2690 1.394 . S
C2691 C2692 1.516 . S
C2692 C2691 1.516 . S
C2692 C2693 1.502 . S
C2692 C2694 1.561 . S
C2692 C2695 1.526 . S
C2693 H2677 0.959 . S
C2693 H2678 0.959 . S
C2693 H2679 0.961 . S
C2693 C2692 1.502 . S
C2694 H2680 0.960 . S
C2694 H2681 0.961 . S
C2694 H2682 0.959 . S
C2694 C2692 1.561 . S
C2695 C2692 1.526 . S
C2695 C2696 1.396 . S
C2695 C2700 1.390 . S
C2696 C2690 1.465 . S
C2696 C2695 1.396 . S
C2696 C2697 1.399 . S
C2697 H2683 0.929 . S
C2697 C2696 1.399 . S
C2697 C2698 1.385 . S
C2698 H2684 0.931 . S
C2698 C2697 1.385 . S
C2698 C2699 1.389 . S
C2699 C2698 1.389 . S
C2699 C2700 1.387 . S
C2700 H2685 0.930 . S
C2700 C2695 1.390 . S
C2700 C2699 1.387 . S
H2701 C2713 0.930 . S
H2702 C2715 0.930 . S
H2703 C2716 0.930 . S
H2704 C2720 0.959 . S
H2705 C2720 0.959 . S
H2706 C2720 0.961 . S
H2707 C2721 0.960 . S
H2708 C2721 0.961 . S
H2709 C2721 0.959 . S
H2710 C2724 0.929 . S
H2711 C2725 0.931 . S
H2712 C2727 0.930 . S
C2713 H2701 0.930 . S
C2713 C2714 1.399 . S
C2713 C2718 1.399 . S
C2714 C2713 1.399 . S
C2714 C2715 1.376 . S
C2715 H2702 0.930 . S
C2715 C2714 1.376 . S
C2715 C2716 1.388 . S
C2716 H2703 0.930 . S
C2716 C2715 1.388 . S
C2716 C2717 1.390 . S
C2717 C2716 1.390 . S
C2717 C2718 1.394 . S
C2717 C2723 1.465 . S
C2718 C2713 1.399 . S
C2718 C2717 1.394 . S
C2718 C2719 1.516 . S
C2719 C2718 1.516 . S
C2719 C2720 1.502 . S
C2719 C2721 1.561 . S
C2719 C2722 1.526 . S
C2720 H2704 0.959 . S
C2720 H2705 0.959 . S
C2720 H2706 0.961 . S
C2720 C2719 1.502 . S
C2721 H2707 0.960 . S
C2721 H2708 0.961 . S
C2721 H2709 0.959 . S
C2721 C2719 1.561 . S
C2722 C2719 1.526 . S
C2722 C2723 1.396 . S
C2722 C2727 1.390 . S
C2723 C2717 1.465 . S
C2723 C2722 1.396 . S
C2723 C2724 1.399 . S
C2724 H2710 0.929 . S
C2724 C2723 1.399 . S
C2724 C2725 1.385 . S
C2725 H2711 0.931 . S
C2725 C2724 1.385 . S
C2725 C2726 1.389 . S
C2726 C2725 1.389 . S
C2726 C2727 1.387 . S
C2727 H2712 0.930 . S
C2727 C2722 1.390 . S
C2727 C2726 1.387 . S
H2728 C2740 0.930 . S
H2729 C2742 0.930 . S
H2730 C2743 0.930 . S
H2731 C2747 0.959 . S
H2732 C2747 0.959 . S
H2733 C2747 0.961 . S
H2734 C2748 0.960 . S
H2735 C2748 0.961 . S
H2736 C2748 0.959 . S
H2737 C2751 0.929 . S
H2738 C2752 0.931 . S
H2739 C2754 0.930 . S
C2740 H2728 0.930 . S
C2740 C2741 1.399 . S
C2740 C2745 1.399 . S
C2741 C2740 1.399 . S
C2741 C2742 1.376 . S
C2742 H2729 0.930 . S
C2742 C2741 1.376 . S
C2742 C2743 1.388 . S
C2743 H2730 0.930 . S
C2743 C2742 1.388 . S
C2743 C2744 1.390 . S
C2744 C2743 1.390 . S
C2744 C2745 1.394 . S
C2744 C2750 1.465 . S
C2745 C2740 1.399 . S
C2745 C2744 1.394 . S
C2745 C2746 1.516 . S
C2746 C2745 1.516 . S
C2746 C2747 1.502 . S
C2746 C2748 1.561 . S
C2746 C2749 1.526 . S
C2747 H2731 0.959 . S
C2747 H2732 0.959 . S
C2747 H2733 0.961 . S
C2747 C2746 1.502 . S
C2748 H2734 0.960 . S
C2748 H2735 0.961 . S
C2748 H2736 0.959 . S
C2748 C2746 1.561 . S
C2749 C2746 1.526 . S
C2749 C2750 1.396 . S
C2749 C2754 1.390 . S
C2750 C2744 1.465 . S
C2750 C2749 1.396 . S
C2750 C2751 1.399 . S
C2751 H2737 0.929 . S
C2751 C2750 1.399 . S
C2751 C2752 1.385 . S
C2752 H2738 0.931 . S
C2752 C2751 1.385 . S
C2752 C2753 1.389 . S
C2753 C2752 1.389 . S
C2753 C2754 1.387 . S
C2754 H2739 0.930 . S
C2754 C2749 1.390 . S
C2754 C2753 1.387 . S
H2755 C2767 0.930 . S
H2756 C2769 0.930 . S
H2757 C2770 0.930 . S
H2758 C2774 0.959 . S
H2759 C2774 0.959 . S
H2760 C2774 0.961 . S
H2761 C2775 0.960 . S
H2762 C2775 0.961 . S
H2763 C2775 0.959 . S
H2764 C2778 0.929 . S
H2765 C2779 0.931 . S
H2766 C2781 0.930 . S
C2767 H2755 0.930 . S
C2767 C2768 1.399 . S
C2767 C2772 1.399 . S
C2768 C2767 1.399 . S
C2768 C2769 1.376 . S
C2769 H2756 0.930 . S
C2769 C2768 1.376 . S
C2769 C2770 1.388 . S
C2770 H2757 0.930 . S
C2770 C2769 1.388 . S
C2770 C2771 1.390 . S
C2771 C2770 1.390 . S
C2771 C2772 1.394 . S
C2771 C2777 1.465 . S
C2772 C2767 1.399 . S
C2772 C2771 1.394 . S
C2772 C2773 1.516 . S
C2773 C2772 1.516 . S
C2773 C2774 1.502 . S
C2773 C2775 1.561 . S
C2773 C2776 1.526 . S
C2774 H2758 0.959 . S
C2774 H2759 0.959 . S
C2774 H2760 0.961 . S
C2774 C2773 1.502 . S
C2775 H2761 0.960 . S
C2775 H2762 0.961 . S
C2775 H2763 0.959 . S
C2775 C2773 1.561 . S
C2776 C2773 1.526 . S
C2776 C2777 1.396 . S
C2776 C2781 1.390 . S
C2777 C2771 1.465 . S
C2777 C2776 1.396 . S
C2777 C2778 1.399 . S
C2778 H2764 0.929 . S
C2778 C2777 1.399 . S
C2778 C2779 1.385 . S
C2779 H2765 0.931 . S
C2779 C2778 1.385 . S
C2779 C2780 1.389 . S
C2780 C2779 1.389 . S
C2780 C2781 1.387 . S
C2781 H2766 0.930 . S
C2781 C2776 1.390 . S
C2781 C2780 1.387 . S
H2782 C2794 0.930 . S
H2783 C2796 0.930 . S
H2784 C2797 0.930 . S
H2785 C2801 0.959 . S
H2786 C2801 0.959 . S
H2787 C2801 0.961 . S
H2788 C2802 0.960 . S
H2789 C2802 0.961 . S
H2790 C2802 0.959 . S
H2791 C2805 0.929 . S
H2792 C2806 0.931 . S
H2793 C2808 0.930 . S
C2794 H2782 0.930 . S
C2794 C2795 1.399 . S
C2794 C2799 1.399 . S
C2795 C2794 1.399 . S
C2795 C2796 1.376 . S
C2796 H2783 0.930 . S
C2796 C2795 1.376 . S
C2796 C2797 1.388 . S
C2797 H2784 0.930 . S
C2797 C2796 1.388 . S
C2797 C2798 1.390 . S
C2798 C2797 1.390 . S
C2798 C2799 1.394 . S
C2798 C2804 1.465 . S
C2799 C2794 1.399 . S
C2799 C2798 1.394 . S
C2799 C2800 1.516 . S
C2800 C2799 1.516 . S
C2800 C2801 1.502 . S
C2800 C2802 1.561 . S
C2800 C2803 1.526 . S
C2801 H2785 0.959 . S
C2801 H2786 0.959 . S
C2801 H2787 0.961 . S
C2801 C2800 1.502 . S
C2802 H2788 0.960 . S
C2802 H2789 0.961 . S
C2802 H2790 0.959 . S
C2802 C2800 1.561 . S
C2803 C2800 1.526 . S
C2803 C2804 1.396 . S
C2803 C2808 1.390 . S
C2804 C2798 1.465 . S
C2804 C2803 1.396 . S
C2804 C2805 1.399 . S
C2805 H2791 0.929 . S
C2805 C2804 1.399 . S
C2805 C2806 1.385 . S
C2806 H2792 0.931 . S
C2806 C2805 1.385 . S
C2806 C2807 1.389 . S
C2807 C2806 1.389 . S
C2807 C2808 1.387 . S
C2808 H2793 0.930 . S
C2808 C2803 1.390 . S
C2808 C2807 1.387 . S
H2809 C2821 0.930 . S
H2810 C2823 0.930 . S
H2811 C2824 0.930 . S
H2812 C2828 0.959 . S
H2813 C2828 0.959 . S
H2814 C2828 0.961 . S
H2815 C2829 0.960 . S
H2816 C2829 0.961 . S
H2817 C2829 0.959 . S
H2818 C2832 0.929 . S
H2819 C2833 0.931 . S
H2820 C2835 0.930 . S
C2821 H2809 0.930 . S
C2821 C2822 1.399 . S
C2821 C2826 1.399 . S
C2822 C2821 1.399 . S
C2822 C2823 1.376 . S
C2823 H2810 0.930 . S
C2823 C2822 1.376 . S
C2823 C2824 1.388 . S
C2824 H2811 0.930 . S
C2824 C2823 1.388 . S
C2824 C2825 1.390 . S
C2825 C2824 1.390 . S
C2825 C2826 1.394 . S
C2825 C2831 1.465 . S
C2826 C2821 1.399 . S
C2826 C2825 1.394 . S
C2826 C2827 1.516 . S
C2827 C2826 1.516 . S
C2827 C2828 1.502 . S
C2827 C2829 1.561 . S
C2827 C2830 1.526 . S
C2828 H2812 0.959 . S
C2828 H2813 0.959 . S
C2828 H2814 0.961 . S
C2828 C2827 1.502 . S
C2829 H2815 0.960 . S
C2829 H2816 0.961 . S
C2829 H2817 0.959 . S
C2829 C2827 1.561 . S
C2830 C2827 1.526 . S
C2830 C2831 1.396 . S
C2830 C2835 1.390 . S
C2831 C2825 1.465 . S
C2831 C2830 1.396 . S
C2831 C2832 1.399 . S
C2832 H2818 0.929 . S
C2832 C2831 1.399 . S
C2832 C2833 1.385 . S
C2833 H2819 0.931 . S
C2833 C2832 1.385 . S
C2833 C2834 1.389 . S
C2834 C2833 1.389 . S
C2834 C2835 1.387 . S
C2835 H2820 0.930 . S
C2835 C2830 1.390 . S
C2835 C2834 1.387 . S
H2836 C2848 0.930 . S
H2837 C2850 0.930 . S
H2838 C2851 0.930 . S
H2839 C2855 0.959 . S
H2840 C2855 0.959 . S
H2841 C2855 0.961 . S
H2842 C2856 0.960 . S
H2843 C2856 0.961 . S
H2844 C2856 0.959 . S
H2845 C2859 0.929 . S
H2846 C2860 0.931 . S
H2847 C2862 0.930 . S
C2848 H2836 0.930 . S
C2848 C2849 1.399 . S
C2848 C2853 1.399 . S
C2849 C2848 1.399 . S
C2849 C2850 1.376 . S
C2850 H2837 0.930 . S
C2850 C2849 1.376 . S
C2850 C2851 1.388 . S
C2851 H2838 0.930 . S
C2851 C2850 1.388 . S
C2851 C2852 1.390 . S
C2852 C2851 1.390 . S
C2852 C2853 1.394 . S
C2852 C2858 1.465 . S
C2853 C2848 1.399 . S
C2853 C2852 1.394 . S
C2853 C2854 1.516 . S
C2854 C2853 1.516 . S
C2854 C2855 1.502 . S
C2854 C2856 1.561 . S
C2854 C2857 1.526 . S
C2855 H2839 0.959 . S
C2855 H2840 0.959 . S
C2855 H2841 0.961 . S
C2855 C2854 1.502 . S
C2856 H2842 0.960 . S
C2856 H2843 0.961 . S
C2856 H2844 0.959 . S
C2856 C2854 1.561 . S
C2857 C2854 1.526 . S
C2857 C2858 1.396 . S
C2857 C2862 1.390 . S
C2858 C2852 1.465 . S
C2858 C2857 1.396 . S
C2858 C2859 1.399 . S
C2859 H2845 0.929 . S
C2859 C2858 1.399 . S
C2859 C2860 1.385 . S
C2860 H2846 0.931 . S
C2860 C2859 1.385 . S
C2860 C2861 1.389 . S
C2861 C2860 1.389 . S
C2861 C2862 1.387 . S
C2862 H2847 0.930 . S
C2862 C2857 1.390 . S
C2862 C2861 1.387 . S
H2863 C2875 0.930 . S
H2864 C2877 0.930 . S
H2865 C2878 0.930 . S
H2866 C2882 0.959 . S
H2867 C2882 0.959 . S
H2868 C2882 0.961 . S
H2869 C2883 0.960 . S
H2870 C2883 0.961 . S
H2871 C2883 0.959 . S
H2872 C2886 0.929 . S
H2873 C2887 0.931 . S
H2874 C2889 0.930 . S
C2875 H2863 0.930 . S
C2875 C2876 1.399 . S
C2875 C2880 1.399 . S
C2876 C2875 1.399 . S
C2876 C2877 1.376 . S
C2877 H2864 0.930 . S
C2877 C2876 1.376 . S
C2877 C2878 1.388 . S
C2878 H2865 0.930 . S
C2878 C2877 1.388 . S
C2878 C2879 1.390 . S
C2879 C2878 1.390 . S
C2879 C2880 1.394 . S
C2879 C2885 1.465 . S
C2880 C2875 1.399 . S
C2880 C2879 1.394 . S
C2880 C2881 1.516 . S
C2881 C2880 1.516 . S
C2881 C2882 1.502 . S
C2881 C2883 1.561 . S
C2881 C2884 1.526 . S
C2882 H2866 0.959 . S
C2882 H2867 0.959 . S
C2882 H2868 0.961 . S
C2882 C2881 1.502 . S
C2883 H2869 0.960 . S
C2883 H2870 0.961 . S
C2883 H2871 0.959 . S
C2883 C2881 1.561 . S
C2884 C2881 1.526 . S
C2884 C2885 1.396 . S
C2884 C2889 1.390 . S
C2885 C2879 1.465 . S
C2885 C2884 1.396 . S
C2885 C2886 1.399 . S
C2886 H2872 0.929 . S
C2886 C2885 1.399 . S
C2886 C2887 1.385 . S
C2887 H2873 0.931 . S
C2887 C2886 1.385 . S
C2887 C2888 1.389 . S
C2888 C2887 1.389 . S
C2888 C2889 1.387 . S
C2889 H2874 0.930 . S
C2889 C2884 1.390 . S
C2889 C2888 1.387 . S
H2890 C2902 0.930 . S
H2891 C2904 0.930 . S
H2892 C2905 0.930 . S
H2893 C2909 0.959 . S
H2894 C2909 0.959 . S
H2895 C2909 0.961 . S
H2896 C2910 0.960 . S
H2897 C2910 0.961 . S
H2898 C2910 0.959 . S
H2899 C2913 0.929 . S
H2900 C2914 0.931 . S
H2901 C2916 0.930 . S
C2902 H2890 0.930 . S
C2902 C2903 1.399 . S
C2902 C2907 1.399 . S
C2903 C2902 1.399 . S
C2903 C2904 1.376 . S
C2904 H2891 0.930 . S
C2904 C2903 1.376 . S
C2904 C2905 1.388 . S
C2905 H2892 0.930 . S
C2905 C2904 1.388 . S
C2905 C2906 1.390 . S
C2906 C2905 1.390 . S
C2906 C2907 1.394 . S
C2906 C2912 1.465 . S
C2907 C2902 1.399 . S
C2907 C2906 1.394 . S
C2907 C2908 1.516 . S
C2908 C2907 1.516 . S
C2908 C2909 1.502 . S
C2908 C2910 1.561 . S
C2908 C2911 1.526 . S
C2909 H2893 0.959 . S
C2909 H2894 0.959 . S
C2909 H2895 0.961 . S
C2909 C2908 1.502 . S
C2910 H2896 0.960 . S
C2910 H2897 0.961 . S
C2910 H2898 0.959 . S
C2910 C2908 1.561 . S
C2911 C2908 1.526 . S
C2911 C2912 1.396 . S
C2911 C2916 1.390 . S
C2912 C2906 1.465 . S
C2912 C2911 1.396 . S
C2912 C2913 1.399 . S
C2913 H2899 0.929 . S
C2913 C2912 1.399 . S
C2913 C2914 1.385 . S
C2914 H2900 0.931 . S
C2914 C2913 1.385 . S
C2914 C2915 1.389 . S
C2915 C2914 1.389 . S
C2915 C2916 1.387 . S
C2916 H2901 0.930 . S
C2916 C2911 1.390 . S
C2916 C2915 1.387 . S
H2917 C2929 0.930 . S
H2918 C2931 0.930 . S
H2919 C2932 0.930 . S
H2920 C2936 0.959 . S
H2921 C2936 0.959 . S
H2922 C2936 0.961 . S
H2923 C2937 0.960 . S
H2924 C2937 0.961 . S
H2925 C2937 0.959 . S
H2926 C2940 0.929 . S
H2927 C2941 0.931 . S
H2928 C2943 0.930 . S
C2929 H2917 0.930 . S
C2929 C2930 1.399 . S
C2929 C2934 1.399 . S
C2930 C2929 1.399 . S
C2930 C2931 1.376 . S
C2931 H2918 0.930 . S
C2931 C2930 1.376 . S
C2931 C2932 1.388 . S
C2932 H2919 0.930 . S
C2932 C2931 1.388 . S
C2932 C2933 1.390 . S
C2933 C2932 1.390 . S
C2933 C2934 1.394 . S
C2933 C2939 1.465 . S
C2934 C2929 1.399 . S
C2934 C2933 1.394 . S
C2934 C2935 1.516 . S
C2935 C2934 1.516 . S
C2935 C2936 1.502 . S
C2935 C2937 1.561 . S
C2935 C2938 1.526 . S
C2936 H2920 0.959 . S
C2936 H2921 0.959 . S
C2936 H2922 0.961 . S
C2936 C2935 1.502 . S
C2937 H2923 0.960 . S
C2937 H2924 0.961 . S
C2937 H2925 0.959 . S
C2937 C2935 1.561 . S
C2938 C2935 1.526 . S
C2938 C2939 1.396 . S
C2938 C2943 1.390 . S
C2939 C2933 1.465 . S
C2939 C2938 1.396 . S
C2939 C2940 1.399 . S
C2940 H2926 0.929 . S
C2940 C2939 1.399 . S
C2940 C2941 1.385 . S
C2941 H2927 0.931 . S
C2941 C2940 1.385 . S
C2941 C2942 1.389 . S
C2942 C2941 1.389 . S
C2942 C2943 1.387 . S
C2943 H2928 0.930 . S
C2943 C2938 1.390 . S
C2943 C2942 1.387 . S
H2944 C2956 0.930 . S
H2945 C2958 0.930 . S
H2946 C2959 0.930 . S
H2947 C2963 0.959 . S
H2948 C2963 0.959 . S
H2949 C2963 0.961 . S
H2950 C2964 0.960 . S
H2951 C2964 0.961 . S
H2952 C2964 0.959 . S
H2953 C2967 0.929 . S
H2954 C2968 0.931 . S
H2955 C2970 0.930 . S
C2956 H2944 0.930 . S
C2956 C2957 1.399 . S
C2956 C2961 1.399 . S
C2957 C2956 1.399 . S
C2957 C2958 1.376 . S
C2958 H2945 0.930 . S
C2958 C2957 1.376 . S
C2958 C2959 1.388 . S
C2959 H2946 0.930 . S
C2959 C2958 1.388 . S
C2959 C2960 1.390 . S
C2960 C2959 1.390 . S
C2960 C2961 1.394 . S
C2960 C2966 1.465 . S
C2961 C2956 1.399 . S
C2961 C2960 1.394 . S
C2961 C2962 1.516 . S
C2962 C2961 1.516 . S
C2962 C2963 1.502 . S
C2962 C2964 1.561 . S
C2962 C2965 1.526 . S
C2963 H2947 0.959 . S
C2963 H2948 0.959 . S
C2963 H2949 0.961 . S
C2963 C2962 1.502 . S
C2964 H2950 0.960 . S
C2964 H2951 0.961 . S
C2964 H2952 0.959 . S
C2964 C2962 1.561 . S
C2965 C2962 1.526 . S
C2965 C2966 1.396 . S
C2965 C2970 1.390 . S
C2966 C2960 1.465 . S
C2966 C2965 1.396 . S
C2966 C2967 1.399 . S
C2967 H2953 0.929 . S
C2967 C2966 1.399 . S
C2967 C2968 1.385 . S
C2968 H2954 0.931 . S
C2968 C2967 1.385 . S
C2968 C2969 1.389 . S
C2969 C2968 1.389 . S
C2969 C2970 1.387 . S
C2970 H2955 0.930 . S
C2970 C2965 1.390 . S
C2970 C2969 1.387 . S
H2971 C2983 0.930 . S
H2972 C2985 0.930 . S
H2973 C2986 0.930 . S
H2974 C2990 0.959 . S
H2975 C2990 0.959 . S
H2976 C2990 0.961 . S
H2977 C2991 0.960 . S
H2978 C2991 0.961 . S
H2979 C2991 0.959 . S
H2980 C2994 0.929 . S
H2981 C2995 0.931 . S
H2982 C2997 0.930 . S
C2983 H2971 0.930 . S
C2983 C2984 1.399 . S
C2983 C2988 1.399 . S
C2984 C2983 1.399 . S
C2984 C2985 1.376 . S
C2985 H2972 0.930 . S
C2985 C2984 1.376 . S
C2985 C2986 1.388 . S
C2986 H2973 0.930 . S
C2986 C2985 1.388 . S
C2986 C2987 1.390 . S
C2987 C2986 1.390 . S
C2987 C2988 1.394 . S
C2987 C2993 1.465 . S
C2988 C2983 1.399 . S
C2988 C2987 1.394 . S
C2988 C2989 1.516 . S
C2989 C2988 1.516 . S
C2989 C2990 1.502 . S
C2989 C2991 1.561 . S
C2989 C2992 1.526 . S
C2990 H2974 0.959 . S
C2990 H2975 0.959 . S
C2990 H2976 0.961 . S
C2990 C2989 1.502 . S
C2991 H2977 0.960 . S
C2991 H2978 0.961 . S
C2991 H2979 0.959 . S
C2991 C2989 1.561 . S
C2992 C2989 1.526 . S
C2992 C2993 1.396 . S
C2992 C2997 1.390 . S
C2993 C2987 1.465 . S
C2993 C2992 1.396 . S
C2993 C2994 1.399 . S
C2994 H2980 0.929 . S
C2994 C2993 1.399 . S
C2994 C2995 1.385 . S
C2995 H2981 0.931 . S
C2995 C2994 1.385 . S
C2995 C2996 1.389 . S
C2996 C2995 1.389 . S
C2996 C2997 1.387 . S
C2997 H2982 0.930 . S
C2997 C2992 1.390 . S
C2997 C2996 1.387 . S
H2998 C3010 0.930 . S
H2999 C3012 0.930 . S
H3000 C3013 0.930 . S
H3001 C3017 0.959 . S
H3002 C3017 0.959 . S
H3003 C3017 0.961 . S
H3004 C3018 0.960 . S
H3005 C3018 0.961 . S
H3006 C3018 0.959 . S
H3007 C3021 0.929 . S
H3008 C3022 0.931 . S
H3009 C3024 0.930 . S
C3010 H2998 0.930 . S
C3010 C3011 1.399 . S
C3010 C3015 1.399 . S
C3011 C3010 1.399 . S
C3011 C3012 1.376 . S
C3012 H2999 0.930 . S
C3012 C3011 1.376 . S
C3012 C3013 1.388 . S
C3013 H3000 0.930 . S
C3013 C3012 1.388 . S
C3013 C3014 1.390 . S
C3014 C3013 1.390 . S
C3014 C3015 1.394 . S
C3014 C3020 1.465 . S
C3015 C3010 1.399 . S
C3015 C3014 1.394 . S
C3015 C3016 1.516 . S
C3016 C3015 1.516 . S
C3016 C3017 1.502 . S
C3016 C3018 1.561 . S
C3016 C3019 1.526 . S
C3017 H3001 0.959 . S
C3017 H3002 0.959 . S
C3017 H3003 0.961 . S
C3017 C3016 1.502 . S
C3018 H3004 0.960 . S
C3018 H3005 0.961 . S
C3018 H3006 0.959 . S
C3018 C3016 1.561 . S
C3019 C3016 1.526 . S
C3019 C3020 1.396 . S
C3019 C3024 1.390 . S
C3020 C3014 1.465 . S
C3020 C3019 1.396 . S
C3020 C3021 1.399 . S
C3021 H3007 0.929 . S
C3021 C3020 1.399 . S
C3021 C3022 1.385 . S
C3022 H3008 0.931 . S
C3022 C3021 1.385 . S
C3022 C3023 1.389 . S
C3023 C3022 1.389 . S
C3023 C3024 1.387 . S
C3024 H3009 0.930 . S
C3024 C3019 1.390 . S
C3024 C3023 1.387 . S
H3025 C3037 0.930 . S
H3026 C3039 0.930 . S
H3027 C3040 0.930 . S
H3028 C3044 0.959 . S
H3029 C3044 0.959 . S
H3030 C3044 0.961 . S
H3031 C3045 0.960 . S
H3032 C3045 0.961 . S
H3033 C3045 0.959 . S
H3034 C3048 0.929 . S
H3035 C3049 0.931 . S
H3036 C3051 0.930 . S
C3037 H3025 0.930 . S
C3037 C3038 1.399 . S
C3037 C3042 1.399 . S
C3038 C3037 1.399 . S
C3038 C3039 1.376 . S
C3039 H3026 0.930 . S
C3039 C3038 1.376 . S
C3039 C3040 1.388 . S
C3040 H3027 0.930 . S
C3040 C3039 1.388 . S
C3040 C3041 1.390 . S
C3041 C3040 1.390 . S
C3041 C3042 1.394 . S
C3041 C3047 1.465 . S
C3042 C3037 1.399 . S
C3042 C3041 1.394 . S
C3042 C3043 1.516 . S
C3043 C3042 1.516 . S
C3043 C3044 1.502 . S
C3043 C3045 1.561 . S
C3043 C3046 1.526 . S
C3044 H3028 0.959 . S
C3044 H3029 0.959 . S
C3044 H3030 0.961 . S
C3044 C3043 1.502 . S
C3045 H3031 0.960 . S
C3045 H3032 0.961 . S
C3045 H3033 0.959 . S
C3045 C3043 1.561 . S
C3046 C3043 1.526 . S
C3046 C3047 1.396 . S
C3046 C3051 1.390 . S
C3047 C3041 1.465 . S
C3047 C3046 1.396 . S
C3047 C3048 1.399 . S
C3048 H3034 0.929 . S
C3048 C3047 1.399 . S
C3048 C3049 1.385 . S
C3049 H3035 0.931 . S
C3049 C3048 1.385 . S
C3049 C3050 1.389 . S
C3050 C3049 1.389 . S
C3050 C3051 1.387 . S
C3051 H3036 0.930 . S
C3051 C3046 1.390 . S
C3051 C3050 1.387 . S
H3052 C3064 0.930 . S
H3053 C3066 0.930 . S
H3054 C3067 0.930 . S
H3055 C3071 0.959 . S
H3056 C3071 0.959 . S
H3057 C3071 0.961 . S
H3058 C3072 0.960 . S
H3059 C3072 0.961 . S
H3060 C3072 0.959 . S
H3061 C3075 0.929 . S
H3062 C3076 0.931 . S
H3063 C3078 0.930 . S
C3064 H3052 0.930 . S
C3064 C3065 1.399 . S
C3064 C3069 1.399 . S
C3065 C3064 1.399 . S
C3065 C3066 1.376 . S
C3066 H3053 0.930 . S
C3066 C3065 1.376 . S
C3066 C3067 1.388 . S
C3067 H3054 0.930 . S
C3067 C3066 1.388 . S
C3067 C3068 1.390 . S
C3068 C3067 1.390 . S
C3068 C3069 1.394 . S
C3068 C3074 1.465 . S
C3069 C3064 1.399 . S
C3069 C3068 1.394 . S
C3069 C3070 1.516 . S
C3070 C3069 1.516 . S
C3070 C3071 1.502 . S
C3070 C3072 1.561 . S
C3070 C3073 1.526 . S
C3071 H3055 0.959 . S
C3071 H3056 0.959 . S
C3071 H3057 0.961 . S
C3071 C3070 1.502 . S
C3072 H3058 0.960 . S
C3072 H3059 0.961 . S
C3072 H3060 0.959 . S
C3072 C3070 1.561 . S
C3073 C3070 1.526 . S
C3073 C3074 1.396 . S
C3073 C3078 1.390 . S
C3074 C3068 1.465 . S
C3074 C3073 1.396 . S
C3074 C3075 1.399 . S
C3075 H3061 0.929 . S
C3075 C3074 1.399 . S
C3075 C3076 1.385 . S
C3076 H3062 0.931 . S
C3076 C3075 1.385 . S
C3076 C3077 1.389 . S
C3077 C3076 1.389 . S
C3077 C3078 1.387 . S
C3078 H3063 0.930 . S
C3078 C3073 1.390 . S
C3078 C3077 1.387 . S
H3079 C3091 0.930 . S
H3080 C3093 0.930 . S
H3081 C3094 0.930 . S
H3082 C3098 0.959 . S
H3083 C3098 0.959 . S
H3084 C3098 0.961 . S
H3085 C3099 0.960 . S
H3086 C3099 0.961 . S
H3087 C3099 0.959 . S
H3088 C3102 0.929 . S
H3089 C3103 0.931 . S
H3090 C3105 0.930 . S
C3091 H3079 0.930 . S
C3091 C3092 1.399 . S
C3091 C3096 1.399 . S
C3092 C3091 1.399 . S
C3092 C3093 1.376 . S
C3093 H3080 0.930 . S
C3093 C3092 1.376 . S
C3093 C3094 1.388 . S
C3094 H3081 0.930 . S
C3094 C3093 1.388 . S
C3094 C3095 1.390 . S
C3095 C3094 1.390 . S
C3095 C3096 1.394 . S
C3095 C3101 1.465 . S
C3096 C3091 1.399 . S
C3096 C3095 1.394 . S
C3096 C3097 1.516 . S
C3097 C3096 1.516 . S
C3097 C3098 1.502 . S
C3097 C3099 1.561 . S
C3097 C3100 1.526 . S
C3098 H3082 0.959 . S
C3098 H3083 0.959 . S
C3098 H3084 0.961 . S
C3098 C3097 1.502 . S
C3099 H3085 0.960 . S
C3099 H3086 0.961 . S
C3099 H3087 0.959 . S
C3099 C3097 1.561 . S
C3100 C3097 1.526 . S
C3100 C3101 1.396 . S
C3100 C3105 1.390 . S
C3101 C3095 1.465 . S
C3101 C3100 1.396 . S
C3101 C3102 1.399 . S
C3102 H3088 0.929 . S
C3102 C3101 1.399 . S
C3102 C3103 1.385 . S
C3103 H3089 0.931 . S
C3103 C3102 1.385 . S
C3103 C3104 1.389 . S
C3104 C3103 1.389 . S
C3104 C3105 1.387 . S
C3105 H3090 0.930 . S
C3105 C3100 1.390 . S
C3105 C3104 1.387 . S
H3106 C3118 0.930 . S
H3107 C3120 0.930 . S
H3108 C3121 0.930 . S
H3109 C3125 0.959 . S
H3110 C3125 0.959 . S
H3111 C3125 0.961 . S
H3112 C3126 0.960 . S
H3113 C3126 0.961 . S
H3114 C3126 0.959 . S
H3115 C3129 0.929 . S
H3116 C3130 0.931 . S
H3117 C3132 0.930 . S
C3118 H3106 0.930 . S
C3118 C3119 1.399 . S
C3118 C3123 1.399 . S
C3119 C3118 1.399 . S
C3119 C3120 1.376 . S
C3120 H3107 0.930 . S
C3120 C3119 1.376 . S
C3120 C3121 1.388 . S
C3121 H3108 0.930 . S
C3121 C3120 1.388 . S
C3121 C3122 1.390 . S
C3122 C3121 1.390 . S
C3122 C3123 1.394 . S
C3122 C3128 1.465 . S
C3123 C3118 1.399 . S
C3123 C3122 1.394 . S
C3123 C3124 1.516 . S
C3124 C3123 1.516 . S
C3124 C3125 1.502 . S
C3124 C3126 1.561 . S
C3124 C3127 1.526 . S
C3125 H3109 0.959 . S
C3125 H3110 0.959 . S
C3125 H3111 0.961 . S
C3125 C3124 1.502 . S
C3126 H3112 0.960 . S
C3126 H3113 0.961 . S
C3126 H3114 0.959 . S
C3126 C3124 1.561 . S
C3127 C3124 1.526 . S
C3127 C3128 1.396 . S
C3127 C3132 1.390 . S
C3128 C3122 1.465 . S
C3128 C3127 1.396 . S
C3128 C3129 1.399 . S
C3129 H3115 0.929 . S
C3129 C3128 1.399 . S
C3129 C3130 1.385 . S
C3130 H3116 0.931 . S
C3130 C3129 1.385 . S
C3130 C3131 1.389 . S
C3131 C3130 1.389 . S
C3131 C3132 1.387 . S
C3132 H3117 0.930 . S
C3132 C3127 1.390 . S
C3132 C3131 1.387 . S
H3133 C3145 0.930 . S
H3134 C3147 0.930 . S
H3135 C3148 0.930 . S
H3136 C3152 0.959 . S
H3137 C3152 0.959 . S
H3138 C3152 0.961 . S
H3139 C3153 0.960 . S
H3140 C3153 0.961 . S
H3141 C3153 0.959 . S
H3142 C3156 0.929 . S
H3143 C3157 0.931 . S
H3144 C3159 0.930 . S
C3145 H3133 0.930 . S
C3145 C3146 1.399 . S
C3145 C3150 1.399 . S
C3146 C3145 1.399 . S
C3146 C3147 1.376 . S
C3147 H3134 0.930 . S
C3147 C3146 1.376 . S
C3147 C3148 1.388 . S
C3148 H3135 0.930 . S
C3148 C3147 1.388 . S
C3148 C3149 1.390 . S
C3149 C3148 1.390 . S
C3149 C3150 1.394 . S
C3149 C3155 1.465 . S
C3150 C3145 1.399 . S
C3150 C3149 1.394 . S
C3150 C3151 1.516 . S
C3151 C3150 1.516 . S
C3151 C3152 1.502 . S
C3151 C3153 1.561 . S
C3151 C3154 1.526 . S
C3152 H3136 0.959 . S
C3152 H3137 0.959 . S
C3152 H3138 0.961 . S
C3152 C3151 1.502 . S
C3153 H3139 0.960 . S
C3153 H3140 0.961 . S
C3153 H3141 0.959 . S
C3153 C3151 1.561 . S
C3154 C3151 1.526 . S
C3154 C3155 1.396 . S
C3154 C3159 1.390 . S
C3155 C3149 1.465 . S
C3155 C3154 1.396 . S
C3155 C3156 1.399 . S
C3156 H3142 0.929 . S
C3156 C3155 1.399 . S
C3156 C3157 1.385 . S
C3157 H3143 0.931 . S
C3157 C3156 1.385 . S
C3157 C3158 1.389 . S
C3158 C3157 1.389 . S
C3158 C3159 1.387 . S
C3159 H3144 0.930 . S
C3159 C3154 1.390 . S
C3159 C3158 1.387 . S
H3160 C3172 0.930 . S
H3161 C3174 0.930 . S
H3162 C3175 0.930 . S
H3163 C3179 0.959 . S
H3164 C3179 0.959 . S
H3165 C3179 0.961 . S
H3166 C3180 0.960 . S
H3167 C3180 0.961 . S
H3168 C3180 0.959 . S
H3169 C3183 0.929 . S
H3170 C3184 0.931 . S
H3171 C3186 0.930 . S
C3172 H3160 0.930 . S
C3172 C3173 1.399 . S
C3172 C3177 1.399 . S
C3173 C3172 1.399 . S
C3173 C3174 1.376 . S
C3174 H3161 0.930 . S
C3174 C3173 1.376 . S
C3174 C3175 1.388 . S
C3175 H3162 0.930 . S
C3175 C3174 1.388 . S
C3175 C3176 1.390 . S
C3176 C3175 1.390 . S
C3176 C3177 1.394 . S
C3176 C3182 1.465 . S
C3177 C3172 1.399 . S
C3177 C3176 1.394 . S
C3177 C3178 1.516 . S
C3178 C3177 1.516 . S
C3178 C3179 1.502 . S
C3178 C3180 1.561 . S
C3178 C3181 1.526 . S
C3179 H3163 0.959 . S
C3179 H3164 0.959 . S
C3179 H3165 0.961 . S
C3179 C3178 1.502 . S
C3180 H3166 0.960 . S
C3180 H3167 0.961 . S
C3180 H3168 0.959 . S
C3180 C3178 1.561 . S
C3181 C3178 1.526 . S
C3181 C3182 1.396 . S
C3181 C3186 1.390 . S
C3182 C3176 1.465 . S
C3182 C3181 1.396 . S
C3182 C3183 1.399 . S
C3183 H3169 0.929 . S
C3183 C3182 1.399 . S
C3183 C3184 1.385 . S
C3184 H3170 0.931 . S
C3184 C3183 1.385 . S
C3184 C3185 1.389 . S
C3185 C3184 1.389 . S
C3185 C3186 1.387 . S
C3186 H3171 0.930 . S
C3186 C3181 1.390 . S
C3186 C3185 1.387 . S
H3187 C3199 0.930 . S
H3188 C3201 0.930 . S
H3189 C3202 0.930 . S
H3190 C3206 0.959 . S
H3191 C3206 0.959 . S
H3192 C3206 0.961 . S
H3193 C3207 0.960 . S
H3194 C3207 0.961 . S
H3195 C3207 0.959 . S
H3196 C3210 0.929 . S
H3197 C3211 0.931 . S
H3198 C3213 0.930 . S
C3199 H3187 0.930 . S
C3199 C3200 1.399 . S
C3199 C3204 1.399 . S
C3200 C3199 1.399 . S
C3200 C3201 1.376 . S
C3201 H3188 0.930 . S
C3201 C3200 1.376 . S
C3201 C3202 1.388 . S
C3202 H3189 0.930 . S
C3202 C3201 1.388 . S
C3202 C3203 1.390 . S
C3203 C3202 1.390 . S
C3203 C3204 1.394 . S
C3203 C3209 1.465 . S
C3204 C3199 1.399 . S
C3204 C3203 1.394 . S
C3204 C3205 1.516 . S
C3205 C3204 1.516 . S
C3205 C3206 1.502 . S
C3205 C3207 1.561 . S
C3205 C3208 1.526 . S
C3206 H3190 0.959 . S
C3206 H3191 0.959 . S
C3206 H3192 0.961 . S
C3206 C3205 1.502 . S
C3207 H3193 0.960 . S
C3207 H3194 0.961 . S
C3207 H3195 0.959 . S
C3207 C3205 1.561 . S
C3208 C3205 1.526 . S
C3208 C3209 1.396 . S
C3208 C3213 1.390 . S
C3209 C3203 1.465 . S
C3209 C3208 1.396 . S
C3209 C3210 1.399 . S
C3210 H3196 0.929 . S
C3210 C3209 1.399 . S
C3210 C3211 1.385 . S
C3211 H3197 0.931 . S
C3211 C3210 1.385 . S
C3211 C3212 1.389 . S
C3212 C3211 1.389 . S
C3212 C3213 1.387 . S
C3213 H3198 0.930 . S
C3213 C3208 1.390 . S
C3213 C3212 1.387 . S
H3214 C3226 0.930 . S
H3215 C3228 0.930 . S
H3216 C3229 0.930 . S
H3217 C3233 0.959 . S
H3218 C3233 0.959 . S
H3219 C3233 0.961 . S
H3220 C3234 0.960 . S
H3221 C3234 0.961 . S
H3222 C3234 0.959 . S
H3223 C3237 0.929 . S
H3224 C3238 0.931 . S
H3225 C3240 0.930 . S
C3226 H3214 0.930 . S
C3226 C3227 1.399 . S
C3226 C3231 1.399 . S
C3227 C3226 1.399 . S
C3227 C3228 1.376 . S
C3228 H3215 0.930 . S
C3228 C3227 1.376 . S
C3228 C3229 1.388 . S
C3229 H3216 0.930 . S
C3229 C3228 1.388 . S
C3229 C3230 1.390 . S
C3230 C3229 1.390 . S
C3230 C3231 1.394 . S
C3230 C3236 1.465 . S
C3231 C3226 1.399 . S
C3231 C3230 1.394 . S
C3231 C3232 1.516 . S
C3232 C3231 1.516 . S
C3232 C3233 1.502 . S
C3232 C3234 1.561 . S
C3232 C3235 1.526 . S
C3233 H3217 0.959 . S
C3233 H3218 0.959 . S
C3233 H3219 0.961 . S
C3233 C3232 1.502 . S
C3234 H3220 0.960 . S
C3234 H3221 0.961 . S
C3234 H3222 0.959 . S
C3234 C3232 1.561 . S
C3235 C3232 1.526 . S
C3235 C3236 1.396 . S
C3235 C3240 1.390 . S
C3236 C3230 1.465 . S
C3236 C3235 1.396 . S
C3236 C3237 1.399 . S
C3237 H3223 0.929 . S
C3237 C3236 1.399 . S
C3237 C3238 1.385 . S
C3238 H3224 0.931 . S
C3238 C3237 1.385 . S
C3238 C3239 1.389 . S
C3239 C3238 1.389 . S
C3239 C3240 1.387 . S
C3240 H3225 0.930 . S
C3240 C3235 1.390 . S
C3240 C3239 1.387 . S
H3241 C3253 0.930 . S
H3242 C3255 0.930 . S
H3243 C3256 0.930 . S
H3244 C3260 0.959 . S
H3245 C3260 0.959 . S
H3246 C3260 0.961 . S
H3247 C3261 0.960 . S
H3248 C3261 0.961 . S
H3249 C3261 0.959 . S
H3250 C3264 0.929 . S
H3251 C3265 0.931 . S
H3252 C3267 0.930 . S
C3253 H3241 0.930 . S
C3253 C3254 1.399 . S
C3253 C3258 1.399 . S
C3254 C3253 1.399 . S
C3254 C3255 1.376 . S
C3255 H3242 0.930 . S
C3255 C3254 1.376 . S
C3255 C3256 1.388 . S
C3256 H3243 0.930 . S
C3256 C3255 1.388 . S
C3256 C3257 1.390 . S
C3257 C3256 1.390 . S
C3257 C3258 1.394 . S
C3257 C3263 1.465 . S
C3258 C3253 1.399 . S
C3258 C3257 1.394 . S
C3258 C3259 1.516 . S
C3259 C3258 1.516 . S
C3259 C3260 1.502 . S
C3259 C3261 1.561 . S
C3259 C3262 1.526 . S
C3260 H3244 0.959 . S
C3260 H3245 0.959 . S
C3260 H3246 0.961 . S
C3260 C3259 1.502 . S
C3261 H3247 0.960 . S
C3261 H3248 0.961 . S
C3261 H3249 0.959 . S
C3261 C3259 1.561 . S
C3262 C3259 1.526 . S
C3262 C3263 1.396 . S
C3262 C3267 1.390 . S
C3263 C3257 1.465 . S
C3263 C3262 1.396 . S
C3263 C3264 1.399 . S
C3264 H3250 0.929 . S
C3264 C3263 1.399 . S
C3264 C3265 1.385 . S
C3265 H3251 0.931 . S
C3265 C3264 1.385 . S
C3265 C3266 1.389 . S
C3266 C3265 1.389 . S
C3266 C3267 1.387 . S
C3267 H3252 0.930 . S
C3267 C3262 1.390 . S
C3267 C3266 1.387 . S
H3268 C3280 0.930 . S
H3269 C3282 0.930 . S
H3270 C3283 0.930 . S
H3271 C3287 0.959 . S
H3272 C3287 0.959 . S
H3273 C3287 0.961 . S
H3274 C3288 0.960 . S
H3275 C3288 0.961 . S
H3276 C3288 0.959 . S
H3277 C3291 0.929 . S
H3278 C3292 0.931 . S
H3279 C3294 0.930 . S
C3280 H3268 0.930 . S
C3280 C3281 1.399 . S
C3280 C3285 1.399 . S
C3281 C3280 1.399 . S
C3281 C3282 1.376 . S
C3282 H3269 0.930 . S
C3282 C3281 1.376 . S
C3282 C3283 1.388 . S
C3283 H3270 0.930 . S
C3283 C3282 1.388 . S
C3283 C3284 1.390 . S
C3284 C3283 1.390 . S
C3284 C3285 1.394 . S
C3284 C3290 1.465 . S
C3285 C3280 1.399 . S
C3285 C3284 1.394 . S
C3285 C3286 1.516 . S
C3286 C3285 1.516 . S
C3286 C3287 1.502 . S
C3286 C3288 1.561 . S
C3286 C3289 1.526 . S
C3287 H3271 0.959 . S
C3287 H3272 0.959 . S
C3287 H3273 0.961 . S
C3287 C3286 1.502 . S
C3288 H3274 0.960 . S
C3288 H3275 0.961 . S
C3288 H3276 0.959 . S
C3288 C3286 1.561 . S
C3289 C3286 1.526 . S
C3289 C3290 1.396 . S
C3289 C3294 1.390 . S
C3290 C3284 1.465 . S
C3290 C3289 1.396 . S
C3290 C3291 1.399 . S
C3291 H3277 0.929 . S
C3291 C3290 1.399 . S
C3291 C3292 1.385 . S
C3292 H3278 0.931 . S
C3292 C3291 1.385 . S
C3292 C3293 1.389 . S
C3293 C3292 1.389 . S
C3293 C3294 1.387 . S
C3294 H3279 0.930 . S
C3294 C3289 1.390 . S
C3294 C3293 1.387 . S
H3295 C3307 0.930 . S
H3296 C3309 0.930 . S
H3297 C3310 0.930 . S
H3298 C3314 0.959 . S
H3299 C3314 0.959 . S
H3300 C3314 0.961 . S
H3301 C3315 0.960 . S
H3302 C3315 0.961 . S
H3303 C3315 0.959 . S
H3304 C3318 0.929 . S
H3305 C3319 0.931 . S
H3306 C3321 0.930 . S
C3307 H3295 0.930 . S
C3307 C3308 1.399 . S
C3307 C3312 1.399 . S
C3308 C3307 1.399 . S
C3308 C3309 1.376 . S
C3309 H3296 0.930 . S
C3309 C3308 1.376 . S
C3309 C3310 1.388 . S
C3310 H3297 0.930 . S
C3310 C3309 1.388 . S
C3310 C3311 1.390 . S
C3311 C3310 1.390 . S
C3311 C3312 1.394 . S
C3311 C3317 1.465 . S
C3312 C3307 1.399 . S
C3312 C3311 1.394 . S
C3312 C3313 1.516 . S
C3313 C3312 1.516 . S
C3313 C3314 1.502 . S
C3313 C3315 1.561 . S
C3313 C3316 1.526 . S
C3314 H3298 0.959 . S
C3314 H3299 0.959 . S
C3314 H3300 0.961 . S
C3314 C3313 1.502 . S
C3315 H3301 0.960 . S
C3315 H3302 0.961 . S
C3315 H3303 0.959 . S
C3315 C3313 1.561 . S
C3316 C3313 1.526 . S
C3316 C3317 1.396 . S
C3316 C3321 1.390 . S
C3317 C3311 1.465 . S
C3317 C3316 1.396 . S
C3317 C3318 1.399 . S
C3318 H3304 0.929 . S
C3318 C3317 1.399 . S
C3318 C3319 1.385 . S
C3319 H3305 0.931 . S
C3319 C3318 1.385 . S
C3319 C3320 1.389 . S
C3320 C3319 1.389 . S
C3320 C3321 1.387 . S
C3321 H3306 0.930 . S
C3321 C3316 1.390 . S
C3321 C3320 1.387 . S
H3322 C3334 0.930 . S
H3323 C3336 0.930 . S
H3324 C3337 0.930 . S
H3325 C3341 0.959 . S
H3326 C3341 0.959 . S
H3327 C3341 0.961 . S
H3328 C3342 0.960 . S
H3329 C3342 0.961 . S
H3330 C3342 0.959 . S
H3331 C3345 0.929 . S
H3332 C3346 0.931 . S
H3333 C3348 0.930 . S
C3334 H3322 0.930 . S
C3334 C3335 1.399 . S
C3334 C3339 1.399 . S
C3335 C3334 1.399 . S
C3335 C3336 1.376 . S
C3336 H3323 0.930 . S
C3336 C3335 1.376 . S
C3336 C3337 1.388 . S
C3337 H3324 0.930 . S
C3337 C3336 1.388 . S
C3337 C3338 1.390 . S
C3338 C3337 1.390 . S
C3338 C3339 1.394 . S
C3338 C3344 1.465 . S
C3339 C3334 1.399 . S
C3339 C3338 1.394 . S
C3339 C3340 1.516 . S
C3340 C3339 1.516 . S
C3340 C3341 1.502 . S
C3340 C3342 1.561 . S
C3340 C3343 1.526 . S
C3341 H3325 0.959 . S
C3341 H3326 0.959 . S
C3341 H3327 0.961 . S
C3341 C3340 1.502 . S
C3342 H3328 0.960 . S
C3342 H3329 0.961 . S
C3342 H3330 0.959 . S
C3342 C3340 1.561 . S
C3343 C3340 1.526 . S
C3343 C3344 1.396 . S
C3343 C3348 1.390 . S
C3344 C3338 1.465 . S
C3344 C3343 1.396 . S
C3344 C3345 1.399 . S
C3345 H3331 0.929 . S
C3345 C3344 1.399 . S
C3345 C3346 1.385 . S
C3346 H3332 0.931 . S
C3346 C3345 1.385 . S
C3346 C3347 1.389 . S
C3347 C3346 1.389 . S
C3347 C3348 1.387 . S
C3348 H3333 0.930 . S
C3348 C3343 1.390 . S
C3348 C3347 1.387 . S
H3349 C3361 0.930 . S
H3350 C3363 0.930 . S
H3351 C3364 0.930 . S
H3352 C3368 0.959 . S
H3353 C3368 0.959 . S
H3354 C3368 0.961 . S
H3355 C3369 0.960 . S
H3356 C3369 0.961 . S
H3357 C3369 0.959 . S
H3358 C3372 0.929 . S
H3359 C3373 0.931 . S
H3360 C3375 0.930 . S
C3361 H3349 0.930 . S
C3361 C3362 1.399 . S
C3361 C3366 1.399 . S
C3362 C3361 1.399 . S
C3362 C3363 1.376 . S
C3363 H3350 0.930 . S
C3363 C3362 1.376 . S
C3363 C3364 1.388 . S
C3364 H3351 0.930 . S
C3364 C3363 1.388 . S
C3364 C3365 1.390 . S
C3365 C3364 1.390 . S
C3365 C3366 1.394 . S
C3365 C3371 1.465 . S
C3366 C3361 1.399 . S
C3366 C3365 1.394 . S
C3366 C3367 1.516 . S
C3367 C3366 1.516 . S
C3367 C3368 1.502 . S
C3367 C3369 1.561 . S
C3367 C3370 1.526 . S
C3368 H3352 0.959 . S
C3368 H3353 0.959 . S
C3368 H3354 0.961 . S
C3368 C3367 1.502 . S
C3369 H3355 0.960 . S
C3369 H3356 0.961 . S
C3369 H3357 0.959 . S
C3369 C3367 1.561 . S
C3370 C3367 1.526 . S
C3370 C3371 1.396 . S
C3370 C3375 1.390 . S
C3371 C3365 1.465 . S
C3371 C3370 1.396 . S
C3371 C3372 1.399 . S
C3372 H3358 0.929 . S
C3372 C3371 1.399 . S
C3372 C3373 1.385 . S
C3373 H3359 0.931 . S
C3373 C3372 1.385 . S
C3373 C3374 1.389 . S
C3374 C3373 1.389 . S
C3374 C3375 1.387 . S
C3375 H3360 0.930 . S
C3375 C3370 1.390 . S
C3375 C3374 1.387 . S
C809 C366 1.896 . S
C797 C7 1.824 . S
C836 C378 1.272 . S
C824 C19 1.318 . S
C851 C29 1.763 . S
C863 C402 1.716 . S
C890 C413 1.335 . S
C878 C41 1.348 . S
C905 C52 1.394 . S
C917 C420 1.424 . S
C932 C62 1.515 . S
C944 C359 1.593 1_556 S
C959 C73 1.146 . S
C971 C386 1.272 . S
C998 C395 1.707 1_556 S
C986 C82 1.609 . S
C1025 C432 1.718 . S
C1013 C5 1.563 . S
C1040 C16 1.405 . S
C1052 C458 1.487 . S
C1067 C30 1.743 . S
C1079 C474 1.581 . S
C1106 C494 1.262 . S
C1094 C40 1.393 . S
C1121 C49 1.147 . S
C1133 C503 1.365 . S
C1160 C528 1.454 . S
C1148 C63 1.486 . S
C1175 C74 1.210 . S
C1187 C548 1.227 . S
C1214 C564 1.532 . S
C1202 C85 1.577 . S
C1229 C8 1.614 . S
C1241 C486 1.573 . S
C1256 C51 1.511 . S
C1268 C521 1.581 . S
C1295 C540 1.710 . S
C1283 C60 1.613 . S
C1310 C71 1.251 . S
C1322 C557 1.360 . S
C1349 C510 1.920 . S
C1337 C84 1.878 . S
C1376 C450 1.421 . S
C1364 C27 1.369 . S
C1391 C38 1.274 . S
C1403 C467 1.371 . S
C1430 C440 1.609 . S
C1418 C18 1.581 . S
C1457 C584 1.888 . S
C1445 C95 1.821 . S
C1472 C107 1.292 . S
C1484 C594 1.319 . S
C1499 C117 1.766 . S
C1511 C618 1.743 . S
C1538 C630 1.337 . S
C1526 C129 1.347 . S
C1553 C140 1.421 . S
C1565 C638 1.372 . S
C1580 C150 1.575 . S
C1592 C576 1.518 . S
C1607 C161 1.250 . S
C1619 C602 1.265 . S
C1634 C170 1.607 . S
C1646 C611 1.710 . S
C1673 C504 1.718 . S
C1661 C93 1.563 . S
C1688 C104 1.347 . S
C1700 C654 1.504 . S
C1727 C546 1.582 . S
C1715 C118 1.745 . S
C1742 C128 1.368 . S
C1754 C674 1.262 . S
C1769 C137 1.111 . S
C1781 C431 1.390 . S
C1808 C692 1.424 . S
C1796 C151 1.493 . S
C1823 C162 1.197 . S
C1835 C476 1.251 . S
C1862 C708 1.547 . S
C1850 C173 1.585 . S
C1877 C96 1.612 . S
C1889 C666 1.578 . S
C1916 C684 1.512 . S
C1904 C139 1.571 . S
C1931 C148 1.601 . S
C1943 C468 1.708 . S
C1970 C701 1.458 . S
C1958 C159 1.067 . S
C1985 C172 1.871 . S
C1997 C438 1.935 . S
C2012 C115 1.370 . S
C2024 C647 1.408 . S
C2039 C126 1.303 . S
C2051 C539 1.385 . S
C2066 C106 1.603 . S
C2078 C512 1.586 . S
C2093 C183 1.822 . S
C2105 C620 1.889 . S
C2132 C629 1.210 . S
C2120 C195 1.357 . S
C2147 C205 1.761 . S
C2159 C582 1.742 . S
C2174 C217 1.347 . S
C2186 C593 1.334 . S
C2201 C228 1.393 . S
C2213 C600 1.413 . S
C2228 C238 1.575 . S
C2240 C612 1.522 . S
C2267 C636 1.277 . S
C2255 C249 1.250 . S
C2282 C258 1.522 . S
C2294 C575 1.641 . S
C2321 C726 1.735 . S
C2309 C181 1.642 . S
C2336 C192 1.321 . S
C2348 C530 1.527 . S
C2375 C744 1.670 . S
C2363 C206 1.694 . S
C2390 C216 1.393 . S
C2402 C566 1.272 . S
C2417 C225 1.243 . S
C2429 C764 1.312 . S
C2444 C239 1.517 . S
C2456 C456 1.407 . S
C2483 C780 1.232 . S
C2471 C250 1.215 . S
C2498 C261 1.571 . S
C2510 C492 1.520 . S
C2537 C558 1.506 . S
C2525 C184 1.588 . S
C2564 C449 1.579 . S
C2552 C227 1.514 . S
C2579 C236 1.488 . S
C2591 C773 1.765 . S
C2606 C247 1.071 . S
C2618 C485 1.451 . S
C2645 C756 1.942 . S
C2633 C260 1.872 . S
C2672 C522 1.421 . S
C2660 C203 1.368 . S
C2699 C737 1.383 . S
C2687 C214 1.299 . S
C2726 C719 1.625 . S
C2714 C194 1.571 . S
C2741 C271 1.835 . S
C2753 C404 1.900 . S
C2768 C283 1.295 . S
C2780 C414 1.319 . S
C2807 C368 1.754 . S
C2795 C293 1.713 . S
C2834 C377 1.223 . S
C2822 C305 1.375 . S
C2861 C384 1.355 . S
C2849 C316 1.423 . S
C2888 C396 1.521 1_556 S
C2876 C326 1.556 . S
C2915 C422 1.246 . S
C2903 C337 1.175 . S
C2930 C346 1.506 . S
C2942 C360 1.640 1_556 S
C2957 C269 1.581 . S
C2969 C762 1.730 . S
C2996 C690 1.518 . S
C2984 C280 1.326 . S
C3023 C782 1.549 . S
C3011 C294 1.744 . S
C3050 C710 1.235 . S
C3038 C304 1.372 . S
C3065 C313 1.273 . S
C3077 C728 1.298 . S
C3104 C656 1.372 . S
C3092 C327 1.515 . S
C3131 C746 1.237 . S
C3119 C338 1.213 . S
C3146 C349 1.579 . S
C3158 C672 1.544 . S
C3185 C702 1.575 . S
C3173 C272 1.612 . S
C3212 C648 1.508 . S
C3200 C315 1.561 . S
C3239 C738 1.706 . S
C3227 C324 1.608 . S
C3254 C335 1.130 . S
C3266 C665 1.439 . S
C3281 C348 1.867 . S
C3293 C720 1.933 . S
C3308 C291 1.218 . S
C3320 C683 1.494 . S
C3335 C302 1.259 . S
C3347 C774 1.362 . S
C3374 C755 1.622 . S
C3362 C282 1.519 . S
