# Generated by pormake.
# Topology pth, (4,4)-cn, num edge types: 1
# Building blocks:
#     Node 0, Type 0, BuildingBlock: CEKHIL_clean_sbu_0, # of connection points: 4
#     Node 1, Type 0, BuildingBlock: CEKHIL_clean_sbu_0, # of connection points: 4
#     Node 2, Type 0, BuildingBlock: CEKHIL_clean_sbu_0, # of connection points: 4
#     Node 3, Type 1, BuildingBlock: MUDLON_clean_linker_0, # of connection points: 4
#     Node 4, Type 1, BuildingBlock: MUDLON_clean_linker_0, # of connection points: 4
#     Node 5, Type 1, BuildingBlock: MUDLON_clean_linker_0, # of connection points: 4
#     Edge 6, Type (0, 1), BuildingBlock: CIFDUS_clean_linker_0, # of connection points: 2
#     Edge 7, Type (0, 1), BuildingBlock: CIFDUS_clean_linker_0, # of connection points: 2
#     Edge 8, Type (0, 1), BuildingBlock: CIFDUS_clean_linker_0, # of connection points: 2
#     Edge 9, Type (0, 1), BuildingBlock: CIFDUS_clean_linker_0, # of connection points: 2
#     Edge 10, Type (0, 1), BuildingBlock: CIFDUS_clean_linker_0, # of connection points: 2
#     Edge 11, Type (0, 1), BuildingBlock: CIFDUS_clean_linker_0, # of connection points: 2
#     Edge 12, Type (0, 1), BuildingBlock: CIFDUS_clean_linker_0, # of connection points: 2
#     Edge 13, Type (0, 1), BuildingBlock: CIFDUS_clean_linker_0, # of connection points: 2
#     Edge 14, Type (0, 1), BuildingBlock: CIFDUS_clean_linker_0, # of connection points: 2
#     Edge 15, Type (0, 1), BuildingBlock: CIFDUS_clean_linker_0, # of connection points: 2
#     Edge 16, Type (0, 1), BuildingBlock: CIFDUS_clean_linker_0, # of connection points: 2
#     Edge 17, Type (0, 1), BuildingBlock: CIFDUS_clean_linker_0, # of connection points: 2
# Relax obj value: 0.036
# Max RMSD: 0.091
# Mean RMSD: 0.088
data_MOF--net-pth--node1-CEKHIL_clean_sbu_0--node2-MUDLON_clean_linker_0--edge1-CIFDUS_clean_linker_0
_symmetry_space_group_name_H-M    P1
_symmetry_Int_Tables_number       1
_symmetry_cell_setting            triclinic
loop_
_symmetry_equiv_pos_as_xyz
'x, y, z'
_cell_length_a     30.225162
_cell_length_b     30.31477
_cell_length_c     62.564536
_cell_angle_alpha  90.887155
_cell_angle_beta   89.990501
_cell_angle_gamma 120.26392
loop_
_atom_site_label
_atom_site_type_symbol
_atom_site_fract_x
_atom_site_fract_y
_atom_site_fract_z
_atom_type_partial_charge
Co0 Co 0.99564 0.0167 0.04322 0.0
O1 O 0.96173 0.96359 0.06388 0.0
O2 O 0.02624 0.97394 0.04368 0.0
C3 C 0.00351 0.0806 0.06495 0.0
O4 O 0.04208 0.06763 0.02104 0.0
Co5 Co 0.94806 0.07957 0.02671 0.0
O6 O 0.01641 0.1237 0.01388 0.0
C7 C 0.90577 0.97239 0.0124 0.0
C8 C 0.99396 0.94886 0.05873 0.0
C9 C 0.04851 0.10835 0.01202 0.0
O10 O 0.94487 0.97203 0.02034 0.0
O11 O 0.89747 0.00957 0.01513 0.0
O12 O 0.0363 0.06494 0.06608 0.0
O13 O 0.96553 0.05513 0.05191 0.0
Co14 Co 0.01054 0.01761 0.36441 0.0
O15 O 0.97709 0.03821 0.34417 0.0
O16 O 0.03911 0.09118 0.36619 0.0
C17 C 0.02326 0.9675 0.34111 0.0
O18 O 0.05541 0.00988 0.38679 0.0
Co19 Co 0.96061 0.90436 0.37663 0.0
O20 O 0.02898 0.92632 0.38924 0.0
C21 C 0.91973 0.96672 0.39471 0.0
C22 C 0.00742 0.08476 0.35073 0.0
C23 C 0.06106 0.97305 0.39359 0.0
O24 O 0.95755 0.00657 0.38653 0.0
O25 O 0.9117 0.92148 0.3913 0.0
O26 O 0.05466 0.01645 0.34213 0.0
O27 O 0.98291 0.95087 0.35289 0.0
Co28 Co 0.01464 0.01393 0.69229 0.0
O29 O 0.06958 0.04485 0.67202 0.0
O30 O 0.05198 0.97759 0.69146 0.0
C31 C 0.95416 0.01213 0.67045 0.0
O32 O 0.96073 0.96995 0.71416 0.0
Co33 Co 0.959 0.06891 0.70929 0.0
O34 O 0.9079 1.00066 0.72001 0.0
C35 C 0.06219 0.09911 0.72602 0.0
C36 C 0.07998 0.00956 0.67685 0.0
C37 C 0.91982 0.96624 0.72224 0.0
O38 O 0.06109 0.06168 0.71554 0.0
O39 O 0.0267 0.11032 0.72456 0.0
O40 O 0.966 0.97651 0.66928 0.0
O41 O 0.98145 0.04941 0.68367 0.0
H42 H 0.94048 0.67156 0.21907 0.0
N43 N 0.029 0.69462 0.19859 0.0
H44 H 0.93278 0.71502 0.25088 0.0
H45 H 0.10478 0.76354 0.22305 0.0
H46 H 0.09809 0.80462 0.25577 0.0
H47 H 0.09637 0.76446 0.1725 0.0
H48 H 0.07864 0.80551 0.14299 0.0
H49 H 0.9344 0.66556 0.18178 0.0
H50 H 0.91619 0.70471 0.15194 0.0
H51 H 0.94509 0.59962 0.19183 0.0
H52 H 0.10591 0.67962 0.2076 0.0
H53 H 0.9428 0.51827 0.19355 0.0
H54 H 0.10353 0.59864 0.21123 0.0
H55 H 0.93046 0.29729 0.22839 0.0
H56 H 0.91591 0.24466 0.25967 0.0
H57 H 0.0797 0.31182 0.26778 0.0
H58 H 0.09338 0.36668 0.23724 0.0
H59 H 0.10738 0.37202 0.19366 0.0
H60 H 0.11425 0.32294 0.16374 0.0
H61 H 0.94929 0.24069 0.15661 0.0
H62 H 0.94346 0.29181 0.18612 0.0
H63 H 0.94244 0.37754 0.21818 0.0
H64 H 0.94335 0.45815 0.21538 0.0
H65 H 0.10022 0.53069 0.19363 0.0
N66 N 0.02152 0.36139 0.21064 0.0
H67 H 0.09979 0.45092 0.19833 0.0
C68 C 0.02328 0.71545 0.21848 0.0
C69 C 0.9749 0.70086 0.22693 0.0
C70 C 0.97067 0.72534 0.24534 0.0
C71 C 0.01482 0.7641 0.25583 0.0
C72 C 0.06318 0.77622 0.24785 0.0
C73 C 0.06723 0.75248 0.22927 0.0
C74 C 0.01697 0.71185 0.17929 0.0
C75 C 0.05702 0.75066 0.16775 0.0
C76 C 0.04672 0.77391 0.15084 0.0
C77 C 0.9959 0.75867 0.14511 0.0
C78 C 0.95578 0.71798 0.1561 0.0
C79 C 0.96617 0.69502 0.17309 0.0
C80 C 0.02612 0.64583 0.19908 0.0
C81 C 0.98002 0.59975 0.19557 0.0
C82 C 0.97867 0.55298 0.19694 0.0
C83 C 0.02306 0.5513 0.20244 0.0
C84 C 0.0688 0.59786 0.20633 0.0
C85 C 0.07028 0.64439 0.20445 0.0
C86 C 0.01298 0.33622 0.23074 0.0
C87 C 0.96311 0.30194 0.23742 0.0
C88 C 0.95497 0.27128 0.25513 0.0
C89 C 0.99661 0.27328 0.26617 0.0
C90 C 0.04665 0.30951 0.25994 0.0
C91 C 0.05466 0.34078 0.24242 0.0
C92 C 0.02502 0.33553 0.19189 0.0
C93 C 0.07293 0.34406 0.18531 0.0
C94 C 0.07663 0.31557 0.16838 0.0
C95 C 0.03229 0.27747 0.15784 0.0
C96 C 0.98428 0.27007 0.16416 0.0
C97 C 0.98073 0.29897 0.18105 0.0
C98 C 0.02131 0.40847 0.20874 0.0
C99 C 0.97715 0.41105 0.21311 0.0
C100 C 0.97761 0.45724 0.21118 0.0
C101 C 0.02195 0.50158 0.20432 0.0
C102 C 0.0657 0.49814 0.1995 0.0
C103 C 0.06549 0.45233 0.20196 0.0
H104 H 0.79159 0.15219 0.55372 0.0
N105 N 0.70831 0.07766 0.53476 0.0
H106 H 0.83652 0.14656 0.58518 0.0
H107 H 0.67445 0.99457 0.56095 0.0
H108 H 0.71829 0.98893 0.59245 0.0
H109 H 0.70994 0.98963 0.52583 0.0
H110 H 0.75329 0.97535 0.49602 0.0
H111 H 0.75063 0.13736 0.50143 0.0
H112 H 0.79191 0.12243 0.47077 0.0
H113 H 0.67178 0.14089 0.53589 0.0
H114 H 0.62456 0.98127 0.53134 0.0
H115 H 0.58247 0.11953 0.53422 0.0
H116 H 0.53528 0.95884 0.53182 0.0
H117 H 0.3214 0.05807 0.54131 0.0
H118 H 0.28282 0.0757 0.57175 0.0
H119 H 0.27918 0.95012 0.60532 0.0
H120 H 0.31407 0.93025 0.57374 0.0
H121 H 0.25033 0.89721 0.52173 0.0
H122 H 0.20069 0.89221 0.49002 0.0
H123 H 0.31414 0.04746 0.47484 0.0
H124 H 0.36335 0.05211 0.50693 0.0
H125 H 0.41792 0.06579 0.55251 0.0
H126 H 0.50741 0.08924 0.55211 0.0
H127 H 0.46827 0.95439 0.51357 0.0
N128 N 0.33657 0.97667 0.5362 0.0
H129 H 0.3781 0.92894 0.51586 0.0
C130 C 0.72965 0.07415 0.55489 0.0
C131 C 0.77502 0.11674 0.56235 0.0
C132 C 0.80052 0.11343 0.58036 0.0
C133 C 0.78111 0.06718 0.5913 0.0
C134 C 0.73463 0.02493 0.58423 0.0
C135 C 0.70918 0.0283 0.56622 0.0
C136 C 0.72781 0.06512 0.51602 0.0
C137 C 0.72749 0.01872 0.51386 0.0
C138 C 0.75205 0.01042 0.49662 0.0
C139 C 0.77677 0.04796 0.48101 0.0
C140 C 0.77447 0.09314 0.4827 0.0
C141 C 0.75049 0.10163 0.50008 0.0
C142 C 0.65491 0.06287 0.53422 0.0
C143 C 0.64191 0.10112 0.53494 0.0
C144 C 0.59064 0.08864 0.53417 0.0
C145 C 0.55085 0.03724 0.53309 0.0
C146 C 0.56431 0.9989 0.53231 0.0
C147 C 0.61569 0.01159 0.5325 0.0
C148 C 0.31933 0.99177 0.55501 0.0
C149 C 0.31202 0.03405 0.55512 0.0
C150 C 0.29052 0.0446 0.57284 0.0
C151 C 0.27716 0.01413 0.59116 0.0
C152 C 0.28744 0.97366 0.59139 0.0
C153 C 0.3079 0.96246 0.57344 0.0
C154 C 0.31041 0.9747 0.5166 0.0
C155 C 0.26463 0.92991 0.51142 0.0
C156 C 0.23652 0.92716 0.49326 0.0
C157 C 0.25359 0.96938 0.47981 0.0
C158 C 0.2998 0.01441 0.48494 0.0
C159 C 0.32811 0.01702 0.50316 0.0
C160 C 0.39079 0.99481 0.53451 0.0
C161 C 0.42838 0.04097 0.5441 0.0
C162 C 0.48009 0.05474 0.54362 0.0
C163 C 0.4958 0.02362 0.53297 0.0
C164 C 0.4581 0.97875 0.52254 0.0
C165 C 0.40637 0.96434 0.52356 0.0
H166 H 0.64325 0.76111 0.89131 0.0
N167 N 0.65202 0.69754 0.86443 0.0
H168 H 0.69931 0.8086 0.92135 0.0
H169 H 0.73149 0.68797 0.8792 0.0
H170 H 0.78571 0.73201 0.9103 0.0
H171 H 0.71007 0.67548 0.83802 0.0
H172 H 0.75174 0.72013 0.80504 0.0
H173 H 0.64449 0.77179 0.84627 0.0
H174 H 0.68713 0.81801 0.81411 0.0
H175 H 0.55296 0.66582 0.86029 0.0
H176 H 0.65877 0.61178 0.86906 0.0
H177 H 0.48105 0.57823 0.8616 0.0
H178 H 0.58741 0.52438 0.87178 0.0
H179 H 0.27476 0.34778 0.88131 0.0
H180 H 0.21778 0.3138 0.91163 0.0
H181 H 0.31447 0.26109 0.93842 0.0
H182 H 0.37053 0.2937 0.90728 0.0
H183 H 0.32466 0.24479 0.85589 0.0
H184 H 0.26639 0.20514 0.8254 0.0
H185 H 0.26709 0.34622 0.81522 0.0
H186 H 0.32367 0.38472 0.84613 0.0
H187 H 0.36131 0.42564 0.8869 0.0
H188 H 0.43361 0.5119 0.8849 0.0
H189 H 0.52199 0.45421 0.85327 0.0
N190 N 0.35811 0.33725 0.87288 0.0
H191 H 0.44991 0.36718 0.85658 0.0
C192 C 0.68267 0.72054 0.88332 0.0
C193 C 0.67402 0.75433 0.8956 0.0
C194 C 0.70602 0.78112 0.9129 0.0
C195 C 0.74715 0.77405 0.91857 0.0
C196 C 0.75495 0.73905 0.90639 0.0
C197 C 0.72341 0.71305 0.88877 0.0
C198 C 0.67395 0.72029 0.84435 0.0
C199 C 0.70443 0.70603 0.83258 0.0
C200 C 0.72851 0.73192 0.81386 0.0
C201 C 0.72276 0.77271 0.80676 0.0
C202 C 0.69164 0.78618 0.81867 0.0
C203 C 0.66743 0.76009 0.83716 0.0
C204 C 0.61097 0.64533 0.86482 0.0
C205 C 0.5605 0.63489 0.86267 0.0
C206 C 0.51947 0.58478 0.86365 0.0
C207 C 0.52805 0.54385 0.86708 0.0
C208 C 0.57906 0.55458 0.86892 0.0
C209 C 0.62011 0.60476 0.86761 0.0
C210 C 0.32695 0.3229 0.89189 0.0
C211 C 0.28403 0.32922 0.8937 0.0
C212 C 0.25154 0.31003 0.91125 0.0
C213 C 0.26125 0.2844 0.92752 0.0
C214 C 0.30526 0.27982 0.92604 0.0
C215 C 0.33763 0.29882 0.90838 0.0
C216 C 0.32878 0.31761 0.85329 0.0
C217 C 0.31273 0.26725 0.84685 0.0
C218 C 0.27961 0.24479 0.82936 0.0
C219 C 0.26184 0.27241 0.81785 0.0
C220 C 0.27938 0.32357 0.82389 0.0
C221 C 0.31226 0.34588 0.84147 0.0
C222 C 0.40029 0.38936 0.87218 0.0
C223 C 0.39627 0.43113 0.87981 0.0
C224 C 0.43779 0.48093 0.87837 0.0
C225 C 0.48402 0.49049 0.86888 0.0
C226 C 0.48759 0.4486 0.86107 0.0
C227 C 0.4463 0.39874 0.86281 0.0
H228 H 0.06721 0.12644 0.09895 0.0
H229 H 0.94605 0.12662 0.06259 0.0
H230 H 0.94577 0.18934 0.08751 0.0
H231 H 0.97732 0.24129 0.12057 0.0
H232 H 0.0955 0.23734 0.1578 0.0
H233 H 0.10003 0.17974 0.13149 0.0
C234 C 0.04111 0.1406 0.09636 0.0
C235 C 0.00664 0.12181 0.07899 0.0
C236 C 0.04053 0.176 0.11096 0.0
C237 C 0.97288 0.14036 0.0759 0.0
C238 C 0.97263 0.17617 0.09016 0.0
C239 C 0.00392 0.22768 0.12298 0.0
C240 C 0.03604 0.24386 0.14118 0.0
C241 C 0.00574 0.19367 0.10795 0.0
C242 C 0.07084 0.22633 0.14382 0.0
C243 C 0.07324 0.19299 0.12884 0.0
H244 H 0.9356 0.05542 0.41326 0.0
H245 H 0.82609 0.89374 0.40952 0.0
H246 H 0.77114 0.90491 0.43501 0.0
H247 H 0.75517 0.96021 0.45907 0.0
H248 H 0.86779 0.12093 0.46427 0.0
H249 H 0.91968 0.11047 0.43718 0.0
C250 C 0.89955 0.02258 0.41787 0.0
C251 C 0.88516 0.97379 0.40944 0.0
C252 C 0.86846 0.0291 0.43278 0.0
C253 C 0.83837 0.93173 0.41578 0.0
C254 C 0.80684 0.93808 0.43036 0.0
C255 C 0.79121 0.99296 0.45441 0.0
C256 C 0.80717 0.04134 0.46376 0.0
C257 C 0.82174 0.98651 0.43914 0.0
C258 C 0.85374 0.08337 0.45715 0.0
C259 C 0.88384 0.07738 0.44176 0.0
H260 H 0.81857 0.92564 0.73042 0.0
H261 H 0.94883 0.90955 0.74569 0.0
H262 H 0.89842 0.8455 0.77231 0.0
H263 H 0.81972 0.80023 0.79353 0.0
H264 H 0.68824 0.81331 0.7767 0.0
H265 H 0.73693 0.87256 0.74856 0.0
C266 C 0.83578 0.90774 0.73943 0.0
C267 C 0.88753 0.92279 0.73626 0.0
C268 C 0.80654 0.87081 0.75463 0.0
C269 C 0.90906 0.89868 0.74782 0.0
C270 C 0.88032 0.86222 0.76313 0.0
C271 C 0.80123 0.81505 0.78344 0.0
C272 C 0.75053 0.80295 0.78766 0.0
C273 C 0.8293 0.84876 0.76699 0.0
C274 C 0.72759 0.82298 0.77434 0.0
C275 C 0.75532 0.8567 0.75811 0.0
H276 H 0.93415 0.89493 0.09183 0.0
H277 H 0.05975 0.91245 0.05295 0.0
H278 H 0.06935 0.85236 0.0754 0.0
H279 H 0.0454 0.79897 0.10746 0.0
H280 H 0.92205 0.78528 0.14697 0.0
H281 H 0.90775 0.83885 0.12267 0.0
C282 C 0.96331 0.88525 0.0881 0.0
C283 C 0.99634 0.90839 0.07079 0.0
C284 C 0.96908 0.85129 0.10123 0.0
C285 C 0.03385 0.89528 0.0662 0.0
C286 C 0.03947 0.86102 0.07907 0.0
C287 C 0.01538 0.80767 0.11075 0.0
C288 C 0.98492 0.78793 0.12909 0.0
C289 C 0.0079 0.83952 0.09688 0.0
C290 C 0.94565 0.7991 0.13287 0.0
C291 C 0.93767 0.8302 0.11906 0.0
H292 H 0.09741 0.91019 0.40321 0.0
H293 H 0.12222 0.06104 0.41684 0.0
H294 H 0.18695 0.07487 0.44378 0.0
H295 H 0.23113 0.04094 0.46557 0.0
H296 H 0.20559 0.89004 0.45128 0.0
H297 H 0.14634 0.87943 0.42259 0.0
C298 C 0.11713 0.9463 0.41196 0.0
C299 C 0.10442 0.98426 0.40816 0.0
C300 C 0.15391 0.95382 0.42747 0.0
C301 C 0.13108 0.03108 0.41944 0.0
C302 C 0.16797 0.03893 0.43493 0.0
C303 C 0.21328 0.00612 0.45593 0.0
C304 C 0.22228 0.96604 0.46081 0.0
C305 C 0.17899 1.00015 0.43938 0.0
C306 C 0.19857 0.92106 0.4482 0.0
C307 C 0.16481 0.91501 0.43171 0.0
H308 H 0.07387 0.17479 0.7536 0.0
H309 H 0.14844 0.0924 0.73233 0.0
H310 H 0.21776 0.14023 0.75811 0.0
H311 H 0.25608 0.20379 0.78742 0.0
H312 H 0.17915 0.28328 0.8094 0.0
H313 H 0.11261 0.23892 0.7823 0.0
C314 C 0.10534 0.16734 0.75446 0.0
C315 C 0.1056 0.12976 0.74102 0.0
C316 C 0.14491 0.19465 0.76943 0.0
C317 C 0.14692 0.12086 0.74248 0.0
C318 C 0.18668 0.14823 0.75724 0.0
C319 C 0.22466 0.21128 0.78635 0.0
C320 C 0.22288 0.24701 0.80048 0.0
C321 C 0.18582 0.18487 0.77094 0.0
C322 C 0.18218 0.25672 0.79857 0.0
C323 C 0.14375 0.23099 0.78318 0.0
H324 H 0.92857 0.086 0.66707 0.0
H325 H 0.8925 0.93837 0.64156 0.0
H326 H 0.83363 0.94118 0.61567 0.0
H327 H 0.79691 0.98795 0.59867 0.0
H328 H 0.83299 0.13582 0.62385 0.0
H329 H 0.88762 0.13069 0.65133 0.0
C330 C 0.90745 0.05424 0.65597 0.0
C331 C 0.91515 0.01217 0.65617 0.0
C332 C 0.87401 0.05634 0.64093 0.0
C333 C 0.88746 0.9713 0.64171 0.0
C334 C 0.85382 0.9729 0.62685 0.0
C335 C 0.81592 0.01867 0.61041 0.0
C336 C 0.81091 0.06228 0.60913 0.0
C337 C 0.8474 0.01555 0.62611 0.0
C338 C 0.83666 0.1021 0.62427 0.0
C339 C 0.86777 0.09911 0.64005 0.0
H340 H 0.92762 0.92267 0.98142 0.0
H341 H 0.8023 0.92663 0.01245 0.0
H342 H 0.74144 0.86114 0.98755 0.0
H343 H 0.72455 0.80725 0.95569 0.0
H344 H 0.85108 0.81152 0.92169 0.0
H345 H 0.91028 0.86773 0.94932 0.0
C346 C 0.88688 0.90849 0.98287 0.0
C347 C 0.86928 0.92913 0.99873 0.0
C348 C 0.85231 0.87232 0.96793 0.0
C349 C 0.81659 0.91123 1.0003 0.0
C350 C 0.78185 0.87389 0.98607 0.0
C351 C 0.76508 0.8207 0.95411 0.0
C352 C 0.78292 0.80508 0.93638 0.0
C353 C 0.79939 0.85501 0.96953 0.0
C354 C 0.83566 0.822 0.93518 0.0
C355 C 0.86984 0.85474 0.95091 0.0
H356 H 0.96403 0.86406 0.33499 0.0
H357 H 0.0993 0.99754 0.31209 0.0
H358 H 0.10884 0.9463 0.28414 0.0
H359 H 0.07637 0.86541 0.26489 0.0
H360 H 0.94366 0.73001 0.28818 0.0
H361 H 0.93497 0.7805 0.31696 0.0
C362 C 0.99579 0.88176 0.32398 0.0
C363 C 0.03067 0.93462 0.32555 0.0
C364 C 1.0012 0.85195 0.30784 0.0
C365 C 0.07178 0.95698 0.31123 0.0
C366 C 0.07724 0.92774 0.29518 0.0
C367 C 0.04613 0.84641 0.27648 0.0
C368 C 0.01076 0.79378 0.27423 0.0
C369 C 0.04186 0.87538 0.29317 0.0
C370 C 0.97107 0.77055 0.28922 0.0
C371 C 0.96625 0.79935 0.30581 0.0
H372 H 0.16281 0.08311 0.65637 0.0
H373 H 0.08309 0.92224 0.66994 0.0
H374 H 0.13896 0.90967 0.6454 0.0
H375 H 0.20429 0.94305 0.61749 0.0
H376 H 0.2889 0.10541 0.60612 0.0
H377 H 0.23665 0.11844 0.63219 0.0
C378 C 0.15818 0.04544 0.65415 0.0
C379 C 0.11862 0.00356 0.66474 0.0
C380 C 0.1907 0.03859 0.64017 0.0
C381 C 0.11335 0.95508 0.66197 0.0
C382 C 0.14507 0.94783 0.64784 0.0
C383 C 0.2125 0.98157 0.62101 0.0
C384 C 0.25008 0.02294 0.6093 0.0
C385 C 0.18313 0.98914 0.63648 0.0
C386 C 0.25924 0.0724 0.61419 0.0
C387 C 0.22962 0.08007 0.6293 0.0
H388 H 0.08646 0.20453 0.99682 0.0
H389 H 0.1116 0.07638 0.99541 0.0
H390 H 0.18107 0.12044 0.97 0.0
H391 H 0.23089 0.19286 0.94641 0.0
H392 H 0.20773 0.32225 0.94878 0.0
H393 H 0.14099 0.27984 0.97539 0.0
C394 C 0.10726 0.18626 0.99105 0.0
C395 C 0.09337 0.13694 0.99792 0.0
C396 C 0.1473 0.21185 0.97645 0.0
C397 C 0.12129 0.11425 0.99043 0.0
C398 C 0.16099 0.13937 0.97582 0.0
C399 C 0.21205 0.21234 0.95302 0.0
C400 C 0.22417 0.26059 0.94534 0.0
C401 C 0.17389 0.1879 0.9685 0.0
C402 C 0.19861 0.28471 0.95399 0.0
C403 C 0.16054 0.26059 0.96932 0.0
H404 H 0.94248 0.07827 0.31966 0.0
H405 H 0.07409 0.18788 0.35646 0.0
H406 H 0.08012 0.25707 0.33453 0.0
H407 H 0.05136 0.28511 0.30313 0.0
H408 H 0.92265 0.17246 0.26555 0.0
H409 H 0.91169 0.1062 0.28985 0.0
C410 C 0.97228 0.11734 0.32309 0.0
C411 C 0.00801 0.12783 0.33959 0.0
C412 C 0.97604 0.15651 0.31023 0.0
C413 C 0.04611 0.17874 0.34384 0.0
C414 C 0.04968 0.21827 0.33123 0.0
C415 C 0.02089 0.2461 0.30026 0.0
C416 C 0.98786 0.23422 0.28244 0.0
C417 C 0.01547 0.20742 0.31407 0.0
C418 C 0.94813 0.18337 0.27925 0.0
C419 C 0.94207 0.1451 0.29305 0.0
loop_
_geom_bond_atom_site_label_1
_geom_bond_atom_site_label_2
_geom_bond_distance
_geom_bond_site_symmetry_2
_ccdc_geom_bond_type
Co0 O1 2.216 1_445 S
Co0 O2 2.091 1_545 S
Co0 O4 2.004 . S
Co0 O10 2.021 1_445 S
Co0 O12 2.137 . S
Co0 O13 2.244 1_455 S
O1 Co0 2.216 1_665 S
O1 C8 1.247 1_655 S
O2 Co0 2.091 1_565 S
O2 C8 1.261 . S
C3 O12 1.247 . S
C3 O13 1.272 1_455 S
O4 Co0 2.004 . S
O4 C9 1.259 . S
Co5 O6 2.056 1_654 S
Co5 O11 2.052 1_545 S
Co5 O13 2.135 . S
O6 Co5 2.056 1_456 S
O6 C9 1.232 1_556 S
C7 O10 1.238 . S
C7 O11 1.241 . S
C8 O1 1.247 1_455 S
C8 O2 1.261 . S
C9 O4 1.259 . S
C9 O6 1.232 1_554 S
O10 Co0 2.021 1_665 S
O10 C7 1.238 . S
O11 Co5 2.052 1_565 S
O11 C7 1.241 . S
O12 Co0 2.137 . S
O12 C3 1.247 . S
O13 Co0 2.244 1_655 S
O13 C3 1.272 1_655 S
O13 Co5 2.135 . S
Co14 O15 2.216 1_455 S
Co14 O16 2.091 . S
Co14 O18 2.004 . S
Co14 O24 2.021 1_455 S
Co14 O26 2.140 . S
Co14 O27 2.244 1_445 S
O15 Co14 2.216 1_655 S
O15 C22 1.247 1_655 S
O16 Co14 2.091 . S
O16 C22 1.261 . S
C17 O26 1.244 1_565 S
C17 O27 1.272 1_455 S
O18 Co14 2.004 . S
O18 C23 1.259 . S
Co19 O20 2.061 1_655 S
Co19 O25 2.052 . S
Co19 O27 2.135 . S
O20 Co19 2.061 1_455 S
O20 C23 1.235 1_565 S
C21 O24 1.238 . S
C21 O25 1.241 1_545 S
C22 O15 1.247 1_455 S
C22 O16 1.261 . S
C23 O18 1.259 . S
C23 O20 1.235 1_545 S
O24 Co14 2.021 1_655 S
O24 C21 1.238 . S
O25 Co19 2.052 . S
O25 C21 1.241 1_565 S
O26 Co14 2.140 . S
O26 C17 1.244 1_545 S
O27 Co14 2.244 1_665 S
O27 C17 1.272 1_655 S
O27 Co19 2.135 . S
Co28 O29 2.216 1_565 S
Co28 O30 2.091 . S
Co28 O32 2.004 1_455 S
Co28 O38 2.021 1_565 S
Co28 O40 2.137 1_455 S
Co28 O41 2.244 1_465 S
O29 Co28 2.216 1_545 S
O29 C36 1.247 . S
O30 Co28 2.091 . S
O30 C36 1.261 1_565 S
C31 O40 1.247 1_545 S
C31 O41 1.272 . S
O32 Co28 2.004 1_655 S
O32 C37 1.259 . S
Co33 O34 2.061 1_545 S
Co33 O39 2.052 1_655 S
Co33 O41 2.135 . S
O34 Co33 2.061 1_565 S
O34 C37 1.235 . S
C35 O38 1.238 . S
C35 O39 1.241 . S
C36 O29 1.247 . S
C36 O30 1.261 1_545 S
C37 O32 1.259 . S
C37 O34 1.235 . S
O38 Co28 2.021 1_545 S
O38 C35 1.238 . S
O39 Co33 2.052 1_455 S
O39 C35 1.241 . S
O40 Co28 2.137 1_655 S
O40 C31 1.247 1_565 S
O41 Co28 2.244 1_645 S
O41 C31 1.272 . S
O41 Co33 2.135 . S
H42 C69 0.929 . S
N43 C68 1.433 . S
N43 C74 1.435 . S
N43 C80 1.423 . S
H44 C70 0.930 . S
H45 C73 0.931 . S
H46 C72 0.929 . S
H47 C75 0.930 . S
H48 C76 0.932 . S
H49 C79 0.929 . S
H50 C78 0.931 . S
H51 C81 0.929 . S
H52 C85 0.932 . S
H53 C82 0.931 . S
H54 C84 0.929 1_455 S
H55 C87 0.929 . S
H56 C88 0.930 . S
H57 C90 0.929 . S
H58 C91 0.931 . S
H59 C93 0.930 . S
H60 C94 0.932 . S
H61 C96 0.931 . S
H62 C97 0.929 . S
H63 C99 0.929 . S
H64 C100 0.931 . S
H65 C102 0.929 1_455 S
N66 C86 1.433 . S
N66 C92 1.435 . S
N66 C98 1.423 . S
H67 C103 0.932 . S
C68 N43 1.433 . S
C68 C69 1.363 . S
C68 C73 1.370 1_655 S
C69 H42 0.929 . S
C69 C68 1.363 . S
C69 C70 1.385 . S
C70 H44 0.930 . S
C70 C69 1.385 . S
C70 C71 1.357 1_655 S
C71 C70 1.357 1_455 S
C71 C72 1.406 . S
C72 H46 0.929 . S
C72 C71 1.406 . S
C72 C73 1.391 . S
C73 H45 0.931 . S
C73 C68 1.370 1_455 S
C73 C72 1.391 . S
C74 N43 1.435 . S
C74 C75 1.358 1_655 S
C74 C79 1.371 . S
C75 H47 0.930 . S
C75 C74 1.358 1_455 S
C75 C76 1.405 . S
C76 H48 0.932 . S
C76 C75 1.405 . S
C76 C77 1.383 . S
C77 C76 1.383 . S
C77 C78 1.393 1_455 S
C78 H50 0.931 . S
C78 C77 1.393 1_655 S
C78 C79 1.382 . S
C79 H49 0.929 . S
C79 C74 1.371 . S
C79 C78 1.382 . S
C80 N43 1.423 . S
C80 C81 1.362 . S
C80 C85 1.388 1_655 S
C81 H51 0.929 . S
C81 C80 1.362 . S
C81 C82 1.376 . S
C82 H53 0.931 . S
C82 C81 1.376 . S
C82 C83 1.396 . S
C83 C82 1.396 . S
C83 C84 1.348 . S
C83 C101 1.472 . S
C84 H54 0.929 1_655 S
C84 C83 1.348 . S
C84 C85 1.443 1_655 S
C85 H52 0.932 . S
C85 C80 1.388 1_455 S
C85 C84 1.443 1_455 S
C86 N66 1.433 . S
C86 C87 1.363 . S
C86 C91 1.370 1_655 S
C87 H55 0.929 . S
C87 C86 1.363 . S
C87 C88 1.385 . S
C88 H56 0.930 . S
C88 C87 1.385 . S
C88 C89 1.357 1_655 S
C89 C88 1.357 1_455 S
C89 C90 1.406 . S
C90 H57 0.929 . S
C90 C89 1.406 . S
C90 C91 1.391 . S
C91 H58 0.931 . S
C91 C86 1.370 1_455 S
C91 C90 1.391 . S
C92 N66 1.435 . S
C92 C93 1.358 1_655 S
C92 C97 1.371 . S
C93 H59 0.930 . S
C93 C92 1.358 1_455 S
C93 C94 1.405 . S
C94 H60 0.932 . S
C94 C93 1.405 . S
C94 C95 1.383 . S
C95 C94 1.383 . S
C95 C96 1.393 1_455 S
C96 H61 0.931 . S
C96 C95 1.393 1_655 S
C96 C97 1.382 . S
C97 H62 0.929 . S
C97 C92 1.371 . S
C97 C96 1.382 . S
C98 N66 1.423 . S
C98 C99 1.362 . S
C98 C103 1.388 1_655 S
C99 H63 0.929 . S
C99 C98 1.362 . S
C99 C100 1.376 . S
C100 H64 0.931 . S
C100 C99 1.376 . S
C100 C101 1.396 . S
C101 C83 1.472 . S
C101 C100 1.396 . S
C101 C102 1.348 . S
C102 H65 0.929 1_655 S
C102 C101 1.348 . S
C102 C103 1.443 1_655 S
C103 H67 0.932 . S
C103 C98 1.388 1_455 S
C103 C102 1.443 1_455 S
H104 C131 0.929 . S
N105 C130 1.433 . S
N105 C136 1.435 . S
N105 C142 1.423 . S
H106 C132 0.930 . S
H107 C135 0.931 . S
H108 C134 0.929 . S
H109 C137 0.930 . S
H110 C138 0.932 . S
H111 C141 0.929 . S
H112 C140 0.931 . S
H113 C143 0.929 . S
H114 C147 0.932 1_565 S
H115 C144 0.931 . S
H116 C146 0.929 . S
H117 C149 0.929 . S
H118 C150 0.930 . S
H119 C152 0.929 . S
H120 C153 0.931 . S
H121 C155 0.930 . S
H122 C156 0.932 . S
H123 C158 0.931 . S
H124 C159 0.929 . S
H125 C161 0.929 . S
H126 C162 0.931 . S
H127 C164 0.929 . S
N128 C148 1.433 . S
N128 C154 1.435 . S
N128 C160 1.423 . S
H129 C165 0.932 1_565 S
C130 N105 1.433 . S
C130 C131 1.363 . S
C130 C135 1.370 1_545 S
C131 H104 0.929 . S
C131 C130 1.363 . S
C131 C132 1.385 . S
C132 H106 0.930 . S
C132 C131 1.385 . S
C132 C133 1.357 . S
C133 C132 1.357 . S
C133 C134 1.406 1_545 S
C134 H108 0.929 . S
C134 C133 1.406 1_565 S
C134 C135 1.391 . S
C135 H107 0.931 . S
C135 C130 1.370 1_565 S
C135 C134 1.391 . S
C136 N105 1.435 . S
C136 C137 1.358 1_545 S
C136 C141 1.371 . S
C137 H109 0.930 . S
C137 C136 1.358 1_565 S
C137 C138 1.405 . S
C138 H110 0.932 . S
C138 C137 1.405 . S
C138 C139 1.383 1_565 S
C139 C138 1.383 1_545 S
C139 C140 1.393 . S
C140 H112 0.931 . S
C140 C139 1.393 . S
C140 C141 1.382 . S
C141 H111 0.929 . S
C141 C136 1.371 . S
C141 C140 1.382 . S
C142 N105 1.423 . S
C142 C143 1.362 . S
C142 C147 1.388 . S
C143 H113 0.929 . S
C143 C142 1.362 . S
C143 C144 1.376 . S
C144 H115 0.931 . S
C144 C143 1.376 . S
C144 C145 1.396 . S
C145 C144 1.396 . S
C145 C146 1.348 . S
C145 C163 1.472 . S
C146 H116 0.929 . S
C146 C145 1.348 . S
C146 C147 1.443 . S
C147 H114 0.932 1_545 S
C147 C142 1.388 . S
C147 C146 1.443 . S
C148 N128 1.433 . S
C148 C149 1.363 . S
C148 C153 1.370 1_545 S
C149 H117 0.929 . S
C149 C148 1.363 . S
C149 C150 1.385 . S
C150 H118 0.930 . S
C150 C149 1.385 . S
C150 C151 1.357 . S
C151 C150 1.357 . S
C151 C152 1.406 1_545 S
C152 H119 0.929 . S
C152 C151 1.406 1_565 S
C152 C153 1.391 . S
C153 H120 0.931 . S
C153 C148 1.370 1_565 S
C153 C152 1.391 . S
C154 N128 1.435 . S
C154 C155 1.358 1_545 S
C154 C159 1.371 . S
C155 H121 0.930 . S
C155 C154 1.358 1_565 S
C155 C156 1.405 . S
C156 H122 0.932 . S
C156 C155 1.405 . S
C156 C157 1.383 1_565 S
C157 C156 1.383 1_545 S
C157 C158 1.393 . S
C158 H123 0.931 . S
C158 C157 1.393 . S
C158 C159 1.382 . S
C159 H124 0.929 . S
C159 C154 1.371 . S
C159 C158 1.382 . S
C160 N128 1.423 . S
C160 C161 1.362 . S
C160 C165 1.388 . S
C161 H125 0.929 . S
C161 C160 1.362 . S
C161 C162 1.376 . S
C162 H126 0.931 . S
C162 C161 1.376 . S
C162 C163 1.396 . S
C163 C145 1.472 . S
C163 C162 1.396 . S
C163 C164 1.348 . S
C164 H127 0.929 . S
C164 C163 1.348 . S
C164 C165 1.443 . S
C165 H129 0.932 1_545 S
C165 C160 1.388 . S
C165 C164 1.443 . S
H166 C193 0.929 . S
N167 C192 1.433 . S
N167 C198 1.435 . S
N167 C204 1.423 . S
H168 C194 0.930 . S
H169 C197 0.931 . S
H170 C196 0.929 . S
H171 C199 0.930 . S
H172 C200 0.932 . S
H173 C203 0.929 . S
H174 C202 0.931 . S
H175 C205 0.929 . S
H176 C209 0.932 . S
H177 C206 0.931 . S
H178 C208 0.929 . S
H179 C211 0.929 . S
H180 C212 0.930 . S
H181 C214 0.929 . S
H182 C215 0.931 . S
H183 C217 0.930 . S
H184 C218 0.932 . S
H185 C220 0.931 . S
H186 C221 0.929 . S
H187 C223 0.929 . S
H188 C224 0.931 . S
H189 C226 0.929 . S
N190 C210 1.433 . S
N190 C216 1.435 . S
N190 C222 1.423 . S
H191 C227 0.932 . S
C192 N167 1.433 . S
C192 C193 1.363 . S
C192 C197 1.370 . S
C193 H166 0.929 . S
C193 C192 1.363 . S
C193 C194 1.385 . S
C194 H168 0.930 . S
C194 C193 1.385 . S
C194 C195 1.357 . S
C195 C194 1.357 . S
C195 C196 1.406 . S
C196 H170 0.929 . S
C196 C195 1.406 . S
C196 C197 1.391 . S
C197 H169 0.931 . S
C197 C192 1.370 . S
C197 C196 1.391 . S
C198 N167 1.435 . S
C198 C199 1.358 . S
C198 C203 1.371 . S
C199 H171 0.930 . S
C199 C198 1.358 . S
C199 C200 1.405 . S
C200 H172 0.932 . S
C200 C199 1.405 . S
C200 C201 1.383 . S
C201 C200 1.383 . S
C201 C202 1.393 . S
C202 H174 0.931 . S
C202 C201 1.393 . S
C202 C203 1.382 . S
C203 H173 0.929 . S
C203 C198 1.371 . S
C203 C202 1.382 . S
C204 N167 1.423 . S
C204 C205 1.362 . S
C204 C209 1.388 . S
C205 H175 0.929 . S
C205 C204 1.362 . S
C205 C206 1.376 . S
C206 H177 0.931 . S
C206 C205 1.376 . S
C206 C207 1.396 . S
C207 C206 1.396 . S
C207 C208 1.348 . S
C207 C225 1.472 . S
C208 H178 0.929 . S
C208 C207 1.348 . S
C208 C209 1.443 . S
C209 H176 0.932 . S
C209 C204 1.388 . S
C209 C208 1.443 . S
C210 N190 1.433 . S
C210 C211 1.363 . S
C210 C215 1.370 . S
C211 H179 0.929 . S
C211 C210 1.363 . S
C211 C212 1.385 . S
C212 H180 0.930 . S
C212 C211 1.385 . S
C212 C213 1.357 . S
C213 C212 1.357 . S
C213 C214 1.406 . S
C214 H181 0.929 . S
C214 C213 1.406 . S
C214 C215 1.391 . S
C215 H182 0.931 . S
C215 C210 1.370 . S
C215 C214 1.391 . S
C216 N190 1.435 . S
C216 C217 1.358 . S
C216 C221 1.371 . S
C217 H183 0.930 . S
C217 C216 1.358 . S
C217 C218 1.405 . S
C218 H184 0.932 . S
C218 C217 1.405 . S
C218 C219 1.383 . S
C219 C218 1.383 . S
C219 C220 1.393 . S
C220 H185 0.931 . S
C220 C219 1.393 . S
C220 C221 1.382 . S
C221 H186 0.929 . S
C221 C216 1.371 . S
C221 C220 1.382 . S
C222 N190 1.423 . S
C222 C223 1.362 . S
C222 C227 1.388 . S
C223 H187 0.929 . S
C223 C222 1.362 . S
C223 C224 1.376 . S
C224 H188 0.931 . S
C224 C223 1.376 . S
C224 C225 1.396 . S
C225 C207 1.472 . S
C225 C224 1.396 . S
C225 C226 1.348 . S
C226 H189 0.929 . S
C226 C225 1.348 . S
C226 C227 1.443 . S
C227 H191 0.932 . S
C227 C222 1.388 . S
C227 C226 1.443 . S
H228 C234 0.930 . S
H229 C237 0.930 . S
H230 C238 0.930 . S
H231 C239 0.930 . S
H232 C242 0.930 . S
H233 C243 0.930 . S
C234 H228 0.930 . S
C234 C235 1.355 . S
C234 C236 1.415 . S
C235 C234 1.355 . S
C235 C237 1.419 1_455 S
C236 C234 1.415 . S
C236 C241 1.425 1_455 S
C236 C243 1.409 . S
C237 H229 0.930 . S
C237 C235 1.419 1_655 S
C237 C238 1.362 . S
C238 H230 0.930 . S
C238 C237 1.362 . S
C238 C241 1.409 . S
C239 H231 0.930 . S
C239 C240 1.355 1_655 S
C239 C241 1.415 . S
C240 C239 1.355 1_455 S
C240 C242 1.419 . S
C241 C236 1.425 1_655 S
C241 C238 1.409 . S
C241 C239 1.415 . S
C242 H232 0.930 . S
C242 C240 1.419 . S
C242 C243 1.362 . S
C243 H233 0.930 . S
C243 C236 1.409 . S
C243 C242 1.362 . S
H244 C250 0.930 . S
H245 C253 0.930 . S
H246 C254 0.930 . S
H247 C255 0.930 . S
H248 C258 0.930 . S
H249 C259 0.930 . S
C250 H244 0.930 . S
C250 C251 1.355 . S
C250 C252 1.415 . S
C251 C250 1.355 . S
C251 C253 1.419 1_545 S
C252 C250 1.415 . S
C252 C257 1.425 1_545 S
C252 C259 1.409 . S
C253 H245 0.930 . S
C253 C251 1.419 1_565 S
C253 C254 1.362 . S
C254 H246 0.930 . S
C254 C253 1.362 . S
C254 C257 1.409 . S
C255 H247 0.930 . S
C255 C256 1.355 1_565 S
C255 C257 1.415 . S
C256 C255 1.355 1_545 S
C256 C258 1.419 . S
C257 C252 1.425 1_565 S
C257 C254 1.409 . S
C257 C255 1.415 . S
C258 H248 0.930 . S
C258 C256 1.419 . S
C258 C259 1.362 . S
C259 H249 0.930 . S
C259 C252 1.409 . S
C259 C258 1.362 . S
H260 C266 0.930 . S
H261 C269 0.930 . S
H262 C270 0.930 . S
H263 C271 0.930 . S
H264 C274 0.930 . S
H265 C275 0.930 . S
C266 H260 0.930 . S
C266 C267 1.355 . S
C266 C268 1.415 . S
C267 C266 1.355 . S
C267 C269 1.419 . S
C268 C266 1.415 . S
C268 C273 1.425 . S
C268 C275 1.409 . S
C269 H261 0.930 . S
C269 C267 1.419 . S
C269 C270 1.362 . S
C270 H262 0.930 . S
C270 C269 1.362 . S
C270 C273 1.409 . S
C271 H263 0.930 . S
C271 C272 1.355 . S
C271 C273 1.415 . S
C272 C271 1.355 . S
C272 C274 1.419 . S
C273 C268 1.425 . S
C273 C270 1.409 . S
C273 C271 1.415 . S
C274 H264 0.930 . S
C274 C272 1.419 . S
C274 C275 1.362 . S
C275 H265 0.930 . S
C275 C268 1.409 . S
C275 C274 1.362 . S
H276 C282 0.930 . S
H277 C285 0.930 . S
H278 C286 0.930 . S
H279 C287 0.939 1_655 S
H280 C290 0.930 . S
H281 C291 0.930 . S
C282 H276 0.930 . S
C282 C283 1.355 . S
C282 C284 1.415 . S
C283 C282 1.355 . S
C283 C285 1.419 . S
C284 C282 1.415 . S
C284 C289 1.425 . S
C284 C291 1.409 . S
C285 H277 0.930 . S
C285 C283 1.419 . S
C285 C286 1.362 . S
C286 H278 0.930 . S
C286 C285 1.362 . S
C286 C289 1.409 . S
C287 H279 0.939 1_455 S
C287 C288 1.355 . S
C287 C289 1.415 . S
C288 C287 1.355 . S
C288 C290 1.419 . S
C289 C284 1.425 . S
C289 C286 1.409 . S
C289 C287 1.415 . S
C290 H280 0.930 . S
C290 C288 1.419 . S
C290 C291 1.362 . S
C291 H281 0.930 . S
C291 C284 1.409 . S
C291 C290 1.362 . S
H292 C298 0.930 . S
H293 C301 0.930 . S
H294 C302 0.930 . S
H295 C303 0.930 . S
H296 C306 0.930 . S
H297 C307 0.930 . S
C298 H292 0.930 . S
C298 C299 1.355 1_565 S
C298 C300 1.415 1_565 S
C299 C298 1.355 1_545 S
C299 C301 1.419 . S
C300 C298 1.415 1_545 S
C300 C305 1.425 . S
C300 C307 1.409 1_545 S
C301 H293 0.930 . S
C301 C299 1.419 . S
C301 C302 1.362 . S
C302 H294 0.930 . S
C302 C301 1.362 . S
C302 C305 1.409 . S
C303 H295 0.930 . S
C303 C304 1.355 . S
C303 C305 1.415 . S
C304 C303 1.355 . S
C304 C306 1.419 1_545 S
C305 C300 1.425 . S
C305 C302 1.409 . S
C305 C303 1.415 . S
C306 H296 0.930 . S
C306 C304 1.419 1_565 S
C306 C307 1.362 . S
C307 H297 0.930 . S
C307 C300 1.409 1_565 S
C307 C306 1.362 . S
H308 C314 0.930 . S
H309 C317 0.930 . S
H310 C318 0.930 . S
H311 C319 0.930 . S
H312 C322 0.930 . S
H313 C323 0.930 . S
C314 H308 0.930 . S
C314 C315 1.355 . S
C314 C316 1.415 . S
C315 C314 1.355 . S
C315 C317 1.419 . S
C316 C314 1.415 . S
C316 C321 1.425 . S
C316 C323 1.409 . S
C317 H309 0.930 . S
C317 C315 1.419 . S
C317 C318 1.362 . S
C318 H310 0.930 . S
C318 C317 1.362 . S
C318 C321 1.409 . S
C319 H311 0.930 . S
C319 C320 1.355 . S
C319 C321 1.415 . S
C320 C319 1.355 . S
C320 C322 1.419 . S
C321 C316 1.425 . S
C321 C318 1.409 . S
C321 C319 1.415 . S
C322 H312 0.930 . S
C322 C320 1.419 . S
C322 C323 1.362 . S
C323 H313 0.930 . S
C323 C316 1.409 . S
C323 C322 1.362 . S
H324 C330 0.930 . S
H325 C333 0.930 . S
H326 C334 0.930 . S
H327 C335 0.930 . S
H328 C338 0.930 . S
H329 C339 0.930 . S
C330 H324 0.930 . S
C330 C331 1.355 . S
C330 C332 1.415 . S
C331 C330 1.355 . S
C331 C333 1.419 1_545 S
C332 C330 1.415 . S
C332 C337 1.425 1_545 S
C332 C339 1.409 . S
C333 H325 0.930 . S
C333 C331 1.419 1_565 S
C333 C334 1.362 . S
C334 H326 0.930 . S
C334 C333 1.362 . S
C334 C337 1.409 . S
C335 H327 0.930 . S
C335 C336 1.355 1_565 S
C335 C337 1.415 . S
C336 C335 1.355 1_545 S
C336 C338 1.419 . S
C337 C332 1.425 1_565 S
C337 C334 1.409 . S
C337 C335 1.415 . S
C338 H328 0.930 . S
C338 C336 1.419 . S
C338 C339 1.362 . S
C339 H329 0.930 . S
C339 C332 1.409 . S
C339 C338 1.362 . S
H340 C346 0.930 . S
H341 C349 0.930 . S
H342 C350 0.930 . S
H343 C351 0.930 . S
H344 C354 0.930 . S
H345 C355 0.930 . S
C346 H340 0.930 . S
C346 C347 1.355 . S
C346 C348 1.415 . S
C347 C346 1.355 . S
C347 C349 1.419 . S
C348 C346 1.415 . S
C348 C353 1.425 . S
C348 C355 1.409 . S
C349 H341 0.930 . S
C349 C347 1.419 . S
C349 C350 1.362 . S
C350 H342 0.930 . S
C350 C349 1.362 . S
C350 C353 1.409 . S
C351 H343 0.930 . S
C351 C352 1.355 . S
C351 C353 1.415 . S
C352 C351 1.355 . S
C352 C354 1.419 . S
C353 C348 1.425 . S
C353 C350 1.409 . S
C353 C351 1.415 . S
C354 H344 0.930 . S
C354 C352 1.419 . S
C354 C355 1.362 . S
C355 H345 0.930 . S
C355 C348 1.409 . S
C355 C354 1.362 . S
H356 C362 0.930 . S
H357 C365 0.930 . S
H358 C366 0.930 . S
H359 C367 0.930 . S
H360 C370 0.930 . S
H361 C371 0.930 . S
C362 H356 0.930 . S
C362 C363 1.355 1_655 S
C362 C364 1.415 . S
C363 C362 1.355 1_455 S
C363 C365 1.419 . S
C364 C362 1.415 . S
C364 C369 1.425 1_655 S
C364 C371 1.409 . S
C365 H357 0.930 . S
C365 C363 1.419 . S
C365 C366 1.362 . S
C366 H358 0.930 . S
C366 C365 1.362 . S
C366 C369 1.409 . S
C367 H359 0.930 . S
C367 C368 1.355 . S
C367 C369 1.415 . S
C368 C367 1.355 . S
C368 C370 1.419 1_455 S
C369 C364 1.425 1_455 S
C369 C366 1.409 . S
C369 C367 1.415 . S
C370 H360 0.930 . S
C370 C368 1.419 1_655 S
C370 C371 1.362 . S
C371 H361 0.930 . S
C371 C364 1.409 . S
C371 C370 1.362 . S
H372 C378 0.930 . S
H373 C381 0.930 . S
H374 C382 0.930 . S
H375 C383 0.930 . S
H376 C386 0.930 . S
H377 C387 0.930 . S
C378 H372 0.930 . S
C378 C379 1.355 . S
C378 C380 1.415 . S
C379 C378 1.355 . S
C379 C381 1.419 1_545 S
C380 C378 1.415 . S
C380 C385 1.425 1_545 S
C380 C387 1.409 . S
C381 H373 0.930 . S
C381 C379 1.419 1_565 S
C381 C382 1.362 . S
C382 H374 0.930 . S
C382 C381 1.362 . S
C382 C385 1.409 . S
C383 H375 0.930 . S
C383 C384 1.355 1_565 S
C383 C385 1.415 . S
C384 C383 1.355 1_545 S
C384 C386 1.419 . S
C385 C380 1.425 1_565 S
C385 C382 1.409 . S
C385 C383 1.415 . S
C386 H376 0.930 . S
C386 C384 1.419 . S
C386 C387 1.362 . S
C387 H377 0.930 . S
C387 C380 1.409 . S
C387 C386 1.362 . S
H388 C394 0.930 . S
H389 C397 0.930 . S
H390 C398 0.930 . S
H391 C399 0.930 . S
H392 C402 0.930 . S
H393 C403 0.930 . S
C394 H388 0.930 . S
C394 C395 1.355 . S
C394 C396 1.415 . S
C395 C394 1.355 . S
C395 C397 1.419 . S
C396 C394 1.415 . S
C396 C401 1.425 . S
C396 C403 1.409 . S
C397 H389 0.930 . S
C397 C395 1.419 . S
C397 C398 1.362 . S
C398 H390 0.930 . S
C398 C397 1.362 . S
C398 C401 1.409 . S
C399 H391 0.930 . S
C399 C400 1.355 . S
C399 C401 1.415 . S
C400 C399 1.355 . S
C400 C402 1.419 . S
C401 C396 1.425 . S
C401 C398 1.409 . S
C401 C399 1.415 . S
C402 H392 0.930 . S
C402 C400 1.419 . S
C402 C403 1.362 . S
C403 H393 0.930 . S
C403 C396 1.409 . S
C403 C402 1.362 . S
H404 C410 0.930 . S
H405 C413 0.930 . S
H406 C414 0.930 1_655 S
H407 C415 0.930 1_655 S
H408 C418 0.930 . S
H409 C419 0.930 . S
C410 H404 0.930 . S
C410 C411 1.355 . S
C410 C412 1.415 . S
C411 C410 1.355 . S
C411 C413 1.419 . S
C412 C410 1.415 . S
C412 C417 1.425 . S
C412 C419 1.409 . S
C413 H405 0.930 . S
C413 C411 1.419 . S
C413 C414 1.362 . S
C414 H406 0.930 1_455 S
C414 C413 1.362 . S
C414 C417 1.409 . S
C415 H407 0.930 1_455 S
C415 C416 1.355 . S
C415 C417 1.415 . S
C416 C415 1.355 . S
C416 C418 1.419 . S
C417 C412 1.425 . S
C417 C414 1.409 . S
C417 C415 1.415 . S
C418 H408 0.930 . S
C418 C416 1.419 . S
C418 C419 1.362 . S
C419 H409 0.930 . S
C419 C412 1.409 . S
C419 C418 1.362 . S
C240 C95 1.406 . S
C235 C3 1.422 . S
C251 C21 1.410 . S
C256 C139 1.441 . S
C267 C37 1.407 . S
C272 C201 1.448 . S
C283 C8 1.432 . S
C288 C77 1.408 . S
C304 C157 1.446 . S
C299 C23 1.414 . S
C315 C35 1.427 . S
C320 C219 1.442 . S
C336 C133 1.574 . S
C331 C31 1.677 . S
C347 C7 1.684 1_556 S
C352 C195 1.647 . S
C368 C71 1.603 . S
C363 C17 1.698 . S
C384 C151 1.576 . S
C379 C36 1.691 . S
C400 C213 1.640 . S
C395 C9 1.717 1_556 S
C411 C22 1.709 . S
C416 C89 1.568 . S
