# Generated by pormake.
# Topology apo, (3,6)-cn, num edge types: 1
# Building blocks:
#     Node 0, Type 0, BuildingBlock: CUQRIR_clean_linker_1, # of connection points: 3
#     Node 1, Type 0, BuildingBlock: CUQRIR_clean_linker_1, # of connection points: 3
#     Node 2, Type 0, BuildingBlock: CUQRIR_clean_linker_1, # of connection points: 3
#     Node 3, Type 0, BuildingBlock: CUQRIR_clean_linker_1, # of connection points: 3
#     Node 4, Type 0, BuildingBlock: CUQRIR_clean_linker_1, # of connection points: 3
#     Node 5, Type 0, BuildingBlock: CUQRIR_clean_linker_1, # of connection points: 3
#     Node 6, Type 0, BuildingBlock: CUQRIR_clean_linker_1, # of connection points: 3
#     Node 7, Type 0, BuildingBlock: CUQRIR_clean_linker_1, # of connection points: 3
#     Node 8, Type 1, BuildingBlock: MIDCAF_clean_sbu_0, # of connection points: 6
#     Node 9, Type 1, BuildingBlock: MIDCAF_clean_sbu_0, # of connection points: 6
#     Node 10, Type 1, BuildingBlock: MIDCAF_clean_sbu_0, # of connection points: 6
#     Node 11, Type 1, BuildingBlock: MIDCAF_clean_sbu_0, # of connection points: 6
#     Edge 12, Type (0, 1), BuildingBlock: KIFKEQ_clean_linker_1, # of connection points: 2
#     Edge 13, Type (0, 1), BuildingBlock: KIFKEQ_clean_linker_1, # of connection points: 2
#     Edge 14, Type (0, 1), BuildingBlock: KIFKEQ_clean_linker_1, # of connection points: 2
#     Edge 15, Type (0, 1), BuildingBlock: KIFKEQ_clean_linker_1, # of connection points: 2
#     Edge 16, Type (0, 1), BuildingBlock: KIFKEQ_clean_linker_1, # of connection points: 2
#     Edge 17, Type (0, 1), BuildingBlock: KIFKEQ_clean_linker_1, # of connection points: 2
#     Edge 18, Type (0, 1), BuildingBlock: KIFKEQ_clean_linker_1, # of connection points: 2
#     Edge 19, Type (0, 1), BuildingBlock: KIFKEQ_clean_linker_1, # of connection points: 2
#     Edge 20, Type (0, 1), BuildingBlock: KIFKEQ_clean_linker_1, # of connection points: 2
#     Edge 21, Type (0, 1), BuildingBlock: KIFKEQ_clean_linker_1, # of connection points: 2
#     Edge 22, Type (0, 1), BuildingBlock: KIFKEQ_clean_linker_1, # of connection points: 2
#     Edge 23, Type (0, 1), BuildingBlock: KIFKEQ_clean_linker_1, # of connection points: 2
#     Edge 24, Type (0, 1), BuildingBlock: KIFKEQ_clean_linker_1, # of connection points: 2
#     Edge 25, Type (0, 1), BuildingBlock: KIFKEQ_clean_linker_1, # of connection points: 2
#     Edge 26, Type (0, 1), BuildingBlock: KIFKEQ_clean_linker_1, # of connection points: 2
#     Edge 27, Type (0, 1), BuildingBlock: KIFKEQ_clean_linker_1, # of connection points: 2
#     Edge 28, Type (0, 1), BuildingBlock: KIFKEQ_clean_linker_1, # of connection points: 2
#     Edge 29, Type (0, 1), BuildingBlock: KIFKEQ_clean_linker_1, # of connection points: 2
#     Edge 30, Type (0, 1), BuildingBlock: KIFKEQ_clean_linker_1, # of connection points: 2
#     Edge 31, Type (0, 1), BuildingBlock: KIFKEQ_clean_linker_1, # of connection points: 2
#     Edge 32, Type (0, 1), BuildingBlock: KIFKEQ_clean_linker_1, # of connection points: 2
#     Edge 33, Type (0, 1), BuildingBlock: KIFKEQ_clean_linker_1, # of connection points: 2
#     Edge 34, Type (0, 1), BuildingBlock: KIFKEQ_clean_linker_1, # of connection points: 2
#     Edge 35, Type (0, 1), BuildingBlock: KIFKEQ_clean_linker_1, # of connection points: 2
# Relax obj value: 0.008
# Max RMSD: 0.061
# Mean RMSD: 0.060
data_MOF--net-apo--node1-MIDCAF_clean_sbu_0--node2-CUQRIR_clean_linker_1--edge1-KIFKEQ_clean_linker_1
_symmetry_space_group_name_H-M    P1
_symmetry_Int_Tables_number       1
_symmetry_cell_setting            triclinic
loop_
_symmetry_equiv_pos_as_xyz
'x, y, z'
_cell_length_a     34.711451
_cell_length_b     39.450487
_cell_length_c     31.289525
_cell_angle_alpha  90.602587
_cell_angle_beta   90.173567
_cell_angle_gamma 90.006457
loop_
_atom_site_label
_atom_site_type_symbol
_atom_site_fract_x
_atom_site_fract_y
_atom_site_fract_z
_atom_type_partial_charge
C0 C 0.3125 0.27663 0.42732 0.0
N1 N 0.34004 0.30106 0.42914 0.0
N2 N 0.2987 0.27289 0.38697 0.0
C3 C 0.29619 0.25885 0.46559 0.0
C4 C 0.31862 0.29607 0.36429 0.0
N5 N 0.34355 0.31345 0.38986 0.0
C6 C 0.31574 0.29983 0.31657 0.0
H7 H 0.31233 0.23496 0.47065 0.0
H8 H 0.2654 0.25242 0.46046 0.0
H9 H 0.29883 0.27485 0.49483 0.0
H10 H 0.29319 0.31881 0.30908 0.0
H11 H 0.30753 0.27543 0.30113 0.0
H12 H 0.34347 0.3086 0.30304 0.0
C13 C 0.19526 0.22674 0.91578 0.0
N14 N 0.16943 0.20192 0.92403 0.0
N15 N 0.20069 0.22967 0.87305 0.0
C16 C 0.21484 0.24861 0.94911 0.0
C17 C 0.17697 0.20592 0.85568 0.0
N18 N 0.15766 0.18931 0.88666 0.0
C19 C 0.17389 0.19795 0.80861 0.0
H20 H 0.19899 0.27293 0.95204 0.0
H21 H 0.24487 0.2543 0.93947 0.0
H22 H 0.2153 0.23678 0.98097 0.0
H23 H 0.18992 0.17421 0.80162 0.0
H24 H 0.18571 0.21867 0.78892 0.0
H25 H 0.14349 0.19388 0.79911 0.0
C26 C 0.82257 0.22622 0.62914 0.0
N27 N 0.84926 0.20113 0.62688 0.0
N28 N 0.80966 0.23018 0.66978 0.0
C29 C 0.80806 0.24636 0.59181 0.0
C30 C 0.82973 0.20675 0.69214 0.0
N31 N 0.85404 0.18932 0.66619 0.0
C32 C 0.82378 0.19936 0.73874 0.0
H33 H 0.81528 0.27348 0.59685 0.0
H34 H 0.7762 0.24434 0.58995 0.0
H35 H 0.82083 0.23808 0.56106 0.0
H36 H 0.80605 0.1761 0.74161 0.0
H37 H 0.80905 0.22063 0.75539 0.0
H38 H 0.85174 0.19468 0.7548 0.0
C39 C 0.69462 0.27892 0.14245 0.0
N40 N 0.66752 0.30256 0.13349 0.0
N41 N 0.70117 0.27749 0.18515 0.0
C42 C 0.7171 0.25945 0.10927 0.0
C43 C 0.67711 0.30112 0.20182 0.0
N44 N 0.65692 0.31661 0.17047 0.0
C45 C 0.67098 0.307 0.24894 0.0
H46 H 0.70249 0.23491 0.10282 0.0
H47 H 0.74678 0.2542 0.12067 0.0
H48 H 0.71864 0.27365 0.0789 0.0
H49 H 0.6908 0.32722 0.26038 0.0
H50 H 0.67709 0.28363 0.26719 0.0
H51 H 0.64096 0.3152 0.25543 0.0
C52 C 0.69468 0.72158 0.63452 0.0
N53 N 0.66645 0.69873 0.62561 0.0
N54 N 0.70418 0.72091 0.67659 0.0
C55 C 0.71438 0.74348 0.60219 0.0
C56 C 0.68081 0.6969 0.69285 0.0
N57 N 0.65776 0.68351 0.66208 0.0
C58 C 0.68066 0.6863 0.73889 0.0
H59 H 0.70331 0.73909 0.56935 0.0
H60 H 0.74586 0.73856 0.60304 0.0
H61 H 0.70996 0.77053 0.61083 0.0
H62 H 0.68985 0.70755 0.76009 0.0
H63 H 0.70113 0.66497 0.74305 0.0
H64 H 0.65156 0.67756 0.74842 0.0
C65 C 0.79748 0.78164 0.13727 0.0
N66 N 0.82543 0.8047 0.12921 0.0
N67 N 0.78981 0.78061 0.17968 0.0
C68 C 0.77917 0.7587 0.10436 0.0
C69 C 0.81402 0.80377 0.19723 0.0
N70 N 0.83586 0.81832 0.16665 0.0
C71 C 0.81396 0.81407 0.24367 0.0
H72 H 0.7536 0.77159 0.09072 0.0
H73 H 0.76948 0.73467 0.11898 0.0
H74 H 0.79956 0.75292 0.07804 0.0
H75 H 0.83706 0.80002 0.2605 0.0
H76 H 0.78604 0.80799 0.25895 0.0
H77 H 0.81971 0.8416 0.24742 0.0
C78 C 0.21311 0.79716 0.4191 0.0
N79 N 0.1863 0.8211 0.42852 0.0
N80 N 0.22011 0.79615 0.37648 0.0
C81 C 0.2304 0.77309 0.45077 0.0
C82 C 0.19662 0.82017 0.36027 0.0
N83 N 0.17598 0.83523 0.39179 0.0
C84 C 0.19549 0.83021 0.31403 0.0
H85 H 0.25625 0.78506 0.46542 0.0
H86 H 0.23939 0.7491 0.43488 0.0
H87 H 0.20961 0.76733 0.47655 0.0
H88 H 0.17164 0.81638 0.29785 0.0
H89 H 0.22285 0.82365 0.29769 0.0
H90 H 0.19006 0.85779 0.31098 0.0
C91 C 0.31458 0.71786 0.901 0.0
N92 N 0.34377 0.69567 0.90788 0.0
N93 N 0.30597 0.71949 0.85878 0.0
C94 C 0.29298 0.73639 0.93568 0.0
C95 C 0.33088 0.69752 0.84025 0.0
N96 N 0.35416 0.68329 0.86987 0.0
C97 C 0.33168 0.6892 0.79327 0.0
H98 H 0.26849 0.72043 0.9461 0.0
H99 H 0.28118 0.76071 0.92407 0.0
H100 H 0.3119 0.74141 0.96369 0.0
H101 H 0.32108 0.7109 0.77426 0.0
H102 H 0.3126 0.66713 0.78695 0.0
H103 H 0.36128 0.68239 0.78297 0.0
Zn104 Zn 0.06294 0.09275 0.40059 0.0
Zn105 Zn 0.96548 0.10379 0.20002 0.0
Zn106 Zn 0.99944 0.10103 0.26833 0.0
C107 C 0.03471 0.13887 0.18872 0.0
C108 C 0.97516 0.03494 0.21433 0.0
O109 O 0.96756 0.12398 0.32158 0.0
O110 O 0.01676 0.10723 0.35917 0.0
C111 C 0.07278 0.12543 0.3059 0.0
O112 O 0.04055 0.12834 0.22698 0.0
O113 O 0.00308 0.13289 0.17012 0.0
O114 O 0.9641 0.05478 0.18536 0.0
O115 O 0.98928 0.04719 0.24936 0.0
O116 O 0.05656 0.10811 0.33523 0.0
O117 O 0.05526 0.12663 0.2698 0.0
O118 O 0.01157 0.04928 0.2869 0.0
O119 O 0.03575 0.07362 0.3438 0.0
C120 C 0.02948 0.04626 0.32249 0.0
O121 O 0.9462 0.12911 0.28385 0.0
O122 O 0.91724 0.12496 0.22101 0.0
C123 C 0.98363 0.12153 0.35836 0.0
C124 C 0.91701 0.13473 0.25953 0.0
Zn125 Zn 0.55572 0.39652 0.65483 0.0
Zn126 Zn 0.47322 0.41011 0.84327 0.0
Zn127 Zn 0.50616 0.39797 0.77583 0.0
C128 C 0.49362 0.47258 0.81186 0.0
C129 C 0.41865 0.37614 0.7967 0.0
O130 O 0.55946 0.36919 0.78425 0.0
O131 O 0.5572 0.3815 0.71754 0.0
C132 C 0.53556 0.46114 0.70372 0.0
O133 O 0.50182 0.45363 0.77945 0.0
O134 O 0.48357 0.45929 0.84658 0.0
O135 O 0.41982 0.39514 0.82935 0.0
O136 O 0.44882 0.37251 0.77317 0.0
O137 O 0.54786 0.44631 0.66967 0.0
O138 O 0.52292 0.44518 0.73729 0.0
O139 O 0.46739 0.36834 0.73452 0.0
O140 O 0.51631 0.38024 0.69625 0.0
C141 C 0.48262 0.36832 0.6976 0.0
O142 O 0.54411 0.37487 0.82574 0.0
O143 O 0.50425 0.38028 0.88029 0.0
C144 C 0.57537 0.36725 0.7476 0.0
C145 C 0.53569 0.36952 0.86521 0.0
Zn146 Zn 0.03835 0.89768 0.8424 0.0
Zn147 Zn 0.96767 0.89948 0.71869 0.0
Zn148 Zn 0.00261 0.89876 0.78072 0.0
C149 C 0.95623 0.96231 0.74782 0.0
C150 C 0.93366 0.84947 0.76089 0.0
O151 O 0.05592 0.86791 0.76831 0.0
O152 O 0.06503 0.85377 0.83546 0.0
C153 C 0.04808 0.96161 0.81683 0.0
O154 O 0.98744 0.9528 0.76669 0.0
O155 O 0.93584 0.94045 0.72864 0.0
O156 O 0.9423 0.85486 0.72248 0.0
O157 O 0.94978 0.86729 0.79076 0.0
O158 O 0.06881 0.93958 0.8346 0.0
O159 O 0.01679 0.95234 0.79775 0.0
O160 O 0.96509 0.87549 0.83135 0.0
O161 O 0.99651 0.89954 0.88464 0.0
C162 C 0.96739 0.88339 0.87144 0.0
O163 O 0.0408 0.87767 0.72888 0.0
O164 O 0.00996 0.90354 0.67718 0.0
C165 C 0.073 0.84955 0.79652 0.0
C166 C 0.03908 0.88722 0.68957 0.0
Zn167 Zn 0.53151 0.5957 0.20034 0.0
Zn168 Zn 0.46149 0.59824 0.34338 0.0
Zn169 Zn 0.49607 0.59865 0.2711 0.0
C170 C 0.52828 0.63419 0.3588 0.0
C171 C 0.47156 0.53113 0.32532 0.0
O172 O 0.45978 0.6251 0.22165 0.0
O173 O 0.49962 0.62694 0.16672 0.0
C174 C 0.58273 0.62634 0.2556 0.0
O175 O 0.53416 0.62463 0.31976 0.0
O176 O 0.49668 0.62772 0.37671 0.0
O177 O 0.46187 0.54952 0.35667 0.0
O178 O 0.48381 0.54494 0.29063 0.0
O179 O 0.58249 0.61218 0.21929 0.0
O180 O 0.55252 0.6252 0.27948 0.0
O181 O 0.50475 0.54443 0.25208 0.0
O182 O 0.52683 0.54718 0.18606 0.0
C183 C 0.51592 0.52967 0.21723 0.0
O184 O 0.44184 0.62788 0.26255 0.0
O185 O 0.41242 0.6182 0.32382 0.0
C186 C 0.46755 0.63432 0.18312 0.0
C187 C 0.4124 0.63137 0.28725 0.0
H188 H 0.11083 0.83722 0.34522 0.0
H189 H 0.18418 0.89705 0.42745 0.0
H190 H 0.07004 0.8867 0.33241 0.0
H191 H 0.14482 0.9472 0.41366 0.0
H192 H 0.05518 0.02889 0.402 0.0
H193 H 0.08611 0.97606 0.42297 0.0
H194 H 0.07231 0.93727 0.29402 0.0
H195 H 0.04029 0.98945 0.27381 0.0
C196 C 0.118 0.86116 0.36051 0.0
C197 C 0.15047 0.8637 0.38705 0.0
C198 C 0.09493 0.88955 0.35307 0.0
C199 C 0.10424 0.92123 0.37159 0.0
C200 C 0.13631 0.92328 0.39925 0.0
C201 C 0.15904 0.89472 0.40706 0.0
C202 C 0.05845 0.00888 0.37833 0.0
C203 C 0.04533 0.01333 0.33627 0.0
C204 C 0.0764 0.97864 0.39025 0.0
C205 C 0.08206 0.95229 0.3602 0.0
C206 C 0.06798 0.9566 0.31835 0.0
C207 C 0.04967 0.98665 0.30662 0.0
H208 H 0.3333 0.61992 0.84962 0.0
H209 H 0.43201 0.68442 0.86843 0.0
H210 H 0.37551 0.57347 0.82637 0.0
H211 H 0.47483 0.63753 0.8469 0.0
H212 H 0.51881 0.52069 0.86758 0.0
H213 H 0.48932 0.57638 0.87831 0.0
H214 H 0.42345 0.56231 0.76231 0.0
H215 H 0.45375 0.50678 0.75111 0.0
C216 C 0.36419 0.62375 0.84954 0.0
C217 C 0.37965 0.65516 0.86201 0.0
C218 C 0.38827 0.59751 0.83569 0.0
C219 C 0.42841 0.60207 0.83438 0.0
C220 C 0.44399 0.63339 0.8476 0.0
C221 C 0.41969 0.65992 0.86066 0.0
C222 C 0.49949 0.53029 0.84328 0.0
C223 C 0.48849 0.50954 0.80854 0.0
C224 C 0.48244 0.56205 0.84956 0.0
C225 C 0.45355 0.57326 0.82163 0.0
C226 C 0.44536 0.55399 0.78458 0.0
C227 C 0.46304 0.52246 0.77785 0.0
H228 H 0.58008 0.67791 0.65764 0.0
H229 H 0.68451 0.62169 0.67933 0.0
H230 H 0.54178 0.6268 0.67243 0.0
H231 H 0.64665 0.57119 0.69609 0.0
H232 H 0.57054 0.49886 0.76571 0.0
H233 H 0.59557 0.55651 0.75751 0.0
H234 H 0.53833 0.56386 0.63535 0.0
H235 H 0.51383 0.50605 0.64328 0.0
C236 C 0.59471 0.65443 0.66472 0.0
C237 C 0.63508 0.65325 0.66649 0.0
C238 C 0.57293 0.62547 0.67384 0.0
C239 C 0.59135 0.59535 0.68605 0.0
C240 C 0.63176 0.59429 0.6875 0.0
C241 C 0.65338 0.6229 0.67753 0.0
C242 C 0.56208 0.51333 0.73798 0.0
C243 C 0.54026 0.49821 0.70516 0.0
C244 C 0.57666 0.54611 0.73309 0.0
C245 C 0.56916 0.56432 0.69557 0.0
C246 C 0.54439 0.55035 0.66458 0.0
C247 C 0.53038 0.51738 0.66914 0.0
H248 H 0.83291 0.8781 0.12639 0.0
H249 H 0.89664 0.82231 0.22075 0.0
H250 H 0.87484 0.92705 0.13789 0.0
H251 H 0.93865 0.87165 0.23318 0.0
H252 H 0.96114 0.98713 0.27564 0.0
H253 H 0.93249 0.93102 0.26347 0.0
H254 H 0.94224 0.94463 0.12717 0.0
H255 H 0.97029 1.00042 0.13924 0.0
C256 C 0.85632 0.8763 0.1492 0.0
C257 C 0.86176 0.84658 0.17257 0.0
C258 C 0.88037 0.90422 0.15585 0.0
C259 C 0.91027 0.90315 0.18631 0.0
C260 C 0.91578 0.87329 0.20968 0.0
C261 C 0.89184 0.84517 0.20265 0.0
C262 C 0.95823 0.97763 0.24318 0.0
C263 C 0.96746 0.99831 0.20839 0.0
C264 C 0.94173 0.94556 0.23618 0.0
C265 C 0.93429 0.93379 0.19431 0.0
C266 C 0.9467 0.95335 0.15976 0.0
C267 C 0.96301 0.98523 0.16671 0.0
H268 H 0.83747 0.12718 0.63646 0.0
H269 H 0.91456 0.18208 0.71999 0.0
H270 H 0.86545 0.07358 0.6598 0.0
H271 H 0.94241 0.12827 0.74464 0.0
H272 H 0.00192 0.01904 0.74091 0.0
H273 H 0.9803 0.07624 0.72151 0.0
H274 H 0.86202 0.04264 0.72733 0.0
H275 H 0.8835 0.98614 0.74633 0.0
C276 C 0.86078 0.12758 0.65954 0.0
C277 C 0.87376 0.15841 0.67679 0.0
C278 C 0.87655 0.09702 0.6733 0.0
C279 C 0.90566 0.09664 0.70475 0.0
C280 C 0.91997 0.12772 0.72051 0.0
C281 C 0.90403 0.15839 0.70666 0.0
C282 C 0.97134 0.02431 0.73925 0.0
C283 C 0.94437 0.99821 0.74508 0.0
C284 C 0.95896 0.05692 0.72782 0.0
C285 C 0.91946 0.06371 0.72186 0.0
C286 C 0.89266 0.03802 0.73046 0.0
C287 C 0.90495 0.00571 0.74175 0.0
H288 H 0.58299 0.3219 0.14281 0.0
H289 H 0.67293 0.37482 0.21129 0.0
H290 H 0.53849 0.36932 0.15749 0.0
H291 H 0.62879 0.42132 0.22718 0.0
H292 H 0.53923 0.48741 0.28064 0.0
H293 H 0.56713 0.431 0.27062 0.0
H294 H 0.53634 0.43297 0.1369 0.0
H295 H 0.50822 0.48923 0.14698 0.0
C296 C 0.59311 0.34373 0.16085 0.0
C297 C 0.63112 0.34484 0.17626 0.0
C298 C 0.56773 0.37058 0.16957 0.0
C299 C 0.57998 0.39855 0.1944 0.0
C300 C 0.61821 0.39965 0.2091 0.0
C301 C 0.64352 0.37324 0.19983 0.0
C302 C 0.53691 0.47518 0.24958 0.0
C303 C 0.52174 0.49268 0.21455 0.0
C304 C 0.55325 0.44308 0.24372 0.0
C305 C 0.55443 0.42795 0.20281 0.0
C306 C 0.53578 0.44401 0.16874 0.0
C307 C 0.51978 0.47622 0.17452 0.0
H308 H 0.32019 0.36892 0.34797 0.0
H309 H 0.42024 0.32206 0.40385 0.0
H310 H 0.35933 0.41701 0.32578 0.0
H311 H 0.45953 0.37121 0.3833 0.0
H312 H 0.4833 0.49168 0.39455 0.0
H313 H 0.45785 0.43482 0.40629 0.0
H314 H 0.41671 0.43109 0.27601 0.0
H315 H 0.44272 0.48806 0.26413 0.0
C316 C 0.35074 0.36881 0.35499 0.0
C317 C 0.36727 0.34174 0.37733 0.0
C318 C 0.37316 0.39626 0.34226 0.0
C319 C 0.41259 0.39767 0.35231 0.0
C320 C 0.42923 0.37069 0.37494 0.0
C321 C 0.40681 0.34277 0.38696 0.0
C322 C 0.46989 0.47825 0.36804 0.0
C323 C 0.4649 0.49423 0.32845 0.0
C324 C 0.45541 0.44568 0.37474 0.0
C325 C 0.43496 0.42869 0.34222 0.0
C326 C 0.43215 0.44377 0.30173 0.0
C327 C 0.44728 0.4762 0.2948 0.0
H328 H 0.09016 0.18113 0.84414 0.0
H329 H 0.17656 0.12829 0.91651 0.0
H330 H 0.06011 0.12683 0.82401 0.0
H331 H 0.146 0.0742 0.89848 0.0
H332 H 0.12074 0.9852 0.81444 0.0
H333 H 0.14335 0.04177 0.8327 0.0
H334 H 0.02568 0.07537 0.84822 0.0
H335 H 0.00294 0.01816 0.82896 0.0
C336 C 0.10228 0.15778 0.8561 0.0
C337 C 0.13601 0.15848 0.88096 0.0
C338 C 0.08502 0.12681 0.84494 0.0
C339 C 0.10122 0.09613 0.85877 0.0
C340 C 0.13343 0.09729 0.88624 0.0
C341 C 0.15068 0.12815 0.89708 0.0
C342 C 0.09965 0.00479 0.82111 0.0
C343 C 0.06013 0.99737 0.82034 0.0
C344 C 0.1126 0.03713 0.83204 0.0
C345 C 0.08638 0.06287 0.84308 0.0
C346 C 0.04661 0.05603 0.84004 0.0
C347 C 0.03356 0.02343 0.82877 0.0
H348 H 0.09582 0.20702 0.94814 0.0
H349 H 0.208 0.17595 0.99148 0.0
H350 H 0.06904 0.19514 1.0185 0.0
H351 H 0.18206 0.16542 0.06305 0.0
H352 H 0.1041 0.11243 0.16617 0.0
H353 H 0.14084 0.1287 0.10298 0.0
H354 H 0.06864 0.21724 0.0892 0.0
H355 H 0.03112 0.19982 0.15088 0.0
C356 C 0.11465 0.19778 0.97309 0.0
C357 C 0.15389 0.19302 0.96503 0.0
C358 C 0.09961 0.19141 1.01356 0.0
C359 C 0.12357 0.18016 0.04701 0.0
C360 C 0.16278 0.17426 0.03828 0.0
C361 C 0.17772 0.18044 0.99755 0.0
C362 C 0.09727 0.13608 0.15054 0.0
C363 C 0.06499 0.155 0.16328 0.0
C364 C 0.11807 0.14531 0.1141 0.0
C365 C 0.10698 0.17378 0.09014 0.0
C366 C 0.07719 0.19454 0.10594 0.0
C367 C 0.05614 0.18501 0.14178 0.0
H368 H 0.37846 0.26081 0.48361 0.0
H369 H 0.34926 0.36518 0.4601 0.0
H370 H 0.41121 0.27762 0.55002 0.0
H371 H 0.38406 0.38233 0.52539 0.0
H372 H 0.49441 0.3913 0.61683 0.0
H373 H 0.45911 0.37607 0.55166 0.0
H374 H 0.38687 0.30878 0.62392 0.0
H375 H 0.42161 0.32471 0.68968 0.0
C376 C 0.37917 0.28736 0.4927 0.0
C377 C 0.3613 0.31168 0.4668 0.0
C378 C 0.39789 0.29695 0.53057 0.0
C379 C 0.39996 0.33122 0.54286 0.0
C380 C 0.3829 0.35573 0.51653 0.0
C381 C 0.3633 0.34599 0.4791 0.0
C382 C 0.47108 0.37319 0.61888 0.0
C383 C 0.46102 0.35892 0.65831 0.0
C384 C 0.45071 0.36472 0.58161 0.0
C385 C 0.42038 0.34124 0.58281 0.0
C386 C 0.41028 0.32687 0.62218 0.0
C387 C 0.43008 0.33599 0.65972 0.0
H388 H 0.66659 0.36342 0.09423 0.0
H389 H 0.63445 0.25859 0.07878 0.0
H390 H 0.64034 0.37567 1.02294 0.0
H391 H 0.60902 0.27025 1.00744 0.0
H392 H 0.51682 0.31977 0.91923 0.0
H393 H 0.55284 0.30158 0.98166 0.0
H394 H 0.64888 0.36392 0.94365 0.0
H395 H 0.61228 0.38209 0.88036 0.0
C396 C 0.65393 0.34308 0.0754 0.0
C397 C 0.65213 0.31016 0.09181 0.0
C398 C 0.63944 0.34989 0.03447 0.0
C399 C 0.62273 0.32388 1.00941 0.0
C400 C 0.6215 0.29088 0.02592 0.0
C401 C 0.63605 0.28414 0.06663 0.0
C402 C 0.54614 0.32868 0.92343 0.0
C403 C 0.56193 0.35208 0.8949 0.0
C404 C 0.56678 0.31834 0.95929 0.0
C405 C 0.60362 0.33153 0.96791 0.0
C406 C 0.62038 0.35359 0.93807 0.0
C407 C 0.59976 0.36359 0.90157 0.0
H408 H 0.92555 0.20095 0.61259 0.0
H409 H 0.81663 0.17226 0.55716 0.0
H410 H 0.95879 0.18203 0.54755 0.0
H411 H 0.84936 0.15259 0.49218 0.0
H412 H 0.91499 0.15535 0.36583 0.0
H413 H 0.88287 0.17412 0.43111 0.0
H414 H 0.97612 0.133 0.50624 0.0
H415 H 0.00856 0.115 0.44097 0.0
C416 C 0.9089 0.19035 0.58636 0.0
C417 C 0.86868 0.18853 0.58925 0.0
C418 C 0.92779 0.17936 0.5492 0.0
C419 C 0.90678 0.16602 0.51426 0.0
C420 C 0.86645 0.16341 0.51792 0.0
C421 C 0.84766 0.17447 0.55506 0.0
C422 C 0.92872 0.15042 0.39626 0.0
C423 C 0.96445 0.13372 0.39805 0.0
C424 C 0.91014 0.16097 0.4338 0.0
C425 C 0.92676 0.15503 0.47416 0.0
C426 C 0.96263 0.13846 0.47583 0.0
C427 C 0.98122 0.12799 0.4383 0.0
H428 H 0.90103 0.80624 0.1106 0.0
H429 H 0.78831 0.8208 0.05568 0.0
H430 H 0.93063 0.82444 0.04371 0.0
H431 H 0.818 0.83778 0.9878 0.0
H432 H 0.91269 0.83197 0.86673 0.0
H433 H 0.87399 0.81019 0.92659 0.0
H434 H 0.92066 0.88823 1.00921 0.0
H435 H 0.95793 0.91036 0.95037 0.0
C436 C 0.88267 0.81298 0.08398 0.0
C437 C 0.84248 0.81235 0.08832 0.0
C438 C 0.89951 0.82314 0.04572 0.0
C439 C 0.87652 0.83237 1.01066 0.0
C440 C 0.83628 0.8304 1.01423 0.0
C441 C 0.81938 0.82069 0.05292 0.0
C442 C 0.9138 0.84492 0.89737 0.0
C443 C 0.93872 0.87267 0.9038 0.0
C444 C 0.89189 0.83238 0.93159 0.0
C445 C 0.89501 0.84728 0.97256 0.0
C446 C 0.91823 0.876 0.97814 0.0
C447 C 0.93954 0.88863 0.94426 0.0
H448 H 0.70223 0.66826 0.55906 0.0
H449 H 0.59476 0.71246 0.5987 0.0
H450 H 0.67546 0.65715 0.48756 0.0
H451 H 0.56666 0.69962 0.52891 0.0
H452 H 0.52665 0.6962 0.39628 0.0
H453 H 0.56483 0.71468 0.45772 0.0
H454 H 0.63273 0.62302 0.44786 0.0
H455 H 0.59572 0.60594 0.38464 0.0
C456 C 0.67264 0.67512 0.55237 0.0
C457 C 0.65021 0.69069 0.58425 0.0
C458 C 0.65716 0.66871 0.51157 0.0
C459 C 0.61878 0.67759 0.5019 0.0
C460 C 0.59651 0.69302 0.53438 0.0
C461 C 0.6122 0.69976 0.57482 0.0
C462 C 0.55087 0.68082 0.40626 0.0
C463 C 0.55859 0.6499 0.38552 0.0
C464 C 0.5723 0.69098 0.44209 0.0
C465 C 0.60126 0.6699 0.45896 0.0
C466 C 0.61083 0.64008 0.43605 0.0
C467 C 0.5898 0.6303 0.39954 0.0
H468 H 0.30477 0.6663 0.97218 0.0
H469 H 0.41616 0.70451 0.93698 0.0
H470 H 0.32815 0.65592 0.04482 0.0
H471 H 0.44081 0.69212 1.00813 0.0
H472 H 0.47314 0.69472 0.14375 0.0
H473 H 0.43937 0.71102 0.07875 0.0
H474 H 0.36734 0.62201 0.08851 0.0
H475 H 0.40005 0.60709 0.155 0.0
C476 C 0.33454 0.67182 0.97995 0.0
C477 C 0.3589 0.68571 0.94893 0.0
C478 C 0.34805 0.66582 1.0215 0.0
C479 C 0.3864 0.67345 0.03294 0.0
C480 C 0.41088 0.6866 1.0012 0.0
C481 C 0.39717 0.69293 0.95992 0.0
C482 C 0.44888 0.67958 0.13294 0.0
C483 C 0.43881 0.64996 0.15466 0.0
C484 C 0.43004 0.68841 0.09508 0.0
C485 C 0.40133 0.66729 0.07725 0.0
C486 C 0.38921 0.63902 0.10099 0.0
C487 C 0.40769 0.63055 0.13942 0.0
H488 H 0.22266 0.83452 0.50379 0.0
H489 H 0.11052 0.82324 0.44581 0.0
H490 H 0.19211 0.84891 0.57266 0.0
H491 H 0.08018 0.83896 0.51364 0.0
H492 H 0.05235 0.92003 0.61583 0.0
H493 H 0.09164 0.90174 0.55584 0.0
H494 H 0.13288 0.81679 0.62852 0.0
H495 H 0.09213 0.83465 0.68921 0.0
C496 C 0.19155 0.83476 0.50598 0.0
C497 C 0.16885 0.82808 0.46953 0.0
C498 C 0.17417 0.84295 0.54521 0.0
C499 C 0.13389 0.84501 0.54824 0.0
C500 C 0.11132 0.8376 0.512 0.0
C501 C 0.12861 0.82895 0.4732 0.0
C502 C 0.07006 0.89763 0.61951 0.0
C503 C 0.06884 0.87861 0.65729 0.0
C504 C 0.09257 0.88724 0.58507 0.0
C505 C 0.11485 0.85776 0.58751 0.0
C506 C 0.11587 0.83971 0.62606 0.0
C507 C 0.0928 0.85001 0.66078 0.0
H508 H 0.2942 0.20522 0.39753 0.0
H509 H 0.23475 0.29039 0.34316 0.0
H510 H 0.24166 0.1676 0.37479 0.0
H511 H 0.1821 0.25308 0.32015 0.0
H512 H 0.10835 0.17178 0.25446 0.0
H513 H 0.16504 0.20633 0.27124 0.0
H514 H 0.17477 0.15759 0.39376 0.0
H515 H 0.11881 0.12287 0.37678 0.0
C516 C 0.26979 0.21578 0.38068 0.0
C517 C 0.26839 0.2506 0.3721 0.0
C518 C 0.23971 0.19435 0.36765 0.0
C519 C 0.20756 0.20729 0.34564 0.0
C520 C 0.20661 0.24214 0.33644 0.0
C521 C 0.23667 0.26354 0.34962 0.0
C522 C 0.12283 0.16823 0.2848 0.0
C523 C 0.10884 0.14465 0.31438 0.0
C524 C 0.15517 0.1882 0.29454 0.0
C525 C 0.17443 0.18488 0.33396 0.0
C526 C 0.16097 0.16063 0.36295 0.0
C527 C 0.1286 0.14083 0.35331 0.0
H528 H 0.25528 0.21027 0.81657 0.0
H529 H 0.20765 0.29738 0.88141 0.0
H530 H 0.30357 0.24604 0.78316 0.0
H531 H 0.25824 0.33277 0.85267 0.0
H532 H 0.34425 0.39702 0.79376 0.0
H533 H 0.28724 0.36148 0.80005 0.0
H534 H 0.36004 0.27226 0.79708 0.0
H535 H 0.416 0.30808 0.78649 0.0
C536 C 0.2552 0.23722 0.82348 0.0
C537 C 0.22793 0.25114 0.85164 0.0
C538 C 0.28328 0.25775 0.80493 0.0
C539 C 0.28556 0.29256 0.81527 0.0
C540 C 0.25746 0.3064 0.84289 0.0
C541 C 0.22874 0.28603 0.86027 0.0
C542 C 0.34756 0.36971 0.79286 0.0
C543 C 0.38424 0.35514 0.78973 0.0
C544 C 0.31502 0.34923 0.79728 0.0
C545 C 0.3187 0.31376 0.80067 0.0
C546 C 0.35546 0.29927 0.7944 0.0
C547 C 0.3878 0.31979 0.78838 0.0
H548 H 0.74423 0.20879 0.70719 0.0
H549 H 0.80355 0.29832 0.66524 0.0
H550 H 0.68937 0.24362 0.73009 0.0
H551 H 0.74834 0.33325 0.68681 0.0
H552 H 0.62114 0.37124 0.6773 0.0
H553 H 0.67947 0.33915 0.66149 0.0
H554 H 0.67161 0.29021 0.7839 0.0
H555 H 0.61305 0.32271 0.80002 0.0
C556 C 0.74553 0.236 0.70322 0.0
C557 C 0.77793 0.25093 0.68431 0.0
C558 C 0.71424 0.25593 0.71633 0.0
C559 C 0.71449 0.2912 0.71021 0.0
C560 C 0.74712 0.30612 0.69156 0.0
C561 C 0.7786 0.2862 0.67901 0.0
C562 C 0.63197 0.35386 0.70106 0.0
C563 C 0.61238 0.34944 0.73987 0.0
C564 C 0.66554 0.33559 0.69205 0.0
C565 C 0.68013 0.31208 0.72138 0.0
C566 C 0.66088 0.30796 0.76053 0.0
C567 C 0.62751 0.32668 0.76985 0.0
H568 H 0.75353 0.2986 0.24358 0.0
H569 H 0.71079 0.20999 0.17731 0.0
H570 H 0.80188 0.26414 0.27967 0.0
H571 H 0.76076 0.17573 0.21028 0.0
H572 H 0.84422 0.11391 0.27495 0.0
H573 H 0.78697 0.14956 0.2698 0.0
H574 H 0.86 0.23822 0.26244 0.0
H575 H 0.91656 0.20247 0.27051 0.0
C576 C 0.7544 0.27161 0.23707 0.0
C577 C 0.72868 0.25687 0.20758 0.0
C578 C 0.78233 0.25188 0.25736 0.0
C579 C 0.78556 0.21702 0.24798 0.0
C580 C 0.75895 0.20227 0.21917 0.0
C581 C 0.73068 0.22194 0.19951 0.0
C582 C 0.84764 0.14121 0.27455 0.0
C583 C 0.88448 0.15565 0.27344 0.0
C584 C 0.81498 0.16164 0.27071 0.0
C585 C 0.81872 0.19676 0.26421 0.0
C586 C 0.85568 0.21139 0.26749 0.0
C587 C 0.88827 0.19096 0.2723 0.0
H588 H 0.76435 0.69091 0.71498 0.0
H589 H 0.71516 0.78827 0.68641 0.0
H590 H 0.81921 0.71867 0.75009 0.0
H591 H 0.77054 0.81646 0.72027 0.0
H592 H 0.86473 0.86126 0.7998 0.0
H593 H 0.80606 0.82762 0.78792 0.0
H594 H 0.87352 0.7508 0.72318 0.0
H595 H 0.93144 0.78431 0.73515 0.0
C596 C 0.76534 0.71832 0.71657 0.0
C597 C 0.73594 0.73757 0.69781 0.0
C598 C 0.79668 0.73423 0.7365 0.0
C599 C 0.7993 0.76981 0.73808 0.0
C600 C 0.7692 0.78903 0.7202 0.0
C601 C 0.73785 0.77303 0.70021 0.0
C602 C 0.86703 0.83644 0.78486 0.0
C603 C 0.90248 0.82511 0.76871 0.0
C604 C 0.83345 0.81745 0.7774 0.0
C605 C 0.835 0.78675 0.754 0.0
C606 C 0.87118 0.77414 0.74152 0.0
C607 C 0.90447 0.79324 0.74854 0.0
H608 H 0.71317 0.78302 0.16812 0.0
H609 H 0.80269 0.73326 0.23933 0.0
H610 H 0.66457 0.74715 0.20213 0.0
H611 H 0.7543 0.69675 0.27319 0.0
H612 H 0.58215 0.69154 0.28506 0.0
H613 H 0.63491 0.7323 0.2763 0.0
H614 H 0.71077 0.65069 0.23864 0.0
H615 H 0.65802 0.61037 0.24633 0.0
C616 C 0.72219 0.76447 0.19137 0.0
C617 C 0.76135 0.76049 0.20107 0.0
C618 C 0.69453 0.74426 0.21118 0.0
C619 C 0.70566 0.71934 0.24059 0.0
C620 C 0.74493 0.71584 0.25081 0.0
C621 C 0.77252 0.73652 0.23149 0.0
C622 C 0.61056 0.68224 0.27675 0.0
C623 C 0.61613 0.64791 0.26626 0.0
C624 C 0.64058 0.70556 0.27126 0.0
C625 C 0.67676 0.69467 0.25623 0.0
C626 C 0.68329 0.65981 0.25037 0.0
C627 C 0.65314 0.6367 0.25491 0.0
H628 H 0.29696 0.79335 0.38611 0.0
H629 H 0.20201 0.75054 0.31512 0.0
H630 H 0.3417 0.75519 0.34867 0.0
H631 H 0.24647 0.71185 0.27773 0.0
H632 H 0.33618 0.61939 0.29599 0.0
H633 H 0.28688 0.66257 0.30737 0.0
H634 H 0.36846 0.74024 0.27322 0.0
H635 H 0.4177 0.69663 0.26082 0.0
C636 C 0.28592 0.77582 0.3622 0.0
C637 C 0.24633 0.77448 0.35348 0.0
C638 C 0.31138 0.75432 0.34043 0.0
C639 C 0.29758 0.73075 0.30998 0.0
C640 C 0.2579 0.72985 0.30087 0.0
C641 C 0.23254 0.75178 0.3222 0.0
C642 C 0.34296 0.64553 0.28882 0.0
C643 C 0.3806 0.65475 0.27745 0.0
C644 C 0.31481 0.67029 0.29554 0.0
C645 C 0.32406 0.70479 0.29187 0.0
C646 C 0.36073 0.71381 0.27664 0.0
C647 C 0.38872 0.68887 0.26899 0.0
H648 H 0.29573 0.7868 0.85128 0.0
H649 H 0.24459 0.69005 0.8213 0.0
H650 H 0.239 0.8157 0.82219 0.0
H651 H 0.18796 0.71853 0.79128 0.0
H652 H 0.07747 0.78428 0.81987 0.0
H653 H 0.13586 0.75046 0.82493 0.0
H654 H 0.19892 0.82817 0.75851 0.0
H655 H 0.13979 0.86215 0.75362 0.0
C656 C 0.27235 0.77188 0.83794 0.0
C657 C 0.27393 0.7364 0.83895 0.0
C658 C 0.24013 0.78828 0.8208 0.0
C659 C 0.20886 0.76942 0.80438 0.0
C660 C 0.21136 0.7338 0.80395 0.0
C661 C 0.24364 0.71748 0.821 0.0
C662 C 0.10347 0.79344 0.80476 0.0
C663 C 0.10417 0.82559 0.78605 0.0
C664 C 0.13702 0.77411 0.80772 0.0
C665 C 0.17224 0.78677 0.7926 0.0
C666 C 0.17231 0.81791 0.77091 0.0
C667 C 0.13844 0.83714 0.76752 0.0
loop_
_geom_bond_atom_site_label_1
_geom_bond_atom_site_label_2
_geom_bond_distance
_geom_bond_site_symmetry_2
_ccdc_geom_bond_type
C0 N1 1.317 . S
C0 N2 1.348 . S
C0 C3 1.485 . S
N1 C0 1.317 . S
N1 N5 1.370 . S
N2 C0 1.348 . S
N2 C4 1.346 . S
C3 C0 1.485 . S
C3 H7 0.960 . S
C3 H8 0.961 . S
C3 H9 0.960 . S
C4 N2 1.346 . S
C4 N5 1.307 . S
C4 C6 1.486 . S
N5 N1 1.370 . S
N5 C4 1.307 . S
C6 C4 1.486 . S
C6 H10 0.960 . S
C6 H11 0.960 . S
C6 H12 0.959 . S
H7 C3 0.960 . S
H8 C3 0.961 . S
H9 C3 0.960 . S
H10 C6 0.960 . S
H11 C6 0.960 . S
H12 C6 0.959 . S
C13 N14 1.317 . S
C13 N15 1.348 . S
C13 C16 1.485 . S
N14 C13 1.317 . S
N14 N18 1.370 . S
N15 C13 1.348 . S
N15 C17 1.346 . S
C16 C13 1.485 . S
C16 H20 0.960 . S
C16 H21 0.961 . S
C16 H22 0.960 . S
C17 N15 1.346 . S
C17 N18 1.307 . S
C17 C19 1.486 . S
N18 N14 1.370 . S
N18 C17 1.307 . S
C19 C17 1.486 . S
C19 H23 0.960 . S
C19 H24 0.960 . S
C19 H25 0.959 . S
H20 C16 0.960 . S
H21 C16 0.961 . S
H22 C16 0.960 . S
H23 C19 0.960 . S
H24 C19 0.960 . S
H25 C19 0.959 . S
C26 N27 1.317 . S
C26 N28 1.348 . S
C26 C29 1.485 . S
N27 C26 1.317 . S
N27 N31 1.370 . S
N28 C26 1.348 . S
N28 C30 1.346 . S
C29 C26 1.485 . S
C29 H33 0.960 . S
C29 H34 0.961 . S
C29 H35 0.960 . S
C30 N28 1.346 . S
C30 N31 1.307 . S
C30 C32 1.486 . S
N31 N27 1.370 . S
N31 C30 1.307 . S
C32 C30 1.486 . S
C32 H36 0.960 . S
C32 H37 0.960 . S
C32 H38 0.959 . S
H33 C29 0.960 . S
H34 C29 0.961 . S
H35 C29 0.960 . S
H36 C32 0.960 . S
H37 C32 0.960 . S
H38 C32 0.959 . S
C39 N40 1.317 . S
C39 N41 1.348 . S
C39 C42 1.485 . S
N40 C39 1.317 . S
N40 N44 1.370 . S
N41 C39 1.348 . S
N41 C43 1.346 . S
C42 C39 1.485 . S
C42 H46 0.960 . S
C42 H47 0.961 . S
C42 H48 0.960 . S
C43 N41 1.346 . S
C43 N44 1.307 . S
C43 C45 1.486 . S
N44 N40 1.370 . S
N44 C43 1.307 . S
C45 C43 1.486 . S
C45 H49 0.960 . S
C45 H50 0.960 . S
C45 H51 0.959 . S
H46 C42 0.960 . S
H47 C42 0.961 . S
H48 C42 0.960 . S
H49 C45 0.960 . S
H50 C45 0.960 . S
H51 C45 0.959 . S
C52 N53 1.317 . S
C52 N54 1.348 . S
C52 C55 1.485 . S
N53 C52 1.317 . S
N53 N57 1.370 . S
N54 C52 1.348 . S
N54 C56 1.346 . S
C55 C52 1.485 . S
C55 H59 0.960 . S
C55 H60 0.961 . S
C55 H61 0.960 . S
C56 N54 1.346 . S
C56 N57 1.307 . S
C56 C58 1.486 . S
N57 N53 1.370 . S
N57 C56 1.307 . S
C58 C56 1.486 . S
C58 H62 0.960 . S
C58 H63 0.960 . S
C58 H64 0.959 . S
H59 C55 0.960 . S
H60 C55 0.961 . S
H61 C55 0.960 . S
H62 C58 0.960 . S
H63 C58 0.960 . S
H64 C58 0.959 . S
C65 N66 1.317 . S
C65 N67 1.348 . S
C65 C68 1.485 . S
N66 C65 1.317 . S
N66 N70 1.370 . S
N67 C65 1.348 . S
N67 C69 1.346 . S
C68 C65 1.485 . S
C68 H72 0.960 . S
C68 H73 0.961 . S
C68 H74 0.960 . S
C69 N67 1.346 . S
C69 N70 1.307 . S
C69 C71 1.486 . S
N70 N66 1.370 . S
N70 C69 1.307 . S
C71 C69 1.486 . S
C71 H75 0.960 . S
C71 H76 0.960 . S
C71 H77 0.959 . S
H72 C68 0.960 . S
H73 C68 0.961 . S
H74 C68 0.960 . S
H75 C71 0.960 . S
H76 C71 0.960 . S
H77 C71 0.959 . S
C78 N79 1.317 . S
C78 N80 1.348 . S
C78 C81 1.485 . S
N79 C78 1.317 . S
N79 N83 1.370 . S
N80 C78 1.348 . S
N80 C82 1.346 . S
C81 C78 1.485 . S
C81 H85 0.960 . S
C81 H86 0.961 . S
C81 H87 0.960 . S
C82 N80 1.346 . S
C82 N83 1.307 . S
C82 C84 1.486 . S
N83 N79 1.370 . S
N83 C82 1.307 . S
C84 C82 1.486 . S
C84 H88 0.960 . S
C84 H89 0.960 . S
C84 H90 0.959 . S
H85 C81 0.960 . S
H86 C81 0.961 . S
H87 C81 0.960 . S
H88 C84 0.960 . S
H89 C84 0.960 . S
H90 C84 0.959 . S
C91 N92 1.317 . S
C91 N93 1.348 . S
C91 C94 1.485 . S
N92 C91 1.317 . S
N92 N96 1.370 . S
N93 C91 1.348 . S
N93 C95 1.346 . S
C94 C91 1.485 . S
C94 H98 0.960 . S
C94 H99 0.961 . S
C94 H100 0.960 . S
C95 N93 1.346 . S
C95 N96 1.307 . S
C95 C97 1.486 . S
N96 N92 1.370 . S
N96 C95 1.307 . S
C97 C95 1.486 . S
C97 H101 0.960 . S
C97 H102 0.960 . S
C97 H103 0.959 . S
H98 C94 0.960 . S
H99 C94 0.961 . S
H100 C94 0.960 . S
H101 C97 0.960 . S
H102 C97 0.960 . S
H103 C97 0.959 . S
Zn104 O110 1.920 1_455 S
Zn104 O116 1.898 . S
Zn104 O119 1.905 . S
Zn105 O113 1.905 1_655 S
Zn105 O114 1.898 . S
Zn105 O122 1.920 . S
Zn106 O109 2.080 1_455 S
Zn106 O112 2.114 . S
Zn106 O115 2.120 1_455 S
Zn106 O117 2.120 . S
Zn106 O118 2.114 . S
Zn106 O121 2.080 1_455 S
C107 O112 1.166 . S
C107 O113 1.182 . S
C108 O114 1.167 . S
C108 O115 1.299 . S
O109 Zn106 2.080 1_655 S
O109 C123 1.305 . S
O110 Zn104 1.920 1_655 S
O110 C123 1.234 . S
C111 O116 1.167 . S
C111 O117 1.299 . S
O112 Zn106 2.114 . S
O112 C107 1.166 . S
O113 Zn105 1.905 1_455 S
O113 C107 1.182 . S
O114 Zn105 1.898 . S
O114 C108 1.167 . S
O115 Zn106 2.120 1_655 S
O115 C108 1.299 . S
O116 Zn104 1.898 . S
O116 C111 1.167 . S
O117 Zn106 2.120 . S
O117 C111 1.299 . S
O118 Zn106 2.114 . S
O118 C120 1.166 . S
O119 Zn104 1.905 . S
O119 C120 1.182 . S
C120 O118 1.166 . S
C120 O119 1.182 . S
O121 Zn106 2.080 1_655 S
O121 C124 1.305 . S
O122 Zn105 1.920 . S
O122 C124 1.234 . S
C123 O109 1.305 . S
C123 O110 1.234 . S
C124 O121 1.305 . S
C124 O122 1.234 . S
Zn125 O131 1.920 . S
Zn125 O137 1.898 . S
Zn125 O140 1.905 . S
Zn126 O134 1.905 . S
Zn126 O135 1.898 . S
Zn126 O143 1.920 . S
Zn127 O130 2.080 . S
Zn127 O133 2.114 . S
Zn127 O136 2.120 . S
Zn127 O138 2.120 . S
Zn127 O139 2.114 . S
Zn127 O142 2.080 . S
C128 O133 1.166 . S
C128 O134 1.182 . S
C129 O135 1.167 . S
C129 O136 1.299 . S
O130 Zn127 2.080 . S
O130 C144 1.305 . S
O131 Zn125 1.920 . S
O131 C144 1.234 . S
C132 O137 1.167 . S
C132 O138 1.299 . S
O133 Zn127 2.114 . S
O133 C128 1.166 . S
O134 Zn126 1.905 . S
O134 C128 1.182 . S
O135 Zn126 1.898 . S
O135 C129 1.167 . S
O136 Zn127 2.120 . S
O136 C129 1.299 . S
O137 Zn125 1.898 . S
O137 C132 1.167 . S
O138 Zn127 2.120 . S
O138 C132 1.299 . S
O139 Zn127 2.114 . S
O139 C141 1.166 . S
O140 Zn125 1.905 . S
O140 C141 1.182 . S
C141 O139 1.166 . S
C141 O140 1.182 . S
O142 Zn127 2.080 . S
O142 C145 1.305 . S
O143 Zn126 1.920 . S
O143 C145 1.234 . S
C144 O130 1.305 . S
C144 O131 1.234 . S
C145 O142 1.305 . S
C145 O143 1.234 . S
Zn146 O152 1.920 . S
Zn146 O158 1.898 . S
Zn146 O161 1.905 1_455 S
Zn147 O155 1.905 . S
Zn147 O156 1.898 . S
Zn147 O164 1.920 1_655 S
Zn148 O151 2.080 . S
Zn148 O154 2.114 1_455 S
Zn148 O157 2.120 1_455 S
Zn148 O159 2.120 . S
Zn148 O160 2.114 1_455 S
Zn148 O163 2.080 . S
C149 O154 1.166 . S
C149 O155 1.182 . S
C150 O156 1.167 . S
C150 O157 1.299 . S
O151 Zn148 2.080 . S
O151 C165 1.305 . S
O152 Zn146 1.920 . S
O152 C165 1.234 . S
C153 O158 1.167 . S
C153 O159 1.299 . S
O154 Zn148 2.114 1_655 S
O154 C149 1.166 . S
O155 Zn147 1.905 . S
O155 C149 1.182 . S
O156 Zn147 1.898 . S
O156 C150 1.167 . S
O157 Zn148 2.120 1_655 S
O157 C150 1.299 . S
O158 Zn146 1.898 . S
O158 C153 1.167 . S
O159 Zn148 2.120 . S
O159 C153 1.299 . S
O160 Zn148 2.114 1_655 S
O160 C162 1.166 . S
O161 Zn146 1.905 1_655 S
O161 C162 1.182 . S
C162 O160 1.166 . S
C162 O161 1.182 . S
O163 Zn148 2.080 . S
O163 C166 1.305 . S
O164 Zn147 1.920 1_455 S
O164 C166 1.234 . S
C165 O151 1.305 . S
C165 O152 1.234 . S
C166 O163 1.305 . S
C166 O164 1.234 . S
Zn167 O173 1.920 . S
Zn167 O179 1.898 . S
Zn167 O182 1.905 . S
Zn168 O176 1.905 . S
Zn168 O177 1.898 . S
Zn168 O185 1.920 . S
Zn169 O172 2.080 . S
Zn169 O175 2.114 . S
Zn169 O178 2.120 . S
Zn169 O180 2.120 . S
Zn169 O181 2.114 . S
Zn169 O184 2.080 . S
C170 O175 1.166 . S
C170 O176 1.182 . S
C171 O177 1.167 . S
C171 O178 1.299 . S
O172 Zn169 2.080 . S
O172 C186 1.305 . S
O173 Zn167 1.920 . S
O173 C186 1.234 . S
C174 O179 1.167 . S
C174 O180 1.299 . S
O175 Zn169 2.114 . S
O175 C170 1.166 . S
O176 Zn168 1.905 . S
O176 C170 1.182 . S
O177 Zn168 1.898 . S
O177 C171 1.167 . S
O178 Zn169 2.120 . S
O178 C171 1.299 . S
O179 Zn167 1.898 . S
O179 C174 1.167 . S
O180 Zn169 2.120 . S
O180 C174 1.299 . S
O181 Zn169 2.114 . S
O181 C183 1.166 . S
O182 Zn167 1.905 . S
O182 C183 1.182 . S
C183 O181 1.166 . S
C183 O182 1.182 . S
O184 Zn169 2.080 . S
O184 C187 1.305 . S
O185 Zn168 1.920 . S
O185 C187 1.234 . S
C186 O172 1.305 . S
C186 O173 1.234 . S
C187 O184 1.305 . S
C187 O185 1.234 . S
H188 C196 0.950 . S
H189 C201 0.950 . S
H190 C198 0.950 . S
H191 C200 0.950 . S
H192 C202 0.950 . S
H193 C204 0.950 . S
H194 C206 0.950 . S
H195 C207 0.950 . S
C196 H188 0.950 . S
C196 C197 1.386 . S
C196 C198 1.391 . S
C197 C196 1.386 . S
C197 C201 1.393 . S
C198 H190 0.950 . S
C198 C196 1.391 . S
C198 C199 1.400 . S
C199 C198 1.400 . S
C199 C200 1.398 . S
C199 C205 1.491 . S
C200 H191 0.950 . S
C200 C199 1.398 . S
C200 C201 1.391 . S
C201 H189 0.950 . S
C201 C197 1.393 . S
C201 C200 1.391 . S
C202 H192 0.950 . S
C202 C203 1.386 . S
C202 C204 1.391 1_545 S
C203 C202 1.386 . S
C203 C207 1.393 . S
C204 H193 0.950 . S
C204 C202 1.391 1_565 S
C204 C205 1.400 . S
C205 C199 1.491 . S
C205 C204 1.400 . S
C205 C206 1.398 . S
C206 H194 0.950 . S
C206 C205 1.398 . S
C206 C207 1.391 1_565 S
C207 H195 0.950 . S
C207 C203 1.393 . S
C207 C206 1.391 1_545 S
H208 C216 0.950 . S
H209 C221 0.950 . S
H210 C218 0.950 . S
H211 C220 0.950 . S
H212 C222 0.950 . S
H213 C224 0.950 . S
H214 C226 0.950 . S
H215 C227 0.950 . S
C216 H208 0.950 . S
C216 C217 1.386 . S
C216 C218 1.391 . S
C217 C216 1.386 . S
C217 C221 1.393 . S
C218 H210 0.950 . S
C218 C216 1.391 . S
C218 C219 1.400 . S
C219 C218 1.400 . S
C219 C220 1.398 . S
C219 C225 1.491 . S
C220 H211 0.950 . S
C220 C219 1.398 . S
C220 C221 1.391 . S
C221 H209 0.950 . S
C221 C217 1.393 . S
C221 C220 1.391 . S
C222 H212 0.950 . S
C222 C223 1.386 . S
C222 C224 1.391 . S
C223 C222 1.386 . S
C223 C227 1.393 . S
C224 H213 0.950 . S
C224 C222 1.391 . S
C224 C225 1.400 . S
C225 C219 1.491 . S
C225 C224 1.400 . S
C225 C226 1.398 . S
C226 H214 0.950 . S
C226 C225 1.398 . S
C226 C227 1.391 . S
C227 H215 0.950 . S
C227 C223 1.393 . S
C227 C226 1.391 . S
H228 C236 0.950 . S
H229 C241 0.950 . S
H230 C238 0.950 . S
H231 C240 0.950 . S
H232 C242 0.950 . S
H233 C244 0.950 . S
H234 C246 0.950 . S
H235 C247 0.950 . S
C236 H228 0.950 . S
C236 C237 1.386 . S
C236 C238 1.391 . S
C237 C236 1.386 . S
C237 C241 1.393 . S
C238 H230 0.950 . S
C238 C236 1.391 . S
C238 C239 1.400 . S
C239 C238 1.400 . S
C239 C240 1.398 . S
C239 C245 1.491 . S
C240 H231 0.950 . S
C240 C239 1.398 . S
C240 C241 1.391 . S
C241 H229 0.950 . S
C241 C237 1.393 . S
C241 C240 1.391 . S
C242 H232 0.950 . S
C242 C243 1.386 . S
C242 C244 1.391 . S
C243 C242 1.386 . S
C243 C247 1.393 . S
C244 H233 0.950 . S
C244 C242 1.391 . S
C244 C245 1.400 . S
C245 C239 1.491 . S
C245 C244 1.400 . S
C245 C246 1.398 . S
C246 H234 0.950 . S
C246 C245 1.398 . S
C246 C247 1.391 . S
C247 H235 0.950 . S
C247 C243 1.393 . S
C247 C246 1.391 . S
H248 C256 0.950 . S
H249 C261 0.950 . S
H250 C258 0.950 . S
H251 C260 0.950 . S
H252 C262 0.950 . S
H253 C264 0.950 . S
H254 C266 0.950 . S
H255 C267 0.950 . S
C256 H248 0.950 . S
C256 C257 1.386 . S
C256 C258 1.391 . S
C257 C256 1.386 . S
C257 C261 1.393 . S
C258 H250 0.950 . S
C258 C256 1.391 . S
C258 C259 1.400 . S
C259 C258 1.400 . S
C259 C260 1.398 . S
C259 C265 1.491 . S
C260 H251 0.950 . S
C260 C259 1.398 . S
C260 C261 1.391 . S
C261 H249 0.950 . S
C261 C257 1.393 . S
C261 C260 1.391 . S
C262 H252 0.950 . S
C262 C263 1.386 . S
C262 C264 1.391 1_545 S
C263 C262 1.386 . S
C263 C267 1.393 . S
C264 H253 0.950 . S
C264 C262 1.391 1_565 S
C264 C265 1.400 . S
C265 C259 1.491 . S
C265 C264 1.400 . S
C265 C266 1.398 . S
C266 H254 0.950 . S
C266 C265 1.398 . S
C266 C267 1.391 1_565 S
C267 H255 0.950 . S
C267 C263 1.393 . S
C267 C266 1.391 1_545 S
H268 C276 0.950 . S
H269 C281 0.950 . S
H270 C278 0.950 . S
H271 C280 0.950 . S
H272 C282 0.950 . S
H273 C284 0.950 . S
H274 C286 0.949 1_565 S
H275 C287 0.950 . S
C276 H268 0.950 . S
C276 C277 1.386 . S
C276 C278 1.391 . S
C277 C276 1.386 . S
C277 C281 1.393 . S
C278 H270 0.950 . S
C278 C276 1.391 . S
C278 C279 1.400 . S
C279 C278 1.400 . S
C279 C280 1.398 . S
C279 C285 1.491 . S
C280 H271 0.950 . S
C280 C279 1.398 . S
C280 C281 1.391 . S
C281 H269 0.950 . S
C281 C277 1.393 . S
C281 C280 1.391 . S
C282 H272 0.950 . S
C282 C283 1.386 1_545 S
C282 C284 1.391 . S
C283 C282 1.386 1_565 S
C283 C287 1.393 . S
C284 H273 0.950 . S
C284 C282 1.391 . S
C284 C285 1.400 . S
C285 C279 1.491 . S
C285 C284 1.400 . S
C285 C286 1.398 . S
C286 H274 0.949 1_545 S
C286 C285 1.398 . S
C286 C287 1.391 1_545 S
C287 H275 0.950 . S
C287 C283 1.393 . S
C287 C286 1.391 1_565 S
H288 C296 0.950 . S
H289 C301 0.950 . S
H290 C298 0.950 . S
H291 C300 0.950 . S
H292 C302 0.950 . S
H293 C304 0.950 . S
H294 C306 0.950 . S
H295 C307 0.950 . S
C296 H288 0.950 . S
C296 C297 1.386 . S
C296 C298 1.391 . S
C297 C296 1.386 . S
C297 C301 1.393 . S
C298 H290 0.950 . S
C298 C296 1.391 . S
C298 C299 1.400 . S
C299 C298 1.400 . S
C299 C300 1.398 . S
C299 C305 1.491 . S
C300 H291 0.950 . S
C300 C299 1.398 . S
C300 C301 1.391 . S
C301 H289 0.950 . S
C301 C297 1.393 . S
C301 C300 1.391 . S
C302 H292 0.950 . S
C302 C303 1.386 . S
C302 C304 1.391 . S
C303 C302 1.386 . S
C303 C307 1.393 . S
C304 H293 0.950 . S
C304 C302 1.391 . S
C304 C305 1.400 . S
C305 C299 1.491 . S
C305 C304 1.400 . S
C305 C306 1.398 . S
C306 H294 0.950 . S
C306 C305 1.398 . S
C306 C307 1.391 . S
C307 H295 0.950 . S
C307 C303 1.393 . S
C307 C306 1.391 . S
H308 C316 0.950 . S
H309 C321 0.950 . S
H310 C318 0.950 . S
H311 C320 0.950 . S
H312 C322 0.950 . S
H313 C324 0.950 . S
H314 C326 0.950 . S
H315 C327 0.950 . S
C316 H308 0.950 . S
C316 C317 1.386 . S
C316 C318 1.391 . S
C317 C316 1.386 . S
C317 C321 1.393 . S
C318 H310 0.950 . S
C318 C316 1.391 . S
C318 C319 1.400 . S
C319 C318 1.400 . S
C319 C320 1.398 . S
C319 C325 1.491 . S
C320 H311 0.950 . S
C320 C319 1.398 . S
C320 C321 1.391 . S
C321 H309 0.950 . S
C321 C317 1.393 . S
C321 C320 1.391 . S
C322 H312 0.950 . S
C322 C323 1.386 . S
C322 C324 1.391 . S
C323 C322 1.386 . S
C323 C327 1.393 . S
C324 H313 0.950 . S
C324 C322 1.391 . S
C324 C325 1.400 . S
C325 C319 1.491 . S
C325 C324 1.400 . S
C325 C326 1.398 . S
C326 H314 0.950 . S
C326 C325 1.398 . S
C326 C327 1.391 . S
C327 H315 0.950 . S
C327 C323 1.393 . S
C327 C326 1.391 . S
H328 C336 0.950 . S
H329 C341 0.950 . S
H330 C338 0.950 . S
H331 C340 0.950 . S
H332 C342 0.950 . S
H333 C344 0.950 . S
H334 C346 0.950 . S
H335 C347 0.950 . S
C336 H328 0.950 . S
C336 C337 1.386 . S
C336 C338 1.391 . S
C337 C336 1.386 . S
C337 C341 1.393 . S
C338 H330 0.950 . S
C338 C336 1.391 . S
C338 C339 1.400 . S
C339 C338 1.400 . S
C339 C340 1.398 . S
C339 C345 1.491 . S
C340 H331 0.950 . S
C340 C339 1.398 . S
C340 C341 1.391 . S
C341 H329 0.950 . S
C341 C337 1.393 . S
C341 C340 1.391 . S
C342 H332 0.950 . S
C342 C343 1.386 . S
C342 C344 1.391 1_565 S
C343 C342 1.386 . S
C343 C347 1.393 1_565 S
C344 H333 0.950 . S
C344 C342 1.391 1_545 S
C344 C345 1.400 . S
C345 C339 1.491 . S
C345 C344 1.400 . S
C345 C346 1.398 . S
C346 H334 0.950 . S
C346 C345 1.398 . S
C346 C347 1.391 . S
C347 H335 0.950 . S
C347 C343 1.393 1_545 S
C347 C346 1.391 . S
H348 C356 0.950 . S
H349 C361 0.950 . S
H350 C358 0.950 . S
H351 C360 0.950 . S
H352 C362 0.950 . S
H353 C364 0.950 . S
H354 C366 0.950 . S
H355 C367 0.950 . S
C356 H348 0.950 . S
C356 C357 1.386 . S
C356 C358 1.391 . S
C357 C356 1.386 . S
C357 C361 1.393 . S
C358 H350 0.950 . S
C358 C356 1.391 . S
C358 C359 1.400 1_556 S
C359 C358 1.400 1_554 S
C359 C360 1.398 . S
C359 C365 1.491 . S
C360 H351 0.950 . S
C360 C359 1.398 . S
C360 C361 1.391 1_554 S
C361 H349 0.950 . S
C361 C357 1.393 . S
C361 C360 1.391 1_556 S
C362 H352 0.950 . S
C362 C363 1.386 . S
C362 C364 1.391 . S
C363 C362 1.386 . S
C363 C367 1.393 . S
C364 H353 0.950 . S
C364 C362 1.391 . S
C364 C365 1.400 . S
C365 C359 1.491 . S
C365 C364 1.400 . S
C365 C366 1.398 . S
C366 H354 0.950 . S
C366 C365 1.398 . S
C366 C367 1.391 . S
C367 H355 0.950 . S
C367 C363 1.393 . S
C367 C366 1.391 . S
H368 C376 0.950 . S
H369 C381 0.950 . S
H370 C378 0.950 . S
H371 C380 0.950 . S
H372 C382 0.950 . S
H373 C384 0.950 . S
H374 C386 0.950 . S
H375 C387 0.950 . S
C376 H368 0.950 . S
C376 C377 1.386 . S
C376 C378 1.391 . S
C377 C376 1.386 . S
C377 C381 1.393 . S
C378 H370 0.950 . S
C378 C376 1.391 . S
C378 C379 1.400 . S
C379 C378 1.400 . S
C379 C380 1.398 . S
C379 C385 1.491 . S
C380 H371 0.950 . S
C380 C379 1.398 . S
C380 C381 1.391 . S
C381 H369 0.950 . S
C381 C377 1.393 . S
C381 C380 1.391 . S
C382 H372 0.950 . S
C382 C383 1.386 . S
C382 C384 1.391 . S
C383 C382 1.386 . S
C383 C387 1.393 . S
C384 H373 0.950 . S
C384 C382 1.391 . S
C384 C385 1.400 . S
C385 C379 1.491 . S
C385 C384 1.400 . S
C385 C386 1.398 . S
C386 H374 0.950 . S
C386 C385 1.398 . S
C386 C387 1.391 . S
C387 H375 0.950 . S
C387 C383 1.393 . S
C387 C386 1.391 . S
H388 C396 0.950 . S
H389 C401 0.950 . S
H390 C398 0.950 . S
H391 C400 0.950 . S
H392 C402 0.950 . S
H393 C404 0.950 . S
H394 C406 0.950 . S
H395 C407 0.950 . S
C396 H388 0.950 . S
C396 C397 1.386 . S
C396 C398 1.391 1_554 S
C397 C396 1.386 . S
C397 C401 1.393 . S
C398 H390 0.950 . S
C398 C396 1.391 1_556 S
C398 C399 1.400 . S
C399 C398 1.400 . S
C399 C400 1.398 1_556 S
C399 C405 1.491 . S
C400 H391 0.950 . S
C400 C399 1.398 1_554 S
C400 C401 1.391 . S
C401 H389 0.950 . S
C401 C397 1.393 . S
C401 C400 1.391 . S
C402 H392 0.950 . S
C402 C403 1.386 . S
C402 C404 1.391 . S
C403 C402 1.386 . S
C403 C407 1.393 . S
C404 H393 0.950 . S
C404 C402 1.391 . S
C404 C405 1.400 . S
C405 C399 1.491 . S
C405 C404 1.400 . S
C405 C406 1.398 . S
C406 H394 0.950 . S
C406 C405 1.398 . S
C406 C407 1.391 . S
C407 H395 0.950 . S
C407 C403 1.393 . S
C407 C406 1.391 . S
H408 C416 0.950 . S
H409 C421 0.950 . S
H410 C418 0.950 . S
H411 C420 0.950 . S
H412 C422 0.950 . S
H413 C424 0.950 . S
H414 C426 0.950 . S
H415 C427 0.950 . S
C416 H408 0.950 . S
C416 C417 1.386 . S
C416 C418 1.391 . S
C417 C416 1.386 . S
C417 C421 1.393 . S
C418 H410 0.950 . S
C418 C416 1.391 . S
C418 C419 1.400 . S
C419 C418 1.400 . S
C419 C420 1.398 . S
C419 C425 1.491 . S
C420 H411 0.950 . S
C420 C419 1.398 . S
C420 C421 1.391 . S
C421 H409 0.950 . S
C421 C417 1.393 . S
C421 C420 1.391 . S
C422 H412 0.950 . S
C422 C423 1.386 . S
C422 C424 1.391 . S
C423 C422 1.386 . S
C423 C427 1.393 . S
C424 H413 0.950 . S
C424 C422 1.391 . S
C424 C425 1.400 . S
C425 C419 1.491 . S
C425 C424 1.400 . S
C425 C426 1.398 . S
C426 H414 0.950 . S
C426 C425 1.398 . S
C426 C427 1.391 . S
C427 H415 0.950 . S
C427 C423 1.393 . S
C427 C426 1.391 . S
H428 C436 0.950 . S
H429 C441 0.950 . S
H430 C438 0.950 . S
H431 C440 0.950 . S
H432 C442 0.950 . S
H433 C444 0.950 . S
H434 C446 0.950 . S
H435 C447 0.950 . S
C436 H428 0.950 . S
C436 C437 1.386 . S
C436 C438 1.391 . S
C437 C436 1.386 . S
C437 C441 1.393 . S
C438 H430 0.950 . S
C438 C436 1.391 . S
C438 C439 1.400 1_554 S
C439 C438 1.400 1_556 S
C439 C440 1.398 . S
C439 C445 1.491 . S
C440 H431 0.950 . S
C440 C439 1.398 . S
C440 C441 1.391 1_556 S
C441 H429 0.950 . S
C441 C437 1.393 . S
C441 C440 1.391 1_554 S
C442 H432 0.950 . S
C442 C443 1.386 . S
C442 C444 1.391 . S
C443 C442 1.386 . S
C443 C447 1.393 . S
C444 H433 0.950 . S
C444 C442 1.391 . S
C444 C445 1.400 . S
C445 C439 1.491 . S
C445 C444 1.400 . S
C445 C446 1.398 . S
C446 H434 0.950 . S
C446 C445 1.398 . S
C446 C447 1.391 . S
C447 H435 0.950 . S
C447 C443 1.393 . S
C447 C446 1.391 . S
H448 C456 0.950 . S
H449 C461 0.950 . S
H450 C458 0.950 . S
H451 C460 0.950 . S
H452 C462 0.950 . S
H453 C464 0.950 . S
H454 C466 0.950 . S
H455 C467 0.950 . S
C456 H448 0.950 . S
C456 C457 1.386 . S
C456 C458 1.391 . S
C457 C456 1.386 . S
C457 C461 1.393 . S
C458 H450 0.950 . S
C458 C456 1.391 . S
C458 C459 1.400 . S
C459 C458 1.400 . S
C459 C460 1.398 . S
C459 C465 1.491 . S
C460 H451 0.950 . S
C460 C459 1.398 . S
C460 C461 1.391 . S
C461 H449 0.950 . S
C461 C457 1.393 . S
C461 C460 1.391 . S
C462 H452 0.950 . S
C462 C463 1.386 . S
C462 C464 1.391 . S
C463 C462 1.386 . S
C463 C467 1.393 . S
C464 H453 0.950 . S
C464 C462 1.391 . S
C464 C465 1.400 . S
C465 C459 1.491 . S
C465 C464 1.400 . S
C465 C466 1.398 . S
C466 H454 0.950 . S
C466 C465 1.398 . S
C466 C467 1.391 . S
C467 H455 0.950 . S
C467 C463 1.393 . S
C467 C466 1.391 . S
H468 C476 0.950 . S
H469 C481 0.950 . S
H470 C478 0.950 . S
H471 C480 0.950 . S
H472 C482 0.950 . S
H473 C484 0.950 . S
H474 C486 0.950 . S
H475 C487 0.950 . S
C476 H468 0.950 . S
C476 C477 1.386 . S
C476 C478 1.391 1_556 S
C477 C476 1.386 . S
C477 C481 1.393 . S
C478 H470 0.950 . S
C478 C476 1.391 1_554 S
C478 C479 1.400 . S
C479 C478 1.400 . S
C479 C480 1.398 1_554 S
C479 C485 1.491 . S
C480 H471 0.950 . S
C480 C479 1.398 1_556 S
C480 C481 1.391 . S
C481 H469 0.950 . S
C481 C477 1.393 . S
C481 C480 1.391 . S
C482 H472 0.950 . S
C482 C483 1.386 . S
C482 C484 1.391 . S
C483 C482 1.386 . S
C483 C487 1.393 . S
C484 H473 0.950 . S
C484 C482 1.391 . S
C484 C485 1.400 . S
C485 C479 1.491 . S
C485 C484 1.400 . S
C485 C486 1.398 . S
C486 H474 0.950 . S
C486 C485 1.398 . S
C486 C487 1.391 . S
C487 H475 0.950 . S
C487 C483 1.393 . S
C487 C486 1.391 . S
H488 C496 0.950 . S
H489 C501 0.950 . S
H490 C498 0.950 . S
H491 C500 0.950 . S
H492 C502 0.950 . S
H493 C504 0.950 . S
H494 C506 0.950 . S
H495 C507 0.950 . S
C496 H488 0.950 . S
C496 C497 1.386 . S
C496 C498 1.391 . S
C497 C496 1.386 . S
C497 C501 1.393 . S
C498 H490 0.950 . S
C498 C496 1.391 . S
C498 C499 1.400 . S
C499 C498 1.400 . S
C499 C500 1.398 . S
C499 C505 1.491 . S
C500 H491 0.950 . S
C500 C499 1.398 . S
C500 C501 1.391 . S
C501 H489 0.950 . S
C501 C497 1.393 . S
C501 C500 1.391 . S
C502 H492 0.950 . S
C502 C503 1.386 . S
C502 C504 1.391 . S
C503 C502 1.386 . S
C503 C507 1.393 . S
C504 H493 0.950 . S
C504 C502 1.391 . S
C504 C505 1.400 . S
C505 C499 1.491 . S
C505 C504 1.400 . S
C505 C506 1.398 . S
C506 H494 0.950 . S
C506 C505 1.398 . S
C506 C507 1.391 . S
C507 H495 0.950 . S
C507 C503 1.393 . S
C507 C506 1.391 . S
H508 C516 0.950 . S
H509 C521 0.950 . S
H510 C518 0.950 . S
H511 C520 0.950 . S
H512 C522 0.950 . S
H513 C524 0.950 . S
H514 C526 0.950 . S
H515 C527 0.950 . S
C516 H508 0.950 . S
C516 C517 1.386 . S
C516 C518 1.391 . S
C517 C516 1.386 . S
C517 C521 1.393 . S
C518 H510 0.950 . S
C518 C516 1.391 . S
C518 C519 1.400 . S
C519 C518 1.400 . S
C519 C520 1.398 . S
C519 C525 1.491 . S
C520 H511 0.950 . S
C520 C519 1.398 . S
C520 C521 1.391 . S
C521 H509 0.950 . S
C521 C517 1.393 . S
C521 C520 1.391 . S
C522 H512 0.950 . S
C522 C523 1.386 . S
C522 C524 1.391 . S
C523 C522 1.386 . S
C523 C527 1.393 . S
C524 H513 0.950 . S
C524 C522 1.391 . S
C524 C525 1.400 . S
C525 C519 1.491 . S
C525 C524 1.400 . S
C525 C526 1.398 . S
C526 H514 0.950 . S
C526 C525 1.398 . S
C526 C527 1.391 . S
C527 H515 0.950 . S
C527 C523 1.393 . S
C527 C526 1.391 . S
H528 C536 0.950 . S
H529 C541 0.950 . S
H530 C538 0.950 . S
H531 C540 0.950 . S
H532 C542 0.950 . S
H533 C544 0.950 . S
H534 C546 0.950 . S
H535 C547 0.950 . S
C536 H528 0.950 . S
C536 C537 1.386 . S
C536 C538 1.391 . S
C537 C536 1.386 . S
C537 C541 1.393 . S
C538 H530 0.950 . S
C538 C536 1.391 . S
C538 C539 1.400 . S
C539 C538 1.400 . S
C539 C540 1.398 . S
C539 C545 1.491 . S
C540 H531 0.950 . S
C540 C539 1.398 . S
C540 C541 1.391 . S
C541 H529 0.950 . S
C541 C537 1.393 . S
C541 C540 1.391 . S
C542 H532 0.950 . S
C542 C543 1.386 . S
C542 C544 1.391 . S
C543 C542 1.386 . S
C543 C547 1.393 . S
C544 H533 0.950 . S
C544 C542 1.391 . S
C544 C545 1.400 . S
C545 C539 1.491 . S
C545 C544 1.400 . S
C545 C546 1.398 . S
C546 H534 0.950 . S
C546 C545 1.398 . S
C546 C547 1.391 . S
C547 H535 0.950 . S
C547 C543 1.393 . S
C547 C546 1.391 . S
H548 C556 0.950 . S
H549 C561 0.950 . S
H550 C558 0.950 . S
H551 C560 0.950 . S
H552 C562 0.950 . S
H553 C564 0.950 . S
H554 C566 0.950 . S
H555 C567 0.950 . S
C556 H548 0.950 . S
C556 C557 1.386 . S
C556 C558 1.391 . S
C557 C556 1.386 . S
C557 C561 1.393 . S
C558 H550 0.950 . S
C558 C556 1.391 . S
C558 C559 1.400 . S
C559 C558 1.400 . S
C559 C560 1.398 . S
C559 C565 1.491 . S
C560 H551 0.950 . S
C560 C559 1.398 . S
C560 C561 1.391 . S
C561 H549 0.950 . S
C561 C557 1.393 . S
C561 C560 1.391 . S
C562 H552 0.950 . S
C562 C563 1.386 . S
C562 C564 1.391 . S
C563 C562 1.386 . S
C563 C567 1.393 . S
C564 H553 0.950 . S
C564 C562 1.391 . S
C564 C565 1.400 . S
C565 C559 1.491 . S
C565 C564 1.400 . S
C565 C566 1.398 . S
C566 H554 0.950 . S
C566 C565 1.398 . S
C566 C567 1.391 . S
C567 H555 0.950 . S
C567 C563 1.393 . S
C567 C566 1.391 . S
H568 C576 0.950 . S
H569 C581 0.950 . S
H570 C578 0.950 . S
H571 C580 0.950 . S
H572 C582 0.950 . S
H573 C584 0.950 . S
H574 C586 0.950 . S
H575 C587 0.950 . S
C576 H568 0.950 . S
C576 C577 1.386 . S
C576 C578 1.391 . S
C577 C576 1.386 . S
C577 C581 1.393 . S
C578 H570 0.950 . S
C578 C576 1.391 . S
C578 C579 1.400 . S
C579 C578 1.400 . S
C579 C580 1.398 . S
C579 C585 1.491 . S
C580 H571 0.950 . S
C580 C579 1.398 . S
C580 C581 1.391 . S
C581 H569 0.950 . S
C581 C577 1.393 . S
C581 C580 1.391 . S
C582 H572 0.950 . S
C582 C583 1.386 . S
C582 C584 1.391 . S
C583 C582 1.386 . S
C583 C587 1.393 . S
C584 H573 0.950 . S
C584 C582 1.391 . S
C584 C585 1.400 . S
C585 C579 1.491 . S
C585 C584 1.400 . S
C585 C586 1.398 . S
C586 H574 0.950 . S
C586 C585 1.398 . S
C586 C587 1.391 . S
C587 H575 0.950 . S
C587 C583 1.393 . S
C587 C586 1.391 . S
H588 C596 0.950 . S
H589 C601 0.950 . S
H590 C598 0.950 . S
H591 C600 0.950 . S
H592 C602 0.950 . S
H593 C604 0.950 . S
H594 C606 0.950 . S
H595 C607 0.950 . S
C596 H588 0.950 . S
C596 C597 1.386 . S
C596 C598 1.391 . S
C597 C596 1.386 . S
C597 C601 1.393 . S
C598 H590 0.950 . S
C598 C596 1.391 . S
C598 C599 1.400 . S
C599 C598 1.400 . S
C599 C600 1.398 . S
C599 C605 1.491 . S
C600 H591 0.950 . S
C600 C599 1.398 . S
C600 C601 1.391 . S
C601 H589 0.950 . S
C601 C597 1.393 . S
C601 C600 1.391 . S
C602 H592 0.950 . S
C602 C603 1.386 . S
C602 C604 1.391 . S
C603 C602 1.386 . S
C603 C607 1.393 . S
C604 H593 0.950 . S
C604 C602 1.391 . S
C604 C605 1.400 . S
C605 C599 1.491 . S
C605 C604 1.400 . S
C605 C606 1.398 . S
C606 H594 0.950 . S
C606 C605 1.398 . S
C606 C607 1.391 . S
C607 H595 0.950 . S
C607 C603 1.393 . S
C607 C606 1.391 . S
H608 C616 0.950 . S
H609 C621 0.950 . S
H610 C618 0.950 . S
H611 C620 0.950 . S
H612 C622 0.950 . S
H613 C624 0.950 . S
H614 C626 0.950 . S
H615 C627 0.950 . S
C616 H608 0.950 . S
C616 C617 1.386 . S
C616 C618 1.391 . S
C617 C616 1.386 . S
C617 C621 1.393 . S
C618 H610 0.950 . S
C618 C616 1.391 . S
C618 C619 1.400 . S
C619 C618 1.400 . S
C619 C620 1.398 . S
C619 C625 1.491 . S
C620 H611 0.950 . S
C620 C619 1.398 . S
C620 C621 1.391 . S
C621 H609 0.950 . S
C621 C617 1.393 . S
C621 C620 1.391 . S
C622 H612 0.950 . S
C622 C623 1.386 . S
C622 C624 1.391 . S
C623 C622 1.386 . S
C623 C627 1.393 . S
C624 H613 0.950 . S
C624 C622 1.391 . S
C624 C625 1.400 . S
C625 C619 1.491 . S
C625 C624 1.400 . S
C625 C626 1.398 . S
C626 H614 0.950 . S
C626 C625 1.398 . S
C626 C627 1.391 . S
C627 H615 0.950 . S
C627 C623 1.393 . S
C627 C626 1.391 . S
H628 C636 0.950 . S
H629 C641 0.950 . S
H630 C638 0.950 . S
H631 C640 0.950 . S
H632 C642 0.950 . S
H633 C644 0.950 . S
H634 C646 0.950 . S
H635 C647 0.950 . S
C636 H628 0.950 . S
C636 C637 1.386 . S
C636 C638 1.391 . S
C637 C636 1.386 . S
C637 C641 1.393 . S
C638 H630 0.950 . S
C638 C636 1.391 . S
C638 C639 1.400 . S
C639 C638 1.400 . S
C639 C640 1.398 . S
C639 C645 1.491 . S
C640 H631 0.950 . S
C640 C639 1.398 . S
C640 C641 1.391 . S
C641 H629 0.950 . S
C641 C637 1.393 . S
C641 C640 1.391 . S
C642 H632 0.950 . S
C642 C643 1.386 . S
C642 C644 1.391 . S
C643 C642 1.386 . S
C643 C647 1.393 . S
C644 H633 0.950 . S
C644 C642 1.391 . S
C644 C645 1.400 . S
C645 C639 1.491 . S
C645 C644 1.400 . S
C645 C646 1.398 . S
C646 H634 0.950 . S
C646 C645 1.398 . S
C646 C647 1.391 . S
C647 H635 0.950 . S
C647 C643 1.393 . S
C647 C646 1.391 . S
H648 C656 0.950 . S
H649 C661 0.950 . S
H650 C658 0.950 . S
H651 C660 0.950 . S
H652 C662 0.950 . S
H653 C664 0.950 . S
H654 C666 0.950 . S
H655 C667 0.950 . S
C656 H648 0.950 . S
C656 C657 1.386 . S
C656 C658 1.391 . S
C657 C656 1.386 . S
C657 C661 1.393 . S
C658 H650 0.950 . S
C658 C656 1.391 . S
C658 C659 1.400 . S
C659 C658 1.400 . S
C659 C660 1.398 . S
C659 C665 1.491 . S
C660 H651 0.950 . S
C660 C659 1.398 . S
C660 C661 1.391 . S
C661 H649 0.950 . S
C661 C657 1.393 . S
C661 C660 1.391 . S
C662 H652 0.950 . S
C662 C663 1.386 . S
C662 C664 1.391 . S
C663 C662 1.386 . S
C663 C667 1.393 . S
C664 H653 0.950 . S
C664 C662 1.391 . S
C664 C665 1.400 . S
C665 C659 1.491 . S
C665 C664 1.400 . S
C665 C666 1.398 . S
C666 H654 0.950 . S
C666 C665 1.398 . S
C666 C667 1.391 . S
C667 H655 0.950 . S
C667 C663 1.393 . S
C667 C666 1.391 . S
C197 N83 1.452 . S
C203 C120 1.349 . S
C223 C128 1.337 . S
C217 N96 1.450 . S
C243 C132 1.360 . S
C237 N57 1.448 . S
C257 N70 1.444 . S
C263 C108 1.361 . S
C283 C149 1.361 . S
C277 N31 1.451 . S
C303 C183 1.337 . S
C297 N44 1.450 . S
C317 N5 1.448 . S
C323 C171 1.353 . S
C337 N18 1.442 . S
C343 C153 1.341 . S
C363 C107 1.364 . S
C357 N14 1.481 . S
C383 C141 1.366 . S
C377 N1 1.484 . S
C403 C145 1.349 . S
C397 N40 1.481 . S
C423 C123 1.348 . S
C417 N27 1.478 . S
C443 C162 1.351 . S
C437 N66 1.484 . S
C457 N53 1.488 . S
C463 C170 1.373 . S
C483 C186 1.367 . S
C477 N92 1.488 . S
C497 N79 1.486 . S
C503 C166 1.340 . S
C523 C111 1.376 . S
C517 N2 1.532 . S
C543 C129 1.352 . S
C537 N15 1.537 . S
C557 N28 1.533 . S
C563 C144 1.363 . S
C583 C124 1.356 . S
C577 N41 1.532 . S
C603 C150 1.390 . S
C597 N54 1.538 . S
C617 N67 1.539 . S
C623 C174 1.370 . S
C637 N80 1.532 . S
C643 C187 1.387 . S
C657 N93 1.533 . S
C663 C165 1.350 . S
