# Generated by pormake.
# Topology nom, (4,4)-cn, num edge types: 1
# Building blocks:
#     Node 0, Type 0, BuildingBlock: AZAVOO_clean_linker_0, # of connection points: 4
#     Node 1, Type 0, BuildingBlock: AZAVOO_clean_linker_0, # of connection points: 4
#     Node 2, Type 0, BuildingBlock: AZAVOO_clean_linker_0, # of connection points: 4
#     Node 3, Type 0, BuildingBlock: AZAVOO_clean_linker_0, # of connection points: 4
#     Node 4, Type 0, BuildingBlock: AZAVOO_clean_linker_0, # of connection points: 4
#     Node 5, Type 0, BuildingBlock: AZAVOO_clean_linker_0, # of connection points: 4
#     Node 6, Type 1, BuildingBlock: AZAVOO_clean_sbu_0, # of connection points: 4
#     Node 7, Type 1, BuildingBlock: AZAVOO_clean_sbu_0, # of connection points: 4
#     Node 8, Type 1, BuildingBlock: AZAVOO_clean_sbu_0, # of connection points: 4
#     Node 9, Type 1, BuildingBlock: AZAVOO_clean_sbu_0, # of connection points: 4
#     Node 10, Type 1, BuildingBlock: AZAVOO_clean_sbu_0, # of connection points: 4
#     Node 11, Type 1, BuildingBlock: AZAVOO_clean_sbu_0, # of connection points: 4
#     Edge 12, Type (0, 1), BuildingBlock: KIFKEQ_clean_linker_1, # of connection points: 2
#     Edge 13, Type (0, 1), BuildingBlock: KIFKEQ_clean_linker_1, # of connection points: 2
#     Edge 14, Type (0, 1), BuildingBlock: KIFKEQ_clean_linker_1, # of connection points: 2
#     Edge 15, Type (0, 1), BuildingBlock: KIFKEQ_clean_linker_1, # of connection points: 2
#     Edge 16, Type (0, 1), BuildingBlock: KIFKEQ_clean_linker_1, # of connection points: 2
#     Edge 17, Type (0, 1), BuildingBlock: KIFKEQ_clean_linker_1, # of connection points: 2
#     Edge 18, Type (0, 1), BuildingBlock: KIFKEQ_clean_linker_1, # of connection points: 2
#     Edge 19, Type (0, 1), BuildingBlock: KIFKEQ_clean_linker_1, # of connection points: 2
#     Edge 20, Type (0, 1), BuildingBlock: KIFKEQ_clean_linker_1, # of connection points: 2
#     Edge 21, Type (0, 1), BuildingBlock: KIFKEQ_clean_linker_1, # of connection points: 2
#     Edge 22, Type (0, 1), BuildingBlock: KIFKEQ_clean_linker_1, # of connection points: 2
#     Edge 23, Type (0, 1), BuildingBlock: KIFKEQ_clean_linker_1, # of connection points: 2
#     Edge 24, Type (0, 1), BuildingBlock: KIFKEQ_clean_linker_1, # of connection points: 2
#     Edge 25, Type (0, 1), BuildingBlock: KIFKEQ_clean_linker_1, # of connection points: 2
#     Edge 26, Type (0, 1), BuildingBlock: KIFKEQ_clean_linker_1, # of connection points: 2
#     Edge 27, Type (0, 1), BuildingBlock: KIFKEQ_clean_linker_1, # of connection points: 2
#     Edge 28, Type (0, 1), BuildingBlock: KIFKEQ_clean_linker_1, # of connection points: 2
#     Edge 29, Type (0, 1), BuildingBlock: KIFKEQ_clean_linker_1, # of connection points: 2
#     Edge 30, Type (0, 1), BuildingBlock: KIFKEQ_clean_linker_1, # of connection points: 2
#     Edge 31, Type (0, 1), BuildingBlock: KIFKEQ_clean_linker_1, # of connection points: 2
#     Edge 32, Type (0, 1), BuildingBlock: KIFKEQ_clean_linker_1, # of connection points: 2
#     Edge 33, Type (0, 1), BuildingBlock: KIFKEQ_clean_linker_1, # of connection points: 2
#     Edge 34, Type (0, 1), BuildingBlock: KIFKEQ_clean_linker_1, # of connection points: 2
#     Edge 35, Type (0, 1), BuildingBlock: KIFKEQ_clean_linker_1, # of connection points: 2
# Relax obj value: 0.191
# Max RMSD: 0.231
# Mean RMSD: 0.192
data_MOF--net-nom--node1-AZAVOO_clean_sbu_0--node2-AZAVOO_clean_linker_0--edge1-KIFKEQ_clean_linker_1
_symmetry_space_group_name_H-M    P1
_symmetry_Int_Tables_number       1
_symmetry_cell_setting            triclinic
loop_
_symmetry_equiv_pos_as_xyz
'x, y, z'
_cell_length_a     48.606212
_cell_length_b     50.475536
_cell_length_c     59.120311
_cell_angle_alpha  90.878555
_cell_angle_beta   90.857191
_cell_angle_gamma 121.01636
loop_
_atom_site_label
_atom_site_type_symbol
_atom_site_fract_x
_atom_site_fract_y
_atom_site_fract_z
_atom_type_partial_charge
H0 H 0.06832 0.47146 0.16552 0.0
H1 H 0.2247 0.61609 0.40895 0.0
H2 H 0.98774 0.42994 0.29398 0.0
H3 H 0.94615 0.40373 0.26437 0.0
H4 H 0.97216 0.49251 0.23705 0.0
H5 H 0.01184 0.51828 0.26771 0.0
H6 H 0.05346 0.4571 0.26335 0.0
H7 H 0.05753 0.45415 0.22228 0.0
H8 H 0.08392 0.54987 0.21811 0.0
H9 H 0.07934 0.55235 0.25914 0.0
H10 H 0.1386 0.51403 0.2884 0.0
H11 H 0.19384 0.55552 0.28035 0.0
H12 H 0.16645 0.6235 0.29162 0.0
H13 H 0.11189 0.58237 0.29946 0.0
H14 H 0.12718 0.49982 0.3378 0.0
H15 H 0.17435 0.52449 0.36344 0.0
H16 H 0.15892 0.60057 0.37533 0.0
H17 H 0.11204 0.57577 0.3495 0.0
H18 H 0.06315 0.46656 0.3634 0.0
H19 H 0.08227 0.47768 0.40288 0.0
H20 H 0.06648 0.55428 0.40501 0.0
H21 H 0.0483 0.5437 0.36522 0.0
H22 H 0.97562 0.43857 0.33558 0.0
H23 H 0.92377 0.43182 0.34671 0.0
H24 H 0.96293 0.52999 0.33999 0.0
H25 H 0.01361 0.53613 0.32817 0.0
O26 O 0.06705 0.4732 0.18175 0.0
O27 O 0.08086 0.52256 0.18054 0.0
O28 O 0.21426 0.56711 0.391 0.0
O29 O 0.20659 0.60614 0.39837 0.0
C30 C 0.03177 0.49142 0.29834 0.0
C31 C 0.06275 0.50611 0.28903 0.0
C32 C 0.09011 0.52216 0.30338 0.0
C33 C 0.08693 0.52031 0.327 0.0
C34 C 0.05614 0.50533 0.33642 0.0
C35 C 0.02857 0.49263 0.32205 0.0
C36 C 0.00296 0.476 0.28294 0.0
C37 C 0.98368 0.44368 0.282 0.0
C38 C 0.96027 0.42875 0.26478 0.0
C39 C 0.95604 0.44586 0.2479 0.0
C40 C 0.97432 0.47839 0.24973 0.0
C41 C 0.99727 0.49327 0.26719 0.0
C42 C 0.06652 0.50503 0.26423 0.0
C43 C 0.0603 0.47744 0.25353 0.0
C44 C 0.06259 0.47582 0.23007 0.0
C45 C 0.07116 0.50181 0.21691 0.0
C46 C 0.07741 0.52947 0.22775 0.0
C47 C 0.07504 0.53102 0.2512 0.0
C48 C 0.12142 0.54536 0.29434 0.0
C49 C 0.1445 0.53786 0.28852 0.0
C50 C 0.17589 0.56145 0.28406 0.0
C51 C 0.18431 0.59259 0.28574 0.0
C52 C 0.16063 0.5997 0.29057 0.0
C53 C 0.12947 0.57629 0.29481 0.0
C54 C 0.11614 0.53592 0.34198 0.0
C55 C 0.13417 0.52188 0.34589 0.0
C56 C 0.16104 0.536 0.36055 0.0
C57 C 0.17034 0.56448 0.3715 0.0
C58 C 0.15239 0.57864 0.36724 0.0
C59 C 0.12559 0.56452 0.35253 0.0
C60 C 0.05405 0.50413 0.36143 0.0
C61 C 0.06225 0.48477 0.37268 0.0
C62 C 0.07356 0.49138 0.39511 0.0
C63 C 0.07614 0.51703 0.40676 0.0
C64 C 0.06452 0.5343 0.39634 0.0
C65 C 0.05372 0.52801 0.37371 0.0
C66 C -0.00183 0.4878 0.331 0.0
C67 C 0.97286 0.45851 0.33668 0.0
C68 C 0.94343 0.45477 0.34313 0.0
C69 C 0.93915 0.48033 0.34394 0.0
C70 C 0.96517 0.50973 0.33907 0.0
C71 C 0.99423 0.51335 0.3325 0.0
C72 C 0.07336 0.49995 0.19198 0.0
C73 C 0.19843 0.57924 0.38749 0.0
H74 H 0.52137 0.05573 0.3442 0.0
H75 H 0.53158 0.20686 0.57988 0.0
H76 H 0.50339 0.98796 0.47186 0.0
H77 H 0.49991 0.95414 0.44048 0.0
H78 H 0.41686 0.95386 0.41322 0.0
H79 H 0.41973 0.98681 0.44522 0.0
H80 H 0.52813 0.04659 0.44239 0.0
H81 H 0.53376 0.05048 0.40132 0.0
H82 H 0.44917 0.05793 0.39585 0.0
H83 H 0.4436 0.05357 0.43693 0.0
H84 H 0.55193 0.11482 0.47276 0.0
H85 H 0.57156 0.166 0.45694 0.0
H86 H 0.47445 0.14814 0.4545 0.0
H87 H 0.45517 0.09689 0.46979 0.0
H88 H 0.54515 0.09493 0.52963 0.0
H89 H 0.56687 0.13981 0.55564 0.0
H90 H 0.48389 0.14772 0.54135 0.0
H91 H 0.46225 0.10254 0.51566 0.0
H92 H 0.51163 0.02113 0.53946 0.0
H93 H 0.52331 0.02959 0.58006 0.0
H94 H 0.45576 0.06082 0.58583 0.0
H95 H 0.44243 0.04975 0.54562 0.0
H96 H 0.48726 0.97366 0.5116 0.0
H97 H 0.45511 0.91965 0.5228 0.0
H98 H 0.36968 0.92588 0.51972 0.0
H99 H 0.40193 0.97943 0.50789 0.0
O100 O 0.51894 0.05465 0.36043 0.0
O101 O 0.47591 0.05933 0.35859 0.0
O102 O 0.56561 0.18387 0.57657 0.0
O103 O 0.5236 0.18913 0.56964 0.0
C104 C 0.46893 0.01598 0.47638 0.0
C105 C 0.48119 0.04567 0.46733 0.0
C106 C 0.49022 0.07138 0.48186 0.0
C107 C 0.48882 0.06783 0.50549 0.0
C108 C 0.47608 0.03804 0.51461 0.0
C109 C 0.46527 0.01198 0.49996 0.0
C110 C 0.46166 0.98963 0.46091 0.0
C111 C 0.4835 0.97937 0.45975 0.0
C112 C 0.48162 0.96024 0.44175 0.0
C113 C 0.45825 0.95163 0.42443 0.0
C114 C 0.43514 0.96031 0.42637 0.0
C115 C 0.43666 0.97894 0.44464 0.0
C116 C 0.48557 0.04995 0.44259 0.0
C117 C 0.51097 0.04924 0.43228 0.0
C118 C 0.51407 0.05141 0.40883 0.0
C119 C 0.4919 0.0545 0.39529 0.0
C120 C 0.46668 0.0556 0.40578 0.0
C121 C 0.46353 0.05329 0.42923 0.0
C122 C 0.5022 0.10229 0.47233 0.0
C123 C 0.53501 0.12207 0.46873 0.0
C124 C 0.54614 0.1513 0.45986 0.0
C125 C 0.52456 0.16116 0.45446 0.0
C126 C 0.49165 0.14113 0.45817 0.0
C127 C 0.48059 0.11194 0.467 0.0
C128 C 0.50224 0.09563 0.52071 0.0
C129 C 0.53177 0.10646 0.53212 0.0
C130 C 0.54409 0.13207 0.54696 0.0
C131 C 0.52712 0.14739 0.55056 0.0
C132 C 0.49759 0.13651 0.53895 0.0
C133 C 0.48525 0.11082 0.52418 0.0
C134 C 0.47634 0.03503 0.53954 0.0
C135 C 0.49829 0.02841 0.5497 0.0
C136 C 0.50541 0.03392 0.57289 0.0
C137 C 0.49123 0.0468 0.58625 0.0
C138 C 0.46716 0.05081 0.57627 0.0
C139 C 0.45954 0.04461 0.55318 0.0
C140 C 0.44686 0.98035 0.50885 0.0
C141 C 0.46163 0.96332 0.51345 0.0
C142 C 0.44322 0.93254 0.51996 0.0
C143 C 0.40973 0.91832 0.522 0.0
C144 C 0.39527 0.93587 0.51791 0.0
C145 C 0.41368 0.96655 0.51137 0.0
C146 C 0.495 0.05634 0.37034 0.0
C147 C 0.54004 0.17453 0.56638 0.0
H148 H 0.61957 0.54627 0.77393 0.0
H149 H 0.58519 0.40317 0.53304 0.0
H150 H 0.60935 0.60431 0.66331 0.0
H151 H 0.60215 0.63094 0.69556 0.0
H152 H 0.49929 0.57475 0.68545 0.0
H153 H 0.50662 0.54767 0.65346 0.0
H154 H 0.62816 0.5537 0.6754 0.0
H155 H 0.63424 0.55405 0.7166 0.0
H156 H 0.53161 0.51259 0.72255 0.0
H157 H 0.52584 0.51194 0.68133 0.0
H158 H 0.63267 0.51003 0.63995 0.0
H159 H 0.636 0.46669 0.6551 0.0
H160 H 0.53459 0.41923 0.66892 0.0
H161 H 0.53186 0.46276 0.65439 0.0
H162 H 0.6335 0.53514 0.59098 0.0
H163 H 0.64463 0.5052 0.56358 0.0
H164 H 0.55009 0.42574 0.57351 0.0
H165 H 0.5392 0.4561 0.60069 0.0
H166 H 0.61412 0.58024 0.57863 0.0
H167 H 0.62493 0.57467 0.53937 0.0
H168 H 0.53209 0.49043 0.5324 0.0
H169 H 0.52261 0.49533 0.57222 0.0
H170 H 0.56729 0.61123 0.61512 0.0
H171 H 0.52645 0.62427 0.60464 0.0
H172 H 0.45925 0.528 0.58784 0.0
H173 H 0.49909 0.51515 0.59916 0.0
O174 O 0.61657 0.54556 0.75766 0.0
O175 O 0.56373 0.52458 0.7598 0.0
O176 O 0.62993 0.45695 0.53952 0.0
O177 O 0.5817 0.41533 0.54417 0.0
C178 C 0.56327 0.55327 0.64084 0.0
C179 C 0.57328 0.53396 0.65045 0.0
C180 C 0.57901 0.51463 0.63637 0.0
C181 C 0.57789 0.51679 0.61274 0.0
C182 C 0.56745 0.5357 0.60314 0.0
C183 C 0.55794 0.5523 0.61718 0.0
C184 C 0.55852 0.5741 0.65606 0.0
C185 C 0.58528 0.59841 0.66763 0.0
C186 C 0.58117 0.61342 0.68609 0.0
C187 C 0.5502 0.60467 0.69303 0.0
C188 C 0.52342 0.58204 0.6803 0.0
C189 C 0.52755 0.56666 0.662 0.0
C190 C 0.57662 0.53304 0.67542 0.0
C191 C 0.60702 0.54454 0.68564 0.0
C192 C 0.61042 0.5448 0.70917 0.0
C193 C 0.58343 0.53349 0.72288 0.0
C194 C 0.55291 0.52159 0.71251 0.0
C195 C 0.54955 0.52125 0.68898 0.0
C196 C 0.58209 0.48951 0.64628 0.0
C197 C 0.61134 0.49031 0.64645 0.0
C198 C 0.6131 0.46548 0.65494 0.0
C199 C 0.58557 0.43953 0.6633 0.0
C200 C 0.55638 0.43905 0.66305 0.0
C201 C 0.55471 0.46383 0.65469 0.0
C202 C 0.5856 0.49773 0.59779 0.0
C203 C 0.61537 0.51118 0.58734 0.0
C204 C 0.6216 0.49406 0.57166 0.0
C205 C 0.59818 0.46308 0.56629 0.0
C206 C 0.56862 0.44952 0.57722 0.0
C207 C 0.56238 0.46673 0.59283 0.0
C208 C 0.56759 0.53827 0.57824 0.0
C209 C 0.59558 0.56131 0.56834 0.0
C210 C 0.60174 0.55795 0.54582 0.0
C211 C 0.5797 0.53167 0.53275 0.0
C212 C 0.55002 0.51048 0.54212 0.0
C213 C 0.54417 0.51358 0.56476 0.0
C214 C 0.53627 0.56223 0.60777 0.0
C215 C 0.54388 0.59313 0.60885 0.0
C216 C 0.52061 0.60053 0.6028 0.0
C217 C 0.48952 0.57707 0.5957 0.0
C218 C 0.48276 0.54652 0.5936 0.0
C219 C 0.50573 0.53919 0.59975 0.0
C220 C 0.58717 0.53421 0.74789 0.0
C221 C 0.60436 0.44504 0.54921 0.0
H222 H 0.02927 0.42352 0.97263 0.0
H223 H 0.20581 0.49206 0.73529 0.0
H224 H 0.98907 0.46165 0.85288 0.0
H225 H 0.95555 0.45058 0.88581 0.0
H226 H 0.93511 0.35649 0.88422 0.0
H227 H 0.96877 0.36787 0.85106 0.0
H228 H 0.04247 0.46931 0.8808 0.0
H229 H 0.03888 0.45881 0.92126 0.0
H230 H 0.03263 0.37168 0.90637 0.0
H231 H 0.03586 0.38236 0.86591 0.0
H232 H 0.10755 0.49033 0.86062 0.0
H233 H 0.15769 0.49945 0.87823 0.0
H234 H 0.1409 0.41345 0.84834 0.0
H235 H 0.091 0.40487 0.83051 0.0
H236 H 0.11034 0.50886 0.80666 0.0
H237 H 0.15881 0.53198 0.78409 0.0
H238 H 0.13569 0.44059 0.76176 0.0
H239 H 0.08736 0.41786 0.78445 0.0
H240 H 0.04267 0.49535 0.78571 0.0
H241 H 0.05893 0.51801 0.74854 0.0
H242 H 0.04951 0.43294 0.72288 0.0
H243 H 0.03431 0.41094 0.76044 0.0
H244 H 0.96369 0.44747 0.81343 0.0
H245 H 0.9083 0.41863 0.79815 0.0
H246 H 0.92717 0.35211 0.76654 0.0
H247 H 0.98178 0.38008 0.78263 0.0
O248 O 0.03149 0.42757 0.95661 0.0
O249 O 0.02982 0.38366 0.94818 0.0
O250 O 0.198 0.52999 0.75672 0.0
O251 O 0.18703 0.48355 0.74456 0.0
C252 C 0.00931 0.42528 0.8352 0.0
C253 C 0.03837 0.43163 0.8459 0.0
C254 C 0.06612 0.44203 0.83316 0.0
C255 C 0.06551 0.44804 0.81005 0.0
C256 C 0.03655 0.44186 0.79932 0.0
C257 C 0.00804 0.42912 0.81164 0.0
C258 C 0.981 0.41546 0.84943 0.0
C259 C 0.97606 0.43824 0.85894 0.0
C260 C 0.95712 0.43193 0.8779 0.0
C261 C 0.94309 0.40279 0.88779 0.0
C262 C 0.94603 0.37928 0.87713 0.0
C263 C 0.96478 0.38556 0.85801 0.0
C264 C 0.03935 0.42656 0.8705 0.0
C265 C 0.04055 0.44809 0.88635 0.0
C266 C 0.03842 0.44199 0.90943 0.0
C267 C 0.03531 0.41433 0.91704 0.0
C268 C 0.03494 0.39316 0.90107 0.0
C269 C 0.03694 0.39926 0.87799 0.0
C270 C 0.096 0.44714 0.84419 0.0
C271 C 0.11471 0.47345 0.85802 0.0
C272 C 0.14311 0.47841 0.86823 0.0
C273 C 0.15318 0.45708 0.86473 0.0
C274 C 0.1339 0.43039 0.85119 0.0
C275 C 0.1055 0.42548 0.84099 0.0
C276 C 0.09551 0.46177 0.79715 0.0
C277 C 0.11595 0.49393 0.79697 0.0
C278 C 0.14354 0.50704 0.78403 0.0
C279 C 0.1511 0.48811 0.77108 0.0
C280 C 0.13059 0.45582 0.77152 0.0
C281 C 0.10303 0.44277 0.78448 0.0
C282 C 0.0373 0.45154 0.77571 0.0
C283 C 0.04306 0.48128 0.77184 0.0
C284 C 0.05236 0.49418 0.75055 0.0
C285 C 0.05596 0.47744 0.73278 0.0
C286 C 0.04754 0.44665 0.73632 0.0
C287 C 0.03845 0.43387 0.75766 0.0
C288 C 0.9766 0.41558 0.79947 0.0
C289 C 0.9559 0.42678 0.80313 0.0
C290 C 0.92443 0.41046 0.79428 0.0
C291 C 0.91357 0.38316 0.78123 0.0
C292 C 0.93505 0.37325 0.77633 0.0
C293 C 0.96622 0.38919 0.78553 0.0
C294 C 0.03209 0.40751 0.94152 0.0
C295 C 0.18014 0.50193 0.75707 0.0
H296 H 0.36246 0.9431 0.84822 0.0
H297 H 0.38757 0.80605 0.06796 0.0
H298 H 0.40867 0.01961 0.95769 0.0
H299 H 0.42344 0.05591 0.92665 0.0
H300 H 0.52251 0.08176 0.93559 0.0
H301 H 0.50759 0.04432 0.96566 0.0
H302 H 0.37041 0.94411 0.94711 0.0
H303 H 0.35736 0.93882 0.90652 0.0
H304 H 0.45862 0.98646 0.8923 0.0
H305 H 0.47129 0.99106 0.93286 0.0
H306 H 0.36626 0.88749 0.97995 0.0
H307 H 0.35964 0.8399 0.96218 0.0
H308 H 0.45574 0.89273 0.93684 0.0
H309 H 0.46236 0.93931 0.95479 0.0
H310 H 0.37754 0.92629 0.03369 0.0
H311 H 0.35819 0.88101 0.05737 0.0
H312 H 0.42954 0.86373 0.0297 0.0
H313 H 0.4489 0.90925 0.00635 0.0
H314 H 0.42924 0.00775 0.04711 0.0
H315 H 0.44403 0.01423 0.08743 0.0
H316 H 0.49237 0.96327 0.07669 0.0
H317 H 0.4799 0.95948 0.03651 0.0
H318 H 0.45925 0.05996 0.01229 0.0
H319 H 0.50652 0.10774 0.02774 0.0
H320 H 0.56157 0.06247 0.02626 0.0
H321 H 0.51512 0.01582 0.01047 0.0
O322 O 0.36813 0.94518 0.86418 0.0
O323 O 0.4205 0.97028 0.85782 0.0
O324 O 0.35852 0.83398 0.07249 0.0
O325 O 0.3947 0.82403 0.05875 0.0
C326 C 0.44678 0.00195 0.97812 0.0
C327 C 0.42944 0.97211 0.96769 0.0
C328 C 0.42121 0.94571 0.98044 0.0
C329 C 0.42617 0.94871 0.00416 0.0
C330 C 0.44388 0.97853 0.01452 0.0
C331 C 0.45616 0.00507 0.00117 0.0
C332 C 0.45707 0.02946 0.96409 0.0
C333 C 0.43371 0.03381 0.95343 0.0
C334 C 0.44206 0.05437 0.93574 0.0
C335 C 0.47401 0.07146 0.92901 0.0
C336 C 0.49778 0.06898 0.94082 0.0
C337 C 0.48932 0.04785 0.95812 0.0
C338 C 0.42178 0.96838 0.94295 0.0
C339 C 0.38971 0.9533 0.93519 0.0
C340 C 0.38235 0.95038 0.912 0.0
C341 C 0.40696 0.9624 0.89616 0.0
C342 C 0.43909 0.97709 0.90403 0.0
C343 C 0.4464 0.97988 0.9272 0.0
C344 C 0.41466 0.91692 0.96841 0.0
C345 C 0.38563 0.88867 0.97032 0.0
C346 C 0.38194 0.86163 0.96026 0.0
C347 C 0.40704 0.86276 0.94791 0.0
C348 C 0.43571 0.89122 0.9458 0.0
C349 C 0.43952 0.91789 0.95604 0.0
C350 C 0.41432 0.92082 0.0181 0.0
C351 C 0.38887 0.91262 0.03273 0.0
C352 C 0.37789 0.88677 0.04623 0.0
C353 C 0.39225 0.86867 0.04537 0.0
C354 C 0.41786 0.87707 0.03073 0.0
C355 C 0.42886 0.90297 0.01727 0.0
C356 C 0.4526 0.98225 0.03902 0.0
C357 C 0.44325 0.99824 0.05358 0.0
C358 C 0.45167 0.00184 0.07661 0.0
C359 C 0.4693 0.98917 0.08552 0.0
C360 C 0.47929 0.97389 0.0706 0.0
C361 C 0.47145 0.97092 0.04761 0.0
C362 C 0.48385 0.03452 0.01025 0.0
C363 C 0.48163 0.06061 0.01524 0.0
C364 C 0.5085 0.08768 0.02419 0.0
C365 C 0.53781 0.08889 0.02807 0.0
C366 C 0.53958 0.06252 0.02313 0.0
C367 C 0.51299 0.03576 0.01424 0.0
C368 C 0.39908 0.95958 0.87156 0.0
C369 C 0.38072 0.84122 0.05971 0.0
H370 H 0.59043 0.53418 0.98966 0.0
H371 H 0.64221 0.50003 0.25149 0.0
H372 H 0.52742 0.58143 0.10366 0.0
H373 H 0.51477 0.59866 0.06872 0.0
H374 H 0.61605 0.66195 0.05916 0.0
H375 H 0.62841 0.64426 0.09413 0.0
H376 H 0.55232 0.53586 0.0828 0.0
H377 H 0.5589 0.52839 0.04267 0.0
H378 H 0.65978 0.5982 0.04946 0.0
H379 H 0.65275 0.60547 0.08956 0.0
H380 H 0.57529 0.4972 0.12365 0.0
H381 H 0.60273 0.46832 0.11768 0.0
H382 H 0.69395 0.55448 0.11793 0.0
H383 H 0.6664 0.58288 0.12447 0.0
H384 H 0.55007 0.50617 0.1694 0.0
H385 H 0.55637 0.47913 0.20126 0.0
H386 H 0.65714 0.54941 0.20714 0.0
H387 H 0.65045 0.57618 0.17526 0.0
H388 H 0.52569 0.54853 0.17823 0.0
H389 H 0.51783 0.53518 0.21806 0.0
H390 H 0.61877 0.60027 0.23196 0.0
H391 H 0.62561 0.61476 0.19257 0.0
H392 H 0.52533 0.59317 0.15893 0.0
H393 H 0.51962 0.63418 0.17683 0.0
H394 H 0.61693 0.70157 0.15946 0.0
H395 H 0.62262 0.66041 0.142 0.0
O396 O 0.5884 0.53741 0.00558 0.0
O397 O 0.64007 0.57356 0.00992 0.0
O398 O 0.5884 0.47215 0.23292 0.0
O399 O 0.63932 0.50968 0.23837 0.0
C400 C 0.58619 0.59574 0.11923 0.0
C401 C 0.59755 0.5759 0.11313 0.0
C402 C 0.60312 0.55956 0.12989 0.0
C403 C 0.59509 0.56112 0.15242 0.0
C404 C 0.58353 0.58075 0.15853 0.0
C405 C 0.58022 0.59896 0.1421 0.0
C406 C 0.57879 0.61146 0.10128 0.0
C407 C 0.54678 0.59969 0.09437 0.0
C408 C 0.53964 0.6096 0.07439 0.0
C409 C 0.56446 0.63144 0.06102 0.0
C410 C 0.59645 0.64475 0.0689 0.0
C411 C 0.60355 0.63486 0.08892 0.0
C412 C 0.60209 0.57104 0.08902 0.0
C413 C 0.57582 0.54939 0.07557 0.0
C414 C 0.57966 0.54523 0.05267 0.0
C415 C 0.60988 0.56268 0.04285 0.0
C416 C 0.63619 0.58434 0.05649 0.0
C417 C 0.6323 0.58847 0.0794 0.0
C418 C 0.61893 0.54204 0.12424 0.0
C419 C 0.60116 0.50971 0.12218 0.0
C420 C 0.61684 0.49334 0.11875 0.0
C421 C 0.65052 0.50915 0.11745 0.0
C422 C 0.66806 0.54163 0.1192 0.0
C423 C 0.65238 0.5579 0.12264 0.0
C424 C 0.59982 0.54303 0.17004 0.0
C425 C 0.57356 0.51542 0.17741 0.0
C426 C 0.57721 0.50011 0.19566 0.0
C427 C 0.60725 0.5122 0.20683 0.0
C428 C 0.63367 0.53952 0.19898 0.0
C429 C 0.62999 0.55476 0.18069 0.0
C430 C 0.57628 0.5824 0.18256 0.0
C431 C 0.54559 0.56123 0.1902 0.0
C432 C 0.5413 0.55326 0.21292 0.0
C433 C 0.56787 0.56577 0.22812 0.0
C434 C 0.59766 0.59005 0.22089 0.0
C435 C 0.60172 0.59846 0.19827 0.0
C436 C 0.57447 0.62382 0.14939 0.0
C437 C 0.54528 0.61681 0.15886 0.0
C438 C 0.54213 0.64018 0.16913 0.0
C439 C 0.56801 0.67094 0.16977 0.0
C440 C 0.59661 0.67808 0.15916 0.0
C441 C 0.59984 0.65466 0.14914 0.0
C442 C 0.61383 0.55831 0.01848 0.0
C443 C 0.61097 0.49669 0.22678 0.0
Mg444 Mg 0.64938 0.42553 0.35483 0.0
O445 O 0.64829 0.4537 0.38536 0.0
O446 O 0.67393 0.50344 0.37588 0.0
Mg447 Mg 0.69455 0.50747 0.3409 0.0
C448 C 0.65782 0.48206 0.38978 0.0
C449 C 0.60317 0.36787 0.38325 0.0
O450 O 0.58321 0.37726 0.37815 0.0
O451 O 0.70122 0.44029 0.36306 0.0
O452 O 0.72723 0.48983 0.35342 0.0
O453 O 0.60528 0.42317 0.34066 0.0
O454 O 0.65475 0.46007 0.33329 0.0
C455 C 0.72719 0.46614 0.36079 0.0
C456 C 0.62435 0.44933 0.33142 0.0
O457 O 0.63183 0.38313 0.37649 0.0
Mg458 Mg 0.25786 0.63373 0.59051 0.0
O459 O 0.22638 0.60896 0.55845 0.0
O460 O 0.2023 0.55815 0.56443 0.0
Mg461 Mg 0.21956 0.55017 0.5983 0.0
C462 C 0.20698 0.58075 0.55229 0.0
C463 C 0.27194 0.6963 0.56888 0.0
O464 O 0.24181 0.68551 0.57392 0.0
O465 O 0.29595 0.6227 0.57979 0.0
O466 O 0.27134 0.57214 0.5862 0.0
O467 O 0.21572 0.63194 0.60745 0.0
O468 O 0.22766 0.59536 0.60937 0.0
C469 C 0.29584 0.59737 0.58014 0.0
C470 C 0.20828 0.60476 0.61407 0.0
O471 O 0.28447 0.68008 0.57295 0.0
Mg472 Mg 0.61081 0.22758 0.76302 0.0
O473 O 0.58995 0.18804 0.73646 0.0
O474 O 0.59865 0.15151 0.74942 0.0
Mg475 Mg 0.62025 0.16562 0.78546 0.0
C476 C 0.58819 0.162 0.73415 0.0
C477 C 0.58514 0.25707 0.72948 0.0
O478 O 0.55794 0.23274 0.73526 0.0
O479 O 0.66167 0.24108 0.75451 0.0
O480 O 0.6678 0.20567 0.77233 0.0
O481 O 0.5636 0.20784 0.77961 0.0
O482 O 0.60035 0.19604 0.78831 0.0
C483 C 0.67915 0.23047 0.76112 0.0
C484 C 0.57218 0.19176 0.7914 0.0
O485 O 0.61136 0.26087 0.73747 0.0
Mg486 Mg 0.43612 0.63702 0.86829 0.0
O487 O 0.46879 0.63892 0.89739 0.0
O488 O 0.47564 0.5988 0.89196 0.0
Mg489 Mg 0.45101 0.57384 0.85846 0.0
C490 C 0.48026 0.62234 0.90362 0.0
C491 C 0.44622 0.69785 0.88994 0.0
O492 O 0.47482 0.7076 0.88184 0.0
O493 O 0.39416 0.59534 0.88358 0.0
O494 O 0.40141 0.55638 0.87402 0.0
O495 O 0.47753 0.66711 0.84654 0.0
O496 O 0.45335 0.61622 0.84698 0.0
C497 C 0.38471 0.5666 0.88287 0.0
C498 C 0.47554 0.64191 0.83906 0.0
O499 O 0.42489 0.66939 0.88771 0.0
Mg500 Mg 0.78379 0.35347 0.05988 0.0
O501 O 0.81456 0.36213 0.09203 0.0
O502 O 0.83774 0.33396 0.08875 0.0
Mg503 Mg 0.82272 0.30841 0.05418 0.0
C504 C 0.8327 0.35288 0.09986 0.0
C505 C 0.77326 0.40338 0.08279 0.0
O506 O 0.80432 0.42018 0.07966 0.0
O507 O 0.74626 0.30583 0.07117 0.0
O508 O 0.76965 0.27841 0.06427 0.0
O509 O 0.82485 0.39185 0.04209 0.0
O510 O 0.81293 0.34335 0.04079 0.0
C511 C 0.74538 0.28013 0.07016 0.0
C512 C 0.83119 0.37137 0.03459 0.0
O513 O 0.75825 0.37492 0.07698 0.0
Mg514 Mg 0.45511 0.82998 0.23084 0.0
O515 O 0.46872 0.85265 0.26612 0.0
O516 O 0.51754 0.89493 0.26434 0.0
Mg517 Mg 0.5346 0.89915 0.22789 0.0
C518 C 0.49265 0.87665 0.27537 0.0
C519 C 0.39292 0.78587 0.25593 0.0
O520 O 0.39439 0.81231 0.25967 0.0
O521 O 0.48931 0.81294 0.2348 0.0
O522 O 0.53752 0.85473 0.22963 0.0
O523 O 0.43276 0.85721 0.22224 0.0
O524 O 0.48371 0.87271 0.21643 0.0
C525 C 0.51952 0.82569 0.23264 0.0
C526 C 0.46077 0.87849 0.21571 0.0
O527 O 0.415 0.78561 0.24493 0.0
H528 H 0.22532 0.60188 0.2515 0.0
H529 H 0.21857 0.64062 0.31529 0.0
H530 H 0.27819 0.6479 0.24604 0.0
H531 H 0.27145 0.68615 0.31021 0.0
H532 H 0.3397 0.77798 0.27688 0.0
H533 H 0.29147 0.72953 0.28555 0.0
H534 H 0.33407 0.67875 0.25948 0.0
H535 H 0.38223 0.72736 0.25029 0.0
C536 C 0.2355 0.61999 0.26452 0.0
C537 C 0.21784 0.61807 0.28361 0.0
C538 C 0.26573 0.64627 0.26146 0.0
C539 C 0.27878 0.67087 0.27756 0.0
C540 C 0.26173 0.66796 0.29725 0.0
C541 C 0.23155 0.6419 0.3002 0.0
C542 C 0.33893 0.75653 0.27315 0.0
C543 C 0.36473 0.75652 0.26281 0.0
C544 C 0.31133 0.72872 0.27825 0.0
C545 C 0.30895 0.70027 0.27322 0.0
C546 C 0.33504 0.70027 0.26332 0.0
C547 C 0.36268 0.72813 0.25819 0.0
H548 H 0.57865 0.21614 0.46685 0.0
H549 H 0.49684 0.17626 0.42036 0.0
H550 H 0.59772 0.26691 0.45096 0.0
H551 H 0.51577 0.22698 0.40465 0.0
H552 H 0.54232 0.32697 0.39683 0.0
H553 H 0.52342 0.27774 0.41516 0.0
H554 H 0.61964 0.29359 0.41535 0.0
H555 H 0.63867 0.34296 0.39732 0.0
C556 C 0.56484 0.21816 0.45315 0.0
C557 C 0.53621 0.19213 0.44488 0.0
C558 C 0.57574 0.24725 0.44409 0.0
C559 C 0.5582 0.25097 0.4266 0.0
C560 C 0.52954 0.22498 0.41838 0.0
C561 C 0.5187 0.1959 0.42739 0.0
C562 C 0.5595 0.32006 0.40092 0.0
C563 C 0.59198 0.33884 0.39552 0.0
C564 C 0.54862 0.29177 0.41129 0.0
C565 C 0.57 0.2817 0.41659 0.0
C566 C 0.60262 0.30081 0.41167 0.0
C567 C 0.61348 0.32904 0.40122 0.0
H568 H 0.42896 0.54411 0.6111 0.0
H569 H 0.49054 0.62448 0.57231 0.0
H570 H 0.38405 0.55115 0.60341 0.0
H571 H 0.44497 0.63169 0.56455 0.0
H572 H 0.35794 0.6466 0.58271 0.0
H573 H 0.40689 0.64403 0.58432 0.0
H574 H 0.35041 0.54564 0.57026 0.0
H575 H 0.30173 0.54803 0.5691 0.0
C576 C 0.43283 0.56319 0.60072 0.0
C577 C 0.46316 0.58338 0.59193 0.0
C578 C 0.40702 0.56719 0.59626 0.0
C579 C 0.41075 0.59155 0.58291 0.0
C580 C 0.44136 0.61259 0.57479 0.0
C581 C 0.4674 0.60852 0.57926 0.0
C582 C 0.35611 0.62456 0.57944 0.0
C583 C 0.32589 0.59741 0.57617 0.0
C584 C 0.38416 0.62312 0.58037 0.0
C585 C 0.3824 0.59452 0.57796 0.0
C586 C 0.35245 0.5679 0.5728 0.0
C587 C 0.32455 0.56929 0.57201 0.0
H588 H 0.8634 0.36298 0.80917 0.0
H589 H 0.88644 0.35688 0.73975 0.0
H590 H 0.80714 0.32424 0.80073 0.0
H591 H 0.82963 0.31829 0.73121 0.0
H592 H 0.71259 0.28031 0.73393 0.0
H593 H 0.77045 0.31795 0.73597 0.0
H594 H 0.78287 0.26307 0.78566 0.0
H595 H 0.7255 0.22516 0.78347 0.0
C596 C 0.85626 0.35383 0.792 0.0
C597 C 0.87914 0.36295 0.77507 0.0
C598 C 0.82422 0.33152 0.78725 0.0
C599 C 0.81437 0.31828 0.76541 0.0
C600 C 0.83685 0.32825 0.74817 0.0
C601 C 0.86916 0.35022 0.75305 0.0
C602 C 0.72777 0.27588 0.74489 0.0
C603 C 0.71436 0.24988 0.75872 0.0
C604 C 0.7608 0.2974 0.746 0.0
C605 C 0.78074 0.29342 0.76118 0.0
C606 C 0.76775 0.26663 0.77397 0.0
C607 C 0.73493 0.2449 0.7726 0.0
H608 H 0.42339 0.85482 0.90567 0.0
H609 H 0.38653 0.80743 0.96819 0.0
H610 H 0.43026 0.81286 0.89196 0.0
H611 H 0.39325 0.76511 0.95434 0.0
H612 H 0.39038 0.68545 0.90996 0.0
H613 H 0.37613 0.72284 0.92346 0.0
H614 H 0.46951 0.79771 0.90521 0.0
H615 H 0.48378 0.76067 0.89174 0.0
C616 C 0.41632 0.83517 0.91634 0.0
C617 C 0.40483 0.83453 0.9381 0.0
C618 C 0.42037 0.81124 0.90854 0.0
C619 C 0.41291 0.78609 0.92229 0.0
C620 C 0.39923 0.78429 0.94342 0.0
C621 C 0.39525 0.80839 0.95129 0.0
C622 C 0.40791 0.70991 0.90895 0.0
C623 C 0.43816 0.72012 0.89965 0.0
C624 C 0.39974 0.73124 0.91672 0.0
C625 C 0.42154 0.76311 0.91507 0.0
C626 C 0.452 0.77325 0.90627 0.0
C627 C 0.46025 0.75201 0.89872 0.0
H628 H 0.6338 0.45951 0.08912 0.0
H629 H 0.70557 0.52006 0.1391 0.0
H630 H 0.66318 0.43292 0.083 0.0
H631 H 0.73495 0.49348 0.13299 0.0
H632 H 0.79679 0.46449 0.09295 0.0
H633 H 0.76636 0.48888 0.10299 0.0
H634 H 0.67885 0.39944 0.10137 0.0
H635 H 0.70914 0.37505 0.09091 0.0
C636 C 0.65562 0.46687 0.099 0.0
C637 C 0.66749 0.49201 0.11446 0.0
C638 C 0.67244 0.45163 0.09552 0.0
C639 C 0.70145 0.46119 0.10747 0.0
C640 C 0.71295 0.48591 0.12327 0.0
C641 C 0.69614 0.50114 0.12674 0.0
C642 C 0.77111 0.44999 0.09493 0.0
C643 C 0.75536 0.41787 0.09097 0.0
C644 C 0.75368 0.46396 0.10079 0.0
C645 C 0.72017 0.44609 0.10283 0.0
C646 C 0.70458 0.41387 0.09956 0.0
C647 C 0.72198 0.3999 0.0937 0.0
H648 H 0.35079 0.87473 0.5042 0.0
H649 H 0.42349 0.88681 0.5532 0.0
H650 H 0.31756 0.82075 0.51436 0.0
H651 H 0.39029 0.83269 0.56323 0.0
H652 H 0.33604 0.72714 0.55986 0.0
H653 H 0.36938 0.7802 0.54762 0.0
H654 H 0.28648 0.79045 0.54642 0.0
H655 H 0.25299 0.73726 0.55838 0.0
C656 C 0.3596 0.86595 0.51727 0.0
C657 C 0.38977 0.8852 0.52797 0.0
C658 C 0.34055 0.83497 0.52306 0.0
C659 C 0.35123 0.82241 0.53963 0.0
C660 C 0.38154 0.84154 0.55017 0.0
C661 C 0.40058 0.87257 0.54442 0.0
C662 C 0.32485 0.74062 0.55685 0.0
C663 C 0.29182 0.72794 0.56017 0.0
C664 C 0.34403 0.77112 0.54998 0.0
C665 C 0.33064 0.78962 0.54616 0.0
C666 C 0.2975 0.77674 0.54902 0.0
C667 C 0.27832 0.74627 0.55597 0.0
H668 H 0.55569 0.40544 0.70017 0.0
H669 H 0.61836 0.41304 0.64631 0.0
H670 H 0.55514 0.3598 0.71348 0.0
H671 H 0.61836 0.36759 0.6601 0.0
H672 H 0.63688 0.30856 0.7127 0.0
H673 H 0.6374 0.3523 0.69515 0.0
H674 H 0.53417 0.30522 0.6991 0.0
H675 H 0.53352 0.26153 0.71669 0.0
C676 C 0.5692 0.39728 0.69108 0.0
C677 C 0.58686 0.41277 0.67206 0.0
C678 C 0.56887 0.37113 0.69871 0.0
C679 C 0.58642 0.36 0.68766 0.0
C680 C 0.60469 0.37578 0.66896 0.0
C681 C 0.60481 0.40187 0.66116 0.0
C682 C 0.61425 0.30738 0.70957 0.0
C683 C 0.58518 0.28173 0.7163 0.0
C684 C 0.61457 0.33236 0.69944 0.0
C685 C 0.58587 0.33225 0.69603 0.0
C686 C 0.55669 0.30607 0.70187 0.0
C687 C 0.55633 0.28099 0.71181 0.0
H688 H 0.19766 0.44958 0.84279 0.0
H689 H 0.18076 0.48096 0.9066 0.0
H690 H 0.25301 0.4692 0.8545 0.0
H691 H 0.23656 0.50073 0.91844 0.0
H692 H 0.34269 0.57935 0.9034 0.0
H693 H 0.28501 0.54537 0.90506 0.0
H694 H 0.29321 0.46916 0.87945 0.0
H695 H 0.35117 0.50345 0.87725 0.0
C696 C 0.2055 0.4598 0.85963 0.0
C697 C 0.18497 0.46411 0.87364 0.0
C698 C 0.23729 0.47099 0.86642 0.0
C699 C 0.24928 0.48675 0.88736 0.0
C700 C 0.22812 0.48908 0.90207 0.0
C701 C 0.19625 0.47787 0.89526 0.0
C702 C 0.33238 0.55519 0.89863 0.0
C703 C 0.35147 0.54435 0.88956 0.0
C704 C 0.29922 0.53558 0.89978 0.0
C705 C 0.28446 0.50469 0.89196 0.0
C706 C 0.30389 0.49304 0.88516 0.0
C707 C 0.33712 0.51269 0.88399 0.0
H708 H 0.54284 0.12836 0.06266 0.0
H709 H 0.59866 0.11393 0.01318 0.0
H710 H 0.59213 0.17352 0.07825 0.0
H711 H 0.64741 0.15841 0.02869 0.0
H712 H 0.73326 0.22084 0.06987 0.0
H713 H 0.68146 0.17371 0.06323 0.0
H714 H 0.63424 0.22633 0.06682 0.0
H715 H 0.68597 0.2735 0.0739 0.0
C716 C 0.56555 0.13494 0.05504 0.0
C717 C 0.56694 0.11742 0.03685 0.0
C718 C 0.59372 0.16063 0.06403 0.0
C719 C 0.62371 0.1691 0.05501 0.0
C720 C 0.62484 0.15194 0.0365 0.0
C721 C 0.59685 0.1265 0.02753 0.0
C722 C 0.71182 0.22233 0.06981 0.0
C723 C 0.71391 0.25109 0.07195 0.0
C724 C 0.68214 0.19533 0.06585 0.0
C725 C 0.6539 0.19646 0.06391 0.0
C726 C 0.65559 0.22472 0.06815 0.0
C727 C 0.68531 0.25179 0.07218 0.0
H728 H 0.54544 0.66833 0.21206 0.0
H729 H 0.58551 0.7286 0.15549 0.0
H730 H 0.53987 0.70781 0.23217 0.0
H731 H 0.57924 0.76784 0.17525 0.0
H732 H 0.5792 0.84063 0.21825 0.0
H733 H 0.59586 0.80453 0.2065 0.0
H734 H 0.50564 0.72824 0.22858 0.0
H735 H 0.48955 0.76409 0.24094 0.0
C736 C 0.5529 0.69002 0.20391 0.0
C737 C 0.56552 0.69531 0.18213 0.0
C738 C 0.54981 0.71266 0.21543 0.0
C739 C 0.55899 0.74098 0.20532 0.0
C740 C 0.57244 0.74654 0.18373 0.0
C741 C 0.5758 0.72398 0.17231 0.0
C742 C 0.56332 0.81622 0.22116 0.0
C743 C 0.53282 0.80523 0.23021 0.0
C744 C 0.57274 0.79551 0.21421 0.0
C745 C 0.55185 0.76344 0.21619 0.0
C746 C 0.52245 0.75275 0.22686 0.0
C747 C 0.51311 0.77338 0.23385 0.0
H748 H 0.89587 0.44487 0.37614 0.0
H749 H 0.91053 0.50715 0.32209 0.0
H750 H 0.84466 0.44123 0.38432 0.0
H751 H 0.86015 0.50381 0.33036 0.0
H752 H 0.78693 0.51804 0.36203 0.0
H753 H 0.83829 0.52072 0.36103 0.0
H754 H 0.78999 0.42145 0.36593 0.0
H755 H 0.73834 0.41865 0.36727 0.0
C756 C 0.88813 0.45764 0.36598 0.0
C757 C 0.90747 0.47667 0.3487 0.0
C758 C 0.85894 0.45564 0.37071 0.0
C759 C 0.84874 0.47272 0.35827 0.0
C760 C 0.86778 0.49109 0.34069 0.0
C761 C 0.89668 0.49297 0.33593 0.0
C762 C 0.78719 0.49677 0.36326 0.0
C763 C 0.75843 0.46807 0.36432 0.0
C764 C 0.81664 0.49832 0.3626 0.0
C765 C 0.81807 0.47123 0.36292 0.0
C766 C 0.78961 0.44271 0.36564 0.0
C767 C 0.76002 0.44114 0.36635 0.0
H768 H 0.13789 0.53281 0.41386 0.0
H769 H 0.05695 0.52669 0.44781 0.0
H770 H 0.17005 0.55152 0.44909 0.0
H771 H 0.0889 0.5445 0.48343 0.0
H772 H 0.14769 0.53091 0.54299 0.0
H773 H 0.11567 0.51805 0.50794 0.0
H774 H 0.19073 0.60098 0.47815 0.0
H775 H 0.2227 0.61447 0.51362 0.0
C776 C 0.12704 0.53544 0.42893 0.0
C777 C 0.09496 0.52814 0.42829 0.0
C778 C 0.14546 0.54632 0.44898 0.0
C779 C 0.1319 0.54945 0.46888 0.0
C780 C 0.09981 0.54223 0.46826 0.0
C781 C 0.08159 0.53205 0.448 0.0
C782 C 0.15738 0.5465 0.52901 0.0
C783 C 0.18781 0.57362 0.53099 0.0
C784 C 0.13892 0.53922 0.50905 0.0
C785 C 0.15075 0.55857 0.49045 0.0
C786 C 0.18114 0.58573 0.49233 0.0
C787 C 0.19936 0.59343 0.51256 0.0
H788 H 0.55351 0.07426 0.60217 0.0
H789 H 0.45818 0.0485 0.62326 0.0
H790 H 0.57539 0.09912 0.63894 0.0
H791 H 0.48076 0.07503 0.65973 0.0
H792 H 0.5464 0.16545 0.70467 0.0
H793 H 0.52118 0.13409 0.67025 0.0
H794 H 0.57054 0.08466 0.68184 0.0
H795 H 0.59546 0.11563 0.7165 0.0
C796 C 0.53702 0.07325 0.61471 0.0
C797 C 0.50392 0.05918 0.6096 0.0
C798 C 0.54972 0.08778 0.63576 0.0
C799 C 0.52978 0.0891 0.65206 0.0
C800 C 0.49667 0.07456 0.6473 0.0
C801 C 0.48381 0.0595 0.62637 0.0
C802 C 0.55184 0.14787 0.69991 0.0
C803 C 0.573 0.14308 0.71327 0.0
C804 C 0.5372 0.12978 0.68033 0.0
C805 C 0.54386 0.10694 0.6735 0.0
C806 C 0.56506 0.10217 0.68677 0.0
C807 C 0.57924 0.11986 0.70659 0.0
H808 H 0.57737 0.60583 0.73375 0.0
H809 H 0.51237 0.62895 0.70162 0.0
H810 H 0.56603 0.61995 0.77072 0.0
H811 H 0.50112 0.64324 0.73866 0.0
H812 H 0.48922 0.59746 0.82745 0.0
H813 H 0.51316 0.59352 0.79258 0.0
H814 H 0.52933 0.6823 0.77275 0.0
H815 H 0.50565 0.68648 0.80788 0.0
C816 C 0.5612 0.6146 0.73459 0.0
C817 C 0.54577 0.61644 0.71489 0.0
C818 C 0.55461 0.62248 0.75571 0.0
C819 C 0.5328 0.63273 0.75748 0.0
C820 C 0.51832 0.63573 0.73769 0.0
C821 C 0.52454 0.62738 0.71658 0.0
C822 C 0.49846 0.61642 0.81591 0.0
C823 C 0.49536 0.64216 0.82032 0.0
C824 C 0.51229 0.61423 0.79599 0.0
C825 C 0.52282 0.63751 0.77994 0.0
C826 C 0.52116 0.66396 0.78481 0.0
C827 C 0.50784 0.66642 0.80497 0.0
H828 H 0.95157 0.37483 0.92416 0.0
H829 H 0.90205 0.42098 0.90235 0.0
H830 H 0.92969 0.36959 0.96184 0.0
H831 H 0.88025 0.41581 0.94001 0.0
H832 H 0.86748 0.42641 0.01373 0.0
H833 H 0.8976 0.43515 0.97922 0.0
H834 H 0.87737 0.3412 0.97994 0.0
H835 H 0.84767 0.33256 0.01453 0.0
C836 C 0.93562 0.38344 0.92733 0.0
C837 C 0.92824 0.39805 0.91024 0.0
C838 C 0.9233 0.38064 0.94895 0.0
C839 C 0.90344 0.39248 0.95395 0.0
C840 C 0.89601 0.407 0.93682 0.0
C841 C 0.90829 0.40977 0.91521 0.0
C842 C 0.87009 0.40785 0.00683 0.0
C843 C 0.85493 0.37871 0.01677 0.0
C844 C 0.88708 0.41276 0.98693 0.0
C845 C 0.88936 0.38869 0.97664 0.0
C846 C 0.87611 0.36024 0.98747 0.0
C847 C 0.85905 0.35529 0.00731 0.0
H848 H 0.43005 0.98543 0.11996 0.0
H849 H 0.52135 0.99313 0.10779 0.0
H850 H 0.43299 0.97266 0.15886 0.0
H851 H 0.52238 0.97664 0.14565 0.0
H852 H 0.51697 0.93297 0.20861 0.0
H853 H 0.52388 0.97402 0.18389 0.0
H854 H 0.42074 0.92651 0.17299 0.0
H855 H 0.41415 0.88737 0.19881 0.0
C856 C 0.45107 0.98494 0.12559 0.0
C857 C 0.47481 0.98903 0.11034 0.0
C858 C 0.45249 0.97704 0.14793 0.0
C859 C 0.47706 0.97198 0.1553 0.0
C860 C 0.50274 0.97982 0.14081 0.0
C861 C 0.50183 0.98869 0.11873 0.0
C862 C 0.49584 0.93194 0.20139 0.0
C863 C 0.46508 0.90661 0.20516 0.0
C864 C 0.49975 0.95536 0.18706 0.0
C865 C 0.47301 0.95332 0.17568 0.0
C866 C 0.4421 0.92938 0.18133 0.0
C867 C 0.43822 0.90651 0.19609 0.0
H868 H 0.53391 0.50347 0.23485 0.0
H869 H 0.59982 0.59074 0.26895 0.0
H870 H 0.54282 0.47616 0.26463 0.0
H871 H 0.60962 0.56299 0.29843 0.0
H872 H 0.65889 0.50448 0.31058 0.0
H873 H 0.63904 0.53369 0.29144 0.0
H874 H 0.54179 0.46394 0.30672 0.0
H875 H 0.56179 0.43467 0.3266 0.0
C876 C 0.54935 0.51691 0.24909 0.0
C877 C 0.56654 0.5495 0.24923 0.0
C878 C 0.55455 0.50111 0.26617 0.0
C879 C 0.57731 0.5175 0.28357 0.0
C880 C 0.5923 0.54986 0.28493 0.0
C881 C 0.58675 0.56571 0.26801 0.0
C882 C 0.63335 0.4956 0.31043 0.0
C883 C 0.61198 0.46733 0.32033 0.0
C884 C 0.62198 0.51248 0.29951 0.0
C885 C 0.58893 0.50129 0.29789 0.0
C886 C 0.56742 0.47314 0.30788 0.0
C887 C 0.57888 0.45639 0.31916 0.0
H888 H 0.46078 0.97219 0.38206 0.0
H889 H 0.4628 0.90006 0.419 0.0
H890 H 0.47042 0.95241 0.34697 0.0
H891 H 0.47215 0.87996 0.38364 0.0
H892 H 0.4497 0.84008 0.307 0.0
H893 H 0.44096 0.85643 0.34404 0.0
H894 H 0.51979 0.94907 0.33367 0.0
H895 H 0.52895 0.9329 0.29687 0.0
C896 C 0.46271 0.95175 0.38256 0.0
C897 C 0.46079 0.93743 0.40313 0.0
C898 C 0.46857 0.94067 0.36257 0.0
C899 C 0.47223 0.91484 0.36271 0.0
C900 C 0.46936 0.8999 0.38315 0.0
C901 C 0.46405 0.91134 0.40329 0.0
C902 C 0.46549 0.86382 0.31277 0.0
C903 C 0.48993 0.88523 0.29893 0.0
C904 C 0.46049 0.87311 0.33396 0.0
C905 C 0.47949 0.90404 0.3415 0.0
C906 C 0.50461 0.92515 0.32807 0.0
C907 C 0.50995 0.9158 0.30709 0.0
H908 H 0.61718 0.57223 0.50028 0.0
H909 H 0.56477 0.47499 0.51546 0.0
H910 H 0.63792 0.56096 0.46677 0.0
H911 H 0.58275 0.46338 0.48082 0.0
H912 H 0.64485 0.45269 0.43011 0.0
H913 H 0.62641 0.46538 0.46443 0.0
H914 H 0.62687 0.54094 0.43042 0.0
H915 H 0.64737 0.52943 0.39685 0.0
C916 C 0.60969 0.54839 0.49634 0.0
C917 C 0.58921 0.52459 0.51068 0.0
C918 C 0.62127 0.54182 0.47687 0.0
C919 C 0.61217 0.51118 0.47093 0.0
C920 C 0.59091 0.48732 0.48495 0.0
C921 C 0.5799 0.49395 0.50465 0.0
C922 C 0.64126 0.47218 0.43014 0.0
C923 C 0.64773 0.49019 0.4109 0.0
C924 C 0.63035 0.47931 0.44973 0.0
C925 C 0.62485 0.50415 0.45031 0.0
C926 C 0.63138 0.52208 0.43093 0.0
C927 C 0.64302 0.5154 0.41157 0.0
H928 H 0.10102 0.47178 0.71 0.0
H929 H 0.04887 0.51991 0.70858 0.0
H930 H 0.13212 0.50118 0.67828 0.0
H931 H 0.08062 0.54988 0.67667 0.0
H932 H 0.17073 0.54191 0.61242 0.0
H933 H 0.12869 0.50933 0.63816 0.0
H934 H 0.1373 0.59064 0.67062 0.0
H935 H 0.17947 0.62335 0.64449 0.0
C936 C 0.09555 0.48806 0.70254 0.0
C937 C 0.07221 0.49326 0.71177 0.0
C938 C 0.11352 0.50504 0.68433 0.0
C939 C 0.10878 0.52781 0.67486 0.0
C940 C 0.08499 0.53266 0.68372 0.0
C941 C 0.06682 0.51549 0.70197 0.0
C942 C 0.16366 0.55287 0.62498 0.0
C943 C 0.17903 0.58519 0.62689 0.0
C944 C 0.13944 0.53418 0.63969 0.0
C945 C 0.13014 0.54741 0.65676 0.0
C946 C 0.14388 0.57971 0.65762 0.0
C947 C 0.16806 0.59845 0.64272 0.0
H948 H 0.50994 0.13373 0.92415 0.0
H949 H 0.45711 0.04703 0.88665 0.0
H950 H 0.52825 0.16127 0.88847 0.0
H951 H 0.47616 0.07439 0.85103 0.0
H952 H 0.56914 0.13943 0.80624 0.0
H953 H 0.53971 0.10887 0.83859 0.0
H954 H 0.49997 0.16721 0.8489 0.0
H955 H 0.5288 0.19743 0.81614 0.0
C956 C 0.50191 0.12078 0.90822 0.0
C957 C 0.48205 0.08851 0.90788 0.0
C958 C 0.51225 0.13639 0.88793 0.0
C959 C 0.50344 0.1198 0.86717 0.0
C960 C 0.48308 0.08755 0.86688 0.0
C961 C 0.47217 0.07203 0.88712 0.0
C962 C 0.55378 0.14544 0.81519 0.0
C963 C 0.55135 0.17084 0.80882 0.0
C964 C 0.53685 0.12789 0.83357 0.0
C965 C 0.51781 0.13592 0.84613 0.0
C966 C 0.5146 0.16073 0.8394 0.0
C967 C 0.53092 0.17782 0.82066 0.0
H968 H 0.59614 0.63579 0.02226 0.0
H969 H 0.51552 0.64015 0.04742 0.0
H970 H 0.5803 0.63927 0.98366 0.0
H971 H 0.49899 0.64249 0.00867 0.0
H972 H 0.48796 0.66501 0.93632 0.0
H973 H 0.51249 0.67286 0.97406 0.0
H974 H 0.53581 0.6028 0.95887 0.0
H975 H 0.51186 0.59524 0.92119 0.0
C976 C 0.57539 0.63812 0.0196 0.0
C977 C 0.55704 0.63763 0.03792 0.0
C978 C 0.56609 0.63971 0.99744 0.0
C979 C 0.53822 0.64084 0.99308 0.0
C980 C 0.52071 0.64185 0.01145 0.0
C981 C 0.53 0.64021 0.03364 0.0
C982 C 0.4987 0.65157 0.94092 0.0
C983 C 0.49775 0.62935 0.92573 0.0
C984 C 0.51259 0.65596 0.9626 0.0
C985 C 0.52601 0.63841 0.96948 0.0
C986 C 0.52604 0.61699 0.95402 0.0
C987 C 0.51207 0.6125 0.93243 0.0
H988 H 0.94409 0.39246 0.22591 0.0
H989 H 0.91941 0.46335 0.22351 0.0
H990 H 0.91181 0.36821 0.19187 0.0
H991 H 0.8894 0.44058 0.18828 0.0
H992 H 0.81675 0.38002 0.13355 0.0
H993 H 0.84361 0.4001 0.17029 0.0
H994 H 0.91329 0.37464 0.15306 0.0
H995 H 0.88541 0.3532 0.11694 0.0
C996 C 0.93162 0.40284 0.21829 0.0
C997 C 0.93454 0.43002 0.22765 0.0
C998 C 0.91352 0.38918 0.19838 0.0
C999 C 0.8982 0.40253 0.18696 0.0
C1000 C 0.90054 0.42934 0.19657 0.0
C1001 C 0.91825 0.44275 0.2167 0.0
C1002 C 0.83773 0.37859 0.13769 0.0
C1003 C 0.84888 0.36493 0.12231 0.0
C1004 C 0.85331 0.39031 0.15875 0.0
C1005 C 0.88077 0.38911 0.16483 0.0
C1006 C 0.89187 0.37545 0.14933 0.0
C1007 C 0.87599 0.3633 0.12846 0.0
loop_
_geom_bond_atom_site_label_1
_geom_bond_atom_site_label_2
_geom_bond_distance
_geom_bond_site_symmetry_2
_ccdc_geom_bond_type
H0 O26 0.856 . S
H1 O29 0.854 . S
H2 C37 0.930 1_455 S
H3 C38 0.930 . S
H4 C40 0.930 . S
H5 C41 0.930 . S
H6 C43 0.931 . S
H7 C44 0.930 . S
H8 C46 0.930 . S
H9 C47 0.929 . S
H10 C49 0.930 . S
H11 C50 0.931 . S
H12 C52 0.930 . S
H13 C53 0.929 . S
H14 C55 0.931 . S
H15 C56 0.930 . S
H16 C58 0.930 . S
H17 C59 0.932 . S
H18 C61 0.930 . S
H19 C62 0.929 . S
H20 C64 0.931 . S
H21 C65 0.930 . S
H22 C67 0.929 . S
H23 C68 0.931 . S
H24 C70 0.930 . S
H25 C71 0.929 . S
O26 H0 0.856 . S
O26 C72 1.300 . S
O27 C72 1.209 . S
O28 C73 1.199 . S
O29 H1 0.854 . S
O29 C73 1.297 . S
C30 C31 1.404 . S
C30 C35 1.397 . S
C30 C36 1.518 . S
C31 C30 1.404 . S
C31 C32 1.396 . S
C31 C42 1.492 . S
C32 C31 1.396 . S
C32 C33 1.397 . S
C32 C48 1.509 . S
C33 C32 1.397 . S
C33 C34 1.412 . S
C33 C54 1.485 . S
C34 C33 1.412 . S
C34 C35 1.388 . S
C34 C60 1.490 . S
C35 C30 1.397 . S
C35 C34 1.388 . S
C35 C66 1.519 1_455 S
C36 C30 1.518 . S
C36 C37 1.377 1_455 S
C36 C41 1.350 1_455 S
C37 H2 0.930 1_655 S
C37 C36 1.377 1_655 S
C37 C38 1.372 . S
C38 H3 0.930 . S
C38 C37 1.372 . S
C38 C39 1.383 . S
C39 C38 1.383 . S
C39 C40 1.395 . S
C40 H4 0.930 . S
C40 C39 1.395 . S
C40 C41 1.362 . S
C41 H5 0.930 . S
C41 C36 1.350 1_655 S
C41 C40 1.362 . S
C42 C31 1.492 . S
C42 C43 1.377 . S
C42 C47 1.397 . S
C43 H6 0.931 . S
C43 C42 1.377 . S
C43 C44 1.376 . S
C44 H7 0.930 . S
C44 C43 1.376 . S
C44 C45 1.376 . S
C45 C44 1.376 . S
C45 C46 1.378 . S
C45 C72 1.486 . S
C46 H8 0.930 . S
C46 C45 1.378 . S
C46 C47 1.376 . S
C47 H9 0.929 . S
C47 C42 1.397 . S
C47 C46 1.376 . S
C48 C32 1.509 . S
C48 C49 1.391 . S
C48 C53 1.386 . S
C49 H10 0.930 . S
C49 C48 1.391 . S
C49 C50 1.375 . S
C50 H11 0.931 . S
C50 C49 1.375 . S
C50 C51 1.375 . S
C51 C50 1.375 . S
C51 C52 1.361 . S
C52 H12 0.930 . S
C52 C51 1.361 . S
C52 C53 1.399 . S
C53 H13 0.929 . S
C53 C48 1.386 . S
C53 C52 1.399 . S
C54 C33 1.485 . S
C54 C55 1.394 . S
C54 C59 1.360 . S
C55 H14 0.931 . S
C55 C54 1.394 . S
C55 C56 1.372 . S
C56 H15 0.930 . S
C56 C55 1.372 . S
C56 C57 1.397 . S
C57 C56 1.397 . S
C57 C58 1.390 . S
C57 C73 1.476 . S
C58 H16 0.930 . S
C58 C57 1.390 . S
C58 C59 1.366 . S
C59 H17 0.932 . S
C59 C54 1.360 . S
C59 C58 1.366 . S
C60 C34 1.490 . S
C60 C61 1.380 . S
C60 C65 1.386 . S
C61 H18 0.930 . S
C61 C60 1.380 . S
C61 C62 1.381 . S
C62 H19 0.929 . S
C62 C61 1.381 . S
C62 C63 1.371 . S
C63 C62 1.371 . S
C63 C64 1.380 . S
C64 H20 0.931 . S
C64 C63 1.380 . S
C64 C65 1.387 . S
C65 H21 0.930 . S
C65 C60 1.386 . S
C65 C64 1.387 . S
C66 C35 1.519 1_655 S
C66 C67 1.377 . S
C66 C71 1.361 . S
C67 H22 0.929 . S
C67 C66 1.377 . S
C67 C68 1.386 . S
C68 H23 0.931 . S
C68 C67 1.386 . S
C68 C69 1.363 . S
C69 C68 1.363 . S
C69 C70 1.385 . S
C70 H24 0.930 . S
C70 C69 1.385 . S
C70 C71 1.396 . S
C71 H25 0.929 . S
C71 C66 1.361 . S
C71 C70 1.396 . S
C72 O26 1.300 . S
C72 O27 1.209 . S
C72 C45 1.486 . S
C73 O28 1.199 . S
C73 O29 1.297 . S
C73 C57 1.476 . S
H74 O100 0.856 . S
H75 O103 0.854 . S
H76 C111 0.930 . S
H77 C112 0.930 . S
H78 C114 0.930 . S
H79 C115 0.930 . S
H80 C117 0.931 . S
H81 C118 0.930 . S
H82 C120 0.930 . S
H83 C121 0.929 . S
H84 C123 0.930 . S
H85 C124 0.931 . S
H86 C126 0.930 . S
H87 C127 0.929 . S
H88 C129 0.931 . S
H89 C130 0.930 . S
H90 C132 0.930 . S
H91 C133 0.932 . S
H92 C135 0.930 . S
H93 C136 0.929 . S
H94 C138 0.931 . S
H95 C139 0.930 . S
H96 C141 0.929 . S
H97 C142 0.931 . S
H98 C144 0.930 . S
H99 C145 0.966 . S
O100 H74 0.856 . S
O100 C146 1.300 . S
O101 C146 1.209 . S
O102 C147 1.199 . S
O103 H75 0.854 . S
O103 C147 1.297 . S
C104 C105 1.404 . S
C104 C109 1.397 . S
C104 C110 1.492 . S
C105 C104 1.404 . S
C105 C106 1.396 . S
C105 C116 1.492 . S
C106 C105 1.396 . S
C106 C107 1.397 . S
C106 C122 1.509 . S
C107 C106 1.397 . S
C107 C108 1.412 . S
C107 C128 1.485 . S
C108 C107 1.412 . S
C108 C109 1.388 . S
C108 C134 1.490 . S
C109 C104 1.397 . S
C109 C108 1.388 . S
C109 C140 1.519 1_545 S
C110 C104 1.492 . S
C110 C111 1.363 . S
C110 C115 1.390 1_545 S
C111 H76 0.930 . S
C111 C110 1.363 . S
C111 C112 1.372 1_545 S
C112 H77 0.930 . S
C112 C111 1.372 1_565 S
C112 C113 1.383 . S
C113 C112 1.383 . S
C113 C114 1.395 . S
C114 H78 0.930 . S
C114 C113 1.395 . S
C114 C115 1.362 . S
C115 H79 0.930 . S
C115 C110 1.390 1_565 S
C115 C114 1.362 . S
C116 C105 1.492 . S
C116 C117 1.377 . S
C116 C121 1.397 . S
C117 H80 0.931 . S
C117 C116 1.377 . S
C117 C118 1.376 . S
C118 H81 0.930 . S
C118 C117 1.376 . S
C118 C119 1.376 . S
C119 C118 1.376 . S
C119 C120 1.378 . S
C119 C146 1.486 . S
C120 H82 0.930 . S
C120 C119 1.378 . S
C120 C121 1.376 . S
C121 H83 0.929 . S
C121 C116 1.397 . S
C121 C120 1.376 . S
C122 C106 1.509 . S
C122 C123 1.391 . S
C122 C127 1.386 . S
C123 H84 0.930 . S
C123 C122 1.391 . S
C123 C124 1.375 . S
C124 H85 0.931 . S
C124 C123 1.375 . S
C124 C125 1.375 . S
C125 C124 1.375 . S
C125 C126 1.361 . S
C126 H86 0.930 . S
C126 C125 1.361 . S
C126 C127 1.399 . S
C127 H87 0.929 . S
C127 C122 1.386 . S
C127 C126 1.399 . S
C128 C107 1.485 . S
C128 C129 1.394 . S
C128 C133 1.360 . S
C129 H88 0.931 . S
C129 C128 1.394 . S
C129 C130 1.372 . S
C130 H89 0.930 . S
C130 C129 1.372 . S
C130 C131 1.397 . S
C131 C130 1.397 . S
C131 C132 1.390 . S
C131 C147 1.476 . S
C132 H90 0.930 . S
C132 C131 1.390 . S
C132 C133 1.366 . S
C133 H91 0.932 . S
C133 C128 1.360 . S
C133 C132 1.366 . S
C134 C108 1.490 . S
C134 C135 1.380 . S
C134 C139 1.386 . S
C135 H92 0.930 . S
C135 C134 1.380 . S
C135 C136 1.381 . S
C136 H93 0.929 . S
C136 C135 1.381 . S
C136 C137 1.371 . S
C137 C136 1.371 . S
C137 C138 1.380 . S
C138 H94 0.931 . S
C138 C137 1.380 . S
C138 C139 1.387 . S
C139 H95 0.930 . S
C139 C134 1.386 . S
C139 C138 1.387 . S
C140 C109 1.519 1_565 S
C140 C141 1.377 . S
C140 C145 1.361 . S
C141 H96 0.929 . S
C141 C140 1.377 . S
C141 C142 1.386 . S
C142 H97 0.931 . S
C142 C141 1.386 . S
C142 C143 1.363 . S
C143 C142 1.363 . S
C143 C144 1.385 . S
C144 H98 0.930 . S
C144 C143 1.385 . S
C144 C145 1.396 . S
C145 H99 0.966 . S
C145 C140 1.361 . S
C145 C144 1.396 . S
C146 O100 1.300 . S
C146 O101 1.209 . S
C146 C119 1.486 . S
C147 O102 1.199 . S
C147 O103 1.297 . S
C147 C131 1.476 . S
H148 O174 0.856 . S
H149 O177 0.854 . S
H150 C185 0.930 . S
H151 C186 0.930 . S
H152 C188 0.930 . S
H153 C189 0.930 . S
H154 C191 0.931 . S
H155 C192 0.930 . S
H156 C194 0.930 . S
H157 C195 0.929 . S
H158 C197 0.930 . S
H159 C198 0.931 . S
H160 C200 0.930 . S
H161 C201 0.929 . S
H162 C203 0.931 . S
H163 C204 0.930 . S
H164 C206 0.930 . S
H165 C207 0.932 . S
H166 C209 0.930 . S
H167 C210 0.929 . S
H168 C212 0.931 . S
H169 C213 0.930 . S
H170 C215 0.929 . S
H171 C216 0.931 . S
H172 C218 0.930 . S
H173 C219 0.929 . S
O174 H148 0.856 . S
O174 C220 1.300 . S
O175 C220 1.209 . S
O176 C221 1.199 . S
O177 H149 0.854 . S
O177 C221 1.297 . S
C178 C179 1.404 . S
C178 C183 1.397 . S
C178 C184 1.492 . S
C179 C178 1.404 . S
C179 C180 1.396 . S
C179 C190 1.492 . S
C180 C179 1.396 . S
C180 C181 1.397 . S
C180 C196 1.509 . S
C181 C180 1.397 . S
C181 C182 1.412 . S
C181 C202 1.485 . S
C182 C181 1.412 . S
C182 C183 1.388 . S
C182 C208 1.490 . S
C183 C178 1.397 . S
C183 C182 1.388 . S
C183 C214 1.519 . S
C184 C178 1.492 . S
C184 C185 1.363 . S
C184 C189 1.390 . S
C185 H150 0.930 . S
C185 C184 1.363 . S
C185 C186 1.372 . S
C186 H151 0.930 . S
C186 C185 1.372 . S
C186 C187 1.383 . S
C187 C186 1.383 . S
C187 C188 1.395 . S
C188 H152 0.930 . S
C188 C187 1.395 . S
C188 C189 1.362 . S
C189 H153 0.930 . S
C189 C184 1.390 . S
C189 C188 1.362 . S
C190 C179 1.492 . S
C190 C191 1.377 . S
C190 C195 1.397 . S
C191 H154 0.931 . S
C191 C190 1.377 . S
C191 C192 1.376 . S
C192 H155 0.930 . S
C192 C191 1.376 . S
C192 C193 1.376 . S
C193 C192 1.376 . S
C193 C194 1.378 . S
C193 C220 1.486 . S
C194 H156 0.930 . S
C194 C193 1.378 . S
C194 C195 1.376 . S
C195 H157 0.929 . S
C195 C190 1.397 . S
C195 C194 1.376 . S
C196 C180 1.509 . S
C196 C197 1.391 . S
C196 C201 1.386 . S
C197 H158 0.930 . S
C197 C196 1.391 . S
C197 C198 1.375 . S
C198 H159 0.931 . S
C198 C197 1.375 . S
C198 C199 1.375 . S
C199 C198 1.375 . S
C199 C200 1.361 . S
C200 H160 0.930 . S
C200 C199 1.361 . S
C200 C201 1.399 . S
C201 H161 0.929 . S
C201 C196 1.386 . S
C201 C200 1.399 . S
C202 C181 1.485 . S
C202 C203 1.394 . S
C202 C207 1.360 . S
C203 H162 0.931 . S
C203 C202 1.394 . S
C203 C204 1.372 . S
C204 H163 0.930 . S
C204 C203 1.372 . S
C204 C205 1.397 . S
C205 C204 1.397 . S
C205 C206 1.390 . S
C205 C221 1.476 . S
C206 H164 0.930 . S
C206 C205 1.390 . S
C206 C207 1.366 . S
C207 H165 0.932 . S
C207 C202 1.360 . S
C207 C206 1.366 . S
C208 C182 1.490 . S
C208 C209 1.380 . S
C208 C213 1.386 . S
C209 H166 0.930 . S
C209 C208 1.380 . S
C209 C210 1.381 . S
C210 H167 0.929 . S
C210 C209 1.381 . S
C210 C211 1.371 . S
C211 C210 1.371 . S
C211 C212 1.380 . S
C212 H168 0.931 . S
C212 C211 1.380 . S
C212 C213 1.387 . S
C213 H169 0.930 . S
C213 C208 1.386 . S
C213 C212 1.387 . S
C214 C183 1.519 . S
C214 C215 1.377 . S
C214 C219 1.361 . S
C215 H170 0.929 . S
C215 C214 1.377 . S
C215 C216 1.386 . S
C216 H171 0.931 . S
C216 C215 1.386 . S
C216 C217 1.363 . S
C217 C216 1.363 . S
C217 C218 1.385 . S
C218 H172 0.930 . S
C218 C217 1.385 . S
C218 C219 1.396 . S
C219 H173 0.929 . S
C219 C214 1.361 . S
C219 C218 1.396 . S
C220 O174 1.300 . S
C220 O175 1.209 . S
C220 C193 1.486 . S
C221 O176 1.199 . S
C221 O177 1.297 . S
C221 C205 1.476 . S
H222 O248 0.856 . S
H223 O251 0.854 . S
H224 C259 0.930 1_455 S
H225 C260 0.930 . S
H226 C262 0.930 . S
H227 C263 0.930 . S
H228 C265 0.931 . S
H229 C266 0.930 . S
H230 C268 0.930 . S
H231 C269 0.929 . S
H232 C271 0.930 . S
H233 C272 0.931 . S
H234 C274 0.930 . S
H235 C275 0.929 . S
H236 C277 0.931 . S
H237 C278 0.930 . S
H238 C280 0.930 . S
H239 C281 0.932 . S
H240 C283 0.930 . S
H241 C284 0.929 . S
H242 C286 0.931 . S
H243 C287 0.930 . S
H244 C289 0.929 . S
H245 C290 0.931 . S
H246 C292 0.930 . S
H247 C293 0.929 . S
O248 H222 0.856 . S
O248 C294 1.300 . S
O249 C294 1.209 . S
O250 C295 1.199 . S
O251 H223 0.854 . S
O251 C295 1.297 . S
C252 C253 1.404 . S
C252 C257 1.397 . S
C252 C258 1.492 1_455 S
C253 C252 1.404 . S
C253 C254 1.396 . S
C253 C264 1.492 . S
C254 C253 1.396 . S
C254 C255 1.397 . S
C254 C270 1.509 . S
C255 C254 1.397 . S
C255 C256 1.412 . S
C255 C276 1.485 . S
C256 C255 1.412 . S
C256 C257 1.388 . S
C256 C282 1.490 . S
C257 C252 1.397 . S
C257 C256 1.388 . S
C257 C288 1.519 1_455 S
C258 C252 1.492 1_655 S
C258 C259 1.363 . S
C258 C263 1.390 . S
C259 H224 0.930 1_655 S
C259 C258 1.363 . S
C259 C260 1.372 . S
C260 H225 0.930 . S
C260 C259 1.372 . S
C260 C261 1.383 . S
C261 C260 1.383 . S
C261 C262 1.395 . S
C262 H226 0.930 . S
C262 C261 1.395 . S
C262 C263 1.362 . S
C263 H227 0.930 . S
C263 C258 1.390 . S
C263 C262 1.362 . S
C264 C253 1.492 . S
C264 C265 1.377 . S
C264 C269 1.397 . S
C265 H228 0.931 . S
C265 C264 1.377 . S
C265 C266 1.376 . S
C266 H229 0.930 . S
C266 C265 1.376 . S
C266 C267 1.376 . S
C267 C266 1.376 . S
C267 C268 1.378 . S
C267 C294 1.486 . S
C268 H230 0.930 . S
C268 C267 1.378 . S
C268 C269 1.376 . S
C269 H231 0.929 . S
C269 C264 1.397 . S
C269 C268 1.376 . S
C270 C254 1.509 . S
C270 C271 1.391 . S
C270 C275 1.386 . S
C271 H232 0.930 . S
C271 C270 1.391 . S
C271 C272 1.375 . S
C272 H233 0.931 . S
C272 C271 1.375 . S
C272 C273 1.375 . S
C273 C272 1.375 . S
C273 C274 1.361 . S
C274 H234 0.930 . S
C274 C273 1.361 . S
C274 C275 1.399 . S
C275 H235 0.929 . S
C275 C270 1.386 . S
C275 C274 1.399 . S
C276 C255 1.485 . S
C276 C277 1.394 . S
C276 C281 1.360 . S
C277 H236 0.931 . S
C277 C276 1.394 . S
C277 C278 1.372 . S
C278 H237 0.930 . S
C278 C277 1.372 . S
C278 C279 1.397 . S
C279 C278 1.397 . S
C279 C280 1.390 . S
C279 C295 1.476 . S
C280 H238 0.930 . S
C280 C279 1.390 . S
C280 C281 1.366 . S
C281 H239 0.932 . S
C281 C276 1.360 . S
C281 C280 1.366 . S
C282 C256 1.490 . S
C282 C283 1.380 . S
C282 C287 1.386 . S
C283 H240 0.930 . S
C283 C282 1.380 . S
C283 C284 1.381 . S
C284 H241 0.929 . S
C284 C283 1.381 . S
C284 C285 1.371 . S
C285 C284 1.371 . S
C285 C286 1.380 . S
C286 H242 0.931 . S
C286 C285 1.380 . S
C286 C287 1.387 . S
C287 H243 0.930 . S
C287 C282 1.386 . S
C287 C286 1.387 . S
C288 C257 1.519 1_655 S
C288 C289 1.377 . S
C288 C293 1.361 . S
C289 H244 0.929 . S
C289 C288 1.377 . S
C289 C290 1.386 . S
C290 H245 0.931 . S
C290 C289 1.386 . S
C290 C291 1.363 . S
C291 C290 1.363 . S
C291 C292 1.385 . S
C292 H246 0.930 . S
C292 C291 1.385 . S
C292 C293 1.396 . S
C293 H247 0.929 . S
C293 C288 1.361 . S
C293 C292 1.396 . S
C294 O248 1.300 . S
C294 O249 1.209 . S
C294 C267 1.486 . S
C295 O250 1.199 . S
C295 O251 1.297 . S
C295 C279 1.476 . S
H296 O322 0.856 . S
H297 O325 0.854 . S
H298 C333 0.930 . S
H299 C334 0.930 . S
H300 C336 0.930 . S
H301 C337 0.930 . S
H302 C339 0.931 . S
H303 C340 0.930 . S
H304 C342 0.930 . S
H305 C343 0.929 . S
H306 C345 0.930 . S
H307 C346 0.931 . S
H308 C348 0.930 . S
H309 C349 0.929 . S
H310 C351 0.931 . S
H311 C352 0.930 . S
H312 C354 0.930 . S
H313 C355 0.932 . S
H314 C357 0.930 . S
H315 C358 0.929 1_545 S
H316 C360 0.931 . S
H317 C361 0.930 . S
H318 C363 0.934 . S
H319 C364 0.931 . S
H320 C366 0.930 . S
H321 C367 0.929 . S
O322 H296 0.856 . S
O322 C368 1.300 . S
O323 C368 1.209 . S
O324 C369 1.199 . S
O325 H297 0.854 . S
O325 C369 1.297 . S
C326 C327 1.403 . S
C326 C331 1.397 1_565 S
C326 C332 1.493 1_565 S
C327 C326 1.403 . S
C327 C328 1.396 . S
C327 C338 1.492 . S
C328 C327 1.396 . S
C328 C329 1.397 . S
C328 C344 1.509 . S
C329 C328 1.397 . S
C329 C330 1.412 1_556 S
C329 C350 1.485 1_556 S
C330 C329 1.412 1_554 S
C330 C331 1.388 1_564 S
C330 C356 1.490 . S
C331 C326 1.397 1_545 S
C331 C330 1.388 1_546 S
C331 C362 1.500 1_556 S
C332 C326 1.493 1_545 S
C332 C333 1.363 . S
C332 C337 1.390 . S
C333 H298 0.930 . S
C333 C332 1.363 . S
C333 C334 1.372 . S
C334 H299 0.930 . S
C334 C333 1.372 . S
C334 C335 1.383 . S
C335 C334 1.383 . S
C335 C336 1.395 . S
C336 H300 0.930 . S
C336 C335 1.395 . S
C336 C337 1.362 . S
C337 H301 0.930 . S
C337 C332 1.390 . S
C337 C336 1.362 . S
C338 C327 1.492 . S
C338 C339 1.377 . S
C338 C343 1.397 . S
C339 H302 0.931 . S
C339 C338 1.377 . S
C339 C340 1.376 . S
C340 H303 0.930 . S
C340 C339 1.376 . S
C340 C341 1.376 . S
C341 C340 1.376 . S
C341 C342 1.378 . S
C341 C368 1.486 . S
C342 H304 0.930 . S
C342 C341 1.378 . S
C342 C343 1.376 . S
C343 H305 0.929 . S
C343 C338 1.397 . S
C343 C342 1.376 . S
C344 C328 1.509 . S
C344 C345 1.391 . S
C344 C349 1.386 . S
C345 H306 0.930 . S
C345 C344 1.391 . S
C345 C346 1.375 . S
C346 H307 0.931 . S
C346 C345 1.375 . S
C346 C347 1.375 . S
C347 C346 1.375 . S
C347 C348 1.361 . S
C348 H308 0.930 . S
C348 C347 1.361 . S
C348 C349 1.399 . S
C349 H309 0.929 . S
C349 C344 1.386 . S
C349 C348 1.399 . S
C350 C329 1.485 1_554 S
C350 C351 1.394 . S
C350 C355 1.360 . S
C351 H310 0.931 . S
C351 C350 1.394 . S
C351 C352 1.372 . S
C352 H311 0.930 . S
C352 C351 1.372 . S
C352 C353 1.397 . S
C353 C352 1.397 . S
C353 C354 1.390 . S
C353 C369 1.476 . S
C354 H312 0.930 . S
C354 C353 1.390 . S
C354 C355 1.366 . S
C355 H313 0.932 . S
C355 C350 1.360 . S
C355 C354 1.366 . S
C356 C330 1.490 . S
C356 C357 1.380 . S
C356 C361 1.386 . S
C357 H314 0.930 . S
C357 C356 1.380 . S
C357 C358 1.381 . S
C358 H315 0.929 1_565 S
C358 C357 1.381 . S
C358 C359 1.371 . S
C359 C358 1.371 . S
C359 C360 1.380 . S
C360 H316 0.931 . S
C360 C359 1.380 . S
C360 C361 1.387 . S
C361 H317 0.930 . S
C361 C356 1.386 . S
C361 C360 1.387 . S
C362 C331 1.500 1_554 S
C362 C363 1.375 1_554 S
C362 C367 1.384 . S
C363 H318 0.934 . S
C363 C362 1.375 1_556 S
C363 C364 1.382 1_556 S
C364 H319 0.931 . S
C364 C363 1.382 1_554 S
C364 C365 1.363 . S
C365 C364 1.363 . S
C365 C366 1.385 . S
C366 H320 0.930 . S
C366 C365 1.385 . S
C366 C367 1.396 . S
C367 H321 0.929 . S
C367 C362 1.384 . S
C367 C366 1.396 . S
C368 O322 1.300 . S
C368 O323 1.209 . S
C368 C341 1.486 . S
C369 O324 1.199 . S
C369 O325 1.297 . S
C369 C353 1.476 . S
H370 O396 0.856 1_556 S
H371 O399 0.854 . S
H372 C407 0.930 . S
H373 C408 0.930 . S
H374 C410 0.930 . S
H375 C411 0.930 . S
H376 C413 0.931 . S
H377 C414 0.930 . S
H378 C416 0.930 . S
H379 C417 0.929 . S
H380 C419 0.930 . S
H381 C420 0.931 . S
H382 C422 0.930 . S
H383 C423 0.929 . S
H384 C425 0.931 . S
H385 C426 0.930 . S
H386 C428 0.930 . S
H387 C429 0.932 . S
H388 C431 0.930 . S
H389 C432 0.929 . S
H390 C434 0.931 . S
H391 C435 0.930 . S
H392 C437 0.929 . S
H393 C438 0.931 . S
H394 C440 0.930 . S
H395 C441 0.929 . S
O396 H370 0.856 1_554 S
O396 C442 1.300 . S
O397 C442 1.209 . S
O398 C443 1.199 . S
O399 H371 0.854 . S
O399 C443 1.297 . S
C400 C401 1.404 . S
C400 C405 1.397 . S
C400 C406 1.492 . S
C401 C400 1.404 . S
C401 C402 1.396 . S
C401 C412 1.492 . S
C402 C401 1.396 . S
C402 C403 1.397 . S
C402 C418 1.509 . S
C403 C402 1.397 . S
C403 C404 1.412 . S
C403 C424 1.485 . S
C404 C403 1.412 . S
C404 C405 1.388 . S
C404 C430 1.490 . S
C405 C400 1.397 . S
C405 C404 1.388 . S
C405 C436 1.519 . S
C406 C400 1.492 . S
C406 C407 1.363 . S
C406 C411 1.390 . S
C407 H372 0.930 . S
C407 C406 1.363 . S
C407 C408 1.372 . S
C408 H373 0.930 . S
C408 C407 1.372 . S
C408 C409 1.383 . S
C409 C408 1.383 . S
C409 C410 1.395 . S
C410 H374 0.930 . S
C410 C409 1.395 . S
C410 C411 1.362 . S
C411 H375 0.930 . S
C411 C406 1.390 . S
C411 C410 1.362 . S
C412 C401 1.492 . S
C412 C413 1.377 . S
C412 C417 1.397 . S
C413 H376 0.931 . S
C413 C412 1.377 . S
C413 C414 1.376 . S
C414 H377 0.930 . S
C414 C413 1.376 . S
C414 C415 1.376 . S
C415 C414 1.376 . S
C415 C416 1.378 . S
C415 C442 1.486 . S
C416 H378 0.930 . S
C416 C415 1.378 . S
C416 C417 1.376 . S
C417 H379 0.929 . S
C417 C412 1.397 . S
C417 C416 1.376 . S
C418 C402 1.509 . S
C418 C419 1.391 . S
C418 C423 1.386 . S
C419 H380 0.930 . S
C419 C418 1.391 . S
C419 C420 1.375 . S
C420 H381 0.931 . S
C420 C419 1.375 . S
C420 C421 1.375 . S
C421 C420 1.375 . S
C421 C422 1.361 . S
C422 H382 0.930 . S
C422 C421 1.361 . S
C422 C423 1.399 . S
C423 H383 0.929 . S
C423 C418 1.386 . S
C423 C422 1.399 . S
C424 C403 1.485 . S
C424 C425 1.394 . S
C424 C429 1.360 . S
C425 H384 0.931 . S
C425 C424 1.394 . S
C425 C426 1.372 . S
C426 H385 0.930 . S
C426 C425 1.372 . S
C426 C427 1.397 . S
C427 C426 1.397 . S
C427 C428 1.390 . S
C427 C443 1.476 . S
C428 H386 0.930 . S
C428 C427 1.390 . S
C428 C429 1.366 . S
C429 H387 0.932 . S
C429 C424 1.360 . S
C429 C428 1.366 . S
C430 C404 1.490 . S
C430 C431 1.380 . S
C430 C435 1.386 . S
C431 H388 0.930 . S
C431 C430 1.380 . S
C431 C432 1.381 . S
C432 H389 0.929 . S
C432 C431 1.381 . S
C432 C433 1.371 . S
C433 C432 1.371 . S
C433 C434 1.380 . S
C434 H390 0.931 . S
C434 C433 1.380 . S
C434 C435 1.387 . S
C435 H391 0.930 . S
C435 C430 1.386 . S
C435 C434 1.387 . S
C436 C405 1.519 . S
C436 C437 1.377 . S
C436 C441 1.361 . S
C437 H392 0.929 . S
C437 C436 1.377 . S
C437 C438 1.386 . S
C438 H393 0.931 . S
C438 C437 1.386 . S
C438 C439 1.363 . S
C439 C438 1.363 . S
C439 C440 1.385 . S
C440 H394 0.930 . S
C440 C439 1.385 . S
C440 C441 1.396 . S
C441 H395 0.929 . S
C441 C436 1.361 . S
C441 C440 1.396 . S
C442 O396 1.300 . S
C442 O397 1.209 . S
C442 C415 1.486 . S
C443 O398 1.199 . S
C443 O399 1.297 . S
C443 C427 1.476 . S
Mg444 O445 2.028 . S
Mg444 O451 1.986 . S
Mg444 O453 2.114 . S
Mg444 O454 2.251 . S
Mg444 O457 2.010 . S
O445 Mg444 2.028 . S
O445 C448 1.250 . S
O446 Mg447 2.028 . S
O446 C448 1.248 . S
Mg447 O446 2.028 . S
Mg447 O452 2.032 . S
Mg447 O454 2.079 . S
C448 O445 1.250 . S
C448 O446 1.248 . S
C449 O450 1.264 . S
C449 O457 1.249 . S
O450 C449 1.264 . S
O451 Mg444 1.986 . S
O451 C455 1.246 . S
O452 Mg447 2.032 . S
O452 C455 1.259 . S
O453 Mg444 2.114 . S
O453 C456 1.252 . S
O454 Mg444 2.251 . S
O454 Mg447 2.079 . S
O454 C456 1.273 . S
C455 O451 1.246 . S
C455 O452 1.259 . S
C456 O453 1.252 . S
C456 O454 1.273 . S
O457 Mg444 2.010 . S
O457 C449 1.249 . S
Mg458 O459 2.028 . S
Mg458 O465 1.986 . S
Mg458 O467 2.114 . S
Mg458 O468 2.251 . S
Mg458 O471 2.010 . S
O459 Mg458 2.028 . S
O459 C462 1.250 . S
O460 Mg461 2.028 . S
O460 C462 1.248 . S
Mg461 O460 2.028 . S
Mg461 O466 2.032 . S
Mg461 O468 2.079 . S
C462 O459 1.250 . S
C462 O460 1.248 . S
C463 O464 1.264 . S
C463 O471 1.249 . S
O464 C463 1.264 . S
O465 Mg458 1.986 . S
O465 C469 1.246 . S
O466 Mg461 2.032 . S
O466 C469 1.259 . S
O467 Mg458 2.114 . S
O467 C470 1.252 . S
O468 Mg458 2.251 . S
O468 Mg461 2.079 . S
O468 C470 1.273 . S
C469 O465 1.246 . S
C469 O466 1.259 . S
C470 O467 1.252 . S
C470 O468 1.273 . S
O471 Mg458 2.010 . S
O471 C463 1.249 . S
Mg472 O473 2.028 . S
Mg472 O479 1.986 . S
Mg472 O481 2.114 . S
Mg472 O482 2.251 . S
Mg472 O485 2.010 . S
O473 Mg472 2.028 . S
O473 C476 1.250 . S
O474 Mg475 2.028 . S
O474 C476 1.248 . S
Mg475 O474 2.028 . S
Mg475 O480 2.032 . S
Mg475 O482 2.079 . S
C476 O473 1.250 . S
C476 O474 1.248 . S
C477 O478 1.264 . S
C477 O485 1.249 . S
O478 C477 1.264 . S
O479 Mg472 1.986 . S
O479 C483 1.246 . S
O480 Mg475 2.032 . S
O480 C483 1.259 . S
O481 Mg472 2.114 . S
O481 C484 1.252 . S
O482 Mg472 2.251 . S
O482 Mg475 2.079 . S
O482 C484 1.273 . S
C483 O479 1.246 . S
C483 O480 1.259 . S
C484 O481 1.252 . S
C484 O482 1.273 . S
O485 Mg472 2.010 . S
O485 C477 1.249 . S
Mg486 O487 2.028 . S
Mg486 O493 1.986 . S
Mg486 O495 2.114 . S
Mg486 O496 2.251 . S
Mg486 O499 2.010 . S
O487 Mg486 2.028 . S
O487 C490 1.250 . S
O488 Mg489 2.028 . S
O488 C490 1.248 . S
Mg489 O488 2.028 . S
Mg489 O494 2.032 . S
Mg489 O496 2.079 . S
C490 O487 1.250 . S
C490 O488 1.248 . S
C491 O492 1.264 . S
C491 O499 1.249 . S
O492 C491 1.264 . S
O493 Mg486 1.986 . S
O493 C497 1.246 . S
O494 Mg489 2.032 . S
O494 C497 1.259 . S
O495 Mg486 2.114 . S
O495 C498 1.252 . S
O496 Mg486 2.251 . S
O496 Mg489 2.079 . S
O496 C498 1.273 . S
C497 O493 1.246 . S
C497 O494 1.259 . S
C498 O495 1.252 . S
C498 O496 1.273 . S
O499 Mg486 2.010 . S
O499 C491 1.249 . S
Mg500 O501 2.028 . S
Mg500 O507 1.986 . S
Mg500 O509 2.114 . S
Mg500 O510 2.251 . S
Mg500 O513 2.010 . S
O501 Mg500 2.028 . S
O501 C504 1.250 . S
O502 Mg503 2.028 . S
O502 C504 1.248 . S
Mg503 O502 2.028 . S
Mg503 O508 2.032 . S
Mg503 O510 2.079 . S
C504 O501 1.250 . S
C504 O502 1.248 . S
C505 O506 1.264 . S
C505 O513 1.249 . S
O506 C505 1.264 . S
O507 Mg500 1.986 . S
O507 C511 1.246 . S
O508 Mg503 2.032 . S
O508 C511 1.259 . S
O509 Mg500 2.114 . S
O509 C512 1.252 . S
O510 Mg500 2.251 . S
O510 Mg503 2.079 . S
O510 C512 1.273 . S
C511 O507 1.246 . S
C511 O508 1.259 . S
C512 O509 1.252 . S
C512 O510 1.273 . S
O513 Mg500 2.010 . S
O513 C505 1.249 . S
Mg514 O515 2.028 . S
Mg514 O521 1.986 . S
Mg514 O523 2.114 . S
Mg514 O524 2.251 . S
Mg514 O527 2.010 . S
O515 Mg514 2.028 . S
O515 C518 1.250 . S
O516 Mg517 2.028 . S
O516 C518 1.248 . S
Mg517 O516 2.028 . S
Mg517 O522 2.032 . S
Mg517 O524 2.079 . S
C518 O515 1.250 . S
C518 O516 1.248 . S
C519 O520 1.264 . S
C519 O527 1.249 . S
O520 C519 1.264 . S
O521 Mg514 1.986 . S
O521 C525 1.246 . S
O522 Mg517 2.032 . S
O522 C525 1.259 . S
O523 Mg514 2.114 . S
O523 C526 1.252 . S
O524 Mg514 2.251 . S
O524 Mg517 2.079 . S
O524 C526 1.273 . S
C525 O521 1.246 . S
C525 O522 1.259 . S
C526 O523 1.252 . S
C526 O524 1.273 . S
O527 Mg514 2.010 . S
O527 C519 1.249 . S
H528 C536 0.950 . S
H529 C541 0.950 . S
H530 C538 0.950 . S
H531 C540 0.950 . S
H532 C542 0.950 . S
H533 C544 0.950 . S
H534 C546 0.950 . S
H535 C547 0.950 . S
C536 H528 0.950 . S
C536 C537 1.386 . S
C536 C538 1.391 . S
C537 C536 1.386 . S
C537 C541 1.393 . S
C538 H530 0.950 . S
C538 C536 1.391 . S
C538 C539 1.400 . S
C539 C538 1.400 . S
C539 C540 1.398 . S
C539 C545 1.491 . S
C540 H531 0.950 . S
C540 C539 1.398 . S
C540 C541 1.391 . S
C541 H529 0.950 . S
C541 C537 1.393 . S
C541 C540 1.391 . S
C542 H532 0.950 . S
C542 C543 1.386 . S
C542 C544 1.391 . S
C543 C542 1.386 . S
C543 C547 1.393 . S
C544 H533 0.950 . S
C544 C542 1.391 . S
C544 C545 1.400 . S
C545 C539 1.491 . S
C545 C544 1.400 . S
C545 C546 1.398 . S
C546 H534 0.950 . S
C546 C545 1.398 . S
C546 C547 1.391 . S
C547 H535 0.950 . S
C547 C543 1.393 . S
C547 C546 1.391 . S
H548 C556 0.950 . S
H549 C561 0.950 . S
H550 C558 0.950 . S
H551 C560 0.950 . S
H552 C562 0.950 . S
H553 C564 0.950 . S
H554 C566 0.950 . S
H555 C567 0.950 . S
C556 H548 0.950 . S
C556 C557 1.386 . S
C556 C558 1.391 . S
C557 C556 1.386 . S
C557 C561 1.393 . S
C558 H550 0.950 . S
C558 C556 1.391 . S
C558 C559 1.400 . S
C559 C558 1.400 . S
C559 C560 1.398 . S
C559 C565 1.491 . S
C560 H551 0.950 . S
C560 C559 1.398 . S
C560 C561 1.391 . S
C561 H549 0.950 . S
C561 C557 1.393 . S
C561 C560 1.391 . S
C562 H552 0.950 . S
C562 C563 1.386 . S
C562 C564 1.391 . S
C563 C562 1.386 . S
C563 C567 1.393 . S
C564 H553 0.950 . S
C564 C562 1.391 . S
C564 C565 1.400 . S
C565 C559 1.491 . S
C565 C564 1.400 . S
C565 C566 1.398 . S
C566 H554 0.950 . S
C566 C565 1.398 . S
C566 C567 1.391 . S
C567 H555 0.950 . S
C567 C563 1.393 . S
C567 C566 1.391 . S
H568 C576 0.950 . S
H569 C581 0.950 . S
H570 C578 0.950 . S
H571 C580 0.950 . S
H572 C582 0.950 . S
H573 C584 0.950 . S
H574 C586 0.950 . S
H575 C587 0.950 . S
C576 H568 0.950 . S
C576 C577 1.386 . S
C576 C578 1.391 . S
C577 C576 1.386 . S
C577 C581 1.393 . S
C578 H570 0.950 . S
C578 C576 1.391 . S
C578 C579 1.400 . S
C579 C578 1.400 . S
C579 C580 1.398 . S
C579 C585 1.491 . S
C580 H571 0.950 . S
C580 C579 1.398 . S
C580 C581 1.391 . S
C581 H569 0.950 . S
C581 C577 1.393 . S
C581 C580 1.391 . S
C582 H572 0.950 . S
C582 C583 1.386 . S
C582 C584 1.391 . S
C583 C582 1.386 . S
C583 C587 1.393 . S
C584 H573 0.950 . S
C584 C582 1.391 . S
C584 C585 1.400 . S
C585 C579 1.491 . S
C585 C584 1.400 . S
C585 C586 1.398 . S
C586 H574 0.950 . S
C586 C585 1.398 . S
C586 C587 1.391 . S
C587 H575 0.950 . S
C587 C583 1.393 . S
C587 C586 1.391 . S
H588 C596 0.950 . S
H589 C601 0.950 . S
H590 C598 0.950 . S
H591 C600 0.950 . S
H592 C602 0.950 . S
H593 C604 0.950 . S
H594 C606 0.950 . S
H595 C607 0.950 . S
C596 H588 0.950 . S
C596 C597 1.386 . S
C596 C598 1.391 . S
C597 C596 1.386 . S
C597 C601 1.393 . S
C598 H590 0.950 . S
C598 C596 1.391 . S
C598 C599 1.400 . S
C599 C598 1.400 . S
C599 C600 1.398 . S
C599 C605 1.491 . S
C600 H591 0.950 . S
C600 C599 1.398 . S
C600 C601 1.391 . S
C601 H589 0.950 . S
C601 C597 1.393 . S
C601 C600 1.391 . S
C602 H592 0.950 . S
C602 C603 1.386 . S
C602 C604 1.391 . S
C603 C602 1.386 . S
C603 C607 1.393 . S
C604 H593 0.950 . S
C604 C602 1.391 . S
C604 C605 1.400 . S
C605 C599 1.491 . S
C605 C604 1.400 . S
C605 C606 1.398 . S
C606 H594 0.950 . S
C606 C605 1.398 . S
C606 C607 1.391 . S
C607 H595 0.950 . S
C607 C603 1.393 . S
C607 C606 1.391 . S
H608 C616 0.950 . S
H609 C621 0.950 . S
H610 C618 0.950 . S
H611 C620 0.950 . S
H612 C622 0.950 . S
H613 C624 0.950 . S
H614 C626 0.950 . S
H615 C627 0.950 . S
C616 H608 0.950 . S
C616 C617 1.386 . S
C616 C618 1.391 . S
C617 C616 1.386 . S
C617 C621 1.393 . S
C618 H610 0.950 . S
C618 C616 1.391 . S
C618 C619 1.400 . S
C619 C618 1.400 . S
C619 C620 1.398 . S
C619 C625 1.491 . S
C620 H611 0.950 . S
C620 C619 1.398 . S
C620 C621 1.391 . S
C621 H609 0.950 . S
C621 C617 1.393 . S
C621 C620 1.391 . S
C622 H612 0.950 . S
C622 C623 1.386 . S
C622 C624 1.391 . S
C623 C622 1.386 . S
C623 C627 1.393 . S
C624 H613 0.950 . S
C624 C622 1.391 . S
C624 C625 1.400 . S
C625 C619 1.491 . S
C625 C624 1.400 . S
C625 C626 1.398 . S
C626 H614 0.950 . S
C626 C625 1.398 . S
C626 C627 1.391 . S
C627 H615 0.950 . S
C627 C623 1.393 . S
C627 C626 1.391 . S
H628 C636 0.950 . S
H629 C641 0.950 . S
H630 C638 0.950 . S
H631 C640 0.950 . S
H632 C642 0.950 . S
H633 C644 0.950 . S
H634 C646 0.950 . S
H635 C647 0.950 . S
C636 H628 0.950 . S
C636 C637 1.386 . S
C636 C638 1.391 . S
C637 C636 1.386 . S
C637 C641 1.393 . S
C638 H630 0.950 . S
C638 C636 1.391 . S
C638 C639 1.400 . S
C639 C638 1.400 . S
C639 C640 1.398 . S
C639 C645 1.491 . S
C640 H631 0.950 . S
C640 C639 1.398 . S
C640 C641 1.391 . S
C641 H629 0.950 . S
C641 C637 1.393 . S
C641 C640 1.391 . S
C642 H632 0.950 . S
C642 C643 1.386 . S
C642 C644 1.391 . S
C643 C642 1.386 . S
C643 C647 1.393 . S
C644 H633 0.950 . S
C644 C642 1.391 . S
C644 C645 1.400 . S
C645 C639 1.491 . S
C645 C644 1.400 . S
C645 C646 1.398 . S
C646 H634 0.950 . S
C646 C645 1.398 . S
C646 C647 1.391 . S
C647 H635 0.950 . S
C647 C643 1.393 . S
C647 C646 1.391 . S
H648 C656 0.950 . S
H649 C661 0.950 . S
H650 C658 0.950 . S
H651 C660 0.950 . S
H652 C662 0.950 . S
H653 C664 0.950 . S
H654 C666 0.950 . S
H655 C667 0.950 . S
C656 H648 0.950 . S
C656 C657 1.386 . S
C656 C658 1.391 . S
C657 C656 1.386 . S
C657 C661 1.393 . S
C658 H650 0.950 . S
C658 C656 1.391 . S
C658 C659 1.400 . S
C659 C658 1.400 . S
C659 C660 1.398 . S
C659 C665 1.491 . S
C660 H651 0.950 . S
C660 C659 1.398 . S
C660 C661 1.391 . S
C661 H649 0.950 . S
C661 C657 1.393 . S
C661 C660 1.391 . S
C662 H652 0.950 . S
C662 C663 1.386 . S
C662 C664 1.391 . S
C663 C662 1.386 . S
C663 C667 1.393 . S
C664 H653 0.950 . S
C664 C662 1.391 . S
C664 C665 1.400 . S
C665 C659 1.491 . S
C665 C664 1.400 . S
C665 C666 1.398 . S
C666 H654 0.950 . S
C666 C665 1.398 . S
C666 C667 1.391 . S
C667 H655 0.950 . S
C667 C663 1.393 . S
C667 C666 1.391 . S
H668 C676 0.950 . S
H669 C681 0.950 . S
H670 C678 0.950 . S
H671 C680 0.950 . S
H672 C682 0.950 . S
H673 C684 0.950 . S
H674 C686 0.950 . S
H675 C687 0.950 . S
C676 H668 0.950 . S
C676 C677 1.386 . S
C676 C678 1.391 . S
C677 C676 1.386 . S
C677 C681 1.393 . S
C678 H670 0.950 . S
C678 C676 1.391 . S
C678 C679 1.400 . S
C679 C678 1.400 . S
C679 C680 1.398 . S
C679 C685 1.491 . S
C680 H671 0.950 . S
C680 C679 1.398 . S
C680 C681 1.391 . S
C681 H669 0.950 . S
C681 C677 1.393 . S
C681 C680 1.391 . S
C682 H672 0.950 . S
C682 C683 1.386 . S
C682 C684 1.391 . S
C683 C682 1.386 . S
C683 C687 1.393 . S
C684 H673 0.950 . S
C684 C682 1.391 . S
C684 C685 1.400 . S
C685 C679 1.491 . S
C685 C684 1.400 . S
C685 C686 1.398 . S
C686 H674 0.950 . S
C686 C685 1.398 . S
C686 C687 1.391 . S
C687 H675 0.950 . S
C687 C683 1.393 . S
C687 C686 1.391 . S
H688 C696 0.950 . S
H689 C701 0.950 . S
H690 C698 0.950 . S
H691 C700 0.950 . S
H692 C702 0.950 . S
H693 C704 0.950 . S
H694 C706 0.950 . S
H695 C707 0.950 . S
C696 H688 0.950 . S
C696 C697 1.386 . S
C696 C698 1.391 . S
C697 C696 1.386 . S
C697 C701 1.393 . S
C698 H690 0.950 . S
C698 C696 1.391 . S
C698 C699 1.400 . S
C699 C698 1.400 . S
C699 C700 1.398 . S
C699 C705 1.491 . S
C700 H691 0.950 . S
C700 C699 1.398 . S
C700 C701 1.391 . S
C701 H689 0.950 . S
C701 C697 1.393 . S
C701 C700 1.391 . S
C702 H692 0.950 . S
C702 C703 1.386 . S
C702 C704 1.391 . S
C703 C702 1.386 . S
C703 C707 1.393 . S
C704 H693 0.950 . S
C704 C702 1.391 . S
C704 C705 1.400 . S
C705 C699 1.491 . S
C705 C704 1.400 . S
C705 C706 1.398 . S
C706 H694 0.950 . S
C706 C705 1.398 . S
C706 C707 1.391 . S
C707 H695 0.950 . S
C707 C703 1.393 . S
C707 C706 1.391 . S
H708 C716 0.950 . S
H709 C721 0.950 . S
H710 C718 0.950 . S
H711 C720 0.950 . S
H712 C722 0.950 . S
H713 C724 0.950 . S
H714 C726 0.950 . S
H715 C727 0.950 . S
C716 H708 0.950 . S
C716 C717 1.386 . S
C716 C718 1.391 . S
C717 C716 1.386 . S
C717 C721 1.393 . S
C718 H710 0.950 . S
C718 C716 1.391 . S
C718 C719 1.400 . S
C719 C718 1.400 . S
C719 C720 1.398 . S
C719 C725 1.491 . S
C720 H711 0.950 . S
C720 C719 1.398 . S
C720 C721 1.391 . S
C721 H709 0.950 . S
C721 C717 1.393 . S
C721 C720 1.391 . S
C722 H712 0.950 . S
C722 C723 1.386 . S
C722 C724 1.391 . S
C723 C722 1.386 . S
C723 C727 1.393 . S
C724 H713 0.950 . S
C724 C722 1.391 . S
C724 C725 1.400 . S
C725 C719 1.491 . S
C725 C724 1.400 . S
C725 C726 1.398 . S
C726 H714 0.950 . S
C726 C725 1.398 . S
C726 C727 1.391 . S
C727 H715 0.950 . S
C727 C723 1.393 . S
C727 C726 1.391 . S
H728 C736 0.950 . S
H729 C741 0.950 . S
H730 C738 0.950 . S
H731 C740 0.950 . S
H732 C742 0.950 . S
H733 C744 0.950 . S
H734 C746 0.950 . S
H735 C747 0.950 . S
C736 H728 0.950 . S
C736 C737 1.386 . S
C736 C738 1.391 . S
C737 C736 1.386 . S
C737 C741 1.393 . S
C738 H730 0.950 . S
C738 C736 1.391 . S
C738 C739 1.400 . S
C739 C738 1.400 . S
C739 C740 1.398 . S
C739 C745 1.491 . S
C740 H731 0.950 . S
C740 C739 1.398 . S
C740 C741 1.391 . S
C741 H729 0.950 . S
C741 C737 1.393 . S
C741 C740 1.391 . S
C742 H732 0.950 . S
C742 C743 1.386 . S
C742 C744 1.391 . S
C743 C742 1.386 . S
C743 C747 1.393 . S
C744 H733 0.950 . S
C744 C742 1.391 . S
C744 C745 1.400 . S
C745 C739 1.491 . S
C745 C744 1.400 . S
C745 C746 1.398 . S
C746 H734 0.950 . S
C746 C745 1.398 . S
C746 C747 1.391 . S
C747 H735 0.950 . S
C747 C743 1.393 . S
C747 C746 1.391 . S
H748 C756 0.950 . S
H749 C761 0.950 . S
H750 C758 0.950 . S
H751 C760 0.950 . S
H752 C762 0.950 . S
H753 C764 0.950 . S
H754 C766 0.950 . S
H755 C767 0.950 . S
C756 H748 0.950 . S
C756 C757 1.386 . S
C756 C758 1.391 . S
C757 C756 1.386 . S
C757 C761 1.393 . S
C758 H750 0.950 . S
C758 C756 1.391 . S
C758 C759 1.400 . S
C759 C758 1.400 . S
C759 C760 1.398 . S
C759 C765 1.491 . S
C760 H751 0.950 . S
C760 C759 1.398 . S
C760 C761 1.391 . S
C761 H749 0.950 . S
C761 C757 1.393 . S
C761 C760 1.391 . S
C762 H752 0.950 . S
C762 C763 1.386 . S
C762 C764 1.391 . S
C763 C762 1.386 . S
C763 C767 1.393 . S
C764 H753 0.950 . S
C764 C762 1.391 . S
C764 C765 1.400 . S
C765 C759 1.491 . S
C765 C764 1.400 . S
C765 C766 1.398 . S
C766 H754 0.950 . S
C766 C765 1.398 . S
C766 C767 1.391 . S
C767 H755 0.950 . S
C767 C763 1.393 . S
C767 C766 1.391 . S
H768 C776 0.950 . S
H769 C781 0.950 . S
H770 C778 0.950 . S
H771 C780 0.950 . S
H772 C782 0.950 . S
H773 C784 0.950 . S
H774 C786 0.950 . S
H775 C787 0.950 . S
C776 H768 0.950 . S
C776 C777 1.386 . S
C776 C778 1.391 . S
C777 C776 1.386 . S
C777 C781 1.393 . S
C778 H770 0.950 . S
C778 C776 1.391 . S
C778 C779 1.400 . S
C779 C778 1.400 . S
C779 C780 1.398 . S
C779 C785 1.491 . S
C780 H771 0.950 . S
C780 C779 1.398 . S
C780 C781 1.391 . S
C781 H769 0.950 . S
C781 C777 1.393 . S
C781 C780 1.391 . S
C782 H772 0.950 . S
C782 C783 1.386 . S
C782 C784 1.391 . S
C783 C782 1.386 . S
C783 C787 1.393 . S
C784 H773 0.950 . S
C784 C782 1.391 . S
C784 C785 1.400 . S
C785 C779 1.491 . S
C785 C784 1.400 . S
C785 C786 1.398 . S
C786 H774 0.950 . S
C786 C785 1.398 . S
C786 C787 1.391 . S
C787 H775 0.950 . S
C787 C783 1.393 . S
C787 C786 1.391 . S
H788 C796 0.950 . S
H789 C801 0.950 . S
H790 C798 0.950 . S
H791 C800 0.950 . S
H792 C802 0.950 . S
H793 C804 0.950 . S
H794 C806 0.950 . S
H795 C807 0.950 . S
C796 H788 0.950 . S
C796 C797 1.386 . S
C796 C798 1.391 . S
C797 C796 1.386 . S
C797 C801 1.393 . S
C798 H790 0.950 . S
C798 C796 1.391 . S
C798 C799 1.400 . S
C799 C798 1.400 . S
C799 C800 1.398 . S
C799 C805 1.491 . S
C800 H791 0.950 . S
C800 C799 1.398 . S
C800 C801 1.391 . S
C801 H789 0.950 . S
C801 C797 1.393 . S
C801 C800 1.391 . S
C802 H792 0.950 . S
C802 C803 1.386 . S
C802 C804 1.391 . S
C803 C802 1.386 . S
C803 C807 1.393 . S
C804 H793 0.950 . S
C804 C802 1.391 . S
C804 C805 1.400 . S
C805 C799 1.491 . S
C805 C804 1.400 . S
C805 C806 1.398 . S
C806 H794 0.950 . S
C806 C805 1.398 . S
C806 C807 1.391 . S
C807 H795 0.950 . S
C807 C803 1.393 . S
C807 C806 1.391 . S
H808 C816 0.950 . S
H809 C821 0.950 . S
H810 C818 0.950 . S
H811 C820 0.950 . S
H812 C822 0.950 . S
H813 C824 0.950 . S
H814 C826 0.950 . S
H815 C827 0.950 . S
C816 H808 0.950 . S
C816 C817 1.386 . S
C816 C818 1.391 . S
C817 C816 1.386 . S
C817 C821 1.393 . S
C818 H810 0.950 . S
C818 C816 1.391 . S
C818 C819 1.400 . S
C819 C818 1.400 . S
C819 C820 1.398 . S
C819 C825 1.491 . S
C820 H811 0.950 . S
C820 C819 1.398 . S
C820 C821 1.391 . S
C821 H809 0.950 . S
C821 C817 1.393 . S
C821 C820 1.391 . S
C822 H812 0.950 . S
C822 C823 1.386 . S
C822 C824 1.391 . S
C823 C822 1.386 . S
C823 C827 1.393 . S
C824 H813 0.950 . S
C824 C822 1.391 . S
C824 C825 1.400 . S
C825 C819 1.491 . S
C825 C824 1.400 . S
C825 C826 1.398 . S
C826 H814 0.950 . S
C826 C825 1.398 . S
C826 C827 1.391 . S
C827 H815 0.950 . S
C827 C823 1.393 . S
C827 C826 1.391 . S
H828 C836 0.950 . S
H829 C841 0.950 . S
H830 C838 0.950 . S
H831 C840 0.950 . S
H832 C842 0.950 1_554 S
H833 C844 0.950 . S
H834 C846 0.950 . S
H835 C847 0.950 . S
C836 H828 0.950 . S
C836 C837 1.386 . S
C836 C838 1.391 . S
C837 C836 1.386 . S
C837 C841 1.393 . S
C838 H830 0.950 . S
C838 C836 1.391 . S
C838 C839 1.400 . S
C839 C838 1.400 . S
C839 C840 1.398 . S
C839 C845 1.491 . S
C840 H831 0.950 . S
C840 C839 1.398 . S
C840 C841 1.391 . S
C841 H829 0.950 . S
C841 C837 1.393 . S
C841 C840 1.391 . S
C842 H832 0.950 1_556 S
C842 C843 1.386 1_556 S
C842 C844 1.391 . S
C843 C842 1.386 1_554 S
C843 C847 1.393 . S
C844 H833 0.950 . S
C844 C842 1.391 . S
C844 C845 1.400 . S
C845 C839 1.491 . S
C845 C844 1.400 . S
C845 C846 1.398 . S
C846 H834 0.950 . S
C846 C845 1.398 . S
C846 C847 1.391 1_556 S
C847 H835 0.950 . S
C847 C843 1.393 . S
C847 C846 1.391 1_554 S
H848 C856 0.950 . S
H849 C861 0.950 1_545 S
H850 C858 0.950 . S
H851 C860 0.950 . S
H852 C862 0.950 . S
H853 C864 0.950 . S
H854 C866 0.950 . S
H855 C867 0.950 . S
C856 H848 0.950 . S
C856 C857 1.386 . S
C856 C858 1.391 . S
C857 C856 1.386 . S
C857 C861 1.393 . S
C858 H850 0.950 . S
C858 C856 1.391 . S
C858 C859 1.400 . S
C859 C858 1.400 . S
C859 C860 1.398 . S
C859 C865 1.491 . S
C860 H851 0.950 . S
C860 C859 1.398 . S
C860 C861 1.391 . S
C861 H849 0.950 1_565 S
C861 C857 1.393 . S
C861 C860 1.391 . S
C862 H852 0.950 . S
C862 C863 1.386 . S
C862 C864 1.391 . S
C863 C862 1.386 . S
C863 C867 1.393 . S
C864 H853 0.950 . S
C864 C862 1.391 . S
C864 C865 1.400 . S
C865 C859 1.491 . S
C865 C864 1.400 . S
C865 C866 1.398 . S
C866 H854 0.950 . S
C866 C865 1.398 . S
C866 C867 1.391 . S
C867 H855 0.950 . S
C867 C863 1.393 . S
C867 C866 1.391 . S
H868 C876 0.950 . S
H869 C881 0.950 . S
H870 C878 0.950 . S
H871 C880 0.950 . S
H872 C882 0.950 . S
H873 C884 0.950 . S
H874 C886 0.950 . S
H875 C887 0.950 . S
C876 H868 0.950 . S
C876 C877 1.386 . S
C876 C878 1.391 . S
C877 C876 1.386 . S
C877 C881 1.393 . S
C878 H870 0.950 . S
C878 C876 1.391 . S
C878 C879 1.400 . S
C879 C878 1.400 . S
C879 C880 1.398 . S
C879 C885 1.491 . S
C880 H871 0.950 . S
C880 C879 1.398 . S
C880 C881 1.391 . S
C881 H869 0.950 . S
C881 C877 1.393 . S
C881 C880 1.391 . S
C882 H872 0.950 . S
C882 C883 1.386 . S
C882 C884 1.391 . S
C883 C882 1.386 . S
C883 C887 1.393 . S
C884 H873 0.950 . S
C884 C882 1.391 . S
C884 C885 1.400 . S
C885 C879 1.491 . S
C885 C884 1.400 . S
C885 C886 1.398 . S
C886 H874 0.950 . S
C886 C885 1.398 . S
C886 C887 1.391 . S
C887 H875 0.950 . S
C887 C883 1.393 . S
C887 C886 1.391 . S
H888 C896 0.950 . S
H889 C901 0.950 . S
H890 C898 0.950 . S
H891 C900 0.950 . S
H892 C902 0.950 . S
H893 C904 0.950 . S
H894 C906 0.950 . S
H895 C907 0.950 . S
C896 H888 0.950 . S
C896 C897 1.386 . S
C896 C898 1.391 . S
C897 C896 1.386 . S
C897 C901 1.393 . S
C898 H890 0.950 . S
C898 C896 1.391 . S
C898 C899 1.400 . S
C899 C898 1.400 . S
C899 C900 1.398 . S
C899 C905 1.491 . S
C900 H891 0.950 . S
C900 C899 1.398 . S
C900 C901 1.391 . S
C901 H889 0.950 . S
C901 C897 1.393 . S
C901 C900 1.391 . S
C902 H892 0.950 . S
C902 C903 1.386 . S
C902 C904 1.391 . S
C903 C902 1.386 . S
C903 C907 1.393 . S
C904 H893 0.950 . S
C904 C902 1.391 . S
C904 C905 1.400 . S
C905 C899 1.491 . S
C905 C904 1.400 . S
C905 C906 1.398 . S
C906 H894 0.950 . S
C906 C905 1.398 . S
C906 C907 1.391 . S
C907 H895 0.950 . S
C907 C903 1.393 . S
C907 C906 1.391 . S
H908 C916 0.950 . S
H909 C921 0.950 . S
H910 C918 0.950 . S
H911 C920 0.950 . S
H912 C922 0.950 . S
H913 C924 0.950 . S
H914 C926 0.950 . S
H915 C927 0.950 . S
C916 H908 0.950 . S
C916 C917 1.386 . S
C916 C918 1.391 . S
C917 C916 1.386 . S
C917 C921 1.393 . S
C918 H910 0.950 . S
C918 C916 1.391 . S
C918 C919 1.400 . S
C919 C918 1.400 . S
C919 C920 1.398 . S
C919 C925 1.491 . S
C920 H911 0.950 . S
C920 C919 1.398 . S
C920 C921 1.391 . S
C921 H909 0.950 . S
C921 C917 1.393 . S
C921 C920 1.391 . S
C922 H912 0.950 . S
C922 C923 1.386 . S
C922 C924 1.391 . S
C923 C922 1.386 . S
C923 C927 1.393 . S
C924 H913 0.950 . S
C924 C922 1.391 . S
C924 C925 1.400 . S
C925 C919 1.491 . S
C925 C924 1.400 . S
C925 C926 1.398 . S
C926 H914 0.950 . S
C926 C925 1.398 . S
C926 C927 1.391 . S
C927 H915 0.950 . S
C927 C923 1.393 . S
C927 C926 1.391 . S
H928 C936 0.950 . S
H929 C941 0.950 . S
H930 C938 0.950 . S
H931 C940 0.950 . S
H932 C942 0.950 . S
H933 C944 0.950 . S
H934 C946 0.950 . S
H935 C947 0.950 . S
C936 H928 0.950 . S
C936 C937 1.386 . S
C936 C938 1.391 . S
C937 C936 1.386 . S
C937 C941 1.393 . S
C938 H930 0.950 . S
C938 C936 1.391 . S
C938 C939 1.400 . S
C939 C938 1.400 . S
C939 C940 1.398 . S
C939 C945 1.491 . S
C940 H931 0.950 . S
C940 C939 1.398 . S
C940 C941 1.391 . S
C941 H929 0.950 . S
C941 C937 1.393 . S
C941 C940 1.391 . S
C942 H932 0.950 . S
C942 C943 1.386 . S
C942 C944 1.391 . S
C943 C942 1.386 . S
C943 C947 1.393 . S
C944 H933 0.950 . S
C944 C942 1.391 . S
C944 C945 1.400 . S
C945 C939 1.491 . S
C945 C944 1.400 . S
C945 C946 1.398 . S
C946 H934 0.950 . S
C946 C945 1.398 . S
C946 C947 1.391 . S
C947 H935 0.950 . S
C947 C943 1.393 . S
C947 C946 1.391 . S
H948 C956 0.950 . S
H949 C961 0.950 . S
H950 C958 0.950 . S
H951 C960 0.950 . S
H952 C962 0.950 . S
H953 C964 0.950 . S
H954 C966 0.950 . S
H955 C967 0.950 . S
C956 H948 0.950 . S
C956 C957 1.386 . S
C956 C958 1.391 . S
C957 C956 1.386 . S
C957 C961 1.393 . S
C958 H950 0.950 . S
C958 C956 1.391 . S
C958 C959 1.400 . S
C959 C958 1.400 . S
C959 C960 1.398 . S
C959 C965 1.491 . S
C960 H951 0.950 . S
C960 C959 1.398 . S
C960 C961 1.391 . S
C961 H949 0.950 . S
C961 C957 1.393 . S
C961 C960 1.391 . S
C962 H952 0.950 . S
C962 C963 1.386 . S
C962 C964 1.391 . S
C963 C962 1.386 . S
C963 C967 1.393 . S
C964 H953 0.950 . S
C964 C962 1.391 . S
C964 C965 1.400 . S
C965 C959 1.491 . S
C965 C964 1.400 . S
C965 C966 1.398 . S
C966 H954 0.950 . S
C966 C965 1.398 . S
C966 C967 1.391 . S
C967 H955 0.950 . S
C967 C963 1.393 . S
C967 C966 1.391 . S
H968 C976 0.950 . S
H969 C981 0.950 . S
H970 C978 0.950 . S
H971 C980 0.950 . S
H972 C982 0.950 . S
H973 C984 0.950 . S
H974 C986 0.950 . S
H975 C987 0.950 . S
C976 H968 0.950 . S
C976 C977 1.386 . S
C976 C978 1.391 . S
C977 C976 1.386 . S
C977 C981 1.393 . S
C978 H970 0.950 . S
C978 C976 1.391 . S
C978 C979 1.400 . S
C979 C978 1.400 . S
C979 C980 1.398 . S
C979 C985 1.491 1_554 S
C980 H971 0.950 . S
C980 C979 1.398 . S
C980 C981 1.391 . S
C981 H969 0.950 . S
C981 C977 1.393 . S
C981 C980 1.391 . S
C982 H972 0.950 . S
C982 C983 1.386 . S
C982 C984 1.391 . S
C983 C982 1.386 . S
C983 C987 1.393 . S
C984 H973 0.950 . S
C984 C982 1.391 . S
C984 C985 1.400 . S
C985 C979 1.491 1_556 S
C985 C984 1.400 . S
C985 C986 1.398 . S
C986 H974 0.950 . S
C986 C985 1.398 . S
C986 C987 1.391 . S
C987 H975 0.950 . S
C987 C983 1.393 . S
C987 C986 1.391 . S
H988 C996 0.950 . S
H989 C1001 0.950 . S
H990 C998 0.950 . S
H991 C1000 0.950 . S
H992 C1002 0.950 . S
H993 C1004 0.950 . S
H994 C1006 0.950 . S
H995 C1007 0.950 . S
C996 H988 0.950 . S
C996 C997 1.386 . S
C996 C998 1.391 . S
C997 C996 1.386 . S
C997 C1001 1.393 . S
C998 H990 0.950 . S
C998 C996 1.391 . S
C998 C999 1.400 . S
C999 C998 1.400 . S
C999 C1000 1.398 . S
C999 C1005 1.491 . S
C1000 H991 0.950 . S
C1000 C999 1.398 . S
C1000 C1001 1.391 . S
C1001 H989 0.950 . S
C1001 C997 1.393 . S
C1001 C1000 1.391 . S
C1002 H992 0.950 . S
C1002 C1003 1.386 . S
C1002 C1004 1.391 . S
C1003 C1002 1.386 . S
C1003 C1007 1.393 . S
C1004 H993 0.950 . S
C1004 C1002 1.391 . S
C1004 C1005 1.400 . S
C1005 C999 1.491 . S
C1005 C1004 1.400 . S
C1005 C1006 1.398 . S
C1006 H994 0.950 . S
C1006 C1005 1.398 . S
C1006 C1007 1.391 . S
C1007 H995 0.950 . S
C1007 C1003 1.393 . S
C1007 C1006 1.391 . S
C543 C519 1.044 . S
C537 C51 1.283 . S
C557 C125 1.443 . S
C563 C449 1.186 . S
C577 C217 2.573 . S
C583 C469 2.615 . S
C597 C291 1.407 . S
C603 C483 1.402 . S
C623 C491 0.742 . S
C617 C347 0.846 . S
C637 C421 0.800 . S
C643 C505 0.807 . S
C657 C143 2.279 . S
C663 C463 1.941 . S
C677 C199 1.481 . S
C683 C477 1.205 . S
C697 C273 0.367 . S
C703 C497 0.392 . S
C723 C511 1.623 . S
C717 C365 1.582 . S
C743 C525 1.775 . S
C737 C439 1.792 . S
C763 C455 2.458 . S
C757 C69 2.409 . S
C777 C63 1.383 . S
C783 C462 1.465 . S
C797 C137 1.509 . S
C803 C476 1.595 . S
C823 C498 1.279 . S
C817 C187 1.254 . S
C837 C261 1.416 . S
C843 C512 1.445 . S
C863 C526 1.480 . S
C857 C359 1.328 . S
C883 C456 1.089 . S
C877 C433 1.016 . S
C903 C518 1.630 . S
C897 C113 1.581 . S
C917 C211 1.257 . S
C923 C448 1.345 . S
C943 C470 1.626 . S
C937 C285 1.529 . S
C957 C335 1.289 . S
C963 C484 1.359 . S
C977 C409 1.285 . S
C983 C490 1.324 . S
C997 C39 1.631 . S
C1003 C504 1.664 . S
