# Generated by pormake.
# Topology ctn, (3,4)-cn, num edge types: 1
# Building blocks:
#     Node 0, Type 0, BuildingBlock: PAMTOO_clean_linker_0, # of connection points: 3
#     Node 1, Type 0, BuildingBlock: PAMTOO_clean_linker_0, # of connection points: 3
#     Node 2, Type 0, BuildingBlock: PAMTOO_clean_linker_0, # of connection points: 3
#     Node 3, Type 0, BuildingBlock: PAMTOO_clean_linker_0, # of connection points: 3
#     Node 4, Type 0, BuildingBlock: PAMTOO_clean_linker_0, # of connection points: 3
#     Node 5, Type 0, BuildingBlock: PAMTOO_clean_linker_0, # of connection points: 3
#     Node 6, Type 0, BuildingBlock: PAMTOO_clean_linker_0, # of connection points: 3
#     Node 7, Type 0, BuildingBlock: PAMTOO_clean_linker_0, # of connection points: 3
#     Node 8, Type 0, BuildingBlock: PAMTOO_clean_linker_0, # of connection points: 3
#     Node 9, Type 0, BuildingBlock: PAMTOO_clean_linker_0, # of connection points: 3
#     Node 10, Type 0, BuildingBlock: PAMTOO_clean_linker_0, # of connection points: 3
#     Node 11, Type 0, BuildingBlock: PAMTOO_clean_linker_0, # of connection points: 3
#     Node 12, Type 0, BuildingBlock: PAMTOO_clean_linker_0, # of connection points: 3
#     Node 13, Type 0, BuildingBlock: PAMTOO_clean_linker_0, # of connection points: 3
#     Node 14, Type 0, BuildingBlock: PAMTOO_clean_linker_0, # of connection points: 3
#     Node 15, Type 0, BuildingBlock: PAMTOO_clean_linker_0, # of connection points: 3
#     Node 16, Type 1, BuildingBlock: TATPOV_clean_sbu_0, # of connection points: 4
#     Node 17, Type 1, BuildingBlock: TATPOV_clean_sbu_0, # of connection points: 4
#     Node 18, Type 1, BuildingBlock: TATPOV_clean_sbu_0, # of connection points: 4
#     Node 19, Type 1, BuildingBlock: TATPOV_clean_sbu_0, # of connection points: 4
#     Node 20, Type 1, BuildingBlock: TATPOV_clean_sbu_0, # of connection points: 4
#     Node 21, Type 1, BuildingBlock: TATPOV_clean_sbu_0, # of connection points: 4
#     Node 22, Type 1, BuildingBlock: TATPOV_clean_sbu_0, # of connection points: 4
#     Node 23, Type 1, BuildingBlock: TATPOV_clean_sbu_0, # of connection points: 4
#     Node 24, Type 1, BuildingBlock: TATPOV_clean_sbu_0, # of connection points: 4
#     Node 25, Type 1, BuildingBlock: TATPOV_clean_sbu_0, # of connection points: 4
#     Node 26, Type 1, BuildingBlock: TATPOV_clean_sbu_0, # of connection points: 4
#     Node 27, Type 1, BuildingBlock: TATPOV_clean_sbu_0, # of connection points: 4
#     Edge 28, Type (0, 1), None
#     Edge 29, Type (0, 1), None
#     Edge 30, Type (0, 1), None
#     Edge 31, Type (0, 1), None
#     Edge 32, Type (0, 1), None
#     Edge 33, Type (0, 1), None
#     Edge 34, Type (0, 1), None
#     Edge 35, Type (0, 1), None
#     Edge 36, Type (0, 1), None
#     Edge 37, Type (0, 1), None
#     Edge 38, Type (0, 1), None
#     Edge 39, Type (0, 1), None
#     Edge 40, Type (0, 1), None
#     Edge 41, Type (0, 1), None
#     Edge 42, Type (0, 1), None
#     Edge 43, Type (0, 1), None
#     Edge 44, Type (0, 1), None
#     Edge 45, Type (0, 1), None
#     Edge 46, Type (0, 1), None
#     Edge 47, Type (0, 1), None
#     Edge 48, Type (0, 1), None
#     Edge 49, Type (0, 1), None
#     Edge 50, Type (0, 1), None
#     Edge 51, Type (0, 1), None
#     Edge 52, Type (0, 1), None
#     Edge 53, Type (0, 1), None
#     Edge 54, Type (0, 1), None
#     Edge 55, Type (0, 1), None
#     Edge 56, Type (0, 1), None
#     Edge 57, Type (0, 1), None
#     Edge 58, Type (0, 1), None
#     Edge 59, Type (0, 1), None
#     Edge 60, Type (0, 1), None
#     Edge 61, Type (0, 1), None
#     Edge 62, Type (0, 1), None
#     Edge 63, Type (0, 1), None
#     Edge 64, Type (0, 1), None
#     Edge 65, Type (0, 1), None
#     Edge 66, Type (0, 1), None
#     Edge 67, Type (0, 1), None
#     Edge 68, Type (0, 1), None
#     Edge 69, Type (0, 1), None
#     Edge 70, Type (0, 1), None
#     Edge 71, Type (0, 1), None
#     Edge 72, Type (0, 1), None
#     Edge 73, Type (0, 1), None
#     Edge 74, Type (0, 1), None
#     Edge 75, Type (0, 1), None
# Relax obj value: 0.086
# Max RMSD: 0.173
# Mean RMSD: 0.113
data_MOF--net-ctn--node1-TATPOV_clean_sbu_0--node2-PAMTOO_clean_linker_0--edge1-none
_symmetry_space_group_name_H-M    P1
_symmetry_Int_Tables_number       1
_symmetry_cell_setting            triclinic
loop_
_symmetry_equiv_pos_as_xyz
'x, y, z'
_cell_length_a     22.794358
_cell_length_b     22.399432
_cell_length_c     23.748437
_cell_angle_alpha  83.682533
_cell_angle_beta   96.600217
_cell_angle_gamma 98.524687
loop_
_atom_site_label
_atom_site_type_symbol
_atom_site_fract_x
_atom_site_fract_y
_atom_site_fract_z
_atom_type_partial_charge
H0 H 0.94724 0.12589 0.02387 0.0
H1 H 0.98387 0.94505 0.08367 0.0
H2 H 0.09034 0.05447 0.96298 0.0
H3 H 0.05665 0.93913 0.93728 0.0
C4 C 0.07373 0.91581 0.97844 0.0
O5 O 0.07448 0.95046 0.0231 0.0
H6 H 0.04436 0.87217 0.98656 0.0
C7 C 0.97214 0.08843 0.02288 0.0
C8 C 0.0193 0.09579 0.98872 0.0
C9 C 0.95908 0.03472 0.05795 0.0
C10 C 0.99228 0.98672 0.05626 0.0
C11 C 0.03923 0.99404 0.02156 0.0
C12 C 0.05283 0.04864 0.98825 0.0
H13 H 0.35567 0.70262 0.37163 0.0
H14 H 0.26419 0.67239 0.20595 0.0
H15 H 0.39424 0.82905 0.22582 0.0
H16 H 0.26696 0.83406 0.15573 0.0
C17 C 0.27432 0.79866 0.12882 0.0
O18 O 0.31998 0.76789 0.154 0.0
H19 H 0.23269 0.76627 0.12285 0.0
C20 C 0.3473 0.71697 0.32668 0.0
C21 C 0.37988 0.77051 0.30331 0.0
C22 C 0.30486 0.68144 0.29218 0.0
C23 C 0.29585 0.69946 0.23379 0.0
C24 C 0.32749 0.75277 0.2105 0.0
C25 C 0.36877 0.78879 0.24509 0.0
H26 H 0.96886 0.57354 0.20164 0.0
H27 H 0.93732 0.48441 0.04584 0.0
H28 H 0.05143 0.4154 0.18388 0.0
H29 H 0.09739 0.40987 0.06791 0.0
C30 C 0.05647 0.4252 0.04426 0.0
O31 O 0.00994 0.40787 0.0776 0.0
H32 H 0.06439 0.47543 0.03449 0.0
C33 C 0.97472 0.53728 0.17707 0.0
C34 C 0.01203 0.49288 0.20077 0.0
C35 C 0.94695 0.53492 0.12029 0.0
C36 C 0.95718 0.48798 0.08929 0.0
C37 C 0.99497 0.44626 0.1118 0.0
C38 C 0.02123 0.44781 0.16749 0.0
H39 H 0.72398 0.9083 0.34457 0.0
H40 H 0.6586 0.72346 0.31455 0.0
H41 H 0.82198 0.81027 0.25014 0.0
H42 H 0.70244 0.74223 0.17857 0.0
C43 C 0.71074 0.69898 0.20423 0.0
O44 O 0.74493 0.71055 0.25472 0.0
H45 H 0.66738 0.67248 0.21431 0.0
C46 C 0.7296 0.86668 0.32757 0.0
C47 C 0.77935 0.86464 0.29893 0.0
C48 C 0.68562 0.81662 0.3326 0.0
C49 C 0.69273 0.76253 0.31117 0.0
C50 C 0.74158 0.76051 0.28074 0.0
C51 C 0.7847 0.81179 0.2742 0.0
H52 H 0.12965 0.97402 0.5774 0.0
H53 H 0.00828 0.9308 0.42846 0.0
H54 H 0.17832 0.03319 0.40782 0.0
H55 H 0.08923 0.04654 0.285 0.0
C56 C 0.06754 0.04088 0.32518 0.0
O57 O 0.08042 0.9876 0.35581 0.0
H58 H 0.0855 0.08121 0.34861 0.0
C59 C 0.11864 0.97687 0.53166 0.0
C60 C 0.16033 1.00887 0.49546 0.0
C61 C 0.06346 0.94681 0.50784 0.0
C62 C 0.05007 0.9526 0.44816 0.0
C63 C 0.09208 0.98315 0.41297 0.0
C64 C 0.14695 1.00943 0.43649 0.0
H65 H 0.17876 0.86905 0.80601 0.0
H66 H 0.1667 0.72215 0.70026 0.0
H67 H 0.30805 0.74345 0.83413 0.0
H68 H 0.33506 0.71544 0.71868 0.0
C69 C 0.30206 0.67349 0.71909 0.0
O70 O 0.2582 0.6765 0.7539 0.0
H71 H 0.2812 0.66774 0.67503 0.0
C72 C 0.1965 0.83043 0.79415 0.0
C73 C 0.24772 0.81114 0.8254 0.0
C74 C 0.16674 0.79859 0.749 0.0
C75 C 0.18929 0.74781 0.73447 0.0
C76 C 0.24044 0.72869 0.76473 0.0
C77 C 0.26959 0.76024 0.80996 0.0
H78 H 0.8687 0.6092 0.51119 0.0
H79 H 0.99927 0.49757 0.48115 0.0
H80 H 0.05759 0.66591 0.54985 0.0
H81 H 0.17525 0.59763 0.49972 0.0
C82 C 0.12917 0.59185 0.4782 0.0
O83 O 0.09058 0.56935 0.51859 0.0
H84 H 0.11983 0.63742 0.45864 0.0
C85 C 0.91458 0.60192 0.51088 0.0
C86 C 0.96162 0.64541 0.53155 0.0
C87 C 0.92754 0.54729 0.4932 0.0
C88 C 0.98765 0.53888 0.4939 0.0
C89 C 0.03373 0.5812 0.51433 0.0
C90 C 0.02085 0.63381 0.53361 0.0
H91 H 0.73643 0.80866 0.94113 0.0
H92 H 0.87825 0.75792 0.85786 0.0
H93 H 0.78985 0.90718 0.78401 0.0
H94 H 0.80295 0.82673 0.7047 0.0
C95 C 0.84525 0.80949 0.72262 0.0
O96 O 0.86899 0.8384 0.77041 0.0
H97 H 0.83488 0.76002 0.73511 0.0
C98 C 0.76545 0.81632 0.90723 0.0
C99 C 0.75786 0.86368 0.86296 0.0
C100 C 0.80972 0.77794 0.90663 0.0
C101 C 0.84529 0.78745 0.86063 0.0
C102 C 0.83784 0.83354 0.81663 0.0
C103 C 0.79538 0.87215 0.81874 0.0
H104 H 0.23633 0.30851 0.44105 0.0
H105 H 0.37805 0.2577 0.35771 0.0
H106 H 0.29 0.4073 0.28414 0.0
H107 H 0.30368 0.32887 0.20444 0.0
C108 C 0.34524 0.31019 0.22234 0.0
O109 O 0.36906 0.33851 0.27044 0.0
H110 H 0.33357 0.26071 0.23401 0.0
C111 C 0.26536 0.31619 0.40717 0.0
C112 C 0.25785 0.36363 0.36296 0.0
C113 C 0.30958 0.27776 0.40652 0.0
C114 C 0.34514 0.28727 0.36051 0.0
C115 C 0.33781 0.33349 0.31661 0.0
C116 C 0.29543 0.37217 0.3188 0.0
H117 H 0.46883 0.07363 0.7017 0.0
H118 H 0.43721 0.98452 0.54589 0.0
H119 H 0.55133 0.91545 0.68388 0.0
H120 H 0.59786 0.91095 0.56783 0.0
C121 C 0.55646 0.92534 0.54436 0.0
O122 O 0.50984 0.90799 0.5776 0.0
H123 H 0.56433 0.97556 0.53452 0.0
C124 C 0.47467 0.03736 0.67713 0.0
C125 C 0.51197 0.99295 0.7008 0.0
C126 C 0.44688 0.03502 0.62035 0.0
C127 C 0.45708 0.98808 0.58933 0.0
C128 C 0.49486 0.94635 0.61182 0.0
C129 C 0.52113 0.94788 0.66751 0.0
H130 H 0.22459 0.40744 0.84529 0.0
H131 H 0.15869 0.22285 0.81479 0.0
H132 H 0.32209 0.30949 0.75031 0.0
H133 H 0.20163 0.24202 0.67872 0.0
C134 C 0.2103 0.19879 0.70423 0.0
O135 O 0.24477 0.20996 0.75465 0.0
H136 H 0.16658 0.17284 0.71387 0.0
C137 C 0.2301 0.36584 0.82819 0.0
C138 C 0.27976 0.36378 0.79943 0.0
C139 C 0.18601 0.31588 0.83313 0.0
C140 C 0.19294 0.26183 0.81152 0.0
C141 C 0.2417 0.25979 0.78097 0.0
C142 C 0.28492 0.31099 0.77451 0.0
H143 H 0.85585 0.20251 0.87147 0.0
H144 H 0.76423 0.17236 0.70584 0.0
H145 H 0.89466 0.32875 0.72559 0.0
H146 H 0.76707 0.33428 0.65547 0.0
C147 C 0.77472 0.29881 0.62878 0.0
O148 O 0.82018 0.26771 0.65383 0.0
H149 H 0.7327 0.26688 0.62326 0.0
C150 C 0.84751 0.21684 0.82652 0.0
C151 C 0.88019 0.2703 0.80311 0.0
C152 C 0.80498 0.18137 0.79205 0.0
C153 C 0.79597 0.19938 0.73366 0.0
C154 C 0.82773 0.2526 0.71033 0.0
C155 C 0.86912 0.28856 0.74488 0.0
H156 H 0.44808 0.62651 0.52439 0.0
H157 H 0.4844 0.44555 0.58415 0.0
H158 H 0.59069 0.55464 0.46313 0.0
H159 H 0.55666 0.43937 0.43752 0.0
C160 C 0.57381 0.41603 0.47863 0.0
O161 O 0.57475 0.45069 0.52332 0.0
H162 H 0.5444 0.37243 0.48681 0.0
C163 C 0.47291 0.58899 0.52339 0.0
C164 C 0.51991 0.5962 0.48907 0.0
C165 C 0.45982 0.53534 0.55854 0.0
C166 C 0.49282 0.48721 0.55672 0.0
C167 C 0.53965 0.49437 0.52189 0.0
C168 C 0.5533 0.54894 0.48852 0.0
H169 H 0.62959 0.47429 0.07722 0.0
H170 H 0.50854 0.43069 0.92818 0.0
H171 H 0.67848 0.53336 0.9077 0.0
H172 H 0.58926 0.54609 0.78454 0.0
C173 C 0.56772 0.5406 0.8248 0.0
O174 O 0.58076 0.48746 0.85559 0.0
H175 H 0.58575 0.58106 0.84803 0.0
C176 C 0.61865 0.47708 0.03147 0.0
C177 C 0.66037 0.5091 0.99532 0.0
C178 C 0.56354 0.44692 0.00761 0.0
C179 C 0.55025 0.45259 0.94791 0.0
C180 C 0.5923 0.48316 0.91276 0.0
C181 C 0.64708 0.50959 0.93634 0.0
H182 H 0.67863 0.36913 0.30593 0.0
H183 H 0.66677 0.22261 0.19977 0.0
H184 H 0.80817 0.24379 0.33362 0.0
H185 H 0.83507 0.21634 0.2183 0.0
C186 C 0.80229 0.17423 0.21831 0.0
O187 O 0.75843 0.17704 0.25321 0.0
H188 H 0.78202 0.16889 0.174 0.0
C189 C 0.69643 0.3306 0.29396 0.0
C190 C 0.7477 0.31134 0.32513 0.0
C191 C 0.66671 0.29886 0.24874 0.0
C192 C 0.68934 0.24819 0.23406 0.0
C193 C 0.74055 0.22911 0.26422 0.0
C194 C 0.76966 0.26055 0.30953 0.0
H195 H 0.36858 0.10925 0.01128 0.0
H196 H 0.49922 0.99765 0.98135 0.0
H197 H 0.55745 0.16611 0.04985 0.0
H198 H 0.67503 0.09884 0.99908 0.0
C199 C 0.62881 0.09206 0.97797 0.0
O200 O 0.59051 0.06959 0.0186 0.0
H201 H 0.61977 0.13765 0.95819 0.0
C202 C 0.41447 0.10198 0.01099 0.0
C203 C 0.46149 0.14551 0.03162 0.0
C204 C 0.42746 0.04734 0.99337 0.0
C205 C 0.48758 0.03895 0.99408 0.0
C206 C 0.53364 0.08133 0.01445 0.0
C207 C 0.52073 0.13395 0.03367 0.0
Zn208 Zn 0.35165 0.86139 0.9755 0.0
Zn209 Zn 0.25928 0.92207 0.9718 0.0
O210 O 0.25935 0.86853 0.04709 0.0
O211 O 0.33241 0.81388 0.04948 0.0
O212 O 0.1783 0.94845 0.97019 0.0
O213 O 0.39969 0.94414 0.97854 0.0
O214 O 0.32548 0.99691 0.97811 0.0
C215 C 0.28978 0.82856 0.07228 0.0
C216 C 0.27535 0.84042 0.87686 0.0
O217 O 0.24848 0.8772 0.8984 0.0
O218 O 0.3236 0.82522 0.90201 0.0
C219 C 0.13586 0.90458 0.97376 0.0
O220 O 0.14725 0.84864 0.97508 0.0
C221 C 0.3814 0.99451 0.98105 0.0
Zn222 Zn 0.09557 0.44275 0.37151 0.0
Zn223 Zn 0.17112 0.53084 0.32013 0.0
O224 O 0.15665 0.56761 0.39069 0.0
O225 O 0.09601 0.49774 0.4357 0.0
O226 O 0.22807 0.59735 0.28571 0.0
O227 O 0.16118 0.38497 0.38071 0.0
O228 O 0.21863 0.45741 0.33492 0.0
C229 C 0.12631 0.55005 0.43244 0.0
C230 C 0.04865 0.49486 0.25665 0.0
O231 O 0.09961 0.52702 0.25882 0.0
O232 O 0.03696 0.45383 0.29688 0.0
C233 C 0.26928 0.62632 0.31681 0.0
O234 O 0.27693 0.60924 0.37158 0.0
C235 C 0.21046 0.40396 0.36036 0.0
Zn236 Zn 0.83395 0.60827 0.99187 0.0
Zn237 Zn 0.79538 0.64673 0.06867 0.0
O238 O 0.8682 0.6004 0.11029 0.0
O239 O 0.90846 0.58522 0.03476 0.0
O240 O 0.76976 0.69049 0.12942 0.0
O241 O 0.83626 0.67923 0.93298 0.0
O242 O 0.80029 0.71899 0.99956 0.0
C243 C 0.90882 0.57938 0.08837 0.0
C244 C 0.71813 0.54378 0.01504 0.0
O245 O 0.72132 0.58303 0.05058 0.0
O246 O 0.76171 0.54387 0.98631 0.0
C247 C 0.74159 0.66329 0.17008 0.0
O248 O 0.73155 0.60378 0.17579 0.0
C249 C 0.81601 0.72347 0.94886 0.0
Zn250 Zn 0.88203 0.03708 0.32859 0.0
Zn251 Zn 0.89617 0.01311 0.22023 0.0
O252 O 0.85112 0.08836 0.20704 0.0
O253 O 0.8446 0.11061 0.29433 0.0
O254 O 0.92179 0.99667 0.14588 0.0
O255 O 0.97042 0.0447 0.35103 0.0
O256 O 0.97828 0.02618 0.26322 0.0
C257 C 0.83481 0.12184 0.2409 0.0
C258 C 0.82244 0.91986 0.29274 0.0
O259 O 0.84511 0.93533 0.24602 0.0
O260 O 0.83134 0.95487 0.33227 0.0
C261 C 0.91759 0.03355 0.10169 0.0
O262 O 0.88726 0.07902 0.10185 0.0
C263 C 1.00204 0.03823 0.31235 0.0
Zn264 Zn 0.33381 0.10813 0.49186 0.0
Zn265 Zn 0.29525 0.14668 0.56865 0.0
O266 O 0.36809 0.10046 0.61037 0.0
O267 O 0.40837 0.08531 0.53484 0.0
O268 O 0.26927 0.19045 0.62922 0.0
O269 O 0.33601 0.179 0.43286 0.0
O270 O 0.30021 0.21888 0.49948 0.0
C271 C 0.40874 0.07948 0.58844 0.0
C272 C 0.21811 0.04355 0.51513 0.0
O273 O 0.22128 0.0829 0.55056 0.0
O274 O 0.26167 0.04359 0.48639 0.0
C275 C 0.24039 0.16316 0.66937 0.0
O276 O 0.23135 0.10364 0.67577 0.0
C277 C 0.31584 0.22329 0.44876 0.0
Zn278 Zn 0.38225 0.53634 0.82892 0.0
Zn279 Zn 0.39602 0.5125 0.7204 0.0
O280 O 0.35065 0.58753 0.70757 0.0
O281 O 0.34436 0.60967 0.79494 0.0
O282 O 0.42136 0.49629 0.64582 0.0
O283 O 0.47072 0.54429 0.85099 0.0
O284 O 0.47827 0.52572 0.76311 0.0
C285 C 0.3339 0.62059 0.74155 0.0
C286 C 0.32284 0.41899 0.79316 0.0
O287 O 0.34524 0.43458 0.74633 0.0
O288 O 0.33186 0.45397 0.83273 0.0
C289 C 0.41846 0.53435 0.60238 0.0
O290 O 0.38955 0.58069 0.6035 0.0
C291 C 0.5022 0.53785 0.81218 0.0
Zn292 Zn 0.85168 0.3614 0.47527 0.0
Zn293 Zn 0.7593 0.42206 0.47168 0.0
O294 O 0.75936 0.36836 0.54689 0.0
O295 O 0.83254 0.31388 0.54927 0.0
O296 O 0.67837 0.4485 0.47018 0.0
O297 O 0.89974 0.44412 0.47827 0.0
O298 O 0.82555 0.49687 0.47804 0.0
C299 C 0.78961 0.32817 0.57189 0.0
C300 C 0.77532 0.34052 0.37664 0.0
O301 O 0.74847 0.3773 0.39821 0.0
O302 O 0.82355 0.32527 0.40178 0.0
C303 C 0.63587 0.4047 0.47379 0.0
O304 O 0.64716 0.34873 0.47503 0.0
C305 C 0.88146 0.49448 0.48087 0.0
Zn306 Zn 0.59556 0.94281 0.87149 0.0
Zn307 Zn 0.67114 0.03088 0.8201 0.0
O308 O 0.65674 0.06764 0.8907 0.0
O309 O 0.59589 0.99787 0.93558 0.0
O310 O 0.72808 0.09738 0.78564 0.0
O311 O 0.66121 0.88505 0.88075 0.0
O312 O 0.71861 0.95743 0.83485 0.0
C313 C 0.62647 0.05005 0.93249 0.0
C314 C 0.54862 0.99491 0.75667 0.0
O315 O 0.59956 0.0271 0.75884 0.0
O316 O 0.53696 0.95383 0.79687 0.0
C317 C 0.76934 0.12631 0.81671 0.0
O318 O 0.77701 0.10924 0.87148 0.0
C319 C 0.71047 0.904 0.86034 0.0
Zn320 Zn 0.03095 0.38882 0.86856 0.0
Zn321 Zn 0.03342 0.28072 0.93017 0.0
O322 O 0.10611 0.28094 0.88927 0.0
O323 O 0.10921 0.37243 0.84364 0.0
O324 O 0.02434 0.20187 0.97528 0.0
O325 O 0.03433 0.42783 0.94306 0.0
O326 O 0.04455 0.33936 0.99096 0.0
C327 C 0.13103 0.32316 0.85644 0.0
C328 C 0.93111 0.30151 0.83767 0.0
O329 O 0.95691 0.27075 0.87862 0.0
O330 O 0.95332 0.3555 0.82304 0.0
C331 C 0.03499 0.15425 0.95643 0.0
O332 O 0.0571 0.1574 0.90734 0.0
C333 C 0.04311 0.39588 0.98994 0.0
Zn334 Zn 0.53057 0.8892 0.36859 0.0
Zn335 Zn 0.53339 0.78107 0.43005 0.0
O336 O 0.60589 0.78144 0.38887 0.0
O337 O 0.60878 0.87299 0.34341 0.0
O338 O 0.52459 0.70224 0.4752 0.0
O339 O 0.53412 0.92815 0.44314 0.0
O340 O 0.54475 0.83967 0.49087 0.0
C341 C 0.63067 0.82375 0.35603 0.0
C342 C 0.43078 0.80176 0.33785 0.0
O343 O 0.45672 0.771 0.37871 0.0
O344 O 0.45288 0.85579 0.32324 0.0
C345 C 0.53554 0.65459 0.45662 0.0
O346 O 0.55781 0.65763 0.40761 0.0
C347 C 0.54347 0.89621 0.48994 0.0
Zn348 Zn 0.91263 0.81555 0.55827 0.0
Zn349 Zn 1.00609 0.80063 0.63624 0.0
O350 O 0.04244 0.87758 0.58976 0.0
O351 O 0.96988 0.88568 0.52121 0.0
O352 O 0.07713 0.77976 0.68813 0.0
O353 O 0.86601 0.82443 0.6254 0.0
O354 O 0.94125 0.80694 0.68913 0.0
C355 C 0.02242 0.90361 0.54267 0.0
C356 C 0.95143 0.70248 0.55296 0.0
O357 O 0.98954 0.72603 0.59074 0.0
O358 O 0.90856 0.73037 0.53133 0.0
C359 C 0.1115 0.81703 0.71768 0.0
O360 O 0.09855 0.87216 0.71839 0.0
C361 C 0.88743 0.81713 0.67705 0.0
Zn362 Zn 0.41261 0.31574 0.05805 0.0
Zn363 Zn 0.50601 0.30093 0.1361 0.0
O364 O 0.54245 0.37776 0.08956 0.0
O365 O 0.46994 0.38579 0.02094 0.0
O366 O 0.57704 0.28001 0.18797 0.0
O367 O 0.36604 0.32477 0.12517 0.0
O368 O 0.44126 0.3076 0.18897 0.0
C369 C 0.52247 0.40374 0.04242 0.0
C370 C 0.45127 0.20262 0.05294 0.0
O371 O 0.48935 0.22622 0.09071 0.0
O372 O 0.40844 0.23052 0.0312 0.0
C373 C 0.61143 0.31728 0.2175 0.0
O374 O 0.5985 0.37241 0.21822 0.0
C375 C 0.38755 0.31811 0.17685 0.0
loop_
_geom_bond_atom_site_label_1
_geom_bond_atom_site_label_2
_geom_bond_distance
_geom_bond_site_symmetry_2
_ccdc_geom_bond_type
H0 C7 0.929 . S
H1 C10 0.930 1_565 S
H2 C12 0.929 . S
H3 C4 0.969 . S
C4 H3 0.969 . S
C4 O5 1.550 1_565 S
C4 H6 0.973 . S
O5 C4 1.550 1_545 S
O5 C11 1.412 . S
H6 C4 0.973 . S
C7 H0 0.929 . S
C7 C8 1.400 . S
C7 C9 1.364 . S
C8 C7 1.400 . S
C8 C12 1.377 1_654 S
C9 C7 1.364 . S
C9 C10 1.374 1_655 S
C10 H1 0.930 1_545 S
C10 C9 1.374 1_455 S
C10 C11 1.383 . S
C11 O5 1.412 . S
C11 C10 1.383 . S
C11 C12 1.394 1_554 S
C12 H2 0.929 . S
C12 C8 1.377 1_456 S
C12 C11 1.394 1_556 S
H13 C20 0.929 . S
H14 C23 0.930 . S
H15 C25 0.929 . S
H16 C17 0.969 . S
C17 H16 0.969 . S
C17 O18 1.550 . S
C17 H19 0.973 . S
O18 C17 1.550 . S
O18 C24 1.412 . S
H19 C17 0.973 . S
C20 H13 0.929 . S
C20 C21 1.400 . S
C20 C22 1.364 . S
C21 C20 1.400 . S
C21 C25 1.377 . S
C22 C20 1.364 . S
C22 C23 1.374 . S
C23 H14 0.930 . S
C23 C22 1.374 . S
C23 C24 1.383 . S
C24 O18 1.412 . S
C24 C23 1.383 . S
C24 C25 1.394 . S
C25 H15 0.929 . S
C25 C21 1.377 . S
C25 C24 1.394 . S
H26 C33 0.929 . S
H27 C36 0.930 . S
H28 C38 0.929 . S
H29 C30 0.969 . S
C30 H29 0.969 . S
C30 O31 1.550 1_556 S
C30 H32 0.973 . S
O31 C30 1.550 1_554 S
O31 C37 1.412 . S
H32 C30 0.973 . S
C33 H26 0.929 . S
C33 C34 1.400 1_655 S
C33 C35 1.364 . S
C34 C33 1.400 1_455 S
C34 C38 1.377 . S
C35 C33 1.364 . S
C35 C36 1.374 . S
C36 H27 0.930 . S
C36 C35 1.374 . S
C36 C37 1.383 . S
C37 O31 1.412 . S
C37 C36 1.383 . S
C37 C38 1.394 1_655 S
C38 H28 0.929 . S
C38 C34 1.377 . S
C38 C37 1.394 1_455 S
H39 C46 0.929 . S
H40 C49 0.930 . S
H41 C51 0.929 . S
H42 C43 0.969 . S
C43 H42 0.969 . S
C43 O44 1.550 . S
C43 H45 0.973 . S
O44 C43 1.550 . S
O44 C50 1.412 . S
H45 C43 0.973 . S
C46 H39 0.929 . S
C46 C47 1.400 . S
C46 C48 1.364 . S
C47 C46 1.400 . S
C47 C51 1.377 . S
C48 C46 1.364 . S
C48 C49 1.374 . S
C49 H40 0.930 . S
C49 C48 1.374 . S
C49 C50 1.383 . S
C50 O44 1.412 . S
C50 C49 1.383 . S
C50 C51 1.394 . S
C51 H41 0.929 . S
C51 C47 1.377 . S
C51 C50 1.394 . S
H52 C59 0.929 . S
H53 C62 0.930 . S
H54 C64 0.929 . S
H55 C56 0.969 . S
C56 H55 0.969 . S
C56 O57 1.550 1_655 S
C56 H58 0.973 . S
O57 C56 1.550 1_455 S
O57 C63 1.412 . S
H58 C56 0.973 . S
C59 H52 0.929 . S
C59 C60 1.400 . S
C59 C61 1.364 . S
C60 C59 1.400 . S
C60 C64 1.377 1_565 S
C61 C59 1.364 . S
C61 C62 1.374 . S
C62 H53 0.930 . S
C62 C61 1.374 . S
C62 C63 1.383 . S
C63 O57 1.412 . S
C63 C62 1.383 . S
C63 C64 1.394 1_565 S
C64 H54 0.929 . S
C64 C60 1.377 1_545 S
C64 C63 1.394 1_545 S
H65 C72 0.929 . S
H66 C75 0.930 . S
H67 C77 0.929 . S
H68 C69 0.969 . S
C69 H68 0.969 . S
C69 O70 1.550 . S
C69 H71 0.973 . S
O70 C69 1.550 . S
O70 C76 1.412 . S
H71 C69 0.973 . S
C72 H65 0.929 . S
C72 C73 1.400 . S
C72 C74 1.364 . S
C73 C72 1.400 . S
C73 C77 1.377 . S
C74 C72 1.364 . S
C74 C75 1.374 . S
C75 H66 0.930 . S
C75 C74 1.374 . S
C75 C76 1.383 . S
C76 O70 1.412 . S
C76 C75 1.383 . S
C76 C77 1.394 . S
C77 H67 0.929 . S
C77 C73 1.377 . S
C77 C76 1.394 . S
H78 C85 0.929 . S
H79 C88 0.930 . S
H80 C90 0.929 . S
H81 C82 0.969 . S
C82 H81 0.969 . S
C82 O83 1.550 . S
C82 H84 0.973 . S
O83 C82 1.550 . S
O83 C89 1.412 . S
H84 C82 0.973 . S
C85 H78 0.929 . S
C85 C86 1.400 . S
C85 C87 1.364 . S
C86 C85 1.400 . S
C86 C90 1.377 1_655 S
C87 C85 1.364 . S
C87 C88 1.374 . S
C88 H79 0.930 . S
C88 C87 1.374 . S
C88 C89 1.383 1_655 S
C89 O83 1.412 . S
C89 C88 1.383 1_455 S
C89 C90 1.394 . S
C90 H80 0.929 . S
C90 C86 1.377 1_455 S
C90 C89 1.394 . S
H91 C98 0.929 . S
H92 C101 0.930 . S
H93 C103 0.929 . S
H94 C95 0.969 . S
C95 H94 0.969 . S
C95 O96 1.550 . S
C95 H97 0.973 . S
O96 C95 1.550 . S
O96 C102 1.412 . S
H97 C95 0.973 . S
C98 H91 0.929 . S
C98 C99 1.400 . S
C98 C100 1.364 . S
C99 C98 1.400 . S
C99 C103 1.377 . S
C100 C98 1.364 . S
C100 C101 1.374 . S
C101 H92 0.930 . S
C101 C100 1.374 . S
C101 C102 1.383 . S
C102 O96 1.412 . S
C102 C101 1.383 . S
C102 C103 1.394 . S
C103 H93 0.929 . S
C103 C99 1.377 . S
C103 C102 1.394 . S
H104 C111 0.929 . S
H105 C114 0.930 . S
H106 C116 0.929 . S
H107 C108 0.969 . S
C108 H107 0.969 . S
C108 O109 1.550 . S
C108 H110 0.973 . S
O109 C108 1.550 . S
O109 C115 1.412 . S
H110 C108 0.973 . S
C111 H104 0.929 . S
C111 C112 1.400 . S
C111 C113 1.364 . S
C112 C111 1.400 . S
C112 C116 1.377 . S
C113 C111 1.364 . S
C113 C114 1.374 . S
C114 H105 0.930 . S
C114 C113 1.374 . S
C114 C115 1.383 . S
C115 O109 1.412 . S
C115 C114 1.383 . S
C115 C116 1.394 . S
C116 H106 0.929 . S
C116 C112 1.377 . S
C116 C115 1.394 . S
H117 C124 0.929 . S
H118 C127 0.930 . S
H119 C129 0.929 . S
H120 C121 0.969 . S
C121 H120 0.969 . S
C121 O122 1.550 . S
C121 H123 0.973 . S
O122 C121 1.550 . S
O122 C128 1.412 . S
H123 C121 0.973 . S
C124 H117 0.929 . S
C124 C125 1.400 1_545 S
C124 C126 1.364 . S
C125 C124 1.400 1_565 S
C125 C129 1.377 . S
C126 C124 1.364 . S
C126 C127 1.374 1_545 S
C127 H118 0.930 . S
C127 C126 1.374 1_565 S
C127 C128 1.383 . S
C128 O122 1.412 . S
C128 C127 1.383 . S
C128 C129 1.394 . S
C129 H119 0.929 . S
C129 C125 1.377 . S
C129 C128 1.394 . S
H130 C137 0.929 . S
H131 C140 0.930 . S
H132 C142 0.929 . S
H133 C134 0.969 . S
C134 H133 0.969 . S
C134 O135 1.550 . S
C134 H136 0.973 . S
O135 C134 1.550 . S
O135 C141 1.412 . S
H136 C134 0.973 . S
C137 H130 0.929 . S
C137 C138 1.400 . S
C137 C139 1.364 . S
C138 C137 1.400 . S
C138 C142 1.377 . S
C139 C137 1.364 . S
C139 C140 1.374 . S
C140 H131 0.930 . S
C140 C139 1.374 . S
C140 C141 1.383 . S
C141 O135 1.412 . S
C141 C140 1.383 . S
C141 C142 1.394 . S
C142 H132 0.929 . S
C142 C138 1.377 . S
C142 C141 1.394 . S
H143 C150 0.929 . S
H144 C153 0.930 . S
H145 C155 0.929 . S
H146 C147 0.969 . S
C147 H146 0.969 . S
C147 O148 1.550 . S
C147 H149 0.973 . S
O148 C147 1.550 . S
O148 C154 1.412 . S
H149 C147 0.973 . S
C150 H143 0.929 . S
C150 C151 1.400 . S
C150 C152 1.364 . S
C151 C150 1.400 . S
C151 C155 1.377 . S
C152 C150 1.364 . S
C152 C153 1.374 . S
C153 H144 0.930 . S
C153 C152 1.374 . S
C153 C154 1.383 . S
C154 O148 1.412 . S
C154 C153 1.383 . S
C154 C155 1.394 . S
C155 H145 0.929 . S
C155 C151 1.377 . S
C155 C154 1.394 . S
H156 C163 0.929 . S
H157 C166 0.930 . S
H158 C168 0.929 . S
H159 C160 0.969 . S
C160 H159 0.969 . S
C160 O161 1.550 . S
C160 H162 0.973 . S
O161 C160 1.550 . S
O161 C167 1.412 . S
H162 C160 0.973 . S
C163 H156 0.929 . S
C163 C164 1.400 . S
C163 C165 1.364 . S
C164 C163 1.400 . S
C164 C168 1.377 . S
C165 C163 1.364 . S
C165 C166 1.374 . S
C166 H157 0.930 . S
C166 C165 1.374 . S
C166 C167 1.383 . S
C167 O161 1.412 . S
C167 C166 1.383 . S
C167 C168 1.394 . S
C168 H158 0.929 . S
C168 C164 1.377 . S
C168 C167 1.394 . S
H169 C176 0.929 . S
H170 C179 0.930 . S
H171 C181 0.929 . S
H172 C173 0.969 . S
C173 H172 0.969 . S
C173 O174 1.550 . S
C173 H175 0.973 . S
O174 C173 1.550 . S
O174 C180 1.412 . S
H175 C173 0.973 . S
C176 H169 0.929 . S
C176 C177 1.400 . S
C176 C178 1.364 . S
C177 C176 1.400 . S
C177 C181 1.377 1_554 S
C178 C176 1.364 . S
C178 C179 1.374 1_554 S
C179 H170 0.930 . S
C179 C178 1.374 1_556 S
C179 C180 1.383 . S
C180 O174 1.412 . S
C180 C179 1.383 . S
C180 C181 1.394 . S
C181 H171 0.929 . S
C181 C177 1.377 1_556 S
C181 C180 1.394 . S
H182 C189 0.929 . S
H183 C192 0.930 . S
H184 C194 0.929 . S
H185 C186 0.969 . S
C186 H185 0.969 . S
C186 O187 1.550 . S
C186 H188 0.973 . S
O187 C186 1.550 . S
O187 C193 1.412 . S
H188 C186 0.973 . S
C189 H182 0.929 . S
C189 C190 1.400 . S
C189 C191 1.364 . S
C190 C189 1.400 . S
C190 C194 1.377 . S
C191 C189 1.364 . S
C191 C192 1.374 . S
C192 H183 0.930 . S
C192 C191 1.374 . S
C192 C193 1.383 . S
C193 O187 1.412 . S
C193 C192 1.383 . S
C193 C194 1.394 . S
C194 H184 0.929 . S
C194 C190 1.377 . S
C194 C193 1.394 . S
H195 C202 0.929 . S
H196 C205 0.930 . S
H197 C207 0.929 . S
H198 C199 0.969 . S
C199 H198 0.969 . S
C199 O200 1.550 . S
C199 H201 0.973 . S
O200 C199 1.550 . S
O200 C206 1.412 . S
H201 C199 0.973 . S
C202 H195 0.929 . S
C202 C203 1.400 . S
C202 C204 1.371 . S
C203 C202 1.400 . S
C203 C207 1.377 . S
C204 C202 1.371 . S
C204 C205 1.367 1_554 S
C205 H196 0.930 . S
C205 C204 1.367 1_556 S
C205 C206 1.383 . S
C206 O200 1.412 . S
C206 C205 1.383 . S
C206 C207 1.394 1_556 S
C207 H197 0.929 . S
C207 C203 1.377 . S
C207 C206 1.394 1_554 S
Zn208 O211 2.025 1_556 S
Zn208 O213 2.053 . S
Zn208 O218 2.077 . S
Zn209 O210 1.962 . S
Zn209 O212 1.986 . S
Zn209 O214 1.996 . S
Zn209 O217 1.943 1_554 S
O210 Zn209 1.962 . S
O210 C215 1.254 . S
O211 Zn208 2.025 1_554 S
O211 C215 1.269 . S
O212 Zn209 1.986 . S
O212 C219 1.262 . S
O213 Zn208 2.053 . S
O213 C221 1.260 . S
O214 Zn209 1.996 . S
O214 C221 1.257 1_554 S
C215 O210 1.254 . S
C215 O211 1.269 . S
C216 O217 1.249 . S
C216 O218 1.270 . S
O217 Zn209 1.943 1_556 S
O217 C216 1.249 . S
O218 Zn208 2.077 . S
O218 C216 1.270 . S
C219 O212 1.262 . S
C219 O220 1.232 . S
O220 C219 1.232 . S
C221 O213 1.260 . S
C221 O214 1.257 1_556 S
Zn222 O225 2.031 . S
Zn222 O227 2.049 . S
Zn222 O232 2.067 . S
Zn223 O224 1.962 . S
Zn223 O226 1.986 . S
Zn223 O228 1.996 . S
Zn223 O231 1.943 . S
O224 Zn223 1.962 . S
O224 C229 1.254 . S
O225 Zn222 2.031 . S
O225 C229 1.269 . S
O226 Zn223 1.986 . S
O226 C233 1.262 . S
O227 Zn222 2.049 . S
O227 C235 1.260 . S
O228 Zn223 1.996 . S
O228 C235 1.257 . S
C229 O224 1.254 . S
C229 O225 1.269 . S
C230 O231 1.249 . S
C230 O232 1.270 . S
O231 Zn223 1.943 . S
O231 C230 1.249 . S
O232 Zn222 2.067 . S
O232 C230 1.270 . S
C233 O226 1.262 . S
C233 O234 1.232 . S
O234 C233 1.232 . S
C235 O227 1.260 . S
C235 O228 1.257 . S
Zn236 O239 2.031 1_556 S
Zn236 O241 2.049 . S
Zn236 O246 2.067 . S
Zn237 O238 1.962 . S
Zn237 O240 1.986 . S
Zn237 O242 1.996 1_554 S
Zn237 O245 1.943 . S
O238 Zn237 1.962 . S
O238 C243 1.254 . S
O239 Zn236 2.031 1_554 S
O239 C243 1.269 . S
O240 Zn237 1.986 . S
O240 C247 1.262 . S
O241 Zn236 2.049 . S
O241 C249 1.260 . S
O242 Zn237 1.996 1_556 S
O242 C249 1.257 . S
C243 O238 1.254 . S
C243 O239 1.269 . S
C244 O245 1.249 . S
C244 O246 1.270 1_554 S
O245 Zn237 1.943 . S
O245 C244 1.249 . S
O246 Zn236 2.067 . S
O246 C244 1.270 1_556 S
C247 O240 1.262 . S
C247 O248 1.232 . S
O248 C247 1.232 . S
C249 O241 1.260 . S
C249 O242 1.257 . S
Zn250 O253 2.031 . S
Zn250 O255 2.049 1_545 S
Zn250 O260 2.067 1_545 S
Zn251 O252 1.962 . S
Zn251 O254 1.986 . S
Zn251 O256 1.996 . S
Zn251 O259 1.943 1_545 S
O252 Zn251 1.962 . S
O252 C257 1.254 . S
O253 Zn250 2.031 . S
O253 C257 1.269 . S
O254 Zn251 1.986 . S
O254 C261 1.262 . S
O255 Zn250 2.049 1_565 S
O255 C263 1.262 . S
O256 Zn251 1.996 . S
O256 C263 1.248 1_545 S
C257 O252 1.254 . S
C257 O253 1.269 . S
C258 O259 1.249 . S
C258 O260 1.270 . S
O259 Zn251 1.943 1_565 S
O259 C258 1.249 . S
O260 Zn250 2.067 1_565 S
O260 C258 1.270 . S
C261 O254 1.262 . S
C261 O262 1.232 . S
O262 C261 1.232 . S
C263 O255 1.262 . S
C263 O256 1.248 1_565 S
Zn264 O267 2.031 . S
Zn264 O269 2.049 . S
Zn264 O274 2.067 . S
Zn265 O266 1.962 . S
Zn265 O268 1.986 . S
Zn265 O270 1.996 . S
Zn265 O273 1.943 . S
O266 Zn265 1.962 . S
O266 C271 1.254 . S
O267 Zn264 2.031 . S
O267 C271 1.269 . S
O268 Zn265 1.986 . S
O268 C275 1.262 . S
O269 Zn264 2.049 . S
O269 C277 1.260 . S
O270 Zn265 1.996 . S
O270 C277 1.257 . S
C271 O266 1.254 . S
C271 O267 1.269 . S
C272 O273 1.249 . S
C272 O274 1.270 . S
O273 Zn265 1.943 . S
O273 C272 1.249 . S
O274 Zn264 2.067 . S
O274 C272 1.270 . S
C275 O268 1.262 . S
C275 O276 1.232 . S
O276 C275 1.232 . S
C277 O269 1.260 . S
C277 O270 1.257 . S
Zn278 O281 2.031 . S
Zn278 O283 2.049 . S
Zn278 O288 2.067 . S
Zn279 O280 1.962 . S
Zn279 O282 1.986 . S
Zn279 O284 1.996 . S
Zn279 O287 1.943 . S
O280 Zn279 1.962 . S
O280 C285 1.254 . S
O281 Zn278 2.031 . S
O281 C285 1.269 . S
O282 Zn279 1.986 . S
O282 C289 1.262 . S
O283 Zn278 2.049 . S
O283 C291 1.260 . S
O284 Zn279 1.996 . S
O284 C291 1.257 . S
C285 O280 1.254 . S
C285 O281 1.269 . S
C286 O287 1.249 . S
C286 O288 1.270 . S
O287 Zn279 1.943 . S
O287 C286 1.249 . S
O288 Zn278 2.067 . S
O288 C286 1.270 . S
C289 O282 1.262 . S
C289 O290 1.232 . S
O290 C289 1.232 . S
C291 O283 1.260 . S
C291 O284 1.257 . S
Zn292 O295 2.031 . S
Zn292 O297 2.049 . S
Zn292 O302 2.067 . S
Zn293 O294 1.962 . S
Zn293 O296 1.986 . S
Zn293 O298 1.996 . S
Zn293 O301 1.943 . S
O294 Zn293 1.962 . S
O294 C299 1.254 . S
O295 Zn292 2.031 . S
O295 C299 1.269 . S
O296 Zn293 1.986 . S
O296 C303 1.262 . S
O297 Zn292 2.049 . S
O297 C305 1.260 . S
O298 Zn293 1.996 . S
O298 C305 1.257 . S
C299 O294 1.254 . S
C299 O295 1.269 . S
C300 O301 1.249 . S
C300 O302 1.270 . S
O301 Zn293 1.943 . S
O301 C300 1.249 . S
O302 Zn292 2.067 . S
O302 C300 1.270 . S
C303 O296 1.262 . S
C303 O304 1.232 . S
O304 C303 1.232 . S
C305 O297 1.260 . S
C305 O298 1.257 . S
Zn306 O309 2.031 . S
Zn306 O311 2.049 . S
Zn306 O316 2.067 . S
Zn307 O308 1.962 . S
Zn307 O310 1.986 . S
Zn307 O312 1.996 1_545 S
Zn307 O315 1.943 . S
O308 Zn307 1.962 . S
O308 C313 1.254 . S
O309 Zn306 2.031 . S
O309 C313 1.269 1_565 S
O310 Zn307 1.986 . S
O310 C317 1.262 . S
O311 Zn306 2.049 . S
O311 C319 1.260 . S
O312 Zn307 1.996 1_565 S
O312 C319 1.257 . S
C313 O308 1.254 . S
C313 O309 1.269 1_545 S
C314 O315 1.249 1_565 S
C314 O316 1.270 . S
O315 Zn307 1.943 . S
O315 C314 1.249 1_545 S
O316 Zn306 2.067 . S
O316 C314 1.270 . S
C317 O310 1.262 . S
C317 O318 1.232 . S
O318 C317 1.232 . S
C319 O311 1.260 . S
C319 O312 1.257 . S
Zn320 O323 2.031 . S
Zn320 O325 2.049 1_455 S
Zn320 O330 2.067 1_455 S
Zn321 O322 1.962 . S
Zn321 O324 1.986 . S
Zn321 O326 1.996 . S
Zn321 O329 1.943 1_455 S
O322 Zn321 1.962 . S
O322 C327 1.254 . S
O323 Zn320 2.031 . S
O323 C327 1.269 . S
O324 Zn321 1.986 . S
O324 C331 1.262 . S
O325 Zn320 2.049 1_655 S
O325 C333 1.260 . S
O326 Zn321 1.996 . S
O326 C333 1.257 1_455 S
C327 O322 1.254 . S
C327 O323 1.269 . S
C328 O329 1.249 . S
C328 O330 1.270 . S
O329 Zn321 1.943 1_655 S
O329 C328 1.249 . S
O330 Zn320 2.067 1_655 S
O330 C328 1.270 . S
C331 O324 1.262 . S
C331 O332 1.232 . S
O332 C331 1.232 . S
C333 O325 1.260 . S
C333 O326 1.257 1_655 S
Zn334 O337 2.031 . S
Zn334 O339 2.049 . S
Zn334 O344 2.067 . S
Zn335 O336 1.962 . S
Zn335 O338 1.986 . S
Zn335 O340 1.996 . S
Zn335 O343 1.943 . S
O336 Zn335 1.962 . S
O336 C341 1.254 . S
O337 Zn334 2.031 . S
O337 C341 1.269 . S
O338 Zn335 1.986 . S
O338 C345 1.262 . S
O339 Zn334 2.049 . S
O339 C347 1.260 . S
O340 Zn335 1.996 . S
O340 C347 1.257 . S
C341 O336 1.254 . S
C341 O337 1.269 . S
C342 O343 1.249 . S
C342 O344 1.270 . S
O343 Zn335 1.943 . S
O343 C342 1.249 . S
O344 Zn334 2.067 . S
O344 C342 1.270 . S
C345 O338 1.262 . S
C345 O346 1.232 . S
O346 C345 1.232 . S
C347 O339 1.260 . S
C347 O340 1.257 . S
Zn348 O351 2.031 1_655 S
Zn348 O353 2.049 . S
Zn348 O358 2.067 . S
Zn349 O350 1.962 . S
Zn349 O352 1.986 . S
Zn349 O354 1.996 1_455 S
Zn349 O357 1.943 . S
O350 Zn349 1.962 . S
O350 C355 1.254 . S
O351 Zn348 2.031 1_455 S
O351 C355 1.269 . S
O352 Zn349 1.986 . S
O352 C359 1.262 . S
O353 Zn348 2.049 . S
O353 C361 1.260 . S
O354 Zn349 1.996 1_655 S
O354 C361 1.257 . S
C355 O350 1.254 . S
C355 O351 1.269 . S
C356 O357 1.249 1_655 S
C356 O358 1.270 . S
O357 Zn349 1.943 . S
O357 C356 1.249 1_455 S
O358 Zn348 2.067 . S
O358 C356 1.270 . S
C359 O352 1.262 . S
C359 O360 1.232 . S
O360 C359 1.232 . S
C361 O353 1.260 . S
C361 O354 1.257 . S
Zn362 O365 2.031 . S
Zn362 O367 2.049 . S
Zn362 O372 2.067 . S
Zn363 O364 1.962 . S
Zn363 O366 1.986 . S
Zn363 O368 1.996 . S
Zn363 O371 1.943 . S
O364 Zn363 1.962 . S
O364 C369 1.254 . S
O365 Zn362 2.031 . S
O365 C369 1.269 . S
O366 Zn363 1.986 . S
O366 C373 1.262 . S
O367 Zn362 2.049 . S
O367 C375 1.260 . S
O368 Zn363 1.996 . S
O368 C375 1.257 . S
C369 O364 1.254 . S
C369 O365 1.269 . S
C370 O371 1.249 . S
C370 O372 1.270 . S
O371 Zn363 1.943 . S
O371 C370 1.249 . S
O372 Zn362 2.067 . S
O372 C370 1.270 . S
C373 O366 1.262 . S
C373 O374 1.232 . S
O374 C373 1.232 . S
C375 O367 1.260 . S
C375 O368 1.257 . S
C216 C73 1.755 . S
C229 C82 1.412 . S
C100 C249 2.167 . S
C263 C56 1.321 . S
C275 C134 1.769 . S
C289 C165 1.740 . S
C147 C299 1.110 . S
C314 C125 2.224 . S
C151 C328 1.610 . S
C347 C121 1.342 . S
C139 C327 1.844 . S
C345 C164 1.450 . S
C95 C361 1.444 . S
C61 C355 1.584 . S
C74 C359 1.539 . S
C86 C356 1.817 . S
C47 C258 1.478 . S
C186 C257 1.278 . S
C221 C204 1.604 1_566 S
C235 C112 1.874 . S
C60 C272 1.448 1_565 S
C317 C152 1.453 . S
C271 C126 1.989 . S
C303 C160 1.445 . S
C300 C190 1.754 . S
C199 C313 1.412 . S
C113 C277 2.167 . S
C291 C173 1.309 . S
C43 C247 1.769 . S
C261 C9 1.740 . S
C215 C17 1.109 . S
C230 C34 2.224 . S
C21 C342 1.610 . S
C30 C333 1.342 . S
C48 C341 1.844 . S
C8 C331 1.450 1_654 S
C375 C108 1.444 . S
C369 C178 1.584 . S
C373 C191 1.539 . S
C203 C370 1.818 . S
C138 C286 1.478 . S
C285 C69 1.278 . S
C305 C87 1.608 . S
C319 C99 1.874 . S
C177 C244 1.448 . S
C233 C22 1.452 . S
C35 C243 1.989 . S
C219 C4 1.445 . S
