# Generated by pormake.
# Topology zzz, (3,6)-cn, num edge types: 1
# Building blocks:
#     Node 0, Type 0, BuildingBlock: MIDCAF_clean_linker_0, # of connection points: 3
#     Node 1, Type 0, BuildingBlock: MIDCAF_clean_linker_0, # of connection points: 3
#     Node 2, Type 0, BuildingBlock: MIDCAF_clean_linker_0, # of connection points: 3
#     Node 3, Type 0, BuildingBlock: MIDCAF_clean_linker_0, # of connection points: 3
#     Node 4, Type 0, BuildingBlock: MIDCAF_clean_linker_0, # of connection points: 3
#     Node 5, Type 0, BuildingBlock: MIDCAF_clean_linker_0, # of connection points: 3
#     Node 6, Type 0, BuildingBlock: MIDCAF_clean_linker_0, # of connection points: 3
#     Node 7, Type 0, BuildingBlock: MIDCAF_clean_linker_0, # of connection points: 3
#     Node 8, Type 1, BuildingBlock: KUMJIN_clean_sbu_1, # of connection points: 6
#     Node 9, Type 1, BuildingBlock: KUMJIN_clean_sbu_1, # of connection points: 6
#     Node 10, Type 1, BuildingBlock: KUMJIN_clean_sbu_1, # of connection points: 6
#     Node 11, Type 1, BuildingBlock: KUMJIN_clean_sbu_1, # of connection points: 6
#     Edge 12, Type (0, 1), BuildingBlock: CIFDUS_clean_linker_0, # of connection points: 2
#     Edge 13, Type (0, 1), BuildingBlock: CIFDUS_clean_linker_0, # of connection points: 2
#     Edge 14, Type (0, 1), BuildingBlock: CIFDUS_clean_linker_0, # of connection points: 2
#     Edge 15, Type (0, 1), BuildingBlock: CIFDUS_clean_linker_0, # of connection points: 2
#     Edge 16, Type (0, 1), BuildingBlock: CIFDUS_clean_linker_0, # of connection points: 2
#     Edge 17, Type (0, 1), BuildingBlock: CIFDUS_clean_linker_0, # of connection points: 2
#     Edge 18, Type (0, 1), BuildingBlock: CIFDUS_clean_linker_0, # of connection points: 2
#     Edge 19, Type (0, 1), BuildingBlock: CIFDUS_clean_linker_0, # of connection points: 2
#     Edge 20, Type (0, 1), BuildingBlock: CIFDUS_clean_linker_0, # of connection points: 2
#     Edge 21, Type (0, 1), BuildingBlock: CIFDUS_clean_linker_0, # of connection points: 2
#     Edge 22, Type (0, 1), BuildingBlock: CIFDUS_clean_linker_0, # of connection points: 2
#     Edge 23, Type (0, 1), BuildingBlock: CIFDUS_clean_linker_0, # of connection points: 2
#     Edge 24, Type (0, 1), BuildingBlock: CIFDUS_clean_linker_0, # of connection points: 2
#     Edge 25, Type (0, 1), BuildingBlock: CIFDUS_clean_linker_0, # of connection points: 2
#     Edge 26, Type (0, 1), BuildingBlock: CIFDUS_clean_linker_0, # of connection points: 2
#     Edge 27, Type (0, 1), BuildingBlock: CIFDUS_clean_linker_0, # of connection points: 2
#     Edge 28, Type (0, 1), BuildingBlock: CIFDUS_clean_linker_0, # of connection points: 2
#     Edge 29, Type (0, 1), BuildingBlock: CIFDUS_clean_linker_0, # of connection points: 2
#     Edge 30, Type (0, 1), BuildingBlock: CIFDUS_clean_linker_0, # of connection points: 2
#     Edge 31, Type (0, 1), BuildingBlock: CIFDUS_clean_linker_0, # of connection points: 2
#     Edge 32, Type (0, 1), BuildingBlock: CIFDUS_clean_linker_0, # of connection points: 2
#     Edge 33, Type (0, 1), BuildingBlock: CIFDUS_clean_linker_0, # of connection points: 2
#     Edge 34, Type (0, 1), BuildingBlock: CIFDUS_clean_linker_0, # of connection points: 2
#     Edge 35, Type (0, 1), BuildingBlock: CIFDUS_clean_linker_0, # of connection points: 2
# Relax obj value: 0.331
# Max RMSD: 0.208
# Mean RMSD: 0.183
data_MOF--net-zzz--node1-KUMJIN_clean_sbu_1--node2-MIDCAF_clean_linker_0--edge1-CIFDUS_clean_linker_0
_symmetry_space_group_name_H-M    P1
_symmetry_Int_Tables_number       1
_symmetry_cell_setting            triclinic
loop_
_symmetry_equiv_pos_as_xyz
'x, y, z'
_cell_length_a     50.363837
_cell_length_b     50.116184
_cell_length_c     18.698465
_cell_angle_alpha  89.806919
_cell_angle_beta   89.924353
_cell_angle_gamma 90.407248
loop_
_atom_site_label
_atom_site_type_symbol
_atom_site_fract_x
_atom_site_fract_y
_atom_site_fract_z
_atom_type_partial_charge
C0 C 0.82697 0.58001 0.37607 0.0
C1 C 0.83065 0.55288 0.39226 0.0
C2 C 0.81147 0.53442 0.36732 0.0
C3 C 0.78992 0.54279 0.3249 0.0
H4 H 0.67799 0.59306 0.19118 0.0
H5 H 0.64021 0.57829 0.11956 0.0
H6 H 0.68677 0.51245 0.04068 0.0
H7 H 0.7239 0.52677 0.11544 0.0
H8 H 0.73971 0.61806 1.01923 0.0
H9 H 0.76782 0.62408 0.91519 0.0
H10 H 0.83402 0.64367 0.05171 0.0
H11 H 0.80615 0.63699 0.15661 0.0
H12 H 0.80428 0.60929 0.32026 0.0
H13 H 0.84128 0.59487 0.39333 0.0
H14 H 0.8134 0.51337 0.37933 0.0
H15 H 0.7762 0.52798 0.30429 0.0
N16 N 0.74449 0.56561 0.2363 0.0
N17 N 0.73616 0.59555 0.14167 0.0
N18 N 0.77507 0.59981 0.20808 0.0
C19 C 0.72826 0.57462 0.18271 0.0
C20 C 0.75956 0.60818 0.15335 0.0
C21 C 0.76783 0.57886 0.25036 0.0
C22 C 0.70364 0.56067 0.16039 0.0
C23 C 0.67962 0.57472 0.16102 0.0
C24 C 0.65816 0.56654 0.11848 0.0
C25 C 0.66035 0.54441 0.07255 0.0
C26 C 0.68397 0.52942 0.07548 0.0
C27 C 0.70532 0.53744 0.11895 0.0
C28 C 0.77121 0.62526 0.0963 0.0
C29 C 0.7599 0.62495 0.02745 0.0
C30 C 0.77599 0.62873 0.9673 0.0
C31 C 0.80336 0.63304 0.9758 0.0
C32 C 0.81306 0.63959 0.04404 0.0
C33 C 0.79709 0.63552 0.10425 0.0
C34 C 0.78722 0.5698 0.30574 0.0
C35 C 0.8057 0.58829 0.3335 0.0
C36 C 1.00907 0.83843 0.33747 0.0
C37 C 0.99307 0.83731 0.39916 0.0
C38 C 0.97563 0.81529 0.40723 0.0
C39 C 0.97349 0.79563 0.35364 0.0
H40 H 0.94951 0.69767 0.18858 0.0
H41 H 0.95273 0.65434 0.12892 0.0
H42 H 0.02618 0.68014 0.02956 0.0
H43 H 0.02333 0.72232 0.09204 0.0
H44 H 0.96642 0.76329 0.96688 0.0
H45 H 0.97154 0.78882 0.85675 0.0
H46 H 0.96973 0.86207 0.97734 0.0
H47 H 0.96462 0.83675 0.08769 0.0
H48 H 0.01814 0.82156 0.23517 0.0
H49 H 0.02246 0.85512 0.3286 0.0
H50 H 0.96309 0.81364 0.45415 0.0
H51 H 0.95898 0.77973 0.35971 0.0
N52 N 0.98508 0.75458 0.22241 0.0
N53 N 0.97319 0.75589 0.10065 0.0
N54 N 0.97482 0.7954 0.16601 0.0
C55 C 0.98043 0.74164 0.15901 0.0
C56 C 0.97012 0.78263 0.10347 0.0
C57 C 0.98197 0.78175 0.22579 0.0
C58 C 0.98656 0.71312 0.14668 0.0
C59 C 0.96699 0.69337 0.15695 0.0
C60 C 0.96859 0.66874 0.12111 0.0
C61 C 0.98954 0.66346 0.07285 0.0
C62 C 1.00991 0.6828 0.06662 0.0
C63 C 1.00841 0.70715 0.10297 0.0
C64 C 0.96599 0.79796 0.03653 0.0
C65 C 0.96634 0.78486 0.97001 0.0
C66 C 0.96916 0.79944 0.9067 0.0
C67 C 0.97143 0.82735 0.90866 0.0
C68 C 0.96794 0.84055 0.97416 0.0
C69 C 0.96529 0.82599 0.03759 0.0
C70 C 0.98851 0.79776 0.29047 0.0
C71 C 1.00662 0.81912 0.28378 0.0
C72 C 0.71801 0.97729 0.42219 0.0
C73 C 0.70715 1.00234 0.40597 0.0
C74 C 0.72001 0.01823 0.35372 0.0
C75 C 0.74171 1.00821 0.31443 0.0
H76 H 0.83259 1.00744 0.20758 0.0
H77 H 0.87246 0.02053 0.14014 0.0
H78 H 0.8667 0.94785 1.01739 0.0
H79 H 0.8283 0.93448 0.08543 0.0
H80 H 0.78008 0.89751 0.08237 0.0
H81 H 0.75027 0.88222 0.98877 0.0
H82 H 0.68319 0.90684 0.11698 0.0
H83 H 0.71258 0.91966 0.21119 0.0
H84 H 0.74609 0.94722 0.39403 0.0
H85 H 0.70907 0.96472 0.46298 0.0
H86 H 0.71219 0.03763 0.33982 0.0
H87 H 0.74965 0.01987 0.27036 0.0
N88 N 0.78975 0.97621 0.24245 0.0
N89 N 0.78874 0.93954 0.16389 0.0
N90 N 0.75436 0.94523 0.24552 0.0
C91 C 0.80146 0.96167 0.18883 0.0
C92 C 0.76525 0.93119 0.19151 0.0
C93 C 0.76621 0.96748 0.27176 0.0
C94 C 0.82684 0.96994 0.15232 0.0
C95 C 0.84007 0.99415 0.16681 0.0
C96 C 0.8629 1.00172 0.12755 0.0
C97 C 0.87311 0.98531 0.07266 0.0
C98 C 0.86009 0.96094 0.05967 0.0
C99 C 0.83758 0.95337 0.09877 0.0
C100 C 0.74873 0.91162 0.15192 0.0
C101 C 0.75887 0.89856 0.09151 0.0
C102 C 0.74167 0.89002 0.0374 0.0
C103 C 0.71432 0.89575 0.04157 0.0
C104 C 0.7041 0.90317 0.10887 0.0
C105 C 0.72119 0.91089 0.1637 0.0
C106 C 0.75105 0.98224 0.32716 0.0
C107 C 0.73956 0.96741 0.38337 0.0
C108 C 0.60548 0.69289 0.13301 0.0
C109 C 0.59389 0.69209 0.06492 0.0
C110 C 0.59078 0.71599 0.02642 0.0
C111 C 0.59484 0.7405 0.06031 0.0
H112 H 0.53315 0.84202 0.19352 0.0
H113 H 0.52536 0.8806 0.11416 0.0
H114 H 0.60305 0.87037 0.02135 0.0
H115 H 0.61076 0.83232 0.09927 0.0
H116 H 0.52091 0.75042 0.28719 0.0
H117 H 0.51168 0.71355 0.36876 0.0
H118 H 0.57893 0.73714 0.49771 0.0
H119 H 0.5886 0.77331 0.41362 0.0
H120 H 0.61568 0.7173 0.22231 0.0
H121 H 0.60842 0.67465 0.1632 0.0
H122 H 0.58197 0.71584 0.97359 0.0
H123 H 0.58894 0.75854 0.03266 0.0
N124 N 0.58951 0.7883 0.15018 0.0
N125 N 0.56434 0.80059 0.25145 0.0
N126 N 0.58248 0.75765 0.2422 0.0
C127 C 0.57579 0.80719 0.18695 0.0
C128 C 0.56827 0.77562 0.27945 0.0
C129 C 0.59304 0.76356 0.17774 0.0
C130 C 0.5724 0.83377 0.15199 0.0
C131 C 0.54878 0.84851 0.1575 0.0
C132 C 0.54432 0.87057 0.11203 0.0
C133 C 0.56342 0.87821 0.06054 0.0
C134 C 0.58774 0.86471 0.05938 0.0
C135 C 0.59214 0.84286 0.10425 0.0
C136 C 0.55518 0.76516 0.3446 0.0
C137 C 0.53274 0.74868 0.33532 0.0
C138 C 0.5277 0.72719 0.38189 0.0
C139 C 0.54495 0.72169 0.43927 0.0
C140 C 0.56559 0.74015 0.4531 0.0
C141 C 0.57075 0.76145 0.40601 0.0
C142 C 0.6019 0.74115 0.13293 0.0
C143 C 0.60964 0.71732 0.1667 0.0
C144 C 0.20902 0.52362 0.96282 0.0
C145 C 0.19898 0.50344 0.91744 0.0
C146 C 0.21026 0.47784 0.9229 0.0
C147 C 0.22945 0.47217 0.97504 0.0
H148 H 0.31541 0.53138 0.15765 0.0
H149 H 0.35525 0.5444 0.22517 0.0
H150 H 0.36482 0.46273 0.29431 0.0
H151 H 0.32553 0.44997 0.2268 0.0
H152 H 0.2646 0.44809 0.33617 0.0
H153 H 0.23781 0.4509 0.44419 0.0
H154 H 0.16778 0.4634 0.31614 0.0
H155 H 0.19437 0.46073 0.20783 0.0
H156 H 0.23449 0.53346 0.05141 0.0
H157 H 0.20078 0.5435 0.96157 0.0
H158 H 0.20371 0.46182 0.88831 0.0
H159 H 0.23638 0.45186 0.9808 0.0
N160 N 0.2784 0.49064 0.10214 0.0
N161 N 0.27474 0.46956 0.21439 0.0
N162 N 0.23784 0.47119 0.13933 0.0
C163 C 0.28976 0.48267 0.16522 0.0
C164 C 0.2488 0.46394 0.20258 0.0
C165 C 0.25238 0.48413 0.08861 0.0
C166 C 0.31741 0.48963 0.18647 0.0
C167 C 0.32669 0.51612 0.18498 0.0
C168 C 0.3493 0.5236 0.2247 0.0
C169 C 0.36321 0.50469 0.26622 0.0
C170 C 0.35493 0.47787 0.26287 0.0
C171 C 0.33233 0.47052 0.22397 0.0
C172 C 0.23181 0.45537 0.26337 0.0
C173 C 0.24334 0.45044 0.33064 0.0
C174 C 0.22801 0.45188 0.39271 0.0
C175 C 0.20092 0.45803 0.38841 0.0
C176 C 0.18867 0.45872 0.32098 0.0
C177 C 0.20402 0.4574 0.25878 0.0
C178 C 0.23849 0.49204 0.02205 0.0
C179 C 0.22853 0.51797 1.01436 0.0
C180 C 0.06772 0.21388 0.93061 0.0
C181 C 0.04048 0.20788 0.92472 0.0
C182 C 0.02241 0.22492 0.95988 0.0
C183 C 0.03145 0.24619 1.00306 0.0
H184 H 0.02312 0.33167 0.13346 0.0
H185 H 1.00938 0.37184 0.19818 0.0
H186 H 0.08787 0.37798 0.29065 0.0
H187 H 0.10163 0.33988 0.22306 0.0
H188 H 0.11121 0.2828 0.31036 0.0
H189 H 0.10941 0.25319 0.41315 0.0
H190 H 0.11087 0.18504 0.27325 0.0
H191 H 0.11222 0.21446 0.16973 0.0
H192 H 0.09788 0.2377 0.98036 0.0
H193 H 0.08242 0.2013 0.90558 0.0
H194 H 1.00124 0.22127 0.95607 0.0
H195 H 0.01714 0.25772 0.03297 0.0
N196 N 0.06072 0.29224 0.08999 0.0
N197 N 0.0891 0.29199 0.18999 0.0
N198 N 0.08708 0.25473 0.11651 0.0
C199 C 0.07142 0.30509 0.14827 0.0
C200 C 0.09694 0.2669 0.17528 0.0
C201 C 0.06929 0.26699 0.07316 0.0
C202 C 0.06343 0.33226 0.17321 0.0
C203 C 0.03756 0.34224 0.16578 0.0
C204 C 0.02961 0.3651 0.20422 0.0
C205 C 0.04727 0.37841 0.25142 0.0
C206 C 0.0735 0.36905 0.25491 0.0
C207 C 0.08142 0.3467 0.21616 0.0
C208 C 0.11002 0.25092 0.23179 0.0
C209 C 0.1125 0.26152 0.30118 0.0
C210 C 0.1118 0.24454 0.36051 0.0
C211 C 0.10887 0.21698 0.35057 0.0
C212 C 0.11255 0.20636 0.28186 0.0
C213 C 0.11307 0.22329 0.22249 0.0
C214 C 0.05878 0.25084 1.01234 0.0
C215 C 0.07666 0.2349 0.97375 0.0
C216 C 0.33736 0.07469 0.99426 0.0
C217 C 0.33775 0.04998 0.95899 0.0
C218 C 0.3158 0.03259 0.96919 0.0
C219 C 0.29456 0.03951 1.01485 0.0
H220 H 0.21804 1.01484 0.17916 0.0
H221 H 0.17888 0.99877 0.24477 0.0
H222 H 0.14877 0.07924 0.25188 0.0
H223 H 0.18719 0.09473 0.18472 0.0
H224 H 0.23746 0.1142 0.3277 0.0
H225 H 0.25431 0.11874 0.44895 0.0
H226 H 0.33441 0.11035 0.36975 0.0
H227 H 0.31775 0.10613 0.249 0.0
H228 H 0.31747 0.10055 0.06671 0.0
H229 H 0.35383 0.08857 0.98913 0.0
H230 H 0.31514 1.01347 0.94246 0.0
H231 H 0.27844 0.02541 0.02296 0.0
N232 N 0.24973 0.05982 0.11131 0.0
N233 N 0.24109 0.08495 0.21487 0.0
N234 N 0.28264 0.08794 0.16072 0.0
C235 C 0.23259 0.06757 0.16447 0.0
C236 C 0.26599 0.09506 0.21417 0.0
C237 C 0.27484 0.0708 0.10834 0.0
C238 C 0.20565 0.05601 0.17606 0.0
C239 C 0.20233 0.02875 0.19146 0.0
C240 C 0.18008 0.0197 0.23064 0.0
C241 C 0.16071 0.03774 0.25569 0.0
C242 C 0.16292 0.06456 0.23381 0.0
C243 C 0.18503 0.07351 0.19473 0.0
C244 C 0.27621 0.10851 0.27912 0.0
C245 C 0.25875 0.11437 0.33572 0.0
C246 C 0.26838 0.11705 0.40535 0.0
C247 C 0.29557 0.11392 0.41932 0.0
C248 C 0.31328 0.11265 0.36115 0.0
C249 C 0.30368 0.11 0.29151 0.0
C250 C 0.29489 0.06389 0.05202 0.0
C251 C 0.3164 0.08149 0.03971 0.0
C252 C 0.42316 0.32859 0.22467 0.0
C253 C 0.42812 0.32078 0.29569 0.0
C254 C 0.43045 0.29346 0.31119 0.0
C255 C 0.43351 0.27518 0.25565 0.0
H256 H 0.53291 0.22161 0.14693 0.0
H257 H 0.54687 0.18517 0.22627 0.0
H258 H 0.46657 0.15439 0.22857 0.0
H259 H 0.45294 0.19044 0.14957 0.0
H260 H 0.46571 0.28374 0.90546 0.0
H261 H 0.4783 0.32193 0.83089 0.0
H262 H 0.53864 0.34339 0.98514 0.0
H263 H 0.52676 0.30434 0.05667 0.0
H264 H 0.4263 0.31779 0.11456 0.0
H265 H 0.42039 0.34946 0.21148 0.0
H266 H 0.4338 0.28667 0.36547 0.0
H267 H 0.43874 0.25488 0.26946 0.0
N268 N 0.46059 0.2452 0.14912 0.0
N269 N 0.49336 0.24873 0.05957 0.0
N270 N 0.46243 0.28317 0.07689 0.0
C271 C 0.48135 0.23441 0.11337 0.0
C272 C 0.48316 0.27296 0.03988 0.0
C273 C 0.45113 0.2696 0.13197 0.0
C274 C 0.49187 0.20882 0.14165 0.0
C275 C 0.51857 0.20641 0.16214 0.0
C276 C 0.52642 0.18574 0.20854 0.0
C277 C 0.50778 0.16692 0.23486 0.0
C278 C 0.48157 0.16825 0.20937 0.0
C279 C 0.47373 0.18897 0.16386 0.0
C280 C 0.4958 0.29058 0.9857 0.0
C281 C 0.48244 0.29603 0.92146 0.0
C282 C 0.48933 0.31837 0.87959 0.0
C283 C 0.50933 0.33637 0.90184 0.0
C284 C 0.52344 0.33006 0.96488 0.0
C285 C 0.51678 0.30748 1.00606 0.0
C286 C 0.43463 0.2842 0.18431 0.0
C287 C 0.4266 0.31041 0.16908 0.0
Eu288 Eu 0.98535 0.03071 0.62901 0.0
C289 C 0.07633 0.06389 0.81192 0.0
N290 N 0.07932 0.05036 0.74964 0.0
C291 C 0.11297 0.08128 0.7111 0.0
C292 C 0.09104 0.08742 0.82503 0.0
C293 C 0.09773 0.05825 0.7 0.0
C294 C 0.10947 0.09606 0.7736 0.0
C295 C 0.05496 0.06793 0.9276 0.0
C296 C 0.0583 0.05429 0.86229 0.0
C297 C 0.06877 0.09195 0.93961 0.0
C298 C 0.0868 0.10164 0.88853 0.0
Eu299 Eu 0.05222 1.01223 0.73405 0.0
N300 N 0.04506 0.03103 0.84911 0.0
C301 C 0.03852 0.05656 0.97996 0.0
C302 C 0.0315 0.01853 0.90316 0.0
C303 C 0.02728 0.03143 0.96832 0.0
H304 H 0.10013 0.047 0.65118 0.0
H305 H 0.01577 0.02175 1.01002 0.0
H306 H 0.93643 0.04017 0.74721 0.0
H307 H 0.98456 0.97305 0.38165 0.0
H308 H 0.02427 0.99836 0.89719 0.0
H309 H 0.03542 0.06641 0.03076 0.0
H310 H 1.00188 1.00587 0.46863 0.0
H311 H 0.12724 0.08775 0.67122 0.0
H312 H 0.06612 0.10286 0.989 0.0
H313 H 0.09759 0.11999 0.89901 0.0
H314 H 0.89286 0.02018 0.77874 0.0
H315 H 0.1211 0.11407 0.78169 0.0
H316 H 0.94189 0.94979 0.40508 0.0
N317 N 0.94242 1.01482 0.65814 0.0
C318 C 0.93177 0.99609 0.61424 0.0
C319 C 0.90367 1.01306 0.73261 0.0
C320 C 0.90673 0.98455 0.62888 0.0
C321 C 0.92848 0.02407 0.71536 0.0
C322 C 0.89285 0.99301 0.68958 0.0
N323 N 0.96961 1.00074 0.54092 0.0
C324 C 0.98321 0.99589 0.47909 0.0
C325 C 0.93495 0.97025 0.50516 0.0
C326 C 0.94562 0.98907 0.55324 0.0
C327 C 0.94934 0.96425 0.4432 0.0
C328 C 0.97345 0.97732 0.4298 0.0
H329 H 0.87358 0.9846 0.70282 0.0
H330 H 0.87711 0.95607 0.59264 0.0
H331 H 0.90188 0.94349 0.48436 0.0
O332 O 0.99086 0.06255 0.55135 0.0
O333 O 0.99478 0.98628 0.62277 0.0
O334 O 0.03823 0.97909 0.66024 0.0
O335 O 0.95323 0.05873 0.60684 0.0
O336 O 0.02385 0.0345 0.56292 0.0
O337 O 0.05927 1.01203 0.61527 0.0
O338 O 0.0707 0.98371 0.8072 0.0
O339 O 0.04307 0.05439 0.69314 0.0
O340 O 0.99961 0.05678 0.72039 0.0
O341 O 0.09325 0.9995 0.71905 0.0
O342 O 0.01279 0.99376 0.77323 0.0
O343 O 0.98585 0.02892 0.74972 0.0
C344 C 0.01616 0.97139 0.62831 0.0
C345 C 0.97147 0.10214 0.58983 0.0
C346 C 0.99452 0.14434 0.56986 0.0
C347 C 0.98673 0.15306 0.63787 0.0
C348 C 0.96335 0.11116 0.65756 0.0
C349 C 0.97075 0.13665 0.68095 0.0
C350 C 0.98644 0.11911 0.54595 0.0
C351 C 0.04806 0.02431 0.56099 0.0
C352 C 0.96855 0.07407 0.56806 0.0
C353 C 0.89624 0.9653 0.58207 0.0
C354 C 0.91032 0.95817 0.52034 0.0
C355 C 0.0229 0.06834 0.7163 0.0
C356 C 0.09676 0.95368 0.73932 0.0
C357 C 0.07992 0.90902 0.7111 0.0
C358 C 0.10231 0.90479 0.6677 0.0
C359 C 0.1191 0.94896 0.69635 0.0
C360 C 0.07758 0.93344 0.74731 0.0
C361 C 0.12184 0.92461 0.66093 0.0
C362 C 0.9905 1.00675 0.78449 0.0
C363 C 0.09156 0.98076 0.76676 0.0
H364 H 0.99296 0.17243 0.65746 0.0
H365 H 0.95216 0.09827 0.69333 0.0
H366 H 0.96479 0.14337 0.73349 0.0
H367 H 0.99327 0.11196 0.49441 0.0
H368 H 0.10465 0.8863 0.63866 0.0
H369 H 0.13401 0.96438 0.68851 0.0
H370 H 0.06059 0.93681 0.78157 0.0
H371 H 0.13896 0.92124 0.62719 0.0
Eu372 Eu 0.53629 0.05457 0.71866 0.0
C373 C 0.51409 0.94095 0.544 0.0
N374 N 0.5134 0.96733 0.52775 0.0
C375 C 0.52899 0.95836 0.4092 0.0
C376 C 0.52275 0.92211 0.49346 0.0
C377 C 0.52012 0.97627 0.46112 0.0
C378 C 0.53052 0.93118 0.4256 0.0
C379 C 0.50455 0.9054 0.6287 0.0
C380 C 0.50512 0.93271 0.61058 0.0
C381 C 0.51389 0.88656 0.57936 0.0
C382 C 0.52297 0.8949 0.51187 0.0
Eu383 Eu 0.50053 0.99621 0.62054 0.0
N384 N 0.49597 0.95136 0.6566 0.0
C385 C 0.49416 0.89786 0.69537 0.0
C386 C 0.48489 0.94416 0.72046 0.0
C387 C 0.48408 0.91732 0.74119 0.0
H388 H 0.51913 0.99727 0.4484 0.0
H389 H 0.47573 0.91167 0.79245 0.0
H390 H 0.49975 0.05263 0.86999 0.0
H391 H 0.58663 0.13888 0.5929 0.0
H392 H 0.47717 0.95922 0.75597 0.0
H393 H 0.49344 0.87707 0.71145 0.0
H394 H 0.57633 0.09118 0.61568 0.0
H395 H 0.53469 0.96553 0.35668 0.0
H396 H 0.51378 0.86548 0.59242 0.0
H397 H 0.52972 0.88012 0.47394 0.0
H398 H 0.47803 0.08415 0.95189 0.0
H399 H 0.53734 0.91735 0.38525 0.0
H400 H 0.56446 0.17379 0.66438 0.0
N401 N 0.51662 0.08305 0.80412 0.0
C402 C 0.52017 0.10964 0.7938 0.0
C403 C 0.48982 0.0916 0.90758 0.0
C404 C 0.50832 0.12841 0.83967 0.0
C405 C 0.50221 0.07378 0.86102 0.0
C406 C 0.49272 0.11905 0.89659 0.0
N407 N 0.54841 0.09935 0.69768 0.0
C408 C 0.56665 0.10638 0.64698 0.0
C409 C 0.54193 0.14543 0.7282 0.0
C410 C 0.53663 0.11805 0.73884 0.0
C411 C 0.55987 0.15295 0.67437 0.0
C412 C 0.57248 0.13331 0.63401 0.0
H413 H 0.4832 0.13281 0.93294 0.0
H414 H 0.50374 0.17052 0.86241 0.0
H415 H 0.53325 0.18544 0.76481 0.0
O416 O 0.56801 0.02697 0.74218 0.0
O417 O 0.52572 0.068 0.60617 0.0
O418 O 0.50902 0.03111 0.5448 0.0
O419 O 0.56895 0.0677 0.78814 0.0
O420 O 0.56024 0.04124 0.62125 0.0
O421 O 0.54362 0.99992 0.58574 0.0
O422 O 0.46773 0.0213 0.58739 0.0
O423 O 0.52503 0.98455 0.71781 0.0
O424 O 0.52279 0.02065 0.79244 0.0
O425 O 0.46403 0.97789 0.58072 0.0
O426 O 0.48034 1.0101 0.72249 0.0
O427 O 0.49081 0.05446 0.71837 0.0
C428 C 0.51596 0.05659 0.54825 0.0
C429 C 0.60499 0.03732 0.81925 0.0
C430 C 0.63506 1.00337 0.86369 0.0
C431 C 0.65337 0.02353 0.88204 0.0
C432 C 0.62326 0.05726 0.83863 0.0
C433 C 0.64739 0.05032 0.86989 0.0
C434 C 0.61081 1.0104 0.8327 0.0
C435 C 0.56251 0.01831 0.58708 0.0
C436 C 0.58026 0.0443 0.78285 0.0
C437 C 0.51279 0.15579 0.828 0.0
C438 C 0.52959 0.16429 0.77241 0.0
C439 C 0.52642 0.99496 0.78208 0.0
C440 C 0.4262 1.00275 0.61738 0.0
C441 C 0.38784 0.02995 0.64886 0.0
C442 C 0.37923 1.00977 0.69609 0.0
C443 C 0.41736 0.98283 0.66499 0.0
C444 C 0.41125 0.02601 0.60929 0.0
C445 C 0.39389 0.98634 0.70376 0.0
C446 C 0.47436 0.03501 0.73611 0.0
C447 C 0.45171 1.00083 0.57901 0.0
H448 H 0.67215 0.01855 0.90677 0.0
H449 H 0.61906 0.07812 0.82862 0.0
H450 H 0.66153 0.06572 0.88451 0.0
H451 H 0.59668 0.99488 0.81838 0.0
H452 H 0.36133 1.01215 0.72747 0.0
H453 H 0.42867 0.96478 0.67306 0.0
H454 H 0.41787 0.04095 0.57105 0.0
H455 H 0.38723 0.971 0.74066 0.0
Eu456 Eu 0.54434 0.51787 0.60497 0.0
C457 C 0.45548 0.49322 0.81382 0.0
N458 N 0.45283 0.50629 0.75033 0.0
C459 C 0.41408 0.48044 0.72224 0.0
C460 C 0.43751 0.47272 0.83326 0.0
C461 C 0.43235 0.50058 0.705 0.0
C462 C 0.41674 0.46635 0.78641 0.0
C463 C 0.4783 0.48801 0.92727 0.0
C464 C 0.4761 0.50052 0.85976 0.0
C465 C 0.46102 0.46694 0.94551 0.0
C466 C 0.44073 0.4593 0.89862 0.0
Eu467 Eu 0.48471 0.53966 0.72629 0.0
N468 N 0.49264 0.52106 0.84106 0.0
C469 C 0.49691 0.49793 0.97607 0.0
C470 C 0.50823 0.5328 0.89199 0.0
C471 C 0.51139 0.5209 0.95906 0.0
H472 H 0.43021 0.51154 0.65553 0.0
H473 H 0.52441 0.52992 0.99829 0.0
H474 H 0.60041 0.51464 0.70227 0.0
H475 H 0.52262 0.57583 0.3647 0.0
H476 H 0.51762 0.55187 0.88245 0.0
H477 H 0.4991 0.48897 0.02853 0.0
H478 H 0.51379 0.54283 0.46029 0.0
H479 H 0.39797 0.47577 0.68603 0.0
H480 H 0.4627 0.45693 0.99675 0.0
H481 H 0.42728 0.44331 0.91406 0.0
H482 H 0.6442 0.53694 0.70723 0.0
H483 H 0.40258 0.4507 0.79947 0.0
H484 H 0.56557 0.60008 0.3611 0.0
N485 N 0.58727 0.53693 0.6122 0.0
C486 C 0.59366 0.55526 0.56117 0.0
C487 C 0.63012 0.54239 0.66611 0.0
C488 C 0.6186 0.56825 0.56139 0.0
C489 C 0.60518 0.53 0.66362 0.0
C490 C 0.63683 0.56168 0.61499 0.0
N491 N 0.55106 0.54879 0.51099 0.0
C492 C 0.53253 0.55333 0.45932 0.0
C493 C 0.58108 0.58013 0.45494 0.0
C494 C 0.57517 0.56113 0.50854 0.0
C495 C 0.56183 0.58555 0.40302 0.0
C496 C 0.53752 0.57196 0.40499 0.0
H497 H 0.65619 0.57123 0.61704 0.0
H498 H 0.64355 0.59754 0.50778 0.0
H499 H 0.61068 0.60798 0.41472 0.0
O500 O 0.54031 0.49029 0.51639 0.0
O501 O 0.53767 0.56291 0.61837 0.0
O502 O 0.49256 0.56655 0.63121 0.0
O503 O 0.576 0.48955 0.58058 0.0
O504 O 0.5026 0.50946 0.56021 0.0
O505 O 0.47133 0.53767 0.6107 0.0
O506 O 0.47959 0.57945 0.76946 0.0
O507 O 0.48884 0.49554 0.69623 0.0
O508 O 0.5335 0.49004 0.69667 0.0
O509 O 0.44577 0.55329 0.76439 0.0
O510 O 0.52729 0.55173 0.75773 0.0
O511 O 0.55196 0.5159 0.72389 0.0
C512 C 0.51566 0.57686 0.61343 0.0
C513 C 0.55655 0.44811 0.5463 0.0
C514 C 0.53065 0.40847 0.51528 0.0
C515 C 0.5402 0.39554 0.57675 0.0
C516 C 0.56619 0.43481 0.60722 0.0
C517 C 0.5581 0.40861 0.62199 0.0
C518 C 0.53915 0.43462 0.50032 0.0
C519 C 0.47913 0.52118 0.56001 0.0
C520 C 0.56139 0.47685 0.53412 0.0
C521 C 0.62453 0.5873 0.50831 0.0
C522 C 0.60583 0.59322 0.45524 0.0
C523 C 0.50961 0.48047 0.70765 0.0
C524 C 0.45338 0.57698 0.87246 0.0
C525 C 0.47665 0.59142 0.9803 0.0
C526 C 0.46225 0.57241 0.02034 0.0
C527 C 0.43899 0.5582 0.91329 0.0
C528 C 0.47061 0.59467 0.90755 0.0
C529 C 0.44308 0.55637 0.98711 0.0
C530 C 0.54815 0.53631 0.76604 0.0
C531 C 0.45587 0.57448 0.79393 0.0
H532 H 0.5341 0.37529 0.5893 0.0
H533 H 0.57936 0.4448 0.64441 0.0
H534 H 0.56542 0.39855 0.66925 0.0
H535 H 0.53126 0.445 0.45408 0.0
H536 H 0.46634 0.56927 0.07654 0.0
H537 H 0.42565 0.54409 0.88792 0.0
H538 H 0.48101 0.60973 0.87635 0.0
H539 H 0.43236 0.54149 1.01801 0.0
Eu540 Eu 0.02871 0.55592 0.59995 0.0
C541 C 0.01883 0.43507 0.73411 0.0
N542 N 1.00425 0.44788 0.68391 0.0
C543 C 1.00084 0.40762 0.61555 0.0
C544 C 0.02559 0.40799 0.72622 0.0
C545 C 0.99439 0.43441 0.62646 0.0
C546 C 0.01679 0.39442 0.66527 0.0
C547 C 0.03981 0.43592 0.8506 0.0
C548 C 0.02587 0.44879 0.79516 0.0
C549 C 0.04739 0.40919 0.84219 0.0
C550 C 0.04033 0.39525 0.78005 0.0
Eu551 Eu 0.99597 0.49371 0.70253 0.0
N552 N 0.01847 0.47464 0.80108 0.0
C553 C 0.04534 0.45024 0.91309 0.0
C554 C 0.02246 0.48826 0.86338 0.0
C555 C 0.03633 0.47643 0.91982 0.0
H556 H 0.98122 0.44429 0.58956 0.0
H557 H 0.04005 0.48749 0.96844 0.0
H558 H 0.99844 0.60603 0.68363 0.0
H559 H 0.02297 0.52617 0.31788 0.0
H560 H 0.01548 0.5085 0.8686 0.0
H561 H 0.05606 0.4411 0.95689 0.0
H562 H 0.04319 0.52872 0.43713 0.0
H563 H 0.99329 0.39713 0.56925 0.0
H564 H 0.05832 0.399 0.88388 0.0
H565 H 0.04588 0.3745 0.77479 0.0
H566 H 0.96291 0.63887 0.65933 0.0
H567 H 0.02158 0.37361 0.65709 0.0
H568 H 0.98314 0.5528 0.29003 0.0
N569 N 0.99508 0.58768 0.58178 0.0
C570 C 0.98372 0.58807 0.51588 0.0
C571 C 0.96849 0.62461 0.61874 0.0
C572 C 0.96317 0.60612 0.50011 0.0
C573 C 0.98855 0.60613 0.63232 0.0
C574 C 0.95553 0.62441 0.55266 0.0
N575 N 0.01313 0.5537 0.48032 0.0
C576 C 0.02492 0.53919 0.42751 0.0
C577 C 0.98096 0.57018 0.39572 0.0
C578 C 0.99255 0.5702 0.46441 0.0
C579 C 0.99149 0.5534 0.34339 0.0
C580 C 0.01389 0.53824 0.35898 0.0
H581 H 0.93983 0.63859 0.54254 0.0
H582 H 0.9349 0.61884 0.41992 0.0
H583 H 0.95048 0.58744 0.32851 0.0
O584 O 0.05741 0.57689 0.53176 0.0
O585 O 0.98439 0.55183 0.62777 0.0
O586 O 0.97753 0.50879 0.60068 0.0
O587 O 0.04851 0.59223 0.63649 0.0
O588 O 0.0412 0.51484 0.55923 0.0
O589 O 1.00392 0.48943 0.58265 0.0
O590 O 0.96459 0.50627 0.77375 0.0
O591 O 0.03975 0.49995 0.72865 0.0
O592 O 0.06044 0.52901 0.64788 0.0
O593 O 0.96022 0.46896 0.71696 0.0
O594 O 0.99397 0.53472 0.75755 0.0
O595 O 0.03079 0.55848 0.72001 0.0
C596 C 0.96919 0.53329 0.59962 0.0
C597 C 0.09284 0.59448 0.60092 0.0
C598 C 0.13582 0.57224 0.60937 0.0
C599 C 0.14498 0.59313 0.65335 0.0
C600 C 0.10244 0.61512 0.6444 0.0
C601 C 0.12841 0.61444 0.67027 0.0
C602 C 0.10972 0.57338 0.58281 0.0
C603 C 0.0265 0.49332 0.54833 0.0
C604 C 0.06448 0.59343 0.58201 0.0
C605 C 0.95096 0.60538 0.4327 0.0
C606 C 0.95978 0.58742 0.38073 0.0
C607 C 0.061 0.5116 0.70109 0.0
C608 C 0.92189 0.49616 0.73325 0.0
C609 C 0.88492 0.52629 0.75575 0.0
C610 C 0.87293 0.51786 0.6918 0.0
C611 C 0.90959 0.48768 0.66981 0.0
C612 C 0.90945 0.51542 0.77537 0.0
C613 C 0.8852 0.49855 0.64935 0.0
C614 C 0.01227 0.5533 0.76738 0.0
C615 C 0.94846 0.48711 0.75517 0.0
H616 H 0.16479 0.59288 0.67569 0.0
H617 H 0.08963 0.63142 0.65974 0.0
H618 H 0.13561 0.63029 0.70449 0.0
H619 H 0.10235 0.55777 0.54808 0.0
H620 H 0.85394 0.52577 0.67532 0.0
H621 H 0.91894 0.47311 0.63555 0.0
H622 H 0.91933 0.52236 0.82343 0.0
H623 H 0.87584 0.49209 0.60025 0.0
H624 H 0.10909 0.0555 0.2739 0.0
H625 H 0.16686 1.00218 0.36602 0.0
H626 H 0.1368 0.99237 0.4646 0.0
H627 H 0.09561 1.00097 0.53 0.0
H628 H 0.03788 0.05511 0.44171 0.0
H629 H 0.06651 0.06264 0.33754 0.0
C630 C 0.11517 0.04169 0.31536 0.0
C631 C 0.1405 0.02964 0.31145 0.0
C632 C 0.09784 0.03643 0.3735 0.0
C633 C 0.14753 1.01148 0.36584 0.0
C634 C 0.13039 1.00604 0.42314 0.0
C635 C 0.08909 1.01438 0.48801 0.0
C636 C 0.06452 0.02759 0.49461 0.0
C637 C 0.10571 0.01871 0.42823 0.0
C638 C 0.05659 0.04464 0.43871 0.0
C639 C 0.07304 0.04902 0.37896 0.0
H640 H 0.49219 0.1145 0.25232 0.0
H641 H 0.53819 0.17684 0.35311 0.0
H642 H 0.54538 0.14824 0.45702 0.0
H643 H 0.53641 0.10665 0.52279 0.0
H644 H 0.49069 0.04398 0.42271 0.0
H645 H 0.4854 0.07165 0.31598 0.0
C646 C 0.50389 0.12182 0.29684 0.0
C647 C 0.5146 0.14795 0.29431 0.0
C648 C 0.50781 0.10527 0.35719 0.0
C649 C 0.52999 0.15681 0.35254 0.0
C650 C 0.53391 0.14051 0.41256 0.0
C651 C 0.52543 0.09886 0.4777 0.0
C652 C 0.51394 0.07312 0.48164 0.0
C653 C 0.52259 0.11486 0.41599 0.0
C654 C 0.49984 0.0636 0.42182 0.0
C655 C 0.49675 0.07948 0.36052 0.0
H656 H 0.4099 0.47919 0.2992 0.0
H657 H 0.36391 0.54864 0.35297 0.0
H658 H 0.39551 0.56001 0.44704 0.0
H659 H 0.43515 0.54921 0.51864 0.0
H660 H 0.48133 0.4799 0.4646 0.0
H661 H 0.45067 0.46945 0.36742 0.0
C662 C 0.40678 0.49686 0.33133 0.0
C663 C 0.38436 0.51297 0.31845 0.0
C664 C 0.425 0.50322 0.38619 0.0
C665 C 0.38104 0.536 0.36042 0.0
C666 C 0.39902 0.5424 0.41498 0.0
C667 C 0.43854 0.5318 0.48568 0.0
C668 C 0.46054 0.51531 0.49969 0.0
C669 C 0.42089 0.52599 0.42906 0.0
C670 C 0.46466 0.49302 0.45549 0.0
C671 C 0.44707 0.48698 0.39971 0.0
H672 H 0.07665 0.42062 0.30657 0.0
H673 H 0.99756 0.38649 0.31019 0.0
H674 H 0.98404 0.41962 0.39756 0.0
H675 H 0.99484 0.45724 0.47727 0.0
H676 H 0.07509 0.48773 0.48432 0.0
H677 H 0.08786 0.45696 0.38934 0.0
C678 C 0.05649 0.41996 0.32675 0.0
C679 C 0.03835 0.40051 0.3008 0.0
C680 C 0.049 0.43847 0.37977 0.0
C681 C 0.0121 0.40115 0.32709 0.0
C682 C 1.00433 0.42002 0.37815 0.0
C683 C 0.01527 0.45682 0.45938 0.0
C684 C 0.03404 0.47458 0.4895 0.0
C685 C 0.02268 0.43853 0.40571 0.0
C686 C 0.06017 0.47433 0.46276 0.0
C687 C 0.06751 0.45667 0.4083 0.0
H688 H 0.91228 0.95418 1.01215 0.0
H689 H 0.88613 0.03592 0.02649 0.0
H690 H 0.92106 0.04964 0.94366 0.0
H691 H 0.95761 0.03847 0.86208 0.0
H692 H 0.98207 0.95664 0.84033 0.0
H693 H 0.94935 0.94303 0.93099 0.0
C694 C 0.91399 0.97502 0.99704 0.0
C695 C 0.89617 0.99388 0.02616 0.0
C696 C 0.93386 0.98279 0.94756 0.0
C697 C 0.8995 0.02086 1.00653 0.0
C698 C 0.91942 0.02876 0.95834 0.0
C699 C 0.95563 0.01758 0.87657 0.0
C700 C 0.97193 0.99852 0.84308 0.0
C701 C 0.93645 1.00988 0.92774 0.0
C702 C 0.9697 0.97171 0.86468 0.0
C703 C 0.9509 0.96393 0.9164 0.0
H704 H 0.54378 0.92948 0.07099 0.0
H705 H 0.56945 0.87064 0.91843 0.0
H706 H 0.56054 0.9013 0.82022 0.0
H707 H 0.54545 0.94448 0.77662 0.0
H708 H 0.52083 1.00476 0.92627 0.0
H709 H 0.52947 0.97414 0.02609 0.0
C710 C 0.54731 0.92344 1.01621 0.0
C711 C 0.55734 0.89774 1.00228 0.0
C712 C 0.54243 0.94147 0.95929 0.0
C713 C 0.56201 0.89031 0.93088 0.0
C714 C 0.55685 0.90783 0.87452 0.0
C715 C 0.54189 0.95102 0.83101 0.0
C716 C 0.53227 0.9769 0.84361 0.0
C717 C 0.54708 0.93343 0.88798 0.0
C718 C 0.52817 0.98498 0.91476 0.0
C719 C 0.53306 0.96742 0.97195 0.0
H720 H 0.62848 0.5795 0.99947 0.0
H721 H 0.64406 0.49525 0.02196 0.0
H722 H 0.61164 0.4855 0.92857 0.0
H723 H 0.57885 0.50083 0.83917 0.0
H724 H 0.5615 0.58473 0.82248 0.0
H725 H 0.5945 0.59447 0.91516 0.0
C726 C 0.62455 0.5589 0.9853 0.0
C727 C 0.63905 0.53822 1.01846 0.0
C728 C 0.60549 0.55332 0.93207 0.0
C729 C 0.63376 0.51175 0.99722 0.0
C730 C 0.61502 0.50609 0.94383 0.0
C731 C 0.58229 0.52126 0.8559 0.0
C732 C 0.56784 0.54205 0.82349 0.0
C733 C 0.60088 0.52672 0.9105 0.0
C734 C 0.57229 0.56837 0.84647 0.0
C735 C 0.5911 0.57396 0.89958 0.0
H736 H 0.03181 0.63518 1.01843 0.0
H737 H 0.9461 0.63732 1.01507 0.0
H738 H 0.94531 0.60163 0.92696 0.0
H739 H 0.96902 0.5722 0.84152 0.0
H740 H 0.05463 0.57366 0.83799 0.0
H741 H 0.05526 0.60559 0.93622 0.0
C742 C 0.01286 0.62809 0.99845 0.0
C743 C 0.98908 0.63944 0.02417 0.0
C744 C 0.01249 0.60812 0.94536 0.0
C745 C 0.96485 0.62905 0.99803 0.0
C746 C 0.96433 0.60869 0.9466 0.0
C747 C 0.98777 0.57923 0.86309 0.0
C748 C 0.01176 0.57049 0.83229 0.0
C749 C 0.98803 0.59837 0.91873 0.0
C750 C 0.03588 0.58011 0.86033 0.0
C751 C 0.03627 0.59842 0.91662 0.0
H752 H 0.06157 0.1959 0.32367 0.0
H753 H 0.11822 0.20691 0.49364 0.0
H754 H 0.08664 0.18677 0.57936 0.0
H755 H 0.04251 0.1661 0.60412 0.0
H756 H 0.9863 0.15748 0.43173 0.0
H757 H 0.01805 0.1773 0.34823 0.0
C758 C 0.06727 0.19334 0.37923 0.0
C759 C 0.0924 0.20194 0.40225 0.0
C760 C 0.04889 0.1828 0.42761 0.0
C761 C 0.09916 0.19971 0.4748 0.0
C762 C 0.08105 0.18851 0.5236 0.0
C763 C 0.0372 0.16902 0.54853 0.0
C764 C 0.01224 0.16037 0.52373 0.0
C765 C 0.05574 0.18016 0.50056 0.0
C766 C 1.00548 0.16399 0.45161 0.0
C767 C 0.02363 0.17512 0.40391 0.0
H768 H 0.341 0.12752 0.49118 0.0
H769 H 0.2707 0.07804 0.5063 0.0
H770 H 0.2921 0.04997 0.59463 0.0
H771 H 0.33402 0.03287 0.64057 0.0
H772 H 0.40496 0.08139 0.62546 0.0
H773 H 0.3801 0.11626 0.56424 0.0
C774 C 0.33011 0.11113 0.51568 0.0
C775 C 0.30459 0.10454 0.4906 0.0
C776 C 0.34291 0.09432 0.56477 0.0
C777 C 0.29042 0.08362 0.52409 0.0
C778 C 0.30279 0.06722 0.5741 0.0
C779 C 0.34391 0.05146 0.62659 0.0
C780 C 0.37155 0.05399 0.63462 0.0
C781 C 0.32958 0.07134 0.59091 0.0
C782 C 0.38387 0.07845 0.61694 0.0
C783 C 0.36967 0.09846 0.58214 0.0
H784 H 0.46447 0.35836 0.26515 0.0
H785 H 0.41922 0.32545 0.44091 0.0
H786 H 0.44687 0.35054 0.52576 0.0
H787 H 0.48653 0.37886 0.54919 0.0
H788 H 0.53264 0.40837 0.37041 0.0
H789 H 0.50179 0.38761 0.28726 0.0
C790 C 0.45993 0.35731 0.32183 0.0
C791 C 0.43955 0.34033 0.34662 0.0
C792 C 0.47644 0.37079 0.36976 0.0
C793 C 0.43466 0.33858 0.42054 0.0
C794 C 0.45062 0.3527 0.46894 0.0
C795 C 0.48982 0.38057 0.49202 0.0
C796 C 0.51185 0.3951 0.46598 0.0
C797 C 0.4721 0.36823 0.44415 0.0
C798 C 0.51571 0.39752 0.3918 0.0
C799 C 0.49811 0.38564 0.34418 0.0
H800 H 0.22008 0.49849 0.46606 0.0
H801 H 0.15128 0.44755 0.44382 0.0
H802 H 0.12609 0.47673 0.52387 0.0
H803 H 0.1222 0.5199 0.58445 0.0
H804 H 0.18964 0.57385 0.5868 0.0
H805 H 0.21716 0.53968 0.53372 0.0
C806 C 0.19985 0.49324 0.48072 0.0
C807 C 0.18755 0.47085 0.44968 0.0
C808 C 0.18521 0.51084 0.5229 0.0
C809 C 0.16112 0.46464 0.46753 0.0
C810 C 0.14674 0.48142 0.51277 0.0
C811 C 0.14287 0.52436 0.57308 0.0
C812 C 0.1535 0.54987 0.58828 0.0
C813 C 0.15828 0.50519 0.53805 0.0
C814 C 0.18071 0.55457 0.57615 0.0
C815 C 0.1965 0.53507 0.54492 0.0
H816 H 0.01476 0.81347 0.83398 0.0
H817 H 0.95543 0.87481 0.84969 0.0
H818 H 0.9825 0.90427 0.77384 0.0
H819 H 0.02628 0.91502 0.72409 0.0
H820 H 0.0876 0.85519 0.72396 0.0
H821 H 0.05607 0.82227 0.76967 0.0
C822 C 1.00727 0.83291 0.81861 0.0
C823 C 0.98324 0.84207 0.84759 0.0
C824 C 0.0235 0.85009 0.77841 0.0
C825 C 0.97397 0.86745 0.82822 0.0
C826 C 0.9895 0.88429 0.78528 0.0
C827 C 0.03273 0.89472 0.73337 0.0
C828 C 0.05952 0.88784 0.72243 0.0
C829 C 0.0149 0.87628 0.76349 0.0
C830 C 0.06721 0.86118 0.73216 0.0
C831 C 0.04923 0.84235 0.75905 0.0
H832 H 0.6597 0.89713 0.01998 0.0
H833 H 0.73415 0.91115 0.90959 0.0
H834 H 0.71312 0.94296 0.8323 0.0
H835 H 0.67846 0.97664 0.82167 0.0
H836 H 0.60534 0.96703 0.93904 0.0
H837 H 0.62107 0.9247 0.98887 0.0
C838 C 0.67138 0.90689 0.97866 0.0
C839 C 0.69912 0.90296 0.97537 0.0
C840 C 0.65961 0.92701 0.93712 0.0
C841 C 0.71308 0.91409 0.91673 0.0
C842 C 0.70113 0.93287 0.87245 0.0
C843 C 0.6658 0.9649 0.85693 0.0
C844 C 0.64132 0.97517 0.87887 0.0
C845 C 0.67522 0.94113 0.88661 0.0
C846 C 0.62457 0.95962 0.92268 0.0
C847 C 0.63359 0.93548 0.95127 0.0
H848 H 0.55675 0.66682 0.14285 0.0
H849 H 0.59524 0.66575 0.9368 0.0
H850 H 0.56337 0.63201 0.89521 0.0
H851 H 0.52342 0.60513 0.91581 0.0
H852 H 0.48113 0.61176 0.11622 0.0
H853 H 0.51677 0.63981 0.16353 0.0
C854 C 0.55868 0.65852 0.08958 0.0
C855 C 0.57854 0.66827 0.04316 0.0
C856 C 0.53976 0.64005 0.06548 0.0
C857 C 0.58031 0.65817 0.97351 0.0
C858 C 0.56207 0.63901 0.94986 0.0
C859 C 0.52164 0.61301 0.96952 0.0
C860 C 0.49916 0.60678 1.01173 0.0
C861 C 0.54143 0.63026 0.99497 0.0
C862 C 0.49807 0.61616 0.0824 0.0
C863 C 0.51837 0.63238 0.10933 0.0
H864 H 0.83836 0.59517 1.00492 0.0
H865 H 0.8069 0.64106 0.82955 0.0
H866 H 0.83043 0.61231 0.74415 0.0
H867 H 0.85744 0.57179 0.72075 0.0
H868 H 0.88302 0.52403 0.90057 0.0
H869 H 0.86439 0.55603 0.9829 0.0
C870 C 0.8373 0.59952 0.94808 0.0
C871 C 0.82151 0.6206 0.92353 0.0
C872 C 0.84949 0.58223 0.90013 0.0
C873 C 0.81941 0.62522 0.84959 0.0
C874 C 0.83259 0.60861 0.80097 0.0
C875 C 0.85873 0.56835 0.77792 0.0
C876 C 0.872 0.54568 0.80426 0.0
C877 C 0.84715 0.58658 0.82571 0.0
C878 C 0.87357 0.54158 0.8786 0.0
C879 C 0.8628 0.55982 0.92594 0.0
H880 H 0.06086 0.18469 0.80285 0.0
H881 H 1.00009 0.17347 0.96337 0.0
H882 H 0.98821 0.13047 0.91107 0.0
H883 H 0.99691 0.09425 0.8243 0.0
H884 H 0.05829 0.10516 0.66594 0.0
H885 H 0.06835 0.14948 0.71359 0.0
C886 C 0.045 0.17292 0.82667 0.0
C887 C 0.03151 0.18268 0.88753 0.0
C888 C 0.03849 0.14781 0.79694 0.0
C889 C 1.01069 0.16701 0.91618 0.0
C890 C 1.004 0.14214 0.88661 0.0
C891 C 0.01224 0.10651 0.79969 0.0
C892 C 0.02701 0.09624 0.74195 0.0
C893 C 0.01798 0.13213 0.82758 0.0
C894 C 0.04683 0.1124 0.71084 0.0
C895 C 0.05254 0.13782 0.73801 0.0
H896 H 0.36873 0.08161 0.87116 0.0
H897 H 0.36136 1.00072 0.94894 0.0
H898 H 0.40239 0.9889 0.88715 0.0
H899 H 0.44162 1.00183 0.81431 0.0
H900 H 0.44921 0.08306 0.73961 0.0
H901 H 0.40737 0.09438 0.79771 0.0
C902 C 0.37607 0.06139 0.87513 0.0
C903 C 0.36171 0.0422 0.91549 0.0
C904 C 0.40006 0.05478 0.84038 0.0
C905 C 0.37155 0.01597 0.91803 0.0
C906 C 0.3953 1.00922 0.88325 0.0
C907 C 0.43412 0.02201 0.81071 0.0
C908 C 0.44871 0.04152 0.77232 0.0
C909 C 0.40991 0.02851 0.84485 0.0
C910 C 0.4386 0.06759 0.76873 0.0
C911 C 0.41456 0.07411 0.80193 0.0
H912 H 0.47355 0.36763 0.82838 0.0
H913 H 0.55652 0.36428 0.88596 0.0
H914 H 0.56386 0.40802 0.83185 0.0
H915 H 0.54657 0.44826 0.77138 0.0
H916 H 0.46478 0.4495 0.70402 0.0
H917 H 0.45735 0.40565 0.7579 0.0
C918 C 0.49343 0.37602 0.82812 0.0
C919 C 0.51432 0.36231 0.86258 0.0
C920 C 0.49775 0.40114 0.79545 0.0
C921 C 0.53977 0.37427 0.86189 0.0
C922 C 0.54409 0.39936 0.83034 0.0
C923 C 0.52715 0.43887 0.76802 0.0
C924 C 0.50602 0.45268 0.73544 0.0
C925 C 0.52318 0.41316 0.79768 0.0
C926 C 0.48116 0.43988 0.73084 0.0
C927 C 0.47696 0.41461 0.76116 0.0
H928 H 0.15846 0.46912 0.87997 0.0
H929 H 0.18656 0.54968 0.84407 0.0
H930 H 0.14712 0.55909 0.7732 0.0
H931 H 0.10356 0.54499 0.72341 0.0
H932 H 0.07699 0.46396 0.75549 0.0
H933 H 0.117 0.45415 0.82377 0.0
C934 C 0.15648 0.48861 0.85536 0.0
C935 C 0.17581 0.50861 0.86835 0.0
C936 C 0.13385 0.49386 0.81324 0.0
C937 C 0.17208 0.53388 0.83666 0.0
C938 C 0.14954 0.53927 0.79516 0.0
C939 C 0.10681 0.52507 0.74413 0.0
C940 C 0.08705 0.50529 0.73484 0.0
C941 C 0.13015 0.5195 0.7834 0.0
C942 C 0.09147 0.4797 0.76314 0.0
C943 C 0.11451 0.47403 0.80187 0.0
H944 H 0.03586 0.86523 0.45226 0.0
H945 H 0.95036 0.86153 0.46205 0.0
H946 H 0.9498 0.90169 0.53596 0.0
H947 H 0.97348 0.93944 0.59309 0.0
H948 H 0.05897 0.94323 0.58162 0.0
H949 H 0.05961 0.90153 0.51479 0.0
C950 C 0.01709 0.8731 0.47081 0.0
C951 C 0.99318 0.8602 0.45105 0.0
C952 C 0.01688 0.89639 0.51326 0.0
C953 C 0.96911 0.87068 0.47672 0.0
C954 C 0.96875 0.89384 0.5187 0.0
C955 C 0.99224 0.93122 0.57574 0.0
C956 C 0.01611 0.94482 0.59199 0.0
C957 C 0.99248 0.90713 0.53648 0.0
C958 C 0.04025 0.93337 0.57024 0.0
C959 C 0.04064 0.90949 0.53154 0.0
H960 H 0.66259 0.97208 0.42419 0.0
H961 H 0.69338 0.05118 0.46251 0.0
H962 H 0.65143 0.06357 0.52025 0.0
H963 H 0.60608 0.05129 0.56315 0.0
H964 H 0.57617 0.97181 0.52142 0.0
H965 H 0.61745 0.96043 0.46226 0.0
C966 C 0.66026 0.99201 0.44558 0.0
C967 C 0.68139 1.01053 0.4397 0.0
C968 C 0.63605 0.99901 0.4782 0.0
C969 C 0.67758 0.03648 0.46621 0.0
C970 C 0.65356 0.04354 0.49948 0.0
C971 C 0.60849 0.03153 0.54077 0.0
C972 C 0.58766 1.01255 0.54711 0.0
C973 C 0.63264 0.02491 0.50622 0.0
C974 C 0.59146 0.98704 0.51744 0.0
C975 C 0.61525 0.98038 0.48362 0.0
H976 H 0.50061 0.69211 0.47749 0.0
H977 H 0.58627 0.69103 0.48722 0.0
H978 H 0.58481 0.64715 0.54317 0.0
H979 H 0.5595 0.60826 0.58734 0.0
H980 H 0.47401 0.60813 0.57213 0.0
H981 H 0.47528 0.65294 0.52069 0.0
C982 C 0.51901 0.68235 0.49168 0.0
C983 C 0.54349 0.69539 0.47839 0.0
C984 C 0.51813 0.65663 0.52291 0.0
C985 C 0.56702 0.68215 0.49808 0.0
C986 C 0.56627 0.65676 0.52956 0.0
C987 C 0.54113 0.61789 0.57228 0.0
C988 C 0.51672 0.60451 0.58324 0.0
C989 C 0.54197 0.64371 0.5419 0.0
C990 C 0.49314 0.61774 0.5645 0.0
C991 C 0.49383 0.64345 0.53483 0.0
H992 H 0.8566 0.5769 0.50485 0.0
H993 H 0.86113 0.50901 0.36407 0.0
H994 H 0.90361 0.49661 0.41684 0.0
H995 H 0.94093 0.50623 0.49857 0.0
H996 H 0.93645 0.57387 0.6396 0.0
H997 H 0.89296 0.58535 0.59057 0.0
C998 C 0.86684 0.55939 0.48553 0.0
C999 C 0.85544 0.54402 0.43004 0.0
C1000 C 0.89158 0.55248 0.51563 0.0
C1001 C 0.86901 0.52111 0.40706 0.0
C1002 C 0.89354 0.51411 0.4368 0.0
C1003 C 0.93037 0.52343 0.51873 0.0
C1004 C 0.9422 0.53948 0.57181 0.0
C1005 C 0.90521 0.52983 0.49042 0.0
C1006 C 0.92812 0.56154 0.59769 0.0
C1007 C 0.90314 0.56803 0.56988 0.0
loop_
_geom_bond_atom_site_label_1
_geom_bond_atom_site_label_2
_geom_bond_distance
_geom_bond_site_symmetry_2
_ccdc_geom_bond_type
C0 C1 1.384 . S
C0 H13 0.947 . S
C0 C35 1.382 . S
C1 C0 1.384 . S
C1 C2 1.378 . S
C2 C1 1.378 . S
C2 C3 1.378 . S
C2 H14 0.952 . S
C3 C2 1.378 . S
C3 H15 0.950 . S
C3 C34 1.383 . S
H4 C23 0.947 . S
H5 C24 0.946 . S
H6 C26 0.953 . S
H7 C27 0.945 . S
H8 C29 0.952 . S
H9 C30 0.949 1_556 S
H10 C32 0.950 . S
H11 C33 0.948 . S
H12 C35 0.951 . S
H13 C0 0.947 . S
H14 C2 0.952 . S
H15 C3 0.950 . S
N16 C19 1.382 . S
N16 C21 1.363 . S
N17 C19 1.371 . S
N17 C20 1.372 . S
N18 C20 1.361 . S
N18 C21 1.377 . S
C19 N16 1.382 . S
C19 N17 1.371 . S
C19 C22 1.480 . S
C20 N17 1.372 . S
C20 N18 1.361 . S
C20 C28 1.457 . S
C21 N16 1.363 . S
C21 N18 1.377 . S
C21 C34 1.479 . S
C22 C19 1.480 . S
C22 C23 1.383 . S
C22 C27 1.385 . S
C23 H4 0.947 . S
C23 C22 1.383 . S
C23 C24 1.388 . S
C24 H5 0.946 . S
C24 C23 1.388 . S
C24 C25 1.384 . S
C25 C24 1.384 . S
C25 C26 1.377 . S
C26 H6 0.953 . S
C26 C25 1.377 . S
C26 C27 1.369 . S
C27 H7 0.945 . S
C27 C22 1.385 . S
C27 C26 1.369 . S
C28 C20 1.457 . S
C28 C29 1.372 . S
C28 C33 1.364 . S
C29 H8 0.952 . S
C29 C28 1.372 . S
C29 C30 1.389 . S
C30 H9 0.949 1_554 S
C30 C29 1.389 . S
C30 C31 1.387 . S
C31 C30 1.387 . S
C31 C32 1.372 . S
C32 H10 0.950 . S
C32 C31 1.372 . S
C32 C33 1.379 . S
C33 H11 0.948 . S
C33 C28 1.364 . S
C33 C32 1.379 . S
C34 C3 1.383 . S
C34 C21 1.479 . S
C34 C35 1.398 . S
C35 C0 1.382 . S
C35 H12 0.951 . S
C35 C34 1.398 . S
C36 C37 1.384 . S
C36 H49 0.947 . S
C36 C71 1.382 . S
C37 C36 1.384 . S
C37 C38 1.378 . S
C38 C37 1.378 . S
C38 C39 1.378 . S
C38 H50 0.952 . S
C39 C38 1.378 . S
C39 H51 0.950 . S
C39 C70 1.383 . S
H40 C59 0.947 . S
H41 C60 0.946 . S
H42 C62 0.953 . S
H43 C63 0.945 . S
H44 C65 0.952 . S
H45 C66 0.949 1_556 S
H46 C68 0.950 . S
H47 C69 0.948 . S
H48 C71 0.951 . S
H49 C36 0.947 . S
H50 C38 0.952 . S
H51 C39 0.950 . S
N52 C55 1.382 . S
N52 C57 1.363 . S
N53 C55 1.371 . S
N53 C56 1.372 . S
N54 C56 1.361 . S
N54 C57 1.377 . S
C55 N52 1.382 . S
C55 N53 1.371 . S
C55 C58 1.480 . S
C56 N53 1.372 . S
C56 N54 1.361 . S
C56 C64 1.457 . S
C57 N52 1.363 . S
C57 N54 1.377 . S
C57 C70 1.479 . S
C58 C55 1.480 . S
C58 C59 1.383 . S
C58 C63 1.385 . S
C59 H40 0.947 . S
C59 C58 1.383 . S
C59 C60 1.388 . S
C60 H41 0.946 . S
C60 C59 1.388 . S
C60 C61 1.384 . S
C61 C60 1.384 . S
C61 C62 1.377 . S
C62 H42 0.953 . S
C62 C61 1.377 . S
C62 C63 1.369 . S
C63 H43 0.945 . S
C63 C58 1.385 . S
C63 C62 1.369 . S
C64 C56 1.457 . S
C64 C65 1.372 . S
C64 C69 1.364 . S
C65 H44 0.952 . S
C65 C64 1.372 . S
C65 C66 1.389 . S
C66 H45 0.949 1_554 S
C66 C65 1.389 . S
C66 C67 1.387 . S
C67 C66 1.387 . S
C67 C68 1.372 . S
C68 H46 0.950 . S
C68 C67 1.372 . S
C68 C69 1.379 . S
C69 H47 0.948 . S
C69 C64 1.364 . S
C69 C68 1.379 . S
C70 C39 1.383 . S
C70 C57 1.479 . S
C70 C71 1.398 . S
C71 C36 1.382 . S
C71 H48 0.951 . S
C71 C70 1.398 . S
C72 C73 1.384 . S
C72 H85 0.947 . S
C72 C107 1.382 . S
C73 C72 1.384 . S
C73 C74 1.378 . S
C74 C73 1.378 . S
C74 C75 1.378 . S
C74 H86 0.952 . S
C75 C74 1.378 . S
C75 H87 0.950 . S
C75 C106 1.383 . S
H76 C95 0.947 . S
H77 C96 0.946 . S
H78 C98 0.953 . S
H79 C99 0.945 . S
H80 C101 0.952 . S
H81 C102 0.949 1_556 S
H82 C104 0.950 . S
H83 C105 0.948 . S
H84 C107 0.951 . S
H85 C72 0.947 . S
H86 C74 0.952 . S
H87 C75 0.950 . S
N88 C91 1.382 . S
N88 C93 1.363 . S
N89 C91 1.371 . S
N89 C92 1.372 . S
N90 C92 1.361 . S
N90 C93 1.377 . S
C91 N88 1.382 . S
C91 N89 1.371 . S
C91 C94 1.480 . S
C92 N89 1.372 . S
C92 N90 1.361 . S
C92 C100 1.457 . S
C93 N88 1.363 . S
C93 N90 1.377 . S
C93 C106 1.479 . S
C94 C91 1.480 . S
C94 C95 1.383 . S
C94 C99 1.385 . S
C95 H76 0.947 . S
C95 C94 1.383 . S
C95 C96 1.388 . S
C96 H77 0.946 . S
C96 C95 1.388 . S
C96 C97 1.384 . S
C97 C96 1.384 . S
C97 C98 1.377 . S
C98 H78 0.953 . S
C98 C97 1.377 . S
C98 C99 1.369 . S
C99 H79 0.945 . S
C99 C94 1.385 . S
C99 C98 1.369 . S
C100 C92 1.457 . S
C100 C101 1.372 . S
C100 C105 1.364 . S
C101 H80 0.952 . S
C101 C100 1.372 . S
C101 C102 1.389 . S
C102 H81 0.949 1_554 S
C102 C101 1.389 . S
C102 C103 1.387 . S
C103 C102 1.387 . S
C103 C104 1.372 . S
C104 H82 0.950 . S
C104 C103 1.372 . S
C104 C105 1.379 . S
C105 H83 0.948 . S
C105 C100 1.364 . S
C105 C104 1.379 . S
C106 C75 1.383 . S
C106 C93 1.479 . S
C106 C107 1.398 . S
C107 C72 1.382 . S
C107 H84 0.951 . S
C107 C106 1.398 . S
C108 C109 1.384 . S
C108 H121 0.947 . S
C108 C143 1.382 . S
C109 C108 1.384 . S
C109 C110 1.378 . S
C110 C109 1.378 . S
C110 C111 1.378 . S
C110 H122 0.952 1_554 S
C111 C110 1.378 . S
C111 H123 0.950 . S
C111 C142 1.383 . S
H112 C131 0.947 . S
H113 C132 0.946 . S
H114 C134 0.953 . S
H115 C135 0.945 . S
H116 C137 0.952 . S
H117 C138 0.949 . S
H118 C140 0.950 . S
H119 C141 0.948 . S
H120 C143 0.951 . S
H121 C108 0.947 . S
H122 C110 0.952 1_556 S
H123 C111 0.950 . S
N124 C127 1.382 . S
N124 C129 1.363 . S
N125 C127 1.371 . S
N125 C128 1.372 . S
N126 C128 1.361 . S
N126 C129 1.377 . S
C127 N124 1.382 . S
C127 N125 1.371 . S
C127 C130 1.480 . S
C128 N125 1.372 . S
C128 N126 1.361 . S
C128 C136 1.457 . S
C129 N124 1.363 . S
C129 N126 1.377 . S
C129 C142 1.479 . S
C130 C127 1.480 . S
C130 C131 1.383 . S
C130 C135 1.385 . S
C131 H112 0.947 . S
C131 C130 1.383 . S
C131 C132 1.388 . S
C132 H113 0.946 . S
C132 C131 1.388 . S
C132 C133 1.384 . S
C133 C132 1.384 . S
C133 C134 1.377 . S
C134 H114 0.953 . S
C134 C133 1.377 . S
C134 C135 1.369 . S
C135 H115 0.945 . S
C135 C130 1.385 . S
C135 C134 1.369 . S
C136 C128 1.457 . S
C136 C137 1.372 . S
C136 C141 1.364 . S
C137 H116 0.952 . S
C137 C136 1.372 . S
C137 C138 1.389 . S
C138 H117 0.949 . S
C138 C137 1.389 . S
C138 C139 1.387 . S
C139 C138 1.387 . S
C139 C140 1.372 . S
C140 H118 0.950 . S
C140 C139 1.372 . S
C140 C141 1.379 . S
C141 H119 0.948 . S
C141 C136 1.364 . S
C141 C140 1.379 . S
C142 C111 1.383 . S
C142 C129 1.479 . S
C142 C143 1.398 . S
C143 C108 1.382 . S
C143 H120 0.951 . S
C143 C142 1.398 . S
C144 C145 1.384 . S
C144 H157 0.947 . S
C144 C179 1.382 . S
C145 C144 1.384 . S
C145 C146 1.378 . S
C146 C145 1.378 . S
C146 C147 1.378 . S
C146 H158 0.952 . S
C147 C146 1.378 . S
C147 H159 0.950 . S
C147 C178 1.383 . S
H148 C167 0.947 1_556 S
H149 C168 0.946 . S
H150 C170 0.953 . S
H151 C171 0.945 . S
H152 C173 0.952 . S
H153 C174 0.949 . S
H154 C176 0.950 . S
H155 C177 0.948 . S
H156 C179 0.951 . S
H157 C144 0.947 . S
H158 C146 0.952 . S
H159 C147 0.950 . S
N160 C163 1.382 1_556 S
N160 C165 1.363 . S
N161 C163 1.371 . S
N161 C164 1.372 . S
N162 C164 1.361 . S
N162 C165 1.377 1_554 S
C163 N160 1.382 1_554 S
C163 N161 1.371 . S
C163 C166 1.480 . S
C164 N161 1.372 . S
C164 N162 1.361 . S
C164 C172 1.457 . S
C165 N160 1.363 . S
C165 N162 1.377 1_556 S
C165 C178 1.479 . S
C166 C163 1.480 . S
C166 C167 1.383 . S
C166 C171 1.385 . S
C167 H148 0.947 1_554 S
C167 C166 1.383 . S
C167 C168 1.388 . S
C168 H149 0.946 . S
C168 C167 1.388 . S
C168 C169 1.384 . S
C169 C168 1.384 . S
C169 C170 1.377 . S
C170 H150 0.953 . S
C170 C169 1.377 . S
C170 C171 1.369 . S
C171 H151 0.945 . S
C171 C166 1.385 . S
C171 C170 1.369 . S
C172 C164 1.457 . S
C172 C173 1.372 . S
C172 C177 1.364 . S
C173 H152 0.952 . S
C173 C172 1.372 . S
C173 C174 1.389 . S
C174 H153 0.949 . S
C174 C173 1.389 . S
C174 C175 1.387 . S
C175 C174 1.387 . S
C175 C176 1.372 . S
C176 H154 0.950 . S
C176 C175 1.372 . S
C176 C177 1.379 . S
C177 H155 0.948 . S
C177 C172 1.364 . S
C177 C176 1.379 . S
C178 C147 1.383 . S
C178 C165 1.479 . S
C178 C179 1.398 . S
C179 C144 1.382 . S
C179 H156 0.951 . S
C179 C178 1.398 . S
C180 C181 1.384 . S
C180 H193 0.947 . S
C180 C215 1.382 . S
C181 C180 1.384 . S
C181 C182 1.378 . S
C182 C181 1.378 . S
C182 C183 1.378 . S
C182 H194 0.952 . S
C183 C182 1.378 . S
C183 H195 0.950 . S
C183 C214 1.383 . S
H184 C203 0.947 1_556 S
H185 C204 0.946 . S
H186 C206 0.953 . S
H187 C207 0.945 . S
H188 C209 0.952 . S
H189 C210 0.949 . S
H190 C212 0.950 . S
H191 C213 0.948 . S
H192 C215 0.951 . S
H193 C180 0.947 . S
H194 C182 0.952 . S
H195 C183 0.950 . S
N196 C199 1.382 1_556 S
N196 C201 1.363 . S
N197 C199 1.371 . S
N197 C200 1.372 . S
N198 C200 1.361 . S
N198 C201 1.377 1_554 S
C199 N196 1.382 1_554 S
C199 N197 1.371 . S
C199 C202 1.480 . S
C200 N197 1.372 . S
C200 N198 1.361 . S
C200 C208 1.457 . S
C201 N196 1.363 . S
C201 N198 1.377 1_556 S
C201 C214 1.479 . S
C202 C199 1.480 . S
C202 C203 1.383 . S
C202 C207 1.385 . S
C203 H184 0.947 1_554 S
C203 C202 1.383 . S
C203 C204 1.388 . S
C204 H185 0.946 . S
C204 C203 1.388 . S
C204 C205 1.384 . S
C205 C204 1.384 . S
C205 C206 1.377 . S
C206 H186 0.953 . S
C206 C205 1.377 . S
C206 C207 1.369 . S
C207 H187 0.945 . S
C207 C202 1.385 . S
C207 C206 1.369 . S
C208 C200 1.457 . S
C208 C209 1.372 . S
C208 C213 1.364 . S
C209 H188 0.952 . S
C209 C208 1.372 . S
C209 C210 1.389 . S
C210 H189 0.949 . S
C210 C209 1.389 . S
C210 C211 1.387 . S
C211 C210 1.387 . S
C211 C212 1.372 . S
C212 H190 0.950 . S
C212 C211 1.372 . S
C212 C213 1.379 . S
C213 H191 0.948 . S
C213 C208 1.364 . S
C213 C212 1.379 . S
C214 C183 1.383 . S
C214 C201 1.479 . S
C214 C215 1.398 . S
C215 C180 1.382 . S
C215 H192 0.951 . S
C215 C214 1.398 . S
C216 C217 1.384 . S
C216 H229 0.947 . S
C216 C251 1.382 . S
C217 C216 1.384 . S
C217 C218 1.378 . S
C218 C217 1.378 . S
C218 C219 1.378 . S
C218 H230 0.952 . S
C219 C218 1.378 . S
C219 H231 0.950 . S
C219 C250 1.383 . S
H220 C239 0.947 1_556 S
H221 C240 0.946 . S
H222 C242 0.953 . S
H223 C243 0.945 . S
H224 C245 0.952 . S
H225 C246 0.949 . S
H226 C248 0.950 . S
H227 C249 0.948 . S
H228 C251 0.951 . S
H229 C216 0.947 . S
H230 C218 0.952 . S
H231 C219 0.950 . S
N232 C235 1.382 1_556 S
N232 C237 1.363 . S
N233 C235 1.371 . S
N233 C236 1.372 . S
N234 C236 1.361 . S
N234 C237 1.377 1_554 S
C235 N232 1.382 1_554 S
C235 N233 1.371 . S
C235 C238 1.480 . S
C236 N233 1.372 . S
C236 N234 1.361 . S
C236 C244 1.457 . S
C237 N232 1.363 . S
C237 N234 1.377 1_556 S
C237 C250 1.479 . S
C238 C235 1.480 . S
C238 C239 1.383 . S
C238 C243 1.385 . S
C239 H220 0.947 1_554 S
C239 C238 1.383 . S
C239 C240 1.388 . S
C240 H221 0.946 . S
C240 C239 1.388 . S
C240 C241 1.384 . S
C241 C240 1.384 . S
C241 C242 1.377 . S
C242 H222 0.953 . S
C242 C241 1.377 . S
C242 C243 1.369 . S
C243 H223 0.945 . S
C243 C238 1.385 . S
C243 C242 1.369 . S
C244 C236 1.457 . S
C244 C245 1.372 . S
C244 C249 1.364 . S
C245 H224 0.952 . S
C245 C244 1.372 . S
C245 C246 1.389 . S
C246 H225 0.949 . S
C246 C245 1.389 . S
C246 C247 1.387 . S
C247 C246 1.387 . S
C247 C248 1.372 . S
C248 H226 0.950 . S
C248 C247 1.372 . S
C248 C249 1.379 . S
C249 H227 0.948 . S
C249 C244 1.364 . S
C249 C248 1.379 . S
C250 C219 1.383 . S
C250 C237 1.479 . S
C250 C251 1.398 . S
C251 C216 1.382 . S
C251 H228 0.951 . S
C251 C250 1.398 . S
C252 C253 1.384 . S
C252 H265 0.947 . S
C252 C287 1.382 . S
C253 C252 1.384 . S
C253 C254 1.378 . S
C254 C253 1.378 . S
C254 C255 1.378 . S
C254 H266 0.952 . S
C255 C254 1.378 . S
C255 H267 0.950 . S
C255 C286 1.383 . S
H256 C275 0.947 . S
H257 C276 0.946 . S
H258 C278 0.955 . S
H259 C279 0.945 1_556 S
H260 C281 0.952 . S
H261 C282 0.949 . S
H262 C284 0.950 . S
H263 C285 0.948 . S
H264 C287 0.951 . S
H265 C252 0.947 . S
H266 C254 0.952 . S
H267 C255 0.950 . S
N268 C271 1.382 . S
N268 C273 1.363 . S
N269 C271 1.371 1_556 S
N269 C272 1.372 . S
N270 C272 1.361 1_554 S
N270 C273 1.377 . S
C271 N268 1.382 . S
C271 N269 1.371 1_554 S
C271 C274 1.480 . S
C272 N269 1.372 . S
C272 N270 1.361 1_556 S
C272 C280 1.457 . S
C273 N268 1.363 . S
C273 N270 1.377 . S
C273 C286 1.479 . S
C274 C271 1.480 . S
C274 C275 1.383 . S
C274 C279 1.385 . S
C275 H256 0.947 . S
C275 C274 1.383 . S
C275 C276 1.388 . S
C276 H257 0.946 . S
C276 C275 1.388 . S
C276 C277 1.384 . S
C277 C276 1.384 . S
C277 C278 1.377 . S
C278 H258 0.955 . S
C278 C277 1.377 . S
C278 C279 1.369 . S
C279 H259 0.945 1_554 S
C279 C274 1.385 . S
C279 C278 1.369 . S
C280 C272 1.457 . S
C280 C281 1.372 . S
C280 C285 1.364 . S
C281 H260 0.952 . S
C281 C280 1.372 . S
C281 C282 1.389 . S
C282 H261 0.949 . S
C282 C281 1.389 . S
C282 C283 1.387 . S
C283 C282 1.387 . S
C283 C284 1.372 . S
C284 H262 0.950 . S
C284 C283 1.372 . S
C284 C285 1.379 . S
C285 H263 0.948 . S
C285 C280 1.364 . S
C285 C284 1.379 . S
C286 C255 1.383 . S
C286 C273 1.479 . S
C286 C287 1.398 . S
C287 C252 1.382 . S
C287 H264 0.951 . S
C287 C286 1.398 . S
Eu288 N317 2.600 . S
Eu288 N323 2.562 . S
Eu288 O332 2.462 . S
Eu288 O333 2.373 1_545 S
Eu288 O335 2.432 . S
Eu288 O336 2.291 1_655 S
Eu288 O340 2.335 1_655 S
Eu288 O343 2.372 . S
Eu288 C352 2.787 . S
C289 N290 1.373 . S
C289 C292 1.405 . S
C289 C296 1.448 . S
N290 C289 1.373 . S
N290 C293 1.317 1_545 S
N290 Eu299 2.596 1_545 S
C291 C293 1.397 1_545 S
C291 C294 1.367 . S
C291 H311 0.931 . S
C292 C289 1.405 . S
C292 C294 1.403 . S
C292 C298 1.439 . S
C293 N290 1.317 1_565 S
C293 C291 1.397 1_565 S
C293 H304 0.930 . S
C294 C291 1.367 . S
C294 C292 1.403 . S
C294 H315 0.929 . S
C295 C296 1.430 . S
C295 C297 1.387 . S
C295 C301 1.404 . S
C296 C289 1.448 . S
C296 C295 1.430 . S
C296 N300 1.351 . S
C297 C295 1.387 . S
C297 C298 1.374 . S
C297 H312 0.931 . S
C298 C292 1.439 . S
C298 C297 1.374 . S
C298 H313 0.931 . S
Eu299 N290 2.596 1_565 S
Eu299 N300 2.562 1_565 S
Eu299 O334 2.335 . S
Eu299 O337 2.372 . S
Eu299 O338 2.462 . S
Eu299 O339 2.373 1_565 S
Eu299 O341 2.432 . S
Eu299 O342 2.280 1_465 S
Eu299 C363 2.787 . S
N300 C296 1.351 . S
N300 Eu299 2.562 1_545 S
N300 C302 1.325 . S
C301 C295 1.404 . S
C301 C303 1.366 . S
C301 H309 0.930 1_556 S
C302 N300 1.325 . S
C302 C303 1.416 . S
C302 H308 0.953 . S
C303 C301 1.366 . S
C303 C302 1.416 . S
C303 H305 0.930 . S
H304 C293 0.930 . S
H305 C303 0.930 . S
H306 C321 0.930 . S
H307 C328 0.930 1_455 S
H308 C302 0.953 . S
H309 C301 0.930 1_554 S
H310 C324 0.929 1_455 S
H311 C291 0.931 . S
H312 C297 0.931 . S
H313 C298 0.931 . S
H314 C319 0.931 . S
H315 C294 0.929 . S
H316 C327 0.930 . S
N317 Eu288 2.600 . S
N317 C318 1.365 . S
N317 C321 1.319 . S
C318 N317 1.365 . S
C318 C320 1.405 1_545 S
C318 C326 1.447 . S
C319 H314 0.931 . S
C319 C321 1.397 . S
C319 C322 1.367 1_545 S
C320 C318 1.405 1_565 S
C320 C322 1.403 . S
C320 C353 1.439 . S
C321 H306 0.930 . S
C321 N317 1.319 . S
C321 C319 1.397 . S
C322 C319 1.367 1_565 S
C322 C320 1.403 . S
C322 H329 0.929 . S
N323 Eu288 2.562 . S
N323 C324 1.325 . S
N323 C326 1.350 . S
C324 H310 0.929 1_655 S
C324 N323 1.325 . S
C324 C328 1.416 1_545 S
C325 C326 1.431 1_565 S
C325 C327 1.404 . S
C325 C354 1.387 . S
C326 C318 1.447 . S
C326 N323 1.350 . S
C326 C325 1.431 1_545 S
C327 H316 0.930 . S
C327 C325 1.404 . S
C327 C328 1.366 . S
C328 H307 0.930 1_655 S
C328 C324 1.416 1_565 S
C328 C327 1.366 . S
H329 C322 0.929 . S
H330 C353 0.931 . S
H331 C354 0.931 . S
O332 Eu288 2.462 . S
O332 C352 1.252 . S
O333 Eu288 2.373 1_565 S
O333 C344 1.249 . S
O334 Eu299 2.335 . S
O334 C344 1.264 1_455 S
O335 Eu288 2.432 . S
O335 C352 1.268 . S
O336 Eu288 2.291 1_455 S
O336 C351 1.255 . S
O337 Eu299 2.372 . S
O337 C351 1.257 1_565 S
O338 Eu299 2.462 . S
O338 C363 1.252 . S
O339 Eu299 2.373 1_545 S
O339 C355 1.249 . S
O340 Eu288 2.335 1_455 S
O340 C355 1.264 . S
O341 Eu299 2.432 . S
O341 C363 1.268 . S
O342 Eu299 2.280 1_645 S
O342 C362 1.265 . S
O343 Eu288 2.372 . S
O343 C362 1.257 . S
C344 O333 1.249 . S
C344 O334 1.264 1_655 S
C345 C348 1.382 . S
C345 C350 1.390 . S
C345 C352 1.506 . S
C346 C347 1.398 . S
C346 C350 1.392 . S
C347 C346 1.398 . S
C347 C349 1.372 . S
C347 H364 0.931 . S
C348 C345 1.382 . S
C348 C349 1.390 . S
C348 H365 0.931 . S
C349 C347 1.372 . S
C349 C348 1.390 . S
C349 H366 0.929 . S
C350 C345 1.390 . S
C350 C346 1.392 . S
C350 H367 0.930 1_655 S
C351 O336 1.255 . S
C351 O337 1.257 1_545 S
C352 Eu288 2.787 . S
C352 O332 1.252 . S
C352 O335 1.268 . S
C352 C345 1.506 . S
C353 C320 1.439 . S
C353 H330 0.931 . S
C353 C354 1.374 . S
C354 C325 1.387 . S
C354 H331 0.931 . S
C354 C353 1.374 . S
C355 O339 1.249 . S
C355 O340 1.264 . S
C356 C359 1.382 . S
C356 C360 1.390 . S
C356 C363 1.506 . S
C357 C358 1.398 . S
C357 C360 1.392 . S
C358 C357 1.398 . S
C358 C361 1.372 . S
C358 H368 0.931 . S
C359 C356 1.382 . S
C359 C361 1.390 . S
C359 H369 0.931 . S
C360 C356 1.390 . S
C360 C357 1.392 . S
C360 H370 0.930 . S
C361 C358 1.372 . S
C361 C359 1.390 . S
C361 H371 0.929 . S
C362 O342 1.265 . S
C362 O343 1.257 . S
C363 Eu299 2.787 . S
C363 O338 1.252 . S
C363 O341 1.268 . S
C363 C356 1.506 . S
H364 C347 0.931 . S
H365 C348 0.931 . S
H366 C349 0.929 . S
H367 C350 0.930 1_455 S
H368 C358 0.931 . S
H369 C359 0.931 . S
H370 C360 0.930 . S
H371 C361 0.929 . S
Eu372 N401 2.600 . S
Eu372 N407 2.562 . S
Eu372 O416 2.462 . S
Eu372 O417 2.373 . S
Eu372 O419 2.432 . S
Eu372 O420 2.291 . S
Eu372 O424 2.335 1_545 S
Eu372 O427 2.372 . S
Eu372 C436 2.787 . S
C373 N374 1.365 . S
C373 C376 1.405 . S
C373 C380 1.448 . S
N374 C373 1.365 . S
N374 C377 1.319 . S
N374 Eu383 2.600 . S
C375 C377 1.397 . S
C375 C378 1.367 . S
C375 H395 0.931 . S
C376 C373 1.405 . S
C376 C378 1.403 . S
C376 C382 1.439 . S
C377 N374 1.319 . S
C377 C375 1.397 . S
C377 H388 0.930 . S
C378 C375 1.367 . S
C378 C376 1.403 . S
C378 H399 0.929 . S
C379 C380 1.430 . S
C379 C381 1.387 . S
C379 C385 1.404 . S
C380 C373 1.448 . S
C380 C379 1.430 . S
C380 N384 1.351 . S
C381 C379 1.387 . S
C381 C382 1.374 . S
C381 H396 0.931 . S
C382 C376 1.439 . S
C382 C381 1.374 . S
C382 H397 0.931 . S
Eu383 N374 2.600 . S
Eu383 N384 2.562 . S
Eu383 O418 2.335 1_565 S
Eu383 O421 2.372 . S
Eu383 O422 2.462 . S
Eu383 O423 2.373 . S
Eu383 O425 2.432 . S
Eu383 O426 2.291 1_565 S
Eu383 C447 2.787 . S
N384 C380 1.351 . S
N384 Eu383 2.562 . S
N384 C386 1.325 . S
C385 C379 1.404 . S
C385 C387 1.366 . S
C385 H393 0.930 . S
C386 N384 1.325 . S
C386 C387 1.416 . S
C386 H392 0.929 . S
C387 C385 1.366 . S
C387 C386 1.416 . S
C387 H389 0.930 . S
H388 C377 0.930 . S
H389 C387 0.930 . S
H390 C405 0.930 . S
H391 C412 0.930 . S
H392 C386 0.929 . S
H393 C385 0.930 . S
H394 C408 0.929 . S
H395 C375 0.931 . S
H396 C381 0.931 . S
H397 C382 0.931 . S
H398 C403 0.931 . S
H399 C378 0.929 . S
H400 C411 0.930 . S
N401 Eu372 2.600 . S
N401 C402 1.365 . S
N401 C405 1.319 . S
C402 N401 1.365 . S
C402 C404 1.405 . S
C402 C410 1.448 . S
C403 H398 0.931 . S
C403 C405 1.397 . S
C403 C406 1.367 . S
C404 C402 1.405 . S
C404 C406 1.403 . S
C404 C437 1.439 . S
C405 H390 0.930 . S
C405 N401 1.319 . S
C405 C403 1.397 . S
C406 C403 1.367 . S
C406 C404 1.403 . S
C406 H413 0.929 . S
N407 Eu372 2.562 . S
N407 C408 1.325 . S
N407 C410 1.351 . S
C408 H394 0.929 . S
C408 N407 1.325 . S
C408 C412 1.416 . S
C409 C410 1.430 . S
C409 C411 1.404 . S
C409 C438 1.387 . S
C410 C402 1.448 . S
C410 N407 1.351 . S
C410 C409 1.430 . S
C411 H400 0.930 . S
C411 C409 1.404 . S
C411 C412 1.366 . S
C412 H391 0.930 . S
C412 C408 1.416 . S
C412 C411 1.366 . S
H413 C406 0.929 . S
H414 C437 0.931 . S
H415 C438 0.931 . S
O416 Eu372 2.462 . S
O416 C436 1.252 . S
O417 Eu372 2.373 . S
O417 C428 1.249 . S
O418 Eu383 2.335 1_545 S
O418 C428 1.264 . S
O419 Eu372 2.432 . S
O419 C436 1.268 . S
O420 Eu372 2.291 . S
O420 C435 1.255 1_545 S
O421 Eu383 2.372 . S
O421 C435 1.257 . S
O422 Eu383 2.462 . S
O422 C447 1.252 . S
O423 Eu383 2.373 . S
O423 C439 1.249 . S
O424 Eu372 2.335 1_565 S
O424 C439 1.264 . S
O425 Eu383 2.432 . S
O425 C447 1.268 . S
O426 Eu383 2.291 1_545 S
O426 C446 1.255 . S
O427 Eu372 2.372 . S
O427 C446 1.257 . S
C428 O417 1.249 . S
C428 O418 1.264 . S
C429 C432 1.382 . S
C429 C434 1.390 . S
C429 C436 1.506 . S
C430 C431 1.398 . S
C430 C434 1.392 . S
C431 C430 1.398 . S
C431 C433 1.372 1_556 S
C431 H448 0.931 1_556 S
C432 C429 1.382 . S
C432 C433 1.390 1_556 S
C432 H449 0.931 . S
C433 C431 1.372 1_554 S
C433 C432 1.390 1_554 S
C433 H450 0.929 . S
C434 C429 1.390 . S
C434 C430 1.392 . S
C434 H451 0.930 . S
C435 O420 1.255 1_565 S
C435 O421 1.257 . S
C436 Eu372 2.787 . S
C436 O416 1.252 . S
C436 O419 1.268 . S
C436 C429 1.506 . S
C437 C404 1.439 . S
C437 H414 0.931 . S
C437 C438 1.374 . S
C438 C409 1.387 . S
C438 H415 0.931 . S
C438 C437 1.374 . S
C439 O423 1.249 . S
C439 O424 1.264 . S
C440 C443 1.382 . S
C440 C444 1.390 . S
C440 C447 1.506 . S
C441 C442 1.398 . S
C441 C444 1.392 . S
C442 C441 1.398 . S
C442 C445 1.372 . S
C442 H452 0.931 . S
C443 C440 1.382 . S
C443 C445 1.390 . S
C443 H453 0.931 . S
C444 C440 1.390 . S
C444 C441 1.392 . S
C444 H454 0.930 1_565 S
C445 C442 1.372 . S
C445 C443 1.390 . S
C445 H455 0.929 . S
C446 O426 1.255 . S
C446 O427 1.257 . S
C447 Eu383 2.787 . S
C447 O422 1.252 . S
C447 O425 1.268 . S
C447 C440 1.506 . S
H448 C431 0.931 1_554 S
H449 C432 0.931 . S
H450 C433 0.929 . S
H451 C434 0.930 . S
H452 C442 0.931 . S
H453 C443 0.931 . S
H454 C444 0.930 1_545 S
H455 C445 0.929 . S
Eu456 N485 2.600 . S
Eu456 N491 2.562 . S
Eu456 O500 2.462 . S
Eu456 O501 2.373 . S
Eu456 O503 2.432 . S
Eu456 O504 2.291 . S
Eu456 O508 2.335 . S
Eu456 O511 2.372 . S
Eu456 C520 2.787 . S
C457 N458 1.365 . S
C457 C460 1.405 . S
C457 C464 1.448 . S
N458 C457 1.365 . S
N458 C461 1.319 . S
N458 Eu467 2.600 . S
C459 C461 1.397 . S
C459 C462 1.367 . S
C459 H479 0.931 . S
C460 C457 1.405 . S
C460 C462 1.403 . S
C460 C466 1.439 . S
C461 N458 1.319 . S
C461 C459 1.397 . S
C461 H472 0.930 . S
C462 C459 1.367 . S
C462 C460 1.403 . S
C462 H483 0.929 . S
C463 C464 1.430 . S
C463 C465 1.387 . S
C463 C469 1.404 . S
C464 C457 1.448 . S
C464 C463 1.430 . S
C464 N468 1.351 . S
C465 C463 1.387 . S
C465 C466 1.374 . S
C465 H480 0.931 . S
C466 C460 1.439 . S
C466 C465 1.374 . S
C466 H481 0.931 . S
Eu467 N458 2.600 . S
Eu467 N468 2.562 . S
Eu467 O502 2.335 . S
Eu467 O505 2.372 . S
Eu467 O506 2.462 . S
Eu467 O507 2.373 . S
Eu467 O509 2.432 . S
Eu467 O510 2.291 . S
Eu467 C531 2.787 . S
N468 C464 1.351 . S
N468 Eu467 2.562 . S
N468 C470 1.325 . S
C469 C463 1.404 . S
C469 C471 1.366 . S
C469 H477 0.930 1_556 S
C470 N468 1.325 . S
C470 C471 1.416 . S
C470 H476 0.929 . S
C471 C469 1.366 . S
C471 C470 1.416 . S
C471 H473 0.930 . S
H472 C461 0.930 . S
H473 C471 0.930 . S
H474 C489 0.930 . S
H475 C496 0.930 . S
H476 C470 0.929 . S
H477 C469 0.930 1_554 S
H478 C492 0.929 . S
H479 C459 0.931 . S
H480 C465 0.931 . S
H481 C466 0.931 . S
H482 C487 0.931 . S
H483 C462 0.929 . S
H484 C495 0.930 . S
N485 Eu456 2.600 . S
N485 C486 1.365 . S
N485 C489 1.319 . S
C486 N485 1.365 . S
C486 C488 1.405 . S
C486 C494 1.448 . S
C487 H482 0.931 . S
C487 C489 1.397 . S
C487 C490 1.367 . S
C488 C486 1.405 . S
C488 C490 1.403 . S
C488 C521 1.439 . S
C489 H474 0.930 . S
C489 N485 1.319 . S
C489 C487 1.397 . S
C490 C487 1.367 . S
C490 C488 1.403 . S
C490 H497 0.929 . S
N491 Eu456 2.562 . S
N491 C492 1.325 . S
N491 C494 1.351 . S
C492 H478 0.929 . S
C492 N491 1.325 . S
C492 C496 1.416 . S
C493 C494 1.430 . S
C493 C495 1.404 . S
C493 C522 1.387 . S
C494 C486 1.448 . S
C494 N491 1.351 . S
C494 C493 1.430 . S
C495 H484 0.930 . S
C495 C493 1.404 . S
C495 C496 1.366 . S
C496 H475 0.930 . S
C496 C492 1.416 . S
C496 C495 1.366 . S
H497 C490 0.929 . S
H498 C521 0.931 . S
H499 C522 0.931 . S
O500 Eu456 2.462 . S
O500 C520 1.252 . S
O501 Eu456 2.373 . S
O501 C512 1.249 . S
O502 Eu467 2.335 . S
O502 C512 1.264 . S
O503 Eu456 2.432 . S
O503 C520 1.268 . S
O504 Eu456 2.291 . S
O504 C519 1.255 . S
O505 Eu467 2.372 . S
O505 C519 1.257 . S
O506 Eu467 2.462 . S
O506 C531 1.252 . S
O507 Eu467 2.373 . S
O507 C523 1.249 . S
O508 Eu456 2.335 . S
O508 C523 1.264 . S
O509 Eu467 2.432 . S
O509 C531 1.268 . S
O510 Eu467 2.291 . S
O510 C530 1.255 . S
O511 Eu456 2.372 . S
O511 C530 1.257 . S
C512 O501 1.249 . S
C512 O502 1.264 . S
C513 C516 1.382 . S
C513 C518 1.390 . S
C513 C520 1.506 . S
C514 C515 1.398 . S
C514 C518 1.392 . S
C515 C514 1.398 . S
C515 C517 1.372 . S
C515 H532 0.931 . S
C516 C513 1.382 . S
C516 C517 1.390 . S
C516 H533 0.931 . S
C517 C515 1.372 . S
C517 C516 1.390 . S
C517 H534 0.929 . S
C518 C513 1.390 . S
C518 C514 1.392 . S
C518 H535 0.930 . S
C519 O504 1.255 . S
C519 O505 1.257 . S
C520 Eu456 2.787 . S
C520 O500 1.252 . S
C520 O503 1.268 . S
C520 C513 1.506 . S
C521 C488 1.439 . S
C521 H498 0.931 . S
C521 C522 1.374 . S
C522 C493 1.387 . S
C522 H499 0.931 . S
C522 C521 1.374 . S
C523 O507 1.249 . S
C523 O508 1.264 . S
C524 C527 1.382 . S
C524 C528 1.390 . S
C524 C531 1.506 . S
C525 C526 1.398 . S
C525 C528 1.392 . S
C526 C525 1.398 . S
C526 C529 1.372 . S
C526 H536 0.931 . S
C527 C524 1.382 . S
C527 C529 1.390 . S
C527 H537 0.931 . S
C528 C524 1.390 . S
C528 C525 1.392 . S
C528 H538 0.930 . S
C529 C526 1.372 . S
C529 C527 1.390 . S
C529 H539 0.929 . S
C530 O510 1.255 . S
C530 O511 1.257 . S
C531 Eu467 2.787 . S
C531 O506 1.252 . S
C531 O509 1.268 . S
C531 C524 1.506 . S
H532 C515 0.931 . S
H533 C516 0.931 . S
H534 C517 0.929 . S
H535 C518 0.930 . S
H536 C526 0.931 . S
H537 C527 0.931 . S
H538 C528 0.930 . S
H539 C529 0.929 . S
Eu540 N569 2.600 . S
Eu540 N575 2.562 . S
Eu540 O584 2.462 . S
Eu540 O585 2.373 1_455 S
Eu540 O587 2.432 . S
Eu540 O588 2.291 . S
Eu540 O592 2.335 . S
Eu540 O595 2.372 . S
Eu540 C604 2.787 . S
C541 N542 1.365 1_455 S
C541 C544 1.405 . S
C541 C548 1.448 . S
N542 C541 1.365 1_655 S
N542 C545 1.319 . S
N542 Eu551 2.600 . S
C543 C545 1.397 1_455 S
C543 C546 1.367 . S
C543 H563 0.931 . S
C544 C541 1.405 . S
C544 C546 1.403 . S
C544 C550 1.439 . S
C545 N542 1.319 . S
C545 C543 1.397 1_655 S
C545 H556 0.930 . S
C546 C543 1.367 . S
C546 C544 1.403 . S
C546 H567 0.929 . S
C547 C548 1.430 . S
C547 C549 1.387 . S
C547 C553 1.404 . S
C548 C541 1.448 . S
C548 C547 1.430 . S
C548 N552 1.351 . S
C549 C547 1.387 . S
C549 C550 1.374 . S
C549 H564 0.931 . S
C550 C544 1.439 . S
C550 C549 1.374 . S
C550 H565 0.931 . S
Eu551 N542 2.600 . S
Eu551 N552 2.562 1_655 S
Eu551 O586 2.335 . S
Eu551 O589 2.372 . S
Eu551 O590 2.462 . S
Eu551 O591 2.373 1_655 S
Eu551 O593 2.432 . S
Eu551 O594 2.302 . S
Eu551 C615 2.787 . S
N552 C548 1.351 . S
N552 Eu551 2.562 1_455 S
N552 C554 1.325 . S
C553 C547 1.404 . S
C553 C555 1.366 . S
C553 H561 0.930 1_556 S
C554 N552 1.325 . S
C554 C555 1.416 . S
C554 H560 0.920 1_455 S
C555 C553 1.366 . S
C555 C554 1.416 . S
C555 H557 0.930 . S
H556 C545 0.930 . S
H557 C555 0.930 . S
H558 C573 0.930 . S
H559 C580 0.930 . S
H560 C554 0.920 1_655 S
H561 C553 0.930 1_554 S
H562 C576 0.929 . S
H563 C543 0.931 . S
H564 C549 0.931 . S
H565 C550 0.931 . S
H566 C571 0.931 . S
H567 C546 0.929 . S
H568 C579 0.930 . S
N569 Eu540 2.600 . S
N569 C570 1.365 . S
N569 C573 1.319 . S
C570 N569 1.365 . S
C570 C572 1.405 1_455 S
C570 C578 1.444 1_455 S
C571 H566 0.931 . S
C571 C573 1.397 . S
C571 C574 1.367 1_455 S
C572 C570 1.405 1_655 S
C572 C574 1.403 . S
C572 C605 1.439 . S
C573 H558 0.930 . S
C573 N569 1.319 . S
C573 C571 1.397 . S
C574 C571 1.367 1_655 S
C574 C572 1.403 . S
C574 H581 0.929 . S
N575 Eu540 2.562 . S
N575 C576 1.325 . S
N575 C578 1.336 1_455 S
C576 H562 0.929 . S
C576 N575 1.325 . S
C576 C580 1.416 1_455 S
C577 C578 1.451 . S
C577 C579 1.404 . S
C577 C606 1.387 . S
C578 C570 1.444 1_655 S
C578 N575 1.336 1_655 S
C578 C577 1.451 . S
C579 H568 0.930 . S
C579 C577 1.404 . S
C579 C580 1.366 . S
C580 H559 0.930 . S
C580 C576 1.416 1_655 S
C580 C579 1.366 . S
H581 C574 0.929 . S
H582 C605 0.931 . S
H583 C606 0.931 . S
O584 Eu540 2.462 . S
O584 C604 1.252 . S
O585 Eu540 2.373 1_655 S
O585 C596 1.249 . S
O586 Eu551 2.335 . S
O586 C596 1.264 . S
O587 Eu540 2.432 . S
O587 C604 1.268 . S
O588 Eu540 2.291 . S
O588 C603 1.255 . S
O589 Eu551 2.372 . S
O589 C603 1.257 1_655 S
O590 Eu551 2.462 . S
O590 C615 1.252 . S
O591 Eu551 2.373 1_455 S
O591 C607 1.249 . S
O592 Eu540 2.335 . S
O592 C607 1.264 . S
O593 Eu551 2.432 . S
O593 C615 1.268 . S
O594 Eu551 2.302 . S
O594 C614 1.248 1_655 S
O595 Eu540 2.372 . S
O595 C614 1.257 . S
C596 O585 1.249 . S
C596 O586 1.264 . S
C597 C600 1.382 . S
C597 C602 1.390 . S
C597 C604 1.506 . S
C598 C599 1.398 . S
C598 C602 1.392 . S
C599 C598 1.398 . S
C599 C601 1.372 . S
C599 H616 0.931 . S
C600 C597 1.382 . S
C600 C601 1.390 . S
C600 H617 0.931 . S
C601 C599 1.372 . S
C601 C600 1.390 . S
C601 H618 0.929 . S
C602 C597 1.390 . S
C602 C598 1.392 . S
C602 H619 0.930 . S
C603 O588 1.255 . S
C603 O589 1.257 1_455 S
C604 Eu540 2.787 . S
C604 O584 1.252 . S
C604 O587 1.268 . S
C604 C597 1.506 . S
C605 C572 1.439 . S
C605 H582 0.931 . S
C605 C606 1.374 . S
C606 C577 1.387 . S
C606 H583 0.931 . S
C606 C605 1.374 . S
C607 O591 1.249 . S
C607 O592 1.264 . S
C608 C611 1.382 . S
C608 C612 1.390 . S
C608 C615 1.506 . S
C609 C610 1.398 . S
C609 C612 1.392 . S
C610 C609 1.398 . S
C610 C613 1.372 . S
C610 H620 0.931 . S
C611 C608 1.382 . S
C611 C613 1.390 . S
C611 H621 0.931 . S
C612 C608 1.390 . S
C612 C609 1.392 . S
C612 H622 0.930 . S
C613 C610 1.372 . S
C613 C611 1.390 . S
C613 H623 0.929 . S
C614 O594 1.248 1_455 S
C614 O595 1.257 . S
C615 Eu551 2.787 . S
C615 O590 1.252 . S
C615 O593 1.268 . S
C615 C608 1.506 . S
H616 C599 0.931 . S
H617 C600 0.931 . S
H618 C601 0.929 . S
H619 C602 0.930 . S
H620 C610 0.931 . S
H621 C611 0.931 . S
H622 C612 0.930 . S
H623 C613 0.929 . S
H624 C630 0.930 . S
H625 C633 0.930 . S
H626 C634 0.930 . S
H627 C635 0.930 . S
H628 C638 0.930 . S
H629 C639 0.930 . S
C630 H624 0.930 . S
C630 C631 1.355 . S
C630 C632 1.415 . S
C631 C630 1.355 . S
C631 C633 1.419 . S
C632 C630 1.415 . S
C632 C637 1.425 . S
C632 C639 1.409 . S
C633 H625 0.930 . S
C633 C631 1.419 . S
C633 C634 1.362 . S
C634 H626 0.930 . S
C634 C633 1.362 . S
C634 C637 1.409 . S
C635 H627 0.930 . S
C635 C636 1.355 . S
C635 C637 1.415 . S
C636 C635 1.355 . S
C636 C638 1.419 . S
C637 C632 1.425 . S
C637 C634 1.409 . S
C637 C635 1.415 . S
C638 H628 0.930 . S
C638 C636 1.419 . S
C638 C639 1.362 . S
C639 H629 0.930 . S
C639 C632 1.409 . S
C639 C638 1.362 . S
H640 C646 0.930 . S
H641 C649 0.930 . S
H642 C650 0.930 . S
H643 C651 0.930 . S
H644 C654 0.930 . S
H645 C655 0.930 . S
C646 H640 0.930 . S
C646 C647 1.355 . S
C646 C648 1.415 . S
C647 C646 1.355 . S
C647 C649 1.419 . S
C648 C646 1.415 . S
C648 C653 1.425 . S
C648 C655 1.409 . S
C649 H641 0.930 . S
C649 C647 1.419 . S
C649 C650 1.362 . S
C650 H642 0.930 . S
C650 C649 1.362 . S
C650 C653 1.409 . S
C651 H643 0.930 . S
C651 C652 1.355 . S
C651 C653 1.415 . S
C652 C651 1.355 . S
C652 C654 1.419 . S
C653 C648 1.425 . S
C653 C650 1.409 . S
C653 C651 1.415 . S
C654 H644 0.930 . S
C654 C652 1.419 . S
C654 C655 1.362 . S
C655 H645 0.930 . S
C655 C648 1.409 . S
C655 C654 1.362 . S
H656 C662 0.930 . S
H657 C665 0.930 . S
H658 C666 0.930 . S
H659 C667 0.930 . S
H660 C670 0.930 . S
H661 C671 0.930 . S
C662 H656 0.930 . S
C662 C663 1.355 . S
C662 C664 1.415 . S
C663 C662 1.355 . S
C663 C665 1.419 . S
C664 C662 1.415 . S
C664 C669 1.425 . S
C664 C671 1.409 . S
C665 H657 0.930 . S
C665 C663 1.419 . S
C665 C666 1.362 . S
C666 H658 0.930 . S
C666 C665 1.362 . S
C666 C669 1.409 . S
C667 H659 0.930 . S
C667 C668 1.355 . S
C667 C669 1.415 . S
C668 C667 1.355 . S
C668 C670 1.419 . S
C669 C664 1.425 . S
C669 C666 1.409 . S
C669 C667 1.415 . S
C670 H660 0.930 . S
C670 C668 1.419 . S
C670 C671 1.362 . S
C671 H661 0.930 . S
C671 C664 1.409 . S
C671 C670 1.362 . S
H672 C678 0.930 . S
H673 C681 0.930 . S
H674 C682 0.930 1_655 S
H675 C683 0.930 1_655 S
H676 C686 0.930 . S
H677 C687 0.930 . S
C678 H672 0.930 . S
C678 C679 1.355 . S
C678 C680 1.415 . S
C679 C678 1.355 . S
C679 C681 1.419 . S
C680 C678 1.415 . S
C680 C685 1.425 . S
C680 C687 1.409 . S
C681 H673 0.930 . S
C681 C679 1.419 . S
C681 C682 1.362 . S
C682 H674 0.930 1_455 S
C682 C681 1.362 . S
C682 C685 1.409 . S
C683 H675 0.930 1_455 S
C683 C684 1.355 . S
C683 C685 1.415 . S
C684 C683 1.355 . S
C684 C686 1.419 . S
C685 C680 1.425 . S
C685 C682 1.409 . S
C685 C683 1.415 . S
C686 H676 0.930 . S
C686 C684 1.419 . S
C686 C687 1.362 . S
C687 H677 0.930 . S
C687 C680 1.409 . S
C687 C686 1.362 . S
H688 C694 0.930 . S
H689 C697 0.930 . S
H690 C698 0.930 . S
H691 C699 0.939 . S
H692 C702 0.930 . S
H693 C703 0.930 . S
C694 H688 0.930 . S
C694 C695 1.355 . S
C694 C696 1.415 1_554 S
C695 C694 1.355 . S
C695 C697 1.419 . S
C696 C694 1.415 1_556 S
C696 C701 1.425 . S
C696 C703 1.409 . S
C697 H689 0.930 . S
C697 C695 1.419 . S
C697 C698 1.362 1_554 S
C698 H690 0.930 . S
C698 C697 1.362 1_556 S
C698 C701 1.409 . S
C699 H691 0.939 . S
C699 C700 1.355 . S
C699 C701 1.415 . S
C700 C699 1.355 . S
C700 C702 1.419 . S
C701 C696 1.425 . S
C701 C698 1.409 . S
C701 C699 1.415 . S
C702 H692 0.930 . S
C702 C700 1.419 . S
C702 C703 1.362 . S
C703 H693 0.930 . S
C703 C696 1.409 . S
C703 C702 1.362 . S
H704 C710 0.930 . S
H705 C713 0.930 . S
H706 C714 0.930 . S
H707 C715 0.930 . S
H708 C718 0.930 . S
H709 C719 0.930 . S
C710 H704 0.930 . S
C710 C711 1.355 . S
C710 C712 1.415 1_554 S
C711 C710 1.355 . S
C711 C713 1.419 . S
C712 C710 1.415 1_556 S
C712 C717 1.425 . S
C712 C719 1.409 . S
C713 H705 0.930 . S
C713 C711 1.419 . S
C713 C714 1.362 1_554 S
C714 H706 0.930 . S
C714 C713 1.362 1_556 S
C714 C717 1.409 . S
C715 H707 0.930 . S
C715 C716 1.355 . S
C715 C717 1.415 . S
C716 C715 1.355 . S
C716 C718 1.419 . S
C717 C712 1.425 . S
C717 C714 1.409 . S
C717 C715 1.415 . S
C718 H708 0.930 . S
C718 C716 1.419 . S
C718 C719 1.362 . S
C719 H709 0.930 . S
C719 C712 1.409 . S
C719 C718 1.362 . S
H720 C726 0.930 . S
H721 C729 0.930 . S
H722 C730 0.930 . S
H723 C731 0.930 . S
H724 C734 0.930 . S
H725 C735 0.930 . S
C726 H720 0.930 . S
C726 C727 1.355 . S
C726 C728 1.415 1_554 S
C727 C726 1.355 . S
C727 C729 1.419 . S
C728 C726 1.415 1_556 S
C728 C733 1.425 . S
C728 C735 1.409 . S
C729 H721 0.930 . S
C729 C727 1.419 . S
C729 C730 1.362 . S
C730 H722 0.930 . S
C730 C729 1.362 . S
C730 C733 1.409 1_554 S
C731 H723 0.930 . S
C731 C732 1.355 . S
C731 C733 1.415 . S
C732 C731 1.355 . S
C732 C734 1.419 . S
C733 C728 1.425 . S
C733 C730 1.409 1_556 S
C733 C731 1.415 . S
C734 H724 0.930 . S
C734 C732 1.419 . S
C734 C735 1.362 . S
C735 H725 0.930 . S
C735 C728 1.409 . S
C735 C734 1.362 . S
H736 C742 0.930 . S
H737 C745 0.930 . S
H738 C746 0.930 . S
H739 C747 0.930 . S
H740 C750 0.930 . S
H741 C751 0.930 . S
C742 H736 0.930 . S
C742 C743 1.355 . S
C742 C744 1.415 1_554 S
C743 C742 1.355 . S
C743 C745 1.419 . S
C744 C742 1.415 1_556 S
C744 C749 1.425 . S
C744 C751 1.409 1_655 S
C745 H737 0.930 . S
C745 C743 1.419 . S
C745 C746 1.362 . S
C746 H738 0.930 . S
C746 C745 1.362 . S
C746 C749 1.409 1_554 S
C747 H739 0.930 . S
C747 C748 1.355 . S
C747 C749 1.415 . S
C748 C747 1.355 . S
C748 C750 1.419 1_655 S
C749 C744 1.425 . S
C749 C746 1.409 1_556 S
C749 C747 1.415 . S
C750 H740 0.930 . S
C750 C748 1.419 1_455 S
C750 C751 1.362 . S
C751 H741 0.930 . S
C751 C744 1.409 1_455 S
C751 C750 1.362 . S
H752 C758 0.930 . S
H753 C761 0.930 . S
H754 C762 0.930 . S
H755 C763 0.930 . S
H756 C766 0.930 . S
H757 C767 0.930 . S
C758 H752 0.930 . S
C758 C759 1.355 . S
C758 C760 1.415 . S
C759 C758 1.355 . S
C759 C761 1.419 . S
C760 C758 1.415 . S
C760 C765 1.425 . S
C760 C767 1.409 1_455 S
C761 H753 0.930 . S
C761 C759 1.419 . S
C761 C762 1.362 . S
C762 H754 0.930 . S
C762 C761 1.362 . S
C762 C765 1.409 . S
C763 H755 0.930 . S
C763 C764 1.355 1_455 S
C763 C765 1.415 . S
C764 C763 1.355 1_655 S
C764 C766 1.419 . S
C765 C760 1.425 . S
C765 C762 1.409 . S
C765 C763 1.415 . S
C766 H756 0.930 . S
C766 C764 1.419 . S
C766 C767 1.362 . S
C767 H757 0.930 . S
C767 C760 1.409 1_655 S
C767 C766 1.362 . S
H768 C774 0.930 . S
H769 C777 0.930 . S
H770 C778 0.930 . S
H771 C779 0.929 . S
H772 C782 0.930 . S
H773 C783 0.930 . S
C774 H768 0.930 . S
C774 C775 1.355 . S
C774 C776 1.415 . S
C775 C774 1.355 . S
C775 C777 1.419 . S
C776 C774 1.415 . S
C776 C781 1.425 . S
C776 C783 1.409 . S
C777 H769 0.930 . S
C777 C775 1.419 . S
C777 C778 1.362 . S
C778 H770 0.930 . S
C778 C777 1.362 . S
C778 C781 1.409 . S
C779 H771 0.929 . S
C779 C780 1.355 1_565 S
C779 C781 1.415 1_565 S
C780 C779 1.355 1_545 S
C780 C782 1.430 . S
C781 C776 1.425 . S
C781 C778 1.409 . S
C781 C779 1.415 1_545 S
C782 H772 0.930 . S
C782 C780 1.430 . S
C782 C783 1.362 . S
C783 H773 0.930 . S
C783 C776 1.409 . S
C783 C782 1.362 . S
H784 C790 0.930 . S
H785 C793 0.930 . S
H786 C794 0.930 . S
H787 C795 0.930 . S
H788 C798 0.930 . S
H789 C799 0.930 . S
C790 H784 0.930 . S
C790 C791 1.355 . S
C790 C792 1.415 . S
C791 C790 1.355 . S
C791 C793 1.419 . S
C792 C790 1.415 . S
C792 C797 1.425 . S
C792 C799 1.409 . S
C793 H785 0.930 . S
C793 C791 1.419 . S
C793 C794 1.362 . S
C794 H786 0.930 . S
C794 C793 1.362 . S
C794 C797 1.409 . S
C795 H787 0.930 . S
C795 C796 1.355 . S
C795 C797 1.415 . S
C796 C795 1.355 . S
C796 C798 1.419 . S
C797 C792 1.425 . S
C797 C794 1.409 . S
C797 C795 1.415 . S
C798 H788 0.930 . S
C798 C796 1.419 . S
C798 C799 1.362 . S
C799 H789 0.930 . S
C799 C792 1.409 . S
C799 C798 1.362 . S
H800 C806 0.930 . S
H801 C809 0.930 . S
H802 C810 0.930 . S
H803 C811 0.930 . S
H804 C814 0.930 . S
H805 C815 0.930 . S
C806 H800 0.930 . S
C806 C807 1.355 . S
C806 C808 1.415 . S
C807 C806 1.355 . S
C807 C809 1.419 . S
C808 C806 1.415 . S
C808 C813 1.425 . S
C808 C815 1.409 . S
C809 H801 0.930 . S
C809 C807 1.419 . S
C809 C810 1.362 . S
C810 H802 0.930 . S
C810 C809 1.362 . S
C810 C813 1.409 . S
C811 H803 0.930 . S
C811 C812 1.355 . S
C811 C813 1.415 . S
C812 C811 1.355 . S
C812 C814 1.419 . S
C813 C808 1.425 . S
C813 C810 1.409 . S
C813 C811 1.415 . S
C814 H804 0.930 . S
C814 C812 1.419 . S
C814 C815 1.362 . S
C815 H805 0.930 . S
C815 C808 1.409 . S
C815 C814 1.362 . S
H816 C822 0.930 1_455 S
H817 C825 0.930 . S
H818 C826 0.930 . S
H819 C827 0.930 . S
H820 C830 0.930 . S
H821 C831 0.930 . S
C822 H816 0.930 1_655 S
C822 C823 1.355 . S
C822 C824 1.409 1_654 S
C823 C822 1.355 . S
C823 C825 1.419 . S
C824 C822 1.409 1_456 S
C824 C829 1.414 1_455 S
C824 C831 1.425 . S
C825 H817 0.930 . S
C825 C823 1.419 . S
C825 C826 1.362 1_554 S
C826 H818 0.930 . S
C826 C825 1.362 1_556 S
C826 C829 1.409 . S
C827 H819 0.930 . S
C827 C828 1.355 1_655 S
C827 C829 1.415 . S
C828 C827 1.355 1_455 S
C828 C830 1.419 . S
C829 C824 1.414 1_655 S
C829 C826 1.409 . S
C829 C827 1.415 . S
C830 H820 0.930 . S
C830 C828 1.419 . S
C830 C831 1.362 . S
C831 H821 0.930 . S
C831 C824 1.425 . S
C831 C830 1.362 . S
H832 C838 0.930 . S
H833 C841 0.930 . S
H834 C842 0.930 . S
H835 C843 0.930 . S
H836 C846 0.930 . S
H837 C847 0.930 . S
C838 H832 0.930 . S
C838 C839 1.355 . S
C838 C840 1.414 1_554 S
C839 C838 1.355 . S
C839 C841 1.419 1_554 S
C840 C838 1.414 1_556 S
C840 C845 1.426 1_565 S
C840 C847 1.409 1_556 S
C841 H833 0.930 . S
C841 C839 1.419 1_556 S
C841 C842 1.362 1_565 S
C842 H834 0.930 . S
C842 C841 1.362 1_545 S
C842 C845 1.409 . S
C843 H835 0.930 . S
C843 C844 1.355 . S
C843 C845 1.415 . S
C844 C843 1.355 . S
C844 C846 1.419 1_545 S
C845 C840 1.426 1_545 S
C845 C842 1.409 . S
C845 C843 1.415 . S
C846 H836 0.930 . S
C846 C844 1.419 1_565 S
C846 C847 1.362 1_556 S
C847 H837 0.930 . S
C847 C840 1.409 1_554 S
C847 C846 1.362 1_554 S
H848 C854 0.930 . S
H849 C857 0.930 . S
H850 C858 0.930 . S
H851 C859 0.930 . S
H852 C862 0.930 . S
H853 C863 0.930 . S
C854 H848 0.930 . S
C854 C855 1.355 1_556 S
C854 C856 1.415 . S
C855 C854 1.355 1_554 S
C855 C857 1.419 . S
C856 C854 1.415 . S
C856 C861 1.425 . S
C856 C863 1.409 . S
C857 H849 0.930 . S
C857 C855 1.419 . S
C857 C858 1.362 . S
C858 H850 0.930 . S
C858 C857 1.362 . S
C858 C861 1.409 1_554 S
C859 H851 0.930 . S
C859 C860 1.355 . S
C859 C861 1.415 . S
C860 C859 1.355 . S
C860 C862 1.419 . S
C861 C856 1.425 . S
C861 C858 1.409 1_556 S
C861 C859 1.415 . S
C862 H852 0.930 . S
C862 C860 1.419 . S
C862 C863 1.362 . S
C863 H853 0.930 . S
C863 C856 1.409 . S
C863 C862 1.362 . S
H864 C870 0.930 . S
H865 C873 0.930 . S
H866 C874 0.930 . S
H867 C875 0.930 . S
H868 C878 0.930 . S
H869 C879 0.930 . S
C870 H864 0.930 . S
C870 C871 1.355 . S
C870 C872 1.415 . S
C871 C870 1.355 . S
C871 C873 1.419 1_554 S
C872 C870 1.415 . S
C872 C877 1.425 1_554 S
C872 C879 1.409 . S
C873 H865 0.930 . S
C873 C871 1.419 1_556 S
C873 C874 1.362 . S
C874 H866 0.930 . S
C874 C873 1.362 . S
C874 C877 1.409 . S
C875 H867 0.930 . S
C875 C876 1.355 . S
C875 C877 1.415 . S
C876 C875 1.355 . S
C876 C878 1.419 . S
C877 C872 1.425 1_556 S
C877 C874 1.409 . S
C877 C875 1.415 . S
C878 H868 0.930 . S
C878 C876 1.419 . S
C878 C879 1.362 1_556 S
C879 H869 0.930 . S
C879 C872 1.409 . S
C879 C878 1.362 1_554 S
H880 C886 0.930 . S
H881 C889 0.930 . S
H882 C890 0.930 . S
H883 C891 0.930 . S
H884 C894 0.930 . S
H885 C895 0.930 . S
C886 H880 0.930 . S
C886 C887 1.355 . S
C886 C888 1.415 . S
C887 C886 1.355 . S
C887 C889 1.419 . S
C888 C886 1.415 . S
C888 C893 1.425 . S
C888 C895 1.409 . S
C889 H881 0.930 . S
C889 C887 1.419 . S
C889 C890 1.362 . S
C890 H882 0.930 . S
C890 C889 1.362 . S
C890 C893 1.409 . S
C891 H883 0.930 . S
C891 C892 1.355 . S
C891 C893 1.415 . S
C892 C891 1.355 . S
C892 C894 1.419 . S
C893 C888 1.425 . S
C893 C890 1.409 . S
C893 C891 1.415 . S
C894 H884 0.930 . S
C894 C892 1.419 . S
C894 C895 1.362 . S
C895 H885 0.930 . S
C895 C888 1.409 . S
C895 C894 1.362 . S
H896 C902 0.930 . S
H897 C905 0.903 1_565 S
H898 C906 0.930 1_565 S
H899 C907 0.930 1_565 S
H900 C910 0.930 . S
H901 C911 0.930 . S
C902 H896 0.930 . S
C902 C903 1.355 . S
C902 C904 1.415 . S
C903 C902 1.355 . S
C903 C905 1.419 . S
C904 C902 1.415 . S
C904 C909 1.425 . S
C904 C911 1.409 . S
C905 H897 0.903 1_545 S
C905 C903 1.419 . S
C905 C906 1.362 . S
C906 H898 0.930 1_545 S
C906 C905 1.362 . S
C906 C909 1.409 . S
C907 H899 0.930 1_545 S
C907 C908 1.355 . S
C907 C909 1.415 . S
C908 C907 1.355 . S
C908 C910 1.419 . S
C909 C904 1.425 . S
C909 C906 1.409 . S
C909 C907 1.415 . S
C910 H900 0.930 . S
C910 C908 1.419 . S
C910 C911 1.362 . S
C911 H901 0.930 . S
C911 C904 1.409 . S
C911 C910 1.362 . S
H912 C918 0.930 . S
H913 C921 0.930 . S
H914 C922 0.930 . S
H915 C923 0.930 . S
H916 C926 0.930 . S
H917 C927 0.930 . S
C918 H912 0.930 . S
C918 C919 1.355 . S
C918 C920 1.415 . S
C919 C918 1.355 . S
C919 C921 1.419 . S
C920 C918 1.415 . S
C920 C925 1.425 . S
C920 C927 1.409 . S
C921 H913 0.930 . S
C921 C919 1.419 . S
C921 C922 1.362 . S
C922 H914 0.930 . S
C922 C921 1.362 . S
C922 C925 1.409 . S
C923 H915 0.930 . S
C923 C924 1.355 . S
C923 C925 1.415 . S
C924 C923 1.355 . S
C924 C926 1.419 . S
C925 C920 1.425 . S
C925 C922 1.409 . S
C925 C923 1.415 . S
C926 H916 0.930 . S
C926 C924 1.419 . S
C926 C927 1.362 . S
C927 H917 0.930 . S
C927 C920 1.409 . S
C927 C926 1.362 . S
H928 C934 0.930 . S
H929 C937 0.930 . S
H930 C938 0.930 . S
H931 C939 0.930 . S
H932 C942 0.930 . S
H933 C943 0.930 . S
C934 H928 0.930 . S
C934 C935 1.355 . S
C934 C936 1.415 . S
C935 C934 1.355 . S
C935 C937 1.419 . S
C936 C934 1.415 . S
C936 C941 1.425 . S
C936 C943 1.409 . S
C937 H929 0.930 . S
C937 C935 1.419 . S
C937 C938 1.362 . S
C938 H930 0.930 . S
C938 C937 1.362 . S
C938 C941 1.409 . S
C939 H931 0.930 . S
C939 C940 1.355 . S
C939 C941 1.415 . S
C940 C939 1.355 . S
C940 C942 1.419 . S
C941 C936 1.425 . S
C941 C938 1.409 . S
C941 C939 1.415 . S
C942 H932 0.930 . S
C942 C940 1.419 . S
C942 C943 1.362 . S
C943 H933 0.930 . S
C943 C936 1.409 . S
C943 C942 1.362 . S
H944 C950 0.930 . S
H945 C953 0.930 . S
H946 C954 0.930 . S
H947 C955 0.930 . S
H948 C958 0.939 . S
H949 C959 0.930 . S
C950 H944 0.930 . S
C950 C951 1.355 . S
C950 C952 1.415 . S
C951 C950 1.355 . S
C951 C953 1.419 . S
C952 C950 1.415 . S
C952 C957 1.425 . S
C952 C959 1.409 . S
C953 H945 0.930 . S
C953 C951 1.419 . S
C953 C954 1.362 . S
C954 H946 0.930 . S
C954 C953 1.362 . S
C954 C957 1.409 . S
C955 H947 0.930 . S
C955 C956 1.355 . S
C955 C957 1.415 . S
C956 C955 1.355 . S
C956 C958 1.419 . S
C957 C952 1.425 . S
C957 C954 1.409 . S
C957 C955 1.415 . S
C958 H948 0.939 . S
C958 C956 1.419 . S
C958 C959 1.362 . S
C959 H949 0.930 . S
C959 C952 1.409 . S
C959 C958 1.362 . S
H960 C966 0.930 . S
H961 C969 0.934 . S
H962 C970 0.909 1_545 S
H963 C971 0.930 1_545 S
H964 C974 0.930 . S
H965 C975 0.930 . S
C966 H960 0.930 . S
C966 C967 1.355 . S
C966 C968 1.415 . S
C967 C966 1.355 . S
C967 C969 1.419 . S
C968 C966 1.415 . S
C968 C973 1.425 . S
C968 C975 1.409 . S
C969 H961 0.934 . S
C969 C967 1.419 . S
C969 C970 1.371 . S
C970 H962 0.909 1_565 S
C970 C969 1.371 . S
C970 C973 1.422 . S
C971 H963 0.930 1_565 S
C971 C972 1.355 . S
C971 C973 1.415 . S
C972 C971 1.355 . S
C972 C974 1.419 . S
C973 C968 1.425 . S
C973 C970 1.422 . S
C973 C971 1.415 . S
C974 H964 0.930 . S
C974 C972 1.419 . S
C974 C975 1.362 . S
C975 H965 0.930 . S
C975 C968 1.409 . S
C975 C974 1.362 . S
H976 C982 0.930 . S
H977 C985 0.930 . S
H978 C986 0.930 . S
H979 C987 0.930 . S
H980 C990 0.930 . S
H981 C991 0.930 . S
C982 H976 0.930 . S
C982 C983 1.355 . S
C982 C984 1.415 . S
C983 C982 1.355 . S
C983 C985 1.419 . S
C984 C982 1.415 . S
C984 C989 1.425 . S
C984 C991 1.409 . S
C985 H977 0.930 . S
C985 C983 1.419 . S
C985 C986 1.362 . S
C986 H978 0.930 . S
C986 C985 1.362 . S
C986 C989 1.409 . S
C987 H979 0.930 . S
C987 C988 1.355 . S
C987 C989 1.415 . S
C988 C987 1.355 . S
C988 C990 1.419 . S
C989 C984 1.425 . S
C989 C986 1.409 . S
C989 C987 1.415 . S
C990 H980 0.930 . S
C990 C988 1.419 . S
C990 C991 1.362 . S
C991 H981 0.930 . S
C991 C984 1.409 . S
C991 C990 1.362 . S
H992 C998 0.930 . S
H993 C1001 0.930 . S
H994 C1002 0.930 . S
H995 C1003 0.930 . S
H996 C1006 0.930 . S
H997 C1007 0.930 . S
C998 H992 0.930 . S
C998 C999 1.355 . S
C998 C1000 1.415 . S
C999 C998 1.355 . S
C999 C1001 1.419 . S
C1000 C998 1.415 . S
C1000 C1005 1.425 . S
C1000 C1007 1.409 . S
C1001 H993 0.930 . S
C1001 C999 1.419 . S
C1001 C1002 1.362 . S
C1002 H994 0.930 . S
C1002 C1001 1.362 . S
C1002 C1005 1.409 . S
C1003 H995 0.930 . S
C1003 C1004 1.355 . S
C1003 C1005 1.415 . S
C1004 C1003 1.355 . S
C1004 C1006 1.419 . S
C1005 C1000 1.425 . S
C1005 C1002 1.409 . S
C1005 C1003 1.415 . S
C1006 H996 0.930 . S
C1006 C1004 1.419 . S
C1006 C1007 1.362 . S
C1007 H997 0.930 . S
C1007 C1000 1.409 . S
C1007 C1006 1.362 . S
C631 C241 2.307 . S
C636 C351 2.554 . S
C652 C428 2.592 . S
C647 C277 2.400 . S
C668 C519 2.555 . S
C663 C169 2.307 . S
C684 C603 2.553 . S
C679 C205 2.305 . S
C700 C362 2.564 1_565 S
C695 C97 2.278 . S
C711 C133 2.415 . S
C716 C439 2.590 . S
C727 C25 2.355 . S
C732 C530 2.593 . S
C743 C61 2.337 . S
C748 C614 2.565 1_655 S
C764 C346 0.565 . S
C759 C211 0.656 . S
C780 C441 0.510 1_545 S
C775 C247 0.559 . S
C796 C514 0.582 . S
C791 C253 0.693 . S
C807 C175 0.640 . S
C812 C598 0.527 . S
C823 C67 0.675 . S
C828 C357 0.503 . S
C844 C430 0.490 . S
C839 C103 0.619 . S
C860 C525 0.512 . S
C855 C109 0.573 . S
C871 C31 0.711 . S
C876 C609 0.541 . S
C887 C181 2.721 . S
C892 C355 3.035 . S
C903 C217 2.747 . S
C908 C446 3.116 . S
C924 C523 3.076 . S
C919 C283 2.682 . S
C940 C607 3.070 . S
C935 C145 2.779 . S
C951 C37 2.707 . S
C956 C344 3.035 . S
C972 C435 3.117 . S
C967 C73 2.742 . S
C988 C512 3.057 . S
C983 C139 2.662 . S
C999 C1 2.710 . S
C1004 C596 3.046 . S
