# Generated by pormake.
# Topology rtl, (3,6)-cn, num edge types: 1
# Building blocks:
#     Node 0, Type 0, BuildingBlock: KAKCAD_clean_linker_0, # of connection points: 3
#     Node 1, Type 0, BuildingBlock: KAKCAD_clean_linker_0, # of connection points: 3
#     Node 2, Type 0, BuildingBlock: KAKCAD_clean_linker_0, # of connection points: 3
#     Node 3, Type 0, BuildingBlock: KAKCAD_clean_linker_0, # of connection points: 3
#     Node 4, Type 1, BuildingBlock: FUNLAD_clean_sbu_0, # of connection points: 6
#     Node 5, Type 1, BuildingBlock: FUNLAD_clean_sbu_0, # of connection points: 6
#     Edge 6, Type (0, 1), BuildingBlock: KIFKEQ_clean_linker_1, # of connection points: 2
#     Edge 7, Type (0, 1), BuildingBlock: KIFKEQ_clean_linker_1, # of connection points: 2
#     Edge 8, Type (0, 1), BuildingBlock: KIFKEQ_clean_linker_1, # of connection points: 2
#     Edge 9, Type (0, 1), BuildingBlock: KIFKEQ_clean_linker_1, # of connection points: 2
#     Edge 10, Type (0, 1), BuildingBlock: KIFKEQ_clean_linker_1, # of connection points: 2
#     Edge 11, Type (0, 1), BuildingBlock: KIFKEQ_clean_linker_1, # of connection points: 2
#     Edge 12, Type (0, 1), BuildingBlock: KIFKEQ_clean_linker_1, # of connection points: 2
#     Edge 13, Type (0, 1), BuildingBlock: KIFKEQ_clean_linker_1, # of connection points: 2
#     Edge 14, Type (0, 1), BuildingBlock: KIFKEQ_clean_linker_1, # of connection points: 2
#     Edge 15, Type (0, 1), BuildingBlock: KIFKEQ_clean_linker_1, # of connection points: 2
#     Edge 16, Type (0, 1), BuildingBlock: KIFKEQ_clean_linker_1, # of connection points: 2
#     Edge 17, Type (0, 1), BuildingBlock: KIFKEQ_clean_linker_1, # of connection points: 2
# Relax obj value: 0.027
# Max RMSD: 0.091
# Mean RMSD: 0.078
data_MOF--net-rtl--node1-FUNLAD_clean_sbu_0--node2-KAKCAD_clean_linker_0--edge1-KIFKEQ_clean_linker_1
_symmetry_space_group_name_H-M    P1
_symmetry_Int_Tables_number       1
_symmetry_cell_setting            triclinic
loop_
_symmetry_equiv_pos_as_xyz
'x, y, z'
_cell_length_a     49.778793
_cell_length_b     40.563072
_cell_length_c     28.841572
_cell_angle_alpha  89.861865
_cell_angle_beta   90.896397
_cell_angle_gamma 90.510696
loop_
_atom_site_label
_atom_site_type_symbol
_atom_site_fract_x
_atom_site_fract_y
_atom_site_fract_z
_atom_type_partial_charge
C0 C 0.09221 0.78735 0.85125 0.0
C1 C 0.08355 0.82022 0.85105 0.0
C2 C 0.10194 0.77291 0.89231 0.0
C3 C 0.10344 0.79128 0.93363 0.0
C4 C 0.09537 0.82444 0.93272 0.0
C5 C 0.08536 0.83861 0.89207 0.0
C6 C 0.11355 0.77653 0.97778 0.0
C7 C 0.13568 0.75532 0.97858 0.0
C8 C 0.14678 0.74425 0.02094 0.0
C9 C 0.1357 0.75501 0.06283 0.0
C10 C 0.11353 0.7762 0.06257 0.0
C11 C 0.10209 0.78572 0.01989 0.0
C12 C 0.10323 0.79047 0.10624 0.0
C13 C 0.10133 0.77162 0.14712 0.0
C14 C 0.09523 0.82365 0.10707 0.0
C15 C 0.08486 0.83737 0.14711 0.0
C16 C 0.08259 0.81849 0.18765 0.0
C17 C 0.171 0.72315 0.02121 0.0
C18 C 0.17298 0.69671 0.99006 0.0
C19 C 0.1927 0.73001 0.05152 0.0
C20 C 0.21606 0.71125 0.0501 0.0
C21 C 0.21824 0.68518 0.0184 0.0
C22 C 0.19633 0.67787 0.98875 0.0
C23 C 0.09121 0.7856 0.1876 0.0
H24 H 0.09097 0.7727 0.81993 0.0
H25 H 0.10789 0.7473 0.89183 0.0
H26 H 0.09703 0.83971 0.9634 0.0
H27 H 0.07935 0.86422 0.89257 0.0
H28 H 0.14512 0.74868 0.94636 0.0
H29 H 0.08434 0.801 0.01947 0.0
H30 H 0.14472 0.74747 0.09555 0.0
H31 H 0.10721 0.74599 0.14764 0.0
H32 H 0.09719 0.83926 0.07677 0.0
H33 H 0.07892 0.86301 0.14653 0.0
H34 H 0.1565 0.69069 0.96652 0.0
H35 H 0.19192 0.75042 0.07559 0.0
H36 H 0.08965 0.77057 0.21855 0.0
H37 H 0.19747 0.65809 0.9637 0.0
H38 H 0.2325 0.71726 0.07374 0.0
C39 C 0.58767 0.72395 0.67591 0.0
C40 C 0.57804 0.69129 0.67554 0.0
C41 C 0.5967 0.7387 0.63496 0.0
C42 C 0.59648 0.72085 0.59316 0.0
C43 C 0.58735 0.68792 0.59344 0.0
C44 C 0.57808 0.67345 0.63399 0.0
C45 C 0.60617 0.73572 0.54925 0.0
C46 C 0.62928 0.75581 0.54865 0.0
C47 C 0.64022 0.76631 0.50638 0.0
C48 C 0.62794 0.75621 0.46443 0.0
C49 C 0.60479 0.73618 0.46448 0.0
C50 C 0.59353 0.72729 0.50705 0.0
C51 C 0.59363 0.72189 0.42074 0.0
C52 C 0.59273 0.7402 0.37923 0.0
C53 C 0.58444 0.68899 0.42021 0.0
C54 C 0.57425 0.67489 0.3796 0.0
C55 C 0.57333 0.69309 0.33824 0.0
C56 C 0.66556 0.78582 0.50615 0.0
C57 C 0.6695 0.81225 0.537 0.0
C58 C 0.6863 0.77751 0.47593 0.0
C59 C 0.71057 0.79499 0.47691 0.0
C60 C 0.71465 0.8212 0.50808 0.0
C61 C 0.69378 0.82983 0.53787 0.0
C62 C 0.58279 0.72583 0.33823 0.0
H63 H 0.58782 0.73818 0.70765 0.0
H64 H 0.60353 0.76411 0.63592 0.0
H65 H 0.5877 0.67302 0.56235 0.0
H66 H 0.5713 0.64799 0.63301 0.0
H67 H 0.63962 0.76181 0.58092 0.0
H68 H 0.57514 0.71281 0.50734 0.0
H69 H 0.63689 0.76318 0.4318 0.0
H70 H 0.59951 0.76563 0.37846 0.0
H71 H 0.58559 0.67375 0.45105 0.0
H72 H 0.56764 0.64937 0.38033 0.0
H73 H 0.6538 0.81932 0.5605 0.0
H74 H 0.68399 0.75702 0.45215 0.0
H75 H 0.58224 0.74035 0.30667 0.0
H76 H 0.69641 0.84974 0.56253 0.0
H77 H 0.72617 0.78798 0.4532 0.0
C78 C 0.89175 0.18551 0.16689 0.0
C79 C 0.91939 0.18179 0.17574 0.0
C80 C 0.88268 0.20202 0.12716 0.0
C81 C 0.90108 0.21492 0.09526 0.0
C82 C 0.92874 0.2116 0.10441 0.0
C83 C 0.93781 0.19535 0.1444 0.0
C84 C 0.89136 0.23067 0.05175 0.0
C85 C 0.87017 0.25318 0.05246 0.0
C86 C 0.85978 0.26672 0.01112 0.0
C87 C 0.87136 0.25805 0.96871 0.0
C88 C 0.89247 0.23519 0.96719 0.0
C89 C 0.9023 0.22175 0.00911 0.0
C90 C 0.90302 0.22335 0.92205 0.0
C91 C 0.88579 0.21912 0.88334 0.0
C92 C 0.93007 0.2141 0.91811 0.0
C93 C 0.93922 0.19924 0.87773 0.0
C94 C 0.92174 0.19388 0.83961 0.0
C95 C 0.83581 0.28831 0.01221 0.0
C96 C 0.81426 0.28031 0.04122 0.0
C97 C 0.83392 0.31646 0.98383 0.0
C98 C 0.81096 0.33612 0.98447 0.0
C99 C 0.78943 0.32804 0.01353 0.0
C100 C 0.7914 0.29993 0.0419 0.0
C101 C 0.8951 0.20496 0.84256 0.0
H102 H 0.87711 0.17555 0.19065 0.0
H103 H 0.86125 0.20395 0.12081 0.0
H104 H 0.94335 0.22149 0.08052 0.0
H105 H 0.95923 0.19265 0.1502 0.0
H106 H 0.86173 0.26017 0.08539 0.0
H107 H 0.91768 0.20303 0.00864 0.0
H108 H 0.86339 0.26847 0.93682 0.0
H109 H 0.86478 0.2256 0.88486 0.0
H110 H 0.94417 0.21763 0.94666 0.0
H111 H 0.9598 0.1909 0.87728 0.0
H112 H 0.8148 0.25842 0.06278 0.0
H113 H 0.85028 0.32346 0.96143 0.0
H114 H 0.88113 0.20213 0.81367 0.0
H115 H 0.77497 0.29261 0.06398 0.0
H116 H 0.81015 0.3578 0.96252 0.0
C117 C 0.39541 0.3135 0.34735 0.0
C118 C 0.4229 0.31744 0.33824 0.0
C119 C 0.38704 0.29709 0.38727 0.0
C120 C 0.40599 0.28441 0.41907 0.0
C121 C 0.43348 0.28771 0.40948 0.0
C122 C 0.44186 0.30395 0.36934 0.0
C123 C 0.39704 0.26935 0.46319 0.0
C124 C 0.37503 0.24755 0.46369 0.0
C125 C 0.36505 0.23535 0.50571 0.0
C126 C 0.3779 0.24448 0.54756 0.0
C127 C 0.39987 0.26658 0.54786 0.0
C128 C 0.40931 0.27872 0.50532 0.0
C129 C 0.41154 0.27933 0.59233 0.0
C130 C 0.39493 0.28571 0.63032 0.0
C131 C 0.43905 0.28751 0.59609 0.0
C132 C 0.44932 0.30329 0.63564 0.0
C133 C 0.43246 0.3105 0.67271 0.0
C134 C 0.33994 0.21529 0.50607 0.0
C135 C 0.318 0.22425 0.47761 0.0
C136 C 0.33721 0.18806 0.53595 0.0
C137 C 0.31293 0.17049 0.53774 0.0
C138 C 0.29086 0.1799 0.50984 0.0
C139 C 0.29379 0.20676 0.47943 0.0
C140 C 0.40536 0.30087 0.67024 0.0
H141 H 0.38035 0.32337 0.32376 0.0
H142 H 0.36573 0.2952 0.39394 0.0
H143 H 0.44851 0.278 0.43326 0.0
H144 H 0.46318 0.3068 0.36336 0.0
H145 H 0.36549 0.24028 0.43121 0.0
H146 H 0.42533 0.29696 0.50493 0.0
H147 H 0.37017 0.23523 0.58002 0.0
H148 H 0.37359 0.28039 0.62862 0.0
H149 H 0.45261 0.28234 0.56808 0.0
H150 H 0.47037 0.31031 0.63705 0.0
H151 H 0.31929 0.24536 0.45465 0.0
H152 H 0.35381 0.18041 0.55805 0.0
H153 H 0.39194 0.30651 0.6983 0.0
H154 H 0.2773 0.21436 0.45703 0.0
H155 H 0.31124 0.15002 0.56173 0.0
C156 C 0.01851 0.95816 0.44949 0.0
N157 N 0.05927 0.03605 0.51574 0.0
C158 C 0.0815 0.01676 0.51724 0.0
C159 C 0.10712 0.03105 0.51797 0.0
C160 C 0.1099 0.06553 0.51723 0.0
C161 C 0.08659 0.08481 0.51554 0.0
C162 C 0.06137 0.06949 0.51479 0.0
Zn163 Zn 0.02213 0.0143 0.51552 0.0
C164 C 0.98475 0.04466 0.44683 0.0
N165 N 0.94492 0.96815 0.51602 0.0
C166 C 0.94311 0.93467 0.51558 0.0
C167 C 0.92254 0.98715 0.51662 0.0
C168 C 0.89705 0.97251 0.51689 0.0
C169 C 0.89458 0.93798 0.51653 0.0
C170 C 0.91805 0.91902 0.51578 0.0
Zn171 Zn 0.98193 0.99006 0.51601 0.0
O172 O 0.03473 0.97981 0.46551 0.0
C173 C 0.01916 0.95928 0.58411 0.0
O174 O 0.99454 0.95721 0.46395 0.0
H175 H 0.92445 0.01372 0.51704 0.0
H176 H 0.07937 0.99021 0.51811 0.0
H177 H 0.96116 0.92005 0.51499 0.0
O178 O 0.03479 0.98173 0.56919 0.0
O179 O 0.99543 0.95699 0.56759 0.0
H180 H 0.04344 0.08435 0.51347 0.0
O181 O 0.96993 0.02294 0.56822 0.0
O182 O 0.00887 0.04863 0.56587 0.0
O183 O 0.96884 0.02351 0.46426 0.0
O184 O 0.00896 0.04623 0.46147 0.0
C185 C 0.98547 0.04585 0.58257 0.0
H186 H 0.12453 0.01526 0.51979 0.0
H187 H 0.08782 0.11147 0.51428 0.0
H188 H 0.87951 0.98806 0.51799 0.0
H189 H 0.91709 0.89235 0.51478 0.0
C190 C 0.48689 0.45914 0.9365 0.0
N191 N 0.55992 0.47194 0.00923 0.0
C192 C 0.56218 0.43856 0.01068 0.0
C193 C 0.58746 0.42395 0.01192 0.0
C194 C 0.6107 0.44386 0.01158 0.0
C195 C 0.60777 0.47826 0.01003 0.0
C196 C 0.58207 0.49184 0.00895 0.0
Zn197 Zn 0.5225 0.49231 0.00685 0.0
C198 C 0.51889 0.54729 0.93867 0.0
N199 N 0.44431 0.5346 0.00098 0.0
C200 C 0.42182 0.51529 -0.00067 0.0
C201 C 0.44265 0.56804 0.00183 0.0
C202 C 0.41769 0.58334 0.00124 0.0
C203 C 0.39409 0.5641 -0.00032 0.0
C204 C 0.39637 0.5296 -0.00131 0.0
Zn205 Zn 0.48156 0.51386 0.00325 0.0
O206 O 0.51016 0.45788 0.95518 0.0
C207 C 0.48497 0.45934 0.07203 0.0
O208 O 0.47044 0.48086 0.94966 0.0
H209 H 0.46076 0.58295 0.00335 0.0
H210 H 0.54432 0.42318 0.01067 0.0
H211 H 0.42361 0.48874 -0.00136 0.0
O212 O 0.50933 0.45947 0.05943 0.0
O213 O 0.46861 0.47951 0.05347 0.0
H214 H 0.57983 0.51833 0.00789 0.0
O215 O 0.49334 0.54682 0.05662 0.0
O216 O 0.53418 0.52697 0.05818 0.0
O217 O 0.49497 0.54784 0.95328 0.0
O218 O 0.53505 0.52581 0.95457 0.0
C219 C 0.51717 0.54742 0.07302 0.0
H220 H 0.58878 0.39731 0.01247 0.0
H221 H 0.62514 0.49453 0.01024 0.0
H222 H 0.41691 0.60999 0.00282 0.0
H223 H 0.37871 0.51385 0.99704 0.0
H224 H 0.28152 0.11331 0.51571 0.0
H225 H 0.2409 0.20697 0.51129 0.0
H226 H 0.23815 0.08484 0.52008 0.0
H227 H 0.19768 0.17858 0.51394 0.0
H228 H 0.1263 0.11974 0.56658 0.0
H229 H 0.17033 0.14649 0.56687 0.0
H230 H 0.19871 0.07378 0.47044 0.0
H231 H 0.15464 0.04698 0.47019 0.0
C232 C 0.26335 0.1278 0.51581 0.0
C233 C 0.26464 0.16238 0.51299 0.0
C234 C 0.23852 0.1115 0.51783 0.0
C235 C 0.21447 0.12945 0.5173 0.0
C236 C 0.21582 0.16403 0.51492 0.0
C237 C 0.24059 0.18029 0.51282 0.0
C238 C 0.14189 0.10958 0.54522 0.0
C239 C 0.13693 0.08133 0.51819 0.0
C240 C 0.16712 0.12489 0.54542 0.0
C241 C 0.188 0.11232 0.51855 0.0
C242 C 0.18316 0.08381 0.492 0.0
C243 C 0.15791 0.06848 0.49182 0.0
H244 H 0.26947 0.70963 0.01978 0.0
H245 H 0.22434 0.6184 0.00965 0.0
H246 H 0.31126 0.6792 0.01434 0.0
H247 H 0.26627 0.58795 0.00285 0.0
H248 H 0.34925 0.54513 0.04723 0.0
H249 H 0.30623 0.57341 0.05066 0.0
H250 H 0.33561 0.64769 0.95614 0.0
H251 H 0.37848 0.61939 0.95244 0.0
C252 C 0.26849 0.68304 0.01657 0.0
C253 C 0.24361 0.6664 0.0153 0.0
C254 C 0.29242 0.66565 0.01289 0.0
C255 C 0.29205 0.63119 0.00793 0.0
C256 C 0.26719 0.61447 0.00692 0.0
C257 C 0.2432 0.63192 0.01041 0.0
C258 C 0.34639 0.56723 0.02667 0.0
C259 C 0.36737 0.58013 -0.00018 0.0
C260 C 0.32176 0.58344 0.02868 0.0
C261 C 0.31762 0.61292 0.00397 0.0
C262 C 0.33837 0.62537 0.97629 0.0
C263 C 0.36294 0.60916 0.97419 0.0
H264 H 0.76479 0.79469 0.50629 0.0
H265 H 0.7236 0.88773 0.51465 0.0
H266 H 0.8079 0.82362 0.50875 0.0
H267 H 0.76685 0.91668 0.51849 0.0
H268 H 0.84911 0.95613 0.46862 0.0
H269 H 0.80533 0.92859 0.46775 0.0
H270 H 0.83561 0.85557 0.56398 0.0
H271 H 0.8793 0.88317 0.56514 0.0
C272 C 0.76496 0.82134 0.50855 0.0
C273 C 0.74081 0.83895 0.51011 0.0
C274 C 0.78965 0.83788 0.51049 0.0
C275 C 0.79076 0.87241 0.51393 0.0
C276 C 0.76662 0.89006 0.51547 0.0
C277 C 0.74188 0.87348 0.51371 0.0
C278 C 0.84633 0.93443 0.49002 0.0
C279 C 0.86773 0.92176 0.5168 0.0
C280 C 0.82126 0.91866 0.48949 0.0
C281 C 0.81707 0.88985 0.51565 0.0
C282 C 0.83836 0.87742 0.54285 0.0
C283 C 0.86339 0.89321 0.54346 0.0
H284 H 0.76247 0.35483 0.93918 0.0
H285 H 0.76036 0.34686 0.08848 0.0
H286 H 0.7201 0.38466 0.9394 0.0
H287 H 0.71804 0.37662 0.08869 0.0
H288 H 0.62772 0.39171 0.06418 0.0
H289 H 0.67164 0.36572 0.06458 0.0
H290 H 0.69924 0.43642 0.96327 0.0
H291 H 0.65492 0.4618 0.96172 0.0
C292 C 0.75317 0.35987 0.97209 0.0
C293 C 0.76468 0.34826 0.01378 0.0
C294 C 0.72889 0.37696 0.97222 0.0
C295 C 0.7156 0.38279 0.01404 0.0
C296 C 0.72751 0.37197 0.05581 0.0
C297 C 0.75176 0.35492 0.05568 0.0
C298 C 0.64309 0.40159 0.04176 0.0
C299 C 0.63778 0.42875 0.0128 0.0
C300 C 0.66837 0.38694 0.04239 0.0
C301 C 0.68897 0.39906 0.01404 0.0
C302 C 0.68373 0.42634 0.98524 0.0
C303 C 0.65843 0.44108 0.98471 0.0
H304 H 0.10387 0.81854 0.27558 0.0
H305 H 0.03635 0.85313 0.1939 0.0
H306 H 0.08767 0.84918 0.34265 0.0
H307 H 0.02028 0.8838 0.26048 0.0
H308 H 0.98762 0.91416 0.40017 0.0
H309 H 0.0022 0.87607 0.34037 0.0
H310 H 0.08405 0.91007 0.35969 0.0
H311 H 0.06959 0.94812 0.41956 0.0
C312 C 0.08536 0.83226 0.27227 0.0
C313 C 0.07141 0.83369 0.22964 0.0
C314 C 0.07622 0.84996 0.31041 0.0
C315 C 0.0528 0.86897 0.30665 0.0
C316 C 0.03828 0.86918 0.26451 0.0
C317 C 0.04756 0.85184 0.22635 0.0
C318 C 0.00875 0.9134 0.39184 0.0
C319 C 0.02742 0.93433 0.41434 0.0
C320 C 0.01706 0.89163 0.35757 0.0
C321 C 0.04424 0.89012 0.34543 0.0
C322 C 0.06302 0.91045 0.36872 0.0
C323 C 0.05468 0.93243 0.4027 0.0
H324 H 0.60277 0.68844 0.76072 0.0
H325 H 0.53122 0.65746 0.68573 0.0
H326 H 0.58832 0.65641 0.82829 0.0
H327 H 0.51693 0.62535 0.75265 0.0
H328 H 0.48815 0.59295 0.89359 0.0
H329 H 0.50209 0.63185 0.83396 0.0
H330 H 0.58323 0.59548 0.84448 0.0
H331 H 0.56941 0.55659 0.90454 0.0
C332 C 0.58379 0.6752 0.75903 0.0
C333 C 0.56814 0.67522 0.71811 0.0
C334 C 0.57565 0.65669 0.79741 0.0
C335 C 0.55158 0.63831 0.79558 0.0
C336 C 0.53547 0.63947 0.75521 0.0
C337 C 0.54371 0.65765 0.71683 0.0
C338 C 0.50901 0.5933 0.88339 0.0
C339 C 0.52764 0.57147 0.9035 0.0
C340 C 0.51695 0.61557 0.84919 0.0
C341 C 0.54371 0.61663 0.83456 0.0
C342 C 0.56252 0.59542 0.85546 0.0
C343 C 0.55455 0.57297 0.88953 0.0
H344 H 0.95954 0.19837 0.23751 0.0
H345 H 0.90089 0.1223 0.20611 0.0
H346 H 0.97516 0.16683 0.30481 0.0
H347 H 0.91682 0.09037 0.27239 0.0
H348 H 0.93304 0.05469 0.418 0.0
H349 H 0.9172 0.08936 0.35452 0.0
H350 H 0.99911 0.11814 0.32578 0.0
H351 H 0.01485 0.08433 0.39054 0.0
C352 C 0.95013 0.1748 0.24488 0.0
C353 C 0.92892 0.16286 0.21675 0.0
C354 C 0.95911 0.15666 0.28332 0.0
C355 C 0.94722 0.12606 0.2942 0.0
C356 C 0.92608 0.11413 0.26575 0.0
C357 C 0.91697 0.13238 0.22764 0.0
C358 C 0.94767 0.06853 0.39827 0.0
C359 C 0.97521 0.06665 0.40918 0.0
C360 C 0.9386 0.08828 0.36164 0.0
C361 C 0.95687 0.10638 0.33468 0.0
C362 C 0.98442 0.10487 0.34609 0.0
C363 C 0.99348 0.08533 0.38307 0.0
H364 H 0.45643 0.37067 0.66917 0.0
H365 H 0.43049 0.29535 0.76493 0.0
H366 H 0.46997 0.40598 0.73446 0.0
H367 H 0.44478 0.33046 0.83039 0.0
H368 H 0.50774 0.39837 0.91947 0.0
H369 H 0.49525 0.36056 0.85623 0.0
H370 H 0.43701 0.43048 0.80527 0.0
H371 H 0.44878 0.46789 0.86901 0.0
C372 C 0.45406 0.36154 0.70421 0.0
C373 C 0.44252 0.33038 0.71225 0.0
C374 C 0.46164 0.38173 0.74138 0.0
C375 C 0.45834 0.37078 0.78712 0.0
C376 C 0.44755 0.33924 0.79527 0.0
C377 C 0.43937 0.31931 0.75804 0.0
C378 C 0.49219 0.40556 0.89486 0.0
C379 C 0.47921 0.43602 0.89907 0.0
C380 C 0.48504 0.38393 0.85894 0.0
C381 C 0.46529 0.39284 0.82613 0.0
C382 C 0.45237 0.42326 0.83022 0.0
C383 C 0.45904 0.44452 0.86669 0.0
H384 H 0.52711 0.65764 0.32679 0.0
H385 H 0.59695 0.69206 0.25344 0.0
H386 H 0.51307 0.62521 0.25942 0.0
H387 H 0.58272 0.65981 0.18551 0.0
H388 H 0.5673 0.55952 0.10949 0.0
H389 H 0.57984 0.59894 0.17001 0.0
H390 H 0.49733 0.6303 0.17743 0.0
H391 H 0.48468 0.59078 0.11717 0.0
C392 C 0.53925 0.65855 0.29594 0.0
C393 C 0.56318 0.67714 0.2953 0.0
C394 C 0.53113 0.6402 0.25731 0.0
C395 C 0.54689 0.63987 0.21734 0.0
C396 C 0.57035 0.6594 0.21608 0.0
C397 C 0.57835 0.67805 0.25468 0.0
C398 C 0.55185 0.57489 0.12392 0.0
C399 C 0.52496 0.57184 0.10881 0.0
C400 C 0.55908 0.59766 0.15826 0.0
C401 C 0.53955 0.61768 0.17836 0.0
C402 C 0.51275 0.61498 0.16277 0.0
C403 C 0.50554 0.59238 0.12824 0.0
H404 H 0.89207 0.15154 0.78452 0.0
H405 H 0.97204 0.19295 0.80071 0.0
H406 H 0.90694 0.11897 0.71995 0.0
H407 H 0.98757 0.15767 0.73902 0.0
H408 H 0.00433 0.10798 0.60159 0.0
H409 H 0.98829 0.14601 0.66022 0.0
H410 H 0.93108 0.07213 0.70537 0.0
H411 H 0.94604 0.03528 0.64507 0.0
C412 C 0.91282 0.15396 0.77431 0.0
C413 C 0.93078 0.17505 0.79831 0.0
C414 C 0.92154 0.13459 0.73764 0.0
C415 C 0.94863 0.13507 0.72446 0.0
C416 C 0.96651 0.15667 0.74775 0.0
C417 C 0.95765 0.1766 0.78386 0.0
C418 C 0.98826 0.10005 0.62405 0.0
C419 C 0.97634 0.06876 0.61867 0.0
C420 C 0.97914 0.12175 0.65789 0.0
C421 C 0.95823 0.11237 0.68769 0.0
C422 C 0.94668 0.08075 0.68247 0.0
C423 C 0.95541 0.0594 0.64808 0.0
H424 H 0.4038 0.37663 0.30844 0.0
H425 H 0.46211 0.3022 0.27649 0.0
H426 H 0.41878 0.40949 0.24293 0.0
H427 H 0.47685 0.33479 0.21007 0.0
H428 H 0.51569 0.42005 0.12851 0.0
H429 H 0.50056 0.38479 0.19168 0.0
H430 H 0.41825 0.41098 0.16038 0.0
H431 H 0.43344 0.44702 0.09838 0.0
C432 C 0.41958 0.36709 0.28693 0.0
C433 C 0.43172 0.3368 0.29747 0.0
C434 C 0.42815 0.38588 0.24929 0.0
C435 C 0.44896 0.37475 0.22102 0.0
C436 C 0.46103 0.34432 0.23146 0.0
C437 C 0.45256 0.32561 0.2694 0.0
C438 C 0.49436 0.41817 0.13505 0.0
C439 C 0.47578 0.43652 0.10867 0.0
C440 C 0.48566 0.3978 0.17109 0.0
C441 C 0.45819 0.39515 0.18133 0.0
C442 C 0.4396 0.41292 0.1541 0.0
C443 C 0.4483 0.43346 0.11835 0.0
H444 H 0.03711 0.85433 0.84151 0.0
H445 H 0.10582 0.82176 0.76506 0.0
H446 H 0.02128 0.88528 0.77393 0.0
H447 H 0.08988 0.85274 0.697 0.0
H448 H 0.07023 0.9515 0.61847 0.0
H449 H 0.08514 0.91396 0.67981 0.0
H450 H 0.00405 0.87669 0.69251 0.0
H451 H 0.98905 0.91418 0.63132 0.0
C452 C 0.04865 0.85358 0.80999 0.0
C453 C 0.07272 0.83585 0.80842 0.0
C454 C 0.03953 0.87109 0.77127 0.0
C455 C 0.05442 0.87148 0.73033 0.0
C456 C 0.07815 0.85303 0.72831 0.0
C457 C 0.08713 0.83514 0.76699 0.0
C458 C 0.0556 0.93522 0.63423 0.0
C459 C 0.02843 0.93599 0.62031 0.0
C460 C 0.06419 0.91354 0.66904 0.0
C461 C 0.04573 0.89245 0.69086 0.0
C462 C 0.01866 0.89287 0.67648 0.0
C463 C 0.01011 0.9143 0.64141 0.0
loop_
_geom_bond_atom_site_label_1
_geom_bond_atom_site_label_2
_geom_bond_distance
_geom_bond_site_symmetry_2
_ccdc_geom_bond_type
C0 C1 1.386 . S
C0 C2 1.397 . S
C0 H24 0.931 . S
C1 C0 1.386 . S
C1 C5 1.397 . S
C2 C0 1.397 . S
C2 C3 1.384 . S
C2 H25 0.930 . S
C3 C2 1.384 . S
C3 C4 1.377 . S
C3 C6 1.481 . S
C4 C3 1.377 . S
C4 C5 1.389 . S
C4 H26 0.929 . S
C5 C1 1.397 . S
C5 C4 1.389 . S
C5 H27 0.931 . S
C6 C3 1.481 . S
C6 C7 1.387 . S
C6 C11 1.390 1_556 S
C7 C6 1.387 . S
C7 C8 1.401 1_556 S
C7 H28 0.930 . S
C8 C7 1.401 1_554 S
C8 C9 1.376 . S
C8 C17 1.511 . S
C9 C8 1.376 . S
C9 C10 1.392 . S
C9 H30 0.931 . S
C10 C9 1.392 . S
C10 C11 1.361 . S
C10 C12 1.500 . S
C11 C6 1.390 1_554 S
C11 C10 1.361 . S
C11 H29 0.931 . S
C12 C10 1.500 . S
C12 C13 1.371 . S
C12 C14 1.365 . S
C13 C12 1.371 . S
C13 C23 1.386 . S
C13 H31 0.931 . S
C14 C12 1.365 . S
C14 C15 1.409 . S
C14 H32 0.929 . S
C15 C14 1.409 . S
C15 C16 1.380 . S
C15 H33 0.930 . S
C16 C15 1.380 . S
C16 C23 1.357 . S
C17 C8 1.511 . S
C17 C18 1.341 1_554 S
C17 C19 1.371 . S
C18 C17 1.341 1_556 S
C18 C22 1.394 . S
C18 H34 0.930 . S
C19 C17 1.371 . S
C19 C20 1.392 . S
C19 H35 0.931 . S
C20 C19 1.392 . S
C20 C21 1.331 . S
C20 H38 0.932 . S
C21 C20 1.331 . S
C21 C22 1.336 1_554 S
C22 C18 1.394 . S
C22 C21 1.336 1_556 S
C22 H37 0.929 . S
C23 C13 1.386 . S
C23 C16 1.357 . S
C23 H36 0.928 . S
H24 C0 0.931 . S
H25 C2 0.930 . S
H26 C4 0.929 . S
H27 C5 0.931 . S
H28 C7 0.930 . S
H29 C11 0.931 . S
H30 C9 0.931 . S
H31 C13 0.931 . S
H32 C14 0.929 . S
H33 C15 0.930 . S
H34 C18 0.930 . S
H35 C19 0.931 . S
H36 C23 0.928 . S
H37 C22 0.929 . S
H38 C20 0.932 . S
C39 C40 1.386 . S
C39 C41 1.397 . S
C39 H63 0.931 . S
C40 C39 1.386 . S
C40 C44 1.397 . S
C41 C39 1.397 . S
C41 C42 1.384 . S
C41 H64 0.930 . S
C42 C41 1.384 . S
C42 C43 1.377 . S
C42 C45 1.481 . S
C43 C42 1.377 . S
C43 C44 1.389 . S
C43 H65 0.929 . S
C44 C40 1.397 . S
C44 C43 1.389 . S
C44 H66 0.931 . S
C45 C42 1.481 . S
C45 C46 1.387 . S
C45 C50 1.390 . S
C46 C45 1.387 . S
C46 C47 1.401 . S
C46 H67 0.930 . S
C47 C46 1.401 . S
C47 C48 1.376 . S
C47 C56 1.511 . S
C48 C47 1.376 . S
C48 C49 1.392 . S
C48 H69 0.931 . S
C49 C48 1.392 . S
C49 C50 1.361 . S
C49 C51 1.500 . S
C50 C45 1.390 . S
C50 C49 1.361 . S
C50 H68 0.931 . S
C51 C49 1.500 . S
C51 C52 1.371 . S
C51 C53 1.365 . S
C52 C51 1.371 . S
C52 C62 1.386 . S
C52 H70 0.931 . S
C53 C51 1.365 . S
C53 C54 1.409 . S
C53 H71 0.929 . S
C54 C53 1.409 . S
C54 C55 1.380 . S
C54 H72 0.930 . S
C55 C54 1.380 . S
C55 C62 1.357 . S
C56 C47 1.511 . S
C56 C57 1.341 . S
C56 C58 1.371 . S
C57 C56 1.341 . S
C57 C61 1.394 . S
C57 H73 0.930 . S
C58 C56 1.371 . S
C58 C59 1.392 . S
C58 H74 0.931 . S
C59 C58 1.392 . S
C59 C60 1.331 . S
C59 H77 0.932 . S
C60 C59 1.331 . S
C60 C61 1.336 . S
C61 C57 1.394 . S
C61 C60 1.336 . S
C61 H76 0.929 . S
C62 C52 1.386 . S
C62 C55 1.357 . S
C62 H75 0.928 . S
H63 C39 0.931 . S
H64 C41 0.930 . S
H65 C43 0.929 . S
H66 C44 0.931 . S
H67 C46 0.930 . S
H68 C50 0.931 . S
H69 C48 0.931 . S
H70 C52 0.931 . S
H71 C53 0.929 . S
H72 C54 0.930 . S
H73 C57 0.930 . S
H74 C58 0.931 . S
H75 C62 0.928 . S
H76 C61 0.929 . S
H77 C59 0.932 . S
C78 C79 1.386 . S
C78 C80 1.397 . S
C78 H102 0.931 . S
C79 C78 1.386 . S
C79 C83 1.397 . S
C80 C78 1.397 . S
C80 C81 1.384 . S
C80 H103 0.930 . S
C81 C80 1.384 . S
C81 C82 1.377 . S
C81 C84 1.481 . S
C82 C81 1.377 . S
C82 C83 1.389 . S
C82 H104 0.929 . S
C83 C79 1.397 . S
C83 C82 1.389 . S
C83 H105 0.931 . S
C84 C81 1.481 . S
C84 C85 1.387 . S
C84 C89 1.390 . S
C85 C84 1.387 . S
C85 C86 1.401 . S
C85 H106 0.930 . S
C86 C85 1.401 . S
C86 C87 1.376 1_554 S
C86 C95 1.511 . S
C87 C86 1.376 1_556 S
C87 C88 1.392 . S
C87 H108 0.931 . S
C88 C87 1.392 . S
C88 C89 1.361 1_556 S
C88 C90 1.500 . S
C89 C84 1.390 . S
C89 C88 1.361 1_554 S
C89 H107 0.931 . S
C90 C88 1.500 . S
C90 C91 1.371 . S
C90 C92 1.365 . S
C91 C90 1.371 . S
C91 C101 1.386 . S
C91 H109 0.931 . S
C92 C90 1.365 . S
C92 C93 1.409 . S
C92 H110 0.929 . S
C93 C92 1.409 . S
C93 C94 1.380 . S
C93 H111 0.930 . S
C94 C93 1.380 . S
C94 C101 1.357 . S
C95 C86 1.511 . S
C95 C96 1.341 . S
C95 C97 1.371 1_554 S
C96 C95 1.341 . S
C96 C100 1.394 . S
C96 H112 0.930 . S
C97 C95 1.371 1_556 S
C97 C98 1.392 . S
C97 H113 0.931 . S
C98 C97 1.392 . S
C98 C99 1.331 1_556 S
C98 H116 0.932 . S
C99 C98 1.331 1_554 S
C99 C100 1.336 . S
C100 C96 1.394 . S
C100 C99 1.336 . S
C100 H115 0.929 . S
C101 C91 1.386 . S
C101 C94 1.357 . S
C101 H114 0.928 . S
H102 C78 0.931 . S
H103 C80 0.930 . S
H104 C82 0.929 . S
H105 C83 0.931 . S
H106 C85 0.930 . S
H107 C89 0.931 . S
H108 C87 0.931 . S
H109 C91 0.931 . S
H110 C92 0.929 . S
H111 C93 0.930 . S
H112 C96 0.930 . S
H113 C97 0.931 . S
H114 C101 0.928 . S
H115 C100 0.929 . S
H116 C98 0.932 . S
C117 C118 1.386 . S
C117 C119 1.397 . S
C117 H141 0.931 . S
C118 C117 1.386 . S
C118 C122 1.397 . S
C119 C117 1.397 . S
C119 C120 1.384 . S
C119 H142 0.930 . S
C120 C119 1.384 . S
C120 C121 1.377 . S
C120 C123 1.481 . S
C121 C120 1.377 . S
C121 C122 1.389 . S
C121 H143 0.929 . S
C122 C118 1.397 . S
C122 C121 1.389 . S
C122 H144 0.931 . S
C123 C120 1.481 . S
C123 C124 1.387 . S
C123 C128 1.390 . S
C124 C123 1.387 . S
C124 C125 1.401 . S
C124 H145 0.930 . S
C125 C124 1.401 . S
C125 C126 1.376 . S
C125 C134 1.511 . S
C126 C125 1.376 . S
C126 C127 1.392 . S
C126 H147 0.931 . S
C127 C126 1.392 . S
C127 C128 1.361 . S
C127 C129 1.500 . S
C128 C123 1.390 . S
C128 C127 1.361 . S
C128 H146 0.931 . S
C129 C127 1.500 . S
C129 C130 1.371 . S
C129 C131 1.365 . S
C130 C129 1.371 . S
C130 C140 1.386 . S
C130 H148 0.931 . S
C131 C129 1.365 . S
C131 C132 1.409 . S
C131 H149 0.929 . S
C132 C131 1.409 . S
C132 C133 1.380 . S
C132 H150 0.930 . S
C133 C132 1.380 . S
C133 C140 1.357 . S
C134 C125 1.511 . S
C134 C135 1.341 . S
C134 C136 1.371 . S
C135 C134 1.341 . S
C135 C139 1.394 . S
C135 H151 0.930 . S
C136 C134 1.371 . S
C136 C137 1.392 . S
C136 H152 0.931 . S
C137 C136 1.392 . S
C137 C138 1.331 . S
C137 H155 0.932 . S
C138 C137 1.331 . S
C138 C139 1.336 . S
C139 C135 1.394 . S
C139 C138 1.336 . S
C139 H154 0.929 . S
C140 C130 1.386 . S
C140 C133 1.357 . S
C140 H153 0.928 . S
H141 C117 0.931 . S
H142 C119 0.930 . S
H143 C121 0.929 . S
H144 C122 0.931 . S
H145 C124 0.930 . S
H146 C128 0.931 . S
H147 C126 0.931 . S
H148 C130 0.931 . S
H149 C131 0.929 . S
H150 C132 0.930 . S
H151 C135 0.930 . S
H152 C136 0.931 . S
H153 C140 0.928 . S
H154 C139 0.929 . S
H155 C137 0.932 . S
C156 O172 1.251 . S
C156 O174 1.254 1_455 S
N157 C158 1.333 . S
N157 C162 1.307 . S
N157 Zn163 2.020 . S
C158 N157 1.333 . S
C158 C159 1.379 . S
C158 H176 0.952 . S
C159 C158 1.379 . S
C159 C160 1.390 . S
C159 H186 0.949 . S
C160 C159 1.390 . S
C160 C161 1.357 . S
C161 C160 1.357 . S
C161 C162 1.370 . S
C161 H187 0.950 . S
C162 N157 1.307 . S
C162 C161 1.370 . S
C162 H180 0.948 . S
Zn163 N157 2.020 . S
Zn163 O172 2.039 1_545 S
Zn163 O178 2.034 1_545 S
Zn163 O182 2.025 . S
Zn163 O184 2.024 . S
C164 O183 1.246 . S
C164 O184 1.249 1_655 S
N165 C166 1.307 . S
N165 C167 1.333 . S
N165 Zn171 2.020 . S
C166 N165 1.307 . S
C166 C170 1.370 . S
C166 H177 0.948 . S
C167 N165 1.333 . S
C167 C168 1.379 . S
C167 H175 0.981 . S
C168 C167 1.379 . S
C168 C169 1.390 . S
C168 H188 0.949 . S
C169 C168 1.390 . S
C169 C170 1.357 . S
C170 C166 1.370 . S
C170 C169 1.357 . S
C170 H189 0.950 . S
Zn171 N165 2.020 . S
Zn171 O174 2.025 . S
Zn171 O179 2.024 . S
Zn171 O181 2.039 1_565 S
Zn171 O183 2.034 1_565 S
O172 C156 1.251 . S
O172 Zn163 2.039 1_565 S
C173 O178 1.246 . S
C173 O179 1.249 1_455 S
O174 C156 1.254 1_655 S
O174 Zn171 2.025 . S
H175 C167 0.981 . S
H176 C158 0.952 . S
H177 C166 0.948 . S
O178 Zn163 2.034 1_565 S
O178 C173 1.246 . S
O179 Zn171 2.024 . S
O179 C173 1.249 1_655 S
H180 C162 0.948 . S
O181 Zn171 2.039 1_545 S
O181 C185 1.251 . S
O182 Zn163 2.025 . S
O182 C185 1.254 1_455 S
O183 C164 1.246 . S
O183 Zn171 2.034 1_545 S
O184 Zn163 2.024 . S
O184 C164 1.249 1_455 S
C185 O181 1.251 . S
C185 O182 1.254 1_655 S
H186 C159 0.949 . S
H187 C161 0.950 . S
H188 C168 0.949 . S
H189 C170 0.950 . S
C190 O206 1.251 . S
C190 O208 1.254 . S
N191 C192 1.333 1_554 S
N191 C196 1.307 . S
N191 Zn197 2.020 . S
C192 N191 1.333 1_556 S
C192 C193 1.379 . S
C192 H210 0.951 . S
C193 C192 1.379 . S
C193 C194 1.390 1_556 S
C193 H220 0.949 . S
C194 C193 1.390 1_554 S
C194 C195 1.357 . S
C195 C194 1.357 . S
C195 C196 1.370 . S
C195 H221 0.950 . S
C196 N191 1.307 . S
C196 C195 1.370 . S
C196 H214 0.948 . S
Zn197 N191 2.020 . S
Zn197 O206 2.039 1_554 S
Zn197 O212 2.034 . S
Zn197 O216 2.025 . S
Zn197 O218 2.024 1_554 S
C198 O217 1.246 . S
C198 O218 1.249 . S
N199 C200 1.307 . S
N199 C201 1.333 . S
N199 Zn205 2.020 . S
C200 N199 1.307 . S
C200 C204 1.370 . S
C200 H211 0.948 1_554 S
C201 N199 1.333 . S
C201 C202 1.379 . S
C201 H209 0.952 . S
C202 C201 1.379 . S
C202 C203 1.390 . S
C202 H222 0.949 . S
C203 C202 1.390 . S
C203 C204 1.357 . S
C204 C200 1.370 . S
C204 C203 1.357 . S
C204 H223 0.950 1_554 S
Zn205 N199 2.020 . S
Zn205 O208 2.025 1_554 S
Zn205 O213 2.024 . S
Zn205 O215 2.039 . S
Zn205 O217 2.034 1_554 S
O206 C190 1.251 . S
O206 Zn197 2.039 1_556 S
C207 O212 1.246 . S
C207 O213 1.249 . S
O208 C190 1.254 . S
O208 Zn205 2.025 1_556 S
H209 C201 0.952 . S
H210 C192 0.951 . S
H211 C200 0.948 1_556 S
O212 Zn197 2.034 . S
O212 C207 1.246 . S
O213 Zn205 2.024 . S
O213 C207 1.249 . S
H214 C196 0.948 . S
O215 Zn205 2.039 . S
O215 C219 1.251 . S
O216 Zn197 2.025 . S
O216 C219 1.254 . S
O217 C198 1.246 . S
O217 Zn205 2.034 1_556 S
O218 Zn197 2.024 1_556 S
O218 C198 1.249 . S
C219 O215 1.251 . S
C219 O216 1.254 . S
H220 C193 0.949 . S
H221 C195 0.950 . S
H222 C202 0.949 . S
H223 C204 0.950 1_556 S
H224 C232 0.950 . S
H225 C237 0.950 . S
H226 C234 0.950 . S
H227 C236 0.950 . S
H228 C238 0.950 . S
H229 C240 0.950 . S
H230 C242 0.950 . S
H231 C243 0.950 . S
C232 H224 0.950 . S
C232 C233 1.386 . S
C232 C234 1.391 . S
C233 C232 1.386 . S
C233 C237 1.393 . S
C234 H226 0.950 . S
C234 C232 1.391 . S
C234 C235 1.400 . S
C235 C234 1.400 . S
C235 C236 1.398 . S
C235 C241 1.491 . S
C236 H227 0.950 . S
C236 C235 1.398 . S
C236 C237 1.391 . S
C237 H225 0.950 . S
C237 C233 1.393 . S
C237 C236 1.391 . S
C238 H228 0.950 . S
C238 C239 1.386 . S
C238 C240 1.391 . S
C239 C238 1.386 . S
C239 C243 1.393 . S
C240 H229 0.950 . S
C240 C238 1.391 . S
C240 C241 1.400 . S
C241 C235 1.491 . S
C241 C240 1.400 . S
C241 C242 1.398 . S
C242 H230 0.950 . S
C242 C241 1.398 . S
C242 C243 1.391 . S
C243 H231 0.950 . S
C243 C239 1.393 . S
C243 C242 1.391 . S
H244 C252 0.945 1_556 S
H245 C257 0.950 . S
H246 C254 0.950 1_556 S
H247 C256 0.950 . S
H248 C258 0.950 . S
H249 C260 0.950 . S
H250 C262 0.950 1_556 S
H251 C263 0.950 1_556 S
C252 H244 0.945 1_554 S
C252 C253 1.386 . S
C252 C254 1.391 . S
C253 C252 1.386 . S
C253 C257 1.393 . S
C254 H246 0.950 1_554 S
C254 C252 1.391 . S
C254 C255 1.400 . S
C255 C254 1.400 . S
C255 C256 1.398 . S
C255 C261 1.491 . S
C256 H247 0.950 . S
C256 C255 1.398 . S
C256 C257 1.391 . S
C257 H245 0.950 . S
C257 C253 1.393 . S
C257 C256 1.391 . S
C258 H248 0.950 . S
C258 C259 1.386 . S
C258 C260 1.391 . S
C259 C258 1.386 . S
C259 C263 1.393 . S
C260 H249 0.950 . S
C260 C258 1.391 . S
C260 C261 1.400 . S
C261 C255 1.491 . S
C261 C260 1.400 . S
C261 C262 1.398 . S
C262 H250 0.950 1_554 S
C262 C261 1.398 . S
C262 C263 1.391 . S
C263 H251 0.950 1_554 S
C263 C259 1.393 . S
C263 C262 1.391 . S
H264 C272 0.950 . S
H265 C277 0.950 . S
H266 C274 0.950 . S
H267 C276 0.950 . S
H268 C278 0.950 . S
H269 C280 0.950 . S
H270 C282 0.950 . S
H271 C283 0.950 . S
C272 H264 0.950 . S
C272 C273 1.386 . S
C272 C274 1.391 . S
C273 C272 1.386 . S
C273 C277 1.393 . S
C274 H266 0.950 . S
C274 C272 1.391 . S
C274 C275 1.400 . S
C275 C274 1.400 . S
C275 C276 1.398 . S
C275 C281 1.491 . S
C276 H267 0.950 . S
C276 C275 1.398 . S
C276 C277 1.391 . S
C277 H265 0.950 . S
C277 C273 1.393 . S
C277 C276 1.391 . S
C278 H268 0.950 . S
C278 C279 1.386 . S
C278 C280 1.391 . S
C279 C278 1.386 . S
C279 C283 1.393 . S
C280 H269 0.950 . S
C280 C278 1.391 . S
C280 C281 1.400 . S
C281 C275 1.491 . S
C281 C280 1.400 . S
C281 C282 1.398 . S
C282 H270 0.950 . S
C282 C281 1.398 . S
C282 C283 1.391 . S
C283 H271 0.950 . S
C283 C279 1.393 . S
C283 C282 1.391 . S
H284 C292 0.950 . S
H285 C297 0.950 . S
H286 C294 0.950 . S
H287 C296 0.950 . S
H288 C298 0.950 . S
H289 C300 0.950 . S
H290 C302 0.950 . S
H291 C303 0.950 . S
C292 H284 0.950 . S
C292 C293 1.386 1_556 S
C292 C294 1.391 . S
C293 C292 1.386 1_554 S
C293 C297 1.393 . S
C294 H286 0.950 . S
C294 C292 1.391 . S
C294 C295 1.400 1_556 S
C295 C294 1.400 1_554 S
C295 C296 1.398 . S
C295 C301 1.491 . S
C296 H287 0.950 . S
C296 C295 1.398 . S
C296 C297 1.391 . S
C297 H285 0.950 . S
C297 C293 1.393 . S
C297 C296 1.391 . S
C298 H288 0.950 . S
C298 C299 1.386 . S
C298 C300 1.391 . S
C299 C298 1.386 . S
C299 C303 1.393 1_554 S
C300 H289 0.950 . S
C300 C298 1.391 . S
C300 C301 1.400 . S
C301 C295 1.491 . S
C301 C300 1.400 . S
C301 C302 1.398 1_554 S
C302 H290 0.950 . S
C302 C301 1.398 1_556 S
C302 C303 1.391 . S
C303 H291 0.950 . S
C303 C299 1.393 1_556 S
C303 C302 1.391 . S
H304 C312 0.950 . S
H305 C317 0.950 . S
H306 C314 0.950 . S
H307 C316 0.950 . S
H308 C318 0.950 1_655 S
H309 C320 0.965 . S
H310 C322 0.950 . S
H311 C323 0.950 . S
C312 H304 0.950 . S
C312 C313 1.386 . S
C312 C314 1.391 . S
C313 C312 1.386 . S
C313 C317 1.393 . S
C314 H306 0.950 . S
C314 C312 1.391 . S
C314 C315 1.400 . S
C315 C314 1.400 . S
C315 C316 1.398 . S
C315 C321 1.491 . S
C316 H307 0.950 . S
C316 C315 1.398 . S
C316 C317 1.391 . S
C317 H305 0.950 . S
C317 C313 1.393 . S
C317 C316 1.391 . S
C318 H308 0.950 1_455 S
C318 C319 1.386 . S
C318 C320 1.391 . S
C319 C318 1.386 . S
C319 C323 1.393 . S
C320 H309 0.965 . S
C320 C318 1.391 . S
C320 C321 1.400 . S
C321 C315 1.491 . S
C321 C320 1.400 . S
C321 C322 1.398 . S
C322 H310 0.950 . S
C322 C321 1.398 . S
C322 C323 1.391 . S
C323 H311 0.950 . S
C323 C319 1.393 . S
C323 C322 1.391 . S
H324 C332 0.950 . S
H325 C337 0.950 . S
H326 C334 0.950 . S
H327 C336 0.950 . S
H328 C338 0.950 . S
H329 C340 0.950 . S
H330 C342 0.950 . S
H331 C343 0.950 . S
C332 H324 0.950 . S
C332 C333 1.386 . S
C332 C334 1.391 . S
C333 C332 1.386 . S
C333 C337 1.393 . S
C334 H326 0.950 . S
C334 C332 1.391 . S
C334 C335 1.400 . S
C335 C334 1.400 . S
C335 C336 1.398 . S
C335 C341 1.491 . S
C336 H327 0.950 . S
C336 C335 1.398 . S
C336 C337 1.391 . S
C337 H325 0.950 . S
C337 C333 1.393 . S
C337 C336 1.391 . S
C338 H328 0.950 . S
C338 C339 1.386 . S
C338 C340 1.391 . S
C339 C338 1.386 . S
C339 C343 1.393 . S
C340 H329 0.950 . S
C340 C338 1.391 . S
C340 C341 1.400 . S
C341 C335 1.491 . S
C341 C340 1.400 . S
C341 C342 1.398 . S
C342 H330 0.950 . S
C342 C341 1.398 . S
C342 C343 1.391 . S
C343 H331 0.950 . S
C343 C339 1.393 . S
C343 C342 1.391 . S
H344 C352 0.950 . S
H345 C357 0.950 . S
H346 C354 0.950 . S
H347 C356 0.950 . S
H348 C358 0.950 . S
H349 C360 0.950 . S
H350 C362 0.950 1_455 S
H351 C363 0.950 1_455 S
C352 H344 0.950 . S
C352 C353 1.386 . S
C352 C354 1.391 . S
C353 C352 1.386 . S
C353 C357 1.393 . S
C354 H346 0.950 . S
C354 C352 1.391 . S
C354 C355 1.400 . S
C355 C354 1.400 . S
C355 C356 1.398 . S
C355 C361 1.491 . S
C356 H347 0.950 . S
C356 C355 1.398 . S
C356 C357 1.391 . S
C357 H345 0.950 . S
C357 C353 1.393 . S
C357 C356 1.391 . S
C358 H348 0.950 . S
C358 C359 1.386 . S
C358 C360 1.391 . S
C359 C358 1.386 . S
C359 C363 1.393 . S
C360 H349 0.950 . S
C360 C358 1.391 . S
C360 C361 1.400 . S
C361 C355 1.491 . S
C361 C360 1.400 . S
C361 C362 1.398 . S
C362 H350 0.950 1_655 S
C362 C361 1.398 . S
C362 C363 1.391 . S
C363 H351 0.950 1_655 S
C363 C359 1.393 . S
C363 C362 1.391 . S
H364 C372 0.950 . S
H365 C377 0.950 . S
H366 C374 0.950 . S
H367 C376 0.950 . S
H368 C378 0.950 . S
H369 C380 0.950 . S
H370 C382 0.950 . S
H371 C383 0.950 . S
C372 H364 0.950 . S
C372 C373 1.386 . S
C372 C374 1.391 . S
C373 C372 1.386 . S
C373 C377 1.393 . S
C374 H366 0.950 . S
C374 C372 1.391 . S
C374 C375 1.400 . S
C375 C374 1.400 . S
C375 C376 1.398 . S
C375 C381 1.491 . S
C376 H367 0.950 . S
C376 C375 1.398 . S
C376 C377 1.391 . S
C377 H365 0.950 . S
C377 C373 1.393 . S
C377 C376 1.391 . S
C378 H368 0.950 . S
C378 C379 1.386 . S
C378 C380 1.391 . S
C379 C378 1.386 . S
C379 C383 1.393 . S
C380 H369 0.950 . S
C380 C378 1.391 . S
C380 C381 1.400 . S
C381 C375 1.491 . S
C381 C380 1.400 . S
C381 C382 1.398 . S
C382 H370 0.950 . S
C382 C381 1.398 . S
C382 C383 1.391 . S
C383 H371 0.950 . S
C383 C379 1.393 . S
C383 C382 1.391 . S
H384 C392 0.950 . S
H385 C397 0.950 . S
H386 C394 0.950 . S
H387 C396 0.950 . S
H388 C398 0.950 . S
H389 C400 0.950 . S
H390 C402 0.950 . S
H391 C403 0.950 . S
C392 H384 0.950 . S
C392 C393 1.386 . S
C392 C394 1.391 . S
C393 C392 1.386 . S
C393 C397 1.393 . S
C394 H386 0.950 . S
C394 C392 1.391 . S
C394 C395 1.400 . S
C395 C394 1.400 . S
C395 C396 1.398 . S
C395 C401 1.491 . S
C396 H387 0.950 . S
C396 C395 1.398 . S
C396 C397 1.391 . S
C397 H385 0.950 . S
C397 C393 1.393 . S
C397 C396 1.391 . S
C398 H388 0.950 . S
C398 C399 1.386 . S
C398 C400 1.391 . S
C399 C398 1.386 . S
C399 C403 1.393 . S
C400 H389 0.950 . S
C400 C398 1.391 . S
C400 C401 1.400 . S
C401 C395 1.491 . S
C401 C400 1.400 . S
C401 C402 1.398 . S
C402 H390 0.950 . S
C402 C401 1.398 . S
C402 C403 1.391 . S
C403 H391 0.950 . S
C403 C399 1.393 . S
C403 C402 1.391 . S
H404 C412 0.950 . S
H405 C417 0.950 . S
H406 C414 0.950 . S
H407 C416 0.950 . S
H408 C418 0.950 1_455 S
H409 C420 0.950 . S
H410 C422 0.950 . S
H411 C423 0.950 . S
C412 H404 0.950 . S
C412 C413 1.386 . S
C412 C414 1.391 . S
C413 C412 1.386 . S
C413 C417 1.393 . S
C414 H406 0.950 . S
C414 C412 1.391 . S
C414 C415 1.400 . S
C415 C414 1.400 . S
C415 C416 1.398 . S
C415 C421 1.491 . S
C416 H407 0.950 . S
C416 C415 1.398 . S
C416 C417 1.391 . S
C417 H405 0.950 . S
C417 C413 1.393 . S
C417 C416 1.391 . S
C418 H408 0.950 1_655 S
C418 C419 1.386 . S
C418 C420 1.391 . S
C419 C418 1.386 . S
C419 C423 1.393 . S
C420 H409 0.950 . S
C420 C418 1.391 . S
C420 C421 1.400 . S
C421 C415 1.491 . S
C421 C420 1.400 . S
C421 C422 1.398 . S
C422 H410 0.950 . S
C422 C421 1.398 . S
C422 C423 1.391 . S
C423 H411 0.950 . S
C423 C419 1.393 . S
C423 C422 1.391 . S
H424 C432 0.950 . S
H425 C437 0.950 . S
H426 C434 0.950 . S
H427 C436 0.950 . S
H428 C438 0.950 . S
H429 C440 0.950 . S
H430 C442 0.950 . S
H431 C443 0.950 . S
C432 H424 0.950 . S
C432 C433 1.386 . S
C432 C434 1.391 . S
C433 C432 1.386 . S
C433 C437 1.393 . S
C434 H426 0.950 . S
C434 C432 1.391 . S
C434 C435 1.400 . S
C435 C434 1.400 . S
C435 C436 1.398 . S
C435 C441 1.491 . S
C436 H427 0.950 . S
C436 C435 1.398 . S
C436 C437 1.391 . S
C437 H425 0.950 . S
C437 C433 1.393 . S
C437 C436 1.391 . S
C438 H428 0.950 . S
C438 C439 1.386 . S
C438 C440 1.391 . S
C439 C438 1.386 . S
C439 C443 1.393 . S
C440 H429 0.950 . S
C440 C438 1.391 . S
C440 C441 1.400 . S
C441 C435 1.491 . S
C441 C440 1.400 . S
C441 C442 1.398 . S
C442 H430 0.950 . S
C442 C441 1.398 . S
C442 C443 1.391 . S
C443 H431 0.950 . S
C443 C439 1.393 . S
C443 C442 1.391 . S
H444 C452 0.950 . S
H445 C457 0.950 . S
H446 C454 0.950 . S
H447 C456 0.950 . S
H448 C458 0.950 . S
H449 C460 0.950 . S
H450 C462 0.950 . S
H451 C463 0.950 1_655 S
C452 H444 0.950 . S
C452 C453 1.386 . S
C452 C454 1.391 . S
C453 C452 1.386 . S
C453 C457 1.393 . S
C454 H446 0.950 . S
C454 C452 1.391 . S
C454 C455 1.400 . S
C455 C454 1.400 . S
C455 C456 1.398 . S
C455 C461 1.491 . S
C456 H447 0.950 . S
C456 C455 1.398 . S
C456 C457 1.391 . S
C457 H445 0.950 . S
C457 C453 1.393 . S
C457 C456 1.391 . S
C458 H448 0.950 . S
C458 C459 1.386 . S
C458 C460 1.391 . S
C459 C458 1.386 . S
C459 C463 1.393 . S
C460 H449 0.950 . S
C460 C458 1.391 . S
C460 C461 1.400 . S
C461 C455 1.491 . S
C461 C460 1.400 . S
C461 C462 1.398 . S
C462 H450 0.950 . S
C462 C461 1.398 . S
C462 C463 1.391 . S
C463 H451 0.950 1_455 S
C463 C459 1.393 . S
C463 C462 1.391 . S
C239 C160 1.652 . S
C233 C138 1.618 . S
C253 C21 1.563 . S
C259 C203 1.568 . S
C273 C60 1.630 . S
C279 C169 1.653 . S
C293 C99 1.546 . S
C299 C194 1.566 . S
C319 C156 1.632 . S
C313 C16 1.596 . S
C339 C198 1.732 . S
C333 C40 1.700 . S
C353 C79 1.601 . S
C359 C164 1.624 . S
C373 C133 1.678 . S
C379 C190 1.720 . S
C399 C219 1.724 . S
C393 C55 1.685 . S
C419 C185 1.635 . S
C413 C94 1.612 . S
C439 C207 1.727 . S
C433 C118 1.684 . S
C453 C1 1.596 . S
C459 C173 1.618 . S
