# Generated by pormake.
# Topology ptr, (4,4)-cn, num edge types: 1
# Building blocks:
#     Node 0, Type 0, BuildingBlock: GALJAG_clean_sbu_0, # of connection points: 4
#     Node 1, Type 0, BuildingBlock: GALJAG_clean_sbu_0, # of connection points: 4
#     Node 2, Type 0, BuildingBlock: GALJAG_clean_sbu_0, # of connection points: 4
#     Node 3, Type 0, BuildingBlock: GALJAG_clean_sbu_0, # of connection points: 4
#     Node 4, Type 0, BuildingBlock: GALJAG_clean_sbu_0, # of connection points: 4
#     Node 5, Type 0, BuildingBlock: GALJAG_clean_sbu_0, # of connection points: 4
#     Node 6, Type 0, BuildingBlock: GALJAG_clean_sbu_0, # of connection points: 4
#     Node 7, Type 0, BuildingBlock: GALJAG_clean_sbu_0, # of connection points: 4
#     Node 8, Type 0, BuildingBlock: GALJAG_clean_sbu_0, # of connection points: 4
#     Node 9, Type 0, BuildingBlock: GALJAG_clean_sbu_0, # of connection points: 4
#     Node 10, Type 0, BuildingBlock: GALJAG_clean_sbu_0, # of connection points: 4
#     Node 11, Type 0, BuildingBlock: GALJAG_clean_sbu_0, # of connection points: 4
#     Node 12, Type 0, BuildingBlock: GALJAG_clean_sbu_0, # of connection points: 4
#     Node 13, Type 0, BuildingBlock: GALJAG_clean_sbu_0, # of connection points: 4
#     Node 14, Type 0, BuildingBlock: GALJAG_clean_sbu_0, # of connection points: 4
#     Node 15, Type 0, BuildingBlock: GALJAG_clean_sbu_0, # of connection points: 4
#     Node 16, Type 0, BuildingBlock: GALJAG_clean_sbu_0, # of connection points: 4
#     Node 17, Type 0, BuildingBlock: GALJAG_clean_sbu_0, # of connection points: 4
#     Node 18, Type 1, BuildingBlock: MUDLON_clean_linker_0, # of connection points: 4
#     Node 19, Type 1, BuildingBlock: MUDLON_clean_linker_0, # of connection points: 4
#     Node 20, Type 1, BuildingBlock: MUDLON_clean_linker_0, # of connection points: 4
#     Node 21, Type 1, BuildingBlock: MUDLON_clean_linker_0, # of connection points: 4
#     Node 22, Type 1, BuildingBlock: MUDLON_clean_linker_0, # of connection points: 4
#     Node 23, Type 1, BuildingBlock: MUDLON_clean_linker_0, # of connection points: 4
#     Node 24, Type 1, BuildingBlock: MUDLON_clean_linker_0, # of connection points: 4
#     Node 25, Type 1, BuildingBlock: MUDLON_clean_linker_0, # of connection points: 4
#     Node 26, Type 1, BuildingBlock: MUDLON_clean_linker_0, # of connection points: 4
#     Node 27, Type 1, BuildingBlock: MUDLON_clean_linker_0, # of connection points: 4
#     Node 28, Type 1, BuildingBlock: MUDLON_clean_linker_0, # of connection points: 4
#     Node 29, Type 1, BuildingBlock: MUDLON_clean_linker_0, # of connection points: 4
#     Node 30, Type 1, BuildingBlock: MUDLON_clean_linker_0, # of connection points: 4
#     Node 31, Type 1, BuildingBlock: MUDLON_clean_linker_0, # of connection points: 4
#     Node 32, Type 1, BuildingBlock: MUDLON_clean_linker_0, # of connection points: 4
#     Node 33, Type 1, BuildingBlock: MUDLON_clean_linker_0, # of connection points: 4
#     Node 34, Type 1, BuildingBlock: MUDLON_clean_linker_0, # of connection points: 4
#     Node 35, Type 1, BuildingBlock: MUDLON_clean_linker_0, # of connection points: 4
#     Edge 36, Type (0, 1), BuildingBlock: XUDNAN_clean_linker_2, # of connection points: 2
#     Edge 37, Type (0, 1), BuildingBlock: XUDNAN_clean_linker_2, # of connection points: 2
#     Edge 38, Type (0, 1), BuildingBlock: XUDNAN_clean_linker_2, # of connection points: 2
#     Edge 39, Type (0, 1), BuildingBlock: XUDNAN_clean_linker_2, # of connection points: 2
#     Edge 40, Type (0, 1), BuildingBlock: XUDNAN_clean_linker_2, # of connection points: 2
#     Edge 41, Type (0, 1), BuildingBlock: XUDNAN_clean_linker_2, # of connection points: 2
#     Edge 42, Type (0, 1), BuildingBlock: XUDNAN_clean_linker_2, # of connection points: 2
#     Edge 43, Type (0, 1), BuildingBlock: XUDNAN_clean_linker_2, # of connection points: 2
#     Edge 44, Type (0, 1), BuildingBlock: XUDNAN_clean_linker_2, # of connection points: 2
#     Edge 45, Type (0, 1), BuildingBlock: XUDNAN_clean_linker_2, # of connection points: 2
#     Edge 46, Type (0, 1), BuildingBlock: XUDNAN_clean_linker_2, # of connection points: 2
#     Edge 47, Type (0, 1), BuildingBlock: XUDNAN_clean_linker_2, # of connection points: 2
#     Edge 48, Type (0, 1), BuildingBlock: XUDNAN_clean_linker_2, # of connection points: 2
#     Edge 49, Type (0, 1), BuildingBlock: XUDNAN_clean_linker_2, # of connection points: 2
#     Edge 50, Type (0, 1), BuildingBlock: XUDNAN_clean_linker_2, # of connection points: 2
#     Edge 51, Type (0, 1), BuildingBlock: XUDNAN_clean_linker_2, # of connection points: 2
#     Edge 52, Type (0, 1), BuildingBlock: XUDNAN_clean_linker_2, # of connection points: 2
#     Edge 53, Type (0, 1), BuildingBlock: XUDNAN_clean_linker_2, # of connection points: 2
#     Edge 54, Type (0, 1), BuildingBlock: XUDNAN_clean_linker_2, # of connection points: 2
#     Edge 55, Type (0, 1), BuildingBlock: XUDNAN_clean_linker_2, # of connection points: 2
#     Edge 56, Type (0, 1), BuildingBlock: XUDNAN_clean_linker_2, # of connection points: 2
#     Edge 57, Type (0, 1), BuildingBlock: XUDNAN_clean_linker_2, # of connection points: 2
#     Edge 58, Type (0, 1), BuildingBlock: XUDNAN_clean_linker_2, # of connection points: 2
#     Edge 59, Type (0, 1), BuildingBlock: XUDNAN_clean_linker_2, # of connection points: 2
#     Edge 60, Type (0, 1), BuildingBlock: XUDNAN_clean_linker_2, # of connection points: 2
#     Edge 61, Type (0, 1), BuildingBlock: XUDNAN_clean_linker_2, # of connection points: 2
#     Edge 62, Type (0, 1), BuildingBlock: XUDNAN_clean_linker_2, # of connection points: 2
#     Edge 63, Type (0, 1), BuildingBlock: XUDNAN_clean_linker_2, # of connection points: 2
#     Edge 64, Type (0, 1), BuildingBlock: XUDNAN_clean_linker_2, # of connection points: 2
#     Edge 65, Type (0, 1), BuildingBlock: XUDNAN_clean_linker_2, # of connection points: 2
#     Edge 66, Type (0, 1), BuildingBlock: XUDNAN_clean_linker_2, # of connection points: 2
#     Edge 67, Type (0, 1), BuildingBlock: XUDNAN_clean_linker_2, # of connection points: 2
#     Edge 68, Type (0, 1), BuildingBlock: XUDNAN_clean_linker_2, # of connection points: 2
#     Edge 69, Type (0, 1), BuildingBlock: XUDNAN_clean_linker_2, # of connection points: 2
#     Edge 70, Type (0, 1), BuildingBlock: XUDNAN_clean_linker_2, # of connection points: 2
#     Edge 71, Type (0, 1), BuildingBlock: XUDNAN_clean_linker_2, # of connection points: 2
#     Edge 72, Type (0, 1), BuildingBlock: XUDNAN_clean_linker_2, # of connection points: 2
#     Edge 73, Type (0, 1), BuildingBlock: XUDNAN_clean_linker_2, # of connection points: 2
#     Edge 74, Type (0, 1), BuildingBlock: XUDNAN_clean_linker_2, # of connection points: 2
#     Edge 75, Type (0, 1), BuildingBlock: XUDNAN_clean_linker_2, # of connection points: 2
#     Edge 76, Type (0, 1), BuildingBlock: XUDNAN_clean_linker_2, # of connection points: 2
#     Edge 77, Type (0, 1), BuildingBlock: XUDNAN_clean_linker_2, # of connection points: 2
#     Edge 78, Type (0, 1), BuildingBlock: XUDNAN_clean_linker_2, # of connection points: 2
#     Edge 79, Type (0, 1), BuildingBlock: XUDNAN_clean_linker_2, # of connection points: 2
#     Edge 80, Type (0, 1), BuildingBlock: XUDNAN_clean_linker_2, # of connection points: 2
#     Edge 81, Type (0, 1), BuildingBlock: XUDNAN_clean_linker_2, # of connection points: 2
#     Edge 82, Type (0, 1), BuildingBlock: XUDNAN_clean_linker_2, # of connection points: 2
#     Edge 83, Type (0, 1), BuildingBlock: XUDNAN_clean_linker_2, # of connection points: 2
#     Edge 84, Type (0, 1), BuildingBlock: XUDNAN_clean_linker_2, # of connection points: 2
#     Edge 85, Type (0, 1), BuildingBlock: XUDNAN_clean_linker_2, # of connection points: 2
#     Edge 86, Type (0, 1), BuildingBlock: XUDNAN_clean_linker_2, # of connection points: 2
#     Edge 87, Type (0, 1), BuildingBlock: XUDNAN_clean_linker_2, # of connection points: 2
#     Edge 88, Type (0, 1), BuildingBlock: XUDNAN_clean_linker_2, # of connection points: 2
#     Edge 89, Type (0, 1), BuildingBlock: XUDNAN_clean_linker_2, # of connection points: 2
#     Edge 90, Type (0, 1), BuildingBlock: XUDNAN_clean_linker_2, # of connection points: 2
#     Edge 91, Type (0, 1), BuildingBlock: XUDNAN_clean_linker_2, # of connection points: 2
#     Edge 92, Type (0, 1), BuildingBlock: XUDNAN_clean_linker_2, # of connection points: 2
#     Edge 93, Type (0, 1), BuildingBlock: XUDNAN_clean_linker_2, # of connection points: 2
#     Edge 94, Type (0, 1), BuildingBlock: XUDNAN_clean_linker_2, # of connection points: 2
#     Edge 95, Type (0, 1), BuildingBlock: XUDNAN_clean_linker_2, # of connection points: 2
#     Edge 96, Type (0, 1), BuildingBlock: XUDNAN_clean_linker_2, # of connection points: 2
#     Edge 97, Type (0, 1), BuildingBlock: XUDNAN_clean_linker_2, # of connection points: 2
#     Edge 98, Type (0, 1), BuildingBlock: XUDNAN_clean_linker_2, # of connection points: 2
#     Edge 99, Type (0, 1), BuildingBlock: XUDNAN_clean_linker_2, # of connection points: 2
#     Edge 100, Type (0, 1), BuildingBlock: XUDNAN_clean_linker_2, # of connection points: 2
#     Edge 101, Type (0, 1), BuildingBlock: XUDNAN_clean_linker_2, # of connection points: 2
#     Edge 102, Type (0, 1), BuildingBlock: XUDNAN_clean_linker_2, # of connection points: 2
#     Edge 103, Type (0, 1), BuildingBlock: XUDNAN_clean_linker_2, # of connection points: 2
#     Edge 104, Type (0, 1), BuildingBlock: XUDNAN_clean_linker_2, # of connection points: 2
#     Edge 105, Type (0, 1), BuildingBlock: XUDNAN_clean_linker_2, # of connection points: 2
#     Edge 106, Type (0, 1), BuildingBlock: XUDNAN_clean_linker_2, # of connection points: 2
#     Edge 107, Type (0, 1), BuildingBlock: XUDNAN_clean_linker_2, # of connection points: 2
# Relax obj value: 0.051
# Max RMSD: 0.091
# Mean RMSD: 0.081
data_MOF--net-ptr--node1-GALJAG_clean_sbu_0--node2-MUDLON_clean_linker_0--edge1-XUDNAN_clean_linker_2
_symmetry_space_group_name_H-M    P1
_symmetry_Int_Tables_number       1
_symmetry_cell_setting            triclinic
loop_
_symmetry_equiv_pos_as_xyz
'x, y, z'
_cell_length_a     103.92013
_cell_length_b     104.03422
_cell_length_c     66.401475
_cell_angle_alpha  90.019304
_cell_angle_beta   90.007582
_cell_angle_gamma 120.1211
loop_
_atom_site_label
_atom_site_type_symbol
_atom_site_fract_x
_atom_site_fract_y
_atom_site_fract_z
_atom_type_partial_charge
In0 In 0.01063 0.37447 0.01881 0.0
O1 O 0.99809 0.37107 0.04877 0.0
O2 O 0.01704 0.39216 0.04279 0.0
C3 C 0.99016 0.34717 0.0051 0.0
C4 C 0.03613 0.37467 0.02793 0.0
C5 C 0.01054 0.39245 0.9893 0.0
O6 O 0.9864 0.35574 0.01337 0.0
O7 O 0.004 0.35236 0.00394 0.0
O8 O 0.01518 0.38349 0.98627 0.0
O9 O 0.006 0.39226 0.00691 0.0
C10 C 0.00667 0.38421 0.0548 0.0
O11 O 0.03602 0.38468 0.01729 0.0
O12 O 0.02348 0.36462 0.03369 0.0
In13 In 0.65343 0.65153 0.01579 0.0
O14 O 0.65481 0.63951 0.04388 0.0
O15 O 0.63367 0.63642 0.03579 0.0
C16 C 0.68001 0.65436 0.00517 0.0
C17 C 0.65713 0.6786 0.02537 0.0
C18 C 0.63472 0.63907 0.9842 0.0
O19 O 0.67838 0.66017 0.02091 0.0
O20 O 0.66827 0.64695 0.99511 0.0
O21 O 0.64071 0.65273 0.98837 0.0
O22 O 0.63797 0.63169 0.99614 0.0
C23 C 0.64114 0.6335 0.04803 0.0
O24 O 0.66215 0.67627 0.00935 0.0
O25 O 0.65007 0.66729 0.03632 0.0
In26 In 0.37808 0.01445 0.02207 0.0
O27 O 0.3835 0.03849 0.02644 0.0
O28 O 0.36695 0.02503 0.00486 0.0
C29 C 0.39477 0.01109 0.05056 0.0
C30 C 0.39282 0.01619 0.98775 0.0
C31 C 0.35049 0.99504 0.03563 0.0
O32 O 0.393 0.02225 0.05024 0.0
O33 O 0.3882 1.00184 0.03663 0.0
O34 O 0.35657 0.99158 0.02178 0.0
O35 O 0.35828 0.00805 0.04239 0.0
C36 C 0.37427 0.03758 0.01326 0.0
O37 O 0.38036 0.00488 0.99176 0.0
O38 O 0.39767 0.0262 1.00103 0.0
In39 In 0.01932 0.65194 0.01597 0.0
O40 O 0.03278 0.65324 0.98818 0.0
O41 O 0.01212 0.63341 0.99237 0.0
C42 C 0.03997 0.67948 0.02859 0.0
C43 C 0.99467 0.65332 0.0061 0.0
C44 C 0.0212 0.63516 0.04588 0.0
O45 O 0.04101 0.67388 0.01226 0.0
O46 O 0.02835 0.67126 0.0386 0.0
O47 O 0.01116 0.6386 0.04549 0.0
O48 O 0.03011 0.64009 0.03127 0.0
C49 C 0.0236 0.64049 0.98163 0.0
O50 O 0.99409 0.64266 0.01589 0.0
O51 O 0.00765 0.66337 1.00157 0.0
In52 In 0.37886 0.37773 0.01863 0.0
O53 O 0.38429 0.39405 0.99215 0.0
O54 O 0.40178 0.39175 0.00475 0.0
C55 C 0.35202 0.37327 0.0306 0.0
C56 C 0.37156 0.35253 0.99821 0.0
C57 C 0.39401 0.38581 0.05381 0.0
O58 O 0.36246 0.38594 0.02544 0.0
O59 O 0.35513 0.36303 0.02974 0.0
O60 O 0.39228 0.37474 0.04373 0.0
O61 O 0.38789 0.39255 0.04633 0.0
C62 C 0.39789 0.39782 0.99157 0.0
O63 O 0.37823 0.35546 0.01497 0.0
O64 O 0.36863 0.36224 0.99198 0.0
In65 In 0.6484 0.01352 0.01482 0.0
O66 O 0.64469 0.0159 0.04861 0.0
O67 O 0.63141 0.01916 0.02747 0.0
C68 C 0.67477 0.03766 0.00498 0.0
C69 C 0.65371 0.99099 0.02297 0.0
C70 C 0.63049 0.00717 0.98235 0.0
O71 O 0.66643 0.02796 0.9924 0.0
O72 O 0.66988 0.03526 0.02283 0.0
O73 O 0.63085 0.99711 0.99257 0.0
O74 O 0.63919 0.02021 0.9884 0.0
C75 C 0.63425 0.01855 0.04572 0.0
O76 O 0.66349 0.00344 0.01627 0.0
O77 O 0.64105 0.98968 0.02509 0.0
In78 In 0.677 0.70866 0.35058 0.0
O79 O 0.66315 0.70576 0.37875 0.0
O80 O 0.68267 0.72671 0.37406 0.0
C81 C 0.65873 0.68137 0.33471 0.0
C82 C 0.70127 0.70795 0.36374 0.0
C83 C 0.67651 0.72649 0.32113 0.0
O84 O 0.65395 0.68797 0.34569 0.0
O85 O 0.67257 0.68849 0.3318 0.0
O86 O 0.68592 0.7222 0.32126 0.0
O87 O 0.66757 0.72186 0.33571 0.0
C88 C 0.67154 0.71885 0.38508 0.0
O89 O 0.70216 0.71743 0.35105 0.0
O90 O 0.68823 0.69895 0.36964 0.0
In91 In 0.31878 0.97784 0.35817 0.0
O92 O 0.32177 0.9661 0.38541 0.0
O93 O 0.30266 0.96852 0.38468 0.0
C94 C 0.34199 0.97711 0.34069 0.0
C95 C 0.32697 0.00593 0.36977 0.0
C96 C 0.29745 0.96322 0.32983 0.0
O97 O 0.3313 0.96583 0.3488 0.0
O98 O 0.34097 0.98867 0.34138 0.0
O99 O 0.3086 0.97588 0.32653 0.0
O100 O 0.29691 0.95838 0.34735 0.0
C101 C 0.3099 0.96363 0.39399 0.0
O102 O 0.31496 0.99791 0.36037 0.0
O103 O 0.33454 0.99978 0.37314 0.0
In104 In 0.043 0.34331 0.34856 0.0
O105 O 0.05211 0.36841 0.35237 0.0
O106 O 0.03256 0.35613 0.33499 0.0
C107 C 0.06049 0.33986 0.37574 0.0
C108 C 0.05408 0.33935 0.31368 0.0
C109 C 0.01556 0.32302 0.36218 0.0
O110 O 0.05706 0.34987 0.37759 0.0
O111 O 0.05522 0.33185 0.36027 0.0
O112 O 0.01901 0.32449 0.34378 0.0
O113 O 0.02583 0.33194 0.3737 0.0
C114 C 0.04215 0.36864 0.34176 0.0
O115 O 0.04176 0.32969 0.32097 0.0
O116 O 0.06083 0.35114 0.32391 0.0
In117 In 0.68317 0.98119 0.34931 0.0
O118 O 0.69538 0.98439 0.31929 0.0
O119 O 0.67672 0.96317 0.32569 0.0
C120 C 0.70382 0.006 0.36862 0.0
C121 C 0.65814 0.98268 0.34254 0.0
C122 C 0.685 0.96193 0.37466 0.0
O123 O 0.70395 0.00476 0.34971 0.0
O124 O 0.69316 0.99516 0.37736 0.0
O125 O 0.67554 0.96606 0.37691 0.0
O126 O 0.69332 0.9673 0.35945 0.0
C127 C 0.68693 0.97117 0.31349 0.0
O128 O 0.65811 0.97222 0.35213 0.0
O129 O 0.67084 0.99264 0.33683 0.0
In130 In 0.04315 0.7072 0.3536 0.0
O131 O 0.04817 0.71982 0.3236 0.0
O132 O 0.06462 0.7157 0.33608 0.0
C133 C 0.01653 0.70453 0.36317 0.0
C134 C 0.03758 0.67961 0.34369 0.0
C135 C 0.06029 0.72522 0.38376 0.0
O136 O 0.02466 0.71289 0.3492 0.0
O137 O 0.02168 0.69735 0.37201 0.0
O138 O 0.05475 0.71128 0.38449 0.0
O139 O 0.057 0.72984 0.36815 0.0
C140 C 0.06101 0.72138 0.32196 0.0
O141 O 0.04543 0.68663 0.35873 0.0
O142 O 0.03224 0.68632 0.33408 0.0
In143 In 0.31254 0.34312 0.34753 0.0
O144 O 0.31133 0.3205 0.34541 0.0
O145 O 0.32929 0.33798 0.36163 0.0
C146 C 0.29237 0.34315 0.32224 0.0
C147 C 0.29692 0.33939 0.38149 0.0
C148 C 0.33564 0.3658 0.32859 0.0
O149 O 0.2969 0.33395 0.3202 0.0
O150 O 0.29782 0.35189 0.33703 0.0
O151 O 0.33316 0.36667 0.34711 0.0
O152 O 0.32686 0.35355 0.32028 0.0
C153 C 0.3229 0.32459 0.35597 0.0
O154 O 0.30866 0.35161 0.3777 0.0
O155 O 0.29352 0.32936 0.36846 0.0
In156 In 0.34456 0.04663 0.68276 0.0
O157 O 0.36859 0.05171 0.67888 0.0
O158 O 0.35508 0.03549 0.70054 0.0
C159 C 0.34185 0.06169 0.65143 0.0
C160 C 0.34702 0.06448 0.71389 0.0
C161 C 0.32175 0.0193 0.67349 0.0
O162 O 0.35161 0.05783 0.6517 0.0
O163 O 0.33355 0.05783 0.66672 0.0
O164 O 0.32102 0.02695 0.68776 0.0
O165 O 0.33399 0.02536 0.66419 0.0
C166 C 0.36768 0.04267 0.69228 0.0
O167 O 0.33703 0.05092 0.71339 0.0
O168 O 0.35564 0.06881 0.69893 0.0
In169 In 0.98747 0.31923 0.68576 0.0
O170 O 0.98094 0.33707 0.68185 0.0
O171 O 0.9946 0.33912 0.70679 0.0
C172 C 0.97166 0.30748 0.65165 0.0
C173 C 0.97453 0.30176 0.71836 0.0
C174 C 0.01463 0.32388 0.67443 0.0
O175 O 0.98062 0.32121 0.6538 0.0
O176 O 0.97057 0.29964 0.66678 0.0
O177 O 1.00307 0.31124 0.674 0.0
O178 O 0.01258 0.33408 0.68093 0.0
C179 C 0.98786 0.34444 0.69721 0.0
O180 O 0.98819 0.30735 0.71441 0.0
O181 O 0.96738 0.30479 0.70575 0.0
In182 In 0.71049 0.67837 0.68268 0.0
O183 O 0.71599 0.70252 0.68525 0.0
O184 O 0.70207 0.68969 0.66109 0.0
C185 C 0.72953 0.68142 0.71274 0.0
C186 C 0.72 0.67048 0.64926 0.0
C187 C 0.6835 0.66038 0.6996 0.0
O188 O 0.73087 0.69224 0.70252 0.0
O189 O 0.71861 0.66903 0.70779 0.0
O190 O 0.6906 0.65543 0.69005 0.0
O191 O 0.69 0.67437 0.70064 0.0
C192 C 0.7086 0.7021 0.66994 0.0
O193 O 0.70658 0.66392 0.65475 0.0
O194 O 0.72866 0.68094 0.66068 0.0
In195 In 0.3461 0.31198 0.68424 0.0
O196 O 0.35372 0.30829 0.65306 0.0
O197 O 0.33708 0.28969 0.66932 0.0
C198 C 0.3638 0.34012 0.69701 0.0
C199 C 0.32195 0.31371 0.67392 0.0
C200 C 0.3529 0.29892 0.71413 0.0
O201 O 0.36792 0.33465 0.68305 0.0
O202 O 0.35104 0.33146 0.7041 0.0
O203 O 0.34048 0.29848 0.71359 0.0
O204 O 0.36165 0.30601 0.69987 0.0
C205 C 0.345 0.29434 0.65368 0.0
O206 O 0.32153 0.30522 0.6879 0.0
O207 O 0.3344 0.3211 0.66529 0.0
In208 In 0.70442 0.04223 0.67919 0.0
O209 O 0.70222 0.05479 0.65238 0.0
O210 O 0.7225 0.05463 0.6557 0.0
C211 C 0.67815 0.03361 0.69773 0.0
C212 C 0.69988 0.01627 0.66349 0.0
C213 C 0.72304 0.06041 0.70816 0.0
O214 O 0.68337 0.0437 0.68451 0.0
O215 O 0.6862 0.02802 0.70164 0.0
O216 O 0.72046 0.04723 0.7061 0.0
O217 O 0.71634 0.06414 0.69575 0.0
C218 C 0.7151 0.05899 0.64562 0.0
O219 O 0.71105 0.0243 0.67449 0.0
O220 O 0.69132 0.02139 0.66061 0.0
In221 In 0.97888 0.67463 0.67941 0.0
O222 O 0.97158 0.6501 0.67587 0.0
O223 O 0.99213 0.66393 0.69076 0.0
C224 C 0.9601 0.67717 0.65384 0.0
C225 C 0.96665 0.67416 0.71552 0.0
C226 C 0.00415 0.69487 0.66099 0.0
O227 O 0.96192 0.66604 0.65371 0.0
O228 O 0.96737 0.6867 0.66725 0.0
O229 O 1.00228 0.69557 0.67973 0.0
O230 O 0.99371 0.68381 0.65218 0.0
C231 C 0.98258 0.65097 0.6852 0.0
O232 O 0.97799 0.68581 0.70919 0.0
O233 O 0.9617 0.66326 0.70367 0.0
H234 H 0.25912 0.39066 0.17145 0.0
N235 N 0.23918 0.37195 0.1453 0.0
H236 H 0.26479 0.38498 0.20508 0.0
H237 H 0.22592 0.34458 0.16331 0.0
H238 H 0.23204 0.33872 0.19659 0.0
H239 H 0.23867 0.3464 0.13353 0.0
H240 H 0.25493 0.34447 0.10909 0.0
H241 H 0.2579 0.393 0.12018 0.0
H242 H 0.27383 0.39103 0.0946 0.0
H243 H 0.22557 0.38434 0.16398 0.0
H244 H 0.21794 0.35073 0.11999 0.0
H245 H 0.19962 0.37774 0.16177 0.0
H246 H 0.19234 0.34491 0.11634 0.0
H247 H 0.13006 0.36531 0.15843 0.0
H248 H 0.11636 0.36227 0.18976 0.0
H249 H 0.1069 0.31688 0.19402 0.0
H250 H 0.12019 0.31994 0.16237 0.0
H251 H 0.10237 0.33098 0.13092 0.0
H252 H 0.08976 0.33934 0.10844 0.0
H253 H 0.13229 0.37356 0.08562 0.0
H254 H 0.14486 0.36587 0.10924 0.0
H255 H 0.15488 0.37111 0.14506 0.0
H256 H 0.18119 0.37858 0.14458 0.0
H257 H 0.1693 0.33327 0.1306 0.0
N258 N 0.13141 0.34325 0.13787 0.0
H259 H 0.14317 0.32639 0.12952 0.0
C260 C 0.24227 0.36808 0.16484 0.0
C261 C 0.25318 0.37932 0.17688 0.0
C262 C 0.25638 0.37606 0.19599 0.0
C263 C 0.24888 0.36141 0.20325 0.0
C264 C 0.23805 0.35007 0.19116 0.0
C265 C 0.23461 0.3534 0.17218 0.0
C266 C 0.24714 0.36994 0.12889 0.0
C267 C 0.24625 0.35621 0.12513 0.0
C268 C 0.25552 0.35509 0.11087 0.0
C269 C 0.26581 0.36761 0.0998 0.0
C270 C 0.26626 0.3812 0.10305 0.0
C271 C 0.25705 0.38233 0.11749 0.0
C272 C 0.22387 0.36815 0.14223 0.0
C273 C 0.21834 0.37571 0.15355 0.0
C274 C 0.20346 0.37198 0.15207 0.0
C275 C 0.19367 0.36077 0.13877 0.0
C276 C 0.19933 0.35339 0.12707 0.0
C277 C 0.21417 0.35687 0.12898 0.0
C278 C 0.12596 0.34274 0.15802 0.0
C279 C 0.12529 0.35482 0.16638 0.0
C280 C 0.11746 0.35306 0.18431 0.0
C281 C 0.11028 0.33923 0.19423 0.0
C282 C 0.11197 0.32755 0.18652 0.0
C283 C 0.11968 0.3293 0.16857 0.0
C284 C 0.12462 0.34794 0.12256 0.0
C285 C 0.10902 0.34035 0.12116 0.0
C286 C 0.10179 0.34507 0.10798 0.0
C287 C 0.10992 0.35726 0.09507 0.0
C288 C 0.12558 0.36442 0.09567 0.0
C289 C 0.13285 0.35991 0.1093 0.0
C290 C 0.1471 0.34823 0.13689 0.0
C291 C 0.15802 0.36289 0.14154 0.0
C292 C 0.1731 0.36708 0.14151 0.0
C293 C 0.1776 0.35657 0.13759 0.0
C294 C 0.16651 0.34185 0.13317 0.0
C295 C 0.15149 0.33781 0.13268 0.0
H296 H 0.70443 0.79913 0.16243 0.0
N297 N 0.68386 0.80126 0.14134 0.0
H298 H 0.70181 0.78799 0.19573 0.0
H299 H 0.65883 0.78887 0.1647 0.0
H300 H 0.65583 0.77714 0.19755 0.0
H301 H 0.65715 0.77603 0.13366 0.0
H302 H 0.65233 0.75751 0.10776 0.0
H303 H 0.70209 0.80287 0.11216 0.0
H304 H 0.69745 0.78426 0.08627 0.0
H305 H 0.70103 0.82918 0.153 0.0
H306 H 0.65841 0.79974 0.12611 0.0
H307 H 0.6956 0.8494 0.15214 0.0
H308 H 0.65324 0.82006 0.12389 0.0
H309 H 0.68927 0.90808 0.14609 0.0
H310 H 0.69823 0.92478 0.17502 0.0
H311 H 0.65493 0.89941 0.20291 0.0
H312 H 0.64655 0.88222 0.17452 0.0
H313 H 0.64174 0.89349 0.13507 0.0
H314 H 0.6424 0.91062 0.10969 0.0
H315 H 0.67947 0.91009 0.08084 0.0
H316 H 0.67941 0.89392 0.10714 0.0
H317 H 0.68843 0.88678 0.13442 0.0
H318 H 0.69355 0.86648 0.13243 0.0
H319 H 0.64688 0.83505 0.1422 0.0
N320 N 0.66119 0.88448 0.14078 0.0
H321 H 0.64179 0.85557 0.14275 0.0
C322 C 0.68188 0.79483 0.16112 0.0
C323 C 0.69384 0.7944 0.17014 0.0
C324 C 0.69226 0.78791 0.18908 0.0
C325 C 0.67859 0.78159 0.19937 0.0
C326 C 0.66659 0.78206 0.19025 0.0
C327 C 0.66823 0.78866 0.17136 0.0
C328 C 0.68006 0.7909 0.12487 0.0
C329 C 0.66596 0.77804 0.12325 0.0
C330 C 0.66324 0.76738 0.10848 0.0
C331 C 0.67453 0.76933 0.095 0.0
C332 C 0.68845 0.78245 0.09624 0.0
C333 C 0.69115 0.79309 0.11104 0.0
C334 C 0.6803 0.81298 0.13945 0.0
C335 C 0.6906 0.82717 0.14657 0.0
C336 C 0.68749 0.83876 0.14588 0.0
C337 C 0.674 0.83654 0.13774 0.0
C338 C 0.66367 0.82225 0.1305 0.0
C339 C 0.6667 0.81057 0.13154 0.0
C340 C 0.66729 0.8937 0.15838 0.0
C341 C 0.6819 0.90583 0.15876 0.0
C342 C 0.68691 0.91557 0.1752 0.0
C343 C 0.67732 0.91358 0.19141 0.0
C344 C 0.66279 0.90123 0.19103 0.0
C345 C 0.65791 0.89138 0.17476 0.0
C346 C 0.66047 0.89234 0.12324 0.0
C347 C 0.64987 0.89691 0.12307 0.0
C348 C 0.65024 0.9067 0.10838 0.0
C349 C 0.66109 0.91197 0.09309 0.0
C350 C 0.67119 0.90666 0.0926 0.0
C351 C 0.67104 0.89715 0.10765 0.0
C352 C 0.66461 0.87271 0.1384 0.0
C353 C 0.67923 0.87555 0.13571 0.0
C354 C 0.68218 0.86383 0.13487 0.0
C355 C 0.67067 0.84898 0.13728 0.0
C356 C 0.65605 0.84623 0.13989 0.0
C357 C 0.65309 0.85796 0.14033 0.0
H358 H 0.13359 0.77893 0.15983 0.0
N359 N 0.13123 0.80283 0.14757 0.0
H360 H 0.12464 0.76542 0.19139 0.0
H361 H 0.11871 0.80909 0.17816 0.0
H362 H 0.10969 0.79554 0.21008 0.0
H363 H 0.10432 0.79401 0.13291 0.0
H364 H 0.09087 0.77508 0.10708 0.0
H365 H 0.14282 0.78925 0.12412 0.0
H366 H 0.1295 0.7704 0.09837 0.0
H367 H 0.15645 0.80146 0.15624 0.0
H368 H 0.14094 0.83042 0.1348 0.0
H369 H 0.18195 0.82187 0.15511 0.0
H370 H 0.16669 0.85097 0.13284 0.0
H371 H 0.24291 0.87484 0.18437 0.0
H372 H 0.24916 0.8865 0.21779 0.0
H373 H 0.24567 0.92341 0.19474 0.0
H374 H 0.239 0.91155 0.16161 0.0
H375 H 0.22899 0.90084 0.12611 0.0
H376 H 0.24471 0.91951 0.10129 0.0
H377 H 0.28024 0.91056 0.11415 0.0
H378 H 0.26429 0.89168 0.13862 0.0
H379 H 0.22769 0.85789 0.13719 0.0
H380 H 0.20191 0.83775 0.13378 0.0
H381 H 0.18671 0.86735 0.15423 0.0
N382 N 0.23741 0.88523 0.15087 0.0
H383 H 0.21249 0.8875 0.15676 0.0
C384 C 0.12693 0.79517 0.16667 0.0
C385 C 0.12859 0.7828 0.17075 0.0
C386 C 0.12346 0.77506 0.18887 0.0
C387 C 0.11647 0.77942 0.20326 0.0
C388 C 0.11491 0.79184 0.19922 0.0
C389 C 0.12014 0.79965 0.18111 0.0
C390 C 0.12459 0.79319 0.13039 0.0
C391 C 0.10995 0.78908 0.12514 0.0
C392 C 0.10226 0.77818 0.11055 0.0
C393 C 0.10911 0.7712 0.10077 0.0
C394 C 0.12397 0.77568 0.10551 0.0
C395 C 0.13163 0.78651 0.12025 0.0
C396 C 0.14664 0.81441 0.14579 0.0
C397 C 0.15848 0.81217 0.15111 0.0
C398 C 0.17318 0.82391 0.15026 0.0
C399 C 0.17647 0.83816 0.1439 0.0
C400 C 0.16462 0.84025 0.13811 0.0
C401 C 0.14989 0.8285 0.13908 0.0
C402 C 0.24067 0.89233 0.1704 0.0
C403 C 0.24342 0.8854 0.18658 0.0
C404 C 0.24695 0.89205 0.20561 0.0
C405 C 0.24798 0.90589 0.20877 0.0
C406 C 0.24512 0.91282 0.19262 0.0
C407 C 0.2413 0.90602 0.17367 0.0
C408 C 0.2455 0.89484 0.13423 0.0
C409 C 0.24003 0.90265 0.12327 0.0
C410 C 0.24909 0.91342 0.10918 0.0
C411 C 0.26379 0.91663 0.1058 0.0
C412 C 0.26894 0.90828 0.11614 0.0
C413 C 0.25988 0.89753 0.1302 0.0
C414 C 0.22205 0.87412 0.14737 0.0
C415 C 0.21875 0.86004 0.14065 0.0
C416 C 0.204 0.84851 0.13891 0.0
C417 C 0.19215 0.85081 0.14399 0.0
C418 C 0.19549 0.86515 0.15003 0.0
C419 C 0.21028 0.87671 0.15162 0.0
H420 H 0.39261 0.25805 0.87089 0.0
N421 N 0.37049 0.23654 0.89159 0.0
H422 H 0.39151 0.26734 0.83748 0.0
H423 H 0.34625 0.22469 0.86663 0.0
H424 H 0.34499 0.23393 0.83308 0.0
H425 H 0.34363 0.23486 0.89798 0.0
H426 H 0.33936 0.25172 0.9185 0.0
H427 H 0.38924 0.25639 0.91782 0.0
H428 H 0.38531 0.27394 0.9377 0.0
H429 H 0.38656 0.22419 0.882 0.0
H430 H 0.34434 0.21382 0.90772 0.0
H431 H 0.37969 0.19813 0.88449 0.0
H432 H 0.33772 0.18801 0.91134 0.0
H433 H 0.36717 0.13778 0.87614 0.0
H434 H 0.36979 0.13039 0.84218 0.0
H435 H 0.32195 0.1047 0.83653 0.0
H436 H 0.31944 0.11229 0.87065 0.0
H437 H 0.34405 0.10413 0.89236 0.0
H438 H 0.35142 0.09244 0.91741 0.0
H439 H 0.35553 0.12475 0.9615 0.0
H440 H 0.34826 0.13688 0.93621 0.0
H441 H 0.36896 0.15253 0.90455 0.0
H442 H 0.37594 0.17867 0.90558 0.0
H443 H 0.33034 0.16638 0.89285 0.0
N444 N 0.34116 0.12884 0.8965 0.0
H445 H 0.32342 0.14022 0.8929 0.0
C446 C 0.36959 0.24073 0.87118 0.0
C447 C 0.38225 0.25263 0.86257 0.0
C448 C 0.38158 0.25789 0.8435 0.0
C449 C 0.36815 0.25135 0.83262 0.0
C450 C 0.35545 0.23927 0.84117 0.0
C451 C 0.35617 0.23394 0.86028 0.0
C452 C 0.36677 0.24423 0.90654 0.0
C453 C 0.35265 0.24296 0.90717 0.0
C454 C 0.35029 0.25281 0.91872 0.0
C455 C 0.36205 0.26439 0.92952 0.0
C456 C 0.37594 0.2651 0.92976 0.0
C457 C 0.37823 0.25509 0.9184 0.0
C458 C 0.36611 0.22112 0.89469 0.0
C459 C 0.3759 0.21632 0.8885 0.0
C460 C 0.37198 0.2014 0.8901 0.0
C461 C 0.35813 0.19083 0.89821 0.0
C462 C 0.34838 0.19571 0.90472 0.0
C463 C 0.35224 0.21064 0.90281 0.0
C464 C 0.34306 0.12571 0.87583 0.0
C465 C 0.35725 0.13086 0.86745 0.0
C466 C 0.35872 0.12657 0.84805 0.0
C467 C 0.34607 0.11695 0.83669 0.0
C468 C 0.3319 0.112 0.84499 0.0
C469 C 0.33043 0.11641 0.86436 0.0
C470 C 0.34652 0.12232 0.91151 0.0
C471 C 0.34693 0.10922 0.90711 0.0
C472 C 0.35092 0.10223 0.92169 0.0
C473 C 0.3542 0.10772 0.94143 0.0
C474 C 0.3534 0.12045 0.94627 0.0
C475 C 0.34933 0.12748 0.93163 0.0
C476 C 0.34557 0.14435 0.89886 0.0
C477 C 0.36044 0.15545 0.90225 0.0
C478 C 0.36443 0.17046 0.90266 0.0
C479 C 0.35374 0.17477 0.89921 0.0
C480 C 0.33887 0.16358 0.89597 0.0
C481 C 0.33487 0.14859 0.89588 0.0
H482 H 0.77518 0.13356 0.86911 0.0
N483 N 0.79689 0.13016 0.88778 0.0
H484 H 0.76442 0.12427 0.83611 0.0
H485 H 0.80333 0.1144 0.86229 0.0
H486 H 0.79233 0.1048 0.82895 0.0
H487 H 0.79277 0.10743 0.91052 0.0
H488 H 0.7742 0.09512 0.93732 0.0
H489 H 0.77833 0.13942 0.90303 0.0
H490 H 0.75931 0.1267 0.92911 0.0
H491 H 0.7966 0.15551 0.87659 0.0
H492 H 0.82385 0.13947 0.90271 0.0
H493 H 0.8175 0.18076 0.87739 0.0
H494 H 0.84476 0.16494 0.9047 0.0
H495 H 0.88095 0.24878 0.85297 0.0
H496 H 0.89852 0.25843 0.82495 0.0
H497 H 0.92261 0.23847 0.85074 0.0
H498 H 0.90581 0.2301 0.87931 0.0
H499 H 0.89504 0.22578 0.91464 0.0
H500 H 0.9124 0.24129 0.94088 0.0
H501 H 0.90689 0.27804 0.92206 0.0
H502 H 0.88913 0.26222 0.89648 0.0
H503 H 0.8545 0.2267 0.89426 0.0
H504 H 0.8333 0.20143 0.897 0.0
H505 H 0.86245 0.18395 0.88453 0.0
N506 N 0.8826 0.23506 0.8858 0.0
H507 H 0.88348 0.209 0.88301 0.0
C508 C 0.79032 0.1249 0.86816 0.0
C509 C 0.77918 0.12747 0.86052 0.0
C510 C 0.77298 0.1221 0.84156 0.0
C511 C 0.7776 0.11388 0.82987 0.0
C512 C 0.78851 0.11105 0.83765 0.0
C513 C 0.79486 0.11659 0.85658 0.0
C514 C 0.78682 0.12419 0.90461 0.0
C515 C 0.78567 0.11184 0.91477 0.0
C516 C 0.77511 0.10485 0.92999 0.0
C517 C 0.76539 0.10999 0.93509 0.0
C518 C 0.76672 0.12257 0.92532 0.0
C519 C 0.77751 0.12976 0.91035 0.0
C520 C 0.8087 0.14545 0.88928 0.0
C521 C 0.80703 0.15738 0.88266 0.0
C522 C 0.81906 0.17196 0.88335 0.0
C523 C 0.83297 0.17503 0.89099 0.0
C524 C 0.83439 0.16307 0.89826 0.0
C525 C 0.82241 0.14849 0.89731 0.0
C526 C 0.89182 0.23849 0.86808 0.0
C527 C 0.88991 0.24633 0.85233 0.0
C528 C 0.89997 0.25178 0.83626 0.0
C529 C 0.91214 0.24934 0.83547 0.0
C530 C 0.91362 0.24089 0.85091 0.0
C531 C 0.90376 0.23576 0.86717 0.0
C532 C 0.89073 0.24285 0.90361 0.0
C533 C 0.89725 0.23703 0.91654 0.0
C534 C 0.90733 0.24601 0.93142 0.0
C535 C 0.91124 0.26103 0.93352 0.0
C536 C 0.90407 0.26653 0.92118 0.0
C537 C 0.89393 0.25751 0.90647 0.0
C538 C 0.8706 0.2199 0.88817 0.0
C539 C 0.85629 0.21737 0.89231 0.0
C540 C 0.84415 0.20289 0.89369 0.0
C541 C 0.84603 0.19051 0.89078 0.0
C542 C 0.8605 0.1931 0.88709 0.0
C543 C 0.87264 0.20759 0.88597 0.0
H544 H 0.79588 0.68862 0.87798 0.0
N545 N 0.79475 0.66232 0.88653 0.0
H546 H 0.78804 0.69503 0.84682 0.0
H547 H 0.78558 0.64633 0.85282 0.0
H548 H 0.77806 0.65283 0.82116 0.0
H549 H 0.76872 0.6396 0.89763 0.0
H550 H 0.75186 0.63924 0.92358 0.0
H551 H 0.80075 0.68483 0.91298 0.0
H552 H 0.78376 0.68483 0.93861 0.0
H553 H 0.82014 0.68756 0.87331 0.0
H554 H 0.80454 0.64792 0.90918 0.0
H555 H 0.8455 0.69299 0.87735 0.0
H556 H 0.83016 0.65395 0.91476 0.0
H557 H 0.92649 0.70349 0.87876 0.0
H558 H 0.93717 0.70002 0.84774 0.0
H559 H 0.89586 0.65944 0.83596 0.0
H560 H 0.88563 0.66258 0.86705 0.0
H561 H 0.89603 0.65654 0.89939 0.0
H562 H 0.90804 0.64851 0.92384 0.0
H563 H 0.92988 0.69227 0.95051 0.0
H564 H 0.91752 0.70021 0.92606 0.0
H565 H 0.89183 0.70488 0.89529 0.0
H566 H 0.86652 0.70074 0.89638 0.0
H567 H 0.84937 0.65331 0.89902 0.0
N568 N 0.90035 0.68469 0.89531 0.0
H569 H 0.87452 0.65768 0.89952 0.0
C570 C 0.79125 0.66691 0.86775 0.0
C571 C 0.79202 0.68073 0.86569 0.0
C572 C 0.78764 0.68445 0.84774 0.0
C573 C 0.7824 0.67444 0.83145 0.0
C574 C 0.78186 0.66072 0.83348 0.0
C575 C 0.78626 0.65702 0.85146 0.0
C576 C 0.78591 0.66219 0.90336 0.0
C577 C 0.77213 0.64941 0.90677 0.0
C578 C 0.76246 0.64931 0.92146 0.0
C579 C 0.76634 0.66207 0.93304 0.0
C580 C 0.78043 0.67477 0.93008 0.0
C581 C 0.79014 0.67483 0.91537 0.0
C582 C 0.8102 0.66707 0.89066 0.0
C583 C 0.82209 0.68009 0.88237 0.0
C584 C 0.83679 0.68332 0.88492 0.0
C585 C 0.84009 0.67386 0.89623 0.0
C586 C 0.82819 0.66131 0.90543 0.0
C587 C 0.81348 0.65791 0.90248 0.0
C588 C 0.90526 0.6834 0.8754 0.0
C589 C 0.91969 0.69398 0.86927 0.0
C590 C 0.92575 0.692 0.8515 0.0
C591 C 0.91745 0.67934 0.83946 0.0
C592 C 0.90271 0.66915 0.8451 0.0
C593 C 0.89673 0.67105 0.86292 0.0
C594 C 0.90567 0.67899 0.91109 0.0
C595 C 0.90298 0.6643 0.91085 0.0
C596 C 0.90994 0.65973 0.92481 0.0
C597 C 0.91992 0.66977 0.93909 0.0
C598 C 0.92232 0.68432 0.93961 0.0
C599 C 0.91519 0.68883 0.9258 0.0
C600 C 0.8852 0.68168 0.8971 0.0
C601 C 0.88256 0.69362 0.89638 0.0
C602 C 0.86803 0.69118 0.89679 0.0
C603 C 0.85569 0.67664 0.89756 0.0
C604 C 0.85844 0.6647 0.89875 0.0
C605 C 0.87297 0.66718 0.8988 0.0
H606 H 0.7744 0.64306 0.49054 0.0
N607 N 0.79137 0.66821 0.47078 0.0
H608 H 0.76115 0.63993 0.52226 0.0
H609 H 0.79465 0.69058 0.49571 0.0
H610 H 0.78108 0.68763 0.527 0.0
H611 H 0.80275 0.69744 0.46084 0.0
H612 H 0.79109 0.70743 0.4385 0.0
H613 H 0.76804 0.65291 0.44708 0.0
H614 H 0.7565 0.66268 0.42431 0.0
H615 H 0.79809 0.64973 0.45246 0.0
H616 H 0.81768 0.69118 0.48479 0.0
H617 H 0.82238 0.65138 0.45044 0.0
H618 H 0.84204 0.69281 0.48334 0.0
H619 H 0.901 0.65701 0.48881 0.0
H620 H 0.91268 0.66089 0.52174 0.0
H621 H 0.90269 0.69587 0.53377 0.0
H622 H 0.8923 0.69274 0.50013 0.0
H623 H 0.91099 0.70095 0.46478 0.0
H624 H 0.93161 0.70929 0.44074 0.0
H625 H 0.91383 0.66407 0.4204 0.0
H626 H 0.8931 0.6559 0.44417 0.0
H627 H 0.86232 0.64905 0.47525 0.0
H628 H 0.8387 0.6488 0.47366 0.0
H629 H 0.86245 0.69597 0.46145 0.0
N630 N 0.88953 0.67216 0.47195 0.0
H631 H 0.88605 0.6961 0.46346 0.0
C632 C 0.7854 0.66698 0.49072 0.0
C633 C 0.7761 0.65282 0.49869 0.0
C634 C 0.76843 0.65107 0.5167 0.0
C635 C 0.76984 0.66352 0.52706 0.0
C636 C 0.77978 0.67779 0.51952 0.0
C637 C 0.78752 0.67951 0.50153 0.0
C638 C 0.78617 0.67441 0.45563 0.0
C639 C 0.79277 0.68982 0.45272 0.0
C640 C 0.78611 0.69549 0.43988 0.0
C641 C 0.77274 0.68585 0.4298 0.0
C642 C 0.76661 0.67043 0.43213 0.0
C643 C 0.77325 0.66481 0.44494 0.0
C644 C 0.80607 0.67023 0.46885 0.0
C645 C 0.8077 0.65923 0.45904 0.0
C646 C 0.82157 0.66015 0.45804 0.0
C647 C 0.83417 0.67215 0.46693 0.0
C648 C 0.8326 0.68348 0.47622 0.0
C649 C 0.81867 0.68253 0.47716 0.0
C650 C 0.89561 0.6744 0.49203 0.0
C651 C 0.90136 0.66551 0.49863 0.0
C652 C 0.9079 0.66767 0.51762 0.0
C653 C 0.90858 0.67863 0.53075 0.0
C654 C 0.90265 0.68747 0.52411 0.0
C655 C 0.89646 0.68555 0.50485 0.0
C656 C 0.90039 0.6778 0.45599 0.0
C657 C 0.91126 0.69293 0.45466 0.0
C658 C 0.92308 0.69766 0.44102 0.0
C659 C 0.92436 0.6873 0.42879 0.0
C660 C 0.91319 0.67227 0.42974 0.0
C661 C 0.9013 0.66761 0.44314 0.0
C662 C 0.87592 0.67249 0.46934 0.0
C663 C 0.86239 0.65928 0.47201 0.0
C664 C 0.84891 0.65918 0.47102 0.0
C665 C 0.84864 0.67237 0.46733 0.0
C666 C 0.86225 0.68564 0.46446 0.0
C667 C 0.87577 0.68571 0.46542 0.0
H668 H 0.36851 0.13411 0.492 0.0
N669 N 0.34674 0.13262 0.46918 0.0
H670 H 0.36643 0.12374 0.52582 0.0
H671 H 0.32138 0.11804 0.49182 0.0
H672 H 0.31911 0.1074 0.52508 0.0
H673 H 0.32172 0.10581 0.46143 0.0
H674 H 0.32055 0.08645 0.43943 0.0
H675 H 0.36612 0.13615 0.44068 0.0
H676 H 0.36473 0.11725 0.41751 0.0
H677 H 0.36658 0.16132 0.46626 0.0
H678 H 0.31952 0.13033 0.46426 0.0
H679 H 0.36195 0.18206 0.46392 0.0
H680 H 0.31455 0.15089 0.46386 0.0
H681 H 0.34936 0.24041 0.48634 0.0
H682 H 0.35345 0.25179 0.51972 0.0
H683 H 0.30963 0.2173 0.53787 0.0
H684 H 0.30569 0.20596 0.50446 0.0
H685 H 0.30441 0.22249 0.45987 0.0
H686 H 0.30821 0.24138 0.43504 0.0
H687 H 0.35284 0.24977 0.42447 0.0
H688 H 0.34902 0.23117 0.44996 0.0
H689 H 0.34946 0.21567 0.48586 0.0
H690 H 0.35467 0.19552 0.48285 0.0
H691 H 0.31436 0.17035 0.44802 0.0
N692 N 0.32413 0.21546 0.4732 0.0
H693 H 0.30866 0.19026 0.45266 0.0
C694 C 0.34518 0.12698 0.48941 0.0
C695 C 0.35774 0.1284 0.4993 0.0
C696 C 0.3565 0.12236 0.51852 0.0
C697 C 0.3426 0.11474 0.52821 0.0
C698 C 0.33003 0.11341 0.51825 0.0
C699 C 0.33131 0.11947 0.49909 0.0
C700 C 0.34422 0.12233 0.45308 0.0
C701 C 0.33109 0.10845 0.45175 0.0
C702 C 0.33039 0.09738 0.43897 0.0
C703 C 0.34271 0.1001 0.42702 0.0
C704 C 0.35521 0.11454 0.42698 0.0
C705 C 0.35599 0.12545 0.44 0.0
C706 C 0.34344 0.14435 0.46586 0.0
C707 C 0.35522 0.15904 0.4654 0.0
C708 C 0.3525 0.17089 0.46434 0.0
C709 C 0.33783 0.16834 0.46418 0.0
C710 C 0.32601 0.15346 0.46386 0.0
C711 C 0.3288 0.1416 0.46441 0.0
C712 C 0.32714 0.22228 0.4929 0.0
C713 C 0.34063 0.23531 0.49748 0.0
C714 C 0.34293 0.24185 0.51656 0.0
C715 C 0.33188 0.23546 0.53148 0.0
C716 C 0.31846 0.22241 0.52683 0.0
C717 C 0.31615 0.21593 0.50776 0.0
C718 C 0.32635 0.2254 0.45672 0.0
C719 C 0.31492 0.22828 0.45194 0.0
C720 C 0.31711 0.23903 0.43764 0.0
C721 C 0.33085 0.24715 0.42767 0.0
C722 C 0.34218 0.24388 0.43201 0.0
C723 C 0.33999 0.23315 0.44646 0.0
C724 C 0.32843 0.20438 0.46985 0.0
C725 C 0.34167 0.20582 0.47767 0.0
C726 C 0.34475 0.19424 0.47566 0.0
C727 C 0.33491 0.18106 0.46527 0.0
C728 C 0.32204 0.18004 0.45661 0.0
C729 C 0.31882 0.1915 0.45903 0.0
H730 H 0.79529 0.11356 0.49771 0.0
N731 N 0.79624 0.13562 0.47386 0.0
H732 H 0.78011 0.1029 0.52753 0.0
H733 H 0.78063 0.14557 0.49345 0.0
H734 H 0.76573 0.13528 0.52402 0.0
H735 H 0.7735 0.12733 0.44881 0.0
H736 H 0.76146 0.10474 0.42822 0.0
H737 H 0.8079 0.11768 0.46522 0.0
H738 H 0.79587 0.09507 0.44489 0.0
H739 H 0.81923 0.13505 0.49365 0.0
H740 H 0.80844 0.16156 0.45497 0.0
H741 H 0.84505 0.15507 0.49504 0.0
H742 H 0.83444 0.18161 0.45585 0.0
H743 H 0.91444 0.21452 0.51762 0.0
H744 H 0.92436 0.23189 0.54589 0.0
H745 H 0.90818 0.25873 0.5183 0.0
H746 H 0.89908 0.24178 0.48976 0.0
H747 H 0.89503 0.23109 0.45416 0.0
H748 H 0.91164 0.2476 0.42792 0.0
H749 H 0.94626 0.23941 0.44863 0.0
H750 H 0.92955 0.22282 0.47475 0.0
H751 H 0.89314 0.18894 0.4791 0.0
H752 H 0.86749 0.16848 0.4754 0.0
H753 H 0.85187 0.19987 0.47904 0.0
N754 N 0.90255 0.21764 0.48388 0.0
H755 H 0.87742 0.22014 0.4822 0.0
C756 C 0.78904 0.13038 0.49316 0.0
C757 C 0.78904 0.11853 0.50338 0.0
C758 C 0.78036 0.11246 0.52063 0.0
C759 C 0.77155 0.11813 0.52818 0.0
C760 C 0.77213 0.13043 0.51844 0.0
C761 C 0.78075 0.13644 0.50109 0.0
C762 C 0.79149 0.12417 0.4587 0.0
C763 C 0.77868 0.12057 0.44748 0.0
C764 C 0.77184 0.10768 0.43572 0.0
C765 C 0.77765 0.09806 0.43513 0.0
C766 C 0.79107 0.10221 0.44525 0.0
C767 C 0.79799 0.11518 0.45684 0.0
C768 C 0.81181 0.14683 0.47424 0.0
C769 C 0.8224 0.14511 0.48529 0.0
C770 C 0.83725 0.15659 0.48598 0.0
C771 C 0.84186 0.17002 0.47562 0.0
C772 C 0.83127 0.17155 0.46428 0.0
C773 C 0.81643 0.16007 0.46362 0.0
C774 C 0.90591 0.22672 0.50168 0.0
C775 C 0.9128 0.22401 0.51794 0.0
C776 C 0.91842 0.23395 0.53411 0.0
C777 C 0.91718 0.24682 0.53437 0.0
C778 C 0.90958 0.2491 0.51848 0.0
C779 C 0.90411 0.23924 0.50223 0.0
C780 C 0.91103 0.22558 0.46637 0.0
C781 C 0.90604 0.23254 0.4528 0.0
C782 C 0.91557 0.24202 0.43781 0.0
C783 C 0.93028 0.24489 0.43635 0.0
C784 C 0.93504 0.23755 0.44954 0.0
C785 C 0.92549 0.22797 0.46431 0.0
C786 C 0.88729 0.20607 0.481 0.0
C787 C 0.88415 0.19137 0.47896 0.0
C788 C 0.86948 0.17969 0.477 0.0
C789 C 0.85756 0.18249 0.47701 0.0
C790 C 0.86075 0.1973 0.47873 0.0
C791 C 0.87544 0.20896 0.48069 0.0
H792 H 0.03683 0.58082 0.20997 0.0
N793 N 0.01063 0.55788 0.22442 0.0
H794 H 0.04075 0.59306 0.17739 0.0
H795 H 0.99074 0.55131 0.19512 0.0
H796 H 0.99458 0.56368 0.16232 0.0
H797 H 0.99212 0.5656 0.24047 0.0
H798 H 0.99759 0.58451 0.26622 0.0
H799 H 0.03668 0.57309 0.24565 0.0
H800 H 0.04238 0.59222 0.27122 0.0
H801 H 0.03538 0.55705 0.21109 0.0
H802 H 0.99412 0.53224 0.2435 0.0
H803 H 0.0394 0.53611 0.21282 0.0
H804 H 0.99861 0.51142 0.24676 0.0
H805 H 0.04578 0.47238 0.19635 0.0
H806 H 0.03865 0.45505 0.1681 0.0
H807 H 0.99304 0.43282 0.18881 0.0
H808 H 1.00049 0.44961 0.21747 0.0
H809 H 0.0071 0.45225 0.25209 0.0
H810 H 0.01038 0.43791 0.27897 0.0
H811 H 0.05775 0.4616 0.26797 0.0
H812 H 0.05428 0.4756 0.24098 0.0
H813 H 0.04937 0.5002 0.22917 0.0
H814 H 0.04575 0.5216 0.23131 0.0
H815 H 0.99808 0.49193 0.22967 0.0
N816 N 0.02873 0.47168 0.22663 0.0
H817 H 1.00195 0.47074 0.22925 0.0
C818 C 0.01347 0.56497 0.20492 0.0
C819 C 0.02756 0.57687 0.19965 0.0
C820 C 0.02981 0.58387 0.18097 0.0
C821 C 0.01798 0.5793 0.16727 0.0
C822 C 0.00388 0.56749 0.17261 0.0
C823 C 1.00169 0.56036 0.19123 0.0
C824 C 0.01391 0.56789 0.24119 0.0
C825 C 1.00303 0.57123 0.24738 0.0
C826 C 0.00624 0.58213 0.26194 0.0
C827 C 0.02047 0.58999 0.27067 0.0
C828 C 0.03127 0.5863 0.26492 0.0
C829 C 0.02805 0.57538 0.25027 0.0
C830 C 0.0142 0.54618 0.22682 0.0
C831 C 0.0272 0.54717 0.2188 0.0
C832 C 0.0296 0.5351 0.22006 0.0
C833 C 0.0193 0.52184 0.22984 0.0
C834 C 0.00664 0.52119 0.23862 0.0
C835 C 0.00411 0.53316 0.23699 0.0
C836 C 0.0237 0.46249 0.20886 0.0
C837 C 0.03421 0.46388 0.19455 0.0
C838 C 0.03007 0.45397 0.17837 0.0
C839 C 0.01522 0.44244 0.17607 0.0
C840 C 0.00461 0.44137 0.19019 0.0
C841 C 0.00882 0.45118 0.2065 0.0
C842 C 0.03048 0.46491 0.2445 0.0
C843 C 0.01818 0.45444 0.25565 0.0
C844 C 0.02007 0.44624 0.27095 0.0
C845 C 0.03432 0.44858 0.27553 0.0
C846 C 0.04665 0.45962 0.26498 0.0
C847 C 0.04471 0.46764 0.24957 0.0
C848 C 0.026 0.4839 0.22865 0.0
C849 C 0.03816 0.49839 0.22947 0.0
C850 C 0.03602 0.51062 0.23047 0.0
C851 C 0.02159 0.50868 0.23032 0.0
C852 C 0.00938 0.49403 0.23 0.0
C853 C 0.01156 0.48178 0.22944 0.0
H854 H 0.57496 0.56094 0.20956 0.0
N855 N 0.55239 0.56662 0.21766 0.0
H856 H 0.5911 0.56911 0.18032 0.0
H857 H 0.55013 0.58032 0.18522 0.0
H858 H 0.56705 0.5897 0.15647 0.0
H859 H 0.55796 0.59334 0.22907 0.0
H860 H 0.57619 0.60965 0.25396 0.0
H861 H 0.5668 0.55832 0.24465 0.0
H862 H 0.58498 0.57449 0.26984 0.0
H863 H 0.5522 0.54012 0.21251 0.0
H864 H 0.52541 0.55899 0.23093 0.0
H865 H 0.5311 0.51535 0.21658 0.0
H866 H 0.50427 0.53403 0.23634 0.0
H867 H 0.46262 0.43604 0.22224 0.0
H868 H 0.45282 0.42111 0.19173 0.0
H869 H 0.45111 0.45752 0.16302 0.0
H870 H 0.46014 0.47197 0.19379 0.0
H871 H 0.44255 0.46721 0.2233 0.0
H872 H 0.419 0.45514 0.24127 0.0
H873 H 0.43626 0.43479 0.28156 0.0
H874 H 0.46017 0.44763 0.26401 0.0
H875 H 0.49399 0.47162 0.23933 0.0
H876 H 0.51528 0.49689 0.23873 0.0
H877 H 0.48632 0.51317 0.21924 0.0
N878 N 0.46598 0.46262 0.22967 0.0
H879 H 0.46517 0.48815 0.22117 0.0
C880 C 0.56103 0.56971 0.19942 0.0
C881 C 0.57276 0.56671 0.19773 0.0
C882 C 0.58225 0.57171 0.18107 0.0
C883 C 0.5806 0.58028 0.16598 0.0
C884 C 0.56861 0.58296 0.16751 0.0
C885 C 0.55892 0.57765 0.18399 0.0
C886 C 0.56106 0.57469 0.23496 0.0
C887 C 0.56357 0.58907 0.23831 0.0
C888 C 0.57397 0.59834 0.25258 0.0
C889 C 0.58215 0.59342 0.26382 0.0
C890 C 0.57903 0.57869 0.26122 0.0
C891 C 0.56857 0.56939 0.24692 0.0
C892 C 0.54039 0.5516 0.22104 0.0
C893 C 0.54185 0.53904 0.21757 0.0
C894 C 0.52968 0.52471 0.22018 0.0
C895 C 0.51582 0.52253 0.22672 0.0
C896 C 0.51459 0.53515 0.23083 0.0
C897 C 0.52671 0.54947 0.22792 0.0
C898 C 0.46229 0.45517 0.2104 0.0
C899 C 0.46034 0.44085 0.20922 0.0
C900 C 0.45477 0.43235 0.19171 0.0
C901 C 0.45108 0.43804 0.17483 0.0
C902 C 0.45354 0.45263 0.1758 0.0
C903 C 0.45895 0.46105 0.19342 0.0
C904 C 0.45326 0.45846 0.24245 0.0
C905 C 0.44157 0.46075 0.23654 0.0
C906 C 0.42795 0.45358 0.24667 0.0
C907 C 0.4256 0.44375 0.26266 0.0
C908 C 0.43766 0.44234 0.26944 0.0
C909 C 0.45135 0.44966 0.25941 0.0
C910 C 0.47798 0.47786 0.23016 0.0
C911 C 0.49227 0.48071 0.23516 0.0
C912 C 0.50445 0.49518 0.23459 0.0
C913 C 0.50267 0.5072 0.22869 0.0
C914 C 0.48822 0.50433 0.2241 0.0
C915 C 0.47601 0.48987 0.22499 0.0
H916 H 0.54273 0.97807 0.18816 0.0
N917 N 0.55281 0.99094 0.22374 0.0
H918 H 0.55541 0.98563 0.15546 0.0
H919 H 0.58032 0.01533 0.21643 0.0
H920 H 0.59321 0.02252 0.18401 0.0
H921 H 0.57074 0.01269 0.25034 0.0
H922 H 0.58601 0.01049 0.27697 0.0
H923 H 0.55317 0.96666 0.23487 0.0
H924 H 0.56799 0.96423 0.26171 0.0
H925 H 0.52499 0.972 0.23453 0.0
H926 H 0.55515 0.01829 0.22229 0.0
H927 H 0.50451 0.97697 0.23839 0.0
H928 H 0.53462 0.02337 0.22512 0.0
H929 H 0.44656 0.98694 0.21009 0.0
H930 H 0.43549 0.9847 0.17697 0.0
H931 H 0.46627 0.0312 0.16575 0.0
H932 H 0.47744 0.03333 0.1991 0.0
H933 H 0.45525 0.02646 0.23888 0.0
H934 H 0.43353 0.01733 0.26048 0.0
H935 H 0.4361 0.97783 0.27286 0.0
H936 H 0.45702 0.98655 0.24992 0.0
H937 H 0.46892 0.9867 0.2157 0.0
H938 H 0.48965 0.98222 0.21714 0.0
H939 H 0.51664 0.02493 0.24571 0.0
N940 N 0.46909 0.01224 0.22705 0.0
H941 H 0.49579 0.02961 0.24334 0.0
C942 C 0.56058 0.99594 0.2048 0.0
C943 C 0.55372 0.98782 0.18732 0.0
C944 C 0.56094 0.99215 0.16872 0.0
C945 C 0.57531 0.00458 0.16732 0.0
C946 C 0.5822 0.0128 0.18478 0.0
C947 C 0.57482 0.00865 0.20333 0.0
C948 C 0.56095 0.98983 0.24055 0.0
C949 C 0.5701 0.00211 0.25279 0.0
C950 C 0.5788 1.00084 0.26794 0.0
C951 C 0.57817 0.98719 0.27138 0.0
C952 C 0.56861 0.97485 0.25952 0.0
C953 C 0.56018 0.97621 0.24419 0.0
C954 C 0.54149 0.9947 0.22793 0.0
C955 C 0.52716 0.98327 0.2328 0.0
C956 C 0.51545 0.98614 0.23478 0.0
C957 C 0.51778 1.00054 0.23171 0.0
C958 C 0.53237 0.01215 0.2277 0.0
C959 C 0.54414 0.00927 0.22595 0.0
C960 C 0.46299 0.01032 0.20699 0.0
C961 C 0.45114 0.9966 0.20041 0.0
C962 C 0.44479 0.99534 0.18145 0.0
C963 C 0.45003 0.00778 0.16874 0.0
C964 C 0.46194 0.02145 0.17528 0.0
C965 C 0.46839 0.02267 0.1942 0.0
C966 C 0.45791 0.00735 0.24271 0.0
C967 C 0.45122 0.01592 0.24651 0.0
C968 C 0.43879 0.01066 0.25903 0.0
C969 C 0.43285 0.99673 0.26855 0.0
C970 C 0.44004 0.98844 0.26549 0.0
C971 C 0.45227 0.99356 0.25252 0.0
C972 C 0.48079 0.00863 0.22926 0.0
C973 C 0.47923 0.99515 0.22227 0.0
C974 C 0.49115 0.99252 0.22332 0.0
C975 C 0.50491 0.0032 0.23156 0.0
C976 C 0.50631 0.01653 0.239 0.0
C977 C 0.49438 0.01918 0.23782 0.0
H978 H 0.43024 0.98891 0.82177 0.0
N979 N 0.45697 0.00581 0.80555 0.0
H980 H 0.42067 0.99296 0.85333 0.0
H981 H 0.47321 0.02709 0.8343 0.0
H982 H 0.46414 0.03059 0.86613 0.0
H983 H 0.46281 0.03443 0.80078 0.0
H984 H 0.45163 0.04313 0.77579 0.0
H985 H 0.43896 0.99037 0.77546 0.0
H986 H 0.42731 0.99893 0.75075 0.0
H987 H 0.4639 0.98446 0.80498 0.0
H988 H 0.48358 0.03199 0.8011 0.0
H989 H 0.48861 0.9871 0.80306 0.0
H990 H 0.50817 0.03489 0.80072 0.0
H991 H 0.55848 0.99571 0.81999 0.0
H992 H 0.56704 0.98922 0.85033 0.0
H993 H 0.57789 0.0315 0.87671 0.0
H994 H 0.56997 0.03821 0.84563 0.0
H995 H 0.5873 0.04429 0.80087 0.0
H996 H 0.60447 0.04286 0.77702 0.0
H997 H 0.57064 0.99815 0.76131 0.0
H998 H 0.55349 0.99975 0.78523 0.0
H999 H 0.53468 0.9979 0.82495 0.0
H1000 H 0.50971 0.99376 0.82148 0.0
H1001 H 0.52644 0.03301 0.78416 0.0
N1002 N 0.5606 0.02253 0.81169 0.0
H1003 H 0.55169 0.03775 0.78917 0.0
C1004 C 0.45244 0.00755 0.8255 0.0
C1005 C 0.4377 0.99793 0.83154 0.0
C1006 C 0.43228 1.00024 0.84967 0.0
C1007 C 0.44156 0.0122 0.86233 0.0
C1008 C 0.45651 0.02148 0.85661 0.0
C1009 C 0.46183 0.01933 0.83834 0.0
C1010 C 0.45194 0.01175 0.78972 0.0
C1011 C 0.4555 0.02671 0.78951 0.0
C1012 C 0.44902 0.03166 0.7753 0.0
C1013 C 0.43861 0.0217 0.76136 0.0
C1014 C 0.43526 0.00683 0.76137 0.0
C1015 C 0.44196 1.00195 0.77535 0.0
C1016 C 0.47177 0.00794 0.80342 0.0
C1017 C 0.47357 0.99547 0.8038 0.0
C1018 C 0.48776 0.99705 0.80289 0.0
C1019 C 0.50059 0.01125 0.80193 0.0
C1020 C 0.49869 0.02374 0.8011 0.0
C1021 C 0.48449 0.0221 0.80155 0.0
C1022 C 0.56378 0.0176 0.83042 0.0
C1023 C 0.56269 0.00361 0.83226 0.0
C1024 C 0.56746 0.99983 0.8498 0.0
C1025 C 0.5733 0.00987 0.866 0.0
C1026 C 0.57376 0.0236 0.86441 0.0
C1027 C 0.5691 0.02742 0.84677 0.0
C1028 C 0.56921 0.02215 0.7949 0.0
C1029 C 0.58349 0.03434 0.79186 0.0
C1030 C 0.59326 0.0335 0.77821 0.0
C1031 C 0.58896 0.02034 0.76739 0.0
C1032 C 0.57433 0.00837 0.76962 0.0
C1033 C 0.5645 0.00929 0.78319 0.0
C1034 C 0.5453 0.0184 0.80761 0.0
C1035 C 0.53311 0.00568 0.816 0.0
C1036 C 0.51863 0.0032 0.8138 0.0
C1037 C 0.51587 0.01313 0.80273 0.0
C1038 C 0.52802 0.02532 0.79333 0.0
C1039 C 0.54251 0.02797 0.79594 0.0
H1040 H 0.99678 0.56617 0.82529 0.0
N1041 N 0.01783 0.56282 0.80507 0.0
H1042 H 1.00056 0.5803 0.85638 0.0
H1043 H 0.04171 0.57447 0.82875 0.0
H1044 H 0.04553 0.58834 0.86012 0.0
H1045 H 0.03114 0.59095 0.79297 0.0
H1046 H 0.02217 0.60238 0.76943 0.0
H1047 H 0.99233 0.54817 0.78184 0.0
H1048 H 0.98413 0.55911 0.75632 0.0
H1049 H 0.9948 0.54079 0.82684 0.0
H1050 H 0.02851 0.54904 0.78276 0.0
H1051 H 0.98789 0.51483 0.82829 0.0
H1052 H 0.02084 0.52267 0.78273 0.0
H1053 H 0.9715 0.43042 0.83538 0.0
H1054 H 0.97714 0.42235 0.86731 0.0
H1055 H 0.01943 0.46307 0.86989 0.0
H1056 H 0.01413 0.47084 0.83784 0.0
H1057 H 0.01294 0.45333 0.80375 0.0
H1058 H 0.01372 0.43739 0.77712 0.0
H1059 H 0.96814 0.42337 0.7617 0.0
H1060 H 0.96755 0.43939 0.78823 0.0
H1061 H 0.97054 0.46619 0.81851 0.0
H1062 H 0.97645 0.49186 0.81388 0.0
H1063 H 0.02206 0.50445 0.80043 0.0
N1064 N 0.98862 0.45521 0.81495 0.0
H1065 H 0.01558 0.47856 0.80346 0.0
C1066 C 0.01906 0.56939 0.82467 0.0
C1067 C 0.00737 0.57081 0.83299 0.0
C1068 C 0.00954 0.57885 0.8508 0.0
C1069 C 0.02341 0.5856 0.86063 0.0
C1070 C 0.03481 0.58352 0.85273 0.0
C1071 C 0.03263 0.57552 0.83493 0.0
C1072 C 0.01251 0.56873 0.78941 0.0
C1073 C 0.02082 0.58395 0.78504 0.0
C1074 C 0.0157 0.59046 0.77121 0.0
C1075 C 1.00232 0.58181 0.76054 0.0
C1076 C 0.99425 0.56637 0.76441 0.0
C1077 C 0.9991 0.55996 0.77894 0.0
C1078 C 0.0125 0.54702 0.80501 0.0
C1079 C 1.00066 0.537 0.81729 0.0
C1080 C 0.99655 0.52198 0.81788 0.0
C1081 C 0.00383 0.51645 0.80574 0.0
C1082 C 0.0152 0.52644 0.79277 0.0
C1083 C 0.01953 0.54154 0.79256 0.0
C1084 C 0.99218 0.45132 0.83424 0.0
C1085 C 0.98197 0.43761 0.84287 0.0
C1086 C 0.98523 0.43298 0.86097 0.0
C1087 C 0.99869 0.44213 0.87099 0.0
C1088 C 0.00892 0.45588 0.86247 0.0
C1089 C 0.00582 0.46036 0.84412 0.0
C1090 C 0.99012 0.44748 0.79793 0.0
C1091 C 0.00322 0.44701 0.79439 0.0
C1092 C 0.00361 0.43782 0.77928 0.0
C1093 C 0.99096 0.42906 0.76735 0.0
C1094 C 0.97812 0.43008 0.77044 0.0
C1095 C 0.97773 0.43919 0.7856 0.0
C1096 C 0.99262 0.47049 0.81168 0.0
C1097 C 0.98177 0.47454 0.81441 0.0
C1098 C 0.98526 0.48929 0.81194 0.0
C1099 C 0.99984 0.50048 0.80704 0.0
C1100 C 0.01066 0.49627 0.80394 0.0
C1101 C 0.00704 0.48142 0.80593 0.0
H1102 H 0.47132 0.44626 0.82992 0.0
N1103 N 0.46458 0.46425 0.80793 0.0
H1104 H 0.46298 0.4372 0.86398 0.0
H1105 H 0.44718 0.46992 0.83134 0.0
H1106 H 0.43869 0.46084 0.8657 0.0
H1107 H 0.44589 0.46685 0.78337 0.0
H1108 H 0.42865 0.4484 0.75942 0.0
H1109 H 0.46497 0.43934 0.79594 0.0
H1110 H 0.44718 0.42031 0.77286 0.0
H1111 H 0.49045 0.46356 0.81047 0.0
H1112 H 0.47237 0.49195 0.79797 0.0
H1113 H 0.51555 0.485 0.81014 0.0
H1114 H 0.49747 0.51341 0.79584 0.0
H1115 H 0.58205 0.54923 0.84557 0.0
H1116 H 0.5913 0.56581 0.87467 0.0
H1117 H 0.56962 0.58923 0.85226 0.0
H1118 H 0.56169 0.57353 0.82263 0.0
H1119 H 0.55984 0.56649 0.78732 0.0
H1120 H 0.57633 0.58544 0.76314 0.0
H1121 H 0.61135 0.57619 0.77823 0.0
H1122 H 0.59474 0.55726 0.8021 0.0
H1123 H 0.5606 0.52504 0.79845 0.0
H1124 H 0.53573 0.50366 0.79332 0.0
H1125 H 0.51662 0.52929 0.81642 0.0
N1126 N 0.56795 0.55151 0.81355 0.0
H1127 H 0.54119 0.55061 0.82005 0.0
C1128 C 0.45999 0.45893 0.82815 0.0
C1129 C 0.46433 0.44963 0.8376 0.0
C1130 C 0.45955 0.44446 0.85714 0.0
C1131 C 0.45023 0.44837 0.8676 0.0
C1132 C 0.44578 0.45756 0.85801 0.0
C1133 C 0.45067 0.46282 0.83848 0.0
C1134 C 0.45649 0.45436 0.79163 0.0
C1135 C 0.44645 0.45687 0.78073 0.0
C1136 C 0.43651 0.44622 0.76722 0.0
C1137 C 0.43623 0.43264 0.76457 0.0
C1138 C 0.44704 0.43059 0.77452 0.0
C1139 C 0.45716 0.44141 0.78787 0.0
C1140 C 0.47953 0.47625 0.80472 0.0
C1141 C 0.4919 0.47441 0.80738 0.0
C1142 C 0.50633 0.48675 0.8069 0.0
C1143 C 0.50871 0.50115 0.80327 0.0
C1144 C 0.49621 0.50268 0.79934 0.0
C1145 C 0.48182 0.49039 0.80026 0.0
C1146 C 0.57094 0.55986 0.83206 0.0
C1147 C 0.57912 0.5578 0.8472 0.0
C1148 C 0.58435 0.56731 0.86389 0.0
C1149 C 0.58133 0.57903 0.86593 0.0
C1150 C 0.57251 0.5806 0.85112 0.0
C1151 C 0.56763 0.57134 0.83424 0.0
C1152 C 0.57613 0.5605 0.79653 0.0
C1153 C 0.57095 0.56834 0.78505 0.0
C1154 C 0.58044 0.57924 0.77135 0.0
C1155 C 0.59523 0.58246 0.76886 0.0
C1156 C 0.60002 0.57394 0.77954 0.0
C1157 C 0.59055 0.56311 0.79322 0.0
C1158 C 0.55297 0.53946 0.80991 0.0
C1159 C 0.55099 0.52604 0.80216 0.0
C1160 C 0.53672 0.51377 0.79943 0.0
C1161 C 0.52398 0.51454 0.80462 0.0
C1162 C 0.52602 0.52817 0.81191 0.0
C1163 C 0.54028 0.5405 0.81429 0.0
H1164 H 0.72562 0.91391 0.52381 0.0
N1165 N 0.70633 0.90458 0.5541 0.0
H1166 H 0.72222 0.92079 0.48982 0.0
H1167 H 0.68099 0.90304 0.53919 0.0
H1168 H 0.67723 0.90926 0.50512 0.0
H1169 H 0.68142 0.89645 0.57738 0.0
H1170 H 0.67749 0.91255 0.59999 0.0
H1171 H 0.72611 0.93188 0.56573 0.0
H1172 H 0.72208 0.94835 0.58777 0.0
H1173 H 0.72371 0.89391 0.56536 0.0
H1174 H 0.67827 0.88023 0.55031 0.0
H1175 H 0.717 0.86777 0.56852 0.0
H1176 H 0.67154 0.85429 0.5533 0.0
H1177 H 0.69777 0.7956 0.53808 0.0
H1178 H 0.69378 0.78112 0.50744 0.0
H1179 H 0.64738 0.76877 0.50776 0.0
H1180 H 0.65147 0.78309 0.53877 0.0
H1181 H 0.65895 0.77289 0.58191 0.0
H1182 H 0.66662 0.7598 0.60536 0.0
H1183 H 0.71256 0.79366 0.59678 0.0
H1184 H 0.70482 0.80665 0.5734 0.0
H1185 H 0.70214 0.8201 0.54522 0.0
H1186 H 0.70938 0.84637 0.5457 0.0
H1187 H 0.66896 0.83544 0.57773 0.0
N1188 N 0.67628 0.79691 0.56038 0.0
H1189 H 0.66176 0.80911 0.57702 0.0
C1190 C 0.70361 0.90792 0.534 0.0
C1191 C 0.71503 0.91284 0.51973 0.0
C1192 C 0.713 0.91666 0.50028 0.0
C1193 C 0.69942 0.91554 0.49464 0.0
C1194 C 0.6879 0.91044 0.50897 0.0
C1195 C 0.68998 0.90672 0.52845 0.0
C1196 C 0.70416 0.91293 0.56981 0.0
C1197 C 0.6905 0.90761 0.57985 0.0
C1198 C 0.6882 0.91694 0.5927 0.0
C1199 C 0.6994 0.93186 0.59558 0.0
C1200 C 0.71325 0.93692 0.58617 0.0
C1201 C 0.71557 0.92754 0.57349 0.0
C1202 C 0.70156 0.88913 0.55777 0.0
C1203 C 0.71226 0.88528 0.56301 0.0
C1204 C 0.70843 0.87036 0.56463 0.0
C1205 C 0.69374 0.85892 0.56111 0.0
C1206 C 0.68292 0.8628 0.55635 0.0
C1207 C 0.68678 0.87772 0.55461 0.0
C1208 C 0.67485 0.79039 0.54075 0.0
C1209 C 0.68681 0.79003 0.53138 0.0
C1210 C 0.6845 0.78173 0.51379 0.0
C1211 C 0.67021 0.77364 0.50523 0.0
C1212 C 0.65846 0.77464 0.51415 0.0
C1213 C 0.66079 0.78292 0.53173 0.0
C1214 C 0.68123 0.79077 0.57602 0.0
C1215 C 0.67065 0.7776 0.5854 0.0
C1216 C 0.67506 0.77009 0.59861 0.0
C1217 C 0.6902 0.77565 0.6028 0.0
C1218 C 0.7008 0.78916 0.59396 0.0
C1219 C 0.69638 0.79661 0.58058 0.0
C1220 C 0.68134 0.8126 0.56111 0.0
C1221 C 0.69488 0.82333 0.55249 0.0
C1222 C 0.69905 0.83839 0.55286 0.0
C1223 C 0.68974 0.84302 0.56173 0.0
C1224 C 0.67631 0.83225 0.57057 0.0
C1225 C 0.67221 0.81723 0.57028 0.0
H1226 H 0.24936 0.87838 0.54796 0.0
N1227 N 0.23382 0.88749 0.56934 0.0
H1228 H 0.26334 0.88937 0.51699 0.0
H1229 H 0.23259 0.90874 0.54656 0.0
H1230 H 0.24707 0.92034 0.51623 0.0
H1231 H 0.2214 0.90397 0.58148 0.0
H1232 H 0.2328 0.92538 0.60444 0.0
H1233 H 0.25795 0.89634 0.59164 0.0
H1234 H 0.26935 0.91754 0.61471 0.0
H1235 H 0.22573 0.86256 0.58934 0.0
H1236 H 0.2084 0.88428 0.55216 0.0
H1237 H 0.20126 0.84007 0.59003 0.0
H1238 H 0.1839 0.86161 0.55207 0.0
H1239 H 0.132 0.76916 0.5436 0.0
H1240 H 0.12187 0.76059 0.5098 0.0
H1241 H 0.11742 0.79947 0.50226 0.0
H1242 H 0.12816 0.80817 0.53553 0.0
H1243 H 0.1143 0.80124 0.56608 0.0
H1244 H 0.09114 0.78773 0.58485 0.0
H1245 H 0.10622 0.75935 0.61011 0.0
H1246 H 0.12956 0.77306 0.59122 0.0
H1247 H 0.16288 0.79741 0.56401 0.0
H1248 H 0.18633 0.82084 0.56689 0.0
H1249 H 0.16207 0.84444 0.5713 0.0
N1250 N 0.13564 0.79322 0.56268 0.0
H1251 H 0.13867 0.82091 0.5679 0.0
C1252 C 0.24008 0.89279 0.54965 0.0
C1253 C 0.2486 0.88733 0.5408 0.0
C1254 C 0.25672 0.89377 0.52325 0.0
C1255 C 0.25662 0.90598 0.51426 0.0
C1256 C 0.2474 0.91093 0.52261 0.0
C1257 C 0.23915 0.90435 0.54007 0.0
C1258 C 0.23888 0.89859 0.58493 0.0
C1259 C 0.23171 0.90672 0.58899 0.0
C1260 C 0.23824 0.91894 0.60211 0.0
C1261 C 0.25207 0.92325 0.61121 0.0
C1262 C 0.25883 0.91466 0.6077 0.0
C1263 C 0.25228 0.90248 0.59471 0.0
C1264 C 0.21892 0.87498 0.57056 0.0
C1265 C 0.21657 0.86244 0.58138 0.0
C1266 C 0.2026 0.84957 0.5816 0.0
C1267 C 0.1906 0.84889 0.57083 0.0
C1268 C 0.19284 0.86173 0.56061 0.0
C1269 C 0.20687 0.87469 0.56052 0.0
C1270 C 0.13086 0.78926 0.54209 0.0
C1271 C 0.12903 0.77589 0.53445 0.0
C1272 C 0.12308 0.77095 0.51523 0.0
C1273 C 0.1187 0.77926 0.50327 0.0
C1274 C 0.12083 0.79284 0.51087 0.0
C1275 C 0.1269 0.79782 0.53002 0.0
C1276 C 0.12372 0.78813 0.57717 0.0
C1277 C 0.11294 0.79249 0.57613 0.0
C1278 C 0.0996 0.78466 0.58681 0.0
C1279 C 0.09678 0.77235 0.59875 0.0
C1280 C 0.1081 0.76883 0.60114 0.0
C1281 C 0.12142 0.77664 0.59036 0.0
C1282 C 0.14902 0.80731 0.5659 0.0
C1283 C 0.16264 0.80763 0.56581 0.0
C1284 C 0.17603 0.82106 0.56755 0.0
C1285 C 0.17615 0.8346 0.56948 0.0
C1286 C 0.16243 0.83427 0.56968 0.0
C1287 C 0.14898 0.82076 0.5679 0.0
H1288 H 0.22596 0.32205 0.54627 0.0
N1289 N 0.23038 0.34861 0.56046 0.0
H1290 H 0.23403 0.31763 0.51386 0.0
H1291 H 0.24222 0.36775 0.53001 0.0
H1292 H 0.2501 0.36338 0.49713 0.0
H1293 H 0.25877 0.35497 0.56121 0.0
H1294 H 0.2709 0.34723 0.58527 0.0
H1295 H 0.21883 0.33467 0.5975 0.0
H1296 H 0.23132 0.32759 0.62222 0.0
H1297 H 0.2058 0.32081 0.56451 0.0
H1298 H 0.22009 0.36735 0.55979 0.0
H1299 H 0.17991 0.31473 0.56459 0.0
H1300 H 0.19422 0.36143 0.55849 0.0
H1301 H 0.10293 0.30105 0.5305 0.0
H1302 H 0.09435 0.3032 0.49695 0.0
H1303 H 0.12527 0.35046 0.49755 0.0
H1304 H 0.13409 0.34812 0.53099 0.0
H1305 H 0.12333 0.34823 0.56239 0.0
H1306 H 0.10807 0.35111 0.5878 0.0
H1307 H 0.09099 0.3056 0.60649 0.0
H1308 H 0.10613 0.30273 0.58049 0.0
H1309 H 0.1355 0.30671 0.54118 0.0
H1310 H 0.16137 0.31289 0.5439 0.0
H1311 H 0.17187 0.35374 0.57454 0.0
N1312 N 0.1234 0.32259 0.55315 0.0
H1313 H 0.14623 0.34791 0.57036 0.0
C1314 C 0.23346 0.34526 0.54051 0.0
C1315 C 0.23093 0.33105 0.53548 0.0
C1316 C 0.2356 0.32856 0.5169 0.0
C1317 C 0.24278 0.34017 0.50286 0.0
C1318 C 0.24483 0.35425 0.5077 0.0
C1319 C 0.24021 0.35674 0.52635 0.0
C1320 C 0.23744 0.34467 0.57644 0.0
C1321 C 0.25251 0.34879 0.57431 0.0
C1322 C 0.2596 0.34454 0.5884 0.0
C1323 C 0.2521 0.33656 0.60575 0.0
C1324 C 0.23733 0.33328 0.60873 0.0
C1325 C 0.2301 0.33734 0.59437 0.0
C1326 C 0.21494 0.34462 0.56253 0.0
C1327 C 0.20336 0.32975 0.56355 0.0
C1328 C 0.18848 0.32629 0.56335 0.0
C1329 C 0.18478 0.33755 0.5614 0.0
C1330 C 0.19646 0.35242 0.56044 0.0
C1331 C 0.21132 0.35586 0.5611 0.0
C1332 C 0.11903 0.32437 0.53323 0.0
C1333 C 0.10789 0.31183 0.52331 0.0
C1334 C 0.10304 0.31309 0.50419 0.0
C1335 C 0.10914 0.327 0.49468 0.0
C1336 C 0.1203 0.33963 0.50464 0.0
C1337 C 0.12533 0.33831 0.5237 0.0
C1338 C 0.11586 0.3252 0.56951 0.0
C1339 C 0.11645 0.3389 0.57204 0.0
C1340 C 0.10774 0.34056 0.58671 0.0
C1341 C 0.09824 0.32857 0.59919 0.0
C1342 C 0.09801 0.315 0.59698 0.0
C1343 C 0.10674 0.31337 0.58228 0.0
C1344 C 0.13881 0.32669 0.55569 0.0
C1345 C 0.14343 0.31701 0.54846 0.0
C1346 C 0.15825 0.32052 0.55025 0.0
C1347 C 0.16887 0.33379 0.55967 0.0
C1348 C 0.16417 0.34351 0.56696 0.0
C1349 C 0.14936 0.3401 0.56478 0.0
H1350 H 0.02174 0.41299 0.06757 0.0
H1351 H 0.98779 0.36878 0.086 0.0
H1352 H 0.98571 0.3789 0.11888 0.0
H1353 H 0.03995 0.42493 0.11485 0.0
H1354 H 0.04366 0.44374 0.11227 0.0
H1355 H 0.04214 0.43302 0.09019 0.0
H1356 H 0.02152 0.43759 0.0761 0.0
H1357 H 0.023 0.44837 0.09811 0.0
H1358 H 0.00527 0.43272 0.09116 0.0
H1359 H 0.98835 0.39393 0.15036 0.0
H1360 H 0.99484 0.41245 0.17737 0.0
H1361 H 0.02617 0.44699 0.13725 0.0
C1362 C 0.01382 0.40542 0.07849 0.0
C1363 C 0.00494 0.39008 0.07429 0.0
C1364 C 0.99468 0.38057 0.08893 0.0
C1365 C 0.99344 0.38622 0.10762 0.0
C1366 C 1.00245 0.40141 0.11131 0.0
C1367 C 0.01236 0.41088 0.09707 0.0
C1368 C 0.02082 0.42674 0.10467 0.0
C1369 C 0.03764 0.43243 0.10555 0.0
C1370 C 0.01745 0.43695 0.09174 0.0
C1371 C 0.01427 0.42473 0.12556 0.0
C1372 C 0.0037 0.41006 0.12913 0.0
C1373 C 0.99647 0.40547 0.14762 0.0
C1374 C 1.00018 0.41614 0.16285 0.0
C1375 C 0.01097 0.43129 0.15952 0.0
C1376 C 0.01798 0.43554 0.14048 0.0
H1377 H 0.61162 0.61761 0.05829 0.0
H1378 H 0.65571 0.62926 0.07931 0.0
H1379 H 0.64485 0.61578 0.11109 0.0
H1380 H 0.59775 0.6219 0.10462 0.0
H1381 H 0.57924 0.60631 0.10124 0.0
H1382 H 0.59031 0.61602 0.07962 0.0
H1383 H 0.58707 0.59136 0.06543 0.0
H1384 H 0.5759 0.58154 0.08697 0.0
H1385 H 0.59212 0.58029 0.08079 0.0
H1386 H 0.62949 0.60301 0.14161 0.0
H1387 H 0.61073 0.59084 0.16814 0.0
H1388 H 0.57626 0.58598 0.12652 0.0
C1389 C 0.61897 0.61717 0.06948 0.0
C1390 C 0.63452 0.62448 0.06636 0.0
C1391 C 0.64377 0.62369 0.08137 0.0
C1392 C 0.6377 0.61608 0.09947 0.0
C1393 C 0.62235 0.60917 0.10221 0.0
C1394 C 0.61309 0.6095 0.08755 0.0
C1395 C 0.59701 0.60146 0.09446 0.0
C1396 C 0.59072 0.61206 0.09502 0.0
C1397 C 0.58746 0.58785 0.08112 0.0
C1398 C 0.59873 0.59686 0.11548 0.0
C1399 C 0.61343 0.6014 0.11962 0.0
C1400 C 0.6179 0.59913 0.1384 0.0
C1401 C 0.60707 0.59206 0.15337 0.0
C1402 C 0.59185 0.58716 0.14952 0.0
C1403 C 0.58773 0.58957 0.13015 0.0
H1404 H 0.40912 0.0286 0.0835 0.0
H1405 H 0.40031 0.98817 0.05269 0.0
H1406 H 0.4144 0.98356 0.07875 0.0
H1407 H 0.44673 0.03954 0.09998 0.0
H1408 H 0.44471 0.04643 0.12398 0.0
H1409 H 0.43441 0.04694 0.10246 0.0
H1410 H 0.40976 0.03205 0.12229 0.0
H1411 H 0.41998 0.03151 0.14386 0.0
H1412 H 0.40524 0.01446 0.13339 0.0
H1413 H 0.42852 0.98271 0.10868 0.0
H1414 H 0.44185 0.98575 0.14071 0.0
H1415 H 0.44162 0.0267 0.15229 0.0
C1416 C 0.41026 0.01885 0.08218 0.0
C1417 C 0.40363 0.00875 0.06604 0.0
C1418 C 0.4053 0.99606 0.0649 0.0
C1419 C 0.4133 0.99335 0.07962 0.0
C1420 C 0.41963 0.00345 0.09538 0.0
C1421 C 0.41824 0.01596 0.09677 0.0
C1422 C 0.4258 0.0248 0.11559 0.0
C1423 C 0.43868 0.04035 0.11017 0.0
C1424 C 0.41452 0.02575 0.12961 0.0
C1425 C 0.43151 0.01522 0.12462 0.0
C1426 C 0.42785 0.00299 0.11268 0.0
C1427 C 0.43151 0.99228 0.11813 0.0
C1428 C 0.43901 0.99407 0.13638 0.0
C1429 C 0.4428 0.00646 0.14896 0.0
C1430 C 0.43909 0.01723 0.14284 0.0
H1431 H 0.39058 0.99463 0.96124 0.0
H1432 H 0.41385 0.04225 0.97166 0.0
H1433 H 0.42826 0.04625 0.94055 0.0
H1434 H 0.4226 0.99352 0.94272 0.0
H1435 H 0.41239 0.97936 0.92413 0.0
H1436 H 0.40323 0.9801 0.94676 0.0
H1437 H 0.38316 0.98154 0.92533 0.0
H1438 H 0.39227 0.98081 0.90263 0.0
H1439 H 0.3888 0.99594 0.90663 0.0
H1440 H 0.4399 0.04536 0.90844 0.0
H1441 H 0.4492 0.03959 0.87776 0.0
H1442 H 0.42004 0.99238 0.88882 0.0
C1443 C 0.39864 0.00588 0.95683 0.0
C1444 C 0.40106 0.01815 0.9688 0.0
C1445 C 0.41183 0.0327 0.96274 0.0
C1446 C 0.42005 0.0351 0.94506 0.0
C1447 C 0.4175 0.02282 0.93366 0.0
C1448 C 0.40716 0.00848 0.93929 0.0
C1449 C 0.40714 0.99728 0.9246 0.0
C1450 C 0.41161 0.98696 0.93519 0.0
C1451 C 0.39194 0.98837 0.91418 0.0
C1452 C 0.41905 0.00761 0.90988 0.0
C1453 C 0.42475 0.02227 0.91537 0.0
C1454 C 0.43566 0.0339 0.90408 0.0
C1455 C 0.44099 0.03047 0.88674 0.0
C1456 C 0.4356 0.0155 0.88088 0.0
C1457 C 0.4244 0.00394 0.8927 0.0
H1458 H 0.00711 0.38784 0.94843 0.0
H1459 H 0.01321 0.41947 0.99529 0.0
H1460 H 0.01209 0.43618 0.9698 0.0
H1461 H 0.02773 0.41454 0.90859 0.0
H1462 H 0.01474 0.4035 0.88916 0.0
H1463 H 0.0173 0.39457 0.9108 0.0
H1464 H 0.98901 0.38138 0.91813 0.0
H1465 H 0.98637 0.39028 0.89654 0.0
H1466 H 0.98011 0.39234 0.92101 0.0
H1467 H 0.01028 0.44942 0.93942 0.0
H1468 H 0.00576 0.45741 0.90634 0.0
H1469 H 0.99882 0.41642 0.87948 0.0
C1470 C 0.00843 0.39839 0.95321 0.0
C1471 C 0.01043 0.4025 0.97373 0.0
C1472 C 0.01173 0.41619 0.97959 0.0
C1473 C 0.01116 0.42576 0.96523 0.0
C1474 C 0.00904 0.42136 0.94512 0.0
C1475 C 0.00753 0.40794 0.9391 0.0
C1476 C 0.00428 0.40544 0.91673 0.0
C1477 C 0.01676 0.40446 0.90567 0.0
C1478 C 0.98904 0.39154 0.91289 0.0
C1479 C 0.00417 0.41952 0.91117 0.0
C1480 C 0.00717 0.42865 0.92773 0.0
C1481 C 0.00788 0.44236 0.92635 0.0
C1482 C 0.00534 0.44682 0.90755 0.0
C1483 C 1.0019 0.43749 0.89051 0.0
C1484 C 1.00133 0.42368 0.89237 0.0
H1485 H 0.61945 0.60965 0.97343 0.0
H1486 H 0.62932 0.65347 0.95383 0.0
H1487 H 0.61555 0.64264 0.92221 0.0
H1488 H 0.62382 0.59683 0.92633 0.0
H1489 H 0.60873 0.57805 0.92951 0.0
H1490 H 0.61844 0.58901 0.95122 0.0
H1491 H 0.59355 0.58461 0.96631 0.0
H1492 H 0.58374 0.57353 0.94469 0.0
H1493 H 0.58183 0.58924 0.95166 0.0
H1494 H 0.60284 0.62747 0.89157 0.0
H1495 H 0.59095 0.60897 0.86469 0.0
H1496 H 0.58774 0.57455 0.90499 0.0
C1497 C 0.61854 0.61694 0.9626 0.0
C1498 C 0.62545 0.63241 0.96607 0.0
C1499 C 0.62407 0.64158 0.9515 0.0
C1500 C 0.61628 0.63553 0.9335 0.0
C1501 C 0.60981 0.62027 0.93039 0.0
C1502 C 0.61071 0.61106 0.94462 0.0
C1503 C 0.60309 0.5951 0.93732 0.0
C1504 C 0.61418 0.58942 0.93602 0.0
C1505 C 0.58976 0.58503 0.9508 0.0
C1506 C 0.59806 0.59683 0.91658 0.0
C1507 C 0.60205 0.61143 0.91291 0.0
C1508 C 0.59937 0.61594 0.89442 0.0
C1509 C 0.59246 0.60525 0.87925 0.0
C1510 C 0.58809 0.59011 0.88262 0.0
C1511 C 0.59091 0.58595 0.90171 0.0
H1512 H 0.00488 0.61377 0.96319 0.0
H1513 H 0.04836 0.65342 0.95797 0.0
H1514 H 0.05313 0.64343 0.92695 0.0
H1515 H 0.01575 0.58775 0.94543 0.0
H1516 H 0.99871 0.57649 0.93175 0.0
H1517 H 0.9987 0.58663 0.95374 0.0
H1518 H 0.9873 0.59949 0.93282 0.0
H1519 H 0.98726 0.58937 0.91077 0.0
H1520 H 0.99655 0.60938 0.91018 0.0
H1521 H 0.05322 0.62936 0.89655 0.0
H1522 H 0.0484 0.61233 0.86808 0.0
H1523 H 0.00489 0.58159 0.89281 0.0
C1524 C 0.0154 0.62033 0.95552 0.0
C1525 C 0.02626 0.63437 0.963 0.0
C1526 C 0.03988 0.64264 0.95251 0.0
C1527 C 0.0427 0.63705 0.9349 0.0
C1528 C 0.03179 0.62318 0.92793 0.0
C1529 C 0.0184 0.61493 0.93784 0.0
C1530 C 0.0085 0.60042 0.92693 0.0
C1531 C 0.00523 0.58703 0.94026 0.0
C1532 C 0.99405 0.59963 0.91975 0.0
C1533 C 0.01843 0.60185 0.90932 0.0
C1534 C 0.03183 0.61505 0.91027 0.0
C1535 C 0.0428 0.61895 0.89569 0.0
C1536 C 0.04 0.60913 0.87965 0.0
C1537 C 0.02632 0.59554 0.87825 0.0
C1538 C 0.01542 0.59191 0.89337 0.0
H1539 H 0.39148 0.40765 0.95649 0.0
H1540 H 0.42795 0.40994 0.99126 0.0
H1541 H 0.44547 0.4245 0.96419 0.0
H1542 H 0.4036 0.4023 0.9094 0.0
H1543 H 0.39793 0.41343 0.89528 0.0
H1544 H 0.38836 0.40445 0.91817 0.0
H1545 H 0.39377 0.4298 0.93269 0.0
H1546 H 0.40332 0.43887 0.90978 0.0
H1547 H 0.41268 0.44503 0.93368 0.0
H1548 H 0.45876 0.43709 0.93261 0.0
H1549 H 0.46707 0.44732 0.89849 0.0
H1550 H 0.42213 0.4368 0.88369 0.0
C1551 C 0.4032 0.41149 0.95855 0.0
C1552 C 0.40838 0.40775 0.97604 0.0
C1553 C 0.42374 0.41272 0.97803 0.0
C1554 C 0.4338 0.42102 0.96275 0.0
C1555 C 0.42833 0.42428 0.94554 0.0
C1556 C 0.41341 0.41975 0.94335 0.0
C1557 C 0.41038 0.42407 0.92282 0.0
C1558 C 0.39942 0.41024 0.91071 0.0
C1559 C 0.4047 0.4351 0.92487 0.0
C1560 C 0.42585 0.43146 0.91372 0.0
C1561 C 0.43604 0.43154 0.92716 0.0
C1562 C 0.45091 0.4372 0.92199 0.0
C1563 C 0.4555 0.4429 0.90254 0.0
C1564 C 0.44526 0.44286 0.88842 0.0
C1565 C 0.43027 0.43718 0.89423 0.0
H1566 H 0.63114 0.02724 0.9554 0.0
H1567 H 0.60699 0.98033 0.9704 0.0
H1568 H 0.58939 0.97579 0.94245 0.0
H1569 H 0.59985 0.03085 0.94259 0.0
H1570 H 0.60904 0.04351 0.92203 0.0
H1571 H 0.61976 0.04295 0.94298 0.0
H1572 H 0.63619 0.03787 0.91862 0.0
H1573 H 0.62562 0.03855 0.89757 0.0
H1574 H 0.6275 0.02241 0.90139 0.0
H1575 H 0.57391 0.97676 0.91348 0.0
H1576 H 0.56274 0.98275 0.88476 0.0
H1577 H 0.598 0.0289 0.88814 0.0
C1578 C 0.62218 0.01599 0.95278 0.0
C1579 C 0.62038 0.00413 0.96508 0.0
C1580 C 0.60857 0.98957 0.96111 0.0
C1581 C 0.59851 0.9869 0.94533 0.0
C1582 C 0.60052 0.99891 0.93361 0.0
C1583 C 0.61217 0.01314 0.93705 0.0
C1584 C 0.61203 0.02411 0.92222 0.0
C1585 C 0.61005 0.03606 0.93311 0.0
C1586 C 0.62617 0.03114 0.90917 0.0
C1587 C 0.5984 0.01388 0.90996 0.0
C1588 C 0.59187 0.9994 0.91678 0.0
C1589 C 0.57902 0.98804 0.90791 0.0
C1590 C 0.5728 0.99155 0.89152 0.0
C1591 C 0.57948 0.0063 0.88405 0.0
C1592 C 0.59244 0.01755 0.89356 0.0
H1593 H 0.63727 0.01641 0.08662 0.0
H1594 H 0.61018 0.02218 0.04178 0.0
H1595 H 0.59302 0.02082 0.0684 0.0
H1596 H 0.60793 0.99016 0.11617 0.0
H1597 H 0.61696 0.99715 0.14011 0.0
H1598 H 0.62795 0.99993 0.11787 0.0
H1599 H 0.6422 0.02835 0.12413 0.0
H1600 H 0.6313 0.02565 0.14649 0.0
H1601 H 0.63194 0.03799 0.12696 0.0
H1602 H 0.57735 0.0161 0.09907 0.0
H1603 H 0.5651 0.01004 0.13244 0.0
H1604 H 0.60266 0.00837 0.15786 0.0
C1605 C 0.62789 0.01769 0.08248 0.0
C1606 C 0.62508 0.01944 0.06212 0.0
C1607 C 0.6126 0.02089 0.05727 0.0
C1608 C 0.60277 0.02013 0.07229 0.0
C1609 C 0.60565 0.01807 0.09215 0.0
C1610 C 0.618 0.01706 0.09734 0.0
C1611 C 0.61817 0.0143 0.11975 0.0
C1612 C 0.61772 0.99951 0.12369 0.0
C1613 C 0.63171 0.02735 0.12993 0.0
C1614 C 0.6038 0.01354 0.1262 0.0
C1615 C 0.59677 0.01575 0.11002 0.0
C1616 C 0.58287 0.0146 0.11192 0.0
C1617 C 0.57597 0.0111 0.13086 0.0
C1618 C 0.58303 0.00891 0.14765 0.0
C1619 C 0.59718 0.01028 0.1453 0.0
H1620 H 1.0028 0.62221 0.07855 0.0
H1621 H 0.04309 0.62822 0.0502 0.0
H1622 H 0.04623 0.61406 0.07765 0.0
H1623 H 0.01551 0.62603 0.12945 0.0
H1624 H 0.99783 0.612 0.13936 0.0
H1625 H 0.99849 0.62231 0.11722 0.0
H1626 H 0.98311 0.59767 0.09755 0.0
H1627 H 0.98242 0.58729 0.11964 0.0
H1628 H 0.98961 0.58456 0.09634 0.0
H1629 H 0.04559 0.6001 0.10865 0.0
H1630 H 0.04085 0.58668 0.14095 0.0
H1631 H 1.00078 0.58925 0.14915 0.0
C1632 C 0.01223 0.62048 0.07809 0.0
C1633 C 0.02271 0.62632 0.06223 0.0
C1634 C 0.03492 0.62384 0.06217 0.0
C1635 C 0.0368 0.61581 0.0777 0.0
C1636 C 0.02634 0.61025 0.09315 0.0
C1637 C 0.01426 0.61241 0.09346 0.0
C1638 C 0.00473 0.60534 0.11197 0.0
C1639 C 0.00411 0.61713 0.12528 0.0
C1640 C 0.98904 0.59298 0.10601 0.0
C1641 C 0.01343 0.59901 0.12208 0.0
C1642 C 0.02586 0.60198 0.11096 0.0
C1643 C 0.03586 0.59764 0.11745 0.0
C1644 C 0.03311 0.59009 0.13585 0.0
C1645 C 0.02044 0.5869 0.14753 0.0
C1646 C 0.01044 0.59136 0.14041 0.0
H1647 H 0.39612 0.40691 0.0803 0.0
H1648 H 0.41264 0.37668 0.06895 0.0
H1649 H 0.42913 0.38671 0.09869 0.0
H1650 H 0.4303 0.43787 0.09605 0.0
H1651 H 0.42209 0.44363 0.1154 0.0
H1652 H 0.41134 0.43382 0.09358 0.0
H1653 H 0.39096 0.41383 0.11654 0.0
H1654 H 0.40157 0.42366 0.13844 0.0
H1655 H 0.39601 0.40438 0.13491 0.0
H1656 H 0.44476 0.40107 0.12877 0.0
H1657 H 0.45707 0.41738 0.15795 0.0
H1658 H 0.42922 0.4372 0.15043 0.0
C1659 C 0.40314 0.40233 0.08414 0.0
C1660 C 0.40314 0.39104 0.07232 0.0
C1661 C 0.41244 0.3853 0.07786 0.0
C1662 C 0.42187 0.39096 0.09467 0.0
C1663 C 0.42174 0.40224 0.10587 0.0
C1664 C 0.41248 0.40773 0.10095 0.0
C1665 C 0.41439 0.4198 0.11547 0.0
C1666 C 0.41985 0.43466 0.10446 0.0
C1667 C 0.39987 0.41513 0.12703 0.0
C1668 C 0.42629 0.42037 0.12919 0.0
C1669 C 0.43043 0.41021 0.12339 0.0
C1670 C 0.44148 0.40895 0.13357 0.0
C1671 C 0.44836 0.41823 0.15023 0.0
C1672 C 0.44413 0.4286 0.15667 0.0
C1673 C 0.43293 0.4296 0.14586 0.0
H1674 H 0.68868 0.74632 0.40216 0.0
H1675 H 0.64762 0.7044 0.41028 0.0
H1676 H 0.64253 0.71409 0.44144 0.0
H1677 H 0.69879 0.75275 0.45437 0.0
H1678 H 0.70633 0.77255 0.45287 0.0
H1679 H 0.70658 0.76241 0.43103 0.0
H1680 H 0.69245 0.77268 0.4106 0.0
H1681 H 0.69213 0.78284 0.43238 0.0
H1682 H 0.67499 0.77002 0.41994 0.0
H1683 H 0.64204 0.72828 0.47181 0.0
H1684 H 0.64642 0.74564 0.49973 0.0
H1685 H 0.68774 0.77846 0.47168 0.0
C1686 C 0.6786 0.73918 0.41047 0.0
C1687 C 0.66852 0.7246 0.4038 0.0
C1688 C 0.65549 0.7156 0.41512 0.0
C1689 C 0.6525 0.72102 0.43281 0.0
C1690 C 0.66265 0.73545 0.43896 0.0
C1691 C 0.67546 0.7444 0.42817 0.0
C1692 C 0.68465 0.75941 0.4382 0.0
C1693 C 0.69999 0.76192 0.44449 0.0
C1694 C 0.68614 0.77198 0.42446 0.0
C1695 C 0.67505 0.75749 0.45638 0.0
C1696 C 0.66238 0.74361 0.45648 0.0
C1697 C 0.65187 0.73921 0.47183 0.0
C1698 C 0.65442 0.74921 0.48756 0.0
C1699 C 0.66738 0.76348 0.48788 0.0
C1700 C 0.67777 0.76762 0.47197 0.0
H1701 H 0.2828 0.95345 0.41219 0.0
H1702 H 0.32492 0.9546 0.41866 0.0
H1703 H 0.31584 0.93996 0.45003 0.0
H1704 H 0.27659 0.95654 0.46501 0.0
H1705 H 0.25681 0.94391 0.46357 0.0
H1706 H 0.26674 0.95474 0.44187 0.0
H1707 H 0.25675 0.93063 0.42078 0.0
H1708 H 0.24682 0.91973 0.44243 0.0
H1709 H 0.25981 0.91596 0.42947 0.0
H1710 H 0.30226 0.92536 0.48072 0.0
H1711 H 0.28515 0.91166 0.50851 0.0
H1712 H 0.25133 0.91898 0.4813 0.0
C1713 C 0.29015 0.9507 0.42027 0.0
C1714 C 0.3046 0.95522 0.41305 0.0
C1715 C 0.31382 0.95128 0.42395 0.0
C1716 C 0.30876 0.94296 0.44177 0.0
C1717 C 0.29442 0.93861 0.44842 0.0
C1718 C 0.28523 0.94231 0.438 0.0
C1719 C 0.27021 0.93603 0.44823 0.0
C1720 C 0.26743 0.94855 0.45508 0.0
C1721 C 0.25766 0.92492 0.4344 0.0
C1722 C 0.27242 0.92825 0.46607 0.0
C1723 C 0.28647 0.92991 0.46589 0.0
C1724 C 0.29118 0.92388 0.48092 0.0
C1725 C 0.28129 0.91598 0.49657 0.0
C1726 C 0.26676 0.91404 0.49709 0.0
C1727 C 0.26235 0.92029 0.48151 0.0
H1728 H 0.07114 0.35368 0.41242 0.0
H1729 H 0.06982 0.31973 0.37302 0.0
H1730 H 0.08345 0.31391 0.39838 0.0
H1731 H 0.10835 0.36615 0.43343 0.0
H1732 H 0.10326 0.36894 0.45832 0.0
H1733 H 0.09421 0.37119 0.43656 0.0
H1734 H 0.06852 0.35194 0.45116 0.0
H1735 H 0.07749 0.34962 0.47293 0.0
H1736 H 0.06509 0.3337 0.45795 0.0
H1737 H 0.09562 0.31049 0.42856 0.0
H1738 H 0.10601 0.31 0.46181 0.0
H1739 H 0.09998 0.3463 0.48191 0.0
C1740 C 0.07391 0.34517 0.40905 0.0
C1741 C 0.06945 0.33718 0.39071 0.0
C1742 C 0.07313 0.32601 0.38694 0.0
C1743 C 0.0809 0.32263 0.40124 0.0
C1744 C 0.08498 0.33056 0.41924 0.0
C1745 C 0.0817 0.34164 0.42321 0.0
C1746 C 0.0869 0.34804 0.44414 0.0
C1747 C 0.09889 0.36456 0.44303 0.0
C1748 C 0.07371 0.34568 0.45732 0.0
C1749 C 0.09339 0.33864 0.45139 0.0
C1750 C 0.09219 0.32867 0.43672 0.0
C1751 C 0.09675 0.31834 0.44011 0.0
C1752 C 0.10257 0.31809 0.45904 0.0
C1753 C 0.10384 0.32814 0.47436 0.0
C1754 C 0.09935 0.33866 0.47035 0.0
H1755 H 0.08082 0.3582 0.29539 0.0
H1756 H 0.0412 0.31474 0.28975 0.0
H1757 H 0.05143 0.31004 0.2589 0.0
H1758 H 0.08591 0.36656 0.24217 0.0
H1759 H 0.10592 0.37576 0.24334 0.0
H1760 H 0.0955 0.3758 0.26499 0.0
H1761 H 0.10798 0.36435 0.28662 0.0
H1762 H 0.11842 0.36425 0.26502 0.0
H1763 H 0.10688 0.34727 0.27862 0.0
H1764 H 0.06578 0.30995 0.2289 0.0
H1765 H 0.08322 0.31454 0.20109 0.0
H1766 H 0.11394 0.35795 0.22611 0.0
C1767 C 0.07429 0.34771 0.28762 0.0
C1768 C 0.0602 0.33682 0.29496 0.0
C1769 C 0.05201 0.32324 0.2844 0.0
C1770 C 0.05773 0.32046 0.26687 0.0
C1771 C 0.07166 0.33138 0.26008 0.0
C1772 C 0.07985 0.34475 0.27006 0.0
C1773 C 0.09454 0.35457 0.25949 0.0
C1774 C 0.09552 0.36903 0.25205 0.0
C1775 C 0.10773 0.35779 0.27326 0.0
C1776 C 0.09331 0.34461 0.24203 0.0
C1777 C 0.08002 0.33129 0.24272 0.0
C1778 C 0.07627 0.3203 0.22825 0.0
C1779 C 0.08633 0.32298 0.21259 0.0
C1780 C 0.10007 0.33654 0.21147 0.0
C1781 C 0.10354 0.34749 0.22646 0.0
H1782 H 0.69018 0.7333 0.284 0.0
H1783 H 0.66086 0.74102 0.32226 0.0
H1784 H 0.6587 0.75638 0.29567 0.0
H1785 H 0.7094 0.76983 0.26074 0.0
H1786 H 0.71025 0.76279 0.23627 0.0
H1787 H 0.71004 0.75288 0.25864 0.0
H1788 H 0.68702 0.72907 0.24512 0.0
H1789 H 0.68716 0.7389 0.22273 0.0
H1790 H 0.67062 0.72974 0.23801 0.0
H1791 H 0.65951 0.77072 0.26498 0.0
H1792 H 0.66278 0.78266 0.23185 0.0
H1793 H 0.69058 0.76469 0.21271 0.0
C1794 C 0.68342 0.73834 0.28682 0.0
C1795 C 0.67574 0.73604 0.30523 0.0
C1796 C 0.66685 0.74265 0.30827 0.0
C1797 C 0.66557 0.75142 0.29327 0.0
C1798 C 0.67318 0.7534 0.27524 0.0
C1799 C 0.68189 0.74702 0.27189 0.0
C1800 C 0.68847 0.75051 0.25086 0.0
C1801 C 0.70556 0.75954 0.25169 0.0
C1802 C 0.68298 0.73621 0.23845 0.0
C1803 C 0.68208 0.75982 0.24297 0.0
C1804 C 0.67336 0.7614 0.25731 0.0
C1805 C 0.66626 0.76951 0.25357 0.0
C1806 C 0.6681 0.77615 0.23462 0.0
C1807 C 0.67687 0.77459 0.21953 0.0
C1808 C 0.68395 0.76629 0.22391 0.0
H1809 H 0.29872 0.96829 0.2889 0.0
H1810 H 0.27185 0.93693 0.3354 0.0
H1811 H 0.25519 0.91969 0.30943 0.0
H1812 H 0.26741 0.96014 0.25405 0.0
H1813 H 0.27832 0.96199 0.23199 0.0
H1814 H 0.28724 0.97265 0.2543 0.0
H1815 H 0.305 0.96194 0.25458 0.0
H1816 H 0.29607 0.95118 0.2324 0.0
H1817 H 0.29729 0.94208 0.25481 0.0
H1818 H 0.24314 0.90467 0.27874 0.0
H1819 H 0.23564 0.89336 0.24492 0.0
H1820 H 0.26974 0.93437 0.21795 0.0
C1821 C 0.28912 0.95796 0.2936 0.0
C1822 C 0.28654 0.95399 0.31418 0.0
C1823 C 0.27402 0.94024 0.31973 0.0
C1824 C 0.26447 0.93036 0.30509 0.0
C1825 C 0.26752 0.93441 0.28493 0.0
C1826 C 0.27943 0.94793 0.27912 0.0
C1827 C 0.28064 0.94913 0.25635 0.0
C1828 C 0.27826 0.96173 0.24873 0.0
C1829 C 0.29564 0.9512 0.24912 0.0
C1830 C 0.26781 0.93403 0.25033 0.0
C1831 C 0.26036 0.92575 0.26708 0.0
C1832 C 0.24873 0.91112 0.26548 0.0
C1833 C 0.2446 0.90476 0.24626 0.0
C1834 C 0.25204 0.91303 0.22889 0.0
C1835 C 0.26369 0.92791 0.23098 0.0
H1836 H 0.67384 0.94216 0.30176 0.0
H1837 H 0.70388 0.98708 0.28118 0.0
H1838 H 0.70574 0.97722 0.24802 0.0
H1839 H 0.69237 0.92493 0.27587 0.0
H1840 H 0.67513 0.90817 0.27033 0.0
H1841 H 0.67667 0.91882 0.29252 0.0
H1842 H 0.65383 0.92066 0.28092 0.0
H1843 H 0.65225 0.91007 0.25868 0.0
H1844 H 0.65397 0.92813 0.25637 0.0
H1845 H 0.70271 0.96238 0.21634 0.0
H1846 H 0.69592 0.94395 0.18919 0.0
H1847 H 0.6693 0.9086 0.23156 0.0
C1848 C 0.68088 0.94992 0.29031 0.0
C1849 C 0.68868 0.96539 0.29397 0.0
C1850 C 0.69784 0.97519 0.27867 0.0
C1851 C 0.69895 0.96968 0.25981 0.0
C1852 C 0.691 0.95436 0.25665 0.0
C1853 C 0.68227 0.94462 0.27157 0.0
C1854 C 0.67473 0.92867 0.26434 0.0
C1855 C 0.68005 0.91962 0.27648 0.0
C1856 C 0.65769 0.92147 0.26512 0.0
C1857 C 0.68031 0.93095 0.24285 0.0
C1858 C 0.68968 0.94583 0.23869 0.0
C1859 C 0.69559 0.95068 0.21953 0.0
C1860 C 0.69174 0.94006 0.20421 0.0
C1861 C 0.68213 0.92469 0.20811 0.0
C1862 C 0.67655 0.92019 0.22786 0.0
H1863 H 0.05691 0.73632 0.2906 0.0
H1864 H 0.08843 0.7248 0.31555 0.0
H1865 H 0.10607 0.73865 0.28825 0.0
H1866 H 0.06462 0.73342 0.23828 0.0
H1867 H 0.06277 0.74899 0.2304 0.0
H1868 H 0.05253 0.73811 0.25189 0.0
H1869 H 0.06403 0.76194 0.27381 0.0
H1870 H 0.07436 0.77288 0.2524 0.0
H1871 H 0.08398 0.77348 0.27528 0.0
H1872 H 0.12032 0.75364 0.25842 0.0
H1873 H 0.13022 0.76874 0.22761 0.0
H1874 H 0.08961 0.77066 0.22176 0.0
C1875 C 0.06751 0.73669 0.29026 0.0
C1876 C 0.07129 0.72947 0.30519 0.0
C1877 C 0.08529 0.73024 0.30428 0.0
C1878 C 0.0954 0.73809 0.28884 0.0
C1879 C 0.09138 0.74514 0.27442 0.0
C1880 C 0.07778 0.74452 0.27494 0.0
C1881 C 0.07628 0.75312 0.25754 0.0
C1882 C 0.06328 0.74279 0.24371 0.0
C1883 C 0.07456 0.76613 0.26522 0.0
C1884 C 0.09115 0.75864 0.24719 0.0
C1885 C 0.09967 0.75389 0.25719 0.0
C1886 C 0.11375 0.75742 0.25043 0.0
C1887 C 0.11925 0.76594 0.23288 0.0
C1888 C 0.1107 0.77087 0.22226 0.0
C1889 C 0.09649 0.76721 0.22966 0.0
H1890 H 0.28463 0.33161 0.28386 0.0
H1891 H 0.27803 0.35863 0.32787 0.0
H1892 H 0.26406 0.36422 0.30284 0.0
H1893 H 0.29145 0.3551 0.24309 0.0
H1894 H 0.28186 0.34074 0.22453 0.0
H1895 H 0.28961 0.33706 0.24652 0.0
H1896 H 0.26383 0.31456 0.25537 0.0
H1897 H 0.25599 0.3181 0.23329 0.0
H1898 H 0.24799 0.31715 0.25772 0.0
H1899 H 0.25382 0.36961 0.27245 0.0
H1900 H 0.24668 0.37344 0.23841 0.0
H1901 H 0.25905 0.34258 0.21373 0.0
C1902 C 0.27987 0.33835 0.28834 0.0
C1903 C 0.28235 0.34463 0.30782 0.0
C1904 C 0.27625 0.35368 0.31303 0.0
C1905 C 0.26826 0.3569 0.29893 0.0
C1906 C 0.26637 0.35092 0.27969 0.0
C1907 C 0.27185 0.34172 0.27437 0.0
C1908 C 0.26913 0.33766 0.2522 0.0
C1909 C 0.28389 0.34296 0.24093 0.0
C1910 C 0.25861 0.32087 0.24949 0.0
C1911 C 0.2617 0.34639 0.24584 0.0
C1912 C 0.26016 0.35388 0.26201 0.0
C1913 C 0.25468 0.36358 0.25973 0.0
C1914 C 0.25073 0.36575 0.24039 0.0
C1915 C 0.25219 0.35818 0.22364 0.0
C1916 C 0.25757 0.34824 0.22644 0.0
H1917 H 0.30106 0.35868 0.4128 0.0
H1918 H 0.27066 0.31449 0.38981 0.0
H1919 H 0.25352 0.31018 0.41786 0.0
H1920 H 0.29507 0.34849 0.46574 0.0
H1921 H 0.29617 0.36561 0.47356 0.0
H1922 H 0.30621 0.36532 0.45162 0.0
H1923 H 0.2932 0.37636 0.43028 0.0
H1924 H 0.28304 0.37658 0.45213 0.0
H1925 H 0.27317 0.367 0.42964 0.0
H1926 H 0.23927 0.31069 0.44759 0.0
H1927 H 0.22934 0.31557 0.47854 0.0
H1928 H 0.26913 0.35903 0.48343 0.0
C1929 C 0.29083 0.34809 0.41376 0.0
C1930 C 0.28721 0.33694 0.39908 0.0
C1931 C 0.27371 0.32321 0.40085 0.0
C1932 C 0.26385 0.32065 0.41672 0.0
C1933 C 0.26765 0.33188 0.43081 0.0
C1934 C 0.28084 0.34529 0.42964 0.0
C1935 C 0.2822 0.35538 0.447 0.0
C1936 C 0.29571 0.3589 0.46027 0.0
C1937 C 0.28294 0.36968 0.43929 0.0
C1938 C 0.26769 0.34555 0.45798 0.0
C1939 C 0.25947 0.33207 0.44831 0.0
C1940 C 0.24565 0.32116 0.45543 0.0
C1941 C 0.24014 0.32401 0.47309 0.0
C1942 C 0.24846 0.33764 0.48355 0.0
C1943 C 0.26239 0.34856 0.47572 0.0
H1944 H 0.67535 0.95641 0.41372 0.0
H1945 H 0.69956 0.94648 0.36903 0.0
H1946 H 0.70449 0.93208 0.39439 0.0
H1947 H 0.70009 0.96256 0.4537 0.0
H1948 H 0.6859 0.95458 0.47283 0.0
H1949 H 0.68294 0.96275 0.45071 0.0
H1950 H 0.65858 0.9381 0.44319 0.0
H1951 H 0.66145 0.92985 0.46534 0.0
H1952 H 0.65905 0.92106 0.44115 0.0
H1953 H 0.70772 0.91973 0.42498 0.0
H1954 H 0.70976 0.91103 0.45875 0.0
H1955 H 0.68466 0.93032 0.48388 0.0
C1956 C 0.68143 0.95095 0.40919 0.0
C1957 C 0.68694 0.9524 0.38938 0.0
C1958 C 0.69518 0.94542 0.38411 0.0
C1959 C 0.698 0.9372 0.39839 0.0
C1960 C 0.6926 0.93617 0.41789 0.0
C1961 C 0.68452 0.94288 0.42332 0.0
C1962 C 0.68089 0.94097 0.4456 0.0
C1963 C 0.68788 0.95611 0.45634 0.0
C1964 C 0.66399 0.93195 0.44901 0.0
C1965 C 0.68831 0.93225 0.45189 0.0
C1966 C 0.69486 0.92946 0.43565 0.0
C1967 C 0.70263 0.92185 0.43781 0.0
C1968 C 0.70382 0.91705 0.4571 0.0
C1969 C 0.69743 0.92001 0.47408 0.0
C1970 C 0.68948 0.92764 0.47126 0.0
H1971 H 0.06527 0.71861 0.4222 0.0
H1972 H 0.07767 0.75521 0.38069 0.0
H1973 H 0.09442 0.77282 0.40632 0.0
H1974 H 0.06461 0.73832 0.46644 0.0
H1975 H 0.07197 0.72979 0.48289 0.0
H1976 H 0.06132 0.71993 0.46104 0.0
H1977 H 0.08315 0.71663 0.44873 0.0
H1978 H 0.09389 0.72654 0.47052 0.0
H1979 H 0.10134 0.73277 0.44563 0.0
H1980 H 0.10997 0.78648 0.43613 0.0
H1981 H 0.12242 0.7955 0.46891 0.0
H1982 H 0.099 0.75032 0.49195 0.0
C1983 C 0.07156 0.73032 0.41852 0.0
C1984 C 0.07021 0.73555 0.39943 0.0
C1985 C 0.07852 0.75097 0.39522 0.0
C1986 C 0.0881 0.76106 0.40965 0.0
C1987 C 0.08918 0.75559 0.42832 0.0
C1988 C 0.08108 0.74061 0.43288 0.0
C1989 C 0.08397 0.73778 0.45435 0.0
C1990 C 0.06961 0.73106 0.46692 0.0
C1991 C 0.09101 0.72784 0.45483 0.0
C1992 C 0.09497 0.75349 0.46108 0.0
C1993 C 0.09788 0.76356 0.44577 0.0
C1994 C 0.1077 0.77872 0.4483 0.0
C1995 C 0.11465 0.78375 0.46706 0.0
C1996 C 0.11167 0.77368 0.48317 0.0
C1997 C 0.10171 0.75833 0.47996 0.0
H1998 H 0.33159 0.05778 0.74974 0.0
H1999 H 0.36604 0.09433 0.71531 0.0
H2000 H 0.369 0.11173 0.74251 0.0
H2001 H 0.31495 0.07804 0.77106 0.0
H2002 H 0.31147 0.06905 0.79526 0.0
H2003 H 0.31178 0.05938 0.77292 0.0
H2004 H 0.33199 0.055 0.78897 0.0
H2005 H 0.3317 0.06461 0.81137 0.0
H2006 H 0.34895 0.07066 0.79815 0.0
H2007 H 0.3686 0.12517 0.77344 0.0
H2008 H 0.365 0.13374 0.80654 0.0
H2009 H 0.331 0.08861 0.82127 0.0
C2010 C 0.33971 0.06945 0.74793 0.0
C2011 C 0.34857 0.07471 0.7304 0.0
C2012 C 0.35914 0.09005 0.72862 0.0
C2013 C 0.36089 0.10003 0.74397 0.0
C2014 C 0.35201 0.09452 0.76105 0.0
C2015 C 0.34165 0.0796 0.76318 0.0
C2016 C 0.33378 0.07659 0.78333 0.0
C2017 C 0.317 0.0704 0.78046 0.0
C2018 C 0.33679 0.06609 0.79621 0.0
C2019 C 0.34132 0.09215 0.7921 0.0
C2020 C 0.3518 0.10231 0.77899 0.0
C2021 C 0.36042 0.11732 0.78385 0.0
C2022 C 0.35834 0.12207 0.8027 0.0
C2023 C 0.34772 0.11186 0.81646 0.0
C2024 C 0.33905 0.09671 0.81096 0.0
H2025 H 0.94487 0.28615 0.72796 0.0
H2026 H 0.9886 0.29785 0.75055 0.0
H2027 H 0.97727 0.28474 0.78239 0.0
H2028 H 0.93028 0.29082 0.77358 0.0
H2029 H 0.91183 0.2752 0.76989 0.0
H2030 H 0.92323 0.28479 0.74845 0.0
H2031 H 0.92021 0.26004 0.73496 0.0
H2032 H 0.90871 0.25035 0.75632 0.0
H2033 H 0.92504 0.24908 0.75093 0.0
H2034 H 0.96145 0.27225 0.81267 0.0
H2035 H 0.94227 0.26014 0.83871 0.0
H2036 H 0.90844 0.25491 0.79565 0.0
C2037 C 0.95204 0.28582 0.73953 0.0
C2038 C 0.96762 0.29303 0.73681 0.0
C2039 C 0.97664 0.29236 0.7523 0.0
C2040 C 0.9703 0.28496 0.77043 0.0
C2041 C 0.95492 0.27813 0.77274 0.0
C2042 C 0.94588 0.27834 0.75764 0.0
C2043 C 0.9297 0.27033 0.76409 0.0
C2044 C 0.9234 0.28092 0.764 0.0
C2045 C 0.92037 0.25664 0.75078 0.0
C2046 C 0.9311 0.26586 0.78534 0.0
C2047 C 0.94574 0.27047 0.79001 0.0
C2048 C 0.94991 0.26832 0.80906 0.0
C2049 C 0.93885 0.26127 0.82375 0.0
C2050 C 0.92368 0.25627 0.81934 0.0
C2051 C 0.91986 0.25858 0.79972 0.0
H2052 H 0.72727 0.6601 0.73915 0.0
H2053 H 0.75496 0.70672 0.72381 0.0
H2054 H 0.77198 0.70983 0.75178 0.0
H2055 H 0.73064 0.66501 0.79251 0.0
H2056 H 0.73103 0.64814 0.79722 0.0
H2057 H 0.72138 0.64947 0.77551 0.0
H2058 H 0.73714 0.64265 0.75234 0.0
H2059 H 0.74687 0.64133 0.77399 0.0
H2060 H 0.75715 0.65353 0.75348 0.0
H2061 H 0.78574 0.70796 0.78179 0.0
H2062 H 0.795 0.70137 0.81205 0.0
H2063 H 0.75797 0.65611 0.80832 0.0
C2064 C 0.73697 0.67094 0.7416 0.0
C2065 C 0.73983 0.68317 0.72927 0.0
C2066 C 0.75256 0.6972 0.73306 0.0
C2067 C 0.76231 0.69907 0.74888 0.0
C2068 C 0.75914 0.6868 0.7608 0.0
C2069 C 0.74677 0.67302 0.75738 0.0
C2070 C 0.74569 0.66175 0.77275 0.0
C2071 C 0.73134 0.65575 0.78524 0.0
C2072 C 0.74678 0.64907 0.76252 0.0
C2073 C 0.75934 0.67137 0.78541 0.0
C2074 C 0.76698 0.68576 0.77821 0.0
C2075 C 0.77984 0.69672 0.78758 0.0
C2076 C 0.78496 0.69288 0.80483 0.0
C2077 C 0.77722 0.67822 0.81263 0.0
C2078 C 0.76428 0.66735 0.80262 0.0
H2079 H 0.74808 0.68445 0.63299 0.0
H2080 H 0.70331 0.64761 0.62346 0.0
H2081 H 0.71146 0.64133 0.59186 0.0
H2082 H 0.75573 0.69564 0.58161 0.0
H2083 H 0.77497 0.70044 0.58268 0.0
H2084 H 0.76582 0.70166 0.60503 0.0
H2085 H 0.77284 0.68421 0.62381 0.0
H2086 H 0.78204 0.68296 0.60152 0.0
H2087 H 0.7676 0.66628 0.61319 0.0
H2088 H 0.72418 0.63958 0.56082 0.0
H2089 H 0.7405 0.64251 0.53221 0.0
H2090 H 0.77725 0.6803 0.56196 0.0
C2091 C 0.74003 0.67499 0.62433 0.0
C2092 C 0.72506 0.66648 0.6307 0.0
C2093 C 0.71483 0.65426 0.61888 0.0
C2094 C 0.71936 0.6506 0.60093 0.0
C2095 C 0.73416 0.65926 0.595 0.0
C2096 C 0.74436 0.67119 0.60633 0.0
C2097 C 0.7595 0.67892 0.59627 0.0
C2098 C 0.76428 0.69513 0.59109 0.0
C2099 C 0.77118 0.67803 0.60949 0.0
C2100 C 0.75619 0.66955 0.57743 0.0
C2101 C 0.74152 0.65823 0.57706 0.0
C2102 C 0.73573 0.64831 0.56103 0.0
C2103 C 0.74514 0.65001 0.54489 0.0
C2104 C 0.76025 0.66155 0.54483 0.0
C2105 C 0.76578 0.6714 0.56144 0.0
H2106 H 0.3562 0.06907 0.61474 0.0
H2107 H 0.32395 0.07379 0.65073 0.0
H2108 H 0.32118 0.08836 0.62355 0.0
H2109 H 0.37386 0.10568 0.59227 0.0
H2110 H 0.37623 0.0994 0.56798 0.0
H2111 H 0.37598 0.08954 0.59042 0.0
H2112 H 0.35451 0.06512 0.57557 0.0
H2113 H 0.35474 0.07489 0.55307 0.0
H2114 H 0.33774 0.06457 0.56719 0.0
H2115 H 0.32186 0.10241 0.59275 0.0
H2116 H 0.32532 0.11439 0.55961 0.0
H2117 H 0.35649 0.09997 0.54285 0.0
C2118 C 0.3486 0.07321 0.61689 0.0
C2119 C 0.34031 0.07033 0.63487 0.0
C2120 C 0.3304 0.07585 0.63708 0.0
C2121 C 0.32877 0.08417 0.62175 0.0
C2122 C 0.33709 0.08683 0.60423 0.0
C2123 C 0.34676 0.08148 0.60164 0.0
C2124 C 0.35409 0.08567 0.58108 0.0
C2125 C 0.37105 0.09567 0.58307 0.0
C2126 C 0.35002 0.07173 0.56849 0.0
C2127 C 0.34702 0.0942 0.57258 0.0
C2128 C 0.3373 0.09478 0.58624 0.0
C2129 C 0.32939 0.10198 0.58187 0.0
C2130 C 0.33137 0.10868 0.56295 0.0
C2131 C 0.34111 0.10807 0.54852 0.0
C2132 C 0.34909 0.10079 0.55357 0.0
H2133 H 0.9525 0.27808 0.64297 0.0
H2134 H 0.97236 0.3224 0.61747 0.0
H2135 H 0.95946 0.31174 0.58529 0.0
H2136 H 0.9555 0.26025 0.59924 0.0
H2137 H 0.938 0.24334 0.60281 0.0
H2138 H 0.94805 0.25447 0.62424 0.0
H2139 H 0.92495 0.25608 0.63507 0.0
H2140 H 0.9148 0.24492 0.61368 0.0
H2141 H 0.91656 0.2629 0.61746 0.0
H2142 H 0.94564 0.29627 0.55543 0.0
H2143 H 0.93183 0.27711 0.52981 0.0
H2144 H 0.92022 0.24273 0.57487 0.0
C2145 C 0.95401 0.28554 0.63067 0.0
C2146 C 0.96341 0.30107 0.63271 0.0
C2147 C 0.96519 0.31047 0.61624 0.0
C2148 C 0.9579 0.30452 0.59792 0.0
C2149 C 0.94881 0.28917 0.59634 0.0
C2150 C 0.9468 0.27979 0.61227 0.0
C2151 C 0.93682 0.26366 0.60638 0.0
C2152 C 0.94509 0.25492 0.60828 0.0
C2153 C 0.92243 0.25647 0.61889 0.0
C2154 C 0.93374 0.26542 0.58455 0.0
C2155 C 0.9407 0.28023 0.57912 0.0
C2156 C 0.93995 0.28464 0.55957 0.0
C2157 C 0.93196 0.27364 0.54514 0.0
C2158 C 0.92475 0.25834 0.55027 0.0
C2159 C 0.92561 0.25428 0.57036 0.0
H2160 H 0.35275 0.29997 0.61334 0.0
H2161 H 0.33435 0.26488 0.65815 0.0
H2162 H 0.33055 0.24648 0.63211 0.0
H2163 H 0.3272 0.27897 0.57465 0.0
H2164 H 0.34043 0.28657 0.55432 0.0
H2165 H 0.34311 0.29742 0.57669 0.0
H2166 H 0.36932 0.30068 0.58142 0.0
H2167 H 0.36674 0.28985 0.55902 0.0
H2168 H 0.37137 0.28448 0.58252 0.0
H2169 H 0.3274 0.23161 0.60152 0.0
H2170 H 0.32476 0.22095 0.56761 0.0
H2171 H 0.34441 0.26514 0.54166 0.0
C2172 C 0.34818 0.28845 0.61765 0.0
C2173 C 0.34391 0.28386 0.63779 0.0
C2174 C 0.33769 0.26865 0.64282 0.0
C2175 C 0.33553 0.2581 0.62815 0.0
C2176 C 0.33958 0.26288 0.60841 0.0
C2177 C 0.34577 0.27766 0.60304 0.0
C2178 C 0.34827 0.27955 0.58043 0.0
C2179 C 0.33921 0.28601 0.57097 0.0
C2180 C 0.36492 0.28922 0.57557 0.0
C2181 C 0.34234 0.26353 0.57402 0.0
C2182 C 0.3375 0.25415 0.59048 0.0
C2183 C 0.33118 0.23883 0.58849 0.0
C2184 C 0.32963 0.23287 0.56914 0.0
C2185 C 0.3343 0.24217 0.55194 0.0
C2186 C 0.34088 0.25774 0.55451 0.0
H2187 H 0.74301 0.07039 0.62953 0.0
H2188 H 0.70089 0.06889 0.62076 0.0
H2189 H 0.71103 0.08461 0.59042 0.0
H2190 H 0.76658 0.10857 0.61378 0.0
H2191 H 0.7799 0.10495 0.60149 0.0
H2192 H 0.7694 0.09379 0.62267 0.0
H2193 H 0.75999 0.06994 0.60117 0.0
H2194 H 0.77047 0.08101 0.57994 0.0
H2195 H 0.75074 0.06841 0.57757 0.0
H2196 H 0.72557 0.0999 0.5605 0.0
H2197 H 0.74325 0.11339 0.53308 0.0
H2198 H 0.7762 0.10561 0.56207 0.0
C2199 C 0.73592 0.07338 0.62125 0.0
C2200 C 0.72115 0.06841 0.62748 0.0
C2201 C 0.71224 0.07258 0.61625 0.0
C2202 C 0.71791 0.08152 0.59902 0.0
C2203 C 0.73252 0.08624 0.59329 0.0
C2204 C 0.74141 0.08233 0.60408 0.0
C2205 C 0.75667 0.08872 0.59459 0.0
C2206 C 0.76886 0.09966 0.60899 0.0
C2207 C 0.75963 0.07628 0.58792 0.0
C2208 C 0.75493 0.09671 0.57665 0.0
C2209 C 0.74094 0.09518 0.57621 0.0
C2210 C 0.73661 0.10129 0.5608 0.0
C2211 C 0.7468 0.10905 0.54535 0.0
C2212 C 0.76121 0.1107 0.54539 0.0
C2213 C 0.76528 0.1045 0.56144 0.0
H2214 H 0.94045 0.65706 0.62655 0.0
H2215 H 0.96053 0.70305 0.64565 0.0
H2216 H 0.94836 0.70816 0.61732 0.0
H2217 H 0.94417 0.66349 0.57469 0.0
H2218 H 0.9265 0.64766 0.56792 0.0
H2219 H 0.93579 0.64724 0.59058 0.0
H2220 H 0.91247 0.6414 0.61162 0.0
H2221 H 0.90304 0.64165 0.58897 0.0
H2222 H 0.90475 0.65349 0.60985 0.0
H2223 H 0.93654 0.70894 0.58475 0.0
H2224 H 0.92418 0.70493 0.55191 0.0
H2225 H 0.90973 0.65786 0.55564 0.0
C2226 C 0.94207 0.66814 0.62495 0.0
C2227 C 0.95142 0.67967 0.63828 0.0
C2228 C 0.95333 0.69403 0.63568 0.0
C2229 C 0.9465 0.69706 0.61961 0.0
C2230 C 0.93758 0.68553 0.60648 0.0
C2231 C 0.93513 0.67129 0.60917 0.0
C2232 C 0.92532 0.661 0.59264 0.0
C2233 C 0.93343 0.65447 0.58076 0.0
C2234 C 0.91051 0.64865 0.60129 0.0
C2235 C 0.92303 0.67177 0.57992 0.0
C2236 C 0.93021 0.68586 0.58815 0.0
C2237 C 0.93055 0.69787 0.57839 0.0
C2238 C 0.92337 0.69543 0.55972 0.0
C2239 C 0.91574 0.68102 0.55101 0.0
C2240 C 0.91551 0.66906 0.56155 0.0
H2241 H 0.96693 0.69628 0.73914 0.0
H2242 H 0.95011 0.64877 0.73629 0.0
H2243 H 0.93672 0.64533 0.76816 0.0
H2244 H 0.97108 0.69996 0.79424 0.0
H2245 H 0.96476 0.71321 0.79582 0.0
H2246 H 0.9741 0.71231 0.77345 0.0
H2247 H 0.95169 0.70839 0.75178 0.0
H2248 H 0.94226 0.70922 0.77408 0.0
H2249 H 0.93334 0.69329 0.75768 0.0
H2250 H 0.92458 0.64659 0.79934 0.0
H2251 H 0.91376 0.65243 0.82836 0.0
H2252 H 0.93702 0.699 0.81105 0.0
C2253 C 0.96061 0.68522 0.74546 0.0
C2254 C 0.95961 0.67279 0.73533 0.0
C2255 C 0.95102 0.65844 0.7438 0.0
C2256 C 0.94339 0.65636 0.76193 0.0
C2257 C 0.94437 0.66874 0.7714 0.0
C2258 C 0.9527 0.6829 0.76354 0.0
C2259 C 0.95111 0.69409 0.77642 0.0
C2260 C 0.96616 0.70557 0.78552 0.0
C2261 C 0.94418 0.7017 0.76426 0.0
C2262 C 0.9405 0.68396 0.79256 0.0
C2263 C 0.9369 0.66941 0.78936 0.0
C2264 C 0.92725 0.65793 0.80199 0.0
C2265 C 0.92104 0.66136 0.81835 0.0
C2266 C 0.92433 0.67614 0.82191 0.0
C2267 C 0.93431 0.6876 0.80883 0.0
H2268 H 0.33768 0.28504 0.74896 0.0
H2269 H 0.37756 0.2962 0.71474 0.0
H2270 H 0.38499 0.28416 0.74046 0.0
H2271 H 0.35482 0.29179 0.79761 0.0
H2272 H 0.33896 0.27662 0.80977 0.0
H2273 H 0.33632 0.28556 0.78823 0.0
H2274 H 0.32199 0.26012 0.77007 0.0
H2275 H 0.32464 0.25112 0.79155 0.0
H2276 H 0.3307 0.24901 0.76696 0.0
H2277 H 0.38856 0.27154 0.76987 0.0
H2278 H 0.38842 0.2597 0.8021 0.0
H2279 H 0.34656 0.25688 0.81802 0.0
C2280 C 0.34792 0.28486 0.74686 0.0
C2281 C 0.35702 0.29153 0.72981 0.0
C2282 C 0.3704 0.29117 0.72767 0.0
C2283 C 0.37472 0.28431 0.74216 0.0
C2284 C 0.36555 0.27786 0.75879 0.0
C2285 C 0.35246 0.27809 0.7613 0.0
C2286 C 0.34496 0.27074 0.78099 0.0
C2287 C 0.3437 0.28184 0.79497 0.0
C2288 C 0.32967 0.25693 0.77716 0.0
C2289 C 0.35596 0.26647 0.78914 0.0
C2290 C 0.36769 0.27063 0.77599 0.0
C2291 C 0.37943 0.26822 0.78031 0.0
C2292 C 0.37928 0.26154 0.79868 0.0
C2293 C 0.36751 0.25739 0.8126 0.0
C2294 C 0.35561 0.25975 0.80758 0.0
H2295 H 0.73483 0.05444 0.74194 0.0
H2296 H 0.73316 0.08999 0.71003 0.0
H2297 H 0.74813 0.1076 0.73669 0.0
H2298 H 0.73092 0.06568 0.79095 0.0
H2299 H 0.7435 0.06092 0.80306 0.0
H2300 H 0.7336 0.05113 0.78073 0.0
H2301 H 0.75854 0.05801 0.7633 0.0
H2302 H 0.76852 0.06781 0.78562 0.0
H2303 H 0.77295 0.07725 0.76169 0.0
H2304 H 0.76179 0.12111 0.76731 0.0
H2305 H 0.77369 0.12986 0.8005 0.0
H2306 H 0.76681 0.08596 0.81338 0.0
C2307 C 0.73782 0.06598 0.74047 0.0
C2308 C 0.73286 0.07085 0.72386 0.0
C2309 C 0.73682 0.08599 0.72259 0.0
C2310 C 0.74536 0.09611 0.73765 0.0
C2311 C 0.7499 0.09097 0.75394 0.0
C2312 C 0.74634 0.07629 0.7555 0.0
C2313 C 0.75213 0.07364 0.77516 0.0
C2314 C 0.73927 0.06216 0.78825 0.0
C2315 C 0.76373 0.0689 0.7712 0.0
C2316 C 0.75927 0.08906 0.78445 0.0
C2317 C 0.75789 0.09886 0.77184 0.0
C2318 C 0.76304 0.11358 0.77728 0.0
C2319 C 0.7697 0.11843 0.7962 0.0
C2320 C 0.77116 0.1086 0.80951 0.0
C2321 C 0.76601 0.09376 0.80341 0.0
H2322 H 0.03891 0.35119 0.04018 0.0
H2323 H 0.06429 0.39875 0.03009 0.0
H2324 H 0.08675 0.39939 0.04396 0.0
H2325 H 0.05465 0.35039 0.08604 0.0
H2326 H 0.05494 0.3335 0.08115 0.0
H2327 H 0.0413 0.33666 0.06902 0.0
H2328 H 0.05007 0.33298 0.03405 0.0
H2329 H 0.06369 0.32968 0.04609 0.0
H2330 H 0.06942 0.34401 0.02727 0.0
H2331 H 0.10545 0.39507 0.06293 0.0
H2332 H 0.1193 0.38607 0.0829 0.0
H2333 H 0.08227 0.34086 0.07712 0.0
C2334 C 0.04926 0.3617 0.04062 0.0
C2335 C 0.04991 0.37493 0.03414 0.0
C2336 C 0.06361 0.38848 0.03489 0.0
C2337 C 0.0764 0.38895 0.04277 0.0
C2338 C 0.07532 0.37571 0.04939 0.0
C2339 C 0.06215 0.3623 0.04802 0.0
C2340 C 0.0638 0.3497 0.05653 0.0
C2341 C 0.05303 0.34213 0.07423 0.0
C2342 C 0.06162 0.33843 0.04 0.0
C2343 C 0.0798 0.35818 0.06358 0.0
C2344 C 0.08628 0.37315 0.05936 0.0
C2345 C 0.10061 0.3833 0.06588 0.0
C2346 C 0.10845 0.37803 0.07714 0.0
C2347 C 0.10203 0.36267 0.08168 0.0
C2348 C 0.08758 0.35268 0.07431 0.0
H2349 H 0.64962 0.68645 0.06094 0.0
H2350 H 0.67104 0.70439 0.0035 0.0
H2351 H 0.6767 0.72947 0.0143 0.0
H2352 H 0.63345 0.71024 0.06748 0.0
H2353 H 0.63679 0.71209 0.09425 0.0
H2354 H 0.63363 0.69548 0.08145 0.0
H2355 H 0.6586 0.69922 0.0953 0.0
H2356 H 0.66183 0.71583 0.10813 0.0
H2357 H 0.67551 0.71656 0.09076 0.0
H2358 H 0.68103 0.75281 0.03215 0.0
H2359 H 0.68381 0.77252 0.05559 0.0
H2360 H 0.65994 0.73919 0.10149 0.0
C2361 C 0.65534 0.69562 0.05053 0.0
C2362 C 0.65984 0.69347 0.03133 0.0
C2363 C 0.66745 0.70578 0.01825 0.0
C2364 C 0.6707 0.72006 0.02425 0.0
C2365 C 0.66624 0.72181 0.04337 0.0
C2366 C 0.65871 0.70991 0.0563 0.0
C2367 C 0.6557 0.71485 0.07635 0.0
C2368 C 0.63889 0.70774 0.08009 0.0
C2369 C 0.66337 0.71141 0.09365 0.0
C2370 C 0.66286 0.73141 0.07279 0.0
C2371 C 0.66881 0.73521 0.05365 0.0
C2372 C 0.67636 0.74994 0.04715 0.0
C2373 C 0.67795 0.76107 0.06061 0.0
C2374 C 0.67206 0.75743 0.08039 0.0
C2375 C 0.66433 0.74235 0.08639 0.0
H2376 H 0.33594 0.96448 0.03761 0.0
H2377 H 0.33163 0.00271 0.05271 0.0
H2378 H 0.30753 0.98627 0.0691 0.0
H2379 H 0.29572 0.93758 0.02965 0.0
H2380 H 0.29685 0.92257 0.04142 0.0
H2381 H 0.31276 0.93702 0.02839 0.0
H2382 H 0.32872 0.94216 0.06058 0.0
H2383 H 0.31287 0.92778 0.0737 0.0
H2384 H 0.32264 0.94636 0.08383 0.0
H2385 H 0.28511 0.96625 0.08609 0.0
H2386 H 0.26636 0.94407 0.10422 0.0
H2387 H 0.28514 0.9185 0.07919 0.0
C2388 C 0.32971 0.96929 0.04395 0.0
C2389 C 0.33552 0.98482 0.04373 0.0
C2390 C 0.32731 0.99082 0.05267 0.0
C2391 C 0.31359 0.98157 0.06193 0.0
C2392 C 0.30826 0.96633 0.06227 0.0
C2393 C 0.31605 0.9602 0.0536 0.0
C2394 C 0.30847 0.94364 0.0578 0.0
C2395 C 0.30313 0.93468 0.03814 0.0
C2396 C 0.31879 0.93977 0.06969 0.0
C2397 C 0.29544 0.94154 0.07055 0.0
C2398 C 0.29541 0.95474 0.07262 0.0
C2399 C 0.28487 0.9558 0.08436 0.0
C2400 C 0.2742 0.94309 0.09452 0.0
C2401 C 0.27416 0.92947 0.09305 0.0
C2402 C 0.28485 0.92872 0.08064 0.0
H2403 H 0.35304 0.03702 0.98858 0.0
H2404 H 0.39165 0.06688 0.02416 0.0
H2405 H 0.38962 0.08827 0.0118 0.0
H2406 H 0.36156 0.05943 0.94611 0.0
H2407 H 0.34265 0.05454 0.94069 0.0
H2408 H 0.34636 0.04164 0.95385 0.0
H2409 H 0.3293 0.0404 0.98317 0.0
H2410 H 0.32548 0.05328 0.97005 0.0
H2411 H 0.33275 0.05733 0.99534 0.0
H2412 H 0.38438 0.10657 0.99308 0.0
H2413 H 0.37647 0.11994 0.96983 0.0
H2414 H 0.34103 0.07773 0.94747 0.0
C2415 C 0.36096 0.04804 0.99401 0.0
C2416 C 0.37249 0.05031 0.00734 0.0
C2417 C 0.38267 0.06489 0.01402 0.0
C2418 C 0.38159 0.0771 0.00709 0.0
C2419 C 0.37018 0.07447 0.99368 0.0
C2420 C 0.35998 0.06026 0.98736 0.0
C2421 C 0.34915 0.06038 0.97226 0.0
C2422 C 0.34999 0.0536 0.95204 0.0
C2423 C 0.33323 0.05237 0.98072 0.0
C2424 C 0.35514 0.07692 0.97048 0.0
C2425 C 0.36716 0.0849 0.98309 0.0
C2426 C 0.37486 0.10041 0.98333 0.0
C2427 C 0.37026 0.10791 0.97014 0.0
C2428 C 0.35817 0.09989 0.95679 0.0
C2429 C 0.35041 0.08419 0.95734 0.0
H2430 H 0.96022 0.33545 0.99731 0.0
H2431 H 0.99605 0.32554 0.9938 0.0
H2432 H 0.97903 0.30143 0.97797 0.0
H2433 H 0.92987 0.29695 0.00684 0.0
H2434 H 0.91679 0.299 0.99129 0.0
H2435 H 0.93135 0.3149 0.00424 0.0
H2436 H 0.94016 0.32901 0.97035 0.0
H2437 H 0.92568 0.31317 0.95731 0.0
H2438 H 0.9448 0.32073 0.94979 0.0
H2439 H 0.95895 0.27941 0.96025 0.0
H2440 H 0.93724 0.26112 0.94093 0.0
H2441 H 0.91391 0.28472 0.956 0.0
C2442 C 0.96438 0.32807 0.99353 0.0
C2443 C 0.97944 0.33233 0.99689 0.0
C2444 C 0.98455 0.3225 0.99141 0.0
C2445 C 0.97496 0.30874 0.98246 0.0
C2446 C 0.96024 0.30494 0.97907 0.0
C2447 C 0.95493 0.31428 0.98442 0.0
C2448 C 0.93887 0.30786 0.97783 0.0
C2449 C 0.92861 0.30448 0.99615 0.0
C2450 C 0.93729 0.31832 0.96294 0.0
C2451 C 0.93614 0.29367 0.96758 0.0
C2452 C 0.94857 0.29214 0.96869 0.0
C2453 C 0.94905 0.28034 0.95954 0.0
C2454 C 0.93656 0.26991 0.9487 0.0
C2455 C 0.92371 0.2713 0.94701 0.0
C2456 C 0.92351 0.28329 0.9569 0.0
H2457 H 0.68612 0.64479 0.97005 0.0
H2458 H 0.70677 0.66895 0.02501 0.0
H2459 H 0.73119 0.67325 0.01299 0.0
H2460 H 0.70817 0.62699 0.96453 0.0
H2461 H 0.70911 0.62874 0.93749 0.0
H2462 H 0.6933 0.6272 0.95081 0.0
H2463 H 0.69779 0.65174 0.93449 0.0
H2464 H 0.7136 0.65336 0.92113 0.0
H2465 H 0.71572 0.66832 0.93708 0.0
H2466 H 0.75354 0.67531 0.99431 0.0
H2467 H 0.77176 0.67483 0.97078 0.0
H2468 H 0.73623 0.64985 0.92793 0.0
C2469 C 0.69575 0.65089 0.97965 0.0
C2470 C 0.69455 0.65649 0.9985 0.0
C2471 C 0.70744 0.66452 0.01053 0.0
C2472 C 0.72135 0.66702 0.00383 0.0
C2473 C 0.72216 0.66143 0.98506 0.0
C2474 C 0.70968 0.65352 0.97317 0.0
C2475 C 0.71352 0.64899 0.95342 0.0
C2476 C 0.70555 0.63197 0.95146 0.0
C2477 C 0.70995 0.65603 0.93547 0.0
C2478 C 0.73013 0.65558 0.956 0.0
C2479 C 0.73493 0.6627 0.97434 0.0
C2480 C 0.74988 0.66975 0.97991 0.0
C2481 C 0.76017 0.6695 0.96639 0.0
C2482 C 0.75546 0.66225 0.9475 0.0
C2483 C 0.7402 0.65525 0.94237 0.0
H2484 H 0.99345 0.67553 0.98553 0.0
H2485 H 0.96555 0.63188 0.01166 0.0
H2486 H 0.94317 0.63187 0.99898 0.0
H2487 H 0.96836 0.68992 0.99565 0.0
H2488 H 0.97275 0.70006 0.97227 0.0
H2489 H 0.98646 0.69696 0.98441 0.0
H2490 H 0.9891 0.68476 0.95182 0.0
H2491 H 0.9754 0.68781 0.9396 0.0
H2492 H 0.97279 0.66934 0.94081 0.0
H2493 H 0.92394 0.63592 0.98135 0.0
H2494 H 0.90938 0.64405 0.96094 0.0
H2495 H 0.94985 0.68519 0.9469 0.0
C2496 C 0.98262 0.66604 0.98879 0.0
C2497 C 0.98123 0.65371 0.99962 0.0
C2498 C 0.96687 0.64147 0.00346 0.0
C2499 C 0.95409 0.64136 0.99632 0.0
C2500 C 0.95586 0.65363 0.98549 0.0
C2501 C 0.96976 0.66578 0.98186 0.0
C2502 C 0.96867 0.67735 0.96931 0.0
C2503 C 0.9744 0.69194 0.98112 0.0
C2504 C 0.97698 0.67996 0.94919 0.0
C2505 C 0.952 0.66971 0.96614 0.0
C2506 C 0.9448 0.65605 0.97563 0.0
C2507 C 0.92945 0.64667 0.97404 0.0
C2508 C 0.92128 0.65134 0.96237 0.0
C2509 C 0.92846 0.66529 0.95249 0.0
C2510 C 0.94401 0.6746 0.95461 0.0
H2511 H 0.38006 0.33168 0.00489 0.0
H2512 H 0.35388 0.34267 0.96501 0.0
H2513 H 0.34741 0.32047 0.94456 0.0
H2514 H 0.3952 0.31934 0.96651 0.0
H2515 H 0.39462 0.30447 0.98113 0.0
H2516 H 0.39643 0.32067 0.99359 0.0
H2517 H 0.37307 0.30397 0.01505 0.0
H2518 H 0.37119 0.2877 0.00264 0.0
H2519 H 0.35587 0.29121 0.00266 0.0
H2520 H 0.34475 0.29805 0.92748 0.0
H2521 H 0.34648 0.27693 0.91415 0.0
H2522 H 0.37411 0.27984 0.96505 0.0
C2523 C 0.37284 0.3293 0.99198 0.0
C2524 C 0.36742 0.33887 0.98657 0.0
C2525 C 0.35815 0.3355 0.96944 0.0
C2526 C 0.35437 0.32289 0.95776 0.0
C2527 C 0.35996 0.31374 0.96337 0.0
C2528 C 0.36901 0.31675 0.98004 0.0
C2529 C 0.37404 0.30541 0.98212 0.0
C2530 C 0.39109 0.31292 0.98075 0.0
C2531 C 0.36819 0.29655 0.00179 0.0
C2532 C 0.36657 0.29571 0.96387 0.0
C2533 C 0.35842 0.30068 0.9534 0.0
C2534 C 0.35093 0.29391 0.93568 0.0
C2535 C 0.35189 0.28181 0.92832 0.0
C2536 C 0.36026 0.27651 0.93864 0.0
C2537 C 0.36761 0.28356 0.95677 0.0
H2538 H 0.68343 0.04916 0.96732 0.0
H2539 H 0.69876 0.05498 0.02917 0.0
H2540 H 0.72359 0.07522 0.01839 0.0
H2541 H 0.71615 0.05481 0.94397 0.0
H2542 H 0.71486 0.06492 0.92276 0.0
H2543 H 0.69824 0.05152 0.9356 0.0
H2544 H 0.69095 0.07165 0.9417 0.0
H2545 H 0.70754 0.08513 0.92881 0.0
H2546 H 0.7039 0.08874 0.95411 0.0
H2547 H 0.74745 0.09319 0.99998 0.0
H2548 H 0.7677 0.10863 0.9759 0.0
H2549 H 0.73608 0.09201 0.92672 0.0
C2550 C 0.69198 0.05479 0.97863 0.0
C2551 C 0.68924 0.0505 0.99906 0.0
C2552 C 0.70065 0.05816 0.01345 0.0
C2553 C 0.71477 0.06963 0.00745 0.0
C2554 C 0.71716 0.07346 0.98708 0.0
C2555 C 0.70599 0.0664 0.97296 0.0
C2556 C 0.71137 0.07245 0.95201 0.0
C2557 C 0.71008 0.06019 0.93776 0.0
C2558 C 0.70294 0.07994 0.94367 0.0
C2559 C 0.72745 0.08377 0.9564 0.0
C2560 C 0.73062 0.08419 0.97671 0.0
C2561 C 0.74502 0.09314 0.98412 0.0
C2562 C 0.75642 0.10184 0.97042 0.0
C2563 C 0.75328 0.10162 0.94966 0.0
C2564 C 0.73862 0.09256 0.94263 0.0
H2565 H 0.63461 0.96324 0.03839 0.0
H2566 H 0.68082 0.9928 0.02234 0.0
H2567 H 0.68736 0.97476 0.03595 0.0
H2568 H 0.6412 0.95147 0.08449 0.0
H2569 H 0.62636 0.93245 0.08241 0.0
H2570 H 0.62495 0.94694 0.06961 0.0
H2571 H 0.62094 0.93315 0.03566 0.0
H2572 H 0.62225 0.91854 0.04839 0.0
H2573 H 0.63433 0.92808 0.02743 0.0
H2574 H 0.68938 0.95504 0.05476 0.0
H2575 H 0.68669 0.93458 0.07613 0.0
H2576 H 0.63883 0.91665 0.07799 0.0
C2577 C 0.64605 0.96578 0.03739 0.0
C2578 C 0.6572 0.97942 0.02926 0.0
C2579 C 0.67207 0.9824 0.02842 0.0
C2580 C 0.6759 0.97221 0.03611 0.0
C2581 C 0.66471 0.959 0.04439 0.0
C2582 C 0.65005 0.95566 0.04487 0.0
C2583 C 0.64031 0.94098 0.05545 0.0
C2584 C 0.63277 0.94309 0.07409 0.0
C2585 C 0.62878 0.92951 0.04085 0.0
C2586 C 0.65186 0.93683 0.06136 0.0
C2587 C 0.66584 0.94735 0.05476 0.0
C2588 C 0.67844 0.94653 0.05962 0.0
C2589 C 0.67674 0.93472 0.07169 0.0
C2590 C 0.66251 0.92372 0.07874 0.0
C2591 C 0.64991 0.92479 0.0731 0.0
H2592 H 0.04039 0.69416 0.06327 0.0
H2593 H 0.06622 0.69817 0.00986 0.0
H2594 H 0.08642 0.72239 0.02197 0.0
H2595 H 0.05157 0.73333 0.06701 0.0
H2596 H 0.05225 0.73348 0.09413 0.0
H2597 H 0.0396 0.71665 0.08096 0.0
H2598 H 0.051 0.70268 0.09923 0.0
H2599 H 0.06367 0.71945 0.11245 0.0
H2600 H 0.07076 0.70979 0.09773 0.0
H2601 H 0.10431 0.74568 0.0406 0.0
H2602 H 0.11827 0.76668 0.06405 0.0
H2603 H 0.08074 0.74765 0.10512 0.0
C2604 C 0.05025 0.70019 0.05406 0.0
C2605 C 0.05173 0.69428 0.03561 0.0
C2606 C 0.06483 0.70249 0.02403 0.0
C2607 C 0.07637 0.71626 0.03078 0.0
C2608 C 0.07463 0.72173 0.0491 0.0
C2609 C 0.06188 0.71399 0.06055 0.0
C2610 C 0.06292 0.72225 0.07985 0.0
C2611 C 0.05087 0.72669 0.08051 0.0
C2612 C 0.06204 0.71299 0.09841 0.0
C2613 C 0.07829 0.73574 0.07755 0.0
C2614 C 0.08487 0.73523 0.05971 0.0
C2615 C 0.09924 0.74625 0.05455 0.0
C2616 C 0.10711 0.75809 0.06799 0.0
C2617 C 0.10057 0.75885 0.08634 0.0
C2618 C 0.08594 0.74752 0.09105 0.0
H2619 H 0.34539 0.39226 0.05081 0.0
H2620 H 0.32558 0.34775 0.02611 0.0
H2621 H 0.30093 0.34225 0.03861 0.0
H2622 H 0.32461 0.38123 0.09612 0.0
H2623 H 0.32281 0.39754 0.09819 0.0
H2624 H 0.33854 0.39859 0.08529 0.0
H2625 H 0.33209 0.40867 0.05348 0.0
H2626 H 0.3163 0.40761 0.0663 0.0
H2627 H 0.31378 0.39822 0.04256 0.0
H2628 H 0.27864 0.34133 0.0545 0.0
H2629 H 0.26055 0.34416 0.07518 0.0
H2630 H 0.29521 0.38854 0.09229 0.0
C2631 C 0.33578 0.38147 0.04774 0.0
C2632 C 0.33728 0.37047 0.03728 0.0
C2633 C 0.3246 0.35633 0.03401 0.0
C2634 C 0.31056 0.35314 0.04097 0.0
C2635 C 0.30944 0.36415 0.05143 0.0
C2636 C 0.32172 0.37798 0.05501 0.0
C2637 C 0.31767 0.38732 0.06822 0.0
C2638 C 0.32642 0.3914 0.08813 0.0
C2639 C 0.3201 0.40128 0.05696 0.0
C2640 C 0.30125 0.37653 0.07163 0.0
C2641 C 0.2967 0.36333 0.06153 0.0
C2642 C 0.28209 0.3516 0.06256 0.0
C2643 C 0.27191 0.35329 0.07451 0.0
C2644 C 0.27639 0.36652 0.08562 0.0
C2645 C 0.29127 0.37835 0.08384 0.0
H2646 H 0.70139 0.6882 0.39066 0.0
H2647 H 0.73067 0.72621 0.35379 0.0
H2648 H 0.75238 0.72489 0.36659 0.0
H2649 H 0.72559 0.69786 0.43349 0.0
H2650 H 0.72037 0.67888 0.43896 0.0
H2651 H 0.70732 0.68294 0.42682 0.0
H2652 H 0.70445 0.66525 0.39747 0.0
H2653 H 0.71752 0.66116 0.4095 0.0
H2654 H 0.72076 0.6681 0.38405 0.0
H2655 H 0.77095 0.71923 0.38384 0.0
H2656 H 0.78455 0.70959 0.40354 0.0
H2657 H 0.74277 0.67553 0.42902 0.0
C2658 C 0.71237 0.69626 0.38526 0.0
C2659 C 0.71435 0.70731 0.37123 0.0
C2660 C 0.7289 0.71765 0.36454 0.0
C2661 C 0.74128 0.71698 0.37173 0.0
C2662 C 0.73891 0.70592 0.38558 0.0
C2663 C 0.72479 0.69575 0.39225 0.0
C2664 C 0.72515 0.68492 0.40712 0.0
C2665 C 0.71926 0.68624 0.42782 0.0
C2666 C 0.71646 0.66891 0.39904 0.0
C2667 C 0.74168 0.69053 0.4078 0.0
C2668 C 0.74948 0.70266 0.39533 0.0
C2669 C 0.76493 0.70974 0.39364 0.0
C2670 C 0.77257 0.70423 0.40496 0.0
C2671 C 0.76474 0.69174 0.41774 0.0
C2672 C 0.74909 0.68492 0.41913 0.0
H2673 H 0.31057 0.0201 0.37413 0.0
H2674 H 0.35494 0.02645 0.381 0.0
H2675 H 0.36386 0.05167 0.39405 0.0
H2676 H 0.32221 0.05872 0.35983 0.0
H2677 H 0.30759 0.05903 0.37404 0.0
H2678 H 0.30474 0.0418 0.36359 0.0
H2679 H 0.29807 0.02979 0.39901 0.0
H2680 H 0.30093 0.04697 0.40957 0.0
H2681 H 0.31102 0.03846 0.41947 0.0
H2682 H 0.36785 0.0753 0.40821 0.0
H2683 H 0.36672 0.09618 0.42341 0.0
H2684 H 0.31988 0.07543 0.40759 0.0
C2685 C 0.3222 0.02692 0.37811 0.0
C2686 C 0.33209 0.02134 0.37646 0.0
C2687 C 0.34717 0.03048 0.38213 0.0
C2688 C 0.35237 0.04485 0.38951 0.0
C2689 C 0.34236 0.04997 0.39121 0.0
C2690 C 0.32759 0.04135 0.38572 0.0
C2691 C 0.3191 0.0494 0.39024 0.0
C2692 C 0.31306 0.05241 0.37076 0.0
C2693 C 0.30654 0.04063 0.40548 0.0
C2694 C 0.33137 0.06374 0.39937 0.0
C2695 C 0.34469 0.06382 0.39957 0.0
C2696 C 0.35754 0.0755 0.40787 0.0
C2697 C 0.35679 0.08742 0.41633 0.0
C2698 C 0.34328 0.0877 0.41647 0.0
C2699 C 0.33041 0.07565 0.40773 0.0
H2700 H 0.00802 0.31327 0.40098 0.0
H2701 H 0.9902 0.30612 0.34033 0.0
H2702 H 0.96604 0.28582 0.35278 0.0
H2703 H 0.9906 0.27507 0.41429 0.0
H2704 H 0.98721 0.27792 0.44008 0.0
H2705 H 1.00271 0.29249 0.42663 0.0
H2706 H 0.99303 0.31059 0.43438 0.0
H2707 H 0.97752 0.29607 0.44793 0.0
H2708 H 0.97428 0.30548 0.42748 0.0
H2709 H 0.94382 0.266 0.37202 0.0
H2710 H 0.92582 0.24764 0.39621 0.0
H2711 H 0.95867 0.26728 0.44379 0.0
C2712 C 0.99898 0.30755 0.39036 0.0
C2713 C 1.00092 0.31133 0.36972 0.0
C2714 C 0.98891 0.30342 0.35623 0.0
C2715 C 0.97515 0.2919 0.36316 0.0
C2716 C 0.97364 0.28835 0.3836 0.0
C2717 C 0.98526 0.29591 0.39698 0.0
C2718 C 0.981 0.28951 0.418 0.0
C2719 C 0.99097 0.28338 0.42516 0.0
C2720 C 0.98148 0.3011 0.43282 0.0
C2721 C 0.9652 0.27712 0.41436 0.0
C2722 C 0.96108 0.2767 0.39448 0.0
C2723 C 0.94694 0.26623 0.38762 0.0
C2724 C 0.93678 0.25588 0.40144 0.0
C2725 C 0.9409 0.25598 0.4218 0.0
C2726 C 0.95529 0.2668 0.42826 0.0
H2727 H 0.02279 0.37163 0.31691 0.0
H2728 H 0.0617 0.39697 0.35448 0.0
H2729 H 0.0627 0.42023 0.34379 0.0
H2730 H 0.03497 0.3964 0.27614 0.0
H2731 H 0.01688 0.39373 0.27008 0.0
H2732 H 0.01843 0.37909 0.28215 0.0
H2733 H 1.00128 0.37835 0.31101 0.0
H2734 H 0.99968 0.39302 0.299 0.0
H2735 H 0.00606 0.39514 0.32469 0.0
H2736 H 0.06059 0.44083 0.32684 0.0
H2737 H 0.05557 0.45709 0.30502 0.0
H2738 H 0.01802 0.41822 0.2786 0.0
C2739 C 0.03138 0.38205 0.32316 0.0
C2740 C 0.04214 0.38249 0.33662 0.0
C2741 C 0.05331 0.39637 0.34423 0.0
C2742 C 0.05394 0.40963 0.33826 0.0
C2743 C 0.04328 0.40882 0.32475 0.0
C2744 C 0.03217 0.39537 0.31735 0.0
C2745 C 0.02256 0.39756 0.30215 0.0
C2746 C 0.02326 0.39133 0.28141 0.0
C2747 C 0.00644 0.3906 0.30967 0.0
C2748 C 0.03017 0.41436 0.30182 0.0
C2749 C 0.04204 0.42066 0.31506 0.0
C2750 C 0.05122 0.43602 0.31659 0.0
C2751 C 0.04832 0.44516 0.30409 0.0
C2752 C 0.03634 0.43893 0.29022 0.0
C2753 C 0.02705 0.42332 0.28936 0.0
H2754 H 0.62835 0.66685 0.33005 0.0
H2755 H 0.66721 0.66272 0.31849 0.0
H2756 H 0.65134 0.63854 0.30192 0.0
H2757 H 0.60181 0.62713 0.33868 0.0
H2758 H 0.58687 0.62777 0.32581 0.0
H2759 H 0.60102 0.64405 0.33857 0.0
H2760 H 0.60657 0.65921 0.30555 0.0
H2761 H 0.59245 0.643 0.29272 0.0
H2762 H 0.61119 0.65265 0.28308 0.0
H2763 H 0.63163 0.61561 0.28496 0.0
H2764 H 0.60969 0.59622 0.26698 0.0
H2765 H 0.58347 0.61519 0.28899 0.0
C2766 C 0.63346 0.66072 0.32432 0.0
C2767 C 0.64899 0.66658 0.32568 0.0
C2768 C 0.65533 0.6584 0.31765 0.0
C2769 C 0.6464 0.64463 0.30829 0.0
C2770 C 0.63115 0.63921 0.307 0.0
C2771 C 0.62471 0.647 0.3147 0.0
C2772 C 0.60821 0.63919 0.30999 0.0
C2773 C 0.59893 0.63424 0.32942 0.0
C2774 C 0.60439 0.6491 0.29707 0.0
C2775 C 0.60645 0.62594 0.29812 0.0
C2776 C 0.61978 0.62606 0.29684 0.0
C2777 C 0.62109 0.61529 0.28605 0.0
C2778 C 0.60851 0.60425 0.27599 0.0
C2779 C 0.59479 0.60408 0.27665 0.0
C2780 C 0.59378 0.615 0.28816 0.0
H2781 H 0.36914 1.00086 0.33095 0.0
H2782 H 0.34338 0.95272 0.32843 0.0
H2783 H 0.3642 0.95233 0.31089 0.0
H2784 H 0.38627 0.00685 0.28307 0.0
H2785 H 0.404 0.02196 0.29119 0.0
H2786 H 0.38724 0.01839 0.30395 0.0
H2787 H 0.39828 0.01623 0.33794 0.0
H2788 H 0.4151 0.01984 0.32528 0.0
H2789 H 0.40493 0.00328 0.34027 0.0
H2790 H 0.38715 0.95745 0.29132 0.0
H2791 H 0.41079 0.96738 0.27294 0.0
H2792 H 0.42254 0.01212 0.29123 0.0
C2793 C 0.36791 0.99023 0.32678 0.0
C2794 C 0.35464 0.97681 0.33094 0.0
C2795 C 0.35347 0.96313 0.32539 0.0
C2796 C 0.36523 0.9628 0.31542 0.0
C2797 C 0.37815 0.97625 0.31142 0.0
C2798 C 0.37962 0.9897 0.31714 0.0
C2799 C 0.39466 0.00256 0.31111 0.0
C2800 C 0.39293 0.01305 0.29646 0.0
C2801 C 0.40378 0.01097 0.32976 0.0
C2802 C 0.40131 0.99427 0.30071 0.0
C2803 C 0.3916 0.97912 0.30099 0.0
C2804 C 0.39497 0.96928 0.29135 0.0
C2805 C 0.40856 0.97507 0.28107 0.0
C2806 C 0.41881 0.99061 0.28063 0.0
C2807 C 0.41506 1.00022 0.29093 0.0
H2808 H 0.65519 0.00224 0.31792 0.0
H2809 H 0.62978 0.96261 0.35411 0.0
H2810 H 0.60644 0.96087 0.3422 0.0
H2811 H 0.62982 0.0174 0.32411 0.0
H2812 H 0.63255 0.02403 0.29852 0.0
H2813 H 0.64728 0.02313 0.31161 0.0
H2814 H 0.64849 0.00687 0.28295 0.0
H2815 H 0.63377 0.00768 0.26982 0.0
H2816 H 0.63186 0.98992 0.27596 0.0
H2817 H 0.58594 0.96186 0.32371 0.0
H2818 H 0.56972 0.96583 0.30037 0.0
H2819 H 0.60829 0.00497 0.27643 0.0
C2820 C 0.64472 0.99339 0.32368 0.0
C2821 C 0.64429 0.9826 0.33704 0.0
C2822 C 0.63037 0.97104 0.34395 0.0
C2823 C 0.61706 0.96997 0.3373 0.0
C2824 C 0.61784 0.9806 0.32381 0.0
C2825 C 0.63131 0.99216 0.31717 0.0
C2826 C 0.62905 1.00155 0.30167 0.0
C2827 C 0.63503 0.01747 0.30945 0.0
C2828 C 0.63621 1.00149 0.28141 0.0
C2829 C 0.61222 0.99325 0.30024 0.0
C2830 C 0.60597 0.98126 0.31325 0.0
C2831 C 0.59069 0.97134 0.31369 0.0
C2832 C 0.58157 0.97364 0.30035 0.0
C2833 C 0.58775 0.98577 0.28677 0.0
C2834 C 0.60325 0.99581 0.28697 0.0
H2835 H 0.02207 0.66319 0.31085 0.0
H2836 H 0.04889 0.66346 0.36109 0.0
H2837 H 0.04696 0.64015 0.34851 0.0
H2838 H 0.99728 0.6231 0.30872 0.0
H2839 H 0.99635 0.62277 0.2816 0.0
H2840 H 0.99932 0.63903 0.29517 0.0
H2841 H 0.02331 0.65521 0.27453 0.0
H2842 H 0.02045 0.639 0.26096 0.0
H2843 H 0.03772 0.65038 0.27408 0.0
H2844 H 0.04299 0.61731 0.3293 0.0
H2845 H 0.03671 0.59654 0.30574 0.0
H2846 H 0.01265 0.61153 0.26813 0.0
C2847 C 0.0274 0.65827 0.31935 0.0
C2848 C 0.03559 0.66512 0.33701 0.0
C2849 C 0.0425 0.65837 0.34758 0.0
C2850 C 0.04148 0.64515 0.34053 0.0
C2851 C 0.03346 0.63878 0.32291 0.0
C2852 C 0.02648 0.64509 0.31254 0.0
C2853 C 0.01886 0.63628 0.29374 0.0
C2854 C 1.00195 0.62992 0.29489 0.0
C2855 C 0.02549 0.64579 0.27471 0.0
C2856 C 0.02274 0.62408 0.29505 0.0
C2857 C 0.03116 0.62569 0.31197 0.0
C2858 C 0.03634 0.61592 0.31606 0.0
C2859 C 0.03279 0.60421 0.30253 0.0
C2860 C 0.02411 0.60232 0.28513 0.0
C2861 C 0.01907 0.61246 0.28146 0.0
H2862 H 0.36346 0.3882 0.3408 0.0
H2863 H 0.33378 0.3712 0.28936 0.0
H2864 H 0.35284 0.39089 0.26802 0.0
H2865 H 0.38199 0.42809 0.3271 0.0
H2866 H 0.40007 0.43174 0.33521 0.0
H2867 H 0.38355 0.41738 0.3473 0.0
H2868 H 0.39183 0.39822 0.33937 0.0
H2869 H 0.40834 0.4125 0.32727 0.0
H2870 H 0.39587 0.39579 0.31371 0.0
H2871 H 0.37509 0.41099 0.25169 0.0
H2872 H 0.40009 0.42971 0.2405 0.0
H2873 H 0.41641 0.43402 0.30181 0.0
C2874 C 0.36095 0.38886 0.32514 0.0
C2875 C 0.34713 0.37828 0.31671 0.0
C2876 C 0.34431 0.37921 0.29607 0.0
C2877 C 0.35503 0.3904 0.28385 0.0
C2878 C 0.36861 0.40053 0.29243 0.0
C2879 C 0.37171 0.39987 0.31253 0.0
C2880 C 0.38773 0.41145 0.31734 0.0
C2881 C 0.38837 0.42284 0.33265 0.0
C2882 C 0.39645 0.40404 0.32486 0.0
C2883 C 0.39312 0.41847 0.29673 0.0
C2884 C 0.38179 0.41211 0.28273 0.0
C2885 C 0.38403 0.41622 0.26255 0.0
C2886 C 0.3983 0.427 0.25637 0.0
C2887 C 0.41026 0.43357 0.27027 0.0
C2888 C 0.40753 0.42929 0.2908 0.0
H2889 H 0.30667 0.29415 0.35857 0.0
H2890 H 0.35038 0.33212 0.37004 0.0
H2891 H 0.35813 0.31568 0.38607 0.0
H2892 H 0.30304 0.27731 0.40471 0.0
H2893 H 0.29345 0.25842 0.39566 0.0
H2894 H 0.29201 0.27259 0.38205 0.0
H2895 H 0.30152 0.26615 0.34967 0.0
H2896 H 0.30289 0.25185 0.36317 0.0
H2897 H 0.31891 0.26623 0.35024 0.0
H2898 H 0.3602 0.29589 0.40441 0.0
H2899 H 0.3564 0.27422 0.42413 0.0
H2900 H 0.31135 0.24875 0.40085 0.0
C2901 C 0.31801 0.29889 0.36389 0.0
C2902 C 0.328 0.31437 0.36287 0.0
C2903 C 0.3426 0.32027 0.37055 0.0
C2904 C 0.34711 0.31102 0.37964 0.0
C2905 C 0.33689 0.29587 0.38095 0.0
C2906 C 0.32265 0.2898 0.37322 0.0
C2907 C 0.3134 0.27343 0.37838 0.0
C2908 C 0.29967 0.27026 0.39095 0.0
C2909 C 0.30892 0.26385 0.35922 0.0
C2910 C 0.32451 0.27138 0.39076 0.0
C2911 C 0.33805 0.2844 0.39179 0.0
C2912 C 0.34974 0.28553 0.4034 0.0
C2913 C 0.34749 0.2731 0.41449 0.0
C2914 C 0.33361 0.25967 0.41401 0.0
C2915 C 0.32209 0.25882 0.40164 0.0
H2916 H 0.72011 0.03581 0.35882 0.0
H2917 H 0.71442 0.00366 0.40464 0.0
H2918 H 0.73431 0.02356 0.42494 0.0
H2919 H 0.76045 0.0604 0.36418 0.0
H2920 H 0.7596 0.07719 0.36129 0.0
H2921 H 0.74593 0.06029 0.34917 0.0
H2922 H 0.7248 0.06239 0.36675 0.0
H2923 H 0.7384 0.0793 0.37885 0.0
H2924 H 0.72491 0.06399 0.3938 0.0
H2925 H 0.75426 0.04657 0.44056 0.0
H2926 H 0.77132 0.07197 0.45269 0.0
H2927 H 0.76328 0.09001 0.39831 0.0
C2928 C 0.72324 0.03302 0.37301 0.0
C2929 C 0.71588 0.01823 0.38015 0.0
C2930 C 0.71996 0.01495 0.39896 0.0
C2931 C 0.73129 0.02615 0.41052 0.0
C2932 C 0.7383 0.04064 0.40322 0.0
C2933 C 0.73433 0.04419 0.38507 0.0
C2934 C 0.74281 0.06089 0.38171 0.0
C2935 C 0.75279 0.06493 0.36297 0.0
C2936 C 0.73209 0.067 0.38019 0.0
C2937 C 0.75202 0.06609 0.40086 0.0
C2938 C 0.74943 0.05416 0.41282 0.0
C2939 C 0.75645 0.05602 0.43132 0.0
C2940 C 0.76621 0.07049 0.43802 0.0
C2941 C 0.76872 0.08295 0.42638 0.0
C2942 C 0.7616 0.08068 0.40747 0.0
H2943 H 0.99545 0.68459 0.38906 0.0
H2944 H 0.0059 0.72275 0.35157 0.0
H2945 H 0.98315 0.72231 0.36365 0.0
H2946 H 0.95533 0.66568 0.3816 0.0
H2947 H 0.9513 0.65879 0.40707 0.0
H2948 H 0.96819 0.66197 0.39504 0.0
H2949 H 0.98364 0.67925 0.42443 0.0
H2950 H 0.96682 0.67617 0.43651 0.0
H2951 H 0.9814 0.69484 0.431 0.0
H2952 H 0.95994 0.71856 0.38168 0.0
H2953 H 0.93735 0.71074 0.4024 0.0
H2954 H 0.94175 0.67451 0.42688 0.0
C2955 C 0.9929 0.69279 0.38328 0.0
C2956 C 1.00245 0.70372 0.36939 0.0
C2957 C 0.99871 0.71424 0.36216 0.0
C2958 C 0.98584 0.7141 0.36897 0.0
C2959 C 0.97673 0.70326 0.38285 0.0
C2960 C 0.98002 0.6927 0.38974 0.0
C2961 C 0.96846 0.68226 0.40464 0.0
C2962 C 0.96034 0.66623 0.3966 0.0
C2963 C 0.9755 0.68319 0.42537 0.0
C2964 C 0.95823 0.68869 0.40527 0.0
C2965 C 0.9632 0.70084 0.39268 0.0
C2966 C 0.95587 0.70896 0.39142 0.0
C2967 C 0.9431 0.70449 0.40327 0.0
C2968 C 0.93773 0.69194 0.41604 0.0
C2969 C 0.94543 0.68397 0.41695 0.0
H2970 H 0.36722 0.021 0.71612 0.0
H2971 H 0.39709 0.06108 0.68319 0.0
H2972 H 0.41864 0.05959 0.69611 0.0
H2973 H 0.38921 0.02852 0.75969 0.0
H2974 H 0.38472 0.00957 0.76359 0.0
H2975 H 0.3717 0.0134 0.75092 0.0
H2976 H 0.37134 0.99779 0.72028 0.0
H2977 H 0.38435 0.99387 0.73289 0.0
H2978 H 0.3886 0.00216 0.70819 0.0
H2979 H 0.437 0.0548 0.71507 0.0
H2980 H 0.45056 0.0461 0.73669 0.0
H2981 H 0.40859 0.00859 0.75582 0.0
C2982 C 0.37829 0.02938 0.71145 0.0
C2983 C 0.3805 0.04117 0.69867 0.0
C2984 C 0.39515 0.05191 0.6929 0.0
C2985 C 0.40745 0.05117 0.70019 0.0
C2986 C 0.40489 0.03951 0.71301 0.0
C2987 C 0.39066 0.0287 0.71838 0.0
C2988 C 0.3909 0.01742 0.73255 0.0
C2989 C 0.38371 0.01723 0.75289 0.0
C2990 C 0.38335 1.00189 0.7229 0.0
C2991 C 0.40751 0.02372 0.73467 0.0
C2992 C 0.41541 0.03649 0.72333 0.0
C2993 C 0.43092 0.0447 0.72377 0.0
C2994 C 0.43852 0.03973 0.73612 0.0
C2995 C 0.43061 0.0266 0.74769 0.0
C2996 C 0.41492 0.01849 0.7468 0.0
H2997 H 0.99985 0.36064 0.73166 0.0
H2998 H 0.97586 0.35897 0.67732 0.0
H2999 H 0.97543 0.38145 0.68835 0.0
H3000 H 0.98006 0.37148 0.76454 0.0
H3001 H 0.99602 0.38347 0.77975 0.0
H3002 H 0.99521 0.36782 0.76697 0.0
H3003 H 0.02037 0.38536 0.74955 0.0
H3004 H 0.02122 0.40109 0.76224 0.0
H3005 H 0.0224 0.40097 0.73516 0.0
H3006 H 0.97674 0.40351 0.70597 0.0
H3007 H 0.97914 0.42314 0.72923 0.0
H3008 H 1.00196 0.41015 0.77227 0.0
C3009 C 0.99463 0.36508 0.72199 0.0
C3010 C 0.98794 0.3581 0.70359 0.0
C3011 C 0.98108 0.36416 0.69146 0.0
C3012 C 0.98081 0.37694 0.69757 0.0
C3013 C 0.98745 0.38352 0.71585 0.0
C3014 C 0.99422 0.37779 0.7279 0.0
C3015 C 0.99998 0.3866 0.74724 0.0
C3016 C 0.99236 0.37675 0.76571 0.0
C3017 C 0.017 0.39394 0.74862 0.0
C3018 C 0.99526 0.39808 0.7443 0.0
C3019 C 0.98814 0.39617 0.72604 0.0
C3020 C 0.98235 0.40514 0.72026 0.0
C3021 C 0.98372 0.41622 0.73361 0.0
C3022 C 0.99077 0.41822 0.75255 0.0
C3023 C 0.99676 0.4091 0.75777 0.0
H3024 H 0.6692 0.63008 0.7042 0.0
H3025 H 0.66485 0.66867 0.71668 0.0
H3026 H 0.64074 0.65257 0.73339 0.0
H3027 H 0.62972 0.60384 0.69506 0.0
H3028 H 0.63028 0.58867 0.70731 0.0
H3029 H 0.64666 0.60307 0.69503 0.0
H3030 H 0.66161 0.608 0.72817 0.0
H3031 H 0.6453 0.59362 0.74052 0.0
H3032 H 0.65486 0.61214 0.75086 0.0
H3033 H 0.61768 0.63245 0.7501 0.0
H3034 H 0.59807 0.61007 0.76707 0.0
H3035 H 0.61736 0.58448 0.74378 0.0
C3036 C 0.66309 0.63511 0.71025 0.0
C3037 C 0.66886 0.65062 0.70906 0.0
C3038 C 0.66062 0.65682 0.71739 0.0
C3039 C 0.64689 0.64775 0.72684 0.0
C3040 C 0.64155 0.63251 0.72786 0.0
C3041 C 0.6494 0.62623 0.71984 0.0
C3042 C 0.64157 0.60967 0.72393 0.0
C3043 C 0.63677 0.60079 0.70415 0.0
C3044 C 0.65143 0.60563 0.73663 0.0
C3045 C 0.62823 0.60766 0.73579 0.0
C3046 C 0.62833 0.62093 0.73768 0.0
C3047 C 0.6174 0.62195 0.74854 0.0
C3048 C 0.60623 0.60914 0.75801 0.0
C3049 C 0.60607 0.59545 0.75669 0.0
C3050 C 0.61715 0.59475 0.74514 0.0
H3051 H 0.69101 0.70303 0.63987 0.0
H3052 H 0.7243 0.73064 0.68401 0.0
H3053 H 0.72321 0.75254 0.67184 0.0
H3054 H 0.70377 0.72982 0.59998 0.0
H3055 H 0.68533 0.72447 0.59122 0.0
H3056 H 0.68874 0.71103 0.60346 0.0
H3057 H 0.66808 0.70572 0.62951 0.0
H3058 H 0.66461 0.71916 0.61734 0.0
H3059 H 0.66898 0.72088 0.64382 0.0
H3060 H 0.71889 0.77159 0.65414 0.0
H3061 H 0.71097 0.78605 0.63314 0.0
H3062 H 0.68019 0.7458 0.60117 0.0
C3063 C 0.69806 0.71368 0.64698 0.0
C3064 C 0.70776 0.71515 0.66285 0.0
C3065 C 0.71677 0.72926 0.67183 0.0
C3066 C 0.71625 0.74176 0.66501 0.0
C3067 C 0.70658 0.73994 0.64929 0.0
C3068 C 0.69759 0.72624 0.64047 0.0
C3069 C 0.6881 0.72723 0.62392 0.0
C3070 C 0.69171 0.72288 0.60343 0.0
C3071 C 0.67146 0.71768 0.62896 0.0
C3072 C 0.69319 0.74365 0.62475 0.0
C3073 C 0.7039 0.75081 0.63942 0.0
C3074 C 0.71047 0.76608 0.64267 0.0
C3075 C 0.70595 0.77421 0.63063 0.0
C3076 C 0.6949 0.76704 0.61564 0.0
C3077 C 0.68848 0.75155 0.61274 0.0
H3078 H 0.3219 1.00021 0.64535 0.0
H3079 H 0.29321 0.00522 0.68821 0.0
H3080 H 0.27207 0.98104 0.67723 0.0
H3081 H 0.29523 0.98377 0.60591 0.0
H3082 H 0.30158 0.97128 0.59815 0.0
H3083 H 0.31438 0.98879 0.60969 0.0
H3084 H 0.32086 0.97506 0.63689 0.0
H3085 H 0.3081 0.9575 0.6254 0.0
H3086 H 0.30614 0.96062 0.65164 0.0
H3087 H 0.25381 0.95648 0.66043 0.0
H3088 H 0.24043 0.9333 0.64042 0.0
H3089 H 0.28144 0.94464 0.60916 0.0
C3090 C 0.31119 0.99621 0.6525 0.0
C3091 C 0.30918 0.00459 0.66762 0.0
C3092 C 0.295 0.99895 0.67662 0.0
C3093 C 0.28293 0.98525 0.67046 0.0
C3094 C 0.28527 0.97731 0.65538 0.0
C3095 C 0.29909 0.98256 0.64663 0.0
C3096 C 0.29875 0.97196 0.63075 0.0
C3097 C 0.30272 0.9794 0.60989 0.0
C3098 C 0.30907 0.96593 0.63652 0.0
C3099 C 0.28257 0.95993 0.63182 0.0
C3100 C 0.27492 0.96319 0.64604 0.0
C3101 C 0.25972 0.95379 0.64933 0.0
C3102 C 0.2522 0.94069 0.63785 0.0
C3103 C 0.25991 0.93709 0.62337 0.0
C3104 C 0.27528 0.94692 0.62038 0.0
H3105 H 0.02048 0.30517 0.65223 0.0
H3106 H 0.04162 0.34913 0.67904 0.0
H3107 H 0.06574 0.35454 0.66456 0.0
H3108 H 0.0518 0.29856 0.65803 0.0
H3109 H 0.04849 0.28929 0.63405 0.0
H3110 H 0.03319 0.28843 0.64797 0.0
H3111 H 0.02617 0.29894 0.61715 0.0
H3112 H 0.04143 0.29984 0.60316 0.0
H3113 H 0.03999 0.31629 0.60619 0.0
H3114 H 0.08728 0.3556 0.64571 0.0
H3115 H 0.10451 0.35248 0.62336 0.0
H3116 H 0.06907 0.30813 0.60785 0.0
C3117 C 0.03024 0.31584 0.65534 0.0
C3118 C 0.02922 0.3267 0.66689 0.0
C3119 C 0.04218 0.34063 0.6703 0.0
C3120 C 0.05593 0.34379 0.66217 0.0
C3121 C 0.05652 0.33291 0.65062 0.0
C3122 C 0.04402 0.31922 0.64718 0.0
C3123 C 0.04748 0.30981 0.63324 0.0
C3124 C 0.0451 0.29569 0.64397 0.0
C3125 C 0.03822 0.306 0.61378 0.0
C3126 C 0.06383 0.32042 0.62917 0.0
C3127 C 0.06887 0.33363 0.63946 0.0
C3128 C 0.08347 0.34528 0.63762 0.0
C3129 C 0.09315 0.34343 0.62478 0.0
C3130 C 0.08818 0.33006 0.61381 0.0
C3131 C 0.07333 0.31839 0.61626 0.0
H3132 H 0.32237 0.33657 0.65344 0.0
H3133 H 0.29233 0.29386 0.68048 0.0
H3134 H 0.27078 0.29565 0.66798 0.0
H3135 H 0.29961 0.35364 0.66449 0.0
H3136 H 0.3047 0.36397 0.64123 0.0
H3137 H 0.31751 0.3595 0.65326 0.0
H3138 H 0.31905 0.34684 0.62043 0.0
H3139 H 0.30622 0.35121 0.60834 0.0
H3140 H 0.30219 0.33223 0.60932 0.0
H3141 H 0.25265 0.3013 0.64939 0.0
H3142 H 0.23968 0.31062 0.628 0.0
H3143 H 0.28185 0.35067 0.61603 0.0
C3144 C 0.31125 0.32765 0.6569 0.0
C3145 C 0.30897 0.31504 0.66783 0.0
C3146 C 0.29428 0.30363 0.67216 0.0
C3147 C 0.282 0.30456 0.66511 0.0
C3148 C 0.28465 0.3171 0.65413 0.0
C3149 C 0.29894 0.32853 0.65033 0.0
C3150 C 0.29889 0.34072 0.63796 0.0
C3151 C 0.30557 0.35532 0.64996 0.0
C3152 C 0.30707 0.34286 0.61783 0.0
C3153 C 0.28235 0.33419 0.63481 0.0
C3154 C 0.27428 0.32058 0.64424 0.0
C3155 C 0.25886 0.31208 0.64227 0.0
C3156 C 0.25156 0.31754 0.63016 0.0
C3157 C 0.25965 0.33144 0.6202 0.0
C3158 C 0.27524 0.33993 0.62307 0.0
H3159 H 0.71875 0.0048 0.66005 0.0
H3160 H 0.67413 0.99563 0.64595 0.0
H3161 H 0.66881 0.97239 0.62912 0.0
H3162 H 0.72498 0.99198 0.61347 0.0
H3163 H 0.73522 0.98385 0.62407 0.0
H3164 H 0.73533 0.99929 0.6365 0.0
H3165 H 0.72581 0.98386 0.66931 0.0
H3166 H 0.7257 0.96837 0.65698 0.0
H3167 H 0.709 0.96599 0.66872 0.0
H3168 H 0.66856 0.951 0.61223 0.0
H3169 H 0.67355 0.93283 0.59563 0.0
H3170 H 0.71825 0.95518 0.62059 0.0
C3171 C 0.70781 0.99778 0.65365 0.0
C3172 C 0.69683 1.00201 0.65438 0.0
C3173 C 0.68272 0.99264 0.64558 0.0
C3174 C 0.67956 0.97937 0.63603 0.0
C3175 C 0.69063 0.97558 0.63534 0.0
C3176 C 0.70448 0.98447 0.64388 0.0
C3177 C 0.71456 0.97806 0.64005 0.0
C3178 C 0.72833 0.98894 0.62779 0.0
C3179 C 0.71903 0.97382 0.65995 0.0
C3180 C 0.70426 0.96436 0.62779 0.0
C3181 C 0.69049 0.96312 0.62544 0.0
C3182 C 0.67924 0.95173 0.61419 0.0
C3183 C 0.68217 0.94136 0.60492 0.0
C3184 C 0.69624 0.94238 0.60691 0.0
C3185 C 0.70738 0.95404 0.61869 0.0
H3186 H 0.03319 0.71395 0.67331 0.0
H3187 H 0.00311 0.70243 0.62248 0.0
H3188 H 0.02315 0.72208 0.60223 0.0
H3189 H 0.05466 0.75398 0.66435 0.0
H3190 H 0.07225 0.75562 0.67095 0.0
H3191 H 0.05532 0.74132 0.68229 0.0
H3192 H 0.06129 0.72127 0.66993 0.0
H3193 H 0.07826 0.7355 0.65864 0.0
H3194 H 0.06479 0.72026 0.64354 0.0
H3195 H 0.04594 0.74261 0.58734 0.0
H3196 H 0.07126 0.7615 0.57718 0.0
H3197 H 0.08776 0.7593 0.6364 0.0
C3198 C 0.03087 0.71569 0.65797 0.0
C3199 C 0.01659 0.70674 0.64945 0.0
C3200 C 0.01398 0.70914 0.62925 0.0
C3201 C 0.02526 0.72033 0.61766 0.0
C3202 C 0.03921 0.72894 0.62636 0.0
C3203 C 0.04219 0.72667 0.64593 0.0
C3204 C 0.05851 0.73693 0.65096 0.0
C3205 C 0.06028 0.7476 0.66816 0.0
C3206 C 0.06616 0.72795 0.65606 0.0
C3207 C 0.06417 0.74521 0.63114 0.0
C3208 C 0.05273 0.74054 0.61735 0.0
C3209 C 0.055 0.74641 0.598 0.0
C3210 C 0.06942 0.75722 0.59242 0.0
C3211 C 0.08146 0.76198 0.60604 0.0
C3212 C 0.07876 0.7559 0.6257 0.0
H3213 H 0.00698 0.64926 0.69706 0.0
H3214 H 0.95919 0.62281 0.68896 0.0
H3215 H 0.95918 0.60141 0.70506 0.0
H3216 H 0.0142 0.61786 0.68775 0.0
H3217 H 0.02897 0.62484 0.70611 0.0
H3218 H 0.02533 0.63757 0.69223 0.0
H3219 H 0.02245 0.64854 0.72583 0.0
H3220 H 0.02586 0.63574 0.7398 0.0
H3221 H 0.00906 0.63636 0.74414 0.0
H3222 H 0.96387 0.58453 0.72704 0.0
H3223 H 0.97313 0.57222 0.74937 0.0
H3224 H 0.01843 0.60821 0.73903 0.0
C3225 C 0.99659 0.63884 0.69824 0.0
C3226 C 0.98309 0.63766 0.69176 0.0
C3227 C 0.96967 0.6239 0.69366 0.0
C3228 C 0.96955 0.6117 0.70285 0.0
C3229 C 0.98298 0.61333 0.7096 0.0
C3230 C 0.99631 0.62642 0.70693 0.0
C3231 C 0.00913 0.62534 0.71599 0.0
C3232 C 0.02005 0.62646 0.69954 0.0
C3233 C 0.01708 0.63719 0.73241 0.0
C3234 C 1.00083 0.60985 0.72491 0.0
C3235 C 0.98577 0.60314 0.72113 0.0
C3236 C 0.97571 0.58946 0.72955 0.0
C3237 C 0.98117 0.58246 0.74218 0.0
C3238 C 0.99666 0.58896 0.74609 0.0
C3239 C 0.00654 0.60279 0.73685 0.0
H3240 H 0.3945 0.35755 0.69879 0.0
H3241 H 0.35353 0.35683 0.71391 0.0
H3242 H 0.36788 0.38119 0.73045 0.0
H3243 H 0.41243 0.37267 0.74507 0.0
H3244 H 0.43077 0.3842 0.73472 0.0
H3245 H 0.41759 0.3675 0.72181 0.0
H3246 H 0.42058 0.38268 0.68949 0.0
H3247 H 0.43386 0.39945 0.70228 0.0
H3248 H 0.41765 0.39834 0.69068 0.0
H3249 H 0.38597 0.40428 0.74752 0.0
H3250 H 0.40701 0.42512 0.76466 0.0
H3251 H 0.437 0.41164 0.73935 0.0
C3252 C 0.38864 0.36274 0.70519 0.0
C3253 C 0.37291 0.35539 0.70493 0.0
C3254 C 0.36556 0.36229 0.7139 0.0
C3255 C 0.37362 0.37615 0.72329 0.0
C3256 C 0.38906 0.38298 0.72372 0.0
C3257 C 0.39656 0.37658 0.71494 0.0
C3258 C 0.41318 0.38593 0.71895 0.0
C3259 C 0.41882 0.37704 0.73085 0.0
C3260 C 0.42183 0.39196 0.69917 0.0
C3261 C 0.41373 0.39836 0.73165 0.0
C3262 C 0.39966 0.39645 0.73395 0.0
C3263 C 0.39709 0.40606 0.74557 0.0
C3264 C 0.40919 0.41797 0.75516 0.0
C3265 C 0.42379 0.42027 0.75316 0.0
C3266 C 0.42602 0.41027 0.74116 0.0
H3267 H 0.66249 0.04836 0.70091 0.0
H3268 H 0.66128 0.00742 0.71738 0.0
H3269 H 0.63724 0.99876 0.73458 0.0
H3270 H 0.6484 0.05286 0.74757 0.0
H3271 H 0.63777 0.06045 0.73661 0.0
H3272 H 0.65423 0.0629 0.72412 0.0
H3273 H 0.63885 0.05094 0.69178 0.0
H3274 H 0.62232 0.04841 0.70422 0.0
H3275 H 0.62254 0.03271 0.6931 0.0
H3276 H 0.61375 0.99479 0.75072 0.0
H3277 H 0.59347 0.99664 0.7672 0.0
H3278 H 0.61019 0.04051 0.74139 0.0
C3279 C 0.65706 0.03751 0.70795 0.0
C3280 C 0.66366 0.02849 0.7077 0.0
C3281 C 0.65638 0.01448 0.71738 0.0
C3282 C 0.6427 0.00944 0.7271 0.0
C3283 C 0.63649 0.0186 0.72716 0.0
C3284 C 0.64348 0.0324 0.718 0.0
C3285 C 0.63491 0.04046 0.72147 0.0
C3286 C 0.64439 0.05503 0.73314 0.0
C3287 C 0.62932 0.04329 0.70145 0.0
C3288 C 0.62211 0.02911 0.73417 0.0
C3289 C 0.62313 0.01649 0.737 0.0
C3290 C 0.61278 0.00458 0.74851 0.0
C3291 C 0.60122 0.00568 0.7577 0.0
C3292 C 0.60017 0.01867 0.7555 0.0
C3293 C 0.6107 0.03044 0.74335 0.0
loop_
_geom_bond_atom_site_label_1
_geom_bond_atom_site_label_2
_geom_bond_distance
_geom_bond_site_symmetry_2
_ccdc_geom_bond_type
In0 O1 2.326 . S
In0 O2 2.326 . S
In0 O6 2.266 1_455 S
In0 O7 2.326 1_554 S
In0 O8 2.266 1_554 S
In0 O9 2.326 1_454 S
In0 O11 2.294 . S
In0 O12 2.326 . S
O1 In0 2.326 . S
O1 C10 1.268 . S
O2 In0 2.326 . S
O2 C10 1.252 . S
C3 O6 1.252 1_556 S
C3 O7 1.260 1_655 S
C4 O11 1.240 . S
C4 O12 1.252 . S
C5 O8 1.252 . S
C5 O9 1.260 1_455 S
O6 In0 2.266 1_655 S
O6 C3 1.252 1_554 S
O7 In0 2.326 1_556 S
O7 C3 1.260 1_455 S
O8 In0 2.266 1_556 S
O8 C5 1.252 . S
O9 In0 2.326 1_656 S
O9 C5 1.260 1_655 S
C10 O1 1.268 . S
C10 O2 1.252 . S
O11 In0 2.294 . S
O11 C4 1.240 . S
O12 In0 2.326 . S
O12 C4 1.252 . S
In13 O14 2.294 . S
In13 O15 2.326 . S
In13 O19 2.266 . S
In13 O20 2.326 1_554 S
In13 O21 2.266 1_554 S
In13 O22 2.326 1_554 S
In13 O24 2.294 . S
In13 O25 2.326 . S
O14 In13 2.294 . S
O14 C23 1.240 . S
O15 In13 2.326 . S
O15 C23 1.252 . S
C16 O19 1.252 1_556 S
C16 O20 1.260 . S
C17 O24 1.240 . S
C17 O25 1.252 . S
C18 O21 1.252 . S
C18 O22 1.260 . S
O19 In13 2.266 . S
O19 C16 1.252 1_554 S
O20 In13 2.326 1_556 S
O20 C16 1.260 . S
O21 In13 2.266 1_556 S
O21 C18 1.252 . S
O22 In13 2.326 1_556 S
O22 C18 1.260 . S
C23 O14 1.240 . S
C23 O15 1.252 . S
O24 In13 2.294 . S
O24 C17 1.240 . S
O25 In13 2.326 . S
O25 C17 1.252 . S
In26 O27 2.294 . S
In26 O28 2.326 1_554 S
In26 O32 2.266 . S
In26 O33 2.326 1_545 S
In26 O34 2.266 1_545 S
In26 O35 2.326 . S
In26 O37 2.294 1_554 S
In26 O38 2.326 1_554 S
O27 In26 2.294 . S
O27 C36 1.240 1_554 S
O28 In26 2.326 1_556 S
O28 C36 1.252 . S
C29 O32 1.252 . S
C29 O33 1.260 1_545 S
C30 O37 1.240 . S
C30 O38 1.252 . S
C31 O34 1.252 . S
C31 O35 1.260 1_565 S
O32 In26 2.266 . S
O32 C29 1.252 . S
O33 In26 2.326 1_565 S
O33 C29 1.260 1_565 S
O34 In26 2.266 1_565 S
O34 C31 1.252 . S
O35 In26 2.326 . S
O35 C31 1.260 1_545 S
C36 O27 1.240 1_556 S
C36 O28 1.252 . S
O37 In26 2.294 1_556 S
O37 C30 1.240 . S
O38 In26 2.326 1_556 S
O38 C30 1.252 . S
In39 O40 2.294 1_554 S
In39 O41 2.326 1_454 S
In39 O45 2.266 . S
In39 O46 2.326 . S
In39 O47 2.274 . S
In39 O48 2.326 . S
In39 O50 2.294 1_455 S
In39 O51 2.326 1_554 S
O40 In39 2.294 1_556 S
O40 C49 1.240 . S
O41 In39 2.326 1_656 S
O41 C49 1.252 1_655 S
C42 O45 1.252 . S
C42 O46 1.260 . S
C43 O50 1.240 1_556 S
C43 O51 1.252 1_655 S
C44 O47 1.311 . S
C44 O48 1.260 . S
O45 In39 2.266 . S
O45 C42 1.252 . S
O46 In39 2.326 . S
O46 C42 1.260 . S
O47 In39 2.274 . S
O47 C44 1.311 . S
O48 In39 2.326 . S
O48 C44 1.260 . S
C49 O40 1.240 . S
C49 O41 1.252 1_455 S
O50 In39 2.294 1_655 S
O50 C43 1.240 1_554 S
O51 In39 2.326 1_556 S
O51 C43 1.252 1_455 S
In52 O53 2.294 1_554 S
In52 O54 2.326 1_554 S
In52 O58 2.266 . S
In52 O59 2.326 . S
In52 O60 2.266 . S
In52 O61 2.326 . S
In52 O63 2.294 . S
In52 O64 2.326 1_554 S
O53 In52 2.294 1_556 S
O53 C62 1.240 . S
O54 In52 2.326 1_556 S
O54 C62 1.252 . S
C55 O58 1.252 . S
C55 O59 1.260 . S
C56 O63 1.240 1_556 S
C56 O64 1.252 . S
C57 O60 1.252 . S
C57 O61 1.260 . S
O58 In52 2.266 . S
O58 C55 1.252 . S
O59 In52 2.326 . S
O59 C55 1.260 . S
O60 In52 2.266 . S
O60 C57 1.252 . S
O61 In52 2.326 . S
O61 C57 1.260 . S
C62 O53 1.240 . S
C62 O54 1.252 . S
O63 In52 2.294 . S
O63 C56 1.240 1_554 S
O64 In52 2.326 1_556 S
O64 C56 1.252 . S
In65 O66 2.294 . S
In65 O67 2.326 1_545 S
In65 O71 2.266 . S
In65 O72 2.326 1_554 S
In65 O73 2.266 1_554 S
In65 O74 2.326 1_554 S
In65 O76 2.294 1_545 S
In65 O77 2.326 . S
O66 In65 2.294 . S
O66 C75 1.240 . S
O67 In65 2.326 1_565 S
O67 C75 1.252 1_565 S
C68 O71 1.252 1_556 S
C68 O72 1.260 . S
C69 O76 1.240 . S
C69 O77 1.252 1_565 S
C70 O73 1.252 . S
C70 O74 1.260 . S
O71 In65 2.266 . S
O71 C68 1.252 1_554 S
O72 In65 2.326 1_556 S
O72 C68 1.260 . S
O73 In65 2.266 1_556 S
O73 C70 1.252 . S
O74 In65 2.326 1_556 S
O74 C70 1.260 . S
C75 O66 1.240 . S
C75 O67 1.252 1_545 S
O76 In65 2.294 1_565 S
O76 C69 1.240 . S
O77 In65 2.326 . S
O77 C69 1.252 1_545 S
In78 O79 2.294 . S
In78 O80 2.326 . S
In78 O84 2.266 . S
In78 O85 2.326 . S
In78 O86 2.266 . S
In78 O87 2.326 . S
In78 O89 2.294 . S
In78 O90 2.326 . S
O79 In78 2.294 . S
O79 C88 1.240 . S
O80 In78 2.326 . S
O80 C88 1.252 . S
C81 O84 1.252 . S
C81 O85 1.260 . S
C82 O89 1.240 . S
C82 O90 1.252 . S
C83 O86 1.252 . S
C83 O87 1.260 . S
O84 In78 2.266 . S
O84 C81 1.252 . S
O85 In78 2.326 . S
O85 C81 1.260 . S
O86 In78 2.266 . S
O86 C83 1.252 . S
O87 In78 2.326 . S
O87 C83 1.260 . S
C88 O79 1.240 . S
C88 O80 1.252 . S
O89 In78 2.294 . S
O89 C82 1.240 . S
O90 In78 2.326 . S
O90 C82 1.252 . S
In91 O92 2.294 . S
In91 O93 2.326 . S
In91 O97 2.266 . S
In91 O98 2.326 . S
In91 O99 2.266 . S
In91 O100 2.326 . S
In91 O102 2.294 1_565 S
In91 O103 2.300 1_565 S
O92 In91 2.294 . S
O92 C101 1.240 . S
O93 In91 2.326 . S
O93 C101 1.252 . S
C94 O97 1.252 . S
C94 O98 1.260 . S
C95 O102 1.240 . S
C95 O103 1.289 . S
C96 O99 1.252 . S
C96 O100 1.260 . S
O97 In91 2.266 . S
O97 C94 1.252 . S
O98 In91 2.326 . S
O98 C94 1.260 . S
O99 In91 2.266 . S
O99 C96 1.252 . S
O100 In91 2.326 . S
O100 C96 1.260 . S
C101 O92 1.240 . S
C101 O93 1.252 . S
O102 In91 2.294 1_545 S
O102 C95 1.240 . S
O103 In91 2.300 1_545 S
O103 C95 1.289 . S
In104 O105 2.294 . S
In104 O106 2.326 . S
In104 O110 2.266 . S
In104 O111 2.326 . S
In104 O112 2.266 . S
In104 O113 2.326 . S
In104 O115 2.294 . S
In104 O116 2.326 . S
O105 In104 2.294 . S
O105 C114 1.240 . S
O106 In104 2.326 . S
O106 C114 1.252 . S
C107 O110 1.252 . S
C107 O111 1.260 . S
C108 O115 1.240 . S
C108 O116 1.252 . S
C109 O112 1.252 . S
C109 O113 1.260 . S
O110 In104 2.266 . S
O110 C107 1.252 . S
O111 In104 2.326 . S
O111 C107 1.260 . S
O112 In104 2.266 . S
O112 C109 1.252 . S
O113 In104 2.326 . S
O113 C109 1.260 . S
C114 O105 1.240 . S
C114 O106 1.252 . S
O115 In104 2.294 . S
O115 C108 1.240 . S
O116 In104 2.326 . S
O116 C108 1.252 . S
In117 O118 2.294 . S
In117 O119 2.326 . S
In117 O123 2.266 1_565 S
In117 O124 2.315 1_565 S
In117 O125 2.266 . S
In117 O126 2.326 . S
In117 O128 2.294 . S
In117 O129 2.326 . S
O118 In117 2.294 . S
O118 C127 1.240 . S
O119 In117 2.326 . S
O119 C127 1.252 . S
C120 O123 1.252 . S
C120 O124 1.260 . S
C121 O128 1.240 . S
C121 O129 1.252 . S
C122 O125 1.252 . S
C122 O126 1.260 . S
O123 In117 2.266 1_545 S
O123 C120 1.252 . S
O124 In117 2.315 1_545 S
O124 C120 1.260 . S
O125 In117 2.266 . S
O125 C122 1.252 . S
O126 In117 2.326 . S
O126 C122 1.260 . S
C127 O118 1.240 . S
C127 O119 1.252 . S
O128 In117 2.294 . S
O128 C121 1.240 . S
O129 In117 2.326 . S
O129 C121 1.252 . S
In130 O131 2.294 . S
In130 O132 2.326 . S
In130 O136 2.266 . S
In130 O137 2.326 . S
In130 O138 2.266 . S
In130 O139 2.326 . S
In130 O141 2.294 . S
In130 O142 2.326 . S
O131 In130 2.294 . S
O131 C140 1.240 . S
O132 In130 2.326 . S
O132 C140 1.252 . S
C133 O136 1.252 . S
C133 O137 1.260 . S
C134 O141 1.240 . S
C134 O142 1.252 . S
C135 O138 1.252 . S
C135 O139 1.260 . S
O136 In130 2.266 . S
O136 C133 1.252 . S
O137 In130 2.326 . S
O137 C133 1.260 . S
O138 In130 2.266 . S
O138 C135 1.252 . S
O139 In130 2.326 . S
O139 C135 1.260 . S
C140 O131 1.240 . S
C140 O132 1.252 . S
O141 In130 2.294 . S
O141 C134 1.240 . S
O142 In130 2.326 . S
O142 C134 1.252 . S
In143 O144 2.294 . S
In143 O145 2.326 . S
In143 O149 2.266 . S
In143 O150 2.326 . S
In143 O151 2.266 . S
In143 O152 2.326 . S
In143 O154 2.294 . S
In143 O155 2.326 . S
O144 In143 2.294 . S
O144 C153 1.240 . S
O145 In143 2.326 . S
O145 C153 1.252 . S
C146 O149 1.252 . S
C146 O150 1.260 . S
C147 O154 1.240 . S
C147 O155 1.252 . S
C148 O151 1.252 . S
C148 O152 1.260 . S
O149 In143 2.266 . S
O149 C146 1.252 . S
O150 In143 2.326 . S
O150 C146 1.260 . S
O151 In143 2.266 . S
O151 C148 1.252 . S
O152 In143 2.326 . S
O152 C148 1.260 . S
C153 O144 1.240 . S
C153 O145 1.252 . S
O154 In143 2.294 . S
O154 C147 1.240 . S
O155 In143 2.326 . S
O155 C147 1.252 . S
In156 O157 2.294 . S
In156 O158 2.326 . S
In156 O162 2.266 . S
In156 O163 2.326 . S
In156 O164 2.266 . S
In156 O165 2.326 . S
In156 O167 2.294 . S
In156 O168 2.326 . S
O157 In156 2.294 . S
O157 C166 1.240 . S
O158 In156 2.326 . S
O158 C166 1.252 . S
C159 O162 1.252 . S
C159 O163 1.260 . S
C160 O167 1.240 . S
C160 O168 1.252 . S
C161 O164 1.252 . S
C161 O165 1.260 . S
O162 In156 2.266 . S
O162 C159 1.252 . S
O163 In156 2.326 . S
O163 C159 1.260 . S
O164 In156 2.266 . S
O164 C161 1.252 . S
O165 In156 2.326 . S
O165 C161 1.260 . S
C166 O157 1.240 . S
C166 O158 1.252 . S
O167 In156 2.294 . S
O167 C160 1.240 . S
O168 In156 2.326 . S
O168 C160 1.252 . S
In169 O170 2.294 . S
In169 O171 2.326 . S
In169 O175 2.266 . S
In169 O176 2.326 . S
In169 O177 2.266 1_655 S
In169 O178 2.323 1_655 S
In169 O180 2.294 . S
In169 O181 2.326 . S
O170 In169 2.294 . S
O170 C179 1.240 . S
O171 In169 2.326 . S
O171 C179 1.252 . S
C172 O175 1.252 . S
C172 O176 1.260 . S
C173 O180 1.240 . S
C173 O181 1.252 . S
C174 O177 1.252 . S
C174 O178 1.264 . S
O175 In169 2.266 . S
O175 C172 1.252 . S
O176 In169 2.326 . S
O176 C172 1.260 . S
O177 In169 2.266 1_455 S
O177 C174 1.252 . S
O178 In169 2.323 1_455 S
O178 C174 1.264 . S
C179 O170 1.240 . S
C179 O171 1.252 . S
O180 In169 2.294 . S
O180 C173 1.240 . S
O181 In169 2.326 . S
O181 C173 1.252 . S
In182 O183 2.294 . S
In182 O184 2.326 . S
In182 O188 2.266 . S
In182 O189 2.326 . S
In182 O190 2.266 . S
In182 O191 2.326 . S
In182 O193 2.294 . S
In182 O194 2.326 . S
O183 In182 2.294 . S
O183 C192 1.240 . S
O184 In182 2.326 . S
O184 C192 1.252 . S
C185 O188 1.252 . S
C185 O189 1.260 . S
C186 O193 1.240 . S
C186 O194 1.252 . S
C187 O190 1.252 . S
C187 O191 1.260 . S
O188 In182 2.266 . S
O188 C185 1.252 . S
O189 In182 2.326 . S
O189 C185 1.260 . S
O190 In182 2.266 . S
O190 C187 1.252 . S
O191 In182 2.326 . S
O191 C187 1.260 . S
C192 O183 1.240 . S
C192 O184 1.252 . S
O193 In182 2.294 . S
O193 C186 1.240 . S
O194 In182 2.326 . S
O194 C186 1.252 . S
In195 O196 2.294 . S
In195 O197 2.326 . S
In195 O201 2.266 . S
In195 O202 2.326 . S
In195 O203 2.266 . S
In195 O204 2.326 . S
In195 O206 2.294 . S
In195 O207 2.326 . S
O196 In195 2.294 . S
O196 C205 1.240 . S
O197 In195 2.326 . S
O197 C205 1.252 . S
C198 O201 1.252 . S
C198 O202 1.260 . S
C199 O206 1.240 . S
C199 O207 1.252 . S
C200 O203 1.252 . S
C200 O204 1.260 . S
O201 In195 2.266 . S
O201 C198 1.252 . S
O202 In195 2.326 . S
O202 C198 1.260 . S
O203 In195 2.266 . S
O203 C200 1.252 . S
O204 In195 2.326 . S
O204 C200 1.260 . S
C205 O196 1.240 . S
C205 O197 1.252 . S
O206 In195 2.294 . S
O206 C199 1.240 . S
O207 In195 2.326 . S
O207 C199 1.252 . S
In208 O209 2.294 . S
In208 O210 2.326 . S
In208 O214 2.266 . S
In208 O215 2.326 . S
In208 O216 2.266 . S
In208 O217 2.326 . S
In208 O219 2.294 . S
In208 O220 2.326 . S
O209 In208 2.294 . S
O209 C218 1.240 . S
O210 In208 2.326 . S
O210 C218 1.252 . S
C211 O214 1.252 . S
C211 O215 1.260 . S
C212 O219 1.240 . S
C212 O220 1.252 . S
C213 O216 1.252 . S
C213 O217 1.260 . S
O214 In208 2.266 . S
O214 C211 1.252 . S
O215 In208 2.326 . S
O215 C211 1.260 . S
O216 In208 2.266 . S
O216 C213 1.252 . S
O217 In208 2.326 . S
O217 C213 1.260 . S
C218 O209 1.240 . S
C218 O210 1.252 . S
O219 In208 2.294 . S
O219 C212 1.240 . S
O220 In208 2.326 . S
O220 C212 1.252 . S
In221 O222 2.294 . S
In221 O223 2.326 . S
In221 O227 2.266 . S
In221 O228 2.326 . S
In221 O229 2.266 1_655 S
In221 O230 2.323 . S
In221 O232 2.294 . S
In221 O233 2.326 . S
O222 In221 2.294 . S
O222 C231 1.240 . S
O223 In221 2.326 . S
O223 C231 1.252 . S
C224 O227 1.252 . S
C224 O228 1.260 . S
C225 O232 1.240 . S
C225 O233 1.252 . S
C226 O229 1.252 . S
C226 O230 1.260 1_455 S
O227 In221 2.266 . S
O227 C224 1.252 . S
O228 In221 2.326 . S
O228 C224 1.260 . S
O229 In221 2.266 1_455 S
O229 C226 1.252 . S
O230 In221 2.323 . S
O230 C226 1.260 1_655 S
C231 O222 1.240 . S
C231 O223 1.252 . S
O232 In221 2.294 . S
O232 C225 1.240 . S
O233 In221 2.326 . S
O233 C225 1.252 . S
H234 C261 0.929 . S
N235 C260 1.433 . S
N235 C266 1.435 . S
N235 C272 1.423 . S
H236 C262 0.930 . S
H237 C265 0.931 . S
H238 C264 0.929 . S
H239 C267 0.930 . S
H240 C268 0.932 . S
H241 C271 0.929 . S
H242 C270 0.931 . S
H243 C273 0.929 . S
H244 C277 0.932 . S
H245 C274 0.931 . S
H246 C276 0.929 . S
H247 C279 0.929 . S
H248 C280 0.930 . S
H249 C282 0.929 . S
H250 C283 0.931 . S
H251 C285 0.930 . S
H252 C286 0.932 . S
H253 C288 0.931 . S
H254 C289 0.929 . S
H255 C291 0.929 . S
H256 C292 0.931 . S
H257 C294 0.929 . S
N258 C278 1.433 . S
N258 C284 1.435 . S
N258 C290 1.423 . S
H259 C295 0.932 . S
C260 N235 1.433 . S
C260 C261 1.363 . S
C260 C265 1.370 . S
C261 H234 0.929 . S
C261 C260 1.363 . S
C261 C262 1.385 . S
C262 H236 0.930 . S
C262 C261 1.385 . S
C262 C263 1.357 . S
C263 C262 1.357 . S
C263 C264 1.406 . S
C264 H238 0.929 . S
C264 C263 1.406 . S
C264 C265 1.391 . S
C265 H237 0.931 . S
C265 C260 1.370 . S
C265 C264 1.391 . S
C266 N235 1.435 . S
C266 C267 1.358 . S
C266 C271 1.371 . S
C267 H239 0.930 . S
C267 C266 1.358 . S
C267 C268 1.405 . S
C268 H240 0.932 . S
C268 C267 1.405 . S
C268 C269 1.383 . S
C269 C268 1.383 . S
C269 C270 1.393 . S
C270 H242 0.931 . S
C270 C269 1.393 . S
C270 C271 1.382 . S
C271 H241 0.929 . S
C271 C266 1.371 . S
C271 C270 1.382 . S
C272 N235 1.423 . S
C272 C273 1.362 . S
C272 C277 1.388 . S
C273 H243 0.929 . S
C273 C272 1.362 . S
C273 C274 1.376 . S
C274 H245 0.931 . S
C274 C273 1.376 . S
C274 C275 1.396 . S
C275 C274 1.396 . S
C275 C276 1.348 . S
C275 C293 1.472 . S
C276 H246 0.929 . S
C276 C275 1.348 . S
C276 C277 1.443 . S
C277 H244 0.932 . S
C277 C272 1.388 . S
C277 C276 1.443 . S
C278 N258 1.433 . S
C278 C279 1.363 . S
C278 C283 1.370 . S
C279 H247 0.929 . S
C279 C278 1.363 . S
C279 C280 1.385 . S
C280 H248 0.930 . S
C280 C279 1.385 . S
C280 C281 1.357 . S
C281 C280 1.357 . S
C281 C282 1.406 . S
C282 H249 0.929 . S
C282 C281 1.406 . S
C282 C283 1.391 . S
C283 H250 0.931 . S
C283 C278 1.370 . S
C283 C282 1.391 . S
C284 N258 1.435 . S
C284 C285 1.358 . S
C284 C289 1.371 . S
C285 H251 0.930 . S
C285 C284 1.358 . S
C285 C286 1.405 . S
C286 H252 0.932 . S
C286 C285 1.405 . S
C286 C287 1.383 . S
C287 C286 1.383 . S
C287 C288 1.393 . S
C288 H253 0.931 . S
C288 C287 1.393 . S
C288 C289 1.382 . S
C289 H254 0.929 . S
C289 C284 1.371 . S
C289 C288 1.382 . S
C290 N258 1.423 . S
C290 C291 1.362 . S
C290 C295 1.388 . S
C291 H255 0.929 . S
C291 C290 1.362 . S
C291 C292 1.376 . S
C292 H256 0.931 . S
C292 C291 1.376 . S
C292 C293 1.396 . S
C293 C275 1.472 . S
C293 C292 1.396 . S
C293 C294 1.348 . S
C294 H257 0.929 . S
C294 C293 1.348 . S
C294 C295 1.443 . S
C295 H259 0.932 . S
C295 C290 1.388 . S
C295 C294 1.443 . S
H296 C323 0.929 . S
N297 C322 1.433 . S
N297 C328 1.435 . S
N297 C334 1.423 . S
H298 C324 0.930 . S
H299 C327 0.931 . S
H300 C326 0.929 . S
H301 C329 0.930 . S
H302 C330 0.932 . S
H303 C333 0.929 . S
H304 C332 0.931 . S
H305 C335 0.929 . S
H306 C339 0.932 . S
H307 C336 0.931 . S
H308 C338 0.929 . S
H309 C341 0.929 . S
H310 C342 0.930 . S
H311 C344 0.929 . S
H312 C345 0.931 . S
H313 C347 0.930 . S
H314 C348 0.932 . S
H315 C350 0.931 . S
H316 C351 0.929 . S
H317 C353 0.929 . S
H318 C354 0.931 . S
H319 C356 0.929 . S
N320 C340 1.433 . S
N320 C346 1.435 . S
N320 C352 1.423 . S
H321 C357 0.932 . S
C322 N297 1.433 . S
C322 C323 1.363 . S
C322 C327 1.370 . S
C323 H296 0.929 . S
C323 C322 1.363 . S
C323 C324 1.385 . S
C324 H298 0.930 . S
C324 C323 1.385 . S
C324 C325 1.357 . S
C325 C324 1.357 . S
C325 C326 1.406 . S
C326 H300 0.929 . S
C326 C325 1.406 . S
C326 C327 1.391 . S
C327 H299 0.931 . S
C327 C322 1.370 . S
C327 C326 1.391 . S
C328 N297 1.435 . S
C328 C329 1.358 . S
C328 C333 1.371 . S
C329 H301 0.930 . S
C329 C328 1.358 . S
C329 C330 1.405 . S
C330 H302 0.932 . S
C330 C329 1.405 . S
C330 C331 1.383 . S
C331 C330 1.383 . S
C331 C332 1.393 . S
C332 H304 0.931 . S
C332 C331 1.393 . S
C332 C333 1.382 . S
C333 H303 0.929 . S
C333 C328 1.371 . S
C333 C332 1.382 . S
C334 N297 1.423 . S
C334 C335 1.362 . S
C334 C339 1.388 . S
C335 H305 0.929 . S
C335 C334 1.362 . S
C335 C336 1.376 . S
C336 H307 0.931 . S
C336 C335 1.376 . S
C336 C337 1.396 . S
C337 C336 1.396 . S
C337 C338 1.348 . S
C337 C355 1.472 . S
C338 H308 0.929 . S
C338 C337 1.348 . S
C338 C339 1.443 . S
C339 H306 0.932 . S
C339 C334 1.388 . S
C339 C338 1.443 . S
C340 N320 1.433 . S
C340 C341 1.363 . S
C340 C345 1.370 . S
C341 H309 0.929 . S
C341 C340 1.363 . S
C341 C342 1.385 . S
C342 H310 0.930 . S
C342 C341 1.385 . S
C342 C343 1.357 . S
C343 C342 1.357 . S
C343 C344 1.406 . S
C344 H311 0.929 . S
C344 C343 1.406 . S
C344 C345 1.391 . S
C345 H312 0.931 . S
C345 C340 1.370 . S
C345 C344 1.391 . S
C346 N320 1.435 . S
C346 C347 1.358 . S
C346 C351 1.371 . S
C347 H313 0.930 . S
C347 C346 1.358 . S
C347 C348 1.405 . S
C348 H314 0.932 . S
C348 C347 1.405 . S
C348 C349 1.383 . S
C349 C348 1.383 . S
C349 C350 1.393 . S
C350 H315 0.931 . S
C350 C349 1.393 . S
C350 C351 1.382 . S
C351 H316 0.929 . S
C351 C346 1.371 . S
C351 C350 1.382 . S
C352 N320 1.423 . S
C352 C353 1.362 . S
C352 C357 1.388 . S
C353 H317 0.929 . S
C353 C352 1.362 . S
C353 C354 1.376 . S
C354 H318 0.931 . S
C354 C353 1.376 . S
C354 C355 1.396 . S
C355 C337 1.472 . S
C355 C354 1.396 . S
C355 C356 1.348 . S
C356 H319 0.929 . S
C356 C355 1.348 . S
C356 C357 1.443 . S
C357 H321 0.932 . S
C357 C352 1.388 . S
C357 C356 1.443 . S
H358 C385 0.929 . S
N359 C384 1.433 . S
N359 C390 1.435 . S
N359 C396 1.423 . S
H360 C386 0.930 . S
H361 C389 0.931 . S
H362 C388 0.929 . S
H363 C391 0.930 . S
H364 C392 0.932 . S
H365 C395 0.929 . S
H366 C394 0.931 . S
H367 C397 0.929 . S
H368 C401 0.932 . S
H369 C398 0.931 . S
H370 C400 0.929 . S
H371 C403 0.929 . S
H372 C404 0.930 . S
H373 C406 0.929 . S
H374 C407 0.931 . S
H375 C409 0.930 . S
H376 C410 0.932 . S
H377 C412 0.931 . S
H378 C413 0.929 . S
H379 C415 0.929 . S
H380 C416 0.931 . S
H381 C418 0.929 . S
N382 C402 1.433 . S
N382 C408 1.435 . S
N382 C414 1.423 . S
H383 C419 0.932 . S
C384 N359 1.433 . S
C384 C385 1.363 . S
C384 C389 1.370 . S
C385 H358 0.929 . S
C385 C384 1.363 . S
C385 C386 1.385 . S
C386 H360 0.930 . S
C386 C385 1.385 . S
C386 C387 1.357 . S
C387 C386 1.357 . S
C387 C388 1.406 . S
C388 H362 0.929 . S
C388 C387 1.406 . S
C388 C389 1.391 . S
C389 H361 0.931 . S
C389 C384 1.370 . S
C389 C388 1.391 . S
C390 N359 1.435 . S
C390 C391 1.358 . S
C390 C395 1.371 . S
C391 H363 0.930 . S
C391 C390 1.358 . S
C391 C392 1.405 . S
C392 H364 0.932 . S
C392 C391 1.405 . S
C392 C393 1.383 . S
C393 C392 1.383 . S
C393 C394 1.393 . S
C394 H366 0.931 . S
C394 C393 1.393 . S
C394 C395 1.382 . S
C395 H365 0.929 . S
C395 C390 1.371 . S
C395 C394 1.382 . S
C396 N359 1.423 . S
C396 C397 1.362 . S
C396 C401 1.388 . S
C397 H367 0.929 . S
C397 C396 1.362 . S
C397 C398 1.376 . S
C398 H369 0.931 . S
C398 C397 1.376 . S
C398 C399 1.396 . S
C399 C398 1.396 . S
C399 C400 1.348 . S
C399 C417 1.472 . S
C400 H370 0.929 . S
C400 C399 1.348 . S
C400 C401 1.443 . S
C401 H368 0.932 . S
C401 C396 1.388 . S
C401 C400 1.443 . S
C402 N382 1.433 . S
C402 C403 1.363 . S
C402 C407 1.370 . S
C403 H371 0.929 . S
C403 C402 1.363 . S
C403 C404 1.385 . S
C404 H372 0.930 . S
C404 C403 1.385 . S
C404 C405 1.357 . S
C405 C404 1.357 . S
C405 C406 1.406 . S
C406 H373 0.929 . S
C406 C405 1.406 . S
C406 C407 1.391 . S
C407 H374 0.931 . S
C407 C402 1.370 . S
C407 C406 1.391 . S
C408 N382 1.435 . S
C408 C409 1.358 . S
C408 C413 1.371 . S
C409 H375 0.930 . S
C409 C408 1.358 . S
C409 C410 1.405 . S
C410 H376 0.932 . S
C410 C409 1.405 . S
C410 C411 1.383 . S
C411 C410 1.383 . S
C411 C412 1.393 . S
C412 H377 0.931 . S
C412 C411 1.393 . S
C412 C413 1.382 . S
C413 H378 0.929 . S
C413 C408 1.371 . S
C413 C412 1.382 . S
C414 N382 1.423 . S
C414 C415 1.362 . S
C414 C419 1.388 . S
C415 H379 0.929 . S
C415 C414 1.362 . S
C415 C416 1.376 . S
C416 H380 0.931 . S
C416 C415 1.376 . S
C416 C417 1.396 . S
C417 C399 1.472 . S
C417 C416 1.396 . S
C417 C418 1.348 . S
C418 H381 0.929 . S
C418 C417 1.348 . S
C418 C419 1.443 . S
C419 H383 0.932 . S
C419 C414 1.388 . S
C419 C418 1.443 . S
H420 C447 0.929 . S
N421 C446 1.433 . S
N421 C452 1.435 . S
N421 C458 1.423 . S
H422 C448 0.930 . S
H423 C451 0.931 . S
H424 C450 0.929 . S
H425 C453 0.930 . S
H426 C454 0.932 . S
H427 C457 0.929 . S
H428 C456 0.931 . S
H429 C459 0.929 . S
H430 C463 0.932 . S
H431 C460 0.931 . S
H432 C462 0.929 . S
H433 C465 0.929 . S
H434 C466 0.930 . S
H435 C468 0.929 . S
H436 C469 0.931 . S
H437 C471 0.930 . S
H438 C472 0.932 . S
H439 C474 0.931 . S
H440 C475 0.929 . S
H441 C477 0.929 . S
H442 C478 0.931 . S
H443 C480 0.929 . S
N444 C464 1.433 . S
N444 C470 1.435 . S
N444 C476 1.423 . S
H445 C481 0.932 . S
C446 N421 1.433 . S
C446 C447 1.363 . S
C446 C451 1.370 . S
C447 H420 0.929 . S
C447 C446 1.363 . S
C447 C448 1.385 . S
C448 H422 0.930 . S
C448 C447 1.385 . S
C448 C449 1.357 . S
C449 C448 1.357 . S
C449 C450 1.406 . S
C450 H424 0.929 . S
C450 C449 1.406 . S
C450 C451 1.391 . S
C451 H423 0.931 . S
C451 C446 1.370 . S
C451 C450 1.391 . S
C452 N421 1.435 . S
C452 C453 1.358 . S
C452 C457 1.371 . S
C453 H425 0.930 . S
C453 C452 1.358 . S
C453 C454 1.405 . S
C454 H426 0.932 . S
C454 C453 1.405 . S
C454 C455 1.383 . S
C455 C454 1.383 . S
C455 C456 1.393 . S
C456 H428 0.931 . S
C456 C455 1.393 . S
C456 C457 1.382 . S
C457 H427 0.929 . S
C457 C452 1.371 . S
C457 C456 1.382 . S
C458 N421 1.423 . S
C458 C459 1.362 . S
C458 C463 1.388 . S
C459 H429 0.929 . S
C459 C458 1.362 . S
C459 C460 1.376 . S
C460 H431 0.931 . S
C460 C459 1.376 . S
C460 C461 1.396 . S
C461 C460 1.396 . S
C461 C462 1.348 . S
C461 C479 1.472 . S
C462 H432 0.929 . S
C462 C461 1.348 . S
C462 C463 1.443 . S
C463 H430 0.932 . S
C463 C458 1.388 . S
C463 C462 1.443 . S
C464 N444 1.433 . S
C464 C465 1.363 . S
C464 C469 1.370 . S
C465 H433 0.929 . S
C465 C464 1.363 . S
C465 C466 1.385 . S
C466 H434 0.930 . S
C466 C465 1.385 . S
C466 C467 1.357 . S
C467 C466 1.357 . S
C467 C468 1.406 . S
C468 H435 0.929 . S
C468 C467 1.406 . S
C468 C469 1.391 . S
C469 H436 0.931 . S
C469 C464 1.370 . S
C469 C468 1.391 . S
C470 N444 1.435 . S
C470 C471 1.358 . S
C470 C475 1.371 . S
C471 H437 0.930 . S
C471 C470 1.358 . S
C471 C472 1.405 . S
C472 H438 0.932 . S
C472 C471 1.405 . S
C472 C473 1.383 . S
C473 C472 1.383 . S
C473 C474 1.393 . S
C474 H439 0.931 . S
C474 C473 1.393 . S
C474 C475 1.382 . S
C475 H440 0.929 . S
C475 C470 1.371 . S
C475 C474 1.382 . S
C476 N444 1.423 . S
C476 C477 1.362 . S
C476 C481 1.388 . S
C477 H441 0.929 . S
C477 C476 1.362 . S
C477 C478 1.376 . S
C478 H442 0.931 . S
C478 C477 1.376 . S
C478 C479 1.396 . S
C479 C461 1.472 . S
C479 C478 1.396 . S
C479 C480 1.348 . S
C480 H443 0.929 . S
C480 C479 1.348 . S
C480 C481 1.443 . S
C481 H445 0.932 . S
C481 C476 1.388 . S
C481 C480 1.443 . S
H482 C509 0.929 . S
N483 C508 1.433 . S
N483 C514 1.435 . S
N483 C520 1.423 . S
H484 C510 0.930 . S
H485 C513 0.931 . S
H486 C512 0.929 . S
H487 C515 0.930 . S
H488 C516 0.932 . S
H489 C519 0.929 . S
H490 C518 0.931 . S
H491 C521 0.929 . S
H492 C525 0.932 . S
H493 C522 0.931 . S
H494 C524 0.929 . S
H495 C527 0.929 . S
H496 C528 0.930 . S
H497 C530 0.929 . S
H498 C531 0.931 . S
H499 C533 0.930 . S
H500 C534 0.932 . S
H501 C536 0.931 . S
H502 C537 0.929 . S
H503 C539 0.929 . S
H504 C540 0.931 . S
H505 C542 0.929 . S
N506 C526 1.433 . S
N506 C532 1.435 . S
N506 C538 1.423 . S
H507 C543 0.932 . S
C508 N483 1.433 . S
C508 C509 1.363 . S
C508 C513 1.370 . S
C509 H482 0.929 . S
C509 C508 1.363 . S
C509 C510 1.385 . S
C510 H484 0.930 . S
C510 C509 1.385 . S
C510 C511 1.357 . S
C511 C510 1.357 . S
C511 C512 1.406 . S
C512 H486 0.929 . S
C512 C511 1.406 . S
C512 C513 1.391 . S
C513 H485 0.931 . S
C513 C508 1.370 . S
C513 C512 1.391 . S
C514 N483 1.435 . S
C514 C515 1.358 . S
C514 C519 1.371 . S
C515 H487 0.930 . S
C515 C514 1.358 . S
C515 C516 1.405 . S
C516 H488 0.932 . S
C516 C515 1.405 . S
C516 C517 1.383 . S
C517 C516 1.383 . S
C517 C518 1.393 . S
C518 H490 0.931 . S
C518 C517 1.393 . S
C518 C519 1.382 . S
C519 H489 0.929 . S
C519 C514 1.371 . S
C519 C518 1.382 . S
C520 N483 1.423 . S
C520 C521 1.362 . S
C520 C525 1.388 . S
C521 H491 0.929 . S
C521 C520 1.362 . S
C521 C522 1.376 . S
C522 H493 0.931 . S
C522 C521 1.376 . S
C522 C523 1.396 . S
C523 C522 1.396 . S
C523 C524 1.348 . S
C523 C541 1.472 . S
C524 H494 0.929 . S
C524 C523 1.348 . S
C524 C525 1.443 . S
C525 H492 0.932 . S
C525 C520 1.388 . S
C525 C524 1.443 . S
C526 N506 1.433 . S
C526 C527 1.363 . S
C526 C531 1.370 . S
C527 H495 0.929 . S
C527 C526 1.363 . S
C527 C528 1.385 . S
C528 H496 0.930 . S
C528 C527 1.385 . S
C528 C529 1.357 . S
C529 C528 1.357 . S
C529 C530 1.406 . S
C530 H497 0.929 . S
C530 C529 1.406 . S
C530 C531 1.391 . S
C531 H498 0.931 . S
C531 C526 1.370 . S
C531 C530 1.391 . S
C532 N506 1.435 . S
C532 C533 1.358 . S
C532 C537 1.371 . S
C533 H499 0.930 . S
C533 C532 1.358 . S
C533 C534 1.405 . S
C534 H500 0.932 . S
C534 C533 1.405 . S
C534 C535 1.383 . S
C535 C534 1.383 . S
C535 C536 1.393 . S
C536 H501 0.931 . S
C536 C535 1.393 . S
C536 C537 1.382 . S
C537 H502 0.929 . S
C537 C532 1.371 . S
C537 C536 1.382 . S
C538 N506 1.423 . S
C538 C539 1.362 . S
C538 C543 1.388 . S
C539 H503 0.929 . S
C539 C538 1.362 . S
C539 C540 1.376 . S
C540 H504 0.931 . S
C540 C539 1.376 . S
C540 C541 1.396 . S
C541 C523 1.472 . S
C541 C540 1.396 . S
C541 C542 1.348 . S
C542 H505 0.929 . S
C542 C541 1.348 . S
C542 C543 1.443 . S
C543 H507 0.932 . S
C543 C538 1.388 . S
C543 C542 1.443 . S
H544 C571 0.929 . S
N545 C570 1.433 . S
N545 C576 1.435 . S
N545 C582 1.423 . S
H546 C572 0.930 . S
H547 C575 0.931 . S
H548 C574 0.929 . S
H549 C577 0.930 . S
H550 C578 0.932 . S
H551 C581 0.929 . S
H552 C580 0.931 . S
H553 C583 0.929 . S
H554 C587 0.932 . S
H555 C584 0.931 . S
H556 C586 0.929 . S
H557 C589 0.929 . S
H558 C590 0.930 . S
H559 C592 0.929 . S
H560 C593 0.931 . S
H561 C595 0.930 . S
H562 C596 0.932 . S
H563 C598 0.931 . S
H564 C599 0.929 . S
H565 C601 0.929 . S
H566 C602 0.931 . S
H567 C604 0.929 . S
N568 C588 1.433 . S
N568 C594 1.435 . S
N568 C600 1.423 . S
H569 C605 0.932 . S
C570 N545 1.433 . S
C570 C571 1.363 . S
C570 C575 1.370 . S
C571 H544 0.929 . S
C571 C570 1.363 . S
C571 C572 1.385 . S
C572 H546 0.930 . S
C572 C571 1.385 . S
C572 C573 1.357 . S
C573 C572 1.357 . S
C573 C574 1.406 . S
C574 H548 0.929 . S
C574 C573 1.406 . S
C574 C575 1.391 . S
C575 H547 0.931 . S
C575 C570 1.370 . S
C575 C574 1.391 . S
C576 N545 1.435 . S
C576 C577 1.358 . S
C576 C581 1.371 . S
C577 H549 0.930 . S
C577 C576 1.358 . S
C577 C578 1.405 . S
C578 H550 0.932 . S
C578 C577 1.405 . S
C578 C579 1.383 . S
C579 C578 1.383 . S
C579 C580 1.393 . S
C580 H552 0.931 . S
C580 C579 1.393 . S
C580 C581 1.382 . S
C581 H551 0.929 . S
C581 C576 1.371 . S
C581 C580 1.382 . S
C582 N545 1.423 . S
C582 C583 1.362 . S
C582 C587 1.388 . S
C583 H553 0.929 . S
C583 C582 1.362 . S
C583 C584 1.376 . S
C584 H555 0.931 . S
C584 C583 1.376 . S
C584 C585 1.396 . S
C585 C584 1.396 . S
C585 C586 1.348 . S
C585 C603 1.472 . S
C586 H556 0.929 . S
C586 C585 1.348 . S
C586 C587 1.443 . S
C587 H554 0.932 . S
C587 C582 1.388 . S
C587 C586 1.443 . S
C588 N568 1.433 . S
C588 C589 1.363 . S
C588 C593 1.370 . S
C589 H557 0.929 . S
C589 C588 1.363 . S
C589 C590 1.385 . S
C590 H558 0.930 . S
C590 C589 1.385 . S
C590 C591 1.357 . S
C591 C590 1.357 . S
C591 C592 1.406 . S
C592 H559 0.929 . S
C592 C591 1.406 . S
C592 C593 1.391 . S
C593 H560 0.931 . S
C593 C588 1.370 . S
C593 C592 1.391 . S
C594 N568 1.435 . S
C594 C595 1.358 . S
C594 C599 1.371 . S
C595 H561 0.930 . S
C595 C594 1.358 . S
C595 C596 1.405 . S
C596 H562 0.932 . S
C596 C595 1.405 . S
C596 C597 1.383 . S
C597 C596 1.383 . S
C597 C598 1.393 . S
C598 H563 0.931 . S
C598 C597 1.393 . S
C598 C599 1.382 . S
C599 H564 0.929 . S
C599 C594 1.371 . S
C599 C598 1.382 . S
C600 N568 1.423 . S
C600 C601 1.362 . S
C600 C605 1.388 . S
C601 H565 0.929 . S
C601 C600 1.362 . S
C601 C602 1.376 . S
C602 H566 0.931 . S
C602 C601 1.376 . S
C602 C603 1.396 . S
C603 C585 1.472 . S
C603 C602 1.396 . S
C603 C604 1.348 . S
C604 H567 0.929 . S
C604 C603 1.348 . S
C604 C605 1.443 . S
C605 H569 0.932 . S
C605 C600 1.388 . S
C605 C604 1.443 . S
H606 C633 0.929 . S
N607 C632 1.433 . S
N607 C638 1.435 . S
N607 C644 1.423 . S
H608 C634 0.930 . S
H609 C637 0.931 . S
H610 C636 0.929 . S
H611 C639 0.930 . S
H612 C640 0.932 . S
H613 C643 0.929 . S
H614 C642 0.931 . S
H615 C645 0.929 . S
H616 C649 0.932 . S
H617 C646 0.931 . S
H618 C648 0.929 . S
H619 C651 0.929 . S
H620 C652 0.930 . S
H621 C654 0.929 . S
H622 C655 0.931 . S
H623 C657 0.930 . S
H624 C658 0.932 . S
H625 C660 0.931 . S
H626 C661 0.929 . S
H627 C663 0.929 . S
H628 C664 0.931 . S
H629 C666 0.929 . S
N630 C650 1.433 . S
N630 C656 1.435 . S
N630 C662 1.423 . S
H631 C667 0.932 . S
C632 N607 1.433 . S
C632 C633 1.363 . S
C632 C637 1.370 . S
C633 H606 0.929 . S
C633 C632 1.363 . S
C633 C634 1.385 . S
C634 H608 0.930 . S
C634 C633 1.385 . S
C634 C635 1.357 . S
C635 C634 1.357 . S
C635 C636 1.406 . S
C636 H610 0.929 . S
C636 C635 1.406 . S
C636 C637 1.391 . S
C637 H609 0.931 . S
C637 C632 1.370 . S
C637 C636 1.391 . S
C638 N607 1.435 . S
C638 C639 1.358 . S
C638 C643 1.371 . S
C639 H611 0.930 . S
C639 C638 1.358 . S
C639 C640 1.405 . S
C640 H612 0.932 . S
C640 C639 1.405 . S
C640 C641 1.383 . S
C641 C640 1.383 . S
C641 C642 1.393 . S
C642 H614 0.931 . S
C642 C641 1.393 . S
C642 C643 1.382 . S
C643 H613 0.929 . S
C643 C638 1.371 . S
C643 C642 1.382 . S
C644 N607 1.423 . S
C644 C645 1.362 . S
C644 C649 1.388 . S
C645 H615 0.929 . S
C645 C644 1.362 . S
C645 C646 1.376 . S
C646 H617 0.931 . S
C646 C645 1.376 . S
C646 C647 1.396 . S
C647 C646 1.396 . S
C647 C648 1.348 . S
C647 C665 1.472 . S
C648 H618 0.929 . S
C648 C647 1.348 . S
C648 C649 1.443 . S
C649 H616 0.932 . S
C649 C644 1.388 . S
C649 C648 1.443 . S
C650 N630 1.433 . S
C650 C651 1.363 . S
C650 C655 1.370 . S
C651 H619 0.929 . S
C651 C650 1.363 . S
C651 C652 1.385 . S
C652 H620 0.930 . S
C652 C651 1.385 . S
C652 C653 1.357 . S
C653 C652 1.357 . S
C653 C654 1.406 . S
C654 H621 0.929 . S
C654 C653 1.406 . S
C654 C655 1.391 . S
C655 H622 0.931 . S
C655 C650 1.370 . S
C655 C654 1.391 . S
C656 N630 1.435 . S
C656 C657 1.358 . S
C656 C661 1.371 . S
C657 H623 0.930 . S
C657 C656 1.358 . S
C657 C658 1.405 . S
C658 H624 0.932 . S
C658 C657 1.405 . S
C658 C659 1.383 . S
C659 C658 1.383 . S
C659 C660 1.393 . S
C660 H625 0.931 . S
C660 C659 1.393 . S
C660 C661 1.382 . S
C661 H626 0.929 . S
C661 C656 1.371 . S
C661 C660 1.382 . S
C662 N630 1.423 . S
C662 C663 1.362 . S
C662 C667 1.388 . S
C663 H627 0.929 . S
C663 C662 1.362 . S
C663 C664 1.376 . S
C664 H628 0.931 . S
C664 C663 1.376 . S
C664 C665 1.396 . S
C665 C647 1.472 . S
C665 C664 1.396 . S
C665 C666 1.348 . S
C666 H629 0.929 . S
C666 C665 1.348 . S
C666 C667 1.443 . S
C667 H631 0.932 . S
C667 C662 1.388 . S
C667 C666 1.443 . S
H668 C695 0.929 . S
N669 C694 1.433 . S
N669 C700 1.435 . S
N669 C706 1.423 . S
H670 C696 0.930 . S
H671 C699 0.931 . S
H672 C698 0.929 . S
H673 C701 0.930 . S
H674 C702 0.932 . S
H675 C705 0.929 . S
H676 C704 0.931 . S
H677 C707 0.929 . S
H678 C711 0.932 . S
H679 C708 0.931 . S
H680 C710 0.929 . S
H681 C713 0.929 . S
H682 C714 0.930 . S
H683 C716 0.929 . S
H684 C717 0.931 . S
H685 C719 0.930 . S
H686 C720 0.932 . S
H687 C722 0.931 . S
H688 C723 0.929 . S
H689 C725 0.929 . S
H690 C726 0.931 . S
H691 C728 0.929 . S
N692 C712 1.433 . S
N692 C718 1.435 . S
N692 C724 1.423 . S
H693 C729 0.932 . S
C694 N669 1.433 . S
C694 C695 1.363 . S
C694 C699 1.370 . S
C695 H668 0.929 . S
C695 C694 1.363 . S
C695 C696 1.385 . S
C696 H670 0.930 . S
C696 C695 1.385 . S
C696 C697 1.357 . S
C697 C696 1.357 . S
C697 C698 1.406 . S
C698 H672 0.929 . S
C698 C697 1.406 . S
C698 C699 1.391 . S
C699 H671 0.931 . S
C699 C694 1.370 . S
C699 C698 1.391 . S
C700 N669 1.435 . S
C700 C701 1.358 . S
C700 C705 1.371 . S
C701 H673 0.930 . S
C701 C700 1.358 . S
C701 C702 1.405 . S
C702 H674 0.932 . S
C702 C701 1.405 . S
C702 C703 1.383 . S
C703 C702 1.383 . S
C703 C704 1.393 . S
C704 H676 0.931 . S
C704 C703 1.393 . S
C704 C705 1.382 . S
C705 H675 0.929 . S
C705 C700 1.371 . S
C705 C704 1.382 . S
C706 N669 1.423 . S
C706 C707 1.362 . S
C706 C711 1.388 . S
C707 H677 0.929 . S
C707 C706 1.362 . S
C707 C708 1.376 . S
C708 H679 0.931 . S
C708 C707 1.376 . S
C708 C709 1.396 . S
C709 C708 1.396 . S
C709 C710 1.348 . S
C709 C727 1.472 . S
C710 H680 0.929 . S
C710 C709 1.348 . S
C710 C711 1.443 . S
C711 H678 0.932 . S
C711 C706 1.388 . S
C711 C710 1.443 . S
C712 N692 1.433 . S
C712 C713 1.363 . S
C712 C717 1.370 . S
C713 H681 0.929 . S
C713 C712 1.363 . S
C713 C714 1.385 . S
C714 H682 0.930 . S
C714 C713 1.385 . S
C714 C715 1.357 . S
C715 C714 1.357 . S
C715 C716 1.406 . S
C716 H683 0.929 . S
C716 C715 1.406 . S
C716 C717 1.391 . S
C717 H684 0.931 . S
C717 C712 1.370 . S
C717 C716 1.391 . S
C718 N692 1.435 . S
C718 C719 1.358 . S
C718 C723 1.371 . S
C719 H685 0.930 . S
C719 C718 1.358 . S
C719 C720 1.405 . S
C720 H686 0.932 . S
C720 C719 1.405 . S
C720 C721 1.383 . S
C721 C720 1.383 . S
C721 C722 1.393 . S
C722 H687 0.931 . S
C722 C721 1.393 . S
C722 C723 1.382 . S
C723 H688 0.929 . S
C723 C718 1.371 . S
C723 C722 1.382 . S
C724 N692 1.423 . S
C724 C725 1.362 . S
C724 C729 1.388 . S
C725 H689 0.929 . S
C725 C724 1.362 . S
C725 C726 1.376 . S
C726 H690 0.931 . S
C726 C725 1.376 . S
C726 C727 1.396 . S
C727 C709 1.472 . S
C727 C726 1.396 . S
C727 C728 1.348 . S
C728 H691 0.929 . S
C728 C727 1.348 . S
C728 C729 1.443 . S
C729 H693 0.932 . S
C729 C724 1.388 . S
C729 C728 1.443 . S
H730 C757 0.929 . S
N731 C756 1.433 . S
N731 C762 1.435 . S
N731 C768 1.423 . S
H732 C758 0.930 . S
H733 C761 0.931 . S
H734 C760 0.929 . S
H735 C763 0.930 . S
H736 C764 0.932 . S
H737 C767 0.929 . S
H738 C766 0.931 . S
H739 C769 0.929 . S
H740 C773 0.932 . S
H741 C770 0.931 . S
H742 C772 0.929 . S
H743 C775 0.929 . S
H744 C776 0.930 . S
H745 C778 0.929 . S
H746 C779 0.931 . S
H747 C781 0.930 . S
H748 C782 0.932 . S
H749 C784 0.931 . S
H750 C785 0.929 . S
H751 C787 0.929 . S
H752 C788 0.931 . S
H753 C790 0.929 . S
N754 C774 1.433 . S
N754 C780 1.435 . S
N754 C786 1.423 . S
H755 C791 0.932 . S
C756 N731 1.433 . S
C756 C757 1.363 . S
C756 C761 1.370 . S
C757 H730 0.929 . S
C757 C756 1.363 . S
C757 C758 1.385 . S
C758 H732 0.930 . S
C758 C757 1.385 . S
C758 C759 1.357 . S
C759 C758 1.357 . S
C759 C760 1.406 . S
C760 H734 0.929 . S
C760 C759 1.406 . S
C760 C761 1.391 . S
C761 H733 0.931 . S
C761 C756 1.370 . S
C761 C760 1.391 . S
C762 N731 1.435 . S
C762 C763 1.358 . S
C762 C767 1.371 . S
C763 H735 0.930 . S
C763 C762 1.358 . S
C763 C764 1.405 . S
C764 H736 0.932 . S
C764 C763 1.405 . S
C764 C765 1.383 . S
C765 C764 1.383 . S
C765 C766 1.393 . S
C766 H738 0.931 . S
C766 C765 1.393 . S
C766 C767 1.382 . S
C767 H737 0.929 . S
C767 C762 1.371 . S
C767 C766 1.382 . S
C768 N731 1.423 . S
C768 C769 1.362 . S
C768 C773 1.388 . S
C769 H739 0.929 . S
C769 C768 1.362 . S
C769 C770 1.376 . S
C770 H741 0.931 . S
C770 C769 1.376 . S
C770 C771 1.396 . S
C771 C770 1.396 . S
C771 C772 1.348 . S
C771 C789 1.472 . S
C772 H742 0.929 . S
C772 C771 1.348 . S
C772 C773 1.443 . S
C773 H740 0.932 . S
C773 C768 1.388 . S
C773 C772 1.443 . S
C774 N754 1.433 . S
C774 C775 1.363 . S
C774 C779 1.370 . S
C775 H743 0.929 . S
C775 C774 1.363 . S
C775 C776 1.385 . S
C776 H744 0.930 . S
C776 C775 1.385 . S
C776 C777 1.357 . S
C777 C776 1.357 . S
C777 C778 1.406 . S
C778 H745 0.929 . S
C778 C777 1.406 . S
C778 C779 1.391 . S
C779 H746 0.931 . S
C779 C774 1.370 . S
C779 C778 1.391 . S
C780 N754 1.435 . S
C780 C781 1.358 . S
C780 C785 1.371 . S
C781 H747 0.930 . S
C781 C780 1.358 . S
C781 C782 1.405 . S
C782 H748 0.932 . S
C782 C781 1.405 . S
C782 C783 1.383 . S
C783 C782 1.383 . S
C783 C784 1.393 . S
C784 H749 0.931 . S
C784 C783 1.393 . S
C784 C785 1.382 . S
C785 H750 0.929 . S
C785 C780 1.371 . S
C785 C784 1.382 . S
C786 N754 1.423 . S
C786 C787 1.362 . S
C786 C791 1.388 . S
C787 H751 0.929 . S
C787 C786 1.362 . S
C787 C788 1.376 . S
C788 H752 0.931 . S
C788 C787 1.376 . S
C788 C789 1.396 . S
C789 C771 1.472 . S
C789 C788 1.396 . S
C789 C790 1.348 . S
C790 H753 0.929 . S
C790 C789 1.348 . S
C790 C791 1.443 . S
C791 H755 0.932 . S
C791 C786 1.388 . S
C791 C790 1.443 . S
H792 C819 0.929 . S
N793 C818 1.433 . S
N793 C824 1.435 . S
N793 C830 1.423 . S
H794 C820 0.930 . S
H795 C823 0.931 . S
H796 C822 0.929 . S
H797 C825 0.930 . S
H798 C826 0.932 . S
H799 C829 0.929 . S
H800 C828 0.931 . S
H801 C831 0.929 . S
H802 C835 0.932 . S
H803 C832 0.931 . S
H804 C834 0.929 . S
H805 C837 0.929 . S
H806 C838 0.930 . S
H807 C840 0.929 . S
H808 C841 0.931 . S
H809 C843 0.930 . S
H810 C844 0.932 . S
H811 C846 0.931 . S
H812 C847 0.929 . S
H813 C849 0.929 . S
H814 C850 0.931 . S
H815 C852 0.929 . S
N816 C836 1.433 . S
N816 C842 1.435 . S
N816 C848 1.423 . S
H817 C853 0.932 . S
C818 N793 1.433 . S
C818 C819 1.363 . S
C818 C823 1.370 . S
C819 H792 0.929 . S
C819 C818 1.363 . S
C819 C820 1.385 . S
C820 H794 0.930 . S
C820 C819 1.385 . S
C820 C821 1.357 . S
C821 C820 1.357 . S
C821 C822 1.406 . S
C822 H796 0.929 . S
C822 C821 1.406 . S
C822 C823 1.391 . S
C823 H795 0.931 . S
C823 C818 1.370 . S
C823 C822 1.391 . S
C824 N793 1.435 . S
C824 C825 1.358 . S
C824 C829 1.371 . S
C825 H797 0.930 . S
C825 C824 1.358 . S
C825 C826 1.405 . S
C826 H798 0.932 . S
C826 C825 1.405 . S
C826 C827 1.383 . S
C827 C826 1.383 . S
C827 C828 1.393 . S
C828 H800 0.931 . S
C828 C827 1.393 . S
C828 C829 1.382 . S
C829 H799 0.929 . S
C829 C824 1.371 . S
C829 C828 1.382 . S
C830 N793 1.423 . S
C830 C831 1.362 . S
C830 C835 1.388 . S
C831 H801 0.929 . S
C831 C830 1.362 . S
C831 C832 1.376 . S
C832 H803 0.931 . S
C832 C831 1.376 . S
C832 C833 1.396 . S
C833 C832 1.396 . S
C833 C834 1.348 . S
C833 C851 1.472 . S
C834 H804 0.929 . S
C834 C833 1.348 . S
C834 C835 1.443 . S
C835 H802 0.932 . S
C835 C830 1.388 . S
C835 C834 1.443 . S
C836 N816 1.433 . S
C836 C837 1.363 . S
C836 C841 1.370 . S
C837 H805 0.929 . S
C837 C836 1.363 . S
C837 C838 1.385 . S
C838 H806 0.930 . S
C838 C837 1.385 . S
C838 C839 1.357 . S
C839 C838 1.357 . S
C839 C840 1.406 . S
C840 H807 0.929 . S
C840 C839 1.406 . S
C840 C841 1.391 . S
C841 H808 0.931 . S
C841 C836 1.370 . S
C841 C840 1.391 . S
C842 N816 1.435 . S
C842 C843 1.358 . S
C842 C847 1.371 . S
C843 H809 0.930 . S
C843 C842 1.358 . S
C843 C844 1.405 . S
C844 H810 0.932 . S
C844 C843 1.405 . S
C844 C845 1.383 . S
C845 C844 1.383 . S
C845 C846 1.393 . S
C846 H811 0.931 . S
C846 C845 1.393 . S
C846 C847 1.382 . S
C847 H812 0.929 . S
C847 C842 1.371 . S
C847 C846 1.382 . S
C848 N816 1.423 . S
C848 C849 1.362 . S
C848 C853 1.388 . S
C849 H813 0.929 . S
C849 C848 1.362 . S
C849 C850 1.376 . S
C850 H814 0.931 . S
C850 C849 1.376 . S
C850 C851 1.396 . S
C851 C833 1.472 . S
C851 C850 1.396 . S
C851 C852 1.348 . S
C852 H815 0.929 . S
C852 C851 1.348 . S
C852 C853 1.443 . S
C853 H817 0.932 . S
C853 C848 1.388 . S
C853 C852 1.443 . S
H854 C881 0.929 . S
N855 C880 1.433 . S
N855 C886 1.435 . S
N855 C892 1.423 . S
H856 C882 0.930 . S
H857 C885 0.931 . S
H858 C884 0.929 . S
H859 C887 0.930 . S
H860 C888 0.932 . S
H861 C891 0.929 . S
H862 C890 0.931 . S
H863 C893 0.929 . S
H864 C897 0.932 . S
H865 C894 0.931 . S
H866 C896 0.929 . S
H867 C899 0.929 . S
H868 C900 0.930 . S
H869 C902 0.929 . S
H870 C903 0.931 . S
H871 C905 0.930 . S
H872 C906 0.932 . S
H873 C908 0.931 . S
H874 C909 0.929 . S
H875 C911 0.929 . S
H876 C912 0.931 . S
H877 C914 0.929 . S
N878 C898 1.433 . S
N878 C904 1.435 . S
N878 C910 1.423 . S
H879 C915 0.932 . S
C880 N855 1.433 . S
C880 C881 1.363 . S
C880 C885 1.370 . S
C881 H854 0.929 . S
C881 C880 1.363 . S
C881 C882 1.385 . S
C882 H856 0.930 . S
C882 C881 1.385 . S
C882 C883 1.357 . S
C883 C882 1.357 . S
C883 C884 1.406 . S
C884 H858 0.929 . S
C884 C883 1.406 . S
C884 C885 1.391 . S
C885 H857 0.931 . S
C885 C880 1.370 . S
C885 C884 1.391 . S
C886 N855 1.435 . S
C886 C887 1.358 . S
C886 C891 1.371 . S
C887 H859 0.930 . S
C887 C886 1.358 . S
C887 C888 1.405 . S
C888 H860 0.932 . S
C888 C887 1.405 . S
C888 C889 1.383 . S
C889 C888 1.383 . S
C889 C890 1.393 . S
C890 H862 0.931 . S
C890 C889 1.393 . S
C890 C891 1.382 . S
C891 H861 0.929 . S
C891 C886 1.371 . S
C891 C890 1.382 . S
C892 N855 1.423 . S
C892 C893 1.362 . S
C892 C897 1.388 . S
C893 H863 0.929 . S
C893 C892 1.362 . S
C893 C894 1.376 . S
C894 H865 0.931 . S
C894 C893 1.376 . S
C894 C895 1.396 . S
C895 C894 1.396 . S
C895 C896 1.348 . S
C895 C913 1.472 . S
C896 H866 0.929 . S
C896 C895 1.348 . S
C896 C897 1.443 . S
C897 H864 0.932 . S
C897 C892 1.388 . S
C897 C896 1.443 . S
C898 N878 1.433 . S
C898 C899 1.363 . S
C898 C903 1.370 . S
C899 H867 0.929 . S
C899 C898 1.363 . S
C899 C900 1.385 . S
C900 H868 0.930 . S
C900 C899 1.385 . S
C900 C901 1.357 . S
C901 C900 1.357 . S
C901 C902 1.406 . S
C902 H869 0.929 . S
C902 C901 1.406 . S
C902 C903 1.391 . S
C903 H870 0.931 . S
C903 C898 1.370 . S
C903 C902 1.391 . S
C904 N878 1.435 . S
C904 C905 1.358 . S
C904 C909 1.371 . S
C905 H871 0.930 . S
C905 C904 1.358 . S
C905 C906 1.405 . S
C906 H872 0.932 . S
C906 C905 1.405 . S
C906 C907 1.383 . S
C907 C906 1.383 . S
C907 C908 1.393 . S
C908 H873 0.931 . S
C908 C907 1.393 . S
C908 C909 1.382 . S
C909 H874 0.929 . S
C909 C904 1.371 . S
C909 C908 1.382 . S
C910 N878 1.423 . S
C910 C911 1.362 . S
C910 C915 1.388 . S
C911 H875 0.929 . S
C911 C910 1.362 . S
C911 C912 1.376 . S
C912 H876 0.931 . S
C912 C911 1.376 . S
C912 C913 1.396 . S
C913 C895 1.472 . S
C913 C912 1.396 . S
C913 C914 1.348 . S
C914 H877 0.929 . S
C914 C913 1.348 . S
C914 C915 1.443 . S
C915 H879 0.932 . S
C915 C910 1.388 . S
C915 C914 1.443 . S
H916 C943 0.929 . S
N917 C942 1.433 . S
N917 C948 1.435 . S
N917 C954 1.423 . S
H918 C944 0.930 . S
H919 C947 0.931 . S
H920 C946 0.929 . S
H921 C949 0.930 . S
H922 C950 0.932 . S
H923 C953 0.929 . S
H924 C952 0.931 . S
H925 C955 0.929 . S
H926 C959 0.932 1_545 S
H927 C956 0.931 . S
H928 C958 0.929 . S
H929 C961 0.929 . S
H930 C962 0.930 . S
H931 C964 0.929 . S
H932 C965 0.931 . S
H933 C967 0.930 . S
H934 C968 0.932 . S
H935 C970 0.931 . S
H936 C971 0.929 . S
H937 C973 0.929 . S
H938 C974 0.931 . S
H939 C976 0.929 . S
N940 C960 1.433 . S
N940 C966 1.435 . S
N940 C972 1.423 . S
H941 C977 0.932 1_545 S
C942 N917 1.433 . S
C942 C943 1.363 . S
C942 C947 1.370 1_565 S
C943 H916 0.929 . S
C943 C942 1.363 . S
C943 C944 1.385 . S
C944 H918 0.930 . S
C944 C943 1.385 . S
C944 C945 1.357 1_565 S
C945 C944 1.357 1_545 S
C945 C946 1.406 . S
C946 H920 0.929 . S
C946 C945 1.406 . S
C946 C947 1.391 . S
C947 H919 0.931 . S
C947 C942 1.370 1_545 S
C947 C946 1.391 . S
C948 N917 1.435 . S
C948 C949 1.358 1_565 S
C948 C953 1.371 . S
C949 H921 0.930 . S
C949 C948 1.358 1_545 S
C949 C950 1.405 . S
C950 H922 0.932 . S
C950 C949 1.405 . S
C950 C951 1.383 1_545 S
C951 C950 1.383 1_565 S
C951 C952 1.393 . S
C952 H924 0.931 . S
C952 C951 1.393 . S
C952 C953 1.382 . S
C953 H923 0.929 . S
C953 C948 1.371 . S
C953 C952 1.382 . S
C954 N917 1.423 . S
C954 C955 1.362 . S
C954 C959 1.388 . S
C955 H925 0.929 . S
C955 C954 1.362 . S
C955 C956 1.376 . S
C956 H927 0.931 . S
C956 C955 1.376 . S
C956 C957 1.396 . S
C957 C956 1.396 . S
C957 C958 1.348 . S
C957 C975 1.472 . S
C958 H928 0.929 . S
C958 C957 1.348 . S
C958 C959 1.443 . S
C959 H926 0.932 1_565 S
C959 C954 1.388 . S
C959 C958 1.443 . S
C960 N940 1.433 . S
C960 C961 1.363 . S
C960 C965 1.370 1_565 S
C961 H929 0.929 . S
C961 C960 1.363 . S
C961 C962 1.385 . S
C962 H930 0.930 . S
C962 C961 1.385 . S
C962 C963 1.357 1_565 S
C963 C962 1.357 1_545 S
C963 C964 1.406 . S
C964 H931 0.929 . S
C964 C963 1.406 . S
C964 C965 1.391 . S
C965 H932 0.931 . S
C965 C960 1.370 1_545 S
C965 C964 1.391 . S
C966 N940 1.435 . S
C966 C967 1.358 1_565 S
C966 C971 1.371 . S
C967 H933 0.930 . S
C967 C966 1.358 1_545 S
C967 C968 1.405 . S
C968 H934 0.932 . S
C968 C967 1.405 . S
C968 C969 1.383 1_545 S
C969 C968 1.383 1_565 S
C969 C970 1.393 . S
C970 H935 0.931 . S
C970 C969 1.393 . S
C970 C971 1.382 . S
C971 H936 0.929 . S
C971 C966 1.371 . S
C971 C970 1.382 . S
C972 N940 1.423 . S
C972 C973 1.362 . S
C972 C977 1.388 . S
C973 H937 0.929 . S
C973 C972 1.362 . S
C973 C974 1.376 . S
C974 H938 0.931 . S
C974 C973 1.376 . S
C974 C975 1.396 . S
C975 C957 1.472 . S
C975 C974 1.396 . S
C975 C976 1.348 . S
C976 H939 0.929 . S
C976 C975 1.348 . S
C976 C977 1.443 . S
C977 H941 0.932 1_565 S
C977 C972 1.388 . S
C977 C976 1.443 . S
H978 C1005 0.929 . S
N979 C1004 1.433 . S
N979 C1010 1.435 . S
N979 C1016 1.423 . S
H980 C1006 0.930 . S
H981 C1009 0.931 . S
H982 C1008 0.929 . S
H983 C1011 0.930 . S
H984 C1012 0.932 . S
H985 C1015 0.929 . S
H986 C1014 0.931 . S
H987 C1017 0.929 1_565 S
H988 C1021 0.932 . S
H989 C1018 0.881 1_565 S
H990 C1020 0.929 . S
H991 C1023 0.929 . S
H992 C1024 0.930 . S
H993 C1026 0.929 . S
H994 C1027 0.931 . S
H995 C1029 0.930 . S
H996 C1030 0.932 . S
H997 C1032 0.931 . S
H998 C1033 0.929 . S
H999 C1035 0.929 1_565 S
H1000 C1036 0.912 1_565 S
H1001 C1038 0.929 . S
N1002 C1022 1.433 . S
N1002 C1028 1.435 . S
N1002 C1034 1.423 . S
H1003 C1039 0.932 . S
C1004 N979 1.433 . S
C1004 C1005 1.363 . S
C1004 C1009 1.370 . S
C1005 H978 0.929 . S
C1005 C1004 1.363 . S
C1005 C1006 1.385 . S
C1006 H980 0.930 . S
C1006 C1005 1.385 . S
C1006 C1007 1.357 . S
C1007 C1006 1.357 . S
C1007 C1008 1.406 . S
C1008 H982 0.929 . S
C1008 C1007 1.406 . S
C1008 C1009 1.391 . S
C1009 H981 0.931 . S
C1009 C1004 1.370 . S
C1009 C1008 1.391 . S
C1010 N979 1.435 . S
C1010 C1011 1.358 . S
C1010 C1015 1.371 . S
C1011 H983 0.930 . S
C1011 C1010 1.358 . S
C1011 C1012 1.405 . S
C1012 H984 0.932 . S
C1012 C1011 1.405 . S
C1012 C1013 1.383 . S
C1013 C1012 1.383 . S
C1013 C1014 1.393 . S
C1014 H986 0.931 . S
C1014 C1013 1.393 . S
C1014 C1015 1.382 . S
C1015 H985 0.929 . S
C1015 C1010 1.371 . S
C1015 C1014 1.382 . S
C1016 N979 1.423 . S
C1016 C1017 1.362 . S
C1016 C1021 1.388 . S
C1017 H987 0.929 1_545 S
C1017 C1016 1.362 . S
C1017 C1018 1.410 . S
C1018 H989 0.881 1_545 S
C1018 C1017 1.410 . S
C1018 C1019 1.412 . S
C1019 C1018 1.412 . S
C1019 C1020 1.348 . S
C1019 C1037 1.472 . S
C1020 H990 0.929 . S
C1020 C1019 1.348 . S
C1020 C1021 1.443 . S
C1021 H988 0.932 . S
C1021 C1016 1.388 . S
C1021 C1020 1.443 . S
C1022 N1002 1.433 . S
C1022 C1023 1.363 . S
C1022 C1027 1.370 . S
C1023 H991 0.929 . S
C1023 C1022 1.363 . S
C1023 C1024 1.385 . S
C1024 H992 0.930 . S
C1024 C1023 1.385 . S
C1024 C1025 1.357 . S
C1025 C1024 1.357 . S
C1025 C1026 1.406 . S
C1026 H993 0.929 . S
C1026 C1025 1.406 . S
C1026 C1027 1.391 . S
C1027 H994 0.931 . S
C1027 C1022 1.370 . S
C1027 C1026 1.391 . S
C1028 N1002 1.435 . S
C1028 C1029 1.358 . S
C1028 C1033 1.371 . S
C1029 H995 0.930 . S
C1029 C1028 1.358 . S
C1029 C1030 1.405 . S
C1030 H996 0.932 . S
C1030 C1029 1.405 . S
C1030 C1031 1.383 . S
C1031 C1030 1.383 . S
C1031 C1032 1.393 . S
C1032 H997 0.931 . S
C1032 C1031 1.393 . S
C1032 C1033 1.382 . S
C1033 H998 0.929 . S
C1033 C1028 1.371 . S
C1033 C1032 1.382 . S
C1034 N1002 1.423 . S
C1034 C1035 1.362 . S
C1034 C1039 1.388 . S
C1035 H999 0.929 1_545 S
C1035 C1034 1.362 . S
C1035 C1036 1.353 . S
C1036 H1000 0.912 1_545 S
C1036 C1035 1.353 . S
C1036 C1037 1.440 . S
C1037 C1019 1.472 . S
C1037 C1036 1.440 . S
C1037 C1038 1.348 . S
C1038 H1001 0.929 . S
C1038 C1037 1.348 . S
C1038 C1039 1.443 . S
C1039 H1003 0.932 . S
C1039 C1034 1.388 . S
C1039 C1038 1.443 . S
H1040 C1067 0.929 . S
N1041 C1066 1.433 . S
N1041 C1072 1.435 . S
N1041 C1078 1.423 . S
H1042 C1068 0.930 . S
H1043 C1071 0.931 . S
H1044 C1070 0.929 . S
H1045 C1073 0.930 . S
H1046 C1074 0.932 . S
H1047 C1077 0.929 . S
H1048 C1076 0.931 . S
H1049 C1079 0.929 . S
H1050 C1083 0.932 1_455 S
H1051 C1080 0.931 . S
H1052 C1082 0.929 . S
H1053 C1085 0.929 . S
H1054 C1086 0.930 . S
H1055 C1088 0.929 . S
H1056 C1089 0.931 . S
H1057 C1091 0.930 . S
H1058 C1092 0.932 . S
H1059 C1094 0.931 . S
H1060 C1095 0.929 . S
H1061 C1097 0.929 . S
H1062 C1098 0.931 . S
H1063 C1100 0.929 . S
N1064 C1084 1.433 . S
N1064 C1090 1.435 . S
N1064 C1096 1.423 . S
H1065 C1101 0.932 1_455 S
C1066 N1041 1.433 . S
C1066 C1067 1.363 . S
C1066 C1071 1.370 1_655 S
C1067 H1040 0.929 . S
C1067 C1066 1.363 . S
C1067 C1068 1.385 . S
C1068 H1042 0.930 . S
C1068 C1067 1.385 . S
C1068 C1069 1.357 1_655 S
C1069 C1068 1.357 1_455 S
C1069 C1070 1.406 . S
C1070 H1044 0.929 . S
C1070 C1069 1.406 . S
C1070 C1071 1.391 . S
C1071 H1043 0.931 . S
C1071 C1066 1.370 1_455 S
C1071 C1070 1.391 . S
C1072 N1041 1.435 . S
C1072 C1073 1.358 1_655 S
C1072 C1077 1.371 . S
C1073 H1045 0.930 . S
C1073 C1072 1.358 1_455 S
C1073 C1074 1.405 . S
C1074 H1046 0.932 . S
C1074 C1073 1.405 . S
C1074 C1075 1.383 1_455 S
C1075 C1074 1.383 1_655 S
C1075 C1076 1.393 . S
C1076 H1048 0.931 . S
C1076 C1075 1.393 . S
C1076 C1077 1.382 . S
C1077 H1047 0.929 . S
C1077 C1072 1.371 . S
C1077 C1076 1.382 . S
C1078 N1041 1.423 . S
C1078 C1079 1.362 . S
C1078 C1083 1.388 . S
C1079 H1049 0.929 . S
C1079 C1078 1.362 . S
C1079 C1080 1.376 . S
C1080 H1051 0.931 . S
C1080 C1079 1.376 . S
C1080 C1081 1.396 . S
C1081 C1080 1.396 . S
C1081 C1082 1.348 . S
C1081 C1099 1.472 . S
C1082 H1052 0.929 . S
C1082 C1081 1.348 . S
C1082 C1083 1.443 . S
C1083 H1050 0.932 1_655 S
C1083 C1078 1.388 . S
C1083 C1082 1.443 . S
C1084 N1064 1.433 . S
C1084 C1085 1.363 . S
C1084 C1089 1.370 1_655 S
C1085 H1053 0.929 . S
C1085 C1084 1.363 . S
C1085 C1086 1.385 . S
C1086 H1054 0.930 . S
C1086 C1085 1.385 . S
C1086 C1087 1.357 1_655 S
C1087 C1086 1.357 1_455 S
C1087 C1088 1.406 . S
C1088 H1055 0.929 . S
C1088 C1087 1.406 . S
C1088 C1089 1.391 . S
C1089 H1056 0.931 . S
C1089 C1084 1.370 1_455 S
C1089 C1088 1.391 . S
C1090 N1064 1.435 . S
C1090 C1091 1.358 1_655 S
C1090 C1095 1.371 . S
C1091 H1057 0.930 . S
C1091 C1090 1.358 1_455 S
C1091 C1092 1.405 . S
C1092 H1058 0.932 . S
C1092 C1091 1.405 . S
C1092 C1093 1.383 1_455 S
C1093 C1092 1.383 1_655 S
C1093 C1094 1.393 . S
C1094 H1059 0.931 . S
C1094 C1093 1.393 . S
C1094 C1095 1.382 . S
C1095 H1060 0.929 . S
C1095 C1090 1.371 . S
C1095 C1094 1.382 . S
C1096 N1064 1.423 . S
C1096 C1097 1.362 . S
C1096 C1101 1.388 . S
C1097 H1061 0.929 . S
C1097 C1096 1.362 . S
C1097 C1098 1.376 . S
C1098 H1062 0.931 . S
C1098 C1097 1.376 . S
C1098 C1099 1.396 . S
C1099 C1081 1.472 . S
C1099 C1098 1.396 . S
C1099 C1100 1.348 . S
C1100 H1063 0.929 . S
C1100 C1099 1.348 . S
C1100 C1101 1.443 . S
C1101 H1065 0.932 1_655 S
C1101 C1096 1.388 . S
C1101 C1100 1.443 . S
H1102 C1129 0.929 . S
N1103 C1128 1.433 . S
N1103 C1134 1.435 . S
N1103 C1140 1.423 . S
H1104 C1130 0.930 . S
H1105 C1133 0.931 . S
H1106 C1132 0.929 . S
H1107 C1135 0.930 . S
H1108 C1136 0.932 . S
H1109 C1139 0.929 . S
H1110 C1138 0.931 . S
H1111 C1141 0.929 . S
H1112 C1145 0.932 . S
H1113 C1142 0.931 . S
H1114 C1144 0.929 . S
H1115 C1147 0.929 . S
H1116 C1148 0.930 . S
H1117 C1150 0.929 . S
H1118 C1151 0.931 . S
H1119 C1153 0.930 . S
H1120 C1154 0.932 . S
H1121 C1156 0.931 . S
H1122 C1157 0.929 . S
H1123 C1159 0.929 . S
H1124 C1160 0.931 . S
H1125 C1162 0.929 . S
N1126 C1146 1.433 . S
N1126 C1152 1.435 . S
N1126 C1158 1.423 . S
H1127 C1163 0.932 . S
C1128 N1103 1.433 . S
C1128 C1129 1.363 . S
C1128 C1133 1.370 . S
C1129 H1102 0.929 . S
C1129 C1128 1.363 . S
C1129 C1130 1.385 . S
C1130 H1104 0.930 . S
C1130 C1129 1.385 . S
C1130 C1131 1.357 . S
C1131 C1130 1.357 . S
C1131 C1132 1.406 . S
C1132 H1106 0.929 . S
C1132 C1131 1.406 . S
C1132 C1133 1.391 . S
C1133 H1105 0.931 . S
C1133 C1128 1.370 . S
C1133 C1132 1.391 . S
C1134 N1103 1.435 . S
C1134 C1135 1.358 . S
C1134 C1139 1.371 . S
C1135 H1107 0.930 . S
C1135 C1134 1.358 . S
C1135 C1136 1.405 . S
C1136 H1108 0.932 . S
C1136 C1135 1.405 . S
C1136 C1137 1.383 . S
C1137 C1136 1.383 . S
C1137 C1138 1.393 . S
C1138 H1110 0.931 . S
C1138 C1137 1.393 . S
C1138 C1139 1.382 . S
C1139 H1109 0.929 . S
C1139 C1134 1.371 . S
C1139 C1138 1.382 . S
C1140 N1103 1.423 . S
C1140 C1141 1.362 . S
C1140 C1145 1.388 . S
C1141 H1111 0.929 . S
C1141 C1140 1.362 . S
C1141 C1142 1.376 . S
C1142 H1113 0.931 . S
C1142 C1141 1.376 . S
C1142 C1143 1.396 . S
C1143 C1142 1.396 . S
C1143 C1144 1.348 . S
C1143 C1161 1.472 . S
C1144 H1114 0.929 . S
C1144 C1143 1.348 . S
C1144 C1145 1.443 . S
C1145 H1112 0.932 . S
C1145 C1140 1.388 . S
C1145 C1144 1.443 . S
C1146 N1126 1.433 . S
C1146 C1147 1.363 . S
C1146 C1151 1.370 . S
C1147 H1115 0.929 . S
C1147 C1146 1.363 . S
C1147 C1148 1.385 . S
C1148 H1116 0.930 . S
C1148 C1147 1.385 . S
C1148 C1149 1.357 . S
C1149 C1148 1.357 . S
C1149 C1150 1.406 . S
C1150 H1117 0.929 . S
C1150 C1149 1.406 . S
C1150 C1151 1.391 . S
C1151 H1118 0.931 . S
C1151 C1146 1.370 . S
C1151 C1150 1.391 . S
C1152 N1126 1.435 . S
C1152 C1153 1.358 . S
C1152 C1157 1.371 . S
C1153 H1119 0.930 . S
C1153 C1152 1.358 . S
C1153 C1154 1.405 . S
C1154 H1120 0.932 . S
C1154 C1153 1.405 . S
C1154 C1155 1.383 . S
C1155 C1154 1.383 . S
C1155 C1156 1.393 . S
C1156 H1121 0.931 . S
C1156 C1155 1.393 . S
C1156 C1157 1.382 . S
C1157 H1122 0.929 . S
C1157 C1152 1.371 . S
C1157 C1156 1.382 . S
C1158 N1126 1.423 . S
C1158 C1159 1.362 . S
C1158 C1163 1.388 . S
C1159 H1123 0.929 . S
C1159 C1158 1.362 . S
C1159 C1160 1.376 . S
C1160 H1124 0.931 . S
C1160 C1159 1.376 . S
C1160 C1161 1.396 . S
C1161 C1143 1.472 . S
C1161 C1160 1.396 . S
C1161 C1162 1.348 . S
C1162 H1125 0.929 . S
C1162 C1161 1.348 . S
C1162 C1163 1.443 . S
C1163 H1127 0.932 . S
C1163 C1158 1.388 . S
C1163 C1162 1.443 . S
H1164 C1191 0.929 . S
N1165 C1190 1.433 . S
N1165 C1196 1.435 . S
N1165 C1202 1.423 . S
H1166 C1192 0.930 . S
H1167 C1195 0.931 . S
H1168 C1194 0.929 . S
H1169 C1197 0.930 . S
H1170 C1198 0.932 . S
H1171 C1201 0.929 . S
H1172 C1200 0.931 . S
H1173 C1203 0.929 . S
H1174 C1207 0.932 . S
H1175 C1204 0.931 . S
H1176 C1206 0.929 . S
H1177 C1209 0.929 . S
H1178 C1210 0.930 . S
H1179 C1212 0.929 . S
H1180 C1213 0.931 . S
H1181 C1215 0.930 . S
H1182 C1216 0.932 . S
H1183 C1218 0.931 . S
H1184 C1219 0.929 . S
H1185 C1221 0.929 . S
H1186 C1222 0.931 . S
H1187 C1224 0.929 . S
N1188 C1208 1.433 . S
N1188 C1214 1.435 . S
N1188 C1220 1.423 . S
H1189 C1225 0.932 . S
C1190 N1165 1.433 . S
C1190 C1191 1.363 . S
C1190 C1195 1.370 . S
C1191 H1164 0.929 . S
C1191 C1190 1.363 . S
C1191 C1192 1.385 . S
C1192 H1166 0.930 . S
C1192 C1191 1.385 . S
C1192 C1193 1.357 . S
C1193 C1192 1.357 . S
C1193 C1194 1.406 . S
C1194 H1168 0.929 . S
C1194 C1193 1.406 . S
C1194 C1195 1.391 . S
C1195 H1167 0.931 . S
C1195 C1190 1.370 . S
C1195 C1194 1.391 . S
C1196 N1165 1.435 . S
C1196 C1197 1.358 . S
C1196 C1201 1.371 . S
C1197 H1169 0.930 . S
C1197 C1196 1.358 . S
C1197 C1198 1.405 . S
C1198 H1170 0.932 . S
C1198 C1197 1.405 . S
C1198 C1199 1.383 . S
C1199 C1198 1.383 . S
C1199 C1200 1.393 . S
C1200 H1172 0.931 . S
C1200 C1199 1.393 . S
C1200 C1201 1.382 . S
C1201 H1171 0.929 . S
C1201 C1196 1.371 . S
C1201 C1200 1.382 . S
C1202 N1165 1.423 . S
C1202 C1203 1.362 . S
C1202 C1207 1.388 . S
C1203 H1173 0.929 . S
C1203 C1202 1.362 . S
C1203 C1204 1.376 . S
C1204 H1175 0.931 . S
C1204 C1203 1.376 . S
C1204 C1205 1.396 . S
C1205 C1204 1.396 . S
C1205 C1206 1.348 . S
C1205 C1223 1.472 . S
C1206 H1176 0.929 . S
C1206 C1205 1.348 . S
C1206 C1207 1.443 . S
C1207 H1174 0.932 . S
C1207 C1202 1.388 . S
C1207 C1206 1.443 . S
C1208 N1188 1.433 . S
C1208 C1209 1.363 . S
C1208 C1213 1.370 . S
C1209 H1177 0.929 . S
C1209 C1208 1.363 . S
C1209 C1210 1.385 . S
C1210 H1178 0.930 . S
C1210 C1209 1.385 . S
C1210 C1211 1.357 . S
C1211 C1210 1.357 . S
C1211 C1212 1.406 . S
C1212 H1179 0.929 . S
C1212 C1211 1.406 . S
C1212 C1213 1.391 . S
C1213 H1180 0.931 . S
C1213 C1208 1.370 . S
C1213 C1212 1.391 . S
C1214 N1188 1.435 . S
C1214 C1215 1.358 . S
C1214 C1219 1.371 . S
C1215 H1181 0.930 . S
C1215 C1214 1.358 . S
C1215 C1216 1.405 . S
C1216 H1182 0.932 . S
C1216 C1215 1.405 . S
C1216 C1217 1.383 . S
C1217 C1216 1.383 . S
C1217 C1218 1.393 . S
C1218 H1183 0.931 . S
C1218 C1217 1.393 . S
C1218 C1219 1.382 . S
C1219 H1184 0.929 . S
C1219 C1214 1.371 . S
C1219 C1218 1.382 . S
C1220 N1188 1.423 . S
C1220 C1221 1.362 . S
C1220 C1225 1.388 . S
C1221 H1185 0.929 . S
C1221 C1220 1.362 . S
C1221 C1222 1.376 . S
C1222 H1186 0.931 . S
C1222 C1221 1.376 . S
C1222 C1223 1.396 . S
C1223 C1205 1.472 . S
C1223 C1222 1.396 . S
C1223 C1224 1.348 . S
C1224 H1187 0.929 . S
C1224 C1223 1.348 . S
C1224 C1225 1.443 . S
C1225 H1189 0.932 . S
C1225 C1220 1.388 . S
C1225 C1224 1.443 . S
H1226 C1253 0.929 . S
N1227 C1252 1.433 . S
N1227 C1258 1.435 . S
N1227 C1264 1.423 . S
H1228 C1254 0.930 . S
H1229 C1257 0.931 . S
H1230 C1256 0.929 . S
H1231 C1259 0.930 . S
H1232 C1260 0.932 . S
H1233 C1263 0.929 . S
H1234 C1262 0.931 . S
H1235 C1265 0.929 . S
H1236 C1269 0.932 . S
H1237 C1266 0.931 . S
H1238 C1268 0.929 . S
H1239 C1271 0.929 . S
H1240 C1272 0.930 . S
H1241 C1274 0.929 . S
H1242 C1275 0.931 . S
H1243 C1277 0.930 . S
H1244 C1278 0.932 . S
H1245 C1280 0.931 . S
H1246 C1281 0.929 . S
H1247 C1283 0.929 . S
H1248 C1284 0.931 . S
H1249 C1286 0.929 . S
N1250 C1270 1.433 . S
N1250 C1276 1.435 . S
N1250 C1282 1.423 . S
H1251 C1287 0.932 . S
C1252 N1227 1.433 . S
C1252 C1253 1.363 . S
C1252 C1257 1.370 . S
C1253 H1226 0.929 . S
C1253 C1252 1.363 . S
C1253 C1254 1.385 . S
C1254 H1228 0.930 . S
C1254 C1253 1.385 . S
C1254 C1255 1.357 . S
C1255 C1254 1.357 . S
C1255 C1256 1.406 . S
C1256 H1230 0.929 . S
C1256 C1255 1.406 . S
C1256 C1257 1.391 . S
C1257 H1229 0.931 . S
C1257 C1252 1.370 . S
C1257 C1256 1.391 . S
C1258 N1227 1.435 . S
C1258 C1259 1.358 . S
C1258 C1263 1.371 . S
C1259 H1231 0.930 . S
C1259 C1258 1.358 . S
C1259 C1260 1.405 . S
C1260 H1232 0.932 . S
C1260 C1259 1.405 . S
C1260 C1261 1.383 . S
C1261 C1260 1.383 . S
C1261 C1262 1.393 . S
C1262 H1234 0.931 . S
C1262 C1261 1.393 . S
C1262 C1263 1.382 . S
C1263 H1233 0.929 . S
C1263 C1258 1.371 . S
C1263 C1262 1.382 . S
C1264 N1227 1.423 . S
C1264 C1265 1.362 . S
C1264 C1269 1.388 . S
C1265 H1235 0.929 . S
C1265 C1264 1.362 . S
C1265 C1266 1.376 . S
C1266 H1237 0.931 . S
C1266 C1265 1.376 . S
C1266 C1267 1.396 . S
C1267 C1266 1.396 . S
C1267 C1268 1.348 . S
C1267 C1285 1.472 . S
C1268 H1238 0.929 . S
C1268 C1267 1.348 . S
C1268 C1269 1.443 . S
C1269 H1236 0.932 . S
C1269 C1264 1.388 . S
C1269 C1268 1.443 . S
C1270 N1250 1.433 . S
C1270 C1271 1.363 . S
C1270 C1275 1.370 . S
C1271 H1239 0.929 . S
C1271 C1270 1.363 . S
C1271 C1272 1.385 . S
C1272 H1240 0.930 . S
C1272 C1271 1.385 . S
C1272 C1273 1.357 . S
C1273 C1272 1.357 . S
C1273 C1274 1.406 . S
C1274 H1241 0.929 . S
C1274 C1273 1.406 . S
C1274 C1275 1.391 . S
C1275 H1242 0.931 . S
C1275 C1270 1.370 . S
C1275 C1274 1.391 . S
C1276 N1250 1.435 . S
C1276 C1277 1.358 . S
C1276 C1281 1.371 . S
C1277 H1243 0.930 . S
C1277 C1276 1.358 . S
C1277 C1278 1.405 . S
C1278 H1244 0.932 . S
C1278 C1277 1.405 . S
C1278 C1279 1.383 . S
C1279 C1278 1.383 . S
C1279 C1280 1.393 . S
C1280 H1245 0.931 . S
C1280 C1279 1.393 . S
C1280 C1281 1.382 . S
C1281 H1246 0.929 . S
C1281 C1276 1.371 . S
C1281 C1280 1.382 . S
C1282 N1250 1.423 . S
C1282 C1283 1.362 . S
C1282 C1287 1.388 . S
C1283 H1247 0.929 . S
C1283 C1282 1.362 . S
C1283 C1284 1.376 . S
C1284 H1248 0.931 . S
C1284 C1283 1.376 . S
C1284 C1285 1.396 . S
C1285 C1267 1.472 . S
C1285 C1284 1.396 . S
C1285 C1286 1.348 . S
C1286 H1249 0.929 . S
C1286 C1285 1.348 . S
C1286 C1287 1.443 . S
C1287 H1251 0.932 . S
C1287 C1282 1.388 . S
C1287 C1286 1.443 . S
H1288 C1315 0.929 . S
N1289 C1314 1.433 . S
N1289 C1320 1.435 . S
N1289 C1326 1.423 . S
H1290 C1316 0.930 . S
H1291 C1319 0.931 . S
H1292 C1318 0.929 . S
H1293 C1321 0.930 . S
H1294 C1322 0.932 . S
H1295 C1325 0.929 . S
H1296 C1324 0.931 . S
H1297 C1327 0.929 . S
H1298 C1331 0.932 . S
H1299 C1328 0.931 . S
H1300 C1330 0.929 . S
H1301 C1333 0.929 . S
H1302 C1334 0.930 . S
H1303 C1336 0.929 . S
H1304 C1337 0.931 . S
H1305 C1339 0.930 . S
H1306 C1340 0.932 . S
H1307 C1342 0.931 . S
H1308 C1343 0.929 . S
H1309 C1345 0.929 . S
H1310 C1346 0.931 . S
H1311 C1348 0.929 . S
N1312 C1332 1.433 . S
N1312 C1338 1.435 . S
N1312 C1344 1.423 . S
H1313 C1349 0.932 . S
C1314 N1289 1.433 . S
C1314 C1315 1.363 . S
C1314 C1319 1.370 . S
C1315 H1288 0.929 . S
C1315 C1314 1.363 . S
C1315 C1316 1.385 . S
C1316 H1290 0.930 . S
C1316 C1315 1.385 . S
C1316 C1317 1.357 . S
C1317 C1316 1.357 . S
C1317 C1318 1.406 . S
C1318 H1292 0.929 . S
C1318 C1317 1.406 . S
C1318 C1319 1.391 . S
C1319 H1291 0.931 . S
C1319 C1314 1.370 . S
C1319 C1318 1.391 . S
C1320 N1289 1.435 . S
C1320 C1321 1.358 . S
C1320 C1325 1.371 . S
C1321 H1293 0.930 . S
C1321 C1320 1.358 . S
C1321 C1322 1.405 . S
C1322 H1294 0.932 . S
C1322 C1321 1.405 . S
C1322 C1323 1.383 . S
C1323 C1322 1.383 . S
C1323 C1324 1.393 . S
C1324 H1296 0.931 . S
C1324 C1323 1.393 . S
C1324 C1325 1.382 . S
C1325 H1295 0.929 . S
C1325 C1320 1.371 . S
C1325 C1324 1.382 . S
C1326 N1289 1.423 . S
C1326 C1327 1.362 . S
C1326 C1331 1.388 . S
C1327 H1297 0.929 . S
C1327 C1326 1.362 . S
C1327 C1328 1.376 . S
C1328 H1299 0.931 . S
C1328 C1327 1.376 . S
C1328 C1329 1.396 . S
C1329 C1328 1.396 . S
C1329 C1330 1.348 . S
C1329 C1347 1.472 . S
C1330 H1300 0.929 . S
C1330 C1329 1.348 . S
C1330 C1331 1.443 . S
C1331 H1298 0.932 . S
C1331 C1326 1.388 . S
C1331 C1330 1.443 . S
C1332 N1312 1.433 . S
C1332 C1333 1.363 . S
C1332 C1337 1.370 . S
C1333 H1301 0.929 . S
C1333 C1332 1.363 . S
C1333 C1334 1.385 . S
C1334 H1302 0.930 . S
C1334 C1333 1.385 . S
C1334 C1335 1.357 . S
C1335 C1334 1.357 . S
C1335 C1336 1.406 . S
C1336 H1303 0.929 . S
C1336 C1335 1.406 . S
C1336 C1337 1.391 . S
C1337 H1304 0.931 . S
C1337 C1332 1.370 . S
C1337 C1336 1.391 . S
C1338 N1312 1.435 . S
C1338 C1339 1.358 . S
C1338 C1343 1.371 . S
C1339 H1305 0.930 . S
C1339 C1338 1.358 . S
C1339 C1340 1.405 . S
C1340 H1306 0.932 . S
C1340 C1339 1.405 . S
C1340 C1341 1.383 . S
C1341 C1340 1.383 . S
C1341 C1342 1.393 . S
C1342 H1307 0.931 . S
C1342 C1341 1.393 . S
C1342 C1343 1.382 . S
C1343 H1308 0.929 . S
C1343 C1338 1.371 . S
C1343 C1342 1.382 . S
C1344 N1312 1.423 . S
C1344 C1345 1.362 . S
C1344 C1349 1.388 . S
C1345 H1309 0.929 . S
C1345 C1344 1.362 . S
C1345 C1346 1.376 . S
C1346 H1310 0.931 . S
C1346 C1345 1.376 . S
C1346 C1347 1.396 . S
C1347 C1329 1.472 . S
C1347 C1346 1.396 . S
C1347 C1348 1.348 . S
C1348 H1311 0.929 . S
C1348 C1347 1.348 . S
C1348 C1349 1.443 . S
C1349 H1313 0.932 . S
C1349 C1344 1.388 . S
C1349 C1348 1.443 . S
H1350 C1362 0.930 . S
H1351 C1364 0.929 1_655 S
H1352 C1365 0.930 . S
H1353 C1369 0.959 . S
H1354 C1369 0.959 . S
H1355 C1369 0.961 . S
H1356 C1370 0.960 . S
H1357 C1370 0.961 . S
H1358 C1370 0.959 . S
H1359 C1373 0.929 . S
H1360 C1374 0.880 1_655 S
H1361 C1376 0.930 . S
C1362 H1350 0.930 . S
C1362 C1363 1.399 . S
C1362 C1367 1.399 . S
C1363 C1362 1.399 . S
C1363 C1364 1.378 . S
C1364 H1351 0.929 1_455 S
C1364 C1363 1.378 . S
C1364 C1365 1.387 1_455 S
C1365 H1352 0.930 . S
C1365 C1364 1.387 1_655 S
C1365 C1366 1.390 1_655 S
C1366 C1365 1.390 1_455 S
C1366 C1367 1.394 . S
C1366 C1372 1.465 . S
C1367 C1362 1.399 . S
C1367 C1366 1.394 . S
C1367 C1368 1.516 . S
C1368 C1367 1.516 . S
C1368 C1369 1.502 . S
C1368 C1370 1.561 . S
C1368 C1371 1.526 . S
C1369 H1353 0.959 . S
C1369 H1354 0.959 . S
C1369 H1355 0.961 . S
C1369 C1368 1.502 . S
C1370 H1356 0.960 . S
C1370 H1357 0.961 . S
C1370 H1358 0.959 . S
C1370 C1368 1.561 . S
C1371 C1368 1.526 . S
C1371 C1372 1.396 . S
C1371 C1376 1.390 . S
C1372 C1366 1.465 . S
C1372 C1371 1.396 . S
C1372 C1373 1.399 1_455 S
C1373 H1359 0.929 . S
C1373 C1372 1.399 1_655 S
C1373 C1374 1.393 1_655 S
C1374 H1360 0.880 1_455 S
C1374 C1373 1.393 1_455 S
C1374 C1375 1.433 . S
C1375 C1374 1.433 . S
C1375 C1376 1.387 . S
C1376 H1361 0.930 . S
C1376 C1371 1.390 . S
C1376 C1375 1.387 . S
H1377 C1389 0.930 . S
H1378 C1391 0.930 . S
H1379 C1392 0.930 . S
H1380 C1396 0.959 . S
H1381 C1396 0.959 . S
H1382 C1396 0.961 . S
H1383 C1397 0.960 . S
H1384 C1397 0.961 . S
H1385 C1397 0.959 . S
H1386 C1400 0.929 . S
H1387 C1401 0.931 . S
H1388 C1403 0.930 . S
C1389 H1377 0.930 . S
C1389 C1390 1.399 . S
C1389 C1394 1.399 . S
C1390 C1389 1.399 . S
C1390 C1391 1.376 . S
C1391 H1378 0.930 . S
C1391 C1390 1.376 . S
C1391 C1392 1.388 . S
C1392 H1379 0.930 . S
C1392 C1391 1.388 . S
C1392 C1393 1.390 . S
C1393 C1392 1.390 . S
C1393 C1394 1.394 . S
C1393 C1399 1.465 . S
C1394 C1389 1.399 . S
C1394 C1393 1.394 . S
C1394 C1395 1.516 . S
C1395 C1394 1.516 . S
C1395 C1396 1.502 . S
C1395 C1397 1.561 . S
C1395 C1398 1.526 . S
C1396 H1380 0.959 . S
C1396 H1381 0.959 . S
C1396 H1382 0.961 . S
C1396 C1395 1.502 . S
C1397 H1383 0.960 . S
C1397 H1384 0.961 . S
C1397 H1385 0.959 . S
C1397 C1395 1.561 . S
C1398 C1395 1.526 . S
C1398 C1399 1.396 . S
C1398 C1403 1.390 . S
C1399 C1393 1.465 . S
C1399 C1398 1.396 . S
C1399 C1400 1.399 . S
C1400 H1386 0.929 . S
C1400 C1399 1.399 . S
C1400 C1401 1.385 . S
C1401 H1387 0.931 . S
C1401 C1400 1.385 . S
C1401 C1402 1.389 . S
C1402 C1401 1.389 . S
C1402 C1403 1.387 . S
C1403 H1388 0.930 . S
C1403 C1398 1.390 . S
C1403 C1402 1.387 . S
H1404 C1416 0.930 . S
H1405 C1418 0.930 . S
H1406 C1419 0.930 . S
H1407 C1423 0.959 . S
H1408 C1423 0.959 . S
H1409 C1423 0.961 . S
H1410 C1424 0.960 . S
H1411 C1424 0.961 . S
H1412 C1424 0.959 . S
H1413 C1427 0.929 . S
H1414 C1428 0.931 . S
H1415 C1430 0.930 . S
C1416 H1404 0.930 . S
C1416 C1417 1.399 . S
C1416 C1421 1.399 . S
C1417 C1416 1.399 . S
C1417 C1418 1.376 1_545 S
C1418 H1405 0.930 . S
C1418 C1417 1.376 1_565 S
C1418 C1419 1.388 . S
C1419 H1406 0.930 . S
C1419 C1418 1.388 . S
C1419 C1420 1.390 1_565 S
C1420 C1419 1.390 1_545 S
C1420 C1421 1.394 . S
C1420 C1426 1.490 . S
C1421 C1416 1.399 . S
C1421 C1420 1.394 . S
C1421 C1422 1.516 . S
C1422 C1421 1.516 . S
C1422 C1423 1.502 . S
C1422 C1424 1.561 . S
C1422 C1425 1.526 . S
C1423 H1407 0.959 . S
C1423 H1408 0.959 . S
C1423 H1409 0.961 . S
C1423 C1422 1.502 . S
C1424 H1410 0.960 . S
C1424 H1411 0.961 . S
C1424 H1412 0.959 . S
C1424 C1422 1.561 . S
C1425 C1422 1.526 . S
C1425 C1426 1.419 . S
C1425 C1430 1.390 . S
C1426 C1420 1.490 . S
C1426 C1425 1.419 . S
C1426 C1427 1.361 1_545 S
C1427 H1413 0.929 . S
C1427 C1426 1.361 1_565 S
C1427 C1428 1.385 . S
C1428 H1414 0.931 . S
C1428 C1427 1.385 . S
C1428 C1429 1.389 1_565 S
C1429 C1428 1.389 1_545 S
C1429 C1430 1.387 . S
C1430 H1415 0.930 . S
C1430 C1425 1.390 . S
C1430 C1429 1.387 . S
H1431 C1443 0.930 1_565 S
H1432 C1445 0.930 . S
H1433 C1446 0.930 . S
H1434 C1450 0.959 . S
H1435 C1450 0.959 . S
H1436 C1450 0.961 . S
H1437 C1451 0.960 . S
H1438 C1451 0.961 . S
H1439 C1451 0.959 . S
H1440 C1454 0.929 . S
H1441 C1455 0.931 . S
H1442 C1457 0.930 1_565 S
C1443 H1431 0.930 1_545 S
C1443 C1444 1.399 . S
C1443 C1448 1.399 . S
C1444 C1443 1.399 . S
C1444 C1445 1.376 . S
C1445 H1432 0.930 . S
C1445 C1444 1.376 . S
C1445 C1446 1.388 . S
C1446 H1433 0.930 . S
C1446 C1445 1.388 . S
C1446 C1447 1.390 . S
C1447 C1446 1.390 . S
C1447 C1448 1.394 . S
C1447 C1453 1.465 . S
C1448 C1443 1.399 . S
C1448 C1447 1.394 . S
C1448 C1449 1.516 1_545 S
C1449 C1448 1.516 1_565 S
C1449 C1450 1.502 . S
C1449 C1451 1.561 . S
C1449 C1452 1.526 1_565 S
C1450 H1434 0.959 . S
C1450 H1435 0.959 . S
C1450 H1436 0.961 . S
C1450 C1449 1.502 . S
C1451 H1437 0.960 . S
C1451 H1438 0.961 . S
C1451 H1439 0.959 . S
C1451 C1449 1.561 . S
C1452 C1449 1.526 1_545 S
C1452 C1453 1.396 . S
C1452 C1457 1.390 . S
C1453 C1447 1.465 . S
C1453 C1452 1.396 . S
C1453 C1454 1.399 . S
C1454 H1440 0.929 . S
C1454 C1453 1.399 . S
C1454 C1455 1.385 . S
C1455 H1441 0.931 . S
C1455 C1454 1.385 . S
C1455 C1456 1.389 . S
C1456 C1455 1.389 . S
C1456 C1457 1.387 . S
C1457 H1442 0.930 1_545 S
C1457 C1452 1.390 . S
C1457 C1456 1.387 . S
H1458 C1470 0.930 . S
H1459 C1472 0.930 . S
H1460 C1473 0.930 . S
H1461 C1477 0.959 . S
H1462 C1477 0.959 . S
H1463 C1477 0.961 . S
H1464 C1478 0.960 . S
H1465 C1478 0.961 . S
H1466 C1478 0.959 . S
H1467 C1481 0.929 . S
H1468 C1482 0.931 . S
H1469 C1484 0.930 . S
C1470 H1458 0.930 . S
C1470 C1471 1.399 . S
C1470 C1475 1.399 . S
C1471 C1470 1.399 . S
C1471 C1472 1.376 . S
C1472 H1459 0.930 . S
C1472 C1471 1.376 . S
C1472 C1473 1.388 . S
C1473 H1460 0.930 . S
C1473 C1472 1.388 . S
C1473 C1474 1.390 . S
C1474 C1473 1.390 . S
C1474 C1475 1.394 . S
C1474 C1480 1.465 . S
C1475 C1470 1.399 . S
C1475 C1474 1.394 . S
C1475 C1476 1.516 . S
C1476 C1475 1.516 . S
C1476 C1477 1.502 . S
C1476 C1478 1.561 1_455 S
C1476 C1479 1.526 . S
C1477 H1461 0.959 . S
C1477 H1462 0.959 . S
C1477 H1463 0.961 . S
C1477 C1476 1.502 . S
C1478 H1464 0.960 . S
C1478 H1465 0.961 . S
C1478 H1466 0.959 . S
C1478 C1476 1.561 1_655 S
C1479 C1476 1.526 . S
C1479 C1480 1.396 . S
C1479 C1484 1.390 . S
C1480 C1474 1.465 . S
C1480 C1479 1.396 . S
C1480 C1481 1.399 . S
C1481 H1467 0.929 . S
C1481 C1480 1.399 . S
C1481 C1482 1.385 . S
C1482 H1468 0.931 . S
C1482 C1481 1.385 . S
C1482 C1483 1.389 . S
C1483 C1482 1.389 . S
C1483 C1484 1.387 . S
C1484 H1469 0.930 . S
C1484 C1479 1.390 . S
C1484 C1483 1.387 . S
H1485 C1497 0.930 . S
H1486 C1499 0.930 . S
H1487 C1500 0.930 . S
H1488 C1504 0.959 . S
H1489 C1504 0.959 . S
H1490 C1504 0.961 . S
H1491 C1505 0.960 . S
H1492 C1505 0.961 . S
H1493 C1505 0.959 . S
H1494 C1508 0.929 . S
H1495 C1509 0.931 . S
H1496 C1511 0.930 . S
C1497 H1485 0.930 . S
C1497 C1498 1.399 . S
C1497 C1502 1.399 . S
C1498 C1497 1.399 . S
C1498 C1499 1.376 . S
C1499 H1486 0.930 . S
C1499 C1498 1.376 . S
C1499 C1500 1.388 . S
C1500 H1487 0.930 . S
C1500 C1499 1.388 . S
C1500 C1501 1.390 . S
C1501 C1500 1.390 . S
C1501 C1502 1.394 . S
C1501 C1507 1.465 . S
C1502 C1497 1.399 . S
C1502 C1501 1.394 . S
C1502 C1503 1.516 . S
C1503 C1502 1.516 . S
C1503 C1504 1.502 . S
C1503 C1505 1.561 . S
C1503 C1506 1.526 . S
C1504 H1488 0.959 . S
C1504 H1489 0.959 . S
C1504 H1490 0.961 . S
C1504 C1503 1.502 . S
C1505 H1491 0.960 . S
C1505 H1492 0.961 . S
C1505 H1493 0.959 . S
C1505 C1503 1.561 . S
C1506 C1503 1.526 . S
C1506 C1507 1.396 . S
C1506 C1511 1.390 . S
C1507 C1501 1.465 . S
C1507 C1506 1.396 . S
C1507 C1508 1.399 . S
C1508 H1494 0.929 . S
C1508 C1507 1.399 . S
C1508 C1509 1.385 . S
C1509 H1495 0.931 . S
C1509 C1508 1.385 . S
C1509 C1510 1.389 . S
C1510 C1509 1.389 . S
C1510 C1511 1.387 . S
C1511 H1496 0.930 . S
C1511 C1506 1.390 . S
C1511 C1510 1.387 . S
H1512 C1524 0.930 . S
H1513 C1526 0.930 . S
H1514 C1527 0.930 . S
H1515 C1531 0.959 . S
H1516 C1531 0.959 . S
H1517 C1531 0.961 . S
H1518 C1532 0.960 . S
H1519 C1532 0.961 . S
H1520 C1532 0.959 . S
H1521 C1535 0.929 . S
H1522 C1536 0.931 . S
H1523 C1538 0.922 . S
C1524 H1512 0.930 . S
C1524 C1525 1.399 . S
C1524 C1529 1.399 . S
C1525 C1524 1.399 . S
C1525 C1526 1.376 . S
C1526 H1513 0.930 . S
C1526 C1525 1.376 . S
C1526 C1527 1.388 . S
C1527 H1514 0.930 . S
C1527 C1526 1.388 . S
C1527 C1528 1.390 . S
C1528 C1527 1.390 . S
C1528 C1529 1.394 . S
C1528 C1534 1.465 . S
C1529 C1524 1.399 . S
C1529 C1528 1.394 . S
C1529 C1530 1.518 . S
C1530 C1529 1.518 . S
C1530 C1531 1.497 . S
C1530 C1532 1.566 1_455 S
C1530 C1533 1.525 . S
C1531 H1515 0.959 . S
C1531 H1516 0.959 . S
C1531 H1517 0.961 . S
C1531 C1530 1.497 . S
C1532 H1518 0.960 . S
C1532 H1519 0.961 . S
C1532 H1520 0.959 . S
C1532 C1530 1.566 1_655 S
C1533 C1530 1.525 . S
C1533 C1534 1.396 . S
C1533 C1538 1.390 . S
C1534 C1528 1.465 . S
C1534 C1533 1.396 . S
C1534 C1535 1.399 . S
C1535 H1521 0.929 . S
C1535 C1534 1.399 . S
C1535 C1536 1.385 . S
C1536 H1522 0.931 . S
C1536 C1535 1.385 . S
C1536 C1537 1.389 . S
C1537 C1536 1.389 . S
C1537 C1538 1.387 . S
C1538 H1523 0.922 . S
C1538 C1533 1.390 . S
C1538 C1537 1.387 . S
H1539 C1551 0.930 . S
H1540 C1553 0.930 . S
H1541 C1554 0.930 . S
H1542 C1558 0.959 . S
H1543 C1558 0.959 . S
H1544 C1558 0.961 . S
H1545 C1559 0.960 . S
H1546 C1559 0.961 . S
H1547 C1559 0.959 . S
H1548 C1562 0.929 . S
H1549 C1563 0.931 . S
H1550 C1565 0.930 . S
C1551 H1539 0.930 . S
C1551 C1552 1.399 . S
C1551 C1556 1.399 . S
C1552 C1551 1.399 . S
C1552 C1553 1.376 . S
C1553 H1540 0.930 . S
C1553 C1552 1.376 . S
C1553 C1554 1.388 . S
C1554 H1541 0.930 . S
C1554 C1553 1.388 . S
C1554 C1555 1.390 . S
C1555 C1554 1.390 . S
C1555 C1556 1.394 . S
C1555 C1561 1.465 . S
C1556 C1551 1.399 . S
C1556 C1555 1.394 . S
C1556 C1557 1.516 . S
C1557 C1556 1.516 . S
C1557 C1558 1.502 . S
C1557 C1559 1.561 . S
C1557 C1560 1.526 . S
C1558 H1542 0.959 . S
C1558 H1543 0.959 . S
C1558 H1544 0.961 . S
C1558 C1557 1.502 . S
C1559 H1545 0.960 . S
C1559 H1546 0.961 . S
C1559 H1547 0.959 . S
C1559 C1557 1.561 . S
C1560 C1557 1.526 . S
C1560 C1561 1.396 . S
C1560 C1565 1.390 . S
C1561 C1555 1.465 . S
C1561 C1560 1.396 . S
C1561 C1562 1.399 . S
C1562 H1548 0.929 . S
C1562 C1561 1.399 . S
C1562 C1563 1.385 . S
C1563 H1549 0.931 . S
C1563 C1562 1.385 . S
C1563 C1564 1.389 . S
C1564 C1563 1.389 . S
C1564 C1565 1.387 . S
C1565 H1550 0.930 . S
C1565 C1560 1.390 . S
C1565 C1564 1.387 . S
H1566 C1578 0.930 . S
H1567 C1580 0.930 . S
H1568 C1581 0.930 . S
H1569 C1585 0.959 . S
H1570 C1585 0.959 . S
H1571 C1585 0.961 . S
H1572 C1586 0.960 . S
H1573 C1586 0.961 . S
H1574 C1586 0.959 . S
H1575 C1589 0.929 . S
H1576 C1590 0.931 . S
H1577 C1592 0.930 . S
C1578 H1566 0.930 . S
C1578 C1579 1.399 . S
C1578 C1583 1.399 . S
C1579 C1578 1.399 . S
C1579 C1580 1.376 1_545 S
C1580 H1567 0.930 . S
C1580 C1579 1.376 1_565 S
C1580 C1581 1.388 . S
C1581 H1568 0.930 . S
C1581 C1580 1.388 . S
C1581 C1582 1.390 1_565 S
C1582 C1581 1.390 1_545 S
C1582 C1583 1.394 . S
C1582 C1588 1.465 . S
C1583 C1578 1.399 . S
C1583 C1582 1.394 . S
C1583 C1584 1.516 . S
C1584 C1583 1.516 . S
C1584 C1585 1.502 . S
C1584 C1586 1.561 . S
C1584 C1587 1.526 . S
C1585 H1569 0.959 . S
C1585 H1570 0.959 . S
C1585 H1571 0.961 . S
C1585 C1584 1.502 . S
C1586 H1572 0.960 . S
C1586 H1573 0.961 . S
C1586 H1574 0.959 . S
C1586 C1584 1.561 . S
C1587 C1584 1.526 . S
C1587 C1588 1.396 . S
C1587 C1592 1.390 . S
C1588 C1582 1.465 . S
C1588 C1587 1.396 . S
C1588 C1589 1.399 1_545 S
C1589 H1575 0.929 . S
C1589 C1588 1.399 1_565 S
C1589 C1590 1.385 . S
C1590 H1576 0.931 . S
C1590 C1589 1.385 . S
C1590 C1591 1.389 1_565 S
C1591 C1590 1.389 1_545 S
C1591 C1592 1.387 . S
C1592 H1577 0.930 . S
C1592 C1587 1.390 . S
C1592 C1591 1.387 . S
H1593 C1605 0.930 . S
H1594 C1607 0.930 . S
H1595 C1608 0.930 . S
H1596 C1612 0.959 . S
H1597 C1612 0.959 . S
H1598 C1612 0.961 . S
H1599 C1613 0.960 . S
H1600 C1613 0.961 . S
H1601 C1613 0.959 . S
H1602 C1616 0.929 . S
H1603 C1617 0.931 . S
H1604 C1619 0.930 . S
C1605 H1593 0.930 . S
C1605 C1606 1.399 . S
C1605 C1610 1.399 . S
C1606 C1605 1.399 . S
C1606 C1607 1.376 1_545 S
C1607 H1594 0.930 . S
C1607 C1606 1.376 1_565 S
C1607 C1608 1.388 . S
C1608 H1595 0.930 . S
C1608 C1607 1.388 . S
C1608 C1609 1.423 . S
C1609 C1608 1.423 . S
C1609 C1610 1.369 1_565 S
C1609 C1615 1.452 . S
C1610 C1605 1.399 . S
C1610 C1609 1.369 1_545 S
C1610 C1611 1.516 . S
C1611 C1610 1.516 . S
C1611 C1612 1.502 . S
C1611 C1613 1.561 . S
C1611 C1614 1.526 . S
C1612 H1596 0.959 . S
C1612 H1597 0.959 . S
C1612 H1598 0.961 . S
C1612 C1611 1.502 . S
C1613 H1599 0.960 . S
C1613 H1600 0.961 . S
C1613 H1601 0.959 . S
C1613 C1611 1.561 . S
C1614 C1611 1.526 . S
C1614 C1615 1.396 1_545 S
C1614 C1619 1.390 . S
C1615 C1609 1.452 . S
C1615 C1614 1.396 1_565 S
C1615 C1616 1.399 . S
C1616 H1602 0.929 . S
C1616 C1615 1.399 . S
C1616 C1617 1.385 . S
C1617 H1603 0.931 . S
C1617 C1616 1.385 . S
C1617 C1618 1.389 1_565 S
C1618 C1617 1.389 1_545 S
C1618 C1619 1.387 . S
C1619 H1604 0.930 . S
C1619 C1614 1.390 . S
C1619 C1618 1.387 . S
H1620 C1632 0.930 1_655 S
H1621 C1634 0.930 . S
H1622 C1635 0.930 . S
H1623 C1639 0.959 . S
H1624 C1639 0.959 . S
H1625 C1639 0.961 . S
H1626 C1640 0.960 . S
H1627 C1640 0.961 . S
H1628 C1640 0.959 . S
H1629 C1643 0.929 . S
H1630 C1644 0.931 . S
H1631 C1646 0.930 1_655 S
C1632 H1620 0.930 1_455 S
C1632 C1633 1.399 . S
C1632 C1637 1.399 . S
C1633 C1632 1.399 . S
C1633 C1634 1.376 . S
C1634 H1621 0.930 . S
C1634 C1633 1.376 . S
C1634 C1635 1.388 . S
C1635 H1622 0.930 . S
C1635 C1634 1.388 . S
C1635 C1636 1.390 . S
C1636 C1635 1.390 . S
C1636 C1637 1.394 . S
C1636 C1642 1.465 . S
C1637 C1632 1.399 . S
C1637 C1636 1.394 . S
C1637 C1638 1.516 1_455 S
C1638 C1637 1.516 1_655 S
C1638 C1639 1.502 . S
C1638 C1640 1.561 . S
C1638 C1641 1.526 1_655 S
C1639 H1623 0.959 . S
C1639 H1624 0.959 . S
C1639 H1625 0.961 . S
C1639 C1638 1.502 . S
C1640 H1626 0.960 . S
C1640 H1627 0.961 . S
C1640 H1628 0.959 . S
C1640 C1638 1.561 . S
C1641 C1638 1.526 1_455 S
C1641 C1642 1.396 . S
C1641 C1646 1.390 . S
C1642 C1636 1.465 . S
C1642 C1641 1.396 . S
C1642 C1643 1.399 . S
C1643 H1629 0.929 . S
C1643 C1642 1.399 . S
C1643 C1644 1.385 . S
C1644 H1630 0.931 . S
C1644 C1643 1.385 . S
C1644 C1645 1.389 . S
C1645 C1644 1.389 . S
C1645 C1646 1.387 . S
C1646 H1631 0.930 1_455 S
C1646 C1641 1.390 . S
C1646 C1645 1.387 . S
H1647 C1659 0.930 . S
H1648 C1661 0.930 . S
H1649 C1662 0.930 . S
H1650 C1666 0.959 . S
H1651 C1666 0.959 . S
H1652 C1666 0.961 . S
H1653 C1667 0.960 . S
H1654 C1667 0.961 . S
H1655 C1667 0.959 . S
H1656 C1670 0.929 . S
H1657 C1671 0.931 . S
H1658 C1673 0.930 . S
C1659 H1647 0.930 . S
C1659 C1660 1.399 . S
C1659 C1664 1.399 . S
C1660 C1659 1.399 . S
C1660 C1661 1.376 . S
C1661 H1648 0.930 . S
C1661 C1660 1.376 . S
C1661 C1662 1.388 . S
C1662 H1649 0.930 . S
C1662 C1661 1.388 . S
C1662 C1663 1.390 . S
C1663 C1662 1.390 . S
C1663 C1664 1.394 . S
C1663 C1669 1.465 . S
C1664 C1659 1.399 . S
C1664 C1663 1.394 . S
C1664 C1665 1.516 . S
C1665 C1664 1.516 . S
C1665 C1666 1.502 . S
C1665 C1667 1.561 . S
C1665 C1668 1.526 . S
C1666 H1650 0.959 . S
C1666 H1651 0.959 . S
C1666 H1652 0.961 . S
C1666 C1665 1.502 . S
C1667 H1653 0.960 . S
C1667 H1654 0.961 . S
C1667 H1655 0.959 . S
C1667 C1665 1.561 . S
C1668 C1665 1.526 . S
C1668 C1669 1.396 . S
C1668 C1673 1.390 . S
C1669 C1663 1.465 . S
C1669 C1668 1.396 . S
C1669 C1670 1.399 . S
C1670 H1656 0.929 . S
C1670 C1669 1.399 . S
C1670 C1671 1.385 . S
C1671 H1657 0.931 . S
C1671 C1670 1.385 . S
C1671 C1672 1.389 . S
C1672 C1671 1.389 . S
C1672 C1673 1.387 . S
C1673 H1658 0.930 . S
C1673 C1668 1.390 . S
C1673 C1672 1.387 . S
H1674 C1686 0.930 . S
H1675 C1688 0.930 . S
H1676 C1689 0.930 . S
H1677 C1693 0.959 . S
H1678 C1693 0.959 . S
H1679 C1693 0.961 . S
H1680 C1694 0.960 . S
H1681 C1694 0.961 . S
H1682 C1694 0.959 . S
H1683 C1697 0.929 . S
H1684 C1698 0.931 . S
H1685 C1700 0.930 . S
C1686 H1674 0.930 . S
C1686 C1687 1.399 . S
C1686 C1691 1.399 . S
C1687 C1686 1.399 . S
C1687 C1688 1.376 . S
C1688 H1675 0.930 . S
C1688 C1687 1.376 . S
C1688 C1689 1.388 . S
C1689 H1676 0.930 . S
C1689 C1688 1.388 . S
C1689 C1690 1.390 . S
C1690 C1689 1.390 . S
C1690 C1691 1.394 . S
C1690 C1696 1.465 . S
C1691 C1686 1.399 . S
C1691 C1690 1.394 . S
C1691 C1692 1.516 . S
C1692 C1691 1.516 . S
C1692 C1693 1.502 . S
C1692 C1694 1.561 . S
C1692 C1695 1.526 . S
C1693 H1677 0.959 . S
C1693 H1678 0.959 . S
C1693 H1679 0.961 . S
C1693 C1692 1.502 . S
C1694 H1680 0.960 . S
C1694 H1681 0.961 . S
C1694 H1682 0.959 . S
C1694 C1692 1.561 . S
C1695 C1692 1.526 . S
C1695 C1696 1.396 . S
C1695 C1700 1.390 . S
C1696 C1690 1.465 . S
C1696 C1695 1.396 . S
C1696 C1697 1.399 . S
C1697 H1683 0.929 . S
C1697 C1696 1.399 . S
C1697 C1698 1.385 . S
C1698 H1684 0.931 . S
C1698 C1697 1.385 . S
C1698 C1699 1.389 . S
C1699 C1698 1.389 . S
C1699 C1700 1.387 . S
C1700 H1685 0.930 . S
C1700 C1695 1.390 . S
C1700 C1699 1.387 . S
H1701 C1713 0.930 . S
H1702 C1715 0.930 . S
H1703 C1716 0.930 . S
H1704 C1720 0.959 . S
H1705 C1720 0.959 . S
H1706 C1720 0.961 . S
H1707 C1721 0.960 . S
H1708 C1721 0.961 . S
H1709 C1721 0.959 . S
H1710 C1724 0.929 . S
H1711 C1725 0.931 . S
H1712 C1727 0.930 . S
C1713 H1701 0.930 . S
C1713 C1714 1.399 . S
C1713 C1718 1.399 . S
C1714 C1713 1.399 . S
C1714 C1715 1.376 . S
C1715 H1702 0.930 . S
C1715 C1714 1.376 . S
C1715 C1716 1.388 . S
C1716 H1703 0.930 . S
C1716 C1715 1.388 . S
C1716 C1717 1.390 . S
C1717 C1716 1.390 . S
C1717 C1718 1.394 . S
C1717 C1723 1.465 . S
C1718 C1713 1.399 . S
C1718 C1717 1.394 . S
C1718 C1719 1.516 . S
C1719 C1718 1.516 . S
C1719 C1720 1.502 . S
C1719 C1721 1.561 . S
C1719 C1722 1.526 . S
C1720 H1704 0.959 . S
C1720 H1705 0.959 . S
C1720 H1706 0.961 . S
C1720 C1719 1.502 . S
C1721 H1707 0.960 . S
C1721 H1708 0.961 . S
C1721 H1709 0.959 . S
C1721 C1719 1.561 . S
C1722 C1719 1.526 . S
C1722 C1723 1.396 . S
C1722 C1727 1.390 . S
C1723 C1717 1.465 . S
C1723 C1722 1.396 . S
C1723 C1724 1.399 . S
C1724 H1710 0.929 . S
C1724 C1723 1.399 . S
C1724 C1725 1.385 . S
C1725 H1711 0.931 . S
C1725 C1724 1.385 . S
C1725 C1726 1.389 . S
C1726 C1725 1.389 . S
C1726 C1727 1.387 . S
C1727 H1712 0.930 . S
C1727 C1722 1.390 . S
C1727 C1726 1.387 . S
H1728 C1740 0.930 . S
H1729 C1742 0.930 . S
H1730 C1743 0.930 . S
H1731 C1747 0.959 . S
H1732 C1747 0.959 . S
H1733 C1747 0.961 . S
H1734 C1748 0.960 . S
H1735 C1748 0.961 . S
H1736 C1748 0.959 . S
H1737 C1751 0.929 . S
H1738 C1752 0.931 . S
H1739 C1754 0.930 . S
C1740 H1728 0.930 . S
C1740 C1741 1.399 . S
C1740 C1745 1.399 . S
C1741 C1740 1.399 . S
C1741 C1742 1.376 . S
C1742 H1729 0.930 . S
C1742 C1741 1.376 . S
C1742 C1743 1.388 . S
C1743 H1730 0.930 . S
C1743 C1742 1.388 . S
C1743 C1744 1.390 . S
C1744 C1743 1.390 . S
C1744 C1745 1.394 . S
C1744 C1750 1.465 . S
C1745 C1740 1.399 . S
C1745 C1744 1.394 . S
C1745 C1746 1.516 . S
C1746 C1745 1.516 . S
C1746 C1747 1.502 . S
C1746 C1748 1.561 . S
C1746 C1749 1.526 . S
C1747 H1731 0.959 . S
C1747 H1732 0.959 . S
C1747 H1733 0.961 . S
C1747 C1746 1.502 . S
C1748 H1734 0.960 . S
C1748 H1735 0.961 . S
C1748 H1736 0.959 . S
C1748 C1746 1.561 . S
C1749 C1746 1.526 . S
C1749 C1750 1.396 . S
C1749 C1754 1.390 . S
C1750 C1744 1.465 . S
C1750 C1749 1.396 . S
C1750 C1751 1.399 . S
C1751 H1737 0.929 . S
C1751 C1750 1.399 . S
C1751 C1752 1.385 . S
C1752 H1738 0.931 . S
C1752 C1751 1.385 . S
C1752 C1753 1.389 . S
C1753 C1752 1.389 . S
C1753 C1754 1.387 . S
C1754 H1739 0.930 . S
C1754 C1749 1.390 . S
C1754 C1753 1.387 . S
H1755 C1767 0.930 . S
H1756 C1769 0.930 . S
H1757 C1770 0.930 . S
H1758 C1774 0.959 . S
H1759 C1774 0.959 . S
H1760 C1774 0.961 . S
H1761 C1775 0.960 . S
H1762 C1775 0.961 . S
H1763 C1775 0.959 . S
H1764 C1778 0.929 . S
H1765 C1779 0.931 . S
H1766 C1781 0.930 . S
C1767 H1755 0.930 . S
C1767 C1768 1.399 . S
C1767 C1772 1.399 . S
C1768 C1767 1.399 . S
C1768 C1769 1.376 . S
C1769 H1756 0.930 . S
C1769 C1768 1.376 . S
C1769 C1770 1.388 . S
C1770 H1757 0.930 . S
C1770 C1769 1.388 . S
C1770 C1771 1.390 . S
C1771 C1770 1.390 . S
C1771 C1772 1.394 . S
C1771 C1777 1.465 . S
C1772 C1767 1.399 . S
C1772 C1771 1.394 . S
C1772 C1773 1.516 . S
C1773 C1772 1.516 . S
C1773 C1774 1.502 . S
C1773 C1775 1.561 . S
C1773 C1776 1.526 . S
C1774 H1758 0.959 . S
C1774 H1759 0.959 . S
C1774 H1760 0.961 . S
C1774 C1773 1.502 . S
C1775 H1761 0.960 . S
C1775 H1762 0.961 . S
C1775 H1763 0.959 . S
C1775 C1773 1.561 . S
C1776 C1773 1.526 . S
C1776 C1777 1.396 . S
C1776 C1781 1.390 . S
C1777 C1771 1.465 . S
C1777 C1776 1.396 . S
C1777 C1778 1.399 . S
C1778 H1764 0.929 . S
C1778 C1777 1.399 . S
C1778 C1779 1.385 . S
C1779 H1765 0.931 . S
C1779 C1778 1.385 . S
C1779 C1780 1.389 . S
C1780 C1779 1.389 . S
C1780 C1781 1.387 . S
C1781 H1766 0.930 . S
C1781 C1776 1.390 . S
C1781 C1780 1.387 . S
H1782 C1794 0.930 . S
H1783 C1796 0.930 . S
H1784 C1797 0.930 . S
H1785 C1801 0.959 . S
H1786 C1801 0.959 . S
H1787 C1801 0.961 . S
H1788 C1802 0.960 . S
H1789 C1802 0.961 . S
H1790 C1802 0.959 . S
H1791 C1805 0.929 . S
H1792 C1806 0.931 . S
H1793 C1808 0.930 . S
C1794 H1782 0.930 . S
C1794 C1795 1.399 . S
C1794 C1799 1.399 . S
C1795 C1794 1.399 . S
C1795 C1796 1.376 . S
C1796 H1783 0.930 . S
C1796 C1795 1.376 . S
C1796 C1797 1.388 . S
C1797 H1784 0.930 . S
C1797 C1796 1.388 . S
C1797 C1798 1.390 . S
C1798 C1797 1.390 . S
C1798 C1799 1.394 . S
C1798 C1804 1.465 . S
C1799 C1794 1.399 . S
C1799 C1798 1.394 . S
C1799 C1800 1.516 . S
C1800 C1799 1.516 . S
C1800 C1801 1.502 . S
C1800 C1802 1.561 . S
C1800 C1803 1.526 . S
C1801 H1785 0.959 . S
C1801 H1786 0.959 . S
C1801 H1787 0.961 . S
C1801 C1800 1.502 . S
C1802 H1788 0.960 . S
C1802 H1789 0.961 . S
C1802 H1790 0.959 . S
C1802 C1800 1.561 . S
C1803 C1800 1.526 . S
C1803 C1804 1.396 . S
C1803 C1808 1.390 . S
C1804 C1798 1.465 . S
C1804 C1803 1.396 . S
C1804 C1805 1.399 . S
C1805 H1791 0.929 . S
C1805 C1804 1.399 . S
C1805 C1806 1.385 . S
C1806 H1792 0.931 . S
C1806 C1805 1.385 . S
C1806 C1807 1.389 . S
C1807 C1806 1.389 . S
C1807 C1808 1.387 . S
C1808 H1793 0.930 . S
C1808 C1803 1.390 . S
C1808 C1807 1.387 . S
H1809 C1821 0.930 . S
H1810 C1823 0.930 . S
H1811 C1824 0.930 . S
H1812 C1828 0.959 . S
H1813 C1828 0.959 . S
H1814 C1828 0.961 . S
H1815 C1829 0.960 . S
H1816 C1829 0.961 . S
H1817 C1829 0.959 . S
H1818 C1832 0.929 . S
H1819 C1833 0.931 . S
H1820 C1835 0.930 . S
C1821 H1809 0.930 . S
C1821 C1822 1.399 . S
C1821 C1826 1.399 . S
C1822 C1821 1.399 . S
C1822 C1823 1.376 . S
C1823 H1810 0.930 . S
C1823 C1822 1.376 . S
C1823 C1824 1.388 . S
C1824 H1811 0.930 . S
C1824 C1823 1.388 . S
C1824 C1825 1.390 . S
C1825 C1824 1.390 . S
C1825 C1826 1.394 . S
C1825 C1831 1.465 . S
C1826 C1821 1.399 . S
C1826 C1825 1.394 . S
C1826 C1827 1.516 . S
C1827 C1826 1.516 . S
C1827 C1828 1.502 . S
C1827 C1829 1.561 . S
C1827 C1830 1.526 . S
C1828 H1812 0.959 . S
C1828 H1813 0.959 . S
C1828 H1814 0.961 . S
C1828 C1827 1.502 . S
C1829 H1815 0.960 . S
C1829 H1816 0.961 . S
C1829 H1817 0.959 . S
C1829 C1827 1.561 . S
C1830 C1827 1.526 . S
C1830 C1831 1.396 . S
C1830 C1835 1.390 . S
C1831 C1825 1.465 . S
C1831 C1830 1.396 . S
C1831 C1832 1.399 . S
C1832 H1818 0.929 . S
C1832 C1831 1.399 . S
C1832 C1833 1.385 . S
C1833 H1819 0.931 . S
C1833 C1832 1.385 . S
C1833 C1834 1.389 . S
C1834 C1833 1.389 . S
C1834 C1835 1.387 . S
C1835 H1820 0.930 . S
C1835 C1830 1.390 . S
C1835 C1834 1.387 . S
H1836 C1848 0.930 . S
H1837 C1850 0.930 . S
H1838 C1851 0.930 . S
H1839 C1855 0.959 . S
H1840 C1855 0.959 . S
H1841 C1855 0.961 . S
H1842 C1856 0.960 . S
H1843 C1856 0.961 . S
H1844 C1856 0.959 . S
H1845 C1859 0.929 . S
H1846 C1860 0.931 . S
H1847 C1862 0.930 . S
C1848 H1836 0.930 . S
C1848 C1849 1.399 . S
C1848 C1853 1.399 . S
C1849 C1848 1.399 . S
C1849 C1850 1.376 . S
C1850 H1837 0.930 . S
C1850 C1849 1.376 . S
C1850 C1851 1.388 . S
C1851 H1838 0.930 . S
C1851 C1850 1.388 . S
C1851 C1852 1.390 . S
C1852 C1851 1.390 . S
C1852 C1853 1.394 . S
C1852 C1858 1.465 . S
C1853 C1848 1.399 . S
C1853 C1852 1.394 . S
C1853 C1854 1.516 . S
C1854 C1853 1.516 . S
C1854 C1855 1.502 . S
C1854 C1856 1.561 . S
C1854 C1857 1.526 . S
C1855 H1839 0.959 . S
C1855 H1840 0.959 . S
C1855 H1841 0.961 . S
C1855 C1854 1.502 . S
C1856 H1842 0.960 . S
C1856 H1843 0.961 . S
C1856 H1844 0.959 . S
C1856 C1854 1.561 . S
C1857 C1854 1.526 . S
C1857 C1858 1.396 . S
C1857 C1862 1.390 . S
C1858 C1852 1.465 . S
C1858 C1857 1.396 . S
C1858 C1859 1.399 . S
C1859 H1845 0.929 . S
C1859 C1858 1.399 . S
C1859 C1860 1.385 . S
C1860 H1846 0.931 . S
C1860 C1859 1.385 . S
C1860 C1861 1.389 . S
C1861 C1860 1.389 . S
C1861 C1862 1.387 . S
C1862 H1847 0.930 . S
C1862 C1857 1.390 . S
C1862 C1861 1.387 . S
H1863 C1875 0.930 . S
H1864 C1877 0.930 . S
H1865 C1878 0.930 . S
H1866 C1882 0.959 . S
H1867 C1882 0.959 . S
H1868 C1882 0.961 . S
H1869 C1883 0.960 . S
H1870 C1883 0.961 . S
H1871 C1883 0.959 . S
H1872 C1886 0.929 . S
H1873 C1887 0.931 . S
H1874 C1889 0.930 . S
C1875 H1863 0.930 . S
C1875 C1876 1.399 . S
C1875 C1880 1.399 . S
C1876 C1875 1.399 . S
C1876 C1877 1.376 . S
C1877 H1864 0.930 . S
C1877 C1876 1.376 . S
C1877 C1878 1.388 . S
C1878 H1865 0.930 . S
C1878 C1877 1.388 . S
C1878 C1879 1.390 . S
C1879 C1878 1.390 . S
C1879 C1880 1.394 . S
C1879 C1885 1.465 . S
C1880 C1875 1.399 . S
C1880 C1879 1.394 . S
C1880 C1881 1.516 . S
C1881 C1880 1.516 . S
C1881 C1882 1.502 . S
C1881 C1883 1.561 . S
C1881 C1884 1.526 . S
C1882 H1866 0.959 . S
C1882 H1867 0.959 . S
C1882 H1868 0.961 . S
C1882 C1881 1.502 . S
C1883 H1869 0.960 . S
C1883 H1870 0.961 . S
C1883 H1871 0.959 . S
C1883 C1881 1.561 . S
C1884 C1881 1.526 . S
C1884 C1885 1.396 . S
C1884 C1889 1.390 . S
C1885 C1879 1.465 . S
C1885 C1884 1.396 . S
C1885 C1886 1.399 . S
C1886 H1872 0.929 . S
C1886 C1885 1.399 . S
C1886 C1887 1.385 . S
C1887 H1873 0.931 . S
C1887 C1886 1.385 . S
C1887 C1888 1.389 . S
C1888 C1887 1.389 . S
C1888 C1889 1.387 . S
C1889 H1874 0.930 . S
C1889 C1884 1.390 . S
C1889 C1888 1.387 . S
H1890 C1902 0.930 . S
H1891 C1904 0.930 . S
H1892 C1905 0.930 . S
H1893 C1909 0.959 . S
H1894 C1909 0.959 . S
H1895 C1909 0.961 . S
H1896 C1910 0.960 . S
H1897 C1910 0.961 . S
H1898 C1910 0.959 . S
H1899 C1913 0.929 . S
H1900 C1914 0.931 . S
H1901 C1916 0.930 . S
C1902 H1890 0.930 . S
C1902 C1903 1.399 . S
C1902 C1907 1.399 . S
C1903 C1902 1.399 . S
C1903 C1904 1.376 . S
C1904 H1891 0.930 . S
C1904 C1903 1.376 . S
C1904 C1905 1.388 . S
C1905 H1892 0.930 . S
C1905 C1904 1.388 . S
C1905 C1906 1.390 . S
C1906 C1905 1.390 . S
C1906 C1907 1.394 . S
C1906 C1912 1.465 . S
C1907 C1902 1.399 . S
C1907 C1906 1.394 . S
C1907 C1908 1.516 . S
C1908 C1907 1.516 . S
C1908 C1909 1.502 . S
C1908 C1910 1.561 . S
C1908 C1911 1.526 . S
C1909 H1893 0.959 . S
C1909 H1894 0.959 . S
C1909 H1895 0.961 . S
C1909 C1908 1.502 . S
C1910 H1896 0.960 . S
C1910 H1897 0.961 . S
C1910 H1898 0.959 . S
C1910 C1908 1.561 . S
C1911 C1908 1.526 . S
C1911 C1912 1.396 . S
C1911 C1916 1.390 . S
C1912 C1906 1.465 . S
C1912 C1911 1.396 . S
C1912 C1913 1.399 . S
C1913 H1899 0.929 . S
C1913 C1912 1.399 . S
C1913 C1914 1.385 . S
C1914 H1900 0.931 . S
C1914 C1913 1.385 . S
C1914 C1915 1.389 . S
C1915 C1914 1.389 . S
C1915 C1916 1.387 . S
C1916 H1901 0.930 . S
C1916 C1911 1.390 . S
C1916 C1915 1.387 . S
H1917 C1929 0.930 . S
H1918 C1931 0.930 . S
H1919 C1932 0.930 . S
H1920 C1936 0.959 . S
H1921 C1936 0.959 . S
H1922 C1936 0.961 . S
H1923 C1937 0.960 . S
H1924 C1937 0.961 . S
H1925 C1937 0.959 . S
H1926 C1940 0.929 . S
H1927 C1941 0.931 . S
H1928 C1943 0.930 . S
C1929 H1917 0.930 . S
C1929 C1930 1.399 . S
C1929 C1934 1.399 . S
C1930 C1929 1.399 . S
C1930 C1931 1.376 . S
C1931 H1918 0.930 . S
C1931 C1930 1.376 . S
C1931 C1932 1.388 . S
C1932 H1919 0.930 . S
C1932 C1931 1.388 . S
C1932 C1933 1.390 . S
C1933 C1932 1.390 . S
C1933 C1934 1.394 . S
C1933 C1939 1.465 . S
C1934 C1929 1.399 . S
C1934 C1933 1.394 . S
C1934 C1935 1.516 . S
C1935 C1934 1.516 . S
C1935 C1936 1.502 . S
C1935 C1937 1.561 . S
C1935 C1938 1.526 . S
C1936 H1920 0.959 . S
C1936 H1921 0.959 . S
C1936 H1922 0.961 . S
C1936 C1935 1.502 . S
C1937 H1923 0.960 . S
C1937 H1924 0.961 . S
C1937 H1925 0.959 . S
C1937 C1935 1.561 . S
C1938 C1935 1.526 . S
C1938 C1939 1.396 . S
C1938 C1943 1.390 . S
C1939 C1933 1.465 . S
C1939 C1938 1.396 . S
C1939 C1940 1.399 . S
C1940 H1926 0.929 . S
C1940 C1939 1.399 . S
C1940 C1941 1.385 . S
C1941 H1927 0.931 . S
C1941 C1940 1.385 . S
C1941 C1942 1.389 . S
C1942 C1941 1.389 . S
C1942 C1943 1.387 . S
C1943 H1928 0.930 . S
C1943 C1938 1.390 . S
C1943 C1942 1.387 . S
H1944 C1956 0.930 . S
H1945 C1958 0.930 . S
H1946 C1959 0.930 . S
H1947 C1963 0.959 . S
H1948 C1963 0.959 . S
H1949 C1963 0.961 . S
H1950 C1964 0.960 . S
H1951 C1964 0.961 . S
H1952 C1964 0.959 . S
H1953 C1967 0.929 . S
H1954 C1968 0.931 . S
H1955 C1970 0.930 . S
C1956 H1944 0.930 . S
C1956 C1957 1.399 . S
C1956 C1961 1.399 . S
C1957 C1956 1.399 . S
C1957 C1958 1.376 . S
C1958 H1945 0.930 . S
C1958 C1957 1.376 . S
C1958 C1959 1.388 . S
C1959 H1946 0.930 . S
C1959 C1958 1.388 . S
C1959 C1960 1.390 . S
C1960 C1959 1.390 . S
C1960 C1961 1.394 . S
C1960 C1966 1.465 . S
C1961 C1956 1.399 . S
C1961 C1960 1.394 . S
C1961 C1962 1.516 . S
C1962 C1961 1.516 . S
C1962 C1963 1.502 . S
C1962 C1964 1.561 . S
C1962 C1965 1.526 . S
C1963 H1947 0.959 . S
C1963 H1948 0.959 . S
C1963 H1949 0.961 . S
C1963 C1962 1.502 . S
C1964 H1950 0.960 . S
C1964 H1951 0.961 . S
C1964 H1952 0.959 . S
C1964 C1962 1.561 . S
C1965 C1962 1.526 . S
C1965 C1966 1.396 . S
C1965 C1970 1.390 . S
C1966 C1960 1.465 . S
C1966 C1965 1.396 . S
C1966 C1967 1.399 . S
C1967 H1953 0.929 . S
C1967 C1966 1.399 . S
C1967 C1968 1.385 . S
C1968 H1954 0.931 . S
C1968 C1967 1.385 . S
C1968 C1969 1.389 . S
C1969 C1968 1.389 . S
C1969 C1970 1.387 . S
C1970 H1955 0.930 . S
C1970 C1965 1.390 . S
C1970 C1969 1.387 . S
H1971 C1983 0.930 . S
H1972 C1985 0.930 . S
H1973 C1986 0.930 . S
H1974 C1990 0.959 . S
H1975 C1990 0.959 . S
H1976 C1990 0.961 . S
H1977 C1991 0.960 . S
H1978 C1991 0.961 . S
H1979 C1991 0.959 . S
H1980 C1994 0.929 . S
H1981 C1995 0.931 . S
H1982 C1997 0.930 . S
C1983 H1971 0.930 . S
C1983 C1984 1.399 . S
C1983 C1988 1.399 . S
C1984 C1983 1.399 . S
C1984 C1985 1.376 . S
C1985 H1972 0.930 . S
C1985 C1984 1.376 . S
C1985 C1986 1.388 . S
C1986 H1973 0.930 . S
C1986 C1985 1.388 . S
C1986 C1987 1.390 . S
C1987 C1986 1.390 . S
C1987 C1988 1.394 . S
C1987 C1993 1.465 . S
C1988 C1983 1.399 . S
C1988 C1987 1.394 . S
C1988 C1989 1.516 . S
C1989 C1988 1.516 . S
C1989 C1990 1.502 . S
C1989 C1991 1.561 . S
C1989 C1992 1.526 . S
C1990 H1974 0.959 . S
C1990 H1975 0.959 . S
C1990 H1976 0.961 . S
C1990 C1989 1.502 . S
C1991 H1977 0.960 . S
C1991 H1978 0.961 . S
C1991 H1979 0.959 . S
C1991 C1989 1.561 . S
C1992 C1989 1.526 . S
C1992 C1993 1.396 . S
C1992 C1997 1.390 . S
C1993 C1987 1.465 . S
C1993 C1992 1.396 . S
C1993 C1994 1.399 . S
C1994 H1980 0.929 . S
C1994 C1993 1.399 . S
C1994 C1995 1.385 . S
C1995 H1981 0.931 . S
C1995 C1994 1.385 . S
C1995 C1996 1.389 . S
C1996 C1995 1.389 . S
C1996 C1997 1.387 . S
C1997 H1982 0.930 . S
C1997 C1992 1.390 . S
C1997 C1996 1.387 . S
H1998 C2010 0.930 . S
H1999 C2012 0.930 . S
H2000 C2013 0.930 . S
H2001 C2017 0.959 . S
H2002 C2017 0.959 . S
H2003 C2017 0.961 . S
H2004 C2018 0.960 . S
H2005 C2018 0.961 . S
H2006 C2018 0.959 . S
H2007 C2021 0.929 . S
H2008 C2022 0.931 . S
H2009 C2024 0.930 . S
C2010 H1998 0.930 . S
C2010 C2011 1.399 . S
C2010 C2015 1.399 . S
C2011 C2010 1.399 . S
C2011 C2012 1.376 . S
C2012 H1999 0.930 . S
C2012 C2011 1.376 . S
C2012 C2013 1.388 . S
C2013 H2000 0.930 . S
C2013 C2012 1.388 . S
C2013 C2014 1.390 . S
C2014 C2013 1.390 . S
C2014 C2015 1.394 . S
C2014 C2020 1.465 . S
C2015 C2010 1.399 . S
C2015 C2014 1.394 . S
C2015 C2016 1.516 . S
C2016 C2015 1.516 . S
C2016 C2017 1.502 . S
C2016 C2018 1.561 . S
C2016 C2019 1.526 . S
C2017 H2001 0.959 . S
C2017 H2002 0.959 . S
C2017 H2003 0.961 . S
C2017 C2016 1.502 . S
C2018 H2004 0.960 . S
C2018 H2005 0.961 . S
C2018 H2006 0.959 . S
C2018 C2016 1.561 . S
C2019 C2016 1.526 . S
C2019 C2020 1.396 . S
C2019 C2024 1.390 . S
C2020 C2014 1.465 . S
C2020 C2019 1.396 . S
C2020 C2021 1.399 . S
C2021 H2007 0.929 . S
C2021 C2020 1.399 . S
C2021 C2022 1.385 . S
C2022 H2008 0.931 . S
C2022 C2021 1.385 . S
C2022 C2023 1.389 . S
C2023 C2022 1.389 . S
C2023 C2024 1.387 . S
C2024 H2009 0.930 . S
C2024 C2019 1.390 . S
C2024 C2023 1.387 . S
H2025 C2037 0.930 . S
H2026 C2039 0.930 . S
H2027 C2040 0.930 . S
H2028 C2044 0.959 . S
H2029 C2044 0.959 . S
H2030 C2044 0.961 . S
H2031 C2045 0.960 . S
H2032 C2045 0.961 . S
H2033 C2045 0.959 . S
H2034 C2048 0.929 . S
H2035 C2049 0.931 . S
H2036 C2051 0.930 . S
C2037 H2025 0.930 . S
C2037 C2038 1.399 . S
C2037 C2042 1.399 . S
C2038 C2037 1.399 . S
C2038 C2039 1.376 . S
C2039 H2026 0.930 . S
C2039 C2038 1.376 . S
C2039 C2040 1.388 . S
C2040 H2027 0.930 . S
C2040 C2039 1.388 . S
C2040 C2041 1.390 . S
C2041 C2040 1.390 . S
C2041 C2042 1.394 . S
C2041 C2047 1.465 . S
C2042 C2037 1.399 . S
C2042 C2041 1.394 . S
C2042 C2043 1.516 . S
C2043 C2042 1.516 . S
C2043 C2044 1.502 . S
C2043 C2045 1.561 . S
C2043 C2046 1.526 . S
C2044 H2028 0.959 . S
C2044 H2029 0.959 . S
C2044 H2030 0.961 . S
C2044 C2043 1.502 . S
C2045 H2031 0.960 . S
C2045 H2032 0.961 . S
C2045 H2033 0.959 . S
C2045 C2043 1.561 . S
C2046 C2043 1.526 . S
C2046 C2047 1.396 . S
C2046 C2051 1.390 . S
C2047 C2041 1.465 . S
C2047 C2046 1.396 . S
C2047 C2048 1.399 . S
C2048 H2034 0.929 . S
C2048 C2047 1.399 . S
C2048 C2049 1.385 . S
C2049 H2035 0.931 . S
C2049 C2048 1.385 . S
C2049 C2050 1.389 . S
C2050 C2049 1.389 . S
C2050 C2051 1.387 . S
C2051 H2036 0.930 . S
C2051 C2046 1.390 . S
C2051 C2050 1.387 . S
H2052 C2064 0.930 . S
H2053 C2066 0.930 . S
H2054 C2067 0.930 . S
H2055 C2071 0.959 . S
H2056 C2071 0.959 . S
H2057 C2071 0.961 . S
H2058 C2072 0.960 . S
H2059 C2072 0.961 . S
H2060 C2072 0.959 . S
H2061 C2075 0.929 . S
H2062 C2076 0.931 . S
H2063 C2078 0.930 . S
C2064 H2052 0.930 . S
C2064 C2065 1.399 . S
C2064 C2069 1.399 . S
C2065 C2064 1.399 . S
C2065 C2066 1.376 . S
C2066 H2053 0.930 . S
C2066 C2065 1.376 . S
C2066 C2067 1.388 . S
C2067 H2054 0.930 . S
C2067 C2066 1.388 . S
C2067 C2068 1.390 . S
C2068 C2067 1.390 . S
C2068 C2069 1.394 . S
C2068 C2074 1.465 . S
C2069 C2064 1.399 . S
C2069 C2068 1.394 . S
C2069 C2070 1.516 . S
C2070 C2069 1.516 . S
C2070 C2071 1.502 . S
C2070 C2072 1.561 . S
C2070 C2073 1.526 . S
C2071 H2055 0.959 . S
C2071 H2056 0.959 . S
C2071 H2057 0.961 . S
C2071 C2070 1.502 . S
C2072 H2058 0.960 . S
C2072 H2059 0.961 . S
C2072 H2060 0.959 . S
C2072 C2070 1.561 . S
C2073 C2070 1.526 . S
C2073 C2074 1.396 . S
C2073 C2078 1.390 . S
C2074 C2068 1.465 . S
C2074 C2073 1.396 . S
C2074 C2075 1.399 . S
C2075 H2061 0.929 . S
C2075 C2074 1.399 . S
C2075 C2076 1.385 . S
C2076 H2062 0.931 . S
C2076 C2075 1.385 . S
C2076 C2077 1.389 . S
C2077 C2076 1.389 . S
C2077 C2078 1.387 . S
C2078 H2063 0.930 . S
C2078 C2073 1.390 . S
C2078 C2077 1.387 . S
H2079 C2091 0.930 . S
H2080 C2093 0.930 . S
H2081 C2094 0.930 . S
H2082 C2098 0.959 . S
H2083 C2098 0.959 . S
H2084 C2098 0.961 . S
H2085 C2099 0.960 . S
H2086 C2099 0.961 . S
H2087 C2099 0.959 . S
H2088 C2102 0.929 . S
H2089 C2103 0.931 . S
H2090 C2105 0.930 . S
C2091 H2079 0.930 . S
C2091 C2092 1.399 . S
C2091 C2096 1.399 . S
C2092 C2091 1.399 . S
C2092 C2093 1.376 . S
C2093 H2080 0.930 . S
C2093 C2092 1.376 . S
C2093 C2094 1.388 . S
C2094 H2081 0.930 . S
C2094 C2093 1.388 . S
C2094 C2095 1.390 . S
C2095 C2094 1.390 . S
C2095 C2096 1.394 . S
C2095 C2101 1.465 . S
C2096 C2091 1.399 . S
C2096 C2095 1.394 . S
C2096 C2097 1.516 . S
C2097 C2096 1.516 . S
C2097 C2098 1.502 . S
C2097 C2099 1.561 . S
C2097 C2100 1.526 . S
C2098 H2082 0.959 . S
C2098 H2083 0.959 . S
C2098 H2084 0.961 . S
C2098 C2097 1.502 . S
C2099 H2085 0.960 . S
C2099 H2086 0.961 . S
C2099 H2087 0.959 . S
C2099 C2097 1.561 . S
C2100 C2097 1.526 . S
C2100 C2101 1.396 . S
C2100 C2105 1.390 . S
C2101 C2095 1.465 . S
C2101 C2100 1.396 . S
C2101 C2102 1.399 . S
C2102 H2088 0.929 . S
C2102 C2101 1.399 . S
C2102 C2103 1.385 . S
C2103 H2089 0.931 . S
C2103 C2102 1.385 . S
C2103 C2104 1.389 . S
C2104 C2103 1.389 . S
C2104 C2105 1.387 . S
C2105 H2090 0.930 . S
C2105 C2100 1.390 . S
C2105 C2104 1.387 . S
H2106 C2118 0.930 . S
H2107 C2120 0.930 . S
H2108 C2121 0.930 . S
H2109 C2125 0.959 . S
H2110 C2125 0.959 . S
H2111 C2125 0.961 . S
H2112 C2126 0.960 . S
H2113 C2126 0.961 . S
H2114 C2126 0.959 . S
H2115 C2129 0.929 . S
H2116 C2130 0.931 . S
H2117 C2132 0.930 . S
C2118 H2106 0.930 . S
C2118 C2119 1.399 . S
C2118 C2123 1.399 . S
C2119 C2118 1.399 . S
C2119 C2120 1.376 . S
C2120 H2107 0.930 . S
C2120 C2119 1.376 . S
C2120 C2121 1.388 . S
C2121 H2108 0.930 . S
C2121 C2120 1.388 . S
C2121 C2122 1.390 . S
C2122 C2121 1.390 . S
C2122 C2123 1.394 . S
C2122 C2128 1.465 . S
C2123 C2118 1.399 . S
C2123 C2122 1.394 . S
C2123 C2124 1.516 . S
C2124 C2123 1.516 . S
C2124 C2125 1.502 . S
C2124 C2126 1.561 . S
C2124 C2127 1.526 . S
C2125 H2109 0.959 . S
C2125 H2110 0.959 . S
C2125 H2111 0.961 . S
C2125 C2124 1.502 . S
C2126 H2112 0.960 . S
C2126 H2113 0.961 . S
C2126 H2114 0.959 . S
C2126 C2124 1.561 . S
C2127 C2124 1.526 . S
C2127 C2128 1.396 . S
C2127 C2132 1.390 . S
C2128 C2122 1.465 . S
C2128 C2127 1.396 . S
C2128 C2129 1.399 . S
C2129 H2115 0.929 . S
C2129 C2128 1.399 . S
C2129 C2130 1.385 . S
C2130 H2116 0.931 . S
C2130 C2129 1.385 . S
C2130 C2131 1.389 . S
C2131 C2130 1.389 . S
C2131 C2132 1.387 . S
C2132 H2117 0.930 . S
C2132 C2127 1.390 . S
C2132 C2131 1.387 . S
H2133 C2145 0.930 . S
H2134 C2147 0.930 . S
H2135 C2148 0.930 . S
H2136 C2152 0.959 . S
H2137 C2152 0.959 . S
H2138 C2152 0.961 . S
H2139 C2153 0.960 . S
H2140 C2153 0.961 . S
H2141 C2153 0.959 . S
H2142 C2156 0.929 . S
H2143 C2157 0.931 . S
H2144 C2159 0.930 . S
C2145 H2133 0.930 . S
C2145 C2146 1.399 . S
C2145 C2150 1.399 . S
C2146 C2145 1.399 . S
C2146 C2147 1.376 . S
C2147 H2134 0.930 . S
C2147 C2146 1.376 . S
C2147 C2148 1.388 . S
C2148 H2135 0.930 . S
C2148 C2147 1.388 . S
C2148 C2149 1.390 . S
C2149 C2148 1.390 . S
C2149 C2150 1.394 . S
C2149 C2155 1.465 . S
C2150 C2145 1.399 . S
C2150 C2149 1.394 . S
C2150 C2151 1.516 . S
C2151 C2150 1.516 . S
C2151 C2152 1.502 . S
C2151 C2153 1.561 . S
C2151 C2154 1.526 . S
C2152 H2136 0.959 . S
C2152 H2137 0.959 . S
C2152 H2138 0.961 . S
C2152 C2151 1.502 . S
C2153 H2139 0.960 . S
C2153 H2140 0.961 . S
C2153 H2141 0.959 . S
C2153 C2151 1.561 . S
C2154 C2151 1.526 . S
C2154 C2155 1.396 . S
C2154 C2159 1.390 . S
C2155 C2149 1.465 . S
C2155 C2154 1.396 . S
C2155 C2156 1.399 . S
C2156 H2142 0.929 . S
C2156 C2155 1.399 . S
C2156 C2157 1.385 . S
C2157 H2143 0.931 . S
C2157 C2156 1.385 . S
C2157 C2158 1.389 . S
C2158 C2157 1.389 . S
C2158 C2159 1.387 . S
C2159 H2144 0.930 . S
C2159 C2154 1.390 . S
C2159 C2158 1.387 . S
H2160 C2172 0.930 . S
H2161 C2174 0.930 . S
H2162 C2175 0.930 . S
H2163 C2179 0.959 . S
H2164 C2179 0.959 . S
H2165 C2179 0.961 . S
H2166 C2180 0.960 . S
H2167 C2180 0.961 . S
H2168 C2180 0.959 . S
H2169 C2183 0.929 . S
H2170 C2184 0.931 . S
H2171 C2186 0.930 . S
C2172 H2160 0.930 . S
C2172 C2173 1.399 . S
C2172 C2177 1.399 . S
C2173 C2172 1.399 . S
C2173 C2174 1.376 . S
C2174 H2161 0.930 . S
C2174 C2173 1.376 . S
C2174 C2175 1.388 . S
C2175 H2162 0.930 . S
C2175 C2174 1.388 . S
C2175 C2176 1.390 . S
C2176 C2175 1.390 . S
C2176 C2177 1.394 . S
C2176 C2182 1.465 . S
C2177 C2172 1.399 . S
C2177 C2176 1.394 . S
C2177 C2178 1.516 . S
C2178 C2177 1.516 . S
C2178 C2179 1.502 . S
C2178 C2180 1.561 . S
C2178 C2181 1.526 . S
C2179 H2163 0.959 . S
C2179 H2164 0.959 . S
C2179 H2165 0.961 . S
C2179 C2178 1.502 . S
C2180 H2166 0.960 . S
C2180 H2167 0.961 . S
C2180 H2168 0.959 . S
C2180 C2178 1.561 . S
C2181 C2178 1.526 . S
C2181 C2182 1.396 . S
C2181 C2186 1.390 . S
C2182 C2176 1.465 . S
C2182 C2181 1.396 . S
C2182 C2183 1.399 . S
C2183 H2169 0.929 . S
C2183 C2182 1.399 . S
C2183 C2184 1.385 . S
C2184 H2170 0.931 . S
C2184 C2183 1.385 . S
C2184 C2185 1.389 . S
C2185 C2184 1.389 . S
C2185 C2186 1.387 . S
C2186 H2171 0.930 . S
C2186 C2181 1.390 . S
C2186 C2185 1.387 . S
H2187 C2199 0.930 . S
H2188 C2201 0.930 . S
H2189 C2202 0.930 . S
H2190 C2206 0.959 . S
H2191 C2206 0.959 . S
H2192 C2206 0.961 . S
H2193 C2207 0.960 . S
H2194 C2207 0.961 . S
H2195 C2207 0.959 . S
H2196 C2210 0.929 . S
H2197 C2211 0.931 . S
H2198 C2213 0.930 . S
C2199 H2187 0.930 . S
C2199 C2200 1.399 . S
C2199 C2204 1.399 . S
C2200 C2199 1.399 . S
C2200 C2201 1.376 . S
C2201 H2188 0.930 . S
C2201 C2200 1.376 . S
C2201 C2202 1.388 . S
C2202 H2189 0.930 . S
C2202 C2201 1.388 . S
C2202 C2203 1.390 . S
C2203 C2202 1.390 . S
C2203 C2204 1.394 . S
C2203 C2209 1.465 . S
C2204 C2199 1.399 . S
C2204 C2203 1.394 . S
C2204 C2205 1.516 . S
C2205 C2204 1.516 . S
C2205 C2206 1.502 . S
C2205 C2207 1.561 . S
C2205 C2208 1.526 . S
C2206 H2190 0.959 . S
C2206 H2191 0.959 . S
C2206 H2192 0.961 . S
C2206 C2205 1.502 . S
C2207 H2193 0.960 . S
C2207 H2194 0.961 . S
C2207 H2195 0.959 . S
C2207 C2205 1.561 . S
C2208 C2205 1.526 . S
C2208 C2209 1.396 . S
C2208 C2213 1.390 . S
C2209 C2203 1.465 . S
C2209 C2208 1.396 . S
C2209 C2210 1.399 . S
C2210 H2196 0.929 . S
C2210 C2209 1.399 . S
C2210 C2211 1.385 . S
C2211 H2197 0.931 . S
C2211 C2210 1.385 . S
C2211 C2212 1.389 . S
C2212 C2211 1.389 . S
C2212 C2213 1.387 . S
C2213 H2198 0.930 . S
C2213 C2208 1.390 . S
C2213 C2212 1.387 . S
H2214 C2226 0.930 . S
H2215 C2228 0.930 . S
H2216 C2229 0.930 . S
H2217 C2233 0.959 . S
H2218 C2233 0.959 . S
H2219 C2233 0.961 . S
H2220 C2234 0.960 . S
H2221 C2234 0.961 . S
H2222 C2234 0.959 . S
H2223 C2237 0.929 . S
H2224 C2238 0.931 . S
H2225 C2240 0.930 . S
C2226 H2214 0.930 . S
C2226 C2227 1.399 . S
C2226 C2231 1.399 . S
C2227 C2226 1.399 . S
C2227 C2228 1.376 . S
C2228 H2215 0.930 . S
C2228 C2227 1.376 . S
C2228 C2229 1.388 . S
C2229 H2216 0.930 . S
C2229 C2228 1.388 . S
C2229 C2230 1.390 . S
C2230 C2229 1.390 . S
C2230 C2231 1.394 . S
C2230 C2236 1.465 . S
C2231 C2226 1.399 . S
C2231 C2230 1.394 . S
C2231 C2232 1.516 . S
C2232 C2231 1.516 . S
C2232 C2233 1.502 . S
C2232 C2234 1.561 . S
C2232 C2235 1.526 . S
C2233 H2217 0.959 . S
C2233 H2218 0.959 . S
C2233 H2219 0.961 . S
C2233 C2232 1.502 . S
C2234 H2220 0.960 . S
C2234 H2221 0.961 . S
C2234 H2222 0.959 . S
C2234 C2232 1.561 . S
C2235 C2232 1.526 . S
C2235 C2236 1.396 . S
C2235 C2240 1.390 . S
C2236 C2230 1.465 . S
C2236 C2235 1.396 . S
C2236 C2237 1.399 . S
C2237 H2223 0.929 . S
C2237 C2236 1.399 . S
C2237 C2238 1.385 . S
C2238 H2224 0.931 . S
C2238 C2237 1.385 . S
C2238 C2239 1.389 . S
C2239 C2238 1.389 . S
C2239 C2240 1.387 . S
C2240 H2225 0.930 . S
C2240 C2235 1.390 . S
C2240 C2239 1.387 . S
H2241 C2253 0.930 . S
H2242 C2255 0.930 . S
H2243 C2256 0.930 . S
H2244 C2260 0.959 . S
H2245 C2260 0.959 . S
H2246 C2260 0.961 . S
H2247 C2261 0.960 . S
H2248 C2261 0.961 . S
H2249 C2261 0.959 . S
H2250 C2264 0.929 . S
H2251 C2265 0.931 . S
H2252 C2267 0.930 . S
C2253 H2241 0.930 . S
C2253 C2254 1.399 . S
C2253 C2258 1.399 . S
C2254 C2253 1.399 . S
C2254 C2255 1.376 . S
C2255 H2242 0.930 . S
C2255 C2254 1.376 . S
C2255 C2256 1.388 . S
C2256 H2243 0.930 . S
C2256 C2255 1.388 . S
C2256 C2257 1.390 . S
C2257 C2256 1.390 . S
C2257 C2258 1.394 . S
C2257 C2263 1.465 . S
C2258 C2253 1.399 . S
C2258 C2257 1.394 . S
C2258 C2259 1.516 . S
C2259 C2258 1.516 . S
C2259 C2260 1.502 . S
C2259 C2261 1.561 . S
C2259 C2262 1.526 . S
C2260 H2244 0.959 . S
C2260 H2245 0.959 . S
C2260 H2246 0.961 . S
C2260 C2259 1.502 . S
C2261 H2247 0.960 . S
C2261 H2248 0.961 . S
C2261 H2249 0.959 . S
C2261 C2259 1.561 . S
C2262 C2259 1.526 . S
C2262 C2263 1.396 . S
C2262 C2267 1.390 . S
C2263 C2257 1.465 . S
C2263 C2262 1.396 . S
C2263 C2264 1.399 . S
C2264 H2250 0.929 . S
C2264 C2263 1.399 . S
C2264 C2265 1.385 . S
C2265 H2251 0.931 . S
C2265 C2264 1.385 . S
C2265 C2266 1.389 . S
C2266 C2265 1.389 . S
C2266 C2267 1.387 . S
C2267 H2252 0.930 . S
C2267 C2262 1.390 . S
C2267 C2266 1.387 . S
H2268 C2280 0.930 . S
H2269 C2282 0.930 . S
H2270 C2283 0.930 . S
H2271 C2287 0.959 . S
H2272 C2287 0.959 . S
H2273 C2287 0.961 . S
H2274 C2288 0.960 . S
H2275 C2288 0.961 . S
H2276 C2288 0.959 . S
H2277 C2291 0.929 . S
H2278 C2292 0.931 . S
H2279 C2294 0.930 . S
C2280 H2268 0.930 . S
C2280 C2281 1.399 . S
C2280 C2285 1.399 . S
C2281 C2280 1.399 . S
C2281 C2282 1.376 . S
C2282 H2269 0.930 . S
C2282 C2281 1.376 . S
C2282 C2283 1.388 . S
C2283 H2270 0.930 . S
C2283 C2282 1.388 . S
C2283 C2284 1.390 . S
C2284 C2283 1.390 . S
C2284 C2285 1.394 . S
C2284 C2290 1.465 . S
C2285 C2280 1.399 . S
C2285 C2284 1.394 . S
C2285 C2286 1.516 . S
C2286 C2285 1.516 . S
C2286 C2287 1.502 . S
C2286 C2288 1.561 . S
C2286 C2289 1.526 . S
C2287 H2271 0.959 . S
C2287 H2272 0.959 . S
C2287 H2273 0.961 . S
C2287 C2286 1.502 . S
C2288 H2274 0.960 . S
C2288 H2275 0.961 . S
C2288 H2276 0.959 . S
C2288 C2286 1.561 . S
C2289 C2286 1.526 . S
C2289 C2290 1.396 . S
C2289 C2294 1.390 . S
C2290 C2284 1.465 . S
C2290 C2289 1.396 . S
C2290 C2291 1.399 . S
C2291 H2277 0.929 . S
C2291 C2290 1.399 . S
C2291 C2292 1.385 . S
C2292 H2278 0.931 . S
C2292 C2291 1.385 . S
C2292 C2293 1.389 . S
C2293 C2292 1.389 . S
C2293 C2294 1.387 . S
C2294 H2279 0.930 . S
C2294 C2289 1.390 . S
C2294 C2293 1.387 . S
H2295 C2307 0.930 . S
H2296 C2309 0.930 . S
H2297 C2310 0.930 . S
H2298 C2314 0.959 . S
H2299 C2314 0.959 . S
H2300 C2314 0.961 . S
H2301 C2315 0.960 . S
H2302 C2315 0.961 . S
H2303 C2315 0.959 . S
H2304 C2318 0.929 . S
H2305 C2319 0.931 . S
H2306 C2321 0.930 . S
C2307 H2295 0.930 . S
C2307 C2308 1.399 . S
C2307 C2312 1.399 . S
C2308 C2307 1.399 . S
C2308 C2309 1.376 . S
C2309 H2296 0.930 . S
C2309 C2308 1.376 . S
C2309 C2310 1.388 . S
C2310 H2297 0.930 . S
C2310 C2309 1.388 . S
C2310 C2311 1.390 . S
C2311 C2310 1.390 . S
C2311 C2312 1.394 . S
C2311 C2317 1.465 . S
C2312 C2307 1.399 . S
C2312 C2311 1.394 . S
C2312 C2313 1.516 . S
C2313 C2312 1.516 . S
C2313 C2314 1.502 . S
C2313 C2315 1.561 . S
C2313 C2316 1.526 . S
C2314 H2298 0.959 . S
C2314 H2299 0.959 . S
C2314 H2300 0.961 . S
C2314 C2313 1.502 . S
C2315 H2301 0.960 . S
C2315 H2302 0.961 . S
C2315 H2303 0.959 . S
C2315 C2313 1.561 . S
C2316 C2313 1.526 . S
C2316 C2317 1.396 . S
C2316 C2321 1.390 . S
C2317 C2311 1.465 . S
C2317 C2316 1.396 . S
C2317 C2318 1.399 . S
C2318 H2304 0.929 . S
C2318 C2317 1.399 . S
C2318 C2319 1.385 . S
C2319 H2305 0.931 . S
C2319 C2318 1.385 . S
C2319 C2320 1.389 . S
C2320 C2319 1.389 . S
C2320 C2321 1.387 . S
C2321 H2306 0.930 . S
C2321 C2316 1.390 . S
C2321 C2320 1.387 . S
H2322 C2334 0.930 . S
H2323 C2336 0.930 . S
H2324 C2337 0.930 . S
H2325 C2341 0.959 . S
H2326 C2341 0.959 . S
H2327 C2341 0.961 . S
H2328 C2342 0.960 . S
H2329 C2342 0.961 . S
H2330 C2342 0.959 . S
H2331 C2345 0.929 . S
H2332 C2346 0.931 . S
H2333 C2348 0.930 . S
C2334 H2322 0.930 . S
C2334 C2335 1.399 . S
C2334 C2339 1.399 . S
C2335 C2334 1.399 . S
C2335 C2336 1.376 . S
C2336 H2323 0.930 . S
C2336 C2335 1.376 . S
C2336 C2337 1.388 . S
C2337 H2324 0.930 . S
C2337 C2336 1.388 . S
C2337 C2338 1.390 . S
C2338 C2337 1.390 . S
C2338 C2339 1.394 . S
C2338 C2344 1.465 . S
C2339 C2334 1.399 . S
C2339 C2338 1.394 . S
C2339 C2340 1.516 . S
C2340 C2339 1.516 . S
C2340 C2341 1.502 . S
C2340 C2342 1.561 . S
C2340 C2343 1.526 . S
C2341 H2325 0.959 . S
C2341 H2326 0.959 . S
C2341 H2327 0.961 . S
C2341 C2340 1.502 . S
C2342 H2328 0.960 . S
C2342 H2329 0.961 . S
C2342 H2330 0.959 . S
C2342 C2340 1.561 . S
C2343 C2340 1.526 . S
C2343 C2344 1.396 . S
C2343 C2348 1.390 . S
C2344 C2338 1.465 . S
C2344 C2343 1.396 . S
C2344 C2345 1.399 . S
C2345 H2331 0.929 . S
C2345 C2344 1.399 . S
C2345 C2346 1.385 . S
C2346 H2332 0.931 . S
C2346 C2345 1.385 . S
C2346 C2347 1.389 . S
C2347 C2346 1.389 . S
C2347 C2348 1.387 . S
C2348 H2333 0.930 . S
C2348 C2343 1.390 . S
C2348 C2347 1.387 . S
H2349 C2361 0.930 . S
H2350 C2363 0.930 . S
H2351 C2364 0.930 . S
H2352 C2368 0.959 . S
H2353 C2368 0.959 . S
H2354 C2368 0.961 . S
H2355 C2369 0.960 . S
H2356 C2369 0.961 . S
H2357 C2369 0.959 . S
H2358 C2372 0.929 . S
H2359 C2373 0.931 . S
H2360 C2375 0.930 . S
C2361 H2349 0.930 . S
C2361 C2362 1.399 . S
C2361 C2366 1.399 . S
C2362 C2361 1.399 . S
C2362 C2363 1.376 . S
C2363 H2350 0.930 . S
C2363 C2362 1.376 . S
C2363 C2364 1.388 . S
C2364 H2351 0.930 . S
C2364 C2363 1.388 . S
C2364 C2365 1.390 . S
C2365 C2364 1.390 . S
C2365 C2366 1.394 . S
C2365 C2371 1.465 . S
C2366 C2361 1.399 . S
C2366 C2365 1.394 . S
C2366 C2367 1.516 . S
C2367 C2366 1.516 . S
C2367 C2368 1.502 . S
C2367 C2369 1.561 . S
C2367 C2370 1.526 . S
C2368 H2352 0.959 . S
C2368 H2353 0.959 . S
C2368 H2354 0.961 . S
C2368 C2367 1.502 . S
C2369 H2355 0.960 . S
C2369 H2356 0.961 . S
C2369 H2357 0.959 . S
C2369 C2367 1.561 . S
C2370 C2367 1.526 . S
C2370 C2371 1.396 . S
C2370 C2375 1.390 . S
C2371 C2365 1.465 . S
C2371 C2370 1.396 . S
C2371 C2372 1.399 . S
C2372 H2358 0.929 . S
C2372 C2371 1.399 . S
C2372 C2373 1.385 . S
C2373 H2359 0.931 . S
C2373 C2372 1.385 . S
C2373 C2374 1.389 . S
C2374 C2373 1.389 . S
C2374 C2375 1.387 . S
C2375 H2360 0.930 . S
C2375 C2370 1.390 . S
C2375 C2374 1.387 . S
H2376 C2388 0.930 . S
H2377 C2390 0.930 . S
H2378 C2391 0.930 . S
H2379 C2395 0.959 . S
H2380 C2395 0.959 . S
H2381 C2395 0.961 . S
H2382 C2396 0.960 . S
H2383 C2396 0.961 . S
H2384 C2396 0.959 . S
H2385 C2399 0.929 . S
H2386 C2400 0.931 . S
H2387 C2402 0.930 . S
C2388 H2376 0.930 . S
C2388 C2389 1.399 . S
C2388 C2393 1.399 . S
C2389 C2388 1.399 . S
C2389 C2390 1.376 . S
C2390 H2377 0.930 . S
C2390 C2389 1.376 . S
C2390 C2391 1.388 . S
C2391 H2378 0.930 . S
C2391 C2390 1.388 . S
C2391 C2392 1.390 . S
C2392 C2391 1.390 . S
C2392 C2393 1.394 . S
C2392 C2398 1.465 . S
C2393 C2388 1.399 . S
C2393 C2392 1.394 . S
C2393 C2394 1.516 . S
C2394 C2393 1.516 . S
C2394 C2395 1.502 . S
C2394 C2396 1.561 . S
C2394 C2397 1.526 . S
C2395 H2379 0.959 . S
C2395 H2380 0.959 . S
C2395 H2381 0.961 . S
C2395 C2394 1.502 . S
C2396 H2382 0.960 . S
C2396 H2383 0.961 . S
C2396 H2384 0.959 . S
C2396 C2394 1.561 . S
C2397 C2394 1.526 . S
C2397 C2398 1.396 . S
C2397 C2402 1.390 . S
C2398 C2392 1.465 . S
C2398 C2397 1.396 . S
C2398 C2399 1.399 . S
C2399 H2385 0.929 . S
C2399 C2398 1.399 . S
C2399 C2400 1.385 . S
C2400 H2386 0.931 . S
C2400 C2399 1.385 . S
C2400 C2401 1.389 . S
C2401 C2400 1.389 . S
C2401 C2402 1.387 . S
C2402 H2387 0.930 . S
C2402 C2397 1.390 . S
C2402 C2401 1.387 . S
H2403 C2415 0.930 1_554 S
H2404 C2417 0.930 . S
H2405 C2418 0.930 . S
H2406 C2422 0.959 . S
H2407 C2422 0.963 . S
H2408 C2422 0.961 1_554 S
H2409 C2423 0.960 . S
H2410 C2423 0.961 . S
H2411 C2423 0.959 . S
H2412 C2426 0.929 . S
H2413 C2427 0.931 . S
H2414 C2429 0.930 . S
C2415 H2403 0.930 1_556 S
C2415 C2416 1.399 . S
C2415 C2420 1.399 . S
C2416 C2415 1.399 . S
C2416 C2417 1.376 . S
C2417 H2404 0.930 . S
C2417 C2416 1.376 . S
C2417 C2418 1.388 . S
C2418 H2405 0.930 . S
C2418 C2417 1.388 . S
C2418 C2419 1.390 . S
C2419 C2418 1.390 . S
C2419 C2420 1.394 . S
C2419 C2425 1.465 . S
C2420 C2415 1.399 . S
C2420 C2419 1.394 . S
C2420 C2421 1.516 . S
C2421 C2420 1.516 . S
C2421 C2422 1.502 . S
C2421 C2423 1.561 1_556 S
C2421 C2424 1.526 . S
C2422 H2406 0.959 . S
C2422 H2407 0.963 . S
C2422 H2408 0.961 1_556 S
C2422 C2421 1.502 . S
C2423 H2409 0.960 . S
C2423 H2410 0.961 . S
C2423 H2411 0.959 . S
C2423 C2421 1.561 1_554 S
C2424 C2421 1.526 . S
C2424 C2425 1.396 . S
C2424 C2429 1.390 . S
C2425 C2419 1.465 . S
C2425 C2424 1.396 . S
C2425 C2426 1.399 . S
C2426 H2412 0.929 . S
C2426 C2425 1.399 . S
C2426 C2427 1.385 . S
C2427 H2413 0.931 . S
C2427 C2426 1.385 . S
C2427 C2428 1.389 . S
C2428 C2427 1.389 . S
C2428 C2429 1.387 . S
C2429 H2414 0.930 . S
C2429 C2424 1.390 . S
C2429 C2428 1.387 . S
H2430 C2442 0.930 1_554 S
H2431 C2444 0.930 . S
H2432 C2445 0.930 . S
H2433 C2449 0.959 1_556 S
H2434 C2449 0.959 . S
H2435 C2449 0.961 . S
H2436 C2450 0.960 . S
H2437 C2450 0.961 . S
H2438 C2450 0.959 1_556 S
H2439 C2453 0.929 . S
H2440 C2454 0.931 . S
H2441 C2456 0.930 . S
C2442 H2430 0.930 1_556 S
C2442 C2443 1.399 . S
C2442 C2447 1.399 . S
C2443 C2442 1.399 . S
C2443 C2444 1.376 . S
C2444 H2431 0.930 . S
C2444 C2443 1.376 . S
C2444 C2445 1.388 . S
C2445 H2432 0.930 . S
C2445 C2444 1.388 . S
C2445 C2446 1.390 . S
C2446 C2445 1.390 . S
C2446 C2447 1.394 . S
C2446 C2452 1.465 . S
C2447 C2442 1.399 . S
C2447 C2446 1.394 . S
C2447 C2448 1.516 . S
C2448 C2447 1.516 . S
C2448 C2449 1.502 1_556 S
C2448 C2450 1.561 1_556 S
C2448 C2451 1.526 . S
C2449 H2433 0.959 1_554 S
C2449 H2434 0.959 . S
C2449 H2435 0.961 . S
C2449 C2448 1.502 1_554 S
C2450 H2436 0.960 . S
C2450 H2437 0.961 . S
C2450 H2438 0.959 1_554 S
C2450 C2448 1.561 1_554 S
C2451 C2448 1.526 . S
C2451 C2452 1.396 . S
C2451 C2456 1.390 . S
C2452 C2446 1.465 . S
C2452 C2451 1.396 . S
C2452 C2453 1.399 . S
C2453 H2439 0.929 . S
C2453 C2452 1.399 . S
C2453 C2454 1.385 . S
C2454 H2440 0.931 . S
C2454 C2453 1.385 . S
C2454 C2455 1.389 . S
C2455 C2454 1.389 . S
C2455 C2456 1.387 . S
C2456 H2441 0.930 . S
C2456 C2451 1.390 . S
C2456 C2455 1.387 . S
H2457 C2469 0.930 . S
H2458 C2471 0.930 . S
H2459 C2472 0.931 1_554 S
H2460 C2476 0.959 . S
H2461 C2476 0.959 . S
H2462 C2476 0.961 . S
H2463 C2477 0.960 . S
H2464 C2477 0.961 . S
H2465 C2477 0.959 . S
H2466 C2480 0.929 . S
H2467 C2481 0.931 . S
H2468 C2483 0.930 . S
C2469 H2457 0.930 . S
C2469 C2470 1.399 . S
C2469 C2474 1.399 . S
C2470 C2469 1.399 . S
C2470 C2471 1.376 1_556 S
C2471 H2458 0.930 . S
C2471 C2470 1.376 1_554 S
C2471 C2472 1.389 1_554 S
C2472 H2459 0.931 1_556 S
C2472 C2471 1.389 1_556 S
C2472 C2473 1.388 . S
C2473 C2472 1.388 . S
C2473 C2474 1.394 . S
C2473 C2479 1.465 . S
C2474 C2469 1.399 . S
C2474 C2473 1.394 . S
C2474 C2475 1.516 . S
C2475 C2474 1.516 . S
C2475 C2476 1.502 . S
C2475 C2477 1.561 . S
C2475 C2478 1.526 . S
C2476 H2460 0.959 . S
C2476 H2461 0.959 . S
C2476 H2462 0.961 . S
C2476 C2475 1.502 . S
C2477 H2463 0.960 . S
C2477 H2464 0.961 . S
C2477 H2465 0.959 . S
C2477 C2475 1.561 . S
C2478 C2475 1.526 . S
C2478 C2479 1.396 . S
C2478 C2483 1.390 . S
C2479 C2473 1.465 . S
C2479 C2478 1.396 . S
C2479 C2480 1.399 . S
C2480 H2466 0.929 . S
C2480 C2479 1.399 . S
C2480 C2481 1.385 . S
C2481 H2467 0.931 . S
C2481 C2480 1.385 . S
C2481 C2482 1.389 . S
C2482 C2481 1.389 . S
C2482 C2483 1.387 . S
C2483 H2468 0.930 . S
C2483 C2478 1.390 . S
C2483 C2482 1.387 . S
H2484 C2496 0.930 1_554 S
H2485 C2498 0.930 . S
H2486 C2499 0.930 . S
H2487 C2503 0.959 . S
H2488 C2503 0.959 . S
H2489 C2503 0.961 . S
H2490 C2504 0.960 . S
H2491 C2504 0.961 . S
H2492 C2504 0.959 . S
H2493 C2507 0.929 . S
H2494 C2508 0.931 . S
H2495 C2510 0.930 . S
C2496 H2484 0.930 1_556 S
C2496 C2497 1.399 . S
C2496 C2501 1.399 . S
C2497 C2496 1.399 . S
C2497 C2498 1.376 . S
C2498 H2485 0.930 . S
C2498 C2497 1.376 . S
C2498 C2499 1.388 . S
C2499 H2486 0.930 . S
C2499 C2498 1.388 . S
C2499 C2500 1.390 . S
C2500 C2499 1.390 . S
C2500 C2501 1.394 . S
C2500 C2506 1.465 . S
C2501 C2496 1.399 . S
C2501 C2500 1.394 . S
C2501 C2502 1.516 . S
C2502 C2501 1.516 . S
C2502 C2503 1.502 1_556 S
C2502 C2504 1.561 . S
C2502 C2505 1.526 . S
C2503 H2487 0.959 . S
C2503 H2488 0.959 . S
C2503 H2489 0.961 . S
C2503 C2502 1.502 1_554 S
C2504 H2490 0.960 . S
C2504 H2491 0.961 . S
C2504 H2492 0.959 . S
C2504 C2502 1.561 . S
C2505 C2502 1.526 . S
C2505 C2506 1.396 . S
C2505 C2510 1.390 . S
C2506 C2500 1.465 . S
C2506 C2505 1.396 . S
C2506 C2507 1.399 . S
C2507 H2493 0.929 . S
C2507 C2506 1.399 . S
C2507 C2508 1.385 . S
C2508 H2494 0.931 . S
C2508 C2507 1.385 . S
C2508 C2509 1.389 . S
C2509 C2508 1.389 . S
C2509 C2510 1.387 . S
C2510 H2495 0.930 . S
C2510 C2505 1.390 . S
C2510 C2509 1.387 . S
H2511 C2523 0.930 1_554 S
H2512 C2525 0.930 . S
H2513 C2526 0.930 . S
H2514 C2530 0.974 . S
H2515 C2530 0.954 1_554 S
H2516 C2530 0.946 1_554 S
H2517 C2531 0.960 . S
H2518 C2531 0.961 . S
H2519 C2531 0.959 . S
H2520 C2534 0.929 . S
H2521 C2535 0.931 . S
H2522 C2537 0.930 . S
C2523 H2511 0.930 1_556 S
C2523 C2524 1.399 . S
C2523 C2528 1.399 . S
C2524 C2523 1.399 . S
C2524 C2525 1.376 . S
C2525 H2512 0.930 . S
C2525 C2524 1.376 . S
C2525 C2526 1.388 . S
C2526 H2513 0.930 . S
C2526 C2525 1.388 . S
C2526 C2527 1.390 . S
C2527 C2526 1.390 . S
C2527 C2528 1.394 . S
C2527 C2533 1.465 . S
C2528 C2523 1.399 . S
C2528 C2527 1.394 . S
C2528 C2529 1.516 . S
C2529 C2528 1.516 . S
C2529 C2530 1.508 . S
C2529 C2531 1.561 1_556 S
C2529 C2532 1.526 . S
C2530 H2514 0.974 . S
C2530 H2515 0.954 1_556 S
C2530 H2516 0.946 1_556 S
C2530 C2529 1.508 . S
C2531 H2517 0.960 . S
C2531 H2518 0.961 . S
C2531 H2519 0.959 . S
C2531 C2529 1.561 1_554 S
C2532 C2529 1.526 . S
C2532 C2533 1.396 . S
C2532 C2537 1.390 . S
C2533 C2527 1.465 . S
C2533 C2532 1.396 . S
C2533 C2534 1.399 . S
C2534 H2520 0.929 . S
C2534 C2533 1.399 . S
C2534 C2535 1.385 . S
C2535 H2521 0.931 . S
C2535 C2534 1.385 . S
C2535 C2536 1.389 . S
C2536 C2535 1.389 . S
C2536 C2537 1.387 . S
C2537 H2522 0.930 . S
C2537 C2532 1.390 . S
C2537 C2536 1.387 . S
H2538 C2550 0.930 . S
H2539 C2552 0.930 . S
H2540 C2553 0.930 . S
H2541 C2557 0.959 . S
H2542 C2557 0.959 . S
H2543 C2557 0.961 . S
H2544 C2558 0.960 . S
H2545 C2558 0.961 . S
H2546 C2558 0.959 . S
H2547 C2561 0.929 . S
H2548 C2562 0.931 . S
H2549 C2564 0.930 . S
C2550 H2538 0.930 . S
C2550 C2551 1.399 . S
C2550 C2555 1.399 . S
C2551 C2550 1.399 . S
C2551 C2552 1.376 . S
C2552 H2539 0.930 . S
C2552 C2551 1.376 . S
C2552 C2553 1.388 . S
C2553 H2540 0.930 . S
C2553 C2552 1.388 . S
C2553 C2554 1.390 . S
C2554 C2553 1.390 . S
C2554 C2555 1.394 . S
C2554 C2560 1.465 . S
C2555 C2550 1.399 . S
C2555 C2554 1.394 . S
C2555 C2556 1.516 . S
C2556 C2555 1.516 . S
C2556 C2557 1.502 . S
C2556 C2558 1.561 1_556 S
C2556 C2559 1.526 . S
C2557 H2541 0.959 . S
C2557 H2542 0.959 . S
C2557 H2543 0.961 . S
C2557 C2556 1.502 . S
C2558 H2544 0.960 . S
C2558 H2545 0.961 . S
C2558 H2546 0.959 . S
C2558 C2556 1.561 1_554 S
C2559 C2556 1.526 . S
C2559 C2560 1.396 . S
C2559 C2564 1.390 . S
C2560 C2554 1.465 . S
C2560 C2559 1.396 . S
C2560 C2561 1.399 . S
C2561 H2547 0.929 . S
C2561 C2560 1.399 . S
C2561 C2562 1.385 . S
C2562 H2548 0.931 . S
C2562 C2561 1.385 . S
C2562 C2563 1.389 . S
C2563 C2562 1.389 . S
C2563 C2564 1.387 . S
C2564 H2549 0.930 . S
C2564 C2559 1.390 . S
C2564 C2563 1.387 . S
H2565 C2577 0.930 . S
H2566 C2579 0.930 . S
H2567 C2580 0.930 . S
H2568 C2584 0.959 . S
H2569 C2584 0.959 . S
H2570 C2584 0.961 . S
H2571 C2585 0.960 . S
H2572 C2585 0.961 . S
H2573 C2585 0.959 . S
H2574 C2588 0.929 . S
H2575 C2589 0.931 . S
H2576 C2591 0.930 . S
C2577 H2565 0.930 . S
C2577 C2578 1.399 . S
C2577 C2582 1.399 . S
C2578 C2577 1.399 . S
C2578 C2579 1.376 . S
C2579 H2566 0.930 . S
C2579 C2578 1.376 . S
C2579 C2580 1.388 . S
C2580 H2567 0.930 . S
C2580 C2579 1.388 . S
C2580 C2581 1.390 . S
C2581 C2580 1.390 . S
C2581 C2582 1.394 . S
C2581 C2587 1.465 . S
C2582 C2577 1.399 . S
C2582 C2581 1.394 . S
C2582 C2583 1.516 . S
C2583 C2582 1.516 . S
C2583 C2584 1.502 . S
C2583 C2585 1.561 . S
C2583 C2586 1.526 . S
C2584 H2568 0.959 . S
C2584 H2569 0.959 . S
C2584 H2570 0.961 . S
C2584 C2583 1.502 . S
C2585 H2571 0.960 . S
C2585 H2572 0.961 . S
C2585 H2573 0.959 . S
C2585 C2583 1.561 . S
C2586 C2583 1.526 . S
C2586 C2587 1.396 . S
C2586 C2591 1.390 . S
C2587 C2581 1.465 . S
C2587 C2586 1.396 . S
C2587 C2588 1.399 . S
C2588 H2574 0.929 . S
C2588 C2587 1.399 . S
C2588 C2589 1.385 . S
C2589 H2575 0.931 . S
C2589 C2588 1.385 . S
C2589 C2590 1.389 . S
C2590 C2589 1.389 . S
C2590 C2591 1.387 . S
C2591 H2576 0.930 . S
C2591 C2586 1.390 . S
C2591 C2590 1.387 . S
H2592 C2604 0.930 . S
H2593 C2606 0.930 . S
H2594 C2607 0.930 . S
H2595 C2611 0.959 . S
H2596 C2611 0.959 . S
H2597 C2611 0.961 . S
H2598 C2612 0.960 . S
H2599 C2612 0.961 . S
H2600 C2612 0.959 . S
H2601 C2615 0.929 . S
H2602 C2616 0.931 . S
H2603 C2618 0.930 . S
C2604 H2592 0.930 . S
C2604 C2605 1.399 . S
C2604 C2609 1.399 . S
C2605 C2604 1.399 . S
C2605 C2606 1.376 . S
C2606 H2593 0.930 . S
C2606 C2605 1.376 . S
C2606 C2607 1.388 . S
C2607 H2594 0.930 . S
C2607 C2606 1.388 . S
C2607 C2608 1.390 . S
C2608 C2607 1.390 . S
C2608 C2609 1.394 . S
C2608 C2614 1.465 . S
C2609 C2604 1.399 . S
C2609 C2608 1.394 . S
C2609 C2610 1.516 . S
C2610 C2609 1.516 . S
C2610 C2611 1.502 . S
C2610 C2612 1.561 . S
C2610 C2613 1.526 . S
C2611 H2595 0.959 . S
C2611 H2596 0.959 . S
C2611 H2597 0.961 . S
C2611 C2610 1.502 . S
C2612 H2598 0.960 . S
C2612 H2599 0.961 . S
C2612 H2600 0.959 . S
C2612 C2610 1.561 . S
C2613 C2610 1.526 . S
C2613 C2614 1.396 . S
C2613 C2618 1.390 . S
C2614 C2608 1.465 . S
C2614 C2613 1.396 . S
C2614 C2615 1.399 . S
C2615 H2601 0.929 . S
C2615 C2614 1.399 . S
C2615 C2616 1.385 . S
C2616 H2602 0.931 . S
C2616 C2615 1.385 . S
C2616 C2617 1.389 . S
C2617 C2616 1.389 . S
C2617 C2618 1.387 . S
C2618 H2603 0.930 . S
C2618 C2613 1.390 . S
C2618 C2617 1.387 . S
H2619 C2631 0.930 . S
H2620 C2633 0.930 . S
H2621 C2634 0.930 . S
H2622 C2638 0.959 . S
H2623 C2638 0.959 . S
H2624 C2638 0.961 . S
H2625 C2639 0.960 . S
H2626 C2639 0.961 . S
H2627 C2639 0.959 . S
H2628 C2642 0.929 . S
H2629 C2643 0.931 . S
H2630 C2645 0.930 . S
C2631 H2619 0.930 . S
C2631 C2632 1.399 . S
C2631 C2636 1.399 . S
C2632 C2631 1.399 . S
C2632 C2633 1.376 . S
C2633 H2620 0.930 . S
C2633 C2632 1.376 . S
C2633 C2634 1.388 . S
C2634 H2621 0.930 . S
C2634 C2633 1.388 . S
C2634 C2635 1.390 . S
C2635 C2634 1.390 . S
C2635 C2636 1.394 . S
C2635 C2641 1.465 . S
C2636 C2631 1.399 . S
C2636 C2635 1.394 . S
C2636 C2637 1.516 . S
C2637 C2636 1.516 . S
C2637 C2638 1.502 . S
C2637 C2639 1.561 . S
C2637 C2640 1.526 . S
C2638 H2622 0.959 . S
C2638 H2623 0.959 . S
C2638 H2624 0.961 . S
C2638 C2637 1.502 . S
C2639 H2625 0.960 . S
C2639 H2626 0.961 . S
C2639 H2627 0.959 . S
C2639 C2637 1.561 . S
C2640 C2637 1.526 . S
C2640 C2641 1.396 . S
C2640 C2645 1.390 . S
C2641 C2635 1.465 . S
C2641 C2640 1.396 . S
C2641 C2642 1.399 . S
C2642 H2628 0.929 . S
C2642 C2641 1.399 . S
C2642 C2643 1.385 . S
C2643 H2629 0.931 . S
C2643 C2642 1.385 . S
C2643 C2644 1.389 . S
C2644 C2643 1.389 . S
C2644 C2645 1.387 . S
C2645 H2630 0.930 . S
C2645 C2640 1.390 . S
C2645 C2644 1.387 . S
H2646 C2658 0.930 . S
H2647 C2660 0.930 . S
H2648 C2661 0.930 . S
H2649 C2665 0.959 . S
H2650 C2665 0.959 . S
H2651 C2665 0.961 . S
H2652 C2666 0.960 . S
H2653 C2666 0.961 . S
H2654 C2666 0.959 . S
H2655 C2669 0.929 . S
H2656 C2670 0.931 . S
H2657 C2672 0.930 . S
C2658 H2646 0.930 . S
C2658 C2659 1.399 . S
C2658 C2663 1.399 . S
C2659 C2658 1.399 . S
C2659 C2660 1.376 . S
C2660 H2647 0.930 . S
C2660 C2659 1.376 . S
C2660 C2661 1.388 . S
C2661 H2648 0.930 . S
C2661 C2660 1.388 . S
C2661 C2662 1.390 . S
C2662 C2661 1.390 . S
C2662 C2663 1.394 . S
C2662 C2668 1.465 . S
C2663 C2658 1.399 . S
C2663 C2662 1.394 . S
C2663 C2664 1.516 . S
C2664 C2663 1.516 . S
C2664 C2665 1.502 . S
C2664 C2666 1.561 . S
C2664 C2667 1.526 . S
C2665 H2649 0.959 . S
C2665 H2650 0.959 . S
C2665 H2651 0.961 . S
C2665 C2664 1.502 . S
C2666 H2652 0.960 . S
C2666 H2653 0.961 . S
C2666 H2654 0.959 . S
C2666 C2664 1.561 . S
C2667 C2664 1.526 . S
C2667 C2668 1.396 . S
C2667 C2672 1.390 . S
C2668 C2662 1.465 . S
C2668 C2667 1.396 . S
C2668 C2669 1.399 . S
C2669 H2655 0.929 . S
C2669 C2668 1.399 . S
C2669 C2670 1.385 . S
C2670 H2656 0.931 . S
C2670 C2669 1.385 . S
C2670 C2671 1.389 . S
C2671 C2670 1.389 . S
C2671 C2672 1.387 . S
C2672 H2657 0.930 . S
C2672 C2667 1.390 . S
C2672 C2671 1.387 . S
H2673 C2685 0.930 . S
H2674 C2687 0.930 . S
H2675 C2688 0.930 . S
H2676 C2692 0.959 . S
H2677 C2692 0.959 . S
H2678 C2692 0.961 . S
H2679 C2693 0.960 . S
H2680 C2693 0.961 . S
H2681 C2693 0.959 . S
H2682 C2696 0.929 . S
H2683 C2697 0.931 . S
H2684 C2699 0.930 . S
C2685 H2673 0.930 . S
C2685 C2686 1.399 . S
C2685 C2690 1.399 . S
C2686 C2685 1.399 . S
C2686 C2687 1.376 . S
C2687 H2674 0.930 . S
C2687 C2686 1.376 . S
C2687 C2688 1.388 . S
C2688 H2675 0.930 . S
C2688 C2687 1.388 . S
C2688 C2689 1.390 . S
C2689 C2688 1.390 . S
C2689 C2690 1.394 . S
C2689 C2695 1.465 . S
C2690 C2685 1.399 . S
C2690 C2689 1.394 . S
C2690 C2691 1.516 . S
C2691 C2690 1.516 . S
C2691 C2692 1.502 . S
C2691 C2693 1.561 . S
C2691 C2694 1.526 . S
C2692 H2676 0.959 . S
C2692 H2677 0.959 . S
C2692 H2678 0.961 . S
C2692 C2691 1.502 . S
C2693 H2679 0.960 . S
C2693 H2680 0.961 . S
C2693 H2681 0.959 . S
C2693 C2691 1.561 . S
C2694 C2691 1.526 . S
C2694 C2695 1.396 . S
C2694 C2699 1.390 . S
C2695 C2689 1.465 . S
C2695 C2694 1.396 . S
C2695 C2696 1.399 . S
C2696 H2682 0.929 . S
C2696 C2695 1.399 . S
C2696 C2697 1.385 . S
C2697 H2683 0.931 . S
C2697 C2696 1.385 . S
C2697 C2698 1.389 . S
C2698 C2697 1.389 . S
C2698 C2699 1.387 . S
C2699 H2684 0.930 . S
C2699 C2694 1.390 . S
C2699 C2698 1.387 . S
H2700 C2712 0.930 1_455 S
H2701 C2714 0.930 . S
H2702 C2715 0.930 . S
H2703 C2719 0.959 . S
H2704 C2719 0.959 . S
H2705 C2719 0.961 . S
H2706 C2720 0.960 . S
H2707 C2720 0.961 . S
H2708 C2720 0.959 . S
H2709 C2723 0.929 . S
H2710 C2724 0.931 . S
H2711 C2726 0.930 . S
C2712 H2700 0.930 1_655 S
C2712 C2713 1.399 . S
C2712 C2717 1.399 . S
C2713 C2712 1.399 . S
C2713 C2714 1.376 . S
C2714 H2701 0.930 . S
C2714 C2713 1.376 . S
C2714 C2715 1.388 . S
C2715 H2702 0.930 . S
C2715 C2714 1.388 . S
C2715 C2716 1.390 . S
C2716 C2715 1.390 . S
C2716 C2717 1.394 . S
C2716 C2722 1.465 . S
C2717 C2712 1.399 . S
C2717 C2716 1.394 . S
C2717 C2718 1.516 . S
C2718 C2717 1.516 . S
C2718 C2719 1.502 . S
C2718 C2720 1.561 . S
C2718 C2721 1.526 . S
C2719 H2703 0.959 . S
C2719 H2704 0.959 . S
C2719 H2705 0.961 . S
C2719 C2718 1.502 . S
C2720 H2706 0.960 . S
C2720 H2707 0.961 . S
C2720 H2708 0.959 . S
C2720 C2718 1.561 . S
C2721 C2718 1.526 . S
C2721 C2722 1.396 . S
C2721 C2726 1.390 . S
C2722 C2716 1.465 . S
C2722 C2721 1.396 . S
C2722 C2723 1.399 . S
C2723 H2709 0.929 . S
C2723 C2722 1.399 . S
C2723 C2724 1.385 . S
C2724 H2710 0.931 . S
C2724 C2723 1.385 . S
C2724 C2725 1.389 . S
C2725 C2724 1.389 . S
C2725 C2726 1.387 . S
C2726 H2711 0.930 . S
C2726 C2721 1.390 . S
C2726 C2725 1.387 . S
H2727 C2739 0.930 . S
H2728 C2741 0.930 . S
H2729 C2742 0.930 . S
H2730 C2746 0.959 . S
H2731 C2746 0.959 . S
H2732 C2746 0.961 . S
H2733 C2747 0.960 . S
H2734 C2747 0.961 . S
H2735 C2747 0.959 . S
H2736 C2750 0.929 . S
H2737 C2751 0.931 . S
H2738 C2753 0.930 . S
C2739 H2727 0.930 . S
C2739 C2740 1.399 . S
C2739 C2744 1.399 . S
C2740 C2739 1.399 . S
C2740 C2741 1.376 . S
C2741 H2728 0.930 . S
C2741 C2740 1.376 . S
C2741 C2742 1.388 . S
C2742 H2729 0.930 . S
C2742 C2741 1.388 . S
C2742 C2743 1.390 . S
C2743 C2742 1.390 . S
C2743 C2744 1.394 . S
C2743 C2749 1.465 . S
C2744 C2739 1.399 . S
C2744 C2743 1.394 . S
C2744 C2745 1.516 . S
C2745 C2744 1.516 . S
C2745 C2746 1.502 . S
C2745 C2747 1.561 . S
C2745 C2748 1.526 . S
C2746 H2730 0.959 . S
C2746 H2731 0.959 . S
C2746 H2732 0.961 . S
C2746 C2745 1.502 . S
C2747 H2733 0.960 . S
C2747 H2734 0.961 . S
C2747 H2735 0.959 . S
C2747 C2745 1.561 . S
C2748 C2745 1.526 . S
C2748 C2749 1.396 . S
C2748 C2753 1.390 . S
C2749 C2743 1.465 . S
C2749 C2748 1.396 . S
C2749 C2750 1.399 . S
C2750 H2736 0.929 . S
C2750 C2749 1.399 . S
C2750 C2751 1.385 . S
C2751 H2737 0.931 . S
C2751 C2750 1.385 . S
C2751 C2752 1.389 . S
C2752 C2751 1.389 . S
C2752 C2753 1.387 . S
C2753 H2738 0.930 . S
C2753 C2748 1.390 . S
C2753 C2752 1.387 . S
H2754 C2766 0.930 . S
H2755 C2768 0.930 . S
H2756 C2769 0.930 . S
H2757 C2773 0.959 . S
H2758 C2773 0.959 . S
H2759 C2773 0.961 . S
H2760 C2774 0.960 . S
H2761 C2774 0.961 . S
H2762 C2774 0.959 . S
H2763 C2777 0.929 . S
H2764 C2778 0.931 . S
H2765 C2780 0.930 . S
C2766 H2754 0.930 . S
C2766 C2767 1.399 . S
C2766 C2771 1.399 . S
C2767 C2766 1.399 . S
C2767 C2768 1.376 . S
C2768 H2755 0.930 . S
C2768 C2767 1.376 . S
C2768 C2769 1.388 . S
C2769 H2756 0.930 . S
C2769 C2768 1.388 . S
C2769 C2770 1.390 . S
C2770 C2769 1.390 . S
C2770 C2771 1.394 . S
C2770 C2776 1.465 . S
C2771 C2766 1.399 . S
C2771 C2770 1.394 . S
C2771 C2772 1.516 . S
C2772 C2771 1.516 . S
C2772 C2773 1.502 . S
C2772 C2774 1.561 . S
C2772 C2775 1.526 . S
C2773 H2757 0.959 . S
C2773 H2758 0.959 . S
C2773 H2759 0.961 . S
C2773 C2772 1.502 . S
C2774 H2760 0.960 . S
C2774 H2761 0.961 . S
C2774 H2762 0.959 . S
C2774 C2772 1.561 . S
C2775 C2772 1.526 . S
C2775 C2776 1.396 . S
C2775 C2780 1.390 . S
C2776 C2770 1.465 . S
C2776 C2775 1.396 . S
C2776 C2777 1.399 . S
C2777 H2763 0.929 . S
C2777 C2776 1.399 . S
C2777 C2778 1.385 . S
C2778 H2764 0.931 . S
C2778 C2777 1.385 . S
C2778 C2779 1.389 . S
C2779 C2778 1.389 . S
C2779 C2780 1.387 . S
C2780 H2765 0.930 . S
C2780 C2775 1.390 . S
C2780 C2779 1.387 . S
H2781 C2793 0.862 1_545 S
H2782 C2795 0.930 . S
H2783 C2796 0.930 . S
H2784 C2800 0.959 . S
H2785 C2800 0.959 . S
H2786 C2800 0.961 . S
H2787 C2801 0.960 . S
H2788 C2801 0.961 . S
H2789 C2801 0.959 . S
H2790 C2804 0.929 . S
H2791 C2805 0.931 . S
H2792 C2807 0.930 . S
C2793 H2781 0.862 1_565 S
C2793 C2794 1.430 . S
C2793 C2798 1.440 . S
C2794 C2793 1.430 . S
C2794 C2795 1.376 . S
C2795 H2782 0.930 . S
C2795 C2794 1.376 . S
C2795 C2796 1.388 . S
C2796 H2783 0.930 . S
C2796 C2795 1.388 . S
C2796 C2797 1.390 . S
C2797 C2796 1.390 . S
C2797 C2798 1.394 . S
C2797 C2803 1.465 . S
C2798 C2793 1.440 . S
C2798 C2797 1.394 . S
C2798 C2799 1.516 1_565 S
C2799 C2798 1.516 1_545 S
C2799 C2800 1.502 . S
C2799 C2801 1.561 . S
C2799 C2802 1.466 1_545 S
C2800 H2784 0.959 . S
C2800 H2785 0.959 . S
C2800 H2786 0.961 . S
C2800 C2799 1.502 . S
C2801 H2787 0.960 . S
C2801 H2788 0.961 . S
C2801 H2789 0.959 . S
C2801 C2799 1.561 . S
C2802 C2799 1.466 1_565 S
C2802 C2803 1.446 . S
C2802 C2807 1.406 1_565 S
C2803 C2797 1.465 . S
C2803 C2802 1.446 . S
C2803 C2804 1.399 . S
C2804 H2790 0.929 . S
C2804 C2803 1.399 . S
C2804 C2805 1.385 . S
C2805 H2791 0.931 . S
C2805 C2804 1.385 . S
C2805 C2806 1.389 . S
C2806 C2805 1.389 . S
C2806 C2807 1.387 1_565 S
C2807 H2792 0.930 . S
C2807 C2802 1.406 1_545 S
C2807 C2806 1.387 1_545 S
H2808 C2820 0.930 . S
H2809 C2822 0.930 . S
H2810 C2823 0.930 . S
H2811 C2827 0.959 1_545 S
H2812 C2827 0.959 . S
H2813 C2827 0.961 . S
H2814 C2828 0.960 . S
H2815 C2828 0.961 . S
H2816 C2828 0.959 . S
H2817 C2831 0.929 . S
H2818 C2832 0.968 . S
H2819 C2834 0.930 . S
C2820 H2808 0.930 . S
C2820 C2821 1.399 . S
C2820 C2825 1.399 . S
C2821 C2820 1.399 . S
C2821 C2822 1.376 . S
C2822 H2809 0.930 . S
C2822 C2821 1.376 . S
C2822 C2823 1.388 . S
C2823 H2810 0.930 . S
C2823 C2822 1.388 . S
C2823 C2824 1.390 . S
C2824 C2823 1.390 . S
C2824 C2825 1.394 . S
C2824 C2830 1.465 . S
C2825 C2820 1.399 . S
C2825 C2824 1.394 . S
C2825 C2826 1.516 . S
C2826 C2825 1.516 . S
C2826 C2827 1.502 . S
C2826 C2828 1.561 . S
C2826 C2829 1.526 . S
C2827 H2811 0.959 1_565 S
C2827 H2812 0.959 . S
C2827 H2813 0.961 . S
C2827 C2826 1.502 . S
C2828 H2814 0.960 . S
C2828 H2815 0.961 . S
C2828 H2816 0.959 . S
C2828 C2826 1.561 . S
C2829 C2826 1.526 . S
C2829 C2830 1.396 . S
C2829 C2834 1.390 . S
C2830 C2824 1.465 . S
C2830 C2829 1.396 . S
C2830 C2831 1.399 . S
C2831 H2817 0.929 . S
C2831 C2830 1.399 . S
C2831 C2832 1.385 . S
C2832 H2818 0.968 . S
C2832 C2831 1.385 . S
C2832 C2833 1.389 . S
C2833 C2832 1.389 . S
C2833 C2834 1.387 . S
C2834 H2819 0.930 . S
C2834 C2829 1.390 . S
C2834 C2833 1.387 . S
H2835 C2847 0.930 . S
H2836 C2849 0.930 . S
H2837 C2850 0.930 . S
H2838 C2854 0.959 . S
H2839 C2854 0.959 . S
H2840 C2854 0.961 . S
H2841 C2855 0.960 . S
H2842 C2855 0.961 . S
H2843 C2855 0.959 . S
H2844 C2858 0.929 . S
H2845 C2859 0.931 . S
H2846 C2861 0.930 . S
C2847 H2835 0.930 . S
C2847 C2848 1.399 . S
C2847 C2852 1.399 . S
C2848 C2847 1.399 . S
C2848 C2849 1.376 . S
C2849 H2836 0.930 . S
C2849 C2848 1.376 . S
C2849 C2850 1.388 . S
C2850 H2837 0.930 . S
C2850 C2849 1.388 . S
C2850 C2851 1.390 . S
C2851 C2850 1.390 . S
C2851 C2852 1.394 . S
C2851 C2857 1.465 . S
C2852 C2847 1.399 . S
C2852 C2851 1.394 . S
C2852 C2853 1.516 . S
C2853 C2852 1.516 . S
C2853 C2854 1.502 . S
C2853 C2855 1.561 . S
C2853 C2856 1.526 . S
C2854 H2838 0.959 . S
C2854 H2839 0.959 . S
C2854 H2840 0.961 . S
C2854 C2853 1.502 . S
C2855 H2841 0.960 . S
C2855 H2842 0.961 . S
C2855 H2843 0.959 . S
C2855 C2853 1.561 . S
C2856 C2853 1.526 . S
C2856 C2857 1.396 . S
C2856 C2861 1.390 . S
C2857 C2851 1.465 . S
C2857 C2856 1.396 . S
C2857 C2858 1.399 . S
C2858 H2844 0.929 . S
C2858 C2857 1.399 . S
C2858 C2859 1.385 . S
C2859 H2845 0.931 . S
C2859 C2858 1.385 . S
C2859 C2860 1.389 . S
C2860 C2859 1.389 . S
C2860 C2861 1.387 . S
C2861 H2846 0.930 . S
C2861 C2856 1.390 . S
C2861 C2860 1.387 . S
H2862 C2874 0.930 . S
H2863 C2876 0.930 . S
H2864 C2877 0.930 . S
H2865 C2881 0.959 . S
H2866 C2881 0.959 . S
H2867 C2881 0.961 . S
H2868 C2882 0.960 . S
H2869 C2882 0.961 . S
H2870 C2882 0.959 . S
H2871 C2885 0.929 . S
H2872 C2886 0.931 . S
H2873 C2888 0.930 . S
C2874 H2862 0.930 . S
C2874 C2875 1.399 . S
C2874 C2879 1.399 . S
C2875 C2874 1.399 . S
C2875 C2876 1.376 . S
C2876 H2863 0.930 . S
C2876 C2875 1.376 . S
C2876 C2877 1.388 . S
C2877 H2864 0.930 . S
C2877 C2876 1.388 . S
C2877 C2878 1.390 . S
C2878 C2877 1.390 . S
C2878 C2879 1.394 . S
C2878 C2884 1.465 . S
C2879 C2874 1.399 . S
C2879 C2878 1.394 . S
C2879 C2880 1.516 . S
C2880 C2879 1.516 . S
C2880 C2881 1.502 . S
C2880 C2882 1.561 . S
C2880 C2883 1.526 . S
C2881 H2865 0.959 . S
C2881 H2866 0.959 . S
C2881 H2867 0.961 . S
C2881 C2880 1.502 . S
C2882 H2868 0.960 . S
C2882 H2869 0.961 . S
C2882 H2870 0.959 . S
C2882 C2880 1.561 . S
C2883 C2880 1.526 . S
C2883 C2884 1.396 . S
C2883 C2888 1.390 . S
C2884 C2878 1.465 . S
C2884 C2883 1.396 . S
C2884 C2885 1.399 . S
C2885 H2871 0.929 . S
C2885 C2884 1.399 . S
C2885 C2886 1.385 . S
C2886 H2872 0.931 . S
C2886 C2885 1.385 . S
C2886 C2887 1.389 . S
C2887 C2886 1.389 . S
C2887 C2888 1.387 . S
C2888 H2873 0.930 . S
C2888 C2883 1.390 . S
C2888 C2887 1.387 . S
H2889 C2901 0.930 . S
H2890 C2903 0.930 . S
H2891 C2904 0.930 . S
H2892 C2908 0.959 . S
H2893 C2908 0.959 . S
H2894 C2908 0.961 . S
H2895 C2909 0.960 . S
H2896 C2909 0.961 . S
H2897 C2909 0.959 . S
H2898 C2912 0.929 . S
H2899 C2913 0.931 . S
H2900 C2915 0.930 . S
C2901 H2889 0.930 . S
C2901 C2902 1.399 . S
C2901 C2906 1.399 . S
C2902 C2901 1.399 . S
C2902 C2903 1.376 . S
C2903 H2890 0.930 . S
C2903 C2902 1.376 . S
C2903 C2904 1.388 . S
C2904 H2891 0.930 . S
C2904 C2903 1.388 . S
C2904 C2905 1.390 . S
C2905 C2904 1.390 . S
C2905 C2906 1.394 . S
C2905 C2911 1.465 . S
C2906 C2901 1.399 . S
C2906 C2905 1.394 . S
C2906 C2907 1.516 . S
C2907 C2906 1.516 . S
C2907 C2908 1.502 . S
C2907 C2909 1.561 . S
C2907 C2910 1.526 . S
C2908 H2892 0.959 . S
C2908 H2893 0.959 . S
C2908 H2894 0.961 . S
C2908 C2907 1.502 . S
C2909 H2895 0.960 . S
C2909 H2896 0.961 . S
C2909 H2897 0.959 . S
C2909 C2907 1.561 . S
C2910 C2907 1.526 . S
C2910 C2911 1.396 . S
C2910 C2915 1.390 . S
C2911 C2905 1.465 . S
C2911 C2910 1.396 . S
C2911 C2912 1.399 . S
C2912 H2898 0.929 . S
C2912 C2911 1.399 . S
C2912 C2913 1.385 . S
C2913 H2899 0.931 . S
C2913 C2912 1.385 . S
C2913 C2914 1.389 . S
C2914 C2913 1.389 . S
C2914 C2915 1.387 . S
C2915 H2900 0.930 . S
C2915 C2910 1.390 . S
C2915 C2914 1.387 . S
H2916 C2928 0.930 . S
H2917 C2930 0.930 . S
H2918 C2931 0.930 . S
H2919 C2935 0.959 . S
H2920 C2935 0.959 . S
H2921 C2935 0.961 . S
H2922 C2936 0.960 . S
H2923 C2936 0.961 . S
H2924 C2936 0.959 . S
H2925 C2939 0.929 . S
H2926 C2940 0.931 . S
H2927 C2942 0.930 . S
C2928 H2916 0.930 . S
C2928 C2929 1.399 . S
C2928 C2933 1.399 . S
C2929 C2928 1.399 . S
C2929 C2930 1.376 . S
C2930 H2917 0.930 . S
C2930 C2929 1.376 . S
C2930 C2931 1.388 . S
C2931 H2918 0.930 . S
C2931 C2930 1.388 . S
C2931 C2932 1.390 . S
C2932 C2931 1.390 . S
C2932 C2933 1.394 . S
C2932 C2938 1.465 . S
C2933 C2928 1.399 . S
C2933 C2932 1.394 . S
C2933 C2934 1.516 . S
C2934 C2933 1.516 . S
C2934 C2935 1.502 . S
C2934 C2936 1.561 . S
C2934 C2937 1.526 . S
C2935 H2919 0.959 . S
C2935 H2920 0.959 . S
C2935 H2921 0.961 . S
C2935 C2934 1.502 . S
C2936 H2922 0.960 . S
C2936 H2923 0.961 . S
C2936 H2924 0.959 . S
C2936 C2934 1.561 . S
C2937 C2934 1.526 . S
C2937 C2938 1.396 . S
C2937 C2942 1.390 . S
C2938 C2932 1.465 . S
C2938 C2937 1.396 . S
C2938 C2939 1.399 . S
C2939 H2925 0.929 . S
C2939 C2938 1.399 . S
C2939 C2940 1.385 . S
C2940 H2926 0.931 . S
C2940 C2939 1.385 . S
C2940 C2941 1.389 . S
C2941 C2940 1.389 . S
C2941 C2942 1.387 . S
C2942 H2927 0.930 . S
C2942 C2937 1.390 . S
C2942 C2941 1.387 . S
H2943 C2955 0.930 . S
H2944 C2957 0.926 . S
H2945 C2958 0.930 . S
H2946 C2962 0.959 . S
H2947 C2962 0.959 . S
H2948 C2962 0.961 . S
H2949 C2963 0.960 . S
H2950 C2963 0.961 . S
H2951 C2963 0.959 . S
H2952 C2966 0.929 . S
H2953 C2967 0.931 . S
H2954 C2969 0.930 . S
C2955 H2943 0.930 . S
C2955 C2956 1.399 . S
C2955 C2960 1.399 . S
C2956 C2955 1.399 . S
C2956 C2957 1.373 1_655 S
C2957 H2944 0.926 . S
C2957 C2956 1.373 1_455 S
C2957 C2958 1.396 1_455 S
C2958 H2945 0.930 . S
C2958 C2957 1.396 1_655 S
C2958 C2959 1.390 . S
C2959 C2958 1.390 . S
C2959 C2960 1.394 . S
C2959 C2965 1.465 . S
C2960 C2955 1.399 . S
C2960 C2959 1.394 . S
C2960 C2961 1.516 . S
C2961 C2960 1.516 . S
C2961 C2962 1.502 . S
C2961 C2963 1.561 . S
C2961 C2964 1.526 . S
C2962 H2946 0.959 . S
C2962 H2947 0.959 . S
C2962 H2948 0.961 . S
C2962 C2961 1.502 . S
C2963 H2949 0.960 . S
C2963 H2950 0.961 . S
C2963 H2951 0.959 . S
C2963 C2961 1.561 . S
C2964 C2961 1.526 . S
C2964 C2965 1.396 . S
C2964 C2969 1.390 . S
C2965 C2959 1.465 . S
C2965 C2964 1.396 . S
C2965 C2966 1.399 . S
C2966 H2952 0.929 . S
C2966 C2965 1.399 . S
C2966 C2967 1.385 . S
C2967 H2953 0.931 . S
C2967 C2966 1.385 . S
C2967 C2968 1.389 . S
C2968 C2967 1.389 . S
C2968 C2969 1.387 . S
C2969 H2954 0.930 . S
C2969 C2964 1.390 . S
C2969 C2968 1.387 . S
H2970 C2982 0.930 . S
H2971 C2984 0.930 . S
H2972 C2985 0.930 . S
H2973 C2989 0.955 1_545 S
H2974 C2989 0.959 . S
H2975 C2989 0.961 . S
H2976 C2990 0.960 . S
H2977 C2990 0.961 . S
H2978 C2990 0.959 . S
H2979 C2993 0.929 . S
H2980 C2994 0.931 . S
H2981 C2996 0.930 . S
C2982 H2970 0.930 . S
C2982 C2983 1.399 . S
C2982 C2987 1.399 . S
C2983 C2982 1.399 . S
C2983 C2984 1.376 . S
C2984 H2971 0.930 . S
C2984 C2983 1.376 . S
C2984 C2985 1.388 . S
C2985 H2972 0.930 . S
C2985 C2984 1.388 . S
C2985 C2986 1.390 . S
C2986 C2985 1.390 . S
C2986 C2987 1.394 . S
C2986 C2992 1.465 . S
C2987 C2982 1.399 . S
C2987 C2986 1.394 . S
C2987 C2988 1.516 . S
C2988 C2987 1.516 . S
C2988 C2989 1.502 1_545 S
C2988 C2990 1.561 . S
C2988 C2991 1.526 . S
C2989 H2973 0.955 1_565 S
C2989 H2974 0.959 . S
C2989 H2975 0.961 . S
C2989 C2988 1.502 1_565 S
C2990 H2976 0.960 . S
C2990 H2977 0.961 . S
C2990 H2978 0.959 . S
C2990 C2988 1.561 . S
C2991 C2988 1.526 . S
C2991 C2992 1.396 . S
C2991 C2996 1.390 . S
C2992 C2986 1.465 . S
C2992 C2991 1.396 . S
C2992 C2993 1.399 . S
C2993 H2979 0.929 . S
C2993 C2992 1.399 . S
C2993 C2994 1.385 . S
C2994 H2980 0.931 . S
C2994 C2993 1.385 . S
C2994 C2995 1.389 . S
C2995 C2994 1.389 . S
C2995 C2996 1.387 . S
C2996 H2981 0.930 . S
C2996 C2991 1.390 . S
C2996 C2995 1.387 . S
H2997 C3009 0.930 . S
H2998 C3011 0.930 . S
H2999 C3012 0.930 . S
H3000 C3016 0.959 . S
H3001 C3016 0.959 . S
H3002 C3016 0.961 . S
H3003 C3017 0.960 . S
H3004 C3017 0.961 . S
H3005 C3017 0.959 . S
H3006 C3020 0.929 . S
H3007 C3021 0.931 . S
H3008 C3023 0.930 . S
C3009 H2997 0.930 . S
C3009 C3010 1.399 . S
C3009 C3014 1.399 . S
C3010 C3009 1.399 . S
C3010 C3011 1.376 . S
C3011 H2998 0.930 . S
C3011 C3010 1.376 . S
C3011 C3012 1.388 . S
C3012 H2999 0.930 . S
C3012 C3011 1.388 . S
C3012 C3013 1.390 . S
C3013 C3012 1.390 . S
C3013 C3014 1.394 . S
C3013 C3019 1.465 . S
C3014 C3009 1.399 . S
C3014 C3013 1.394 . S
C3014 C3015 1.516 . S
C3015 C3014 1.516 . S
C3015 C3016 1.502 . S
C3015 C3017 1.561 1_655 S
C3015 C3018 1.526 . S
C3016 H3000 0.959 . S
C3016 H3001 0.959 . S
C3016 H3002 0.961 . S
C3016 C3015 1.502 . S
C3017 H3003 0.960 . S
C3017 H3004 0.961 . S
C3017 H3005 0.959 . S
C3017 C3015 1.561 1_455 S
C3018 C3015 1.526 . S
C3018 C3019 1.396 . S
C3018 C3023 1.390 . S
C3019 C3013 1.465 . S
C3019 C3018 1.396 . S
C3019 C3020 1.399 . S
C3020 H3006 0.929 . S
C3020 C3019 1.399 . S
C3020 C3021 1.385 . S
C3021 H3007 0.931 . S
C3021 C3020 1.385 . S
C3021 C3022 1.389 . S
C3022 C3021 1.389 . S
C3022 C3023 1.387 . S
C3023 H3008 0.930 . S
C3023 C3018 1.390 . S
C3023 C3022 1.387 . S
H3024 C3036 0.930 . S
H3025 C3038 0.930 . S
H3026 C3039 0.930 . S
H3027 C3043 0.959 . S
H3028 C3043 0.959 . S
H3029 C3043 0.961 . S
H3030 C3044 0.960 . S
H3031 C3044 0.961 . S
H3032 C3044 0.959 . S
H3033 C3047 0.929 . S
H3034 C3048 0.931 . S
H3035 C3050 0.930 . S
C3036 H3024 0.930 . S
C3036 C3037 1.399 . S
C3036 C3041 1.399 . S
C3037 C3036 1.399 . S
C3037 C3038 1.376 . S
C3038 H3025 0.930 . S
C3038 C3037 1.376 . S
C3038 C3039 1.388 . S
C3039 H3026 0.930 . S
C3039 C3038 1.388 . S
C3039 C3040 1.390 . S
C3040 C3039 1.390 . S
C3040 C3041 1.394 . S
C3040 C3046 1.465 . S
C3041 C3036 1.399 . S
C3041 C3040 1.394 . S
C3041 C3042 1.516 . S
C3042 C3041 1.516 . S
C3042 C3043 1.502 . S
C3042 C3044 1.561 . S
C3042 C3045 1.526 . S
C3043 H3027 0.959 . S
C3043 H3028 0.959 . S
C3043 H3029 0.961 . S
C3043 C3042 1.502 . S
C3044 H3030 0.960 . S
C3044 H3031 0.961 . S
C3044 H3032 0.959 . S
C3044 C3042 1.561 . S
C3045 C3042 1.526 . S
C3045 C3046 1.396 . S
C3045 C3050 1.390 . S
C3046 C3040 1.465 . S
C3046 C3045 1.396 . S
C3046 C3047 1.399 . S
C3047 H3033 0.929 . S
C3047 C3046 1.399 . S
C3047 C3048 1.385 . S
C3048 H3034 0.931 . S
C3048 C3047 1.385 . S
C3048 C3049 1.389 . S
C3049 C3048 1.389 . S
C3049 C3050 1.387 . S
C3050 H3035 0.930 . S
C3050 C3045 1.390 . S
C3050 C3049 1.387 . S
H3051 C3063 0.930 . S
H3052 C3065 0.930 . S
H3053 C3066 0.930 . S
H3054 C3070 0.959 . S
H3055 C3070 0.959 . S
H3056 C3070 0.961 . S
H3057 C3071 0.960 . S
H3058 C3071 0.961 . S
H3059 C3071 0.959 . S
H3060 C3074 0.929 . S
H3061 C3075 0.931 . S
H3062 C3077 0.930 . S
C3063 H3051 0.930 . S
C3063 C3064 1.399 . S
C3063 C3068 1.399 . S
C3064 C3063 1.399 . S
C3064 C3065 1.376 . S
C3065 H3052 0.930 . S
C3065 C3064 1.376 . S
C3065 C3066 1.388 . S
C3066 H3053 0.930 . S
C3066 C3065 1.388 . S
C3066 C3067 1.390 . S
C3067 C3066 1.390 . S
C3067 C3068 1.394 . S
C3067 C3073 1.465 . S
C3068 C3063 1.399 . S
C3068 C3067 1.394 . S
C3068 C3069 1.516 . S
C3069 C3068 1.516 . S
C3069 C3070 1.502 . S
C3069 C3071 1.561 . S
C3069 C3072 1.526 . S
C3070 H3054 0.959 . S
C3070 H3055 0.959 . S
C3070 H3056 0.961 . S
C3070 C3069 1.502 . S
C3071 H3057 0.960 . S
C3071 H3058 0.961 . S
C3071 H3059 0.959 . S
C3071 C3069 1.561 . S
C3072 C3069 1.526 . S
C3072 C3073 1.396 . S
C3072 C3077 1.390 . S
C3073 C3067 1.465 . S
C3073 C3072 1.396 . S
C3073 C3074 1.399 . S
C3074 H3060 0.929 . S
C3074 C3073 1.399 . S
C3074 C3075 1.385 . S
C3075 H3061 0.931 . S
C3075 C3074 1.385 . S
C3075 C3076 1.389 . S
C3076 C3075 1.389 . S
C3076 C3077 1.387 . S
C3077 H3062 0.930 . S
C3077 C3072 1.390 . S
C3077 C3076 1.387 . S
H3078 C3090 0.930 . S
H3079 C3092 0.930 . S
H3080 C3093 0.930 . S
H3081 C3097 0.959 . S
H3082 C3097 0.959 . S
H3083 C3097 0.961 . S
H3084 C3098 0.960 . S
H3085 C3098 0.961 . S
H3086 C3098 0.959 . S
H3087 C3101 0.929 . S
H3088 C3102 0.931 . S
H3089 C3104 0.930 . S
C3090 H3078 0.930 . S
C3090 C3091 1.441 . S
C3090 C3095 1.399 . S
C3091 C3090 1.441 . S
C3091 C3092 1.350 1_565 S
C3092 H3079 0.930 . S
C3092 C3091 1.350 1_545 S
C3092 C3093 1.388 1_545 S
C3093 H3080 0.930 . S
C3093 C3092 1.388 1_565 S
C3093 C3094 1.390 . S
C3094 C3093 1.390 . S
C3094 C3095 1.394 . S
C3094 C3100 1.465 . S
C3095 C3090 1.399 . S
C3095 C3094 1.394 . S
C3095 C3096 1.516 . S
C3096 C3095 1.516 . S
C3096 C3097 1.502 . S
C3096 C3098 1.561 . S
C3096 C3099 1.526 . S
C3097 H3081 0.959 . S
C3097 H3082 0.959 . S
C3097 H3083 0.961 . S
C3097 C3096 1.502 . S
C3098 H3084 0.960 . S
C3098 H3085 0.961 . S
C3098 H3086 0.959 . S
C3098 C3096 1.561 . S
C3099 C3096 1.526 . S
C3099 C3100 1.396 . S
C3099 C3104 1.390 . S
C3100 C3094 1.465 . S
C3100 C3099 1.396 . S
C3100 C3101 1.399 . S
C3101 H3087 0.929 . S
C3101 C3100 1.399 . S
C3101 C3102 1.385 . S
C3102 H3088 0.931 . S
C3102 C3101 1.385 . S
C3102 C3103 1.389 . S
C3103 C3102 1.389 . S
C3103 C3104 1.387 . S
C3104 H3089 0.930 . S
C3104 C3099 1.390 . S
C3104 C3103 1.387 . S
H3105 C3117 0.930 . S
H3106 C3119 0.930 . S
H3107 C3120 0.930 . S
H3108 C3124 0.959 . S
H3109 C3124 0.959 . S
H3110 C3124 0.961 . S
H3111 C3125 0.960 . S
H3112 C3125 0.961 . S
H3113 C3125 0.959 . S
H3114 C3128 0.929 . S
H3115 C3129 0.931 . S
H3116 C3131 0.930 . S
C3117 H3105 0.930 . S
C3117 C3118 1.399 . S
C3117 C3122 1.399 . S
C3118 C3117 1.399 . S
C3118 C3119 1.376 . S
C3119 H3106 0.930 . S
C3119 C3118 1.376 . S
C3119 C3120 1.388 . S
C3120 H3107 0.930 . S
C3120 C3119 1.388 . S
C3120 C3121 1.390 . S
C3121 C3120 1.390 . S
C3121 C3122 1.394 . S
C3121 C3127 1.465 . S
C3122 C3117 1.399 . S
C3122 C3121 1.394 . S
C3122 C3123 1.516 . S
C3123 C3122 1.516 . S
C3123 C3124 1.502 . S
C3123 C3125 1.561 . S
C3123 C3126 1.526 . S
C3124 H3108 0.959 . S
C3124 H3109 0.959 . S
C3124 H3110 0.961 . S
C3124 C3123 1.502 . S
C3125 H3111 0.960 . S
C3125 H3112 0.961 . S
C3125 H3113 0.959 . S
C3125 C3123 1.561 . S
C3126 C3123 1.526 . S
C3126 C3127 1.396 . S
C3126 C3131 1.390 . S
C3127 C3121 1.465 . S
C3127 C3126 1.396 . S
C3127 C3128 1.399 . S
C3128 H3114 0.929 . S
C3128 C3127 1.399 . S
C3128 C3129 1.385 . S
C3129 H3115 0.931 . S
C3129 C3128 1.385 . S
C3129 C3130 1.389 . S
C3130 C3129 1.389 . S
C3130 C3131 1.387 . S
C3131 H3116 0.930 . S
C3131 C3126 1.390 . S
C3131 C3130 1.387 . S
H3132 C3144 0.930 . S
H3133 C3146 0.930 . S
H3134 C3147 0.930 . S
H3135 C3151 0.959 . S
H3136 C3151 0.959 . S
H3137 C3151 0.961 . S
H3138 C3152 0.960 . S
H3139 C3152 0.961 . S
H3140 C3152 0.959 . S
H3141 C3155 0.929 . S
H3142 C3156 0.931 . S
H3143 C3158 0.930 . S
C3144 H3132 0.930 . S
C3144 C3145 1.399 . S
C3144 C3149 1.399 . S
C3145 C3144 1.399 . S
C3145 C3146 1.376 . S
C3146 H3133 0.930 . S
C3146 C3145 1.376 . S
C3146 C3147 1.388 . S
C3147 H3134 0.930 . S
C3147 C3146 1.388 . S
C3147 C3148 1.390 . S
C3148 C3147 1.390 . S
C3148 C3149 1.394 . S
C3148 C3154 1.465 . S
C3149 C3144 1.399 . S
C3149 C3148 1.394 . S
C3149 C3150 1.516 . S
C3150 C3149 1.516 . S
C3150 C3151 1.502 . S
C3150 C3152 1.561 . S
C3150 C3153 1.526 . S
C3151 H3135 0.959 . S
C3151 H3136 0.959 . S
C3151 H3137 0.961 . S
C3151 C3150 1.502 . S
C3152 H3138 0.960 . S
C3152 H3139 0.961 . S
C3152 H3140 0.959 . S
C3152 C3150 1.561 . S
C3153 C3150 1.526 . S
C3153 C3154 1.396 . S
C3153 C3158 1.390 . S
C3154 C3148 1.465 . S
C3154 C3153 1.396 . S
C3154 C3155 1.399 . S
C3155 H3141 0.929 . S
C3155 C3154 1.399 . S
C3155 C3156 1.385 . S
C3156 H3142 0.931 . S
C3156 C3155 1.385 . S
C3156 C3157 1.389 . S
C3157 C3156 1.389 . S
C3157 C3158 1.387 . S
C3158 H3143 0.930 . S
C3158 C3153 1.390 . S
C3158 C3157 1.387 . S
H3159 C3171 0.930 . S
H3160 C3173 0.930 1_545 S
H3161 C3174 0.930 . S
H3162 C3178 0.959 . S
H3163 C3178 0.959 . S
H3164 C3178 0.961 . S
H3165 C3179 0.960 . S
H3166 C3179 0.961 . S
H3167 C3179 0.959 . S
H3168 C3182 0.929 . S
H3169 C3183 0.931 . S
H3170 C3185 0.930 . S
C3171 H3159 0.930 . S
C3171 C3172 1.399 . S
C3171 C3176 1.399 . S
C3172 C3171 1.399 . S
C3172 C3173 1.376 . S
C3173 H3160 0.930 1_565 S
C3173 C3172 1.376 . S
C3173 C3174 1.388 . S
C3174 H3161 0.930 . S
C3174 C3173 1.388 . S
C3174 C3175 1.390 . S
C3175 C3174 1.390 . S
C3175 C3176 1.394 . S
C3175 C3181 1.465 . S
C3176 C3171 1.399 . S
C3176 C3175 1.394 . S
C3176 C3177 1.516 . S
C3177 C3176 1.516 . S
C3177 C3178 1.502 . S
C3177 C3179 1.561 . S
C3177 C3180 1.526 . S
C3178 H3162 0.959 . S
C3178 H3163 0.959 . S
C3178 H3164 0.961 . S
C3178 C3177 1.502 . S
C3179 H3165 0.960 . S
C3179 H3166 0.961 . S
C3179 H3167 0.959 . S
C3179 C3177 1.561 . S
C3180 C3177 1.526 . S
C3180 C3181 1.396 . S
C3180 C3185 1.390 . S
C3181 C3175 1.465 . S
C3181 C3180 1.396 . S
C3181 C3182 1.399 . S
C3182 H3168 0.929 . S
C3182 C3181 1.399 . S
C3182 C3183 1.385 . S
C3183 H3169 0.931 . S
C3183 C3182 1.385 . S
C3183 C3184 1.389 . S
C3184 C3183 1.389 . S
C3184 C3185 1.387 . S
C3185 H3170 0.930 . S
C3185 C3180 1.390 . S
C3185 C3184 1.387 . S
H3186 C3198 0.930 . S
H3187 C3200 0.930 . S
H3188 C3201 0.930 . S
H3189 C3205 0.959 . S
H3190 C3205 0.959 . S
H3191 C3205 0.961 . S
H3192 C3206 0.960 . S
H3193 C3206 0.961 . S
H3194 C3206 0.959 . S
H3195 C3209 0.929 . S
H3196 C3210 0.931 . S
H3197 C3212 0.930 . S
C3198 H3186 0.930 . S
C3198 C3199 1.399 . S
C3198 C3203 1.399 . S
C3199 C3198 1.399 . S
C3199 C3200 1.376 . S
C3200 H3187 0.930 . S
C3200 C3199 1.376 . S
C3200 C3201 1.388 . S
C3201 H3188 0.930 . S
C3201 C3200 1.388 . S
C3201 C3202 1.390 . S
C3202 C3201 1.390 . S
C3202 C3203 1.394 . S
C3202 C3208 1.465 . S
C3203 C3198 1.399 . S
C3203 C3202 1.394 . S
C3203 C3204 1.516 . S
C3204 C3203 1.516 . S
C3204 C3205 1.502 . S
C3204 C3206 1.561 . S
C3204 C3207 1.526 . S
C3205 H3189 0.959 . S
C3205 H3190 0.959 . S
C3205 H3191 0.961 . S
C3205 C3204 1.502 . S
C3206 H3192 0.960 . S
C3206 H3193 0.961 . S
C3206 H3194 0.959 . S
C3206 C3204 1.561 . S
C3207 C3204 1.526 . S
C3207 C3208 1.396 . S
C3207 C3212 1.390 . S
C3208 C3202 1.465 . S
C3208 C3207 1.396 . S
C3208 C3209 1.399 . S
C3209 H3195 0.929 . S
C3209 C3208 1.399 . S
C3209 C3210 1.385 . S
C3210 H3196 0.931 . S
C3210 C3209 1.385 . S
C3210 C3211 1.389 . S
C3211 C3210 1.389 . S
C3211 C3212 1.387 . S
C3212 H3197 0.930 . S
C3212 C3207 1.390 . S
C3212 C3211 1.387 . S
H3213 C3225 0.930 1_455 S
H3214 C3227 0.930 . S
H3215 C3228 0.930 . S
H3216 C3232 0.959 . S
H3217 C3232 0.959 . S
H3218 C3232 0.961 . S
H3219 C3233 0.960 . S
H3220 C3233 0.961 . S
H3221 C3233 0.959 . S
H3222 C3236 0.929 . S
H3223 C3237 0.931 . S
H3224 C3239 0.930 . S
C3225 H3213 0.930 1_655 S
C3225 C3226 1.399 . S
C3225 C3230 1.399 . S
C3226 C3225 1.399 . S
C3226 C3227 1.376 . S
C3227 H3214 0.930 . S
C3227 C3226 1.376 . S
C3227 C3228 1.388 . S
C3228 H3215 0.930 . S
C3228 C3227 1.388 . S
C3228 C3229 1.390 . S
C3229 C3228 1.390 . S
C3229 C3230 1.394 . S
C3229 C3235 1.465 . S
C3230 C3225 1.399 . S
C3230 C3229 1.394 . S
C3230 C3231 1.516 1_655 S
C3231 C3230 1.516 1_455 S
C3231 C3232 1.502 . S
C3231 C3233 1.561 . S
C3231 C3234 1.526 1_455 S
C3232 H3216 0.959 . S
C3232 H3217 0.959 . S
C3232 H3218 0.961 . S
C3232 C3231 1.502 . S
C3233 H3219 0.960 . S
C3233 H3220 0.961 . S
C3233 H3221 0.959 . S
C3233 C3231 1.561 . S
C3234 C3231 1.526 1_655 S
C3234 C3235 1.396 . S
C3234 C3239 1.390 1_655 S
C3235 C3229 1.465 . S
C3235 C3234 1.396 . S
C3235 C3236 1.399 . S
C3236 H3222 0.929 . S
C3236 C3235 1.399 . S
C3236 C3237 1.385 . S
C3237 H3223 0.931 . S
C3237 C3236 1.385 . S
C3237 C3238 1.389 . S
C3238 C3237 1.389 . S
C3238 C3239 1.387 1_655 S
C3239 H3224 0.930 . S
C3239 C3234 1.390 1_455 S
C3239 C3238 1.387 1_455 S
H3240 C3252 0.930 . S
H3241 C3254 0.930 . S
H3242 C3255 0.930 . S
H3243 C3259 0.959 . S
H3244 C3259 0.959 . S
H3245 C3259 0.961 . S
H3246 C3260 0.960 . S
H3247 C3260 0.961 . S
H3248 C3260 0.959 . S
H3249 C3263 0.929 . S
H3250 C3264 0.931 . S
H3251 C3266 0.930 . S
C3252 H3240 0.930 . S
C3252 C3253 1.399 . S
C3252 C3257 1.399 . S
C3253 C3252 1.399 . S
C3253 C3254 1.376 . S
C3254 H3241 0.930 . S
C3254 C3253 1.376 . S
C3254 C3255 1.388 . S
C3255 H3242 0.930 . S
C3255 C3254 1.388 . S
C3255 C3256 1.390 . S
C3256 C3255 1.390 . S
C3256 C3257 1.394 . S
C3256 C3262 1.465 . S
C3257 C3252 1.399 . S
C3257 C3256 1.394 . S
C3257 C3258 1.516 . S
C3258 C3257 1.516 . S
C3258 C3259 1.502 . S
C3258 C3260 1.561 . S
C3258 C3261 1.526 . S
C3259 H3243 0.959 . S
C3259 H3244 0.959 . S
C3259 H3245 0.961 . S
C3259 C3258 1.502 . S
C3260 H3246 0.960 . S
C3260 H3247 0.961 . S
C3260 H3248 0.959 . S
C3260 C3258 1.561 . S
C3261 C3258 1.526 . S
C3261 C3262 1.396 . S
C3261 C3266 1.390 . S
C3262 C3256 1.465 . S
C3262 C3261 1.396 . S
C3262 C3263 1.399 . S
C3263 H3249 0.929 . S
C3263 C3262 1.399 . S
C3263 C3264 1.385 . S
C3264 H3250 0.931 . S
C3264 C3263 1.385 . S
C3264 C3265 1.389 . S
C3265 C3264 1.389 . S
C3265 C3266 1.387 . S
C3266 H3251 0.930 . S
C3266 C3261 1.390 . S
C3266 C3265 1.387 . S
H3267 C3279 0.930 . S
H3268 C3281 0.930 . S
H3269 C3282 0.930 . S
H3270 C3286 0.959 . S
H3271 C3286 0.959 . S
H3272 C3286 0.961 . S
H3273 C3287 0.960 . S
H3274 C3287 0.961 . S
H3275 C3287 0.959 . S
H3276 C3290 0.929 . S
H3277 C3291 0.931 . S
H3278 C3293 0.930 . S
C3279 H3267 0.930 . S
C3279 C3280 1.399 . S
C3279 C3284 1.399 . S
C3280 C3279 1.399 . S
C3280 C3281 1.376 . S
C3281 H3268 0.930 . S
C3281 C3280 1.376 . S
C3281 C3282 1.388 . S
C3282 H3269 0.930 . S
C3282 C3281 1.388 . S
C3282 C3283 1.390 . S
C3283 C3282 1.390 . S
C3283 C3284 1.394 . S
C3283 C3289 1.465 . S
C3284 C3279 1.399 . S
C3284 C3283 1.394 . S
C3284 C3285 1.516 . S
C3285 C3284 1.516 . S
C3285 C3286 1.502 . S
C3285 C3287 1.561 . S
C3285 C3288 1.526 . S
C3286 H3270 0.959 . S
C3286 H3271 0.959 . S
C3286 H3272 0.961 . S
C3286 C3285 1.502 . S
C3287 H3273 0.960 . S
C3287 H3274 0.961 . S
C3287 H3275 0.959 . S
C3287 C3285 1.561 . S
C3288 C3285 1.526 . S
C3288 C3289 1.396 . S
C3288 C3293 1.390 . S
C3289 C3283 1.465 . S
C3289 C3288 1.396 . S
C3289 C3290 1.399 . S
C3290 H3276 0.929 . S
C3290 C3289 1.399 . S
C3290 C3291 1.385 . S
C3291 H3277 0.931 . S
C3291 C3290 1.385 . S
C3291 C3292 1.389 . S
C3292 C3291 1.389 . S
C3292 C3293 1.387 . S
C3293 H3278 0.930 . S
C3293 C3288 1.390 . S
C3293 C3292 1.387 . S
C1363 C10 1.679 . S
C1375 C839 1.665 . S
C1390 C23 1.674 . S
C1402 C883 1.608 . S
C1429 C963 1.605 . S
C1417 C29 1.686 . S
C1444 C30 1.682 . S
C1456 C1007 1.641 . S
C1471 C5 1.683 . S
C1483 C1087 1.664 . S
C1498 C18 1.672 . S
C1510 C1149 1.662 . S
C1525 C49 1.686 . S
C1537 C1069 1.611 . S
C1564 C1131 1.600 . S
C1552 C62 1.672 . S
C1591 C1025 1.628 . S
C1579 C70 1.685 . S
C1606 C75 1.678 . S
C1618 C945 1.627 . S
C1645 C821 1.633 . S
C1633 C44 1.685 . S
C1660 C57 1.674 . S
C1672 C901 1.657 . S
C1687 C88 1.686 . S
C1699 C1211 1.608 . S
C1714 C101 1.675 . S
C1726 C1255 1.605 . S
C1753 C1335 1.621 . S
C1741 C107 1.682 . S
C1768 C108 1.677 . S
C1780 C281 1.663 . S
C1795 C83 1.683 . S
C1807 C325 1.679 . S
C1822 C96 1.676 . S
C1834 C405 1.632 . S
C1849 C127 1.685 . S
C1861 C343 1.626 . S
C1876 C140 1.673 . S
C1888 C387 1.601 . S
C1915 C263 1.639 . S
C1903 C146 1.675 . S
C1942 C1317 1.631 . S
C1930 C147 1.678 . S
C1969 C1193 1.646 . S
C1957 C122 1.684 . S
C1996 C1273 1.667 . S
C1984 C135 1.671 . S
C2011 C160 1.680 . S
C2023 C467 1.661 . S
C2038 C173 1.672 . S
C2050 C529 1.635 . S
C2065 C185 1.677 . S
C2077 C573 1.643 . S
C2092 C186 1.684 . S
C2104 C635 1.617 . S
C2131 C697 1.676 . S
C2119 C159 1.682 . S
C2158 C777 1.633 . S
C2146 C172 1.679 . S
C2185 C715 1.672 . S
C2173 C205 1.679 . S
C2212 C759 1.595 . S
C2200 C218 1.675 . S
C2227 C224 1.675 . S
C2239 C653 1.665 . S
C2266 C591 1.657 . S
C2254 C225 1.679 . S
C2281 C200 1.691 . S
C2293 C449 1.613 . S
C2320 C511 1.618 . S
C2308 C213 1.675 . S
C2347 C287 1.465 . S
C2335 C4 1.499 . S
C2362 C17 1.505 . S
C2374 C331 1.466 . S
C2401 C411 1.409 . S
C2389 C31 1.505 . S
C2428 C473 1.411 . S
C2416 C36 1.496 . S
C2455 C535 1.413 . S
C2443 C3 1.511 . S
C2482 C579 1.473 . S
C2470 C16 1.511 . S
C2497 C43 1.500 . S
C2509 C597 1.429 . S
C2524 C56 1.504 . S
C2536 C455 1.406 . S
C2551 C68 1.514 . S
C2563 C517 1.441 . S
C2578 C69 1.508 . S
C2590 C349 1.467 . S
C2617 C393 1.473 . S
C2605 C42 1.508 . S
C2632 C55 1.509 . S
C2644 C269 1.473 . S
C2671 C641 1.487 . S
C2659 C82 1.504 . S
C2686 C95 1.506 . S
C2698 C703 1.443 . S
C2713 C109 1.513 1_655 S
C2725 C783 1.478 . S
C2752 C845 1.482 . S
C2740 C114 1.509 . S
C2767 C81 1.514 . S
C2779 C889 1.415 . S
C2794 C94 1.502 . S
C2806 C969 1.460 . S
C2821 C121 1.503 . S
C2833 C951 1.486 . S
C2848 C134 1.491 . S
C2860 C827 1.472 . S
C2887 C907 1.413 . S
C2875 C148 1.509 . S
C2902 C153 1.512 . S
C2914 C721 1.422 . S
C2929 C120 1.514 . S
C2941 C765 1.413 . S
C2968 C659 1.463 . S
C2956 C133 1.501 1_655 S
C2995 C1013 1.451 . S
C2983 C166 1.496 . S
C3010 C179 1.500 . S
C3022 C1093 1.479 . S
C3037 C187 1.505 . S
C3049 C1155 1.408 . S
C3076 C1217 1.480 . S
C3064 C192 1.503 . S
C3103 C1261 1.450 . S
C3091 C161 1.488 1_565 S
C3118 C174 1.512 . S
C3130 C1341 1.444 . S
C3145 C199 1.497 . S
C3157 C1323 1.429 . S
C3172 C212 1.502 1_565 S
C3184 C1199 1.400 . S
C3211 C1279 1.411 . S
C3199 C226 1.510 . S
C3238 C1075 1.416 . S
C3226 C231 1.499 . S
C3265 C1137 1.414 . S
C3253 C198 1.517 . S
C3280 C211 1.510 . S
C3292 C1031 1.409 . S
