# Generated by pormake.
# Topology anh, (6,3)-cn, num edge types: 1
# Building blocks:
#     Node 0, Type 0, BuildingBlock: VOLQOD_clean_sbu_1, # of connection points: 6
#     Node 1, Type 0, BuildingBlock: VOLQOD_clean_sbu_1, # of connection points: 6
#     Node 2, Type 0, BuildingBlock: VOLQOD_clean_sbu_1, # of connection points: 6
#     Node 3, Type 1, BuildingBlock: QEWDON_clean_linker_0, # of connection points: 3
#     Node 4, Type 1, BuildingBlock: QEWDON_clean_linker_0, # of connection points: 3
#     Node 5, Type 1, BuildingBlock: QEWDON_clean_linker_0, # of connection points: 3
#     Node 6, Type 1, BuildingBlock: QEWDON_clean_linker_0, # of connection points: 3
#     Node 7, Type 1, BuildingBlock: QEWDON_clean_linker_0, # of connection points: 3
#     Node 8, Type 1, BuildingBlock: QEWDON_clean_linker_0, # of connection points: 3
#     Edge 9, Type (0, 1), BuildingBlock: UVAHIK_clean_linker_0, # of connection points: 2
#     Edge 10, Type (0, 1), BuildingBlock: UVAHIK_clean_linker_0, # of connection points: 2
#     Edge 11, Type (0, 1), BuildingBlock: UVAHIK_clean_linker_0, # of connection points: 2
#     Edge 12, Type (0, 1), BuildingBlock: UVAHIK_clean_linker_0, # of connection points: 2
#     Edge 13, Type (0, 1), BuildingBlock: UVAHIK_clean_linker_0, # of connection points: 2
#     Edge 14, Type (0, 1), BuildingBlock: UVAHIK_clean_linker_0, # of connection points: 2
#     Edge 15, Type (0, 1), BuildingBlock: UVAHIK_clean_linker_0, # of connection points: 2
#     Edge 16, Type (0, 1), BuildingBlock: UVAHIK_clean_linker_0, # of connection points: 2
#     Edge 17, Type (0, 1), BuildingBlock: UVAHIK_clean_linker_0, # of connection points: 2
#     Edge 18, Type (0, 1), BuildingBlock: UVAHIK_clean_linker_0, # of connection points: 2
#     Edge 19, Type (0, 1), BuildingBlock: UVAHIK_clean_linker_0, # of connection points: 2
#     Edge 20, Type (0, 1), BuildingBlock: UVAHIK_clean_linker_0, # of connection points: 2
#     Edge 21, Type (0, 1), BuildingBlock: UVAHIK_clean_linker_0, # of connection points: 2
#     Edge 22, Type (0, 1), BuildingBlock: UVAHIK_clean_linker_0, # of connection points: 2
#     Edge 23, Type (0, 1), BuildingBlock: UVAHIK_clean_linker_0, # of connection points: 2
#     Edge 24, Type (0, 1), BuildingBlock: UVAHIK_clean_linker_0, # of connection points: 2
#     Edge 25, Type (0, 1), BuildingBlock: UVAHIK_clean_linker_0, # of connection points: 2
#     Edge 26, Type (0, 1), BuildingBlock: UVAHIK_clean_linker_0, # of connection points: 2
# Relax obj value: 0.172
# Max RMSD: 0.223
# Mean RMSD: 0.181
data_MOF--net-anh--node1-VOLQOD_clean_sbu_1--node2-QEWDON_clean_linker_0--edge1-UVAHIK_clean_linker_0
_symmetry_space_group_name_H-M    P1
_symmetry_Int_Tables_number       1
_symmetry_cell_setting            triclinic
loop_
_symmetry_equiv_pos_as_xyz
'x, y, z'
_cell_length_a     39.316238
_cell_length_b     39.247177
_cell_length_c     71.931236
_cell_angle_alpha  94.171446
_cell_angle_beta   93.978703
_cell_angle_gamma 120.32486
loop_
_atom_site_label
_atom_site_type_symbol
_atom_site_fract_x
_atom_site_fract_y
_atom_site_fract_z
_atom_type_partial_charge
O0 O 0.04645 0.56727 0.20476 0.0
Zn1 Zn 0.05078 0.57675 0.17777 0.0
O2 O 0.06016 0.53814 0.16374 0.0
Zn3 Zn 0.01584 0.50453 0.14431 0.0
Zn4 Zn 0.06752 0.50509 0.18104 0.0
Zn5 Zn 0.107 0.56682 0.15132 0.0
O6 O 0.03289 0.50503 0.11842 0.0
O7 O 0.09637 0.55248 0.1233 0.0
O8 O -0.00021 0.57192 0.167 0.0
O9 O 0.97749 0.52407 0.14295 0.0
O10 O 0.98571 0.44854 0.15069 0.0
O11 O 0.02198 0.44801 0.17565 0.0
O12 O 0.12113 0.50906 0.18021 0.0
O13 O 0.09536 0.63361 0.17725 0.0
O14 O 0.14828 0.55561 0.16117 0.0
O15 O 0.13114 0.62558 0.15678 0.0
C16 C 0.05413 0.54607 0.21484 0.0
C17 C 0.06579 0.52692 0.11223 0.0
C18 C 0.99131 0.43037 0.16344 0.0
C19 C 0.97432 0.55019 0.15298 0.0
C20 C 0.1505 0.53245 0.17201 0.0
C21 C 0.12456 0.64805 0.16766 0.0
O22 O 0.0647 0.52263 0.20779 0.0
O23 O 0.56593 0.06733 0.45978 0.0
Zn24 Zn 0.55619 0.06428 0.48673 0.0
O25 O 0.59759 0.06083 0.50168 0.0
Zn26 Zn 0.62406 0.10487 0.52209 0.0
Zn27 Zn 0.63598 0.06136 0.48534 0.0
Zn28 Zn 0.57334 0.01208 0.51304 0.0
O29 O 0.6207 0.08691 0.54801 0.0
O30 O 0.57875 0.02213 0.54096 0.0
O31 O 0.55388 0.11254 0.49628 0.0
O32 O 0.59788 0.13746 0.52194 0.0
O33 O 0.68067 0.14199 0.51785 0.0
O34 O 0.68812 0.11308 0.49197 0.0
O35 O 0.64392 0.01423 0.48775 0.0
O36 O 0.50229 0.01542 0.48688 0.0
O37 O 0.60011 0.98186 0.50737 0.0
O38 O 0.51522 0.97765 0.50404 0.0
C39 C 0.59064 0.06445 0.45024 0.0
C40 C 0.59936 0.05258 0.55306 0.0
C41 C 0.70157 0.14202 0.50507 0.0
C42 C 0.57162 0.13803 0.51081 0.0
C43 C 0.62698 0.98545 0.49745 0.0
C44 C 0.49085 0.9832 0.49406 0.0
O45 O 0.61839 0.06052 0.45803 0.0
O46 O 0.49617 0.51273 0.78755 0.0
Zn47 Zn 0.48258 0.49733 0.81331 0.0
O48 O 0.52636 0.53417 0.83259 0.0
Zn49 Zn 0.50984 0.56326 0.84889 0.0
Zn50 Zn 0.57144 0.5716 0.82041 0.0
Zn51 Zn 0.54157 0.50472 0.84831 0.0
O52 O 0.51888 0.55899 0.87622 0.0
O53 O 0.53148 0.50991 0.87522 0.0
O54 O 0.4319 0.49679 0.81742 0.0
O55 O 0.45156 0.5407 0.84298 0.0
O56 O 0.53695 0.62074 0.84485 0.0
O57 O 0.57955 0.62676 0.82478 0.0
O58 O 0.62186 0.57342 0.83026 0.0
O59 O 0.47264 0.44144 0.81338 0.0
O60 O 0.59977 0.5257 0.84887 0.0
O61 O 0.51309 0.44712 0.8381 0.0
C62 C 0.52875 0.53517 0.78122 0.0
C63 C 0.52486 0.53449 0.88442 0.0
C64 C 0.56364 0.64168 0.83479 0.0
C65 C 0.42455 0.51539 0.83027 0.0
C66 C 0.62798 0.55274 0.84141 0.0
C67 C 0.48696 0.42618 0.82417 0.0
O68 O 0.56087 0.55715 0.79219 0.0
H69 H 0.56491 0.12741 0.24742 0.0
C70 C 0.53784 0.10047 0.24131 0.0
C71 C 0.51626 0.07078 0.25261 0.0
C72 C 0.52326 0.09634 0.22236 0.0
H73 H 0.46453 0.01307 0.25325 0.0
C74 C 0.48103 0.03621 0.24459 0.0
C75 C 0.46663 0.03129 0.22562 0.0
C76 C 0.4876 0.06176 0.21464 0.0
C77 C 0.54429 0.12854 0.21064 0.0
H78 H 0.47667 0.05824 0.19995 0.0
C79 C 0.58461 0.1436 0.20867 0.0
C80 C 0.60389 0.17298 0.19679 0.0
C81 C 0.52351 0.14357 0.20092 0.0
H82 H 0.49249 0.1325 0.20231 0.0
C83 C 0.54264 0.17326 0.18947 0.0
H84 H 0.60043 0.1314 0.21585 0.0
C85 C 0.5825 0.18787 0.18738 0.0
H86 H 0.59665 0.21109 0.17846 0.0
H87 H 0.5265 0.18491 0.18215 0.0
H88 H 0.49963 0.55496 0.57251 0.0
C89 C 0.50457 0.53111 0.56778 0.0
C90 C 0.51867 0.51482 0.58087 0.0
C91 C 0.49616 0.51619 0.54862 0.0
H92 H 0.53577 0.47111 0.58452 0.0
C93 C 0.52536 0.48427 0.57453 0.0
C94 C 0.51644 0.46885 0.55549 0.0
C95 C 0.50145 0.48456 0.54262 0.0
C96 C 0.48215 0.53369 0.53475 0.0
H97 H 0.49477 0.47276 0.52787 0.0
C98 C 0.50559 0.57412 0.5326 0.0
C99 C 0.49338 0.5908 0.51884 0.0
C100 C 0.44616 0.50971 0.52308 0.0
H101 H 0.4278 0.4784 0.52448 0.0
C102 C 0.43351 0.52609 0.50961 0.0
H103 H 0.53394 0.59214 0.54127 0.0
C104 C 0.45685 0.56632 0.50748 0.0
H105 H 0.44606 0.57829 0.49705 0.0
H106 H 0.40552 0.50754 0.50077 0.0
H107 H 0.1124 0.61565 0.91412 0.0
C108 C 0.08483 0.61486 0.91031 0.0
C109 C 0.05445 0.59916 0.92193 0.0
C110 C 0.07953 0.62924 0.89365 0.0
H111 H -0.00429 0.58709 0.92592 0.0
C112 C 0.0188 0.59815 0.91675 0.0
C113 C 0.01296 0.612 0.90008 0.0
C114 C 0.0436 0.62768 0.88867 0.0
C115 C 0.11054 0.64429 0.88085 0.0
H116 H 0.03898 0.63735 0.87548 0.0
C117 C 0.12753 0.6218 0.8752 0.0
C118 C 0.15447 0.63422 0.86181 0.0
C119 C 0.12142 0.67994 0.87329 0.0
H120 H 0.10879 0.69785 0.87748 0.0
C121 C 0.1486 0.69269 0.86019 0.0
H122 H 0.11857 0.59381 0.88066 0.0
C123 C 0.1649 0.6699 0.85437 0.0
H124 H 0.18595 0.68034 0.8442 0.0
H125 H 0.15687 0.72021 0.85445 0.0
H126 H 0.98718 0.56907 0.41831 0.0
C127 C 0.01647 0.59333 0.42412 0.0
C128 C 0.04739 0.60797 0.41281 0.0
C129 C 0.02324 0.61015 0.44289 0.0
H130 H 0.10875 0.65126 0.41156 0.0
C131 C 0.08519 0.63933 0.42047 0.0
C132 C 0.0924 0.65647 0.43921 0.0
C133 C 0.06108 0.64181 0.45031 0.0
C134 C 0.9909 0.59448 0.45487 0.0
H135 H 0.06628 0.65428 0.46488 0.0
C136 C 0.9717 0.55432 0.45787 0.0
C137 C 0.94135 0.53937 0.46953 0.0
C138 C 0.97961 0.61975 0.46362 0.0
H139 H -0.0058 0.65086 0.46152 0.0
C140 C 0.94904 0.60489 0.47498 0.0
H141 H 0.98058 0.53482 0.45123 0.0
C142 C 0.92989 0.56491 0.47791 0.0
H143 H 0.90664 0.55409 0.48699 0.0
H144 H 0.94031 0.62446 0.48162 0.0
H145 H 0.4756 0.97054 0.74354 0.0
C146 C 0.47363 0.9961 0.74864 0.0
C147 C 0.48473 0.0276 0.73778 0.0
C148 C 0.4581 0.99664 0.76561 0.0
H149 H 0.49012 0.08465 0.73596 0.0
C150 C 0.48143 0.06025 0.74431 0.0
C151 C 0.4669 0.06163 0.76145 0.0
C152 C 0.4549 0.02949 0.77192 0.0
C153 C 0.44438 0.96265 0.77666 0.0
H154 H 0.44392 0.03043 0.78525 0.0
C155 C 0.46878 0.94708 0.78118 0.0
C156 C 0.4561 0.9155 0.79216 0.0
C157 C 0.40692 0.94612 0.78304 0.0
H158 H 0.38751 0.95746 0.77963 0.0
C159 C 0.39396 0.91448 0.7937 0.0
H160 H 0.49805 0.96039 0.77663 0.0
C161 C 0.41829 0.89921 0.79825 0.0
H162 H 0.40728 0.87435 0.80638 0.0
H163 H 0.36492 0.9017 0.79844 0.0
H164 H 0.54856 0.6087 0.09377 0.0
C165 C 0.57276 0.60365 0.09739 0.0
C166 C 0.5821 0.58242 0.08417 0.0
C167 C 0.59518 0.61914 0.11518 0.0
H168 H 0.62055 0.55944 0.07903 0.0
C169 C 0.61342 0.57596 0.08915 0.0
C170 C 0.63627 0.59153 0.10683 0.0
C171 C 0.627 0.61333 0.1197 0.0
C172 C 0.58589 0.64162 0.12926 0.0
H173 H 0.64467 0.62612 0.1333 0.0
C174 C 0.54766 0.62461 0.1348 0.0
C175 C 0.53962 0.64446 0.14938 0.0
C176 C 0.61597 0.67916 0.13807 0.0
H177 H 0.64565 0.69279 0.13399 0.0
C178 C 0.60806 0.6993 0.15229 0.0
H179 H 0.52447 0.59567 0.12795 0.0
C180 C 0.57027 0.68205 0.15803 0.0
H181 H 0.56527 0.69789 0.16946 0.0
H182 H 0.63144 0.72815 0.15908 0.0
C183 C 0.22373 0.5734 0.17679 0.0
C184 C 0.18939 0.53579 0.17597 0.0
C185 C 0.26111 0.57767 0.17911 0.0
C186 C 0.3124 0.52759 0.16671 0.0
H187 H 0.40053 0.61932 0.19752 0.0
C188 C 0.47763 0.58487 0.15718 0.0
C189 C 0.49961 0.62593 0.15577 0.0
C190 C 0.44005 0.56774 0.16328 0.0
C191 C 0.37624 0.59343 0.18892 0.0
H192 H 0.16698 0.47317 0.17739 0.0
H193 H 0.23334 0.48054 0.18085 0.0
H194 H 0.33257 0.59871 0.20293 0.0
H195 H 0.4989 0.68093 0.15941 0.0
H196 H 0.43383 0.65123 0.1702 0.0
H197 H 0.35614 0.52379 0.15196 0.0
C198 C 0.23088 0.50666 0.17996 0.0
C199 C 0.33743 0.58153 0.19209 0.0
C200 C 0.19313 0.50246 0.17802 0.0
C201 C 0.4832 0.64941 0.16067 0.0
C202 C 0.4459 0.63238 0.16689 0.0
C203 C 0.35137 0.53954 0.16352 0.0
C204 C 0.26514 0.54437 0.1804 0.0
C205 C 0.30516 0.54965 0.18046 0.0
C206 C 0.42392 0.5914 0.16827 0.0
C207 C 0.38354 0.57369 0.17405 0.0
H208 H 0.22168 0.59964 0.17539 0.0
H209 H 0.28691 0.60699 0.17911 0.0
H210 H 0.28802 0.50308 0.15747 0.0
H211 H 0.48964 0.56602 0.15378 0.0
H212 H 0.42376 0.53609 0.16426 0.0
C213 C 0.75692 0.18442 0.48689 0.0
C214 C 0.73928 0.17921 0.50362 0.0
C215 C 0.78646 0.22217 0.48361 0.0
C216 C 0.856 0.32595 0.50485 0.0
H217 H 0.82536 0.35262 0.45814 0.0
C218 C 0.88045 0.47365 0.47137 0.0
C219 C 0.92201 0.49734 0.47315 0.0
C220 C 0.8622 0.43399 0.47478 0.0
C221 C 0.83435 0.34554 0.47118 0.0
H222 H 0.74174 0.20891 0.53078 0.0
H223 H 0.79354 0.27467 0.52506 0.0
H224 H 0.78933 0.28408 0.46518 0.0
H225 H 0.97714 0.49852 0.48016 0.0
H226 H 0.94507 0.42908 0.48643 0.0
H227 H 0.90059 0.38785 0.51094 0.0
C228 C 0.78426 0.2496 0.51444 0.0
C229 C 0.81405 0.30628 0.47514 0.0
C230 C 0.75446 0.2119 0.51768 0.0
C231 C 0.94502 0.48074 0.47855 0.0
C232 C 0.92674 0.44121 0.48225 0.0
C233 C 0.87672 0.36524 0.50076 0.0
C234 C 0.79928 0.25536 0.49706 0.0
C235 C 0.82422 0.29617 0.49214 0.0
C236 C 0.88517 0.41744 0.4803 0.0
C237 C 0.86553 0.37547 0.48405 0.0
H238 H 0.74617 0.1599 0.47579 0.0
H239 H 0.79799 0.22573 0.47019 0.0
H240 H 0.86444 0.31893 0.51805 0.0
H241 H 0.86208 0.48571 0.46715 0.0
H242 H 0.83007 0.41637 0.47333 0.0
C243 C 0.59094 0.70192 0.81777 0.0
C244 C 0.57269 0.68269 0.83306 0.0
C245 C 0.59249 0.73717 0.81413 0.0
C246 C 0.57659 0.81765 0.83353 0.0
H247 H 0.52745 0.80587 0.78301 0.0
C248 C 0.48375 0.88823 0.81533 0.0
C249 C 0.48202 0.89939 0.79732 0.0
C250 C 0.50566 0.87034 0.81984 0.0
C251 C 0.5421 0.81035 0.79704 0.0
H252 H 0.54497 0.68718 0.85744 0.0
H253 H 0.5478 0.74854 0.85112 0.0
H254 H 0.54898 0.76014 0.79116 0.0
H255 H 0.50337 0.90194 0.77015 0.0
H256 H 0.54246 0.8715 0.77818 0.0
H257 H 0.56856 0.86716 0.83957 0.0
C258 C 0.56081 0.73643 0.84191 0.0
C259 C 0.55446 0.78406 0.80172 0.0
C260 C 0.55893 0.70107 0.84545 0.0
C261 C 0.50415 0.89379 0.78417 0.0
C262 C 0.52626 0.87601 0.78872 0.0
C263 C 0.56447 0.84416 0.82882 0.0
C264 C 0.57626 0.75405 0.82583 0.0
C265 C 0.57061 0.78661 0.82017 0.0
C266 C 0.52665 0.86337 0.8065 0.0
C267 C 0.54581 0.83994 0.81069 0.0
H268 H 0.60196 0.68863 0.80798 0.0
H269 H 0.60495 0.75037 0.80174 0.0
H270 H 0.58943 0.82061 0.8478 0.0
H271 H 0.46766 0.8928 0.82591 0.0
H272 H 0.50483 0.86059 0.83359 0.0
C273 C 0.92079 0.54449 0.12988 0.0
C274 C 0.93999 0.55497 0.14833 0.0
C275 C 0.88805 0.54864 0.12547 0.0
C276 C 0.83445 0.5969 0.14426 0.0
H277 H 0.75054 0.52114 0.10567 0.0
C278 C 0.67961 0.58068 0.13012 0.0
C279 C 0.67043 0.58599 0.11168 0.0
C280 C 0.71239 0.57671 0.13478 0.0
C281 C 0.77387 0.54247 0.11644 0.0
H282 H 0.93983 0.57744 0.17673 0.0
H283 H 0.88157 0.5829 0.16931 0.0
H284 H 0.80774 0.51409 0.11379 0.0
H285 H 0.68904 0.59147 0.08374 0.0
H286 H 0.74502 0.58246 0.09179 0.0
H287 H 0.79929 0.62412 0.14728 0.0
C288 C 0.89249 0.57285 0.15803 0.0
C289 C 0.80682 0.53873 0.12102 0.0
C290 C 0.92577 0.5695 0.16233 0.0
C291 C 0.69454 0.58656 0.09797 0.0
C292 C 0.72679 0.58173 0.10256 0.0
C293 C 0.80107 0.60007 0.13994 0.0
C294 C 0.8732 0.56253 0.13952 0.0
C295 C 0.83773 0.56609 0.13489 0.0
C296 C 0.73608 0.5771 0.12102 0.0
C297 C 0.77075 0.57306 0.12592 0.0
H298 H 0.93141 0.53357 0.11877 0.0
H299 H 0.87467 0.54128 0.11099 0.0
H300 H 0.85789 0.61901 0.15474 0.0
H301 H 0.66133 0.57929 0.14097 0.0
H302 H 0.71898 0.57283 0.14908 0.0
C303 C 0.43417 0.91836 0.50068 0.0
C304 C 0.4486 0.9512 0.4905 0.0
C305 C 0.39472 0.88735 0.49688 0.0
C306 C 0.29598 0.86026 0.47298 0.0
H307 H 0.27605 0.75282 0.47253 0.0
C308 C 0.16657 0.68947 0.44237 0.0
C309 C 0.13259 0.6898 0.44701 0.0
C310 C 0.20442 0.7214 0.44903 0.0
C311 C 0.28111 0.78262 0.47248 0.0
H312 H 0.43271 0.97744 0.46849 0.0
H313 H 0.36414 0.92287 0.46153 0.0
H314 H 0.34317 0.80894 0.48116 0.0
H315 H 0.1118 0.72388 0.46246 0.0
H316 H 0.17802 0.7792 0.47456 0.0
H317 H 0.23411 0.83377 0.46351 0.0
C318 C 0.3831 0.92143 0.47272 0.0
C319 C 0.31955 0.81485 0.47768 0.0
C320 C 0.42251 0.95263 0.47663 0.0
C321 C 0.13737 0.72254 0.45876 0.0
C322 C 0.17532 0.75447 0.4655 0.0
C323 C 0.25752 0.82796 0.46766 0.0
C324 C 0.36882 0.88824 0.48269 0.0
C325 C 0.32754 0.85408 0.47788 0.0
C326 C 0.20929 0.75437 0.46061 0.0
C327 C 0.24971 0.78875 0.46719 0.0
H328 H 0.45337 0.91649 0.51159 0.0
H329 H 0.38454 0.86263 0.50507 0.0
H330 H 0.30099 0.89007 0.4732 0.0
H331 H 0.16395 0.66447 0.43356 0.0
H332 H 0.22989 0.72051 0.44478 0.0
C333 C 0.48873 0.36626 0.8324 0.0
C334 C 0.47558 0.38406 0.81974 0.0
C335 C 0.48264 0.32842 0.82739 0.0
C336 C 0.42767 0.2376 0.79293 0.0
H337 H 0.52186 0.23071 0.80396 0.0
C338 C 0.49685 0.13537 0.76751 0.0
C339 C 0.46492 0.09694 0.76851 0.0
C340 C 0.49551 0.16876 0.77439 0.0
C341 C 0.49535 0.2322 0.80072 0.0
H342 H 0.44375 0.37509 0.79226 0.0
H343 H 0.43354 0.30906 0.78342 0.0
H344 H 0.52256 0.29108 0.81509 0.0
H345 H 0.40625 0.06331 0.77722 0.0
H346 H 0.40408 0.12191 0.78947 0.0
H347 H 0.40093 0.17888 0.77808 0.0
C348 C 0.44831 0.32434 0.79729 0.0
C349 C 0.49556 0.2666 0.8073 0.0
C350 C 0.45431 0.36226 0.80233 0.0
C351 C 0.43145 0.0926 0.77642 0.0
C352 C 0.43004 0.12608 0.78326 0.0
C353 C 0.42742 0.20302 0.78638 0.0
C354 C 0.46338 0.30752 0.80958 0.0
C355 C 0.46185 0.26983 0.80338 0.0
C356 C 0.46219 0.1645 0.78241 0.0
C357 C 0.46145 0.2002 0.79003 0.0
H358 H 0.50478 0.38199 0.84604 0.0
H359 H 0.49386 0.31589 0.83732 0.0
H360 H 0.40118 0.23916 0.78979 0.0
H361 H 0.52319 0.13966 0.76165 0.0
H362 H 0.52055 0.19799 0.77334 0.0
C363 C 0.62508 0.92599 0.48164 0.0
C364 C 0.63732 0.95444 0.49743 0.0
C365 C 0.62204 0.88931 0.48352 0.0
C366 C 0.59811 0.82461 0.52023 0.0
H367 H 0.60829 0.75346 0.48385 0.0
C368 C 0.5398 0.66244 0.53198 0.0
C369 C 0.51862 0.63351 0.51634 0.0
C370 C 0.56237 0.70265 0.52971 0.0
C371 C 0.60511 0.77296 0.4941 0.0
H372 H 0.65952 0.96911 0.527 0.0
H373 H 0.65586 0.90592 0.53019 0.0
H374 H 0.63675 0.82357 0.47935 0.0
H375 H 0.5061 0.62432 0.48594 0.0
H376 H 0.5439 0.69459 0.48207 0.0
H377 H 0.56511 0.77432 0.53457 0.0
C378 C 0.64769 0.91124 0.51647 0.0
C379 C 0.62156 0.8131 0.49155 0.0
C380 C 0.65022 0.94753 0.51463 0.0
C381 C 0.52137 0.64581 0.49834 0.0
C382 C 0.54365 0.68612 0.49608 0.0
C383 C 0.58156 0.78468 0.52271 0.0
C384 C 0.6313 0.88086 0.50123 0.0
C385 C 0.61794 0.83927 0.50454 0.0
C386 C 0.56399 0.7151 0.51177 0.0
C387 C 0.58445 0.75819 0.50961 0.0
H388 H 0.61436 0.9306 0.46832 0.0
H389 H 0.60918 0.86647 0.47153 0.0
H390 H 0.59381 0.84365 0.53025 0.0
H391 H 0.53821 0.6542 0.54607 0.0
H392 H 0.57816 0.72408 0.54209 0.0
C393 C 0.67463 0.53444 0.85652 0.0
C394 C 0.66868 0.56062 0.84635 0.0
C395 C 0.71285 0.54241 0.8621 0.0
C396 C 0.817 0.60067 0.85275 0.0
H397 H 0.83767 0.57786 0.90248 0.0
C398 C 0.97307 0.63957 0.88588 0.0
C399 C 0.97443 0.60895 0.8943 0.0
C400 C 0.93667 0.6361 0.8801 0.0
C401 C 0.83226 0.58418 0.88853 0.0
H402 H 0.69831 0.61545 0.83375 0.0
H403 H 0.76538 0.6297 0.84376 0.0
H404 H 0.77256 0.56759 0.89202 0.0
H405 H 0.93852 0.55042 0.90294 0.0
H406 H 0.87516 0.54476 0.89317 0.0
H407 H 0.87701 0.61736 0.84938 0.0
C408 C 0.7403 0.60275 0.84723 0.0
C409 C 0.79497 0.57821 0.8825 0.0
C410 C 0.7019 0.59465 0.84155 0.0
C411 C 0.93859 0.5749 0.89687 0.0
C412 C 0.90228 0.57159 0.89122 0.0
C413 C 0.85448 0.60687 0.85884 0.0
C414 C 0.74615 0.57691 0.85776 0.0
C415 C 0.78668 0.58575 0.86444 0.0
C416 C 0.90095 0.60211 0.88277 0.0
C417 C 0.86222 0.59809 0.87668 0.0
H418 H 0.64973 0.50771 0.86029 0.0
H419 H 0.71627 0.5214 0.8698 0.0
H420 H 0.81146 0.60646 0.8387 0.0
H421 H 0.00016 0.6664 0.88392 0.0
H422 H 0.93645 0.66022 0.87378 0.0
C423 C 0.18247 0.70758 0.15782 0.0
C424 C 0.15354 0.69138 0.17016 0.0
C425 C 0.21344 0.74706 0.16148 0.0
C426 C 0.25029 0.84391 0.19035 0.0
H427 H 0.35314 0.85495 0.18612 0.0
C428 C 0.42443 0.95711 0.22115 0.0
C429 C 0.42986 0.99404 0.2174 0.0
C430 C 0.38963 0.92188 0.21386 0.0
C431 C 0.32465 0.85237 0.18738 0.0
H432 H 0.13311 0.70473 0.19539 0.0
H433 H 0.18769 0.7738 0.20192 0.0
H434 H 0.29306 0.79111 0.17594 0.0
H435 H 0.40311 0.02313 0.20312 0.0
H436 H 0.34193 0.96115 0.19026 0.0
H437 H 0.28238 0.90521 0.20233 0.0
C438 C 0.18616 0.7559 0.18934 0.0
C439 C 0.29018 0.8159 0.18135 0.0
C440 C 0.15496 0.71629 0.18564 0.0
C441 C 0.39978 0.99502 0.20612 0.0
C442 C 0.3647 0.95965 0.19892 0.0
C443 C 0.28493 0.8806 0.19631 0.0
C444 C 0.21638 0.7713 0.17759 0.0
C445 C 0.2526 0.81109 0.18293 0.0
C446 C 0.35936 0.92273 0.2027 0.0
C447 C 0.32246 0.88497 0.19513 0.0
H448 H 0.18196 0.68941 0.1456 0.0
H449 H 0.23578 0.75831 0.15194 0.0
H450 H 0.22174 0.84115 0.19163 0.0
H451 H 0.44724 0.95544 0.22968 0.0
H452 H 0.3862 0.8939 0.21718 0.0
C453 C 0.56721 0.18664 0.53329 0.0
C454 C 0.5624 0.16968 0.51474 0.0
C455 C 0.5604 0.21791 0.53708 0.0
C456 C 0.51664 0.27306 0.51541 0.0
H457 H 0.5828 0.35265 0.55749 0.0
C458 C 0.48912 0.39895 0.5411 0.0
C459 C 0.52182 0.43551 0.54922 0.0
C460 C 0.4938 0.36659 0.53618 0.0
C461 C 0.56445 0.33116 0.54548 0.0
H462 H 0.54652 0.17182 0.48558 0.0
H463 H 0.53654 0.22777 0.49204 0.0
H464 H 0.59169 0.29685 0.55002 0.0
H465 H 0.58508 0.46792 0.55799 0.0
H466 H 0.59398 0.41227 0.5485 0.0
H467 H 0.49108 0.30879 0.51022 0.0
C468 C 0.54426 0.21619 0.50378 0.0
C469 C 0.56899 0.2985 0.54141 0.0
C470 C 0.55018 0.18423 0.50003 0.0
C471 C 0.55945 0.43974 0.55188 0.0
C472 C 0.56435 0.40771 0.54658 0.0
C473 C 0.51266 0.30622 0.51925 0.0
C474 C 0.54961 0.23369 0.52237 0.0
C475 C 0.54492 0.26877 0.52643 0.0
C476 C 0.53148 0.37046 0.53895 0.0
C477 C 0.53634 0.33562 0.53442 0.0
H478 H 0.57611 0.17561 0.54491 0.0
H479 H 0.56369 0.22968 0.5516 0.0
H480 H 0.4972 0.25065 0.50389 0.0
H481 H 0.45977 0.39512 0.53908 0.0
H482 H 0.46765 0.33835 0.53068 0.0
C483 C 0.37156 0.51463 0.84742 0.0
C484 C 0.38436 0.50917 0.83032 0.0
C485 C 0.33613 0.51454 0.84765 0.0
C486 C 0.27938 0.54576 0.82067 0.0
H487 H 0.20703 0.50286 0.85804 0.0
C488 C 0.17324 0.60198 0.8364 0.0
C489 C 0.17151 0.60986 0.85556 0.0
C490 C 0.1904 0.57996 0.83059 0.0
C491 C 0.22701 0.51513 0.84754 0.0
H492 H 0.36944 0.49738 0.80006 0.0
H493 H 0.30753 0.49839 0.80045 0.0
H494 H 0.2525 0.47905 0.85248 0.0
H495 H 0.18596 0.60069 0.88367 0.0
H496 H 0.21686 0.56328 0.87367 0.0
H497 H 0.25616 0.58384 0.81659 0.0
C498 C 0.32487 0.50227 0.81364 0.0
C499 C 0.25276 0.50124 0.84427 0.0
C500 C 0.3601 0.50158 0.81343 0.0
C501 C 0.18658 0.59472 0.86879 0.0
C502 C 0.20404 0.57304 0.86302 0.0
C503 C 0.25394 0.55997 0.82407 0.0
C504 C 0.31309 0.50962 0.83076 0.0
C505 C 0.28006 0.51739 0.83125 0.0
C506 C 0.2065 0.56567 0.84386 0.0
C507 C 0.22844 0.54581 0.83802 0.0
H508 H 0.38962 0.52029 0.86064 0.0
H509 H 0.328 0.52071 0.86103 0.0
H510 H 0.30048 0.55905 0.8107 0.0
H511 H 0.16124 0.6128 0.82589 0.0
H512 H 0.19129 0.57437 0.81572 0.0
C513 C 0.9255 0.36945 0.1519 0.0
C514 C 0.95847 0.39015 0.16579 0.0
C515 C 0.89075 0.33607 0.15565 0.0
C516 C 0.83666 0.29983 0.19559 0.0
H517 H 0.76224 0.21037 0.15901 0.0
C518 C 0.67476 0.19637 0.20909 0.0
C519 C 0.64602 0.188 0.19392 0.0
C520 C 0.71479 0.21314 0.20644 0.0
C521 C 0.78266 0.23522 0.16938 0.0
H522 H 0.98183 0.38993 0.19399 0.0
H523 H 0.92105 0.33159 0.2005 0.0
H524 H 0.83043 0.25316 0.15254 0.0
H525 H 0.63653 0.18859 0.16391 0.0
H526 H 0.70609 0.2188 0.15941 0.0
H527 H 0.78865 0.28333 0.21202 0.0
C528 C 0.92205 0.34155 0.18679 0.0
C529 C 0.82174 0.25962 0.16569 0.0
C530 C 0.95696 0.37481 0.18299 0.0
C531 C 0.658 0.19535 0.17596 0.0
C532 C 0.6979 0.21212 0.17333 0.0
C533 C 0.79757 0.2756 0.19923 0.0
C534 C 0.88811 0.32274 0.1734 0.0
C535 C 0.84888 0.29282 0.17854 0.0
C536 C 0.72693 0.22183 0.18857 0.0
C537 C 0.76977 0.24367 0.18594 0.0
H538 H 0.92572 0.3803 0.13846 0.0
H539 H 0.86511 0.32241 0.14505 0.0
H540 H 0.85665 0.32549 0.20568 0.0
H541 H 0.66653 0.19115 0.22312 0.0
H542 H 0.73631 0.21983 0.21846 0.0
C543 C 0.03454 0.4972 0.07906 0.0
C544 C 0.06772 0.52514 0.09169 0.0
C545 C 0.03485 0.49869 0.05971 0.0
C546 C 0.10031 0.54464 0.0227 0.0
H547 H 0.00476 0.53395 0.99704 0.0
C548 C 0.09423 0.606 0.95235 0.0
C549 C 0.05945 0.58396 0.9396 0.0
C550 C 0.0968 0.59372 0.96992 0.0
C551 C 0.03147 0.53638 0.00387 0.0
H552 H 0.12799 0.57538 0.09377 0.0
H553 H 0.12819 0.57841 0.06015 0.0
H554 H 0.00617 0.52092 0.02947 0.0
H555 H 0.00133 0.53032 0.93468 0.0
H556 H 0.00585 0.50886 0.96524 0.0
H557 H 0.12587 0.56134 0.99709 0.0
C558 C 0.10208 0.55501 0.06513 0.0
C559 C 0.03226 0.52882 0.0225 0.0
C560 C 0.10186 0.5534 0.08447 0.0
C561 C 0.02818 0.54836 0.94438 0.0
C562 C 0.03076 0.53609 0.96188 0.0
C563 C 0.09955 0.55236 0.00403 0.0
C564 C 0.06825 0.52827 0.05254 0.0
C565 C 0.06678 0.53321 0.03223 0.0
C566 C 0.06467 0.55913 0.97504 0.0
C567 C 0.0652 0.54863 0.99446 0.0
H568 H 0.00788 0.47479 0.08412 0.0
H569 H 0.00856 0.47713 0.05038 0.0
H570 H 0.12723 0.54785 0.02971 0.0
H571 H 0.11872 0.63365 0.94909 0.0
H572 H 0.12322 0.61229 0.9798 0.0
C573 C 0.55202 0.06237 0.42065 0.0
C574 C 0.5866 0.06565 0.4297 0.0
C575 C 0.5477 0.06349 0.40135 0.0
C576 C 0.60225 0.09835 0.36105 0.0
H577 H 0.50117 0.02025 0.33259 0.0
C578 C 0.56768 0.08525 0.27966 0.0
C579 C 0.52909 0.07571 0.27296 0.0
C580 C 0.5778 0.0854 0.29876 0.0
C581 C 0.52944 0.04258 0.34035 0.0
H582 H 0.64404 0.07323 0.42551 0.0
H583 H 0.63645 0.07548 0.39158 0.0
H584 H 0.51306 0.01703 0.36587 0.0
H585 H 0.47175 0.06163 0.281 0.0
H586 H 0.48945 0.06273 0.3142 0.0
H587 H 0.61824 0.12437 0.33549 0.0
C588 C 0.61276 0.07197 0.39958 0.0
C589 C 0.53627 0.0406 0.3594 0.0
C590 C 0.61696 0.07044 0.41895 0.0
C591 C 0.50149 0.06832 0.28576 0.0
C592 C 0.5116 0.06874 0.30475 0.0
C593 C 0.5953 0.1005 0.34191 0.0
C594 C 0.57792 0.0682 0.39059 0.0
C595 C 0.57244 0.06882 0.37003 0.0
C596 C 0.54951 0.07623 0.31143 0.0
C597 C 0.55849 0.07303 0.33144 0.0
H598 H 0.52804 0.0587 0.42846 0.0
H599 H 0.52072 0.06102 0.39484 0.0
H600 H 0.63036 0.12058 0.36895 0.0
H601 H 0.58945 0.09099 0.27003 0.0
H602 H 0.60724 0.09125 0.30345 0.0
C603 C 0.56453 0.55103 0.75262 0.0
C604 C 0.52896 0.53638 0.7607 0.0
C605 C 0.56447 0.55206 0.73321 0.0
C606 C 0.49608 0.50949 0.68837 0.0
H607 H 0.58533 0.59351 0.66808 0.0
C608 C 0.49206 0.52667 0.60965 0.0
C609 C 0.52349 0.52704 0.60131 0.0
C610 C 0.49396 0.53212 0.62919 0.0
C611 C 0.56025 0.5699 0.67359 0.0
H612 H 0.46556 0.5123 0.75481 0.0
H613 H 0.46556 0.51547 0.72122 0.0
H614 H 0.58575 0.59405 0.70208 0.0
H615 H 0.58236 0.53559 0.60672 0.0
H616 H 0.586 0.54596 0.64097 0.0
H617 H 0.47037 0.48588 0.65983 0.0
C618 C 0.49343 0.52492 0.72967 0.0
C619 C 0.56055 0.56997 0.69307 0.0
C620 C 0.49342 0.52329 0.749 0.0
C621 C 0.55771 0.53507 0.61284 0.0
C622 C 0.55985 0.54115 0.63238 0.0
C623 C 0.49555 0.5098 0.66896 0.0
C624 C 0.52889 0.53904 0.72146 0.0
C625 C 0.52852 0.53961 0.70073 0.0
C626 C 0.52754 0.53865 0.64074 0.0
C627 C 0.52768 0.53986 0.66138 0.0
H628 H 0.5924 0.56117 0.76125 0.0
H629 H 0.59227 0.56248 0.72742 0.0
H630 H 0.47128 0.48508 0.69363 0.0
H631 H 0.46522 0.5202 0.60109 0.0
H632 H 0.46877 0.53034 0.63531 0.0
C633 C 0.61331 0.08105 0.58709 0.0
C634 C 0.5957 0.04784 0.57321 0.0
C635 C 0.60545 0.07639 0.60573 0.0
C636 C 0.52628 0.01023 0.63168 0.0
H637 H 0.60277 0.06672 0.67604 0.0
C638 C 0.52938 0.01848 0.71725 0.0
C639 C 0.49851 0.02618 0.71927 0.0
C640 C 0.54332 0.01911 0.69981 0.0
C641 C 0.5812 0.05051 0.66376 0.0
H642 H 0.55803 0.98344 0.56832 0.0
H643 H 0.54443 0.97557 0.60066 0.0
H644 H 0.62565 0.07207 0.64491 0.0
H645 H 0.45728 0.03945 0.7047 0.0
H646 H 0.48116 0.03998 0.67424 0.0
H647 H 0.48178 0.98935 0.65037 0.0
C648 C 0.56383 0.0052 0.5971 0.0
C649 C 0.59423 0.05382 0.64599 0.0
C650 C 0.57177 0.00978 0.57857 0.0
C651 C 0.48129 0.03368 0.70352 0.0
C652 C 0.49478 0.03374 0.6861 0.0
C653 C 0.51328 0.00731 0.64936 0.0
C654 C 0.57973 0.0385 0.61077 0.0
C655 C 0.56682 0.03385 0.62978 0.0
C656 C 0.52607 0.02671 0.68409 0.0
C657 C 0.54052 0.0277 0.66555 0.0
H658 H 0.63195 0.11076 0.58346 0.0
H659 H 0.61798 0.10262 0.61598 0.0
H660 H 0.50441 0.99483 0.61944 0.0
H661 H 0.5432 0.01279 0.72923 0.0
H662 H 0.56735 0.0134 0.69857 0.0
C663 C 0.52214 0.56487 0.91575 0.0
C664 C 0.52389 0.53456 0.90498 0.0
C665 C 0.52172 0.5653 0.93517 0.0
C666 C 0.54861 0.52646 0.97536 0.0
H667 H 0.48881 0.5643 0.00168 0.0
C668 C 0.55207 0.53245 0.05526 0.0
C669 C 0.56177 0.56952 0.06462 0.0
C670 C 0.53997 0.5233 0.03595 0.0
C671 C 0.50566 0.55369 0.9945 0.0
H672 H 0.52564 0.48037 0.90615 0.0
H673 H 0.52418 0.48071 0.93995 0.0
H674 H 0.48263 0.55752 0.96738 0.0
H675 H 0.56389 0.62499 0.06126 0.0
H676 H 0.54244 0.60886 0.02752 0.0
H677 H 0.57191 0.52298 0.00243 0.0
C678 C 0.52394 0.50464 0.93345 0.0
C679 C 0.50228 0.54995 0.97487 0.0
C680 C 0.52464 0.50436 0.91404 0.0
C681 C 0.55634 0.59607 0.05448 0.0
C682 C 0.54412 0.58685 0.03514 0.0
C683 C 0.55177 0.52995 0.99494 0.0
C684 C 0.52277 0.53528 0.94429 0.0
C685 C 0.52414 0.53679 0.96507 0.0
C686 C 0.53715 0.55095 0.02558 0.0
C687 C 0.53071 0.54404 0.00474 0.0
H688 H 0.52164 0.58867 0.90924 0.0
H689 H 0.52148 0.58971 0.94308 0.0
H690 H 0.56644 0.51692 0.96835 0.0
H691 H 0.55525 0.51109 0.06278 0.0
H692 H 0.53403 0.49506 0.02901 0.0
C693 C 0.02645 0.56303 0.2419 0.0
C694 C 0.04971 0.5482 0.23509 0.0
C695 C 0.02188 0.56493 0.26095 0.0
C696 C 0.03661 0.52809 0.30547 0.0
H697 H 0.0323 0.61834 0.32816 0.0
C698 C 0.0661 0.58113 0.3853 0.0
C699 C 0.04038 0.59204 0.39276 0.0
C700 C 0.06249 0.57055 0.36599 0.0
C701 C 0.03294 0.5927 0.32196 0.0
H702 H 0.08655 0.52381 0.24294 0.0
H703 H 0.08002 0.52866 0.27633 0.0
H704 H 0.03682 0.61147 0.29469 0.0
H705 H 0.99011 0.59944 0.38609 0.0
H706 H 0.98416 0.58151 0.35216 0.0
H707 H 0.03458 0.51061 0.33314 0.0
C708 C 0.06426 0.53775 0.2669 0.0
C709 C 0.03543 0.58863 0.30274 0.0
C710 C 0.0683 0.53524 0.24775 0.0
C711 C 0.01012 0.5909 0.38066 0.0
C712 C 0.00691 0.58094 0.3613 0.0
C713 C 0.03473 0.53254 0.32478 0.0
C714 C 0.04103 0.55269 0.27376 0.0
C715 C 0.03742 0.55634 0.29421 0.0
C716 C 0.03349 0.5713 0.35377 0.0
C717 C 0.03298 0.56495 0.33319 0.0
H718 H 0.01128 0.57275 0.23246 0.0
H719 H 0.00303 0.57575 0.26557 0.0
H720 H 0.03732 0.50244 0.29939 0.0
H721 H 0.08959 0.5817 0.39438 0.0
H722 H 0.0835 0.56348 0.36053 0.0
loop_
_geom_bond_atom_site_label_1
_geom_bond_atom_site_label_2
_geom_bond_distance
_geom_bond_site_symmetry_2
_ccdc_geom_bond_type
O0 Zn1 1.953 . S
O0 C16 1.225 . S
Zn1 O0 1.953 . S
Zn1 O2 1.949 . S
Zn1 O8 1.919 1_455 S
Zn1 O13 1.924 . S
O2 Zn1 1.949 . S
O2 Zn3 1.923 . S
O2 Zn4 1.950 . S
O2 Zn5 1.945 . S
Zn3 O2 1.923 . S
Zn3 O6 1.933 . S
Zn3 O9 1.941 1_455 S
Zn3 O10 1.965 1_455 S
Zn4 O2 1.950 . S
Zn4 O11 1.938 . S
Zn4 O12 1.906 . S
Zn4 O22 1.953 . S
Zn5 O2 1.945 . S
Zn5 O7 1.932 . S
Zn5 O14 1.977 . S
Zn5 O15 1.910 . S
O6 Zn3 1.933 . S
O6 C17 1.226 . S
O7 Zn5 1.932 . S
O7 C17 1.307 . S
O8 Zn1 1.919 1_655 S
O8 C19 1.253 . S
O9 Zn3 1.941 1_655 S
O9 C19 1.283 . S
O10 Zn3 1.965 1_655 S
O10 C18 1.303 . S
O11 Zn4 1.938 . S
O11 C18 1.247 1_455 S
O12 Zn4 1.906 . S
O12 C20 1.304 . S
O13 Zn1 1.924 . S
O13 C21 1.311 . S
O14 Zn5 1.977 . S
O14 C20 1.272 . S
O15 Zn5 1.910 . S
O15 C21 1.231 . S
C16 O0 1.225 . S
C16 O22 1.298 . S
C17 O6 1.226 . S
C17 O7 1.307 . S
C18 O10 1.303 . S
C18 O11 1.247 1_655 S
C19 O8 1.253 . S
C19 O9 1.283 . S
C20 O12 1.304 . S
C20 O14 1.272 . S
C21 O13 1.311 . S
C21 O15 1.231 . S
O22 Zn4 1.953 . S
O22 C16 1.298 . S
O23 Zn24 1.953 . S
O23 C39 1.225 . S
Zn24 O23 1.953 . S
Zn24 O25 1.949 . S
Zn24 O31 1.919 . S
Zn24 O36 1.924 . S
O25 Zn24 1.949 . S
O25 Zn26 1.923 . S
O25 Zn27 1.950 . S
O25 Zn28 1.945 . S
Zn26 O25 1.923 . S
Zn26 O29 1.933 . S
Zn26 O32 1.941 . S
Zn26 O33 1.965 . S
Zn27 O25 1.950 . S
Zn27 O34 1.938 . S
Zn27 O35 1.906 . S
Zn27 O45 1.953 . S
Zn28 O25 1.945 . S
Zn28 O30 1.932 . S
Zn28 O37 1.977 1_545 S
Zn28 O38 1.910 1_545 S
O29 Zn26 1.933 . S
O29 C40 1.226 . S
O30 Zn28 1.932 . S
O30 C40 1.307 . S
O31 Zn24 1.919 . S
O31 C42 1.253 . S
O32 Zn26 1.941 . S
O32 C42 1.283 . S
O33 Zn26 1.965 . S
O33 C41 1.303 . S
O34 Zn27 1.938 . S
O34 C41 1.247 . S
O35 Zn27 1.906 . S
O35 C43 1.304 1_545 S
O36 Zn24 1.924 . S
O36 C44 1.311 1_545 S
O37 Zn28 1.977 1_565 S
O37 C43 1.272 . S
O38 Zn28 1.910 1_565 S
O38 C44 1.231 . S
C39 O23 1.225 . S
C39 O45 1.298 . S
C40 O29 1.226 . S
C40 O30 1.307 . S
C41 O33 1.303 . S
C41 O34 1.247 . S
C42 O31 1.253 . S
C42 O32 1.283 . S
C43 O35 1.304 1_565 S
C43 O37 1.272 . S
C44 O36 1.311 1_565 S
C44 O38 1.231 . S
O45 Zn27 1.953 . S
O45 C39 1.298 . S
O46 Zn47 1.953 . S
O46 C62 1.225 . S
Zn47 O46 1.953 . S
Zn47 O48 1.949 . S
Zn47 O54 1.919 . S
Zn47 O59 1.924 . S
O48 Zn47 1.949 . S
O48 Zn49 1.923 . S
O48 Zn50 1.950 . S
O48 Zn51 1.945 . S
Zn49 O48 1.923 . S
Zn49 O52 1.933 . S
Zn49 O55 1.941 . S
Zn49 O56 1.965 . S
Zn50 O48 1.950 . S
Zn50 O57 1.938 . S
Zn50 O58 1.906 . S
Zn50 O68 1.953 . S
Zn51 O48 1.945 . S
Zn51 O53 1.932 . S
Zn51 O60 1.977 . S
Zn51 O61 1.910 . S
O52 Zn49 1.933 . S
O52 C63 1.226 . S
O53 Zn51 1.932 . S
O53 C63 1.307 . S
O54 Zn47 1.919 . S
O54 C65 1.253 . S
O55 Zn49 1.941 . S
O55 C65 1.283 . S
O56 Zn49 1.965 . S
O56 C64 1.303 . S
O57 Zn50 1.938 . S
O57 C64 1.247 . S
O58 Zn50 1.906 . S
O58 C66 1.304 . S
O59 Zn47 1.924 . S
O59 C67 1.311 . S
O60 Zn51 1.977 . S
O60 C66 1.272 . S
O61 Zn51 1.910 . S
O61 C67 1.231 . S
C62 O46 1.225 . S
C62 O68 1.298 . S
C63 O52 1.226 . S
C63 O53 1.307 . S
C64 O56 1.303 . S
C64 O57 1.247 . S
C65 O54 1.253 . S
C65 O55 1.283 . S
C66 O58 1.304 . S
C66 O60 1.272 . S
C67 O59 1.311 . S
C67 O61 1.231 . S
O68 Zn50 1.953 . S
O68 C62 1.298 . S
H69 C70 0.949 . S
C70 H69 0.949 . S
C70 C71 1.395 . S
C70 C72 1.391 . S
C71 C70 1.395 . S
C71 C74 1.390 . S
C72 C70 1.391 . S
C72 C76 1.387 . S
C72 C77 1.491 . S
H73 C74 0.950 . S
C74 C71 1.390 . S
C74 H73 0.950 . S
C74 C75 1.378 . S
C75 C74 1.378 . S
C75 C76 1.409 . S
C76 C72 1.387 . S
C76 C75 1.409 . S
C76 H78 0.951 . S
C77 C72 1.491 . S
C77 C79 1.382 . S
C77 C81 1.404 . S
H78 C76 0.951 . S
C79 C77 1.382 . S
C79 C80 1.390 . S
C79 H84 0.949 . S
C80 C79 1.390 . S
C80 C85 1.399 . S
C81 C77 1.404 . S
C81 H82 0.950 . S
C81 C83 1.375 . S
H82 C81 0.950 . S
C83 C81 1.375 . S
C83 C85 1.382 . S
C83 H87 0.950 . S
H84 C79 0.949 . S
C85 C80 1.399 . S
C85 C83 1.382 . S
C85 H86 0.952 . S
H86 C85 0.952 . S
H87 C83 0.950 . S
H88 C89 0.949 . S
C89 H88 0.949 . S
C89 C90 1.395 . S
C89 C91 1.391 . S
C90 C89 1.395 . S
C90 C93 1.390 . S
C91 C89 1.391 . S
C91 C95 1.387 . S
C91 C96 1.491 . S
H92 C93 0.950 . S
C93 C90 1.390 . S
C93 H92 0.950 . S
C93 C94 1.378 . S
C94 C93 1.378 . S
C94 C95 1.409 . S
C95 C91 1.387 . S
C95 C94 1.409 . S
C95 H97 0.951 . S
C96 C91 1.491 . S
C96 C98 1.382 . S
C96 C100 1.404 . S
H97 C95 0.951 . S
C98 C96 1.382 . S
C98 C99 1.390 . S
C98 H103 0.949 . S
C99 C98 1.390 . S
C99 C104 1.399 . S
C100 C96 1.404 . S
C100 H101 0.950 . S
C100 C102 1.375 . S
H101 C100 0.950 . S
C102 C100 1.375 . S
C102 C104 1.382 . S
C102 H106 0.950 . S
H103 C98 0.949 . S
C104 C99 1.399 . S
C104 C102 1.382 . S
C104 H105 0.952 . S
H105 C104 0.952 . S
H106 C102 0.950 . S
H107 C108 0.949 . S
C108 H107 0.949 . S
C108 C109 1.395 . S
C108 C110 1.391 . S
C109 C108 1.395 . S
C109 C112 1.390 . S
C110 C108 1.391 . S
C110 C114 1.387 . S
C110 C115 1.491 . S
H111 C112 0.950 . S
C112 C109 1.390 . S
C112 H111 0.950 . S
C112 C113 1.378 . S
C113 C112 1.378 . S
C113 C114 1.409 . S
C114 C110 1.387 . S
C114 C113 1.409 . S
C114 H116 0.951 . S
C115 C110 1.491 . S
C115 C117 1.382 . S
C115 C119 1.404 . S
H116 C114 0.951 . S
C117 C115 1.382 . S
C117 C118 1.390 . S
C117 H122 0.949 . S
C118 C117 1.390 . S
C118 C123 1.399 . S
C119 C115 1.404 . S
C119 H120 0.950 . S
C119 C121 1.375 . S
H120 C119 0.950 . S
C121 C119 1.375 . S
C121 C123 1.382 . S
C121 H125 0.950 . S
H122 C117 0.949 . S
C123 C118 1.399 . S
C123 C121 1.382 . S
C123 H124 0.952 . S
H124 C123 0.952 . S
H125 C121 0.950 . S
H126 C127 0.949 1_655 S
C127 H126 0.949 1_455 S
C127 C128 1.395 . S
C127 C129 1.391 . S
C128 C127 1.395 . S
C128 C131 1.390 . S
C129 C127 1.391 . S
C129 C133 1.387 . S
C129 C134 1.491 1_455 S
H130 C131 0.950 . S
C131 C128 1.390 . S
C131 H130 0.950 . S
C131 C132 1.378 . S
C132 C131 1.378 . S
C132 C133 1.409 . S
C133 C129 1.387 . S
C133 C132 1.409 . S
C133 H135 0.951 . S
C134 C129 1.491 1_655 S
C134 C136 1.382 . S
C134 C138 1.404 . S
H135 C133 0.951 . S
C136 C134 1.382 . S
C136 C137 1.390 . S
C136 H141 0.949 . S
C137 C136 1.390 . S
C137 C142 1.399 . S
C138 C134 1.404 . S
C138 H139 0.950 . S
C138 C140 1.375 . S
H139 C138 0.950 . S
C140 C138 1.375 . S
C140 C142 1.382 . S
C140 H144 0.950 . S
H141 C136 0.949 . S
C142 C137 1.399 . S
C142 C140 1.382 . S
C142 H143 0.952 . S
H143 C142 0.952 . S
H144 C140 0.950 . S
H145 C146 0.971 . S
C146 H145 0.971 . S
C146 C147 1.395 . S
C146 C148 1.391 . S
C147 C146 1.395 . S
C147 C150 1.390 . S
C148 C146 1.391 . S
C148 C152 1.387 . S
C148 C153 1.491 1_545 S
H149 C150 0.950 . S
C150 C147 1.390 . S
C150 H149 0.950 . S
C150 C151 1.378 . S
C151 C150 1.378 . S
C151 C152 1.409 . S
C152 C148 1.387 . S
C152 C151 1.409 . S
C152 H154 0.951 . S
C153 C148 1.491 1_565 S
C153 C155 1.382 . S
C153 C157 1.404 . S
H154 C152 0.951 . S
C155 C153 1.382 . S
C155 C156 1.390 . S
C155 H160 0.949 . S
C156 C155 1.390 . S
C156 C161 1.399 . S
C157 C153 1.404 . S
C157 H158 0.950 1_565 S
C157 C159 1.375 . S
H158 C157 0.950 1_545 S
C159 C157 1.375 . S
C159 C161 1.382 . S
C159 H163 0.950 . S
H160 C155 0.949 . S
C161 C156 1.399 . S
C161 C159 1.382 . S
C161 H162 0.952 . S
H162 C161 0.952 . S
H163 C159 0.950 . S
H164 C165 0.949 . S
C165 H164 0.949 . S
C165 C166 1.395 . S
C165 C167 1.391 . S
C166 C165 1.395 . S
C166 C169 1.390 . S
C167 C165 1.391 . S
C167 C171 1.387 . S
C167 C172 1.491 . S
H168 C169 0.950 . S
C169 C166 1.390 . S
C169 H168 0.950 . S
C169 C170 1.378 . S
C170 C169 1.378 . S
C170 C171 1.409 . S
C171 C167 1.387 . S
C171 C170 1.409 . S
C171 H173 0.951 . S
C172 C167 1.491 . S
C172 C174 1.382 . S
C172 C176 1.404 . S
H173 C171 0.951 . S
C174 C172 1.382 . S
C174 C175 1.390 . S
C174 H179 0.949 . S
C175 C174 1.390 . S
C175 C180 1.399 . S
C176 C172 1.404 . S
C176 H177 0.950 . S
C176 C178 1.375 . S
H177 C176 0.950 . S
C178 C176 1.375 . S
C178 C180 1.382 . S
C178 H182 0.950 . S
H179 C174 0.949 . S
C180 C175 1.399 . S
C180 C178 1.382 . S
C180 H181 0.952 . S
H181 C180 0.952 . S
H182 C178 0.950 . S
C183 C184 1.349 . S
C183 C185 1.327 . S
C183 H208 0.950 . S
C184 C183 1.349 . S
C184 C200 1.349 . S
C185 C183 1.327 . S
C185 C204 1.429 . S
C185 H209 0.950 . S
C186 C203 1.574 . S
C186 C205 1.368 . S
C186 H210 0.949 . S
H187 C191 0.949 . S
C188 C189 1.349 . S
C188 C190 1.327 . S
C188 H211 0.950 . S
C189 C188 1.349 . S
C189 C201 1.349 . S
C190 C188 1.327 . S
C190 C206 1.429 . S
C190 H212 0.950 . S
C191 H187 0.949 . S
C191 C199 1.574 . S
C191 C207 1.368 . S
H192 C200 0.950 . S
H193 C198 0.950 . S
H194 C199 0.949 . S
H195 C201 0.950 . S
H196 C202 0.950 . S
H197 C203 0.949 . S
C198 H193 0.950 . S
C198 C200 1.327 . S
C198 C204 1.429 . S
C199 C191 1.574 . S
C199 H194 0.949 . S
C199 C205 1.368 . S
C200 C184 1.349 . S
C200 H192 0.950 . S
C200 C198 1.327 . S
C201 C189 1.349 . S
C201 H195 0.950 . S
C201 C202 1.327 . S
C202 H196 0.950 . S
C202 C201 1.327 . S
C202 C206 1.429 . S
C203 C186 1.574 . S
C203 H197 0.949 . S
C203 C207 1.368 . S
C204 C185 1.429 . S
C204 C198 1.429 . S
C204 C205 1.523 . S
C205 C186 1.368 . S
C205 C199 1.368 . S
C205 C204 1.523 . S
C206 C190 1.429 . S
C206 C202 1.429 . S
C206 C207 1.523 . S
C207 C191 1.368 . S
C207 C203 1.368 . S
C207 C206 1.523 . S
H208 C183 0.950 . S
H209 C185 0.950 . S
H210 C186 0.949 . S
H211 C188 0.950 . S
H212 C190 0.950 . S
C213 C214 1.349 . S
C213 C215 1.327 . S
C213 H238 0.950 . S
C214 C213 1.349 . S
C214 C230 1.349 . S
C215 C213 1.327 . S
C215 C234 1.429 . S
C215 H239 0.950 . S
C216 C233 1.574 . S
C216 C235 1.368 . S
C216 H240 0.949 . S
H217 C221 0.949 . S
C218 C219 1.349 . S
C218 C220 1.327 . S
C218 H241 0.950 . S
C219 C218 1.349 . S
C219 C231 1.349 . S
C220 C218 1.327 . S
C220 C236 1.429 . S
C220 H242 0.950 . S
C221 H217 0.949 . S
C221 C229 1.574 . S
C221 C237 1.368 . S
H222 C230 0.950 . S
H223 C228 0.950 . S
H224 C229 0.949 . S
H225 C231 0.950 . S
H226 C232 0.950 . S
H227 C233 0.949 . S
C228 H223 0.950 . S
C228 C230 1.327 . S
C228 C234 1.429 . S
C229 C221 1.574 . S
C229 H224 0.949 . S
C229 C235 1.368 . S
C230 C214 1.349 . S
C230 H222 0.950 . S
C230 C228 1.327 . S
C231 C219 1.349 . S
C231 H225 0.950 . S
C231 C232 1.327 . S
C232 H226 0.950 . S
C232 C231 1.327 . S
C232 C236 1.429 . S
C233 C216 1.574 . S
C233 H227 0.949 . S
C233 C237 1.368 . S
C234 C215 1.429 . S
C234 C228 1.429 . S
C234 C235 1.523 . S
C235 C216 1.368 . S
C235 C229 1.368 . S
C235 C234 1.523 . S
C236 C220 1.429 . S
C236 C232 1.429 . S
C236 C237 1.523 . S
C237 C221 1.368 . S
C237 C233 1.368 . S
C237 C236 1.523 . S
H238 C213 0.950 . S
H239 C215 0.950 . S
H240 C216 0.949 . S
H241 C218 0.950 . S
H242 C220 0.950 . S
C243 C244 1.349 . S
C243 C245 1.327 . S
C243 H268 0.950 . S
C244 C243 1.349 . S
C244 C260 1.349 . S
C245 C243 1.327 . S
C245 C264 1.429 . S
C245 H269 0.950 . S
C246 C263 1.574 . S
C246 C265 1.368 . S
C246 H270 0.949 . S
H247 C251 0.949 . S
C248 C249 1.349 . S
C248 C250 1.327 . S
C248 H271 0.950 . S
C249 C248 1.349 . S
C249 C261 1.349 . S
C250 C248 1.327 . S
C250 C266 1.429 . S
C250 H272 0.950 . S
C251 H247 0.949 . S
C251 C259 1.574 . S
C251 C267 1.368 . S
H252 C260 0.950 . S
H253 C258 0.950 . S
H254 C259 0.949 . S
H255 C261 0.950 . S
H256 C262 0.950 . S
H257 C263 0.949 . S
C258 H253 0.950 . S
C258 C260 1.327 . S
C258 C264 1.429 . S
C259 C251 1.574 . S
C259 H254 0.949 . S
C259 C265 1.368 . S
C260 C244 1.349 . S
C260 H252 0.950 . S
C260 C258 1.327 . S
C261 C249 1.349 . S
C261 H255 0.950 . S
C261 C262 1.327 . S
C262 H256 0.950 . S
C262 C261 1.327 . S
C262 C266 1.429 . S
C263 C246 1.574 . S
C263 H257 0.949 . S
C263 C267 1.368 . S
C264 C245 1.429 . S
C264 C258 1.429 . S
C264 C265 1.523 . S
C265 C246 1.368 . S
C265 C259 1.368 . S
C265 C264 1.523 . S
C266 C250 1.429 . S
C266 C262 1.429 . S
C266 C267 1.523 . S
C267 C251 1.368 . S
C267 C263 1.368 . S
C267 C266 1.523 . S
H268 C243 0.950 . S
H269 C245 0.950 . S
H270 C246 0.949 . S
H271 C248 0.950 . S
H272 C250 0.950 . S
C273 C274 1.349 . S
C273 C275 1.327 . S
C273 H298 0.950 . S
C274 C273 1.349 . S
C274 C290 1.349 . S
C275 C273 1.327 . S
C275 C294 1.429 . S
C275 H299 0.950 . S
C276 C293 1.574 . S
C276 C295 1.368 . S
C276 H300 0.949 . S
H277 C281 0.949 . S
C278 C279 1.349 . S
C278 C280 1.327 . S
C278 H301 0.950 . S
C279 C278 1.349 . S
C279 C291 1.349 . S
C280 C278 1.327 . S
C280 C296 1.429 . S
C280 H302 0.950 . S
C281 H277 0.949 . S
C281 C289 1.574 . S
C281 C297 1.368 . S
H282 C290 0.950 . S
H283 C288 0.950 . S
H284 C289 0.949 . S
H285 C291 0.950 . S
H286 C292 0.950 . S
H287 C293 0.949 . S
C288 H283 0.950 . S
C288 C290 1.327 . S
C288 C294 1.429 . S
C289 C281 1.574 . S
C289 H284 0.949 . S
C289 C295 1.368 . S
C290 C274 1.349 . S
C290 H282 0.950 . S
C290 C288 1.327 . S
C291 C279 1.349 . S
C291 H285 0.950 . S
C291 C292 1.327 . S
C292 H286 0.950 . S
C292 C291 1.327 . S
C292 C296 1.429 . S
C293 C276 1.574 . S
C293 H287 0.949 . S
C293 C297 1.368 . S
C294 C275 1.429 . S
C294 C288 1.429 . S
C294 C295 1.523 . S
C295 C276 1.368 . S
C295 C289 1.368 . S
C295 C294 1.523 . S
C296 C280 1.429 . S
C296 C292 1.429 . S
C296 C297 1.523 . S
C297 C281 1.368 . S
C297 C293 1.368 . S
C297 C296 1.523 . S
H298 C273 0.950 . S
H299 C275 0.950 . S
H300 C276 0.949 . S
H301 C278 0.950 . S
H302 C280 0.950 . S
C303 C304 1.349 . S
C303 C305 1.327 . S
C303 H328 0.950 . S
C304 C303 1.349 . S
C304 C320 1.349 . S
C305 C303 1.327 . S
C305 C324 1.429 . S
C305 H329 0.950 . S
C306 C323 1.574 . S
C306 C325 1.368 . S
C306 H330 0.949 . S
H307 C311 0.949 . S
C308 C309 1.349 . S
C308 C310 1.327 . S
C308 H331 0.950 . S
C309 C308 1.349 . S
C309 C321 1.349 . S
C310 C308 1.327 . S
C310 C326 1.429 . S
C310 H332 0.950 . S
C311 H307 0.949 . S
C311 C319 1.574 . S
C311 C327 1.368 . S
H312 C320 0.950 . S
H313 C318 0.950 . S
H314 C319 0.949 . S
H315 C321 0.950 . S
H316 C322 0.950 . S
H317 C323 0.949 . S
C318 H313 0.950 . S
C318 C320 1.327 . S
C318 C324 1.429 . S
C319 C311 1.574 . S
C319 H314 0.949 . S
C319 C325 1.368 . S
C320 C304 1.349 . S
C320 H312 0.950 . S
C320 C318 1.327 . S
C321 C309 1.349 . S
C321 H315 0.950 . S
C321 C322 1.327 . S
C322 H316 0.950 . S
C322 C321 1.327 . S
C322 C326 1.429 . S
C323 C306 1.574 . S
C323 H317 0.949 . S
C323 C327 1.368 . S
C324 C305 1.429 . S
C324 C318 1.429 . S
C324 C325 1.523 . S
C325 C306 1.368 . S
C325 C319 1.368 . S
C325 C324 1.523 . S
C326 C310 1.429 . S
C326 C322 1.429 . S
C326 C327 1.523 . S
C327 C311 1.368 . S
C327 C323 1.368 . S
C327 C326 1.523 . S
H328 C303 0.950 . S
H329 C305 0.950 . S
H330 C306 0.949 . S
H331 C308 0.950 . S
H332 C310 0.950 . S
C333 C334 1.349 . S
C333 C335 1.327 . S
C333 H358 0.950 . S
C334 C333 1.349 . S
C334 C350 1.349 . S
C335 C333 1.327 . S
C335 C354 1.429 . S
C335 H359 0.950 . S
C336 C353 1.574 . S
C336 C355 1.368 . S
C336 H360 0.949 . S
H337 C341 0.949 . S
C338 C339 1.349 . S
C338 C340 1.327 . S
C338 H361 0.950 . S
C339 C338 1.349 . S
C339 C351 1.349 . S
C340 C338 1.327 . S
C340 C356 1.429 . S
C340 H362 0.950 . S
C341 H337 0.949 . S
C341 C349 1.574 . S
C341 C357 1.368 . S
H342 C350 0.950 . S
H343 C348 0.950 . S
H344 C349 0.949 . S
H345 C351 0.950 . S
H346 C352 0.950 . S
H347 C353 0.949 . S
C348 H343 0.950 . S
C348 C350 1.327 . S
C348 C354 1.429 . S
C349 C341 1.574 . S
C349 H344 0.949 . S
C349 C355 1.368 . S
C350 C334 1.349 . S
C350 H342 0.950 . S
C350 C348 1.327 . S
C351 C339 1.349 . S
C351 H345 0.950 . S
C351 C352 1.327 . S
C352 H346 0.950 . S
C352 C351 1.327 . S
C352 C356 1.429 . S
C353 C336 1.574 . S
C353 H347 0.949 . S
C353 C357 1.368 . S
C354 C335 1.429 . S
C354 C348 1.429 . S
C354 C355 1.523 . S
C355 C336 1.368 . S
C355 C349 1.368 . S
C355 C354 1.523 . S
C356 C340 1.429 . S
C356 C352 1.429 . S
C356 C357 1.523 . S
C357 C341 1.368 . S
C357 C353 1.368 . S
C357 C356 1.523 . S
H358 C333 0.950 . S
H359 C335 0.950 . S
H360 C336 0.949 . S
H361 C338 0.950 . S
H362 C340 0.950 . S
C363 C364 1.349 . S
C363 C365 1.327 . S
C363 H388 0.950 . S
C364 C363 1.349 . S
C364 C380 1.349 . S
C365 C363 1.327 . S
C365 C384 1.429 . S
C365 H389 0.950 . S
C366 C383 1.574 . S
C366 C385 1.368 . S
C366 H390 0.949 . S
H367 C371 0.949 . S
C368 C369 1.349 . S
C368 C370 1.327 . S
C368 H391 0.950 . S
C369 C368 1.349 . S
C369 C381 1.349 . S
C370 C368 1.327 . S
C370 C386 1.429 . S
C370 H392 0.950 . S
C371 H367 0.949 . S
C371 C379 1.574 . S
C371 C387 1.368 . S
H372 C380 0.950 . S
H373 C378 0.950 . S
H374 C379 0.949 . S
H375 C381 0.950 . S
H376 C382 0.950 . S
H377 C383 0.949 . S
C378 H373 0.950 . S
C378 C380 1.327 . S
C378 C384 1.429 . S
C379 C371 1.574 . S
C379 H374 0.949 . S
C379 C385 1.368 . S
C380 C364 1.349 . S
C380 H372 0.950 . S
C380 C378 1.327 . S
C381 C369 1.349 . S
C381 H375 0.950 . S
C381 C382 1.327 . S
C382 H376 0.950 . S
C382 C381 1.327 . S
C382 C386 1.429 . S
C383 C366 1.574 . S
C383 H377 0.949 . S
C383 C387 1.368 . S
C384 C365 1.429 . S
C384 C378 1.429 . S
C384 C385 1.523 . S
C385 C366 1.368 . S
C385 C379 1.368 . S
C385 C384 1.523 . S
C386 C370 1.429 . S
C386 C382 1.429 . S
C386 C387 1.523 . S
C387 C371 1.368 . S
C387 C383 1.368 . S
C387 C386 1.523 . S
H388 C363 0.950 . S
H389 C365 0.950 . S
H390 C366 0.949 . S
H391 C368 0.950 . S
H392 C370 0.950 . S
C393 C394 1.349 . S
C393 C395 1.327 . S
C393 H418 0.950 . S
C394 C393 1.349 . S
C394 C410 1.349 . S
C395 C393 1.327 . S
C395 C414 1.429 . S
C395 H419 0.950 . S
C396 C413 1.574 . S
C396 C415 1.368 . S
C396 H420 0.949 . S
H397 C401 0.949 . S
C398 C399 1.348 . S
C398 C400 1.329 . S
C398 H421 0.949 1_655 S
C399 C398 1.348 . S
C399 C411 1.349 . S
C400 C398 1.329 . S
C400 C416 1.429 . S
C400 H422 0.950 . S
C401 H397 0.949 . S
C401 C409 1.574 . S
C401 C417 1.368 . S
H402 C410 0.950 . S
H403 C408 0.950 . S
H404 C409 0.949 . S
H405 C411 0.950 . S
H406 C412 0.950 . S
H407 C413 0.949 . S
C408 H403 0.950 . S
C408 C410 1.327 . S
C408 C414 1.429 . S
C409 C401 1.574 . S
C409 H404 0.949 . S
C409 C415 1.368 . S
C410 C394 1.349 . S
C410 H402 0.950 . S
C410 C408 1.327 . S
C411 C399 1.349 . S
C411 H405 0.950 . S
C411 C412 1.327 . S
C412 H406 0.950 . S
C412 C411 1.327 . S
C412 C416 1.429 . S
C413 C396 1.574 . S
C413 H407 0.949 . S
C413 C417 1.368 . S
C414 C395 1.429 . S
C414 C408 1.429 . S
C414 C415 1.523 . S
C415 C396 1.368 . S
C415 C409 1.368 . S
C415 C414 1.523 . S
C416 C400 1.429 . S
C416 C412 1.429 . S
C416 C417 1.523 . S
C417 C401 1.368 . S
C417 C413 1.368 . S
C417 C416 1.523 . S
H418 C393 0.950 . S
H419 C395 0.950 . S
H420 C396 0.949 . S
H421 C398 0.949 1_455 S
H422 C400 0.950 . S
C423 C424 1.349 . S
C423 C425 1.327 . S
C423 H448 0.950 . S
C424 C423 1.349 . S
C424 C440 1.349 . S
C425 C423 1.327 . S
C425 C444 1.429 . S
C425 H449 0.950 . S
C426 C443 1.574 . S
C426 C445 1.368 . S
C426 H450 0.949 . S
H427 C431 0.949 . S
C428 C429 1.349 1_565 S
C428 C430 1.327 . S
C428 H451 0.950 . S
C429 C428 1.349 1_545 S
C429 C441 1.349 . S
C430 C428 1.327 . S
C430 C446 1.429 . S
C430 H452 0.950 . S
C431 H427 0.949 . S
C431 C439 1.574 . S
C431 C447 1.368 . S
H432 C440 0.950 . S
H433 C438 0.950 . S
H434 C439 0.949 . S
H435 C441 0.950 . S
H436 C442 0.950 . S
H437 C443 0.949 . S
C438 H433 0.950 . S
C438 C440 1.327 . S
C438 C444 1.429 . S
C439 C431 1.574 . S
C439 H434 0.949 . S
C439 C445 1.368 . S
C440 C424 1.349 . S
C440 H432 0.950 . S
C440 C438 1.327 . S
C441 C429 1.349 . S
C441 H435 0.950 . S
C441 C442 1.327 1_545 S
C442 H436 0.950 . S
C442 C441 1.327 1_565 S
C442 C446 1.429 . S
C443 C426 1.574 . S
C443 H437 0.949 . S
C443 C447 1.368 . S
C444 C425 1.429 . S
C444 C438 1.429 . S
C444 C445 1.523 . S
C445 C426 1.368 . S
C445 C439 1.368 . S
C445 C444 1.523 . S
C446 C430 1.429 . S
C446 C442 1.429 . S
C446 C447 1.523 . S
C447 C431 1.368 . S
C447 C443 1.368 . S
C447 C446 1.523 . S
H448 C423 0.950 . S
H449 C425 0.950 . S
H450 C426 0.949 . S
H451 C428 0.950 . S
H452 C430 0.950 . S
C453 C454 1.349 . S
C453 C455 1.327 . S
C453 H478 0.950 . S
C454 C453 1.349 . S
C454 C470 1.349 . S
C455 C453 1.327 . S
C455 C474 1.429 . S
C455 H479 0.950 . S
C456 C473 1.574 . S
C456 C475 1.368 . S
C456 H480 0.949 . S
H457 C461 0.949 . S
C458 C459 1.349 . S
C458 C460 1.327 . S
C458 H481 0.950 . S
C459 C458 1.349 . S
C459 C471 1.349 . S
C460 C458 1.327 . S
C460 C476 1.429 . S
C460 H482 0.950 . S
C461 H457 0.949 . S
C461 C469 1.574 . S
C461 C477 1.368 . S
H462 C470 0.950 . S
H463 C468 0.950 . S
H464 C469 0.949 . S
H465 C471 0.950 . S
H466 C472 0.950 . S
H467 C473 0.949 . S
C468 H463 0.950 . S
C468 C470 1.327 . S
C468 C474 1.429 . S
C469 C461 1.574 . S
C469 H464 0.949 . S
C469 C475 1.368 . S
C470 C454 1.349 . S
C470 H462 0.950 . S
C470 C468 1.327 . S
C471 C459 1.349 . S
C471 H465 0.950 . S
C471 C472 1.327 . S
C472 H466 0.950 . S
C472 C471 1.327 . S
C472 C476 1.429 . S
C473 C456 1.574 . S
C473 H467 0.949 . S
C473 C477 1.368 . S
C474 C455 1.429 . S
C474 C468 1.429 . S
C474 C475 1.523 . S
C475 C456 1.368 . S
C475 C469 1.368 . S
C475 C474 1.523 . S
C476 C460 1.429 . S
C476 C472 1.429 . S
C476 C477 1.523 . S
C477 C461 1.368 . S
C477 C473 1.368 . S
C477 C476 1.523 . S
H478 C453 0.950 . S
H479 C455 0.950 . S
H480 C456 0.949 . S
H481 C458 0.950 . S
H482 C460 0.950 . S
C483 C484 1.349 . S
C483 C485 1.327 . S
C483 H508 0.950 . S
C484 C483 1.349 . S
C484 C500 1.349 . S
C485 C483 1.327 . S
C485 C504 1.429 . S
C485 H509 0.950 . S
C486 C503 1.574 . S
C486 C505 1.368 . S
C486 H510 0.949 . S
H487 C491 0.949 . S
C488 C489 1.349 . S
C488 C490 1.327 . S
C488 H511 0.950 . S
C489 C488 1.349 . S
C489 C501 1.349 . S
C490 C488 1.327 . S
C490 C506 1.429 . S
C490 H512 0.950 . S
C491 H487 0.949 . S
C491 C499 1.574 . S
C491 C507 1.368 . S
H492 C500 0.950 . S
H493 C498 0.950 . S
H494 C499 0.949 . S
H495 C501 0.950 . S
H496 C502 0.950 . S
H497 C503 0.949 . S
C498 H493 0.950 . S
C498 C500 1.327 . S
C498 C504 1.429 . S
C499 C491 1.574 . S
C499 H494 0.949 . S
C499 C505 1.368 . S
C500 C484 1.349 . S
C500 H492 0.950 . S
C500 C498 1.327 . S
C501 C489 1.349 . S
C501 H495 0.950 . S
C501 C502 1.327 . S
C502 H496 0.950 . S
C502 C501 1.327 . S
C502 C506 1.429 . S
C503 C486 1.574 . S
C503 H497 0.949 . S
C503 C507 1.368 . S
C504 C485 1.429 . S
C504 C498 1.429 . S
C504 C505 1.523 . S
C505 C486 1.368 . S
C505 C499 1.368 . S
C505 C504 1.523 . S
C506 C490 1.429 . S
C506 C502 1.429 . S
C506 C507 1.523 . S
C507 C491 1.368 . S
C507 C503 1.368 . S
C507 C506 1.523 . S
H508 C483 0.950 . S
H509 C485 0.950 . S
H510 C486 0.949 . S
H511 C488 0.950 . S
H512 C490 0.950 . S
C513 C514 1.349 . S
C513 C515 1.327 . S
C513 H538 0.950 . S
C514 C513 1.349 . S
C514 C530 1.349 . S
C515 C513 1.327 . S
C515 C534 1.429 . S
C515 H539 0.950 . S
C516 C533 1.574 . S
C516 C535 1.368 . S
C516 H540 0.949 . S
H517 C521 0.949 . S
C518 C519 1.349 . S
C518 C520 1.327 . S
C518 H541 0.950 . S
C519 C518 1.349 . S
C519 C531 1.349 . S
C520 C518 1.327 . S
C520 C536 1.429 . S
C520 H542 0.950 . S
C521 H517 0.949 . S
C521 C529 1.574 . S
C521 C537 1.368 . S
H522 C530 0.950 . S
H523 C528 0.950 . S
H524 C529 0.949 . S
H525 C531 0.950 . S
H526 C532 0.950 . S
H527 C533 0.949 . S
C528 H523 0.950 . S
C528 C530 1.327 . S
C528 C534 1.429 . S
C529 C521 1.574 . S
C529 H524 0.949 . S
C529 C535 1.368 . S
C530 C514 1.349 . S
C530 H522 0.950 . S
C530 C528 1.327 . S
C531 C519 1.349 . S
C531 H525 0.950 . S
C531 C532 1.327 . S
C532 H526 0.950 . S
C532 C531 1.327 . S
C532 C536 1.429 . S
C533 C516 1.574 . S
C533 H527 0.949 . S
C533 C537 1.368 . S
C534 C515 1.429 . S
C534 C528 1.429 . S
C534 C535 1.523 . S
C535 C516 1.368 . S
C535 C529 1.368 . S
C535 C534 1.523 . S
C536 C520 1.429 . S
C536 C532 1.429 . S
C536 C537 1.523 . S
C537 C521 1.368 . S
C537 C533 1.368 . S
C537 C536 1.523 . S
H538 C513 0.950 . S
H539 C515 0.950 . S
H540 C516 0.949 . S
H541 C518 0.950 . S
H542 C520 0.950 . S
C543 C544 1.349 . S
C543 C545 1.327 . S
C543 H568 0.950 1_455 S
C544 C543 1.349 . S
C544 C560 1.349 . S
C545 C543 1.327 . S
C545 C564 1.429 . S
C545 H569 0.950 1_455 S
C546 C563 1.574 . S
C546 C565 1.368 . S
C546 H570 0.949 . S
H547 C551 0.949 1_656 S
C548 C549 1.349 . S
C548 C550 1.327 . S
C548 H571 0.950 . S
C549 C548 1.349 . S
C549 C561 1.349 . S
C550 C548 1.327 . S
C550 C566 1.429 . S
C550 H572 0.950 . S
C551 H547 0.949 1_454 S
C551 C559 1.574 . S
C551 C567 1.362 1_554 S
H552 C560 0.950 . S
H553 C558 0.950 . S
H554 C559 0.949 1_655 S
H555 C561 0.950 . S
H556 C562 0.950 . S
H557 C563 0.949 . S
C558 H553 0.950 . S
C558 C560 1.327 . S
C558 C564 1.429 . S
C559 C551 1.574 . S
C559 H554 0.949 1_455 S
C559 C565 1.368 . S
C560 C544 1.349 . S
C560 H552 0.950 . S
C560 C558 1.327 . S
C561 C549 1.349 . S
C561 H555 0.950 . S
C561 C562 1.327 . S
C562 H556 0.950 . S
C562 C561 1.327 . S
C562 C566 1.429 . S
C563 C546 1.574 . S
C563 H557 0.949 . S
C563 C567 1.362 1_554 S
C564 C545 1.429 . S
C564 C558 1.429 . S
C564 C565 1.523 . S
C565 C546 1.368 . S
C565 C559 1.368 . S
C565 C564 1.523 . S
C566 C550 1.429 . S
C566 C562 1.429 . S
C566 C567 1.540 . S
C567 C551 1.362 1_556 S
C567 C563 1.362 1_556 S
C567 C566 1.540 . S
H568 C543 0.950 1_655 S
H569 C545 0.950 1_655 S
H570 C546 0.949 . S
H571 C548 0.950 . S
H572 C550 0.950 . S
C573 C574 1.349 . S
C573 C575 1.327 . S
C573 H598 0.950 . S
C574 C573 1.349 . S
C574 C590 1.349 . S
C575 C573 1.327 . S
C575 C594 1.429 . S
C575 H599 0.950 . S
C576 C593 1.574 . S
C576 C595 1.368 . S
C576 H600 0.949 . S
H577 C581 0.949 . S
C578 C579 1.349 . S
C578 C580 1.327 . S
C578 H601 0.950 . S
C579 C578 1.349 . S
C579 C591 1.349 . S
C580 C578 1.327 . S
C580 C596 1.429 . S
C580 H602 0.950 . S
C581 H577 0.949 . S
C581 C589 1.574 . S
C581 C597 1.368 . S
H582 C590 0.950 . S
H583 C588 0.950 . S
H584 C589 0.949 . S
H585 C591 0.950 . S
H586 C592 0.950 . S
H587 C593 0.949 . S
C588 H583 0.950 . S
C588 C590 1.327 . S
C588 C594 1.429 . S
C589 C581 1.574 . S
C589 H584 0.949 . S
C589 C595 1.368 . S
C590 C574 1.349 . S
C590 H582 0.950 . S
C590 C588 1.327 . S
C591 C579 1.349 . S
C591 H585 0.950 . S
C591 C592 1.327 . S
C592 H586 0.950 . S
C592 C591 1.327 . S
C592 C596 1.429 . S
C593 C576 1.574 . S
C593 H587 0.949 . S
C593 C597 1.368 . S
C594 C575 1.429 . S
C594 C588 1.429 . S
C594 C595 1.523 . S
C595 C576 1.368 . S
C595 C589 1.368 . S
C595 C594 1.523 . S
C596 C580 1.429 . S
C596 C592 1.429 . S
C596 C597 1.523 . S
C597 C581 1.368 . S
C597 C593 1.368 . S
C597 C596 1.523 . S
H598 C573 0.950 . S
H599 C575 0.950 . S
H600 C576 0.949 . S
H601 C578 0.950 . S
H602 C580 0.950 . S
C603 C604 1.349 . S
C603 C605 1.327 . S
C603 H628 0.950 . S
C604 C603 1.349 . S
C604 C620 1.349 . S
C605 C603 1.327 . S
C605 C624 1.429 . S
C605 H629 0.950 . S
C606 C623 1.574 . S
C606 C625 1.368 . S
C606 H630 0.949 . S
H607 C611 0.949 . S
C608 C609 1.349 . S
C608 C610 1.327 . S
C608 H631 0.950 . S
C609 C608 1.349 . S
C609 C621 1.349 . S
C610 C608 1.327 . S
C610 C626 1.429 . S
C610 H632 0.950 . S
C611 H607 0.949 . S
C611 C619 1.574 . S
C611 C627 1.368 . S
H612 C620 0.950 . S
H613 C618 0.950 . S
H614 C619 0.949 . S
H615 C621 0.950 . S
H616 C622 0.950 . S
H617 C623 0.949 . S
C618 H613 0.950 . S
C618 C620 1.327 . S
C618 C624 1.429 . S
C619 C611 1.574 . S
C619 H614 0.949 . S
C619 C625 1.368 . S
C620 C604 1.349 . S
C620 H612 0.950 . S
C620 C618 1.327 . S
C621 C609 1.349 . S
C621 H615 0.950 . S
C621 C622 1.327 . S
C622 H616 0.950 . S
C622 C621 1.327 . S
C622 C626 1.429 . S
C623 C606 1.574 . S
C623 H617 0.949 . S
C623 C627 1.368 . S
C624 C605 1.429 . S
C624 C618 1.429 . S
C624 C625 1.523 . S
C625 C606 1.368 . S
C625 C619 1.368 . S
C625 C624 1.523 . S
C626 C610 1.429 . S
C626 C622 1.429 . S
C626 C627 1.523 . S
C627 C611 1.368 . S
C627 C623 1.368 . S
C627 C626 1.523 . S
H628 C603 0.950 . S
H629 C605 0.950 . S
H630 C606 0.949 . S
H631 C608 0.950 . S
H632 C610 0.950 . S
C633 C634 1.349 . S
C633 C635 1.327 . S
C633 H658 0.950 . S
C634 C633 1.349 . S
C634 C650 1.349 . S
C635 C633 1.327 . S
C635 C654 1.429 . S
C635 H659 0.950 . S
C636 C653 1.574 . S
C636 C655 1.368 . S
C636 H660 0.949 . S
H637 C641 0.949 . S
C638 C639 1.349 . S
C638 C640 1.327 . S
C638 H661 0.950 . S
C639 C638 1.349 . S
C639 C651 1.349 . S
C640 C638 1.327 . S
C640 C656 1.429 . S
C640 H662 0.950 . S
C641 H637 0.949 . S
C641 C649 1.574 . S
C641 C657 1.368 . S
H642 C650 0.950 . S
H643 C648 0.950 . S
H644 C649 0.949 . S
H645 C651 0.950 . S
H646 C652 0.950 . S
H647 C653 0.949 . S
C648 H643 0.950 . S
C648 C650 1.327 . S
C648 C654 1.429 . S
C649 C641 1.574 . S
C649 H644 0.949 . S
C649 C655 1.368 . S
C650 C634 1.349 . S
C650 H642 0.950 . S
C650 C648 1.327 . S
C651 C639 1.349 . S
C651 H645 0.950 . S
C651 C652 1.327 . S
C652 H646 0.950 . S
C652 C651 1.327 . S
C652 C656 1.429 . S
C653 C636 1.574 . S
C653 H647 0.949 . S
C653 C657 1.368 . S
C654 C635 1.429 . S
C654 C648 1.429 . S
C654 C655 1.523 . S
C655 C636 1.368 . S
C655 C649 1.368 . S
C655 C654 1.523 . S
C656 C640 1.429 . S
C656 C652 1.429 . S
C656 C657 1.523 . S
C657 C641 1.368 . S
C657 C653 1.368 . S
C657 C656 1.523 . S
H658 C633 0.950 . S
H659 C635 0.950 . S
H660 C636 0.949 . S
H661 C638 0.950 . S
H662 C640 0.950 . S
C663 C664 1.349 . S
C663 C665 1.327 . S
C663 H688 0.950 . S
C664 C663 1.349 . S
C664 C680 1.349 . S
C665 C663 1.327 . S
C665 C684 1.429 . S
C665 H689 0.950 . S
C666 C683 1.574 . S
C666 C685 1.368 . S
C666 H690 0.949 . S
H667 C671 0.949 . S
C668 C669 1.349 . S
C668 C670 1.327 . S
C668 H691 0.950 . S
C669 C668 1.349 . S
C669 C681 1.349 . S
C670 C668 1.327 . S
C670 C686 1.429 . S
C670 H692 0.950 . S
C671 H667 0.949 . S
C671 C679 1.574 . S
C671 C687 1.382 . S
H672 C680 0.950 . S
H673 C678 0.950 . S
H674 C679 0.949 . S
H675 C681 0.950 . S
H676 C682 0.950 . S
H677 C683 0.949 1_554 S
C678 H673 0.950 . S
C678 C680 1.327 . S
C678 C684 1.429 . S
C679 C671 1.574 . S
C679 H674 0.949 . S
C679 C685 1.368 . S
C680 C664 1.349 . S
C680 H672 0.950 . S
C680 C678 1.327 . S
C681 C669 1.349 . S
C681 H675 0.950 . S
C681 C682 1.327 . S
C682 H676 0.950 . S
C682 C681 1.327 . S
C682 C686 1.429 . S
C683 C666 1.574 . S
C683 H677 0.949 1_556 S
C683 C687 1.376 . S
C684 C665 1.429 . S
C684 C678 1.429 . S
C684 C685 1.523 . S
C685 C666 1.368 . S
C685 C679 1.368 . S
C685 C684 1.523 . S
C686 C670 1.429 . S
C686 C682 1.429 . S
C686 C687 1.496 1_554 S
C687 C671 1.382 . S
C687 C683 1.376 . S
C687 C686 1.496 1_556 S
H688 C663 0.950 . S
H689 C665 0.950 . S
H690 C666 0.949 . S
H691 C668 0.950 . S
H692 C670 0.950 . S
C693 C694 1.349 . S
C693 C695 1.327 . S
C693 H718 0.950 . S
C694 C693 1.349 . S
C694 C710 1.349 . S
C695 C693 1.327 . S
C695 C714 1.429 . S
C695 H719 0.950 . S
C696 C713 1.574 . S
C696 C715 1.368 . S
C696 H720 0.949 . S
H697 C701 0.949 . S
C698 C699 1.349 . S
C698 C700 1.327 . S
C698 H721 0.950 . S
C699 C698 1.349 . S
C699 C711 1.349 . S
C700 C698 1.327 . S
C700 C716 1.429 . S
C700 H722 0.950 . S
C701 H697 0.949 . S
C701 C709 1.574 . S
C701 C717 1.368 . S
H702 C710 0.950 . S
H703 C708 0.950 . S
H704 C709 0.949 . S
H705 C711 0.950 . S
H706 C712 0.950 . S
H707 C713 0.949 . S
C708 H703 0.950 . S
C708 C710 1.327 . S
C708 C714 1.429 . S
C709 C701 1.574 . S
C709 H704 0.949 . S
C709 C715 1.368 . S
C710 C694 1.349 . S
C710 H702 0.950 . S
C710 C708 1.327 . S
C711 C699 1.349 . S
C711 H705 0.950 . S
C711 C712 1.327 . S
C712 H706 0.950 . S
C712 C711 1.327 . S
C712 C716 1.429 . S
C713 C696 1.574 . S
C713 H707 0.949 . S
C713 C717 1.368 . S
C714 C695 1.429 . S
C714 C708 1.429 . S
C714 C715 1.523 . S
C715 C696 1.368 . S
C715 C709 1.368 . S
C715 C714 1.523 . S
C716 C700 1.429 . S
C716 C712 1.429 . S
C716 C717 1.523 . S
C717 C701 1.368 . S
C717 C713 1.368 . S
C717 C716 1.523 . S
H718 C693 0.950 . S
H719 C695 0.950 . S
H720 C696 0.949 . S
H721 C698 0.950 . S
H722 C700 0.950 . S
C184 C20 1.239 . S
C189 C175 1.190 . S
C214 C41 1.249 . S
C219 C137 1.188 . S
C244 C64 1.266 . S
C249 C156 1.208 . S
C274 C19 1.189 . S
C279 C170 1.241 . S
C309 C132 1.194 . S
C304 C44 1.187 . S
C339 C151 1.144 . S
C334 C67 1.141 . S
C364 C43 1.225 . S
C369 C99 1.181 . S
C394 C66 1.090 . S
C399 C113 1.121 1_655 S
C424 C21 1.185 . S
C429 C75 1.193 . S
C459 C94 1.224 . S
C454 C42 1.174 . S
C489 C118 1.207 . S
C484 C65 1.229 . S
C514 C18 1.250 . S
C519 C80 1.189 . S
C549 C109 1.580 . S
C544 C17 1.586 . S
C574 C39 1.594 . S
C579 C71 1.580 . S
C604 C62 1.591 . S
C609 C90 1.577 . S
C639 C147 1.573 . S
C634 C40 1.578 . S
C669 C166 1.565 . S
C664 C63 1.579 . S
C694 C16 1.590 . S
C699 C128 1.575 . S
