# Generated by pormake.
# Topology eea, (3,6)-cn, num edge types: 1
# Building blocks:
#     Node 0, Type 0, BuildingBlock: KAKCAD_clean_linker_0, # of connection points: 3
#     Node 1, Type 0, BuildingBlock: KAKCAD_clean_linker_0, # of connection points: 3
#     Node 2, Type 0, BuildingBlock: KAKCAD_clean_linker_0, # of connection points: 3
#     Node 3, Type 0, BuildingBlock: KAKCAD_clean_linker_0, # of connection points: 3
#     Node 4, Type 0, BuildingBlock: KAKCAD_clean_linker_0, # of connection points: 3
#     Node 5, Type 0, BuildingBlock: KAKCAD_clean_linker_0, # of connection points: 3
#     Node 6, Type 0, BuildingBlock: KAKCAD_clean_linker_0, # of connection points: 3
#     Node 7, Type 0, BuildingBlock: KAKCAD_clean_linker_0, # of connection points: 3
#     Node 8, Type 0, BuildingBlock: KAKCAD_clean_linker_0, # of connection points: 3
#     Node 9, Type 0, BuildingBlock: KAKCAD_clean_linker_0, # of connection points: 3
#     Node 10, Type 0, BuildingBlock: KAKCAD_clean_linker_0, # of connection points: 3
#     Node 11, Type 0, BuildingBlock: KAKCAD_clean_linker_0, # of connection points: 3
#     Node 12, Type 0, BuildingBlock: KAKCAD_clean_linker_0, # of connection points: 3
#     Node 13, Type 0, BuildingBlock: KAKCAD_clean_linker_0, # of connection points: 3
#     Node 14, Type 0, BuildingBlock: KAKCAD_clean_linker_0, # of connection points: 3
#     Node 15, Type 0, BuildingBlock: KAKCAD_clean_linker_0, # of connection points: 3
#     Node 16, Type 0, BuildingBlock: KAKCAD_clean_linker_0, # of connection points: 3
#     Node 17, Type 0, BuildingBlock: KAKCAD_clean_linker_0, # of connection points: 3
#     Node 18, Type 1, BuildingBlock: NUHQIS_clean_sbu_0, # of connection points: 6
#     Node 19, Type 1, BuildingBlock: NUHQIS_clean_sbu_0, # of connection points: 6
#     Node 20, Type 1, BuildingBlock: NUHQIS_clean_sbu_0, # of connection points: 6
#     Node 21, Type 1, BuildingBlock: NUHQIS_clean_sbu_0, # of connection points: 6
#     Node 22, Type 1, BuildingBlock: NUHQIS_clean_sbu_0, # of connection points: 6
#     Node 23, Type 1, BuildingBlock: NUHQIS_clean_sbu_0, # of connection points: 6
#     Node 24, Type 1, BuildingBlock: NUHQIS_clean_sbu_0, # of connection points: 6
#     Node 25, Type 1, BuildingBlock: NUHQIS_clean_sbu_0, # of connection points: 6
#     Node 26, Type 1, BuildingBlock: NUHQIS_clean_sbu_0, # of connection points: 6
#     Edge 27, Type (0, 1), BuildingBlock: UVAHIK_clean_linker_0, # of connection points: 2
#     Edge 28, Type (0, 1), BuildingBlock: UVAHIK_clean_linker_0, # of connection points: 2
#     Edge 29, Type (0, 1), BuildingBlock: UVAHIK_clean_linker_0, # of connection points: 2
#     Edge 30, Type (0, 1), BuildingBlock: UVAHIK_clean_linker_0, # of connection points: 2
#     Edge 31, Type (0, 1), BuildingBlock: UVAHIK_clean_linker_0, # of connection points: 2
#     Edge 32, Type (0, 1), BuildingBlock: UVAHIK_clean_linker_0, # of connection points: 2
#     Edge 33, Type (0, 1), BuildingBlock: UVAHIK_clean_linker_0, # of connection points: 2
#     Edge 34, Type (0, 1), BuildingBlock: UVAHIK_clean_linker_0, # of connection points: 2
#     Edge 35, Type (0, 1), BuildingBlock: UVAHIK_clean_linker_0, # of connection points: 2
#     Edge 36, Type (0, 1), BuildingBlock: UVAHIK_clean_linker_0, # of connection points: 2
#     Edge 37, Type (0, 1), BuildingBlock: UVAHIK_clean_linker_0, # of connection points: 2
#     Edge 38, Type (0, 1), BuildingBlock: UVAHIK_clean_linker_0, # of connection points: 2
#     Edge 39, Type (0, 1), BuildingBlock: UVAHIK_clean_linker_0, # of connection points: 2
#     Edge 40, Type (0, 1), BuildingBlock: UVAHIK_clean_linker_0, # of connection points: 2
#     Edge 41, Type (0, 1), BuildingBlock: UVAHIK_clean_linker_0, # of connection points: 2
#     Edge 42, Type (0, 1), BuildingBlock: UVAHIK_clean_linker_0, # of connection points: 2
#     Edge 43, Type (0, 1), BuildingBlock: UVAHIK_clean_linker_0, # of connection points: 2
#     Edge 44, Type (0, 1), BuildingBlock: UVAHIK_clean_linker_0, # of connection points: 2
#     Edge 45, Type (0, 1), BuildingBlock: UVAHIK_clean_linker_0, # of connection points: 2
#     Edge 46, Type (0, 1), BuildingBlock: UVAHIK_clean_linker_0, # of connection points: 2
#     Edge 47, Type (0, 1), BuildingBlock: UVAHIK_clean_linker_0, # of connection points: 2
#     Edge 48, Type (0, 1), BuildingBlock: UVAHIK_clean_linker_0, # of connection points: 2
#     Edge 49, Type (0, 1), BuildingBlock: UVAHIK_clean_linker_0, # of connection points: 2
#     Edge 50, Type (0, 1), BuildingBlock: UVAHIK_clean_linker_0, # of connection points: 2
#     Edge 51, Type (0, 1), BuildingBlock: UVAHIK_clean_linker_0, # of connection points: 2
#     Edge 52, Type (0, 1), BuildingBlock: UVAHIK_clean_linker_0, # of connection points: 2
#     Edge 53, Type (0, 1), BuildingBlock: UVAHIK_clean_linker_0, # of connection points: 2
#     Edge 54, Type (0, 1), BuildingBlock: UVAHIK_clean_linker_0, # of connection points: 2
#     Edge 55, Type (0, 1), BuildingBlock: UVAHIK_clean_linker_0, # of connection points: 2
#     Edge 56, Type (0, 1), BuildingBlock: UVAHIK_clean_linker_0, # of connection points: 2
#     Edge 57, Type (0, 1), BuildingBlock: UVAHIK_clean_linker_0, # of connection points: 2
#     Edge 58, Type (0, 1), BuildingBlock: UVAHIK_clean_linker_0, # of connection points: 2
#     Edge 59, Type (0, 1), BuildingBlock: UVAHIK_clean_linker_0, # of connection points: 2
#     Edge 60, Type (0, 1), BuildingBlock: UVAHIK_clean_linker_0, # of connection points: 2
#     Edge 61, Type (0, 1), BuildingBlock: UVAHIK_clean_linker_0, # of connection points: 2
#     Edge 62, Type (0, 1), BuildingBlock: UVAHIK_clean_linker_0, # of connection points: 2
#     Edge 63, Type (0, 1), BuildingBlock: UVAHIK_clean_linker_0, # of connection points: 2
#     Edge 64, Type (0, 1), BuildingBlock: UVAHIK_clean_linker_0, # of connection points: 2
#     Edge 65, Type (0, 1), BuildingBlock: UVAHIK_clean_linker_0, # of connection points: 2
#     Edge 66, Type (0, 1), BuildingBlock: UVAHIK_clean_linker_0, # of connection points: 2
#     Edge 67, Type (0, 1), BuildingBlock: UVAHIK_clean_linker_0, # of connection points: 2
#     Edge 68, Type (0, 1), BuildingBlock: UVAHIK_clean_linker_0, # of connection points: 2
#     Edge 69, Type (0, 1), BuildingBlock: UVAHIK_clean_linker_0, # of connection points: 2
#     Edge 70, Type (0, 1), BuildingBlock: UVAHIK_clean_linker_0, # of connection points: 2
#     Edge 71, Type (0, 1), BuildingBlock: UVAHIK_clean_linker_0, # of connection points: 2
#     Edge 72, Type (0, 1), BuildingBlock: UVAHIK_clean_linker_0, # of connection points: 2
#     Edge 73, Type (0, 1), BuildingBlock: UVAHIK_clean_linker_0, # of connection points: 2
#     Edge 74, Type (0, 1), BuildingBlock: UVAHIK_clean_linker_0, # of connection points: 2
#     Edge 75, Type (0, 1), BuildingBlock: UVAHIK_clean_linker_0, # of connection points: 2
#     Edge 76, Type (0, 1), BuildingBlock: UVAHIK_clean_linker_0, # of connection points: 2
#     Edge 77, Type (0, 1), BuildingBlock: UVAHIK_clean_linker_0, # of connection points: 2
#     Edge 78, Type (0, 1), BuildingBlock: UVAHIK_clean_linker_0, # of connection points: 2
#     Edge 79, Type (0, 1), BuildingBlock: UVAHIK_clean_linker_0, # of connection points: 2
#     Edge 80, Type (0, 1), BuildingBlock: UVAHIK_clean_linker_0, # of connection points: 2
# Relax obj value: 0.034
# Max RMSD: 0.134
# Mean RMSD: 0.066
data_MOF--net-eea--node1-NUHQIS_clean_sbu_0--node2-KAKCAD_clean_linker_0--edge1-UVAHIK_clean_linker_0
_symmetry_space_group_name_H-M    P1
_symmetry_Int_Tables_number       1
_symmetry_cell_setting            triclinic
loop_
_symmetry_equiv_pos_as_xyz
'x, y, z'
_cell_length_a     77.789658
_cell_length_b     77.993295
_cell_length_c     108.68708
_cell_angle_alpha  93.657223
_cell_angle_beta   93.480291
_cell_angle_gamma 119.81502
loop_
_atom_site_label
_atom_site_type_symbol
_atom_site_fract_x
_atom_site_fract_y
_atom_site_fract_z
_atom_type_partial_charge
C0 C 0.31018 0.17613 0.46394 0.0
C1 C 0.32263 0.16947 0.46891 0.0
C2 C 0.30426 0.17281 0.45121 0.0
C3 C 0.31078 0.16287 0.44318 0.0
C4 C 0.32383 0.15687 0.44813 0.0
C5 C 0.32962 0.16006 0.46086 0.0
C6 C 0.30306 0.15774 0.42982 0.0
C7 C 0.30015 0.17109 0.42315 0.0
C8 C 0.29138 0.16565 0.41079 0.0
C9 C 0.28607 0.14678 0.40501 0.0
C10 C 0.28899 0.13328 0.41151 0.0
C11 C 0.29744 0.13889 0.42391 0.0
C12 C 0.28224 0.11291 0.40562 0.0
C13 C 0.26404 0.10221 0.39803 0.0
C14 C 0.29361 0.10374 0.40791 0.0
C15 C 0.28674 0.08421 0.40292 0.0
C16 C 0.26846 0.0735 0.39544 0.0
C17 C 0.28654 0.17908 0.40418 0.0
C18 C 0.27887 0.18971 0.41045 0.0
C19 C 0.28855 0.18063 0.39145 0.0
C20 C 0.28257 0.19215 0.38511 0.0
C21 C 0.27464 0.2025 0.39138 0.0
C22 C 0.27306 0.20133 0.40414 0.0
C23 C 0.25727 0.08274 0.39295 0.0
H24 H 0.30439 0.18324 0.46994 0.0
H25 H 0.29398 0.17738 0.44774 0.0
H26 H 0.32941 0.14949 0.44217 0.0
H27 H 0.33948 0.15505 0.46443 0.0
H28 H 0.30467 0.18576 0.4276 0.0
H29 H 0.29882 0.1282 0.42915 0.0
H30 H 0.27919 0.14241 0.39552 0.0
H31 H 0.25472 0.10865 0.39626 0.0
H32 H 0.30784 0.11167 0.41356 0.0
H33 H 0.29578 0.0775 0.40485 0.0
H34 H 0.27674 0.18856 0.42019 0.0
H35 H 0.29467 0.17288 0.38638 0.0
H36 H 0.243 0.07473 0.38735 0.0
H37 H 0.26672 0.2089 0.40918 0.0
H38 H 0.28416 0.19298 0.3753 0.0
C39 C 0.88273 0.18554 0.46598 0.0
C40 C 0.87955 0.17241 0.47499 0.0
C41 C 0.88408 0.18019 0.45368 0.0
C42 C 0.88182 0.16147 0.45019 0.0
C43 C 0.87867 0.14839 0.45921 0.0
C44 C 0.8777 0.15387 0.47152 0.0
C45 C 0.88234 0.15528 0.43713 0.0
C46 C 0.89866 0.16701 0.43072 0.0
C47 C 0.89967 0.16058 0.41852 0.0
C48 C 0.88381 0.14238 0.41274 0.0
C49 C 0.86737 0.13047 0.41905 0.0
C50 C 0.86678 0.13711 0.43125 0.0
C51 C 0.85124 0.11074 0.4131 0.0
C52 C 0.84449 0.10801 0.40043 0.0
C53 C 0.84282 0.09432 0.42 0.0
C54 C 0.82814 0.07564 0.41437 0.0
C55 C 0.82166 0.07287 0.40168 0.0
C56 C 0.91764 0.17232 0.41202 0.0
C57 C 0.92774 0.19323 0.41342 0.0
C58 C 0.92505 0.16262 0.40452 0.0
C59 C 0.94204 0.17352 0.39855 0.0
C60 C 0.9522 0.19437 0.40005 0.0
C61 C 0.94491 0.20414 0.40755 0.0
C62 C 0.82992 0.08925 0.39478 0.0
H63 H 0.88426 0.19994 0.46846 0.0
H64 H 0.88646 0.19048 0.44686 0.0
H65 H 0.87699 0.13391 0.45674 0.0
H66 H 0.87509 0.14343 0.47828 0.0
H67 H 0.91094 0.18072 0.43545 0.0
H68 H 0.8541 0.12822 0.4362 0.0
H69 H 0.88443 0.13728 0.40337 0.0
H70 H 0.85041 0.12038 0.39489 0.0
H71 H 0.84791 0.09577 0.42971 0.0
H72 H 0.82225 0.06321 0.41988 0.0
H73 H 0.92233 0.2012 0.41898 0.0
H74 H 0.91799 0.14657 0.40345 0.0
H75 H 0.82503 0.08758 0.38501 0.0
H76 H 0.95238 0.22022 0.40878 0.0
H77 H 0.94752 0.16561 0.39298 0.0
C78 C 0.89081 0.73744 0.47548 0.0
C79 C 0.87124 0.72381 0.47773 0.0
C80 C 0.89463 0.74546 0.46414 0.0
C81 C 0.879 0.73993 0.45473 0.0
C82 C 0.8595 0.72587 0.4569 0.0
C83 C 0.85566 0.71798 0.46827 0.0
C84 C 0.88288 0.7493 0.4429 0.0
C85 C 0.90016 0.75357 0.4372 0.0
C86 C 0.90411 0.76294 0.42623 0.0
C87 C 0.89057 0.76814 0.42102 0.0
C88 C 0.87315 0.76376 0.42647 0.0
C89 C 0.8694 0.75435 0.43737 0.0
C90 C 0.85884 0.76902 0.42076 0.0
C91 C 0.86537 0.78844 0.4178 0.0
C92 C 0.83858 0.75457 0.41813 0.0
C93 C 0.82514 0.75939 0.41247 0.0
C94 C 0.83165 0.77884 0.40956 0.0
C95 C 0.92229 0.76726 0.42013 0.0
C96 C 0.94077 0.77451 0.42719 0.0
C97 C 0.92132 0.76444 0.40714 0.0
C98 C 0.93843 0.76905 0.40134 0.0
C99 C 0.95696 0.77653 0.40838 0.0
C100 C 0.9579 0.77908 0.42138 0.0
C101 C 0.85186 0.79336 0.41236 0.0
H102 H 0.9031 0.74237 0.48264 0.0
H103 H 0.90979 0.75644 0.46288 0.0
H104 H 0.84713 0.72093 0.4498 0.0
H105 H 0.84047 0.70726 0.46965 0.0
H106 H 0.91033 0.74919 0.44115 0.0
H107 H 0.8562 0.75152 0.44173 0.0
H108 H 0.89351 0.77558 0.41266 0.0
H109 H 0.88091 0.79985 0.41979 0.0
H110 H 0.83322 0.73947 0.42028 0.0
H111 H 0.80961 0.74796 0.41046 0.0
H112 H 0.9421 0.77709 0.4372 0.0
H113 H 0.90727 0.75851 0.40142 0.0
H114 H 0.85725 0.80843 0.41014 0.0
H115 H 0.97198 0.78502 0.42707 0.0
H116 H 0.93711 0.76655 0.39132 0.0
C117 C 0.12734 0.25398 0.52957 0.0
C118 C 0.12449 0.26992 0.52713 0.0
C119 C 0.12401 0.24651 0.54108 0.0
C120 C 0.11759 0.25469 0.55038 0.0
C121 C 0.1144 0.27042 0.54789 0.0
C122 C 0.11793 0.27804 0.53641 0.0
C123 C 0.11472 0.24709 0.56273 0.0
C124 C 0.12917 0.24378 0.56871 0.0
C125 C 0.12668 0.23634 0.5803 0.0
C126 C 0.10944 0.23229 0.58593 0.0
C127 C 0.0947 0.2354 0.58011 0.0
C128 C 0.09757 0.24294 0.5685 0.0
C129 C 0.07622 0.23043 0.58608 0.0
C130 C 0.06721 0.2136 0.59261 0.0
C131 C 0.06751 0.24247 0.58541 0.0
C132 C 0.05034 0.23785 0.59118 0.0
C133 C 0.04159 0.22121 0.59785 0.0
C134 C 0.14193 0.23254 0.58643 0.0
C135 C 0.15121 0.22428 0.57944 0.0
C136 C 0.14719 0.23691 0.59933 0.0
C137 C 0.1612 0.23292 0.6051 0.0
C138 C 0.17039 0.2246 0.5981 0.0
C139 C 0.16531 0.22042 0.5852 0.0
C140 C 0.05019 0.20913 0.59848 0.0
H141 H 0.13254 0.24752 0.52266 0.0
H142 H 0.12644 0.23427 0.54269 0.0
H143 H 0.10956 0.27708 0.55491 0.0
H144 H 0.11546 0.29023 0.53476 0.0
H145 H 0.14261 0.24739 0.5644 0.0
H146 H 0.08617 0.24499 0.56375 0.0
H147 H 0.10744 0.22656 0.59487 0.0
H148 H 0.07316 0.20369 0.5931 0.0
H149 H 0.07416 0.25568 0.58061 0.0
H150 H 0.04412 0.24754 0.59063 0.0
H151 H 0.1473 0.22042 0.56952 0.0
H152 H 0.14062 0.24359 0.60498 0.0
H153 H 0.04359 0.19602 0.60338 0.0
H154 H 0.17193 0.21375 0.57957 0.0
H155 H 0.16501 0.23657 0.61503 0.0
C156 C 0.67047 0.81141 0.5459 0.0
C157 C 0.68094 0.82654 0.53836 0.0
C158 C 0.67521 0.81496 0.55879 0.0
C159 C 0.6902 0.83378 0.5643 0.0
C160 C 0.70046 0.8489 0.55673 0.0
C161 C 0.69592 0.8453 0.5439 0.0
C162 C 0.69585 0.83779 0.57787 0.0
C163 C 0.70042 0.82521 0.58421 0.0
C164 C 0.70885 0.83071 0.59661 0.0
C165 C 0.71224 0.8487 0.60275 0.0
C166 C 0.7073 0.86123 0.59661 0.0
C167 C 0.69883 0.85545 0.58421 0.0
C168 C 0.71236 0.88098 0.60278 0.0
C169 C 0.71052 0.88359 0.61547 0.0
C170 C 0.7197 0.8976 0.59603 0.0
C171 C 0.725 0.9163 0.60179 0.0
C172 C 0.72337 0.91891 0.61447 0.0
C173 C 0.71592 0.81865 0.60277 0.0
C174 C 0.70336 0.7981 0.6028 0.0
C175 C 0.73563 0.82766 0.60829 0.0
C176 C 0.74276 0.8163 0.61362 0.0
C177 C 0.73026 0.79568 0.61372 0.0
C178 C 0.7104 0.78674 0.60831 0.0
C179 C 0.7161 0.90242 0.62128 0.0
H180 H 0.65888 0.79681 0.54182 0.0
H181 H 0.66712 0.80307 0.56445 0.0
H182 H 0.71226 0.86347 0.56072 0.0
H183 H 0.70407 0.85727 0.53831 0.0
H184 H 0.69868 0.81182 0.57927 0.0
H185 H 0.69489 0.86491 0.57933 0.0
H186 H 0.71935 0.85319 0.61219 0.0
H187 H 0.70472 0.8711 0.62092 0.0
H188 H 0.72183 0.89632 0.58634 0.0
H189 H 0.7309 0.92885 0.59638 0.0
H190 H 0.68806 0.79086 0.59863 0.0
H191 H 0.7457 0.84345 0.60819 0.0
H192 H 0.71462 0.90407 0.63107 0.0
H193 H 0.70025 0.77097 0.60838 0.0
H194 H 0.75825 0.82368 0.61741 0.0
C195 C 0.11361 0.82673 0.5342 0.0
C196 C 0.1329 0.83212 0.53127 0.0
C197 C 0.11041 0.83077 0.54632 0.0
C198 C 0.12643 0.8402 0.55573 0.0
C199 C 0.14552 0.84467 0.55288 0.0
C200 C 0.14872 0.84075 0.54079 0.0
C201 C 0.12366 0.84656 0.56828 0.0
C202 C 0.10694 0.83424 0.57426 0.0
C203 C 0.10441 0.84059 0.58608 0.0
C204 C 0.11889 0.85944 0.59189 0.0
C205 C 0.13559 0.872 0.58602 0.0
C206 C 0.13776 0.86544 0.5742 0.0
C207 C 0.15057 0.89217 0.59203 0.0
C208 C 0.14457 0.90399 0.5987 0.0
C209 C 0.17099 0.89992 0.59092 0.0
C210 C 0.18501 0.91912 0.59618 0.0
C211 C 0.17895 0.93091 0.60278 0.0
C212 C 0.08648 0.82788 0.5923 0.0
C213 C 0.06749 0.81761 0.58557 0.0
C214 C 0.08811 0.82662 0.60513 0.0
C215 C 0.07113 0.81576 0.61113 0.0
C216 C 0.05212 0.80581 0.60445 0.0
C217 C 0.0505 0.80668 0.59157 0.0
C218 C 0.15862 0.92312 0.60407 0.0
H219 H 0.10115 0.82014 0.52703 0.0
H220 H 0.09555 0.82725 0.5482 0.0
H221 H 0.1581 0.85153 0.55997 0.0
H222 H 0.16368 0.8447 0.53885 0.0
H223 H 0.09608 0.81958 0.5698 0.0
H224 H 0.1502 0.87534 0.5694 0.0
H225 H 0.11702 0.86444 0.60098 0.0
H226 H 0.12896 0.89866 0.59956 0.0
H227 H 0.17618 0.8911 0.58605 0.0
H228 H 0.20063 0.92469 0.59519 0.0
H229 H 0.06569 0.81848 0.57571 0.0
H230 H 0.10255 0.83406 0.61055 0.0
H231 H 0.15354 0.932 0.60901 0.0
H232 H 0.03604 0.79934 0.58618 0.0
H233 H 0.07289 0.81507 0.62102 0.0
C234 C 0.97935 0.5092 0.79602 0.0
C235 C 0.9918 0.50242 0.80082 0.0
C236 C 0.97294 0.50567 0.78336 0.0
C237 C 0.97895 0.49542 0.77519 0.0
C238 C 0.99197 0.48923 0.77996 0.0
C239 C 0.99825 0.49263 0.79265 0.0
C240 C 0.97058 0.49008 0.76194 0.0
C241 C 0.96707 0.50327 0.75545 0.0
C242 C 0.95707 0.49745 0.74339 0.0
C243 C 0.95094 0.47831 0.73774 0.0
C244 C 0.95474 0.46516 0.74397 0.0
C245 C 0.96463 0.47113 0.75601 0.0
C246 C 0.94716 0.44467 0.73824 0.0
C247 C 0.92692 0.43264 0.73384 0.0
C248 C 0.95994 0.43687 0.73742 0.0
C249 C 0.95258 0.41731 0.73224 0.0
C250 C 0.93225 0.40518 0.72805 0.0
C251 C 0.95192 0.51082 0.73698 0.0
C252 C 0.94508 0.52195 0.74357 0.0
C253 C 0.95291 0.51187 0.72415 0.0
C254 C 0.94679 0.52345 0.71802 0.0
C255 C 0.93967 0.53431 0.7246 0.0
C256 C 0.93908 0.5336 0.73746 0.0
C257 C 0.9195 0.413 0.72888 0.0
H258 H 0.97393 0.51656 0.80212 0.0
H259 H 0.96264 0.51033 0.78008 0.0
H260 H 0.99714 0.48158 0.7739 0.0
H261 H 0.00806 0.48747 0.79608 0.0
H262 H 0.97203 0.51808 0.75983 0.0
H263 H 0.96667 0.46055 0.76098 0.0
H264 H 0.94277 0.4734 0.72857 0.0
H265 H 0.91678 0.43831 0.73446 0.0
H266 H 0.97561 0.44593 0.74076 0.0
H267 H 0.96265 0.41153 0.73173 0.0
H268 H 0.94377 0.52119 0.75341 0.0
H269 H 0.95838 0.50371 0.71883 0.0
H270 H 0.90379 0.40392 0.72564 0.0
H271 H 0.93339 0.54158 0.74275 0.0
H272 H 0.94764 0.52393 0.70812 0.0
C273 C 0.5504 0.51953 0.7988 0.0
C274 C 0.5475 0.5065 0.80783 0.0
C275 C 0.55175 0.51422 0.7865 0.0
C276 C 0.54977 0.49561 0.78302 0.0
C277 C 0.54691 0.48263 0.79207 0.0
C278 C 0.54595 0.48809 0.80437 0.0
C279 C 0.55021 0.48941 0.76996 0.0
C280 C 0.56644 0.50116 0.76349 0.0
C281 C 0.56738 0.4947 0.75129 0.0
C282 C 0.55154 0.47645 0.74556 0.0
C283 C 0.53518 0.46451 0.75193 0.0
C284 C 0.53466 0.4712 0.76413 0.0
C285 C 0.51907 0.44474 0.74604 0.0
C286 C 0.51219 0.4419 0.73339 0.0
C287 C 0.51076 0.42838 0.753 0.0
C288 C 0.49604 0.40966 0.74744 0.0
C289 C 0.48941 0.40679 0.73478 0.0
C290 C 0.58528 0.50646 0.74474 0.0
C291 C 0.59532 0.52737 0.74612 0.0
C292 C 0.59273 0.4968 0.73724 0.0
C293 C 0.60971 0.50772 0.73126 0.0
C294 C 0.61982 0.52858 0.73276 0.0
C295 C 0.61247 0.53831 0.74024 0.0
C296 C 0.49758 0.4231 0.72781 0.0
H297 H 0.55168 0.53383 0.80127 0.0
H298 H 0.55391 0.52442 0.77965 0.0
H299 H 0.54544 0.46824 0.7896 0.0
H300 H 0.54355 0.47772 0.81115 0.0
H301 H 0.57871 0.5149 0.76819 0.0
H302 H 0.52204 0.4623 0.76912 0.0
H303 H 0.55211 0.47131 0.73618 0.0
H304 H 0.51802 0.45421 0.7278 0.0
H305 H 0.51595 0.42991 0.76269 0.0
H306 H 0.49023 0.39729 0.753 0.0
H307 H 0.58987 0.53531 0.75167 0.0
H308 H 0.58572 0.48075 0.73618 0.0
H309 H 0.49258 0.42134 0.71805 0.0
H310 H 0.6199 0.55439 0.74146 0.0
H311 H 0.61523 0.49984 0.7257 0.0
C312 C 0.55551 0.06513 0.80848 0.0
C313 C 0.5358 0.05189 0.81068 0.0
C314 C 0.55959 0.07367 0.79731 0.0
C315 C 0.54406 0.06907 0.78803 0.0
C316 C 0.5244 0.05531 0.7901 0.0
C317 C 0.52032 0.04691 0.8013 0.0
C318 C 0.54826 0.0793 0.77652 0.0
C319 C 0.56545 0.08356 0.7707 0.0
C320 C 0.57006 0.09425 0.76024 0.0
C321 C 0.55705 0.10057 0.75563 0.0
C322 C 0.5395 0.09582 0.76103 0.0
C323 C 0.53526 0.0853 0.77147 0.0
C324 C 0.52539 0.10156 0.7556 0.0
C325 C 0.53208 0.12124 0.75313 0.0
C326 C 0.50518 0.0872 0.75258 0.0
C327 C 0.49196 0.09234 0.74697 0.0
C328 C 0.49864 0.11201 0.74449 0.0
C329 C 0.5883 0.09873 0.75405 0.0
C330 C 0.60596 0.10252 0.76096 0.0
C331 C 0.58826 0.09946 0.74114 0.0
C332 C 0.60543 0.10428 0.73536 0.0
C333 C 0.6231 0.10804 0.74225 0.0
C334 C 0.62303 0.1069 0.75513 0.0
C335 C 0.51877 0.12646 0.74773 0.0
H336 H 0.56774 0.06941 0.81558 0.0
H337 H 0.57488 0.08439 0.79614 0.0
H338 H 0.5121 0.05108 0.78307 0.0
H339 H 0.50501 0.03651 0.80264 0.0
H340 H 0.575 0.07817 0.77421 0.0
H341 H 0.52204 0.08232 0.77586 0.0
H342 H 0.5604 0.10909 0.74774 0.0
H343 H 0.54758 0.13258 0.75542 0.0
H344 H 0.4997 0.07191 0.75433 0.0
H345 H 0.47649 0.08096 0.74462 0.0
H346 H 0.60676 0.10236 0.77092 0.0
H347 H 0.57492 0.09624 0.7354 0.0
H348 H 0.5243 0.1417 0.74585 0.0
H349 H 0.63613 0.10931 0.76078 0.0
H350 H 0.60481 0.10529 0.72548 0.0
C351 C 0.79445 0.58954 0.8626 0.0
C352 C 0.79245 0.60609 0.8605 0.0
C353 C 0.79078 0.58165 0.87396 0.0
C354 C 0.78488 0.59001 0.88348 0.0
C355 C 0.78267 0.60644 0.88136 0.0
C356 C 0.78655 0.61449 0.87001 0.0
C357 C 0.7812 0.58157 0.89557 0.0
C358 C 0.79464 0.57666 0.90129 0.0
C359 C 0.79104 0.56786 0.91244 0.0
C360 C 0.77359 0.56381 0.9178 0.0
C361 C 0.76007 0.56877 0.91228 0.0
C362 C 0.76408 0.57788 0.90124 0.0
C363 C 0.74149 0.56387 0.91792 0.0
C364 C 0.72896 0.54451 0.92092 0.0
C365 C 0.7363 0.5785 0.9205 0.0
C366 C 0.71906 0.57391 0.9262 0.0
C367 C 0.70651 0.55452 0.92916 0.0
C368 C 0.80548 0.56289 0.91846 0.0
C369 C 0.8146 0.55465 0.91131 0.0
C370 C 0.81037 0.56648 0.93139 0.0
C371 C 0.82409 0.562 0.93703 0.0
C372 C 0.83325 0.5538 0.92987 0.0
C373 C 0.82832 0.55017 0.91694 0.0
C374 C 0.71156 0.53984 0.92638 0.0
H375 H 0.79915 0.58285 0.8555 0.0
H376 H 0.79243 0.56886 0.87527 0.0
H377 H 0.77824 0.61325 0.88855 0.0
H378 H 0.78476 0.62716 0.86863 0.0
H379 H 0.80816 0.58006 0.89714 0.0
H380 H 0.75348 0.58135 0.89683 0.0
H381 H 0.77043 0.55669 0.92628 0.0
H382 H 0.73259 0.53295 0.91895 0.0
H383 H 0.74577 0.59355 0.91832 0.0
H384 H 0.71544 0.58546 0.92819 0.0
H385 H 0.81103 0.5515 0.90134 0.0
H386 H 0.80378 0.573 0.93716 0.0
H387 H 0.7022 0.52481 0.92864 0.0
H388 H 0.83524 0.54406 0.91114 0.0
H389 H 0.82737 0.56479 0.94702 0.0
C390 C 0.3398 0.14763 0.87979 0.0
C391 C 0.34949 0.1635 0.87261 0.0
C392 C 0.34426 0.1506 0.89269 0.0
C393 C 0.35821 0.16956 0.8986 0.0
C394 C 0.3677 0.18541 0.8914 0.0
C395 C 0.36344 0.1824 0.87855 0.0
C396 C 0.36348 0.17295 0.91219 0.0
C397 C 0.36891 0.16071 0.91822 0.0
C398 C 0.37641 0.16541 0.93082 0.0
C399 C 0.37818 0.18245 0.93739 0.0
C400 C 0.37274 0.19483 0.93148 0.0
C401 C 0.36499 0.18965 0.91894 0.0
C402 C 0.37674 0.21401 0.93804 0.0
C403 C 0.3746 0.21583 0.95075 0.0
C404 C 0.3836 0.23098 0.93164 0.0
C405 C 0.38819 0.24923 0.93775 0.0
C406 C 0.38636 0.25108 0.95045 0.0
C407 C 0.38397 0.15347 0.93677 0.0
C408 C 0.3737 0.13265 0.93433 0.0
C409 C 0.40204 0.16294 0.94453 0.0
C410 C 0.40981 0.15188 0.94956 0.0
C411 C 0.39978 0.1311 0.9469 0.0
C412 C 0.38152 0.12158 0.93933 0.0
C413 C 0.37953 0.23425 0.95693 0.0
H414 H 0.32904 0.1329 0.87541 0.0
H415 H 0.33675 0.13815 0.89805 0.0
H416 H 0.3787 0.20013 0.8957 0.0
H417 H 0.37097 0.19493 0.87324 0.0
H418 H 0.36842 0.14822 0.91289 0.0
H419 H 0.36046 0.19887 0.91428 0.0
H420 H 0.38444 0.1864 0.947 0.0
H421 H 0.36914 0.20305 0.95595 0.0
H422 H 0.38601 0.23038 0.92195 0.0
H423 H 0.39378 0.26208 0.9326 0.0
H424 H 0.35966 0.1249 0.92847 0.0
H425 H 0.4105 0.17897 0.94647 0.0
H426 H 0.37796 0.23535 0.96674 0.0
H427 H 0.37349 0.1056 0.93701 0.0
H428 H 0.42377 0.15966 0.9555 0.0
C429 C 0.78191 0.15952 0.86884 0.0
C430 C 0.80132 0.16504 0.86614 0.0
C431 C 0.77837 0.16356 0.88086 0.0
C432 C 0.79417 0.1731 0.89041 0.0
C433 C 0.81339 0.17765 0.8878 0.0
C434 C 0.81693 0.17375 0.8758 0.0
C435 C 0.79098 0.17969 0.90278 0.0
C436 C 0.77375 0.16768 0.90846 0.0
C437 C 0.77043 0.17453 0.91988 0.0
C438 C 0.78449 0.19364 0.92552 0.0
C439 C 0.80179 0.20567 0.92002 0.0
C440 C 0.80497 0.19861 0.90872 0.0
C441 C 0.81631 0.22593 0.92584 0.0
C442 C 0.80997 0.23943 0.92919 0.0
C443 C 0.83666 0.23207 0.92775 0.0
C444 C 0.85047 0.25141 0.9329 0.0
C445 C 0.84418 0.26503 0.93601 0.0
C446 C 0.7522 0.16199 0.92588 0.0
C447 C 0.73349 0.15109 0.91885 0.0
C448 C 0.75331 0.16135 0.9388 0.0
C449 C 0.7361 0.15038 0.94457 0.0
C450 C 0.71736 0.13975 0.93757 0.0
C451 C 0.71626 0.14008 0.92463 0.0
C452 C 0.82382 0.25887 0.93413 0.0
H453 H 0.76962 0.15289 0.86156 0.0
H454 H 0.76343 0.16002 0.88252 0.0
H455 H 0.82581 0.1846 0.895 0.0
H456 H 0.83198 0.17782 0.87402 0.0
H457 H 0.76307 0.15291 0.90408 0.0
H458 H 0.81804 0.20827 0.90431 0.0
H459 H 0.78196 0.19929 0.93418 0.0
H460 H 0.79436 0.23504 0.92772 0.0
H461 H 0.84186 0.22187 0.92527 0.0
H462 H 0.86611 0.25587 0.93421 0.0
H463 H 0.7321 0.15148 0.90891 0.0
H464 H 0.76753 0.16929 0.94446 0.0
H465 H 0.81863 0.2691 0.93653 0.0
H466 H 0.70202 0.1322 0.919 0.0
H467 H 0.73749 0.15013 0.95453 0.0
C468 C 0.64147 0.83898 0.12939 0.0
C469 C 0.65393 0.83236 0.1344 0.0
C470 C 0.63594 0.83603 0.11662 0.0
C471 C 0.64288 0.82652 0.10857 0.0
C472 C 0.65579 0.82039 0.11359 0.0
C473 C 0.66119 0.8232 0.12636 0.0
C474 C 0.63589 0.82218 0.0951 0.0
C475 C 0.63314 0.83589 0.08872 0.0
C476 C 0.62498 0.8312 0.07625 0.0
C477 C 0.62021 0.81278 0.07003 0.0
C478 C 0.62303 0.79893 0.0762 0.0
C479 C 0.63082 0.80376 0.08874 0.0
C480 C 0.61679 0.77898 0.06981 0.0
C481 C 0.59895 0.76858 0.06184 0.0
C482 C 0.62824 0.76987 0.07197 0.0
C483 C 0.62178 0.75066 0.06651 0.0
C484 C 0.60382 0.74021 0.05869 0.0
C485 C 0.62013 0.8449 0.06997 0.0
C486 C 0.61192 0.85483 0.07642 0.0
C487 C 0.62265 0.84736 0.05736 0.0
C488 C 0.61662 0.85907 0.0513 0.0
C489 C 0.60813 0.86871 0.05774 0.0
C490 C 0.60607 0.86665 0.07039 0.0
C491 C 0.59259 0.74945 0.0563 0.0
H492 H 0.63545 0.84587 0.13537 0.0
H493 H 0.6257 0.84063 0.11312 0.0
H494 H 0.66167 0.81332 0.10763 0.0
H495 H 0.67103 0.8182 0.12997 0.0
H496 H 0.6373 0.85025 0.0935 0.0
H497 H 0.63209 0.79277 0.09372 0.0
H498 H 0.61382 0.80898 0.06044 0.0
H499 H 0.58957 0.77497 0.06015 0.0
H500 H 0.6422 0.77758 0.0779 0.0
H501 H 0.63084 0.74396 0.06839 0.0
H502 H 0.60939 0.85297 0.08606 0.0
H503 H 0.62919 0.84016 0.05216 0.0
H504 H 0.57855 0.74163 0.05045 0.0
H505 H 0.5993 0.87367 0.07554 0.0
H506 H 0.61858 0.86059 0.04157 0.0
C507 C 0.21614 0.8498 0.13261 0.0
C508 C 0.2116 0.83556 0.14104 0.0
C509 C 0.21786 0.84535 0.12021 0.0
C510 C 0.2147 0.82649 0.11604 0.0
C511 C 0.21044 0.8124 0.12452 0.0
C512 C 0.20901 0.81692 0.1369 0.0
C513 C 0.21506 0.82104 0.1028 0.0
C514 C 0.23142 0.83291 0.09646 0.0
C515 C 0.23219 0.82698 0.08409 0.0
C516 C 0.2161 0.80911 0.07809 0.0
C517 C 0.19964 0.79707 0.08435 0.0
C518 C 0.19922 0.80331 0.09667 0.0
C519 C 0.18328 0.77758 0.07826 0.0
C520 C 0.17628 0.77524 0.06568 0.0
C521 C 0.17473 0.76101 0.08503 0.0
C522 C 0.15956 0.7426 0.07939 0.0
C523 C 0.15268 0.74023 0.06681 0.0
C524 C 0.25017 0.83886 0.07765 0.0
C525 C 0.26053 0.85977 0.07942 0.0
C526 C 0.25739 0.82932 0.06984 0.0
C527 C 0.27445 0.84036 0.06396 0.0
C528 C 0.28488 0.86121 0.06585 0.0
C529 C 0.27775 0.87082 0.07363 0.0
C530 C 0.16119 0.75672 0.06 0.0
H531 H 0.21829 0.86432 0.1356 0.0
H532 H 0.22111 0.85643 0.11382 0.0
H533 H 0.20808 0.79779 0.12154 0.0
H534 H 0.20531 0.8056 0.14317 0.0
H535 H 0.2439 0.84629 0.10137 0.0
H536 H 0.18646 0.79436 0.10154 0.0
H537 H 0.21657 0.80434 0.0686 0.0
H538 H 0.18234 0.78773 0.06023 0.0
H539 H 0.18003 0.76213 0.09466 0.0
H540 H 0.15352 0.73007 0.08481 0.0
H541 H 0.25527 0.86763 0.08523 0.0
H542 H 0.25011 0.81326 0.06846 0.0
H543 H 0.15605 0.75533 0.0503 0.0
H544 H 0.28541 0.8869 0.07516 0.0
H545 H 0.27979 0.83255 0.05817 0.0
C546 C 0.22362 0.40261 0.14232 0.0
C547 C 0.20393 0.39 0.14484 0.0
C548 C 0.22752 0.41061 0.13097 0.0
C549 C 0.21182 0.40608 0.12184 0.0
C550 C 0.19215 0.39305 0.12427 0.0
C551 C 0.18826 0.38518 0.13565 0.0
C552 C 0.21585 0.41538 0.10999 0.0
C553 C 0.23239 0.41821 0.10391 0.0
C554 C 0.2366 0.42757 0.09292 0.0
C555 C 0.22367 0.43373 0.08795 0.0
C556 C 0.20683 0.43068 0.09372 0.0
C557 C 0.20322 0.42173 0.10482 0.0
C558 C 0.19287 0.43664 0.0881 0.0
C559 C 0.20006 0.45428 0.08238 0.0
C560 C 0.17217 0.42449 0.08822 0.0
C561 C 0.159 0.42975 0.08269 0.0
C562 C 0.16616 0.44724 0.07681 0.0
C563 C 0.25456 0.43115 0.0867 0.0
C564 C 0.27243 0.43572 0.09369 0.0
C565 C 0.25419 0.43058 0.07371 0.0
C566 C 0.2713 0.43509 0.06792 0.0
C567 C 0.28923 0.43983 0.07491 0.0
C568 C 0.28943 0.43979 0.08788 0.0
C569 C 0.18687 0.45947 0.07676 0.0
H570 H 0.236 0.40676 0.14927 0.0
H571 H 0.24283 0.42078 0.1295 0.0
H572 H 0.17971 0.38888 0.11738 0.0
H573 H 0.17294 0.37524 0.13723 0.0
H574 H 0.24177 0.41276 0.10763 0.0
H575 H 0.19077 0.42013 0.1096 0.0
H576 H 0.22667 0.44094 0.07952 0.0
H577 H 0.2159 0.46416 0.08225 0.0
H578 H 0.16606 0.41068 0.09241 0.0
H579 H 0.14318 0.42011 0.08309 0.0
H580 H 0.27349 0.43654 0.10371 0.0
H581 H 0.24068 0.4267 0.06792 0.0
H582 H 0.19296 0.47294 0.07221 0.0
H583 H 0.30274 0.44292 0.09362 0.0
H584 H 0.27044 0.43519 0.05796 0.0
C585 C 0.46188 0.9235 0.19611 0.0
C586 C 0.45989 0.94003 0.19396 0.0
C587 C 0.45816 0.91565 0.20749 0.0
C588 C 0.45222 0.92404 0.21696 0.0
C589 C 0.45003 0.94047 0.21479 0.0
C590 C 0.45396 0.94847 0.20343 0.0
C591 C 0.44845 0.91562 0.22905 0.0
C592 C 0.4618 0.91063 0.2348 0.0
C593 C 0.45806 0.90171 0.24592 0.0
C594 C 0.44057 0.89769 0.25123 0.0
C595 C 0.42719 0.90282 0.2457 0.0
C596 C 0.43132 0.91199 0.23469 0.0
C597 C 0.40864 0.89809 0.25133 0.0
C598 C 0.39594 0.87876 0.2543 0.0
C599 C 0.40368 0.91288 0.25396 0.0
C600 C 0.38649 0.90846 0.25966 0.0
C601 C 0.37376 0.88909 0.26259 0.0
C602 C 0.47241 0.89661 0.25195 0.0
C603 C 0.48191 0.88881 0.24478 0.0
C604 C 0.47684 0.89964 0.26492 0.0
C605 C 0.49043 0.895 0.27057 0.0
C606 C 0.49999 0.88731 0.26338 0.0
C607 C 0.49557 0.88427 0.25043 0.0
C608 C 0.37858 0.87426 0.25977 0.0
H609 H 0.46661 0.91678 0.18905 0.0
H610 H 0.45978 0.90286 0.20883 0.0
H611 H 0.44557 0.94731 0.22195 0.0
H612 H 0.45217 0.96114 0.202 0.0
H613 H 0.47535 0.91404 0.23069 0.0
H614 H 0.4208 0.91556 0.23026 0.0
H615 H 0.43728 0.89048 0.25967 0.0
H616 H 0.39939 0.86708 0.2523 0.0
H617 H 0.41329 0.92791 0.2518 0.0
H618 H 0.38305 0.92014 0.26169 0.0
H619 H 0.4786 0.88596 0.23479 0.0
H620 H 0.47007 0.90592 0.27072 0.0
H621 H 0.36908 0.85924 0.262 0.0
H622 H 0.50247 0.87809 0.24465 0.0
H623 H 0.49372 0.89776 0.28056 0.0
C624 C 0.00455 0.476 0.21143 0.0
C625 C 0.01536 0.49003 0.20334 0.0
C626 C 0.00977 0.48056 0.22426 0.0
C627 C 0.0256 0.49935 0.22917 0.0
C628 C 0.03618 0.51341 0.22105 0.0
C629 C 0.03117 0.50877 0.20828 0.0
C630 C 0.03177 0.50434 0.24267 0.0
C631 C 0.03567 0.49174 0.24948 0.0
C632 C 0.04442 0.49786 0.2618 0.0
C633 C 0.04873 0.51649 0.26741 0.0
C634 C 0.04449 0.52909 0.2608 0.0
C635 C 0.0358 0.52275 0.24846 0.0
C636 C 0.0504 0.54938 0.26646 0.0
C637 C 0.04857 0.55288 0.27905 0.0
C638 C 0.05854 0.56556 0.25936 0.0
C639 C 0.0647 0.58474 0.26469 0.0
C640 C 0.06309 0.58824 0.27728 0.0
C641 C 0.05086 0.48567 0.2684 0.0
C642 C 0.03776 0.4653 0.26881 0.0
C643 C 0.07054 0.49431 0.27393 0.0
C644 C 0.07712 0.48277 0.2796 0.0
C645 C 0.0641 0.46232 0.28003 0.0
C646 C 0.04427 0.45376 0.27466 0.0
C647 C 0.05495 0.57214 0.28441 0.0
H648 H 0.99231 0.46143 0.20781 0.0
H649 H 0.0014 0.46948 0.23035 0.0
H650 H 0.04861 0.52791 0.22459 0.0
H651 H 0.03961 0.51992 0.20225 0.0
H652 H 0.03315 0.47777 0.24494 0.0
H653 H 0.03245 0.53228 0.24322 0.0
H654 H 0.05599 0.5214 0.27681 0.0
H655 H 0.04215 0.54073 0.28474 0.0
H656 H 0.06063 0.56354 0.24973 0.0
H657 H 0.07123 0.59693 0.25902 0.0
H658 H 0.02248 0.45834 0.26466 0.0
H659 H 0.08103 0.50994 0.27354 0.0
H660 H 0.0534 0.57444 0.29412 0.0
H661 H 0.03373 0.43815 0.27497 0.0
H662 H 0.0926 0.48983 0.28336 0.0
C663 C 0.4458 0.49337 0.20134 0.0
C664 C 0.46509 0.49888 0.19837 0.0
C665 C 0.44261 0.49714 0.21351 0.0
C666 C 0.45864 0.50641 0.22292 0.0
C667 C 0.47773 0.51095 0.22002 0.0
C668 C 0.48092 0.50731 0.20788 0.0
C669 C 0.45591 0.5126 0.23553 0.0
C670 C 0.43916 0.50024 0.24148 0.0
C671 C 0.43666 0.50646 0.25334 0.0
C672 C 0.45121 0.52522 0.25925 0.0
C673 C 0.46794 0.53781 0.25341 0.0
C674 C 0.47007 0.53138 0.24154 0.0
C675 C 0.48299 0.5579 0.25949 0.0
C676 C 0.47708 0.56975 0.26622 0.0
C677 C 0.50339 0.56558 0.25834 0.0
C678 C 0.51747 0.58478 0.26357 0.0
C679 C 0.5115 0.59662 0.27019 0.0
C680 C 0.41868 0.49374 0.25952 0.0
C681 C 0.3997 0.48367 0.25277 0.0
C682 C 0.42025 0.49228 0.27232 0.0
C683 C 0.40323 0.4814 0.27829 0.0
C684 C 0.38424 0.47165 0.27158 0.0
C685 C 0.38267 0.47273 0.25873 0.0
C686 C 0.4912 0.58887 0.27156 0.0
H687 H 0.43334 0.48691 0.19417 0.0
H688 H 0.42776 0.49358 0.21543 0.0
H689 H 0.49031 0.51768 0.22711 0.0
H690 H 0.49588 0.51135 0.2059 0.0
H691 H 0.42824 0.48565 0.23695 0.0
H692 H 0.48252 0.54134 0.23677 0.0
H693 H 0.44937 0.53013 0.26837 0.0
H694 H 0.46149 0.56446 0.26712 0.0
H695 H 0.50851 0.55673 0.25343 0.0
H696 H 0.53307 0.59031 0.26253 0.0
H697 H 0.39794 0.48471 0.24293 0.0
H698 H 0.43468 0.49956 0.27775 0.0
H699 H 0.48618 0.59779 0.27651 0.0
H700 H 0.36823 0.46555 0.25333 0.0
H701 H 0.40495 0.48055 0.28816 0.0
Tb702 Tb 0.49472 0.98479 0.9896 0.0
Eu703 Eu 0.5107 0.01297 0.01668 0.0
C704 C 0.51757 0.97608 0.01066 0.0
C705 C 0.46908 0.97266 0.01228 0.0
C706 C 0.48733 0.97167 0.95569 0.0
C707 C 0.49144 0.96465 0.9343 0.0
C708 C 0.48764 0.95879 0.94622 0.0
C709 C 0.49098 0.99054 0.95313 0.0
C710 C 0.49458 0.99633 0.94121 0.0
C711 C 0.49487 0.98346 0.93166 0.0
C712 C 0.48379 0.96558 0.96828 0.0
O713 O 0.49412 0.01173 0.98653 0.0
O714 O 0.48956 0.01991 0.00616 0.0
O715 O 0.53147 0.03176 0.00335 0.0
O716 O 0.52624 0.00592 0.98924 0.0
C717 C 0.48809 0.02085 0.99417 0.0
O718 O 0.50452 0.02783 0.03202 0.0
O719 O 0.5331 0.02936 0.03252 0.0
O720 O 0.52534 0.99442 0.01582 0.0
O721 O 0.50234 0.96822 0.00202 0.0
O722 O 0.46908 0.97379 1.00026 0.0
O723 O 0.48528 0.9834 0.01995 0.0
C724 C 0.53675 0.02466 0.99393 0.0
O725 O 0.4994 0.96853 0.9753 0.0
O726 O 0.47298 0.97103 0.97429 0.0
C727 C 0.51878 0.02688 0.0514 0.0
C728 C 0.51082 0.01424 0.07525 0.0
C729 C 0.51352 0.03285 0.07269 0.0
C730 C 0.51746 0.03909 0.06087 0.0
C731 C 0.51636 0.00842 0.05391 0.0
C732 C 0.51253 0.00221 0.06573 0.0
C733 C 0.52107 0.03278 0.03874 0.0
H734 H 0.49146 0.95437 0.92712 0.0
H735 H 0.48498 0.94422 0.94804 0.0
H736 H 0.49114 0.00085 0.96035 0.0
H737 H 0.49746 0.01102 0.93951 0.0
H738 H 0.51201 0.04238 0.0797 0.0
H739 H 0.51903 0.05327 0.05906 0.0
H740 H 0.51713 0.99867 0.04668 0.0
H741 H 0.51084 0.98794 0.06739 0.0
Tb742 Tb 0.01453 0.50803 0.99118 0.0
Eu743 Eu 0.98664 0.49374 0.01432 0.0
C744 C 0.02266 0.5384 0.0141 0.0
C745 C 0.02805 0.49495 0.01531 0.0
C746 C 0.03117 0.51714 0.95963 0.0
C747 C 0.04219 0.53069 0.94026 0.0
C748 C 0.04558 0.53147 0.95311 0.0
C749 C 0.01318 0.50205 0.95319 0.0
C750 C 0.00984 0.50115 0.94032 0.0
C751 C 0.02434 0.51545 0.93373 0.0
C752 C 0.03515 0.51819 0.97312 0.0
O753 O 0.98805 0.48006 0.98415 0.0
O754 O 0.98235 0.46682 0.00258 0.0
O755 O 0.96752 0.49511 0.99854 0.0
O756 O 0.99258 0.5174 0.98807 0.0
C757 C 0.98017 0.46462 0.99044 0.0
O758 O 0.97021 0.4706 0.02615 0.0
O759 O 0.96943 0.49798 0.0281 0.0
O760 O 0.00451 0.5272 0.01706 0.0
O761 O 0.03055 0.5316 0.00622 0.0
O762 O 0.02668 0.4942 0.00312 0.0
O763 O 0.01636 0.49863 0.02182 0.0
C764 C 0.97385 0.50812 0.99042 0.0
O765 O 0.03122 0.53005 0.97979 0.0
O766 O 0.02903 0.50128 0.97769 0.0
C767 C 0.96792 0.482 0.04607 0.0
C768 C 0.97477 0.48141 0.07175 0.0
C769 C 0.95629 0.4676 0.06513 0.0
C770 C 0.95292 0.46793 0.0524 0.0
C771 C 0.98634 0.49591 0.0526 0.0
C772 C 0.98971 0.49568 0.06535 0.0
C773 C 0.96456 0.48122 0.03259 0.0
H774 H 0.05369 0.54179 0.93541 0.0
H775 H 0.05952 0.54324 0.95795 0.0
H776 H 0.00177 0.49094 0.9581 0.0
H777 H 0.99586 0.48939 0.93554 0.0
H778 H 0.94458 0.45623 0.06971 0.0
H779 H 0.93869 0.45695 0.04744 0.0
H780 H 0.99815 0.5068 0.04782 0.0
H781 H 0.00401 0.50669 0.07019 0.0
Tb782 Tb 0.50728 0.49257 0.01446 0.0
Eu783 Eu 0.48811 0.50008 0.98878 0.0
C784 C 0.47874 0.45756 0.99485 0.0
C785 C 0.53022 0.50225 0.99064 0.0
C786 C 0.51735 0.48756 0.04732 0.0
C787 C 0.51235 0.47393 0.06712 0.0
C788 C 0.51669 0.47337 0.05486 0.0
C789 C 0.51373 0.50245 0.05221 0.0
C790 C 0.5096 0.50314 0.06451 0.0
C791 C 0.50873 0.48879 0.07206 0.0
C792 C 0.5206 0.4859 0.03422 0.0
O793 O 0.50933 0.52117 0.01827 0.0
O794 O 0.51197 0.52964 0.99844 0.0
O795 O 0.46796 0.49951 0.00289 0.0
O796 O 0.47753 0.48591 0.01836 0.0
C797 C 0.51482 0.53464 0.01046 0.0
O798 O 0.48526 0.52007 0.97662 0.0
O799 O 0.47018 0.48847 0.97089 0.0
O800 O 0.47044 0.46782 0.99152 0.0
O801 O 0.49642 0.4664 0.00117 0.0
O802 O 0.53156 0.50553 0.00277 0.0
O803 O 0.51332 0.49564 0.9837 0.0
C804 C 0.46544 0.49148 0.0134 0.0
O805 O 0.50514 0.47235 0.02699 0.0
O806 O 0.52994 0.50247 0.02918 0.0
C807 C 0.4837 0.50992 0.95547 0.0
C808 C 0.49883 0.51686 0.9322 0.0
C809 C 0.48754 0.52528 0.93631 0.0
C810 C 0.48001 0.52178 0.94783 0.0
C811 C 0.49528 0.50182 0.95154 0.0
C812 C 0.50264 0.50513 0.94001 0.0
C813 C 0.47554 0.50603 0.96751 0.0
H814 H 0.51192 0.46279 0.07276 0.0
H815 H 0.51928 0.46169 0.05121 0.0
H816 H 0.51385 0.51337 0.04649 0.0
H817 H 0.50665 0.51462 0.06804 0.0
H818 H 0.48458 0.53466 0.93065 0.0
H819 H 0.47126 0.52831 0.95077 0.0
H820 H 0.49846 0.49271 0.95733 0.0
H821 H 0.51096 0.49812 0.93712 0.0
Tb822 Tb 0.16118 0.31861 0.3231 0.0
Eu823 Eu 0.1769 0.34598 0.35039 0.0
C824 C 0.18426 0.3095 0.3438 0.0
C825 C 0.13576 0.30533 0.34586 0.0
C826 C 0.15388 0.30682 0.28908 0.0
C827 C 0.15863 0.30074 0.26768 0.0
C828 C 0.15459 0.2944 0.27947 0.0
C829 C 0.15731 0.32573 0.28677 0.0
C830 C 0.16117 0.33201 0.27497 0.0
C831 C 0.16191 0.31961 0.2653 0.0
C832 C 0.1502 0.30023 0.30155 0.0
O833 O 0.16072 0.3458 0.32066 0.0
O834 O 0.15452 0.35171 0.34024 0.0
O835 O 0.19769 0.3653 0.33721 0.0
O836 O 0.19268 0.33981 0.32288 0.0
C837 C 0.15356 0.35362 0.32838 0.0
O838 O 0.17061 0.36071 0.36576 0.0
O839 O 0.19903 0.3619 0.36641 0.0
O840 O 0.19175 0.32764 0.34925 0.0
O841 O 0.16915 0.30177 0.33509 0.0
O842 O 0.13562 0.30682 0.33386 0.0
O843 O 0.15198 0.31605 0.35351 0.0
C844 C 0.2031 0.35846 0.32773 0.0
O845 O 0.16572 0.30277 0.30848 0.0
O846 O 0.13947 0.30556 0.30774 0.0
C847 C 0.18429 0.35903 0.38516 0.0
C848 C 0.17581 0.34571 0.40881 0.0
C849 C 0.17815 0.36423 0.40635 0.0
C850 C 0.18236 0.37081 0.39463 0.0
C851 C 0.18219 0.34065 0.38757 0.0
C852 C 0.17811 0.33411 0.3993 0.0
C853 C 0.18697 0.3653 0.37259 0.0
H854 H 0.15897 0.2908 0.2604 0.0
H855 H 0.1521 0.27981 0.2811 0.0
H856 H 0.1571 0.3357 0.2941 0.0
H857 H 0.16391 0.34673 0.27348 0.0
H858 H 0.17618 0.37343 0.41336 0.0
H859 H 0.18367 0.38491 0.39289 0.0
H860 H 0.18343 0.33122 0.38034 0.0
H861 H 0.17671 0.31993 0.40088 0.0
Tb862 Tb 0.68007 0.83988 0.32483 0.0
Eu863 Eu 0.65314 0.82794 0.34851 0.0
C864 C 0.68982 0.87165 0.34734 0.0
C865 C 0.69327 0.82687 0.34891 0.0
C866 C 0.69623 0.84746 0.29312 0.0
C867 C 0.70664 0.86081 0.27361 0.0
C868 C 0.71036 0.86179 0.28644 0.0
C869 C 0.67822 0.83216 0.28682 0.0
C870 C 0.67456 0.83107 0.27396 0.0
C871 C 0.68875 0.84539 0.26723 0.0
C872 C 0.70045 0.84886 0.30661 0.0
O873 O 0.65328 0.81195 0.31815 0.0
O874 O 0.64625 0.79992 0.33696 0.0
O875 O 0.63375 0.82907 0.33283 0.0
O876 O 0.65834 0.84941 0.32128 0.0
C877 C 0.64435 0.79708 0.32482 0.0
O878 O 0.63786 0.80634 0.36145 0.0
O879 O 0.63618 0.83328 0.36199 0.0
O880 O 0.67166 0.86127 0.35045 0.0
O881 O 0.69706 0.86394 0.33955 0.0
O882 O 0.69074 0.82481 0.33672 0.0
O883 O 0.68297 0.83239 0.35554 0.0
C884 C 0.63988 0.84107 0.32413 0.0
O885 O 0.69708 0.86126 0.31316 0.0
O886 O 0.694 0.8321 0.31142 0.0
C887 C 0.63524 0.81933 0.38081 0.0
C888 C 0.64218 0.82109 0.40671 0.0
C889 C 0.62432 0.80583 0.40018 0.0
C890 C 0.62089 0.805 0.38735 0.0
C891 C 0.65303 0.83471 0.38723 0.0
C892 C 0.65644 0.83564 0.40009 0.0
C893 C 0.63187 0.81723 0.36725 0.0
H894 H 0.71791 0.87194 0.26864 0.0
H895 H 0.72431 0.87372 0.29117 0.0
H896 H 0.667 0.82106 0.29184 0.0
H897 H 0.66055 0.81916 0.2693 0.0
H898 H 0.61317 0.79421 0.40493 0.0
H899 H 0.60717 0.7929 0.38249 0.0
H900 H 0.66435 0.84583 0.38228 0.0
H901 H 0.67025 0.84772 0.40485 0.0
Tb902 Tb 0.17407 0.8266 0.34732 0.0
Eu903 Eu 0.15558 0.83649 0.32238 0.0
C904 C 0.14927 0.79343 0.32552 0.0
C905 C 0.19744 0.83847 0.32367 0.0
C906 C 0.18368 0.82012 0.37995 0.0
C907 C 0.17821 0.80567 0.39949 0.0
C908 C 0.18241 0.80535 0.38718 0.0
C909 C 0.18076 0.83528 0.3852 0.0
C910 C 0.17675 0.83572 0.39754 0.0
C911 C 0.17533 0.82085 0.40479 0.0
C912 C 0.187 0.81889 0.36682 0.0
O913 O 0.17544 0.85459 0.35262 0.0
O914 O 0.17817 0.86529 0.33337 0.0
O915 O 0.13637 0.83577 0.3372 0.0
O916 O 0.14306 0.81683 0.34989 0.0
C917 C 0.18068 0.86895 0.34548 0.0
O918 O 0.15898 0.85768 0.30924 0.0
O919 O 0.1327 0.82842 0.30693 0.0
O920 O 0.14063 0.80331 0.32195 0.0
O921 O 0.1656 0.8019 0.33327 0.0
O922 O 0.19855 0.84093 0.33585 0.0
O923 O 0.18066 0.83234 0.3167 0.0
C924 C 0.13213 0.82456 0.34635 0.0
O925 O 0.17154 0.80571 0.35943 0.0
O926 O 0.19656 0.83569 0.36206 0.0
C927 C 0.14625 0.843 0.28889 0.0
C928 C 0.15628 0.84223 0.26444 0.0
C929 C 0.15138 0.85638 0.26902 0.0
C930 C 0.14641 0.85674 0.28114 0.0
C931 C 0.15079 0.82864 0.28433 0.0
C932 C 0.15563 0.82818 0.27219 0.0
C933 C 0.14313 0.8449 0.30199 0.0
H934 H 0.17734 0.79411 0.40489 0.0
H935 H 0.18448 0.79346 0.38326 0.0
H936 H 0.18136 0.84667 0.37973 0.0
H937 H 0.17437 0.84746 0.40135 0.0
H938 H 0.152 0.8676 0.26339 0.0
H939 H 0.14321 0.86809 0.28458 0.0
H940 H 0.15096 0.81801 0.29022 0.0
H941 H 0.15901 0.81688 0.26892 0.0
Tb942 Tb 0.8292 0.65324 0.65625 0.0
Eu943 Eu 0.84496 0.68067 0.68353 0.0
C944 C 0.8519 0.64388 0.67704 0.0
C945 C 0.80368 0.64011 0.679 0.0
C946 C 0.82183 0.6414 0.62221 0.0
C947 C 0.82751 0.63564 0.60098 0.0
C948 C 0.82352 0.62936 0.61278 0.0
C949 C 0.82424 0.65987 0.61969 0.0
C950 C 0.82805 0.66608 0.60787 0.0
C951 C 0.82977 0.65406 0.59838 0.0
C952 C 0.81821 0.63487 0.6347 0.0
O953 O 0.82886 0.68049 0.65379 0.0
O954 O 0.82259 0.68637 0.67336 0.0
O955 O 0.8658 0.69985 0.67032 0.0
O956 O 0.86077 0.67423 0.6561 0.0
C957 C 0.82167 0.68829 0.6615 0.0
O958 O 0.83888 0.69571 0.69882 0.0
O959 O 0.86708 0.69644 0.69958 0.0
O960 O 0.85954 0.66206 0.68247 0.0
O961 O 0.83685 0.63626 0.66829 0.0
O962 O 0.80361 0.64154 0.66699 0.0
O963 O 0.81986 0.65085 0.68668 0.0
C964 C 0.87123 0.69292 0.6609 0.0
O965 O 0.83375 0.63741 0.64162 0.0
O966 O 0.80747 0.64018 0.6409 0.0
C967 C 0.85234 0.694 0.71828 0.0
C968 C 0.84376 0.6811 0.74202 0.0
C969 C 0.84688 0.69989 0.73953 0.0
C970 C 0.85113 0.70626 0.72777 0.0
C971 C 0.84946 0.67534 0.72072 0.0
C972 C 0.84532 0.669 0.73248 0.0
C973 C 0.85515 0.70014 0.70569 0.0
H974 H 0.82862 0.626 0.59384 0.0
H975 H 0.82183 0.61511 0.61456 0.0
H976 H 0.82327 0.66956 0.62687 0.0
H977 H 0.82998 0.68045 0.60621 0.0
H978 H 0.84549 0.70949 0.74656 0.0
H979 H 0.85306 0.7206 0.72601 0.0
H980 H 0.85014 0.66556 0.71347 0.0
H981 H 0.84331 0.65459 0.73409 0.0
Tb982 Tb 0.34805 0.17333 0.65894 0.0
Eu983 Eu 0.32086 0.16134 0.68248 0.0
C984 C 0.35771 0.20502 0.68149 0.0
C985 C 0.36095 0.16018 0.68303 0.0
C986 C 0.36458 0.1814 0.62736 0.0
C987 C 0.37531 0.19526 0.60803 0.0
C988 C 0.37891 0.19581 0.62083 0.0
C989 C 0.34649 0.16644 0.62096 0.0
C990 C 0.34293 0.16577 0.60813 0.0
C991 C 0.35732 0.18018 0.60154 0.0
C992 C 0.36865 0.18241 0.64084 0.0
O993 O 0.32115 0.1456 0.6521 0.0
O994 O 0.31372 0.13333 0.67081 0.0
O995 O 0.30175 0.16287 0.6668 0.0
O996 O 0.3266 0.1832 0.65539 0.0
C997 C 0.31198 0.13065 0.65868 0.0
O998 O 0.30586 0.13991 0.69557 0.0
O999 O 0.30343 0.16643 0.69572 0.0
O1000 O 0.33952 0.19466 0.68456 0.0
O1001 O 0.36497 0.19728 0.67374 0.0
O1002 O 0.35848 0.15808 0.67084 0.0
O1003 O 0.35063 0.16575 0.6896 0.0
C1004 C 0.30812 0.17504 0.65819 0.0
O1005 O 0.36551 0.19487 0.6475 0.0
O1006 O 0.36185 0.16549 0.64548 0.0
C1007 C 0.30291 0.15315 0.71476 0.0
C1008 C 0.31002 0.1559 0.74072 0.0
C1009 C 0.29281 0.13963 0.73424 0.0
C1010 C 0.2893 0.13831 0.72138 0.0
C1011 C 0.32003 0.1695 0.72113 0.0
C1012 C 0.32351 0.17092 0.73402 0.0
C1013 C 0.29952 0.15064 0.70118 0.0
H1014 H 0.38671 0.20644 0.60317 0.0
H1015 H 0.39292 0.2075 0.62564 0.0
H1016 H 0.33512 0.15529 0.62586 0.0
H1017 H 0.32886 0.15412 0.60337 0.0
H1018 H 0.28229 0.12763 0.73906 0.0
H1019 H 0.27611 0.12548 0.71657 0.0
H1020 H 0.3308 0.18104 0.71613 0.0
H1021 H 0.33678 0.18375 0.73873 0.0
Tb1022 Tb 0.84035 0.15883 0.68146 0.0
Eu1023 Eu 0.82187 0.16779 0.65604 0.0
C1024 C 0.81295 0.12473 0.66097 0.0
C1025 C 0.86376 0.16932 0.65767 0.0
C1026 C 0.85012 0.15328 0.71432 0.0
C1027 C 0.8457 0.13966 0.73412 0.0
C1028 C 0.84973 0.13911 0.72179 0.0
C1029 C 0.84649 0.16808 0.71934 0.0
C1030 C 0.84267 0.16876 0.73171 0.0
C1031 C 0.84213 0.15448 0.7392 0.0
C1032 C 0.85335 0.15179 0.7012 0.0
O1033 O 0.84194 0.18719 0.6856 0.0
O1034 O 0.84637 0.19667 0.66609 0.0
O1035 O 0.80186 0.16701 0.67033 0.0
O1036 O 0.81015 0.1512 0.68488 0.0
C1037 C 0.84831 0.20113 0.67811 0.0
O1038 O 0.82026 0.1888 0.64423 0.0
O1039 O 0.80329 0.15724 0.63835 0.0
O1040 O 0.8047 0.13505 0.65764 0.0
O1041 O 0.83014 0.13323 0.66783 0.0
O1042 O 0.86482 0.17144 0.66985 0.0
O1043 O 0.84717 0.16385 0.65065 0.0
C1044 C 0.79862 0.15773 0.68037 0.0
O1045 O 0.83788 0.13838 0.6939 0.0
O1046 O 0.86281 0.16847 0.69628 0.0
C1047 C 0.81756 0.17855 0.62297 0.0
C1048 C 0.83238 0.18491 0.5996 0.0
C1049 C 0.82183 0.19408 0.60385 0.0
C1050 C 0.81446 0.19088 0.61543 0.0
C1051 C 0.82835 0.16965 0.61888 0.0
C1052 C 0.83557 0.17269 0.6073 0.0
C1053 C 0.80968 0.17505 0.6351 0.0
H1054 H 0.84552 0.12857 0.73971 0.0
H1055 H 0.85236 0.12751 0.71804 0.0
H1056 H 0.84641 0.17899 0.71367 0.0
H1057 H 0.83974 0.1802 0.73535 0.0
H1058 H 0.81935 0.20381 0.59827 0.0
H1059 H 0.80632 0.19802 0.61849 0.0
H1060 H 0.83103 0.16015 0.62458 0.0
H1061 H 0.84331 0.1651 0.6043 0.0
C1062 C 0.32058 0.88827 0.06693 0.0
C1063 C 0.30341 0.87281 0.05994 0.0
C1064 C 0.33832 0.89856 0.06151 0.0
C1065 C 0.35855 0.91141 0.0317 0.0
H1066 H 0.40739 0.91967 0.0493 0.0
C1067 C 0.43287 0.94631 0.00967 0.0
C1068 C 0.45019 0.95974 0.01747 0.0
C1069 C 0.41487 0.93486 0.01462 0.0
C1070 C 0.39395 0.91773 0.04432 0.0
H1071 H 0.29117 0.85634 0.04174 0.0
H1072 H 0.3222 0.87447 0.03224 0.0
H1073 H 0.37611 0.90205 0.05843 0.0
H1074 H 0.46215 0.97161 0.03661 0.0
H1075 H 0.43083 0.9521 0.04516 0.0
H1076 H 0.37638 0.92746 0.01771 0.0
C1077 C 0.32192 0.87855 0.04191 0.0
C1078 C 0.37603 0.90759 0.04955 0.0
C1079 C 0.30423 0.8681 0.04737 0.0
C1080 C 0.44915 0.96131 0.03032 0.0
C1081 C 0.43115 0.95001 0.03525 0.0
C1082 C 0.37652 0.92174 0.02651 0.0
C1083 C 0.33919 0.89375 0.04897 0.0
C1084 C 0.35816 0.90438 0.04332 0.0
C1085 C 0.41374 0.93668 0.02747 0.0
C1086 C 0.39448 0.9251 0.03278 0.0
H1087 H 0.32041 0.89212 0.07665 0.0
H1088 H 0.35137 0.91034 0.06714 0.0
H1089 H 0.34501 0.90929 0.02674 0.0
H1090 H 0.43319 0.94468 0.99973 0.0
H1091 H 0.40185 0.92452 0.00836 0.0
C1092 C 0.15672 0.47253 0.07106 0.0
C1093 C 0.15206 0.45258 0.07064 0.0
C1094 C 0.14355 0.4775 0.06517 0.0
C1095 C 0.09081 0.45695 0.05396 0.0
H1096 H 0.11062 0.50069 0.03362 0.0
C1097 C 0.04195 0.48769 0.03443 0.0
C1098 C 0.04275 0.49091 0.02184 0.0
C1099 C 0.05548 0.48338 0.04051 0.0
C1100 C 0.10487 0.4884 0.03925 0.0
H1101 H 0.12988 0.42228 0.06347 0.0
H1102 H 0.10677 0.43096 0.05348 0.0
H1103 H 0.13384 0.49229 0.04398 0.0
H1104 H 0.05862 0.49242 0.00583 0.0
H1105 H 0.08233 0.48504 0.01651 0.0
H1106 H 0.06184 0.45301 0.04921 0.0
C1107 C 0.12059 0.44271 0.05844 0.0
C1108 C 0.11817 0.48371 0.04525 0.0
C1109 C 0.13383 0.43775 0.06422 0.0
C1110 C 0.05756 0.48998 0.01552 0.0
C1111 C 0.07122 0.48586 0.02165 0.0
C1112 C 0.07754 0.46178 0.04807 0.0
C1113 C 0.12532 0.46263 0.05883 0.0
C1114 C 0.11127 0.46787 0.05263 0.0
C1115 C 0.07024 0.48239 0.03419 0.0
C1116 C 0.08442 0.4775 0.0406 0.0
H1117 H 0.17044 0.48433 0.07608 0.0
H1118 H 0.14748 0.49296 0.06575 0.0
H1119 H 0.08507 0.44476 0.05966 0.0
H1120 H 0.03073 0.48829 0.03958 0.0
H1121 H 0.05449 0.48095 0.05021 0.0
C1122 C 0.59646 0.70555 0.061 0.0
C1123 C 0.59638 0.71945 0.05342 0.0
C1124 C 0.5884 0.68571 0.05625 0.0
C1125 C 0.57509 0.65272 0.02738 0.0
H1126 H 0.53829 0.61221 0.04646 0.0
C1127 C 0.52764 0.57035 0.0073 0.0
C1128 C 0.52453 0.55586 0.01531 0.0
C1129 C 0.5368 0.5904 0.01191 0.0
C1130 C 0.54875 0.62329 0.04109 0.0
H1131 H 0.58836 0.72366 0.03487 0.0
H1132 H 0.57432 0.68891 0.02654 0.0
H1133 H 0.55415 0.64711 0.05458 0.0
H1134 H 0.52883 0.55105 0.03443 0.0
H1135 H 0.54519 0.586 0.04241 0.0
H1136 H 0.56993 0.62894 0.01395 0.0
C1137 C 0.5806 0.69339 0.03615 0.0
C1138 C 0.5578 0.64329 0.04574 0.0
C1139 C 0.58848 0.71321 0.04093 0.0
C1140 C 0.53086 0.56183 0.02802 0.0
C1141 C 0.54016 0.58188 0.03261 0.0
C1142 C 0.56617 0.63269 0.02277 0.0
C1143 C 0.58028 0.67941 0.04381 0.0
C1144 C 0.57101 0.6582 0.03892 0.0
C1145 C 0.54319 0.59641 0.02462 0.0
C1146 C 0.55285 0.61773 0.02955 0.0
H1147 H 0.60229 0.70992 0.07069 0.0
H1148 H 0.5885 0.67526 0.06233 0.0
H1149 H 0.58538 0.66391 0.02199 0.0
H1150 H 0.52284 0.56622 0.99747 0.0
H1151 H 0.5386 0.60113 0.00552 0.0
C1152 C 0.859 0.30168 0.93567 0.0
C1153 C 0.85888 0.28571 0.94101 0.0
C1154 C 0.87301 0.32124 0.94029 0.0
C1155 C 0.92104 0.35138 0.96048 0.0
H1156 H 0.90529 0.39142 0.96105 0.0
C1157 C 0.96427 0.42777 0.98996 0.0
C1158 C 0.96798 0.44445 0.98386 0.0
C1159 C 0.95202 0.40861 0.98398 0.0
C1160 C 0.90992 0.38041 0.96082 0.0
H1161 H 0.87297 0.27751 0.95543 0.0
H1162 H 0.89696 0.31162 0.96387 0.0
H1163 H 0.88143 0.35742 0.95239 0.0
H1164 H 0.96196 0.4542 0.9667 0.0
H1165 H 0.94009 0.42056 0.95634 0.0
H1166 H 0.9493 0.3744 0.96944 0.0
C1167 C 0.88672 0.30917 0.95586 0.0
C1168 C 0.8963 0.36093 0.95582 0.0
C1169 C 0.87291 0.28961 0.95109 0.0
C1170 C 0.95939 0.44162 0.97161 0.0
C1171 C 0.94683 0.42242 0.96571 0.0
C1172 C 0.93453 0.3708 0.96566 0.0
C1173 C 0.887 0.32527 0.9505 0.0
C1174 C 0.90166 0.34612 0.95561 0.0
C1175 C 0.943 0.40577 0.97187 0.0
C1176 C 0.92907 0.38545 0.9659 0.0
H1177 H 0.84846 0.29901 0.92778 0.0
H1178 H 0.87298 0.33319 0.93575 0.0
H1179 H 0.92588 0.34054 0.96025 0.0
H1180 H 0.97075 0.4295 0.99938 0.0
H1181 H 0.94918 0.39599 0.98894 0.0
C1182 C 0.66992 0.53294 0.93055 0.0
C1183 C 0.68829 0.54957 0.93526 0.0
C1184 C 0.65281 0.52797 0.93646 0.0
C1185 C 0.63264 0.54823 0.96012 0.0
H1186 H 0.59284 0.49256 0.95986 0.0
C1187 C 0.56741 0.51964 0.99087 0.0
C1188 C 0.54837 0.50693 0.98455 0.0
C1189 C 0.58452 0.52484 0.9849 0.0
C1190 C 0.6038 0.50817 0.95995 0.0
H1191 H 0.7033 0.57392 0.94989 0.0
H1192 H 0.6737 0.56489 0.96052 0.0
H1193 H 0.62271 0.50174 0.94952 0.0
H1194 H 0.53239 0.48942 0.96708 0.0
H1195 H 0.56235 0.49812 0.9568 0.0
H1196 H 0.61384 0.55445 0.97095 0.0
C1197 C 0.67221 0.55598 0.95204 0.0
C1198 C 0.6209 0.51348 0.95395 0.0
C1199 C 0.68925 0.56115 0.94599 0.0
C1200 C 0.54683 0.49924 0.97221 0.0
C1201 C 0.56396 0.50416 0.96633 0.0
C1202 C 0.6157 0.54287 0.9663 0.0
C1203 C 0.65372 0.53929 0.94737 0.0
C1204 C 0.63554 0.53361 0.95388 0.0
C1205 C 0.58295 0.51714 0.97258 0.0
C1206 C 0.60108 0.5228 0.96622 0.0
H1207 H 0.66875 0.52389 0.92221 0.0
H1208 H 0.63884 0.5153 0.93237 0.0
H1209 H 0.6433 0.56388 0.9601 0.0
H1210 H 0.5691 0.5259 1.00035 0.0
H1211 H 0.599 0.53479 0.98995 0.0
C1212 C 0.42925 0.12687 0.95196 0.0
C1213 C 0.40865 0.11951 0.95173 0.0
C1214 C 0.43767 0.11602 0.95644 0.0
C1215 C 0.44995 0.08521 0.95959 0.0
H1216 H 0.43168 0.05758 0.98868 0.0
C1217 C 0.47552 0.03188 0.97633 0.0
C1218 C 0.4794 0.0324 0.98919 0.0
C1219 C 0.4668 0.04237 0.97165 0.0
C1220 C 0.43707 0.06535 0.98061 0.0
H1221 H 0.38076 0.09497 0.95608 0.0
H1222 H 0.39539 0.07577 0.96361 0.0
H1223 H 0.41679 0.07636 0.98087 0.0
H1224 H 0.47742 0.0446 0.00722 0.0
H1225 H 0.46257 0.06316 0.99905 0.0
H1226 H 0.47062 0.07468 0.95953 0.0
C1227 C 0.40508 0.09009 0.96049 0.0
C1228 C 0.42835 0.07589 0.97603 0.0
C1229 C 0.39665 0.10099 0.95604 0.0
C1230 C 0.47454 0.04378 0.99726 0.0
C1231 C 0.4659 0.05433 0.99258 0.0
C1232 C 0.45871 0.07472 0.96419 0.0
C1233 C 0.42569 0.09749 0.96073 0.0
C1234 C 0.43472 0.08599 0.96549 0.0
C1235 C 0.46183 0.05367 0.97972 0.0
C1236 C 0.45241 0.0647 0.97477 0.0
H1237 H 0.43889 0.14095 0.94856 0.0
H1238 H 0.45363 0.12227 0.95664 0.0
H1239 H 0.45505 0.09262 0.95136 0.0
H1240 H 0.47898 0.02318 0.96985 0.0
H1241 H 0.46363 0.04133 0.9617 0.0
C1242 C 0.69641 0.13675 0.95489 0.0
C1243 C 0.69904 0.12849 0.94378 0.0
C1244 C 0.67918 0.12616 0.96075 0.0
C1245 C 0.63829 0.07526 0.96278 0.0
H1246 H 0.61088 0.10138 0.97591 0.0
C1247 C 0.55971 0.0307 0.97756 0.0
C1248 C 0.55536 0.0377 0.98851 0.0
C1249 C 0.57747 0.04241 0.97254 0.0
C1250 C 0.61851 0.09394 0.97244 0.0
H1251 H 0.68569 0.10259 0.93015 0.0
H1252 H 0.65553 0.08419 0.94029 0.0
H1253 H 0.64154 0.12057 0.9663 0.0
H1254 H 0.5662 0.06273 0.00264 0.0
H1255 H 0.59748 0.08321 0.99388 0.0
H1256 H 0.61535 0.04865 0.96888 0.0
C1257 C 0.66686 0.09881 0.94453 0.0
C1258 C 0.63605 0.10492 0.96692 0.0
C1259 C 0.68404 0.10942 0.93864 0.0
C1260 C 0.56909 0.0569 0.9942 0.0
C1261 C 0.58697 0.06865 0.98916 0.0
C1262 C 0.62082 0.06431 0.96831 0.0
C1263 C 0.66424 0.10704 0.95566 0.0
C1264 C 0.64601 0.09564 0.96191 0.0
C1265 C 0.59143 0.06143 0.97834 0.0
C1266 C 0.61058 0.07345 0.97307 0.0
H1267 H 0.70759 0.15151 0.95901 0.0
H1268 H 0.67766 0.13285 0.96936 0.0
H1269 H 0.64583 0.06776 0.95924 0.0
H1270 H 0.54939 0.01609 0.97282 0.0
H1271 H 0.58022 0.03656 0.96405 0.0
C1272 C 0.86202 0.56203 0.94567 0.0
C1273 C 0.84791 0.54908 0.93587 0.0
C1274 C 0.87577 0.55759 0.9513 0.0
C1275 C 0.91021 0.55021 0.95682 0.0
H1276 H 0.89285 0.49591 0.96318 0.0
C1277 C 0.96549 0.5258 0.97467 0.0
C1278 C 0.95951 0.51257 0.98381 0.0
C1279 C 0.95198 0.53015 0.96857 0.0
C1280 C 0.89792 0.51118 0.96155 0.0
H1281 H 0.83713 0.52118 0.92439 0.0
H1282 H 0.86136 0.51364 0.93404 0.0
H1283 H 0.86908 0.50384 0.95331 0.0
H1284 H 0.93455 0.49351 0.99367 0.0
H1285 H 0.91114 0.50127 0.98315 0.0
H1286 H 0.93894 0.55762 0.96533 0.0
C1287 C 0.86166 0.52715 0.93746 0.0
C1288 C 0.88434 0.51568 0.95575 0.0
C1289 C 0.84791 0.53159 0.93183 0.0
C1290 C 0.93968 0.50372 0.98665 0.0
C1291 C 0.9262 0.50809 0.98057 0.0
C1292 C 0.9238 0.5457 0.96262 0.0
C1293 C 0.87576 0.54008 0.94727 0.0
C1294 C 0.89029 0.53526 0.95334 0.0
C1295 C 0.93217 0.52138 0.97146 0.0
C1296 C 0.91781 0.52613 0.96509 0.0
H1297 H 0.86259 0.57574 0.94892 0.0
H1298 H 0.88627 0.56778 0.95892 0.0
H1299 H 0.91536 0.5654 0.95498 0.0
H1300 H 0.98061 0.53282 0.97219 0.0
H1301 H 0.95701 0.54025 0.96149 0.0
C1302 C 0.40632 0.27845 0.96752 0.0
C1303 C 0.3925 0.27085 0.95689 0.0
C1304 C 0.41419 0.29816 0.97258 0.0
C1305 C 0.42257 0.34613 0.96308 0.0
H1306 H 0.43735 0.36386 0.99823 0.0
C1307 C 0.45096 0.42694 0.98269 0.0
C1308 C 0.4682 0.43591 0.99118 0.0
C1309 C 0.44102 0.40653 0.97909 0.0
C1310 C 0.4334 0.35909 0.98839 0.0
H1311 H 0.37504 0.27727 0.94367 0.0
H1312 H 0.38824 0.31144 0.9527 0.0
H1313 H 0.4202 0.32832 0.99118 0.0
H1314 H 0.48833 0.43043 0.00274 0.0
H1315 H 0.47082 0.39463 0.99645 0.0
H1316 H 0.43561 0.37684 0.9603 0.0
C1317 C 0.39356 0.30249 0.95692 0.0
C1318 C 0.4236 0.33876 0.98434 0.0
C1319 C 0.38589 0.2829 0.95179 0.0
C1320 C 0.47513 0.42397 0.99614 0.0
C1321 C 0.46505 0.40348 0.99261 0.0
C1322 C 0.43217 0.36637 0.96713 0.0
C1323 C 0.40823 0.31054 0.96715 0.0
C1324 C 0.41809 0.33205 0.97163 0.0
C1325 C 0.44799 0.39461 0.98398 0.0
C1326 C 0.43771 0.37306 0.97981 0.0
H1327 H 0.41176 0.26947 0.97155 0.0
H1328 H 0.42558 0.3039 0.98039 0.0
H1329 H 0.41901 0.34157 0.95321 0.0
H1330 H 0.4452 0.43571 0.97871 0.0
H1331 H 0.42778 0.40004 0.97251 0.0
C1332 C 0.13946 0.71289 0.04934 0.0
C1333 C 0.1371 0.72042 0.0608 0.0
C1334 C 0.12551 0.69363 0.04412 0.0
C1335 C 0.08657 0.64543 0.05284 0.0
H1336 H 0.07359 0.63234 0.01723 0.0
C1337 C 0.02842 0.56648 0.02965 0.0
C1338 C 0.03464 0.55931 0.01967 0.0
C1339 C 0.03975 0.58637 0.03469 0.0
C1340 C 0.07715 0.63579 0.0272 0.0
H1341 H 0.11789 0.71408 0.07553 0.0
H1342 H 0.09329 0.68059 0.06631 0.0
H1343 H 0.09508 0.66693 0.02581 0.0
H1344 H 0.05756 0.56745 0.00714 0.0
H1345 H 0.07717 0.60204 0.01592 0.0
H1346 H 0.06855 0.61421 0.05417 0.0
C1347 C 0.10617 0.68933 0.06149 0.0
C1348 C 0.0895 0.65559 0.03211 0.0
C1349 C 0.12021 0.70853 0.06676 0.0
C1350 C 0.05236 0.57245 0.01484 0.0
C1351 C 0.06353 0.59232 0.0198 0.0
C1352 C 0.07409 0.62564 0.04792 0.0
C1353 C 0.10879 0.68153 0.0502 0.0
C1354 C 0.0946 0.66063 0.04499 0.0
C1355 C 0.05735 0.5995 0.02976 0.0
C1356 C 0.06948 0.6206 0.03504 0.0
H1357 H 0.15246 0.72165 0.04462 0.0
H1358 H 0.12819 0.68803 0.03551 0.0
H1359 H 0.09041 0.64871 0.06278 0.0
H1360 H 0.01485 0.55674 0.03358 0.0
H1361 H 0.0346 0.59156 0.04234 0.0
C1362 C 0.30644 0.4367 0.0566 0.0
C1363 C 0.30766 0.44513 0.06872 0.0
C1364 C 0.32363 0.44225 0.05066 0.0
C1365 C 0.37529 0.45793 0.05535 0.0
H1366 H 0.38237 0.48467 0.02562 0.0
C1367 C 0.44866 0.48788 0.03274 0.0
C1368 C 0.44787 0.48779 0.0198 0.0
C1369 C 0.43183 0.48354 0.0388 0.0
C1370 C 0.38056 0.4769 0.03377 0.0
H1371 H 0.32834 0.4662 0.08397 0.0
H1372 H 0.35827 0.47487 0.07378 0.0
H1373 H 0.35217 0.47445 0.03582 0.0
H1374 H 0.42888 0.48298 0.00302 0.0
H1375 H 0.39923 0.47436 0.01342 0.0
H1376 H 0.403 0.4593 0.05313 0.0
C1377 C 0.34386 0.46415 0.06892 0.0
C1378 C 0.36329 0.4712 0.03965 0.0
C1379 C 0.32666 0.45899 0.07478 0.0
C1380 C 0.42996 0.48337 0.01303 0.0
C1381 C 0.41296 0.47853 0.01904 0.0
C1382 C 0.39234 0.46317 0.04933 0.0
C1383 C 0.34244 0.45596 0.05679 0.0
C1384 C 0.36059 0.46178 0.05051 0.0
C1385 C 0.4136 0.47848 0.03204 0.0
C1386 C 0.39533 0.47285 0.03847 0.0
H1387 H 0.29225 0.42566 0.05168 0.0
H1388 H 0.32225 0.43562 0.04132 0.0
H1389 H 0.3734 0.45051 0.06368 0.0
H1390 H 0.46236 0.49145 0.03822 0.0
H1391 H 0.43322 0.48424 0.04881 0.0
C1392 C 0.6046 0.89882 0.05679 0.0
C1393 C 0.60074 0.88031 0.05125 0.0
C1394 C 0.59648 0.90913 0.05112 0.0
C1395 C 0.55426 0.90102 0.02983 0.0
H1396 H 0.58484 0.95821 0.02951 0.0
C1397 C 0.52134 0.94592 0.00804 0.0
C1398 C 0.52656 0.96423 0.01463 0.0
C1399 C 0.53066 0.93533 0.01157 0.0
C1400 C 0.57605 0.94225 0.02963 0.0
H1401 H 0.5856 0.8582 0.03535 0.0
H1402 H 0.57141 0.87631 0.02539 0.0
H1403 H 0.6012 0.94064 0.03717 0.0
H1404 H 0.54529 0.98551 0.03032 0.0
H1405 H 0.56117 0.96694 0.03657 0.0
H1406 H 0.52898 0.90268 0.02256 0.0
C1407 C 0.58068 0.88277 0.03415 0.0
C1408 C 0.58544 0.93221 0.03398 0.0
C1409 C 0.58894 0.87252 0.03978 0.0
C1410 C 0.54102 0.97154 0.02495 0.0
C1411 C 0.55026 0.96095 0.02849 0.0
C1412 C 0.54482 0.9111 0.02552 0.0
C1413 C 0.58422 0.9011 0.03982 0.0
C1414 C 0.5746 0.91153 0.03429 0.0
C1415 C 0.54535 0.94283 0.02178 0.0
C1416 C 0.55555 0.93187 0.02555 0.0
H1417 H 0.61377 0.90524 0.06559 0.0
H1418 H 0.59934 0.92315 0.05577 0.0
H1419 H 0.54547 0.88509 0.03008 0.0
H1420 H 0.5103 0.93992 1.00002 0.0
H1421 H 0.52664 0.92147 0.00616 0.0
C1422 C 0.97135 0.20071 0.3815 0.0
C1423 C 0.97063 0.20581 0.39402 0.0
C1424 C 0.98897 0.21101 0.37595 0.0
C1425 C 0.04304 0.2401 0.38334 0.0
H1426 H 0.04317 0.25958 0.35138 0.0
C1427 C 0.11599 0.29366 0.36393 0.0
C1428 C 0.11696 0.29219 0.35106 0.0
C1429 C 0.09804 0.28228 0.36888 0.0
C1430 C 0.04338 0.25395 0.36021 0.0
H1431 H 0.9877 0.22565 0.41054 0.0
H1432 H 0.01856 0.24358 0.40086 0.0
H1433 H 0.01189 0.24157 0.36052 0.0
H1434 H 0.09991 0.27718 0.33333 0.0
H1435 H 0.06865 0.25684 0.34201 0.0
H1436 H 0.07437 0.25208 0.38301 0.0
C1437 C 0.00549 0.23163 0.39535 0.0
C1438 C 0.02546 0.24372 0.36546 0.0
C1439 C 0.98781 0.22151 0.40086 0.0
C1440 C 0.09964 0.27874 0.34328 0.0
C1441 C 0.08168 0.26718 0.34826 0.0
C1442 C 0.06092 0.25011 0.37803 0.0
C1443 C 0.00626 0.22642 0.38286 0.0
C1444 C 0.02515 0.23687 0.37713 0.0
C1445 C 0.08061 0.26895 0.36112 0.0
C1446 C 0.06137 0.25736 0.36646 0.0
H1447 H 0.95828 0.18875 0.376 0.0
H1448 H 0.98918 0.20663 0.36632 0.0
H1449 H 0.04317 0.23468 0.39226 0.0
H1450 H 0.12899 0.30399 0.37021 0.0
H1451 H 0.09776 0.28435 0.3788 0.0
C1452 C 0.805 0.77239 0.39276 0.0
C1453 C 0.81742 0.78392 0.40352 0.0
C1454 C 0.79182 0.77737 0.38692 0.0
C1455 C 0.76318 0.80184 0.39242 0.0
H1456 H 0.76383 0.80789 0.35729 0.0
C1457 C 0.71542 0.82987 0.36765 0.0
C1458 C 0.70763 0.82228 0.35527 0.0
C1459 C 0.72909 0.82559 0.3736 0.0
C1460 C 0.76314 0.80593 0.36706 0.0
H1461 H 0.82562 0.80945 0.41672 0.0
H1462 H 0.80214 0.81789 0.40664 0.0
H1463 H 0.78668 0.79911 0.36755 0.0
H1464 H 0.70775 0.80393 0.33947 0.0
H1465 H 0.73082 0.79575 0.34994 0.0
H1466 H 0.73921 0.80789 0.39195 0.0
C1467 C 0.80279 0.80514 0.40269 0.0
C1468 C 0.77636 0.80102 0.37293 0.0
C1469 C 0.81626 0.80039 0.40841 0.0
C1470 C 0.71364 0.81018 0.34899 0.0
C1471 C 0.72702 0.8056 0.35499 0.0
C1472 C 0.74969 0.80639 0.38651 0.0
C1473 C 0.79054 0.79375 0.39185 0.0
C1474 C 0.77652 0.79897 0.38566 0.0
C1475 C 0.73505 0.81332 0.36737 0.0
C1476 C 0.74949 0.80854 0.37373 0.0
H1477 H 0.8057 0.75969 0.38878 0.0
H1478 H 0.78245 0.76831 0.3786 0.0
H1479 H 0.7629 0.80015 0.40223 0.0
H1480 H 0.71118 0.83938 0.37271 0.0
H1481 H 0.73517 0.83216 0.38304 0.0
C1482 C 0.25266 0.04594 0.37806 0.0
C1483 C 0.26082 0.05257 0.39048 0.0
C1484 C 0.24494 0.02608 0.37348 0.0
C1485 C 0.22337 0.97612 0.38327 0.0
H1486 H 0.23546 0.96257 0.35125 0.0
C1487 C 0.19613 0.89485 0.36385 0.0
C1488 C 0.18986 0.88976 0.35109 0.0
C1489 C 0.20539 0.91468 0.36899 0.0
C1490 C 0.23174 0.96609 0.36015 0.0
H1491 H 0.26725 0.04365 0.40786 0.0
H1492 H 0.2537 0.00885 0.39983 0.0
H1493 H 0.25067 0.99736 0.35952 0.0
H1494 H 0.18796 0.90141 0.33376 0.0
H1495 H 0.20359 0.93577 0.34274 0.0
H1496 H 0.2041 0.94491 0.3838 0.0
C1497 C 0.25329 0.01905 0.39367 0.0
C1498 C 0.24051 0.98602 0.36489 0.0
C1499 C 0.2612 0.03897 0.39822 0.0
C1500 C 0.19277 0.90484 0.34361 0.0
C1501 C 0.20187 0.92459 0.34875 0.0
C1502 C 0.21446 0.95617 0.37849 0.0
C1503 C 0.24506 0.01241 0.38126 0.0
C1504 C 0.23631 0.99124 0.37646 0.0
C1505 C 0.20845 0.92979 0.36148 0.0
C1506 C 0.21843 0.95093 0.36682 0.0
H1507 H 0.25231 0.05615 0.37188 0.0
H1508 H 0.23854 0.02133 0.3639 0.0
H1509 H 0.21971 0.97975 0.39217 0.0
H1510 H 0.19418 0.88358 0.36985 0.0
H1511 H 0.21045 0.9182 0.3788 0.0
C1512 C 0.5408 0.63016 0.26834 0.0
C1513 C 0.52637 0.61713 0.27551 0.0
C1514 C 0.55457 0.64965 0.27327 0.0
C1515 C 0.57884 0.6809 0.30265 0.0
H1516 H 0.58674 0.72466 0.28408 0.0
C1517 C 0.6193 0.76131 0.32554 0.0
C1518 C 0.63172 0.77662 0.31866 0.0
C1519 C 0.60735 0.74193 0.31989 0.0
C1520 C 0.58498 0.71263 0.28931 0.0
H1521 H 0.51519 0.61407 0.2935 0.0
H1522 H 0.53936 0.64812 0.30217 0.0
H1523 H 0.56438 0.69049 0.27492 0.0
H1524 H 0.64139 0.78358 0.30042 0.0
H1525 H 0.62077 0.74953 0.29056 0.0
H1526 H 0.59949 0.70285 0.31699 0.0
C1527 C 0.53999 0.64326 0.29273 0.0
C1528 C 0.57212 0.69307 0.28406 0.0
C1529 C 0.52609 0.62386 0.28775 0.0
C1530 C 0.63191 0.77212 0.30596 0.0
C1531 C 0.62003 0.75262 0.3003 0.0
C1532 C 0.59182 0.70041 0.30784 0.0
C1533 C 0.5543 0.65636 0.28552 0.0
C1534 C 0.56873 0.67705 0.29076 0.0
C1535 C 0.60763 0.73729 0.30722 0.0
C1536 C 0.59482 0.71653 0.30131 0.0
H1537 H 0.54124 0.62537 0.25884 0.0
H1538 H 0.56551 0.65943 0.26754 0.0
H1539 H 0.57673 0.6688 0.30793 0.0
H1540 H 0.61864 0.76429 0.33532 0.0
H1541 H 0.59767 0.73062 0.32545 0.0
C1542 C 0.33712 0.86789 0.26397 0.0
C1543 C 0.3556 0.88434 0.26871 0.0
C1544 C 0.32005 0.86312 0.26987 0.0
C1545 C 0.30028 0.88378 0.29357 0.0
H1546 H 0.2598 0.82831 0.2931 0.0
C1547 C 0.23464 0.85569 0.32405 0.0
C1548 C 0.21563 0.84323 0.31763 0.0
C1549 C 0.2518 0.86078 0.31816 0.0
C1550 C 0.27096 0.84386 0.29325 0.0
H1551 H 0.37083 0.90859 0.28339 0.0
H1552 H 0.34129 0.8999 0.29401 0.0
H1553 H 0.28967 0.8371 0.28285 0.0
H1554 H 0.19974 0.82604 0.30007 0.0
H1555 H 0.22976 0.83454 0.28991 0.0
H1556 H 0.28166 0.89032 0.30437 0.0
C1557 C 0.3397 0.89098 0.28551 0.0
C1558 C 0.28806 0.84896 0.28731 0.0
C1559 C 0.3567 0.89594 0.27947 0.0
C1560 C 0.21416 0.8357 0.30526 0.0
C1561 C 0.23132 0.84049 0.29946 0.0
C1562 C 0.28334 0.87863 0.2997 0.0
C1563 C 0.3211 0.87447 0.2808 0.0
C1564 C 0.30294 0.86902 0.2873 0.0
C1565 C 0.2503 0.8532 0.30581 0.0
C1566 C 0.26847 0.85863 0.29954 0.0
H1567 H 0.33584 0.85882 0.2556 0.0
H1568 H 0.306 0.85059 0.26576 0.0
H1569 H 0.31113 0.89939 0.2936 0.0
H1570 H 0.23628 0.8618 0.33356 0.0
H1571 H 0.26627 0.87052 0.32328 0.0
C1572 C 0.08578 0.45794 0.29616 0.0
C1573 C 0.07146 0.45 0.28574 0.0
C1574 C 0.09374 0.44692 0.301 0.0
C1575 C 0.0999 0.40356 0.29246 0.0
H1576 H 0.11638 0.41025 0.32763 0.0
C1577 C 0.14737 0.37156 0.31195 0.0
C1578 C 0.14401 0.36452 0.32364 0.0
C1579 C 0.13814 0.38172 0.30747 0.0
C1580 C 0.11165 0.40796 0.3178 0.0
H1581 H 0.05397 0.42388 0.27246 0.0
H1582 H 0.06701 0.4043 0.28131 0.0
H1583 H 0.09971 0.42728 0.31987 0.0
H1584 H 0.12807 0.36222 0.33971 0.0
H1585 H 0.11139 0.3792 0.33173 0.0
H1586 H 0.11102 0.38351 0.29046 0.0
C1587 C 0.07258 0.41932 0.28552 0.0
C1588 C 0.10234 0.41801 0.31331 0.0
C1589 C 0.06482 0.43046 0.28055 0.0
C1590 C 0.13113 0.36768 0.33072 0.0
C1591 C 0.12165 0.37753 0.32616 0.0
C1592 C 0.10894 0.39326 0.29697 0.0
C1593 C 0.08737 0.4275 0.29569 0.0
C1594 C 0.09649 0.4161 0.30056 0.0
C1595 C 0.12507 0.38476 0.31449 0.0
C1596 C 0.11509 0.39544 0.30969 0.0
H1597 H 0.091 0.47278 0.30056 0.0
H1598 H 0.10525 0.45386 0.30875 0.0
H1599 H 0.09589 0.4019 0.28256 0.0
H1600 H 0.15732 0.36943 0.30632 0.0
H1601 H 0.14147 0.38737 0.29856 0.0
C1602 C 0.36424 0.46869 0.28945 0.0
C1603 C 0.3661 0.46061 0.278 0.0
C1604 C 0.34708 0.45838 0.29543 0.0
C1605 C 0.30473 0.40806 0.29687 0.0
H1606 H 0.27931 0.43546 0.31118 0.0
C1607 C 0.22584 0.36509 0.3112 0.0
C1608 C 0.22179 0.37164 0.32242 0.0
C1609 C 0.24376 0.37672 0.30633 0.0
C1610 C 0.28638 0.42766 0.30738 0.0
H1611 H 0.3515 0.43532 0.26392 0.0
H1612 H 0.3215 0.41742 0.27429 0.0
H1613 H 0.3102 0.45422 0.30167 0.0
H1614 H 0.23326 0.39585 0.33719 0.0
H1615 H 0.26487 0.41622 0.32869 0.0
H1616 H 0.28102 0.38153 0.30251 0.0
C1617 C 0.33336 0.43166 0.27869 0.0
C1618 C 0.30405 0.43839 0.30192 0.0
C1619 C 0.35046 0.442 0.27268 0.0
C1620 C 0.23594 0.39039 0.32853 0.0
C1621 C 0.254 0.40207 0.32364 0.0
C1622 C 0.28714 0.39737 0.30233 0.0
C1623 C 0.33148 0.43973 0.29013 0.0
C1624 C 0.31326 0.42864 0.29647 0.0
C1625 C 0.25821 0.3952 0.31257 0.0
C1626 C 0.27758 0.40697 0.30749 0.0
H1627 H 0.37595 0.4831 0.29372 0.0
H1628 H 0.34613 0.46492 0.30428 0.0
H1629 H 0.31168 0.40019 0.29298 0.0
H1630 H 0.21518 0.35086 0.30613 0.0
H1631 H 0.24629 0.3712 0.29763 0.0
C1632 C 0.51046 0.87259 0.28013 0.0
C1633 C 0.51452 0.88248 0.26938 0.0
C1634 C 0.52407 0.86794 0.28573 0.0
C1635 C 0.57706 0.88222 0.28835 0.0
H1636 H 0.55785 0.83025 0.29972 0.0
C1637 C 0.63076 0.85646 0.30716 0.0
C1638 C 0.62558 0.8455 0.31744 0.0
C1639 C 0.61727 0.86075 0.30097 0.0
C1640 C 0.56347 0.84492 0.29674 0.0
H1641 H 0.53618 0.89547 0.25619 0.0
H1642 H 0.5599 0.88724 0.26595 0.0
H1643 H 0.53426 0.8383 0.2897 0.0
H1644 H 0.60213 0.83053 0.3293 0.0
H1645 H 0.57884 0.83829 0.31868 0.0
H1646 H 0.60623 0.88897 0.29553 0.0
C1647 C 0.54621 0.88315 0.27005 0.0
C1648 C 0.54993 0.84951 0.29098 0.0
C1649 C 0.53254 0.88768 0.2644 0.0
C1650 C 0.6066 0.8389 0.32137 0.0
C1651 C 0.59317 0.84327 0.31523 0.0
C1652 C 0.5906 0.87767 0.29417 0.0
C1653 C 0.5421 0.87317 0.28076 0.0
C1654 C 0.55656 0.86823 0.28675 0.0
C1655 C 0.59831 0.85424 0.30494 0.0
C1656 C 0.58397 0.85898 0.29849 0.0
H1657 H 0.49664 0.86824 0.28414 0.0
H1658 H 0.52055 0.86042 0.29404 0.0
H1659 H 0.58261 0.89686 0.28532 0.0
H1660 H 0.64521 0.86168 0.30384 0.0
H1661 H 0.62163 0.86899 0.29298 0.0
C1662 C 0.06577 0.62152 0.27685 0.0
C1663 C 0.07043 0.60877 0.28294 0.0
C1664 C 0.07367 0.64125 0.28178 0.0
C1665 C 0.09862 0.67585 0.31053 0.0
H1666 H 0.11595 0.71587 0.28751 0.0
C1667 C 0.14671 0.76019 0.32607 0.0
C1668 C 0.14048 0.77233 0.32062 0.0
C1669 C 0.138 0.74012 0.32163 0.0
C1670 C 0.11103 0.70484 0.29403 0.0
H1671 H 0.08683 0.60656 0.299 0.0
H1672 H 0.10097 0.64114 0.30753 0.0
H1673 H 0.10076 0.68094 0.27962 0.0
H1674 H 0.12039 0.773 0.30615 0.0
H1675 H 0.10534 0.73801 0.29835 0.0
H1676 H 0.10931 0.69994 0.32495 0.0
C1677 C 0.0909 0.63583 0.29907 0.0
C1678 C 0.10225 0.68481 0.28953 0.0
C1679 C 0.08283 0.61602 0.29419 0.0
C1680 C 0.12551 0.76404 0.31057 0.0
C1681 C 0.11695 0.74403 0.30605 0.0
C1682 C 0.10757 0.69592 0.31504 0.0
C1683 C 0.08657 0.64874 0.29286 0.0
C1684 C 0.09586 0.67005 0.29771 0.0
C1685 C 0.12305 0.73186 0.31157 0.0
C1686 C 0.1138 0.71059 0.30683 0.0
H1687 H 0.05601 0.61621 0.26825 0.0
H1688 H 0.06966 0.65064 0.27689 0.0
H1689 H 0.09362 0.66487 0.31709 0.0
H1690 H 0.15818 0.76612 0.33385 0.0
H1691 H 0.1431 0.73109 0.32598 0.0
C1692 C 0.7897 0.04052 0.40135 0.0
C1693 C 0.80674 0.0528 0.39564 0.0
C1694 C 0.77611 0.02128 0.39593 0.0
C1695 C 0.76079 0.98831 0.3663 0.0
H1696 H 0.7382 0.94632 0.38783 0.0
C1697 C 0.72063 0.90501 0.34813 0.0
C1698 C 0.70265 0.89247 0.35291 0.0
C1699 C 0.73264 0.92475 0.35325 0.0
C1700 C 0.74423 0.95792 0.38172 0.0
H1701 H 0.82293 0.05459 0.37978 0.0
H1702 H 0.79945 0.02091 0.37041 0.0
H1703 H 0.76036 0.98054 0.39685 0.0
H1704 H 0.68323 0.89082 0.36688 0.0
H1705 H 0.70435 0.92531 0.37587 0.0
H1706 H 0.74497 0.96551 0.35116 0.0
C1707 C 0.79629 0.02624 0.37894 0.0
C1708 C 0.75689 0.97755 0.38687 0.0
C1709 C 0.80979 0.04554 0.38431 0.0
C1710 C 0.69699 0.90009 0.36297 0.0
C1711 C 0.70911 0.9198 0.36816 0.0
C1712 C 0.74826 0.96865 0.36115 0.0
C1713 C 0.77934 0.01381 0.38472 0.0
C1714 C 0.76539 0.993 0.37923 0.0
C1715 C 0.72702 0.93235 0.36332 0.0
C1716 C 0.73992 0.95326 0.3688 0.0
H1717 H 0.78685 0.04583 0.41001 0.0
H1718 H 0.76303 0.01227 0.40052 0.0
H1719 H 0.76677 -0.00015 0.36014 0.0
H1720 H 0.72541 0.89963 0.34037 0.0
H1721 H 0.74648 0.93403 0.34941 0.0
C1722 C 0.9893 0.77692 0.40684 0.0
C1723 C 0.97521 0.7818 0.40215 0.0
C1724 C 0.00635 0.78174 0.40089 0.0
C1725 C 0.03857 0.81521 0.37916 0.0
H1726 H 0.05583 0.77656 0.37486 0.0
C1727 C 0.10093 0.82613 0.34856 0.0
C1728 C 0.11436 0.82015 0.35283 0.0
C1729 C 0.08405 0.82166 0.35462 0.0
C1730 C 0.05137 0.78764 0.37611 0.0
H1731 H 0.96822 0.79591 0.38765 0.0
H1732 H 0.99782 0.8041 0.3772 0.0
H1733 H 0.02638 0.76845 0.38543 0.0
H1734 H 0.12066 0.80505 0.367 0.0
H1735 H 0.09148 0.79754 0.37762 0.0
H1736 H 0.0636 0.83444 0.36989 0.0
C1737 C 0.99574 0.79663 0.38551 0.0
C1738 C 0.03447 0.78297 0.38218 0.0
C1739 C 0.97866 0.79174 0.39142 0.0
C1740 C 0.11058 0.80976 0.36337 0.0
C1741 C 0.09375 0.80535 0.36944 0.0
C1742 C 0.05551 0.81991 0.37313 0.0
C1743 C 0.00977 0.79165 0.39015 0.0
C1744 C 0.02785 0.79669 0.38377 0.0
C1745 C 0.08021 0.81116 0.36512 0.0
C1746 C 0.06214 0.80618 0.37152 0.0
H1747 H 0.98702 0.76913 0.41502 0.0
H1748 H 0.01696 0.77786 0.40477 0.0
H1749 H 0.03403 0.82623 0.38038 0.0
H1750 H 0.10333 0.83411 0.34045 0.0
H1751 H 0.07382 0.82617 0.35094 0.0
C1752 C 0.25516 0.20567 0.37331 0.0
C1753 C 0.26733 0.21394 0.38463 0.0
C1754 C 0.24699 0.21584 0.36744 0.0
C1755 C 0.25243 0.26547 0.36632 0.0
H1756 H 0.19571 0.23621 0.35567 0.0
C1757 C 0.20825 0.30511 0.35769 0.0
C1758 C 0.19343 0.2977 0.34757 0.0
C1759 C 0.21755 0.29452 0.36109 0.0
C1760 C 0.21161 0.24454 0.35841 0.0
H1761 H 0.28113 0.23962 0.39843 0.0
H1762 H 0.26685 0.25734 0.38823 0.0
H1763 H 0.2121 0.21861 0.36332 0.0
H1764 H 0.17666 0.2732 0.33312 0.0
H1765 H 0.19308 0.25472 0.33903 0.0
H1766 H 0.25197 0.29142 0.36154 0.0
C1767 C 0.26363 0.24303 0.38387 0.0
C1768 C 0.221 0.23446 0.36279 0.0
C1769 C 0.27166 0.23282 0.38977 0.0
C1770 C 0.18797 0.2793 0.34099 0.0
C1771 C 0.19734 0.26869 0.34439 0.0
C1772 C 0.24308 0.27553 0.3619 0.0
C1773 C 0.251 0.23454 0.37273 0.0
C1774 C 0.24143 0.24489 0.367 0.0
C1775 C 0.21234 0.27627 0.35443 0.0
C1776 C 0.22249 0.26524 0.35812 0.0
H1777 H 0.25145 0.19107 0.36918 0.0
H1778 H 0.23743 0.20901 0.35882 0.0
H1779 H 0.26827 0.27384 0.3693 0.0
H1780 H 0.21273 0.31915 0.36304 0.0
H1781 H 0.22872 0.30058 0.36904 0.0
C1782 C 0.65539 0.55579 0.73362 0.0
C1783 C 0.63827 0.54007 0.72676 0.0
C1784 C 0.6731 0.56597 0.72816 0.0
C1785 C 0.69323 0.57813 0.69832 0.0
H1786 H 0.74215 0.58675 0.71602 0.0
C1787 C 0.7676 0.61344 0.67634 0.0
C1788 C 0.78485 0.62696 0.68416 0.0
C1789 C 0.74961 0.60183 0.68128 0.0
C1790 C 0.72869 0.58471 0.711 0.0
H1791 H 0.62606 0.52298 0.70874 0.0
H1792 H 0.65701 0.54096 0.69913 0.0
H1793 H 0.71089 0.56921 0.72518 0.0
H1794 H 0.79673 0.63883 0.70331 0.0
H1795 H 0.76545 0.61909 0.71183 0.0
H1796 H 0.711 0.59405 0.68428 0.0
C1797 C 0.65673 0.54532 0.70875 0.0
C1798 C 0.71078 0.57461 0.71626 0.0
C1799 C 0.63908 0.53497 0.71426 0.0
C1800 C 0.78378 0.62845 0.69701 0.0
C1801 C 0.7658 0.61701 0.70192 0.0
C1802 C 0.71119 0.58844 0.69311 0.0
C1803 C 0.67396 0.56078 0.71568 0.0
C1804 C 0.69289 0.57129 0.70999 0.0
C1805 C 0.74844 0.60361 0.69413 0.0
C1806 C 0.72918 0.59195 0.69942 0.0
H1807 H 0.65522 0.55993 0.7433 0.0
H1808 H 0.68613 0.57795 0.73369 0.0
H1809 H 0.67966 0.5759 0.69334 0.0
H1810 H 0.76794 0.61186 0.6664 0.0
H1811 H 0.73664 0.59144 0.67501 0.0
C1812 C 0.4727 0.1062 0.72737 0.0
C1813 C 0.48468 0.11735 0.73834 0.0
C1814 C 0.4597 0.11134 0.72145 0.0
C1815 C 0.43066 0.1354 0.7269 0.0
H1816 H 0.43209 0.14211 0.69187 0.0
C1817 C 0.3829 0.16319 0.70189 0.0
C1818 C 0.37533 0.15568 0.68946 0.0
C1819 C 0.3966 0.15903 0.70791 0.0
C1820 C 0.43119 0.13998 0.70161 0.0
H1821 H 0.49231 0.14238 0.75183 0.0
H1822 H 0.46916 0.15111 0.7416 0.0
H1823 H 0.45492 0.13343 0.70226 0.0
H1824 H 0.3759 0.1376 0.67367 0.0
H1825 H 0.39905 0.12962 0.68427 0.0
H1826 H 0.40651 0.14117 0.72626 0.0
C1827 C 0.47 0.13853 0.73755 0.0
C1828 C 0.4444 0.13512 0.70756 0.0
C1829 C 0.48329 0.13362 0.74335 0.0
C1830 C 0.38161 0.14378 0.68322 0.0
C1831 C 0.39503 0.13932 0.6893 0.0
C1832 C 0.4172 0.13991 0.72091 0.0
C1833 C 0.45818 0.1275 0.72651 0.0
C1834 C 0.44427 0.13281 0.72025 0.0
C1835 C 0.40282 0.14696 0.70172 0.0
C1836 C 0.41727 0.14228 0.70817 0.0
H1837 H 0.47359 0.09367 0.72328 0.0
H1838 H 0.45066 0.10254 0.71298 0.0
H1839 H 0.43014 0.1335 0.73668 0.0
H1840 H 0.37846 0.17256 0.70692 0.0
H1841 H 0.40249 0.16552 0.71738 0.0
C1842 C 0.93279 0.37948 0.71335 0.0
C1843 C 0.92423 0.38428 0.723 0.0
C1844 C 0.92481 0.35971 0.7084 0.0
C1845 C 0.87902 0.30992 0.70716 0.0
H1846 H 0.91359 0.29131 0.69539 0.0
C1847 C 0.85391 0.227 0.69514 0.0
C1848 C 0.85749 0.22211 0.68327 0.0
C1849 C 0.86222 0.24687 0.69993 0.0
C1850 C 0.9038 0.29639 0.6986 0.0
H1851 H 0.90114 0.37239 0.73535 0.0
H1852 H 0.88769 0.33782 0.72714 0.0
H1853 H 0.92798 0.32583 0.70415 0.0
H1854 H 0.87288 0.2341 0.66721 0.0
H1855 H 0.88785 0.2689 0.67576 0.0
H1856 H 0.85496 0.28017 0.70197 0.0
C1857 C 0.90006 0.34924 0.72301 0.0
C1858 C 0.91198 0.31618 0.70355 0.0
C1859 C 0.90781 0.36902 0.72779 0.0
C1860 C 0.8698 0.23745 0.67636 0.0
C1861 C 0.87843 0.25731 0.68126 0.0
C1862 C 0.87092 0.29007 0.70242 0.0
C1863 C 0.90832 0.34431 0.71317 0.0
C1864 C 0.89969 0.32323 0.70789 0.0
C1865 C 0.87458 0.26217 0.69304 0.0
C1866 C 0.88323 0.28317 0.69808 0.0
H1867 H 0.94538 0.39106 0.70946 0.0
H1868 H 0.93138 0.35659 0.7007 0.0
H1869 H 0.86899 0.31485 0.71012 0.0
H1870 H 0.84444 0.21549 0.70067 0.0
H1871 H 0.85915 0.2503 0.70907 0.0
C1872 C 0.19331 0.95795 0.62046 0.0
C1873 C 0.19378 0.95137 0.60822 0.0
C1874 C 0.20719 0.97728 0.62556 0.0
C1875 C 0.23972 0.02726 0.61726 0.0
H1876 H 0.26647 0.03642 0.65031 0.0
C1877 C 0.29961 0.10593 0.63969 0.0
C1878 C 0.29927 0.11028 0.65239 0.0
C1879 C 0.28767 0.08651 0.63392 0.0
C1880 C 0.25897 0.03416 0.64112 0.0
H1881 H 0.20895 0.95984 0.59167 0.0
H1882 H 0.23318 0.99379 0.60059 0.0
H1883 H 0.2437 0.00251 0.64102 0.0
H1884 H 0.28585 0.09775 0.66893 0.0
H1885 H 0.26478 0.06422 0.65885 0.0
H1886 H 0.25452 0.0589 0.61746 0.0
C1887 C 0.22211 0.98394 0.60622 0.0
C1888 C 0.24598 0.01473 0.6358 0.0
C1889 C 0.20837 0.96451 0.60116 0.0
C1890 C 0.28663 0.09489 0.65916 0.0
C1891 C 0.27462 0.07559 0.65338 0.0
C1892 C 0.25258 0.04674 0.62263 0.0
C1893 C 0.22166 0.99049 0.61848 0.0
C1894 C 0.2361 0.01109 0.62387 0.0
C1895 C 0.27506 0.0711 0.64071 0.0
C1896 C 0.2622 0.05043 0.63468 0.0
H1897 H 0.1823 0.94807 0.62612 0.0
H1898 H 0.20642 0.98201 0.635 0.0
H1899 H 0.23215 0.02486 0.60807 0.0
H1900 H 0.30925 0.11745 0.63424 0.0
H1901 H 0.28854 0.08354 0.62417 0.0
C1902 C 0.02236 0.21122 0.61636 0.0
C1903 C 0.02355 0.21642 0.60417 0.0
C1904 C 0.00529 0.20638 0.62228 0.0
C1905 C 0.95949 0.21047 0.62031 0.0
H1906 H 0.94157 0.16878 0.64217 0.0
C1907 C 0.88239 0.17632 0.63887 0.0
C1908 C 0.88196 0.17404 0.65161 0.0
C1909 C 0.89973 0.18151 0.63319 0.0
C1910 C 0.94649 0.18056 0.63617 0.0
H1911 H 0.00772 0.22048 0.58859 0.0
H1912 H 0.97772 0.21159 0.59875 0.0
H1913 H 0.97155 0.17778 0.63197 0.0
H1914 H 0.89941 0.17517 0.66831 0.0
H1915 H 0.92964 0.18402 0.65833 0.0
H1916 H 0.9341 0.21288 0.62434 0.0
C1917 C 0.99014 0.2117 0.6039 0.0
C1918 C 0.96373 0.18579 0.63034 0.0
C1919 C 0.00731 0.21674 0.59804 0.0
C1920 C 0.89922 0.17681 0.65849 0.0
C1921 C 0.91651 0.1818 0.65277 0.0
C1922 C 0.94214 0.20508 0.62603 0.0
C1923 C 0.98887 0.20642 0.6161 0.0
C1924 C 0.97049 0.20085 0.62233 0.0
C1925 C 0.917 0.18435 0.64008 0.0
C1926 C 0.93546 0.19008 0.63403 0.0
H1927 H 0.03476 0.21111 0.62139 0.0
H1928 H 0.00509 0.20281 0.63175 0.0
H1929 H 0.96439 0.22238 0.61441 0.0
H1930 H 0.86941 0.17436 0.63328 0.0
H1931 H 0.89959 0.18317 0.62337 0.0
C1932 C 0.73204 0.76433 0.61377 0.0
C1933 C 0.73814 0.78361 0.61919 0.0
C1934 C 0.74014 0.75338 0.6186 0.0
C1935 C 0.76972 0.752 0.64645 0.0
H1936 H 0.77941 0.71841 0.62349 0.0
C1937 C 0.79893 0.70199 0.66374 0.0
C1938 C 0.81205 0.69912 0.65674 0.0
C1939 C 0.78938 0.71176 0.65917 0.0
C1940 C 0.77706 0.72791 0.63003 0.0
H1941 H 0.75716 0.80619 0.63425 0.0
H1942 H 0.77204 0.78767 0.6422 0.0
H1943 H 0.76408 0.73664 0.61564 0.0
H1944 H 0.82571 0.70444 0.63954 0.0
H1945 H 0.80975 0.72228 0.63176 0.0
H1946 H 0.7837 0.74417 0.66077 0.0
C1947 C 0.76066 0.78074 0.63438 0.0
C1948 C 0.7679 0.73812 0.62554 0.0
C1949 C 0.75234 0.79154 0.62967 0.0
C1950 C 0.81558 0.70636 0.64511 0.0
C1951 C 0.80629 0.71645 0.64062 0.0
C1952 C 0.77916 0.74205 0.65092 0.0
C1953 C 0.75475 0.76155 0.62888 0.0
C1954 C 0.76411 0.75031 0.63369 0.0
C1955 C 0.79299 0.71922 0.64757 0.0
C1956 C 0.78294 0.72985 0.64278 0.0
H1957 H 0.7213 0.75777 0.60562 0.0
H1958 H 0.73494 0.73852 0.61424 0.0
H1959 H 0.76679 0.76099 0.65305 0.0
H1960 H 0.79573 0.69635 0.67268 0.0
H1961 H 0.77894 0.7132 0.66468 0.0
C1962 C 0.03213 0.803 0.62229 0.0
C1963 C 0.03403 0.79479 0.6109 0.0
C1964 C 0.01501 0.79271 0.62831 0.0
C1965 C 0.97292 0.74235 0.63005 0.0
H1966 H 0.9472 0.76967 0.64403 0.0
C1967 C 0.89408 0.69929 0.64445 0.0
C1968 C 0.88994 0.706 0.65559 0.0
C1969 C 0.912 0.71087 0.63957 0.0
C1970 C 0.95436 0.76189 0.64032 0.0
H1971 H 0.01954 0.76928 0.59697 0.0
H1972 H 0.98961 0.7514 0.60742 0.0
H1973 H 0.97803 0.7884 0.63446 0.0
H1974 H 0.90128 0.73046 0.67018 0.0
H1975 H 0.93288 0.75075 0.66165 0.0
H1976 H 0.94936 0.71587 0.63585 0.0
C1977 C 0.00141 0.76574 0.61173 0.0
C1978 C 0.972 0.7726 0.63483 0.0
C1979 C 0.01846 0.77606 0.60568 0.0
C1980 C 0.90402 0.72486 0.66159 0.0
C1981 C 0.92208 0.73649 0.65669 0.0
C1982 C 0.95537 0.73168 0.63555 0.0
C1983 C 0.99949 0.77394 0.62311 0.0
C1984 C 0.98131 0.76288 0.62949 0.0
C1985 C 0.92635 0.72948 0.6457 0.0
C1986 C 0.94571 0.74125 0.64058 0.0
H1987 H 0.04378 0.8175 0.62648 0.0
H1988 H 0.01403 0.79935 0.63711 0.0
H1989 H 0.97996 0.7345 0.62625 0.0
H1990 H 0.88348 0.68497 0.63947 0.0
H1991 H 0.91458 0.70523 0.63093 0.0
C1992 C 0.18129 0.21096 0.61529 0.0
C1993 C 0.18503 0.22005 0.60424 0.0
C1994 C 0.19488 0.20638 0.62098 0.0
C1995 C 0.23722 0.19887 0.61478 0.0
H1996 H 0.24645 0.20501 0.65066 0.0
C1997 C 0.29944 0.19092 0.64134 0.0
C1998 C 0.29414 0.18 0.65165 0.0
C1999 C 0.28633 0.19592 0.63537 0.0
C2000 C 0.24391 0.20306 0.64063 0.0
H2001 H 0.20615 0.23181 0.59064 0.0
H2002 H 0.23005 0.22412 0.60067 0.0
H2003 H 0.22347 0.21387 0.64069 0.0
H2004 H 0.27081 0.16568 0.6637 0.0
H2005 H 0.24806 0.17443 0.65329 0.0
H2006 H 0.25788 0.18824 0.61477 0.0
C2007 C 0.2164 0.22011 0.6048 0.0
C2008 C 0.2307 0.2081 0.6349 0.0
C2009 C 0.20273 0.22457 0.59906 0.0
C2010 C 0.2754 0.17411 0.65579 0.0
C2011 C 0.2624 0.17924 0.64989 0.0
C2012 C 0.25054 0.19395 0.62051 0.0
C2013 C 0.21264 0.21091 0.61582 0.0
C2014 C 0.22707 0.20596 0.6219 0.0
C2015 C 0.26773 0.19025 0.63964 0.0
C2016 C 0.25393 0.19587 0.6335 0.0
H2017 H 0.16764 0.20702 0.61941 0.0
H2018 H 0.19129 0.19897 0.62933 0.0
H2019 H 0.23459 0.19674 0.60475 0.0
H2020 H 0.31373 0.19567 0.63789 0.0
H2021 H 0.29092 0.20453 0.62755 0.0
C2022 C 0.72399 0.95129 0.615 0.0
C2023 C 0.72991 0.93902 0.62054 0.0
C2024 C 0.73157 0.97089 0.62007 0.0
C2025 C 0.75908 0.00632 0.64824 0.0
H2026 H 0.77327 0.04546 0.62473 0.0
C2027 C 0.80936 0.0911 0.66188 0.0
C2028 C 0.80282 0.10325 0.65677 0.0
C2029 C 0.79968 0.07078 0.65791 0.0
C2030 C 0.76921 0.03468 0.6314 0.0
H2031 H 0.74801 0.93737 0.63585 0.0
H2032 H 0.76165 0.9718 0.64461 0.0
H2033 H 0.75747 0.01038 0.61716 0.0
H2034 H 0.78099 0.1036 0.64352 0.0
H2035 H 0.76426 0.06817 0.63653 0.0
H2036 H 0.77139 0.03088 0.66247 0.0
C2037 C 0.75085 0.96621 0.63648 0.0
C2038 C 0.76007 0.01456 0.62708 0.0
C2039 C 0.74309 0.94651 0.63147 0.0
C2040 C 0.78641 0.09466 0.64763 0.0
C2041 C 0.77687 0.07439 0.64359 0.0
C2042 C 0.76841 0.02651 0.65256 0.0
C2043 C 0.74544 0.97874 0.63072 0.0
C2044 C 0.75484 0.00011 0.63543 0.0
C2045 C 0.78342 0.06226 0.64868 0.0
C2046 C 0.77352 0.04086 0.64418 0.0
H2047 H 0.71363 0.94576 0.60666 0.0
H2048 H 0.7267 0.97997 0.61556 0.0
H2049 H 0.75504 0.99559 0.65493 0.0
H2050 H 0.82191 0.09727 0.66896 0.0
H2051 H 0.80513 0.06178 0.66191 0.0
C2052 C 0.47735 0.37929 0.71751 0.0
C2053 C 0.47443 0.38669 0.72883 0.0
C2054 C 0.46382 0.35993 0.71224 0.0
C2055 C 0.42464 0.3114 0.72051 0.0
H2056 H 0.41239 0.29878 0.68484 0.0
C2057 C 0.36485 0.23354 0.69703 0.0
C2058 C 0.37052 0.22586 0.68701 0.0
C2059 C 0.37692 0.25331 0.70213 0.0
C2060 C 0.41578 0.30209 0.69482 0.0
H2061 H 0.4547 0.37993 0.74328 0.0
H2062 H 0.43082 0.34627 0.73397 0.0
H2063 H 0.43414 0.33324 0.69361 0.0
H2064 H 0.39325 0.23295 0.67445 0.0
H2065 H 0.41421 0.26744 0.68333 0.0
H2066 H 0.4061 0.2802 0.72168 0.0
C2067 C 0.44383 0.35521 0.72931 0.0
C2068 C 0.42827 0.32181 0.69985 0.0
C2069 C 0.45746 0.37451 0.73463 0.0
C2070 C 0.38846 0.23838 0.68218 0.0
C2071 C 0.40041 0.25817 0.6872 0.0
C2072 C 0.41202 0.2917 0.71548 0.0
C2073 C 0.44696 0.34759 0.71812 0.0
C2074 C 0.433 0.32671 0.71276 0.0
C2075 C 0.39478 0.26584 0.69722 0.0
C2076 C 0.4076 0.28683 0.70258 0.0
H2077 H 0.49043 0.38827 0.71291 0.0
H2078 H 0.46689 0.35448 0.70372 0.0
H2079 H 0.42821 0.31455 0.73048 0.0
H2080 H 0.35113 0.22429 0.70097 0.0
H2081 H 0.37216 0.25888 0.7098 0.0
C2082 C 0.66059 0.12626 0.74228 0.0
C2083 C 0.64148 0.11328 0.73602 0.0
C2084 C 0.67774 0.13126 0.73641 0.0
C2085 C 0.6976 0.1397 0.70726 0.0
H2086 H 0.73531 0.12444 0.7196 0.0
C2087 C 0.76352 0.15081 0.68018 0.0
C2088 C 0.78109 0.15401 0.68681 0.0
C2089 C 0.7466 0.14617 0.68623 0.0
C2090 C 0.72523 0.12924 0.71613 0.0
H2091 H 0.62585 0.09519 0.71858 0.0
H2092 H 0.6558 0.10491 0.70822 0.0
H2093 H 0.70591 0.1162 0.73026 0.0
H2094 H 0.79507 0.15568 0.70505 0.0
H2095 H 0.76611 0.14881 0.71575 0.0
H2096 H 0.71707 0.15354 0.69348 0.0
C2097 C 0.65729 0.11099 0.71773 0.0
C2098 C 0.70829 0.12432 0.72222 0.0
C2099 C 0.64014 0.10558 0.72368 0.0
C2100 C 0.78162 0.15304 0.69967 0.0
C2101 C 0.76489 0.14891 0.70578 0.0
C2102 C 0.71477 0.14507 0.70134 0.0
C2103 C 0.67619 0.12381 0.72406 0.0
C2104 C 0.6943 0.12939 0.71777 0.0
C2105 C 0.74699 0.14511 0.69915 0.0
C2106 C 0.72882 0.1398 0.70563 0.0
H2107 H 0.66238 0.13288 0.75167 0.0
H2108 H 0.69223 0.14129 0.74143 0.0
H2109 H 0.68701 0.14387 0.70375 0.0
H2110 H 0.76266 0.15128 0.67023 0.0
H2111 H 0.73311 0.14299 0.68069 0.0
C2112 C 0.93717 0.56495 0.72319 0.0
C2113 C 0.93226 0.54587 0.71807 0.0
C2114 C 0.92925 0.57538 0.71744 0.0
C2115 C 0.8864 0.56753 0.6968 0.0
H2116 H 0.91847 0.62427 0.69503 0.0
C2117 C 0.85488 0.61323 0.67451 0.0
C2118 C 0.86078 0.63187 0.68092 0.0
C2119 C 0.86388 0.60235 0.67805 0.0
C2120 C 0.90928 0.60845 0.69554 0.0
H2121 H 0.91537 0.52283 0.70285 0.0
H2122 H 0.9016 0.54115 0.69274 0.0
H2123 H 0.93416 0.60618 0.70285 0.0
H2124 H 0.88048 0.65348 0.69622 0.0
H2125 H 0.89584 0.63444 0.70244 0.0
H2126 H 0.86144 0.56987 0.68973 0.0
C2127 C 0.91152 0.54797 0.70124 0.0
C2128 C 0.91828 0.5981 0.7 0.0
C2129 C 0.91955 0.53758 0.70695 0.0
C2130 C 0.87566 0.63925 0.691 0.0
C2131 C 0.8846 0.62839 0.69453 0.0
C2132 C 0.87737 0.57791 0.69237 0.0
C2133 C 0.91617 0.56691 0.70648 0.0
C2134 C 0.90689 0.57758 0.70084 0.0
C2135 C 0.87894 0.60989 0.68805 0.0
C2136 C 0.88867 0.59854 0.69188 0.0
H2137 H 0.94707 0.57178 0.73169 0.0
H2138 H 0.93297 0.58987 0.72177 0.0
H2139 H 0.87721 0.55175 0.69746 0.0
H2140 H 0.8435 0.60715 0.66668 0.0
H2141 H 0.85928 0.58819 0.67282 0.0
C2142 C 0.47575 0.96905 0.18142 0.0
C2143 C 0.46415 0.94843 0.18188 0.0
C2144 C 0.48048 0.97682 0.17004 0.0
C2145 C 0.46457 0.96504 0.13643 0.0
H2146 H 0.51923 0.0048 0.13316 0.0
C2147 C 0.49185 0.9871 0.08867 0.0
C2148 C 0.50566 0.00716 0.08765 0.0
C2149 C 0.48671 0.98046 0.10026 0.0
C2150 C 0.50383 0.99393 0.13393 0.0
H2151 H 0.44796 0.91984 0.17075 0.0
H2152 H 0.45621 0.93338 0.15092 0.0
H2153 H 0.51005 0.99256 0.15321 0.0
H2154 H 0.52505 0.0359 0.09817 0.0
H2155 H 0.51565 0.02445 0.11834 0.0
H2156 H 0.45824 0.96645 0.11722 0.0
C2157 C 0.46165 0.94355 0.15934 0.0
C2158 C 0.49859 0.98689 0.14544 0.0
C2159 C 0.45707 0.93578 0.1707 0.0
C2160 C 0.51421 0.0204 0.09857 0.0
C2161 C 0.50899 0.01377 0.11017 0.0
C2162 C 0.46977 0.97217 0.12495 0.0
C2163 C 0.47354 0.96414 0.15888 0.0
C2164 C 0.47893 0.97225 0.14679 0.0
C2165 C 0.49514 0.99371 0.11117 0.0
C2166 C 0.48951 0.98658 0.12351 0.0
H2167 H 0.48153 0.97916 0.18987 0.0
H2168 H 0.48953 0.99276 0.16998 0.0
H2169 H 0.44924 0.95397 0.13722 0.0
H2170 H 0.48473 0.97651 0.08048 0.0
H2171 H 0.47622 0.96486 0.10066 0.0
C2172 C 0.99068 0.47784 0.1844 0.0
C2173 C 0.01032 0.48543 0.18974 0.0
C2174 C 0.98643 0.47553 0.17151 0.0
C2175 C 0.01149 0.49492 0.14359 0.0
H2176 H 0.96225 0.45227 0.12596 0.0
C2177 C 0.99718 0.48408 0.0903 0.0
C2178 C 0.97855 0.4807 0.08523 0.0
C2179 C 0.00079 0.4835 0.10297 0.0
C2180 C 0.97601 0.46432 0.13079 0.0
H2181 H 0.04067 0.49536 0.1859 0.0
H2182 H 0.03323 0.49085 0.16344 0.0
H2183 H 0.96902 0.4526 0.14826 0.0
H2184 H 0.94913 0.47407 0.08954 0.0
H2185 H 0.95541 0.47282 0.11164 0.0
H2186 H 0.01852 0.50657 0.12614 0.0
C2187 C 0.02119 0.48729 0.16914 0.0
C2188 C 0.97988 0.46454 0.14356 0.0
C2189 C 0.02545 0.48978 0.18199 0.0
C2190 C 0.96355 0.47649 0.09311 0.0
C2191 C 0.96713 0.47577 0.10577 0.0
C2192 C 0.00769 0.49461 0.13085 0.0
C2193 C 0.00172 0.4806 0.16374 0.0
C2194 C 0.99766 0.47988 0.15011 0.0
C2195 C 0.98583 0.47938 0.11083 0.0
C2196 C 0.9899 0.47936 0.12432 0.0
H2197 H 0.97878 0.47449 0.1902 0.0
H2198 H 0.9713 0.47051 0.16768 0.0
H2199 H 0.02513 0.50721 0.14837 0.0
H2200 H 0.00894 0.48696 0.08447 0.0
H2201 H 0.01526 0.48608 0.10659 0.0
C2202 C 0.48504 0.51289 0.18069 0.0
C2203 C 0.46902 0.49692 0.18533 0.0
C2204 C 0.48893 0.51133 0.16843 0.0
C2205 C 0.46597 0.48199 0.13779 0.0
H2206 H 0.52099 0.50738 0.1305 0.0
C2207 C 0.48972 0.47173 0.08957 0.0
C2208 C 0.50386 0.48922 0.08501 0.0
C2209 C 0.48509 0.47214 0.10177 0.0
C2210 C 0.50556 0.50034 0.13239 0.0
H2211 H 0.44449 0.46677 0.1808 0.0
H2212 H 0.45153 0.46379 0.15939 0.0
H2213 H 0.51361 0.5086 0.15189 0.0
H2214 H 0.52435 0.52077 0.08964 0.0
H2215 H 0.51638 0.52146 0.11102 0.0
H2216 H 0.45804 0.47348 0.11822 0.0
C2217 C 0.46088 0.47769 0.16516 0.0
C2218 C 0.50129 0.50107 0.14464 0.0
C2219 C 0.45687 0.47935 0.17743 0.0
C2220 C 0.51332 0.5071 0.0929 0.0
C2221 C 0.50887 0.50746 0.10514 0.0
C2222 C 0.47026 0.48109 0.12553 0.0
C2223 C 0.47701 0.49367 0.16052 0.0
C2224 C 0.48145 0.4921 0.1475 0.0
C2225 C 0.49471 0.48999 0.1097 0.0
C2226 C 0.49009 0.49042 0.12271 0.0
H2227 H 0.49443 0.52676 0.1865 0.0
H2228 H 0.50116 0.52411 0.16513 0.0
H2229 H 0.45052 0.47515 0.1396 0.0
H2230 H 0.48208 0.45777 0.08365 0.0
H2231 H 0.4742 0.45843 0.10507 0.0
C2232 C 0.99551 0.48851 0.82029 0.0
C2233 C 0.99713 0.50468 0.81439 0.0
C2234 C 0.99921 0.49015 0.83317 0.0
C2235 C 0.00144 0.52011 0.86168 0.0
H2236 H 0.02687 0.49367 0.87701 0.0
C2237 C 0.02562 0.53157 0.91431 0.0
C2238 C 0.02101 0.51437 0.92006 0.0
C2239 C 0.02288 0.53062 0.90141 0.0
C2240 C 0.01961 0.501 0.87285 0.0
H2241 H 0.00454 0.53545 0.81728 0.0
H2242 H 0.01143 0.53849 0.83976 0.0
H2243 H 0.02263 0.49206 0.85447 0.0
H2244 H 0.01001 0.48273 0.91684 0.0
H2245 H 0.0052 0.48106 0.89427 0.0
H2246 H 0.99865 0.52921 0.88011 0.0
C2247 C 0.00682 0.52437 0.83448 0.0
C2248 C 0.01715 0.50006 0.85994 0.0
C2249 C 0.00296 0.52267 0.8216 0.0
C2250 C 0.01355 0.49619 0.91266 0.0
C2251 C 0.01098 0.49527 0.89975 0.0
C2252 C 0.00405 0.52117 0.87459 0.0
C2253 C 0.00477 0.50806 0.84044 0.0
C2254 C 0.00794 0.50953 0.85419 0.0
C2255 C 0.01565 0.51249 0.894 0.0
C2256 C 0.01307 0.51154 0.8803 0.0
H2257 H 0.99075 0.47437 0.81498 0.0
H2258 H 0.99718 0.47719 0.83744 0.0
H2259 H 0.99396 0.52728 0.85757 0.0
H2260 H 0.03126 0.54575 0.9198 0.0
H2261 H 0.02672 0.54415 0.89722 0.0
C2262 C 0.55661 0.50966 0.83065 0.0
C2263 C 0.54546 0.51166 0.82079 0.0
C2264 C 0.55359 0.51298 0.8429 0.0
C2265 C 0.52895 0.5336 0.86265 0.0
H2266 H 0.53108 0.49808 0.8853 0.0
C2267 C 0.49444 0.52008 0.90946 0.0
C2268 C 0.50619 0.51976 0.91973 0.0
C2269 C 0.50077 0.52142 0.89761 0.0
C2270 C 0.53064 0.50825 0.87911 0.0
H2271 H 0.52264 0.51896 0.81593 0.0
H2272 H 0.51678 0.5241 0.8373 0.0
H2273 H 0.53917 0.49596 0.86421 0.0
H2274 H 0.53433 0.52163 0.92556 0.0
H2275 H 0.54497 0.5233 0.90482 0.0
H2276 H 0.51953 0.54522 0.87758 0.0
C2277 C 0.52828 0.52051 0.83566 0.0
C2278 C 0.53538 0.50713 0.86702 0.0
C2279 C 0.53155 0.5175 0.8234 0.0
C2280 C 0.52466 0.52135 0.91786 0.0
C2281 C 0.53083 0.52242 0.906 0.0
C2282 C 0.52391 0.53451 0.87472 0.0
C2283 C 0.53907 0.51803 0.84558 0.0
C2284 C 0.5346 0.51978 0.8586 0.0
C2285 C 0.51885 0.52223 0.89574 0.0
C2286 C 0.52471 0.52183 0.88306 0.0
H2287 H 0.5676 0.50539 0.82887 0.0
H2288 H 0.56256 0.51142 0.85027 0.0
H2289 H 0.52847 0.5438 0.85652 0.0
H2290 H 0.48003 0.51861 0.91048 0.0
H2291 H 0.49117 0.52107 0.88983 0.0
C2292 C 0.54277 0.0368 0.82873 0.0
C2293 C 0.53131 0.04391 0.82287 0.0
C2294 C 0.53874 0.02972 0.84035 0.0
C2295 C 0.5161 0.03393 0.86824 0.0
H2296 H 0.51366 0.98455 0.87487 0.0
C2297 C 0.48934 0.99912 0.9135 0.0
C2298 C 0.49878 0.98972 0.91901 0.0
C2299 C 0.49322 0.00532 0.90169 0.0
C2300 C 0.51456 0.99851 0.87325 0.0
H2301 H 0.50676 0.04932 0.82463 0.0
H2302 H 0.49975 0.03702 0.84488 0.0
H2303 H 0.52087 0.99623 0.85447 0.0
H2304 H 0.51984 0.9796 0.91648 0.0
H2305 H 0.52697 0.99078 0.89598 0.0
H2306 H 0.51019 0.03652 0.88701 0.0
C2307 C 0.51184 0.0369 0.8405 0.0
C2308 C 0.51864 0.00516 0.86154 0.0
C2309 C 0.51573 0.04377 0.82885 0.0
C2310 C 0.51215 0.98659 0.91242 0.0
C2311 C 0.51619 0.99297 0.90064 0.0
C2312 C 0.51221 0.0274 0.87997 0.0
C2313 C 0.52332 0.02984 0.8464 0.0
C2314 C 0.51934 0.02288 0.85888 0.0
C2315 C 0.50681 0.00247 0.89512 0.0
C2316 C 0.51126 0.00953 0.88263 0.0
H2317 H 0.5548 0.03661 0.82432 0.0
H2318 H 0.54792 0.02448 0.84469 0.0
H2319 H 0.51685 0.04781 0.86653 0.0
H2320 H 0.47874 0.00147 0.91828 0.0
H2321 H 0.48537 0.01218 0.89766 0.0
C2322 C 0.13966 0.29887 0.5145 0.0
C2323 C 0.12869 0.27821 0.51502 0.0
C2324 C 0.14439 0.30661 0.50313 0.0
C2325 C 0.12933 0.29446 0.46947 0.0
H2326 H 0.18357 0.33571 0.46663 0.0
C2327 C 0.15708 0.31808 0.42198 0.0
C2328 C 0.17049 0.33831 0.42113 0.0
C2329 C 0.15187 0.31113 0.4335 0.0
C2330 C 0.16828 0.32441 0.46728 0.0
H2331 H 0.11366 0.24952 0.50398 0.0
H2332 H 0.12188 0.26304 0.48413 0.0
H2333 H 0.17433 0.32314 0.4866 0.0
H2334 H 0.18906 0.36703 0.43186 0.0
H2335 H 0.17948 0.35503 0.45188 0.0
H2336 H 0.12314 0.2958 0.45022 0.0
C2337 C 0.12682 0.27324 0.49252 0.0
C2338 C 0.163 0.31718 0.47874 0.0
C2339 C 0.12226 0.2655 0.50389 0.0
C2340 C 0.17853 0.3514 0.43213 0.0
C2341 C 0.17322 0.34445 0.44365 0.0
C2342 C 0.13455 0.30178 0.45804 0.0
C2343 C 0.13808 0.29388 0.49201 0.0
C2344 C 0.1435 0.30203 0.47994 0.0
C2345 C 0.15981 0.32422 0.44449 0.0
C2346 C 0.15413 0.31676 0.45676 0.0
H2347 H 0.14495 0.30904 0.52292 0.0
H2348 H 0.15295 0.32259 0.50303 0.0
H2349 H 0.11411 0.28297 0.47014 0.0
H2350 H 0.15035 0.30759 0.41373 0.0
H2351 H 0.14172 0.29541 0.43377 0.0
C2352 C 0.69191 0.82928 0.5171 0.0
C2353 C 0.67637 0.82306 0.52471 0.0
C2354 C 0.68796 0.82773 0.50427 0.0
C2355 C 0.64745 0.80425 0.47829 0.0
H2356 H 0.68446 0.84905 0.46196 0.0
C2357 C 0.63069 0.81612 0.42799 0.0
C2358 C 0.64611 0.82144 0.4203 0.0
C2359 C 0.63422 0.81576 0.44069 0.0
C2360 C 0.67409 0.83635 0.46638 0.0
H2361 H 0.64447 0.80987 0.52491 0.0
H2362 H 0.63749 0.80748 0.50244 0.0
H2363 H 0.69072 0.84883 0.48415 0.0
H2364 H 0.67732 0.83039 0.42 0.0
H2365 H 0.68355 0.83014 0.44222 0.0
H2366 H 0.63064 0.79202 0.46045 0.0
C2367 C 0.65273 0.81326 0.50636 0.0
C2368 C 0.6777 0.83617 0.47908 0.0
C2369 C 0.65669 0.81464 0.51922 0.0
C2370 C 0.6652 0.82658 0.42566 0.0
C2371 C 0.66876 0.82636 0.43838 0.0
C2372 C 0.64376 0.80451 0.46557 0.0
C2373 C 0.66837 0.82012 0.49876 0.0
C2374 C 0.66447 0.82009 0.4852 0.0
C2375 C 0.65329 0.82086 0.44601 0.0
C2376 C 0.65708 0.82055 0.45949 0.0
H2377 H 0.7072 0.83554 0.52111 0.0
H2378 H 0.7003 0.83269 0.49868 0.0
H2379 H 0.63708 0.79153 0.48267 0.0
H2380 H 0.61589 0.81238 0.4242 0.0
H2381 H 0.6221 0.81174 0.44639 0.0
C2382 C 0.15299 0.84551 0.51354 0.0
C2383 C 0.13681 0.82981 0.51826 0.0
C2384 C 0.15683 0.84363 0.50131 0.0
C2385 C 0.13344 0.81418 0.47078 0.0
H2386 H 0.18837 0.83848 0.4634 0.0
C2387 C 0.15631 0.8037 0.42229 0.0
C2388 C 0.17073 0.82113 0.41782 0.0
C2389 C 0.15187 0.80402 0.43454 0.0
C2390 C 0.17296 0.83173 0.46532 0.0
H2391 H 0.11196 0.79979 0.51388 0.0
H2392 H 0.11887 0.79628 0.49249 0.0
H2393 H 0.18115 0.83995 0.48481 0.0
H2394 H 0.19197 0.85246 0.42268 0.0
H2395 H 0.18431 0.853 0.44413 0.0
H2396 H 0.12536 0.80577 0.45122 0.0
C2397 C 0.12841 0.81021 0.4982 0.0
C2398 C 0.1688 0.83261 0.47758 0.0
C2399 C 0.12447 0.81217 0.51045 0.0
C2400 C 0.1807 0.83884 0.42586 0.0
C2401 C 0.17643 0.83911 0.43815 0.0
C2402 C 0.13762 0.81314 0.45851 0.0
C2403 C 0.14468 0.82593 0.49349 0.0
C2404 C 0.14899 0.82406 0.48047 0.0
C2405 C 0.16195 0.82171 0.44261 0.0
C2406 C 0.15743 0.8221 0.45565 0.0
H2407 H 0.16253 0.85943 0.51927 0.0
H2408 H 0.16919 0.85622 0.49794 0.0
H2409 H 0.11803 0.80765 0.47263 0.0
H2410 H 0.14828 0.78987 0.41625 0.0
H2411 H 0.14073 0.79037 0.43776 0.0
C2412 C 0.66406 0.85213 0.15531 0.0
C2413 C 0.6587 0.83435 0.14801 0.0
C2414 C 0.66786 0.85371 0.16819 0.0
C2415 C 0.67933 0.82972 0.19336 0.0
H2416 H 0.66068 0.85823 0.214 0.0
C2417 C 0.67755 0.82601 0.24619 0.0
C2418 C 0.685 0.8442 0.25359 0.0
C2419 C 0.67451 0.82499 0.2333 0.0
C2420 C 0.66611 0.85036 0.20834 0.0
H2421 H 0.65292 0.8042 0.14845 0.0
H2422 H 0.65921 0.80679 0.17091 0.0
H2423 H 0.65529 0.85618 0.19148 0.0
H2424 H 0.69473 0.87547 0.25333 0.0
H2425 H 0.68937 0.87367 0.23078 0.0
H2426 H 0.68982 0.82363 0.21028 0.0
C2427 C 0.66096 0.81971 0.1667 0.0
C2428 C 0.6631 0.84924 0.19545 0.0
C2429 C 0.65732 0.8182 0.15383 0.0
C2430 C 0.68913 0.86129 0.24785 0.0
C2431 C 0.68591 0.86023 0.23496 0.0
C2432 C 0.68219 0.83071 0.20626 0.0
C2433 C 0.66621 0.83746 0.17406 0.0
C2434 C 0.66967 0.83889 0.18779 0.0
C2435 C 0.67868 0.8421 0.22756 0.0
C2436 C 0.67561 0.84104 0.21388 0.0
H2437 H 0.66545 0.86489 0.15106 0.0
H2438 H 0.67222 0.86771 0.17354 0.0
H2439 H 0.68489 0.82192 0.18777 0.0
H2440 H 0.67439 0.81263 0.25036 0.0
H2441 H 0.66876 0.81078 0.22782 0.0
C2442 C 0.21722 0.83446 0.16383 0.0
C2443 C 0.20869 0.83962 0.15403 0.0
C2444 C 0.2129 0.8364 0.17595 0.0
C2445 C 0.19084 0.85906 0.19613 0.0
H2446 H 0.18209 0.81612 0.21574 0.0
C2447 C 0.1536 0.84693 0.24183 0.0
C2448 C 0.16266 0.84253 0.25178 0.0
C2449 C 0.15987 0.84747 0.23 0.0
C2450 C 0.18466 0.82832 0.21042 0.0
H2451 H 0.18933 0.85126 0.14922 0.0
H2452 H 0.18145 0.85433 0.17036 0.0
H2453 H 0.19227 0.81597 0.19503 0.0
H2454 H 0.18576 0.83567 0.25708 0.0
H2455 H 0.19634 0.8362 0.2364 0.0
H2456 H 0.18274 0.8711 0.21153 0.0
C2457 C 0.19177 0.84913 0.16875 0.0
C2458 C 0.19059 0.8283 0.19856 0.0
C2459 C 0.19626 0.84736 0.15663 0.0
C2460 C 0.17813 0.83869 0.2496 0.0
C2461 C 0.18428 0.83907 0.23776 0.0
C2462 C 0.18475 0.85899 0.20798 0.0
C2463 C 0.19977 0.84334 0.17853 0.0
C2464 C 0.1938 0.84369 0.19126 0.0
C2465 C 0.17522 0.84347 0.22784 0.0
C2466 C 0.18163 0.84362 0.21525 0.0
H2467 H 0.22707 0.82871 0.16209 0.0
H2468 H 0.21972 0.83225 0.18328 0.0
H2469 H 0.19342 0.87128 0.19084 0.0
H2470 H 0.14147 0.84971 0.24313 0.0
H2471 H 0.15245 0.85067 0.22248 0.0
C2472 C 0.21091 0.37487 0.16288 0.0
C2473 C 0.19967 0.38232 0.15714 0.0
C2474 C 0.20693 0.36781 0.1745 0.0
C2475 C 0.18456 0.37208 0.20257 0.0
H2476 H 0.18148 0.32225 0.20873 0.0
C2477 C 0.15688 0.33601 0.24738 0.0
C2478 C 0.16618 0.3264 0.25279 0.0
C2479 C 0.16102 0.34261 0.23568 0.0
C2480 C 0.18256 0.33634 0.20724 0.0
H2481 H 0.17563 0.38844 0.15916 0.0
H2482 H 0.16869 0.37614 0.17941 0.0
H2483 H 0.18889 0.33432 0.18845 0.0
H2484 H 0.18729 0.31637 0.2502 0.0
H2485 H 0.19483 0.32818 0.22988 0.0
H2486 H 0.17854 0.37434 0.22136 0.0
C2487 C 0.18057 0.37575 0.17494 0.0
C2488 C 0.18677 0.34322 0.1956 0.0
C2489 C 0.18442 0.38262 0.16328 0.0
C2490 C 0.1797 0.3235 0.24621 0.0
C2491 C 0.18397 0.33025 0.23454 0.0
C2492 C 0.18052 0.3653 0.21424 0.0
C2493 C 0.19178 0.36828 0.18068 0.0
C2494 C 0.18771 0.36111 0.19312 0.0
C2495 C 0.17471 0.33992 0.22912 0.0
C2496 C 0.17934 0.34727 0.21672 0.0
H2497 H 0.22267 0.37433 0.15833 0.0
H2498 H 0.21591 0.36227 0.17873 0.0
H2499 H 0.1855 0.38608 0.20101 0.0
H2500 H 0.14617 0.3382 0.25214 0.0
H2501 H 0.15328 0.34962 0.23172 0.0
C2502 C 0.78956 0.60199 0.83724 0.0
C2503 C 0.7967 0.61456 0.84844 0.0
C2504 C 0.79412 0.60983 0.8259 0.0
C2505 C 0.83116 0.65319 0.81207 0.0
H2506 H 0.79076 0.63321 0.78391 0.0
C2507 C 0.84706 0.68708 0.76535 0.0
C2508 C 0.83841 0.67396 0.7544 0.0
C2509 C 0.84175 0.68038 0.77692 0.0
C2510 C 0.8023 0.63879 0.79162 0.0
H2511 H 0.81417 0.64525 0.85651 0.0
H2512 H 0.82217 0.65899 0.83666 0.0
H2513 H 0.78174 0.62057 0.80387 0.0
H2514 H 0.81719 0.64343 0.74713 0.0
H2515 H 0.80853 0.63164 0.76726 0.0
H2516 H 0.85183 0.67111 0.79982 0.0
C2517 C 0.81307 0.64304 0.83668 0.0
C2518 C 0.79709 0.63158 0.80308 0.0
C2519 C 0.80835 0.6352 0.84804 0.0
C2520 C 0.82439 0.65394 0.75535 0.0
C2521 C 0.81917 0.64722 0.76691 0.0
C2522 C 0.83641 0.66031 0.80059 0.0
C2523 C 0.80607 0.63043 0.82549 0.0
C2524 C 0.81147 0.63862 0.81342 0.0
C2525 C 0.82773 0.66035 0.77786 0.0
C2526 C 0.82207 0.65313 0.79019 0.0
H2527 H 0.78041 0.58604 0.83725 0.0
H2528 H 0.78863 0.59972 0.81745 0.0
H2529 H 0.84264 0.65873 0.81983 0.0
H2530 H 0.85806 0.70255 0.76501 0.0
H2531 H 0.84851 0.69099 0.78513 0.0
C2532 C 0.36087 0.16846 0.85146 0.0
C2533 C 0.34517 0.16059 0.85895 0.0
C2534 C 0.35695 0.16703 0.83862 0.0
C2535 C 0.31704 0.14088 0.81247 0.0
H2536 H 0.35123 0.18711 0.79619 0.0
C2537 C 0.29845 0.15039 0.76196 0.0
C2538 C 0.31407 0.15683 0.75436 0.0
C2539 C 0.30216 0.15053 0.77471 0.0
C2540 C 0.34166 0.17403 0.80059 0.0
H2541 H 0.31308 0.14474 0.85894 0.0
H2542 H 0.30615 0.14254 0.83649 0.0
H2543 H 0.35771 0.18745 0.81843 0.0
H2544 H 0.34585 0.1684 0.75426 0.0
H2545 H 0.35234 0.16903 0.77656 0.0
H2546 H 0.30079 0.12767 0.79458 0.0
C2547 C 0.32151 0.14952 0.8405 0.0
C2548 C 0.3454 0.17417 0.81333 0.0
C2549 C 0.32544 0.1508 0.85335 0.0
C2550 C 0.33353 0.16367 0.75985 0.0
C2551 C 0.33725 0.16396 0.77262 0.0
C2552 C 0.31321 0.14081 0.79973 0.0
C2553 C 0.33723 0.15786 0.833 0.0
C2554 C 0.33319 0.15757 0.81942 0.0
C2555 C 0.32158 0.15729 0.78016 0.0
C2556 C 0.32552 0.15737 0.79367 0.0
H2557 H 0.37622 0.17581 0.85554 0.0
H2558 H 0.36941 0.17319 0.83312 0.0
H2559 H 0.3075 0.12774 0.81682 0.0
H2560 H 0.28335 0.14534 0.75808 0.0
H2561 H 0.28985 0.14558 0.78035 0.0
C2562 C 0.82161 0.17875 0.84852 0.0
C2563 C 0.80554 0.16286 0.85319 0.0
C2564 C 0.82543 0.17712 0.83625 0.0
C2565 C 0.80174 0.14781 0.80567 0.0
H2566 H 0.85641 0.17336 0.7977 0.0
C2567 C 0.82387 0.13749 0.75695 0.0
C2568 C 0.83773 0.15496 0.75226 0.0
C2569 C 0.81971 0.13793 0.76927 0.0
C2570 C 0.84107 0.16627 0.79979 0.0
H2571 H 0.781 0.13269 0.84872 0.0
H2572 H 0.78792 0.1296 0.82731 0.0
H2573 H 0.84969 0.17456 0.81925 0.0
H2574 H 0.85822 0.18655 0.75675 0.0
H2575 H 0.85107 0.18731 0.77832 0.0
H2576 H 0.79324 0.13928 0.78615 0.0
C2577 C 0.79734 0.14351 0.83306 0.0
C2578 C 0.83719 0.16699 0.81213 0.0
C2579 C 0.7934 0.14523 0.84533 0.0
C2580 C 0.84739 0.17289 0.76011 0.0
C2581 C 0.84342 0.17329 0.77246 0.0
C2582 C 0.80565 0.14692 0.79333 0.0
C2583 C 0.81338 0.15948 0.82835 0.0
C2584 C 0.81747 0.15794 0.81524 0.0
C2585 C 0.82953 0.15582 0.77716 0.0
C2586 C 0.82535 0.15629 0.79026 0.0
H2587 H 0.831 0.19266 0.8543 0.0
H2588 H 0.83762 0.18989 0.83291 0.0
H2589 H 0.78638 0.14093 0.80767 0.0
H2590 H 0.81609 0.1235 0.75107 0.0
H2591 H 0.80902 0.12424 0.77266 0.0
C2592 C 0.326 0.15523 0.48829 0.0
C2593 C 0.3275 0.17146 0.48251 0.0
C2594 C 0.32975 0.1567 0.50115 0.0
C2595 C 0.33242 0.18621 0.53001 0.0
H2596 H 0.3587 0.15994 0.54448 0.0
C2597 C 0.3581 0.19678 0.58241 0.0
C2598 C 0.35368 0.17943 0.58792 0.0
C2599 C 0.355 0.19612 0.56955 0.0
C2600 C 0.35121 0.16722 0.54056 0.0
H2601 H 0.3345 0.20207 0.48561 0.0
H2602 H 0.34147 0.20483 0.50809 0.0
H2603 H 0.35384 0.15867 0.52201 0.0
H2604 H 0.34266 0.14782 0.58433 0.0
H2605 H 0.33726 0.14668 0.56183 0.0
H2606 H 0.33006 0.19494 0.54864 0.0
C2607 C 0.33696 0.1908 0.50271 0.0
C2608 C 0.34838 0.16647 0.52769 0.0
C2609 C 0.33305 0.18927 0.48984 0.0
C2610 C 0.34606 0.1614 0.58033 0.0
C2611 C 0.34314 0.16078 0.56747 0.0
C2612 C 0.3354 0.18709 0.54289 0.0
C2613 C 0.33524 0.17449 0.50853 0.0
C2614 C 0.33883 0.17585 0.52224 0.0
C2615 C 0.34761 0.17814 0.56195 0.0
C2616 C 0.34471 0.17749 0.54829 0.0
H2617 H 0.32143 0.1412 0.48289 0.0
H2618 H 0.3279 0.14372 0.50531 0.0
H2619 H 0.32472 0.19332 0.52614 0.0
H2620 H 0.36384 0.21085 0.58805 0.0
H2621 H 0.35868 0.20975 0.56554 0.0
C2622 C 0.88853 0.17534 0.49782 0.0
C2623 C 0.87761 0.17765 0.48796 0.0
C2624 C 0.88562 0.1788 0.51007 0.0
C2625 C 0.86196 0.20048 0.52986 0.0
H2626 H 0.86306 0.16447 0.55249 0.0
C2627 C 0.82806 0.18835 0.57689 0.0
C2628 C 0.8396 0.18755 0.58709 0.0
C2629 C 0.83421 0.18942 0.565 0.0
C2630 C 0.86291 0.17477 0.54632 0.0
H2631 H 0.8553 0.18565 0.48312 0.0
H2632 H 0.84963 0.19106 0.5045 0.0
H2633 H 0.87086 0.16196 0.53137 0.0
H2634 H 0.86724 0.18829 0.59277 0.0
H2635 H 0.87758 0.18952 0.57197 0.0
H2636 H 0.85315 0.21266 0.54484 0.0
C2637 C 0.86087 0.1871 0.50285 0.0
C2638 C 0.86748 0.17342 0.5342 0.0
C2639 C 0.86403 0.18394 0.49058 0.0
C2640 C 0.85771 0.1884 0.58512 0.0
C2641 C 0.86372 0.18921 0.57322 0.0
C2642 C 0.8571 0.20163 0.54196 0.0
C2643 C 0.87143 0.18431 0.51276 0.0
C2644 C 0.86708 0.18625 0.52579 0.0
C2645 C 0.85191 0.18948 0.56302 0.0
C2646 C 0.85754 0.18878 0.55029 0.0
H2647 H 0.89927 0.17073 0.49602 0.0
H2648 H 0.89441 0.17699 0.51743 0.0
H2649 H 0.86178 0.21081 0.52374 0.0
H2650 H 0.81391 0.18747 0.578 0.0
H2651 H 0.82474 0.18943 0.55727 0.0
C2652 C 0.87901 0.70981 0.49611 0.0
C2653 C 0.86699 0.71612 0.49002 0.0
C2654 C 0.87506 0.7028 0.50774 0.0
C2655 C 0.85088 0.7055 0.53526 0.0
H2656 H 0.85103 0.65741 0.54216 0.0
C2657 C 0.82384 0.66937 0.58015 0.0
C2658 C 0.83398 0.66078 0.58585 0.0
C2659 C 0.8279 0.67588 0.56842 0.0
C2660 C 0.8512 0.67102 0.54047 0.0
H2661 H 0.84155 0.72021 0.49143 0.0
H2662 H 0.83467 0.70799 0.51172 0.0
H2663 H 0.85834 0.66936 0.52185 0.0
H2664 H 0.8565 0.65249 0.58378 0.0
H2665 H 0.86391 0.66419 0.56342 0.0
H2666 H 0.84407 0.70744 0.55388 0.0
C2667 C 0.84715 0.70847 0.5075 0.0
C2668 C 0.85534 0.67783 0.5288 0.0
C2669 C 0.85097 0.71528 0.49583 0.0
C2670 C 0.84827 0.65883 0.57955 0.0
C2671 C 0.85247 0.6655 0.56786 0.0
C2672 C 0.8469 0.6988 0.54695 0.0
C2673 C 0.85915 0.70216 0.51359 0.0
C2674 C 0.85512 0.69508 0.52605 0.0
C2675 C 0.84235 0.67415 0.56214 0.0
C2676 C 0.84689 0.68141 0.54971 0.0
H2677 H 0.89139 0.71016 0.49183 0.0
H2678 H 0.88466 0.69817 0.51224 0.0
H2679 H 0.85089 0.71902 0.53348 0.0
H2680 H 0.81254 0.67081 0.5847 0.0
H2681 H 0.81952 0.68208 0.56423 0.0
loop_
_geom_bond_atom_site_label_1
_geom_bond_atom_site_label_2
_geom_bond_distance
_geom_bond_site_symmetry_2
_ccdc_geom_bond_type
C0 C1 1.386 . S
C0 C2 1.397 . S
C0 H24 0.931 . S
C1 C0 1.386 . S
C1 C5 1.397 . S
C2 C0 1.397 . S
C2 C3 1.384 . S
C2 H25 0.930 . S
C3 C2 1.384 . S
C3 C4 1.377 . S
C3 C6 1.481 . S
C4 C3 1.377 . S
C4 C5 1.389 . S
C4 H26 0.929 . S
C5 C1 1.397 . S
C5 C4 1.389 . S
C5 H27 0.931 . S
C6 C3 1.481 . S
C6 C7 1.387 . S
C6 C11 1.390 . S
C7 C6 1.387 . S
C7 C8 1.401 . S
C7 H28 0.930 . S
C8 C7 1.401 . S
C8 C9 1.376 . S
C8 C17 1.511 . S
C9 C8 1.376 . S
C9 C10 1.392 . S
C9 H30 0.931 . S
C10 C9 1.392 . S
C10 C11 1.361 . S
C10 C12 1.500 . S
C11 C6 1.390 . S
C11 C10 1.361 . S
C11 H29 0.931 . S
C12 C10 1.500 . S
C12 C13 1.371 . S
C12 C14 1.365 . S
C13 C12 1.371 . S
C13 C23 1.386 . S
C13 H31 0.931 . S
C14 C12 1.365 . S
C14 C15 1.409 . S
C14 H32 0.929 . S
C15 C14 1.409 . S
C15 C16 1.380 . S
C15 H33 0.930 . S
C16 C15 1.380 . S
C16 C23 1.357 . S
C17 C8 1.511 . S
C17 C18 1.341 . S
C17 C19 1.371 . S
C18 C17 1.341 . S
C18 C22 1.394 . S
C18 H34 0.930 . S
C19 C17 1.371 . S
C19 C20 1.392 . S
C19 H35 0.931 . S
C20 C19 1.392 . S
C20 C21 1.331 . S
C20 H38 0.932 . S
C21 C20 1.331 . S
C21 C22 1.336 . S
C22 C18 1.394 . S
C22 C21 1.336 . S
C22 H37 0.929 . S
C23 C13 1.386 . S
C23 C16 1.357 . S
C23 H36 0.928 . S
H24 C0 0.931 . S
H25 C2 0.930 . S
H26 C4 0.929 . S
H27 C5 0.931 . S
H28 C7 0.930 . S
H29 C11 0.931 . S
H30 C9 0.931 . S
H31 C13 0.931 . S
H32 C14 0.929 . S
H33 C15 0.930 . S
H34 C18 0.930 . S
H35 C19 0.931 . S
H36 C23 0.928 . S
H37 C22 0.929 . S
H38 C20 0.932 . S
C39 C40 1.386 . S
C39 C41 1.397 . S
C39 H63 0.931 . S
C40 C39 1.386 . S
C40 C44 1.397 . S
C41 C39 1.397 . S
C41 C42 1.384 . S
C41 H64 0.930 . S
C42 C41 1.384 . S
C42 C43 1.377 . S
C42 C45 1.481 . S
C43 C42 1.377 . S
C43 C44 1.389 . S
C43 H65 0.929 . S
C44 C40 1.397 . S
C44 C43 1.389 . S
C44 H66 0.931 . S
C45 C42 1.481 . S
C45 C46 1.387 . S
C45 C50 1.390 . S
C46 C45 1.387 . S
C46 C47 1.401 . S
C46 H67 0.930 . S
C47 C46 1.401 . S
C47 C48 1.376 . S
C47 C56 1.511 . S
C48 C47 1.376 . S
C48 C49 1.392 . S
C48 H69 0.931 . S
C49 C48 1.392 . S
C49 C50 1.361 . S
C49 C51 1.500 . S
C50 C45 1.390 . S
C50 C49 1.361 . S
C50 H68 0.931 . S
C51 C49 1.500 . S
C51 C52 1.371 . S
C51 C53 1.365 . S
C52 C51 1.371 . S
C52 C62 1.386 . S
C52 H70 0.931 . S
C53 C51 1.365 . S
C53 C54 1.409 . S
C53 H71 0.929 . S
C54 C53 1.409 . S
C54 C55 1.380 . S
C54 H72 0.930 . S
C55 C54 1.380 . S
C55 C62 1.357 . S
C56 C47 1.511 . S
C56 C57 1.341 . S
C56 C58 1.371 . S
C57 C56 1.341 . S
C57 C61 1.394 . S
C57 H73 0.930 . S
C58 C56 1.371 . S
C58 C59 1.392 . S
C58 H74 0.931 . S
C59 C58 1.392 . S
C59 C60 1.331 . S
C59 H77 0.932 . S
C60 C59 1.331 . S
C60 C61 1.336 . S
C61 C57 1.394 . S
C61 C60 1.336 . S
C61 H76 0.929 . S
C62 C52 1.386 . S
C62 C55 1.357 . S
C62 H75 0.928 . S
H63 C39 0.931 . S
H64 C41 0.930 . S
H65 C43 0.929 . S
H66 C44 0.931 . S
H67 C46 0.930 . S
H68 C50 0.931 . S
H69 C48 0.931 . S
H70 C52 0.931 . S
H71 C53 0.929 . S
H72 C54 0.930 . S
H73 C57 0.930 . S
H74 C58 0.931 . S
H75 C62 0.928 . S
H76 C61 0.929 . S
H77 C59 0.932 . S
C78 C79 1.386 . S
C78 C80 1.397 . S
C78 H102 0.931 . S
C79 C78 1.386 . S
C79 C83 1.397 . S
C80 C78 1.397 . S
C80 C81 1.384 . S
C80 H103 0.930 . S
C81 C80 1.384 . S
C81 C82 1.377 . S
C81 C84 1.481 . S
C82 C81 1.377 . S
C82 C83 1.389 . S
C82 H104 0.929 . S
C83 C79 1.397 . S
C83 C82 1.389 . S
C83 H105 0.931 . S
C84 C81 1.481 . S
C84 C85 1.387 . S
C84 C89 1.390 . S
C85 C84 1.387 . S
C85 C86 1.401 . S
C85 H106 0.930 . S
C86 C85 1.401 . S
C86 C87 1.376 . S
C86 C95 1.511 . S
C87 C86 1.376 . S
C87 C88 1.392 . S
C87 H108 0.931 . S
C88 C87 1.392 . S
C88 C89 1.361 . S
C88 C90 1.500 . S
C89 C84 1.390 . S
C89 C88 1.361 . S
C89 H107 0.931 . S
C90 C88 1.500 . S
C90 C91 1.371 . S
C90 C92 1.365 . S
C91 C90 1.371 . S
C91 C101 1.386 . S
C91 H109 0.931 . S
C92 C90 1.365 . S
C92 C93 1.409 . S
C92 H110 0.929 . S
C93 C92 1.409 . S
C93 C94 1.380 . S
C93 H111 0.930 . S
C94 C93 1.380 . S
C94 C101 1.357 . S
C95 C86 1.511 . S
C95 C96 1.341 . S
C95 C97 1.371 . S
C96 C95 1.341 . S
C96 C100 1.394 . S
C96 H112 0.930 . S
C97 C95 1.371 . S
C97 C98 1.392 . S
C97 H113 0.931 . S
C98 C97 1.392 . S
C98 C99 1.331 . S
C98 H116 0.932 . S
C99 C98 1.331 . S
C99 C100 1.336 . S
C100 C96 1.394 . S
C100 C99 1.336 . S
C100 H115 0.929 . S
C101 C91 1.386 . S
C101 C94 1.357 . S
C101 H114 0.928 . S
H102 C78 0.931 . S
H103 C80 0.930 . S
H104 C82 0.929 . S
H105 C83 0.931 . S
H106 C85 0.930 . S
H107 C89 0.931 . S
H108 C87 0.931 . S
H109 C91 0.931 . S
H110 C92 0.929 . S
H111 C93 0.930 . S
H112 C96 0.930 . S
H113 C97 0.931 . S
H114 C101 0.928 . S
H115 C100 0.929 . S
H116 C98 0.932 . S
C117 C118 1.386 . S
C117 C119 1.397 . S
C117 H141 0.931 . S
C118 C117 1.386 . S
C118 C122 1.397 . S
C119 C117 1.397 . S
C119 C120 1.384 . S
C119 H142 0.930 . S
C120 C119 1.384 . S
C120 C121 1.377 . S
C120 C123 1.481 . S
C121 C120 1.377 . S
C121 C122 1.389 . S
C121 H143 0.929 . S
C122 C118 1.397 . S
C122 C121 1.389 . S
C122 H144 0.931 . S
C123 C120 1.481 . S
C123 C124 1.387 . S
C123 C128 1.390 . S
C124 C123 1.387 . S
C124 C125 1.401 . S
C124 H145 0.930 . S
C125 C124 1.401 . S
C125 C126 1.376 . S
C125 C134 1.511 . S
C126 C125 1.376 . S
C126 C127 1.392 . S
C126 H147 0.931 . S
C127 C126 1.392 . S
C127 C128 1.361 . S
C127 C129 1.500 . S
C128 C123 1.390 . S
C128 C127 1.361 . S
C128 H146 0.931 . S
C129 C127 1.500 . S
C129 C130 1.371 . S
C129 C131 1.365 . S
C130 C129 1.371 . S
C130 C140 1.386 . S
C130 H148 0.931 . S
C131 C129 1.365 . S
C131 C132 1.409 . S
C131 H149 0.929 . S
C132 C131 1.409 . S
C132 C133 1.380 . S
C132 H150 0.930 . S
C133 C132 1.380 . S
C133 C140 1.357 . S
C134 C125 1.511 . S
C134 C135 1.341 . S
C134 C136 1.371 . S
C135 C134 1.341 . S
C135 C139 1.394 . S
C135 H151 0.930 . S
C136 C134 1.371 . S
C136 C137 1.392 . S
C136 H152 0.931 . S
C137 C136 1.392 . S
C137 C138 1.331 . S
C137 H155 0.932 . S
C138 C137 1.331 . S
C138 C139 1.336 . S
C139 C135 1.394 . S
C139 C138 1.336 . S
C139 H154 0.929 . S
C140 C130 1.386 . S
C140 C133 1.357 . S
C140 H153 0.928 . S
H141 C117 0.931 . S
H142 C119 0.930 . S
H143 C121 0.929 . S
H144 C122 0.931 . S
H145 C124 0.930 . S
H146 C128 0.931 . S
H147 C126 0.931 . S
H148 C130 0.931 . S
H149 C131 0.929 . S
H150 C132 0.930 . S
H151 C135 0.930 . S
H152 C136 0.931 . S
H153 C140 0.928 . S
H154 C139 0.929 . S
H155 C137 0.932 . S
C156 C157 1.386 . S
C156 C158 1.397 . S
C156 H180 0.931 . S
C157 C156 1.386 . S
C157 C161 1.397 . S
C158 C156 1.397 . S
C158 C159 1.384 . S
C158 H181 0.930 . S
C159 C158 1.384 . S
C159 C160 1.377 . S
C159 C162 1.481 . S
C160 C159 1.377 . S
C160 C161 1.389 . S
C160 H182 0.929 . S
C161 C157 1.397 . S
C161 C160 1.389 . S
C161 H183 0.931 . S
C162 C159 1.481 . S
C162 C163 1.387 . S
C162 C167 1.390 . S
C163 C162 1.387 . S
C163 C164 1.401 . S
C163 H184 0.930 . S
C164 C163 1.401 . S
C164 C165 1.376 . S
C164 C173 1.511 . S
C165 C164 1.376 . S
C165 C166 1.392 . S
C165 H186 0.931 . S
C166 C165 1.392 . S
C166 C167 1.361 . S
C166 C168 1.500 . S
C167 C162 1.390 . S
C167 C166 1.361 . S
C167 H185 0.931 . S
C168 C166 1.500 . S
C168 C169 1.371 . S
C168 C170 1.365 . S
C169 C168 1.371 . S
C169 C179 1.386 . S
C169 H187 0.931 . S
C170 C168 1.365 . S
C170 C171 1.409 . S
C170 H188 0.929 . S
C171 C170 1.409 . S
C171 C172 1.380 . S
C171 H189 0.930 . S
C172 C171 1.380 . S
C172 C179 1.357 . S
C173 C164 1.511 . S
C173 C174 1.341 . S
C173 C175 1.371 . S
C174 C173 1.341 . S
C174 C178 1.394 . S
C174 H190 0.930 . S
C175 C173 1.371 . S
C175 C176 1.392 . S
C175 H191 0.931 . S
C176 C175 1.392 . S
C176 C177 1.331 . S
C176 H194 0.932 . S
C177 C176 1.331 . S
C177 C178 1.336 . S
C178 C174 1.394 . S
C178 C177 1.336 . S
C178 H193 0.929 . S
C179 C169 1.386 . S
C179 C172 1.357 . S
C179 H192 0.928 . S
H180 C156 0.931 . S
H181 C158 0.930 . S
H182 C160 0.929 . S
H183 C161 0.931 . S
H184 C163 0.930 . S
H185 C167 0.931 . S
H186 C165 0.931 . S
H187 C169 0.931 . S
H188 C170 0.929 . S
H189 C171 0.930 . S
H190 C174 0.930 . S
H191 C175 0.931 . S
H192 C179 0.928 . S
H193 C178 0.929 . S
H194 C176 0.932 . S
C195 C196 1.386 . S
C195 C197 1.397 . S
C195 H219 0.931 . S
C196 C195 1.386 . S
C196 C200 1.397 . S
C197 C195 1.397 . S
C197 C198 1.384 . S
C197 H220 0.930 . S
C198 C197 1.384 . S
C198 C199 1.377 . S
C198 C201 1.481 . S
C199 C198 1.377 . S
C199 C200 1.389 . S
C199 H221 0.929 . S
C200 C196 1.397 . S
C200 C199 1.389 . S
C200 H222 0.931 . S
C201 C198 1.481 . S
C201 C202 1.387 . S
C201 C206 1.390 . S
C202 C201 1.387 . S
C202 C203 1.401 . S
C202 H223 0.930 . S
C203 C202 1.401 . S
C203 C204 1.376 . S
C203 C212 1.511 . S
C204 C203 1.376 . S
C204 C205 1.392 . S
C204 H225 0.931 . S
C205 C204 1.392 . S
C205 C206 1.361 . S
C205 C207 1.500 . S
C206 C201 1.390 . S
C206 C205 1.361 . S
C206 H224 0.931 . S
C207 C205 1.500 . S
C207 C208 1.371 . S
C207 C209 1.365 . S
C208 C207 1.371 . S
C208 C218 1.386 . S
C208 H226 0.931 . S
C209 C207 1.365 . S
C209 C210 1.409 . S
C209 H227 0.929 . S
C210 C209 1.409 . S
C210 C211 1.380 . S
C210 H228 0.930 . S
C211 C210 1.380 . S
C211 C218 1.357 . S
C212 C203 1.511 . S
C212 C213 1.341 . S
C212 C214 1.371 . S
C213 C212 1.341 . S
C213 C217 1.394 . S
C213 H229 0.930 . S
C214 C212 1.371 . S
C214 C215 1.392 . S
C214 H230 0.931 . S
C215 C214 1.392 . S
C215 C216 1.331 . S
C215 H233 0.932 . S
C216 C215 1.331 . S
C216 C217 1.336 . S
C217 C213 1.394 . S
C217 C216 1.336 . S
C217 H232 0.929 . S
C218 C208 1.386 . S
C218 C211 1.357 . S
C218 H231 0.928 . S
H219 C195 0.931 . S
H220 C197 0.930 . S
H221 C199 0.929 . S
H222 C200 0.931 . S
H223 C202 0.930 . S
H224 C206 0.931 . S
H225 C204 0.931 . S
H226 C208 0.931 . S
H227 C209 0.929 . S
H228 C210 0.930 . S
H229 C213 0.930 . S
H230 C214 0.931 . S
H231 C218 0.928 . S
H232 C217 0.929 . S
H233 C215 0.932 . S
C234 C235 1.386 . S
C234 C236 1.397 . S
C234 H258 0.931 . S
C235 C234 1.386 . S
C235 C239 1.397 . S
C236 C234 1.397 . S
C236 C237 1.384 . S
C236 H259 0.930 . S
C237 C236 1.384 . S
C237 C238 1.377 . S
C237 C240 1.481 . S
C238 C237 1.377 . S
C238 C239 1.389 . S
C238 H260 0.929 . S
C239 C235 1.397 . S
C239 C238 1.389 . S
C239 H261 0.931 1_655 S
C240 C237 1.481 . S
C240 C241 1.387 . S
C240 C245 1.390 . S
C241 C240 1.387 . S
C241 C242 1.401 . S
C241 H262 0.930 . S
C242 C241 1.401 . S
C242 C243 1.376 . S
C242 C251 1.511 . S
C243 C242 1.376 . S
C243 C244 1.392 . S
C243 H264 0.931 . S
C244 C243 1.392 . S
C244 C245 1.361 . S
C244 C246 1.500 . S
C245 C240 1.390 . S
C245 C244 1.361 . S
C245 H263 0.931 . S
C246 C244 1.500 . S
C246 C247 1.371 . S
C246 C248 1.365 . S
C247 C246 1.371 . S
C247 C257 1.386 . S
C247 H265 0.931 . S
C248 C246 1.365 . S
C248 C249 1.409 . S
C248 H266 0.929 . S
C249 C248 1.409 . S
C249 C250 1.380 . S
C249 H267 0.930 . S
C250 C249 1.380 . S
C250 C257 1.357 . S
C251 C242 1.511 . S
C251 C252 1.341 . S
C251 C253 1.371 . S
C252 C251 1.341 . S
C252 C256 1.394 . S
C252 H268 0.930 . S
C253 C251 1.371 . S
C253 C254 1.392 . S
C253 H269 0.931 . S
C254 C253 1.392 . S
C254 C255 1.331 . S
C254 H272 0.932 . S
C255 C254 1.331 . S
C255 C256 1.336 . S
C256 C252 1.394 . S
C256 C255 1.336 . S
C256 H271 0.929 . S
C257 C247 1.386 . S
C257 C250 1.357 . S
C257 H270 0.928 . S
H258 C234 0.931 . S
H259 C236 0.930 . S
H260 C238 0.929 . S
H261 C239 0.931 1_455 S
H262 C241 0.930 . S
H263 C245 0.931 . S
H264 C243 0.931 . S
H265 C247 0.931 . S
H266 C248 0.929 . S
H267 C249 0.930 . S
H268 C252 0.930 . S
H269 C253 0.931 . S
H270 C257 0.928 . S
H271 C256 0.929 . S
H272 C254 0.932 . S
C273 C274 1.386 . S
C273 C275 1.397 . S
C273 H297 0.931 . S
C274 C273 1.386 . S
C274 C278 1.397 . S
C275 C273 1.397 . S
C275 C276 1.384 . S
C275 H298 0.930 . S
C276 C275 1.384 . S
C276 C277 1.377 . S
C276 C279 1.481 . S
C277 C276 1.377 . S
C277 C278 1.389 . S
C277 H299 0.929 . S
C278 C274 1.397 . S
C278 C277 1.389 . S
C278 H300 0.931 . S
C279 C276 1.481 . S
C279 C280 1.387 . S
C279 C284 1.390 . S
C280 C279 1.387 . S
C280 C281 1.401 . S
C280 H301 0.930 . S
C281 C280 1.401 . S
C281 C282 1.376 . S
C281 C290 1.511 . S
C282 C281 1.376 . S
C282 C283 1.392 . S
C282 H303 0.931 . S
C283 C282 1.392 . S
C283 C284 1.361 . S
C283 C285 1.500 . S
C284 C279 1.390 . S
C284 C283 1.361 . S
C284 H302 0.931 . S
C285 C283 1.500 . S
C285 C286 1.371 . S
C285 C287 1.365 . S
C286 C285 1.371 . S
C286 C296 1.386 . S
C286 H304 0.931 . S
C287 C285 1.365 . S
C287 C288 1.409 . S
C287 H305 0.929 . S
C288 C287 1.409 . S
C288 C289 1.380 . S
C288 H306 0.930 . S
C289 C288 1.380 . S
C289 C296 1.357 . S
C290 C281 1.511 . S
C290 C291 1.341 . S
C290 C292 1.371 . S
C291 C290 1.341 . S
C291 C295 1.394 . S
C291 H307 0.930 . S
C292 C290 1.371 . S
C292 C293 1.392 . S
C292 H308 0.931 . S
C293 C292 1.392 . S
C293 C294 1.331 . S
C293 H311 0.932 . S
C294 C293 1.331 . S
C294 C295 1.336 . S
C295 C291 1.394 . S
C295 C294 1.336 . S
C295 H310 0.929 . S
C296 C286 1.386 . S
C296 C289 1.357 . S
C296 H309 0.928 . S
H297 C273 0.931 . S
H298 C275 0.930 . S
H299 C277 0.929 . S
H300 C278 0.931 . S
H301 C280 0.930 . S
H302 C284 0.931 . S
H303 C282 0.931 . S
H304 C286 0.931 . S
H305 C287 0.929 . S
H306 C288 0.930 . S
H307 C291 0.930 . S
H308 C292 0.931 . S
H309 C296 0.928 . S
H310 C295 0.929 . S
H311 C293 0.932 . S
C312 C313 1.386 . S
C312 C314 1.397 . S
C312 H336 0.931 . S
C313 C312 1.386 . S
C313 C317 1.397 . S
C314 C312 1.397 . S
C314 C315 1.384 . S
C314 H337 0.930 . S
C315 C314 1.384 . S
C315 C316 1.377 . S
C315 C318 1.481 . S
C316 C315 1.377 . S
C316 C317 1.389 . S
C316 H338 0.929 . S
C317 C313 1.397 . S
C317 C316 1.389 . S
C317 H339 0.931 . S
C318 C315 1.481 . S
C318 C319 1.387 . S
C318 C323 1.390 . S
C319 C318 1.387 . S
C319 C320 1.401 . S
C319 H340 0.930 . S
C320 C319 1.401 . S
C320 C321 1.376 . S
C320 C329 1.511 . S
C321 C320 1.376 . S
C321 C322 1.392 . S
C321 H342 0.931 . S
C322 C321 1.392 . S
C322 C323 1.361 . S
C322 C324 1.500 . S
C323 C318 1.390 . S
C323 C322 1.361 . S
C323 H341 0.931 . S
C324 C322 1.500 . S
C324 C325 1.371 . S
C324 C326 1.365 . S
C325 C324 1.371 . S
C325 C335 1.386 . S
C325 H343 0.931 . S
C326 C324 1.365 . S
C326 C327 1.409 . S
C326 H344 0.929 . S
C327 C326 1.409 . S
C327 C328 1.380 . S
C327 H345 0.930 . S
C328 C327 1.380 . S
C328 C335 1.357 . S
C329 C320 1.511 . S
C329 C330 1.341 . S
C329 C331 1.371 . S
C330 C329 1.341 . S
C330 C334 1.394 . S
C330 H346 0.930 . S
C331 C329 1.371 . S
C331 C332 1.392 . S
C331 H347 0.931 . S
C332 C331 1.392 . S
C332 C333 1.331 . S
C332 H350 0.932 . S
C333 C332 1.331 . S
C333 C334 1.336 . S
C334 C330 1.394 . S
C334 C333 1.336 . S
C334 H349 0.929 . S
C335 C325 1.386 . S
C335 C328 1.357 . S
C335 H348 0.928 . S
H336 C312 0.931 . S
H337 C314 0.930 . S
H338 C316 0.929 . S
H339 C317 0.931 . S
H340 C319 0.930 . S
H341 C323 0.931 . S
H342 C321 0.931 . S
H343 C325 0.931 . S
H344 C326 0.929 . S
H345 C327 0.930 . S
H346 C330 0.930 . S
H347 C331 0.931 . S
H348 C335 0.928 . S
H349 C334 0.929 . S
H350 C332 0.932 . S
C351 C352 1.386 . S
C351 C353 1.397 . S
C351 H375 0.931 . S
C352 C351 1.386 . S
C352 C356 1.397 . S
C353 C351 1.397 . S
C353 C354 1.384 . S
C353 H376 0.930 . S
C354 C353 1.384 . S
C354 C355 1.377 . S
C354 C357 1.481 . S
C355 C354 1.377 . S
C355 C356 1.389 . S
C355 H377 0.929 . S
C356 C352 1.397 . S
C356 C355 1.389 . S
C356 H378 0.931 . S
C357 C354 1.481 . S
C357 C358 1.387 . S
C357 C362 1.390 . S
C358 C357 1.387 . S
C358 C359 1.401 . S
C358 H379 0.930 . S
C359 C358 1.401 . S
C359 C360 1.376 . S
C359 C368 1.511 . S
C360 C359 1.376 . S
C360 C361 1.392 . S
C360 H381 0.931 . S
C361 C360 1.392 . S
C361 C362 1.361 . S
C361 C363 1.500 . S
C362 C357 1.390 . S
C362 C361 1.361 . S
C362 H380 0.931 . S
C363 C361 1.500 . S
C363 C364 1.371 . S
C363 C365 1.365 . S
C364 C363 1.371 . S
C364 C374 1.386 . S
C364 H382 0.931 . S
C365 C363 1.365 . S
C365 C366 1.409 . S
C365 H383 0.929 . S
C366 C365 1.409 . S
C366 C367 1.380 . S
C366 H384 0.930 . S
C367 C366 1.380 . S
C367 C374 1.357 . S
C368 C359 1.511 . S
C368 C369 1.341 . S
C368 C370 1.371 . S
C369 C368 1.341 . S
C369 C373 1.394 . S
C369 H385 0.930 . S
C370 C368 1.371 . S
C370 C371 1.392 . S
C370 H386 0.931 . S
C371 C370 1.392 . S
C371 C372 1.331 . S
C371 H389 0.932 . S
C372 C371 1.331 . S
C372 C373 1.336 . S
C373 C369 1.394 . S
C373 C372 1.336 . S
C373 H388 0.929 . S
C374 C364 1.386 . S
C374 C367 1.357 . S
C374 H387 0.928 . S
H375 C351 0.931 . S
H376 C353 0.930 . S
H377 C355 0.929 . S
H378 C356 0.931 . S
H379 C358 0.930 . S
H380 C362 0.931 . S
H381 C360 0.931 . S
H382 C364 0.931 . S
H383 C365 0.929 . S
H384 C366 0.930 . S
H385 C369 0.930 . S
H386 C370 0.931 . S
H387 C374 0.928 . S
H388 C373 0.929 . S
H389 C371 0.932 . S
C390 C391 1.386 . S
C390 C392 1.397 . S
C390 H414 0.931 . S
C391 C390 1.386 . S
C391 C395 1.397 . S
C392 C390 1.397 . S
C392 C393 1.384 . S
C392 H415 0.930 . S
C393 C392 1.384 . S
C393 C394 1.377 . S
C393 C396 1.481 . S
C394 C393 1.377 . S
C394 C395 1.389 . S
C394 H416 0.929 . S
C395 C391 1.397 . S
C395 C394 1.389 . S
C395 H417 0.931 . S
C396 C393 1.481 . S
C396 C397 1.387 . S
C396 C401 1.390 . S
C397 C396 1.387 . S
C397 C398 1.401 . S
C397 H418 0.930 . S
C398 C397 1.401 . S
C398 C399 1.376 . S
C398 C407 1.511 . S
C399 C398 1.376 . S
C399 C400 1.392 . S
C399 H420 0.931 . S
C400 C399 1.392 . S
C400 C401 1.361 . S
C400 C402 1.500 . S
C401 C396 1.390 . S
C401 C400 1.361 . S
C401 H419 0.931 . S
C402 C400 1.500 . S
C402 C403 1.371 . S
C402 C404 1.365 . S
C403 C402 1.371 . S
C403 C413 1.386 . S
C403 H421 0.931 . S
C404 C402 1.365 . S
C404 C405 1.409 . S
C404 H422 0.929 . S
C405 C404 1.409 . S
C405 C406 1.380 . S
C405 H423 0.930 . S
C406 C405 1.380 . S
C406 C413 1.357 . S
C407 C398 1.511 . S
C407 C408 1.341 . S
C407 C409 1.371 . S
C408 C407 1.341 . S
C408 C412 1.394 . S
C408 H424 0.930 . S
C409 C407 1.371 . S
C409 C410 1.392 . S
C409 H425 0.931 . S
C410 C409 1.392 . S
C410 C411 1.331 . S
C410 H428 0.932 . S
C411 C410 1.331 . S
C411 C412 1.336 . S
C412 C408 1.394 . S
C412 C411 1.336 . S
C412 H427 0.929 . S
C413 C403 1.386 . S
C413 C406 1.357 . S
C413 H426 0.928 . S
H414 C390 0.931 . S
H415 C392 0.930 . S
H416 C394 0.929 . S
H417 C395 0.931 . S
H418 C397 0.930 . S
H419 C401 0.931 . S
H420 C399 0.931 . S
H421 C403 0.931 . S
H422 C404 0.929 . S
H423 C405 0.930 . S
H424 C408 0.930 . S
H425 C409 0.931 . S
H426 C413 0.928 . S
H427 C412 0.929 . S
H428 C410 0.932 . S
C429 C430 1.386 . S
C429 C431 1.397 . S
C429 H453 0.931 . S
C430 C429 1.386 . S
C430 C434 1.397 . S
C431 C429 1.397 . S
C431 C432 1.384 . S
C431 H454 0.930 . S
C432 C431 1.384 . S
C432 C433 1.377 . S
C432 C435 1.481 . S
C433 C432 1.377 . S
C433 C434 1.389 . S
C433 H455 0.929 . S
C434 C430 1.397 . S
C434 C433 1.389 . S
C434 H456 0.931 . S
C435 C432 1.481 . S
C435 C436 1.387 . S
C435 C440 1.390 . S
C436 C435 1.387 . S
C436 C437 1.401 . S
C436 H457 0.930 . S
C437 C436 1.401 . S
C437 C438 1.376 . S
C437 C446 1.511 . S
C438 C437 1.376 . S
C438 C439 1.392 . S
C438 H459 0.931 . S
C439 C438 1.392 . S
C439 C440 1.361 . S
C439 C441 1.500 . S
C440 C435 1.390 . S
C440 C439 1.361 . S
C440 H458 0.931 . S
C441 C439 1.500 . S
C441 C442 1.371 . S
C441 C443 1.365 . S
C442 C441 1.371 . S
C442 C452 1.386 . S
C442 H460 0.931 . S
C443 C441 1.365 . S
C443 C444 1.409 . S
C443 H461 0.929 . S
C444 C443 1.409 . S
C444 C445 1.380 . S
C444 H462 0.930 . S
C445 C444 1.380 . S
C445 C452 1.357 . S
C446 C437 1.511 . S
C446 C447 1.341 . S
C446 C448 1.371 . S
C447 C446 1.341 . S
C447 C451 1.394 . S
C447 H463 0.930 . S
C448 C446 1.371 . S
C448 C449 1.392 . S
C448 H464 0.931 . S
C449 C448 1.392 . S
C449 C450 1.331 . S
C449 H467 0.932 . S
C450 C449 1.331 . S
C450 C451 1.336 . S
C451 C447 1.394 . S
C451 C450 1.336 . S
C451 H466 0.929 . S
C452 C442 1.386 . S
C452 C445 1.357 . S
C452 H465 0.928 . S
H453 C429 0.931 . S
H454 C431 0.930 . S
H455 C433 0.929 . S
H456 C434 0.931 . S
H457 C436 0.930 . S
H458 C440 0.931 . S
H459 C438 0.931 . S
H460 C442 0.931 . S
H461 C443 0.929 . S
H462 C444 0.930 . S
H463 C447 0.930 . S
H464 C448 0.931 . S
H465 C452 0.928 . S
H466 C451 0.929 . S
H467 C449 0.932 . S
C468 C469 1.386 . S
C468 C470 1.397 . S
C468 H492 0.931 . S
C469 C468 1.386 . S
C469 C473 1.397 . S
C470 C468 1.397 . S
C470 C471 1.384 . S
C470 H493 0.930 . S
C471 C470 1.384 . S
C471 C472 1.377 . S
C471 C474 1.481 . S
C472 C471 1.377 . S
C472 C473 1.389 . S
C472 H494 0.929 . S
C473 C469 1.397 . S
C473 C472 1.389 . S
C473 H495 0.931 . S
C474 C471 1.481 . S
C474 C475 1.387 . S
C474 C479 1.390 . S
C475 C474 1.387 . S
C475 C476 1.401 . S
C475 H496 0.930 . S
C476 C475 1.401 . S
C476 C477 1.376 . S
C476 C485 1.511 . S
C477 C476 1.376 . S
C477 C478 1.392 . S
C477 H498 0.931 . S
C478 C477 1.392 . S
C478 C479 1.361 . S
C478 C480 1.500 . S
C479 C474 1.390 . S
C479 C478 1.361 . S
C479 H497 0.931 . S
C480 C478 1.500 . S
C480 C481 1.371 . S
C480 C482 1.365 . S
C481 C480 1.371 . S
C481 C491 1.386 . S
C481 H499 0.931 . S
C482 C480 1.365 . S
C482 C483 1.409 . S
C482 H500 0.929 . S
C483 C482 1.409 . S
C483 C484 1.380 . S
C483 H501 0.930 . S
C484 C483 1.380 . S
C484 C491 1.357 . S
C485 C476 1.511 . S
C485 C486 1.341 . S
C485 C487 1.371 . S
C486 C485 1.341 . S
C486 C490 1.394 . S
C486 H502 0.930 . S
C487 C485 1.371 . S
C487 C488 1.392 . S
C487 H503 0.931 . S
C488 C487 1.392 . S
C488 C489 1.331 . S
C488 H506 0.932 . S
C489 C488 1.331 . S
C489 C490 1.336 . S
C490 C486 1.394 . S
C490 C489 1.336 . S
C490 H505 0.929 . S
C491 C481 1.386 . S
C491 C484 1.357 . S
C491 H504 0.928 . S
H492 C468 0.931 . S
H493 C470 0.930 . S
H494 C472 0.929 . S
H495 C473 0.931 . S
H496 C475 0.930 . S
H497 C479 0.931 . S
H498 C477 0.931 . S
H499 C481 0.931 . S
H500 C482 0.929 . S
H501 C483 0.930 . S
H502 C486 0.930 . S
H503 C487 0.931 . S
H504 C491 0.928 . S
H505 C490 0.929 . S
H506 C488 0.932 . S
C507 C508 1.386 . S
C507 C509 1.397 . S
C507 H531 0.931 . S
C508 C507 1.386 . S
C508 C512 1.397 . S
C509 C507 1.397 . S
C509 C510 1.384 . S
C509 H532 0.930 . S
C510 C509 1.384 . S
C510 C511 1.377 . S
C510 C513 1.481 . S
C511 C510 1.377 . S
C511 C512 1.389 . S
C511 H533 0.929 . S
C512 C508 1.397 . S
C512 C511 1.389 . S
C512 H534 0.931 . S
C513 C510 1.481 . S
C513 C514 1.387 . S
C513 C518 1.390 . S
C514 C513 1.387 . S
C514 C515 1.401 . S
C514 H535 0.930 . S
C515 C514 1.401 . S
C515 C516 1.376 . S
C515 C524 1.511 . S
C516 C515 1.376 . S
C516 C517 1.392 . S
C516 H537 0.931 . S
C517 C516 1.392 . S
C517 C518 1.361 . S
C517 C519 1.500 . S
C518 C513 1.390 . S
C518 C517 1.361 . S
C518 H536 0.931 . S
C519 C517 1.500 . S
C519 C520 1.371 . S
C519 C521 1.365 . S
C520 C519 1.371 . S
C520 C530 1.386 . S
C520 H538 0.931 . S
C521 C519 1.365 . S
C521 C522 1.409 . S
C521 H539 0.929 . S
C522 C521 1.409 . S
C522 C523 1.380 . S
C522 H540 0.930 . S
C523 C522 1.380 . S
C523 C530 1.357 . S
C524 C515 1.511 . S
C524 C525 1.341 . S
C524 C526 1.371 . S
C525 C524 1.341 . S
C525 C529 1.394 . S
C525 H541 0.930 . S
C526 C524 1.371 . S
C526 C527 1.392 . S
C526 H542 0.931 . S
C527 C526 1.392 . S
C527 C528 1.331 . S
C527 H545 0.932 . S
C528 C527 1.331 . S
C528 C529 1.336 . S
C529 C525 1.394 . S
C529 C528 1.336 . S
C529 H544 0.929 . S
C530 C520 1.386 . S
C530 C523 1.357 . S
C530 H543 0.928 . S
H531 C507 0.931 . S
H532 C509 0.930 . S
H533 C511 0.929 . S
H534 C512 0.931 . S
H535 C514 0.930 . S
H536 C518 0.931 . S
H537 C516 0.931 . S
H538 C520 0.931 . S
H539 C521 0.929 . S
H540 C522 0.930 . S
H541 C525 0.930 . S
H542 C526 0.931 . S
H543 C530 0.928 . S
H544 C529 0.929 . S
H545 C527 0.932 . S
C546 C547 1.386 . S
C546 C548 1.397 . S
C546 H570 0.931 . S
C547 C546 1.386 . S
C547 C551 1.397 . S
C548 C546 1.397 . S
C548 C549 1.384 . S
C548 H571 0.930 . S
C549 C548 1.384 . S
C549 C550 1.377 . S
C549 C552 1.481 . S
C550 C549 1.377 . S
C550 C551 1.389 . S
C550 H572 0.929 . S
C551 C547 1.397 . S
C551 C550 1.389 . S
C551 H573 0.931 . S
C552 C549 1.481 . S
C552 C553 1.387 . S
C552 C557 1.390 . S
C553 C552 1.387 . S
C553 C554 1.401 . S
C553 H574 0.930 . S
C554 C553 1.401 . S
C554 C555 1.376 . S
C554 C563 1.511 . S
C555 C554 1.376 . S
C555 C556 1.392 . S
C555 H576 0.931 . S
C556 C555 1.392 . S
C556 C557 1.361 . S
C556 C558 1.500 . S
C557 C552 1.390 . S
C557 C556 1.361 . S
C557 H575 0.931 . S
C558 C556 1.500 . S
C558 C559 1.371 . S
C558 C560 1.365 . S
C559 C558 1.371 . S
C559 C569 1.386 . S
C559 H577 0.931 . S
C560 C558 1.365 . S
C560 C561 1.409 . S
C560 H578 0.929 . S
C561 C560 1.409 . S
C561 C562 1.380 . S
C561 H579 0.930 . S
C562 C561 1.380 . S
C562 C569 1.357 . S
C563 C554 1.511 . S
C563 C564 1.341 . S
C563 C565 1.371 . S
C564 C563 1.341 . S
C564 C568 1.394 . S
C564 H580 0.930 . S
C565 C563 1.371 . S
C565 C566 1.392 . S
C565 H581 0.931 . S
C566 C565 1.392 . S
C566 C567 1.331 . S
C566 H584 0.932 . S
C567 C566 1.331 . S
C567 C568 1.336 . S
C568 C564 1.394 . S
C568 C567 1.336 . S
C568 H583 0.929 . S
C569 C559 1.386 . S
C569 C562 1.357 . S
C569 H582 0.928 . S
H570 C546 0.931 . S
H571 C548 0.930 . S
H572 C550 0.929 . S
H573 C551 0.931 . S
H574 C553 0.930 . S
H575 C557 0.931 . S
H576 C555 0.931 . S
H577 C559 0.931 . S
H578 C560 0.929 . S
H579 C561 0.930 . S
H580 C564 0.930 . S
H581 C565 0.931 . S
H582 C569 0.928 . S
H583 C568 0.929 . S
H584 C566 0.932 . S
C585 C586 1.386 . S
C585 C587 1.397 . S
C585 H609 0.931 . S
C586 C585 1.386 . S
C586 C590 1.397 . S
C587 C585 1.397 . S
C587 C588 1.384 . S
C587 H610 0.930 . S
C588 C587 1.384 . S
C588 C589 1.377 . S
C588 C591 1.481 . S
C589 C588 1.377 . S
C589 C590 1.389 . S
C589 H611 0.929 . S
C590 C586 1.397 . S
C590 C589 1.389 . S
C590 H612 0.931 . S
C591 C588 1.481 . S
C591 C592 1.387 . S
C591 C596 1.390 . S
C592 C591 1.387 . S
C592 C593 1.401 . S
C592 H613 0.930 . S
C593 C592 1.401 . S
C593 C594 1.376 . S
C593 C602 1.511 . S
C594 C593 1.376 . S
C594 C595 1.392 . S
C594 H615 0.931 . S
C595 C594 1.392 . S
C595 C596 1.361 . S
C595 C597 1.500 . S
C596 C591 1.390 . S
C596 C595 1.361 . S
C596 H614 0.931 . S
C597 C595 1.500 . S
C597 C598 1.371 . S
C597 C599 1.365 . S
C598 C597 1.371 . S
C598 C608 1.386 . S
C598 H616 0.931 . S
C599 C597 1.365 . S
C599 C600 1.409 . S
C599 H617 0.929 . S
C600 C599 1.409 . S
C600 C601 1.380 . S
C600 H618 0.930 . S
C601 C600 1.380 . S
C601 C608 1.357 . S
C602 C593 1.511 . S
C602 C603 1.341 . S
C602 C604 1.371 . S
C603 C602 1.341 . S
C603 C607 1.394 . S
C603 H619 0.930 . S
C604 C602 1.371 . S
C604 C605 1.392 . S
C604 H620 0.931 . S
C605 C604 1.392 . S
C605 C606 1.331 . S
C605 H623 0.932 . S
C606 C605 1.331 . S
C606 C607 1.336 . S
C607 C603 1.394 . S
C607 C606 1.336 . S
C607 H622 0.929 . S
C608 C598 1.386 . S
C608 C601 1.357 . S
C608 H621 0.928 . S
H609 C585 0.931 . S
H610 C587 0.930 . S
H611 C589 0.929 . S
H612 C590 0.931 . S
H613 C592 0.930 . S
H614 C596 0.931 . S
H615 C594 0.931 . S
H616 C598 0.931 . S
H617 C599 0.929 . S
H618 C600 0.930 . S
H619 C603 0.930 . S
H620 C604 0.931 . S
H621 C608 0.928 . S
H622 C607 0.929 . S
H623 C605 0.932 . S
C624 C625 1.386 . S
C624 C626 1.397 . S
C624 H648 0.931 1_455 S
C625 C624 1.386 . S
C625 C629 1.397 . S
C626 C624 1.397 . S
C626 C627 1.384 . S
C626 H649 0.930 . S
C627 C626 1.384 . S
C627 C628 1.377 . S
C627 C630 1.481 . S
C628 C627 1.377 . S
C628 C629 1.389 . S
C628 H650 0.929 . S
C629 C625 1.397 . S
C629 C628 1.389 . S
C629 H651 0.931 . S
C630 C627 1.481 . S
C630 C631 1.387 . S
C630 C635 1.390 . S
C631 C630 1.387 . S
C631 C632 1.401 . S
C631 H652 0.930 . S
C632 C631 1.401 . S
C632 C633 1.376 . S
C632 C641 1.511 . S
C633 C632 1.376 . S
C633 C634 1.392 . S
C633 H654 0.931 . S
C634 C633 1.392 . S
C634 C635 1.361 . S
C634 C636 1.500 . S
C635 C630 1.390 . S
C635 C634 1.361 . S
C635 H653 0.931 . S
C636 C634 1.500 . S
C636 C637 1.371 . S
C636 C638 1.365 . S
C637 C636 1.371 . S
C637 C647 1.386 . S
C637 H655 0.931 . S
C638 C636 1.365 . S
C638 C639 1.409 . S
C638 H656 0.929 . S
C639 C638 1.409 . S
C639 C640 1.380 . S
C639 H657 0.930 . S
C640 C639 1.380 . S
C640 C647 1.357 . S
C641 C632 1.511 . S
C641 C642 1.341 . S
C641 C643 1.371 . S
C642 C641 1.341 . S
C642 C646 1.394 . S
C642 H658 0.930 . S
C643 C641 1.371 . S
C643 C644 1.392 . S
C643 H659 0.931 . S
C644 C643 1.392 . S
C644 C645 1.331 . S
C644 H662 0.932 . S
C645 C644 1.331 . S
C645 C646 1.336 . S
C646 C642 1.394 . S
C646 C645 1.336 . S
C646 H661 0.929 . S
C647 C637 1.386 . S
C647 C640 1.357 . S
C647 H660 0.928 . S
H648 C624 0.931 1_655 S
H649 C626 0.930 . S
H650 C628 0.929 . S
H651 C629 0.931 . S
H652 C631 0.930 . S
H653 C635 0.931 . S
H654 C633 0.931 . S
H655 C637 0.931 . S
H656 C638 0.929 . S
H657 C639 0.930 . S
H658 C642 0.930 . S
H659 C643 0.931 . S
H660 C647 0.928 . S
H661 C646 0.929 . S
H662 C644 0.932 . S
C663 C664 1.386 . S
C663 C665 1.397 . S
C663 H687 0.931 . S
C664 C663 1.386 . S
C664 C668 1.397 . S
C665 C663 1.397 . S
C665 C666 1.384 . S
C665 H688 0.930 . S
C666 C665 1.384 . S
C666 C667 1.377 . S
C666 C669 1.481 . S
C667 C666 1.377 . S
C667 C668 1.389 . S
C667 H689 0.929 . S
C668 C664 1.397 . S
C668 C667 1.389 . S
C668 H690 0.931 . S
C669 C666 1.481 . S
C669 C670 1.387 . S
C669 C674 1.390 . S
C670 C669 1.387 . S
C670 C671 1.401 . S
C670 H691 0.930 . S
C671 C670 1.401 . S
C671 C672 1.376 . S
C671 C680 1.511 . S
C672 C671 1.376 . S
C672 C673 1.392 . S
C672 H693 0.931 . S
C673 C672 1.392 . S
C673 C674 1.361 . S
C673 C675 1.500 . S
C674 C669 1.390 . S
C674 C673 1.361 . S
C674 H692 0.931 . S
C675 C673 1.500 . S
C675 C676 1.371 . S
C675 C677 1.365 . S
C676 C675 1.371 . S
C676 C686 1.386 . S
C676 H694 0.931 . S
C677 C675 1.365 . S
C677 C678 1.409 . S
C677 H695 0.929 . S
C678 C677 1.409 . S
C678 C679 1.380 . S
C678 H696 0.930 . S
C679 C678 1.380 . S
C679 C686 1.357 . S
C680 C671 1.511 . S
C680 C681 1.341 . S
C680 C682 1.371 . S
C681 C680 1.341 . S
C681 C685 1.394 . S
C681 H697 0.930 . S
C682 C680 1.371 . S
C682 C683 1.392 . S
C682 H698 0.931 . S
C683 C682 1.392 . S
C683 C684 1.331 . S
C683 H701 0.932 . S
C684 C683 1.331 . S
C684 C685 1.336 . S
C685 C681 1.394 . S
C685 C684 1.336 . S
C685 H700 0.929 . S
C686 C676 1.386 . S
C686 C679 1.357 . S
C686 H699 0.928 . S
H687 C663 0.931 . S
H688 C665 0.930 . S
H689 C667 0.929 . S
H690 C668 0.931 . S
H691 C670 0.930 . S
H692 C674 0.931 . S
H693 C672 0.931 . S
H694 C676 0.931 . S
H695 C677 0.929 . S
H696 C678 0.930 . S
H697 C681 0.930 . S
H698 C682 0.931 . S
H699 C686 0.928 . S
H700 C685 0.929 . S
H701 C683 0.932 . S
Tb702 C712 2.825 . S
Tb702 O713 2.347 1_565 S
Tb702 O716 2.366 1_565 S
Tb702 O721 2.418 . S
Tb702 O722 2.363 1_556 S
Tb702 O725 2.479 . S
Tb702 O726 2.471 1_565 S
Eu703 O714 2.418 . S
Eu703 O715 2.384 . S
Eu703 O718 2.479 . S
Eu703 O719 2.442 1_545 S
Eu703 O720 2.347 1_545 S
Eu703 O723 2.366 1_545 S
Eu703 C733 2.825 . S
C704 O720 1.259 . S
C704 O721 1.265 1_554 S
C705 O722 1.280 . S
C705 O723 1.265 . S
C706 C708 1.380 . S
C706 C709 1.374 1_565 S
C706 C712 1.507 . S
C707 C708 1.384 . S
C707 C711 1.387 1_565 S
C707 H734 0.930 . S
C708 C706 1.380 . S
C708 C707 1.384 . S
C708 H735 0.931 . S
C709 C706 1.374 1_545 S
C709 C710 1.390 . S
C709 H736 0.930 . S
C710 C709 1.390 . S
C710 C711 1.391 . S
C710 H737 0.930 . S
C711 C707 1.387 1_545 S
C711 C710 1.391 . S
C712 Tb702 2.825 . S
C712 C706 1.507 . S
C712 O725 1.238 . S
C712 O726 1.247 1_565 S
O713 Tb702 2.347 1_545 S
O713 C717 1.257 1_556 S
O714 Eu703 2.418 . S
O714 C717 1.269 . S
O715 Eu703 2.384 . S
O715 C724 1.255 1_554 S
O716 Tb702 2.366 1_545 S
O716 C724 1.265 . S
C717 O713 1.257 1_554 S
C717 O714 1.269 . S
O718 Eu703 2.479 . S
O718 C733 1.238 . S
O719 Eu703 2.442 1_565 S
O719 C733 1.204 1_565 S
O720 Eu703 2.347 1_565 S
O720 C704 1.259 . S
O721 Tb702 2.418 . S
O721 C704 1.265 1_556 S
O722 Tb702 2.363 1_554 S
O722 C705 1.280 . S
O723 Eu703 2.366 1_565 S
O723 C705 1.265 . S
C724 O715 1.255 1_556 S
C724 O716 1.265 . S
O725 Tb702 2.479 . S
O725 C712 1.238 . S
O726 Tb702 2.471 1_545 S
O726 C712 1.247 1_545 S
C727 C730 1.380 . S
C727 C731 1.374 1_545 S
C727 C733 1.507 . S
C728 C729 1.387 1_565 S
C728 C732 1.391 . S
C729 C728 1.387 1_545 S
C729 C730 1.384 . S
C729 H738 0.930 . S
C730 C727 1.380 . S
C730 C729 1.384 . S
C730 H739 0.931 . S
C731 C727 1.374 1_565 S
C731 C732 1.390 . S
C731 H740 0.930 . S
C732 C728 1.391 . S
C732 C731 1.390 . S
C732 H741 0.930 . S
C733 Eu703 2.825 . S
C733 O718 1.238 . S
C733 O719 1.204 1_545 S
C733 C727 1.507 . S
H734 C707 0.930 . S
H735 C708 0.931 . S
H736 C709 0.930 . S
H737 C710 0.930 . S
H738 C729 0.930 . S
H739 C730 0.931 . S
H740 C731 0.930 . S
H741 C732 0.930 . S
Tb742 C752 2.825 . S
Tb742 O753 2.347 1_455 S
Tb742 O756 2.366 1_455 S
Tb742 O761 2.418 . S
Tb742 O762 2.384 1_556 S
Tb742 O765 2.479 . S
Tb742 O766 2.471 1_455 S
Eu743 O754 2.418 . S
Eu743 O755 2.457 . S
Eu743 O758 2.479 . S
Eu743 O759 2.471 1_655 S
Eu743 O760 2.347 1_655 S
Eu743 O763 2.366 1_655 S
Eu743 C773 2.825 . S
C744 O760 1.259 . S
C744 O761 1.265 1_554 S
C745 O762 1.255 . S
C745 O763 1.265 . S
C746 C748 1.380 . S
C746 C749 1.374 1_455 S
C746 C752 1.507 . S
C747 C748 1.384 . S
C747 C751 1.387 1_455 S
C747 H774 0.930 . S
C748 C746 1.380 . S
C748 C747 1.384 . S
C748 H775 0.931 . S
C749 C746 1.374 1_655 S
C749 C750 1.390 . S
C749 H776 0.930 . S
C750 C749 1.390 . S
C750 C751 1.391 . S
C750 H777 0.930 . S
C751 C747 1.387 1_655 S
C751 C750 1.391 . S
C752 Tb742 2.825 . S
C752 C746 1.507 . S
C752 O765 1.238 . S
C752 O766 1.247 1_455 S
O753 Tb742 2.347 1_655 S
O753 C757 1.259 . S
O754 Eu743 2.418 . S
O754 C757 1.265 1_554 S
O755 Eu743 2.457 . S
O755 C764 1.167 1_554 S
O756 Tb742 2.366 1_655 S
O756 C764 1.265 . S
C757 O753 1.259 . S
C757 O754 1.265 1_556 S
O758 Eu743 2.479 . S
O758 C773 1.238 . S
O759 Eu743 2.471 1_455 S
O759 C773 1.247 1_455 S
O760 Eu743 2.347 1_455 S
O760 C744 1.259 . S
O761 Tb742 2.418 . S
O761 C744 1.265 1_556 S
O762 Tb742 2.384 1_554 S
O762 C745 1.255 . S
O763 Eu743 2.366 1_455 S
O763 C745 1.265 . S
C764 O755 1.167 1_556 S
C764 O756 1.265 . S
O765 Tb742 2.479 . S
O765 C752 1.238 . S
O766 Tb742 2.471 1_655 S
O766 C752 1.247 1_655 S
C767 C770 1.390 . S
C767 C771 1.356 1_655 S
C767 C773 1.515 . S
C768 C769 1.387 1_455 S
C768 C772 1.391 . S
C769 C768 1.387 1_655 S
C769 C770 1.384 . S
C769 H778 0.930 . S
C770 C767 1.390 . S
C770 C769 1.384 . S
C770 H779 0.931 . S
C771 C767 1.356 1_455 S
C771 C772 1.390 . S
C771 H780 0.930 . S
C772 C768 1.391 . S
C772 C771 1.390 . S
C772 H781 0.930 . S
C773 Eu743 2.825 . S
C773 O758 1.238 . S
C773 O759 1.247 1_655 S
C773 C767 1.515 . S
H774 C747 0.930 . S
H775 C748 0.931 . S
H776 C749 0.930 . S
H777 C750 0.930 . S
H778 C769 0.930 . S
H779 C770 0.931 . S
H780 C771 0.930 . S
H781 C772 0.930 . S
Tb782 C792 2.825 . S
Tb782 O793 2.347 . S
Tb782 O796 2.366 . S
Tb782 O801 2.418 . S
Tb782 O802 2.384 . S
Tb782 O805 2.479 . S
Tb782 O806 2.471 . S
Eu783 O794 2.418 . S
Eu783 O795 2.384 1_556 S
Eu783 O798 2.479 . S
Eu783 O799 2.471 . S
Eu783 O800 2.347 . S
Eu783 O803 2.366 . S
Eu783 C813 2.825 . S
C784 O800 1.259 . S
C784 O801 1.265 1_556 S
C785 O802 1.255 1_556 S
C785 O803 1.265 . S
C786 C788 1.380 . S
C786 C789 1.374 . S
C786 C792 1.507 . S
C787 C788 1.384 . S
C787 C791 1.387 . S
C787 H814 0.930 . S
C788 C786 1.380 . S
C788 C787 1.384 . S
C788 H815 0.931 . S
C789 C786 1.374 . S
C789 C790 1.390 . S
C789 H816 0.930 . S
C790 C789 1.390 . S
C790 C791 1.391 . S
C790 H817 0.930 . S
C791 C787 1.387 . S
C791 C790 1.391 . S
C792 Tb782 2.825 . S
C792 C786 1.507 . S
C792 O805 1.238 . S
C792 O806 1.247 . S
O793 Tb782 2.347 . S
O793 C797 1.259 . S
O794 Eu783 2.418 . S
O794 C797 1.265 1_556 S
O795 Eu783 2.384 1_554 S
O795 C804 1.255 . S
O796 Tb782 2.366 . S
O796 C804 1.265 . S
C797 O793 1.259 . S
C797 O794 1.265 1_554 S
O798 Eu783 2.479 . S
O798 C813 1.238 . S
O799 Eu783 2.471 . S
O799 C813 1.247 . S
O800 Eu783 2.347 . S
O800 C784 1.259 . S
O801 Tb782 2.418 . S
O801 C784 1.265 1_554 S
O802 Tb782 2.384 . S
O802 C785 1.255 1_554 S
O803 Eu783 2.366 . S
O803 C785 1.265 . S
C804 O795 1.255 . S
C804 O796 1.265 . S
O805 Tb782 2.479 . S
O805 C792 1.238 . S
O806 Tb782 2.471 . S
O806 C792 1.247 . S
C807 C810 1.380 . S
C807 C811 1.374 . S
C807 C813 1.507 . S
C808 C809 1.387 . S
C808 C812 1.391 . S
C809 C808 1.387 . S
C809 C810 1.384 . S
C809 H818 0.930 . S
C810 C807 1.380 . S
C810 C809 1.384 . S
C810 H819 0.931 . S
C811 C807 1.374 . S
C811 C812 1.390 . S
C811 H820 0.930 . S
C812 C808 1.391 . S
C812 C811 1.390 . S
C812 H821 0.930 . S
C813 Eu783 2.825 . S
C813 O798 1.238 . S
C813 O799 1.247 . S
C813 C807 1.507 . S
H814 C787 0.930 . S
H815 C788 0.931 . S
H816 C789 0.930 . S
H817 C790 0.930 . S
H818 C809 0.930 . S
H819 C810 0.931 . S
H820 C811 0.930 . S
H821 C812 0.930 . S
Tb822 C832 2.825 . S
Tb822 O833 2.347 . S
Tb822 O836 2.366 . S
Tb822 O841 2.418 . S
Tb822 O842 2.384 . S
Tb822 O845 2.479 . S
Tb822 O846 2.471 . S
Eu823 O834 2.418 . S
Eu823 O835 2.384 . S
Eu823 O838 2.479 . S
Eu823 O839 2.471 . S
Eu823 O840 2.347 . S
Eu823 O843 2.366 . S
Eu823 C853 2.825 . S
C824 O840 1.259 . S
C824 O841 1.265 . S
C825 O842 1.255 . S
C825 O843 1.265 . S
C826 C828 1.380 . S
C826 C829 1.374 . S
C826 C832 1.507 . S
C827 C828 1.384 . S
C827 C831 1.387 . S
C827 H854 0.930 . S
C828 C826 1.380 . S
C828 C827 1.384 . S
C828 H855 0.931 . S
C829 C826 1.374 . S
C829 C830 1.390 . S
C829 H856 0.930 . S
C830 C829 1.390 . S
C830 C831 1.391 . S
C830 H857 0.930 . S
C831 C827 1.387 . S
C831 C830 1.391 . S
C832 Tb822 2.825 . S
C832 C826 1.507 . S
C832 O845 1.238 . S
C832 O846 1.247 . S
O833 Tb822 2.347 . S
O833 C837 1.259 . S
O834 Eu823 2.418 . S
O834 C837 1.265 . S
O835 Eu823 2.384 . S
O835 C844 1.255 . S
O836 Tb822 2.366 . S
O836 C844 1.265 . S
C837 O833 1.259 . S
C837 O834 1.265 . S
O838 Eu823 2.479 . S
O838 C853 1.238 . S
O839 Eu823 2.471 . S
O839 C853 1.247 . S
O840 Eu823 2.347 . S
O840 C824 1.259 . S
O841 Tb822 2.418 . S
O841 C824 1.265 . S
O842 Tb822 2.384 . S
O842 C825 1.255 . S
O843 Eu823 2.366 . S
O843 C825 1.265 . S
C844 O835 1.255 . S
C844 O836 1.265 . S
O845 Tb822 2.479 . S
O845 C832 1.238 . S
O846 Tb822 2.471 . S
O846 C832 1.247 . S
C847 C850 1.380 . S
C847 C851 1.374 . S
C847 C853 1.507 . S
C848 C849 1.387 . S
C848 C852 1.391 . S
C849 C848 1.387 . S
C849 C850 1.384 . S
C849 H858 0.930 . S
C850 C847 1.380 . S
C850 C849 1.384 . S
C850 H859 0.931 . S
C851 C847 1.374 . S
C851 C852 1.390 . S
C851 H860 0.930 . S
C852 C848 1.391 . S
C852 C851 1.390 . S
C852 H861 0.930 . S
C853 Eu823 2.825 . S
C853 O838 1.238 . S
C853 O839 1.247 . S
C853 C847 1.507 . S
H854 C827 0.930 . S
H855 C828 0.931 . S
H856 C829 0.930 . S
H857 C830 0.930 . S
H858 C849 0.930 . S
H859 C850 0.931 . S
H860 C851 0.930 . S
H861 C852 0.930 . S
Tb862 C872 2.825 . S
Tb862 O873 2.347 . S
Tb862 O876 2.366 . S
Tb862 O881 2.418 . S
Tb862 O882 2.384 . S
Tb862 O885 2.479 . S
Tb862 O886 2.471 . S
Eu863 O874 2.418 . S
Eu863 O875 2.384 . S
Eu863 O878 2.479 . S
Eu863 O879 2.471 . S
Eu863 O880 2.347 . S
Eu863 O883 2.366 . S
Eu863 C893 2.825 . S
C864 O880 1.259 . S
C864 O881 1.265 . S
C865 O882 1.255 . S
C865 O883 1.265 . S
C866 C868 1.380 . S
C866 C869 1.374 . S
C866 C872 1.507 . S
C867 C868 1.384 . S
C867 C871 1.387 . S
C867 H894 0.930 . S
C868 C866 1.380 . S
C868 C867 1.384 . S
C868 H895 0.931 . S
C869 C866 1.374 . S
C869 C870 1.390 . S
C869 H896 0.930 . S
C870 C869 1.390 . S
C870 C871 1.391 . S
C870 H897 0.930 . S
C871 C867 1.387 . S
C871 C870 1.391 . S
C872 Tb862 2.825 . S
C872 C866 1.507 . S
C872 O885 1.238 . S
C872 O886 1.247 . S
O873 Tb862 2.347 . S
O873 C877 1.259 . S
O874 Eu863 2.418 . S
O874 C877 1.265 . S
O875 Eu863 2.384 . S
O875 C884 1.255 . S
O876 Tb862 2.366 . S
O876 C884 1.265 . S
C877 O873 1.259 . S
C877 O874 1.265 . S
O878 Eu863 2.479 . S
O878 C893 1.238 . S
O879 Eu863 2.471 . S
O879 C893 1.247 . S
O880 Eu863 2.347 . S
O880 C864 1.259 . S
O881 Tb862 2.418 . S
O881 C864 1.265 . S
O882 Tb862 2.384 . S
O882 C865 1.255 . S
O883 Eu863 2.366 . S
O883 C865 1.265 . S
C884 O875 1.255 . S
C884 O876 1.265 . S
O885 Tb862 2.479 . S
O885 C872 1.238 . S
O886 Tb862 2.471 . S
O886 C872 1.247 . S
C887 C890 1.380 . S
C887 C891 1.374 . S
C887 C893 1.507 . S
C888 C889 1.387 . S
C888 C892 1.391 . S
C889 C888 1.387 . S
C889 C890 1.384 . S
C889 H898 0.930 . S
C890 C887 1.380 . S
C890 C889 1.384 . S
C890 H899 0.931 . S
C891 C887 1.374 . S
C891 C892 1.390 . S
C891 H900 0.930 . S
C892 C888 1.391 . S
C892 C891 1.390 . S
C892 H901 0.930 . S
C893 Eu863 2.825 . S
C893 O878 1.238 . S
C893 O879 1.247 . S
C893 C887 1.507 . S
H894 C867 0.930 . S
H895 C868 0.931 . S
H896 C869 0.930 . S
H897 C870 0.930 . S
H898 C889 0.930 . S
H899 C890 0.931 . S
H900 C891 0.930 . S
H901 C892 0.930 . S
Tb902 C912 2.825 . S
Tb902 O913 2.347 . S
Tb902 O916 2.366 . S
Tb902 O921 2.418 . S
Tb902 O922 2.384 . S
Tb902 O925 2.479 . S
Tb902 O926 2.471 . S
Eu903 O914 2.418 . S
Eu903 O915 2.384 . S
Eu903 O918 2.479 . S
Eu903 O919 2.471 . S
Eu903 O920 2.347 . S
Eu903 O923 2.366 . S
Eu903 C933 2.825 . S
C904 O920 1.259 . S
C904 O921 1.265 . S
C905 O922 1.255 . S
C905 O923 1.265 . S
C906 C908 1.380 . S
C906 C909 1.374 . S
C906 C912 1.507 . S
C907 C908 1.384 . S
C907 C911 1.387 . S
C907 H934 0.930 . S
C908 C906 1.380 . S
C908 C907 1.384 . S
C908 H935 0.931 . S
C909 C906 1.374 . S
C909 C910 1.390 . S
C909 H936 0.930 . S
C910 C909 1.390 . S
C910 C911 1.391 . S
C910 H937 0.930 . S
C911 C907 1.387 . S
C911 C910 1.391 . S
C912 Tb902 2.825 . S
C912 C906 1.507 . S
C912 O925 1.238 . S
C912 O926 1.247 . S
O913 Tb902 2.347 . S
O913 C917 1.259 . S
O914 Eu903 2.418 . S
O914 C917 1.265 . S
O915 Eu903 2.384 . S
O915 C924 1.255 . S
O916 Tb902 2.366 . S
O916 C924 1.265 . S
C917 O913 1.259 . S
C917 O914 1.265 . S
O918 Eu903 2.479 . S
O918 C933 1.238 . S
O919 Eu903 2.471 . S
O919 C933 1.247 . S
O920 Eu903 2.347 . S
O920 C904 1.259 . S
O921 Tb902 2.418 . S
O921 C904 1.265 . S
O922 Tb902 2.384 . S
O922 C905 1.255 . S
O923 Eu903 2.366 . S
O923 C905 1.265 . S
C924 O915 1.255 . S
C924 O916 1.265 . S
O925 Tb902 2.479 . S
O925 C912 1.238 . S
O926 Tb902 2.471 . S
O926 C912 1.247 . S
C927 C930 1.380 . S
C927 C931 1.374 . S
C927 C933 1.507 . S
C928 C929 1.387 . S
C928 C932 1.391 . S
C929 C928 1.387 . S
C929 C930 1.384 . S
C929 H938 0.930 . S
C930 C927 1.380 . S
C930 C929 1.384 . S
C930 H939 0.931 . S
C931 C927 1.374 . S
C931 C932 1.390 . S
C931 H940 0.930 . S
C932 C928 1.391 . S
C932 C931 1.390 . S
C932 H941 0.930 . S
C933 Eu903 2.825 . S
C933 O918 1.238 . S
C933 O919 1.247 . S
C933 C927 1.507 . S
H934 C907 0.930 . S
H935 C908 0.931 . S
H936 C909 0.930 . S
H937 C910 0.930 . S
H938 C929 0.930 . S
H939 C930 0.931 . S
H940 C931 0.930 . S
H941 C932 0.930 . S
Tb942 C952 2.825 . S
Tb942 O953 2.347 . S
Tb942 O956 2.366 . S
Tb942 O961 2.418 . S
Tb942 O962 2.384 . S
Tb942 O965 2.479 . S
Tb942 O966 2.471 . S
Eu943 O954 2.418 . S
Eu943 O955 2.384 . S
Eu943 O958 2.479 . S
Eu943 O959 2.471 . S
Eu943 O960 2.347 . S
Eu943 O963 2.366 . S
Eu943 C973 2.825 . S
C944 O960 1.259 . S
C944 O961 1.265 . S
C945 O962 1.255 . S
C945 O963 1.265 . S
C946 C948 1.380 . S
C946 C949 1.374 . S
C946 C952 1.507 . S
C947 C948 1.384 . S
C947 C951 1.387 . S
C947 H974 0.930 . S
C948 C946 1.380 . S
C948 C947 1.384 . S
C948 H975 0.931 . S
C949 C946 1.374 . S
C949 C950 1.390 . S
C949 H976 0.930 . S
C950 C949 1.390 . S
C950 C951 1.391 . S
C950 H977 0.930 . S
C951 C947 1.387 . S
C951 C950 1.391 . S
C952 Tb942 2.825 . S
C952 C946 1.507 . S
C952 O965 1.238 . S
C952 O966 1.247 . S
O953 Tb942 2.347 . S
O953 C957 1.259 . S
O954 Eu943 2.418 . S
O954 C957 1.265 . S
O955 Eu943 2.384 . S
O955 C964 1.255 . S
O956 Tb942 2.366 . S
O956 C964 1.265 . S
C957 O953 1.259 . S
C957 O954 1.265 . S
O958 Eu943 2.479 . S
O958 C973 1.238 . S
O959 Eu943 2.471 . S
O959 C973 1.247 . S
O960 Eu943 2.347 . S
O960 C944 1.259 . S
O961 Tb942 2.418 . S
O961 C944 1.265 . S
O962 Tb942 2.384 . S
O962 C945 1.255 . S
O963 Eu943 2.366 . S
O963 C945 1.265 . S
C964 O955 1.255 . S
C964 O956 1.265 . S
O965 Tb942 2.479 . S
O965 C952 1.238 . S
O966 Tb942 2.471 . S
O966 C952 1.247 . S
C967 C970 1.380 . S
C967 C971 1.374 . S
C967 C973 1.507 . S
C968 C969 1.387 . S
C968 C972 1.391 . S
C969 C968 1.387 . S
C969 C970 1.384 . S
C969 H978 0.930 . S
C970 C967 1.380 . S
C970 C969 1.384 . S
C970 H979 0.931 . S
C971 C967 1.374 . S
C971 C972 1.390 . S
C971 H980 0.930 . S
C972 C968 1.391 . S
C972 C971 1.390 . S
C972 H981 0.930 . S
C973 Eu943 2.825 . S
C973 O958 1.238 . S
C973 O959 1.247 . S
C973 C967 1.507 . S
H974 C947 0.930 . S
H975 C948 0.931 . S
H976 C949 0.930 . S
H977 C950 0.930 . S
H978 C969 0.930 . S
H979 C970 0.931 . S
H980 C971 0.930 . S
H981 C972 0.930 . S
Tb982 C992 2.825 . S
Tb982 O993 2.347 . S
Tb982 O996 2.366 . S
Tb982 O1001 2.418 . S
Tb982 O1002 2.384 . S
Tb982 O1005 2.479 . S
Tb982 O1006 2.471 . S
Eu983 O994 2.418 . S
Eu983 O995 2.384 . S
Eu983 O998 2.479 . S
Eu983 O999 2.471 . S
Eu983 O1000 2.347 . S
Eu983 O1003 2.366 . S
Eu983 C1013 2.825 . S
C984 O1000 1.259 . S
C984 O1001 1.265 . S
C985 O1002 1.255 . S
C985 O1003 1.265 . S
C986 C988 1.380 . S
C986 C989 1.374 . S
C986 C992 1.507 . S
C987 C988 1.384 . S
C987 C991 1.387 . S
C987 H1014 0.930 . S
C988 C986 1.380 . S
C988 C987 1.384 . S
C988 H1015 0.931 . S
C989 C986 1.374 . S
C989 C990 1.390 . S
C989 H1016 0.930 . S
C990 C989 1.390 . S
C990 C991 1.391 . S
C990 H1017 0.930 . S
C991 C987 1.387 . S
C991 C990 1.391 . S
C992 Tb982 2.825 . S
C992 C986 1.507 . S
C992 O1005 1.238 . S
C992 O1006 1.247 . S
O993 Tb982 2.347 . S
O993 C997 1.259 . S
O994 Eu983 2.418 . S
O994 C997 1.265 . S
O995 Eu983 2.384 . S
O995 C1004 1.255 . S
O996 Tb982 2.366 . S
O996 C1004 1.265 . S
C997 O993 1.259 . S
C997 O994 1.265 . S
O998 Eu983 2.479 . S
O998 C1013 1.238 . S
O999 Eu983 2.471 . S
O999 C1013 1.247 . S
O1000 Eu983 2.347 . S
O1000 C984 1.259 . S
O1001 Tb982 2.418 . S
O1001 C984 1.265 . S
O1002 Tb982 2.384 . S
O1002 C985 1.255 . S
O1003 Eu983 2.366 . S
O1003 C985 1.265 . S
C1004 O995 1.255 . S
C1004 O996 1.265 . S
O1005 Tb982 2.479 . S
O1005 C992 1.238 . S
O1006 Tb982 2.471 . S
O1006 C992 1.247 . S
C1007 C1010 1.380 . S
C1007 C1011 1.374 . S
C1007 C1013 1.507 . S
C1008 C1009 1.387 . S
C1008 C1012 1.391 . S
C1009 C1008 1.387 . S
C1009 C1010 1.384 . S
C1009 H1018 0.930 . S
C1010 C1007 1.380 . S
C1010 C1009 1.384 . S
C1010 H1019 0.931 . S
C1011 C1007 1.374 . S
C1011 C1012 1.390 . S
C1011 H1020 0.930 . S
C1012 C1008 1.391 . S
C1012 C1011 1.390 . S
C1012 H1021 0.930 . S
C1013 Eu983 2.825 . S
C1013 O998 1.238 . S
C1013 O999 1.247 . S
C1013 C1007 1.507 . S
H1014 C987 0.930 . S
H1015 C988 0.931 . S
H1016 C989 0.930 . S
H1017 C990 0.930 . S
H1018 C1009 0.930 . S
H1019 C1010 0.931 . S
H1020 C1011 0.930 . S
H1021 C1012 0.930 . S
Tb1022 C1032 2.825 . S
Tb1022 O1033 2.347 . S
Tb1022 O1036 2.366 . S
Tb1022 O1041 2.418 . S
Tb1022 O1042 2.384 . S
Tb1022 O1045 2.479 . S
Tb1022 O1046 2.471 . S
Eu1023 O1034 2.418 . S
Eu1023 O1035 2.384 . S
Eu1023 O1038 2.479 . S
Eu1023 O1039 2.471 . S
Eu1023 O1040 2.347 . S
Eu1023 O1043 2.366 . S
Eu1023 C1053 2.825 . S
C1024 O1040 1.259 . S
C1024 O1041 1.265 . S
C1025 O1042 1.255 . S
C1025 O1043 1.265 . S
C1026 C1028 1.380 . S
C1026 C1029 1.374 . S
C1026 C1032 1.507 . S
C1027 C1028 1.384 . S
C1027 C1031 1.387 . S
C1027 H1054 0.930 . S
C1028 C1026 1.380 . S
C1028 C1027 1.384 . S
C1028 H1055 0.931 . S
C1029 C1026 1.374 . S
C1029 C1030 1.390 . S
C1029 H1056 0.930 . S
C1030 C1029 1.390 . S
C1030 C1031 1.391 . S
C1030 H1057 0.930 . S
C1031 C1027 1.387 . S
C1031 C1030 1.391 . S
C1032 Tb1022 2.825 . S
C1032 C1026 1.507 . S
C1032 O1045 1.238 . S
C1032 O1046 1.247 . S
O1033 Tb1022 2.347 . S
O1033 C1037 1.259 . S
O1034 Eu1023 2.418 . S
O1034 C1037 1.265 . S
O1035 Eu1023 2.384 . S
O1035 C1044 1.255 . S
O1036 Tb1022 2.366 . S
O1036 C1044 1.265 . S
C1037 O1033 1.259 . S
C1037 O1034 1.265 . S
O1038 Eu1023 2.479 . S
O1038 C1053 1.238 . S
O1039 Eu1023 2.471 . S
O1039 C1053 1.247 . S
O1040 Eu1023 2.347 . S
O1040 C1024 1.259 . S
O1041 Tb1022 2.418 . S
O1041 C1024 1.265 . S
O1042 Tb1022 2.384 . S
O1042 C1025 1.255 . S
O1043 Eu1023 2.366 . S
O1043 C1025 1.265 . S
C1044 O1035 1.255 . S
C1044 O1036 1.265 . S
O1045 Tb1022 2.479 . S
O1045 C1032 1.238 . S
O1046 Tb1022 2.471 . S
O1046 C1032 1.247 . S
C1047 C1050 1.380 . S
C1047 C1051 1.374 . S
C1047 C1053 1.507 . S
C1048 C1049 1.387 . S
C1048 C1052 1.391 . S
C1049 C1048 1.387 . S
C1049 C1050 1.384 . S
C1049 H1058 0.930 . S
C1050 C1047 1.380 . S
C1050 C1049 1.384 . S
C1050 H1059 0.931 . S
C1051 C1047 1.374 . S
C1051 C1052 1.390 . S
C1051 H1060 0.930 . S
C1052 C1048 1.391 . S
C1052 C1051 1.390 . S
C1052 H1061 0.930 . S
C1053 Eu1023 2.825 . S
C1053 O1038 1.238 . S
C1053 O1039 1.247 . S
C1053 C1047 1.507 . S
H1054 C1027 0.930 . S
H1055 C1028 0.931 . S
H1056 C1029 0.930 . S
H1057 C1030 0.930 . S
H1058 C1049 0.930 . S
H1059 C1050 0.931 . S
H1060 C1051 0.930 . S
H1061 C1052 0.930 . S
C1062 C1063 1.349 . S
C1062 C1064 1.327 . S
C1062 H1087 0.950 . S
C1063 C1062 1.349 . S
C1063 C1079 1.349 . S
C1064 C1062 1.327 . S
C1064 C1083 1.429 . S
C1064 H1088 0.950 . S
C1065 C1082 1.574 . S
C1065 C1084 1.368 . S
C1065 H1089 0.949 . S
H1066 C1070 0.949 . S
C1067 C1068 1.349 . S
C1067 C1069 1.327 . S
C1067 H1090 0.945 1_554 S
C1068 C1067 1.349 . S
C1068 C1080 1.349 . S
C1069 C1067 1.327 . S
C1069 C1085 1.429 . S
C1069 H1091 0.950 . S
C1070 H1066 0.949 . S
C1070 C1078 1.574 . S
C1070 C1086 1.368 . S
H1071 C1079 0.950 . S
H1072 C1077 0.950 . S
H1073 C1078 0.949 . S
H1074 C1080 0.950 . S
H1075 C1081 0.950 . S
H1076 C1082 0.949 . S
C1077 H1072 0.950 . S
C1077 C1079 1.327 . S
C1077 C1083 1.429 . S
C1078 C1070 1.574 . S
C1078 H1073 0.949 . S
C1078 C1084 1.368 . S
C1079 C1063 1.349 . S
C1079 H1071 0.950 . S
C1079 C1077 1.327 . S
C1080 C1068 1.349 . S
C1080 H1074 0.950 . S
C1080 C1081 1.327 . S
C1081 H1075 0.950 . S
C1081 C1080 1.327 . S
C1081 C1085 1.429 . S
C1082 C1065 1.574 . S
C1082 H1076 0.949 . S
C1082 C1086 1.368 . S
C1083 C1064 1.429 . S
C1083 C1077 1.429 . S
C1083 C1084 1.523 . S
C1084 C1065 1.368 . S
C1084 C1078 1.368 . S
C1084 C1083 1.523 . S
C1085 C1069 1.429 . S
C1085 C1081 1.429 . S
C1085 C1086 1.523 . S
C1086 C1070 1.368 . S
C1086 C1082 1.368 . S
C1086 C1085 1.523 . S
H1087 C1062 0.950 . S
H1088 C1064 0.950 . S
H1089 C1065 0.949 . S
H1090 C1067 0.945 1_556 S
H1091 C1069 0.950 . S
C1092 C1093 1.349 . S
C1092 C1094 1.327 . S
C1092 H1117 0.950 . S
C1093 C1092 1.349 . S
C1093 C1109 1.349 . S
C1094 C1092 1.327 . S
C1094 C1113 1.429 . S
C1094 H1118 0.950 . S
C1095 C1112 1.574 . S
C1095 C1114 1.368 . S
C1095 H1119 0.949 . S
H1096 C1100 0.949 . S
C1097 C1098 1.349 . S
C1097 C1099 1.327 . S
C1097 H1120 0.950 . S
C1098 C1097 1.349 . S
C1098 C1110 1.349 . S
C1099 C1097 1.327 . S
C1099 C1115 1.429 . S
C1099 H1121 0.950 . S
C1100 H1096 0.949 . S
C1100 C1108 1.574 . S
C1100 C1116 1.368 . S
H1101 C1109 0.950 . S
H1102 C1107 0.950 . S
H1103 C1108 0.949 . S
H1104 C1110 0.950 . S
H1105 C1111 0.950 . S
H1106 C1112 0.949 . S
C1107 H1102 0.950 . S
C1107 C1109 1.327 . S
C1107 C1113 1.429 . S
C1108 C1100 1.574 . S
C1108 H1103 0.949 . S
C1108 C1114 1.368 . S
C1109 C1093 1.349 . S
C1109 H1101 0.950 . S
C1109 C1107 1.327 . S
C1110 C1098 1.349 . S
C1110 H1104 0.950 . S
C1110 C1111 1.327 . S
C1111 H1105 0.950 . S
C1111 C1110 1.327 . S
C1111 C1115 1.429 . S
C1112 C1095 1.574 . S
C1112 H1106 0.949 . S
C1112 C1116 1.368 . S
C1113 C1094 1.429 . S
C1113 C1107 1.429 . S
C1113 C1114 1.523 . S
C1114 C1095 1.368 . S
C1114 C1108 1.368 . S
C1114 C1113 1.523 . S
C1115 C1099 1.429 . S
C1115 C1111 1.429 . S
C1115 C1116 1.523 . S
C1116 C1100 1.368 . S
C1116 C1112 1.368 . S
C1116 C1115 1.523 . S
H1117 C1092 0.950 . S
H1118 C1094 0.950 . S
H1119 C1095 0.949 . S
H1120 C1097 0.950 . S
H1121 C1099 0.950 . S
C1122 C1123 1.349 . S
C1122 C1124 1.327 . S
C1122 H1147 0.950 . S
C1123 C1122 1.349 . S
C1123 C1139 1.349 . S
C1124 C1122 1.327 . S
C1124 C1143 1.429 . S
C1124 H1148 0.950 . S
C1125 C1142 1.574 . S
C1125 C1144 1.368 . S
C1125 H1149 0.949 . S
H1126 C1130 0.949 . S
C1127 C1128 1.349 . S
C1127 C1129 1.327 . S
C1127 H1150 0.950 1_554 S
C1128 C1127 1.349 . S
C1128 C1140 1.349 . S
C1129 C1127 1.327 . S
C1129 C1145 1.429 . S
C1129 H1151 0.950 . S
C1130 H1126 0.949 . S
C1130 C1138 1.574 . S
C1130 C1146 1.368 . S
H1131 C1139 0.950 . S
H1132 C1137 0.950 . S
H1133 C1138 0.949 . S
H1134 C1140 0.950 . S
H1135 C1141 0.950 . S
H1136 C1142 0.949 . S
C1137 H1132 0.950 . S
C1137 C1139 1.327 . S
C1137 C1143 1.429 . S
C1138 C1130 1.574 . S
C1138 H1133 0.949 . S
C1138 C1144 1.368 . S
C1139 C1123 1.349 . S
C1139 H1131 0.950 . S
C1139 C1137 1.327 . S
C1140 C1128 1.349 . S
C1140 H1134 0.950 . S
C1140 C1141 1.327 . S
C1141 H1135 0.950 . S
C1141 C1140 1.327 . S
C1141 C1145 1.429 . S
C1142 C1125 1.574 . S
C1142 H1136 0.949 . S
C1142 C1146 1.368 . S
C1143 C1124 1.429 . S
C1143 C1137 1.429 . S
C1143 C1144 1.523 . S
C1144 C1125 1.368 . S
C1144 C1138 1.368 . S
C1144 C1143 1.523 . S
C1145 C1129 1.429 . S
C1145 C1141 1.429 . S
C1145 C1146 1.523 . S
C1146 C1130 1.368 . S
C1146 C1142 1.368 . S
C1146 C1145 1.523 . S
H1147 C1122 0.950 . S
H1148 C1124 0.950 . S
H1149 C1125 0.949 . S
H1150 C1127 0.950 1_556 S
H1151 C1129 0.950 . S
C1152 C1153 1.349 . S
C1152 C1154 1.327 . S
C1152 H1177 0.950 . S
C1153 C1152 1.349 . S
C1153 C1169 1.349 . S
C1154 C1152 1.327 . S
C1154 C1173 1.429 . S
C1154 H1178 0.950 . S
C1155 C1172 1.574 . S
C1155 C1174 1.368 . S
C1155 H1179 0.949 . S
H1156 C1160 0.949 . S
C1157 C1158 1.349 . S
C1157 C1159 1.327 . S
C1157 H1180 0.950 1_556 S
C1158 C1157 1.349 . S
C1158 C1170 1.349 . S
C1159 C1157 1.327 . S
C1159 C1175 1.429 . S
C1159 H1181 0.950 . S
C1160 H1156 0.949 . S
C1160 C1168 1.574 . S
C1160 C1176 1.368 . S
H1161 C1169 0.950 . S
H1162 C1167 0.950 . S
H1163 C1168 0.949 . S
H1164 C1170 0.950 . S
H1165 C1171 0.950 . S
H1166 C1172 0.949 . S
C1167 H1162 0.950 . S
C1167 C1169 1.327 . S
C1167 C1173 1.429 . S
C1168 C1160 1.574 . S
C1168 H1163 0.949 . S
C1168 C1174 1.368 . S
C1169 C1153 1.349 . S
C1169 H1161 0.950 . S
C1169 C1167 1.327 . S
C1170 C1158 1.349 . S
C1170 H1164 0.950 . S
C1170 C1171 1.327 . S
C1171 H1165 0.950 . S
C1171 C1170 1.327 . S
C1171 C1175 1.429 . S
C1172 C1155 1.574 . S
C1172 H1166 0.949 . S
C1172 C1176 1.368 . S
C1173 C1154 1.429 . S
C1173 C1167 1.429 . S
C1173 C1174 1.523 . S
C1174 C1155 1.368 . S
C1174 C1168 1.368 . S
C1174 C1173 1.523 . S
C1175 C1159 1.429 . S
C1175 C1171 1.429 . S
C1175 C1176 1.523 . S
C1176 C1160 1.368 . S
C1176 C1172 1.368 . S
C1176 C1175 1.523 . S
H1177 C1152 0.950 . S
H1178 C1154 0.950 . S
H1179 C1155 0.949 . S
H1180 C1157 0.950 1_554 S
H1181 C1159 0.950 . S
C1182 C1183 1.349 . S
C1182 C1184 1.327 . S
C1182 H1207 0.950 . S
C1183 C1182 1.349 . S
C1183 C1199 1.349 . S
C1184 C1182 1.327 . S
C1184 C1203 1.429 . S
C1184 H1208 0.950 . S
C1185 C1202 1.574 . S
C1185 C1204 1.368 . S
C1185 H1209 0.949 . S
H1186 C1190 0.949 . S
C1187 C1188 1.349 . S
C1187 C1189 1.327 . S
C1187 H1210 0.950 . S
C1188 C1187 1.349 . S
C1188 C1200 1.349 . S
C1189 C1187 1.327 . S
C1189 C1205 1.429 . S
C1189 H1211 0.950 . S
C1190 H1186 0.949 . S
C1190 C1198 1.574 . S
C1190 C1206 1.368 . S
H1191 C1199 0.950 . S
H1192 C1197 0.950 . S
H1193 C1198 0.949 . S
H1194 C1200 0.950 . S
H1195 C1201 0.950 . S
H1196 C1202 0.949 . S
C1197 H1192 0.950 . S
C1197 C1199 1.327 . S
C1197 C1203 1.429 . S
C1198 C1190 1.574 . S
C1198 H1193 0.949 . S
C1198 C1204 1.368 . S
C1199 C1183 1.349 . S
C1199 H1191 0.950 . S
C1199 C1197 1.327 . S
C1200 C1188 1.349 . S
C1200 H1194 0.950 . S
C1200 C1201 1.327 . S
C1201 H1195 0.950 . S
C1201 C1200 1.327 . S
C1201 C1205 1.429 . S
C1202 C1185 1.574 . S
C1202 H1196 0.949 . S
C1202 C1206 1.368 . S
C1203 C1184 1.429 . S
C1203 C1197 1.429 . S
C1203 C1204 1.523 . S
C1204 C1185 1.368 . S
C1204 C1198 1.368 . S
C1204 C1203 1.523 . S
C1205 C1189 1.429 . S
C1205 C1201 1.429 . S
C1205 C1206 1.523 . S
C1206 C1190 1.368 . S
C1206 C1202 1.368 . S
C1206 C1205 1.523 . S
H1207 C1182 0.950 . S
H1208 C1184 0.950 . S
H1209 C1185 0.949 . S
H1210 C1187 0.950 . S
H1211 C1189 0.950 . S
C1212 C1213 1.349 . S
C1212 C1214 1.327 . S
C1212 H1237 0.950 . S
C1213 C1212 1.349 . S
C1213 C1229 1.349 . S
C1214 C1212 1.327 . S
C1214 C1233 1.429 . S
C1214 H1238 0.950 . S
C1215 C1232 1.574 . S
C1215 C1234 1.368 . S
C1215 H1239 0.949 . S
H1216 C1220 0.949 . S
C1217 C1218 1.349 . S
C1217 C1219 1.327 . S
C1217 H1240 0.950 . S
C1218 C1217 1.349 . S
C1218 C1230 1.362 . S
C1219 C1217 1.327 . S
C1219 C1235 1.429 . S
C1219 H1241 0.950 . S
C1220 H1216 0.949 . S
C1220 C1228 1.574 . S
C1220 C1236 1.368 . S
H1221 C1229 0.950 . S
H1222 C1227 0.950 . S
H1223 C1228 0.949 . S
H1224 C1230 0.926 1_554 S
H1225 C1231 0.952 . S
H1226 C1232 0.949 . S
C1227 H1222 0.950 . S
C1227 C1229 1.327 . S
C1227 C1233 1.429 . S
C1228 C1220 1.574 . S
C1228 H1223 0.949 . S
C1228 C1234 1.368 . S
C1229 C1213 1.349 . S
C1229 H1221 0.950 . S
C1229 C1227 1.327 . S
C1230 C1218 1.362 . S
C1230 H1224 0.926 1_556 S
C1230 C1231 1.339 . S
C1231 H1225 0.952 . S
C1231 C1230 1.339 . S
C1231 C1235 1.429 . S
C1232 C1215 1.574 . S
C1232 H1226 0.949 . S
C1232 C1236 1.368 . S
C1233 C1214 1.429 . S
C1233 C1227 1.429 . S
C1233 C1234 1.523 . S
C1234 C1215 1.368 . S
C1234 C1228 1.368 . S
C1234 C1233 1.523 . S
C1235 C1219 1.429 . S
C1235 C1231 1.429 . S
C1235 C1236 1.523 . S
C1236 C1220 1.368 . S
C1236 C1232 1.368 . S
C1236 C1235 1.523 . S
H1237 C1212 0.950 . S
H1238 C1214 0.950 . S
H1239 C1215 0.949 . S
H1240 C1217 0.950 . S
H1241 C1219 0.950 . S
C1242 C1243 1.349 . S
C1242 C1244 1.327 . S
C1242 H1267 0.950 . S
C1243 C1242 1.349 . S
C1243 C1259 1.349 . S
C1244 C1242 1.327 . S
C1244 C1263 1.429 . S
C1244 H1268 0.950 . S
C1245 C1262 1.574 . S
C1245 C1264 1.368 . S
C1245 H1269 0.949 . S
H1246 C1250 0.949 . S
C1247 C1248 1.349 . S
C1247 C1249 1.327 . S
C1247 H1270 0.950 . S
C1248 C1247 1.349 . S
C1248 C1260 1.349 . S
C1249 C1247 1.327 . S
C1249 C1265 1.429 . S
C1249 H1271 0.950 . S
C1250 H1246 0.949 . S
C1250 C1258 1.574 . S
C1250 C1266 1.368 . S
H1251 C1259 0.950 . S
H1252 C1257 0.950 . S
H1253 C1258 0.949 . S
H1254 C1260 0.950 . S
H1255 C1261 0.950 . S
H1256 C1262 0.949 . S
C1257 H1252 0.950 . S
C1257 C1259 1.327 . S
C1257 C1263 1.429 . S
C1258 C1250 1.574 . S
C1258 H1253 0.949 . S
C1258 C1264 1.368 . S
C1259 C1243 1.349 . S
C1259 H1251 0.950 . S
C1259 C1257 1.327 . S
C1260 C1248 1.349 . S
C1260 H1254 0.950 . S
C1260 C1261 1.327 . S
C1261 H1255 0.950 . S
C1261 C1260 1.327 . S
C1261 C1265 1.429 . S
C1262 C1245 1.574 . S
C1262 H1256 0.949 . S
C1262 C1266 1.368 . S
C1263 C1244 1.429 . S
C1263 C1257 1.429 . S
C1263 C1264 1.523 . S
C1264 C1245 1.368 . S
C1264 C1258 1.368 . S
C1264 C1263 1.523 . S
C1265 C1249 1.429 . S
C1265 C1261 1.429 . S
C1265 C1266 1.523 . S
C1266 C1250 1.368 . S
C1266 C1262 1.368 . S
C1266 C1265 1.523 . S
H1267 C1242 0.950 . S
H1268 C1244 0.950 . S
H1269 C1245 0.949 . S
H1270 C1247 0.950 . S
H1271 C1249 0.950 . S
C1272 C1273 1.349 . S
C1272 C1274 1.327 . S
C1272 H1297 0.950 . S
C1273 C1272 1.349 . S
C1273 C1289 1.349 . S
C1274 C1272 1.327 . S
C1274 C1293 1.429 . S
C1274 H1298 0.950 . S
C1275 C1292 1.574 . S
C1275 C1294 1.368 . S
C1275 H1299 0.949 . S
H1276 C1280 0.949 . S
C1277 C1278 1.349 . S
C1277 C1279 1.327 . S
C1277 H1300 0.950 . S
C1278 C1277 1.349 . S
C1278 C1290 1.349 . S
C1279 C1277 1.327 . S
C1279 C1295 1.429 . S
C1279 H1301 0.950 . S
C1280 H1276 0.949 . S
C1280 C1288 1.574 . S
C1280 C1296 1.368 . S
H1281 C1289 0.950 . S
H1282 C1287 0.950 . S
H1283 C1288 0.949 . S
H1284 C1290 0.915 1_554 S
H1285 C1291 0.950 . S
H1286 C1292 0.949 . S
C1287 H1282 0.950 . S
C1287 C1289 1.327 . S
C1287 C1293 1.429 . S
C1288 C1280 1.574 . S
C1288 H1283 0.949 . S
C1288 C1294 1.368 . S
C1289 C1273 1.349 . S
C1289 H1281 0.950 . S
C1289 C1287 1.327 . S
C1290 C1278 1.349 . S
C1290 H1284 0.915 1_556 S
C1290 C1291 1.327 . S
C1291 H1285 0.950 . S
C1291 C1290 1.327 . S
C1291 C1295 1.429 . S
C1292 C1275 1.574 . S
C1292 H1286 0.949 . S
C1292 C1296 1.368 . S
C1293 C1274 1.429 . S
C1293 C1287 1.429 . S
C1293 C1294 1.523 . S
C1294 C1275 1.368 . S
C1294 C1288 1.368 . S
C1294 C1293 1.523 . S
C1295 C1279 1.429 . S
C1295 C1291 1.429 . S
C1295 C1296 1.523 . S
C1296 C1280 1.368 . S
C1296 C1292 1.368 . S
C1296 C1295 1.523 . S
H1297 C1272 0.950 . S
H1298 C1274 0.950 . S
H1299 C1275 0.949 . S
H1300 C1277 0.950 . S
H1301 C1279 0.950 . S
C1302 C1303 1.349 . S
C1302 C1304 1.327 . S
C1302 H1327 0.950 . S
C1303 C1302 1.349 . S
C1303 C1319 1.349 . S
C1304 C1302 1.327 . S
C1304 C1323 1.429 . S
C1304 H1328 0.950 . S
C1305 C1322 1.574 . S
C1305 C1324 1.368 . S
C1305 H1329 0.949 . S
H1306 C1310 1.016 . S
C1307 C1308 1.349 . S
C1307 C1309 1.327 . S
C1307 H1330 0.950 . S
C1308 C1307 1.349 . S
C1308 C1320 1.359 . S
C1309 C1307 1.327 . S
C1309 C1325 1.429 . S
C1309 H1331 0.950 . S
C1310 H1306 1.016 . S
C1310 C1318 1.574 . S
C1310 C1326 1.368 . S
H1311 C1319 0.950 . S
H1312 C1317 0.950 . S
H1313 C1318 0.949 . S
H1314 C1320 0.938 1_554 S
H1315 C1321 0.950 1_554 S
H1316 C1322 0.949 . S
C1317 H1312 0.950 . S
C1317 C1319 1.327 . S
C1317 C1323 1.429 . S
C1318 C1310 1.574 . S
C1318 H1313 0.949 . S
C1318 C1324 1.368 . S
C1319 C1303 1.349 . S
C1319 H1311 0.950 . S
C1319 C1317 1.327 . S
C1320 C1308 1.359 . S
C1320 H1314 0.938 1_556 S
C1320 C1321 1.329 . S
C1321 H1315 0.950 1_556 S
C1321 C1320 1.329 . S
C1321 C1325 1.429 . S
C1322 C1305 1.574 . S
C1322 H1316 0.949 . S
C1322 C1326 1.368 . S
C1323 C1304 1.429 . S
C1323 C1317 1.429 . S
C1323 C1324 1.523 . S
C1324 C1305 1.368 . S
C1324 C1318 1.368 . S
C1324 C1323 1.523 . S
C1325 C1309 1.429 . S
C1325 C1321 1.429 . S
C1325 C1326 1.523 . S
C1326 C1310 1.368 . S
C1326 C1322 1.368 . S
C1326 C1325 1.523 . S
H1327 C1302 0.950 . S
H1328 C1304 0.950 . S
H1329 C1305 0.949 . S
H1330 C1307 0.950 . S
H1331 C1309 0.950 . S
C1332 C1333 1.349 . S
C1332 C1334 1.327 . S
C1332 H1357 0.950 . S
C1333 C1332 1.349 . S
C1333 C1349 1.349 . S
C1334 C1332 1.327 . S
C1334 C1353 1.429 . S
C1334 H1358 0.950 . S
C1335 C1352 1.574 . S
C1335 C1354 1.368 . S
C1335 H1359 0.949 . S
H1336 C1340 0.949 . S
C1337 C1338 1.349 . S
C1337 C1339 1.327 . S
C1337 H1360 0.950 . S
C1338 C1337 1.349 . S
C1338 C1350 1.349 . S
C1339 C1337 1.327 . S
C1339 C1355 1.429 . S
C1339 H1361 0.950 . S
C1340 H1336 0.949 . S
C1340 C1348 1.574 . S
C1340 C1356 1.368 . S
H1341 C1349 0.950 . S
H1342 C1347 0.950 . S
H1343 C1348 0.949 . S
H1344 C1350 0.941 1_556 S
H1345 C1351 0.950 . S
H1346 C1352 0.949 . S
C1347 H1342 0.950 . S
C1347 C1349 1.327 . S
C1347 C1353 1.429 . S
C1348 C1340 1.574 . S
C1348 H1343 0.949 . S
C1348 C1354 1.368 . S
C1349 C1333 1.349 . S
C1349 H1341 0.950 . S
C1349 C1347 1.327 . S
C1350 C1338 1.349 . S
C1350 H1344 0.941 1_554 S
C1350 C1351 1.327 . S
C1351 H1345 0.950 . S
C1351 C1350 1.327 . S
C1351 C1355 1.429 . S
C1352 C1335 1.574 . S
C1352 H1346 0.949 . S
C1352 C1356 1.368 . S
C1353 C1334 1.429 . S
C1353 C1347 1.429 . S
C1353 C1354 1.523 . S
C1354 C1335 1.368 . S
C1354 C1348 1.368 . S
C1354 C1353 1.523 . S
C1355 C1339 1.429 . S
C1355 C1351 1.429 . S
C1355 C1356 1.523 . S
C1356 C1340 1.368 . S
C1356 C1352 1.368 . S
C1356 C1355 1.523 . S
H1357 C1332 0.950 . S
H1358 C1334 0.950 . S
H1359 C1335 0.949 . S
H1360 C1337 0.950 . S
H1361 C1339 0.950 . S
C1362 C1363 1.349 . S
C1362 C1364 1.327 . S
C1362 H1387 0.950 . S
C1363 C1362 1.349 . S
C1363 C1379 1.349 . S
C1364 C1362 1.327 . S
C1364 C1383 1.429 . S
C1364 H1388 0.950 . S
C1365 C1382 1.574 . S
C1365 C1384 1.368 . S
C1365 H1389 0.949 . S
H1366 C1370 0.949 . S
C1367 C1368 1.349 . S
C1367 C1369 1.327 . S
C1367 H1390 0.950 . S
C1368 C1367 1.349 . S
C1368 C1380 1.349 . S
C1369 C1367 1.327 . S
C1369 C1385 1.429 . S
C1369 H1391 0.950 . S
C1370 H1366 0.949 . S
C1370 C1378 1.574 . S
C1370 C1386 1.368 . S
H1371 C1379 0.950 . S
H1372 C1377 0.950 . S
H1373 C1378 0.949 . S
H1374 C1380 0.950 . S
H1375 C1381 0.950 . S
H1376 C1382 0.949 . S
C1377 H1372 0.950 . S
C1377 C1379 1.327 . S
C1377 C1383 1.429 . S
C1378 C1370 1.574 . S
C1378 H1373 0.949 . S
C1378 C1384 1.368 . S
C1379 C1363 1.349 . S
C1379 H1371 0.950 . S
C1379 C1377 1.327 . S
C1380 C1368 1.349 . S
C1380 H1374 0.950 . S
C1380 C1381 1.327 . S
C1381 H1375 0.950 . S
C1381 C1380 1.327 . S
C1381 C1385 1.429 . S
C1382 C1365 1.574 . S
C1382 H1376 0.949 . S
C1382 C1386 1.368 . S
C1383 C1364 1.429 . S
C1383 C1377 1.429 . S
C1383 C1384 1.523 . S
C1384 C1365 1.368 . S
C1384 C1378 1.368 . S
C1384 C1383 1.523 . S
C1385 C1369 1.429 . S
C1385 C1381 1.429 . S
C1385 C1386 1.523 . S
C1386 C1370 1.368 . S
C1386 C1382 1.368 . S
C1386 C1385 1.523 . S
H1387 C1362 0.950 . S
H1388 C1364 0.950 . S
H1389 C1365 0.949 . S
H1390 C1367 0.950 . S
H1391 C1369 0.950 . S
C1392 C1393 1.349 . S
C1392 C1394 1.327 . S
C1392 H1417 0.950 . S
C1393 C1392 1.349 . S
C1393 C1409 1.349 . S
C1394 C1392 1.327 . S
C1394 C1413 1.429 . S
C1394 H1418 0.950 . S
C1395 C1412 1.574 . S
C1395 C1414 1.368 . S
C1395 H1419 0.949 . S
H1396 C1400 0.949 . S
C1397 C1398 1.349 . S
C1397 C1399 1.327 . S
C1397 H1420 0.949 1_554 S
C1398 C1397 1.349 . S
C1398 C1410 1.349 . S
C1399 C1397 1.327 . S
C1399 C1415 1.429 . S
C1399 H1421 0.950 . S
C1400 H1396 0.949 . S
C1400 C1408 1.574 . S
C1400 C1416 1.368 . S
H1401 C1409 0.950 . S
H1402 C1407 0.950 . S
H1403 C1408 0.949 . S
H1404 C1410 0.950 . S
H1405 C1411 0.950 . S
H1406 C1412 0.949 . S
C1407 H1402 0.950 . S
C1407 C1409 1.327 . S
C1407 C1413 1.429 . S
C1408 C1400 1.574 . S
C1408 H1403 0.949 . S
C1408 C1414 1.368 . S
C1409 C1393 1.349 . S
C1409 H1401 0.950 . S
C1409 C1407 1.327 . S
C1410 C1398 1.349 . S
C1410 H1404 0.950 . S
C1410 C1411 1.327 . S
C1411 H1405 0.950 . S
C1411 C1410 1.327 . S
C1411 C1415 1.429 . S
C1412 C1395 1.574 . S
C1412 H1406 0.949 . S
C1412 C1416 1.368 . S
C1413 C1394 1.429 . S
C1413 C1407 1.429 . S
C1413 C1414 1.523 . S
C1414 C1395 1.368 . S
C1414 C1408 1.368 . S
C1414 C1413 1.523 . S
C1415 C1399 1.429 . S
C1415 C1411 1.429 . S
C1415 C1416 1.523 . S
C1416 C1400 1.368 . S
C1416 C1412 1.368 . S
C1416 C1415 1.523 . S
H1417 C1392 0.950 . S
H1418 C1394 0.950 . S
H1419 C1395 0.949 . S
H1420 C1397 0.949 1_556 S
H1421 C1399 0.950 . S
C1422 C1423 1.349 . S
C1422 C1424 1.327 . S
C1422 H1447 0.950 . S
C1423 C1422 1.349 . S
C1423 C1439 1.349 . S
C1424 C1422 1.327 . S
C1424 C1443 1.429 . S
C1424 H1448 0.950 . S
C1425 C1442 1.574 . S
C1425 C1444 1.368 . S
C1425 H1449 0.949 . S
H1426 C1430 0.949 . S
C1427 C1428 1.349 . S
C1427 C1429 1.327 . S
C1427 H1450 0.950 . S
C1428 C1427 1.349 . S
C1428 C1440 1.349 . S
C1429 C1427 1.327 . S
C1429 C1445 1.429 . S
C1429 H1451 0.950 . S
C1430 H1426 0.949 . S
C1430 C1438 1.574 . S
C1430 C1446 1.368 . S
H1431 C1439 0.950 . S
H1432 C1437 0.950 1_455 S
H1433 C1438 0.949 . S
H1434 C1440 0.950 . S
H1435 C1441 0.950 . S
H1436 C1442 0.949 . S
C1437 H1432 0.950 1_655 S
C1437 C1439 1.327 . S
C1437 C1443 1.429 . S
C1438 C1430 1.574 . S
C1438 H1433 0.949 . S
C1438 C1444 1.368 . S
C1439 C1423 1.349 . S
C1439 H1431 0.950 . S
C1439 C1437 1.327 . S
C1440 C1428 1.349 . S
C1440 H1434 0.950 . S
C1440 C1441 1.327 . S
C1441 H1435 0.950 . S
C1441 C1440 1.327 . S
C1441 C1445 1.429 . S
C1442 C1425 1.574 . S
C1442 H1436 0.949 . S
C1442 C1446 1.368 . S
C1443 C1424 1.429 . S
C1443 C1437 1.429 . S
C1443 C1444 1.523 1_655 S
C1444 C1425 1.368 . S
C1444 C1438 1.368 . S
C1444 C1443 1.523 1_455 S
C1445 C1429 1.429 . S
C1445 C1441 1.429 . S
C1445 C1446 1.523 . S
C1446 C1430 1.368 . S
C1446 C1442 1.368 . S
C1446 C1445 1.523 . S
H1447 C1422 0.950 . S
H1448 C1424 0.950 . S
H1449 C1425 0.949 . S
H1450 C1427 0.950 . S
H1451 C1429 0.950 . S
C1452 C1453 1.349 . S
C1452 C1454 1.327 . S
C1452 H1477 0.950 . S
C1453 C1452 1.349 . S
C1453 C1469 1.349 . S
C1454 C1452 1.327 . S
C1454 C1473 1.429 . S
C1454 H1478 0.950 . S
C1455 C1472 1.574 . S
C1455 C1474 1.368 . S
C1455 H1479 0.949 . S
H1456 C1460 0.949 . S
C1457 C1458 1.349 . S
C1457 C1459 1.327 . S
C1457 H1480 0.950 . S
C1458 C1457 1.349 . S
C1458 C1470 1.349 . S
C1459 C1457 1.327 . S
C1459 C1475 1.429 . S
C1459 H1481 0.950 . S
C1460 H1456 0.949 . S
C1460 C1468 1.574 . S
C1460 C1476 1.368 . S
H1461 C1469 0.950 . S
H1462 C1467 0.950 . S
H1463 C1468 0.949 . S
H1464 C1470 0.950 . S
H1465 C1471 0.950 . S
H1466 C1472 0.949 . S
C1467 H1462 0.950 . S
C1467 C1469 1.327 . S
C1467 C1473 1.429 . S
C1468 C1460 1.574 . S
C1468 H1463 0.949 . S
C1468 C1474 1.368 . S
C1469 C1453 1.349 . S
C1469 H1461 0.950 . S
C1469 C1467 1.327 . S
C1470 C1458 1.349 . S
C1470 H1464 0.950 . S
C1470 C1471 1.327 . S
C1471 H1465 0.950 . S
C1471 C1470 1.327 . S
C1471 C1475 1.429 . S
C1472 C1455 1.574 . S
C1472 H1466 0.949 . S
C1472 C1476 1.368 . S
C1473 C1454 1.429 . S
C1473 C1467 1.429 . S
C1473 C1474 1.523 . S
C1474 C1455 1.368 . S
C1474 C1468 1.368 . S
C1474 C1473 1.523 . S
C1475 C1459 1.429 . S
C1475 C1471 1.429 . S
C1475 C1476 1.523 . S
C1476 C1460 1.368 . S
C1476 C1472 1.368 . S
C1476 C1475 1.523 . S
H1477 C1452 0.950 . S
H1478 C1454 0.950 . S
H1479 C1455 0.949 . S
H1480 C1457 0.950 . S
H1481 C1459 0.950 . S
C1482 C1483 1.349 . S
C1482 C1484 1.327 . S
C1482 H1507 0.950 . S
C1483 C1482 1.349 . S
C1483 C1499 1.349 . S
C1484 C1482 1.327 . S
C1484 C1503 1.429 . S
C1484 H1508 0.950 . S
C1485 C1502 1.574 . S
C1485 C1504 1.380 . S
C1485 H1509 0.949 . S
H1486 C1490 0.949 . S
C1487 C1488 1.349 . S
C1487 C1489 1.327 . S
C1487 H1510 0.950 . S
C1488 C1487 1.349 . S
C1488 C1500 1.349 . S
C1489 C1487 1.327 . S
C1489 C1505 1.429 . S
C1489 H1511 0.950 . S
C1490 H1486 0.949 . S
C1490 C1498 1.574 . S
C1490 C1506 1.368 . S
H1491 C1499 0.950 . S
H1492 C1497 0.950 . S
H1493 C1498 0.949 1_545 S
H1494 C1500 0.950 . S
H1495 C1501 0.950 . S
H1496 C1502 0.949 . S
C1497 H1492 0.950 . S
C1497 C1499 1.327 . S
C1497 C1503 1.429 . S
C1498 C1490 1.574 . S
C1498 H1493 0.949 1_565 S
C1498 C1504 1.398 . S
C1499 C1483 1.349 . S
C1499 H1491 0.950 . S
C1499 C1497 1.327 . S
C1500 C1488 1.349 . S
C1500 H1494 0.950 . S
C1500 C1501 1.327 . S
C1501 H1495 0.950 . S
C1501 C1500 1.327 . S
C1501 C1505 1.429 . S
C1502 C1485 1.574 . S
C1502 H1496 0.949 . S
C1502 C1506 1.368 . S
C1503 C1484 1.429 . S
C1503 C1497 1.429 . S
C1503 C1504 1.472 1_545 S
C1504 C1485 1.380 . S
C1504 C1498 1.398 . S
C1504 C1503 1.472 1_565 S
C1505 C1489 1.429 . S
C1505 C1501 1.429 . S
C1505 C1506 1.523 . S
C1506 C1490 1.368 . S
C1506 C1502 1.368 . S
C1506 C1505 1.523 . S
H1507 C1482 0.950 . S
H1508 C1484 0.950 . S
H1509 C1485 0.949 . S
H1510 C1487 0.950 . S
H1511 C1489 0.950 . S
C1512 C1513 1.349 . S
C1512 C1514 1.327 . S
C1512 H1537 0.950 . S
C1513 C1512 1.349 . S
C1513 C1529 1.349 . S
C1514 C1512 1.327 . S
C1514 C1533 1.429 . S
C1514 H1538 0.950 . S
C1515 C1532 1.574 . S
C1515 C1534 1.368 . S
C1515 H1539 0.949 . S
H1516 C1520 0.949 . S
C1517 C1518 1.349 . S
C1517 C1519 1.327 . S
C1517 H1540 0.950 . S
C1518 C1517 1.349 . S
C1518 C1530 1.349 . S
C1519 C1517 1.327 . S
C1519 C1535 1.429 . S
C1519 H1541 0.950 . S
C1520 H1516 0.949 . S
C1520 C1528 1.574 . S
C1520 C1536 1.368 . S
H1521 C1529 0.950 . S
H1522 C1527 0.950 . S
H1523 C1528 0.949 . S
H1524 C1530 0.950 . S
H1525 C1531 0.950 . S
H1526 C1532 0.949 . S
C1527 H1522 0.950 . S
C1527 C1529 1.327 . S
C1527 C1533 1.429 . S
C1528 C1520 1.574 . S
C1528 H1523 0.949 . S
C1528 C1534 1.368 . S
C1529 C1513 1.349 . S
C1529 H1521 0.950 . S
C1529 C1527 1.327 . S
C1530 C1518 1.349 . S
C1530 H1524 0.950 . S
C1530 C1531 1.327 . S
C1531 H1525 0.950 . S
C1531 C1530 1.327 . S
C1531 C1535 1.429 . S
C1532 C1515 1.574 . S
C1532 H1526 0.949 . S
C1532 C1536 1.368 . S
C1533 C1514 1.429 . S
C1533 C1527 1.429 . S
C1533 C1534 1.523 . S
C1534 C1515 1.368 . S
C1534 C1528 1.368 . S
C1534 C1533 1.523 . S
C1535 C1519 1.429 . S
C1535 C1531 1.429 . S
C1535 C1536 1.523 . S
C1536 C1520 1.368 . S
C1536 C1532 1.368 . S
C1536 C1535 1.523 . S
H1537 C1512 0.950 . S
H1538 C1514 0.950 . S
H1539 C1515 0.949 . S
H1540 C1517 0.950 . S
H1541 C1519 0.950 . S
C1542 C1543 1.349 . S
C1542 C1544 1.327 . S
C1542 H1567 0.950 . S
C1543 C1542 1.349 . S
C1543 C1559 1.349 . S
C1544 C1542 1.327 . S
C1544 C1563 1.429 . S
C1544 H1568 0.950 . S
C1545 C1562 1.574 . S
C1545 C1564 1.368 . S
C1545 H1569 0.949 . S
H1546 C1550 0.949 . S
C1547 C1548 1.349 . S
C1547 C1549 1.327 . S
C1547 H1570 0.950 . S
C1548 C1547 1.349 . S
C1548 C1560 1.349 . S
C1549 C1547 1.327 . S
C1549 C1565 1.429 . S
C1549 H1571 0.950 . S
C1550 H1546 0.949 . S
C1550 C1558 1.574 . S
C1550 C1566 1.368 . S
H1551 C1559 0.950 . S
H1552 C1557 0.950 . S
H1553 C1558 0.949 . S
H1554 C1560 0.950 . S
H1555 C1561 0.950 . S
H1556 C1562 0.949 . S
C1557 H1552 0.950 . S
C1557 C1559 1.327 . S
C1557 C1563 1.429 . S
C1558 C1550 1.574 . S
C1558 H1553 0.949 . S
C1558 C1564 1.368 . S
C1559 C1543 1.349 . S
C1559 H1551 0.950 . S
C1559 C1557 1.327 . S
C1560 C1548 1.349 . S
C1560 H1554 0.950 . S
C1560 C1561 1.327 . S
C1561 H1555 0.950 . S
C1561 C1560 1.327 . S
C1561 C1565 1.429 . S
C1562 C1545 1.574 . S
C1562 H1556 0.949 . S
C1562 C1566 1.368 . S
C1563 C1544 1.429 . S
C1563 C1557 1.429 . S
C1563 C1564 1.523 . S
C1564 C1545 1.368 . S
C1564 C1558 1.368 . S
C1564 C1563 1.523 . S
C1565 C1549 1.429 . S
C1565 C1561 1.429 . S
C1565 C1566 1.523 . S
C1566 C1550 1.368 . S
C1566 C1562 1.368 . S
C1566 C1565 1.523 . S
H1567 C1542 0.950 . S
H1568 C1544 0.950 . S
H1569 C1545 0.949 . S
H1570 C1547 0.950 . S
H1571 C1549 0.950 . S
C1572 C1573 1.349 . S
C1572 C1574 1.327 . S
C1572 H1597 0.950 . S
C1573 C1572 1.349 . S
C1573 C1589 1.349 . S
C1574 C1572 1.327 . S
C1574 C1593 1.429 . S
C1574 H1598 0.950 . S
C1575 C1592 1.574 . S
C1575 C1594 1.368 . S
C1575 H1599 0.949 . S
H1576 C1580 0.949 . S
C1577 C1578 1.349 . S
C1577 C1579 1.327 . S
C1577 H1600 0.950 . S
C1578 C1577 1.349 . S
C1578 C1590 1.349 . S
C1579 C1577 1.327 . S
C1579 C1595 1.429 . S
C1579 H1601 0.950 . S
C1580 H1576 0.949 . S
C1580 C1588 1.574 . S
C1580 C1596 1.368 . S
H1581 C1589 0.950 . S
H1582 C1587 0.950 . S
H1583 C1588 0.949 . S
H1584 C1590 0.950 . S
H1585 C1591 0.950 . S
H1586 C1592 0.949 . S
C1587 H1582 0.950 . S
C1587 C1589 1.327 . S
C1587 C1593 1.429 . S
C1588 C1580 1.574 . S
C1588 H1583 0.949 . S
C1588 C1594 1.368 . S
C1589 C1573 1.349 . S
C1589 H1581 0.950 . S
C1589 C1587 1.327 . S
C1590 C1578 1.349 . S
C1590 H1584 0.950 . S
C1590 C1591 1.327 . S
C1591 H1585 0.950 . S
C1591 C1590 1.327 . S
C1591 C1595 1.429 . S
C1592 C1575 1.574 . S
C1592 H1586 0.949 . S
C1592 C1596 1.368 . S
C1593 C1574 1.429 . S
C1593 C1587 1.429 . S
C1593 C1594 1.523 . S
C1594 C1575 1.368 . S
C1594 C1588 1.368 . S
C1594 C1593 1.523 . S
C1595 C1579 1.429 . S
C1595 C1591 1.429 . S
C1595 C1596 1.523 . S
C1596 C1580 1.368 . S
C1596 C1592 1.368 . S
C1596 C1595 1.523 . S
H1597 C1572 0.950 . S
H1598 C1574 0.950 . S
H1599 C1575 0.949 . S
H1600 C1577 0.950 . S
H1601 C1579 0.950 . S
C1602 C1603 1.349 . S
C1602 C1604 1.327 . S
C1602 H1627 0.950 . S
C1603 C1602 1.349 . S
C1603 C1619 1.349 . S
C1604 C1602 1.327 . S
C1604 C1623 1.429 . S
C1604 H1628 0.950 . S
C1605 C1622 1.574 . S
C1605 C1624 1.368 . S
C1605 H1629 0.949 . S
H1606 C1610 0.949 . S
C1607 C1608 1.349 . S
C1607 C1609 1.327 . S
C1607 H1630 0.950 . S
C1608 C1607 1.349 . S
C1608 C1620 1.349 . S
C1609 C1607 1.327 . S
C1609 C1625 1.429 . S
C1609 H1631 0.950 . S
C1610 H1606 0.949 . S
C1610 C1618 1.574 . S
C1610 C1626 1.368 . S
H1611 C1619 0.950 . S
H1612 C1617 0.950 . S
H1613 C1618 0.949 . S
H1614 C1620 0.950 . S
H1615 C1621 0.950 . S
H1616 C1622 0.949 . S
C1617 H1612 0.950 . S
C1617 C1619 1.327 . S
C1617 C1623 1.429 . S
C1618 C1610 1.574 . S
C1618 H1613 0.949 . S
C1618 C1624 1.368 . S
C1619 C1603 1.349 . S
C1619 H1611 0.950 . S
C1619 C1617 1.327 . S
C1620 C1608 1.349 . S
C1620 H1614 0.950 . S
C1620 C1621 1.327 . S
C1621 H1615 0.950 . S
C1621 C1620 1.327 . S
C1621 C1625 1.429 . S
C1622 C1605 1.574 . S
C1622 H1616 0.949 . S
C1622 C1626 1.368 . S
C1623 C1604 1.429 . S
C1623 C1617 1.429 . S
C1623 C1624 1.523 . S
C1624 C1605 1.368 . S
C1624 C1618 1.368 . S
C1624 C1623 1.523 . S
C1625 C1609 1.429 . S
C1625 C1621 1.429 . S
C1625 C1626 1.523 . S
C1626 C1610 1.368 . S
C1626 C1622 1.368 . S
C1626 C1625 1.523 . S
H1627 C1602 0.950 . S
H1628 C1604 0.950 . S
H1629 C1605 0.949 . S
H1630 C1607 0.950 . S
H1631 C1609 0.950 . S
C1632 C1633 1.349 . S
C1632 C1634 1.327 . S
C1632 H1657 0.950 . S
C1633 C1632 1.349 . S
C1633 C1649 1.349 . S
C1634 C1632 1.327 . S
C1634 C1653 1.429 . S
C1634 H1658 0.950 . S
C1635 C1652 1.574 . S
C1635 C1654 1.368 . S
C1635 H1659 0.949 . S
H1636 C1640 0.949 . S
C1637 C1638 1.349 . S
C1637 C1639 1.327 . S
C1637 H1660 0.950 . S
C1638 C1637 1.349 . S
C1638 C1650 1.349 . S
C1639 C1637 1.327 . S
C1639 C1655 1.429 . S
C1639 H1661 0.950 . S
C1640 H1636 0.949 . S
C1640 C1648 1.574 . S
C1640 C1656 1.368 . S
H1641 C1649 0.950 . S
H1642 C1647 0.950 . S
H1643 C1648 0.949 . S
H1644 C1650 0.950 . S
H1645 C1651 0.950 . S
H1646 C1652 0.949 . S
C1647 H1642 0.950 . S
C1647 C1649 1.327 . S
C1647 C1653 1.429 . S
C1648 C1640 1.574 . S
C1648 H1643 0.949 . S
C1648 C1654 1.368 . S
C1649 C1633 1.349 . S
C1649 H1641 0.950 . S
C1649 C1647 1.327 . S
C1650 C1638 1.349 . S
C1650 H1644 0.950 . S
C1650 C1651 1.327 . S
C1651 H1645 0.950 . S
C1651 C1650 1.327 . S
C1651 C1655 1.429 . S
C1652 C1635 1.574 . S
C1652 H1646 0.949 . S
C1652 C1656 1.368 . S
C1653 C1634 1.429 . S
C1653 C1647 1.429 . S
C1653 C1654 1.523 . S
C1654 C1635 1.368 . S
C1654 C1648 1.368 . S
C1654 C1653 1.523 . S
C1655 C1639 1.429 . S
C1655 C1651 1.429 . S
C1655 C1656 1.523 . S
C1656 C1640 1.368 . S
C1656 C1652 1.368 . S
C1656 C1655 1.523 . S
H1657 C1632 0.950 . S
H1658 C1634 0.950 . S
H1659 C1635 0.949 . S
H1660 C1637 0.950 . S
H1661 C1639 0.950 . S
C1662 C1663 1.349 . S
C1662 C1664 1.327 . S
C1662 H1687 0.950 . S
C1663 C1662 1.349 . S
C1663 C1679 1.349 . S
C1664 C1662 1.327 . S
C1664 C1683 1.429 . S
C1664 H1688 0.950 . S
C1665 C1682 1.574 . S
C1665 C1684 1.368 . S
C1665 H1689 0.949 . S
H1666 C1670 0.949 . S
C1667 C1668 1.349 . S
C1667 C1669 1.327 . S
C1667 H1690 0.950 . S
C1668 C1667 1.349 . S
C1668 C1680 1.349 . S
C1669 C1667 1.327 . S
C1669 C1685 1.429 . S
C1669 H1691 0.950 . S
C1670 H1666 0.949 . S
C1670 C1678 1.574 . S
C1670 C1686 1.368 . S
H1671 C1679 0.950 . S
H1672 C1677 0.950 . S
H1673 C1678 0.949 . S
H1674 C1680 0.950 . S
H1675 C1681 0.950 . S
H1676 C1682 0.949 . S
C1677 H1672 0.950 . S
C1677 C1679 1.327 . S
C1677 C1683 1.429 . S
C1678 C1670 1.574 . S
C1678 H1673 0.949 . S
C1678 C1684 1.368 . S
C1679 C1663 1.349 . S
C1679 H1671 0.950 . S
C1679 C1677 1.327 . S
C1680 C1668 1.349 . S
C1680 H1674 0.950 . S
C1680 C1681 1.327 . S
C1681 H1675 0.950 . S
C1681 C1680 1.327 . S
C1681 C1685 1.429 . S
C1682 C1665 1.574 . S
C1682 H1676 0.949 . S
C1682 C1686 1.368 . S
C1683 C1664 1.429 . S
C1683 C1677 1.429 . S
C1683 C1684 1.523 . S
C1684 C1665 1.368 . S
C1684 C1678 1.368 . S
C1684 C1683 1.523 . S
C1685 C1669 1.429 . S
C1685 C1681 1.429 . S
C1685 C1686 1.523 . S
C1686 C1670 1.368 . S
C1686 C1682 1.368 . S
C1686 C1685 1.523 . S
H1687 C1662 0.950 . S
H1688 C1664 0.950 . S
H1689 C1665 0.949 . S
H1690 C1667 0.950 . S
H1691 C1669 0.950 . S
C1692 C1693 1.349 . S
C1692 C1694 1.327 . S
C1692 H1717 0.950 . S
C1693 C1692 1.349 . S
C1693 C1709 1.349 . S
C1694 C1692 1.327 . S
C1694 C1713 1.429 . S
C1694 H1718 0.950 . S
C1695 C1712 1.574 . S
C1695 C1714 1.368 . S
C1695 H1719 0.949 . S
H1696 C1700 0.949 . S
C1697 C1698 1.349 . S
C1697 C1699 1.327 . S
C1697 H1720 0.950 . S
C1698 C1697 1.349 . S
C1698 C1710 1.349 . S
C1699 C1697 1.327 . S
C1699 C1715 1.429 . S
C1699 H1721 0.950 . S
C1700 H1696 0.949 . S
C1700 C1708 1.574 . S
C1700 C1716 1.368 . S
H1701 C1709 0.950 . S
H1702 C1707 0.950 . S
H1703 C1708 0.949 . S
H1704 C1710 0.950 . S
H1705 C1711 0.950 . S
H1706 C1712 0.949 . S
C1707 H1702 0.950 . S
C1707 C1709 1.327 . S
C1707 C1713 1.429 . S
C1708 C1700 1.574 . S
C1708 H1703 0.949 . S
C1708 C1714 1.368 . S
C1709 C1693 1.349 . S
C1709 H1701 0.950 . S
C1709 C1707 1.327 . S
C1710 C1698 1.349 . S
C1710 H1704 0.950 . S
C1710 C1711 1.327 . S
C1711 H1705 0.950 . S
C1711 C1710 1.327 . S
C1711 C1715 1.429 . S
C1712 C1695 1.574 . S
C1712 H1706 0.949 . S
C1712 C1716 1.368 . S
C1713 C1694 1.429 . S
C1713 C1707 1.429 . S
C1713 C1714 1.523 1_545 S
C1714 C1695 1.368 . S
C1714 C1708 1.368 . S
C1714 C1713 1.523 1_565 S
C1715 C1699 1.429 . S
C1715 C1711 1.429 . S
C1715 C1716 1.523 . S
C1716 C1700 1.368 . S
C1716 C1712 1.368 . S
C1716 C1715 1.523 . S
H1717 C1692 0.950 . S
H1718 C1694 0.950 . S
H1719 C1695 0.949 . S
H1720 C1697 0.950 . S
H1721 C1699 0.950 . S
C1722 C1723 1.349 . S
C1722 C1724 1.327 . S
C1722 H1747 0.950 . S
C1723 C1722 1.349 . S
C1723 C1739 1.349 . S
C1724 C1722 1.327 . S
C1724 C1743 1.429 1_655 S
C1724 H1748 0.941 1_655 S
C1725 C1742 1.574 . S
C1725 C1744 1.368 . S
C1725 H1749 0.949 . S
H1726 C1730 0.949 . S
C1727 C1728 1.349 . S
C1727 C1729 1.327 . S
C1727 H1750 0.950 . S
C1728 C1727 1.349 . S
C1728 C1740 1.349 . S
C1729 C1727 1.327 . S
C1729 C1745 1.429 . S
C1729 H1751 0.950 . S
C1730 H1726 0.949 . S
C1730 C1738 1.574 . S
C1730 C1746 1.368 . S
H1731 C1739 0.950 . S
H1732 C1737 0.950 1_455 S
H1733 C1738 0.949 . S
H1734 C1740 0.950 . S
H1735 C1741 0.950 . S
H1736 C1742 0.949 . S
C1737 H1732 0.950 1_655 S
C1737 C1739 1.327 . S
C1737 C1743 1.429 1_655 S
C1738 C1730 1.574 . S
C1738 H1733 0.949 . S
C1738 C1744 1.368 . S
C1739 C1723 1.349 . S
C1739 H1731 0.950 . S
C1739 C1737 1.327 . S
C1740 C1728 1.349 . S
C1740 H1734 0.950 . S
C1740 C1741 1.327 . S
C1741 H1735 0.950 . S
C1741 C1740 1.327 . S
C1741 C1745 1.429 . S
C1742 C1725 1.574 . S
C1742 H1736 0.949 . S
C1742 C1746 1.368 . S
C1743 C1724 1.429 1_455 S
C1743 C1737 1.429 1_455 S
C1743 C1744 1.523 . S
C1744 C1725 1.368 . S
C1744 C1738 1.368 . S
C1744 C1743 1.523 . S
C1745 C1729 1.429 . S
C1745 C1741 1.429 . S
C1745 C1746 1.523 . S
C1746 C1730 1.368 . S
C1746 C1742 1.368 . S
C1746 C1745 1.523 . S
H1747 C1722 0.950 . S
H1748 C1724 0.941 1_455 S
H1749 C1725 0.949 . S
H1750 C1727 0.950 . S
H1751 C1729 0.950 . S
C1752 C1753 1.349 . S
C1752 C1754 1.327 . S
C1752 H1777 0.950 . S
C1753 C1752 1.349 . S
C1753 C1769 1.349 . S
C1754 C1752 1.327 . S
C1754 C1773 1.429 . S
C1754 H1778 0.950 . S
C1755 C1772 1.574 . S
C1755 C1774 1.368 . S
C1755 H1779 0.949 . S
H1756 C1760 0.949 . S
C1757 C1758 1.349 . S
C1757 C1759 1.327 . S
C1757 H1780 0.950 . S
C1758 C1757 1.349 . S
C1758 C1770 1.349 . S
C1759 C1757 1.327 . S
C1759 C1775 1.429 . S
C1759 H1781 0.950 . S
C1760 H1756 0.949 . S
C1760 C1768 1.574 . S
C1760 C1776 1.368 . S
H1761 C1769 0.950 . S
H1762 C1767 0.950 . S
H1763 C1768 0.949 . S
H1764 C1770 0.950 . S
H1765 C1771 0.950 . S
H1766 C1772 0.949 . S
C1767 H1762 0.950 . S
C1767 C1769 1.327 . S
C1767 C1773 1.429 . S
C1768 C1760 1.574 . S
C1768 H1763 0.949 . S
C1768 C1774 1.368 . S
C1769 C1753 1.349 . S
C1769 H1761 0.950 . S
C1769 C1767 1.327 . S
C1770 C1758 1.349 . S
C1770 H1764 0.950 . S
C1770 C1771 1.327 . S
C1771 H1765 0.950 . S
C1771 C1770 1.327 . S
C1771 C1775 1.429 . S
C1772 C1755 1.574 . S
C1772 H1766 0.949 . S
C1772 C1776 1.368 . S
C1773 C1754 1.429 . S
C1773 C1767 1.429 . S
C1773 C1774 1.523 . S
C1774 C1755 1.368 . S
C1774 C1768 1.368 . S
C1774 C1773 1.523 . S
C1775 C1759 1.429 . S
C1775 C1771 1.429 . S
C1775 C1776 1.523 . S
C1776 C1760 1.368 . S
C1776 C1772 1.368 . S
C1776 C1775 1.523 . S
H1777 C1752 0.950 . S
H1778 C1754 0.950 . S
H1779 C1755 0.949 . S
H1780 C1757 0.950 . S
H1781 C1759 0.950 . S
C1782 C1783 1.349 . S
C1782 C1784 1.327 . S
C1782 H1807 0.950 . S
C1783 C1782 1.349 . S
C1783 C1799 1.349 . S
C1784 C1782 1.327 . S
C1784 C1803 1.429 . S
C1784 H1808 0.950 . S
C1785 C1802 1.574 . S
C1785 C1804 1.368 . S
C1785 H1809 0.949 . S
H1786 C1790 0.949 . S
C1787 C1788 1.349 . S
C1787 C1789 1.327 . S
C1787 H1810 0.950 . S
C1788 C1787 1.349 . S
C1788 C1800 1.349 . S
C1789 C1787 1.327 . S
C1789 C1805 1.429 . S
C1789 H1811 0.950 . S
C1790 H1786 0.949 . S
C1790 C1798 1.574 . S
C1790 C1806 1.368 . S
H1791 C1799 0.950 . S
H1792 C1797 0.950 . S
H1793 C1798 0.949 . S
H1794 C1800 0.950 . S
H1795 C1801 0.950 . S
H1796 C1802 0.949 . S
C1797 H1792 0.950 . S
C1797 C1799 1.327 . S
C1797 C1803 1.429 . S
C1798 C1790 1.574 . S
C1798 H1793 0.949 . S
C1798 C1804 1.368 . S
C1799 C1783 1.349 . S
C1799 H1791 0.950 . S
C1799 C1797 1.327 . S
C1800 C1788 1.349 . S
C1800 H1794 0.950 . S
C1800 C1801 1.327 . S
C1801 H1795 0.950 . S
C1801 C1800 1.327 . S
C1801 C1805 1.429 . S
C1802 C1785 1.574 . S
C1802 H1796 0.949 . S
C1802 C1806 1.368 . S
C1803 C1784 1.429 . S
C1803 C1797 1.429 . S
C1803 C1804 1.523 . S
C1804 C1785 1.368 . S
C1804 C1798 1.368 . S
C1804 C1803 1.523 . S
C1805 C1789 1.429 . S
C1805 C1801 1.429 . S
C1805 C1806 1.523 . S
C1806 C1790 1.368 . S
C1806 C1802 1.368 . S
C1806 C1805 1.523 . S
H1807 C1782 0.950 . S
H1808 C1784 0.950 . S
H1809 C1785 0.949 . S
H1810 C1787 0.950 . S
H1811 C1789 0.950 . S
C1812 C1813 1.349 . S
C1812 C1814 1.327 . S
C1812 H1837 0.950 . S
C1813 C1812 1.349 . S
C1813 C1829 1.349 . S
C1814 C1812 1.327 . S
C1814 C1833 1.429 . S
C1814 H1838 0.950 . S
C1815 C1832 1.574 . S
C1815 C1834 1.368 . S
C1815 H1839 0.949 . S
H1816 C1820 0.949 . S
C1817 C1818 1.349 . S
C1817 C1819 1.327 . S
C1817 H1840 0.950 . S
C1818 C1817 1.349 . S
C1818 C1830 1.349 . S
C1819 C1817 1.327 . S
C1819 C1835 1.429 . S
C1819 H1841 0.950 . S
C1820 H1816 0.949 . S
C1820 C1828 1.574 . S
C1820 C1836 1.368 . S
H1821 C1829 0.950 . S
H1822 C1827 0.950 . S
H1823 C1828 0.949 . S
H1824 C1830 0.950 . S
H1825 C1831 0.950 . S
H1826 C1832 0.949 . S
C1827 H1822 0.950 . S
C1827 C1829 1.327 . S
C1827 C1833 1.429 . S
C1828 C1820 1.574 . S
C1828 H1823 0.949 . S
C1828 C1834 1.368 . S
C1829 C1813 1.349 . S
C1829 H1821 0.950 . S
C1829 C1827 1.327 . S
C1830 C1818 1.349 . S
C1830 H1824 0.950 . S
C1830 C1831 1.327 . S
C1831 H1825 0.950 . S
C1831 C1830 1.327 . S
C1831 C1835 1.429 . S
C1832 C1815 1.574 . S
C1832 H1826 0.949 . S
C1832 C1836 1.368 . S
C1833 C1814 1.429 . S
C1833 C1827 1.429 . S
C1833 C1834 1.523 . S
C1834 C1815 1.368 . S
C1834 C1828 1.368 . S
C1834 C1833 1.523 . S
C1835 C1819 1.429 . S
C1835 C1831 1.429 . S
C1835 C1836 1.523 . S
C1836 C1820 1.368 . S
C1836 C1832 1.368 . S
C1836 C1835 1.523 . S
H1837 C1812 0.950 . S
H1838 C1814 0.950 . S
H1839 C1815 0.949 . S
H1840 C1817 0.950 . S
H1841 C1819 0.950 . S
C1842 C1843 1.349 . S
C1842 C1844 1.327 . S
C1842 H1867 0.950 . S
C1843 C1842 1.349 . S
C1843 C1859 1.349 . S
C1844 C1842 1.327 . S
C1844 C1863 1.429 . S
C1844 H1868 0.950 . S
C1845 C1862 1.574 . S
C1845 C1864 1.368 . S
C1845 H1869 0.949 . S
H1846 C1850 0.949 . S
C1847 C1848 1.349 . S
C1847 C1849 1.327 . S
C1847 H1870 0.950 . S
C1848 C1847 1.349 . S
C1848 C1860 1.349 . S
C1849 C1847 1.327 . S
C1849 C1865 1.429 . S
C1849 H1871 0.950 . S
C1850 H1846 0.949 . S
C1850 C1858 1.574 . S
C1850 C1866 1.368 . S
H1851 C1859 0.950 . S
H1852 C1857 0.950 . S
H1853 C1858 0.949 . S
H1854 C1860 0.950 . S
H1855 C1861 0.950 . S
H1856 C1862 0.949 . S
C1857 H1852 0.950 . S
C1857 C1859 1.327 . S
C1857 C1863 1.429 . S
C1858 C1850 1.574 . S
C1858 H1853 0.949 . S
C1858 C1864 1.368 . S
C1859 C1843 1.349 . S
C1859 H1851 0.950 . S
C1859 C1857 1.327 . S
C1860 C1848 1.349 . S
C1860 H1854 0.950 . S
C1860 C1861 1.327 . S
C1861 H1855 0.950 . S
C1861 C1860 1.327 . S
C1861 C1865 1.429 . S
C1862 C1845 1.574 . S
C1862 H1856 0.949 . S
C1862 C1866 1.368 . S
C1863 C1844 1.429 . S
C1863 C1857 1.429 . S
C1863 C1864 1.523 . S
C1864 C1845 1.368 . S
C1864 C1858 1.368 . S
C1864 C1863 1.523 . S
C1865 C1849 1.429 . S
C1865 C1861 1.429 . S
C1865 C1866 1.523 . S
C1866 C1850 1.368 . S
C1866 C1862 1.368 . S
C1866 C1865 1.523 . S
H1867 C1842 0.950 . S
H1868 C1844 0.950 . S
H1869 C1845 0.949 . S
H1870 C1847 0.950 . S
H1871 C1849 0.950 . S
C1872 C1873 1.349 . S
C1872 C1874 1.327 . S
C1872 H1897 0.950 . S
C1873 C1872 1.349 . S
C1873 C1889 1.349 . S
C1874 C1872 1.327 . S
C1874 C1893 1.429 . S
C1874 H1898 0.950 . S
C1875 C1892 1.574 . S
C1875 C1894 1.368 . S
C1875 H1899 0.949 . S
H1876 C1880 0.949 . S
C1877 C1878 1.349 . S
C1877 C1879 1.327 . S
C1877 H1900 0.950 . S
C1878 C1877 1.349 . S
C1878 C1890 1.349 . S
C1879 C1877 1.327 . S
C1879 C1895 1.429 . S
C1879 H1901 0.950 . S
C1880 H1876 0.949 . S
C1880 C1888 1.574 . S
C1880 C1896 1.368 . S
H1881 C1889 0.950 . S
H1882 C1887 0.950 . S
H1883 C1888 0.968 . S
H1884 C1890 0.950 . S
H1885 C1891 0.950 . S
H1886 C1892 0.949 . S
C1887 H1882 0.950 . S
C1887 C1889 1.327 . S
C1887 C1893 1.429 . S
C1888 C1880 1.574 . S
C1888 H1883 0.968 . S
C1888 C1894 1.368 . S
C1889 C1873 1.349 . S
C1889 H1881 0.950 . S
C1889 C1887 1.327 . S
C1890 C1878 1.349 . S
C1890 H1884 0.950 . S
C1890 C1891 1.327 . S
C1891 H1885 0.950 . S
C1891 C1890 1.327 . S
C1891 C1895 1.429 . S
C1892 C1875 1.574 . S
C1892 H1886 0.949 . S
C1892 C1896 1.368 . S
C1893 C1874 1.429 . S
C1893 C1887 1.429 . S
C1893 C1894 1.523 1_565 S
C1894 C1875 1.368 . S
C1894 C1888 1.368 . S
C1894 C1893 1.523 1_545 S
C1895 C1879 1.429 . S
C1895 C1891 1.429 . S
C1895 C1896 1.523 . S
C1896 C1880 1.368 . S
C1896 C1892 1.368 . S
C1896 C1895 1.523 . S
H1897 C1872 0.950 . S
H1898 C1874 0.950 . S
H1899 C1875 0.949 . S
H1900 C1877 0.950 . S
H1901 C1879 0.950 . S
C1902 C1903 1.349 . S
C1902 C1904 1.327 . S
C1902 H1927 0.950 . S
C1903 C1902 1.349 . S
C1903 C1919 1.349 . S
C1904 C1902 1.327 . S
C1904 C1923 1.429 1_455 S
C1904 H1928 0.950 . S
C1905 C1922 1.574 . S
C1905 C1924 1.368 . S
C1905 H1929 0.949 . S
H1906 C1910 0.949 . S
C1907 C1908 1.349 . S
C1907 C1909 1.327 . S
C1907 H1930 0.950 . S
C1908 C1907 1.349 . S
C1908 C1920 1.349 . S
C1909 C1907 1.327 . S
C1909 C1925 1.429 . S
C1909 H1931 0.950 . S
C1910 H1906 0.949 . S
C1910 C1918 1.574 . S
C1910 C1926 1.368 . S
H1911 C1919 0.950 . S
H1912 C1917 0.950 . S
H1913 C1918 0.949 . S
H1914 C1920 0.950 . S
H1915 C1921 0.950 . S
H1916 C1922 0.949 . S
C1917 H1912 0.950 . S
C1917 C1919 1.327 1_655 S
C1917 C1923 1.429 . S
C1918 C1910 1.574 . S
C1918 H1913 0.949 . S
C1918 C1924 1.368 . S
C1919 C1903 1.349 . S
C1919 H1911 0.950 . S
C1919 C1917 1.327 1_455 S
C1920 C1908 1.349 . S
C1920 H1914 0.950 . S
C1920 C1921 1.327 . S
C1921 H1915 0.950 . S
C1921 C1920 1.327 . S
C1921 C1925 1.429 . S
C1922 C1905 1.574 . S
C1922 H1916 0.949 . S
C1922 C1926 1.368 . S
C1923 C1904 1.429 1_655 S
C1923 C1917 1.429 . S
C1923 C1924 1.523 . S
C1924 C1905 1.368 . S
C1924 C1918 1.368 . S
C1924 C1923 1.523 . S
C1925 C1909 1.429 . S
C1925 C1921 1.429 . S
C1925 C1926 1.523 . S
C1926 C1910 1.368 . S
C1926 C1922 1.368 . S
C1926 C1925 1.523 . S
H1927 C1902 0.950 . S
H1928 C1904 0.950 . S
H1929 C1905 0.949 . S
H1930 C1907 0.950 . S
H1931 C1909 0.950 . S
C1932 C1933 1.349 . S
C1932 C1934 1.327 . S
C1932 H1957 0.950 . S
C1933 C1932 1.349 . S
C1933 C1949 1.349 . S
C1934 C1932 1.327 . S
C1934 C1953 1.429 . S
C1934 H1958 0.950 . S
C1935 C1952 1.574 . S
C1935 C1954 1.368 . S
C1935 H1959 0.949 . S
H1936 C1940 0.949 . S
C1937 C1938 1.349 . S
C1937 C1939 1.327 . S
C1937 H1960 0.950 . S
C1938 C1937 1.349 . S
C1938 C1950 1.349 . S
C1939 C1937 1.327 . S
C1939 C1955 1.429 . S
C1939 H1961 0.950 . S
C1940 H1936 0.949 . S
C1940 C1948 1.574 . S
C1940 C1956 1.368 . S
H1941 C1949 0.950 . S
H1942 C1947 0.950 . S
H1943 C1948 0.949 . S
H1944 C1950 0.950 . S
H1945 C1951 0.950 . S
H1946 C1952 0.949 . S
C1947 H1942 0.950 . S
C1947 C1949 1.327 . S
C1947 C1953 1.429 . S
C1948 C1940 1.574 . S
C1948 H1943 0.949 . S
C1948 C1954 1.368 . S
C1949 C1933 1.349 . S
C1949 H1941 0.950 . S
C1949 C1947 1.327 . S
C1950 C1938 1.349 . S
C1950 H1944 0.950 . S
C1950 C1951 1.327 . S
C1951 H1945 0.950 . S
C1951 C1950 1.327 . S
C1951 C1955 1.429 . S
C1952 C1935 1.574 . S
C1952 H1946 0.949 . S
C1952 C1956 1.368 . S
C1953 C1934 1.429 . S
C1953 C1947 1.429 . S
C1953 C1954 1.523 . S
C1954 C1935 1.368 . S
C1954 C1948 1.368 . S
C1954 C1953 1.523 . S
C1955 C1939 1.429 . S
C1955 C1951 1.429 . S
C1955 C1956 1.523 . S
C1956 C1940 1.368 . S
C1956 C1952 1.368 . S
C1956 C1955 1.523 . S
H1957 C1932 0.950 . S
H1958 C1934 0.950 . S
H1959 C1935 0.949 . S
H1960 C1937 0.950 . S
H1961 C1939 0.950 . S
C1962 C1963 1.349 . S
C1962 C1964 1.327 . S
C1962 H1987 0.950 . S
C1963 C1962 1.349 . S
C1963 C1979 1.349 . S
C1964 C1962 1.327 . S
C1964 C1983 1.429 . S
C1964 H1988 0.950 . S
C1965 C1982 1.574 . S
C1965 C1984 1.368 . S
C1965 H1989 0.949 . S
H1966 C1970 0.949 . S
C1967 C1968 1.349 . S
C1967 C1969 1.327 . S
C1967 H1990 0.950 . S
C1968 C1967 1.349 . S
C1968 C1980 1.349 . S
C1969 C1967 1.327 . S
C1969 C1985 1.429 . S
C1969 H1991 0.950 . S
C1970 H1966 0.949 . S
C1970 C1978 1.574 . S
C1970 C1986 1.368 . S
H1971 C1979 0.950 . S
H1972 C1977 0.950 . S
H1973 C1978 0.949 . S
H1974 C1980 0.950 . S
H1975 C1981 0.950 . S
H1976 C1982 0.949 . S
C1977 H1972 0.950 . S
C1977 C1979 1.327 . S
C1977 C1983 1.429 . S
C1978 C1970 1.574 . S
C1978 H1973 0.949 . S
C1978 C1984 1.368 . S
C1979 C1963 1.349 . S
C1979 H1971 0.950 . S
C1979 C1977 1.327 . S
C1980 C1968 1.349 . S
C1980 H1974 0.950 . S
C1980 C1981 1.327 . S
C1981 H1975 0.950 . S
C1981 C1980 1.327 . S
C1981 C1985 1.429 . S
C1982 C1965 1.574 . S
C1982 H1976 0.949 . S
C1982 C1986 1.368 . S
C1983 C1964 1.429 . S
C1983 C1977 1.429 . S
C1983 C1984 1.523 1_455 S
C1984 C1965 1.368 . S
C1984 C1978 1.368 . S
C1984 C1983 1.523 1_655 S
C1985 C1969 1.429 . S
C1985 C1981 1.429 . S
C1985 C1986 1.523 . S
C1986 C1970 1.368 . S
C1986 C1982 1.368 . S
C1986 C1985 1.523 . S
H1987 C1962 0.950 . S
H1988 C1964 0.950 . S
H1989 C1965 0.949 . S
H1990 C1967 0.950 . S
H1991 C1969 0.950 . S
C1992 C1993 1.349 . S
C1992 C1994 1.327 . S
C1992 H2017 0.950 . S
C1993 C1992 1.349 . S
C1993 C2009 1.349 . S
C1994 C1992 1.327 . S
C1994 C2013 1.429 . S
C1994 H2018 0.950 . S
C1995 C2012 1.574 . S
C1995 C2014 1.368 . S
C1995 H2019 0.949 . S
H1996 C2000 0.949 . S
C1997 C1998 1.349 . S
C1997 C1999 1.327 . S
C1997 H2020 0.950 . S
C1998 C1997 1.349 . S
C1998 C2010 1.349 . S
C1999 C1997 1.327 . S
C1999 C2015 1.429 . S
C1999 H2021 0.950 . S
C2000 H1996 0.949 . S
C2000 C2008 1.574 . S
C2000 C2016 1.368 . S
H2001 C2009 0.950 . S
H2002 C2007 0.950 . S
H2003 C2008 0.949 . S
H2004 C2010 0.950 . S
H2005 C2011 0.950 . S
H2006 C2012 0.949 . S
C2007 H2002 0.950 . S
C2007 C2009 1.327 . S
C2007 C2013 1.429 . S
C2008 C2000 1.574 . S
C2008 H2003 0.949 . S
C2008 C2014 1.368 . S
C2009 C1993 1.349 . S
C2009 H2001 0.950 . S
C2009 C2007 1.327 . S
C2010 C1998 1.349 . S
C2010 H2004 0.950 . S
C2010 C2011 1.327 . S
C2011 H2005 0.950 . S
C2011 C2010 1.327 . S
C2011 C2015 1.429 . S
C2012 C1995 1.574 . S
C2012 H2006 0.949 . S
C2012 C2016 1.368 . S
C2013 C1994 1.429 . S
C2013 C2007 1.429 . S
C2013 C2014 1.523 . S
C2014 C1995 1.368 . S
C2014 C2008 1.368 . S
C2014 C2013 1.523 . S
C2015 C1999 1.429 . S
C2015 C2011 1.429 . S
C2015 C2016 1.523 . S
C2016 C2000 1.368 . S
C2016 C2012 1.368 . S
C2016 C2015 1.523 . S
H2017 C1992 0.950 . S
H2018 C1994 0.950 . S
H2019 C1995 0.949 . S
H2020 C1997 0.950 . S
H2021 C1999 0.950 . S
C2022 C2023 1.349 . S
C2022 C2024 1.327 . S
C2022 H2047 0.950 . S
C2023 C2022 1.349 . S
C2023 C2039 1.349 . S
C2024 C2022 1.327 . S
C2024 C2043 1.429 . S
C2024 H2048 0.950 . S
C2025 C2042 1.574 . S
C2025 C2044 1.368 . S
C2025 H2049 0.916 1_545 S
H2026 C2030 0.949 . S
C2027 C2028 1.349 . S
C2027 C2029 1.327 . S
C2027 H2050 0.950 . S
C2028 C2027 1.349 . S
C2028 C2040 1.349 . S
C2029 C2027 1.327 . S
C2029 C2045 1.429 . S
C2029 H2051 0.950 . S
C2030 H2026 0.949 . S
C2030 C2038 1.574 . S
C2030 C2046 1.368 . S
H2031 C2039 0.950 . S
H2032 C2037 0.950 . S
H2033 C2038 0.949 . S
H2034 C2040 0.950 . S
H2035 C2041 0.950 . S
H2036 C2042 0.949 . S
C2037 H2032 0.950 . S
C2037 C2039 1.327 . S
C2037 C2043 1.429 . S
C2038 C2030 1.574 . S
C2038 H2033 0.949 . S
C2038 C2044 1.368 . S
C2039 C2023 1.349 . S
C2039 H2031 0.950 . S
C2039 C2037 1.327 . S
C2040 C2028 1.349 . S
C2040 H2034 0.950 . S
C2040 C2041 1.327 . S
C2041 H2035 0.950 . S
C2041 C2040 1.327 . S
C2041 C2045 1.429 . S
C2042 C2025 1.574 . S
C2042 H2036 0.949 . S
C2042 C2046 1.368 . S
C2043 C2024 1.429 . S
C2043 C2037 1.429 . S
C2043 C2044 1.523 1_565 S
C2044 C2025 1.368 . S
C2044 C2038 1.368 . S
C2044 C2043 1.523 1_545 S
C2045 C2029 1.429 . S
C2045 C2041 1.429 . S
C2045 C2046 1.523 . S
C2046 C2030 1.368 . S
C2046 C2042 1.368 . S
C2046 C2045 1.523 . S
H2047 C2022 0.950 . S
H2048 C2024 0.950 . S
H2049 C2025 0.916 1_565 S
H2050 C2027 0.950 . S
H2051 C2029 0.950 . S
C2052 C2053 1.349 . S
C2052 C2054 1.327 . S
C2052 H2077 0.950 . S
C2053 C2052 1.349 . S
C2053 C2069 1.349 . S
C2054 C2052 1.327 . S
C2054 C2073 1.429 . S
C2054 H2078 0.950 . S
C2055 C2072 1.574 . S
C2055 C2074 1.368 . S
C2055 H2079 0.949 . S
H2056 C2060 0.949 . S
C2057 C2058 1.349 . S
C2057 C2059 1.327 . S
C2057 H2080 0.950 . S
C2058 C2057 1.349 . S
C2058 C2070 1.349 . S
C2059 C2057 1.327 . S
C2059 C2075 1.429 . S
C2059 H2081 0.950 . S
C2060 H2056 0.949 . S
C2060 C2068 1.574 . S
C2060 C2076 1.368 . S
H2061 C2069 0.950 . S
H2062 C2067 0.950 . S
H2063 C2068 0.949 . S
H2064 C2070 0.950 . S
H2065 C2071 0.950 . S
H2066 C2072 0.949 . S
C2067 H2062 0.950 . S
C2067 C2069 1.327 . S
C2067 C2073 1.429 . S
C2068 C2060 1.574 . S
C2068 H2063 0.949 . S
C2068 C2074 1.368 . S
C2069 C2053 1.349 . S
C2069 H2061 0.950 . S
C2069 C2067 1.327 . S
C2070 C2058 1.349 . S
C2070 H2064 0.950 . S
C2070 C2071 1.327 . S
C2071 H2065 0.950 . S
C2071 C2070 1.327 . S
C2071 C2075 1.429 . S
C2072 C2055 1.574 . S
C2072 H2066 0.949 . S
C2072 C2076 1.368 . S
C2073 C2054 1.429 . S
C2073 C2067 1.429 . S
C2073 C2074 1.523 . S
C2074 C2055 1.368 . S
C2074 C2068 1.368 . S
C2074 C2073 1.523 . S
C2075 C2059 1.429 . S
C2075 C2071 1.429 . S
C2075 C2076 1.523 . S
C2076 C2060 1.368 . S
C2076 C2072 1.368 . S
C2076 C2075 1.523 . S
H2077 C2052 0.950 . S
H2078 C2054 0.950 . S
H2079 C2055 0.949 . S
H2080 C2057 0.950 . S
H2081 C2059 0.950 . S
C2082 C2083 1.349 . S
C2082 C2084 1.327 . S
C2082 H2107 0.950 . S
C2083 C2082 1.349 . S
C2083 C2099 1.349 . S
C2084 C2082 1.327 . S
C2084 C2103 1.429 . S
C2084 H2108 0.950 . S
C2085 C2102 1.574 . S
C2085 C2104 1.368 . S
C2085 H2109 0.949 . S
H2086 C2090 0.949 . S
C2087 C2088 1.349 . S
C2087 C2089 1.327 . S
C2087 H2110 0.950 . S
C2088 C2087 1.349 . S
C2088 C2100 1.349 . S
C2089 C2087 1.327 . S
C2089 C2105 1.429 . S
C2089 H2111 0.950 . S
C2090 H2086 0.949 . S
C2090 C2098 1.574 . S
C2090 C2106 1.368 . S
H2091 C2099 0.950 . S
H2092 C2097 0.950 . S
H2093 C2098 0.949 . S
H2094 C2100 0.950 . S
H2095 C2101 0.950 . S
H2096 C2102 0.949 . S
C2097 H2092 0.950 . S
C2097 C2099 1.327 . S
C2097 C2103 1.429 . S
C2098 C2090 1.574 . S
C2098 H2093 0.949 . S
C2098 C2104 1.368 . S
C2099 C2083 1.349 . S
C2099 H2091 0.950 . S
C2099 C2097 1.327 . S
C2100 C2088 1.349 . S
C2100 H2094 0.950 . S
C2100 C2101 1.327 . S
C2101 H2095 0.950 . S
C2101 C2100 1.327 . S
C2101 C2105 1.429 . S
C2102 C2085 1.574 . S
C2102 H2096 0.949 . S
C2102 C2106 1.368 . S
C2103 C2084 1.429 . S
C2103 C2097 1.429 . S
C2103 C2104 1.523 . S
C2104 C2085 1.368 . S
C2104 C2098 1.368 . S
C2104 C2103 1.523 . S
C2105 C2089 1.429 . S
C2105 C2101 1.429 . S
C2105 C2106 1.523 . S
C2106 C2090 1.368 . S
C2106 C2102 1.368 . S
C2106 C2105 1.523 . S
H2107 C2082 0.950 . S
H2108 C2084 0.950 . S
H2109 C2085 0.949 . S
H2110 C2087 0.950 . S
H2111 C2089 0.950 . S
C2112 C2113 1.349 . S
C2112 C2114 1.327 . S
C2112 H2137 0.950 . S
C2113 C2112 1.349 . S
C2113 C2129 1.349 . S
C2114 C2112 1.327 . S
C2114 C2133 1.429 . S
C2114 H2138 0.950 . S
C2115 C2132 1.574 . S
C2115 C2134 1.368 . S
C2115 H2139 0.949 . S
H2116 C2120 0.949 . S
C2117 C2118 1.349 . S
C2117 C2119 1.327 . S
C2117 H2140 0.950 . S
C2118 C2117 1.349 . S
C2118 C2130 1.349 . S
C2119 C2117 1.327 . S
C2119 C2135 1.429 . S
C2119 H2141 0.950 . S
C2120 H2116 0.949 . S
C2120 C2128 1.574 . S
C2120 C2136 1.368 . S
H2121 C2129 0.950 . S
H2122 C2127 0.950 . S
H2123 C2128 0.949 . S
H2124 C2130 0.950 . S
H2125 C2131 0.950 . S
H2126 C2132 0.949 . S
C2127 H2122 0.950 . S
C2127 C2129 1.327 . S
C2127 C2133 1.429 . S
C2128 C2120 1.574 . S
C2128 H2123 0.949 . S
C2128 C2134 1.368 . S
C2129 C2113 1.349 . S
C2129 H2121 0.950 . S
C2129 C2127 1.327 . S
C2130 C2118 1.349 . S
C2130 H2124 0.950 . S
C2130 C2131 1.327 . S
C2131 H2125 0.950 . S
C2131 C2130 1.327 . S
C2131 C2135 1.429 . S
C2132 C2115 1.574 . S
C2132 H2126 0.949 . S
C2132 C2136 1.368 . S
C2133 C2114 1.429 . S
C2133 C2127 1.429 . S
C2133 C2134 1.523 . S
C2134 C2115 1.368 . S
C2134 C2128 1.368 . S
C2134 C2133 1.523 . S
C2135 C2119 1.429 . S
C2135 C2131 1.429 . S
C2135 C2136 1.523 . S
C2136 C2120 1.368 . S
C2136 C2132 1.368 . S
C2136 C2135 1.523 . S
H2137 C2112 0.950 . S
H2138 C2114 0.950 . S
H2139 C2115 0.949 . S
H2140 C2117 0.950 . S
H2141 C2119 0.950 . S
C2142 C2143 1.349 . S
C2142 C2144 1.327 . S
C2142 H2167 0.950 . S
C2143 C2142 1.349 . S
C2143 C2159 1.349 . S
C2144 C2142 1.327 . S
C2144 C2163 1.429 . S
C2144 H2168 0.950 . S
C2145 C2162 1.574 . S
C2145 C2164 1.368 . S
C2145 H2169 0.949 . S
H2146 C2150 0.949 . S
C2147 C2148 1.349 . S
C2147 C2149 1.327 . S
C2147 H2170 0.950 . S
C2148 C2147 1.349 . S
C2148 C2160 1.348 1_565 S
C2149 C2147 1.327 . S
C2149 C2165 1.429 . S
C2149 H2171 0.950 . S
C2150 H2146 0.949 . S
C2150 C2158 1.574 . S
C2150 C2166 1.368 . S
H2151 C2159 0.950 . S
H2152 C2157 0.950 . S
H2153 C2158 0.949 . S
H2154 C2160 0.958 . S
H2155 C2161 0.950 1_545 S
H2156 C2162 0.949 . S
C2157 H2152 0.950 . S
C2157 C2159 1.327 . S
C2157 C2163 1.429 . S
C2158 C2150 1.574 . S
C2158 H2153 0.949 . S
C2158 C2164 1.368 . S
C2159 C2143 1.349 . S
C2159 H2151 0.950 . S
C2159 C2157 1.327 . S
C2160 C2148 1.348 1_545 S
C2160 H2154 0.958 . S
C2160 C2161 1.321 1_545 S
C2161 H2155 0.950 1_565 S
C2161 C2160 1.321 1_565 S
C2161 C2165 1.429 . S
C2162 C2145 1.574 . S
C2162 H2156 0.949 . S
C2162 C2166 1.368 . S
C2163 C2144 1.429 . S
C2163 C2157 1.429 . S
C2163 C2164 1.523 . S
C2164 C2145 1.368 . S
C2164 C2158 1.368 . S
C2164 C2163 1.523 . S
C2165 C2149 1.429 . S
C2165 C2161 1.429 . S
C2165 C2166 1.523 . S
C2166 C2150 1.368 . S
C2166 C2162 1.368 . S
C2166 C2165 1.523 . S
H2167 C2142 0.950 . S
H2168 C2144 0.950 . S
H2169 C2145 0.949 . S
H2170 C2147 0.950 . S
H2171 C2149 0.950 . S
C2172 C2173 1.349 1_655 S
C2172 C2174 1.327 . S
C2172 H2197 0.950 . S
C2173 C2172 1.349 1_455 S
C2173 C2189 1.349 . S
C2174 C2172 1.327 . S
C2174 C2193 1.429 1_655 S
C2174 H2198 0.950 . S
C2175 C2192 1.574 . S
C2175 C2194 1.368 . S
C2175 H2199 0.949 . S
H2176 C2180 0.949 . S
C2177 C2178 1.349 . S
C2177 C2179 1.327 . S
C2177 H2200 0.950 . S
C2178 C2177 1.349 . S
C2178 C2190 1.349 1_455 S
C2179 C2177 1.327 . S
C2179 C2195 1.429 . S
C2179 H2201 0.950 . S
C2180 H2176 0.949 . S
C2180 C2188 1.574 . S
C2180 C2196 1.368 1_655 S
H2181 C2189 0.950 . S
H2182 C2187 0.950 . S
H2183 C2188 0.949 . S
H2184 C2190 0.950 . S
H2185 C2191 0.950 . S
H2186 C2192 0.949 . S
C2187 H2182 0.950 . S
C2187 C2189 1.327 . S
C2187 C2193 1.429 . S
C2188 C2180 1.574 . S
C2188 H2183 0.949 . S
C2188 C2194 1.368 1_655 S
C2189 C2173 1.349 . S
C2189 H2181 0.950 . S
C2189 C2187 1.327 . S
C2190 C2178 1.349 1_655 S
C2190 H2184 0.950 . S
C2190 C2191 1.327 . S
C2191 H2185 0.950 . S
C2191 C2190 1.327 . S
C2191 C2195 1.429 1_655 S
C2192 C2175 1.574 . S
C2192 H2186 0.949 . S
C2192 C2196 1.368 . S
C2193 C2174 1.429 1_455 S
C2193 C2187 1.429 . S
C2193 C2194 1.523 . S
C2194 C2175 1.368 . S
C2194 C2188 1.368 1_455 S
C2194 C2193 1.523 . S
C2195 C2179 1.429 . S
C2195 C2191 1.429 1_455 S
C2195 C2196 1.523 . S
C2196 C2180 1.368 1_455 S
C2196 C2192 1.368 . S
C2196 C2195 1.523 . S
H2197 C2172 0.950 . S
H2198 C2174 0.950 . S
H2199 C2175 0.949 . S
H2200 C2177 0.950 . S
H2201 C2179 0.950 . S
C2202 C2203 1.349 . S
C2202 C2204 1.327 . S
C2202 H2227 0.950 . S
C2203 C2202 1.349 . S
C2203 C2219 1.349 . S
C2204 C2202 1.327 . S
C2204 C2223 1.429 . S
C2204 H2228 0.950 . S
C2205 C2222 1.574 . S
C2205 C2224 1.368 . S
C2205 H2229 0.949 . S
H2206 C2210 0.949 . S
C2207 C2208 1.349 . S
C2207 C2209 1.327 . S
C2207 H2230 0.950 . S
C2208 C2207 1.349 . S
C2208 C2220 1.349 . S
C2209 C2207 1.327 . S
C2209 C2225 1.429 . S
C2209 H2231 0.950 . S
C2210 H2206 0.949 . S
C2210 C2218 1.574 . S
C2210 C2226 1.368 . S
H2211 C2219 0.950 . S
H2212 C2217 0.950 . S
H2213 C2218 0.949 . S
H2214 C2220 0.950 . S
H2215 C2221 0.950 . S
H2216 C2222 0.949 . S
C2217 H2212 0.950 . S
C2217 C2219 1.327 . S
C2217 C2223 1.429 . S
C2218 C2210 1.574 . S
C2218 H2213 0.949 . S
C2218 C2224 1.368 . S
C2219 C2203 1.349 . S
C2219 H2211 0.950 . S
C2219 C2217 1.327 . S
C2220 C2208 1.349 . S
C2220 H2214 0.950 . S
C2220 C2221 1.327 . S
C2221 H2215 0.950 . S
C2221 C2220 1.327 . S
C2221 C2225 1.429 . S
C2222 C2205 1.574 . S
C2222 H2216 0.949 . S
C2222 C2226 1.368 . S
C2223 C2204 1.429 . S
C2223 C2217 1.429 . S
C2223 C2224 1.523 . S
C2224 C2205 1.368 . S
C2224 C2218 1.368 . S
C2224 C2223 1.523 . S
C2225 C2209 1.429 . S
C2225 C2221 1.429 . S
C2225 C2226 1.523 . S
C2226 C2210 1.368 . S
C2226 C2222 1.368 . S
C2226 C2225 1.523 . S
H2227 C2202 0.950 . S
H2228 C2204 0.950 . S
H2229 C2205 0.949 . S
H2230 C2207 0.950 . S
H2231 C2209 0.950 . S
C2232 C2233 1.349 . S
C2232 C2234 1.327 . S
C2232 H2257 0.950 . S
C2233 C2232 1.349 . S
C2233 C2249 1.349 . S
C2234 C2232 1.327 . S
C2234 C2253 1.429 . S
C2234 H2258 0.950 . S
C2235 C2252 1.574 . S
C2235 C2254 1.368 . S
C2235 H2259 0.949 . S
H2236 C2240 0.949 . S
C2237 C2238 1.349 . S
C2237 C2239 1.327 . S
C2237 H2260 0.950 . S
C2238 C2237 1.349 . S
C2238 C2250 1.349 . S
C2239 C2237 1.327 . S
C2239 C2255 1.429 . S
C2239 H2261 0.950 . S
C2240 H2236 0.949 . S
C2240 C2248 1.574 . S
C2240 C2256 1.368 . S
H2241 C2249 0.950 . S
H2242 C2247 0.950 . S
H2243 C2248 0.949 . S
H2244 C2250 0.950 . S
H2245 C2251 0.950 . S
H2246 C2252 0.949 . S
C2247 H2242 0.950 . S
C2247 C2249 1.327 . S
C2247 C2253 1.429 . S
C2248 C2240 1.574 . S
C2248 H2243 0.949 . S
C2248 C2254 1.368 . S
C2249 C2233 1.349 . S
C2249 H2241 0.950 . S
C2249 C2247 1.327 . S
C2250 C2238 1.349 . S
C2250 H2244 0.950 . S
C2250 C2251 1.327 . S
C2251 H2245 0.950 . S
C2251 C2250 1.327 . S
C2251 C2255 1.429 . S
C2252 C2235 1.574 . S
C2252 H2246 0.949 . S
C2252 C2256 1.368 . S
C2253 C2234 1.429 . S
C2253 C2247 1.429 . S
C2253 C2254 1.523 . S
C2254 C2235 1.368 . S
C2254 C2248 1.368 . S
C2254 C2253 1.523 . S
C2255 C2239 1.429 . S
C2255 C2251 1.429 . S
C2255 C2256 1.523 . S
C2256 C2240 1.368 . S
C2256 C2252 1.368 . S
C2256 C2255 1.523 . S
H2257 C2232 0.950 . S
H2258 C2234 0.950 . S
H2259 C2235 0.949 . S
H2260 C2237 0.950 . S
H2261 C2239 0.950 . S
C2262 C2263 1.349 . S
C2262 C2264 1.327 . S
C2262 H2287 0.950 . S
C2263 C2262 1.349 . S
C2263 C2279 1.349 . S
C2264 C2262 1.327 . S
C2264 C2283 1.429 . S
C2264 H2288 0.950 . S
C2265 C2282 1.574 . S
C2265 C2284 1.368 . S
C2265 H2289 0.949 . S
H2266 C2270 0.949 . S
C2267 C2268 1.349 . S
C2267 C2269 1.327 . S
C2267 H2290 0.950 . S
C2268 C2267 1.349 . S
C2268 C2280 1.349 . S
C2269 C2267 1.327 . S
C2269 C2285 1.429 . S
C2269 H2291 0.950 . S
C2270 H2266 0.949 . S
C2270 C2278 1.574 . S
C2270 C2286 1.368 . S
H2271 C2279 0.950 . S
H2272 C2277 0.950 . S
H2273 C2278 0.949 . S
H2274 C2280 0.950 . S
H2275 C2281 0.950 . S
H2276 C2282 0.949 . S
C2277 H2272 0.950 . S
C2277 C2279 1.327 . S
C2277 C2283 1.429 . S
C2278 C2270 1.574 . S
C2278 H2273 0.949 . S
C2278 C2284 1.368 . S
C2279 C2263 1.349 . S
C2279 H2271 0.950 . S
C2279 C2277 1.327 . S
C2280 C2268 1.349 . S
C2280 H2274 0.950 . S
C2280 C2281 1.327 . S
C2281 H2275 0.950 . S
C2281 C2280 1.327 . S
C2281 C2285 1.429 . S
C2282 C2265 1.574 . S
C2282 H2276 0.949 . S
C2282 C2286 1.368 . S
C2283 C2264 1.429 . S
C2283 C2277 1.429 . S
C2283 C2284 1.523 . S
C2284 C2265 1.368 . S
C2284 C2278 1.368 . S
C2284 C2283 1.523 . S
C2285 C2269 1.429 . S
C2285 C2281 1.429 . S
C2285 C2286 1.523 . S
C2286 C2270 1.368 . S
C2286 C2282 1.368 . S
C2286 C2285 1.523 . S
H2287 C2262 0.950 . S
H2288 C2264 0.950 . S
H2289 C2265 0.949 . S
H2290 C2267 0.950 . S
H2291 C2269 0.950 . S
C2292 C2293 1.349 . S
C2292 C2294 1.327 . S
C2292 H2317 0.950 . S
C2293 C2292 1.349 . S
C2293 C2309 1.349 . S
C2294 C2292 1.327 . S
C2294 C2313 1.429 . S
C2294 H2318 0.950 . S
C2295 C2312 1.574 . S
C2295 C2314 1.368 . S
C2295 H2319 0.949 . S
H2296 C2300 0.949 1_565 S
C2297 C2298 1.349 . S
C2297 C2299 1.327 . S
C2297 H2320 0.950 . S
C2298 C2297 1.349 . S
C2298 C2310 1.349 1_545 S
C2299 C2297 1.327 . S
C2299 C2315 1.429 . S
C2299 H2321 0.950 . S
C2300 H2296 0.949 1_545 S
C2300 C2308 1.574 . S
C2300 C2316 1.368 . S
H2301 C2309 0.950 . S
H2302 C2307 0.950 . S
H2303 C2308 0.949 . S
H2304 C2310 0.950 . S
H2305 C2311 0.910 1_565 S
H2306 C2312 0.949 . S
C2307 H2302 0.950 . S
C2307 C2309 1.327 . S
C2307 C2313 1.429 . S
C2308 C2300 1.574 . S
C2308 H2303 0.949 . S
C2308 C2314 1.368 . S
C2309 C2293 1.349 . S
C2309 H2301 0.950 . S
C2309 C2307 1.327 . S
C2310 C2298 1.349 1_565 S
C2310 H2304 0.950 . S
C2310 C2311 1.316 1_565 S
C2311 H2305 0.910 1_545 S
C2311 C2310 1.316 1_545 S
C2311 C2315 1.480 . S
C2312 C2295 1.574 . S
C2312 H2306 0.949 . S
C2312 C2316 1.368 . S
C2313 C2294 1.429 . S
C2313 C2307 1.429 . S
C2313 C2314 1.523 . S
C2314 C2295 1.368 . S
C2314 C2308 1.368 . S
C2314 C2313 1.523 . S
C2315 C2299 1.429 . S
C2315 C2311 1.480 . S
C2315 C2316 1.523 . S
C2316 C2300 1.368 . S
C2316 C2312 1.368 . S
C2316 C2315 1.523 . S
H2317 C2292 0.950 . S
H2318 C2294 0.950 . S
H2319 C2295 0.949 . S
H2320 C2297 0.950 . S
H2321 C2299 0.950 . S
C2322 C2323 1.349 . S
C2322 C2324 1.327 . S
C2322 H2347 0.950 . S
C2323 C2322 1.349 . S
C2323 C2339 1.349 . S
C2324 C2322 1.327 . S
C2324 C2343 1.429 . S
C2324 H2348 0.950 . S
C2325 C2342 1.574 . S
C2325 C2344 1.368 . S
C2325 H2349 0.949 . S
H2326 C2330 0.949 . S
C2327 C2328 1.349 . S
C2327 C2329 1.327 . S
C2327 H2350 0.950 . S
C2328 C2327 1.349 . S
C2328 C2340 1.349 . S
C2329 C2327 1.327 . S
C2329 C2345 1.429 . S
C2329 H2351 0.950 . S
C2330 H2326 0.949 . S
C2330 C2338 1.574 . S
C2330 C2346 1.368 . S
H2331 C2339 0.950 . S
H2332 C2337 0.950 . S
H2333 C2338 0.949 . S
H2334 C2340 0.950 . S
H2335 C2341 0.950 . S
H2336 C2342 0.949 . S
C2337 H2332 0.950 . S
C2337 C2339 1.327 . S
C2337 C2343 1.429 . S
C2338 C2330 1.574 . S
C2338 H2333 0.949 . S
C2338 C2344 1.368 . S
C2339 C2323 1.349 . S
C2339 H2331 0.950 . S
C2339 C2337 1.327 . S
C2340 C2328 1.349 . S
C2340 H2334 0.950 . S
C2340 C2341 1.327 . S
C2341 H2335 0.950 . S
C2341 C2340 1.327 . S
C2341 C2345 1.429 . S
C2342 C2325 1.574 . S
C2342 H2336 0.949 . S
C2342 C2346 1.368 . S
C2343 C2324 1.429 . S
C2343 C2337 1.429 . S
C2343 C2344 1.523 . S
C2344 C2325 1.368 . S
C2344 C2338 1.368 . S
C2344 C2343 1.523 . S
C2345 C2329 1.429 . S
C2345 C2341 1.429 . S
C2345 C2346 1.523 . S
C2346 C2330 1.368 . S
C2346 C2342 1.368 . S
C2346 C2345 1.523 . S
H2347 C2322 0.950 . S
H2348 C2324 0.950 . S
H2349 C2325 0.949 . S
H2350 C2327 0.950 . S
H2351 C2329 0.950 . S
C2352 C2353 1.349 . S
C2352 C2354 1.327 . S
C2352 H2377 0.950 . S
C2353 C2352 1.349 . S
C2353 C2369 1.349 . S
C2354 C2352 1.327 . S
C2354 C2373 1.429 . S
C2354 H2378 0.950 . S
C2355 C2372 1.574 . S
C2355 C2374 1.368 . S
C2355 H2379 0.949 . S
H2356 C2360 0.949 . S
C2357 C2358 1.349 . S
C2357 C2359 1.327 . S
C2357 H2380 0.950 . S
C2358 C2357 1.349 . S
C2358 C2370 1.349 . S
C2359 C2357 1.327 . S
C2359 C2375 1.429 . S
C2359 H2381 0.950 . S
C2360 H2356 0.949 . S
C2360 C2368 1.574 . S
C2360 C2376 1.368 . S
H2361 C2369 0.950 . S
H2362 C2367 0.950 . S
H2363 C2368 0.949 . S
H2364 C2370 0.950 . S
H2365 C2371 0.950 . S
H2366 C2372 0.949 . S
C2367 H2362 0.950 . S
C2367 C2369 1.327 . S
C2367 C2373 1.429 . S
C2368 C2360 1.574 . S
C2368 H2363 0.949 . S
C2368 C2374 1.368 . S
C2369 C2353 1.349 . S
C2369 H2361 0.950 . S
C2369 C2367 1.327 . S
C2370 C2358 1.349 . S
C2370 H2364 0.950 . S
C2370 C2371 1.327 . S
C2371 H2365 0.950 . S
C2371 C2370 1.327 . S
C2371 C2375 1.429 . S
C2372 C2355 1.574 . S
C2372 H2366 0.949 . S
C2372 C2376 1.368 . S
C2373 C2354 1.429 . S
C2373 C2367 1.429 . S
C2373 C2374 1.523 . S
C2374 C2355 1.368 . S
C2374 C2368 1.368 . S
C2374 C2373 1.523 . S
C2375 C2359 1.429 . S
C2375 C2371 1.429 . S
C2375 C2376 1.523 . S
C2376 C2360 1.368 . S
C2376 C2372 1.368 . S
C2376 C2375 1.523 . S
H2377 C2352 0.950 . S
H2378 C2354 0.950 . S
H2379 C2355 0.949 . S
H2380 C2357 0.950 . S
H2381 C2359 0.950 . S
C2382 C2383 1.349 . S
C2382 C2384 1.327 . S
C2382 H2407 0.950 . S
C2383 C2382 1.349 . S
C2383 C2399 1.349 . S
C2384 C2382 1.327 . S
C2384 C2403 1.429 . S
C2384 H2408 0.950 . S
C2385 C2402 1.574 . S
C2385 C2404 1.368 . S
C2385 H2409 0.949 . S
H2386 C2390 0.949 . S
C2387 C2388 1.349 . S
C2387 C2389 1.327 . S
C2387 H2410 0.950 . S
C2388 C2387 1.349 . S
C2388 C2400 1.349 . S
C2389 C2387 1.327 . S
C2389 C2405 1.429 . S
C2389 H2411 0.950 . S
C2390 H2386 0.949 . S
C2390 C2398 1.574 . S
C2390 C2406 1.368 . S
H2391 C2399 0.950 . S
H2392 C2397 0.950 . S
H2393 C2398 0.949 . S
H2394 C2400 0.950 . S
H2395 C2401 0.950 . S
H2396 C2402 0.949 . S
C2397 H2392 0.950 . S
C2397 C2399 1.327 . S
C2397 C2403 1.429 . S
C2398 C2390 1.574 . S
C2398 H2393 0.949 . S
C2398 C2404 1.368 . S
C2399 C2383 1.349 . S
C2399 H2391 0.950 . S
C2399 C2397 1.327 . S
C2400 C2388 1.349 . S
C2400 H2394 0.950 . S
C2400 C2401 1.327 . S
C2401 H2395 0.950 . S
C2401 C2400 1.327 . S
C2401 C2405 1.429 . S
C2402 C2385 1.574 . S
C2402 H2396 0.949 . S
C2402 C2406 1.368 . S
C2403 C2384 1.429 . S
C2403 C2397 1.429 . S
C2403 C2404 1.523 . S
C2404 C2385 1.368 . S
C2404 C2398 1.368 . S
C2404 C2403 1.523 . S
C2405 C2389 1.429 . S
C2405 C2401 1.429 . S
C2405 C2406 1.523 . S
C2406 C2390 1.368 . S
C2406 C2402 1.368 . S
C2406 C2405 1.523 . S
H2407 C2382 0.950 . S
H2408 C2384 0.950 . S
H2409 C2385 0.949 . S
H2410 C2387 0.950 . S
H2411 C2389 0.950 . S
C2412 C2413 1.349 . S
C2412 C2414 1.327 . S
C2412 H2437 0.950 . S
C2413 C2412 1.349 . S
C2413 C2429 1.349 . S
C2414 C2412 1.327 . S
C2414 C2433 1.429 . S
C2414 H2438 0.950 . S
C2415 C2432 1.574 . S
C2415 C2434 1.368 . S
C2415 H2439 0.949 . S
H2416 C2420 0.949 . S
C2417 C2418 1.349 . S
C2417 C2419 1.327 . S
C2417 H2440 0.950 . S
C2418 C2417 1.349 . S
C2418 C2430 1.349 . S
C2419 C2417 1.327 . S
C2419 C2435 1.429 . S
C2419 H2441 0.950 . S
C2420 H2416 0.949 . S
C2420 C2428 1.574 . S
C2420 C2436 1.368 . S
H2421 C2429 0.950 . S
H2422 C2427 0.950 . S
H2423 C2428 0.949 . S
H2424 C2430 0.950 . S
H2425 C2431 0.950 . S
H2426 C2432 0.949 . S
C2427 H2422 0.950 . S
C2427 C2429 1.327 . S
C2427 C2433 1.429 . S
C2428 C2420 1.574 . S
C2428 H2423 0.949 . S
C2428 C2434 1.368 . S
C2429 C2413 1.349 . S
C2429 H2421 0.950 . S
C2429 C2427 1.327 . S
C2430 C2418 1.349 . S
C2430 H2424 0.950 . S
C2430 C2431 1.327 . S
C2431 H2425 0.950 . S
C2431 C2430 1.327 . S
C2431 C2435 1.429 . S
C2432 C2415 1.574 . S
C2432 H2426 0.949 . S
C2432 C2436 1.368 . S
C2433 C2414 1.429 . S
C2433 C2427 1.429 . S
C2433 C2434 1.523 . S
C2434 C2415 1.368 . S
C2434 C2428 1.368 . S
C2434 C2433 1.523 . S
C2435 C2419 1.429 . S
C2435 C2431 1.429 . S
C2435 C2436 1.523 . S
C2436 C2420 1.368 . S
C2436 C2432 1.368 . S
C2436 C2435 1.523 . S
H2437 C2412 0.950 . S
H2438 C2414 0.950 . S
H2439 C2415 0.949 . S
H2440 C2417 0.950 . S
H2441 C2419 0.950 . S
C2442 C2443 1.349 . S
C2442 C2444 1.327 . S
C2442 H2467 0.950 . S
C2443 C2442 1.349 . S
C2443 C2459 1.349 . S
C2444 C2442 1.327 . S
C2444 C2463 1.429 . S
C2444 H2468 0.950 . S
C2445 C2462 1.574 . S
C2445 C2464 1.368 . S
C2445 H2469 0.949 . S
H2446 C2450 0.949 . S
C2447 C2448 1.349 . S
C2447 C2449 1.327 . S
C2447 H2470 0.950 . S
C2448 C2447 1.349 . S
C2448 C2460 1.349 . S
C2449 C2447 1.327 . S
C2449 C2465 1.429 . S
C2449 H2471 0.950 . S
C2450 H2446 0.949 . S
C2450 C2458 1.574 . S
C2450 C2466 1.368 . S
H2451 C2459 0.950 . S
H2452 C2457 0.950 . S
H2453 C2458 0.949 . S
H2454 C2460 0.950 . S
H2455 C2461 0.950 . S
H2456 C2462 0.949 . S
C2457 H2452 0.950 . S
C2457 C2459 1.327 . S
C2457 C2463 1.429 . S
C2458 C2450 1.574 . S
C2458 H2453 0.949 . S
C2458 C2464 1.368 . S
C2459 C2443 1.349 . S
C2459 H2451 0.950 . S
C2459 C2457 1.327 . S
C2460 C2448 1.349 . S
C2460 H2454 0.950 . S
C2460 C2461 1.327 . S
C2461 H2455 0.950 . S
C2461 C2460 1.327 . S
C2461 C2465 1.429 . S
C2462 C2445 1.574 . S
C2462 H2456 0.949 . S
C2462 C2466 1.368 . S
C2463 C2444 1.429 . S
C2463 C2457 1.429 . S
C2463 C2464 1.523 . S
C2464 C2445 1.368 . S
C2464 C2458 1.368 . S
C2464 C2463 1.523 . S
C2465 C2449 1.429 . S
C2465 C2461 1.429 . S
C2465 C2466 1.523 . S
C2466 C2450 1.368 . S
C2466 C2462 1.368 . S
C2466 C2465 1.523 . S
H2467 C2442 0.950 . S
H2468 C2444 0.950 . S
H2469 C2445 0.949 . S
H2470 C2447 0.950 . S
H2471 C2449 0.950 . S
C2472 C2473 1.349 . S
C2472 C2474 1.327 . S
C2472 H2497 0.950 . S
C2473 C2472 1.349 . S
C2473 C2489 1.349 . S
C2474 C2472 1.327 . S
C2474 C2493 1.429 . S
C2474 H2498 0.950 . S
C2475 C2492 1.574 . S
C2475 C2494 1.368 . S
C2475 H2499 0.949 . S
H2476 C2480 0.949 . S
C2477 C2478 1.349 . S
C2477 C2479 1.327 . S
C2477 H2500 0.950 . S
C2478 C2477 1.349 . S
C2478 C2490 1.349 . S
C2479 C2477 1.327 . S
C2479 C2495 1.429 . S
C2479 H2501 0.950 . S
C2480 H2476 0.949 . S
C2480 C2488 1.574 . S
C2480 C2496 1.368 . S
H2481 C2489 0.950 . S
H2482 C2487 0.950 . S
H2483 C2488 0.949 . S
H2484 C2490 0.950 . S
H2485 C2491 0.950 . S
H2486 C2492 0.949 . S
C2487 H2482 0.950 . S
C2487 C2489 1.327 . S
C2487 C2493 1.429 . S
C2488 C2480 1.574 . S
C2488 H2483 0.949 . S
C2488 C2494 1.368 . S
C2489 C2473 1.349 . S
C2489 H2481 0.950 . S
C2489 C2487 1.327 . S
C2490 C2478 1.349 . S
C2490 H2484 0.950 . S
C2490 C2491 1.327 . S
C2491 H2485 0.950 . S
C2491 C2490 1.327 . S
C2491 C2495 1.429 . S
C2492 C2475 1.574 . S
C2492 H2486 0.949 . S
C2492 C2496 1.368 . S
C2493 C2474 1.429 . S
C2493 C2487 1.429 . S
C2493 C2494 1.523 . S
C2494 C2475 1.368 . S
C2494 C2488 1.368 . S
C2494 C2493 1.523 . S
C2495 C2479 1.429 . S
C2495 C2491 1.429 . S
C2495 C2496 1.523 . S
C2496 C2480 1.368 . S
C2496 C2492 1.368 . S
C2496 C2495 1.523 . S
H2497 C2472 0.950 . S
H2498 C2474 0.950 . S
H2499 C2475 0.949 . S
H2500 C2477 0.950 . S
H2501 C2479 0.950 . S
C2502 C2503 1.349 . S
C2502 C2504 1.327 . S
C2502 H2527 0.950 . S
C2503 C2502 1.349 . S
C2503 C2519 1.349 . S
C2504 C2502 1.327 . S
C2504 C2523 1.429 . S
C2504 H2528 0.950 . S
C2505 C2522 1.574 . S
C2505 C2524 1.368 . S
C2505 H2529 0.949 . S
H2506 C2510 0.949 . S
C2507 C2508 1.349 . S
C2507 C2509 1.327 . S
C2507 H2530 0.950 . S
C2508 C2507 1.349 . S
C2508 C2520 1.349 . S
C2509 C2507 1.327 . S
C2509 C2525 1.429 . S
C2509 H2531 0.950 . S
C2510 H2506 0.949 . S
C2510 C2518 1.574 . S
C2510 C2526 1.368 . S
H2511 C2519 0.950 . S
H2512 C2517 0.950 . S
H2513 C2518 0.949 . S
H2514 C2520 0.950 . S
H2515 C2521 0.950 . S
H2516 C2522 0.949 . S
C2517 H2512 0.950 . S
C2517 C2519 1.327 . S
C2517 C2523 1.429 . S
C2518 C2510 1.574 . S
C2518 H2513 0.949 . S
C2518 C2524 1.368 . S
C2519 C2503 1.349 . S
C2519 H2511 0.950 . S
C2519 C2517 1.327 . S
C2520 C2508 1.349 . S
C2520 H2514 0.950 . S
C2520 C2521 1.327 . S
C2521 H2515 0.950 . S
C2521 C2520 1.327 . S
C2521 C2525 1.429 . S
C2522 C2505 1.574 . S
C2522 H2516 0.949 . S
C2522 C2526 1.368 . S
C2523 C2504 1.429 . S
C2523 C2517 1.429 . S
C2523 C2524 1.523 . S
C2524 C2505 1.368 . S
C2524 C2518 1.368 . S
C2524 C2523 1.523 . S
C2525 C2509 1.429 . S
C2525 C2521 1.429 . S
C2525 C2526 1.523 . S
C2526 C2510 1.368 . S
C2526 C2522 1.368 . S
C2526 C2525 1.523 . S
H2527 C2502 0.950 . S
H2528 C2504 0.950 . S
H2529 C2505 0.949 . S
H2530 C2507 0.950 . S
H2531 C2509 0.950 . S
C2532 C2533 1.349 . S
C2532 C2534 1.327 . S
C2532 H2557 0.950 . S
C2533 C2532 1.349 . S
C2533 C2549 1.349 . S
C2534 C2532 1.327 . S
C2534 C2553 1.429 . S
C2534 H2558 0.950 . S
C2535 C2552 1.574 . S
C2535 C2554 1.368 . S
C2535 H2559 0.949 . S
H2536 C2540 0.949 . S
C2537 C2538 1.349 . S
C2537 C2539 1.327 . S
C2537 H2560 0.950 . S
C2538 C2537 1.349 . S
C2538 C2550 1.349 . S
C2539 C2537 1.327 . S
C2539 C2555 1.429 . S
C2539 H2561 0.950 . S
C2540 H2536 0.949 . S
C2540 C2548 1.574 . S
C2540 C2556 1.368 . S
H2541 C2549 0.950 . S
H2542 C2547 0.950 . S
H2543 C2548 0.949 . S
H2544 C2550 0.950 . S
H2545 C2551 0.950 . S
H2546 C2552 0.949 . S
C2547 H2542 0.950 . S
C2547 C2549 1.327 . S
C2547 C2553 1.429 . S
C2548 C2540 1.574 . S
C2548 H2543 0.949 . S
C2548 C2554 1.368 . S
C2549 C2533 1.349 . S
C2549 H2541 0.950 . S
C2549 C2547 1.327 . S
C2550 C2538 1.349 . S
C2550 H2544 0.950 . S
C2550 C2551 1.327 . S
C2551 H2545 0.950 . S
C2551 C2550 1.327 . S
C2551 C2555 1.429 . S
C2552 C2535 1.574 . S
C2552 H2546 0.949 . S
C2552 C2556 1.368 . S
C2553 C2534 1.429 . S
C2553 C2547 1.429 . S
C2553 C2554 1.523 . S
C2554 C2535 1.368 . S
C2554 C2548 1.368 . S
C2554 C2553 1.523 . S
C2555 C2539 1.429 . S
C2555 C2551 1.429 . S
C2555 C2556 1.523 . S
C2556 C2540 1.368 . S
C2556 C2552 1.368 . S
C2556 C2555 1.523 . S
H2557 C2532 0.950 . S
H2558 C2534 0.950 . S
H2559 C2535 0.949 . S
H2560 C2537 0.950 . S
H2561 C2539 0.950 . S
C2562 C2563 1.349 . S
C2562 C2564 1.327 . S
C2562 H2587 0.950 . S
C2563 C2562 1.349 . S
C2563 C2579 1.349 . S
C2564 C2562 1.327 . S
C2564 C2583 1.429 . S
C2564 H2588 0.950 . S
C2565 C2582 1.574 . S
C2565 C2584 1.368 . S
C2565 H2589 0.949 . S
H2566 C2570 0.949 . S
C2567 C2568 1.349 . S
C2567 C2569 1.327 . S
C2567 H2590 0.950 . S
C2568 C2567 1.349 . S
C2568 C2580 1.349 . S
C2569 C2567 1.327 . S
C2569 C2585 1.429 . S
C2569 H2591 0.950 . S
C2570 H2566 0.949 . S
C2570 C2578 1.574 . S
C2570 C2586 1.368 . S
H2571 C2579 0.950 . S
H2572 C2577 0.950 . S
H2573 C2578 0.949 . S
H2574 C2580 0.950 . S
H2575 C2581 0.950 . S
H2576 C2582 0.949 . S
C2577 H2572 0.950 . S
C2577 C2579 1.327 . S
C2577 C2583 1.429 . S
C2578 C2570 1.574 . S
C2578 H2573 0.949 . S
C2578 C2584 1.368 . S
C2579 C2563 1.349 . S
C2579 H2571 0.950 . S
C2579 C2577 1.327 . S
C2580 C2568 1.349 . S
C2580 H2574 0.950 . S
C2580 C2581 1.327 . S
C2581 H2575 0.950 . S
C2581 C2580 1.327 . S
C2581 C2585 1.429 . S
C2582 C2565 1.574 . S
C2582 H2576 0.949 . S
C2582 C2586 1.368 . S
C2583 C2564 1.429 . S
C2583 C2577 1.429 . S
C2583 C2584 1.523 . S
C2584 C2565 1.368 . S
C2584 C2578 1.368 . S
C2584 C2583 1.523 . S
C2585 C2569 1.429 . S
C2585 C2581 1.429 . S
C2585 C2586 1.523 . S
C2586 C2570 1.368 . S
C2586 C2582 1.368 . S
C2586 C2585 1.523 . S
H2587 C2562 0.950 . S
H2588 C2564 0.950 . S
H2589 C2565 0.949 . S
H2590 C2567 0.950 . S
H2591 C2569 0.950 . S
C2592 C2593 1.349 . S
C2592 C2594 1.327 . S
C2592 H2617 0.950 . S
C2593 C2592 1.349 . S
C2593 C2609 1.349 . S
C2594 C2592 1.327 . S
C2594 C2613 1.429 . S
C2594 H2618 0.950 . S
C2595 C2612 1.574 . S
C2595 C2614 1.368 . S
C2595 H2619 0.949 . S
H2596 C2600 0.949 . S
C2597 C2598 1.349 . S
C2597 C2599 1.327 . S
C2597 H2620 0.950 . S
C2598 C2597 1.349 . S
C2598 C2610 1.349 . S
C2599 C2597 1.327 . S
C2599 C2615 1.429 . S
C2599 H2621 0.950 . S
C2600 H2596 0.949 . S
C2600 C2608 1.574 . S
C2600 C2616 1.368 . S
H2601 C2609 0.950 . S
H2602 C2607 0.950 . S
H2603 C2608 0.949 . S
H2604 C2610 0.950 . S
H2605 C2611 0.950 . S
H2606 C2612 0.949 . S
C2607 H2602 0.950 . S
C2607 C2609 1.327 . S
C2607 C2613 1.429 . S
C2608 C2600 1.574 . S
C2608 H2603 0.949 . S
C2608 C2614 1.368 . S
C2609 C2593 1.349 . S
C2609 H2601 0.950 . S
C2609 C2607 1.327 . S
C2610 C2598 1.349 . S
C2610 H2604 0.950 . S
C2610 C2611 1.327 . S
C2611 H2605 0.950 . S
C2611 C2610 1.327 . S
C2611 C2615 1.429 . S
C2612 C2595 1.574 . S
C2612 H2606 0.949 . S
C2612 C2616 1.368 . S
C2613 C2594 1.429 . S
C2613 C2607 1.429 . S
C2613 C2614 1.523 . S
C2614 C2595 1.368 . S
C2614 C2608 1.368 . S
C2614 C2613 1.523 . S
C2615 C2599 1.429 . S
C2615 C2611 1.429 . S
C2615 C2616 1.523 . S
C2616 C2600 1.368 . S
C2616 C2612 1.368 . S
C2616 C2615 1.523 . S
H2617 C2592 0.950 . S
H2618 C2594 0.950 . S
H2619 C2595 0.949 . S
H2620 C2597 0.950 . S
H2621 C2599 0.950 . S
C2622 C2623 1.349 . S
C2622 C2624 1.327 . S
C2622 H2647 0.950 . S
C2623 C2622 1.349 . S
C2623 C2639 1.349 . S
C2624 C2622 1.327 . S
C2624 C2643 1.429 . S
C2624 H2648 0.950 . S
C2625 C2642 1.574 . S
C2625 C2644 1.368 . S
C2625 H2649 0.949 . S
H2626 C2630 0.949 . S
C2627 C2628 1.349 . S
C2627 C2629 1.327 . S
C2627 H2650 0.950 . S
C2628 C2627 1.349 . S
C2628 C2640 1.349 . S
C2629 C2627 1.327 . S
C2629 C2645 1.429 . S
C2629 H2651 0.950 . S
C2630 H2626 0.949 . S
C2630 C2638 1.574 . S
C2630 C2646 1.368 . S
H2631 C2639 0.950 . S
H2632 C2637 0.950 . S
H2633 C2638 0.949 . S
H2634 C2640 0.950 . S
H2635 C2641 0.950 . S
H2636 C2642 0.949 . S
C2637 H2632 0.950 . S
C2637 C2639 1.327 . S
C2637 C2643 1.429 . S
C2638 C2630 1.574 . S
C2638 H2633 0.949 . S
C2638 C2644 1.368 . S
C2639 C2623 1.349 . S
C2639 H2631 0.950 . S
C2639 C2637 1.327 . S
C2640 C2628 1.349 . S
C2640 H2634 0.950 . S
C2640 C2641 1.327 . S
C2641 H2635 0.950 . S
C2641 C2640 1.327 . S
C2641 C2645 1.429 . S
C2642 C2625 1.574 . S
C2642 H2636 0.949 . S
C2642 C2646 1.368 . S
C2643 C2624 1.429 . S
C2643 C2637 1.429 . S
C2643 C2644 1.523 . S
C2644 C2625 1.368 . S
C2644 C2638 1.368 . S
C2644 C2643 1.523 . S
C2645 C2629 1.429 . S
C2645 C2641 1.429 . S
C2645 C2646 1.523 . S
C2646 C2630 1.368 . S
C2646 C2642 1.368 . S
C2646 C2645 1.523 . S
H2647 C2622 0.950 . S
H2648 C2624 0.950 . S
H2649 C2625 0.949 . S
H2650 C2627 0.950 . S
H2651 C2629 0.950 . S
C2652 C2653 1.349 . S
C2652 C2654 1.327 . S
C2652 H2677 0.950 . S
C2653 C2652 1.349 . S
C2653 C2669 1.349 . S
C2654 C2652 1.327 . S
C2654 C2673 1.429 . S
C2654 H2678 0.950 . S
C2655 C2672 1.574 . S
C2655 C2674 1.368 . S
C2655 H2679 0.949 . S
H2656 C2660 0.949 . S
C2657 C2658 1.349 . S
C2657 C2659 1.327 . S
C2657 H2680 0.950 . S
C2658 C2657 1.349 . S
C2658 C2670 1.349 . S
C2659 C2657 1.327 . S
C2659 C2675 1.429 . S
C2659 H2681 0.950 . S
C2660 H2656 0.949 . S
C2660 C2668 1.574 . S
C2660 C2676 1.368 . S
H2661 C2669 0.950 . S
H2662 C2667 0.950 . S
H2663 C2668 0.949 . S
H2664 C2670 0.950 . S
H2665 C2671 0.950 . S
H2666 C2672 0.949 . S
C2667 H2662 0.950 . S
C2667 C2669 1.327 . S
C2667 C2673 1.429 . S
C2668 C2660 1.574 . S
C2668 H2663 0.949 . S
C2668 C2674 1.368 . S
C2669 C2653 1.349 . S
C2669 H2661 0.950 . S
C2669 C2667 1.327 . S
C2670 C2658 1.349 . S
C2670 H2664 0.950 . S
C2670 C2671 1.327 . S
C2671 H2665 0.950 . S
C2671 C2670 1.327 . S
C2671 C2675 1.429 . S
C2672 C2655 1.574 . S
C2672 H2666 0.949 . S
C2672 C2676 1.368 . S
C2673 C2654 1.429 . S
C2673 C2667 1.429 . S
C2673 C2674 1.523 . S
C2674 C2655 1.368 . S
C2674 C2668 1.368 . S
C2674 C2673 1.523 . S
C2675 C2659 1.429 . S
C2675 C2671 1.429 . S
C2675 C2676 1.523 . S
C2676 C2660 1.368 . S
C2676 C2672 1.368 . S
C2676 C2675 1.523 . S
H2677 C2652 0.950 . S
H2678 C2654 0.950 . S
H2679 C2655 0.949 . S
H2680 C2657 0.950 . S
H2681 C2659 0.950 . S
C1063 C528 1.641 . S
C1068 C705 1.651 . S
C1093 C562 1.854 . S
C1098 C745 1.856 . S
C1123 C484 1.726 . S
C1128 C797 1.733 . S
C1153 C445 1.538 . S
C1158 C757 1.532 . S
C1188 C785 1.466 . S
C1183 C367 1.459 . S
C1213 C411 1.323 . S
C1218 C717 1.332 1_556 S
C1248 C724 1.672 . S
C1243 C450 1.649 . S
C1278 C764 1.834 . S
C1273 C372 1.827 . S
C1303 C406 1.724 . S
C1308 C784 1.734 . S
C1333 C523 1.535 . S
C1338 C744 1.532 . S
C1363 C567 1.432 . S
C1368 C804 1.444 . S
C1398 C704 1.356 . S
C1393 C489 1.333 . S
C1428 C825 1.651 . S
C1423 C60 1.641 . S
C1453 C94 1.854 . S
C1458 C865 1.856 . S
C1483 C16 1.726 . S
C1488 C917 1.733 . S
C1513 C679 1.538 . S
C1518 C877 1.532 . S
C1543 C601 1.459 . S
C1548 C905 1.466 . S
C1573 C645 1.323 . S
C1578 C837 1.334 . S
C1603 C684 1.649 . S
C1608 C844 1.672 . S
C1633 C606 1.827 . S
C1638 C884 1.834 . S
C1668 C904 1.734 . S
C1663 C640 1.724 . S
C1693 C55 1.535 . S
C1698 C864 1.532 . S
C1728 C924 1.444 . S
C1723 C99 1.432 . S
C1753 C21 1.333 . S
C1758 C824 1.356 . S
C1788 C945 1.651 . S
C1783 C294 1.640 . S
C1813 C328 1.854 . S
C1818 C985 1.856 . S
C1848 C1037 1.733 . S
C1843 C250 1.726 . S
C1878 C997 1.533 . S
C1873 C211 1.538 . S
C1908 C1025 1.466 . S
C1903 C133 1.459 . S
C1933 C177 1.323 . S
C1938 C957 1.334 . S
C1963 C216 1.650 . S
C1968 C964 1.672 . S
C1993 C138 1.827 . S
C1998 C1004 1.834 . S
C2028 C1024 1.734 . S
C2023 C172 1.723 . S
C2053 C289 1.535 . S
C2058 C984 1.532 . S
C2083 C333 1.432 . S
C2088 C1044 1.444 . S
C2113 C255 1.333 . S
C2118 C944 1.356 . S
C2143 C586 1.265 . S
C2148 C728 1.259 . S
C2178 C768 1.897 . S
C2173 C625 1.903 . S
C2203 C664 1.575 . S
C2208 C791 1.581 . S
C2233 C235 1.912 . S
C2238 C751 1.912 . S
C2263 C274 1.562 . S
C2268 C808 1.564 . S
C2298 C711 1.256 . S
C2293 C313 1.262 . S
C2323 C118 1.265 . S
C2328 C848 1.259 . S
C2353 C157 1.904 . S
C2358 C888 1.897 . S
C2383 C196 1.575 . S
C2388 C911 1.581 . S
C2413 C469 1.912 . S
C2418 C871 1.912 . S
C2448 C928 1.564 . S
C2443 C508 1.562 . S
C2473 C547 1.262 . S
C2478 C831 1.256 . S
C2503 C352 1.265 . S
C2508 C968 1.259 . S
C2533 C391 1.903 . S
C2538 C1008 1.897 . S
C2568 C1031 1.581 . S
C2563 C430 1.575 . S
C2593 C1 1.912 . S
C2598 C991 1.912 . S
C2623 C40 1.562 . S
C2628 C1048 1.564 . S
C2653 C79 1.262 . S
C2658 C951 1.256 . S
