# Generated by pormake.
# Topology pth, (4,4)-cn, num edge types: 1
# Building blocks:
#     Node 0, Type 0, BuildingBlock: AZAVOO_clean_sbu_0, # of connection points: 4
#     Node 1, Type 0, BuildingBlock: AZAVOO_clean_sbu_0, # of connection points: 4
#     Node 2, Type 0, BuildingBlock: AZAVOO_clean_sbu_0, # of connection points: 4
#     Node 3, Type 1, BuildingBlock: MUDLON_clean_linker_0, # of connection points: 4
#     Node 4, Type 1, BuildingBlock: MUDLON_clean_linker_0, # of connection points: 4
#     Node 5, Type 1, BuildingBlock: MUDLON_clean_linker_0, # of connection points: 4
#     Edge 6, Type (0, 1), BuildingBlock: ZUJKAS_clean_linker_0, # of connection points: 2
#     Edge 7, Type (0, 1), BuildingBlock: ZUJKAS_clean_linker_0, # of connection points: 2
#     Edge 8, Type (0, 1), BuildingBlock: ZUJKAS_clean_linker_0, # of connection points: 2
#     Edge 9, Type (0, 1), BuildingBlock: ZUJKAS_clean_linker_0, # of connection points: 2
#     Edge 10, Type (0, 1), BuildingBlock: ZUJKAS_clean_linker_0, # of connection points: 2
#     Edge 11, Type (0, 1), BuildingBlock: ZUJKAS_clean_linker_0, # of connection points: 2
#     Edge 12, Type (0, 1), BuildingBlock: ZUJKAS_clean_linker_0, # of connection points: 2
#     Edge 13, Type (0, 1), BuildingBlock: ZUJKAS_clean_linker_0, # of connection points: 2
#     Edge 14, Type (0, 1), BuildingBlock: ZUJKAS_clean_linker_0, # of connection points: 2
#     Edge 15, Type (0, 1), BuildingBlock: ZUJKAS_clean_linker_0, # of connection points: 2
#     Edge 16, Type (0, 1), BuildingBlock: ZUJKAS_clean_linker_0, # of connection points: 2
#     Edge 17, Type (0, 1), BuildingBlock: ZUJKAS_clean_linker_0, # of connection points: 2
# Relax obj value: 0.076
# Max RMSD: 0.214
# Mean RMSD: 0.136
data_MOF--net-pth--node1-AZAVOO_clean_sbu_0--node2-MUDLON_clean_linker_0--edge1-ZUJKAS_clean_linker_0
_symmetry_space_group_name_H-M    P1
_symmetry_Int_Tables_number       1
_symmetry_cell_setting            triclinic
loop_
_symmetry_equiv_pos_as_xyz
'x, y, z'
_cell_length_a     40.730256
_cell_length_b     41.419592
_cell_length_c     81.709437
_cell_angle_alpha  90.797296
_cell_angle_beta   92.341182
_cell_angle_gamma 121.61022
loop_
_atom_site_label
_atom_site_type_symbol
_atom_site_fract_x
_atom_site_fract_y
_atom_site_fract_z
_atom_type_partial_charge
Mg0 Mg 0.08959 0.05581 0.03241 0.0
O1 O 0.03831 0.01358 0.01526 0.0
O2 O 0.02278 0.04552 -0.00192 0.0
Mg3 Mg 0.0644 0.10868 0.00427 0.0
C4 C 0.01732 0.01437 0.00343 0.0
C5 C 0.08033 0.97957 0.04224 0.0
O6 O 0.08833 0.98038 0.02678 0.0
O7 O 0.05059 0.06834 0.04694 0.0
O8 O 0.03797 0.1018 0.02924 0.0
O9 O 0.13125 0.05986 0.01431 0.0
O10 O 0.1076 0.09713 0.01503 0.0
C11 C 0.03469 0.08707 0.04318 0.0
C12 C 0.1289 0.08719 0.00806 0.0
O13 O 0.07869 0.00696 0.04847 0.0
Mg14 Mg 0.96879 0.99862 0.36006 0.0
O15 O 0.01873 0.01329 0.37868 0.0
O16 O 0.02418 0.05718 0.39665 0.0
Mg17 Mg 0.97763 0.07032 0.38971 0.0
C18 C 0.03524 0.03551 0.39129 0.0
C19 C 0.99143 0.94089 0.34902 0.0
O20 O 0.98503 0.93241 0.36446 0.0
O21 O 0.00629 0.05471 0.34772 0.0
O22 O 0.00722 0.09605 0.36591 0.0
O23 O 0.92573 0.9543 0.37619 0.0
O24 O 0.94272 0.01439 0.37701 0.0
C25 C 0.01617 0.08847 0.35218 0.0
C26 C 0.92277 0.98121 0.3828 0.0
O27 O 0.98801 0.96761 0.34353 0.0
Mg28 Mg 0.9922 0.96576 0.68859 0.0
O29 O 0.02741 0.01607 0.70688 0.0
O30 O 0.98698 0.01846 0.72382 0.0
Mg31 Mg 0.92608 0.96852 0.71675 0.0
C32 C 0.02091 0.03162 0.71889 0.0
C33 C 0.0489 0.96475 0.66515 0.0
O34 O 0.02326 0.92839 0.66616 0.0
O35 O 0.9698 0.999 0.67526 0.0
O36 O 0.92748 0.99673 0.69251 0.0
O37 O 0.99864 0.92739 0.70544 0.0
O38 O 0.95057 0.9376 0.70557 0.0
C39 C 0.94425 0.00648 0.67899 0.0
C40 C 0.96774 0.92173 0.71202 0.0
O41 O 0.04407 0.98864 0.67288 0.0
H42 H 0.91621 0.62268 0.20151 0.0
N43 N 0.96627 0.60751 0.18936 0.0
H44 H 0.9265 0.66469 0.22508 0.0
H45 H 0.03211 0.64621 0.20937 0.0
H46 H 0.04285 0.68856 0.23297 0.0
H47 H 0.04086 0.65476 0.18095 0.0
H48 H 0.06163 0.69721 0.15799 0.0
H49 H 0.92187 0.60996 0.1654 0.0
H50 H 0.94216 0.65248 0.1425 0.0
H51 H 0.946 0.56229 0.21503 0.0
H52 H 0.99854 0.57953 0.16841 0.0
H53 H 0.94964 0.50618 0.21842 0.0
H54 H 0.00086 0.52273 0.17168 0.0
H55 H 0.92119 0.30859 0.21878 0.0
H56 H 0.94532 0.28787 0.24166 0.0
H57 H 0.06069 0.38314 0.23594 0.0
H58 H 0.03613 0.40395 0.21317 0.0
H59 H 0.02705 0.37269 0.187 0.0
H60 H 0.02883 0.33462 0.16467 0.0
H61 H 0.9055 0.28181 0.1552 0.0
H62 H 0.90386 0.31854 0.17851 0.0
H63 H 0.911 0.38251 0.20772 0.0
H64 H 0.91574 0.44359 0.20589 0.0
H65 H 0.02942 0.4923 0.18726 0.0
N66 N 0.96204 0.36517 0.19944 0.0
H67 H 0.02383 0.43056 0.18878 0.0
C68 C 0.9733 0.6315 0.20368 0.0
C69 C 0.94379 0.63684 0.20841 0.0
C70 C 0.9497 0.66066 0.2219 0.0
C71 C 0.98547 0.67983 0.2309 0.0
C72 C 0.01512 0.6744 0.22618 0.0
C73 C 0.00906 0.65029 0.21271 0.0
C74 C 0.97969 0.62928 0.17486 0.0
C75 C 0.01923 0.6539 0.17252 0.0
C76 C 0.03102 0.67818 0.1594 0.0
C77 C 0.00355 0.67838 0.14845 0.0
C78 C 0.9641 0.65272 0.15055 0.0
C79 C 0.95239 0.62849 0.16364 0.0
C80 C 0.97324 0.5768 0.19178 0.0
C81 C 0.95919 0.55478 0.20567 0.0
C82 C 0.96075 0.5222 0.20752 0.0
C83 C 0.97546 0.50989 0.1953 0.0
C84 C 0.98998 0.53182 0.18146 0.0
C85 C 0.98863 0.56467 0.17963 0.0
C86 C 0.97671 0.35751 0.21424 0.0
C87 C 0.9515 0.32542 0.22273 0.0
C88 C 0.96536 0.31373 0.23578 0.0
C89 C 0.00494 0.33387 0.24053 0.0
C90 C 0.03011 0.36696 0.23243 0.0
C91 C 0.01606 0.3789 0.21945 0.0
C92 C 0.96507 0.34793 0.18461 0.0
C93 C 0.0004 0.35313 0.18011 0.0
C94 C 0.00139 0.33143 0.16714 0.0
C95 C 0.96721 0.30462 0.15815 0.0
C96 C 0.93227 0.30135 0.16208 0.0
C97 C 0.93127 0.32263 0.17525 0.0
C98 C 0.96689 0.40203 0.19842 0.0
C99 C 0.93694 0.40647 0.2033 0.0
C100 C 0.93989 0.44146 0.20235 0.0
C101 C 0.97313 0.47297 0.19655 0.0
C102 C 0.00335 0.46853 0.19169 0.0
C103 C 0.0003 0.43332 0.19263 0.0
H104 H 0.75564 0.15388 0.52544 0.0
N105 N 0.68139 0.10102 0.52097 0.0
H106 H 0.80004 0.16085 0.54829 0.0
H107 H 0.66058 0.06353 0.54971 0.0
H108 H 0.70453 0.06961 0.57229 0.0
H109 H 0.65394 0.02556 0.52527 0.0
H110 H 0.66308 0.98381 0.50731 0.0
H111 H 0.7088 0.11537 0.49141 0.0
H112 H 0.71954 0.07438 0.47361 0.0
H113 H 0.67389 0.1594 0.51483 0.0
H114 H 0.60999 0.04353 0.52953 0.0
H115 H 0.61582 0.16269 0.51603 0.0
H116 H 0.55238 0.04691 0.53143 0.0
H117 H 0.42058 0.15675 0.54068 0.0
H118 H 0.37773 0.13838 0.56331 0.0
H119 H 0.38119 0.0363 0.56782 0.0
H120 H 0.42297 0.05438 0.54484 0.0
H121 H 0.38407 0.04376 0.51782 0.0
H122 H 0.33543 0.02533 0.49543 0.0
H123 H 0.39652 0.1403 0.47915 0.0
H124 H 0.44557 0.15853 0.50161 0.0
H125 H 0.51629 0.1689 0.53534 0.0
H126 H 0.57406 0.16489 0.53498 0.0
H127 H 0.50459 0.04989 0.51476 0.0
N128 N 0.44443 0.11598 0.52589 0.0
H129 H 0.44712 0.05368 0.51581 0.0
C130 C 0.70492 0.10828 0.53581 0.0
C131 C 0.74429 0.1361 0.53586 0.0
C132 C 0.76958 0.13979 0.54883 0.0
C133 C 0.75587 0.11553 0.56203 0.0
C134 C 0.716 0.089 0.5624 0.0
C135 C 0.69074 0.08536 0.5494 0.0
C136 C 0.68058 0.07371 0.5096 0.0
C137 C 0.66715 0.0361 0.51379 0.0
C138 C 0.67282 0.0123 0.50357 0.0
C139 C 0.6923 0.02571 0.48905 0.0
C140 C 0.70389 0.06275 0.48454 0.0
C141 C 0.69797 0.08638 0.49471 0.0
C142 C 0.64647 0.10147 0.52213 0.0
C143 C 0.64737 0.13481 0.51846 0.0
C144 C 0.61423 0.13666 0.51927 0.0
C145 C 0.57938 0.1051 0.5239 0.0
C146 C 0.57856 0.07161 0.52762 0.0
C147 C 0.61173 0.06974 0.52668 0.0
C148 C 0.42503 0.10715 0.54105 0.0
C149 C 0.41273 0.13085 0.54682 0.0
C150 C 0.38833 0.1203 0.5598 0.0
C151 C 0.37577 0.08569 0.56735 0.0
C152 C 0.38982 0.06285 0.56212 0.0
C153 C 0.41409 0.07337 0.54905 0.0
C154 C 0.41851 0.10279 0.51145 0.0
C155 C 0.38755 0.06491 0.50928 0.0
C156 C 0.35957 0.0544 0.49651 0.0
C157 C 0.36194 0.08144 0.48564 0.0
C158 C 0.39405 0.11875 0.48726 0.0
C159 C 0.42201 0.12926 0.50008 0.0
C160 C 0.47748 0.11196 0.52546 0.0
C161 C 0.51367 0.14286 0.53087 0.0
C162 C 0.54662 0.14054 0.53055 0.0
C163 C 0.54408 0.10714 0.52472 0.0
C164 C 0.50761 0.07592 0.51948 0.0
C165 C 0.47461 0.07821 0.51992 0.0
H166 H 0.67657 0.65647 0.87978 0.0
N167 N 0.68417 0.59612 0.87215 0.0
H168 H 0.71082 0.70289 0.90242 0.0
H169 H 0.72193 0.58949 0.89789 0.0
H170 H 0.75514 0.63504 0.92108 0.0
H171 H 0.749 0.60093 0.86365 0.0
H172 H 0.79249 0.64052 0.84274 0.0
H173 H 0.67279 0.64096 0.85124 0.0
H174 H 0.71598 0.6805 0.83047 0.0
H175 H 0.62387 0.58307 0.89133 0.0
H176 H 0.64897 0.55462 0.84418 0.0
H177 H 0.55557 0.54321 0.88413 0.0
H178 H 0.58039 0.51597 0.83679 0.0
H179 H 0.33881 0.40952 0.86566 0.0
H180 H 0.30867 0.36383 0.88714 0.0
H181 H 0.39651 0.33559 0.88433 0.0
H182 H 0.42591 0.38054 0.86283 0.0
H183 H 0.39642 0.36073 0.83504 0.0
H184 H 0.35526 0.32208 0.81163 0.0
H185 H 0.31693 0.40055 0.8043 0.0
H186 H 0.35873 0.4396 0.82801 0.0
H187 H 0.4339 0.4924 0.86235 0.0
H188 H 0.50335 0.53738 0.86715 0.0
H189 H 0.52569 0.45771 0.84309 0.0
N190 N 0.39888 0.42289 0.84888 0.0
H191 H 0.45698 0.41413 0.83779 0.0
C192 C 0.69715 0.61967 0.88706 0.0
C193 C 0.69324 0.65134 0.88885 0.0
C194 C 0.71261 0.67773 0.90192 0.0
C195 C 0.73618 0.67297 0.91347 0.0
C196 C 0.73784 0.63994 0.91222 0.0
C197 C 0.71862 0.61369 0.8991 0.0
C198 C 0.70762 0.61771 0.85894 0.0
C199 C 0.74155 0.61798 0.85631 0.0
C200 C 0.76639 0.64074 0.84447 0.0
C201 C 0.75754 0.66351 0.83498 0.0
C202 C 0.72329 0.66289 0.83747 0.0
C203 C 0.69868 0.64043 0.8494 0.0
C204 C 0.64272 0.57416 0.86797 0.0
C205 C 0.61524 0.56953 0.87921 0.0
C206 C 0.57569 0.54646 0.87508 0.0
C207 C 0.56232 0.5268 0.85976 0.0
C208 C 0.58952 0.53062 0.84871 0.0
C209 C 0.62899 0.55332 0.85287 0.0
C210 C 0.3846 0.3987 0.86265 0.0
C211 C 0.35177 0.3938 0.86987 0.0
C212 C 0.33469 0.36777 0.88214 0.0
C213 C 0.35016 0.346 0.88737 0.0
C214 C 0.38364 0.35158 0.8804 0.0
C215 C 0.4007 0.37762 0.86816 0.0
C216 C 0.38095 0.40347 0.83329 0.0
C217 C 0.38039 0.37059 0.82815 0.0
C218 C 0.35666 0.34832 0.81468 0.0
C219 C 0.33269 0.35815 0.80615 0.0
C220 C 0.33486 0.3921 0.81073 0.0
C221 C 0.35888 0.41455 0.82416 0.0
C222 C 0.43996 0.4499 0.84973 0.0
C223 C 0.45394 0.48509 0.85787 0.0
C224 C 0.4936 0.51052 0.86076 0.0
C225 C 0.52022 0.50109 0.85564 0.0
C226 C 0.50617 0.46622 0.84704 0.0
C227 C 0.46653 0.44098 0.84404 0.0
H228 H 0.97363 0.09654 0.03898 0.0
H229 H 0.95172 0.12498 0.05886 0.0
H230 H 0.0343 0.13069 0.09544 0.0
H231 H 0.05466 0.10024 0.07588 0.0
H232 H 0.97186 0.11786 0.10945 0.0
H233 H 0.01648 0.2367 0.06771 0.0
H234 H 0.97868 0.19211 0.05871 0.0
H235 H 0.02555 0.19923 0.06383 0.0
C236 C 0.98639 0.10305 0.0514 0.0
C237 C 0.01609 0.09661 0.05588 0.0
C238 C 0.97416 0.11964 0.06269 0.0
C239 C 0.9924 0.13132 0.07844 0.0
C240 C 0.02007 0.12231 0.08329 0.0
H241 H 0.02386 0.32061 0.13681 0.0
H242 H 0.02759 0.27666 0.11802 0.0
C243 C 0.03162 0.10481 0.07212 0.0
C244 C 0.98492 0.1553 0.08945 0.0
H245 H 0.98743 0.23895 0.09172 0.0
C246 C 0.9752 0.14432 0.10558 0.0
C247 C 0.99007 0.19025 0.08449 0.0
C248 C 0.00366 0.20551 0.06781 0.0
C249 C 0.97082 0.16741 0.11692 0.0
C250 C 0.9748 0.20178 0.11179 0.0
C251 C 0.98403 0.21247 0.09561 0.0
C252 C 0.97177 0.22824 0.12318 0.0
C253 C 0.9636 0.15542 0.13442 0.0
C254 C 0.93885 0.21596 0.13214 0.0
C255 C 0.93709 0.24083 0.14329 0.0
C256 C 0.96785 0.27884 0.14542 0.0
C257 C 2e-05 0.29142 0.13585 0.0
C258 C 0.00204 0.26635 0.12494 0.0
H259 H 0.97263 0.13497 0.13734 0.0
H260 H 0.9793 0.18023 0.1432 0.0
H261 H 0.93225 0.1412 0.13629 0.0
H262 H 0.9146 0.18703 0.13063 0.0
H263 H 0.91197 0.22986 0.15052 0.0
H264 H 0.87768 0.91517 0.39879 0.0
H265 H 0.83229 0.90474 0.42002 0.0
H266 H 0.86417 0.02161 0.418 0.0
H267 H 0.90893 0.0322 0.39706 0.0
H268 H 0.86197 0.99501 0.45028 0.0
H269 H 0.72831 0.90102 0.41103 0.0
H270 H 0.76481 0.88899 0.41302 0.0
H271 H 0.77452 0.93036 0.40234 0.0
C272 C 0.87516 0.93865 0.403 0.0
C273 C 0.89714 0.97459 0.39631 0.0
C274 C 0.84913 0.93259 0.41504 0.0
C275 C 0.8448 0.96239 0.42048 0.0
C276 C 0.86721 0.99829 0.41401 0.0
H277 H 0.6946 0.02004 0.45566 0.0
H278 H 0.72704 0.99424 0.44073 0.0
C279 C 0.89297 0.00431 0.40205 0.0
C280 C 0.81671 0.95714 0.43267 0.0
H281 H 0.72117 0.92507 0.43591 0.0
C282 C 0.83106 0.97899 0.44739 0.0
C283 C 0.77652 0.93636 0.42871 0.0
C284 C 0.75983 0.91288 0.41291 0.0
C285 C 0.80663 0.98291 0.45773 0.0
C286 C 0.76654 0.96358 0.4534 0.0
C287 C 0.75186 0.93969 0.43921 0.0
C288 C 0.74073 0.97232 0.46212 0.0
C289 C 0.82447 0.01007 0.47249 0.0
C290 C 0.73607 0.96702 0.47897 0.0
C291 C 0.71827 0.98251 0.48762 0.0
C292 C 0.70428 0.00308 0.4795 0.0
C293 C 0.70591 0.00525 0.46236 0.0
C294 C 0.72409 0.99013 0.45377 0.0
H295 H 0.85645 0.02779 0.47235 0.0
H296 H 0.81308 0.02922 0.4731 0.0
H297 H 0.81712 0.99374 0.48381 0.0
H298 H 0.748 0.95265 0.48558 0.0
H299 H 0.71765 0.9803 0.50081 0.0
H300 H 0.90403 0.90537 0.72847 0.0
H301 H 0.87715 0.86338 0.75123 0.0
H302 H 0.96929 0.84109 0.7507 0.0
H303 H 0.99683 0.88355 0.72792 0.0
H304 H 0.89188 0.77502 0.74984 0.0
H305 H 0.91876 0.87928 0.79995 0.0
H306 H 0.89715 0.88441 0.78133 0.0
H307 H 0.94507 0.89259 0.78148 0.0
C308 C 0.91907 0.89217 0.73334 0.0
C309 C 0.95278 0.89808 0.72645 0.0
C310 C 0.90365 0.86819 0.74638 0.0
C311 C 0.92154 0.84959 0.75275 0.0
C312 C 0.95529 0.85549 0.746 0.0
H313 H 0.83591 0.71063 0.83885 0.0
H314 H 0.87962 0.75458 0.81906 0.0
C315 C 0.97095 0.87975 0.73301 0.0
C316 C 0.90336 0.82214 0.76574 0.0
H317 H 0.8726 0.81416 0.80452 0.0
C318 C 0.8881 0.78355 0.76188 0.0
C319 C 0.89884 0.83349 0.78146 0.0
C320 C 0.9161 0.87474 0.78641 0.0
C321 C 0.86677 0.75578 0.77312 0.0
C322 C 0.86045 0.767 0.7885 0.0
C323 C 0.87729 0.8057 0.79265 0.0
C324 C 0.83463 0.73895 0.80008 0.0
C325 C 0.85065 0.71461 0.76838 0.0
C326 C 0.79498 0.71582 0.79591 0.0
C327 C 0.77001 0.69086 0.80716 0.0
C328 C 0.78432 0.6886 0.82277 0.0
C329 C 0.82418 0.71147 0.82683 0.0
C330 C 0.84911 0.73666 0.8156 0.0
H331 H 0.86601 0.71141 0.75815 0.0
H332 H 0.85263 0.69914 0.779 0.0
H333 H 0.81973 0.70114 0.76432 0.0
H334 H 0.78323 0.71761 0.78406 0.0
H335 H 0.73947 0.67341 0.80368 0.0
H336 H 0.08466 0.91832 0.03289 0.0
H337 H 0.0725 0.86451 0.04928 0.0
H338 H 0.04828 0.91362 0.09041 0.0
H339 H 0.06015 0.96746 0.07412 0.0
H340 H 0.10996 0.86527 0.0797 0.0
H341 H 0.95278 0.80456 0.08453 0.0
H342 H 0.98046 0.83883 0.06958 0.0
H343 H 0.98248 0.85406 0.09049 0.0
C344 C 0.07666 0.91767 0.04541 0.0
C345 C 0.07321 0.94712 0.05218 0.0
C346 C 0.06979 0.88693 0.05475 0.0
C347 C 0.05905 0.88492 0.07097 0.0
C348 C 0.05594 0.91439 0.07782 0.0
H349 H 0.06024 0.75354 0.15113 0.0
H350 H 0.07565 0.80182 0.13099 0.0
C351 C 0.0629 0.9452 0.06851 0.0
C352 C 0.05151 0.85221 0.08081 0.0
H353 H 0.98178 0.77931 0.10168 0.0
C354 C 0.0819 0.84629 0.08443 0.0
C355 C 0.01472 0.82721 0.08673 0.0
C356 C 0.98059 0.83115 0.08254 0.0
C357 C 0.07675 0.81665 0.0943 0.0
C358 C 0.04039 0.79267 0.10081 0.0
C359 C 0.00971 0.7979 0.09675 0.0
C360 C 0.03372 0.76277 0.11232 0.0
C361 C 0.11019 0.81117 0.09762 0.0
C362 C 0.00498 0.72478 0.10852 0.0
C363 C 0.99613 0.69706 0.12001 0.0
C364 C 0.01567 0.70688 0.13558 0.0
C365 C 0.04511 0.74486 0.13917 0.0
C366 C 0.05396 0.77253 0.12767 0.0
H367 H 0.13205 0.82456 0.08827 0.0
H368 H 0.1245 0.8246 0.10977 0.0
H369 H 0.10017 0.78056 0.09786 0.0
H370 H 0.98897 0.7167 0.09675 0.0
H371 H 0.97359 0.66801 0.11679 0.0
H372 H 0.07502 0.00278 0.38117 0.0
H373 H 0.13191 0.00732 0.39488 0.0
H374 H 0.12787 0.07511 0.43438 0.0
H375 H 0.0717 0.07155 0.42064 0.0
H376 H 0.20004 0.10562 0.42354 0.0
H377 H 0.13701 0.95273 0.43486 0.0
H378 H 0.13384 0.96305 0.41379 0.0
H379 H 0.10779 0.97188 0.42864 0.0
C380 C 0.08608 0.01847 0.39283 0.0
C381 C 0.06875 0.0368 0.39981 0.0
C382 C 0.1185 0.02086 0.40068 0.0
C383 C 0.13382 0.04115 0.41574 0.0
C384 C 0.11647 0.05927 0.42276 0.0
H385 H 0.28518 0.041 0.49097 0.0
H386 H 0.23157 0.02987 0.47234 0.0
C387 C 0.08431 0.05716 0.41489 0.0
C388 C 0.16863 0.04467 0.42408 0.0
H389 H 0.20346 0.9939 0.44216 0.0
C390 C 0.20089 0.0812 0.42755 0.0
C391 C 0.16949 0.01274 0.42938 0.0
C392 C 0.1351 0.97289 0.42663 0.0
C393 C 0.23375 0.08679 0.43647 0.0
C394 C 0.23474 0.05487 0.4417 0.0
C395 C 0.20274 0.01828 0.43798 0.0
C396 C 0.26732 0.059 0.45224 0.0
C397 C 0.26639 0.12687 0.4408 0.0
C398 C 0.30517 0.07826 0.44697 0.0
C399 C 0.336 0.08482 0.45765 0.0
C400 C 0.32935 0.07171 0.47368 0.0
C401 C 0.29122 0.05106 0.47864 0.0
C402 C 0.26054 0.04479 0.46803 0.0
H403 H 0.25732 0.14773 0.43915 0.0
H404 H 0.27753 0.12955 0.45369 0.0
H405 H 0.2904 0.13444 0.43269 0.0
H406 H 0.31093 0.08873 0.43471 0.0
H407 H 0.36503 0.1004 0.45343 0.0
H408 H 0.09813 0.06427 0.71428 0.0
H409 H 0.1519 0.12201 0.72783 0.0
H410 H 0.07174 0.13643 0.75514 0.0
H411 H 0.01788 0.0784 0.74197 0.0
H412 H 0.16827 0.19546 0.7281 0.0
H413 H 0.14645 0.14253 0.79112 0.0
H414 H 0.12274 0.1115 0.77322 0.0
H415 H 0.10419 0.13891 0.7815 0.0
C416 C 0.09189 0.07958 0.72324 0.0
C417 C 0.05365 0.06646 0.72714 0.0
C418 C 0.12268 0.11264 0.73094 0.0
C419 C 0.11585 0.13317 0.74268 0.0
C420 C 0.07772 0.12053 0.7464 0.0
H421 H 0.25697 0.3369 0.80338 0.0
H422 H 0.20505 0.28484 0.78625 0.0
C423 C 0.04694 0.08738 0.7388 0.0
C424 C 0.14855 0.16801 0.75093 0.0
H425 H 0.19086 0.20852 0.7886 0.0
C426 C 0.17337 0.19828 0.74132 0.0
C427 C 0.15521 0.17152 0.76818 0.0
C428 C 0.13099 0.13926 0.77911 0.0
C429 C 0.20421 0.23231 0.74855 0.0
C430 C 0.21035 0.23595 0.76578 0.0
C431 C 0.18574 0.20566 0.77538 0.0
C432 C 0.24249 0.27068 0.77425 0.0
C433 C 0.22959 0.26439 0.73779 0.0
C434 C 0.2808 0.28033 0.77291 0.0
C435 C 0.31059 0.31014 0.78267 0.0
C436 C 0.30251 0.33074 0.79392 0.0
C437 C 0.26426 0.32199 0.79467 0.0
C438 C 0.23451 0.29209 0.78498 0.0
H439 H 0.21664 0.25984 0.7251 0.0
H440 H 0.23499 0.29177 0.743 0.0
H441 H 0.25789 0.26664 0.73719 0.0
H442 H 0.28744 0.26381 0.76483 0.0
H443 H 0.33979 0.31633 0.78178 0.0
H444 H 0.88881 0.02413 0.68215 0.0
H445 H 0.86592 0.0516 0.66191 0.0
H446 H 0.95012 0.06102 0.62885 0.0
H447 H 0.97295 0.03283 0.64895 0.0
H448 H 0.90308 0.12069 0.64623 0.0
H449 H 0.84757 0.99742 0.602 0.0
H450 H 0.8621 0.99609 0.623 0.0
H451 H 0.89789 0.02029 0.60825 0.0
C452 C 0.90268 0.03214 0.67062 0.0
C453 C 0.93247 0.02581 0.66712 0.0
C454 C 0.88959 0.04797 0.65908 0.0
C455 C 0.90592 0.05778 0.64381 0.0
C456 C 0.93665 0.05295 0.64047 0.0
H457 H 0.82437 0.12085 0.55703 0.0
H458 H 0.86582 0.11319 0.57699 0.0
C459 C 0.94974 0.03696 0.652 0.0
C460 C 0.88949 0.07158 0.63123 0.0
H461 H 0.83981 0.04743 0.594 0.0
C462 C 0.88945 0.10485 0.63475 0.0
C463 C 0.87166 0.05076 0.6163 0.0
C464 C 0.86941 0.01399 0.61215 0.0
C465 C 0.87178 0.11772 0.62376 0.0
C466 C 0.85329 0.09645 0.609 0.0
C467 C 0.85414 0.06372 0.60532 0.0
C468 C 0.8311 0.10629 0.59752 0.0
C469 C 0.87305 0.15393 0.62801 0.0
C470 C 0.79809 0.10542 0.6025 0.0
C471 C 0.7744 0.11 0.59113 0.0
C472 C 0.78323 0.11535 0.57455 0.0
C473 C 0.81704 0.1174 0.56974 0.0
C474 C 0.84065 0.11279 0.5811 0.0
H475 H 0.89709 0.17214 0.63714 0.0
H476 H 0.8764 0.17035 0.61691 0.0
H477 H 0.84559 0.14684 0.63341 0.0
H478 H 0.78981 0.09974 0.61506 0.0
H479 H 0.7487 0.1085 0.59524 0.0
H480 H 0.99729 0.94215 0.01093 0.0
H481 H 0.94697 0.88252 -0.00277 0.0
H482 H 0.9156 0.94436 0.96473 0.0
H483 H 0.96598 0.00416 0.97818 0.0
H484 H 0.8656 0.85103 0.99235 0.0
H485 H 0.93902 0.88028 0.93375 0.0
H486 H 0.96336 0.9068 0.95264 0.0
H487 H 0.93147 0.91685 0.94109 0.0
C488 C 0.97969 0.94315 0.00088 0.0
C489 C 0.98597 0.97805 0.99557 0.0
C490 C 0.95087 0.90901 0.99311 0.0
C491 C 0.92795 0.90913 0.97986 0.0
C492 C 0.93343 0.94374 0.97478 0.0
H493 H 0.71997 0.71928 0.93136 0.0
H494 H 0.7654 0.77534 0.94864 0.0
C495 C 0.96221 0.97789 0.98252 0.0
C496 C 0.89892 0.8731 0.97108 0.0
H497 H 0.87601 0.82598 0.93383 0.0
C498 C 0.86782 0.84543 0.97957 0.0
C499 C 0.90223 0.86582 0.95446 0.0
C500 C 0.93597 0.89381 0.94495 0.0
C501 C 0.83958 0.81074 0.97177 0.0
C502 C 0.84246 0.80386 0.95505 0.0
C503 C 0.87378 0.83143 0.94664 0.0
C504 C 0.81383 0.76807 0.94596 0.0
C505 C 0.80732 0.78151 0.98155 0.0
C506 C 0.826 0.7455 0.93872 0.0
C507 C 0.80033 0.71382 0.9287 0.0
C508 C 0.76186 0.70406 0.92567 0.0
C509 C 0.74943 0.72614 0.93335 0.0
C510 C 0.77524 0.75795 0.94337 0.0
H511 H 0.81437 0.78721 0.99496 0.0
H512 H 0.78081 0.78213 0.97866 0.0
H513 H 0.80094 0.75255 0.97835 0.0
H514 H 0.85573 0.75297 0.94048 0.0
H515 H 0.81116 0.69797 0.92277 0.0
H516 H 0.00619 0.95088 0.31652 0.0
H517 H 0.01189 0.90832 0.29742 0.0
H518 H 0.99861 0.83489 0.33681 0.0
H519 H 0.99342 0.87754 0.35608 0.0
H520 H 0.05549 0.84544 0.31471 0.0
H521 H 0.91547 0.80538 0.28267 0.0
H522 H 0.95052 0.85543 0.2839 0.0
H523 H 0.9312 0.8307 0.30233 0.0
C524 C 0.00485 0.92588 0.32117 0.0
C525 C 0.99884 0.91733 0.33779 0.0
C526 C 0.00801 0.90156 0.31023 0.0
C527 C 0.00495 0.86816 0.31567 0.0
C528 C 0.00084 0.86046 0.33237 0.0
H529 H 0.93685 0.66785 0.25525 0.0
H530 H 0.94428 0.71318 0.27677 0.0
C531 C 0.99779 0.88483 0.34335 0.0
C532 C 0.0038 0.8402 0.30381 0.0
H533 H 0.95076 0.78113 0.27102 0.0
C534 C 0.03264 0.83132 0.30514 0.0
C535 C 0.97358 0.82145 0.29153 0.0
C536 C 0.9407 0.82837 0.29005 0.0
C537 C 0.03232 0.80445 0.29433 0.0
C538 C 0.0026 0.78644 0.28179 0.0
C539 C 0.97362 0.79512 0.2806 0.0
C540 C 0.00039 0.75808 0.26983 0.0
C541 C 0.06327 0.79503 0.2966 0.0
C542 C 0.02969 0.76817 0.2589 0.0
C543 C 0.02551 0.74227 0.24658 0.0
C544 C 0.99175 0.70603 0.24489 0.0
C545 C 0.96296 0.69573 0.25613 0.0
C546 C 0.96723 0.72152 0.26846 0.0
H547 H 0.07771 0.80371 0.30908 0.0
H548 H 0.05109 0.76416 0.29447 0.0
H549 H 0.08555 0.8104 0.2876 0.0
H550 H 0.05514 0.79649 0.25951 0.0
H551 H 0.04796 0.75115 0.23797 0.0
H552 H 0.06495 0.92125 0.64563 0.0
H553 H 0.12268 0.94204 0.63032 0.0
H554 H 0.16877 0.05742 0.64778 0.0
H555 H 0.11114 0.03697 0.66317 0.0
H556 H 0.15148 0.99893 0.60564 0.0
H557 H 0.25651 0.03587 0.65879 0.0
H558 H 0.20498 0.0054 0.66039 0.0
H559 H 0.22656 0.05581 0.65954 0.0
C560 C 0.08736 0.95106 0.64625 0.0
C561 C 0.08349 0.97746 0.65565 0.0
C562 C 0.12031 0.96284 0.6375 0.0
C563 C 0.15011 0.00113 0.63812 0.0
C564 C 0.1463 0.02764 0.64738 0.0
H565 H 0.36845 0.12715 0.5919 0.0
H566 H 0.31398 0.10608 0.60939 0.0
C567 C 0.11325 0.01592 0.65607 0.0
C568 C 0.18464 0.01342 0.62864 0.0
H569 H 0.28192 0.05063 0.63254 0.0
C570 C 0.18 0.01011 0.61149 0.0
C571 C 0.22173 0.02816 0.63637 0.0
C572 C 0.22795 0.03135 0.65479 0.0
C573 C 0.21166 0.02167 0.60179 0.0
C574 C 0.24876 0.03602 0.6095 0.0
C575 C 0.25342 0.03947 0.62668 0.0
C576 C 0.28308 0.04793 0.59987 0.0
C577 C 0.20518 0.01926 0.58338 0.0
C578 C 0.28432 0.02193 0.58913 0.0
C579 C 0.31512 0.03393 0.57899 0.0
C580 C 0.34556 0.07215 0.57954 0.0
C581 C 0.34516 0.09769 0.59096 0.0
C582 C 0.3142 0.08566 0.60103 0.0
H583 H 0.17778 0.01759 0.57962 0.0
H584 H 0.22934 0.04417 0.57772 0.0
H585 H 0.20341 0.99329 0.57842 0.0
H586 H 0.26097 0.99248 0.5883 0.0
H587 H 0.31422 0.01352 0.57027 0.0
H588 H 0.13001 0.14615 0.99312 0.0
H589 H 0.16994 0.18314 0.9711 0.0
H590 H 0.2182 0.11232 0.96876 0.0
H591 H 0.17773 0.07441 0.99083 0.0
H592 H 0.26683 0.21106 0.97474 0.0
H593 H 0.17068 0.13396 0.91932 0.0
H594 H 0.14971 0.13696 0.9379 0.0
H595 H 0.17179 0.1093 0.93723 0.0
C596 C 0.14847 0.13781 0.98778 0.0
C597 C 0.15054 0.10717 0.9937 0.0
C598 C 0.17137 0.15913 0.97522 0.0
C599 C 0.19678 0.15029 0.96838 0.0
C600 C 0.19851 0.11931 0.97392 0.0
H601 H 0.33666 0.27399 0.88677 0.0
H602 H 0.30305 0.22505 0.90668 0.0
C603 C 0.1754 0.09775 0.98649 0.0
C604 C 0.22303 0.17527 0.95615 0.0
H605 H 0.22642 0.19396 0.91556 0.0
C606 C 0.2584 0.20714 0.96175 0.0
C607 C 0.21174 0.16978 0.93931 0.0
C608 C 0.17396 0.13564 0.93293 0.0
C609 C 0.28237 0.23459 0.95091 0.0
C610 C 0.27018 0.23016 0.93414 0.0
C611 C 0.23554 0.19735 0.92845 0.0
C612 C 0.29192 0.26018 0.92248 0.0
C613 C 0.32027 0.2683 0.95752 0.0
C614 C 0.29651 0.296 0.92475 0.0
C615 C 0.3158 0.32404 0.91346 0.0
C616 C 0.33071 0.31668 0.89965 0.0
C617 C 0.32604 0.28072 0.89742 0.0
C618 C 0.30666 0.25266 0.90871 0.0
H619 H 0.33035 0.26216 0.96924 0.0
H620 H 0.34297 0.27699 0.94857 0.0
H621 H 0.31646 0.29255 0.95992 0.0
H622 H 0.2847 0.30211 0.93516 0.0
H623 H 0.3191 0.35149 0.91556 0.0
H624 H 0.04205 0.16352 0.35762 0.0
H625 H 0.05635 0.21029 0.33701 0.0
H626 H 0.04597 0.13091 0.2994 0.0
H627 H 0.03054 0.08322 0.31995 0.0
H628 H 0.10732 0.24552 0.31182 0.0
H629 H 0.95574 0.1455 0.28803 0.0
H630 H 0.97475 0.13888 0.30713 0.0
H631 H 0.98724 0.12733 0.288 0.0
C632 C 0.04352 0.15608 0.34503 0.0
C633 C 0.03405 0.11918 0.34038 0.0
C634 C 0.05196 0.18304 0.33326 0.0
C635 C 0.05128 0.17372 0.31665 0.0
C636 C 0.04584 0.13833 0.31215 0.0
H637 H 0.06695 0.32541 0.23895 0.0
H638 H 0.08433 0.28987 0.25742 0.0
C639 C 0.03714 0.11115 0.32392 0.0
C640 C 0.05052 0.19891 0.30416 0.0
H641 H 0.98927 0.20467 0.27629 0.0
C642 C 0.08178 0.23655 0.30386 0.0
C643 C 0.01683 0.18718 0.29401 0.0
C644 C 0.98156 0.14766 0.29432 0.0
C645 C 0.07984 0.26301 0.29392 0.0
C646 C 0.04588 0.2513 0.28403 0.0
C647 C 0.01521 0.21345 0.28396 0.0
C648 C 0.04009 0.27794 0.2743 0.0
C649 C 0.11328 0.30357 0.29455 0.0
C650 C 0.00993 0.28348 0.27784 0.0
C651 C -0.00012 0.30355 0.26733 0.0
C652 C 0.01979 0.3184 0.25305 0.0
C653 C 0.05139 0.31462 0.24998 0.0
C654 C 0.06136 0.29435 0.2605 0.0
H655 H 0.13472 0.30942 0.3048 0.0
H656 H 0.12808 0.3095 0.28288 0.0
H657 H 0.10284 0.32337 0.29594 0.0
H658 H 0.9932 0.27102 0.28845 0.0
H659 H 0.97567 0.30636 0.27007 0.0
loop_
_geom_bond_atom_site_label_1
_geom_bond_atom_site_label_2
_geom_bond_distance
_geom_bond_site_symmetry_2
_ccdc_geom_bond_type
Mg0 O1 2.028 1_545 S
Mg0 O7 1.986 . S
Mg0 O9 2.114 . S
Mg0 O10 2.251 . S
Mg0 O13 2.010 . S
O1 Mg0 2.028 1_565 S
O1 C4 1.250 1_455 S
O2 Mg3 2.028 1_655 S
O2 C4 1.246 1_545 S
Mg3 O2 2.028 1_455 S
Mg3 O8 2.032 . S
Mg3 O10 2.079 . S
C4 O1 1.250 1_655 S
C4 O2 1.246 1_565 S
C5 O6 1.264 . S
C5 O13 1.249 1_565 S
O6 C5 1.264 . S
O7 Mg0 1.986 . S
O7 C11 1.246 . S
O8 Mg3 2.032 . S
O8 C11 1.259 . S
O9 Mg0 2.114 . S
O9 C12 1.252 . S
O10 Mg0 2.251 . S
O10 Mg3 2.079 . S
O10 C12 1.273 . S
C11 O7 1.246 . S
C11 O8 1.259 . S
C12 O9 1.252 . S
C12 O10 1.273 . S
O13 Mg0 2.010 . S
O13 C5 1.249 1_545 S
Mg14 O15 2.016 1_655 S
Mg14 O21 2.009 1_655 S
Mg14 O23 2.104 1_545 S
Mg14 O24 2.275 . S
Mg14 O27 1.983 1_545 S
O15 Mg14 2.016 1_455 S
O15 C18 1.250 . S
O16 Mg17 2.028 . S
O16 C18 1.248 . S
Mg17 O16 2.028 . S
Mg17 O22 2.032 . S
Mg17 O24 2.079 1_455 S
C18 O15 1.250 . S
C18 O16 1.248 . S
C19 O20 1.264 . S
C19 O27 1.249 . S
O20 C19 1.264 . S
O21 Mg14 2.009 1_455 S
O21 C25 1.246 . S
O22 Mg17 2.032 . S
O22 C25 1.259 . S
O23 Mg14 2.104 1_565 S
O23 C26 1.252 . S
O24 Mg14 2.275 . S
O24 Mg17 2.079 1_655 S
O24 C26 1.273 1_545 S
C25 O21 1.246 . S
C25 O22 1.259 . S
C26 O23 1.252 . S
C26 O24 1.273 1_565 S
O27 Mg14 1.983 1_565 S
O27 C19 1.249 . S
Mg28 O29 2.028 1_565 S
Mg28 O35 1.986 1_465 S
Mg28 O37 2.114 . S
Mg28 O38 2.251 1_455 S
Mg28 O41 2.010 . S
O29 Mg28 2.028 1_545 S
O29 C32 1.250 . S
O30 Mg31 2.028 1_455 S
O30 C32 1.248 . S
Mg31 O30 2.028 1_655 S
Mg31 O36 2.032 . S
Mg31 O38 2.079 1_545 S
C32 O29 1.250 . S
C32 O30 1.248 . S
C33 O34 1.264 . S
C33 O41 1.249 . S
O34 C33 1.264 . S
O35 Mg28 1.986 1_645 S
O35 C39 1.246 . S
O36 Mg31 2.032 . S
O36 C39 1.259 . S
O37 Mg28 2.114 . S
O37 C40 1.252 1_455 S
O38 Mg28 2.251 1_655 S
O38 Mg31 2.079 1_565 S
O38 C40 1.273 . S
C39 O35 1.246 . S
C39 O36 1.259 . S
C40 O37 1.252 1_655 S
C40 O38 1.273 . S
O41 Mg28 2.010 . S
O41 C33 1.249 . S
H42 C69 0.929 . S
N43 C68 1.433 . S
N43 C74 1.435 . S
N43 C80 1.423 . S
H44 C70 0.953 . S
H45 C73 0.931 . S
H46 C72 0.929 . S
H47 C75 0.930 . S
H48 C76 0.932 . S
H49 C79 0.929 . S
H50 C78 0.931 1_655 S
H51 C81 0.929 . S
H52 C85 0.932 . S
H53 C82 0.931 . S
H54 C84 0.929 . S
H55 C87 0.929 . S
H56 C88 0.928 . S
H57 C90 0.929 . S
H58 C91 0.931 . S
H59 C93 0.930 . S
H60 C94 0.932 . S
H61 C96 0.931 1_655 S
H62 C97 0.929 . S
H63 C99 0.929 . S
H64 C100 0.931 . S
H65 C102 0.929 . S
N66 C86 1.433 . S
N66 C92 1.435 . S
N66 C98 1.423 . S
H67 C103 0.932 . S
C68 N43 1.433 . S
C68 C69 1.363 1_455 S
C68 C73 1.370 . S
C69 H42 0.929 . S
C69 C68 1.363 1_655 S
C69 C70 1.381 . S
C70 H44 0.953 . S
C70 C69 1.381 . S
C70 C71 1.339 1_655 S
C71 C70 1.339 1_455 S
C71 C72 1.406 . S
C72 H46 0.929 . S
C72 C71 1.406 . S
C72 C73 1.391 . S
C73 H45 0.931 . S
C73 C68 1.370 . S
C73 C72 1.391 . S
C74 N43 1.435 . S
C74 C75 1.358 . S
C74 C79 1.371 1_455 S
C75 H47 0.930 . S
C75 C74 1.358 . S
C75 C76 1.405 . S
C76 H48 0.932 . S
C76 C75 1.405 . S
C76 C77 1.383 . S
C77 C76 1.383 . S
C77 C78 1.393 . S
C78 H50 0.931 1_455 S
C78 C77 1.393 . S
C78 C79 1.382 1_455 S
C79 H49 0.929 . S
C79 C74 1.371 1_655 S
C79 C78 1.382 1_655 S
C80 N43 1.423 . S
C80 C81 1.362 1_455 S
C80 C85 1.388 . S
C81 H51 0.929 . S
C81 C80 1.362 1_655 S
C81 C82 1.376 . S
C82 H53 0.931 . S
C82 C81 1.376 . S
C82 C83 1.397 1_655 S
C83 C82 1.397 1_455 S
C83 C84 1.347 . S
C83 C101 1.472 . S
C84 H54 0.929 . S
C84 C83 1.347 . S
C84 C85 1.443 . S
C85 H52 0.932 . S
C85 C80 1.388 . S
C85 C84 1.443 . S
C86 N66 1.433 . S
C86 C87 1.363 1_455 S
C86 C91 1.370 . S
C87 H55 0.929 . S
C87 C86 1.363 1_655 S
C87 C88 1.391 . S
C88 H56 0.928 . S
C88 C87 1.391 . S
C88 C89 1.354 1_655 S
C89 C88 1.354 1_455 S
C89 C90 1.406 . S
C90 H57 0.929 . S
C90 C89 1.406 . S
C90 C91 1.391 . S
C91 H58 0.931 . S
C91 C86 1.370 . S
C91 C90 1.391 . S
C92 N66 1.435 . S
C92 C93 1.358 . S
C92 C97 1.371 1_455 S
C93 H59 0.930 . S
C93 C92 1.358 . S
C93 C94 1.405 . S
C94 H60 0.932 . S
C94 C93 1.405 . S
C94 C95 1.383 . S
C95 C94 1.383 . S
C95 C96 1.393 . S
C96 H61 0.931 1_455 S
C96 C95 1.393 . S
C96 C97 1.382 1_455 S
C97 H62 0.929 . S
C97 C92 1.371 1_655 S
C97 C96 1.382 1_655 S
C98 N66 1.423 . S
C98 C99 1.362 1_455 S
C98 C103 1.388 . S
C99 H63 0.929 . S
C99 C98 1.362 1_655 S
C99 C100 1.376 . S
C100 H64 0.931 . S
C100 C99 1.376 . S
C100 C101 1.396 1_655 S
C101 C83 1.472 . S
C101 C100 1.396 1_455 S
C101 C102 1.347 . S
C102 H65 0.929 . S
C102 C101 1.347 . S
C102 C103 1.443 . S
C103 H67 0.932 . S
C103 C98 1.388 . S
C103 C102 1.443 . S
H104 C131 0.929 . S
N105 C130 1.433 . S
N105 C136 1.435 . S
N105 C142 1.423 . S
H106 C132 0.930 . S
H107 C135 0.931 . S
H108 C134 0.929 . S
H109 C137 0.930 . S
H110 C138 0.932 . S
H111 C141 0.929 . S
H112 C140 0.931 . S
H113 C143 0.929 . S
H114 C147 0.932 . S
H115 C144 0.931 . S
H116 C146 0.929 . S
H117 C149 0.929 . S
H118 C150 0.930 . S
H119 C152 0.929 . S
H120 C153 0.931 . S
H121 C155 0.930 . S
H122 C156 0.932 . S
H123 C158 0.931 . S
H124 C159 0.929 . S
H125 C161 0.929 . S
H126 C162 0.931 . S
H127 C164 0.929 . S
N128 C148 1.433 . S
N128 C154 1.435 . S
N128 C160 1.423 . S
H129 C165 0.932 . S
C130 N105 1.433 . S
C130 C131 1.363 . S
C130 C135 1.370 . S
C131 H104 0.929 . S
C131 C130 1.363 . S
C131 C132 1.385 . S
C132 H106 0.930 . S
C132 C131 1.385 . S
C132 C133 1.357 . S
C133 C132 1.357 . S
C133 C134 1.406 . S
C134 H108 0.929 . S
C134 C133 1.406 . S
C134 C135 1.391 . S
C135 H107 0.931 . S
C135 C130 1.370 . S
C135 C134 1.391 . S
C136 N105 1.435 . S
C136 C137 1.358 . S
C136 C141 1.371 . S
C137 H109 0.930 . S
C137 C136 1.358 . S
C137 C138 1.405 . S
C138 H110 0.932 . S
C138 C137 1.405 . S
C138 C139 1.383 . S
C139 C138 1.383 . S
C139 C140 1.393 . S
C140 H112 0.931 . S
C140 C139 1.393 . S
C140 C141 1.382 . S
C141 H111 0.929 . S
C141 C136 1.371 . S
C141 C140 1.382 . S
C142 N105 1.423 . S
C142 C143 1.362 . S
C142 C147 1.388 . S
C143 H113 0.929 . S
C143 C142 1.362 . S
C143 C144 1.376 . S
C144 H115 0.931 . S
C144 C143 1.376 . S
C144 C145 1.396 . S
C145 C144 1.396 . S
C145 C146 1.348 . S
C145 C163 1.472 . S
C146 H116 0.929 . S
C146 C145 1.348 . S
C146 C147 1.443 . S
C147 H114 0.932 . S
C147 C142 1.388 . S
C147 C146 1.443 . S
C148 N128 1.433 . S
C148 C149 1.363 . S
C148 C153 1.370 . S
C149 H117 0.929 . S
C149 C148 1.363 . S
C149 C150 1.385 . S
C150 H118 0.930 . S
C150 C149 1.385 . S
C150 C151 1.357 . S
C151 C150 1.357 . S
C151 C152 1.406 . S
C152 H119 0.929 . S
C152 C151 1.406 . S
C152 C153 1.391 . S
C153 H120 0.931 . S
C153 C148 1.370 . S
C153 C152 1.391 . S
C154 N128 1.435 . S
C154 C155 1.358 . S
C154 C159 1.371 . S
C155 H121 0.930 . S
C155 C154 1.358 . S
C155 C156 1.405 . S
C156 H122 0.932 . S
C156 C155 1.405 . S
C156 C157 1.383 . S
C157 C156 1.383 . S
C157 C158 1.393 . S
C158 H123 0.931 . S
C158 C157 1.393 . S
C158 C159 1.382 . S
C159 H124 0.929 . S
C159 C154 1.371 . S
C159 C158 1.382 . S
C160 N128 1.423 . S
C160 C161 1.362 . S
C160 C165 1.388 . S
C161 H125 0.929 . S
C161 C160 1.362 . S
C161 C162 1.376 . S
C162 H126 0.931 . S
C162 C161 1.376 . S
C162 C163 1.396 . S
C163 C145 1.472 . S
C163 C162 1.396 . S
C163 C164 1.348 . S
C164 H127 0.929 . S
C164 C163 1.348 . S
C164 C165 1.443 . S
C165 H129 0.932 . S
C165 C160 1.388 . S
C165 C164 1.443 . S
H166 C193 0.929 . S
N167 C192 1.433 . S
N167 C198 1.435 . S
N167 C204 1.423 . S
H168 C194 0.930 . S
H169 C197 0.931 . S
H170 C196 0.929 . S
H171 C199 0.930 . S
H172 C200 0.932 . S
H173 C203 0.929 . S
H174 C202 0.931 . S
H175 C205 0.929 . S
H176 C209 0.932 . S
H177 C206 0.931 . S
H178 C208 0.929 . S
H179 C211 0.929 . S
H180 C212 0.930 . S
H181 C214 0.929 . S
H182 C215 0.931 . S
H183 C217 0.930 . S
H184 C218 0.932 . S
H185 C220 0.931 . S
H186 C221 0.929 . S
H187 C223 0.929 . S
H188 C224 0.931 . S
H189 C226 0.929 . S
N190 C210 1.433 . S
N190 C216 1.435 . S
N190 C222 1.423 . S
H191 C227 0.932 . S
C192 N167 1.433 . S
C192 C193 1.363 . S
C192 C197 1.370 . S
C193 H166 0.929 . S
C193 C192 1.363 . S
C193 C194 1.385 . S
C194 H168 0.930 . S
C194 C193 1.385 . S
C194 C195 1.357 . S
C195 C194 1.357 . S
C195 C196 1.406 . S
C196 H170 0.929 . S
C196 C195 1.406 . S
C196 C197 1.391 . S
C197 H169 0.931 . S
C197 C192 1.370 . S
C197 C196 1.391 . S
C198 N167 1.435 . S
C198 C199 1.358 . S
C198 C203 1.371 . S
C199 H171 0.930 . S
C199 C198 1.358 . S
C199 C200 1.405 . S
C200 H172 0.932 . S
C200 C199 1.405 . S
C200 C201 1.383 . S
C201 C200 1.383 . S
C201 C202 1.393 . S
C202 H174 0.931 . S
C202 C201 1.393 . S
C202 C203 1.382 . S
C203 H173 0.929 . S
C203 C198 1.371 . S
C203 C202 1.382 . S
C204 N167 1.423 . S
C204 C205 1.362 . S
C204 C209 1.388 . S
C205 H175 0.929 . S
C205 C204 1.362 . S
C205 C206 1.376 . S
C206 H177 0.931 . S
C206 C205 1.376 . S
C206 C207 1.396 . S
C207 C206 1.396 . S
C207 C208 1.348 . S
C207 C225 1.472 . S
C208 H178 0.929 . S
C208 C207 1.348 . S
C208 C209 1.443 . S
C209 H176 0.932 . S
C209 C204 1.388 . S
C209 C208 1.443 . S
C210 N190 1.433 . S
C210 C211 1.363 . S
C210 C215 1.370 . S
C211 H179 0.929 . S
C211 C210 1.363 . S
C211 C212 1.385 . S
C212 H180 0.930 . S
C212 C211 1.385 . S
C212 C213 1.357 . S
C213 C212 1.357 . S
C213 C214 1.406 . S
C214 H181 0.929 . S
C214 C213 1.406 . S
C214 C215 1.391 . S
C215 H182 0.931 . S
C215 C210 1.370 . S
C215 C214 1.391 . S
C216 N190 1.435 . S
C216 C217 1.358 . S
C216 C221 1.371 . S
C217 H183 0.930 . S
C217 C216 1.358 . S
C217 C218 1.405 . S
C218 H184 0.932 . S
C218 C217 1.405 . S
C218 C219 1.383 . S
C219 C218 1.383 . S
C219 C220 1.393 . S
C220 H185 0.931 . S
C220 C219 1.393 . S
C220 C221 1.382 . S
C221 H186 0.929 . S
C221 C216 1.371 . S
C221 C220 1.382 . S
C222 N190 1.423 . S
C222 C223 1.362 . S
C222 C227 1.388 . S
C223 H187 0.929 . S
C223 C222 1.362 . S
C223 C224 1.376 . S
C224 H188 0.931 . S
C224 C223 1.376 . S
C224 C225 1.396 . S
C225 C207 1.472 . S
C225 C224 1.396 . S
C225 C226 1.348 . S
C226 H189 0.929 . S
C226 C225 1.348 . S
C226 C227 1.443 . S
C227 H191 0.932 . S
C227 C222 1.388 . S
C227 C226 1.443 . S
H228 C236 0.929 . S
H229 C238 0.930 . S
H230 C240 0.930 . S
H231 C243 0.929 . S
H232 C246 0.930 . S
H233 C248 0.960 . S
H234 C248 0.960 . S
H235 C248 0.960 . S
C236 H228 0.929 . S
C236 C237 1.377 1_655 S
C236 C238 1.384 . S
C237 C236 1.377 1_455 S
C237 C243 1.390 . S
C238 H229 0.930 . S
C238 C236 1.384 . S
C238 C239 1.372 1_655 S
C239 C238 1.372 1_455 S
C239 C240 1.400 . S
C239 C244 1.490 . S
C240 H230 0.930 . S
C240 C239 1.400 . S
C240 C243 1.386 . S
H241 C257 0.930 . S
H242 C258 0.931 . S
C243 H231 0.929 . S
C243 C237 1.390 . S
C243 C240 1.386 . S
C244 C239 1.490 . S
C244 C246 1.395 . S
C244 C247 1.403 . S
H245 C251 0.930 . S
C246 H232 0.930 . S
C246 C244 1.395 . S
C246 C249 1.403 . S
C247 C244 1.403 . S
C247 C248 1.524 . S
C247 C251 1.400 . S
C248 H233 0.960 . S
C248 H234 0.960 . S
C248 H235 0.960 . S
C248 C247 1.524 . S
C249 C246 1.403 . S
C249 C250 1.392 . S
C249 C253 1.495 . S
C250 C249 1.392 . S
C250 C251 1.385 . S
C250 C252 1.478 . S
C251 H245 0.930 . S
C251 C247 1.400 . S
C251 C250 1.385 . S
C252 C250 1.478 . S
C252 C254 1.368 1_455 S
C252 C258 1.383 . S
C253 C249 1.495 . S
C253 H259 0.959 . S
C253 H260 0.961 . S
C253 H261 0.960 . S
C254 C252 1.368 1_655 S
C254 C255 1.410 1_655 S
C254 H262 0.937 . S
C255 C254 1.410 1_455 S
C255 C256 1.391 . S
C255 H263 0.913 1_455 S
C256 C255 1.391 . S
C256 C257 1.377 . S
C257 H241 0.930 . S
C257 C256 1.377 . S
C257 C258 1.379 . S
C258 H242 0.931 . S
C258 C252 1.383 . S
C258 C257 1.379 . S
H259 C253 0.959 . S
H260 C253 0.961 . S
H261 C253 0.960 . S
H262 C254 0.937 . S
H263 C255 0.913 1_655 S
H264 C272 0.929 . S
H265 C274 0.930 . S
H266 C276 0.930 . S
H267 C279 0.929 . S
H268 C282 0.930 . S
H269 C284 0.960 . S
H270 C284 0.960 . S
H271 C284 0.960 . S
C272 H264 0.929 . S
C272 C273 1.377 . S
C272 C274 1.384 . S
C273 C272 1.377 . S
C273 C279 1.390 1_565 S
C274 H265 0.930 . S
C274 C272 1.384 . S
C274 C275 1.372 1_565 S
C275 C274 1.372 1_545 S
C275 C276 1.400 . S
C275 C280 1.490 . S
C276 H266 0.930 . S
C276 C275 1.400 . S
C276 C279 1.386 . S
H277 C293 0.930 . S
H278 C294 0.931 . S
C279 H267 0.929 . S
C279 C273 1.390 1_545 S
C279 C276 1.386 . S
C280 C275 1.490 . S
C280 C282 1.395 . S
C280 C283 1.403 1_545 S
H281 C287 0.933 1_565 S
C282 H268 0.930 . S
C282 C280 1.395 . S
C282 C285 1.403 . S
C283 C280 1.403 1_565 S
C283 C284 1.524 . S
C283 C287 1.400 1_565 S
C284 H269 0.960 . S
C284 H270 0.960 . S
C284 H271 0.960 . S
C284 C283 1.524 . S
C285 C282 1.403 . S
C285 C286 1.392 . S
C285 C289 1.495 . S
C286 C285 1.392 . S
C286 C287 1.385 . S
C286 C288 1.478 . S
C287 H281 0.933 1_545 S
C287 C283 1.400 1_545 S
C287 C286 1.385 . S
C288 C286 1.478 . S
C288 C290 1.381 . S
C288 C294 1.383 . S
C289 C285 1.495 . S
C289 H295 0.959 . S
C289 H296 0.961 . S
C289 H297 0.960 . S
C290 C288 1.381 . S
C290 C291 1.394 . S
C290 H298 0.930 1_545 S
C291 C290 1.394 . S
C291 C292 1.383 . S
C291 H299 0.922 1_545 S
C292 C291 1.383 . S
C292 C293 1.377 . S
C293 H277 0.930 . S
C293 C292 1.377 . S
C293 C294 1.379 . S
C294 H278 0.931 . S
C294 C288 1.383 . S
C294 C293 1.379 . S
H295 C289 0.959 . S
H296 C289 0.961 . S
H297 C289 0.960 . S
H298 C290 0.930 1_565 S
H299 C291 0.922 1_565 S
H300 C308 0.929 . S
H301 C310 0.930 . S
H302 C312 0.930 . S
H303 C315 0.929 . S
H304 C318 0.930 . S
H305 C320 0.960 . S
H306 C320 0.960 . S
H307 C320 0.960 . S
C308 H300 0.929 . S
C308 C309 1.377 . S
C308 C310 1.384 . S
C309 C308 1.377 . S
C309 C315 1.390 . S
C310 H301 0.930 . S
C310 C308 1.384 . S
C310 C311 1.372 . S
C311 C310 1.372 . S
C311 C312 1.400 . S
C311 C316 1.490 . S
C312 H302 0.930 . S
C312 C311 1.400 . S
C312 C315 1.386 . S
H313 C329 0.930 . S
H314 C330 0.931 . S
C315 H303 0.929 . S
C315 C309 1.390 . S
C315 C312 1.386 . S
C316 C311 1.490 . S
C316 C318 1.395 . S
C316 C319 1.403 . S
H317 C323 0.930 . S
C318 H304 0.930 . S
C318 C316 1.395 . S
C318 C321 1.403 . S
C319 C316 1.403 . S
C319 C320 1.524 . S
C319 C323 1.400 . S
C320 H305 0.960 . S
C320 H306 0.960 . S
C320 H307 0.960 . S
C320 C319 1.524 . S
C321 C318 1.403 . S
C321 C322 1.392 . S
C321 C325 1.495 . S
C322 C321 1.392 . S
C322 C323 1.385 . S
C322 C324 1.478 . S
C323 H317 0.930 . S
C323 C319 1.400 . S
C323 C322 1.385 . S
C324 C322 1.478 . S
C324 C326 1.381 . S
C324 C330 1.383 . S
C325 C321 1.495 . S
C325 H331 0.959 . S
C325 H332 0.961 . S
C325 H333 0.960 . S
C326 C324 1.381 . S
C326 C327 1.394 . S
C326 H334 0.930 . S
C327 C326 1.394 . S
C327 C328 1.383 . S
C327 H335 0.929 . S
C328 C327 1.383 . S
C328 C329 1.377 . S
C329 H313 0.930 . S
C329 C328 1.377 . S
C329 C330 1.379 . S
C330 H314 0.931 . S
C330 C324 1.383 . S
C330 C329 1.379 . S
H331 C325 0.959 . S
H332 C325 0.961 . S
H333 C325 0.960 . S
H334 C326 0.930 . S
H335 C327 0.929 . S
H336 C344 0.929 . S
H337 C346 0.930 . S
H338 C348 0.930 . S
H339 C351 0.929 . S
H340 C354 0.930 . S
H341 C356 0.960 . S
H342 C356 0.960 . S
H343 C356 0.960 . S
C344 H336 0.929 . S
C344 C345 1.377 . S
C344 C346 1.384 . S
C345 C344 1.377 . S
C345 C351 1.390 . S
C346 H337 0.930 . S
C346 C344 1.384 . S
C346 C347 1.372 . S
C347 C346 1.372 . S
C347 C348 1.400 . S
C347 C352 1.490 . S
C348 H338 0.930 . S
C348 C347 1.400 . S
C348 C351 1.386 . S
H349 C365 0.930 . S
H350 C366 0.931 . S
C351 H339 0.929 . S
C351 C345 1.390 . S
C351 C348 1.386 . S
C352 C347 1.490 . S
C352 C354 1.395 . S
C352 C355 1.403 . S
H353 C359 0.930 1_655 S
C354 H340 0.930 . S
C354 C352 1.395 . S
C354 C357 1.403 . S
C355 C352 1.403 . S
C355 C356 1.524 1_455 S
C355 C359 1.400 . S
C356 H341 0.960 . S
C356 H342 0.960 . S
C356 H343 0.960 . S
C356 C355 1.524 1_655 S
C357 C354 1.403 . S
C357 C358 1.392 . S
C357 C361 1.495 . S
C358 C357 1.392 . S
C358 C359 1.385 . S
C358 C360 1.478 . S
C359 H353 0.930 1_455 S
C359 C355 1.400 . S
C359 C358 1.385 . S
C360 C358 1.478 . S
C360 C362 1.381 . S
C360 C366 1.383 . S
C361 C357 1.495 . S
C361 H367 0.959 . S
C361 H368 0.961 . S
C361 H369 0.960 . S
C362 C360 1.381 . S
C362 C363 1.394 . S
C362 H370 0.930 . S
C363 C362 1.394 . S
C363 C364 1.383 . S
C363 H371 0.929 . S
C364 C363 1.383 . S
C364 C365 1.377 . S
C365 H349 0.930 . S
C365 C364 1.377 . S
C365 C366 1.379 . S
C366 H350 0.931 . S
C366 C360 1.383 . S
C366 C365 1.379 . S
H367 C361 0.959 . S
H368 C361 0.961 . S
H369 C361 0.960 . S
H370 C362 0.930 . S
H371 C363 0.929 . S
H372 C380 0.929 . S
H373 C382 0.930 . S
H374 C384 0.930 . S
H375 C387 0.929 . S
H376 C390 0.930 . S
H377 C392 0.960 . S
H378 C392 0.960 . S
H379 C392 0.960 . S
C380 H372 0.929 . S
C380 C381 1.377 . S
C380 C382 1.384 . S
C381 C380 1.377 . S
C381 C387 1.390 . S
C382 H373 0.930 . S
C382 C380 1.384 . S
C382 C383 1.372 . S
C383 C382 1.372 . S
C383 C384 1.400 . S
C383 C388 1.490 . S
C384 H374 0.930 . S
C384 C383 1.400 . S
C384 C387 1.386 . S
H385 C401 0.930 . S
H386 C402 0.931 . S
C387 H375 0.929 . S
C387 C381 1.390 . S
C387 C384 1.386 . S
C388 C383 1.490 . S
C388 C390 1.395 . S
C388 C391 1.403 . S
H389 C395 0.930 1_565 S
C390 H376 0.930 . S
C390 C388 1.395 . S
C390 C393 1.403 . S
C391 C388 1.403 . S
C391 C392 1.524 1_545 S
C391 C395 1.400 . S
C392 H377 0.960 . S
C392 H378 0.960 . S
C392 H379 0.960 . S
C392 C391 1.524 1_565 S
C393 C390 1.403 . S
C393 C394 1.392 . S
C393 C397 1.495 . S
C394 C393 1.392 . S
C394 C395 1.385 . S
C394 C396 1.478 . S
C395 H389 0.930 1_545 S
C395 C391 1.400 . S
C395 C394 1.385 . S
C396 C394 1.478 . S
C396 C398 1.381 . S
C396 C402 1.383 . S
C397 C393 1.495 . S
C397 H403 0.959 . S
C397 H404 0.961 . S
C397 H405 0.960 . S
C398 C396 1.381 . S
C398 C399 1.394 . S
C398 H406 0.930 . S
C399 C398 1.394 . S
C399 C400 1.383 . S
C399 H407 0.929 . S
C400 C399 1.383 . S
C400 C401 1.377 . S
C401 H385 0.930 . S
C401 C400 1.377 . S
C401 C402 1.379 . S
C402 H386 0.931 . S
C402 C396 1.383 . S
C402 C401 1.379 . S
H403 C397 0.959 . S
H404 C397 0.961 . S
H405 C397 0.960 . S
H406 C398 0.930 . S
H407 C399 0.929 . S
H408 C416 0.929 . S
H409 C418 0.930 . S
H410 C420 0.930 . S
H411 C423 0.929 . S
H412 C426 0.930 . S
H413 C428 0.960 . S
H414 C428 0.960 . S
H415 C428 0.960 . S
C416 H408 0.929 . S
C416 C417 1.377 . S
C416 C418 1.384 . S
C417 C416 1.377 . S
C417 C423 1.390 . S
C418 H409 0.930 . S
C418 C416 1.384 . S
C418 C419 1.372 . S
C419 C418 1.372 . S
C419 C420 1.400 . S
C419 C424 1.490 . S
C420 H410 0.930 . S
C420 C419 1.400 . S
C420 C423 1.386 . S
H421 C437 0.930 . S
H422 C438 0.931 . S
C423 H411 0.929 . S
C423 C417 1.390 . S
C423 C420 1.386 . S
C424 C419 1.490 . S
C424 C426 1.395 . S
C424 C427 1.403 . S
H425 C431 0.930 . S
C426 H412 0.930 . S
C426 C424 1.395 . S
C426 C429 1.403 . S
C427 C424 1.403 . S
C427 C428 1.524 . S
C427 C431 1.400 . S
C428 H413 0.960 . S
C428 H414 0.960 . S
C428 H415 0.960 . S
C428 C427 1.524 . S
C429 C426 1.403 . S
C429 C430 1.392 . S
C429 C433 1.495 . S
C430 C429 1.392 . S
C430 C431 1.385 . S
C430 C432 1.478 . S
C431 H425 0.930 . S
C431 C427 1.400 . S
C431 C430 1.385 . S
C432 C430 1.478 . S
C432 C434 1.381 . S
C432 C438 1.383 . S
C433 C429 1.495 . S
C433 H439 0.959 . S
C433 H440 0.961 . S
C433 H441 0.960 . S
C434 C432 1.381 . S
C434 C435 1.394 . S
C434 H442 0.930 . S
C435 C434 1.394 . S
C435 C436 1.383 . S
C435 H443 0.929 . S
C436 C435 1.383 . S
C436 C437 1.377 . S
C437 H421 0.930 . S
C437 C436 1.377 . S
C437 C438 1.379 . S
C438 H422 0.931 . S
C438 C432 1.383 . S
C438 C437 1.379 . S
H439 C433 0.959 . S
H440 C433 0.961 . S
H441 C433 0.960 . S
H442 C434 0.930 . S
H443 C435 0.929 . S
H444 C452 0.929 . S
H445 C454 0.930 . S
H446 C456 0.930 . S
H447 C459 0.929 . S
H448 C462 0.930 . S
H449 C464 0.960 . S
H450 C464 0.960 . S
H451 C464 0.960 . S
C452 H444 0.929 . S
C452 C453 1.377 . S
C452 C454 1.384 . S
C453 C452 1.377 . S
C453 C459 1.390 . S
C454 H445 0.930 . S
C454 C452 1.384 . S
C454 C455 1.372 . S
C455 C454 1.372 . S
C455 C456 1.400 . S
C455 C460 1.490 . S
C456 H446 0.930 . S
C456 C455 1.400 . S
C456 C459 1.386 . S
H457 C473 0.930 . S
H458 C474 0.931 . S
C459 H447 0.929 . S
C459 C453 1.390 . S
C459 C456 1.386 . S
C460 C455 1.490 . S
C460 C462 1.395 . S
C460 C463 1.403 . S
H461 C467 0.930 1_565 S
C462 H448 0.930 . S
C462 C460 1.395 . S
C462 C465 1.403 . S
C463 C460 1.403 . S
C463 C464 1.524 1_545 S
C463 C467 1.400 . S
C464 H449 0.960 . S
C464 H450 0.960 . S
C464 H451 0.960 . S
C464 C463 1.524 1_565 S
C465 C462 1.403 . S
C465 C466 1.392 . S
C465 C469 1.495 . S
C466 C465 1.392 . S
C466 C467 1.385 . S
C466 C468 1.478 . S
C467 H461 0.930 1_545 S
C467 C463 1.400 . S
C467 C466 1.385 . S
C468 C466 1.478 . S
C468 C470 1.381 . S
C468 C474 1.383 . S
C469 C465 1.495 . S
C469 H475 0.959 . S
C469 H476 0.961 . S
C469 H477 0.960 . S
C470 C468 1.381 . S
C470 C471 1.394 . S
C470 H478 0.930 . S
C471 C470 1.394 . S
C471 C472 1.383 . S
C471 H479 0.929 . S
C472 C471 1.383 . S
C472 C473 1.377 . S
C473 H457 0.930 . S
C473 C472 1.377 . S
C473 C474 1.379 . S
C474 H458 0.931 . S
C474 C468 1.383 . S
C474 C473 1.379 . S
H475 C469 0.959 . S
H476 C469 0.961 . S
H477 C469 0.960 . S
H478 C470 0.930 . S
H479 C471 0.929 . S
H480 C488 0.929 . S
H481 C490 0.930 . S
H482 C492 0.930 . S
H483 C495 0.929 . S
H484 C498 0.930 . S
H485 C500 0.960 . S
H486 C500 0.960 . S
H487 C500 0.960 . S
C488 H480 0.929 . S
C488 C489 1.377 . S
C488 C490 1.384 . S
C489 C488 1.377 . S
C489 C495 1.390 1_554 S
C490 H481 0.930 . S
C490 C488 1.384 . S
C490 C491 1.372 1_554 S
C491 C490 1.372 1_556 S
C491 C492 1.400 . S
C491 C496 1.490 . S
C492 H482 0.930 . S
C492 C491 1.400 . S
C492 C495 1.386 . S
H493 C509 0.930 . S
H494 C510 0.931 . S
C495 H483 0.929 . S
C495 C489 1.390 1_556 S
C495 C492 1.386 . S
C496 C491 1.490 . S
C496 C498 1.395 . S
C496 C499 1.403 . S
H497 C503 0.930 . S
C498 H484 0.930 . S
C498 C496 1.395 . S
C498 C501 1.403 . S
C499 C496 1.403 . S
C499 C500 1.524 . S
C499 C503 1.400 . S
C500 H485 0.960 . S
C500 H486 0.960 . S
C500 H487 0.960 . S
C500 C499 1.524 . S
C501 C498 1.403 . S
C501 C502 1.392 . S
C501 C505 1.495 . S
C502 C501 1.392 . S
C502 C503 1.385 . S
C502 C504 1.478 . S
C503 H497 0.930 . S
C503 C499 1.400 . S
C503 C502 1.385 . S
C504 C502 1.478 . S
C504 C506 1.381 . S
C504 C510 1.383 . S
C505 C501 1.495 . S
C505 H511 0.959 . S
C505 H512 0.961 . S
C505 H513 0.960 . S
C506 C504 1.381 . S
C506 C507 1.394 . S
C506 H514 0.930 . S
C507 C506 1.394 . S
C507 C508 1.383 . S
C507 H515 0.929 . S
C508 C507 1.383 . S
C508 C509 1.377 . S
C509 H493 0.930 . S
C509 C508 1.377 . S
C509 C510 1.379 . S
C510 H494 0.931 . S
C510 C504 1.383 . S
C510 C509 1.379 . S
H511 C505 0.959 . S
H512 C505 0.961 . S
H513 C505 0.960 . S
H514 C506 0.930 . S
H515 C507 0.929 . S
H516 C524 0.929 . S
H517 C526 0.930 . S
H518 C528 0.930 . S
H519 C531 0.929 . S
H520 C534 0.930 . S
H521 C536 0.960 . S
H522 C536 0.960 . S
H523 C536 0.960 . S
C524 H516 0.929 . S
C524 C525 1.377 1_455 S
C524 C526 1.384 . S
C525 C524 1.377 1_655 S
C525 C531 1.390 . S
C526 H517 0.930 . S
C526 C524 1.384 . S
C526 C527 1.372 1_455 S
C527 C526 1.372 1_655 S
C527 C528 1.400 . S
C527 C532 1.490 1_655 S
C528 H518 0.930 . S
C528 C527 1.400 . S
C528 C531 1.386 . S
H529 C545 0.930 . S
H530 C546 0.931 . S
C531 H519 0.929 . S
C531 C525 1.390 . S
C531 C528 1.386 . S
C532 C527 1.490 1_455 S
C532 C534 1.395 . S
C532 C535 1.403 1_455 S
H533 C539 0.930 . S
C534 H520 0.930 . S
C534 C532 1.395 . S
C534 C537 1.403 . S
C535 C532 1.403 1_655 S
C535 C536 1.524 . S
C535 C539 1.400 . S
C536 H521 0.960 . S
C536 H522 0.960 . S
C536 H523 0.960 . S
C536 C535 1.524 . S
C537 C534 1.403 . S
C537 C538 1.392 . S
C537 C541 1.495 . S
C538 C537 1.392 . S
C538 C539 1.385 1_455 S
C538 C540 1.478 . S
C539 H533 0.930 . S
C539 C535 1.400 . S
C539 C538 1.385 1_655 S
C540 C538 1.478 . S
C540 C542 1.381 . S
C540 C546 1.383 1_455 S
C541 C537 1.495 . S
C541 H547 0.959 . S
C541 H548 0.961 . S
C541 H549 0.960 . S
C542 C540 1.381 . S
C542 C543 1.394 . S
C542 H550 0.930 . S
C543 C542 1.394 . S
C543 C544 1.383 . S
C543 H551 0.929 . S
C544 C543 1.383 . S
C544 C545 1.377 1_455 S
C545 H529 0.930 . S
C545 C544 1.377 1_655 S
C545 C546 1.379 . S
C546 H530 0.931 . S
C546 C540 1.383 1_655 S
C546 C545 1.379 . S
H547 C541 0.959 . S
H548 C541 0.961 . S
H549 C541 0.960 . S
H550 C542 0.930 . S
H551 C543 0.929 . S
H552 C560 0.929 . S
H553 C562 0.930 . S
H554 C564 0.930 . S
H555 C567 0.929 . S
H556 C570 0.930 . S
H557 C572 0.960 . S
H558 C572 0.960 1_565 S
H559 C572 0.960 . S
C560 H552 0.929 . S
C560 C561 1.377 . S
C560 C562 1.384 . S
C561 C560 1.377 . S
C561 C567 1.390 1_565 S
C562 H553 0.930 . S
C562 C560 1.384 . S
C562 C563 1.372 1_565 S
C563 C562 1.372 1_545 S
C563 C564 1.400 . S
C563 C568 1.490 . S
C564 H554 0.930 . S
C564 C563 1.400 . S
C564 C567 1.386 . S
H565 C581 0.930 . S
H566 C582 0.931 . S
C567 H555 0.929 . S
C567 C561 1.390 1_545 S
C567 C564 1.386 . S
C568 C563 1.490 . S
C568 C570 1.395 . S
C568 C571 1.403 . S
H569 C575 0.930 . S
C570 H556 0.930 . S
C570 C568 1.395 . S
C570 C573 1.403 . S
C571 C568 1.403 . S
C571 C572 1.524 . S
C571 C575 1.400 . S
C572 H557 0.960 . S
C572 H558 0.960 1_545 S
C572 H559 0.960 . S
C572 C571 1.524 . S
C573 C570 1.403 . S
C573 C574 1.392 . S
C573 C577 1.495 . S
C574 C573 1.392 . S
C574 C575 1.385 . S
C574 C576 1.478 . S
C575 H569 0.930 . S
C575 C571 1.400 . S
C575 C574 1.385 . S
C576 C574 1.478 . S
C576 C578 1.381 1_545 S
C576 C582 1.383 . S
C577 C573 1.495 . S
C577 H583 0.959 . S
C577 H584 0.961 . S
C577 H585 0.964 . S
C578 C576 1.381 1_565 S
C578 C579 1.394 1_565 S
C578 H586 0.930 . S
C579 C578 1.394 1_545 S
C579 C580 1.383 . S
C579 H587 0.929 1_545 S
C580 C579 1.383 . S
C580 C581 1.377 . S
C581 H565 0.930 . S
C581 C580 1.377 . S
C581 C582 1.379 . S
C582 H566 0.931 . S
C582 C576 1.383 . S
C582 C581 1.379 . S
H583 C577 0.959 . S
H584 C577 0.961 . S
H585 C577 0.964 . S
H586 C578 0.930 . S
H587 C579 0.929 1_565 S
H588 C596 0.929 . S
H589 C598 0.930 . S
H590 C600 0.930 . S
H591 C603 0.929 . S
H592 C606 0.930 . S
H593 C608 0.960 . S
H594 C608 0.960 . S
H595 C608 0.960 . S
C596 H588 0.929 . S
C596 C597 1.377 . S
C596 C598 1.384 1_554 S
C597 C596 1.377 . S
C597 C603 1.390 1_554 S
C598 H589 0.930 . S
C598 C596 1.384 1_556 S
C598 C599 1.372 . S
C599 C598 1.372 . S
C599 C600 1.400 . S
C599 C604 1.490 . S
C600 H590 0.930 . S
C600 C599 1.400 . S
C600 C603 1.386 . S
H601 C617 0.930 . S
H602 C618 0.931 . S
C603 H591 0.929 . S
C603 C597 1.390 1_556 S
C603 C600 1.386 . S
C604 C599 1.490 . S
C604 C606 1.395 . S
C604 C607 1.403 . S
H605 C611 0.930 . S
C606 H592 0.930 . S
C606 C604 1.395 . S
C606 C609 1.403 . S
C607 C604 1.403 . S
C607 C608 1.524 . S
C607 C611 1.400 . S
C608 H593 0.960 . S
C608 H594 0.960 . S
C608 H595 0.960 . S
C608 C607 1.524 . S
C609 C606 1.403 . S
C609 C610 1.392 . S
C609 C613 1.495 . S
C610 C609 1.392 . S
C610 C611 1.385 . S
C610 C612 1.478 . S
C611 H605 0.930 . S
C611 C607 1.400 . S
C611 C610 1.385 . S
C612 C610 1.478 . S
C612 C614 1.381 . S
C612 C618 1.383 . S
C613 C609 1.495 . S
C613 H619 0.959 . S
C613 H620 0.961 . S
C613 H621 0.960 . S
C614 C612 1.381 . S
C614 C615 1.394 . S
C614 H622 0.930 . S
C615 C614 1.394 . S
C615 C616 1.383 . S
C615 H623 0.929 . S
C616 C615 1.383 . S
C616 C617 1.377 . S
C617 H601 0.930 . S
C617 C616 1.377 . S
C617 C618 1.379 . S
C618 H602 0.931 . S
C618 C612 1.383 . S
C618 C617 1.379 . S
H619 C613 0.959 . S
H620 C613 0.961 . S
H621 C613 0.960 . S
H622 C614 0.930 . S
H623 C615 0.929 . S
H624 C632 0.929 . S
H625 C634 0.930 . S
H626 C636 0.930 . S
H627 C639 0.929 . S
H628 C642 0.930 . S
H629 C644 0.960 . S
H630 C644 0.960 . S
H631 C644 0.960 . S
C632 H624 0.929 . S
C632 C633 1.377 . S
C632 C634 1.384 . S
C633 C632 1.377 . S
C633 C639 1.390 . S
C634 H625 0.930 . S
C634 C632 1.384 . S
C634 C635 1.372 . S
C635 C634 1.372 . S
C635 C636 1.400 . S
C635 C640 1.490 . S
C636 H626 0.930 . S
C636 C635 1.400 . S
C636 C639 1.386 . S
H637 C653 0.930 . S
H638 C654 0.931 . S
C639 H627 0.929 . S
C639 C633 1.390 . S
C639 C636 1.386 . S
C640 C635 1.490 . S
C640 C642 1.395 . S
C640 C643 1.403 1_455 S
H641 C647 0.925 1_655 S
C642 H628 0.930 . S
C642 C640 1.395 . S
C642 C645 1.403 . S
C643 C640 1.403 1_655 S
C643 C644 1.524 . S
C643 C647 1.403 1_655 S
C644 H629 0.960 . S
C644 H630 0.960 . S
C644 H631 0.960 . S
C644 C643 1.524 . S
C645 C642 1.403 . S
C645 C646 1.392 . S
C645 C649 1.495 . S
C646 C645 1.392 . S
C646 C647 1.388 . S
C646 C648 1.478 . S
C647 H641 0.925 1_455 S
C647 C643 1.403 1_455 S
C647 C646 1.388 . S
C648 C646 1.478 . S
C648 C650 1.381 . S
C648 C654 1.383 . S
C649 C645 1.495 . S
C649 H655 0.959 . S
C649 H656 0.961 . S
C649 H657 0.960 . S
C650 C648 1.381 . S
C650 C651 1.394 . S
C650 H658 0.930 . S
C651 C650 1.394 . S
C651 C652 1.383 . S
C651 H659 0.929 . S
C652 C651 1.383 . S
C652 C653 1.377 . S
C653 H637 0.930 . S
C653 C652 1.377 . S
C653 C654 1.379 . S
C654 H638 0.931 . S
C654 C648 1.383 . S
C654 C653 1.379 . S
H655 C649 0.959 . S
H656 C649 0.961 . S
H657 C649 0.960 . S
H658 C650 0.930 . S
H659 C651 0.929 . S
C256 C95 1.154 . S
C237 C11 1.172 . S
C273 C26 1.396 . S
C292 C139 1.376 . S
C309 C40 1.266 . S
C328 C201 1.271 . S
C345 C5 1.076 . S
C364 C77 1.187 . S
C400 C157 1.370 . S
C381 C18 1.369 . S
C417 C32 1.229 . S
C436 C219 1.249 . S
C472 C133 1.347 . S
C453 C39 1.400 . S
C489 C4 1.594 . S
C508 C195 1.523 . S
C544 C71 1.496 . S
C525 C19 1.415 . S
C580 C151 1.341 . S
C561 C33 1.304 . S
C616 C213 1.561 . S
C597 C12 1.611 . S
C633 C25 1.533 . S
C652 C89 1.490 . S
