# Generated by pormake.
# Topology pyr, (3,6)-cn, num edge types: 1
# Building blocks:
#     Node 0, Type 0, BuildingBlock: PAMTOO_clean_linker_0, # of connection points: 3
#     Node 1, Type 0, BuildingBlock: PAMTOO_clean_linker_0, # of connection points: 3
#     Node 2, Type 0, BuildingBlock: PAMTOO_clean_linker_0, # of connection points: 3
#     Node 3, Type 0, BuildingBlock: PAMTOO_clean_linker_0, # of connection points: 3
#     Node 4, Type 0, BuildingBlock: PAMTOO_clean_linker_0, # of connection points: 3
#     Node 5, Type 0, BuildingBlock: PAMTOO_clean_linker_0, # of connection points: 3
#     Node 6, Type 0, BuildingBlock: PAMTOO_clean_linker_0, # of connection points: 3
#     Node 7, Type 0, BuildingBlock: PAMTOO_clean_linker_0, # of connection points: 3
#     Node 8, Type 1, BuildingBlock: BETFAJ_clean_sbu_0, # of connection points: 6
#     Node 9, Type 1, BuildingBlock: BETFAJ_clean_sbu_0, # of connection points: 6
#     Node 10, Type 1, BuildingBlock: BETFAJ_clean_sbu_0, # of connection points: 6
#     Node 11, Type 1, BuildingBlock: BETFAJ_clean_sbu_0, # of connection points: 6
#     Edge 12, Type (0, 1), BuildingBlock: XUDNAN_clean_linker_2, # of connection points: 2
#     Edge 13, Type (0, 1), BuildingBlock: XUDNAN_clean_linker_2, # of connection points: 2
#     Edge 14, Type (0, 1), BuildingBlock: XUDNAN_clean_linker_2, # of connection points: 2
#     Edge 15, Type (0, 1), BuildingBlock: XUDNAN_clean_linker_2, # of connection points: 2
#     Edge 16, Type (0, 1), BuildingBlock: XUDNAN_clean_linker_2, # of connection points: 2
#     Edge 17, Type (0, 1), BuildingBlock: XUDNAN_clean_linker_2, # of connection points: 2
#     Edge 18, Type (0, 1), BuildingBlock: XUDNAN_clean_linker_2, # of connection points: 2
#     Edge 19, Type (0, 1), BuildingBlock: XUDNAN_clean_linker_2, # of connection points: 2
#     Edge 20, Type (0, 1), BuildingBlock: XUDNAN_clean_linker_2, # of connection points: 2
#     Edge 21, Type (0, 1), BuildingBlock: XUDNAN_clean_linker_2, # of connection points: 2
#     Edge 22, Type (0, 1), BuildingBlock: XUDNAN_clean_linker_2, # of connection points: 2
#     Edge 23, Type (0, 1), BuildingBlock: XUDNAN_clean_linker_2, # of connection points: 2
#     Edge 24, Type (0, 1), BuildingBlock: XUDNAN_clean_linker_2, # of connection points: 2
#     Edge 25, Type (0, 1), BuildingBlock: XUDNAN_clean_linker_2, # of connection points: 2
#     Edge 26, Type (0, 1), BuildingBlock: XUDNAN_clean_linker_2, # of connection points: 2
#     Edge 27, Type (0, 1), BuildingBlock: XUDNAN_clean_linker_2, # of connection points: 2
#     Edge 28, Type (0, 1), BuildingBlock: XUDNAN_clean_linker_2, # of connection points: 2
#     Edge 29, Type (0, 1), BuildingBlock: XUDNAN_clean_linker_2, # of connection points: 2
#     Edge 30, Type (0, 1), BuildingBlock: XUDNAN_clean_linker_2, # of connection points: 2
#     Edge 31, Type (0, 1), BuildingBlock: XUDNAN_clean_linker_2, # of connection points: 2
#     Edge 32, Type (0, 1), BuildingBlock: XUDNAN_clean_linker_2, # of connection points: 2
#     Edge 33, Type (0, 1), BuildingBlock: XUDNAN_clean_linker_2, # of connection points: 2
#     Edge 34, Type (0, 1), BuildingBlock: XUDNAN_clean_linker_2, # of connection points: 2
#     Edge 35, Type (0, 1), BuildingBlock: XUDNAN_clean_linker_2, # of connection points: 2
# Relax obj value: 0.178
# Max RMSD: 0.226
# Mean RMSD: 0.149
data_MOF--net-pyr--node1-BETFAJ_clean_sbu_0--node2-PAMTOO_clean_linker_0--edge1-XUDNAN_clean_linker_2
_symmetry_space_group_name_H-M    P1
_symmetry_Int_Tables_number       1
_symmetry_cell_setting            triclinic
loop_
_symmetry_equiv_pos_as_xyz
'x, y, z'
_cell_length_a     37.273074
_cell_length_b     40.789528
_cell_length_c     36.20814
_cell_angle_alpha  91.712814
_cell_angle_beta   89.778068
_cell_angle_gamma 106.10612
loop_
_atom_site_label
_atom_site_type_symbol
_atom_site_fract_x
_atom_site_fract_y
_atom_site_fract_z
_atom_type_partial_charge
H0 H 0.33675 0.32109 0.26743 0.0
H1 H 0.42974 0.27833 0.25567 0.0
H2 H 0.42864 0.36782 0.19678 0.0
H3 H 0.4934 0.32542 0.16068 0.0
C4 C 0.46868 0.30923 0.175 0.0
O5 O 0.46609 0.32388 0.20945 0.0
H6 H 0.44386 0.30871 0.15767 0.0
C7 C 0.3639 0.32199 0.25592 0.0
C8 C 0.38038 0.34751 0.23105 0.0
C9 C 0.38136 0.29693 0.26517 0.0
C10 C 0.41596 0.29764 0.24927 0.0
C11 C 0.43301 0.32345 0.22502 0.0
C12 C 0.41551 0.34854 0.21628 0.0
H13 H 0.31241 0.92973 0.68051 0.0
H14 H 0.27985 0.89348 0.56976 0.0
H15 H 0.34432 0.84335 0.63399 0.0
H16 H 0.35888 0.88264 0.54662 0.0
C17 C 0.34063 0.85621 0.5413 0.0
O18 O 0.31443 0.84616 0.56882 0.0
H19 H 0.32585 0.85649 0.51476 0.0
C20 C 0.31213 0.91157 0.65795 0.0
C21 C 0.32997 0.88567 0.66189 0.0
C22 C 0.29373 0.91427 0.62508 0.0
C23 C 0.29361 0.89134 0.59554 0.0
C24 C 0.31268 0.86649 0.59847 0.0
C25 C 0.33049 0.86331 0.6317 0.0
H26 H 0.73566 0.33903 0.9472 0.0
H27 H 0.65959 0.34123 0.85875 0.0
H28 H 0.76286 0.42034 0.8694 0.0
H29 H 0.69615 0.44435 0.84776 0.0
C30 C 0.68102 0.42186 0.83034 0.0
O31 O 0.70114 0.39776 0.83014 0.0
H32 H 0.65314 0.41072 0.84279 0.0
C33 C 0.72896 0.35085 0.92275 0.0
C34 C 0.75419 0.38129 0.91052 0.0
C35 C 0.69476 0.33577 0.90455 0.0
C36 C 0.68539 0.35242 0.87373 0.0
C37 C 0.70957 0.3832 0.86134 0.0
C38 C 0.74386 0.39737 0.87982 0.0
H39 H 0.88326 0.75889 0.4391 0.0
H40 H 0.88078 0.67744 0.35933 0.0
H41 H 0.96882 0.77052 0.35586 0.0
H42 H 0.94981 0.66623 0.33984 0.0
C43 C 0.96281 0.68871 0.32285 0.0
O44 O 0.93974 0.71029 0.32297 0.0
H45 H 0.99002 0.70236 0.33588 0.0
C46 C 0.89593 0.74835 0.41637 0.0
C47 C 0.92873 0.7689 0.40002 0.0
C48 C 0.87782 0.71534 0.4018 0.0
C49 C 0.89392 0.70265 0.37104 0.0
C50 C 0.92672 0.72223 0.35455 0.0
C51 C 0.94394 0.75526 0.36914 0.0
H52 H 0.73114 0.86376 0.88388 0.0
H53 H 0.72095 0.85068 1.00116 0.0
H54 H 0.8067 0.82015 0.94253 0.0
H55 H 0.74666 0.77336 1.00195 0.0
C56 C 0.76899 0.79113 1.01905 0.0
O57 O 0.77667 0.82409 1.00683 0.0
H58 H 0.75849 0.79061 0.04782 0.0
C59 C 0.74 0.85438 0.90898 0.0
C60 C 0.77084 0.84075 0.90846 0.0
C61 C 0.72237 0.85864 0.94234 0.0
C62 C 0.73387 0.84695 0.97508 0.0
C63 C 0.7636 0.83233 0.97472 0.0
C64 C 0.78225 0.82955 0.94167 0.0
H65 H 0.7562 0.09329 0.49052 0.0
H66 H 0.67988 0.15532 0.5001 0.0
H67 H 0.77359 0.17401 0.57339 0.0
H68 H 0.70938 0.1931 0.60788 0.0
C69 C 0.6955 0.1975 0.58209 0.0
O70 O 0.71763 0.19536 0.55213 0.0
H71 H 0.668 0.17793 0.57935 0.0
C72 C 0.74627 0.11252 0.5054 0.0
C73 C 0.76786 0.13156 0.53447 0.0
C74 C 0.71458 0.12101 0.49251 0.0
C75 C 0.70351 0.14763 0.51037 0.0
C76 C 0.72461 0.16634 0.53966 0.0
C77 C 0.75655 0.15826 0.5518 0.0
H78 H 0.38477 0.77102 0.16307 0.0
H79 H 0.37499 0.68816 0.23709 0.0
H80 H 0.46683 0.77939 0.24837 0.0
H81 H 0.48774 0.71471 0.26524 0.0
C82 C 0.46051 0.6993 0.27604 0.0
O83 O 0.43522 0.71879 0.27614 0.0
H84 H 0.44988 0.67659 0.25727 0.0
C85 C 0.39551 0.75971 0.18576 0.0
C86 C 0.42816 0.77906 0.2038 0.0
C87 C 0.37545 0.7271 0.19752 0.0
C88 C 0.39029 0.71279 0.22689 0.0
C89 C 0.42369 0.73126 0.24501 0.0
C90 C 0.4424 0.76446 0.23332 0.0
H91 H 0.14795 0.34513 0.79015 0.0
H92 H 0.23367 0.44071 0.7801 0.0
H93 H 0.22799 0.35871 0.7018 0.0
H94 H 0.30268 0.397 0.72624 0.0
C95 C 0.29968 0.42337 0.72589 0.0
O96 O 0.26259 0.42215 0.71973 0.0
H97 H 0.30846 0.43605 0.7533 0.0
C98 C 0.17221 0.3609 0.77645 0.0
C99 C 0.18606 0.34721 0.74472 0.0
C100 C 0.18871 0.39486 0.78993 0.0
C101 C 0.21975 0.41493 0.77056 0.0
C102 C 0.23366 0.40194 0.73883 0.0
C103 C 0.21665 0.36839 0.72603 0.0
Sm104 Sm 0.07464 0.07812 0.53874 0.0
Sm105 Sm 0.04927 1.03653 0.60586 0.0
C106 C 0.0871 0.10735 0.47382 0.0
C107 C 0.12055 0.12507 0.45319 0.0
C108 C 0.12234 0.11786 0.41526 0.0
C109 C 0.15514 0.13168 0.39569 0.0
C110 C 0.18667 0.15312 0.41373 0.0
C111 C 0.18462 0.16081 0.45166 0.0
C112 C 0.15189 0.14668 0.47132 0.0
C113 C 0.12971 0.05622 0.57159 0.0
C114 C 0.09248 0.11949 0.6165 0.0
C115 C 0.04007 1.00371 0.66866 0.0
C116 C 1.01141 0.97522 0.68417 0.0
C117 C 0.02094 0.95609 0.71212 0.0
C118 C 0.99322 0.93089 0.72929 0.0
C119 C 0.95559 0.92473 0.71886 0.0
C120 C 0.9464 0.94294 0.6897 0.0
C121 C 0.97413 0.96787 0.67234 0.0
C122 C 0.99419 0.05936 0.57364 0.0
C123 C 0.02715 0.99594 0.52837 0.0
O124 O 0.0789 0.12281 0.50352 0.0
O125 O 0.08311 0.07492 0.47827 0.0
O126 O 0.09649 1.03891 0.56661 0.0
O127 O 0.13585 0.08578 0.55686 0.0
O128 O 0.08546 0.12298 0.58132 0.0
O129 O 0.08653 0.08861 0.63023 0.0
O130 O 0.05938 0.99614 0.64109 0.0
O131 O 0.03017 1.03163 0.66385 0.0
O132 O 0.02768 0.07621 0.57817 0.0
O133 O 0.98797 1.02957 0.58813 0.0
O134 O 0.03404 0.99186 0.56335 0.0
O135 O 0.03446 1.02704 0.51492 0.0
H136 H 0.09854 0.10098 0.4009 0.0
H137 H 0.15579 0.1257 0.36638 0.0
H138 H 0.20861 0.1771 0.46626 0.0
H139 H 0.15134 0.15213 0.50075 0.0
H140 H 0.04963 0.96137 0.72141 0.0
H141 H 1.00098 0.91743 0.75192 0.0
H142 H 0.91762 0.93847 0.68098 0.0
H143 H 0.96632 0.98212 0.65045 0.0
Sm144 Sm 0.58779 0.06766 0.07265 0.0
Sm145 Sm 0.51887 0.05071 1.037 0.0
C146 C 0.64894 0.09208 0.11292 0.0
C147 C 0.6551 0.08803 0.15226 0.0
C148 C 0.6838 0.11161 0.17167 0.0
C149 C 0.68774 0.10876 0.20974 0.0
C150 C 0.66302 0.08221 0.22878 0.0
C151 C 0.63462 0.05839 0.20903 0.0
C152 C 0.63057 0.06139 0.17113 0.0
C153 C 0.5426 1.00453 0.09473 0.0
C154 C 0.52179 0.09747 0.10854 0.0
C155 C 0.45746 1.01836 0.99998 0.0
C156 C 0.44939 0.99402 0.9683 0.0
C157 C 0.41549 0.96834 0.96657 0.0
C158 C 0.40693 0.94596 0.93585 0.0
C159 C 0.43207 0.94906 0.90615 0.0
C160 C 0.46668 0.9741 0.90876 0.0
C161 C 0.47532 0.99624 0.93962 0.0
C162 C 0.55951 0.11603 1.01848 0.0
C163 C 0.58719 1.02645 0.99974 0.0
O164 O 0.6258 0.10993 0.10572 0.0
O165 O 0.64284 0.06422 0.09242 0.0
O166 O 0.53248 1.03138 0.09151 0.0
O167 O 0.57725 1.01026 0.08564 0.0
O168 O 0.55791 0.10139 0.10558 0.0
O169 O 0.49799 0.07526 0.08712 0.0
O170 O 0.46763 1.0071 1.03045 0.0
O171 O 0.47724 0.04933 0.99304 0.0
O172 O 0.57343 0.09079 1.01976 0.0
O173 O 0.52455 0.10677 1.0275 0.0
O174 O 0.55125 1.01718 1.0067 0.0
O175 O 0.60869 0.0531 1.01739 0.0
H176 H 0.70277 0.13244 0.15752 0.0
H177 H 0.71005 0.12732 0.2243 0.0
H178 H 0.61488 1.038 0.22304 0.0
H179 H 0.60784 1.04322 0.15662 0.0
H180 H 0.3954 0.96593 0.98875 0.0
H181 H 0.38033 0.92657 0.93509 0.0
H182 H 0.48657 0.97759 0.88635 0.0
H183 H 0.50195 1.01561 0.94064 0.0
Sm184 Sm 0.57664 0.53675 0.52421 0.0
Sm185 Sm 0.58178 0.59257 0.57793 0.0
C186 C 0.59321 0.48859 0.48259 0.0
C187 C 0.61153 0.46221 0.49169 0.0
C188 C 0.63898 0.46876 0.51944 0.0
C189 C 0.65343 0.44283 0.53132 0.0
C190 C 0.64135 0.40979 0.51523 0.0
C191 C 0.61487 0.40366 0.48629 0.0
C192 C 0.59989 0.42962 0.47485 0.0
C193 C 0.5104 0.5297 0.56128 0.0
C194 C 0.6103 0.53148 0.60943 0.0
C195 C 0.567 0.64213 0.61843 0.0
C196 C 0.54119 0.66271 0.61122 0.0
C197 C 0.50556 0.64716 0.59636 0.0
C198 C 0.48297 0.66698 0.58476 0.0
C199 C 0.49567 0.70277 0.58736 0.0
C200 C 0.53089 0.7183 0.6033 0.0
C201 C 0.55348 0.69838 0.61512 0.0
C202 C 0.64622 0.60057 0.5365 0.0
C203 C 0.5443 0.59618 0.49483 0.0
O204 O 0.61433 0.52009 0.48496 0.0
O205 O 0.56022 0.485 0.49708 0.0
O206 O 0.54256 0.5388 0.57621 0.0
O207 O 0.5128 0.52387 0.52599 0.0
O208 O 0.60654 0.52043 0.57447 0.0
O209 O 0.60079 0.55919 0.61959 0.0
O210 O 0.55168 0.60979 0.62428 0.0
O211 O 0.59565 0.64718 0.59634 0.0
O212 O 0.61306 0.59075 0.52466 0.0
O213 O 0.64649 0.60689 0.57193 0.0
O214 O 0.54522 0.60497 0.53047 0.0
O215 O 0.5588 0.57161 0.48344 0.0
H216 H 0.64863 0.49377 0.53278 0.0
H217 H 0.67319 0.44861 0.55405 0.0
H218 H 0.60546 0.3788 0.4726 0.0
H219 H 0.57879 0.4241 0.4533 0.0
H220 H 0.49549 0.61967 0.59262 0.0
H221 H 0.45572 0.65421 0.57326 0.0
H222 H 0.54155 0.74584 0.60542 0.0
H223 H 0.58106 0.71085 0.62609 0.0
Sm224 Sm 0.07314 0.5237 0.07498 0.0
Sm225 Sm 0.0663 0.57254 1.02204 0.0
C226 C 0.09307 0.47912 0.11647 0.0
C227 C 0.12784 0.47463 0.1314 0.0
C228 C 0.16256 0.49156 0.11632 0.0
C229 C 0.19524 0.48525 0.12928 0.0
C230 C 0.19358 0.46187 0.15744 0.0
C231 C 0.1588 0.44607 0.17337 0.0
C232 C 0.12622 0.45237 0.16039 0.0
C233 C 0.03343 0.56699 0.10449 0.0
C234 C 0.14033 0.59394 0.07286 0.0
C235 C 0.04613 0.61725 0.98082 0.0
C236 C 0.02012 0.63847 0.98491 0.0
C237 C 0.98443 0.62534 1.00011 0.0
C238 C 0.96047 0.6461 1.00469 0.0
C239 C 0.97194 0.68043 0.99459 0.0
C240 C 1.00765 0.69349 0.97941 0.0
C241 C 0.03147 0.67262 0.97449 0.0
C242 C 0.10425 0.52798 0.99183 0.0
C243 C 0.9958 0.50476 1.03022 0.0
O244 O 0.08901 0.4756 0.08066 0.0
O245 O 0.08239 0.50479 0.13017 0.0
O246 O 0.06232 0.57599 0.08456 0.0
O247 O 0.02441 0.53423 0.10874 0.0
O248 O 0.13309 0.5608 0.07715 0.0
O249 O 0.1156 0.60609 0.05616 0.0
O250 O 0.07538 0.62546 1.00238 0.0
O251 O 0.03131 0.58432 0.97768 0.0
O252 O 0.07581 0.51995 1.01235 0.0
O253 O 0.11307 0.56042 0.98621 0.0
O254 O 1.00504 0.53789 1.0246 0.0
O255 O 0.0198 0.49136 0.04632 0.0
H256 H 0.1643 0.50896 0.09394 0.0
H257 H 0.22153 0.49767 0.1163 0.0
H258 H 0.1567 0.42843 0.19558 0.0
H259 H 0.09965 0.43936 0.17253 0.0
H260 H 0.97514 0.59915 1.00878 0.0
H261 H 0.93328 0.6355 1.01687 0.0
H262 H 1.01707 0.71979 0.97114 0.0
H263 H 0.05891 0.68322 0.96281 0.0
H264 H 0.34575 0.30324 0.32987 0.0
H265 H 0.37127 0.22816 0.25463 0.0
H266 H 0.32906 0.18189 0.28961 0.0
H267 H 0.33331 0.25134 0.4149 0.0
H268 H 0.29528 0.26745 0.43052 0.0
H269 H 0.33246 0.29389 0.4037 0.0
H270 H 0.28385 0.30213 0.35644 0.0
H271 H 0.24663 0.2755 0.38279 0.0
H272 H 0.25196 0.26513 0.3347 0.0
H273 H 0.27677 0.14486 0.32649 0.0
H274 H 0.22127 0.11973 0.36457 0.0
H275 H 0.22975 0.21934 0.41509 0.0
C276 C 0.34314 0.27701 0.32132 0.0
C277 C 0.36177 0.2692 0.28965 0.0
C278 C 0.35764 0.23463 0.27916 0.0
C279 C 0.33362 0.20823 0.29876 0.0
C280 C 0.3144 0.21691 0.32897 0.0
C281 C 0.31934 0.25049 0.34051 0.0
C282 C 0.29304 0.25336 0.3716 0.0
C283 C 0.31483 0.26733 0.4073 0.0
C284 C 0.26736 0.27531 0.36071 0.0
C285 C 0.27145 0.21627 0.37485 0.0
C286 C 0.2844 0.19557 0.35031 0.0
C287 C 0.26686 0.16073 0.34627 0.0
C288 C 0.23522 0.14674 0.36776 0.0
C289 C 0.22144 0.16761 0.39287 0.0
C290 C 0.24017 0.20269 0.39669 0.0
H291 H 0.30294 0.89154 0.73099 0.0
H292 H 0.39881 0.87503 0.67316 0.0
H293 H 0.43266 0.88005 0.73267 0.0
H294 H 0.35227 0.95682 0.78655 0.0
H295 H 0.32293 0.94617 0.82661 0.0
H296 H 0.30372 0.93353 0.78131 0.0
H297 H 0.28176 0.87041 0.80073 0.0
H298 H 0.30092 0.88293 0.8463 0.0
H299 H 0.31509 0.85069 0.81959 0.0
H300 H 0.45914 0.89606 0.79709 0.0
H301 H 0.47593 0.92187 0.85948 0.0
H302 H 0.3634 0.93125 0.87296 0.0
C303 C 0.33079 0.88827 0.7309 0.0
C304 C 0.3483 0.88296 0.69751 0.0
C305 C 0.3847 0.87867 0.69851 0.0
C306 C 0.40414 0.88156 0.73218 0.0
C307 C 0.38658 0.8884 0.76448 0.0
C308 C 0.35054 0.89141 0.76403 0.0
C309 C 0.33938 0.90297 0.80131 0.0
C310 C 0.329 0.93688 0.79877 0.0
C311 C 0.30739 0.87508 0.81796 0.0
C312 C 0.37532 0.90754 0.82252 0.0
C313 C 0.402 0.89832 0.80119 0.0
C314 C 0.43827 0.90288 0.81418 0.0
C315 C 0.44763 0.91785 0.84954 0.0
C316 C 0.42098 0.92859 0.87127 0.0
C317 C 0.3842 0.92256 0.85765 0.0
H318 H 0.66612 0.48183 0.81179 0.0
H319 H 0.67914 0.388 0.76174 0.0
H320 H 0.66459 0.40659 0.70042 0.0
H321 H 0.58827 0.48585 0.75624 0.0
H322 H 0.60259 0.53168 0.75322 0.0
H323 H 0.61593 0.51184 0.79271 0.0
H324 H 0.68548 0.54268 0.78085 0.0
H325 H 0.67233 0.56268 0.74136 0.0
H326 H 0.70539 0.53794 0.73623 0.0
H327 H 0.64666 0.4352 0.64412 0.0
H328 H 0.62623 0.47012 0.59867 0.0
H329 H 0.62421 0.5458 0.68479 0.0
C330 C 0.66656 0.46546 0.78779 0.0
C331 C 0.675 0.43382 0.79167 0.0
C332 C 0.67389 0.41268 0.75964 0.0
C333 C 0.66545 0.42304 0.72461 0.0
C334 C 0.65761 0.45449 0.7218 0.0
C335 C 0.65802 0.47538 0.75263 0.0
C336 C 0.64729 0.5074 0.74236 0.0
C337 C 0.61139 0.50929 0.76232 0.0
C338 C 0.67955 0.53958 0.7507 0.0
C339 C 0.64071 0.50136 0.70093 0.0
C340 C 0.6469 0.4707 0.68965 0.0
C341 C 0.64204 0.45932 0.6528 0.0
C342 C 0.63054 0.47956 0.62697 0.0
C343 C 0.62394 0.51117 0.6376 0.0
C344 C 0.62922 0.52203 0.67536 0.0
H345 H 0.95011 0.62239 0.29429 0.0
H346 H 0.9948 0.72779 0.26404 0.0
H347 H 1.01458 0.70853 0.20354 0.0
H348 H 0.02203 0.59193 0.25535 0.0
H349 H 0.99205 0.55125 0.23956 0.0
H350 H 0.97876 0.57327 0.27883 0.0
H351 H 0.91611 0.57107 0.24682 0.0
H352 H 0.92914 0.54886 0.20747 0.0
H353 H 0.91647 0.5879 0.20129 0.0
H354 H 0.03407 0.67701 0.14762 0.0
H355 H 0.04962 0.63678 0.10174 0.0
H356 H 0.99114 0.55176 0.16795 0.0
C357 C 0.96328 0.64144 0.27459 0.0
C358 C 0.97027 0.67676 0.28378 0.0
C359 C 0.9885 0.70071 0.25745 0.0
C360 C 0.99998 0.68993 0.22305 0.0
C361 C 0.99307 0.65495 0.21507 0.0
C362 C 0.97483 0.63106 0.24007 0.0
C363 C 0.97204 0.59503 0.22551 0.0
C364 C 0.99244 0.57681 0.25135 0.0
C365 C 0.931 0.57451 0.21994 0.0
C366 C 0.99202 0.60225 0.18867 0.0
C367 C 1.00393 0.63698 0.18307 0.0
C368 C 0.02445 0.6498 0.1517 0.0
C369 C 0.0332 0.62671 0.1257 0.0
C370 C 0.02143 0.591 0.13086 0.0
C371 C 1.00019 0.57881 0.16275 0.0
H372 H 0.43546 0.25172 0.13307 0.0
H373 H 0.51512 0.28854 0.22207 0.0
H374 H 0.52915 0.23274 0.22195 0.0
H375 H 0.40314 0.15995 0.16107 0.0
H376 H 0.4002 0.14468 0.11364 0.0
H377 H 0.39141 0.18504 0.12528 0.0
H378 H 0.44223 0.2151 0.07887 0.0
H379 H 0.45104 0.17496 0.06708 0.0
H380 H 0.4888 0.21057 0.08309 0.0
H381 H 0.54189 0.17748 0.20548 0.0
H382 H 0.55337 0.12723 0.17313 0.0
H383 H 0.46443 0.12506 0.09556 0.0
C384 C 0.4549 0.24753 0.15333 0.0
C385 C 0.47355 0.27399 0.17824 0.0
C386 C 0.49993 0.26822 0.20341 0.0
C387 C 0.50798 0.23663 0.20356 0.0
C388 C 0.48938 0.2111 0.17836 0.0
C389 C 0.46324 0.21614 0.15379 0.0
C390 C 0.45043 0.1861 0.12672 0.0
C391 C 0.40882 0.16786 0.13201 0.0
C392 C 0.45864 0.19737 0.0866 0.0
C393 C 0.47472 0.1641 0.13877 0.0
C394 C 0.49656 0.17874 0.169 0.0
C395 C 0.52428 0.16528 0.18247 0.0
C396 C 0.53062 0.13678 0.16393 0.0
C397 C 0.50926 0.12199 0.13239 0.0
C398 C 0.48021 0.13517 0.12042 0.0
H399 H 0.22079 0.9061 0.60803 0.0
H400 H 0.32448 0.98287 0.63424 0.0
H401 H 0.29311 1.02843 0.62615 0.0
H402 H 0.18902 0.95034 0.53868 0.0
H403 H 0.14062 0.93639 0.55194 0.0
H404 H 0.17109 0.9102 0.56106 0.0
H405 H 0.15393 0.91015 0.63055 0.0
H406 H 0.12341 0.93642 0.62162 0.0
H407 H 0.16011 0.95021 0.65562 0.0
H408 H 0.25133 0.06525 0.61028 0.0
H409 H 0.20118 0.09056 0.59144 0.0
H410 H 0.12442 0.98915 0.57977 0.0
C411 C 0.23672 0.93254 0.61216 0.0
C412 C 0.2749 0.94129 0.6215 0.0
C413 C 0.29508 0.97596 0.62711 0.0
C414 C 0.27755 1.00186 0.62257 0.0
C415 C 0.23979 0.99243 0.6131 0.0
C416 C 0.21952 0.95858 0.60842 0.0
C417 C 0.17937 0.95518 0.59818 0.0
C418 C 0.16947 0.93696 0.56021 0.0
C419 C 0.15264 0.93691 0.6283 0.0
C420 C 0.18043 0.99241 0.59688 0.0
C421 C 0.21548 1.01356 0.6055 0.0
C422 C 0.22363 0.04898 0.60399 0.0
C423 C 0.19513 0.0631 0.59321 0.0
C424 C 0.15913 1.04173 0.58447 0.0
C425 C 0.15166 1.00605 0.58678 0.0
H426 H 0.79617 0.4492 0.92408 0.0
H427 H 0.79844 0.34444 0.93898 0.0
H428 H 0.85764 0.36504 0.97285 0.0
H429 H 0.8965 0.48218 0.90848 0.0
H430 H 0.90039 0.52243 0.93239 0.0
H431 H 0.85719 0.49983 0.9099 0.0
H432 H 0.82196 0.50097 0.97145 0.0
H433 H 0.86512 0.52335 0.99416 0.0
H434 H 0.83689 0.48376 1.01207 0.0
H435 H 0.91572 0.39585 1.00635 0.0
H436 H 0.97241 0.43536 1.03308 0.0
H437 H 0.93698 0.52144 0.99472 0.0
C438 C 0.80919 0.43055 0.93421 0.0
C439 C 0.79163 0.39494 0.92933 0.0
C440 C 0.81013 0.37171 0.94316 0.0
C441 C 0.84414 0.38318 0.96232 0.0
C442 C 0.86013 0.41815 0.96726 0.0
C443 C 0.84368 0.44163 0.95327 0.0
C444 C 0.86782 0.47788 0.96184 0.0
C445 C 0.88127 0.49669 0.92602 0.0
C446 C 0.84668 0.49765 0.98634 0.0
C447 C 0.9002 0.47093 0.98285 0.0
C448 C 0.89482 0.43621 0.98579 0.0
C449 C 0.92034 0.4231 1.00409 0.0
C450 C 0.95255 0.44591 1.01935 0.0
C451 C 0.95951 0.48171 1.0162 0.0
C452 C 0.93263 0.4943 0.99779 0.0
H453 H 0.853 0.7084 0.47495 0.0
H454 H 0.81757 0.67658 0.36219 0.0
H455 H 0.75687 0.64251 0.38493 0.0
H456 H 0.80616 0.62828 0.51742 0.0
H457 H 0.79253 0.64815 0.55822 0.0
H458 H 0.83411 0.66968 0.53361 0.0
H459 H 0.8089 0.7223 0.52689 0.0
H460 H 0.76734 0.70099 0.55162 0.0
H461 H 0.76359 0.71687 0.50629 0.0
H462 H 0.69925 0.61255 0.41893 0.0
H463 H 0.64782 0.58968 0.46222 0.0
H464 H 0.71829 0.64026 0.55392 0.0
C465 C 0.83248 0.69434 0.45501 0.0
C466 C 0.84074 0.69498 0.4166 0.0
C467 C 0.81276 0.67604 0.3917 0.0
C468 C 0.77789 0.65668 0.40435 0.0
C469 C 0.77086 0.65635 0.44216 0.0
C470 C 0.79722 0.67472 0.46722 0.0
C471 C 0.78189 0.67022 0.50641 0.0
C472 C 0.80506 0.65306 0.53032 0.0
C473 C 0.78033 0.70464 0.52382 0.0
C474 C 0.7428 0.64665 0.49932 0.0
C475 C 0.73723 0.63899 0.46198 0.0
C476 C 0.70336 0.61829 0.44824 0.0
C477 C 0.67425 0.60533 0.47313 0.0
C478 C 0.67889 0.61293 0.51155 0.0
C479 C 0.71389 0.6337 0.52478 0.0
H480 H 0.30688 0.33178 0.21191 0.0
H481 H 0.40661 0.41702 0.22267 0.0
H482 H 0.37009 0.45639 0.20431 0.0
H483 H 0.26794 0.36098 0.13314 0.0
H484 H 0.22058 0.34525 0.14913 0.0
H485 H 0.25513 0.32435 0.16207 0.0
H486 H 0.2404 0.33253 0.23124 0.0
H487 H 0.20591 0.35358 0.21853 0.0
H488 H 0.24338 0.37478 0.24962 0.0
H489 H 0.32114 0.48632 0.18609 0.0
H490 H 0.26496 0.50372 0.16876 0.0
H491 H 0.19876 0.39789 0.17061 0.0
C492 C 0.32108 0.35877 0.2107 0.0
C493 C 0.35948 0.37144 0.21904 0.0
C494 C 0.37719 0.40681 0.21625 0.0
C495 C 0.35666 0.42931 0.20602 0.0
C496 C 0.31861 0.41592 0.19855 0.0
C497 C 0.30113 0.3814 0.20065 0.0
C498 C 0.26004 0.37315 0.19154 0.0
C499 C 0.25038 0.34955 0.15691 0.0
C500 C 0.23603 0.3576 0.22471 0.0
C501 C 0.25688 0.40845 0.18416 0.0
C502 C 0.29085 0.43288 0.18822 0.0
C503 C 0.29444 0.46735 0.18275 0.0
C504 C 0.26246 0.47698 0.17281 0.0
C505 C 0.22743 0.45219 0.16859 0.0
C506 C 0.22492 0.41755 0.1743 0.0
H507 H 0.71205 0.27868 0.93247 0.0
H508 H 0.61826 0.31867 0.90914 0.0
H509 H 0.5753 0.26687 0.9341 0.0
H510 H 0.66441 0.18934 0.90996 0.0
H511 H 0.68641 0.17289 0.9466 0.0
H512 H 0.71032 0.21274 0.92613 0.0
H513 H 0.71788 0.24291 0.99064 0.0
H514 H 0.69398 0.20317 1.01132 0.0
H515 H 0.67714 0.24021 1.01866 0.0
H516 H 0.54247 0.21279 0.96414 0.0
H517 H 0.52056 0.15818 0.99471 0.0
H518 H 0.63409 0.14966 0.99884 0.0
C519 C 0.68247 0.27662 0.93261 0.0
C520 C 0.66876 0.30317 0.91851 0.0
C521 C 0.6297 0.29887 0.91906 0.0
C522 C 0.60499 0.2695 0.93349 0.0
C523 C 0.61942 0.24415 0.94728 0.0
C524 C 0.65719 0.24717 0.94681 0.0
C525 C 0.66504 0.21586 0.9636 0.0
C526 C 0.68259 0.19657 0.93485 0.0
C527 C 0.69 0.22616 0.9981 0.0
C528 C 0.62575 0.19491 0.97381 0.0
C529 C 0.60011 0.21208 0.96415 0.0
C530 C 0.56228 0.19904 0.9715 0.0
C531 C 0.55012 0.16776 0.98906 0.0
C532 C 0.57535 0.14902 0.99914 0.0
C533 C 0.61391 0.16293 0.99121 0.0
H534 H 0.94098 0.79579 0.47219 0.0
H535 H 0.95333 0.82537 0.35772 0.0
H536 H 0.97837 0.88569 0.378 0.0
H537 H 0.91324 0.86884 0.50789 0.0
H538 H 0.93919 0.87263 0.55045 0.0
H539 H 0.92202 0.83157 0.52723 0.0
H540 H 0.98898 0.82464 0.52563 0.0
H541 H 1.00631 0.86562 0.54897 0.0
H542 H 0.02608 0.85727 0.50538 0.0
H543 H 1.00048 0.94361 0.41059 0.0
H544 H 0.02209 0.99388 0.45274 0.0
H545 H 0.99806 0.92783 0.54678 0.0
C546 C 0.94892 0.81496 0.45138 0.0
C547 C 0.94518 0.80546 0.41315 0.0
C548 C 0.95628 0.83158 0.38703 0.0
C549 C 0.97034 0.8661 0.39833 0.0
C550 C 0.97358 0.87454 0.43604 0.0
C551 C 0.96353 0.84971 0.46223 0.0
C552 C 0.97071 0.86578 0.50104 0.0
C553 C 0.93411 0.85931 0.52294 0.0
C554 C 0.99975 0.85254 0.52146 0.0
C555 C 0.98616 0.90347 0.49255 0.0
C556 C 0.98725 0.90791 0.45484 0.0
C557 C 0.99986 0.94034 0.44016 0.0
C558 C 1.01201 0.96888 0.46445 0.0
C559 C 1.01195 0.96518 0.50328 0.0
C560 C 0.99864 0.93179 0.51732 0.0
H561 H 0.3958 0.85229 0.58889 0.0
H562 H 0.33742 0.80508 0.48924 0.0
H563 H 0.37374 0.76261 0.48815 0.0
H564 H 0.4864 0.83872 0.56765 0.0
H565 H 0.49468 0.82906 0.61458 0.0
H566 H 0.46662 0.85751 0.6055 0.0
H567 H 0.41225 0.81958 0.64303 0.0
H568 H 0.44009 0.79106 0.6523 0.0
H569 H 0.39481 0.7748 0.63086 0.0
H570 H 0.41439 0.72432 0.4994 0.0
H571 H 0.455 0.69117 0.52317 0.0
H572 H 0.48408 0.76151 0.61779 0.0
C573 C 0.39105 0.83317 0.5667 0.0
C574 C 0.36431 0.83198 0.5389 0.0
C575 C 0.35826 0.80651 0.51045 0.0
C576 C 0.37869 0.78237 0.50965 0.0
C577 C 0.40466 0.78402 0.53772 0.0
C578 C 0.41079 0.80867 0.5658 0.0
C579 C 0.43843 0.80348 0.59397 0.0
C580 C 0.47362 0.83401 0.59549 0.0
C581 C 0.42031 0.79682 0.6323 0.0
C582 C 0.44673 0.77187 0.57747 0.0
C583 C 0.42722 0.76126 0.54488 0.0
C584 C 0.42979 0.73233 0.5249 0.0
C585 C 0.45271 0.71355 0.53878 0.0
C586 C 0.47253 0.72363 0.57247 0.0
C587 C 0.46963 0.75337 0.5918 0.0
H588 H 0.78802 0.89181 0.85856 0.0
H589 H 0.80793 0.7947 0.88278 0.0
H590 H 0.85374 0.80269 0.83196 0.0
H591 H 0.79759 0.8845 0.75622 0.0
H592 H 0.81968 0.92966 0.75351 0.0
H593 H 0.78538 0.91397 0.7887 0.0
H594 H 0.83315 0.94482 0.83903 0.0
H595 H 0.86765 0.96029 0.8042 0.0
H596 H 0.87779 0.93585 0.84144 0.0
H597 H 0.90367 0.82557 0.78425 0.0
H598 H 0.95065 0.85995 0.74172 0.0
H599 H 0.89454 0.93988 0.7474 0.0
C600 C 0.80073 0.87144 0.85242 0.0
C601 C 0.7941 0.84252 0.87469 0.0
C602 C 0.81271 0.81724 0.86634 0.0
C603 C 0.83858 0.82142 0.83735 0.0
C604 C 0.84505 0.85072 0.81659 0.0
C605 C 0.82617 0.87501 0.82346 0.0
C606 C 0.83985 0.90538 0.79911 0.0
C607 C 0.80878 0.90854 0.77282 0.0
C608 C 0.85555 0.93851 0.82234 0.0
C609 C 0.87037 0.89502 0.77833 0.0
C610 C 0.87292 0.86335 0.78854 0.0
C611 C 0.90138 0.85002 0.77542 0.0
C612 C 0.92799 0.86972 0.75148 0.0
C613 C 0.92574 0.90223 0.7409 0.0
C614 C 0.89624 0.91466 0.75416 0.0
H615 H 0.69985 0.15608 0.43454 0.0
H616 H 0.69408 0.05376 0.46873 0.0
H617 H 0.67571 1.03157 0.4051 0.0
H618 H 0.62188 0.13216 0.36649 0.0
H619 H 0.64608 0.16469 0.33552 0.0
H620 H 0.65333 0.17118 0.38468 0.0
H621 H 0.7246 0.18244 0.37492 0.0
H622 H 0.7176 0.17538 0.3259 0.0
H623 H 0.74197 0.15058 0.35105 0.0
H624 H 0.66394 1.02186 0.33646 0.0
H625 H 0.65894 1.02519 0.26862 0.0
H626 H 0.67351 0.13427 0.28033 0.0
C627 C 0.69335 0.12881 0.42903 0.0
C628 C 0.69774 0.10649 0.45661 0.0
C629 C 0.69053 0.07117 0.44795 0.0
C630 C 0.68006 0.0584 0.41198 0.0
C631 C 0.67702 0.08133 0.38516 0.0
C632 C 0.6832 0.11577 0.39338 0.0
C633 C 0.68126 0.13559 0.35917 0.0
C634 C 0.64869 0.15185 0.36162 0.0
C635 C 0.71858 0.16257 0.35238 0.0
C636 C 0.67395 0.10708 0.33021 0.0
C637 C 0.67113 0.07591 0.3457 0.0
C638 C 0.66565 0.04607 0.32409 0.0
C639 C 0.66286 0.0482 0.28566 0.0
C640 C 0.66595 0.08 0.26932 0.0
C641 C 0.67142 0.10968 0.29203 0.0
H642 H 0.48697 0.64492 0.29311 0.0
H643 H 0.4523 0.72782 0.34586 0.0
H644 H 0.46794 0.70963 0.40704 0.0
H645 H 0.45363 0.58209 0.36409 0.0
H646 H 0.49293 0.56464 0.35962 0.0
H647 H 0.47734 0.58331 0.32044 0.0
H648 H 0.54375 0.6242 0.31337 0.0
H649 H 0.55951 0.60571 0.35256 0.0
H650 H 0.56541 0.65108 0.35214 0.0
H651 H 0.48914 0.68241 0.46324 0.0
H652 H 0.51444 0.65008 0.5082 0.0
H653 H 0.53658 0.58531 0.41874 0.0
C654 C 0.48206 0.6589 0.31762 0.0
C655 C 0.46726 0.68726 0.3145 0.0
C656 C 0.46256 0.70553 0.34729 0.0
C657 C 0.47157 0.6954 0.38227 0.0
C658 C 0.4858 0.66715 0.38428 0.0
C659 C 0.49108 0.64922 0.3527 0.0
C660 C 0.50797 0.62051 0.36214 0.0
C661 C 0.48138 0.58557 0.3509 0.0
C662 C 0.54644 0.6257 0.34397 0.0
C663 C 0.51152 0.62501 0.40395 0.0
C664 C 0.49846 0.65199 0.41624 0.0
C665 C 0.49925 0.66119 0.45377 0.0
C666 C 0.51373 0.64255 0.47923 0.0
C667 C 0.52758 0.61487 0.46738 0.0
C668 C 0.5262 0.60614 0.42903 0.0
H669 H 0.18879 0.46233 0.80753 0.0
H670 H 0.15528 0.36038 0.85152 0.0
H671 H 0.13059 0.38298 0.90684 0.0
H672 H 0.21986 0.50608 0.89557 0.0
H673 H 0.20383 0.54263 0.88522 0.0
H674 H 0.21802 0.51837 0.84835 0.0
H675 H 0.15384 0.50919 0.81639 0.0
H676 H 0.13946 0.53341 0.85316 0.0
H677 H 0.11173 0.49058 0.84173 0.0
H678 H 0.10779 0.41684 0.95799 0.0
H679 H 0.09113 0.45912 1.0003 0.0
H680 H 0.1432 0.53972 0.92583 0.0
C681 C 0.17671 0.44459 0.82881 0.0
C682 C 0.17396 0.40914 0.82421 0.0
C683 C 0.15719 0.38734 0.85318 0.0
C684 C 0.14329 0.40006 0.88518 0.0
C685 C 0.14647 0.43493 0.8886 0.0
C686 C 0.16304 0.45694 0.86127 0.0
C687 C 0.16341 0.49345 0.872 0.0
C688 C 0.20368 0.51649 0.87549 0.0
C689 C 0.14076 0.50748 0.84416 0.0
C690 C 0.14431 0.48854 0.90951 0.0
C691 C 0.13458 0.45452 0.9185 0.0
C692 C 0.11561 0.44355 0.95123 0.0
C693 C 0.10623 0.4678 0.9752 0.0
C694 C 0.11605 0.50288 0.96679 0.0
C695 C 0.13563 0.51322 0.93346 0.0
H696 H 0.73139 0.91727 0.9825 0.0
H697 H 0.65637 0.84934 0.90453 0.0
H698 H 0.61485 0.88769 0.90635 0.0
H699 H 0.66289 0.94019 1.03798 0.0
H700 H 0.69027 0.98388 0.04512 0.0
H701 H 0.71317 0.95091 1.03691 0.0
H702 H 0.7486 0.98433 0.98175 0.0
H703 H 0.72531 1.01716 0.9895 0.0
H704 H 0.72251 0.99581 0.94485 0.0
H705 H 0.57958 0.93193 0.92121 0.0
H706 H 0.55469 0.97838 0.94634 0.0
H707 H 0.65651 1.019 1.00996 0.0
C708 C 0.70604 0.9104 0.96603 0.0
C709 C 0.6965 0.88025 0.94387 0.0
C710 C 0.66372 0.87229 0.92194 0.0
C711 C 0.6402 0.89394 0.92273 0.0
C712 C 0.65049 0.92367 0.94493 0.0
C713 C 0.68284 0.93196 0.96593 0.0
C714 C 0.68787 0.96521 0.98749 0.0
C715 C 0.68857 0.9597 1.02934 0.0
C716 C 0.72317 0.99222 0.97514 0.0
C717 C 0.6529 0.97414 0.97604 0.0
C718 C 0.63154 0.94991 0.95157 0.0
C719 C 0.59644 0.95139 0.93977 0.0
C720 C 0.58257 0.97786 0.95407 0.0
C721 C 0.60404 1.00263 0.97942 0.0
C722 C 0.63996 1.00108 0.98971 0.0
H723 H 0.78578 0.07194 0.54716 0.0
H724 H 0.8338 0.1812 0.5381 0.0
H725 H 0.89691 0.17403 0.5455 0.0
H726 H 0.85097 0.0604 0.61683 0.0
H727 H 0.85271 1.01952 0.59783 0.0
H728 H 0.81119 1.03332 0.59229 0.0
H729 H 0.81476 1.02456 0.52131 0.0
H730 H 0.85652 1.01108 0.52661 0.0
H731 H 0.85675 0.04607 0.49727 0.0
H732 H 0.95439 0.15513 0.55054 0.0
H733 H 1.00344 0.12622 0.55982 0.0
H734 H 0.91873 1.02916 0.56789 0.0
C735 C 0.80965 0.0943 0.54707 0.0
C736 C 0.80506 0.12714 0.54238 0.0
C737 C 0.83678 0.1559 0.54231 0.0
C738 C 0.8727 0.15206 0.54614 0.0
C739 C 0.87633 0.11932 0.55024 0.0
C740 C 0.84575 0.09096 0.55127 0.0
C741 C 0.85759 0.05875 0.55663 0.0
C742 C 0.84221 1.04202 0.59306 0.0
C743 C 0.8457 1.03364 0.52348 0.0
C744 C 0.89961 0.0735 0.55828 0.0
C745 C 0.90973 0.10844 0.55414 0.0
C746 C 0.94687 0.12782 0.55411 0.0
C747 C 0.97449 0.11115 0.55928 0.0
C748 C 0.96474 0.07555 0.5648 0.0
C749 C 0.92685 0.05644 0.56385 0.0
H750 H 0.34137 0.65827 0.1772 0.0
H751 H 0.32208 0.75859 0.18143 0.0
H752 H 0.26222 0.73531 0.14948 0.0
H753 H 0.30012 0.63114 0.08797 0.0
H754 H 0.27767 0.5877 0.10001 0.0
H755 H 0.31963 0.61146 0.12382 0.0
H756 H 0.28564 0.59985 0.18653 0.0
H757 H 0.24372 0.57582 0.16283 0.0
H758 H 0.2426 0.61118 0.19347 0.0
H759 H 0.20658 0.70344 0.11401 0.0
H760 H 0.15376 0.66267 0.08254 0.0
H761 H 0.20366 0.58044 0.10308 0.0
C762 C 0.32435 0.6752 0.17172 0.0
C763 C 0.33736 0.71067 0.18113 0.0
C764 C 0.31379 0.73171 0.17356 0.0
C765 C 0.27941 0.71867 0.15556 0.0
C766 C 0.26803 0.68414 0.1456 0.0
C767 C 0.28926 0.66239 0.15387 0.0
C768 C 0.26942 0.62609 0.14021 0.0
C769 C 0.29313 0.61335 0.11128 0.0
C770 C 0.25977 0.6018 0.1727 0.0
C771 C 0.2342 0.6312 0.12276 0.0
C772 C 0.2344 0.66506 0.1261 0.0
C773 C 0.20588 0.67677 0.11149 0.0
C774 C 0.17597 0.65331 0.0934 0.0
C775 C 0.17422 0.61818 0.09015 0.0
C776 C 0.20398 0.60706 0.10508 0.0
H777 H 0.37484 0.4563 0.73135 0.0
H778 H 0.28346 0.4313 0.65235 0.0
H779 H 0.32684 0.45897 0.60343 0.0
H780 H 0.42535 0.5392 0.69419 0.0
H781 H 0.47069 0.53303 0.70228 0.0
H782 H 0.43209 0.51345 0.73176 0.0
H783 H 0.44257 0.45422 0.71746 0.0
H784 H 0.48115 0.47362 0.68796 0.0
H785 H 0.4429 0.4394 0.67008 0.0
H786 H 0.38054 0.48732 0.56239 0.0
H787 H 0.44067 0.51225 0.53163 0.0
H788 H 0.49857 0.51873 0.63645 0.0
C789 C 0.36388 0.4573 0.70388 0.0
C790 C 0.32538 0.44259 0.69607 0.0
C791 C 0.31244 0.44323 0.65941 0.0
C792 C 0.33698 0.45883 0.63137 0.0
C793 C 0.37462 0.47337 0.64013 0.0
C794 C 0.38809 0.47266 0.67548 0.0
C795 C 0.43019 0.48859 0.67706 0.0
C796 C 0.44016 0.52046 0.70286 0.0
C797 C 0.45038 0.46239 0.68883 0.0
C798 C 0.43837 0.49809 0.63699 0.0
C799 C 0.4058 0.48922 0.61628 0.0
C800 C 0.40613 0.49447 0.57842 0.0
C801 C 0.44052 0.50868 0.56116 0.0
C802 C 0.47443 0.51755 0.58152 0.0
C803 C 0.47316 0.51253 0.62013 0.0
H804 H 0.77934 0.7306 0.9915 0.0
H805 H 0.83758 0.82632 0.04657 0.0
H806 H 0.89615 0.80898 0.04528 0.0
H807 H 0.82673 0.67858 1.0398 0.0
H808 H 0.82796 0.65107 1.00021 0.0
H809 H 0.79091 0.67135 1.00477 0.0
H810 H 0.80727 0.69785 0.94056 0.0
H811 H 0.84443 0.6777 0.93583 0.0
H812 H 0.85424 0.72327 0.93174 0.0
H813 H 0.94837 0.78174 1.03693 0.0
H814 H 0.99014 0.7449 1.02547 0.0
H815 H 0.89746 0.66614 0.97749 0.0
C816 C 0.80448 0.74787 1.00317 0.0
C817 C 0.80428 0.78002 1.01857 0.0
C818 C 0.83748 0.80178 1.03418 0.0
C819 C 0.87076 0.79216 1.03358 0.0
C820 C 0.8702 0.76048 1.01774 0.0
C821 C 0.83789 0.73852 1.0031 0.0
C822 C 0.8447 0.70558 0.98852 0.0
C823 C 0.82118 0.67483 1.0096 0.0
C824 C 0.83723 0.70084 0.94668 0.0
C825 C 0.88589 0.7125 0.99719 0.0
C826 C 0.9001 0.7444 1.01382 0.0
C827 C 0.93756 0.75668 1.024 0.0
C828 C 0.96109 0.73569 1.01721 0.0
C829 C 0.94699 0.70272 1.00066 0.0
C830 C 0.90889 0.69111 0.99052 0.0
H831 H 0.49708 0.8136 0.17357 0.0
H832 H 0.39149 0.82747 0.21086 0.0
H833 H 0.40968 0.8863 0.1884 0.0
H834 H 0.55408 0.90232 0.1952 0.0
H835 H 0.5827 0.90427 0.15463 0.0
H836 H 0.56272 0.86394 0.17598 0.0
H837 H 0.53207 0.83854 0.11363 0.0
H838 H 0.55166 0.87886 0.09221 0.0
H839 H 0.50198 0.85924 0.09044 0.0
H840 H 0.43698 0.94241 0.15832 0.0
H841 H 0.47329 0.99319 0.12553 0.0
H842 H 0.56214 0.9449 0.10715 0.0
C843 C 0.47829 0.82939 0.17773 0.0
C844 C 0.44292 0.81597 0.19443 0.0
C845 C 0.41875 0.83723 0.1985 0.0
C846 C 0.42881 0.8707 0.18569 0.0
C847 C 0.46333 0.88298 0.16866 0.0
C848 C 0.48794 0.86318 0.16487 0.0
C849 C 0.52282 0.88259 0.14432 0.0
C850 C 0.55764 0.88864 0.16901 0.0
C851 C 0.52739 0.86367 0.108 0.0
C852 C 0.51373 0.91605 0.13695 0.0
C853 C 0.47922 0.91562 0.15127 0.0
C854 C 0.4642 0.94312 0.14727 0.0
C855 C 0.48501 0.9719 0.12848 0.0
C856 C 0.52066 0.97329 0.11384 0.0
C857 C 0.53506 0.94479 0.11816 0.0
H858 H 0.17209 0.32016 0.67278 0.0
H859 H 0.16325 0.29054 0.78731 0.0
H860 H 0.139 0.23009 0.76707 0.0
H861 H 0.08772 0.25708 0.64063 0.0
H862 H 0.10726 0.24943 0.59667 0.0
H863 H 0.12371 0.29049 0.62004 0.0
H864 H 0.1914 0.2855 0.61735 0.0
H865 H 0.17514 0.24437 0.59409 0.0
H866 H 0.2018 0.24877 0.63627 0.0
H867 H 0.1178 0.17205 0.73431 0.0
H868 H 0.09762 0.12171 0.6921 0.0
H869 H 0.11828 0.18799 0.59818 0.0
C870 C 0.16512 0.301 0.69366 0.0
C871 C 0.16967 0.31053 0.73187 0.0
C872 C 0.15969 0.28433 0.75802 0.0
C873 C 0.14609 0.24974 0.74673 0.0
C874 C 0.14222 0.24131 0.70902 0.0
C875 C 0.15113 0.26621 0.68284 0.0
C876 C 0.14387 0.25017 0.64403 0.0
C877 C 0.11385 0.26253 0.62418 0.0
C878 C 0.18022 0.25765 0.62161 0.0
C879 C 0.12971 0.21239 0.65245 0.0
C880 C 0.12923 0.2079 0.69015 0.0
C881 C 0.11792 0.17538 0.70476 0.0
C882 C 0.10657 0.14679 0.68042 0.0
C883 C 0.10616 0.15051 0.64159 0.0
C884 C 0.11803 0.18401 0.62762 0.0
H885 H 0.63428 0.21773 0.5609 0.0
H886 H 0.74739 0.25642 0.60269 0.0
H887 H 0.74511 0.31555 0.59258 0.0
H888 H 0.64168 0.27364 0.48996 0.0
H889 H 0.59571 0.27963 0.49445 0.0
H890 H 0.60415 0.24065 0.50909 0.0
H891 H 0.57976 0.24975 0.57465 0.0
H892 H 0.57044 0.28844 0.56 0.0
H893 H 0.59965 0.28943 0.5998 0.0
H894 H 0.73372 0.36889 0.56956 0.0
H895 H 0.71154 0.41432 0.54251 0.0
H896 H 0.60364 0.34147 0.52013 0.0
C897 C 0.65799 0.23878 0.56914 0.0
C898 C 0.69077 0.23283 0.58327 0.0
C899 C 0.72182 0.26077 0.59262 0.0
C900 C 0.72082 0.29429 0.58676 0.0
C901 C 0.68841 0.29931 0.57187 0.0
C902 C 0.65726 0.27242 0.56391 0.0
C903 C 0.62656 0.28473 0.54668 0.0
C904 C 0.61646 0.2687 0.50774 0.0
C905 C 0.59207 0.27767 0.57179 0.0
C906 C 0.64578 0.32257 0.54513 0.0
C907 C 0.68143 0.33041 0.5597 0.0
C908 C 0.70547 0.36327 0.55901 0.0
C909 C 0.69247 0.38897 0.54366 0.0
C910 C 0.65552 0.38184 0.52959 0.0
C911 C 0.63207 0.34801 0.53036 0.0
loop_
_geom_bond_atom_site_label_1
_geom_bond_atom_site_label_2
_geom_bond_distance
_geom_bond_site_symmetry_2
_ccdc_geom_bond_type
H0 C7 0.929 . S
H1 C10 0.930 . S
H2 C12 0.929 . S
H3 C4 0.969 . S
C4 H3 0.969 . S
C4 O5 1.550 . S
C4 H6 0.973 . S
O5 C4 1.550 . S
O5 C11 1.412 . S
H6 C4 0.973 . S
C7 H0 0.929 . S
C7 C8 1.400 . S
C7 C9 1.364 . S
C8 C7 1.400 . S
C8 C12 1.377 . S
C9 C7 1.364 . S
C9 C10 1.374 . S
C10 H1 0.930 . S
C10 C9 1.374 . S
C10 C11 1.383 . S
C11 O5 1.412 . S
C11 C10 1.383 . S
C11 C12 1.394 . S
C12 H2 0.929 . S
C12 C8 1.377 . S
C12 C11 1.394 . S
H13 C20 0.929 . S
H14 C23 0.930 . S
H15 C25 0.929 . S
H16 C17 0.969 . S
C17 H16 0.969 . S
C17 O18 1.550 . S
C17 H19 0.973 . S
O18 C17 1.550 . S
O18 C24 1.412 . S
H19 C17 0.973 . S
C20 H13 0.929 . S
C20 C21 1.400 . S
C20 C22 1.364 . S
C21 C20 1.400 . S
C21 C25 1.377 . S
C22 C20 1.364 . S
C22 C23 1.374 . S
C23 H14 0.930 . S
C23 C22 1.374 . S
C23 C24 1.383 . S
C24 O18 1.412 . S
C24 C23 1.383 . S
C24 C25 1.394 . S
C25 H15 0.929 . S
C25 C21 1.377 . S
C25 C24 1.394 . S
H26 C33 0.929 . S
H27 C36 0.930 . S
H28 C38 0.929 . S
H29 C30 0.969 . S
C30 H29 0.969 . S
C30 O31 1.550 . S
C30 H32 0.973 . S
O31 C30 1.550 . S
O31 C37 1.412 . S
H32 C30 0.973 . S
C33 H26 0.929 . S
C33 C34 1.400 . S
C33 C35 1.364 . S
C34 C33 1.400 . S
C34 C38 1.377 . S
C35 C33 1.364 . S
C35 C36 1.374 . S
C36 H27 0.930 . S
C36 C35 1.374 . S
C36 C37 1.383 . S
C37 O31 1.412 . S
C37 C36 1.383 . S
C37 C38 1.394 . S
C38 H28 0.929 . S
C38 C34 1.377 . S
C38 C37 1.394 . S
H39 C46 0.929 . S
H40 C49 0.930 . S
H41 C51 0.929 . S
H42 C43 0.969 . S
C43 H42 0.969 . S
C43 O44 1.550 . S
C43 H45 0.973 . S
O44 C43 1.550 . S
O44 C50 1.412 . S
H45 C43 0.973 . S
C46 H39 0.929 . S
C46 C47 1.400 . S
C46 C48 1.364 . S
C47 C46 1.400 . S
C47 C51 1.377 . S
C48 C46 1.364 . S
C48 C49 1.374 . S
C49 H40 0.930 . S
C49 C48 1.374 . S
C49 C50 1.383 . S
C50 O44 1.412 . S
C50 C49 1.383 . S
C50 C51 1.394 . S
C51 H41 0.929 . S
C51 C47 1.377 . S
C51 C50 1.394 . S
H52 C59 0.929 . S
H53 C62 0.930 . S
H54 C64 0.929 . S
H55 C56 0.969 . S
C56 H55 0.969 . S
C56 O57 1.550 . S
C56 H58 0.973 . S
O57 C56 1.550 . S
O57 C63 1.412 . S
H58 C56 0.973 . S
C59 H52 0.929 . S
C59 C60 1.400 . S
C59 C61 1.364 . S
C60 C59 1.400 . S
C60 C64 1.377 . S
C61 C59 1.364 . S
C61 C62 1.374 . S
C62 H53 0.930 . S
C62 C61 1.374 . S
C62 C63 1.383 . S
C63 O57 1.412 . S
C63 C62 1.383 . S
C63 C64 1.394 . S
C64 H54 0.929 . S
C64 C60 1.377 . S
C64 C63 1.394 . S
H65 C72 0.929 . S
H66 C75 0.930 . S
H67 C77 0.929 . S
H68 C69 0.969 . S
C69 H68 0.969 . S
C69 O70 1.550 . S
C69 H71 0.973 . S
O70 C69 1.550 . S
O70 C76 1.412 . S
H71 C69 0.973 . S
C72 H65 0.929 . S
C72 C73 1.400 . S
C72 C74 1.364 . S
C73 C72 1.400 . S
C73 C77 1.377 . S
C74 C72 1.364 . S
C74 C75 1.374 . S
C75 H66 0.930 . S
C75 C74 1.374 . S
C75 C76 1.383 . S
C76 O70 1.412 . S
C76 C75 1.383 . S
C76 C77 1.394 . S
C77 H67 0.929 . S
C77 C73 1.377 . S
C77 C76 1.394 . S
H78 C85 0.929 . S
H79 C88 0.930 . S
H80 C90 0.929 . S
H81 C82 0.969 . S
C82 H81 0.969 . S
C82 O83 1.550 . S
C82 H84 0.973 . S
O83 C82 1.550 . S
O83 C89 1.412 . S
H84 C82 0.973 . S
C85 H78 0.929 . S
C85 C86 1.400 . S
C85 C87 1.364 . S
C86 C85 1.400 . S
C86 C90 1.377 . S
C87 C85 1.364 . S
C87 C88 1.374 . S
C88 H79 0.930 . S
C88 C87 1.374 . S
C88 C89 1.383 . S
C89 O83 1.412 . S
C89 C88 1.383 . S
C89 C90 1.394 . S
C90 H80 0.929 . S
C90 C86 1.377 . S
C90 C89 1.394 . S
H91 C98 0.929 . S
H92 C101 0.930 . S
H93 C103 0.929 . S
H94 C95 0.969 . S
C95 H94 0.969 . S
C95 O96 1.550 . S
C95 H97 0.973 . S
O96 C95 1.550 . S
O96 C102 1.412 . S
H97 C95 0.973 . S
C98 H91 0.929 . S
C98 C99 1.400 . S
C98 C100 1.364 . S
C99 C98 1.400 . S
C99 C103 1.377 . S
C100 C98 1.364 . S
C100 C101 1.374 . S
C101 H92 0.930 . S
C101 C100 1.374 . S
C101 C102 1.383 . S
C102 O96 1.412 . S
C102 C101 1.383 . S
C102 C103 1.394 . S
C103 H93 0.929 . S
C103 C99 1.377 . S
C103 C102 1.394 . S
Sm104 C106 2.846 . S
Sm104 O124 2.543 . S
Sm104 O125 2.450 . S
Sm104 O126 2.681 1_545 S
Sm104 O127 2.464 . S
Sm104 O128 2.396 . S
Sm104 O132 2.386 . S
Sm104 O135 2.408 1_545 S
Sm105 C115 2.846 1_545 S
Sm105 O126 2.386 1_645 S
Sm105 O129 2.408 1_655 S
Sm105 O130 2.543 1_545 S
Sm105 O131 2.450 1_545 S
Sm105 O132 2.681 1_655 S
Sm105 O133 2.464 . S
Sm105 O134 2.396 1_545 S
C106 Sm104 2.846 . S
C106 C107 1.506 . S
C106 O124 1.261 . S
C106 O125 1.242 . S
C107 C106 1.506 . S
C107 C108 1.358 . S
C107 C112 1.382 . S
C108 C107 1.358 . S
C108 C109 1.385 . S
C108 H136 0.930 . S
C109 C108 1.385 . S
C109 C110 1.395 . S
C109 H137 0.929 . S
C110 C109 1.395 . S
C110 C111 1.335 . S
C111 C110 1.335 . S
C111 C112 1.398 . S
C111 H138 0.930 . S
C112 C107 1.382 . S
C112 C111 1.398 . S
C112 H139 0.929 . S
C113 O126 1.271 . S
C113 O127 1.251 1_565 S
C114 O128 1.252 . S
C114 O129 1.272 . S
C115 Sm105 2.846 1_565 S
C115 C116 1.506 . S
C115 O130 1.261 . S
C115 O131 1.242 . S
C116 C115 1.506 . S
C116 C117 1.358 . S
C116 C121 1.382 . S
C117 C116 1.358 . S
C117 C118 1.385 . S
C117 H140 0.930 . S
C118 C117 1.385 . S
C118 C119 1.395 . S
C118 H141 0.929 . S
C119 C118 1.395 . S
C119 C120 1.335 . S
C120 C119 1.335 . S
C120 C121 1.398 . S
C120 H142 0.930 . S
C121 C116 1.382 . S
C121 C120 1.398 . S
C121 H143 0.929 . S
C122 O132 1.271 1_655 S
C122 O133 1.251 . S
C123 O134 1.252 . S
C123 O135 1.272 1_655 S
O124 Sm104 2.543 . S
O124 C106 1.261 . S
O125 Sm104 2.450 . S
O125 C106 1.242 . S
O126 Sm104 2.681 1_565 S
O126 Sm105 2.386 1_465 S
O126 C113 1.271 . S
O127 Sm104 2.464 . S
O127 C113 1.251 1_545 S
O128 Sm104 2.396 . S
O128 C114 1.252 . S
O129 Sm105 2.408 1_455 S
O129 C114 1.272 . S
O130 Sm105 2.543 1_565 S
O130 C115 1.261 . S
O131 Sm105 2.450 1_565 S
O131 C115 1.242 . S
O132 Sm104 2.386 . S
O132 Sm105 2.681 1_455 S
O132 C122 1.271 1_455 S
O133 Sm105 2.464 . S
O133 C122 1.251 . S
O134 Sm105 2.396 1_565 S
O134 C123 1.252 . S
O135 Sm104 2.408 1_565 S
O135 C123 1.272 1_455 S
H136 C108 0.930 . S
H137 C109 0.929 . S
H138 C111 0.930 . S
H139 C112 0.929 . S
H140 C117 0.930 . S
H141 C118 0.929 . S
H142 C120 0.930 . S
H143 C121 0.929 . S
Sm144 C146 2.846 . S
Sm144 O164 2.543 . S
Sm144 O165 2.450 . S
Sm144 O166 2.681 1_545 S
Sm144 O167 2.464 1_545 S
Sm144 O168 2.396 . S
Sm144 O172 2.387 . S
Sm144 O175 2.408 1_544 S
Sm145 C155 2.846 1_545 S
Sm145 O166 2.386 1_546 S
Sm145 O169 2.408 1_556 S
Sm145 O170 2.543 1_545 S
Sm145 O171 2.450 1_545 S
Sm145 O172 2.681 1_556 S
Sm145 O173 2.464 . S
Sm145 O174 2.396 1_545 S
C146 Sm144 2.846 . S
C146 C147 1.506 . S
C146 O164 1.261 . S
C146 O165 1.242 . S
C147 C146 1.506 . S
C147 C148 1.358 . S
C147 C152 1.382 . S
C148 C147 1.358 . S
C148 C149 1.385 . S
C148 H176 0.930 . S
C149 C148 1.385 . S
C149 C150 1.395 . S
C149 H177 0.929 . S
C150 C149 1.395 . S
C150 C151 1.335 . S
C151 C150 1.335 . S
C151 C152 1.398 . S
C151 H178 0.930 . S
C152 C147 1.382 . S
C152 C151 1.398 . S
C152 H179 0.929 . S
C153 O166 1.271 . S
C153 O167 1.251 . S
C154 O168 1.252 . S
C154 O169 1.272 . S
C155 Sm145 2.846 1_565 S
C155 C156 1.506 . S
C155 O170 1.261 . S
C155 O171 1.242 . S
C156 C155 1.506 . S
C156 C157 1.358 . S
C156 C161 1.382 . S
C157 C156 1.358 . S
C157 C158 1.385 . S
C157 H180 0.930 . S
C158 C157 1.385 . S
C158 C159 1.395 . S
C158 H181 0.929 . S
C159 C158 1.395 . S
C159 C160 1.335 . S
C160 C159 1.335 . S
C160 C161 1.398 . S
C160 H182 0.930 . S
C161 C156 1.382 . S
C161 C160 1.398 . S
C161 H183 0.929 . S
C162 O172 1.270 1_556 S
C162 O173 1.251 . S
C163 O174 1.252 . S
C163 O175 1.272 . S
O164 Sm144 2.543 . S
O164 C146 1.261 . S
O165 Sm144 2.450 . S
O165 C146 1.242 . S
O166 Sm144 2.681 1_565 S
O166 Sm145 2.386 1_564 S
O166 C153 1.271 . S
O167 Sm144 2.464 1_565 S
O167 C153 1.251 . S
O168 Sm144 2.396 . S
O168 C154 1.252 . S
O169 Sm145 2.408 1_554 S
O169 C154 1.272 . S
O170 Sm145 2.543 1_565 S
O170 C155 1.261 . S
O171 Sm145 2.450 1_565 S
O171 C155 1.242 . S
O172 Sm144 2.387 . S
O172 Sm145 2.681 1_554 S
O172 C162 1.270 1_554 S
O173 Sm145 2.464 . S
O173 C162 1.251 . S
O174 Sm145 2.396 1_565 S
O174 C163 1.252 . S
O175 Sm144 2.408 1_566 S
O175 C163 1.272 . S
H176 C148 0.930 . S
H177 C149 0.929 . S
H178 C151 0.930 . S
H179 C152 0.929 . S
H180 C157 0.930 . S
H181 C158 0.929 . S
H182 C160 0.930 . S
H183 C161 0.929 . S
Sm184 C186 2.846 . S
Sm184 O204 2.543 . S
Sm184 O205 2.450 . S
Sm184 O206 2.681 . S
Sm184 O207 2.464 . S
Sm184 O208 2.396 . S
Sm184 O212 2.386 . S
Sm184 O215 2.408 . S
Sm185 C195 2.846 . S
Sm185 O206 2.386 . S
Sm185 O209 2.408 . S
Sm185 O210 2.543 . S
Sm185 O211 2.450 . S
Sm185 O212 2.681 . S
Sm185 O213 2.464 . S
Sm185 O214 2.396 . S
C186 Sm184 2.846 . S
C186 C187 1.506 . S
C186 O204 1.261 . S
C186 O205 1.242 . S
C187 C186 1.506 . S
C187 C188 1.358 . S
C187 C192 1.382 . S
C188 C187 1.358 . S
C188 C189 1.385 . S
C188 H216 0.930 . S
C189 C188 1.385 . S
C189 C190 1.395 . S
C189 H217 0.929 . S
C190 C189 1.395 . S
C190 C191 1.335 . S
C191 C190 1.335 . S
C191 C192 1.398 . S
C191 H218 0.930 . S
C192 C187 1.382 . S
C192 C191 1.398 . S
C192 H219 0.929 . S
C193 O206 1.271 . S
C193 O207 1.251 . S
C194 O208 1.252 . S
C194 O209 1.272 . S
C195 Sm185 2.846 . S
C195 C196 1.506 . S
C195 O210 1.261 . S
C195 O211 1.242 . S
C196 C195 1.506 . S
C196 C197 1.358 . S
C196 C201 1.382 . S
C197 C196 1.358 . S
C197 C198 1.385 . S
C197 H220 0.930 . S
C198 C197 1.385 . S
C198 C199 1.395 . S
C198 H221 0.929 . S
C199 C198 1.395 . S
C199 C200 1.335 . S
C200 C199 1.335 . S
C200 C201 1.398 . S
C200 H222 0.930 . S
C201 C196 1.382 . S
C201 C200 1.398 . S
C201 H223 0.929 . S
C202 O212 1.271 . S
C202 O213 1.251 . S
C203 O214 1.252 . S
C203 O215 1.272 . S
O204 Sm184 2.543 . S
O204 C186 1.261 . S
O205 Sm184 2.450 . S
O205 C186 1.242 . S
O206 Sm184 2.681 . S
O206 Sm185 2.386 . S
O206 C193 1.271 . S
O207 Sm184 2.464 . S
O207 C193 1.251 . S
O208 Sm184 2.396 . S
O208 C194 1.252 . S
O209 Sm185 2.408 . S
O209 C194 1.272 . S
O210 Sm185 2.543 . S
O210 C195 1.261 . S
O211 Sm185 2.450 . S
O211 C195 1.242 . S
O212 Sm184 2.386 . S
O212 Sm185 2.681 . S
O212 C202 1.271 . S
O213 Sm185 2.464 . S
O213 C202 1.251 . S
O214 Sm185 2.396 . S
O214 C203 1.252 . S
O215 Sm184 2.408 . S
O215 C203 1.272 . S
H216 C188 0.930 . S
H217 C189 0.929 . S
H218 C191 0.930 . S
H219 C192 0.929 . S
H220 C197 0.930 . S
H221 C198 0.929 . S
H222 C200 0.930 . S
H223 C201 0.929 . S
Sm224 C226 2.846 . S
Sm224 O244 2.543 . S
Sm224 O245 2.450 . S
Sm224 O246 2.681 . S
Sm224 O247 2.464 . S
Sm224 O248 2.396 . S
Sm224 O252 2.386 . S
Sm224 O255 2.408 1_455 S
Sm225 C235 2.846 1_454 S
Sm225 O246 2.386 . S
Sm225 O249 2.408 . S
Sm225 O250 2.543 1_455 S
Sm225 O251 2.450 1_554 S
Sm225 O252 2.681 . S
Sm225 O253 2.464 1_554 S
Sm225 O254 2.396 1_454 S
C226 Sm224 2.846 . S
C226 C227 1.506 . S
C226 O244 1.261 . S
C226 O245 1.242 . S
C227 C226 1.506 . S
C227 C228 1.358 . S
C227 C232 1.382 . S
C228 C227 1.358 . S
C228 C229 1.385 . S
C228 H256 0.930 . S
C229 C228 1.385 . S
C229 C230 1.395 . S
C229 H257 0.929 . S
C230 C229 1.395 . S
C230 C231 1.335 . S
C231 C230 1.335 . S
C231 C232 1.398 . S
C231 H258 0.930 . S
C232 C227 1.382 . S
C232 C231 1.398 . S
C232 H259 0.929 . S
C233 O246 1.271 . S
C233 O247 1.251 . S
C234 O248 1.252 . S
C234 O249 1.272 . S
C235 Sm225 2.846 1_656 S
C235 C236 1.506 . S
C235 O250 1.261 1_556 S
C235 O251 1.242 1_655 S
C236 C235 1.506 . S
C236 C237 1.358 . S
C236 C241 1.382 . S
C237 C236 1.358 . S
C237 C238 1.385 . S
C237 H260 0.930 1_556 S
C238 C237 1.385 . S
C238 C239 1.395 . S
C238 H261 0.929 . S
C239 C238 1.395 . S
C239 C240 1.335 . S
C240 C239 1.335 . S
C240 C241 1.398 . S
C240 H262 0.930 . S
C241 C236 1.382 . S
C241 C240 1.398 . S
C241 H263 0.929 . S
C242 O252 1.271 1_556 S
C242 O253 1.251 . S
C243 O254 1.252 1_554 S
C243 O255 1.272 . S
O244 Sm224 2.543 . S
O244 C226 1.261 . S
O245 Sm224 2.450 . S
O245 C226 1.242 . S
O246 Sm224 2.681 . S
O246 Sm225 2.386 . S
O246 C233 1.271 . S
O247 Sm224 2.464 . S
O247 C233 1.251 . S
O248 Sm224 2.396 . S
O248 C234 1.252 . S
O249 Sm225 2.408 . S
O249 C234 1.272 . S
O250 Sm225 2.543 1_655 S
O250 C235 1.261 1_554 S
O251 Sm225 2.450 1_556 S
O251 C235 1.242 1_455 S
O252 Sm224 2.386 . S
O252 Sm225 2.681 . S
O252 C242 1.271 1_554 S
O253 Sm225 2.464 1_556 S
O253 C242 1.251 . S
O254 Sm225 2.396 1_656 S
O254 C243 1.252 1_556 S
O255 Sm224 2.408 1_655 S
O255 C243 1.272 . S
H256 C228 0.930 . S
H257 C229 0.929 . S
H258 C231 0.930 . S
H259 C232 0.929 . S
H260 C237 0.930 1_554 S
H261 C238 0.929 . S
H262 C240 0.930 . S
H263 C241 0.929 . S
H264 C276 0.930 . S
H265 C278 0.930 . S
H266 C279 0.930 . S
H267 C283 0.959 . S
H268 C283 0.959 . S
H269 C283 0.961 . S
H270 C284 0.960 . S
H271 C284 0.961 . S
H272 C284 0.959 . S
H273 C287 0.929 . S
H274 C288 0.931 . S
H275 C290 0.930 . S
C276 H264 0.930 . S
C276 C277 1.399 . S
C276 C281 1.399 . S
C277 C276 1.399 . S
C277 C278 1.376 . S
C278 H265 0.930 . S
C278 C277 1.376 . S
C278 C279 1.388 . S
C279 H266 0.930 . S
C279 C278 1.388 . S
C279 C280 1.390 . S
C280 C279 1.390 . S
C280 C281 1.394 . S
C280 C286 1.465 . S
C281 C276 1.399 . S
C281 C280 1.394 . S
C281 C282 1.516 . S
C282 C281 1.516 . S
C282 C283 1.502 . S
C282 C284 1.561 . S
C282 C285 1.526 . S
C283 H267 0.959 . S
C283 H268 0.959 . S
C283 H269 0.961 . S
C283 C282 1.502 . S
C284 H270 0.960 . S
C284 H271 0.961 . S
C284 H272 0.959 . S
C284 C282 1.561 . S
C285 C282 1.526 . S
C285 C286 1.396 . S
C285 C290 1.390 . S
C286 C280 1.465 . S
C286 C285 1.396 . S
C286 C287 1.399 . S
C287 H273 0.929 . S
C287 C286 1.399 . S
C287 C288 1.385 . S
C288 H274 0.931 . S
C288 C287 1.385 . S
C288 C289 1.389 . S
C289 C288 1.389 . S
C289 C290 1.387 . S
C290 H275 0.930 . S
C290 C285 1.390 . S
C290 C289 1.387 . S
H291 C303 0.930 . S
H292 C305 0.930 . S
H293 C306 0.930 . S
H294 C310 0.959 . S
H295 C310 0.959 . S
H296 C310 0.961 . S
H297 C311 0.960 . S
H298 C311 0.961 . S
H299 C311 0.959 . S
H300 C314 0.929 . S
H301 C315 0.931 . S
H302 C317 0.930 . S
C303 H291 0.930 . S
C303 C304 1.399 . S
C303 C308 1.399 . S
C304 C303 1.399 . S
C304 C305 1.376 . S
C305 H292 0.930 . S
C305 C304 1.376 . S
C305 C306 1.388 . S
C306 H293 0.930 . S
C306 C305 1.388 . S
C306 C307 1.390 . S
C307 C306 1.390 . S
C307 C308 1.394 . S
C307 C313 1.465 . S
C308 C303 1.399 . S
C308 C307 1.394 . S
C308 C309 1.516 . S
C309 C308 1.516 . S
C309 C310 1.502 . S
C309 C311 1.561 . S
C309 C312 1.526 . S
C310 H294 0.959 . S
C310 H295 0.959 . S
C310 H296 0.961 . S
C310 C309 1.502 . S
C311 H297 0.960 . S
C311 H298 0.961 . S
C311 H299 0.959 . S
C311 C309 1.561 . S
C312 C309 1.526 . S
C312 C313 1.396 . S
C312 C317 1.390 . S
C313 C307 1.465 . S
C313 C312 1.396 . S
C313 C314 1.399 . S
C314 H300 0.929 . S
C314 C313 1.399 . S
C314 C315 1.385 . S
C315 H301 0.931 . S
C315 C314 1.385 . S
C315 C316 1.389 . S
C316 C315 1.389 . S
C316 C317 1.387 . S
C317 H302 0.930 . S
C317 C312 1.390 . S
C317 C316 1.387 . S
H318 C330 0.930 . S
H319 C332 0.930 . S
H320 C333 0.930 . S
H321 C337 0.959 . S
H322 C337 0.959 . S
H323 C337 0.961 . S
H324 C338 0.960 . S
H325 C338 0.961 . S
H326 C338 0.959 . S
H327 C341 0.929 . S
H328 C342 0.931 . S
H329 C344 0.930 . S
C330 H318 0.930 . S
C330 C331 1.399 . S
C330 C335 1.399 . S
C331 C330 1.399 . S
C331 C332 1.376 . S
C332 H319 0.930 . S
C332 C331 1.376 . S
C332 C333 1.388 . S
C333 H320 0.930 . S
C333 C332 1.388 . S
C333 C334 1.390 . S
C334 C333 1.390 . S
C334 C335 1.394 . S
C334 C340 1.465 . S
C335 C330 1.399 . S
C335 C334 1.394 . S
C335 C336 1.516 . S
C336 C335 1.516 . S
C336 C337 1.502 . S
C336 C338 1.561 . S
C336 C339 1.526 . S
C337 H321 0.959 . S
C337 H322 0.959 . S
C337 H323 0.961 . S
C337 C336 1.502 . S
C338 H324 0.960 . S
C338 H325 0.961 . S
C338 H326 0.959 . S
C338 C336 1.561 . S
C339 C336 1.526 . S
C339 C340 1.396 . S
C339 C344 1.390 . S
C340 C334 1.465 . S
C340 C339 1.396 . S
C340 C341 1.399 . S
C341 H327 0.929 . S
C341 C340 1.399 . S
C341 C342 1.385 . S
C342 H328 0.931 . S
C342 C341 1.385 . S
C342 C343 1.389 . S
C343 C342 1.389 . S
C343 C344 1.387 . S
C344 H329 0.930 . S
C344 C339 1.390 . S
C344 C343 1.387 . S
H345 C357 0.930 . S
H346 C359 0.930 . S
H347 C360 0.930 . S
H348 C364 0.959 1_455 S
H349 C364 0.959 1_455 S
H350 C364 0.961 . S
H351 C365 0.960 . S
H352 C365 0.961 . S
H353 C365 0.959 . S
H354 C368 0.929 . S
H355 C369 0.931 . S
H356 C371 0.930 . S
C357 H345 0.930 . S
C357 C358 1.399 . S
C357 C362 1.399 . S
C358 C357 1.399 . S
C358 C359 1.376 . S
C359 H346 0.930 . S
C359 C358 1.376 . S
C359 C360 1.388 . S
C360 H347 0.930 . S
C360 C359 1.388 . S
C360 C361 1.390 . S
C361 C360 1.390 . S
C361 C362 1.394 . S
C361 C367 1.465 . S
C362 C357 1.399 . S
C362 C361 1.394 . S
C362 C363 1.516 . S
C363 C362 1.516 . S
C363 C364 1.502 . S
C363 C365 1.561 . S
C363 C366 1.526 . S
C364 H348 0.959 1_655 S
C364 H349 0.959 1_655 S
C364 H350 0.961 . S
C364 C363 1.502 . S
C365 H351 0.960 . S
C365 H352 0.961 . S
C365 H353 0.959 . S
C365 C363 1.561 . S
C366 C363 1.526 . S
C366 C367 1.396 . S
C366 C371 1.390 . S
C367 C361 1.465 . S
C367 C366 1.396 . S
C367 C368 1.399 . S
C368 H354 0.929 . S
C368 C367 1.399 . S
C368 C369 1.385 . S
C369 H355 0.931 . S
C369 C368 1.385 . S
C369 C370 1.389 . S
C370 C369 1.389 . S
C370 C371 1.387 . S
C371 H356 0.930 . S
C371 C366 1.390 . S
C371 C370 1.387 . S
H372 C384 0.930 . S
H373 C386 0.930 . S
H374 C387 0.930 . S
H375 C391 0.959 . S
H376 C391 0.959 . S
H377 C391 0.961 . S
H378 C392 0.960 . S
H379 C392 0.961 . S
H380 C392 0.959 . S
H381 C395 0.929 . S
H382 C396 0.931 . S
H383 C398 0.930 . S
C384 H372 0.930 . S
C384 C385 1.399 . S
C384 C389 1.399 . S
C385 C384 1.399 . S
C385 C386 1.376 . S
C386 H373 0.930 . S
C386 C385 1.376 . S
C386 C387 1.388 . S
C387 H374 0.930 . S
C387 C386 1.388 . S
C387 C388 1.390 . S
C388 C387 1.390 . S
C388 C389 1.394 . S
C388 C394 1.465 . S
C389 C384 1.399 . S
C389 C388 1.394 . S
C389 C390 1.516 . S
C390 C389 1.516 . S
C390 C391 1.502 . S
C390 C392 1.561 . S
C390 C393 1.526 . S
C391 H375 0.959 . S
C391 H376 0.959 . S
C391 H377 0.961 . S
C391 C390 1.502 . S
C392 H378 0.960 . S
C392 H379 0.961 . S
C392 H380 0.959 . S
C392 C390 1.561 . S
C393 C390 1.526 . S
C393 C394 1.396 . S
C393 C398 1.390 . S
C394 C388 1.465 . S
C394 C393 1.396 . S
C394 C395 1.399 . S
C395 H381 0.929 . S
C395 C394 1.399 . S
C395 C396 1.385 . S
C396 H382 0.931 . S
C396 C395 1.385 . S
C396 C397 1.389 . S
C397 C396 1.389 . S
C397 C398 1.387 . S
C398 H383 0.930 . S
C398 C393 1.390 . S
C398 C397 1.387 . S
H399 C411 0.930 . S
H400 C413 0.930 . S
H401 C414 0.930 . S
H402 C418 0.959 . S
H403 C418 0.959 . S
H404 C418 0.961 . S
H405 C419 0.960 . S
H406 C419 0.961 . S
H407 C419 0.959 . S
H408 C422 0.929 . S
H409 C423 0.931 . S
H410 C425 0.930 . S
C411 H399 0.930 . S
C411 C412 1.399 . S
C411 C416 1.399 . S
C412 C411 1.399 . S
C412 C413 1.376 . S
C413 H400 0.930 . S
C413 C412 1.376 . S
C413 C414 1.388 . S
C414 H401 0.930 . S
C414 C413 1.388 . S
C414 C415 1.390 . S
C415 C414 1.390 . S
C415 C416 1.394 . S
C415 C421 1.465 . S
C416 C411 1.399 . S
C416 C415 1.394 . S
C416 C417 1.516 . S
C417 C416 1.516 . S
C417 C418 1.502 . S
C417 C419 1.561 . S
C417 C420 1.526 . S
C418 H402 0.959 . S
C418 H403 0.959 . S
C418 H404 0.961 . S
C418 C417 1.502 . S
C419 H405 0.960 . S
C419 H406 0.961 . S
C419 H407 0.959 . S
C419 C417 1.561 . S
C420 C417 1.526 . S
C420 C421 1.396 . S
C420 C425 1.390 . S
C421 C415 1.465 . S
C421 C420 1.396 . S
C421 C422 1.399 . S
C422 H408 0.929 . S
C422 C421 1.399 . S
C422 C423 1.385 . S
C423 H409 0.931 . S
C423 C422 1.385 . S
C423 C424 1.389 . S
C424 C423 1.389 . S
C424 C425 1.387 . S
C425 H410 0.930 . S
C425 C420 1.390 . S
C425 C424 1.387 . S
H426 C438 0.930 . S
H427 C440 0.930 . S
H428 C441 0.930 . S
H429 C445 0.959 . S
H430 C445 0.959 . S
H431 C445 0.961 . S
H432 C446 0.960 . S
H433 C446 0.961 . S
H434 C446 0.959 . S
H435 C449 0.929 . S
H436 C450 0.931 . S
H437 C452 0.930 . S
C438 H426 0.930 . S
C438 C439 1.399 . S
C438 C443 1.399 . S
C439 C438 1.399 . S
C439 C440 1.376 . S
C440 H427 0.930 . S
C440 C439 1.376 . S
C440 C441 1.388 . S
C441 H428 0.930 . S
C441 C440 1.388 . S
C441 C442 1.390 . S
C442 C441 1.390 . S
C442 C443 1.394 . S
C442 C448 1.465 . S
C443 C438 1.399 . S
C443 C442 1.394 . S
C443 C444 1.516 . S
C444 C443 1.516 . S
C444 C445 1.502 . S
C444 C446 1.561 . S
C444 C447 1.526 . S
C445 H429 0.959 . S
C445 H430 0.959 . S
C445 H431 0.961 . S
C445 C444 1.502 . S
C446 H432 0.960 . S
C446 H433 0.961 . S
C446 H434 0.959 . S
C446 C444 1.561 . S
C447 C444 1.526 . S
C447 C448 1.396 . S
C447 C452 1.390 . S
C448 C442 1.465 . S
C448 C447 1.396 . S
C448 C449 1.399 . S
C449 H435 0.929 . S
C449 C448 1.399 . S
C449 C450 1.385 1_556 S
C450 H436 0.931 . S
C450 C449 1.385 1_554 S
C450 C451 1.389 1_554 S
C451 C450 1.389 1_556 S
C451 C452 1.387 . S
C452 H437 0.930 . S
C452 C447 1.390 . S
C452 C451 1.387 . S
H453 C465 0.930 . S
H454 C467 0.930 . S
H455 C468 0.930 . S
H456 C472 0.959 . S
H457 C472 0.959 . S
H458 C472 0.961 . S
H459 C473 0.960 . S
H460 C473 0.961 . S
H461 C473 0.959 . S
H462 C476 0.929 . S
H463 C477 0.931 . S
H464 C479 0.930 . S
C465 H453 0.930 . S
C465 C466 1.399 . S
C465 C470 1.399 . S
C466 C465 1.399 . S
C466 C467 1.376 . S
C467 H454 0.930 . S
C467 C466 1.376 . S
C467 C468 1.388 . S
C468 H455 0.930 . S
C468 C467 1.388 . S
C468 C469 1.390 . S
C469 C468 1.390 . S
C469 C470 1.394 . S
C469 C475 1.465 . S
C470 C465 1.399 . S
C470 C469 1.394 . S
C470 C471 1.516 . S
C471 C470 1.516 . S
C471 C472 1.502 . S
C471 C473 1.561 . S
C471 C474 1.526 . S
C472 H456 0.959 . S
C472 H457 0.959 . S
C472 H458 0.961 . S
C472 C471 1.502 . S
C473 H459 0.960 . S
C473 H460 0.961 . S
C473 H461 0.959 . S
C473 C471 1.561 . S
C474 C471 1.526 . S
C474 C475 1.396 . S
C474 C479 1.390 . S
C475 C469 1.465 . S
C475 C474 1.396 . S
C475 C476 1.399 . S
C476 H462 0.929 . S
C476 C475 1.399 . S
C476 C477 1.385 . S
C477 H463 0.931 . S
C477 C476 1.385 . S
C477 C478 1.389 . S
C478 C477 1.389 . S
C478 C479 1.387 . S
C479 H464 0.930 . S
C479 C474 1.390 . S
C479 C478 1.387 . S
H480 C492 0.930 . S
H481 C494 0.930 . S
H482 C495 0.930 . S
H483 C499 0.959 . S
H484 C499 0.959 . S
H485 C499 0.961 . S
H486 C500 0.960 . S
H487 C500 0.961 . S
H488 C500 0.959 . S
H489 C503 0.929 . S
H490 C504 0.931 . S
H491 C506 0.930 . S
C492 H480 0.930 . S
C492 C493 1.399 . S
C492 C497 1.399 . S
C493 C492 1.399 . S
C493 C494 1.376 . S
C494 H481 0.930 . S
C494 C493 1.376 . S
C494 C495 1.388 . S
C495 H482 0.930 . S
C495 C494 1.388 . S
C495 C496 1.390 . S
C496 C495 1.390 . S
C496 C497 1.394 . S
C496 C502 1.465 . S
C497 C492 1.399 . S
C497 C496 1.394 . S
C497 C498 1.516 . S
C498 C497 1.516 . S
C498 C499 1.502 . S
C498 C500 1.561 . S
C498 C501 1.526 . S
C499 H483 0.959 . S
C499 H484 0.959 . S
C499 H485 0.961 . S
C499 C498 1.502 . S
C500 H486 0.960 . S
C500 H487 0.961 . S
C500 H488 0.959 . S
C500 C498 1.561 . S
C501 C498 1.526 . S
C501 C502 1.396 . S
C501 C506 1.390 . S
C502 C496 1.465 . S
C502 C501 1.396 . S
C502 C503 1.399 . S
C503 H489 0.929 . S
C503 C502 1.399 . S
C503 C504 1.385 . S
C504 H490 0.931 . S
C504 C503 1.385 . S
C504 C505 1.389 . S
C505 C504 1.389 . S
C505 C506 1.387 . S
C506 H491 0.930 . S
C506 C501 1.390 . S
C506 C505 1.387 . S
H507 C519 0.930 . S
H508 C521 0.930 . S
H509 C522 0.930 . S
H510 C526 0.959 . S
H511 C526 0.959 . S
H512 C526 0.961 . S
H513 C527 0.960 . S
H514 C527 0.961 . S
H515 C527 0.959 . S
H516 C530 0.929 . S
H517 C531 0.930 . S
H518 C533 0.930 . S
C519 H507 0.930 . S
C519 C520 1.399 . S
C519 C524 1.399 . S
C520 C519 1.399 . S
C520 C521 1.376 . S
C521 H508 0.930 . S
C521 C520 1.376 . S
C521 C522 1.388 . S
C522 H509 0.930 . S
C522 C521 1.388 . S
C522 C523 1.390 . S
C523 C522 1.390 . S
C523 C524 1.394 . S
C523 C529 1.465 . S
C524 C519 1.399 . S
C524 C523 1.394 . S
C524 C525 1.516 . S
C525 C524 1.516 . S
C525 C526 1.502 . S
C525 C527 1.561 . S
C525 C528 1.526 . S
C526 H510 0.959 . S
C526 H511 0.959 . S
C526 H512 0.961 . S
C526 C525 1.502 . S
C527 H513 0.960 . S
C527 H514 0.961 . S
C527 H515 0.959 . S
C527 C525 1.561 . S
C528 C525 1.526 . S
C528 C529 1.396 . S
C528 C533 1.390 . S
C529 C523 1.465 . S
C529 C528 1.396 . S
C529 C530 1.399 . S
C530 H516 0.929 . S
C530 C529 1.399 . S
C530 C531 1.385 . S
C531 H517 0.930 . S
C531 C530 1.385 . S
C531 C532 1.389 . S
C532 C531 1.389 . S
C532 C533 1.387 . S
C533 H518 0.930 . S
C533 C528 1.390 . S
C533 C532 1.387 . S
H534 C546 0.930 . S
H535 C548 0.930 . S
H536 C549 0.930 . S
H537 C553 0.959 . S
H538 C553 0.959 . S
H539 C553 0.961 . S
H540 C554 0.960 . S
H541 C554 0.961 . S
H542 C554 0.959 . S
H543 C557 0.929 . S
H544 C558 0.931 . S
H545 C560 0.930 . S
C546 H534 0.930 . S
C546 C547 1.399 . S
C546 C551 1.399 . S
C547 C546 1.399 . S
C547 C548 1.376 . S
C548 H535 0.930 . S
C548 C547 1.376 . S
C548 C549 1.388 . S
C549 H536 0.930 . S
C549 C548 1.388 . S
C549 C550 1.390 . S
C550 C549 1.390 . S
C550 C551 1.394 . S
C550 C556 1.465 . S
C551 C546 1.399 . S
C551 C550 1.394 . S
C551 C552 1.516 . S
C552 C551 1.516 . S
C552 C553 1.502 . S
C552 C554 1.561 . S
C552 C555 1.526 . S
C553 H537 0.959 . S
C553 H538 0.959 . S
C553 H539 0.961 . S
C553 C552 1.502 . S
C554 H540 0.960 . S
C554 H541 0.961 . S
C554 H542 0.959 . S
C554 C552 1.561 . S
C555 C552 1.526 . S
C555 C556 1.396 . S
C555 C560 1.390 . S
C556 C550 1.465 . S
C556 C555 1.396 . S
C556 C557 1.399 . S
C557 H543 0.929 . S
C557 C556 1.399 . S
C557 C558 1.385 . S
C558 H544 0.931 . S
C558 C557 1.385 . S
C558 C559 1.389 . S
C559 C558 1.389 . S
C559 C560 1.387 . S
C560 H545 0.930 . S
C560 C555 1.390 . S
C560 C559 1.387 . S
H561 C573 0.930 . S
H562 C575 0.930 . S
H563 C576 0.930 . S
H564 C580 0.959 . S
H565 C580 0.959 . S
H566 C580 0.961 . S
H567 C581 0.960 . S
H568 C581 0.961 . S
H569 C581 0.959 . S
H570 C584 0.929 . S
H571 C585 0.931 . S
H572 C587 0.930 . S
C573 H561 0.930 . S
C573 C574 1.399 . S
C573 C578 1.399 . S
C574 C573 1.399 . S
C574 C575 1.376 . S
C575 H562 0.930 . S
C575 C574 1.376 . S
C575 C576 1.388 . S
C576 H563 0.930 . S
C576 C575 1.388 . S
C576 C577 1.390 . S
C577 C576 1.390 . S
C577 C578 1.394 . S
C577 C583 1.465 . S
C578 C573 1.399 . S
C578 C577 1.394 . S
C578 C579 1.516 . S
C579 C578 1.516 . S
C579 C580 1.502 . S
C579 C581 1.561 . S
C579 C582 1.526 . S
C580 H564 0.959 . S
C580 H565 0.959 . S
C580 H566 0.961 . S
C580 C579 1.502 . S
C581 H567 0.960 . S
C581 H568 0.961 . S
C581 H569 0.959 . S
C581 C579 1.561 . S
C582 C579 1.526 . S
C582 C583 1.396 . S
C582 C587 1.390 . S
C583 C577 1.465 . S
C583 C582 1.396 . S
C583 C584 1.399 . S
C584 H570 0.929 . S
C584 C583 1.399 . S
C584 C585 1.385 . S
C585 H571 0.931 . S
C585 C584 1.385 . S
C585 C586 1.389 . S
C586 C585 1.389 . S
C586 C587 1.387 . S
C587 H572 0.930 . S
C587 C582 1.390 . S
C587 C586 1.387 . S
H588 C600 0.930 . S
H589 C602 0.930 . S
H590 C603 0.930 . S
H591 C607 0.959 . S
H592 C607 0.959 . S
H593 C607 0.961 . S
H594 C608 0.960 . S
H595 C608 0.961 . S
H596 C608 0.959 . S
H597 C611 0.929 . S
H598 C612 0.931 . S
H599 C614 0.930 . S
C600 H588 0.930 . S
C600 C601 1.399 . S
C600 C605 1.399 . S
C601 C600 1.399 . S
C601 C602 1.376 . S
C602 H589 0.930 . S
C602 C601 1.376 . S
C602 C603 1.388 . S
C603 H590 0.930 . S
C603 C602 1.388 . S
C603 C604 1.390 . S
C604 C603 1.390 . S
C604 C605 1.394 . S
C604 C610 1.465 . S
C605 C600 1.399 . S
C605 C604 1.394 . S
C605 C606 1.516 . S
C606 C605 1.516 . S
C606 C607 1.502 . S
C606 C608 1.561 . S
C606 C609 1.526 . S
C607 H591 0.959 . S
C607 H592 0.959 . S
C607 H593 0.961 . S
C607 C606 1.502 . S
C608 H594 0.960 . S
C608 H595 0.961 . S
C608 H596 0.959 . S
C608 C606 1.561 . S
C609 C606 1.526 . S
C609 C610 1.396 . S
C609 C614 1.390 . S
C610 C604 1.465 . S
C610 C609 1.396 . S
C610 C611 1.399 . S
C611 H597 0.929 . S
C611 C610 1.399 . S
C611 C612 1.385 . S
C612 H598 0.931 . S
C612 C611 1.385 . S
C612 C613 1.389 . S
C613 C612 1.389 . S
C613 C614 1.387 . S
C614 H599 0.930 . S
C614 C609 1.390 . S
C614 C613 1.387 . S
H615 C627 0.930 . S
H616 C629 0.930 . S
H617 C630 0.930 . S
H618 C634 0.959 . S
H619 C634 0.959 . S
H620 C634 0.961 . S
H621 C635 0.960 . S
H622 C635 0.961 . S
H623 C635 0.959 . S
H624 C638 0.929 . S
H625 C639 0.931 . S
H626 C641 0.930 . S
C627 H615 0.930 . S
C627 C628 1.399 . S
C627 C632 1.399 . S
C628 C627 1.399 . S
C628 C629 1.376 . S
C629 H616 0.930 . S
C629 C628 1.376 . S
C629 C630 1.388 . S
C630 H617 0.930 . S
C630 C629 1.388 . S
C630 C631 1.390 . S
C631 C630 1.390 . S
C631 C632 1.394 . S
C631 C637 1.465 . S
C632 C627 1.399 . S
C632 C631 1.394 . S
C632 C633 1.516 . S
C633 C632 1.516 . S
C633 C634 1.502 . S
C633 C635 1.561 . S
C633 C636 1.526 . S
C634 H618 0.959 . S
C634 H619 0.959 . S
C634 H620 0.961 . S
C634 C633 1.502 . S
C635 H621 0.960 . S
C635 H622 0.961 . S
C635 H623 0.959 . S
C635 C633 1.561 . S
C636 C633 1.526 . S
C636 C637 1.396 . S
C636 C641 1.390 . S
C637 C631 1.465 . S
C637 C636 1.396 . S
C637 C638 1.399 . S
C638 H624 0.929 . S
C638 C637 1.399 . S
C638 C639 1.385 . S
C639 H625 0.931 . S
C639 C638 1.385 . S
C639 C640 1.389 . S
C640 C639 1.389 . S
C640 C641 1.387 . S
C641 H626 0.930 . S
C641 C636 1.390 . S
C641 C640 1.387 . S
H642 C654 0.930 . S
H643 C656 0.930 . S
H644 C657 0.930 . S
H645 C661 0.959 . S
H646 C661 0.959 . S
H647 C661 0.961 . S
H648 C662 0.960 . S
H649 C662 0.961 . S
H650 C662 0.959 . S
H651 C665 0.929 . S
H652 C666 0.931 . S
H653 C668 0.930 . S
C654 H642 0.930 . S
C654 C655 1.399 . S
C654 C659 1.399 . S
C655 C654 1.399 . S
C655 C656 1.376 . S
C656 H643 0.930 . S
C656 C655 1.376 . S
C656 C657 1.388 . S
C657 H644 0.930 . S
C657 C656 1.388 . S
C657 C658 1.390 . S
C658 C657 1.390 . S
C658 C659 1.394 . S
C658 C664 1.465 . S
C659 C654 1.399 . S
C659 C658 1.394 . S
C659 C660 1.516 . S
C660 C659 1.516 . S
C660 C661 1.502 . S
C660 C662 1.561 . S
C660 C663 1.526 . S
C661 H645 0.959 . S
C661 H646 0.959 . S
C661 H647 0.961 . S
C661 C660 1.502 . S
C662 H648 0.960 . S
C662 H649 0.961 . S
C662 H650 0.959 . S
C662 C660 1.561 . S
C663 C660 1.526 . S
C663 C664 1.396 . S
C663 C668 1.390 . S
C664 C658 1.465 . S
C664 C663 1.396 . S
C664 C665 1.399 . S
C665 H651 0.929 . S
C665 C664 1.399 . S
C665 C666 1.385 . S
C666 H652 0.931 . S
C666 C665 1.385 . S
C666 C667 1.389 . S
C667 C666 1.389 . S
C667 C668 1.387 . S
C668 H653 0.930 . S
C668 C663 1.390 . S
C668 C667 1.387 . S
H669 C681 0.930 . S
H670 C683 0.930 . S
H671 C684 0.930 . S
H672 C688 0.959 . S
H673 C688 0.959 . S
H674 C688 0.961 . S
H675 C689 0.960 . S
H676 C689 0.961 . S
H677 C689 0.959 . S
H678 C692 0.929 . S
H679 C693 0.931 . S
H680 C695 0.930 . S
C681 H669 0.930 . S
C681 C682 1.399 . S
C681 C686 1.399 . S
C682 C681 1.399 . S
C682 C683 1.376 . S
C683 H670 0.930 . S
C683 C682 1.376 . S
C683 C684 1.388 . S
C684 H671 0.930 . S
C684 C683 1.388 . S
C684 C685 1.390 . S
C685 C684 1.390 . S
C685 C686 1.394 . S
C685 C691 1.465 . S
C686 C681 1.399 . S
C686 C685 1.394 . S
C686 C687 1.516 . S
C687 C686 1.516 . S
C687 C688 1.502 . S
C687 C689 1.561 . S
C687 C690 1.526 . S
C688 H672 0.959 . S
C688 H673 0.959 . S
C688 H674 0.961 . S
C688 C687 1.502 . S
C689 H675 0.960 . S
C689 H676 0.961 . S
C689 H677 0.959 . S
C689 C687 1.561 . S
C690 C687 1.526 . S
C690 C691 1.396 . S
C690 C695 1.390 . S
C691 C685 1.465 . S
C691 C690 1.396 . S
C691 C692 1.399 . S
C692 H678 0.929 . S
C692 C691 1.399 . S
C692 C693 1.385 . S
C693 H679 0.931 . S
C693 C692 1.385 . S
C693 C694 1.389 . S
C694 C693 1.389 . S
C694 C695 1.387 . S
C695 H680 0.930 . S
C695 C690 1.390 . S
C695 C694 1.387 . S
H696 C708 0.930 . S
H697 C710 0.930 . S
H698 C711 0.930 . S
H699 C715 0.959 . S
H700 C715 0.959 . S
H701 C715 0.961 . S
H702 C716 0.960 . S
H703 C716 0.961 . S
H704 C716 0.959 . S
H705 C719 0.929 . S
H706 C720 0.931 . S
H707 C722 0.930 . S
C708 H696 0.930 . S
C708 C709 1.399 . S
C708 C713 1.399 . S
C709 C708 1.399 . S
C709 C710 1.376 . S
C710 H697 0.930 . S
C710 C709 1.376 . S
C710 C711 1.388 . S
C711 H698 0.930 . S
C711 C710 1.388 . S
C711 C712 1.390 . S
C712 C711 1.390 . S
C712 C713 1.394 . S
C712 C718 1.465 . S
C713 C708 1.399 . S
C713 C712 1.394 . S
C713 C714 1.516 . S
C714 C713 1.516 . S
C714 C715 1.502 . S
C714 C716 1.561 . S
C714 C717 1.526 . S
C715 H699 0.959 . S
C715 H700 0.959 . S
C715 H701 0.961 . S
C715 C714 1.502 . S
C716 H702 0.960 . S
C716 H703 0.961 . S
C716 H704 0.959 . S
C716 C714 1.561 . S
C717 C714 1.526 . S
C717 C718 1.396 . S
C717 C722 1.390 . S
C718 C712 1.465 . S
C718 C717 1.396 . S
C718 C719 1.399 . S
C719 H705 0.929 . S
C719 C718 1.399 . S
C719 C720 1.385 . S
C720 H706 0.931 . S
C720 C719 1.385 . S
C720 C721 1.389 . S
C721 C720 1.389 . S
C721 C722 1.387 . S
C722 H707 0.930 . S
C722 C717 1.390 . S
C722 C721 1.387 . S
H723 C735 0.930 . S
H724 C737 0.930 . S
H725 C738 0.930 . S
H726 C742 0.959 . S
H727 C742 0.959 . S
H728 C742 0.961 . S
H729 C743 0.960 . S
H730 C743 0.961 . S
H731 C743 0.959 . S
H732 C746 0.929 . S
H733 C747 0.931 . S
H734 C749 0.930 . S
C735 H723 0.930 . S
C735 C736 1.399 . S
C735 C740 1.399 . S
C736 C735 1.399 . S
C736 C737 1.376 . S
C737 H724 0.930 . S
C737 C736 1.376 . S
C737 C738 1.388 . S
C738 H725 0.930 . S
C738 C737 1.388 . S
C738 C739 1.390 . S
C739 C738 1.390 . S
C739 C740 1.394 . S
C739 C745 1.465 . S
C740 C735 1.399 . S
C740 C739 1.394 . S
C740 C741 1.516 . S
C741 C740 1.516 . S
C741 C742 1.502 . S
C741 C743 1.561 . S
C741 C744 1.526 . S
C742 H726 0.959 . S
C742 H727 0.959 . S
C742 H728 0.961 . S
C742 C741 1.502 . S
C743 H729 0.960 . S
C743 H730 0.961 . S
C743 H731 0.959 . S
C743 C741 1.561 . S
C744 C741 1.526 . S
C744 C745 1.396 . S
C744 C749 1.390 . S
C745 C739 1.465 . S
C745 C744 1.396 . S
C745 C746 1.399 . S
C746 H732 0.929 . S
C746 C745 1.399 . S
C746 C747 1.385 . S
C747 H733 0.931 . S
C747 C746 1.385 . S
C747 C748 1.389 . S
C748 C747 1.389 . S
C748 C749 1.387 . S
C749 H734 0.930 . S
C749 C744 1.390 . S
C749 C748 1.387 . S
H750 C762 0.930 . S
H751 C764 0.930 . S
H752 C765 0.930 . S
H753 C769 0.959 . S
H754 C769 0.959 . S
H755 C769 0.961 . S
H756 C770 0.960 . S
H757 C770 0.961 . S
H758 C770 0.959 . S
H759 C773 0.929 . S
H760 C774 0.931 . S
H761 C776 0.930 . S
C762 H750 0.930 . S
C762 C763 1.399 . S
C762 C767 1.399 . S
C763 C762 1.399 . S
C763 C764 1.376 . S
C764 H751 0.930 . S
C764 C763 1.376 . S
C764 C765 1.388 . S
C765 H752 0.930 . S
C765 C764 1.388 . S
C765 C766 1.390 . S
C766 C765 1.390 . S
C766 C767 1.394 . S
C766 C772 1.465 . S
C767 C762 1.399 . S
C767 C766 1.394 . S
C767 C768 1.516 . S
C768 C767 1.516 . S
C768 C769 1.502 . S
C768 C770 1.561 . S
C768 C771 1.526 . S
C769 H753 0.959 . S
C769 H754 0.959 . S
C769 H755 0.961 . S
C769 C768 1.502 . S
C770 H756 0.960 . S
C770 H757 0.961 . S
C770 H758 0.959 . S
C770 C768 1.561 . S
C771 C768 1.526 . S
C771 C772 1.396 . S
C771 C776 1.390 . S
C772 C766 1.465 . S
C772 C771 1.396 . S
C772 C773 1.399 . S
C773 H759 0.929 . S
C773 C772 1.399 . S
C773 C774 1.385 . S
C774 H760 0.931 . S
C774 C773 1.385 . S
C774 C775 1.389 . S
C775 C774 1.389 . S
C775 C776 1.387 . S
C776 H761 0.930 . S
C776 C771 1.390 . S
C776 C775 1.387 . S
H777 C789 0.930 . S
H778 C791 0.930 . S
H779 C792 0.930 . S
H780 C796 0.959 . S
H781 C796 0.959 . S
H782 C796 0.961 . S
H783 C797 0.960 . S
H784 C797 0.961 . S
H785 C797 0.959 . S
H786 C800 0.929 . S
H787 C801 0.931 . S
H788 C803 0.930 . S
C789 H777 0.930 . S
C789 C790 1.399 . S
C789 C794 1.399 . S
C790 C789 1.399 . S
C790 C791 1.376 . S
C791 H778 0.930 . S
C791 C790 1.376 . S
C791 C792 1.388 . S
C792 H779 0.930 . S
C792 C791 1.388 . S
C792 C793 1.390 . S
C793 C792 1.390 . S
C793 C794 1.394 . S
C793 C799 1.465 . S
C794 C789 1.399 . S
C794 C793 1.394 . S
C794 C795 1.516 . S
C795 C794 1.516 . S
C795 C796 1.502 . S
C795 C797 1.561 . S
C795 C798 1.526 . S
C796 H780 0.959 . S
C796 H781 0.959 . S
C796 H782 0.961 . S
C796 C795 1.502 . S
C797 H783 0.960 . S
C797 H784 0.961 . S
C797 H785 0.959 . S
C797 C795 1.561 . S
C798 C795 1.526 . S
C798 C799 1.396 . S
C798 C803 1.390 . S
C799 C793 1.465 . S
C799 C798 1.396 . S
C799 C800 1.399 . S
C800 H786 0.929 . S
C800 C799 1.399 . S
C800 C801 1.385 . S
C801 H787 0.931 . S
C801 C800 1.385 . S
C801 C802 1.389 . S
C802 C801 1.389 . S
C802 C803 1.387 . S
C803 H788 0.930 . S
C803 C798 1.390 . S
C803 C802 1.387 . S
H804 C816 0.930 . S
H805 C818 0.930 . S
H806 C819 0.930 . S
H807 C823 0.959 . S
H808 C823 0.959 . S
H809 C823 0.961 . S
H810 C824 0.960 . S
H811 C824 0.961 . S
H812 C824 0.959 . S
H813 C827 0.929 . S
H814 C828 0.931 . S
H815 C830 0.930 . S
C816 H804 0.930 . S
C816 C817 1.399 . S
C816 C821 1.399 . S
C817 C816 1.399 . S
C817 C818 1.376 . S
C818 H805 0.930 . S
C818 C817 1.376 . S
C818 C819 1.388 . S
C819 H806 0.930 . S
C819 C818 1.388 . S
C819 C820 1.390 . S
C820 C819 1.390 . S
C820 C821 1.394 . S
C820 C826 1.465 . S
C821 C816 1.399 . S
C821 C820 1.394 . S
C821 C822 1.516 . S
C822 C821 1.516 . S
C822 C823 1.502 . S
C822 C824 1.561 . S
C822 C825 1.526 . S
C823 H807 0.959 . S
C823 H808 0.959 . S
C823 H809 0.961 . S
C823 C822 1.502 . S
C824 H810 0.960 . S
C824 H811 0.961 . S
C824 H812 0.959 . S
C824 C822 1.561 . S
C825 C822 1.526 . S
C825 C826 1.396 . S
C825 C830 1.390 . S
C826 C820 1.465 . S
C826 C825 1.396 . S
C826 C827 1.399 . S
C827 H813 0.929 . S
C827 C826 1.399 . S
C827 C828 1.385 . S
C828 H814 0.931 . S
C828 C827 1.385 . S
C828 C829 1.389 . S
C829 C828 1.389 . S
C829 C830 1.387 . S
C830 H815 0.930 . S
C830 C825 1.390 . S
C830 C829 1.387 . S
H831 C843 0.930 . S
H832 C845 0.930 . S
H833 C846 0.930 . S
H834 C850 0.959 . S
H835 C850 0.959 . S
H836 C850 0.961 . S
H837 C851 0.960 . S
H838 C851 0.961 . S
H839 C851 0.959 . S
H840 C854 0.929 . S
H841 C855 0.931 . S
H842 C857 0.930 . S
C843 H831 0.930 . S
C843 C844 1.399 . S
C843 C848 1.399 . S
C844 C843 1.399 . S
C844 C845 1.376 . S
C845 H832 0.930 . S
C845 C844 1.376 . S
C845 C846 1.388 . S
C846 H833 0.930 . S
C846 C845 1.388 . S
C846 C847 1.390 . S
C847 C846 1.390 . S
C847 C848 1.394 . S
C847 C853 1.465 . S
C848 C843 1.399 . S
C848 C847 1.394 . S
C848 C849 1.516 . S
C849 C848 1.516 . S
C849 C850 1.502 . S
C849 C851 1.561 . S
C849 C852 1.526 . S
C850 H834 0.959 . S
C850 H835 0.959 . S
C850 H836 0.961 . S
C850 C849 1.502 . S
C851 H837 0.960 . S
C851 H838 0.961 . S
C851 H839 0.959 . S
C851 C849 1.561 . S
C852 C849 1.526 . S
C852 C853 1.396 . S
C852 C857 1.390 . S
C853 C847 1.465 . S
C853 C852 1.396 . S
C853 C854 1.399 . S
C854 H840 0.929 . S
C854 C853 1.399 . S
C854 C855 1.385 . S
C855 H841 0.931 . S
C855 C854 1.385 . S
C855 C856 1.389 . S
C856 C855 1.389 . S
C856 C857 1.387 . S
C857 H842 0.930 . S
C857 C852 1.390 . S
C857 C856 1.387 . S
H858 C870 0.930 . S
H859 C872 0.930 . S
H860 C873 0.930 . S
H861 C877 0.959 . S
H862 C877 0.959 . S
H863 C877 0.961 . S
H864 C878 0.960 . S
H865 C878 0.961 . S
H866 C878 0.959 . S
H867 C881 0.929 . S
H868 C882 0.931 . S
H869 C884 0.930 . S
C870 H858 0.930 . S
C870 C871 1.399 . S
C870 C875 1.399 . S
C871 C870 1.399 . S
C871 C872 1.376 . S
C872 H859 0.930 . S
C872 C871 1.376 . S
C872 C873 1.388 . S
C873 H860 0.930 . S
C873 C872 1.388 . S
C873 C874 1.390 . S
C874 C873 1.390 . S
C874 C875 1.394 . S
C874 C880 1.465 . S
C875 C870 1.399 . S
C875 C874 1.394 . S
C875 C876 1.516 . S
C876 C875 1.516 . S
C876 C877 1.502 . S
C876 C878 1.561 . S
C876 C879 1.526 . S
C877 H861 0.959 . S
C877 H862 0.959 . S
C877 H863 0.961 . S
C877 C876 1.502 . S
C878 H864 0.960 . S
C878 H865 0.961 . S
C878 H866 0.959 . S
C878 C876 1.561 . S
C879 C876 1.526 . S
C879 C880 1.396 . S
C879 C884 1.390 . S
C880 C874 1.465 . S
C880 C879 1.396 . S
C880 C881 1.399 . S
C881 H867 0.929 . S
C881 C880 1.399 . S
C881 C882 1.385 . S
C882 H868 0.931 . S
C882 C881 1.385 . S
C882 C883 1.389 . S
C883 C882 1.389 . S
C883 C884 1.387 . S
C884 H869 0.930 . S
C884 C879 1.390 . S
C884 C883 1.387 . S
H885 C897 0.930 . S
H886 C899 0.930 . S
H887 C900 0.930 . S
H888 C904 0.959 . S
H889 C904 0.959 . S
H890 C904 0.961 . S
H891 C905 0.960 . S
H892 C905 0.961 . S
H893 C905 0.959 . S
H894 C908 0.929 . S
H895 C909 0.931 . S
H896 C911 0.930 . S
C897 H885 0.930 . S
C897 C898 1.399 . S
C897 C902 1.399 . S
C898 C897 1.399 . S
C898 C899 1.376 . S
C899 H886 0.930 . S
C899 C898 1.376 . S
C899 C900 1.388 . S
C900 H887 0.930 . S
C900 C899 1.388 . S
C900 C901 1.390 . S
C901 C900 1.390 . S
C901 C902 1.394 . S
C901 C907 1.465 . S
C902 C897 1.399 . S
C902 C901 1.394 . S
C902 C903 1.516 . S
C903 C902 1.516 . S
C903 C904 1.502 . S
C903 C905 1.561 . S
C903 C906 1.526 . S
C904 H888 0.959 . S
C904 H889 0.959 . S
C904 H890 0.961 . S
C904 C903 1.502 . S
C905 H891 0.960 . S
C905 H892 0.961 . S
C905 H893 0.959 . S
C905 C903 1.561 . S
C906 C903 1.526 . S
C906 C907 1.396 . S
C906 C911 1.390 . S
C907 C901 1.465 . S
C907 C906 1.396 . S
C907 C908 1.399 . S
C908 H894 0.929 . S
C908 C907 1.399 . S
C908 C909 1.385 . S
C909 H895 0.931 . S
C909 C908 1.385 . S
C909 C910 1.389 . S
C910 C909 1.389 . S
C910 C911 1.387 . S
C911 H896 0.930 . S
C911 C906 1.390 . S
C911 C910 1.387 . S
C277 C9 1.382 . S
C289 C110 1.439 . S
C304 C21 1.097 . S
C316 C159 1.081 . S
C343 C194 2.217 . S
C331 C30 2.230 . S
C358 C43 2.158 . S
C370 C233 2.270 1_655 S
C397 C154 2.089 . S
C385 C4 1.804 . S
C424 C113 1.475 . S
C412 C22 1.591 . S
C451 C243 1.574 1_556 S
C439 C34 1.619 . S
C478 C202 1.514 . S
C466 C48 1.548 . S
C493 C8 1.579 . S
C505 C230 1.598 . S
C532 C162 2.284 . S
C520 C35 2.325 . S
C547 C47 2.563 . S
C559 C123 2.549 . S
C574 C17 0.887 . S
C586 C199 0.836 . S
C613 C119 1.048 . S
C601 C60 0.987 . S
C628 C74 1.125 . S
C640 C150 1.071 . S
C655 C82 1.962 . S
C667 C203 1.971 . S
C682 C100 2.747 . S
C694 C242 2.697 . S
C709 C61 2.435 . S
C721 C163 2.514 . S
C748 C122 0.715 . S
C736 C73 0.778 . S
C775 C234 2.120 . S
C763 C87 2.193 . S
C802 C193 1.288 . S
C790 C95 1.302 . S
C817 C56 1.498 . S
C829 C239 1.490 . S
C856 C153 2.469 . S
C844 C86 2.532 . S
C883 C114 2.355 . S
C871 C99 2.346 . S
C898 C69 0.776 . S
C910 C190 0.692 . S
