# Generated by pormake.
# Topology anh, (6,3)-cn, num edge types: 1
# Building blocks:
#     Node 0, Type 0, BuildingBlock: BETFEN_clean_sbu_0, # of connection points: 6
#     Node 1, Type 0, BuildingBlock: BETFEN_clean_sbu_0, # of connection points: 6
#     Node 2, Type 0, BuildingBlock: BETFEN_clean_sbu_0, # of connection points: 6
#     Node 3, Type 1, BuildingBlock: KAKCAD_clean_linker_0, # of connection points: 3
#     Node 4, Type 1, BuildingBlock: KAKCAD_clean_linker_0, # of connection points: 3
#     Node 5, Type 1, BuildingBlock: KAKCAD_clean_linker_0, # of connection points: 3
#     Node 6, Type 1, BuildingBlock: KAKCAD_clean_linker_0, # of connection points: 3
#     Node 7, Type 1, BuildingBlock: KAKCAD_clean_linker_0, # of connection points: 3
#     Node 8, Type 1, BuildingBlock: KAKCAD_clean_linker_0, # of connection points: 3
#     Edge 9, Type (0, 1), BuildingBlock: EZIPEK_clean_linker_0, # of connection points: 2
#     Edge 10, Type (0, 1), BuildingBlock: EZIPEK_clean_linker_0, # of connection points: 2
#     Edge 11, Type (0, 1), BuildingBlock: EZIPEK_clean_linker_0, # of connection points: 2
#     Edge 12, Type (0, 1), BuildingBlock: EZIPEK_clean_linker_0, # of connection points: 2
#     Edge 13, Type (0, 1), BuildingBlock: EZIPEK_clean_linker_0, # of connection points: 2
#     Edge 14, Type (0, 1), BuildingBlock: EZIPEK_clean_linker_0, # of connection points: 2
#     Edge 15, Type (0, 1), BuildingBlock: EZIPEK_clean_linker_0, # of connection points: 2
#     Edge 16, Type (0, 1), BuildingBlock: EZIPEK_clean_linker_0, # of connection points: 2
#     Edge 17, Type (0, 1), BuildingBlock: EZIPEK_clean_linker_0, # of connection points: 2
#     Edge 18, Type (0, 1), BuildingBlock: EZIPEK_clean_linker_0, # of connection points: 2
#     Edge 19, Type (0, 1), BuildingBlock: EZIPEK_clean_linker_0, # of connection points: 2
#     Edge 20, Type (0, 1), BuildingBlock: EZIPEK_clean_linker_0, # of connection points: 2
#     Edge 21, Type (0, 1), BuildingBlock: EZIPEK_clean_linker_0, # of connection points: 2
#     Edge 22, Type (0, 1), BuildingBlock: EZIPEK_clean_linker_0, # of connection points: 2
#     Edge 23, Type (0, 1), BuildingBlock: EZIPEK_clean_linker_0, # of connection points: 2
#     Edge 24, Type (0, 1), BuildingBlock: EZIPEK_clean_linker_0, # of connection points: 2
#     Edge 25, Type (0, 1), BuildingBlock: EZIPEK_clean_linker_0, # of connection points: 2
#     Edge 26, Type (0, 1), BuildingBlock: EZIPEK_clean_linker_0, # of connection points: 2
# Relax obj value: 0.213
# Max RMSD: 0.223
# Mean RMSD: 0.164
data_MOF--net-anh--node1-BETFEN_clean_sbu_0--node2-KAKCAD_clean_linker_0--edge1-EZIPEK_clean_linker_0
_symmetry_space_group_name_H-M    P1
_symmetry_Int_Tables_number       1
_symmetry_cell_setting            triclinic
loop_
_symmetry_equiv_pos_as_xyz
'x, y, z'
_cell_length_a     28.140428
_cell_length_b     30.612245
_cell_length_c     52.839708
_cell_angle_alpha  90.533865
_cell_angle_beta   91.915027
_cell_angle_gamma 105.13964
loop_
_atom_site_label
_atom_site_type_symbol
_atom_site_fract_x
_atom_site_fract_y
_atom_site_fract_z
_atom_type_partial_charge
Pr0 Pr 0.05347 0.51839 0.14712 0.0
Pr1 Pr 0.08157 0.61807 0.14479 0.0
C2 C 0.03252 0.42997 0.15899 0.0
C3 C 0.98829 0.39343 0.16473 0.0
C4 C 0.95626 0.36947 0.1453 0.0
C5 C 0.91463 0.33512 0.15114 0.0
C6 C 0.90436 0.32427 0.17647 0.0
C7 C 0.93628 0.3479 0.19586 0.0
C8 C 0.97794 0.38203 0.19006 0.0
C9 C 0.04764 0.54971 0.09778 0.0
C10 C 0.96416 0.56805 0.14249 0.0
C11 C 0.1201 0.7074 0.13725 0.0
C12 C 0.16678 0.74071 0.14419 0.0
C13 C 0.19792 0.73166 0.16365 0.0
C14 C 0.24036 0.76473 0.17157 0.0
C15 C 0.25236 0.80707 0.16 0.0
C16 C 0.22209 0.81566 0.14003 0.0
C17 C 0.1794 0.78265 0.13222 0.0
C18 C 0.05975 0.58601 0.19364 0.0
C19 C 0.17318 0.56786 0.14534 0.0
O20 O 0.04648 0.46284 0.17575 0.0
O21 O 0.03718 0.44415 0.13572 0.0
O22 O 0.08214 0.56524 0.11384 0.0
O23 O 1.0143 0.51664 0.10702 0.0
O24 O 0.99745 0.60024 0.13152 0.0
O25 O 0.97873 0.53657 0.15514 0.0
O26 O 0.12193 0.67621 0.12058 0.0
O27 O 0.09235 0.69142 0.15605 0.0
O28 O 0.08596 0.57127 0.1785 0.0
O29 O 0.04414 0.61843 0.18369 0.0
O30 O 0.13887 0.52907 0.14317 0.0
O31 O 0.16134 0.60656 0.14853 0.0
H32 H 0.96328 0.37719 0.1256 0.0
H33 H 0.89044 0.31698 0.13595 0.0
H34 H 0.92897 0.33977 0.2155 0.0
H35 H 1.00206 0.39955 0.20544 0.0
H36 H 0.18884 0.69939 0.17305 0.0
H37 H 0.26341 0.75761 0.18698 0.0
H38 H 0.23092 0.84823 0.13095 0.0
H39 H 0.15577 0.79015 0.11718 0.0
Pr40 Pr 0.60739 0.07245 0.52373 0.0
Pr41 Pr 0.49857 0.04631 0.52328 0.0
C42 C 0.7017 0.11039 0.51207 0.0
C43 C 0.73258 0.15561 0.50546 0.0
C44 C 0.77983 0.17188 0.51684 0.0
C45 C 0.81048 0.21356 0.50986 0.0
C46 C 0.79445 0.23946 0.49124 0.0
C47 C 0.7469 0.22373 0.48018 0.0
C48 C 0.7161 0.18227 0.48731 0.0
C49 C 0.56924 0.0602 0.57166 0.0
C50 C 0.54964 0.16155 0.52515 0.0
C51 C 0.40368 1.00499 0.5317 0.0
C52 C 0.3711 0.96102 0.52308 0.0
C53 C 0.38181 0.93926 0.50127 0.0
C54 C 0.35096 0.89763 0.49298 0.0
C55 C 0.3092 0.87692 0.5065 0.0
C56 C 0.29891 0.89821 0.52856 0.0
C57 C 0.32966 0.94008 0.53677 0.0
C58 C 0.53427 0.05665 0.47468 0.0
C59 C 0.55752 0.95734 0.5243 0.0
O60 O 0.66734 0.09028 0.49539 0.0
O61 O 0.68761 0.10469 0.53542 0.0
O62 O 0.55396 0.08116 0.55406 0.0
O63 O 0.60692 0.04583 0.56526 0.0
O64 O 0.50851 0.12844 0.52878 0.0
O65 O 0.59056 0.14803 0.52099 0.0
O66 O 0.43984 1.00317 0.54753 0.0
O67 O 0.41718 1.0351 0.51414 0.0
O68 O 0.55171 1.03773 0.49256 0.0
O69 O 0.49536 0.06839 0.48137 0.0
O70 O 0.59928 0.99034 0.52221 0.0
O71 O 0.51581 0.97075 0.52597 0.0
H72 H 0.79329 0.152 0.53087 0.0
H73 H 0.84708 0.22519 0.51857 0.0
H74 H 0.73389 0.24334 0.46584 0.0
H75 H 0.67971 0.1708 0.47833 0.0
H76 H 0.41395 0.9546 0.49059 0.0
H77 H 0.35954 0.88159 0.47599 0.0
H78 H 0.26683 0.88263 0.53921 0.0
H79 H 0.32105 0.95616 0.55374 0.0
Pr80 Pr 0.55129 0.5222 0.82032 0.0
Pr81 Pr 0.58322 0.61989 0.82476 0.0
C82 C 0.50999 0.4341 0.80893 0.0
C83 C 0.46201 0.40127 0.8105 0.0
C84 C 0.42408 0.41081 0.82447 0.0
C85 C 0.37903 0.37813 0.82622 0.0
C86 C 0.37196 0.33584 0.8141 0.0
C87 C 0.40971 0.3269 0.79987 0.0
C88 C 0.45439 0.3594 0.79807 0.0
C89 C 0.57409 0.55249 0.87053 0.0
C90 C 0.66948 0.56648 0.8238 0.0
C91 C 0.60373 0.70906 0.83557 0.0
C92 C 0.5786 0.74193 0.84537 0.0
C93 C 0.57107 0.77561 0.82913 0.0
C94 C 0.54393 0.80503 0.83677 0.0
C95 C 0.52427 0.80177 0.86091 0.0
C96 C 0.53351 0.76954 0.87777 0.0
C97 C 0.56025 0.73941 0.86995 0.0
C98 C 0.5884 0.58903 0.77501 0.0
C99 C 0.46224 0.57402 0.82612 0.0
O100 O 0.53334 0.44829 0.83039 0.0
O101 O 0.51283 0.46624 0.79258 0.0
O102 O 0.54902 0.56874 0.8548 0.0
O103 O 0.58909 0.51997 0.86038 0.0
O104 O 0.65645 0.59941 0.83569 0.0
O105 O 0.63537 0.5356 0.811 0.0
O106 O 0.61422 0.67988 0.85132 0.0
O107 O 0.58802 0.69149 0.81323 0.0
O108 O 0.55278 0.57476 0.7893 0.0
O109 O 0.62341 0.6194 0.78656 0.0
O110 O 0.47296 0.53459 0.8253 0.0
O111 O 0.49737 0.61224 0.8255 0.0
H112 H 0.42955 0.44315 0.83419 0.0
H113 H 0.3502 0.38543 0.83727 0.0
H114 H 0.40472 0.29435 0.79042 0.0
H115 H 0.48325 0.35164 0.78721 0.0
H116 H 0.58519 0.77846 0.81021 0.0
H117 H 0.53747 0.82999 0.8236 0.0
H118 H 0.51898 0.76701 0.89658 0.0
H119 H 0.56575 0.71382 0.88291 0.0
C120 C 0.60254 0.09722 0.35515 0.0
C121 C 0.57588 0.05875 0.36761 0.0
C122 C 0.60476 0.09715 0.32875 0.0
C123 C 0.58209 0.05792 0.31418 0.0
C124 C 0.55775 1.01867 0.32703 0.0
C125 C 0.55393 1.01937 0.35333 0.0
C126 C 0.58241 0.05837 0.2858 0.0
C127 C 0.62096 0.08773 0.27312 0.0
C128 C 0.61998 0.09043 0.24654 0.0
C129 C 0.58094 0.06145 0.23237 0.0
C130 C 0.54293 1.03074 0.24454 0.0
C131 C 0.54343 1.03021 0.27113 0.0
C132 C 0.50232 0.99901 0.22971 0.0
C133 C 0.47807 1.01414 0.20919 0.0
C134 C 0.4867 0.9533 0.23652 0.0
C135 C 0.44718 0.92357 0.22346 0.0
C136 C 0.4224 0.93901 0.20343 0.0
C137 C 0.65963 0.12404 0.23382 0.0
C138 C 0.67822 0.16787 0.24433 0.0
C139 C 0.67962 0.11271 0.21136 0.0
C140 C 0.71789 0.14422 0.20002 0.0
C141 C 0.73691 0.18747 0.21098 0.0
C142 C 0.71653 0.19919 0.23307 0.0
C143 C 0.4382 0.98436 0.19622 0.0
H144 H 0.61996 0.12796 0.36582 0.0
H145 H 0.62313 0.12844 0.31989 0.0
H146 H 0.5412 0.98724 0.31688 0.0
H147 H 0.5335 0.98913 0.36255 0.0
H148 H 0.65237 0.10835 0.28387 0.0
H149 H 0.51241 1.0084 0.28028 0.0
H150 H 0.58002 0.06279 0.21188 0.0
H151 H 0.48905 0.04921 0.20364 0.0
H152 H 0.50504 0.94055 0.25204 0.0
H153 H 0.43536 0.88864 0.22923 0.0
H154 H 0.66307 0.17806 0.26131 0.0
H155 H 0.66646 0.07921 0.20287 0.0
H156 H 0.41924 0.99678 0.18083 0.0
H157 H 0.73062 0.23251 0.2417 0.0
H158 H 0.73328 0.13467 0.18295 0.0
C159 C 0.53317 0.58427 0.65175 0.0
C160 C 0.57067 0.57055 0.66507 0.0
C161 C 0.52966 0.58164 0.62526 0.0
C162 C 0.56319 0.56465 0.61157 0.0
C163 C 0.6002 0.5502 0.62497 0.0
C164 C 0.60412 0.55342 0.65146 0.0
C165 C 0.56001 0.56278 0.58336 0.0
C166 C 0.557 0.60152 0.57002 0.0
C167 C 0.55434 0.60299 0.54346 0.0
C168 C 0.55407 0.55961 0.53012 0.0
C169 C 0.55692 0.51784 0.54388 0.0
C170 C 0.56018 0.52247 0.57044 0.0
C171 C 0.5581 0.4683 0.53406 0.0
C172 C 0.51643 0.43488 0.52357 0.0
C173 C 0.59746 0.44913 0.5419 0.0
C174 C 0.5957 0.40155 0.53955 0.0
C175 C 0.55407 0.36804 0.52936 0.0
C176 C 0.55114 0.65142 0.53324 0.0
C177 C 0.51233 0.6707 0.54064 0.0
C178 C 0.59156 0.68449 0.52322 0.0
C179 C 0.59269 0.73216 0.52076 0.0
C180 C 0.55395 0.75128 0.5286 0.0
C181 C 0.51346 0.71808 0.53826 0.0
C182 C 0.51466 0.38696 0.52114 0.0
H183 H 0.50694 0.59749 0.66188 0.0
H184 H 0.50056 0.59269 0.61545 0.0
H185 H 0.62672 0.53725 0.61491 0.0
H186 H 0.6334 0.54278 0.66137 0.0
H187 H 0.55769 0.63197 0.58086 0.0
H188 H 0.562 0.49339 0.58164 0.0
H189 H 0.5518 0.55841 0.50964 0.0
H190 H 0.48375 0.44538 0.51809 0.0
H191 H 0.63004 0.47127 0.55103 0.0
H192 H 0.62737 0.39073 0.54645 0.0
H193 H 0.48087 0.64891 0.54949 0.0
H194 H 0.6239 0.67396 0.51816 0.0
H195 H 0.48124 0.36421 0.51322 0.0
H196 H 0.48232 0.72905 0.54481 0.0
H197 H 0.6252 0.75461 0.51317 0.0
C198 C 0.10521 0.5946 0.97758 0.0
C199 C 0.06704 0.56319 0.98919 0.0
C200 C 0.10662 0.59639 0.95113 0.0
C201 C 0.06975 0.56686 0.93592 0.0
C202 C 0.03196 0.5351 0.94776 0.0
C203 C 0.03063 0.53332 0.97412 0.0
C204 C 0.0698 0.56926 0.90779 0.0
C205 C 0.11319 0.5737 0.89471 0.0
C206 C 0.11308 0.57413 0.86804 0.0
C207 C 0.06743 0.56892 0.85431 0.0
C208 C 1.02302 0.56457 0.86738 0.0
C209 C 1.02567 0.56603 0.89404 0.0
C210 C 0.97295 0.5587 0.85454 0.0
C211 C 0.96523 0.58403 0.83338 0.0
C212 C 0.93099 0.53104 0.86575 0.0
C213 C 0.88335 0.53198 0.85785 0.0
C214 C 0.87544 0.55908 0.83769 0.0
C215 C 0.16156 0.57906 0.85572 0.0
C216 C 0.20351 0.61218 0.86504 0.0
C217 C 0.16835 0.54725 0.83769 0.0
C218 C 0.21612 0.54709 0.83038 0.0
C219 C 0.25797 0.57883 0.84088 0.0
C220 C 0.25094 0.61199 0.85778 0.0
C221 C 0.91698 0.58378 0.82487 0.0
H222 H 0.13364 0.61785 0.989 0.0
H223 H 0.13597 0.62139 0.94259 0.0
H224 H 1.00346 0.5114 0.9366 0.0
H225 H 1.0011 0.50871 0.98281 0.0
H226 H 0.14726 0.5756 0.90539 0.0
H227 H 0.99287 0.56507 0.90443 0.0
H228 H 0.06656 0.56827 0.83381 0.0
H229 H 0.99632 0.60562 0.82416 0.0
H230 H 0.93493 0.50972 0.8815 0.0
H231 H 0.85244 0.51202 0.86795 0.0
H232 H 0.19977 0.6373 0.87887 0.0
H233 H 0.13709 0.52099 0.83034 0.0
H234 H 0.91213 0.60442 0.80895 0.0
H235 H 0.28243 0.63687 0.8661 0.0
H236 H 0.22057 0.52109 0.81733 0.0
C237 C 1.01638 0.55847 0.315 0.0
C238 C 0.06133 0.56626 0.3028 0.0
C239 C 1.01511 0.55507 0.34137 0.0
C240 C 0.05888 0.56009 0.35604 0.0
C241 C 0.10381 0.56765 0.34376 0.0
C242 C 0.10498 0.57032 0.31736 0.0
C243 C 0.05785 0.55855 0.38412 0.0
C244 C 1.02432 0.52349 0.39616 0.0
C245 C 1.02321 0.52184 0.42275 0.0
C246 C 0.0559 0.55647 0.43731 0.0
C247 C 0.08946 0.59217 0.42551 0.0
C248 C 0.09024 0.59258 0.39891 0.0
C249 C 0.12283 0.63005 0.44058 0.0
C250 C 0.10515 0.65059 0.4609 0.0
C251 C 0.1719 0.64797 0.43364 0.0
C252 C 0.20191 0.68638 0.44605 0.0
C253 C 0.18355 0.70768 0.46566 0.0
C254 C 0.98849 0.4833 0.43508 0.0
C255 C 0.93955 0.46714 0.42565 0.0
C256 C 1.00456 0.46094 0.45551 0.0
C257 C 0.97289 0.42253 0.46573 0.0
C258 C 0.92451 0.40605 0.45584 0.0
C259 C 0.90786 0.42896 0.43597 0.0
C260 C 0.13524 0.68913 0.4733 0.0
H261 H 0.98232 0.55527 0.30408 0.0
H262 H 0.98004 0.54954 0.35036 0.0
H263 H 0.13803 0.57128 0.3546 0.0
H264 H 0.13998 0.57614 0.30828 0.0
H265 H 0.99997 0.49671 0.38474 0.0
H266 H 0.11507 0.62035 0.38957 0.0
H267 H 0.05512 0.5557 0.45779 0.0
H268 H 0.06748 0.63794 0.46658 0.0
H269 H 0.18691 0.63263 0.41832 0.0
H270 H 0.23915 0.70016 0.43996 0.0
H271 H 0.92585 0.48386 0.41012 0.0
H272 H 0.0421 0.47224 0.46306 0.0
H273 H 0.12047 0.70521 0.4884 0.0
H274 H 0.87062 0.41671 0.42812 0.0
H275 H 0.98637 0.40513 0.48102 0.0
C276 C 0.41727 1.03585 0.66455 0.0
C277 C 0.46825 1.04065 0.66602 0.0
C278 C 0.39048 1.03159 0.68662 0.0
C279 C 0.41425 1.03146 0.71043 0.0
C280 C 0.46534 1.03601 0.71176 0.0
C281 C 0.49217 1.04082 0.68972 0.0
C282 C 0.3863 1.02784 0.73395 0.0
C283 C 0.39336 0.9984 0.75304 0.0
C284 C 0.37027 0.99727 0.77634 0.0
C285 C 0.34004 1.02646 0.78035 0.0
C286 C 0.33383 0.05716 0.76173 0.0
C287 C 0.35586 0.0566 0.73827 0.0
C288 C 0.31247 0.09491 0.76859 0.0
C289 C 0.27058 0.08801 0.78346 0.0
C290 C 0.33854 0.13934 0.76314 0.0
C291 C 0.32537 0.17597 0.77376 0.0
C292 C 0.2858 0.16914 0.78999 0.0
C293 C 0.38159 0.96849 0.79705 0.0
C294 C 0.38932 0.92602 0.79129 0.0
C295 C 0.38836 0.98442 0.82241 0.0
C296 C 0.40483 0.95939 0.84122 0.0
C297 C 0.41619 0.91885 0.8348 0.0
C298 C 0.40687 0.90173 0.80991 0.0
C299 C 0.25702 0.12504 0.79395 0.0
H300 H 0.39838 1.03572 0.64633 0.0
H301 H 0.35117 1.02807 0.6851 0.0
H302 H 0.48469 1.03668 0.72988 0.0
H303 H 0.53155 0.04466 0.69112 0.0
H304 H 0.41828 0.97739 0.74993 0.0
H305 H 0.35177 0.08058 0.72392 0.0
H306 H 0.32345 1.02706 0.79851 0.0
H307 H 0.24964 0.05407 0.7878 0.0
H308 H 0.37134 0.14596 0.75212 0.0
H309 H 0.34797 0.20983 0.77046 0.0
H310 H 0.38311 0.91201 0.7722 0.0
H311 H 0.38319 1.01711 0.82759 0.0
H312 H 0.22604 0.11927 0.80625 0.0
H313 H 0.41463 0.87003 0.8047 0.0
H314 H 0.4112 0.97274 0.86045 0.0
C315 C 0.57638 0.53195 0.99335 0.0
C316 C 0.55788 0.56276 0.97923 0.0
C317 C 0.57656 0.53339 0.01977 0.0
C318 C 0.55811 0.56564 0.03259 0.0
C319 C 0.53848 0.59583 0.01832 0.0
C320 C 0.53855 0.59451 0.9918 0.0
C321 C 0.56085 0.56818 0.06075 0.0
C322 C 0.60402 0.56559 0.07381 0.0
C323 C 0.6074 0.56462 0.10043 0.0
C324 C 0.56595 0.56842 0.1142 0.0
C325 C 0.52228 0.57278 0.10119 0.0
C326 C 0.52054 0.57223 0.07451 0.0
C327 C 0.47695 0.57689 0.11427 0.0
C328 C 0.45317 0.54453 0.13166 0.0
C329 C 0.45283 0.6096 0.10617 0.0
C330 C 0.40535 0.60846 0.11393 0.0
C331 C 0.38051 0.57472 0.13013 0.0
C332 C 0.65515 0.55979 0.1125 0.0
C333 C 0.68134 0.53244 0.10041 0.0
C334 C 0.67807 0.58572 0.13386 0.0
C335 C 0.72671 0.58619 0.14181 0.0
C336 C 0.75392 0.56152 0.12825 0.0
C337 C 0.72997 0.53401 0.10779 0.0
C338 C 0.40536 0.54341 0.13947 0.0
H339 H 0.59127 0.50717 0.9839 0.0
H340 H 0.59126 0.50926 0.03022 0.0
H341 H 0.52427 0.62117 0.02766 0.0
H342 H 0.52415 0.61855 0.9811 0.0
H343 H 0.63573 0.56481 0.0629 0.0
H344 H 0.48692 0.57369 0.06431 0.0
H345 H 0.56756 0.56799 0.1347 0.0
H346 H 0.47028 0.51855 0.13805 0.0
H347 H 0.46997 0.63508 0.09284 0.0
H348 H 0.38717 0.633 0.10647 0.0
H349 H 0.66478 0.51074 0.08443 0.0
H350 H 0.65936 0.60715 0.14373 0.0
H351 H 0.38694 0.51694 0.15194 0.0
H352 H 0.74931 0.51406 0.09713 0.0
H353 H 0.74379 0.60717 0.15795 0.0
C354 C 0.24053 0.5506 0.1195 0.0
C355 C 0.22626 0.5683 0.1422 0.0
C356 C 0.31361 0.59117 0.15711 0.0
C357 C 0.32714 0.57037 0.13529 0.0
N358 N 0.30227 0.52336 0.09784 0.0
N359 N 0.24827 0.59921 0.18437 0.0
C360 C 0.29012 0.54789 0.11719 0.0
C361 C 0.26262 0.58698 0.16148 0.0
N362 N 0.20745 0.5388 0.09944 0.0
N363 N 0.34963 0.61589 0.17336 0.0
H364 H 0.2115 0.5962 0.18833 0.0
H365 H 0.27213 0.6087 0.20011 0.0
H366 H 0.38697 0.61844 0.17116 0.0
H367 H 0.34293 0.63629 0.18797 0.0
H368 H 0.21698 0.5305 0.0815 0.0
H369 H 0.17135 0.54159 0.09988 0.0
H370 H 0.27624 0.50201 0.08572 0.0
H371 H 0.33816 0.5212 0.09521 0.0
C372 C 0.86285 0.28034 0.46385 0.0
C373 C 0.82826 0.28227 0.48253 0.0
C374 C 0.85952 0.36515 0.48521 0.0
C375 C 0.89185 0.36338 0.46539 0.0
N376 N 0.92106 0.32062 0.43369 0.0
N377 N 0.78946 0.32588 0.5093 0.0
C378 C 0.8927 0.32128 0.45416 0.0
C379 C 0.82542 0.32456 0.49275 0.0
N380 N 0.8676 0.23922 0.45563 0.0
N381 N 0.8623 0.40559 0.49719 0.0
H382 H 0.76518 0.2968 0.51599 0.0
H383 H 0.78149 0.35559 0.51527 0.0
H384 H 0.88599 0.43603 0.49176 0.0
H385 H 0.84375 0.40881 0.51352 0.0
H386 H 0.89592 0.23521 0.44442 0.0
H387 H 0.84487 0.2085 0.46132 0.0
H388 H 0.91914 0.29183 0.42267 0.0
H389 H 0.94456 0.34971 0.42654 0.0
C390 C 0.51695 0.87932 0.86877 0.0
C391 C 0.49351 0.83253 0.86736 0.0
C392 C 0.41439 0.84944 0.85908 0.0
C393 C 0.44008 0.8942 0.85318 0.0
N394 N 0.51615 0.95363 0.85399 0.0
N395 N 0.41896 0.77197 0.8639 0.0
C396 C 0.49128 0.91026 0.85931 0.0
C397 C 0.44159 0.81725 0.86416 0.0
N398 N 0.56445 0.89343 0.87803 0.0
N399 N 0.36412 0.83783 0.8588 0.0
H400 H 0.43779 0.74768 0.8682 0.0
H401 H 0.38207 0.75839 0.85853 0.0
H402 H 0.34404 0.86144 0.85498 0.0
H403 H 0.34295 0.80658 0.86461 0.0
H404 H 0.58287 0.92731 0.88132 0.0
H405 H 0.58348 0.87052 0.88471 0.0
H406 H 0.55439 0.96536 0.85512 0.0
H407 H 0.49882 0.97756 0.84719 0.0
C408 C 0.89441 0.6074 0.14104 0.0
C409 C 0.91003 0.56671 0.14034 0.0
C410 C 0.8225 0.52391 0.1387 0.0
C411 C 0.8075 0.56426 0.13466 0.0
N412 N 0.83259 0.6446 0.12676 0.0
N413 N 0.88612 0.48565 0.13213 0.0
C414 C 0.84439 0.60615 0.13443 0.0
C415 C 0.8733 0.5247 0.13755 0.0
N416 N 0.92645 0.64713 0.14907 0.0
N417 N 0.78836 0.48472 0.14405 0.0
H418 H 0.92201 0.48464 0.12865 0.0
H419 H 0.86017 0.4551 0.12786 0.0
H420 H 0.75117 0.48316 0.14599 0.0
H421 H 0.79795 0.45533 0.14936 0.0
H422 H 0.9155 0.67676 0.15193 0.0
H423 H 0.96215 0.64925 0.15593 0.0
H424 H 0.85912 0.67486 0.12393 0.0
H425 H 0.79718 0.64519 0.12065 0.0
C426 C 0.28575 0.79173 0.50375 0.0
C427 C 0.27566 0.83333 0.49708 0.0
C428 C 0.20609 0.79265 0.46935 0.0
C429 C 0.2143 0.75089 0.47719 0.0
N430 N 0.25678 0.70972 0.50447 0.0
N431 N 0.22272 0.87376 0.47652 0.0
C432 C 0.25273 0.75017 0.49515 0.0
C433 C 0.23465 0.83385 0.48081 0.0
N434 N 0.32752 0.79206 0.51782 0.0
N435 N 0.17235 0.79305 0.45016 0.0
H436 H 0.24377 0.90485 0.48379 0.0
H437 H 0.19012 0.87582 0.46731 0.0
H438 H 0.15038 0.76365 0.44142 0.0
H439 H 0.1686 0.82243 0.4415 0.0
H440 H 0.34019 0.76343 0.52085 0.0
H441 H 0.35156 0.82171 0.52521 0.0
H442 H 0.2806 0.7069 0.5195 0.0
H443 H 0.23344 0.6787 0.49846 0.0
C444 C 0.29237 0.28927 0.79557 0.0
C445 C 0.32646 0.29897 0.81643 0.0
C446 C 0.30518 0.21961 0.8281 0.0
C447 C 0.27978 0.20909 0.80429 0.0
N448 N 0.23303 0.23137 0.77051 0.0
N449 N 0.35108 0.27853 0.85752 0.0
C450 C 0.26694 0.24345 0.79009 0.0
C451 C 0.32712 0.26573 0.83469 0.0
N452 N 0.28782 0.32358 0.78015 0.0
N453 N 0.31211 0.18548 0.84304 0.0
H454 H 0.36755 0.31245 0.86215 0.0
H455 H 0.35132 0.25658 0.87242 0.0
H456 H 0.29487 0.15158 0.8389 0.0
H457 H 0.335 0.19039 0.85925 0.0
H458 H 0.30576 0.3573 0.78458 0.0
H459 H 0.26696 0.31892 0.76324 0.0
H460 H 0.22036 0.25431 0.75953 0.0
H461 H 0.21513 0.19742 0.76659 0.0
C462 C 0.52192 0.86949 0.51041 0.0
C463 C 0.55717 0.90427 0.52501 0.0
C464 C 0.59081 0.83924 0.54162 0.0
C465 C 0.55538 0.80452 0.52723 0.0
N466 N 0.4909 0.79052 0.495 0.0
N467 N 0.61976 0.91726 0.55835 0.0
C468 C 0.52168 0.8211 0.51116 0.0
C469 C 0.59043 0.88745 0.54131 0.0
N470 N 0.48773 0.88264 0.49551 0.0
N471 N 0.62595 0.82621 0.55584 0.0
H472 H 0.62015 0.95133 0.55944 0.0
H473 H 0.64044 0.90793 0.57301 0.0
H474 H 0.62525 0.79237 0.55851 0.0
H475 H 0.65734 0.84863 0.56382 0.0
H476 H 0.45625 0.86056 0.48743 0.0
H477 H 0.48975 0.91642 0.49185 0.0
H478 H 0.46877 0.7989 0.48071 0.0
H479 H 0.49001 0.75626 0.49459 0.0
C480 C 0.73514 0.52236 0.8273 0.0
C481 C 0.7226 0.5644 0.82507 0.0
C482 C 0.81071 0.60373 0.83163 0.0
C483 C 0.82356 0.56175 0.831 0.0
N484 N 0.79721 0.48196 0.82059 0.0
N485 N 0.75234 0.6445 0.81713 0.0
C486 C 0.78548 0.52136 0.82632 0.0
C487 C 0.76154 0.60493 0.82482 0.0
N488 N 0.69991 0.48355 0.83211 0.0
N489 N 0.84434 0.64233 0.83998 0.0
H490 H 0.71789 0.64648 0.81017 0.0
H491 H 0.78027 0.67395 0.81465 0.0
H492 H 0.87992 0.64299 0.84642 0.0
H493 H 0.83505 0.67271 0.84307 0.0
H494 H 0.70833 0.45307 0.83609 0.0
H495 H 0.66339 0.48274 0.83529 0.0
H496 H 0.77084 0.45247 0.81487 0.0
H497 H 0.8335 0.48025 0.81877 0.0
C498 C 0.34295 0.84579 0.16041 0.0
C499 C 0.29557 0.84309 0.16974 0.0
C500 C 0.33119 0.90405 0.20071 0.0
C501 C 0.37836 0.90776 0.19085 0.0
N502 N 0.42903 0.88776 0.15921 0.0
N503 N 0.24262 0.87331 0.19585 0.0
C504 C 0.38418 0.88028 0.17001 0.0
C505 C 0.28912 0.87344 0.189 0.0
N506 N 0.34859 0.81456 0.14287 0.0
N507 N 0.32694 0.92879 0.22182 0.0
H508 H 0.21099 0.85038 0.18833 0.0
H509 H 0.23487 0.8978 0.20763 0.0
H510 H 0.35658 0.95276 0.23039 0.0
H511 H 0.29483 0.92379 0.23186 0.0
H512 H 0.38262 0.81118 0.13736 0.0
H513 H 0.31898 0.78992 0.13477 0.0
H514 H 0.43486 0.87227 0.1424 0.0
H515 H 0.46014 0.91213 0.16611 0.0
C516 C 0.57838 0.24764 0.50898 0.0
C517 C 0.55044 0.21479 0.52606 0.0
C518 C 0.52131 0.28144 0.5436 0.0
C519 C 0.55209 0.31469 0.52788 0.0
N520 N 0.6156 0.32647 0.49748 0.0
N521 N 0.50334 0.20728 0.56374 0.0
C522 C 0.58227 0.29659 0.51133 0.0
C523 C 0.52384 0.23385 0.54426 0.0
N524 N 0.59954 0.23204 0.48913 0.0
N525 N 0.489 0.29524 0.55844 0.0
H526 H 0.50602 0.17423 0.56591 0.0
H527 H 0.48853 0.21937 0.57929 0.0
H528 H 0.48804 0.32897 0.55997 0.0
H529 H 0.4609 0.27292 0.56776 0.0
H530 H 0.61523 0.25214 0.47424 0.0
H531 H 0.5972 0.19793 0.48607 0.0
H532 H 0.64369 0.3178 0.48792 0.0
H533 H 0.61731 0.36088 0.49697 0.0
C534 C 0.38455 0.55535 0.85118 0.0
C535 C 0.40969 0.57516 0.82949 0.0
C536 C 0.3356 0.59864 0.81534 0.0
C537 C 0.30943 0.57572 0.83598 0.0
N538 N 0.30659 0.52606 0.87133 0.0
N539 N 0.40675 0.60973 0.78889 0.0
C540 C 0.33324 0.55212 0.85317 0.0
C541 C 0.38456 0.59533 0.81104 0.0
N542 N 0.41036 0.54185 0.87063 0.0
N543 N 0.31398 0.62443 0.80016 0.0
H544 H 0.44221 0.60765 0.78501 0.0
H545 H 0.38875 0.62027 0.77352 0.0
H546 H 0.27784 0.62636 0.80223 0.0
H547 H 0.33276 0.64622 0.78665 0.0
H548 H 0.39558 0.5316 0.88807 0.0
H549 H 0.44814 0.54517 0.87033 0.0
H550 H 0.32018 0.50395 0.88256 0.0
H551 H 0.26935 0.52359 0.87378 0.0
C552 C 0.81284 0.29477 0.1812 0.0
C553 C 0.86064 0.2875 0.18294 0.0
C554 C 0.82735 0.21437 0.20284 0.0
C555 C 0.77919 0.22049 0.19988 0.0
N556 N 0.72458 0.26168 0.18173 0.0
N557 N 0.91215 0.23675 0.19015 0.0
C558 C 0.77148 0.25927 0.18764 0.0
C559 C 0.86747 0.2461 0.19213 0.0
N560 N 0.80719 0.33617 0.17442 0.0
N561 N 0.83513 0.17939 0.21687 0.0
H562 H 0.94235 0.25918 0.18232 0.0
H563 H 0.91802 0.20525 0.19406 0.0
H564 H 0.8068 0.15537 0.22507 0.0
H565 H 0.87006 0.17624 0.22213 0.0
H566 H 0.77409 0.34515 0.17558 0.0
H567 H 0.83652 0.36296 0.16945 0.0
H568 H 0.71655 0.28684 0.17053 0.0
H569 H 0.69347 0.2362 0.18612 0.0
C570 C 0.04604 0.59232 0.05753 0.0
C571 C 0.05503 0.55445 0.07018 0.0
C572 C 0.07962 0.52646 0.03026 0.0
C573 C 0.06482 0.56131 0.01723 0.0
N574 N 1.02855 0.62449 0.01763 0.0
N575 N 0.07932 0.48444 0.06898 0.0
C576 C 0.04672 0.59359 0.03065 0.0
C577 C 0.07153 0.52118 0.05664 0.0
N578 N 0.03801 0.62762 0.07123 0.0
N579 N 0.10289 0.4994 0.01751 0.0
H580 H 0.07753 0.48095 0.08856 0.0
H581 H 0.08525 0.45623 0.05977 0.0
H582 H 0.10926 0.50227 -0.00182 0.0
H583 H 0.11944 0.47655 0.02629 0.0
H584 H 0.03635 0.65824 0.06333 0.0
H585 H 0.03763 0.62796 0.09092 0.0
H586 H 1.00961 0.64543 0.0261 0.0
H587 H 1.02897 0.62689 -0.00204 0.0
C588 C 0.54428 0.09521 0.43282 0.0
C589 C 0.54984 0.05852 0.44791 0.0
C590 C 0.58352 1.02832 0.41139 0.0
C591 C 0.56911 0.06007 0.39549 0.0
N592 N 0.5248 0.11767 0.39095 0.0
N593 N 0.56499 0.98391 0.44895 0.0
C594 C 0.5465 0.09196 0.40614 0.0
C595 C 0.56714 1.02338 0.43662 0.0
N596 N 0.53829 0.13386 0.44386 0.0
N597 N 0.61341 1.00331 0.40261 0.0
H598 H 0.54942 0.9764 0.46647 0.0
H599 H 0.57315 0.95613 0.4403 0.0
H600 H 0.62734 1.00697 0.38447 0.0
H601 H 0.62853 0.98271 0.41425 0.0
H602 H 0.5385 0.16286 0.43362 0.0
H603 H 0.53911 0.13891 0.46341 0.0
H604 H 0.50391 0.13825 0.39806 0.0
H605 H 0.52286 0.11473 0.37125 0.0
C606 C 0.58614 0.62272 0.73175 0.0
C607 C 0.58364 0.58409 0.74688 0.0
C608 C 0.56715 0.53593 0.70844 0.0
C609 C 0.57547 0.57508 0.69328 0.0
N610 N 0.60309 0.65642 0.69066 0.0
N611 N 0.58113 0.50492 0.74916 0.0
C612 C 0.58795 0.61871 0.70499 0.0
C613 C 0.57665 0.5409 0.73509 0.0
N614 N 0.5844 0.66283 0.74274 0.0
N615 N 0.54865 0.494 0.69753 0.0
H616 H 0.58945 0.50765 0.76855 0.0
H617 H 0.5814 0.47369 0.74125 0.0
H618 H 0.54057 0.48896 0.67814 0.0
H619 H 0.53702 0.46468 0.70797 0.0
H620 H 0.58109 0.69071 0.73234 0.0
H621 H 0.58079 0.66686 0.76213 0.0
H622 H 0.61754 0.68873 0.6985 0.0
H623 H 0.60585 0.65499 0.67105 0.0
C624 C 0.54281 0.09435 0.6102 0.0
C625 C 0.54785 0.05523 0.59706 0.0
C626 C 0.50672 1.00731 0.6311 0.0
C627 C 0.49679 0.04585 0.64263 0.0
N628 N 0.50116 0.12557 0.64245 0.0
N629 N 0.52998 0.9738 0.59335 0.0
C630 C 0.51366 0.08928 0.63197 0.0
C631 C 0.52907 1.01151 0.60719 0.0
N632 N 0.56773 0.13639 0.60248 0.0
N633 N 0.49495 0.96668 0.64309 0.0
H634 H 0.54624 0.97522 0.57589 0.0
H635 H 0.51145 0.94104 0.59819 0.0
H636 H 0.47653 0.96175 0.66005 0.0
H637 H 0.50652 0.93868 0.63723 0.0
H638 H 0.56947 0.16612 0.61262 0.0
H639 H 0.59082 0.14143 0.58714 0.0
H640 H 0.50703 0.15686 0.63381 0.0
H641 H 0.48181 0.12366 0.65908 0.0
C642 C 0.52961 0.52574 0.91016 0.0
C643 C 0.5691 0.55625 0.89824 0.0
C644 C 0.60109 0.59127 0.93946 0.0
C645 C 0.56031 0.56227 0.95118 0.0
N646 N 0.48161 0.50718 0.94778 0.0
N647 N 0.63843 0.62201 0.90055 0.0
C648 C 0.52331 0.53102 0.93653 0.0
C649 C 0.6036 0.59028 0.91261 0.0
N650 N 0.49883 0.49102 0.89639 0.0
N651 N 0.6383 0.61862 0.9541 0.0
H652 H 0.64264 0.62112 0.88107 0.0
H653 H 0.66092 0.65086 0.90947 0.0
H654 H 0.63719 0.62117 0.97376 0.0
H655 H 0.67175 0.63657 0.94707 0.0
H656 H 0.47302 0.46457 0.90442 0.0
H657 H 0.50093 0.48695 0.87687 0.0
H658 H 0.45077 0.48758 0.93778 0.0
H659 H 0.47614 0.50984 0.96711 0.0
C660 C 0.09006 0.61587 0.23726 0.0
C661 C 0.06208 0.57991 0.22146 0.0
C662 C 0.03999 0.53292 0.25881 0.0
C663 C 0.06267 0.57072 0.27474 0.0
N664 N 0.10185 0.65076 0.2791 0.0
N665 N 1.00304 0.50702 0.21755 0.0
C666 C 0.0858 0.61295 0.26396 0.0
C667 C 0.0351 0.5391 0.23231 0.0
N668 N 0.12174 0.65233 0.22681 0.0
N669 N 1.02434 0.49085 0.26888 0.0
H670 H 0.99772 0.51087 0.19822 0.0
H671 H 0.97854 0.47873 0.22484 0.0
H672 H 1.02796 0.48484 0.28816 0.0
H673 H 1.01216 0.4614 0.25785 0.0
H674 H 0.14677 0.67728 0.23754 0.0
H675 H 0.12649 0.65543 0.20736 0.0
H676 H 0.11417 0.68324 0.272 0.0
H677 H 0.09854 0.65035 0.2987 0.0
loop_
_geom_bond_atom_site_label_1
_geom_bond_atom_site_label_2
_geom_bond_distance
_geom_bond_site_symmetry_2
_ccdc_geom_bond_type
Pr0 C2 2.880 . S
Pr0 O20 2.562 . S
Pr0 O21 2.490 . S
Pr0 O22 2.695 1_655 S
Pr0 O23 2.512 . S
Pr0 O25 2.437 . S
Pr0 O28 2.436 . S
Pr0 O30 2.438 1_655 S
Pr1 C11 2.880 . S
Pr1 O22 2.436 . S
Pr1 O24 2.438 1_455 S
Pr1 O26 2.562 . S
Pr1 O27 2.490 . S
Pr1 O28 2.695 1_455 S
Pr1 O29 2.512 . S
Pr1 O31 2.437 . S
C2 Pr0 2.880 . S
C2 C3 1.491 . S
C2 O20 1.254 . S
C2 O21 1.225 . S
C3 C2 1.491 . S
C3 C4 1.392 . S
C3 C8 1.356 . S
C4 C3 1.392 . S
C4 C5 1.368 . S
C4 H32 0.929 . S
C5 C4 1.368 . S
C5 C6 1.386 . S
C5 H33 0.929 . S
C6 C5 1.386 . S
C6 C7 1.373 . S
C7 C6 1.373 . S
C7 C8 1.409 . S
C7 H34 0.931 . S
C8 C3 1.356 . S
C8 C7 1.409 . S
C8 H35 0.930 . S
C9 O22 1.270 . S
C9 O23 1.248 1_455 S
C10 O24 1.267 . S
C10 O25 1.278 . S
C11 Pr1 2.880 . S
C11 C12 1.491 . S
C11 O26 1.254 . S
C11 O27 1.225 . S
C12 C11 1.491 . S
C12 C13 1.392 . S
C12 C17 1.356 . S
C13 C12 1.392 . S
C13 C14 1.368 . S
C13 H36 0.929 . S
C14 C13 1.368 . S
C14 C15 1.386 . S
C14 H37 0.929 . S
C15 C14 1.386 . S
C15 C16 1.373 . S
C16 C15 1.373 . S
C16 C17 1.409 . S
C16 H38 0.931 . S
C17 C12 1.356 . S
C17 C16 1.409 . S
C17 H39 0.930 . S
C18 O28 1.270 1_455 S
C18 O29 1.248 . S
C19 O30 1.267 . S
C19 O31 1.278 . S
O20 Pr0 2.562 . S
O20 C2 1.254 . S
O21 Pr0 2.490 . S
O21 C2 1.225 . S
O22 Pr0 2.695 1_455 S
O22 Pr1 2.436 . S
O22 C9 1.270 . S
O23 Pr0 2.512 . S
O23 C9 1.248 1_655 S
O24 Pr1 2.438 1_655 S
O24 C10 1.267 . S
O25 Pr0 2.437 . S
O25 C10 1.278 . S
O26 Pr1 2.562 . S
O26 C11 1.254 . S
O27 Pr1 2.490 . S
O27 C11 1.225 . S
O28 Pr0 2.436 . S
O28 Pr1 2.695 1_655 S
O28 C18 1.270 1_655 S
O29 Pr1 2.512 . S
O29 C18 1.248 . S
O30 Pr0 2.438 1_455 S
O30 C19 1.267 . S
O31 Pr1 2.437 . S
O31 C19 1.278 . S
H32 C4 0.929 . S
H33 C5 0.929 . S
H34 C7 0.931 . S
H35 C8 0.930 . S
H36 C13 0.929 . S
H37 C14 0.929 . S
H38 C16 0.931 . S
H39 C17 0.930 . S
Pr40 C42 2.880 . S
Pr40 O60 2.562 . S
Pr40 O61 2.490 . S
Pr40 O62 2.695 . S
Pr40 O63 2.512 . S
Pr40 O65 2.437 . S
Pr40 O68 2.436 . S
Pr40 O70 2.438 1_545 S
Pr41 C51 2.880 . S
Pr41 O62 2.436 1_565 S
Pr41 O64 2.438 1_565 S
Pr41 O66 2.562 . S
Pr41 O67 2.490 . S
Pr41 O68 2.695 1_565 S
Pr41 O69 2.512 . S
Pr41 O71 2.437 . S
C42 Pr40 2.880 . S
C42 C43 1.491 . S
C42 O60 1.254 . S
C42 O61 1.225 . S
C43 C42 1.491 . S
C43 C44 1.392 . S
C43 C48 1.356 . S
C44 C43 1.392 . S
C44 C45 1.368 . S
C44 H72 0.929 . S
C45 C44 1.368 . S
C45 C46 1.386 . S
C45 H73 0.929 . S
C46 C45 1.386 . S
C46 C47 1.373 . S
C47 C46 1.373 . S
C47 C48 1.409 . S
C47 H74 0.931 . S
C48 C43 1.356 . S
C48 C47 1.409 . S
C48 H75 0.930 . S
C49 O62 1.270 . S
C49 O63 1.248 . S
C50 O64 1.267 . S
C50 O65 1.278 . S
C51 Pr41 2.880 . S
C51 C52 1.491 . S
C51 O66 1.254 . S
C51 O67 1.225 . S
C52 C51 1.491 . S
C52 C53 1.392 . S
C52 C57 1.356 . S
C53 C52 1.392 . S
C53 C54 1.368 . S
C53 H76 0.929 . S
C54 C53 1.368 . S
C54 C55 1.386 . S
C54 H77 0.929 . S
C55 C54 1.386 . S
C55 C56 1.373 . S
C56 C55 1.373 . S
C56 C57 1.409 . S
C56 H78 0.931 . S
C57 C52 1.356 . S
C57 C56 1.409 . S
C57 H79 0.930 . S
C58 O68 1.270 . S
C58 O69 1.248 1_545 S
C59 O70 1.267 . S
C59 O71 1.278 . S
O60 Pr40 2.562 . S
O60 C42 1.254 . S
O61 Pr40 2.490 . S
O61 C42 1.225 . S
O62 Pr40 2.695 . S
O62 Pr41 2.436 1_545 S
O62 C49 1.270 . S
O63 Pr40 2.512 . S
O63 C49 1.248 . S
O64 Pr41 2.438 1_545 S
O64 C50 1.267 . S
O65 Pr40 2.437 . S
O65 C50 1.278 . S
O66 Pr41 2.562 . S
O66 C51 1.254 . S
O67 Pr41 2.490 . S
O67 C51 1.225 . S
O68 Pr40 2.436 . S
O68 Pr41 2.695 1_545 S
O68 C58 1.270 . S
O69 Pr41 2.512 . S
O69 C58 1.248 1_565 S
O70 Pr40 2.438 1_565 S
O70 C59 1.267 . S
O71 Pr41 2.437 . S
O71 C59 1.278 . S
H72 C44 0.929 . S
H73 C45 0.929 . S
H74 C47 0.931 . S
H75 C48 0.930 . S
H76 C53 0.929 . S
H77 C54 0.929 . S
H78 C56 0.931 . S
H79 C57 0.930 . S
Pr80 C82 2.880 . S
Pr80 O100 2.562 . S
Pr80 O101 2.490 . S
Pr80 O102 2.695 . S
Pr80 O103 2.512 . S
Pr80 O105 2.437 . S
Pr80 O108 2.436 . S
Pr80 O110 2.438 . S
Pr81 C91 2.880 . S
Pr81 O102 2.436 . S
Pr81 O104 2.438 . S
Pr81 O106 2.562 . S
Pr81 O107 2.490 . S
Pr81 O108 2.695 . S
Pr81 O109 2.512 . S
Pr81 O111 2.437 . S
C82 Pr80 2.880 . S
C82 C83 1.491 . S
C82 O100 1.254 . S
C82 O101 1.225 . S
C83 C82 1.491 . S
C83 C84 1.392 . S
C83 C88 1.356 . S
C84 C83 1.392 . S
C84 C85 1.368 . S
C84 H112 0.929 . S
C85 C84 1.368 . S
C85 C86 1.386 . S
C85 H113 0.929 . S
C86 C85 1.386 . S
C86 C87 1.373 . S
C87 C86 1.373 . S
C87 C88 1.409 . S
C87 H114 0.931 . S
C88 C83 1.356 . S
C88 C87 1.409 . S
C88 H115 0.930 . S
C89 O102 1.270 . S
C89 O103 1.248 . S
C90 O104 1.267 . S
C90 O105 1.278 . S
C91 Pr81 2.880 . S
C91 C92 1.491 . S
C91 O106 1.254 . S
C91 O107 1.225 . S
C92 C91 1.491 . S
C92 C93 1.392 . S
C92 C97 1.356 . S
C93 C92 1.392 . S
C93 C94 1.368 . S
C93 H116 0.929 . S
C94 C93 1.368 . S
C94 C95 1.386 . S
C94 H117 0.929 . S
C95 C94 1.386 . S
C95 C96 1.373 . S
C96 C95 1.373 . S
C96 C97 1.409 . S
C96 H118 0.931 . S
C97 C92 1.356 . S
C97 C96 1.409 . S
C97 H119 0.930 . S
C98 O108 1.270 . S
C98 O109 1.248 . S
C99 O110 1.267 . S
C99 O111 1.278 . S
O100 Pr80 2.562 . S
O100 C82 1.254 . S
O101 Pr80 2.490 . S
O101 C82 1.225 . S
O102 Pr80 2.695 . S
O102 Pr81 2.436 . S
O102 C89 1.270 . S
O103 Pr80 2.512 . S
O103 C89 1.248 . S
O104 Pr81 2.438 . S
O104 C90 1.267 . S
O105 Pr80 2.437 . S
O105 C90 1.278 . S
O106 Pr81 2.562 . S
O106 C91 1.254 . S
O107 Pr81 2.490 . S
O107 C91 1.225 . S
O108 Pr80 2.436 . S
O108 Pr81 2.695 . S
O108 C98 1.270 . S
O109 Pr81 2.512 . S
O109 C98 1.248 . S
O110 Pr80 2.438 . S
O110 C99 1.267 . S
O111 Pr81 2.437 . S
O111 C99 1.278 . S
H112 C84 0.929 . S
H113 C85 0.929 . S
H114 C87 0.931 . S
H115 C88 0.930 . S
H116 C93 0.929 . S
H117 C94 0.929 . S
H118 C96 0.931 . S
H119 C97 0.930 . S
C120 C121 1.386 . S
C120 C122 1.397 . S
C120 H144 0.931 . S
C121 C120 1.386 . S
C121 C125 1.397 1_545 S
C122 C120 1.397 . S
C122 C123 1.384 . S
C122 H145 0.930 . S
C123 C122 1.384 . S
C123 C124 1.377 1_545 S
C123 C126 1.481 . S
C124 C123 1.377 1_565 S
C124 C125 1.389 . S
C124 H146 0.929 . S
C125 C121 1.397 1_565 S
C125 C124 1.389 . S
C125 H147 0.931 . S
C126 C123 1.481 . S
C126 C127 1.387 . S
C126 C131 1.390 1_545 S
C127 C126 1.387 . S
C127 C128 1.401 . S
C127 H148 0.930 . S
C128 C127 1.401 . S
C128 C129 1.376 . S
C128 C137 1.511 . S
C129 C128 1.376 . S
C129 C130 1.392 1_545 S
C129 H150 0.931 . S
C130 C129 1.392 1_565 S
C130 C131 1.361 . S
C130 C132 1.500 . S
C131 C126 1.390 1_565 S
C131 C130 1.361 . S
C131 H149 0.931 . S
C132 C130 1.500 . S
C132 C133 1.371 . S
C132 C134 1.365 . S
C133 C132 1.371 . S
C133 C143 1.386 . S
C133 H151 0.931 . S
C134 C132 1.365 . S
C134 C135 1.409 . S
C134 H152 0.929 . S
C135 C134 1.409 . S
C135 C136 1.380 . S
C135 H153 0.930 . S
C136 C135 1.380 . S
C136 C143 1.357 . S
C137 C128 1.511 . S
C137 C138 1.341 . S
C137 C139 1.371 . S
C138 C137 1.341 . S
C138 C142 1.394 . S
C138 H154 0.930 . S
C139 C137 1.371 . S
C139 C140 1.392 . S
C139 H155 0.931 . S
C140 C139 1.392 . S
C140 C141 1.331 . S
C140 H158 0.932 . S
C141 C140 1.331 . S
C141 C142 1.336 . S
C142 C138 1.394 . S
C142 C141 1.336 . S
C142 H157 0.929 . S
C143 C133 1.386 . S
C143 C136 1.357 . S
C143 H156 0.928 . S
H144 C120 0.931 . S
H145 C122 0.930 . S
H146 C124 0.929 . S
H147 C125 0.931 . S
H148 C127 0.930 . S
H149 C131 0.931 . S
H150 C129 0.931 . S
H151 C133 0.931 . S
H152 C134 0.929 . S
H153 C135 0.930 . S
H154 C138 0.930 . S
H155 C139 0.931 . S
H156 C143 0.928 . S
H157 C142 0.929 . S
H158 C140 0.932 . S
C159 C160 1.386 . S
C159 C161 1.397 . S
C159 H183 0.931 . S
C160 C159 1.386 . S
C160 C164 1.397 . S
C161 C159 1.397 . S
C161 C162 1.384 . S
C161 H184 0.930 . S
C162 C161 1.384 . S
C162 C163 1.377 . S
C162 C165 1.481 . S
C163 C162 1.377 . S
C163 C164 1.389 . S
C163 H185 0.929 . S
C164 C160 1.397 . S
C164 C163 1.389 . S
C164 H186 0.931 . S
C165 C162 1.481 . S
C165 C166 1.387 . S
C165 C170 1.390 . S
C166 C165 1.387 . S
C166 C167 1.401 . S
C166 H187 0.930 . S
C167 C166 1.401 . S
C167 C168 1.376 . S
C167 C176 1.511 . S
C168 C167 1.376 . S
C168 C169 1.392 . S
C168 H189 0.931 . S
C169 C168 1.392 . S
C169 C170 1.361 . S
C169 C171 1.500 . S
C170 C165 1.390 . S
C170 C169 1.361 . S
C170 H188 0.931 . S
C171 C169 1.500 . S
C171 C172 1.371 . S
C171 C173 1.365 . S
C172 C171 1.371 . S
C172 C182 1.386 . S
C172 H190 0.931 . S
C173 C171 1.365 . S
C173 C174 1.409 . S
C173 H191 0.929 . S
C174 C173 1.409 . S
C174 C175 1.380 . S
C174 H192 0.930 . S
C175 C174 1.380 . S
C175 C182 1.357 . S
C176 C167 1.511 . S
C176 C177 1.341 . S
C176 C178 1.371 . S
C177 C176 1.341 . S
C177 C181 1.394 . S
C177 H193 0.930 . S
C178 C176 1.371 . S
C178 C179 1.392 . S
C178 H194 0.931 . S
C179 C178 1.392 . S
C179 C180 1.331 . S
C179 H197 0.932 . S
C180 C179 1.331 . S
C180 C181 1.336 . S
C181 C177 1.394 . S
C181 C180 1.336 . S
C181 H196 0.929 . S
C182 C172 1.386 . S
C182 C175 1.357 . S
C182 H195 0.928 . S
H183 C159 0.931 . S
H184 C161 0.930 . S
H185 C163 0.929 . S
H186 C164 0.931 . S
H187 C166 0.930 . S
H188 C170 0.931 . S
H189 C168 0.931 . S
H190 C172 0.931 . S
H191 C173 0.929 . S
H192 C174 0.930 . S
H193 C177 0.930 . S
H194 C178 0.931 . S
H195 C182 0.928 . S
H196 C181 0.929 . S
H197 C179 0.932 . S
C198 C199 1.366 1_556 S
C198 C200 1.397 . S
C198 H222 0.931 . S
C199 C198 1.366 1_554 S
C199 C203 1.379 1_454 S
C200 C198 1.397 . S
C200 C201 1.384 . S
C200 H223 0.930 . S
C201 C200 1.384 . S
C201 C202 1.377 1_455 S
C201 C204 1.481 . S
C202 C201 1.377 1_655 S
C202 C203 1.389 . S
C202 H224 0.929 . S
C203 C199 1.379 1_656 S
C203 C202 1.389 . S
C203 H225 0.931 . S
C204 C201 1.481 . S
C204 C205 1.387 . S
C204 C209 1.390 1_455 S
C205 C204 1.387 . S
C205 C206 1.401 . S
C205 H226 0.930 . S
C206 C205 1.401 . S
C206 C207 1.376 . S
C206 C215 1.511 . S
C207 C206 1.376 . S
C207 C208 1.392 1_455 S
C207 H228 0.931 . S
C208 C207 1.392 1_655 S
C208 C209 1.361 . S
C208 C210 1.500 . S
C209 C204 1.390 1_655 S
C209 C208 1.361 . S
C209 H227 0.931 . S
C210 C208 1.500 . S
C210 C211 1.371 . S
C210 C212 1.365 . S
C211 C210 1.371 . S
C211 C221 1.386 . S
C211 H229 0.931 . S
C212 C210 1.365 . S
C212 C213 1.409 . S
C212 H230 0.929 . S
C213 C212 1.409 . S
C213 C214 1.380 . S
C213 H231 0.930 . S
C214 C213 1.380 . S
C214 C221 1.357 . S
C215 C206 1.511 . S
C215 C216 1.341 . S
C215 C217 1.371 . S
C216 C215 1.341 . S
C216 C220 1.394 . S
C216 H232 0.930 . S
C217 C215 1.371 . S
C217 C218 1.392 . S
C217 H233 0.931 . S
C218 C217 1.392 . S
C218 C219 1.331 . S
C218 H236 0.932 . S
C219 C218 1.331 . S
C219 C220 1.336 . S
C220 C216 1.394 . S
C220 C219 1.336 . S
C220 H235 0.929 . S
C221 C211 1.386 . S
C221 C214 1.357 . S
C221 H234 0.928 . S
H222 C198 0.931 . S
H223 C200 0.930 . S
H224 C202 0.929 . S
H225 C203 0.931 . S
H226 C205 0.930 . S
H227 C209 0.931 . S
H228 C207 0.931 . S
H229 C211 0.931 . S
H230 C212 0.929 . S
H231 C213 0.930 . S
H232 C216 0.930 . S
H233 C217 0.931 . S
H234 C221 0.928 . S
H235 C220 0.929 . S
H236 C218 0.932 . S
C237 C238 1.386 . S
C237 C239 1.397 . S
C237 H261 0.931 . S
C238 C237 1.386 . S
C238 C242 1.397 1_655 S
C239 C237 1.397 . S
C239 C240 1.384 . S
C239 H262 0.930 . S
C240 C239 1.384 . S
C240 C241 1.377 1_655 S
C240 C243 1.481 . S
C241 C240 1.377 1_455 S
C241 C242 1.389 . S
C241 H263 0.929 . S
C242 C238 1.397 1_455 S
C242 C241 1.389 . S
C242 H264 0.931 . S
C243 C240 1.481 . S
C243 C244 1.387 . S
C243 C248 1.390 1_655 S
C244 C243 1.387 . S
C244 C245 1.401 . S
C244 H265 0.930 . S
C245 C244 1.401 . S
C245 C246 1.376 1_655 S
C245 C254 1.511 . S
C246 C245 1.376 1_455 S
C246 C247 1.392 . S
C246 H267 0.931 . S
C247 C246 1.392 . S
C247 C248 1.361 . S
C247 C249 1.500 . S
C248 C243 1.390 1_455 S
C248 C247 1.361 . S
C248 H266 0.931 . S
C249 C247 1.500 . S
C249 C250 1.371 . S
C249 C251 1.365 . S
C250 C249 1.371 . S
C250 C260 1.386 . S
C250 H268 0.931 . S
C251 C249 1.365 . S
C251 C252 1.409 . S
C251 H269 0.929 . S
C252 C251 1.409 . S
C252 C253 1.380 . S
C252 H270 0.930 . S
C253 C252 1.380 . S
C253 C260 1.357 . S
C254 C245 1.511 . S
C254 C255 1.341 . S
C254 C256 1.371 . S
C255 C254 1.341 . S
C255 C259 1.394 . S
C255 H271 0.930 . S
C256 C254 1.371 . S
C256 C257 1.392 . S
C256 H272 0.931 . S
C257 C256 1.392 . S
C257 C258 1.331 . S
C257 H275 0.932 . S
C258 C257 1.331 . S
C258 C259 1.336 . S
C259 C255 1.394 . S
C259 C258 1.336 . S
C259 H274 0.929 . S
C260 C250 1.386 . S
C260 C253 1.357 . S
C260 H273 0.928 . S
H261 C237 0.931 . S
H262 C239 0.930 . S
H263 C241 0.929 . S
H264 C242 0.931 . S
H265 C244 0.930 . S
H266 C248 0.931 . S
H267 C246 0.931 . S
H268 C250 0.931 . S
H269 C251 0.929 . S
H270 C252 0.930 . S
H271 C255 0.930 . S
H272 C256 0.931 . S
H273 C260 0.928 . S
H274 C259 0.929 . S
H275 C257 0.932 . S
C276 C277 1.386 1_565 S
C276 C278 1.397 . S
C276 H300 0.931 . S
C277 C276 1.386 1_545 S
C277 C281 1.397 . S
C278 C276 1.397 . S
C278 C279 1.384 1_565 S
C278 H301 0.930 . S
C279 C278 1.384 1_545 S
C279 C280 1.377 . S
C279 C282 1.481 . S
C280 C279 1.377 . S
C280 C281 1.389 . S
C280 H302 0.929 . S
C281 C277 1.397 . S
C281 C280 1.389 . S
C281 H303 0.931 . S
C282 C279 1.481 . S
C282 C283 1.387 1_545 S
C282 C287 1.390 . S
C283 C282 1.387 1_565 S
C283 C284 1.401 . S
C283 H304 0.930 . S
C284 C283 1.401 . S
C284 C285 1.376 1_565 S
C284 C293 1.511 . S
C285 C284 1.376 1_545 S
C285 C286 1.392 . S
C285 H306 0.931 . S
C286 C285 1.392 . S
C286 C287 1.361 . S
C286 C288 1.500 . S
C287 C282 1.390 . S
C287 C286 1.361 . S
C287 H305 0.931 . S
C288 C286 1.500 . S
C288 C289 1.371 . S
C288 C290 1.365 . S
C289 C288 1.371 . S
C289 C299 1.386 . S
C289 H307 0.931 . S
C290 C288 1.365 . S
C290 C291 1.409 . S
C290 H308 0.929 . S
C291 C290 1.409 . S
C291 C292 1.380 . S
C291 H309 0.930 . S
C292 C291 1.380 . S
C292 C299 1.357 . S
C293 C284 1.511 . S
C293 C294 1.341 . S
C293 C295 1.371 . S
C294 C293 1.341 . S
C294 C298 1.394 . S
C294 H310 0.930 . S
C295 C293 1.371 . S
C295 C296 1.392 . S
C295 H311 0.931 . S
C296 C295 1.392 . S
C296 C297 1.331 . S
C296 H314 0.932 . S
C297 C296 1.331 . S
C297 C298 1.336 . S
C298 C294 1.394 . S
C298 C297 1.336 . S
C298 H313 0.929 . S
C299 C289 1.386 . S
C299 C292 1.357 . S
C299 H312 0.928 . S
H300 C276 0.931 . S
H301 C278 0.930 . S
H302 C280 0.929 . S
H303 C281 0.931 . S
H304 C283 0.930 . S
H305 C287 0.931 . S
H306 C285 0.931 . S
H307 C289 0.931 . S
H308 C290 0.929 . S
H309 C291 0.930 . S
H310 C294 0.930 . S
H311 C295 0.931 . S
H312 C299 0.928 . S
H313 C298 0.929 . S
H314 C296 0.932 . S
C315 C316 1.410 . S
C315 C317 1.397 . S
C315 H339 0.931 . S
C316 C315 1.410 . S
C316 C320 1.422 . S
C317 C315 1.397 . S
C317 C318 1.384 . S
C317 H340 0.930 . S
C318 C317 1.384 . S
C318 C319 1.377 . S
C318 C321 1.481 . S
C319 C318 1.377 . S
C319 C320 1.389 . S
C319 H341 0.929 . S
C320 C316 1.422 . S
C320 C319 1.389 . S
C320 H342 0.931 . S
C321 C318 1.481 . S
C321 C322 1.387 . S
C321 C326 1.390 . S
C322 C321 1.387 . S
C322 C323 1.401 . S
C322 H343 0.930 . S
C323 C322 1.401 . S
C323 C324 1.376 . S
C323 C332 1.511 . S
C324 C323 1.376 . S
C324 C325 1.392 . S
C324 H345 0.931 . S
C325 C324 1.392 . S
C325 C326 1.361 . S
C325 C327 1.500 . S
C326 C321 1.390 . S
C326 C325 1.361 . S
C326 H344 0.931 . S
C327 C325 1.500 . S
C327 C328 1.371 . S
C327 C329 1.365 . S
C328 C327 1.371 . S
C328 C338 1.386 . S
C328 H346 0.931 . S
C329 C327 1.365 . S
C329 C330 1.409 . S
C329 H347 0.929 . S
C330 C329 1.409 . S
C330 C331 1.380 . S
C330 H348 0.930 . S
C331 C330 1.380 . S
C331 C338 1.357 . S
C332 C323 1.511 . S
C332 C333 1.341 . S
C332 C334 1.371 . S
C333 C332 1.341 . S
C333 C337 1.394 . S
C333 H349 0.930 . S
C334 C332 1.371 . S
C334 C335 1.392 . S
C334 H350 0.931 . S
C335 C334 1.392 . S
C335 C336 1.331 . S
C335 H353 0.932 . S
C336 C335 1.331 . S
C336 C337 1.336 . S
C337 C333 1.394 . S
C337 C336 1.336 . S
C337 H352 0.929 . S
C338 C328 1.386 . S
C338 C331 1.357 . S
C338 H351 0.928 . S
H339 C315 0.931 . S
H340 C317 0.930 . S
H341 C319 0.929 . S
H342 C320 0.931 . S
H343 C322 0.930 . S
H344 C326 0.931 . S
H345 C324 0.931 . S
H346 C328 0.931 . S
H347 C329 0.929 . S
H348 C330 0.930 . S
H349 C333 0.930 . S
H350 C334 0.931 . S
H351 C338 0.928 . S
H352 C337 0.929 . S
H353 C335 0.932 . S
C354 C355 1.363 . S
C354 C360 1.379 . S
C354 N362 1.356 . S
C355 C354 1.363 . S
C355 C361 1.363 . S
C356 C357 1.363 . S
C356 C361 1.379 . S
C356 N363 1.356 . S
C357 C356 1.363 . S
C357 C360 1.363 . S
N358 C360 1.356 . S
N358 H370 0.984 . S
N358 H371 0.985 . S
N359 C361 1.356 . S
N359 H364 0.984 . S
N359 H365 0.985 . S
C360 C354 1.379 . S
C360 C357 1.363 . S
C360 N358 1.356 . S
C361 C355 1.363 . S
C361 C356 1.379 . S
C361 N359 1.356 . S
N362 C354 1.356 . S
N362 H368 0.984 . S
N362 H369 0.984 . S
N363 C356 1.356 . S
N363 H366 0.984 . S
N363 H367 0.985 . S
H364 N359 0.984 . S
H365 N359 0.985 . S
H366 N363 0.984 . S
H367 N363 0.985 . S
H368 N362 0.984 . S
H369 N362 0.984 . S
H370 N358 0.984 . S
H371 N358 0.985 . S
C372 C373 1.363 . S
C372 C378 1.379 . S
C372 N380 1.356 . S
C373 C372 1.363 . S
C373 C379 1.363 . S
C374 C375 1.363 . S
C374 C379 1.379 . S
C374 N381 1.356 . S
C375 C374 1.363 . S
C375 C378 1.363 . S
N376 C378 1.356 . S
N376 H388 0.984 . S
N376 H389 0.985 . S
N377 C379 1.356 . S
N377 H382 0.984 . S
N377 H383 0.985 . S
C378 C372 1.379 . S
C378 C375 1.363 . S
C378 N376 1.356 . S
C379 C373 1.363 . S
C379 C374 1.379 . S
C379 N377 1.356 . S
N380 C372 1.356 . S
N380 H386 0.984 . S
N380 H387 0.984 . S
N381 C374 1.356 . S
N381 H384 0.984 . S
N381 H385 0.985 . S
H382 N377 0.984 . S
H383 N377 0.985 . S
H384 N381 0.984 . S
H385 N381 0.985 . S
H386 N380 0.984 . S
H387 N380 0.984 . S
H388 N376 0.984 . S
H389 N376 0.985 . S
C390 C391 1.363 . S
C390 C396 1.379 . S
C390 N398 1.356 . S
C391 C390 1.363 . S
C391 C397 1.363 . S
C392 C393 1.363 . S
C392 C397 1.379 . S
C392 N399 1.356 . S
C393 C392 1.363 . S
C393 C396 1.363 . S
N394 C396 1.356 . S
N394 H406 0.984 . S
N394 H407 0.985 . S
N395 C397 1.356 . S
N395 H400 0.984 . S
N395 H401 0.985 . S
C396 C390 1.379 . S
C396 C393 1.363 . S
C396 N394 1.356 . S
C397 C391 1.363 . S
C397 C392 1.379 . S
C397 N395 1.356 . S
N398 C390 1.356 . S
N398 H404 0.984 . S
N398 H405 0.984 . S
N399 C392 1.356 . S
N399 H402 0.984 . S
N399 H403 0.985 . S
H400 N395 0.984 . S
H401 N395 0.985 . S
H402 N399 0.984 . S
H403 N399 0.985 . S
H404 N398 0.984 . S
H405 N398 0.984 . S
H406 N394 0.984 . S
H407 N394 0.985 . S
C408 C409 1.363 . S
C408 C414 1.379 . S
C408 N416 1.356 . S
C409 C408 1.363 . S
C409 C415 1.363 . S
C410 C411 1.363 . S
C410 C415 1.379 . S
C410 N417 1.356 . S
C411 C410 1.363 . S
C411 C414 1.363 . S
N412 C414 1.356 . S
N412 H424 0.984 . S
N412 H425 0.985 . S
N413 C415 1.356 . S
N413 H418 0.984 . S
N413 H419 0.985 . S
C414 C408 1.379 . S
C414 C411 1.363 . S
C414 N412 1.356 . S
C415 C409 1.363 . S
C415 C410 1.379 . S
C415 N413 1.356 . S
N416 C408 1.356 . S
N416 H422 0.984 . S
N416 H423 0.984 . S
N417 C410 1.356 . S
N417 H420 0.984 . S
N417 H421 0.985 . S
H418 N413 0.984 . S
H419 N413 0.985 . S
H420 N417 0.984 . S
H421 N417 0.985 . S
H422 N416 0.984 . S
H423 N416 0.984 . S
H424 N412 0.984 . S
H425 N412 0.985 . S
C426 C427 1.363 . S
C426 C432 1.379 . S
C426 N434 1.356 . S
C427 C426 1.363 . S
C427 C433 1.363 . S
C428 C429 1.363 . S
C428 C433 1.379 . S
C428 N435 1.356 . S
C429 C428 1.363 . S
C429 C432 1.363 . S
N430 C432 1.356 . S
N430 H442 0.984 . S
N430 H443 0.985 . S
N431 C433 1.356 . S
N431 H436 0.984 . S
N431 H437 0.985 . S
C432 C426 1.379 . S
C432 C429 1.363 . S
C432 N430 1.356 . S
C433 C427 1.363 . S
C433 C428 1.379 . S
C433 N431 1.356 . S
N434 C426 1.356 . S
N434 H440 0.984 . S
N434 H441 0.984 . S
N435 C428 1.356 . S
N435 H438 0.984 . S
N435 H439 0.985 . S
H436 N431 0.984 . S
H437 N431 0.985 . S
H438 N435 0.984 . S
H439 N435 0.985 . S
H440 N434 0.984 . S
H441 N434 0.984 . S
H442 N430 0.984 . S
H443 N430 0.985 . S
C444 C445 1.363 . S
C444 C450 1.379 . S
C444 N452 1.356 . S
C445 C444 1.363 . S
C445 C451 1.363 . S
C446 C447 1.363 . S
C446 C451 1.379 . S
C446 N453 1.356 . S
C447 C446 1.363 . S
C447 C450 1.363 . S
N448 C450 1.356 . S
N448 H460 0.984 . S
N448 H461 0.985 . S
N449 C451 1.356 . S
N449 H454 0.984 . S
N449 H455 0.985 . S
C450 C444 1.379 . S
C450 C447 1.363 . S
C450 N448 1.356 . S
C451 C445 1.363 . S
C451 C446 1.379 . S
C451 N449 1.356 . S
N452 C444 1.356 . S
N452 H458 0.984 . S
N452 H459 0.984 . S
N453 C446 1.356 . S
N453 H456 0.984 . S
N453 H457 0.985 . S
H454 N449 0.984 . S
H455 N449 0.985 . S
H456 N453 0.984 . S
H457 N453 0.985 . S
H458 N452 0.984 . S
H459 N452 0.984 . S
H460 N448 0.984 . S
H461 N448 0.985 . S
C462 C463 1.363 . S
C462 C468 1.379 . S
C462 N470 1.356 . S
C463 C462 1.363 . S
C463 C469 1.363 . S
C464 C465 1.363 . S
C464 C469 1.379 . S
C464 N471 1.356 . S
C465 C464 1.363 . S
C465 C468 1.363 . S
N466 C468 1.356 . S
N466 H478 0.984 . S
N466 H479 0.985 . S
N467 C469 1.356 . S
N467 H472 0.984 . S
N467 H473 0.985 . S
C468 C462 1.379 . S
C468 C465 1.363 . S
C468 N466 1.356 . S
C469 C463 1.363 . S
C469 C464 1.379 . S
C469 N467 1.356 . S
N470 C462 1.356 . S
N470 H476 0.984 . S
N470 H477 0.984 . S
N471 C464 1.356 . S
N471 H474 0.984 . S
N471 H475 0.985 . S
H472 N467 0.984 . S
H473 N467 0.985 . S
H474 N471 0.984 . S
H475 N471 0.985 . S
H476 N470 0.984 . S
H477 N470 0.984 . S
H478 N466 0.984 . S
H479 N466 0.985 . S
C480 C481 1.363 . S
C480 C486 1.379 . S
C480 N488 1.356 . S
C481 C480 1.363 . S
C481 C487 1.363 . S
C482 C483 1.363 . S
C482 C487 1.379 . S
C482 N489 1.356 . S
C483 C482 1.363 . S
C483 C486 1.363 . S
N484 C486 1.356 . S
N484 H496 0.984 . S
N484 H497 0.985 . S
N485 C487 1.356 . S
N485 H490 0.984 . S
N485 H491 0.985 . S
C486 C480 1.379 . S
C486 C483 1.363 . S
C486 N484 1.356 . S
C487 C481 1.363 . S
C487 C482 1.379 . S
C487 N485 1.356 . S
N488 C480 1.356 . S
N488 H494 0.984 . S
N488 H495 0.984 . S
N489 C482 1.356 . S
N489 H492 0.984 . S
N489 H493 0.985 . S
H490 N485 0.984 . S
H491 N485 0.985 . S
H492 N489 0.984 . S
H493 N489 0.985 . S
H494 N488 0.984 . S
H495 N488 0.984 . S
H496 N484 0.984 . S
H497 N484 0.985 . S
C498 C499 1.363 . S
C498 C504 1.379 . S
C498 N506 1.356 . S
C499 C498 1.363 . S
C499 C505 1.363 . S
C500 C501 1.363 . S
C500 C505 1.379 . S
C500 N507 1.356 . S
C501 C500 1.363 . S
C501 C504 1.363 . S
N502 C504 1.356 . S
N502 H514 0.984 . S
N502 H515 0.985 . S
N503 C505 1.356 . S
N503 H508 0.984 . S
N503 H509 0.985 . S
C504 C498 1.379 . S
C504 C501 1.363 . S
C504 N502 1.356 . S
C505 C499 1.363 . S
C505 C500 1.379 . S
C505 N503 1.356 . S
N506 C498 1.356 . S
N506 H512 0.984 . S
N506 H513 0.984 . S
N507 C500 1.356 . S
N507 H510 0.984 . S
N507 H511 0.985 . S
H508 N503 0.984 . S
H509 N503 0.985 . S
H510 N507 0.984 . S
H511 N507 0.985 . S
H512 N506 0.984 . S
H513 N506 0.984 . S
H514 N502 0.984 . S
H515 N502 0.985 . S
C516 C517 1.363 . S
C516 C522 1.379 . S
C516 N524 1.356 . S
C517 C516 1.363 . S
C517 C523 1.363 . S
C518 C519 1.363 . S
C518 C523 1.379 . S
C518 N525 1.356 . S
C519 C518 1.363 . S
C519 C522 1.363 . S
N520 C522 1.356 . S
N520 H532 0.984 . S
N520 H533 0.985 . S
N521 C523 1.356 . S
N521 H526 0.984 . S
N521 H527 0.985 . S
C522 C516 1.379 . S
C522 C519 1.363 . S
C522 N520 1.356 . S
C523 C517 1.363 . S
C523 C518 1.379 . S
C523 N521 1.356 . S
N524 C516 1.356 . S
N524 H530 0.984 . S
N524 H531 0.984 . S
N525 C518 1.356 . S
N525 H528 0.984 . S
N525 H529 0.985 . S
H526 N521 0.984 . S
H527 N521 0.985 . S
H528 N525 0.984 . S
H529 N525 0.985 . S
H530 N524 0.984 . S
H531 N524 0.984 . S
H532 N520 0.984 . S
H533 N520 0.985 . S
C534 C535 1.363 . S
C534 C540 1.379 . S
C534 N542 1.356 . S
C535 C534 1.363 . S
C535 C541 1.363 . S
C536 C537 1.363 . S
C536 C541 1.379 . S
C536 N543 1.356 . S
C537 C536 1.363 . S
C537 C540 1.363 . S
N538 C540 1.356 . S
N538 H550 0.984 . S
N538 H551 0.985 . S
N539 C541 1.356 . S
N539 H544 0.984 . S
N539 H545 0.985 . S
C540 C534 1.379 . S
C540 C537 1.363 . S
C540 N538 1.356 . S
C541 C535 1.363 . S
C541 C536 1.379 . S
C541 N539 1.356 . S
N542 C534 1.356 . S
N542 H548 0.984 . S
N542 H549 0.984 . S
N543 C536 1.356 . S
N543 H546 0.984 . S
N543 H547 0.985 . S
H544 N539 0.984 . S
H545 N539 0.985 . S
H546 N543 0.984 . S
H547 N543 0.985 . S
H548 N542 0.984 . S
H549 N542 0.984 . S
H550 N538 0.984 . S
H551 N538 0.985 . S
C552 C553 1.363 . S
C552 C558 1.379 . S
C552 N560 1.356 . S
C553 C552 1.363 . S
C553 C559 1.363 . S
C554 C555 1.363 . S
C554 C559 1.379 . S
C554 N561 1.356 . S
C555 C554 1.363 . S
C555 C558 1.363 . S
N556 C558 1.356 . S
N556 H568 0.984 . S
N556 H569 0.985 . S
N557 C559 1.356 . S
N557 H562 0.984 . S
N557 H563 0.985 . S
C558 C552 1.379 . S
C558 C555 1.363 . S
C558 N556 1.356 . S
C559 C553 1.363 . S
C559 C554 1.379 . S
C559 N557 1.356 . S
N560 C552 1.356 . S
N560 H566 0.984 . S
N560 H567 0.984 . S
N561 C554 1.356 . S
N561 H564 0.984 . S
N561 H565 0.985 . S
H562 N557 0.984 . S
H563 N557 0.985 . S
H564 N561 0.984 . S
H565 N561 0.985 . S
H566 N560 0.984 . S
H567 N560 0.984 . S
H568 N556 0.984 . S
H569 N556 0.985 . S
C570 C571 1.363 . S
C570 C576 1.379 . S
C570 N578 1.356 1_455 S
C571 C570 1.363 . S
C571 C577 1.363 . S
C572 C573 1.363 . S
C572 C577 1.379 . S
C572 N579 1.356 . S
C573 C572 1.363 . S
C573 C576 1.363 . S
N574 C576 1.356 1_655 S
N574 H586 0.984 . S
N574 H587 0.985 1_655 S
N575 C577 1.356 . S
N575 H580 0.984 . S
N575 H581 0.985 . S
C576 C570 1.379 . S
C576 C573 1.363 . S
C576 N574 1.356 1_455 S
C577 C571 1.363 . S
C577 C572 1.379 . S
C577 N575 1.356 . S
N578 C570 1.356 1_655 S
N578 H584 0.984 . S
N578 H585 0.984 . S
N579 C572 1.356 . S
N579 H582 0.984 . S
N579 H583 0.985 . S
H580 N575 0.984 . S
H581 N575 0.985 . S
H582 N579 0.984 . S
H583 N579 0.985 . S
H584 N578 0.984 . S
H585 N578 0.984 . S
H586 N574 0.984 . S
H587 N574 0.985 1_455 S
C588 C589 1.363 . S
C588 C594 1.379 . S
C588 N596 1.356 . S
C589 C588 1.363 . S
C589 C595 1.363 1_545 S
C590 C591 1.363 1_565 S
C590 C595 1.379 . S
C590 N597 1.356 . S
C591 C590 1.363 1_545 S
C591 C594 1.363 . S
N592 C594 1.356 . S
N592 H604 0.984 . S
N592 H605 0.985 . S
N593 C595 1.356 . S
N593 H598 0.984 . S
N593 H599 0.985 . S
C594 C588 1.379 . S
C594 C591 1.363 . S
C594 N592 1.356 . S
C595 C589 1.363 1_565 S
C595 C590 1.379 . S
C595 N593 1.356 . S
N596 C588 1.356 . S
N596 H602 0.984 . S
N596 H603 0.984 . S
N597 C590 1.356 . S
N597 H600 0.984 . S
N597 H601 0.985 . S
H598 N593 0.984 . S
H599 N593 0.985 . S
H600 N597 0.984 . S
H601 N597 0.985 . S
H602 N596 0.984 . S
H603 N596 0.984 . S
H604 N592 0.984 . S
H605 N592 0.985 . S
C606 C607 1.363 . S
C606 C612 1.379 . S
C606 N614 1.356 . S
C607 C606 1.363 . S
C607 C613 1.363 . S
C608 C609 1.363 . S
C608 C613 1.379 . S
C608 N615 1.356 . S
C609 C608 1.363 . S
C609 C612 1.363 . S
N610 C612 1.356 . S
N610 H622 0.984 . S
N610 H623 0.985 . S
N611 C613 1.356 . S
N611 H616 0.984 . S
N611 H617 0.985 . S
C612 C606 1.379 . S
C612 C609 1.363 . S
C612 N610 1.356 . S
C613 C607 1.363 . S
C613 C608 1.379 . S
C613 N611 1.356 . S
N614 C606 1.356 . S
N614 H620 0.984 . S
N614 H621 0.984 . S
N615 C608 1.356 . S
N615 H618 0.984 . S
N615 H619 0.985 . S
H616 N611 0.984 . S
H617 N611 0.985 . S
H618 N615 0.984 . S
H619 N615 0.985 . S
H620 N614 0.984 . S
H621 N614 0.984 . S
H622 N610 0.984 . S
H623 N610 0.985 . S
C624 C625 1.363 . S
C624 C630 1.379 . S
C624 N632 1.356 . S
C625 C624 1.363 . S
C625 C631 1.363 1_545 S
C626 C627 1.363 1_565 S
C626 C631 1.379 . S
C626 N633 1.356 . S
C627 C626 1.363 1_545 S
C627 C630 1.363 . S
N628 C630 1.356 . S
N628 H640 0.984 . S
N628 H641 0.985 . S
N629 C631 1.356 . S
N629 H634 0.984 . S
N629 H635 0.985 . S
C630 C624 1.379 . S
C630 C627 1.363 . S
C630 N628 1.356 . S
C631 C625 1.363 1_565 S
C631 C626 1.379 . S
C631 N629 1.356 . S
N632 C624 1.356 . S
N632 H638 0.984 . S
N632 H639 0.984 . S
N633 C626 1.356 . S
N633 H636 0.984 . S
N633 H637 0.985 . S
H634 N629 0.984 . S
H635 N629 0.985 . S
H636 N633 0.984 . S
H637 N633 0.985 . S
H638 N632 0.984 . S
H639 N632 0.984 . S
H640 N628 0.984 . S
H641 N628 0.985 . S
C642 C643 1.363 . S
C642 C648 1.379 . S
C642 N650 1.356 . S
C643 C642 1.363 . S
C643 C649 1.363 . S
C644 C645 1.363 . S
C644 C649 1.379 . S
C644 N651 1.356 . S
C645 C644 1.363 . S
C645 C648 1.363 . S
N646 C648 1.356 . S
N646 H658 0.984 . S
N646 H659 0.985 . S
N647 C649 1.356 . S
N647 H652 0.984 . S
N647 H653 0.985 . S
C648 C642 1.379 . S
C648 C645 1.363 . S
C648 N646 1.356 . S
C649 C643 1.363 . S
C649 C644 1.379 . S
C649 N647 1.356 . S
N650 C642 1.356 . S
N650 H656 0.984 . S
N650 H657 0.984 . S
N651 C644 1.356 . S
N651 H654 1.014 . S
N651 H655 0.985 . S
H652 N647 0.984 . S
H653 N647 0.985 . S
H654 N651 1.014 . S
H655 N651 0.985 . S
H656 N650 0.984 . S
H657 N650 0.984 . S
H658 N646 0.984 . S
H659 N646 0.985 . S
C660 C661 1.363 . S
C660 C666 1.379 . S
C660 N668 1.356 . S
C661 C660 1.363 . S
C661 C667 1.363 1_455 S
C662 C663 1.363 . S
C662 C667 1.379 . S
C662 N669 1.356 . S
C663 C662 1.363 . S
C663 C666 1.363 1_655 S
N664 C666 1.356 . S
N664 H676 0.984 . S
N664 H677 0.985 . S
N665 C667 1.356 . S
N665 H670 0.984 . S
N665 H671 0.985 . S
C666 C660 1.379 . S
C666 C663 1.363 1_455 S
C666 N664 1.356 . S
C667 C661 1.363 1_655 S
C667 C662 1.379 . S
C667 N665 1.356 . S
N668 C660 1.356 . S
N668 H674 0.984 . S
N668 H675 0.984 . S
N669 C662 1.356 . S
N669 H672 0.984 . S
N669 H673 0.985 . S
H670 N665 0.984 . S
H671 N665 0.985 . S
H672 N669 0.984 . S
H673 N669 0.985 . S
H674 N668 0.984 . S
H675 N668 0.984 . S
H676 N664 0.984 . S
H677 N664 0.985 . S
C355 C19 2.029 . S
C357 C331 1.968 . S
C373 C46 1.351 . S
C375 C258 1.388 . S
C391 C95 0.658 . S
C393 C297 0.586 . S
C409 C10 2.159 . S
C411 C336 2.055 . S
C429 C253 1.380 . S
C427 C55 1.352 . S
C447 C292 0.927 . S
C445 C86 0.882 . S
C463 C59 3.191 . S
C465 C180 3.128 . S
C481 C90 2.188 . S
C483 C214 2.110 . S
C499 C15 1.345 . S
C501 C136 1.388 . S
C519 C175 3.056 . S
C517 C50 3.120 . S
C537 C219 1.979 . S
C535 C99 2.022 . S
C553 C6 1.291 . S
C555 C141 1.314 . S
C573 C199 1.406 . S
C571 C9 1.322 . S
C589 C58 1.449 . S
C591 C121 1.505 . S
C607 C98 1.720 . S
C609 C160 1.792 . S
C627 C277 1.069 . S
C625 C49 1.067 . S
C645 C316 1.309 1_556 S
C643 C89 1.318 . S
C661 C18 1.438 . S
C663 C238 1.485 . S
