# Generated by pormake.
# Topology wbl, (4,4)-cn, num edge types: 1
# Building blocks:
#     Node 0, Type 0, BuildingBlock: MIFKUJ_clean_linker_1, # of connection points: 4
#     Node 1, Type 0, BuildingBlock: MIFKUJ_clean_linker_1, # of connection points: 4
#     Node 2, Type 0, BuildingBlock: MIFKUJ_clean_linker_1, # of connection points: 4
#     Node 3, Type 0, BuildingBlock: MIFKUJ_clean_linker_1, # of connection points: 4
#     Node 4, Type 0, BuildingBlock: MIFKUJ_clean_linker_1, # of connection points: 4
#     Node 5, Type 0, BuildingBlock: MIFKUJ_clean_linker_1, # of connection points: 4
#     Node 6, Type 0, BuildingBlock: MIFKUJ_clean_linker_1, # of connection points: 4
#     Node 7, Type 0, BuildingBlock: MIFKUJ_clean_linker_1, # of connection points: 4
#     Node 8, Type 1, BuildingBlock: QUQFOY_clean_sbu_3, # of connection points: 4
#     Node 9, Type 1, BuildingBlock: QUQFOY_clean_sbu_3, # of connection points: 4
#     Node 10, Type 1, BuildingBlock: QUQFOY_clean_sbu_3, # of connection points: 4
#     Node 11, Type 1, BuildingBlock: QUQFOY_clean_sbu_3, # of connection points: 4
#     Node 12, Type 1, BuildingBlock: QUQFOY_clean_sbu_3, # of connection points: 4
#     Node 13, Type 1, BuildingBlock: QUQFOY_clean_sbu_3, # of connection points: 4
#     Node 14, Type 1, BuildingBlock: QUQFOY_clean_sbu_3, # of connection points: 4
#     Node 15, Type 1, BuildingBlock: QUQFOY_clean_sbu_3, # of connection points: 4
#     Edge 16, Type (0, 1), BuildingBlock: XIVTED_clean_linker_0, # of connection points: 2
#     Edge 17, Type (0, 1), BuildingBlock: XIVTED_clean_linker_0, # of connection points: 2
#     Edge 18, Type (0, 1), BuildingBlock: XIVTED_clean_linker_0, # of connection points: 2
#     Edge 19, Type (0, 1), BuildingBlock: XIVTED_clean_linker_0, # of connection points: 2
#     Edge 20, Type (0, 1), BuildingBlock: XIVTED_clean_linker_0, # of connection points: 2
#     Edge 21, Type (0, 1), BuildingBlock: XIVTED_clean_linker_0, # of connection points: 2
#     Edge 22, Type (0, 1), BuildingBlock: XIVTED_clean_linker_0, # of connection points: 2
#     Edge 23, Type (0, 1), BuildingBlock: XIVTED_clean_linker_0, # of connection points: 2
#     Edge 24, Type (0, 1), BuildingBlock: XIVTED_clean_linker_0, # of connection points: 2
#     Edge 25, Type (0, 1), BuildingBlock: XIVTED_clean_linker_0, # of connection points: 2
#     Edge 26, Type (0, 1), BuildingBlock: XIVTED_clean_linker_0, # of connection points: 2
#     Edge 27, Type (0, 1), BuildingBlock: XIVTED_clean_linker_0, # of connection points: 2
#     Edge 28, Type (0, 1), BuildingBlock: XIVTED_clean_linker_0, # of connection points: 2
#     Edge 29, Type (0, 1), BuildingBlock: XIVTED_clean_linker_0, # of connection points: 2
#     Edge 30, Type (0, 1), BuildingBlock: XIVTED_clean_linker_0, # of connection points: 2
#     Edge 31, Type (0, 1), BuildingBlock: XIVTED_clean_linker_0, # of connection points: 2
#     Edge 32, Type (0, 1), BuildingBlock: XIVTED_clean_linker_0, # of connection points: 2
#     Edge 33, Type (0, 1), BuildingBlock: XIVTED_clean_linker_0, # of connection points: 2
#     Edge 34, Type (0, 1), BuildingBlock: XIVTED_clean_linker_0, # of connection points: 2
#     Edge 35, Type (0, 1), BuildingBlock: XIVTED_clean_linker_0, # of connection points: 2
#     Edge 36, Type (0, 1), BuildingBlock: XIVTED_clean_linker_0, # of connection points: 2
#     Edge 37, Type (0, 1), BuildingBlock: XIVTED_clean_linker_0, # of connection points: 2
#     Edge 38, Type (0, 1), BuildingBlock: XIVTED_clean_linker_0, # of connection points: 2
#     Edge 39, Type (0, 1), BuildingBlock: XIVTED_clean_linker_0, # of connection points: 2
#     Edge 40, Type (0, 1), BuildingBlock: XIVTED_clean_linker_0, # of connection points: 2
#     Edge 41, Type (0, 1), BuildingBlock: XIVTED_clean_linker_0, # of connection points: 2
#     Edge 42, Type (0, 1), BuildingBlock: XIVTED_clean_linker_0, # of connection points: 2
#     Edge 43, Type (0, 1), BuildingBlock: XIVTED_clean_linker_0, # of connection points: 2
#     Edge 44, Type (0, 1), BuildingBlock: XIVTED_clean_linker_0, # of connection points: 2
#     Edge 45, Type (0, 1), BuildingBlock: XIVTED_clean_linker_0, # of connection points: 2
#     Edge 46, Type (0, 1), BuildingBlock: XIVTED_clean_linker_0, # of connection points: 2
#     Edge 47, Type (0, 1), BuildingBlock: XIVTED_clean_linker_0, # of connection points: 2
# Relax obj value: 0.160
# Max RMSD: 0.159
# Mean RMSD: 0.136
data_MOF--net-wbl--node1-QUQFOY_clean_sbu_3--node2-MIFKUJ_clean_linker_1--edge1-XIVTED_clean_linker_0
_symmetry_space_group_name_H-M    P1
_symmetry_Int_Tables_number       1
_symmetry_cell_setting            triclinic
loop_
_symmetry_equiv_pos_as_xyz
'x, y, z'
_cell_length_a     46.669914
_cell_length_b     47.014651
_cell_length_c     75.474358
_cell_angle_alpha  90.793363
_cell_angle_beta   90.303566
_cell_angle_gamma 90.030742
loop_
_atom_site_label
_atom_site_type_symbol
_atom_site_fract_x
_atom_site_fract_y
_atom_site_fract_z
_atom_type_partial_charge
H0 H 0.02309 0.09061 0.34515 0.0
H1 H 0.99185 0.11205 0.36748 0.0
H2 H 0.92024 0.06398 0.34627 0.0
H3 H 0.95181 0.04239 0.32398 0.0
H4 H 0.03059 0.03131 0.34494 0.0
H5 H -0.00029 0.10524 0.30511 0.0
H6 H 0.962 0.13255 0.29043 0.0
H7 H 0.93177 0.05557 0.26448 0.0
H8 H 0.96947 0.02858 0.27908 0.0
H9 H 0.05305 0.95518 0.29985 0.0
H10 H 0.0904 0.92834 0.28472 0.0
H11 H 0.12362 0.00668 0.26341 0.0
H12 H 0.08779 0.03343 0.2801 0.0
H13 H 0.02697 0.03007 0.27925 0.0
H14 H 0.04301 0.95801 0.32997 0.0
H15 H 0.07141 0.93188 0.35139 0.0
H16 H 0.12426 0.00657 0.36014 0.0
H17 H 0.09743 0.03127 0.33727 0.0
C18 C 0.98974 0.06493 0.33296 0.0
C19 C 0.0005 0.08523 0.34505 0.0
C20 C 0.98258 0.09759 0.35774 0.0
C21 C 0.95361 0.08958 0.35869 0.0
C22 C 0.94252 0.07038 0.34593 0.0
C23 C 0.96046 0.05818 0.33313 0.0
C24 C 0.00983 0.04824 0.32185 0.0
C25 C 0.02989 0.0312 0.33055 0.0
C26 C 0.00851 0.04772 0.30314 0.0
C27 C 0.98717 0.06481 0.29334 0.0
C28 C 0.98497 0.09431 0.29621 0.0
C29 C 0.96343 0.10989 0.28782 0.0
C30 C 0.94385 0.09626 0.27629 0.0
C31 C 0.94675 0.06686 0.27304 0.0
C32 C 0.96823 0.05133 0.28144 0.0
C33 C 0.06846 -0.00362 0.29177 0.0
C34 C 0.06887 0.96659 0.29232 0.0
C35 C 0.0899 0.9512 0.28324 0.0
C36 C 0.11049 0.96526 0.27296 0.0
C37 C 0.1088 -0.00492 0.27159 0.0
C38 C 0.08812 0.01045 0.28099 0.0
C39 C 0.04768 0.01306 0.3024 0.0
C40 C 0.02763 0.03023 0.29362 0.0
C41 C 0.04859 0.01348 0.32111 0.0
C42 C 0.06878 -0.00381 0.33157 0.0
C43 C 0.06169 0.96816 0.33583 0.0
C44 C 0.07758 0.95351 0.34849 0.0
C45 C 0.10005 0.96709 0.35786 0.0
C46 C 0.10757 -0.00498 0.35311 0.0
C47 C 0.09216 0.00933 0.34004 0.0
H48 H 0.98032 0.47494 0.52314 0.0
H49 H 0.95684 0.43254 0.51103 0.0
H50 H 0.8749 0.46498 0.52865 0.0
H51 H 0.89888 0.50682 0.54133 0.0
H52 H 0.97499 0.53397 0.51887 0.0
H53 H 0.96581 0.46426 0.56415 0.0
H54 H 0.94833 0.43192 0.58679 0.0
H55 H 0.89336 0.4984 0.60733 0.0
H56 H 0.91051 0.53041 0.58445 0.0
H57 H 0.97162 0.60503 0.5826 0.0
H58 H 0.00276 0.62924 0.60436 0.0
H59 H 0.07548 0.58258 0.58415 0.0
H60 H 0.04444 0.55878 0.56227 0.0
H61 H 0.9681 0.54464 0.58422 0.0
H62 H 0.98056 0.61509 0.53991 0.0
H63 H 0.01108 0.64987 0.52548 0.0
H64 H 0.06588 0.5821 0.50647 0.0
H65 H 0.03502 0.54719 0.52106 0.0
C66 C 0.94136 0.49383 0.53325 0.0
C67 C 0.95724 0.47308 0.52411 0.0
C68 C 0.9437 0.44888 0.51713 0.0
C69 C 0.91392 0.44514 0.51895 0.0
C70 C 0.89791 0.46681 0.52732 0.0
C71 C 0.91153 0.49085 0.53446 0.0
C72 C 0.95625 0.51735 0.54271 0.0
C73 C 0.97345 0.53628 0.53315 0.0
C74 C 0.95395 0.52073 0.56129 0.0
C75 C 0.93933 0.49969 0.57257 0.0
C76 C 0.94928 0.47155 0.57315 0.0
C77 C 0.93951 0.45319 0.58621 0.0
C78 C 0.91966 0.46269 0.59894 0.0
C79 C 0.90844 0.49034 0.59763 0.0
C80 C 0.9183 0.50871 0.58461 0.0
C81 C 0.00578 0.58024 0.57082 0.0
C82 C -0.00558 0.60075 0.5825 0.0
C83 C 0.0122 0.61458 0.59485 0.0
C84 C 0.04141 0.60761 0.59591 0.0
C85 C 0.053 0.58826 0.58356 0.0
C86 C 0.03534 0.5748 0.57103 0.0
C87 C 0.98654 0.56121 0.56047 0.0
C88 C 0.96878 0.54288 0.56987 0.0
C89 C 0.98852 0.55827 0.54188 0.0
C90 C 0.0056 0.57864 0.53156 0.0
C91 C -0.00107 0.60769 0.53243 0.0
C92 C 0.0163 0.62751 0.52409 0.0
C93 C 0.04084 0.61869 0.5148 0.0
C94 C 0.04716 0.58947 0.51359 0.0
C95 C 0.0295 0.56955 0.5218 0.0
H96 H 0.48849 0.57368 0.83775 0.0
H97 H 0.45356 0.59694 0.85711 0.0
H98 H 0.39059 0.5333 0.84248 0.0
H99 H 0.4258 0.5101 0.82302 0.0
H100 H 0.50543 0.51649 0.84306 0.0
H101 H 0.46305 0.57504 0.79906 0.0
H102 H 0.42014 0.59346 0.78487 0.0
H103 H 0.40317 0.51013 0.76209 0.0
H104 H 0.44503 0.49142 0.77753 0.0
H105 H 0.52117 0.44404 0.78168 0.0
H106 H 0.56034 0.41913 0.76634 0.0
H107 H 0.61995 0.48282 0.78569 0.0
H108 H 0.58092 0.50749 0.8009 0.0
H109 H 0.50103 0.49993 0.77805 0.0
H110 H 0.54283 0.44128 0.82256 0.0
H111 H 0.57471 0.42013 0.84449 0.0
H112 H 0.59004 0.50358 0.86751 0.0
H113 H 0.55975 0.52457 0.84494 0.0
C114 C 0.45968 0.54022 0.82902 0.0
C115 C 0.467 0.56505 0.83849 0.0
C116 C 0.44697 0.57842 0.84942 0.0
C117 C 0.41936 0.56692 0.85127 0.0
C118 C 0.41175 0.54254 0.84131 0.0
C119 C 0.43176 0.52935 0.83018 0.0
C120 C 0.48202 0.52452 0.81909 0.0
C121 C 0.50486 0.51328 0.82879 0.0
C122 C 0.48042 0.51964 0.80059 0.0
C123 C 0.45679 0.53165 0.78981 0.0
C124 C 0.44998 0.56069 0.79109 0.0
C125 C 0.4256 0.57131 0.7827 0.0
C126 C 0.40782 0.55324 0.77247 0.0
C127 C 0.41586 0.52454 0.77023 0.0
C128 C 0.44002 0.51384 0.77889 0.0
C129 C 0.54826 0.47745 0.79249 0.0
C130 C 0.54269 0.45263 0.78251 0.0
C131 C 0.56502 0.43839 0.77385 0.0
C132 C 0.59311 0.44914 0.77478 0.0
C133 C 0.59845 0.47425 0.78457 0.0
C134 C 0.57625 0.48824 0.79337 0.0
C135 C 0.52495 0.49227 0.80205 0.0
C136 C 0.50184 0.50331 0.7923 0.0
C137 C 0.52635 0.49711 0.82058 0.0
C138 C 0.5489 0.48456 0.83205 0.0
C139 C 0.55384 0.4551 0.83196 0.0
C140 C 0.57177 0.44298 0.84471 0.0
C141 C 0.58479 0.46004 0.85797 0.0
C142 C 0.5808 0.48969 0.85745 0.0
C143 C 0.56319 0.50178 0.84461 0.0
H144 H 0.51407 0.95515 0.02448 0.0
H145 H 0.49485 0.91117 0.01171 0.0
H146 H 0.41364 0.92791 0.03719 0.0
H147 H 0.43243 0.9728 0.04882 0.0
H148 H 0.5042 0.00977 0.02298 0.0
H149 H 0.49942 0.93978 0.06975 0.0
H150 H 0.47954 0.90664 0.09124 0.0
H151 H 0.4217 0.97218 0.10984 0.0
H152 H 0.44124 0.0049 0.08814 0.0
H153 H 0.49709 0.08003 0.08727 0.0
H154 H 0.52702 0.10733 0.1082 0.0
H155 H 0.60286 0.07 0.08508 0.0
H156 H 0.57293 0.04288 0.06417 0.0
H157 H 0.49847 0.02123 0.08832 0.0
H158 H 0.50278 0.0911 0.04322 0.0
H159 H 0.52814 0.12797 0.02707 0.0
H160 H 0.58853 0.06531 0.00784 0.0
H161 H 0.56275 0.02823 0.02403 0.0
C162 C 0.4749 0.96702 0.03791 0.0
C163 C 0.49193 0.94963 0.02699 0.0
C164 C 0.48099 0.92427 0.01988 0.0
C165 C 0.45283 0.91562 0.02367 0.0
C166 C 0.43536 0.93384 0.03388 0.0
C167 C 0.44621 0.95941 0.04076 0.0
C168 C 0.48774 0.99204 0.04715 0.0
C169 C 0.50301 0.01213 0.03728 0.0
C170 C 0.48563 -0.00422 0.06575 0.0
C171 C 0.47167 0.97473 0.07732 0.0
C172 C 0.48204 0.94677 0.07822 0.0
C173 C 0.47082 0.92794 0.09058 0.0
C174 C 0.44909 0.93681 0.10226 0.0
C175 C 0.43813 0.96455 0.10088 0.0
C176 C 0.44941 0.98335 0.08858 0.0
C177 C 0.53281 0.05951 0.07416 0.0
C178 C 0.5202 0.07841 0.08638 0.0
C179 C 0.53729 0.09404 0.09827 0.0
C180 C 0.5672 0.09059 0.09829 0.0
C181 C 0.57984 0.07293 0.08536 0.0
C182 C 0.56278 0.0576 0.07335 0.0
C183 C 0.515 0.03858 0.06423 0.0
C184 C 0.49904 0.01913 0.07399 0.0
C185 C 0.51648 0.03544 0.04564 0.0
C186 C 0.53098 0.05704 0.03483 0.0
C187 C 0.52129 0.08525 0.03537 0.0
C188 C 0.53569 0.10623 0.02605 0.0
C189 C 0.56022 0.09944 0.01614 0.0
C190 C 0.56969 0.07107 0.0154 0.0
C191 C 0.55497 0.04993 0.02455 0.0
H192 H 0.9789 0.60249 0.91512 0.0
H193 H 0.00388 0.62394 0.89025 0.0
H194 H 0.08013 0.57656 0.90337 0.0
H195 H 0.05495 0.55485 0.92817 0.0
H196 H 0.97035 0.54639 0.91312 0.0
H197 H 0.01166 0.61123 0.95614 0.0
H198 H 0.05133 0.63673 0.97053 0.0
H199 H 0.08954 0.55635 0.98473 0.0
H200 H 0.04963 0.53118 0.97065 0.0
H201 H 0.9768 0.46354 0.96325 0.0
H202 H 0.94489 0.43124 0.97935 0.0
H203 H 0.88349 0.49934 0.98553 0.0
H204 H 0.91502 0.53108 0.96919 0.0
H205 H -0.00692 0.5303 0.97643 0.0
H206 H 0.95956 0.46647 0.92975 0.0
H207 H 0.93092 0.44092 0.90755 0.0
H208 H 0.8825 0.51747 0.89774 0.0
H209 H 0.91141 0.54295 0.91996 0.0
C210 C 0.01499 0.57696 0.92344 0.0
C211 C 0.00126 0.59736 0.91298 0.0
C212 C 0.0155 0.60953 0.89876 0.0
C213 C 0.04377 0.60158 0.89478 0.0
C214 C 0.05838 0.58316 0.90622 0.0
C215 C 0.04402 0.5708 0.92042 0.0
C216 C -0.00238 0.55857 0.93504 0.0
C217 C 0.97497 0.54345 0.92709 0.0
C218 C 0.00441 0.55373 0.95304 0.0
C219 C 0.02786 0.56931 0.9622 0.0
C220 C 0.02861 0.59917 0.96238 0.0
C221 C 0.05129 0.6137 0.97061 0.0
C222 C 0.07364 0.59861 0.9788 0.0
C223 C 0.07246 0.5687 0.97885 0.0
C224 C 0.04974 0.55423 0.9707 0.0
C225 C 0.94808 0.49954 0.96509 0.0
C226 C 0.95653 0.47143 0.96824 0.0
C227 C 0.93836 0.45307 0.97735 0.0
C228 C 0.91189 0.46291 0.98376 0.0
C229 C 0.90396 0.49134 0.98095 0.0
C230 C 0.92183 0.50944 0.97159 0.0
C231 C 0.9659 0.51856 0.95439 0.0
C232 C 0.98837 0.53374 0.96254 0.0
C233 C 0.9592 0.52341 0.93647 0.0
C234 C 0.93749 0.50655 0.92656 0.0
C235 C 0.942 0.47744 0.92337 0.0
C236 C 0.92564 0.46287 0.91061 0.0
C237 C 0.90468 0.47729 0.90074 0.0
C238 C 0.89879 0.50592 0.90495 0.0
C239 C 0.91513 0.52044 0.91771 0.0
H240 H 0.47113 0.53027 0.22273 0.0
H241 H 0.44913 0.57308 0.23498 0.0
H242 H 0.36667 0.54554 0.21478 0.0
H243 H 0.38899 0.5025 0.20246 0.0
H244 H 0.46628 0.47465 0.22666 0.0
H245 H 0.44922 0.54154 0.17954 0.0
H246 H 0.42842 0.56982 0.1557 0.0
H247 H 0.38035 0.49653 0.13742 0.0
H248 H 0.40078 0.46845 0.16141 0.0
H249 H 0.46683 0.40179 0.16279 0.0
H250 H 0.5 0.38001 0.14147 0.0
H251 H 0.5694 0.42961 0.16396 0.0
H252 H 0.53631 0.45114 0.18528 0.0
H253 H 0.45842 0.45978 0.16164 0.0
H254 H 0.47577 0.3927 0.20679 0.0
H255 H 0.50705 0.36034 0.2229 0.0
H256 H 0.55741 0.43175 0.24186 0.0
H257 H 0.52571 0.46425 0.22567 0.0
C258 C 0.43179 0.5133 0.21154 0.0
C259 C 0.44821 0.53314 0.22122 0.0
C260 C 0.43555 0.55762 0.22826 0.0
C261 C 0.40611 0.56277 0.22583 0.0
C262 C 0.38945 0.54235 0.21668 0.0
C263 C 0.40216 0.51775 0.20967 0.0
C264 C 0.44623 0.48908 0.20253 0.0
C265 C 0.46447 0.47145 0.21244 0.0
C266 C 0.44336 0.48418 0.18406 0.0
C267 C 0.4265 0.50287 0.17227 0.0
C268 C 0.43337 0.53185 0.17082 0.0
C269 C 0.42152 0.54799 0.15719 0.0
C270 C 0.403 0.53524 0.14466 0.0
C271 C 0.39476 0.50677 0.14683 0.0
C272 C 0.40637 0.49076 0.16053 0.0
C273 C 0.49913 0.42798 0.17565 0.0
C274 C 0.48936 0.40726 0.16348 0.0
C275 C 0.50831 0.39481 0.15135 0.0
C276 C 0.53716 0.40333 0.15104 0.0
C277 C 0.54722 0.42279 0.16392 0.0
C278 C 0.52838 0.43492 0.17617 0.0
C279 C 0.47851 0.44586 0.18566 0.0
C280 C 0.45935 0.46244 0.17594 0.0
C281 C 0.48048 0.44979 0.20419 0.0
C282 C 0.4985 0.4308 0.21502 0.0
C283 C 0.49336 0.40142 0.21456 0.0
C284 C 0.51113 0.383 0.22387 0.0
C285 C 0.53457 0.39357 0.23369 0.0
C286 C 0.5395 0.42308 0.23436 0.0
C287 C 0.52139 0.44161 0.22521 0.0
H288 H 0.51565 0.91532 0.40771 0.0
H289 H 0.48049 0.89267 0.38788 0.0
H290 H 0.4171 0.95453 0.40409 0.0
H291 H 0.45236 0.97693 0.42411 0.0
H292 H 0.53001 0.97475 0.40293 0.0
H293 H 0.4978 0.91065 0.44762 0.0
H294 H 0.4593 0.88711 0.46367 0.0
H295 H 0.43122 0.96876 0.48412 0.0
H296 H 0.46996 0.99203 0.4682 0.0
H297 H 0.54426 0.04508 0.46544 0.0
H298 H 0.58228 0.07173 0.48105 0.0
H299 H 0.64534 0.01373 0.45958 0.0
H300 H 0.60745 0.98732 0.44407 0.0
H301 H 0.52876 0.98756 0.46828 0.0
H302 H 0.56278 0.05151 0.42445 0.0
H303 H 0.5925 0.07623 0.40302 0.0
H304 H 0.61327 -0.00446 0.37804 0.0
H305 H 0.58498 0.97102 0.40007 0.0
C306 C 0.48652 0.94772 0.41731 0.0
C307 C 0.49398 0.92355 0.40728 0.0
C308 C 0.47386 0.91057 0.39607 0.0
C309 C 0.44613 0.92191 0.39447 0.0
C310 C 0.43837 0.94544 0.40508 0.0
C311 C 0.4584 0.95816 0.41652 0.0
C312 C 0.50888 0.96379 0.42711 0.0
C313 C 0.53021 0.97713 0.41726 0.0
C314 C 0.50825 0.96757 0.44568 0.0
C315 C 0.48647 0.95312 0.45656 0.0
C316 C 0.48339 0.92343 0.45564 0.0
C317 C 0.46137 0.91001 0.46479 0.0
C318 C 0.44208 0.92605 0.47511 0.0
C319 C 0.44591 0.95571 0.4765 0.0
C320 C 0.46797 0.96909 0.46735 0.0
C321 C 0.57314 0.01436 0.45356 0.0
C322 C 0.5663 0.03815 0.46416 0.0
C323 C 0.58796 0.0534 0.47297 0.0
C324 C 0.61667 0.04469 0.47155 0.0
C325 C 0.62335 0.02071 0.46105 0.0
C326 C 0.60179 0.00574 0.4521 0.0
C327 C 0.55043 -0.00173 0.44408 0.0
C328 C 0.52891 0.985 0.45397 0.0
C329 C 0.55096 -0.00553 0.42545 0.0
C330 C 0.57173 0.00935 0.41395 0.0
C331 C 0.57446 0.0391 0.41469 0.0
C332 C 0.59116 0.05325 0.40225 0.0
C333 C 0.60517 0.03796 0.38866 0.0
C334 C 0.60321 0.00808 0.3884 0.0
C335 C 0.58676 0.99398 0.40092 0.0
H336 H 0.01852 0.07375 0.7274 0.0
H337 H -0.00529 0.11538 0.74022 0.0
H338 H 0.91247 0.08052 0.7245 0.0
H339 H 0.93665 0.03939 0.71124 0.0
H340 H 0.01386 0.01327 0.73168 0.0
H341 H 0.00284 0.08396 0.6856 0.0
H342 H 0.97987 0.11698 0.66505 0.0
H343 H 0.91976 0.05129 0.64937 0.0
H344 H 0.94287 0.0184 0.66987 0.0
H345 H 0.00359 0.94446 0.66767 0.0
H346 H 0.0319 0.9178 0.64576 0.0
H347 H 0.10876 0.95931 0.665 0.0
H348 H 0.08045 0.98569 0.68695 0.0
H349 H 0.00286 0.00445 0.66636 0.0
H350 H 0.01142 0.93438 0.7119 0.0
H351 H 0.03862 0.89725 0.7268 0.0
H352 H 0.10381 0.95865 0.74135 0.0
H353 H 0.07605 -0.00392 0.7265 0.0
C354 C 0.97934 0.05371 0.71827 0.0
C355 C -0.00467 0.07491 0.72702 0.0
C356 C 0.98163 0.09865 0.73438 0.0
C357 C 0.95163 0.10144 0.73327 0.0
C358 C 0.93561 0.07934 0.72528 0.0
C359 C 0.94936 0.05574 0.71781 0.0
C360 C -0.00595 0.03075 0.70833 0.0
C361 C 0.01163 0.01149 0.7174 0.0
C362 C 0.99061 0.0279 0.68978 0.0
C363 C 0.97445 0.04882 0.67923 0.0
C364 C 0.98434 0.07691 0.67799 0.0
C365 C 0.97133 0.09566 0.66621 0.0
C366 C 0.94809 0.08665 0.65562 0.0
C367 C 0.93744 0.05889 0.65751 0.0
C368 C 0.95067 0.04006 0.66912 0.0
C369 C 0.03997 0.96693 0.67893 0.0
C370 C 0.02664 0.94717 0.66747 0.0
C371 C 0.04282 0.93193 0.65503 0.0
C372 C 0.07244 0.93667 0.65368 0.0
C373 C 0.08593 0.95538 0.66577 0.0
C374 C 0.06982 0.97029 0.67836 0.0
C375 C 0.02258 0.98699 0.68964 0.0
C376 C 0.00471 0.00594 0.68069 0.0
C377 C 0.02572 0.98947 0.7082 0.0
C378 C 0.04177 0.96785 0.71817 0.0
C379 C 0.0314 0.9399 0.71848 0.0
C380 C 0.04687 0.91879 0.72706 0.0
C381 C 0.07321 0.92517 0.73531 0.0
C382 C 0.08355 0.95325 0.73509 0.0
C383 C 0.06773 0.97457 0.72672 0.0
C384 C 0.37475 0.63193 0.02857 0.0
O385 O 0.3945 0.62914 0.01718 0.0
Cd386 Cd 0.39234 0.6484 0.98822 0.0
O387 O 0.35151 0.64476 0.0247 0.0
Cd388 Cd 0.32963 0.66685 -0.00216 0.0
C389 C 0.37906 0.71895 -0.00208 0.0
O390 O 0.34743 0.63181 0.97665 0.0
O391 O 0.3295 0.66953 0.96517 0.0
O392 O 0.28604 0.64385 0.00765 0.0
C393 C 0.33931 0.64464 0.96289 0.0
O394 O 0.39623 0.70004 0.99206 0.0
C395 C 0.26949 0.66447 0.00423 0.0
O396 O 0.35347 0.71252 0.00202 0.0
O397 O 0.28106 0.68691 -0.00161 0.0
C398 C 0.39449 0.84522 0.21561 0.0
O399 O 0.41436 0.84073 0.22676 0.0
Cd400 Cd 0.40566 0.82857 0.25693 0.0
O401 O 0.36831 0.84336 0.22019 0.0
Cd402 Cd 0.34113 0.83248 0.24758 0.0
C403 C 0.36816 0.76658 0.2506 0.0
O404 O 0.37018 0.86056 0.26821 0.0
O405 O 0.34159 0.83047 0.28022 0.0
O406 O 0.3093 0.87062 0.23911 0.0
C407 C 0.35851 0.8514 0.28212 0.0
O408 O 0.39024 0.7791 0.25689 0.0
C409 C 0.2861 0.85727 0.24165 0.0
O410 O 0.3472 0.78083 0.24448 0.0
O411 O 0.28829 0.83144 0.24623 0.0
C412 C 0.16971 0.89985 0.47536 0.0
O413 O 0.17549 0.91977 0.48634 0.0
Cd414 Cd 0.18584 0.91277 0.51724 0.0
O415 O 0.16977 0.87396 0.48017 0.0
Cd416 Cd 0.18002 0.84613 0.50718 0.0
C417 C 0.2471 0.87395 0.5116 0.0
O418 O 0.15309 0.87738 0.52695 0.0
O419 O 0.17576 0.84312 0.53957 0.0
O420 O 0.14337 0.81443 0.4953 0.0
C421 C 0.15889 0.86411 0.54102 0.0
O422 O 0.23505 0.8963 0.51766 0.0
C423 C 0.15679 0.79152 0.49832 0.0
O424 O 0.23228 0.85311 0.50561 0.0
O425 O 0.18174 0.79392 0.50501 0.0
C426 C 0.12879 0.63092 0.77491 0.0
O427 O 0.12523 0.61095 0.76359 0.0
Cd428 Cd 0.14238 0.61209 0.73378 0.0
O429 O 0.14079 0.65418 0.77059 0.0
Cd430 Cd 0.16032 0.67781 0.74383 0.0
C431 C 0.21365 0.62891 0.74184 0.0
O432 O 0.12562 0.65674 0.72369 0.0
O433 O 0.15762 0.6825 0.71118 0.0
O434 O 0.13498 0.71777 0.75672 0.0
C435 C 0.13549 0.66704 0.70958 0.0
O436 O 0.1944 0.61127 0.73686 0.0
C437 C 0.15389 0.73633 0.75344 0.0
O438 O 0.20725 0.65458 0.7458 0.0
O439 O 0.17673 0.72759 0.74604 0.0
C440 C 0.87749 0.13758 0.47841 0.0
O441 O 0.88064 0.11785 0.48957 0.0
Cd442 Cd 0.86789 0.12162 0.52011 0.0
O443 O 0.86749 0.16171 0.48319 0.0
Cd444 Cd 0.84982 0.18479 0.51101 0.0
C445 C 0.79659 0.13644 0.51338 0.0
O446 O 0.88596 0.16603 0.53106 0.0
O447 O 0.84892 0.18451 0.54362 0.0
O448 O 0.87365 0.22743 0.50071 0.0
C449 C 0.87373 0.17388 0.54524 0.0
O450 O 0.81573 0.11969 0.51929 0.0
C451 C 0.85329 0.24433 0.50443 0.0
O452 O 0.80319 0.16124 0.50816 0.0
O453 O 0.83073 0.23342 0.5108 0.0
C454 C 0.88836 0.37869 0.71812 0.0
O455 O 0.90947 0.37896 0.7288 0.0
Cd456 Cd 0.90516 0.36725 0.75951 0.0
O457 O 0.86346 0.37191 0.72347 0.0
Cd458 Cd 0.84081 0.35725 0.75163 0.0
C459 C 0.88186 0.29867 0.75524 0.0
O460 O 0.86434 0.39217 0.77108 0.0
O461 O 0.84127 0.3588 0.78419 0.0
O462 O 0.80086 0.38567 0.74146 0.0
C463 C 0.85445 0.38233 0.78535 0.0
O464 O 0.90132 0.31564 0.76073 0.0
C465 C 0.78147 0.36795 0.74536 0.0
O466 O 0.85796 0.30814 0.74962 0.0
O467 O 0.78969 0.34438 0.75166 0.0
C468 C 0.65367 0.39307 0.97545 0.0
O469 O 0.65515 0.41266 0.98719 0.0
Cd470 Cd 0.66349 0.40511 0.01823 0.0
O471 O 0.65717 0.3671 0.97959 0.0
Cd472 Cd 0.6684 0.33944 0.00661 0.0
C473 C 0.73024 0.37562 0.01462 0.0
O474 O 0.63522 0.36501 0.02596 0.0
O475 O 0.662 0.33394 0.03873 0.0
O476 O 0.63771 0.30312 0.99341 0.0
C477 C 0.64181 0.35185 0.03993 0.0
O478 O 0.71442 0.39561 0.02055 0.0
C479 C 0.65441 0.28243 0.99642 0.0
O480 O 0.71926 0.3534 0.00748 0.0
O481 O 0.67841 0.28836 0.0036 0.0
C482 C 0.6738 0.11819 0.27479 0.0
O483 O 0.67979 0.09957 0.26302 0.0
Cd484 Cd 0.68953 0.10938 0.23248 0.0
O485 O 0.67311 0.14453 0.27099 0.0
Cd486 Cd 0.68197 0.17462 0.24469 0.0
C487 C 0.74974 0.14944 0.23935 0.0
O488 O 0.65525 0.14421 0.22413 0.0
O489 O 0.67693 0.1797 0.21234 0.0
O490 O 0.64487 0.20511 0.25703 0.0
C491 C 0.6603 0.15857 0.21043 0.0
O492 O 0.73829 0.12734 0.23243 0.0
C493 C 0.65797 0.22836 0.25451 0.0
O494 O 0.73439 0.16913 0.24615 0.0
O495 O 0.68301 0.22662 0.24805 0.0
H496 H 0.11022 0.9106 0.2588 0.0
H497 H 0.27667 0.91334 0.23512 0.0
H498 H 0.16598 0.98284 0.268 0.0
H499 H 0.23227 0.8356 0.24757 0.0
H500 H 0.23215 0.93964 0.23933 0.0
H501 H 0.15138 0.88356 0.24775 0.0
C502 C 0.13096 0.92089 0.25848 0.0
C503 C 0.13448 0.94914 0.26454 0.0
C504 C 0.23209 0.91678 0.24094 0.0
C505 C 0.18138 0.91843 0.25138 0.0
C506 C 0.25745 0.9017 0.23847 0.0
C507 C 0.25828 0.87226 0.24124 0.0
C508 C 0.20727 0.90234 0.24613 0.0
C509 C 0.23263 0.85833 0.24546 0.0
C510 C 0.15437 0.90544 0.25204 0.0
C511 C 0.16187 0.96139 0.26329 0.0
N512 N 0.20814 0.87355 0.24793 0.0
N513 N 0.18419 0.94597 0.2569 0.0
H514 H 0.09938 0.62096 0.51742 0.0
H515 H 0.10506 0.78043 0.48266 0.0
H516 H 0.0269 0.66586 0.49579 0.0
H517 H 0.17638 0.73899 0.50818 0.0
H518 H 0.07896 0.7355 0.4824 0.0
H519 H 0.13043 0.66059 0.50917 0.0
C520 C 0.0901 0.63891 0.51062 0.0
C521 C 0.06047 0.64031 0.50747 0.0
C522 C 0.10044 0.7361 0.48788 0.0
C523 C 0.09575 0.6858 0.49821 0.0
C524 C 0.11539 0.76177 0.48801 0.0
C525 C 0.14279 0.76356 0.49568 0.0
C526 C 0.11286 0.71201 0.49559 0.0
C527 C 0.1552 0.73862 0.50226 0.0
C528 C 0.1078 0.6616 0.50602 0.0
C529 C 0.04955 0.66416 0.49874 0.0
N530 N 0.13999 0.71393 0.50228 0.0
N531 N 0.06713 0.68606 0.49457 0.0
H532 H 0.35684 0.52445 0.76938 0.0
H533 H 0.26246 0.66025 0.7486 0.0
H534 H 0.39505 0.60642 0.75943 0.0
H535 H 0.23277 0.57411 0.73997 0.0
H536 H 0.31087 0.64183 0.7539 0.0
H537 H 0.31082 0.54289 0.75968 0.0
C538 C 0.35578 0.5462 0.76489 0.0
C539 C 0.38009 0.56383 0.76526 0.0
C540 C 0.29374 0.62706 0.75068 0.0
C541 C 0.3269 0.58538 0.75461 0.0
C542 C 0.26611 0.63753 0.74772 0.0
C543 C 0.24346 0.6187 0.74393 0.0
C544 C 0.29859 0.59758 0.7501 0.0
C545 C 0.2495 0.58946 0.74288 0.0
C546 C 0.32934 0.55678 0.75947 0.0
C547 C 0.3769 0.59211 0.7597 0.0
N548 N 0.27638 0.57981 0.74611 0.0
N549 N 0.35074 0.60209 0.75476 0.0
H550 H 0.48313 0.8657 0.02182 0.0
H551 H 0.34723 0.76693 0.00465 0.0
H552 H 0.39845 0.89992 0.01283 0.0
H553 H 0.43422 0.73843 0.99667 0.0
H554 H 0.36507 0.81542 0.00941 0.0
H555 H 0.46522 0.81854 0.01404 0.0
C556 C 0.46085 0.86346 0.01796 0.0
C557 C 0.44233 0.88702 0.01796 0.0
C558 C 0.38019 0.79855 0.00651 0.0
C559 C 0.4215 0.83264 0.0095 0.0
C560 C 0.37006 0.77085 0.00386 0.0
C561 C 0.38927 0.74855 0.00031 0.0
C562 C 0.40977 0.80388 0.00583 0.0
C563 C 0.41861 0.75492 -0.00063 0.0
C564 C 0.4506 0.8364 0.01364 0.0
C565 C 0.41347 0.88242 0.01329 0.0
N566 N 0.42797 0.78195 0.00224 0.0
N567 N 0.4039 0.85574 0.00937 0.0
H568 H 0.10371 0.5862 0.0091 0.0
H569 H 0.22818 0.69799 0.98932 0.0
H570 H 0.10132 0.64547 0.96591 0.0
H571 H 0.23946 0.62298 0.02093 0.0
H572 H 0.17707 0.68682 0.98649 0.0
H573 H 0.14899 0.60724 0.01906 0.0
C574 C 0.11258 0.60375 0.00177 0.0
C575 C 0.0989 0.61371 0.98644 0.0
C576 C 0.1907 0.67308 0.99427 0.0
C577 C 0.15051 0.63813 -0.00206 0.0
C578 C 0.2198 0.67951 0.99597 0.0
C579 C 0.23811 0.66114 0.00516 0.0
C580 C 0.17989 0.64826 0.00193 0.0
C581 C 0.22614 0.63751 0.01353 0.0
C582 C 0.13834 0.61583 0.00752 0.0
C583 C 0.11101 0.63707 0.9778 0.0
N584 N 0.19782 0.63159 0.01158 0.0
N585 N 0.13629 0.64829 0.98356 0.0
H586 H 0.36737 0.59638 0.20838 0.0
H587 H 0.4002 0.73012 0.27019 0.0
H588 H 0.41658 0.59205 0.25686 0.0
H589 H 0.33587 0.73155 0.22892 0.0
H590 H 0.40392 0.67874 0.26648 0.0
H591 H 0.3525 0.64461 0.21663 0.0
C592 C 0.37461 0.60533 0.22092 0.0
C593 C 0.39358 0.59027 0.23183 0.0
C594 C 0.38873 0.69017 0.25835 0.0
C595 C 0.37707 0.64564 0.24117 0.0
C596 C 0.38666 0.71956 0.26042 0.0
C597 C 0.36793 0.73517 0.24971 0.0
C598 C 0.37228 0.67622 0.24524 0.0
C599 C 0.35067 0.72032 0.23742 0.0
C600 C 0.36622 0.63295 0.22558 0.0
C601 C 0.40248 0.60311 0.24784 0.0
N602 N 0.35356 0.69166 0.23533 0.0
N603 N 0.39443 0.63014 0.25191 0.0
H604 H 0.41908 0.93713 0.50789 0.0
H605 H 0.2804 0.84098 0.48955 0.0
H606 H 0.40776 0.8837 0.46139 0.0
H607 H 0.28554 0.9075 0.52944 0.0
H608 H 0.33131 0.84811 0.48316 0.0
H609 H 0.37433 0.91849 0.51972 0.0
C610 C 0.40729 0.92134 0.50021 0.0
C611 C 0.41701 0.9123 0.4835 0.0
C612 C 0.32135 0.86083 0.49349 0.0
C613 C 0.36586 0.89069 0.49703 0.0
C614 C 0.29235 0.85666 0.49721 0.0
C615 C 0.27863 0.87399 0.50984 0.0
C616 C 0.33666 0.88233 0.50255 0.0
C617 C 0.29516 0.89398 0.51938 0.0
C618 C 0.38182 0.91061 0.50702 0.0
C619 C 0.40118 0.89126 0.47435 0.0
N620 N 0.32321 0.89779 0.51542 0.0
N621 N 0.37622 0.88141 0.48115 0.0
H622 H 0.12986 0.91249 0.73021 0.0
H623 H 0.11098 0.75975 0.77312 0.0
H624 H 0.05474 0.88481 0.75819 0.0
H625 H 0.18282 0.78235 0.7404 0.0
H626 H 0.09573 0.80929 0.77348 0.0
H627 H 0.15473 0.86908 0.73935 0.0
C628 C 0.11885 0.89756 0.73861 0.0
C629 C 0.09011 0.90194 0.74327 0.0
C630 C 0.11505 0.80356 0.7664 0.0
C631 C 0.11819 0.85234 0.7536 0.0
C632 C 0.12381 0.77525 0.76622 0.0
C633 C 0.14792 0.76685 0.75645 0.0
C634 C 0.13031 0.82364 0.75658 0.0
C635 C 0.16394 0.7879 0.74796 0.0
C636 C 0.13297 0.87275 0.74373 0.0
C637 C 0.07675 0.88194 0.75407 0.0
N638 N 0.15457 0.8153 0.74797 0.0
N639 N 0.09079 0.85789 0.75872 0.0
H640 H 0.60566 0.39223 0.77546 0.0
H641 H 0.75833 0.41535 0.73059 0.0
H642 H 0.63523 0.47179 0.75438 0.0
H643 H 0.73507 0.33899 0.75818 0.0
H644 H 0.70931 0.43246 0.73367 0.0
H645 H 0.64888 0.36896 0.76395 0.0
C646 C 0.62103 0.40467 0.76814 0.0
C647 C 0.61713 0.43403 0.76605 0.0
C648 C 0.71479 0.4118 0.73888 0.0
C649 C 0.66649 0.40769 0.75297 0.0
C650 C 0.74279 0.40197 0.73708 0.0
C651 C 0.75089 0.3759 0.74439 0.0
C652 C 0.69475 0.39555 0.74816 0.0
C653 C 0.72977 0.35934 0.75248 0.0
C654 C 0.64572 0.39143 0.76166 0.0
C655 C 0.63771 0.4492 0.75656 0.0
N656 N 0.70271 0.36963 0.75438 0.0
N657 N 0.66159 0.43591 0.75049 0.0
H658 H 0.53945 0.14221 0.99562 0.0
H659 H 0.68235 0.23329 0.00534 0.0
H660 H 0.61799 0.10924 0.01758 0.0
H661 H 0.60433 0.26398 0.98133 0.0
H662 H 0.66203 0.18531 0.00542 0.0
H663 H 0.56537 0.18426 0.98586 0.0
C664 C 0.56227 0.14372 -0.00182 0.0
C665 C 0.57655 0.12246 0.00761 0.0
C666 C 0.64954 0.20246 -0.00013 0.0
C667 C 0.60637 0.17063 0.99667 0.0
C668 C 0.66116 0.22985 -0.00021 0.0
C669 C 0.64482 0.25274 0.99359 0.0
C670 C 0.62134 0.19802 0.99381 0.0
C671 C 0.61755 0.24703 0.98646 0.0
C672 C 0.5771 0.16769 0.99258 0.0
C673 C 0.60619 0.1252 0.01035 0.0
N674 N 0.60654 0.22034 0.987 0.0
N675 N 0.62006 0.1491 0.00516 0.0
H676 H 0.91014 0.13693 0.2922 0.0
H677 H 0.78901 0.12127 0.21912 0.0
H678 H 0.9215 0.09135 0.2427 0.0
H679 H 0.78212 0.17871 0.26398 0.0
H680 H 0.83978 0.11511 0.22568 0.0
H681 H 0.86595 0.15744 0.28055 0.0
C682 C 0.90367 0.13166 0.27875 0.0
C683 C 0.91935 0.11201 0.26851 0.0
C684 C 0.82735 0.12944 0.23395 0.0
C685 C 0.86847 0.13506 0.25521 0.0
C686 C 0.79833 0.13296 0.2302 0.0
C687 C 0.78126 0.15021 0.24118 0.0
C688 C 0.83934 0.14284 0.24899 0.0
C689 C 0.7945 0.16509 0.25523 0.0
C690 C 0.87833 0.1433 0.27213 0.0
C691 C 0.90973 0.10583 0.25123 0.0
N692 N 0.82268 0.16064 0.25896 0.0
N693 N 0.88475 0.117 0.24522 0.0
H694 H 0.92602 0.41112 0.48991 0.0
H695 H 0.82005 0.28652 0.51889 0.0
H696 H 0.87043 0.41654 0.53543 0.0
H697 H 0.89494 0.27281 0.48658 0.0
H698 H 0.83056 0.33758 0.51959 0.0
H699 H 0.90723 0.36353 0.48343 0.0
C700 C 0.90977 0.40246 0.4985 0.0
C701 C 0.90012 0.41786 0.5134 0.0
C702 C 0.84446 0.32339 0.51218 0.0
C703 C 0.87818 0.36358 0.50581 0.0
C704 C 0.83842 0.2943 0.5117 0.0
C705 C 0.85685 0.2754 0.50284 0.0
C706 C 0.86894 0.33362 0.50359 0.0
C707 C 0.88035 0.28663 0.49374 0.0
C708 C 0.89896 0.37534 0.49471 0.0
C709 C 0.87843 0.40571 0.52372 0.0
N710 N 0.88583 0.315 0.49444 0.0
N711 N 0.86836 0.37925 0.51981 0.0
H712 H 0.62606 0.10226 0.47267 0.0
H713 H 0.77479 0.08593 0.52464 0.0
H714 H 0.6599 0.02283 0.49157 0.0
H715 H 0.75085 0.16217 0.49694 0.0
H716 H 0.72819 0.06548 0.51745 0.0
H717 H 0.66724 0.12715 0.48607 0.0
C718 C 0.64197 0.09015 0.47984 0.0
C719 C 0.63983 0.06045 0.48088 0.0
C720 C 0.73301 0.08678 0.51305 0.0
C721 C 0.68675 0.08862 0.49616 0.0
C722 C 0.75964 0.09853 0.51718 0.0
C723 C 0.76696 0.12568 0.51115 0.0
C724 C 0.71346 0.10219 0.50277 0.0
C725 C 0.74623 0.14107 0.50173 0.0
C726 C 0.66548 0.10431 0.4874 0.0
C727 C 0.66102 0.0457 0.49023 0.0
N728 N 0.72049 0.12898 0.49765 0.0
N729 N 0.68364 0.05992 0.49744 0.0
H730 H 0.96425 0.13483 0.76252 0.0
H731 H 0.85225 0.25678 0.73725 0.0
H732 H 0.90678 0.12931 0.71755 0.0
H733 H 0.92541 0.27027 0.77162 0.0
H734 H 0.86576 0.20665 0.73412 0.0
H735 H 0.94404 0.18136 0.77005 0.0
C736 C 0.94731 0.14329 0.75427 0.0
C737 C 0.93744 0.12817 0.73926 0.0
C738 C 0.87869 0.22058 0.74245 0.0
C739 C 0.91398 0.18127 0.74797 0.0
C740 C 0.87095 0.24916 0.7443 0.0
C741 C 0.88792 0.26781 0.75455 0.0
C742 C 0.9034 0.21059 0.75105 0.0
C743 C 0.9119 0.25674 0.76341 0.0
C744 C 0.93571 0.1698 0.75863 0.0
C745 C 0.91494 0.13998 0.72933 0.0
N746 N 0.91899 0.22889 0.76139 0.0
N747 N 0.90411 0.16589 0.73379 0.0
H748 H 0.88359 0.47175 0.01483 0.0
H749 H 0.77056 0.34912 0.99371 0.0
H750 H 0.89365 0.41043 0.97232 0.0
H751 H 0.7612 0.41303 0.03487 0.0
H752 H 0.82028 0.36442 0.98963 0.0
H753 H 0.84381 0.44386 0.02625 0.0
C754 C 0.8776 0.45214 0.00806 0.0
C755 C 0.89155 0.44355 0.99249 0.0
C756 C 0.80747 0.37472 -0.00023 0.0
C757 C 0.84577 0.41169 0.00527 0.0
C758 C 0.77913 0.36592 0.00215 0.0
C759 C 0.76156 0.38023 0.0144 0.0
C760 C 0.81819 0.39791 0.00974 0.0
C761 C 0.7738 0.40178 0.02502 0.0
C762 C 0.85492 0.43619 0.01457 0.0
C763 C 0.88332 0.41779 0.98435 0.0
N764 N 0.8012 0.41019 0.02228 0.0
N765 N 0.86058 0.40299 0.99065 0.0
H766 H 0.5212 0.34806 0.25418 0.0
H767 H 0.67746 0.28154 0.24609 0.0
H768 H 0.59319 0.393 0.23241 0.0
H769 H 0.60498 0.23805 0.2685 0.0
H770 H 0.64936 0.32545 0.24562 0.0
H771 H 0.55365 0.3107 0.26407 0.0
C772 C 0.54394 0.35018 0.25168 0.0
C773 C 0.55451 0.37341 0.24226 0.0
C774 C 0.63976 0.30641 0.25089 0.0
C775 C 0.5918 0.33064 0.25339 0.0
C776 C 0.65582 0.28134 0.25121 0.0
C777 C 0.64338 0.25599 0.25708 0.0
C778 C 0.61105 0.30604 0.25642 0.0
C779 C 0.61532 0.25701 0.26364 0.0
C780 C 0.56248 0.32889 0.25735 0.0
C781 C 0.58418 0.3754 0.23962 0.0
N782 N 0.6 0.28151 0.26291 0.0
N783 N 0.60177 0.35404 0.2449 0.0
H784 H 0.15539 0.97324 0.37083 0.0
H785 H 0.13651 0.86906 0.45212 0.0
H786 H 0.07563 0.92978 0.38127 0.0
H787 H 0.18586 0.94651 0.45661 0.0
H788 H 0.12198 0.88257 0.4221 0.0
H789 H 0.17459 0.95503 0.39867 0.0
C790 C 0.14187 0.95985 0.37881 0.0
C791 C 0.11359 0.9534 0.37357 0.0
C792 C 0.13617 0.89643 0.42966 0.0
C793 C 0.13602 0.93176 0.40515 0.0
C794 C 0.14452 0.88874 0.44672 0.0
C795 C 0.1622 0.90684 0.45689 0.0
C796 C 0.14612 0.92203 0.42261 0.0
C797 C 0.17195 0.93212 0.44927 0.0
C798 C 0.153 0.94936 0.39465 0.0
C799 C 0.09763 0.93513 0.38439 0.0
N800 N 0.16384 0.93896 0.43253 0.0
N801 N 0.10906 0.92499 0.39963 0.0
H802 H 0.07073 0.5746 0.61886 0.0
H803 H 0.13718 0.69763 0.67896 0.0
H804 H 0.05042 0.66221 0.60822 0.0
H805 H 0.10595 0.61911 0.70063 0.0
H806 H 0.11586 0.68408 0.65012 0.0
H807 H 0.0953 0.58973 0.64614 0.0
C808 C 0.07191 0.59708 0.62215 0.0
C809 C 0.05867 0.61725 0.61133 0.0
C810 C 0.11378 0.66993 0.66124 0.0
C811 C 0.08666 0.63459 0.64237 0.0
C812 C 0.12596 0.67754 0.67761 0.0
C813 C 0.12316 0.65946 0.69214 0.0
C814 C 0.09955 0.64376 0.6594 0.0
C815 C 0.10839 0.63371 0.68977 0.0
C816 C 0.08569 0.60563 0.63773 0.0
C817 C 0.06039 0.64609 0.61628 0.0
N818 N 0.09735 0.62649 0.67365 0.0
N819 N 0.07429 0.65399 0.63148 0.0
H820 H 0.4062 0.6228 0.85819 0.0
H821 H 0.35009 0.58932 0.95422 0.0
H822 H 0.38928 0.53763 0.87595 0.0
H823 H 0.34092 0.67232 0.93116 0.0
H824 H 0.36322 0.56997 0.92522 0.0
H825 H 0.38083 0.64168 0.88414 0.0
C826 C 0.39675 0.60811 0.86743 0.0
C827 C 0.39999 0.57864 0.86502 0.0
C828 C 0.35802 0.59235 0.92643 0.0
C829 C 0.37134 0.59999 0.89475 0.0
C830 C 0.35065 0.60343 0.943 0.0
C831 C 0.3447 0.6325 0.9451 0.0
C832 C 0.35995 0.61056 0.91189 0.0
C833 C 0.34548 0.64979 0.9301 0.0
C834 C 0.38223 0.61887 0.88219 0.0
C835 C 0.38716 0.56049 0.87726 0.0
N836 N 0.35341 0.63862 0.91414 0.0
N837 N 0.37379 0.57147 0.89175 0.0
H838 H 0.39436 0.92827 0.11432 0.0
H839 H 0.44749 0.84611 0.2003 0.0
H840 H 0.48212 0.90348 0.12363 0.0
H841 H 0.35849 0.8644 0.18947 0.0
H842 H 0.45994 0.86407 0.1712 0.0
H843 H 0.38011 0.90211 0.14066 0.0
C844 C 0.41059 0.91714 0.12183 0.0
C845 C 0.4395 0.91822 0.11683 0.0
C846 C 0.43765 0.86398 0.17511 0.0
C847 C 0.42338 0.88829 0.14699 0.0
C848 C 0.43051 0.85375 0.19176 0.0
C849 C 0.40191 0.85397 0.19743 0.0
C850 C 0.41609 0.87475 0.16402 0.0
C851 C 0.38084 0.86393 0.1857 0.0
C852 C 0.40244 0.90213 0.13682 0.0
C853 C 0.45956 0.90307 0.1269 0.0
N854 N 0.38838 0.87417 0.16962 0.0
N855 N 0.45117 0.88898 0.14158 0.0
H856 H 0.01848 0.59583 0.86253 0.0
H857 H 0.14459 0.65993 0.80529 0.0
H858 H 0.09743 0.62295 0.88751 0.0
H859 H 0.08729 0.5944 0.78577 0.0
H860 H 0.12432 0.65437 0.83506 0.0
H861 H 0.03972 0.60399 0.83357 0.0
C862 C 0.04018 0.60394 0.8619 0.0
C863 C 0.0562 0.6089 0.87742 0.0
C864 C 0.11636 0.64122 0.82422 0.0
C865 C 0.08068 0.61804 0.8443 0.0
C866 C 0.1278 0.64441 0.80726 0.0
C867 C 0.11762 0.62756 0.79305 0.0
C868 C 0.0942 0.62155 0.8268 0.0
C869 C 0.09589 0.60772 0.79634 0.0
C870 C 0.05236 0.60831 0.84538 0.0
C871 C 0.08442 0.61887 0.87583 0.0
N872 N 0.08474 0.60546 0.81283 0.0
N873 N 0.09581 0.62327 0.85951 0.0
H874 H 0.38158 0.58939 0.14057 0.0
H875 H 0.41198 0.58992 0.03744 0.0
H876 H 0.40884 0.51504 0.11108 0.0
H877 H 0.34587 0.6437 0.05956 0.0
H878 H 0.41715 0.56687 0.06598 0.0
H879 H 0.37338 0.61402 0.11235 0.0
C880 C 0.3856 0.57825 0.12818 0.0
C881 C 0.39566 0.55012 0.12809 0.0
C882 C 0.4015 0.58372 0.06459 0.0
C883 C 0.38703 0.57812 0.09611 0.0
C884 C 0.39864 0.59702 0.04834 0.0
C885 C 0.37841 0.61874 0.0461 0.0
C886 C 0.38436 0.59243 0.07887 0.0
C887 C 0.36163 0.62693 0.06072 0.0
C888 C 0.38088 0.59223 0.11216 0.0
C889 C 0.40068 0.53659 0.11173 0.0
N890 N 0.36509 0.61386 0.07658 0.0
N891 N 0.39659 0.55079 0.09642 0.0
H892 H 0.43152 0.86671 0.38639 0.0
H893 H 0.38074 0.90353 0.28994 0.0
H894 H 0.41789 0.95313 0.36987 0.0
H895 H 0.35509 0.82501 0.3142 0.0
H896 H 0.39697 0.92134 0.31887 0.0
H897 H 0.40542 0.84979 0.35994 0.0
C898 C 0.42264 0.88207 0.37732 0.0
C899 C 0.42683 0.91132 0.38025 0.0
C900 C 0.38752 0.90033 0.3179 0.0
C901 C 0.39764 0.89224 0.34998 0.0
C902 C 0.37843 0.8901 0.3014 0.0
C903 C 0.36672 0.86274 0.29972 0.0
C904 C 0.38548 0.88282 0.33275 0.0
C905 C 0.36402 0.84626 0.31498 0.0
C906 C 0.40774 0.87245 0.3623 0.0
C907 C 0.41492 0.93041 0.36815 0.0
N908 N 0.37374 0.8564 0.33088 0.0
N909 N 0.40125 0.92053 0.35339 0.0
H910 H 0.10595 0.96569 0.63084 0.0
H911 H 0.15259 0.83308 0.57119 0.0
H912 H 0.07461 0.88136 0.64152 0.0
H913 H 0.14004 0.91706 0.55016 0.0
H914 H 0.13326 0.84988 0.59974 0.0
H915 H 0.12878 0.9474 0.6039 0.0
C916 C 0.1043 0.94321 0.62764 0.0
C917 C 0.08847 0.92494 0.63839 0.0
C918 C 0.13483 0.86453 0.58883 0.0
C919 C 0.11439 0.90399 0.60764 0.0
C920 C 0.1459 0.85505 0.57262 0.0
C921 C 0.14777 0.87373 0.55833 0.0
C922 C 0.1263 0.89301 0.5908 0.0
C923 C 0.13876 0.90194 0.56082 0.0
C924 C 0.11709 0.93288 0.61222 0.0
C925 C 0.08659 0.89608 0.63351 0.0
N926 N 0.1286 0.91079 0.57679 0.0
N927 N 0.09951 0.88641 0.61846 0.0
H928 H 0.63197 0.48056 0.87621 0.0
H929 H 0.63237 0.35861 0.9489 0.0
H930 H 0.57265 0.40995 0.87483 0.0
H931 H 0.66061 0.44459 0.95969 0.0
H932 H 0.6195 0.37248 0.91867 0.0
H933 H 0.65194 0.46256 0.90386 0.0
C934 C 0.62321 0.46121 0.88161 0.0
C935 C 0.6002 0.44707 0.87322 0.0
C936 C 0.62869 0.3882 0.92766 0.0
C937 C 0.62349 0.42608 0.90471 0.0
C938 C 0.63611 0.38031 0.94487 0.0
C939 C 0.64733 0.40056 0.95687 0.0
C940 C 0.63303 0.41637 0.92235 0.0
C941 C 0.65172 0.42839 0.95093 0.0
C942 C 0.63473 0.45093 0.89736 0.0
C943 C 0.59044 0.42157 0.88065 0.0
N944 N 0.64457 0.43547 0.93409 0.0
N945 N 0.60202 0.412 0.89602 0.0
H946 H 0.60494 0.06185 0.11883 0.0
H947 H 0.65105 0.1917 0.18134 0.0
H948 H 0.5683 0.14519 0.11186 0.0
H949 H 0.64325 0.10565 0.19989 0.0
H950 H 0.63039 0.17636 0.15268 0.0
H951 H 0.62985 0.07932 0.1454 0.0
C952 C 0.60258 0.08398 0.12273 0.0
C953 C 0.58462 0.10216 0.11316 0.0
C954 C 0.63333 0.16094 0.16306 0.0
C955 C 0.61291 0.12216 0.14352 0.0
C956 C 0.64516 0.1696 0.17933 0.0
C957 C 0.6487 0.14989 0.19297 0.0
C958 C 0.62577 0.13231 0.16037 0.0
C959 C 0.64067 0.12154 0.18975 0.0
C960 C 0.61657 0.09383 0.13795 0.0
C961 C 0.58191 0.13053 0.11895 0.0
N962 N 0.62976 0.11355 0.17374 0.0
N963 N 0.59599 0.13975 0.1338 0.0
H964 H 0.91895 0.05643 0.37877 0.0
H965 H 0.88743 0.17645 0.45225 0.0
H966 H 0.94964 0.14263 0.37432 0.0
H967 H 0.88475 0.08618 0.46188 0.0
H968 H 0.90156 0.16623 0.42152 0.0
H969 H 0.89645 0.06928 0.40687 0.0
C970 C 0.92044 0.07824 0.38352 0.0
C971 C 0.9363 0.09848 0.37423 0.0
C972 C 0.89773 0.14873 0.43039 0.0
C973 C 0.91102 0.11317 0.40657 0.0
C974 C 0.88965 0.15452 0.44789 0.0
C975 C 0.88517 0.13213 0.45968 0.0
C976 C 0.90087 0.12038 0.42463 0.0
C977 C 0.8883 0.10412 0.45332 0.0
C978 C 0.90785 0.08547 0.39966 0.0
C979 C 0.93787 0.12631 0.38118 0.0
N980 N 0.89593 0.09906 0.43624 0.0
N981 N 0.92552 0.13283 0.39701 0.0
H982 H 0.86771 0.45416 0.6151 0.0
H983 H 0.93905 0.3858 0.70069 0.0
H984 H 0.95729 0.43226 0.61898 0.0
H985 H 0.84744 0.39088 0.69309 0.0
H986 H 0.94583 0.40222 0.67049 0.0
H987 H 0.8593 0.43032 0.64327 0.0
C988 C 0.88553 0.44409 0.62179 0.0
C989 C 0.91325 0.44526 0.61469 0.0
C990 C 0.92422 0.39956 0.67537 0.0
C991 C 0.90386 0.41818 0.64694 0.0
C992 C 0.92034 0.39027 0.69265 0.0
C993 C 0.89263 0.38712 0.69949 0.0
C994 C 0.90026 0.4061 0.66485 0.0
C995 C 0.8692 0.39305 0.68839 0.0
C996 C 0.88072 0.43043 0.63783 0.0
C997 C 0.93552 0.43165 0.62384 0.0
N998 N 0.87354 0.40251 0.67166 0.0
N999 N 0.93039 0.41896 0.63955 0.0
H1000 H 0.65413 0.02218 0.37086 0.0
H1001 H 0.64617 0.14828 0.30099 0.0
H1002 H 0.58947 0.08787 0.37269 0.0
H1003 H 0.68603 0.06714 0.28999 0.0
H1004 H 0.63282 0.13131 0.33038 0.0
H1005 H 0.67371 0.04364 0.34423 0.0
C1006 C 0.6441 0.04117 0.36576 0.0
C1007 C 0.6198 0.05294 0.37397 0.0
C1008 C 0.64464 0.11734 0.32154 0.0
C1009 C 0.64251 0.07786 0.34363 0.0
C1010 C 0.65232 0.12701 0.3048 0.0
C1011 C 0.66701 0.109 0.29296 0.0
C1012 C 0.65207 0.08964 0.32655 0.0
C1013 C 0.67444 0.08164 0.29861 0.0
C1014 C 0.65538 0.05344 0.35059 0.0
C1015 C 0.6083 0.07807 0.36696 0.0
N1016 N 0.66688 0.0728 0.315 0.0
N1017 N 0.61965 0.08958 0.35214 0.0
H1018 H 0.89196 0.09799 0.64746 0.0
H1019 H 0.92879 0.15931 0.55319 0.0
H1020 H 0.97846 0.11632 0.63128 0.0
H1021 H 0.84559 0.17072 0.57692 0.0
H1022 H 0.94727 0.14262 0.58156 0.0
H1023 H 0.874 0.12376 0.62164 0.0
C1024 C 0.90712 0.10772 0.63856 0.0
C1025 C 0.93671 0.10501 0.64145 0.0
C1026 C 0.92505 0.14907 0.58062 0.0
C1027 C 0.91643 0.1341 0.61189 0.0
C1028 C 0.91448 0.1585 0.56442 0.0
C1029 C 0.8856 0.16624 0.5627 0.0
C1030 C 0.90648 0.14686 0.59512 0.0
C1031 C 0.86801 0.16492 0.57769 0.0
C1032 C 0.8969 0.12248 0.6239 0.0
C1033 C 0.95548 0.11811 0.6296 0.0
N1034 N 0.87863 0.15502 0.59324 0.0
N1035 N 0.94504 0.13176 0.61521 0.0
H1036 H 0.88445 0.42257 0.89625 0.0
H1037 H 0.87584 0.43566 0.79112 0.0
H1038 H 0.89723 0.50101 0.8683 0.0
H1039 H 0.84391 0.36242 0.81868 0.0
H1040 H 0.88445 0.45946 0.81957 0.0
H1041 H 0.86961 0.39962 0.86828 0.0
C1042 C 0.88384 0.43502 0.88428 0.0
C1043 C 0.89205 0.46375 0.88462 0.0
C1044 C 0.87543 0.43823 0.81943 0.0
C1045 C 0.87543 0.43765 0.85265 0.0
C1046 C 0.87062 0.42458 0.80318 0.0
C1047 C 0.85925 0.39698 0.80255 0.0
C1048 C 0.86911 0.42409 0.83521 0.0
C1049 C 0.85274 0.38371 0.81859 0.0
C1050 C 0.87533 0.42194 0.86835 0.0
C1051 C 0.89072 0.47893 0.86874 0.0
N1052 N 0.85795 0.39732 0.8343 0.0
N1053 N 0.88286 0.46563 0.85341 0.0
H1054 H 0.56779 0.43824 0.12997 0.0
H1055 H 0.63774 0.31811 0.06911 0.0
H1056 H 0.5477 0.34971 0.13758 0.0
H1057 H 0.61419 0.40066 0.04946 0.0
H1058 H 0.61372 0.32983 0.09722 0.0
H1059 H 0.5948 0.42523 0.10338 0.0
C1060 C 0.56949 0.416 0.12618 0.0
C1061 C 0.55563 0.39497 0.13597 0.0
C1062 C 0.6139 0.34529 0.08671 0.0
C1063 C 0.58635 0.38002 0.10561 0.0
C1064 C 0.62763 0.3387 0.07075 0.0
C1065 C 0.62781 0.35844 0.05697 0.0
C1066 C 0.60099 0.37203 0.08897 0.0
C1067 C 0.61436 0.38478 0.05971 0.0
C1068 C 0.58465 0.40864 0.11095 0.0
C1069 C 0.55808 0.3665 0.13033 0.0
N1070 N 0.60168 0.3909 0.07546 0.0
N1071 N 0.57329 0.35978 0.11551 0.0
loop_
_geom_bond_atom_site_label_1
_geom_bond_atom_site_label_2
_geom_bond_distance
_geom_bond_site_symmetry_2
_ccdc_geom_bond_type
H0 C19 0.949 1_455 S
H1 C20 0.950 . S
H2 C22 0.950 . S
H3 C23 0.950 . S
H4 C25 0.950 . S
H5 C28 0.950 . S
H6 C29 0.950 . S
H7 C31 0.951 . S
H8 C32 0.949 . S
H9 C34 0.949 . S
H10 C35 0.950 . S
H11 C37 0.950 . S
H12 C38 0.950 . S
H13 C40 0.950 . S
H14 C43 0.950 . S
H15 C44 0.950 . S
H16 C46 0.951 . S
H17 C47 0.949 1_545 S
C18 C19 1.376 . S
C18 C23 1.386 . S
C18 C24 1.483 . S
C19 H0 0.949 1_655 S
C19 C18 1.376 . S
C19 C20 1.397 . S
C20 H1 0.950 . S
C20 C19 1.397 . S
C20 C21 1.391 . S
C21 C20 1.391 . S
C21 C22 1.405 . S
C22 H2 0.950 . S
C22 C21 1.405 . S
C22 C23 1.367 . S
C23 H3 0.950 . S
C23 C18 1.386 . S
C23 C22 1.367 . S
C24 C18 1.483 . S
C24 C25 1.382 1_655 S
C24 C26 1.403 . S
C25 H4 0.950 . S
C25 C24 1.382 1_455 S
C25 C41 1.387 1_545 S
C26 C24 1.403 . S
C26 C27 1.489 . S
C26 C40 1.411 1_655 S
C27 C26 1.489 . S
C27 C28 1.383 . S
C27 C32 1.382 . S
C28 H5 0.950 . S
C28 C27 1.383 . S
C28 C29 1.395 . S
C29 H6 0.950 . S
C29 C28 1.395 . S
C29 C30 1.288 . S
C30 C29 1.288 . S
C30 C31 1.392 . S
C31 H7 0.951 . S
C31 C30 1.392 . S
C31 C32 1.392 . S
C32 H8 0.949 . S
C32 C27 1.382 . S
C32 C31 1.392 . S
C33 C34 1.376 . S
C33 C38 1.386 . S
C33 C39 1.483 . S
C34 H9 0.949 . S
C34 C33 1.376 . S
C34 C35 1.397 . S
C35 H10 0.950 . S
C35 C34 1.397 . S
C35 C36 1.391 . S
C36 C35 1.391 . S
C36 C37 1.405 . S
C37 H11 0.950 . S
C37 C36 1.405 . S
C37 C38 1.367 . S
C38 H12 0.950 . S
C38 C33 1.386 . S
C38 C37 1.367 . S
C39 C33 1.483 . S
C39 C40 1.382 1_565 S
C39 C41 1.409 . S
C40 H13 0.950 . S
C40 C26 1.411 1_455 S
C40 C39 1.382 1_545 S
C41 C25 1.387 1_565 S
C41 C39 1.409 . S
C41 C42 1.508 . S
C42 C41 1.508 . S
C42 C43 1.383 . S
C42 C47 1.382 . S
C43 H14 0.950 . S
C43 C42 1.383 . S
C43 C44 1.395 . S
C44 H15 0.950 . S
C44 C43 1.395 . S
C44 C45 1.288 . S
C45 C44 1.288 . S
C45 C46 1.392 . S
C46 H16 0.951 . S
C46 C45 1.392 . S
C46 C47 1.392 . S
C47 H17 0.949 1_565 S
C47 C42 1.382 . S
C47 C46 1.392 . S
H48 C67 0.949 1_455 S
H49 C68 0.950 . S
H50 C70 0.950 . S
H51 C71 0.950 . S
H52 C73 0.950 . S
H53 C76 0.950 . S
H54 C77 0.950 . S
H55 C79 0.951 . S
H56 C80 0.949 . S
H57 C82 0.949 . S
H58 C83 0.950 . S
H59 C85 0.950 . S
H60 C86 0.950 . S
H61 C88 0.950 . S
H62 C91 0.950 . S
H63 C92 0.950 . S
H64 C94 0.951 . S
H65 C95 0.949 . S
C66 C67 1.376 . S
C66 C71 1.386 . S
C66 C72 1.483 . S
C67 H48 0.949 1_655 S
C67 C66 1.376 . S
C67 C68 1.397 . S
C68 H49 0.950 . S
C68 C67 1.397 . S
C68 C69 1.391 . S
C69 C68 1.391 . S
C69 C70 1.405 . S
C70 H50 0.950 . S
C70 C69 1.405 . S
C70 C71 1.367 . S
C71 H51 0.950 . S
C71 C66 1.386 . S
C71 C70 1.367 . S
C72 C66 1.483 . S
C72 C73 1.382 1_655 S
C72 C74 1.403 . S
C73 H52 0.950 . S
C73 C72 1.382 1_455 S
C73 C89 1.411 . S
C74 C72 1.403 . S
C74 C75 1.489 . S
C74 C88 1.411 1_655 S
C75 C74 1.489 . S
C75 C76 1.383 . S
C75 C80 1.382 . S
C76 H53 0.950 . S
C76 C75 1.383 . S
C76 C77 1.395 . S
C77 H54 0.950 . S
C77 C76 1.395 . S
C77 C78 1.288 . S
C78 C77 1.288 . S
C78 C79 1.392 . S
C79 H55 0.951 . S
C79 C78 1.392 . S
C79 C80 1.392 . S
C80 H56 0.949 . S
C80 C75 1.382 . S
C80 C79 1.392 . S
C81 C82 1.376 . S
C81 C86 1.386 . S
C81 C87 1.483 . S
C82 H57 0.949 . S
C82 C81 1.376 . S
C82 C83 1.397 . S
C83 H58 0.950 . S
C83 C82 1.397 . S
C83 C84 1.391 . S
C84 C83 1.391 . S
C84 C85 1.405 . S
C85 H59 0.950 . S
C85 C84 1.405 . S
C85 C86 1.367 . S
C86 H60 0.950 . S
C86 C81 1.386 . S
C86 C85 1.367 . S
C87 C81 1.483 . S
C87 C88 1.382 . S
C87 C89 1.403 . S
C88 H61 0.950 . S
C88 C74 1.411 1_455 S
C88 C87 1.382 . S
C89 C73 1.411 . S
C89 C87 1.403 . S
C89 C90 1.489 . S
C90 C89 1.489 . S
C90 C91 1.383 . S
C90 C95 1.382 . S
C91 H62 0.950 . S
C91 C90 1.383 . S
C91 C92 1.395 . S
C92 H63 0.950 . S
C92 C91 1.395 . S
C92 C93 1.288 . S
C93 C92 1.288 . S
C93 C94 1.392 . S
C94 H64 0.951 . S
C94 C93 1.392 . S
C94 C95 1.392 . S
C95 H65 0.949 . S
C95 C90 1.382 . S
C95 C94 1.392 . S
H96 C115 0.949 . S
H97 C116 0.950 . S
H98 C118 0.950 . S
H99 C119 0.950 . S
H100 C121 0.950 . S
H101 C124 0.950 . S
H102 C125 0.950 . S
H103 C127 0.951 . S
H104 C128 0.949 . S
H105 C130 0.949 . S
H106 C131 0.950 . S
H107 C133 0.950 . S
H108 C134 0.950 . S
H109 C136 0.950 . S
H110 C139 0.950 . S
H111 C140 0.950 . S
H112 C142 0.951 . S
H113 C143 0.949 . S
C114 C115 1.376 . S
C114 C119 1.386 . S
C114 C120 1.483 . S
C115 H96 0.949 . S
C115 C114 1.376 . S
C115 C116 1.397 . S
C116 H97 0.950 . S
C116 C115 1.397 . S
C116 C117 1.391 . S
C117 C116 1.391 . S
C117 C118 1.405 . S
C118 H98 0.950 . S
C118 C117 1.405 . S
C118 C119 1.367 . S
C119 H99 0.950 . S
C119 C114 1.386 . S
C119 C118 1.367 . S
C120 C114 1.483 . S
C120 C121 1.382 . S
C120 C122 1.403 . S
C121 H100 0.950 . S
C121 C120 1.382 . S
C121 C137 1.411 . S
C122 C120 1.403 . S
C122 C123 1.489 . S
C122 C136 1.411 . S
C123 C122 1.489 . S
C123 C124 1.383 . S
C123 C128 1.382 . S
C124 H101 0.950 . S
C124 C123 1.383 . S
C124 C125 1.395 . S
C125 H102 0.950 . S
C125 C124 1.395 . S
C125 C126 1.288 . S
C126 C125 1.288 . S
C126 C127 1.392 . S
C127 H103 0.951 . S
C127 C126 1.392 . S
C127 C128 1.392 . S
C128 H104 0.949 . S
C128 C123 1.382 . S
C128 C127 1.392 . S
C129 C130 1.376 . S
C129 C134 1.386 . S
C129 C135 1.483 . S
C130 H105 0.949 . S
C130 C129 1.376 . S
C130 C131 1.397 . S
C131 H106 0.950 . S
C131 C130 1.397 . S
C131 C132 1.391 . S
C132 C131 1.391 . S
C132 C133 1.405 . S
C133 H107 0.950 . S
C133 C132 1.405 . S
C133 C134 1.367 . S
C134 H108 0.950 . S
C134 C129 1.386 . S
C134 C133 1.367 . S
C135 C129 1.483 . S
C135 C136 1.382 . S
C135 C137 1.403 . S
C136 H109 0.950 . S
C136 C122 1.411 . S
C136 C135 1.382 . S
C137 C121 1.411 . S
C137 C135 1.403 . S
C137 C138 1.489 . S
C138 C137 1.489 . S
C138 C139 1.383 . S
C138 C143 1.382 . S
C139 H110 0.950 . S
C139 C138 1.383 . S
C139 C140 1.395 . S
C140 H111 0.950 . S
C140 C139 1.395 . S
C140 C141 1.288 . S
C141 C140 1.288 . S
C141 C142 1.392 . S
C142 H112 0.951 . S
C142 C141 1.392 . S
C142 C143 1.392 . S
C143 H113 0.949 . S
C143 C138 1.382 . S
C143 C142 1.392 . S
H144 C163 0.949 . S
H145 C164 0.950 . S
H146 C166 0.950 . S
H147 C167 0.950 . S
H148 C169 0.950 . S
H149 C172 0.950 . S
H150 C173 0.950 . S
H151 C175 0.951 . S
H152 C176 0.949 . S
H153 C178 0.949 . S
H154 C179 0.950 . S
H155 C181 0.950 . S
H156 C182 0.950 . S
H157 C184 0.950 . S
H158 C187 0.950 . S
H159 C188 0.950 . S
H160 C190 0.951 . S
H161 C191 0.949 . S
C162 C163 1.376 . S
C162 C167 1.386 . S
C162 C168 1.483 . S
C163 H144 0.949 . S
C163 C162 1.376 . S
C163 C164 1.397 . S
C164 H145 0.950 . S
C164 C163 1.397 . S
C164 C165 1.391 . S
C165 C164 1.391 . S
C165 C166 1.405 . S
C166 H146 0.950 . S
C166 C165 1.405 . S
C166 C167 1.367 . S
C167 H147 0.950 . S
C167 C162 1.386 . S
C167 C166 1.367 . S
C168 C162 1.483 . S
C168 C169 1.382 . S
C168 C170 1.403 . S
C169 H148 0.950 . S
C169 C168 1.382 . S
C169 C185 1.411 1_565 S
C170 C168 1.403 . S
C170 C171 1.489 . S
C170 C184 1.411 1_565 S
C171 C170 1.489 . S
C171 C172 1.383 . S
C171 C176 1.382 . S
C172 H149 0.950 . S
C172 C171 1.383 . S
C172 C173 1.395 . S
C173 H150 0.950 . S
C173 C172 1.395 . S
C173 C174 1.288 . S
C174 C173 1.288 . S
C174 C175 1.392 . S
C175 H151 0.951 . S
C175 C174 1.392 . S
C175 C176 1.392 . S
C176 H152 0.949 . S
C176 C171 1.382 . S
C176 C175 1.392 . S
C177 C178 1.376 . S
C177 C182 1.386 . S
C177 C183 1.483 . S
C178 H153 0.949 . S
C178 C177 1.376 . S
C178 C179 1.397 . S
C179 H154 0.950 . S
C179 C178 1.397 . S
C179 C180 1.391 . S
C180 C179 1.391 . S
C180 C181 1.405 . S
C181 H155 0.950 . S
C181 C180 1.405 . S
C181 C182 1.367 . S
C182 H156 0.950 . S
C182 C177 1.386 . S
C182 C181 1.367 . S
C183 C177 1.483 . S
C183 C184 1.382 . S
C183 C185 1.403 . S
C184 H157 0.950 . S
C184 C170 1.411 1_545 S
C184 C183 1.382 . S
C185 C169 1.411 1_545 S
C185 C183 1.403 . S
C185 C186 1.489 . S
C186 C185 1.489 . S
C186 C187 1.383 . S
C186 C191 1.382 . S
C187 H158 0.950 . S
C187 C186 1.383 . S
C187 C188 1.395 . S
C188 H159 0.950 . S
C188 C187 1.395 . S
C188 C189 1.288 . S
C189 C188 1.288 . S
C189 C190 1.392 . S
C190 H160 0.951 . S
C190 C189 1.392 . S
C190 C191 1.392 . S
C191 H161 0.949 . S
C191 C186 1.382 . S
C191 C190 1.392 . S
H192 C211 0.949 . S
H193 C212 0.950 . S
H194 C214 0.950 . S
H195 C215 0.950 . S
H196 C217 0.950 . S
H197 C220 0.950 . S
H198 C221 0.950 . S
H199 C223 0.951 . S
H200 C224 0.949 . S
H201 C226 0.949 . S
H202 C227 0.950 . S
H203 C229 0.950 . S
H204 C230 0.950 . S
H205 C232 0.950 . S
H206 C235 0.950 . S
H207 C236 0.950 . S
H208 C238 0.951 . S
H209 C239 0.949 . S
C210 C211 1.376 . S
C210 C215 1.386 . S
C210 C216 1.483 . S
C211 H192 0.949 . S
C211 C210 1.376 . S
C211 C212 1.397 . S
C212 H193 0.950 . S
C212 C211 1.397 . S
C212 C213 1.391 . S
C213 C212 1.391 . S
C213 C214 1.405 . S
C214 H194 0.950 . S
C214 C213 1.405 . S
C214 C215 1.367 . S
C215 H195 0.950 . S
C215 C210 1.386 . S
C215 C214 1.367 . S
C216 C210 1.483 . S
C216 C217 1.382 1_455 S
C216 C218 1.403 . S
C217 H196 0.950 . S
C217 C216 1.382 1_655 S
C217 C233 1.411 . S
C218 C216 1.403 . S
C218 C219 1.489 . S
C218 C232 1.411 . S
C219 C218 1.489 . S
C219 C220 1.383 . S
C219 C224 1.382 . S
C220 H197 0.950 . S
C220 C219 1.383 . S
C220 C221 1.395 . S
C221 H198 0.950 . S
C221 C220 1.395 . S
C221 C222 1.288 . S
C222 C221 1.288 . S
C222 C223 1.392 . S
C223 H199 0.951 . S
C223 C222 1.392 . S
C223 C224 1.392 . S
C224 H200 0.949 . S
C224 C219 1.382 . S
C224 C223 1.392 . S
C225 C226 1.376 . S
C225 C230 1.386 . S
C225 C231 1.483 . S
C226 H201 0.949 . S
C226 C225 1.376 . S
C226 C227 1.397 . S
C227 H202 0.950 . S
C227 C226 1.397 . S
C227 C228 1.391 . S
C228 C227 1.391 . S
C228 C229 1.405 . S
C229 H203 0.950 . S
C229 C228 1.405 . S
C229 C230 1.367 . S
C230 H204 0.950 . S
C230 C225 1.386 . S
C230 C229 1.367 . S
C231 C225 1.483 . S
C231 C232 1.382 1_655 S
C231 C233 1.403 . S
C232 H205 0.950 . S
C232 C218 1.411 . S
C232 C231 1.382 1_455 S
C233 C217 1.411 . S
C233 C231 1.403 . S
C233 C234 1.489 . S
C234 C233 1.489 . S
C234 C235 1.383 . S
C234 C239 1.382 . S
C235 H206 0.950 . S
C235 C234 1.383 . S
C235 C236 1.395 . S
C236 H207 0.950 . S
C236 C235 1.395 . S
C236 C237 1.288 . S
C237 C236 1.288 . S
C237 C238 1.392 . S
C238 H208 0.951 . S
C238 C237 1.392 . S
C238 C239 1.392 . S
C239 H209 0.949 . S
C239 C234 1.382 . S
C239 C238 1.392 . S
H240 C259 0.949 . S
H241 C260 0.950 . S
H242 C262 0.950 . S
H243 C263 0.950 . S
H244 C265 0.950 . S
H245 C268 0.950 . S
H246 C269 0.950 . S
H247 C271 0.951 . S
H248 C272 0.949 . S
H249 C274 0.949 . S
H250 C275 0.950 . S
H251 C277 0.950 . S
H252 C278 0.950 . S
H253 C280 0.950 . S
H254 C283 0.950 . S
H255 C284 0.950 . S
H256 C286 0.951 . S
H257 C287 0.949 . S
C258 C259 1.376 . S
C258 C263 1.386 . S
C258 C264 1.483 . S
C259 H240 0.949 . S
C259 C258 1.376 . S
C259 C260 1.397 . S
C260 H241 0.950 . S
C260 C259 1.397 . S
C260 C261 1.391 . S
C261 C260 1.391 . S
C261 C262 1.405 . S
C262 H242 0.950 . S
C262 C261 1.405 . S
C262 C263 1.367 . S
C263 H243 0.950 . S
C263 C258 1.386 . S
C263 C262 1.367 . S
C264 C258 1.483 . S
C264 C265 1.382 . S
C264 C266 1.403 . S
C265 H244 0.950 . S
C265 C264 1.382 . S
C265 C281 1.411 . S
C266 C264 1.403 . S
C266 C267 1.489 . S
C266 C280 1.411 . S
C267 C266 1.489 . S
C267 C268 1.383 . S
C267 C272 1.382 . S
C268 H245 0.950 . S
C268 C267 1.383 . S
C268 C269 1.395 . S
C269 H246 0.950 . S
C269 C268 1.395 . S
C269 C270 1.288 . S
C270 C269 1.288 . S
C270 C271 1.392 . S
C271 H247 0.951 . S
C271 C270 1.392 . S
C271 C272 1.392 . S
C272 H248 0.949 . S
C272 C267 1.382 . S
C272 C271 1.392 . S
C273 C274 1.376 . S
C273 C278 1.386 . S
C273 C279 1.483 . S
C274 H249 0.949 . S
C274 C273 1.376 . S
C274 C275 1.397 . S
C275 H250 0.950 . S
C275 C274 1.397 . S
C275 C276 1.391 . S
C276 C275 1.391 . S
C276 C277 1.405 . S
C277 H251 0.950 . S
C277 C276 1.405 . S
C277 C278 1.367 . S
C278 H252 0.950 . S
C278 C273 1.386 . S
C278 C277 1.367 . S
C279 C273 1.483 . S
C279 C280 1.382 . S
C279 C281 1.403 . S
C280 H253 0.950 . S
C280 C266 1.411 . S
C280 C279 1.382 . S
C281 C265 1.411 . S
C281 C279 1.403 . S
C281 C282 1.489 . S
C282 C281 1.489 . S
C282 C283 1.383 . S
C282 C287 1.382 . S
C283 H254 0.950 . S
C283 C282 1.383 . S
C283 C284 1.395 . S
C284 H255 0.950 . S
C284 C283 1.395 . S
C284 C285 1.288 . S
C285 C284 1.288 . S
C285 C286 1.392 . S
C286 H256 0.951 . S
C286 C285 1.392 . S
C286 C287 1.392 . S
C287 H257 0.949 . S
C287 C282 1.382 . S
C287 C286 1.392 . S
H288 C307 0.949 . S
H289 C308 0.950 . S
H290 C310 0.950 . S
H291 C311 0.950 . S
H292 C313 0.950 . S
H293 C316 0.950 . S
H294 C317 0.950 . S
H295 C319 0.951 . S
H296 C320 0.949 1_545 S
H297 C322 0.949 . S
H298 C323 0.950 . S
H299 C325 0.950 . S
H300 C326 0.950 . S
H301 C328 0.950 . S
H302 C331 0.950 . S
H303 C332 0.950 . S
H304 C334 0.951 . S
H305 C335 0.949 . S
C306 C307 1.376 . S
C306 C311 1.386 . S
C306 C312 1.483 . S
C307 H288 0.949 . S
C307 C306 1.376 . S
C307 C308 1.397 . S
C308 H289 0.950 . S
C308 C307 1.397 . S
C308 C309 1.391 . S
C309 C308 1.391 . S
C309 C310 1.405 . S
C310 H290 0.950 . S
C310 C309 1.405 . S
C310 C311 1.367 . S
C311 H291 0.950 . S
C311 C306 1.386 . S
C311 C310 1.367 . S
C312 C306 1.483 . S
C312 C313 1.382 1_565 S
C312 C314 1.403 . S
C313 H292 0.950 . S
C313 C312 1.382 1_545 S
C313 C329 1.411 . S
C314 C312 1.403 . S
C314 C315 1.489 . S
C314 C328 1.411 1_565 S
C315 C314 1.489 . S
C315 C316 1.383 . S
C315 C320 1.382 . S
C316 H293 0.950 . S
C316 C315 1.383 . S
C316 C317 1.395 . S
C317 H294 0.950 . S
C317 C316 1.395 . S
C317 C318 1.288 . S
C318 C317 1.288 . S
C318 C319 1.392 . S
C319 H295 0.951 . S
C319 C318 1.392 . S
C319 C320 1.392 . S
C320 H296 0.949 1_565 S
C320 C315 1.382 . S
C320 C319 1.392 . S
C321 C322 1.376 . S
C321 C326 1.386 . S
C321 C327 1.483 . S
C322 H297 0.949 . S
C322 C321 1.376 . S
C322 C323 1.397 . S
C323 H298 0.950 . S
C323 C322 1.397 . S
C323 C324 1.391 . S
C324 C323 1.391 . S
C324 C325 1.405 . S
C325 H299 0.950 . S
C325 C324 1.405 . S
C325 C326 1.367 . S
C326 H300 0.950 . S
C326 C321 1.386 . S
C326 C325 1.367 . S
C327 C321 1.483 . S
C327 C328 1.382 . S
C327 C329 1.403 . S
C328 H301 0.950 . S
C328 C314 1.411 1_545 S
C328 C327 1.382 . S
C329 C313 1.411 . S
C329 C327 1.403 . S
C329 C330 1.489 . S
C330 C329 1.489 . S
C330 C331 1.383 . S
C330 C335 1.382 . S
C331 H302 0.950 . S
C331 C330 1.383 . S
C331 C332 1.395 . S
C332 H303 0.950 . S
C332 C331 1.395 . S
C332 C333 1.288 . S
C333 C332 1.288 . S
C333 C334 1.392 . S
C334 H304 0.951 . S
C334 C333 1.392 . S
C334 C335 1.392 . S
C335 H305 0.949 . S
C335 C330 1.382 . S
C335 C334 1.392 . S
H336 C355 0.949 . S
H337 C356 0.950 . S
H338 C358 0.950 . S
H339 C359 0.950 . S
H340 C361 0.950 . S
H341 C364 0.950 1_455 S
H342 C365 0.950 . S
H343 C367 0.951 . S
H344 C368 0.949 . S
H345 C370 0.949 . S
H346 C371 0.950 . S
H347 C373 0.950 . S
H348 C374 0.950 . S
H349 C376 0.950 . S
H350 C379 0.950 . S
H351 C380 0.950 . S
H352 C382 0.951 . S
H353 C383 0.981 . S
C354 C355 1.376 1_655 S
C354 C359 1.386 . S
C354 C360 1.483 1_655 S
C355 H336 0.949 . S
C355 C354 1.376 1_455 S
C355 C356 1.397 1_455 S
C356 H337 0.950 . S
C356 C355 1.397 1_655 S
C356 C357 1.391 . S
C357 C356 1.391 . S
C357 C358 1.405 . S
C358 H338 0.950 . S
C358 C357 1.405 . S
C358 C359 1.367 . S
C359 H339 0.950 . S
C359 C354 1.386 . S
C359 C358 1.367 . S
C360 C354 1.483 1_455 S
C360 C361 1.382 . S
C360 C362 1.403 . S
C361 H340 0.950 . S
C361 C360 1.382 . S
C361 C377 1.411 . S
C362 C360 1.403 . S
C362 C363 1.489 1_455 S
C362 C376 1.411 . S
C363 C362 1.489 1_655 S
C363 C364 1.383 . S
C363 C368 1.382 . S
C364 H341 0.950 1_655 S
C364 C363 1.383 . S
C364 C365 1.395 . S
C365 H342 0.950 . S
C365 C364 1.395 . S
C365 C366 1.288 . S
C366 C365 1.288 . S
C366 C367 1.392 . S
C367 H343 0.951 . S
C367 C366 1.392 . S
C367 C368 1.392 . S
C368 H344 0.949 . S
C368 C363 1.382 . S
C368 C367 1.392 . S
C369 C370 1.376 . S
C369 C374 1.386 . S
C369 C375 1.483 1_565 S
C370 H345 0.949 . S
C370 C369 1.376 . S
C370 C371 1.397 . S
C371 H346 0.950 . S
C371 C370 1.397 . S
C371 C372 1.391 . S
C372 C371 1.391 . S
C372 C373 1.405 . S
C373 H347 0.950 . S
C373 C372 1.405 . S
C373 C374 1.367 . S
C374 H348 0.950 . S
C374 C369 1.386 . S
C374 C373 1.367 . S
C375 C369 1.483 1_545 S
C375 C376 1.382 . S
C375 C377 1.403 . S
C376 H349 0.950 . S
C376 C362 1.411 . S
C376 C375 1.382 . S
C377 C361 1.411 . S
C377 C375 1.403 . S
C377 C378 1.489 1_545 S
C378 C377 1.489 1_565 S
C378 C379 1.383 . S
C378 C383 1.371 1_565 S
C379 H350 0.950 . S
C379 C378 1.383 . S
C379 C380 1.395 . S
C380 H351 0.950 . S
C380 C379 1.395 . S
C380 C381 1.288 . S
C381 C380 1.288 . S
C381 C382 1.392 . S
C382 H352 0.951 . S
C382 C381 1.392 . S
C382 C383 1.371 1_565 S
C383 H353 0.981 . S
C383 C378 1.371 1_545 S
C383 C382 1.371 1_545 S
C384 O385 1.306 . S
C384 O387 1.160 . S
O385 C384 1.306 . S
O385 Cd386 2.228 . S
Cd386 O385 2.228 . S
Cd386 O390 2.273 1_554 S
Cd386 O394 2.277 . S
O387 C384 1.160 . S
O387 Cd388 2.203 . S
Cd388 O387 2.203 . S
Cd388 O390 2.411 1_554 S
Cd388 O391 2.333 1_554 S
Cd388 O392 2.352 . S
Cd388 O396 2.277 . S
Cd388 O397 2.356 1_554 S
C389 O394 1.209 . S
C389 O396 1.226 . S
O390 Cd386 2.273 1_556 S
O390 Cd388 2.411 1_556 S
O390 C393 1.320 . S
O391 Cd388 2.333 1_556 S
O391 C393 1.214 . S
O392 Cd388 2.352 . S
O392 C395 1.255 1_554 S
C393 O390 1.320 . S
C393 O391 1.214 . S
O394 Cd386 2.277 . S
O394 C389 1.209 . S
C395 O392 1.255 1_556 S
C395 O397 1.284 . S
O396 Cd388 2.277 . S
O396 C389 1.226 . S
O397 Cd388 2.356 1_556 S
O397 C395 1.284 . S
C398 O399 1.306 . S
C398 O401 1.160 . S
O399 C398 1.306 . S
O399 Cd400 2.228 . S
Cd400 O399 2.228 . S
Cd400 O404 2.273 . S
Cd400 O408 2.277 . S
O401 C398 1.160 . S
O401 Cd402 2.203 . S
Cd402 O401 2.203 . S
Cd402 O404 2.411 . S
Cd402 O405 2.333 . S
Cd402 O406 2.352 . S
Cd402 O410 2.277 . S
Cd402 O411 2.356 . S
C403 O408 1.209 . S
C403 O410 1.226 . S
O404 Cd400 2.273 . S
O404 Cd402 2.411 . S
O404 C407 1.320 . S
O405 Cd402 2.333 . S
O405 C407 1.214 . S
O406 Cd402 2.352 . S
O406 C409 1.258 . S
C407 O404 1.320 . S
C407 O405 1.214 . S
O408 Cd400 2.277 . S
O408 C403 1.209 . S
C409 O406 1.258 . S
C409 O411 1.282 . S
O410 Cd402 2.277 . S
O410 C403 1.226 . S
O411 Cd402 2.356 . S
O411 C409 1.282 . S
C412 O413 1.306 . S
C412 O415 1.160 . S
O413 C412 1.306 . S
O413 Cd414 2.228 . S
Cd414 O413 2.228 . S
Cd414 O418 2.273 . S
Cd414 O422 2.277 . S
O415 C412 1.160 . S
O415 Cd416 2.203 . S
Cd416 O415 2.203 . S
Cd416 O418 2.411 . S
Cd416 O419 2.333 . S
Cd416 O420 2.352 . S
Cd416 O424 2.277 . S
Cd416 O425 2.356 . S
C417 O422 1.209 . S
C417 O424 1.226 . S
O418 Cd414 2.273 . S
O418 Cd416 2.411 . S
O418 C421 1.320 . S
O419 Cd416 2.333 . S
O419 C421 1.214 . S
O420 Cd416 2.352 . S
O420 C423 1.258 . S
C421 O418 1.320 . S
C421 O419 1.214 . S
O422 Cd414 2.277 . S
O422 C417 1.209 . S
C423 O420 1.258 . S
C423 O425 1.282 . S
O424 Cd416 2.277 . S
O424 C417 1.226 . S
O425 Cd416 2.356 . S
O425 C423 1.282 . S
C426 O427 1.306 . S
C426 O429 1.160 . S
O427 C426 1.306 . S
O427 Cd428 2.228 . S
Cd428 O427 2.228 . S
Cd428 O432 2.273 . S
Cd428 O436 2.277 . S
O429 C426 1.160 . S
O429 Cd430 2.203 . S
Cd430 O429 2.203 . S
Cd430 O432 2.411 . S
Cd430 O433 2.333 . S
Cd430 O434 2.352 . S
Cd430 O438 2.277 . S
Cd430 O439 2.356 . S
C431 O436 1.209 . S
C431 O438 1.226 . S
O432 Cd428 2.273 . S
O432 Cd430 2.411 . S
O432 C435 1.320 . S
O433 Cd430 2.333 . S
O433 C435 1.214 . S
O434 Cd430 2.352 . S
O434 C437 1.258 . S
C435 O432 1.320 . S
C435 O433 1.214 . S
O436 Cd428 2.277 . S
O436 C431 1.209 . S
C437 O434 1.258 . S
C437 O439 1.282 . S
O438 Cd430 2.277 . S
O438 C431 1.226 . S
O439 Cd430 2.356 . S
O439 C437 1.282 . S
C440 O441 1.306 . S
C440 O443 1.160 . S
O441 C440 1.306 . S
O441 Cd442 2.228 . S
Cd442 O441 2.228 . S
Cd442 O446 2.273 . S
Cd442 O450 2.277 . S
O443 C440 1.160 . S
O443 Cd444 2.203 . S
Cd444 O443 2.203 . S
Cd444 O446 2.411 . S
Cd444 O447 2.333 . S
Cd444 O448 2.352 . S
Cd444 O452 2.277 . S
Cd444 O453 2.356 . S
C445 O450 1.209 . S
C445 O452 1.226 . S
O446 Cd442 2.273 . S
O446 Cd444 2.411 . S
O446 C449 1.320 . S
O447 Cd444 2.333 . S
O447 C449 1.214 . S
O448 Cd444 2.352 . S
O448 C451 1.258 . S
C449 O446 1.320 . S
C449 O447 1.214 . S
O450 Cd442 2.277 . S
O450 C445 1.209 . S
C451 O448 1.258 . S
C451 O453 1.282 . S
O452 Cd444 2.277 . S
O452 C445 1.226 . S
O453 Cd444 2.356 . S
O453 C451 1.282 . S
C454 O455 1.306 . S
C454 O457 1.160 . S
O455 C454 1.306 . S
O455 Cd456 2.228 . S
Cd456 O455 2.228 . S
Cd456 O460 2.273 . S
Cd456 O464 2.277 . S
O457 C454 1.160 . S
O457 Cd458 2.203 . S
Cd458 O457 2.203 . S
Cd458 O460 2.411 . S
Cd458 O461 2.333 . S
Cd458 O462 2.352 . S
Cd458 O466 2.277 . S
Cd458 O467 2.356 . S
C459 O464 1.209 . S
C459 O466 1.226 . S
O460 Cd456 2.273 . S
O460 Cd458 2.411 . S
O460 C463 1.320 . S
O461 Cd458 2.333 . S
O461 C463 1.214 . S
O462 Cd458 2.352 . S
O462 C465 1.258 . S
C463 O460 1.320 . S
C463 O461 1.214 . S
O464 Cd456 2.277 . S
O464 C459 1.209 . S
C465 O462 1.258 . S
C465 O467 1.282 . S
O466 Cd458 2.277 . S
O466 C459 1.226 . S
O467 Cd458 2.356 . S
O467 C465 1.282 . S
C468 O469 1.306 . S
C468 O471 1.160 . S
O469 C468 1.306 . S
O469 Cd470 2.265 . S
Cd470 O469 2.265 . S
Cd470 O474 2.243 1_556 S
Cd470 O478 2.282 . S
O471 C468 1.160 . S
O471 Cd472 2.203 1_556 S
Cd472 O471 2.203 1_554 S
Cd472 O474 2.411 . S
Cd472 O475 2.333 . S
Cd472 O476 2.352 . S
Cd472 O480 2.277 1_554 S
Cd472 O481 2.356 . S
C473 O478 1.209 . S
C473 O480 1.226 . S
O474 Cd470 2.243 1_554 S
O474 Cd472 2.411 . S
O474 C477 1.320 . S
O475 Cd472 2.333 . S
O475 C477 1.214 . S
O476 Cd472 2.352 . S
O476 C479 1.258 . S
C477 O474 1.320 . S
C477 O475 1.214 . S
O478 Cd470 2.282 . S
O478 C473 1.209 . S
C479 O476 1.258 . S
C479 O481 1.282 . S
O480 Cd472 2.277 1_556 S
O480 C473 1.226 . S
O481 Cd472 2.356 . S
O481 C479 1.282 . S
C482 O483 1.306 . S
C482 O485 1.160 . S
O483 C482 1.306 . S
O483 Cd484 2.228 . S
Cd484 O483 2.228 . S
Cd484 O488 2.273 . S
Cd484 O492 2.277 . S
O485 C482 1.160 . S
O485 Cd486 2.203 . S
Cd486 O485 2.203 . S
Cd486 O488 2.411 . S
Cd486 O489 2.333 . S
Cd486 O490 2.352 . S
Cd486 O494 2.277 . S
Cd486 O495 2.356 . S
C487 O492 1.209 . S
C487 O494 1.226 . S
O488 Cd484 2.273 . S
O488 Cd486 2.411 . S
O488 C491 1.320 . S
O489 Cd486 2.333 . S
O489 C491 1.214 . S
O490 Cd486 2.352 . S
O490 C493 1.258 . S
C491 O488 1.320 . S
C491 O489 1.214 . S
O492 Cd484 2.277 . S
O492 C487 1.209 . S
C493 O490 1.258 . S
C493 O495 1.282 . S
O494 Cd486 2.277 . S
O494 C487 1.226 . S
O495 Cd486 2.356 . S
O495 C493 1.282 . S
H496 C502 0.930 . S
H497 C506 0.930 . S
H498 C511 0.929 . S
H499 C509 0.929 . S
H500 C504 0.929 . S
H501 C510 0.929 . S
C502 H496 0.930 . S
C502 C503 1.367 . S
C502 C510 1.378 . S
C503 C502 1.367 . S
C503 C511 1.433 . S
C504 H500 0.929 . S
C504 C506 1.378 . S
C504 C508 1.350 . S
C505 C508 1.463 . S
C505 C510 1.350 . S
C505 N513 1.427 . S
C506 H497 0.930 . S
C506 C504 1.378 . S
C506 C507 1.367 . S
C507 C506 1.367 . S
C507 C509 1.433 . S
C508 C504 1.350 . S
C508 C505 1.463 . S
C508 N512 1.427 . S
C509 H499 0.929 . S
C509 C507 1.433 . S
C509 N512 1.384 . S
C510 H501 0.929 . S
C510 C502 1.378 . S
C510 C505 1.350 . S
C511 H498 0.929 . S
C511 C503 1.433 . S
C511 N513 1.384 . S
N512 C508 1.427 . S
N512 C509 1.384 . S
N513 C505 1.427 . S
N513 C511 1.384 . S
H514 C520 0.930 . S
H515 C524 0.930 . S
H516 C529 0.929 . S
H517 C527 0.929 . S
H518 C522 0.929 . S
H519 C528 0.929 . S
C520 H514 0.930 . S
C520 C521 1.367 . S
C520 C528 1.378 . S
C521 C520 1.367 . S
C521 C529 1.433 . S
C522 H518 0.929 . S
C522 C524 1.378 . S
C522 C526 1.350 . S
C523 C526 1.463 . S
C523 C528 1.350 . S
C523 N531 1.427 . S
C524 H515 0.930 . S
C524 C522 1.378 . S
C524 C525 1.367 . S
C525 C524 1.367 . S
C525 C527 1.433 . S
C526 C522 1.350 . S
C526 C523 1.463 . S
C526 N530 1.427 . S
C527 H517 0.929 . S
C527 C525 1.433 . S
C527 N530 1.384 . S
C528 H519 0.929 . S
C528 C520 1.378 . S
C528 C523 1.350 . S
C529 H516 0.929 . S
C529 C521 1.433 . S
C529 N531 1.384 . S
N530 C526 1.427 . S
N530 C527 1.384 . S
N531 C523 1.427 . S
N531 C529 1.384 . S
H532 C538 0.930 . S
H533 C542 0.930 . S
H534 C547 0.929 . S
H535 C545 0.929 . S
H536 C540 0.929 . S
H537 C546 0.929 . S
C538 H532 0.930 . S
C538 C539 1.367 . S
C538 C546 1.378 . S
C539 C538 1.367 . S
C539 C547 1.433 . S
C540 H536 0.929 . S
C540 C542 1.378 . S
C540 C544 1.350 . S
C541 C544 1.463 . S
C541 C546 1.350 . S
C541 N549 1.427 . S
C542 H533 0.930 . S
C542 C540 1.378 . S
C542 C543 1.367 . S
C543 C542 1.367 . S
C543 C545 1.433 . S
C544 C540 1.350 . S
C544 C541 1.463 . S
C544 N548 1.427 . S
C545 H535 0.929 . S
C545 C543 1.433 . S
C545 N548 1.384 . S
C546 H537 0.929 . S
C546 C538 1.378 . S
C546 C541 1.350 . S
C547 H534 0.929 . S
C547 C539 1.433 . S
C547 N549 1.384 . S
N548 C544 1.427 . S
N548 C545 1.384 . S
N549 C541 1.427 . S
N549 C547 1.384 . S
H550 C556 0.930 . S
H551 C560 0.930 . S
H552 C565 0.929 . S
H553 C563 0.929 . S
H554 C558 0.929 . S
H555 C564 0.929 . S
C556 H550 0.930 . S
C556 C557 1.367 . S
C556 C564 1.378 . S
C557 C556 1.367 . S
C557 C565 1.433 . S
C558 H554 0.929 . S
C558 C560 1.378 . S
C558 C562 1.350 . S
C559 C562 1.463 . S
C559 C564 1.350 . S
C559 N567 1.427 . S
C560 H551 0.930 . S
C560 C558 1.378 . S
C560 C561 1.367 . S
C561 C560 1.367 . S
C561 C563 1.433 . S
C562 C558 1.350 . S
C562 C559 1.463 . S
C562 N566 1.427 . S
C563 H553 0.929 . S
C563 C561 1.433 . S
C563 N566 1.384 . S
C564 H555 0.929 . S
C564 C556 1.378 . S
C564 C559 1.350 . S
C565 H552 0.929 . S
C565 C557 1.433 . S
C565 N567 1.384 . S
N566 C562 1.427 . S
N566 C563 1.384 . S
N567 C559 1.427 . S
N567 C565 1.384 . S
H568 C574 0.930 1_554 S
H569 C578 0.930 . S
H570 C583 0.929 . S
H571 C581 0.929 . S
H572 C576 0.929 . S
H573 C582 0.918 1_554 S
C574 H568 0.930 1_556 S
C574 C575 1.367 . S
C574 C582 1.380 . S
C575 C574 1.367 . S
C575 C583 1.433 . S
C576 H572 0.929 . S
C576 C578 1.378 . S
C576 C580 1.350 . S
C577 C580 1.463 . S
C577 C582 1.358 . S
C577 N585 1.427 . S
C578 H569 0.930 . S
C578 C576 1.378 . S
C578 C579 1.367 . S
C579 C578 1.367 . S
C579 C581 1.433 1_556 S
C580 C576 1.350 . S
C580 C577 1.463 . S
C580 N584 1.427 1_556 S
C581 H571 0.929 . S
C581 C579 1.433 1_554 S
C581 N584 1.384 . S
C582 H573 0.918 1_556 S
C582 C574 1.380 . S
C582 C577 1.358 . S
C583 H570 0.929 . S
C583 C575 1.433 . S
C583 N585 1.384 . S
N584 C580 1.427 1_554 S
N584 C581 1.384 . S
N585 C577 1.427 . S
N585 C583 1.384 . S
H586 C592 0.930 . S
H587 C596 0.930 . S
H588 C601 0.929 . S
H589 C599 0.929 . S
H590 C594 0.929 . S
H591 C600 0.929 . S
C592 H586 0.930 . S
C592 C593 1.367 . S
C592 C600 1.378 . S
C593 C592 1.367 . S
C593 C601 1.433 . S
C594 H590 0.929 . S
C594 C596 1.378 . S
C594 C598 1.350 . S
C595 C598 1.463 . S
C595 C600 1.350 . S
C595 N603 1.427 . S
C596 H587 0.930 . S
C596 C594 1.378 . S
C596 C597 1.367 . S
C597 C596 1.367 . S
C597 C599 1.433 . S
C598 C594 1.350 . S
C598 C595 1.463 . S
C598 N602 1.427 . S
C599 H589 0.929 . S
C599 C597 1.433 . S
C599 N602 1.384 . S
C600 H591 0.929 . S
C600 C592 1.378 . S
C600 C595 1.350 . S
C601 H588 0.929 . S
C601 C593 1.433 . S
C601 N603 1.384 . S
N602 C598 1.427 . S
N602 C599 1.384 . S
N603 C595 1.427 . S
N603 C601 1.384 . S
H604 C610 0.930 . S
H605 C614 0.930 . S
H606 C619 0.929 . S
H607 C617 0.929 . S
H608 C612 0.929 . S
H609 C618 0.929 . S
C610 H604 0.930 . S
C610 C611 1.367 . S
C610 C618 1.378 . S
C611 C610 1.367 . S
C611 C619 1.433 . S
C612 H608 0.929 . S
C612 C614 1.378 . S
C612 C616 1.350 . S
C613 C616 1.463 . S
C613 C618 1.350 . S
C613 N621 1.427 . S
C614 H605 0.930 . S
C614 C612 1.378 . S
C614 C615 1.367 . S
C615 C614 1.367 . S
C615 C617 1.433 . S
C616 C612 1.350 . S
C616 C613 1.463 . S
C616 N620 1.427 . S
C617 H607 0.929 . S
C617 C615 1.433 . S
C617 N620 1.384 . S
C618 H609 0.929 . S
C618 C610 1.378 . S
C618 C613 1.350 . S
C619 H606 0.929 . S
C619 C611 1.433 . S
C619 N621 1.384 . S
N620 C616 1.427 . S
N620 C617 1.384 . S
N621 C613 1.427 . S
N621 C619 1.384 . S
H622 C628 0.930 . S
H623 C632 0.930 . S
H624 C637 0.929 . S
H625 C635 0.929 . S
H626 C630 0.929 . S
H627 C636 0.929 . S
C628 H622 0.930 . S
C628 C629 1.367 . S
C628 C636 1.378 . S
C629 C628 1.367 . S
C629 C637 1.433 . S
C630 H626 0.929 . S
C630 C632 1.378 . S
C630 C634 1.350 . S
C631 C634 1.463 . S
C631 C636 1.350 . S
C631 N639 1.427 . S
C632 H623 0.930 . S
C632 C630 1.378 . S
C632 C633 1.367 . S
C633 C632 1.367 . S
C633 C635 1.433 . S
C634 C630 1.350 . S
C634 C631 1.463 . S
C634 N638 1.427 . S
C635 H625 0.929 . S
C635 C633 1.433 . S
C635 N638 1.384 . S
C636 H627 0.929 . S
C636 C628 1.378 . S
C636 C631 1.350 . S
C637 H624 0.929 . S
C637 C629 1.433 . S
C637 N639 1.384 . S
N638 C634 1.427 . S
N638 C635 1.384 . S
N639 C631 1.427 . S
N639 C637 1.384 . S
H640 C646 0.930 . S
H641 C650 0.930 . S
H642 C655 0.929 . S
H643 C653 0.929 . S
H644 C648 0.929 . S
H645 C654 0.929 . S
C646 H640 0.930 . S
C646 C647 1.367 . S
C646 C654 1.378 . S
C647 C646 1.367 . S
C647 C655 1.433 . S
C648 H644 0.929 . S
C648 C650 1.378 . S
C648 C652 1.350 . S
C649 C652 1.463 . S
C649 C654 1.350 . S
C649 N657 1.427 . S
C650 H641 0.930 . S
C650 C648 1.378 . S
C650 C651 1.367 . S
C651 C650 1.367 . S
C651 C653 1.433 . S
C652 C648 1.350 . S
C652 C649 1.463 . S
C652 N656 1.427 . S
C653 H643 0.929 . S
C653 C651 1.433 . S
C653 N656 1.384 . S
C654 H645 0.929 . S
C654 C646 1.378 . S
C654 C649 1.350 . S
C655 H642 0.929 . S
C655 C647 1.433 . S
C655 N657 1.384 . S
N656 C652 1.427 . S
N656 C653 1.384 . S
N657 C649 1.427 . S
N657 C655 1.384 . S
H658 C664 0.933 . S
H659 C668 0.930 . S
H660 C673 0.929 . S
H661 C671 0.929 . S
H662 C666 0.929 . S
H663 C672 0.929 1_556 S
C664 H658 0.933 . S
C664 C665 1.367 . S
C664 C672 1.378 . S
C665 C664 1.367 . S
C665 C673 1.433 . S
C666 H662 0.929 . S
C666 C668 1.378 . S
C666 C670 1.350 . S
C667 C670 1.463 . S
C667 C672 1.350 . S
C667 N675 1.427 . S
C668 H659 0.930 . S
C668 C666 1.378 . S
C668 C669 1.367 . S
C669 C668 1.367 . S
C669 C671 1.433 1_554 S
C670 C666 1.350 . S
C670 C667 1.463 . S
C670 N674 1.399 1_554 S
C671 H661 0.929 . S
C671 C669 1.433 1_556 S
C671 N674 1.390 . S
C672 H663 0.929 1_554 S
C672 C664 1.378 . S
C672 C667 1.350 . S
C673 H660 0.929 . S
C673 C665 1.433 . S
C673 N675 1.384 . S
N674 C670 1.399 1_556 S
N674 C671 1.390 . S
N675 C667 1.427 . S
N675 C673 1.384 . S
H676 C682 0.930 . S
H677 C686 0.930 . S
H678 C691 0.929 . S
H679 C689 0.929 . S
H680 C684 0.929 . S
H681 C690 0.929 . S
C682 H676 0.930 . S
C682 C683 1.367 . S
C682 C690 1.378 . S
C683 C682 1.367 . S
C683 C691 1.433 . S
C684 H680 0.929 . S
C684 C686 1.378 . S
C684 C688 1.350 . S
C685 C688 1.463 . S
C685 C690 1.350 . S
C685 N693 1.427 . S
C686 H677 0.930 . S
C686 C684 1.378 . S
C686 C687 1.367 . S
C687 C686 1.367 . S
C687 C689 1.433 . S
C688 C684 1.350 . S
C688 C685 1.463 . S
C688 N692 1.427 . S
C689 H679 0.929 . S
C689 C687 1.433 . S
C689 N692 1.384 . S
C690 H681 0.929 . S
C690 C682 1.378 . S
C690 C685 1.350 . S
C691 H678 0.929 . S
C691 C683 1.433 . S
C691 N693 1.384 . S
N692 C688 1.427 . S
N692 C689 1.384 . S
N693 C685 1.427 . S
N693 C691 1.384 . S
H694 C700 0.930 . S
H695 C704 0.930 . S
H696 C709 0.929 . S
H697 C707 0.929 . S
H698 C702 0.929 . S
H699 C708 0.929 . S
C700 H694 0.930 . S
C700 C701 1.367 . S
C700 C708 1.378 . S
C701 C700 1.367 . S
C701 C709 1.433 . S
C702 H698 0.929 . S
C702 C704 1.378 . S
C702 C706 1.350 . S
C703 C706 1.463 . S
C703 C708 1.350 . S
C703 N711 1.427 . S
C704 H695 0.930 . S
C704 C702 1.378 . S
C704 C705 1.367 . S
C705 C704 1.367 . S
C705 C707 1.433 . S
C706 C702 1.350 . S
C706 C703 1.463 . S
C706 N710 1.427 . S
C707 H697 0.929 . S
C707 C705 1.433 . S
C707 N710 1.384 . S
C708 H699 0.929 . S
C708 C700 1.378 . S
C708 C703 1.350 . S
C709 H696 0.929 . S
C709 C701 1.433 . S
C709 N711 1.384 . S
N710 C706 1.427 . S
N710 C707 1.384 . S
N711 C703 1.427 . S
N711 C709 1.384 . S
H712 C718 0.930 . S
H713 C722 0.930 . S
H714 C727 0.929 . S
H715 C725 0.929 . S
H716 C720 0.929 . S
H717 C726 0.929 . S
C718 H712 0.930 . S
C718 C719 1.367 . S
C718 C726 1.378 . S
C719 C718 1.367 . S
C719 C727 1.433 . S
C720 H716 0.929 . S
C720 C722 1.378 . S
C720 C724 1.350 . S
C721 C724 1.463 . S
C721 C726 1.350 . S
C721 N729 1.427 . S
C722 H713 0.930 . S
C722 C720 1.378 . S
C722 C723 1.367 . S
C723 C722 1.367 . S
C723 C725 1.433 . S
C724 C720 1.350 . S
C724 C721 1.463 . S
C724 N728 1.427 . S
C725 H715 0.929 . S
C725 C723 1.433 . S
C725 N728 1.384 . S
C726 H717 0.929 . S
C726 C718 1.378 . S
C726 C721 1.350 . S
C727 H714 0.929 . S
C727 C719 1.433 . S
C727 N729 1.384 . S
N728 C724 1.427 . S
N728 C725 1.384 . S
N729 C721 1.427 . S
N729 C727 1.384 . S
H730 C736 0.930 . S
H731 C740 0.930 . S
H732 C745 0.929 . S
H733 C743 0.929 . S
H734 C738 0.929 . S
H735 C744 0.929 . S
C736 H730 0.930 . S
C736 C737 1.367 . S
C736 C744 1.378 . S
C737 C736 1.367 . S
C737 C745 1.433 . S
C738 H734 0.929 . S
C738 C740 1.378 . S
C738 C742 1.350 . S
C739 C742 1.463 . S
C739 C744 1.350 . S
C739 N747 1.427 . S
C740 H731 0.930 . S
C740 C738 1.378 . S
C740 C741 1.367 . S
C741 C740 1.367 . S
C741 C743 1.433 . S
C742 C738 1.350 . S
C742 C739 1.463 . S
C742 N746 1.427 . S
C743 H733 0.929 . S
C743 C741 1.433 . S
C743 N746 1.384 . S
C744 H735 0.929 . S
C744 C736 1.378 . S
C744 C739 1.350 . S
C745 H732 0.929 . S
C745 C737 1.433 . S
C745 N747 1.384 . S
N746 C742 1.427 . S
N746 C743 1.384 . S
N747 C739 1.427 . S
N747 C745 1.384 . S
H748 C754 0.930 . S
H749 C758 0.930 . S
H750 C763 0.929 . S
H751 C761 0.929 . S
H752 C756 0.929 . S
H753 C762 0.929 . S
C754 H748 0.930 . S
C754 C755 1.367 . S
C754 C762 1.378 . S
C755 C754 1.367 . S
C755 C763 1.433 . S
C756 H752 0.929 . S
C756 C758 1.378 . S
C756 C760 1.350 . S
C757 C760 1.463 . S
C757 C762 1.350 . S
C757 N765 1.427 . S
C758 H749 0.930 . S
C758 C756 1.378 . S
C758 C759 1.367 . S
C759 C758 1.367 . S
C759 C761 1.433 . S
C760 C756 1.350 . S
C760 C757 1.463 . S
C760 N764 1.427 . S
C761 H751 0.929 . S
C761 C759 1.433 . S
C761 N764 1.384 . S
C762 H753 0.929 . S
C762 C754 1.378 . S
C762 C757 1.350 . S
C763 H750 0.929 . S
C763 C755 1.433 . S
C763 N765 1.384 . S
N764 C760 1.427 . S
N764 C761 1.384 . S
N765 C757 1.427 . S
N765 C763 1.384 . S
H766 C772 0.930 . S
H767 C776 0.930 . S
H768 C781 0.929 . S
H769 C779 0.929 . S
H770 C774 0.929 . S
H771 C780 0.929 . S
C772 H766 0.930 . S
C772 C773 1.367 . S
C772 C780 1.378 . S
C773 C772 1.367 . S
C773 C781 1.433 . S
C774 H770 0.929 . S
C774 C776 1.378 . S
C774 C778 1.350 . S
C775 C778 1.463 . S
C775 C780 1.350 . S
C775 N783 1.427 . S
C776 H767 0.930 . S
C776 C774 1.378 . S
C776 C777 1.367 . S
C777 C776 1.367 . S
C777 C779 1.433 . S
C778 C774 1.350 . S
C778 C775 1.463 . S
C778 N782 1.427 . S
C779 H769 0.929 . S
C779 C777 1.433 . S
C779 N782 1.384 . S
C780 H771 0.929 . S
C780 C772 1.378 . S
C780 C775 1.350 . S
C781 H768 0.929 . S
C781 C773 1.433 . S
C781 N783 1.384 . S
N782 C778 1.427 . S
N782 C779 1.384 . S
N783 C775 1.427 . S
N783 C781 1.384 . S
H784 C790 0.930 . S
H785 C794 0.930 . S
H786 C799 0.929 . S
H787 C797 0.929 . S
H788 C792 0.929 . S
H789 C798 0.929 . S
C790 H784 0.930 . S
C790 C791 1.367 . S
C790 C798 1.378 . S
C791 C790 1.367 . S
C791 C799 1.433 . S
C792 H788 0.929 . S
C792 C794 1.378 . S
C792 C796 1.350 . S
C793 C796 1.463 . S
C793 C798 1.350 . S
C793 N801 1.427 . S
C794 H785 0.930 . S
C794 C792 1.378 . S
C794 C795 1.367 . S
C795 C794 1.367 . S
C795 C797 1.433 . S
C796 C792 1.350 . S
C796 C793 1.463 . S
C796 N800 1.427 . S
C797 H787 0.929 . S
C797 C795 1.433 . S
C797 N800 1.384 . S
C798 H789 0.929 . S
C798 C790 1.378 . S
C798 C793 1.350 . S
C799 H786 0.929 . S
C799 C791 1.433 . S
C799 N801 1.384 . S
N800 C796 1.427 . S
N800 C797 1.384 . S
N801 C793 1.427 . S
N801 C799 1.384 . S
H802 C808 0.930 . S
H803 C812 0.930 . S
H804 C817 0.929 . S
H805 C815 0.929 . S
H806 C810 0.929 . S
H807 C816 0.929 . S
C808 H802 0.930 . S
C808 C809 1.367 . S
C808 C816 1.378 . S
C809 C808 1.367 . S
C809 C817 1.433 . S
C810 H806 0.929 . S
C810 C812 1.378 . S
C810 C814 1.350 . S
C811 C814 1.463 . S
C811 C816 1.350 . S
C811 N819 1.427 . S
C812 H803 0.930 . S
C812 C810 1.378 . S
C812 C813 1.367 . S
C813 C812 1.367 . S
C813 C815 1.433 . S
C814 C810 1.350 . S
C814 C811 1.463 . S
C814 N818 1.427 . S
C815 H805 0.929 . S
C815 C813 1.433 . S
C815 N818 1.384 . S
C816 H807 0.929 . S
C816 C808 1.378 . S
C816 C811 1.350 . S
C817 H804 0.929 . S
C817 C809 1.433 . S
C817 N819 1.384 . S
N818 C814 1.427 . S
N818 C815 1.384 . S
N819 C811 1.427 . S
N819 C817 1.384 . S
H820 C826 0.930 . S
H821 C830 0.930 . S
H822 C835 0.929 . S
H823 C833 0.929 . S
H824 C828 0.929 . S
H825 C834 0.929 . S
C826 H820 0.930 . S
C826 C827 1.367 . S
C826 C834 1.378 . S
C827 C826 1.367 . S
C827 C835 1.433 . S
C828 H824 0.929 . S
C828 C830 1.378 . S
C828 C832 1.350 . S
C829 C832 1.463 . S
C829 C834 1.350 . S
C829 N837 1.427 . S
C830 H821 0.930 . S
C830 C828 1.378 . S
C830 C831 1.367 . S
C831 C830 1.367 . S
C831 C833 1.433 . S
C832 C828 1.350 . S
C832 C829 1.463 . S
C832 N836 1.427 . S
C833 H823 0.929 . S
C833 C831 1.433 . S
C833 N836 1.384 . S
C834 H825 0.929 . S
C834 C826 1.378 . S
C834 C829 1.350 . S
C835 H822 0.929 . S
C835 C827 1.433 . S
C835 N837 1.384 . S
N836 C832 1.427 . S
N836 C833 1.384 . S
N837 C829 1.427 . S
N837 C835 1.384 . S
H838 C844 0.930 . S
H839 C848 0.930 . S
H840 C853 0.929 . S
H841 C851 0.929 . S
H842 C846 0.929 . S
H843 C852 0.929 . S
C844 H838 0.930 . S
C844 C845 1.367 . S
C844 C852 1.378 . S
C845 C844 1.367 . S
C845 C853 1.433 . S
C846 H842 0.929 . S
C846 C848 1.378 . S
C846 C850 1.350 . S
C847 C850 1.463 . S
C847 C852 1.350 . S
C847 N855 1.427 . S
C848 H839 0.930 . S
C848 C846 1.378 . S
C848 C849 1.367 . S
C849 C848 1.367 . S
C849 C851 1.433 . S
C850 C846 1.350 . S
C850 C847 1.463 . S
C850 N854 1.427 . S
C851 H841 0.929 . S
C851 C849 1.433 . S
C851 N854 1.384 . S
C852 H843 0.929 . S
C852 C844 1.378 . S
C852 C847 1.350 . S
C853 H840 0.929 . S
C853 C845 1.433 . S
C853 N855 1.384 . S
N854 C850 1.427 . S
N854 C851 1.384 . S
N855 C847 1.427 . S
N855 C853 1.384 . S
H856 C862 0.930 . S
H857 C866 0.930 . S
H858 C871 0.929 . S
H859 C869 0.929 . S
H860 C864 0.929 . S
H861 C870 0.929 . S
C862 H856 0.930 . S
C862 C863 1.367 . S
C862 C870 1.378 . S
C863 C862 1.367 . S
C863 C871 1.433 . S
C864 H860 0.929 . S
C864 C866 1.378 . S
C864 C868 1.350 . S
C865 C868 1.463 . S
C865 C870 1.350 . S
C865 N873 1.427 . S
C866 H857 0.930 . S
C866 C864 1.378 . S
C866 C867 1.367 . S
C867 C866 1.367 . S
C867 C869 1.433 . S
C868 C864 1.350 . S
C868 C865 1.463 . S
C868 N872 1.427 . S
C869 H859 0.929 . S
C869 C867 1.433 . S
C869 N872 1.384 . S
C870 H861 0.929 . S
C870 C862 1.378 . S
C870 C865 1.350 . S
C871 H858 0.929 . S
C871 C863 1.433 . S
C871 N873 1.384 . S
N872 C868 1.427 . S
N872 C869 1.384 . S
N873 C865 1.427 . S
N873 C871 1.384 . S
H874 C880 0.930 . S
H875 C884 0.930 . S
H876 C889 0.929 . S
H877 C887 0.929 . S
H878 C882 0.929 . S
H879 C888 0.929 . S
C880 H874 0.930 . S
C880 C881 1.367 . S
C880 C888 1.378 . S
C881 C880 1.367 . S
C881 C889 1.433 . S
C882 H878 0.929 . S
C882 C884 1.378 . S
C882 C886 1.350 . S
C883 C886 1.463 . S
C883 C888 1.350 . S
C883 N891 1.427 . S
C884 H875 0.930 . S
C884 C882 1.378 . S
C884 C885 1.367 . S
C885 C884 1.367 . S
C885 C887 1.433 . S
C886 C882 1.350 . S
C886 C883 1.463 . S
C886 N890 1.427 . S
C887 H877 0.929 . S
C887 C885 1.433 . S
C887 N890 1.384 . S
C888 H879 0.929 . S
C888 C880 1.378 . S
C888 C883 1.350 . S
C889 H876 0.929 . S
C889 C881 1.433 . S
C889 N891 1.384 . S
N890 C886 1.427 . S
N890 C887 1.384 . S
N891 C883 1.427 . S
N891 C889 1.384 . S
H892 C898 0.930 . S
H893 C902 0.930 . S
H894 C907 0.929 . S
H895 C905 0.929 . S
H896 C900 0.929 . S
H897 C906 0.929 . S
C898 H892 0.930 . S
C898 C899 1.367 . S
C898 C906 1.378 . S
C899 C898 1.367 . S
C899 C907 1.433 . S
C900 H896 0.929 . S
C900 C902 1.378 . S
C900 C904 1.350 . S
C901 C904 1.463 . S
C901 C906 1.350 . S
C901 N909 1.427 . S
C902 H893 0.930 . S
C902 C900 1.378 . S
C902 C903 1.367 . S
C903 C902 1.367 . S
C903 C905 1.433 . S
C904 C900 1.350 . S
C904 C901 1.463 . S
C904 N908 1.427 . S
C905 H895 0.929 . S
C905 C903 1.433 . S
C905 N908 1.384 . S
C906 H897 0.929 . S
C906 C898 1.378 . S
C906 C901 1.350 . S
C907 H894 0.929 . S
C907 C899 1.433 . S
C907 N909 1.384 . S
N908 C904 1.427 . S
N908 C905 1.384 . S
N909 C901 1.427 . S
N909 C907 1.384 . S
H910 C916 0.930 . S
H911 C920 0.930 . S
H912 C925 0.929 . S
H913 C923 0.929 . S
H914 C918 0.929 . S
H915 C924 0.929 . S
C916 H910 0.930 . S
C916 C917 1.367 . S
C916 C924 1.378 . S
C917 C916 1.367 . S
C917 C925 1.433 . S
C918 H914 0.929 . S
C918 C920 1.378 . S
C918 C922 1.350 . S
C919 C922 1.463 . S
C919 C924 1.350 . S
C919 N927 1.427 . S
C920 H911 0.930 . S
C920 C918 1.378 . S
C920 C921 1.367 . S
C921 C920 1.367 . S
C921 C923 1.433 . S
C922 C918 1.350 . S
C922 C919 1.463 . S
C922 N926 1.427 . S
C923 H913 0.929 . S
C923 C921 1.433 . S
C923 N926 1.384 . S
C924 H915 0.929 . S
C924 C916 1.378 . S
C924 C919 1.350 . S
C925 H912 0.929 . S
C925 C917 1.433 . S
C925 N927 1.384 . S
N926 C922 1.427 . S
N926 C923 1.384 . S
N927 C919 1.427 . S
N927 C925 1.384 . S
H928 C934 0.930 . S
H929 C938 0.930 . S
H930 C943 0.929 . S
H931 C941 0.929 . S
H932 C936 0.929 . S
H933 C942 0.929 . S
C934 H928 0.930 . S
C934 C935 1.367 . S
C934 C942 1.378 . S
C935 C934 1.367 . S
C935 C943 1.433 . S
C936 H932 0.929 . S
C936 C938 1.378 . S
C936 C940 1.350 . S
C937 C940 1.463 . S
C937 C942 1.350 . S
C937 N945 1.427 . S
C938 H929 0.930 . S
C938 C936 1.378 . S
C938 C939 1.367 . S
C939 C938 1.367 . S
C939 C941 1.433 . S
C940 C936 1.350 . S
C940 C937 1.463 . S
C940 N944 1.427 . S
C941 H931 0.929 . S
C941 C939 1.433 . S
C941 N944 1.384 . S
C942 H933 0.929 . S
C942 C934 1.378 . S
C942 C937 1.350 . S
C943 H930 0.929 . S
C943 C935 1.433 . S
C943 N945 1.384 . S
N944 C940 1.427 . S
N944 C941 1.384 . S
N945 C937 1.427 . S
N945 C943 1.384 . S
H946 C952 0.930 . S
H947 C956 0.930 . S
H948 C961 0.929 . S
H949 C959 0.929 . S
H950 C954 0.929 . S
H951 C960 0.929 . S
C952 H946 0.930 . S
C952 C953 1.367 . S
C952 C960 1.378 . S
C953 C952 1.367 . S
C953 C961 1.433 . S
C954 H950 0.929 . S
C954 C956 1.378 . S
C954 C958 1.350 . S
C955 C958 1.463 . S
C955 C960 1.350 . S
C955 N963 1.427 . S
C956 H947 0.930 . S
C956 C954 1.378 . S
C956 C957 1.367 . S
C957 C956 1.367 . S
C957 C959 1.433 . S
C958 C954 1.350 . S
C958 C955 1.463 . S
C958 N962 1.427 . S
C959 H949 0.929 . S
C959 C957 1.433 . S
C959 N962 1.384 . S
C960 H951 0.929 . S
C960 C952 1.378 . S
C960 C955 1.350 . S
C961 H948 0.929 . S
C961 C953 1.433 . S
C961 N963 1.384 . S
N962 C958 1.427 . S
N962 C959 1.384 . S
N963 C955 1.427 . S
N963 C961 1.384 . S
H964 C970 0.930 . S
H965 C974 0.930 . S
H966 C979 0.929 . S
H967 C977 0.929 . S
H968 C972 0.929 . S
H969 C978 0.929 . S
C970 H964 0.930 . S
C970 C971 1.367 . S
C970 C978 1.378 . S
C971 C970 1.367 . S
C971 C979 1.433 . S
C972 H968 0.929 . S
C972 C974 1.378 . S
C972 C976 1.350 . S
C973 C976 1.463 . S
C973 C978 1.350 . S
C973 N981 1.427 . S
C974 H965 0.930 . S
C974 C972 1.378 . S
C974 C975 1.367 . S
C975 C974 1.367 . S
C975 C977 1.433 . S
C976 C972 1.350 . S
C976 C973 1.463 . S
C976 N980 1.427 . S
C977 H967 0.929 . S
C977 C975 1.433 . S
C977 N980 1.384 . S
C978 H969 0.929 . S
C978 C970 1.378 . S
C978 C973 1.350 . S
C979 H966 0.929 . S
C979 C971 1.433 . S
C979 N981 1.384 . S
N980 C976 1.427 . S
N980 C977 1.384 . S
N981 C973 1.427 . S
N981 C979 1.384 . S
H982 C988 0.930 . S
H983 C992 0.930 . S
H984 C997 0.929 . S
H985 C995 0.929 . S
H986 C990 0.929 . S
H987 C996 0.929 . S
C988 H982 0.930 . S
C988 C989 1.367 . S
C988 C996 1.378 . S
C989 C988 1.367 . S
C989 C997 1.433 . S
C990 H986 0.929 . S
C990 C992 1.378 . S
C990 C994 1.350 . S
C991 C994 1.463 . S
C991 C996 1.350 . S
C991 N999 1.427 . S
C992 H983 0.930 . S
C992 C990 1.378 . S
C992 C993 1.367 . S
C993 C992 1.367 . S
C993 C995 1.433 . S
C994 C990 1.350 . S
C994 C991 1.463 . S
C994 N998 1.427 . S
C995 H985 0.929 . S
C995 C993 1.433 . S
C995 N998 1.384 . S
C996 H987 0.929 . S
C996 C988 1.378 . S
C996 C991 1.350 . S
C997 H984 0.929 . S
C997 C989 1.433 . S
C997 N999 1.384 . S
N998 C994 1.427 . S
N998 C995 1.384 . S
N999 C991 1.427 . S
N999 C997 1.384 . S
H1000 C1006 0.930 . S
H1001 C1010 0.930 . S
H1002 C1015 0.929 . S
H1003 C1013 0.929 . S
H1004 C1008 0.929 . S
H1005 C1014 0.929 . S
C1006 H1000 0.930 . S
C1006 C1007 1.367 . S
C1006 C1014 1.378 . S
C1007 C1006 1.367 . S
C1007 C1015 1.433 . S
C1008 H1004 0.929 . S
C1008 C1010 1.378 . S
C1008 C1012 1.350 . S
C1009 C1012 1.463 . S
C1009 C1014 1.350 . S
C1009 N1017 1.427 . S
C1010 H1001 0.930 . S
C1010 C1008 1.378 . S
C1010 C1011 1.367 . S
C1011 C1010 1.367 . S
C1011 C1013 1.433 . S
C1012 C1008 1.350 . S
C1012 C1009 1.463 . S
C1012 N1016 1.427 . S
C1013 H1003 0.929 . S
C1013 C1011 1.433 . S
C1013 N1016 1.384 . S
C1014 H1005 0.929 . S
C1014 C1006 1.378 . S
C1014 C1009 1.350 . S
C1015 H1002 0.929 . S
C1015 C1007 1.433 . S
C1015 N1017 1.384 . S
N1016 C1012 1.427 . S
N1016 C1013 1.384 . S
N1017 C1009 1.427 . S
N1017 C1015 1.384 . S
H1018 C1024 0.930 . S
H1019 C1028 0.930 . S
H1020 C1033 0.929 . S
H1021 C1031 0.929 . S
H1022 C1026 0.929 . S
H1023 C1032 0.929 . S
C1024 H1018 0.930 . S
C1024 C1025 1.367 . S
C1024 C1032 1.378 . S
C1025 C1024 1.367 . S
C1025 C1033 1.433 . S
C1026 H1022 0.929 . S
C1026 C1028 1.378 . S
C1026 C1030 1.350 . S
C1027 C1030 1.463 . S
C1027 C1032 1.350 . S
C1027 N1035 1.427 . S
C1028 H1019 0.930 . S
C1028 C1026 1.378 . S
C1028 C1029 1.367 . S
C1029 C1028 1.367 . S
C1029 C1031 1.433 . S
C1030 C1026 1.350 . S
C1030 C1027 1.463 . S
C1030 N1034 1.427 . S
C1031 H1021 0.929 . S
C1031 C1029 1.433 . S
C1031 N1034 1.384 . S
C1032 H1023 0.929 . S
C1032 C1024 1.378 . S
C1032 C1027 1.350 . S
C1033 H1020 0.929 . S
C1033 C1025 1.433 . S
C1033 N1035 1.384 . S
N1034 C1030 1.427 . S
N1034 C1031 1.384 . S
N1035 C1027 1.427 . S
N1035 C1033 1.384 . S
H1036 C1042 0.930 . S
H1037 C1046 0.930 . S
H1038 C1051 0.929 . S
H1039 C1049 0.929 . S
H1040 C1044 0.929 . S
H1041 C1050 0.929 . S
C1042 H1036 0.930 . S
C1042 C1043 1.367 . S
C1042 C1050 1.378 . S
C1043 C1042 1.367 . S
C1043 C1051 1.433 . S
C1044 H1040 0.929 . S
C1044 C1046 1.378 . S
C1044 C1048 1.350 . S
C1045 C1048 1.463 . S
C1045 C1050 1.350 . S
C1045 N1053 1.427 . S
C1046 H1037 0.930 . S
C1046 C1044 1.378 . S
C1046 C1047 1.367 . S
C1047 C1046 1.367 . S
C1047 C1049 1.433 . S
C1048 C1044 1.350 . S
C1048 C1045 1.463 . S
C1048 N1052 1.427 . S
C1049 H1039 0.929 . S
C1049 C1047 1.433 . S
C1049 N1052 1.384 . S
C1050 H1041 0.929 . S
C1050 C1042 1.378 . S
C1050 C1045 1.350 . S
C1051 H1038 0.929 . S
C1051 C1043 1.433 . S
C1051 N1053 1.384 . S
N1052 C1048 1.427 . S
N1052 C1049 1.384 . S
N1053 C1045 1.427 . S
N1053 C1051 1.384 . S
H1054 C1060 0.930 . S
H1055 C1064 0.930 . S
H1056 C1069 0.929 . S
H1057 C1067 0.929 . S
H1058 C1062 0.929 . S
H1059 C1068 0.929 . S
C1060 H1054 0.930 . S
C1060 C1061 1.367 . S
C1060 C1068 1.378 . S
C1061 C1060 1.367 . S
C1061 C1069 1.433 . S
C1062 H1058 0.929 . S
C1062 C1064 1.378 . S
C1062 C1066 1.350 . S
C1063 C1066 1.463 . S
C1063 C1068 1.350 . S
C1063 N1071 1.427 . S
C1064 H1055 0.930 . S
C1064 C1062 1.378 . S
C1064 C1065 1.367 . S
C1065 C1064 1.367 . S
C1065 C1067 1.433 . S
C1066 C1062 1.350 . S
C1066 C1063 1.463 . S
C1066 N1070 1.427 . S
C1067 H1057 0.929 . S
C1067 C1065 1.433 . S
C1067 N1070 1.384 . S
C1068 H1059 0.929 . S
C1068 C1060 1.378 . S
C1068 C1063 1.350 . S
C1069 H1056 0.929 . S
C1069 C1061 1.433 . S
C1069 N1071 1.384 . S
N1070 C1066 1.427 . S
N1070 C1067 1.384 . S
N1071 C1063 1.427 . S
N1071 C1069 1.384 . S
C507 C409 1.344 . S
C503 C36 1.310 . S
C525 C423 1.346 . S
C521 C93 1.317 . S
C543 C431 1.377 . S
C539 C126 1.344 . S
C557 C165 1.302 . S
C561 C389 1.342 . S
C575 C222 1.283 . S
C579 C395 1.315 . S
C593 C261 1.271 . S
C597 C403 1.316 . S
C615 C417 1.417 . S
C611 C318 1.387 . S
C633 C437 1.377 . S
C629 C381 1.352 . S
C647 C132 1.275 . S
C651 C465 1.321 . S
C669 C479 1.405 . S
C665 C189 1.387 . S
C683 C30 1.289 . S
C687 C487 1.323 . S
C705 C451 1.276 . S
C701 C69 1.244 . S
C719 C324 1.322 . S
C723 C445 1.361 . S
C737 C357 1.343 . S
C741 C459 1.369 . S
C759 C473 1.371 . S
C755 C228 1.338 . S
C773 C285 1.375 . S
C777 C493 1.397 . S
C795 C412 1.696 . S
C791 C45 1.723 . S
C813 C435 1.721 . S
C809 C84 1.733 . S
C827 C117 1.734 . S
C831 C393 1.731 . S
C845 C174 1.713 . S
C849 C398 1.710 . S
C863 C213 1.711 . S
C867 C426 1.672 . S
C885 C384 1.682 . S
C881 C270 1.702 . S
C903 C407 1.717 . S
C899 C309 1.728 . S
C921 C421 1.717 . S
C917 C372 1.734 . S
C939 C468 1.677 . S
C935 C141 1.712 . S
C957 C491 1.707 . S
C953 C180 1.719 . S
C971 C21 1.708 . S
C975 C440 1.678 . S
C993 C454 1.659 . S
C989 C78 1.672 . S
C1011 C482 1.723 . S
C1007 C333 1.761 . S
C1025 C366 1.720 . S
C1029 C449 1.748 . S
C1047 C463 1.735 . S
C1043 C237 1.754 . S
C1065 C477 1.731 . S
C1061 C276 1.743 . S
