# Generated by pormake.
# Topology anh, (6,3)-cn, num edge types: 1
# Building blocks:
#     Node 0, Type 0, BuildingBlock: CUWYAW_clean_sbu_0, # of connection points: 6
#     Node 1, Type 0, BuildingBlock: CUWYAW_clean_sbu_0, # of connection points: 6
#     Node 2, Type 0, BuildingBlock: CUWYAW_clean_sbu_0, # of connection points: 6
#     Node 3, Type 1, BuildingBlock: BETDAH_clean_linker_0, # of connection points: 3
#     Node 4, Type 1, BuildingBlock: BETDAH_clean_linker_0, # of connection points: 3
#     Node 5, Type 1, BuildingBlock: BETDAH_clean_linker_0, # of connection points: 3
#     Node 6, Type 1, BuildingBlock: BETDAH_clean_linker_0, # of connection points: 3
#     Node 7, Type 1, BuildingBlock: BETDAH_clean_linker_0, # of connection points: 3
#     Node 8, Type 1, BuildingBlock: BETDAH_clean_linker_0, # of connection points: 3
#     Edge 9, Type (0, 1), BuildingBlock: TEMPAE_clean_linker_10, # of connection points: 2
#     Edge 10, Type (0, 1), BuildingBlock: TEMPAE_clean_linker_10, # of connection points: 2
#     Edge 11, Type (0, 1), BuildingBlock: TEMPAE_clean_linker_10, # of connection points: 2
#     Edge 12, Type (0, 1), BuildingBlock: TEMPAE_clean_linker_10, # of connection points: 2
#     Edge 13, Type (0, 1), BuildingBlock: TEMPAE_clean_linker_10, # of connection points: 2
#     Edge 14, Type (0, 1), BuildingBlock: TEMPAE_clean_linker_10, # of connection points: 2
#     Edge 15, Type (0, 1), BuildingBlock: TEMPAE_clean_linker_10, # of connection points: 2
#     Edge 16, Type (0, 1), BuildingBlock: TEMPAE_clean_linker_10, # of connection points: 2
#     Edge 17, Type (0, 1), BuildingBlock: TEMPAE_clean_linker_10, # of connection points: 2
#     Edge 18, Type (0, 1), BuildingBlock: TEMPAE_clean_linker_10, # of connection points: 2
#     Edge 19, Type (0, 1), BuildingBlock: TEMPAE_clean_linker_10, # of connection points: 2
#     Edge 20, Type (0, 1), BuildingBlock: TEMPAE_clean_linker_10, # of connection points: 2
#     Edge 21, Type (0, 1), BuildingBlock: TEMPAE_clean_linker_10, # of connection points: 2
#     Edge 22, Type (0, 1), BuildingBlock: TEMPAE_clean_linker_10, # of connection points: 2
#     Edge 23, Type (0, 1), BuildingBlock: TEMPAE_clean_linker_10, # of connection points: 2
#     Edge 24, Type (0, 1), BuildingBlock: TEMPAE_clean_linker_10, # of connection points: 2
#     Edge 25, Type (0, 1), BuildingBlock: TEMPAE_clean_linker_10, # of connection points: 2
#     Edge 26, Type (0, 1), BuildingBlock: TEMPAE_clean_linker_10, # of connection points: 2
# Relax obj value: 0.249
# Max RMSD: 0.149
# Mean RMSD: 0.114
data_MOF--net-anh--node1-CUWYAW_clean_sbu_0--node2-BETDAH_clean_linker_0--edge1-TEMPAE_clean_linker_10
_symmetry_space_group_name_H-M    P1
_symmetry_Int_Tables_number       1
_symmetry_cell_setting            triclinic
loop_
_symmetry_equiv_pos_as_xyz
'x, y, z'
_cell_length_a     32.439055
_cell_length_b     32.393204
_cell_length_c     50.069528
_cell_angle_alpha  92.770025
_cell_angle_beta   91.674589
_cell_angle_gamma 119.79866
loop_
_atom_site_label
_atom_site_type_symbol
_atom_site_fract_x
_atom_site_fract_y
_atom_site_fract_z
_atom_type_partial_charge
C0 C 1.03304 0.47276 0.135 0.0
Eu1 Eu 0.07977 0.55851 0.15722 0.0
C2 C 0.9849 0.4429 0.12292 0.0
C3 C 0.94495 0.43333 0.13713 0.0
C4 C 0.89966 0.40114 0.12593 0.0
C5 C 0.89358 0.37862 0.1001 0.0
C6 C 0.93362 0.39333 0.08484 0.0
C7 C 0.97898 0.42408 0.09649 0.0
C8 C 0.09582 0.58283 0.2109 0.0
C9 C 1.0058 0.60392 0.15771 0.0
C10 C 0.16525 0.74407 0.18743 0.0
Eu11 Eu 0.12072 0.65664 0.16762 0.0
C12 C 0.2107 0.78529 0.18312 0.0
C13 C 0.21222 0.82833 0.17862 0.0
C14 C 0.25414 0.86694 0.17137 0.0
C15 C 0.29472 0.86266 0.16884 0.0
C16 C 0.29306 0.8194 0.17311 0.0
C17 C 0.25108 0.7807 0.18009 0.0
C18 C 0.10806 0.63044 0.11454 0.0
C19 C 0.19644 0.61297 0.15986 0.0
O20 O 1.06006 0.50979 0.1219 0.0
O21 O 1.03771 0.48214 0.16098 0.0
O22 O 0.10426 0.55185 0.19862 0.0
O23 O 1.07861 0.59962 0.19439 0.0
O24 O 1.01161 0.56702 0.15008 0.0
O25 O 1.0438 0.64284 0.16846 0.0
O26 O 0.16606 0.70941 0.19947 0.0
O27 O 0.13538 0.72921 0.16649 0.0
O28 O 0.09784 0.6614 0.12484 0.0
O29 O 0.12464 0.61602 0.13236 0.0
O30 O 0.19185 0.65143 0.16593 0.0
O31 O 0.15652 0.57141 0.1551 0.0
H32 H 0.94867 0.44861 0.1574 0.0
H33 H 0.87018 0.391 0.13863 0.0
H34 H 0.93033 0.37789 0.0647 0.0
H35 H 1.00972 0.43162 0.08534 0.0
H36 H 0.18083 0.83178 0.18038 0.0
H37 H 0.25528 0.90041 0.16845 0.0
H38 H 0.32436 0.81581 0.17125 0.0
H39 H 0.25014 0.7473 0.18287 0.0
C40 C 0.50413 0.1497 0.47721 0.0
Eu41 Eu 0.56039 0.11871 0.49251 0.0
C42 C 0.51348 0.19533 0.46759 0.0
C43 C 0.49952 0.22289 0.48297 0.0
C44 C 0.51956 0.27126 0.47957 0.0
C45 C 0.5532 0.29284 0.46021 0.0
C46 C 0.56278 0.26378 0.44271 0.0
C47 C 0.54345 0.21539 0.44655 0.0
C48 C 0.58577 0.11975 0.54517 0.0
C49 C 0.67541 0.18934 0.49066 0.0
C50 C 0.66891 1.04521 0.51487 0.0
Eu51 Eu 0.6099 0.07162 0.49846 0.0
C52 C 0.66942 1.00116 0.51838 0.0
C53 C 0.69709 0.9901 0.50181 0.0
C54 C 0.70082 0.95001 0.50555 0.0
C55 C 0.67731 0.9207 0.52613 0.0
C56 C 0.64824 0.93078 0.54219 0.0
C57 C 0.64418 0.97087 0.53829 0.0
C58 C 0.58503 0.0689 0.4466 0.0
C59 C 0.49545 0.99824 0.49217 0.0
O60 O 0.5144 0.12307 0.46154 0.0
O61 O 0.51851 0.15218 0.50218 0.0
O62 O 0.59185 0.15709 0.53351 0.0
O63 O 0.56768 0.08382 0.52845 0.0
O64 O 0.63337 0.18551 0.48434 0.0
O65 O 0.67426 0.15054 0.49933 0.0
O66 O 0.64433 0.05603 0.53115 0.0
O67 O 0.66428 0.05369 0.49009 0.0
O68 O 0.58163 1.0324 0.45813 0.0
O69 O 0.60178 0.10544 0.46284 0.0
O70 O 0.53706 1.0006 0.49766 0.0
O71 O 0.49646 1.03938 0.48887 0.0
H72 H 0.47652 0.208 0.49932 0.0
H73 H 0.51166 0.29213 0.49386 0.0
H74 H 0.58762 0.2789 0.42721 0.0
H75 H 0.55458 0.19471 0.43424 0.0
H76 H 0.71696 1.01324 0.48642 0.0
H77 H 0.72428 0.94349 0.4933 0.0
H78 H 0.63001 0.90854 0.55823 0.0
H79 H 0.62239 0.97869 0.55125 0.0
C80 C 0.74963 0.68166 0.80331 0.0
Eu81 Eu 0.66832 0.63962 0.8248 0.0
C82 C 0.79037 0.6739 0.80303 0.0
C83 C 0.82383 0.69033 0.82494 0.0
C84 C 0.8544 0.67214 0.8278 0.0
C85 C 0.85149 0.63712 0.80891 0.0
C86 C 0.82173 0.62484 0.78555 0.0
C87 C 0.79176 0.64358 0.7825 0.0
C88 C 0.6517 0.62785 0.87805 0.0
C89 C 0.62085 0.51977 0.82291 0.0
C90 C 0.47548 0.53827 0.83349 0.0
Eu91 Eu 0.56498 0.58165 0.82564 0.0
C92 C 0.43903 0.54706 0.84395 0.0
C93 C 0.40057 0.53828 0.82656 0.0
C94 C 0.35989 0.53489 0.83681 0.0
C95 C 0.35722 0.53978 0.86461 0.0
C96 C 0.39775 0.55402 0.88173 0.0
C97 C 0.43863 0.55759 0.87143 0.0
C98 C 0.59851 0.58984 0.77686 0.0
C99 C 0.61157 0.70092 0.82463 0.0
O100 O 0.71065 0.64695 0.7911 0.0
O101 O 0.74187 0.69754 0.82614 0.0
O102 O 0.69344 0.65136 0.86865 0.0
O103 O 0.61994 0.61093 0.8589 0.0
O104 O 0.65971 0.56236 0.82052 0.0
O105 O 0.58004 0.51876 0.82707 0.0
O106 O 0.50759 0.54007 0.85073 0.0
O107 O 0.49248 0.55699 0.81102 0.0
O108 O 0.56743 0.5492 0.78502 0.0
O109 O 0.61062 0.62275 0.7949 0.0
O110 O 0.57245 0.6585 0.82715 0.0
O111 O 0.65307 0.7022 0.82332 0.0
H112 H 0.82424 0.71457 0.84077 0.0
H113 H 0.87812 0.68312 0.84564 0.0
H114 H 0.81869 0.59792 0.77067 0.0
H115 H 0.7668 0.63104 0.76515 0.0
H116 H 0.40048 0.53027 0.80527 0.0
H117 H 0.32897 0.52347 0.8232 0.0
H118 H 0.39638 0.55832 0.90322 0.0
H119 H 0.46835 0.56512 0.88518 0.0
H120 H 0.56402 0.09028 0.23545 0.0
H121 H 0.68809 0.07966 0.2559 0.0
H122 H 0.65212 0.08756 0.17404 0.0
C123 C 0.59547 0.08956 0.22946 0.0
C124 C 0.6042 0.08865 0.20214 0.0
C125 C 0.62591 0.08722 0.24912 0.0
C126 C 0.66506 0.08315 0.24118 0.0
C127 C 0.67505 0.08392 0.21424 0.0
C128 C 0.64504 0.0877 0.19495 0.0
N129 N 0.7154 0.08105 0.20669 0.0
C130 C 0.73727 0.10159 0.18376 0.0
H131 H 0.70461 0.56213 0.58884 0.0
H132 H 0.82158 0.70041 0.61519 0.0
H133 H 0.82008 0.63619 0.53785 0.0
C134 C 0.73904 0.5925 0.58552 0.0
C135 C 0.76044 0.59394 0.56143 0.0
C136 C 0.76114 0.63038 0.60514 0.0
C137 C 0.80526 0.66989 0.60065 0.0
C138 C 0.8266 0.6719 0.57639 0.0
C139 C 0.80432 0.63375 0.55692 0.0
N140 N 0.86364 0.71598 0.5691 0.0
C141 C 0.85044 0.74912 0.56304 0.0
H142 H 0.99676 0.50814 0.9146 0.0
H143 H 0.9975 0.38785 0.94653 0.0
H144 H 0.94924 0.37876 0.86463 0.0
C145 C 0.99042 0.47199 0.91189 0.0
C146 C 0.97168 0.44589 0.88709 0.0
C147 C 0.99971 0.45151 0.93351 0.0
C148 C 0.98898 0.40382 0.93029 0.0
C149 C 0.97083 0.37759 0.90545 0.0
C150 C 0.96169 0.39853 0.88401 0.0
N151 N 0.97245 0.3352 0.90037 0.0
C152 C 1.01748 0.34124 0.8983 0.0
H153 H 0.18061 0.68211 0.41455 0.0
H154 H 1.04973 0.55193 0.42321 0.0
H155 H 0.13304 0.64173 0.49352 0.0
C156 C 0.15509 0.65817 0.4277 0.0
C157 C 0.16382 0.67005 0.4556 0.0
C158 C 0.11474 0.61667 0.41575 0.0
C159 C 0.08041 0.58387 0.43229 0.0
C160 C 0.08574 0.59131 0.46048 0.0
C161 C 0.12824 0.63496 0.47196 0.0
N162 N 1.04992 0.55654 0.4775 0.0
C163 C 1.00532 0.51167 0.47205 0.0
H164 H 0.60247 0.19608 0.74667 0.0
H165 H 0.60722 0.06782 0.75739 0.0
H166 H 0.62097 0.16065 0.82656 0.0
C167 C 0.60672 0.17349 0.76039 0.0
C168 C 0.61397 0.18708 0.78816 0.0
C169 C 0.60508 0.13173 0.74922 0.0
C170 C 0.60878 0.09984 0.76615 0.0
C171 C 0.61346 0.1084 0.79423 0.0
C172 C 0.6163 0.15276 0.80508 0.0
N173 N 0.61582 0.07415 0.81173 0.0
C174 C 0.6134 1.02843 0.8065 0.0
H175 H 0.69976 0.61444 0.07879 0.0
H176 H 0.56769 0.61178 0.08895 0.0
H177 H 0.64893 0.60766 0.15813 0.0
C178 C 0.6731 0.61122 0.09231 0.0
C179 C 0.68075 0.60846 0.11997 0.0
C180 C 0.63257 0.611 0.08093 0.0
C181 C 0.59847 0.61159 0.09778 0.0
C182 C 0.60332 0.61096 0.12584 0.0
C183 C 0.64494 0.60912 0.13673 0.0
N184 N 0.56749 0.61131 0.1433 0.0
C185 C 0.52384 0.6129 0.1384 0.0
C186 C 0.24863 0.57325 0.1513 0.0
C187 C 0.24585 0.61522 0.15684 0.0
C188 C 0.29266 0.57314 0.14814 0.0
C189 C 0.33785 0.61634 0.14972 0.0
C190 C 0.33532 0.6591 0.15498 0.0
C191 C 0.2906 0.65799 0.15865 0.0
C192 C 0.28981 0.52553 0.14298 0.0
C193 C 0.37997 0.70719 0.15682 0.0
C194 C 0.46275 0.62359 0.16559 0.0
C195 C 0.47725 0.61453 0.14057 0.0
C196 C 0.4189 0.62416 0.16875 0.0
C197 C 0.3866 0.61641 0.14636 0.0
C198 C 0.40141 0.60761 0.1209 0.0
C199 C 0.44521 0.60641 0.11844 0.0
C200 C 0.40759 0.63314 0.19668 0.0
C201 C 0.37105 0.59892 0.09562 0.0
H202 H 0.21568 0.53938 0.14949 0.0
H203 H 0.29096 0.69133 0.16273 0.0
H204 H 0.28523 0.51627 0.12106 0.0
H205 H 0.32237 0.5259 0.15079 0.0
H206 H 0.2586 0.49688 0.1522 0.0
H207 H 0.37278 0.73455 0.14883 0.0
H208 H 0.39239 0.71825 0.1782 0.0
H209 H 0.409 0.70684 0.14581 0.0
H210 H 0.48588 0.62998 0.18322 0.0
H211 H 0.45428 0.59902 0.09881 0.0
H212 H 0.36868 0.61454 0.19915 0.0
H213 H 0.42196 0.67199 0.20082 0.0
H214 H 0.42452 0.62148 0.21189 0.0
H215 H 0.34818 0.55991 0.09101 0.0
H216 H 0.39355 0.61347 0.07838 0.0
H217 H 0.3479 0.61499 0.09742 0.0
C218 C 0.72723 0.27856 0.47834 0.0
C219 C 0.72429 0.23648 0.48752 0.0
C220 C 0.77182 0.32167 0.47511 0.0
C221 C 0.81709 0.32549 0.48116 0.0
C222 C 0.81438 0.28291 0.49019 0.0
C223 C 0.76929 0.24015 0.49322 0.0
C224 C 0.77022 0.36385 0.46519 0.0
C225 C 0.8597 0.28224 0.49658 0.0
C226 C 0.93491 0.42938 0.45203 0.0
C227 C 0.95766 0.46456 0.47368 0.0
C228 C 0.89063 0.38511 0.45411 0.0
C229 C 0.8662 0.37348 0.4785 0.0
C230 C 0.88922 0.40899 0.50036 0.0
C231 C 0.93344 0.45278 0.49775 0.0
C232 C 0.86993 0.35025 0.42985 0.0
C233 C 0.86679 0.40081 0.52693 0.0
H234 H 0.69416 0.278 0.47355 0.0
H235 H 0.76952 0.20908 0.50012 0.0
H236 H 0.78511 0.39317 0.48126 0.0
H237 H 0.79253 0.37723 0.44781 0.0
H238 H 0.73334 0.35464 0.45908 0.0
H239 H 0.85285 0.24682 0.50242 0.0
H240 H 0.88172 0.29182 0.47891 0.0
H241 H 0.88084 0.30936 0.51318 0.0
H242 H 0.95187 0.43631 0.43316 0.0
H243 H 0.94929 0.47825 0.515 0.0
H244 H 0.83371 0.34359 0.42419 0.0
H245 H 0.86637 0.31556 0.43463 0.0
H246 H 0.89218 0.36321 0.41238 0.0
H247 H 0.8305 0.39593 0.52433 0.0
H248 H 0.88796 0.43085 0.54217 0.0
H249 H 0.86301 0.36761 0.53461 0.0
C250 C 0.56767 0.75102 0.82158 0.0
C251 C 0.61008 0.74841 0.8221 0.0
C252 C 0.56706 0.79493 0.81853 0.0
C253 C 0.60978 0.83939 0.8158 0.0
C254 C 0.65256 0.8368 0.81627 0.0
C255 C 0.65216 0.79258 0.8193 0.0
C256 C 0.51999 0.79361 0.81819 0.0
C257 C 0.69959 0.88134 0.81354 0.0
C258 C 0.60718 0.94992 0.78556 0.0
C259 C 0.61215 0.98044 0.80821 0.0
C260 C 0.60613 0.90499 0.78763 0.0
C261 C 0.61007 0.88808 0.81303 0.0
C262 C 0.61516 0.91894 0.83587 0.0
C263 C 0.61608 0.96355 0.83323 0.0
C264 C 0.6009 0.87537 0.76228 0.0
C265 C 0.61991 0.90483 0.86354 0.0
H266 H 0.53439 0.71839 0.82346 0.0
H267 H 0.68568 0.79282 0.81941 0.0
H268 H 0.52031 0.8175 0.83495 0.0
H269 H 0.51422 0.80708 0.7993 0.0
H270 H 0.48968 0.75709 0.82 0.0
H271 H 0.72985 0.87439 0.81391 0.0
H272 H 0.69872 0.89705 0.79447 0.0
H273 H 0.70603 0.90833 0.83007 0.0
H274 H 0.60411 0.96117 0.76593 0.0
H275 H 0.62002 0.98559 0.85118 0.0
H276 H 0.56909 0.83941 0.7627 0.0
H277 H 0.63228 0.87043 0.76089 0.0
H278 H 0.59744 0.89196 0.74407 0.0
H279 H 0.58851 0.86983 0.86687 0.0
H280 H 0.62312 0.9315 0.87948 0.0
H281 H 0.65177 0.90061 0.86542 0.0
C282 C 0.95461 0.64563 0.15399 0.0
C283 C 0.95704 0.60305 0.15388 0.0
C284 C 0.91078 0.64645 0.14997 0.0
C285 C 0.86534 0.60345 0.14677 0.0
C286 C 0.86764 0.56022 0.14741 0.0
C287 C 0.91232 0.5606 0.15026 0.0
C288 C 0.91435 0.69456 0.14895 0.0
C289 C 0.82286 0.5122 0.1453 0.0
C290 C 0.75204 0.62157 0.15422 0.0
C291 C 0.72618 0.60468 0.12895 0.0
C292 C 0.79554 0.62051 0.16055 0.0
C293 C 0.81684 0.60357 0.14116 0.0
C294 C 0.7907 0.5866 0.11577 0.0
C295 C 0.74647 0.5857 0.11064 0.0
C296 C 0.81834 0.63824 0.18844 0.0
C297 C 0.80913 0.56951 0.09294 0.0
H298 H 0.98773 0.6793 0.15664 0.0
H299 H 0.91184 0.52689 0.15015 0.0
H300 H 0.88385 0.69281 0.13729 0.0
H301 H 0.91558 0.70899 0.16969 0.0
H302 H 0.94774 0.72021 0.14 0.0
H303 H 0.82593 0.48848 0.15955 0.0
H304 H 0.79058 0.51443 0.14938 0.0
H305 H 0.8184 0.49507 0.12488 0.0
H306 H 0.73873 0.63631 0.16929 0.0
H307 H 0.72782 0.56963 0.0914 0.0
H308 H 0.83823 0.67781 0.18989 0.0
H309 H 0.84316 0.62533 0.1939 0.0
H310 H 0.79068 0.6269 0.20334 0.0
H311 H 0.84818 0.58425 0.09501 0.0
H312 H 0.80042 0.57948 0.07352 0.0
H313 H 0.79115 0.53001 0.09193 0.0
C314 C 0.40221 0.94764 0.48952 0.0
C315 C 0.44683 0.94954 0.48926 0.0
C316 C 0.35703 0.9038 0.48678 0.0
C317 C 0.35364 0.85798 0.48238 0.0
C318 C 0.39884 0.85978 0.48182 0.0
C319 C 0.44359 0.90425 0.4857 0.0
C320 C 0.3129 0.90788 0.48874 0.0
C321 C 0.40101 0.81468 0.47679 0.0
C322 C 0.23941 0.72822 0.48885 0.0
C323 C 0.21034 0.71929 0.46508 0.0
C324 C 0.28434 0.77224 0.49503 0.0
C325 C 0.30392 0.80983 0.47687 0.0
C326 C 0.27442 0.80081 0.45304 0.0
C327 C 0.22897 0.75813 0.44824 0.0
C328 C 0.31056 0.77749 0.52142 0.0
C329 C 0.29035 0.83572 0.43151 0.0
H330 H 0.40227 0.98106 0.49225 0.0
H331 H 0.4765 0.90332 0.48527 0.0
H332 H 0.30565 0.91967 0.4696 0.0
H333 H 0.28113 0.87389 0.49307 0.0
H334 H 0.31864 0.93559 0.50469 0.0
H335 H 0.43278 0.82163 0.46573 0.0
H336 H 0.4044 0.80153 0.49632 0.0
H337 H 0.36884 0.78617 0.46526 0.0
H338 H 0.22756 0.70045 0.50275 0.0
H339 H 0.20797 0.75549 0.43037 0.0
H340 H 0.33623 0.81528 0.52795 0.0
H341 H 0.33018 0.75767 0.5195 0.0
H342 H 0.28508 0.76153 0.53727 0.0
H343 H 0.27277 0.85751 0.43351 0.0
H344 H 0.27906 0.81643 0.41133 0.0
H345 H 0.32945 0.85978 0.4324 0.0
C346 C 0.57924 0.42652 0.81644 0.0
C347 C 0.62171 0.4715 0.82006 0.0
C348 C 0.57848 0.38164 0.81289 0.0
C349 C 0.62134 0.37894 0.81382 0.0
C350 C 0.66444 0.42436 0.81816 0.0
C351 C 0.66408 0.46886 0.82066 0.0
C352 C 0.53063 0.33704 0.80786 0.0
C353 C 0.71225 0.4272 0.82034 0.0
C354 C 0.60305 0.24792 0.82119 0.0
C355 C 0.61901 0.23717 0.79712 0.0
C356 C 0.60447 0.29297 0.82719 0.0
C357 C 0.62117 0.32999 0.80867 0.0
C358 C 0.6375 0.31915 0.78455 0.0
C359 C 0.6376 0.27513 0.77972 0.0
C360 C 0.58724 0.29985 0.85374 0.0
C361 C 0.65473 0.35361 0.7628 0.0
H362 H 0.54564 0.42615 0.81577 0.0
H363 H 0.69771 0.50199 0.82344 0.0
H364 H 0.5328 0.30849 0.79593 0.0
H365 H 0.51622 0.32353 0.82739 0.0
H366 H 0.50486 0.34463 0.79722 0.0
H367 H 0.73587 0.45493 0.83617 0.0
H368 H 0.70967 0.39285 0.82492 0.0
H369 H 0.72964 0.43821 0.80117 0.0
H370 H 0.5885 0.22075 0.83543 0.0
H371 H 0.6525 0.27069 0.76148 0.0
H372 H 0.54776 0.28069 0.85233 0.0
H373 H 0.60059 0.33797 0.85987 0.0
H374 H 0.59842 0.28406 0.86965 0.0
H375 H 0.63943 0.37755 0.76328 0.0
H376 H 0.64564 0.33413 0.74269 0.0
H377 H 0.69407 0.37565 0.76517 0.0
C378 C 0.70642 0.88564 0.55921 0.0
C379 C 0.68945 0.8845 0.53302 0.0
C380 C 0.72956 0.86025 0.56493 0.0
C381 C 0.73567 0.83345 0.54388 0.0
C382 C 0.7156 0.82956 0.51778 0.0
C383 C 0.69234 0.85507 0.51269 0.0
C384 C 0.7502 0.8647 0.59306 0.0
C385 C 0.72137 0.80106 0.49492 0.0
C386 C 0.84341 0.81788 0.5503 0.0
C387 C 0.8226 0.77133 0.55808 0.0
C388 C 0.81525 0.83873 0.54554 0.0
C389 C 0.76563 0.81197 0.54877 0.0
C390 C 0.74468 0.76484 0.55665 0.0
C391 C 0.77361 0.74495 0.56115 0.0
C392 C 0.83842 0.88921 0.53709 0.0
C393 C 0.69191 0.73563 0.56034 0.0
H394 H 0.70462 0.909 0.57482 0.0
H395 H 0.67879 0.85423 0.49249 0.0
H396 H 0.739 0.82889 0.60009 0.0
H397 H 0.78963 0.88424 0.59323 0.0
H398 H 0.73914 0.88404 0.60744 0.0
H399 H 0.70128 0.79968 0.47622 0.0
H400 H 0.75958 0.81725 0.49088 0.0
H401 H 0.70904 0.76408 0.50032 0.0
H402 H 0.88142 0.83778 0.54794 0.0
H403 H 0.75785 0.70867 0.56709 0.0
H404 H 0.83233 0.91204 0.55182 0.0
H405 H 0.82208 0.88996 0.51747 0.0
H406 H 0.87737 0.90493 0.53537 0.0
H407 H 0.68147 0.7542 0.57557 0.0
H408 H 0.68137 0.69951 0.56675 0.0
H409 H 0.67145 0.73176 0.54133 0.0
C410 C 0.89417 0.59385 0.79544 0.0
C411 C 0.87379 0.60861 0.81531 0.0
C412 C 0.9118 0.56343 0.80111 0.0
C413 C 0.90958 0.54849 0.82732 0.0
C414 C 0.88892 0.56321 0.84744 0.0
C415 C 0.87083 0.59274 0.84108 0.0
C416 C 0.93274 0.54735 0.7792 0.0
C417 C 0.88606 0.548 0.87575 0.0
C418 C 0.91635 0.44443 0.85115 0.0
C419 C 0.96105 0.46834 0.86506 0.0
C420 C 0.90075 0.46942 0.83569 0.0
C421 C 0.93059 0.51919 0.8346 0.0
C422 C 0.97776 0.54224 0.84599 0.0
C423 C 0.99267 0.51624 0.86091 0.0
C424 C 0.8504 0.44369 0.82337 0.0
C425 C 1.01029 0.59547 0.84551 0.0
H426 H 0.8962 0.60598 0.77546 0.0
H427 H 0.85353 0.60271 0.85622 0.0
H428 H 0.97109 0.5612 0.78429 0.0
H429 H 0.91511 0.50785 0.7774 0.0
H430 H 0.92893 0.5598 0.75947 0.0
H431 H 0.86899 0.56297 0.88893 0.0
H432 H 0.86539 0.50856 0.87565 0.0
H433 H 0.92231 0.55982 0.88461 0.0
H434 H 0.89199 0.40729 0.8542 0.0
H435 H 1.02778 0.53433 0.87113 0.0
H436 H 0.84829 0.45737 0.80379 0.0
H437 H 0.82705 0.44975 0.83684 0.0
H438 H 0.83629 0.40462 0.82048 0.0
H439 H 1.00839 0.6077 0.82545 0.0
H440 H 1.0479 0.60632 0.85108 0.0
H441 H 0.99876 0.61413 0.86005 0.0
C442 C 0.34602 0.93241 0.14327 0.0
C443 C 0.34021 0.90478 0.16497 0.0
C444 C 0.38962 0.97371 0.14042 0.0
C445 C 0.42741 0.98694 0.15985 0.0
C446 C 0.42097 0.95896 0.18201 0.0
C447 C 0.37737 0.91811 0.18415 0.0
C448 C 0.39512 1.00199 0.11639 0.0
C449 C 0.45999 0.97161 0.20354 0.0
C450 C 0.55594 1.04481 0.16008 0.0
C451 C 0.56648 0.07935 0.18129 0.0
C452 C 0.51021 1.01942 0.14769 0.0
C453 C 0.47484 1.02848 0.15731 0.0
C454 C 0.48802 0.07027 0.17381 0.0
C455 C 0.53431 0.09567 0.18573 0.0
C456 C 0.49765 0.97635 0.12895 0.0
C457 C 0.45123 0.0823 0.18318 0.0
H458 H 0.31668 0.92146 0.1285 0.0
H459 H 0.37196 0.8967 0.20112 0.0
H460 H 0.42075 1.04054 0.12084 0.0
H461 H 0.40855 0.98864 0.09992 0.0
H462 H 0.36039 0.99757 0.10907 0.0
H463 H 0.44812 0.94614 0.21952 0.0
H464 H 0.49088 0.97161 0.19464 0.0
H465 H 0.47224 1.00773 0.21311 0.0
H466 H 0.58062 1.03241 0.15566 0.0
H467 H 0.54315 0.12429 0.20092 0.0
H468 H 0.46873 0.96957 0.11397 0.0
H469 H 0.48504 0.94447 0.14072 0.0
H470 H 0.52906 0.98085 0.11833 0.0
H471 H 0.42257 0.0722 0.16732 0.0
H472 H 0.46761 0.12093 0.18926 0.0
H473 H 0.43477 0.06205 0.20085 0.0
C474 C 0.56569 0.37417 0.4721 0.0
C475 C 0.58375 0.34554 0.46206 0.0
C476 C 0.5963 0.41996 0.4839 0.0
C477 C 0.64596 0.4385 0.48384 0.0
C478 C 0.66425 0.41328 0.46945 0.0
C479 C 0.63301 0.3664 0.45926 0.0
C480 C 0.57546 0.44581 0.49922 0.0
C481 C 0.71707 0.43352 0.46763 0.0
C482 C 0.72705 0.56388 0.5145 0.0
C483 C 0.73504 0.55464 0.54064 0.0
C484 C 0.69864 0.52629 0.49544 0.0
C485 C 0.67797 0.47889 0.50294 0.0
C486 C 0.68735 0.46946 0.52908 0.0
C487 C 0.71584 0.50759 0.54762 0.0
C488 C 0.69019 0.53712 0.46748 0.0
C489 C 0.66674 0.41916 0.53764 0.0
H490 H 0.52761 0.35915 0.47314 0.0
H491 H 0.64786 0.34522 0.45135 0.0
H492 H 0.5808 0.44384 0.52103 0.0
H493 H 0.59373 0.48405 0.49516 0.0
H494 H 0.5367 0.42992 0.49421 0.0
H495 H 0.7247 0.41937 0.44895 0.0
H496 H 0.73653 0.47299 0.46797 0.0
H497 H 0.73097 0.42339 0.48512 0.0
H498 H 0.74176 0.60044 0.50925 0.0
H499 H 0.72265 0.5007 0.5678 0.0
H500 H 0.65172 0.52384 0.46323 0.0
H501 H 0.70084 0.51827 0.45255 0.0
H502 H 0.71026 0.57591 0.4646 0.0
H503 H 0.62734 0.40005 0.53478 0.0
H504 H 0.67664 0.4183 0.55896 0.0
H505 H 0.67962 0.3993 0.52502 0.0
C506 C 0.29784 0.48328 0.8935 0.0
C507 C 0.31005 0.51867 0.8754 0.0
C508 C 0.25043 0.45343 0.89886 0.0
C509 C 0.21479 0.4594 0.88577 0.0
C510 C 0.22713 0.49675 0.8686 0.0
C511 C 0.27493 0.52624 0.86369 0.0
C512 C 0.23831 0.41393 0.91733 0.0
C513 C 0.18982 0.50419 0.85447 0.0
C514 C 0.08943 0.35467 0.87624 0.0
C515 C 1.06814 0.36534 0.89725 0.0
C516 C 0.13794 0.38456 0.87259 0.0
C517 C 0.16446 0.42625 0.88997 0.0
C518 C 0.14292 0.43663 0.91135 0.0
C519 C 0.09497 0.4055 0.91494 0.0
C520 C 0.16049 0.37243 0.8498 0.0
C521 C 0.17006 0.48139 0.92982 0.0
H522 H 0.32494 0.47669 0.90208 0.0
H523 H 0.2847 0.55363 0.84965 0.0
H524 H 0.21632 0.4158 0.93339 0.0
H525 H 0.21694 0.37882 0.90591 0.0
H526 H 0.27056 0.41558 0.92679 0.0
H527 H 0.20575 0.53624 0.84272 0.0
H528 H 0.16655 0.47258 0.84064 0.0
H529 H 0.16689 0.50802 0.86924 0.0
H530 H 1.06798 0.32397 0.86232 0.0
H531 H 1.07806 0.41383 0.93099 0.0
H532 H 0.19169 0.37029 0.85763 0.0
H533 H 0.17368 0.40104 0.83565 0.0
H534 H 0.1352 0.33803 0.83859 0.0
H535 H 0.20111 0.48189 0.94006 0.0
H536 H 0.1476 0.48446 0.94524 0.0
H537 H 0.18408 0.51331 0.91803 0.0
C538 C 0.8549 0.29404 0.08233 0.0
C539 C 0.84981 0.33213 0.09295 0.0
C540 C 0.82457 0.24766 0.08926 0.0
C541 C 0.78882 0.23988 0.10701 0.0
C542 C 0.77695 0.27585 0.11246 0.0
C543 C 0.80723 0.32181 0.10462 0.0
C544 C 0.83696 0.20955 0.08198 0.0
C545 C 0.73784 0.26842 0.13057 0.0
C546 C 0.72523 0.12151 0.1386 0.0
C547 C 0.75406 0.13214 0.16216 0.0
C548 C 0.73551 0.15639 0.12031 0.0
C549 C 0.77589 0.20212 0.12579 0.0
C550 C 0.80572 0.21225 0.14936 0.0
C551 C 0.79418 0.17696 0.16731 0.0
C552 C 0.70295 0.1445 0.0955 0.0
C553 C 0.84919 0.26075 0.1561 0.0
H554 H 0.88645 0.30065 0.07224 0.0
H555 H 0.80133 0.35071 0.11127 0.0
H556 H 0.85903 0.20777 0.09878 0.0
H557 H 0.80446 0.17407 0.07854 0.0
H558 H 0.85763 0.21744 0.06377 0.0
H559 H 0.72586 0.29471 0.12765 0.0
H560 H 0.70688 0.23186 0.12708 0.0
H561 H 0.75144 0.27312 0.15175 0.0
H562 H 0.69361 0.0867 0.13504 0.0
H563 H 0.81547 0.18503 0.18598 0.0
H564 H 0.71985 0.13839 0.07797 0.0
H565 H 0.69674 0.17439 0.09139 0.0
H566 H 0.66802 0.11183 0.09724 0.0
H567 H 0.87463 0.2694 0.14012 0.0
H568 H 0.8679 0.26262 0.17545 0.0
H569 H 0.83881 0.28864 0.15732 0.0
C570 C 1.06479 0.61424 0.06976 0.0
C571 C 0.09864 0.61133 0.08631 0.0
C572 C 1.05164 0.59104 0.04393 0.0
C573 C 1.07364 0.56526 0.03434 0.0
C574 C 0.10952 0.56424 0.05058 0.0
C575 C 0.12126 0.58693 0.07648 0.0
C576 C 1.01239 0.59188 0.02745 0.0
C577 C 0.13427 0.53772 0.041 0.0
C578 C 1.00194 0.4606 0.98331 0.0
C579 C 1.02057 0.48023 0.95929 0.0
C580 C 1.01902 0.48796 0.00777 0.0
C581 C 1.05615 0.53601 0.00835 0.0
C582 C 1.07594 0.55586 0.98417 0.0
C583 C 1.05784 0.52773 0.95987 0.0
C584 C 0.99776 0.46477 0.03298 0.0
C585 C 0.11593 0.60678 0.98397 0.0
H586 H 1.04707 0.63282 0.07745 0.0
H587 H 0.14765 0.58486 0.08926 0.0
H588 H 1.02439 0.60407 0.00733 0.0
H589 H 0.98132 0.55522 0.02448 0.0
H590 H 1.00061 0.61553 0.03714 0.0
H591 H 0.16494 0.54488 0.05478 0.0
H592 H 0.10872 0.49881 0.03947 0.0
H593 H 0.14715 0.54779 0.02074 0.0
H594 H 0.97311 0.424 0.98294 0.0
H595 H 1.07289 0.54288 0.94131 0.0
H596 H 0.99151 0.48878 0.0467 0.0
H597 H 1.0233 0.45676 0.04336 0.0
H598 H 0.96364 0.43085 0.02868 0.0
H599 H 0.10398 0.63144 0.99186 0.0
H600 H 0.12836 0.6164 0.96356 0.0
H601 H 0.14648 0.61246 -0.00268 0.0
C602 C 0.58307 0.10874 0.40557 0.0
C603 C 0.58463 0.07114 0.41732 0.0
C604 C 0.5857 0.11262 0.3778 0.0
C605 C 0.59143 0.07885 0.36171 0.0
C606 C 0.59233 1.04045 0.37351 0.0
C607 C 0.58822 1.03669 0.40115 0.0
C608 C 0.58329 0.15326 0.36576 0.0
C609 C 0.59949 1.00435 0.3571 0.0
C610 C 0.56968 0.06173 0.2862 0.0
C611 C 0.61625 0.08766 0.27788 0.0
C612 C 0.56071 0.06044 0.31346 0.0
C613 C 0.59931 0.08484 0.3328 0.0
C614 C 0.6462 0.112 0.3245 0.0
C615 C 0.65402 0.11342 0.29714 0.0
C616 C 0.51015 1.03174 0.3216 0.0
C617 C 0.68838 0.13809 0.34454 0.0
H618 H 0.58007 0.13521 0.41813 0.0
H619 H 0.58963 1.00768 0.41024 0.0
H620 H 0.61783 0.17763 0.35748 0.0
H621 H 0.55577 0.13937 0.3489 0.0
H622 H 0.57496 0.17415 0.38068 0.0
H623 H 0.59879 0.97631 0.36932 0.0
H624 H 0.57143 0.9869 0.34061 0.0
H625 H 0.63423 1.02263 0.34779 0.0
H626 H 0.5403 1.04132 0.27147 0.0
H627 H 0.68993 0.13436 0.2908 0.0
H628 H 0.50219 0.05316 0.33632 0.0
H629 H 0.50554 0.9999 0.33146 0.0
H630 H 0.48382 1.01957 0.30417 0.0
H631 H 0.68318 0.16256 0.35847 0.0
H632 H 0.7223 0.15914 0.33475 0.0
H633 H 0.69164 0.11204 0.35675 0.0
C634 C 0.61629 0.5576 0.73551 0.0
C635 C 0.61932 0.5965 0.75071 0.0
C636 C 0.63853 0.56406 0.71127 0.0
C637 C 0.66348 0.61037 0.70197 0.0
C638 C 0.66536 0.64952 0.71692 0.0
C639 C 0.64352 0.64215 0.74131 0.0
C640 C 0.63635 0.52161 0.69598 0.0
C641 C 0.69096 0.69922 0.70733 0.0
C642 C 0.76097 0.63515 0.65481 0.0
C643 C 0.73713 0.62875 0.62992 0.0
C644 C 0.73739 0.62956 0.67849 0.0
C645 C 0.68916 0.61812 0.67711 0.0
C646 C 0.66535 0.61314 0.65201 0.0
C647 C 0.68962 0.61825 0.62862 0.0
C648 C 0.76367 0.63451 0.7049 0.0
C649 C 0.61415 0.60173 0.64988 0.0
H650 H 0.59765 0.52235 0.74293 0.0
H651 H 0.64553 0.67214 0.75309 0.0
H652 H 0.62024 0.51712 0.67544 0.0
H653 H 0.67289 0.52764 0.69398 0.0
H654 H 0.61531 0.48798 0.70594 0.0
H655 H 0.68729 0.72537 0.72078 0.0
H656 H 0.72936 0.71133 0.70614 0.0
H657 H 0.6768 0.69917 0.68688 0.0
H658 H 0.7976 0.64293 0.65565 0.0
H659 H 0.67145 0.61379 0.60926 0.0
H660 H 0.74578 0.60028 0.7146 0.0
H661 H 0.76284 0.66197 0.71863 0.0
H662 H 0.80138 0.64451 0.70253 0.0
H663 H 0.59087 0.56627 0.65747 0.0
H664 H 0.60161 0.6014 0.62894 0.0
H665 H 0.60985 0.62828 0.66252 0.0
C666 C 0.6171 0.16076 0.5912 0.0
C667 C 0.59081 0.11828 0.57489 0.0
C668 C 0.62077 0.16064 0.61937 0.0
C669 C 0.59675 0.11702 0.63186 0.0
C670 C 0.57066 0.07389 0.61544 0.0
C671 C 0.56844 0.07498 0.58723 0.0
C672 C 0.64986 0.20745 0.6358 0.0
C673 C 0.54388 1.02664 0.62772 0.0
C674 C 0.63299 0.11481 0.70543 0.0
C675 C 0.60022 0.12277 0.71924 0.0
C676 C 0.63203 0.11223 0.67711 0.0
C677 C 0.59699 0.11697 0.66204 0.0
C678 C 0.56288 0.12339 0.67596 0.0
C679 C 0.56507 0.12646 0.7042 0.0
C680 C 0.6696 0.10613 0.66334 0.0
C681 C 0.52449 0.12806 0.661 0.0
H682 H 0.63486 0.19436 0.5819 0.0
H683 H 0.54803 1.04195 0.57486 0.0
H684 H 0.62628 0.21478 0.64835 0.0
H685 H 0.6762 0.20553 0.64956 0.0
H686 H 0.66911 0.23781 0.6231 0.0
H687 H 0.52654 0.99614 0.61234 0.0
H688 H 0.56835 1.02124 0.64114 0.0
H689 H 0.51611 1.02656 0.64019 0.0
H690 H 0.6606 0.11248 0.71682 0.0
H691 H 0.53943 0.13235 0.71465 0.0
H692 H 0.69154 0.13786 0.6521 0.0
H693 H 0.65266 0.07475 0.64857 0.0
H694 H 0.69344 0.10145 0.67772 0.0
H695 H 0.54087 0.16056 0.64969 0.0
H696 H 0.49915 0.13035 0.67461 0.0
H697 H 0.5043 0.09708 0.64621 0.0
C698 C 0.59885 0.5941 0.91714 0.0
C699 C 0.64387 0.62341 0.90747 0.0
C700 C 0.59255 0.59009 0.94501 0.0
C701 C 0.63202 0.61636 0.96387 0.0
C702 C 0.67735 0.64627 0.95411 0.0
C703 C 0.68268 0.64918 0.92627 0.0
C704 C 0.54372 0.55719 0.95431 0.0
C705 C 0.72058 0.67517 0.97313 0.0
C706 C 0.61675 0.6412 0.03796 0.0
C707 C 0.62679 0.60932 0.05082 0.0
C708 C 0.61691 0.64298 0.00973 0.0
C709 C 0.62676 0.61178 -0.00628 0.0
C710 C 0.63494 0.57824 0.00661 0.0
C711 C 0.63496 0.57753 0.03476 0.0
C712 C 0.60838 0.67962 -0.00289 0.0
C713 C 0.64521 0.54391 0.99073 0.0
H714 H 0.5686 0.5739 0.90291 0.0
H715 H 0.71766 0.67202 0.91919 0.0
H716 H 0.5445 0.52875 0.96544 0.0
H717 H 0.53295 0.5772 0.96834 0.0
H718 H 0.51638 0.54023 0.93737 0.0
H719 H 0.75298 0.6981 0.96252 0.0
H720 H 0.71404 0.6982 0.98748 0.0
H721 H 0.72754 0.65101 0.98502 0.0
H722 H 0.61069 0.66612 0.05005 0.0
H723 H 0.64218 0.5523 0.04436 0.0
H724 H 0.57972 0.66223 0.98091 0.0
H725 H 0.64111 0.70569 0.98784 0.0
H726 H 0.59837 0.69929 0.0119 0.0
H727 H 0.61713 0.52413 0.97445 0.0
H728 H 0.64739 0.51777 0.00342 0.0
H729 H 0.67949 0.56399 0.98118 0.0
C730 C 0.09473 0.55255 0.25621 0.0
C731 C 0.09545 0.58792 0.24075 0.0
C732 C 0.09495 0.55616 0.28438 0.0
C733 C 0.09737 0.59689 0.29785 0.0
C734 C 0.09832 0.63297 0.28235 0.0
C735 C 0.09664 0.62773 0.25402 0.0
C736 C 0.09295 0.51632 0.29977 0.0
C737 C 0.10244 0.67772 0.29572 0.0
C738 C 1.06464 0.59011 0.37144 0.0
C739 C 0.10925 0.60904 0.38547 0.0
C740 C 1.06016 0.58611 0.34308 0.0
C741 C 0.10127 0.60235 0.32809 0.0
C742 C 0.14629 0.62154 0.34209 0.0
C743 C 0.14956 0.62357 0.37029 0.0
C744 C 1.01129 0.56433 0.32912 0.0
C745 C 0.19135 0.64023 0.32726 0.0
H746 H 0.09357 0.52153 0.24621 0.0
H747 H 0.09752 0.65538 0.24228 0.0
H748 H 0.12644 0.5296 0.31233 0.0
H749 H 1.06339 0.50361 0.31346 0.0
H750 H 0.08781 0.48558 0.28636 0.0
H751 H 0.10228 0.70221 0.28098 0.0
H752 H 1.07263 0.66848 0.30891 0.0
H753 H 0.13593 0.69688 0.3086 0.0
H754 H 1.03315 0.57908 0.38259 0.0
H755 H 0.18421 0.63683 0.38046 0.0
H756 H 1.00455 0.53317 0.31557 0.0
H757 H 1.00922 0.59055 0.31653 0.0
H758 H 0.98273 0.55251 0.34347 0.0
H759 H 0.19122 0.61056 0.31517 0.0
H760 H 0.22386 0.65759 0.34104 0.0
H761 H 0.1933 0.66651 0.3132 0.0
loop_
_geom_bond_atom_site_label_1
_geom_bond_atom_site_label_2
_geom_bond_distance
_geom_bond_site_symmetry_2
_ccdc_geom_bond_type
C0 Eu1 2.835 . S
C0 C2 1.500 . S
C0 O20 1.257 . S
C0 O21 1.260 . S
Eu1 C0 2.835 . S
Eu1 O20 2.473 . S
Eu1 O21 2.480 . S
Eu1 O22 2.430 1_655 S
Eu1 O23 2.670 1_655 S
Eu1 O24 2.394 . S
Eu1 O29 2.355 1_655 S
Eu1 O31 2.374 1_655 S
C2 C0 1.500 . S
C2 C3 1.377 . S
C2 C7 1.377 . S
C3 C2 1.377 . S
C3 C4 1.395 . S
C3 H32 0.931 . S
C4 C3 1.395 . S
C4 C5 1.383 . S
C4 H33 0.931 . S
C5 C4 1.383 . S
C5 C6 1.394 . S
C6 C5 1.394 . S
C6 C7 1.378 . S
C6 H34 0.931 . S
C7 C2 1.377 . S
C7 C6 1.378 . S
C7 H35 0.931 . S
C8 O22 1.259 . S
C8 O23 1.270 . S
C9 O24 1.251 . S
C9 O25 1.251 . S
C10 Eu11 2.835 . S
C10 C12 1.500 . S
C10 O26 1.257 . S
C10 O27 1.260 . S
Eu11 C10 2.835 . S
Eu11 O23 2.355 . S
Eu11 O25 2.374 1_455 S
Eu11 O26 2.473 . S
Eu11 O27 2.480 . S
Eu11 O28 2.430 . S
Eu11 O29 2.670 . S
Eu11 O30 2.394 . S
C12 C10 1.500 . S
C12 C13 1.377 . S
C12 C17 1.377 . S
C13 C12 1.377 . S
C13 C14 1.395 . S
C13 H36 0.931 . S
C14 C13 1.395 . S
C14 C15 1.383 . S
C14 H37 0.931 . S
C15 C14 1.383 . S
C15 C16 1.394 . S
C16 C15 1.394 . S
C16 C17 1.378 . S
C16 H38 0.931 . S
C17 C12 1.377 . S
C17 C16 1.378 . S
C17 H39 0.931 . S
C18 O28 1.259 . S
C18 O29 1.270 . S
C19 O30 1.251 . S
C19 O31 1.251 . S
O20 C0 1.257 . S
O20 Eu1 2.473 . S
O21 C0 1.260 . S
O21 Eu1 2.480 . S
O22 Eu1 2.430 1_455 S
O22 C8 1.259 . S
O23 Eu1 2.670 1_455 S
O23 C8 1.270 . S
O23 Eu11 2.355 . S
O24 Eu1 2.394 . S
O24 C9 1.251 . S
O25 C9 1.251 . S
O25 Eu11 2.374 1_655 S
O26 C10 1.257 . S
O26 Eu11 2.473 . S
O27 C10 1.260 . S
O27 Eu11 2.480 . S
O28 Eu11 2.430 . S
O28 C18 1.259 . S
O29 Eu1 2.355 1_455 S
O29 Eu11 2.670 . S
O29 C18 1.270 . S
O30 Eu11 2.394 . S
O30 C19 1.251 . S
O31 Eu1 2.374 1_455 S
O31 C19 1.251 . S
H32 C3 0.931 . S
H33 C4 0.931 . S
H34 C6 0.931 . S
H35 C7 0.931 . S
H36 C13 0.931 . S
H37 C14 0.931 . S
H38 C16 0.931 . S
H39 C17 0.931 . S
C40 Eu41 2.835 . S
C40 C42 1.500 . S
C40 O60 1.257 . S
C40 O61 1.260 . S
Eu41 C40 2.835 . S
Eu41 O60 2.473 . S
Eu41 O61 2.480 . S
Eu41 O62 2.430 . S
Eu41 O63 2.670 . S
Eu41 O64 2.394 . S
Eu41 O69 2.355 . S
Eu41 O71 2.374 . S
C42 C40 1.500 . S
C42 C43 1.377 . S
C42 C47 1.377 . S
C43 C42 1.377 . S
C43 C44 1.395 . S
C43 H72 0.931 . S
C44 C43 1.395 . S
C44 C45 1.383 . S
C44 H73 0.931 . S
C45 C44 1.383 . S
C45 C46 1.394 . S
C46 C45 1.394 . S
C46 C47 1.378 . S
C46 H74 0.931 . S
C47 C42 1.377 . S
C47 C46 1.378 . S
C47 H75 0.931 . S
C48 O62 1.259 . S
C48 O63 1.270 . S
C49 O64 1.251 . S
C49 O65 1.251 . S
C50 Eu51 2.835 1_565 S
C50 C52 1.500 . S
C50 O66 1.257 . S
C50 O67 1.260 . S
Eu51 C50 2.835 1_545 S
Eu51 O63 2.355 . S
Eu51 O65 2.374 . S
Eu51 O66 2.473 1_545 S
Eu51 O67 2.480 1_545 S
Eu51 O68 2.430 . S
Eu51 O69 2.670 . S
Eu51 O70 2.394 1_545 S
C52 C50 1.500 . S
C52 C53 1.377 . S
C52 C57 1.377 . S
C53 C52 1.377 . S
C53 C54 1.395 . S
C53 H76 0.931 . S
C54 C53 1.395 . S
C54 C55 1.383 . S
C54 H77 0.931 . S
C55 C54 1.383 . S
C55 C56 1.394 . S
C56 C55 1.394 . S
C56 C57 1.378 . S
C56 H78 0.931 . S
C57 C52 1.377 . S
C57 C56 1.378 . S
C57 H79 0.931 . S
C58 O68 1.259 . S
C58 O69 1.270 . S
C59 O70 1.251 . S
C59 O71 1.251 1_565 S
O60 C40 1.257 . S
O60 Eu41 2.473 . S
O61 C40 1.260 . S
O61 Eu41 2.480 . S
O62 Eu41 2.430 . S
O62 C48 1.259 . S
O63 Eu41 2.670 . S
O63 C48 1.270 . S
O63 Eu51 2.355 . S
O64 Eu41 2.394 . S
O64 C49 1.251 . S
O65 C49 1.251 . S
O65 Eu51 2.374 . S
O66 C50 1.257 . S
O66 Eu51 2.473 1_565 S
O67 C50 1.260 . S
O67 Eu51 2.480 1_565 S
O68 Eu51 2.430 . S
O68 C58 1.259 . S
O69 Eu41 2.355 . S
O69 Eu51 2.670 . S
O69 C58 1.270 . S
O70 Eu51 2.394 1_565 S
O70 C59 1.251 . S
O71 Eu41 2.374 . S
O71 C59 1.251 1_545 S
H72 C43 0.931 . S
H73 C44 0.931 . S
H74 C46 0.931 . S
H75 C47 0.931 . S
H76 C53 0.931 . S
H77 C54 0.931 . S
H78 C56 0.931 . S
H79 C57 0.931 . S
C80 Eu81 2.835 . S
C80 C82 1.500 . S
C80 O100 1.257 . S
C80 O101 1.260 . S
Eu81 C80 2.835 . S
Eu81 O100 2.473 . S
Eu81 O101 2.480 . S
Eu81 O102 2.430 . S
Eu81 O103 2.670 . S
Eu81 O104 2.394 . S
Eu81 O109 2.355 . S
Eu81 O111 2.374 . S
C82 C80 1.500 . S
C82 C83 1.377 . S
C82 C87 1.377 . S
C83 C82 1.377 . S
C83 C84 1.395 . S
C83 H112 0.931 . S
C84 C83 1.395 . S
C84 C85 1.383 . S
C84 H113 0.931 . S
C85 C84 1.383 . S
C85 C86 1.394 . S
C86 C85 1.394 . S
C86 C87 1.378 . S
C86 H114 0.931 . S
C87 C82 1.377 . S
C87 C86 1.378 . S
C87 H115 0.931 . S
C88 O102 1.259 . S
C88 O103 1.270 . S
C89 O104 1.251 . S
C89 O105 1.251 . S
C90 Eu91 2.835 . S
C90 C92 1.500 . S
C90 O106 1.257 . S
C90 O107 1.260 . S
Eu91 C90 2.835 . S
Eu91 O103 2.355 . S
Eu91 O105 2.374 . S
Eu91 O106 2.473 . S
Eu91 O107 2.480 . S
Eu91 O108 2.430 . S
Eu91 O109 2.670 . S
Eu91 O110 2.394 . S
C92 C90 1.500 . S
C92 C93 1.377 . S
C92 C97 1.377 . S
C93 C92 1.377 . S
C93 C94 1.395 . S
C93 H116 0.931 . S
C94 C93 1.395 . S
C94 C95 1.383 . S
C94 H117 0.931 . S
C95 C94 1.383 . S
C95 C96 1.394 . S
C96 C95 1.394 . S
C96 C97 1.378 . S
C96 H118 0.931 . S
C97 C92 1.377 . S
C97 C96 1.378 . S
C97 H119 0.931 . S
C98 O108 1.259 . S
C98 O109 1.270 . S
C99 O110 1.251 . S
C99 O111 1.251 . S
O100 C80 1.257 . S
O100 Eu81 2.473 . S
O101 C80 1.260 . S
O101 Eu81 2.480 . S
O102 Eu81 2.430 . S
O102 C88 1.259 . S
O103 Eu81 2.670 . S
O103 C88 1.270 . S
O103 Eu91 2.355 . S
O104 Eu81 2.394 . S
O104 C89 1.251 . S
O105 C89 1.251 . S
O105 Eu91 2.374 . S
O106 C90 1.257 . S
O106 Eu91 2.473 . S
O107 C90 1.260 . S
O107 Eu91 2.480 . S
O108 Eu91 2.430 . S
O108 C98 1.259 . S
O109 Eu81 2.355 . S
O109 Eu91 2.670 . S
O109 C98 1.270 . S
O110 Eu91 2.394 . S
O110 C99 1.251 . S
O111 Eu81 2.374 . S
O111 C99 1.251 . S
H112 C83 0.931 . S
H113 C84 0.931 . S
H114 C86 0.931 . S
H115 C87 0.931 . S
H116 C93 0.931 . S
H117 C94 0.931 . S
H118 C96 0.931 . S
H119 C97 0.931 . S
H120 C123 0.929 . S
H121 C126 0.929 . S
H122 C128 0.930 . S
C123 H120 0.929 . S
C123 C124 1.398 . S
C123 C125 1.396 . S
C124 C123 1.398 . S
C124 C128 1.407 . S
C125 C123 1.396 . S
C125 C126 1.394 . S
C126 H121 0.929 . S
C126 C125 1.394 . S
C126 C127 1.382 . S
C127 C126 1.382 . S
C127 C128 1.392 . S
C127 N129 1.420 . S
C128 H122 0.930 . S
C128 C124 1.407 . S
C128 C127 1.392 . S
N129 C127 1.420 . S
N129 C130 1.244 . S
C130 N129 1.244 . S
H131 C134 0.929 . S
H132 C137 0.929 . S
H133 C139 0.930 . S
C134 H131 0.929 . S
C134 C135 1.398 . S
C134 C136 1.396 . S
C135 C134 1.398 . S
C135 C139 1.407 . S
C136 C134 1.396 . S
C136 C137 1.394 . S
C137 H132 0.929 . S
C137 C136 1.394 . S
C137 C138 1.382 . S
C138 C137 1.382 . S
C138 C139 1.392 . S
C138 N140 1.420 . S
C139 H133 0.930 . S
C139 C135 1.407 . S
C139 C138 1.392 . S
N140 C138 1.420 . S
N140 C141 1.244 . S
C141 N140 1.244 . S
H142 C145 0.929 . S
H143 C148 0.929 . S
H144 C150 0.930 . S
C145 H142 0.929 . S
C145 C146 1.398 . S
C145 C147 1.396 1_655 S
C146 C145 1.398 . S
C146 C150 1.407 . S
C147 C145 1.396 1_455 S
C147 C148 1.394 . S
C148 H143 0.929 . S
C148 C147 1.394 . S
C148 C149 1.382 . S
C149 C148 1.382 . S
C149 C150 1.392 1_455 S
C149 N151 1.420 . S
C150 H144 0.930 . S
C150 C146 1.407 . S
C150 C149 1.392 1_655 S
N151 C149 1.420 . S
N151 C152 1.244 . S
C152 N151 1.244 . S
H153 C156 0.929 . S
H154 C159 0.929 1_655 S
H155 C161 0.930 . S
C156 H153 0.929 . S
C156 C157 1.398 . S
C156 C158 1.396 . S
C157 C156 1.398 . S
C157 C161 1.407 . S
C158 C156 1.396 . S
C158 C159 1.394 . S
C159 H154 0.929 1_455 S
C159 C158 1.394 . S
C159 C160 1.382 . S
C160 C159 1.382 . S
C160 C161 1.392 . S
C160 N162 1.420 1_455 S
C161 H155 0.930 . S
C161 C157 1.407 . S
C161 C160 1.392 . S
N162 C160 1.420 1_655 S
N162 C163 1.244 . S
C163 N162 1.244 . S
H164 C167 0.929 . S
H165 C170 0.929 1_565 S
H166 C172 0.930 . S
C167 H164 0.929 . S
C167 C168 1.398 . S
C167 C169 1.396 . S
C168 C167 1.398 . S
C168 C172 1.407 . S
C169 C167 1.396 . S
C169 C170 1.394 . S
C170 H165 0.929 1_545 S
C170 C169 1.394 . S
C170 C171 1.382 . S
C171 C170 1.382 . S
C171 C172 1.392 . S
C171 N173 1.420 1_545 S
C172 H166 0.930 . S
C172 C168 1.407 . S
C172 C171 1.392 . S
N173 C171 1.420 1_565 S
N173 C174 1.244 . S
C174 N173 1.244 . S
H175 C178 0.929 . S
H176 C181 0.929 . S
H177 C183 0.930 . S
C178 H175 0.929 . S
C178 C179 1.398 . S
C178 C180 1.396 . S
C179 C178 1.398 . S
C179 C183 1.407 . S
C180 C178 1.396 . S
C180 C181 1.394 . S
C181 H176 0.929 . S
C181 C180 1.394 . S
C181 C182 1.382 . S
C182 C181 1.382 . S
C182 C183 1.392 . S
C182 N184 1.420 . S
C183 H177 0.930 . S
C183 C179 1.407 . S
C183 C182 1.392 . S
N184 C182 1.420 . S
N184 C185 1.244 . S
C185 N184 1.244 . S
C186 C187 1.391 . S
C186 C188 1.394 . S
C186 H202 0.931 . S
C187 C186 1.391 . S
C187 C191 1.376 . S
C188 C186 1.394 . S
C188 C189 1.369 . S
C188 C192 1.531 . S
C189 C188 1.369 . S
C189 C190 1.410 . S
C189 C197 1.503 . S
C190 C189 1.410 . S
C190 C191 1.392 . S
C190 C193 1.511 . S
C191 C187 1.376 . S
C191 C190 1.392 . S
C191 H203 0.929 . S
C192 C188 1.531 . S
C192 H204 0.960 . S
C192 H205 0.962 . S
C192 H206 0.960 . S
C193 C190 1.511 . S
C193 H207 0.961 . S
C193 H208 0.961 . S
C193 H209 0.961 . S
C194 C195 1.370 . S
C194 C196 1.363 . S
C194 H210 0.931 . S
C195 C194 1.370 . S
C195 C199 1.408 . S
C196 C194 1.363 . S
C196 C197 1.370 . S
C196 C200 1.524 . S
C197 C189 1.503 . S
C197 C196 1.370 . S
C197 C198 1.403 . S
C198 C197 1.403 . S
C198 C199 1.404 . S
C198 C201 1.539 . S
C199 C195 1.408 . S
C199 C198 1.404 . S
C199 H211 0.930 . S
C200 C196 1.524 . S
C200 H212 0.956 . S
C200 H213 0.961 . S
C200 H214 0.961 . S
C201 C198 1.539 . S
C201 H215 0.958 . S
C201 H216 0.961 . S
C201 H217 0.960 . S
H202 C186 0.931 . S
H203 C191 0.929 . S
H204 C192 0.960 . S
H205 C192 0.962 . S
H206 C192 0.960 . S
H207 C193 0.961 . S
H208 C193 0.961 . S
H209 C193 0.961 . S
H210 C194 0.931 . S
H211 C199 0.930 . S
H212 C200 0.956 . S
H213 C200 0.961 . S
H214 C200 0.961 . S
H215 C201 0.958 . S
H216 C201 0.961 . S
H217 C201 0.960 . S
C218 C219 1.391 . S
C218 C220 1.394 . S
C218 H234 0.931 . S
C219 C218 1.391 . S
C219 C223 1.376 . S
C220 C218 1.394 . S
C220 C221 1.369 . S
C220 C224 1.531 . S
C221 C220 1.369 . S
C221 C222 1.410 . S
C221 C229 1.503 . S
C222 C221 1.410 . S
C222 C223 1.392 . S
C222 C225 1.511 . S
C223 C219 1.376 . S
C223 C222 1.392 . S
C223 H235 0.929 . S
C224 C220 1.531 . S
C224 H236 0.960 . S
C224 H237 0.962 . S
C224 H238 0.960 . S
C225 C222 1.511 . S
C225 H239 0.961 . S
C225 H240 0.961 . S
C225 H241 0.961 . S
C226 C227 1.370 . S
C226 C228 1.363 . S
C226 H242 0.931 . S
C227 C226 1.370 . S
C227 C231 1.408 . S
C228 C226 1.363 . S
C228 C229 1.370 . S
C228 C232 1.524 . S
C229 C221 1.503 . S
C229 C228 1.370 . S
C229 C230 1.403 . S
C230 C229 1.403 . S
C230 C231 1.404 . S
C230 C233 1.539 . S
C231 C227 1.408 . S
C231 C230 1.404 . S
C231 H243 0.930 . S
C232 C228 1.524 . S
C232 H244 0.956 . S
C232 H245 0.961 . S
C232 H246 0.961 . S
C233 C230 1.539 . S
C233 H247 0.958 . S
C233 H248 0.961 . S
C233 H249 0.960 . S
H234 C218 0.931 . S
H235 C223 0.929 . S
H236 C224 0.960 . S
H237 C224 0.962 . S
H238 C224 0.960 . S
H239 C225 0.961 . S
H240 C225 0.961 . S
H241 C225 0.961 . S
H242 C226 0.931 . S
H243 C231 0.930 . S
H244 C232 0.956 . S
H245 C232 0.961 . S
H246 C232 0.961 . S
H247 C233 0.958 . S
H248 C233 0.961 . S
H249 C233 0.960 . S
C250 C251 1.391 . S
C250 C252 1.394 . S
C250 H266 0.931 . S
C251 C250 1.391 . S
C251 C255 1.376 . S
C252 C250 1.394 . S
C252 C253 1.369 . S
C252 C256 1.531 . S
C253 C252 1.369 . S
C253 C254 1.410 . S
C253 C261 1.503 . S
C254 C253 1.410 . S
C254 C255 1.392 . S
C254 C257 1.511 . S
C255 C251 1.376 . S
C255 C254 1.392 . S
C255 H267 0.929 . S
C256 C252 1.531 . S
C256 H268 0.960 . S
C256 H269 0.962 . S
C256 H270 0.960 . S
C257 C254 1.511 . S
C257 H271 0.961 . S
C257 H272 0.961 . S
C257 H273 0.961 . S
C258 C259 1.370 . S
C258 C260 1.363 . S
C258 H274 0.931 . S
C259 C258 1.370 . S
C259 C263 1.408 . S
C260 C258 1.363 . S
C260 C261 1.370 . S
C260 C264 1.524 . S
C261 C253 1.503 . S
C261 C260 1.370 . S
C261 C262 1.403 . S
C262 C261 1.403 . S
C262 C263 1.404 . S
C262 C265 1.539 . S
C263 C259 1.408 . S
C263 C262 1.404 . S
C263 H275 0.930 . S
C264 C260 1.524 . S
C264 H276 0.956 . S
C264 H277 0.961 . S
C264 H278 0.961 . S
C265 C262 1.539 . S
C265 H279 0.958 . S
C265 H280 0.961 . S
C265 H281 0.960 . S
H266 C250 0.931 . S
H267 C255 0.929 . S
H268 C256 0.960 . S
H269 C256 0.962 . S
H270 C256 0.960 . S
H271 C257 0.961 . S
H272 C257 0.961 . S
H273 C257 0.961 . S
H274 C258 0.931 . S
H275 C263 0.930 . S
H276 C264 0.956 . S
H277 C264 0.961 . S
H278 C264 0.961 . S
H279 C265 0.958 . S
H280 C265 0.961 . S
H281 C265 0.960 . S
C282 C283 1.391 . S
C282 C284 1.394 . S
C282 H298 0.931 . S
C283 C282 1.391 . S
C283 C287 1.376 . S
C284 C282 1.394 . S
C284 C285 1.369 . S
C284 C288 1.531 . S
C285 C284 1.369 . S
C285 C286 1.410 . S
C285 C293 1.503 . S
C286 C285 1.410 . S
C286 C287 1.392 . S
C286 C289 1.511 . S
C287 C283 1.376 . S
C287 C286 1.392 . S
C287 H299 0.929 . S
C288 C284 1.531 . S
C288 H300 0.960 . S
C288 H301 0.962 . S
C288 H302 0.960 . S
C289 C286 1.511 . S
C289 H303 0.961 . S
C289 H304 0.961 . S
C289 H305 0.961 . S
C290 C291 1.370 . S
C290 C292 1.363 . S
C290 H306 0.931 . S
C291 C290 1.370 . S
C291 C295 1.408 . S
C292 C290 1.363 . S
C292 C293 1.370 . S
C292 C296 1.524 . S
C293 C285 1.503 . S
C293 C292 1.370 . S
C293 C294 1.403 . S
C294 C293 1.403 . S
C294 C295 1.404 . S
C294 C297 1.539 . S
C295 C291 1.408 . S
C295 C294 1.404 . S
C295 H307 0.930 . S
C296 C292 1.524 . S
C296 H308 0.956 . S
C296 H309 0.961 . S
C296 H310 0.961 . S
C297 C294 1.539 . S
C297 H311 0.958 . S
C297 H312 0.961 . S
C297 H313 0.960 . S
H298 C282 0.931 . S
H299 C287 0.929 . S
H300 C288 0.960 . S
H301 C288 0.962 . S
H302 C288 0.960 . S
H303 C289 0.961 . S
H304 C289 0.961 . S
H305 C289 0.961 . S
H306 C290 0.931 . S
H307 C295 0.930 . S
H308 C296 0.956 . S
H309 C296 0.961 . S
H310 C296 0.961 . S
H311 C297 0.958 . S
H312 C297 0.961 . S
H313 C297 0.960 . S
C314 C315 1.391 . S
C314 C316 1.394 . S
C314 H330 0.931 . S
C315 C314 1.391 . S
C315 C319 1.376 . S
C316 C314 1.394 . S
C316 C317 1.369 . S
C316 C320 1.531 . S
C317 C316 1.369 . S
C317 C318 1.410 . S
C317 C325 1.503 . S
C318 C317 1.410 . S
C318 C319 1.392 . S
C318 C321 1.511 . S
C319 C315 1.376 . S
C319 C318 1.392 . S
C319 H331 0.929 . S
C320 C316 1.531 . S
C320 H332 0.960 . S
C320 H333 0.962 . S
C320 H334 0.960 . S
C321 C318 1.511 . S
C321 H335 0.961 . S
C321 H336 0.961 . S
C321 H337 0.961 . S
C322 C323 1.370 . S
C322 C324 1.363 . S
C322 H338 0.931 . S
C323 C322 1.370 . S
C323 C327 1.408 . S
C324 C322 1.363 . S
C324 C325 1.370 . S
C324 C328 1.524 . S
C325 C317 1.503 . S
C325 C324 1.370 . S
C325 C326 1.403 . S
C326 C325 1.403 . S
C326 C327 1.404 . S
C326 C329 1.539 . S
C327 C323 1.408 . S
C327 C326 1.404 . S
C327 H339 0.930 . S
C328 C324 1.524 . S
C328 H340 0.956 . S
C328 H341 0.961 . S
C328 H342 0.961 . S
C329 C326 1.539 . S
C329 H343 0.958 . S
C329 H344 0.961 . S
C329 H345 0.960 . S
H330 C314 0.931 . S
H331 C319 0.929 . S
H332 C320 0.960 . S
H333 C320 0.962 . S
H334 C320 0.960 . S
H335 C321 0.961 . S
H336 C321 0.961 . S
H337 C321 0.961 . S
H338 C322 0.931 . S
H339 C327 0.930 . S
H340 C328 0.956 . S
H341 C328 0.961 . S
H342 C328 0.961 . S
H343 C329 0.958 . S
H344 C329 0.961 . S
H345 C329 0.960 . S
C346 C347 1.391 . S
C346 C348 1.394 . S
C346 H362 0.931 . S
C347 C346 1.391 . S
C347 C351 1.376 . S
C348 C346 1.394 . S
C348 C349 1.369 . S
C348 C352 1.531 . S
C349 C348 1.369 . S
C349 C350 1.410 . S
C349 C357 1.503 . S
C350 C349 1.410 . S
C350 C351 1.392 . S
C350 C353 1.511 . S
C351 C347 1.376 . S
C351 C350 1.392 . S
C351 H363 0.929 . S
C352 C348 1.531 . S
C352 H364 0.960 . S
C352 H365 0.962 . S
C352 H366 0.960 . S
C353 C350 1.511 . S
C353 H367 0.961 . S
C353 H368 0.961 . S
C353 H369 0.961 . S
C354 C355 1.370 . S
C354 C356 1.363 . S
C354 H370 0.931 . S
C355 C354 1.370 . S
C355 C359 1.408 . S
C356 C354 1.363 . S
C356 C357 1.370 . S
C356 C360 1.524 . S
C357 C349 1.503 . S
C357 C356 1.370 . S
C357 C358 1.403 . S
C358 C357 1.403 . S
C358 C359 1.404 . S
C358 C361 1.539 . S
C359 C355 1.408 . S
C359 C358 1.404 . S
C359 H371 0.930 . S
C360 C356 1.524 . S
C360 H372 0.956 . S
C360 H373 0.961 . S
C360 H374 0.961 . S
C361 C358 1.539 . S
C361 H375 0.958 . S
C361 H376 0.961 . S
C361 H377 0.960 . S
H362 C346 0.931 . S
H363 C351 0.929 . S
H364 C352 0.960 . S
H365 C352 0.962 . S
H366 C352 0.960 . S
H367 C353 0.961 . S
H368 C353 0.961 . S
H369 C353 0.961 . S
H370 C354 0.931 . S
H371 C359 0.930 . S
H372 C360 0.956 . S
H373 C360 0.961 . S
H374 C360 0.961 . S
H375 C361 0.958 . S
H376 C361 0.961 . S
H377 C361 0.960 . S
C378 C379 1.391 . S
C378 C380 1.394 . S
C378 H394 0.931 . S
C379 C378 1.391 . S
C379 C383 1.376 . S
C380 C378 1.394 . S
C380 C381 1.369 . S
C380 C384 1.531 . S
C381 C380 1.369 . S
C381 C382 1.410 . S
C381 C389 1.503 . S
C382 C381 1.410 . S
C382 C383 1.392 . S
C382 C385 1.511 . S
C383 C379 1.376 . S
C383 C382 1.392 . S
C383 H395 0.929 . S
C384 C380 1.531 . S
C384 H396 0.960 . S
C384 H397 0.962 . S
C384 H398 0.960 . S
C385 C382 1.511 . S
C385 H399 0.961 . S
C385 H400 0.961 . S
C385 H401 0.961 . S
C386 C387 1.370 . S
C386 C388 1.363 . S
C386 H402 0.931 . S
C387 C386 1.370 . S
C387 C391 1.408 . S
C388 C386 1.363 . S
C388 C389 1.370 . S
C388 C392 1.524 . S
C389 C381 1.503 . S
C389 C388 1.370 . S
C389 C390 1.403 . S
C390 C389 1.403 . S
C390 C391 1.404 . S
C390 C393 1.539 . S
C391 C387 1.408 . S
C391 C390 1.404 . S
C391 H403 0.930 . S
C392 C388 1.524 . S
C392 H404 0.956 . S
C392 H405 0.961 . S
C392 H406 0.961 . S
C393 C390 1.539 . S
C393 H407 0.958 . S
C393 H408 0.961 . S
C393 H409 0.960 . S
H394 C378 0.931 . S
H395 C383 0.929 . S
H396 C384 0.960 . S
H397 C384 0.962 . S
H398 C384 0.960 . S
H399 C385 0.961 . S
H400 C385 0.961 . S
H401 C385 0.961 . S
H402 C386 0.931 . S
H403 C391 0.930 . S
H404 C392 0.956 . S
H405 C392 0.961 . S
H406 C392 0.961 . S
H407 C393 0.958 . S
H408 C393 0.961 . S
H409 C393 0.960 . S
C410 C411 1.391 . S
C410 C412 1.394 . S
C410 H426 0.931 . S
C411 C410 1.391 . S
C411 C415 1.376 . S
C412 C410 1.394 . S
C412 C413 1.369 . S
C412 C416 1.531 . S
C413 C412 1.369 . S
C413 C414 1.410 . S
C413 C421 1.503 . S
C414 C413 1.410 . S
C414 C415 1.392 . S
C414 C417 1.511 . S
C415 C411 1.376 . S
C415 C414 1.392 . S
C415 H427 0.929 . S
C416 C412 1.531 . S
C416 H428 0.960 . S
C416 H429 0.962 . S
C416 H430 0.960 . S
C417 C414 1.511 . S
C417 H431 0.961 . S
C417 H432 0.961 . S
C417 H433 0.961 . S
C418 C419 1.370 . S
C418 C420 1.363 . S
C418 H434 0.931 . S
C419 C418 1.370 . S
C419 C423 1.408 . S
C420 C418 1.363 . S
C420 C421 1.370 . S
C420 C424 1.524 . S
C421 C413 1.503 . S
C421 C420 1.370 . S
C421 C422 1.403 . S
C422 C421 1.403 . S
C422 C423 1.404 . S
C422 C425 1.539 . S
C423 C419 1.408 . S
C423 C422 1.404 . S
C423 H435 0.930 . S
C424 C420 1.524 . S
C424 H436 0.956 . S
C424 H437 0.961 . S
C424 H438 0.961 . S
C425 C422 1.539 . S
C425 H439 0.958 . S
C425 H440 0.961 . S
C425 H441 0.960 . S
H426 C410 0.931 . S
H427 C415 0.929 . S
H428 C416 0.960 . S
H429 C416 0.962 . S
H430 C416 0.960 . S
H431 C417 0.961 . S
H432 C417 0.961 . S
H433 C417 0.961 . S
H434 C418 0.931 . S
H435 C423 0.930 . S
H436 C424 0.956 . S
H437 C424 0.961 . S
H438 C424 0.961 . S
H439 C425 0.958 . S
H440 C425 0.961 . S
H441 C425 0.960 . S
C442 C443 1.391 . S
C442 C444 1.394 . S
C442 H458 0.931 . S
C443 C442 1.391 . S
C443 C447 1.376 . S
C444 C442 1.394 . S
C444 C445 1.369 . S
C444 C448 1.531 . S
C445 C444 1.369 . S
C445 C446 1.410 . S
C445 C453 1.503 . S
C446 C445 1.410 . S
C446 C447 1.392 . S
C446 C449 1.511 . S
C447 C443 1.376 . S
C447 C446 1.392 . S
C447 H459 0.929 . S
C448 C444 1.531 . S
C448 H460 0.960 . S
C448 H461 0.962 . S
C448 H462 0.960 . S
C449 C446 1.511 . S
C449 H463 0.961 . S
C449 H464 0.961 . S
C449 H465 0.961 . S
C450 C451 1.370 1_565 S
C450 C452 1.363 . S
C450 H466 0.931 . S
C451 C450 1.370 1_545 S
C451 C455 1.408 . S
C452 C450 1.363 . S
C452 C453 1.370 . S
C452 C456 1.524 . S
C453 C445 1.503 . S
C453 C452 1.370 . S
C453 C454 1.403 . S
C454 C453 1.403 . S
C454 C455 1.404 1_565 S
C454 C457 1.539 . S
C455 C451 1.408 . S
C455 C454 1.404 1_545 S
C455 H467 0.930 . S
C456 C452 1.524 . S
C456 H468 0.956 . S
C456 H469 0.961 . S
C456 H470 0.961 . S
C457 C454 1.539 . S
C457 H471 0.958 . S
C457 H472 0.961 1_565 S
C457 H473 0.960 . S
H458 C442 0.931 . S
H459 C447 0.929 . S
H460 C448 0.960 . S
H461 C448 0.962 . S
H462 C448 0.960 . S
H463 C449 0.961 . S
H464 C449 0.961 . S
H465 C449 0.961 . S
H466 C450 0.931 . S
H467 C455 0.930 . S
H468 C456 0.956 . S
H469 C456 0.961 . S
H470 C456 0.961 . S
H471 C457 0.958 . S
H472 C457 0.961 1_545 S
H473 C457 0.960 . S
C474 C475 1.391 . S
C474 C476 1.394 . S
C474 H490 0.931 . S
C475 C474 1.391 . S
C475 C479 1.376 . S
C476 C474 1.394 . S
C476 C477 1.369 . S
C476 C480 1.531 . S
C477 C476 1.369 . S
C477 C478 1.410 . S
C477 C485 1.503 . S
C478 C477 1.410 . S
C478 C479 1.392 . S
C478 C481 1.511 . S
C479 C475 1.376 . S
C479 C478 1.392 . S
C479 H491 0.929 . S
C480 C476 1.531 . S
C480 H492 0.960 . S
C480 H493 0.962 . S
C480 H494 0.960 . S
C481 C478 1.511 . S
C481 H495 0.961 . S
C481 H496 0.961 . S
C481 H497 0.961 . S
C482 C483 1.370 . S
C482 C484 1.363 . S
C482 H498 0.931 . S
C483 C482 1.370 . S
C483 C487 1.408 . S
C484 C482 1.363 . S
C484 C485 1.370 . S
C484 C488 1.524 . S
C485 C477 1.503 . S
C485 C484 1.370 . S
C485 C486 1.403 . S
C486 C485 1.403 . S
C486 C487 1.404 . S
C486 C489 1.539 . S
C487 C483 1.408 . S
C487 C486 1.404 . S
C487 H499 0.930 . S
C488 C484 1.524 . S
C488 H500 0.956 . S
C488 H501 0.961 . S
C488 H502 0.961 . S
C489 C486 1.539 . S
C489 H503 0.958 . S
C489 H504 0.961 . S
C489 H505 0.960 . S
H490 C474 0.931 . S
H491 C479 0.929 . S
H492 C480 0.960 . S
H493 C480 0.962 . S
H494 C480 0.960 . S
H495 C481 0.961 . S
H496 C481 0.961 . S
H497 C481 0.961 . S
H498 C482 0.931 . S
H499 C487 0.930 . S
H500 C488 0.956 . S
H501 C488 0.961 . S
H502 C488 0.961 . S
H503 C489 0.958 . S
H504 C489 0.961 . S
H505 C489 0.960 . S
C506 C507 1.391 . S
C506 C508 1.394 . S
C506 H522 0.931 . S
C507 C506 1.391 . S
C507 C511 1.376 . S
C508 C506 1.394 . S
C508 C509 1.369 . S
C508 C512 1.531 . S
C509 C508 1.369 . S
C509 C510 1.410 . S
C509 C517 1.503 . S
C510 C509 1.410 . S
C510 C511 1.392 . S
C510 C513 1.511 . S
C511 C507 1.376 . S
C511 C510 1.392 . S
C511 H523 0.929 . S
C512 C508 1.531 . S
C512 H524 0.960 . S
C512 H525 0.962 . S
C512 H526 0.960 . S
C513 C510 1.511 . S
C513 H527 0.961 . S
C513 H528 0.961 . S
C513 H529 0.961 . S
C514 C515 1.370 . S
C514 C516 1.363 . S
C514 H530 0.931 . S
C515 C514 1.370 . S
C515 C519 1.408 . S
C516 C514 1.363 . S
C516 C517 1.370 . S
C516 C520 1.524 . S
C517 C509 1.503 . S
C517 C516 1.370 . S
C517 C518 1.403 . S
C518 C517 1.403 . S
C518 C519 1.404 . S
C518 C521 1.539 . S
C519 C515 1.408 . S
C519 C518 1.404 . S
C519 H531 0.930 . S
C520 C516 1.524 . S
C520 H532 0.956 . S
C520 H533 0.961 . S
C520 H534 0.961 . S
C521 C518 1.539 . S
C521 H535 0.958 . S
C521 H536 0.961 . S
C521 H537 0.960 . S
H522 C506 0.931 . S
H523 C511 0.929 . S
H524 C512 0.960 . S
H525 C512 0.962 . S
H526 C512 0.960 . S
H527 C513 0.961 . S
H528 C513 0.961 . S
H529 C513 0.961 . S
H530 C514 0.931 . S
H531 C519 0.930 . S
H532 C520 0.956 . S
H533 C520 0.961 . S
H534 C520 0.961 . S
H535 C521 0.958 . S
H536 C521 0.961 . S
H537 C521 0.960 . S
C538 C539 1.391 . S
C538 C540 1.394 . S
C538 H554 0.931 . S
C539 C538 1.391 . S
C539 C543 1.376 . S
C540 C538 1.394 . S
C540 C541 1.369 . S
C540 C544 1.531 . S
C541 C540 1.369 . S
C541 C542 1.410 . S
C541 C549 1.503 . S
C542 C541 1.410 . S
C542 C543 1.392 . S
C542 C545 1.511 . S
C543 C539 1.376 . S
C543 C542 1.392 . S
C543 H555 0.929 . S
C544 C540 1.531 . S
C544 H556 0.960 . S
C544 H557 0.962 . S
C544 H558 0.960 . S
C545 C542 1.511 . S
C545 H559 0.961 . S
C545 H560 0.961 . S
C545 H561 0.961 . S
C546 C547 1.370 . S
C546 C548 1.363 . S
C546 H562 0.931 . S
C547 C546 1.370 . S
C547 C551 1.408 . S
C548 C546 1.363 . S
C548 C549 1.370 . S
C548 C552 1.524 . S
C549 C541 1.503 . S
C549 C548 1.370 . S
C549 C550 1.403 . S
C550 C549 1.403 . S
C550 C551 1.404 . S
C550 C553 1.539 . S
C551 C547 1.408 . S
C551 C550 1.404 . S
C551 H563 0.930 . S
C552 C548 1.524 . S
C552 H564 0.956 . S
C552 H565 0.961 . S
C552 H566 0.961 . S
C553 C550 1.539 . S
C553 H567 0.958 . S
C553 H568 0.961 . S
C553 H569 0.960 . S
H554 C538 0.931 . S
H555 C543 0.929 . S
H556 C544 0.960 . S
H557 C544 0.962 . S
H558 C544 0.960 . S
H559 C545 0.961 . S
H560 C545 0.961 . S
H561 C545 0.961 . S
H562 C546 0.931 . S
H563 C551 0.930 . S
H564 C552 0.956 . S
H565 C552 0.961 . S
H566 C552 0.961 . S
H567 C553 0.958 . S
H568 C553 0.961 . S
H569 C553 0.960 . S
C570 C571 1.391 1_655 S
C570 C572 1.394 . S
C570 H586 0.931 . S
C571 C570 1.391 1_455 S
C571 C575 1.376 . S
C572 C570 1.394 . S
C572 C573 1.369 1_655 S
C572 C576 1.531 . S
C573 C572 1.369 1_455 S
C573 C574 1.410 . S
C573 C581 1.503 . S
C574 C573 1.410 . S
C574 C575 1.392 . S
C574 C577 1.511 . S
C575 C571 1.376 . S
C575 C574 1.392 . S
C575 H587 0.929 . S
C576 C572 1.531 . S
C576 H588 0.960 . S
C576 H589 0.962 . S
C576 H590 0.960 . S
C577 C574 1.511 . S
C577 H591 0.961 . S
C577 H592 0.961 . S
C577 H593 0.961 . S
C578 C579 1.370 1_655 S
C578 C580 1.363 . S
C578 H594 0.931 . S
C579 C578 1.370 1_455 S
C579 C583 1.408 . S
C580 C578 1.363 . S
C580 C581 1.370 1_656 S
C580 C584 1.524 1_556 S
C581 C573 1.503 . S
C581 C580 1.370 1_454 S
C581 C582 1.403 1_554 S
C582 C581 1.403 1_556 S
C582 C583 1.404 . S
C582 C585 1.539 . S
C583 C579 1.408 . S
C583 C582 1.404 . S
C583 H595 0.930 . S
C584 C580 1.524 1_554 S
C584 H596 0.956 . S
C584 H597 0.961 . S
C584 H598 0.961 . S
C585 C582 1.539 . S
C585 H599 0.958 . S
C585 H600 0.961 . S
C585 H601 0.960 1_556 S
H586 C570 0.931 . S
H587 C575 0.929 . S
H588 C576 0.960 . S
H589 C576 0.962 . S
H590 C576 0.960 . S
H591 C577 0.961 . S
H592 C577 0.961 . S
H593 C577 0.961 . S
H594 C578 0.931 . S
H595 C583 0.930 . S
H596 C584 0.956 . S
H597 C584 0.961 . S
H598 C584 0.961 . S
H599 C585 0.958 . S
H600 C585 0.961 . S
H601 C585 0.960 1_554 S
C602 C603 1.391 . S
C602 C604 1.394 . S
C602 H618 0.931 . S
C603 C602 1.391 . S
C603 C607 1.376 . S
C604 C602 1.394 . S
C604 C605 1.369 . S
C604 C608 1.531 . S
C605 C604 1.369 . S
C605 C606 1.410 . S
C605 C613 1.503 . S
C606 C605 1.410 . S
C606 C607 1.392 . S
C606 C609 1.511 . S
C607 C603 1.376 . S
C607 C606 1.392 . S
C607 H619 0.929 . S
C608 C604 1.531 . S
C608 H620 0.960 . S
C608 H621 0.962 . S
C608 H622 0.960 . S
C609 C606 1.511 . S
C609 H623 0.961 . S
C609 H624 0.961 . S
C609 H625 0.961 . S
C610 C611 1.370 . S
C610 C612 1.363 . S
C610 H626 0.931 . S
C611 C610 1.370 . S
C611 C615 1.408 . S
C612 C610 1.363 . S
C612 C613 1.370 . S
C612 C616 1.524 1_545 S
C613 C605 1.503 . S
C613 C612 1.370 . S
C613 C614 1.403 . S
C614 C613 1.403 . S
C614 C615 1.404 . S
C614 C617 1.539 . S
C615 C611 1.408 . S
C615 C614 1.404 . S
C615 H627 0.930 . S
C616 C612 1.524 1_565 S
C616 H628 0.956 . S
C616 H629 0.961 . S
C616 H630 0.961 . S
C617 C614 1.539 . S
C617 H631 0.958 . S
C617 H632 0.961 . S
C617 H633 0.960 . S
H618 C602 0.931 . S
H619 C607 0.929 . S
H620 C608 0.960 . S
H621 C608 0.962 . S
H622 C608 0.960 . S
H623 C609 0.961 . S
H624 C609 0.961 . S
H625 C609 0.961 . S
H626 C610 0.931 . S
H627 C615 0.930 . S
H628 C616 0.956 . S
H629 C616 0.961 . S
H630 C616 0.961 . S
H631 C617 0.958 . S
H632 C617 0.961 . S
H633 C617 0.960 . S
C634 C635 1.391 . S
C634 C636 1.394 . S
C634 H650 0.931 . S
C635 C634 1.391 . S
C635 C639 1.376 . S
C636 C634 1.394 . S
C636 C637 1.369 . S
C636 C640 1.531 . S
C637 C636 1.369 . S
C637 C638 1.410 . S
C637 C645 1.503 . S
C638 C637 1.410 . S
C638 C639 1.392 . S
C638 C641 1.511 . S
C639 C635 1.376 . S
C639 C638 1.392 . S
C639 H651 0.929 . S
C640 C636 1.531 . S
C640 H652 0.960 . S
C640 H653 0.962 . S
C640 H654 0.960 . S
C641 C638 1.511 . S
C641 H655 0.961 . S
C641 H656 0.961 . S
C641 H657 0.961 . S
C642 C643 1.370 . S
C642 C644 1.363 . S
C642 H658 0.931 . S
C643 C642 1.370 . S
C643 C647 1.408 . S
C644 C642 1.363 . S
C644 C645 1.370 . S
C644 C648 1.524 . S
C645 C637 1.503 . S
C645 C644 1.370 . S
C645 C646 1.403 . S
C646 C645 1.403 . S
C646 C647 1.404 . S
C646 C649 1.539 . S
C647 C643 1.408 . S
C647 C646 1.404 . S
C647 H659 0.930 . S
C648 C644 1.524 . S
C648 H660 0.956 . S
C648 H661 0.961 . S
C648 H662 0.961 . S
C649 C646 1.539 . S
C649 H663 0.958 . S
C649 H664 0.961 . S
C649 H665 0.960 . S
H650 C634 0.931 . S
H651 C639 0.929 . S
H652 C640 0.960 . S
H653 C640 0.962 . S
H654 C640 0.960 . S
H655 C641 0.961 . S
H656 C641 0.961 . S
H657 C641 0.961 . S
H658 C642 0.931 . S
H659 C647 0.930 . S
H660 C648 0.956 . S
H661 C648 0.961 . S
H662 C648 0.961 . S
H663 C649 0.958 . S
H664 C649 0.961 . S
H665 C649 0.960 . S
C666 C667 1.391 . S
C666 C668 1.394 . S
C666 H682 0.931 . S
C667 C666 1.391 . S
C667 C671 1.376 . S
C668 C666 1.394 . S
C668 C669 1.369 . S
C668 C672 1.531 . S
C669 C668 1.369 . S
C669 C670 1.410 . S
C669 C677 1.503 . S
C670 C669 1.410 . S
C670 C671 1.392 . S
C670 C673 1.511 1_545 S
C671 C667 1.376 . S
C671 C670 1.392 . S
C671 H683 0.929 . S
C672 C668 1.531 . S
C672 H684 0.960 . S
C672 H685 0.962 . S
C672 H686 0.960 . S
C673 C670 1.511 1_565 S
C673 H687 0.961 . S
C673 H688 0.961 . S
C673 H689 0.961 1_565 S
C674 C675 1.370 . S
C674 C676 1.363 . S
C674 H690 0.931 1_545 S
C675 C674 1.370 . S
C675 C679 1.408 . S
C676 C674 1.363 . S
C676 C677 1.370 . S
C676 C680 1.524 1_545 S
C677 C669 1.503 . S
C677 C676 1.370 . S
C677 C678 1.403 . S
C678 C677 1.403 . S
C678 C679 1.404 . S
C678 C681 1.539 . S
C679 C675 1.408 . S
C679 C678 1.404 . S
C679 H691 0.930 . S
C680 C676 1.524 1_565 S
C680 H692 0.951 1_565 S
C680 H693 0.961 . S
C680 H694 0.961 . S
C681 C678 1.539 . S
C681 H695 0.958 . S
C681 H696 0.961 . S
C681 H697 0.960 . S
H682 C666 0.931 . S
H683 C671 0.929 . S
H684 C672 0.960 . S
H685 C672 0.962 . S
H686 C672 0.960 . S
H687 C673 0.961 . S
H688 C673 0.961 . S
H689 C673 0.961 1_545 S
H690 C674 0.931 1_565 S
H691 C679 0.930 . S
H692 C680 0.951 1_545 S
H693 C680 0.961 . S
H694 C680 0.961 . S
H695 C681 0.958 . S
H696 C681 0.961 . S
H697 C681 0.960 . S
C698 C699 1.391 . S
C698 C700 1.394 . S
C698 H714 0.931 . S
C699 C698 1.391 . S
C699 C703 1.376 . S
C700 C698 1.394 . S
C700 C701 1.369 . S
C700 C704 1.531 . S
C701 C700 1.369 . S
C701 C702 1.410 . S
C701 C709 1.503 1_556 S
C702 C701 1.410 . S
C702 C703 1.392 . S
C702 C705 1.511 . S
C703 C699 1.376 . S
C703 C702 1.392 . S
C703 H715 0.929 . S
C704 C700 1.531 . S
C704 H716 0.960 . S
C704 H717 0.962 . S
C704 H718 0.960 . S
C705 C702 1.511 . S
C705 H719 0.961 . S
C705 H720 0.961 . S
C705 H721 0.961 . S
C706 C707 1.370 . S
C706 C708 1.363 . S
C706 H722 0.931 . S
C707 C706 1.370 . S
C707 C711 1.408 . S
C708 C706 1.363 . S
C708 C709 1.370 . S
C708 C712 1.524 1_554 S
C709 C701 1.503 1_554 S
C709 C708 1.370 . S
C709 C710 1.403 . S
C710 C709 1.403 . S
C710 C711 1.404 . S
C710 C713 1.539 . S
C711 C707 1.408 . S
C711 C710 1.404 . S
C711 H723 0.930 . S
C712 C708 1.524 1_556 S
C712 H724 0.956 . S
C712 H725 0.961 . S
C712 H726 0.946 1_556 S
C713 C710 1.539 . S
C713 H727 0.958 . S
C713 H728 0.961 . S
C713 H729 0.960 1_554 S
H714 C698 0.931 . S
H715 C703 0.929 . S
H716 C704 0.960 . S
H717 C704 0.962 . S
H718 C704 0.960 . S
H719 C705 0.961 . S
H720 C705 0.961 . S
H721 C705 0.961 . S
H722 C706 0.931 . S
H723 C711 0.930 . S
H724 C712 0.956 . S
H725 C712 0.961 . S
H726 C712 0.946 1_554 S
H727 C713 0.958 . S
H728 C713 0.961 . S
H729 C713 0.960 1_556 S
C730 C731 1.391 . S
C730 C732 1.394 . S
C730 H746 0.931 . S
C731 C730 1.391 . S
C731 C735 1.376 . S
C732 C730 1.394 . S
C732 C733 1.369 . S
C732 C736 1.531 . S
C733 C732 1.369 . S
C733 C734 1.410 . S
C733 C741 1.503 . S
C734 C733 1.410 . S
C734 C735 1.392 . S
C734 C737 1.497 1_455 S
C735 C731 1.376 . S
C735 C734 1.392 . S
C735 H747 0.929 . S
C736 C732 1.531 . S
C736 H748 0.960 . S
C736 H749 0.962 . S
C736 H750 0.960 . S
C737 C734 1.497 1_655 S
C737 H751 0.978 . S
C737 H752 0.963 . S
C737 H753 0.956 1_655 S
C738 C739 1.370 . S
C738 C740 1.363 . S
C738 H754 0.931 1_455 S
C739 C738 1.370 . S
C739 C743 1.408 . S
C740 C738 1.363 . S
C740 C741 1.370 . S
C740 C744 1.524 1_455 S
C741 C733 1.503 . S
C741 C740 1.370 . S
C741 C742 1.403 . S
C742 C741 1.403 . S
C742 C743 1.404 . S
C742 C745 1.539 . S
C743 C739 1.408 . S
C743 C742 1.404 . S
C743 H755 0.930 . S
C744 C740 1.524 1_655 S
C744 H756 0.956 . S
C744 H757 0.961 . S
C744 H758 0.961 . S
C745 C742 1.539 . S
C745 H759 0.958 . S
C745 H760 0.961 . S
C745 H761 0.960 . S
H746 C730 0.931 . S
H747 C735 0.929 . S
H748 C736 0.960 . S
H749 C736 0.962 . S
H750 C736 0.960 . S
H751 C737 0.978 . S
H752 C737 0.963 . S
H753 C737 0.956 1_455 S
H754 C738 0.931 1_655 S
H755 C743 0.930 . S
H756 C744 0.956 . S
H757 C744 0.961 . S
H758 C744 0.961 . S
H759 C745 0.958 . S
H760 C745 0.961 . S
H761 C745 0.960 . S
C187 C19 3.032 . S
C195 C185 3.001 . S
C219 C49 3.124 . S
C227 C163 3.071 . S
C251 C99 3.036 . S
C259 C174 2.994 . S
C283 C9 2.987 . S
C291 C179 2.944 . S
C323 C157 2.886 . S
C315 C59 2.905 . S
C355 C168 2.952 . S
C347 C89 2.995 . S
C379 C55 0.597 . S
C387 C141 0.522 . S
C411 C85 0.412 . S
C419 C146 0.193 . S
C443 C15 0.215 . S
C451 C124 0.273 . S
C483 C135 0.247 . S
C475 C45 0.269 . S
C515 C152 0.425 . S
C507 C95 0.427 . S
C539 C5 0.395 . S
C547 C130 0.346 . S
C579 C147 1.274 . S
C571 C18 1.236 . S
C603 C58 1.164 . S
C611 C125 1.214 . S
C635 C98 1.192 . S
C643 C136 1.237 . S
C675 C169 1.731 . S
C667 C48 1.663 . S
C707 C180 1.758 . S
C699 C88 1.696 . S
C731 C8 1.714 . S
C739 C158 1.805 . S
