# Generated by pormake.
# Topology pyr, (3,6)-cn, num edge types: 1
# Building blocks:
#     Node 0, Type 0, BuildingBlock: MIDCAF_clean_linker_0, # of connection points: 3
#     Node 1, Type 0, BuildingBlock: MIDCAF_clean_linker_0, # of connection points: 3
#     Node 2, Type 0, BuildingBlock: MIDCAF_clean_linker_0, # of connection points: 3
#     Node 3, Type 0, BuildingBlock: MIDCAF_clean_linker_0, # of connection points: 3
#     Node 4, Type 0, BuildingBlock: MIDCAF_clean_linker_0, # of connection points: 3
#     Node 5, Type 0, BuildingBlock: MIDCAF_clean_linker_0, # of connection points: 3
#     Node 6, Type 0, BuildingBlock: MIDCAF_clean_linker_0, # of connection points: 3
#     Node 7, Type 0, BuildingBlock: MIDCAF_clean_linker_0, # of connection points: 3
#     Node 8, Type 1, BuildingBlock: FUNLAD_clean_sbu_0, # of connection points: 6
#     Node 9, Type 1, BuildingBlock: FUNLAD_clean_sbu_0, # of connection points: 6
#     Node 10, Type 1, BuildingBlock: FUNLAD_clean_sbu_0, # of connection points: 6
#     Node 11, Type 1, BuildingBlock: FUNLAD_clean_sbu_0, # of connection points: 6
#     Edge 12, Type (0, 1), BuildingBlock: OJICUG_clean_linker_0, # of connection points: 2
#     Edge 13, Type (0, 1), BuildingBlock: OJICUG_clean_linker_0, # of connection points: 2
#     Edge 14, Type (0, 1), BuildingBlock: OJICUG_clean_linker_0, # of connection points: 2
#     Edge 15, Type (0, 1), BuildingBlock: OJICUG_clean_linker_0, # of connection points: 2
#     Edge 16, Type (0, 1), BuildingBlock: OJICUG_clean_linker_0, # of connection points: 2
#     Edge 17, Type (0, 1), BuildingBlock: OJICUG_clean_linker_0, # of connection points: 2
#     Edge 18, Type (0, 1), BuildingBlock: OJICUG_clean_linker_0, # of connection points: 2
#     Edge 19, Type (0, 1), BuildingBlock: OJICUG_clean_linker_0, # of connection points: 2
#     Edge 20, Type (0, 1), BuildingBlock: OJICUG_clean_linker_0, # of connection points: 2
#     Edge 21, Type (0, 1), BuildingBlock: OJICUG_clean_linker_0, # of connection points: 2
#     Edge 22, Type (0, 1), BuildingBlock: OJICUG_clean_linker_0, # of connection points: 2
#     Edge 23, Type (0, 1), BuildingBlock: OJICUG_clean_linker_0, # of connection points: 2
#     Edge 24, Type (0, 1), BuildingBlock: OJICUG_clean_linker_0, # of connection points: 2
#     Edge 25, Type (0, 1), BuildingBlock: OJICUG_clean_linker_0, # of connection points: 2
#     Edge 26, Type (0, 1), BuildingBlock: OJICUG_clean_linker_0, # of connection points: 2
#     Edge 27, Type (0, 1), BuildingBlock: OJICUG_clean_linker_0, # of connection points: 2
#     Edge 28, Type (0, 1), BuildingBlock: OJICUG_clean_linker_0, # of connection points: 2
#     Edge 29, Type (0, 1), BuildingBlock: OJICUG_clean_linker_0, # of connection points: 2
#     Edge 30, Type (0, 1), BuildingBlock: OJICUG_clean_linker_0, # of connection points: 2
#     Edge 31, Type (0, 1), BuildingBlock: OJICUG_clean_linker_0, # of connection points: 2
#     Edge 32, Type (0, 1), BuildingBlock: OJICUG_clean_linker_0, # of connection points: 2
#     Edge 33, Type (0, 1), BuildingBlock: OJICUG_clean_linker_0, # of connection points: 2
#     Edge 34, Type (0, 1), BuildingBlock: OJICUG_clean_linker_0, # of connection points: 2
#     Edge 35, Type (0, 1), BuildingBlock: OJICUG_clean_linker_0, # of connection points: 2
# Relax obj value: 0.088
# Max RMSD: 0.074
# Mean RMSD: 0.034
data_MOF--net-pry--node1-FUNLAD_clean_sbu_0--node2-MIDCAF_clean_linker_0--edge1-OJICUG_clean_linker_0
_symmetry_space_group_name_H-M    P1
_symmetry_Int_Tables_number       1
_symmetry_cell_setting            triclinic
loop_
_symmetry_equiv_pos_as_xyz
'x, y, z'
_cell_length_a     33.999128
_cell_length_b     36.346917
_cell_length_c     36.43483
_cell_angle_alpha  90.003666
_cell_angle_beta   90.128532
_cell_angle_gamma 83.496185
loop_
_atom_site_label
_atom_site_type_symbol
_atom_site_fract_x
_atom_site_fract_y
_atom_site_fract_z
_atom_type_partial_charge
C0 C 0.0717 0.14066 0.30783 0.0
C1 C 0.08784 0.10485 0.31886 0.0
C2 C 0.11723 0.08593 0.29659 0.0
C3 C 0.13042 0.10231 0.26469 0.0
H4 H 0.23146 0.09621 0.19741 0.0
H5 H 0.29237 0.06951 0.16747 0.0
H6 H 0.26486 0.14094 0.07392 0.0
H7 H 0.20507 0.16818 0.10405 0.0
H8 H 0.14809 0.23444 0.11079 0.0
H9 H 0.12111 0.29159 0.08226 0.0
H10 H 0.03347 0.30906 0.16795 0.0
H11 H 0.06147 0.25121 0.1976 0.0
H12 H 0.07161 0.18456 0.26822 0.0
H13 H 0.04872 0.15605 0.32398 0.0
H14 H 0.13079 0.05859 0.30421 0.0
H15 H 0.15335 0.08665 0.2487 0.0
N16 N 0.16262 0.13829 0.20285 0.0
N17 N 0.15845 0.18455 0.15806 0.0
N18 N 0.11134 0.18775 0.20528 0.0
C19 C 0.17717 0.15271 0.17196 0.0
C20 C 0.12575 0.20247 0.17413 0.0
C21 C 0.12969 0.15536 0.21976 0.0
C22 C 0.21334 0.13461 0.15339 0.0
C23 C 0.23837 0.10611 0.17041 0.0
C24 C 0.27327 0.09067 0.15311 0.0
C25 C 0.2839 0.1032 0.11828 0.0
C26 C 0.2583 0.13108 0.10103 0.0
C27 C 0.2237 0.14662 0.11834 0.0
C28 C 0.10714 0.23774 0.15684 0.0
C29 C 0.12297 0.2501 0.12387 0.0
C30 C 0.10716 0.28306 0.10706 0.0
C31 C 0.07474 0.30515 0.12237 0.0
C32 C 0.05862 0.29298 0.15536 0.0
C33 C 0.07455 0.25965 0.17233 0.0
C34 C 0.11451 0.13817 0.25367 0.0
C35 C 0.08469 0.15701 0.27564 0.0
C36 C 0.24254 0.94754 0.65267 0.0
C37 C 0.23166 0.93532 0.61776 0.0
C38 C 0.25715 0.90765 0.60019 0.0
C39 C 0.29191 0.892 0.61729 0.0
H40 H 0.36795 0.80453 0.60887 0.0
H41 H 0.39472 0.74754 0.58004 0.0
H42 H 0.48246 0.72923 0.66593 0.0
H43 H 0.45464 0.78689 0.69591 0.0
H44 H 0.44437 0.85315 0.76744 0.0
H45 H 0.46699 0.88152 0.82352 0.0
H46 H 0.38508 0.97907 0.80329 0.0
H47 H 0.36283 0.95119 0.74752 0.0
H48 H 0.28468 0.94165 0.69683 0.0
H49 H 0.22351 0.96853 0.66725 0.0
H50 H 0.25037 0.89804 0.57302 0.0
H51 H 0.31046 0.87059 0.60279 0.0
N52 N 0.35753 0.85382 0.65666 0.0
N53 N 0.40484 0.85034 0.70394 0.0
N54 N 0.35342 0.89968 0.7018 0.0
C55 C 0.39034 0.83585 0.67263 0.0
C56 C 0.38645 0.88257 0.71863 0.0
C57 C 0.3388 0.8855 0.6708 0.0
C58 C 0.40894 0.80076 0.65508 0.0
C59 C 0.39305 0.78872 0.62194 0.0
C60 C 0.40874 0.75585 0.60494 0.0
C61 C 0.4411 0.73357 0.62023 0.0
C62 C 0.45733 0.74546 0.65335 0.0
C63 C 0.44151 0.77868 0.67052 0.0
C64 C 0.4016 0.89962 0.75267 0.0
C65 C 0.43129 0.88069 0.77483 0.0
C66 C 0.44412 0.89695 0.80719 0.0
C67 C 0.42793 0.93275 0.81816 0.0
C68 C 0.39868 0.95175 0.79571 0.0
C69 C 0.38566 0.93546 0.76366 0.0
C70 C 0.3025 0.90369 0.65243 0.0
C71 C 0.27758 0.932 0.66975 0.0
C72 C 0.59565 0.33294 0.02436 0.0
C73 C 0.55779 0.32474 1.01379 0.0
C74 C 0.52879 0.35391 1.00467 0.0
C75 C 0.53864 0.39006 1.00235 0.0
H76 H 0.5208 0.45259 0.91438 0.0
H77 H 0.50438 0.45719 0.84961 0.0
H78 H 0.59305 0.53196 0.83403 0.0
H79 H 0.61054 0.52657 0.89873 0.0
H80 H 0.6854 0.51462 0.94576 0.0
H81 H 0.75459 0.52374 0.95376 0.0
H82 H 0.76094 0.45507 0.0507 0.0
H83 H 0.69137 0.44567 0.04288 0.0
H84 H 0.63575 0.37411 0.02779 0.0
H85 H 0.61832 0.31102 0.03233 0.0
H86 H 0.49932 0.34849 0.99655 0.0
H87 H 0.51637 0.41155 0.99263 0.0
N88 N 0.57073 0.44951 0.96658 0.0
N89 N 0.62115 0.48711 0.95754 0.0
N90 N 0.62669 0.4428 1.00466 0.0
C91 C 0.58553 0.47679 0.94756 0.0
C92 C 0.64176 0.47065 0.98629 0.0
C93 C 0.59082 0.43244 0.99515 0.0
C94 C 0.56788 0.48834 0.91162 0.0
C95 C 0.53629 0.47073 0.89744 0.0
C96 C 0.5267 0.47341 0.86021 0.0
C97 C 0.54824 0.49404 0.83655 0.0
C98 C 0.57681 0.51488 0.85147 0.0
C99 C 0.58658 0.51205 0.88865 0.0
C100 C 0.6827 0.47919 0.99359 0.0
C101 C 0.70124 0.50165 0.96904 0.0
C102 C 0.74105 0.5067 0.9734 0.0
C103 C 0.7632 0.4898 1.00259 0.0
C104 C 0.74447 0.46848 0.02797 0.0
C105 C 0.70465 0.46307 0.02342 0.0
C106 C 0.57766 0.39769 1.00911 0.0
C107 C 0.60549 0.36917 0.02219 0.0
C108 C 0.77032 0.57124 0.52894 0.0
C109 C 0.75165 0.54984 0.5035 0.0
C110 C 0.77379 0.5331 0.47433 0.0
C111 C 0.8135 0.53839 0.47002 0.0
H112 H 0.90325 0.51469 0.39899 0.0
H113 H 0.92021 0.50987 0.33421 0.0
H114 H 0.00846 0.5851 0.35006 0.0
H115 H 0.99254 0.58916 0.41491 0.0
H116 H 1.00039 0.62413 0.49793 0.0
H117 H 0.02073 0.68583 0.50517 0.0
H118 H 0.90145 0.72754 0.53641 0.0
H119 H 0.88123 0.66573 0.52973 0.0
H120 H 0.82334 0.59433 0.54394 0.0
H121 H 0.75385 0.58452 0.55168 0.0
H122 H 0.76031 0.51598 0.45465 0.0
H123 H 0.82931 0.52548 0.44675 0.0
N124 N 0.89298 0.55372 0.45808 0.0
N125 N 0.94417 0.59023 0.46811 0.0
N126 N 0.88865 0.5965 0.50656 0.0
C127 C 0.92866 0.56388 0.44829 0.0
C128 C 0.92468 0.60658 0.49728 0.0
C129 C 0.87292 0.56949 0.48737 0.0
C130 C 0.94578 0.55306 0.41203 0.0
C131 C 0.92697 0.52948 0.38893 0.0
C132 C 0.93644 0.52697 0.35171 0.0
C133 C 0.96479 0.54803 0.33688 0.0
C134 C 0.98631 0.5687 0.36061 0.0
C135 C 0.97703 0.57106 0.39787 0.0
C136 C 0.93903 0.64023 0.51261 0.0
C137 C 0.97877 0.64627 0.5074 0.0
C138 C 0.99037 0.68165 0.51124 0.0
C139 C 0.96248 0.71169 0.52038 0.0
C140 C 0.92367 0.70495 0.52928 0.0
C141 C 0.91206 0.66945 0.52555 0.0
C142 C 0.832 0.56092 0.49461 0.0
C143 C 0.81008 0.57689 0.52445 0.0
C144 C 0.74185 0.94732 0.89347 0.0
C145 C 0.73117 0.93488 0.92832 0.0
C146 C 0.75679 0.90712 0.94572 0.0
C147 C 0.79149 0.89163 0.92855 0.0
H148 H 0.86755 0.80425 0.9367 0.0
H149 H 0.89461 0.74728 0.9655 0.0
H150 H 0.98234 0.72952 0.87991 0.0
H151 H 0.95425 0.78719 0.84997 0.0
H152 H 0.9438 0.85361 0.77883 0.0
H153 H 0.96652 0.88206 0.72296 0.0
H154 H 0.8844 0.97949 0.74275 0.0
H155 H 0.86202 0.95148 0.79834 0.0
H156 H 0.7838 0.94175 0.84929 0.0
H157 H 0.72273 0.96838 0.87901 0.0
H158 H 0.75018 0.89735 0.97284 0.0
H159 H 0.81014 0.87016 0.94295 0.0
N160 N 0.85701 0.85378 0.88912 0.0
N161 N 0.90422 0.85056 0.84197 0.0
N162 N 0.85273 0.89985 0.84414 0.0
C163 C 0.88981 0.83591 0.87317 0.0
C164 C 0.88575 0.88283 0.82734 0.0
C165 C 0.83819 0.8855 0.87505 0.0
C166 C 0.90852 0.80078 0.89065 0.0
C167 C 0.89271 0.78856 0.92369 0.0
C168 C 0.90856 0.75571 0.94067 0.0
C169 C 0.94102 0.73359 0.92547 0.0
C170 C 0.95715 0.74563 0.89243 0.0
C171 C 0.94117 0.77885 0.87528 0.0
C172 C 0.90089 0.89998 0.79339 0.0
C173 C 0.93068 0.88114 0.77139 0.0
C174 C 0.94357 0.89745 0.73914 0.0
C175 C 0.92737 0.93324 0.72809 0.0
C176 C 0.89801 0.95217 0.75038 0.0
C177 C 0.88492 0.93582 0.78234 0.0
C178 C 0.80191 0.90355 0.89348 0.0
C179 C 0.77685 0.93192 0.87631 0.0
C180 C 0.61619 0.08603 0.25051 0.0
C181 C 0.58692 0.10502 0.22807 0.0
C182 C 0.5707 0.1408 0.23906 0.0
C183 C 0.58352 0.15704 0.27143 0.0
H184 H 0.56009 0.25086 0.35016 0.0
H185 H 0.53219 0.30854 0.38004 0.0
H186 H 0.61975 0.29035 0.4661 0.0
H187 H 0.64661 0.23334 0.43736 0.0
H188 H 0.70415 0.16733 0.44355 0.0
H189 H 0.76422 0.13996 0.47341 0.0
H190 H 0.79129 0.06938 0.37929 0.0
H191 H 0.73014 0.09618 0.34961 0.0
H192 H 0.65204 0.08659 0.2987 0.0
H193 H 0.62981 0.05872 0.24292 0.0
H194 H 0.54782 0.15622 0.22275 0.0
H195 H 0.57041 0.18458 0.27884 0.0
N196 N 0.60992 0.18743 0.34228 0.0
N197 N 0.65716 0.184 0.38962 0.0
N198 N 0.66136 0.1381 0.34451 0.0
C199 C 0.62436 0.20195 0.37359 0.0
C200 C 0.67593 0.15233 0.37551 0.0
C201 C 0.62834 0.15519 0.32763 0.0
C202 C 0.60572 0.23705 0.39108 0.0
C203 C 0.57316 0.2591 0.37557 0.0
C204 C 0.55729 0.29233 0.39268 0.0
C205 C 0.57345 0.30426 0.42582 0.0
C206 C 0.60579 0.28201 0.44118 0.0
C207 C 0.62153 0.24913 0.42424 0.0
C208 C 0.71221 0.13418 0.39395 0.0
C209 C 0.72274 0.14592 0.42909 0.0
C210 C 0.75749 0.13032 0.44624 0.0
C211 C 0.78303 0.10265 0.42873 0.0
C212 C 0.77222 0.09037 0.39383 0.0
C213 C 0.73719 0.10587 0.37668 0.0
C214 C 0.61323 0.13814 0.29358 0.0
C215 C 0.62919 0.10231 0.28258 0.0
C216 C 0.27422 0.53415 0.0761 0.0
C217 C 0.25219 0.5502 0.04642 0.0
C218 C 0.27099 0.57096 0.02059 0.0
C219 C 0.31077 0.57652 0.02504 0.0
H220 H 0.38133 0.66545 0.01923 0.0
H221 H 0.40116 0.72737 1.01238 0.0
H222 H 0.5209 0.6862 0.04309 0.0
H223 H 0.50101 0.62437 0.05046 0.0
H224 H 0.498 0.58499 0.12989 0.0
H225 H 0.51929 0.57754 0.19347 0.0
H226 H 0.42819 0.50632 0.21313 0.0
H227 H 0.40652 0.51367 0.14956 0.0
H228 H 0.32978 0.52699 0.10398 0.0
H229 H 0.26063 0.51757 0.09613 0.0
H230 H 0.25462 0.58374 0.99748 0.0
H231 H 0.32414 0.59337 1.00512 0.0
N232 N 0.38904 0.59662 0.04281 0.0
N233 N 0.44589 0.58929 0.07969 0.0
N234 N 0.39474 0.55293 0.09054 0.0
C235 C 0.42543 0.60635 0.05134 0.0
C236 C 0.43092 0.56265 0.0995 0.0
C237 C 0.37377 0.56939 0.06198 0.0
C238 C 0.43941 0.64019 0.03611 0.0
C239 C 0.41217 0.66931 0.02329 0.0
C240 C 0.42355 0.70487 0.01945 0.0
C241 C 0.46239 0.71179 0.02814 0.0
C242 C 0.49052 0.68187 0.03719 0.0
C243 C 0.47916 0.64641 0.04112 0.0
C244 C 0.44989 0.55057 0.13474 0.0
C245 C 0.48294 0.56703 0.14742 0.0
C246 C 0.49512 0.56298 0.18391 0.0
C247 C 0.47491 0.54196 0.20826 0.0
C248 C 0.44427 0.52273 0.19486 0.0
C249 C 0.43182 0.52703 0.15842 0.0
C250 C 0.33264 0.56112 0.05524 0.0
C251 C 0.314 0.53937 0.08038 0.0
C252 C 0.09046 0.33343 0.51832 0.0
C253 C 0.05175 0.32661 0.5275 0.0
C254 C 0.02395 0.35659 0.53705 0.0
C255 C 0.03559 0.39195 0.541 0.0
H256 H 0.02257 0.44897 0.63362 0.0
H257 H 0.00694 0.45321 0.69852 0.0
H258 H 0.09532 0.52842 0.71378 0.0
H259 H 0.112 0.52341 0.64895 0.0
H260 H 0.18542 0.51297 0.60039 0.0
H261 H 0.25436 0.52243 0.59201 0.0
H262 H 0.26014 0.45359 0.49521 0.0
H263 H 0.19071 0.44381 0.50343 0.0
H264 H 0.13288 0.37267 0.51771 0.0
H265 H 0.11262 0.31089 0.51088 0.0
H266 H 0.99366 0.35236 0.54334 0.0
H267 H 0.01405 0.41401 0.55076 0.0
N268 N 0.07052 0.44792 0.58011 0.0
N269 N 0.12177 0.48445 0.58974 0.0
N270 N 0.12567 0.44177 0.54119 0.0
C271 C 0.0862 0.47425 0.59982 0.0
C272 C 0.14156 0.46876 0.56028 0.0
C273 C 0.08975 0.43164 0.55076 0.0
C274 C 0.06936 0.48506 0.63619 0.0
C275 C 0.03818 0.4671 0.65054 0.0
C276 C 0.02906 0.46957 0.68783 0.0
C277 C 0.05068 0.49031 0.71141 0.0
C278 C 0.07901 0.51128 0.6964 0.0
C279 C 0.08831 0.50866 0.65915 0.0
C280 C 0.1824 0.47736 0.5527 0.0
C281 C 0.20106 0.49998 0.57707 0.0
C282 C 0.24074 0.50527 0.57248 0.0
C283 C 0.26269 0.48841 0.54324 0.0
C284 C 0.24383 0.46695 0.518 0.0
C285 C 0.2041 0.46132 0.52277 0.0
C286 C 0.07526 0.39803 0.53546 0.0
C287 C 0.1021 0.36891 0.52214 0.0
C288 C 0.03773 0.03895 0.4555 0.0
N289 N 0.01719 0.09892 0.55207 0.0
C290 C 0.05325 0.10968 0.54402 0.0
C291 C 0.05855 0.14701 0.54293 0.0
C292 C 0.02639 0.17374 0.54982 0.0
C293 C 0.99025 0.16199 0.56088 0.0
C294 C 0.98623 0.12409 0.56176 0.0
Zn295 Zn 0.00925 0.0463 0.53651 0.0
C296 C 0.9323 0.0446 0.49689 0.0
N297 N 0.9974 0.93918 0.49471 0.0
C298 C 0.02837 0.91392 0.48521 0.0
C299 C 0.96127 0.9285 0.50264 0.0
C300 C 0.95591 0.89119 0.50386 0.0
C301 C 0.98807 0.86439 0.49723 0.0
C302 C 0.02429 0.87604 0.48624 0.0
Zn303 Zn 1.00538 0.9918 0.51023 0.0
O304 O 0.03272 0.05949 0.48377 0.0
C305 C 0.08233 0.99351 0.54983 0.0
O306 O 0.02934 1.00568 0.45765 0.0
H307 H 0.93719 0.94871 0.51095 0.0
H308 H 0.07732 0.08952 0.53557 0.0
H309 H 0.05696 0.92291 0.4794 0.0
O310 O 0.067 0.02634 0.55648 0.0
O311 O 0.06314 0.97269 0.53027 0.0
H312 H 0.95769 0.11503 0.56765 0.0
O313 O 0.98191 0.97861 0.56297 0.0
O314 O 0.98533 0.03241 0.58909 0.0
O315 O 0.94766 1.01178 0.49023 0.0
O316 O 0.95146 0.06542 0.51647 0.0
C317 C 0.97695 0.99915 0.59125 0.0
H318 H 0.08714 0.1549 0.53506 0.0
H319 H 0.96473 0.18181 0.56648 0.0
H320 H 0.92726 0.88338 0.51165 0.0
H321 H 0.04982 0.85616 0.48084 0.0
C322 C 0.58231 0.9929 0.99683 0.0
N323 N 0.51778 0.09841 0.9936 0.0
C324 C 0.55422 0.10868 1.00105 0.0
C325 C 0.56078 0.14567 0.99949 0.0
C326 C 0.52949 0.17268 0.99051 0.0
C327 C 0.49259 0.16131 0.98113 0.0
C328 C 0.48736 0.12369 0.98277 0.0
Zn329 Zn 0.5093 0.0462 1.00991 0.0
C330 C 0.47693 0.99875 0.95528 0.0
N331 N 0.49726 0.9394 0.05224 0.0
C332 C 0.52816 0.91418 0.06209 0.0
C333 C 0.46108 0.92876 0.04433 0.0
C334 C 0.4556 0.89146 0.04348 0.0
C335 C 0.48771 0.86466 0.05043 0.0
C336 C 0.52398 0.87632 0.06141 0.0
Zn337 Zn 0.50549 0.99177 0.03624 0.0
O338 O 0.56693 0.02571 0.99011 0.0
C339 C 0.53788 0.03919 0.09087 0.0
O340 O 0.56323 0.97215 1.01648 0.0
H341 H 0.43704 0.94894 0.03576 0.0
H342 H 0.57773 0.08856 1.0108 0.0
H343 H 0.55678 0.92316 0.0679 0.0
O344 O 0.53293 0.05971 0.06257 0.0
O345 O 0.52948 1.00593 0.08873 0.0
H346 H 0.4585 0.11502 0.97741 0.0
O347 O 0.44781 1.01222 0.05593 0.0
O348 O 0.45161 0.06589 0.02973 0.0
O349 O 0.48195 0.97824 0.98358 0.0
O350 O 0.48523 0.03203 0.95743 0.0
C351 C 0.43249 0.04508 0.04931 0.0
H352 H 0.58948 0.1532 1.00758 0.0
H353 H 0.46779 0.18135 0.97378 0.0
H354 H 0.42691 0.88365 0.0357 0.0
H355 H 0.54947 0.85645 0.06706 0.0
C356 C 0.52496 0.44655 0.4966 0.0
N357 N 0.52431 0.49236 0.60394 0.0
C358 C 0.50527 0.46675 0.62194 0.0
C359 C 0.50959 0.46253 0.65998 0.0
C360 C 0.5341 0.48457 0.67918 0.0
C361 C 0.55423 0.50979 0.65967 0.0
C362 C 0.54866 0.51346 0.62207 0.0
Zn363 Zn 0.51284 0.50687 0.55066 0.0
C364 C 0.58578 0.52999 0.51495 0.0
N365 N 0.49056 0.54523 0.44181 0.0
C366 C 0.46664 0.52395 0.42336 0.0
C367 C 0.51106 0.56974 0.42381 0.0
C368 C 0.5096 0.57188 0.38546 0.0
C369 C 0.48682 0.54857 0.3658 0.0
C370 C 0.46404 0.52546 0.38537 0.0
Zn371 Zn 0.50151 0.53095 0.49526 0.0
O372 O 0.52648 0.45077 0.53129 0.0
C373 C 0.42861 0.50781 0.53105 0.0
O374 O 0.51551 0.4749 0.47665 0.0
H375 H 0.53021 0.58614 0.43894 0.0
H376 H 0.48567 0.45059 0.60706 0.0
H377 H 0.45122 0.50398 0.43782 0.0
O378 O 0.45262 0.49834 0.55702 0.0
O379 O 0.44129 0.52226 0.50232 0.0
H380 H 0.56252 0.53456 0.60774 0.0
O381 O 0.48781 0.58706 0.51462 0.0
O382 O 0.4989 0.56294 0.56928 0.0
O383 O 0.5618 0.53953 0.489 0.0
O384 O 0.57306 0.51546 0.54359 0.0
C385 C 0.4894 0.59128 0.54933 0.0
H386 H 0.49362 0.44275 0.67428 0.0
H387 H 0.57275 0.5278 0.67359 0.0
H388 H 0.52762 0.59014 0.37138 0.0
H389 H 0.44532 0.50769 0.37139 0.0
C390 C 0.99018 0.59155 0.99677 0.0
N391 N 0.98974 0.54703 0.10459 0.0
C392 C 0.00845 0.57306 0.12236 0.0
C393 C 1.00374 0.57795 0.16027 0.0
C394 C 0.97917 0.55614 0.17956 0.0
C395 C 0.95927 0.53054 0.16024 0.0
C396 C 0.96524 0.5262 0.12277 0.0
Zn397 Zn 1.00206 0.53165 0.05177 0.0
C398 C 0.9294 0.50824 1.01509 0.0
N399 N 0.02595 0.49194 0.94379 0.0
C400 C 0.05048 0.51272 0.92558 0.0
C401 C 0.00719 0.46592 0.92604 0.0
C402 C 0.01189 0.461 0.88814 0.0
C403 C 0.03648 0.48276 0.86882 0.0
C404 C 0.05642 0.50835 0.88811 0.0
Zn405 Zn 0.01363 0.50734 0.9966 0.0
O406 O 0.98849 0.58749 0.03148 0.0
C407 C 0.08626 0.53078 0.03336 0.0
O408 O 0.99981 0.56313 0.97701 0.0
H409 H 0.98749 0.44999 0.94098 0.0
H410 H 0.02814 0.58903 0.10744 0.0
H411 H 0.06416 0.5341 0.93973 0.0
O412 O 0.0621 0.54045 0.05904 0.0
O413 O 0.07373 0.51619 1.0046 0.0
H414 H 0.9516 0.50481 0.10861 0.0
O415 O 0.02715 0.45153 1.01685 0.0
O416 O 0.01594 0.47582 0.07136 0.0
O417 O 0.95349 0.49859 0.98933 0.0
O418 O 0.94202 0.52278 0.04383 0.0
C419 C 0.02553 0.44742 0.05156 0.0
H420 H 0.01952 0.59802 0.17441 0.0
H421 H 0.9407 0.51271 0.17427 0.0
H422 H 0.99608 0.44093 0.87402 0.0
H423 H 0.07502 0.52615 0.87406 0.0
C424 C 0.0678 0.10897 0.38573 0.0
C425 C 0.07487 0.08759 0.35373 0.0
H426 H 0.0513 0.11057 0.44241 0.0
C427 C 0.07015 0.04954 0.35568 0.0
H428 H 0.07164 0.13814 0.38566 0.0
C429 C 0.05842 0.0335 0.38852 0.0
C430 C 0.05139 0.05499 0.42047 0.0
H431 H 0.07498 0.03215 0.33162 0.0
H432 H 0.05472 1.0043 0.38882 0.0
C433 C 0.0564 0.09294 0.41852 0.0
C434 C 0.44747 0.92862 0.88524 0.0
C435 C 0.44069 0.94997 0.85317 0.0
H436 H 0.46344 0.92709 0.94212 0.0
C437 C 0.44538 0.98803 0.85517 0.0
H438 H 0.44364 0.89945 0.88511 0.0
C439 C 0.45677 1.0041 0.88814 0.0
C440 C 0.4635 0.98264 0.92016 0.0
H441 H 0.44077 1.00539 0.83105 0.0
H442 H 0.46047 0.0333 0.88847 0.0
C443 C 0.45854 0.94468 0.91816 0.0
C444 C 0.50669 0.48989 0.77973 0.0
C445 C 0.54401 0.49073 0.79624 0.0
H446 H 0.47431 0.48694 0.72941 0.0
C447 C 0.578 0.48669 0.77407 0.0
H448 H 0.47999 0.49289 0.79612 0.0
C449 C 0.57475 0.48315 0.73619 0.0
C450 C 0.53746 0.4834 0.71958 0.0
H451 H 0.60728 0.48604 0.78602 0.0
H452 H 0.60144 0.48063 0.71976 0.0
C453 C 0.50345 0.48621 0.74167 0.0
C454 C 0.93505 0.55501 0.27424 0.0
C455 C 0.96901 0.55126 0.29659 0.0
H456 H 0.9117 0.56044 0.21975 0.0
C457 C 0.00634 0.55207 0.28026 0.0
H458 H 0.90577 0.55566 0.28605 0.0
C459 C 0.00963 0.55539 0.24218 0.0
C460 C 0.97567 0.55785 0.21991 0.0
H461 H 0.03302 0.54927 0.29679 0.0
H462 H 0.03879 0.5546 0.23007 0.0
C463 C 0.93836 0.55818 0.23634 0.0
C464 C 0.33604 0.05015 0.10295 0.0
C465 C 0.32172 0.08793 0.10012 0.0
H466 H 0.38184 1.00695 0.089 0.0
C467 C 0.34392 0.1112 0.0797 0.0
H468 H 0.3196 0.03125 0.11796 0.0
C469 C 0.37935 0.09717 0.06269 0.0
C470 C 0.39379 0.0595 0.06579 0.0
H471 H 0.33435 0.14054 0.07736 0.0
H472 H 0.39576 0.11606 0.04759 0.0
C473 C 0.37164 0.03614 0.08606 0.0
C474 C 0.17128 0.92743 0.57951 0.0
C475 C 0.19365 0.95063 0.59989 0.0
H476 H 0.11911 0.92263 0.54767 0.0
C477 C 0.17929 0.98838 0.60299 0.0
H478 H 0.18089 0.8981 0.57699 0.0
C479 C 0.14348 1.00242 0.58637 0.0
C480 C 0.12117 0.97911 0.56612 0.0
H481 H 0.19588 1.00722 0.618 0.0
H482 H 0.13325 0.03157 0.58949 0.0
C483 C 0.13564 0.94148 0.56277 0.0
C484 C 0.83077 0.48924 0.97513 0.0
C485 C 0.80593 0.4939 1.00598 0.0
H486 H 0.88937 0.48974 0.95384 0.0
C487 C 0.82211 0.50274 0.0399 0.0
H488 H 0.81912 0.48201 0.94872 0.0
C489 C 0.86223 0.50738 0.0428 0.0
C490 C 0.88708 0.50285 1.01192 0.0
H491 H 0.80359 0.50669 0.06405 0.0
H492 H 0.87376 0.51449 0.06929 0.0
C493 C 0.87099 0.49346 0.9781 0.0
C494 C 0.69288 0.53634 0.54051 0.0
C495 C 0.70899 0.54549 0.50673 0.0
H496 H 0.64134 0.52393 0.56953 0.0
C497 C 0.68417 0.55005 0.47575 0.0
H498 H 0.71139 0.53246 0.56475 0.0
C499 C 0.64406 0.54539 0.47845 0.0
C500 C 0.62804 0.53567 0.51212 0.0
H501 H 0.69576 0.55751 0.44944 0.0
H502 H 0.62571 0.54906 0.45409 0.0
C503 C 0.65284 0.53126 0.54314 0.0
C504 C 0.04689 0.37283 0.12504 0.0
C505 C 0.05908 0.34102 0.10416 0.0
H506 H 0.02696 0.43092 0.12507 0.0
C507 C 0.05826 0.34432 0.06554 0.0
H508 H 0.04742 0.3717 0.15473 0.0
C509 C 0.04684 0.3785 0.04842 0.0
C510 C 0.03573 0.41046 0.06936 0.0
H511 H 0.06668 0.32042 0.04837 0.0
H512 H 0.04719 0.37993 0.01873 0.0
C513 C 0.0354 0.40699 0.10791 0.0
C514 C 0.51399 0.27366 0.01873 0.0
C515 C 0.55001 0.28587 1.00802 0.0
H516 H 0.47921 0.22814 0.02156 0.0
C517 C 0.57806 0.26123 0.98956 0.0
H518 H 0.4918 0.29211 0.03292 0.0
C519 C 0.57067 0.22494 0.98261 0.0
C520 C 0.53511 0.21236 0.99408 0.0
H521 H 0.60561 0.27013 0.98 0.0
H522 H 0.59296 0.20661 0.9684 0.0
C523 C 0.50663 0.23719 1.01189 0.0
C524 C 0.95797 0.77767 0.54163 0.0
C525 C 0.97244 0.75019 0.51651 0.0
H526 H 0.95219 0.83515 0.55548 0.0
C527 C 0.99398 0.76028 0.48583 0.0
H528 H 0.94176 0.7707 0.56574 0.0
C529 C 0.99984 0.79723 0.47984 0.0
C530 C 0.98411 0.82483 0.50429 0.0
H531 H 1.00499 0.73983 0.46562 0.0
H532 H 0.01548 0.80434 0.45544 0.0
C533 C 0.9638 0.81456 0.53562 0.0
C534 C 0.4686 0.66583 0.62278 0.0
C535 C 0.45651 0.69771 0.60194 0.0
H536 H 0.48825 0.60772 0.62278 0.0
C537 C 0.45714 0.69447 0.56331 0.0
H538 H 0.46819 0.6669 0.65248 0.0
C539 C 0.46832 0.66027 0.54615 0.0
C540 C 0.47936 0.62826 0.56707 0.0
H541 H 0.44877 0.71842 0.54617 0.0
H542 H 0.46786 0.65887 0.51646 0.0
C543 C 0.47985 0.63168 0.60563 0.0
C544 C 0.94721 0.9291 0.66116 0.0
C545 C 0.94022 0.95048 0.69316 0.0
H546 H 0.9635 0.9275 0.60442 0.0
C547 C 0.94488 0.98855 0.69116 0.0
H548 H 0.94341 0.89992 0.66126 0.0
C549 C 0.95647 1.00458 0.65827 0.0
C550 C 0.9634 0.98309 0.62632 0.0
H551 H 0.94012 1.00594 0.71523 0.0
H552 H 0.96013 0.0338 0.65795 0.0
C553 C 0.95845 0.94513 0.62832 0.0
C554 C 0.56739 0.10922 0.161 0.0
C555 C 0.57418 0.08782 0.19304 0.0
H556 H 0.55139 0.11082 0.10412 0.0
C557 C 0.56949 0.04977 0.191 0.0
H558 H 0.57123 0.13839 0.16116 0.0
C559 C 0.55807 0.03375 0.15801 0.0
C560 C 0.55133 0.05525 0.12601 0.0
H561 H 0.5741 0.03238 0.2151 0.0
H562 H 0.55437 1.00455 0.15764 0.0
C563 C 0.55631 0.0932 0.12806 0.0
C564 C 0.48446 0.57733 0.2658 0.0
C565 C 0.48277 0.54315 0.24811 0.0
H566 H 0.48644 0.606 0.31701 0.0
C567 C 0.48524 0.51068 0.26913 0.0
H568 H 0.48213 0.60286 0.25019 0.0
C569 C 0.48793 0.51246 0.30725 0.0
C570 C 0.48768 0.54681 0.32517 0.0
H571 H 0.48447 0.48398 0.2561 0.0
H572 H 0.48968 0.4869 0.32274 0.0
C573 C 0.48684 0.57916 0.30402 0.0
C574 C 0.00921 0.48653 0.76813 0.0
C575 C 0.04652 0.48728 0.75173 0.0
H576 H 0.97682 0.48416 0.81836 0.0
C577 C 0.0805 0.48367 0.77406 0.0
H578 H 0.98251 0.48924 0.75162 0.0
C579 C 0.07724 0.48067 0.81198 0.0
C580 C 0.03994 0.48101 0.82846 0.0
H581 H 0.10977 0.483 0.76221 0.0
H582 H 0.10391 0.47849 0.82854 0.0
C583 C 0.00596 0.48336 0.80622 0.0
C584 C 0.67886 0.98787 0.94337 0.0
C585 C 0.69326 0.95012 0.94634 0.0
H586 H 0.63294 0.03102 0.95711 0.0
C587 C 0.67107 0.92686 0.96677 0.0
H588 H 0.6953 1.00676 0.92834 0.0
C589 C 0.63556 0.94087 0.98366 0.0
C590 C 0.62105 0.9785 0.98043 0.0
H591 H 0.68071 0.89753 0.96921 0.0
H592 H 0.61916 0.92199 0.99879 0.0
C593 C 0.64319 1.00186 0.96014 0.0
C594 C 0.83541 0.04964 0.44362 0.0
C595 C 0.82102 0.08738 0.44668 0.0
H596 H 0.88146 1.00648 0.4572 0.0
C597 C 0.84334 0.11062 0.46708 0.0
H598 H 0.81887 0.03077 0.42859 0.0
C599 C 0.87896 0.0966 0.48388 0.0
C600 C 0.89347 0.05897 0.48056 0.0
H601 H 0.8337 0.13994 0.46958 0.0
H602 H 0.89545 0.11546 0.49899 0.0
C603 C 0.8712 0.03563 0.4603 0.0
C604 C 0.18446 0.5508 0.07353 0.0
C605 C 0.20956 0.54573 0.0429 0.0
H606 H 0.12573 0.55039 0.09452 0.0
C607 C 0.19372 0.53617 1.00905 0.0
H608 H 0.19583 0.55858 0.09988 0.0
C609 C 0.15367 0.53129 1.00601 0.0
C610 C 0.12855 0.53627 0.03667 0.0
H611 H 0.21245 0.53188 0.98507 0.0
H612 H 0.1424 0.52366 0.97957 0.0
C613 C 0.14431 0.5463 0.07042 0.0
C614 C 0.3303 0.4881 0.57068 0.0
C615 C 0.30536 0.49265 0.5398 0.0
H616 H 0.38887 0.48901 0.59211 0.0
C617 C 0.32136 0.50163 0.50591 0.0
H618 H 0.31881 0.48076 0.59707 0.0
C619 C 0.36141 0.50658 0.50309 0.0
C620 C 0.38634 0.50221 0.53404 0.0
H621 H 0.30274 0.50548 0.48174 0.0
H622 H 0.37283 0.51381 0.47664 0.0
C623 C 0.37043 0.49265 0.5678 0.0
C624 C 0.96895 0.66593 0.92307 0.0
C625 C 0.95669 0.6978 0.94382 0.0
H626 H 0.98893 0.60786 0.92323 0.0
C627 C 0.95742 0.69462 0.98246 0.0
H628 H 0.96849 0.66696 0.89337 0.0
C629 C 0.96881 0.66049 0.9997 0.0
C630 C 0.98 0.62847 0.97887 0.0
H631 H 0.94894 0.71856 0.99954 0.0
H632 H 0.96839 0.65914 0.02939 0.0
C633 C 0.98042 0.63182 0.94031 0.0
C634 C 0.49381 0.76062 0.06246 0.0
C635 C 0.47219 0.75033 0.03183 0.0
H636 H 0.51532 0.80488 0.09262 0.0
C637 C 0.45751 0.77765 1.00658 0.0
H638 H 0.50498 0.74028 0.08276 0.0
C639 C 0.46327 0.8146 1.01239 0.0
C640 C 0.48369 0.82507 0.04366 0.0
H641 H 0.44121 0.77052 0.98251 0.0
H642 H 0.45154 0.83506 0.9924 0.0
C643 C 0.49959 0.79762 0.06826 0.0
C644 C 0.02053 0.27776 0.56191 0.0
C645 C 0.04182 0.28808 0.53118 0.0
H646 H 0.99926 0.23347 0.59214 0.0
C647 C 0.05611 0.26079 0.50579 0.0
H648 H 0.00967 0.29806 0.58233 0.0
C649 C 0.05034 0.22384 0.5116 0.0
C650 C 0.03027 0.21335 0.54298 0.0
H651 H 0.07213 0.26793 0.48163 0.0
H652 H 0.06181 0.2034 0.49155 0.0
C653 C 0.01471 0.24077 0.5677 0.0
C654 C 0.55723 0.34337 0.48269 0.0
C655 C 0.55798 0.34012 0.44406 0.0
H656 H 0.5464 0.37898 0.52951 0.0
C657 C 0.54592 0.37199 0.42319 0.0
H658 H 0.56556 0.31943 0.49985 0.0
C659 C 0.53463 0.40615 0.44031 0.0
C660 C 0.53502 0.40957 0.47887 0.0
H661 H 0.54642 0.3709 0.39349 0.0
H662 H 0.52627 0.4301 0.42314 0.0
C663 C 0.54601 0.37757 0.49982 0.0
loop_
_geom_bond_atom_site_label_1
_geom_bond_atom_site_label_2
_geom_bond_distance
_geom_bond_site_symmetry_2
_ccdc_geom_bond_type
C0 C1 1.384 . S
C0 H13 0.947 . S
C0 C35 1.382 . S
C1 C0 1.384 . S
C1 C2 1.378 . S
C2 C1 1.378 . S
C2 C3 1.378 . S
C2 H14 0.952 . S
C3 C2 1.378 . S
C3 H15 0.950 . S
C3 C34 1.383 . S
H4 C23 0.947 . S
H5 C24 0.946 . S
H6 C26 0.953 . S
H7 C27 0.945 . S
H8 C29 0.952 . S
H9 C30 0.949 . S
H10 C32 0.950 . S
H11 C33 0.948 . S
H12 C35 0.951 . S
H13 C0 0.947 . S
H14 C2 0.952 . S
H15 C3 0.950 . S
N16 C19 1.382 . S
N16 C21 1.363 . S
N17 C19 1.371 . S
N17 C20 1.372 . S
N18 C20 1.361 . S
N18 C21 1.377 . S
C19 N16 1.382 . S
C19 N17 1.371 . S
C19 C22 1.480 . S
C20 N17 1.372 . S
C20 N18 1.361 . S
C20 C28 1.457 . S
C21 N16 1.363 . S
C21 N18 1.377 . S
C21 C34 1.479 . S
C22 C19 1.480 . S
C22 C23 1.383 . S
C22 C27 1.385 . S
C23 H4 0.947 . S
C23 C22 1.383 . S
C23 C24 1.388 . S
C24 H5 0.946 . S
C24 C23 1.388 . S
C24 C25 1.384 . S
C25 C24 1.384 . S
C25 C26 1.377 . S
C26 H6 0.953 . S
C26 C25 1.377 . S
C26 C27 1.369 . S
C27 H7 0.945 . S
C27 C22 1.385 . S
C27 C26 1.369 . S
C28 C20 1.457 . S
C28 C29 1.372 . S
C28 C33 1.364 . S
C29 H8 0.952 . S
C29 C28 1.372 . S
C29 C30 1.389 . S
C30 H9 0.949 . S
C30 C29 1.389 . S
C30 C31 1.387 . S
C31 C30 1.387 . S
C31 C32 1.372 . S
C32 H10 0.950 . S
C32 C31 1.372 . S
C32 C33 1.379 . S
C33 H11 0.948 . S
C33 C28 1.364 . S
C33 C32 1.379 . S
C34 C3 1.383 . S
C34 C21 1.479 . S
C34 C35 1.398 . S
C35 C0 1.382 . S
C35 H12 0.951 . S
C35 C34 1.398 . S
C36 C37 1.384 . S
C36 H49 0.947 . S
C36 C71 1.382 . S
C37 C36 1.384 . S
C37 C38 1.378 . S
C38 C37 1.378 . S
C38 C39 1.378 . S
C38 H50 0.952 . S
C39 C38 1.378 . S
C39 H51 0.950 . S
C39 C70 1.383 . S
H40 C59 0.947 . S
H41 C60 0.946 . S
H42 C62 0.953 . S
H43 C63 0.945 . S
H44 C65 0.952 . S
H45 C66 0.949 . S
H46 C68 0.950 . S
H47 C69 0.948 . S
H48 C71 0.951 . S
H49 C36 0.947 . S
H50 C38 0.952 . S
H51 C39 0.950 . S
N52 C55 1.382 . S
N52 C57 1.363 . S
N53 C55 1.371 . S
N53 C56 1.372 . S
N54 C56 1.361 . S
N54 C57 1.377 . S
C55 N52 1.382 . S
C55 N53 1.371 . S
C55 C58 1.480 . S
C56 N53 1.372 . S
C56 N54 1.361 . S
C56 C64 1.457 . S
C57 N52 1.363 . S
C57 N54 1.377 . S
C57 C70 1.479 . S
C58 C55 1.480 . S
C58 C59 1.383 . S
C58 C63 1.385 . S
C59 H40 0.947 . S
C59 C58 1.383 . S
C59 C60 1.388 . S
C60 H41 0.946 . S
C60 C59 1.388 . S
C60 C61 1.384 . S
C61 C60 1.384 . S
C61 C62 1.377 . S
C62 H42 0.953 . S
C62 C61 1.377 . S
C62 C63 1.369 . S
C63 H43 0.945 . S
C63 C58 1.385 . S
C63 C62 1.369 . S
C64 C56 1.457 . S
C64 C65 1.372 . S
C64 C69 1.364 . S
C65 H44 0.952 . S
C65 C64 1.372 . S
C65 C66 1.389 . S
C66 H45 0.949 . S
C66 C65 1.389 . S
C66 C67 1.387 . S
C67 C66 1.387 . S
C67 C68 1.372 . S
C68 H46 0.950 . S
C68 C67 1.372 . S
C68 C69 1.379 . S
C69 H47 0.948 . S
C69 C64 1.364 . S
C69 C68 1.379 . S
C70 C39 1.383 . S
C70 C57 1.479 . S
C70 C71 1.398 . S
C71 C36 1.382 . S
C71 H48 0.951 . S
C71 C70 1.398 . S
C72 C73 1.384 . S
C72 H85 0.947 1_556 S
C72 C107 1.382 . S
C73 C72 1.384 . S
C73 C74 1.378 . S
C74 C73 1.378 . S
C74 C75 1.378 . S
C74 H86 0.952 . S
C75 C74 1.378 . S
C75 H87 0.950 . S
C75 C106 1.383 . S
H76 C95 0.947 . S
H77 C96 0.946 . S
H78 C98 0.953 . S
H79 C99 0.945 . S
H80 C101 0.952 . S
H81 C102 0.949 . S
H82 C104 0.929 1_554 S
H83 C105 0.948 . S
H84 C107 0.951 . S
H85 C72 0.947 1_554 S
H86 C74 0.952 . S
H87 C75 0.950 . S
N88 C91 1.382 . S
N88 C93 1.363 . S
N89 C91 1.371 . S
N89 C92 1.372 . S
N90 C92 1.361 . S
N90 C93 1.377 . S
C91 N88 1.382 . S
C91 N89 1.371 . S
C91 C94 1.480 . S
C92 N89 1.372 . S
C92 N90 1.361 . S
C92 C100 1.457 . S
C93 N88 1.363 . S
C93 N90 1.377 . S
C93 C106 1.479 . S
C94 C91 1.480 . S
C94 C95 1.383 . S
C94 C99 1.385 . S
C95 H76 0.947 . S
C95 C94 1.383 . S
C95 C96 1.388 . S
C96 H77 0.946 . S
C96 C95 1.388 . S
C96 C97 1.384 . S
C97 C96 1.384 . S
C97 C98 1.377 . S
C98 H78 0.953 . S
C98 C97 1.377 . S
C98 C99 1.369 . S
C99 H79 0.945 . S
C99 C94 1.385 . S
C99 C98 1.369 . S
C100 C92 1.457 . S
C100 C101 1.372 . S
C100 C105 1.364 . S
C101 H80 0.952 . S
C101 C100 1.372 . S
C101 C102 1.389 . S
C102 H81 0.949 . S
C102 C101 1.389 . S
C102 C103 1.387 . S
C103 C102 1.387 . S
C103 C104 1.372 . S
C104 H82 0.929 1_556 S
C104 C103 1.372 . S
C104 C105 1.379 . S
C105 H83 0.948 . S
C105 C100 1.364 . S
C105 C104 1.379 . S
C106 C75 1.383 . S
C106 C93 1.479 . S
C106 C107 1.398 . S
C107 C72 1.382 . S
C107 H84 0.951 . S
C107 C106 1.398 . S
C108 C109 1.384 . S
C108 H121 0.947 . S
C108 C143 1.382 . S
C109 C108 1.384 . S
C109 C110 1.378 . S
C110 C109 1.378 . S
C110 C111 1.378 . S
C110 H122 0.952 . S
C111 C110 1.378 . S
C111 H123 0.950 . S
C111 C142 1.383 . S
H112 C131 0.947 . S
H113 C132 0.946 . S
H114 C134 0.953 . S
H115 C135 0.945 . S
H116 C137 0.952 . S
H117 C138 0.949 . S
H118 C140 0.950 . S
H119 C141 0.948 . S
H120 C143 0.951 . S
H121 C108 0.947 . S
H122 C110 0.952 . S
H123 C111 0.950 . S
N124 C127 1.382 . S
N124 C129 1.363 . S
N125 C127 1.371 . S
N125 C128 1.372 . S
N126 C128 1.361 . S
N126 C129 1.377 . S
C127 N124 1.382 . S
C127 N125 1.371 . S
C127 C130 1.480 . S
C128 N125 1.372 . S
C128 N126 1.361 . S
C128 C136 1.457 . S
C129 N124 1.363 . S
C129 N126 1.377 . S
C129 C142 1.479 . S
C130 C127 1.480 . S
C130 C131 1.383 . S
C130 C135 1.385 . S
C131 H112 0.947 . S
C131 C130 1.383 . S
C131 C132 1.388 . S
C132 H113 0.946 . S
C132 C131 1.388 . S
C132 C133 1.384 . S
C133 C132 1.384 . S
C133 C134 1.377 . S
C134 H114 0.953 . S
C134 C133 1.377 . S
C134 C135 1.369 . S
C135 H115 0.945 . S
C135 C130 1.385 . S
C135 C134 1.369 . S
C136 C128 1.457 . S
C136 C137 1.372 . S
C136 C141 1.364 . S
C137 H116 0.952 . S
C137 C136 1.372 . S
C137 C138 1.389 . S
C138 H117 0.949 . S
C138 C137 1.389 . S
C138 C139 1.387 . S
C139 C138 1.387 . S
C139 C140 1.372 . S
C140 H118 0.950 . S
C140 C139 1.372 . S
C140 C141 1.379 . S
C141 H119 0.948 . S
C141 C136 1.364 . S
C141 C140 1.379 . S
C142 C111 1.383 . S
C142 C129 1.479 . S
C142 C143 1.398 . S
C143 C108 1.382 . S
C143 H120 0.951 . S
C143 C142 1.398 . S
C144 C145 1.384 . S
C144 H157 0.947 . S
C144 C179 1.382 . S
C145 C144 1.384 . S
C145 C146 1.378 . S
C146 C145 1.378 . S
C146 C147 1.378 . S
C146 H158 0.952 . S
C147 C146 1.378 . S
C147 H159 0.950 . S
C147 C178 1.383 . S
H148 C167 0.947 . S
H149 C168 0.946 . S
H150 C170 0.953 . S
H151 C171 0.945 . S
H152 C173 0.952 . S
H153 C174 0.949 . S
H154 C176 0.950 . S
H155 C177 0.948 . S
H156 C179 0.951 . S
H157 C144 0.947 . S
H158 C146 0.952 . S
H159 C147 0.950 . S
N160 C163 1.382 . S
N160 C165 1.363 . S
N161 C163 1.371 . S
N161 C164 1.372 . S
N162 C164 1.361 . S
N162 C165 1.377 . S
C163 N160 1.382 . S
C163 N161 1.371 . S
C163 C166 1.480 . S
C164 N161 1.372 . S
C164 N162 1.361 . S
C164 C172 1.457 . S
C165 N160 1.363 . S
C165 N162 1.377 . S
C165 C178 1.479 . S
C166 C163 1.480 . S
C166 C167 1.383 . S
C166 C171 1.385 . S
C167 H148 0.947 . S
C167 C166 1.383 . S
C167 C168 1.388 . S
C168 H149 0.946 . S
C168 C167 1.388 . S
C168 C169 1.384 . S
C169 C168 1.384 . S
C169 C170 1.377 . S
C170 H150 0.953 . S
C170 C169 1.377 . S
C170 C171 1.369 . S
C171 H151 0.945 . S
C171 C166 1.385 . S
C171 C170 1.369 . S
C172 C164 1.457 . S
C172 C173 1.372 . S
C172 C177 1.364 . S
C173 H152 0.952 . S
C173 C172 1.372 . S
C173 C174 1.389 . S
C174 H153 0.949 . S
C174 C173 1.389 . S
C174 C175 1.387 . S
C175 C174 1.387 . S
C175 C176 1.372 . S
C176 H154 0.950 . S
C176 C175 1.372 . S
C176 C177 1.379 . S
C177 H155 0.948 . S
C177 C172 1.364 . S
C177 C176 1.379 . S
C178 C147 1.383 . S
C178 C165 1.479 . S
C178 C179 1.398 . S
C179 C144 1.382 . S
C179 H156 0.951 . S
C179 C178 1.398 . S
C180 C181 1.384 . S
C180 H193 0.947 . S
C180 C215 1.382 . S
C181 C180 1.384 . S
C181 C182 1.378 . S
C182 C181 1.378 . S
C182 C183 1.378 . S
C182 H194 0.952 . S
C183 C182 1.378 . S
C183 H195 0.950 . S
C183 C214 1.383 . S
H184 C203 0.947 . S
H185 C204 0.946 . S
H186 C206 0.953 . S
H187 C207 0.945 . S
H188 C209 0.952 . S
H189 C210 0.949 . S
H190 C212 0.950 . S
H191 C213 0.948 . S
H192 C215 0.951 . S
H193 C180 0.947 . S
H194 C182 0.952 . S
H195 C183 0.950 . S
N196 C199 1.382 . S
N196 C201 1.363 . S
N197 C199 1.371 . S
N197 C200 1.372 . S
N198 C200 1.361 . S
N198 C201 1.377 . S
C199 N196 1.382 . S
C199 N197 1.371 . S
C199 C202 1.480 . S
C200 N197 1.372 . S
C200 N198 1.361 . S
C200 C208 1.457 . S
C201 N196 1.363 . S
C201 N198 1.377 . S
C201 C214 1.479 . S
C202 C199 1.480 . S
C202 C203 1.383 . S
C202 C207 1.385 . S
C203 H184 0.947 . S
C203 C202 1.383 . S
C203 C204 1.388 . S
C204 H185 0.946 . S
C204 C203 1.388 . S
C204 C205 1.384 . S
C205 C204 1.384 . S
C205 C206 1.377 . S
C206 H186 0.953 . S
C206 C205 1.377 . S
C206 C207 1.369 . S
C207 H187 0.945 . S
C207 C202 1.385 . S
C207 C206 1.369 . S
C208 C200 1.457 . S
C208 C209 1.372 . S
C208 C213 1.364 . S
C209 H188 0.952 . S
C209 C208 1.372 . S
C209 C210 1.389 . S
C210 H189 0.949 . S
C210 C209 1.389 . S
C210 C211 1.387 . S
C211 C210 1.387 . S
C211 C212 1.372 . S
C212 H190 0.950 . S
C212 C211 1.372 . S
C212 C213 1.379 . S
C213 H191 0.948 . S
C213 C208 1.364 . S
C213 C212 1.379 . S
C214 C183 1.383 . S
C214 C201 1.479 . S
C214 C215 1.398 . S
C215 C180 1.382 . S
C215 H192 0.951 . S
C215 C214 1.398 . S
C216 C217 1.384 . S
C216 H229 0.947 . S
C216 C251 1.382 . S
C217 C216 1.384 . S
C217 C218 1.378 . S
C218 C217 1.378 . S
C218 C219 1.378 . S
C218 H230 0.952 1_554 S
C219 C218 1.378 . S
C219 H231 0.950 . S
C219 C250 1.383 . S
H220 C239 0.947 . S
H221 C240 0.946 . S
H222 C242 0.953 . S
H223 C243 0.945 . S
H224 C245 0.952 . S
H225 C246 0.949 . S
H226 C248 0.950 . S
H227 C249 0.948 . S
H228 C251 0.951 . S
H229 C216 0.947 . S
H230 C218 0.952 1_556 S
H231 C219 0.950 . S
N232 C235 1.382 . S
N232 C237 1.363 . S
N233 C235 1.371 . S
N233 C236 1.372 . S
N234 C236 1.361 . S
N234 C237 1.377 . S
C235 N232 1.382 . S
C235 N233 1.371 . S
C235 C238 1.480 . S
C236 N233 1.372 . S
C236 N234 1.361 . S
C236 C244 1.457 . S
C237 N232 1.363 . S
C237 N234 1.377 . S
C237 C250 1.479 . S
C238 C235 1.480 . S
C238 C239 1.383 . S
C238 C243 1.385 . S
C239 H220 0.947 . S
C239 C238 1.383 . S
C239 C240 1.388 . S
C240 H221 0.946 . S
C240 C239 1.388 . S
C240 C241 1.384 . S
C241 C240 1.384 . S
C241 C242 1.377 . S
C242 H222 0.953 . S
C242 C241 1.377 . S
C242 C243 1.369 . S
C243 H223 0.945 . S
C243 C238 1.385 . S
C243 C242 1.369 . S
C244 C236 1.457 . S
C244 C245 1.372 . S
C244 C249 1.364 . S
C245 H224 0.952 . S
C245 C244 1.372 . S
C245 C246 1.389 . S
C246 H225 0.949 . S
C246 C245 1.389 . S
C246 C247 1.387 . S
C247 C246 1.387 . S
C247 C248 1.372 . S
C248 H226 0.950 . S
C248 C247 1.372 . S
C248 C249 1.379 . S
C249 H227 0.948 . S
C249 C244 1.364 . S
C249 C248 1.379 . S
C250 C219 1.383 . S
C250 C237 1.479 . S
C250 C251 1.398 . S
C251 C216 1.382 . S
C251 H228 0.951 . S
C251 C250 1.398 . S
C252 C253 1.384 . S
C252 H265 0.947 . S
C252 C287 1.382 . S
C253 C252 1.384 . S
C253 C254 1.378 . S
C254 C253 1.378 . S
C254 C255 1.378 . S
C254 H266 0.952 . S
C255 C254 1.378 . S
C255 H267 0.950 . S
C255 C286 1.383 . S
H256 C275 0.947 . S
H257 C276 0.946 . S
H258 C278 0.953 . S
H259 C279 0.945 . S
H260 C281 0.952 . S
H261 C282 0.949 . S
H262 C284 0.950 . S
H263 C285 0.948 . S
H264 C287 0.951 . S
H265 C252 0.947 . S
H266 C254 0.952 . S
H267 C255 0.950 . S
N268 C271 1.382 . S
N268 C273 1.363 . S
N269 C271 1.371 . S
N269 C272 1.372 . S
N270 C272 1.361 . S
N270 C273 1.377 . S
C271 N268 1.382 . S
C271 N269 1.371 . S
C271 C274 1.480 . S
C272 N269 1.372 . S
C272 N270 1.361 . S
C272 C280 1.457 . S
C273 N268 1.363 . S
C273 N270 1.377 . S
C273 C286 1.479 . S
C274 C271 1.480 . S
C274 C275 1.383 . S
C274 C279 1.385 . S
C275 H256 0.947 . S
C275 C274 1.383 . S
C275 C276 1.388 . S
C276 H257 0.946 . S
C276 C275 1.388 . S
C276 C277 1.384 . S
C277 C276 1.384 . S
C277 C278 1.377 . S
C278 H258 0.953 . S
C278 C277 1.377 . S
C278 C279 1.369 . S
C279 H259 0.945 . S
C279 C274 1.385 . S
C279 C278 1.369 . S
C280 C272 1.457 . S
C280 C281 1.372 . S
C280 C285 1.364 . S
C281 H260 0.952 . S
C281 C280 1.372 . S
C281 C282 1.389 . S
C282 H261 0.949 . S
C282 C281 1.389 . S
C282 C283 1.387 . S
C283 C282 1.387 . S
C283 C284 1.372 . S
C284 H262 0.950 . S
C284 C283 1.372 . S
C284 C285 1.379 . S
C285 H263 0.948 . S
C285 C280 1.364 . S
C285 C284 1.379 . S
C286 C255 1.383 . S
C286 C273 1.479 . S
C286 C287 1.398 . S
C287 C252 1.382 . S
C287 H264 0.951 . S
C287 C286 1.398 . S
C288 O304 1.251 . S
C288 O306 1.254 1_545 S
N289 C290 1.333 . S
N289 C294 1.307 . S
N289 Zn295 2.020 . S
C290 N289 1.333 . S
C290 C291 1.379 . S
C290 H308 0.952 . S
C291 C290 1.379 . S
C291 C292 1.390 . S
C291 H318 0.949 . S
C292 C291 1.390 . S
C292 C293 1.357 . S
C293 C292 1.357 . S
C293 C294 1.370 . S
C293 H319 0.950 . S
C294 N289 1.307 . S
C294 C293 1.370 . S
C294 H312 0.948 1_455 S
Zn295 N289 2.020 . S
Zn295 O304 2.039 . S
Zn295 O310 2.034 . S
Zn295 O314 2.025 1_455 S
Zn295 O316 2.024 1_455 S
C296 O315 1.246 1_545 S
C296 O316 1.249 . S
N297 C298 1.307 . S
N297 C299 1.333 . S
N297 Zn303 2.020 . S
C298 N297 1.307 . S
C298 C302 1.370 . S
C298 H309 0.948 1_655 S
C299 N297 1.333 . S
C299 C300 1.379 . S
C299 H307 0.952 . S
C300 C299 1.379 . S
C300 C301 1.390 . S
C300 H320 0.949 . S
C301 C300 1.390 . S
C301 C302 1.357 . S
C302 C298 1.370 . S
C302 C301 1.357 . S
C302 H321 0.964 . S
Zn303 N297 2.020 . S
Zn303 O306 2.025 1_655 S
Zn303 O311 2.024 1_655 S
Zn303 O313 2.039 . S
Zn303 O315 2.034 . S
O304 C288 1.251 . S
O304 Zn295 2.039 . S
C305 O310 1.246 1_565 S
C305 O311 1.249 . S
O306 C288 1.254 1_565 S
O306 Zn303 2.025 1_455 S
H307 C299 0.952 . S
H308 C290 0.952 . S
H309 C298 0.948 1_455 S
O310 Zn295 2.034 . S
O310 C305 1.246 1_545 S
O311 Zn303 2.024 1_455 S
O311 C305 1.249 . S
H312 C294 0.948 1_655 S
O313 Zn303 2.039 . S
O313 C317 1.251 . S
O314 Zn295 2.025 1_655 S
O314 C317 1.254 1_545 S
O315 C296 1.246 1_565 S
O315 Zn303 2.034 . S
O316 Zn295 2.024 1_655 S
O316 C296 1.249 . S
C317 O313 1.251 . S
C317 O314 1.254 1_565 S
H318 C291 0.949 . S
H319 C293 0.950 . S
H320 C300 0.949 . S
H321 C302 0.964 . S
C322 O338 1.251 1_565 S
C322 O340 1.269 . S
N323 C324 1.333 . S
N323 C328 1.307 . S
N323 Zn329 2.020 . S
C324 N323 1.333 . S
C324 C325 1.379 . S
C324 H342 0.952 . S
C325 C324 1.379 . S
C325 C326 1.390 . S
C325 H352 0.949 . S
C326 C325 1.390 . S
C326 C327 1.357 . S
C327 C326 1.357 . S
C327 C328 1.370 . S
C327 H353 0.950 . S
C328 N323 1.307 . S
C328 C327 1.370 . S
C328 H346 0.948 . S
Zn329 N323 2.020 . S
Zn329 O338 2.039 . S
Zn329 O344 2.034 1_556 S
Zn329 O348 2.025 1_556 S
Zn329 O350 2.024 . S
C330 O349 1.246 . S
C330 O350 1.249 1_565 S
N331 C332 1.307 . S
N331 C333 1.333 . S
N331 Zn337 2.020 . S
C332 N331 1.307 . S
C332 C336 1.370 . S
C332 H343 0.948 . S
C333 N331 1.333 . S
C333 C334 1.379 . S
C333 H341 0.952 . S
C334 C333 1.379 . S
C334 C335 1.390 . S
C334 H354 0.949 . S
C335 C334 1.390 . S
C335 C336 1.357 . S
C336 C332 1.370 . S
C336 C335 1.357 . S
C336 H355 0.950 . S
Zn337 N331 2.020 . S
Zn337 O340 2.014 1_554 S
Zn337 O345 2.024 . S
Zn337 O347 2.039 . S
Zn337 O349 2.034 1_554 S
O338 C322 1.251 1_545 S
O338 Zn329 2.039 . S
C339 O344 1.246 . S
C339 O345 1.249 1_545 S
O340 C322 1.269 . S
O340 Zn337 2.014 1_556 S
H341 C333 0.952 . S
H342 C324 0.952 . S
H343 C332 0.948 . S
O344 Zn329 2.034 1_554 S
O344 C339 1.246 . S
O345 Zn337 2.024 . S
O345 C339 1.249 1_565 S
H346 C328 0.948 . S
O347 Zn337 2.039 . S
O347 C351 1.251 1_565 S
O348 Zn329 2.025 1_554 S
O348 C351 1.254 . S
O349 C330 1.246 . S
O349 Zn337 2.034 1_556 S
O350 Zn329 2.024 . S
O350 C330 1.249 1_545 S
C351 O347 1.251 1_545 S
C351 O348 1.254 . S
H352 C325 0.949 . S
H353 C327 0.950 . S
H354 C334 0.949 . S
H355 C336 0.950 . S
C356 O372 1.251 . S
C356 O374 1.254 . S
N357 C358 1.333 . S
N357 C362 1.307 . S
N357 Zn363 2.020 . S
C358 N357 1.333 . S
C358 C359 1.379 . S
C358 H376 0.952 . S
C359 C358 1.379 . S
C359 C360 1.390 . S
C359 H386 0.949 . S
C360 C359 1.390 . S
C360 C361 1.357 . S
C361 C360 1.357 . S
C361 C362 1.370 . S
C361 H387 0.950 . S
C362 N357 1.307 . S
C362 C361 1.370 . S
C362 H380 0.948 . S
Zn363 N357 2.020 . S
Zn363 O372 2.039 . S
Zn363 O378 2.034 . S
Zn363 O382 2.025 . S
Zn363 O384 2.024 . S
C364 O383 1.246 . S
C364 O384 1.249 . S
N365 C366 1.307 . S
N365 C367 1.333 . S
N365 Zn371 2.020 . S
C366 N365 1.307 . S
C366 C370 1.370 . S
C366 H377 0.948 . S
C367 N365 1.333 . S
C367 C368 1.379 . S
C367 H375 0.952 . S
C368 C367 1.379 . S
C368 C369 1.390 . S
C368 H388 0.949 . S
C369 C368 1.390 . S
C369 C370 1.357 . S
C370 C366 1.370 . S
C370 C369 1.357 . S
C370 H389 0.950 . S
Zn371 N365 2.020 . S
Zn371 O374 2.025 . S
Zn371 O379 2.024 . S
Zn371 O381 2.039 . S
Zn371 O383 2.034 . S
O372 C356 1.251 . S
O372 Zn363 2.039 . S
C373 O378 1.246 . S
C373 O379 1.249 . S
O374 C356 1.254 . S
O374 Zn371 2.025 . S
H375 C367 0.952 . S
H376 C358 0.952 . S
H377 C366 0.948 . S
O378 Zn363 2.034 . S
O378 C373 1.246 . S
O379 Zn371 2.024 . S
O379 C373 1.249 . S
H380 C362 0.948 . S
O381 Zn371 2.039 . S
O381 C385 1.251 . S
O382 Zn363 2.025 . S
O382 C385 1.254 . S
O383 C364 1.246 . S
O383 Zn371 2.034 . S
O384 Zn363 2.024 . S
O384 C364 1.249 . S
C385 O381 1.251 . S
C385 O382 1.254 . S
H386 C359 0.949 . S
H387 C361 0.950 . S
H388 C368 0.949 . S
H389 C370 0.950 . S
C390 O406 1.251 1_556 S
C390 O408 1.254 . S
N391 C392 1.333 . S
N391 C396 1.307 . S
N391 Zn397 2.020 . S
C392 N391 1.333 . S
C392 C393 1.379 . S
C392 H410 0.952 . S
C393 C392 1.379 . S
C393 C394 1.390 . S
C393 H420 0.949 . S
C394 C393 1.390 . S
C394 C395 1.357 . S
C395 C394 1.357 . S
C395 C396 1.370 . S
C395 H421 0.950 . S
C396 N391 1.307 . S
C396 C395 1.370 . S
C396 H414 0.948 . S
Zn397 N391 2.020 . S
Zn397 O406 2.039 . S
Zn397 O412 2.034 1_655 S
Zn397 O416 2.025 1_655 S
Zn397 O418 2.024 . S
C398 O417 1.246 . S
C398 O418 1.249 1_556 S
N399 C400 1.307 . S
N399 C401 1.333 . S
N399 Zn405 2.020 . S
C400 N399 1.307 . S
C400 C404 1.370 . S
C400 H411 0.948 . S
C401 N399 1.333 . S
C401 C402 1.379 . S
C401 H409 0.952 . S
C402 C401 1.379 . S
C402 C403 1.390 . S
C402 H422 0.949 . S
C403 C402 1.390 . S
C403 C404 1.357 . S
C404 C400 1.370 . S
C404 C403 1.357 . S
C404 H423 0.950 . S
Zn405 N399 2.020 . S
Zn405 O408 2.025 1_455 S
Zn405 O413 2.024 . S
Zn405 O415 2.039 . S
Zn405 O417 2.034 1_455 S
O406 C390 1.251 1_554 S
O406 Zn397 2.039 . S
C407 O412 1.246 . S
C407 O413 1.249 1_554 S
O408 C390 1.254 . S
O408 Zn405 2.025 1_655 S
H409 C401 0.952 . S
H410 C392 0.952 . S
H411 C400 0.948 . S
O412 Zn397 2.034 1_455 S
O412 C407 1.246 . S
O413 Zn405 2.024 . S
O413 C407 1.249 1_556 S
H414 C396 0.948 . S
O415 Zn405 2.039 . S
O415 C419 1.251 1_556 S
O416 Zn397 2.025 1_455 S
O416 C419 1.254 . S
O417 C398 1.246 . S
O417 Zn405 2.034 1_655 S
O418 Zn397 2.024 . S
O418 C398 1.249 1_554 S
C419 O415 1.251 1_554 S
C419 O416 1.254 . S
H420 C393 0.949 . S
H421 C395 0.950 . S
H422 C402 0.949 . S
H423 C404 0.950 . S
C424 C425 1.387 . S
C424 H428 0.950 . S
C424 C433 1.390 . S
C425 C424 1.387 . S
C425 C427 1.387 . S
H426 C433 0.950 . S
C427 C425 1.387 . S
C427 C429 1.390 . S
C427 H431 0.966 . S
H428 C424 0.950 . S
C429 C427 1.390 . S
C429 C430 1.387 . S
C429 H432 0.950 1_545 S
C430 C429 1.387 . S
C430 C433 1.387 . S
H431 C427 0.966 . S
H432 C429 0.950 1_565 S
C433 C424 1.390 . S
C433 H426 0.950 . S
C433 C430 1.387 . S
C434 C435 1.387 . S
C434 H438 0.950 . S
C434 C443 1.390 . S
C435 C434 1.387 . S
C435 C437 1.387 . S
H436 C443 0.950 . S
C437 C435 1.387 . S
C437 C439 1.390 . S
C437 H441 0.950 . S
H438 C434 0.950 . S
C439 C437 1.390 . S
C439 C440 1.387 . S
C439 H442 0.950 . S
C440 C439 1.387 . S
C440 C443 1.387 . S
H441 C437 0.950 . S
H442 C439 0.950 . S
C443 C434 1.390 . S
C443 H436 0.950 . S
C443 C440 1.387 . S
C444 C445 1.387 . S
C444 H448 0.950 . S
C444 C453 1.390 . S
C445 C444 1.387 . S
C445 C447 1.387 . S
H446 C453 0.950 . S
C447 C445 1.387 . S
C447 C449 1.390 . S
C447 H451 0.950 . S
H448 C444 0.950 . S
C449 C447 1.390 . S
C449 C450 1.387 . S
C449 H452 0.950 . S
C450 C449 1.387 . S
C450 C453 1.387 . S
H451 C447 0.950 . S
H452 C449 0.950 . S
C453 C444 1.390 . S
C453 H446 0.950 . S
C453 C450 1.387 . S
C454 C455 1.387 . S
C454 H458 0.950 . S
C454 C463 1.390 . S
C455 C454 1.387 . S
C455 C457 1.387 . S
H456 C463 0.950 . S
C457 C455 1.387 . S
C457 C459 1.390 . S
C457 H461 0.950 . S
H458 C454 0.950 . S
C459 C457 1.390 . S
C459 C460 1.387 . S
C459 H462 0.950 . S
C460 C459 1.387 . S
C460 C463 1.387 . S
H461 C457 0.950 . S
H462 C459 0.950 . S
C463 C454 1.390 . S
C463 H456 0.950 . S
C463 C460 1.387 . S
C464 C465 1.387 . S
C464 H468 0.950 1_545 S
C464 C473 1.390 . S
C465 C464 1.387 . S
C465 C467 1.387 . S
H466 C473 0.950 1_565 S
C467 C465 1.387 . S
C467 C469 1.390 . S
C467 H471 0.950 . S
H468 C464 0.950 1_565 S
C469 C467 1.390 . S
C469 C470 1.387 . S
C469 H472 0.950 . S
C470 C469 1.387 . S
C470 C473 1.387 . S
H471 C467 0.950 . S
H472 C469 0.950 . S
C473 C464 1.390 . S
C473 H466 0.950 1_545 S
C473 C470 1.387 . S
C474 C475 1.387 . S
C474 H478 0.950 . S
C474 C483 1.390 . S
C475 C474 1.387 . S
C475 C477 1.387 . S
H476 C483 0.950 . S
C477 C475 1.387 . S
C477 C479 1.390 . S
C477 H481 0.950 1_565 S
H478 C474 0.950 . S
C479 C477 1.390 . S
C479 C480 1.387 . S
C479 H482 0.950 1_565 S
C480 C479 1.387 . S
C480 C483 1.387 . S
H481 C477 0.950 1_545 S
H482 C479 0.950 1_545 S
C483 C474 1.390 . S
C483 H476 0.950 . S
C483 C480 1.387 . S
C484 C485 1.387 . S
C484 H488 0.950 . S
C484 C493 1.390 . S
C485 C484 1.387 . S
C485 C487 1.387 1_556 S
H486 C493 0.950 . S
C487 C485 1.387 1_554 S
C487 C489 1.390 . S
C487 H491 0.950 . S
H488 C484 0.950 . S
C489 C487 1.390 . S
C489 C490 1.387 1_554 S
C489 H492 0.950 . S
C490 C489 1.387 1_556 S
C490 C493 1.387 . S
H491 C487 0.950 . S
H492 C489 0.950 . S
C493 C484 1.390 . S
C493 H486 0.950 . S
C493 C490 1.387 . S
C494 C495 1.387 . S
C494 H498 0.950 . S
C494 C503 1.390 . S
C495 C494 1.387 . S
C495 C497 1.387 . S
H496 C503 0.950 . S
C497 C495 1.387 . S
C497 C499 1.390 . S
C497 H501 0.950 . S
H498 C494 0.950 . S
C499 C497 1.390 . S
C499 C500 1.387 . S
C499 H502 0.950 . S
C500 C499 1.387 . S
C500 C503 1.387 . S
H501 C497 0.950 . S
H502 C499 0.950 . S
C503 C494 1.390 . S
C503 H496 0.950 . S
C503 C500 1.387 . S
C504 C505 1.387 . S
C504 H508 0.950 1_455 S
C504 C513 1.390 . S
C505 C504 1.387 . S
C505 C507 1.387 . S
H506 C513 0.950 1_655 S
C507 C505 1.387 . S
C507 C509 1.390 . S
C507 H511 0.950 . S
H508 C504 0.950 1_655 S
C509 C507 1.390 . S
C509 C510 1.387 . S
C509 H512 0.950 . S
C510 C509 1.387 . S
C510 C513 1.387 . S
H511 C507 0.950 . S
H512 C509 0.950 . S
C513 C504 1.390 . S
C513 H506 0.950 1_455 S
C513 C510 1.387 . S
C514 C515 1.387 . S
C514 H518 0.957 . S
C514 C523 1.390 . S
C515 C514 1.387 . S
C515 C517 1.387 . S
H516 C523 0.950 . S
C517 C515 1.387 . S
C517 C519 1.390 . S
C517 H521 0.950 . S
H518 C514 0.957 . S
C519 C517 1.390 . S
C519 C520 1.387 . S
C519 H522 0.950 . S
C520 C519 1.387 . S
C520 C523 1.387 . S
H521 C517 0.950 . S
H522 C519 0.950 . S
C523 C514 1.390 . S
C523 H516 0.950 . S
C523 C520 1.387 . S
C524 C525 1.387 . S
C524 H528 0.950 . S
C524 C533 1.390 . S
C525 C524 1.387 . S
C525 C527 1.387 . S
H526 C533 0.950 . S
C527 C525 1.387 . S
C527 C529 1.390 . S
C527 H531 0.950 . S
H528 C524 0.950 . S
C529 C527 1.390 . S
C529 C530 1.387 . S
C529 H532 0.950 . S
C530 C529 1.387 . S
C530 C533 1.387 . S
H531 C527 0.950 . S
H532 C529 0.950 . S
C533 C524 1.390 . S
C533 H526 0.950 . S
C533 C530 1.387 . S
C534 C535 1.387 . S
C534 H538 0.950 . S
C534 C543 1.390 . S
C535 C534 1.387 . S
C535 C537 1.387 . S
H536 C543 0.950 . S
C537 C535 1.387 . S
C537 C539 1.390 . S
C537 H541 0.950 . S
H538 C534 0.950 . S
C539 C537 1.390 . S
C539 C540 1.387 . S
C539 H542 0.950 . S
C540 C539 1.387 . S
C540 C543 1.387 . S
H541 C537 0.950 . S
H542 C539 0.950 . S
C543 C534 1.390 . S
C543 H536 0.950 . S
C543 C540 1.387 . S
C544 C545 1.387 . S
C544 H548 0.950 . S
C544 C553 1.390 . S
C545 C544 1.387 . S
C545 C547 1.387 . S
H546 C553 0.950 1_455 S
C547 C545 1.387 . S
C547 C549 1.390 . S
C547 H551 0.950 . S
H548 C544 0.950 . S
C549 C547 1.390 . S
C549 C550 1.387 . S
C549 H552 0.950 1_565 S
C550 C549 1.387 . S
C550 C553 1.387 . S
H551 C547 0.950 . S
H552 C549 0.950 1_545 S
C553 C544 1.390 . S
C553 H546 0.950 1_655 S
C553 C550 1.387 . S
C554 C555 1.387 . S
C554 H558 0.950 . S
C554 C563 1.390 . S
C555 C554 1.387 . S
C555 C557 1.387 . S
H556 C563 0.950 . S
C557 C555 1.387 . S
C557 C559 1.390 . S
C557 H561 0.950 . S
H558 C554 0.950 . S
C559 C557 1.390 . S
C559 C560 1.387 . S
C559 H562 0.950 1_545 S
C560 C559 1.387 . S
C560 C563 1.387 . S
H561 C557 0.950 . S
H562 C559 0.950 1_565 S
C563 C554 1.390 . S
C563 H556 0.950 . S
C563 C560 1.387 . S
C564 C565 1.387 . S
C564 H568 0.950 . S
C564 C573 1.390 . S
C565 C564 1.387 . S
C565 C567 1.387 . S
H566 C573 0.950 . S
C567 C565 1.387 . S
C567 C569 1.390 . S
C567 H571 0.950 . S
H568 C564 0.950 . S
C569 C567 1.390 . S
C569 C570 1.387 . S
C569 H572 0.950 . S
C570 C569 1.387 . S
C570 C573 1.387 . S
H571 C567 0.950 . S
H572 C569 0.950 . S
C573 C564 1.390 . S
C573 H566 0.950 . S
C573 C570 1.387 . S
C574 C575 1.387 . S
C574 H578 0.950 . S
C574 C583 1.390 . S
C575 C574 1.387 . S
C575 C577 1.387 . S
H576 C583 0.950 . S
C577 C575 1.387 . S
C577 C579 1.390 . S
C577 H581 0.950 . S
H578 C574 0.950 . S
C579 C577 1.390 . S
C579 C580 1.387 . S
C579 H582 0.950 . S
C580 C579 1.387 . S
C580 C583 1.387 . S
H581 C577 0.950 . S
H582 C579 0.950 . S
C583 C574 1.390 . S
C583 H576 0.950 . S
C583 C580 1.387 . S
C584 C585 1.387 . S
C584 H588 0.950 1_565 S
C584 C593 1.390 . S
C585 C584 1.387 . S
C585 C587 1.387 . S
H586 C593 0.950 1_545 S
C587 C585 1.387 . S
C587 C589 1.390 . S
C587 H591 0.950 . S
H588 C584 0.950 1_545 S
C589 C587 1.390 . S
C589 C590 1.387 . S
C589 H592 0.950 . S
C590 C589 1.387 . S
C590 C593 1.387 . S
H591 C587 0.950 . S
H592 C589 0.950 . S
C593 C584 1.390 . S
C593 H586 0.950 1_565 S
C593 C590 1.387 . S
C594 C595 1.387 . S
C594 H598 0.927 1_545 S
C594 C603 1.390 . S
C595 C594 1.387 . S
C595 C597 1.387 . S
H596 C603 0.950 1_565 S
C597 C595 1.387 . S
C597 C599 1.390 . S
C597 H601 0.950 . S
H598 C594 0.927 1_565 S
C599 C597 1.390 . S
C599 C600 1.387 . S
C599 H602 0.950 . S
C600 C599 1.387 . S
C600 C603 1.387 . S
H601 C597 0.950 . S
H602 C599 0.950 . S
C603 C594 1.390 . S
C603 H596 0.950 1_545 S
C603 C600 1.387 . S
C604 C605 1.387 . S
C604 H608 0.950 . S
C604 C613 1.390 . S
C605 C604 1.387 . S
C605 C607 1.387 1_554 S
H606 C613 0.950 . S
C607 C605 1.387 1_556 S
C607 C609 1.390 . S
C607 H611 0.950 . S
H608 C604 0.950 . S
C609 C607 1.390 . S
C609 C610 1.387 1_556 S
C609 H612 0.950 . S
C610 C609 1.387 1_554 S
C610 C613 1.387 . S
H611 C607 0.950 . S
H612 C609 0.950 . S
C613 C604 1.390 . S
C613 H606 0.950 . S
C613 C610 1.387 . S
C614 C615 1.387 . S
C614 H618 0.950 . S
C614 C623 1.390 . S
C615 C614 1.387 . S
C615 C617 1.387 . S
H616 C623 0.950 . S
C617 C615 1.387 . S
C617 C619 1.390 . S
C617 H621 0.950 . S
H618 C614 0.950 . S
C619 C617 1.390 . S
C619 C620 1.387 . S
C619 H622 0.950 . S
C620 C619 1.387 . S
C620 C623 1.387 . S
H621 C617 0.950 . S
H622 C619 0.950 . S
C623 C614 1.390 . S
C623 H616 0.950 . S
C623 C620 1.387 . S
C624 C625 1.387 . S
C624 H628 0.950 1_655 S
C624 C633 1.390 . S
C625 C624 1.387 . S
C625 C627 1.387 . S
H626 C633 0.950 1_455 S
C627 C625 1.387 . S
C627 C629 1.390 . S
C627 H631 0.950 . S
H628 C624 0.950 1_455 S
C629 C627 1.390 . S
C629 C630 1.387 . S
C629 H632 0.950 1_556 S
C630 C629 1.387 . S
C630 C633 1.387 . S
H631 C627 0.950 . S
H632 C629 0.950 1_554 S
C633 C624 1.390 . S
C633 H626 0.950 1_655 S
C633 C630 1.387 . S
C634 C635 1.387 . S
C634 H638 0.950 . S
C634 C643 1.390 . S
C635 C634 1.387 . S
C635 C637 1.387 . S
H636 C643 0.950 . S
C637 C635 1.387 . S
C637 C639 1.390 . S
C637 H641 0.950 1_554 S
H638 C634 0.950 . S
C639 C637 1.390 . S
C639 C640 1.387 . S
C639 H642 0.950 . S
C640 C639 1.387 . S
C640 C643 1.387 . S
H641 C637 0.950 1_556 S
H642 C639 0.950 . S
C643 C634 1.390 . S
C643 H636 0.950 . S
C643 C640 1.387 . S
C644 C645 1.387 . S
C644 H648 0.950 . S
C644 C653 1.390 . S
C645 C644 1.387 . S
C645 C647 1.387 . S
H646 C653 0.950 . S
C647 C645 1.387 . S
C647 C649 1.390 . S
C647 H651 0.950 . S
H648 C644 0.950 . S
C649 C647 1.390 . S
C649 C650 1.387 . S
C649 H652 0.950 . S
C650 C649 1.387 . S
C650 C653 1.387 . S
H651 C647 0.950 . S
H652 C649 0.950 . S
C653 C644 1.390 . S
C653 H646 0.950 . S
C653 C650 1.387 . S
C654 C655 1.387 . S
C654 H658 0.950 . S
C654 C663 1.390 . S
C655 C654 1.387 . S
C655 C657 1.387 . S
H656 C663 0.950 . S
C657 C655 1.387 . S
C657 C659 1.390 . S
C657 H661 0.950 . S
H658 C654 0.950 . S
C659 C657 1.390 . S
C659 C660 1.387 . S
C659 H662 0.950 . S
C660 C659 1.387 . S
C660 C663 1.387 . S
H661 C657 0.950 . S
H662 C659 0.950 . S
C663 C654 1.390 . S
C663 H656 0.950 . S
C663 C660 1.387 . S
C425 C1 2.299 . S
C430 C288 2.346 . S
C435 C67 2.278 . S
C440 C330 2.332 . S
C450 C360 1.111 . S
C445 C97 1.079 . S
C455 C133 1.184 . S
C460 C394 1.178 . S
C470 C351 1.887 . S
C465 C25 1.829 . S
C480 C305 1.886 . S
C475 C37 1.840 . S
C490 C398 1.442 . S
C485 C103 1.368 . S
C500 C364 1.498 . S
C495 C109 1.471 . S
C505 C31 2.206 . S
C510 C419 2.249 . S
C520 C326 1.261 . S
C515 C73 1.214 . S
C525 C139 1.267 . S
C530 C301 1.287 . S
C535 C61 2.174 . S
C540 C385 2.220 . S
C550 C317 2.357 . S
C545 C175 2.351 . S
C555 C181 2.275 . S
C560 C339 2.318 . S
C565 C247 1.136 . S
C570 C369 1.123 . S
C575 C277 1.200 . S
C580 C403 1.184 . S
C585 C145 1.872 . S
C590 C322 1.886 . S
C600 C296 1.889 . S
C595 C211 1.843 . S
C610 C407 1.428 . S
C605 C217 1.408 . S
C620 C373 1.511 . S
C615 C283 1.494 . S
C625 C169 2.247 . S
C630 C390 2.242 . S
C640 C335 1.250 . S
C635 C241 1.246 . S
C650 C292 1.283 . S
C645 C253 1.243 . S
C655 C205 2.170 . S
C660 C356 2.225 . S
