# Generated by pormake.
# Topology eea, (3,6)-cn, num edge types: 1
# Building blocks:
#     Node 0, Type 0, BuildingBlock: PAMTOO_clean_linker_0, # of connection points: 3
#     Node 1, Type 0, BuildingBlock: PAMTOO_clean_linker_0, # of connection points: 3
#     Node 2, Type 0, BuildingBlock: PAMTOO_clean_linker_0, # of connection points: 3
#     Node 3, Type 0, BuildingBlock: PAMTOO_clean_linker_0, # of connection points: 3
#     Node 4, Type 0, BuildingBlock: PAMTOO_clean_linker_0, # of connection points: 3
#     Node 5, Type 0, BuildingBlock: PAMTOO_clean_linker_0, # of connection points: 3
#     Node 6, Type 0, BuildingBlock: PAMTOO_clean_linker_0, # of connection points: 3
#     Node 7, Type 0, BuildingBlock: PAMTOO_clean_linker_0, # of connection points: 3
#     Node 8, Type 0, BuildingBlock: PAMTOO_clean_linker_0, # of connection points: 3
#     Node 9, Type 0, BuildingBlock: PAMTOO_clean_linker_0, # of connection points: 3
#     Node 10, Type 0, BuildingBlock: PAMTOO_clean_linker_0, # of connection points: 3
#     Node 11, Type 0, BuildingBlock: PAMTOO_clean_linker_0, # of connection points: 3
#     Node 12, Type 0, BuildingBlock: PAMTOO_clean_linker_0, # of connection points: 3
#     Node 13, Type 0, BuildingBlock: PAMTOO_clean_linker_0, # of connection points: 3
#     Node 14, Type 0, BuildingBlock: PAMTOO_clean_linker_0, # of connection points: 3
#     Node 15, Type 0, BuildingBlock: PAMTOO_clean_linker_0, # of connection points: 3
#     Node 16, Type 0, BuildingBlock: PAMTOO_clean_linker_0, # of connection points: 3
#     Node 17, Type 0, BuildingBlock: PAMTOO_clean_linker_0, # of connection points: 3
#     Node 18, Type 1, BuildingBlock: KUMJIN_clean_sbu_0, # of connection points: 6
#     Node 19, Type 1, BuildingBlock: KUMJIN_clean_sbu_0, # of connection points: 6
#     Node 20, Type 1, BuildingBlock: KUMJIN_clean_sbu_0, # of connection points: 6
#     Node 21, Type 1, BuildingBlock: KUMJIN_clean_sbu_0, # of connection points: 6
#     Node 22, Type 1, BuildingBlock: KUMJIN_clean_sbu_0, # of connection points: 6
#     Node 23, Type 1, BuildingBlock: KUMJIN_clean_sbu_0, # of connection points: 6
#     Node 24, Type 1, BuildingBlock: KUMJIN_clean_sbu_0, # of connection points: 6
#     Node 25, Type 1, BuildingBlock: KUMJIN_clean_sbu_0, # of connection points: 6
#     Node 26, Type 1, BuildingBlock: KUMJIN_clean_sbu_0, # of connection points: 6
#     Edge 27, Type (0, 1), BuildingBlock: AJUNOK_clean_linker_0, # of connection points: 2
#     Edge 28, Type (0, 1), BuildingBlock: AJUNOK_clean_linker_0, # of connection points: 2
#     Edge 29, Type (0, 1), BuildingBlock: AJUNOK_clean_linker_0, # of connection points: 2
#     Edge 30, Type (0, 1), BuildingBlock: AJUNOK_clean_linker_0, # of connection points: 2
#     Edge 31, Type (0, 1), BuildingBlock: AJUNOK_clean_linker_0, # of connection points: 2
#     Edge 32, Type (0, 1), BuildingBlock: AJUNOK_clean_linker_0, # of connection points: 2
#     Edge 33, Type (0, 1), BuildingBlock: AJUNOK_clean_linker_0, # of connection points: 2
#     Edge 34, Type (0, 1), BuildingBlock: AJUNOK_clean_linker_0, # of connection points: 2
#     Edge 35, Type (0, 1), BuildingBlock: AJUNOK_clean_linker_0, # of connection points: 2
#     Edge 36, Type (0, 1), BuildingBlock: AJUNOK_clean_linker_0, # of connection points: 2
#     Edge 37, Type (0, 1), BuildingBlock: AJUNOK_clean_linker_0, # of connection points: 2
#     Edge 38, Type (0, 1), BuildingBlock: AJUNOK_clean_linker_0, # of connection points: 2
#     Edge 39, Type (0, 1), BuildingBlock: AJUNOK_clean_linker_0, # of connection points: 2
#     Edge 40, Type (0, 1), BuildingBlock: AJUNOK_clean_linker_0, # of connection points: 2
#     Edge 41, Type (0, 1), BuildingBlock: AJUNOK_clean_linker_0, # of connection points: 2
#     Edge 42, Type (0, 1), BuildingBlock: AJUNOK_clean_linker_0, # of connection points: 2
#     Edge 43, Type (0, 1), BuildingBlock: AJUNOK_clean_linker_0, # of connection points: 2
#     Edge 44, Type (0, 1), BuildingBlock: AJUNOK_clean_linker_0, # of connection points: 2
#     Edge 45, Type (0, 1), BuildingBlock: AJUNOK_clean_linker_0, # of connection points: 2
#     Edge 46, Type (0, 1), BuildingBlock: AJUNOK_clean_linker_0, # of connection points: 2
#     Edge 47, Type (0, 1), BuildingBlock: AJUNOK_clean_linker_0, # of connection points: 2
#     Edge 48, Type (0, 1), BuildingBlock: AJUNOK_clean_linker_0, # of connection points: 2
#     Edge 49, Type (0, 1), BuildingBlock: AJUNOK_clean_linker_0, # of connection points: 2
#     Edge 50, Type (0, 1), BuildingBlock: AJUNOK_clean_linker_0, # of connection points: 2
#     Edge 51, Type (0, 1), BuildingBlock: AJUNOK_clean_linker_0, # of connection points: 2
#     Edge 52, Type (0, 1), BuildingBlock: AJUNOK_clean_linker_0, # of connection points: 2
#     Edge 53, Type (0, 1), BuildingBlock: AJUNOK_clean_linker_0, # of connection points: 2
#     Edge 54, Type (0, 1), BuildingBlock: AJUNOK_clean_linker_0, # of connection points: 2
#     Edge 55, Type (0, 1), BuildingBlock: AJUNOK_clean_linker_0, # of connection points: 2
#     Edge 56, Type (0, 1), BuildingBlock: AJUNOK_clean_linker_0, # of connection points: 2
#     Edge 57, Type (0, 1), BuildingBlock: AJUNOK_clean_linker_0, # of connection points: 2
#     Edge 58, Type (0, 1), BuildingBlock: AJUNOK_clean_linker_0, # of connection points: 2
#     Edge 59, Type (0, 1), BuildingBlock: AJUNOK_clean_linker_0, # of connection points: 2
#     Edge 60, Type (0, 1), BuildingBlock: AJUNOK_clean_linker_0, # of connection points: 2
#     Edge 61, Type (0, 1), BuildingBlock: AJUNOK_clean_linker_0, # of connection points: 2
#     Edge 62, Type (0, 1), BuildingBlock: AJUNOK_clean_linker_0, # of connection points: 2
#     Edge 63, Type (0, 1), BuildingBlock: AJUNOK_clean_linker_0, # of connection points: 2
#     Edge 64, Type (0, 1), BuildingBlock: AJUNOK_clean_linker_0, # of connection points: 2
#     Edge 65, Type (0, 1), BuildingBlock: AJUNOK_clean_linker_0, # of connection points: 2
#     Edge 66, Type (0, 1), BuildingBlock: AJUNOK_clean_linker_0, # of connection points: 2
#     Edge 67, Type (0, 1), BuildingBlock: AJUNOK_clean_linker_0, # of connection points: 2
#     Edge 68, Type (0, 1), BuildingBlock: AJUNOK_clean_linker_0, # of connection points: 2
#     Edge 69, Type (0, 1), BuildingBlock: AJUNOK_clean_linker_0, # of connection points: 2
#     Edge 70, Type (0, 1), BuildingBlock: AJUNOK_clean_linker_0, # of connection points: 2
#     Edge 71, Type (0, 1), BuildingBlock: AJUNOK_clean_linker_0, # of connection points: 2
#     Edge 72, Type (0, 1), BuildingBlock: AJUNOK_clean_linker_0, # of connection points: 2
#     Edge 73, Type (0, 1), BuildingBlock: AJUNOK_clean_linker_0, # of connection points: 2
#     Edge 74, Type (0, 1), BuildingBlock: AJUNOK_clean_linker_0, # of connection points: 2
#     Edge 75, Type (0, 1), BuildingBlock: AJUNOK_clean_linker_0, # of connection points: 2
#     Edge 76, Type (0, 1), BuildingBlock: AJUNOK_clean_linker_0, # of connection points: 2
#     Edge 77, Type (0, 1), BuildingBlock: AJUNOK_clean_linker_0, # of connection points: 2
#     Edge 78, Type (0, 1), BuildingBlock: AJUNOK_clean_linker_0, # of connection points: 2
#     Edge 79, Type (0, 1), BuildingBlock: AJUNOK_clean_linker_0, # of connection points: 2
#     Edge 80, Type (0, 1), BuildingBlock: AJUNOK_clean_linker_0, # of connection points: 2
# Relax obj value: 0.024
# Max RMSD: 0.185
# Mean RMSD: 0.131
data_MOF--net-eea--node1-KUMJIN_clean_sbu_0--node2-PAMTOO_clean_linker_0--edge1-AJUNOK_clean_linker_0
_symmetry_space_group_name_H-M    P1
_symmetry_Int_Tables_number       1
_symmetry_cell_setting            triclinic
loop_
_symmetry_equiv_pos_as_xyz
'x, y, z'
_cell_length_a     39.115509
_cell_length_b     40.673681
_cell_length_c     51.854328
_cell_angle_alpha  89.762798
_cell_angle_beta   89.67898
_cell_angle_gamma 119.94963
loop_
_atom_site_label
_atom_site_type_symbol
_atom_site_fract_x
_atom_site_fract_y
_atom_site_fract_z
_atom_type_partial_charge
H0 H 0.2689 0.0574 0.43822 0.0
H1 H 0.26746 0.16253 0.43454 0.0
H2 H 0.21235 0.08003 0.37504 0.0
H3 H 0.24959 0.16258 0.35593 0.0
C4 C 0.25124 0.1751 0.37523 0.0
O5 O 0.22717 0.14661 0.39229 0.0
H6 H 0.2826 0.1889 0.38139 0.0
C7 C 0.26022 0.07582 0.42866 0.0
C8 C 0.2393 0.06417 0.40538 0.0
C9 C 0.27023 0.11101 0.43968 0.0
C10 C 0.25926 0.13483 0.42691 0.0
C11 C 0.23844 0.12366 0.40376 0.0
C12 C 0.22866 0.0885 0.39291 0.0
H13 H 0.96971 0.20882 0.43587 0.0
H14 H 0.87637 0.09218 0.43356 0.0
H15 H 0.96031 0.13802 0.37145 0.0
H16 H 0.87741 0.07999 0.35255 0.0
C17 C 0.86508 0.07019 0.37228 0.0
O18 O 0.89571 0.07786 0.38888 0.0
H19 H 0.85012 0.08636 0.3778 0.0
C20 C 0.95498 0.18163 0.42627 0.0
C21 C 0.97011 0.17717 0.40255 0.0
C22 C 0.92074 0.15142 0.43755 0.0
C23 C 0.90214 0.11619 0.42504 0.0
C24 C 0.91594 0.11153 0.40118 0.0
C25 C 0.95002 0.14186 0.39002 0.0
H26 H 0.82565 0.76568 0.43536 0.0
H27 H 0.94382 0.78371 0.43421 0.0
H28 H 0.90396 0.82533 0.37155 0.0
H29 H 0.9736 0.81553 0.35241 0.0
C30 C 0.97445 0.80304 0.37133 0.0
O31 O 0.96478 0.82084 0.39052 0.0
H32 H 0.95171 0.77244 0.37036 0.0
C33 C 0.85411 0.77696 0.42585 0.0
C34 C 0.86056 0.7958 0.40189 0.0
C35 C 0.88362 0.77215 0.4377 0.0
C36 C 0.9205 0.7866 0.42524 0.0
C37 C 0.9281 0.8058 0.40148 0.0
C38 C 0.89813 0.81064 0.38992 0.0
H39 H 0.07222 0.25276 0.60492 0.0
H40 H 0.16892 0.23048 0.6059 0.0
H41 H 0.0856 0.19205 0.66885 0.0
H42 H 0.16852 0.20622 0.68757 0.0
C43 C 0.18092 0.21521 0.6678 0.0
O44 O 0.15103 0.19537 0.65013 0.0
H45 H 0.19154 0.24618 0.66629 0.0
C46 C 0.08793 0.24036 0.61418 0.0
C47 C 0.07432 0.22199 0.63833 0.0
C48 C 0.12187 0.24355 0.6021 0.0
C49 C 0.14271 0.22834 0.61475 0.0
C50 C 0.13006 0.20998 0.63874 0.0
C51 C 0.09544 0.2063 0.65035 0.0
H52 H 0.76789 0.81506 0.60186 0.0
H53 H 0.78535 0.92821 0.60386 0.0
H54 H 0.81939 0.88568 0.66846 0.0
H55 H 0.79075 0.93892 0.68483 0.0
C56 C 0.79076 0.9496 0.66505 0.0
O57 O 0.81591 0.94363 0.64954 0.0
H58 H 0.75988 0.93343 0.65796 0.0
C59 C 0.77797 0.8416 0.61182 0.0
C60 C 0.79426 0.84641 0.63667 0.0
C61 C 0.77406 0.87068 0.59985 0.0
C62 C 0.78774 0.90526 0.61271 0.0
C63 C 0.80396 0.91046 0.63728 0.0
C64 C 0.80723 0.88124 0.64924 0.0
H65 H 0.20792 0.95502 0.60392 0.0
H66 H 0.09946 0.84767 0.60658 0.0
H67 H 0.12656 0.92812 0.6674 0.0
H68 H 0.07356 0.84775 0.68698 0.0
C69 C 0.06734 0.83444 0.66763 0.0
O70 O 0.0732 0.86153 0.64916 0.0
H71 H 0.08828 0.82379 0.66431 0.0
C72 C 0.18032 0.93552 0.61345 0.0
C73 C 0.17089 0.94581 0.63716 0.0
C74 C 0.15498 0.90029 0.60206 0.0
C75 C 0.11923 0.87522 0.61469 0.0
C76 C 0.10886 0.88523 0.63812 0.0
C77 C 0.13479 0.92044 0.64938 0.0
H78 H 0.93405 0.39214 0.77089 0.0
H79 H 0.92384 0.49257 0.76969 0.0
H80 H 0.88598 0.41846 0.70446 0.0
H81 H 0.91623 0.49826 0.68867 0.0
C82 C 0.91597 0.50964 0.70809 0.0
O83 O 0.89138 0.48005 0.72424 0.0
H84 H 0.94687 0.52402 0.71523 0.0
C85 C 0.92568 0.41048 0.76092 0.0
C86 C 0.91012 0.40131 0.73589 0.0
C87 C 0.93114 0.44344 0.77316 0.0
C88 C 0.91983 0.46701 0.7605 0.0
C89 C 0.90311 0.45763 0.73595 0.0
C90 C 0.89834 0.42496 0.72365 0.0
H91 H 0.63812 0.54162 0.76976 0.0
H92 H 0.54072 0.42692 0.77013 0.0
H93 H 0.62226 0.46758 0.70618 0.0
H94 H 0.53966 0.40888 0.68959 0.0
C95 C 0.52756 0.39971 0.70943 0.0
O96 O 0.55848 0.40848 0.72606 0.0
H97 H 0.5124 0.41582 0.71456 0.0
C98 C 0.62141 0.51434 0.76047 0.0
C99 C 0.634 0.50868 0.73621 0.0
C100 C 0.58761 0.48533 0.77285 0.0
C101 C 0.56706 0.44961 0.76108 0.0
C102 C 0.57943 0.4431 0.73716 0.0
C103 C 0.61309 0.47258 0.72481 0.0
H104 H 0.48621 0.09179 0.7668 0.0
H105 H 0.6023 0.10465 0.76317 0.0
H106 H 0.56361 0.15071 0.7026 0.0
H107 H 0.62956 0.13392 0.68292 0.0
C108 C 0.63378 0.12539 0.70249 0.0
O109 O 0.62401 0.14446 0.72068 0.0
H110 H 0.61334 0.09423 0.70433 0.0
C111 C 0.51416 0.10185 0.75683 0.0
C112 C 0.52045 0.12083 0.73296 0.0
C113 C 0.54319 0.09573 0.76813 0.0
C114 C 0.57973 0.10968 0.75526 0.0
C115 C 0.58751 0.12978 0.73185 0.0
C116 C 0.55781 0.13552 0.72076 0.0
H117 H 0.73656 0.58551 0.93869 0.0
H118 H 0.83395 0.56429 0.94079 0.0
H119 H 0.75028 0.52651 1.00354 0.0
H120 H 0.83207 0.53793 0.02291 0.0
C121 C 0.84482 0.54917 1.00349 0.0
O122 O 0.8158 0.52969 0.98524 0.0
H123 H 0.85345 0.57972 1.00356 0.0
C124 C 0.75244 0.57352 0.94826 0.0
C125 C 0.73888 0.55569 0.97256 0.0
C126 C 0.78653 0.57673 0.9364 0.0
C127 C 0.80763 0.56214 0.94946 0.0
C128 C 0.79491 0.54417 0.97357 0.0
C129 C 0.76013 0.54044 0.98493 0.0
H130 H 0.43663 0.15009 0.93612 0.0
H131 H 0.44914 0.26141 0.93707 0.0
H132 H 0.49621 0.22624 0.9988 0.0
H133 H 0.45161 0.26874 0.0154 0.0
C134 C 0.45521 0.28325 0.99651 0.0
O135 O 0.48263 0.27952 0.98184 0.0
H136 H 0.42599 0.26957 0.98685 0.0
C137 C 0.44815 0.17774 0.94486 0.0
C138 C 0.46918 0.18546 0.96809 0.0
C139 C 0.44104 0.20502 0.93324 0.0
C140 C 0.45426 0.23989 0.94558 0.0
C141 C 0.47297 0.24695 0.96945 0.0
C142 C 0.48078 0.22 0.98061 0.0
H143 H 0.87719 0.29628 0.93588 0.0
H144 H 0.76887 0.1891 0.93713 0.0
H145 H 0.79674 0.26567 1.00042 0.0
H146 H 0.74368 0.18775 0.01791 0.0
C147 C 0.73576 0.17429 0.99862 0.0
O148 O 0.74232 0.20173 0.98027 0.0
H149 H 0.75521 0.16218 0.99461 0.0
C150 C 0.85025 0.27603 0.94573 0.0
C151 C 0.84109 0.28541 0.96994 0.0
C152 C 0.82526 0.241 0.93398 0.0
C153 C 0.7889 0.21602 0.94595 0.0
C154 C 0.77833 0.22533 0.9696 0.0
C155 C 0.80466 0.25965 0.98172 0.0
H156 H 0.59803 0.72498 0.10415 0.0
H157 H 0.60316 0.83315 0.10068 0.0
H158 H 0.54739 0.75277 0.04001 0.0
H159 H 0.59579 0.83948 0.0237 0.0
C160 C 0.59228 0.85023 0.04264 0.0
O161 O 0.5652 0.81991 0.05739 0.0
H162 H 0.62149 0.86473 0.05228 0.0
C163 C 0.59112 0.74461 0.0945 0.0
C164 C 0.57088 0.73425 0.07096 0.0
C165 C 0.60282 0.78008 0.10563 0.0
C166 C 0.59386 0.80533 0.09284 0.0
C167 C 0.57416 0.79553 0.06919 0.0
C168 C 0.56294 0.76019 0.05818 0.0
H169 H 0.30041 0.8801 0.1009 0.0
H170 H 0.20807 0.76271 0.10047 0.0
H171 H 0.29223 0.8072 0.03841 0.0
H172 H 0.21002 0.74941 0.01931 0.0
C173 C 0.19709 0.7398 0.03892 0.0
O174 O 0.22721 0.74753 0.05601 0.0
H175 H 0.1821 0.75613 0.04393 0.0
C176 C 0.28614 0.85229 0.09218 0.0
C177 C 0.30141 0.84717 0.06876 0.0
C178 C 0.2527 0.822 0.10422 0.0
C179 C 0.23381 0.78661 0.09181 0.0
C180 C 0.24746 0.78147 0.06802 0.0
C181 C 0.28165 0.81149 0.05673 0.0
H182 H 0.15412 0.43559 0.10193 0.0
H183 H 0.26845 0.44451 0.10068 0.0
H184 H 0.234 0.49177 0.03835 0.0
H185 H 0.29797 0.47367 0.02004 0.0
C186 C 0.30177 0.46464 0.03956 0.0
O187 O 0.29261 0.48399 0.05788 0.0
H188 H 0.28065 0.43359 0.04117 0.0
C189 C 0.18204 0.44439 0.09227 0.0
C190 C 0.18965 0.46337 0.06834 0.0
C191 C 0.20959 0.43654 0.10395 0.0
C192 C 0.24667 0.45003 0.09197 0.0
C193 C 0.25587 0.47024 0.0685 0.0
C194 C 0.2272 0.47684 0.05667 0.0
H195 H 0.4094 0.92104 0.27184 0.0
H196 H 0.50935 0.904 0.27512 0.0
H197 H 0.42355 0.86213 0.33672 0.0
H198 H 0.50499 0.87295 0.35639 0.0
C199 C 0.51826 0.88465 0.33716 0.0
O200 O 0.48951 0.86631 0.31858 0.0
H201 H 0.52766 0.91537 0.33764 0.0
C202 C 0.42583 0.91 0.28186 0.0
C203 C 0.4118 0.89136 0.30586 0.0
C204 C 0.46081 0.91462 0.27055 0.0
C205 C 0.48244 0.90073 0.28362 0.0
C206 C 0.46908 0.88157 0.3073 0.0
C207 C 0.43365 0.87677 0.31836 0.0
H208 H 0.10299 0.47882 0.26794 0.0
H209 H 0.10933 0.58742 0.27006 0.0
H210 H 0.15176 0.55138 0.33404 0.0
H211 H 0.11143 0.5978 0.3485 0.0
C212 C 0.11587 0.61185 0.32936 0.0
O213 O 0.14235 0.60633 0.31493 0.0
H214 H 0.08674 0.59887 0.3196 0.0
C215 C 0.1105 0.50478 0.27807 0.0
C216 C 0.12775 0.51121 0.30268 0.0
C217 C 0.10324 0.53183 0.26627 0.0
C218 C 0.11479 0.56624 0.2788 0.0
C219 C 0.13205 0.57314 0.30314 0.0
C220 C 0.13861 0.54578 0.31508 0.0
H221 H 0.54392 0.6232 0.27128 0.0
H222 H 0.43352 0.518 0.27455 0.0
H223 H 0.46362 0.6001 0.33478 0.0
H224 H 0.40192 0.52485 0.35506 0.0
C225 C 0.4005 0.51004 0.33679 0.0
O226 O 0.40766 0.53478 0.31634 0.0
H227 H 0.42402 0.50229 0.33786 0.0
C228 C 0.51674 0.60404 0.28136 0.0
C229 C 0.50841 0.61519 0.30511 0.0
C230 C 0.49084 0.56861 0.27047 0.0
C231 C 0.4542 0.54526 0.28268 0.0
C232 C 0.44399 0.55687 0.30555 0.0
C233 C 0.47122 0.59176 0.31679 0.0
Eu234 Eu 0.49957 0.99358 0.98544 0.0
C235 C 0.57606 0.11445 0.07038 0.0
C236 C 0.64454 0.13031 0.06968 0.0
C237 C 0.62744 0.17804 0.08175 0.0
C238 C 0.60424 0.1041 0.06581 0.0
C239 C 0.58723 0.15118 0.07917 0.0
C240 C 0.65606 0.16762 0.07699 0.0
C241 C 0.51809 0.13062 0.08531 0.0
N242 N 0.53749 0.08767 0.06807 0.0
C243 C 0.50854 0.0945 0.07671 0.0
C244 C 0.55759 0.1593 0.08612 0.0
Eu245 Eu 0.5236 0.0273 0.05317 0.0
N246 N 0.59208 0.06779 0.05893 0.0
C247 C 0.61837 0.05508 0.05725 0.0
C248 C 0.67189 0.11792 0.0668 0.0
C249 C 0.65866 0.07997 0.06099 0.0
H250 H 0.47798 0.07226 0.07617 0.0
H251 H 0.67949 0.06993 0.05913 0.0
H252 H 0.68692 0.1883 0.07974 0.0
H253 H 0.49501 0.13627 0.09137 0.0
H254 H 0.6085 0.02589 0.05257 0.0
H255 H 0.34535 0.96178 0.98203 0.0
H256 H 0.70313 0.13719 0.06955 0.0
H257 H 0.53249 0.93621 0.96132 0.0
H258 H 0.41685 1.0027 0.9811 0.0
H259 H 0.50758 0.86796 0.95548 0.0
H260 H 0.63665 0.20655 0.08819 0.0
H261 H 0.31571 0.89209 0.98284 0.0
H262 H 0.325 0.83566 0.98068 0.0
H263 H 0.56495 0.18718 0.09298 0.0
H264 H 0.36933 0.80993 0.97387 0.0
N265 N 0.42931 0.95709 0.98274 0.0
C266 C 0.40518 0.97253 0.98188 0.0
C267 C 0.34753 0.91 0.98255 0.0
C268 C 0.37213 0.89428 0.98151 0.0
C269 C 0.36415 0.9493 0.98211 0.0
C270 C 0.41346 0.91885 0.98121 0.0
H271 H 0.43727 0.82171 0.96399 0.0
N272 N 0.47781 0.92876 0.97565 0.0
C273 C 0.48788 0.87764 0.96221 0.0
C274 C 0.43844 0.90427 0.97773 0.0
C275 C 0.50194 0.9163 0.96585 0.0
C276 C 0.44822 0.85167 0.96702 0.0
C277 C 0.42268 0.86492 0.97401 0.0
O278 O 0.5318 0.99774 0.94987 0.0
O279 O 0.54777 0.02859 0.01378 0.0
O280 O 0.51761 0.07187 0.02998 0.0
O281 O 0.48122 0.03702 0.9944 0.0
O282 O 0.55302 0.05119 0.97734 0.0
O283 O 0.48411 0.01038 0.94913 0.0
O284 O 0.48713 0.0066 0.08826 0.0
O285 O 0.47921 0.98265 0.02697 0.0
O286 O 0.53333 0.96673 1.00249 0.0
O287 O 0.53735 0.97982 0.04655 0.0
O288 O 0.45834 0.00689 0.05322 0.0
O289 O 0.54281 0.00822 0.08692 0.0
C290 C 0.56882 0.05729 0.99964 0.0
C291 C 0.50077 0.99234 0.90951 0.0
C292 C 0.50356 1.00261 0.86261 0.0
C293 C 0.51182 0.01705 0.88798 0.0
C294 C 0.48377 0.96296 0.85941 0.0
C295 C 0.48053 0.95305 0.90568 0.0
C296 C 0.47222 0.93852 0.88075 0.0
C297 C 0.49674 0.06761 1.00896 0.0
C298 C 0.51123 0.00813 0.93572 0.0
C299 C 0.38182 0.84025 0.97615 0.0
C300 C 0.35658 0.85491 0.97994 0.0
C301 C 0.44812 0.98066 0.03618 0.0
C302 C 0.52023 0.01534 0.1279 0.0
C303 C 0.50813 0.98985 0.14908 0.0
C304 C 0.51443 1.00347 0.17473 0.0
C305 C 0.5333 0.04296 0.17853 0.0
C306 C 0.53941 0.05443 0.13249 0.0
C307 C 0.54582 0.06809 0.15762 0.0
C308 C 0.54103 0.96165 0.02655 0.0
C309 C 0.51233 1.00112 0.10113 0.0
H310 H 0.52637 0.04738 0.8911 0.0
H311 H 0.47733 0.95071 0.84032 0.0
H312 H 0.47124 0.93362 0.9219 0.0
H313 H 0.45685 0.90813 0.87791 0.0
H314 H 0.49425 0.95969 0.14548 0.0
H315 H 0.53805 0.05456 0.19779 0.0
H316 H 0.54937 0.07447 0.11668 0.0
H317 H 0.56037 0.09835 0.16092 0.0
Eu318 Eu 0.0396 0.5095 0.98688 0.0
C319 C 0.90886 0.45901 0.07108 0.0
C320 C 0.88824 0.50613 0.07042 0.0
C321 C 0.84156 0.44115 0.08312 0.0
C322 C 0.91728 0.49578 0.06619 0.0
C323 C 0.87112 0.43144 0.08007 0.0
C324 C 0.85012 0.47845 0.07835 0.0
C325 C 0.89552 0.38758 0.08438 0.0
N326 N 0.93815 0.45063 0.06822 0.0
C327 C 0.93256 0.41598 0.07565 0.0
C328 C 0.86452 0.3952 0.08633 0.0
Eu329 Eu 0.99956 0.49975 0.05241 0.0
N330 N 0.95442 0.5219 0.05858 0.0
C331 C 0.96511 0.5593 0.05639 0.0
C332 C 0.89862 0.54417 0.06713 0.0
C333 C 0.93735 0.57093 0.06037 0.0
H334 H 0.95644 0.40995 0.07409 0.0
H335 H 0.94581 0.60049 0.05801 0.0
H336 H 0.82731 0.48577 0.08137 0.0
H337 H 0.89092 0.35986 0.08962 0.0
H338 H 0.99473 0.58021 0.05086 0.0
H339 H 0.09956 0.41348 0.98748 0.0
H340 H 0.87715 0.55325 0.07011 0.0
H341 H 0.07853 0.59564 0.9595 0.0
H342 H 0.04777 0.43097 0.99056 0.0
H343 H 0.14307 0.64609 0.9428 0.0
H344 H 0.81228 0.42027 0.08977 0.0
H345 H 0.16837 0.46249 0.97721 0.0
H346 H 0.21638 0.52991 0.96432 0.0
H347 H 0.83591 0.3732 0.09321 0.0
H348 H 0.22819 0.59324 0.95186 0.0
N349 N 0.08693 0.48958 0.98286 0.0
C350 C 0.07758 0.45265 0.98594 0.0
C351 C 0.14572 0.47035 0.97853 0.0
C352 C 0.15454 0.50763 0.97359 0.0
C353 C 0.1069 0.44259 0.98424 0.0
C354 C 0.12399 0.51638 0.97571 0.0
H355 H 0.2008 0.63653 0.94315 0.0
N356 N 0.0999 0.55846 0.96956 0.0
C357 C 0.14004 0.61982 0.95016 0.0
C358 C 0.13068 0.55196 0.96875 0.0
C359 C 0.10355 0.59121 0.95953 0.0
C360 C 0.17258 0.61436 0.95047 0.0
C361 C 0.16802 0.57987 0.95945 0.0
O362 O 0.01991 0.51877 0.94961 0.0
O363 O 0.99174 0.50852 1.01103 0.0
O364 O 0.95424 0.45044 0.02874 0.0
O365 O 0.99614 0.44753 0.99809 0.0
O366 O 1.01267 0.54765 0.98147 0.0
O367 O 0.01844 0.46574 0.95731 0.0
O368 O 1.01723 0.48601 0.08895 0.0
O369 O 0.04878 0.50213 0.02858 0.0
O370 O 0.08317 0.56179 1.00841 0.0
O371 O 0.04452 0.56228 0.04267 0.0
O372 O 0.02437 0.45992 0.05616 0.0
O373 O 0.02108 0.54066 0.08383 0.0
C374 C 0.98721 0.53386 1.00003 0.0
C375 C 0.02998 0.4884 0.91434 0.0
C376 C 0.02115 0.48255 0.86777 0.0
C377 C 1.00568 0.47998 0.89272 0.0
C378 C 0.06131 0.49399 0.86472 0.0
C379 C 0.06987 0.49931 0.91097 0.0
C380 C 0.08544 0.50217 0.88625 0.0
C381 C 0.96163 0.4323 1.01036 0.0
C382 C 1.01356 0.48658 0.94018 0.0
C383 C 0.19914 0.57201 0.95864 0.0
C384 C 0.19242 0.53595 0.96574 0.0
C385 C 0.05203 0.47566 0.03904 0.0
C386 C 1.00788 0.51403 0.12589 0.0
C387 C 0.03026 0.5157 0.14744 0.0
C388 C 1.01433 0.5109 0.17248 0.0
C389 C 0.97584 0.50472 0.17569 0.0
C390 C 0.96957 0.50792 0.12949 0.0
C391 C 0.95366 0.50325 0.15428 0.0
C392 C 0.07689 0.57899 0.02796 0.0
C393 C 0.02451 0.51764 0.09985 0.0
H394 H 0.97492 0.47186 0.89529 0.0
H395 H 0.07386 0.49606 0.8457 0.0
H396 H 0.08895 0.50563 0.92736 0.0
H397 H 0.11627 0.51069 0.88377 0.0
H398 H 0.05988 0.52037 0.14473 0.0
H399 H 0.96317 0.50165 0.19478 0.0
H400 H 0.95199 0.50685 0.11323 0.0
H401 H 0.92411 0.49865 0.15691 0.0
Eu402 Eu 0.53997 0.51138 0.05452 0.0
C403 C 0.46474 0.56261 0.96828 0.0
C404 C 0.39539 0.51513 0.96971 0.0
C405 C 0.41554 0.57956 0.95608 0.0
C406 C 0.43528 0.52595 0.97377 0.0
C407 C 0.45528 0.58959 0.95874 0.0
C408 C 0.38563 0.54237 0.96155 0.0
C409 C 0.52502 0.63308 0.95257 0.0
N410 N 0.5028 0.57119 0.97069 0.0
C411 C 0.53287 0.60523 0.96189 0.0
C412 C 0.48607 0.62543 0.95134 0.0
Eu413 Eu 0.51411 0.52338 0.98782 0.0
N414 N 0.44577 0.50028 0.98143 0.0
C415 C 0.41801 0.46266 0.98323 0.0
C416 C 0.36662 0.47701 0.97314 0.0
C417 C 0.37807 0.45057 0.97947 0.0
H418 H 0.56305 0.61128 0.96294 0.0
H419 H 0.35614 0.42086 0.98161 0.0
H420 H 0.35512 0.5347 0.95868 0.0
H421 H 0.549 0.66038 0.94632 0.0
H422 H 0.42618 0.44178 0.98823 0.0
H423 H 0.69383 0.62698 0.05446 0.0
H424 H 0.33566 0.46757 0.97029 0.0
H425 H 0.50503 0.42622 0.08271 0.0
H426 H 0.62188 0.59889 0.05306 0.0
H427 H 0.52868 0.38201 0.09489 0.0
H428 H 0.40766 0.60002 0.94907 0.0
H429 H 0.72326 0.58592 0.05982 0.0
H430 H 0.71339 0.52084 0.06796 0.0
H431 H 0.48003 0.64696 0.94395 0.0
H432 H 0.66821 0.45362 0.0786 0.0
N433 N 0.60988 0.54189 0.05734 0.0
C434 C 0.63392 0.58039 0.05567 0.0
C435 C 0.69146 0.57331 0.05936 0.0
C436 C 0.66671 0.53418 0.06263 0.0
C437 C 0.67496 0.59658 0.05643 0.0
C438 C 0.62548 0.51918 0.06179 0.0
H439 H 0.59925 0.4017 0.08924 0.0
N440 N 0.56089 0.46872 0.06847 0.0
C441 C 0.54904 0.40965 0.08682 0.0
C442 C 0.60014 0.4813 0.06737 0.0
C443 C 0.53569 0.43453 0.07981 0.0
C444 C 0.58886 0.42084 0.08355 0.0
C445 C 0.6152 0.45749 0.07447 0.0
O446 O 0.5068 0.49315 0.09083 0.0
O447 O 0.49473 0.51349 0.02928 0.0
O448 O 0.52198 0.57481 1.00957 0.0
O449 O 0.55278 0.57177 0.04739 0.0
O450 O 0.47347 0.47214 0.05775 0.0
O451 O 0.5583 0.5488 0.08814 0.0
O452 O 0.54789 0.53759 0.95157 0.0
O453 O 0.55935 0.52055 0.0129 0.0
O454 O 0.52608 0.45778 0.03362 0.0
O455 O 0.49359 0.46106 0.99674 0.0
O456 O 0.57997 0.56385 0.98593 0.0
O457 O 0.49615 0.48245 0.95651 0.0
C458 C 0.46336 0.48731 0.03959 0.0
C459 C 0.54219 0.51841 0.12919 0.0
C460 C 0.53858 0.52212 0.17625 0.0
C461 C 0.52929 0.52937 0.15132 0.0
C462 C 0.55953 0.50241 0.1785 0.0
C463 C 0.56495 0.50084 0.13215 0.0
C464 C 0.57307 0.49243 0.15664 0.0
C465 C 0.54072 0.5893 0.03138 0.0
C466 C 0.53054 0.52393 0.10321 0.0
C467 C 0.65611 0.47164 0.07363 0.0
C468 C 0.68183 0.50994 0.06765 0.0
C469 C 0.5905 0.54784 1.00316 0.0
C470 C 0.51123 0.50796 0.91421 0.0
C471 C 0.53146 0.50472 0.89265 0.0
C472 C 0.51969 0.5074 0.8674 0.0
C473 C 0.48706 0.51267 0.86414 0.0
C474 C 0.47898 0.51348 0.91036 0.0
C475 C 0.46699 0.51576 0.88548 0.0
C476 C 0.50444 0.44264 0.0129 0.0
C477 C 0.52376 0.50557 0.94061 0.0
H478 H 0.51245 0.54376 0.14909 0.0
H479 H 0.56557 0.49468 0.19723 0.0
H480 H 0.57615 0.4932 0.1156 0.0
H481 H 0.58984 0.47799 0.15868 0.0
H482 H 0.55646 0.50052 0.8955 0.0
H483 H 0.47674 0.51394 0.84503 0.0
H484 H 0.46286 0.51574 0.92657 0.0
H485 H 0.4419 0.51978 0.88271 0.0
Eu486 Eu 0.16721 0.32339 0.31972 0.0
C487 C 0.23974 0.44789 0.40488 0.0
C488 C 0.30938 0.46815 0.40601 0.0
C489 C 0.2872 0.51244 0.41731 0.0
C490 C 0.26998 0.4401 0.40116 0.0
C491 C 0.2479 0.48392 0.4135 0.0
C492 C 0.31789 0.50456 0.41358 0.0
C493 C 0.17763 0.45989 0.41614 0.0
N494 N 0.20211 0.41957 0.4014 0.0
C495 C 0.17104 0.42455 0.40782 0.0
C496 C 0.21625 0.48985 0.41872 0.0
Eu497 Eu 0.19318 0.36095 0.38623 0.0
N498 N 0.26073 0.40461 0.39387 0.0
C499 C 0.28927 0.39467 0.39258 0.0
C500 C 0.33895 0.45852 0.40363 0.0
C501 C 0.32876 0.42148 0.39717 0.0
H502 H 0.14112 0.40148 0.4058 0.0
H503 H 0.35134 0.41361 0.39549 0.0
H504 H 0.34801 0.52657 0.41712 0.0
H505 H 0.15295 0.46397 0.42061 0.0
H506 H 0.28202 0.36643 0.3872 0.0
H507 H 1.00669 0.25792 0.31879 0.0
H508 H 0.36958 0.47927 0.40708 0.0
H509 H 0.22316 0.29036 0.29413 0.0
H510 H 0.07544 0.31022 0.32222 0.0
H511 H 0.21546 0.2299 0.2781 0.0
H512 H 0.2941 0.5404 0.42371 0.0
H513 H 0.99308 0.19304 0.30884 0.0
H514 H 0.01938 0.14995 0.29673 0.0
H515 H 0.22129 0.51714 0.42534 0.0
H516 H 0.07626 0.14237 0.28543 0.0
N517 N 0.10048 0.27531 0.31508 0.0
C518 C 0.06988 0.28215 0.31775 0.0
C519 C 0.02331 0.21594 0.31033 0.0
C520 C 0.0549 0.20965 0.30588 0.0
C521 C 0.03086 0.25252 0.31586 0.0
C522 C 0.09367 0.24041 0.30824 0.0
H523 H 0.14943 0.17223 0.27783 0.0
N524 N 0.16228 0.26683 0.30341 0.0
C525 C 0.18997 0.23117 0.28496 0.0
C526 C 0.12558 0.23602 0.30214 0.0
C527 C 0.19423 0.26536 0.29402 0.0
C528 C 0.15265 0.19866 0.28489 0.0
C529 C 0.11976 0.20093 0.29316 0.0
O530 O 0.20075 0.34886 0.28418 0.0
O531 O 0.21179 0.3686 0.34497 0.0
O532 O 0.18677 0.40381 0.36144 0.0
O533 O 0.14406 0.36345 0.33014 0.0
O534 O 0.23384 0.34999 0.31582 0.0
O535 O 0.1414 0.33872 0.28758 0.0
O536 O 0.15803 0.34158 0.42182 0.0
O537 O 0.14828 0.31484 0.36137 0.0
O538 O 0.1784 0.28223 0.34215 0.0
O539 O 0.21475 0.31881 0.37714 0.0
O540 O 0.1272 0.33752 0.3884 0.0
O541 O 0.21126 0.33832 0.41856 0.0
C542 C 0.24333 0.37345 0.33466 0.0
C543 C 0.16431 0.33477 0.24576 0.0
C544 C 0.16892 0.34471 0.19881 0.0
C545 C 0.17495 0.35938 0.22414 0.0
C546 C 0.15366 0.30547 0.19568 0.0
C547 C 0.14764 0.29569 0.24182 0.0
C548 C 0.14275 0.28123 0.21699 0.0
C549 C 0.16075 0.39599 0.34284 0.0
C550 C 0.17194 0.34973 0.27236 0.0
C551 C 0.08132 0.1697 0.29196 0.0
C552 C 0.04894 0.17403 0.29838 0.0
C553 C 0.11699 0.31157 0.37119 0.0
C554 C 0.19201 0.34675 0.46045 0.0
C555 C 0.17537 0.32122 0.48149 0.0
C556 C 0.18408 0.33437 0.50719 0.0
C557 C 0.2096 0.37339 0.51124 0.0
C558 C 0.21746 0.38534 0.46523 0.0
C559 C 0.22613 0.39852 0.49045 0.0
C560 C 0.20141 0.28829 0.36227 0.0
C561 C 0.18213 0.3333 0.43361 0.0
H562 H 0.1874 0.38959 0.22701 0.0
H563 H 0.15012 0.2934 0.17663 0.0
H564 H 0.1387 0.27629 0.25793 0.0
H565 H 0.13053 0.25105 0.21424 0.0
H566 H 0.15615 0.29128 0.47782 0.0
H567 H 0.21658 0.38463 0.5306 0.0
H568 H 0.23055 0.40533 0.44947 0.0
H569 H 0.24568 0.42844 0.49393 0.0
Eu570 Eu 0.71009 0.84034 0.31949 0.0
C571 C 0.57712 0.78732 0.40205 0.0
C572 C 0.55655 0.83449 0.40267 0.0
C573 C 0.50949 0.76885 0.41359 0.0
C574 C 0.58572 0.82438 0.39819 0.0
C575 C 0.53914 0.75929 0.41031 0.0
C576 C 0.5182 0.80639 0.40981 0.0
C577 C 0.5636 0.71541 0.41402 0.0
N578 N 0.60662 0.77919 0.39927 0.0
C579 C 0.60091 0.74428 0.40613 0.0
C580 C 0.53244 0.72281 0.41584 0.0
Eu581 Eu 0.66852 0.82919 0.3848 0.0
N582 N 0.62311 0.85091 0.39135 0.0
C583 C 0.6338 0.88838 0.39006 0.0
C584 C 0.56703 0.87269 0.40041 0.0
C585 C 0.60594 0.89979 0.39435 0.0
H586 H 0.62493 0.73843 0.40469 0.0
H587 H 0.61445 0.92946 0.39275 0.0
H588 H 0.4953 0.81355 0.41302 0.0
H589 H 0.55893 0.68751 0.41877 0.0
H590 H 0.66357 0.90956 0.38507 0.0
H591 H 0.77356 0.74733 0.32077 0.0
H592 H 0.54548 0.8816 0.40364 0.0
H593 H 0.74781 0.92676 0.29249 0.0
H594 H 0.72057 0.76336 0.32336 0.0
H595 H 0.81216 0.97836 0.27649 0.0
H596 H 0.48002 0.74763 0.4197 0.0
H597 H 0.84215 0.79756 0.31115 0.0
H598 H 0.88921 0.86547 0.29877 0.0
H599 H 0.50363 0.70048 0.42217 0.0
H600 H 0.89969 0.9284 0.28648 0.0
N601 N 0.75877 0.82211 0.31598 0.0
C602 C 0.75027 0.78544 0.31899 0.0
C603 C 0.81896 0.80472 0.31224 0.0
C604 C 0.82696 0.84178 0.30741 0.0
C605 C 0.78028 0.77628 0.31758 0.0
C606 C 0.79573 0.8496 0.30923 0.0
H607 H 0.87091 0.97047 0.27749 0.0
N608 N 0.77029 0.89058 0.30294 0.0
C609 C 0.80967 0.95232 0.28387 0.0
C610 C 0.8017 0.88499 0.30245 0.0
C611 C 0.77329 0.92305 0.29288 0.0
C612 C 0.84279 0.9478 0.28454 0.0
C613 C 0.83895 0.91358 0.2935 0.0
O614 O 0.68863 0.8486 0.28262 0.0
O615 O 0.66192 0.83907 0.34344 0.0
O616 O 0.62358 0.78103 0.36021 0.0
O617 O 0.66625 0.77809 0.33018 0.0
O618 O 0.68313 0.87842 0.31398 0.0
O619 O 0.69294 0.79823 0.2889 0.0
O620 O 0.6861 0.81471 0.42104 0.0
O621 O 0.71824 0.83205 0.36126 0.0
O622 O 0.75278 0.89242 0.34149 0.0
O623 O 0.7135 0.89201 0.3757 0.0
O624 O 0.6933 0.7893 0.38842 0.0
O625 O 0.68852 0.86885 0.41703 0.0
C626 C 0.65763 0.8646 0.33252 0.0
C627 C 0.70351 0.82329 0.24648 0.0
C628 C 0.69648 0.82104 0.19963 0.0
C629 C 0.6796 0.81404 0.22456 0.0
C630 C 0.73764 0.83716 0.1971 0.0
C631 C 0.74433 0.83875 0.24345 0.0
C632 C 0.76128 0.84572 0.21889 0.0
C633 C 0.63155 0.76276 0.34226 0.0
C634 C 0.68578 0.8182 0.27232 0.0
C635 C 0.8707 0.90663 0.29297 0.0
C636 C 0.86473 0.8708 0.29997 0.0
C637 C 0.72141 0.80546 0.37163 0.0
C638 C 0.67549 0.84059 0.45858 0.0
C639 C 0.6997 0.84843 0.48023 0.0
C640 C 0.68338 0.84148 0.50532 0.0
C641 C 0.6425 0.82691 0.50829 0.0
C642 C 0.63495 0.82649 0.46205 0.0
C643 C 0.61857 0.81967 0.48678 0.0
C644 C 0.74605 0.90914 0.36115 0.0
C645 C 0.69258 0.8457 0.43256 0.0
H646 H 0.64793 0.80108 0.22701 0.0
H647 H 0.75161 0.84328 0.17824 0.0
H648 H 0.76312 0.84552 0.26001 0.0
H649 H 0.79288 0.85794 0.21673 0.0
H650 H 0.73118 0.86018 0.47748 0.0
H651 H 0.62895 0.82088 0.52728 0.0
H652 H 0.61595 0.82059 0.44572 0.0
H653 H 0.58719 0.80853 0.48928 0.0
Eu654 Eu 0.21021 0.84294 0.38717 0.0
C655 C 0.13465 0.89505 0.30275 0.0
C656 C 0.06505 0.84818 0.30377 0.0
C657 C 0.08617 0.91312 0.29092 0.0
C658 C 0.10478 0.85839 0.30782 0.0
C659 C 0.12575 0.92261 0.29363 0.0
C660 C 0.05587 0.87596 0.29597 0.0
C661 C 0.1957 0.96561 0.28791 0.0
N662 N 0.17256 0.90308 0.30511 0.0
C663 C 0.203 0.93721 0.29681 0.0
C664 C 0.15692 0.95847 0.28665 0.0
Eu665 Eu 0.18285 0.85411 0.32112 0.0
N666 N 0.11472 0.83214 0.31506 0.0
C667 C 0.08649 0.7947 0.31688 0.0
C668 C 0.03584 0.81014 0.30695 0.0
C669 C 0.04669 0.78322 0.31319 0.0
H670 H 0.23304 0.94287 0.29781 0.0
H671 H 0.02439 0.75363 0.31533 0.0
H672 H 0.02549 0.86874 0.2931 0.0
H673 H 0.21996 0.99296 0.282 0.0
H674 H 0.09425 0.77356 0.32186 0.0
H675 H 0.36933 0.94127 0.38616 0.0
H676 H 1.00499 0.80117 0.30412 0.0
H677 H 0.16055 0.75727 0.41486 0.0
H678 H 0.29904 0.92234 0.38277 0.0
H679 H 0.17393 0.70913 0.43421 0.0
H680 H 0.07873 0.93401 0.28419 0.0
H681 H 0.38842 0.89353 0.39752 0.0
H682 H 0.36758 0.82702 0.41186 0.0
H683 H 0.15131 0.98043 0.27958 0.0
H684 H 0.31435 0.764 0.42568 0.0
N685 N 0.27841 0.86407 0.39095 0.0
C686 C 0.3069 0.90118 0.38768 0.0
C687 C 0.35748 0.885 0.3959 0.0
C688 C 0.32805 0.84762 0.4012 0.0
C689 C 0.34683 0.91205 0.38959 0.0
C690 C 0.28821 0.83793 0.39862 0.0
H691 H 0.24225 0.72051 0.43524 0.0
N692 N 0.22047 0.79472 0.40449 0.0
C693 C 0.1979 0.73507 0.42615 0.0
C694 C 0.25831 0.80221 0.40584 0.0
C695 C 0.1904 0.76228 0.41517 0.0
C696 C 0.2365 0.74159 0.42666 0.0
C697 C 0.26734 0.77559 0.4166 0.0
O698 O 0.17761 0.83281 0.42349 0.0
O699 O 0.16442 0.84478 0.36254 0.0
O700 O 0.18919 0.90407 0.34431 0.0
O701 O 0.22941 0.90474 0.37765 0.0
O702 O 0.14366 0.80456 0.39157 0.0
O703 O 0.23434 0.88353 0.41884 0.0
O704 O 0.21536 0.86787 0.28445 0.0
O705 O 0.22897 0.85146 0.34539 0.0
O706 O 0.19871 0.79019 0.3659 0.0
O707 O 0.16169 0.79157 0.33111 0.0
O708 O 0.24894 0.8942 0.31813 0.0
O709 O 0.16293 0.81319 0.2896 0.0
C710 C 0.1332 0.8191 0.37323 0.0
C711 C 0.21553 0.85738 0.461 0.0
C712 C 0.20826 0.85971 0.50783 0.0
C713 C 0.20004 0.86674 0.48254 0.0
C714 C 0.23205 0.84306 0.51101 0.0
C715 C 0.2399 0.84171 0.46485 0.0
C716 C 0.24788 0.83439 0.48969 0.0
C717 C 0.2125 0.92049 0.36422 0.0
C718 C 0.20521 0.86295 0.43465 0.0
C719 C 0.30686 0.78434 0.41789 0.0
C720 C 0.33716 0.82023 0.41004 0.0
C721 C 0.25999 0.87837 0.33518 0.0
C722 C 0.17712 0.83976 0.24741 0.0
C723 C 0.19566 0.83561 0.22526 0.0
C724 C 0.18376 0.83981 0.20033 0.0
C725 C 0.15309 0.8482 0.19807 0.0
C726 C 0.14644 0.84781 0.24448 0.0
C727 C 0.1346 0.85208 0.21999 0.0
C728 C 0.17497 0.77387 0.34618 0.0
C729 C 0.19021 0.83624 0.27345 0.0
H730 H 0.18219 0.87993 0.47953 0.0
H731 H 0.23849 0.8367 0.53008 0.0
H732 H 0.25276 0.83511 0.44871 0.0
H733 H 0.26642 0.82191 0.49243 0.0
H734 H 0.21886 0.82865 0.22747 0.0
H735 H 0.14353 0.85201 0.17929 0.0
H736 H 0.13153 0.85072 0.26108 0.0
H737 H 0.111 0.85848 0.21798 0.0
Eu738 Eu 0.829 0.65595 0.65313 0.0
C739 C 0.90123 0.77922 0.7386 0.0
C740 C 0.9709 0.79956 0.73939 0.0
C741 C 0.94878 0.84388 0.75074 0.0
C742 C 0.93146 0.77148 0.73468 0.0
C743 C 0.90944 0.81525 0.74722 0.0
C744 C 0.97946 0.83603 0.74685 0.0
C745 C 0.83918 0.79093 0.75066 0.0
N746 N 0.86358 0.75078 0.73542 0.0
C747 C 0.83256 0.75558 0.74234 0.0
C748 C 0.8778 0.82106 0.7528 0.0
Eu749 Eu 0.85461 0.69228 0.7199 0.0
N750 N 0.92215 0.73594 0.72751 0.0
C751 C 0.9506 0.72586 0.72649 0.0
C752 C 1.00042 0.78986 0.73708 0.0
C753 C 0.99012 0.75268 0.73098 0.0
H754 H 0.80265 0.73238 0.74062 0.0
H755 H 1.01263 0.7447 0.72951 0.0
H756 H 1.00961 0.85809 0.75024 0.0
H757 H 0.81452 0.7949 0.75545 0.0
H758 H 0.94321 0.69745 0.72143 0.0
H759 H 0.66865 0.59224 0.65057 0.0
H760 H 0.03108 0.81063 0.74044 0.0
H761 H 0.8847 0.6232 0.62697 0.0
H762 H 0.73745 0.64361 0.6554 0.0
H763 H 0.87672 0.56354 0.60925 0.0
H764 H 0.95571 0.87186 0.7571 0.0
H765 H 0.65447 0.52773 0.63889 0.0
H766 H 0.68033 0.48479 0.62545 0.0
H767 H 0.88287 0.84836 0.75941 0.0
H768 H 0.73704 0.47709 0.61383 0.0
N769 N 0.76212 0.60857 0.64749 0.0
C770 C 0.73175 0.61574 0.65023 0.0
C771 C 0.68477 0.55022 0.64107 0.0
C772 C 0.71616 0.54369 0.63649 0.0
C773 C 0.69265 0.58661 0.64754 0.0
C774 C 0.75503 0.57393 0.63976 0.0
H775 H 0.81033 0.50654 0.60715 0.0
N776 N 0.82358 0.60001 0.6353 0.0
C777 C 0.85119 0.56478 0.61606 0.0
C778 C 0.7868 0.56955 0.63329 0.0
C779 C 0.8556 0.59855 0.62609 0.0
C780 C 0.81368 0.53264 0.61498 0.0
C781 C 0.78081 0.53489 0.6233 0.0
O782 O 0.86238 0.68009 0.61729 0.0
O783 O 0.87396 0.70086 0.67863 0.0
O784 O 0.84692 0.73489 0.69589 0.0
O785 O 0.80535 0.69551 0.6638 0.0
O786 O 0.89547 0.68129 0.64971 0.0
O787 O 0.80565 0.67602 0.62232 0.0
O788 O 0.81969 0.67234 0.75557 0.0
O789 O 0.80997 0.64672 0.69465 0.0
O790 O 0.83799 0.61326 0.67563 0.0
O791 O 0.8759 0.65033 0.70996 0.0
O792 O 0.78857 0.66841 0.72218 0.0
O793 O 0.87305 0.66948 0.75192 0.0
C794 C 0.90532 0.70495 0.6684 0.0
C795 C 0.825 0.67094 0.5797 0.0
C796 C 0.83406 0.68241 0.53299 0.0
C797 C 0.84242 0.69605 0.55853 0.0
C798 C 0.80761 0.64361 0.52904 0.0
C799 C 0.79875 0.63242 0.57509 0.0
C800 C 0.79012 0.61891 0.54993 0.0
C801 C 0.82128 0.72746 0.67713 0.0
C802 C 0.83504 0.68464 0.60648 0.0
C803 C 0.74225 0.50408 0.62121 0.0
C804 C 0.70996 0.50846 0.62784 0.0
C805 C 0.77862 0.64324 0.70443 0.0
C806 C 0.85436 0.6779 0.79396 0.0
C807 C 0.83824 0.65252 0.81512 0.0
C808 C 0.84738 0.66591 0.84075 0.0
C809 C 0.87282 0.70499 0.8446 0.0
C810 C 0.87977 0.71656 0.79856 0.0
C811 C 0.88887 0.72996 0.8237 0.0
C812 C 0.86173 0.61946 0.6954 0.0
C813 C 0.84408 0.66427 0.76717 0.0
H814 H 0.86278 0.72586 0.56192 0.0
H815 H 0.80006 0.63244 0.50968 0.0
H816 H 0.78488 0.61275 0.59095 0.0
H817 H 0.76974 0.58913 0.5466 0.0
H818 H 0.81909 0.62253 0.81158 0.0
H819 H 0.88009 0.71642 0.8639 0.0
H820 H 0.89251 0.73643 0.78271 0.0
H821 H 0.90837 0.75993 0.82702 0.0
Eu822 Eu 0.37327 0.17202 0.65472 0.0
C823 C 0.23964 0.11728 0.738 0.0
C824 C 0.21765 0.16322 0.73542 0.0
C825 C 0.17183 0.09858 0.74921 0.0
C826 C 0.24727 0.15342 0.73202 0.0
C827 C 0.20224 0.08981 0.74756 0.0
C828 C 0.17955 0.13528 0.74316 0.0
C829 C 0.22951 0.04939 0.75703 0.0
N830 N 0.27 0.1102 0.73695 0.0
C831 C 0.26611 0.07769 0.74757 0.0
C832 C 0.19719 0.05513 0.75649 0.0
Eu833 Eu 0.33102 0.15875 0.72007 0.0
N834 N 0.28456 0.1798 0.72495 0.0
C835 C 0.29493 0.21716 0.72308 0.0
C836 C 0.22765 0.20112 0.73199 0.0
C837 C 0.26665 0.22831 0.72627 0.0
H838 H 0.2911 0.07322 0.74809 0.0
H839 H 0.27491 0.25785 0.72408 0.0
H840 H 0.15626 0.14213 0.74545 0.0
H841 H 0.22631 0.02324 0.76478 0.0
H842 H 0.32475 0.23842 0.71831 0.0
H843 H 0.41326 0.0609 0.65181 0.0
H844 H 0.20578 0.20982 0.7344 0.0
H845 H 0.4249 0.26109 0.63208 0.0
H846 H 0.3682 0.08649 0.65513 0.0
H847 H 0.49364 0.30724 0.61898 0.0
H848 H 0.14274 0.0777 0.75616 0.0
H849 H 0.48477 0.10429 0.64511 0.0
H850 H 0.54041 0.1705 0.63682 0.0
H851 H 0.16895 0.0333 0.76403 0.0
H852 H 0.56239 0.23766 0.62793 0.0
N853 N 0.41366 0.14414 0.65075 0.0
C854 C 0.39922 0.10586 0.65199 0.0
C855 C 0.46508 0.11576 0.64646 0.0
C856 C 0.47937 0.15473 0.64369 0.0
C857 C 0.42472 0.09117 0.65014 0.0
C858 C 0.45252 0.16823 0.64574 0.0
H859 H 0.545 0.28869 0.6206 0.0
N860 N 0.43793 0.21766 0.64158 0.0
C861 C 0.48606 0.279 0.62532 0.0
C862 C 0.46506 0.20616 0.64107 0.0
C863 C 0.44727 0.25289 0.63265 0.0
C864 C 0.51499 0.26845 0.62636 0.0
C865 C 0.50453 0.23143 0.6338 0.0
O866 O 0.36185 0.19118 0.6181 0.0
O867 O 0.32375 0.16883 0.67848 0.0
O868 O 0.28803 0.1056 0.69852 0.0
O869 O 0.32347 0.11061 0.66066 0.0
O870 O 0.34849 0.21205 0.65137 0.0
O871 O 0.35396 0.13465 0.62124 0.0
O872 O 0.3523 0.14766 0.75613 0.0
O873 O 0.38013 0.16132 0.69608 0.0
O874 O 0.41705 0.22124 0.67886 0.0
O875 O 0.37566 0.22159 0.71104 0.0
O876 O 0.35543 0.11862 0.72334 0.0
O877 O 0.35029 0.19944 0.75166 0.0
C878 C 0.32061 0.19557 0.66832 0.0
C879 C 0.37179 0.1649 0.5803 0.0
C880 C 0.36447 0.15915 0.53349 0.0
C881 C 0.34769 0.15273 0.55843 0.0
C882 C 0.4058 0.17731 0.53093 0.0
C883 C 0.41284 0.18254 0.57727 0.0
C884 C 0.42971 0.18868 0.5527 0.0
C885 C 0.293 0.09174 0.67662 0.0
C886 C 0.35363 0.16009 0.60597 0.0
C887 C 0.53181 0.21855 0.63312 0.0
C888 C 0.51927 0.18028 0.63813 0.0
C889 C 0.38267 0.13408 0.70592 0.0
C890 C 0.33928 0.17232 0.79339 0.0
C891 C 0.36325 0.17957 0.81506 0.0
C892 C 0.34674 0.17221 0.84009 0.0
C893 C 0.30587 0.15774 0.84299 0.0
C894 C 0.29879 0.15861 0.79678 0.0
C895 C 0.28218 0.15123 0.82145 0.0
C896 C 0.40954 0.23826 0.69793 0.0
C897 C 0.35659 0.178 0.76739 0.0
H898 H 0.31592 0.13808 0.56093 0.0
H899 H 0.4197 0.18301 0.51206 0.0
H900 H 0.43189 0.19174 0.59378 0.0
H901 H 0.46146 0.20257 0.55052 0.0
H902 H 0.39474 0.19134 0.81236 0.0
H903 H 0.29219 0.15141 0.86195 0.0
H904 H 0.28001 0.15361 0.78043 0.0
H905 H 0.25082 0.14034 0.82388 0.0
Eu906 Eu 0.87408 0.17679 0.71879 0.0
C907 C 0.80459 0.23566 0.63515 0.0
C908 C 0.73462 0.19015 0.63392 0.0
C909 C 0.75813 0.25646 0.62372 0.0
C910 C 0.77379 0.19896 0.63858 0.0
C911 C 0.79721 0.26469 0.62713 0.0
C912 C 0.72689 0.21924 0.62706 0.0
C913 C 0.86769 0.30687 0.62395 0.0
N914 N 0.842 0.24247 0.63814 0.0
C915 C 0.87351 0.27704 0.63162 0.0
C916 C 0.82937 0.30081 0.62201 0.0
Eu917 Eu 0.84946 0.19106 0.65269 0.0
N918 N 0.78229 0.17151 0.64513 0.0
C919 C 0.7533 0.13431 0.64561 0.0
C920 C 0.70453 0.15224 0.63563 0.0
C921 C 0.71401 0.12413 0.64113 0.0
H922 H 0.90321 0.2819 0.63319 0.0
H923 H 0.69105 0.09465 0.64216 0.0
H924 H 0.69696 0.2131 0.62373 0.0
H925 H 0.89275 0.33448 0.61949 0.0
H926 H 0.76011 0.1124 0.6502 0.0
H927 H 0.03435 0.26665 0.72291 0.0
H928 H 0.67406 0.1443 0.63228 0.0
H929 H 0.81777 0.08849 0.74242 0.0
H930 H 0.96564 0.25239 0.71814 0.0
H931 H 0.82549 0.03519 0.7581 0.0
H932 H 0.75183 0.27846 0.61781 0.0
H933 H 0.04826 0.21493 0.73285 0.0
H934 H 0.02215 0.14625 0.74414 0.0
H935 H 0.82493 0.32389 0.61587 0.0
H936 H 0.96526 0.08327 0.75401 0.0
N937 N 0.9408 0.1932 0.72452 0.0
C938 C 0.97125 0.22966 0.7226 0.0
C939 C 0.01801 0.20854 0.73074 0.0
C940 C 0.98652 0.17159 0.73437 0.0
C941 C 1.01029 0.23782 0.72524 0.0
C942 C 0.94772 0.16478 0.73123 0.0
H943 H 0.89186 0.04182 0.75981 0.0
N944 N 0.87902 0.12462 0.73477 0.0
C945 C 0.85113 0.06146 0.75201 0.0
C946 C 0.91582 0.12937 0.73664 0.0
C947 C 0.84686 0.09173 0.74314 0.0
C948 C 0.88863 0.06529 0.75288 0.0
C949 C 0.92165 0.09973 0.74551 0.0
O950 O 0.84046 0.16742 0.75458 0.0
O951 O 0.82902 0.17982 0.6938 0.0
O952 O 0.85601 0.23965 0.67729 0.0
O953 O 0.89782 0.23951 0.70896 0.0
O954 O 0.80739 0.13824 0.72194 0.0
O955 O 0.89822 0.21692 0.75081 0.0
O956 O 0.88431 0.20538 0.61706 0.0
O957 O 0.89424 0.18726 0.67748 0.0
O958 O 0.86651 0.12727 0.69522 0.0
O959 O 0.8274 0.12809 0.66174 0.0
O960 O 0.91584 0.23029 0.65048 0.0
O961 O 0.8297 0.15205 0.62 0.0
C962 C 0.79747 0.1534 0.70375 0.0
C963 C 0.87732 0.19009 0.79265 0.0
C964 C 0.87286 0.19509 0.83954 0.0
C965 C 0.86535 0.20296 0.81428 0.0
C966 C 0.89122 0.17312 0.84267 0.0
C967 C 0.89676 0.16942 0.79648 0.0
C968 C 0.90335 0.16074 0.82131 0.0
C969 C 0.88179 0.25647 0.69593 0.0
C970 C 0.86829 0.1969 0.7662 0.0
C971 C 0.96017 0.1058 0.74749 0.0
C972 C 0.99257 0.14166 0.74187 0.0
C973 C 0.92583 0.21407 0.6679 0.0
C974 C 0.84895 0.18094 0.57864 0.0
C975 C 0.86483 0.17224 0.55696 0.0
C976 C 0.85598 0.17893 0.53177 0.0
C977 C 0.83201 0.1954 0.52876 0.0
C978 C 0.82441 0.19647 0.57498 0.0
C979 C 0.8162 0.20385 0.5502 0.0
C980 C 0.84231 0.11082 0.67574 0.0
C981 C 0.85897 0.17493 0.60498 0.0
H982 H 0.85065 0.21929 0.81145 0.0
H983 H 0.89614 0.16534 0.86172 0.0
H984 H 0.90657 0.15967 0.78031 0.0
H985 H 0.91782 0.14421 0.82401 0.0
H986 H 0.88366 0.16002 0.55968 0.0
H987 H 0.82566 0.20203 0.50975 0.0
H988 H 0.8118 0.20317 0.59125 0.0
H989 H 0.79761 0.2163 0.54761 0.0
C990 C 0.34062 0.91515 0.05395 0.0
C991 C 0.33785 0.8795 0.0571 0.0
C992 C 0.37592 0.94714 0.04578 0.0
C993 C 0.40994 0.94488 0.0402 0.0
H994 H 0.31547 0.91855 0.0584 0.0
H995 H 0.37691 0.97419 0.04442 0.0
S996 S 0.41891 0.85857 0.0462 0.0
N997 N 0.37248 0.84393 0.0541 0.0
N998 N 0.43897 0.90421 0.03928 0.0
C999 C 0.40755 0.90935 0.04297 0.0
C1000 C 0.37144 0.87662 0.05113 0.0
C1001 C 0.11846 0.43537 0.0558 0.0
C1002 C 0.15687 0.4672 0.05617 0.0
C1003 C 0.08544 0.4385 0.04907 0.0
C1004 C 0.089 0.4735 0.04193 0.0
H1005 H 0.11362 0.40777 0.06172 0.0
H1006 H 0.05654 0.41327 0.05007 0.0
S1007 S 0.18288 0.56556 0.03854 0.0
N1008 N 0.19657 0.5349 0.04768 0.0
N1009 N 0.1345 0.54081 0.03514 0.0
C1010 C 0.12735 0.50542 0.04115 0.0
C1011 C 0.16122 0.50222 0.04807 0.0
C1012 C 0.5688 0.69303 0.03426 0.0
C1013 C 0.5588 0.69639 0.05989 0.0
C1014 C 0.56175 0.65794 0.02461 0.0
C1015 C 0.54478 0.62535 0.04038 0.0
H1016 H 0.58357 0.71793 0.02194 0.0
H1017 H 0.57114 0.65667 1.00515 0.0
S1018 S 0.50753 0.61773 0.10729 0.0
N1019 N 0.52661 0.66303 0.09964 0.0
N1020 N 0.51421 0.59755 0.08168 0.0
C1021 C 0.53282 0.62795 0.06549 0.0
C1022 C 0.53959 0.66336 0.07521 0.0
C1023 C 0.91126 0.33383 0.98071 0.0
C1024 C 0.87064 0.32173 0.98262 0.0
C1025 C 0.9402 0.36908 0.99018 0.0
C1026 C 0.93001 0.39374 1.00255 0.0
H1027 H 0.921 0.31603 0.97149 0.0
H1028 H 0.97091 0.37711 0.98762 0.0
S1029 S 0.82813 0.37569 0.01365 0.0
N1030 N 0.82195 0.33766 0.99826 0.0
N1031 N 0.87622 0.40301 0.01707 0.0
C1032 C 0.88955 0.38152 1.00561 0.0
C1033 C 0.85996 0.3458 0.99548 0.0
C1034 C 0.66965 0.5194 0.99222 0.0
C1035 C 0.70289 0.55412 0.98458 0.0
C1036 C 0.63366 0.51733 0.99968 0.0
C1037 C 0.62974 0.54999 1.00008 0.0
H1038 H 0.67083 0.4934 0.99121 0.0
H1039 H 0.60839 0.48982 1.00412 0.0
S1040 S 0.70909 0.64823 0.98516 0.0
N1041 N 0.73017 0.62222 0.98055 0.0
N1042 N 0.66315 0.61825 0.99399 0.0
C1043 C 0.66328 0.58489 0.99365 0.0
C1044 C 0.69965 0.58702 0.98622 0.0
C1045 C 0.47169 0.14658 1.00526 0.0
C1046 C 0.47893 0.1573 0.97902 0.0
C1047 C 0.47857 0.11822 0.01529 0.0
C1048 C 0.49275 0.09971 0.99938 0.0
H1049 H 0.45952 0.15934 0.01791 0.0
H1050 H 0.47127 0.10977 0.03528 0.0
S1051 S 0.52107 0.12053 0.93032 0.0
N1052 N 0.50475 0.14961 0.9381 0.0
N1053 N 0.51681 0.09609 0.95681 0.0
C1054 C 0.50143 0.11115 0.97344 0.0
C1055 C 0.49476 0.14002 0.9633 0.0
C1056 C 0.66278 0.1528 1.00308 0.0
C1057 C 0.69256 0.14335 0.99928 0.0
C1058 C 0.62264 0.12462 1.00428 0.0
C1059 C 0.61092 0.0859 1.00266 0.0
H1060 H 0.67061 0.18225 1.00489 0.0
H1061 H 0.60058 0.13314 1.00636 0.0
S1062 S 0.67653 0.04577 0.99238 0.0
N1063 N 0.70693 0.09206 0.99371 0.0
N1064 N 0.63169 0.03951 0.99605 0.0
C1065 C 0.64016 0.07604 0.99874 0.0
C1066 C 0.68093 0.1046 0.9973 0.0
C1067 C 0.8789 0.50945 1.00469 0.0
C1068 C 0.88104 0.54455 0.99963 0.0
C1069 C 0.91309 0.50593 1.00478 0.0
C1070 C 0.95089 0.53742 1.00015 0.0
H1071 H 0.85071 0.48476 1.00938 0.0
H1072 H 0.90994 0.47848 1.00885 0.0
S1073 S 0.97261 0.63493 0.98402 0.0
N1074 N 0.92428 0.61091 0.9883 0.0
N1075 N 0.98794 0.60421 0.98867 0.0
C1076 C 0.95317 0.57217 0.99396 0.0
C1077 C 0.91852 0.57579 0.99378 0.0
C1078 C 0.46855 0.33843 0.0249 0.0
C1079 C 0.46821 0.32458 1.00009 0.0
C1080 C 0.47957 0.37649 0.02869 0.0
C1081 C 0.49095 0.40224 1.00791 0.0
H1082 H 0.45998 0.31967 0.04152 0.0
H1083 H 0.47833 0.3855 0.04802 0.0
S1084 S 0.49271 0.37959 0.9389 0.0
N1085 N 0.47788 0.33889 0.95418 0.0
N1086 N 0.49976 0.41086 0.96146 0.0
C1087 C 0.48976 0.38857 0.98291 0.0
C1088 C 0.47819 0.34966 0.97899 0.0
C1089 C 0.1733 0.6735 0.02235 0.0
C1090 C 0.16716 0.6977 0.03853 0.0
C1091 C 0.14444 0.63516 0.01973 0.0
C1092 C 0.10794 0.61923 0.03304 0.0
H1093 H 0.20033 0.68453 1.01115 0.0
H1094 H 0.1509 0.61803 1.00692 0.0
S1095 S 0.07979 0.66987 0.08062 0.0
N1096 N 0.12388 0.70248 0.07016 0.0
N1097 N 0.06938 0.63061 0.06513 0.0
C1098 C 0.10243 0.64281 0.05043 0.0
C1099 C 0.13206 0.68191 0.0532 0.0
C1100 C 0.35138 0.44192 0.04534 0.0
C1101 C 0.34418 0.47232 0.04178 0.0
C1102 C 0.38989 0.44735 0.04451 0.0
C1103 C 0.42307 0.48327 0.03954 0.0
H1104 H 0.32692 0.41342 0.04834 0.0
H1105 H 0.39366 0.42292 0.04723 0.0
S1106 S 0.42103 0.57305 0.03161 0.0
N1107 N 0.37404 0.54022 0.03474 0.0
N1108 N 0.44621 0.55047 0.03367 0.0
C1109 C 0.41651 0.5142 0.03695 0.0
C1110 C 0.3772 0.50868 0.03785 0.0
C1111 C 0.58321 0.8965 0.01495 0.0
C1112 C 0.57871 0.87883 0.03907 0.0
C1113 C 0.57165 0.92371 1.01121 0.0
C1114 C 0.55494 0.93424 0.0314 0.0
H1115 H 0.59588 0.8893 0.99882 0.0
H1116 H 0.57632 0.93683 0.99237 0.0
S1117 S 0.53965 0.89828 0.09893 0.0
N1118 N 0.55924 0.87577 0.084 0.0
N1119 N 0.53602 0.9257 0.07684 0.0
C1120 C 0.55129 0.91747 0.05586 0.0
C1121 C 0.56356 0.89013 0.05972 0.0
C1122 C 1.01001 0.24609 0.38992 0.0
C1123 C 1.00642 0.20989 0.39099 0.0
C1124 C 0.04529 0.27822 0.38196 0.0
C1125 C 0.0786 0.27571 0.37459 0.0
H1126 H 0.98556 0.24979 0.39588 0.0
H1127 H 0.04691 0.3056 0.38231 0.0
S1128 S 0.08469 0.18755 0.37343 0.0
N1129 N 0.03911 0.17331 0.38321 0.0
N1130 N 0.10553 0.2338 0.36873 0.0
C1131 C 0.07514 0.23956 0.37477 0.0
C1132 C 0.03901 0.20666 0.38275 0.0
C1133 C 0.78895 0.76669 0.38962 0.0
C1134 C 0.8271 0.79888 0.39005 0.0
C1135 C 0.75565 0.76921 0.38253 0.0
C1136 C 0.75867 0.80394 0.37522 0.0
H1137 H 0.78456 0.73927 0.39556 0.0
H1138 H 0.72697 0.74369 0.38333 0.0
S1139 S 0.85162 0.8969 0.37253 0.0
N1140 N 0.86589 0.86672 0.38179 0.0
N1141 N 0.80335 0.87149 0.36879 0.0
C1142 C 0.79674 0.83627 0.37478 0.0
C1143 C 0.83086 0.83369 0.38196 0.0
C1144 C 0.23854 0.02381 0.36839 0.0
C1145 C 0.22912 0.02668 0.39427 0.0
C1146 C 0.23242 0.98916 0.35839 0.0
C1147 C 0.21681 0.9564 0.37398 0.0
H1148 H 0.25193 0.04875 0.35606 0.0
H1149 H 0.24122 0.98837 0.33869 0.0
S1150 S 0.18215 0.94743 0.44167 0.0
N1151 N 0.19963 0.99262 0.43431 0.0
N1152 N 0.18854 0.92797 0.41555 0.0
C1153 C 0.20578 0.95853 0.39944 0.0
C1154 C 0.2118 0.99354 0.40958 0.0
C1155 C 0.53018 0.6781 0.32715 0.0
C1156 C 0.53936 0.65117 0.31728 0.0
C1157 C 0.56 0.71368 0.33599 0.0
C1158 C 0.60016 0.72386 0.33503 0.0
H1159 H 0.49995 0.67222 0.32721 0.0
H1160 H 0.55162 0.73385 0.34278 0.0
S1161 S 0.63921 0.66129 0.31518 0.0
N1162 N 0.59121 0.63551 0.31053 0.0
N1163 N 0.64683 0.7024 0.32618 0.0
C1164 C 0.60944 0.69652 0.32644 0.0
C1165 C 0.5792 0.66023 0.31785 0.0
C1166 C 0.36848 0.91916 0.3171 0.0
C1167 C 0.37431 0.88762 0.31712 0.0
C1168 C 0.33203 0.91579 0.32417 0.0
C1169 C 0.29944 0.8808 0.33185 0.0
H1170 H 0.39214 0.94672 0.31092 0.0
H1171 H 0.32907 0.94086 0.32305 0.0
S1172 S 0.29875 0.78931 0.33515 0.0
N1173 N 0.34414 0.82012 0.3258 0.0
N1174 N 0.27565 0.81369 0.33879 0.0
C1175 C 0.30502 0.84913 0.33261 0.0
C1176 C 0.34239 0.85261 0.32545 0.0
C1177 C 0.17107 0.49181 0.32643 0.0
C1178 C 0.13445 0.48181 0.31517 0.0
C1179 C 0.17889 0.46401 0.33635 0.0
C1180 C 0.15051 0.42518 0.33515 0.0
H1181 H 0.19433 0.52123 0.32681 0.0
H1182 H 0.20789 0.47292 0.34408 0.0
S1183 S 0.04792 0.38456 0.31162 0.0
N1184 N 0.06796 0.43065 0.30651 0.0
N1185 N 0.08293 0.37861 0.32455 0.0
C1186 C 0.11319 0.41501 0.32516 0.0
C1187 C 0.10511 0.44324 0.31532 0.0
C1188 C 0.32552 0.47701 0.3393 0.0
C1189 C 0.3599 0.47475 0.3349 0.0
C1190 C 0.28778 0.44425 0.3396 0.0
C1191 C 0.28308 0.40795 0.33581 0.0
H1192 H 0.32791 0.50429 0.34291 0.0
H1193 H 0.2622 0.44739 0.34283 0.0
S1194 S 0.36313 0.38655 0.3224 0.0
N1195 N 0.38628 0.43311 0.32568 0.0
N1196 N 0.31575 0.37192 0.32645 0.0
C1197 C 0.31706 0.40547 0.3307 0.0
C1198 C 0.35533 0.4387 0.33031 0.0
C1199 C 0.55032 0.84309 0.33725 0.0
C1200 C 0.55381 0.879 0.33322 0.0
C1201 C 0.58374 0.83831 0.33708 0.0
C1202 C 0.62209 0.86935 0.33319 0.0
H1203 H 0.52161 0.81869 0.34129 0.0
H1204 H 0.57952 0.81021 0.3403 0.0
S1205 S 0.64738 0.96869 0.31998 0.0
N1206 N 0.59895 0.94566 0.32377 0.0
N1207 N 0.66118 0.93665 0.32359 0.0
C1208 C 0.62575 0.90496 0.32807 0.0
C1209 C 0.59188 0.90983 0.32819 0.0
C1210 C 0.11189 0.67186 0.32342 0.0
C1211 C 0.13186 0.65379 0.33315 0.0
C1212 C 0.12634 0.71074 0.32737 0.0
C1213 C 0.1612 0.73304 0.34132 0.0
H1214 H 0.08475 0.65578 0.31282 0.0
H1215 H 0.10963 0.72317 0.31973 0.0
S1216 S 0.22595 0.69916 0.36872 0.0
N1217 N 0.18898 0.66098 0.35596 0.0
N1218 N 0.21641 0.73383 0.36343 0.0
C1219 C 0.18175 0.71518 0.35064 0.0
C1220 C 0.16704 0.67568 0.34654 0.0
C1221 C 0.84197 1.00402 0.35586 0.0
C1222 C 0.83537 0.02807 0.37188 0.0
C1223 C 0.81344 0.96559 0.35328 0.0
C1224 C 0.77679 0.94941 0.36642 0.0
H1225 H 0.86913 0.01523 0.34478 0.0
H1226 H 0.82029 0.9486 0.34061 0.0
S1227 S 0.74759 0.99957 0.41371 0.0
N1228 N 0.7916 0.03245 0.40332 0.0
N1229 N 0.73768 0.96037 0.39831 0.0
C1230 C 0.77085 0.97282 0.3837 0.0
C1231 C 0.80016 0.01204 0.38645 0.0
C1232 C 0.04989 0.84322 0.36963 0.0
C1233 C 1.01566 0.80795 0.37469 0.0
C1234 C 0.08789 0.847 0.3691 0.0
C1235 C 0.09314 0.81551 0.37325 0.0
H1236 H 0.04715 0.86787 0.3653 0.0
H1237 H 0.11321 0.87464 0.36511 0.0
S1238 S 1.01389 0.71765 0.38925 0.0
N1239 N 0.99033 0.74156 0.38557 0.0
N1240 N 0.06105 0.74857 0.38431 0.0
C1241 C 0.0594 0.78059 0.37941 0.0
C1242 C 0.02091 0.77678 0.38008 0.0
C1243 C 0.20704 0.19776 0.3569 0.0
C1244 C 0.23797 0.20411 0.37343 0.0
C1245 C 0.19488 0.22465 0.35414 0.0
C1246 C 0.21332 0.2593 0.36761 0.0
H1247 H 0.19236 0.17189 0.34578 0.0
H1248 H 0.17075 0.21801 0.34122 0.0
S1249 S 0.2923 0.28687 0.41625 0.0
N1250 N 0.28408 0.24533 0.40566 0.0
N1251 N 0.26172 0.29627 0.40031 0.0
C1252 C 0.24299 0.265 0.38531 0.0
C1253 C 0.25519 0.23735 0.38824 0.0
C1254 C 0.70194 0.53902 0.7154 0.0
C1255 C 0.66854 0.54131 0.72311 0.0
C1256 C 0.73716 0.57169 0.70739 0.0
C1257 C 0.73996 0.60761 0.70673 0.0
H1258 H 0.70159 0.5123 0.71699 0.0
H1259 H 0.76289 0.56915 0.70314 0.0
S1260 S 0.65906 0.62759 0.72056 0.0
N1261 N 0.63923 0.58162 0.72611 0.0
N1262 N 0.70512 0.64259 0.71157 0.0
C1263 C 0.70597 0.60961 0.71264 0.0
C1264 C 0.67034 0.5766 0.72061 0.0
C1265 C 0.4907 0.1594 0.71479 0.0
C1266 C 0.48689 0.12397 0.72138 0.0
C1267 C 0.45735 0.16275 0.70835 0.0
C1268 C 0.41902 0.13073 0.70806 0.0
H1269 H 0.51927 0.18491 0.7159 0.0
H1270 H 0.46141 0.19071 0.70467 0.0
S1271 S 0.39373 0.0312 0.72037 0.0
N1272 N 0.44196 0.05598 0.7244 0.0
N1273 N 0.38 0.06239 0.71298 0.0
C1274 C 0.41531 0.09518 0.71341 0.0
C1275 C 0.44898 0.09174 0.71971 0.0
C1276 C 0.87054 0.34216 0.70992 0.0
C1277 C 0.90552 0.36659 0.72306 0.0
C1278 C 0.86402 0.30747 0.70001 0.0
C1279 C 0.89169 0.29535 0.70346 0.0
H1280 H 0.84738 0.34922 0.70801 0.0
H1281 H 0.83647 0.28948 0.69038 0.0
S1282 S 0.99141 0.35216 0.73149 0.0
N1283 N 0.97102 0.37897 0.73493 0.0
N1284 N 0.95775 0.31298 0.71752 0.0
C1285 C 0.92776 0.32048 0.71509 0.0
C1286 C 0.93486 0.35621 0.72462 0.0
C1287 C 0.21568 0.01641 0.63346 0.0
C1288 C 0.19952 0.98314 0.6487 0.0
C1289 C 0.24573 0.05126 0.64278 0.0
C1290 C 0.26081 0.05441 0.66777 0.0
H1291 H 0.20529 0.01538 0.61399 0.0
H1292 H 0.25727 0.07603 0.6303 0.0
S1293 S 0.23093 0.97562 0.71476 0.0
N1294 N 0.20205 0.9555 0.68976 0.0
N1295 N 0.25881 0.02095 0.70708 0.0
C1296 C 0.24498 0.02153 0.68325 0.0
C1297 C 0.21426 0.98595 0.67378 0.0
C1298 C 1.00481 0.1854 0.65757 0.0
C1299 C 0.03837 0.22028 0.65056 0.0
C1300 C 0.96877 0.18331 0.6649 0.0
C1301 C 0.96505 0.21608 0.66565 0.0
H1302 H 1.00579 0.15934 0.65608 0.0
H1303 H 0.94323 0.15573 0.66874 0.0
S1304 S 0.04547 0.3147 0.65326 0.0
N1305 N 0.06631 0.28861 0.64806 0.0
N1306 N 0.99921 0.28461 0.66137 0.0
C1307 C 0.99902 0.25114 0.66024 0.0
C1308 C 0.03545 0.25328 0.65292 0.0
C1309 C 0.83318 0.82426 0.66276 0.0
C1310 C 0.79852 0.8155 0.64923 0.0
C1311 C 0.83921 0.79562 0.67306 0.0
C1312 C 0.81152 0.75705 0.66954 0.0
H1313 H 0.85647 0.85344 0.66479 0.0
H1314 H 0.86642 0.80386 0.68307 0.0
S1315 S 0.71249 0.71885 0.64046 0.0
N1316 N 0.73316 0.76528 0.63693 0.0
N1317 N 0.74571 0.71166 0.65488 0.0
C1318 C 0.7758 0.74787 0.65743 0.0
C1319 C 0.76909 0.77701 0.64755 0.0
C1320 C 1.01717 0.76406 0.66479 0.0
C1321 C 0.02504 0.80166 0.66738 0.0
C1322 C 0.97836 0.73321 0.66561 0.0
C1323 C 0.94579 0.7385 0.66961 0.0
H1324 H 0.04121 0.75838 0.66215 0.0
H1325 H 0.97379 0.70483 0.66333 0.0
S1326 S 0.95034 0.83146 0.67564 0.0
N1327 N 0.99699 0.84252 0.67321 0.0
N1328 N 0.92407 0.78469 0.67412 0.0
C1329 C 0.95318 0.77598 0.6717 0.0
C1330 C 0.99276 0.80743 0.67088 0.0
C1331 C 0.25427 0.2391 0.66125 0.0
C1332 C 0.21568 0.20817 0.66461 0.0
C1333 C 0.2876 0.2344 0.66209 0.0
C1334 C 0.28405 0.19871 0.66689 0.0
H1335 H 0.25893 0.26748 0.65867 0.0
H1336 H 0.31658 0.25925 0.65985 0.0
S1337 S 0.18961 0.10773 0.67365 0.0
N1338 N 0.1759 0.13999 0.67077 0.0
N1339 N 0.2383 0.13111 0.67192 0.0
C1340 C 0.24559 0.16721 0.66891 0.0
C1341 C 0.21157 0.17199 0.66799 0.0
C1342 C 0.83682 0.01511 0.68144 0.0
C1343 C 0.80458 0.99142 0.66599 0.0
C1344 C 0.84957 0.05382 0.68355 0.0
C1345 C 0.83028 0.07047 0.67058 0.0
H1346 H 0.85204 1.00348 0.69224 0.0
H1347 H 0.87467 0.07067 0.69568 0.0
S1348 S 0.74768 0.02118 0.62458 0.0
N1349 N 0.75631 0.98766 0.6351 0.0
N1350 N 0.77967 0.06037 0.63939 0.0
C1351 C 0.79927 0.04732 0.65388 0.0
C1352 C 0.78654 0.00783 0.65154 0.0
C1353 C 0.50657 0.3327 0.69541 0.0
C1354 C 0.49824 0.35734 0.7095 0.0
C1355 C 0.47829 0.29411 0.69273 0.0
C1356 C 0.44015 0.27845 0.70373 0.0
H1357 H 0.5349 0.34358 0.68581 0.0
H1358 H 0.48641 0.27657 0.68162 0.0
S1359 S 0.40569 0.33016 0.74573 0.0
N1360 N 0.45088 0.36266 0.73708 0.0
N1361 N 0.39755 0.29049 0.7318 0.0
C1362 C 0.43239 0.30244 0.71923 0.0
C1363 C 0.4614 0.34174 0.72213 0.0
C1364 C 0.68504 0.10442 0.70693 0.0
C1365 C 0.67661 0.13421 0.70467 0.0
C1366 C 0.72408 0.11121 0.70634 0.0
C1367 C 0.75665 0.148 0.70286 0.0
H1368 H 0.66117 0.07539 0.70883 0.0
H1369 H 0.7288 0.08723 0.70819 0.0
S1370 S 0.7511 0.23631 0.69826 0.0
N1371 N 0.70448 0.20224 0.7001 0.0
N1372 N 0.7777 0.21506 0.6995 0.0
C1373 C 0.74879 0.17821 0.70135 0.0
C1374 C 0.70892 0.17128 0.70201 0.0
C1375 C 0.87198 0.53159 0.68836 0.0
C1376 C 0.90141 0.53761 0.70615 0.0
C1377 C 0.85862 0.55759 0.68568 0.0
C1378 C 0.87439 0.59098 0.70049 0.0
H1379 H 0.85943 0.50669 0.67623 0.0
H1380 H 0.83576 0.55133 0.67175 0.0
S1381 S 0.94808 0.6166 0.7527 0.0
N1382 N 0.94283 0.57669 0.74092 0.0
N1383 N 0.91832 0.62602 0.73578 0.0
C1384 C 0.90243 0.59616 0.71939 0.0
C1385 C 0.91577 0.5694 0.72224 0.0
C1386 C 0.51308 0.96634 0.24283 0.0
C1387 C 0.47503 0.9346 0.2452 0.0
C1388 C 0.52596 0.98736 0.21972 0.0
C1389 C 0.50142 0.97754 0.19787 0.0
H1390 H 0.53268 0.97568 0.25923 0.0
H1391 H 0.55531 0.01196 0.21912 0.0
S1392 S 0.40094 0.89358 0.1933 0.0
N1393 N 0.41438 0.89194 0.22317 0.0
N1394 N 0.43803 0.93167 0.17987 0.0
C1395 C 0.46394 0.94465 0.19969 0.0
C1396 C 0.45087 0.92327 0.2233 0.0
C1397 C 0.09703 0.5511 0.22134 0.0
C1398 C 0.08207 0.52393 0.24137 0.0
C1399 C 0.07559 0.54598 0.19867 0.0
C1400 C 0.03821 0.51372 0.19537 0.0
H1401 H 0.12524 0.57684 0.2234 0.0
H1402 H 0.08772 0.56807 0.18402 0.0
S1403 S 0.98679 0.43329 0.24138 0.0
N1404 N 0.02825 0.46294 0.256 0.0
N1405 N 0.98811 0.45323 0.21331 0.0
C1406 C 0.02347 0.4858 0.21488 0.0
C1407 C 0.04539 0.49089 0.23788 0.0
C1408 C 0.47677 0.5398 0.2259 0.0
C1409 C 0.50296 0.55623 0.24664 0.0
C1410 C 0.48852 0.52942 0.20304 0.0
C1411 C 0.5269 0.53498 0.20003 0.0
H1412 H 0.4471 0.53533 0.22721 0.0
H1413 H 0.46719 0.51643 0.18777 0.0
S1414 S 0.60686 0.57704 0.24852 0.0
N1415 N 0.56876 0.57641 0.26281 0.0
N1416 N 0.59145 0.55935 0.21957 0.0
C1417 C 0.55342 0.55173 0.22056 0.0
C1418 C 0.54132 0.56168 0.24388 0.0
C1419 C 0.98526 0.48976 0.80129 0.0
C1420 C 0.951 0.45421 0.79849 0.0
C1421 C 1.00735 0.499 0.824 0.0
C1422 C 0.99568 0.4732 0.84479 0.0
H1423 H 0.99587 0.51002 0.78547 0.0
H1424 H 0.03406 0.52635 0.82517 0.0
S1425 S 0.90693 0.37732 0.84765 0.0
N1426 N 0.90534 0.39382 0.81879 0.0
N1427 N 0.94694 0.41117 0.86148 0.0
C1428 C 0.96073 0.43809 0.84257 0.0
C1429 C 0.9384 0.42858 0.81939 0.0
C1430 C 0.56154 0.46685 0.81837 0.0
C1431 C 0.57283 0.49271 0.79755 0.0
C1432 C 0.54588 0.47252 0.84133 0.0
C1433 C 0.5405 0.50404 0.84425 0.0
H1434 H 0.56461 0.4419 0.81684 0.0
H1435 H 0.53674 0.45144 0.85659 0.0
S1436 S 0.56651 0.58081 0.79602 0.0
N1437 N 0.57805 0.55143 0.78171 0.0
N1438 N 0.54945 0.56235 0.82487 0.0
C1439 C 0.55256 0.53055 0.82385 0.0
C1440 C 0.56851 0.52484 0.80055 0.0
C1441 C 0.49722 0.04014 0.79617 0.0
C1442 C 0.53415 0.07329 0.7928 0.0
C1443 C 0.48759 0.01821 0.81884 0.0
C1444 C 0.51448 0.02807 0.8393 0.0
H1445 H 0.47553 0.03063 0.78096 0.0
H1446 H 0.45862 0.99317 0.82029 0.0
S1447 S 0.61505 0.11261 0.84068 0.0
N1448 N 0.59739 0.11568 0.81248 0.0
N1449 N 0.57997 0.07359 0.85459 0.0
C1450 C 0.55149 0.06131 0.83634 0.0
C1451 C 0.56121 0.08393 0.81324 0.0
C1452 C 0.17732 0.29092 0.57377 0.0
C1453 C 0.13688 0.26442 0.57692 0.0
C1454 C 0.19221 0.3123 0.55096 0.0
C1455 C 0.16745 0.30832 0.53012 0.0
H1456 H 0.19766 0.29596 0.58935 0.0
H1457 H 0.22352 0.33255 0.54978 0.0
S1458 S 0.05952 0.24131 0.52773 0.0
N1459 N 0.07255 0.23386 0.55645 0.0
N1460 N 0.10037 0.27484 0.51393 0.0
C1461 C 0.12708 0.28123 0.53268 0.0
C1462 C 0.11185 0.25929 0.55596 0.0
C1463 C 0.72442 0.87531 0.57225 0.0
C1464 C 0.75308 0.86427 0.57489 0.0
C1465 C 0.70274 0.86841 0.54958 0.0
C1466 C 0.70851 0.84991 0.52856 0.0
H1467 H 0.71803 0.88879 0.58807 0.0
H1468 H 0.68109 0.87757 0.54858 0.0
S1469 S 0.78082 0.81613 0.52519 0.0
N1470 N 0.78738 0.83538 0.55402 0.0
N1471 N 0.74529 0.82081 0.51175 0.0
C1472 C 0.73742 0.83907 0.53074 0.0
C1473 C 0.75986 0.84647 0.55383 0.0
C1474 C 0.20622 0.89704 0.57467 0.0
C1475 C 0.16719 0.88963 0.57756 0.0
C1476 C 0.2191 0.88788 0.55199 0.0
C1477 C 0.19351 0.8705 0.53113 0.0
H1478 H 0.22709 0.90975 0.59022 0.0
H1479 H 0.24957 0.89457 0.55083 0.0
S1480 S 0.08834 0.84531 0.52857 0.0
N1481 N 0.10319 0.86482 0.55718 0.0
N1482 N 0.12696 0.84601 0.51492 0.0
C1483 C 0.15436 0.86296 0.53364 0.0
C1484 C 0.14128 0.87268 0.55677 0.0
C1485 C 0.65682 0.7831 0.13301 0.0
C1486 C 0.62582 0.7909 0.12999 0.0
C1487 C 0.67906 0.79266 0.15559 0.0
C1488 C 0.67158 0.81078 0.17612 0.0
H1489 H 0.6643 0.76975 0.11766 0.0
H1490 H 0.70225 0.78557 0.157 0.0
S1491 S 0.59382 0.83773 0.17802 0.0
N1492 N 0.58817 0.81713 0.14977 0.0
N1493 N 0.63133 0.83686 0.19177 0.0
C1494 C 0.64077 0.81895 0.17339 0.0
C1495 C 0.61773 0.80876 0.15042 0.0
C1496 C 0.19515 0.80974 0.13278 0.0
C1497 C 0.23634 0.82708 0.12919 0.0
C1498 C 0.17863 0.81351 0.15588 0.0
C1499 C 0.20244 0.83508 0.17648 0.0
H1500 H 0.17526 0.79339 0.11746 0.0
H1501 H 0.14678 0.79935 0.15757 0.0
S1502 S 0.31176 0.88741 0.17712 0.0
N1503 N 0.30058 0.86657 0.14873 0.0
N1504 N 0.26932 0.87518 0.19154 0.0
C1505 C 0.2436 0.85284 0.17322 0.0
C1506 C 0.26055 0.84864 0.14975 0.0
C1507 C 0.22511 0.42436 0.14924 0.0
C1508 C 0.19879 0.41337 0.12834 0.0
C1509 C 0.21495 0.4029 0.17233 0.0
C1510 C 0.17816 0.36948 0.17537 0.0
H1511 H 0.25373 0.44984 0.14781 0.0
H1512 H 0.23643 0.41205 0.18764 0.0
S1513 S 0.09834 0.3286 0.12677 0.0
N1514 N 0.13436 0.36636 0.11235 0.0
N1515 N 0.11473 0.32748 0.15582 0.0
C1516 C 0.15138 0.35865 0.15479 0.0
C1517 C 0.16181 0.38015 0.13131 0.0
C1518 C 0.84165 0.62355 0.9076 0.0
C1519 C 0.80129 0.59695 0.91098 0.0
C1520 C 0.85622 0.64454 0.88461 0.0
C1521 C 0.83119 0.64008 0.86382 0.0
H1522 H 0.86217 0.62902 0.92314 0.0
H1523 H 0.88748 0.66492 0.88326 0.0
S1524 S 0.72338 0.57241 0.86197 0.0
N1525 N 0.73679 0.56557 0.89073 0.0
N1526 N 0.76398 0.60592 0.84792 0.0
C1527 C 0.79092 0.61281 0.86659 0.0
C1528 C 0.77604 0.59122 0.89005 0.0
C1529 C 0.38847 0.20649 0.90683 0.0
C1530 C 0.41811 0.19666 0.90897 0.0
C1531 C 0.36597 0.19874 0.88447 0.0
C1532 C 0.37183 0.18049 0.86332 0.0
H1533 H 0.3822 0.21995 0.92272 0.0
H1534 H 0.34383 0.2073 0.88374 0.0
S1535 S 0.44581 0.14886 0.85898 0.0
N1536 N 0.45294 0.16863 0.88766 0.0
N1537 N 0.40917 0.15223 0.84608 0.0
C1538 C 0.40134 0.17041 0.86515 0.0
C1539 C 0.42468 0.17878 0.88787 0.0
C1540 C 0.81177 0.21414 0.88883 0.0
C1541 C 0.83797 0.23038 0.9096 0.0
C1542 C 0.82347 0.2039 0.86588 0.0
C1543 C 0.86176 0.20928 0.86287 0.0
H1544 H 0.78199 0.20936 0.89028 0.0
H1545 H 0.80208 0.1908 0.85065 0.0
S1546 S 0.94197 0.25146 0.9111 0.0
N1547 N 0.90404 0.25109 0.92548 0.0
N1548 N 0.92634 0.23354 0.88222 0.0
C1549 C 0.88842 0.22619 0.88328 0.0
C1550 C 0.87648 0.23627 0.90663 0.0
C1551 C 0.32558 0.11749 0.46738 0.0
C1552 C 0.29315 0.1231 0.46406 0.0
C1553 C 0.34804 0.12888 0.48991 0.0
C1554 C 0.3393 0.14666 0.51007 0.0
H1555 H 0.33407 0.10458 0.45229 0.0
H1556 H 0.37245 0.12355 0.49155 0.0
S1557 S 0.25731 0.16787 0.51116 0.0
N1558 N 0.25264 0.1466 0.48329 0.0
N1559 N 0.2962 0.16991 0.52504 0.0
C1560 C 0.30697 0.15252 0.50704 0.0
C1561 C 0.28371 0.14043 0.48419 0.0
C1562 C 0.92791 0.17575 0.4831 0.0
C1563 C 0.90361 0.15691 0.46191 0.0
C1564 C 0.91225 0.18172 0.50596 0.0
C1565 C 0.87172 0.16933 0.50846 0.0
H1566 H 0.95931 0.18597 0.48201 0.0
H1567 H 0.93217 0.19702 0.52153 0.0
S1568 S 0.79519 0.11762 0.45908 0.0
N1569 N 0.83678 0.12582 0.44515 0.0
N1570 N 0.80738 0.1358 0.48822 0.0
C1571 C 0.84703 0.14977 0.48764 0.0
C1572 C 0.86293 0.14388 0.46439 0.0
C1573 C 0.85737 0.76052 0.48342 0.0
C1574 C 0.87519 0.7515 0.46298 0.0
C1575 C 0.84606 0.73938 0.50658 0.0
C1576 C 0.85166 0.70808 0.51013 0.0
H1577 H 0.85154 0.78377 0.48132 0.0
H1578 H 0.83134 0.74662 0.52139 0.0
S1579 S 0.89887 0.6738 0.46339 0.0
N1580 N 0.89927 0.70993 0.44846 0.0
N1581 N 0.87819 0.67046 0.49186 0.0
C1582 C 0.87063 0.69958 0.49024 0.0
C1583 C 0.88238 0.72122 0.46676 0.0
loop_
_geom_bond_atom_site_label_1
_geom_bond_atom_site_label_2
_geom_bond_distance
_geom_bond_site_symmetry_2
_ccdc_geom_bond_type
H0 C7 0.929 . S
H1 C10 0.930 . S
H2 C12 0.929 . S
H3 C4 0.969 . S
C4 H3 0.969 . S
C4 O5 1.550 . S
C4 H6 0.973 . S
O5 C4 1.550 . S
O5 C11 1.412 . S
H6 C4 0.973 . S
C7 H0 0.929 . S
C7 C8 1.400 . S
C7 C9 1.364 . S
C8 C7 1.400 . S
C8 C12 1.377 . S
C9 C7 1.364 . S
C9 C10 1.374 . S
C10 H1 0.930 . S
C10 C9 1.374 . S
C10 C11 1.383 . S
C11 O5 1.412 . S
C11 C10 1.383 . S
C11 C12 1.394 . S
C12 H2 0.929 . S
C12 C8 1.377 . S
C12 C11 1.394 . S
H13 C20 0.929 . S
H14 C23 0.930 . S
H15 C25 0.929 . S
H16 C17 0.969 . S
C17 H16 0.969 . S
C17 O18 1.550 . S
C17 H19 0.973 . S
O18 C17 1.550 . S
O18 C24 1.412 . S
H19 C17 0.973 . S
C20 H13 0.929 . S
C20 C21 1.400 . S
C20 C22 1.364 . S
C21 C20 1.400 . S
C21 C25 1.377 . S
C22 C20 1.364 . S
C22 C23 1.374 . S
C23 H14 0.930 . S
C23 C22 1.374 . S
C23 C24 1.383 . S
C24 O18 1.412 . S
C24 C23 1.383 . S
C24 C25 1.394 . S
C25 H15 0.929 . S
C25 C21 1.377 . S
C25 C24 1.394 . S
H26 C33 0.929 . S
H27 C36 0.930 . S
H28 C38 0.929 . S
H29 C30 0.969 . S
C30 H29 0.969 . S
C30 O31 1.550 . S
C30 H32 0.973 . S
O31 C30 1.550 . S
O31 C37 1.412 . S
H32 C30 0.973 . S
C33 H26 0.929 . S
C33 C34 1.400 . S
C33 C35 1.364 . S
C34 C33 1.400 . S
C34 C38 1.377 . S
C35 C33 1.364 . S
C35 C36 1.374 . S
C36 H27 0.930 . S
C36 C35 1.374 . S
C36 C37 1.383 . S
C37 O31 1.412 . S
C37 C36 1.383 . S
C37 C38 1.394 . S
C38 H28 0.929 . S
C38 C34 1.377 . S
C38 C37 1.394 . S
H39 C46 0.929 . S
H40 C49 0.930 . S
H41 C51 0.929 . S
H42 C43 0.969 . S
C43 H42 0.969 . S
C43 O44 1.550 . S
C43 H45 0.973 . S
O44 C43 1.550 . S
O44 C50 1.412 . S
H45 C43 0.973 . S
C46 H39 0.929 . S
C46 C47 1.400 . S
C46 C48 1.364 . S
C47 C46 1.400 . S
C47 C51 1.377 . S
C48 C46 1.364 . S
C48 C49 1.374 . S
C49 H40 0.930 . S
C49 C48 1.374 . S
C49 C50 1.383 . S
C50 O44 1.412 . S
C50 C49 1.383 . S
C50 C51 1.394 . S
C51 H41 0.929 . S
C51 C47 1.377 . S
C51 C50 1.394 . S
H52 C59 0.929 . S
H53 C62 0.930 . S
H54 C64 0.929 . S
H55 C56 0.969 . S
C56 H55 0.969 . S
C56 O57 1.550 . S
C56 H58 0.973 . S
O57 C56 1.550 . S
O57 C63 1.412 . S
H58 C56 0.973 . S
C59 H52 0.929 . S
C59 C60 1.400 . S
C59 C61 1.364 . S
C60 C59 1.400 . S
C60 C64 1.377 . S
C61 C59 1.364 . S
C61 C62 1.374 . S
C62 H53 0.930 . S
C62 C61 1.374 . S
C62 C63 1.383 . S
C63 O57 1.412 . S
C63 C62 1.383 . S
C63 C64 1.394 . S
C64 H54 0.929 . S
C64 C60 1.377 . S
C64 C63 1.394 . S
H65 C72 0.929 . S
H66 C75 0.930 . S
H67 C77 0.929 . S
H68 C69 0.969 . S
C69 H68 0.969 . S
C69 O70 1.550 . S
C69 H71 0.973 . S
O70 C69 1.550 . S
O70 C76 1.412 . S
H71 C69 0.973 . S
C72 H65 0.929 . S
C72 C73 1.400 . S
C72 C74 1.364 . S
C73 C72 1.400 . S
C73 C77 1.377 . S
C74 C72 1.364 . S
C74 C75 1.374 . S
C75 H66 0.930 . S
C75 C74 1.374 . S
C75 C76 1.383 . S
C76 O70 1.412 . S
C76 C75 1.383 . S
C76 C77 1.394 . S
C77 H67 0.929 . S
C77 C73 1.377 . S
C77 C76 1.394 . S
H78 C85 0.929 . S
H79 C88 0.930 . S
H80 C90 0.929 . S
H81 C82 0.969 . S
C82 H81 0.969 . S
C82 O83 1.550 . S
C82 H84 0.973 . S
O83 C82 1.550 . S
O83 C89 1.412 . S
H84 C82 0.973 . S
C85 H78 0.929 . S
C85 C86 1.400 . S
C85 C87 1.364 . S
C86 C85 1.400 . S
C86 C90 1.377 . S
C87 C85 1.364 . S
C87 C88 1.374 . S
C88 H79 0.930 . S
C88 C87 1.374 . S
C88 C89 1.383 . S
C89 O83 1.412 . S
C89 C88 1.383 . S
C89 C90 1.394 . S
C90 H80 0.929 . S
C90 C86 1.377 . S
C90 C89 1.394 . S
H91 C98 0.929 . S
H92 C101 0.930 . S
H93 C103 0.929 . S
H94 C95 0.969 . S
C95 H94 0.969 . S
C95 O96 1.550 . S
C95 H97 0.973 . S
O96 C95 1.550 . S
O96 C102 1.412 . S
H97 C95 0.973 . S
C98 H91 0.929 . S
C98 C99 1.400 . S
C98 C100 1.364 . S
C99 C98 1.400 . S
C99 C103 1.377 . S
C100 C98 1.364 . S
C100 C101 1.374 . S
C101 H92 0.930 . S
C101 C100 1.374 . S
C101 C102 1.383 . S
C102 O96 1.412 . S
C102 C101 1.383 . S
C102 C103 1.394 . S
C103 H93 0.929 . S
C103 C99 1.377 . S
C103 C102 1.394 . S
H104 C111 0.929 . S
H105 C114 0.930 . S
H106 C116 0.929 . S
H107 C108 0.969 . S
C108 H107 0.969 . S
C108 O109 1.550 . S
C108 H110 0.973 . S
O109 C108 1.550 . S
O109 C115 1.412 . S
H110 C108 0.973 . S
C111 H104 0.929 . S
C111 C112 1.400 . S
C111 C113 1.364 . S
C112 C111 1.400 . S
C112 C116 1.377 . S
C113 C111 1.364 . S
C113 C114 1.374 . S
C114 H105 0.930 . S
C114 C113 1.374 . S
C114 C115 1.383 . S
C115 O109 1.412 . S
C115 C114 1.383 . S
C115 C116 1.394 . S
C116 H106 0.929 . S
C116 C112 1.377 . S
C116 C115 1.394 . S
H117 C124 0.929 . S
H118 C127 0.930 . S
H119 C129 0.929 . S
H120 C121 0.969 . S
C121 H120 0.969 . S
C121 O122 1.550 . S
C121 H123 0.973 . S
O122 C121 1.550 . S
O122 C128 1.412 . S
H123 C121 0.973 . S
C124 H117 0.929 . S
C124 C125 1.400 . S
C124 C126 1.364 . S
C125 C124 1.400 . S
C125 C129 1.377 . S
C126 C124 1.364 . S
C126 C127 1.374 . S
C127 H118 0.930 . S
C127 C126 1.374 . S
C127 C128 1.383 . S
C128 O122 1.412 . S
C128 C127 1.383 . S
C128 C129 1.394 . S
C129 H119 0.929 . S
C129 C125 1.377 . S
C129 C128 1.394 . S
H130 C137 0.929 . S
H131 C140 0.930 . S
H132 C142 0.929 . S
H133 C134 0.969 . S
C134 H133 0.969 . S
C134 O135 1.550 . S
C134 H136 0.973 . S
O135 C134 1.550 . S
O135 C141 1.412 . S
H136 C134 0.973 . S
C137 H130 0.929 . S
C137 C138 1.400 . S
C137 C139 1.364 . S
C138 C137 1.400 . S
C138 C142 1.377 . S
C139 C137 1.364 . S
C139 C140 1.374 . S
C140 H131 0.930 . S
C140 C139 1.374 . S
C140 C141 1.383 . S
C141 O135 1.412 . S
C141 C140 1.383 . S
C141 C142 1.394 . S
C142 H132 0.929 . S
C142 C138 1.377 . S
C142 C141 1.394 . S
H143 C150 0.929 . S
H144 C153 0.930 . S
H145 C155 0.929 . S
H146 C147 0.969 . S
C147 H146 0.969 . S
C147 O148 1.550 . S
C147 H149 0.973 . S
O148 C147 1.550 . S
O148 C154 1.412 . S
H149 C147 0.973 . S
C150 H143 0.929 . S
C150 C151 1.400 . S
C150 C152 1.364 . S
C151 C150 1.400 . S
C151 C155 1.377 . S
C152 C150 1.364 . S
C152 C153 1.374 . S
C153 H144 0.930 . S
C153 C152 1.374 . S
C153 C154 1.383 . S
C154 O148 1.412 . S
C154 C153 1.383 . S
C154 C155 1.394 . S
C155 H145 0.929 . S
C155 C151 1.377 . S
C155 C154 1.394 . S
H156 C163 0.929 . S
H157 C166 0.930 . S
H158 C168 0.929 . S
H159 C160 0.969 . S
C160 H159 0.969 . S
C160 O161 1.550 . S
C160 H162 0.973 . S
O161 C160 1.550 . S
O161 C167 1.412 . S
H162 C160 0.973 . S
C163 H156 0.929 . S
C163 C164 1.400 . S
C163 C165 1.364 . S
C164 C163 1.400 . S
C164 C168 1.377 . S
C165 C163 1.364 . S
C165 C166 1.374 . S
C166 H157 0.930 . S
C166 C165 1.374 . S
C166 C167 1.383 . S
C167 O161 1.412 . S
C167 C166 1.383 . S
C167 C168 1.394 . S
C168 H158 0.929 . S
C168 C164 1.377 . S
C168 C167 1.394 . S
H169 C176 0.929 . S
H170 C179 0.930 . S
H171 C181 0.929 . S
H172 C173 0.969 . S
C173 H172 0.969 . S
C173 O174 1.550 . S
C173 H175 0.973 . S
O174 C173 1.550 . S
O174 C180 1.412 . S
H175 C173 0.973 . S
C176 H169 0.929 . S
C176 C177 1.400 . S
C176 C178 1.364 . S
C177 C176 1.400 . S
C177 C181 1.377 . S
C178 C176 1.364 . S
C178 C179 1.374 . S
C179 H170 0.930 . S
C179 C178 1.374 . S
C179 C180 1.383 . S
C180 O174 1.412 . S
C180 C179 1.383 . S
C180 C181 1.394 . S
C181 H171 0.929 . S
C181 C177 1.377 . S
C181 C180 1.394 . S
H182 C189 0.929 . S
H183 C192 0.930 . S
H184 C194 0.929 . S
H185 C186 0.969 . S
C186 H185 0.969 . S
C186 O187 1.550 . S
C186 H188 0.973 . S
O187 C186 1.550 . S
O187 C193 1.412 . S
H188 C186 0.973 . S
C189 H182 0.929 . S
C189 C190 1.400 . S
C189 C191 1.364 . S
C190 C189 1.400 . S
C190 C194 1.377 . S
C191 C189 1.364 . S
C191 C192 1.374 . S
C192 H183 0.930 . S
C192 C191 1.374 . S
C192 C193 1.383 . S
C193 O187 1.412 . S
C193 C192 1.383 . S
C193 C194 1.394 . S
C194 H184 0.929 . S
C194 C190 1.377 . S
C194 C193 1.394 . S
H195 C202 0.929 . S
H196 C205 0.930 . S
H197 C207 0.929 . S
H198 C199 0.969 . S
C199 H198 0.969 . S
C199 O200 1.550 . S
C199 H201 0.973 . S
O200 C199 1.550 . S
O200 C206 1.412 . S
H201 C199 0.973 . S
C202 H195 0.929 . S
C202 C203 1.400 . S
C202 C204 1.364 . S
C203 C202 1.400 . S
C203 C207 1.377 . S
C204 C202 1.364 . S
C204 C205 1.374 . S
C205 H196 0.930 . S
C205 C204 1.374 . S
C205 C206 1.383 . S
C206 O200 1.412 . S
C206 C205 1.383 . S
C206 C207 1.394 . S
C207 H197 0.929 . S
C207 C203 1.377 . S
C207 C206 1.394 . S
H208 C215 0.929 . S
H209 C218 0.930 . S
H210 C220 0.929 . S
H211 C212 0.969 . S
C212 H211 0.969 . S
C212 O213 1.550 . S
C212 H214 0.973 . S
O213 C212 1.550 . S
O213 C219 1.412 . S
H214 C212 0.973 . S
C215 H208 0.929 . S
C215 C216 1.400 . S
C215 C217 1.364 . S
C216 C215 1.400 . S
C216 C220 1.377 . S
C217 C215 1.364 . S
C217 C218 1.374 . S
C218 H209 0.930 . S
C218 C217 1.374 . S
C218 C219 1.383 . S
C219 O213 1.412 . S
C219 C218 1.383 . S
C219 C220 1.394 . S
C220 H210 0.929 . S
C220 C216 1.377 . S
C220 C219 1.394 . S
H221 C228 0.929 . S
H222 C231 0.930 . S
H223 C233 0.929 . S
H224 C225 0.969 . S
C225 H224 0.969 . S
C225 O226 1.550 . S
C225 H227 0.973 . S
O226 C225 1.550 . S
O226 C232 1.412 . S
H227 C225 0.973 . S
C228 H221 0.929 . S
C228 C229 1.400 . S
C228 C230 1.364 . S
C229 C228 1.400 . S
C229 C233 1.377 . S
C230 C228 1.364 . S
C230 C231 1.374 . S
C231 H222 0.930 . S
C231 C230 1.374 . S
C231 C232 1.383 . S
C232 O226 1.412 . S
C232 C231 1.383 . S
C232 C233 1.394 . S
C233 H223 0.929 . S
C233 C229 1.377 . S
C233 C232 1.394 . S
Eu234 N265 2.657 . S
Eu234 N272 2.609 . S
Eu234 O278 2.558 . S
Eu234 O279 2.612 1_566 S
Eu234 O281 2.339 1_565 S
Eu234 O282 2.563 1_565 S
Eu234 O283 2.419 1_565 S
Eu234 O285 2.380 1_556 S
Eu234 O286 2.432 . S
Eu234 C298 2.848 . S
C235 C238 1.429 . S
C235 C239 1.411 . S
C235 N242 1.377 . S
C236 C238 1.420 . S
C236 C240 1.423 . S
C236 C248 1.392 . S
C237 C239 1.420 . S
C237 C240 1.351 . S
C237 H260 0.931 . S
C238 C235 1.429 . S
C238 C236 1.420 . S
C238 N246 1.362 . S
C239 C235 1.411 . S
C239 C237 1.420 . S
C239 C244 1.395 . S
C240 C236 1.423 . S
C240 C237 1.351 . S
C240 H252 0.930 . S
C241 C243 1.400 . S
C241 C244 1.386 . S
C241 H253 0.930 . S
N242 C235 1.377 . S
N242 C243 1.321 . S
N242 Eu245 2.609 . S
C243 C241 1.400 . S
C243 N242 1.321 . S
C243 H250 0.930 . S
C244 C239 1.395 . S
C244 C241 1.386 . S
C244 H263 0.930 . S
Eu245 N242 2.609 . S
Eu245 N246 2.657 . S
Eu245 O279 2.380 . S
Eu245 O280 2.432 . S
Eu245 O284 2.558 . S
Eu245 O285 2.612 1_545 S
Eu245 O287 2.339 1_545 S
Eu245 O288 2.563 1_545 S
Eu245 O289 2.419 1_545 S
Eu245 C309 2.848 . S
N246 C238 1.362 . S
N246 Eu245 2.657 . S
N246 C247 1.334 . S
C247 N246 1.334 . S
C247 C249 1.413 . S
C247 H254 0.929 . S
C248 C236 1.392 . S
C248 C249 1.367 . S
C248 H256 0.930 . S
C249 C247 1.413 . S
C249 C248 1.367 . S
C249 H251 0.930 . S
H250 C243 0.930 . S
H251 C249 0.930 . S
H252 C240 0.930 . S
H253 C241 0.930 . S
H254 C247 0.929 . S
H255 C269 0.930 . S
H256 C248 0.930 . S
H257 C275 0.930 . S
H258 C266 0.929 . S
H259 C273 0.930 . S
H260 C237 0.931 . S
H261 C267 0.930 . S
H262 C300 0.930 . S
H263 C244 0.930 . S
H264 C299 0.931 . S
N265 Eu234 2.657 . S
N265 C266 1.334 . S
N265 C270 1.362 . S
C266 H258 0.929 . S
C266 N265 1.334 . S
C266 C269 1.413 . S
C267 H261 0.930 . S
C267 C268 1.392 . S
C267 C269 1.367 . S
C268 C267 1.392 . S
C268 C270 1.420 . S
C268 C300 1.423 . S
C269 H255 0.930 . S
C269 C266 1.413 . S
C269 C267 1.367 . S
C270 N265 1.362 . S
C270 C268 1.420 . S
C270 C274 1.429 . S
H271 C276 0.930 . S
N272 Eu234 2.609 . S
N272 C274 1.377 . S
N272 C275 1.321 . S
C273 H259 0.930 . S
C273 C275 1.400 . S
C273 C276 1.386 . S
C274 C270 1.429 . S
C274 N272 1.377 . S
C274 C277 1.411 . S
C275 H257 0.930 . S
C275 N272 1.321 . S
C275 C273 1.400 . S
C276 H271 0.930 . S
C276 C273 1.386 . S
C276 C277 1.395 . S
C277 C274 1.411 . S
C277 C276 1.395 . S
C277 C299 1.420 . S
O278 Eu234 2.558 . S
O278 C298 1.257 . S
O279 Eu234 2.612 1_544 S
O279 Eu245 2.380 . S
O279 C290 1.276 1_554 S
O280 Eu245 2.432 . S
O280 C297 1.264 1_554 S
O281 Eu234 2.339 1_545 S
O281 C297 1.254 . S
O282 Eu234 2.563 1_545 S
O282 C290 1.235 . S
O283 Eu234 2.419 1_545 S
O283 C298 1.249 1_545 S
O284 Eu245 2.558 . S
O284 C309 1.257 . S
O285 Eu234 2.380 1_554 S
O285 Eu245 2.612 1_565 S
O285 C301 1.276 . S
O286 Eu234 2.432 . S
O286 C308 1.264 1_556 S
O287 Eu245 2.339 1_565 S
O287 C308 1.254 . S
O288 Eu245 2.563 1_565 S
O288 C301 1.235 . S
O289 Eu245 2.419 1_565 S
O289 C309 1.249 1_565 S
C290 O279 1.276 1_556 S
C290 O282 1.235 . S
C291 C293 1.393 . S
C291 C295 1.395 1_545 S
C291 C298 1.492 1_545 S
C292 C293 1.392 . S
C292 C294 1.386 . S
C293 C291 1.393 . S
C293 C292 1.392 . S
C293 H310 0.930 . S
C294 C292 1.386 . S
C294 C296 1.395 1_545 S
C294 H311 0.930 . S
C295 C291 1.395 1_565 S
C295 C296 1.379 . S
C295 H312 0.930 . S
C296 C294 1.395 1_565 S
C296 C295 1.379 . S
C296 H313 0.930 . S
C297 O280 1.264 1_556 S
C297 O281 1.254 . S
C298 Eu234 2.848 . S
C298 O278 1.257 . S
C298 O283 1.249 1_565 S
C298 C291 1.492 1_565 S
C299 H264 0.931 . S
C299 C277 1.420 . S
C299 C300 1.351 . S
C300 H262 0.930 . S
C300 C268 1.423 . S
C300 C299 1.351 . S
C301 O285 1.276 . S
C301 O288 1.235 . S
C302 C303 1.363 1_545 S
C302 C306 1.420 . S
C302 C309 1.496 . S
C303 C302 1.363 1_565 S
C303 C304 1.392 . S
C303 H314 0.930 . S
C304 C303 1.392 . S
C304 C305 1.386 . S
C305 C304 1.386 . S
C305 C307 1.395 1_565 S
C305 H315 0.930 . S
C306 C302 1.420 . S
C306 C307 1.379 . S
C306 H316 0.930 . S
C307 C305 1.395 1_545 S
C307 C306 1.379 . S
C307 H317 0.930 . S
C308 O286 1.264 1_554 S
C308 O287 1.254 . S
C309 Eu245 2.848 . S
C309 O284 1.257 . S
C309 O289 1.249 1_545 S
C309 C302 1.496 . S
H310 C293 0.930 . S
H311 C294 0.930 . S
H312 C295 0.930 . S
H313 C296 0.930 . S
H314 C303 0.930 . S
H315 C305 0.930 . S
H316 C306 0.930 . S
H317 C307 0.930 . S
Eu318 N349 2.657 . S
Eu318 N356 2.609 . S
Eu318 O362 2.558 . S
Eu318 O363 2.612 1_456 S
Eu318 O365 2.339 1_455 S
Eu318 O366 2.563 1_455 S
Eu318 O367 2.419 1_455 S
Eu318 O369 2.380 1_556 S
Eu318 O370 2.432 . S
Eu318 C382 2.848 . S
C319 C322 1.429 . S
C319 C323 1.411 . S
C319 N326 1.377 . S
C320 C322 1.420 . S
C320 C324 1.423 . S
C320 C332 1.392 . S
C321 C323 1.420 . S
C321 C324 1.351 . S
C321 H344 0.931 . S
C322 C319 1.429 . S
C322 C320 1.420 . S
C322 N330 1.362 . S
C323 C319 1.411 . S
C323 C321 1.420 . S
C323 C328 1.395 . S
C324 C320 1.423 . S
C324 C321 1.351 . S
C324 H336 0.930 . S
C325 C327 1.400 . S
C325 C328 1.386 . S
C325 H337 0.930 . S
N326 C319 1.377 . S
N326 C327 1.321 . S
N326 Eu329 2.609 . S
C327 C325 1.400 . S
C327 N326 1.321 . S
C327 H334 0.930 . S
C328 C323 1.395 . S
C328 C325 1.386 . S
C328 H347 0.930 . S
Eu329 N326 2.609 . S
Eu329 N330 2.657 . S
Eu329 O363 2.380 . S
Eu329 O364 2.432 . S
Eu329 O368 2.558 . S
Eu329 O369 2.612 1_655 S
Eu329 O371 2.339 1_655 S
Eu329 O372 2.563 1_655 S
Eu329 O373 2.419 1_655 S
Eu329 C393 2.848 . S
N330 C322 1.362 . S
N330 Eu329 2.657 . S
N330 C331 1.334 . S
C331 N330 1.334 . S
C331 C333 1.413 . S
C331 H338 0.929 . S
C332 C320 1.392 . S
C332 C333 1.367 . S
C332 H340 0.930 . S
C333 C331 1.413 . S
C333 C332 1.367 . S
C333 H335 0.930 . S
H334 C327 0.930 . S
H335 C333 0.930 . S
H336 C324 0.930 . S
H337 C325 0.930 . S
H338 C331 0.929 . S
H339 C353 0.930 . S
H340 C332 0.930 . S
H341 C359 0.930 . S
H342 C350 0.929 . S
H343 C357 0.930 . S
H344 C321 0.931 . S
H345 C351 0.930 . S
H346 C384 0.930 . S
H347 C328 0.930 . S
H348 C383 0.931 . S
N349 Eu318 2.657 . S
N349 C350 1.334 . S
N349 C354 1.362 . S
C350 H342 0.929 . S
C350 N349 1.334 . S
C350 C353 1.413 . S
C351 H345 0.930 . S
C351 C352 1.392 . S
C351 C353 1.367 . S
C352 C351 1.392 . S
C352 C354 1.420 . S
C352 C384 1.423 . S
C353 H339 0.930 . S
C353 C350 1.413 . S
C353 C351 1.367 . S
C354 N349 1.362 . S
C354 C352 1.420 . S
C354 C358 1.429 . S
H355 C360 0.930 . S
N356 Eu318 2.609 . S
N356 C358 1.377 . S
N356 C359 1.321 . S
C357 H343 0.930 . S
C357 C359 1.400 . S
C357 C360 1.386 . S
C358 C354 1.429 . S
C358 N356 1.377 . S
C358 C361 1.411 . S
C359 H341 0.930 . S
C359 N356 1.321 . S
C359 C357 1.400 . S
C360 H355 0.930 . S
C360 C357 1.386 . S
C360 C361 1.395 . S
C361 C358 1.411 . S
C361 C360 1.395 . S
C361 C383 1.420 . S
O362 Eu318 2.558 . S
O362 C382 1.257 . S
O363 Eu318 2.612 1_654 S
O363 Eu329 2.380 . S
O363 C374 1.276 1_554 S
O364 Eu329 2.432 . S
O364 C381 1.264 1_554 S
O365 Eu318 2.339 1_655 S
O365 C381 1.254 . S
O366 Eu318 2.563 1_655 S
O366 C374 1.235 . S
O367 Eu318 2.419 1_655 S
O367 C382 1.249 1_655 S
O368 Eu329 2.558 . S
O368 C393 1.257 . S
O369 Eu318 2.380 1_554 S
O369 Eu329 2.612 1_455 S
O369 C385 1.276 . S
O370 Eu318 2.432 . S
O370 C392 1.264 1_556 S
O371 Eu329 2.339 1_455 S
O371 C392 1.254 . S
O372 Eu329 2.563 1_455 S
O372 C385 1.235 . S
O373 Eu329 2.419 1_455 S
O373 C393 1.249 1_455 S
C374 O363 1.276 1_556 S
C374 O366 1.235 . S
C375 C377 1.393 1_455 S
C375 C379 1.395 . S
C375 C382 1.492 . S
C376 C377 1.392 . S
C376 C378 1.386 . S
C377 C375 1.393 1_655 S
C377 C376 1.392 . S
C377 H394 0.930 . S
C378 C376 1.386 . S
C378 C380 1.395 1_655 S
C378 H395 0.930 . S
C379 C375 1.395 . S
C379 C380 1.379 . S
C379 H396 0.930 . S
C380 C378 1.395 1_455 S
C380 C379 1.379 . S
C380 H397 0.930 . S
C381 O364 1.264 1_556 S
C381 O365 1.254 . S
C382 Eu318 2.848 . S
C382 O362 1.257 . S
C382 O367 1.249 1_455 S
C382 C375 1.492 . S
C383 H348 0.931 . S
C383 C361 1.420 . S
C383 C384 1.351 . S
C384 H346 0.930 . S
C384 C352 1.423 . S
C384 C383 1.351 . S
C385 O369 1.276 . S
C385 O372 1.235 . S
C386 C387 1.393 . S
C386 C390 1.395 1_455 S
C386 C393 1.492 1_455 S
C387 C386 1.393 . S
C387 C388 1.392 . S
C387 H398 0.930 . S
C388 C387 1.392 . S
C388 C389 1.386 . S
C389 C388 1.386 . S
C389 C391 1.395 1_455 S
C389 H399 0.930 . S
C390 C386 1.395 1_655 S
C390 C391 1.379 . S
C390 H400 0.930 . S
C391 C389 1.395 1_655 S
C391 C390 1.379 . S
C391 H401 0.930 . S
C392 O370 1.264 1_554 S
C392 O371 1.254 . S
C393 Eu329 2.848 . S
C393 O368 1.257 . S
C393 O373 1.249 1_655 S
C393 C386 1.492 1_655 S
H394 C377 0.930 . S
H395 C378 0.930 . S
H396 C379 0.930 . S
H397 C380 0.930 . S
H398 C387 0.930 . S
H399 C389 0.930 . S
H400 C390 0.930 . S
H401 C391 0.930 . S
Eu402 N433 2.657 . S
Eu402 N440 2.609 . S
Eu402 O446 2.558 . S
Eu402 O447 2.612 . S
Eu402 O449 2.339 . S
Eu402 O450 2.563 . S
Eu402 O451 2.419 . S
Eu402 O453 2.380 . S
Eu402 O454 2.432 . S
Eu402 C466 2.848 . S
C403 C406 1.429 . S
C403 C407 1.411 . S
C403 N410 1.377 . S
C404 C406 1.420 . S
C404 C408 1.423 . S
C404 C416 1.392 . S
C405 C407 1.420 . S
C405 C408 1.351 . S
C405 H428 0.931 . S
C406 C403 1.429 . S
C406 C404 1.420 . S
C406 N414 1.362 . S
C407 C403 1.411 . S
C407 C405 1.420 . S
C407 C412 1.395 . S
C408 C404 1.423 . S
C408 C405 1.351 . S
C408 H420 0.930 . S
C409 C411 1.400 . S
C409 C412 1.386 . S
C409 H421 0.930 . S
N410 C403 1.377 . S
N410 C411 1.321 . S
N410 Eu413 2.609 . S
C411 C409 1.400 . S
C411 N410 1.321 . S
C411 H418 0.930 . S
C412 C407 1.395 . S
C412 C409 1.386 . S
C412 H431 0.930 . S
Eu413 N410 2.609 . S
Eu413 N414 2.657 . S
Eu413 O447 2.380 1_556 S
Eu413 O448 2.432 . S
Eu413 O452 2.558 . S
Eu413 O453 2.612 1_556 S
Eu413 O455 2.339 . S
Eu413 O456 2.563 . S
Eu413 O457 2.419 . S
Eu413 C477 2.848 . S
N414 C406 1.362 . S
N414 Eu413 2.657 . S
N414 C415 1.334 . S
C415 N414 1.334 . S
C415 C417 1.413 . S
C415 H422 0.929 . S
C416 C404 1.392 . S
C416 C417 1.367 . S
C416 H424 0.930 . S
C417 C415 1.413 . S
C417 C416 1.367 . S
C417 H419 0.930 . S
H418 C411 0.930 . S
H419 C417 0.930 . S
H420 C408 0.930 . S
H421 C409 0.930 . S
H422 C415 0.929 . S
H423 C437 0.930 . S
H424 C416 0.930 . S
H425 C443 0.930 . S
H426 C434 0.929 . S
H427 C441 0.930 . S
H428 C405 0.931 . S
H429 C435 0.930 . S
H430 C468 0.930 . S
H431 C412 0.930 . S
H432 C467 0.931 . S
N433 Eu402 2.657 . S
N433 C434 1.334 . S
N433 C438 1.362 . S
C434 H426 0.929 . S
C434 N433 1.334 . S
C434 C437 1.413 . S
C435 H429 0.930 . S
C435 C436 1.392 . S
C435 C437 1.367 . S
C436 C435 1.392 . S
C436 C438 1.420 . S
C436 C468 1.423 . S
C437 H423 0.930 . S
C437 C434 1.413 . S
C437 C435 1.367 . S
C438 N433 1.362 . S
C438 C436 1.420 . S
C438 C442 1.429 . S
H439 C444 0.930 . S
N440 Eu402 2.609 . S
N440 C442 1.377 . S
N440 C443 1.321 . S
C441 H427 0.930 . S
C441 C443 1.400 . S
C441 C444 1.386 . S
C442 C438 1.429 . S
C442 N440 1.377 . S
C442 C445 1.411 . S
C443 H425 0.930 . S
C443 N440 1.321 . S
C443 C441 1.400 . S
C444 H439 0.930 . S
C444 C441 1.386 . S
C444 C445 1.395 . S
C445 C442 1.411 . S
C445 C444 1.395 . S
C445 C467 1.420 . S
O446 Eu402 2.558 . S
O446 C466 1.257 . S
O447 Eu402 2.612 . S
O447 Eu413 2.380 1_554 S
O447 C458 1.276 . S
O448 Eu413 2.432 . S
O448 C465 1.264 1_556 S
O449 Eu402 2.339 . S
O449 C465 1.254 . S
O450 Eu402 2.563 . S
O450 C458 1.235 . S
O451 Eu402 2.419 . S
O451 C466 1.249 . S
O452 Eu413 2.558 . S
O452 C477 1.257 . S
O453 Eu402 2.380 . S
O453 Eu413 2.612 1_554 S
O453 C469 1.276 1_554 S
O454 Eu402 2.432 . S
O454 C476 1.264 1_554 S
O455 Eu413 2.339 . S
O455 C476 1.254 . S
O456 Eu413 2.563 . S
O456 C469 1.235 . S
O457 Eu413 2.419 . S
O457 C477 1.249 . S
C458 O447 1.276 . S
C458 O450 1.235 . S
C459 C461 1.393 . S
C459 C463 1.395 . S
C459 C466 1.492 . S
C460 C461 1.392 . S
C460 C462 1.386 . S
C461 C459 1.393 . S
C461 C460 1.392 . S
C461 H478 0.930 . S
C462 C460 1.386 . S
C462 C464 1.395 . S
C462 H479 0.930 . S
C463 C459 1.395 . S
C463 C464 1.379 . S
C463 H480 0.930 . S
C464 C462 1.395 . S
C464 C463 1.379 . S
C464 H481 0.930 . S
C465 O448 1.264 1_554 S
C465 O449 1.254 . S
C466 Eu402 2.848 . S
C466 O446 1.257 . S
C466 O451 1.249 . S
C466 C459 1.492 . S
C467 H432 0.931 . S
C467 C445 1.420 . S
C467 C468 1.351 . S
C468 H430 0.930 . S
C468 C436 1.423 . S
C468 C467 1.351 . S
C469 O453 1.276 1_556 S
C469 O456 1.235 . S
C470 C471 1.393 . S
C470 C474 1.395 . S
C470 C477 1.492 . S
C471 C470 1.393 . S
C471 C472 1.392 . S
C471 H482 0.930 . S
C472 C471 1.392 . S
C472 C473 1.386 . S
C473 C472 1.386 . S
C473 C475 1.395 . S
C473 H483 0.930 . S
C474 C470 1.395 . S
C474 C475 1.379 . S
C474 H484 0.930 . S
C475 C473 1.395 . S
C475 C474 1.379 . S
C475 H485 0.930 . S
C476 O454 1.264 1_556 S
C476 O455 1.254 . S
C477 Eu413 2.848 . S
C477 O452 1.257 . S
C477 O457 1.249 . S
C477 C470 1.492 . S
H478 C461 0.930 . S
H479 C462 0.930 . S
H480 C463 0.930 . S
H481 C464 0.930 . S
H482 C471 0.930 . S
H483 C473 0.930 . S
H484 C474 0.930 . S
H485 C475 0.930 . S
Eu486 N517 2.657 . S
Eu486 N524 2.609 . S
Eu486 O530 2.558 . S
Eu486 O531 2.612 . S
Eu486 O533 2.339 . S
Eu486 O534 2.563 . S
Eu486 O535 2.419 . S
Eu486 O537 2.380 . S
Eu486 O538 2.432 . S
Eu486 C550 2.848 . S
C487 C490 1.429 . S
C487 C491 1.411 . S
C487 N494 1.377 . S
C488 C490 1.420 . S
C488 C492 1.423 . S
C488 C500 1.392 . S
C489 C491 1.420 . S
C489 C492 1.351 . S
C489 H512 0.931 . S
C490 C487 1.429 . S
C490 C488 1.420 . S
C490 N498 1.362 . S
C491 C487 1.411 . S
C491 C489 1.420 . S
C491 C496 1.395 . S
C492 C488 1.423 . S
C492 C489 1.351 . S
C492 H504 0.930 . S
C493 C495 1.400 . S
C493 C496 1.386 . S
C493 H505 0.930 . S
N494 C487 1.377 . S
N494 C495 1.321 . S
N494 Eu497 2.609 . S
C495 C493 1.400 . S
C495 N494 1.321 . S
C495 H502 0.930 . S
C496 C491 1.395 . S
C496 C493 1.386 . S
C496 H515 0.930 . S
Eu497 N494 2.609 . S
Eu497 N498 2.657 . S
Eu497 O531 2.380 . S
Eu497 O532 2.432 . S
Eu497 O536 2.558 . S
Eu497 O537 2.612 . S
Eu497 O539 2.339 . S
Eu497 O540 2.563 . S
Eu497 O541 2.419 . S
Eu497 C561 2.848 . S
N498 C490 1.362 . S
N498 Eu497 2.657 . S
N498 C499 1.334 . S
C499 N498 1.334 . S
C499 C501 1.413 . S
C499 H506 0.929 . S
C500 C488 1.392 . S
C500 C501 1.367 . S
C500 H508 0.930 . S
C501 C499 1.413 . S
C501 C500 1.367 . S
C501 H503 0.930 . S
H502 C495 0.930 . S
H503 C501 0.930 . S
H504 C492 0.930 . S
H505 C493 0.930 . S
H506 C499 0.929 . S
H507 C521 0.930 . S
H508 C500 0.930 . S
H509 C527 0.930 . S
H510 C518 0.929 . S
H511 C525 0.930 . S
H512 C489 0.931 . S
H513 C519 0.930 . S
H514 C552 0.930 . S
H515 C496 0.930 . S
H516 C551 0.931 . S
N517 Eu486 2.657 . S
N517 C518 1.334 . S
N517 C522 1.362 . S
C518 H510 0.929 . S
C518 N517 1.334 . S
C518 C521 1.413 1_455 S
C519 H513 0.930 . S
C519 C520 1.392 . S
C519 C521 1.367 . S
C520 C519 1.392 . S
C520 C522 1.420 1_655 S
C520 C552 1.423 . S
C521 H507 0.930 . S
C521 C518 1.413 1_655 S
C521 C519 1.367 . S
C522 N517 1.362 . S
C522 C520 1.420 1_455 S
C522 C526 1.429 . S
H523 C528 0.930 . S
N524 Eu486 2.609 . S
N524 C526 1.377 . S
N524 C527 1.321 . S
C525 H511 0.930 . S
C525 C527 1.400 . S
C525 C528 1.386 . S
C526 C522 1.429 . S
C526 N524 1.377 . S
C526 C529 1.411 . S
C527 H509 0.930 . S
C527 N524 1.321 . S
C527 C525 1.400 . S
C528 H523 0.930 . S
C528 C525 1.386 . S
C528 C529 1.395 . S
C529 C526 1.411 . S
C529 C528 1.395 . S
C529 C551 1.420 1_455 S
O530 Eu486 2.558 . S
O530 C550 1.257 . S
O531 Eu486 2.612 . S
O531 Eu497 2.380 . S
O531 C542 1.276 . S
O532 Eu497 2.432 . S
O532 C549 1.264 . S
O533 Eu486 2.339 . S
O533 C549 1.254 . S
O534 Eu486 2.563 . S
O534 C542 1.235 . S
O535 Eu486 2.419 . S
O535 C550 1.249 . S
O536 Eu497 2.558 . S
O536 C561 1.257 . S
O537 Eu486 2.380 . S
O537 Eu497 2.612 . S
O537 C553 1.276 . S
O538 Eu486 2.432 . S
O538 C560 1.264 . S
O539 Eu497 2.339 . S
O539 C560 1.254 . S
O540 Eu497 2.563 . S
O540 C553 1.235 . S
O541 Eu497 2.419 . S
O541 C561 1.249 . S
C542 O531 1.276 . S
C542 O534 1.235 . S
C543 C545 1.393 . S
C543 C547 1.395 . S
C543 C550 1.492 . S
C544 C545 1.392 . S
C544 C546 1.386 . S
C545 C543 1.393 . S
C545 C544 1.392 . S
C545 H562 0.930 . S
C546 C544 1.386 . S
C546 C548 1.395 . S
C546 H563 0.930 . S
C547 C543 1.395 . S
C547 C548 1.379 . S
C547 H564 0.930 . S
C548 C546 1.395 . S
C548 C547 1.379 . S
C548 H565 0.930 . S
C549 O532 1.264 . S
C549 O533 1.254 . S
C550 Eu486 2.848 . S
C550 O530 1.257 . S
C550 O535 1.249 . S
C550 C543 1.492 . S
C551 H516 0.931 . S
C551 C529 1.420 1_655 S
C551 C552 1.351 . S
C552 H514 0.930 . S
C552 C520 1.423 . S
C552 C551 1.351 . S
C553 O537 1.276 . S
C553 O540 1.235 . S
C554 C555 1.393 . S
C554 C558 1.395 . S
C554 C561 1.492 . S
C555 C554 1.393 . S
C555 C556 1.392 . S
C555 H566 0.930 . S
C556 C555 1.392 . S
C556 C557 1.386 . S
C557 C556 1.386 . S
C557 C559 1.395 . S
C557 H567 0.930 . S
C558 C554 1.395 . S
C558 C559 1.379 . S
C558 H568 0.930 . S
C559 C557 1.395 . S
C559 C558 1.379 . S
C559 H569 0.930 . S
C560 O538 1.264 . S
C560 O539 1.254 . S
C561 Eu497 2.848 . S
C561 O536 1.257 . S
C561 O541 1.249 . S
C561 C554 1.492 . S
H562 C545 0.930 . S
H563 C546 0.930 . S
H564 C547 0.930 . S
H565 C548 0.930 . S
H566 C555 0.930 . S
H567 C557 0.930 . S
H568 C558 0.930 . S
H569 C559 0.930 . S
Eu570 N601 2.657 . S
Eu570 N608 2.609 . S
Eu570 O614 2.558 . S
Eu570 O615 2.612 . S
Eu570 O617 2.339 . S
Eu570 O618 2.563 . S
Eu570 O619 2.419 . S
Eu570 O621 2.380 . S
Eu570 O622 2.432 . S
Eu570 C634 2.848 . S
C571 C574 1.429 . S
C571 C575 1.411 . S
C571 N578 1.377 . S
C572 C574 1.420 . S
C572 C576 1.423 . S
C572 C584 1.392 . S
C573 C575 1.420 . S
C573 C576 1.351 . S
C573 H596 0.931 . S
C574 C571 1.429 . S
C574 C572 1.420 . S
C574 N582 1.362 . S
C575 C571 1.411 . S
C575 C573 1.420 . S
C575 C580 1.395 . S
C576 C572 1.423 . S
C576 C573 1.351 . S
C576 H588 0.930 . S
C577 C579 1.400 . S
C577 C580 1.386 . S
C577 H589 0.930 . S
N578 C571 1.377 . S
N578 C579 1.321 . S
N578 Eu581 2.609 . S
C579 C577 1.400 . S
C579 N578 1.321 . S
C579 H586 0.930 . S
C580 C575 1.395 . S
C580 C577 1.386 . S
C580 H599 0.930 . S
Eu581 N578 2.609 . S
Eu581 N582 2.657 . S
Eu581 O615 2.380 . S
Eu581 O616 2.432 . S
Eu581 O620 2.558 . S
Eu581 O621 2.612 . S
Eu581 O623 2.339 . S
Eu581 O624 2.563 . S
Eu581 O625 2.419 . S
Eu581 C645 2.848 . S
N582 C574 1.362 . S
N582 Eu581 2.657 . S
N582 C583 1.334 . S
C583 N582 1.334 . S
C583 C585 1.413 . S
C583 H590 0.929 . S
C584 C572 1.392 . S
C584 C585 1.367 . S
C584 H592 0.930 . S
C585 C583 1.413 . S
C585 C584 1.367 . S
C585 H587 0.930 . S
H586 C579 0.930 . S
H587 C585 0.930 . S
H588 C576 0.930 . S
H589 C577 0.930 . S
H590 C583 0.929 . S
H591 C605 0.930 . S
H592 C584 0.930 . S
H593 C611 0.930 . S
H594 C602 0.929 . S
H595 C609 0.930 . S
H596 C573 0.931 . S
H597 C603 0.930 . S
H598 C636 0.930 . S
H599 C580 0.930 . S
H600 C635 0.931 . S
N601 Eu570 2.657 . S
N601 C602 1.334 . S
N601 C606 1.362 . S
C602 H594 0.929 . S
C602 N601 1.334 . S
C602 C605 1.413 . S
C603 H597 0.930 . S
C603 C604 1.392 . S
C603 C605 1.367 . S
C604 C603 1.392 . S
C604 C606 1.420 . S
C604 C636 1.423 . S
C605 H591 0.930 . S
C605 C602 1.413 . S
C605 C603 1.367 . S
C606 N601 1.362 . S
C606 C604 1.420 . S
C606 C610 1.429 . S
H607 C612 0.930 . S
N608 Eu570 2.609 . S
N608 C610 1.377 . S
N608 C611 1.321 . S
C609 H595 0.930 . S
C609 C611 1.400 . S
C609 C612 1.386 . S
C610 C606 1.429 . S
C610 N608 1.377 . S
C610 C613 1.411 . S
C611 H593 0.930 . S
C611 N608 1.321 . S
C611 C609 1.400 . S
C612 H607 0.930 . S
C612 C609 1.386 . S
C612 C613 1.395 . S
C613 C610 1.411 . S
C613 C612 1.395 . S
C613 C635 1.420 . S
O614 Eu570 2.558 . S
O614 C634 1.257 . S
O615 Eu570 2.612 . S
O615 Eu581 2.380 . S
O615 C626 1.276 . S
O616 Eu581 2.432 . S
O616 C633 1.264 . S
O617 Eu570 2.339 . S
O617 C633 1.254 . S
O618 Eu570 2.563 . S
O618 C626 1.235 . S
O619 Eu570 2.419 . S
O619 C634 1.249 . S
O620 Eu581 2.558 . S
O620 C645 1.257 . S
O621 Eu570 2.380 . S
O621 Eu581 2.612 . S
O621 C637 1.276 . S
O622 Eu570 2.432 . S
O622 C644 1.264 . S
O623 Eu581 2.339 . S
O623 C644 1.254 . S
O624 Eu581 2.563 . S
O624 C637 1.235 . S
O625 Eu581 2.419 . S
O625 C645 1.249 . S
C626 O615 1.276 . S
C626 O618 1.235 . S
C627 C629 1.393 . S
C627 C631 1.395 . S
C627 C634 1.492 . S
C628 C629 1.392 . S
C628 C630 1.386 . S
C629 C627 1.393 . S
C629 C628 1.392 . S
C629 H646 0.930 . S
C630 C628 1.386 . S
C630 C632 1.395 . S
C630 H647 0.930 . S
C631 C627 1.395 . S
C631 C632 1.379 . S
C631 H648 0.930 . S
C632 C630 1.395 . S
C632 C631 1.379 . S
C632 H649 0.930 . S
C633 O616 1.264 . S
C633 O617 1.254 . S
C634 Eu570 2.848 . S
C634 O614 1.257 . S
C634 O619 1.249 . S
C634 C627 1.492 . S
C635 H600 0.931 . S
C635 C613 1.420 . S
C635 C636 1.351 . S
C636 H598 0.930 . S
C636 C604 1.423 . S
C636 C635 1.351 . S
C637 O621 1.276 . S
C637 O624 1.235 . S
C638 C639 1.393 . S
C638 C642 1.395 . S
C638 C645 1.492 . S
C639 C638 1.393 . S
C639 C640 1.392 . S
C639 H650 0.930 . S
C640 C639 1.392 . S
C640 C641 1.386 . S
C641 C640 1.386 . S
C641 C643 1.395 . S
C641 H651 0.930 . S
C642 C638 1.395 . S
C642 C643 1.379 . S
C642 H652 0.930 . S
C643 C641 1.395 . S
C643 C642 1.379 . S
C643 H653 0.930 . S
C644 O622 1.264 . S
C644 O623 1.254 . S
C645 Eu581 2.848 . S
C645 O620 1.257 . S
C645 O625 1.249 . S
C645 C638 1.492 . S
H646 C629 0.930 . S
H647 C630 0.930 . S
H648 C631 0.930 . S
H649 C632 0.930 . S
H650 C639 0.930 . S
H651 C641 0.930 . S
H652 C642 0.930 . S
H653 C643 0.930 . S
Eu654 N685 2.657 . S
Eu654 N692 2.609 . S
Eu654 O698 2.558 . S
Eu654 O699 2.612 . S
Eu654 O701 2.339 . S
Eu654 O702 2.563 . S
Eu654 O703 2.419 . S
Eu654 O705 2.380 . S
Eu654 O706 2.432 . S
Eu654 C718 2.848 . S
C655 C658 1.429 . S
C655 C659 1.411 . S
C655 N662 1.377 . S
C656 C658 1.420 . S
C656 C660 1.423 . S
C656 C668 1.392 . S
C657 C659 1.420 . S
C657 C660 1.351 . S
C657 H680 0.931 . S
C658 C655 1.429 . S
C658 C656 1.420 . S
C658 N666 1.362 . S
C659 C655 1.411 . S
C659 C657 1.420 . S
C659 C664 1.395 . S
C660 C656 1.423 . S
C660 C657 1.351 . S
C660 H672 0.930 . S
C661 C663 1.400 . S
C661 C664 1.386 . S
C661 H673 0.930 . S
N662 C655 1.377 . S
N662 C663 1.321 . S
N662 Eu665 2.609 . S
C663 C661 1.400 . S
C663 N662 1.321 . S
C663 H670 0.930 . S
C664 C659 1.395 . S
C664 C661 1.386 . S
C664 H683 0.930 . S
Eu665 N662 2.609 . S
Eu665 N666 2.657 . S
Eu665 O699 2.380 . S
Eu665 O700 2.432 . S
Eu665 O704 2.558 . S
Eu665 O705 2.612 . S
Eu665 O707 2.339 . S
Eu665 O708 2.563 . S
Eu665 O709 2.419 . S
Eu665 C729 2.848 . S
N666 C658 1.362 . S
N666 Eu665 2.657 . S
N666 C667 1.334 . S
C667 N666 1.334 . S
C667 C669 1.413 . S
C667 H674 0.929 . S
C668 C656 1.392 . S
C668 C669 1.367 . S
C668 H676 0.930 . S
C669 C667 1.413 . S
C669 C668 1.367 . S
C669 H671 0.930 . S
H670 C663 0.930 . S
H671 C669 0.930 . S
H672 C660 0.930 . S
H673 C661 0.930 . S
H674 C667 0.929 . S
H675 C689 0.930 . S
H676 C668 0.930 . S
H677 C695 0.930 . S
H678 C686 0.929 . S
H679 C693 0.930 . S
H680 C657 0.931 . S
H681 C687 0.930 . S
H682 C720 0.930 . S
H683 C664 0.930 . S
H684 C719 0.931 . S
N685 Eu654 2.657 . S
N685 C686 1.334 . S
N685 C690 1.362 . S
C686 H678 0.929 . S
C686 N685 1.334 . S
C686 C689 1.413 . S
C687 H681 0.930 . S
C687 C688 1.392 . S
C687 C689 1.367 . S
C688 C687 1.392 . S
C688 C690 1.420 . S
C688 C720 1.423 . S
C689 H675 0.930 . S
C689 C686 1.413 . S
C689 C687 1.367 . S
C690 N685 1.362 . S
C690 C688 1.420 . S
C690 C694 1.429 . S
H691 C696 0.930 . S
N692 Eu654 2.609 . S
N692 C694 1.377 . S
N692 C695 1.321 . S
C693 H679 0.930 . S
C693 C695 1.400 . S
C693 C696 1.386 . S
C694 C690 1.429 . S
C694 N692 1.377 . S
C694 C697 1.411 . S
C695 H677 0.930 . S
C695 N692 1.321 . S
C695 C693 1.400 . S
C696 H691 0.930 . S
C696 C693 1.386 . S
C696 C697 1.395 . S
C697 C694 1.411 . S
C697 C696 1.395 . S
C697 C719 1.420 . S
O698 Eu654 2.558 . S
O698 C718 1.257 . S
O699 Eu654 2.612 . S
O699 Eu665 2.380 . S
O699 C710 1.276 . S
O700 Eu665 2.432 . S
O700 C717 1.264 . S
O701 Eu654 2.339 . S
O701 C717 1.254 . S
O702 Eu654 2.563 . S
O702 C710 1.235 . S
O703 Eu654 2.419 . S
O703 C718 1.249 . S
O704 Eu665 2.558 . S
O704 C729 1.257 . S
O705 Eu654 2.380 . S
O705 Eu665 2.612 . S
O705 C721 1.276 . S
O706 Eu654 2.432 . S
O706 C728 1.264 . S
O707 Eu665 2.339 . S
O707 C728 1.254 . S
O708 Eu665 2.563 . S
O708 C721 1.235 . S
O709 Eu665 2.419 . S
O709 C729 1.249 . S
C710 O699 1.276 . S
C710 O702 1.235 . S
C711 C713 1.393 . S
C711 C715 1.395 . S
C711 C718 1.492 . S
C712 C713 1.392 . S
C712 C714 1.386 . S
C713 C711 1.393 . S
C713 C712 1.392 . S
C713 H730 0.930 . S
C714 C712 1.386 . S
C714 C716 1.395 . S
C714 H731 0.930 . S
C715 C711 1.395 . S
C715 C716 1.379 . S
C715 H732 0.930 . S
C716 C714 1.395 . S
C716 C715 1.379 . S
C716 H733 0.930 . S
C717 O700 1.264 . S
C717 O701 1.254 . S
C718 Eu654 2.848 . S
C718 O698 1.257 . S
C718 O703 1.249 . S
C718 C711 1.492 . S
C719 H684 0.931 . S
C719 C697 1.420 . S
C719 C720 1.351 . S
C720 H682 0.930 . S
C720 C688 1.423 . S
C720 C719 1.351 . S
C721 O705 1.276 . S
C721 O708 1.235 . S
C722 C723 1.393 . S
C722 C726 1.395 . S
C722 C729 1.492 . S
C723 C722 1.393 . S
C723 C724 1.392 . S
C723 H734 0.930 . S
C724 C723 1.392 . S
C724 C725 1.386 . S
C725 C724 1.386 . S
C725 C727 1.395 . S
C725 H735 0.930 . S
C726 C722 1.395 . S
C726 C727 1.379 . S
C726 H736 0.930 . S
C727 C725 1.395 . S
C727 C726 1.379 . S
C727 H737 0.930 . S
C728 O706 1.264 . S
C728 O707 1.254 . S
C729 Eu665 2.848 . S
C729 O704 1.257 . S
C729 O709 1.249 . S
C729 C722 1.492 . S
H730 C713 0.930 . S
H731 C714 0.930 . S
H732 C715 0.930 . S
H733 C716 0.930 . S
H734 C723 0.930 . S
H735 C725 0.930 . S
H736 C726 0.930 . S
H737 C727 0.930 . S
Eu738 N769 2.657 . S
Eu738 N776 2.609 . S
Eu738 O782 2.558 . S
Eu738 O783 2.612 . S
Eu738 O785 2.339 . S
Eu738 O786 2.563 . S
Eu738 O787 2.419 . S
Eu738 O789 2.380 . S
Eu738 O790 2.432 . S
Eu738 C802 2.848 . S
C739 C742 1.429 . S
C739 C743 1.411 . S
C739 N746 1.377 . S
C740 C742 1.420 . S
C740 C744 1.423 . S
C740 C752 1.392 . S
C741 C743 1.420 . S
C741 C744 1.351 . S
C741 H764 0.931 . S
C742 C739 1.429 . S
C742 C740 1.420 . S
C742 N750 1.362 . S
C743 C739 1.411 . S
C743 C741 1.420 . S
C743 C748 1.395 . S
C744 C740 1.423 . S
C744 C741 1.351 . S
C744 H756 0.930 . S
C745 C747 1.400 . S
C745 C748 1.386 . S
C745 H757 0.930 . S
N746 C739 1.377 . S
N746 C747 1.321 . S
N746 Eu749 2.609 . S
C747 C745 1.400 . S
C747 N746 1.321 . S
C747 H754 0.930 . S
C748 C743 1.395 . S
C748 C745 1.386 . S
C748 H767 0.930 . S
Eu749 N746 2.609 . S
Eu749 N750 2.657 . S
Eu749 O783 2.380 . S
Eu749 O784 2.432 . S
Eu749 O788 2.558 . S
Eu749 O789 2.612 . S
Eu749 O791 2.339 . S
Eu749 O792 2.563 . S
Eu749 O793 2.419 . S
Eu749 C813 2.848 . S
N750 C742 1.362 . S
N750 Eu749 2.657 . S
N750 C751 1.334 . S
C751 N750 1.334 . S
C751 C753 1.413 . S
C751 H758 0.929 . S
C752 C740 1.392 . S
C752 C753 1.367 . S
C752 H760 0.930 . S
C753 C751 1.413 . S
C753 C752 1.367 . S
C753 H755 0.930 . S
H754 C747 0.930 . S
H755 C753 0.930 . S
H756 C744 0.930 . S
H757 C745 0.930 . S
H758 C751 0.929 . S
H759 C773 0.930 . S
H760 C752 0.930 . S
H761 C779 0.930 . S
H762 C770 0.929 . S
H763 C777 0.930 . S
H764 C741 0.931 . S
H765 C771 0.930 . S
H766 C804 0.930 . S
H767 C748 0.930 . S
H768 C803 0.931 . S
N769 Eu738 2.657 . S
N769 C770 1.334 . S
N769 C774 1.362 . S
C770 H762 0.929 . S
C770 N769 1.334 . S
C770 C773 1.413 . S
C771 H765 0.930 . S
C771 C772 1.392 . S
C771 C773 1.367 . S
C772 C771 1.392 . S
C772 C774 1.420 . S
C772 C804 1.423 . S
C773 H759 0.930 . S
C773 C770 1.413 . S
C773 C771 1.367 . S
C774 N769 1.362 . S
C774 C772 1.420 . S
C774 C778 1.429 . S
H775 C780 0.930 . S
N776 Eu738 2.609 . S
N776 C778 1.377 . S
N776 C779 1.321 . S
C777 H763 0.930 . S
C777 C779 1.400 . S
C777 C780 1.386 . S
C778 C774 1.429 . S
C778 N776 1.377 . S
C778 C781 1.411 . S
C779 H761 0.930 . S
C779 N776 1.321 . S
C779 C777 1.400 . S
C780 H775 0.930 . S
C780 C777 1.386 . S
C780 C781 1.395 . S
C781 C778 1.411 . S
C781 C780 1.395 . S
C781 C803 1.420 . S
O782 Eu738 2.558 . S
O782 C802 1.257 . S
O783 Eu738 2.612 . S
O783 Eu749 2.380 . S
O783 C794 1.276 . S
O784 Eu749 2.432 . S
O784 C801 1.264 . S
O785 Eu738 2.339 . S
O785 C801 1.254 . S
O786 Eu738 2.563 . S
O786 C794 1.235 . S
O787 Eu738 2.419 . S
O787 C802 1.249 . S
O788 Eu749 2.558 . S
O788 C813 1.257 . S
O789 Eu738 2.380 . S
O789 Eu749 2.612 . S
O789 C805 1.276 . S
O790 Eu738 2.432 . S
O790 C812 1.264 . S
O791 Eu749 2.339 . S
O791 C812 1.254 . S
O792 Eu749 2.563 . S
O792 C805 1.235 . S
O793 Eu749 2.419 . S
O793 C813 1.249 . S
C794 O783 1.276 . S
C794 O786 1.235 . S
C795 C797 1.393 . S
C795 C799 1.395 . S
C795 C802 1.492 . S
C796 C797 1.392 . S
C796 C798 1.386 . S
C797 C795 1.393 . S
C797 C796 1.392 . S
C797 H814 0.930 . S
C798 C796 1.386 . S
C798 C800 1.395 . S
C798 H815 0.930 . S
C799 C795 1.395 . S
C799 C800 1.379 . S
C799 H816 0.930 . S
C800 C798 1.395 . S
C800 C799 1.379 . S
C800 H817 0.930 . S
C801 O784 1.264 . S
C801 O785 1.254 . S
C802 Eu738 2.848 . S
C802 O782 1.257 . S
C802 O787 1.249 . S
C802 C795 1.492 . S
C803 H768 0.931 . S
C803 C781 1.420 . S
C803 C804 1.351 . S
C804 H766 0.930 . S
C804 C772 1.423 . S
C804 C803 1.351 . S
C805 O789 1.276 . S
C805 O792 1.235 . S
C806 C807 1.393 . S
C806 C810 1.395 . S
C806 C813 1.492 . S
C807 C806 1.393 . S
C807 C808 1.392 . S
C807 H818 0.930 . S
C808 C807 1.392 . S
C808 C809 1.386 . S
C809 C808 1.386 . S
C809 C811 1.395 . S
C809 H819 0.930 . S
C810 C806 1.395 . S
C810 C811 1.379 . S
C810 H820 0.930 . S
C811 C809 1.395 . S
C811 C810 1.379 . S
C811 H821 0.930 . S
C812 O790 1.264 . S
C812 O791 1.254 . S
C813 Eu749 2.848 . S
C813 O788 1.257 . S
C813 O793 1.249 . S
C813 C806 1.492 . S
H814 C797 0.930 . S
H815 C798 0.930 . S
H816 C799 0.930 . S
H817 C800 0.930 . S
H818 C807 0.930 . S
H819 C809 0.930 . S
H820 C810 0.930 . S
H821 C811 0.930 . S
Eu822 N853 2.657 . S
Eu822 N860 2.609 . S
Eu822 O866 2.558 . S
Eu822 O867 2.612 . S
Eu822 O869 2.339 . S
Eu822 O870 2.563 . S
Eu822 O871 2.419 . S
Eu822 O873 2.380 . S
Eu822 O874 2.432 . S
Eu822 C886 2.848 . S
C823 C826 1.429 . S
C823 C827 1.411 . S
C823 N830 1.377 . S
C824 C826 1.420 . S
C824 C828 1.423 . S
C824 C836 1.392 . S
C825 C827 1.420 . S
C825 C828 1.351 . S
C825 H848 0.931 . S
C826 C823 1.429 . S
C826 C824 1.420 . S
C826 N834 1.362 . S
C827 C823 1.411 . S
C827 C825 1.420 . S
C827 C832 1.395 . S
C828 C824 1.423 . S
C828 C825 1.351 . S
C828 H840 0.930 . S
C829 C831 1.400 . S
C829 C832 1.386 . S
C829 H841 0.930 . S
N830 C823 1.377 . S
N830 C831 1.321 . S
N830 Eu833 2.609 . S
C831 C829 1.400 . S
C831 N830 1.321 . S
C831 H838 0.930 . S
C832 C827 1.395 . S
C832 C829 1.386 . S
C832 H851 0.930 . S
Eu833 N830 2.609 . S
Eu833 N834 2.657 . S
Eu833 O867 2.380 . S
Eu833 O868 2.432 . S
Eu833 O872 2.558 . S
Eu833 O873 2.612 . S
Eu833 O875 2.339 . S
Eu833 O876 2.563 . S
Eu833 O877 2.419 . S
Eu833 C897 2.848 . S
N834 C826 1.362 . S
N834 Eu833 2.657 . S
N834 C835 1.334 . S
C835 N834 1.334 . S
C835 C837 1.413 . S
C835 H842 0.929 . S
C836 C824 1.392 . S
C836 C837 1.367 . S
C836 H844 0.930 . S
C837 C835 1.413 . S
C837 C836 1.367 . S
C837 H839 0.930 . S
H838 C831 0.930 . S
H839 C837 0.930 . S
H840 C828 0.930 . S
H841 C829 0.930 . S
H842 C835 0.929 . S
H843 C857 0.930 . S
H844 C836 0.930 . S
H845 C863 0.930 . S
H846 C854 0.929 . S
H847 C861 0.930 . S
H848 C825 0.931 . S
H849 C855 0.930 . S
H850 C888 0.930 . S
H851 C832 0.930 . S
H852 C887 0.931 . S
N853 Eu822 2.657 . S
N853 C854 1.334 . S
N853 C858 1.362 . S
C854 H846 0.929 . S
C854 N853 1.334 . S
C854 C857 1.413 . S
C855 H849 0.930 . S
C855 C856 1.392 . S
C855 C857 1.367 . S
C856 C855 1.392 . S
C856 C858 1.420 . S
C856 C888 1.423 . S
C857 H843 0.930 . S
C857 C854 1.413 . S
C857 C855 1.367 . S
C858 N853 1.362 . S
C858 C856 1.420 . S
C858 C862 1.429 . S
H859 C864 0.930 . S
N860 Eu822 2.609 . S
N860 C862 1.377 . S
N860 C863 1.321 . S
C861 H847 0.930 . S
C861 C863 1.400 . S
C861 C864 1.386 . S
C862 C858 1.429 . S
C862 N860 1.377 . S
C862 C865 1.411 . S
C863 H845 0.930 . S
C863 N860 1.321 . S
C863 C861 1.400 . S
C864 H859 0.930 . S
C864 C861 1.386 . S
C864 C865 1.395 . S
C865 C862 1.411 . S
C865 C864 1.395 . S
C865 C887 1.420 . S
O866 Eu822 2.558 . S
O866 C886 1.257 . S
O867 Eu822 2.612 . S
O867 Eu833 2.380 . S
O867 C878 1.276 . S
O868 Eu833 2.432 . S
O868 C885 1.264 . S
O869 Eu822 2.339 . S
O869 C885 1.254 . S
O870 Eu822 2.563 . S
O870 C878 1.235 . S
O871 Eu822 2.419 . S
O871 C886 1.249 . S
O872 Eu833 2.558 . S
O872 C897 1.257 . S
O873 Eu822 2.380 . S
O873 Eu833 2.612 . S
O873 C889 1.276 . S
O874 Eu822 2.432 . S
O874 C896 1.264 . S
O875 Eu833 2.339 . S
O875 C896 1.254 . S
O876 Eu833 2.563 . S
O876 C889 1.235 . S
O877 Eu833 2.419 . S
O877 C897 1.249 . S
C878 O867 1.276 . S
C878 O870 1.235 . S
C879 C881 1.393 . S
C879 C883 1.395 . S
C879 C886 1.492 . S
C880 C881 1.392 . S
C880 C882 1.386 . S
C881 C879 1.393 . S
C881 C880 1.392 . S
C881 H898 0.930 . S
C882 C880 1.386 . S
C882 C884 1.395 . S
C882 H899 0.930 . S
C883 C879 1.395 . S
C883 C884 1.379 . S
C883 H900 0.930 . S
C884 C882 1.395 . S
C884 C883 1.379 . S
C884 H901 0.930 . S
C885 O868 1.264 . S
C885 O869 1.254 . S
C886 Eu822 2.848 . S
C886 O866 1.257 . S
C886 O871 1.249 . S
C886 C879 1.492 . S
C887 H852 0.931 . S
C887 C865 1.420 . S
C887 C888 1.351 . S
C888 H850 0.930 . S
C888 C856 1.423 . S
C888 C887 1.351 . S
C889 O873 1.276 . S
C889 O876 1.235 . S
C890 C891 1.393 . S
C890 C894 1.395 . S
C890 C897 1.492 . S
C891 C890 1.393 . S
C891 C892 1.392 . S
C891 H902 0.930 . S
C892 C891 1.392 . S
C892 C893 1.386 . S
C893 C892 1.386 . S
C893 C895 1.395 . S
C893 H903 0.930 . S
C894 C890 1.395 . S
C894 C895 1.379 . S
C894 H904 0.930 . S
C895 C893 1.395 . S
C895 C894 1.379 . S
C895 H905 0.930 . S
C896 O874 1.264 . S
C896 O875 1.254 . S
C897 Eu833 2.848 . S
C897 O872 1.257 . S
C897 O877 1.249 . S
C897 C890 1.492 . S
H898 C881 0.930 . S
H899 C882 0.930 . S
H900 C883 0.930 . S
H901 C884 0.930 . S
H902 C891 0.930 . S
H903 C893 0.930 . S
H904 C894 0.930 . S
H905 C895 0.930 . S
Eu906 N937 2.657 . S
Eu906 N944 2.609 . S
Eu906 O950 2.558 . S
Eu906 O951 2.612 . S
Eu906 O953 2.339 . S
Eu906 O954 2.563 . S
Eu906 O955 2.419 . S
Eu906 O957 2.380 . S
Eu906 O958 2.432 . S
Eu906 C970 2.848 . S
C907 C910 1.429 . S
C907 C911 1.411 . S
C907 N914 1.377 . S
C908 C910 1.420 . S
C908 C912 1.423 . S
C908 C920 1.392 . S
C909 C911 1.420 . S
C909 C912 1.351 . S
C909 H932 0.931 . S
C910 C907 1.429 . S
C910 C908 1.420 . S
C910 N918 1.362 . S
C911 C907 1.411 . S
C911 C909 1.420 . S
C911 C916 1.395 . S
C912 C908 1.423 . S
C912 C909 1.351 . S
C912 H924 0.930 . S
C913 C915 1.400 . S
C913 C916 1.386 . S
C913 H925 0.930 . S
N914 C907 1.377 . S
N914 C915 1.321 . S
N914 Eu917 2.609 . S
C915 C913 1.400 . S
C915 N914 1.321 . S
C915 H922 0.930 . S
C916 C911 1.395 . S
C916 C913 1.386 . S
C916 H935 0.930 . S
Eu917 N914 2.609 . S
Eu917 N918 2.657 . S
Eu917 O951 2.380 . S
Eu917 O952 2.432 . S
Eu917 O956 2.558 . S
Eu917 O957 2.612 . S
Eu917 O959 2.339 . S
Eu917 O960 2.563 . S
Eu917 O961 2.419 . S
Eu917 C981 2.848 . S
N918 C910 1.362 . S
N918 Eu917 2.657 . S
N918 C919 1.334 . S
C919 N918 1.334 . S
C919 C921 1.413 . S
C919 H926 0.929 . S
C920 C908 1.392 . S
C920 C921 1.367 . S
C920 H928 0.930 . S
C921 C919 1.413 . S
C921 C920 1.367 . S
C921 H923 0.930 . S
H922 C915 0.930 . S
H923 C921 0.930 . S
H924 C912 0.930 . S
H925 C913 0.930 . S
H926 C919 0.929 . S
H927 C941 0.930 . S
H928 C920 0.930 . S
H929 C947 0.930 . S
H930 C938 0.929 . S
H931 C945 0.930 . S
H932 C909 0.931 . S
H933 C939 0.930 . S
H934 C972 0.930 . S
H935 C916 0.930 . S
H936 C971 0.931 . S
N937 Eu906 2.657 . S
N937 C938 1.334 . S
N937 C942 1.362 . S
C938 H930 0.929 . S
C938 N937 1.334 . S
C938 C941 1.413 1_655 S
C939 H933 0.930 . S
C939 C940 1.392 . S
C939 C941 1.367 . S
C940 C939 1.392 . S
C940 C942 1.420 1_455 S
C940 C972 1.423 . S
C941 H927 0.930 . S
C941 C938 1.413 1_455 S
C941 C939 1.367 . S
C942 N937 1.362 . S
C942 C940 1.420 1_655 S
C942 C946 1.429 . S
H943 C948 0.930 . S
N944 Eu906 2.609 . S
N944 C946 1.377 . S
N944 C947 1.321 . S
C945 H931 0.930 . S
C945 C947 1.400 . S
C945 C948 1.386 . S
C946 C942 1.429 . S
C946 N944 1.377 . S
C946 C949 1.411 . S
C947 H929 0.930 . S
C947 N944 1.321 . S
C947 C945 1.400 . S
C948 H943 0.930 . S
C948 C945 1.386 . S
C948 C949 1.395 . S
C949 C946 1.411 . S
C949 C948 1.395 . S
C949 C971 1.420 1_655 S
O950 Eu906 2.558 . S
O950 C970 1.257 . S
O951 Eu906 2.612 . S
O951 Eu917 2.380 . S
O951 C962 1.276 . S
O952 Eu917 2.432 . S
O952 C969 1.264 . S
O953 Eu906 2.339 . S
O953 C969 1.254 . S
O954 Eu906 2.563 . S
O954 C962 1.235 . S
O955 Eu906 2.419 . S
O955 C970 1.249 . S
O956 Eu917 2.558 . S
O956 C981 1.257 . S
O957 Eu906 2.380 . S
O957 Eu917 2.612 . S
O957 C973 1.276 . S
O958 Eu906 2.432 . S
O958 C980 1.264 . S
O959 Eu917 2.339 . S
O959 C980 1.254 . S
O960 Eu917 2.563 . S
O960 C973 1.235 . S
O961 Eu917 2.419 . S
O961 C981 1.249 . S
C962 O951 1.276 . S
C962 O954 1.235 . S
C963 C965 1.393 . S
C963 C967 1.395 . S
C963 C970 1.492 . S
C964 C965 1.392 . S
C964 C966 1.386 . S
C965 C963 1.393 . S
C965 C964 1.392 . S
C965 H982 0.930 . S
C966 C964 1.386 . S
C966 C968 1.395 . S
C966 H983 0.930 . S
C967 C963 1.395 . S
C967 C968 1.379 . S
C967 H984 0.930 . S
C968 C966 1.395 . S
C968 C967 1.379 . S
C968 H985 0.930 . S
C969 O952 1.264 . S
C969 O953 1.254 . S
C970 Eu906 2.848 . S
C970 O950 1.257 . S
C970 O955 1.249 . S
C970 C963 1.492 . S
C971 H936 0.931 . S
C971 C949 1.420 1_455 S
C971 C972 1.351 . S
C972 H934 0.930 . S
C972 C940 1.423 . S
C972 C971 1.351 . S
C973 O957 1.276 . S
C973 O960 1.235 . S
C974 C975 1.393 . S
C974 C978 1.395 . S
C974 C981 1.492 . S
C975 C974 1.393 . S
C975 C976 1.392 . S
C975 H986 0.930 . S
C976 C975 1.392 . S
C976 C977 1.386 . S
C977 C976 1.386 . S
C977 C979 1.395 . S
C977 H987 0.930 . S
C978 C974 1.395 . S
C978 C979 1.379 . S
C978 H988 0.930 . S
C979 C977 1.395 . S
C979 C978 1.379 . S
C979 H989 0.930 . S
C980 O958 1.264 . S
C980 O959 1.254 . S
C981 Eu917 2.848 . S
C981 O956 1.257 . S
C981 O961 1.249 . S
C981 C974 1.492 . S
H982 C965 0.930 . S
H983 C966 0.930 . S
H984 C967 0.930 . S
H985 C968 0.930 . S
H986 C975 0.930 . S
H987 C977 0.930 . S
H988 C978 0.930 . S
H989 C979 0.930 . S
C990 C991 1.369 . S
C990 C992 1.419 . S
C990 H994 0.930 . S
C991 C990 1.369 . S
C991 C1000 1.429 . S
C992 C990 1.419 . S
C992 C993 1.363 . S
C992 H995 0.929 . S
C993 C992 1.363 . S
C993 C999 1.428 . S
H994 C990 0.930 . S
H995 C992 0.929 . S
S996 N997 1.613 1_556 S
S996 N998 1.610 . S
N997 S996 1.613 1_554 S
N997 C1000 1.350 . S
N998 S996 1.610 . S
N998 C999 1.351 1_556 S
C999 C993 1.428 . S
C999 N998 1.351 1_554 S
C999 C1000 1.434 . S
C1000 C991 1.429 . S
C1000 N997 1.350 . S
C1000 C999 1.434 . S
C1001 C1002 1.369 . S
C1001 C1003 1.419 . S
C1001 H1005 0.930 . S
C1002 C1001 1.369 . S
C1002 C1011 1.429 . S
C1003 C1001 1.419 . S
C1003 C1004 1.363 . S
C1003 H1006 0.929 . S
C1004 C1003 1.363 . S
C1004 C1010 1.428 . S
H1005 C1001 0.930 . S
H1006 C1003 0.929 . S
S1007 N1008 1.613 1_556 S
S1007 N1009 1.610 . S
N1008 S1007 1.613 1_554 S
N1008 C1011 1.350 . S
N1009 S1007 1.610 . S
N1009 C1010 1.351 1_556 S
C1010 C1004 1.428 . S
C1010 N1009 1.351 1_554 S
C1010 C1011 1.434 . S
C1011 C1002 1.429 . S
C1011 N1008 1.350 . S
C1011 C1010 1.434 . S
C1012 C1013 1.369 . S
C1012 C1014 1.419 . S
C1012 H1016 0.930 . S
C1013 C1012 1.369 . S
C1013 C1022 1.429 . S
C1014 C1012 1.419 . S
C1014 C1015 1.363 . S
C1014 H1017 0.929 . S
C1015 C1014 1.363 . S
C1015 C1021 1.428 . S
H1016 C1012 0.930 . S
H1017 C1014 0.929 . S
S1018 N1019 1.613 . S
S1018 N1020 1.610 . S
N1019 S1018 1.613 . S
N1019 C1022 1.350 . S
N1020 S1018 1.610 . S
N1020 C1021 1.351 . S
C1021 C1015 1.428 . S
C1021 N1020 1.351 . S
C1021 C1022 1.434 . S
C1022 C1013 1.429 . S
C1022 N1019 1.350 . S
C1022 C1021 1.434 . S
C1023 C1024 1.369 . S
C1023 C1025 1.419 . S
C1023 H1027 0.930 . S
C1024 C1023 1.369 . S
C1024 C1033 1.429 . S
C1025 C1023 1.419 . S
C1025 C1026 1.363 . S
C1025 H1028 0.929 . S
C1026 C1025 1.363 . S
C1026 C1032 1.428 . S
H1027 C1023 0.930 . S
H1028 C1025 0.929 . S
S1029 N1030 1.613 . S
S1029 N1031 1.610 . S
N1030 S1029 1.613 . S
N1030 C1033 1.350 . S
N1031 S1029 1.610 . S
N1031 C1032 1.351 . S
C1032 C1026 1.428 . S
C1032 N1031 1.351 . S
C1032 C1033 1.434 . S
C1033 C1024 1.429 . S
C1033 N1030 1.350 . S
C1033 C1032 1.434 . S
C1034 C1035 1.369 . S
C1034 C1036 1.419 . S
C1034 H1038 0.930 . S
C1035 C1034 1.369 . S
C1035 C1044 1.429 . S
C1036 C1034 1.419 . S
C1036 C1037 1.363 . S
C1036 H1039 0.929 . S
C1037 C1036 1.363 . S
C1037 C1043 1.428 . S
H1038 C1034 0.930 . S
H1039 C1036 0.929 . S
S1040 N1041 1.613 1_554 S
S1040 N1042 1.610 . S
N1041 S1040 1.613 1_556 S
N1041 C1044 1.350 . S
N1042 S1040 1.610 . S
N1042 C1043 1.351 1_554 S
C1043 C1037 1.428 . S
C1043 N1042 1.351 1_556 S
C1043 C1044 1.434 . S
C1044 C1035 1.429 . S
C1044 N1041 1.350 . S
C1044 C1043 1.434 . S
C1045 C1046 1.369 . S
C1045 C1047 1.431 . S
C1045 H1049 0.926 1_556 S
C1046 C1045 1.369 . S
C1046 C1055 1.429 . S
C1047 C1045 1.431 . S
C1047 C1048 1.382 . S
C1047 H1050 0.898 1_556 S
C1048 C1047 1.382 . S
C1048 C1054 1.428 . S
H1049 C1045 0.926 1_554 S
H1050 C1047 0.898 1_554 S
S1051 N1052 1.613 . S
S1051 N1053 1.610 . S
N1052 S1051 1.613 . S
N1052 C1055 1.350 . S
N1053 S1051 1.610 . S
N1053 C1054 1.351 . S
C1054 C1048 1.428 . S
C1054 N1053 1.351 . S
C1054 C1055 1.434 . S
C1055 C1046 1.429 . S
C1055 N1052 1.350 . S
C1055 C1054 1.434 . S
C1056 C1057 1.369 . S
C1056 C1058 1.419 . S
C1056 H1060 0.930 . S
C1057 C1056 1.369 . S
C1057 C1066 1.429 . S
C1058 C1056 1.419 . S
C1058 C1059 1.363 . S
C1058 H1061 0.929 1_556 S
C1059 C1058 1.363 . S
C1059 C1065 1.428 . S
H1060 C1056 0.930 . S
H1061 C1058 0.929 1_554 S
S1062 N1063 1.613 . S
S1062 N1064 1.610 . S
N1063 S1062 1.613 . S
N1063 C1066 1.350 . S
N1064 S1062 1.610 . S
N1064 C1065 1.351 . S
C1065 C1059 1.428 . S
C1065 N1064 1.351 . S
C1065 C1066 1.434 . S
C1066 C1057 1.429 . S
C1066 N1063 1.350 . S
C1066 C1065 1.434 . S
C1067 C1068 1.369 . S
C1067 C1069 1.419 . S
C1067 H1071 0.930 . S
C1068 C1067 1.369 . S
C1068 C1077 1.429 . S
C1069 C1067 1.419 . S
C1069 C1070 1.363 . S
C1069 H1072 0.929 . S
C1070 C1069 1.363 . S
C1070 C1076 1.428 . S
H1071 C1067 0.930 . S
H1072 C1069 0.929 . S
S1073 N1074 1.613 . S
S1073 N1075 1.610 . S
N1074 S1073 1.613 . S
N1074 C1077 1.350 1_554 S
N1075 S1073 1.610 . S
N1075 C1076 1.351 1_554 S
C1076 C1070 1.428 . S
C1076 N1075 1.351 1_556 S
C1076 C1077 1.434 . S
C1077 C1068 1.429 . S
C1077 N1074 1.350 1_556 S
C1077 C1076 1.434 . S
C1078 C1079 1.373 . S
C1078 C1080 1.418 1_556 S
C1078 H1082 0.927 1_556 S
C1079 C1078 1.373 . S
C1079 C1088 1.429 . S
C1080 C1078 1.418 1_554 S
C1080 C1081 1.363 1_554 S
C1080 H1083 0.929 . S
C1081 C1080 1.363 1_556 S
C1081 C1087 1.428 . S
H1082 C1078 0.927 1_554 S
H1083 C1080 0.929 . S
S1084 N1085 1.613 . S
S1084 N1086 1.610 . S
N1085 S1084 1.613 . S
N1085 C1088 1.350 . S
N1086 S1084 1.610 . S
N1086 C1087 1.351 . S
C1087 C1081 1.428 . S
C1087 N1086 1.351 . S
C1087 C1088 1.434 . S
C1088 C1079 1.429 . S
C1088 N1085 1.350 . S
C1088 C1087 1.434 . S
C1089 C1090 1.369 . S
C1089 C1091 1.419 . S
C1089 H1093 0.930 . S
C1090 C1089 1.369 . S
C1090 C1099 1.429 . S
C1091 C1089 1.419 . S
C1091 C1092 1.363 . S
C1091 H1094 0.929 . S
C1092 C1091 1.363 . S
C1092 C1098 1.428 . S
H1093 C1089 0.930 . S
H1094 C1091 0.929 . S
S1095 N1096 1.613 . S
S1095 N1097 1.610 . S
N1096 S1095 1.613 . S
N1096 C1099 1.350 . S
N1097 S1095 1.610 . S
N1097 C1098 1.351 . S
C1098 C1092 1.428 . S
C1098 N1097 1.351 . S
C1098 C1099 1.434 . S
C1099 C1090 1.429 . S
C1099 N1096 1.350 . S
C1099 C1098 1.434 . S
C1100 C1101 1.369 . S
C1100 C1102 1.419 . S
C1100 H1104 0.930 . S
C1101 C1100 1.369 . S
C1101 C1110 1.429 . S
C1102 C1100 1.419 . S
C1102 C1103 1.363 . S
C1102 H1105 0.929 . S
C1103 C1102 1.363 . S
C1103 C1109 1.428 . S
H1104 C1100 0.930 . S
H1105 C1102 0.929 . S
S1106 N1107 1.613 . S
S1106 N1108 1.610 . S
N1107 S1106 1.613 . S
N1107 C1110 1.350 . S
N1108 S1106 1.610 . S
N1108 C1109 1.351 . S
C1109 C1103 1.428 . S
C1109 N1108 1.351 . S
C1109 C1110 1.434 . S
C1110 C1101 1.429 . S
C1110 N1107 1.350 . S
C1110 C1109 1.434 . S
C1111 C1112 1.369 . S
C1111 C1113 1.419 . S
C1111 H1115 0.930 . S
C1112 C1111 1.369 . S
C1112 C1121 1.429 . S
C1113 C1111 1.419 . S
C1113 C1114 1.363 . S
C1113 H1116 0.929 . S
C1114 C1113 1.363 . S
C1114 C1120 1.428 . S
H1115 C1111 0.930 . S
H1116 C1113 0.929 . S
S1117 N1118 1.613 . S
S1117 N1119 1.610 . S
N1118 S1117 1.613 . S
N1118 C1121 1.350 . S
N1119 S1117 1.610 . S
N1119 C1120 1.351 . S
C1120 C1114 1.428 . S
C1120 N1119 1.351 . S
C1120 C1121 1.434 . S
C1121 C1112 1.429 . S
C1121 N1118 1.350 . S
C1121 C1120 1.434 . S
C1122 C1123 1.369 . S
C1122 C1124 1.419 1_655 S
C1122 H1126 0.930 . S
C1123 C1122 1.369 . S
C1123 C1132 1.429 . S
C1124 C1122 1.419 1_455 S
C1124 C1125 1.363 . S
C1124 H1127 0.929 . S
C1125 C1124 1.363 . S
C1125 C1131 1.428 . S
H1126 C1122 0.930 . S
H1127 C1124 0.929 . S
S1128 N1129 1.613 . S
S1128 N1130 1.610 1_655 S
N1129 S1128 1.613 . S
N1129 C1132 1.350 . S
N1130 S1128 1.610 1_455 S
N1130 C1131 1.351 . S
C1131 C1125 1.428 . S
C1131 N1130 1.351 . S
C1131 C1132 1.434 1_455 S
C1132 C1123 1.429 . S
C1132 N1129 1.350 . S
C1132 C1131 1.434 1_655 S
C1133 C1134 1.369 . S
C1133 C1135 1.419 . S
C1133 H1137 0.930 . S
C1134 C1133 1.369 . S
C1134 C1143 1.429 . S
C1135 C1133 1.419 . S
C1135 C1136 1.363 . S
C1135 H1138 0.929 . S
C1136 C1135 1.363 . S
C1136 C1142 1.428 . S
H1137 C1133 0.930 . S
H1138 C1135 0.929 . S
S1139 N1140 1.613 . S
S1139 N1141 1.610 . S
N1140 S1139 1.613 . S
N1140 C1143 1.350 . S
N1141 S1139 1.610 . S
N1141 C1142 1.351 . S
C1142 C1136 1.428 . S
C1142 N1141 1.351 . S
C1142 C1143 1.434 . S
C1143 C1134 1.429 . S
C1143 N1140 1.350 . S
C1143 C1142 1.434 . S
C1144 C1145 1.369 . S
C1144 C1146 1.419 . S
C1144 H1148 0.930 . S
C1145 C1144 1.369 . S
C1145 C1154 1.429 . S
C1146 C1144 1.419 . S
C1146 C1147 1.363 1_545 S
C1146 H1149 0.929 . S
C1147 C1146 1.363 1_565 S
C1147 C1153 1.428 . S
H1148 C1144 0.930 . S
H1149 C1146 0.929 . S
S1150 N1151 1.613 1_565 S
S1150 N1152 1.610 . S
N1151 S1150 1.613 1_545 S
N1151 C1154 1.350 . S
N1152 S1150 1.610 . S
N1152 C1153 1.351 . S
C1153 C1147 1.428 . S
C1153 N1152 1.351 . S
C1153 C1154 1.434 1_565 S
C1154 C1145 1.429 . S
C1154 N1151 1.350 . S
C1154 C1153 1.434 1_545 S
C1155 C1156 1.369 . S
C1155 C1157 1.419 . S
C1155 H1159 0.930 . S
C1156 C1155 1.369 . S
C1156 C1165 1.429 . S
C1157 C1155 1.419 . S
C1157 C1158 1.363 . S
C1157 H1160 0.929 . S
C1158 C1157 1.363 . S
C1158 C1164 1.428 . S
H1159 C1155 0.930 . S
H1160 C1157 0.929 . S
S1161 N1162 1.613 . S
S1161 N1163 1.610 . S
N1162 S1161 1.613 . S
N1162 C1165 1.350 . S
N1163 S1161 1.610 . S
N1163 C1164 1.351 . S
C1164 C1158 1.428 . S
C1164 N1163 1.351 . S
C1164 C1165 1.434 . S
C1165 C1156 1.429 . S
C1165 N1162 1.350 . S
C1165 C1164 1.434 . S
C1166 C1167 1.369 . S
C1166 C1168 1.419 . S
C1166 H1170 0.930 . S
C1167 C1166 1.369 . S
C1167 C1176 1.429 . S
C1168 C1166 1.419 . S
C1168 C1169 1.363 . S
C1168 H1171 0.929 . S
C1169 C1168 1.363 . S
C1169 C1175 1.428 . S
H1170 C1166 0.930 . S
H1171 C1168 0.929 . S
S1172 N1173 1.613 . S
S1172 N1174 1.610 . S
N1173 S1172 1.613 . S
N1173 C1176 1.350 . S
N1174 S1172 1.610 . S
N1174 C1175 1.351 . S
C1175 C1169 1.428 . S
C1175 N1174 1.351 . S
C1175 C1176 1.434 . S
C1176 C1167 1.429 . S
C1176 N1173 1.350 . S
C1176 C1175 1.434 . S
C1177 C1178 1.369 . S
C1177 C1179 1.419 . S
C1177 H1181 0.930 . S
C1178 C1177 1.369 . S
C1178 C1187 1.429 . S
C1179 C1177 1.419 . S
C1179 C1180 1.363 . S
C1179 H1182 0.929 . S
C1180 C1179 1.363 . S
C1180 C1186 1.428 . S
H1181 C1177 0.930 . S
H1182 C1179 0.929 . S
S1183 N1184 1.613 . S
S1183 N1185 1.610 . S
N1184 S1183 1.613 . S
N1184 C1187 1.350 . S
N1185 S1183 1.610 . S
N1185 C1186 1.351 . S
C1186 C1180 1.428 . S
C1186 N1185 1.351 . S
C1186 C1187 1.434 . S
C1187 C1178 1.429 . S
C1187 N1184 1.350 . S
C1187 C1186 1.434 . S
C1188 C1189 1.369 . S
C1188 C1190 1.419 . S
C1188 H1192 0.930 . S
C1189 C1188 1.369 . S
C1189 C1198 1.429 . S
C1190 C1188 1.419 . S
C1190 C1191 1.363 . S
C1190 H1193 0.929 . S
C1191 C1190 1.363 . S
C1191 C1197 1.428 . S
H1192 C1188 0.930 . S
H1193 C1190 0.929 . S
S1194 N1195 1.613 . S
S1194 N1196 1.610 . S
N1195 S1194 1.613 . S
N1195 C1198 1.350 . S
N1196 S1194 1.610 . S
N1196 C1197 1.351 . S
C1197 C1191 1.428 . S
C1197 N1196 1.351 . S
C1197 C1198 1.434 . S
C1198 C1189 1.429 . S
C1198 N1195 1.350 . S
C1198 C1197 1.434 . S
C1199 C1200 1.369 . S
C1199 C1201 1.419 . S
C1199 H1203 0.930 . S
C1200 C1199 1.369 . S
C1200 C1209 1.429 . S
C1201 C1199 1.419 . S
C1201 C1202 1.363 . S
C1201 H1204 0.929 . S
C1202 C1201 1.363 . S
C1202 C1208 1.428 . S
H1203 C1199 0.930 . S
H1204 C1201 0.929 . S
S1205 N1206 1.613 . S
S1205 N1207 1.610 . S
N1206 S1205 1.613 . S
N1206 C1209 1.350 . S
N1207 S1205 1.610 . S
N1207 C1208 1.351 . S
C1208 C1202 1.428 . S
C1208 N1207 1.351 . S
C1208 C1209 1.434 . S
C1209 C1200 1.429 . S
C1209 N1206 1.350 . S
C1209 C1208 1.434 . S
C1210 C1211 1.369 . S
C1210 C1212 1.419 . S
C1210 H1214 0.930 . S
C1211 C1210 1.369 . S
C1211 C1220 1.429 . S
C1212 C1210 1.419 . S
C1212 C1213 1.363 . S
C1212 H1215 0.929 . S
C1213 C1212 1.363 . S
C1213 C1219 1.428 . S
H1214 C1210 0.930 . S
H1215 C1212 0.929 . S
S1216 N1217 1.613 . S
S1216 N1218 1.610 . S
N1217 S1216 1.613 . S
N1217 C1220 1.350 . S
N1218 S1216 1.610 . S
N1218 C1219 1.351 . S
C1219 C1213 1.428 . S
C1219 N1218 1.351 . S
C1219 C1220 1.434 . S
C1220 C1211 1.429 . S
C1220 N1217 1.350 . S
C1220 C1219 1.434 . S
C1221 C1222 1.369 . S
C1221 C1223 1.419 . S
C1221 H1225 0.930 . S
C1222 C1221 1.369 . S
C1222 C1231 1.429 . S
C1223 C1221 1.419 . S
C1223 C1224 1.363 . S
C1223 H1226 0.929 . S
C1224 C1223 1.363 . S
C1224 C1230 1.428 . S
H1225 C1221 0.930 . S
H1226 C1223 0.929 . S
S1227 N1228 1.613 . S
S1227 N1229 1.610 . S
N1228 S1227 1.613 . S
N1228 C1231 1.350 . S
N1229 S1227 1.610 . S
N1229 C1230 1.351 . S
C1230 C1224 1.428 . S
C1230 N1229 1.351 . S
C1230 C1231 1.434 . S
C1231 C1222 1.429 . S
C1231 N1228 1.350 . S
C1231 C1230 1.434 . S
C1232 C1233 1.369 . S
C1232 C1234 1.419 . S
C1232 H1236 0.930 . S
C1233 C1232 1.369 . S
C1233 C1242 1.429 . S
C1234 C1232 1.419 . S
C1234 C1235 1.363 . S
C1234 H1237 0.929 . S
C1235 C1234 1.363 . S
C1235 C1241 1.428 . S
H1236 C1232 0.930 . S
H1237 C1234 0.929 . S
S1238 N1239 1.613 . S
S1238 N1240 1.610 . S
N1239 S1238 1.613 . S
N1239 C1242 1.350 . S
N1240 S1238 1.610 . S
N1240 C1241 1.351 . S
C1241 C1235 1.428 . S
C1241 N1240 1.351 . S
C1241 C1242 1.434 . S
C1242 C1233 1.429 . S
C1242 N1239 1.350 . S
C1242 C1241 1.434 . S
C1243 C1244 1.369 . S
C1243 C1245 1.419 . S
C1243 H1247 0.930 . S
C1244 C1243 1.369 . S
C1244 C1253 1.429 . S
C1245 C1243 1.419 . S
C1245 C1246 1.363 . S
C1245 H1248 0.929 . S
C1246 C1245 1.363 . S
C1246 C1252 1.428 . S
H1247 C1243 0.930 . S
H1248 C1245 0.929 . S
S1249 N1250 1.613 . S
S1249 N1251 1.610 . S
N1250 S1249 1.613 . S
N1250 C1253 1.350 . S
N1251 S1249 1.610 . S
N1251 C1252 1.351 . S
C1252 C1246 1.428 . S
C1252 N1251 1.351 . S
C1252 C1253 1.434 . S
C1253 C1244 1.429 . S
C1253 N1250 1.350 . S
C1253 C1252 1.434 . S
C1254 C1255 1.369 . S
C1254 C1256 1.419 . S
C1254 H1258 0.930 . S
C1255 C1254 1.369 . S
C1255 C1264 1.429 . S
C1256 C1254 1.419 . S
C1256 C1257 1.363 . S
C1256 H1259 0.929 . S
C1257 C1256 1.363 . S
C1257 C1263 1.428 . S
H1258 C1254 0.930 . S
H1259 C1256 0.929 . S
S1260 N1261 1.613 . S
S1260 N1262 1.610 . S
N1261 S1260 1.613 . S
N1261 C1264 1.350 . S
N1262 S1260 1.610 . S
N1262 C1263 1.351 . S
C1263 C1257 1.428 . S
C1263 N1262 1.351 . S
C1263 C1264 1.434 . S
C1264 C1255 1.429 . S
C1264 N1261 1.350 . S
C1264 C1263 1.434 . S
C1265 C1266 1.369 . S
C1265 C1267 1.419 . S
C1265 H1269 0.930 . S
C1266 C1265 1.369 . S
C1266 C1275 1.429 . S
C1267 C1265 1.419 . S
C1267 C1268 1.363 . S
C1267 H1270 0.929 . S
C1268 C1267 1.363 . S
C1268 C1274 1.428 . S
H1269 C1265 0.930 . S
H1270 C1267 0.929 . S
S1271 N1272 1.613 . S
S1271 N1273 1.610 . S
N1272 S1271 1.613 . S
N1272 C1275 1.350 . S
N1273 S1271 1.610 . S
N1273 C1274 1.351 . S
C1274 C1268 1.428 . S
C1274 N1273 1.351 . S
C1274 C1275 1.434 . S
C1275 C1266 1.429 . S
C1275 N1272 1.350 . S
C1275 C1274 1.434 . S
C1276 C1277 1.369 . S
C1276 C1278 1.419 . S
C1276 H1280 0.930 . S
C1277 C1276 1.369 . S
C1277 C1286 1.429 . S
C1278 C1276 1.419 . S
C1278 C1279 1.363 . S
C1278 H1281 0.929 . S
C1279 C1278 1.363 . S
C1279 C1285 1.428 . S
H1280 C1276 0.930 . S
H1281 C1278 0.929 . S
S1282 N1283 1.613 . S
S1282 N1284 1.610 . S
N1283 S1282 1.613 . S
N1283 C1286 1.350 . S
N1284 S1282 1.610 . S
N1284 C1285 1.351 . S
C1285 C1279 1.428 . S
C1285 N1284 1.351 . S
C1285 C1286 1.434 . S
C1286 C1277 1.429 . S
C1286 N1283 1.350 . S
C1286 C1285 1.434 . S
C1287 C1288 1.364 1_545 S
C1287 C1289 1.421 . S
C1287 H1291 0.933 . S
C1288 C1287 1.364 1_565 S
C1288 C1297 1.429 . S
C1289 C1287 1.421 . S
C1289 C1290 1.363 . S
C1289 H1292 0.929 . S
C1290 C1289 1.363 . S
C1290 C1296 1.428 1_545 S
H1291 C1287 0.933 . S
H1292 C1289 0.929 . S
S1293 N1294 1.613 . S
S1293 N1295 1.610 . S
N1294 S1293 1.613 . S
N1294 C1297 1.350 . S
N1295 S1293 1.610 . S
N1295 C1296 1.351 . S
C1296 C1290 1.428 1_565 S
C1296 N1295 1.351 . S
C1296 C1297 1.434 . S
C1297 C1288 1.429 . S
C1297 N1294 1.350 . S
C1297 C1296 1.434 . S
C1298 C1299 1.368 1_655 S
C1298 C1300 1.420 . S
C1298 H1302 0.930 . S
C1299 C1298 1.368 1_455 S
C1299 C1308 1.429 . S
C1300 C1298 1.420 . S
C1300 C1301 1.363 . S
C1300 H1303 0.929 . S
C1301 C1300 1.363 . S
C1301 C1307 1.428 1_655 S
H1302 C1298 0.930 . S
H1303 C1300 0.929 . S
S1304 N1305 1.613 . S
S1304 N1306 1.610 . S
N1305 S1304 1.613 . S
N1305 C1308 1.350 . S
N1306 S1304 1.610 . S
N1306 C1307 1.351 . S
C1307 C1301 1.428 1_455 S
C1307 N1306 1.351 . S
C1307 C1308 1.434 . S
C1308 C1299 1.429 . S
C1308 N1305 1.350 . S
C1308 C1307 1.434 . S
C1309 C1310 1.369 . S
C1309 C1311 1.419 . S
C1309 H1313 0.930 . S
C1310 C1309 1.369 . S
C1310 C1319 1.429 . S
C1311 C1309 1.419 . S
C1311 C1312 1.363 . S
C1311 H1314 0.929 . S
C1312 C1311 1.363 . S
C1312 C1318 1.428 . S
H1313 C1309 0.930 . S
H1314 C1311 0.929 . S
S1315 N1316 1.613 . S
S1315 N1317 1.610 . S
N1316 S1315 1.613 . S
N1316 C1319 1.350 . S
N1317 S1315 1.610 . S
N1317 C1318 1.351 . S
C1318 C1312 1.428 . S
C1318 N1317 1.351 . S
C1318 C1319 1.434 . S
C1319 C1310 1.429 . S
C1319 N1316 1.350 . S
C1319 C1318 1.434 . S
C1320 C1321 1.369 . S
C1320 C1322 1.419 . S
C1320 H1324 0.930 . S
C1321 C1320 1.369 . S
C1321 C1330 1.429 . S
C1322 C1320 1.419 . S
C1322 C1323 1.363 . S
C1322 H1325 0.929 . S
C1323 C1322 1.363 . S
C1323 C1329 1.428 . S
H1324 C1320 0.930 . S
H1325 C1322 0.929 . S
S1326 N1327 1.613 . S
S1326 N1328 1.610 . S
N1327 S1326 1.613 . S
N1327 C1330 1.350 . S
N1328 S1326 1.610 . S
N1328 C1329 1.351 . S
C1329 C1323 1.428 . S
C1329 N1328 1.351 . S
C1329 C1330 1.434 . S
C1330 C1321 1.429 . S
C1330 N1327 1.350 . S
C1330 C1329 1.434 . S
C1331 C1332 1.369 . S
C1331 C1333 1.419 . S
C1331 H1335 0.930 . S
C1332 C1331 1.369 . S
C1332 C1341 1.429 . S
C1333 C1331 1.419 . S
C1333 C1334 1.363 . S
C1333 H1336 0.929 . S
C1334 C1333 1.363 . S
C1334 C1340 1.428 . S
H1335 C1331 0.930 . S
H1336 C1333 0.929 . S
S1337 N1338 1.613 . S
S1337 N1339 1.610 . S
N1338 S1337 1.613 . S
N1338 C1341 1.350 . S
N1339 S1337 1.610 . S
N1339 C1340 1.351 . S
C1340 C1334 1.428 . S
C1340 N1339 1.351 . S
C1340 C1341 1.434 . S
C1341 C1332 1.429 . S
C1341 N1338 1.350 . S
C1341 C1340 1.434 . S
C1342 C1343 1.369 . S
C1342 C1344 1.419 . S
C1342 H1346 0.930 . S
C1343 C1342 1.369 . S
C1343 C1352 1.429 . S
C1344 C1342 1.419 . S
C1344 C1345 1.363 . S
C1344 H1347 0.929 . S
C1345 C1344 1.363 . S
C1345 C1351 1.428 . S
H1346 C1342 0.930 . S
H1347 C1344 0.929 . S
S1348 N1349 1.613 . S
S1348 N1350 1.610 . S
N1349 S1348 1.613 . S
N1349 C1352 1.350 . S
N1350 S1348 1.610 . S
N1350 C1351 1.351 . S
C1351 C1345 1.428 . S
C1351 N1350 1.351 . S
C1351 C1352 1.434 . S
C1352 C1343 1.429 . S
C1352 N1349 1.350 . S
C1352 C1351 1.434 . S
C1353 C1354 1.369 . S
C1353 C1355 1.419 . S
C1353 H1357 0.930 . S
C1354 C1353 1.369 . S
C1354 C1363 1.429 . S
C1355 C1353 1.419 . S
C1355 C1356 1.363 . S
C1355 H1358 0.929 . S
C1356 C1355 1.363 . S
C1356 C1362 1.428 . S
H1357 C1353 0.930 . S
H1358 C1355 0.929 . S
S1359 N1360 1.613 . S
S1359 N1361 1.610 . S
N1360 S1359 1.613 . S
N1360 C1363 1.350 . S
N1361 S1359 1.610 . S
N1361 C1362 1.351 . S
C1362 C1356 1.428 . S
C1362 N1361 1.351 . S
C1362 C1363 1.434 . S
C1363 C1354 1.429 . S
C1363 N1360 1.350 . S
C1363 C1362 1.434 . S
C1364 C1365 1.369 . S
C1364 C1366 1.419 . S
C1364 H1368 0.930 . S
C1365 C1364 1.369 . S
C1365 C1374 1.429 . S
C1366 C1364 1.419 . S
C1366 C1367 1.363 . S
C1366 H1369 0.929 . S
C1367 C1366 1.363 . S
C1367 C1373 1.428 . S
H1368 C1364 0.930 . S
H1369 C1366 0.929 . S
S1370 N1371 1.613 . S
S1370 N1372 1.610 . S
N1371 S1370 1.613 . S
N1371 C1374 1.350 . S
N1372 S1370 1.610 . S
N1372 C1373 1.351 . S
C1373 C1367 1.428 . S
C1373 N1372 1.351 . S
C1373 C1374 1.434 . S
C1374 C1365 1.429 . S
C1374 N1371 1.350 . S
C1374 C1373 1.434 . S
C1375 C1376 1.369 . S
C1375 C1377 1.419 . S
C1375 H1379 0.930 . S
C1376 C1375 1.369 . S
C1376 C1385 1.429 . S
C1377 C1375 1.419 . S
C1377 C1378 1.363 . S
C1377 H1380 0.929 . S
C1378 C1377 1.363 . S
C1378 C1384 1.428 . S
H1379 C1375 0.930 . S
H1380 C1377 0.929 . S
S1381 N1382 1.613 . S
S1381 N1383 1.610 . S
N1382 S1381 1.613 . S
N1382 C1385 1.350 . S
N1383 S1381 1.610 . S
N1383 C1384 1.351 . S
C1384 C1378 1.428 . S
C1384 N1383 1.351 . S
C1384 C1385 1.434 . S
C1385 C1376 1.429 . S
C1385 N1382 1.350 . S
C1385 C1384 1.434 . S
C1386 C1387 1.369 . S
C1386 C1388 1.419 . S
C1386 H1390 0.930 . S
C1387 C1386 1.369 . S
C1387 C1396 1.429 . S
C1388 C1386 1.419 . S
C1388 C1389 1.363 . S
C1388 H1391 0.929 . S
C1389 C1388 1.363 . S
C1389 C1395 1.428 . S
H1390 C1386 0.930 . S
H1391 C1388 0.929 . S
S1392 N1393 1.613 . S
S1392 N1394 1.610 . S
N1393 S1392 1.613 . S
N1393 C1396 1.350 . S
N1394 S1392 1.610 . S
N1394 C1395 1.351 . S
C1395 C1389 1.428 . S
C1395 N1394 1.351 . S
C1395 C1396 1.434 . S
C1396 C1387 1.429 . S
C1396 N1393 1.350 . S
C1396 C1395 1.434 . S
C1397 C1398 1.369 . S
C1397 C1399 1.419 . S
C1397 H1401 0.930 . S
C1398 C1397 1.369 . S
C1398 C1407 1.429 . S
C1399 C1397 1.419 . S
C1399 C1400 1.363 . S
C1399 H1402 0.929 . S
C1400 C1399 1.363 . S
C1400 C1406 1.428 . S
H1401 C1397 0.930 . S
H1402 C1399 0.929 . S
S1403 N1404 1.613 . S
S1403 N1405 1.610 . S
N1404 S1403 1.613 . S
N1404 C1407 1.350 . S
N1405 S1403 1.610 . S
N1405 C1406 1.351 . S
C1406 C1400 1.428 . S
C1406 N1405 1.351 . S
C1406 C1407 1.434 . S
C1407 C1398 1.429 . S
C1407 N1404 1.350 . S
C1407 C1406 1.434 . S
C1408 C1409 1.369 . S
C1408 C1410 1.419 . S
C1408 H1412 0.930 . S
C1409 C1408 1.369 . S
C1409 C1418 1.429 . S
C1410 C1408 1.419 . S
C1410 C1411 1.363 . S
C1410 H1413 0.929 . S
C1411 C1410 1.363 . S
C1411 C1417 1.428 . S
H1412 C1408 0.930 . S
H1413 C1410 0.929 . S
S1414 N1415 1.613 . S
S1414 N1416 1.610 . S
N1415 S1414 1.613 . S
N1415 C1418 1.350 . S
N1416 S1414 1.610 . S
N1416 C1417 1.351 . S
C1417 C1411 1.428 . S
C1417 N1416 1.351 . S
C1417 C1418 1.434 . S
C1418 C1409 1.429 . S
C1418 N1415 1.350 . S
C1418 C1417 1.434 . S
C1419 C1420 1.369 . S
C1419 C1421 1.419 . S
C1419 H1423 0.930 . S
C1420 C1419 1.369 . S
C1420 C1429 1.429 . S
C1421 C1419 1.419 . S
C1421 C1422 1.363 . S
C1421 H1424 0.929 . S
C1422 C1421 1.363 . S
C1422 C1428 1.428 . S
H1423 C1419 0.930 . S
H1424 C1421 0.929 . S
S1425 N1426 1.613 . S
S1425 N1427 1.610 . S
N1426 S1425 1.613 . S
N1426 C1429 1.350 . S
N1427 S1425 1.610 . S
N1427 C1428 1.351 . S
C1428 C1422 1.428 . S
C1428 N1427 1.351 . S
C1428 C1429 1.434 . S
C1429 C1420 1.429 . S
C1429 N1426 1.350 . S
C1429 C1428 1.434 . S
C1430 C1431 1.369 . S
C1430 C1432 1.419 . S
C1430 H1434 0.930 . S
C1431 C1430 1.369 . S
C1431 C1440 1.429 . S
C1432 C1430 1.419 . S
C1432 C1433 1.363 . S
C1432 H1435 0.929 . S
C1433 C1432 1.363 . S
C1433 C1439 1.428 . S
H1434 C1430 0.930 . S
H1435 C1432 0.929 . S
S1436 N1437 1.613 . S
S1436 N1438 1.610 . S
N1437 S1436 1.613 . S
N1437 C1440 1.350 . S
N1438 S1436 1.610 . S
N1438 C1439 1.351 . S
C1439 C1433 1.428 . S
C1439 N1438 1.351 . S
C1439 C1440 1.434 . S
C1440 C1431 1.429 . S
C1440 N1437 1.350 . S
C1440 C1439 1.434 . S
C1441 C1442 1.369 . S
C1441 C1443 1.419 . S
C1441 H1445 0.930 . S
C1442 C1441 1.369 . S
C1442 C1451 1.429 . S
C1443 C1441 1.419 . S
C1443 C1444 1.363 . S
C1443 H1446 0.929 . S
C1444 C1443 1.363 . S
C1444 C1450 1.428 . S
H1445 C1441 0.930 . S
H1446 C1443 0.929 . S
S1447 N1448 1.613 . S
S1447 N1449 1.610 . S
N1448 S1447 1.613 . S
N1448 C1451 1.350 . S
N1449 S1447 1.610 . S
N1449 C1450 1.351 . S
C1450 C1444 1.428 . S
C1450 N1449 1.351 . S
C1450 C1451 1.434 . S
C1451 C1442 1.429 . S
C1451 N1448 1.350 . S
C1451 C1450 1.434 . S
C1452 C1453 1.369 . S
C1452 C1454 1.419 . S
C1452 H1456 0.930 . S
C1453 C1452 1.369 . S
C1453 C1462 1.429 . S
C1454 C1452 1.419 . S
C1454 C1455 1.363 . S
C1454 H1457 0.929 . S
C1455 C1454 1.363 . S
C1455 C1461 1.428 . S
H1456 C1452 0.930 . S
H1457 C1454 0.929 . S
S1458 N1459 1.613 . S
S1458 N1460 1.610 . S
N1459 S1458 1.613 . S
N1459 C1462 1.350 . S
N1460 S1458 1.610 . S
N1460 C1461 1.351 . S
C1461 C1455 1.428 . S
C1461 N1460 1.351 . S
C1461 C1462 1.434 . S
C1462 C1453 1.429 . S
C1462 N1459 1.350 . S
C1462 C1461 1.434 . S
C1463 C1464 1.369 . S
C1463 C1465 1.419 . S
C1463 H1467 0.930 . S
C1464 C1463 1.369 . S
C1464 C1473 1.429 . S
C1465 C1463 1.419 . S
C1465 C1466 1.363 . S
C1465 H1468 0.929 . S
C1466 C1465 1.363 . S
C1466 C1472 1.428 . S
H1467 C1463 0.930 . S
H1468 C1465 0.929 . S
S1469 N1470 1.613 . S
S1469 N1471 1.610 . S
N1470 S1469 1.613 . S
N1470 C1473 1.350 . S
N1471 S1469 1.610 . S
N1471 C1472 1.351 . S
C1472 C1466 1.428 . S
C1472 N1471 1.351 . S
C1472 C1473 1.434 . S
C1473 C1464 1.429 . S
C1473 N1470 1.350 . S
C1473 C1472 1.434 . S
C1474 C1475 1.369 . S
C1474 C1476 1.419 . S
C1474 H1478 0.930 . S
C1475 C1474 1.369 . S
C1475 C1484 1.429 . S
C1476 C1474 1.419 . S
C1476 C1477 1.363 . S
C1476 H1479 0.929 . S
C1477 C1476 1.363 . S
C1477 C1483 1.428 . S
H1478 C1474 0.930 . S
H1479 C1476 0.929 . S
S1480 N1481 1.613 . S
S1480 N1482 1.610 . S
N1481 S1480 1.613 . S
N1481 C1484 1.350 . S
N1482 S1480 1.610 . S
N1482 C1483 1.351 . S
C1483 C1477 1.428 . S
C1483 N1482 1.351 . S
C1483 C1484 1.434 . S
C1484 C1475 1.429 . S
C1484 N1481 1.350 . S
C1484 C1483 1.434 . S
C1485 C1486 1.369 . S
C1485 C1487 1.419 . S
C1485 H1489 0.930 . S
C1486 C1485 1.369 . S
C1486 C1495 1.429 . S
C1487 C1485 1.419 . S
C1487 C1488 1.363 . S
C1487 H1490 0.929 . S
C1488 C1487 1.363 . S
C1488 C1494 1.428 . S
H1489 C1485 0.930 . S
H1490 C1487 0.929 . S
S1491 N1492 1.613 . S
S1491 N1493 1.610 . S
N1492 S1491 1.613 . S
N1492 C1495 1.350 . S
N1493 S1491 1.610 . S
N1493 C1494 1.351 . S
C1494 C1488 1.428 . S
C1494 N1493 1.351 . S
C1494 C1495 1.434 . S
C1495 C1486 1.429 . S
C1495 N1492 1.350 . S
C1495 C1494 1.434 . S
C1496 C1497 1.369 . S
C1496 C1498 1.419 . S
C1496 H1500 0.930 . S
C1497 C1496 1.369 . S
C1497 C1506 1.429 . S
C1498 C1496 1.419 . S
C1498 C1499 1.363 . S
C1498 H1501 0.929 . S
C1499 C1498 1.363 . S
C1499 C1505 1.428 . S
H1500 C1496 0.930 . S
H1501 C1498 0.929 . S
S1502 N1503 1.613 . S
S1502 N1504 1.610 . S
N1503 S1502 1.613 . S
N1503 C1506 1.350 . S
N1504 S1502 1.610 . S
N1504 C1505 1.351 . S
C1505 C1499 1.428 . S
C1505 N1504 1.351 . S
C1505 C1506 1.434 . S
C1506 C1497 1.429 . S
C1506 N1503 1.350 . S
C1506 C1505 1.434 . S
C1507 C1508 1.369 . S
C1507 C1509 1.419 . S
C1507 H1511 0.930 . S
C1508 C1507 1.369 . S
C1508 C1517 1.429 . S
C1509 C1507 1.419 . S
C1509 C1510 1.363 . S
C1509 H1512 0.929 . S
C1510 C1509 1.363 . S
C1510 C1516 1.428 . S
H1511 C1507 0.930 . S
H1512 C1509 0.929 . S
S1513 N1514 1.613 . S
S1513 N1515 1.610 . S
N1514 S1513 1.613 . S
N1514 C1517 1.350 . S
N1515 S1513 1.610 . S
N1515 C1516 1.351 . S
C1516 C1510 1.428 . S
C1516 N1515 1.351 . S
C1516 C1517 1.434 . S
C1517 C1508 1.429 . S
C1517 N1514 1.350 . S
C1517 C1516 1.434 . S
C1518 C1519 1.369 . S
C1518 C1520 1.419 . S
C1518 H1522 0.930 . S
C1519 C1518 1.369 . S
C1519 C1528 1.429 . S
C1520 C1518 1.419 . S
C1520 C1521 1.363 . S
C1520 H1523 0.929 . S
C1521 C1520 1.363 . S
C1521 C1527 1.428 . S
H1522 C1518 0.930 . S
H1523 C1520 0.929 . S
S1524 N1525 1.613 . S
S1524 N1526 1.610 . S
N1525 S1524 1.613 . S
N1525 C1528 1.350 . S
N1526 S1524 1.610 . S
N1526 C1527 1.351 . S
C1527 C1521 1.428 . S
C1527 N1526 1.351 . S
C1527 C1528 1.434 . S
C1528 C1519 1.429 . S
C1528 N1525 1.350 . S
C1528 C1527 1.434 . S
C1529 C1530 1.369 . S
C1529 C1531 1.419 . S
C1529 H1533 0.930 . S
C1530 C1529 1.369 . S
C1530 C1539 1.429 . S
C1531 C1529 1.419 . S
C1531 C1532 1.363 . S
C1531 H1534 0.929 . S
C1532 C1531 1.363 . S
C1532 C1538 1.428 . S
H1533 C1529 0.930 . S
H1534 C1531 0.929 . S
S1535 N1536 1.613 . S
S1535 N1537 1.610 . S
N1536 S1535 1.613 . S
N1536 C1539 1.350 . S
N1537 S1535 1.610 . S
N1537 C1538 1.351 . S
C1538 C1532 1.428 . S
C1538 N1537 1.351 . S
C1538 C1539 1.434 . S
C1539 C1530 1.429 . S
C1539 N1536 1.350 . S
C1539 C1538 1.434 . S
C1540 C1541 1.369 . S
C1540 C1542 1.419 . S
C1540 H1544 0.930 . S
C1541 C1540 1.369 . S
C1541 C1550 1.429 . S
C1542 C1540 1.419 . S
C1542 C1543 1.363 . S
C1542 H1545 0.929 . S
C1543 C1542 1.363 . S
C1543 C1549 1.428 . S
H1544 C1540 0.930 . S
H1545 C1542 0.929 . S
S1546 N1547 1.613 . S
S1546 N1548 1.610 . S
N1547 S1546 1.613 . S
N1547 C1550 1.350 . S
N1548 S1546 1.610 . S
N1548 C1549 1.351 . S
C1549 C1543 1.428 . S
C1549 N1548 1.351 . S
C1549 C1550 1.434 . S
C1550 C1541 1.429 . S
C1550 N1547 1.350 . S
C1550 C1549 1.434 . S
C1551 C1552 1.369 . S
C1551 C1553 1.419 . S
C1551 H1555 0.930 . S
C1552 C1551 1.369 . S
C1552 C1561 1.429 . S
C1553 C1551 1.419 . S
C1553 C1554 1.363 . S
C1553 H1556 0.929 . S
C1554 C1553 1.363 . S
C1554 C1560 1.428 . S
H1555 C1551 0.930 . S
H1556 C1553 0.929 . S
S1557 N1558 1.613 . S
S1557 N1559 1.610 . S
N1558 S1557 1.613 . S
N1558 C1561 1.350 . S
N1559 S1557 1.610 . S
N1559 C1560 1.351 . S
C1560 C1554 1.428 . S
C1560 N1559 1.351 . S
C1560 C1561 1.434 . S
C1561 C1552 1.429 . S
C1561 N1558 1.350 . S
C1561 C1560 1.434 . S
C1562 C1563 1.369 . S
C1562 C1564 1.419 . S
C1562 H1566 0.930 . S
C1563 C1562 1.369 . S
C1563 C1572 1.429 . S
C1564 C1562 1.419 . S
C1564 C1565 1.363 . S
C1564 H1567 0.929 . S
C1565 C1564 1.363 . S
C1565 C1571 1.428 . S
H1566 C1562 0.930 . S
H1567 C1564 0.929 . S
S1568 N1569 1.613 . S
S1568 N1570 1.610 . S
N1569 S1568 1.613 . S
N1569 C1572 1.350 . S
N1570 S1568 1.610 . S
N1570 C1571 1.351 . S
C1571 C1565 1.428 . S
C1571 N1570 1.351 . S
C1571 C1572 1.434 . S
C1572 C1563 1.429 . S
C1572 N1569 1.350 . S
C1572 C1571 1.434 . S
C1573 C1574 1.369 . S
C1573 C1575 1.419 . S
C1573 H1577 0.930 . S
C1574 C1573 1.369 . S
C1574 C1583 1.429 . S
C1575 C1573 1.419 . S
C1575 C1576 1.363 . S
C1575 H1578 0.929 . S
C1576 C1575 1.363 . S
C1576 C1582 1.428 . S
H1577 C1573 0.930 . S
H1578 C1575 0.929 . S
S1579 N1580 1.613 . S
S1579 N1581 1.610 . S
N1580 S1579 1.613 . S
N1580 C1583 1.350 . S
N1581 S1579 1.610 . S
N1581 C1582 1.351 . S
C1582 C1576 1.428 . S
C1582 N1581 1.351 . S
C1582 C1583 1.434 . S
C1583 C1574 1.429 . S
C1583 N1580 1.350 . S
C1583 C1582 1.434 . S
C991 C177 1.477 . S
C993 C301 1.423 . S
C1002 C190 1.502 . S
C1004 C385 1.453 . S
C1013 C164 1.470 . S
C1015 C465 1.471 . S
C1024 C151 1.460 . S
C1026 C381 1.463 . S
C1037 C469 1.412 . S
C1035 C125 1.467 . S
C1046 C138 1.437 . S
C1048 C297 1.437 . S
C1059 C290 1.457 . S
C1057 C147 1.462 . S
C1070 C374 1.483 . S
C1068 C121 1.479 . S
C1079 C134 1.479 . S
C1081 C476 1.483 . S
C1090 C173 1.452 . S
C1092 C392 1.459 . S
C1101 C186 1.447 . S
C1103 C458 1.441 . S
C1114 C308 1.445 . S
C1112 C160 1.452 . S
C1125 C553 1.424 . S
C1123 C21 1.477 . S
C1134 C34 1.500 . S
C1136 C637 1.447 . S
C1145 C8 1.470 . S
C1147 C717 1.470 . S
C1156 C229 1.460 . S
C1158 C633 1.461 . S
C1167 C203 1.466 . S
C1169 C721 1.405 . S
C1178 C216 1.439 . S
C1180 C549 1.435 . S
C1189 C225 1.463 . S
C1191 C542 1.457 . S
C1200 C199 1.477 . S
C1202 C626 1.481 . S
C1213 C728 1.483 . S
C1211 C212 1.489 . S
C1222 C17 1.456 1_565 S
C1224 C644 1.464 . S
C1235 C710 1.436 . S
C1233 C30 1.441 1_455 S
C1244 C4 1.442 . S
C1246 C560 1.442 . S
C1257 C805 1.423 . S
C1255 C99 1.476 . S
C1266 C112 1.499 . S
C1268 C889 1.448 . S
C1279 C969 1.468 . S
C1277 C86 1.471 . S
C1290 C885 1.460 . S
C1288 C73 1.462 . S
C1301 C973 1.410 . S
C1299 C47 1.466 . S
C1310 C60 1.439 . S
C1312 C801 1.435 . S
C1321 C69 1.467 1_655 S
C1323 C794 1.461 . S
C1332 C43 1.485 . S
C1334 C878 1.488 . S
C1345 C980 1.485 . S
C1343 C56 1.480 1_545 S
C1354 C95 1.452 . S
C1356 C896 1.458 . S
C1365 C108 1.446 . S
C1367 C962 1.440 . S
C1376 C82 1.447 . S
C1378 C812 1.446 . S
C1387 C204 1.575 . S
C1389 C304 1.475 . S
C1400 C388 1.478 . S
C1398 C217 1.613 . S
C1409 C230 1.569 . S
C1411 C460 1.379 . S
C1420 C87 1.580 . S
C1422 C376 1.383 . S
C1431 C100 1.579 . S
C1433 C472 1.453 . S
C1444 C292 1.378 . S
C1442 C113 1.542 . S
C1453 C48 1.576 . S
C1455 C556 1.474 . S
C1464 C61 1.617 . S
C1466 C640 1.485 . S
C1475 C74 1.573 . S
C1477 C712 1.379 . S
C1486 C165 1.583 . S
C1488 C628 1.384 . S
C1499 C724 1.461 . S
C1497 C178 1.583 . S
C1508 C191 1.538 . S
C1510 C544 1.375 . S
C1519 C126 1.572 . S
C1521 C808 1.473 . S
C1530 C139 1.616 . S
C1532 C892 1.485 . S
C1543 C964 1.386 . S
C1541 C152 1.568 . S
C1552 C9 1.585 . S
C1554 C880 1.379 . S
C1563 C22 1.579 . S
C1565 C976 1.452 . S
C1574 C35 1.541 . S
C1576 C796 1.367 . S
