# Generated by pormake.
# Topology tsx, (6,3)-cn, num edge types: 1
# Building blocks:
#     Node 0, Type 0, BuildingBlock: JUFBIX_clean_sbu_0, # of connection points: 6
#     Node 1, Type 0, BuildingBlock: JUFBIX_clean_sbu_0, # of connection points: 6
#     Node 2, Type 1, BuildingBlock: QEWDON_clean_linker_0, # of connection points: 3
#     Node 3, Type 1, BuildingBlock: QEWDON_clean_linker_0, # of connection points: 3
#     Node 4, Type 1, BuildingBlock: QEWDON_clean_linker_0, # of connection points: 3
#     Node 5, Type 1, BuildingBlock: QEWDON_clean_linker_0, # of connection points: 3
#     Edge 6, Type (0, 1), BuildingBlock: CIFDUS_clean_linker_0, # of connection points: 2
#     Edge 7, Type (0, 1), BuildingBlock: CIFDUS_clean_linker_0, # of connection points: 2
#     Edge 8, Type (0, 1), BuildingBlock: CIFDUS_clean_linker_0, # of connection points: 2
#     Edge 9, Type (0, 1), BuildingBlock: CIFDUS_clean_linker_0, # of connection points: 2
#     Edge 10, Type (0, 1), BuildingBlock: CIFDUS_clean_linker_0, # of connection points: 2
#     Edge 11, Type (0, 1), BuildingBlock: CIFDUS_clean_linker_0, # of connection points: 2
#     Edge 12, Type (0, 1), BuildingBlock: CIFDUS_clean_linker_0, # of connection points: 2
#     Edge 13, Type (0, 1), BuildingBlock: CIFDUS_clean_linker_0, # of connection points: 2
#     Edge 14, Type (0, 1), BuildingBlock: CIFDUS_clean_linker_0, # of connection points: 2
#     Edge 15, Type (0, 1), BuildingBlock: CIFDUS_clean_linker_0, # of connection points: 2
#     Edge 16, Type (0, 1), BuildingBlock: CIFDUS_clean_linker_0, # of connection points: 2
#     Edge 17, Type (0, 1), BuildingBlock: CIFDUS_clean_linker_0, # of connection points: 2
# Relax obj value: 0.110
# Max RMSD: 0.168
# Mean RMSD: 0.145
data_MOF--net-tsx--node1-JUFBIX_clean_sbu_0--node2-QEWDON_clean_linker_0--edge1-CIFDUS_clean_linker_0
_symmetry_space_group_name_H-M    P1
_symmetry_Int_Tables_number       1
_symmetry_cell_setting            triclinic
loop_
_symmetry_equiv_pos_as_xyz
'x, y, z'
_cell_length_a     17.923014
_cell_length_b     21.90982
_cell_length_c     25.611455
_cell_angle_alpha  91.239126
_cell_angle_beta   102.37267
_cell_angle_gamma 101.25645
loop_
_atom_site_label
_atom_site_type_symbol
_atom_site_fract_x
_atom_site_fract_y
_atom_site_fract_z
_atom_type_partial_charge
Co0 Co 0.07671 0.95148 1.03423 0.0
C1 C 1.02338 1.00078 0.93618 0.0
Co2 Co 0.99782 1.01721 0.03912 0.0
C3 C 0.21786 0.89854 0.05791 0.0
C4 C 0.12978 0.84782 0.99328 0.0
N5 N 0.14429 0.89696 1.0291 0.0
N6 N 0.24942 0.85207 0.04158 0.0
C7 C 0.19371 0.82023 1.00086 0.0
H8 H 0.24745 0.9329 0.0905 0.0
H9 H 0.07636 0.83337 0.96303 0.0
C10 C 1.05871 0.97093 0.13798 0.0
N11 N 0.93257 0.0725 0.04643 0.0
C12 C 0.94305 0.1345 0.04003 0.0
C13 C 0.86702 0.059 0.06539 0.0
N14 N 0.88691 0.16031 0.05446 0.0
C15 C 0.83875 0.11237 0.07005 0.0
C16 C 0.91741 0.89442 1.01387 0.0
O17 O 0.08899 0.94008 0.10846 0.0
O18 O 1.01395 1.00623 0.1159 0.0
O19 O 0.91058 0.94971 1.02426 0.0
O20 O 0.98566 0.8834 1.01707 0.0
O21 O 0.98495 0.02855 0.96235 0.0
H22 H 0.8422 1.01346 0.0766 0.0
H23 H 0.99254 0.16042 1.02666 0.0
O24 O 0.0652 0.96484 0.96052 0.0
O25 O 0.16419 1.01957 0.04967 0.0
O26 O 0.0847 0.08343 0.05253 0.0
C27 C 0.15322 0.0747 0.05495 0.0
H28 H 0.19913 0.78034 0.97736 0.0
H29 H 0.78672 0.11521 0.08412 0.0
Co30 Co 0.65061 0.47082 0.5585 0.0
C31 C 0.60189 0.49401 0.44977 0.0
Co32 Co 0.56713 0.53513 0.54433 0.0
C33 C 0.79593 0.41747 0.57438 0.0
C34 C 0.69534 0.35483 0.58732 0.0
N35 N 0.71819 0.41268 0.5716 0.0
N36 N 0.82145 0.36495 0.59119 0.0
C37 C 0.75734 0.32573 0.59865 0.0
H38 H 0.83345 0.45933 0.56595 0.0
H39 H 0.63751 0.33468 0.59224 0.0
C40 C 0.61947 0.51432 0.65356 0.0
N41 N 0.49818 0.58952 0.53735 0.0
C42 C 0.50723 0.65045 0.52675 0.0
C43 C 0.43078 0.57692 0.55447 0.0
N44 N 0.44864 0.67568 0.53745 0.0
C45 C 0.40023 0.6293 0.5542 0.0
C46 C 0.48899 0.41247 0.53783 0.0
O47 O 0.65871 0.48021 0.63481 0.0
O48 O 0.5737 0.54075 0.62093 0.0
O49 O 0.48167 0.46834 0.53461 0.0
O50 O 0.55791 0.40167 0.54945 0.0
O51 O 0.56276 0.52921 0.468 0.0
H52 H 0.40748 0.53358 0.57 0.0
H53 H 0.55803 0.67682 0.51504 0.0
O54 O 0.6428 0.46345 0.48245 0.0
O55 O 0.73838 0.54176 0.56483 0.0
O56 O 0.65187 0.60191 0.55217 0.0
C57 C 0.7222 0.59597 0.5589 0.0
H58 H 0.75468 0.27883 0.61155 0.0
H59 H 0.34775 0.63362 0.56723 0.0
H60 H 0.14432 0.09479 0.48453 0.0
C61 C 0.17948 0.06125 0.49783 0.0
C62 C 0.18142 1.01235 0.46135 0.0
C63 C 0.22775 0.06937 0.55025 0.0
H64 H 0.22262 0.92703 0.45506 0.0
C65 C 0.22456 0.9675 0.48079 0.0
C66 C 0.27141 0.97399 0.5327 0.0
C67 C 0.27315 0.025 0.56718 0.0
C68 C 0.24257 0.12913 0.58363 0.0
H69 H 0.31179 0.03131 0.60663 0.0
C70 C 0.18335 0.15007 0.60293 0.0
C71 C 0.19568 0.212 0.62547 0.0
C72 C 0.31748 0.16735 0.59415 0.0
H73 H 0.3647 0.15209 0.58081 0.0
C74 C 0.33161 0.22666 0.61988 0.0
H75 H 0.12716 0.11903 0.59805 0.0
C76 C 0.27077 0.24958 0.63401 0.0
H77 H 0.28222 0.29697 0.65127 0.0
H78 H 0.3893 0.25605 0.6268 0.0
H79 H 0.97695 0.12617 0.59444 0.0
C80 C 0.96304 0.07733 0.58194 0.0
C81 C 0.95515 0.03266 0.62039 0.0
C82 C 0.95359 0.05874 0.52717 0.0
H83 H 0.92457 0.9354 0.63288 0.0
C84 C 0.93378 0.96933 0.60346 0.0
C85 C 0.92072 0.9491 0.5495 0.0
C86 C 0.9314 0.99398 0.51156 0.0
C87 C 0.96996 0.10569 0.48644 0.0
H88 H 0.92374 0.97809 0.47006 0.0
C89 C 1.03283 0.15792 0.49898 0.0
C90 C 1.05957 0.19329 0.45871 0.0
C91 C 0.92659 0.09601 0.43311 0.0
H92 H 0.87611 0.05828 0.42163 0.0
C93 C 0.94873 0.13424 0.39356 0.0
H94 H 0.06227 0.17052 0.53961 0.0
C95 C 1.01607 0.18136 0.40589 0.0
H96 H 1.03421 0.20845 0.37424 0.0
H97 H 0.91513 0.1257 0.35267 0.0
H98 H 0.72606 0.64915 0.99916 0.0
C99 C 0.73407 0.60464 1.01226 0.0
C100 C 0.7399 0.55834 0.9749 0.0
C101 C 0.73823 0.59344 0.06704 0.0
H102 H 0.76244 0.46705 0.96508 0.0
C103 C 0.75735 0.50248 0.99365 0.0
C104 C 0.7684 0.49127 0.04814 0.0
C105 C 0.75594 0.53575 0.0844 0.0
C106 C 0.72097 0.64009 0.10544 0.0
H107 H 0.76016 0.52514 0.12588 0.0
C108 C 0.66361 0.67633 0.08869 0.0
C109 C 0.63529 0.70981 0.12548 0.0
C110 C 0.75675 0.6451 0.16038 0.0
H111 H 0.80256 0.62016 0.17552 0.0
C112 C 0.73374 0.68231 0.19678 0.0
H113 H 0.63784 0.67657 0.04736 0.0
C114 C 0.67246 0.71343 0.17973 0.0
H115 H 0.65213 0.73821 0.20917 0.0
H116 H 0.76163 0.68506 0.2389 0.0
H117 H 0.56535 0.5689 0.09878 0.0
C118 C 0.52981 0.52308 0.08793 0.0
C119 C 0.52557 0.48042 0.12851 0.0
C120 C 0.48371 0.50772 1.03508 0.0
H121 H 0.47308 0.38762 0.14472 0.0
C122 C 0.48066 0.42006 0.11399 0.0
C123 C 0.43746 0.40322 0.06152 0.0
C124 C 0.44006 0.44682 1.02237 0.0
C125 C 0.46656 0.55666 0.99658 0.0
H126 H 0.40379 0.43444 0.98243 0.0
C127 C 0.5257 0.60097 0.98219 0.0
C128 C 0.50856 0.65423 0.95512 0.0
C129 C 0.38853 0.56171 0.97702 0.0
H130 H 0.34115 0.52851 0.98691 0.0
C131 C 0.37062 0.61108 0.94643 0.0
H132 H 0.58471 0.59506 0.99467 0.0
C133 C 0.43011 0.6579 0.93675 0.0
H134 H 0.41494 0.69799 0.91623 0.0
H135 H 0.31032 0.61473 0.93246 0.0
H136 H 0.14025 0.1884 1.02285 0.0
H137 H 0.30991 0.08173 0.09379 0.0
H138 H 0.41498 0.17395 0.09956 0.0
H139 H 0.45689 0.28628 0.08691 0.0
H140 H 0.28451 0.38976 1.01374 0.0
H141 H 0.18197 0.29679 1.00539 0.0
C142 C 0.20019 0.18535 0.03989 0.0
C143 C 0.21749 0.12897 0.05882 0.0
C144 C 0.25965 0.23769 0.04203 0.0
C145 C 0.29545 0.12506 0.07944 0.0
C146 C 0.35531 0.17761 0.08263 0.0
C147 C 0.39691 0.288 0.06867 0.0
C148 C 0.37823 0.34451 0.05066 0.0
C149 C 0.33793 0.23432 0.06432 0.0
C150 C 0.30048 0.3465 1.02699 0.0
C151 C 0.24171 0.29359 1.02274 0.0
H152 H 0.28622 0.73901 0.04281 0.0
H153 H 0.38548 0.93308 0.08793 0.0
H154 H 0.5151 0.90795 0.11876 0.0
H155 H 0.60166 0.82884 0.13087 0.0
H156 H 0.49412 0.6365 0.08594 0.0
H157 H 0.36818 0.66246 0.05718 0.0
C158 C 0.33609 0.7761 0.059 0.0
C159 C 0.32573 0.83791 0.06243 0.0
C160 C 0.40996 0.76139 0.07648 0.0
C161 C 0.39132 0.88496 0.08492 0.0
C162 C 0.46569 0.87058 0.10234 0.0
C163 C 0.55058 0.79288 0.1145 0.0
C164 C 0.55884 0.73028 0.1087 0.0
C165 C 0.47606 0.80872 0.09805 0.0
C166 C 0.49137 0.68462 0.08859 0.0
C167 C 0.41835 0.6996 0.07259 0.0
H168 H 0.77054 0.89486 1.02691 0.0
H169 H 0.90148 0.78481 0.95481 0.0
H170 H 0.78183 0.70716 0.91901 0.0
H171 H 0.64144 0.66552 0.91566 0.0
H172 H 0.51496 0.77166 0.99445 0.0
H173 H 0.62943 0.8565 1.01841 0.0
C174 C 0.77311 0.85375 1.00354 0.0
C175 C 0.84549 0.84533 0.9944 0.0
C176 C 0.70428 0.80861 0.98399 0.0
C177 C 0.84715 0.792 0.96347 0.0
C178 C 0.77846 0.74788 0.94245 0.0
C179 C 0.63914 0.70737 0.93767 0.0
C180 C 0.571 0.71077 0.9554 0.0
C181 C 0.70685 0.75499 0.95338 0.0
C182 C 0.56738 0.76684 0.98164 0.0
C183 C 0.63321 0.81525 0.99579 0.0
H184 H 0.79737 0.21712 0.10559 0.0
H185 H 0.96151 0.25199 1.00272 0.0
H186 H 0.94702 0.35969 0.99895 0.0
H187 H 0.88122 0.44206 1.01867 0.0
H188 H 0.70846 0.40676 0.11437 0.0
H189 H 0.73408 0.3015 0.12795 0.0
C190 C 0.8298 0.24779 0.08198 0.0
C191 C 0.88015 0.22524 0.05409 0.0
C192 C 0.81992 0.30996 0.07891 0.0
C193 C 0.92272 0.26711 1.02493 0.0
C194 C 0.91425 0.32905 1.02252 0.0
C195 C 0.84932 0.41143 0.04277 0.0
C196 C 0.79231 0.43196 0.06494 0.0
C197 C 0.86217 0.3506 0.04856 0.0
C198 C 0.75282 0.39227 0.09704 0.0
C199 C 0.7669 0.33186 0.10426 0.0
H200 H 0.70393 0.68468 0.48974 0.0
H201 H 0.87113 0.63539 0.6211 0.0
H202 H 0.9545 0.73969 0.62473 0.0
H203 H 0.97006 0.8488 0.59769 0.0
H204 H 0.79923 0.89666 0.46746 0.0
H205 H 0.72806 0.78842 0.45513 0.0
C206 C 0.75936 0.69643 0.51865 0.0
C207 C 0.78107 0.65279 0.55563 0.0
C208 C 0.80606 0.75625 0.52062 0.0
C209 C 0.85332 0.66815 0.59228 0.0
C210 C 0.90055 0.72791 0.5945 0.0
C211 C 0.91792 0.83527 0.566 0.0
C212 C 0.88948 0.88123 0.53395 0.0
C213 C 0.87617 0.77298 0.55997 0.0
C214 C 0.8227 0.86258 0.4925 0.0
C215 C 0.78146 0.80072 0.48584 0.0
H216 H 0.87749 0.27682 0.6526 0.0
H217 H 0.94395 0.42264 0.55065 0.0
H218 H 0.07075 0.39336 0.55926 0.0
H219 H 0.15857 0.32053 0.58989 0.0
H220 H 0.08586 0.1688 0.68333 0.0
H221 H 0.96705 0.20779 0.686 0.0
C222 C 0.91886 0.30212 0.63158 0.0
C223 C 0.89944 0.35142 0.5999 0.0
C224 C 0.9909 0.28381 0.6354 0.0
C225 C 0.95629 0.38461 0.57508 0.0
C226 C 1.02891 0.36755 0.57977 0.0
C227 C 0.11594 0.29537 0.60985 0.0
C228 C 0.12924 0.24009 0.6341 0.0
C229 C 1.04602 0.31625 0.60869 0.0
C230 C 0.076 0.21033 0.66305 0.0
C231 C 1.00794 0.23246 0.66429 0.0
H232 H 0.33907 0.42619 0.52795 0.0
H233 H 0.47481 0.28647 0.51464 0.0
H234 H 0.35395 0.20774 0.48463 0.0
H235 H 0.20994 0.17945 0.46179 0.0
H236 H 0.07511 0.31798 0.47885 0.0
H237 H 0.19577 0.3977 0.50484 0.0
C238 C 0.3427 0.3784 0.51907 0.0
C239 C 0.41664 0.36239 0.52422 0.0
C240 C 0.27304 0.33351 0.50198 0.0
C241 C 0.41928 0.30018 0.51184 0.0
C242 C 0.35001 0.25526 0.49421 0.0
C243 C 0.20667 0.22622 0.47338 0.0
C244 C 0.13335 0.24183 0.47156 0.0
C245 C 0.27657 0.27128 0.48964 0.0
C246 C 0.13071 0.30444 0.48149 0.0
C247 C 0.19977 0.34991 0.4964 0.0
H248 H 0.40032 0.73847 0.60992 0.0
H249 H 0.47878 0.75566 0.4623 0.0
H250 H 0.44053 0.85714 0.45178 0.0
H251 H 0.36739 0.93221 0.47835 0.0
H252 H 0.28282 0.91124 0.62378 0.0
H253 H 0.34196 0.82004 0.64222 0.0
C254 C 0.40964 0.76488 0.57575 0.0
C255 C 0.44044 0.73948 0.53619 0.0
C256 C 0.38606 0.82198 0.56964 0.0
C257 C 0.45469 0.77451 0.49292 0.0
C258 C 0.43236 0.8321 0.48682 0.0
C259 C 0.36294 0.90802 0.51443 0.0
C260 C 0.31975 0.92734 0.54926 0.0
C261 C 0.3953 0.85498 0.52392 0.0
C262 C 0.31563 0.89687 0.59646 0.0
C263 C 0.34888 0.84459 0.60672 0.0
H264 H 0.99553 1.01517 0.21807 0.0
H265 H 0.18367 0.92941 0.19273 0.0
H266 H 0.23827 0.93751 0.28831 0.0
H267 H 0.23746 0.97198 0.37848 0.0
H268 H 1.04504 0.04648 0.40956 0.0
H269 H 0.98906 0.04209 0.3127 0.0
C270 C 1.04798 0.9977 0.23359 0.0
C271 C 0.08502 0.97156 0.19759 0.0
C272 C 0.07925 1.0015 0.28971 0.0
C273 C 0.1531 0.94927 0.21883 0.0
C274 C 0.18497 0.95422 0.27378 0.0
C275 C 0.18211 0.98593 0.36479 0.0
C276 C 0.14538 1.00947 0.40216 0.0
C277 C 0.14896 0.9805 0.30951 0.0
C278 C 0.07534 0.02938 0.38213 0.0
C279 C 1.04296 0.02608 0.32663 0.0
H280 H 0.93166 0.06308 0.86247 0.0
H281 H 0.11766 0.96059 0.87945 0.0
H282 H 0.12032 0.97034 0.78593 0.0
H283 H 0.06443 0.99975 0.69715 0.0
H284 H 0.87439 0.09676 0.67491 0.0
H285 H 0.88013 0.09912 0.7719 0.0
C286 C 0.97294 0.04322 0.84571 0.0
C287 C 1.02365 1.0104 0.8785 0.0
C288 C 0.97405 0.04849 0.79068 0.0
C289 C 0.07704 0.98538 0.85571 0.0
C290 C 0.07907 0.99112 0.80194 0.0
C291 C 1.02552 0.02276 0.7138 0.0
C292 C 0.96976 0.0487 0.67908 0.0
C293 C 1.02724 1.02161 0.76889 0.0
C294 C 0.91884 0.07752 0.70097 0.0
C295 C 0.92149 0.07803 0.75636 0.0
H296 H 0.7547 0.53915 0.73069 0.0
H297 H 0.50556 0.51602 0.70913 0.0
H298 H 0.52007 0.53205 0.80625 0.0
H299 H 0.60403 0.54696 0.89855 0.0
H300 H 0.85355 0.57876 0.91882 0.0
H301 H 0.83898 0.56591 0.82168 0.0
C302 C 0.70362 0.53759 0.74733 0.0
C303 C 0.62894 0.52515 0.71268 0.0
C304 C 0.71271 0.54916 0.80318 0.0
C305 C 0.56355 0.52486 0.73483 0.0
C306 C 0.5719 0.53417 0.79044 0.0
C307 C 0.65516 0.55315 0.88146 0.0
C308 C 0.73001 0.56556 0.91598 0.0
C309 C 0.64619 0.54599 0.82518 0.0
C310 C 0.79555 0.571 0.8932 0.0
C311 C 0.78712 0.56292 0.83761 0.0
H312 H 0.55986 0.57267 0.37062 0.0
H313 H 0.64015 0.4001 0.39627 0.0
H314 H 0.63334 0.38472 0.30069 0.0
H315 H 0.59659 0.41603 0.20864 0.0
H316 H 0.51681 0.58843 0.18152 0.0
H317 H 0.53453 0.60911 0.27812 0.0
C318 C 0.57599 0.53177 0.35529 0.0
C319 C 0.5995 0.4872 0.391 0.0
C320 C 0.57296 0.52341 0.29973 0.0
C321 C 0.62144 0.43509 0.37016 0.0
C322 C 0.61767 0.42621 0.31527 0.0
C323 C 0.58393 0.45858 0.2238 0.0
C324 C 0.55451 0.50014 0.18725 0.0
C325 C 0.59257 0.46954 0.27954 0.0
C326 C 0.53995 0.55557 0.20817 0.0
C327 C 0.54904 0.56705 0.26365 0.0
loop_
_geom_bond_atom_site_label_1
_geom_bond_atom_site_label_2
_geom_bond_distance
_geom_bond_site_symmetry_2
_ccdc_geom_bond_type
Co0 N5 2.057 . S
Co0 O17 2.021 . S
Co0 O20 2.058 1_455 S
Co0 O24 2.117 1_554 S
Co0 O25 2.020 1_565 S
C1 O21 1.259 1_455 S
C1 O24 1.258 1_545 S
Co2 N11 2.057 . S
Co2 O18 2.117 1_655 S
Co2 O19 2.020 1_544 S
Co2 O21 2.021 1_554 S
Co2 O26 2.062 1_655 S
C3 N5 1.316 . S
C3 N6 1.347 . S
C3 H8 0.931 . S
C4 N5 1.375 1_556 S
C4 C7 1.350 . S
C4 H9 0.930 . S
N5 Co0 2.057 . S
N5 C3 1.316 . S
N5 C4 1.375 1_554 S
N6 C3 1.347 . S
N6 C7 1.373 1_554 S
C7 C4 1.350 . S
C7 N6 1.373 1_556 S
C7 H28 0.931 . S
H8 C3 0.931 . S
H9 C4 0.930 . S
C10 O17 1.259 1_545 S
C10 O18 1.258 . S
N11 Co2 2.057 . S
N11 C12 1.316 1_554 S
N11 C13 1.375 . S
C12 N11 1.316 1_556 S
C12 N14 1.347 1_556 S
C12 H23 0.931 . S
C13 N11 1.375 . S
C13 C15 1.350 . S
C13 H22 0.930 . S
N14 C12 1.347 1_554 S
N14 C15 1.373 . S
C15 C13 1.350 . S
C15 N14 1.373 . S
C15 H29 0.931 . S
C16 O19 1.256 1_554 S
C16 O20 1.261 . S
O17 Co0 2.021 . S
O17 C10 1.259 1_565 S
O18 Co2 2.117 1_455 S
O18 C10 1.258 . S
O19 Co2 2.020 1_566 S
O19 C16 1.256 1_556 S
O20 Co0 2.058 1_655 S
O20 C16 1.261 . S
O21 C1 1.259 1_655 S
O21 Co2 2.021 1_556 S
H22 C13 0.930 . S
H23 C12 0.931 . S
O24 Co0 2.117 1_556 S
O24 C1 1.258 1_565 S
O25 Co0 2.020 1_545 S
O25 C27 1.256 . S
O26 Co2 2.062 1_455 S
O26 C27 1.255 . S
C27 O25 1.256 . S
C27 O26 1.255 . S
H28 C7 0.931 . S
H29 C15 0.931 . S
Co30 N35 2.057 . S
Co30 O47 2.021 . S
Co30 O50 2.062 . S
Co30 O54 2.117 . S
Co30 O55 2.020 . S
C31 O51 1.259 . S
C31 O54 1.258 . S
Co32 N41 2.057 . S
Co32 O48 2.117 . S
Co32 O49 2.020 . S
Co32 O51 2.021 . S
Co32 O56 2.062 . S
C33 N35 1.316 . S
C33 N36 1.347 . S
C33 H38 0.931 . S
C34 N35 1.375 . S
C34 C37 1.350 . S
C34 H39 0.930 . S
N35 Co30 2.057 . S
N35 C33 1.316 . S
N35 C34 1.375 . S
N36 C33 1.347 . S
N36 C37 1.373 . S
C37 C34 1.350 . S
C37 N36 1.373 . S
C37 H58 0.931 . S
H38 C33 0.931 . S
H39 C34 0.930 . S
C40 O47 1.259 . S
C40 O48 1.258 . S
N41 Co32 2.057 . S
N41 C42 1.316 . S
N41 C43 1.375 . S
C42 N41 1.316 . S
C42 N44 1.347 . S
C42 H53 0.931 . S
C43 N41 1.375 . S
C43 C45 1.350 . S
C43 H52 0.930 . S
N44 C42 1.347 . S
N44 C45 1.373 . S
C45 C43 1.350 . S
C45 N44 1.373 . S
C45 H59 0.931 . S
C46 O49 1.256 . S
C46 O50 1.255 . S
O47 Co30 2.021 . S
O47 C40 1.259 . S
O48 Co32 2.117 . S
O48 C40 1.258 . S
O49 Co32 2.020 . S
O49 C46 1.256 . S
O50 Co30 2.062 . S
O50 C46 1.255 . S
O51 C31 1.259 . S
O51 Co32 2.021 . S
H52 C43 0.930 . S
H53 C42 0.931 . S
O54 Co30 2.117 . S
O54 C31 1.258 . S
O55 Co30 2.020 . S
O55 C57 1.256 . S
O56 Co32 2.062 . S
O56 C57 1.255 . S
C57 O55 1.256 . S
C57 O56 1.255 . S
H58 C37 0.931 . S
H59 C45 0.931 . S
H60 C61 0.949 . S
C61 H60 0.949 . S
C61 C62 1.395 1_545 S
C61 C63 1.391 . S
C62 C61 1.395 1_565 S
C62 C65 1.390 . S
C63 C61 1.391 . S
C63 C67 1.387 1_545 S
C63 C68 1.491 . S
H64 C65 0.950 . S
C65 C62 1.390 . S
C65 H64 0.950 . S
C65 C66 1.378 . S
C66 C65 1.378 . S
C66 C67 1.409 . S
C67 C63 1.387 1_565 S
C67 C66 1.409 . S
C67 H69 0.951 . S
C68 C63 1.491 . S
C68 C70 1.382 1_455 S
C68 C72 1.404 . S
H69 C67 0.951 . S
C70 C68 1.382 1_655 S
C70 C71 1.390 . S
C70 H75 0.949 . S
C71 C70 1.390 . S
C71 C76 1.399 1_655 S
C72 C68 1.404 . S
C72 H73 0.950 . S
C72 C74 1.375 . S
H73 C72 0.950 . S
C74 C72 1.375 . S
C74 C76 1.382 . S
C74 H78 0.950 . S
H75 C70 0.949 . S
C76 C71 1.399 1_455 S
C76 C74 1.382 . S
C76 H77 0.952 . S
H77 C76 0.952 . S
H78 C74 0.950 . S
H79 C80 0.949 . S
C80 H79 0.949 . S
C80 C81 1.395 1_445 S
C80 C82 1.391 1_455 S
C81 C80 1.395 1_665 S
C81 C84 1.390 . S
C82 C80 1.391 1_655 S
C82 C86 1.387 1_545 S
C82 C87 1.491 1_655 S
H83 C84 0.950 . S
C84 C81 1.390 . S
C84 H83 0.950 . S
C84 C85 1.378 . S
C85 C84 1.378 . S
C85 C86 1.409 . S
C86 C82 1.387 1_565 S
C86 C85 1.409 . S
C86 H88 0.951 . S
C87 C82 1.491 1_455 S
C87 C89 1.382 . S
C87 C91 1.404 1_455 S
H88 C86 0.951 . S
C89 C87 1.382 . S
C89 C90 1.390 . S
C89 H94 0.949 . S
C90 C89 1.390 . S
C90 C95 1.399 . S
C91 C87 1.404 1_655 S
C91 H92 0.950 . S
C91 C93 1.375 . S
H92 C91 0.950 . S
C93 C91 1.375 . S
C93 C95 1.382 1_655 S
C93 H97 0.950 . S
H94 C89 0.949 . S
C95 C90 1.399 . S
C95 C93 1.382 1_455 S
C95 H96 0.952 . S
H96 C95 0.952 . S
H97 C93 0.950 . S
H98 C99 0.949 . S
C99 H98 0.949 . S
C99 C100 1.395 . S
C99 C101 1.391 . S
C100 C99 1.395 . S
C100 C103 1.390 . S
C101 C99 1.391 . S
C101 C105 1.387 1_556 S
C101 C106 1.491 1_556 S
H102 C103 0.950 . S
C103 C100 1.390 . S
C103 H102 0.950 . S
C103 C104 1.378 . S
C104 C103 1.378 . S
C104 C105 1.409 1_556 S
C105 C101 1.387 1_554 S
C105 C104 1.409 1_554 S
C105 H107 0.951 . S
C106 C101 1.491 1_554 S
C106 C108 1.382 . S
C106 C110 1.404 . S
H107 C105 0.951 . S
C108 C106 1.382 . S
C108 C109 1.390 . S
C108 H113 0.949 1_554 S
C109 C108 1.390 . S
C109 C114 1.399 . S
C110 C106 1.404 . S
C110 H111 0.950 . S
C110 C112 1.375 . S
H111 C110 0.950 . S
C112 C110 1.375 . S
C112 C114 1.382 . S
C112 H116 0.950 . S
H113 C108 0.949 1_556 S
C114 C109 1.399 . S
C114 C112 1.382 . S
C114 H115 0.952 . S
H115 C114 0.952 . S
H116 C112 0.950 . S
H117 C118 0.949 . S
C118 H117 0.949 . S
C118 C119 1.395 . S
C118 C120 1.391 . S
C119 C118 1.395 . S
C119 C122 1.390 . S
C120 C118 1.391 . S
C120 C124 1.387 . S
C120 C125 1.491 . S
H121 C122 0.950 . S
C122 C119 1.390 . S
C122 H121 0.950 . S
C122 C123 1.378 . S
C123 C122 1.378 . S
C123 C124 1.409 . S
C124 C120 1.387 . S
C124 C123 1.409 . S
C124 H126 0.951 1_554 S
C125 C120 1.491 . S
C125 C127 1.382 . S
C125 C129 1.404 1_554 S
H126 C124 0.951 1_556 S
C127 C125 1.382 . S
C127 C128 1.390 1_554 S
C127 H132 0.949 . S
C128 C127 1.390 1_556 S
C128 C133 1.399 . S
C129 C125 1.404 1_556 S
C129 H130 0.950 . S
C129 C131 1.375 . S
H130 C129 0.950 . S
C131 C129 1.375 . S
C131 C133 1.382 . S
C131 H135 0.950 . S
H132 C127 0.949 . S
C133 C128 1.399 . S
C133 C131 1.382 . S
C133 H134 0.952 . S
H134 C133 0.952 . S
H135 C131 0.950 . S
H136 C142 0.925 1_556 S
H137 C145 0.930 . S
H138 C146 0.930 . S
H139 C147 0.930 . S
H140 C150 0.930 . S
H141 C151 0.930 . S
C142 H136 0.925 1_554 S
C142 C143 1.359 . S
C142 C144 1.414 . S
C143 C142 1.359 . S
C143 C145 1.419 . S
C144 C142 1.414 . S
C144 C149 1.425 . S
C144 C151 1.409 1_554 S
C145 H137 0.930 . S
C145 C143 1.419 . S
C145 C146 1.362 . S
C146 H138 0.930 . S
C146 C145 1.362 . S
C146 C149 1.409 . S
C147 H139 0.930 . S
C147 C148 1.355 . S
C147 C149 1.415 . S
C148 C147 1.355 . S
C148 C150 1.419 1_554 S
C149 C144 1.425 . S
C149 C146 1.409 . S
C149 C147 1.415 . S
C150 H140 0.930 . S
C150 C148 1.419 1_556 S
C150 C151 1.362 . S
C151 H141 0.930 . S
C151 C144 1.409 1_556 S
C151 C150 1.362 . S
H152 C158 0.930 1_556 S
H153 C161 0.930 . S
H154 C162 0.930 . S
H155 C163 0.930 . S
H156 C166 0.930 . S
H157 C167 0.930 . S
C158 H152 0.930 1_554 S
C158 C159 1.355 . S
C158 C160 1.415 . S
C159 C158 1.355 . S
C159 C161 1.419 . S
C160 C158 1.415 . S
C160 C165 1.425 . S
C160 C167 1.409 1_554 S
C161 H153 0.930 . S
C161 C159 1.419 . S
C161 C162 1.362 . S
C162 H154 0.930 . S
C162 C161 1.362 . S
C162 C165 1.409 . S
C163 H155 0.930 . S
C163 C164 1.355 . S
C163 C165 1.415 . S
C164 C163 1.355 . S
C164 C166 1.419 1_554 S
C165 C160 1.425 . S
C165 C162 1.409 . S
C165 C163 1.415 . S
C166 H156 0.930 . S
C166 C164 1.419 1_556 S
C166 C167 1.362 . S
C167 H157 0.930 . S
C167 C160 1.409 1_556 S
C167 C166 1.362 . S
H168 C174 0.930 . S
H169 C177 0.930 . S
H170 C178 0.930 . S
H171 C179 0.930 . S
H172 C182 0.930 . S
H173 C183 0.930 . S
C174 H168 0.930 . S
C174 C175 1.355 1_554 S
C174 C176 1.415 . S
C175 C174 1.355 1_556 S
C175 C177 1.419 . S
C176 C174 1.415 . S
C176 C181 1.425 1_554 S
C176 C183 1.409 . S
C177 H169 0.930 . S
C177 C175 1.419 . S
C177 C178 1.362 . S
C178 H170 0.930 . S
C178 C177 1.362 . S
C178 C181 1.409 . S
C179 H171 0.930 . S
C179 C180 1.355 1_556 S
C179 C181 1.415 . S
C180 C179 1.355 1_554 S
C180 C182 1.419 . S
C181 C176 1.425 1_556 S
C181 C178 1.409 . S
C181 C179 1.415 . S
C182 H172 0.930 . S
C182 C180 1.419 . S
C182 C183 1.362 . S
C183 H173 0.930 . S
C183 C176 1.409 . S
C183 C182 1.362 . S
H184 C190 0.919 1_554 S
H185 C193 0.930 . S
H186 C194 0.930 . S
H187 C195 0.930 . S
H188 C198 0.930 . S
H189 C199 0.930 . S
C190 H184 0.919 1_556 S
C190 C191 1.366 . S
C190 C192 1.414 . S
C191 C190 1.366 . S
C191 C193 1.419 . S
C192 C190 1.414 . S
C192 C197 1.425 . S
C192 C199 1.409 1_556 S
C193 H185 0.930 . S
C193 C191 1.419 . S
C193 C194 1.362 . S
C194 H186 0.930 . S
C194 C193 1.362 . S
C194 C197 1.409 . S
C195 H187 0.930 . S
C195 C196 1.355 . S
C195 C197 1.415 . S
C196 C195 1.355 . S
C196 C198 1.419 1_556 S
C197 C192 1.425 . S
C197 C194 1.409 . S
C197 C195 1.415 . S
C198 H188 0.930 . S
C198 C196 1.419 1_554 S
C198 C199 1.362 . S
C199 H189 0.930 . S
C199 C192 1.409 1_554 S
C199 C198 1.362 . S
H200 C206 0.930 . S
H201 C209 0.930 . S
H202 C210 0.930 . S
H203 C211 0.930 . S
H204 C214 0.930 . S
H205 C215 0.930 . S
C206 H200 0.930 . S
C206 C207 1.355 . S
C206 C208 1.415 . S
C207 C206 1.355 . S
C207 C209 1.419 . S
C208 C206 1.415 . S
C208 C213 1.425 . S
C208 C215 1.409 . S
C209 H201 0.930 . S
C209 C207 1.419 . S
C209 C210 1.362 . S
C210 H202 0.930 . S
C210 C209 1.362 . S
C210 C213 1.409 . S
C211 H203 0.930 . S
C211 C212 1.355 . S
C211 C213 1.415 . S
C212 C211 1.355 . S
C212 C214 1.419 . S
C213 C208 1.425 . S
C213 C210 1.409 . S
C213 C211 1.415 . S
C214 H204 0.930 . S
C214 C212 1.419 . S
C214 C215 1.362 . S
C215 H205 0.930 . S
C215 C208 1.409 . S
C215 C214 1.362 . S
H216 C222 0.930 . S
H217 C225 0.930 . S
H218 C226 0.930 . S
H219 C227 0.930 . S
H220 C230 0.930 . S
H221 C231 0.930 . S
C222 H216 0.930 . S
C222 C223 1.355 . S
C222 C224 1.415 . S
C223 C222 1.355 . S
C223 C225 1.419 . S
C224 C222 1.415 . S
C224 C229 1.425 . S
C224 C231 1.409 . S
C225 H217 0.930 . S
C225 C223 1.419 . S
C225 C226 1.362 . S
C226 H218 0.930 . S
C226 C225 1.362 . S
C226 C229 1.409 . S
C227 H219 0.930 . S
C227 C228 1.355 . S
C227 C229 1.415 . S
C228 C227 1.355 . S
C228 C230 1.419 . S
C229 C224 1.425 . S
C229 C226 1.409 . S
C229 C227 1.415 . S
C230 H220 0.930 . S
C230 C228 1.419 . S
C230 C231 1.362 . S
C231 H221 0.930 . S
C231 C224 1.409 . S
C231 C230 1.362 . S
H232 C238 0.930 . S
H233 C241 0.930 . S
H234 C242 0.930 . S
H235 C243 0.930 . S
H236 C246 0.930 . S
H237 C247 0.930 . S
C238 H232 0.930 . S
C238 C239 1.355 . S
C238 C240 1.415 . S
C239 C238 1.355 . S
C239 C241 1.419 . S
C240 C238 1.415 . S
C240 C245 1.425 . S
C240 C247 1.409 . S
C241 H233 0.930 . S
C241 C239 1.419 . S
C241 C242 1.362 . S
C242 H234 0.930 . S
C242 C241 1.362 . S
C242 C245 1.409 . S
C243 H235 0.930 . S
C243 C244 1.355 . S
C243 C245 1.415 . S
C244 C243 1.355 . S
C244 C246 1.419 . S
C245 C240 1.425 . S
C245 C242 1.409 . S
C245 C243 1.415 . S
C246 H236 0.930 . S
C246 C244 1.419 . S
C246 C247 1.362 . S
C247 H237 0.930 . S
C247 C240 1.409 . S
C247 C246 1.362 . S
H248 C254 0.930 . S
H249 C257 0.930 . S
H250 C258 0.930 . S
H251 C259 0.930 . S
H252 C262 0.930 . S
H253 C263 0.930 . S
C254 H248 0.930 . S
C254 C255 1.355 . S
C254 C256 1.415 . S
C255 C254 1.355 . S
C255 C257 1.419 . S
C256 C254 1.415 . S
C256 C261 1.425 . S
C256 C263 1.409 . S
C257 H249 0.930 . S
C257 C255 1.419 . S
C257 C258 1.362 . S
C258 H250 0.930 . S
C258 C257 1.362 . S
C258 C261 1.409 . S
C259 H251 0.930 . S
C259 C260 1.355 . S
C259 C261 1.415 . S
C260 C259 1.355 . S
C260 C262 1.419 . S
C261 C256 1.425 . S
C261 C258 1.409 . S
C261 C259 1.415 . S
C262 H252 0.930 . S
C262 C260 1.419 . S
C262 C263 1.362 . S
C263 H253 0.930 . S
C263 C256 1.409 . S
C263 C262 1.362 . S
H264 C270 0.930 . S
H265 C273 0.930 . S
H266 C274 0.930 . S
H267 C275 0.930 . S
H268 C278 0.930 . S
H269 C279 0.930 1_655 S
C270 H264 0.930 . S
C270 C271 1.355 1_565 S
C270 C272 1.415 . S
C271 C270 1.355 1_545 S
C271 C273 1.419 . S
C272 C270 1.415 . S
C272 C277 1.425 1_565 S
C272 C279 1.409 . S
C273 H265 0.930 . S
C273 C271 1.419 . S
C273 C274 1.362 . S
C274 H266 0.930 . S
C274 C273 1.362 . S
C274 C277 1.409 . S
C275 H267 0.930 . S
C275 C276 1.355 1_545 S
C275 C277 1.415 . S
C276 C275 1.355 1_565 S
C276 C278 1.419 . S
C277 C272 1.425 1_545 S
C277 C274 1.409 . S
C277 C275 1.415 . S
C278 H268 0.930 . S
C278 C276 1.419 . S
C278 C279 1.362 . S
C279 H269 0.930 1_455 S
C279 C272 1.409 . S
C279 C278 1.362 . S
H280 C286 0.930 . S
H281 C289 0.930 . S
H282 C290 0.930 . S
H283 C291 0.930 . S
H284 C294 0.930 . S
H285 C295 0.930 . S
C286 H280 0.930 . S
C286 C287 1.355 1_665 S
C286 C288 1.415 . S
C287 C286 1.355 1_445 S
C287 C289 1.419 . S
C288 C286 1.415 . S
C288 C293 1.425 1_665 S
C288 C295 1.409 . S
C289 H281 0.930 . S
C289 C287 1.419 . S
C289 C290 1.362 . S
C290 H282 0.930 . S
C290 C289 1.362 . S
C290 C293 1.409 . S
C291 H283 0.930 . S
C291 C292 1.355 1_445 S
C291 C293 1.415 . S
C292 C291 1.355 1_665 S
C292 C294 1.419 . S
C293 C288 1.425 1_445 S
C293 C290 1.409 . S
C293 C291 1.415 . S
C294 H284 0.930 . S
C294 C292 1.419 . S
C294 C295 1.362 . S
C295 H285 0.930 . S
C295 C288 1.409 . S
C295 C294 1.362 . S
H296 C302 0.930 . S
H297 C305 0.930 . S
H298 C306 0.930 . S
H299 C307 0.930 . S
H300 C310 0.930 . S
H301 C311 0.930 . S
C302 H296 0.930 . S
C302 C303 1.355 . S
C302 C304 1.415 . S
C303 C302 1.355 . S
C303 C305 1.419 . S
C304 C302 1.415 . S
C304 C309 1.425 . S
C304 C311 1.409 . S
C305 H297 0.930 . S
C305 C303 1.419 . S
C305 C306 1.362 . S
C306 H298 0.930 . S
C306 C305 1.362 . S
C306 C309 1.409 . S
C307 H299 0.930 . S
C307 C308 1.355 . S
C307 C309 1.415 . S
C308 C307 1.355 . S
C308 C310 1.419 . S
C309 C304 1.425 . S
C309 C306 1.409 . S
C309 C307 1.415 . S
C310 H300 0.930 . S
C310 C308 1.419 . S
C310 C311 1.362 . S
C311 H301 0.930 . S
C311 C304 1.409 . S
C311 C310 1.362 . S
H312 C318 0.930 . S
H313 C321 0.930 . S
H314 C322 0.930 . S
H315 C323 0.930 . S
H316 C326 0.930 . S
H317 C327 0.930 . S
C318 H312 0.930 . S
C318 C319 1.355 . S
C318 C320 1.415 . S
C319 C318 1.355 . S
C319 C321 1.419 . S
C320 C318 1.415 . S
C320 C325 1.425 . S
C320 C327 1.409 . S
C321 H313 0.930 . S
C321 C319 1.419 . S
C321 C322 1.362 . S
C322 H314 0.930 . S
C322 C321 1.362 . S
C322 C325 1.409 . S
C323 H315 0.930 . S
C323 C324 1.355 . S
C323 C325 1.415 . S
C324 C323 1.355 . S
C324 C326 1.419 . S
C325 C320 1.425 . S
C325 C322 1.409 . S
C325 C323 1.415 . S
C326 H316 0.930 . S
C326 C324 1.419 . S
C326 C327 1.362 . S
C327 H317 0.930 . S
C327 C320 1.409 . S
C327 C326 1.362 . S
C148 C123 1.522 . S
C143 C27 1.546 . S
C159 N6 1.423 . S
C164 C109 1.444 . S
C175 C16 1.477 1_556 S
C180 C128 1.434 1_554 S
C191 N14 1.517 1_556 S
C196 C104 1.518 . S
C207 C57 1.545 . S
C212 C85 1.513 . S
C223 N36 1.368 . S
C228 C71 1.433 . S
C244 C90 1.454 . S
C239 C46 1.474 . S
C260 C66 1.494 . S
C255 N44 1.475 . S
C271 C10 1.525 . S
C276 C62 1.507 . S
C287 C1 1.564 . S
C292 C81 1.541 . S
C308 C100 1.503 . S
C303 C40 1.526 . S
C319 C31 1.559 . S
C324 C119 1.565 . S
