# Generated by pormake.
# Topology dag, (6,3)-cn, num edge types: 1
# Building blocks:
#     Node 0, Type 0, BuildingBlock: OJICUG_clean_sbu_0, # of connection points: 6
#     Node 1, Type 0, BuildingBlock: OJICUG_clean_sbu_0, # of connection points: 6
#     Node 2, Type 0, BuildingBlock: OJICUG_clean_sbu_0, # of connection points: 6
#     Node 3, Type 0, BuildingBlock: OJICUG_clean_sbu_0, # of connection points: 6
#     Node 4, Type 1, BuildingBlock: BETDIP_clean_linker_0, # of connection points: 3
#     Node 5, Type 1, BuildingBlock: BETDIP_clean_linker_0, # of connection points: 3
#     Node 6, Type 1, BuildingBlock: BETDIP_clean_linker_0, # of connection points: 3
#     Node 7, Type 1, BuildingBlock: BETDIP_clean_linker_0, # of connection points: 3
#     Node 8, Type 1, BuildingBlock: BETDIP_clean_linker_0, # of connection points: 3
#     Node 9, Type 1, BuildingBlock: BETDIP_clean_linker_0, # of connection points: 3
#     Node 10, Type 1, BuildingBlock: BETDIP_clean_linker_0, # of connection points: 3
#     Node 11, Type 1, BuildingBlock: BETDIP_clean_linker_0, # of connection points: 3
#     Edge 12, Type (0, 1), BuildingBlock: TEMPAE_clean_linker_10, # of connection points: 2
#     Edge 13, Type (0, 1), BuildingBlock: TEMPAE_clean_linker_10, # of connection points: 2
#     Edge 14, Type (0, 1), BuildingBlock: TEMPAE_clean_linker_10, # of connection points: 2
#     Edge 15, Type (0, 1), BuildingBlock: TEMPAE_clean_linker_10, # of connection points: 2
#     Edge 16, Type (0, 1), BuildingBlock: TEMPAE_clean_linker_10, # of connection points: 2
#     Edge 17, Type (0, 1), BuildingBlock: TEMPAE_clean_linker_10, # of connection points: 2
#     Edge 18, Type (0, 1), BuildingBlock: TEMPAE_clean_linker_10, # of connection points: 2
#     Edge 19, Type (0, 1), BuildingBlock: TEMPAE_clean_linker_10, # of connection points: 2
#     Edge 20, Type (0, 1), BuildingBlock: TEMPAE_clean_linker_10, # of connection points: 2
#     Edge 21, Type (0, 1), BuildingBlock: TEMPAE_clean_linker_10, # of connection points: 2
#     Edge 22, Type (0, 1), BuildingBlock: TEMPAE_clean_linker_10, # of connection points: 2
#     Edge 23, Type (0, 1), BuildingBlock: TEMPAE_clean_linker_10, # of connection points: 2
#     Edge 24, Type (0, 1), BuildingBlock: TEMPAE_clean_linker_10, # of connection points: 2
#     Edge 25, Type (0, 1), BuildingBlock: TEMPAE_clean_linker_10, # of connection points: 2
#     Edge 26, Type (0, 1), BuildingBlock: TEMPAE_clean_linker_10, # of connection points: 2
#     Edge 27, Type (0, 1), BuildingBlock: TEMPAE_clean_linker_10, # of connection points: 2
#     Edge 28, Type (0, 1), BuildingBlock: TEMPAE_clean_linker_10, # of connection points: 2
#     Edge 29, Type (0, 1), BuildingBlock: TEMPAE_clean_linker_10, # of connection points: 2
#     Edge 30, Type (0, 1), BuildingBlock: TEMPAE_clean_linker_10, # of connection points: 2
#     Edge 31, Type (0, 1), BuildingBlock: TEMPAE_clean_linker_10, # of connection points: 2
#     Edge 32, Type (0, 1), BuildingBlock: TEMPAE_clean_linker_10, # of connection points: 2
#     Edge 33, Type (0, 1), BuildingBlock: TEMPAE_clean_linker_10, # of connection points: 2
#     Edge 34, Type (0, 1), BuildingBlock: TEMPAE_clean_linker_10, # of connection points: 2
#     Edge 35, Type (0, 1), BuildingBlock: TEMPAE_clean_linker_10, # of connection points: 2
# Relax obj value: 0.093
# Max RMSD: 0.109
# Mean RMSD: 0.091
data_MOF--net-dag--node1-OJICUG_clean_sbu_0--node2-BETDIP_clean_linker_0--edge1-TEMPAE_clean_linker_10
_symmetry_space_group_name_H-M    P1
_symmetry_Int_Tables_number       1
_symmetry_cell_setting            triclinic
loop_
_symmetry_equiv_pos_as_xyz
'x, y, z'
_cell_length_a     38.793442
_cell_length_b     37.98417
_cell_length_c     39.737575
_cell_angle_alpha  85.886306
_cell_angle_beta   89.943393
_cell_angle_gamma 89.995714
loop_
_atom_site_label
_atom_site_type_symbol
_atom_site_fract_x
_atom_site_fract_y
_atom_site_fract_z
_atom_type_partial_charge
Sc0 Sc 0.11539 0.88658 0.00264 0.0
Sc1 Sc 0.14089 0.79829 -0.00046 0.0
Sc2 Sc 0.19899 0.86719 0.97633 0.0
O3 O 0.15176 0.85066 0.99291 0.0
C4 C 0.15038 0.92141 0.93514 0.0
C5 C 0.06977 0.82952 0.96932 0.0
C6 C 0.18433 0.80168 0.93221 0.0
C7 C 0.10393 0.82694 0.06304 0.0
C8 C 0.18167 0.92327 0.03028 0.0
C9 C 0.21837 0.80265 0.02716 0.0
O10 O 0.12757 0.91995 0.95821 0.0
O11 O 0.08948 0.80397 0.97887 0.0
O12 O 0.20263 0.82732 0.94071 0.0
O13 O 0.09884 0.85718 0.04798 0.0
O14 O 0.20186 0.90944 0.00976 0.0
O15 O 0.19083 0.78589 0.02138 0.0
O16 O 0.14985 0.91555 0.03252 0.0
O17 O 0.12128 0.80283 0.05012 0.0
O18 O 0.22427 0.83386 0.01476 0.0
O19 O 0.07706 0.86143 0.97385 0.0
O20 O 0.17718 0.90202 0.9364 0.0
O21 O 0.15883 0.7895 0.94948 0.0
Sc22 Sc 0.6919 0.6318 0.56879 0.0
Sc23 Sc 0.63694 0.70184 0.53921 0.0
Sc24 Sc 0.60907 0.61353 0.53895 0.0
O25 O 0.64601 0.6491 0.54891 0.0
C26 C 0.67744 0.57496 0.51537 0.0
C27 C 0.71571 0.69548 0.51693 0.0
C28 C 0.60248 0.66977 0.47543 0.0
C29 C 0.67522 0.69848 0.61029 0.0
C30 C 0.63906 0.57916 0.60837 0.0
C31 C 0.56376 0.67487 0.56774 0.0
O32 O 0.69793 0.59177 0.53336 0.0
O33 O 0.68656 0.71072 0.5162 0.0
O34 O 0.598 0.63947 0.4905 0.0
O35 O 0.68984 0.66915 0.60643 0.0
O36 O 0.61549 0.58338 0.58632 0.0
O37 O 0.58572 0.69915 0.56067 0.0
O38 O 0.668 0.5948 0.60565 0.0
O39 O 0.65596 0.71431 0.58816 0.0
O40 O 0.56909 0.64283 0.56194 0.0
O41 O 0.72171 0.66704 0.53487 0.0
O42 O 0.64505 0.58028 0.51488 0.0
O43 O 0.61689 0.69514 0.48924 0.0
Sc44 Sc 0.85848 0.19731 0.03849 0.0
Sc45 Sc 0.80038 0.13154 0.0717 0.0
Sc46 Sc 0.88234 0.1079 0.04303 0.0
O47 O 0.84699 0.14562 0.05097 0.0
C48 C 0.89163 0.15967 0.97684 0.0
C49 C 0.77955 0.19401 0.01697 0.0
C50 C 0.81186 0.07142 0.02137 0.0
C51 C 0.82029 0.19976 0.10967 0.0
C52 C 0.93018 0.16893 0.06868 0.0
C53 C 0.8512 0.07841 0.11362 0.0
O54 O 0.87919 0.18676 0.98953 0.0
O55 O 0.77211 0.16758 0.03717 0.0
O56 O 0.84453 0.0745 0.02173 0.0
O57 O 0.83929 0.21348 0.0861 0.0
O58 O 0.92389 0.13694 0.06352 0.0
O59 O 0.82212 0.09355 0.10925 0.0
O60 O 0.90898 0.19375 0.06112 0.0
O61 O 0.80499 0.17033 0.10804 0.0
O62 O 0.87548 0.0821 0.09225 0.0
O63 O 0.80969 0.20693 0.01434 0.0
O64 O 0.89384 0.12973 0.99309 0.0
O65 O 0.79195 0.09085 0.03748 0.0
Sc66 Sc 0.38795 0.38156 0.50868 0.0
Sc67 Sc 0.30551 0.36015 0.48018 0.0
Sc68 Sc 0.36177 0.29274 0.51353 0.0
O69 O 0.35167 0.34476 0.50092 0.0
C70 C 0.4345 0.3191 0.48396 0.0
C71 C 0.35775 0.41155 0.43811 0.0
C72 C 0.324 0.29155 0.44212 0.0
C73 C 0.31852 0.42023 0.53 0.0
C74 C 0.39514 0.32992 0.57523 0.0
C75 C 0.28268 0.29813 0.53442 0.0
O76 O 0.42874 0.35125 0.48877 0.0
O77 O 0.3282 0.39757 0.44281 0.0
O78 O 0.34269 0.27723 0.46563 0.0
O79 O 0.35109 0.41639 0.52943 0.0
O80 O 0.3821 0.30303 0.56269 0.0
O81 O 0.27626 0.32499 0.51446 0.0
O82 O 0.39836 0.35967 0.55876 0.0
O83 O 0.29805 0.401 0.51434 0.0
O84 O 0.3124 0.28421 0.53715 0.0
O85 O 0.38217 0.40703 0.45919 0.0
O86 O 0.41276 0.29476 0.49153 0.0
O87 O 0.3093 0.32126 0.44392 0.0
H88 H 0.1777 0.21955 0.18545 0.0
H89 H 0.25877 0.1438 0.17438 0.0
H90 H 0.17276 0.14832 0.10649 0.0
H91 H 0.2897 0.18155 0.20522 0.0
C92 C 0.27034 0.18986 0.22275 0.0
C93 C 0.18927 0.19902 0.17157 0.0
C94 C 0.17206 0.18659 0.14379 0.0
C95 C 0.22096 0.18447 0.18223 0.0
C96 C 0.23529 0.15659 0.16533 0.0
C97 C 0.21821 0.14383 0.13758 0.0
C98 C 0.18699 0.1594 0.12671 0.0
N99 N 0.23595 0.1964 0.21186 0.0
H100 H 0.23079 0.65161 0.65292 0.0
H101 H 0.3069 0.73232 0.66443 0.0
H102 H 0.32317 0.65431 0.59313 0.0
H103 H 0.25602 0.76254 0.6818 0.0
C104 C 0.24669 0.74068 0.69851 0.0
C105 C 0.25475 0.66435 0.64499 0.0
C106 C 0.27508 0.65013 0.62016 0.0
C107 C 0.26548 0.69453 0.66033 0.0
C108 C 0.29745 0.71019 0.65139 0.0
C109 C 0.31815 0.69601 0.62671 0.0
C110 C 0.30644 0.66643 0.61089 0.0
N111 N 0.24526 0.70622 0.68707 0.0
H112 H 0.96413 0.78848 0.30611 0.0
H113 H 0.88532 0.86804 0.31172 0.0
H114 H 0.95813 0.87449 0.23005 0.0
H115 H 0.89453 0.85162 0.37078 0.0
C116 C 0.89247 0.82338 0.36835 0.0
C117 C 0.9522 0.81288 0.29624 0.0
C118 C 0.96494 0.83056 0.26668 0.0
C119 C 0.92418 0.82682 0.31331 0.0
C120 C 0.908 0.85797 0.29974 0.0
C121 C 0.91979 0.87485 0.26931 0.0
C122 C 0.9487 0.86138 0.25344 0.0
N123 N 0.91121 0.80768 0.34261 0.0
H124 H 0.53019 0.30527 0.81775 0.0
H125 H 0.60679 0.38669 0.82376 0.0
H126 H 0.52496 0.39953 0.75136 0.0
H127 H 0.60557 0.36438 0.88099 0.0
C128 C 0.60633 0.33642 0.87686 0.0
C129 C 0.53986 0.33132 0.80975 0.0
C130 C 0.52342 0.35147 0.78354 0.0
C131 C 0.569 0.34449 0.82549 0.0
C132 C 0.58293 0.37731 0.81347 0.0
C133 C 0.56689 0.39738 0.78689 0.0
C134 C 0.53665 0.38472 0.77277 0.0
N135 N 0.58524 0.323 0.85154 0.0
H136 H 0.6834 0.2711 0.36983 0.0
H137 H 0.76026 0.35199 0.37659 0.0
H138 H 0.67541 0.3452 0.44609 0.0
H139 H 0.79265 0.31442 0.34564 0.0
C140 C 0.77306 0.30501 0.32895 0.0
C141 C 0.69394 0.29286 0.38275 0.0
C142 C 0.67636 0.30537 0.41029 0.0
C143 C 0.72455 0.30892 0.3709 0.0
C144 C 0.73761 0.33824 0.38654 0.0
C145 C 0.72023 0.35105 0.41417 0.0
C146 C 0.68999 0.33411 0.42609 0.0
N147 N 0.73941 0.29695 0.34121 0.0
H148 H 0.02776 0.19267 0.73384 0.0
H149 H 0.10526 0.11325 0.72203 0.0
H150 H 0.02821 0.09759 0.79928 0.0
H151 H 0.09755 0.13574 0.6644 0.0
C152 C 0.1002 0.16332 0.66961 0.0
C153 C 0.03842 0.16682 0.74094 0.0
C154 C 0.02392 0.14587 0.76778 0.0
C155 C 0.06681 0.15455 0.72331 0.0
C156 C 0.08198 0.12194 0.73401 0.0
C157 C 0.06804 0.10119 0.76133 0.0
C158 C 0.03845 0.11291 0.77742 0.0
N159 N 0.08127 0.17656 0.69657 0.0
H160 H 0.46207 0.70082 0.23451 0.0
H161 H 0.38386 0.61999 0.24228 0.0
H162 H 0.47069 0.61372 0.30929 0.0
H163 H 0.35161 0.67367 0.23169 0.0
C164 C 0.36575 0.68342 0.20929 0.0
C165 C 0.45255 0.67587 0.24579 0.0
C166 C 0.47059 0.6582 0.27249 0.0
C167 C 0.42119 0.66229 0.23484 0.0
C168 C 0.40819 0.63051 0.25041 0.0
C169 C 0.4259 0.61303 0.2774 0.0
C170 C 0.45729 0.62675 0.2879 0.0
N171 N 0.40233 0.68178 0.20924 0.0
H172 H 0.72842 0.84262 0.88947 0.0
H173 H 0.81549 0.77491 0.87401 0.0
H174 H 0.82075 0.85092 0.94796 0.0
H175 H 0.78336 0.74858 0.84041 0.0
C176 C 0.76119 0.7646 0.83292 0.0
C177 C 0.75398 0.83319 0.89645 0.0
C178 C 0.77237 0.84906 0.92169 0.0
C179 C 0.76884 0.80593 0.87933 0.0
C180 C 0.80279 0.79493 0.88742 0.0
C181 C 0.82143 0.8107 0.91254 0.0
C182 C 0.80582 0.83736 0.92979 0.0
N183 N 0.74987 0.7922 0.85257 0.0
C184 C 0.23036 0.95962 0.05091 0.0
C185 C 0.19502 0.95157 0.05053 0.0
C186 C 0.24256 0.98894 0.06697 0.0
C187 C 0.21877 0.0109 0.08249 0.0
C188 C 0.18332 0.00199 0.08349 0.0
C189 C 0.17195 0.97234 0.06773 0.0
C190 C 0.28061 0.9972 0.06605 0.0
C191 C 0.15702 0.02476 0.09978 0.0
C192 C 0.23562 0.08041 0.14349 0.0
C193 C 0.22944 0.11111 0.12261 0.0
C194 C 0.23603 0.04721 0.13011 0.0
C195 C 0.22978 0.04491 0.09526 0.0
C196 C 0.2275 0.07611 0.07365 0.0
C197 C 0.22755 0.10891 0.08762 0.0
C198 C 0.23952 0.01456 0.15382 0.0
C199 C 0.22109 0.07487 0.03628 0.0
H200 H 0.24847 0.94353 0.038 0.0
H201 H 0.14463 0.96632 0.06775 0.0
H202 H 0.28551 0.01978 0.04739 0.0
H203 H 0.28961 0.00498 0.09096 0.0
H204 H 0.29617 0.97438 0.05879 0.0
H205 H 0.13067 0.01334 0.09956 0.0
H206 H 0.16431 0.02828 0.12631 0.0
H207 H 0.15633 0.05134 0.08623 0.0
H208 H 0.23714 0.08196 0.17058 0.0
H209 H 0.22338 0.13274 0.07142 0.0
H210 H 0.25502 0.99408 0.14219 0.0
H211 H 0.21357 0.00332 0.15943 0.0
H212 H 0.25169 0.02058 0.17805 0.0
H213 H 0.23837 0.05544 0.02532 0.0
H214 H 0.22495 0.10104 0.02243 0.0
H215 H 0.19414 0.06633 0.03219 0.0
C216 C 0.50521 0.65786 0.58971 0.0
C217 C 0.52962 0.68436 0.58145 0.0
C218 C 0.47166 0.66625 0.59941 0.0
C219 C 0.46213 0.70207 0.6011 0.0
C220 C 0.48695 0.72894 0.59432 0.0
C221 C 0.52043 0.71978 0.58449 0.0
C222 C 0.446 0.6367 0.60658 0.0
C223 C 0.47782 0.76738 0.59618 0.0
C224 C 0.36642 0.71206 0.58706 0.0
C225 C 0.35404 0.70811 0.62026 0.0
C226 C 0.40189 0.71342 0.5804 0.0
C227 C 0.42547 0.71081 0.60765 0.0
C228 C 0.41302 0.71058 0.64118 0.0
C229 C 0.37733 0.70919 0.64712 0.0
C230 C 0.41402 0.71406 0.54424 0.0
C231 C 0.4373 0.70834 0.6709 0.0
H232 H 0.512 0.6304 0.58777 0.0
H233 H 0.53907 0.7405 0.57832 0.0
H234 H 0.43426 0.63857 0.63185 0.0
H235 H 0.42485 0.63905 0.58776 0.0
H236 H 0.45795 0.6102 0.60566 0.0
H237 H 0.50099 0.78461 0.59462 0.0
H238 H 0.46034 0.77578 0.57503 0.0
H239 H 0.46389 0.77147 0.61998 0.0
H240 H 0.34837 0.71161 0.56627 0.0
H241 H 0.36786 0.70601 0.67284 0.0
H242 H 0.42378 0.68752 0.53902 0.0
H243 H 0.43555 0.73303 0.53972 0.0
H244 H 0.39296 0.72129 0.52611 0.0
H245 H 0.4472 0.68096 0.67497 0.0
H246 H 0.42426 0.71536 0.69441 0.0
H247 H 0.4598 0.72601 0.66608 0.0
C248 C 0.89077 0.04409 0.15304 0.0
C249 C 0.857 0.05379 0.14378 0.0
C250 C 0.89717 0.01719 0.17822 0.0
C251 C 0.86912 -0.00069 0.19458 0.0
C252 C 0.83498 0.0105 0.18701 0.0
C253 C 0.82929 0.03773 0.1617 0.0
C254 C 0.93402 0.00638 0.1857 0.0
C255 C 0.80442 0.99226 0.20406 0.0
C256 C 0.89177 0.90411 0.21852 0.0
C257 C 0.9013 0.90531 0.25241 0.0
C258 C 0.879 0.93407 0.20008 0.0
C259 C 0.87583 0.96616 0.21587 0.0
C260 C 0.8833 0.96696 0.25073 0.0
C261 C 0.89592 0.93635 0.2687 0.0
C262 C 0.87105 0.93186 0.16307 0.0
C263 C 0.88009 0.0006 0.26848 0.0
H264 H 0.91238 0.05677 0.13976 0.0
H265 H 0.80311 0.04516 0.15481 0.0
H266 H 0.93875 0.00444 0.21329 0.0
H267 H 0.93884 0.97992 0.1765 0.0
H268 H 0.95287 0.02523 0.17343 0.0
H269 H 0.78026 0.00761 0.1997 0.0
H270 H 0.8009 0.96599 0.19401 0.0
H271 H 0.80879 0.98788 0.23163 0.0
H272 H 0.89549 0.87989 0.20609 0.0
H273 H 0.90328 0.93722 0.29494 0.0
H274 H 0.89036 0.9474 0.14767 0.0
H275 H 0.84533 0.94334 0.15696 0.0
H276 H 0.87153 0.90425 0.15554 0.0
H277 H 0.90147 0.0187 0.2604 0.0
H278 H 0.88125 0.99561 0.29635 0.0
H279 H 0.85557 0.01432 0.26162 0.0
C280 C 0.43716 0.34796 0.61768 0.0
C281 C 0.40933 0.32655 0.60981 0.0
C282 C 0.45152 0.3459 0.64999 0.0
C283 C 0.43728 0.32226 0.67547 0.0
C284 C 0.40912 0.30047 0.66782 0.0
C285 C 0.39565 0.30259 0.63483 0.0
C286 C 0.482 0.3692 0.65677 0.0
C287 C 0.39286 0.27557 0.69456 0.0
C288 C 0.50276 0.30764 0.74478 0.0
C289 C 0.49562 0.33654 0.76361 0.0
C290 C 0.48148 0.29986 0.71776 0.0
C291 C 0.4523 0.32133 0.70991 0.0
C292 C 0.44274 0.34765 0.73164 0.0
C293 C 0.46485 0.35531 0.75803 0.0
C294 C 0.49276 0.27169 0.6952 0.0
C295 C 0.41136 0.3705 0.72472 0.0
H296 H 0.44814 0.36619 0.59831 0.0
H297 H 0.374 0.28613 0.62882 0.0
H298 H 0.47503 0.38769 0.67606 0.0
H299 H 0.50388 0.35289 0.66689 0.0
H300 H 0.49086 0.38496 0.63375 0.0
H301 H 0.3727 0.25874 0.68404 0.0
H302 H 0.41273 0.2583 0.7072 0.0
H303 H 0.38096 0.29098 0.71422 0.0
H304 H 0.5267 0.29328 0.74905 0.0
H305 H 0.45935 0.37758 0.77279 0.0
H306 H 0.50559 0.28438 0.67248 0.0
H307 H 0.47036 0.25663 0.68656 0.0
H308 H 0.51128 0.25296 0.70815 0.0
H309 H 0.41732 0.39102 0.70426 0.0
H310 H 0.40338 0.38395 0.7474 0.0
H311 H 0.38942 0.35464 0.71624 0.0
C312 C 0.72687 0.53911 0.4951 0.0
C313 C 0.69132 0.54611 0.496 0.0
C314 C 0.73963 0.5095 0.4798 0.0
C315 C 0.71625 0.4862 0.46553 0.0
C316 C 0.68054 0.49398 0.46507 0.0
C317 C 0.66858 0.52388 0.48009 0.0
C318 C 0.77792 0.50244 0.48016 0.0
C319 C 0.65465 0.46979 0.4501 0.0
C320 C 0.73459 0.41526 0.40619 0.0
C321 C 0.72998 0.3849 0.42796 0.0
C322 C 0.73386 0.44894 0.41861 0.0
C323 C 0.72805 0.4521 0.45344 0.0
C324 C 0.72719 0.42142 0.47587 0.0
C325 C 0.72836 0.38815 0.46284 0.0
C326 C 0.73581 0.48103 0.39399 0.0
C327 C 0.72127 0.42356 0.51323 0.0
H328 H 0.74473 0.55627 0.50704 0.0
H329 H 0.64111 0.52905 0.4804 0.0
H330 H 0.78374 0.48032 0.49906 0.0
H331 H 0.78674 0.49447 0.45525 0.0
H332 H 0.79293 0.52588 0.48674 0.0
H333 H 0.62797 0.48037 0.45058 0.0
H334 H 0.66156 0.46564 0.42358 0.0
H335 H 0.65502 0.44359 0.46439 0.0
H336 H 0.73587 0.41293 0.37919 0.0
H337 H 0.72538 0.36464 0.47975 0.0
H338 H 0.75087 0.50241 0.40467 0.0
H339 H 0.7094 0.49121 0.38876 0.0
H340 H 0.74767 0.4747 0.36969 0.0
H341 H 0.73806 0.44394 0.52331 0.0
H342 H 0.72619 0.39791 0.52768 0.0
H343 H 0.69412 0.4313 0.51759 0.0
C344 C 0.93306 0.1404 0.93418 0.0
C345 C 0.90636 0.16312 0.94241 0.0
C346 C 0.9484 0.14316 0.90225 0.0
C347 C 0.93629 0.16885 0.87748 0.0
C348 C 0.90902 0.19168 0.88536 0.0
C349 C 0.89461 0.18884 0.91799 0.0
C350 C 0.97785 0.11863 0.89518 0.0
C351 C 0.89497 0.21878 0.85932 0.0
C352 C 0.00438 0.18589 0.81056 0.0
C353 C 0.9965 0.15941 0.78908 0.0
C354 C 0.98294 0.19192 0.83802 0.0
C355 C 0.9528 0.17123 0.84361 0.0
C356 C 0.9429 0.14727 0.81965 0.0
C357 C 0.96522 0.14122 0.79289 0.0
C358 C 0.99475 0.21738 0.8631 0.0
C359 C 0.91056 0.12535 0.82418 0.0
H360 H 0.94255 0.12073 0.95304 0.0
H361 H 0.87385 0.20634 0.92423 0.0
H362 H 0.97074 0.10197 0.87446 0.0
H363 H 0.00094 0.13417 0.88686 0.0
H364 H 0.98493 0.101 0.91763 0.0
H365 H 0.87338 0.23419 0.8693 0.0
H366 H 0.91568 0.23731 0.85042 0.0
H367 H 0.88571 0.20553 0.83703 0.0
H368 H 0.02882 0.19964 0.80768 0.0
H369 H 0.95929 0.12069 0.77618 0.0
H370 H 0.00581 0.20226 0.88549 0.0
H371 H 0.97283 0.23302 0.87194 0.0
H372 H 0.0148 0.23577 0.85227 0.0
H373 H 0.91516 0.10328 0.84349 0.0
H374 H 0.90281 0.11397 0.80033 0.0
H375 H 0.88893 0.14135 0.83315 0.0
C376 C 0.39763 0.4415 0.39602 0.0
C377 C 0.3639 0.43586 0.40794 0.0
C378 C 0.40494 0.468 0.37067 0.0
C379 C 0.37793 0.48977 0.35725 0.0
C380 C 0.34353 0.48287 0.36774 0.0
C381 C 0.33687 0.45575 0.39285 0.0
C382 C 0.44191 0.47409 0.35981 0.0
C383 C 0.31409 0.50565 0.35419 0.0
C384 C 0.40736 0.58285 0.33198 0.0
C385 C 0.41056 0.58227 0.29692 0.0
C386 C 0.3953 0.55336 0.35164 0.0
C387 C 0.38654 0.52232 0.33587 0.0
C388 C 0.38859 0.52195 0.30029 0.0
C389 C 0.40041 0.55214 0.28112 0.0
C390 C 0.3931 0.55508 0.38946 0.0
C391 C 0.37972 0.48926 0.28266 0.0
H392 H 0.41857 0.42583 0.40726 0.0
H393 H 0.31075 0.4515 0.402 0.0
H394 H 0.44383 0.47686 0.33189 0.0
H395 H 0.4514 0.49903 0.36942 0.0
H396 H 0.45913 0.45228 0.36947 0.0
H397 H 0.2886 0.49393 0.36117 0.0
H398 H 0.31579 0.53196 0.36455 0.0
H399 H 0.31564 0.50985 0.32632 0.0
H400 H 0.41473 0.60641 0.3441 0.0
H401 H 0.40293 0.55177 0.25398 0.0
H402 H 0.41204 0.53658 0.40194 0.0
H403 H 0.36712 0.54682 0.39864 0.0
H404 H 0.39841 0.58199 0.39743 0.0
H405 H 0.39898 0.46834 0.28938 0.0
H406 H 0.37938 0.49431 0.25478 0.0
H407 H 0.35417 0.4789 0.29111 0.0
C408 C 0.02449 0.78689 0.95239 0.0
C409 C 0.03556 0.82183 0.95487 0.0
C410 C 0.99057 0.77948 0.94273 0.0
C411 C 0.96723 0.80764 0.93562 0.0
C412 C 0.97871 0.84293 0.93646 0.0
C413 C 0.01271 0.84958 0.94593 0.0
C414 C 0.97934 0.74154 0.94158 0.0
C415 C 0.95462 0.87377 0.92895 0.0
C416 C 0.88134 0.80143 0.89134 0.0
C417 C 0.85842 0.80252 0.91858 0.0
C418 C 0.91711 0.80037 0.89661 0.0
C419 C 0.9301 0.80074 0.92985 0.0
C420 C 0.90702 0.79923 0.95754 0.0
C421 C 0.87144 0.79999 0.95156 0.0
C422 C 0.9409 0.8015 0.86648 0.0
C423 C 0.91984 0.79946 0.9934 0.0
H424 H 0.04196 0.76522 0.95901 0.0
H425 H 0.02098 0.87668 0.94744 0.0
H426 H 0.96151 0.73455 0.96286 0.0
H427 H 0.96511 0.73779 0.9179 0.0
H428 H 0.00152 0.72301 0.94342 0.0
H429 H 0.96807 0.89958 0.92893 0.0
H430 H 0.94219 0.87186 0.90402 0.0
H431 H 0.93381 0.87317 0.94817 0.0
H432 H 0.87147 0.80359 0.86577 0.0
H433 H 0.85375 0.80023 0.97268 0.0
H434 H 0.9627 0.78287 0.87104 0.0
H435 H 0.95194 0.82839 0.86217 0.0
H436 H 0.92721 0.79496 0.84319 0.0
H437 H 0.94021 0.77926 0.99832 0.0
H438 H 0.89882 0.79442 0.01213 0.0
H439 H 0.93145 0.82556 0.99733 0.0
C440 C 0.76145 0.03454 0.00507 0.0
C441 C 0.79683 0.04241 0.00302 0.0
C442 C 0.74797 0.00469 0.99072 0.0
C443 C 0.77047 0.98214 0.97428 0.0
C444 C 0.80584 0.99091 0.97076 0.0
C445 C 0.8185 0.02093 0.98501 0.0
C446 C 0.71005 0.99652 0.99454 0.0
C447 C 0.8308 0.96766 0.95325 0.0
C448 C 0.76323 0.88394 0.97157 0.0
C449 C 0.75957 0.88105 0.93681 0.0
C450 C 0.76279 0.917 0.98503 0.0
C451 C 0.75849 0.94773 0.9631 0.0
C452 C 0.75014 0.9445 0.92878 0.0
C453 C 0.75088 0.91103 0.91593 0.0
C454 C 0.77125 0.91917 0.0219 0.0
C455 C 0.74441 0.97658 0.90481 0.0
H456 H 0.7444 0.05106 0.01875 0.0
H457 H 0.84577 0.0269 0.98288 0.0
H458 H 0.69936 0.9868 0.97104 0.0
H459 H 0.70638 0.97539 0.01498 0.0
H460 H 0.69507 0.02 0.00111 0.0
H461 H 0.85717 0.97904 0.95142 0.0
H462 H 0.83233 0.94136 0.96726 0.0
H463 H 0.82161 0.96354 0.9274 0.0
H464 H 0.76946 0.8606 0.98777 0.0
H465 H 0.74794 0.90884 0.88903 0.0
H466 H 0.75458 0.93883 0.03332 0.0
H467 H 0.79839 0.92788 0.02435 0.0
H468 H 0.76817 0.89327 0.03643 0.0
H469 H 0.7294 0.99698 0.91707 0.0
H470 H 0.73069 0.96972 0.88163 0.0
H471 H 0.76971 0.98827 0.89723 0.0
C472 C 0.47847 0.27462 0.4676 0.0
C473 C 0.46858 0.30992 0.47007 0.0
C474 C 0.51169 0.26612 0.4565 0.0
C475 C 0.53546 0.29356 0.44787 0.0
C476 C 0.52528 0.32919 0.44942 0.0
C477 C 0.49204 0.3369 0.46038 0.0
C478 C 0.52162 0.22787 0.45486 0.0
C479 C 0.54981 0.35934 0.44031 0.0
C480 C 0.63213 0.28792 0.4541 0.0
C481 C 0.64146 0.29228 0.41997 0.0
C482 C 0.59746 0.28472 0.46373 0.0
C483 C 0.57161 0.2858 0.43855 0.0
C484 C 0.58113 0.2863 0.40413 0.0
C485 C 0.61604 0.28964 0.3952 0.0
C486 C 0.58843 0.2839 0.50074 0.0
C487 C 0.55437 0.28698 0.37655 0.0
H488 H 0.46053 0.25357 0.47493 0.0
H489 H 0.48469 0.36427 0.46188 0.0
H490 H 0.53354 0.22352 0.4301 0.0
H491 H 0.54113 0.22062 0.47455 0.0
H492 H 0.49915 0.20991 0.45881 0.0
H493 H 0.53752 0.38556 0.44207 0.0
H494 H 0.57241 0.35757 0.45745 0.0
H495 H 0.55955 0.35766 0.41422 0.0
H496 H 0.65184 0.28932 0.47331 0.0
H497 H 0.62306 0.29305 0.36876 0.0
H498 H 0.56772 0.26442 0.50708 0.0
H499 H 0.57869 0.31023 0.50668 0.0
H500 H 0.6111 0.2773 0.51706 0.0
H501 H 0.53304 0.26838 0.38341 0.0
H502 H 0.56565 0.28018 0.35214 0.0
H503 H 0.54315 0.31387 0.37301 0.0
C504 C 0.15659 0.93981 0.87343 0.0
C505 C 0.14463 0.94671 0.90563 0.0
C506 C 0.14811 0.96242 0.84501 0.0
C507 C 0.12777 0.9928 0.84917 0.0
C508 C 0.11687 0.00049 0.88186 0.0
C509 C 0.12519 0.97724 0.90957 0.0
C510 C 0.1598 0.95317 0.81051 0.0
C511 C 0.09565 0.03292 0.88757 0.0
C512 C 0.1205 0.07308 0.78757 0.0
C513 C 0.08645 0.06978 0.77646 0.0
C514 C 0.13562 0.04665 0.80925 0.0
C515 C 0.11628 0.01616 0.81965 0.0
C516 C 0.0831 0.01131 0.80585 0.0
C517 C 0.06844 0.03838 0.78465 0.0
C518 C 0.17093 0.05301 0.82354 0.0
C519 C 0.06186 0.97891 0.81577 0.0
H520 H 0.17145 0.9161 0.87027 0.0
H521 H 0.11621 0.98288 0.93447 0.0
H522 H 0.13703 0.94678 0.79521 0.0
H523 H 0.1729 0.97604 0.79709 0.0
H524 H 0.1776 0.9302 0.8118 0.0
H525 H 0.09099 0.0361 0.91477 0.0
H526 H 0.10883 0.05694 0.87646 0.0
H527 H 0.07033 0.03121 0.87481 0.0
H528 H 0.13435 0.0975 0.78146 0.0
H529 H 0.04216 0.03579 0.77586 0.0
H530 H 0.18681 0.0287 0.82414 0.0
H531 H 0.16823 0.0605 0.8499 0.0
H532 H 0.18481 0.07456 0.80878 0.0
H533 H 0.07784 0.95471 0.81554 0.0
H534 H 0.03947 0.97634 0.7987 0.0
H535 H 0.05201 0.98056 0.84184 0.0
C536 C 0.60296 0.70059 0.4172 0.0
C537 C 0.58847 0.6757 0.44091 0.0
C538 C 0.58965 0.70522 0.38421 0.0
C539 C 0.56094 0.68487 0.37519 0.0
C540 C 0.5459 0.66027 0.39938 0.0
C541 C 0.56004 0.65581 0.43172 0.0
C542 C 0.60684 0.73106 0.35891 0.0
C543 C 0.51482 0.63839 0.39116 0.0
C544 C 0.49449 0.7032 0.30792 0.0
C545 C 0.50028 0.67437 0.28862 0.0
C546 C 0.51709 0.71034 0.33412 0.0
C547 C 0.54607 0.68822 0.34064 0.0
C548 C 0.55464 0.66264 0.31779 0.0
C549 C 0.53127 0.65563 0.29222 0.0
C550 C 0.50709 0.73808 0.35766 0.0
C551 C 0.58592 0.63933 0.32312 0.0
H552 H 0.62511 0.71586 0.4242 0.0
H553 H 0.54845 0.63687 0.45008 0.0
H554 H 0.6212 0.71627 0.3403 0.0
H555 H 0.58743 0.7476 0.34471 0.0
H556 H 0.62525 0.74857 0.3711 0.0
H557 H 0.50541 0.62165 0.41336 0.0
H558 H 0.49343 0.65583 0.38179 0.0
H559 H 0.52138 0.62091 0.37089 0.0
H560 H 0.47037 0.71757 0.30513 0.0
H561 H 0.53568 0.63337 0.27713 0.0
H562 H 0.5301 0.75209 0.36645 0.0
H563 H 0.49415 0.72512 0.3802 0.0
H564 H 0.489 0.75773 0.34543 0.0
H565 H 0.60819 0.65453 0.33189 0.0
H566 H 0.59326 0.62698 0.29964 0.0
H567 H 0.58015 0.61793 0.34283 0.0
C568 C 0.32661 0.47173 0.5648 0.0
C569 C 0.30431 0.4501 0.54767 0.0
C570 C 0.31477 0.50269 0.57797 0.0
C571 C 0.27963 0.51224 0.57421 0.0
C572 C 0.25648 0.48958 0.55877 0.0
C573 C 0.26913 0.45877 0.54554 0.0
C574 C 0.34033 0.52609 0.59444 0.0
C575 C 0.21876 0.49866 0.55482 0.0
C576 C 0.25876 0.58651 0.62896 0.0
C577 C 0.26654 0.61581 0.60675 0.0
C578 C 0.25949 0.55226 0.6179 0.0
C579 C 0.26844 0.54744 0.584 0.0
C580 C 0.27279 0.57717 0.56079 0.0
C581 C 0.27168 0.61105 0.57247 0.0
C582 C 0.254 0.52124 0.64323 0.0
C583 C 0.28209 0.5732 0.52435 0.0
H584 H 0.35374 0.46516 0.56698 0.0
H585 H 0.2516 0.44214 0.53256 0.0
H586 H 0.34266 0.55168 0.57926 0.0
H587 H 0.3312 0.53184 0.61993 0.0
H588 H 0.36635 0.51396 0.59688 0.0
H589 H 0.2033 0.47577 0.54758 0.0
H590 H 0.20817 0.50796 0.57856 0.0
H591 H 0.21569 0.52044 0.53492 0.0
H592 H 0.25479 0.59005 0.65551 0.0
H593 H 0.27711 0.63378 0.55518 0.0
H594 H 0.27937 0.50994 0.65108 0.0
H595 H 0.23901 0.50014 0.63201 0.0
H596 H 0.24036 0.52911 0.66612 0.0
H597 H 0.30912 0.56382 0.52286 0.0
H598 H 0.27979 0.59853 0.50871 0.0
H599 H 0.26537 0.55328 0.51343 0.0
C600 C 0.05795 0.83887 0.10421 0.0
C601 C 0.08743 0.81972 0.09644 0.0
C602 C 0.04181 0.83367 0.13563 0.0
C603 C 0.05572 0.80894 0.16033 0.0
C604 C 0.08525 0.78906 0.15264 0.0
C605 C 0.10068 0.7945 0.12057 0.0
C606 C 0.01004 0.85513 0.14247 0.0
C607 C 0.10101 0.76284 0.17849 0.0
C608 C 0.02439 0.83597 0.24407 0.0
C609 C 0.99378 0.81657 0.2475 0.0
C610 C 0.04758 0.83045 0.21789 0.0
C611 C 0.03938 0.8055 0.19429 0.0
C612 C 0.01034 0.78322 0.19997 0.0
C613 C 0.98778 0.78905 0.22668 0.0
C614 C 0.07857 0.85432 0.21318 0.0
C615 C 0.00068 0.75625 0.17555 0.0
H616 H 0.04724 0.85802 0.08553 0.0
H617 H 0.12352 0.77969 0.11469 0.0
H618 H 0.98837 0.83739 0.15049 0.0
H619 H 0.01519 0.87231 0.16333 0.0
H620 H 0.00172 0.8721 0.12001 0.0
H621 H 0.12159 0.74685 0.1675 0.0
H622 H 0.11232 0.77712 0.19923 0.0
H623 H 0.08098 0.74481 0.18983 0.0
H624 H 0.02881 0.85736 0.26022 0.0
H625 H 0.96387 0.7743 0.22929 0.0
H626 H 0.07288 0.87561 0.19336 0.0
H627 H 0.10129 0.83952 0.2048 0.0
H628 H 0.08522 0.86678 0.23678 0.0
H629 H 0.98825 0.76984 0.15306 0.0
H630 H 0.9823 0.73639 0.18699 0.0
H631 H 0.02383 0.7424 0.16679 0.0
C632 C 0.64726 0.55975 0.66957 0.0
C633 C 0.63235 0.55448 0.63817 0.0
C634 C 0.63969 0.53697 0.69812 0.0
C635 C 0.61744 0.50784 0.69488 0.0
C636 C 0.60295 0.50209 0.66303 0.0
C637 C 0.61026 0.52569 0.63522 0.0
C638 C 0.65496 0.54439 0.7318 0.0
C639 C 0.5796 0.47098 0.65826 0.0
C640 C 0.61587 0.42562 0.75474 0.0
C641 C 0.58366 0.42895 0.77015 0.0
C642 C 0.6285 0.45233 0.73173 0.0
C643 C 0.60863 0.48325 0.72451 0.0
C644 C 0.57753 0.48795 0.74235 0.0
C645 C 0.56517 0.4605 0.76466 0.0
C646 C 0.6615 0.44598 0.71293 0.0
C647 C 0.55595 0.52082 0.73598 0.0
H648 H 0.66413 0.58219 0.67198 0.0
H649 H 0.59892 0.52134 0.61093 0.0
H650 H 0.63401 0.54814 0.75024 0.0
H651 H 0.67054 0.52153 0.74186 0.0
H652 H 0.67156 0.5683 0.73014 0.0
H653 H 0.57167 0.46945 0.63155 0.0
H654 H 0.59283 0.44602 0.66678 0.0
H655 H 0.55605 0.47288 0.67389 0.0
H656 H 0.62994 0.401 0.7587 0.0
H657 H 0.54023 0.46298 0.77661 0.0
H658 H 0.6782 0.46972 0.7119 0.0
H659 H 0.65528 0.44052 0.68655 0.0
H660 H 0.6762 0.4232 0.72467 0.0
H661 H 0.5724 0.54477 0.73506 0.0
H662 H 0.53588 0.52302 0.75569 0.0
H663 H 0.54294 0.52024 0.71117 0.0
C664 C 0.97323 0.21254 0.0883 0.0
C665 C 0.9642 0.17754 0.08301 0.0
C666 C 0.00618 0.22086 0.10009 0.0
C667 C 0.03061 0.19357 0.10656 0.0
C668 C 0.02137 0.15815 0.10208 0.0
C669 C 0.98833 0.15059 0.09046 0.0
C670 C 0.01511 0.25886 0.10485 0.0
C671 C 0.04669 0.12821 0.10875 0.0
C672 C 0.12708 0.20413 0.10098 0.0
C673 C 0.13649 0.198 0.13493 0.0
C674 C 0.09233 0.20595 0.09147 0.0
C675 C 0.06648 0.20154 0.11658 0.0
C676 C 0.07587 0.19885 0.15109 0.0
C677 C 0.11088 0.19707 0.15989 0.0
C678 C 0.08342 0.2092 0.0544 0.0
C679 C 0.04906 0.19444 0.17862 0.0
H680 H 0.95475 0.23356 0.08277 0.0
H681 H 0.98168 0.12345 0.08667 0.0
H682 H 0.02597 0.26134 0.13039 0.0
H683 H 0.03518 0.26804 0.08635 0.0
H684 H 0.99238 0.27654 0.10149 0.0
H685 H 0.03509 0.10205 0.10495 0.0
H686 H 0.06921 0.13208 0.09164 0.0
H687 H 0.05645 0.12791 0.135 0.0
H688 H 0.14693 0.20531 0.08169 0.0
H689 H 0.11804 0.19219 0.18618 0.0
H690 H 0.06206 0.22825 0.04936 0.0
H691 H 0.0746 0.1832 0.04662 0.0
H692 H 0.10589 0.21779 0.03851 0.0
H693 H 0.02704 0.21262 0.1733 0.0
H694 H 0.05994 0.1993 0.20372 0.0
H695 H 0.03886 0.16708 0.17978 0.0
C696 C 0.26569 0.806 0.06946 0.0
C697 C 0.24377 0.78552 0.05072 0.0
C698 C 0.28759 0.79013 0.09421 0.0
C699 C 0.288 0.7529 0.09984 0.0
C700 C 0.26703 0.73205 0.07998 0.0
C701 C 0.24489 0.74863 0.05589 0.0
C702 C 0.30917 0.81324 0.11529 0.0
C703 C 0.26726 0.69225 0.08481 0.0
C704 C 0.36204 0.70922 0.14954 0.0
C705 C 0.34664 0.70182 0.18117 0.0
C706 C 0.34327 0.72589 0.1227 0.0
C707 C 0.3086 0.73582 0.12796 0.0
C708 C 0.29319 0.72882 0.16005 0.0
C709 C 0.31234 0.71155 0.18618 0.0
C710 C 0.36031 0.73236 0.08865 0.0
C711 C 0.25644 0.73948 0.16679 0.0
H712 H 0.26476 0.83454 0.06571 0.0
H713 H 0.22823 0.73268 0.04124 0.0
H714 H 0.30058 0.81 0.14198 0.0
H715 H 0.33662 0.80515 0.11467 0.0
H716 H 0.30728 0.84162 0.10654 0.0
H717 H 0.2517 0.67985 0.0654 0.0
H718 H 0.29406 0.68217 0.08383 0.0
H719 H 0.25671 0.68373 0.11005 0.0
H720 H 0.38853 0.70144 0.14556 0.0
H721 H 0.30052 0.70583 0.21071 0.0
H722 H 0.35969 0.76091 0.08055 0.0
H723 H 0.34587 0.7184 0.06952 0.0
H724 H 0.38752 0.72324 0.0888 0.0
H725 H 0.25309 0.76821 0.16046 0.0
H726 H 0.2488 0.73339 0.19352 0.0
H727 H 0.23861 0.72553 0.15047 0.0
C728 C 0.67586 0.69157 0.67247 0.0
C729 C 0.68013 0.71348 0.64292 0.0
C730 C 0.68487 0.70317 0.70389 0.0
C731 C 0.69947 0.73714 0.70554 0.0
C732 C 0.7023 0.76003 0.67588 0.0
C733 C 0.69213 0.748 0.64477 0.0
C734 C 0.68064 0.67825 0.73499 0.0
C735 C 0.71833 0.79616 0.67661 0.0
C736 C 0.71166 0.77088 0.79245 0.0
C737 C 0.74513 0.75901 0.80016 0.0
C738 C 0.69645 0.76451 0.7614 0.0
C739 C 0.71556 0.74662 0.7375 0.0
C740 C 0.74974 0.73554 0.74495 0.0
C741 C 0.76391 0.74146 0.77642 0.0
C742 C 0.65968 0.77587 0.7546 0.0
C743 C 0.77118 0.71689 0.71991 0.0
H744 H 0.66625 0.66492 0.67085 0.0
H745 H 0.69553 0.76473 0.62173 0.0
H746 H 0.70634 0.6689 0.74402 0.0
H747 H 0.66844 0.69201 0.75563 0.0
H748 H 0.66477 0.65483 0.73001 0.0
H749 H 0.7149 0.81219 0.65234 0.0
H750 H 0.70705 0.81068 0.69722 0.0
H751 H 0.74635 0.79331 0.68172 0.0
H752 H 0.69708 0.78433 0.81095 0.0
H753 H 0.7899 0.73255 0.78241 0.0
H754 H 0.64329 0.75224 0.75218 0.0
H755 H 0.65797 0.79219 0.73038 0.0
H756 H 0.64901 0.79118 0.77501 0.0
H757 H 0.75956 0.69087 0.7158 0.0
H758 H 0.79817 0.71258 0.72859 0.0
H759 H 0.77159 0.73246 0.69519 0.0
C760 C 0.82157 0.25463 0.14116 0.0
C761 C 0.8165 0.21809 0.14102 0.0
C762 C 0.81695 0.27206 0.17084 0.0
C763 C 0.80767 0.2523 0.20106 0.0
C764 C 0.80364 0.21527 0.20124 0.0
C765 C 0.80781 0.19867 0.17119 0.0
C766 C 0.82097 0.31165 0.16967 0.0
C767 C 0.79423 0.19318 0.23308 0.0
C768 C 0.81709 0.28799 0.28736 0.0
C769 C 0.78268 0.29512 0.29499 0.0
C770 C 0.82599 0.2752 0.2562 0.0
C771 C 0.79984 0.27022 0.23214 0.0
C772 C 0.76534 0.27936 0.23912 0.0
C773 C 0.75713 0.29143 0.27061 0.0
C774 C 0.86298 0.26534 0.24975 0.0
C775 C 0.73682 0.27499 0.21389 0.0
H776 H 0.82829 0.26973 0.11789 0.0
H777 H 0.8044 0.17033 0.17137 0.0
H778 H 0.79581 0.32394 0.17512 0.0
H779 H 0.83931 0.31905 0.18936 0.0
H780 H 0.83026 0.32288 0.14471 0.0
H781 H 0.79444 0.16446 0.22943 0.0
H782 H 0.81248 0.19837 0.25362 0.0
H783 H 0.7681 0.20051 0.24155 0.0
H784 H 0.83679 0.29101 0.30627 0.0
H785 H 0.73055 0.29756 0.27627 0.0
H786 H 0.87171 0.27729 0.22492 0.0
H787 H 0.86504 0.23627 0.24895 0.0
H788 H 0.88063 0.27387 0.26961 0.0
H789 H 0.74413 0.28757 0.18884 0.0
H790 H 0.71211 0.28664 0.22185 0.0
H791 H 0.73262 0.24651 0.21081 0.0
C792 C 0.26174 0.25863 0.58318 0.0
C793 C 0.25428 0.28169 0.55495 0.0
C794 C 0.23534 0.24145 0.60203 0.0
C795 C 0.20061 0.24712 0.59221 0.0
C796 C 0.1928 0.27083 0.56413 0.0
C797 C 0.21975 0.28802 0.54594 0.0
C798 C 0.24468 0.21673 0.63212 0.0
C799 C 0.15607 0.27727 0.55277 0.0
C800 C 0.1393 0.173 0.62034 0.0
C801 C 0.12383 0.18619 0.64867 0.0
C802 C 0.1635 0.19309 0.60105 0.0
C803 C 0.1727 0.22703 0.61063 0.0
C804 C 0.15659 0.2408 0.63886 0.0
C805 C 0.13219 0.22024 0.65751 0.0
C806 C 0.17988 0.17762 0.57092 0.0
C807 C 0.16597 0.27675 0.64999 0.0
H808 H 0.28833 0.25386 0.59054 0.0
H809 H 0.21377 0.30572 0.52411 0.0
H810 H 0.2307 0.22434 0.65487 0.0
H811 H 0.23668 0.18944 0.62755 0.0
H812 H 0.27278 0.21669 0.63748 0.0
H813 H 0.15423 0.29762 0.53133 0.0
H814 H 0.1447 0.25235 0.5449 0.0
H815 H 0.14022 0.28582 0.57396 0.0
H816 H 0.13277 0.14668 0.61351 0.0
H817 H 0.12036 0.23052 0.67949 0.0
H818 H 0.20786 0.17366 0.57548 0.0
H819 H 0.17715 0.19614 0.54819 0.0
H820 H 0.16826 0.15188 0.56556 0.0
H821 H 0.19337 0.27684 0.65795 0.0
H822 H 0.14974 0.28442 0.67132 0.0
H823 H 0.16316 0.29706 0.62868 0.0
C824 C 0.7784 0.70546 0.50366 0.0
C825 C 0.74363 0.71175 0.49564 0.0
C826 C 0.80482 0.72207 0.48418 0.0
C827 C 0.7962 0.74493 0.45569 0.0
C828 C 0.76117 0.75068 0.44706 0.0
C829 C 0.73535 0.73428 0.46728 0.0
C830 C 0.84189 0.71572 0.49441 0.0
C831 C 0.7509 0.77436 0.41654 0.0
C832 C 0.85664 0.81697 0.42035 0.0
C833 C 0.87023 0.8019 0.39208 0.0
C834 C 0.83366 0.79809 0.44216 0.0
C835 C 0.82359 0.76355 0.43511 0.0
C836 C 0.83787 0.7479 0.40695 0.0
C837 C 0.86123 0.76721 0.38586 0.0
C838 C 0.81937 0.81552 0.47218 0.0
C839 C 0.82741 0.71133 0.39834 0.0
H840 H 0.78495 0.6882 0.52564 0.0
H841 H 0.70854 0.73896 0.46069 0.0
H842 H 0.8566 0.70541 0.47328 0.0
H843 H 0.85407 0.74102 0.50017 0.0
H844 H 0.84431 0.69673 0.51688 0.0
H845 H 0.72256 0.77485 0.41249 0.0
H846 H 0.75979 0.80171 0.41955 0.0
H847 H 0.76349 0.76537 0.39359 0.0
H848 H 0.86369 0.84377 0.42518 0.0
H849 H 0.87156 0.75547 0.36392 0.0
H850 H 0.8227 0.79797 0.4955 0.0
H851 H 0.79131 0.82013 0.46875 0.0
H852 H 0.83203 0.84121 0.47578 0.0
H853 H 0.83093 0.6922 0.42049 0.0
H854 H 0.84246 0.70211 0.37685 0.0
H855 H 0.79965 0.71121 0.39165 0.0
C856 C 0.76083 0.23227 0.96663 0.0
C857 C 0.75205 0.21121 0.99583 0.0
C858 C 0.73556 0.25052 0.94719 0.0
C859 C 0.70064 0.24808 0.95742 0.0
C860 C 0.69145 0.22631 0.98647 0.0
C861 C 0.71727 0.20789 0.00523 0.0
C862 C 0.74636 0.27302 0.91607 0.0
C863 C 0.65449 0.22332 0.99827 0.0
C864 C 0.64529 0.32597 0.92615 0.0
C865 C 0.62853 0.31273 0.89856 0.0
C866 C 0.66788 0.30475 0.9463 0.0
C867 C 0.67415 0.26957 0.93832 0.0
C868 C 0.65676 0.25583 0.91083 0.0
C869 C 0.63399 0.27756 0.89131 0.0
C870 C 0.6857 0.32026 0.97559 0.0
C871 C 0.66306 0.21858 0.90135 0.0
H872 H 0.78761 0.23464 0.95896 0.0
H873 H 0.71033 0.19175 0.02782 0.0
H874 H 0.73148 0.26551 0.89385 0.0
H875 H 0.74064 0.30116 0.91947 0.0
H876 H 0.77429 0.27048 0.91052 0.0
H877 H 0.65139 0.20403 0.02043 0.0
H878 H 0.64523 0.24947 0.00522 0.0
H879 H 0.63773 0.2152 0.9776 0.0
H880 H 0.64098 0.35315 0.93177 0.0
H881 H 0.62117 0.26721 0.86991 0.0
H882 H 0.71386 0.32173 0.97081 0.0
H883 H 0.68177 0.30303 -0.00097 0.0
H884 H 0.67619 0.34717 0.97985 0.0
H885 H 0.69027 0.21581 0.89329 0.0
H886 H 0.646 0.21123 0.88053 0.0
H887 H 0.65891 0.19958 0.9235 0.0
C888 C 0.3112 0.29349 0.3807 0.0
C889 C 0.31971 0.27359 0.41063 0.0
C890 C 0.30609 0.2773 0.35059 0.0
C891 C 0.30906 0.2402 0.35047 0.0
C892 C 0.31834 0.21994 0.38039 0.0
C893 C 0.32385 0.23696 0.41016 0.0
C894 C 0.2967 0.29989 0.31907 0.0
C895 C 0.32134 0.18027 0.38118 0.0
C896 C 0.25595 0.20327 0.28161 0.0
C897 C 0.28083 0.19932 0.25658 0.0
C898 C 0.26519 0.2147 0.31307 0.0
C899 C 0.30008 0.2228 0.31941 0.0
C900 C 0.32552 0.21752 0.29469 0.0
C901 C 0.31557 0.20551 0.26354 0.0
C902 C 0.23737 0.21954 0.33897 0.0
C903 C 0.36292 0.22624 0.30049 0.0
H904 H 0.30853 0.3219 0.38076 0.0
H905 H 0.33046 0.2215 0.43324 0.0
H906 H 0.31439 0.29438 0.29814 0.0
H907 H 0.27021 0.29339 0.31104 0.0
H908 H 0.2978 0.32855 0.32292 0.0
H909 H 0.33104 0.16862 0.40581 0.0
H910 H 0.29571 0.16869 0.37636 0.0
H911 H 0.3389 0.17256 0.36093 0.0
H912 H 0.22909 0.19788 0.27649 0.0
H913 H 0.33477 0.20225 0.24416 0.0
H914 H 0.23406 0.24806 0.34246 0.0
H915 H 0.24487 0.20644 0.36374 0.0
H916 H 0.21216 0.20871 0.33141 0.0
H917 H 0.36585 0.25521 0.30149 0.0
H918 H 0.37989 0.2174 0.28019 0.0
H919 H 0.37182 0.2138 0.32505 0.0
C920 C 0.22625 0.78731 0.88788 0.0
C921 C 0.19219 0.78723 0.89965 0.0
C922 C 0.23398 0.77735 0.85548 0.0
C923 C 0.20687 0.76795 0.83407 0.0
C924 C 0.17248 0.76702 0.84609 0.0
C925 C 0.16557 0.7763 0.87899 0.0
C926 C 0.27108 0.77781 0.84386 0.0
C927 C 0.14288 0.75771 0.82374 0.0
C928 C 0.22711 0.78164 0.7407 0.0
C929 C 0.23448 0.74719 0.73267 0.0
C930 C 0.21675 0.7886 0.77339 0.0
C931 C 0.21461 0.76046 0.79871 0.0
C932 C 0.22177 0.72554 0.79061 0.0
C933 C 0.23133 0.71927 0.75754 0.0
C934 C 0.20871 0.82613 0.78099 0.0
C935 C 0.22049 0.69501 0.81711 0.0
H936 H 0.24686 0.79556 0.90396 0.0
H937 H 0.13918 0.77661 0.88798 0.0
H938 H 0.27795 0.75214 0.83397 0.0
H939 H 0.27461 0.79848 0.82297 0.0
H940 H 0.28927 0.78315 0.86446 0.0
H941 H 0.11787 0.75661 0.83741 0.0
H942 H 0.14091 0.77769 0.80203 0.0
H943 H 0.14754 0.73182 0.81331 0.0
H944 H 0.22952 0.80316 0.72138 0.0
H945 H 0.23734 0.69258 0.75147 0.0
H946 H 0.22789 0.83537 0.79907 0.0
H947 H 0.18298 0.82746 0.79306 0.0
H948 H 0.20905 0.8445 0.75794 0.0
H949 H 0.2401 0.6989 0.83682 0.0
H950 H 0.22542 0.66927 0.80638 0.0
H951 H 0.19496 0.69388 0.82973 0.0
loop_
_geom_bond_atom_site_label_1
_geom_bond_atom_site_label_2
_geom_bond_distance
_geom_bond_site_symmetry_2
_ccdc_geom_bond_type
Sc0 O3 2.025 . S
Sc0 O10 2.105 1_554 S
Sc0 O13 2.105 . S
Sc0 O16 2.105 . S
Sc0 O19 2.105 1_554 S
Sc1 O3 2.025 . S
Sc1 O11 2.105 1_554 S
Sc1 O15 2.105 . S
Sc1 O17 2.105 . S
Sc1 O21 2.105 1_554 S
Sc2 O3 2.025 1_556 S
Sc2 O12 2.105 . S
Sc2 O14 2.105 1_556 S
Sc2 O18 2.105 1_556 S
Sc2 O20 2.105 . S
O3 Sc0 2.025 . S
O3 Sc1 2.025 . S
O3 Sc2 2.025 1_554 S
C4 O10 1.268 . S
C4 O20 1.268 . S
C5 O11 1.268 . S
C5 O19 1.268 . S
C6 O12 1.268 . S
C6 O21 1.268 . S
C7 O13 1.268 . S
C7 O17 1.268 . S
C8 O14 1.268 . S
C8 O16 1.268 . S
C9 O15 1.268 . S
C9 O18 1.268 . S
O10 Sc0 2.105 1_556 S
O10 C4 1.268 . S
O11 Sc1 2.105 1_556 S
O11 C5 1.268 . S
O12 Sc2 2.105 . S
O12 C6 1.268 . S
O13 Sc0 2.105 . S
O13 C7 1.268 . S
O14 Sc2 2.105 1_554 S
O14 C8 1.268 . S
O15 Sc1 2.105 . S
O15 C9 1.268 . S
O16 Sc0 2.105 . S
O16 C8 1.268 . S
O17 Sc1 2.105 . S
O17 C7 1.268 . S
O18 Sc2 2.105 1_554 S
O18 C9 1.268 . S
O19 Sc0 2.105 1_556 S
O19 C5 1.268 . S
O20 Sc2 2.105 . S
O20 C4 1.268 . S
O21 Sc1 2.105 1_556 S
O21 C6 1.268 . S
Sc22 O25 2.025 . S
Sc22 O32 2.105 . S
Sc22 O35 2.105 . S
Sc22 O38 2.105 . S
Sc22 O41 2.105 . S
Sc23 O25 2.025 . S
Sc23 O33 2.105 . S
Sc23 O37 2.105 . S
Sc23 O39 2.105 . S
Sc23 O43 2.105 . S
Sc24 O25 2.025 . S
Sc24 O34 2.105 . S
Sc24 O36 2.105 . S
Sc24 O40 2.105 . S
Sc24 O42 2.105 . S
O25 Sc22 2.025 . S
O25 Sc23 2.025 . S
O25 Sc24 2.025 . S
C26 O32 1.268 . S
C26 O42 1.268 . S
C27 O33 1.268 . S
C27 O41 1.268 . S
C28 O34 1.268 . S
C28 O43 1.268 . S
C29 O35 1.268 . S
C29 O39 1.268 . S
C30 O36 1.268 . S
C30 O38 1.268 . S
C31 O37 1.268 . S
C31 O40 1.268 . S
O32 Sc22 2.105 . S
O32 C26 1.268 . S
O33 Sc23 2.105 . S
O33 C27 1.268 . S
O34 Sc24 2.105 . S
O34 C28 1.268 . S
O35 Sc22 2.105 . S
O35 C29 1.268 . S
O36 Sc24 2.105 . S
O36 C30 1.268 . S
O37 Sc23 2.105 . S
O37 C31 1.268 . S
O38 Sc22 2.105 . S
O38 C30 1.268 . S
O39 Sc23 2.105 . S
O39 C29 1.268 . S
O40 Sc24 2.105 . S
O40 C31 1.268 . S
O41 Sc22 2.105 . S
O41 C27 1.268 . S
O42 Sc24 2.105 . S
O42 C26 1.268 . S
O43 Sc23 2.105 . S
O43 C28 1.268 . S
Sc44 O47 2.025 . S
Sc44 O54 2.105 1_554 S
Sc44 O57 2.105 . S
Sc44 O60 2.105 . S
Sc44 O63 2.105 . S
Sc45 O47 2.025 . S
Sc45 O55 2.105 . S
Sc45 O59 2.105 . S
Sc45 O61 2.105 . S
Sc45 O65 2.105 . S
Sc46 O47 2.025 . S
Sc46 O56 2.105 . S
Sc46 O58 2.105 . S
Sc46 O62 2.105 . S
Sc46 O64 2.105 1_554 S
O47 Sc44 2.025 . S
O47 Sc45 2.025 . S
O47 Sc46 2.025 . S
C48 O54 1.268 . S
C48 O64 1.268 . S
C49 O55 1.267 . S
C49 O63 1.268 . S
C50 O56 1.268 . S
C50 O65 1.268 . S
C51 O57 1.268 . S
C51 O61 1.268 . S
C52 O58 1.268 . S
C52 O60 1.268 . S
C53 O59 1.268 . S
C53 O62 1.268 . S
O54 Sc44 2.105 1_556 S
O54 C48 1.268 . S
O55 Sc45 2.105 . S
O55 C49 1.267 . S
O56 Sc46 2.105 . S
O56 C50 1.268 . S
O57 Sc44 2.105 . S
O57 C51 1.268 . S
O58 Sc46 2.105 . S
O58 C52 1.268 . S
O59 Sc45 2.105 . S
O59 C53 1.268 . S
O60 Sc44 2.105 . S
O60 C52 1.268 . S
O61 Sc45 2.105 . S
O61 C51 1.268 . S
O62 Sc46 2.105 . S
O62 C53 1.268 . S
O63 Sc44 2.105 . S
O63 C49 1.268 . S
O64 Sc46 2.105 1_556 S
O64 C48 1.268 . S
O65 Sc45 2.105 . S
O65 C50 1.268 . S
Sc66 O69 2.025 . S
Sc66 O76 2.105 . S
Sc66 O79 2.105 . S
Sc66 O82 2.105 . S
Sc66 O85 2.105 . S
Sc67 O69 2.025 . S
Sc67 O77 2.105 . S
Sc67 O81 2.105 . S
Sc67 O83 2.105 . S
Sc67 O87 2.105 . S
Sc68 O69 2.025 . S
Sc68 O78 2.105 . S
Sc68 O80 2.105 . S
Sc68 O84 2.105 . S
Sc68 O86 2.105 . S
O69 Sc66 2.025 . S
O69 Sc67 2.025 . S
O69 Sc68 2.025 . S
C70 O76 1.268 . S
C70 O86 1.268 . S
C71 O77 1.268 . S
C71 O85 1.268 . S
C72 O78 1.268 . S
C72 O87 1.268 . S
C73 O79 1.268 . S
C73 O83 1.268 . S
C74 O80 1.268 . S
C74 O82 1.268 . S
C75 O81 1.268 . S
C75 O84 1.268 . S
O76 Sc66 2.105 . S
O76 C70 1.268 . S
O77 Sc67 2.105 . S
O77 C71 1.268 . S
O78 Sc68 2.105 . S
O78 C72 1.268 . S
O79 Sc66 2.105 . S
O79 C73 1.268 . S
O80 Sc68 2.105 . S
O80 C74 1.268 . S
O81 Sc67 2.105 . S
O81 C75 1.268 . S
O82 Sc66 2.105 . S
O82 C74 1.268 . S
O83 Sc67 2.105 . S
O83 C73 1.268 . S
O84 Sc68 2.105 . S
O84 C75 1.268 . S
O85 Sc66 2.105 . S
O85 C71 1.268 . S
O86 Sc68 2.105 . S
O86 C70 1.268 . S
O87 Sc67 2.105 . S
O87 C72 1.268 . S
H88 C93 0.930 . S
H89 C96 0.930 . S
H90 C98 0.930 . S
H91 C92 1.016 . S
C92 H91 1.016 . S
C92 N99 1.286 . S
C93 H88 0.930 . S
C93 C94 1.397 . S
C93 C95 1.361 . S
C94 C93 1.397 . S
C94 C98 1.390 . S
C95 C93 1.361 . S
C95 C96 1.393 . S
C95 N99 1.413 . S
C96 H89 0.930 . S
C96 C95 1.393 . S
C96 C97 1.399 . S
C97 C96 1.399 . S
C97 C98 1.381 . S
C98 H90 0.930 . S
C98 C94 1.390 . S
C98 C97 1.381 . S
N99 C92 1.286 . S
N99 C95 1.413 . S
H100 C105 0.930 . S
H101 C108 0.930 . S
H102 C110 0.930 . S
H103 C104 1.016 . S
C104 H103 1.016 . S
C104 N111 1.286 . S
C105 H100 0.930 . S
C105 C106 1.397 . S
C105 C107 1.361 . S
C106 C105 1.397 . S
C106 C110 1.390 . S
C107 C105 1.361 . S
C107 C108 1.393 . S
C107 N111 1.413 . S
C108 H101 0.930 . S
C108 C107 1.393 . S
C108 C109 1.399 . S
C109 C108 1.399 . S
C109 C110 1.381 . S
C110 H102 0.930 . S
C110 C106 1.390 . S
C110 C109 1.381 . S
N111 C104 1.286 . S
N111 C107 1.413 . S
H112 C117 0.930 . S
H113 C120 0.930 . S
H114 C122 0.930 . S
H115 C116 1.016 . S
C116 H115 1.016 . S
C116 N123 1.286 . S
C117 H112 0.930 . S
C117 C118 1.397 . S
C117 C119 1.361 . S
C118 C117 1.397 . S
C118 C122 1.390 . S
C119 C117 1.361 . S
C119 C120 1.393 . S
C119 N123 1.413 . S
C120 H113 0.930 . S
C120 C119 1.393 . S
C120 C121 1.399 . S
C121 C120 1.399 . S
C121 C122 1.381 . S
C122 H114 0.930 . S
C122 C118 1.390 . S
C122 C121 1.381 . S
N123 C116 1.286 . S
N123 C119 1.413 . S
H124 C129 0.930 . S
H125 C132 0.930 . S
H126 C134 0.930 . S
H127 C128 1.016 . S
C128 H127 1.016 . S
C128 N135 1.286 . S
C129 H124 0.930 . S
C129 C130 1.397 . S
C129 C131 1.361 . S
C130 C129 1.397 . S
C130 C134 1.390 . S
C131 C129 1.361 . S
C131 C132 1.393 . S
C131 N135 1.413 . S
C132 H125 0.930 . S
C132 C131 1.393 . S
C132 C133 1.399 . S
C133 C132 1.399 . S
C133 C134 1.381 . S
C134 H126 0.930 . S
C134 C130 1.390 . S
C134 C133 1.381 . S
N135 C128 1.286 . S
N135 C131 1.413 . S
H136 C141 0.930 . S
H137 C144 0.930 . S
H138 C146 0.930 . S
H139 C140 1.016 . S
C140 H139 1.016 . S
C140 N147 1.286 . S
C141 H136 0.930 . S
C141 C142 1.397 . S
C141 C143 1.361 . S
C142 C141 1.397 . S
C142 C146 1.390 . S
C143 C141 1.361 . S
C143 C144 1.393 . S
C143 N147 1.413 . S
C144 H137 0.930 . S
C144 C143 1.393 . S
C144 C145 1.399 . S
C145 C144 1.399 . S
C145 C146 1.381 . S
C146 H138 0.930 . S
C146 C142 1.390 . S
C146 C145 1.381 . S
N147 C140 1.286 . S
N147 C143 1.413 . S
H148 C153 0.930 . S
H149 C156 0.930 . S
H150 C158 0.930 . S
H151 C152 1.016 . S
C152 H151 1.016 . S
C152 N159 1.286 . S
C153 H148 0.930 . S
C153 C154 1.397 . S
C153 C155 1.361 . S
C154 C153 1.397 . S
C154 C158 1.390 . S
C155 C153 1.361 . S
C155 C156 1.393 . S
C155 N159 1.413 . S
C156 H149 0.930 . S
C156 C155 1.393 . S
C156 C157 1.399 . S
C157 C156 1.399 . S
C157 C158 1.381 . S
C158 H150 0.930 . S
C158 C154 1.390 . S
C158 C157 1.381 . S
N159 C152 1.286 . S
N159 C155 1.413 . S
H160 C165 0.930 . S
H161 C168 0.930 . S
H162 C170 0.930 . S
H163 C164 1.016 . S
C164 H163 1.016 . S
C164 N171 1.286 . S
C165 H160 0.930 . S
C165 C166 1.397 . S
C165 C167 1.361 . S
C166 C165 1.397 . S
C166 C170 1.390 . S
C167 C165 1.361 . S
C167 C168 1.393 . S
C167 N171 1.413 . S
C168 H161 0.930 . S
C168 C167 1.393 . S
C168 C169 1.399 . S
C169 C168 1.399 . S
C169 C170 1.381 . S
C170 H162 0.930 . S
C170 C166 1.390 . S
C170 C169 1.381 . S
N171 C164 1.286 . S
N171 C167 1.413 . S
H172 C177 0.930 . S
H173 C180 0.930 . S
H174 C182 0.930 . S
H175 C176 1.016 . S
C176 H175 1.016 . S
C176 N183 1.286 . S
C177 H172 0.930 . S
C177 C178 1.397 . S
C177 C179 1.361 . S
C178 C177 1.397 . S
C178 C182 1.390 . S
C179 C177 1.361 . S
C179 C180 1.393 . S
C179 N183 1.413 . S
C180 H173 0.930 . S
C180 C179 1.393 . S
C180 C181 1.399 . S
C181 C180 1.399 . S
C181 C182 1.381 . S
C182 H174 0.930 . S
C182 C178 1.390 . S
C182 C181 1.381 . S
N183 C176 1.286 . S
N183 C179 1.413 . S
C184 C185 1.391 . S
C184 C186 1.394 . S
C184 H200 0.931 . S
C185 C184 1.391 . S
C185 C189 1.376 . S
C186 C184 1.394 . S
C186 C187 1.369 1_565 S
C186 C190 1.531 . S
C187 C186 1.369 1_545 S
C187 C188 1.410 . S
C187 C195 1.503 . S
C188 C187 1.410 . S
C188 C189 1.392 1_545 S
C188 C191 1.511 . S
C189 C185 1.376 . S
C189 C188 1.392 1_565 S
C189 H201 0.929 . S
C190 C186 1.531 . S
C190 H202 0.960 1_565 S
C190 H203 0.962 . S
C190 H204 0.960 . S
C191 C188 1.511 . S
C191 H205 0.961 . S
C191 H206 0.961 . S
C191 H207 0.961 . S
C192 C193 1.370 . S
C192 C194 1.363 . S
C192 H208 0.931 . S
C193 C192 1.370 . S
C193 C197 1.408 . S
C194 C192 1.363 . S
C194 C195 1.370 . S
C194 C198 1.524 . S
C195 C187 1.503 . S
C195 C194 1.370 . S
C195 C196 1.403 . S
C196 C195 1.403 . S
C196 C197 1.404 . S
C196 C199 1.539 . S
C197 C193 1.408 . S
C197 C196 1.404 . S
C197 H209 0.930 . S
C198 C194 1.524 . S
C198 H210 0.956 . S
C198 H211 0.961 . S
C198 H212 0.961 . S
C199 C196 1.539 . S
C199 H213 0.958 . S
C199 H214 0.961 . S
C199 H215 0.960 . S
H200 C184 0.931 . S
H201 C189 0.929 . S
H202 C190 0.960 1_545 S
H203 C190 0.962 . S
H204 C190 0.960 . S
H205 C191 0.961 . S
H206 C191 0.961 . S
H207 C191 0.961 . S
H208 C192 0.931 . S
H209 C197 0.930 . S
H210 C198 0.956 . S
H211 C198 0.961 . S
H212 C198 0.961 . S
H213 C199 0.958 . S
H214 C199 0.961 . S
H215 C199 0.960 . S
C216 C217 1.391 . S
C216 C218 1.394 . S
C216 H232 0.931 . S
C217 C216 1.391 . S
C217 C221 1.376 . S
C218 C216 1.394 . S
C218 C219 1.369 . S
C218 C222 1.531 . S
C219 C218 1.369 . S
C219 C220 1.410 . S
C219 C227 1.503 . S
C220 C219 1.410 . S
C220 C221 1.392 . S
C220 C223 1.511 . S
C221 C217 1.376 . S
C221 C220 1.392 . S
C221 H233 0.929 . S
C222 C218 1.531 . S
C222 H234 0.960 . S
C222 H235 0.962 . S
C222 H236 0.960 . S
C223 C220 1.511 . S
C223 H237 0.961 . S
C223 H238 0.961 . S
C223 H239 0.961 . S
C224 C225 1.370 . S
C224 C226 1.363 . S
C224 H240 0.931 . S
C225 C224 1.370 . S
C225 C229 1.408 . S
C226 C224 1.363 . S
C226 C227 1.370 . S
C226 C230 1.524 . S
C227 C219 1.503 . S
C227 C226 1.370 . S
C227 C228 1.403 . S
C228 C227 1.403 . S
C228 C229 1.404 . S
C228 C231 1.539 . S
C229 C225 1.408 . S
C229 C228 1.404 . S
C229 H241 0.930 . S
C230 C226 1.524 . S
C230 H242 0.956 . S
C230 H243 0.961 . S
C230 H244 0.961 . S
C231 C228 1.539 . S
C231 H245 0.958 . S
C231 H246 0.961 . S
C231 H247 0.960 . S
H232 C216 0.931 . S
H233 C221 0.929 . S
H234 C222 0.960 . S
H235 C222 0.962 . S
H236 C222 0.960 . S
H237 C223 0.961 . S
H238 C223 0.961 . S
H239 C223 0.961 . S
H240 C224 0.931 . S
H241 C229 0.930 . S
H242 C230 0.956 . S
H243 C230 0.961 . S
H244 C230 0.961 . S
H245 C231 0.958 . S
H246 C231 0.961 . S
H247 C231 0.960 . S
C248 C249 1.391 . S
C248 C250 1.394 . S
C248 H264 0.931 . S
C249 C248 1.391 . S
C249 C253 1.376 . S
C250 C248 1.394 . S
C250 C251 1.369 1_545 S
C250 C254 1.531 . S
C251 C250 1.369 1_565 S
C251 C252 1.410 1_565 S
C251 C259 1.503 . S
C252 C251 1.410 1_545 S
C252 C253 1.392 . S
C252 C255 1.511 1_545 S
C253 C249 1.376 . S
C253 C252 1.392 . S
C253 H265 0.929 . S
C254 C250 1.531 . S
C254 H266 0.962 . S
C254 H267 0.962 1_545 S
C254 H268 0.960 . S
C255 C252 1.511 1_565 S
C255 H269 0.961 . S
C255 H270 0.961 . S
C255 H271 0.948 1_565 S
C256 C257 1.370 . S
C256 C258 1.363 . S
C256 H272 0.931 . S
C257 C256 1.370 . S
C257 C261 1.408 . S
C258 C256 1.363 . S
C258 C259 1.370 . S
C258 C262 1.524 . S
C259 C251 1.503 . S
C259 C258 1.370 . S
C259 C260 1.403 . S
C260 C259 1.403 . S
C260 C261 1.404 . S
C260 C263 1.539 1_565 S
C261 C257 1.408 . S
C261 C260 1.404 . S
C261 H273 0.930 . S
C262 C258 1.524 . S
C262 H274 0.956 . S
C262 H275 0.961 . S
C262 H276 0.961 . S
C263 C260 1.539 1_545 S
C263 H277 0.958 . S
C263 H278 0.961 . S
C263 H279 0.960 . S
H264 C248 0.931 . S
H265 C253 0.929 . S
H266 C254 0.962 . S
H267 C254 0.962 1_565 S
H268 C254 0.960 . S
H269 C255 0.961 . S
H270 C255 0.961 . S
H271 C255 0.948 1_545 S
H272 C256 0.931 . S
H273 C261 0.930 . S
H274 C262 0.956 . S
H275 C262 0.961 . S
H276 C262 0.961 . S
H277 C263 0.958 . S
H278 C263 0.961 . S
H279 C263 0.960 . S
C280 C281 1.391 . S
C280 C282 1.394 . S
C280 H296 0.931 . S
C281 C280 1.391 . S
C281 C285 1.376 . S
C282 C280 1.394 . S
C282 C283 1.369 . S
C282 C286 1.531 . S
C283 C282 1.369 . S
C283 C284 1.410 . S
C283 C291 1.503 . S
C284 C283 1.410 . S
C284 C285 1.392 . S
C284 C287 1.511 . S
C285 C281 1.376 . S
C285 C284 1.392 . S
C285 H297 0.929 . S
C286 C282 1.531 . S
C286 H298 0.960 . S
C286 H299 0.962 . S
C286 H300 0.960 . S
C287 C284 1.511 . S
C287 H301 0.961 . S
C287 H302 0.961 . S
C287 H303 0.961 . S
C288 C289 1.370 . S
C288 C290 1.363 . S
C288 H304 0.931 . S
C289 C288 1.370 . S
C289 C293 1.408 . S
C290 C288 1.363 . S
C290 C291 1.370 . S
C290 C294 1.524 . S
C291 C283 1.503 . S
C291 C290 1.370 . S
C291 C292 1.403 . S
C292 C291 1.403 . S
C292 C293 1.404 . S
C292 C295 1.539 . S
C293 C289 1.408 . S
C293 C292 1.404 . S
C293 H305 0.930 . S
C294 C290 1.524 . S
C294 H306 0.956 . S
C294 H307 0.961 . S
C294 H308 0.961 . S
C295 C292 1.539 . S
C295 H309 0.958 . S
C295 H310 0.961 . S
C295 H311 0.960 . S
H296 C280 0.931 . S
H297 C285 0.929 . S
H298 C286 0.960 . S
H299 C286 0.962 . S
H300 C286 0.960 . S
H301 C287 0.961 . S
H302 C287 0.961 . S
H303 C287 0.961 . S
H304 C288 0.931 . S
H305 C293 0.930 . S
H306 C294 0.956 . S
H307 C294 0.961 . S
H308 C294 0.961 . S
H309 C295 0.958 . S
H310 C295 0.961 . S
H311 C295 0.960 . S
C312 C313 1.391 . S
C312 C314 1.394 . S
C312 H328 0.931 . S
C313 C312 1.391 . S
C313 C317 1.376 . S
C314 C312 1.394 . S
C314 C315 1.369 . S
C314 C318 1.531 . S
C315 C314 1.369 . S
C315 C316 1.410 . S
C315 C323 1.503 . S
C316 C315 1.410 . S
C316 C317 1.392 . S
C316 C319 1.511 . S
C317 C313 1.376 . S
C317 C316 1.392 . S
C317 H329 0.929 . S
C318 C314 1.531 . S
C318 H330 0.960 . S
C318 H331 0.962 . S
C318 H332 0.960 . S
C319 C316 1.511 . S
C319 H333 0.961 . S
C319 H334 0.961 . S
C319 H335 0.961 . S
C320 C321 1.370 . S
C320 C322 1.363 . S
C320 H336 0.931 . S
C321 C320 1.370 . S
C321 C325 1.408 . S
C322 C320 1.363 . S
C322 C323 1.370 . S
C322 C326 1.524 . S
C323 C315 1.503 . S
C323 C322 1.370 . S
C323 C324 1.403 . S
C324 C323 1.403 . S
C324 C325 1.404 . S
C324 C327 1.539 . S
C325 C321 1.408 . S
C325 C324 1.404 . S
C325 H337 0.930 . S
C326 C322 1.524 . S
C326 H338 0.956 . S
C326 H339 0.961 . S
C326 H340 0.961 . S
C327 C324 1.539 . S
C327 H341 0.958 . S
C327 H342 0.961 . S
C327 H343 0.960 . S
H328 C312 0.931 . S
H329 C317 0.929 . S
H330 C318 0.960 . S
H331 C318 0.962 . S
H332 C318 0.960 . S
H333 C319 0.961 . S
H334 C319 0.961 . S
H335 C319 0.961 . S
H336 C320 0.931 . S
H337 C325 0.930 . S
H338 C326 0.956 . S
H339 C326 0.961 . S
H340 C326 0.961 . S
H341 C327 0.958 . S
H342 C327 0.961 . S
H343 C327 0.960 . S
C344 C345 1.391 . S
C344 C346 1.394 . S
C344 H360 0.931 . S
C345 C344 1.391 . S
C345 C349 1.376 . S
C346 C344 1.394 . S
C346 C347 1.369 . S
C346 C350 1.531 1_655 S
C347 C346 1.369 . S
C347 C348 1.410 . S
C347 C355 1.503 . S
C348 C347 1.410 . S
C348 C349 1.392 . S
C348 C351 1.511 . S
C349 C345 1.376 . S
C349 C348 1.392 . S
C349 H361 0.929 . S
C350 C346 1.531 1_455 S
C350 H362 0.960 . S
C350 H363 0.962 . S
C350 H364 0.960 . S
C351 C348 1.511 . S
C351 H365 0.961 . S
C351 H366 0.961 . S
C351 H367 0.961 . S
C352 C353 1.370 . S
C352 C354 1.363 . S
C352 H368 0.931 . S
C353 C352 1.370 . S
C353 C357 1.408 . S
C354 C352 1.363 . S
C354 C355 1.370 1_455 S
C354 C358 1.524 . S
C355 C347 1.503 . S
C355 C354 1.370 1_655 S
C355 C356 1.403 . S
C356 C355 1.403 . S
C356 C357 1.404 1_655 S
C356 C359 1.539 . S
C357 C353 1.408 . S
C357 C356 1.404 1_455 S
C357 H369 0.930 . S
C358 C354 1.524 . S
C358 H370 0.956 . S
C358 H371 0.961 1_455 S
C358 H372 0.961 . S
C359 C356 1.539 . S
C359 H373 0.958 . S
C359 H374 0.961 . S
C359 H375 0.960 . S
H360 C344 0.931 . S
H361 C349 0.929 . S
H362 C350 0.960 . S
H363 C350 0.962 . S
H364 C350 0.960 . S
H365 C351 0.961 . S
H366 C351 0.961 . S
H367 C351 0.961 . S
H368 C352 0.931 . S
H369 C357 0.930 . S
H370 C358 0.956 . S
H371 C358 0.961 1_655 S
H372 C358 0.961 . S
H373 C359 0.958 . S
H374 C359 0.961 . S
H375 C359 0.960 . S
C376 C377 1.391 . S
C376 C378 1.394 . S
C376 H392 0.931 . S
C377 C376 1.391 . S
C377 C381 1.376 . S
C378 C376 1.394 . S
C378 C379 1.369 . S
C378 C382 1.531 . S
C379 C378 1.369 . S
C379 C380 1.410 . S
C379 C387 1.503 . S
C380 C379 1.410 . S
C380 C381 1.392 . S
C380 C383 1.511 . S
C381 C377 1.376 . S
C381 C380 1.392 . S
C381 H393 0.929 . S
C382 C378 1.531 . S
C382 H394 0.960 . S
C382 H395 0.962 . S
C382 H396 0.960 . S
C383 C380 1.511 . S
C383 H397 0.961 . S
C383 H398 0.961 . S
C383 H399 0.961 . S
C384 C385 1.370 . S
C384 C386 1.363 . S
C384 H400 0.931 . S
C385 C384 1.370 . S
C385 C389 1.408 . S
C386 C384 1.363 . S
C386 C387 1.370 . S
C386 C390 1.524 . S
C387 C379 1.503 . S
C387 C386 1.370 . S
C387 C388 1.403 . S
C388 C387 1.403 . S
C388 C389 1.404 . S
C388 C391 1.539 . S
C389 C385 1.408 . S
C389 C388 1.404 . S
C389 H401 0.930 . S
C390 C386 1.524 . S
C390 H402 0.956 . S
C390 H403 0.961 . S
C390 H404 0.961 . S
C391 C388 1.539 . S
C391 H405 0.958 . S
C391 H406 0.961 . S
C391 H407 0.960 . S
H392 C376 0.931 . S
H393 C381 0.929 . S
H394 C382 0.960 . S
H395 C382 0.962 . S
H396 C382 0.960 . S
H397 C383 0.961 . S
H398 C383 0.961 . S
H399 C383 0.961 . S
H400 C384 0.931 . S
H401 C389 0.930 . S
H402 C390 0.956 . S
H403 C390 0.961 . S
H404 C390 0.961 . S
H405 C391 0.958 . S
H406 C391 0.961 . S
H407 C391 0.960 . S
C408 C409 1.391 . S
C408 C410 1.394 1_455 S
C408 H424 0.931 . S
C409 C408 1.391 . S
C409 C413 1.376 . S
C410 C408 1.394 1_655 S
C410 C411 1.369 . S
C410 C414 1.531 . S
C411 C410 1.369 . S
C411 C412 1.410 . S
C411 C419 1.503 . S
C412 C411 1.410 . S
C412 C413 1.392 1_655 S
C412 C415 1.511 . S
C413 C409 1.376 . S
C413 C412 1.392 1_455 S
C413 H425 0.929 . S
C414 C410 1.531 . S
C414 H426 0.960 . S
C414 H427 0.962 . S
C414 H428 0.960 . S
C415 C412 1.511 . S
C415 H429 0.961 . S
C415 H430 0.961 . S
C415 H431 0.961 . S
C416 C417 1.370 . S
C416 C418 1.363 . S
C416 H432 0.931 . S
C417 C416 1.370 . S
C417 C421 1.408 . S
C418 C416 1.363 . S
C418 C419 1.370 . S
C418 C422 1.524 . S
C419 C411 1.503 . S
C419 C418 1.370 . S
C419 C420 1.403 . S
C420 C419 1.403 . S
C420 C421 1.404 . S
C420 C423 1.539 . S
C421 C417 1.408 . S
C421 C420 1.404 . S
C421 H433 0.930 . S
C422 C418 1.524 . S
C422 H434 0.956 . S
C422 H435 0.961 . S
C422 H436 0.961 . S
C423 C420 1.539 . S
C423 H437 0.958 . S
C423 H438 0.961 . S
C423 H439 0.960 . S
H424 C408 0.931 . S
H425 C413 0.929 . S
H426 C414 0.960 . S
H427 C414 0.962 . S
H428 C414 0.960 . S
H429 C415 0.961 . S
H430 C415 0.961 . S
H431 C415 0.961 . S
H432 C416 0.931 . S
H433 C421 0.930 . S
H434 C422 0.956 . S
H435 C422 0.961 . S
H436 C422 0.961 . S
H437 C423 0.958 . S
H438 C423 0.961 . S
H439 C423 0.960 . S
C440 C441 1.391 . S
C440 C442 1.394 . S
C440 H456 0.931 . S
C441 C440 1.391 . S
C441 C445 1.376 . S
C442 C440 1.394 . S
C442 C443 1.369 1_545 S
C442 C446 1.531 . S
C443 C442 1.369 1_565 S
C443 C444 1.410 . S
C443 C451 1.503 . S
C444 C443 1.410 . S
C444 C445 1.392 1_565 S
C444 C447 1.511 . S
C445 C441 1.376 . S
C445 C444 1.392 1_545 S
C445 H457 0.929 . S
C446 C442 1.531 . S
C446 H458 0.960 1_545 S
C446 H459 0.962 1_545 S
C446 H460 0.960 . S
C447 C444 1.511 . S
C447 H461 0.961 . S
C447 H462 0.961 . S
C447 H463 0.961 . S
C448 C449 1.370 . S
C448 C450 1.363 . S
C448 H464 0.931 . S
C449 C448 1.370 . S
C449 C453 1.408 . S
C450 C448 1.363 . S
C450 C451 1.370 . S
C450 C454 1.524 . S
C451 C443 1.503 . S
C451 C450 1.370 . S
C451 C452 1.403 . S
C452 C451 1.403 . S
C452 C453 1.404 . S
C452 C455 1.539 . S
C453 C449 1.408 . S
C453 C452 1.404 . S
C453 H465 0.930 . S
C454 C450 1.524 . S
C454 H466 0.956 . S
C454 H467 0.961 . S
C454 H468 0.961 . S
C455 C452 1.539 . S
C455 H469 0.958 1_565 S
C455 H470 0.961 . S
C455 H471 0.960 1_565 S
H456 C440 0.931 . S
H457 C445 0.929 . S
H458 C446 0.960 1_565 S
H459 C446 0.962 1_565 S
H460 C446 0.960 . S
H461 C447 0.961 . S
H462 C447 0.961 . S
H463 C447 0.961 . S
H464 C448 0.931 . S
H465 C453 0.930 . S
H466 C454 0.956 . S
H467 C454 0.961 . S
H468 C454 0.961 . S
H469 C455 0.958 1_545 S
H470 C455 0.961 . S
H471 C455 0.960 1_545 S
C472 C473 1.391 . S
C472 C474 1.394 . S
C472 H488 0.931 . S
C473 C472 1.391 . S
C473 C477 1.376 . S
C474 C472 1.394 . S
C474 C475 1.369 . S
C474 C478 1.531 . S
C475 C474 1.369 . S
C475 C476 1.410 . S
C475 C483 1.503 . S
C476 C475 1.410 . S
C476 C477 1.392 . S
C476 C479 1.511 . S
C477 C473 1.376 . S
C477 C476 1.392 . S
C477 H489 0.929 . S
C478 C474 1.531 . S
C478 H490 0.960 . S
C478 H491 0.962 . S
C478 H492 0.960 . S
C479 C476 1.511 . S
C479 H493 0.961 . S
C479 H494 0.961 . S
C479 H495 0.961 . S
C480 C481 1.370 . S
C480 C482 1.363 . S
C480 H496 0.931 . S
C481 C480 1.370 . S
C481 C485 1.408 . S
C482 C480 1.363 . S
C482 C483 1.370 . S
C482 C486 1.524 . S
C483 C475 1.503 . S
C483 C482 1.370 . S
C483 C484 1.403 . S
C484 C483 1.403 . S
C484 C485 1.404 . S
C484 C487 1.539 . S
C485 C481 1.408 . S
C485 C484 1.404 . S
C485 H497 0.930 . S
C486 C482 1.524 . S
C486 H498 0.956 . S
C486 H499 0.961 . S
C486 H500 0.961 . S
C487 C484 1.539 . S
C487 H501 0.958 . S
C487 H502 0.961 . S
C487 H503 0.960 . S
H488 C472 0.931 . S
H489 C477 0.929 . S
H490 C478 0.960 . S
H491 C478 0.962 . S
H492 C478 0.960 . S
H493 C479 0.961 . S
H494 C479 0.961 . S
H495 C479 0.961 . S
H496 C480 0.931 . S
H497 C485 0.930 . S
H498 C486 0.956 . S
H499 C486 0.961 . S
H500 C486 0.961 . S
H501 C487 0.958 . S
H502 C487 0.961 . S
H503 C487 0.960 . S
C504 C505 1.391 . S
C504 C506 1.394 . S
C504 H520 0.931 . S
C505 C504 1.391 . S
C505 C509 1.376 . S
C506 C504 1.394 . S
C506 C507 1.369 1_565 S
C506 C510 1.531 . S
C507 C506 1.369 1_545 S
C507 C508 1.409 1_545 S
C507 C515 1.503 . S
C508 C507 1.409 1_565 S
C508 C509 1.395 . S
C508 C511 1.509 1_565 S
C509 C505 1.376 . S
C509 C508 1.395 . S
C509 H521 0.929 . S
C510 C506 1.531 . S
C510 H522 0.960 . S
C510 H523 0.962 1_565 S
C510 H524 0.960 . S
C511 C508 1.509 1_545 S
C511 H525 0.961 . S
C511 H526 0.961 . S
C511 H527 0.961 . S
C512 C513 1.370 . S
C512 C514 1.363 . S
C512 H528 0.931 . S
C513 C512 1.370 . S
C513 C517 1.408 . S
C514 C512 1.363 . S
C514 C515 1.370 . S
C514 C518 1.524 . S
C515 C507 1.503 . S
C515 C514 1.370 . S
C515 C516 1.403 . S
C516 C515 1.403 . S
C516 C517 1.404 . S
C516 C519 1.539 1_545 S
C517 C513 1.408 . S
C517 C516 1.404 . S
C517 H529 0.930 . S
C518 C514 1.524 . S
C518 H530 0.956 . S
C518 H531 0.961 . S
C518 H532 0.961 . S
C519 C516 1.539 1_565 S
C519 H533 0.958 . S
C519 H534 0.961 . S
C519 H535 0.960 . S
H520 C504 0.931 . S
H521 C509 0.929 . S
H522 C510 0.960 . S
H523 C510 0.962 1_545 S
H524 C510 0.960 . S
H525 C511 0.961 . S
H526 C511 0.961 . S
H527 C511 0.961 . S
H528 C512 0.931 . S
H529 C517 0.930 . S
H530 C518 0.956 . S
H531 C518 0.961 . S
H532 C518 0.961 . S
H533 C519 0.958 . S
H534 C519 0.961 . S
H535 C519 0.960 . S
C536 C537 1.391 . S
C536 C538 1.394 . S
C536 H552 0.931 . S
C537 C536 1.391 . S
C537 C541 1.376 . S
C538 C536 1.394 . S
C538 C539 1.369 . S
C538 C542 1.531 . S
C539 C538 1.369 . S
C539 C540 1.410 . S
C539 C547 1.503 . S
C540 C539 1.410 . S
C540 C541 1.392 . S
C540 C543 1.511 . S
C541 C537 1.376 . S
C541 C540 1.392 . S
C541 H553 0.929 . S
C542 C538 1.531 . S
C542 H554 0.960 . S
C542 H555 0.962 . S
C542 H556 0.960 . S
C543 C540 1.511 . S
C543 H557 0.961 . S
C543 H558 0.961 . S
C543 H559 0.961 . S
C544 C545 1.370 . S
C544 C546 1.363 . S
C544 H560 0.931 . S
C545 C544 1.370 . S
C545 C549 1.408 . S
C546 C544 1.363 . S
C546 C547 1.370 . S
C546 C550 1.524 . S
C547 C539 1.503 . S
C547 C546 1.370 . S
C547 C548 1.403 . S
C548 C547 1.403 . S
C548 C549 1.404 . S
C548 C551 1.539 . S
C549 C545 1.408 . S
C549 C548 1.404 . S
C549 H561 0.930 . S
C550 C546 1.524 . S
C550 H562 0.956 . S
C550 H563 0.961 . S
C550 H564 0.961 . S
C551 C548 1.539 . S
C551 H565 0.958 . S
C551 H566 0.961 . S
C551 H567 0.960 . S
H552 C536 0.931 . S
H553 C541 0.929 . S
H554 C542 0.960 . S
H555 C542 0.962 . S
H556 C542 0.960 . S
H557 C543 0.961 . S
H558 C543 0.961 . S
H559 C543 0.961 . S
H560 C544 0.931 . S
H561 C549 0.930 . S
H562 C550 0.956 . S
H563 C550 0.961 . S
H564 C550 0.961 . S
H565 C551 0.958 . S
H566 C551 0.961 . S
H567 C551 0.960 . S
C568 C569 1.391 . S
C568 C570 1.394 . S
C568 H584 0.931 . S
C569 C568 1.391 . S
C569 C573 1.376 . S
C570 C568 1.394 . S
C570 C571 1.369 . S
C570 C574 1.531 . S
C571 C570 1.369 . S
C571 C572 1.410 . S
C571 C579 1.503 . S
C572 C571 1.410 . S
C572 C573 1.392 . S
C572 C575 1.511 . S
C573 C569 1.376 . S
C573 C572 1.392 . S
C573 H585 0.929 . S
C574 C570 1.531 . S
C574 H586 0.960 . S
C574 H587 0.962 . S
C574 H588 0.960 . S
C575 C572 1.511 . S
C575 H589 0.961 . S
C575 H590 0.961 . S
C575 H591 0.961 . S
C576 C577 1.370 . S
C576 C578 1.363 . S
C576 H592 0.931 . S
C577 C576 1.370 . S
C577 C581 1.408 . S
C578 C576 1.363 . S
C578 C579 1.370 . S
C578 C582 1.524 . S
C579 C571 1.503 . S
C579 C578 1.370 . S
C579 C580 1.403 . S
C580 C579 1.403 . S
C580 C581 1.404 . S
C580 C583 1.539 . S
C581 C577 1.408 . S
C581 C580 1.404 . S
C581 H593 0.930 . S
C582 C578 1.524 . S
C582 H594 0.956 . S
C582 H595 0.961 . S
C582 H596 0.961 . S
C583 C580 1.539 . S
C583 H597 0.958 . S
C583 H598 0.961 . S
C583 H599 0.960 . S
H584 C568 0.931 . S
H585 C573 0.929 . S
H586 C574 0.960 . S
H587 C574 0.962 . S
H588 C574 0.960 . S
H589 C575 0.961 . S
H590 C575 0.961 . S
H591 C575 0.961 . S
H592 C576 0.931 . S
H593 C581 0.930 . S
H594 C582 0.956 . S
H595 C582 0.961 . S
H596 C582 0.961 . S
H597 C583 0.958 . S
H598 C583 0.961 . S
H599 C583 0.960 . S
C600 C601 1.391 . S
C600 C602 1.394 . S
C600 H616 0.931 . S
C601 C600 1.391 . S
C601 C605 1.376 . S
C602 C600 1.394 . S
C602 C603 1.369 . S
C602 C606 1.531 1_455 S
C603 C602 1.369 . S
C603 C604 1.410 . S
C603 C611 1.503 . S
C604 C603 1.410 . S
C604 C605 1.392 . S
C604 C607 1.511 . S
C605 C601 1.376 . S
C605 C604 1.392 . S
C605 H617 0.929 . S
C606 C602 1.531 1_655 S
C606 H618 0.960 . S
C606 H619 0.962 . S
C606 H620 0.960 . S
C607 C604 1.511 . S
C607 H621 0.961 . S
C607 H622 0.961 . S
C607 H623 0.961 . S
C608 C609 1.370 . S
C608 C610 1.363 . S
C608 H624 0.931 . S
C609 C608 1.370 . S
C609 C613 1.408 . S
C610 C608 1.363 . S
C610 C611 1.370 1_655 S
C610 C614 1.524 1_655 S
C611 C603 1.503 . S
C611 C610 1.370 1_455 S
C611 C612 1.403 . S
C612 C611 1.403 . S
C612 C613 1.404 1_455 S
C612 C615 1.539 . S
C613 C609 1.408 . S
C613 C612 1.404 1_655 S
C613 H625 0.930 . S
C614 C610 1.524 1_455 S
C614 H626 0.956 1_455 S
C614 H627 0.961 . S
C614 H628 0.961 1_455 S
C615 C612 1.539 . S
C615 H629 0.958 . S
C615 H630 0.961 . S
C615 H631 0.960 . S
H616 C600 0.931 . S
H617 C605 0.929 . S
H618 C606 0.960 . S
H619 C606 0.962 . S
H620 C606 0.960 . S
H621 C607 0.961 . S
H622 C607 0.961 . S
H623 C607 0.961 . S
H624 C608 0.931 . S
H625 C613 0.930 . S
H626 C614 0.956 1_655 S
H627 C614 0.961 . S
H628 C614 0.961 1_655 S
H629 C615 0.958 . S
H630 C615 0.961 . S
H631 C615 0.960 . S
C632 C633 1.391 . S
C632 C634 1.394 . S
C632 H648 0.931 . S
C633 C632 1.391 . S
C633 C637 1.376 . S
C634 C632 1.394 . S
C634 C635 1.369 . S
C634 C638 1.531 . S
C635 C634 1.369 . S
C635 C636 1.410 . S
C635 C643 1.503 . S
C636 C635 1.410 . S
C636 C637 1.392 . S
C636 C639 1.511 . S
C637 C633 1.376 . S
C637 C636 1.392 . S
C637 H649 0.929 . S
C638 C634 1.531 . S
C638 H650 0.960 . S
C638 H651 0.962 . S
C638 H652 0.960 . S
C639 C636 1.511 . S
C639 H653 0.961 . S
C639 H654 0.961 . S
C639 H655 0.961 . S
C640 C641 1.370 . S
C640 C642 1.363 . S
C640 H656 0.931 . S
C641 C640 1.370 . S
C641 C645 1.408 . S
C642 C640 1.363 . S
C642 C643 1.370 . S
C642 C646 1.524 . S
C643 C635 1.503 . S
C643 C642 1.370 . S
C643 C644 1.403 . S
C644 C643 1.403 . S
C644 C645 1.404 . S
C644 C647 1.539 . S
C645 C641 1.408 . S
C645 C644 1.404 . S
C645 H657 0.930 . S
C646 C642 1.524 . S
C646 H658 0.956 . S
C646 H659 0.961 . S
C646 H660 0.961 . S
C647 C644 1.539 . S
C647 H661 0.958 . S
C647 H662 0.961 . S
C647 H663 0.960 . S
H648 C632 0.931 . S
H649 C637 0.929 . S
H650 C638 0.960 . S
H651 C638 0.962 . S
H652 C638 0.960 . S
H653 C639 0.961 . S
H654 C639 0.961 . S
H655 C639 0.961 . S
H656 C640 0.931 . S
H657 C645 0.930 . S
H658 C646 0.956 . S
H659 C646 0.961 . S
H660 C646 0.961 . S
H661 C647 0.958 . S
H662 C647 0.961 . S
H663 C647 0.960 . S
C664 C665 1.391 . S
C664 C666 1.394 . S
C664 H680 0.931 . S
C665 C664 1.391 . S
C665 C669 1.376 . S
C666 C664 1.394 . S
C666 C667 1.369 1_655 S
C666 C670 1.528 1_655 S
C667 C666 1.369 1_455 S
C667 C668 1.410 . S
C667 C675 1.503 . S
C668 C667 1.410 . S
C668 C669 1.392 1_455 S
C668 C671 1.511 . S
C669 C665 1.376 . S
C669 C668 1.392 1_655 S
C669 H681 0.929 . S
C670 C666 1.528 1_455 S
C670 H682 0.972 . S
C670 H683 0.967 . S
C670 H684 0.946 1_455 S
C671 C668 1.511 . S
C671 H685 0.961 . S
C671 H686 0.961 . S
C671 H687 0.961 . S
C672 C673 1.370 . S
C672 C674 1.363 . S
C672 H688 0.931 . S
C673 C672 1.370 . S
C673 C677 1.408 . S
C674 C672 1.363 . S
C674 C675 1.370 . S
C674 C678 1.524 . S
C675 C667 1.503 . S
C675 C674 1.370 . S
C675 C676 1.403 . S
C676 C675 1.403 . S
C676 C677 1.404 . S
C676 C679 1.539 . S
C677 C673 1.408 . S
C677 C676 1.404 . S
C677 H689 0.930 . S
C678 C674 1.524 . S
C678 H690 0.956 . S
C678 H691 0.961 . S
C678 H692 0.961 . S
C679 C676 1.539 . S
C679 H693 0.958 . S
C679 H694 0.961 . S
C679 H695 0.960 . S
H680 C664 0.931 . S
H681 C669 0.929 . S
H682 C670 0.972 . S
H683 C670 0.967 . S
H684 C670 0.946 1_655 S
H685 C671 0.961 . S
H686 C671 0.961 . S
H687 C671 0.961 . S
H688 C672 0.931 . S
H689 C677 0.930 . S
H690 C678 0.956 . S
H691 C678 0.961 . S
H692 C678 0.961 . S
H693 C679 0.958 . S
H694 C679 0.961 . S
H695 C679 0.960 . S
C696 C697 1.391 . S
C696 C698 1.394 . S
C696 H712 0.931 . S
C697 C696 1.391 . S
C697 C701 1.376 . S
C698 C696 1.394 . S
C698 C699 1.369 . S
C698 C702 1.531 . S
C699 C698 1.369 . S
C699 C700 1.410 . S
C699 C707 1.503 . S
C700 C699 1.410 . S
C700 C701 1.392 . S
C700 C703 1.511 . S
C701 C697 1.376 . S
C701 C700 1.392 . S
C701 H713 0.929 . S
C702 C698 1.531 . S
C702 H714 0.960 . S
C702 H715 0.962 . S
C702 H716 0.960 . S
C703 C700 1.511 . S
C703 H717 0.961 . S
C703 H718 0.961 . S
C703 H719 0.961 . S
C704 C705 1.370 . S
C704 C706 1.363 . S
C704 H720 0.931 . S
C705 C704 1.370 . S
C705 C709 1.408 . S
C706 C704 1.363 . S
C706 C707 1.370 . S
C706 C710 1.524 . S
C707 C699 1.503 . S
C707 C706 1.370 . S
C707 C708 1.403 . S
C708 C707 1.403 . S
C708 C709 1.404 . S
C708 C711 1.539 . S
C709 C705 1.408 . S
C709 C708 1.404 . S
C709 H721 0.930 . S
C710 C706 1.524 . S
C710 H722 0.956 . S
C710 H723 0.961 . S
C710 H724 0.961 . S
C711 C708 1.539 . S
C711 H725 0.958 . S
C711 H726 0.961 . S
C711 H727 0.960 . S
H712 C696 0.931 . S
H713 C701 0.929 . S
H714 C702 0.960 . S
H715 C702 0.962 . S
H716 C702 0.960 . S
H717 C703 0.961 . S
H718 C703 0.961 . S
H719 C703 0.961 . S
H720 C704 0.931 . S
H721 C709 0.930 . S
H722 C710 0.956 . S
H723 C710 0.961 . S
H724 C710 0.961 . S
H725 C711 0.958 . S
H726 C711 0.961 . S
H727 C711 0.960 . S
C728 C729 1.391 . S
C728 C730 1.394 . S
C728 H744 0.931 . S
C729 C728 1.391 . S
C729 C733 1.376 . S
C730 C728 1.394 . S
C730 C731 1.369 . S
C730 C734 1.531 . S
C731 C730 1.369 . S
C731 C732 1.410 . S
C731 C739 1.503 . S
C732 C731 1.410 . S
C732 C733 1.392 . S
C732 C735 1.511 . S
C733 C729 1.376 . S
C733 C732 1.392 . S
C733 H745 0.929 . S
C734 C730 1.531 . S
C734 H746 0.960 . S
C734 H747 0.962 . S
C734 H748 0.960 . S
C735 C732 1.511 . S
C735 H749 0.961 . S
C735 H750 0.961 . S
C735 H751 0.961 . S
C736 C737 1.370 . S
C736 C738 1.363 . S
C736 H752 0.931 . S
C737 C736 1.370 . S
C737 C741 1.408 . S
C738 C736 1.363 . S
C738 C739 1.370 . S
C738 C742 1.524 . S
C739 C731 1.503 . S
C739 C738 1.370 . S
C739 C740 1.403 . S
C740 C739 1.403 . S
C740 C741 1.404 . S
C740 C743 1.539 . S
C741 C737 1.408 . S
C741 C740 1.404 . S
C741 H753 0.930 . S
C742 C738 1.524 . S
C742 H754 0.956 . S
C742 H755 0.961 . S
C742 H756 0.961 . S
C743 C740 1.539 . S
C743 H757 0.958 . S
C743 H758 0.961 . S
C743 H759 0.960 . S
H744 C728 0.931 . S
H745 C733 0.929 . S
H746 C734 0.960 . S
H747 C734 0.962 . S
H748 C734 0.960 . S
H749 C735 0.961 . S
H750 C735 0.961 . S
H751 C735 0.961 . S
H752 C736 0.931 . S
H753 C741 0.930 . S
H754 C742 0.956 . S
H755 C742 0.961 . S
H756 C742 0.961 . S
H757 C743 0.958 . S
H758 C743 0.961 . S
H759 C743 0.960 . S
C760 C761 1.391 . S
C760 C762 1.394 . S
C760 H776 0.931 . S
C761 C760 1.391 . S
C761 C765 1.376 . S
C762 C760 1.394 . S
C762 C763 1.369 . S
C762 C766 1.531 . S
C763 C762 1.369 . S
C763 C764 1.410 . S
C763 C771 1.503 . S
C764 C763 1.410 . S
C764 C765 1.392 . S
C764 C767 1.511 . S
C765 C761 1.376 . S
C765 C764 1.392 . S
C765 H777 0.929 . S
C766 C762 1.531 . S
C766 H778 0.960 . S
C766 H779 0.962 . S
C766 H780 0.960 . S
C767 C764 1.511 . S
C767 H781 0.961 . S
C767 H782 0.961 . S
C767 H783 0.961 . S
C768 C769 1.370 . S
C768 C770 1.363 . S
C768 H784 0.931 . S
C769 C768 1.370 . S
C769 C773 1.408 . S
C770 C768 1.363 . S
C770 C771 1.370 . S
C770 C774 1.524 . S
C771 C763 1.503 . S
C771 C770 1.370 . S
C771 C772 1.403 . S
C772 C771 1.403 . S
C772 C773 1.404 . S
C772 C775 1.539 . S
C773 C769 1.408 . S
C773 C772 1.404 . S
C773 H785 0.930 . S
C774 C770 1.524 . S
C774 H786 0.956 . S
C774 H787 0.961 . S
C774 H788 0.961 . S
C775 C772 1.539 . S
C775 H789 0.958 . S
C775 H790 0.961 . S
C775 H791 0.960 . S
H776 C760 0.931 . S
H777 C765 0.929 . S
H778 C766 0.960 . S
H779 C766 0.962 . S
H780 C766 0.960 . S
H781 C767 0.961 . S
H782 C767 0.961 . S
H783 C767 0.961 . S
H784 C768 0.931 . S
H785 C773 0.930 . S
H786 C774 0.956 . S
H787 C774 0.961 . S
H788 C774 0.961 . S
H789 C775 0.958 . S
H790 C775 0.961 . S
H791 C775 0.960 . S
C792 C793 1.391 . S
C792 C794 1.394 . S
C792 H808 0.931 . S
C793 C792 1.391 . S
C793 C797 1.376 . S
C794 C792 1.394 . S
C794 C795 1.369 . S
C794 C798 1.531 . S
C795 C794 1.369 . S
C795 C796 1.410 . S
C795 C803 1.503 . S
C796 C795 1.410 . S
C796 C797 1.392 . S
C796 C799 1.511 . S
C797 C793 1.376 . S
C797 C796 1.392 . S
C797 H809 0.929 . S
C798 C794 1.531 . S
C798 H810 0.960 . S
C798 H811 0.962 . S
C798 H812 0.960 . S
C799 C796 1.511 . S
C799 H813 0.961 . S
C799 H814 0.961 . S
C799 H815 0.961 . S
C800 C801 1.370 . S
C800 C802 1.363 . S
C800 H816 0.931 . S
C801 C800 1.370 . S
C801 C805 1.408 . S
C802 C800 1.363 . S
C802 C803 1.370 . S
C802 C806 1.524 . S
C803 C795 1.503 . S
C803 C802 1.370 . S
C803 C804 1.403 . S
C804 C803 1.403 . S
C804 C805 1.404 . S
C804 C807 1.539 . S
C805 C801 1.408 . S
C805 C804 1.404 . S
C805 H817 0.930 . S
C806 C802 1.524 . S
C806 H818 0.956 . S
C806 H819 0.961 . S
C806 H820 0.961 . S
C807 C804 1.539 . S
C807 H821 0.958 . S
C807 H822 0.961 . S
C807 H823 0.960 . S
H808 C792 0.931 . S
H809 C797 0.929 . S
H810 C798 0.960 . S
H811 C798 0.962 . S
H812 C798 0.960 . S
H813 C799 0.961 . S
H814 C799 0.961 . S
H815 C799 0.961 . S
H816 C800 0.931 . S
H817 C805 0.930 . S
H818 C806 0.956 . S
H819 C806 0.961 . S
H820 C806 0.961 . S
H821 C807 0.958 . S
H822 C807 0.961 . S
H823 C807 0.960 . S
C824 C825 1.391 . S
C824 C826 1.394 . S
C824 H840 0.931 . S
C825 C824 1.391 . S
C825 C829 1.376 . S
C826 C824 1.394 . S
C826 C827 1.369 . S
C826 C830 1.531 . S
C827 C826 1.369 . S
C827 C828 1.410 . S
C827 C835 1.503 . S
C828 C827 1.410 . S
C828 C829 1.392 . S
C828 C831 1.511 . S
C829 C825 1.376 . S
C829 C828 1.392 . S
C829 H841 0.929 . S
C830 C826 1.531 . S
C830 H842 0.960 . S
C830 H843 0.962 . S
C830 H844 0.960 . S
C831 C828 1.511 . S
C831 H845 0.961 . S
C831 H846 0.961 . S
C831 H847 0.961 . S
C832 C833 1.370 . S
C832 C834 1.363 . S
C832 H848 0.931 . S
C833 C832 1.370 . S
C833 C837 1.408 . S
C834 C832 1.363 . S
C834 C835 1.370 . S
C834 C838 1.524 . S
C835 C827 1.503 . S
C835 C834 1.370 . S
C835 C836 1.403 . S
C836 C835 1.403 . S
C836 C837 1.404 . S
C836 C839 1.539 . S
C837 C833 1.408 . S
C837 C836 1.404 . S
C837 H849 0.930 . S
C838 C834 1.524 . S
C838 H850 0.956 . S
C838 H851 0.961 . S
C838 H852 0.961 . S
C839 C836 1.539 . S
C839 H853 0.958 . S
C839 H854 0.961 . S
C839 H855 0.960 . S
H840 C824 0.931 . S
H841 C829 0.929 . S
H842 C830 0.960 . S
H843 C830 0.962 . S
H844 C830 0.960 . S
H845 C831 0.961 . S
H846 C831 0.961 . S
H847 C831 0.961 . S
H848 C832 0.931 . S
H849 C837 0.930 . S
H850 C838 0.956 . S
H851 C838 0.961 . S
H852 C838 0.961 . S
H853 C839 0.958 . S
H854 C839 0.961 . S
H855 C839 0.960 . S
C856 C857 1.391 . S
C856 C858 1.394 . S
C856 H872 0.931 . S
C857 C856 1.391 . S
C857 C861 1.376 . S
C858 C856 1.394 . S
C858 C859 1.369 . S
C858 C862 1.531 . S
C859 C858 1.369 . S
C859 C860 1.410 . S
C859 C867 1.503 . S
C860 C859 1.410 . S
C860 C861 1.392 . S
C860 C863 1.511 . S
C861 C857 1.376 . S
C861 C860 1.392 . S
C861 H873 0.929 1_556 S
C862 C858 1.531 . S
C862 H874 0.960 . S
C862 H875 0.962 . S
C862 H876 0.960 . S
C863 C860 1.511 . S
C863 H877 0.961 1_556 S
C863 H878 0.961 . S
C863 H879 0.961 . S
C864 C865 1.370 . S
C864 C866 1.363 . S
C864 H880 0.931 . S
C865 C864 1.370 . S
C865 C869 1.408 . S
C866 C864 1.363 . S
C866 C867 1.370 . S
C866 C870 1.524 . S
C867 C859 1.503 . S
C867 C866 1.370 . S
C867 C868 1.403 . S
C868 C867 1.403 . S
C868 C869 1.404 . S
C868 C871 1.539 . S
C869 C865 1.408 . S
C869 C868 1.404 . S
C869 H881 0.930 . S
C870 C866 1.524 . S
C870 H882 0.956 . S
C870 H883 0.961 . S
C870 H884 0.961 . S
C871 C868 1.539 . S
C871 H885 0.958 . S
C871 H886 0.961 . S
C871 H887 0.960 . S
H872 C856 0.931 . S
H873 C861 0.929 1_554 S
H874 C862 0.960 . S
H875 C862 0.962 . S
H876 C862 0.960 . S
H877 C863 0.961 1_554 S
H878 C863 0.961 . S
H879 C863 0.961 . S
H880 C864 0.931 . S
H881 C869 0.930 . S
H882 C870 0.956 . S
H883 C870 0.961 . S
H884 C870 0.961 . S
H885 C871 0.958 . S
H886 C871 0.961 . S
H887 C871 0.960 . S
C888 C889 1.391 . S
C888 C890 1.394 . S
C888 H904 0.931 . S
C889 C888 1.391 . S
C889 C893 1.376 . S
C890 C888 1.394 . S
C890 C891 1.369 . S
C890 C894 1.531 . S
C891 C890 1.369 . S
C891 C892 1.410 . S
C891 C899 1.503 . S
C892 C891 1.410 . S
C892 C893 1.392 . S
C892 C895 1.511 . S
C893 C889 1.376 . S
C893 C892 1.392 . S
C893 H905 0.929 . S
C894 C890 1.531 . S
C894 H906 0.960 . S
C894 H907 0.962 . S
C894 H908 0.960 . S
C895 C892 1.511 . S
C895 H909 0.961 . S
C895 H910 0.961 . S
C895 H911 0.961 . S
C896 C897 1.370 . S
C896 C898 1.363 . S
C896 H912 0.931 . S
C897 C896 1.370 . S
C897 C901 1.408 . S
C898 C896 1.363 . S
C898 C899 1.370 . S
C898 C902 1.524 . S
C899 C891 1.503 . S
C899 C898 1.370 . S
C899 C900 1.403 . S
C900 C899 1.403 . S
C900 C901 1.404 . S
C900 C903 1.539 . S
C901 C897 1.408 . S
C901 C900 1.404 . S
C901 H913 0.930 . S
C902 C898 1.524 . S
C902 H914 0.956 . S
C902 H915 0.961 . S
C902 H916 0.961 . S
C903 C900 1.539 . S
C903 H917 0.958 . S
C903 H918 0.961 . S
C903 H919 0.960 . S
H904 C888 0.931 . S
H905 C893 0.929 . S
H906 C894 0.960 . S
H907 C894 0.962 . S
H908 C894 0.960 . S
H909 C895 0.961 . S
H910 C895 0.961 . S
H911 C895 0.961 . S
H912 C896 0.931 . S
H913 C901 0.930 . S
H914 C902 0.956 . S
H915 C902 0.961 . S
H916 C902 0.961 . S
H917 C903 0.958 . S
H918 C903 0.961 . S
H919 C903 0.960 . S
C920 C921 1.391 . S
C920 C922 1.394 . S
C920 H936 0.931 . S
C921 C920 1.391 . S
C921 C925 1.376 . S
C922 C920 1.394 . S
C922 C923 1.369 . S
C922 C926 1.531 . S
C923 C922 1.369 . S
C923 C924 1.410 . S
C923 C931 1.503 . S
C924 C923 1.410 . S
C924 C925 1.392 . S
C924 C927 1.511 . S
C925 C921 1.376 . S
C925 C924 1.392 . S
C925 H937 0.929 . S
C926 C922 1.531 . S
C926 H938 0.960 . S
C926 H939 0.962 . S
C926 H940 0.960 . S
C927 C924 1.511 . S
C927 H941 0.961 . S
C927 H942 0.961 . S
C927 H943 0.961 . S
C928 C929 1.370 . S
C928 C930 1.363 . S
C928 H944 0.931 . S
C929 C928 1.370 . S
C929 C933 1.408 . S
C930 C928 1.363 . S
C930 C931 1.370 . S
C930 C934 1.524 . S
C931 C923 1.503 . S
C931 C930 1.370 . S
C931 C932 1.403 . S
C932 C931 1.403 . S
C932 C933 1.404 . S
C932 C935 1.539 . S
C933 C929 1.408 . S
C933 C932 1.404 . S
C933 H945 0.930 . S
C934 C930 1.524 . S
C934 H946 0.956 . S
C934 H947 0.961 . S
C934 H948 0.961 . S
C935 C932 1.539 . S
C935 H949 0.958 . S
C935 H950 0.961 . S
C935 H951 0.960 . S
H936 C920 0.931 . S
H937 C925 0.929 . S
H938 C926 0.960 . S
H939 C926 0.962 . S
H940 C926 0.960 . S
H941 C927 0.961 . S
H942 C927 0.961 . S
H943 C927 0.961 . S
H944 C928 0.931 . S
H945 C933 0.930 . S
H946 C934 0.956 . S
H947 C934 0.961 . S
H948 C934 0.961 . S
H949 C935 0.958 . S
H950 C935 0.961 . S
H951 C935 0.960 . S
C185 C8 1.357 . S
C193 C97 1.329 . S
C217 C31 1.438 . S
C225 C109 1.408 . S
C249 C53 1.393 . S
C257 C121 1.358 . S
C289 C130 1.254 . S
C281 C74 1.286 . S
C321 C145 1.310 . S
C313 C26 1.347 . S
C345 C48 1.290 . S
C353 C154 1.257 . S
C377 C71 1.391 . S
C385 C169 1.358 . S
C409 C5 1.388 . S
C417 C181 1.385 . S
C441 C50 1.280 1_556 S
C449 C178 1.247 . S
C481 C142 1.285 . S
C473 C70 1.279 . S
C513 C157 1.340 . S
C505 C4 1.371 . S
C537 C28 1.300 . S
C545 C166 1.253 . S
C577 C106 1.234 . S
C569 C73 1.233 . S
C601 C7 1.298 . S
C609 C118 1.267 . S
C641 C133 1.345 . S
C633 C30 1.376 . S
C673 C94 1.271 . S
C665 C52 1.276 . S
C705 C164 1.373 . S
C697 C9 1.393 . S
C737 C176 1.367 . S
C729 C29 1.380 . S
C761 C51 1.363 . S
C769 C140 1.362 . S
C801 C152 1.358 . S
C793 C75 1.365 . S
C833 C116 1.383 . S
C825 C27 1.400 . S
C857 C49 1.365 1_556 S
C865 C128 1.358 . S
C897 C92 1.367 . S
C889 C72 1.378 . S
C929 C104 1.379 . S
C921 C6 1.388 . S
