# Generated by pormake.
# Topology nom, (4,4)-cn, num edge types: 1
# Building blocks:
#     Node 0, Type 0, BuildingBlock: MIFKUJ_clean_linker_1, # of connection points: 4
#     Node 1, Type 0, BuildingBlock: MIFKUJ_clean_linker_1, # of connection points: 4
#     Node 2, Type 0, BuildingBlock: MIFKUJ_clean_linker_1, # of connection points: 4
#     Node 3, Type 0, BuildingBlock: MIFKUJ_clean_linker_1, # of connection points: 4
#     Node 4, Type 0, BuildingBlock: MIFKUJ_clean_linker_1, # of connection points: 4
#     Node 5, Type 0, BuildingBlock: MIFKUJ_clean_linker_1, # of connection points: 4
#     Node 6, Type 1, BuildingBlock: QUQFOY_clean_sbu_1, # of connection points: 4
#     Node 7, Type 1, BuildingBlock: QUQFOY_clean_sbu_1, # of connection points: 4
#     Node 8, Type 1, BuildingBlock: QUQFOY_clean_sbu_1, # of connection points: 4
#     Node 9, Type 1, BuildingBlock: QUQFOY_clean_sbu_1, # of connection points: 4
#     Node 10, Type 1, BuildingBlock: QUQFOY_clean_sbu_1, # of connection points: 4
#     Node 11, Type 1, BuildingBlock: QUQFOY_clean_sbu_1, # of connection points: 4
#     Edge 12, Type (0, 1), BuildingBlock: MIFKUJ_clean_linker_0, # of connection points: 2
#     Edge 13, Type (0, 1), BuildingBlock: MIFKUJ_clean_linker_0, # of connection points: 2
#     Edge 14, Type (0, 1), BuildingBlock: MIFKUJ_clean_linker_0, # of connection points: 2
#     Edge 15, Type (0, 1), BuildingBlock: MIFKUJ_clean_linker_0, # of connection points: 2
#     Edge 16, Type (0, 1), BuildingBlock: MIFKUJ_clean_linker_0, # of connection points: 2
#     Edge 17, Type (0, 1), BuildingBlock: MIFKUJ_clean_linker_0, # of connection points: 2
#     Edge 18, Type (0, 1), BuildingBlock: MIFKUJ_clean_linker_0, # of connection points: 2
#     Edge 19, Type (0, 1), BuildingBlock: MIFKUJ_clean_linker_0, # of connection points: 2
#     Edge 20, Type (0, 1), BuildingBlock: MIFKUJ_clean_linker_0, # of connection points: 2
#     Edge 21, Type (0, 1), BuildingBlock: MIFKUJ_clean_linker_0, # of connection points: 2
#     Edge 22, Type (0, 1), BuildingBlock: MIFKUJ_clean_linker_0, # of connection points: 2
#     Edge 23, Type (0, 1), BuildingBlock: MIFKUJ_clean_linker_0, # of connection points: 2
#     Edge 24, Type (0, 1), BuildingBlock: MIFKUJ_clean_linker_0, # of connection points: 2
#     Edge 25, Type (0, 1), BuildingBlock: MIFKUJ_clean_linker_0, # of connection points: 2
#     Edge 26, Type (0, 1), BuildingBlock: MIFKUJ_clean_linker_0, # of connection points: 2
#     Edge 27, Type (0, 1), BuildingBlock: MIFKUJ_clean_linker_0, # of connection points: 2
#     Edge 28, Type (0, 1), BuildingBlock: MIFKUJ_clean_linker_0, # of connection points: 2
#     Edge 29, Type (0, 1), BuildingBlock: MIFKUJ_clean_linker_0, # of connection points: 2
#     Edge 30, Type (0, 1), BuildingBlock: MIFKUJ_clean_linker_0, # of connection points: 2
#     Edge 31, Type (0, 1), BuildingBlock: MIFKUJ_clean_linker_0, # of connection points: 2
#     Edge 32, Type (0, 1), BuildingBlock: MIFKUJ_clean_linker_0, # of connection points: 2
#     Edge 33, Type (0, 1), BuildingBlock: MIFKUJ_clean_linker_0, # of connection points: 2
#     Edge 34, Type (0, 1), BuildingBlock: MIFKUJ_clean_linker_0, # of connection points: 2
#     Edge 35, Type (0, 1), BuildingBlock: MIFKUJ_clean_linker_0, # of connection points: 2
# Relax obj value: 0.014
# Max RMSD: 0.112
# Mean RMSD: 0.111
data_MOF--net-nom--node1-QUQFOY_clean_sbu_1--node2-MIFKUJ_clean_linker_1--edge1-MIFKUJ_clean_linker_0
_symmetry_space_group_name_H-M    P1
_symmetry_Int_Tables_number       1
_symmetry_cell_setting            triclinic
loop_
_symmetry_equiv_pos_as_xyz
'x, y, z'
_cell_length_a     69.30111
_cell_length_b     69.295088
_cell_length_c     66.967621
_cell_angle_alpha  89.995684
_cell_angle_beta   90.012653
_cell_angle_gamma 120.0035
loop_
_atom_site_label
_atom_site_type_symbol
_atom_site_fract_x
_atom_site_fract_y
_atom_site_fract_z
_atom_type_partial_charge
H0 H 0.98514 0.48255 0.28785 0.0
H1 H 0.95497 0.46632 0.26326 0.0
H2 H 0.93147 0.51007 0.28381 0.0
H3 H 0.96197 0.52656 0.30802 0.0
H4 H 0.01954 0.52651 0.29261 0.0
H5 H 0.95771 0.4705 0.33282 0.0
H6 H 0.91912 0.45228 0.34438 0.0
H7 H 0.92973 0.51566 0.36616 0.0
H8 H 0.96852 0.53342 0.3553 0.0
H9 H 0.03941 0.56671 0.3707 0.0
H10 H 0.06939 0.58057 0.39539 0.0
H11 H 0.08805 0.53321 0.37405 0.0
H12 H 0.05872 0.52029 0.34889 0.0
H13 H 0.00316 0.52325 0.36511 0.0
H14 H 0.06404 0.57905 0.32901 0.0
H15 H 0.10213 0.60038 0.31648 0.0
H16 H 0.09333 0.54228 0.28464 0.0
H17 H 0.05525 0.5208 0.29769 0.0
C18 C 0.97568 0.50561 0.29985 0.0
C19 C 0.97353 0.48868 0.28698 0.0
C20 C 0.95618 0.47931 0.27307 0.0
C21 C 0.94076 0.48683 0.27168 0.0
C22 C 0.94315 0.50401 0.28443 0.0
C23 C 0.96047 0.51333 0.29837 0.0
C24 C 0.99374 0.51509 0.31495 0.0
C25 C 0.01598 0.5255 0.30848 0.0
C26 C 0.98909 0.51448 0.33558 0.0
C27 C 0.96591 0.50329 0.34319 0.0
C28 C 0.95169 0.48038 0.34021 0.0
C29 C 0.92956 0.47004 0.34671 0.0
C30 C 0.92115 0.48246 0.35617 0.0
C31 C 0.93563 0.50542 0.35927 0.0
C32 C 0.95781 0.51568 0.35299 0.0
C33 C 0.04695 0.54257 0.35794 0.0
C34 C 0.05003 0.55939 0.37138 0.0
C35 C 0.06712 0.56719 0.38556 0.0
C36 C 0.08123 0.55803 0.3868 0.0
C37 C 0.07788 0.54101 0.37334 0.0
C38 C 0.061 0.53346 0.35901 0.0
C39 C 0.02897 0.53435 0.3428 0.0
C40 C 0.00676 0.52419 0.34926 0.0
C41 C 0.03368 0.53548 0.32214 0.0
C42 C 0.05686 0.54825 0.31447 0.0
C43 C 0.07036 0.57082 0.3195 0.0
C44 C 0.09207 0.58306 0.31216 0.0
C45 C 0.10075 0.57304 0.29952 0.0
C46 C 0.08721 0.55041 0.2945 0.0
C47 C 0.06541 0.53817 0.30182 0.0
H48 H 0.42852 0.97319 0.52304 0.0
H49 H 0.40829 0.93523 0.53607 0.0
H50 H 0.45382 0.91988 0.50529 0.0
H51 H 0.47465 0.95823 0.49321 0.0
H52 H 0.47066 0.00626 0.52802 0.0
H53 H 0.42611 0.96135 0.47155 0.0
H54 H 0.41425 0.93054 0.44788 0.0
H55 H 0.48195 0.95952 0.42642 0.0
H56 H 0.49379 0.98972 0.45059 0.0
H57 H 0.52391 0.05619 0.45987 0.0
H58 H 0.54198 0.09436 0.4469 0.0
H59 H 0.49407 0.10564 0.47833 0.0
H60 H 0.4759 0.06742 0.49098 0.0
H61 H 0.48237 0.02132 0.45529 0.0
H62 H 0.52848 0.06379 0.50825 0.0
H63 H 0.54578 0.09367 0.53279 0.0
H64 H 0.48194 0.06961 0.56154 0.0
H65 H 0.46452 0.04024 0.53633 0.0
C66 C 0.45292 0.96851 0.5069 0.0
C67 C 0.43425 0.96169 0.51924 0.0
C68 C 0.42255 0.93988 0.52651 0.0
C69 C 0.42924 0.92435 0.52158 0.0
C70 C 0.44825 0.93138 0.50954 0.0
C71 C 0.46005 0.95326 0.50241 0.0
C72 C 0.46476 0.99154 0.49871 0.0
C73 C 0.47288 0.00954 0.5121 0.0
C74 C 0.46855 0.99586 0.47797 0.0
C75 C 0.46089 0.97769 0.46301 0.0
C76 C 0.4384 0.96097 0.46181 0.0
C77 C 0.43162 0.94346 0.44816 0.0
C78 C 0.44719 0.94246 0.43535 0.0
C79 C 0.4696 0.95953 0.43632 0.0
C80 C 0.47636 0.97695 0.44998 0.0
C81 C 0.49864 0.059 0.47649 0.0
C82 C 0.51725 0.06687 0.46388 0.0
C83 C 0.52766 0.08872 0.45661 0.0
C84 C 0.51948 0.10301 0.46163 0.0
C85 C 0.50066 0.09498 0.47406 0.0
C86 C 0.49036 0.0732 0.48142 0.0
C87 C 0.48787 0.03597 0.48458 0.0
C88 C 0.47998 0.01802 0.4712 0.0
C89 C 0.48478 0.03168 0.50534 0.0
C90 C 0.49513 0.04992 0.52028 0.0
C91 C 0.51812 0.06513 0.51965 0.0
C92 C 0.52805 0.08207 0.53385 0.0
C93 C 0.51527 0.08402 0.54919 0.0
C94 C 0.49222 0.06876 0.54979 0.0
C95 C 0.48227 0.05184 0.5355 0.0
H96 H 0.51391 0.53828 0.69929 0.0
H97 H 0.50031 0.55493 0.72371 0.0
H98 H 0.43285 0.51132 0.70357 0.0
H99 H 0.44652 0.49433 0.67954 0.0
H100 H 0.50486 0.49514 0.6949 0.0
H101 H 0.49347 0.54825 0.6575 0.0
H102 H 0.47117 0.56437 0.64595 0.0
H103 H 0.42722 0.50298 0.61504 0.0
H104 H 0.44884 0.48658 0.62764 0.0
H105 H 0.48282 0.45218 0.61837 0.0
H106 H 0.4982 0.43733 0.59392 0.0
H107 H 0.56484 0.48585 0.61297 0.0
H108 H 0.54919 0.49979 0.63793 0.0
H109 H 0.49036 0.49607 0.62242 0.0
H110 H 0.49639 0.44161 0.66042 0.0
H111 H 0.51404 0.42119 0.67321 0.0
H112 H 0.56453 0.48108 0.70203 0.0
H113 H 0.54695 0.50161 0.6888 0.0
C114 C 0.48126 0.51521 0.68749 0.0
C115 C 0.49618 0.53223 0.70023 0.0
C116 C 0.48841 0.54187 0.71403 0.0
C117 C 0.46551 0.53456 0.71547 0.0
C118 C 0.45055 0.51723 0.70291 0.0
C119 C 0.45835 0.50762 0.68908 0.0
C120 C 0.48974 0.5056 0.67242 0.0
C121 C 0.50197 0.49565 0.67904 0.0
C122 C 0.4853 0.50562 0.65175 0.0
C123 C 0.47261 0.51603 0.64377 0.0
C124 C 0.47889 0.53819 0.64841 0.0
C125 C 0.46626 0.54749 0.64156 0.0
C126 C 0.44725 0.53496 0.62963 0.0
C127 C 0.44144 0.513 0.62452 0.0
C128 C 0.45395 0.50365 0.63154 0.0
C129 C 0.51487 0.47699 0.62998 0.0
C130 C 0.50073 0.45953 0.61725 0.0
C131 C 0.5096 0.45116 0.6032 0.0
C132 C 0.53282 0.46036 0.60138 0.0
C133 C 0.54689 0.478 0.61415 0.0
C134 C 0.538 0.48614 0.62835 0.0
C135 C 0.50555 0.48583 0.64494 0.0
C136 C 0.49326 0.49567 0.6383 0.0
C137 C 0.50961 0.48543 0.66558 0.0
C138 C 0.52047 0.47319 0.67349 0.0
C139 C 0.51136 0.45041 0.66935 0.0
C140 C 0.52135 0.4387 0.67684 0.0
C141 C 0.54066 0.44951 0.68867 0.0
C142 C 0.54979 0.47235 0.6928 0.0
C143 C 0.53969 0.48405 0.68538 0.0
H144 H 0.03509 0.51938 0.78752 0.0
H145 H 0.06469 0.53707 0.76269 0.0
H146 H 0.09239 0.49662 0.78248 0.0
H147 H 0.06267 0.47897 0.80738 0.0
H148 H 0.00304 0.47645 0.79215 0.0
H149 H 0.06689 0.53095 0.82949 0.0
H150 H 0.10532 0.54823 0.84129 0.0
H151 H 0.08976 0.4873 0.87212 0.0
H152 H 0.05172 0.46977 0.85931 0.0
H153 H 0.98146 0.43493 0.86974 0.0
H154 H 0.95113 0.42159 0.89408 0.0
H155 H 0.93525 0.4711 0.87312 0.0
H156 H 0.96485 0.4835 0.84835 0.0
H157 H 0.01889 0.4787 0.86465 0.0
H158 H 0.95733 0.42371 0.82794 0.0
H159 H 0.91913 0.40365 0.81539 0.0
H160 H 0.93012 0.46295 0.78428 0.0
H161 H 0.96825 0.48312 0.79733 0.0
C162 C 0.04674 0.49796 0.79939 0.0
C163 C 0.04748 0.51424 0.78645 0.0
C164 C 0.06438 0.5243 0.77224 0.0
C165 C 0.08089 0.51824 0.7706 0.0
C166 C 0.08009 0.50186 0.78354 0.0
C167 C 0.06309 0.49172 0.79774 0.0
C168 C 0.02878 0.48763 0.81456 0.0
C169 C 0.00654 0.47718 0.80801 0.0
C170 C 0.03335 0.48789 0.83523 0.0
C171 C 0.05649 0.4989 0.84319 0.0
C172 C 0.07183 0.52124 0.83861 0.0
C173 C 0.09376 0.5312 0.8456 0.0
C174 C 0.10075 0.51915 0.85761 0.0
C175 C 0.08514 0.49697 0.8626 0.0
C176 C 0.06328 0.48697 0.85545 0.0
C177 C 0.97527 0.46008 0.85721 0.0
C178 C 0.97136 0.44282 0.87044 0.0
C179 C 0.95407 0.43531 0.8844 0.0
C180 C 0.94061 0.4452 0.88562 0.0
C181 C 0.94485 0.4627 0.8724 0.0
C182 C 0.96191 0.46996 0.8583 0.0
C183 C 0.99333 0.46797 0.8422 0.0
C184 C 0.0155 0.47794 0.84877 0.0
C185 C 0.98877 0.4671 0.82154 0.0
C186 C 0.9656 0.45499 0.81374 0.0
C187 C 0.95146 0.43246 0.81856 0.0
C188 C 0.92969 0.42095 0.81121 0.0
C189 C 0.92158 0.4317 0.79882 0.0
C190 C 0.93578 0.45426 0.79397 0.0
C191 C 0.95762 0.46576 0.80128 0.0
H192 H 0.57031 0.05212 0.02674 0.0
H193 H 0.59074 0.09016 0.03929 0.0
H194 H 0.55105 0.10784 0.0019 0.0
H195 H 0.52968 0.06927 0.99038 0.0
H196 H 0.52866 0.02046 0.02888 0.0
H197 H 0.57787 0.06539 0.97573 0.0
H198 H 0.59249 0.09552 0.95099 0.0
H199 H 0.52882 0.06398 0.92107 0.0
H200 H 0.51382 0.03451 0.94634 0.0
H201 H 0.48072 0.96835 0.95979 0.0
H202 H 0.4646 0.93005 0.94741 0.0
H203 H 0.51207 0.92152 0.98258 0.0
H204 H 0.52826 0.95982 0.99467 0.0
H205 H 0.52321 0.00404 0.95635 0.0
H206 H 0.47338 0.96108 0.00835 0.0
H207 H 0.45631 0.93114 0.03294 0.0
H208 H 0.51921 0.95859 0.06412 0.0
H209 H 0.5364 0.988 0.03898 0.0
C210 C 0.54865 0.05784 0.00737 0.0
C211 C 0.56581 0.06411 0.02141 0.0
C212 C 0.57769 0.086 0.0284 0.0
C213 C 0.57284 0.10227 0.0214 0.0
C214 C 0.55521 0.0958 0.00773 0.0
C215 C 0.54311 0.07377 0.00093 0.0
C216 C 0.53698 0.03471 0.99936 0.0
C217 C 0.5277 0.01692 0.01301 0.0
C218 C 0.53509 0.03002 0.97859 0.0
C219 C 0.54457 0.04787 0.96319 0.0
C220 C 0.56693 0.0651 0.96405 0.0
C221 C 0.57531 0.08224 0.94989 0.0
C222 C 0.5617 0.08202 0.93426 0.0
C223 C 0.53961 0.06444 0.93299 0.0
C224 C 0.53109 0.04761 0.94739 0.0
C225 C 0.50558 0.96688 0.97825 0.0
C226 C 0.48767 0.95822 0.96477 0.0
C227 C 0.47838 0.93631 0.95783 0.0
C228 C 0.48705 0.92277 0.96405 0.0
C229 C 0.50515 0.93159 0.97739 0.0
C230 C 0.51431 0.95342 0.98442 0.0
C231 C 0.51525 0.99001 0.98588 0.0
C232 C 0.52415 0.0077 0.97219 0.0
C233 C 0.51668 0.99467 0.00656 0.0
C234 C 0.50624 0.97665 0.02168 0.0
C235 C 0.48356 0.9605 0.02036 0.0
C236 C 0.47376 0.94352 0.03456 0.0
C237 C 0.48639 0.94243 0.05051 0.0
C238 C 0.50908 0.95873 0.05187 0.0
C239 C 0.51889 0.97568 0.03762 0.0
H240 H 0.53294 0.50954 0.20033 0.0
H241 H 0.54612 0.49212 0.22429 0.0
H242 H 0.61341 0.53342 0.20275 0.0
H243 H 0.60014 0.55117 0.17904 0.0
H244 H 0.54287 0.55254 0.19537 0.0
H245 H 0.55158 0.49762 0.15917 0.0
H246 H 0.57214 0.47985 0.14728 0.0
H247 H 0.61509 0.53881 0.11283 0.0
H248 H 0.59545 0.55704 0.12603 0.0
H249 H 0.56041 0.59372 0.11861 0.0
H250 H 0.5428 0.60651 0.09443 0.0
H251 H 0.47794 0.55416 0.11379 0.0
H252 H 0.49577 0.54247 0.1386 0.0
H253 H 0.55416 0.54859 0.12262 0.0
H254 H 0.54758 0.60399 0.15925 0.0
H255 H 0.52869 0.62333 0.17169 0.0
H256 H 0.48198 0.56399 0.20371 0.0
H257 H 0.50063 0.54449 0.19069 0.0
C258 C 0.56552 0.53152 0.18781 0.0
C259 C 0.55056 0.51497 0.20088 0.0
C260 C 0.55808 0.50487 0.21441 0.0
C261 C 0.58078 0.51124 0.21526 0.0
C262 C 0.59585 0.52822 0.20249 0.0
C263 C 0.58828 0.53828 0.18888 0.0
C264 C 0.55706 0.5412 0.17277 0.0
C265 C 0.54519 0.55149 0.17946 0.0
C266 C 0.56056 0.54027 0.15201 0.0
C267 C 0.57227 0.5289 0.1439 0.0
C268 C 0.56565 0.50686 0.1493 0.0
C269 C 0.57725 0.49656 0.14221 0.0
C270 C 0.59542 0.50787 0.12911 0.0
C271 C 0.60153 0.52971 0.12322 0.0
C272 C 0.59014 0.54011 0.13058 0.0
C273 C 0.52936 0.56725 0.13039 0.0
C274 C 0.5424 0.58511 0.11761 0.0
C275 C 0.53226 0.59229 0.10371 0.0
C276 C 0.50886 0.58141 0.10205 0.0
C277 C 0.49593 0.56332 0.11485 0.0
C278 C 0.50609 0.55644 0.12895 0.0
C279 C 0.53995 0.55972 0.14528 0.0
C280 C 0.55207 0.54975 0.13855 0.0
C281 C 0.53677 0.56095 0.16598 0.0
C282 C 0.52537 0.5727 0.17385 0.0
C283 C 0.53314 0.59507 0.1688 0.0
C284 C 0.52246 0.60618 0.1761 0.0
C285 C 0.50382 0.59521 0.18872 0.0
C286 C 0.49613 0.57283 0.19384 0.0
C287 C 0.50687 0.56172 0.18654 0.0
O288 O 0.61077 0.3806 0.42725 0.0
Cd289 Cd 0.6193 0.36889 0.40244 0.0
Cd290 Cd 0.6591 0.40492 0.40913 0.0
O291 O 0.64497 0.40531 0.43626 0.0
O292 O 0.59511 0.33729 0.39981 0.0
O293 O 0.63011 0.34706 0.40635 0.0
C294 C 0.60968 0.33147 0.40382 0.0
C295 C 0.6942 0.4081 0.40773 0.0
C296 C 0.62414 0.39483 0.43971 0.0
C297 C 0.63474 0.40477 0.37194 0.0
O298 O 0.65031 0.41644 0.38419 0.0
O299 O 0.62122 0.38433 0.3756 0.0
O300 O 0.69184 0.42487 0.41234 0.0
O301 O 0.67644 0.38914 0.40452 0.0
O302 O 0.24838 0.61243 0.60449 0.0
Cd303 Cd 0.26679 0.62011 0.57838 0.0
Cd304 Cd 0.26277 0.65757 0.58236 0.0
O305 O 0.249 0.64417 0.6097 0.0
O306 O 0.27526 0.59657 0.57745 0.0
O307 O 0.30006 0.63238 0.58006 0.0
C308 C 0.29576 0.61197 0.57936 0.0
C309 C 0.28945 0.69532 0.57938 0.0
C310 C 0.24352 0.62454 0.61523 0.0
C311 C 0.24069 0.62775 0.54689 0.0
O312 O 0.24263 0.64361 0.55781 0.0
O313 O 0.2505 0.61702 0.55157 0.0
O314 O 0.26872 0.68882 0.58245 0.0
O315 O 0.29528 0.68029 0.57865 0.0
O316 O 0.64395 0.24271 0.76318 0.0
Cd317 Cd 0.65634 0.26307 0.73857 0.0
Cd318 Cd 0.61998 0.26715 0.7445 0.0
O319 O 0.61853 0.25159 0.77139 0.0
O320 O 0.68803 0.27064 0.73673 0.0
O321 O 0.67795 0.2958 0.74244 0.0
C322 C 0.69367 0.29105 0.74042 0.0
C323 C 0.61462 0.2979 0.74393 0.0
C324 C 0.6291 0.24138 0.77513 0.0
C325 C 0.62156 0.24328 0.70719 0.0
O326 O 0.60989 0.24789 0.71879 0.0
O327 O 0.64162 0.24931 0.71163 0.0
O328 O 0.59836 0.27801 0.74707 0.0
O329 O 0.63432 0.30053 0.74173 0.0
O330 O 0.41632 0.64926 0.93054 0.0
Cd331 Cd 0.40702 0.66032 0.90577 0.0
Cd332 Cd 0.36905 0.6199 0.91055 0.0
O333 O 0.38378 0.61974 0.93742 0.0
O334 O 0.42943 0.69267 0.90455 0.0
O335 O 0.39354 0.68001 0.90951 0.0
C336 C 0.41353 0.69677 0.90793 0.0
C337 C 0.33117 0.60885 0.90955 0.0
C338 C 0.40409 0.63291 0.94184 0.0
C339 C 0.39696 0.62708 0.8735 0.0
O340 O 0.3812 0.61345 0.88471 0.0
O341 O 0.4087 0.64742 0.87852 0.0
O342 O 0.33782 0.59464 0.91192 0.0
O343 O 0.34615 0.62969 0.9084 0.0
O344 O 0.77838 0.37494 0.05625 0.0
Cd345 Cd 0.75735 0.36386 0.08057 0.0
Cd346 Cd 0.75986 0.40394 0.07557 0.0
O347 O 0.77463 0.40387 0.04869 0.0
O348 O 0.74677 0.33137 0.08157 0.0
O349 O 0.7242 0.34477 0.07627 0.0
C350 C 0.72697 0.32773 0.07785 0.0
C351 C 0.73296 0.41488 0.07657 0.0
C352 C 0.78225 0.39101 0.04468 0.0
C353 C 0.78035 0.39694 0.11283 0.0
O354 O 0.77862 0.41063 0.10138 0.0
O355 O 0.77142 0.37651 0.10801 0.0
O356 O 0.75377 0.42909 0.07389 0.0
O357 O 0.72719 0.39408 0.07802 0.0
O358 O 0.408 0.77887 0.21945 0.0
Cd359 Cd 0.40237 0.76059 0.24532 0.0
Cd360 Cd 0.36178 0.75814 0.24249 0.0
O361 O 0.37444 0.77455 0.21577 0.0
O362 O 0.42717 0.75391 0.24604 0.0
O363 O 0.3918 0.72774 0.24318 0.0
C364 C 0.41254 0.73313 0.24394 0.0
C365 C 0.3256 0.72763 0.24378 0.0
C366 C 0.39429 0.78223 0.20957 0.0
C367 C 0.39022 0.78184 0.2783 0.0
O368 O 0.37274 0.77676 0.2683 0.0
O369 O 0.404 0.77609 0.27219 0.0
O370 O 0.32931 0.7477 0.24174 0.0
O371 O 0.34261 0.72473 0.24455 0.0
H372 H 0.12093 0.6154 0.28462 0.0
H373 H 0.1591 0.63781 0.27249 0.0
H374 H 0.17078 0.58319 0.2837 0.0
H375 H 0.13262 0.56077 0.29635 0.0
H376 H 0.20469 0.62251 0.29761 0.0
H377 H 0.16469 0.59594 0.23637 0.0
H378 H 0.13513 0.58819 0.21186 0.0
H379 H 0.15817 0.65818 0.20697 0.0
H380 H 0.18769 0.66635 0.23168 0.0
H381 H 0.31173 0.68366 0.25157 0.0
H382 H 0.27356 0.65363 0.25811 0.0
H383 H 0.24935 0.69939 0.2484 0.0
H384 H 0.28718 0.72923 0.2416 0.0
H385 H 0.22201 0.66005 0.23162 0.0
H386 H 0.25831 0.68619 0.29554 0.0
H387 H 0.28742 0.69469 0.32078 0.0
H388 H 0.2709 0.62613 0.32106 0.0
H389 H 0.24187 0.61729 0.29561 0.0
C390 C 0.13163 0.60816 0.28458 0.0
C391 C 0.12375 0.58631 0.29149 0.0
C392 C 0.15338 0.62092 0.27745 0.0
C393 C 0.16773 0.61209 0.27696 0.0
C394 C 0.15996 0.59029 0.28385 0.0
C395 C 0.13812 0.57746 0.29094 0.0
C396 C 0.19102 0.62602 0.26986 0.0
C397 C 0.20851 0.63035 0.28301 0.0
C398 C 0.19599 0.63657 0.25096 0.0
C399 C 0.17832 0.63174 0.23599 0.0
C400 C 0.16336 0.60967 0.23018 0.0
C401 C 0.14663 0.60521 0.21623 0.0
C402 C 0.14475 0.62268 0.20789 0.0
C403 C 0.15964 0.64466 0.21345 0.0
C404 C 0.1764 0.64922 0.22741 0.0
C405 C 0.29823 0.68724 0.25062 0.0
C406 C 0.30251 0.70887 0.24617 0.0
C407 C 0.27644 0.6701 0.25445 0.0
C408 C 0.25861 0.67433 0.25398 0.0
C409 C 0.26281 0.69572 0.24886 0.0
C410 C 0.2845 0.7128 0.24504 0.0
C411 C 0.23564 0.65689 0.25952 0.0
C412 C 0.21821 0.65191 0.24608 0.0
C413 C 0.23071 0.64585 0.2782 0.0
C414 C 0.24813 0.65114 0.2935 0.0
C415 C 0.26102 0.67297 0.30087 0.0
C416 C 0.27747 0.67784 0.31523 0.0
C417 C 0.28106 0.66097 0.32247 0.0
C418 C 0.26814 0.63919 0.3154 0.0
C419 C 0.25168 0.63423 0.30102 0.0
H420 H 0.2938 0.66478 0.3336 0.0
H421 H 0.13178 0.61918 0.1971 0.0
H422 H 0.49969 0.12534 0.44612 0.0
H423 H 0.51776 0.16383 0.43415 0.0
H424 H 0.58217 0.17167 0.44761 0.0
H425 H 0.56415 0.13322 0.45992 0.0
H426 H 0.57798 0.20684 0.46111 0.0
H427 H 0.56562 0.1663 0.40011 0.0
H428 H 0.54367 0.13729 0.3752 0.0
H429 H 0.50075 0.16478 0.36709 0.0
H430 H 0.52225 0.19378 0.39218 0.0
H431 H 0.63551 0.3134 0.41465 0.0
H432 H 0.6229 0.27424 0.42212 0.0
H433 H 0.55548 0.25674 0.40734 0.0
H434 H 0.56795 0.2956 0.39954 0.0
H435 H 0.56435 0.22621 0.39323 0.0
H436 H 0.57361 0.26396 0.45592 0.0
H437 H 0.59409 0.29257 0.48158 0.0
H438 H 0.64134 0.26998 0.48718 0.0
H439 H 0.62129 0.24141 0.46134 0.0
C440 C 0.5177 0.13528 0.44659 0.0
C441 C 0.5305 0.12624 0.45395 0.0
C442 C 0.52801 0.15721 0.4396 0.0
C443 C 0.55133 0.17054 0.4398 0.0
C444 C 0.56416 0.16162 0.44724 0.0
C445 C 0.55385 0.13963 0.45413 0.0
C446 C 0.56219 0.19396 0.4327 0.0
C447 C 0.57536 0.21109 0.44615 0.0
C448 C 0.55836 0.19947 0.41332 0.0
C449 C 0.54545 0.18211 0.39815 0.0
C450 C 0.55139 0.16606 0.39313 0.0
C451 C 0.53905 0.14963 0.37896 0.0
C452 C 0.5208 0.14916 0.3696 0.0
C453 C 0.51488 0.16515 0.37436 0.0
C454 C 0.52716 0.1816 0.38854 0.0
C455 C 0.61805 0.30117 0.41277 0.0
C456 C 0.60272 0.30765 0.40661 0.0
C457 C 0.61085 0.27881 0.41715 0.0
C458 C 0.58818 0.26259 0.41557 0.0
C459 C 0.57303 0.26894 0.4087 0.0
C460 C 0.58021 0.29121 0.40429 0.0
C461 C 0.57993 0.23913 0.42172 0.0
C462 C 0.56722 0.22198 0.40812 0.0
C463 C 0.58403 0.23358 0.44102 0.0
C464 C 0.59611 0.25074 0.45653 0.0
C465 C 0.58848 0.26523 0.4625 0.0
C466 C 0.59999 0.28141 0.4771 0.0
C467 C 0.61905 0.28314 0.48596 0.0
C468 C 0.6266 0.26865 0.48027 0.0
C469 C 0.61517 0.25246 0.46566 0.0
H470 H 0.62793 0.29567 0.49726 0.0
H471 H 0.51127 0.13643 0.35863 0.0
H472 H 0.46109 0.57787 0.61743 0.0
H473 H 0.43792 0.59348 0.60683 0.0
H474 H 0.37889 0.52946 0.61525 0.0
H475 H 0.40175 0.51386 0.62643 0.0
H476 H 0.37909 0.54956 0.57912 0.0
H477 H 0.39236 0.56877 0.6492 0.0
H478 H 0.41597 0.58578 0.67886 0.0
H479 H 0.44647 0.64997 0.65057 0.0
H480 H 0.42324 0.63326 0.62061 0.0
H481 H 0.29029 0.57045 0.58323 0.0
H482 H 0.31869 0.56029 0.58915 0.0
H483 H 0.36979 0.62958 0.5865 0.0
H484 H 0.34114 0.64 0.58117 0.0
H485 H 0.37736 0.61031 0.61683 0.0
H486 H 0.36205 0.59229 0.54794 0.0
H487 H 0.33898 0.57571 0.51792 0.0
H488 H 0.31347 0.51026 0.54273 0.0
H489 H 0.33616 0.52646 0.57303 0.0
C490 C 0.44317 0.56714 0.61724 0.0
C491 C 0.43333 0.54456 0.62281 0.0
C492 C 0.42997 0.57609 0.61108 0.0
C493 C 0.40669 0.56264 0.6103 0.0
C494 C 0.39684 0.54009 0.61562 0.0
C495 C 0.40998 0.53118 0.62192 0.0
C496 C 0.39245 0.57197 0.6041 0.0
C497 C 0.37857 0.56274 0.58742 0.0
C498 C 0.39237 0.58967 0.61455 0.0
C499 C 0.40625 0.59973 0.63259 0.0
C500 C 0.40424 0.58648 0.64924 0.0
C501 C 0.41753 0.59607 0.66612 0.0
C502 C 0.43277 0.61893 0.66658 0.0
C503 C 0.43469 0.63225 0.65018 0.0
C504 C 0.42146 0.62274 0.63325 0.0
C505 C 0.30757 0.58358 0.58371 0.0
C506 C 0.31345 0.60606 0.58163 0.0
C507 C 0.32385 0.57771 0.587 0.0
C508 C 0.34647 0.59411 0.58792 0.0
C509 C 0.35246 0.61661 0.58575 0.0
C510 C 0.33608 0.62254 0.58264 0.0
C511 C 0.36358 0.58761 0.592 0.0
C512 C 0.37804 0.59736 0.60829 0.0
C513 C 0.36432 0.57047 0.58108 0.0
C514 C 0.35072 0.56062 0.56282 0.0
C515 C 0.35142 0.57437 0.54706 0.0
C516 C 0.33842 0.56504 0.52998 0.0
C517 C 0.32474 0.54195 0.52843 0.0
C518 C 0.32407 0.52814 0.54395 0.0
C519 C 0.33702 0.53739 0.56106 0.0
H520 H 0.31469 0.53476 0.5152 0.0
H521 H 0.44304 0.62632 0.67965 0.0
H522 H 0.89956 0.38939 0.78366 0.0
H523 H 0.86121 0.36862 0.77153 0.0
H524 H 0.85291 0.42519 0.78359 0.0
H525 H 0.8912 0.44594 0.79622 0.0
H526 H 0.8178 0.38657 0.79714 0.0
H527 H 0.85873 0.4125 0.73608 0.0
H528 H 0.88787 0.41867 0.71164 0.0
H529 H 0.86042 0.348 0.70578 0.0
H530 H 0.83128 0.3414 0.73041 0.0
H531 H 0.7114 0.33525 0.75006 0.0
H532 H 0.75046 0.36224 0.75745 0.0
H533 H 0.76845 0.31212 0.74528 0.0
H534 H 0.72971 0.2853 0.73754 0.0
H535 H 0.79887 0.351 0.73027 0.0
H536 H 0.76086 0.32488 0.79325 0.0
H537 H 0.73204 0.3177 0.81841 0.0
H538 H 0.75433 0.38767 0.82127 0.0
H539 H 0.78311 0.39522 0.79591 0.0
C540 C 0.88956 0.39739 0.78382 0.0
C541 C 0.89843 0.41932 0.79092 0.0
C542 C 0.8677 0.38557 0.7767 0.0
C543 C 0.85426 0.39544 0.77643 0.0
C544 C 0.86302 0.4173 0.78356 0.0
C545 C 0.88494 0.42918 0.79064 0.0
C546 C 0.83088 0.38264 0.76923 0.0
C547 C 0.81366 0.37915 0.78237 0.0
C548 C 0.82548 0.37255 0.75012 0.0
C549 C 0.84292 0.37646 0.73522 0.0
C550 C 0.859 0.39827 0.72969 0.0
C551 C 0.8755 0.40185 0.71578 0.0
C552 C 0.87602 0.38374 0.70719 0.0
C553 C 0.86 0.36201 0.71246 0.0
C554 C 0.84347 0.35834 0.72638 0.0
C555 C 0.72373 0.33006 0.74876 0.0
C556 C 0.71741 0.30808 0.74332 0.0
C557 C 0.74603 0.34548 0.75308 0.0
C558 C 0.76236 0.33912 0.7522 0.0
C559 C 0.75617 0.31742 0.74609 0.0
C560 C 0.73396 0.30206 0.74172 0.0
C561 C 0.78577 0.35468 0.75828 0.0
C562 C 0.80301 0.35866 0.74494 0.0
C563 C 0.7912 0.36508 0.77726 0.0
C564 C 0.77394 0.36058 0.79252 0.0
C565 C 0.75949 0.33871 0.79913 0.0
C566 C 0.74319 0.33458 0.81344 0.0
C567 C 0.74131 0.35221 0.82139 0.0
C568 C 0.75577 0.37402 0.81507 0.0
C569 C 0.77209 0.37824 0.80073 0.0
H570 H 0.72868 0.34898 0.83247 0.0
H571 H 0.88882 0.38654 0.69643 0.0
H572 H 0.50933 0.90204 0.95071 0.0
H573 H 0.49353 0.86364 0.93903 0.0
H574 H 0.42722 0.8526 0.94864 0.0
H575 H 0.44296 0.89102 0.96062 0.0
H576 H 0.43279 0.8185 0.96362 0.0
H577 H 0.44612 0.85846 0.90221 0.0
H578 H 0.46812 0.88796 0.87772 0.0
H579 H 0.51465 0.86438 0.87289 0.0
H580 H 0.4931 0.83492 0.89759 0.0
H581 H 0.38445 0.71152 0.91723 0.0
H582 H 0.39367 0.74989 0.92443 0.0
H583 H 0.46308 0.77268 0.91305 0.0
H584 H 0.45399 0.73466 0.90551 0.0
H585 H 0.45197 0.8008 0.89732 0.0
H586 H 0.44186 0.76409 0.96083 0.0
H587 H 0.42136 0.73511 0.98619 0.0
H588 H 0.3703 0.75296 0.9878 0.0
H589 H 0.39038 0.78188 0.96224 0.0
C590 C 0.49138 0.89142 0.95041 0.0
C591 C 0.47739 0.89956 0.95658 0.0
C592 C 0.48237 0.86954 0.94358 0.0
C593 C 0.45919 0.85533 0.94278 0.0
C594 C 0.44515 0.86333 0.94905 0.0
C595 C 0.45416 0.8853 0.95576 0.0
C596 C 0.44976 0.832 0.93577 0.0
C597 C 0.4366 0.81458 0.94898 0.0
C598 C 0.45512 0.82695 0.91682 0.0
C599 C 0.46807 0.84458 0.90188 0.0
C600 C 0.46113 0.85966 0.89604 0.0
C601 C 0.47351 0.87636 0.8821 0.0
C602 C 0.49279 0.87807 0.87378 0.0
C603 C 0.49971 0.86305 0.87936 0.0
C604 C 0.48741 0.84633 0.89331 0.0
C605 C 0.40163 0.72475 0.91608 0.0
C606 C 0.41849 0.72001 0.91089 0.0
C607 C 0.4069 0.74666 0.92029 0.0
C608 C 0.42912 0.76415 0.91953 0.0
C609 C 0.44582 0.75949 0.91375 0.0
C610 C 0.44059 0.73769 0.90949 0.0
C611 C 0.43531 0.78726 0.9253 0.0
C612 C 0.44788 0.80466 0.91187 0.0
C613 C 0.42956 0.79231 0.94411 0.0
C614 C 0.41748 0.77495 0.95945 0.0
C615 C 0.42617 0.7617 0.96647 0.0
C616 C 0.41464 0.74532 0.9809 0.0
C617 C 0.3945 0.74214 0.98855 0.0
C618 C 0.38587 0.7554 0.98182 0.0
C619 C 0.39732 0.7718 0.96737 0.0
H620 H 0.3856 0.72945 0.99973 0.0
H621 H 0.50235 0.89101 0.86299 0.0
H622 H 0.57933 0.46374 0.11966 0.0
H623 H 0.60051 0.44602 0.10899 0.0
H624 H 0.66116 0.50962 0.11051 0.0
H625 H 0.64041 0.52739 0.12206 0.0
H626 H 0.65541 0.48377 0.07524 0.0
H627 H 0.65189 0.47668 0.14696 0.0
H628 H 0.63255 0.46561 0.17939 0.0
H629 H 0.59763 0.39717 0.16071 0.0
H630 H 0.61636 0.40791 0.12793 0.0
H631 H 0.74122 0.45766 0.07585 0.0
H632 H 0.71527 0.47093 0.0823 0.0
H633 H 0.6617 0.40315 0.08915 0.0
H634 H 0.68786 0.38967 0.08312 0.0
H635 H 0.66059 0.42831 0.11839 0.0
H636 H 0.66532 0.43439 0.04755 0.0
H637 H 0.6836 0.44498 0.01462 0.0
H638 H 0.71508 0.51413 0.03078 0.0
H639 H 0.69723 0.50394 0.06393 0.0
C640 C 0.59721 0.47398 0.11799 0.0
C641 C 0.6081 0.49706 0.12184 0.0
C642 C 0.60925 0.46382 0.11173 0.0
C643 C 0.63238 0.47652 0.109 0.0
C644 C 0.64328 0.49956 0.11241 0.0
C645 C 0.63132 0.5097 0.11893 0.0
C646 C 0.64537 0.46578 0.103 0.0
C647 C 0.65672 0.47177 0.08471 0.0
C648 C 0.64646 0.44963 0.11513 0.0
C649 C 0.63532 0.44314 0.13489 0.0
C650 C 0.63992 0.45929 0.14968 0.0
C651 C 0.6291 0.45308 0.16815 0.0
C652 C 0.61386 0.43071 0.17211 0.0
C653 C 0.60942 0.4145 0.15761 0.0
C654 C 0.62011 0.42065 0.13907 0.0
C655 C 0.72388 0.4455 0.07852 0.0
C656 C 0.71661 0.42257 0.07892 0.0
C657 C 0.70901 0.45314 0.08213 0.0
C658 C 0.68643 0.43805 0.08597 0.0
C659 C 0.67903 0.41511 0.08617 0.0
C660 C 0.69397 0.40742 0.08264 0.0
C661 C 0.67096 0.44646 0.09064 0.0
C662 C 0.65912 0.44008 0.10874 0.0
C663 C 0.6693 0.46215 0.07825 0.0
C664 C 0.68005 0.46838 0.0583 0.0
C665 C 0.67627 0.45185 0.04414 0.0
C666 C 0.68653 0.45778 0.02542 0.0
C667 C 0.70053 0.48021 0.02063 0.0
C668 C 0.70425 0.49676 0.03453 0.0
C669 C 0.69403 0.49091 0.05328 0.0
H670 H 0.70846 0.48477 0.00613 0.0
H671 H 0.60553 0.42593 0.18643 0.0
H672 H 0.38389 0.89818 0.52503 0.0
H673 H 0.36265 0.8599 0.53714 0.0
H674 H 0.4236 0.85857 0.54596 0.0
H675 H 0.44513 0.89716 0.53435 0.0
H676 H 0.39057 0.82071 0.52651 0.0
H677 H 0.39778 0.86328 0.58549 0.0
H678 H 0.39523 0.89198 0.60519 0.0
H679 H 0.32463 0.8588 0.59499 0.0
H680 H 0.32681 0.83006 0.57498 0.0
H681 H 0.335 0.71566 0.57608 0.0
H682 H 0.36109 0.75492 0.56854 0.0
H683 H 0.30631 0.76783 0.56633 0.0
H684 H 0.28042 0.72901 0.57451 0.0
H685 H 0.33931 0.80057 0.58434 0.0
H686 H 0.33142 0.76058 0.52331 0.0
H687 H 0.33259 0.73219 0.50195 0.0
H688 H 0.40243 0.7605 0.5141 0.0
H689 H 0.4016 0.7889 0.53574 0.0
C690 C 0.39287 0.88992 0.5298 0.0
C691 C 0.41629 0.90089 0.52881 0.0
C692 C 0.38066 0.86798 0.53664 0.0
C693 C 0.39156 0.85647 0.54262 0.0
C694 C 0.41487 0.86717 0.54141 0.0
C695 C 0.42713 0.8892 0.53468 0.0
C696 C 0.37851 0.83319 0.54995 0.0
C697 C 0.37964 0.81631 0.53937 0.0
C698 C 0.36388 0.82744 0.56643 0.0
C699 C 0.3625 0.84461 0.5786 0.0
C700 C 0.38174 0.86219 0.58732 0.0
C701 C 0.38035 0.87845 0.59856 0.0
C702 C 0.35979 0.87724 0.60131 0.0
C703 C 0.34055 0.85972 0.59285 0.0
C704 C 0.34185 0.84343 0.58157 0.0
C705 C 0.32858 0.72693 0.57413 0.0
C706 C 0.30563 0.71919 0.57584 0.0
C707 C 0.34348 0.74934 0.5697 0.0
C708 C 0.33566 0.76433 0.56655 0.0
C709 C 0.31281 0.75666 0.56869 0.0
C710 C 0.29798 0.73439 0.57333 0.0
C711 C 0.35103 0.78792 0.56071 0.0
C712 C 0.35037 0.80491 0.57159 0.0
C713 C 0.36585 0.79374 0.54432 0.0
C714 C 0.36639 0.77669 0.53132 0.0
C715 C 0.34698 0.76063 0.52155 0.0
C716 C 0.34759 0.74456 0.50937 0.0
C717 C 0.36756 0.74449 0.50672 0.0
C718 C 0.38697 0.76054 0.5162 0.0
C719 C 0.38644 0.77664 0.52841 0.0
H720 H 0.368 0.73204 0.49728 0.0
H721 H 0.35875 0.88984 0.61001 0.0
H722 H 0.51973 0.40812 0.70564 0.0
H723 H 0.53648 0.38659 0.71776 0.0
H724 H 0.60177 0.44065 0.70245 0.0
H725 H 0.58501 0.46219 0.68989 0.0
H726 H 0.59542 0.4005 0.6896 0.0
H727 H 0.58658 0.43064 0.75067 0.0
H728 H 0.56669 0.4399 0.77602 0.0
H729 H 0.52026 0.37032 0.78487 0.0
H730 H 0.53967 0.36064 0.75935 0.0
H731 H 0.64429 0.34141 0.7341 0.0
H732 H 0.6359 0.3713 0.7277 0.0
H733 H 0.56681 0.32654 0.742 0.0
H734 H 0.57508 0.29686 0.74871 0.0
H735 H 0.58014 0.36679 0.75723 0.0
H736 H 0.58545 0.33699 0.69346 0.0
H737 H 0.60411 0.327 0.66745 0.0
H738 H 0.65614 0.39536 0.66329 0.0
H739 H 0.63791 0.40571 0.68949 0.0
C740 C 0.53765 0.41542 0.7048 0.0
C741 C 0.55104 0.43685 0.69676 0.0
C742 C 0.54723 0.40318 0.71191 0.0
C743 C 0.57041 0.4121 0.71121 0.0
C744 C 0.58386 0.43349 0.70322 0.0
C745 C 0.57428 0.44583 0.69617 0.0
C746 C 0.58034 0.39862 0.71818 0.0
C747 C 0.59249 0.39351 0.70453 0.0
C748 C 0.57618 0.38918 0.73755 0.0
C749 C 0.5645 0.39492 0.75298 0.0
C750 C 0.57203 0.41731 0.75791 0.0
C751 C 0.56086 0.42264 0.77233 0.0
C752 C 0.5422 0.40571 0.78202 0.0
C753 C 0.53471 0.38342 0.77734 0.0
C754 C 0.54581 0.378 0.76292 0.0
C755 C 0.62737 0.33804 0.73611 0.0
C756 C 0.61033 0.31671 0.74179 0.0
C757 C 0.62258 0.3551 0.73236 0.0
C758 C 0.60066 0.35109 0.73412 0.0
C759 C 0.58384 0.33006 0.74053 0.0
C760 C 0.5886 0.31306 0.74429 0.0
C761 C 0.5948 0.36829 0.72851 0.0
C762 C 0.58339 0.37409 0.74242 0.0
C763 C 0.59953 0.37827 0.70934 0.0
C764 C 0.61048 0.37207 0.6936 0.0
C765 C 0.60097 0.34986 0.68711 0.0
C766 C 0.61144 0.34413 0.67232 0.0
C767 C 0.63134 0.36052 0.66377 0.0
C768 C 0.64076 0.38268 0.66996 0.0
C769 C 0.63036 0.38849 0.68477 0.0
H770 H 0.63942 0.35606 0.65232 0.0
H771 H 0.53357 0.40987 0.79318 0.0
H772 H 0.12824 0.56225 0.87019 0.0
H773 H 0.16705 0.5793 0.88109 0.0
H774 H 0.16521 0.51673 0.87256 0.0
H775 H 0.12667 0.49968 0.86111 0.0
H776 H 0.18468 0.53733 0.90872 0.0
H777 H 0.18986 0.55653 0.83861 0.0
H778 H 0.18193 0.57272 0.80908 0.0
H779 H 0.2125 0.63673 0.83769 0.0
H780 H 0.22034 0.62085 0.86751 0.0
H781 H 0.29718 0.56605 0.90609 0.0
H782 H 0.25797 0.55303 0.89987 0.0
H783 H 0.2711 0.6208 0.90161 0.0
H784 H 0.31078 0.63409 0.90721 0.0
H785 H 0.24535 0.60021 0.87131 0.0
H786 H 0.24297 0.58268 0.94029 0.0
H787 H 0.25044 0.56722 0.97057 0.0
H788 H 0.21427 0.50137 0.94572 0.0
H789 H 0.20684 0.51646 0.91517 0.0
C790 C 0.13613 0.55214 0.87042 0.0
C791 C 0.12426 0.52956 0.86471 0.0
C792 C 0.15829 0.5619 0.87676 0.0
C793 C 0.16903 0.5493 0.87756 0.0
C794 C 0.15719 0.52672 0.87215 0.0
C795 C 0.1351 0.51698 0.86569 0.0
C796 C 0.1927 0.55962 0.88376 0.0
C797 C 0.198 0.55096 0.90047 0.0
C798 C 0.20995 0.57788 0.87338 0.0
C799 C 0.20546 0.58746 0.85537 0.0
C800 C 0.19474 0.57402 0.83866 0.0
C801 C 0.19029 0.58314 0.82186 0.0
C802 C 0.19664 0.60571 0.82155 0.0
C803 C 0.20755 0.61924 0.83798 0.0
C804 C 0.21201 0.6102 0.85482 0.0
C805 C 0.29176 0.57823 0.90535 0.0
C806 C 0.30712 0.60113 0.90722 0.0
C807 C 0.26924 0.57072 0.90189 0.0
C808 C 0.26142 0.58587 0.90059 0.0
C809 C 0.2767 0.60877 0.90262 0.0
C810 C 0.29935 0.61634 0.90589 0.0
C811 C 0.2375 0.57772 0.89618 0.0
C812 C 0.2321 0.58676 0.87977 0.0
C813 C 0.22012 0.55992 0.90698 0.0
C814 C 0.22449 0.55074 0.92537 0.0
C815 C 0.23674 0.56492 0.94122 0.0
C816 C 0.24095 0.55622 0.95844 0.0
C817 C 0.23287 0.53333 0.96005 0.0
C818 C 0.22053 0.51909 0.94445 0.0
C819 C 0.21629 0.52771 0.92719 0.0
H820 H 0.23615 0.52663 0.97339 0.0
H821 H 0.19315 0.61274 0.80858 0.0
H822 H 0.6178 0.12587 0.02844 0.0
H823 H 0.64003 0.16407 0.04036 0.0
H824 H 0.58166 0.1711 0.0406 0.0
H825 H 0.55893 0.13245 0.02934 0.0
H826 H 0.62031 0.20758 0.02267 0.0
H827 H 0.59911 0.16534 0.08337 0.0
H828 H 0.5942 0.13509 0.10592 0.0
H829 H 0.66474 0.16003 0.1052 0.0
H830 H 0.67005 0.19025 0.08239 0.0
H831 H 0.68284 0.31363 0.07052 0.0
H832 H 0.65307 0.27557 0.06312 0.0
H833 H 0.6998 0.25202 0.06962 0.0
H834 H 0.72927 0.28965 0.0775 0.0
H835 H 0.66225 0.2237 0.08634 0.0
H836 H 0.68358 0.26227 0.02312 0.0
H837 H 0.68984 0.29186 0.99914 0.0
H838 H 0.62089 0.27347 0.00318 0.0
H839 H 0.61429 0.24393 0.0274 0.0
C840 C 0.60952 0.13533 0.0313 0.0
C841 C 0.58645 0.12588 0.02812 0.0
C842 C 0.62232 0.15725 0.03799 0.0
C843 C 0.61244 0.17032 0.04154 0.0
C844 C 0.58957 0.16125 0.03796 0.0
C845 C 0.57665 0.13918 0.03143 0.0
C846 C 0.62621 0.19345 0.04899 0.0
C847 C 0.62916 0.21117 0.03678 0.0
C848 C 0.63806 0.19804 0.0672 0.0
C849 C 0.63495 0.17998 0.08105 0.0
C850 C 0.61356 0.16428 0.0879 0.0
C851 C 0.61071 0.14715 0.10075 0.0
C852 C 0.62914 0.14561 0.10696 0.0
C853 C 0.65047 0.16124 0.10037 0.0
C854 C 0.65342 0.17839 0.0875 0.0
C855 C 0.68669 0.30029 0.07053 0.0
C856 C 0.70844 0.30469 0.07454 0.0
C857 C 0.66969 0.27856 0.06619 0.0
C858 C 0.67424 0.26093 0.06555 0.0
C859 C 0.69584 0.26529 0.07003 0.0
C860 C 0.71272 0.28688 0.0745 0.0
C861 C 0.65685 0.23797 0.05981 0.0
C862 C 0.65319 0.22021 0.07236 0.0
C863 C 0.64457 0.23336 0.04179 0.0
C864 C 0.64851 0.2511 0.02726 0.0
C865 C 0.6698 0.26467 0.01902 0.0
C866 C 0.6734 0.2814 0.00536 0.0
C867 C 0.65579 0.2846 0.99969 0.0
C868 C 0.63453 0.27101 0.00763 0.0
C869 C 0.63085 0.25427 0.02131 0.0
H870 H 0.65861 0.29756 0.98911 0.0
H871 H 0.6269 0.13234 0.11692 0.0
H872 H 0.52323 0.6379 0.20293 0.0
H873 H 0.50484 0.65799 0.21473 0.0
H874 H 0.44064 0.59973 0.20444 0.0
H875 H 0.45897 0.57966 0.19205 0.0
H876 H 0.44209 0.63689 0.19016 0.0
H877 H 0.46039 0.61485 0.25168 0.0
H878 H 0.48473 0.61067 0.27605 0.0
H879 H 0.52633 0.68178 0.27936 0.0
H880 H 0.50242 0.6864 0.25479 0.0
H881 H 0.38648 0.6883 0.23648 0.0
H882 H 0.3991 0.66158 0.22985 0.0
H883 H 0.46726 0.71349 0.23869 0.0
H884 H 0.45483 0.74008 0.24561 0.0
H885 H 0.4602 0.67567 0.25558 0.0
H886 H 0.4449 0.69769 0.1918 0.0
H887 H 0.42163 0.70267 0.16677 0.0
H888 H 0.37535 0.63226 0.16727 0.0
H889 H 0.39822 0.62692 0.19251 0.0
C890 C 0.50519 0.62937 0.20308 0.0
C891 C 0.49257 0.60717 0.19652 0.0
C892 C 0.4947 0.64081 0.21003 0.0
C893 C 0.47135 0.63028 0.21071 0.0
C894 C 0.45867 0.60814 0.20415 0.0
C895 C 0.46918 0.59665 0.19721 0.0
C896 C 0.46029 0.64271 0.21768 0.0
C897 C 0.4457 0.645 0.20463 0.0
C898 C 0.46533 0.65366 0.2364 0.0
C899 C 0.47969 0.65096 0.25127 0.0
C900 C 0.47482 0.6296 0.25749 0.0
C901 C 0.48853 0.62715 0.27136 0.0
C902 C 0.50709 0.64594 0.27922 0.0
C903 C 0.51195 0.66723 0.27326 0.0
C904 C 0.49831 0.66978 0.25938 0.0
C905 C 0.40413 0.69395 0.23721 0.0
C906 C 0.41965 0.71635 0.24147 0.0
C907 C 0.41133 0.67869 0.23333 0.0
C908 C 0.43416 0.6856 0.23352 0.0
C909 C 0.44957 0.70776 0.23844 0.0
C910 C 0.44242 0.72298 0.24233 0.0
C911 C 0.44228 0.67012 0.22793 0.0
C912 C 0.45634 0.66729 0.24123 0.0
C913 C 0.43686 0.65876 0.2094 0.0
C914 C 0.42312 0.66195 0.19421 0.0
C915 C 0.42967 0.6833 0.18669 0.0
C916 C 0.41657 0.68618 0.17244 0.0
C917 C 0.39699 0.6678 0.16548 0.0
C918 C 0.3905 0.64649 0.17271 0.0
C919 C 0.40352 0.64352 0.18698 0.0
H920 H 0.38688 0.67006 0.15444 0.0
H921 H 0.51768 0.64401 0.28995 0.0
H922 H 0.88443 0.4489 0.33727 0.0
H923 H 0.8455 0.4318 0.3473 0.0
H924 H 0.86455 0.47524 0.39857 0.0
H925 H 0.90366 0.49131 0.38946 0.0
H926 H 0.83315 0.43627 0.4091 0.0
H927 H 0.84312 0.48485 0.35412 0.0
H928 H 0.85385 0.49989 0.32002 0.0
H929 H 0.80627 0.43632 0.29554 0.0
H930 H 0.79545 0.42081 0.32952 0.0
H931 H 0.73317 0.44079 0.42343 0.0
H932 H 0.77091 0.44844 0.41596 0.0
H933 H 0.74409 0.39076 0.37764 0.0
H934 H 0.70613 0.38267 0.38542 0.0
H935 H 0.77794 0.4331 0.36009 0.0
H936 H 0.76595 0.38651 0.41709 0.0
H937 H 0.75529 0.37401 0.45186 0.0
H938 H 0.80695 0.43741 0.47324 0.0
H939 H 0.81772 0.45042 0.43858 0.0
C940 C 0.88046 0.45457 0.3509 0.0
C941 C 0.89733 0.47165 0.36247 0.0
C942 C 0.85808 0.44495 0.35647 0.0
C943 C 0.85197 0.4525 0.37349 0.0
C944 C 0.86877 0.46918 0.38531 0.0
C945 C 0.89118 0.47858 0.37991 0.0
C946 C 0.82811 0.44339 0.37882 0.0
C947 C 0.82116 0.43577 0.3984 0.0
C948 C 0.81225 0.4423 0.36481 0.0
C949 C 0.81866 0.4516 0.34436 0.0
C950 C 0.83506 0.47403 0.34146 0.0
C951 C 0.84114 0.48265 0.32216 0.0
C952 C 0.8308 0.46905 0.30562 0.0
C953 C 0.8143 0.44682 0.30836 0.0
C954 C 0.80818 0.43811 0.32764 0.0
C955 C 0.73528 0.42953 0.41367 0.0
C956 C 0.71672 0.41114 0.405 0.0
C957 C 0.75684 0.4339 0.40944 0.0
C958 C 0.76024 0.42016 0.39626 0.0
C959 C 0.74175 0.40151 0.38788 0.0
C960 C 0.72012 0.39687 0.39241 0.0
C961 C 0.78319 0.42625 0.39033 0.0
C962 C 0.78994 0.43337 0.37067 0.0
C963 C 0.79892 0.42728 0.40435 0.0
C964 C 0.79251 0.4195 0.42522 0.0
C965 C 0.77491 0.39786 0.4292 0.0
C966 C 0.76888 0.39067 0.44889 0.0
C967 C 0.7804 0.40493 0.46475 0.0
C968 C 0.79802 0.42639 0.46094 0.0
C969 C 0.80412 0.43367 0.44127 0.0
H970 H 0.7757 0.39933 0.47999 0.0
H971 H 0.83553 0.47575 0.29068 0.0
H972 H 0.08022 0.5712 0.4253 0.0
H973 H 0.10963 0.58427 0.45042 0.0
H974 H 0.15182 0.57485 0.40903 0.0
H975 H 0.12296 0.56277 0.38338 0.0
H976 H 0.14788 0.55607 0.44911 0.0
H977 H 0.16461 0.62462 0.41616 0.0
H978 H 0.15545 0.6523 0.40297 0.0
H979 H 0.13681 0.6618 0.46172 0.0
H980 H 0.14554 0.63391 0.47522 0.0
H981 H 0.24265 0.60655 0.51303 0.0
H982 H 0.21795 0.59579 0.48394 0.0
H983 H 0.18023 0.62231 0.5124 0.0
H984 H 0.20557 0.63419 0.5408 0.0
H985 H 0.18384 0.63294 0.47624 0.0
H986 H 0.16305 0.5637 0.50954 0.0
H987 H 0.16904 0.53447 0.52425 0.0
H988 H 0.19143 0.52427 0.46752 0.0
H989 H 0.18583 0.55364 0.45253 0.0
C990 C 0.09586 0.57224 0.42134 0.0
C991 C 0.09915 0.56596 0.4022 0.0
C992 C 0.11259 0.57956 0.4358 0.0
C993 C 0.13286 0.58054 0.43152 0.0
C994 C 0.13621 0.5741 0.4126 0.0
C995 C 0.11961 0.56708 0.39801 0.0
C996 C 0.1505 0.58826 0.44693 0.0
C997 C 0.15606 0.57296 0.45488 0.0
C998 C 0.16062 0.61011 0.45473 0.0
C999 C 0.15556 0.62704 0.44666 0.0
C1000 C 0.15839 0.63248 0.42624 0.0
C1001 C 0.1533 0.64823 0.41871 0.0
C1002 C 0.1455 0.65877 0.43149 0.0
C1003 C 0.14283 0.65361 0.45184 0.0
C1004 C 0.14787 0.63785 0.45944 0.0
C1005 C 0.22911 0.61011 0.51299 0.0
C1006 C 0.22603 0.6212 0.52917 0.0
C1007 C 0.2149 0.60384 0.49642 0.0
C1008 C 0.19692 0.60787 0.49604 0.0
C1009 C 0.19397 0.61904 0.51222 0.0
C1010 C 0.20846 0.62579 0.5285 0.0
C1011 C 0.1811 0.60062 0.4789 0.0
C1012 C 0.17586 0.61604 0.47051 0.0
C1013 C 0.1709 0.5787 0.47101 0.0
C1014 C 0.17426 0.56103 0.47998 0.0
C1015 C 0.16941 0.55533 0.50025 0.0
C1016 C 0.17271 0.53872 0.50862 0.0
C1017 C 0.18068 0.52757 0.49684 0.0
C1018 C 0.1853 0.53295 0.47664 0.0
C1019 C 0.18205 0.54956 0.46819 0.0
H1020 H 0.18322 0.51471 0.50335 0.0
H1021 H 0.14157 0.67096 0.42563 0.0
H1022 H 0.49969 0.10972 0.56609 0.0
H1023 H 0.51744 0.13806 0.59211 0.0
H1024 H 0.57328 0.12678 0.59301 0.0
H1025 H 0.55528 0.09789 0.56765 0.0
H1026 H 0.56068 0.1288 0.62976 0.0
H1027 H 0.57639 0.17295 0.57035 0.0
H1028 H 0.56738 0.18579 0.53923 0.0
H1029 H 0.52726 0.20595 0.57216 0.0
H1030 H 0.53579 0.19294 0.60347 0.0
H1031 H 0.6387 0.22375 0.683 0.0
H1032 H 0.62023 0.19824 0.65519 0.0
H1033 H 0.5627 0.20603 0.66263 0.0
H1034 H 0.581 0.23155 0.69059 0.0
H1035 H 0.57502 0.20611 0.62206 0.0
H1036 H 0.55991 0.16203 0.6815 0.0
H1037 H 0.56966 0.14959 0.71246 0.0
H1038 H 0.60952 0.12959 0.67887 0.0
H1039 H 0.60027 0.14223 0.64772 0.0
C1040 C 0.51568 0.11317 0.57194 0.0
C1041 C 0.52609 0.10157 0.56473 0.0
C1042 C 0.52591 0.12954 0.58666 0.0
C1043 C 0.54683 0.13474 0.59435 0.0
C1044 C 0.55719 0.12312 0.58725 0.0
C1045 C 0.54696 0.10674 0.5726 0.0
C1046 C 0.55776 0.15188 0.61017 0.0
C1047 C 0.56406 0.14577 0.62793 0.0
C1048 C 0.56168 0.17389 0.60802 0.0
C1049 C 0.55654 0.18175 0.58922 0.0
C1050 C 0.56549 0.17995 0.57094 0.0
C1051 C 0.5605 0.18729 0.55327 0.0
C1052 C 0.5467 0.19662 0.55371 0.0
C1053 C 0.53791 0.19869 0.57184 0.0
C1054 C 0.54283 0.19135 0.58955 0.0
C1055 C 0.62222 0.22027 0.67861 0.0
C1056 C 0.61126 0.22958 0.68913 0.0
C1057 C 0.61167 0.20563 0.66275 0.0
C1058 C 0.59002 0.20009 0.65702 0.0
C1059 C 0.5794 0.21008 0.66687 0.0
C1060 C 0.58986 0.22459 0.68288 0.0
C1061 C 0.57813 0.18302 0.64142 0.0
C1062 C 0.5716 0.18912 0.62379 0.0
C1063 C 0.57406 0.16099 0.64361 0.0
C1064 C 0.57958 0.15329 0.66231 0.0
C1065 C 0.57091 0.15516 0.68073 0.0
C1066 C 0.57632 0.14804 0.69831 0.0
C1067 C 0.59025 0.13886 0.69764 0.0
C1068 C 0.59875 0.13673 0.67937 0.0
C1069 C 0.59342 0.14386 0.66175 0.0
H1070 H 0.59441 0.13335 0.71126 0.0
H1071 H 0.54286 0.2023 0.54001 0.0
H1072 H 0.48351 0.57884 0.72418 0.0
H1073 H 0.47087 0.59578 0.74917 0.0
H1074 H 0.41637 0.53083 0.76476 0.0
H1075 H 0.42895 0.51376 0.73978 0.0
H1076 H 0.40288 0.56127 0.76278 0.0
H1077 H 0.46282 0.55607 0.79357 0.0
H1078 H 0.50092 0.562 0.79608 0.0
H1079 H 0.52782 0.63285 0.79417 0.0
H1080 H 0.48988 0.62732 0.79136 0.0
H1081 H 0.37602 0.58454 0.8588 0.0
H1082 H 0.38668 0.5705 0.82993 0.0
H1083 H 0.44067 0.63679 0.81749 0.0
H1084 H 0.43034 0.65098 0.84657 0.0
H1085 H 0.45464 0.60718 0.81671 0.0
H1086 H 0.39417 0.61223 0.78781 0.0
H1087 H 0.35593 0.60595 0.78562 0.0
H1088 H 0.32979 0.53521 0.78433 0.0
H1089 H 0.36786 0.54105 0.7868 0.0
C1090 C 0.4689 0.56815 0.733 0.0
C1091 C 0.45733 0.54493 0.73012 0.0
C1092 C 0.46166 0.57786 0.74723 0.0
C1093 C 0.44284 0.56454 0.75901 0.0
C1094 C 0.43093 0.54142 0.75583 0.0
C1095 C 0.43812 0.5317 0.74153 0.0
C1096 C 0.43588 0.57463 0.77498 0.0
C1097 C 0.41411 0.57113 0.77469 0.0
C1098 C 0.45071 0.58792 0.79026 0.0
C1099 C 0.47353 0.59128 0.79204 0.0
C1100 C 0.47687 0.57291 0.79353 0.0
C1101 C 0.49844 0.5762 0.79503 0.0
C1102 C 0.51678 0.59779 0.79523 0.0
C1103 C 0.5136 0.61613 0.79398 0.0
C1104 C 0.49207 0.61294 0.79245 0.0
C1105 C 0.39004 0.59621 0.84984 0.0
C1106 C 0.40235 0.6189 0.85505 0.0
C1107 C 0.39605 0.58815 0.83326 0.0
C1108 C 0.41437 0.60262 0.82144 0.0
C1109 C 0.42647 0.62533 0.82639 0.0
C1110 C 0.42049 0.63342 0.843 0.0
C1111 C 0.42159 0.5938 0.80458 0.0
C1112 C 0.44343 0.59749 0.80472 0.0
C1113 C 0.4068 0.58065 0.78922 0.0
C1114 C 0.38387 0.57708 0.78767 0.0
C1115 C 0.38026 0.59533 0.78722 0.0
C1116 C 0.35861 0.59185 0.7859 0.0
C1117 C 0.34044 0.5702 0.78488 0.0
C1118 C 0.34388 0.55197 0.78514 0.0
C1119 C 0.36549 0.55536 0.78648 0.0
H1120 H 0.32369 0.56754 0.78386 0.0
H1121 H 0.53346 0.6003 0.7964 0.0
H1122 H 0.94024 0.43099 0.92403 0.0
H1123 H 0.91085 0.41959 0.94901 0.0
H1124 H 0.87098 0.43192 0.90717 0.0
H1125 H 0.89973 0.4423 0.88168 0.0
H1126 H 0.87696 0.4524 0.94641 0.0
H1127 H 0.85479 0.38132 0.91577 0.0
H1128 H 0.86084 0.35109 0.90387 0.0
H1129 H 0.87772 0.3416 0.96335 0.0
H1130 H 0.87208 0.37201 0.97557 0.0
H1131 H 0.78252 0.41166 0.00973 0.0
H1132 H 0.80687 0.41894 0.98083 0.0
H1133 H 0.83959 0.38839 0.01157 0.0
H1134 H 0.81442 0.3799 0.03981 0.0
H1135 H 0.83579 0.3766 0.97575 0.0
H1136 H 0.86188 0.44795 0.00682 0.0
H1137 H 0.85902 0.47955 0.02029 0.0
H1138 H 0.83888 0.49045 0.96271 0.0
H1139 H 0.84137 0.45873 0.94895 0.0
C1140 C 0.92507 0.43088 0.91992 0.0
C1141 C 0.92247 0.43765 0.90076 0.0
C1142 C 0.90835 0.42449 0.9343 0.0
C1143 C 0.8888 0.42494 0.92989 0.0
C1144 C 0.88604 0.43159 0.91085 0.0
C1145 C 0.90259 0.43766 0.89636 0.0
C1146 C 0.8715 0.41901 0.94538 0.0
C1147 C 0.86766 0.43576 0.95266 0.0
C1148 C 0.85995 0.39747 0.95385 0.0
C1149 C 0.8632 0.37908 0.94654 0.0
C1150 C 0.85997 0.37292 0.92628 0.0
C1151 C 0.86329 0.35572 0.91949 0.0
C1152 C 0.86971 0.34446 0.93284 0.0
C1153 C 0.87277 0.35035 0.95302 0.0
C1154 C 0.86949 0.36755 0.95989 0.0
C1155 C 0.79487 0.40644 0.01022 0.0
C1156 C 0.79662 0.39527 0.02702 0.0
C1157 C 0.80889 0.41073 0.99376 0.0
C1158 C 0.82545 0.40463 0.9941 0.0
C1159 C 0.82699 0.39326 0.01084 0.0
C1160 C 0.81261 0.38846 0.02703 0.0
C1161 C 0.84131 0.41011 0.97717 0.0
C1162 C 0.84492 0.39327 0.96954 0.0
C1163 C 0.85306 0.43174 0.96869 0.0
C1164 C 0.85157 0.45082 0.97692 0.0
C1165 C 0.85669 0.45699 0.99707 0.0
C1166 C 0.85516 0.47494 0.00475 0.0
C1167 C 0.84871 0.48696 0.99238 0.0
C1168 C 0.84384 0.4811 0.97229 0.0
C1169 C 0.84532 0.46315 0.96453 0.0
H1170 H 0.84754 0.50085 0.99836 0.0
H1171 H 0.87228 0.33116 0.92755 0.0
H1172 H 0.44513 0.92559 0.06753 0.0
H1173 H 0.42804 0.89654 0.09292 0.0
H1174 H 0.48692 0.89028 0.09409 0.0
H1175 H 0.5038 0.91875 0.0681 0.0
H1176 H 0.45006 0.85008 0.09505 0.0
H1177 H 0.47745 0.91905 0.13037 0.0
H1178 H 0.48209 0.95602 0.1376 0.0
H1179 H 0.41163 0.92632 0.14716 0.0
H1180 H 0.40653 0.88917 0.13971 0.0
H1181 H 0.43384 0.79743 0.18986 0.0
H1182 H 0.44753 0.82256 0.1612 0.0
H1183 H 0.38602 0.82393 0.15931 0.0
H1184 H 0.37215 0.79878 0.18804 0.0
H1185 H 0.42297 0.8658 0.15816 0.0
H1186 H 0.39638 0.79615 0.12416 0.0
H1187 H 0.39282 0.75949 0.11763 0.0
H1188 H 0.46314 0.7909 0.10646 0.0
H1189 H 0.46717 0.82775 0.1132 0.0
C1190 C 0.45435 0.91785 0.07299 0.0
C1191 C 0.47588 0.92457 0.06582 0.0
C1192 C 0.44464 0.90139 0.08766 0.0
C1193 C 0.45632 0.89144 0.0956 0.0
C1194 C 0.47763 0.89779 0.08823 0.0
C1195 C 0.48735 0.91423 0.07351 0.0
C1196 C 0.44641 0.87462 0.11179 0.0
C1197 C 0.44437 0.8536 0.10894 0.0
C1198 C 0.43857 0.87905 0.12976 0.0
C1199 C 0.44159 0.90136 0.13427 0.0
C1200 C 0.46292 0.92042 0.13385 0.0
C1201 C 0.46564 0.9414 0.13802 0.0
C1202 C 0.44716 0.94353 0.14278 0.0
C1203 C 0.42593 0.92465 0.14344 0.0
C1204 C 0.42312 0.90363 0.13926 0.0
C1205 C 0.42311 0.80289 0.18326 0.0
C1206 C 0.4019 0.79611 0.19128 0.0
C1207 C 0.43094 0.8172 0.16682 0.0
C1208 C 0.41774 0.82502 0.15807 0.0
C1209 C 0.39645 0.81806 0.16584 0.0
C1210 C 0.38853 0.80362 0.18222 0.0
C1211 C 0.42662 0.84128 0.14142 0.0
C1212 C 0.42854 0.86224 0.14421 0.0
C1213 C 0.43449 0.83683 0.12349 0.0
C1214 C 0.4321 0.8147 0.11937 0.0
C1215 C 0.41112 0.79523 0.12048 0.0
C1216 C 0.40901 0.77442 0.11671 0.0
C1217 C 0.42775 0.77286 0.11168 0.0
C1218 C 0.44864 0.79213 0.11037 0.0
C1219 C 0.45084 0.81298 0.11415 0.0
H1220 H 0.42608 0.75673 0.10877 0.0
H1221 H 0.44929 0.95979 0.14601 0.0
H1222 H 0.61769 0.53046 0.23935 0.0
H1223 H 0.62908 0.51202 0.26403 0.0
H1224 H 0.57281 0.44842 0.24784 0.0
H1225 H 0.56133 0.46674 0.22323 0.0
H1226 H 0.5754 0.4537 0.28714 0.0
H1227 H 0.62661 0.46302 0.23455 0.0
H1228 H 0.65587 0.48389 0.20952 0.0
H1229 H 0.70048 0.52479 0.25578 0.0
H1230 H 0.67141 0.50435 0.2811 0.0
H1231 H 0.60341 0.3849 0.34255 0.0
H1232 H 0.5965 0.40283 0.31423 0.0
H1233 H 0.65173 0.46632 0.33214 0.0
H1234 H 0.659 0.44849 0.36039 0.0
H1235 H 0.65033 0.46125 0.29177 0.0
H1236 H 0.59934 0.45302 0.34402 0.0
H1237 H 0.57036 0.43267 0.36942 0.0
H1238 H 0.52546 0.39046 0.32386 0.0
H1239 H 0.55429 0.41037 0.29822 0.0
C1240 C 0.60794 0.51251 0.24087 0.0
C1241 C 0.58854 0.50006 0.22944 0.0
C1242 C 0.61447 0.50199 0.25496 0.0
C1243 C 0.60186 0.47881 0.25771 0.0
C1244 C 0.58274 0.46633 0.24603 0.0
C1245 C 0.57616 0.47683 0.23203 0.0
C1246 C 0.60781 0.46765 0.27351 0.0
C1247 C 0.59168 0.45507 0.28794 0.0
C1248 C 0.62926 0.46998 0.27492 0.0
C1249 C 0.64675 0.48229 0.25971 0.0
C1250 C 0.64259 0.47658 0.23938 0.0
C1251 C 0.65915 0.48831 0.22514 0.0
C1252 C 0.67998 0.50569 0.23104 0.0
C1253 C 0.68432 0.51135 0.25122 0.0
C1254 C 0.66782 0.49968 0.26553 0.0
C1255 C 0.61423 0.40265 0.3404 0.0
C1256 C 0.63164 0.41529 0.35387 0.0
C1257 C 0.61021 0.41288 0.32422 0.0
C1258 C 0.62339 0.43596 0.32126 0.0
C1259 C 0.64132 0.44849 0.33418 0.0
C1260 C 0.64539 0.43826 0.35036 0.0
C1261 C 0.61783 0.44715 0.30521 0.0
C1262 C 0.63403 0.45981 0.29085 0.0
C1263 C 0.59645 0.44498 0.30385 0.0
C1264 C 0.57905 0.43304 0.31923 0.0
C1265 C 0.58334 0.43928 0.33944 0.0
C1266 C 0.56694 0.42785 0.35388 0.0
C1267 C 0.5461 0.41024 0.34826 0.0
C1268 C 0.54162 0.40408 0.32819 0.0
C1269 C 0.55798 0.41544 0.3137 0.0
H1270 H 0.53342 0.40141 0.35946 0.0
H1271 H 0.69278 0.51474 0.21999 0.0
H1272 H 0.46913 0.92004 0.42591 0.0
H1273 H 0.4587 0.89069 0.40103 0.0
H1274 H 0.39894 0.89284 0.38761 0.0
H1275 H 0.40939 0.92247 0.41232 0.0
H1276 H 0.39124 0.84982 0.38996 0.0
H1277 H 0.44278 0.91838 0.35735 0.0
H1278 H 0.47808 0.95387 0.35356 0.0
H1279 H 0.5144 0.91864 0.35312 0.0
H1280 H 0.47931 0.88295 0.35719 0.0
H1281 H 0.36503 0.79797 0.29483 0.0
H1282 H 0.37411 0.82267 0.32352 0.0
H1283 H 0.43514 0.82139 0.33219 0.0
H1284 H 0.42637 0.7969 0.3032 0.0
H1285 H 0.44264 0.86295 0.3334 0.0
H1286 H 0.39079 0.79399 0.36425 0.0
H1287 H 0.35544 0.75855 0.36797 0.0
H1288 H 0.31963 0.79415 0.37173 0.0
H1289 H 0.35474 0.82982 0.36774 0.0
C1290 C 0.45382 0.91438 0.41759 0.0
C1291 C 0.44021 0.92378 0.42097 0.0
C1292 C 0.44784 0.89753 0.40344 0.0
C1293 C 0.42817 0.88977 0.39232 0.0
C1294 C 0.41418 0.89859 0.39605 0.0
C1295 C 0.42017 0.91549 0.41021 0.0
C1296 C 0.42257 0.87294 0.37636 0.0
C1297 C 0.40234 0.85274 0.37747 0.0
C1298 C 0.43734 0.87659 0.36034 0.0
C1299 C 0.45844 0.89802 0.35779 0.0
C1300 C 0.45831 0.91822 0.3566 0.0
C1301 C 0.47828 0.93837 0.35438 0.0
C1302 C 0.49848 0.93851 0.35316 0.0
C1303 C 0.49874 0.9185 0.3541 0.0
C1304 C 0.47882 0.89831 0.35635 0.0
C1305 C 0.3803 0.80274 0.30292 0.0
C1306 C 0.39499 0.79546 0.29666 0.0
C1307 C 0.38541 0.8168 0.31941 0.0
C1308 C 0.40521 0.82373 0.33014 0.0
C1309 C 0.41976 0.81623 0.32414 0.0
C1310 C 0.41468 0.80218 0.3076 0.0
C1311 C 0.41124 0.83974 0.34693 0.0
C1312 C 0.43156 0.85988 0.34595 0.0
C1313 C 0.39654 0.836 0.36305 0.0
C1314 C 0.37539 0.81458 0.36552 0.0
C1315 C 0.37536 0.79426 0.36571 0.0
C1316 C 0.35536 0.77413 0.3679 0.0
C1317 C 0.33529 0.77409 0.37004 0.0
C1318 C 0.33518 0.7942 0.37005 0.0
C1319 C 0.35513 0.81439 0.36785 0.0
H1320 H 0.31983 0.75849 0.37173 0.0
H1321 H 0.51392 0.95413 0.35143 0.0
H1322 H 0.51735 0.4456 0.56345 0.0
H1323 H 0.53332 0.43227 0.53822 0.0
H1324 H 0.58646 0.44367 0.57857 0.0
H1325 H 0.57009 0.45604 0.60434 0.0
H1326 H 0.60014 0.46216 0.53876 0.0
H1327 H 0.5498 0.39318 0.57161 0.0
H1328 H 0.51343 0.36472 0.58503 0.0
H1329 H 0.48451 0.3545 0.52654 0.0
H1330 H 0.52064 0.38316 0.51281 0.0
H1331 H 0.64618 0.41431 0.47445 0.0
H1332 H 0.63136 0.42349 0.50385 0.0
H1333 H 0.56748 0.39693 0.47471 0.0
H1334 H 0.58188 0.38674 0.44582 0.0
H1335 H 0.56038 0.38546 0.51115 0.0
H1336 H 0.60747 0.45515 0.47815 0.0
H1337 H 0.64226 0.48498 0.46336 0.0
H1338 H 0.67543 0.49563 0.51985 0.0
H1339 H 0.64089 0.46566 0.53492 0.0
C1340 C 0.53218 0.44489 0.56719 0.0
C1341 C 0.54237 0.45192 0.58603 0.0
C1342 C 0.54137 0.4374 0.55266 0.0
C1343 C 0.56102 0.43697 0.55659 0.0
C1344 C 0.57131 0.44398 0.57527 0.0
C1345 C 0.56197 0.45118 0.58992 0.0
C1346 C 0.57103 0.42962 0.54095 0.0
C1347 C 0.59168 0.4453 0.53291 0.0
C1348 C 0.5596 0.40781 0.53301 0.0
C1349 C 0.53789 0.39046 0.54122 0.0
C1350 C 0.53564 0.385 0.56164 0.0
C1351 C 0.51508 0.3688 0.5693 0.0
C1352 C 0.49666 0.35784 0.55666 0.0
C1353 C 0.49879 0.36302 0.53632 0.0
C1354 C 0.51931 0.37922 0.52859 0.0
C1355 C 0.62895 0.41035 0.47439 0.0
C1356 C 0.61522 0.39988 0.4578 0.0
C1357 C 0.62052 0.41572 0.49115 0.0
C1358 C 0.59838 0.41131 0.4914 0.0
C1359 C 0.5846 0.40052 0.47494 0.0
C1360 C 0.59287 0.39473 0.45839 0.0
C1361 C 0.58952 0.4181 0.50862 0.0
C1362 C 0.56903 0.40231 0.51701 0.0
C1363 C 0.6009 0.43997 0.51662 0.0
C1364 C 0.62167 0.458 0.5076 0.0
C1365 C 0.62223 0.46374 0.48738 0.0
C1366 C 0.64189 0.48069 0.47895 0.0
C1367 C 0.66106 0.49215 0.49064 0.0
C1368 C 0.66058 0.48672 0.5108 0.0
C1369 C 0.64097 0.46976 0.51929 0.0
H1370 H 0.67627 0.50527 0.48409 0.0
H1371 H 0.48075 0.34531 0.56262 0.0
H1372 H 0.1255 0.53293 0.77483 0.0
H1373 H 0.1548 0.55112 0.74964 0.0
H1374 H 0.10598 0.54639 0.70694 0.0
H1375 H 0.0766 0.52765 0.7318 0.0
H1376 H 0.13353 0.53538 0.68993 0.0
H1377 H 0.1402 0.59519 0.73063 0.0
H1378 H 0.14483 0.61604 0.76177 0.0
H1379 H 0.20843 0.62112 0.77163 0.0
H1380 H 0.20402 0.59997 0.74069 0.0
H1381 H 0.22395 0.64251 0.6385 0.0
H1382 H 0.19819 0.62474 0.66631 0.0
H1383 H 0.20699 0.56753 0.66145 0.0
H1384 H 0.23236 0.58493 0.63337 0.0
H1385 H 0.19967 0.60971 0.70244 0.0
H1386 H 0.15755 0.5206 0.66963 0.0
H1387 H 0.15069 0.50211 0.6368 0.0
H1388 H 0.15377 0.55925 0.60862 0.0
H1389 H 0.16035 0.57794 0.64129 0.0
C1390 C 0.12099 0.53557 0.76001 0.0
C1391 C 0.09873 0.52894 0.75533 0.0
C1392 C 0.13777 0.54613 0.74569 0.0
C1393 C 0.13261 0.55032 0.72646 0.0
C1394 C 0.11036 0.54338 0.72168 0.0
C1395 C 0.09361 0.53284 0.73597 0.0
C1396 C 0.15031 0.56197 0.71125 0.0
C1397 C 0.14804 0.55158 0.69272 0.0
C1398 C 0.16906 0.58328 0.71474 0.0
C1399 C 0.17167 0.5958 0.73345 0.0
C1400 C 0.15508 0.60056 0.73954 0.0
C1401 C 0.15767 0.61247 0.75714 0.0
C1402 C 0.17689 0.61987 0.76869 0.0
C1403 C 0.19354 0.61535 0.76268 0.0
C1404 C 0.191 0.60341 0.74511 0.0
C1405 C 0.2206 0.62624 0.64347 0.0
C1406 C 0.23002 0.61503 0.63354 0.0
C1407 C 0.2059 0.61613 0.65941 0.0
C1408 C 0.20037 0.59465 0.66575 0.0
C1409 C 0.21068 0.58393 0.65656 0.0
C1410 C 0.22524 0.59395 0.64054 0.0
C1411 C 0.18296 0.58303 0.68121 0.0
C1412 C 0.18528 0.59341 0.69976 0.0
C1413 C 0.16393 0.56194 0.67758 0.0
C1414 C 0.15969 0.55074 0.65788 0.0
C1415 C 0.15669 0.52918 0.65643 0.0
C1416 C 0.15286 0.51867 0.63785 0.0
C1417 C 0.15188 0.52953 0.62063 0.0
C1418 C 0.15463 0.55089 0.62196 0.0
C1419 C 0.15843 0.56146 0.6405 0.0
H1420 H 0.14893 0.52138 0.60626 0.0
H1421 H 0.17889 0.62916 0.78227 0.0
H1422 H 0.56216 0.07795 0.89389 0.0
H1423 H 0.57581 0.10787 0.8689 0.0
H1424 H 0.59363 0.15648 0.91582 0.0
H1425 H 0.58059 0.12663 0.94095 0.0
H1426 H 0.56285 0.15294 0.87679 0.0
H1427 H 0.63406 0.16378 0.90155 0.0
H1428 H 0.65953 0.14994 0.91047 0.0
H1429 H 0.65509 0.12542 0.85078 0.0
H1430 H 0.62929 0.1388 0.84161 0.0
H1431 H 0.61302 0.24594 0.81111 0.0
H1432 H 0.6037 0.22161 0.84034 0.0
H1433 H 0.62179 0.17918 0.80779 0.0
H1434 H 0.63248 0.20422 0.77921 0.0
H1435 H 0.63553 0.18149 0.84246 0.0
H1436 H 0.56501 0.16731 0.81646 0.0
H1437 H 0.5367 0.17659 0.80529 0.0
H1438 H 0.53596 0.20197 0.8636 0.0
H1439 H 0.56447 0.19307 0.87505 0.0
C1440 C 0.56909 0.09504 0.89883 0.0
C1441 C 0.57042 0.10009 0.91927 0.0
C1442 C 0.57686 0.11205 0.8846 0.0
C1443 C 0.58569 0.13427 0.89061 0.0
C1444 C 0.58689 0.13938 0.91099 0.0
C1445 C 0.57956 0.12241 0.92526 0.0
C1446 C 0.59338 0.15205 0.87541 0.0
C1447 C 0.57889 0.15957 0.86947 0.0
C1448 C 0.61394 0.15994 0.86551 0.0
C1449 C 0.62956 0.15206 0.87097 0.0
C1450 C 0.63833 0.15522 0.8904 0.0
C1451 C 0.65287 0.14751 0.89548 0.0
C1452 C 0.65887 0.13675 0.88122 0.0
C1453 C 0.6504 0.13373 0.86182 0.0
C1454 C 0.63583 0.14138 0.85667 0.0
C1455 C 0.61506 0.23145 0.8103 0.0
C1456 C 0.62345 0.22694 0.79292 0.0
C1457 C 0.60959 0.21745 0.82695 0.0
C1458 C 0.61162 0.19824 0.82625 0.0
C1459 C 0.62012 0.19388 0.80885 0.0
C1460 C 0.62617 0.20818 0.79246 0.0
C1461 C 0.60493 0.18256 0.84347 0.0
C1462 C 0.61956 0.17524 0.84982 0.0
C1463 C 0.58418 0.1744 0.85338 0.0
C1464 C 0.56705 0.17976 0.84654 0.0
C1465 C 0.55892 0.17502 0.82685 0.0
C1466 C 0.54282 0.18018 0.82048 0.0
C1467 C 0.53459 0.18993 0.83371 0.0
C1468 C 0.54239 0.19446 0.85336 0.0
C1469 C 0.5585 0.18935 0.8598 0.0
H1470 H 0.52212 0.19392 0.82875 0.0
H1471 H 0.67014 0.13079 0.88518 0.0
H1472 H 0.46918 0.58131 0.10518 0.0
H1473 H 0.4504 0.59091 0.07947 0.0
H1474 H 0.50523 0.60856 0.03922 0.0
H1475 H 0.52364 0.59778 0.06428 0.0
H1476 H 0.48782 0.64067 0.04339 0.0
H1477 H 0.46499 0.56292 0.03054 0.0
H1478 H 0.44885 0.52358 0.04055 0.0
H1479 H 0.38767 0.52113 0.05659 0.0
H1480 H 0.40359 0.56058 0.04695 0.0
H1481 H 0.44798 0.64796 0.9491 0.0
H1482 H 0.4645 0.6404 0.97798 0.0
H1483 H 0.39934 0.60181 0.00457 0.0
H1484 H 0.38255 0.60845 0.97506 0.0
H1485 H 0.42032 0.58094 0.01006 0.0
H1486 H 0.43982 0.65618 0.02132 0.0
H1487 H 0.45454 0.6959 0.01354 0.0
H1488 H 0.51956 0.70439 0.00372 0.0
H1489 H 0.50517 0.66463 0.01117 0.0
C1490 C 0.4772 0.58694 0.0908 0.0
C1491 C 0.49795 0.58857 0.08686 0.0
C1492 C 0.4665 0.59263 0.07621 0.0
C1493 C 0.47646 0.60041 0.05751 0.0
C1494 C 0.49738 0.6027 0.05365 0.0
C1495 C 0.50793 0.59664 0.06808 0.0
C1496 C 0.46475 0.60546 0.04171 0.0
C1497 C 0.47317 0.62767 0.03592 0.0
C1498 C 0.44519 0.5885 0.03262 0.0
C1499 C 0.43557 0.56476 0.03825 0.0
C1500 C 0.44817 0.55405 0.03638 0.0
C1501 C 0.43905 0.53172 0.04195 0.0
C1502 C 0.41727 0.51988 0.04926 0.0
C1503 C 0.40455 0.53033 0.05096 0.0
C1504 C 0.41361 0.55267 0.04544 0.0
C1505 C 0.43716 0.63797 0.96114 0.0
C1506 C 0.41396 0.62888 0.95984 0.0
C1507 C 0.44665 0.63377 0.97775 0.0
C1508 C 0.43327 0.62092 0.99374 0.0
C1509 C 0.41006 0.61184 0.99249 0.0
C1510 C 0.40048 0.61567 0.97564 0.0
C1511 C 0.4435 0.61631 0.01131 0.0
C1512 C 0.43482 0.59412 0.01753 0.0
C1513 C 0.46258 0.6334 0.02109 0.0
C1514 C 0.47136 0.65736 0.01666 0.0
C1515 C 0.45722 0.66647 0.01737 0.0
C1516 C 0.46551 0.689 0.01304 0.0
C1517 C 0.48796 0.70264 0.0081 0.0
C1518 C 0.50218 0.69379 0.00753 0.0
C1519 C 0.49397 0.67127 0.01183 0.0
H1520 H 0.49434 0.72008 0.00475 0.0
H1521 H 0.41023 0.50259 0.05357 0.0
H1522 H 0.91392 0.44274 0.26263 0.0
H1523 H 0.88447 0.42648 0.23744 0.0
H1524 H 0.89652 0.49207 0.22209 0.0
H1525 H 0.92594 0.50843 0.24733 0.0
H1526 H 0.85264 0.46276 0.22346 0.0
H1527 H 0.91697 0.46573 0.1933 0.0
H1528 H 0.94844 0.45869 0.19107 0.0
H1529 H 0.90296 0.38814 0.19301 0.0
H1530 H 0.87122 0.39478 0.19553 0.0
H1531 H 0.80285 0.43968 0.12706 0.0
H1532 H 0.82751 0.45359 0.15599 0.0
H1533 H 0.81327 0.38685 0.16945 0.0
H1534 H 0.78878 0.37279 0.14033 0.0
H1535 H 0.8571 0.41556 0.17002 0.0
H1536 H 0.79238 0.41305 0.19837 0.0
H1537 H 0.76132 0.42074 0.20011 0.0
H1538 H 0.80781 0.49108 0.20092 0.0
H1539 H 0.83916 0.48382 0.19891 0.0
C1540 C 0.91036 0.4537 0.25382 0.0
C1541 C 0.92237 0.47688 0.25686 0.0
C1542 C 0.8935 0.44439 0.23947 0.0
C1543 C 0.88849 0.45809 0.22769 0.0
C1544 C 0.90009 0.48118 0.23101 0.0
C1545 C 0.91688 0.4905 0.24545 0.0
C1546 C 0.87153 0.4484 0.2116 0.0
C1547 C 0.85372 0.45263 0.21165 0.0
C1548 C 0.8727 0.4348 0.19642 0.0
C1549 C 0.89174 0.43076 0.19481 0.0
C1550 C 0.91369 0.44872 0.1934 0.0
C1551 C 0.93157 0.4448 0.19206 0.0
C1552 C 0.9277 0.42298 0.19195 0.0
C1553 C 0.90593 0.40504 0.19313 0.0
C1554 C 0.88799 0.40887 0.1945 0.0
C1555 C 0.80476 0.42788 0.13627 0.0
C1556 C 0.79385 0.4051 0.13132 0.0
C1557 C 0.81881 0.43587 0.15288 0.0
C1558 C 0.82211 0.42124 0.16499 0.0
C1559 C 0.81095 0.39844 0.16031 0.0
C1560 C 0.79691 0.39042 0.14368 0.0
C1561 C 0.83817 0.4299 0.18184 0.0
C1562 C 0.85588 0.42555 0.1819 0.0
C1563 C 0.83695 0.44347 0.19704 0.0
C1564 C 0.81812 0.44788 0.19831 0.0
C1565 C 0.79598 0.43016 0.19876 0.0
C1566 C 0.77832 0.43444 0.19983 0.0
C1567 C 0.78259 0.45638 0.20058 0.0
C1568 C 0.80453 0.47409 0.20032 0.0
C1569 C 0.82225 0.4699 0.19924 0.0
H1570 H 0.76889 0.45966 0.20141 0.0
H1571 H 0.94157 0.41998 0.19091 0.0
loop_
_geom_bond_atom_site_label_1
_geom_bond_atom_site_label_2
_geom_bond_distance
_geom_bond_site_symmetry_2
_ccdc_geom_bond_type
H0 C19 0.949 . S
H1 C20 0.950 . S
H2 C22 0.950 . S
H3 C23 0.950 . S
H4 C25 0.950 . S
H5 C28 0.950 . S
H6 C29 0.950 . S
H7 C31 0.951 . S
H8 C32 0.949 . S
H9 C34 0.949 . S
H10 C35 0.950 . S
H11 C37 0.950 . S
H12 C38 0.950 . S
H13 C40 0.952 . S
H14 C43 0.950 . S
H15 C44 0.950 . S
H16 C46 0.951 . S
H17 C47 0.949 . S
C18 C19 1.376 . S
C18 C23 1.386 . S
C18 C24 1.483 . S
C19 H0 0.949 . S
C19 C18 1.376 . S
C19 C20 1.397 . S
C20 H1 0.950 . S
C20 C19 1.397 . S
C20 C21 1.391 . S
C21 C20 1.391 . S
C21 C22 1.405 . S
C22 H2 0.950 . S
C22 C21 1.405 . S
C22 C23 1.367 . S
C23 H3 0.950 . S
C23 C18 1.386 . S
C23 C22 1.367 . S
C24 C18 1.483 . S
C24 C25 1.382 1_655 S
C24 C26 1.403 . S
C25 H4 0.950 . S
C25 C24 1.382 1_455 S
C25 C41 1.411 . S
C26 C24 1.403 . S
C26 C27 1.489 . S
C26 C40 1.411 1_655 S
C27 C26 1.489 . S
C27 C28 1.383 . S
C27 C32 1.382 . S
C28 H5 0.950 . S
C28 C27 1.383 . S
C28 C29 1.395 . S
C29 H6 0.950 . S
C29 C28 1.395 . S
C29 C30 1.288 . S
C30 C29 1.288 . S
C30 C31 1.392 . S
C31 H7 0.951 . S
C31 C30 1.392 . S
C31 C32 1.392 . S
C32 H8 0.949 . S
C32 C27 1.382 . S
C32 C31 1.392 . S
C33 C34 1.376 . S
C33 C38 1.386 . S
C33 C39 1.483 . S
C34 H9 0.949 . S
C34 C33 1.376 . S
C34 C35 1.397 . S
C35 H10 0.950 . S
C35 C34 1.397 . S
C35 C36 1.391 . S
C36 C35 1.391 . S
C36 C37 1.405 . S
C37 H11 0.950 . S
C37 C36 1.405 . S
C37 C38 1.367 . S
C38 H12 0.950 . S
C38 C33 1.386 . S
C38 C37 1.367 . S
C39 C33 1.483 . S
C39 C40 1.382 . S
C39 C41 1.403 . S
C40 H13 0.952 . S
C40 C26 1.411 1_455 S
C40 C39 1.382 . S
C41 C25 1.411 . S
C41 C39 1.403 . S
C41 C42 1.489 . S
C42 C41 1.489 . S
C42 C43 1.383 . S
C42 C47 1.382 . S
C43 H14 0.950 . S
C43 C42 1.383 . S
C43 C44 1.395 . S
C44 H15 0.950 . S
C44 C43 1.395 . S
C44 C45 1.288 . S
C45 C44 1.288 . S
C45 C46 1.392 . S
C46 H16 0.951 . S
C46 C45 1.392 . S
C46 C47 1.392 . S
C47 H17 0.949 . S
C47 C42 1.382 . S
C47 C46 1.392 . S
H48 C67 0.949 . S
H49 C68 0.950 . S
H50 C70 0.950 . S
H51 C71 0.950 . S
H52 C73 0.941 1_565 S
H53 C76 0.950 . S
H54 C77 0.950 . S
H55 C79 0.951 . S
H56 C80 0.949 . S
H57 C82 0.949 . S
H58 C83 0.950 . S
H59 C85 0.950 . S
H60 C86 0.950 . S
H61 C88 0.950 . S
H62 C91 0.950 . S
H63 C92 0.950 . S
H64 C94 0.951 . S
H65 C95 0.949 . S
C66 C67 1.376 . S
C66 C71 1.386 . S
C66 C72 1.483 . S
C67 H48 0.949 . S
C67 C66 1.376 . S
C67 C68 1.397 . S
C68 H49 0.950 . S
C68 C67 1.397 . S
C68 C69 1.391 . S
C69 C68 1.391 . S
C69 C70 1.405 . S
C70 H50 0.950 . S
C70 C69 1.405 . S
C70 C71 1.367 . S
C71 H51 0.950 . S
C71 C66 1.386 . S
C71 C70 1.367 . S
C72 C66 1.483 . S
C72 C73 1.382 1_565 S
C72 C74 1.403 . S
C73 H52 0.941 1_545 S
C73 C72 1.382 1_545 S
C73 C89 1.411 . S
C74 C72 1.403 . S
C74 C75 1.489 . S
C74 C88 1.411 1_565 S
C75 C74 1.489 . S
C75 C76 1.383 . S
C75 C80 1.382 . S
C76 H53 0.950 . S
C76 C75 1.383 . S
C76 C77 1.395 . S
C77 H54 0.950 . S
C77 C76 1.395 . S
C77 C78 1.288 . S
C78 C77 1.288 . S
C78 C79 1.392 . S
C79 H55 0.951 . S
C79 C78 1.392 . S
C79 C80 1.392 . S
C80 H56 0.949 . S
C80 C75 1.382 . S
C80 C79 1.392 . S
C81 C82 1.376 . S
C81 C86 1.386 . S
C81 C87 1.483 . S
C82 H57 0.949 . S
C82 C81 1.376 . S
C82 C83 1.397 . S
C83 H58 0.950 . S
C83 C82 1.397 . S
C83 C84 1.391 . S
C84 C83 1.391 . S
C84 C85 1.405 . S
C85 H59 0.950 . S
C85 C84 1.405 . S
C85 C86 1.367 . S
C86 H60 0.950 . S
C86 C81 1.386 . S
C86 C85 1.367 . S
C87 C81 1.483 . S
C87 C88 1.382 . S
C87 C89 1.403 . S
C88 H61 0.950 . S
C88 C74 1.411 1_545 S
C88 C87 1.382 . S
C89 C73 1.411 . S
C89 C87 1.403 . S
C89 C90 1.489 . S
C90 C89 1.489 . S
C90 C91 1.383 . S
C90 C95 1.382 . S
C91 H62 0.950 . S
C91 C90 1.383 . S
C91 C92 1.395 . S
C92 H63 0.950 . S
C92 C91 1.395 . S
C92 C93 1.288 . S
C93 C92 1.288 . S
C93 C94 1.392 . S
C94 H64 0.951 . S
C94 C93 1.392 . S
C94 C95 1.392 . S
C95 H65 0.949 . S
C95 C90 1.382 . S
C95 C94 1.392 . S
H96 C115 0.949 . S
H97 C116 0.950 . S
H98 C118 0.950 . S
H99 C119 0.950 . S
H100 C121 0.950 . S
H101 C124 0.950 . S
H102 C125 0.950 . S
H103 C127 0.951 . S
H104 C128 0.949 . S
H105 C130 0.949 . S
H106 C131 0.950 . S
H107 C133 0.950 . S
H108 C134 0.950 . S
H109 C136 0.950 . S
H110 C139 0.950 . S
H111 C140 0.950 . S
H112 C142 0.951 . S
H113 C143 0.949 . S
C114 C115 1.376 . S
C114 C119 1.386 . S
C114 C120 1.483 . S
C115 H96 0.949 . S
C115 C114 1.376 . S
C115 C116 1.397 . S
C116 H97 0.950 . S
C116 C115 1.397 . S
C116 C117 1.391 . S
C117 C116 1.391 . S
C117 C118 1.405 . S
C118 H98 0.950 . S
C118 C117 1.405 . S
C118 C119 1.367 . S
C119 H99 0.950 . S
C119 C114 1.386 . S
C119 C118 1.367 . S
C120 C114 1.483 . S
C120 C121 1.382 . S
C120 C122 1.403 . S
C121 H100 0.950 . S
C121 C120 1.382 . S
C121 C137 1.411 . S
C122 C120 1.403 . S
C122 C123 1.489 . S
C122 C136 1.411 . S
C123 C122 1.489 . S
C123 C124 1.383 . S
C123 C128 1.382 . S
C124 H101 0.950 . S
C124 C123 1.383 . S
C124 C125 1.395 . S
C125 H102 0.950 . S
C125 C124 1.395 . S
C125 C126 1.288 . S
C126 C125 1.288 . S
C126 C127 1.392 . S
C127 H103 0.951 . S
C127 C126 1.392 . S
C127 C128 1.392 . S
C128 H104 0.949 . S
C128 C123 1.382 . S
C128 C127 1.392 . S
C129 C130 1.376 . S
C129 C134 1.386 . S
C129 C135 1.483 . S
C130 H105 0.949 . S
C130 C129 1.376 . S
C130 C131 1.397 . S
C131 H106 0.950 . S
C131 C130 1.397 . S
C131 C132 1.391 . S
C132 C131 1.391 . S
C132 C133 1.405 . S
C133 H107 0.950 . S
C133 C132 1.405 . S
C133 C134 1.367 . S
C134 H108 0.950 . S
C134 C129 1.386 . S
C134 C133 1.367 . S
C135 C129 1.483 . S
C135 C136 1.382 . S
C135 C137 1.403 . S
C136 H109 0.950 . S
C136 C122 1.411 . S
C136 C135 1.382 . S
C137 C121 1.411 . S
C137 C135 1.403 . S
C137 C138 1.489 . S
C138 C137 1.489 . S
C138 C139 1.383 . S
C138 C143 1.382 . S
C139 H110 0.950 . S
C139 C138 1.383 . S
C139 C140 1.395 . S
C140 H111 0.950 . S
C140 C139 1.395 . S
C140 C141 1.288 . S
C141 C140 1.288 . S
C141 C142 1.392 . S
C142 H112 0.951 . S
C142 C141 1.392 . S
C142 C143 1.392 . S
C143 H113 0.949 . S
C143 C138 1.382 . S
C143 C142 1.392 . S
H144 C163 0.949 . S
H145 C164 0.950 . S
H146 C166 0.950 . S
H147 C167 0.950 . S
H148 C169 0.958 . S
H149 C172 0.950 . S
H150 C173 0.950 . S
H151 C175 0.951 . S
H152 C176 0.949 . S
H153 C178 0.949 . S
H154 C179 0.950 . S
H155 C181 0.950 . S
H156 C182 0.950 . S
H157 C184 0.950 . S
H158 C187 0.950 . S
H159 C188 0.950 . S
H160 C190 0.951 . S
H161 C191 0.949 . S
C162 C163 1.376 . S
C162 C167 1.386 . S
C162 C168 1.483 . S
C163 H144 0.949 . S
C163 C162 1.376 . S
C163 C164 1.397 . S
C164 H145 0.950 . S
C164 C163 1.397 . S
C164 C165 1.391 . S
C165 C164 1.391 . S
C165 C166 1.405 . S
C166 H146 0.950 . S
C166 C165 1.405 . S
C166 C167 1.367 . S
C167 H147 0.950 . S
C167 C162 1.386 . S
C167 C166 1.367 . S
C168 C162 1.483 . S
C168 C169 1.382 . S
C168 C170 1.403 . S
C169 H148 0.958 . S
C169 C168 1.382 . S
C169 C185 1.411 1_455 S
C170 C168 1.403 . S
C170 C171 1.489 . S
C170 C184 1.411 . S
C171 C170 1.489 . S
C171 C172 1.383 . S
C171 C176 1.382 . S
C172 H149 0.950 . S
C172 C171 1.383 . S
C172 C173 1.395 . S
C173 H150 0.950 . S
C173 C172 1.395 . S
C173 C174 1.288 . S
C174 C173 1.288 . S
C174 C175 1.392 . S
C175 H151 0.951 . S
C175 C174 1.392 . S
C175 C176 1.392 . S
C176 H152 0.949 . S
C176 C171 1.382 . S
C176 C175 1.392 . S
C177 C178 1.376 . S
C177 C182 1.386 . S
C177 C183 1.483 . S
C178 H153 0.949 . S
C178 C177 1.376 . S
C178 C179 1.397 . S
C179 H154 0.950 . S
C179 C178 1.397 . S
C179 C180 1.391 . S
C180 C179 1.391 . S
C180 C181 1.405 . S
C181 H155 0.950 . S
C181 C180 1.405 . S
C181 C182 1.367 . S
C182 H156 0.950 . S
C182 C177 1.386 . S
C182 C181 1.367 . S
C183 C177 1.483 . S
C183 C184 1.382 1_655 S
C183 C185 1.403 . S
C184 H157 0.950 . S
C184 C170 1.411 . S
C184 C183 1.382 1_455 S
C185 C169 1.411 1_655 S
C185 C183 1.403 . S
C185 C186 1.489 . S
C186 C185 1.489 . S
C186 C187 1.383 . S
C186 C191 1.382 . S
C187 H158 0.950 . S
C187 C186 1.383 . S
C187 C188 1.395 . S
C188 H159 0.950 . S
C188 C187 1.395 . S
C188 C189 1.288 . S
C189 C188 1.288 . S
C189 C190 1.392 . S
C190 H160 0.951 . S
C190 C189 1.392 . S
C190 C191 1.392 . S
C191 H161 0.949 . S
C191 C186 1.382 . S
C191 C190 1.392 . S
H192 C211 0.949 . S
H193 C212 0.950 . S
H194 C214 0.950 . S
H195 C215 0.950 . S
H196 C217 0.950 . S
H197 C220 0.950 . S
H198 C221 0.950 . S
H199 C223 0.951 . S
H200 C224 0.949 . S
H201 C226 0.949 . S
H202 C227 0.950 . S
H203 C229 0.950 . S
H204 C230 0.950 . S
H205 C232 0.950 1_565 S
H206 C235 0.950 . S
H207 C236 0.950 . S
H208 C238 0.951 . S
H209 C239 0.949 . S
C210 C211 1.376 . S
C210 C215 1.386 1_554 S
C210 C216 1.483 1_554 S
C211 H192 0.949 . S
C211 C210 1.376 . S
C211 C212 1.397 . S
C212 H193 0.950 . S
C212 C211 1.397 . S
C212 C213 1.391 . S
C213 C212 1.391 . S
C213 C214 1.405 . S
C214 H194 0.950 . S
C214 C213 1.405 . S
C214 C215 1.367 1_554 S
C215 H195 0.950 . S
C215 C210 1.386 1_556 S
C215 C214 1.367 1_556 S
C216 C210 1.483 1_556 S
C216 C217 1.382 1_556 S
C216 C218 1.403 . S
C217 H196 0.950 . S
C217 C216 1.382 1_554 S
C217 C233 1.411 1_545 S
C218 C216 1.403 . S
C218 C219 1.489 . S
C218 C232 1.411 . S
C219 C218 1.489 . S
C219 C220 1.383 . S
C219 C224 1.382 . S
C220 H197 0.950 . S
C220 C219 1.383 . S
C220 C221 1.395 . S
C221 H198 0.950 . S
C221 C220 1.395 . S
C221 C222 1.288 . S
C222 C221 1.288 . S
C222 C223 1.392 . S
C223 H199 0.951 . S
C223 C222 1.392 . S
C223 C224 1.392 . S
C224 H200 0.949 . S
C224 C219 1.382 . S
C224 C223 1.392 . S
C225 C226 1.376 . S
C225 C230 1.386 . S
C225 C231 1.483 . S
C226 H201 0.949 . S
C226 C225 1.376 . S
C226 C227 1.397 . S
C227 H202 0.950 . S
C227 C226 1.397 . S
C227 C228 1.391 . S
C228 C227 1.391 . S
C228 C229 1.405 . S
C229 H203 0.950 . S
C229 C228 1.405 . S
C229 C230 1.367 . S
C230 H204 0.950 . S
C230 C225 1.386 . S
C230 C229 1.367 . S
C231 C225 1.483 . S
C231 C232 1.382 1_565 S
C231 C233 1.403 1_556 S
C232 H205 0.950 1_545 S
C232 C218 1.411 . S
C232 C231 1.382 1_545 S
C233 C217 1.411 1_565 S
C233 C231 1.403 1_554 S
C233 C234 1.489 . S
C234 C233 1.489 . S
C234 C235 1.383 . S
C234 C239 1.382 . S
C235 H206 0.950 . S
C235 C234 1.383 . S
C235 C236 1.395 . S
C236 H207 0.950 . S
C236 C235 1.395 . S
C236 C237 1.288 . S
C237 C236 1.288 . S
C237 C238 1.392 . S
C238 H208 0.951 . S
C238 C237 1.392 . S
C238 C239 1.392 . S
C239 H209 0.949 . S
C239 C234 1.382 . S
C239 C238 1.392 . S
H240 C259 0.949 . S
H241 C260 0.950 . S
H242 C262 0.950 . S
H243 C263 0.950 . S
H244 C265 0.950 . S
H245 C268 0.950 . S
H246 C269 0.950 . S
H247 C271 0.951 . S
H248 C272 0.949 . S
H249 C274 0.949 . S
H250 C275 0.950 . S
H251 C277 0.950 . S
H252 C278 0.950 . S
H253 C280 0.950 . S
H254 C283 0.950 . S
H255 C284 0.950 . S
H256 C286 0.951 . S
H257 C287 0.949 . S
C258 C259 1.376 . S
C258 C263 1.386 . S
C258 C264 1.483 . S
C259 H240 0.949 . S
C259 C258 1.376 . S
C259 C260 1.397 . S
C260 H241 0.950 . S
C260 C259 1.397 . S
C260 C261 1.391 . S
C261 C260 1.391 . S
C261 C262 1.405 . S
C262 H242 0.950 . S
C262 C261 1.405 . S
C262 C263 1.367 . S
C263 H243 0.950 . S
C263 C258 1.386 . S
C263 C262 1.367 . S
C264 C258 1.483 . S
C264 C265 1.382 . S
C264 C266 1.403 . S
C265 H244 0.950 . S
C265 C264 1.382 . S
C265 C281 1.411 . S
C266 C264 1.403 . S
C266 C267 1.489 . S
C266 C280 1.411 . S
C267 C266 1.489 . S
C267 C268 1.383 . S
C267 C272 1.382 . S
C268 H245 0.950 . S
C268 C267 1.383 . S
C268 C269 1.395 . S
C269 H246 0.950 . S
C269 C268 1.395 . S
C269 C270 1.288 . S
C270 C269 1.288 . S
C270 C271 1.392 . S
C271 H247 0.951 . S
C271 C270 1.392 . S
C271 C272 1.392 . S
C272 H248 0.949 . S
C272 C267 1.382 . S
C272 C271 1.392 . S
C273 C274 1.376 . S
C273 C278 1.386 . S
C273 C279 1.483 . S
C274 H249 0.949 . S
C274 C273 1.376 . S
C274 C275 1.397 . S
C275 H250 0.950 . S
C275 C274 1.397 . S
C275 C276 1.391 . S
C276 C275 1.391 . S
C276 C277 1.405 . S
C277 H251 0.950 . S
C277 C276 1.405 . S
C277 C278 1.367 . S
C278 H252 0.950 . S
C278 C273 1.386 . S
C278 C277 1.367 . S
C279 C273 1.483 . S
C279 C280 1.382 . S
C279 C281 1.403 . S
C280 H253 0.950 . S
C280 C266 1.411 . S
C280 C279 1.382 . S
C281 C265 1.411 . S
C281 C279 1.403 . S
C281 C282 1.489 . S
C282 C281 1.489 . S
C282 C283 1.383 . S
C282 C287 1.382 . S
C283 H254 0.950 . S
C283 C282 1.383 . S
C283 C284 1.395 . S
C284 H255 0.950 . S
C284 C283 1.395 . S
C284 C285 1.288 . S
C285 C284 1.288 . S
C285 C286 1.392 . S
C286 H256 0.951 . S
C286 C285 1.392 . S
C286 C287 1.392 . S
C287 H257 0.949 . S
C287 C282 1.382 . S
C287 C286 1.392 . S
O288 Cd289 2.223 . S
O288 C296 1.315 . S
Cd289 O288 2.223 . S
Cd289 O292 2.297 . S
Cd289 O293 2.439 . S
Cd289 O299 2.240 . S
Cd290 O291 2.240 . S
Cd290 O298 2.223 . S
Cd290 O300 2.297 . S
Cd290 O301 2.439 . S
O291 Cd290 2.240 . S
O291 C296 1.279 . S
O292 Cd289 2.297 . S
O292 C294 1.247 . S
O293 Cd289 2.439 . S
O293 C294 1.208 . S
C294 O292 1.247 . S
C294 O293 1.208 . S
C295 O300 1.247 . S
C295 O301 1.208 . S
C296 O288 1.315 . S
C296 O291 1.279 . S
C297 O298 1.315 . S
C297 O299 1.279 . S
O298 Cd290 2.223 . S
O298 C297 1.315 . S
O299 Cd289 2.240 . S
O299 C297 1.279 . S
O300 Cd290 2.297 . S
O300 C295 1.247 . S
O301 Cd290 2.439 . S
O301 C295 1.208 . S
O302 Cd303 2.223 . S
O302 C310 1.315 . S
Cd303 O302 2.223 . S
Cd303 O306 2.297 . S
Cd303 O307 2.439 . S
Cd303 O313 2.240 . S
Cd304 O305 2.240 . S
Cd304 O312 2.223 . S
Cd304 O314 2.297 . S
Cd304 O315 2.439 . S
O305 Cd304 2.240 . S
O305 C310 1.279 . S
O306 Cd303 2.297 . S
O306 C308 1.247 . S
O307 Cd303 2.439 . S
O307 C308 1.208 . S
C308 O306 1.247 . S
C308 O307 1.208 . S
C309 O314 1.247 . S
C309 O315 1.208 . S
C310 O302 1.315 . S
C310 O305 1.279 . S
C311 O312 1.315 . S
C311 O313 1.279 . S
O312 Cd304 2.223 . S
O312 C311 1.315 . S
O313 Cd303 2.240 . S
O313 C311 1.279 . S
O314 Cd304 2.297 . S
O314 C309 1.247 . S
O315 Cd304 2.439 . S
O315 C309 1.208 . S
O316 Cd317 2.223 . S
O316 C324 1.315 . S
Cd317 O316 2.223 . S
Cd317 O320 2.297 . S
Cd317 O321 2.439 . S
Cd317 O327 2.240 . S
Cd318 O319 2.240 . S
Cd318 O326 2.223 . S
Cd318 O328 2.297 . S
Cd318 O329 2.439 . S
O319 Cd318 2.240 . S
O319 C324 1.279 . S
O320 Cd317 2.297 . S
O320 C322 1.247 . S
O321 Cd317 2.439 . S
O321 C322 1.208 . S
C322 O320 1.247 . S
C322 O321 1.208 . S
C323 O328 1.247 . S
C323 O329 1.208 . S
C324 O316 1.315 . S
C324 O319 1.279 . S
C325 O326 1.315 . S
C325 O327 1.279 . S
O326 Cd318 2.223 . S
O326 C325 1.315 . S
O327 Cd317 2.240 . S
O327 C325 1.279 . S
O328 Cd318 2.297 . S
O328 C323 1.247 . S
O329 Cd318 2.439 . S
O329 C323 1.208 . S
O330 Cd331 2.223 . S
O330 C338 1.315 . S
Cd331 O330 2.223 . S
Cd331 O334 2.297 . S
Cd331 O335 2.439 . S
Cd331 O341 2.240 . S
Cd332 O333 2.240 . S
Cd332 O340 2.223 . S
Cd332 O342 2.297 . S
Cd332 O343 2.439 . S
O333 Cd332 2.240 . S
O333 C338 1.279 . S
O334 Cd331 2.297 . S
O334 C336 1.247 . S
O335 Cd331 2.439 . S
O335 C336 1.208 . S
C336 O334 1.247 . S
C336 O335 1.208 . S
C337 O342 1.247 . S
C337 O343 1.208 . S
C338 O330 1.315 . S
C338 O333 1.279 . S
C339 O340 1.315 . S
C339 O341 1.279 . S
O340 Cd332 2.223 . S
O340 C339 1.315 . S
O341 Cd331 2.240 . S
O341 C339 1.279 . S
O342 Cd332 2.297 . S
O342 C337 1.247 . S
O343 Cd332 2.439 . S
O343 C337 1.208 . S
O344 Cd345 2.223 . S
O344 C352 1.315 . S
Cd345 O344 2.223 . S
Cd345 O348 2.297 . S
Cd345 O349 2.439 . S
Cd345 O355 2.240 . S
Cd346 O347 2.240 . S
Cd346 O354 2.223 . S
Cd346 O356 2.297 . S
Cd346 O357 2.439 . S
O347 Cd346 2.240 . S
O347 C352 1.279 . S
O348 Cd345 2.297 . S
O348 C350 1.247 . S
O349 Cd345 2.439 . S
O349 C350 1.208 . S
C350 O348 1.247 . S
C350 O349 1.208 . S
C351 O356 1.247 . S
C351 O357 1.208 . S
C352 O344 1.315 . S
C352 O347 1.279 . S
C353 O354 1.315 . S
C353 O355 1.279 . S
O354 Cd346 2.223 . S
O354 C353 1.315 . S
O355 Cd345 2.240 . S
O355 C353 1.279 . S
O356 Cd346 2.297 . S
O356 C351 1.247 . S
O357 Cd346 2.439 . S
O357 C351 1.208 . S
O358 Cd359 2.223 . S
O358 C366 1.315 . S
Cd359 O358 2.223 . S
Cd359 O362 2.297 . S
Cd359 O363 2.439 . S
Cd359 O369 2.240 . S
Cd360 O361 2.240 . S
Cd360 O368 2.223 . S
Cd360 O370 2.297 . S
Cd360 O371 2.439 . S
O361 Cd360 2.240 . S
O361 C366 1.279 . S
O362 Cd359 2.297 . S
O362 C364 1.247 . S
O363 Cd359 2.439 . S
O363 C364 1.208 . S
C364 O362 1.247 . S
C364 O363 1.208 . S
C365 O370 1.247 . S
C365 O371 1.208 . S
C366 O358 1.315 . S
C366 O361 1.279 . S
C367 O368 1.315 . S
C367 O369 1.279 . S
O368 Cd360 2.223 . S
O368 C367 1.315 . S
O369 Cd359 2.240 . S
O369 C367 1.279 . S
O370 Cd360 2.297 . S
O370 C365 1.247 . S
O371 Cd360 2.439 . S
O371 C365 1.208 . S
H372 C390 0.951 . S
H373 C392 0.951 . S
H374 C394 0.950 . S
H375 C395 0.950 . S
H376 C397 0.950 . S
H377 C400 0.950 . S
H378 C401 0.950 . S
H379 C403 0.950 . S
H380 C404 0.950 . S
H381 C405 0.951 . S
H382 C407 0.951 . S
H383 C409 0.950 . S
H384 C410 0.950 . S
H385 C412 0.950 . S
H386 C415 0.950 . S
H387 C416 0.950 . S
H388 C418 0.950 . S
H389 C419 0.950 . S
C390 H372 0.951 . S
C390 C391 1.366 . S
C390 C392 1.388 . S
C391 C390 1.366 . S
C391 C395 1.385 . S
C392 H373 0.951 . S
C392 C390 1.388 . S
C392 C393 1.366 . S
C393 C392 1.366 . S
C393 C394 1.414 . S
C393 C396 1.499 . S
C394 H374 0.950 . S
C394 C393 1.414 . S
C394 C395 1.374 . S
C395 H375 0.950 . S
C395 C391 1.385 . S
C395 C394 1.374 . S
C396 C393 1.499 . S
C396 C397 1.373 . S
C396 C398 1.389 . S
C397 H376 0.950 . S
C397 C396 1.373 . S
C397 C413 1.377 . S
C398 C396 1.389 . S
C398 C399 1.524 . S
C398 C412 1.377 . S
C399 C398 1.524 . S
C399 C400 1.397 . S
C399 C404 1.363 . S
C400 H377 0.950 . S
C400 C399 1.397 . S
C400 C401 1.334 . S
C401 H378 0.950 . S
C401 C400 1.334 . S
C401 C402 1.287 . S
C402 C401 1.287 . S
C402 C403 1.524 . S
C402 H421 0.913 . S
C403 H379 0.950 . S
C403 C402 1.524 . S
C403 C404 1.415 . S
C404 H380 0.950 . S
C404 C399 1.363 . S
C404 C403 1.415 . S
C405 H381 0.951 . S
C405 C406 1.366 . S
C405 C407 1.388 . S
C406 C405 1.366 . S
C406 C410 1.385 . S
C407 H382 0.951 . S
C407 C405 1.388 . S
C407 C408 1.366 . S
C408 C407 1.366 . S
C408 C409 1.414 . S
C408 C411 1.499 . S
C409 H383 0.950 . S
C409 C408 1.414 . S
C409 C410 1.374 . S
C410 H384 0.950 . S
C410 C406 1.385 . S
C410 C409 1.374 . S
C411 C408 1.499 . S
C411 C412 1.373 . S
C411 C413 1.389 . S
C412 H385 0.950 . S
C412 C398 1.377 . S
C412 C411 1.373 . S
C413 C397 1.377 . S
C413 C411 1.389 . S
C413 C414 1.524 . S
C414 C413 1.524 . S
C414 C415 1.397 . S
C414 C419 1.363 . S
C415 H386 0.950 . S
C415 C414 1.397 . S
C415 C416 1.334 . S
C416 H387 0.950 . S
C416 C415 1.334 . S
C416 C417 1.287 . S
C417 C416 1.287 . S
C417 C418 1.524 . S
C417 H420 0.999 . S
C418 H388 0.950 . S
C418 C417 1.524 . S
C418 C419 1.415 . S
C419 H389 0.950 . S
C419 C414 1.363 . S
C419 C418 1.415 . S
H420 C417 0.999 . S
H421 C402 0.913 . S
H422 C440 0.951 . S
H423 C442 0.951 . S
H424 C444 0.950 . S
H425 C445 0.950 . S
H426 C447 0.950 . S
H427 C450 0.950 . S
H428 C451 0.950 . S
H429 C453 0.950 . S
H430 C454 0.950 . S
H431 C455 0.951 . S
H432 C457 0.951 . S
H433 C459 0.950 . S
H434 C460 0.950 . S
H435 C462 0.950 . S
H436 C465 0.950 . S
H437 C466 0.950 . S
H438 C468 0.950 . S
H439 C469 0.950 . S
C440 H422 0.951 . S
C440 C441 1.366 . S
C440 C442 1.388 . S
C441 C440 1.366 . S
C441 C445 1.385 . S
C442 H423 0.951 . S
C442 C440 1.388 . S
C442 C443 1.366 . S
C443 C442 1.366 . S
C443 C444 1.414 . S
C443 C446 1.499 . S
C444 H424 0.950 . S
C444 C443 1.414 . S
C444 C445 1.374 . S
C445 H425 0.950 . S
C445 C441 1.385 . S
C445 C444 1.374 . S
C446 C443 1.499 . S
C446 C447 1.373 . S
C446 C448 1.389 . S
C447 H426 0.950 . S
C447 C446 1.373 . S
C447 C463 1.377 . S
C448 C446 1.389 . S
C448 C449 1.524 . S
C448 C462 1.377 . S
C449 C448 1.524 . S
C449 C450 1.397 . S
C449 C454 1.363 . S
C450 H427 0.950 . S
C450 C449 1.397 . S
C450 C451 1.334 . S
C451 H428 0.950 . S
C451 C450 1.334 . S
C451 C452 1.287 . S
C452 C451 1.287 . S
C452 C453 1.524 . S
C452 H471 0.913 . S
C453 H429 0.950 . S
C453 C452 1.524 . S
C453 C454 1.415 . S
C454 H430 0.950 . S
C454 C449 1.363 . S
C454 C453 1.415 . S
C455 H431 0.951 . S
C455 C456 1.366 . S
C455 C457 1.388 . S
C456 C455 1.366 . S
C456 C460 1.385 . S
C457 H432 0.951 . S
C457 C455 1.388 . S
C457 C458 1.366 . S
C458 C457 1.366 . S
C458 C459 1.414 . S
C458 C461 1.499 . S
C459 H433 0.950 . S
C459 C458 1.414 . S
C459 C460 1.374 . S
C460 H434 0.950 . S
C460 C456 1.385 . S
C460 C459 1.374 . S
C461 C458 1.499 . S
C461 C462 1.373 . S
C461 C463 1.389 . S
C462 H435 0.950 . S
C462 C448 1.377 . S
C462 C461 1.373 . S
C463 C447 1.377 . S
C463 C461 1.389 . S
C463 C464 1.524 . S
C464 C463 1.524 . S
C464 C465 1.397 . S
C464 C469 1.363 . S
C465 H436 0.950 . S
C465 C464 1.397 . S
C465 C466 1.334 . S
C466 H437 0.950 . S
C466 C465 1.334 . S
C466 C467 1.287 . S
C467 C466 1.287 . S
C467 C468 1.524 . S
C467 H470 0.999 . S
C468 H438 0.950 . S
C468 C467 1.524 . S
C468 C469 1.415 . S
C469 H439 0.950 . S
C469 C464 1.363 . S
C469 C468 1.415 . S
H470 C467 0.999 . S
H471 C452 0.913 . S
H472 C490 0.951 . S
H473 C492 0.951 . S
H474 C494 0.950 . S
H475 C495 0.950 . S
H476 C497 0.950 . S
H477 C500 0.950 . S
H478 C501 0.950 . S
H479 C503 0.950 . S
H480 C504 0.950 . S
H481 C505 0.951 . S
H482 C507 0.951 . S
H483 C509 0.950 . S
H484 C510 0.950 . S
H485 C512 0.950 . S
H486 C515 0.950 . S
H487 C516 0.950 . S
H488 C518 0.950 . S
H489 C519 0.950 . S
C490 H472 0.951 . S
C490 C491 1.366 . S
C490 C492 1.388 . S
C491 C490 1.366 . S
C491 C495 1.385 . S
C492 H473 0.951 . S
C492 C490 1.388 . S
C492 C493 1.366 . S
C493 C492 1.366 . S
C493 C494 1.414 . S
C493 C496 1.499 . S
C494 H474 0.950 . S
C494 C493 1.414 . S
C494 C495 1.374 . S
C495 H475 0.950 . S
C495 C491 1.385 . S
C495 C494 1.374 . S
C496 C493 1.499 . S
C496 C497 1.373 . S
C496 C498 1.389 . S
C497 H476 0.950 . S
C497 C496 1.373 . S
C497 C513 1.377 . S
C498 C496 1.389 . S
C498 C499 1.524 . S
C498 C512 1.377 . S
C499 C498 1.524 . S
C499 C500 1.397 . S
C499 C504 1.363 . S
C500 H477 0.950 . S
C500 C499 1.397 . S
C500 C501 1.334 . S
C501 H478 0.950 . S
C501 C500 1.334 . S
C501 C502 1.287 . S
C502 C501 1.287 . S
C502 C503 1.524 . S
C502 H521 0.913 . S
C503 H479 0.950 . S
C503 C502 1.524 . S
C503 C504 1.415 . S
C504 H480 0.950 . S
C504 C499 1.363 . S
C504 C503 1.415 . S
C505 H481 0.951 . S
C505 C506 1.366 . S
C505 C507 1.388 . S
C506 C505 1.366 . S
C506 C510 1.385 . S
C507 H482 0.951 . S
C507 C505 1.388 . S
C507 C508 1.366 . S
C508 C507 1.366 . S
C508 C509 1.414 . S
C508 C511 1.499 . S
C509 H483 0.950 . S
C509 C508 1.414 . S
C509 C510 1.374 . S
C510 H484 0.950 . S
C510 C506 1.385 . S
C510 C509 1.374 . S
C511 C508 1.499 . S
C511 C512 1.373 . S
C511 C513 1.389 . S
C512 H485 0.950 . S
C512 C498 1.377 . S
C512 C511 1.373 . S
C513 C497 1.377 . S
C513 C511 1.389 . S
C513 C514 1.524 . S
C514 C513 1.524 . S
C514 C515 1.397 . S
C514 C519 1.363 . S
C515 H486 0.950 . S
C515 C514 1.397 . S
C515 C516 1.334 . S
C516 H487 0.950 . S
C516 C515 1.334 . S
C516 C517 1.287 . S
C517 C516 1.287 . S
C517 C518 1.524 . S
C517 H520 0.999 . S
C518 H488 0.950 . S
C518 C517 1.524 . S
C518 C519 1.415 . S
C519 H489 0.950 . S
C519 C514 1.363 . S
C519 C518 1.415 . S
H520 C517 0.999 . S
H521 C502 0.913 . S
H522 C540 0.951 . S
H523 C542 0.951 . S
H524 C544 0.950 . S
H525 C545 0.950 . S
H526 C547 0.950 . S
H527 C550 0.950 . S
H528 C551 0.950 . S
H529 C553 0.950 . S
H530 C554 0.950 . S
H531 C555 0.951 . S
H532 C557 0.951 . S
H533 C559 0.950 . S
H534 C560 0.950 . S
H535 C562 0.950 . S
H536 C565 0.950 . S
H537 C566 0.950 . S
H538 C568 0.950 . S
H539 C569 0.950 . S
C540 H522 0.951 . S
C540 C541 1.366 . S
C540 C542 1.388 . S
C541 C540 1.366 . S
C541 C545 1.385 . S
C542 H523 0.951 . S
C542 C540 1.388 . S
C542 C543 1.366 . S
C543 C542 1.366 . S
C543 C544 1.414 . S
C543 C546 1.499 . S
C544 H524 0.950 . S
C544 C543 1.414 . S
C544 C545 1.374 . S
C545 H525 0.950 . S
C545 C541 1.385 . S
C545 C544 1.374 . S
C546 C543 1.499 . S
C546 C547 1.373 . S
C546 C548 1.389 . S
C547 H526 0.950 . S
C547 C546 1.373 . S
C547 C563 1.377 . S
C548 C546 1.389 . S
C548 C549 1.524 . S
C548 C562 1.377 . S
C549 C548 1.524 . S
C549 C550 1.397 . S
C549 C554 1.363 . S
C550 H527 0.950 . S
C550 C549 1.397 . S
C550 C551 1.334 . S
C551 H528 0.950 . S
C551 C550 1.334 . S
C551 C552 1.287 . S
C552 C551 1.287 . S
C552 C553 1.524 . S
C552 H571 0.913 . S
C553 H529 0.950 . S
C553 C552 1.524 . S
C553 C554 1.415 . S
C554 H530 0.950 . S
C554 C549 1.363 . S
C554 C553 1.415 . S
C555 H531 0.951 . S
C555 C556 1.366 . S
C555 C557 1.388 . S
C556 C555 1.366 . S
C556 C560 1.385 . S
C557 H532 0.951 . S
C557 C555 1.388 . S
C557 C558 1.366 . S
C558 C557 1.366 . S
C558 C559 1.414 . S
C558 C561 1.499 . S
C559 H533 0.950 . S
C559 C558 1.414 . S
C559 C560 1.374 . S
C560 H534 0.950 . S
C560 C556 1.385 . S
C560 C559 1.374 . S
C561 C558 1.499 . S
C561 C562 1.373 . S
C561 C563 1.389 . S
C562 H535 0.950 . S
C562 C548 1.377 . S
C562 C561 1.373 . S
C563 C547 1.377 . S
C563 C561 1.389 . S
C563 C564 1.524 . S
C564 C563 1.524 . S
C564 C565 1.397 . S
C564 C569 1.363 . S
C565 H536 0.950 . S
C565 C564 1.397 . S
C565 C566 1.334 . S
C566 H537 0.950 . S
C566 C565 1.334 . S
C566 C567 1.287 . S
C567 C566 1.287 . S
C567 C568 1.524 . S
C567 H570 0.999 . S
C568 H538 0.950 . S
C568 C567 1.524 . S
C568 C569 1.415 . S
C569 H539 0.950 . S
C569 C564 1.363 . S
C569 C568 1.415 . S
H570 C567 0.999 . S
H571 C552 0.913 . S
H572 C590 0.951 . S
H573 C592 0.951 . S
H574 C594 0.950 . S
H575 C595 0.950 . S
H576 C597 0.950 . S
H577 C600 0.950 . S
H578 C601 0.950 . S
H579 C603 0.950 . S
H580 C604 0.950 . S
H581 C605 0.951 . S
H582 C607 0.951 . S
H583 C609 0.950 . S
H584 C610 0.950 . S
H585 C612 0.950 . S
H586 C615 0.950 . S
H587 C616 0.950 . S
H588 C618 0.935 1_554 S
H589 C619 0.950 . S
C590 H572 0.951 . S
C590 C591 1.366 . S
C590 C592 1.388 . S
C591 C590 1.366 . S
C591 C595 1.385 . S
C592 H573 0.951 . S
C592 C590 1.388 . S
C592 C593 1.366 . S
C593 C592 1.366 . S
C593 C594 1.414 . S
C593 C596 1.499 . S
C594 H574 0.950 . S
C594 C593 1.414 . S
C594 C595 1.374 . S
C595 H575 0.950 . S
C595 C591 1.385 . S
C595 C594 1.374 . S
C596 C593 1.499 . S
C596 C597 1.373 . S
C596 C598 1.389 . S
C597 H576 0.950 . S
C597 C596 1.373 . S
C597 C613 1.377 . S
C598 C596 1.389 . S
C598 C599 1.524 . S
C598 C612 1.377 . S
C599 C598 1.524 . S
C599 C600 1.397 . S
C599 C604 1.363 . S
C600 H577 0.950 . S
C600 C599 1.397 . S
C600 C601 1.334 . S
C601 H578 0.950 . S
C601 C600 1.334 . S
C601 C602 1.287 . S
C602 C601 1.287 . S
C602 C603 1.524 . S
C602 H621 0.913 . S
C603 H579 0.950 . S
C603 C602 1.524 . S
C603 C604 1.415 . S
C604 H580 0.950 . S
C604 C599 1.363 . S
C604 C603 1.415 . S
C605 H581 0.951 . S
C605 C606 1.366 . S
C605 C607 1.388 . S
C606 C605 1.366 . S
C606 C610 1.385 . S
C607 H582 0.951 . S
C607 C605 1.388 . S
C607 C608 1.366 . S
C608 C607 1.366 . S
C608 C609 1.414 . S
C608 C611 1.499 . S
C609 H583 0.950 . S
C609 C608 1.414 . S
C609 C610 1.374 . S
C610 H584 0.950 . S
C610 C606 1.385 . S
C610 C609 1.374 . S
C611 C608 1.499 . S
C611 C612 1.373 . S
C611 C613 1.389 . S
C612 H585 0.950 . S
C612 C598 1.377 . S
C612 C611 1.373 . S
C613 C597 1.377 . S
C613 C611 1.389 . S
C613 C614 1.524 . S
C614 C613 1.524 . S
C614 C615 1.397 . S
C614 C619 1.363 . S
C615 H586 0.950 . S
C615 C614 1.397 . S
C615 C616 1.334 1_556 S
C616 H587 0.950 . S
C616 C615 1.334 1_554 S
C616 C617 1.287 . S
C617 C616 1.287 . S
C617 C618 1.507 1_554 S
C617 H620 0.999 . S
C618 H588 0.935 1_556 S
C618 C617 1.507 1_556 S
C618 C619 1.451 . S
C619 H589 0.950 . S
C619 C614 1.363 . S
C619 C618 1.451 . S
H620 C617 0.999 . S
H621 C602 0.913 . S
H622 C640 0.951 . S
H623 C642 0.951 . S
H624 C644 0.950 . S
H625 C645 0.950 . S
H626 C647 0.950 . S
H627 C650 0.950 . S
H628 C651 0.950 . S
H629 C653 0.950 . S
H630 C654 0.950 . S
H631 C655 0.951 . S
H632 C657 0.951 . S
H633 C659 0.950 . S
H634 C660 0.950 . S
H635 C662 0.950 . S
H636 C665 0.950 . S
H637 C666 0.950 . S
H638 C668 0.950 . S
H639 C669 0.950 . S
C640 H622 0.951 . S
C640 C641 1.366 . S
C640 C642 1.388 . S
C641 C640 1.366 . S
C641 C645 1.385 . S
C642 H623 0.951 . S
C642 C640 1.388 . S
C642 C643 1.366 . S
C643 C642 1.366 . S
C643 C644 1.414 . S
C643 C646 1.499 . S
C644 H624 0.950 . S
C644 C643 1.414 . S
C644 C645 1.374 . S
C645 H625 0.950 . S
C645 C641 1.385 . S
C645 C644 1.374 . S
C646 C643 1.499 . S
C646 C647 1.373 . S
C646 C648 1.389 . S
C647 H626 0.950 . S
C647 C646 1.373 . S
C647 C663 1.377 . S
C648 C646 1.389 . S
C648 C649 1.524 . S
C648 C662 1.377 . S
C649 C648 1.524 . S
C649 C650 1.397 . S
C649 C654 1.363 . S
C650 H627 0.950 . S
C650 C649 1.397 . S
C650 C651 1.334 . S
C651 H628 0.950 . S
C651 C650 1.334 . S
C651 C652 1.287 . S
C652 C651 1.287 . S
C652 C653 1.524 . S
C652 H671 0.913 . S
C653 H629 0.950 . S
C653 C652 1.524 . S
C653 C654 1.415 . S
C654 H630 0.950 . S
C654 C649 1.363 . S
C654 C653 1.415 . S
C655 H631 0.951 . S
C655 C656 1.366 . S
C655 C657 1.388 . S
C656 C655 1.366 . S
C656 C660 1.385 . S
C657 H632 0.951 . S
C657 C655 1.388 . S
C657 C658 1.366 . S
C658 C657 1.366 . S
C658 C659 1.414 . S
C658 C661 1.499 . S
C659 H633 0.950 . S
C659 C658 1.414 . S
C659 C660 1.374 . S
C660 H634 0.950 . S
C660 C656 1.385 . S
C660 C659 1.374 . S
C661 C658 1.499 . S
C661 C662 1.373 . S
C661 C663 1.389 . S
C662 H635 0.950 . S
C662 C648 1.377 . S
C662 C661 1.373 . S
C663 C647 1.377 . S
C663 C661 1.389 . S
C663 C664 1.524 . S
C664 C663 1.524 . S
C664 C665 1.397 . S
C664 C669 1.363 . S
C665 H636 0.950 . S
C665 C664 1.397 . S
C665 C666 1.334 . S
C666 H637 0.950 . S
C666 C665 1.334 . S
C666 C667 1.287 . S
C667 C666 1.287 . S
C667 C668 1.524 . S
C667 H670 0.999 . S
C668 H638 0.950 . S
C668 C667 1.524 . S
C668 C669 1.415 . S
C669 H639 0.950 . S
C669 C664 1.363 . S
C669 C668 1.415 . S
H670 C667 0.999 . S
H671 C652 0.913 . S
H672 C690 0.951 . S
H673 C692 0.951 . S
H674 C694 0.950 . S
H675 C695 0.950 . S
H676 C697 0.950 . S
H677 C700 0.950 . S
H678 C701 0.950 . S
H679 C703 0.950 . S
H680 C704 0.950 . S
H681 C705 0.951 . S
H682 C707 0.951 . S
H683 C709 0.950 . S
H684 C710 0.950 . S
H685 C712 0.950 . S
H686 C715 0.950 . S
H687 C716 0.950 . S
H688 C718 0.950 . S
H689 C719 0.950 . S
C690 H672 0.951 . S
C690 C691 1.366 . S
C690 C692 1.388 . S
C691 C690 1.366 . S
C691 C695 1.385 . S
C692 H673 0.951 . S
C692 C690 1.388 . S
C692 C693 1.366 . S
C693 C692 1.366 . S
C693 C694 1.414 . S
C693 C696 1.499 . S
C694 H674 0.950 . S
C694 C693 1.414 . S
C694 C695 1.374 . S
C695 H675 0.950 . S
C695 C691 1.385 . S
C695 C694 1.374 . S
C696 C693 1.499 . S
C696 C697 1.373 . S
C696 C698 1.389 . S
C697 H676 0.950 . S
C697 C696 1.373 . S
C697 C713 1.377 . S
C698 C696 1.389 . S
C698 C699 1.524 . S
C698 C712 1.377 . S
C699 C698 1.524 . S
C699 C700 1.397 . S
C699 C704 1.363 . S
C700 H677 0.950 . S
C700 C699 1.397 . S
C700 C701 1.334 . S
C701 H678 0.950 . S
C701 C700 1.334 . S
C701 C702 1.287 . S
C702 C701 1.287 . S
C702 C703 1.524 . S
C702 H721 0.913 . S
C703 H679 0.950 . S
C703 C702 1.524 . S
C703 C704 1.415 . S
C704 H680 0.950 . S
C704 C699 1.363 . S
C704 C703 1.415 . S
C705 H681 0.951 . S
C705 C706 1.366 . S
C705 C707 1.388 . S
C706 C705 1.366 . S
C706 C710 1.385 . S
C707 H682 0.951 . S
C707 C705 1.388 . S
C707 C708 1.366 . S
C708 C707 1.366 . S
C708 C709 1.414 . S
C708 C711 1.499 . S
C709 H683 0.950 . S
C709 C708 1.414 . S
C709 C710 1.374 . S
C710 H684 0.950 . S
C710 C706 1.385 . S
C710 C709 1.374 . S
C711 C708 1.499 . S
C711 C712 1.373 . S
C711 C713 1.389 . S
C712 H685 0.950 . S
C712 C698 1.377 . S
C712 C711 1.373 . S
C713 C697 1.377 . S
C713 C711 1.389 . S
C713 C714 1.524 . S
C714 C713 1.524 . S
C714 C715 1.397 . S
C714 C719 1.363 . S
C715 H686 0.950 . S
C715 C714 1.397 . S
C715 C716 1.334 . S
C716 H687 0.950 . S
C716 C715 1.334 . S
C716 C717 1.287 . S
C717 C716 1.287 . S
C717 C718 1.524 . S
C717 H720 0.999 . S
C718 H688 0.950 . S
C718 C717 1.524 . S
C718 C719 1.415 . S
C719 H689 0.950 . S
C719 C714 1.363 . S
C719 C718 1.415 . S
H720 C717 0.999 . S
H721 C702 0.913 . S
H722 C740 0.951 . S
H723 C742 0.951 . S
H724 C744 0.950 . S
H725 C745 0.950 . S
H726 C747 0.950 . S
H727 C750 0.950 . S
H728 C751 0.950 . S
H729 C753 0.950 . S
H730 C754 0.950 . S
H731 C755 0.951 . S
H732 C757 0.951 . S
H733 C759 0.950 . S
H734 C760 0.950 . S
H735 C762 0.950 . S
H736 C765 0.950 . S
H737 C766 0.950 . S
H738 C768 0.950 . S
H739 C769 0.950 . S
C740 H722 0.951 . S
C740 C741 1.366 . S
C740 C742 1.388 . S
C741 C740 1.366 . S
C741 C745 1.385 . S
C742 H723 0.951 . S
C742 C740 1.388 . S
C742 C743 1.366 . S
C743 C742 1.366 . S
C743 C744 1.414 . S
C743 C746 1.499 . S
C744 H724 0.950 . S
C744 C743 1.414 . S
C744 C745 1.374 . S
C745 H725 0.950 . S
C745 C741 1.385 . S
C745 C744 1.374 . S
C746 C743 1.499 . S
C746 C747 1.373 . S
C746 C748 1.389 . S
C747 H726 0.950 . S
C747 C746 1.373 . S
C747 C763 1.377 . S
C748 C746 1.389 . S
C748 C749 1.524 . S
C748 C762 1.377 . S
C749 C748 1.524 . S
C749 C750 1.397 . S
C749 C754 1.363 . S
C750 H727 0.950 . S
C750 C749 1.397 . S
C750 C751 1.334 . S
C751 H728 0.950 . S
C751 C750 1.334 . S
C751 C752 1.287 . S
C752 C751 1.287 . S
C752 C753 1.524 . S
C752 H771 0.913 . S
C753 H729 0.950 . S
C753 C752 1.524 . S
C753 C754 1.415 . S
C754 H730 0.950 . S
C754 C749 1.363 . S
C754 C753 1.415 . S
C755 H731 0.951 . S
C755 C756 1.366 . S
C755 C757 1.388 . S
C756 C755 1.366 . S
C756 C760 1.385 . S
C757 H732 0.951 . S
C757 C755 1.388 . S
C757 C758 1.366 . S
C758 C757 1.366 . S
C758 C759 1.414 . S
C758 C761 1.499 . S
C759 H733 0.950 . S
C759 C758 1.414 . S
C759 C760 1.374 . S
C760 H734 0.950 . S
C760 C756 1.385 . S
C760 C759 1.374 . S
C761 C758 1.499 . S
C761 C762 1.373 . S
C761 C763 1.389 . S
C762 H735 0.950 . S
C762 C748 1.377 . S
C762 C761 1.373 . S
C763 C747 1.377 . S
C763 C761 1.389 . S
C763 C764 1.524 . S
C764 C763 1.524 . S
C764 C765 1.397 . S
C764 C769 1.363 . S
C765 H736 0.950 . S
C765 C764 1.397 . S
C765 C766 1.334 . S
C766 H737 0.950 . S
C766 C765 1.334 . S
C766 C767 1.287 . S
C767 C766 1.287 . S
C767 C768 1.524 . S
C767 H770 0.999 . S
C768 H738 0.950 . S
C768 C767 1.524 . S
C768 C769 1.415 . S
C769 H739 0.950 . S
C769 C764 1.363 . S
C769 C768 1.415 . S
H770 C767 0.999 . S
H771 C752 0.913 . S
H772 C790 0.951 . S
H773 C792 0.951 . S
H774 C794 0.950 . S
H775 C795 0.950 . S
H776 C797 0.950 . S
H777 C800 0.950 . S
H778 C801 0.950 . S
H779 C803 0.950 . S
H780 C804 0.950 . S
H781 C805 0.951 . S
H782 C807 0.951 . S
H783 C809 0.950 . S
H784 C810 0.950 . S
H785 C812 0.950 . S
H786 C815 0.950 . S
H787 C816 0.950 . S
H788 C818 0.950 . S
H789 C819 0.950 . S
C790 H772 0.951 . S
C790 C791 1.366 . S
C790 C792 1.388 . S
C791 C790 1.366 . S
C791 C795 1.385 . S
C792 H773 0.951 . S
C792 C790 1.388 . S
C792 C793 1.366 . S
C793 C792 1.366 . S
C793 C794 1.414 . S
C793 C796 1.499 . S
C794 H774 0.950 . S
C794 C793 1.414 . S
C794 C795 1.374 . S
C795 H775 0.950 . S
C795 C791 1.385 . S
C795 C794 1.374 . S
C796 C793 1.499 . S
C796 C797 1.373 . S
C796 C798 1.389 . S
C797 H776 0.950 . S
C797 C796 1.373 . S
C797 C813 1.377 . S
C798 C796 1.389 . S
C798 C799 1.524 . S
C798 C812 1.377 . S
C799 C798 1.524 . S
C799 C800 1.397 . S
C799 C804 1.363 . S
C800 H777 0.950 . S
C800 C799 1.397 . S
C800 C801 1.334 . S
C801 H778 0.950 . S
C801 C800 1.334 . S
C801 C802 1.287 . S
C802 C801 1.287 . S
C802 C803 1.524 . S
C802 H821 0.913 . S
C803 H779 0.950 . S
C803 C802 1.524 . S
C803 C804 1.415 . S
C804 H780 0.950 . S
C804 C799 1.363 . S
C804 C803 1.415 . S
C805 H781 0.951 . S
C805 C806 1.366 . S
C805 C807 1.388 . S
C806 C805 1.366 . S
C806 C810 1.385 . S
C807 H782 0.951 . S
C807 C805 1.388 . S
C807 C808 1.366 . S
C808 C807 1.366 . S
C808 C809 1.414 . S
C808 C811 1.499 . S
C809 H783 0.950 . S
C809 C808 1.414 . S
C809 C810 1.374 . S
C810 H784 0.950 . S
C810 C806 1.385 . S
C810 C809 1.374 . S
C811 C808 1.499 . S
C811 C812 1.373 . S
C811 C813 1.389 . S
C812 H785 0.950 . S
C812 C798 1.377 . S
C812 C811 1.373 . S
C813 C797 1.377 . S
C813 C811 1.389 . S
C813 C814 1.524 . S
C814 C813 1.524 . S
C814 C815 1.397 . S
C814 C819 1.363 . S
C815 H786 0.950 . S
C815 C814 1.397 . S
C815 C816 1.334 . S
C816 H787 0.950 . S
C816 C815 1.334 . S
C816 C817 1.287 . S
C817 C816 1.287 . S
C817 C818 1.524 . S
C817 H820 0.999 . S
C818 H788 0.950 . S
C818 C817 1.524 . S
C818 C819 1.415 . S
C819 H789 0.950 . S
C819 C814 1.363 . S
C819 C818 1.415 . S
H820 C817 0.999 . S
H821 C802 0.913 . S
H822 C840 0.951 . S
H823 C842 0.951 . S
H824 C844 0.950 . S
H825 C845 0.950 . S
H826 C847 0.950 . S
H827 C850 0.950 . S
H828 C851 0.950 . S
H829 C853 0.950 . S
H830 C854 0.950 . S
H831 C855 0.951 . S
H832 C857 0.951 . S
H833 C859 0.950 . S
H834 C860 0.950 . S
H835 C862 0.950 . S
H836 C865 0.940 1_554 S
H837 C866 0.950 . S
H838 C868 0.950 . S
H839 C869 0.950 1_554 S
C840 H822 0.951 . S
C840 C841 1.366 . S
C840 C842 1.388 . S
C841 C840 1.366 . S
C841 C845 1.385 . S
C842 H823 0.951 . S
C842 C840 1.388 . S
C842 C843 1.366 . S
C843 C842 1.366 . S
C843 C844 1.414 . S
C843 C846 1.499 . S
C844 H824 0.950 . S
C844 C843 1.414 . S
C844 C845 1.374 . S
C845 H825 0.950 . S
C845 C841 1.385 . S
C845 C844 1.374 . S
C846 C843 1.499 . S
C846 C847 1.373 . S
C846 C848 1.389 . S
C847 H826 0.950 . S
C847 C846 1.373 . S
C847 C863 1.377 . S
C848 C846 1.389 . S
C848 C849 1.524 . S
C848 C862 1.377 . S
C849 C848 1.524 . S
C849 C850 1.397 . S
C849 C854 1.363 . S
C850 H827 0.950 . S
C850 C849 1.397 . S
C850 C851 1.334 . S
C851 H828 0.950 . S
C851 C850 1.334 . S
C851 C852 1.287 . S
C852 C851 1.287 . S
C852 C853 1.524 . S
C852 H871 0.913 . S
C853 H829 0.950 . S
C853 C852 1.524 . S
C853 C854 1.415 . S
C854 H830 0.950 . S
C854 C849 1.363 . S
C854 C853 1.415 . S
C855 H831 0.951 . S
C855 C856 1.366 . S
C855 C857 1.388 . S
C856 C855 1.366 . S
C856 C860 1.385 . S
C857 H832 0.951 . S
C857 C855 1.388 . S
C857 C858 1.366 . S
C858 C857 1.366 . S
C858 C859 1.414 . S
C858 C861 1.499 . S
C859 H833 0.950 . S
C859 C858 1.414 . S
C859 C860 1.374 . S
C860 H834 0.950 . S
C860 C856 1.385 . S
C860 C859 1.374 . S
C861 C858 1.499 . S
C861 C862 1.373 . S
C861 C863 1.389 . S
C862 H835 0.950 . S
C862 C848 1.377 . S
C862 C861 1.373 . S
C863 C847 1.377 . S
C863 C861 1.389 . S
C863 C864 1.524 . S
C864 C863 1.524 . S
C864 C865 1.388 1_554 S
C864 C869 1.363 1_554 S
C865 H836 0.940 1_556 S
C865 C864 1.388 1_556 S
C865 C866 1.353 . S
C866 H837 0.950 . S
C866 C865 1.353 . S
C866 C867 1.287 . S
C867 C866 1.287 . S
C867 C868 1.524 . S
C867 H870 0.999 . S
C868 H838 0.950 . S
C868 C867 1.524 . S
C868 C869 1.415 . S
C869 H839 0.950 1_556 S
C869 C864 1.363 1_556 S
C869 C868 1.415 . S
H870 C867 0.999 . S
H871 C852 0.913 . S
H872 C890 0.951 . S
H873 C892 0.951 . S
H874 C894 0.950 . S
H875 C895 0.950 . S
H876 C897 0.950 . S
H877 C900 0.950 . S
H878 C901 0.950 . S
H879 C903 0.950 . S
H880 C904 0.950 . S
H881 C905 0.951 . S
H882 C907 0.951 . S
H883 C909 0.950 . S
H884 C910 0.950 . S
H885 C912 0.950 . S
H886 C915 0.950 . S
H887 C916 0.950 . S
H888 C918 0.950 . S
H889 C919 0.950 . S
C890 H872 0.951 . S
C890 C891 1.366 . S
C890 C892 1.388 . S
C891 C890 1.366 . S
C891 C895 1.385 . S
C892 H873 0.951 . S
C892 C890 1.388 . S
C892 C893 1.366 . S
C893 C892 1.366 . S
C893 C894 1.414 . S
C893 C896 1.499 . S
C894 H874 0.950 . S
C894 C893 1.414 . S
C894 C895 1.374 . S
C895 H875 0.950 . S
C895 C891 1.385 . S
C895 C894 1.374 . S
C896 C893 1.499 . S
C896 C897 1.373 . S
C896 C898 1.389 . S
C897 H876 0.950 . S
C897 C896 1.373 . S
C897 C913 1.377 . S
C898 C896 1.389 . S
C898 C899 1.524 . S
C898 C912 1.377 . S
C899 C898 1.524 . S
C899 C900 1.397 . S
C899 C904 1.363 . S
C900 H877 0.950 . S
C900 C899 1.397 . S
C900 C901 1.334 . S
C901 H878 0.950 . S
C901 C900 1.334 . S
C901 C902 1.287 . S
C902 C901 1.287 . S
C902 C903 1.524 . S
C902 H921 0.913 . S
C903 H879 0.950 . S
C903 C902 1.524 . S
C903 C904 1.415 . S
C904 H880 0.950 . S
C904 C899 1.363 . S
C904 C903 1.415 . S
C905 H881 0.951 . S
C905 C906 1.366 . S
C905 C907 1.388 . S
C906 C905 1.366 . S
C906 C910 1.385 . S
C907 H882 0.951 . S
C907 C905 1.388 . S
C907 C908 1.366 . S
C908 C907 1.366 . S
C908 C909 1.414 . S
C908 C911 1.499 . S
C909 H883 0.950 . S
C909 C908 1.414 . S
C909 C910 1.374 . S
C910 H884 0.950 . S
C910 C906 1.385 . S
C910 C909 1.374 . S
C911 C908 1.499 . S
C911 C912 1.373 . S
C911 C913 1.389 . S
C912 H885 0.950 . S
C912 C898 1.377 . S
C912 C911 1.373 . S
C913 C897 1.377 . S
C913 C911 1.389 . S
C913 C914 1.524 . S
C914 C913 1.524 . S
C914 C915 1.397 . S
C914 C919 1.363 . S
C915 H886 0.950 . S
C915 C914 1.397 . S
C915 C916 1.334 . S
C916 H887 0.950 . S
C916 C915 1.334 . S
C916 C917 1.287 . S
C917 C916 1.287 . S
C917 C918 1.524 . S
C917 H920 0.999 . S
C918 H888 0.950 . S
C918 C917 1.524 . S
C918 C919 1.415 . S
C919 H889 0.950 . S
C919 C914 1.363 . S
C919 C918 1.415 . S
H920 C917 0.999 . S
H921 C902 0.913 . S
H922 C940 0.951 . S
H923 C942 0.951 . S
H924 C944 0.950 . S
H925 C945 0.950 . S
H926 C947 0.950 . S
H927 C950 0.950 . S
H928 C951 0.950 . S
H929 C953 0.950 . S
H930 C954 0.950 . S
H931 C955 0.951 . S
H932 C957 0.951 . S
H933 C959 0.950 . S
H934 C960 0.950 . S
H935 C962 0.950 . S
H936 C965 0.950 . S
H937 C966 0.950 . S
H938 C968 0.950 . S
H939 C969 0.950 . S
C940 H922 0.951 . S
C940 C941 1.366 . S
C940 C942 1.388 . S
C941 C940 1.366 . S
C941 C945 1.385 . S
C942 H923 0.951 . S
C942 C940 1.388 . S
C942 C943 1.366 . S
C943 C942 1.366 . S
C943 C944 1.414 . S
C943 C946 1.499 . S
C944 H924 0.950 . S
C944 C943 1.414 . S
C944 C945 1.374 . S
C945 H925 0.950 . S
C945 C941 1.385 . S
C945 C944 1.374 . S
C946 C943 1.499 . S
C946 C947 1.373 . S
C946 C948 1.389 . S
C947 H926 0.950 . S
C947 C946 1.373 . S
C947 C963 1.377 . S
C948 C946 1.389 . S
C948 C949 1.524 . S
C948 C962 1.377 . S
C949 C948 1.524 . S
C949 C950 1.397 . S
C949 C954 1.363 . S
C950 H927 0.950 . S
C950 C949 1.397 . S
C950 C951 1.334 . S
C951 H928 0.950 . S
C951 C950 1.334 . S
C951 C952 1.287 . S
C952 C951 1.287 . S
C952 C953 1.524 . S
C952 H971 0.913 . S
C953 H929 0.950 . S
C953 C952 1.524 . S
C953 C954 1.415 . S
C954 H930 0.950 . S
C954 C949 1.363 . S
C954 C953 1.415 . S
C955 H931 0.951 . S
C955 C956 1.366 . S
C955 C957 1.388 . S
C956 C955 1.366 . S
C956 C960 1.385 . S
C957 H932 0.951 . S
C957 C955 1.388 . S
C957 C958 1.366 . S
C958 C957 1.366 . S
C958 C959 1.414 . S
C958 C961 1.499 . S
C959 H933 0.950 . S
C959 C958 1.414 . S
C959 C960 1.374 . S
C960 H934 0.950 . S
C960 C956 1.385 . S
C960 C959 1.374 . S
C961 C958 1.499 . S
C961 C962 1.373 . S
C961 C963 1.389 . S
C962 H935 0.950 . S
C962 C948 1.377 . S
C962 C961 1.373 . S
C963 C947 1.377 . S
C963 C961 1.389 . S
C963 C964 1.524 . S
C964 C963 1.524 . S
C964 C965 1.397 . S
C964 C969 1.363 . S
C965 H936 0.950 . S
C965 C964 1.397 . S
C965 C966 1.334 . S
C966 H937 0.950 . S
C966 C965 1.334 . S
C966 C967 1.287 . S
C967 C966 1.287 . S
C967 C968 1.524 . S
C967 H970 0.999 . S
C968 H938 0.950 . S
C968 C967 1.524 . S
C968 C969 1.415 . S
C969 H939 0.950 . S
C969 C964 1.363 . S
C969 C968 1.415 . S
H970 C967 0.999 . S
H971 C952 0.913 . S
H972 C990 0.951 . S
H973 C992 0.951 . S
H974 C994 0.950 . S
H975 C995 0.950 . S
H976 C997 0.950 . S
H977 C1000 0.950 . S
H978 C1001 0.950 . S
H979 C1003 0.950 . S
H980 C1004 0.950 . S
H981 C1005 0.951 . S
H982 C1007 0.951 . S
H983 C1009 0.950 . S
H984 C1010 0.950 . S
H985 C1012 0.950 . S
H986 C1015 0.950 . S
H987 C1016 0.950 . S
H988 C1018 0.950 . S
H989 C1019 0.950 . S
C990 H972 0.951 . S
C990 C991 1.366 . S
C990 C992 1.388 . S
C991 C990 1.366 . S
C991 C995 1.385 . S
C992 H973 0.951 . S
C992 C990 1.388 . S
C992 C993 1.366 . S
C993 C992 1.366 . S
C993 C994 1.414 . S
C993 C996 1.499 . S
C994 H974 0.950 . S
C994 C993 1.414 . S
C994 C995 1.374 . S
C995 H975 0.950 . S
C995 C991 1.385 . S
C995 C994 1.374 . S
C996 C993 1.499 . S
C996 C997 1.373 . S
C996 C998 1.389 . S
C997 H976 0.950 . S
C997 C996 1.373 . S
C997 C1013 1.377 . S
C998 C996 1.389 . S
C998 C999 1.524 . S
C998 C1012 1.377 . S
C999 C998 1.524 . S
C999 C1000 1.397 . S
C999 C1004 1.363 . S
C1000 H977 0.950 . S
C1000 C999 1.397 . S
C1000 C1001 1.334 . S
C1001 H978 0.950 . S
C1001 C1000 1.334 . S
C1001 C1002 1.287 . S
C1002 C1001 1.287 . S
C1002 C1003 1.524 . S
C1002 H1021 0.913 . S
C1003 H979 0.950 . S
C1003 C1002 1.524 . S
C1003 C1004 1.415 . S
C1004 H980 0.950 . S
C1004 C999 1.363 . S
C1004 C1003 1.415 . S
C1005 H981 0.951 . S
C1005 C1006 1.366 . S
C1005 C1007 1.388 . S
C1006 C1005 1.366 . S
C1006 C1010 1.385 . S
C1007 H982 0.951 . S
C1007 C1005 1.388 . S
C1007 C1008 1.366 . S
C1008 C1007 1.366 . S
C1008 C1009 1.414 . S
C1008 C1011 1.499 . S
C1009 H983 0.950 . S
C1009 C1008 1.414 . S
C1009 C1010 1.374 . S
C1010 H984 0.950 . S
C1010 C1006 1.385 . S
C1010 C1009 1.374 . S
C1011 C1008 1.499 . S
C1011 C1012 1.373 . S
C1011 C1013 1.389 . S
C1012 H985 0.950 . S
C1012 C998 1.377 . S
C1012 C1011 1.373 . S
C1013 C997 1.377 . S
C1013 C1011 1.389 . S
C1013 C1014 1.524 . S
C1014 C1013 1.524 . S
C1014 C1015 1.397 . S
C1014 C1019 1.363 . S
C1015 H986 0.950 . S
C1015 C1014 1.397 . S
C1015 C1016 1.334 . S
C1016 H987 0.950 . S
C1016 C1015 1.334 . S
C1016 C1017 1.287 . S
C1017 C1016 1.287 . S
C1017 C1018 1.524 . S
C1017 H1020 0.999 . S
C1018 H988 0.950 . S
C1018 C1017 1.524 . S
C1018 C1019 1.415 . S
C1019 H989 0.950 . S
C1019 C1014 1.363 . S
C1019 C1018 1.415 . S
H1020 C1017 0.999 . S
H1021 C1002 0.913 . S
H1022 C1040 0.951 . S
H1023 C1042 0.951 . S
H1024 C1044 0.950 . S
H1025 C1045 0.950 . S
H1026 C1047 0.950 . S
H1027 C1050 0.950 . S
H1028 C1051 0.950 . S
H1029 C1053 0.950 . S
H1030 C1054 0.950 . S
H1031 C1055 0.951 . S
H1032 C1057 0.951 . S
H1033 C1059 0.950 . S
H1034 C1060 0.950 . S
H1035 C1062 0.950 . S
H1036 C1065 0.950 . S
H1037 C1066 0.950 . S
H1038 C1068 0.950 . S
H1039 C1069 0.950 . S
C1040 H1022 0.951 . S
C1040 C1041 1.366 . S
C1040 C1042 1.388 . S
C1041 C1040 1.366 . S
C1041 C1045 1.385 . S
C1042 H1023 0.951 . S
C1042 C1040 1.388 . S
C1042 C1043 1.366 . S
C1043 C1042 1.366 . S
C1043 C1044 1.414 . S
C1043 C1046 1.499 . S
C1044 H1024 0.950 . S
C1044 C1043 1.414 . S
C1044 C1045 1.374 . S
C1045 H1025 0.950 . S
C1045 C1041 1.385 . S
C1045 C1044 1.374 . S
C1046 C1043 1.499 . S
C1046 C1047 1.373 . S
C1046 C1048 1.389 . S
C1047 H1026 0.950 . S
C1047 C1046 1.373 . S
C1047 C1063 1.377 . S
C1048 C1046 1.389 . S
C1048 C1049 1.524 . S
C1048 C1062 1.377 . S
C1049 C1048 1.524 . S
C1049 C1050 1.397 . S
C1049 C1054 1.363 . S
C1050 H1027 0.950 . S
C1050 C1049 1.397 . S
C1050 C1051 1.334 . S
C1051 H1028 0.950 . S
C1051 C1050 1.334 . S
C1051 C1052 1.287 . S
C1052 C1051 1.287 . S
C1052 C1053 1.524 . S
C1052 H1071 0.913 . S
C1053 H1029 0.950 . S
C1053 C1052 1.524 . S
C1053 C1054 1.415 . S
C1054 H1030 0.950 . S
C1054 C1049 1.363 . S
C1054 C1053 1.415 . S
C1055 H1031 0.951 . S
C1055 C1056 1.366 . S
C1055 C1057 1.388 . S
C1056 C1055 1.366 . S
C1056 C1060 1.385 . S
C1057 H1032 0.951 . S
C1057 C1055 1.388 . S
C1057 C1058 1.366 . S
C1058 C1057 1.366 . S
C1058 C1059 1.414 . S
C1058 C1061 1.499 . S
C1059 H1033 0.950 . S
C1059 C1058 1.414 . S
C1059 C1060 1.374 . S
C1060 H1034 0.950 . S
C1060 C1056 1.385 . S
C1060 C1059 1.374 . S
C1061 C1058 1.499 . S
C1061 C1062 1.373 . S
C1061 C1063 1.389 . S
C1062 H1035 0.950 . S
C1062 C1048 1.377 . S
C1062 C1061 1.373 . S
C1063 C1047 1.377 . S
C1063 C1061 1.389 . S
C1063 C1064 1.524 . S
C1064 C1063 1.524 . S
C1064 C1065 1.397 . S
C1064 C1069 1.363 . S
C1065 H1036 0.950 . S
C1065 C1064 1.397 . S
C1065 C1066 1.334 . S
C1066 H1037 0.950 . S
C1066 C1065 1.334 . S
C1066 C1067 1.287 . S
C1067 C1066 1.287 . S
C1067 C1068 1.524 . S
C1067 H1070 0.999 . S
C1068 H1038 0.950 . S
C1068 C1067 1.524 . S
C1068 C1069 1.415 . S
C1069 H1039 0.950 . S
C1069 C1064 1.363 . S
C1069 C1068 1.415 . S
H1070 C1067 0.999 . S
H1071 C1052 0.913 . S
H1072 C1090 0.951 . S
H1073 C1092 0.951 . S
H1074 C1094 0.950 . S
H1075 C1095 0.950 . S
H1076 C1097 0.950 . S
H1077 C1100 0.950 . S
H1078 C1101 0.950 . S
H1079 C1103 0.950 . S
H1080 C1104 0.950 . S
H1081 C1105 0.951 . S
H1082 C1107 0.951 . S
H1083 C1109 0.950 . S
H1084 C1110 0.950 . S
H1085 C1112 0.950 . S
H1086 C1115 0.950 . S
H1087 C1116 0.950 . S
H1088 C1118 0.950 . S
H1089 C1119 0.950 . S
C1090 H1072 0.951 . S
C1090 C1091 1.366 . S
C1090 C1092 1.388 . S
C1091 C1090 1.366 . S
C1091 C1095 1.385 . S
C1092 H1073 0.951 . S
C1092 C1090 1.388 . S
C1092 C1093 1.366 . S
C1093 C1092 1.366 . S
C1093 C1094 1.414 . S
C1093 C1096 1.499 . S
C1094 H1074 0.950 . S
C1094 C1093 1.414 . S
C1094 C1095 1.374 . S
C1095 H1075 0.950 . S
C1095 C1091 1.385 . S
C1095 C1094 1.374 . S
C1096 C1093 1.499 . S
C1096 C1097 1.373 . S
C1096 C1098 1.389 . S
C1097 H1076 0.950 . S
C1097 C1096 1.373 . S
C1097 C1113 1.377 . S
C1098 C1096 1.389 . S
C1098 C1099 1.524 . S
C1098 C1112 1.377 . S
C1099 C1098 1.524 . S
C1099 C1100 1.397 . S
C1099 C1104 1.363 . S
C1100 H1077 0.950 . S
C1100 C1099 1.397 . S
C1100 C1101 1.334 . S
C1101 H1078 0.950 . S
C1101 C1100 1.334 . S
C1101 C1102 1.287 . S
C1102 C1101 1.287 . S
C1102 C1103 1.524 . S
C1102 H1121 0.913 . S
C1103 H1079 0.950 . S
C1103 C1102 1.524 . S
C1103 C1104 1.415 . S
C1104 H1080 0.950 . S
C1104 C1099 1.363 . S
C1104 C1103 1.415 . S
C1105 H1081 0.951 . S
C1105 C1106 1.366 . S
C1105 C1107 1.388 . S
C1106 C1105 1.366 . S
C1106 C1110 1.385 . S
C1107 H1082 0.951 . S
C1107 C1105 1.388 . S
C1107 C1108 1.366 . S
C1108 C1107 1.366 . S
C1108 C1109 1.414 . S
C1108 C1111 1.499 . S
C1109 H1083 0.950 . S
C1109 C1108 1.414 . S
C1109 C1110 1.374 . S
C1110 H1084 0.950 . S
C1110 C1106 1.385 . S
C1110 C1109 1.374 . S
C1111 C1108 1.499 . S
C1111 C1112 1.373 . S
C1111 C1113 1.389 . S
C1112 H1085 0.950 . S
C1112 C1098 1.377 . S
C1112 C1111 1.373 . S
C1113 C1097 1.377 . S
C1113 C1111 1.389 . S
C1113 C1114 1.524 . S
C1114 C1113 1.524 . S
C1114 C1115 1.397 . S
C1114 C1119 1.363 . S
C1115 H1086 0.950 . S
C1115 C1114 1.397 . S
C1115 C1116 1.334 . S
C1116 H1087 0.950 . S
C1116 C1115 1.334 . S
C1116 C1117 1.287 . S
C1117 C1116 1.287 . S
C1117 C1118 1.524 . S
C1117 H1120 0.999 . S
C1118 H1088 0.950 . S
C1118 C1117 1.524 . S
C1118 C1119 1.415 . S
C1119 H1089 0.950 . S
C1119 C1114 1.363 . S
C1119 C1118 1.415 . S
H1120 C1117 0.999 . S
H1121 C1102 0.913 . S
H1122 C1140 0.951 . S
H1123 C1142 0.951 . S
H1124 C1144 0.950 . S
H1125 C1145 0.950 . S
H1126 C1147 0.950 . S
H1127 C1150 0.950 . S
H1128 C1151 0.950 . S
H1129 C1153 0.950 . S
H1130 C1154 0.950 1_554 S
H1131 C1155 0.951 . S
H1132 C1157 0.925 1_556 S
H1133 C1159 0.950 . S
H1134 C1160 0.950 . S
H1135 C1162 0.950 1_554 S
H1136 C1165 0.950 . S
H1137 C1166 0.950 . S
H1138 C1168 0.950 . S
H1139 C1169 0.950 . S
C1140 H1122 0.951 . S
C1140 C1141 1.366 . S
C1140 C1142 1.388 . S
C1141 C1140 1.366 . S
C1141 C1145 1.385 . S
C1142 H1123 0.951 . S
C1142 C1140 1.388 . S
C1142 C1143 1.366 . S
C1143 C1142 1.366 . S
C1143 C1144 1.414 . S
C1143 C1146 1.499 . S
C1144 H1124 0.950 . S
C1144 C1143 1.414 . S
C1144 C1145 1.374 . S
C1145 H1125 0.950 . S
C1145 C1141 1.385 . S
C1145 C1144 1.374 . S
C1146 C1143 1.499 . S
C1146 C1147 1.373 . S
C1146 C1148 1.389 . S
C1147 H1126 0.950 . S
C1147 C1146 1.373 . S
C1147 C1163 1.377 . S
C1148 C1146 1.389 . S
C1148 C1149 1.524 . S
C1148 C1162 1.377 . S
C1149 C1148 1.524 . S
C1149 C1150 1.397 . S
C1149 C1154 1.363 . S
C1150 H1127 0.950 . S
C1150 C1149 1.397 . S
C1150 C1151 1.334 . S
C1151 H1128 0.950 . S
C1151 C1150 1.334 . S
C1151 C1152 1.287 . S
C1152 C1151 1.287 . S
C1152 C1153 1.524 1_556 S
C1152 H1171 0.913 . S
C1153 H1129 0.950 . S
C1153 C1152 1.524 1_554 S
C1153 C1154 1.415 1_554 S
C1154 H1130 0.950 1_556 S
C1154 C1149 1.363 . S
C1154 C1153 1.415 1_556 S
C1155 H1131 0.951 . S
C1155 C1156 1.366 . S
C1155 C1157 1.409 . S
C1156 C1155 1.366 . S
C1156 C1160 1.385 . S
C1157 H1132 0.925 1_554 S
C1157 C1155 1.409 . S
C1157 C1158 1.370 . S
C1158 C1157 1.370 . S
C1158 C1159 1.414 . S
C1158 C1161 1.499 1_554 S
C1159 H1133 0.950 . S
C1159 C1158 1.414 . S
C1159 C1160 1.374 . S
C1160 H1134 0.950 . S
C1160 C1156 1.385 . S
C1160 C1159 1.374 . S
C1161 C1158 1.499 1_556 S
C1161 C1162 1.373 . S
C1161 C1163 1.389 . S
C1162 H1135 0.950 1_556 S
C1162 C1148 1.377 . S
C1162 C1161 1.373 . S
C1163 C1147 1.377 . S
C1163 C1161 1.389 . S
C1163 C1164 1.524 . S
C1164 C1163 1.524 . S
C1164 C1165 1.397 . S
C1164 C1169 1.363 . S
C1165 H1136 0.950 . S
C1165 C1164 1.397 . S
C1165 C1166 1.334 . S
C1166 H1137 0.950 . S
C1166 C1165 1.334 . S
C1166 C1167 1.287 . S
C1167 C1166 1.287 . S
C1167 C1168 1.524 . S
C1167 H1170 0.999 . S
C1168 H1138 0.950 . S
C1168 C1167 1.524 . S
C1168 C1169 1.415 . S
C1169 H1139 0.950 . S
C1169 C1164 1.363 . S
C1169 C1168 1.415 . S
H1170 C1167 0.999 . S
H1171 C1152 0.913 . S
H1172 C1190 0.951 . S
H1173 C1192 0.951 . S
H1174 C1194 0.950 . S
H1175 C1195 0.950 . S
H1176 C1197 0.950 . S
H1177 C1200 0.950 . S
H1178 C1201 0.950 . S
H1179 C1203 0.950 . S
H1180 C1204 0.950 . S
H1181 C1205 0.951 . S
H1182 C1207 0.951 . S
H1183 C1209 0.950 . S
H1184 C1210 0.950 . S
H1185 C1212 0.950 . S
H1186 C1215 0.950 . S
H1187 C1216 0.950 . S
H1188 C1218 0.950 . S
H1189 C1219 0.950 . S
C1190 H1172 0.951 . S
C1190 C1191 1.366 . S
C1190 C1192 1.388 . S
C1191 C1190 1.366 . S
C1191 C1195 1.385 . S
C1192 H1173 0.951 . S
C1192 C1190 1.388 . S
C1192 C1193 1.366 . S
C1193 C1192 1.366 . S
C1193 C1194 1.414 . S
C1193 C1196 1.499 . S
C1194 H1174 0.950 . S
C1194 C1193 1.414 . S
C1194 C1195 1.374 . S
C1195 H1175 0.950 . S
C1195 C1191 1.385 . S
C1195 C1194 1.374 . S
C1196 C1193 1.499 . S
C1196 C1197 1.373 . S
C1196 C1198 1.389 . S
C1197 H1176 0.950 . S
C1197 C1196 1.373 . S
C1197 C1213 1.377 . S
C1198 C1196 1.389 . S
C1198 C1199 1.524 . S
C1198 C1212 1.377 . S
C1199 C1198 1.524 . S
C1199 C1200 1.397 . S
C1199 C1204 1.363 . S
C1200 H1177 0.950 . S
C1200 C1199 1.397 . S
C1200 C1201 1.334 . S
C1201 H1178 0.950 . S
C1201 C1200 1.334 . S
C1201 C1202 1.287 . S
C1202 C1201 1.287 . S
C1202 C1203 1.524 . S
C1202 H1221 0.913 . S
C1203 H1179 0.950 . S
C1203 C1202 1.524 . S
C1203 C1204 1.415 . S
C1204 H1180 0.950 . S
C1204 C1199 1.363 . S
C1204 C1203 1.415 . S
C1205 H1181 0.951 . S
C1205 C1206 1.366 . S
C1205 C1207 1.388 . S
C1206 C1205 1.366 . S
C1206 C1210 1.385 . S
C1207 H1182 0.951 . S
C1207 C1205 1.388 . S
C1207 C1208 1.366 . S
C1208 C1207 1.366 . S
C1208 C1209 1.414 . S
C1208 C1211 1.499 . S
C1209 H1183 0.950 . S
C1209 C1208 1.414 . S
C1209 C1210 1.374 . S
C1210 H1184 0.950 . S
C1210 C1206 1.385 . S
C1210 C1209 1.374 . S
C1211 C1208 1.499 . S
C1211 C1212 1.373 . S
C1211 C1213 1.389 . S
C1212 H1185 0.950 . S
C1212 C1198 1.377 . S
C1212 C1211 1.373 . S
C1213 C1197 1.377 . S
C1213 C1211 1.389 . S
C1213 C1214 1.524 . S
C1214 C1213 1.524 . S
C1214 C1215 1.397 . S
C1214 C1219 1.363 . S
C1215 H1186 0.950 . S
C1215 C1214 1.397 . S
C1215 C1216 1.334 . S
C1216 H1187 0.950 . S
C1216 C1215 1.334 . S
C1216 C1217 1.287 . S
C1217 C1216 1.287 . S
C1217 C1218 1.524 . S
C1217 H1220 0.999 . S
C1218 H1188 0.950 . S
C1218 C1217 1.524 . S
C1218 C1219 1.415 . S
C1219 H1189 0.950 . S
C1219 C1214 1.363 . S
C1219 C1218 1.415 . S
H1220 C1217 0.999 . S
H1221 C1202 0.913 . S
H1222 C1240 0.951 . S
H1223 C1242 0.951 . S
H1224 C1244 0.950 . S
H1225 C1245 0.950 . S
H1226 C1247 0.950 . S
H1227 C1250 0.950 . S
H1228 C1251 0.950 . S
H1229 C1253 0.950 . S
H1230 C1254 0.950 . S
H1231 C1255 0.951 . S
H1232 C1257 0.951 . S
H1233 C1259 0.950 . S
H1234 C1260 0.950 . S
H1235 C1262 0.950 . S
H1236 C1265 0.950 . S
H1237 C1266 0.950 . S
H1238 C1268 0.950 . S
H1239 C1269 0.950 . S
C1240 H1222 0.951 . S
C1240 C1241 1.366 . S
C1240 C1242 1.388 . S
C1241 C1240 1.366 . S
C1241 C1245 1.385 . S
C1242 H1223 0.951 . S
C1242 C1240 1.388 . S
C1242 C1243 1.366 . S
C1243 C1242 1.366 . S
C1243 C1244 1.414 . S
C1243 C1246 1.499 . S
C1244 H1224 0.950 . S
C1244 C1243 1.414 . S
C1244 C1245 1.374 . S
C1245 H1225 0.950 . S
C1245 C1241 1.385 . S
C1245 C1244 1.374 . S
C1246 C1243 1.499 . S
C1246 C1247 1.373 . S
C1246 C1248 1.389 . S
C1247 H1226 0.950 . S
C1247 C1246 1.373 . S
C1247 C1263 1.377 . S
C1248 C1246 1.389 . S
C1248 C1249 1.524 . S
C1248 C1262 1.377 . S
C1249 C1248 1.524 . S
C1249 C1250 1.397 . S
C1249 C1254 1.363 . S
C1250 H1227 0.950 . S
C1250 C1249 1.397 . S
C1250 C1251 1.334 . S
C1251 H1228 0.950 . S
C1251 C1250 1.334 . S
C1251 C1252 1.287 . S
C1252 C1251 1.287 . S
C1252 C1253 1.524 . S
C1252 H1271 0.913 . S
C1253 H1229 0.950 . S
C1253 C1252 1.524 . S
C1253 C1254 1.415 . S
C1254 H1230 0.950 . S
C1254 C1249 1.363 . S
C1254 C1253 1.415 . S
C1255 H1231 0.951 . S
C1255 C1256 1.366 . S
C1255 C1257 1.388 . S
C1256 C1255 1.366 . S
C1256 C1260 1.385 . S
C1257 H1232 0.951 . S
C1257 C1255 1.388 . S
C1257 C1258 1.366 . S
C1258 C1257 1.366 . S
C1258 C1259 1.414 . S
C1258 C1261 1.499 . S
C1259 H1233 0.950 . S
C1259 C1258 1.414 . S
C1259 C1260 1.374 . S
C1260 H1234 0.950 . S
C1260 C1256 1.385 . S
C1260 C1259 1.374 . S
C1261 C1258 1.499 . S
C1261 C1262 1.373 . S
C1261 C1263 1.389 . S
C1262 H1235 0.950 . S
C1262 C1248 1.377 . S
C1262 C1261 1.373 . S
C1263 C1247 1.377 . S
C1263 C1261 1.389 . S
C1263 C1264 1.524 . S
C1264 C1263 1.524 . S
C1264 C1265 1.397 . S
C1264 C1269 1.363 . S
C1265 H1236 0.950 . S
C1265 C1264 1.397 . S
C1265 C1266 1.334 . S
C1266 H1237 0.950 . S
C1266 C1265 1.334 . S
C1266 C1267 1.287 . S
C1267 C1266 1.287 . S
C1267 C1268 1.524 . S
C1267 H1270 0.999 . S
C1268 H1238 0.950 . S
C1268 C1267 1.524 . S
C1268 C1269 1.415 . S
C1269 H1239 0.950 . S
C1269 C1264 1.363 . S
C1269 C1268 1.415 . S
H1270 C1267 0.999 . S
H1271 C1252 0.913 . S
H1272 C1290 0.951 . S
H1273 C1292 0.951 . S
H1274 C1294 0.950 . S
H1275 C1295 0.950 . S
H1276 C1297 0.950 . S
H1277 C1300 0.950 . S
H1278 C1301 0.950 . S
H1279 C1303 0.950 . S
H1280 C1304 0.950 . S
H1281 C1305 0.951 . S
H1282 C1307 0.951 . S
H1283 C1309 0.950 . S
H1284 C1310 0.950 . S
H1285 C1312 0.950 . S
H1286 C1315 0.950 . S
H1287 C1316 0.950 . S
H1288 C1318 0.950 . S
H1289 C1319 0.950 . S
C1290 H1272 0.951 . S
C1290 C1291 1.366 . S
C1290 C1292 1.388 . S
C1291 C1290 1.366 . S
C1291 C1295 1.385 . S
C1292 H1273 0.951 . S
C1292 C1290 1.388 . S
C1292 C1293 1.366 . S
C1293 C1292 1.366 . S
C1293 C1294 1.414 . S
C1293 C1296 1.499 . S
C1294 H1274 0.950 . S
C1294 C1293 1.414 . S
C1294 C1295 1.374 . S
C1295 H1275 0.950 . S
C1295 C1291 1.385 . S
C1295 C1294 1.374 . S
C1296 C1293 1.499 . S
C1296 C1297 1.373 . S
C1296 C1298 1.389 . S
C1297 H1276 0.950 . S
C1297 C1296 1.373 . S
C1297 C1313 1.377 . S
C1298 C1296 1.389 . S
C1298 C1299 1.524 . S
C1298 C1312 1.377 . S
C1299 C1298 1.524 . S
C1299 C1300 1.397 . S
C1299 C1304 1.363 . S
C1300 H1277 0.950 . S
C1300 C1299 1.397 . S
C1300 C1301 1.334 . S
C1301 H1278 0.950 . S
C1301 C1300 1.334 . S
C1301 C1302 1.287 . S
C1302 C1301 1.287 . S
C1302 C1303 1.524 . S
C1302 H1321 0.913 . S
C1303 H1279 0.950 . S
C1303 C1302 1.524 . S
C1303 C1304 1.415 . S
C1304 H1280 0.950 . S
C1304 C1299 1.363 . S
C1304 C1303 1.415 . S
C1305 H1281 0.951 . S
C1305 C1306 1.366 . S
C1305 C1307 1.388 . S
C1306 C1305 1.366 . S
C1306 C1310 1.385 . S
C1307 H1282 0.951 . S
C1307 C1305 1.388 . S
C1307 C1308 1.366 . S
C1308 C1307 1.366 . S
C1308 C1309 1.414 . S
C1308 C1311 1.499 . S
C1309 H1283 0.950 . S
C1309 C1308 1.414 . S
C1309 C1310 1.374 . S
C1310 H1284 0.950 . S
C1310 C1306 1.385 . S
C1310 C1309 1.374 . S
C1311 C1308 1.499 . S
C1311 C1312 1.373 . S
C1311 C1313 1.389 . S
C1312 H1285 0.950 . S
C1312 C1298 1.377 . S
C1312 C1311 1.373 . S
C1313 C1297 1.377 . S
C1313 C1311 1.389 . S
C1313 C1314 1.524 . S
C1314 C1313 1.524 . S
C1314 C1315 1.397 . S
C1314 C1319 1.363 . S
C1315 H1286 0.950 . S
C1315 C1314 1.397 . S
C1315 C1316 1.334 . S
C1316 H1287 0.950 . S
C1316 C1315 1.334 . S
C1316 C1317 1.287 . S
C1317 C1316 1.287 . S
C1317 C1318 1.524 . S
C1317 H1320 0.999 . S
C1318 H1288 0.950 . S
C1318 C1317 1.524 . S
C1318 C1319 1.415 . S
C1319 H1289 0.950 . S
C1319 C1314 1.363 . S
C1319 C1318 1.415 . S
H1320 C1317 0.999 . S
H1321 C1302 0.913 . S
H1322 C1340 0.951 . S
H1323 C1342 0.951 . S
H1324 C1344 0.950 . S
H1325 C1345 0.950 . S
H1326 C1347 0.950 . S
H1327 C1350 0.950 . S
H1328 C1351 0.950 . S
H1329 C1353 0.950 . S
H1330 C1354 0.950 . S
H1331 C1355 0.951 . S
H1332 C1357 0.951 . S
H1333 C1359 0.950 . S
H1334 C1360 0.950 . S
H1335 C1362 0.950 . S
H1336 C1365 0.950 . S
H1337 C1366 0.950 . S
H1338 C1368 0.950 . S
H1339 C1369 0.950 . S
C1340 H1322 0.951 . S
C1340 C1341 1.366 . S
C1340 C1342 1.388 . S
C1341 C1340 1.366 . S
C1341 C1345 1.385 . S
C1342 H1323 0.951 . S
C1342 C1340 1.388 . S
C1342 C1343 1.366 . S
C1343 C1342 1.366 . S
C1343 C1344 1.414 . S
C1343 C1346 1.499 . S
C1344 H1324 0.950 . S
C1344 C1343 1.414 . S
C1344 C1345 1.374 . S
C1345 H1325 0.950 . S
C1345 C1341 1.385 . S
C1345 C1344 1.374 . S
C1346 C1343 1.499 . S
C1346 C1347 1.373 . S
C1346 C1348 1.389 . S
C1347 H1326 0.950 . S
C1347 C1346 1.373 . S
C1347 C1363 1.377 . S
C1348 C1346 1.389 . S
C1348 C1349 1.524 . S
C1348 C1362 1.377 . S
C1349 C1348 1.524 . S
C1349 C1350 1.397 . S
C1349 C1354 1.363 . S
C1350 H1327 0.950 . S
C1350 C1349 1.397 . S
C1350 C1351 1.334 . S
C1351 H1328 0.950 . S
C1351 C1350 1.334 . S
C1351 C1352 1.287 . S
C1352 C1351 1.287 . S
C1352 C1353 1.524 . S
C1352 H1371 0.913 . S
C1353 H1329 0.950 . S
C1353 C1352 1.524 . S
C1353 C1354 1.415 . S
C1354 H1330 0.950 . S
C1354 C1349 1.363 . S
C1354 C1353 1.415 . S
C1355 H1331 0.951 . S
C1355 C1356 1.366 . S
C1355 C1357 1.388 . S
C1356 C1355 1.366 . S
C1356 C1360 1.385 . S
C1357 H1332 0.951 . S
C1357 C1355 1.388 . S
C1357 C1358 1.366 . S
C1358 C1357 1.366 . S
C1358 C1359 1.414 . S
C1358 C1361 1.499 . S
C1359 H1333 0.950 . S
C1359 C1358 1.414 . S
C1359 C1360 1.374 . S
C1360 H1334 0.950 . S
C1360 C1356 1.385 . S
C1360 C1359 1.374 . S
C1361 C1358 1.499 . S
C1361 C1362 1.373 . S
C1361 C1363 1.389 . S
C1362 H1335 0.950 . S
C1362 C1348 1.377 . S
C1362 C1361 1.373 . S
C1363 C1347 1.377 . S
C1363 C1361 1.389 . S
C1363 C1364 1.524 . S
C1364 C1363 1.524 . S
C1364 C1365 1.397 . S
C1364 C1369 1.363 . S
C1365 H1336 0.950 . S
C1365 C1364 1.397 . S
C1365 C1366 1.334 . S
C1366 H1337 0.950 . S
C1366 C1365 1.334 . S
C1366 C1367 1.287 . S
C1367 C1366 1.287 . S
C1367 C1368 1.524 . S
C1367 H1370 0.999 . S
C1368 H1338 0.950 . S
C1368 C1367 1.524 . S
C1368 C1369 1.415 . S
C1369 H1339 0.950 . S
C1369 C1364 1.363 . S
C1369 C1368 1.415 . S
H1370 C1367 0.999 . S
H1371 C1352 0.913 . S
H1372 C1390 0.951 . S
H1373 C1392 0.951 . S
H1374 C1394 0.950 . S
H1375 C1395 0.950 . S
H1376 C1397 0.950 . S
H1377 C1400 0.950 . S
H1378 C1401 0.950 . S
H1379 C1403 0.950 . S
H1380 C1404 0.950 . S
H1381 C1405 0.951 . S
H1382 C1407 0.951 . S
H1383 C1409 0.950 . S
H1384 C1410 0.950 . S
H1385 C1412 0.950 . S
H1386 C1415 0.950 . S
H1387 C1416 0.950 . S
H1388 C1418 0.950 . S
H1389 C1419 0.950 . S
C1390 H1372 0.951 . S
C1390 C1391 1.366 . S
C1390 C1392 1.388 . S
C1391 C1390 1.366 . S
C1391 C1395 1.385 . S
C1392 H1373 0.951 . S
C1392 C1390 1.388 . S
C1392 C1393 1.366 . S
C1393 C1392 1.366 . S
C1393 C1394 1.414 . S
C1393 C1396 1.499 . S
C1394 H1374 0.950 . S
C1394 C1393 1.414 . S
C1394 C1395 1.374 . S
C1395 H1375 0.950 . S
C1395 C1391 1.385 . S
C1395 C1394 1.374 . S
C1396 C1393 1.499 . S
C1396 C1397 1.373 . S
C1396 C1398 1.389 . S
C1397 H1376 0.950 . S
C1397 C1396 1.373 . S
C1397 C1413 1.377 . S
C1398 C1396 1.389 . S
C1398 C1399 1.524 . S
C1398 C1412 1.377 . S
C1399 C1398 1.524 . S
C1399 C1400 1.397 . S
C1399 C1404 1.363 . S
C1400 H1377 0.950 . S
C1400 C1399 1.397 . S
C1400 C1401 1.334 . S
C1401 H1378 0.950 . S
C1401 C1400 1.334 . S
C1401 C1402 1.287 . S
C1402 C1401 1.287 . S
C1402 C1403 1.524 . S
C1402 H1421 0.913 . S
C1403 H1379 0.950 . S
C1403 C1402 1.524 . S
C1403 C1404 1.415 . S
C1404 H1380 0.950 . S
C1404 C1399 1.363 . S
C1404 C1403 1.415 . S
C1405 H1381 0.951 . S
C1405 C1406 1.366 . S
C1405 C1407 1.388 . S
C1406 C1405 1.366 . S
C1406 C1410 1.385 . S
C1407 H1382 0.951 . S
C1407 C1405 1.388 . S
C1407 C1408 1.366 . S
C1408 C1407 1.366 . S
C1408 C1409 1.414 . S
C1408 C1411 1.499 . S
C1409 H1383 0.950 . S
C1409 C1408 1.414 . S
C1409 C1410 1.374 . S
C1410 H1384 0.950 . S
C1410 C1406 1.385 . S
C1410 C1409 1.374 . S
C1411 C1408 1.499 . S
C1411 C1412 1.373 . S
C1411 C1413 1.389 . S
C1412 H1385 0.950 . S
C1412 C1398 1.377 . S
C1412 C1411 1.373 . S
C1413 C1397 1.377 . S
C1413 C1411 1.389 . S
C1413 C1414 1.524 . S
C1414 C1413 1.524 . S
C1414 C1415 1.397 . S
C1414 C1419 1.363 . S
C1415 H1386 0.950 . S
C1415 C1414 1.397 . S
C1415 C1416 1.334 . S
C1416 H1387 0.950 . S
C1416 C1415 1.334 . S
C1416 C1417 1.287 . S
C1417 C1416 1.287 . S
C1417 C1418 1.524 . S
C1417 H1420 0.999 . S
C1418 H1388 0.950 . S
C1418 C1417 1.524 . S
C1418 C1419 1.415 . S
C1419 H1389 0.950 . S
C1419 C1414 1.363 . S
C1419 C1418 1.415 . S
H1420 C1417 0.999 . S
H1421 C1402 0.913 . S
H1422 C1440 0.951 . S
H1423 C1442 0.951 . S
H1424 C1444 0.950 . S
H1425 C1445 0.950 . S
H1426 C1447 0.950 . S
H1427 C1450 0.950 . S
H1428 C1451 0.950 . S
H1429 C1453 0.950 . S
H1430 C1454 0.950 . S
H1431 C1455 0.951 . S
H1432 C1457 0.951 . S
H1433 C1459 0.950 . S
H1434 C1460 0.950 . S
H1435 C1462 0.950 . S
H1436 C1465 0.950 . S
H1437 C1466 0.950 . S
H1438 C1468 0.950 . S
H1439 C1469 0.950 . S
C1440 H1422 0.951 . S
C1440 C1441 1.366 . S
C1440 C1442 1.388 . S
C1441 C1440 1.366 . S
C1441 C1445 1.385 . S
C1442 H1423 0.951 . S
C1442 C1440 1.388 . S
C1442 C1443 1.366 . S
C1443 C1442 1.366 . S
C1443 C1444 1.414 . S
C1443 C1446 1.499 . S
C1444 H1424 0.950 . S
C1444 C1443 1.414 . S
C1444 C1445 1.374 . S
C1445 H1425 0.950 . S
C1445 C1441 1.385 . S
C1445 C1444 1.374 . S
C1446 C1443 1.499 . S
C1446 C1447 1.373 . S
C1446 C1448 1.389 . S
C1447 H1426 0.950 . S
C1447 C1446 1.373 . S
C1447 C1463 1.377 . S
C1448 C1446 1.389 . S
C1448 C1449 1.524 . S
C1448 C1462 1.377 . S
C1449 C1448 1.524 . S
C1449 C1450 1.397 . S
C1449 C1454 1.363 . S
C1450 H1427 0.950 . S
C1450 C1449 1.397 . S
C1450 C1451 1.334 . S
C1451 H1428 0.950 . S
C1451 C1450 1.334 . S
C1451 C1452 1.287 . S
C1452 C1451 1.287 . S
C1452 C1453 1.524 . S
C1452 H1471 0.913 . S
C1453 H1429 0.950 . S
C1453 C1452 1.524 . S
C1453 C1454 1.415 . S
C1454 H1430 0.950 . S
C1454 C1449 1.363 . S
C1454 C1453 1.415 . S
C1455 H1431 0.951 . S
C1455 C1456 1.366 . S
C1455 C1457 1.388 . S
C1456 C1455 1.366 . S
C1456 C1460 1.385 . S
C1457 H1432 0.951 . S
C1457 C1455 1.388 . S
C1457 C1458 1.366 . S
C1458 C1457 1.366 . S
C1458 C1459 1.414 . S
C1458 C1461 1.499 . S
C1459 H1433 0.950 . S
C1459 C1458 1.414 . S
C1459 C1460 1.374 . S
C1460 H1434 0.950 . S
C1460 C1456 1.385 . S
C1460 C1459 1.374 . S
C1461 C1458 1.499 . S
C1461 C1462 1.373 . S
C1461 C1463 1.389 . S
C1462 H1435 0.950 . S
C1462 C1448 1.377 . S
C1462 C1461 1.373 . S
C1463 C1447 1.377 . S
C1463 C1461 1.389 . S
C1463 C1464 1.524 . S
C1464 C1463 1.524 . S
C1464 C1465 1.397 . S
C1464 C1469 1.363 . S
C1465 H1436 0.950 . S
C1465 C1464 1.397 . S
C1465 C1466 1.334 . S
C1466 H1437 0.950 . S
C1466 C1465 1.334 . S
C1466 C1467 1.287 . S
C1467 C1466 1.287 . S
C1467 C1468 1.524 . S
C1467 H1470 0.999 . S
C1468 H1438 0.950 . S
C1468 C1467 1.524 . S
C1468 C1469 1.415 . S
C1469 H1439 0.950 . S
C1469 C1464 1.363 . S
C1469 C1468 1.415 . S
H1470 C1467 0.999 . S
H1471 C1452 0.913 . S
H1472 C1490 0.951 . S
H1473 C1492 0.951 . S
H1474 C1494 0.950 . S
H1475 C1495 0.950 . S
H1476 C1497 0.950 . S
H1477 C1500 0.950 . S
H1478 C1501 0.950 . S
H1479 C1503 0.950 . S
H1480 C1504 0.950 . S
H1481 C1505 0.951 . S
H1482 C1507 0.951 . S
H1483 C1509 0.950 . S
H1484 C1510 0.950 . S
H1485 C1512 0.950 . S
H1486 C1515 0.950 1_554 S
H1487 C1516 0.950 . S
H1488 C1518 0.950 . S
H1489 C1519 0.950 . S
C1490 H1472 0.951 . S
C1490 C1491 1.366 . S
C1490 C1492 1.388 . S
C1491 C1490 1.366 . S
C1491 C1495 1.385 . S
C1492 H1473 0.951 . S
C1492 C1490 1.388 . S
C1492 C1493 1.366 . S
C1493 C1492 1.366 . S
C1493 C1494 1.414 . S
C1493 C1496 1.499 . S
C1494 H1474 0.950 . S
C1494 C1493 1.414 . S
C1494 C1495 1.374 . S
C1495 H1475 0.950 . S
C1495 C1491 1.385 . S
C1495 C1494 1.374 . S
C1496 C1493 1.499 . S
C1496 C1497 1.373 . S
C1496 C1498 1.389 . S
C1497 H1476 0.950 . S
C1497 C1496 1.373 . S
C1497 C1513 1.377 . S
C1498 C1496 1.389 . S
C1498 C1499 1.524 . S
C1498 C1512 1.377 . S
C1499 C1498 1.524 . S
C1499 C1500 1.397 . S
C1499 C1504 1.363 . S
C1500 H1477 0.950 . S
C1500 C1499 1.397 . S
C1500 C1501 1.334 . S
C1501 H1478 0.950 . S
C1501 C1500 1.334 . S
C1501 C1502 1.287 . S
C1502 C1501 1.287 . S
C1502 C1503 1.524 . S
C1502 H1521 0.913 . S
C1503 H1479 0.950 . S
C1503 C1502 1.524 . S
C1503 C1504 1.415 . S
C1504 H1480 0.950 . S
C1504 C1499 1.363 . S
C1504 C1503 1.415 . S
C1505 H1481 0.951 . S
C1505 C1506 1.366 . S
C1505 C1507 1.388 . S
C1506 C1505 1.366 . S
C1506 C1510 1.385 . S
C1507 H1482 0.951 . S
C1507 C1505 1.388 . S
C1507 C1508 1.366 . S
C1508 C1507 1.366 . S
C1508 C1509 1.414 . S
C1508 C1511 1.517 . S
C1509 H1483 0.950 . S
C1509 C1508 1.414 . S
C1509 C1510 1.374 . S
C1510 H1484 0.950 . S
C1510 C1506 1.385 . S
C1510 C1509 1.374 . S
C1511 C1508 1.517 . S
C1511 C1512 1.362 1_556 S
C1511 C1513 1.383 1_556 S
C1512 H1485 0.950 . S
C1512 C1498 1.377 . S
C1512 C1511 1.362 1_554 S
C1513 C1497 1.377 . S
C1513 C1511 1.383 1_554 S
C1513 C1514 1.524 1_554 S
C1514 C1513 1.524 1_556 S
C1514 C1515 1.397 . S
C1514 C1519 1.363 . S
C1515 H1486 0.950 1_556 S
C1515 C1514 1.397 . S
C1515 C1516 1.334 . S
C1516 H1487 0.950 . S
C1516 C1515 1.334 . S
C1516 C1517 1.287 . S
C1517 C1516 1.287 . S
C1517 C1518 1.524 . S
C1517 H1520 0.999 . S
C1518 H1488 0.950 . S
C1518 C1517 1.524 . S
C1518 C1519 1.415 . S
C1519 H1489 0.950 . S
C1519 C1514 1.363 . S
C1519 C1518 1.415 . S
H1520 C1517 0.999 . S
H1521 C1502 0.913 . S
H1522 C1540 0.951 . S
H1523 C1542 0.951 . S
H1524 C1544 0.950 . S
H1525 C1545 0.950 . S
H1526 C1547 0.950 . S
H1527 C1550 0.950 . S
H1528 C1551 0.950 . S
H1529 C1553 0.950 . S
H1530 C1554 0.950 . S
H1531 C1555 0.951 . S
H1532 C1557 0.951 . S
H1533 C1559 0.950 . S
H1534 C1560 0.950 . S
H1535 C1562 0.950 . S
H1536 C1565 0.950 . S
H1537 C1566 0.950 . S
H1538 C1568 0.950 . S
H1539 C1569 0.950 . S
C1540 H1522 0.951 . S
C1540 C1541 1.366 . S
C1540 C1542 1.388 . S
C1541 C1540 1.366 . S
C1541 C1545 1.385 . S
C1542 H1523 0.951 . S
C1542 C1540 1.388 . S
C1542 C1543 1.366 . S
C1543 C1542 1.366 . S
C1543 C1544 1.414 . S
C1543 C1546 1.499 . S
C1544 H1524 0.950 . S
C1544 C1543 1.414 . S
C1544 C1545 1.374 . S
C1545 H1525 0.950 . S
C1545 C1541 1.385 . S
C1545 C1544 1.374 . S
C1546 C1543 1.499 . S
C1546 C1547 1.373 . S
C1546 C1548 1.389 . S
C1547 H1526 0.950 . S
C1547 C1546 1.373 . S
C1547 C1563 1.377 . S
C1548 C1546 1.389 . S
C1548 C1549 1.524 . S
C1548 C1562 1.377 . S
C1549 C1548 1.524 . S
C1549 C1550 1.397 . S
C1549 C1554 1.363 . S
C1550 H1527 0.950 . S
C1550 C1549 1.397 . S
C1550 C1551 1.334 . S
C1551 H1528 0.950 . S
C1551 C1550 1.334 . S
C1551 C1552 1.287 . S
C1552 C1551 1.287 . S
C1552 C1553 1.524 . S
C1552 H1571 0.913 . S
C1553 H1529 0.950 . S
C1553 C1552 1.524 . S
C1553 C1554 1.415 . S
C1554 H1530 0.950 . S
C1554 C1549 1.363 . S
C1554 C1553 1.415 . S
C1555 H1531 0.951 . S
C1555 C1556 1.366 . S
C1555 C1557 1.388 . S
C1556 C1555 1.366 . S
C1556 C1560 1.385 . S
C1557 H1532 0.951 . S
C1557 C1555 1.388 . S
C1557 C1558 1.366 . S
C1558 C1557 1.366 . S
C1558 C1559 1.414 . S
C1558 C1561 1.499 . S
C1559 H1533 0.950 . S
C1559 C1558 1.414 . S
C1559 C1560 1.374 . S
C1560 H1534 0.950 . S
C1560 C1556 1.385 . S
C1560 C1559 1.374 . S
C1561 C1558 1.499 . S
C1561 C1562 1.373 . S
C1561 C1563 1.389 . S
C1562 H1535 0.950 . S
C1562 C1548 1.377 . S
C1562 C1561 1.373 . S
C1563 C1547 1.377 . S
C1563 C1561 1.389 . S
C1563 C1564 1.524 . S
C1564 C1563 1.524 . S
C1564 C1565 1.397 . S
C1564 C1569 1.363 . S
C1565 H1536 0.950 . S
C1565 C1564 1.397 . S
C1565 C1566 1.334 . S
C1566 H1537 0.950 . S
C1566 C1565 1.334 . S
C1566 C1567 1.287 . S
C1567 C1566 1.287 . S
C1567 C1568 1.524 . S
C1567 H1570 0.999 . S
C1568 H1538 0.950 . S
C1568 C1567 1.524 . S
C1568 C1569 1.415 . S
C1569 H1539 0.950 . S
C1569 C1564 1.363 . S
C1569 C1568 1.415 . S
H1570 C1567 0.999 . S
H1571 C1552 0.913 . S
C406 C365 1.492 . S
C391 C45 1.525 . S
C441 C84 1.483 . S
C456 C294 1.453 . S
C491 C126 1.504 . S
C506 C308 1.495 . S
C541 C189 1.482 . S
C556 C322 1.451 . S
C606 C336 1.494 . S
C591 C228 1.519 . S
C641 C270 1.480 . S
C656 C351 1.454 . S
C691 C69 1.481 . S
C706 C309 1.453 . S
C741 C141 1.525 . S
C756 C323 1.492 . S
C791 C174 1.479 . S
C806 C337 1.454 . S
C856 C350 1.494 . S
C841 C213 1.511 . S
C906 C364 1.451 . S
C891 C285 1.482 . S
C956 C295 1.494 . S
C941 C30 1.505 . S
C991 C36 1.510 . S
C1006 C311 1.491 . S
C1041 C93 1.627 . S
C1056 C325 1.597 . S
C1106 C339 1.491 . S
C1091 C117 1.505 . S
C1141 C180 1.621 . S
C1156 C352 1.598 . S
C1206 C366 1.489 . S
C1191 C237 1.510 . S
C1256 C297 1.597 . S
C1241 C261 1.608 . S
C1306 C367 1.597 . S
C1291 C78 1.596 . S
C1341 C132 1.510 . S
C1356 C296 1.492 . S
C1406 C310 1.598 . S
C1391 C165 1.609 . S
C1441 C222 1.497 . S
C1456 C324 1.489 . S
C1491 C276 1.621 . S
C1506 C338 1.599 . S
C1541 C21 1.504 . S
C1556 C353 1.491 . S
