# Generated by pormake.
# Topology zzz, (3,6)-cn, num edge types: 1
# Building blocks:
#     Node 0, Type 0, BuildingBlock: PAMTOO_clean_linker_0, # of connection points: 3
#     Node 1, Type 0, BuildingBlock: PAMTOO_clean_linker_0, # of connection points: 3
#     Node 2, Type 0, BuildingBlock: PAMTOO_clean_linker_0, # of connection points: 3
#     Node 3, Type 0, BuildingBlock: PAMTOO_clean_linker_0, # of connection points: 3
#     Node 4, Type 0, BuildingBlock: PAMTOO_clean_linker_0, # of connection points: 3
#     Node 5, Type 0, BuildingBlock: PAMTOO_clean_linker_0, # of connection points: 3
#     Node 6, Type 0, BuildingBlock: PAMTOO_clean_linker_0, # of connection points: 3
#     Node 7, Type 0, BuildingBlock: PAMTOO_clean_linker_0, # of connection points: 3
#     Node 8, Type 1, BuildingBlock: CUKXOW_clean_sbu_0, # of connection points: 6
#     Node 9, Type 1, BuildingBlock: CUKXOW_clean_sbu_0, # of connection points: 6
#     Node 10, Type 1, BuildingBlock: CUKXOW_clean_sbu_0, # of connection points: 6
#     Node 11, Type 1, BuildingBlock: CUKXOW_clean_sbu_0, # of connection points: 6
#     Edge 12, Type (0, 1), BuildingBlock: TEMPAE_clean_linker_10, # of connection points: 2
#     Edge 13, Type (0, 1), BuildingBlock: TEMPAE_clean_linker_10, # of connection points: 2
#     Edge 14, Type (0, 1), BuildingBlock: TEMPAE_clean_linker_10, # of connection points: 2
#     Edge 15, Type (0, 1), BuildingBlock: TEMPAE_clean_linker_10, # of connection points: 2
#     Edge 16, Type (0, 1), BuildingBlock: TEMPAE_clean_linker_10, # of connection points: 2
#     Edge 17, Type (0, 1), BuildingBlock: TEMPAE_clean_linker_10, # of connection points: 2
#     Edge 18, Type (0, 1), BuildingBlock: TEMPAE_clean_linker_10, # of connection points: 2
#     Edge 19, Type (0, 1), BuildingBlock: TEMPAE_clean_linker_10, # of connection points: 2
#     Edge 20, Type (0, 1), BuildingBlock: TEMPAE_clean_linker_10, # of connection points: 2
#     Edge 21, Type (0, 1), BuildingBlock: TEMPAE_clean_linker_10, # of connection points: 2
#     Edge 22, Type (0, 1), BuildingBlock: TEMPAE_clean_linker_10, # of connection points: 2
#     Edge 23, Type (0, 1), BuildingBlock: TEMPAE_clean_linker_10, # of connection points: 2
#     Edge 24, Type (0, 1), BuildingBlock: TEMPAE_clean_linker_10, # of connection points: 2
#     Edge 25, Type (0, 1), BuildingBlock: TEMPAE_clean_linker_10, # of connection points: 2
#     Edge 26, Type (0, 1), BuildingBlock: TEMPAE_clean_linker_10, # of connection points: 2
#     Edge 27, Type (0, 1), BuildingBlock: TEMPAE_clean_linker_10, # of connection points: 2
#     Edge 28, Type (0, 1), BuildingBlock: TEMPAE_clean_linker_10, # of connection points: 2
#     Edge 29, Type (0, 1), BuildingBlock: TEMPAE_clean_linker_10, # of connection points: 2
#     Edge 30, Type (0, 1), BuildingBlock: TEMPAE_clean_linker_10, # of connection points: 2
#     Edge 31, Type (0, 1), BuildingBlock: TEMPAE_clean_linker_10, # of connection points: 2
#     Edge 32, Type (0, 1), BuildingBlock: TEMPAE_clean_linker_10, # of connection points: 2
#     Edge 33, Type (0, 1), BuildingBlock: TEMPAE_clean_linker_10, # of connection points: 2
#     Edge 34, Type (0, 1), BuildingBlock: TEMPAE_clean_linker_10, # of connection points: 2
#     Edge 35, Type (0, 1), BuildingBlock: TEMPAE_clean_linker_10, # of connection points: 2
# Relax obj value: 0.065
# Max RMSD: 0.118
# Mean RMSD: 0.080
data_MOF--net-zzz--node1-CUKXOW_clean_sbu_0--node2-PAMTOO_clean_linker_0--edge1-TEMPAE_clean_linker_10
_symmetry_space_group_name_H-M    P1
_symmetry_Int_Tables_number       1
_symmetry_cell_setting            triclinic
loop_
_symmetry_equiv_pos_as_xyz
'x, y, z'
_cell_length_a     51.169416
_cell_length_b     53.299702
_cell_length_c     15.850793
_cell_angle_alpha  93.366828
_cell_angle_beta   86.649827
_cell_angle_gamma 93.835696
loop_
_atom_site_label
_atom_site_type_symbol
_atom_site_fract_x
_atom_site_fract_y
_atom_site_fract_z
_atom_type_partial_charge
H0 H 0.82868 0.47034 0.16275 0.0
H1 H 0.76745 0.47399 0.99031 0.0
H2 H 0.75184 0.48982 0.25759 0.0
H3 H 0.73898 0.51838 0.04901 0.0
C4 C 0.72334 0.50819 0.08797 0.0
O5 O 0.73123 0.4851 0.10805 0.0
H6 H 0.71964 0.51982 0.14751 0.0
C7 C 0.80825 0.4727 0.15174 0.0
C8 C 0.79122 0.47971 0.2199 0.0
C9 C 0.80002 0.47085 0.06893 0.0
C10 C 0.77397 0.47508 0.05432 0.0
C11 C 0.75642 0.48138 0.12258 0.0
C12 C 0.76515 0.48412 0.20541 0.0
H13 H 0.95135 0.83704 0.11923 0.0
H14 H 0.96001 0.78263 0.9097 0.0
H15 H 0.9664 0.76096 0.16437 0.0
H16 H 0.00424 0.74071 0.04549 0.0
C17 C 0.99356 0.73946 0.98608 0.0
O18 O 0.96792 0.74544 0.00382 0.0
H19 H 0.0035 0.75313 0.94225 0.0
C20 C 0.95296 0.81769 0.09505 0.0
C21 C 0.95751 0.79954 0.15171 0.0
C22 C 0.95429 0.81209 0.00757 0.0
C23 C 0.95837 0.78729 0.97719 0.0
C24 C 0.96206 0.76873 0.03391 0.0
C25 C 0.96184 0.7749 0.12128 0.0
H26 H 0.66496 0.95186 0.0658 0.0
H27 H 0.7394 0.97688 0.95276 0.0
H28 H 0.7292 0.97597 0.22241 0.0
H29 H 0.77499 0.94422 0.06291 0.0
C30 C 0.78228 0.96246 0.09387 0.0
O31 O 0.76378 0.98025 0.09427 0.0
H32 H 0.78594 0.95903 0.16054 0.0
C33 C 0.68528 0.95826 0.07319 0.0
C34 C 0.69422 0.96467 0.1543 0.0
C35 C 0.70065 0.96456 0.00085 0.0
C36 C 0.72729 0.97171 0.00817 0.0
C37 C 0.73791 0.97379 0.088 0.0
C38 C 0.72121 0.97136 0.1613 0.0
H39 H 0.55006 0.68173 0.21925 0.0
H40 H 0.55544 0.73498 0.02386 0.0
H41 H 0.55765 0.76075 0.28631 0.0
H42 H 0.524 0.78752 0.19115 0.0
C43 C 0.53372 0.78615 0.12647 0.0
O44 O 0.557 0.77467 0.13007 0.0
H45 H 0.52042 0.77464 0.08414 0.0
C46 C 0.55296 0.70089 0.19925 0.0
C47 C 0.55468 0.72047 0.26148 0.0
C48 C 0.55349 0.70555 0.11315 0.0
C49 C 0.55551 0.73071 0.0898 0.0
C50 C 0.55702 0.75059 0.15229 0.0
C51 C 0.55695 0.74544 0.23826 0.0
H52 H 0.18918 0.52642 0.22568 0.0
H53 H 0.24626 0.52225 0.41194 0.0
H54 H 0.27122 0.53043 0.14961 0.0
H55 H 0.30496 0.49742 0.24165 0.0
C56 C 0.29949 0.50444 0.30737 0.0
O57 O 0.287 0.52651 0.30395 0.0
H58 H 0.28614 0.4898 0.33762 0.0
C59 C 0.20951 0.52643 0.24205 0.0
C60 C 0.22935 0.52902 0.17841 0.0
C61 C 0.21521 0.52356 0.32585 0.0
C62 C 0.24149 0.52424 0.34706 0.0
C63 C 0.26173 0.52657 0.2834 0.0
C64 C 0.25565 0.5288 0.19867 0.0
H65 H 0.04259 0.17808 0.3126 0.0
H66 H 0.02481 0.24069 0.48472 0.0
H67 H 0.04592 0.25288 0.22263 0.0
H68 H 0.06803 0.29458 0.33909 0.0
C69 C 0.05499 0.29049 0.3959 0.0
O70 O 0.03398 0.27471 0.37164 0.0
H71 H 0.06661 0.28135 0.44138 0.0
C72 C 0.04145 0.19824 0.32504 0.0
C73 C 0.04575 0.21435 0.2583 0.0
C74 C 0.03368 0.20751 0.4063 0.0
C75 C 0.03105 0.23335 0.4221 0.0
C76 C 0.03616 0.24976 0.35615 0.0
C77 C 0.04298 0.24023 0.2739 0.0
H78 H 0.34403 0.01219 0.21172 0.0
H79 H 0.28519 0.02248 0.41453 0.0
H80 H 0.26613 0.02765 0.15542 0.0
H81 H 0.23468 0.05902 0.28503 0.0
C82 C 0.23594 0.04733 0.34036 0.0
O83 O 0.2469 0.02507 0.3135 0.0
H84 H 0.24846 0.05808 0.38688 0.0
C85 C 0.32426 0.01622 0.23446 0.0
C86 C 0.30641 0.02071 0.17489 0.0
C87 C 0.3177 0.01842 0.32147 0.0
C88 C 0.29128 0.02146 0.34793 0.0
C89 C 0.27249 0.02385 0.28786 0.0
C90 C 0.28027 0.02444 0.20125 0.0
H91 H 0.45984 0.34346 0.27778 0.0
H92 H 0.47683 0.27977 0.41481 0.0
H93 H 0.45521 0.26922 0.15602 0.0
H94 H 0.43676 0.22333 0.24654 0.0
C95 C 0.44547 0.23 0.30708 0.0
O96 O 0.46695 0.24641 0.29015 0.0
H97 H 0.43029 0.23979 0.34751 0.0
C98 C 0.46053 0.32323 0.28118 0.0
C99 C 0.4559 0.30752 0.20905 0.0
C100 C 0.46842 0.31354 0.35509 0.0
C101 C 0.47054 0.28752 0.3582 0.0
C102 C 0.46499 0.27148 0.28708 0.0
C103 C 0.45834 0.28155 0.21183 0.0
Tb104 Tb 0.9976 0.98855 0.62182 0.0
C105 C 0.05544 0.01352 0.6268 0.0
Tb106 Tb 0.01101 0.02801 0.76901 0.0
O107 O 1.00076 0.01803 0.5303 0.0
O108 O 0.99022 0.02628 0.65772 0.0
O109 O 0.03946 0.99561 0.59227 0.0
C110 C 0.02379 0.07146 0.85326 0.0
O111 O 0.04829 0.02829 0.69364 0.0
C112 C 0.01199 0.9808 0.80673 0.0
C113 C 0.95356 0.00415 0.76303 0.0
O114 O 0.0288 0.06657 0.77313 0.0
O115 O 0.0118 0.05182 0.88614 0.0
O116 O 0.01087 0.99934 0.86353 0.0
O117 O 0.01684 0.99001 0.73571 0.0
O118 O 0.96827 0.02482 0.78456 0.0
O119 O 0.96188 0.98677 0.70579 0.0
C120 C 0.98931 0.94476 0.53487 0.0
O121 O 0.97561 0.96429 0.53027 0.0
O122 O 0.0077 0.95002 0.58706 0.0
C123 C 0.99636 0.03585 0.58818 0.0
Tb124 Tb 0.50986 0.03835 0.67588 0.0
C125 C 0.54982 3e-05 0.59581 0.0
Tb126 Tb 0.51111 0.98599 0.75371 0.0
O127 O 0.54874 0.05021 0.71782 0.0
O128 O 0.52517 0.02358 0.78236 0.0
O129 O 0.53728 0.02055 0.5844 0.0
C130 C 0.52454 0.94588 0.83008 0.0
O131 O 0.54399 0.98513 0.65951 0.0
C132 C 0.47398 0.98967 0.64939 0.0
C133 C 0.46816 0.0218 0.82482 0.0
O134 O 0.52895 0.96912 0.85769 0.0
O135 O 0.51254 0.94533 0.76008 0.0
O136 O 0.47277 0.97316 0.70685 0.0
O137 O 0.49651 0.00081 0.6465 0.0
O138 O 0.48207 0.00272 0.84228 0.0
O139 O 0.47491 0.03684 0.76218 0.0
C140 C 0.49724 0.07834 0.59733 0.0
O141 O 0.50397 0.07863 0.67519 0.0
O142 O 0.49783 0.05558 0.56351 0.0
C143 C 0.54812 0.03388 0.77572 0.0
Tb144 Tb 0.52422 0.5285 0.63923 0.0
C145 C 0.4618 0.51569 0.64554 0.0
Tb146 Tb 0.49798 0.49191 0.771 0.0
O147 O 0.53905 0.49775 0.55468 0.0
O148 O 0.50683 0.49189 0.63995 0.0
O149 O 0.48256 0.52917 0.61386 0.0
C150 C 0.48153 0.45056 0.85051 0.0
O151 O 0.46333 0.49939 0.70519 0.0
C152 C 0.50201 0.53993 0.81866 0.0
C153 C 0.56028 0.50202 0.75596 0.0
O154 O 0.4944 0.47008 0.88439 0.0
O155 O 0.47774 0.45447 0.7724 0.0
O156 O 0.48386 0.52429 0.8503 0.0
O157 O 0.51741 0.52764 0.77089 0.0
O158 O 0.54007 0.48577 0.7747 0.0
O159 O 0.55773 0.52223 0.71222 0.0
C160 C 0.53474 0.57397 0.58003 0.0
O161 O 0.54486 0.55346 0.54798 0.0
O162 O 0.51857 0.56864 0.64323 0.0
C163 C 0.52342 0.48092 0.592 0.0
Tb164 Tb 0.98691 0.51007 0.6544 0.0
C165 C 0.00975 0.45678 0.68049 0.0
Tb166 Tb 0.02896 0.50529 0.78836 0.0
O167 O 0.01699 0.52909 0.57064 0.0
O168 O 0.02677 0.50358 0.65633 0.0
O169 O 0.98986 0.46906 0.6559 0.0
C170 C 0.07622 0.51165 0.85234 0.0
O171 O 0.02922 0.4682 0.72338 0.0
C172 C 0.98054 0.49413 0.83894 0.0
C173 C 0.00573 0.55878 0.76344 0.0
O174 O 0.05645 0.49799 0.88433 0.0
O175 O 0.06913 0.52197 0.78608 0.0
O176 O 1.0003 0.487 0.87787 0.0
O177 O 0.98874 0.50999 0.78643 0.0
O178 O 0.02304 0.5457 0.79897 0.0
O179 O 0.98876 0.54854 0.70886 0.0
C180 C 0.94152 0.50752 0.57816 0.0
O181 O 0.96436 0.50399 0.54056 0.0
O182 O 0.94434 0.51262 0.65819 0.0
C183 C 0.03614 0.51913 0.60476 0.0
C184 C 0.20646 0.02678 0.45311 0.0
C185 C 0.20917 0.04171 0.38283 0.0
C186 C 0.18179 0.02159 0.4944 0.0
C187 C 0.15933 0.0318 0.46516 0.0
C188 C 0.16201 0.04703 0.39442 0.0
C189 C 0.1869 0.05177 0.35406 0.0
C190 C 0.17977 0.00522 0.56935 0.0
C191 C 0.1386 0.05838 0.36156 0.0
C192 C 0.09154 0.00139 0.52099 0.0
C193 C 0.08245 0.01758 0.58784 0.0
C194 C 0.1166 0.00562 0.48121 0.0
C195 C 0.13301 0.02662 0.50857 0.0
C196 C 0.12409 0.0429 0.57647 0.0
C197 C 0.09898 0.03817 0.61533 0.0
C198 C 0.1254 0.98777 0.40923 0.0
C199 C 0.14094 0.06554 0.60735 0.0
H200 H 0.22373 0.01916 0.47563 0.0
H201 H 0.18898 0.06346 0.30008 0.0
H202 H 0.17173 0.01586 0.62618 0.0
H203 H 0.166 0.9886 0.55706 0.0
H204 H 0.19905 0.99852 0.58362 0.0
H205 H 0.14399 0.06984 0.30609 0.0
H206 H 0.12375 0.04325 0.34296 0.0
H207 H 0.1292 0.07053 0.41224 0.0
H208 H 0.07902 0.98541 0.49913 0.0
H209 H 0.0922 0.0509 0.66658 0.0
H210 H 0.14404 0.97983 0.42358 0.0
H211 H 0.12927 0.99811 0.3506 0.0
H212 H 0.11058 0.97198 0.39685 0.0
H213 H 0.15995 0.05955 0.6267 0.0
H214 H 0.13134 0.07611 0.66181 0.0
H215 H 0.14534 0.07848 0.55529 0.0
C216 C 0.47767 0.19727 0.32999 0.0
C217 C 0.45342 0.20751 0.35076 0.0
C218 C 0.48486 0.17605 0.36941 0.0
C219 C 0.46709 0.16442 0.42932 0.0
C220 C 0.44226 0.17421 0.44854 0.0
C221 C 0.43573 0.19563 0.40892 0.0
C222 C 0.51153 0.16618 0.34739 0.0
C223 C 0.42262 0.16207 0.511 0.0
C224 C 0.47733 0.09686 0.47749 0.0
C225 C 0.48951 0.10026 0.55456 0.0
C226 C 0.46961 0.11756 0.43639 0.0
C227 C 0.47464 0.14221 0.47274 0.0
C228 C 0.48701 0.14568 0.55058 0.0
C229 C 0.49411 0.12461 0.59095 0.0
C230 C 0.45604 0.11305 0.3543 0.0
C231 C 0.4929 0.17167 0.59093 0.0
H232 H 0.49111 0.20596 0.28325 0.0
H233 H 0.41671 0.20315 0.42337 0.0
H234 H 0.52277 0.16637 0.40524 0.0
H235 H 0.50935 0.14635 0.32204 0.0
H236 H 0.52311 0.17745 0.29982 0.0
H237 H 0.40389 0.17159 0.51713 0.0
H238 H 0.41837 0.14198 0.49108 0.0
H239 H 0.43094 0.16259 0.57422 0.0
H240 H 0.47358 0.07798 0.44972 0.0
H241 H 0.50355 0.12721 0.65061 0.0
H242 H 0.46784 0.12241 0.30278 0.0
H243 H 0.4367 0.12144 0.36008 0.0
H244 H 0.45295 0.09268 0.33575 0.0
H245 H 0.50563 0.18314 0.54681 0.0
H246 H 0.50283 0.17114 0.65122 0.0
H247 H 0.47445 0.18137 0.60384 0.0
C248 C 0.34667 0.4975 0.33174 0.0
C249 C 0.32344 0.50875 0.35891 0.0
C250 C 0.36863 0.49984 0.3814 0.0
C251 C 0.36731 0.5137 0.46042 0.0
C252 C 0.34387 0.52511 0.48824 0.0
C253 C 0.32212 0.52228 0.43751 0.0
C254 C 0.39314 0.48713 0.34983 0.0
C255 C 0.3417 0.54007 0.57193 0.0
C256 C 0.41615 0.49818 0.61854 0.0
C257 C 0.4364 0.51688 0.6055 0.0
C258 C 0.39325 0.49732 0.57342 0.0
C259 C 0.39036 0.51574 0.51436 0.0
C260 C 0.41022 0.53528 0.50353 0.0
C261 C 0.43303 0.53555 0.54891 0.0
C262 C 0.37262 0.47608 0.58646 0.0
C263 C 0.40775 0.55544 0.44192 0.0
H264 H 0.34755 0.4866 0.27183 0.0
H265 H 0.30396 0.5305 0.45948 0.0
H266 H 0.41003 0.50126 0.34556 0.0
H267 H 0.39786 0.47325 0.39526 0.0
H268 H 0.39106 0.47724 0.28668 0.0
H269 H 0.32244 0.54851 0.583 0.0
H270 H 0.34437 0.52774 0.62435 0.0
H271 H 0.35748 0.55538 0.57442 0.0
H272 H 0.41854 0.48359 0.66178 0.0
H273 H 0.44846 0.55018 0.53869 0.0
H274 H 0.3712 0.46401 0.52723 0.0
H275 H 0.35312 0.48367 0.60137 0.0
H276 H 0.37706 0.46414 0.63828 0.0
H277 H 0.40787 0.54684 0.37643 0.0
H278 H 0.42396 0.57034 0.44543 0.0
H279 H 0.3888 0.56432 0.45445 0.0
C280 C 0.05301 0.33771 0.40704 0.0
C281 C 0.0452 0.31425 0.43876 0.0
C282 C 0.04498 0.36002 0.449 0.0
C283 C 0.02872 0.35876 0.5243 0.0
C284 C 0.02034 0.33505 0.55563 0.0
C285 C 0.02882 0.31303 0.51258 0.0
C286 C 0.05442 0.38497 0.41385 0.0
C287 C 0.00294 0.33297 0.63547 0.0
C288 C 0.03381 0.41737 0.67087 0.0
C289 C 0.01235 0.43027 0.64921 0.0
C290 C 0.03874 0.39361 0.63307 0.0
C291 C 0.02176 0.38239 0.5723 0.0
C292 C 0.99929 0.39466 0.55337 0.0
C293 C 0.99483 0.41849 0.5921 0.0
C294 C 0.06287 0.38107 0.65525 0.0
C295 C 0.98063 0.38316 0.48936 0.0
H296 H 0.06573 0.33862 0.35001 0.0
H297 H 0.02289 0.29481 0.53696 0.0
H298 H 0.03746 0.39613 0.40358 0.0
H299 H 0.06667 0.39604 0.4601 0.0
H300 H 0.06617 0.38265 0.35304 0.0
H301 H 0.99684 0.3131 0.64838 0.0
H302 H 0.01346 0.34164 0.69022 0.0
H303 H 0.98511 0.34345 0.63079 0.0
H304 H 0.04737 0.42617 0.71541 0.0
H305 H 0.97812 0.42822 0.57519 0.0
H306 H 0.07687 0.38004 0.59917 0.0
H307 H 0.05756 0.36149 0.67305 0.0
H308 H 0.07298 0.39139 0.70824 0.0
H309 H 0.99065 0.3828 0.42535 0.0
H310 H 0.96276 0.39385 0.48797 0.0
H311 H 0.97461 0.3634 0.50347 0.0
C312 C 0.83167 0.96913 0.08031 0.0
C313 C 0.80732 0.97128 0.04608 0.0
C314 C 0.85523 0.97536 0.03396 0.0
C315 C 0.85442 0.98385 0.95116 0.0
C316 C 0.82986 0.9862 0.9165 0.0
C317 C 0.80661 0.9797 0.96416 0.0
C318 C 0.881 0.97237 0.07296 0.0
C319 C 0.82815 0.9951 0.82845 0.0
C320 C 0.91585 0.01871 0.85792 0.0
C321 C 0.92739 0.99959 0.8069 0.0
C322 C 0.8919 0.01397 0.90417 0.0
C323 C 0.87929 0.98948 0.89992 0.0
C324 C 0.89075 0.97016 0.84801 0.0
C325 C 0.91455 0.97547 0.80196 0.0
C326 C 0.88031 0.03507 0.95871 0.0
C327 C 0.87816 0.9437 0.84244 0.0
H328 H 0.83229 0.9622 0.14305 0.0
H329 H 0.78784 0.98091 0.93695 0.0
H330 H 0.89216 0.95815 0.03473 0.0
H331 H 0.89316 0.99039 0.07287 0.0
H332 H 0.87826 0.96637 0.13902 0.0
H333 H 0.80756 0.9969 0.81207 0.0
H334 H 0.83914 0.01364 0.82261 0.0
H335 H 0.83736 0.98167 0.78149 0.0
H336 H 0.92563 0.03738 0.86233 0.0
H337 H 0.92343 0.96045 0.76367 0.0
H338 H 0.87903 0.03021 0.026 0.0
H339 H 0.86006 0.03762 0.94072 0.0
H340 H 0.8921 0.05323 0.95316 0.0
H341 H 0.87696 0.93575 0.90578 0.0
H342 H 0.88925 0.93099 0.79757 0.0
H343 H 0.85782 0.94393 0.82191 0.0
C344 C 0.52107 0.83062 0.11987 0.0
C345 C 0.53816 0.81199 0.0923 0.0
C346 C 0.52202 0.85366 0.08106 0.0
C347 C 0.54048 0.85815 0.01269 0.0
C348 C 0.55853 0.83981 0.98676 0.0
C349 C 0.5569 0.81676 0.02605 0.0
C350 C 0.50216 0.87253 0.10988 0.0
C351 C 0.57868 0.84402 0.91474 0.0
C352 C 0.51835 0.9 0.8491 0.0
C353 C 0.53037 0.92343 0.87367 0.0
C354 C 0.52197 0.87854 0.8929 0.0
C355 C 0.5385 0.88048 0.96193 0.0
C356 C 0.55161 0.90396 0.98481 0.0
C357 C 0.54712 0.9253 0.94086 0.0
C358 C 0.50735 0.85398 0.86705 0.0
C359 C 0.56987 0.90664 0.05664 0.0
H360 H 0.50625 0.82677 0.16995 0.0
H361 H 0.5698 0.8022 0.00336 0.0
H362 H 0.51207 0.89144 0.12196 0.0
H363 H 0.48839 0.87409 0.05916 0.0
H364 H 0.49062 0.86712 0.1683 0.0
H365 H 0.59363 0.82975 0.91061 0.0
H366 H 0.5688 0.84298 0.85407 0.0
H367 H 0.58876 0.86305 0.92212 0.0
H368 H 0.50539 0.89857 0.79707 0.0
H369 H 0.5566 0.94343 0.95929 0.0
H370 H 0.49379 0.84778 0.92013 0.0
H371 H 0.5213 0.83906 0.8526 0.0
H372 H 0.49574 0.85555 0.81071 0.0
H373 H 0.55848 0.90388 0.11747 0.0
H374 H 0.58063 0.92545 0.06053 0.0
H375 H 0.58432 0.89194 0.04904 0.0
C376 C 0.6761 0.51599 0.06608 0.0
C377 C 0.69911 0.50456 0.03766 0.0
C378 C 0.65389 0.51381 0.01752 0.0
C379 C 0.65472 0.49982 0.93866 0.0
C380 C 0.67782 0.48792 0.91029 0.0
C381 C 0.6998 0.49054 0.96002 0.0
C382 C 0.6297 0.52689 0.04987 0.0
C383 C 0.67946 0.47281 0.82678 0.0
C384 C 0.58851 0.48017 0.84941 0.0
C385 C 0.58568 0.49944 0.79452 0.0
C386 C 0.61128 0.47952 0.8946 0.0
C387 C 0.6317 0.49858 0.88473 0.0
C388 C 0.62944 0.51743 0.82676 0.0
C389 C 0.60652 0.51761 0.78233 0.0
C390 C 0.61303 0.45901 0.95539 0.0
C391 C 0.65077 0.53807 0.8142 0.0
H392 H 0.6756 0.52695 0.1259 0.0
H393 H 0.71769 0.48184 0.93795 0.0
H394 H 0.62536 0.54117 0.0053 0.0
H395 H 0.61249 0.51311 0.05333 0.0
H396 H 0.63197 0.53642 0.1135 0.0
H397 H 0.69838 0.46375 0.81573 0.0
H398 H 0.6632 0.45798 0.82446 0.0
H399 H 0.67725 0.48524 0.77425 0.0
H400 H 0.57261 0.46599 0.85926 0.0
H401 H 0.60466 0.53255 0.73997 0.0
H402 H 0.61287 0.46736 0.0212 0.0
H403 H 0.63175 0.44972 0.94312 0.0
H404 H 0.5965 0.44447 0.95079 0.0
H405 H 0.6526 0.54994 0.87372 0.0
H406 H 0.64678 0.55036 0.76279 0.0
H407 H 0.66995 0.52986 0.79892 0.0
C408 C 0.98105 0.69306 0.98949 0.0
C409 C 0.99428 0.71301 0.9477 0.0
C410 C 0.98243 0.66813 0.95671 0.0
C411 C 0.99772 0.66307 0.88099 0.0
C412 C 0.01111 0.68318 0.83849 0.0
C413 C 0.00923 0.70794 0.87245 0.0
C414 C 0.96783 0.64718 0.00371 0.0
C415 C 0.02776 0.67849 0.75799 0.0
C416 C 0.02229 0.59746 0.84624 0.0
C417 C 0.00436 0.58582 0.79015 0.0
C418 C 0.02054 0.62268 0.87536 0.0
C419 C 1.00037 0.63664 0.84785 0.0
C420 C 0.98248 0.6252 0.7902 0.0
C421 C 0.98471 0.59993 0.76193 0.0
C422 C 0.04007 0.63428 0.93655 0.0
C423 C 0.96072 0.63953 0.75949 0.0
H424 H 0.96977 0.69702 0.04824 0.0
H425 H 0.01971 0.72336 0.84063 0.0
H426 H 0.95454 0.63594 0.96104 0.0
H427 H 0.98195 0.63427 0.02488 0.0
H428 H 0.95604 0.65439 0.05996 0.0
H429 H 0.03631 0.69625 0.73147 0.0
H430 H 0.04399 0.66664 0.77043 0.0
H431 H 0.01586 0.66799 0.70961 0.0
H432 H 0.03763 0.58682 0.86824 0.0
H433 H 0.97076 0.59117 0.7186 0.0
H434 H 0.02968 0.64011 0.99721 0.0
H435 H 0.05023 0.65146 0.91078 0.0
H436 H 0.05505 0.62109 0.94982 0.0
H437 H 0.94754 0.64553 0.81396 0.0
H438 H 0.94885 0.62812 0.71292 0.0
H439 H 0.96903 0.65684 0.72969 0.0
C440 C 0.99972 0.17874 0.47165 0.0
C441 C 0.02558 0.18907 0.46966 0.0
C442 C 0.99319 0.15541 0.50629 0.0
C443 C 0.01308 0.14238 0.54004 0.0
C444 C 0.03859 0.15416 0.54654 0.0
C445 C 0.04466 0.17733 0.50998 0.0
C446 C 0.9658 0.1435 0.49774 0.0
C447 C 0.06014 0.1412 0.58419 0.0
C448 C 0.99352 0.08062 0.64199 0.0
C449 C 0.99978 0.06307 0.57572 0.0
C450 C 0.99833 0.10657 0.63249 0.0
C451 C 0.00851 0.11507 0.55356 0.0
C452 C 0.0141 0.09737 0.48562 0.0
C453 C 0.00988 0.07156 0.49787 0.0
C454 C 0.99267 0.12482 0.70677 0.0
C455 C 0.0246 0.10568 0.39988 0.0
H456 H 0.98516 0.18778 0.43901 0.0
H457 H 0.06474 0.18529 0.5072 0.0
H458 H 0.96608 0.12863 0.4457 0.0
H459 H 0.95855 0.13442 0.55653 0.0
H460 H 0.95178 0.15748 0.48311 0.0
H461 H 0.07666 0.15474 0.60168 0.0
H462 H 0.05261 0.1313 0.64117 0.0
H463 H 0.06784 0.12689 0.53716 0.0
H464 H 0.98515 0.07405 0.70175 0.0
H465 H 0.01459 0.058 0.44646 0.0
H466 H 0.97633 0.13635 0.69301 0.0
H467 H 0.01006 0.13796 0.71756 0.0
H468 H 0.98724 0.11506 0.76592 0.0
H469 H 0.01104 0.11845 0.37466 0.0
H470 H 0.0272 0.08954 0.35319 0.0
H471 H 0.04382 0.11637 0.40585 0.0
C472 C 0.36471 0.02709 0.35533 0.0
C473 C 0.33916 0.01821 0.38135 0.0
C474 C 0.38632 0.02277 0.40082 0.0
C475 C 0.38222 0.01194 0.48023 0.0
C476 C 0.35623 0.00586 0.5125 0.0
C477 C 0.33505 0.00825 0.46138 0.0
C478 C 0.41333 0.02939 0.36098 0.0
C479 C 0.35032 0.99638 0.59993 0.0
C480 C 0.43506 0.97596 0.56868 0.0
C481 C 0.45138 0.99558 0.60276 0.0
C482 C 0.41259 0.981 0.52764 0.0
C483 C 0.40524 0.00619 0.5268 0.0
C484 C 0.42127 0.02597 0.56434 0.0
C485 C 0.4447 0.02044 0.59841 0.0
C486 C 0.39707 0.9593 0.48462 0.0
C487 C 0.41413 0.0531 0.569 0.0
H488 H 0.36822 0.03667 0.29691 0.0
H489 H 0.31548 0.00181 0.48379 0.0
H490 H 0.4185 0.04971 0.37435 0.0
H491 H 0.42877 0.01835 0.38433 0.0
H492 H 0.41349 0.02621 0.29102 0.0
H493 H 0.34407 0.97604 0.5945 0.0
H494 H 0.36725 0.99915 0.64082 0.0
H495 H 0.33363 0.00618 0.63175 0.0
H496 H 0.44024 0.95667 0.57234 0.0
H497 H 0.45695 0.03565 0.62537 0.0
H498 H 0.39003 0.96464 0.42362 0.0
H499 H 0.37973 0.95372 0.52616 0.0
H500 H 0.40887 0.94259 0.47223 0.0
H501 H 0.42488 0.06306 0.51678 0.0
H502 H 0.4203 0.06293 0.62904 0.0
H503 H 0.39278 0.0549 0.56459 0.0
C504 C 0.50425 0.33519 0.436 0.0
C505 C 0.4774 0.33171 0.42278 0.0
C506 C 0.51459 0.35757 0.47616 0.0
C507 C 0.49755 0.37667 0.5035 0.0
C508 C 0.4701 0.37197 0.49824 0.0
C509 C 0.46036 0.34955 0.45739 0.0
C510 C 0.54391 0.36169 0.4815 0.0
C511 C 0.4512 0.39161 0.52826 0.0
C512 C 0.51821 0.43636 0.63126 0.0
C513 C 0.52113 0.45383 0.56827 0.0
C514 C 0.5118 0.41079 0.61105 0.0
C515 C 0.50828 0.40268 0.52567 0.0
C516 C 0.51281 0.42012 0.46124 0.0
C517 C 0.51937 0.44555 0.48344 0.0
C518 C 0.50784 0.39268 0.68111 0.0
C519 C 0.50928 0.4122 0.36931 0.0
H520 H 0.51742 0.32149 0.4082 0.0
H521 H 0.4396 0.34681 0.44656 0.0
H522 H 0.55189 0.37363 0.42979 0.0
H523 H 0.549 0.37164 0.54235 0.0
H524 H 0.55369 0.34363 0.47481 0.0
H525 H 0.43047 0.38391 0.52904 0.0
H526 H 0.45552 0.39935 0.59281 0.0
H527 H 0.45346 0.40748 0.48553 0.0
H528 H 0.52062 0.44278 0.69653 0.0
H529 H 0.52172 0.45916 0.43491 0.0
H530 H 0.52045 0.37663 0.66759 0.0
H531 H 0.48722 0.38476 0.68454 0.0
H532 H 0.51241 0.40182 0.7438 0.0
H533 H 0.521 0.39584 0.35004 0.0
H534 H 0.51519 0.42764 0.32665 0.0
H535 H 0.48838 0.40621 0.36031 0.0
C536 C 0.17249 0.50195 0.36719 0.0
C537 C 0.19289 0.51968 0.38813 0.0
C538 C 0.14797 0.50224 0.41065 0.0
C539 C 0.14402 0.5202 0.4787 0.0
C540 C 0.16528 0.53662 0.50536 0.0
C541 C 0.18955 0.53633 0.45899 0.0
C542 C 0.12582 0.48451 0.37961 0.0
C543 C 0.16206 0.5556 0.57901 0.0
C544 C 0.07354 0.53802 0.51571 0.0
C545 C 0.06411 0.52116 0.5764 0.0
C546 C 0.09993 0.53862 0.48543 0.0
C547 C 0.1172 0.52234 0.51819 0.0
C548 C 0.10794 0.50608 0.58204 0.0
C549 C 0.08138 0.50521 0.60863 0.0
C550 C 0.10908 0.55588 0.41599 0.0
C551 C 0.12579 0.48887 0.62014 0.0
H552 H 0.17525 0.48891 0.31271 0.0
H553 H 0.2053 0.55012 0.47495 0.0
H554 H 0.11691 0.47334 0.43197 0.0
H555 H 0.11022 0.49554 0.35701 0.0
H556 H 0.13242 0.4713 0.32703 0.0
H557 H 0.18111 0.56089 0.60761 0.0
H558 H 0.15456 0.57291 0.55629 0.0
H559 H 0.14783 0.54836 0.62873 0.0
H560 H 0.06017 0.55024 0.49037 0.0
H561 H 0.0741 0.49168 0.65413 0.0
H562 H 0.11554 0.54452 0.3585 0.0
H563 H 0.12621 0.56822 0.43578 0.0
H564 H 0.09345 0.56789 0.39919 0.0
H565 H 0.12958 0.47268 0.57489 0.0
H566 H 0.117 0.48139 0.68011 0.0
H567 H 0.14497 0.4989 0.63291 0.0
C568 C 0.9788 0.8359 0.89432 0.0
C569 C 0.95688 0.83344 0.95122 0.0
C570 C 0.98651 0.85916 0.86062 0.0
C571 C 0.97203 0.88037 0.88504 0.0
C572 C 0.94846 0.87741 0.93575 0.0
C573 C 0.94107 0.85388 0.96786 0.0
C574 C 0.01143 0.86148 0.80497 0.0
C575 C 0.93221 0.89949 0.9622 0.0
C576 C 0.00921 0.94443 0.89896 0.0
C577 C 0.00312 0.9545 0.82346 0.0
C578 C 0.99946 0.92014 0.91938 0.0
C579 C 0.98273 0.90591 0.8637 0.0
C580 C 0.97614 0.91616 0.78832 0.0
C581 C 0.98663 0.94021 0.76899 0.0
C582 C 0.00676 0.90984 0.00095 0.0
C583 C 0.95751 0.90197 0.72916 0.0
H584 H 0.99121 0.82025 0.88167 0.0
H585 H 0.92396 0.85194 0.01123 0.0
H586 H 0.00887 0.87319 0.75082 0.0
H587 H 0.02732 0.87094 0.8423 0.0
H588 H 0.01776 0.8428 0.78008 0.0
H589 H 0.91244 0.89331 0.98908 0.0
H590 H 0.94236 0.91159 0.01112 0.0
H591 H 0.92985 0.91124 0.90802 0.0
H592 H 0.02162 0.95559 0.94206 0.0
H593 H 0.9808 0.94805 0.713 0.0
H594 H 0.01631 0.89185 0.98735 0.0
H595 H 0.98881 0.90573 0.04184 0.0
H596 H 0.02027 0.92315 0.03666 0.0
H597 H 0.96557 0.88387 0.70587 0.0
H598 H 0.95383 0.91291 0.674 0.0
H599 H 0.93844 0.89735 0.76344 0.0
C600 C 0.66808 0.95507 0.89043 0.0
C601 C 0.68628 0.97214 0.92949 0.0
C602 C 0.64674 0.96371 0.85108 0.0
C603 C 0.64314 0.98987 0.85441 0.0
C604 C 0.66273 0.00715 0.88721 0.0
C605 C 0.6844 0.99802 0.9226 0.0
C606 C 0.62702 0.9448 0.81223 0.0
C607 C 0.65952 0.03519 0.89309 0.0
C608 C 0.59332 0.02152 0.73722 0.0
C609 C 0.57199 0.02214 0.79682 0.0
C610 C 0.61589 0.00944 0.75257 0.0
C611 C 0.61791 0.99931 0.8321 0.0
C612 C 0.5966 0.00033 0.89356 0.0
C613 C 0.57358 0.01129 0.87429 0.0
C614 C 0.6373 0.00723 0.68321 0.0
C615 C 0.59846 0.9907 0.98064 0.0
H616 H 0.66939 0.93505 0.89667 0.0
H617 H 0.69821 0.0112 0.95419 0.0
H618 H 0.6097 0.94206 0.85695 0.0
H619 H 0.6201 0.95161 0.75309 0.0
H620 H 0.6354 0.92623 0.79786 0.0
H621 H 0.677 0.04609 0.91773 0.0
H622 H 0.65596 0.04188 0.83011 0.0
H623 H 0.64219 0.03935 0.93582 0.0
H624 H 0.59217 0.0301 0.67751 0.0
H625 H 0.55716 0.01208 0.92061 0.0
H626 H 0.6381 0.98718 0.66047 0.0
H627 H 0.65677 0.01338 0.70709 0.0
H628 H 0.63392 0.01847 0.62851 0.0
H629 H 0.60258 0.9705 0.97572 0.0
H630 H 0.58017 0.99292 0.02098 0.0
H631 H 0.61499 0.00105 0.01268 0.0
C632 C 0.56017 0.66075 0.06654 0.0
C633 C 0.5497 0.68366 0.05127 0.0
C634 C 0.55163 0.63822 0.02421 0.0
C635 C 0.53365 0.63875 0.96001 0.0
C636 C 0.52504 0.66212 0.93791 0.0
C637 C 0.53274 0.68429 0.98509 0.0
C638 C 0.5607 0.61371 0.052 0.0
C639 C 0.50668 0.66377 0.86762 0.0
C640 C 0.53199 0.57859 0.82148 0.0
C641 C 0.50855 0.56601 0.85088 0.0
C642 C 0.53942 0.603 0.85216 0.0
C643 C 0.52381 0.61464 0.91768 0.0
C644 C 0.50013 0.60204 0.94818 0.0
C645 C 0.49255 0.57795 0.91338 0.0
C646 C 0.56445 0.6159 0.81601 0.0
C647 C 0.48341 0.61356 0.01995 0.0
H648 H 0.57402 0.66018 0.11548 0.0
H649 H 0.52449 0.70181 0.97255 0.0
H650 H 0.54349 0.60084 0.06901 0.0
H651 H 0.57214 0.60416 -0.00048 0.0
H652 H 0.57312 0.61653 0.10742 0.0
H653 H 0.50969 0.68229 0.83855 0.0
H654 H 0.50927 0.64862 0.81735 0.0
H655 H 0.48614 0.66198 0.89407 0.0
H656 H 0.5449 0.56924 0.77495 0.0
H657 H 0.47459 0.56815 0.93688 0.0
H658 H 0.58049 0.61429 0.85906 0.0
H659 H 0.56212 0.63623 0.80957 0.0
H660 H 0.57061 0.60724 0.75313 0.0
H661 H 0.49519 0.61744 0.07645 0.0
H662 H 0.46588 0.60113 0.03749 0.0
H663 H 0.47679 0.6318 0.00198 0.0
C664 C 0.83627 0.44773 0.99739 0.0
C665 C 0.82031 0.46813 -0.00026 0.0
C666 C 0.86124 0.4491 0.956 0.0
C667 C 0.87041 0.47156 0.91754 0.0
C668 C 0.85317 0.49102 0.91161 0.0
C669 C 0.82815 0.48901 0.95275 0.0
C670 C 0.87873 0.42762 0.96159 0.0
C671 C 0.86211 0.5152 0.87054 0.0
C672 C 0.94214 0.49197 0.94164 0.0
C673 C 0.95278 0.48714 0.85965 0.0
C674 C 0.91528 0.48692 0.96113 0.0
C675 C 0.89892 0.47642 0.89708 0.0
C676 C 0.90984 0.47083 0.81465 0.0
C677 C 0.93675 0.47622 0.79707 0.0
C678 C 0.90434 0.49326 0.0499 0.0
C679 C 0.89319 0.45909 0.74537 0.0
H680 H 0.83012 0.43163 0.03418 0.0
H681 H 0.81586 0.50488 0.95546 0.0
H682 H 0.89015 0.42411 0.90088 0.0
H683 H 0.89292 0.43257 0.01117 0.0
H684 H 0.86729 0.40997 0.97823 0.0
H685 H 0.84525 0.52602 0.85605 0.0
H686 H 0.87453 0.52709 0.91425 0.0
H687 H 0.87413 0.51143 0.81123 0.0
H688 H 0.95472 0.50031 0.98989 0.0
H689 H 0.94525 0.47169 0.73444 0.0
H690 H 0.89509 0.47605 0.07812 0.0
H691 H 0.88888 0.50683 0.04817 0.0
H692 H 0.91966 0.50156 0.09192 0.0
H693 H 0.88595 0.43978 0.76145 0.0
H694 H 0.90426 0.45798 0.68295 0.0
H695 H 0.87573 0.47001 0.73972 0.0
C696 C 0.07024 0.18691 0.1543 0.0
C697 C 0.0497 0.20283 0.17205 0.0
C698 C 0.06924 0.16871 0.08688 0.0
C699 C 0.04694 0.16624 0.03747 0.0
C700 C 0.02772 0.18425 0.04914 0.0
C701 C 0.02939 0.20249 0.1165 0.0
C702 C 0.09046 0.15026 0.07539 0.0
C703 C 0.00369 0.18236 0.99774 0.0
C704 C 0.04307 0.11579 0.85766 0.0
C705 C 0.02993 0.09572 0.89928 0.0
C706 C 0.04876 0.13904 0.90134 0.0
C707 C 0.04099 0.14215 0.9883 0.0
C708 C 0.0276 0.12187 0.03025 0.0
C709 C 0.02229 0.0989 0.98515 0.0
C710 C 0.06307 0.16019 0.85468 0.0
C711 C 0.0189 0.12438 0.12304 0.0
H712 H 0.08591 0.18724 0.19763 0.0
H713 H 0.01342 0.21471 0.13087 0.0
H714 H 0.0834 0.13244 0.10454 0.0
H715 H 0.09528 0.14576 0.00728 0.0
H716 H 0.10862 0.15764 0.10594 0.0
H717 H 0.9937 0.20031 0.00193 0.0
H718 H 0.00877 0.1772 0.93028 0.0
H719 H 0.98964 0.16736 0.02213 0.0
H720 H 0.04891 0.11329 0.79101 0.0
H721 H 0.01207 0.08339 0.01722 0.0
H722 H 0.08098 0.16703 0.88742 0.0
H723 H 0.05043 0.17629 0.85455 0.0
H724 H 0.06879 0.15433 0.7881 0.0
H725 H 0.0362 0.12866 0.16172 0.0
H726 H 0.00819 0.10698 0.14546 0.0
H727 H 0.00592 0.14023 0.1347 0.0
C728 C 0.32403 0.00309 0.03747 0.0
C729 C 0.31771 0.02439 0.08857 0.0
C730 C 0.34635 0.00384 0.98137 0.0
C731 C 0.36289 0.02623 0.97853 0.0
C732 C 0.35475 0.04851 0.02247 0.0
C733 C 0.3319 0.04739 0.07583 0.0
C734 C 0.35367 0.97998 0.93233 0.0
C735 C 0.37183 0.07273 0.02224 0.0
C736 C 0.43613 0.01701 0.95017 0.0
C737 C 0.44183 0.02426 0.86734 0.0
C738 C 0.41058 0.01809 0.98766 0.0
C739 C 0.39007 0.0255 0.93968 0.0
C740 C 0.39569 0.03242 0.8556 0.0
C741 C 0.42157 0.03231 0.82136 0.0
C742 C 0.4055 0.01128 0.0786 0.0
C743 C 0.37434 0.03954 0.80129 0.0
H744 H 0.3133 0.98522 0.04825 0.0
H745 H 0.32727 0.06373 0.11669 0.0
H746 H 0.36136 0.98404 0.8673 0.0
H747 H 0.36937 0.97147 0.96427 0.0
H748 H 0.33666 0.96595 0.92828 0.0
H749 H 0.36101 0.08907 0.04859 0.0
H750 H 0.38883 0.07093 0.06143 0.0
H751 H 0.37969 0.07664 0.95737 0.0
H752 H 0.45169 0.01075 0.98586 0.0
H753 H 0.42573 0.03779 0.75716 0.0
H754 H 0.39157 0.99446 0.08191 0.0
H755 H 0.39631 0.02692 0.11619 0.0
H756 H 0.42376 0.0072 0.10845 0.0
H757 H 0.35819 0.02457 0.80051 0.0
H758 H 0.38164 0.0425 0.73503 0.0
H759 H 0.36588 0.05708 0.82821 0.0
C760 C 0.47235 0.31993 0.06646 0.0
C761 C 0.4521 0.31961 0.12974 0.0
C762 C 0.47439 0.33857 0.00703 0.0
C763 C 0.45561 0.35703 0.01131 0.0
C764 C 0.43339 0.35475 0.06851 0.0
C765 C 0.43199 0.3361 0.12763 0.0
C766 C 0.49831 0.34024 0.94672 0.0
C767 C 0.41265 0.37372 0.07408 0.0
C768 C 0.48176 0.42386 0.97374 0.0
C769 C 0.47406 0.42696 0.89202 0.0
C770 C 0.47584 0.40113 0.01291 0.0
C771 C 0.46179 0.38105 0.96914 0.0
C772 C 0.45379 0.38416 0.88664 0.0
C773 C 0.46 0.40717 0.84903 0.0
C774 C 0.48481 0.39858 0.10104 0.0
C775 C 0.43874 0.36324 0.83827 0.0
H776 H 0.48802 0.30729 0.06878 0.0
H777 H 0.41638 0.33581 0.17697 0.0
H778 H 0.49312 0.34552 0.88344 0.0
H779 H 0.51257 0.35509 0.97142 0.0
H780 H 0.50807 0.32218 0.93956 0.0
H781 H 0.39447 0.36665 0.10916 0.0
H782 H 0.42028 0.3913 0.10777 0.0
H783 H 0.40768 0.37857 0.01008 0.0
H784 H 0.49269 0.43916 0.00684 0.0
H785 H 0.45403 0.40961 0.78567 0.0
H786 H 0.49765 0.3826 0.10103 0.0
H787 H 0.46763 0.39443 0.14517 0.0
H788 H 0.49577 0.41589 0.12582 0.0
H789 H 0.4499 0.34603 0.83278 0.0
H790 H 0.43468 0.36845 0.77367 0.0
H791 H 0.41981 0.35841 0.87317 0.0
C792 C 0.20712 0.55185 0.07615 0.0
C793 C 0.22074 0.53081 0.09201 0.0
C794 C 0.18671 0.54969 0.0204 0.0
C795 C 0.18023 0.52605 0.97897 0.0
C796 C 0.19679 0.50602 0.98422 0.0
C797 C 0.21681 0.50854 0.04173 0.0
C798 C 0.17015 0.5718 0.01381 0.0
C799 C 0.19162 0.48114 0.93589 0.0
C800 C 0.10744 0.50815 0.96555 0.0
C801 C 0.1029 0.51454 0.88365 0.0
C802 C 0.13263 0.51169 0.99672 0.0
C803 C 0.15392 0.52113 0.94363 0.0
C804 C 0.1495 0.52689 0.85978 0.0
C805 C 0.12394 0.52389 0.83131 0.0
C806 C 0.13628 0.50594 0.08741 0.0
C807 C 0.17126 0.53661 0.79949 0.0
H808 H 0.21014 0.56903 0.11551 0.0
H809 H 0.22728 0.49224 0.05423 0.0
H810 H 0.1671 0.57473 0.94646 0.0
H811 H 0.15058 0.56783 0.04602 0.0
H812 H 0.17923 0.58945 0.04325 0.0
H813 H 0.20876 0.46934 0.93421 0.0
H814 H 0.17452 0.47065 0.96657 0.0
H815 H 0.18679 0.4842 0.87002 0.0
H816 H 0.09116 0.50098 0.00602 0.0
H817 H 0.12051 0.52878 0.76761 0.0
H818 H 0.14432 0.52308 0.12266 0.0
H819 H 0.15063 0.4913 0.08939 0.0
H820 H 0.11764 0.49921 0.12071 0.0
H821 H 0.19111 0.53596 0.82348 0.0
H822 H 0.16803 0.55637 0.78636 0.0
H823 H 0.17065 0.52541 0.73829 0.0
C824 C 0.98903 0.81964 0.24853 0.0
C825 C 0.96365 0.80893 0.2377 0.0
C826 C 0.99363 0.83903 0.31033 0.0
C827 C 0.97241 0.84708 0.36428 0.0
C828 C 0.94757 0.83373 0.36131 0.0
C829 C 0.94329 0.81507 0.29642 0.0
C830 C 0.02029 0.85305 0.30966 0.0
C831 C 0.92481 0.84092 0.4206 0.0
C832 C 0.99095 0.89827 0.53039 0.0
C833 C 0.984 0.91982 0.49272 0.0
C834 C 0.9859 0.87421 0.49181 0.0
C835 C 0.9751 0.87193 0.41144 0.0
C836 C 0.96832 0.89378 0.37275 0.0
C837 C 0.97226 0.91747 0.41507 0.0
C838 C 0.99204 0.85131 0.53692 0.0
C839 C 0.95768 0.89226 0.28548 0.0
H840 H 0.00459 0.8151 0.20176 0.0
H841 H 0.9236 0.80695 0.28711 0.0
H842 H 0.01907 0.87144 0.28114 0.0
H843 H 0.02682 0.85698 0.37481 0.0
H844 H 0.0354 0.84243 0.2723 0.0
H845 H 0.9093 0.82534 0.42421 0.0
H846 H 0.9314 0.84608 0.48517 0.0
H847 H 0.91605 0.85753 0.39743 0.0
H848 H 0.99995 0.9002 0.59089 0.0
H849 H 0.96706 0.93424 0.38605 0.0
H850 H 0.00657 0.84037 0.49838 0.0
H851 H 0.97399 0.83877 0.54543 0.0
H852 H 0.99989 0.85635 0.59998 0.0
H853 H 0.97159 0.88293 0.23931 0.0
H854 H 0.95434 0.91111 0.26327 0.0
H855 H 0.93884 0.8807 0.28549 0.0
C856 C 0.68048 0.96602 0.31155 0.0
C857 C 0.6744 0.96816 0.22699 0.0
C858 C 0.66185 0.97086 0.37873 0.0
C859 C 0.63628 0.97692 0.36069 0.0
C860 C 0.62987 0.97856 0.27591 0.0
C861 C 0.64914 0.9752 0.21104 0.0
C862 C 0.66972 0.97025 0.46885 0.0
C863 C 0.60265 0.98429 0.25315 0.0
C864 C 0.57773 0.96889 0.51701 0.0
C865 C 0.57234 0.99401 0.53757 0.0
C866 C 0.5991 0.96292 0.46159 0.0
C867 C 0.61612 0.98257 0.42932 0.0
C868 C 0.61151 0.00795 0.45378 0.0
C869 C 0.58922 0.01338 0.5056 0.0
C870 C 0.60256 0.9357 0.43387 0.0
C871 C 0.62981 0.02941 0.42387 0.0
H872 H 0.69979 0.96083 0.3256 0.0
H873 H 0.6442 0.97871 0.14753 0.0
H874 H 0.66844 0.98927 0.50074 0.0
H875 H 0.65604 0.95725 0.50479 0.0
H876 H 0.69001 0.96433 0.47246 0.0
H877 H 0.59997 0.98146 0.1841 0.0
H878 H 0.58757 0.9721 0.28701 0.0
H879 H 0.59901 0.00412 0.27268 0.0
H880 H 0.56466 0.9539 0.54189 0.0
H881 H 0.58534 0.03282 0.52277 0.0
H882 H 0.6229 0.93079 0.44252 0.0
H883 H 0.59914 0.93276 0.36537 0.0
H884 H 0.58877 0.9226 0.46928 0.0
H885 H 0.65053 0.02523 0.43041 0.0
H886 H 0.62603 0.04746 0.45981 0.0
H887 H 0.62732 0.0319 0.3559 0.0
C888 C 0.57449 0.70691 0.38782 0.0
C889 C 0.55201 0.7132 0.34968 0.0
C890 C 0.57292 0.68781 0.44559 0.0
C891 C 0.5485 0.67446 0.46243 0.0
C892 C 0.52534 0.68337 0.43366 0.0
C893 C 0.52738 0.70304 0.37838 0.0
C894 C 0.59769 0.68011 0.48114 0.0
C895 C 0.49882 0.67008 0.45206 0.0
C896 C 0.54887 0.60343 0.46737 0.0
C897 C 0.54048 0.59958 0.55129 0.0
C898 C 0.55194 0.62786 0.43814 0.0
C899 C 0.54766 0.64889 0.49548 0.0
C900 C 0.5406 0.64503 0.58153 0.0
C901 C 0.53638 0.62036 0.60783 0.0
C902 C 0.55856 0.63107 0.34501 0.0
C903 C 0.53656 0.6666 0.64604 0.0
H904 H 0.59355 0.7148 0.36543 0.0
H905 H 0.51006 0.70795 0.34827 0.0
H906 H 0.59398 0.6753 0.54819 0.0
H907 H 0.60449 0.66312 0.44477 0.0
H908 H 0.61363 0.69528 0.47727 0.0
H909 H 0.4826 0.68046 0.43006 0.0
H910 H 0.49818 0.65099 0.41988 0.0
H911 H 0.49544 0.66775 0.52096 0.0
H912 H 0.55183 0.5873 0.42373 0.0
H913 H 0.5298 0.61738 0.67292 0.0
H914 H 0.57707 0.64292 0.33635 0.0
H915 H 0.54285 0.64086 0.31749 0.0
H916 H 0.56082 0.61278 0.30881 0.0
H917 H 0.545 0.66268 0.70647 0.0
H918 H 0.51522 0.6684 0.65942 0.0
H919 H 0.54557 0.68484 0.62496 0.0
C920 C 0.8109 0.50962 0.32722 0.0
C921 C 0.8027 0.48481 0.30284 0.0
C922 C 0.83066 0.51465 0.38492 0.0
C923 C 0.84226 0.49431 0.41885 0.0
C924 C 0.83196 0.46935 0.4012 0.0
C925 C 0.8124 0.46489 0.34271 0.0
C926 C 0.841 0.54153 0.40217 0.0
C927 C 0.84344 0.44715 0.43697 0.0
C928 C 0.91549 0.50084 0.44971 0.0
C929 C 0.91619 0.50507 0.53751 0.0
C930 C 0.89152 0.49778 0.41045 0.0
C931 C 0.86765 0.49869 0.4605 0.0
C932 C 0.86828 0.50315 0.5493 0.0
C933 C 0.89259 0.50645 0.58672 0.0
C934 C 0.89175 0.49329 0.31535 0.0
C935 C 0.84333 0.50394 0.60484 0.0
H936 H 0.80373 0.52497 0.29498 0.0
H937 H 0.8063 0.44569 0.32261 0.0
H938 H 0.84463 0.54527 0.47019 0.0
H939 H 0.85999 0.54482 0.36576 0.0
H940 H 0.82724 0.5552 0.38329 0.0
H941 H 0.83047 0.42969 0.42941 0.0
H942 H 0.86266 0.44384 0.40343 0.0
H943 H 0.84692 0.45094 0.50509 0.0
H944 H 0.93373 0.49984 0.41161 0.0
H945 H 0.89313 0.50975 0.65473 0.0
H946 H 0.88069 0.5077 0.28755 0.0
H947 H 0.88187 0.47462 0.2989 0.0
H948 H 0.91195 0.4939 0.28547 0.0
H949 H 0.83032 0.51761 0.58191 0.0
H950 H 0.84717 0.50919 0.67205 0.0
H951 H 0.83253 0.48519 0.60159 0.0
loop_
_geom_bond_atom_site_label_1
_geom_bond_atom_site_label_2
_geom_bond_distance
_geom_bond_site_symmetry_2
_ccdc_geom_bond_type
H0 C7 0.929 . S
H1 C10 0.930 1_556 S
H2 C12 0.929 . S
H3 C4 0.970 . S
C4 H3 0.970 . S
C4 O5 1.542 1_556 S
C4 H6 0.981 . S
O5 C4 1.542 1_554 S
O5 C11 1.412 . S
H6 C4 0.981 . S
C7 H0 0.929 . S
C7 C8 1.400 . S
C7 C9 1.364 . S
C8 C7 1.400 . S
C8 C12 1.377 . S
C9 C7 1.364 . S
C9 C10 1.374 . S
C10 H1 0.930 1_554 S
C10 C9 1.374 . S
C10 C11 1.383 . S
C11 O5 1.412 . S
C11 C10 1.383 . S
C11 C12 1.394 . S
C12 H2 0.929 . S
C12 C8 1.377 . S
C12 C11 1.394 . S
H13 C20 0.929 . S
H14 C23 0.930 . S
H15 C25 0.929 . S
H16 C17 0.969 . S
C17 H16 0.969 . S
C17 O18 1.550 1_556 S
C17 H19 0.973 . S
O18 C17 1.550 1_554 S
O18 C24 1.412 . S
H19 C17 0.973 . S
C20 H13 0.929 . S
C20 C21 1.400 . S
C20 C22 1.364 1_554 S
C21 C20 1.400 . S
C21 C25 1.377 . S
C22 C20 1.364 1_556 S
C22 C23 1.374 . S
C23 H14 0.930 . S
C23 C22 1.374 . S
C23 C24 1.383 1_556 S
C24 O18 1.412 . S
C24 C23 1.383 1_554 S
C24 C25 1.394 . S
C25 H15 0.929 . S
C25 C21 1.377 . S
C25 C24 1.394 . S
H26 C33 0.929 . S
H27 C36 0.930 1_556 S
H28 C38 0.929 . S
H29 C30 0.969 . S
C30 H29 0.969 . S
C30 O31 1.550 1_556 S
C30 H32 0.973 . S
O31 C30 1.550 1_554 S
O31 C37 1.412 . S
H32 C30 0.973 . S
C33 H26 0.929 . S
C33 C34 1.400 . S
C33 C35 1.364 . S
C34 C33 1.400 . S
C34 C38 1.377 . S
C35 C33 1.364 . S
C35 C36 1.374 . S
C36 H27 0.930 1_554 S
C36 C35 1.374 . S
C36 C37 1.383 . S
C37 O31 1.412 . S
C37 C36 1.383 . S
C37 C38 1.394 . S
C38 H28 0.929 . S
C38 C34 1.377 . S
C38 C37 1.394 . S
H39 C46 0.929 . S
H40 C49 0.930 1_556 S
H41 C51 0.929 . S
H42 C43 0.969 . S
C43 H42 0.969 . S
C43 O44 1.550 . S
C43 H45 0.973 1_554 S
O44 C43 1.550 . S
O44 C50 1.412 . S
H45 C43 0.973 1_556 S
C46 H39 0.929 . S
C46 C47 1.400 . S
C46 C48 1.364 . S
C47 C46 1.400 . S
C47 C51 1.377 . S
C48 C46 1.364 . S
C48 C49 1.374 . S
C49 H40 0.930 1_554 S
C49 C48 1.374 . S
C49 C50 1.383 . S
C50 O44 1.412 . S
C50 C49 1.383 . S
C50 C51 1.394 . S
C51 H41 0.929 . S
C51 C47 1.377 . S
C51 C50 1.394 . S
H52 C59 0.929 . S
H53 C62 0.930 . S
H54 C64 0.929 . S
H55 C56 0.969 . S
C56 H55 0.969 . S
C56 O57 1.550 . S
C56 H58 0.973 . S
O57 C56 1.550 . S
O57 C63 1.412 . S
H58 C56 0.973 . S
C59 H52 0.929 . S
C59 C60 1.400 . S
C59 C61 1.364 . S
C60 C59 1.400 . S
C60 C64 1.377 . S
C61 C59 1.364 . S
C61 C62 1.374 . S
C62 H53 0.930 . S
C62 C61 1.374 . S
C62 C63 1.383 . S
C63 O57 1.412 . S
C63 C62 1.383 . S
C63 C64 1.394 . S
C64 H54 0.929 . S
C64 C60 1.377 . S
C64 C63 1.394 . S
H65 C72 0.929 . S
H66 C75 0.930 . S
H67 C77 0.929 . S
H68 C69 0.969 . S
C69 H68 0.969 . S
C69 O70 1.550 . S
C69 H71 0.973 . S
O70 C69 1.550 . S
O70 C76 1.412 . S
H71 C69 0.973 . S
C72 H65 0.929 . S
C72 C73 1.400 . S
C72 C74 1.364 . S
C73 C72 1.400 . S
C73 C77 1.377 . S
C74 C72 1.364 . S
C74 C75 1.374 . S
C75 H66 0.930 . S
C75 C74 1.374 . S
C75 C76 1.383 . S
C76 O70 1.412 . S
C76 C75 1.383 . S
C76 C77 1.394 . S
C77 H67 0.929 . S
C77 C73 1.377 . S
C77 C76 1.394 . S
H78 C85 0.929 . S
H79 C88 0.930 . S
H80 C90 0.929 . S
H81 C82 0.969 . S
C82 H81 0.969 . S
C82 O83 1.550 . S
C82 H84 0.973 . S
O83 C82 1.550 . S
O83 C89 1.412 . S
H84 C82 0.973 . S
C85 H78 0.929 . S
C85 C86 1.400 . S
C85 C87 1.364 . S
C86 C85 1.400 . S
C86 C90 1.377 . S
C87 C85 1.364 . S
C87 C88 1.374 . S
C88 H79 0.930 . S
C88 C87 1.374 . S
C88 C89 1.383 . S
C89 O83 1.412 . S
C89 C88 1.383 . S
C89 C90 1.394 . S
C90 H80 0.929 . S
C90 C86 1.377 . S
C90 C89 1.394 . S
H91 C98 0.929 . S
H92 C101 0.930 . S
H93 C103 0.929 . S
H94 C95 0.969 . S
C95 H94 0.969 . S
C95 O96 1.550 . S
C95 H97 0.973 . S
O96 C95 1.550 . S
O96 C102 1.412 . S
H97 C95 0.973 . S
C98 H91 0.929 . S
C98 C99 1.400 . S
C98 C100 1.364 . S
C99 C98 1.400 . S
C99 C103 1.377 . S
C100 C98 1.364 . S
C100 C101 1.374 . S
C101 H92 0.930 . S
C101 C100 1.374 . S
C101 C102 1.383 . S
C102 O96 1.412 . S
C102 C101 1.383 . S
C102 C103 1.394 . S
C103 H93 0.929 . S
C103 C99 1.377 . S
C103 C102 1.394 . S
Tb104 O107 2.407 1_565 S
Tb104 O108 2.564 1_665 S
Tb104 O109 2.374 1_665 S
Tb104 O117 2.367 1_655 S
Tb104 O119 2.347 1_565 S
Tb104 O121 2.464 . S
Tb104 O122 2.554 1_655 S
C105 O109 1.251 . S
C105 O111 1.263 . S
Tb106 O108 2.343 . S
Tb106 O111 2.353 . S
Tb106 O114 2.427 . S
Tb106 O115 2.523 . S
Tb106 O116 2.453 1_545 S
Tb106 O117 2.596 1_545 S
Tb106 O118 2.374 1_455 S
O107 Tb104 2.407 1_545 S
O107 C123 1.245 1_655 S
O108 Tb104 2.564 1_445 S
O108 Tb106 2.343 . S
O108 C123 1.259 . S
O109 Tb104 2.374 1_445 S
O109 C105 1.251 . S
C110 O114 1.275 . S
C110 O115 1.271 . S
O111 C105 1.263 . S
O111 Tb106 2.353 . S
C112 O116 1.245 . S
C112 O117 1.259 . S
C113 O118 1.250 . S
C113 O119 1.263 . S
O114 Tb106 2.427 . S
O114 C110 1.275 . S
O115 Tb106 2.523 . S
O115 C110 1.271 . S
O116 Tb106 2.453 1_565 S
O116 C112 1.245 . S
O117 Tb104 2.367 1_455 S
O117 Tb106 2.596 1_565 S
O117 C112 1.259 . S
O118 Tb106 2.374 1_655 S
O118 C113 1.250 . S
O119 Tb104 2.347 1_545 S
O119 C113 1.263 . S
C120 O121 1.275 . S
C120 O122 1.246 1_655 S
O121 Tb104 2.464 . S
O121 C120 1.275 . S
O122 Tb104 2.554 1_455 S
O122 C120 1.246 1_455 S
C123 O107 1.245 1_455 S
C123 O108 1.259 . S
Tb124 O127 2.453 . S
Tb124 O128 2.596 1_545 S
Tb124 O129 2.374 . S
Tb124 O137 2.343 . S
Tb124 O139 2.353 . S
Tb124 O141 2.427 . S
Tb124 O142 2.513 . S
C125 O129 1.242 1_565 S
C125 O131 1.269 . S
Tb126 O128 2.343 . S
Tb126 O131 2.353 . S
Tb126 O134 2.427 . S
Tb126 O135 2.513 . S
Tb126 O136 2.453 . S
Tb126 O137 2.596 1_565 S
Tb126 O138 2.374 . S
O127 Tb124 2.453 . S
O127 C143 1.245 . S
O128 Tb124 2.596 1_565 S
O128 Tb126 2.343 . S
O128 C143 1.259 1_565 S
O129 Tb124 2.374 . S
O129 C125 1.242 1_545 S
C130 O134 1.275 . S
C130 O135 1.246 . S
O131 C125 1.269 . S
O131 Tb126 2.353 . S
C132 O136 1.245 1_545 S
C132 O137 1.259 . S
C133 O138 1.250 1_545 S
C133 O139 1.263 . S
O134 Tb126 2.427 . S
O134 C130 1.275 . S
O135 Tb126 2.513 . S
O135 C130 1.246 . S
O136 Tb126 2.453 . S
O136 C132 1.245 1_565 S
O137 Tb124 2.343 . S
O137 Tb126 2.596 1_545 S
O137 C132 1.259 . S
O138 Tb126 2.374 . S
O138 C133 1.250 1_565 S
O139 Tb124 2.353 . S
O139 C133 1.263 . S
C140 O141 1.275 . S
C140 O142 1.246 . S
O141 Tb124 2.427 . S
O141 C140 1.275 . S
O142 Tb124 2.513 . S
O142 C140 1.246 . S
C143 O127 1.245 . S
C143 O128 1.259 1_545 S
Tb144 O147 2.453 . S
Tb144 O148 2.596 . S
Tb144 O149 2.374 . S
Tb144 O157 2.343 . S
Tb144 O159 2.353 . S
Tb144 O161 2.427 . S
Tb144 O162 2.513 . S
C145 O149 1.251 . S
C145 O151 1.263 . S
Tb146 O148 2.343 . S
Tb146 O151 2.353 . S
Tb146 O154 2.427 . S
Tb146 O155 2.513 . S
Tb146 O156 2.453 . S
Tb146 O157 2.596 . S
Tb146 O158 2.374 . S
O147 Tb144 2.453 . S
O147 C163 1.245 . S
O148 Tb144 2.596 . S
O148 Tb146 2.343 . S
O148 C163 1.259 . S
O149 Tb144 2.374 . S
O149 C145 1.251 . S
C150 O154 1.275 . S
C150 O155 1.246 . S
O151 C145 1.263 . S
O151 Tb146 2.353 . S
C152 O156 1.245 . S
C152 O157 1.259 . S
C153 O158 1.250 . S
C153 O159 1.263 . S
O154 Tb146 2.427 . S
O154 C150 1.275 . S
O155 Tb146 2.513 . S
O155 C150 1.246 . S
O156 Tb146 2.453 . S
O156 C152 1.245 . S
O157 Tb144 2.343 . S
O157 Tb146 2.596 . S
O157 C152 1.259 . S
O158 Tb146 2.374 . S
O158 C153 1.250 . S
O159 Tb144 2.353 . S
O159 C153 1.263 . S
C160 O161 1.275 . S
C160 O162 1.246 . S
O161 Tb144 2.427 . S
O161 C160 1.275 . S
O162 Tb144 2.513 . S
O162 C160 1.246 . S
C163 O147 1.245 . S
C163 O148 1.259 . S
Tb164 O167 2.453 1_655 S
Tb164 O168 2.596 1_655 S
Tb164 O169 2.374 1_655 S
Tb164 O177 2.343 . S
Tb164 O179 2.353 1_655 S
Tb164 O181 2.427 . S
Tb164 O182 2.513 . S
C165 O169 1.251 . S
C165 O171 1.263 . S
Tb166 O168 2.343 . S
Tb166 O171 2.353 . S
Tb166 O174 2.427 . S
Tb166 O175 2.513 . S
Tb166 O176 2.453 1_455 S
Tb166 O177 2.596 1_455 S
Tb166 O178 2.374 . S
O167 Tb164 2.453 1_455 S
O167 C183 1.245 . S
O168 Tb164 2.596 1_455 S
O168 Tb166 2.343 . S
O168 C183 1.259 . S
O169 Tb164 2.374 1_455 S
O169 C165 1.251 . S
C170 O174 1.275 . S
C170 O175 1.246 . S
O171 C165 1.263 . S
O171 Tb166 2.353 . S
C172 O176 1.245 . S
C172 O177 1.259 . S
C173 O178 1.250 . S
C173 O179 1.263 . S
O174 Tb166 2.427 . S
O174 C170 1.275 . S
O175 Tb166 2.513 . S
O175 C170 1.246 . S
O176 Tb166 2.453 1_655 S
O176 C172 1.245 . S
O177 Tb164 2.343 . S
O177 Tb166 2.596 1_655 S
O177 C172 1.259 . S
O178 Tb166 2.374 . S
O178 C173 1.250 . S
O179 Tb164 2.353 1_455 S
O179 C173 1.263 . S
C180 O181 1.275 . S
C180 O182 1.246 . S
O181 Tb164 2.427 . S
O181 C180 1.275 . S
O182 Tb164 2.513 . S
O182 C180 1.246 . S
C183 O167 1.245 . S
C183 O168 1.259 . S
C184 C185 1.391 . S
C184 C186 1.394 . S
C184 H200 0.931 . S
C185 C184 1.391 . S
C185 C189 1.376 . S
C186 C184 1.394 . S
C186 C187 1.369 . S
C186 C190 1.531 1_545 S
C187 C186 1.369 . S
C187 C188 1.410 . S
C187 C195 1.503 . S
C188 C187 1.410 . S
C188 C189 1.392 . S
C188 C191 1.511 . S
C189 C185 1.376 . S
C189 C188 1.392 . S
C189 H201 0.929 . S
C190 C186 1.531 1_565 S
C190 H202 0.960 . S
C190 H203 0.962 . S
C190 H204 0.960 . S
C191 C188 1.511 . S
C191 H205 0.961 . S
C191 H206 0.961 . S
C191 H207 0.961 . S
C192 C193 1.370 . S
C192 C194 1.363 . S
C192 H208 0.931 . S
C193 C192 1.370 . S
C193 C197 1.408 . S
C194 C192 1.363 . S
C194 C195 1.370 . S
C194 C198 1.524 . S
C195 C187 1.503 . S
C195 C194 1.370 . S
C195 C196 1.403 . S
C196 C195 1.403 . S
C196 C197 1.404 . S
C196 C199 1.539 . S
C197 C193 1.408 . S
C197 C196 1.404 . S
C197 H209 0.930 . S
C198 C194 1.524 . S
C198 H210 0.956 . S
C198 H211 0.961 . S
C198 H212 0.961 . S
C199 C196 1.539 . S
C199 H213 0.958 1_545 S
C199 H214 0.961 . S
C199 H215 0.960 . S
H200 C184 0.931 . S
H201 C189 0.929 . S
H202 C190 0.960 . S
H203 C190 0.962 . S
H204 C190 0.960 . S
H205 C191 0.961 . S
H206 C191 0.961 . S
H207 C191 0.961 . S
H208 C192 0.931 . S
H209 C197 0.930 . S
H210 C198 0.956 . S
H211 C198 0.961 . S
H212 C198 0.961 . S
H213 C199 0.958 1_565 S
H214 C199 0.961 . S
H215 C199 0.960 . S
C216 C217 1.391 . S
C216 C218 1.394 . S
C216 H232 0.931 . S
C217 C216 1.391 . S
C217 C221 1.376 . S
C218 C216 1.394 . S
C218 C219 1.369 . S
C218 C222 1.531 . S
C219 C218 1.369 . S
C219 C220 1.410 . S
C219 C227 1.503 . S
C220 C219 1.410 . S
C220 C221 1.392 . S
C220 C223 1.511 . S
C221 C217 1.376 . S
C221 C220 1.392 . S
C221 H233 0.929 . S
C222 C218 1.531 . S
C222 H234 0.960 . S
C222 H235 0.962 . S
C222 H236 0.960 . S
C223 C220 1.511 . S
C223 H237 0.961 . S
C223 H238 0.961 . S
C223 H239 0.961 . S
C224 C225 1.370 . S
C224 C226 1.363 . S
C224 H240 0.931 . S
C225 C224 1.370 . S
C225 C229 1.408 . S
C226 C224 1.363 . S
C226 C227 1.370 . S
C226 C230 1.524 . S
C227 C219 1.503 . S
C227 C226 1.370 . S
C227 C228 1.403 . S
C228 C227 1.403 . S
C228 C229 1.404 . S
C228 C231 1.539 . S
C229 C225 1.408 . S
C229 C228 1.404 . S
C229 H241 0.930 . S
C230 C226 1.524 . S
C230 H242 0.956 . S
C230 H243 0.961 . S
C230 H244 0.961 . S
C231 C228 1.539 . S
C231 H245 0.958 . S
C231 H246 0.961 . S
C231 H247 0.960 . S
H232 C216 0.931 . S
H233 C221 0.929 . S
H234 C222 0.960 . S
H235 C222 0.962 . S
H236 C222 0.960 . S
H237 C223 0.961 . S
H238 C223 0.961 . S
H239 C223 0.961 . S
H240 C224 0.931 . S
H241 C229 0.930 . S
H242 C230 0.956 . S
H243 C230 0.961 . S
H244 C230 0.961 . S
H245 C231 0.958 . S
H246 C231 0.961 . S
H247 C231 0.960 . S
C248 C249 1.391 . S
C248 C250 1.394 . S
C248 H264 0.931 . S
C249 C248 1.391 . S
C249 C253 1.376 . S
C250 C248 1.394 . S
C250 C251 1.369 . S
C250 C254 1.531 . S
C251 C250 1.369 . S
C251 C252 1.410 . S
C251 C259 1.503 . S
C252 C251 1.410 . S
C252 C253 1.392 . S
C252 C255 1.511 . S
C253 C249 1.376 . S
C253 C252 1.392 . S
C253 H265 0.929 . S
C254 C250 1.531 . S
C254 H266 0.960 . S
C254 H267 0.962 . S
C254 H268 0.960 . S
C255 C252 1.511 . S
C255 H269 0.961 . S
C255 H270 0.961 . S
C255 H271 0.961 . S
C256 C257 1.370 . S
C256 C258 1.363 . S
C256 H272 0.931 . S
C257 C256 1.370 . S
C257 C261 1.408 . S
C258 C256 1.363 . S
C258 C259 1.370 . S
C258 C262 1.524 . S
C259 C251 1.503 . S
C259 C258 1.370 . S
C259 C260 1.403 . S
C260 C259 1.403 . S
C260 C261 1.404 . S
C260 C263 1.539 . S
C261 C257 1.408 . S
C261 C260 1.404 . S
C261 H273 0.930 . S
C262 C258 1.524 . S
C262 H274 0.956 . S
C262 H275 0.961 . S
C262 H276 0.961 . S
C263 C260 1.539 . S
C263 H277 0.958 . S
C263 H278 0.961 . S
C263 H279 0.960 . S
H264 C248 0.931 . S
H265 C253 0.929 . S
H266 C254 0.960 . S
H267 C254 0.962 . S
H268 C254 0.960 . S
H269 C255 0.961 . S
H270 C255 0.961 . S
H271 C255 0.961 . S
H272 C256 0.931 . S
H273 C261 0.930 . S
H274 C262 0.956 . S
H275 C262 0.961 . S
H276 C262 0.961 . S
H277 C263 0.958 . S
H278 C263 0.961 . S
H279 C263 0.960 . S
C280 C281 1.391 . S
C280 C282 1.394 . S
C280 H296 0.931 . S
C281 C280 1.391 . S
C281 C285 1.376 . S
C282 C280 1.394 . S
C282 C283 1.369 . S
C282 C286 1.531 . S
C283 C282 1.369 . S
C283 C284 1.410 . S
C283 C291 1.503 . S
C284 C283 1.410 . S
C284 C285 1.392 . S
C284 C287 1.511 1_455 S
C285 C281 1.376 . S
C285 C284 1.392 . S
C285 H297 0.929 . S
C286 C282 1.531 . S
C286 H298 0.960 . S
C286 H299 0.962 . S
C286 H300 0.960 . S
C287 C284 1.511 1_655 S
C287 H301 0.961 . S
C287 H302 0.961 . S
C287 H303 0.961 . S
C288 C289 1.370 . S
C288 C290 1.363 . S
C288 H304 0.931 . S
C289 C288 1.370 . S
C289 C293 1.408 . S
C290 C288 1.363 . S
C290 C291 1.370 . S
C290 C294 1.524 . S
C291 C283 1.503 . S
C291 C290 1.370 . S
C291 C292 1.403 . S
C292 C291 1.403 . S
C292 C293 1.404 . S
C292 C295 1.539 . S
C293 C289 1.408 . S
C293 C292 1.404 . S
C293 H305 0.930 . S
C294 C290 1.524 . S
C294 H306 0.956 . S
C294 H307 0.961 . S
C294 H308 0.961 . S
C295 C292 1.539 . S
C295 H309 0.958 . S
C295 H310 0.961 . S
C295 H311 0.960 . S
H296 C280 0.931 . S
H297 C285 0.929 . S
H298 C286 0.960 . S
H299 C286 0.962 . S
H300 C286 0.960 . S
H301 C287 0.961 . S
H302 C287 0.961 . S
H303 C287 0.961 . S
H304 C288 0.931 . S
H305 C293 0.930 . S
H306 C294 0.956 . S
H307 C294 0.961 . S
H308 C294 0.961 . S
H309 C295 0.958 . S
H310 C295 0.961 . S
H311 C295 0.960 . S
C312 C313 1.391 . S
C312 C314 1.394 . S
C312 H328 0.931 . S
C313 C312 1.391 . S
C313 C317 1.376 . S
C314 C312 1.394 . S
C314 C315 1.369 . S
C314 C318 1.531 . S
C315 C314 1.369 . S
C315 C316 1.410 . S
C315 C323 1.503 . S
C316 C315 1.410 . S
C316 C317 1.392 . S
C316 C319 1.511 1_565 S
C317 C313 1.376 . S
C317 C316 1.392 . S
C317 H329 0.929 1_565 S
C318 C314 1.531 . S
C318 H330 0.960 . S
C318 H331 0.962 . S
C318 H332 0.960 . S
C319 C316 1.511 1_545 S
C319 H333 0.961 . S
C319 H334 0.961 . S
C319 H335 0.961 . S
C320 C321 1.370 . S
C320 C322 1.363 . S
C320 H336 0.931 . S
C321 C320 1.370 . S
C321 C325 1.408 . S
C322 C320 1.363 . S
C322 C323 1.370 . S
C322 C326 1.524 1_556 S
C323 C315 1.503 . S
C323 C322 1.370 . S
C323 C324 1.403 . S
C324 C323 1.403 . S
C324 C325 1.404 . S
C324 C327 1.539 . S
C325 C321 1.408 . S
C325 C324 1.404 . S
C325 H337 0.930 . S
C326 C322 1.524 1_554 S
C326 H338 0.956 . S
C326 H339 0.961 . S
C326 H340 0.961 . S
C327 C324 1.539 . S
C327 H341 0.958 . S
C327 H342 0.961 . S
C327 H343 0.960 . S
H328 C312 0.931 . S
H329 C317 0.929 1_545 S
H330 C318 0.960 . S
H331 C318 0.962 . S
H332 C318 0.960 . S
H333 C319 0.961 . S
H334 C319 0.961 . S
H335 C319 0.961 . S
H336 C320 0.931 . S
H337 C325 0.930 . S
H338 C326 0.956 . S
H339 C326 0.961 . S
H340 C326 0.961 . S
H341 C327 0.958 . S
H342 C327 0.961 . S
H343 C327 0.960 . S
C344 C345 1.391 . S
C344 C346 1.394 . S
C344 H360 0.931 . S
C345 C344 1.391 . S
C345 C349 1.376 1_554 S
C346 C344 1.394 . S
C346 C347 1.369 1_554 S
C346 C350 1.531 . S
C347 C346 1.369 1_556 S
C347 C348 1.410 . S
C347 C355 1.503 . S
C348 C347 1.410 . S
C348 C349 1.392 . S
C348 C351 1.511 . S
C349 C345 1.376 1_556 S
C349 C348 1.392 . S
C349 H361 0.929 . S
C350 C346 1.531 . S
C350 H362 0.960 . S
C350 H363 0.962 . S
C350 H364 0.960 . S
C351 C348 1.511 . S
C351 H365 0.961 . S
C351 H366 0.961 . S
C351 H367 0.961 . S
C352 C353 1.370 . S
C352 C354 1.363 . S
C352 H368 0.931 . S
C353 C352 1.370 . S
C353 C357 1.408 . S
C354 C352 1.363 . S
C354 C355 1.370 . S
C354 C358 1.524 . S
C355 C347 1.503 . S
C355 C354 1.370 . S
C355 C356 1.403 . S
C356 C355 1.403 . S
C356 C357 1.404 . S
C356 C359 1.539 . S
C357 C353 1.408 . S
C357 C356 1.404 . S
C357 H369 0.930 . S
C358 C354 1.524 . S
C358 H370 0.956 1_556 S
C358 H371 0.961 . S
C358 H372 0.961 . S
C359 C356 1.539 . S
C359 H373 0.958 . S
C359 H374 0.961 . S
C359 H375 0.960 . S
H360 C344 0.931 . S
H361 C349 0.929 . S
H362 C350 0.960 . S
H363 C350 0.962 . S
H364 C350 0.960 . S
H365 C351 0.961 . S
H366 C351 0.961 . S
H367 C351 0.961 . S
H368 C352 0.931 . S
H369 C357 0.930 . S
H370 C358 0.956 1_554 S
H371 C358 0.961 . S
H372 C358 0.961 . S
H373 C359 0.958 . S
H374 C359 0.961 . S
H375 C359 0.960 . S
C376 C377 1.391 . S
C376 C378 1.394 . S
C376 H392 0.931 . S
C377 C376 1.391 . S
C377 C381 1.376 1_556 S
C378 C376 1.394 . S
C378 C379 1.369 . S
C378 C382 1.531 . S
C379 C378 1.369 . S
C379 C380 1.410 . S
C379 C387 1.503 . S
C380 C379 1.410 . S
C380 C381 1.392 1_556 S
C380 C383 1.511 . S
C381 C377 1.376 1_554 S
C381 C380 1.392 1_554 S
C381 H393 0.929 . S
C382 C378 1.531 . S
C382 H394 0.960 . S
C382 H395 0.962 . S
C382 H396 0.960 . S
C383 C380 1.511 . S
C383 H397 0.961 1_556 S
C383 H398 0.961 . S
C383 H399 0.961 . S
C384 C385 1.370 . S
C384 C386 1.363 . S
C384 H400 0.931 . S
C385 C384 1.370 . S
C385 C389 1.408 . S
C386 C384 1.363 . S
C386 C387 1.370 . S
C386 C390 1.524 . S
C387 C379 1.503 . S
C387 C386 1.370 . S
C387 C388 1.403 . S
C388 C387 1.403 . S
C388 C389 1.404 . S
C388 C391 1.539 . S
C389 C385 1.408 . S
C389 C388 1.404 . S
C389 H401 0.930 . S
C390 C386 1.524 . S
C390 H402 0.956 . S
C390 H403 0.961 1_556 S
C390 H404 0.961 1_556 S
C391 C388 1.539 . S
C391 H405 0.958 . S
C391 H406 0.961 . S
C391 H407 0.960 . S
H392 C376 0.931 . S
H393 C381 0.929 . S
H394 C382 0.960 . S
H395 C382 0.962 . S
H396 C382 0.960 . S
H397 C383 0.961 1_554 S
H398 C383 0.961 . S
H399 C383 0.961 . S
H400 C384 0.931 . S
H401 C389 0.930 . S
H402 C390 0.956 . S
H403 C390 0.961 1_554 S
H404 C390 0.961 1_554 S
H405 C391 0.958 . S
H406 C391 0.961 . S
H407 C391 0.960 . S
C408 C409 1.391 . S
C408 C410 1.394 . S
C408 H424 0.931 . S
C409 C408 1.391 . S
C409 C413 1.376 . S
C410 C408 1.394 . S
C410 C411 1.369 . S
C410 C414 1.531 . S
C411 C410 1.369 . S
C411 C412 1.410 . S
C411 C419 1.503 . S
C412 C411 1.410 . S
C412 C413 1.392 . S
C412 C415 1.511 1_655 S
C413 C409 1.376 . S
C413 C412 1.392 . S
C413 H425 0.929 1_556 S
C414 C410 1.531 . S
C414 H426 0.960 . S
C414 H427 0.962 . S
C414 H428 0.960 . S
C415 C412 1.511 1_455 S
C415 H429 0.961 1_556 S
C415 H430 0.961 . S
C415 H431 0.961 . S
C416 C417 1.370 . S
C416 C418 1.363 . S
C416 H432 0.931 . S
C417 C416 1.370 . S
C417 C421 1.408 1_655 S
C418 C416 1.363 . S
C418 C419 1.370 . S
C418 C422 1.524 . S
C419 C411 1.503 . S
C419 C418 1.370 . S
C419 C420 1.403 . S
C420 C419 1.403 . S
C420 C421 1.404 1_655 S
C420 C423 1.539 1_655 S
C421 C417 1.408 1_455 S
C421 C420 1.404 1_455 S
C421 H433 0.930 . S
C422 C418 1.524 . S
C422 H434 0.956 . S
C422 H435 0.964 . S
C422 H436 0.961 . S
C423 C420 1.539 1_455 S
C423 H437 0.979 . S
C423 H438 0.961 . S
C423 H439 0.960 . S
H424 C408 0.931 . S
H425 C413 0.929 1_554 S
H426 C414 0.960 . S
H427 C414 0.962 . S
H428 C414 0.960 . S
H429 C415 0.961 1_554 S
H430 C415 0.961 . S
H431 C415 0.961 . S
H432 C416 0.931 . S
H433 C421 0.930 . S
H434 C422 0.956 . S
H435 C422 0.964 . S
H436 C422 0.961 . S
H437 C423 0.979 . S
H438 C423 0.961 . S
H439 C423 0.960 . S
C440 C441 1.391 . S
C440 C442 1.394 . S
C440 H456 0.931 . S
C441 C440 1.391 . S
C441 C445 1.376 . S
C442 C440 1.394 . S
C442 C443 1.369 . S
C442 C446 1.531 . S
C443 C442 1.369 . S
C443 C444 1.410 . S
C443 C451 1.503 . S
C444 C443 1.410 . S
C444 C445 1.392 . S
C444 C447 1.511 . S
C445 C441 1.376 . S
C445 C444 1.392 . S
C445 H457 0.929 . S
C446 C442 1.531 . S
C446 H458 0.960 . S
C446 H459 0.962 . S
C446 H460 0.960 . S
C447 C444 1.511 . S
C447 H461 0.961 . S
C447 H462 0.961 . S
C447 H463 0.961 . S
C448 C449 1.370 . S
C448 C450 1.363 . S
C448 H464 0.931 1_455 S
C449 C448 1.370 . S
C449 C453 1.408 . S
C450 C448 1.363 . S
C450 C451 1.370 . S
C450 C454 1.524 1_455 S
C451 C443 1.503 . S
C451 C450 1.370 . S
C451 C452 1.403 . S
C452 C451 1.403 . S
C452 C453 1.404 . S
C452 C455 1.539 . S
C453 C449 1.408 . S
C453 C452 1.404 . S
C453 H465 0.930 . S
C454 C450 1.524 1_655 S
C454 H466 0.956 . S
C454 H467 0.961 . S
C454 H468 0.961 . S
C455 C452 1.539 . S
C455 H469 0.958 . S
C455 H470 0.961 . S
C455 H471 0.960 . S
H456 C440 0.931 . S
H457 C445 0.929 . S
H458 C446 0.960 . S
H459 C446 0.962 . S
H460 C446 0.960 . S
H461 C447 0.961 . S
H462 C447 0.961 . S
H463 C447 0.961 . S
H464 C448 0.931 1_655 S
H465 C453 0.930 . S
H466 C454 0.956 . S
H467 C454 0.961 . S
H468 C454 0.961 . S
H469 C455 0.958 . S
H470 C455 0.961 . S
H471 C455 0.960 . S
C472 C473 1.391 . S
C472 C474 1.394 . S
C472 H488 0.931 . S
C473 C472 1.391 . S
C473 C477 1.376 . S
C474 C472 1.394 . S
C474 C475 1.369 . S
C474 C478 1.531 . S
C475 C474 1.369 . S
C475 C476 1.410 . S
C475 C483 1.503 . S
C476 C475 1.410 . S
C476 C477 1.392 . S
C476 C479 1.511 . S
C477 C473 1.376 . S
C477 C476 1.392 . S
C477 H489 0.929 . S
C478 C474 1.531 . S
C478 H490 0.960 . S
C478 H491 0.962 . S
C478 H492 0.960 . S
C479 C476 1.511 . S
C479 H493 0.961 1_545 S
C479 H494 0.961 1_545 S
C479 H495 0.961 . S
C480 C481 1.370 . S
C480 C482 1.363 . S
C480 H496 0.931 1_545 S
C481 C480 1.370 . S
C481 C485 1.408 . S
C482 C480 1.363 . S
C482 C483 1.370 . S
C482 C486 1.524 . S
C483 C475 1.503 . S
C483 C482 1.370 . S
C483 C484 1.403 . S
C484 C483 1.403 . S
C484 C485 1.404 . S
C484 C487 1.539 . S
C485 C481 1.408 . S
C485 C484 1.404 . S
C485 H497 0.930 . S
C486 C482 1.524 . S
C486 H498 0.956 . S
C486 H499 0.961 1_545 S
C486 H500 0.961 1_545 S
C487 C484 1.539 . S
C487 H501 0.958 . S
C487 H502 0.961 . S
C487 H503 0.960 . S
H488 C472 0.931 . S
H489 C477 0.929 . S
H490 C478 0.960 . S
H491 C478 0.962 . S
H492 C478 0.960 . S
H493 C479 0.961 1_565 S
H494 C479 0.961 1_565 S
H495 C479 0.961 . S
H496 C480 0.931 1_565 S
H497 C485 0.930 . S
H498 C486 0.956 . S
H499 C486 0.961 1_565 S
H500 C486 0.961 1_565 S
H501 C487 0.958 . S
H502 C487 0.961 . S
H503 C487 0.960 . S
C504 C505 1.391 . S
C504 C506 1.394 . S
C504 H520 0.931 . S
C505 C504 1.391 . S
C505 C509 1.376 . S
C506 C504 1.394 . S
C506 C507 1.369 . S
C506 C510 1.531 . S
C507 C506 1.369 . S
C507 C508 1.410 . S
C507 C515 1.503 . S
C508 C507 1.410 . S
C508 C509 1.392 . S
C508 C511 1.511 . S
C509 C505 1.376 . S
C509 C508 1.392 . S
C509 H521 0.929 . S
C510 C506 1.531 . S
C510 H522 0.960 . S
C510 H523 0.962 . S
C510 H524 0.960 . S
C511 C508 1.511 . S
C511 H525 0.961 . S
C511 H526 0.961 . S
C511 H527 0.961 . S
C512 C513 1.370 . S
C512 C514 1.363 . S
C512 H528 0.931 . S
C513 C512 1.370 . S
C513 C517 1.408 . S
C514 C512 1.363 . S
C514 C515 1.370 . S
C514 C518 1.524 . S
C515 C507 1.503 . S
C515 C514 1.370 . S
C515 C516 1.403 . S
C516 C515 1.403 . S
C516 C517 1.404 . S
C516 C519 1.539 . S
C517 C513 1.408 . S
C517 C516 1.404 . S
C517 H529 0.930 . S
C518 C514 1.524 . S
C518 H530 0.956 . S
C518 H531 0.961 . S
C518 H532 0.961 . S
C519 C516 1.539 . S
C519 H533 0.958 . S
C519 H534 0.961 . S
C519 H535 0.960 . S
H520 C504 0.931 . S
H521 C509 0.929 . S
H522 C510 0.960 . S
H523 C510 0.962 . S
H524 C510 0.960 . S
H525 C511 0.961 . S
H526 C511 0.961 . S
H527 C511 0.961 . S
H528 C512 0.931 . S
H529 C517 0.930 . S
H530 C518 0.956 . S
H531 C518 0.961 . S
H532 C518 0.961 . S
H533 C519 0.958 . S
H534 C519 0.961 . S
H535 C519 0.960 . S
C536 C537 1.391 . S
C536 C538 1.394 . S
C536 H552 0.931 . S
C537 C536 1.391 . S
C537 C541 1.376 . S
C538 C536 1.394 . S
C538 C539 1.369 . S
C538 C542 1.531 . S
C539 C538 1.369 . S
C539 C540 1.410 . S
C539 C547 1.503 . S
C540 C539 1.410 . S
C540 C541 1.392 . S
C540 C543 1.511 . S
C541 C537 1.376 . S
C541 C540 1.392 . S
C541 H553 0.929 . S
C542 C538 1.531 . S
C542 H554 0.960 . S
C542 H555 0.962 . S
C542 H556 0.960 . S
C543 C540 1.511 . S
C543 H557 0.961 . S
C543 H558 0.961 . S
C543 H559 0.961 . S
C544 C545 1.370 . S
C544 C546 1.363 . S
C544 H560 0.931 . S
C545 C544 1.370 . S
C545 C549 1.408 . S
C546 C544 1.363 . S
C546 C547 1.370 . S
C546 C550 1.524 . S
C547 C539 1.503 . S
C547 C546 1.370 . S
C547 C548 1.403 . S
C548 C547 1.403 . S
C548 C549 1.404 . S
C548 C551 1.539 . S
C549 C545 1.408 . S
C549 C548 1.404 . S
C549 H561 0.930 . S
C550 C546 1.524 . S
C550 H562 0.956 . S
C550 H563 0.961 . S
C550 H564 0.961 . S
C551 C548 1.539 . S
C551 H565 0.958 . S
C551 H566 0.961 . S
C551 H567 0.960 . S
H552 C536 0.931 . S
H553 C541 0.929 . S
H554 C542 0.960 . S
H555 C542 0.962 . S
H556 C542 0.960 . S
H557 C543 0.961 . S
H558 C543 0.961 . S
H559 C543 0.961 . S
H560 C544 0.931 . S
H561 C549 0.930 . S
H562 C550 0.956 . S
H563 C550 0.961 . S
H564 C550 0.961 . S
H565 C551 0.958 . S
H566 C551 0.961 . S
H567 C551 0.960 . S
C568 C569 1.391 . S
C568 C570 1.394 . S
C568 H584 0.931 . S
C569 C568 1.391 . S
C569 C573 1.376 . S
C570 C568 1.394 . S
C570 C571 1.369 . S
C570 C574 1.531 1_655 S
C571 C570 1.369 . S
C571 C572 1.410 . S
C571 C579 1.503 . S
C572 C571 1.410 . S
C572 C573 1.392 . S
C572 C575 1.511 . S
C573 C569 1.376 . S
C573 C572 1.392 . S
C573 H585 0.929 . S
C574 C570 1.531 1_455 S
C574 H586 0.960 . S
C574 H587 0.962 . S
C574 H588 0.960 . S
C575 C572 1.511 . S
C575 H589 0.961 . S
C575 H590 0.961 . S
C575 H591 0.961 . S
C576 C577 1.370 1_455 S
C576 C578 1.363 1_455 S
C576 H592 0.930 . S
C577 C576 1.370 1_655 S
C577 C581 1.408 . S
C578 C576 1.363 1_655 S
C578 C579 1.370 . S
C578 C582 1.524 . S
C579 C571 1.503 . S
C579 C578 1.370 . S
C579 C580 1.403 . S
C580 C579 1.403 . S
C580 C581 1.404 . S
C580 C583 1.539 . S
C581 C577 1.408 . S
C581 C580 1.404 . S
C581 H593 0.930 . S
C582 C578 1.524 . S
C582 H594 0.956 1_655 S
C582 H595 0.961 . S
C582 H596 0.961 1_655 S
C583 C580 1.539 . S
C583 H597 0.958 . S
C583 H598 0.961 . S
C583 H599 0.960 . S
H584 C568 0.931 . S
H585 C573 0.929 . S
H586 C574 0.960 . S
H587 C574 0.962 . S
H588 C574 0.960 . S
H589 C575 0.961 . S
H590 C575 0.961 . S
H591 C575 0.961 . S
H592 C576 0.930 . S
H593 C581 0.930 . S
H594 C582 0.956 1_455 S
H595 C582 0.961 . S
H596 C582 0.961 1_455 S
H597 C583 0.958 . S
H598 C583 0.961 . S
H599 C583 0.960 . S
C600 C601 1.391 . S
C600 C602 1.394 . S
C600 H616 0.931 . S
C601 C600 1.391 . S
C601 C605 1.376 1_556 S
C602 C600 1.394 . S
C602 C603 1.369 . S
C602 C606 1.531 . S
C603 C602 1.369 . S
C603 C604 1.415 . S
C603 C611 1.503 . S
C604 C603 1.415 . S
C604 C605 1.390 1_556 S
C604 C607 1.508 1_566 S
C605 C601 1.376 1_554 S
C605 C604 1.390 1_554 S
C605 H617 0.929 . S
C606 C602 1.531 . S
C606 H618 0.960 . S
C606 H619 0.962 . S
C606 H620 0.960 . S
C607 C604 1.508 1_544 S
C607 H621 0.961 . S
C607 H622 0.961 . S
C607 H623 0.961 1_545 S
C608 C609 1.370 1_545 S
C608 C610 1.380 . S
C608 H624 0.931 . S
C609 C608 1.370 1_565 S
C609 C613 1.408 . S
C610 C608 1.380 . S
C610 C611 1.336 1_545 S
C610 C614 1.544 . S
C611 C603 1.503 . S
C611 C610 1.336 1_565 S
C611 C612 1.403 . S
C612 C611 1.403 . S
C612 C613 1.404 . S
C612 C615 1.539 . S
C613 C609 1.408 . S
C613 C612 1.404 . S
C613 H625 0.930 . S
C614 C610 1.544 . S
C614 H626 0.956 . S
C614 H627 0.961 . S
C614 H628 0.961 . S
C615 C612 1.539 . S
C615 H629 0.958 . S
C615 H630 0.961 1_556 S
C615 H631 0.960 1_556 S
H616 C600 0.931 . S
H617 C605 0.929 . S
H618 C606 0.960 . S
H619 C606 0.962 . S
H620 C606 0.960 . S
H621 C607 0.961 . S
H622 C607 0.961 . S
H623 C607 0.961 1_565 S
H624 C608 0.931 . S
H625 C613 0.930 . S
H626 C614 0.956 . S
H627 C614 0.961 . S
H628 C614 0.961 . S
H629 C615 0.958 . S
H630 C615 0.961 1_554 S
H631 C615 0.960 1_554 S
C632 C633 1.391 . S
C632 C634 1.394 . S
C632 H648 0.931 1_556 S
C633 C632 1.391 . S
C633 C637 1.376 . S
C634 C632 1.394 . S
C634 C635 1.369 . S
C634 C638 1.531 . S
C635 C634 1.369 . S
C635 C636 1.410 . S
C635 C643 1.503 . S
C636 C635 1.410 . S
C636 C637 1.392 . S
C636 C639 1.511 . S
C637 C633 1.376 . S
C637 C636 1.392 . S
C637 H649 0.929 . S
C638 C634 1.531 . S
C638 H650 0.960 . S
C638 H651 0.962 . S
C638 H652 0.960 1_556 S
C639 C636 1.511 . S
C639 H653 0.961 . S
C639 H654 0.961 . S
C639 H655 0.961 . S
C640 C641 1.370 . S
C640 C642 1.363 . S
C640 H656 0.931 . S
C641 C640 1.370 . S
C641 C645 1.408 . S
C642 C640 1.363 . S
C642 C643 1.370 . S
C642 C646 1.524 . S
C643 C635 1.503 . S
C643 C642 1.370 . S
C643 C644 1.403 . S
C644 C643 1.403 . S
C644 C645 1.404 . S
C644 C647 1.539 1_556 S
C645 C641 1.408 . S
C645 C644 1.404 . S
C645 H657 0.930 . S
C646 C642 1.524 . S
C646 H658 0.956 . S
C646 H659 0.961 . S
C646 H660 0.961 . S
C647 C644 1.539 1_554 S
C647 H661 0.958 . S
C647 H662 0.961 . S
C647 H663 0.960 . S
H648 C632 0.931 1_554 S
H649 C637 0.929 . S
H650 C638 0.960 . S
H651 C638 0.962 . S
H652 C638 0.960 1_554 S
H653 C639 0.961 . S
H654 C639 0.961 . S
H655 C639 0.961 . S
H656 C640 0.931 . S
H657 C645 0.930 . S
H658 C646 0.956 . S
H659 C646 0.961 . S
H660 C646 0.961 . S
H661 C647 0.958 . S
H662 C647 0.961 . S
H663 C647 0.960 . S
C664 C665 1.391 1_554 S
C664 C666 1.394 1_554 S
C664 H680 0.931 . S
C665 C664 1.391 1_556 S
C665 C669 1.376 . S
C666 C664 1.394 1_556 S
C666 C667 1.369 . S
C666 C670 1.531 1_556 S
C667 C666 1.369 . S
C667 C668 1.410 . S
C667 C675 1.503 . S
C668 C667 1.410 . S
C668 C669 1.392 . S
C668 C671 1.511 . S
C669 C665 1.376 . S
C669 C668 1.392 . S
C669 H681 0.929 . S
C670 C666 1.531 1_554 S
C670 H682 0.960 . S
C670 H683 0.962 . S
C670 H684 0.960 . S
C671 C668 1.511 . S
C671 H685 0.961 . S
C671 H686 0.961 . S
C671 H687 0.961 . S
C672 C673 1.370 . S
C672 C674 1.363 . S
C672 H688 0.931 . S
C673 C672 1.370 . S
C673 C677 1.408 . S
C674 C672 1.363 . S
C674 C675 1.370 . S
C674 C678 1.524 . S
C675 C667 1.503 . S
C675 C674 1.370 . S
C675 C676 1.403 . S
C676 C675 1.403 . S
C676 C677 1.404 . S
C676 C679 1.539 . S
C677 C673 1.408 . S
C677 C676 1.404 . S
C677 H689 0.930 . S
C678 C674 1.524 . S
C678 H690 0.956 . S
C678 H691 0.961 . S
C678 H692 0.961 . S
C679 C676 1.539 . S
C679 H693 0.958 . S
C679 H694 0.961 . S
C679 H695 0.960 . S
H680 C664 0.931 . S
H681 C669 0.929 . S
H682 C670 0.960 . S
H683 C670 0.962 . S
H684 C670 0.960 . S
H685 C671 0.961 . S
H686 C671 0.961 . S
H687 C671 0.961 . S
H688 C672 0.931 . S
H689 C677 0.930 . S
H690 C678 0.956 . S
H691 C678 0.961 . S
H692 C678 0.961 . S
H693 C679 0.958 . S
H694 C679 0.961 . S
H695 C679 0.960 . S
C696 C697 1.391 . S
C696 C698 1.394 . S
C696 H712 0.931 . S
C697 C696 1.391 . S
C697 C701 1.376 . S
C698 C696 1.394 . S
C698 C699 1.369 . S
C698 C702 1.531 . S
C699 C698 1.369 . S
C699 C700 1.410 . S
C699 C707 1.503 . S
C700 C699 1.410 . S
C700 C701 1.392 . S
C700 C703 1.495 1_455 S
C701 C697 1.376 . S
C701 C700 1.392 . S
C701 H713 0.929 . S
C702 C698 1.531 . S
C702 H714 0.960 . S
C702 H715 0.962 . S
C702 H716 0.960 . S
C703 C700 1.495 1_655 S
C703 H717 0.967 . S
C703 H718 0.959 1_655 S
C703 H719 0.973 . S
C704 C705 1.370 . S
C704 C706 1.363 . S
C704 H720 0.931 . S
C705 C704 1.370 . S
C705 C709 1.408 1_556 S
C706 C704 1.363 . S
C706 C707 1.370 1_556 S
C706 C710 1.524 . S
C707 C699 1.503 . S
C707 C706 1.370 1_554 S
C707 C708 1.403 . S
C708 C707 1.403 . S
C708 C709 1.404 . S
C708 C711 1.539 . S
C709 C705 1.408 1_554 S
C709 C708 1.404 . S
C709 H721 0.930 . S
C710 C706 1.524 . S
C710 H722 0.956 . S
C710 H723 0.961 . S
C710 H724 0.961 . S
C711 C708 1.539 . S
C711 H725 0.958 . S
C711 H726 0.961 1_455 S
C711 H727 0.960 . S
H712 C696 0.931 . S
H713 C701 0.929 . S
H714 C702 0.960 . S
H715 C702 0.962 . S
H716 C702 0.960 . S
H717 C703 0.967 . S
H718 C703 0.959 1_455 S
H719 C703 0.973 . S
H720 C704 0.931 . S
H721 C709 0.930 . S
H722 C710 0.956 . S
H723 C710 0.961 . S
H724 C710 0.961 . S
H725 C711 0.958 . S
H726 C711 0.961 1_655 S
H727 C711 0.960 . S
C728 C729 1.391 . S
C728 C730 1.394 . S
C728 H744 0.931 . S
C729 C728 1.391 . S
C729 C733 1.376 . S
C730 C728 1.394 . S
C730 C731 1.369 . S
C730 C734 1.531 1_545 S
C731 C730 1.369 . S
C731 C732 1.410 . S
C731 C739 1.503 1_554 S
C732 C731 1.410 . S
C732 C733 1.392 . S
C732 C735 1.511 1_554 S
C733 C729 1.376 . S
C733 C732 1.392 . S
C733 H745 0.929 . S
C734 C730 1.531 1_565 S
C734 H746 0.960 . S
C734 H747 0.962 . S
C734 H748 0.960 . S
C735 C732 1.511 1_556 S
C735 H749 0.961 1_556 S
C735 H750 0.961 . S
C735 H751 0.961 . S
C736 C737 1.370 . S
C736 C738 1.363 1_556 S
C736 H752 0.931 . S
C737 C736 1.370 . S
C737 C741 1.408 . S
C738 C736 1.363 1_554 S
C738 C739 1.370 1_554 S
C738 C742 1.524 . S
C739 C731 1.503 1_556 S
C739 C738 1.370 1_556 S
C739 C740 1.403 . S
C740 C739 1.403 . S
C740 C741 1.404 . S
C740 C743 1.539 . S
C741 C737 1.408 . S
C741 C740 1.404 . S
C741 H753 0.930 . S
C742 C738 1.524 . S
C742 H754 0.956 . S
C742 H755 0.961 . S
C742 H756 0.961 . S
C743 C740 1.539 . S
C743 H757 0.958 1_545 S
C743 H758 0.961 . S
C743 H759 0.960 . S
H744 C728 0.931 . S
H745 C733 0.929 . S
H746 C734 0.960 . S
H747 C734 0.962 . S
H748 C734 0.960 . S
H749 C735 0.961 1_554 S
H750 C735 0.961 . S
H751 C735 0.961 . S
H752 C736 0.931 . S
H753 C741 0.930 . S
H754 C742 0.956 . S
H755 C742 0.961 . S
H756 C742 0.961 . S
H757 C743 0.958 1_565 S
H758 C743 0.961 . S
H759 C743 0.960 . S
C760 C761 1.391 . S
C760 C762 1.394 . S
C760 H776 0.931 . S
C761 C760 1.391 . S
C761 C765 1.376 . S
C762 C760 1.394 . S
C762 C763 1.369 . S
C762 C766 1.531 . S
C763 C762 1.369 . S
C763 C764 1.410 . S
C763 C771 1.503 1_554 S
C764 C763 1.410 . S
C764 C765 1.392 . S
C764 C767 1.511 . S
C765 C761 1.376 . S
C765 C764 1.392 . S
C765 H777 0.929 . S
C766 C762 1.531 . S
C766 H778 0.960 . S
C766 H779 0.962 . S
C766 H780 0.960 . S
C767 C764 1.511 . S
C767 H781 0.961 . S
C767 H782 0.961 1_554 S
C767 H783 0.961 1_554 S
C768 C769 1.370 . S
C768 C770 1.363 1_556 S
C768 H784 0.931 1_556 S
C769 C768 1.370 . S
C769 C773 1.408 . S
C770 C768 1.363 1_554 S
C770 C771 1.370 1_554 S
C770 C774 1.524 . S
C771 C763 1.503 1_556 S
C771 C770 1.370 1_556 S
C771 C772 1.403 . S
C772 C771 1.403 . S
C772 C773 1.404 . S
C772 C775 1.539 . S
C773 C769 1.408 . S
C773 C772 1.404 . S
C773 H785 0.930 . S
C774 C770 1.524 . S
C774 H786 0.956 . S
C774 H787 0.961 . S
C774 H788 0.961 . S
C775 C772 1.539 . S
C775 H789 0.958 . S
C775 H790 0.961 . S
C775 H791 0.960 . S
H776 C760 0.931 . S
H777 C765 0.929 . S
H778 C766 0.960 . S
H779 C766 0.962 . S
H780 C766 0.960 . S
H781 C767 0.961 . S
H782 C767 0.961 1_556 S
H783 C767 0.961 1_556 S
H784 C768 0.931 1_554 S
H785 C773 0.930 . S
H786 C774 0.956 . S
H787 C774 0.961 . S
H788 C774 0.961 . S
H789 C775 0.958 . S
H790 C775 0.961 . S
H791 C775 0.960 . S
C792 C793 1.391 . S
C792 C794 1.394 . S
C792 H808 0.931 . S
C793 C792 1.391 . S
C793 C797 1.376 . S
C794 C792 1.394 . S
C794 C795 1.369 . S
C794 C798 1.531 . S
C795 C794 1.369 . S
C795 C796 1.410 . S
C795 C803 1.503 . S
C796 C795 1.410 . S
C796 C797 1.392 . S
C796 C799 1.511 1_554 S
C797 C793 1.376 . S
C797 C796 1.392 . S
C797 H809 0.929 . S
C798 C794 1.531 . S
C798 H810 0.960 . S
C798 H811 0.962 . S
C798 H812 0.960 . S
C799 C796 1.511 1_556 S
C799 H813 0.961 . S
C799 H814 0.961 . S
C799 H815 0.961 . S
C800 C801 1.370 . S
C800 C802 1.363 1_556 S
C800 H816 0.931 . S
C801 C800 1.370 . S
C801 C805 1.408 . S
C802 C800 1.363 1_554 S
C802 C803 1.370 . S
C802 C806 1.524 . S
C803 C795 1.503 . S
C803 C802 1.370 . S
C803 C804 1.403 1_554 S
C804 C803 1.403 1_556 S
C804 C805 1.404 . S
C804 C807 1.539 . S
C805 C801 1.408 . S
C805 C804 1.404 . S
C805 H817 0.930 . S
C806 C802 1.524 . S
C806 H818 0.956 . S
C806 H819 0.961 . S
C806 H820 0.961 . S
C807 C804 1.539 . S
C807 H821 0.958 1_556 S
C807 H822 0.961 . S
C807 H823 0.960 . S
H808 C792 0.931 . S
H809 C797 0.929 . S
H810 C798 0.960 . S
H811 C798 0.962 . S
H812 C798 0.960 . S
H813 C799 0.961 . S
H814 C799 0.961 . S
H815 C799 0.961 . S
H816 C800 0.931 . S
H817 C805 0.930 . S
H818 C806 0.956 . S
H819 C806 0.961 . S
H820 C806 0.961 . S
H821 C807 0.958 1_554 S
H822 C807 0.961 . S
H823 C807 0.960 . S
C824 C825 1.391 . S
C824 C826 1.394 . S
C824 H840 0.931 . S
C825 C824 1.391 . S
C825 C829 1.376 . S
C826 C824 1.394 . S
C826 C827 1.369 . S
C826 C830 1.531 1_655 S
C827 C826 1.369 . S
C827 C828 1.410 . S
C827 C835 1.503 . S
C828 C827 1.410 . S
C828 C829 1.392 . S
C828 C831 1.511 . S
C829 C825 1.376 . S
C829 C828 1.392 . S
C829 H841 0.929 . S
C830 C826 1.531 1_455 S
C830 H842 0.960 . S
C830 H843 0.962 . S
C830 H844 0.960 . S
C831 C828 1.511 . S
C831 H845 0.961 . S
C831 H846 0.961 . S
C831 H847 0.961 . S
C832 C833 1.370 . S
C832 C834 1.363 . S
C832 H848 0.931 . S
C833 C832 1.370 . S
C833 C837 1.408 . S
C834 C832 1.363 . S
C834 C835 1.370 . S
C834 C838 1.524 . S
C835 C827 1.503 . S
C835 C834 1.370 . S
C835 C836 1.403 . S
C836 C835 1.403 . S
C836 C837 1.404 . S
C836 C839 1.539 . S
C837 C833 1.408 . S
C837 C836 1.404 . S
C837 H849 0.930 . S
C838 C834 1.524 . S
C838 H850 0.956 . S
C838 H851 0.961 . S
C838 H852 0.961 . S
C839 C836 1.539 . S
C839 H853 0.958 . S
C839 H854 0.961 . S
C839 H855 0.960 . S
H840 C824 0.931 . S
H841 C829 0.929 . S
H842 C830 0.960 . S
H843 C830 0.962 . S
H844 C830 0.960 . S
H845 C831 0.961 . S
H846 C831 0.961 . S
H847 C831 0.961 . S
H848 C832 0.931 . S
H849 C837 0.930 . S
H850 C838 0.956 . S
H851 C838 0.961 . S
H852 C838 0.961 . S
H853 C839 0.958 . S
H854 C839 0.961 . S
H855 C839 0.960 . S
C856 C857 1.391 . S
C856 C858 1.394 . S
C856 H872 0.931 . S
C857 C856 1.391 . S
C857 C861 1.376 . S
C858 C856 1.394 . S
C858 C859 1.369 . S
C858 C862 1.531 . S
C859 C858 1.369 . S
C859 C860 1.410 . S
C859 C867 1.503 . S
C860 C859 1.410 . S
C860 C861 1.392 . S
C860 C863 1.511 . S
C861 C857 1.376 . S
C861 C860 1.392 . S
C861 H873 0.929 . S
C862 C858 1.531 . S
C862 H874 0.960 1_565 S
C862 H875 0.962 . S
C862 H876 0.960 1_565 S
C863 C860 1.511 . S
C863 H877 0.961 . S
C863 H878 0.961 . S
C863 H879 0.961 . S
C864 C865 1.370 . S
C864 C866 1.363 . S
C864 H880 0.931 . S
C865 C864 1.370 . S
C865 C869 1.408 1_565 S
C866 C864 1.363 . S
C866 C867 1.370 . S
C866 C870 1.524 . S
C867 C859 1.503 . S
C867 C866 1.370 . S
C867 C868 1.403 1_565 S
C868 C867 1.403 1_545 S
C868 C869 1.404 . S
C868 C871 1.539 . S
C869 C865 1.408 1_545 S
C869 C868 1.404 . S
C869 H881 0.930 . S
C870 C866 1.524 . S
C870 H882 0.956 . S
C870 H883 0.961 . S
C870 H884 0.961 . S
C871 C868 1.539 . S
C871 H885 0.958 . S
C871 H886 0.961 . S
C871 H887 0.960 . S
H872 C856 0.931 . S
H873 C861 0.929 . S
H874 C862 0.960 1_545 S
H875 C862 0.962 . S
H876 C862 0.960 1_545 S
H877 C863 0.961 . S
H878 C863 0.961 . S
H879 C863 0.961 . S
H880 C864 0.931 . S
H881 C869 0.930 . S
H882 C870 0.956 . S
H883 C870 0.961 . S
H884 C870 0.961 . S
H885 C871 0.958 . S
H886 C871 0.961 . S
H887 C871 0.960 . S
C888 C889 1.391 . S
C888 C890 1.394 . S
C888 H904 0.931 . S
C889 C888 1.391 . S
C889 C893 1.376 . S
C890 C888 1.394 . S
C890 C891 1.369 . S
C890 C894 1.531 . S
C891 C890 1.369 . S
C891 C892 1.410 . S
C891 C899 1.503 . S
C892 C891 1.410 . S
C892 C893 1.392 . S
C892 C895 1.511 . S
C893 C889 1.376 . S
C893 C892 1.392 . S
C893 H905 0.929 . S
C894 C890 1.531 . S
C894 H906 0.960 . S
C894 H907 0.962 . S
C894 H908 0.960 . S
C895 C892 1.511 . S
C895 H909 0.961 . S
C895 H910 0.961 . S
C895 H911 0.961 . S
C896 C897 1.370 . S
C896 C898 1.363 . S
C896 H912 0.931 . S
C897 C896 1.370 . S
C897 C901 1.408 . S
C898 C896 1.363 . S
C898 C899 1.370 . S
C898 C902 1.524 . S
C899 C891 1.503 . S
C899 C898 1.370 . S
C899 C900 1.403 . S
C900 C899 1.403 . S
C900 C901 1.404 . S
C900 C903 1.539 . S
C901 C897 1.408 . S
C901 C900 1.404 . S
C901 H913 0.930 . S
C902 C898 1.524 . S
C902 H914 0.956 . S
C902 H915 0.961 . S
C902 H916 0.961 . S
C903 C900 1.539 . S
C903 H917 0.958 . S
C903 H918 0.961 . S
C903 H919 0.960 . S
H904 C888 0.931 . S
H905 C893 0.929 . S
H906 C894 0.960 . S
H907 C894 0.962 . S
H908 C894 0.960 . S
H909 C895 0.961 . S
H910 C895 0.961 . S
H911 C895 0.961 . S
H912 C896 0.931 . S
H913 C901 0.930 . S
H914 C902 0.956 . S
H915 C902 0.961 . S
H916 C902 0.961 . S
H917 C903 0.958 . S
H918 C903 0.961 . S
H919 C903 0.960 . S
C920 C921 1.391 . S
C920 C922 1.394 . S
C920 H936 0.931 . S
C921 C920 1.391 . S
C921 C925 1.376 . S
C922 C920 1.394 . S
C922 C923 1.369 . S
C922 C926 1.531 . S
C923 C922 1.369 . S
C923 C924 1.410 . S
C923 C931 1.503 . S
C924 C923 1.410 . S
C924 C925 1.392 . S
C924 C927 1.511 . S
C925 C921 1.376 . S
C925 C924 1.392 . S
C925 H937 0.929 . S
C926 C922 1.531 . S
C926 H938 0.960 . S
C926 H939 0.962 . S
C926 H940 0.960 . S
C927 C924 1.511 . S
C927 H941 0.961 . S
C927 H942 0.961 . S
C927 H943 0.961 . S
C928 C929 1.370 . S
C928 C930 1.363 . S
C928 H944 0.931 . S
C929 C928 1.370 . S
C929 C933 1.408 . S
C930 C928 1.363 . S
C930 C931 1.370 . S
C930 C934 1.524 . S
C931 C923 1.503 . S
C931 C930 1.370 . S
C931 C932 1.403 . S
C932 C931 1.403 . S
C932 C933 1.404 . S
C932 C935 1.539 . S
C933 C929 1.408 . S
C933 C932 1.404 . S
C933 H945 0.930 . S
C934 C930 1.524 . S
C934 H946 0.956 . S
C934 H947 0.961 . S
C934 H948 0.961 . S
C935 C932 1.539 . S
C935 H949 0.958 . S
C935 H950 0.961 . S
C935 H951 0.960 . S
H936 C920 0.931 . S
H937 C925 0.929 . S
H938 C926 0.960 . S
H939 C926 0.962 . S
H940 C926 0.960 . S
H941 C927 0.961 . S
H942 C927 0.961 . S
H943 C927 0.961 . S
H944 C928 0.931 . S
H945 C933 0.930 . S
H946 C934 0.956 . S
H947 C934 0.961 . S
H948 C934 0.961 . S
H949 C935 0.958 . S
H950 C935 0.961 . S
H951 C935 0.960 . S
C185 C82 1.493 . S
C193 C105 1.600 . S
C225 C140 1.608 . S
C217 C95 1.487 . S
C257 C145 1.323 . S
C249 C56 1.296 . S
C289 C165 1.466 . S
C281 C69 1.446 . S
C321 C113 1.601 1_565 S
C313 C30 1.435 . S
C345 C43 1.467 . S
C353 C130 1.611 . S
C377 C4 1.178 . S
C385 C153 1.329 . S
C409 C17 1.313 . S
C417 C173 1.467 1_655 S
C449 C123 1.254 . S
C441 C74 1.233 . S
C481 C132 1.001 . S
C473 C87 1.025 . S
C513 C163 1.315 . S
C505 C100 1.282 . S
C537 C61 1.030 . S
C545 C183 1.003 . S
C569 C22 1.267 . S
C577 C112 1.264 1_655 S
C609 C143 1.000 1_565 S
C601 C35 0.964 1_556 S
C641 C152 1.311 . S
C633 C48 1.256 1_556 S
C665 C9 0.981 1_556 S
C673 C172 0.984 . S
C697 C73 1.439 . S
C705 C110 1.472 . S
C729 C86 1.478 . S
C737 C133 1.511 . S
C769 C150 1.592 . S
C761 C99 1.568 . S
C801 C170 1.586 . S
C793 C60 1.564 . S
C825 C21 1.437 . S
C833 C120 1.471 . S
C865 C125 1.508 . S
C857 C34 1.428 . S
C897 C160 1.589 . S
C889 C47 1.554 . S
C921 C8 1.543 . S
C929 C180 1.578 . S
