# Generated by pormake.
# Topology anh, (6,3)-cn, num edge types: 1
# Building blocks:
#     Node 0, Type 0, BuildingBlock: HISSIN_clean_sbu_0, # of connection points: 6
#     Node 1, Type 0, BuildingBlock: HISSIN_clean_sbu_0, # of connection points: 6
#     Node 2, Type 0, BuildingBlock: HISSIN_clean_sbu_0, # of connection points: 6
#     Node 3, Type 1, BuildingBlock: BETDIP_clean_linker_0, # of connection points: 3
#     Node 4, Type 1, BuildingBlock: BETDIP_clean_linker_0, # of connection points: 3
#     Node 5, Type 1, BuildingBlock: BETDIP_clean_linker_0, # of connection points: 3
#     Node 6, Type 1, BuildingBlock: BETDIP_clean_linker_0, # of connection points: 3
#     Node 7, Type 1, BuildingBlock: BETDIP_clean_linker_0, # of connection points: 3
#     Node 8, Type 1, BuildingBlock: BETDIP_clean_linker_0, # of connection points: 3
#     Edge 9, Type (0, 1), BuildingBlock: CIFDUS_clean_linker_0, # of connection points: 2
#     Edge 10, Type (0, 1), BuildingBlock: CIFDUS_clean_linker_0, # of connection points: 2
#     Edge 11, Type (0, 1), BuildingBlock: CIFDUS_clean_linker_0, # of connection points: 2
#     Edge 12, Type (0, 1), BuildingBlock: CIFDUS_clean_linker_0, # of connection points: 2
#     Edge 13, Type (0, 1), BuildingBlock: CIFDUS_clean_linker_0, # of connection points: 2
#     Edge 14, Type (0, 1), BuildingBlock: CIFDUS_clean_linker_0, # of connection points: 2
#     Edge 15, Type (0, 1), BuildingBlock: CIFDUS_clean_linker_0, # of connection points: 2
#     Edge 16, Type (0, 1), BuildingBlock: CIFDUS_clean_linker_0, # of connection points: 2
#     Edge 17, Type (0, 1), BuildingBlock: CIFDUS_clean_linker_0, # of connection points: 2
#     Edge 18, Type (0, 1), BuildingBlock: CIFDUS_clean_linker_0, # of connection points: 2
#     Edge 19, Type (0, 1), BuildingBlock: CIFDUS_clean_linker_0, # of connection points: 2
#     Edge 20, Type (0, 1), BuildingBlock: CIFDUS_clean_linker_0, # of connection points: 2
#     Edge 21, Type (0, 1), BuildingBlock: CIFDUS_clean_linker_0, # of connection points: 2
#     Edge 22, Type (0, 1), BuildingBlock: CIFDUS_clean_linker_0, # of connection points: 2
#     Edge 23, Type (0, 1), BuildingBlock: CIFDUS_clean_linker_0, # of connection points: 2
#     Edge 24, Type (0, 1), BuildingBlock: CIFDUS_clean_linker_0, # of connection points: 2
#     Edge 25, Type (0, 1), BuildingBlock: CIFDUS_clean_linker_0, # of connection points: 2
#     Edge 26, Type (0, 1), BuildingBlock: CIFDUS_clean_linker_0, # of connection points: 2
# Relax obj value: 0.294
# Max RMSD: 0.194
# Mean RMSD: 0.128
data_MOF--net-anh--node1-HISSIN_clean_sbu_0--node2-BETDIP_clean_linker_0--edge1-CIFDUS_clean_linker_0
_symmetry_space_group_name_H-M    P1
_symmetry_Int_Tables_number       1
_symmetry_cell_setting            triclinic
loop_
_symmetry_equiv_pos_as_xyz
'x, y, z'
_cell_length_a     26.835992
_cell_length_b     26.917526
_cell_length_c     44.071127
_cell_angle_alpha  95.050033
_cell_angle_beta   88.987417
_cell_angle_gamma 120.37941
loop_
_atom_site_label
_atom_site_type_symbol
_atom_site_fract_x
_atom_site_fract_y
_atom_site_fract_z
_atom_type_partial_charge
Eu0 Eu 1.13871 0.5408 0.14111 0.0
Eu1 Eu 0.19064 0.67718 0.15958 0.0
C2 C 1.14312 0.59006 0.21181 0.0
C3 C 1.02577 0.38859 0.13928 0.0
C4 C 1.01621 0.38129 0.17047 0.0
C5 C 0.92303 0.35086 0.13085 0.0
C6 C 0.96161 0.3634 0.18197 0.0
C7 C 0.9779 0.36912 0.11933 0.0
C8 C 0.91523 0.35167 0.1625 0.0
C9 C 1.08441 0.42921 0.12922 0.0
O10 O 0.27011 0.66829 0.14635 0.0
O11 O 0.23406 0.57174 0.15069 0.0
C12 C 0.27836 0.62372 0.14736 0.0
O13 O 0.18602 0.58326 0.09925 0.0
O14 O 0.25487 0.75948 0.18313 0.0
O15 O 0.18398 0.7542 0.15733 0.0
O16 O 0.18508 0.6678 0.10881 0.0
C17 C 0.19448 0.63243 0.09069 0.0
O18 O 1.06505 0.55722 0.13079 0.0
O19 O 1.0921 0.64006 0.16143 0.0
O20 O 0.18197 0.64146 0.20459 0.0
O21 O 1.0866 0.46417 0.10981 0.0
O22 O 1.1245 0.45647 0.15072 0.0
O23 O 1.11502 0.54698 0.1907 0.0
C24 C 0.27058 0.84399 0.16203 0.0
C25 C 0.31691 0.85324 0.14338 0.0
C26 C 0.30181 0.94577 0.16428 0.0
C27 C 0.35678 0.90922 0.13607 0.0
C28 C 0.26227 0.89012 0.17153 0.0
C29 C 0.35064 0.95645 0.14731 0.0
C30 C 0.23164 0.78768 0.17322 0.0
C31 C 1.0522 0.59493 0.14432 0.0
H32 H 1.05186 0.39498 0.18653 0.0
H33 H 0.88772 0.34028 0.11515 0.0
H34 H 0.95746 0.36441 0.20647 0.0
H35 H 0.98378 0.37333 0.09511 0.0
H36 H 0.32336 0.81769 0.13546 0.0
H37 H 0.29599 0.98089 0.17384 0.0
H38 H 0.3936 0.9159 0.12272 0.0
H39 H 0.22643 0.88352 0.18576 0.0
Eu40 Eu 0.6316 1.04331 0.47827 0.0
Eu41 Eu 0.55262 0.1011 0.49395 0.0
C42 C 0.59811 1.05722 0.54861 0.0
C43 C 0.7137 0.9573 0.46297 0.0
C44 C 0.69683 0.92261 0.48735 0.0
C45 C 0.77878 0.92298 0.44702 0.0
C46 C 0.72178 0.88893 0.49184 0.0
C47 C 0.75353 0.9561 0.44244 0.0
C48 C 0.76439 0.89011 0.47221 0.0
C49 C 0.69694 1.00077 0.46044 0.0
O50 O 0.64173 0.17702 0.48089 0.0
O51 O 0.69763 0.13812 0.49005 0.0
C52 C 0.69352 0.18297 0.48414 0.0
O53 O 0.63126 1.08929 0.43778 0.0
O54 O 0.53631 0.16305 0.52098 0.0
O55 O 0.48168 0.1137 0.48139 0.0
O56 O 0.54015 1.07108 0.44423 0.0
C57 C 0.58424 1.08519 0.42691 0.0
O58 O 0.53782 0.96828 0.47136 0.0
O59 O 0.48527 1.00488 0.49583 0.0
O60 O 0.57645 1.08845 0.54039 0.0
O61 O 0.64766 0.98523 0.44696 0.0
O62 O 0.70909 1.03841 0.48392 0.0
O63 O 0.61685 1.03157 0.52857 0.0
C64 C 0.51335 0.21303 0.48866 0.0
C65 C 0.54349 0.22716 0.46139 0.0
C66 C 0.53747 0.31261 0.49926 0.0
C67 C 0.5725 0.28419 0.4538 0.0
C68 C 0.50824 0.25548 0.50676 0.0
C69 C 0.57245 0.32807 0.47356 0.0
C70 C 0.49845 0.15856 0.50114 0.0
C71 C 0.48808 0.96082 0.48187 0.0
H72 H 0.66618 0.92329 0.50347 0.0
H73 H 0.81189 0.92575 0.43168 0.0
H74 H 0.70894 0.86331 0.51117 0.0
H75 H 0.76737 0.98316 0.42366 0.0
H76 H 0.5484 0.19508 0.44713 0.0
H77 H 0.53695 0.34529 0.51523 0.0
H78 H 0.59851 0.2946 0.43371 0.0
H79 H 0.4857 0.24547 0.528 0.0
Eu80 Eu 0.55522 0.51988 0.80992 0.0
Eu81 Eu 0.68898 0.59373 0.83057 0.0
C82 C 0.59421 0.55642 0.88027 0.0
C83 C 0.41133 0.49937 0.7954 0.0
C84 C 0.37317 0.49203 0.81905 0.0
C85 C 0.41293 0.58732 0.78513 0.0
C86 C 0.35868 0.53447 0.8271 0.0
C87 C 0.42665 0.5446 0.77684 0.0
C88 C 0.38325 0.58546 0.81202 0.0
C89 C 0.44582 0.47045 0.79508 0.0
O90 O 0.67454 0.5021 0.81477 0.0
O91 O 0.57617 0.45059 0.8193 0.0
C92 C 0.62559 0.45163 0.81539 0.0
O93 O 0.6028 0.51796 0.76721 0.0
O94 O 0.75825 0.61533 0.86365 0.0
O95 O 0.77708 0.66244 0.82381 0.0
O96 O 0.68777 0.6007 0.78078 0.0
C97 C 0.6527 0.56124 0.76003 0.0
O98 O 0.58236 0.61162 0.80044 0.0
O99 O 0.65959 0.66239 0.83365 0.0
O100 O 0.64078 0.55573 0.87224 0.0
O101 O 0.48629 0.48623 0.77512 0.0
O102 O 0.46451 0.46795 0.82175 0.0
O103 O 0.56022 0.55666 0.85931 0.0
C104 C 0.85213 0.65115 0.84354 0.0
C105 C 0.89024 0.68005 0.82053 0.0
C106 C 0.92243 0.62927 0.86292 0.0
C107 C 0.94434 0.68447 0.8191 0.0
C108 C 0.86835 0.62485 0.86436 0.0
C109 C 0.96158 0.66041 0.84077 0.0
C110 C 0.79841 0.65321 0.84751 0.0
C111 C 0.61983 0.66107 0.81547 0.0
H112 H 0.35928 0.45663 0.83322 0.0
H113 H 0.43146 0.62465 0.77217 0.0
H114 H 0.33253 0.52959 0.84683 0.0
H115 H 0.45475 0.55085 0.75783 0.0
H116 H 0.87914 0.70104 0.80422 0.0
H117 H 0.93474 0.61105 0.88027 0.0
H118 H 0.97346 0.70838 0.80165 0.0
H119 H 0.84023 0.60275 0.88254 0.0
H120 H 0.60144 0.30702 0.20477 0.0
H121 H 0.64267 0.34083 0.3011 0.0
H122 H 0.58542 0.17156 0.2563 0.0
H123 H 0.67444 0.46042 0.22273 0.0
C124 C 0.67747 0.42322 0.2277 0.0
C125 C 0.60527 0.29219 0.22621 0.0
C126 C 0.59168 0.23479 0.22728 0.0
C127 C 0.62465 0.33076 0.25279 0.0
C128 C 0.62815 0.31108 0.28066 0.0
C129 C 0.61435 0.25362 0.28196 0.0
C130 C 0.59663 0.21612 0.25521 0.0
N131 N 0.64375 0.39027 0.25156 0.0
H132 H 0.85488 0.66956 0.51706 0.0
H133 H 0.89198 0.7091 0.61341 0.0
H134 H 0.71651 0.59789 0.57954 0.0
H135 H 0.99622 0.78249 0.52448 0.0
C136 C 0.95716 0.77222 0.53667 0.0
C137 C 0.83983 0.66582 0.54019 0.0
C138 C 0.78097 0.63034 0.54544 0.0
C139 C 0.87963 0.6953 0.56475 0.0
C140 C 0.86061 0.68757 0.59467 0.0
C141 C 0.80147 0.65269 0.60029 0.0
C142 C 0.76207 0.62526 0.57547 0.0
N143 N 0.93904 0.7327 0.55941 0.0
H144 H 0.34536 0.86379 0.86582 0.0
H145 H 0.41598 0.86451 0.95279 0.0
H146 H 0.23668 0.74492 0.92949 0.0
H147 H 0.4954 0.94695 0.86083 0.0
C148 C 0.46559 0.90755 0.87097 0.0
C149 C 0.33971 0.84611 0.88761 0.0
C150 C 0.28536 0.80122 0.89503 0.0
C151 C 0.38698 0.86863 0.90831 0.0
C152 C 0.37945 0.84688 0.93686 0.0
C153 C 0.32559 0.80062 0.94417 0.0
C154 C 0.279 0.7783 0.92315 0.0
N155 N 0.44283 0.91152 0.89995 0.0
H156 H 1.1255 0.62925 0.48339 0.0
H157 H 1.04269 0.54001 0.39623 0.0
H158 H 0.21066 0.69262 0.39985 0.0
H159 H 1.00667 0.45968 0.42453 0.0
C160 C 0.99122 0.47481 0.44413 0.0
C161 C 1.12613 0.6252 0.45875 0.0
C162 C 0.17541 0.66714 0.44368 0.0
C163 C 1.07832 0.57693 0.44188 0.0
C164 C 1.07955 0.57383 0.40963 0.0
C165 C 1.12652 0.61612 0.39441 0.0
C166 C 0.1742 0.66083 0.41168 0.0
N167 N 1.02866 0.53368 0.45713 0.0
H168 H 0.65433 0.12146 0.81926 0.0
H169 H 0.61755 1.00975 0.73565 0.0
H170 H 0.61844 0.16949 0.73514 0.0
H171 H 0.57722 0.93892 0.76971 0.0
C172 C 0.61281 0.95558 0.78627 0.0
C173 C 0.64367 0.11219 0.79507 0.0
C174 C 0.63588 0.1523 0.77917 0.0
C175 C 0.6356 1.05894 0.77977 0.0
C176 C 0.62245 1.04858 0.74804 0.0
C177 C 0.61564 1.0879 0.73193 0.0
C178 C 0.62241 0.1388 0.74776 0.0
N179 N 0.64188 1.01712 0.79583 0.0
H180 H 0.61786 0.61524 0.15223 0.0
H181 H 0.69197 0.59134 0.06863 0.0
H182 H 0.53034 0.58827 0.06588 0.0
H183 H 0.71986 0.54273 0.10012 0.0
C184 C 0.74132 0.57816 0.11784 0.0
C185 C 0.61598 0.60795 0.12762 0.0
C186 C 0.56867 0.60433 0.11077 0.0
C187 C 0.66085 0.60205 0.11252 0.0
C188 C 0.65711 0.59295 0.08048 0.0
C189 C 0.61021 0.58728 0.06336 0.0
C190 C 0.56706 0.59375 0.07878 0.0
N191 N 0.71002 0.6068 0.12896 0.0
H192 H 0.32781 0.56089 0.16632 0.0
H193 H 0.36414 0.70247 0.1136 0.0
H194 H 0.45628 0.71089 0.09905 0.0
H195 H 0.52574 0.67519 0.09866 0.0
H196 H 0.4943 0.53884 0.15413 0.0
H197 H 0.40306 0.53202 0.1703 0.0
C198 C 0.35604 0.59403 0.15187 0.0
C199 C 0.33779 0.63091 0.14112 0.0
C200 C 0.41069 0.59975 0.14401 0.0
C201 C 0.3761 0.67358 0.12254 0.0
C202 C 0.42918 0.67832 0.11404 0.0
C203 C 0.49957 0.64464 0.11478 0.0
C204 C 0.51807 0.60779 0.12519 0.0
C205 C 0.44692 0.64139 0.12433 0.0
C206 C 0.48254 0.56844 0.14595 0.0
C207 C 0.42969 0.56415 0.15501 0.0
H208 H 0.7428 0.30424 0.50037 0.0
H209 H 0.76996 0.17975 0.44529 0.0
H210 H 0.86133 0.25688 0.42885 0.0
H211 H 0.93571 0.35916 0.42981 0.0
H212 H 0.91639 0.4871 0.48595 0.0
H213 H 0.82171 0.41061 0.50208 0.0
C214 C 0.76857 0.29407 0.48466 0.0
C215 C 0.74838 0.23508 0.47419 0.0
C216 C 0.82344 0.33972 0.47556 0.0
C217 C 0.78354 0.22381 0.45401 0.0
C218 C 0.83628 0.26824 0.44449 0.0
C219 C 0.91115 0.37065 0.44578 0.0
C220 C 0.93423 0.42951 0.45663 0.0
C221 C 0.85706 0.32623 0.4552 0.0
C222 C 0.90085 0.44264 0.47729 0.0
C223 C 0.84619 0.39854 0.48643 0.0
H224 H 0.69038 0.78273 0.83555 0.0
H225 H 0.53481 0.66062 0.78332 0.0
H226 H 0.51868 0.73742 0.77208 0.0
H227 H 0.54831 0.83958 0.7741 0.0
H228 H 0.70303 0.96715 0.82432 0.0
H229 H 0.71951 0.88974 0.83875 0.0
C230 C 0.65285 0.77276 0.82181 0.0
C231 C 0.61382 0.7139 0.81062 0.0
C232 C 0.64359 0.81897 0.81462 0.0
C233 C 0.56581 0.70384 0.79274 0.0
C234 C 0.55637 0.74839 0.78601 0.0
C235 C 0.58572 0.85094 0.78839 0.0
C236 C 0.62419 0.91006 0.79791 0.0
C237 C 0.59496 0.80611 0.79645 0.0
C238 C 0.67223 0.92267 0.81651 0.0
C239 C 0.68174 0.87795 0.82471 0.0
H240 H 1.00227 0.6628 0.16516 0.0
H241 H 0.96216 0.50417 0.11139 0.0
H242 H 0.86601 0.486 0.09983 0.0
H243 H 0.79201 0.51431 0.10308 0.0
H244 H 0.82641 0.67039 0.15683 0.0
H245 H 0.92396 0.6896 0.17016 0.0
C246 C 0.97255 0.62412 0.15099 0.0
C247 C 0.99138 0.58535 0.13909 0.0
C248 C 0.91532 0.61315 0.14428 0.0
C249 C 0.95079 0.5355 0.12089 0.0
C250 C 0.89501 0.5248 0.11417 0.0
C251 C 0.82053 0.55258 0.11791 0.0
C252 C 0.80077 0.59068 0.1288 0.0
C253 C 0.87671 0.56325 0.12547 0.0
C254 C 0.83929 0.63985 0.14804 0.0
C255 C 0.89558 0.65093 0.1556 0.0
H256 H 0.3734 0.91822 0.50129 0.0
H257 H 0.47901 0.86655 0.448 0.0
H258 H 0.39488 0.77225 0.43428 0.0
H259 H 0.29008 0.70431 0.43438 0.0
H260 H 0.18151 0.75146 0.48734 0.0
H261 H 0.26682 0.84531 0.50442 0.0
C262 C 0.37825 0.8863 0.48685 0.0
C263 C 0.43393 0.90115 0.47574 0.0
C264 C 0.32853 0.83032 0.47893 0.0
C265 C 0.43793 0.85795 0.45711 0.0
C266 C 0.38933 0.80331 0.44911 0.0
C267 C 0.28487 0.73461 0.45008 0.0
C268 C 0.22846 0.71972 0.45949 0.0
C269 C 0.33429 0.789 0.45953 0.0
C270 C 0.22371 0.76043 0.47989 0.0
C271 C 0.27281 0.81477 0.48941 0.0
H272 H 0.70601 0.41474 0.82702 0.0
H273 H 0.53615 0.35382 0.788 0.0
H274 H 0.52309 0.25822 0.77601 0.0
H275 H 0.55879 0.19014 0.77464 0.0
H276 H 0.7261 0.24498 0.81425 0.0
H277 H 0.74019 0.3421 0.82826 0.0
C278 C 0.66618 0.38065 0.81586 0.0
C279 C 0.62223 0.39313 0.80848 0.0
C280 C 0.65791 0.32347 0.80928 0.0
C281 C 0.57093 0.34699 0.79427 0.0
C282 C 0.56321 0.29157 0.78728 0.0
C283 C 0.5982 0.22292 0.78677 0.0
C284 C 0.64106 0.20893 0.7934 0.0
C285 C 0.60614 0.27903 0.79457 0.0
C286 C 0.69167 0.25308 0.80912 0.0
C287 C 0.70002 0.30929 0.81684 0.0
H288 H 0.80117 0.88328 0.52797 0.0
H289 H 0.8034 0.834 0.43224 0.0
H290 H 0.8669 0.7972 0.44355 0.0
H291 H 0.92273 0.77959 0.48081 0.0
H292 H 0.91372 0.82208 0.57652 0.0
H293 H 0.85166 0.86074 0.56513 0.0
C294 C 0.81441 0.86341 0.50957 0.0
C295 C 0.79757 0.86173 0.47928 0.0
C296 C 0.85026 0.84164 0.51624 0.0
C297 C 0.81634 0.83674 0.45575 0.0
C298 C 0.8526 0.81555 0.46218 0.0
C299 C 0.90743 0.79788 0.49899 0.0
C300 C 0.92278 0.79868 0.52933 0.0
C301 C 0.87035 0.81834 0.49231 0.0
C302 C 0.90225 0.82134 0.55296 0.0
C303 C 0.86671 0.84319 0.54648 0.0
H304 H 1.05842 0.76379 0.83539 0.0
H305 H 1.00083 0.58727 0.85174 0.0
H306 H 1.09979 0.61436 0.8656 0.0
H307 H 0.1993 0.69066 0.87991 0.0
H308 H 0.25483 0.86779 0.86609 0.0
H309 H 0.16058 0.83759 0.84308 0.0
C310 C 1.0677 0.73083 0.84106 0.0
C311 C 1.02227 0.67374 0.84291 0.0
C312 C 1.12434 0.74693 0.84955 0.0
C313 C 1.035 0.63172 0.85066 0.0
C314 C 1.09152 0.64717 0.85855 0.0
C315 C 0.19093 0.72247 0.87144 0.0
C316 C 0.23357 0.78142 0.87514 0.0
C317 C 1.13604 0.70506 0.85922 0.0
C318 C 0.22277 0.82213 0.86347 0.0
C319 C 0.16866 0.80496 0.8506 0.0
H320 H 0.46537 0.99659 0.15484 0.0
H321 H 0.34439 1.05309 0.13873 0.0
H322 H 0.41676 0.15211 0.15684 0.0
H323 H 0.50411 0.21507 0.18912 0.0
H324 H 0.62362 0.15722 0.20581 0.0
H325 H 0.5628 1.06668 0.17466 0.0
C326 C 0.45543 1.0308 0.15395 0.0
C327 C 0.39884 1.01705 0.14654 0.0
C328 C 0.49676 1.08732 0.16505 0.0
C329 C 0.38712 1.06226 0.14535 0.0
C330 C 0.42845 0.11891 0.15576 0.0
C331 C 0.51798 0.18365 0.18486 0.0
C332 C 0.56713 0.19175 0.20043 0.0
C333 C 0.48197 0.13102 0.1676 0.0
C334 C 0.585 0.15102 0.1946 0.0
C335 C 0.55017 0.09921 0.1769 0.0
H336 H 0.56108 0.42332 0.48385 0.0
H337 H 0.68556 0.371 0.45969 0.0
H338 H 0.76428 0.46891 0.47286 0.0
H339 H 0.7966 0.56057 0.50366 0.0
H340 H 0.67275 0.61066 0.53265 0.0
H341 H 0.5953 0.52321 0.50504 0.0
C342 C 0.60544 0.43383 0.48071 0.0
C343 C 0.61725 0.38957 0.4715 0.0
C344 C 0.65081 0.48977 0.48982 0.0
C345 C 0.67491 0.40401 0.46676 0.0
C346 C 0.72022 0.46004 0.47468 0.0
C347 C 0.7531 0.55356 0.50282 0.0
C348 C 0.73995 0.59107 0.52063 0.0
C349 C 0.70861 0.50213 0.48805 0.0
C350 C 0.68346 0.5816 0.51946 0.0
C351 C 0.6392 0.5315 0.50385 0.0
H352 H 0.39202 0.67899 0.78565 0.0
H353 H 0.38955 0.61667 0.87329 0.0
H354 H 0.41432 0.70987 0.89858 0.0
H355 H 0.44566 0.81126 0.89624 0.0
H356 H 0.45438 0.87774 0.80969 0.0
H357 H 0.42321 0.78175 0.78339 0.0
C358 C 0.39702 0.68551 0.81026 0.0
C359 C 0.38846 0.6398 0.82723 0.0
C360 C 0.4144 0.74061 0.82489 0.0
C361 C 0.39403 0.64965 0.85927 0.0
C362 C 0.40947 0.70363 0.87394 0.0
C363 C 0.43943 0.8045 0.87166 0.0
C364 C 0.45034 0.85076 0.8549 0.0
C365 C 0.4209 0.74956 0.85697 0.0
C366 C 0.44536 0.84228 0.82299 0.0
C367 C 0.42716 0.78744 0.80805 0.0
H368 H 0.85587 0.39977 0.14149 0.0
H369 H 0.85848 0.30208 0.21359 0.0
H370 H 0.78749 0.31841 0.24088 0.0
H371 H 0.73307 0.36836 0.24644 0.0
H372 H 0.71986 0.45559 0.17208 0.0
H373 H 0.78903 0.43705 0.14372 0.0
C374 C 0.83967 0.38032 0.16267 0.0
C375 C 0.86316 0.35022 0.1756 0.0
C376 C 0.79833 0.38928 0.17811 0.0
C377 C 0.84209 0.32635 0.20337 0.0
C378 C 0.80156 0.33574 0.21903 0.0
C379 C 0.74286 0.38112 0.2235 0.0
C380 C 0.71935 0.41133 0.21089 0.0
C381 C 0.78056 0.36833 0.20694 0.0
C382 C 0.73677 0.43152 0.18208 0.0
C383 C 0.77611 0.42079 0.16584 0.0
H384 H 0.26804 0.74218 0.07954 0.0
H385 H 0.18043 0.56791 0.03627 0.0
H386 H 0.21861 0.6048 0.98691 0.0
H387 H 0.27038 0.68765 0.95585 0.0
H388 H 0.35758 0.86136 1e-05 0.0
H389 H 0.32709 0.82351 0.04961 0.0
C390 C 0.25729 0.7122 0.05928 0.0
C391 C 0.22041 0.65255 0.06124 0.0
C392 C 0.2796 0.73366 0.03134 0.0
C393 C 0.20827 0.61403 0.03513 0.0
C394 C 0.23002 0.63515 0.00701 0.0
C395 C 0.28315 0.71707 0.97642 0.0
C396 C 0.31567 0.77724 0.97432 0.0
C397 C 0.26476 0.69499 0.00478 0.0
C398 C 0.33284 0.81496 0.00108 0.0
C399 C 0.31495 0.79336 0.02938 0.0
H400 H 0.66988 0.18036 0.40359 0.0
H401 H 0.49534 1.03937 0.38569 0.0
H402 H 0.48896 1.08004 0.33942 0.0
H403 H 0.53202 0.15669 0.30492 0.0
H404 H 0.70461 0.30078 0.3236 0.0
H405 H 0.71251 0.25889 0.36927 0.0
C406 C 0.63096 0.15819 0.38916 0.0
C407 C 0.58349 0.10644 0.39746 0.0
C408 C 0.62693 0.18299 0.36323 0.0
C409 C 0.53254 1.07887 0.37934 0.0
C410 C 0.52878 0.10227 0.35307 0.0
C411 C 0.57137 0.17883 0.31902 0.0
C412 C 0.61777 0.23148 0.31097 0.0
C413 C 0.57548 0.15451 0.34499 0.0
C414 C 0.66822 0.26036 0.32958 0.0
C415 C 0.67289 0.23617 0.35546 0.0
H416 H 0.73594 0.65829 0.73788 0.0
H417 H 0.61153 0.47935 0.71073 0.0
H418 H 0.64806 0.49169 0.65884 0.0
H419 H 0.71722 0.55302 0.62206 0.0
H420 H 0.83788 0.73308 0.64958 0.0
H421 H 0.80191 0.71981 0.70115 0.0
C422 C 0.71668 0.62173 0.7207 0.0
C423 C 0.67133 0.56777 0.72818 0.0
C424 C 0.73772 0.62921 0.69122 0.0
C425 C 0.64641 0.52129 0.7055 0.0
C426 C 0.66748 0.52831 0.67594 0.0
C427 C 0.73521 0.58963 0.63919 0.0
C428 C 0.78032 0.64407 0.63187 0.0
C429 C 0.71334 0.58206 0.66863 0.0
C430 C 0.80389 0.69057 0.65462 0.0
C431 C 0.78296 0.68316 0.68405 0.0
H432 H 0.54311 1.08157 0.59505 0.0
H433 H 0.66488 1.02342 0.57739 0.0
H434 H 0.67886 1.02427 0.63225 0.0
H435 H 0.66094 1.0477 0.68576 0.0
H436 H 0.53672 0.10317 0.70227 0.0
H437 H 0.51953 0.09716 0.64766 0.0
C438 C 0.57257 1.06878 0.6031 0.0
C439 C 0.60323 1.05295 0.5819 0.0
C440 C 0.58029 1.0692 0.63469 0.0
C441 C 0.64063 1.03585 0.59301 0.0
C442 C 0.6488 1.0365 0.62448 0.0
C443 C 0.62946 1.05759 0.67742 0.0
C444 C 0.60097 1.07688 0.69836 0.0
C445 C 0.61944 1.05386 0.64563 0.0
C446 C 0.56035 1.08952 0.68689 0.0
C447 C 0.55026 1.0859 0.65556 0.0
H448 H 0.62552 0.51342 0.92442 0.0
H449 H 0.54072 0.60977 0.91069 0.0
H450 H 0.53729 0.62762 0.96617 0.0
H451 H 0.56526 0.62146 0.01857 0.0
H452 H 0.64375 0.51809 0.03083 0.0
H453 H 0.64377 0.49866 0.97605 0.0
C454 C 0.60572 0.53789 0.93353 0.0
C455 C 0.58378 0.56059 0.91343 0.0
C456 C 0.60374 0.54766 0.96528 0.0
C457 C 0.55768 0.59158 0.92564 0.0
C458 C 0.55616 0.60215 0.95738 0.0
C459 C 0.58162 0.59396 0.00942 0.0
C460 C 0.60597 0.57278 0.02934 0.0
C461 C 0.58002 0.58122 0.97748 0.0
C462 C 0.62682 0.53717 0.01651 0.0
C463 C 0.62624 0.52528 0.985 0.0
H464 H 0.16262 0.67308 0.25697 0.0
H465 H 1.09484 0.48945 0.2408 0.0
H466 H 1.08088 0.47991 0.29573 0.0
H467 H 1.09319 0.52572 0.34913 0.0
H468 H 0.15736 0.70926 0.36294 0.0
H469 H 0.16735 0.7166 0.3084 0.0
C470 C 1.14474 0.6308 0.26535 0.0
C471 C 1.13064 0.5822 0.24473 0.0
C472 C 1.13638 0.62567 0.29675 0.0
C473 C 1.10638 0.52769 0.25611 0.0
C474 C 1.0985 0.52227 0.28757 0.0
C475 C 1.10868 0.56711 0.34013 0.0
C476 C 1.12581 0.61712 0.36043 0.0
C477 C 1.11399 0.57117 0.30825 0.0
C478 C 1.14542 0.67031 0.34816 0.0
C479 C 0.15092 0.67461 0.31685 0.0
loop_
_geom_bond_atom_site_label_1
_geom_bond_atom_site_label_2
_geom_bond_distance
_geom_bond_site_symmetry_2
_ccdc_geom_bond_type
Eu0 C9 2.828 . S
Eu0 O11 2.392 1_655 S
Eu0 O13 2.418 . S
Eu0 O18 2.373 . S
Eu0 O21 2.488 . S
Eu0 O22 2.471 . S
Eu0 O23 2.349 1_655 S
Eu1 O10 2.373 . S
Eu1 O14 2.488 . S
Eu1 O15 2.471 . S
Eu1 O16 2.349 . S
Eu1 O19 2.392 1_455 S
Eu1 O20 2.418 . S
Eu1 C30 2.828 . S
C2 O20 1.244 . S
C2 O23 1.265 . S
C3 C4 1.379 . S
C3 C7 1.373 . S
C3 C9 1.505 . S
C4 C3 1.379 . S
C4 C6 1.369 . S
C4 H32 0.930 . S
C5 C7 1.383 . S
C5 C8 1.382 . S
C5 H33 0.930 . S
C6 C4 1.369 . S
C6 C8 1.392 . S
C6 H34 0.930 . S
C7 C3 1.373 . S
C7 C5 1.383 . S
C7 H35 0.931 . S
C8 C5 1.382 . S
C8 C6 1.392 . S
C9 Eu0 2.828 . S
C9 C3 1.505 . S
C9 O21 1.249 . S
C9 O22 1.244 . S
O10 Eu1 2.373 . S
O10 C12 1.258 . S
O11 Eu0 2.392 1_455 S
O11 C12 1.242 . S
C12 O10 1.258 . S
C12 O11 1.242 . S
O13 Eu0 2.418 . S
O13 C17 1.244 1_655 S
O14 Eu1 2.488 . S
O14 C30 1.249 . S
O15 Eu1 2.471 . S
O15 C30 1.244 . S
O16 Eu1 2.349 . S
O16 C17 1.265 . S
C17 O13 1.244 1_455 S
C17 O16 1.265 . S
O18 Eu0 2.373 . S
O18 C31 1.258 . S
O19 Eu1 2.392 1_655 S
O19 C31 1.242 . S
O20 Eu1 2.418 . S
O20 C2 1.244 . S
O21 Eu0 2.488 . S
O21 C9 1.249 . S
O22 Eu0 2.471 . S
O22 C9 1.244 . S
O23 Eu0 2.349 1_455 S
O23 C2 1.265 . S
C24 C25 1.379 . S
C24 C28 1.373 . S
C24 C30 1.505 . S
C25 C24 1.379 . S
C25 C27 1.369 . S
C25 H36 0.930 . S
C26 C28 1.383 . S
C26 C29 1.382 . S
C26 H37 0.930 . S
C27 C25 1.369 . S
C27 C29 1.392 . S
C27 H38 0.930 . S
C28 C24 1.373 . S
C28 C26 1.383 . S
C28 H39 0.931 . S
C29 C26 1.382 . S
C29 C27 1.392 . S
C30 Eu1 2.828 . S
C30 O14 1.249 . S
C30 O15 1.244 . S
C30 C24 1.505 . S
C31 O18 1.258 . S
C31 O19 1.242 . S
H32 C4 0.930 . S
H33 C5 0.930 . S
H34 C6 0.930 . S
H35 C7 0.931 . S
H36 C25 0.930 . S
H37 C26 0.930 . S
H38 C27 0.930 . S
H39 C28 0.931 . S
Eu40 C49 2.828 . S
Eu40 O51 2.392 1_565 S
Eu40 O53 2.418 . S
Eu40 O58 2.373 . S
Eu40 O61 2.488 . S
Eu40 O62 2.471 . S
Eu40 O63 2.349 1_565 S
Eu41 O50 2.373 . S
Eu41 O54 2.488 . S
Eu41 O55 2.471 . S
Eu41 O56 2.349 . S
Eu41 O59 2.392 1_545 S
Eu41 O60 2.418 . S
Eu41 C70 2.828 . S
C42 O60 1.244 . S
C42 O63 1.265 . S
C43 C44 1.379 . S
C43 C47 1.373 . S
C43 C49 1.505 . S
C44 C43 1.379 . S
C44 C46 1.369 . S
C44 H72 0.930 . S
C45 C47 1.383 . S
C45 C48 1.382 . S
C45 H73 0.930 . S
C46 C44 1.369 . S
C46 C48 1.392 . S
C46 H74 0.930 . S
C47 C43 1.373 . S
C47 C45 1.383 . S
C47 H75 0.931 . S
C48 C45 1.382 . S
C48 C46 1.392 . S
C49 Eu40 2.828 . S
C49 C43 1.505 . S
C49 O61 1.249 . S
C49 O62 1.244 . S
O50 Eu41 2.373 . S
O50 C52 1.258 . S
O51 Eu40 2.392 1_545 S
O51 C52 1.242 . S
C52 O50 1.258 . S
C52 O51 1.242 . S
O53 Eu40 2.418 . S
O53 C57 1.244 1_565 S
O54 Eu41 2.488 . S
O54 C70 1.249 . S
O55 Eu41 2.471 . S
O55 C70 1.244 . S
O56 Eu41 2.349 . S
O56 C57 1.265 . S
C57 O53 1.244 1_545 S
C57 O56 1.265 . S
O58 Eu40 2.373 . S
O58 C71 1.258 . S
O59 Eu41 2.392 1_565 S
O59 C71 1.242 . S
O60 Eu41 2.418 . S
O60 C42 1.244 . S
O61 Eu40 2.488 . S
O61 C49 1.249 . S
O62 Eu40 2.471 . S
O62 C49 1.244 . S
O63 Eu40 2.349 1_545 S
O63 C42 1.265 . S
C64 C65 1.379 . S
C64 C68 1.373 . S
C64 C70 1.505 . S
C65 C64 1.379 . S
C65 C67 1.369 . S
C65 H76 0.930 . S
C66 C68 1.383 . S
C66 C69 1.382 . S
C66 H77 0.930 . S
C67 C65 1.369 . S
C67 C69 1.392 . S
C67 H78 0.930 . S
C68 C64 1.373 . S
C68 C66 1.383 . S
C68 H79 0.931 . S
C69 C66 1.382 . S
C69 C67 1.392 . S
C70 Eu41 2.828 . S
C70 O54 1.249 . S
C70 O55 1.244 . S
C70 C64 1.505 . S
C71 O58 1.258 . S
C71 O59 1.242 . S
H72 C44 0.930 . S
H73 C45 0.930 . S
H74 C46 0.930 . S
H75 C47 0.931 . S
H76 C65 0.930 . S
H77 C66 0.930 . S
H78 C67 0.930 . S
H79 C68 0.931 . S
Eu80 C89 2.828 . S
Eu80 O91 2.392 . S
Eu80 O93 2.418 . S
Eu80 O98 2.373 . S
Eu80 O101 2.488 . S
Eu80 O102 2.471 . S
Eu80 O103 2.349 . S
Eu81 O90 2.373 . S
Eu81 O94 2.488 . S
Eu81 O95 2.471 . S
Eu81 O96 2.349 . S
Eu81 O99 2.392 . S
Eu81 O100 2.418 . S
Eu81 C110 2.828 . S
C82 O100 1.244 . S
C82 O103 1.265 . S
C83 C84 1.379 . S
C83 C87 1.373 . S
C83 C89 1.505 . S
C84 C83 1.379 . S
C84 C86 1.369 . S
C84 H112 0.930 . S
C85 C87 1.383 . S
C85 C88 1.382 . S
C85 H113 0.930 . S
C86 C84 1.369 . S
C86 C88 1.392 . S
C86 H114 0.930 . S
C87 C83 1.373 . S
C87 C85 1.383 . S
C87 H115 0.931 . S
C88 C85 1.382 . S
C88 C86 1.392 . S
C89 Eu80 2.828 . S
C89 C83 1.505 . S
C89 O101 1.249 . S
C89 O102 1.244 . S
O90 Eu81 2.373 . S
O90 C92 1.258 . S
O91 Eu80 2.392 . S
O91 C92 1.242 . S
C92 O90 1.258 . S
C92 O91 1.242 . S
O93 Eu80 2.418 . S
O93 C97 1.244 . S
O94 Eu81 2.488 . S
O94 C110 1.249 . S
O95 Eu81 2.471 . S
O95 C110 1.244 . S
O96 Eu81 2.349 . S
O96 C97 1.265 . S
C97 O93 1.244 . S
C97 O96 1.265 . S
O98 Eu80 2.373 . S
O98 C111 1.258 . S
O99 Eu81 2.392 . S
O99 C111 1.242 . S
O100 Eu81 2.418 . S
O100 C82 1.244 . S
O101 Eu80 2.488 . S
O101 C89 1.249 . S
O102 Eu80 2.471 . S
O102 C89 1.244 . S
O103 Eu80 2.349 . S
O103 C82 1.265 . S
C104 C105 1.379 . S
C104 C108 1.373 . S
C104 C110 1.505 . S
C105 C104 1.379 . S
C105 C107 1.369 . S
C105 H116 0.930 . S
C106 C108 1.383 . S
C106 C109 1.382 . S
C106 H117 0.930 . S
C107 C105 1.369 . S
C107 C109 1.392 . S
C107 H118 0.930 . S
C108 C104 1.373 . S
C108 C106 1.383 . S
C108 H119 0.931 . S
C109 C106 1.382 . S
C109 C107 1.392 . S
C110 Eu81 2.828 . S
C110 O94 1.249 . S
C110 O95 1.244 . S
C110 C104 1.505 . S
C111 O98 1.258 . S
C111 O99 1.242 . S
H112 C84 0.930 . S
H113 C85 0.930 . S
H114 C86 0.930 . S
H115 C87 0.931 . S
H116 C105 0.930 . S
H117 C106 0.930 . S
H118 C107 0.930 . S
H119 C108 0.931 . S
H120 C125 0.930 . S
H121 C128 0.930 . S
H122 C130 0.930 1_565 S
H123 C124 1.016 . S
C124 H123 1.016 . S
C124 N131 1.286 . S
C125 H120 0.930 . S
C125 C126 1.397 1_545 S
C125 C127 1.361 . S
C126 C125 1.397 1_565 S
C126 C130 1.390 1_565 S
C127 C125 1.361 . S
C127 C128 1.393 . S
C127 N131 1.413 . S
C128 H121 0.930 . S
C128 C127 1.393 . S
C128 C129 1.399 . S
C129 C128 1.399 . S
C129 C130 1.381 . S
C130 H122 0.930 1_545 S
C130 C126 1.390 1_545 S
C130 C129 1.381 . S
N131 C124 1.286 . S
N131 C127 1.413 . S
H132 C137 0.930 . S
H133 C140 0.930 . S
H134 C142 0.930 . S
H135 C136 1.016 . S
C136 H135 1.016 . S
C136 N143 1.286 . S
C137 H132 0.930 . S
C137 C138 1.397 . S
C137 C139 1.361 . S
C138 C137 1.397 . S
C138 C142 1.390 . S
C139 C137 1.361 . S
C139 C140 1.393 . S
C139 N143 1.413 . S
C140 H133 0.930 . S
C140 C139 1.393 . S
C140 C141 1.399 . S
C141 C140 1.399 . S
C141 C142 1.381 . S
C142 H134 0.930 . S
C142 C138 1.390 . S
C142 C141 1.381 . S
N143 C136 1.286 . S
N143 C139 1.413 . S
H144 C149 0.930 . S
H145 C152 0.930 . S
H146 C154 0.930 . S
H147 C148 1.016 . S
C148 H147 1.016 . S
C148 N155 1.286 . S
C149 H144 0.930 . S
C149 C150 1.397 1_455 S
C149 C151 1.361 . S
C150 C149 1.397 1_655 S
C150 C154 1.390 . S
C151 C149 1.361 . S
C151 C152 1.393 . S
C151 N155 1.413 . S
C152 H145 0.930 . S
C152 C151 1.393 . S
C152 C153 1.399 . S
C153 C152 1.399 . S
C153 C154 1.381 1_455 S
C154 H146 0.930 . S
C154 C150 1.390 . S
C154 C153 1.381 1_655 S
N155 C148 1.286 . S
N155 C151 1.413 . S
H156 C161 0.930 . S
H157 C164 0.930 . S
H158 C166 0.930 . S
H159 C160 1.016 . S
C160 H159 1.016 . S
C160 N167 1.286 . S
C161 H156 0.930 . S
C161 C162 1.397 . S
C161 C163 1.361 1_455 S
C162 C161 1.397 . S
C162 C166 1.390 . S
C163 C161 1.361 1_655 S
C163 C164 1.393 . S
C163 N167 1.413 . S
C164 H157 0.930 . S
C164 C163 1.393 . S
C164 C165 1.399 1_655 S
C165 C164 1.399 1_455 S
C165 C166 1.381 . S
C166 H158 0.930 . S
C166 C162 1.390 . S
C166 C165 1.381 . S
N167 C160 1.286 . S
N167 C163 1.413 . S
H168 C173 0.930 . S
H169 C176 0.930 1_565 S
H170 C178 0.930 . S
H171 C172 1.016 . S
C172 H171 1.016 . S
C172 N179 1.286 . S
C173 H168 0.930 . S
C173 C174 1.397 . S
C173 C175 1.361 . S
C174 C173 1.397 . S
C174 C178 1.390 . S
C175 C173 1.361 . S
C175 C176 1.393 . S
C175 N179 1.413 1_545 S
C176 H169 0.930 1_545 S
C176 C175 1.393 . S
C176 C177 1.399 . S
C177 C176 1.399 . S
C177 C178 1.381 . S
C178 H170 0.930 . S
C178 C174 1.390 . S
C178 C177 1.381 . S
N179 C172 1.286 . S
N179 C175 1.413 1_565 S
H180 C185 0.930 . S
H181 C188 0.930 . S
H182 C190 0.930 . S
H183 C184 1.016 . S
C184 H183 1.016 . S
C184 N191 1.286 . S
C185 H180 0.930 . S
C185 C186 1.397 . S
C185 C187 1.361 . S
C186 C185 1.397 . S
C186 C190 1.390 . S
C187 C185 1.361 . S
C187 C188 1.393 . S
C187 N191 1.413 . S
C188 H181 0.930 . S
C188 C187 1.393 . S
C188 C189 1.399 . S
C189 C188 1.399 . S
C189 C190 1.381 . S
C190 H182 0.930 . S
C190 C186 1.390 . S
C190 C189 1.381 . S
N191 C184 1.286 . S
N191 C187 1.413 . S
H192 C198 0.930 . S
H193 C201 0.930 . S
H194 C202 0.930 . S
H195 C203 0.930 . S
H196 C206 0.930 . S
H197 C207 0.930 . S
C198 H192 0.930 . S
C198 C199 1.355 . S
C198 C200 1.415 . S
C199 C198 1.355 . S
C199 C201 1.419 . S
C200 C198 1.415 . S
C200 C205 1.425 . S
C200 C207 1.409 . S
C201 H193 0.930 . S
C201 C199 1.419 . S
C201 C202 1.362 . S
C202 H194 0.930 . S
C202 C201 1.362 . S
C202 C205 1.409 . S
C203 H195 0.930 . S
C203 C204 1.355 . S
C203 C205 1.415 . S
C204 C203 1.355 . S
C204 C206 1.419 . S
C205 C200 1.425 . S
C205 C202 1.409 . S
C205 C203 1.415 . S
C206 H196 0.930 . S
C206 C204 1.419 . S
C206 C207 1.362 . S
C207 H197 0.930 . S
C207 C200 1.409 . S
C207 C206 1.362 . S
H208 C214 0.930 . S
H209 C217 0.930 . S
H210 C218 0.930 . S
H211 C219 0.930 . S
H212 C222 0.930 . S
H213 C223 0.930 . S
C214 H208 0.930 . S
C214 C215 1.355 . S
C214 C216 1.415 . S
C215 C214 1.355 . S
C215 C217 1.419 . S
C216 C214 1.415 . S
C216 C221 1.425 . S
C216 C223 1.409 . S
C217 H209 0.930 . S
C217 C215 1.419 . S
C217 C218 1.362 . S
C218 H210 0.930 . S
C218 C217 1.362 . S
C218 C221 1.409 . S
C219 H211 0.930 . S
C219 C220 1.355 . S
C219 C221 1.415 . S
C220 C219 1.355 . S
C220 C222 1.419 . S
C221 C216 1.425 . S
C221 C218 1.409 . S
C221 C219 1.415 . S
C222 H212 0.930 . S
C222 C220 1.419 . S
C222 C223 1.362 . S
C223 H213 0.930 . S
C223 C216 1.409 . S
C223 C222 1.362 . S
H224 C230 0.930 . S
H225 C233 0.930 . S
H226 C234 0.930 . S
H227 C235 0.930 . S
H228 C238 0.930 . S
H229 C239 0.930 . S
C230 H224 0.930 . S
C230 C231 1.355 . S
C230 C232 1.415 . S
C231 C230 1.355 . S
C231 C233 1.419 . S
C232 C230 1.415 . S
C232 C237 1.425 . S
C232 C239 1.409 . S
C233 H225 0.930 . S
C233 C231 1.419 . S
C233 C234 1.362 . S
C234 H226 0.930 . S
C234 C233 1.362 . S
C234 C237 1.409 . S
C235 H227 0.930 . S
C235 C236 1.355 . S
C235 C237 1.415 . S
C236 C235 1.355 . S
C236 C238 1.419 . S
C237 C232 1.425 . S
C237 C234 1.409 . S
C237 C235 1.415 . S
C238 H228 0.930 . S
C238 C236 1.419 . S
C238 C239 1.362 . S
C239 H229 0.930 . S
C239 C232 1.409 . S
C239 C238 1.362 . S
H240 C246 0.930 . S
H241 C249 0.930 . S
H242 C250 0.930 . S
H243 C251 0.930 . S
H244 C254 0.930 . S
H245 C255 0.930 . S
C246 H240 0.930 . S
C246 C247 1.355 . S
C246 C248 1.415 . S
C247 C246 1.355 . S
C247 C249 1.419 . S
C248 C246 1.415 . S
C248 C253 1.425 . S
C248 C255 1.409 . S
C249 H241 0.930 . S
C249 C247 1.419 . S
C249 C250 1.362 . S
C250 H242 0.930 . S
C250 C249 1.362 . S
C250 C253 1.409 . S
C251 H243 0.930 . S
C251 C252 1.355 . S
C251 C253 1.415 . S
C252 C251 1.355 . S
C252 C254 1.419 . S
C253 C248 1.425 . S
C253 C250 1.409 . S
C253 C251 1.415 . S
C254 H244 0.930 . S
C254 C252 1.419 . S
C254 C255 1.362 . S
C255 H245 0.930 . S
C255 C248 1.409 . S
C255 C254 1.362 . S
H256 C262 0.930 . S
H257 C265 0.930 . S
H258 C266 0.930 . S
H259 C267 0.930 . S
H260 C270 0.930 . S
H261 C271 0.930 . S
C262 H256 0.930 . S
C262 C263 1.355 . S
C262 C264 1.415 . S
C263 C262 1.355 . S
C263 C265 1.419 . S
C264 C262 1.415 . S
C264 C269 1.425 . S
C264 C271 1.409 . S
C265 H257 0.930 . S
C265 C263 1.419 . S
C265 C266 1.362 . S
C266 H258 0.930 . S
C266 C265 1.362 . S
C266 C269 1.409 . S
C267 H259 0.930 . S
C267 C268 1.355 . S
C267 C269 1.415 . S
C268 C267 1.355 . S
C268 C270 1.419 . S
C269 C264 1.425 . S
C269 C266 1.409 . S
C269 C267 1.415 . S
C270 H260 0.930 . S
C270 C268 1.419 . S
C270 C271 1.362 . S
C271 H261 0.930 . S
C271 C264 1.409 . S
C271 C270 1.362 . S
H272 C278 0.930 . S
H273 C281 0.930 . S
H274 C282 0.930 . S
H275 C283 0.930 . S
H276 C286 0.930 . S
H277 C287 0.930 . S
C278 H272 0.930 . S
C278 C279 1.355 . S
C278 C280 1.415 . S
C279 C278 1.355 . S
C279 C281 1.419 . S
C280 C278 1.415 . S
C280 C285 1.425 . S
C280 C287 1.409 . S
C281 H273 0.930 . S
C281 C279 1.419 . S
C281 C282 1.362 . S
C282 H274 0.930 . S
C282 C281 1.362 . S
C282 C285 1.409 . S
C283 H275 0.930 . S
C283 C284 1.355 . S
C283 C285 1.415 . S
C284 C283 1.355 . S
C284 C286 1.419 . S
C285 C280 1.425 . S
C285 C282 1.409 . S
C285 C283 1.415 . S
C286 H276 0.930 . S
C286 C284 1.419 . S
C286 C287 1.362 . S
C287 H277 0.930 . S
C287 C280 1.409 . S
C287 C286 1.362 . S
H288 C294 0.930 . S
H289 C297 0.930 . S
H290 C298 0.930 . S
H291 C299 0.930 . S
H292 C302 0.930 . S
H293 C303 0.930 . S
C294 H288 0.930 . S
C294 C295 1.355 . S
C294 C296 1.415 . S
C295 C294 1.355 . S
C295 C297 1.419 . S
C296 C294 1.415 . S
C296 C301 1.425 . S
C296 C303 1.409 . S
C297 H289 0.930 . S
C297 C295 1.419 . S
C297 C298 1.362 . S
C298 H290 0.930 . S
C298 C297 1.362 . S
C298 C301 1.409 . S
C299 H291 0.930 . S
C299 C300 1.355 . S
C299 C301 1.415 . S
C300 C299 1.355 . S
C300 C302 1.419 . S
C301 C296 1.425 . S
C301 C298 1.409 . S
C301 C299 1.415 . S
C302 H292 0.930 . S
C302 C300 1.419 . S
C302 C303 1.362 . S
C303 H293 0.930 . S
C303 C296 1.409 . S
C303 C302 1.362 . S
H304 C310 0.930 . S
H305 C313 0.930 . S
H306 C314 0.930 . S
H307 C315 0.930 . S
H308 C318 0.930 . S
H309 C319 0.930 . S
C310 H304 0.930 . S
C310 C311 1.355 . S
C310 C312 1.415 . S
C311 C310 1.355 . S
C311 C313 1.419 . S
C312 C310 1.415 . S
C312 C317 1.425 . S
C312 C319 1.409 . S
C313 H305 0.930 . S
C313 C311 1.419 . S
C313 C314 1.362 . S
C314 H306 0.930 . S
C314 C313 1.362 . S
C314 C317 1.409 . S
C315 H307 0.930 . S
C315 C316 1.355 . S
C315 C317 1.415 . S
C316 C315 1.355 . S
C316 C318 1.419 . S
C317 C312 1.425 . S
C317 C314 1.409 . S
C317 C315 1.415 . S
C318 H308 0.930 . S
C318 C316 1.419 . S
C318 C319 1.362 . S
C319 H309 0.930 . S
C319 C312 1.409 . S
C319 C318 1.362 . S
H320 C326 0.930 . S
H321 C329 0.930 . S
H322 C330 0.930 . S
H323 C331 0.930 1_545 S
H324 C334 0.930 . S
H325 C335 0.930 . S
C326 H320 0.930 . S
C326 C327 1.355 . S
C326 C328 1.415 . S
C327 C326 1.355 . S
C327 C329 1.419 . S
C328 C326 1.415 . S
C328 C333 1.425 . S
C328 C335 1.409 . S
C329 H321 0.930 . S
C329 C327 1.419 . S
C329 C330 1.362 . S
C330 H322 0.930 . S
C330 C329 1.362 . S
C330 C333 1.409 . S
C331 H323 0.930 1_565 S
C331 C332 1.355 . S
C331 C333 1.415 . S
C332 C331 1.355 . S
C332 C334 1.419 . S
C333 C328 1.425 . S
C333 C330 1.409 . S
C333 C331 1.415 . S
C334 H324 0.930 . S
C334 C332 1.419 . S
C334 C335 1.362 . S
C335 H325 0.930 . S
C335 C328 1.409 . S
C335 C334 1.362 . S
H336 C342 0.930 . S
H337 C345 0.930 . S
H338 C346 0.930 . S
H339 C347 0.930 . S
H340 C350 0.930 . S
H341 C351 0.930 . S
C342 H336 0.930 . S
C342 C343 1.355 . S
C342 C344 1.415 . S
C343 C342 1.355 . S
C343 C345 1.419 . S
C344 C342 1.415 . S
C344 C349 1.425 . S
C344 C351 1.409 . S
C345 H337 0.930 . S
C345 C343 1.419 . S
C345 C346 1.362 . S
C346 H338 0.930 . S
C346 C345 1.362 . S
C346 C349 1.409 . S
C347 H339 0.930 . S
C347 C348 1.355 . S
C347 C349 1.415 . S
C348 C347 1.355 . S
C348 C350 1.419 . S
C349 C344 1.425 . S
C349 C346 1.409 . S
C349 C347 1.415 . S
C350 H340 0.930 . S
C350 C348 1.419 . S
C350 C351 1.362 . S
C351 H341 0.930 . S
C351 C344 1.409 . S
C351 C350 1.362 . S
H352 C358 0.930 . S
H353 C361 0.930 . S
H354 C362 0.930 . S
H355 C363 0.930 . S
H356 C366 0.930 . S
H357 C367 0.930 . S
C358 H352 0.930 . S
C358 C359 1.355 . S
C358 C360 1.415 . S
C359 C358 1.355 . S
C359 C361 1.419 . S
C360 C358 1.415 . S
C360 C365 1.425 . S
C360 C367 1.409 . S
C361 H353 0.930 . S
C361 C359 1.419 . S
C361 C362 1.362 . S
C362 H354 0.930 . S
C362 C361 1.362 . S
C362 C365 1.409 . S
C363 H355 0.930 . S
C363 C364 1.355 . S
C363 C365 1.415 . S
C364 C363 1.355 . S
C364 C366 1.419 . S
C365 C360 1.425 . S
C365 C362 1.409 . S
C365 C363 1.415 . S
C366 H356 0.930 . S
C366 C364 1.419 . S
C366 C367 1.362 . S
C367 H357 0.930 . S
C367 C360 1.409 . S
C367 C366 1.362 . S
H368 C374 0.930 . S
H369 C377 0.930 . S
H370 C378 0.930 . S
H371 C379 0.930 . S
H372 C382 0.930 . S
H373 C383 0.930 . S
C374 H368 0.930 . S
C374 C375 1.355 . S
C374 C376 1.415 . S
C375 C374 1.355 . S
C375 C377 1.419 . S
C376 C374 1.415 . S
C376 C381 1.425 . S
C376 C383 1.409 . S
C377 H369 0.930 . S
C377 C375 1.419 . S
C377 C378 1.362 . S
C378 H370 0.930 . S
C378 C377 1.362 . S
C378 C381 1.409 . S
C379 H371 0.930 . S
C379 C380 1.355 . S
C379 C381 1.415 . S
C380 C379 1.355 . S
C380 C382 1.419 . S
C381 C376 1.425 . S
C381 C378 1.409 . S
C381 C379 1.415 . S
C382 H372 0.930 . S
C382 C380 1.419 . S
C382 C383 1.362 . S
C383 H373 0.930 . S
C383 C376 1.409 . S
C383 C382 1.362 . S
H384 C390 0.930 . S
H385 C393 0.930 . S
H386 C394 0.930 . S
H387 C395 0.930 . S
H388 C398 0.930 . S
H389 C399 0.930 . S
C390 H384 0.930 . S
C390 C391 1.355 . S
C390 C392 1.415 . S
C391 C390 1.355 . S
C391 C393 1.419 1_455 S
C392 C390 1.415 . S
C392 C397 1.425 . S
C392 C399 1.409 . S
C393 H385 0.930 . S
C393 C391 1.419 1_655 S
C393 C394 1.362 . S
C394 H386 0.930 . S
C394 C393 1.362 . S
C394 C397 1.409 1_655 S
C395 H387 0.930 . S
C395 C396 1.355 1_655 S
C395 C397 1.415 1_656 S
C396 C395 1.355 1_455 S
C396 C398 1.419 . S
C397 C392 1.425 . S
C397 C394 1.409 1_455 S
C397 C395 1.415 1_454 S
C398 H388 0.930 . S
C398 C396 1.419 . S
C398 C399 1.362 1_556 S
C399 H389 0.930 . S
C399 C392 1.409 . S
C399 C398 1.362 1_554 S
H400 C406 0.930 . S
H401 C409 0.930 . S
H402 C410 0.930 . S
H403 C411 0.930 1_565 S
H404 C414 0.930 . S
H405 C415 0.930 . S
C406 H400 0.930 . S
C406 C407 1.355 . S
C406 C408 1.415 . S
C407 C406 1.355 . S
C407 C409 1.419 1_545 S
C408 C406 1.415 . S
C408 C413 1.425 . S
C408 C415 1.409 . S
C409 H401 0.930 . S
C409 C407 1.419 1_565 S
C409 C410 1.362 . S
C410 H402 0.930 . S
C410 C409 1.362 . S
C410 C413 1.409 1_565 S
C411 H403 0.930 1_545 S
C411 C412 1.355 . S
C411 C413 1.415 . S
C412 C411 1.355 . S
C412 C414 1.419 . S
C413 C408 1.425 . S
C413 C410 1.409 1_545 S
C413 C411 1.415 . S
C414 H404 0.930 . S
C414 C412 1.419 . S
C414 C415 1.362 . S
C415 H405 0.930 . S
C415 C408 1.409 . S
C415 C414 1.362 . S
H416 C422 0.930 . S
H417 C425 0.930 . S
H418 C426 0.930 . S
H419 C427 0.930 . S
H420 C430 0.930 . S
H421 C431 0.930 . S
C422 H416 0.930 . S
C422 C423 1.355 . S
C422 C424 1.415 . S
C423 C422 1.355 . S
C423 C425 1.419 . S
C424 C422 1.415 . S
C424 C429 1.425 . S
C424 C431 1.409 . S
C425 H417 0.930 . S
C425 C423 1.419 . S
C425 C426 1.362 . S
C426 H418 0.930 . S
C426 C425 1.362 . S
C426 C429 1.409 . S
C427 H419 0.930 . S
C427 C428 1.355 . S
C427 C429 1.415 . S
C428 C427 1.355 . S
C428 C430 1.419 . S
C429 C424 1.425 . S
C429 C426 1.409 . S
C429 C427 1.415 . S
C430 H420 0.930 . S
C430 C428 1.419 . S
C430 C431 1.362 . S
C431 H421 0.930 . S
C431 C424 1.409 . S
C431 C430 1.362 . S
H432 C438 0.930 . S
H433 C441 0.930 1_565 S
H434 C442 0.930 1_565 S
H435 C443 0.930 1_565 S
H436 C446 0.930 . S
H437 C447 0.930 . S
C438 H432 0.930 . S
C438 C439 1.355 . S
C438 C440 1.415 . S
C439 C438 1.355 . S
C439 C441 1.419 . S
C440 C438 1.415 . S
C440 C445 1.425 . S
C440 C447 1.409 . S
C441 H433 0.930 1_545 S
C441 C439 1.419 . S
C441 C442 1.362 . S
C442 H434 0.930 1_545 S
C442 C441 1.362 . S
C442 C445 1.409 . S
C443 H435 0.930 1_545 S
C443 C444 1.355 . S
C443 C445 1.415 . S
C444 C443 1.355 . S
C444 C446 1.419 . S
C445 C440 1.425 . S
C445 C442 1.409 . S
C445 C443 1.415 . S
C446 H436 0.930 . S
C446 C444 1.419 . S
C446 C447 1.362 . S
C447 H437 0.930 . S
C447 C440 1.409 . S
C447 C446 1.362 . S
H448 C454 0.930 . S
H449 C457 0.930 . S
H450 C458 0.930 . S
H451 C459 0.930 . S
H452 C462 0.930 . S
H453 C463 0.930 1_556 S
C454 H448 0.930 . S
C454 C455 1.355 . S
C454 C456 1.415 . S
C455 C454 1.355 . S
C455 C457 1.419 . S
C456 C454 1.415 . S
C456 C461 1.425 . S
C456 C463 1.409 1_556 S
C457 H449 0.930 . S
C457 C455 1.419 . S
C457 C458 1.362 . S
C458 H450 0.930 . S
C458 C457 1.362 . S
C458 C461 1.409 . S
C459 H451 0.930 . S
C459 C460 1.355 . S
C459 C461 1.415 1_554 S
C460 C459 1.355 . S
C460 C462 1.419 . S
C461 C456 1.425 . S
C461 C458 1.409 . S
C461 C459 1.415 1_556 S
C462 H452 0.930 . S
C462 C460 1.419 . S
C462 C463 1.362 . S
C463 H453 0.930 1_554 S
C463 C456 1.409 1_554 S
C463 C462 1.362 . S
H464 C470 0.930 . S
H465 C473 0.930 . S
H466 C474 0.930 . S
H467 C475 0.930 . S
H468 C478 0.930 . S
H469 C479 0.930 . S
C470 H464 0.930 . S
C470 C471 1.355 . S
C470 C472 1.415 . S
C471 C470 1.355 . S
C471 C473 1.419 . S
C472 C470 1.415 . S
C472 C477 1.425 . S
C472 C479 1.409 1_455 S
C473 H465 0.930 . S
C473 C471 1.419 . S
C473 C474 1.362 . S
C474 H466 0.930 . S
C474 C473 1.362 . S
C474 C477 1.409 . S
C475 H467 0.930 . S
C475 C476 1.355 . S
C475 C477 1.415 . S
C476 C475 1.355 . S
C476 C478 1.419 1_455 S
C477 C472 1.425 . S
C477 C474 1.409 . S
C477 C475 1.415 . S
C478 H468 0.930 . S
C478 C476 1.419 1_655 S
C478 C479 1.362 . S
C479 H469 0.930 . S
C479 C472 1.409 1_655 S
C479 C478 1.362 . S
C199 C12 3.217 . S
C204 C186 3.190 . S
C215 C52 3.036 . S
C220 C160 2.973 . S
C231 C111 3.071 . S
C236 C172 2.975 . S
C247 C31 2.915 . S
C252 C184 2.797 . S
C268 C162 2.988 . S
C263 C71 3.034 . S
C284 C174 2.943 . S
C279 C92 2.990 . S
C295 C48 0.808 . S
C300 C136 0.742 . S
C311 C109 0.863 . S
C316 C150 0.808 . S
C327 C29 0.458 . S
C332 C126 0.238 . S
C348 C138 0.330 . S
C343 C69 0.505 . S
C364 C148 0.321 . S
C359 C88 0.192 . S
C375 C8 0.400 . S
C380 C124 0.473 . S
C396 C153 1.185 . S
C391 C17 1.142 . S
C407 C57 1.174 . S
C412 C129 1.191 . S
C423 C97 1.220 . S
C428 C141 1.219 . S
C444 C177 1.734 . S
C439 C42 1.731 . S
C460 C189 1.810 . S
C455 C82 1.780 . S
C471 C2 1.732 . S
C476 C165 1.751 . S
