# Generated by pormake.
# Topology eea, (3,6)-cn, num edge types: 1
# Building blocks:
#     Node 0, Type 0, BuildingBlock: VETTIZ_charged_linker_0, # of connection points: 3
#     Node 1, Type 0, BuildingBlock: VETTIZ_charged_linker_0, # of connection points: 3
#     Node 2, Type 0, BuildingBlock: VETTIZ_charged_linker_0, # of connection points: 3
#     Node 3, Type 0, BuildingBlock: VETTIZ_charged_linker_0, # of connection points: 3
#     Node 4, Type 0, BuildingBlock: VETTIZ_charged_linker_0, # of connection points: 3
#     Node 5, Type 0, BuildingBlock: VETTIZ_charged_linker_0, # of connection points: 3
#     Node 6, Type 0, BuildingBlock: VETTIZ_charged_linker_0, # of connection points: 3
#     Node 7, Type 0, BuildingBlock: VETTIZ_charged_linker_0, # of connection points: 3
#     Node 8, Type 0, BuildingBlock: VETTIZ_charged_linker_0, # of connection points: 3
#     Node 9, Type 0, BuildingBlock: VETTIZ_charged_linker_0, # of connection points: 3
#     Node 10, Type 0, BuildingBlock: VETTIZ_charged_linker_0, # of connection points: 3
#     Node 11, Type 0, BuildingBlock: VETTIZ_charged_linker_0, # of connection points: 3
#     Node 12, Type 0, BuildingBlock: VETTIZ_charged_linker_0, # of connection points: 3
#     Node 13, Type 0, BuildingBlock: VETTIZ_charged_linker_0, # of connection points: 3
#     Node 14, Type 0, BuildingBlock: VETTIZ_charged_linker_0, # of connection points: 3
#     Node 15, Type 0, BuildingBlock: VETTIZ_charged_linker_0, # of connection points: 3
#     Node 16, Type 0, BuildingBlock: VETTIZ_charged_linker_0, # of connection points: 3
#     Node 17, Type 0, BuildingBlock: VETTIZ_charged_linker_0, # of connection points: 3
#     Node 18, Type 1, BuildingBlock: KUMJIN_clean_sbu_0, # of connection points: 6
#     Node 19, Type 1, BuildingBlock: KUMJIN_clean_sbu_0, # of connection points: 6
#     Node 20, Type 1, BuildingBlock: KUMJIN_clean_sbu_0, # of connection points: 6
#     Node 21, Type 1, BuildingBlock: KUMJIN_clean_sbu_0, # of connection points: 6
#     Node 22, Type 1, BuildingBlock: KUMJIN_clean_sbu_0, # of connection points: 6
#     Node 23, Type 1, BuildingBlock: KUMJIN_clean_sbu_0, # of connection points: 6
#     Node 24, Type 1, BuildingBlock: KUMJIN_clean_sbu_0, # of connection points: 6
#     Node 25, Type 1, BuildingBlock: KUMJIN_clean_sbu_0, # of connection points: 6
#     Node 26, Type 1, BuildingBlock: KUMJIN_clean_sbu_0, # of connection points: 6
#     Edge 27, Type (0, 1), BuildingBlock: MIFKUJ_clean_linker_0, # of connection points: 2
#     Edge 28, Type (0, 1), BuildingBlock: MIFKUJ_clean_linker_0, # of connection points: 2
#     Edge 29, Type (0, 1), BuildingBlock: MIFKUJ_clean_linker_0, # of connection points: 2
#     Edge 30, Type (0, 1), BuildingBlock: MIFKUJ_clean_linker_0, # of connection points: 2
#     Edge 31, Type (0, 1), BuildingBlock: MIFKUJ_clean_linker_0, # of connection points: 2
#     Edge 32, Type (0, 1), BuildingBlock: MIFKUJ_clean_linker_0, # of connection points: 2
#     Edge 33, Type (0, 1), BuildingBlock: MIFKUJ_clean_linker_0, # of connection points: 2
#     Edge 34, Type (0, 1), BuildingBlock: MIFKUJ_clean_linker_0, # of connection points: 2
#     Edge 35, Type (0, 1), BuildingBlock: MIFKUJ_clean_linker_0, # of connection points: 2
#     Edge 36, Type (0, 1), BuildingBlock: MIFKUJ_clean_linker_0, # of connection points: 2
#     Edge 37, Type (0, 1), BuildingBlock: MIFKUJ_clean_linker_0, # of connection points: 2
#     Edge 38, Type (0, 1), BuildingBlock: MIFKUJ_clean_linker_0, # of connection points: 2
#     Edge 39, Type (0, 1), BuildingBlock: MIFKUJ_clean_linker_0, # of connection points: 2
#     Edge 40, Type (0, 1), BuildingBlock: MIFKUJ_clean_linker_0, # of connection points: 2
#     Edge 41, Type (0, 1), BuildingBlock: MIFKUJ_clean_linker_0, # of connection points: 2
#     Edge 42, Type (0, 1), BuildingBlock: MIFKUJ_clean_linker_0, # of connection points: 2
#     Edge 43, Type (0, 1), BuildingBlock: MIFKUJ_clean_linker_0, # of connection points: 2
#     Edge 44, Type (0, 1), BuildingBlock: MIFKUJ_clean_linker_0, # of connection points: 2
#     Edge 45, Type (0, 1), BuildingBlock: MIFKUJ_clean_linker_0, # of connection points: 2
#     Edge 46, Type (0, 1), BuildingBlock: MIFKUJ_clean_linker_0, # of connection points: 2
#     Edge 47, Type (0, 1), BuildingBlock: MIFKUJ_clean_linker_0, # of connection points: 2
#     Edge 48, Type (0, 1), BuildingBlock: MIFKUJ_clean_linker_0, # of connection points: 2
#     Edge 49, Type (0, 1), BuildingBlock: MIFKUJ_clean_linker_0, # of connection points: 2
#     Edge 50, Type (0, 1), BuildingBlock: MIFKUJ_clean_linker_0, # of connection points: 2
#     Edge 51, Type (0, 1), BuildingBlock: MIFKUJ_clean_linker_0, # of connection points: 2
#     Edge 52, Type (0, 1), BuildingBlock: MIFKUJ_clean_linker_0, # of connection points: 2
#     Edge 53, Type (0, 1), BuildingBlock: MIFKUJ_clean_linker_0, # of connection points: 2
#     Edge 54, Type (0, 1), BuildingBlock: MIFKUJ_clean_linker_0, # of connection points: 2
#     Edge 55, Type (0, 1), BuildingBlock: MIFKUJ_clean_linker_0, # of connection points: 2
#     Edge 56, Type (0, 1), BuildingBlock: MIFKUJ_clean_linker_0, # of connection points: 2
#     Edge 57, Type (0, 1), BuildingBlock: MIFKUJ_clean_linker_0, # of connection points: 2
#     Edge 58, Type (0, 1), BuildingBlock: MIFKUJ_clean_linker_0, # of connection points: 2
#     Edge 59, Type (0, 1), BuildingBlock: MIFKUJ_clean_linker_0, # of connection points: 2
#     Edge 60, Type (0, 1), BuildingBlock: MIFKUJ_clean_linker_0, # of connection points: 2
#     Edge 61, Type (0, 1), BuildingBlock: MIFKUJ_clean_linker_0, # of connection points: 2
#     Edge 62, Type (0, 1), BuildingBlock: MIFKUJ_clean_linker_0, # of connection points: 2
#     Edge 63, Type (0, 1), BuildingBlock: MIFKUJ_clean_linker_0, # of connection points: 2
#     Edge 64, Type (0, 1), BuildingBlock: MIFKUJ_clean_linker_0, # of connection points: 2
#     Edge 65, Type (0, 1), BuildingBlock: MIFKUJ_clean_linker_0, # of connection points: 2
#     Edge 66, Type (0, 1), BuildingBlock: MIFKUJ_clean_linker_0, # of connection points: 2
#     Edge 67, Type (0, 1), BuildingBlock: MIFKUJ_clean_linker_0, # of connection points: 2
#     Edge 68, Type (0, 1), BuildingBlock: MIFKUJ_clean_linker_0, # of connection points: 2
#     Edge 69, Type (0, 1), BuildingBlock: MIFKUJ_clean_linker_0, # of connection points: 2
#     Edge 70, Type (0, 1), BuildingBlock: MIFKUJ_clean_linker_0, # of connection points: 2
#     Edge 71, Type (0, 1), BuildingBlock: MIFKUJ_clean_linker_0, # of connection points: 2
#     Edge 72, Type (0, 1), BuildingBlock: MIFKUJ_clean_linker_0, # of connection points: 2
#     Edge 73, Type (0, 1), BuildingBlock: MIFKUJ_clean_linker_0, # of connection points: 2
#     Edge 74, Type (0, 1), BuildingBlock: MIFKUJ_clean_linker_0, # of connection points: 2
#     Edge 75, Type (0, 1), BuildingBlock: MIFKUJ_clean_linker_0, # of connection points: 2
#     Edge 76, Type (0, 1), BuildingBlock: MIFKUJ_clean_linker_0, # of connection points: 2
#     Edge 77, Type (0, 1), BuildingBlock: MIFKUJ_clean_linker_0, # of connection points: 2
#     Edge 78, Type (0, 1), BuildingBlock: MIFKUJ_clean_linker_0, # of connection points: 2
#     Edge 79, Type (0, 1), BuildingBlock: MIFKUJ_clean_linker_0, # of connection points: 2
#     Edge 80, Type (0, 1), BuildingBlock: MIFKUJ_clean_linker_0, # of connection points: 2
# Relax obj value: 0.010
# Max RMSD: 0.100
# Mean RMSD: 0.054
data_MOF--net-eea--node1-KUMJIN_clean_sbu_0--node2-VETTIZ_charged_linker_0--edge1-MIFKUJ_clean_linker_0
_symmetry_space_group_name_H-M    P1
_symmetry_Int_Tables_number       1
_symmetry_cell_setting            triclinic
loop_
_symmetry_equiv_pos_as_xyz
'x, y, z'
_cell_length_a     77.80078
_cell_length_b     79.080138
_cell_length_c     107.46944
_cell_angle_alpha  90.288627
_cell_angle_beta   90.290959
_cell_angle_gamma 119.96973
loop_
_atom_site_label
_atom_site_type_symbol
_atom_site_fract_x
_atom_site_fract_y
_atom_site_fract_z
_atom_type_partial_charge
C0 C 0.22675 0.16291 0.40406 0.0
C1 C 0.22742 0.17893 0.41028 0.0
C2 C 0.2337 0.18249 0.42284 0.0
C3 C 0.23808 0.15424 0.42275 0.0
C4 C 0.23192 0.15074 0.41047 0.0
C5 C 0.23093 0.13253 0.40538 0.0
H6 H 0.23874 0.05226 0.41504 0.0
C7 C 0.24184 0.13852 0.42675 0.0
C8 C 0.23752 0.12568 0.41664 0.0
H9 H 0.22119 0.06947 0.3813 0.0
H10 H 0.22641 0.09897 0.39136 0.0
H11 H 0.27604 0.09569 0.4213 0.0
H12 H 0.21553 0.06431 0.43377 0.0
H13 H 0.23051 0.07645 0.44677 0.0
H14 H 0.23381 0.05821 0.43874 0.0
H15 H 0.26733 0.07566 0.43191 0.0
H16 H 0.27629 0.10033 0.43732 0.0
C17 C 0.24591 0.13842 0.39457 0.0
C18 C 0.20907 0.11803 0.40164 0.0
C19 C 0.26735 0.13957 0.47049 0.0
C20 C 0.27186 0.12683 0.47694 0.0
C21 C 0.26894 0.10969 0.47093 0.0
C22 C 0.26189 0.10544 0.45864 0.0
C23 C 0.25762 0.11841 0.45227 0.0
C24 C 0.26023 0.13507 0.45824 0.0
C25 C 0.25448 0.14692 0.45014 0.0
C26 C 0.24844 0.13487 0.43823 0.0
C27 C 0.25033 0.11821 0.43953 0.0
C28 C 0.27309 0.16724 0.44831 0.0
C29 C 0.23674 0.14746 0.45626 0.0
C30 C 0.23625 0.0625 0.40977 0.0
C31 C 0.22939 0.05844 0.39737 0.0
C32 C 0.22615 0.07208 0.39092 0.0
C33 C 0.22926 0.08925 0.39677 0.0
C34 C 0.23565 0.09287 0.40924 0.0
C35 C 0.23927 0.07973 0.41549 0.0
C36 C 0.24615 0.08611 0.42867 0.0
C37 C 0.24571 0.10507 0.42935 0.0
C38 C 0.2395 0.10889 0.41795 0.0
C39 C 0.26751 0.08954 0.43 0.0
C40 C 0.23087 0.07049 0.43753 0.0
H41 H 0.24365 0.17375 0.43863 0.0
H42 H 0.22227 0.15981 0.39437 0.0
H43 H 0.1986 0.11946 0.40799 0.0
H44 H 0.20515 0.1026 0.4024 0.0
H45 H 0.2058 0.12077 0.39203 0.0
H46 H 0.25946 0.15271 0.39655 0.0
H47 H 0.23934 0.13984 0.38571 0.0
H48 H 0.2514 0.12809 0.39316 0.0
H49 H 0.26916 0.1527 0.47493 0.0
H50 H 0.27246 0.09974 0.47568 0.0
H51 H 0.2601 0.09224 0.45456 0.0
H52 H 0.28644 0.16582 0.44674 0.0
H53 H 0.27601 0.17668 0.45665 0.0
H54 H 0.272 0.17494 0.44007 0.0
H55 H 0.22767 0.13418 0.4619 0.0
H56 H 0.22618 0.1475 0.44935 0.0
H57 H 0.24191 0.16032 0.46254 0.0
H58 H 0.23408 0.19451 0.42796 0.0
C59 C 0.23909 0.1703 0.42908 0.0
C60 C 0.94832 0.15978 0.40175 0.0
C61 C 0.96396 0.17701 0.40687 0.0
C62 C 0.96312 0.18174 0.41941 0.0
C63 C 0.93107 0.15234 0.42152 0.0
C64 C 0.9322 0.14758 0.40926 0.0
C65 C 0.91489 0.12815 0.40549 0.0
H66 H 0.82705 0.04892 0.41985 0.0
C67 C 0.91238 0.1365 0.42674 0.0
C68 C 0.90298 0.12217 0.41742 0.0
H69 H 0.86024 0.06034 0.38571 0.0
H70 H 0.88571 0.09104 0.39408 0.0
H71 H 0.86344 0.06122 0.43749 0.0
H72 H 0.83578 0.09332 0.4245 0.0
H73 H 0.84051 0.09805 0.44053 0.0
H74 H 0.82425 0.07341 0.4352 0.0
H75 H 0.84097 0.05806 0.4442 0.0
H76 H 0.86508 0.07653 0.44986 0.0
C77 C 0.92283 0.11422 0.40209 0.0
C78 C 0.9036 0.13159 0.39479 0.0
C79 C 0.89154 0.14232 0.47077 0.0
C80 C 0.87519 0.12965 0.47807 0.0
C81 C 0.86091 0.11146 0.47304 0.0
C82 C 0.8627 0.10601 0.46091 0.0
C83 C 0.87904 0.1188 0.4537 0.0
C84 C 0.89326 0.13652 0.45868 0.0
C85 C 0.91003 0.14778 0.44976 0.0
C86 C 0.90325 0.13408 0.43855 0.0
C87 C 0.88502 0.1172 0.4409 0.0
C88 C 0.92939 0.15023 0.45564 0.0
C89 C 0.91074 0.16726 0.44684 0.0
C90 C 0.83986 0.0579 0.41418 0.0
C91 C 0.8414 0.05207 0.40202 0.0
C92 C 0.85833 0.0645 0.39499 0.0
C93 C 0.87327 0.08231 0.39992 0.0
C94 C 0.87148 0.08785 0.41207 0.0
C95 C 0.85503 0.07566 0.41901 0.0
C96 C 0.85591 0.08365 0.43188 0.0
C97 C 0.8756 0.10265 0.43151 0.0
C98 C 0.88457 0.1051 0.41985 0.0
C99 C 0.85623 0.06916 0.44143 0.0
C100 C 0.83817 0.08724 0.43323 0.0
H101 H 0.9468 0.174 0.43621 0.0
H102 H 0.94883 0.15573 0.39217 0.0
H103 H 0.90242 0.14481 0.3967 0.0
H104 H 0.88818 0.11956 0.39362 0.0
H105 H 0.91146 0.13383 0.38582 0.0
H106 H 0.93676 0.11813 0.40729 0.0
H107 H 0.92613 0.11484 0.39201 0.0
H108 H 0.9125 0.09891 0.40468 0.0
H109 H 0.90287 0.15628 0.47447 0.0
H110 H 0.84812 0.10155 0.47845 0.0
H111 H 0.85124 0.09204 0.45763 0.0
H112 H 0.92625 0.13788 0.46192 0.0
H113 H 0.93724 0.16391 0.46122 0.0
H114 H 0.93963 0.15004 0.44862 0.0
H115 H 0.89553 0.16474 0.44506 0.0
H116 H 0.91928 0.17437 0.43841 0.0
H117 H 0.91719 0.17766 0.45479 0.0
H118 H 0.97512 0.19499 0.42347 0.0
C119 C 0.94669 0.16956 0.42675 0.0
C120 C 0.95009 0.79563 0.40136 0.0
C121 C 0.96443 0.79158 0.40635 0.0
C122 C 0.96163 0.78395 0.4185 0.0
C123 C 0.9306 0.78406 0.42026 0.0
C124 C 0.93335 0.79173 0.40843 0.0
C125 C 0.91657 0.79492 0.40447 0.0
H126 H 0.82616 0.78441 0.41636 0.0
C127 C 0.91152 0.78133 0.42504 0.0
C128 C 0.90319 0.78763 0.41579 0.0
H129 H 0.86332 0.81115 0.38431 0.0
H130 H 0.8883 0.8051 0.39298 0.0
H131 H 0.83514 0.74916 0.41976 0.0
H132 H 0.86143 0.80673 0.43595 0.0
H133 H 0.86059 0.7911 0.44775 0.0
H134 H 0.83774 0.78728 0.44079 0.0
H135 H 0.82253 0.75607 0.43085 0.0
H136 H 0.83873 0.74715 0.43574 0.0
C137 C 0.90651 0.7821 0.39281 0.0
C138 C 0.92508 0.81707 0.40244 0.0
C139 C 0.88788 0.75299 0.46827 0.0
C140 C 0.87055 0.74814 0.47503 0.0
C141 C 0.85593 0.7513 0.46946 0.0
C142 C 0.85845 0.75908 0.45747 0.0
C143 C 0.8758 0.76384 0.45085 0.0
C144 C 0.89014 0.76072 0.45624 0.0
C145 C 0.90745 0.76634 0.4477 0.0
C146 C 0.90129 0.77367 0.43641 0.0
C147 C 0.88273 0.77216 0.43831 0.0
C148 C 0.90853 0.74771 0.44466 0.0
C149 C 0.92631 0.78286 0.4541 0.0
C150 C 0.83971 0.78922 0.4112 0.0
C151 C 0.84241 0.79814 0.39948 0.0
C152 C 0.86039 0.80383 0.39318 0.0
C153 C 0.87506 0.80046 0.39829 0.0
C154 C 0.87201 0.79146 0.40995 0.0
C155 C 0.85466 0.78624 0.41626 0.0
C156 C 0.85432 0.77768 0.4288 0.0
C157 C 0.87419 0.77837 0.42891 0.0
C158 C 0.88444 0.78627 0.41778 0.0
C159 C 0.83672 0.75643 0.42893 0.0
C160 C 0.85333 0.79121 0.43892 0.0
H161 H 0.94372 0.77439 0.43459 0.0
H162 H 0.95164 0.80138 0.39205 0.0
H163 H 0.93775 0.82587 0.40888 0.0
H164 H 0.91421 0.82181 0.40448 0.0
H165 H 0.93053 0.82127 0.39278 0.0
H166 H 0.90489 0.76739 0.3939 0.0
H167 H 0.91549 0.78879 0.38436 0.0
H168 H 0.89135 0.77944 0.39114 0.0
H169 H 0.89932 0.75055 0.47217 0.0
H170 H 0.84257 0.74797 0.47446 0.0
H171 H 0.84675 0.7611 0.45382 0.0
H172 H 0.89342 0.73462 0.4442 0.0
H173 H 0.91711 0.74503 0.45189 0.0
H174 H 0.91498 0.74822 0.43545 0.0
H175 H 0.92288 0.79316 0.4591 0.0
H176 H 0.93804 0.79199 0.44745 0.0
H177 H 0.93247 0.77686 0.46101 0.0
H178 H 0.97253 0.78101 0.42272 0.0
C179 C 0.94489 0.78019 0.42544 0.0
C180 C 0.15461 0.20625 0.60484 0.0
C181 C 0.1731 0.21053 0.59985 0.0
C182 C 0.17827 0.2193 0.58801 0.0
C183 C 0.14707 0.21918 0.5864 0.0
C184 C 0.14199 0.21081 0.59803 0.0
C185 C 0.12217 0.20781 0.60216 0.0
H186 H 0.04313 0.22024 0.59155 0.0
C187 C 0.13083 0.22227 0.58185 0.0
C188 C 0.11623 0.21576 0.5911 0.0
H189 H 0.05397 0.19317 0.62326 0.0
H190 H 0.08436 0.19842 0.61408 0.0
H191 H 0.08814 0.25504 0.58757 0.0
H192 H 0.05463 0.19739 0.57154 0.0
H193 H 0.06933 0.21296 0.55966 0.0
H194 H 0.05074 0.21698 0.56686 0.0
H195 H 0.06775 0.24814 0.57696 0.0
H196 H 0.09257 0.25676 0.57145 0.0
C197 C 0.12558 0.2202 0.61409 0.0
C198 C 0.1079 0.18563 0.60384 0.0
C199 C 0.13505 0.2507 0.53875 0.0
C200 C 0.1225 0.25547 0.532 0.0
C201 C 0.10482 0.25241 0.53762 0.0
C202 C 0.09972 0.24475 0.54966 0.0
C203 C 0.11238 0.24001 0.55626 0.0
C204 C 0.12974 0.24306 0.5508 0.0
C205 C 0.14153 0.23745 0.55926 0.0
C206 C 0.12818 0.23012 0.57058 0.0
C207 C 0.11113 0.2317 0.56879 0.0
C208 C 0.16161 0.25606 0.56227 0.0
C209 C 0.14344 0.22092 0.5528 0.0
C210 C 0.05186 0.21524 0.59652 0.0
C211 C 0.04599 0.20648 0.60832 0.0
C212 C 0.05817 0.20042 0.61436 0.0
C213 C 0.07584 0.20335 0.60896 0.0
C214 C 0.08155 0.21232 0.59728 0.0
C215 C 0.06947 0.21784 0.59119 0.0
C216 C 0.07745 0.22636 0.57859 0.0
C217 C 0.09652 0.22547 0.57827 0.0
C218 C 0.09894 0.21735 0.58929 0.0
C219 C 0.08163 0.24767 0.57851 0.0
C220 C 0.0623 0.21291 0.56857 0.0
H221 H 0.17032 0.2302 0.57236 0.0
H222 H 0.14991 0.19938 0.61382 0.0
H223 H 0.11096 0.17702 0.59688 0.0
H224 H 0.09219 0.18132 0.60226 0.0
H225 H 0.10958 0.18083 0.61324 0.0
H226 H 0.13942 0.23459 0.61336 0.0
H227 H 0.12707 0.21274 0.62241 0.0
H228 H 0.11372 0.22371 0.61574 0.0
H229 H 0.14889 0.25312 0.53484 0.0
H230 H 0.09474 0.25572 0.53264 0.0
H231 H 0.08606 0.24279 0.55337 0.0
H232 H 0.16011 0.26933 0.5622 0.0
H233 H 0.17307 0.25822 0.55535 0.0
H234 H 0.16722 0.25588 0.57171 0.0
H235 H 0.1292 0.21028 0.54821 0.0
H236 H 0.14679 0.21224 0.55935 0.0
H237 H 0.15506 0.22688 0.54553 0.0
H238 H 0.1925 0.22325 0.58397 0.0
C239 C 0.1654 0.22354 0.58128 0.0
C240 C 0.78452 0.84273 0.60302 0.0
C241 C 0.78113 0.82515 0.59751 0.0
C242 C 0.77273 0.82024 0.58545 0.0
C243 C 0.77152 0.85025 0.58459 0.0
C244 C 0.77966 0.85499 0.59643 0.0
C245 C 0.78248 0.87424 0.60094 0.0
H246 H 0.77558 0.9548 0.59007 0.0
C247 C 0.76847 0.86627 0.58027 0.0
C248 C 0.7749 0.88038 0.58981 0.0
H249 H 0.7966 0.94017 0.6234 0.0
H250 H 0.79048 0.90996 0.61392 0.0
H251 H 0.79687 0.94127 0.57093 0.0
H252 H 0.73771 0.91136 0.58563 0.0
H253 H 0.7359 0.90621 0.5696 0.0
H254 H 0.74595 0.9311 0.57483 0.0
H255 H 0.77804 0.94647 0.56576 0.0
H256 H 0.78107 0.92741 0.55864 0.0
C257 C 0.80495 0.88818 0.60329 0.0
C258 C 0.76929 0.87044 0.61254 0.0
C259 C 0.73889 0.8626 0.53738 0.0
C260 C 0.73473 0.87544 0.53073 0.0
C261 C 0.73935 0.89346 0.53626 0.0
C262 C 0.74768 0.89848 0.54822 0.0
C263 C 0.75155 0.88541 0.55478 0.0
C264 C 0.74731 0.86788 0.54931 0.0
C265 C 0.75283 0.85601 0.55758 0.0
C266 C 0.76088 0.86923 0.56895 0.0
C267 C 0.75999 0.88637 0.56727 0.0
C268 C 0.7691 0.85351 0.55097 0.0
C269 C 0.7337 0.8366 0.56053 0.0
C270 C 0.77869 0.945 0.59537 0.0
C271 C 0.78662 0.94992 0.6075 0.0
C272 C 0.79073 0.93687 0.61399 0.0
C273 C 0.78706 0.91926 0.60849 0.0
C274 C 0.77918 0.91459 0.59635 0.0
C275 C 0.77508 0.92735 0.59002 0.0
C276 C 0.76671 0.91994 0.57722 0.0
C277 C 0.76644 0.90063 0.57692 0.0
C278 C 0.77379 0.8976 0.58813 0.0
C279 C 0.78125 0.9345 0.56756 0.0
C280 C 0.7455 0.91707 0.57666 0.0
H281 H 0.76162 0.82813 0.56983 0.0
H282 H 0.79067 0.84682 0.61234 0.0
H283 H 0.7553 0.85615 0.61172 0.0
H284 H 0.76439 0.88126 0.6137 0.0
H285 H 0.77706 0.87013 0.62115 0.0
H286 H 0.81396 0.88575 0.59626 0.0
H287 H 0.80951 0.88578 0.61263 0.0
H288 H 0.8094 0.90374 0.60241 0.0
H289 H 0.7354 0.84857 0.53348 0.0
H290 H 0.73668 0.90382 0.53128 0.0
H291 H 0.75081 0.91238 0.55189 0.0
H292 H 0.77887 0.86657 0.54533 0.0
H293 H 0.76244 0.84066 0.54459 0.0
H294 H 0.77929 0.85214 0.55754 0.0
H295 H 0.72096 0.83909 0.56191 0.0
H296 H 0.7348 0.82987 0.56924 0.0
H297 H 0.72973 0.82589 0.55278 0.0
H298 H 0.77013 0.80687 0.58094 0.0
C299 C 0.76791 0.83267 0.57898 0.0
C300 C 0.05242 0.83785 0.60605 0.0
C301 C 0.03654 0.8211 0.6006 0.0
C302 C 0.03754 0.81699 0.58794 0.0
C303 C 0.07008 0.84593 0.58643 0.0
C304 C 0.06886 0.85012 0.59879 0.0
C305 C 0.08655 0.86903 0.60298 0.0
H306 H 0.17468 0.94879 0.58952 0.0
C307 C 0.08912 0.86165 0.58153 0.0
C308 C 0.09873 0.87533 0.59117 0.0
H309 H 0.14268 0.93495 0.6242 0.0
H310 H 0.11684 0.90475 0.61534 0.0
H311 H 0.16709 0.90513 0.58443 0.0
H312 H 0.13746 0.9356 0.57182 0.0
H313 H 0.13851 0.92219 0.55907 0.0
H314 H 0.16126 0.94095 0.56608 0.0
H315 H 0.17762 0.92408 0.57304 0.0
H316 H 0.16101 0.89896 0.56868 0.0
C317 C 0.09723 0.86449 0.61354 0.0
C318 C 0.07923 0.88331 0.60675 0.0
C319 C 0.10981 0.85738 0.53724 0.0
C320 C 0.12667 0.86973 0.5302 0.0
C321 C 0.14152 0.88731 0.53565 0.0
C322 C 0.13973 0.89244 0.54787 0.0
C323 C 0.12289 0.87992 0.55481 0.0
C324 C 0.10822 0.86277 0.54946 0.0
C325 C 0.09123 0.85146 0.5582 0.0
C326 C 0.09833 0.86446 0.56974 0.0
C327 C 0.1169 0.88109 0.56768 0.0
C328 C 0.08965 0.83143 0.56053 0.0
C329 C 0.07228 0.85017 0.55247 0.0
C330 C 0.16221 0.93917 0.59525 0.0
C331 C 0.16074 0.94436 0.60758 0.0
C332 C 0.14408 0.93148 0.61464 0.0
C333 C 0.1291 0.91388 0.60948 0.0
C334 C 0.13068 0.90903 0.5971 0.0
C335 C 0.14708 0.92155 0.59023 0.0
C336 C 0.14622 0.91405 0.57721 0.0
C337 C 0.12648 0.89509 0.57736 0.0
C338 C 0.11747 0.8922 0.58904 0.0
C339 C 0.16393 0.91044 0.57562 0.0
C340 C 0.14598 0.92894 0.56798 0.0
H341 H 0.05421 0.82526 0.57128 0.0
H342 H 0.05188 0.84151 0.61572 0.0
H343 H 0.06608 0.88067 0.6011 0.0
H344 H 0.09034 0.89874 0.60503 0.0
H345 H 0.07486 0.88159 0.61669 0.0
H346 H 0.09737 0.85075 0.61149 0.0
H347 H 0.08961 0.86262 0.62256 0.0
H348 H 0.11298 0.87578 0.61465 0.0
H349 H 0.09802 0.8439 0.53329 0.0
H350 H 0.15475 0.89697 0.53051 0.0
H351 H 0.15161 0.90596 0.55146 0.0
H352 H 0.10464 0.83319 0.56193 0.0
H353 H 0.08256 0.82141 0.55247 0.0
H354 H 0.08133 0.82422 0.569 0.0
H355 H 0.07599 0.86314 0.54665 0.0
H356 H 0.06209 0.85018 0.5596 0.0
H357 H 0.06418 0.837 0.54645 0.0
H358 H 0.02547 0.80412 0.58357 0.0
C359 C 0.05425 0.82925 0.58084 0.0
C360 C 0.90104 0.50001 0.73549 0.0
C361 C 0.90424 0.51743 0.74115 0.0
C362 C 0.912 0.52187 0.75338 0.0
C363 C 0.91264 0.49155 0.75418 0.0
C364 C 0.90531 0.48737 0.74214 0.0
C365 C 0.90226 0.46808 0.73754 0.0
H366 H 0.90531 0.38553 0.74853 0.0
C367 C 0.91488 0.47506 0.75856 0.0
C368 C 0.90883 0.46129 0.74884 0.0
H369 H 0.88713 0.40208 0.71479 0.0
H370 H 0.89402 0.43249 0.72435 0.0
H371 H 0.94386 0.42802 0.75392 0.0
H372 H 0.88379 0.39975 0.76709 0.0
H373 H 0.89911 0.41257 0.77981 0.0
H374 H 0.90152 0.39323 0.77255 0.0
H375 H 0.93442 0.40826 0.76477 0.0
H376 H 0.94493 0.43327 0.7699 0.0
C377 C 0.91611 0.47196 0.72629 0.0
C378 C 0.87987 0.45463 0.73462 0.0
C379 C 0.93972 0.47569 0.80252 0.0
C380 C 0.94296 0.46228 0.80923 0.0
C381 C 0.93888 0.44462 0.80339 0.0
C382 C 0.93185 0.44045 0.7911 0.0
C383 C 0.92877 0.45403 0.78452 0.0
C384 C 0.93264 0.47128 0.79024 0.0
C385 C 0.9283 0.48387 0.78183 0.0
C386 C 0.92129 0.47135 0.7701 0.0
C387 C 0.92161 0.4539 0.77175 0.0
C388 C 0.94791 0.50327 0.77973 0.0
C389 C 0.91157 0.48631 0.78779 0.0
C390 C 0.90303 0.39581 0.74315 0.0
C391 C 0.89565 0.39138 0.73089 0.0
C392 C 0.89259 0.40503 0.7243 0.0
C393 C 0.89669 0.42274 0.72985 0.0
C394 C 0.9039 0.42688 0.74215 0.0
C395 C 0.90702 0.41355 0.74858 0.0
C396 C 0.91462 0.42037 0.76159 0.0
C397 C 0.91558 0.44001 0.7619 0.0
C398 C 0.90927 0.44372 0.75051 0.0
C399 C 0.93549 0.42251 0.76274 0.0
C400 C 0.89913 0.40575 0.77082 0.0
H401 H 0.92204 0.51323 0.76919 0.0
H402 H 0.89483 0.496 0.72619 0.0
H403 H 0.87059 0.45731 0.74131 0.0
H404 H 0.87492 0.43897 0.73556 0.0
H405 H 0.87609 0.45729 0.72511 0.0
H406 H 0.93033 0.48593 0.72754 0.0
H407 H 0.9091 0.47297 0.71751 0.0
H408 H 0.92056 0.46078 0.72516 0.0
H409 H 0.94287 0.48947 0.80667 0.0
H410 H 0.94091 0.43388 0.80838 0.0
H411 H 0.92902 0.42677 0.78722 0.0
H412 H 0.96069 0.50068 0.77916 0.0
H413 H 0.95096 0.51374 0.7875 0.0
H414 H 0.94805 0.51031 0.77086 0.0
H415 H 0.90067 0.47269 0.79256 0.0
H416 H 0.9027 0.48906 0.7809 0.0
H417 H 0.91767 0.49828 0.79483 0.0
H418 H 0.91482 0.5353 0.7579 0.0
C419 C 0.91624 0.50906 0.75991 0.0
C420 C 0.61389 0.49115 0.73498 0.0
C421 C 0.6294 0.50841 0.74024 0.0
C422 C 0.62816 0.51284 0.75281 0.0
C423 C 0.59621 0.48323 0.75459 0.0
C424 C 0.59759 0.47878 0.74231 0.0
C425 C 0.58018 0.45957 0.73825 0.0
H426 H 0.49188 0.38018 0.75188 0.0
C427 C 0.57741 0.46729 0.7596 0.0
C428 C 0.56803 0.4533 0.75008 0.0
H429 H 0.52467 0.39267 0.71752 0.0
H430 H 0.55036 0.42308 0.72618 0.0
H431 H 0.52806 0.39155 0.76922 0.0
H432 H 0.50077 0.42448 0.75727 0.0
H433 H 0.50556 0.42861 0.77334 0.0
H434 H 0.4892 0.40419 0.76768 0.0
H435 H 0.50584 0.38849 0.77625 0.0
H436 H 0.53014 0.40658 0.78186 0.0
C437 C 0.58794 0.44557 0.73469 0.0
C438 C 0.56924 0.46355 0.72759 0.0
C439 C 0.55675 0.47132 0.80398 0.0
C440 C 0.54043 0.45836 0.81118 0.0
C441 C 0.52605 0.44043 0.8059 0.0
C442 C 0.52775 0.43551 0.79362 0.0
C443 C 0.54408 0.44858 0.7865 0.0
C444 C 0.55837 0.46606 0.79172 0.0
C445 C 0.57509 0.47769 0.78286 0.0
C446 C 0.56825 0.46446 0.77142 0.0
C447 C 0.55 0.44753 0.7736 0.0
C448 C 0.59446 0.47985 0.78854 0.0
C449 C 0.57579 0.49729 0.7804 0.0
C450 C 0.50463 0.38933 0.74621 0.0
C451 C 0.50607 0.38388 0.73394 0.0
C452 C 0.5229 0.39654 0.72691 0.0
C453 C 0.53795 0.41418 0.732 0.0
C454 C 0.53631 0.41929 0.74431 0.0
C455 C 0.51986 0.4069 0.75119 0.0
C456 C 0.52082 0.41441 0.7642 0.0
C457 C 0.54054 0.43337 0.764 0.0
C458 C 0.54951 0.43622 0.75231 0.0
C459 C 0.5211 0.39953 0.77344 0.0
C460 C 0.50314 0.41805 0.76584 0.0
H461 H 0.6115 0.50466 0.76946 0.0
H462 H 0.61456 0.48721 0.7254 0.0
H463 H 0.56858 0.47704 0.72953 0.0
H464 H 0.55365 0.45189 0.72643 0.0
H465 H 0.57702 0.46557 0.71861 0.0
H466 H 0.60117 0.4486 0.7404 0.0
H467 H 0.59234 0.44718 0.72476 0.0
H468 H 0.57706 0.4301 0.73651 0.0
H469 H 0.56813 0.4851 0.80786 0.0
H470 H 0.51327 0.43031 0.81124 0.0
H471 H 0.51621 0.42172 0.79014 0.0
H472 H 0.59133 0.46707 0.79439 0.0
H473 H 0.60216 0.49311 0.79452 0.0
H474 H 0.60483 0.48027 0.78139 0.0
H475 H 0.56055 0.49491 0.77908 0.0
H476 H 0.58382 0.50449 0.77185 0.0
H477 H 0.58274 0.50754 0.78837 0.0
H478 H 0.63987 0.52612 0.75703 0.0
C479 C 0.61164 0.5004 0.75999 0.0
C480 C 0.61515 0.12746 0.73538 0.0
C481 C 0.63081 0.12587 0.74087 0.0
C482 C 0.6293 0.12089 0.7536 0.0
C483 C 0.59696 0.11839 0.75486 0.0
C484 C 0.59858 0.12385 0.74253 0.0
C485 C 0.58103 0.12558 0.73825 0.0
H486 H 0.49082 0.11555 0.7504 0.0
C487 C 0.57774 0.1153 0.75959 0.0
C488 C 0.56839 0.11965 0.74991 0.0
H489 H 0.52543 0.13739 0.71694 0.0
H490 H 0.55139 0.13295 0.72601 0.0
H491 H 0.50004 0.08048 0.75507 0.0
H492 H 0.52725 0.13937 0.76924 0.0
H493 H 0.52546 0.12428 0.78168 0.0
H494 H 0.50315 0.12062 0.77405 0.0
H495 H 0.48826 0.08791 0.76644 0.0
H496 H 0.50534 0.07979 0.7709 0.0
C497 C 0.57064 0.11089 0.72743 0.0
C498 C 0.58855 0.14716 0.73479 0.0
C499 C 0.556 0.09026 0.80369 0.0
C500 C 0.5386 0.08509 0.81048 0.0
C501 C 0.52333 0.08697 0.80465 0.0
C502 C 0.52533 0.09388 0.79244 0.0
C503 C 0.54276 0.09897 0.78581 0.0
C504 C 0.55771 0.09706 0.79143 0.0
C505 C 0.57505 0.10286 0.78288 0.0
C506 C 0.56805 0.10861 0.77123 0.0
C507 C 0.54913 0.10635 0.77302 0.0
C508 C 0.57724 0.08468 0.78062 0.0
C509 C 0.59356 0.1205 0.78882 0.0
C510 C 0.50394 0.11924 0.745 0.0
C511 C 0.50604 0.1268 0.73292 0.0
C512 C 0.52351 0.13171 0.7263 0.0
C513 C 0.53856 0.12907 0.73157 0.0
C514 C 0.53629 0.12159 0.74367 0.0
C515 C 0.51923 0.11693 0.7502 0.0
C516 C 0.51964 0.10976 0.7631 0.0
C517 C 0.53977 0.11098 0.76327 0.0
C518 C 0.54939 0.11773 0.75181 0.0
C519 C 0.50239 0.08842 0.76406 0.0
C520 C 0.51869 0.12408 0.77259 0.0
H521 H 0.6124 0.1133 0.77013 0.0
H522 H 0.61556 0.13122 0.72567 0.0
H523 H 0.60195 0.15728 0.74035 0.0
H524 H 0.57764 0.15183 0.7369 0.0
H525 H 0.59258 0.14981 0.72481 0.0
H526 H 0.56948 0.0966 0.72958 0.0
H527 H 0.57913 0.11632 0.71867 0.0
H528 H 0.55529 0.10764 0.72573 0.0
H529 H 0.56815 0.08922 0.80782 0.0
H530 H 0.50959 0.08277 0.80945 0.0
H531 H 0.51312 0.09489 0.7886 0.0
H532 H 0.56243 0.07135 0.77945 0.0
H533 H 0.58484 0.08224 0.78861 0.0
H534 H 0.58532 0.08555 0.77203 0.0
H535 H 0.58936 0.12995 0.79417 0.0
H536 H 0.6042 0.13027 0.78182 0.0
H537 H 0.60131 0.1156 0.79532 0.0
H538 H 0.64121 0.12012 0.75831 0.0
C539 C 0.61254 0.11707 0.76055 0.0
C540 C 0.82038 0.53891 0.93832 0.0
C541 C 0.8376 0.54079 0.93268 0.0
C542 C 0.84094 0.54617 0.92003 0.0
C543 C 0.81093 0.54837 0.91908 0.0
C544 C 0.80728 0.54263 0.93136 0.0
C545 C 0.78811 0.54086 0.93584 0.0
H546 H 0.70747 0.55054 0.92445 0.0
C547 C 0.79469 0.55148 0.91456 0.0
C548 C 0.78117 0.54697 0.92433 0.0
H549 H 0.72149 0.52957 0.9579 0.0
H550 H 0.75156 0.53388 0.94853 0.0
H551 H 0.75172 0.58577 0.91968 0.0
H552 H 0.71969 0.52694 0.90533 0.0
H553 H 0.73255 0.54237 0.89288 0.0
H554 H 0.71392 0.54541 0.90086 0.0
H555 H 0.73238 0.57828 0.9082 0.0
H556 H 0.75777 0.58671 0.90389 0.0
C557 C 0.79297 0.5554 0.94678 0.0
C558 C 0.7738 0.51924 0.9392 0.0
C559 C 0.79715 0.57687 0.87069 0.0
C560 C 0.78491 0.58224 0.86413 0.0
C561 C 0.76782 0.58021 0.87002 0.0
C562 C 0.76303 0.57304 0.88218 0.0
C563 C 0.77546 0.56787 0.88864 0.0
C564 C 0.79223 0.56987 0.8829 0.0
C565 C 0.80396 0.5641 0.8913 0.0
C566 C 0.79143 0.55822 0.90301 0.0
C567 C 0.7747 0.56038 0.90138 0.0
C568 C 0.82465 0.58233 0.89353 0.0
C569 C 0.80449 0.54656 0.88523 0.0
C570 C 0.71708 0.54699 0.92979 0.0
C571 C 0.71201 0.53968 0.94196 0.0
C572 C 0.72486 0.535 0.94848 0.0
C573 C 0.74239 0.53759 0.94303 0.0
C574 C 0.7472 0.54487 0.93086 0.0
C575 C 0.73458 0.54936 0.92445 0.0
C576 C 0.74189 0.55662 0.91154 0.0
C577 C 0.76089 0.55561 0.91122 0.0
C578 C 0.76403 0.54884 0.9226 0.0
C579 C 0.74607 0.5779 0.91065 0.0
C580 C 0.72624 0.54226 0.90208 0.0
H581 H 0.83135 0.55409 0.90371 0.0
H582 H 0.8172 0.5349 0.948 0.0
H583 H 0.77635 0.50921 0.93319 0.0
H584 H 0.75805 0.51478 0.93762 0.0
H585 H 0.77591 0.51629 0.94902 0.0
H586 H 0.80649 0.56959 0.94476 0.0
H587 H 0.79578 0.54966 0.9555 0.0
H588 H 0.78117 0.55898 0.94848 0.0
H589 H 0.81052 0.57847 0.86651 0.0
H590 H 0.75801 0.58403 0.86517 0.0
H591 H 0.7498 0.57184 0.88609 0.0
H592 H 0.82339 0.59569 0.89453 0.0
H593 H 0.83468 0.58463 0.8856 0.0
H594 H 0.83188 0.58164 0.90221 0.0
H595 H 0.79047 0.53699 0.88004 0.0
H596 H 0.80567 0.53686 0.89213 0.0
H597 H 0.8169 0.55155 0.87854 0.0
H598 H 0.85365 0.54724 0.91524 0.0
C599 C 0.82782 0.55001 0.91326 0.0
C600 C 0.45244 0.17687 0.9354 0.0
C601 C 0.44867 0.15904 0.93009 0.0
C602 C 0.43939 0.15352 0.9183 0.0
C603 C 0.43786 0.18336 0.91733 0.0
C604 C 0.44688 0.18871 0.92891 0.0
C605 C 0.44945 0.20791 0.93335 0.0
H606 H 0.43945 0.28677 0.92243 0.0
C607 C 0.43393 0.19887 0.91311 0.0
C608 C 0.44063 0.21327 0.92248 0.0
H609 H 0.46301 0.27406 0.9554 0.0
H610 H 0.45695 0.24372 0.94619 0.0
H611 H 0.45967 0.27208 0.90257 0.0
H612 H 0.40211 0.2439 0.91954 0.0
H613 H 0.3985 0.23604 0.90397 0.0
H614 H 0.40859 0.26164 0.90749 0.0
H615 H 0.44083 0.27799 0.89869 0.0
H616 H 0.44227 0.25851 0.89087 0.0
C617 C 0.47195 0.2224 0.93498 0.0
C618 C 0.43718 0.20425 0.94537 0.0
C619 C 0.40205 0.19332 0.87076 0.0
C620 C 0.3966 0.20542 0.86435 0.0
C621 C 0.40013 0.22301 0.87 0.0
C622 C 0.40894 0.22847 0.88183 0.0
C623 C 0.41429 0.21624 0.88812 0.0
C624 C 0.4108 0.19898 0.88259 0.0
C625 C 0.41732 0.18774 0.89071 0.0
C626 C 0.42535 0.20115 0.90201 0.0
C627 C 0.42357 0.21781 0.90041 0.0
C628 C 0.43383 0.18603 0.88381 0.0
C629 C 0.3988 0.16792 0.89388 0.0
C630 C 0.44315 0.2774 0.92773 0.0
C631 C 0.45184 0.28296 0.93965 0.0
C632 C 0.45663 0.27035 0.94612 0.0
C633 C 0.45298 0.25264 0.94079 0.0
C634 C 0.44438 0.24736 0.92885 0.0
C635 C 0.43951 0.25961 0.92257 0.0
C636 C 0.43017 0.25149 0.91007 0.0
C637 C 0.43034 0.23238 0.90986 0.0
C638 C 0.43875 0.23009 0.92086 0.0
C639 C 0.44376 0.26571 0.89995 0.0
C640 C 0.40877 0.24816 0.91014 0.0
H641 H 0.42703 0.16058 0.90295 0.0
H642 H 0.45927 0.18137 0.94453 0.0
H643 H 0.42358 0.18958 0.94514 0.0
H644 H 0.43162 0.21456 0.94656 0.0
H645 H 0.44593 0.20495 0.95375 0.0
H646 H 0.4805 0.2204 0.92741 0.0
H647 H 0.47755 0.2201 0.94397 0.0
H648 H 0.4758 0.23782 0.93439 0.0
H649 H 0.39932 0.1796 0.86674 0.0
H650 H 0.3963 0.2327 0.8652 0.0
H651 H 0.41128 0.24206 0.88559 0.0
H652 H 0.44364 0.19967 0.87868 0.0
H653 H 0.42739 0.17383 0.87694 0.0
H654 H 0.44387 0.18404 0.89016 0.0
H655 H 0.38539 0.16946 0.89474 0.0
H656 H 0.40011 0.16215 0.90296 0.0
H657 H 0.3957 0.15683 0.88652 0.0
H658 H 0.43646 0.13992 0.91398 0.0
C659 C 0.434 0.16558 0.91189 0.0
C660 C 0.71981 0.17104 0.93872 0.0
C661 C 0.70547 0.15289 0.93371 0.0
C662 C 0.70815 0.14786 0.92154 0.0
C663 C 0.73898 0.17862 0.9197 0.0
C664 C 0.73632 0.18359 0.9316 0.0
C665 C 0.75287 0.20335 0.9356 0.0
H666 H 0.84093 0.28378 0.9232 0.0
C667 C 0.75775 0.19488 0.91486 0.0
C668 C 0.76593 0.20942 0.92416 0.0
H669 H 0.80521 0.27163 0.95625 0.0
H670 H 0.78067 0.24076 0.94747 0.0
H671 H 0.83411 0.24048 0.91927 0.0
H672 H 0.80521 0.27025 0.90431 0.0
H673 H 0.80563 0.25548 0.89223 0.0
H674 H 0.82874 0.27462 0.89868 0.0
H675 H 0.84556 0.25985 0.90819 0.0
H676 H 0.83014 0.2348 0.90331 0.0
C677 C 0.76338 0.2006 0.94705 0.0
C678 C 0.74397 0.21678 0.93797 0.0
C679 C 0.78165 0.1906 0.87144 0.0
C680 C 0.7986 0.20343 0.86461 0.0
C681 C 0.81244 0.2215 0.87006 0.0
C682 C 0.80967 0.22661 0.88206 0.0
C683 C 0.79281 0.21361 0.88879 0.0
C684 C 0.77908 0.19598 0.88347 0.0
C685 C 0.76202 0.18412 0.89207 0.0
C686 C 0.76779 0.19759 0.90337 0.0
C687 C 0.78588 0.21481 0.90138 0.0
C688 C 0.76194 0.16494 0.89505 0.0
C689 C 0.74273 0.18114 0.88578 0.0
C690 C 0.82775 0.2746 0.92853 0.0
C691 C 0.82518 0.28026 0.94051 0.0
C692 C 0.80784 0.26759 0.94712 0.0
C693 C 0.79348 0.24968 0.94195 0.0
C694 C 0.79634 0.24426 0.93 0.0
C695 C 0.8132 0.25672 0.92347 0.0
C696 C 0.81356 0.2488 0.91079 0.0
C697 C 0.7942 0.22945 0.91081 0.0
C698 C 0.78423 0.22682 0.9221 0.0
C699 C 0.83182 0.24589 0.91022 0.0
C700 C 0.81342 0.26298 0.90092 0.0
H701 H 0.72591 0.15589 0.90534 0.0
H702 H 0.71839 0.17533 0.94808 0.0
H703 H 0.73126 0.21303 0.93157 0.0
H704 H 0.75459 0.23231 0.93613 0.0
H705 H 0.73847 0.2153 0.94764 0.0
H706 H 0.76447 0.18717 0.946 0.0
H707 H 0.75504 0.19916 0.95572 0.0
H708 H 0.77882 0.21255 0.9483 0.0
H709 H 0.77077 0.17656 0.8676 0.0
H710 H 0.82541 0.23186 0.86497 0.0
H711 H 0.8208 0.24055 0.88561 0.0
H712 H 0.77735 0.16764 0.89604 0.0
H713 H 0.75451 0.15395 0.8875 0.0
H714 H 0.75477 0.15849 0.90398 0.0
H715 H 0.74557 0.1944 0.88056 0.0
H716 H 0.73109 0.17876 0.89252 0.0
H717 H 0.73672 0.16872 0.87907 0.0
H718 H 0.69725 0.13412 0.91735 0.0
C719 C 0.72478 0.16059 0.91453 0.0
C720 C 0.56316 0.831 0.06948 0.0
C721 C 0.56679 0.84864 0.07502 0.0
C722 C 0.57466 0.8531 0.08723 0.0
C723 C 0.57454 0.82241 0.08821 0.0
C724 C 0.56715 0.81822 0.07618 0.0
C725 C 0.56389 0.79885 0.07161 0.0
H726 H 0.56562 0.7157 0.0827 0.0
C727 C 0.57646 0.80575 0.09265 0.0
C728 C 0.57028 0.79194 0.08293 0.0
H729 H 0.54899 0.73307 0.04867 0.0
H730 H 0.55574 0.76337 0.05832 0.0
H731 H 0.60432 0.75772 0.0883 0.0
H732 H 0.54407 0.73013 0.10105 0.0
H733 H 0.55917 0.74289 0.11386 0.0
H734 H 0.56151 0.7234 0.10677 0.0
H735 H 0.59445 0.73796 0.09914 0.0
H736 H 0.60525 0.76301 0.10426 0.0
C737 C 0.57774 0.80254 0.06038 0.0
C738 C 0.54148 0.7856 0.06867 0.0
C739 C 0.60068 0.80576 0.13675 0.0
C740 C 0.60351 0.79207 0.14346 0.0
C741 C 0.59903 0.77431 0.13762 0.0
C742 C 0.59207 0.7703 0.12532 0.0
C743 C 0.58946 0.78414 0.11872 0.0
C744 C 0.59365 0.80149 0.12445 0.0
C745 C 0.58974 0.81434 0.11599 0.0
C746 C 0.58262 0.80186 0.10424 0.0
C747 C 0.58252 0.78422 0.10592 0.0
C748 C 0.60957 0.83353 0.11396 0.0
C749 C 0.57321 0.81718 0.12187 0.0
C750 C 0.56363 0.72611 0.07728 0.0
C751 C 0.5567 0.72192 0.0649 0.0
C752 C 0.55403 0.73579 0.05827 0.0
C753 C 0.55809 0.75345 0.06387 0.0
C754 C 0.56492 0.75737 0.07626 0.0
C755 C 0.56766 0.74384 0.08273 0.0
C756 C 0.5751 0.75052 0.09578 0.0
C757 C 0.5764 0.77032 0.09607 0.0
C758 C 0.57038 0.77421 0.08463 0.0
C759 C 0.5958 0.75232 0.09707 0.0
C760 C 0.55932 0.73601 0.10492 0.0
H761 H 0.58446 0.84432 0.1031 0.0
H762 H 0.55687 0.82693 0.06019 0.0
H763 H 0.5323 0.7881 0.07553 0.0
H764 H 0.53645 0.76988 0.06931 0.0
H765 H 0.5377 0.78865 0.05927 0.0
H766 H 0.59182 0.8167 0.06143 0.0
H767 H 0.57057 0.80304 0.05153 0.0
H768 H 0.58248 0.79155 0.05951 0.0
H769 H 0.60413 0.81962 0.14091 0.0
H770 H 0.60071 0.76335 0.14261 0.0
H771 H 0.58895 0.75652 0.12144 0.0
H772 H 0.62217 0.83066 0.11346 0.0
H773 H 0.61272 0.84405 0.12172 0.0
H774 H 0.60995 0.84064 0.10507 0.0
H775 H 0.56187 0.80351 0.12638 0.0
H776 H 0.56485 0.82057 0.11497 0.0
H777 H 0.5794 0.82886 0.1291 0.0
H778 H 0.57787 0.86671 0.09168 0.0
C779 C 0.57855 0.84011 0.09384 0.0
C780 C 0.27876 0.82749 0.06763 0.0
C781 C 0.29432 0.84457 0.07302 0.0
C782 C 0.29274 0.84909 0.08552 0.0
C783 C 0.26055 0.81974 0.08705 0.0
C784 C 0.26217 0.81526 0.07481 0.0
C785 C 0.24474 0.79612 0.07068 0.0
H786 H 0.15721 0.71565 0.0843 0.0
C787 C 0.24162 0.80386 0.09195 0.0
C788 C 0.23236 0.7899 0.08242 0.0
H789 H 0.18913 0.72964 0.04957 0.0
H790 H 0.21472 0.76006 0.05836 0.0
H791 H 0.19441 0.72935 0.10188 0.0
H792 H 0.16411 0.75916 0.08927 0.0
H793 H 0.16982 0.76503 0.10509 0.0
H794 H 0.1537 0.73993 0.10049 0.0
H795 H 0.17079 0.72405 0.10793 0.0
H796 H 0.19377 0.74309 0.11456 0.0
C797 C 0.25247 0.78203 0.06726 0.0
C798 C 0.23407 0.80019 0.05988 0.0
C799 C 0.2208 0.80775 0.1363 0.0
C800 C 0.20428 0.79497 0.14344 0.0
C801 C 0.18972 0.7772 0.13805 0.0
C802 C 0.19149 0.77224 0.12578 0.0
C803 C 0.20805 0.78513 0.11875 0.0
C804 C 0.22242 0.8025 0.12404 0.0
C805 C 0.23921 0.81411 0.11523 0.0
C806 C 0.23236 0.80099 0.10374 0.0
C807 C 0.21407 0.78407 0.10587 0.0
C808 C 0.25848 0.81607 0.12093 0.0
C809 C 0.24008 0.83381 0.11283 0.0
C810 C 0.1696 0.72535 0.07853 0.0
C811 C 0.17112 0.72015 0.06622 0.0
C812 C 0.18769 0.73313 0.05914 0.0
C813 C 0.20252 0.75086 0.06424 0.0
C814 C 0.20086 0.75575 0.0766 0.0
C815 C 0.18456 0.7431 0.0835 0.0
C816 C 0.18529 0.75066 0.09648 0.0
C817 C 0.20477 0.76987 0.09626 0.0
C818 C 0.21383 0.77279 0.08459 0.0
C819 C 0.18596 0.73606 0.10578 0.0
C820 C 0.16727 0.75378 0.09805 0.0
H821 H 0.27562 0.84113 0.10197 0.0
H822 H 0.27968 0.82349 0.0581 0.0
H823 H 0.23399 0.81404 0.06156 0.0
H824 H 0.21829 0.7889 0.0589 0.0
H825 H 0.24165 0.80158 0.0509 0.0
H826 H 0.26518 0.78463 0.07335 0.0
H827 H 0.25763 0.78406 0.05748 0.0
H828 H 0.24131 0.76653 0.06867 0.0
H829 H 0.23235 0.8214 0.14021 0.0
H830 H 0.17675 0.76721 0.14329 0.0
H831 H 0.17985 0.75854 0.12225 0.0
H832 H 0.25522 0.80315 0.12667 0.0
H833 H 0.26615 0.8292 0.12703 0.0
H834 H 0.26892 0.81661 0.11381 0.0
H835 H 0.22487 0.83159 0.11166 0.0
H836 H 0.24792 0.84091 0.10419 0.0
H837 H 0.24729 0.84409 0.12075 0.0
H838 H 0.30447 0.86225 0.08984 0.0
C839 C 0.27594 0.83683 0.09253 0.0
C840 C 0.28088 0.45978 0.06915 0.0
C841 C 0.29628 0.45771 0.07459 0.0
C842 C 0.2943 0.45182 0.08715 0.0
C843 C 0.26207 0.44961 0.08837 0.0
C844 C 0.26411 0.45581 0.07619 0.0
C845 C 0.24671 0.45776 0.07188 0.0
H846 H 0.1564 0.44775 0.08356 0.0
C847 C 0.24274 0.44642 0.09301 0.0
C848 C 0.23372 0.4513 0.08339 0.0
H849 H 0.19159 0.46995 0.05035 0.0
H850 H 0.21731 0.46529 0.05952 0.0
H851 H 0.16534 0.41233 0.088 0.0
H852 H 0.19238 0.47091 0.10269 0.0
H853 H 0.19068 0.45563 0.11499 0.0
H854 H 0.16831 0.45203 0.10746 0.0
H855 H 0.15327 0.41969 0.0992 0.0
H856 H 0.16999 0.41127 0.1039 0.0
C857 C 0.23664 0.44356 0.06078 0.0
C858 C 0.25436 0.4795 0.06883 0.0
C859 C 0.21974 0.41974 0.13668 0.0
C860 C 0.20223 0.41454 0.14333 0.0
C861 C 0.18735 0.41711 0.13757 0.0
C862 C 0.18974 0.42453 0.12548 0.0
C863 C 0.20721 0.42951 0.11894 0.0
C864 C 0.22186 0.42709 0.12454 0.0
C865 C 0.23934 0.433 0.11609 0.0
C866 C 0.23276 0.43936 0.10453 0.0
C867 C 0.21391 0.43731 0.10626 0.0
C868 C 0.2413 0.41474 0.11354 0.0
C869 C 0.25785 0.45024 0.12232 0.0
C870 C 0.16958 0.45147 0.07823 0.0
C871 C 0.1719 0.45923 0.06618 0.0
C872 C 0.18948 0.46415 0.05967 0.0
C873 C 0.20439 0.46136 0.06501 0.0
C874 C 0.20188 0.45367 0.07706 0.0
C875 C 0.18473 0.44895 0.08349 0.0
C876 C 0.18483 0.4414 0.09631 0.0
C877 C 0.20486 0.4424 0.09655 0.0
C878 C 0.21475 0.44946 0.08521 0.0
C879 C 0.16741 0.4201 0.09703 0.0
C880 C 0.18386 0.45555 0.10595 0.0
H881 H 0.27684 0.44326 0.10347 0.0
H882 H 0.28165 0.46416 0.05955 0.0
H883 H 0.26728 0.48932 0.07484 0.0
H884 H 0.24324 0.48398 0.07068 0.0
H885 H 0.25918 0.48273 0.059 0.0
H886 H 0.2358 0.42932 0.06255 0.0
H887 H 0.24515 0.44959 0.05209 0.0
H888 H 0.22118 0.44002 0.05916 0.0
H889 H 0.23142 0.41781 0.14073 0.0
H890 H 0.17385 0.41355 0.14248 0.0
H891 H 0.17783 0.42611 0.1217 0.0
H892 H 0.22642 0.40155 0.11225 0.0
H893 H 0.24878 0.41195 0.12144 0.0
H894 H 0.24937 0.41579 0.10491 0.0
H895 H 0.25373 0.45976 0.12766 0.0
H896 H 0.26887 0.46004 0.11551 0.0
H897 H 0.26512 0.44492 0.1289 0.0
H898 H 0.30598 0.45055 0.09179 0.0
C899 C 0.27735 0.44772 0.094 0.0
C900 C 0.49052 0.87715 0.27187 0.0
C901 C 0.50822 0.87981 0.26649 0.0
C902 C 0.51201 0.88575 0.25394 0.0
C903 C 0.48142 0.88684 0.2526 0.0
C904 C 0.47736 0.88059 0.26477 0.0
C905 C 0.45769 0.87791 0.26895 0.0
H906 H 0.37571 0.88485 0.25669 0.0
C907 C 0.46488 0.8893 0.24785 0.0
C908 C 0.45082 0.88393 0.25736 0.0
H909 H 0.38964 0.86378 0.29012 0.0
H910 H 0.42028 0.86916 0.28105 0.0
H911 H 0.42057 0.92116 0.25203 0.0
H912 H 0.38885 0.86219 0.2378 0.0
H913 H 0.40255 0.87736 0.22548 0.0
H914 H 0.38347 0.88062 0.23265 0.0
H915 H 0.40011 0.91286 0.24131 0.0
H916 H 0.42509 0.92181 0.23598 0.0
C917 C 0.46158 0.89203 0.28001 0.0
C918 C 0.44388 0.85606 0.27201 0.0
C919 C 0.46848 0.91595 0.20428 0.0
C920 C 0.45569 0.92012 0.19729 0.0
C921 C 0.43764 0.91645 0.20268 0.0
C922 C 0.43252 0.90896 0.21476 0.0
C923 C 0.44553 0.905 0.22163 0.0
C924 C 0.46312 0.90842 0.21633 0.0
C925 C 0.47501 0.9031 0.22492 0.0
C926 C 0.46175 0.8961 0.23629 0.0
C927 C 0.44451 0.89729 0.23434 0.0
C928 C 0.495 0.92187 0.22774 0.0
C929 C 0.47704 0.88645 0.21872 0.0
C930 C 0.38543 0.88152 0.26208 0.0
C931 C 0.3802 0.87389 0.27417 0.0
C932 C 0.39318 0.86948 0.28076 0.0
C933 C 0.41103 0.87269 0.27549 0.0
C934 C 0.41604 0.88031 0.26341 0.0
C935 C 0.40326 0.88447 0.25689 0.0
C936 C 0.41078 0.892 0.24404 0.0
C937 C 0.43019 0.89172 0.24395 0.0
C938 C 0.43328 0.88499 0.25537 0.0
C939 C 0.41425 0.91301 0.24316 0.0
C940 C 0.39566 0.87746 0.23441 0.0
H941 H 0.5027 0.89386 0.23758 0.0
H942 H 0.48699 0.87269 0.28146 0.0
H943 H 0.44726 0.84654 0.26606 0.0
H944 H 0.42808 0.85105 0.2701 0.0
H945 H 0.44565 0.85299 0.28187 0.0
H946 H 0.47489 0.90651 0.27826 0.0
H947 H 0.46429 0.88625 0.28875 0.0
H948 H 0.44935 0.89504 0.28153 0.0
H949 H 0.48233 0.91831 0.2004 0.0
H950 H 0.42758 0.91969 0.19761 0.0
H951 H 0.41865 0.90663 0.21831 0.0
H952 H 0.49271 0.93455 0.22918 0.0
H953 H 0.50547 0.92541 0.2199 0.0
H954 H 0.50224 0.92097 0.23636 0.0
H955 H 0.46392 0.87704 0.21274 0.0
H956 H 0.47758 0.87633 0.22556 0.0
H957 H 0.4904 0.89236 0.21276 0.0
H958 H 0.52511 0.88744 0.24934 0.0
C959 C 0.49883 0.88933 0.24704 0.0
C960 C 0.10683 0.50485 0.27285 0.0
C961 C 0.10396 0.4875 0.26727 0.0
C962 C 0.09587 0.48263 0.25514 0.0
C963 C 0.09422 0.51241 0.25426 0.0
C964 C 0.10192 0.51703 0.2662 0.0
C965 C 0.10456 0.53621 0.2707 0.0
H966 H 0.09807 0.61686 0.25945 0.0
C967 C 0.09124 0.52844 0.24986 0.0
C968 C 0.09728 0.54242 0.25945 0.0
H969 H 0.11994 0.60276 0.29264 0.0
H970 H 0.11267 0.57202 0.28352 0.0
H971 H 0.11985 0.6034 0.24062 0.0
H972 H 0.06028 0.57352 0.2547 0.0
H973 H 0.05891 0.5684 0.23867 0.0
H974 H 0.06883 0.59329 0.24389 0.0
H975 H 0.10122 0.60874 0.23524 0.0
H976 H 0.10435 0.5897 0.22819 0.0
C977 C 0.12696 0.55019 0.27333 0.0
C978 C 0.091 0.53225 0.28211 0.0
C979 C 0.06456 0.52584 0.20622 0.0
C980 C 0.06093 0.53889 0.19942 0.0
C981 C 0.06459 0.5565 0.20509 0.0
C982 C 0.07175 0.56107 0.21734 0.0
C983 C 0.07542 0.54793 0.224 0.0
C984 C 0.07184 0.53067 0.21843 0.0
C985 C 0.07698 0.51868 0.22685 0.0
C986 C 0.08412 0.53155 0.23841 0.0
C987 C 0.08313 0.54863 0.23669 0.0
C988 C 0.09382 0.5166 0.22069 0.0
C989 C 0.05777 0.49906 0.22928 0.0
C990 C 0.10141 0.60722 0.26474 0.0
C991 C 0.10959 0.61232 0.27681 0.0
C992 C 0.11339 0.59913 0.28341 0.0
C993 C 0.1093 0.58132 0.27805 0.0
C994 C 0.10143 0.57659 0.26591 0.0
C995 C 0.09755 0.58942 0.25949 0.0
C996 C 0.08949 0.58209 0.24662 0.0
C997 C 0.08918 0.56275 0.24639 0.0
C998 C 0.09617 0.55962 0.25772 0.0
C999 C 0.10431 0.59671 0.23709 0.0
C1000 C 0.06831 0.57925 0.24579 0.0
H1001 H 0.08501 0.49054 0.23939 0.0
H1002 H 0.11275 0.50889 0.28222 0.0
H1003 H 0.07678 0.51825 0.28093 0.0
H1004 H 0.08656 0.54339 0.28343 0.0
H1005 H 0.09825 0.53121 0.29077 0.0
H1006 H 0.13627 0.54738 0.26674 0.0
H1007 H 0.13109 0.54826 0.28291 0.0
H1008 H 0.13154 0.5657 0.27196 0.0
H1009 H 0.0621 0.51229 0.20207 0.0
H1010 H 0.06168 0.56668 0.20007 0.0
H1011 H 0.07418 0.57467 0.22113 0.0
H1012 H 0.10399 0.52999 0.21544 0.0
H1013 H 0.08773 0.50411 0.21404 0.0
H1014 H 0.10349 0.51491 0.22752 0.0
H1015 H 0.04479 0.50129 0.23015 0.0
H1016 H 0.05826 0.49225 0.23812 0.0
H1017 H 0.05458 0.48853 0.22153 0.0
H1018 H 0.09368 0.46945 0.25057 0.0
C1019 C 0.09096 0.49497 0.24862 0.0
C1020 C 0.38797 0.50672 0.2726 0.0
C1021 C 0.37223 0.48999 0.26703 0.0
C1022 C 0.37339 0.4861 0.25435 0.0
C1023 C 0.40574 0.5153 0.25301 0.0
C1024 C 0.4044 0.51924 0.26541 0.0
C1025 C 0.42192 0.53818 0.26972 0.0
H1026 H 0.50823 0.62012 0.25616 0.0
C1027 C 0.42462 0.53134 0.24818 0.0
C1028 C 0.43404 0.54492 0.2579 0.0
H1029 H 0.47825 0.60378 0.2915 0.0
H1030 H 0.45264 0.57338 0.28255 0.0
H1031 H 0.50374 0.57924 0.2507 0.0
H1032 H 0.4691 0.60479 0.23864 0.0
H1033 H 0.47227 0.59298 0.22567 0.0
H1034 H 0.49375 0.61265 0.23324 0.0
H1035 H 0.51155 0.59635 0.23819 0.0
H1036 H 0.49581 0.57045 0.23554 0.0
C1037 C 0.43282 0.53365 0.28014 0.0
C1038 C 0.41427 0.55209 0.27372 0.0
C1039 C 0.44624 0.52814 0.20393 0.0
C1040 C 0.46325 0.54078 0.1971 0.0
C1041 C 0.47738 0.55871 0.20254 0.0
C1042 C 0.47495 0.56378 0.21463 0.0
C1043 C 0.45818 0.55083 0.22145 0.0
C1044 C 0.44405 0.53344 0.21607 0.0
C1045 C 0.4271 0.52165 0.22476 0.0
C1046 C 0.43378 0.5346 0.23633 0.0
C1047 C 0.45197 0.55167 0.2343 0.0
C1048 C 0.42619 0.50192 0.22707 0.0
C1049 C 0.40791 0.51976 0.21898 0.0
C1050 C 0.49602 0.61005 0.26191 0.0
C1051 C 0.4951 0.61438 0.2745 0.0
C1052 C 0.47925 0.60071 0.28178 0.0
C1053 C 0.46437 0.58312 0.27655 0.0
C1054 C 0.4654 0.57905 0.26391 0.0
C1055 C 0.48118 0.59232 0.25687 0.0
C1056 C 0.4804 0.58515 0.24378 0.0
C1057 C 0.46126 0.56563 0.24402 0.0
C1058 C 0.45245 0.56219 0.25579 0.0
C1059 C 0.49883 0.58275 0.24182 0.0
C1060 C 0.47894 0.59962 0.23477 0.0
H1061 H 0.39018 0.49479 0.23774 0.0
H1062 H 0.38732 0.5102 0.28228 0.0
H1063 H 0.40197 0.55029 0.2675 0.0
H1064 H 0.42563 0.56766 0.27305 0.0
H1065 H 0.40851 0.54903 0.28337 0.0
H1066 H 0.43228 0.51953 0.2783 0.0
H1067 H 0.42589 0.53257 0.28933 0.0
H1068 H 0.44879 0.54455 0.28077 0.0
H1069 H 0.43509 0.51426 0.20005 0.0
H1070 H 0.49038 0.56893 0.19741 0.0
H1071 H 0.48631 0.57759 0.21821 0.0
H1072 H 0.44134 0.50419 0.22867 0.0
H1073 H 0.41963 0.49197 0.21892 0.0
H1074 H 0.41766 0.49438 0.23541 0.0
H1075 H 0.41126 0.53249 0.21302 0.0
H1076 H 0.39763 0.51966 0.22609 0.0
H1077 H 0.40002 0.50641 0.21309 0.0
H1078 H 0.36143 0.47324 0.2499 0.0
C1079 C 0.3901 0.4986 0.24733 0.0
Eu1080 Eu 0.49107 0.98528 0.9887 0.0
C1081 C 0.53734 0.05971 0.0223 0.0
C1082 C 0.57138 0.06667 0.02164 0.0
C1083 C 0.5644 0.09321 0.0242 0.0
C1084 C 0.55083 0.05326 0.02112 0.0
C1085 C 0.54395 0.0797 0.02412 0.0
C1086 C 0.57809 0.08671 0.02294 0.0
C1087 C 0.50971 0.07132 0.02653 0.0
N1088 N 0.51773 0.04629 0.02221 0.0
C1089 C 0.50391 0.05165 0.02475 0.0
C1090 C 0.52981 0.08545 0.02607 0.0
Eu1091 Eu 0.50896 0.01346 0.01843 0.0
N1092 N 0.54385 0.03381 0.01988 0.0
C1093 C 0.55661 0.02666 0.01999 0.0
C1094 C 0.58456 0.05951 0.02106 0.0
C1095 C 0.57713 0.03939 0.0204 0.0
H1096 H 0.48834 0.04074 0.02502 0.0
H1097 H 0.58718 0.03367 0.02016 0.0
H1098 H 0.59382 0.09725 0.02324 0.0
H1099 H 0.49869 0.07558 0.02824 0.0
H1100 H 0.5511 0.01117 0.0194 0.0
H1101 H 0.41177 0.96107 0.98872 0.0
H1102 H 0.60046 0.06933 0.02137 0.0
H1103 H 0.5131 0.96073 0.97875 0.0
H1104 H 0.44754 0.98494 0.98888 0.0
H1105 H 0.5044 0.92672 0.97403 0.0
H1106 H 0.56977 0.10866 0.02547 0.0
H1107 H 0.40017 0.92576 0.98698 0.0
H1108 H 0.40857 0.8992 0.98376 0.0
H1109 H 0.53429 0.10068 0.02749 0.0
H1110 H 0.43382 0.88981 0.97967 0.0
N1111 N 0.45632 0.96345 0.98769 0.0
C1112 C 0.44277 0.96963 0.98809 0.0
C1113 C 0.41594 0.9362 0.98707 0.0
C1114 C 0.42987 0.93006 0.98578 0.0
C1115 C 0.42243 0.95611 0.98801 0.0
C1116 C 0.45022 0.94425 0.98603 0.0
H1117 H 0.46958 0.90003 0.97578 0.0
N1118 N 0.48364 0.95321 0.98348 0.0
C1119 C 0.493 0.92993 0.97686 0.0
C1120 C 0.46435 0.93895 0.98384 0.0
C1121 C 0.49787 0.94916 0.97953 0.0
C1122 C 0.47334 0.9149 0.97789 0.0
C1123 C 0.45865 0.91935 0.9812 0.0
O1124 O 0.50771 0.99344 0.97132 0.0
O1125 O 0.51577 0.01042 0.99876 0.0
O1126 O 0.50624 0.03277 0.00408 0.0
O1127 O 0.48263 0.00899 0.99083 0.0
O1128 O 0.52364 0.99451 0.98724 0.0
O1129 O 0.47957 0.99246 0.9721 0.0
O1130 O 0.49373 0.01013 0.03605 0.0
O1131 O 0.4844 0.98804 0.00854 0.0
O1132 O 0.49604 0.96591 1.00191 0.0
O1133 O 0.51567 0.98851 0.01745 0.0
O1134 O 0.47635 0.00402 0.01989 0.0
O1135 O 0.51835 0.00472 0.03525 0.0
C1136 C 0.5304 0.00956 0.99451 0.0
C1137 C 0.48962 0.98642 0.95258 0.0
C1138 C 0.49314 0.99011 0.93 0.0
C1139 C 0.49611 0.99841 0.942 0.0
C1140 C 0.48326 0.96967 0.92873 0.0
C1141 C 0.47959 0.96608 0.95109 0.0
C1142 C 0.4764 0.95777 0.93921 0.0
C1143 C 0.49277 0.02718 0.9951 0.0
C1144 C 0.49439 0.9953 0.9651 0.0
C1145 C 0.43849 0.90499 0.98153 0.0
C1146 C 0.42411 0.91034 0.98385 0.0
C1147 C 0.46972 0.98869 0.01288 0.0
C1148 C 0.5123 0.01527 0.05453 0.0
C1149 C 0.50616 0.00412 0.06548 0.0
C1150 C 0.51263 0.01315 0.07726 0.0
C1151 C 0.52526 0.03354 0.07783 0.0
C1152 C 0.52498 0.0355 0.05536 0.0
C1153 C 0.53138 0.04456 0.06697 0.0
C1154 C 0.50765 0.97112 0.01193 0.0
C1155 C 0.50526 0.00564 0.04233 0.0
H1156 H 0.50388 0.01414 0.94312 0.0
H1157 H 0.48065 0.96288 0.91961 0.0
H1158 H 0.47439 0.95663 0.95909 0.0
H1159 H 0.46872 0.94205 0.93812 0.0
H1160 H 0.49658 0.98844 0.06479 0.0
H1161 H 0.53025 0.04105 0.0867 0.0
H1162 H 0.52986 0.04428 0.04706 0.0
H1163 H 0.54107 0.06022 0.06755 0.0
Eu1164 Eu 0.01556 0.50404 0.99092 0.0
C1165 C 0.93638 0.46982 0.02083 0.0
C1166 C 0.92576 0.49359 0.01843 0.0
C1167 C 0.90124 0.45945 0.02146 0.0
C1168 C 0.94093 0.4888 0.01876 0.0
C1169 C 0.91654 0.45501 0.02261 0.0
C1170 C 0.90585 0.47874 0.01938 0.0
C1171 C 0.92869 0.43329 0.02825 0.0
N1172 N 0.95155 0.4662 0.02225 0.0
C1173 C 0.94811 0.44854 0.02651 0.0
C1174 C 0.9128 0.43645 0.0261 0.0
Eu1175 Eu 0.98402 0.49247 0.0188 0.0
N1176 N 0.96031 0.50285 0.01809 0.0
C1177 C 0.96561 0.52211 0.01805 0.0
C1178 C 0.9311 0.51324 0.01772 0.0
C1179 C 0.95111 0.5276 0.01769 0.0
H1180 H 0.96035 0.44604 0.02821 0.0
H1181 H 0.9554 0.54288 0.01743 0.0
H1182 H 0.89398 0.48213 0.01897 0.0
H1183 H 0.92599 0.41915 0.03129 0.0
H1184 H 0.98104 0.53333 0.01804 0.0
H1185 H 0.0402 0.45026 0.99204 0.0
H1186 H 0.9199 0.51743 0.01767 0.0
H1187 H 0.0419 0.55175 0.9847 0.0
H1188 H 0.0159 0.46154 0.99121 0.0
H1189 H 0.07706 0.57764 0.98287 0.0
H1190 H 0.88589 0.44825 0.02265 0.0
H1191 H 0.07614 0.47424 0.99229 0.0
H1192 H 0.10337 0.50925 0.99124 0.0
H1193 H 0.89779 0.4247 0.02762 0.0
H1194 H 0.11342 0.54391 0.98881 0.0
N1195 N 0.03777 0.49172 0.99126 0.0
C1196 C 0.0315 0.47221 0.99124 0.0
C1197 C 0.06553 0.4793 0.99189 0.0
C1198 C 0.07186 0.49924 0.99126 0.0
C1199 C 0.04525 0.46573 0.99173 0.0
C1200 C 0.05743 0.50506 0.99085 0.0
H1201 H 0.10372 0.56952 0.98552 0.0
N1202 N 0.04877 0.52946 0.98864 0.0
C1203 C 0.07334 0.56278 0.98481 0.0
C1204 C 0.06311 0.52455 0.98957 0.0
C1205 C 0.05349 0.54812 0.98581 0.0
C1206 C 0.08835 0.55815 0.98635 0.0
C1207 C 0.08333 0.53878 0.98856 0.0
O1208 O 0.01458 0.51544 0.97264 0.0
O1209 O 0.98784 0.50149 0.99885 0.0
O1210 O 0.96662 0.468 0.00503 0.0
O1211 O 0.99136 0.47188 0.99103 0.0
O1212 O 0.00465 0.52552 0.9879 0.0
O1213 O 0.00912 0.48584 0.9743 0.0
O1214 O 0.98823 0.48385 0.03733 0.0
O1215 O 0.01135 0.49484 0.01068 0.0
O1216 O 0.03315 0.5264 0.00581 0.0
O1217 O 0.00746 0.52499 0.01763 0.0
O1218 O 0.99564 0.4716 0.0223 0.0
O1219 O 0.98948 0.51157 0.03486 0.0
C1220 C 0.98841 0.51634 0.99409 0.0
C1221 C 0.02337 0.50244 0.95566 0.0
C1222 C 0.02554 0.50123 0.93306 0.0
C1223 C 0.01437 0.49868 0.94387 0.0
C1224 C 0.04592 0.50766 0.93428 0.0
C1225 C 0.04366 0.50876 0.95669 0.0
C1226 C 0.05487 0.51137 0.94604 0.0
C1227 C 0.97327 0.46185 0.99574 0.0
C1228 C 0.01133 0.49964 0.96674 0.0
C1229 C 0.0978 0.53317 0.98945 0.0
C1230 C 0.09207 0.51343 0.99081 0.0
C1231 C 0.01138 0.48044 0.01565 0.0
C1232 C 0.9775 0.49553 0.05397 0.0
C1233 C 0.98667 0.49927 0.06569 0.0
C1234 C 0.9754 0.49538 0.07658 0.0
C1235 C 0.95477 0.48759 0.07556 0.0
C1236 C 0.95695 0.48799 0.0531 0.0
C1237 C 0.94565 0.48399 0.06387 0.0
C1238 C 0.02634 0.53381 0.01421 0.0
C1239 C 0.98956 0.49919 0.04279 0.0
H1240 H 0.9986 0.4935 0.94314 0.0
H1241 H 0.05499 0.51002 0.92615 0.0
H1242 H 0.05083 0.51164 0.96569 0.0
H1243 H 0.07056 0.51633 0.94689 0.0
H1244 H 0.00256 0.505 0.06633 0.0
H1245 H 0.94577 0.48461 0.0838 0.0
H1246 H 0.94966 0.48518 0.04416 0.0
H1247 H 0.92978 0.47815 0.06314 0.0
Eu1248 Eu 0.51059 0.49559 0.0186 0.0
C1249 C 0.46836 0.52829 0.98473 0.0
C1250 C 0.43332 0.50471 0.98593 0.0
C1251 C 0.44408 0.53887 0.9823 0.0
C1252 C 0.4533 0.50933 0.98653 0.0
C1253 C 0.46393 0.54323 0.98236 0.0
C1254 C 0.42879 0.51962 0.98407 0.0
C1255 C 0.49894 0.56532 0.97932 0.0
N1256 N 0.48733 0.53193 0.98468 0.0
C1257 C 0.50256 0.54999 0.98163 0.0
C1258 C 0.47956 0.56199 0.97982 0.0
Eu1259 Eu 0.49232 0.5054 0.98926 0.0
N1260 N 0.45815 0.49523 0.98823 0.0
C1261 C 0.44374 0.47603 0.98858 0.0
C1262 C 0.4185 0.48516 0.98685 0.0
C1263 C 0.4237 0.47072 0.98806 0.0
H1264 H 0.5176 0.55272 0.98129 0.0
H1265 H 0.41232 0.45551 0.98857 0.0
H1266 H 0.4135 0.51635 0.98371 0.0
H1267 H 0.51109 0.5797 0.97717 0.0
H1268 H 0.44762 0.46477 0.98952 0.0
H1269 H 0.58987 0.5481 0.02113 0.0
H1270 H 0.40306 0.48109 0.98629 0.0
H1271 H 0.48671 0.44793 0.02541 0.0
H1272 H 0.55447 0.53738 0.01897 0.0
H1273 H 0.49447 0.42171 0.02941 0.0
H1274 H 0.44037 0.55017 0.9806 0.0
H1275 H 0.6007 0.5237 0.02382 0.0
H1276 H 0.59156 0.4886 0.02582 0.0
H1277 H 0.47678 0.57387 0.97797 0.0
H1278 H 0.56559 0.45418 0.02794 0.0
N1279 N 0.54505 0.50711 0.02007 0.0
C1280 C 0.55887 0.52653 0.02004 0.0
C1281 C 0.58508 0.51889 0.02268 0.0
C1282 C 0.57084 0.49905 0.02306 0.0
C1283 C 0.57905 0.53269 0.02124 0.0
C1284 C 0.55065 0.49356 0.02186 0.0
H1285 H 0.52937 0.42913 0.02943 0.0
N1286 N 0.51684 0.46977 0.02278 0.0
C1287 C 0.50632 0.43642 0.02763 0.0
C1288 C 0.53608 0.47426 0.02318 0.0
C1289 C 0.50198 0.45129 0.02539 0.0
C1290 C 0.52603 0.44065 0.0276 0.0
C1291 C 0.54123 0.45983 0.02556 0.0
O1292 O 0.49643 0.48613 0.0367 0.0
O1293 O 0.48574 0.49711 0.0092 0.0
O1294 O 0.49647 0.52863 0.00313 0.0
O1295 O 0.51987 0.52782 0.01637 0.0
O1296 O 0.47774 0.47397 0.02099 0.0
O1297 O 0.52164 0.51523 0.03471 0.0
O1298 O 0.50633 0.51309 0.97104 0.0
O1299 O 0.51713 0.504 0.99874 0.0
O1300 O 0.50681 0.47281 0.00443 0.0
O1301 O 0.48263 0.47317 0.99177 0.0
O1302 O 0.52521 0.52671 0.98662 0.0
O1303 O 0.47959 0.48523 0.97348 0.0
C1304 C 0.47101 0.48248 0.01391 0.0
C1305 C 0.51692 0.50022 0.05431 0.0
C1306 C 0.51721 0.50186 0.07702 0.0
C1307 C 0.51 0.50399 0.06543 0.0
C1308 C 0.53145 0.49583 0.07725 0.0
C1309 C 0.53115 0.4943 0.05475 0.0
C1310 C 0.53835 0.49211 0.06618 0.0
C1311 C 0.51037 0.5365 0.01186 0.0
C1312 C 0.50897 0.50231 0.04236 0.0
C1313 C 0.56133 0.46508 0.0262 0.0
C1314 C 0.57611 0.48467 0.02499 0.0
C1315 C 0.53191 0.51847 0.99395 0.0
C1316 C 0.48522 0.49966 0.95364 0.0
C1317 C 0.49081 0.49418 0.94259 0.0
C1318 C 0.48461 0.49737 0.93092 0.0
C1319 C 0.47255 0.50601 0.93059 0.0
C1320 C 0.47307 0.50803 0.95307 0.0
C1321 C 0.46675 0.51115 0.94159 0.0
C1322 C 0.49266 0.46478 0.99586 0.0
C1323 C 0.49275 0.49715 0.96563 0.0
H1324 H 0.49917 0.5088 0.06501 0.0
H1325 H 0.53709 0.49375 0.086 0.0
H1326 H 0.53664 0.49134 0.0463 0.0
H1327 H 0.54927 0.48745 0.06647 0.0
H1328 H 0.49994 0.48741 0.94315 0.0
H1329 H 0.46785 0.50915 0.92182 0.0
H1330 H 0.46861 0.51229 0.96147 0.0
H1331 H 0.45751 0.51779 0.9412 0.0
Eu1332 Eu 0.16129 0.32063 0.32297 0.0
C1333 C 0.1983 0.3944 0.35814 0.0
C1334 C 0.23324 0.40482 0.36 0.0
C1335 C 0.22218 0.42839 0.36281 0.0
C1336 C 0.21347 0.39011 0.35763 0.0
C1337 C 0.20245 0.41357 0.36083 0.0
C1338 C 0.2375 0.42396 0.36255 0.0
C1339 C 0.16716 0.40157 0.36085 0.0
N1340 N 0.17935 0.37957 0.35682 0.0
C1341 C 0.16377 0.38274 0.35851 0.0
C1342 C 0.18659 0.41709 0.36193 0.0
Eu1343 Eu 0.17472 0.34807 0.35292 0.0
N1344 N 0.20875 0.37131 0.35569 0.0
C1345 C 0.22298 0.36607 0.3566 0.0
C1346 C 0.24804 0.3997 0.36025 0.0
C1347 C 0.24284 0.38019 0.35868 0.0
H1348 H 0.14871 0.37076 0.35776 0.0
H1349 H 0.25411 0.37599 0.35912 0.0
H1350 H 0.25256 0.43536 0.36458 0.0
H1351 H 0.15478 0.40407 0.36191 0.0
H1352 H 0.21916 0.35102 0.35556 0.0
H1353 H 0.08123 0.28946 0.31776 0.0
H1354 H 0.26342 0.41059 0.36199 0.0
H1355 H 0.1889 0.2998 0.31707 0.0
H1356 H 0.11598 0.31571 0.32043 0.0
H1357 H 0.18417 0.26698 0.31302 0.0
H1358 H 0.22568 0.44319 0.36492 0.0
H1359 H 0.07347 0.2552 0.31545 0.0
H1360 H 0.08542 0.23117 0.31388 0.0
H1361 H 0.18918 0.43163 0.36393 0.0
H1362 H 0.11342 0.22502 0.31255 0.0
N1363 N 0.12762 0.29643 0.32016 0.0
C1364 C 0.11275 0.30082 0.31951 0.0
C1365 C 0.08865 0.26665 0.31679 0.0
C1366 C 0.10403 0.26236 0.31687 0.0
C1367 C 0.09302 0.28598 0.31801 0.0
C1368 C 0.12365 0.27781 0.31848 0.0
H1369 H 0.15029 0.23832 0.31204 0.0
N1370 N 0.15803 0.28977 0.31863 0.0
C1371 C 0.17143 0.26884 0.31436 0.0
C1372 C 0.13934 0.27435 0.31769 0.0
C1373 C 0.17405 0.28741 0.31663 0.0
C1374 C 0.15229 0.25269 0.31384 0.0
C1375 C 0.13593 0.25535 0.31534 0.0
O1376 O 0.17785 0.32728 0.30558 0.0
O1377 O 0.18387 0.34648 0.33362 0.0
O1378 O 0.17179 0.36677 0.33817 0.0
O1379 O 0.15012 0.34235 0.32444 0.0
O1380 O 0.19468 0.33283 0.32258 0.0
O1381 O 0.15101 0.32897 0.30636 0.0
O1382 O 0.15848 0.34282 0.37034 0.0
O1383 O 0.15188 0.32216 0.34235 0.0
O1384 O 0.16416 0.30163 0.33748 0.0
O1385 O 0.18497 0.32559 0.35176 0.0
O1386 O 0.14153 0.33638 0.35348 0.0
O1387 O 0.18443 0.33955 0.36971 0.0
C1388 C 0.19966 0.34739 0.33003 0.0
C1389 C 0.15936 0.32102 0.28692 0.0
C1390 C 0.15914 0.32379 0.26421 0.0
C1391 C 0.16485 0.33257 0.27612 0.0
C1392 C 0.14805 0.30327 0.26335 0.0
C1393 C 0.14823 0.30065 0.28578 0.0
C1394 C 0.14266 0.29186 0.27405 0.0
C1395 C 0.15868 0.36044 0.32893 0.0
C1396 C 0.16524 0.33029 0.29932 0.0
C1397 C 0.11636 0.23976 0.31426 0.0
C1398 C 0.10043 0.24326 0.31502 0.0
C1399 C 0.1363 0.32167 0.34611 0.0
C1400 C 0.1771 0.34907 0.38894 0.0
C1401 C 0.17119 0.338 0.39993 0.0
C1402 C 0.17664 0.3473 0.41169 0.0
C1403 C 0.18832 0.36777 0.41225 0.0
C1404 C 0.18881 0.36944 0.38976 0.0
C1405 C 0.19441 0.37871 0.40136 0.0
C1406 C 0.17648 0.30758 0.34714 0.0
C1407 C 0.17067 0.33932 0.37671 0.0
H1408 H 0.17328 0.34834 0.27703 0.0
H1409 H 0.14369 0.29599 0.25438 0.0
H1410 H 0.14387 0.29155 0.29394 0.0
H1411 H 0.13414 0.27611 0.27324 0.0
H1412 H 0.16203 0.32224 0.39932 0.0
H1413 H 0.19291 0.37532 0.42113 0.0
H1414 H 0.19354 0.37818 0.38146 0.0
H1415 H 0.20345 0.39445 0.4019 0.0
Eu1416 Eu 0.68321 0.83847 0.3243 0.0
C1417 C 0.60421 0.80585 0.3538 0.0
C1418 C 0.59405 0.83013 0.35238 0.0
C1419 C 0.56918 0.79588 0.35451 0.0
C1420 C 0.60904 0.8251 0.35236 0.0
C1421 C 0.58425 0.79106 0.35513 0.0
C1422 C 0.57407 0.8154 0.35316 0.0
C1423 C 0.59577 0.76823 0.35886 0.0
N1424 N 0.61914 0.80175 0.35461 0.0
C1425 C 0.61531 0.7834 0.35753 0.0
C1426 C 0.58013 0.77199 0.35747 0.0
Eu1427 Eu 0.65173 0.8282 0.35211 0.0
N1428 N 0.62848 0.83905 0.35174 0.0
C1429 C 0.63404 0.85837 0.3519 0.0
C1430 C 0.59964 0.84988 0.35205 0.0
C1431 C 0.61971 0.86408 0.35192 0.0
H1432 H 0.62734 0.78039 0.35856 0.0
H1433 H 0.62418 0.87941 0.35189 0.0
H1434 H 0.56234 0.81901 0.35305 0.0
H1435 H 0.59283 0.75371 0.36106 0.0
H1436 H 0.64953 0.86943 0.35182 0.0
H1437 H 0.70718 0.78425 0.32796 0.0
H1438 H 0.58856 0.85425 0.35228 0.0
H1439 H 0.70957 0.88452 0.31476 0.0
H1440 H 0.68321 0.79576 0.32621 0.0
H1441 H 0.74466 0.90981 0.3117 0.0
H1442 H 0.55374 0.78471 0.35541 0.0
H1443 H 0.7432 0.80789 0.32774 0.0
H1444 H 0.77067 0.84258 0.32527 0.0
H1445 H 0.56501 0.76021 0.35857 0.0
H1446 H 0.78093 0.87685 0.32088 0.0
N1447 N 0.70527 0.82586 0.32534 0.0
C1448 C 0.69882 0.80633 0.32603 0.0
C1449 C 0.73271 0.81307 0.32695 0.0
C1450 C 0.73924 0.83292 0.32544 0.0
C1451 C 0.7124 0.79969 0.32705 0.0
C1452 C 0.72495 0.8389 0.32455 0.0
H1453 H 0.77132 0.90201 0.31557 0.0
N1454 N 0.71645 0.86297 0.32068 0.0
C1455 C 0.74097 0.89536 0.31473 0.0
C1456 C 0.73074 0.85813 0.32219 0.0
C1457 C 0.72115 0.88103 0.31645 0.0
C1458 C 0.75598 0.89092 0.31697 0.0
C1459 C 0.75093 0.872 0.32051 0.0
O1460 O 0.68049 0.84766 0.30561 0.0
O1461 O 0.6563 0.83743 0.3323 0.0
O1462 O 0.63365 0.80613 0.33721 0.0
O1463 O 0.6592 0.80629 0.32601 0.0
O1464 O 0.67295 0.86037 0.32061 0.0
O1465 O 0.67507 0.81835 0.30852 0.0
O1466 O 0.65363 0.81817 0.37068 0.0
O1467 O 0.67923 0.83047 0.34433 0.0
O1468 O 0.7008 0.86323 0.33792 0.0
O1469 O 0.67588 0.86036 0.35145 0.0
O1470 O 0.66304 0.80715 0.35584 0.0
O1471 O 0.65747 0.8471 0.36828 0.0
C1472 C 0.65716 0.85223 0.32729 0.0
C1473 C 0.68789 0.83274 0.28912 0.0
C1474 C 0.68867 0.83029 0.26651 0.0
C1475 C 0.67832 0.82891 0.27751 0.0
C1476 C 0.70882 0.83561 0.26736 0.0
C1477 C 0.70794 0.83796 0.28979 0.0
C1478 C 0.71834 0.8394 0.27893 0.0
C1479 C 0.64027 0.79806 0.32919 0.0
C1480 C 0.6767 0.83124 0.30039 0.0
C1481 C 0.76532 0.86636 0.32199 0.0
C1482 C 0.75947 0.84685 0.32447 0.0
C1483 C 0.67913 0.81617 0.34952 0.0
C1484 C 0.644 0.83114 0.38723 0.0
C1485 C 0.6528 0.83402 0.39903 0.0
C1486 C 0.64165 0.83143 0.40983 0.0
C1487 C 0.62148 0.82587 0.40863 0.0
C1488 C 0.62389 0.82561 0.3862 0.0
C1489 C 0.61269 0.82297 0.39686 0.0
C1490 C 0.69419 0.86987 0.34698 0.0
C1491 C 0.65607 0.83398 0.37617 0.0
H1492 H 0.66272 0.82459 0.27708 0.0
H1493 H 0.71728 0.83705 0.25906 0.0
H1494 H 0.71551 0.84089 0.29866 0.0
H1495 H 0.73385 0.84351 0.27949 0.0
H1496 H 0.66843 0.83856 0.39977 0.0
H1497 H 0.61246 0.82357 0.41678 0.0
H1498 H 0.61687 0.82337 0.3772 0.0
H1499 H 0.59716 0.81866 0.39601 0.0
Eu1500 Eu 0.18127 0.83146 0.35203 0.0
C1501 C 0.13355 0.85931 0.31954 0.0
C1502 C 0.09938 0.83358 0.32169 0.0
C1503 C 0.10697 0.86698 0.3183 0.0
C1504 C 0.11983 0.83988 0.32148 0.0
C1505 C 0.12726 0.87302 0.31762 0.0
C1506 C 0.09306 0.8473 0.32036 0.0
C1507 C 0.16136 0.89726 0.31351 0.0
N1508 N 0.153 0.86465 0.31889 0.0
C1509 C 0.16685 0.88312 0.31545 0.0
C1510 C 0.1415 0.89226 0.31476 0.0
Eu1511 Eu 0.16127 0.84018 0.32284 0.0
N1512 N 0.12643 0.827 0.3227 0.0
C1513 C 0.1133 0.80742 0.32325 0.0
C1514 C 0.08588 0.81364 0.32297 0.0
C1515 C 0.09287 0.80048 0.32358 0.0
H1516 H 0.18223 0.88703 0.31457 0.0
H1517 H 0.08255 0.78499 0.32436 0.0
H1518 H 0.07742 0.84277 0.32062 0.0
H1519 H 0.17243 0.912 0.31109 0.0
H1520 H 0.11849 0.79709 0.32382 0.0
H1521 H 0.26058 0.88481 0.34943 0.0
H1522 H 0.07006 0.80822 0.32324 0.0
H1523 H 0.15992 0.78607 0.36301 0.0
H1524 H 0.22493 0.87377 0.3502 0.0
H1525 H 0.1688 0.76079 0.36775 0.0
H1526 H 0.10185 0.87732 0.31698 0.0
H1527 H 0.27212 0.8609 0.3512 0.0
H1528 H 0.26381 0.82628 0.35494 0.0
H1529 H 0.13728 0.90322 0.31323 0.0
H1530 H 0.23879 0.79243 0.35993 0.0
N1531 N 0.21605 0.84369 0.35198 0.0
C1532 C 0.22964 0.86311 0.35102 0.0
C1533 C 0.25639 0.85593 0.35153 0.0
C1534 C 0.24249 0.83622 0.35334 0.0
C1535 C 0.24994 0.86947 0.35057 0.0
C1536 C 0.22218 0.83052 0.35362 0.0
H1537 H 0.20336 0.76794 0.36496 0.0
N1538 N 0.18895 0.80692 0.35719 0.0
C1539 C 0.18 0.77494 0.36444 0.0
C1540 C 0.20816 0.8115 0.3563 0.0
C1541 C 0.17502 0.78927 0.36176 0.0
C1542 C 0.1995 0.77902 0.36282 0.0
C1543 C 0.21397 0.79761 0.35894 0.0
O1544 O 0.16605 0.82408 0.36989 0.0
O1545 O 0.15601 0.8324 0.34286 0.0
O1546 O 0.16601 0.86378 0.3366 0.0
O1547 O 0.19004 0.86346 0.34949 0.0
O1548 O 0.1487 0.80937 0.35469 0.0
O1549 O 0.19428 0.85059 0.36829 0.0
O1550 O 0.1751 0.84998 0.3047 0.0
O1551 O 0.18639 0.83892 0.33189 0.0
O1552 O 0.17481 0.80614 0.3393 0.0
O1553 O 0.15396 0.80848 0.32434 0.0
O1554 O 0.1939 0.86196 0.32 0.0
O1555 O 0.14936 0.82114 0.30649 0.0
C1556 C 0.14159 0.81766 0.3477 0.0
C1557 C 0.18604 0.83486 0.38782 0.0
C1558 C 0.18182 0.83178 0.41034 0.0
C1559 C 0.17741 0.83695 0.39874 0.0
C1560 C 0.19507 0.82457 0.41085 0.0
C1561 C 0.19936 0.82781 0.38852 0.0
C1562 C 0.20383 0.8227 0.40001 0.0
C1563 C 0.18018 0.87188 0.34514 0.0
C1564 C 0.18013 0.83905 0.37575 0.0
C1565 C 0.23406 0.80294 0.35808 0.0
C1566 C 0.2483 0.82222 0.35525 0.0
C1567 C 0.20086 0.8534 0.32688 0.0
C1568 C 0.15449 0.83678 0.28705 0.0
C1569 C 0.16133 0.83315 0.27584 0.0
C1570 C 0.15483 0.83644 0.26432 0.0
C1571 C 0.1413 0.84333 0.26422 0.0
C1572 C 0.1409 0.84351 0.28676 0.0
C1573 C 0.13434 0.84676 0.27538 0.0
C1574 C 0.16223 0.79921 0.32978 0.0
C1575 C 0.16221 0.83409 0.29891 0.0
H1576 H 0.16699 0.84224 0.39818 0.0
H1577 H 0.19888 0.82064 0.41967 0.0
H1578 H 0.20618 0.82616 0.38022 0.0
H1579 H 0.21409 0.81723 0.4005 0.0
H1580 H 0.17198 0.82811 0.27609 0.0
H1581 H 0.13589 0.84583 0.25551 0.0
H1582 H 0.13544 0.84633 0.29529 0.0
H1583 H 0.12386 0.85197 0.2752 0.0
Eu1584 Eu 0.82602 0.65084 0.65416 0.0
C1585 C 0.86413 0.72251 0.69076 0.0
C1586 C 0.8983 0.73041 0.69333 0.0
C1587 C 0.88955 0.75569 0.69607 0.0
C1588 C 0.87829 0.7168 0.69054 0.0
C1589 C 0.86956 0.74198 0.69364 0.0
C1590 C 0.90386 0.74987 0.69601 0.0
C1591 C 0.83481 0.73242 0.69292 0.0
N1592 N 0.84484 0.70875 0.6889 0.0
C1593 C 0.83011 0.71322 0.69036 0.0
C1594 C 0.85464 0.74691 0.69447 0.0
Eu1595 Eu 0.83801 0.6766 0.68471 0.0
N1596 N 0.87233 0.69773 0.68838 0.0
C1597 C 0.88549 0.69113 0.68943 0.0
C1598 C 0.91203 0.7239 0.6938 0.0
C1599 C 0.90554 0.70412 0.69198 0.0
H1600 H 0.81476 0.70201 0.68925 0.0
H1601 H 0.91595 0.69885 0.69256 0.0
H1602 H 0.91913 0.76046 0.69828 0.0
H1603 H 0.82314 0.736 0.69379 0.0
H1604 H 0.88073 0.67589 0.68813 0.0
H1605 H 0.74711 0.62544 0.6476 0.0
H1606 H 0.92754 0.73391 0.69586 0.0
H1607 H 0.85071 0.62808 0.64624 0.0
H1608 H 0.7822 0.64943 0.65157 0.0
H1609 H 0.84385 0.59483 0.64078 0.0
H1610 H 0.89403 0.77072 0.69831 0.0
H1611 H 0.73692 0.59087 0.64381 0.0
H1612 H 0.74644 0.56496 0.64159 0.0
H1613 H 0.85823 0.76173 0.69662 0.0
H1614 H 0.77275 0.55647 0.64006 0.0
N1615 N 0.79178 0.6285 0.65089 0.0
C1616 C 0.77798 0.63433 0.65021 0.0
C1617 C 0.75226 0.60119 0.64598 0.0
C1618 C 0.76654 0.59539 0.64617 0.0
C1619 C 0.75801 0.62076 0.64796 0.0
C1620 C 0.78648 0.60962 0.64857 0.0
H1621 H 0.80918 0.56757 0.63955 0.0
N1622 N 0.82035 0.61942 0.64873 0.0
C1623 C 0.83172 0.59742 0.64274 0.0
C1624 C 0.80125 0.6049 0.64754 0.0
C1625 C 0.83556 0.6162 0.64583 0.0
C1626 C 0.81214 0.58206 0.64211 0.0
C1627 C 0.79659 0.58578 0.64422 0.0
O1628 O 0.8435 0.65763 0.63712 0.0
O1629 O 0.84823 0.67555 0.66568 0.0
O1630 O 0.83743 0.69684 0.6702 0.0
O1631 O 0.81636 0.67375 0.65562 0.0
O1632 O 0.8593 0.66224 0.65458 0.0
O1633 O 0.81783 0.66125 0.63757 0.0
O1634 O 0.82017 0.67166 0.70137 0.0
O1635 O 0.81552 0.65123 0.67346 0.0
O1636 O 0.82994 0.63113 0.66765 0.0
O1637 O 0.84625 0.65273 0.68431 0.0
O1638 O 0.80519 0.66635 0.68382 0.0
O1639 O 0.84541 0.66719 0.70206 0.0
C1640 C 0.86411 0.67637 0.66238 0.0
C1641 C 0.82608 0.65315 0.61819 0.0
C1642 C 0.82603 0.65674 0.59554 0.0
C1643 C 0.83186 0.66509 0.60757 0.0
C1644 C 0.81458 0.63628 0.5944 0.0
C1645 C 0.81455 0.63285 0.61675 0.0
C1646 C 0.8089 0.62449 0.60492 0.0
C1647 C 0.82518 0.69158 0.66054 0.0
C1648 C 0.83192 0.66191 0.63073 0.0
C1649 C 0.77665 0.57127 0.64254 0.0
C1650 C 0.76166 0.5761 0.64345 0.0
C1651 C 0.8 0.65141 0.67665 0.0
C1652 C 0.83654 0.67664 0.72079 0.0
C1653 C 0.83179 0.66502 0.73152 0.0
C1654 C 0.83648 0.6737 0.74351 0.0
C1655 C 0.84591 0.69421 0.74445 0.0
C1656 C 0.84611 0.69699 0.72204 0.0
C1657 C 0.85074 0.70569 0.73381 0.0
C1658 C 0.84 0.63595 0.6783 0.0
C1659 C 0.83122 0.66739 0.70836 0.0
H1660 H 0.84057 0.68081 0.60869 0.0
H1661 H 0.81016 0.62932 0.58533 0.0
H1662 H 0.80989 0.62345 0.62476 0.0
H1663 H 0.80009 0.60878 0.6039 0.0
H1664 H 0.82463 0.6493 0.7305 0.0
H1665 H 0.84932 0.70145 0.75344 0.0
H1666 H 0.84987 0.70616 0.71395 0.0
H1667 H 0.85798 0.72142 0.73469 0.0
Eu1668 Eu 0.34986 0.16924 0.65699 0.0
C1669 C 0.27012 0.13757 0.68597 0.0
C1670 C 0.26132 0.16292 0.68524 0.0
C1671 C 0.23546 0.12894 0.68692 0.0
C1672 C 0.27573 0.1571 0.68494 0.0
C1673 C 0.24994 0.1233 0.68721 0.0
C1674 C 0.24114 0.14872 0.68598 0.0
C1675 C 0.26006 0.09923 0.69021 0.0
N1676 N 0.2845 0.13266 0.68656 0.0
C1677 C 0.27987 0.11395 0.68912 0.0
C1678 C 0.245 0.10389 0.68911 0.0
Eu1679 Eu 0.31761 0.15836 0.68452 0.0
N1680 N 0.29536 0.17049 0.6843 0.0
C1681 C 0.30164 0.18998 0.68453 0.0
C1682 C 0.26766 0.18288 0.68519 0.0
C1683 C 0.28792 0.19646 0.68489 0.0
H1684 H 0.2915 0.11032 0.68997 0.0
H1685 H 0.29305 0.21193 0.68505 0.0
H1686 H 0.22984 0.15292 0.68611 0.0
H1687 H 0.25642 0.08433 0.69192 0.0
H1688 H 0.31725 0.20063 0.68436 0.0
H1689 H 0.37293 0.11435 0.66024 0.0
H1690 H 0.25705 0.18792 0.68571 0.0
H1691 H 0.37699 0.21553 0.64796 0.0
H1692 H 0.34929 0.12626 0.65831 0.0
H1693 H 0.41232 0.24075 0.64572 0.0
H1694 H 0.21987 0.11818 0.68777 0.0
H1695 H 0.40902 0.13775 0.66089 0.0
H1696 H 0.43683 0.17246 0.65931 0.0
H1697 H 0.22967 0.09249 0.69007 0.0
H1698 H 0.44762 0.207 0.65543 0.0
N1699 N 0.37161 0.15631 0.65819 0.0
C1700 C 0.36495 0.13672 0.65852 0.0
C1701 C 0.39868 0.14311 0.66002 0.0
C1702 C 0.40545 0.16307 0.65888 0.0
C1703 C 0.37834 0.12985 0.65963 0.0
C1704 C 0.39136 0.16927 0.65787 0.0
H1705 H 0.43858 0.23257 0.65012 0.0
N1706 N 0.38334 0.19371 0.65407 0.0
C1707 C 0.40836 0.22619 0.64865 0.0
C1708 C 0.39743 0.18864 0.65581 0.0
C1709 C 0.3884 0.2119 0.64992 0.0
C1710 C 0.42313 0.22153 0.65119 0.0
C1711 C 0.41775 0.20244 0.65455 0.0
O1712 O 0.34737 0.17908 0.63847 0.0
O1713 O 0.32275 0.168 0.66479 0.0
O1714 O 0.29979 0.13667 0.66938 0.0
O1715 O 0.32538 0.13712 0.658 0.0
O1716 O 0.33975 0.19125 0.65339 0.0
O1717 O 0.34334 0.15017 0.64078 0.0
O1718 O 0.31887 0.14719 0.70281 0.0
O1719 O 0.34515 0.16057 0.67689 0.0
O1720 O 0.36714 0.19378 0.67077 0.0
O1721 O 0.34213 0.19042 0.6844 0.0
O1722 O 0.32833 0.13676 0.68794 0.0
O1723 O 0.32328 0.17643 0.70115 0.0
C1724 C 0.32373 0.18291 0.65986 0.0
C1725 C 0.35676 0.16615 0.62184 0.0
C1726 C 0.35923 0.16638 0.59926 0.0
C1727 C 0.34789 0.16305 0.61005 0.0
C1728 C 0.37961 0.17289 0.60042 0.0
C1729 C 0.37706 0.17242 0.62287 0.0
C1730 C 0.38842 0.1758 0.61218 0.0
C1731 C 0.30642 0.12887 0.66115 0.0
C1732 C 0.34471 0.16328 0.63292 0.0
C1733 C 0.43192 0.19657 0.6562 0.0
C1734 C 0.42578 0.17691 0.65839 0.0
C1735 C 0.34467 0.14594 0.68186 0.0
C1736 C 0.30937 0.15951 0.71979 0.0
C1737 C 0.31841 0.16354 0.73157 0.0
C1738 C 0.30706 0.16004 0.74241 0.0
C1739 C 0.28646 0.15249 0.74121 0.0
C1740 C 0.28887 0.15212 0.71878 0.0
C1741 C 0.27749 0.14863 0.72946 0.0
C1742 C 0.36038 0.20017 0.67988 0.0
C1743 C 0.32154 0.16279 0.7087 0.0
H1744 H 0.33222 0.15834 0.60929 0.0
H1745 H 0.38864 0.17546 0.59224 0.0
H1746 H 0.3841 0.17475 0.63188 0.0
H1747 H 0.40409 0.18068 0.61302 0.0
H1748 H 0.33433 0.16955 0.73226 0.0
H1749 H 0.27722 0.14931 0.74934 0.0
H1750 H 0.28166 0.14897 0.70981 0.0
H1751 H 0.26164 0.1428 0.72862 0.0
Eu1752 Eu 0.84568 0.16358 0.68479 0.0
C1753 C 0.79998 0.19467 0.6533 0.0
C1754 C 0.76538 0.1701 0.65551 0.0
C1755 C 0.77464 0.20408 0.65269 0.0
C1756 C 0.78559 0.17544 0.65514 0.0
C1757 C 0.79466 0.20916 0.65177 0.0
C1758 C 0.76003 0.18458 0.65457 0.0
C1759 C 0.82909 0.23225 0.64756 0.0
N1760 N 0.81914 0.19904 0.65239 0.0
C1761 C 0.8336 0.21734 0.6491 0.0
C1762 C 0.80956 0.2282 0.64905 0.0
Eu1763 Eu 0.82583 0.17335 0.65594 0.0
N1764 N 0.79127 0.16181 0.65591 0.0
C1765 C 0.77741 0.14241 0.65609 0.0
C1766 C 0.75115 0.1503 0.65648 0.0
C1767 C 0.75718 0.13638 0.65655 0.0
H1768 H 0.84874 0.22056 0.64805 0.0
H1769 H 0.74628 0.12101 0.65705 0.0
H1770 H 0.7446 0.18079 0.65497 0.0
H1771 H 0.84066 0.24685 0.64527 0.0
H1772 H 0.78189 0.13152 0.65627 0.0
H1773 H 0.92532 0.21577 0.68424 0.0
H1774 H 0.73548 0.1456 0.65685 0.0
H1775 H 0.82229 0.1162 0.69224 0.0
H1776 H 0.88975 0.20534 0.68429 0.0
H1777 H 0.83018 0.08996 0.69563 0.0
H1778 H 0.77027 0.21504 0.65166 0.0
H1779 H 0.93606 0.19119 0.68557 0.0
H1780 H 0.92681 0.15605 0.68801 0.0
H1781 H 0.80609 0.23976 0.64783 0.0
H1782 H 0.90094 0.12181 0.69107 0.0
N1783 N 0.88024 0.17506 0.68536 0.0
C1784 C 0.89415 0.19443 0.68494 0.0
C1785 C 0.92038 0.18651 0.68562 0.0
C1786 C 0.90608 0.16676 0.6867 0.0
C1787 C 0.91438 0.20043 0.68489 0.0
C1788 C 0.88587 0.16144 0.68663 0.0
H1789 H 0.86487 0.09702 0.69405 0.0
N1790 N 0.85217 0.13784 0.68866 0.0
C1791 C 0.8419 0.10455 0.69349 0.0
C1792 C 0.87137 0.14222 0.68832 0.0
C1793 C 0.83749 0.11946 0.69163 0.0
C1794 C 0.8615 0.10861 0.69259 0.0
C1795 C 0.87658 0.1277 0.69015 0.0
O1796 O 0.83164 0.15438 0.70294 0.0
O1797 O 0.82056 0.16491 0.67583 0.0
O1798 O 0.83078 0.19655 0.67008 0.0
O1799 O 0.85483 0.19578 0.68275 0.0
O1800 O 0.81291 0.14181 0.68757 0.0
O1801 O 0.85763 0.18297 0.70097 0.0
O1802 O 0.83971 0.18231 0.63775 0.0
O1803 O 0.85099 0.17204 0.66486 0.0
O1804 O 0.84133 0.14073 0.67056 0.0
O1805 O 0.8172 0.14121 0.6578 0.0
O1806 O 0.85856 0.19493 0.65292 0.0
O1807 O 0.81294 0.1543 0.63965 0.0
C1808 C 0.806 0.1503 0.68062 0.0
C1809 C 0.85237 0.16763 0.72051 0.0
C1810 C 0.85215 0.16816 0.74325 0.0
C1811 C 0.84511 0.17076 0.73172 0.0
C1812 C 0.86646 0.16221 0.74332 0.0
C1813 C 0.86663 0.16176 0.7208 0.0
C1814 C 0.87361 0.15905 0.73217 0.0
C1815 C 0.84499 0.20437 0.67863 0.0
C1816 C 0.84468 0.17029 0.70862 0.0
C1817 C 0.89664 0.13278 0.68978 0.0
C1818 C 0.91136 0.15227 0.68805 0.0
C1819 C 0.86553 0.18652 0.65991 0.0
C1820 C 0.81872 0.17013 0.62022 0.0
C1821 C 0.82493 0.16602 0.60892 0.0
C1822 C 0.81886 0.17004 0.59745 0.0
C1823 C 0.80639 0.17821 0.5976 0.0
C1824 C 0.80616 0.17807 0.62013 0.0
C1825 C 0.80004 0.18207 0.60885 0.0
C1826 C 0.82731 0.13287 0.66189 0.0
C1827 C 0.82612 0.16676 0.63201 0.0
H1828 H 0.83422 0.17548 0.73144 0.0
H1829 H 0.87199 0.15981 0.75201 0.0
H1830 H 0.87234 0.15926 0.71226 0.0
H1831 H 0.88458 0.15444 0.73235 0.0
H1832 H 0.83442 0.15962 0.60911 0.0
H1833 H 0.80173 0.18192 0.58902 0.0
H1834 H 0.80124 0.18131 0.62874 0.0
H1835 H 0.79047 0.18837 0.60882 0.0
H1836 H 0.29604 0.85839 0.04951 0.0
H1837 H 0.32567 0.88061 0.03778 0.0
H1838 H 0.36269 0.88176 0.06821 0.0
H1839 H 0.33308 0.86009 0.08009 0.0
H1840 H 0.37647 0.91643 0.06072 0.0
H1841 H 0.35662 0.85606 0.03986 0.0
H1842 H 0.334 0.82537 0.0288 0.0
H1843 H 0.32698 0.85779 0.99922 0.0
H1844 H 0.34935 0.88867 0.01019 0.0
H1845 H 0.45992 0.9502 0.01359 0.0
H1846 H 0.42919 0.92291 0.02171 0.0
H1847 H 0.40566 0.9615 0.0273 0.0
H1848 H 0.43614 0.98868 0.019 0.0
H1849 H 0.38713 0.90519 0.01665 0.0
H1850 H 0.39008 0.95477 0.05753 0.0
H1851 H 0.41524 0.98389 0.06899 0.0
H1852 H 0.4599 0.96928 0.05973 0.0
H1853 H 0.43499 0.93992 0.04845 0.0
C1854 C 0.31053 0.8633 0.05364 0.0
C1855 C 0.31227 0.85755 0.06572 0.0
C1856 C 0.32747 0.87593 0.04691 0.0
C1857 C 0.34651 0.88272 0.05202 0.0
C1858 C 0.34822 0.87681 0.06405 0.0
C1859 C 0.33129 0.86443 0.07085 0.0
C1860 C 0.36463 0.8966 0.04506 0.0
C1861 C 0.37872 0.91385 0.0511 0.0
C1862 C 0.36794 0.89321 0.03255 0.0
C1863 C 0.35452 0.87467 0.02591 0.0
C1864 C 0.35014 0.85664 0.03104 0.0
C1865 C 0.33738 0.83921 0.02478 0.0
C1866 C 0.32902 0.83963 0.01333 0.0
C1867 C 0.33345 0.85748 0.0081 0.0
C1868 C 0.34618 0.87495 0.01433 0.0
C1869 C 0.44793 0.95269 0.01618 0.0
C1870 C 0.45029 0.97149 0.01559 0.0
C1871 C 0.43042 0.93711 0.02083 0.0
C1872 C 0.41526 0.94026 0.0252 0.0
C1873 C 0.41723 0.95881 0.02402 0.0
C1874 C 0.43462 0.9743 0.0193 0.0
C1875 C 0.39843 0.92495 0.03228 0.0
C1876 C 0.38471 0.90756 0.02628 0.0
C1877 C 0.39571 0.92787 0.04495 0.0
C1878 C 0.41068 0.94526 0.05203 0.0
C1879 C 0.40525 0.95772 0.058 0.0
C1880 C 0.41948 0.97428 0.06447 0.0
C1881 C 0.43918 0.97848 0.06506 0.0
C1882 C 0.44467 0.96607 0.05924 0.0
C1883 C 0.4305 0.94948 0.05281 0.0
H1884 H 0.45018 0.99131 0.07004 0.0
H1885 H 0.31914 0.82612 0.0085 0.0
H1886 H 0.13169 0.43423 0.06602 0.0
H1887 H 0.10588 0.43902 0.05631 0.0
H1888 H 0.15054 0.49569 0.04356 0.0
H1889 H 0.17642 0.49102 0.05329 0.0
H1890 H 0.11788 0.49601 0.05396 0.0
H1891 H 0.13045 0.45923 0.02333 0.0
H1892 H 0.13421 0.43185 0.01561 0.0
H1893 H 0.07391 0.39138 0.02537 0.0
H1894 H 0.06987 0.41851 0.03332 0.0
H1895 H 0.05042 0.50991 0.01685 0.0
H1896 H 0.07913 0.5074 0.02347 0.0
H1897 H 0.04078 0.44596 0.03044 0.0
H1898 H 0.01239 0.44819 0.02271 0.0
H1899 H 0.07243 0.4497 0.02189 0.0
H1900 H 0.06016 0.48548 0.05411 0.0
H1901 H 0.05604 0.51248 0.06224 0.0
H1902 H 0.11482 0.55402 0.05032 0.0
H1903 H 0.11921 0.52728 0.042 0.0
C1904 C 0.13601 0.44776 0.06121 0.0
C1905 C 0.15614 0.46221 0.06041 0.0
C1906 C 0.12125 0.45043 0.05559 0.0
C1907 C 0.12626 0.46766 0.04911 0.0
C1908 C 0.1463 0.48225 0.04847 0.0
C1909 C 0.16109 0.47951 0.05397 0.0
C1910 C 0.11058 0.4704 0.043 0.0
C1911 C 0.10807 0.48602 0.04684 0.0
C1912 C 0.09756 0.45721 0.03386 0.0
C1913 C 0.09992 0.44089 0.02903 0.0
C1914 C 0.11804 0.44448 0.02392 0.0
C1915 C 0.12021 0.429 0.01949 0.0
C1916 C 0.10432 0.40988 0.02003 0.0
C1917 C 0.08621 0.4062 0.02497 0.0
C1918 C 0.08397 0.42162 0.02943 0.0
C1919 C 0.04821 0.49577 0.01944 0.0
C1920 C 0.02922 0.47913 0.0189 0.0
C1921 C 0.06462 0.4944 0.02349 0.0
C1922 C 0.06223 0.47654 0.02775 0.0
C1923 C 0.04319 0.45992 0.0272 0.0
C1924 C 0.02692 0.4612 0.02282 0.0
C1925 C 0.07928 0.47507 0.03305 0.0
C1926 C 0.08215 0.45972 0.02902 0.0
C1927 C 0.09248 0.48838 0.04214 0.0
C1928 C 0.08995 0.5044 0.04735 0.0
C1929 C 0.07217 0.50038 0.05319 0.0
C1930 C 0.06979 0.51563 0.05782 0.0
C1931 C 0.08515 0.53495 0.05677 0.0
C1932 C 0.10294 0.53905 0.05111 0.0
C1933 C 0.10539 0.52386 0.04645 0.0
H1934 H 0.08331 0.54674 0.06036 0.0
H1935 H 0.10603 0.39792 0.01659 0.0
H1936 H 0.57784 0.70286 0.06675 0.0
H1937 H 0.57002 0.67164 0.05729 0.0
H1938 H 0.51801 0.66758 0.03984 0.0
H1939 H 0.52531 0.69844 0.04967 0.0
H1940 H 0.5097 0.63353 0.04983 0.0
H1941 H 0.56 0.6803 0.02316 0.0
H1942 H 0.59247 0.70863 0.01802 0.0
H1943 H 0.622 0.67957 0.03303 0.0
H1944 H 0.5897 0.65116 0.03843 0.0
H1945 H 0.49088 0.55678 0.0079 0.0
H1946 H 0.49936 0.58879 0.01623 0.0
H1947 H 0.54982 0.59226 0.0355 0.0
H1948 H 0.54173 0.56039 0.02699 0.0
H1949 H 0.5588 0.62669 0.02419 0.0
H1950 H 0.50827 0.58011 0.0511 0.0
H1951 H 0.47567 0.55154 0.05571 0.0
H1952 H 0.44646 0.5803 0.03977 0.0
H1953 H 0.47891 0.60894 0.03489 0.0
C1954 C 0.56465 0.69525 0.06098 0.0
C1955 C 0.55221 0.70315 0.05895 0.0
C1956 C 0.56031 0.67751 0.05548 0.0
C1957 C 0.54357 0.66741 0.04773 0.0
C1958 C 0.53106 0.67518 0.04574 0.0
C1959 C 0.53535 0.6929 0.05127 0.0
C1960 C 0.53894 0.64858 0.04187 0.0
C1961 C 0.52034 0.6321 0.04407 0.0
C1962 C 0.55297 0.64664 0.03458 0.0
C1963 C 0.57242 0.66368 0.03131 0.0
C1964 C 0.57342 0.68001 0.02546 0.0
C1965 C 0.5918 0.69607 0.02248 0.0
C1966 C 0.60929 0.69592 0.02523 0.0
C1967 C 0.60844 0.67968 0.03093 0.0
C1968 C 0.5901 0.66359 0.03394 0.0
C1969 C 0.50392 0.5644 0.01379 0.0
C1970 C 0.51567 0.55603 0.01674 0.0
C1971 C 0.50865 0.58265 0.01862 0.0
C1972 C 0.5251 0.59278 0.02657 0.0
C1973 C 0.53706 0.58465 0.02938 0.0
C1974 C 0.53234 0.56639 0.02455 0.0
C1975 C 0.52962 0.61172 0.03217 0.0
C1976 C 0.54818 0.62817 0.02992 0.0
C1977 C 0.51555 0.61366 0.0394 0.0
C1978 C 0.49602 0.5966 0.04253 0.0
C1979 C 0.4949 0.58029 0.04851 0.0
C1980 C 0.47645 0.56409 0.05118 0.0
C1981 C 0.459 0.56409 0.04801 0.0
C1982 C 0.45998 0.58032 0.04221 0.0
C1983 C 0.4784 0.59655 0.0395 0.0
H1984 H 0.44473 0.55152 0.05007 0.0
H1985 H 0.62351 0.70837 0.02291 0.0
H1986 H 0.8475 0.31539 0.92881 0.0
H1987 H 0.87317 0.34617 0.9379 0.0
H1988 H 0.86287 0.31927 0.97394 0.0
H1989 H 0.83763 0.28822 0.96489 0.0
H1990 H 0.86529 0.35607 0.97429 0.0
H1991 H 0.902 0.32631 0.95841 0.0
H1992 H 0.91231 0.31109 0.94222 0.0
H1993 H 0.93447 0.36276 0.92006 0.0
H1994 H 0.92402 0.37819 0.93606 0.0
H1995 H 0.94877 0.42741 0.00713 0.0
H1996 H 0.92396 0.39684 0.9974 0.0
H1997 H 0.94196 0.42296 0.96117 0.0
H1998 H 0.96701 0.4536 0.971 0.0
H1999 H 0.93519 0.38699 0.96035 0.0
H2000 H 0.89985 0.41752 0.97558 0.0
H2001 H 0.88918 0.43348 0.99103 0.0
H2002 H 0.8637 0.38175 0.01329 0.0
H2003 H 0.87456 0.36559 0.99809 0.0
C2004 C 0.85082 0.31589 0.93864 0.0
C2005 C 0.84049 0.29921 0.94609 0.0
C2006 C 0.86544 0.33356 0.94383 0.0
C2007 C 0.86999 0.33496 0.95658 0.0
C2008 C 0.85952 0.3185 0.96409 0.0
C2009 C 0.84502 0.30078 0.95889 0.0
C2010 C 0.88577 0.35357 0.96208 0.0
C2011 C 0.88063 0.36274 0.97136 0.0
C2012 C 0.90563 0.36253 0.95796 0.0
C2013 C 0.91204 0.35332 0.94838 0.0
C2014 C 0.90892 0.33437 0.95004 0.0
C2015 C 0.91482 0.32571 0.94091 0.0
C2016 C 0.92399 0.33593 0.9301 0.0
C2017 C 0.92734 0.35485 0.92843 0.0
C2018 C 0.92144 0.36356 0.93753 0.0
C2019 C 0.94723 0.42671 0.99713 0.0
C2020 C 0.9594 0.44297 0.98984 0.0
C2021 C 0.93313 0.40919 0.99155 0.0
C2022 C 0.93072 0.40771 0.97855 0.0
C2023 C 0.94344 0.42377 0.97121 0.0
C2024 C 0.95772 0.44125 0.97682 0.0
C2025 C 0.91479 0.38949 0.97267 0.0
C2026 C 0.91987 0.3804 0.96328 0.0
C2027 C 0.8948 0.38073 0.97658 0.0
C2028 C 0.88814 0.39037 0.98572 0.0
C2029 C 0.89209 0.40958 0.98381 0.0
C2030 C 0.886 0.41866 0.99252 0.0
C2031 C 0.87572 0.40861 0.00311 0.0
C2032 C 0.87162 0.3895 0.00506 0.0
C2033 C 0.87774 0.38037 0.9964 0.0
H2034 H 0.87093 0.41562 0.00981 0.0
H2035 H 0.92855 0.32921 0.92304 0.0
H2036 H 0.68513 0.50885 0.9559 0.0
H2037 H 0.65509 0.50481 0.96588 0.0
H2038 H 0.66675 0.56023 0.95132 0.0
H2039 H 0.69694 0.56448 0.94145 0.0
H2040 H 0.65701 0.55654 0.97593 0.0
H2041 H 0.6308 0.51819 0.93859 0.0
H2042 H 0.62538 0.49255 0.92333 0.0
H2043 H 0.59844 0.44889 0.95153 0.0
H2044 H 0.60396 0.47431 0.96701 0.0
H2045 H 0.56496 0.55121 0.98696 0.0
H2046 H 0.59604 0.55448 0.97967 0.0
H2047 H 0.57512 0.49417 0.98867 0.0
H2048 H 0.54325 0.49053 0.995 0.0
H2049 H 0.59023 0.49965 0.96762 0.0
H2050 H 0.61984 0.53727 0.00535 0.0
H2051 H 0.62718 0.56254 0.02142 0.0
H2052 H 0.64822 0.60659 0.99325 0.0
H2053 H 0.64123 0.58158 0.97711 0.0
C2054 C 0.68135 0.52022 0.95486 0.0
C2055 C 0.69348 0.537 0.94786 0.0
C2056 C 0.66406 0.51781 0.96049 0.0
C2057 C 0.65853 0.53214 0.95928 0.0
C2058 C 0.67066 0.54894 0.95236 0.0
C2059 C 0.68786 0.55129 0.94665 0.0
C2060 C 0.64037 0.52986 0.96546 0.0
C2061 C 0.64237 0.5442 0.97401 0.0
C2062 C 0.62131 0.51348 0.96328 0.0
C2063 C 0.618 0.49818 0.95399 0.0
C2064 C 0.62389 0.50314 0.94157 0.0
C2065 C 0.62076 0.48865 0.93287 0.0
C2066 C 0.61163 0.46911 0.93647 0.0
C2067 C 0.60555 0.46403 0.94876 0.0
C2068 C 0.60866 0.47847 0.9575 0.0
C2069 C 0.56715 0.53874 0.98761 0.0
C2070 C 0.5518 0.52074 0.99185 0.0
C2071 C 0.58509 0.54067 0.98355 0.0
C2072 C 0.58838 0.52473 0.98383 0.0
C2073 C 0.57317 0.50679 0.98839 0.0
C2074 C 0.55499 0.50475 0.99219 0.0
C2075 C 0.60678 0.52632 0.97824 0.0
C2076 C 0.60485 0.51191 0.9697 0.0
C2077 C 0.62597 0.54256 0.98051 0.0
C2078 C 0.62969 0.55755 0.99007 0.0
C2079 C 0.6258 0.55232 0.00263 0.0
C2080 C 0.63002 0.5666 0.01173 0.0
C2081 C 0.63798 0.58613 0.00835 0.0
C2082 C 0.64196 0.59145 0.99586 0.0
C2083 C 0.63799 0.57725 0.98674 0.0
H2084 H 0.64117 0.59714 0.0154 0.0
H2085 H 0.60921 0.45791 0.92972 0.0
H2086 H 0.48332 0.1693 0.94252 0.0
H2087 H 0.49189 0.14794 0.95416 0.0
H2088 H 0.43497 0.09832 0.94461 0.0
H2089 H 0.42622 0.11962 0.93311 0.0
H2090 H 0.44372 0.09917 0.96924 0.0
H2091 H 0.4755 0.10458 0.93026 0.0
H2092 H 0.49747 0.1208 0.9125 0.0
H2093 H 0.5479 0.14749 0.93715 0.0
H2094 H 0.52618 0.13164 0.9551 0.0
H2095 H 0.46042 0.02052 0.98132 0.0
H2096 H 0.45418 0.04466 0.97141 0.0
H2097 H 0.50954 0.09105 0.98614 0.0
H2098 H 0.51591 0.06695 0.99622 0.0
H2099 H 0.50304 0.09344 0.95998 0.0
H2100 H 0.47041 0.08564 0.99892 0.0
H2101 H 0.44793 0.06699 0.01597 0.0
H2102 H 0.39838 0.04293 0.99059 0.0
H2103 H 0.42062 0.0612 0.97333 0.0
C2104 C 0.47263 0.15384 0.94294 0.0
C2105 C 0.45411 0.14611 0.9369 0.0
C2106 C 0.47759 0.14165 0.94951 0.0
C2107 C 0.4641 0.12155 0.95018 0.0
C2108 C 0.44559 0.1138 0.94419 0.0
C2109 C 0.44068 0.12595 0.93755 0.0
C2110 C 0.46908 0.1086 0.95735 0.0
C2111 C 0.4566 0.09779 0.96714 0.0
C2112 C 0.48613 0.10716 0.95478 0.0
C2113 C 0.49916 0.11714 0.94405 0.0
C2114 C 0.49123 0.11412 0.93192 0.0
C2115 C 0.50365 0.1232 0.92181 0.0
C2116 C 0.52405 0.13524 0.9237 0.0
C2117 C 0.53208 0.13821 0.9357 0.0
C2118 C 0.51973 0.12918 0.94585 0.0
C2119 C 0.47125 0.03585 0.98252 0.0
C2120 C 0.48864 0.04183 0.98957 0.0
C2121 C 0.46762 0.04961 0.97688 0.0
C2122 C 0.48137 0.06959 0.97811 0.0
C2123 C 0.49876 0.07567 0.98512 0.0
C2124 C 0.5023 0.0619 0.99091 0.0
C2125 C 0.47763 0.08399 0.97177 0.0
C2126 C 0.49032 0.09504 0.96214 0.0
C2127 C 0.46069 0.08553 0.97442 0.0
C2128 C 0.44722 0.07468 0.9848 0.0
C2129 C 0.45475 0.07625 0.99695 0.0
C2130 C 0.44204 0.06577 0.00666 0.0
C2131 C 0.42174 0.05375 0.00436 0.0
C2132 C 0.4141 0.05224 0.99235 0.0
C2133 C 0.42675 0.06267 0.9826 0.0
H2134 H 0.41193 0.04564 0.01189 0.0
H2135 H 0.53365 0.1422 0.91586 0.0
H2136 H 0.68291 0.16172 0.94909 0.0
H2137 H 0.65405 0.13921 0.96127 0.0
H2138 H 0.65913 0.0907 0.94728 0.0
H2139 H 0.6881 0.11309 0.93519 0.0
H2140 H 0.62136 0.08306 0.94608 0.0
H2141 H 0.67375 0.10827 0.97683 0.0
H2142 H 0.70156 0.13393 0.98905 0.0
H2143 H 0.66316 0.15365 0.00348 0.0
H2144 H 0.63517 0.12827 0.99121 0.0
H2145 H 0.56355 0.00884 0.98831 0.0
H2146 H 0.5942 0.03566 0.97986 0.0
H2147 H 0.57227 0.07536 0.9862 0.0
H2148 H 0.5412 0.04841 0.99415 0.0
H2149 H 0.61756 0.08883 0.99189 0.0
H2150 H 0.56601 0.06545 0.96044 0.0
H2151 H 0.53785 0.03994 0.94842 0.0
H2152 H 0.57451 0.01718 0.93554 0.0
H2153 H 0.6029 0.04252 0.94762 0.0
C2154 C 0.67803 0.14628 0.9487 0.0
C2155 C 0.68787 0.13924 0.94115 0.0
C2156 C 0.6615 0.13343 0.95567 0.0
C2157 C 0.65451 0.11327 0.95527 0.0
C2158 C 0.66423 0.10619 0.9477 0.0
C2159 C 0.68075 0.11902 0.94075 0.0
C2160 C 0.63682 0.09945 0.96252 0.0
C2161 C 0.62068 0.08428 0.9561 0.0
C2162 C 0.63562 0.10128 0.97558 0.0
C2163 C 0.65242 0.11651 0.98299 0.0
C2164 C 0.67128 0.11819 0.98253 0.0
C2165 C 0.68706 0.13266 0.98948 0.0
C2166 C 0.68414 0.14545 0.99701 0.0
C2167 C 0.66541 0.14375 0.99763 0.0
C2168 C 0.64958 0.12932 0.99068 0.0
C2169 C 0.56546 0.02338 0.98816 0.0
C2170 C 0.5501 0.02659 0.99204 0.0
C2171 C 0.58294 0.03866 0.98335 0.0
C2172 C 0.58542 0.05742 0.98242 0.0
C2173 C 0.57063 0.06098 0.98695 0.0
C2174 C 0.55294 0.04558 0.99155 0.0
C2175 C 0.60242 0.07255 0.9754 0.0
C2176 C 0.61834 0.08783 0.98185 0.0
C2177 C 0.60344 0.07096 0.96236 0.0
C2178 C 0.58649 0.05572 0.95505 0.0
C2179 C 0.56801 0.05488 0.95515 0.0
C2180 C 0.55201 0.04048 0.9483 0.0
C2181 C 0.55434 0.02687 0.94125 0.0
C2182 C 0.57271 0.0277 0.94102 0.0
C2183 C 0.58877 0.0421 0.94785 0.0
H2184 H 0.54195 0.01574 0.93594 0.0
H2185 H 0.69638 0.15664 0.00239 0.0
H2186 H 0.87827 0.55945 0.93042 0.0
H2187 H 0.90179 0.55339 0.94185 0.0
H2188 H 0.85396 0.50899 0.96321 0.0
H2189 H 0.83007 0.51423 0.95143 0.0
H2190 H 0.88689 0.53628 0.97771 0.0
H2191 H 0.87366 0.49478 0.94197 0.0
H2192 H 0.87084 0.48704 0.91954 0.0
H2193 H 0.93263 0.52877 0.9149 0.0
H2194 H 0.93574 0.537 0.93728 0.0
H2195 H 0.94898 0.48785 0.99216 0.0
H2196 H 0.92136 0.49173 0.9844 0.0
H2197 H 0.96167 0.55306 0.97893 0.0
H2198 H 0.98896 0.5495 0.98736 0.0
H2199 H 0.93063 0.51559 0.95748 0.0
H2200 H 0.94243 0.56098 0.99225 0.0
H2201 H 0.94374 0.57249 0.01373 0.0
H2202 H 0.88399 0.52631 0.0196 0.0
H2203 H 0.88265 0.51404 0.99826 0.0
C2204 C 0.87258 0.54811 0.93737 0.0
C2205 C 0.85209 0.53727 0.93988 0.0
C2206 C 0.88614 0.54475 0.94396 0.0
C2207 C 0.87964 0.53064 0.95333 0.0
C2208 C 0.85931 0.51996 0.95602 0.0
C2209 C 0.84567 0.52311 0.94931 0.0
C2210 C 0.89418 0.52744 0.96052 0.0
C2211 C 0.89628 0.53147 0.97333 0.0
C2212 C 0.90671 0.5216 0.95474 0.0
C2213 C 0.90488 0.51664 0.94129 0.0
C2214 C 0.8866 0.50244 0.93615 0.0
C2215 C 0.88496 0.49794 0.92345 0.0
C2216 C 0.90153 0.50744 0.9158 0.0
C2217 C 0.9198 0.52144 0.92084 0.0
C2218 C 0.92151 0.52601 0.93353 0.0
C2219 C 0.95176 0.50228 0.98979 0.0
C2220 C 0.97104 0.51849 0.99074 0.0
C2221 C 0.93598 0.50449 0.98533 0.0
C2222 C 0.93926 0.52285 0.98151 0.0
C2223 C 0.95855 0.53895 0.98234 0.0
C2224 C 0.97419 0.53684 0.98702 0.0
C2225 C 0.92351 0.5246 0.97471 0.0
C2226 C 0.92114 0.52021 0.96191 0.0
C2227 C 0.91091 0.53039 0.98049 0.0
C2228 C 0.91274 0.53614 0.99378 0.0
C2229 C 0.92987 0.55279 0.99825 0.0
C2230 C 0.93051 0.55963 0.01036 0.0
C2231 C 0.914 0.55009 0.01806 0.0
C2232 C 0.89681 0.53365 0.01366 0.0
C2233 C 0.89617 0.52665 1.00159 0.0
H2234 H 0.9145 0.55548 0.02741 0.0
H2235 H 0.90023 0.50393 0.90597 0.0
H2236 H 0.48424 0.30861 0.95349 0.0
H2237 H 0.4906 0.33929 0.96309 0.0
H2238 H 0.43547 0.33107 0.94796 0.0
H2239 H 0.4287 0.30008 0.93858 0.0
H2240 H 0.46722 0.36903 0.94494 0.0
H2241 H 0.43717 0.32182 0.97746 0.0
H2242 H 0.43336 0.29536 0.99125 0.0
H2243 H 0.49181 0.33246 0.00626 0.0
H2244 H 0.49608 0.35907 0.99242 0.0
H2245 H 0.46096 0.44067 0.98109 0.0
H2246 H 0.45376 0.40964 0.97168 0.0
H2247 H 0.50631 0.41467 0.98898 0.0
H2248 H 0.51353 0.44562 0.99856 0.0
H2249 H 0.47561 0.37825 0.99074 0.0
H2250 H 0.50594 0.42561 0.95851 0.0
H2251 H 0.50991 0.45249 0.94506 0.0
H2252 H 0.45182 0.4157 0.92948 0.0
H2253 H 0.44735 0.38868 0.943 0.0
C2254 C 0.47334 0.31319 0.95231 0.0
C2255 C 0.4559 0.3018 0.94531 0.0
C2256 C 0.47707 0.33079 0.95774 0.0
C2257 C 0.46344 0.33736 0.95628 0.0
C2258 C 0.44619 0.32626 0.94915 0.0
C2259 C 0.4424 0.30859 0.94376 0.0
C2260 C 0.46707 0.35568 0.96239 0.0
C2261 C 0.46882 0.371 0.95496 0.0
C2262 C 0.46957 0.35832 0.97544 0.0
C2263 C 0.46702 0.34237 0.98381 0.0
C2264 C 0.44927 0.32428 0.98362 0.0
C2265 C 0.44702 0.30927 0.99146 0.0
C2266 C 0.46236 0.31221 0.9996 0.0
C2267 C 0.47996 0.3302 0.99994 0.0
C2268 C 0.48229 0.34525 0.9921 0.0
C2269 C 0.47097 0.43517 0.98293 0.0
C2270 C 0.48784 0.44564 0.99057 0.0
C2271 C 0.46686 0.41746 0.97751 0.0
C2272 C 0.47966 0.41 0.97949 0.0
C2273 C 0.49626 0.42019 0.98732 0.0
C2274 C 0.50035 0.43787 0.9928 0.0
C2275 C 0.47583 0.39166 0.9733 0.0
C2276 C 0.47405 0.37632 0.98071 0.0
C2277 C 0.47341 0.38907 0.96023 0.0
C2278 C 0.47624 0.40516 0.95186 0.0
C2279 C 0.49396 0.42327 0.95227 0.0
C2280 C 0.4963 0.43854 0.94463 0.0
C2281 C 0.48111 0.43582 0.93644 0.0
C2282 C 0.46357 0.41779 0.93584 0.0
C2283 C 0.46112 0.40249 0.94349 0.0
H2284 H 0.48294 0.44767 0.93055 0.0
H2285 H 0.46058 0.30057 0.00566 0.0
H2286 H 0.17642 0.69468 0.0516 0.0
H2287 H 0.15101 0.66347 0.04284 0.0
H2288 H 0.10537 0.67129 0.05992 0.0
H2289 H 0.13074 0.70259 0.06871 0.0
H2290 H 0.09823 0.63489 0.06318 0.0
H2291 H 0.11424 0.67804 0.0287 0.0
H2292 H 0.13611 0.70284 0.01366 0.0
H2293 H 0.15582 0.66419 1.00024 0.0
H2294 H 0.13427 0.63924 0.01533 0.0
H2295 H 0.0182 0.55773 0.02859 0.0
H2296 H 0.04198 0.58944 0.03773 0.0
H2297 H 0.09033 0.58462 0.02209 0.0
H2298 H 0.06679 0.55305 0.01298 0.0
H2299 H 0.09505 0.62005 0.01805 0.0
H2300 H 0.0784 0.57671 0.05291 0.0
H2301 H 0.0568 0.55267 0.06845 0.0
H2302 H 0.03793 0.59224 0.08128 0.0
H2303 H 0.05902 0.61634 0.06566 0.0
C2304 C 0.16097 0.68988 0.05338 0.0
C2305 C 0.15562 0.70119 0.06081 0.0
C2306 C 0.14645 0.672 0.04838 0.0
C2307 C 0.12625 0.66512 0.0506 0.0
C2308 C 0.12086 0.67629 0.05809 0.0
C2309 C 0.13538 0.69416 0.06313 0.0
C2310 C 0.1108 0.64614 0.04523 0.0
C2311 C 0.09732 0.63174 0.05328 0.0
C2312 C 0.10984 0.6419 0.03235 0.0
C2313 C 0.12278 0.65684 0.02323 0.0
C2314 C 0.12336 0.67488 0.02261 0.0
C2315 C 0.13568 0.68896 0.01406 0.0
C2316 C 0.14739 0.68511 0.00602 0.0
C2317 C 0.14676 0.66715 0.00648 0.0
C2318 C 0.13448 0.65304 0.01503 0.0
C2319 C 0.0339 0.5634 0.02712 0.0
C2320 C 0.04056 0.55292 0.01993 0.0
C2321 C 0.04748 0.58151 0.03239 0.0
C2322 C 0.06796 0.58939 0.03064 0.0
C2323 C 0.07461 0.57889 0.02351 0.0
C2324 C 0.06109 0.56084 0.01827 0.0
C2325 C 0.08256 0.60872 0.03601 0.0
C2326 C 0.09588 0.62321 0.02794 0.0
C2327 C 0.08328 0.61305 0.04887 0.0
C2328 C 0.07016 0.59828 0.05802 0.0
C2329 C 0.06945 0.5802 0.05893 0.0
C2330 C 0.05734 0.56657 0.06777 0.0
C2331 C 0.04606 0.57096 0.07584 0.0
C2332 C 0.0467 0.58888 0.07502 0.0
C2333 C 0.0587 0.60251 0.06617 0.0
H2334 H 0.03691 0.56053 0.08279 0.0
H2335 H 0.15691 0.69602 0.99941 0.0
H2336 H 0.31818 0.43912 0.07625 0.0
H2337 H 0.34766 0.44565 0.0646 0.0
H2338 H 0.34438 0.49069 0.04415 0.0
H2339 H 0.31536 0.48495 0.05616 0.0
H2340 H 0.34984 0.46436 0.02897 0.0
H2341 H 0.37888 0.50426 0.06528 0.0
H2342 H 0.38442 0.51155 0.08775 0.0
H2343 H 0.40396 0.46976 0.09166 0.0
H2344 H 0.39822 0.46197 0.06924 0.0
H2345 H 0.46018 0.51084 0.01391 0.0
H2346 H 0.42879 0.50743 0.02136 0.0
H2347 H 0.40693 0.44652 0.02853 0.0
H2348 H 0.43778 0.44961 0.02058 0.0
H2349 H 0.41444 0.48353 0.04933 0.0
H2350 H 0.37945 0.43936 0.01422 0.0
H2351 H 0.36961 0.42887 0.99247 0.0
H2352 H 0.35921 0.47674 0.98678 0.0
H2353 H 0.36956 0.48783 0.00844 0.0
C2354 C 0.32385 0.4507 0.06947 0.0
C2355 C 0.31426 0.46155 0.06728 0.0
C2356 C 0.3407 0.45432 0.06274 0.0
C2357 C 0.34834 0.46875 0.05355 0.0
C2358 C 0.33875 0.47946 0.05119 0.0
C2359 C 0.32202 0.47603 0.05803 0.0
C2360 C 0.36609 0.47231 0.04628 0.0
C2361 C 0.36406 0.46885 0.03339 0.0
C2362 C 0.38456 0.47781 0.05208 0.0
C2363 C 0.38792 0.48239 0.06559 0.0
C2364 C 0.38416 0.49647 0.07095 0.0
C2365 C 0.38738 0.50072 0.08368 0.0
C2366 C 0.39448 0.49108 0.09114 0.0
C2367 C 0.39842 0.47719 0.08588 0.0
C2368 C 0.3952 0.47286 0.07316 0.0
C2369 C 0.44836 0.49656 0.01658 0.0
C2370 C 0.45128 0.48037 0.01639 0.0
C2371 C 0.43045 0.49464 0.02088 0.0
C2372 C 0.4153 0.4766 0.02523 0.0
C2373 C 0.41812 0.46042 0.02487 0.0
C2374 C 0.43583 0.46225 0.0204 0.0
C2375 C 0.39809 0.47528 0.03204 0.0
C2376 C 0.40028 0.47925 0.04488 0.0
C2377 C 0.37971 0.47 0.02622 0.0
C2378 C 0.37583 0.46474 0.01285 0.0
C2379 C 0.37569 0.44801 0.00823 0.0
C2380 C 0.36977 0.44181 0.99596 0.0
C2381 C 0.36376 0.45211 0.98824 0.0
C2382 C 0.36385 0.46876 0.99276 0.0
C2383 C 0.36987 0.47507 0.00501 0.0
H2384 H 0.3591 0.44723 0.97876 0.0
H2385 H 0.39698 0.49441 0.10099 0.0
H2386 H 0.55003 0.86932 0.08432 0.0
H2387 H 0.54 0.8896 0.07287 0.0
H2388 H 0.5611 0.87755 0.03878 0.0
H2389 H 0.57207 0.858 0.05027 0.0
H2390 H 0.57046 0.91458 0.03955 0.0
H2391 H 0.51153 0.8534 0.04586 0.0
H2392 H 0.48666 0.82532 0.05778 0.0
H2393 H 0.47338 0.86335 0.07913 0.0
H2394 H 0.49839 0.89172 0.06745 0.0
H2395 H 0.51677 0.9457 1.00039 0.0
H2396 H 0.52604 0.92354 0.01041 0.0
H2397 H 0.51768 0.9424 0.04647 0.0
H2398 H 0.50856 0.96461 0.03651 0.0
H2399 H 0.50101 0.90059 0.04345 0.0
H2400 H 0.56161 0.96191 0.03719 0.0
H2401 H 0.58559 0.98927 0.02439 0.0
H2402 H 0.59471 0.94949 1.00184 0.0
H2403 H 0.57047 0.92183 0.01438 0.0
C2404 C 0.55287 0.87125 0.07443 0.0
C2405 C 0.56174 0.86191 0.06821 0.0
C2406 C 0.5469 0.88266 0.06786 0.0
C2407 C 0.54942 0.88477 0.05492 0.0
C2408 C 0.55885 0.876 0.04874 0.0
C2409 C 0.56495 0.86469 0.05532 0.0
C2410 C 0.54196 0.89588 0.04783 0.0
C2411 C 0.55519 0.91131 0.04027 0.0
C2412 C 0.52208 0.89175 0.04883 0.0
C2413 C 0.50697 0.87471 0.05585 0.0
C2414 C 0.50342 0.8558 0.05316 0.0
C2415 C 0.48928 0.83982 0.05986 0.0
C2416 C 0.47848 0.84255 0.06923 0.0
C2417 C 0.48177 0.86126 0.07189 0.0
C2418 C 0.49592 0.87729 0.06522 0.0
C2419 C 0.51657 0.94483 0.01042 0.0
C2420 C 0.51192 0.95677 0.01768 0.0
C2421 C 0.52199 0.9323 0.01613 0.0
C2422 C 0.52257 0.93143 0.02916 0.0
C2423 C 0.51728 0.94288 0.0364 0.0
C2424 C 0.51221 0.95561 0.03071 0.0
C2425 C 0.52955 0.91927 0.03533 0.0
C2426 C 0.51622 0.90369 0.0427 0.0
C2427 C 0.54925 0.92313 0.03405 0.0
C2428 C 0.56406 0.93978 0.02663 0.0
C2429 C 0.56859 0.95897 0.02944 0.0
C2430 C 0.58225 0.97454 0.02224 0.0
C2431 C 0.59163 0.97112 0.01229 0.0
C2432 C 0.58741 0.95212 0.00954 0.0
C2433 C 0.57371 0.93649 0.01669 0.0
H2434 H 0.6022 0.98318 0.00672 0.0
H2435 H 0.46754 0.83016 0.07441 0.0
H2436 H 0.0021 0.18504 0.40946 0.0
H2437 H 0.03059 0.20658 0.39659 0.0
H2438 H 0.99289 0.22043 0.3744 0.0
H2439 H 0.96423 0.1979 0.38682 0.0
H2440 H 0.01691 0.21795 0.35973 0.0
H2441 H 0.02626 0.25209 0.39881 0.0
H2442 H 0.02913 0.25546 0.42169 0.0
H2443 H 0.07914 0.24641 0.42113 0.0
H2444 H 0.07655 0.24297 0.39825 0.0
H2445 H 0.10164 0.32069 0.3498 0.0
H2446 H 0.07061 0.29313 0.35716 0.0
H2447 H 0.09554 0.25543 0.35365 0.0
H2448 H 0.12697 0.28319 0.34665 0.0
H2449 H 0.0785 0.26892 0.38027 0.0
H2450 H 0.04019 0.21315 0.34118 0.0
H2451 H 0.03193 0.21025 0.31877 0.0
H2452 H 0.03615 0.2665 0.31973 0.0
H2453 H 0.04416 0.26957 0.34214 0.0
C2454 C 1.0 0.19269 0.40179 0.0
C2455 C 0.98114 0.19002 0.39913 0.0
C2456 C 0.01627 0.20507 0.39448 0.0
C2457 C 0.01407 0.21554 0.38464 0.0
C2458 C 0.99505 0.21259 0.38191 0.0
C2459 C 0.97871 0.19982 0.38903 0.0
C2460 C 0.03155 0.22984 0.37733 0.0
C2461 C 0.03037 0.22905 0.36426 0.0
C2462 C 0.04917 0.2445 0.38315 0.0
C2463 C 0.05109 0.2471 0.39685 0.0
C2464 C 0.03784 0.25078 0.40358 0.0
C2465 C 0.03942 0.25271 0.41654 0.0
C2466 C 0.05424 0.25105 0.42286 0.0
C2467 C 0.06762 0.24761 0.41622 0.0
C2468 C 0.06616 0.24576 0.40326 0.0
C2469 C 0.1003 0.30639 0.35024 0.0
C2470 C 0.11663 0.30403 0.34753 0.0
C2471 C 0.08255 0.29066 0.35438 0.0
C2472 C 0.08069 0.27221 0.35575 0.0
C2473 C 0.09659 0.2695 0.35242 0.0
C2474 C 0.11451 0.28534 0.34838 0.0
C2475 C 0.06368 0.25702 0.36276 0.0
C2476 C 0.06508 0.25764 0.37579 0.0
C2477 C 0.04608 0.24263 0.35692 0.0
C2478 C 0.04318 0.24175 0.34327 0.0
C2479 C 0.03956 0.22497 0.33656 0.0
C2480 C 0.03475 0.22323 0.32389 0.0
C2481 C 0.03341 0.23814 0.31785 0.0
C2482 C 0.03716 0.25495 0.32443 0.0
C2483 C 0.04198 0.25676 0.3371 0.0
H2484 H 0.02962 0.23674 0.30805 0.0
H2485 H 0.05542 0.25251 0.43289 0.0
H2486 H 0.81601 0.80634 0.41143 0.0
H2487 H 0.78928 0.8099 0.40232 0.0
H2488 H 0.8072 0.80303 0.3656 0.0
H2489 H 0.83281 0.79771 0.37465 0.0
H2490 H 0.78622 0.83401 0.38842 0.0
H2491 H 0.76898 0.78313 0.34548 0.0
H2492 H 0.77045 0.75377 0.33934 0.0
H2493 H 0.76565 0.73673 0.3776 0.0
H2494 H 0.7639 0.76584 0.38396 0.0
H2495 H 0.71798 0.84589 0.35051 0.0
H2496 H 0.74686 0.84402 0.35772 0.0
H2497 H 0.70888 0.7829 0.36581 0.0
H2498 H 0.68031 0.78452 0.35775 0.0
H2499 H 0.7403 0.78644 0.35707 0.0
H2500 H 0.72774 0.82179 0.38891 0.0
H2501 H 0.72272 0.84819 0.39712 0.0
H2502 H 0.78106 0.89092 0.38522 0.0
H2503 H 0.78637 0.86476 0.37684 0.0
C2504 C 0.8141 0.80517 0.40142 0.0
C2505 C 0.82662 0.80144 0.39386 0.0
C2506 C 0.7989 0.80752 0.39619 0.0
C2507 C 0.79588 0.80645 0.38324 0.0
C2508 C 0.8088 0.80348 0.37563 0.0
C2509 C 0.82376 0.80074 0.38086 0.0
C2510 C 0.77905 0.80811 0.37776 0.0
C2511 C 0.7762 0.82358 0.38157 0.0
C2512 C 0.76565 0.79441 0.36892 0.0
C2513 C 0.76655 0.77679 0.36519 0.0
C2514 C 0.76819 0.77309 0.35257 0.0
C2515 C 0.76908 0.75649 0.34906 0.0
C2516 C 0.76822 0.74343 0.35808 0.0
C2517 C 0.76639 0.7469 0.37063 0.0
C2518 C 0.76547 0.76345 0.3742 0.0
C2519 C 0.7159 0.83198 0.35356 0.0
C2520 C 0.69698 0.81522 0.35327 0.0
C2521 C 0.73239 0.83097 0.35789 0.0
C2522 C 0.73015 0.81336 0.36252 0.0
C2523 C 0.71116 0.79666 0.36225 0.0
C2524 C 0.69479 0.79759 0.35769 0.0
C2525 C 0.74735 0.81221 0.36781 0.0
C2526 C 0.75034 0.79689 0.36391 0.0
C2527 C 0.76038 0.82561 0.37691 0.0
C2528 C 0.75738 0.84133 0.38215 0.0
C2529 C 0.73947 0.83682 0.388 0.0
C2530 C 0.73657 0.85174 0.39269 0.0
C2531 C 0.75153 0.87122 0.39164 0.0
C2532 C 0.76947 0.87582 0.38599 0.0
C2533 C 0.77245 0.86096 0.3813 0.0
H2534 H 0.74924 0.88276 0.39522 0.0
H2535 H 0.76892 0.73061 0.35534 0.0
H2536 H 0.19768 0.03474 0.38251 0.0
H2537 H 0.18998 0.00363 0.37297 0.0
H2538 H 0.24302 0.00843 0.38931 0.0
H2539 H 0.2512 0.03996 0.39858 0.0
H2540 H 0.23797 0.99573 0.36534 0.0
H2541 H 0.1985 0.97929 0.40222 0.0
H2542 H 0.17453 0.98019 0.41675 0.0
H2543 H 0.12944 0.95685 0.38828 0.0
H2544 H 0.15323 0.95607 0.37352 0.0
H2545 H 0.21262 0.89653 0.35922 0.0
H2546 H 0.22119 0.92868 0.36738 0.0
H2547 H 0.16859 0.92372 0.35023 0.0
H2548 H 0.15966 0.89136 0.3422 0.0
H2549 H 0.17343 0.93663 0.37429 0.0
H2550 H 0.21296 0.95239 0.33751 0.0
H2551 H 0.23693 0.951 0.32324 0.0
H2552 H 0.28199 0.97525 0.35169 0.0
H2553 H 0.25819 0.97651 0.36622 0.0
C2554 C 0.20787 0.02933 0.38394 0.0
C2555 C 0.22504 0.0398 0.39132 0.0
C2556 C 0.20334 0.01145 0.37857 0.0
C2557 C 0.2158 0.00362 0.38057 0.0
C2558 C 0.23317 0.01421 0.38771 0.0
C2559 C 0.23773 0.03212 0.39307 0.0
C2560 C 0.21052 0.98424 0.37535 0.0
C2561 C 0.22397 0.98276 0.36741 0.0
C2562 C 0.19206 0.96741 0.37786 0.0
C2563 C 0.17771 0.96781 0.38673 0.0
C2564 C 0.18352 0.9745 0.39903 0.0
C2565 C 0.16996 0.97496 0.40731 0.0
C2566 C 0.15049 0.96863 0.40343 0.0
C2567 C 0.14453 0.96178 0.39127 0.0
C2568 C 0.15804 0.96131 0.38294 0.0
C2569 C 0.20287 0.90226 0.35715 0.0
C2570 C 0.18555 0.89145 0.34995 0.0
C2571 C 0.20785 0.92068 0.36178 0.0
C2572 C 0.19565 0.92865 0.35928 0.0
C2573 C 0.17825 0.91784 0.3522 0.0
C2574 C 0.17326 0.89942 0.34755 0.0
C2575 C 0.20086 0.94813 0.36426 0.0
C2576 C 0.1874 0.94962 0.37218 0.0
C2577 C 0.21932 0.96493 0.36175 0.0
C2578 C 0.23373 0.96438 0.35299 0.0
C2579 C 0.22794 0.95729 0.34076 0.0
C2580 C 0.2415 0.95655 0.33262 0.0
C2581 C 0.26096 0.96299 0.33656 0.0
C2582 C 0.26691 0.97025 0.34865 0.0
C2583 C 0.25339 0.971 0.35684 0.0
H2584 H 0.27144 0.9624 0.33025 0.0
H2585 H 0.14001 0.969 0.40985 0.0
H2586 H 0.50934 0.65109 0.2654 0.0
H2587 H 0.53471 0.68195 0.27467 0.0
H2588 H 0.54178 0.65046 0.30513 0.0
H2589 H 0.51585 0.61968 0.29609 0.0
H2590 H 0.54165 0.68014 0.31409 0.0
H2591 H 0.57653 0.67141 0.28029 0.0
H2592 H 0.58254 0.66586 0.25854 0.0
H2593 H 0.58293 0.71817 0.24752 0.0
H2594 H 0.57683 0.72398 0.2692 0.0
H2595 H 0.64818 0.77257 0.31655 0.0
H2596 H 0.62429 0.74083 0.30761 0.0
H2597 H 0.57608 0.7488 0.31996 0.0
H2598 H 0.59981 0.78024 0.32919 0.0
H2599 H 0.59825 0.73014 0.28991 0.0
H2600 H 0.53616 0.70697 0.32636 0.0
H2601 H 0.53246 0.71057 0.34886 0.0
H2602 H 0.5905 0.71858 0.35572 0.0
H2603 H 0.59454 0.71505 0.33328 0.0
C2604 C 0.5164 0.6508 0.27405 0.0
C2605 C 0.51067 0.63303 0.28004 0.0
C2606 C 0.53097 0.66843 0.27932 0.0
C2607 C 0.54045 0.66858 0.29052 0.0
C2608 C 0.53471 0.65078 0.29649 0.0
C2609 C 0.5199 0.63319 0.29133 0.0
C2610 C 0.55594 0.68728 0.29622 0.0
C2611 C 0.55403 0.69102 0.30878 0.0
C2612 C 0.57233 0.70147 0.2894 0.0
C2613 C 0.57604 0.69803 0.27635 0.0
C2614 C 0.57779 0.68167 0.27322 0.0
C2615 C 0.58126 0.6785 0.2609 0.0
C2616 C 0.58312 0.69165 0.25165 0.0
C2617 C 0.58153 0.70802 0.2547 0.0
C2618 C 0.5781 0.71127 0.267 0.0
C2619 C 0.63249 0.76753 0.31741 0.0
C2620 C 0.62591 0.77886 0.32369 0.0
C2621 C 0.61884 0.74939 0.31227 0.0
C2622 C 0.59835 0.74225 0.31325 0.0
C2623 C 0.59178 0.75373 0.31933 0.0
C2624 C 0.60539 0.77176 0.32458 0.0
C2625 C 0.58386 0.72297 0.30773 0.0
C2626 C 0.5859 0.71919 0.2952 0.0
C2627 C 0.56789 0.70851 0.31466 0.0
C2628 C 0.56569 0.71087 0.32814 0.0
C2629 C 0.54811 0.70947 0.33268 0.0
C2630 C 0.54597 0.71153 0.34542 0.0
C2631 C 0.56123 0.71478 0.35371 0.0
C2632 C 0.5787 0.71606 0.34928 0.0
C2633 C 0.58096 0.71413 0.33655 0.0
H2634 H 0.55954 0.71636 0.36357 0.0
H2635 H 0.5858 0.68918 0.24212 0.0
H2636 H 0.36491 0.89847 0.27429 0.0
H2637 H 0.33459 0.89359 0.28437 0.0
H2638 H 0.32269 0.83723 0.29725 0.0
H2639 H 0.35299 0.84201 0.28716 0.0
H2640 H 0.28878 0.83703 0.28737 0.0
H2641 H 0.34089 0.87339 0.31722 0.0
H2642 H 0.37313 0.90058 0.32437 0.0
H2643 H 0.354 0.94153 0.31553 0.0
H2644 H 0.32174 0.91461 0.30815 0.0
H2645 H 0.21051 0.82435 0.32695 0.0
H2646 H 0.24147 0.82666 0.31983 0.0
H2647 H 0.26448 0.88745 0.31121 0.0
H2648 H 0.23405 0.8854 0.31903 0.0
H2649 H 0.29313 0.88364 0.32002 0.0
H2650 H 0.24273 0.84902 0.28868 0.0
H2651 H 0.21022 0.82275 0.28113 0.0
H2652 H 0.22575 0.77978 0.29176 0.0
H2653 H 0.25828 0.80581 0.29953 0.0
C2654 C 0.35576 0.88497 0.27918 0.0
C2655 C 0.36142 0.87066 0.27996 0.0
C2656 C 0.33849 0.88224 0.285 0.0
C2657 C 0.32643 0.8651 0.29165 0.0
C2658 C 0.33178 0.85059 0.2922 0.0
C2659 C 0.34917 0.8534 0.2865 0.0
C2660 C 0.30844 0.86252 0.2982 0.0
C2661 C 0.28973 0.84706 0.29463 0.0
C2662 C 0.30962 0.87579 0.30751 0.0
C2663 C 0.32896 0.89199 0.31202 0.0
C2664 C 0.34361 0.88821 0.3167 0.0
C2665 C 0.36188 0.90357 0.32082 0.0
C2666 C 0.36563 0.92277 0.32038 0.0
C2667 C 0.35109 0.92665 0.31585 0.0
C2668 C 0.3328 0.91134 0.31171 0.0
C2669 C 0.22239 0.8383 0.32382 0.0
C2670 C 0.22003 0.8548 0.32374 0.0
C2671 C 0.23999 0.83956 0.31958 0.0
C2672 C 0.25528 0.85716 0.31474 0.0
C2673 C 0.253 0.8737 0.31489 0.0
C2674 C 0.23557 0.87252 0.31931 0.0
C2675 C 0.27333 0.85834 0.30905 0.0
C2676 C 0.29211 0.87353 0.3128 0.0
C2677 C 0.27217 0.84498 0.29977 0.0
C2678 C 0.25286 0.82935 0.29479 0.0
C2679 C 0.23918 0.83396 0.28945 0.0
C2680 C 0.22075 0.81912 0.28513 0.0
C2681 C 0.2159 0.79961 0.286 0.0
C2682 C 0.22952 0.7949 0.29112 0.0
C2683 C 0.24797 0.8097 0.29546 0.0
H2684 H 0.2016 0.78813 0.28269 0.0
H2685 H 0.37978 0.93465 0.32357 0.0
H2686 H 0.08382 0.44755 0.2682 0.0
H2687 H 0.0935 0.42663 0.27927 0.0
H2688 H 0.14635 0.47755 0.29294 0.0
H2689 H 0.13717 0.49854 0.28151 0.0
H2690 H 0.15458 0.45035 0.28499 0.0
H2691 H 0.10638 0.4522 0.31171 0.0
H2692 H 0.07411 0.44898 0.3171 0.0
H2693 H 0.04451 0.38829 0.30683 0.0
H2694 H 0.07659 0.39121 0.3012 0.0
H2695 H 0.17773 0.40024 0.33136 0.0
H2696 H 0.16853 0.42255 0.3216 0.0
H2697 H 0.1177 0.37364 0.30435 0.0
H2698 H 0.12668 0.35127 0.31404 0.0
H2699 H 0.10901 0.40064 0.31482 0.0
H2700 H 0.15771 0.39903 0.28834 0.0
H2701 H 0.19017 0.40246 0.28331 0.0
H2702 H 0.21909 0.46334 0.29302 0.0
H2703 H 0.1869 0.46011 0.2986 0.0
C2704 C 0.09759 0.45429 0.27347 0.0
C2705 C 0.10969 0.47471 0.27402 0.0
C2706 C 0.103 0.44233 0.27989 0.0
C2707 C 0.12051 0.45056 0.28706 0.0
C2708 C 0.13273 0.47091 0.28751 0.0
C2709 C 0.12736 0.48288 0.28107 0.0
C2710 C 0.1262 0.43794 0.294 0.0
C2711 C 0.14475 0.43969 0.29166 0.0
C2712 C 0.11319 0.42379 0.30252 0.0
C2713 C 0.09388 0.42197 0.30592 0.0
C2714 C 0.09298 0.4382 0.31051 0.0
C2715 C 0.07472 0.43643 0.31362 0.0
C2716 C 0.05727 0.41845 0.31228 0.0
C2717 C 0.05804 0.40221 0.30785 0.0
C2718 C 0.07626 0.40391 0.30471 0.0
C2719 C 0.16451 0.39423 0.32556 0.0
C2720 C 0.15295 0.37399 0.32344 0.0
C2721 C 0.15933 0.40699 0.31996 0.0
C2722 C 0.14252 0.3997 0.31221 0.0
C2723 C 0.13073 0.37951 0.31031 0.0
C2724 C 0.13595 0.36677 0.31581 0.0
C2725 C 0.13735 0.41306 0.30579 0.0
C2726 C 0.11888 0.41141 0.30821 0.0
C2727 C 0.15047 0.42733 0.29738 0.0
C2728 C 0.16988 0.42925 0.29408 0.0
C2729 C 0.17102 0.41308 0.2896 0.0
C2730 C 0.18938 0.41499 0.28666 0.0
C2731 C 0.20672 0.43307 0.28796 0.0
C2732 C 0.20569 0.44929 0.29215 0.0
C2733 C 0.18739 0.44742 0.29523 0.0
H2734 H 0.22092 0.43454 0.28564 0.0
H2735 H 0.04315 0.41711 0.3147 0.0
H2736 H 0.37145 0.47338 0.28934 0.0
H2737 H 0.34219 0.45096 0.30141 0.0
H2738 H 0.30409 0.45464 0.27359 0.0
H2739 H 0.33331 0.47673 0.26134 0.0
H2740 H 0.29611 0.4592 0.30058 0.0
H2741 H 0.30518 0.41685 0.27193 0.0
H2742 H 0.32474 0.40398 0.26183 0.0
H2743 H 0.33629 0.38698 0.29739 0.0
H2744 H 0.31704 0.40004 0.30772 0.0
H2745 H 0.20321 0.3805 0.3202 0.0
H2746 H 0.23276 0.4069 0.31081 0.0
H2747 H 0.26757 0.38253 0.32539 0.0
H2748 H 0.2373 0.35465 0.33316 0.0
H2749 H 0.27795 0.38984 0.3046 0.0
H2750 H 0.27372 0.43514 0.3341 0.0
H2751 H 0.25882 0.45209 0.34515 0.0
H2752 H 0.24023 0.46443 0.31045 0.0
H2753 H 0.25582 0.44843 0.29909 0.0
C2754 C 0.35683 0.46943 0.28584 0.0
C2755 C 0.35458 0.47669 0.27441 0.0
C2756 C 0.34017 0.45665 0.29271 0.0
C2757 C 0.32104 0.4512 0.28837 0.0
C2758 C 0.31876 0.45873 0.27708 0.0
C2759 C 0.3354 0.47121 0.27008 0.0
C2760 C 0.3034 0.43724 0.29549 0.0
C2761 C 0.29196 0.44396 0.30145 0.0
C2762 C 0.2984 0.41757 0.29682 0.0
C2763 C 0.30986 0.40961 0.29061 0.0
C2764 C 0.31205 0.41054 0.27761 0.0
C2765 C 0.32305 0.40317 0.27184 0.0
C2766 C 0.3318 0.39472 0.27897 0.0
C2767 C 0.32953 0.39356 0.29188 0.0
C2768 C 0.31857 0.40093 0.29769 0.0
C2769 C 0.21732 0.38114 0.32168 0.0
C2770 C 0.21812 0.36579 0.32762 0.0
C2771 C 0.23438 0.39643 0.31638 0.0
C2772 C 0.25282 0.39719 0.31744 0.0
C2773 C 0.25367 0.3824 0.32421 0.0
C2774 C 0.23642 0.36656 0.32884 0.0
C2775 C 0.27057 0.41172 0.31031 0.0
C2776 C 0.28204 0.40508 0.30409 0.0
C2777 C 0.27584 0.4316 0.30899 0.0
C2778 C 0.26568 0.44037 0.31578 0.0
C2779 C 0.26627 0.4413 0.32883 0.0
C2780 C 0.25773 0.45075 0.33515 0.0
C2781 C 0.24817 0.45888 0.32854 0.0
C2782 C 0.24744 0.45792 0.31555 0.0
C2783 C 0.2563 0.44887 0.30916 0.0
H2784 H 0.24152 0.46612 0.33347 0.0
H2785 H 0.3403 0.38902 0.27449 0.0
H2786 H 0.54901 0.89939 0.2649 0.0
H2787 H 0.5725 0.8934 0.27643 0.0
H2788 H 0.52438 0.84754 0.29679 0.0
H2789 H 0.50054 0.85268 0.28488 0.0
H2790 H 0.55728 0.87515 0.31183 0.0
H2791 H 0.54435 0.83431 0.27571 0.0
H2792 H 0.54177 0.82714 0.2532 0.0
H2793 H 0.60354 0.8692 0.24892 0.0
H2794 H 0.60642 0.87685 0.27138 0.0
H2795 H 0.61733 0.82487 0.32576 0.0
H2796 H 0.59037 0.82998 0.31834 0.0
H2797 H 0.63228 0.89094 0.31293 0.0
H2798 H 0.65899 0.88616 0.32107 0.0
H2799 H 0.60102 0.85469 0.29136 0.0
H2800 H 0.61307 0.89896 0.32651 0.0
H2801 H 0.61457 0.91019 0.3481 0.0
H2802 H 0.55429 0.86499 0.35368 0.0
H2803 H 0.55272 0.853 0.33223 0.0
C2804 C 0.54325 0.88776 0.27165 0.0
C2805 C 0.52269 0.87645 0.27382 0.0
C2806 C 0.5568 0.88445 0.2783 0.0
C2807 C 0.5502 0.86994 0.28741 0.0
C2808 C 0.5298 0.85883 0.2898 0.0
C2809 C 0.51618 0.86192 0.28302 0.0
C2810 C 0.56467 0.86663 0.29457 0.0
C2811 C 0.56667 0.8704 0.30741 0.0
C2812 C 0.57723 0.86091 0.28871 0.0
C2813 C 0.57555 0.85629 0.27521 0.0
C2814 C 0.55734 0.84217 0.26995 0.0
C2815 C 0.55584 0.83799 0.2572 0.0
C2816 C 0.57247 0.84775 0.24963 0.0
C2817 C 0.59066 0.86167 0.25479 0.0
C2818 C 0.59224 0.86592 0.26753 0.0
C2819 C 0.62063 0.83951 0.32354 0.0
C2820 C 0.64019 0.85525 0.32441 0.0
C2821 C 0.60522 0.84241 0.31925 0.0
C2822 C 0.60915 0.861 0.31548 0.0
C2823 C 0.62869 0.87666 0.31628 0.0
C2824 C 0.64399 0.87386 0.32081 0.0
C2825 C 0.59376 0.86333 0.30869 0.0
C2826 C 0.59154 0.85928 0.29585 0.0
C2827 C 0.58119 0.86909 0.31454 0.0
C2828 C 0.58304 0.87464 0.32787 0.0
C2829 C 0.6004 0.89092 0.33246 0.0
C2830 C 0.60117 0.8976 0.34464 0.0
C2831 C 0.58457 0.88826 0.35228 0.0
C2832 C 0.56717 0.87218 0.34777 0.0
C2833 C 0.5664 0.86534 0.33564 0.0
H2834 H 0.58518 0.89351 0.36168 0.0
H2835 H 0.57127 0.84449 0.23976 0.0
H2836 H 0.1256 0.64771 0.26524 0.0
H2837 H 0.1343 0.67925 0.27446 0.0
H2838 H 0.11473 0.65221 0.31031 0.0
H2839 H 0.10498 0.62038 0.30101 0.0
H2840 H 0.10276 0.67755 0.30674 0.0
H2841 H 0.16433 0.67848 0.30279 0.0
H2842 H 0.19065 0.67538 0.29219 0.0
H2843 H 0.20026 0.72172 0.26744 0.0
H2844 H 0.17376 0.7249 0.27779 0.0
H2845 H 0.15303 0.76589 0.34231 0.0
H2846 H 0.14445 0.73405 0.33337 0.0
H2847 H 0.15157 0.7577 0.29645 0.0
H2848 H 0.16009 0.78958 0.30539 0.0
H2849 H 0.17032 0.73431 0.30104 0.0
H2850 H 0.10773 0.73245 0.30549 0.0
H2851 H 0.08243 0.73587 0.31718 0.0
H2852 H 0.07606 0.6911 0.34233 0.0
H2853 H 0.1016 0.68767 0.3309 0.0
C2854 C 0.12285 0.64838 0.27505 0.0
C2855 C 0.11463 0.63149 0.28239 0.0
C2856 C 0.12808 0.66649 0.28034 0.0
C2857 C 0.12549 0.66815 0.29312 0.0
C2858 C 0.11698 0.65129 0.30044 0.0
C2859 C 0.11159 0.63313 0.29513 0.0
C2860 C 0.13164 0.68748 0.29883 0.0
C2861 C 0.11762 0.68987 0.30563 0.0
C2862 C 0.15096 0.70366 0.29724 0.0
C2863 C 0.1669 0.70178 0.29098 0.0
C2864 C 0.17193 0.6879 0.29502 0.0
C2865 C 0.18691 0.68615 0.28907 0.0
C2866 C 0.19708 0.69831 0.27912 0.0
C2867 C 0.19234 0.71228 0.27513 0.0
C2868 C 0.17735 0.71408 0.28104 0.0
C2869 C 0.15304 0.76435 0.33233 0.0
C2870 C 0.15733 0.78012 0.32454 0.0
C2871 C 0.148 0.74616 0.32723 0.0
C2872 C 0.14737 0.74361 0.31427 0.0
C2873 C 0.152 0.75945 0.30647 0.0
C2874 C 0.15673 0.77755 0.31157 0.0
C2875 C 0.14144 0.72426 0.30885 0.0
C2876 C 0.1555 0.72191 0.30213 0.0
C2877 C 0.12227 0.70809 0.31063 0.0
C2878 C 0.10673 0.70995 0.31742 0.0
C2879 C 0.10106 0.72346 0.31357 0.0
C2880 C 0.08666 0.72538 0.32014 0.0
C2881 C 0.07768 0.71374 0.33051 0.0
C2882 C 0.08305 0.70013 0.33431 0.0
C2883 C 0.09748 0.69818 0.32779 0.0
H2884 H 0.06653 0.71525 0.33559 0.0
H2885 H 0.20868 0.69694 0.27453 0.0
H2886 H 0.81903 0.0172 0.41407 0.0
H2887 H 0.79305 0.9864 0.40534 0.0
H2888 H 0.80268 0.01264 0.36907 0.0
H2889 H 0.82768 0.04386 0.37789 0.0
H2890 H 0.76522 0.99106 0.37222 0.0
H2891 H 0.82068 0.98133 0.37835 0.0
H2892 H 0.84756 0.9802 0.38987 0.0
H2893 H 0.80489 0.93668 0.41415 0.0
H2894 H 0.77775 0.93777 0.4029 0.0
H2895 H 0.7211 0.90359 0.33569 0.0
H2896 H 0.74529 0.93432 0.34572 0.0
H2897 H 0.72314 0.90926 0.38173 0.0
H2898 H 0.69886 0.87845 0.37168 0.0
H2899 H 0.76587 0.92942 0.37926 0.0
H2900 H 0.71039 0.93916 0.37201 0.0
H2901 H 0.68424 0.9396 0.3592 0.0
H2902 H 0.7285 0.98284 0.33551 0.0
H2903 H 0.75492 0.98242 0.34807 0.0
C2904 C 0.81546 0.01656 0.40427 0.0
C2905 C 0.8256 0.03313 0.3967 0.0
C2906 C 0.80075 0.99879 0.39924 0.0
C2907 C 0.7961 0.99703 0.38648 0.0
C2908 C 0.80603 0.01356 0.37893 0.0
C2909 C 0.82054 0.03139 0.38398 0.0
C2910 C 0.78078 0.97805 0.38098 0.0
C2911 C 0.76556 0.97766 0.37366 0.0
C2912 C 0.78089 0.96039 0.38302 0.0
C2913 C 0.7972 0.95983 0.38987 0.0
C2914 C 0.81704 0.97166 0.38622 0.0
C2915 C 0.83232 0.971 0.39269 0.0
C2916 C 0.82794 0.95843 0.40276 0.0
C2917 C 0.80826 0.94645 0.40637 0.0
C2918 C 0.79292 0.94709 0.39995 0.0
C2919 C 0.72152 0.90459 0.34572 0.0
C2920 C 0.70826 0.88866 0.35291 0.0
C2921 C 0.7352 0.92218 0.35144 0.0
C2922 C 0.73595 0.92403 0.36446 0.0
C2923 C 0.72277 0.9081 0.37167 0.0
C2924 C 0.70886 0.8906 0.36593 0.0
C2925 C 0.7506 0.94263 0.37051 0.0
C2926 C 0.76562 0.94289 0.37791 0.0
C2927 C 0.75048 0.96019 0.3684 0.0
C2928 C 0.73463 0.96062 0.36091 0.0
C2929 C 0.71455 0.94864 0.36401 0.0
C2930 C 0.69967 0.94891 0.3568 0.0
C2931 C 0.7047 0.96121 0.34653 0.0
C2932 C 0.72462 0.9733 0.34346 0.0
C2933 C 0.73956 0.97307 0.35063 0.0
H2934 H 0.69317 0.96139 0.34096 0.0
H2935 H 0.8398 0.95793 0.40775 0.0
H2936 H 0.98767 0.82247 0.39107 0.0
H2937 H 0.01731 0.8284 0.37964 0.0
H2938 H 0.01109 0.77461 0.39361 0.0
H2939 H 0.9815 0.76856 0.40497 0.0
H2940 H 0.04851 0.80298 0.3958 0.0
H2941 H 0.99893 0.77938 0.36328 0.0
H2942 H 0.97264 0.77902 0.35016 0.0
H2943 H 0.01342 0.83685 0.33751 0.0
H2944 H 0.03989 0.83767 0.35069 0.0
H2945 H 0.10865 0.78522 0.35526 0.0
H2946 H 0.07832 0.78274 0.36373 0.0
H2947 H 0.10058 0.84362 0.3561 0.0
H2948 H 0.13136 0.84638 0.34808 0.0
H2949 H 0.05652 0.81461 0.3503 0.0
H2950 H 0.10599 0.83826 0.3827 0.0
H2951 H 0.1326 0.83841 0.39532 0.0
H2952 H 0.0921 0.78046 0.4079 0.0
H2953 H 0.06528 0.77986 0.39518 0.0
C2954 C 0.99247 0.81178 0.3916 0.0
C2955 C 0.98218 0.79506 0.39901 0.0
C2956 C 0.00947 0.81521 0.38506 0.0
C2957 C 0.01646 0.80192 0.38569 0.0
C2958 C 0.00612 0.78517 0.39301 0.0
C2959 C 0.98919 0.78175 0.39955 0.0
C2960 C 0.03475 0.80551 0.37898 0.0
C2961 C 0.0501 0.80535 0.38583 0.0
C2962 C 0.03722 0.80915 0.36601 0.0
C2963 C 0.02132 0.80868 0.35809 0.0
C2964 C 0.00224 0.79209 0.35779 0.0
C2965 C 0.98732 0.79179 0.35032 0.0
C2966 C 0.99134 0.80792 0.34304 0.0
C2967 C 0.01031 0.82438 0.34318 0.0
C2968 C 0.02528 0.82477 0.35064 0.0
C2969 C 0.10694 0.798 0.3552 0.0
C2970 C 0.12224 0.8159 0.35082 0.0
C2971 C 0.08962 0.79656 0.36003 0.0
C2972 C 0.08722 0.81299 0.36054 0.0
C2973 C 0.1021 0.83074 0.35571 0.0
C2974 C 0.11963 0.83227 0.35107 0.0
C2975 C 0.06992 0.8118 0.36713 0.0
C2976 C 0.05485 0.8124 0.36028 0.0
C2977 C 0.06768 0.80861 0.3801 0.0
C2978 C 0.08368 0.80894 0.38788 0.0
C2979 C 0.1028 0.82547 0.38806 0.0
C2980 C 0.11792 0.82565 0.39525 0.0
C2981 C 0.11408 0.80943 0.40238 0.0
C2982 C 0.09507 0.79301 0.40236 0.0
C2983 C 0.07989 0.79275 0.39517 0.0
H2984 H 0.12581 0.8096 0.40794 0.0
H2985 H 0.97977 0.80766 0.33726 0.0
H2986 H 0.1973 0.16808 0.3932 0.0
H2987 H 0.18787 0.18911 0.38209 0.0
H2988 H 0.23333 0.23935 0.4018 0.0
H2989 H 0.24357 0.21863 0.41257 0.0
H2990 H 0.19405 0.23571 0.40093 0.0
H2991 H 0.24305 0.23411 0.37407 0.0
H2992 H 0.25716 0.21768 0.36171 0.0
H2993 H 0.20432 0.18992 0.33912 0.0
H2994 H 0.18977 0.20598 0.35148 0.0
H2995 H 0.20252 0.3146 0.36627 0.0
H2996 H 0.20925 0.29123 0.37671 0.0
H2997 H 0.16777 0.24538 0.35225 0.0
H2998 H 0.16063 0.26861 0.3418 0.0
H2999 H 0.20277 0.24487 0.35526 0.0
H3000 H 0.15385 0.24634 0.38036 0.0
H3001 H 0.13728 0.2604 0.39262 0.0
H3002 H 0.18629 0.28544 0.4184 0.0
H3003 H 0.20338 0.27186 0.40614 0.0
C3004 C 0.20553 0.18363 0.39506 0.0
C3005 C 0.22131 0.19165 0.40374 0.0
C3006 C 0.19999 0.19558 0.38877 0.0
C3007 C 0.20996 0.21572 0.39113 0.0
C3008 C 0.22543 0.22378 0.39992 0.0
C3009 C 0.23118 0.21189 0.4061 0.0
C3010 C 0.20437 0.22844 0.3843 0.0
C3011 C 0.19618 0.23796 0.39098 0.0
C3012 C 0.20646 0.23064 0.37126 0.0
C3013 C 0.21524 0.22107 0.36379 0.0
C3014 C 0.23437 0.22436 0.36654 0.0
C3015 C 0.24246 0.21514 0.35952 0.0
C3016 C 0.23162 0.20272 0.34966 0.0
C3017 C 0.21269 0.19953 0.34678 0.0
C3018 C 0.20452 0.20869 0.35378 0.0
C3019 C 0.1948 0.29957 0.36306 0.0
C3020 C 0.18108 0.29351 0.35314 0.0
C3021 C 0.19865 0.28622 0.36908 0.0
C3022 C 0.18888 0.26658 0.36531 0.0
C3023 C 0.17546 0.26051 0.35527 0.0
C3024 C 0.17145 0.27383 0.3493 0.0
C3025 C 0.19278 0.25248 0.37192 0.0
C3026 C 0.20059 0.24263 0.36521 0.0
C3027 C 0.19004 0.24972 0.38491 0.0
C3028 C 0.18001 0.25824 0.39224 0.0
C3029 C 0.16123 0.25505 0.38855 0.0
C3030 C 0.15171 0.2629 0.39552 0.0
C3031 C 0.16073 0.27383 0.40627 0.0
C3032 C 0.17933 0.27699 0.41006 0.0
C3033 C 0.18894 0.26922 0.4031 0.0
H3034 H 0.15325 0.27977 0.41168 0.0
H3035 H 0.23791 0.1956 0.34424 0.0
H3036 H 0.6688 0.52528 0.74632 0.0
H3037 H 0.69728 0.54746 0.73369 0.0
H3038 H 0.65749 0.54432 0.70447 0.0
H3039 H 0.62907 0.52169 0.71691 0.0
H3040 H 0.68675 0.54314 0.69438 0.0
H3041 H 0.68162 0.58398 0.726 0.0
H3042 H 0.68077 0.59522 0.74732 0.0
H3043 H 0.73883 0.60358 0.75468 0.0
H3044 H 0.73989 0.5921 0.73348 0.0
H3045 H 0.76562 0.65096 0.68048 0.0
H3046 H 0.73486 0.62402 0.6886 0.0
H3047 H 0.75901 0.58561 0.68523 0.0
H3048 H 0.79011 0.61275 0.67726 0.0
H3049 H 0.7383 0.60714 0.71135 0.0
H3050 H 0.72256 0.54393 0.68045 0.0
H3051 H 0.71834 0.53299 0.65849 0.0
H3052 H 0.69728 0.57228 0.64912 0.0
H3053 H 0.70193 0.58378 0.67095 0.0
C3054 C 0.66618 0.52938 0.73721 0.0
C3055 C 0.64673 0.52182 0.73261 0.0
C3056 C 0.68245 0.54209 0.73 0.0
C3057 C 0.67959 0.54783 0.71817 0.0
C3058 C 0.66014 0.54011 0.71354 0.0
C3059 C 0.6439 0.52719 0.72066 0.0
C3060 C 0.69672 0.56195 0.71059 0.0
C3061 C 0.69804 0.55708 0.69817 0.0
C3062 C 0.71149 0.58029 0.71539 0.0
C3063 C 0.71073 0.58696 0.7282 0.0
C3064 C 0.69412 0.58803 0.73221 0.0
C3065 C 0.69361 0.59448 0.74427 0.0
C3066 C 0.70971 0.60006 0.75237 0.0
C3067 C 0.72635 0.59921 0.74842 0.0
C3068 C 0.7269 0.59273 0.73639 0.0
C3069 C 0.76416 0.63663 0.68112 0.0
C3070 C 0.78023 0.63395 0.67828 0.0
C3071 C 0.74659 0.62126 0.68576 0.0
C3072 C 0.7447 0.60286 0.68758 0.0
C3073 C 0.76013 0.59968 0.68381 0.0
C3074 C 0.77787 0.61517 0.67924 0.0
C3075 C 0.72813 0.58829 0.69522 0.0
C3076 C 0.72707 0.59307 0.70768 0.0
C3077 C 0.71344 0.57009 0.69044 0.0
C3078 C 0.71276 0.56479 0.67721 0.0
C3079 C 0.7173 0.55039 0.67363 0.0
C3080 C 0.7148 0.54408 0.66124 0.0
C3081 C 0.70747 0.55188 0.65243 0.0
C3082 C 0.70291 0.56622 0.65596 0.0
C3083 C 0.70572 0.57281 0.66829 0.0
H3084 H 0.70541 0.54688 0.64286 0.0
H3085 H 0.7093 0.60509 0.76169 0.0
H3086 H 0.46601 0.10121 0.73248 0.0
H3087 H 0.43991 0.10571 0.72292 0.0
H3088 H 0.48389 0.16324 0.71103 0.0
H3089 H 0.51009 0.15878 0.72052 0.0
H3090 H 0.44986 0.16165 0.72203 0.0
H3091 H 0.46576 0.12905 0.69016 0.0
H3092 H 0.47127 0.10323 0.6815 0.0
H3093 H 0.41119 0.06009 0.68986 0.0
H3094 H 0.4054 0.08563 0.69875 0.0
H3095 H 0.38329 0.17567 0.68387 0.0
H3096 H 0.41197 0.17353 0.69117 0.0
H3097 H 0.37408 0.11181 0.6974 0.0
H3098 H 0.34565 0.11377 0.68935 0.0
H3099 H 0.4069 0.11712 0.68841 0.0
H3100 H 0.39102 0.14841 0.72143 0.0
H3101 H 0.3847 0.17359 0.73033 0.0
H3102 H 0.44353 0.21819 0.72059 0.0
H3103 H 0.45011 0.19327 0.71149 0.0
C3104 C 0.47011 0.11485 0.72788 0.0
C3105 C 0.49013 0.12962 0.72723 0.0
C3106 C 0.4552 0.11737 0.72237 0.0
C3107 C 0.45995 0.13478 0.7162 0.0
C3108 C 0.47988 0.14968 0.71572 0.0
C3109 C 0.49484 0.14706 0.72108 0.0
C3110 C 0.44409 0.13731 0.71019 0.0
C3111 C 0.44062 0.15209 0.71457 0.0
C3112 C 0.43179 0.12461 0.70061 0.0
C3113 C 0.43521 0.10923 0.69524 0.0
C3114 C 0.45377 0.11404 0.69026 0.0
C3115 C 0.45694 0.09946 0.68528 0.0
C3116 C 0.44161 0.08003 0.68516 0.0
C3117 C 0.42306 0.07515 0.68998 0.0
C3118 C 0.41983 0.08967 0.69498 0.0
C3119 C 0.38118 0.16159 0.68657 0.0
C3120 C 0.36233 0.14479 0.68576 0.0
C3121 C 0.39755 0.16041 0.69092 0.0
C3122 C 0.39525 0.14254 0.69505 0.0
C3123 C 0.37635 0.12577 0.69426 0.0
C3124 C 0.36007 0.1269 0.68971 0.0
C3125 C 0.41232 0.14125 0.70039 0.0
C3126 C 0.4161 0.12673 0.69586 0.0
C3127 C 0.42475 0.15405 0.70994 0.0
C3128 C 0.421 0.16899 0.71568 0.0
C3129 C 0.40258 0.16359 0.72115 0.0
C3130 C 0.39895 0.17782 0.72622 0.0
C3131 C 0.41369 0.19748 0.72599 0.0
C3132 C 0.43212 0.20295 0.72075 0.0
C3133 C 0.43582 0.18878 0.71564 0.0
H3134 H 0.41084 0.20848 0.7299 0.0
H3135 H 0.44409 0.06876 0.6813 0.0
H3136 H 0.8631 0.36719 0.71676 0.0
H3137 H 0.8549 0.33573 0.70747 0.0
H3138 H 0.90877 0.34108 0.72279 0.0
H3139 H 0.91735 0.37284 0.73184 0.0
H3140 H 0.90261 0.32809 0.69876 0.0
H3141 H 0.86526 0.31205 0.73653 0.0
H3142 H 0.84199 0.31295 0.75165 0.0
H3143 H 0.79532 0.28866 0.7242 0.0
H3144 H 0.8184 0.28787 0.70886 0.0
H3145 H 0.87778 0.22897 0.69248 0.0
H3146 H 0.88644 0.26103 0.70091 0.0
H3147 H 0.83308 0.2558 0.68479 0.0
H3148 H 0.82413 0.2236 0.67647 0.0
H3149 H 0.83897 0.26878 0.70902 0.0
H3150 H 0.87633 0.28431 0.67133 0.0
H3151 H 0.89955 0.28292 0.65641 0.0
H3152 H 0.94623 0.30787 0.68382 0.0
H3153 H 0.92318 0.30912 0.699 0.0
C3154 C 0.87332 0.36178 0.71803 0.0
C3155 C 0.89085 0.37247 0.72506 0.0
C3156 C 0.86852 0.34373 0.71282 0.0
C3157 C 0.88112 0.33599 0.71457 0.0
C3158 C 0.89882 0.34678 0.72137 0.0
C3159 C 0.90361 0.36482 0.72661 0.0
C3160 C 0.87573 0.31655 0.7094 0.0
C3161 C 0.88881 0.31507 0.70112 0.0
C3162 C 0.85753 0.29967 0.71229 0.0
C3163 C 0.84361 0.3001 0.72151 0.0
C3164 C 0.85008 0.30706 0.73368 0.0
C3165 C 0.83691 0.30751 0.7423 0.0
C3166 C 0.8172 0.30091 0.73888 0.0
C3167 C 0.8106 0.29379 0.72684 0.0
C3168 C 0.82371 0.29332 0.71818 0.0
C3169 C 0.86788 0.23462 0.69071 0.0
C3170 C 0.85036 0.22381 0.68369 0.0
C3171 C 0.87289 0.25298 0.6955 0.0
C3172 C 0.86049 0.26084 0.69336 0.0
C3173 C 0.84288 0.24999 0.6865 0.0
C3174 C 0.83787 0.23166 0.68168 0.0
C3175 C 0.86583 0.28033 0.69838 0.0
C3176 C 0.85274 0.28181 0.70665 0.0
C3177 C 0.88403 0.29719 0.69549 0.0
C3178 C 0.89798 0.29663 0.68634 0.0
C3179 C 0.8915 0.28936 0.67422 0.0
C3180 C 0.90464 0.28861 0.6657 0.0
C3181 C 0.92434 0.29525 0.66917 0.0
C3182 C 0.93096 0.3027 0.68116 0.0
C3183 C 0.91787 0.30345 0.68971 0.0
H3184 H 0.93449 0.29467 0.66257 0.0
H3185 H 0.80703 0.30128 0.74556 0.0
H3186 H 0.15554 0.96992 0.62214 0.0
H3187 H 0.18102 0.00112 0.63087 0.0
H3188 H 0.22655 0.99313 0.6138 0.0
H3189 H 0.20112 0.96159 0.60529 0.0
H3190 H 0.23635 0.00642 0.63762 0.0
H3191 H 0.21323 0.02389 0.60116 0.0
H3192 H 0.18838 0.02415 0.58697 0.0
H3193 H 0.17031 0.04976 0.6157 0.0
H3194 H 0.19486 0.04938 0.63013 0.0
H3195 H 0.31408 0.10469 0.64674 0.0
H3196 H 0.28999 0.07346 0.63725 0.0
H3197 H 0.24206 0.07898 0.65291 0.0
H3198 H 0.26593 0.11037 0.66213 0.0
H3199 H 0.23435 0.06704 0.62914 0.0
H3200 H 0.25667 0.04881 0.66576 0.0
H3201 H 0.2816 0.04882 0.68001 0.0
H3202 H 0.30113 0.02482 0.65109 0.0
H3203 H 0.27649 0.02493 0.6366 0.0
C3204 C 0.17098 0.97468 0.62034 0.0
C3205 C 0.17629 0.96326 0.613 0.0
C3206 C 0.18553 0.99262 0.62525 0.0
C3207 C 0.20569 0.99958 0.62287 0.0
C3208 C 0.21108 0.98808 0.61571 0.0
C3209 C 0.19652 0.97014 0.61077 0.0
C3210 C 0.2211 0.01885 0.62785 0.0
C3211 C 0.23609 0.01973 0.63562 0.0
C3212 C 0.22053 0.03616 0.62544 0.0
C3213 C 0.20576 0.03643 0.61677 0.0
C3214 C 0.20385 0.02942 0.60449 0.0
C3215 C 0.18983 0.02962 0.59639 0.0
C3216 C 0.17774 0.03693 0.60044 0.0
C3217 C 0.17967 0.04409 0.61258 0.0
C3218 C 0.19364 0.04389 0.62072 0.0
C3219 C 0.29842 0.09927 0.64816 0.0
C3220 C 0.29197 0.10994 0.65534 0.0
C3221 C 0.28466 0.08137 0.64277 0.0
C3222 C 0.26422 0.07375 0.6445 0.0
C3223 C 0.25776 0.08452 0.65149 0.0
C3224 C 0.27147 0.10242 0.65685 0.0
C3225 C 0.2495 0.05459 0.63899 0.0
C3226 C 0.23464 0.05375 0.63111 0.0
C3227 C 0.25017 0.03733 0.64132 0.0
C3228 C 0.26487 0.03706 0.65006 0.0
C3229 C 0.26638 0.04366 0.66241 0.0
C3230 C 0.28044 0.04363 0.67054 0.0
C3231 C 0.29298 0.03687 0.66645 0.0
C3232 C 0.29143 0.03007 0.65424 0.0
C3233 C 0.2774 0.03011 0.64606 0.0
H3234 H 0.30386 0.03686 0.67276 0.0
H3235 H 0.1669 0.03707 0.59415 0.0
H3236 H 0.01067 0.19854 0.59709 0.0
H3237 H 0.98098 0.19529 0.60688 0.0
H3238 H 0.00843 0.20311 0.64303 0.0
H3239 H 0.03871 0.20795 0.63329 0.0
H3240 H 0.95458 0.17119 0.62141 0.0
H3241 H 0.99176 0.22358 0.66355 0.0
H3242 H 0.02319 0.25348 0.66883 0.0
H3243 H 0.03232 0.26914 0.63024 0.0
H3244 H 1.00083 0.23948 0.62475 0.0
H3245 H 0.87593 0.15795 0.66012 0.0
H3246 H 0.90728 0.16093 0.6534 0.0
H3247 H 0.92948 0.22165 0.64495 0.0
H3248 H 0.89873 0.219 0.65262 0.0
H3249 H 0.95851 0.2191 0.6529 0.0
H3250 H 0.90809 0.18263 0.6222 0.0
H3251 H 0.87569 0.15582 0.61489 0.0
H3252 H 0.89213 0.11382 0.62629 0.0
H3253 H 0.92456 0.1404 0.63379 0.0
C3254 C 0.01063 0.19996 0.60711 0.0
C3255 C 0.02738 0.20371 0.61432 0.0
C3256 C 0.99343 0.19781 0.61274 0.0
C3257 C 0.9924 0.19919 0.62573 0.0
C3258 C 0.00886 0.20238 0.63298 0.0
C3259 C 0.02617 0.20485 0.62736 0.0
C3260 C 0.9742 0.19745 0.63165 0.0
C3261 C 0.95551 0.18169 0.6283 0.0
C3262 C 0.97515 0.21125 0.64052 0.0
C3263 C 0.99406 0.22919 0.64374 0.0
C3264 C 1.00045 0.23343 0.6562 0.0
C3265 C 0.01828 0.25034 0.65923 0.0
C3266 C 0.02978 0.26316 0.64987 0.0
C3267 C 0.02344 0.25915 0.63747 0.0
C3268 C 0.00562 0.24229 0.6344 0.0
C3269 C 0.88773 0.17207 0.65721 0.0
C3270 C 0.88503 0.18836 0.65716 0.0
C3271 C 0.90558 0.1737 0.65315 0.0
C3272 C 0.92075 0.19144 0.64838 0.0
C3273 C 0.91814 0.2078 0.64858 0.0
C3274 C 0.9005 0.20626 0.65292 0.0
C3275 C 0.93892 0.19289 0.64264 0.0
C3276 C 0.95762 0.20856 0.64605 0.0
C3277 C 0.9379 0.17946 0.63346 0.0
C3278 C 0.91867 0.16348 0.62864 0.0
C3279 C 0.90476 0.16767 0.62317 0.0
C3280 C 0.8864 0.15252 0.619 0.0
C3281 C 0.88184 0.13313 0.62016 0.0
C3282 C 0.89568 0.12885 0.62542 0.0
C3283 C 0.91406 0.14395 0.62961 0.0
H3284 H 0.8676 0.12141 0.61696 0.0
H3285 H 0.04358 0.27623 0.65224 0.0
H3286 H 0.75967 0.78531 0.59884 0.0
H3287 H 0.7681 0.76378 0.61027 0.0
H3288 H 0.82239 0.8137 0.62331 0.0
H3289 H 0.81438 0.8353 0.61155 0.0
H3290 H 0.82858 0.78451 0.61601 0.0
H3291 H 0.78292 0.79128 0.64237 0.0
H3292 H 0.75185 0.79073 0.64768 0.0
H3293 H 0.71843 0.72964 0.63858 0.0
H3294 H 0.74928 0.72988 0.63304 0.0
H3295 H 0.84645 0.73132 0.66318 0.0
H3296 H 0.83959 0.75523 0.65332 0.0
H3297 H 0.78731 0.70853 0.63573 0.0
H3298 H 0.79404 0.68459 0.64544 0.0
H3299 H 0.78123 0.73758 0.64645 0.0
H3300 H 0.827 0.7311 0.61976 0.0
H3301 H 0.85811 0.73156 0.6148 0.0
H3302 H 0.89153 0.79244 0.62445 0.0
H3303 H 0.86064 0.79219 0.62992 0.0
C3304 C 0.7735 0.7917 0.60403 0.0
C3305 C 0.78632 0.81202 0.60432 0.0
C3306 C 0.77821 0.7794 0.61065 0.0
C3307 C 0.79575 0.78718 0.61778 0.0
C3308 C 0.80874 0.80741 0.61792 0.0
C3309 C 0.80406 0.81973 0.61128 0.0
C3310 C 0.80047 0.77416 0.62509 0.0
C3311 C 0.81838 0.77447 0.62282 0.0
C3312 C 0.787 0.76086 0.63382 0.0
C3313 C 0.76841 0.76065 0.63718 0.0
C3314 C 0.76893 0.77776 0.6414 0.0
C3315 C 0.75136 0.7775 0.64447 0.0
C3316 C 0.73317 0.76017 0.64344 0.0
C3317 C 0.73252 0.74305 0.63936 0.0
C3318 C 0.75005 0.74324 0.63627 0.0
C3319 C 0.83341 0.72615 0.65728 0.0
C3320 C 0.8208 0.70608 0.65505 0.0
C3321 C 0.82957 0.73982 0.65164 0.0
C3322 C 0.813 0.73359 0.64377 0.0
C3323 C 0.80015 0.71357 0.64178 0.0
C3324 C 0.80409 0.69994 0.64729 0.0
C3325 C 0.80922 0.74786 0.6373 0.0
C3326 C 0.79149 0.74776 0.63972 0.0
C3327 C 0.82288 0.76136 0.62874 0.0
C3328 C 0.84149 0.76155 0.62544 0.0
C3329 C 0.84099 0.74453 0.62101 0.0
C3330 C 0.8586 0.74475 0.61811 0.0
C3331 C 0.8768 0.76199 0.6194 0.0
C3332 C 0.87743 0.77906 0.62356 0.0
C3333 C 0.85987 0.77887 0.62659 0.0
H3334 H 0.89042 0.76214 0.61712 0.0
H3335 H 0.71959 0.76 0.64582 0.0
H3336 H 0.03604 0.80449 0.62285 0.0
H3337 H 0.00693 0.78188 0.63497 0.0
H3338 H 0.96848 0.78577 0.60751 0.0
H3339 H 0.99755 0.80803 0.59519 0.0
H3340 H 0.96083 0.78967 0.63503 0.0
H3341 H 0.96925 0.7484 0.60503 0.0
H3342 H 0.98862 0.736 0.59417 0.0
H3343 H 1.00118 0.71788 0.62901 0.0
H3344 H 0.98211 0.73046 0.6401 0.0
H3345 H 0.86796 0.70996 0.65322 0.0
H3346 H 0.89765 0.73686 0.64442 0.0
H3347 H 0.9322 0.71176 0.65827 0.0
H3348 H 0.90177 0.68348 0.66557 0.0
H3349 H 0.94275 0.72014 0.63746 0.0
H3350 H 0.93954 0.76462 0.66822 0.0
H3351 H 0.92475 0.78096 0.68009 0.0
H3352 H 0.90415 0.79347 0.64622 0.0
H3353 H 0.91984 0.77828 0.63404 0.0
C3354 C 0.02137 0.80057 0.61944 0.0
C3355 C 0.01898 0.80791 0.60808 0.0
C3356 C 0.0048 0.78769 0.62635 0.0
C3357 C 0.98561 0.78222 0.62212 0.0
C3358 C 0.98319 0.78988 0.61092 0.0
C3359 C 0.99975 0.80246 0.60388 0.0
C3360 C 0.96807 0.76795 0.62918 0.0
C3361 C 0.95671 0.7744 0.63555 0.0
C3362 C 0.96309 0.74823 0.63007 0.0
C3363 C 0.97445 0.74058 0.6234 0.0
C3364 C 0.97631 0.74195 0.61039 0.0
C3365 C 0.98719 0.73485 0.60419 0.0
C3366 C 0.99618 0.72621 0.6109 0.0
C3367 C 0.99424 0.7246 0.62382 0.0
C3368 C 0.98339 0.73171 0.63007 0.0
C3369 C 0.88201 0.71053 0.65472 0.0
C3370 C 0.88268 0.69488 0.66033 0.0
C3371 C 0.89918 0.72612 0.64975 0.0
C3372 C 0.91759 0.72684 0.65078 0.0
C3373 C 0.91832 0.71169 0.65718 0.0
C3374 C 0.90097 0.69561 0.66153 0.0
C3375 C 0.93541 0.74173 0.64386 0.0
C3376 C 0.94683 0.7354 0.63729 0.0
C3377 C 0.94066 0.76167 0.64301 0.0
C3378 C 0.93058 0.77008 0.65026 0.0
C3379 C 0.93171 0.77072 0.66332 0.0
C3380 C 0.92322 0.77981 0.67008 0.0
C3381 C 0.91311 0.7878 0.66393 0.0
C3382 C 0.91182 0.78711 0.65096 0.0
C3383 C 0.92071 0.77849 0.64411 0.0
H3384 H 0.90646 0.79471 0.66922 0.0
H3385 H 0.0046 0.72071 0.60608 0.0
H3386 H 0.19877 0.19902 0.59073 0.0
H3387 H 0.22291 0.194 0.60219 0.0
H3388 H 0.2028 0.20604 0.63668 0.0
H3389 H 0.1796 0.21251 0.62521 0.0
H3390 H 0.24044 0.22339 0.63755 0.0
H3391 H 0.19109 0.15805 0.62647 0.0
H3392 H 0.16887 0.13096 0.61247 0.0
H3393 H 0.21918 0.13681 0.59248 0.0
H3394 H 0.2417 0.16411 0.60626 0.0
H3395 H 0.28388 0.15547 0.65895 0.0
H3396 H 0.25674 0.15994 0.6514 0.0
H3397 H 0.29876 0.2202 0.64337 0.0
H3398 H 0.3254 0.21616 0.65213 0.0
H3399 H 0.24824 0.16559 0.63051 0.0
H3400 H 0.2826 0.24754 0.63897 0.0
H3401 H 0.3013 0.27284 0.65496 0.0
H3402 H 0.27448 0.23007 0.68368 0.0
H3403 H 0.25588 0.20453 0.66776 0.0
C3404 C 0.19957 0.20084 0.60074 0.0
C3405 C 0.18713 0.20628 0.60697 0.0
C3406 C 0.21324 0.19764 0.60733 0.0
C3407 C 0.21459 0.19933 0.62037 0.0
C3408 C 0.20209 0.20457 0.62663 0.0
C3409 C 0.18859 0.20805 0.62004 0.0
C3410 C 0.22943 0.19628 0.62745 0.0
C3411 C 0.24203 0.21067 0.63603 0.0
C3412 C 0.23155 0.17964 0.62566 0.0
C3413 C 0.21806 0.16325 0.61733 0.0
C3414 C 0.1974 0.15365 0.61903 0.0
C3415 C 0.18476 0.13824 0.61115 0.0
C3416 C 0.19261 0.1322 0.60157 0.0
C3417 C 0.21313 0.14152 0.59989 0.0
C3418 C 0.22583 0.15696 0.60774 0.0
C3419 C 0.28715 0.16987 0.65612 0.0
C3420 C 0.3067 0.18564 0.65659 0.0
C3421 C 0.27164 0.17239 0.65158 0.0
C3422 C 0.27539 0.19056 0.64695 0.0
C3423 C 0.29504 0.20623 0.64732 0.0
C3424 C 0.31041 0.20386 0.6522 0.0
C3425 C 0.2592 0.19263 0.64075 0.0
C3426 C 0.2465 0.17819 0.63217 0.0
C3427 C 0.25663 0.20897 0.64276 0.0
C3428 C 0.2682 0.22412 0.65225 0.0
C3429 C 0.28084 0.24356 0.6487 0.0
C3430 C 0.29144 0.25791 0.65773 0.0
C3431 C 0.28924 0.25302 0.67033 0.0
C3432 C 0.27639 0.23378 0.67392 0.0
C3433 C 0.26596 0.21934 0.66491 0.0
H3434 H 0.29737 0.26416 0.67731 0.0
H3435 H 0.1828 0.12026 0.59548 0.0
H3436 H 0.76342 0.96688 0.60675 0.0
H3437 H 0.77043 0.99798 0.61606 0.0
H3438 H 0.82577 0.00621 0.63085 0.0
H3439 H 0.81894 0.97518 0.62149 0.0
H3440 H 0.80588 0.01481 0.648 0.0
H3441 H 0.82539 0.03089 0.60549 0.0
H3442 H 0.82113 0.02766 0.58269 0.0
H3443 H 0.77301 0.03945 0.58493 0.0
H3444 H 0.77678 0.04246 0.60777 0.0
H3445 H 0.84948 0.11499 0.66376 0.0
H3446 H 0.84236 0.08385 0.65464 0.0
H3447 H 0.788 0.07654 0.63872 0.0
H3448 H 0.79519 0.10794 0.64764 0.0
H3449 H 0.80743 0.0674 0.62219 0.0
H3450 H 0.78797 0.05118 0.66486 0.0
H3451 H 0.79268 0.05472 0.68763 0.0
H3452 H 0.84121 0.0436 0.68504 0.0
H3453 H 0.83693 0.04021 0.66223 0.0
C3454 C 0.77716 0.97539 0.6119 0.0
C3455 C 0.79067 0.96861 0.61334 0.0
C3456 C 0.78112 0.99312 0.61723 0.0
C3457 C 0.79872 0.00448 0.62403 0.0
C3458 C 0.8121 0.99764 0.62565 0.0
C3459 C 0.80814 0.97989 0.62033 0.0
C3460 C 0.80316 0.02351 0.62947 0.0
C3461 C 0.80646 0.02641 0.64234 0.0
C3462 C 0.80352 0.03846 0.6221 0.0
C3463 C 0.80124 0.0367 0.60836 0.0
C3464 C 0.81379 0.03263 0.60113 0.0
C3465 C 0.81148 0.03087 0.5882 0.0
C3466 C 0.79677 0.0333 0.58237 0.0
C3467 C 0.78437 0.03754 0.58946 0.0
C3468 C 0.7866 0.03929 0.6024 0.0
C3469 C 0.83591 0.10671 0.65841 0.0
C3470 C 0.82279 0.11385 0.65652 0.0
C3471 C 0.83187 0.08889 0.6532 0.0
C3472 C 0.81449 0.07773 0.64616 0.0
C3473 C 0.80146 0.08491 0.64416 0.0
C3474 C 0.80557 0.10282 0.64928 0.0
C3475 C 0.81005 0.05868 0.64074 0.0
C3476 C 0.80679 0.05579 0.62786 0.0
C3477 C 0.80975 0.04374 0.6481 0.0
C3478 C 0.81221 0.04557 0.66183 0.0
C3479 C 0.79971 0.04959 0.66914 0.0
C3480 C 0.80228 0.05153 0.68206 0.0
C3481 C 0.81723 0.04936 0.68778 0.0
C3482 C 0.82963 0.04524 0.6806 0.0
C3483 C 0.82712 0.04328 0.66768 0.0
H3484 H 0.81921 0.05091 0.69778 0.0
H3485 H 0.79502 0.03194 0.57235 0.0
H3486 H 0.48462 0.34874 0.74576 0.0
H3487 H 0.45879 0.31789 0.73702 0.0
H3488 H 0.46658 0.34473 0.70108 0.0
H3489 H 0.49159 0.37602 0.70994 0.0
H3490 H 0.42888 0.32184 0.7049 0.0
H3491 H 0.48625 0.31476 0.70874 0.0
H3492 H 0.5146 0.31503 0.71931 0.0
H3493 H 0.47482 0.2707 0.74433 0.0
H3494 H 0.44624 0.27037 0.73403 0.0
H3495 H 0.38526 0.23432 0.6683 0.0
H3496 H 0.40911 0.26548 0.67803 0.0
H3497 H 0.39032 0.24001 0.71432 0.0
H3498 H 0.36638 0.20874 0.70456 0.0
H3499 H 0.4328 0.26162 0.71062 0.0
H3500 H 0.37524 0.26861 0.70566 0.0
H3501 H 0.34758 0.26781 0.69386 0.0
H3502 H 0.389 0.31217 0.66949 0.0
H3503 H 0.41692 0.313 0.68102 0.0
C3504 C 0.48068 0.34823 0.73604 0.0
C3505 C 0.49031 0.36496 0.72857 0.0
C3506 C 0.46604 0.33045 0.731 0.0
C3507 C 0.46095 0.32884 0.71832 0.0
C3508 C 0.47031 0.34555 0.71087 0.0
C3509 C 0.48481 0.36341 0.71593 0.0
C3510 C 0.44589 0.30975 0.71283 0.0
C3511 C 0.42991 0.30875 0.70604 0.0
C3512 C 0.44696 0.29252 0.71447 0.0
C3513 C 0.46412 0.29271 0.7207 0.0
C3514 C 0.48356 0.30519 0.71657 0.0
C3515 C 0.49967 0.30534 0.7225 0.0
C3516 C 0.49652 0.29294 0.73251 0.0
C3517 C 0.47724 0.28033 0.73659 0.0
C3518 C 0.46108 0.28015 0.73071 0.0
C3519 C 0.38638 0.23532 0.67832 0.0
C3520 C 0.3742 0.21914 0.68568 0.0
C3521 C 0.39984 0.25316 0.68388 0.0
C3522 C 0.40144 0.25502 0.69688 0.0
C3523 C 0.38929 0.23884 0.70427 0.0
C3524 C 0.37559 0.22107 0.6987 0.0
C3525 C 0.41597 0.27384 0.70274 0.0
C3526 C 0.43182 0.27476 0.70956 0.0
C3527 C 0.41492 0.29101 0.701 0.0
C3528 C 0.39817 0.29073 0.69414 0.0
C3529 C 0.37845 0.27808 0.69772 0.0
C3530 C 0.36272 0.27764 0.69109 0.0
C3531 C 0.36653 0.2899 0.68091 0.0
C3532 C 0.38607 0.30267 0.67737 0.0
C3533 C 0.40186 0.30314 0.68395 0.0
H3534 H 0.35433 0.28954 0.67579 0.0
H3535 H 0.50901 0.29307 0.73708 0.0
H3536 H 0.64877 0.15123 0.72128 0.0
H3537 H 0.67761 0.15634 0.7093 0.0
H3538 H 0.68289 0.11436 0.73194 0.0
H3539 H 0.65346 0.10818 0.74348 0.0
H3540 H 0.71976 0.15186 0.72837 0.0
H3541 H 0.66459 0.09955 0.70557 0.0
H3542 H 0.63277 0.08476 0.69409 0.0
H3543 H 0.6581 0.13081 0.66728 0.0
H3544 H 0.69001 0.14603 0.67872 0.0
H3545 H 0.77111 0.11734 0.68478 0.0
H3546 H 0.74042 0.11472 0.69284 0.0
H3547 H 0.76744 0.1774 0.69238 0.0
H3548 H 0.79799 0.18005 0.68402 0.0
H3549 H 0.71471 0.13128 0.68415 0.0
H3550 H 0.75547 0.18628 0.72319 0.0
H3551 H 0.78753 0.20123 0.73446 0.0
H3552 H 0.79098 0.14924 0.7287 0.0
H3553 H 0.75876 0.13385 0.71763 0.0
C3554 C 0.65578 0.14279 0.72363 0.0
C3555 C 0.64859 0.12929 0.73348 0.0
C3556 C 0.67243 0.1459 0.71681 0.0
C3557 C 0.68246 0.13581 0.71978 0.0
C3558 C 0.67549 0.12246 0.72958 0.0
C3559 C 0.65867 0.11906 0.73625 0.0
C3560 C 0.70013 0.13893 0.71262 0.0
C3561 C 0.71865 0.14747 0.71869 0.0
C3562 C 0.69874 0.13324 0.69997 0.0
C3563 C 0.6796 0.12406 0.69309 0.0
C3564 C 0.66331 0.10663 0.6973 0.0
C3565 C 0.64528 0.09814 0.69079 0.0
C3566 C 0.64339 0.10687 0.67999 0.0
C3567 C 0.65956 0.12408 0.67566 0.0
C3568 C 0.67763 0.13264 0.68215 0.0
C3569 C 0.77029 0.13051 0.68611 0.0
C3570 C 0.78679 0.14886 0.68362 0.0
C3571 C 0.75277 0.129 0.69068 0.0
C3572 C 0.75168 0.14586 0.69322 0.0
C3573 C 0.76797 0.16422 0.69043 0.0
C3574 C 0.78538 0.16571 0.68562 0.0
C3575 C 0.73426 0.14421 0.69992 0.0
C3576 C 0.71582 0.13593 0.69378 0.0
C3577 C 0.73572 0.15018 0.7125 0.0
C3578 C 0.75483 0.15903 0.71945 0.0
C3579 C 0.76304 0.17802 0.72438 0.0
C3580 C 0.78123 0.18656 0.73074 0.0
C3581 C 0.79131 0.17622 0.73226 0.0
C3582 C 0.78318 0.15726 0.72748 0.0
C3583 C 0.76496 0.14863 0.72115 0.0
H3584 H 0.8054 0.18288 0.73717 0.0
H3585 H 0.62941 0.10028 0.67496 0.0
H3586 H 0.88554 0.53615 0.75051 0.0
H3587 H 0.87471 0.55596 0.73921 0.0
H3588 H 0.89899 0.54741 0.70532 0.0
H3589 H 0.91047 0.52808 0.71666 0.0
H3590 H 0.90674 0.58462 0.70749 0.0
H3591 H 0.84998 0.52082 0.71056 0.0
H3592 H 0.82539 0.49089 0.72112 0.0
H3593 H 0.80652 0.52424 0.74292 0.0
H3594 H 0.83123 0.55444 0.73261 0.0
H3595 H 0.85341 0.61371 0.66703 0.0
H3596 H 0.86363 0.59243 0.67718 0.0
H3597 H 0.84813 0.60597 0.71287 0.0
H3598 H 0.8379 0.62725 0.70274 0.0
H3599 H 0.83547 0.56531 0.70883 0.0
H3600 H 0.89338 0.62931 0.70586 0.0
H3601 H 0.91729 0.65877 0.69459 0.0
H3602 H 0.93343 0.62417 0.67183 0.0
H3603 H 0.9093 0.59442 0.68282 0.0
C3604 C 0.88888 0.53875 0.7407 0.0
C3605 C 0.89877 0.53046 0.73446 0.0
C3606 C 0.8825 0.54991 0.73423 0.0
C3607 C 0.88577 0.55288 0.72139 0.0
C3608 C 0.89622 0.54518 0.71521 0.0
C3609 C 0.90262 0.53403 0.72168 0.0
C3610 C 0.87788 0.56366 0.71438 0.0
C3611 C 0.89112 0.58023 0.70764 0.0
C3612 C 0.85752 0.55806 0.71469 0.0
C3613 C 0.84259 0.53992 0.72089 0.0
C3614 C 0.8407 0.5218 0.71767 0.0
C3615 C 0.82672 0.50478 0.72361 0.0
C3616 C 0.81443 0.50567 0.73271 0.0
C3617 C 0.81607 0.52358 0.73588 0.0
C3618 C 0.83005 0.54065 0.72999 0.0
C3619 C 0.85175 0.61178 0.67697 0.0
C3620 C 0.84473 0.62195 0.68409 0.0
C3621 C 0.85776 0.59979 0.68278 0.0
C3622 C 0.85666 0.59772 0.69576 0.0
C3623 C 0.84904 0.60737 0.70283 0.0
C3624 C 0.84331 0.61956 0.69706 0.0
C3625 C 0.86434 0.58626 0.70207 0.0
C3626 C 0.85107 0.56959 0.70865 0.0
C3627 C 0.88462 0.5917 0.70155 0.0
C3628 C 0.89937 0.60961 0.69507 0.0
C3629 C 0.9019 0.62796 0.69838 0.0
C3630 C 0.91551 0.64471 0.69205 0.0
C3631 C 0.92683 0.64334 0.68247 0.0
C3632 C 0.92461 0.62521 0.67923 0.0
C3633 C 0.91097 0.60839 0.68551 0.0
H3634 H 0.93736 0.65632 0.67758 0.0
H3635 H 0.80361 0.49247 0.73729 0.0
H3636 H 0.43183 0.9106 0.17651 0.0
H3637 H 0.44078 0.925 0.15577 0.0
H3638 H 0.50095 0.96274 0.16838 0.0
H3639 H 0.49202 0.94869 0.18919 0.0
H3640 H 0.48733 0.98273 0.15526 0.0
H3641 H 0.48905 0.92328 0.14987 0.0
H3642 H 0.47581 0.88774 0.15058 0.0
H3643 H 0.42886 0.87849 0.12536 0.0
H3644 H 0.44166 0.91399 0.12464 0.0
H3645 H 0.53518 0.01762 0.098 0.0
H3646 H 0.5245 0.0005 0.11775 0.0
H3647 H 0.46526 0.96509 0.10299 0.0
H3648 H 0.47581 0.98236 0.08314 0.0
H3649 H 0.47691 0.94341 0.11692 0.0
H3650 H 0.47525 0.00264 0.12203 0.0
H3651 H 0.48834 0.03816 0.12122 0.0
H3652 H 0.53475 0.04771 0.147 0.0
H3653 H 0.5221 0.01224 0.14782 0.0
C3654 C 0.44695 0.92202 0.17489 0.0
C3655 C 0.4612 0.92847 0.18454 0.0
C3656 C 0.4521 0.93013 0.16299 0.0
C3657 C 0.4716 0.94486 0.16046 0.0
C3658 C 0.48583 0.95136 0.17008 0.0
C3659 C 0.48072 0.9432 0.18196 0.0
C3660 C 0.4771 0.95386 0.14788 0.0
C3661 C 0.48528 0.97414 0.14691 0.0
C3662 C 0.47391 0.94263 0.1369 0.0
C3663 C 0.46619 0.92128 0.13731 0.0
C3664 C 0.4758 0.91366 0.14456 0.0
C3665 C 0.46839 0.89352 0.14495 0.0
C3666 C 0.45147 0.88086 0.13805 0.0
C3667 C 0.44194 0.88831 0.13072 0.0
C3668 C 0.44927 0.90844 0.13031 0.0
C3669 C 0.51983 0.00626 0.09893 0.0
C3670 C 0.50631 0.00158 0.08899 0.0
C3671 C 0.51376 0.99643 0.11025 0.0
C3672 C 0.49399 0.98171 0.11196 0.0
C3673 C 0.48058 0.97644 0.10192 0.0
C3674 C 0.48666 0.9863 0.09055 0.0
C3675 C 0.48734 0.97229 0.12434 0.0
C3676 C 0.47891 0.95197 0.12528 0.0
C3677 C 0.49024 0.98346 0.13531 0.0
C3678 C 0.49783 0.00479 0.1349 0.0
C3679 C 0.48834 0.01232 0.12745 0.0
C3680 C 0.49566 0.03244 0.127 0.0
C3681 C 0.5124 0.04519 0.13403 0.0
C3682 C 0.5218 0.03782 0.14155 0.0
C3683 C 0.51455 0.01771 0.14202 0.0
H3684 H 0.51804 0.06076 0.13367 0.0
H3685 H 0.44577 0.86527 0.13835 0.0
H3686 H 0.0738 0.56288 0.17929 0.0
H3687 H 0.06063 0.55539 0.15803 0.0
H3688 H 0.01767 0.4969 0.16907 0.0
H3689 H 0.03099 0.50425 0.19032 0.0
H3690 H 0.03301 0.49639 0.14707 0.0
H3691 H 0.00494 0.5325 0.16563 0.0
H3692 H 0.00574 0.56028 0.1767 0.0
H3693 H 0.0408 0.59886 0.14754 0.0
H3694 H 0.04044 0.57134 0.13637 0.0
H3695 H 0.96379 0.47218 0.09715 0.0
H3696 H 0.97997 0.47969 0.11765 0.0
H3697 H 0.02532 0.53571 0.10435 0.0
H3698 H 0.00906 0.52829 0.08386 0.0
H3699 H 0.00978 0.53792 0.12707 0.0
H3700 H 0.03659 0.50124 0.10814 0.0
H3701 H 0.03528 0.47323 0.09708 0.0
H3702 H 0.00184 0.43537 0.12695 0.0
H3703 H 0.00269 0.46312 0.13811 0.0
C3704 C 0.06151 0.54845 0.17718 0.0
C3705 C 0.05331 0.53419 0.18647 0.0
C3706 C 0.054 0.54418 0.16504 0.0
C3707 C 0.03797 0.52567 0.16201 0.0
C3708 C 0.03004 0.51127 0.1712 0.0
C3709 C 0.03766 0.51548 0.18333 0.0
C3710 C 0.02921 0.52143 0.1493 0.0
C3711 C 0.02771 0.50533 0.14275 0.0
C3712 C 0.0227 0.53335 0.14357 0.0
C3713 C 0.02282 0.5499 0.15023 0.0
C3714 C 0.01294 0.54693 0.16162 0.0
C3715 C 0.01329 0.56263 0.1679 0.0
C3716 C 0.02335 0.58133 0.16284 0.0
C3717 C 0.03303 0.58437 0.15146 0.0
C3718 C 0.03275 0.56873 0.14514 0.0
C3719 C 0.97717 0.4861 0.09863 0.0
C3720 C 0.98523 0.49968 0.08894 0.0
C3721 C 0.98647 0.49031 0.11029 0.0
C3722 C 0.00391 0.50819 0.11246 0.0
C3723 C 0.01191 0.52181 0.10283 0.0
C3724 C 0.00271 0.51753 0.09115 0.0
C3725 C 0.0135 0.51286 0.12489 0.0
C3726 C 0.01514 0.52902 0.13138 0.0
C3727 C 0.02004 0.50095 0.13058 0.0
C3728 C 0.01954 0.48423 0.1239 0.0
C3729 C 0.0288 0.48691 0.1123 0.0
C3730 C 0.02817 0.47108 0.10602 0.0
C3731 C 0.01844 0.45252 0.11129 0.0
C3732 C 0.00935 0.44975 0.12287 0.0
C3733 C 0.00992 0.46553 0.12918 0.0
H3734 H 0.01797 0.44028 0.10642 0.0
H3735 H 0.02361 0.59346 0.16772 0.0
H3736 H 0.49797 0.54595 0.18756 0.0
H3737 H 0.50427 0.53898 0.16649 0.0
H3738 H 0.44263 0.51603 0.15686 0.0
H3739 H 0.43619 0.52319 0.17803 0.0
H3740 H 0.4575 0.49326 0.14757 0.0
H3741 H 0.47544 0.56038 0.14733 0.0
H3742 H 0.49188 0.59439 0.155 0.0
H3743 H 0.54891 0.59925 0.15004 0.0
H3744 H 0.53279 0.56516 0.14252 0.0
H3745 H 0.47916 0.49244 0.08298 0.0
H3746 H 0.4675 0.49895 0.10256 0.0
H3747 H 0.5271 0.52642 0.11747 0.0
H3748 H 0.53897 0.52066 0.09781 0.0
H3749 H 0.50988 0.54731 0.12306 0.0
H3750 H 0.49161 0.47922 0.12518 0.0
H3751 H 0.47513 0.44511 0.11768 0.0
H3752 H 0.41857 0.44221 0.11898 0.0
H3753 H 0.43476 0.47641 0.12635 0.0
C3754 C 0.48575 0.53955 0.18096 0.0
C3755 C 0.46663 0.53539 0.18444 0.0
C3756 C 0.48937 0.53552 0.16892 0.0
C3757 C 0.47399 0.5273 0.16005 0.0
C3758 C 0.45472 0.52246 0.16356 0.0
C3759 C 0.45106 0.52651 0.17566 0.0
C3760 C 0.47833 0.52412 0.14708 0.0
C3761 C 0.46869 0.50512 0.14211 0.0
C3762 C 0.4931 0.53957 0.14002 0.0
C3763 C 0.50288 0.56015 0.14444 0.0
C3764 C 0.49148 0.56866 0.14795 0.0
C3765 C 0.50074 0.58796 0.15226 0.0
C3766 C 0.52142 0.59896 0.15303 0.0
C3767 C 0.53289 0.5907 0.14945 0.0
C3768 C 0.52369 0.57139 0.14515 0.0
C3769 C 0.48983 0.50006 0.09038 0.0
C3770 C 0.51 0.50594 0.08884 0.0
C3771 C 0.4831 0.5036 0.10161 0.0
C3772 C 0.49638 0.51295 0.11155 0.0
C3773 C 0.51655 0.51911 0.10996 0.0
C3774 C 0.52329 0.51563 0.09874 0.0
C3775 C 0.48942 0.51636 0.12366 0.0
C3776 C 0.49854 0.53546 0.12846 0.0
C3777 C 0.47417 0.501 0.13053 0.0
C3778 C 0.46441 0.48042 0.12619 0.0
C3779 C 0.47568 0.47135 0.12379 0.0
C3780 C 0.46639 0.45199 0.11958 0.0
C3781 C 0.44582 0.44151 0.11783 0.0
C3782 C 0.4345 0.45035 0.12033 0.0
C3783 C 0.44372 0.46971 0.12453 0.0
H3784 H 0.43866 0.42653 0.11456 0.0
H3785 H 0.52857 0.6139 0.15637 0.0
H3786 H 0.97068 0.45524 0.81996 0.0
H3787 H 0.9827 0.46157 0.84145 0.0
H3788 H 0.94501 0.48576 0.84939 0.0
H3789 H 0.93265 0.47921 0.8279 0.0
H3790 H 0.98242 0.50829 0.85898 0.0
H3791 H 0.93192 0.44119 0.85946 0.0
H3792 H 0.91409 0.4069 0.85232 0.0
H3793 H 0.96579 0.40211 0.85966 0.0
H3794 H 0.98405 0.43649 0.86667 0.0
H3795 H 0.99789 0.51031 0.92452 0.0
H3796 H 0.98211 0.50336 0.90396 0.0
H3797 H 0.0161 0.47646 0.89269 0.0
H3798 H 0.0314 0.48271 0.91336 0.0
H3799 H 0.97808 0.45496 0.88533 0.0
H3800 H 0.02904 0.5228 0.88368 0.0
H3801 H 0.04673 0.55713 0.89076 0.0
H3802 H 0.99368 0.5604 0.88572 0.0
H3803 H 0.9756 0.52599 0.87875 0.0
C3804 C 0.96477 0.46171 0.8263 0.0
C3805 C 0.95059 0.46658 0.82223 0.0
C3806 C 0.9717 0.46537 0.83857 0.0
C3807 C 0.96455 0.47391 0.84705 0.0
C3808 C 0.95069 0.47914 0.84299 0.0
C3809 C 0.94371 0.47545 0.8307 0.0
C3810 C 0.97172 0.47743 0.86012 0.0
C3811 C 0.98119 0.49659 0.86482 0.0
C3812 C 0.97036 0.46219 0.86766 0.0
C3813 C 0.95941 0.44148 0.86349 0.0
C3814 C 0.93955 0.43288 0.85946 0.0
C3815 C 0.92935 0.41341 0.85545 0.0
C3816 C 0.93881 0.40235 0.85551 0.0
C3817 C 0.95848 0.41071 0.85961 0.0
C3818 C 0.96876 0.43018 0.86361 0.0
C3819 C 0.00186 0.50274 0.91771 0.0
C3820 C 0.01596 0.49712 0.92057 0.0
C3821 C 0.99297 0.49895 0.90592 0.0
C3822 C 0.9981 0.48959 0.89675 0.0
C3823 C 0.01197 0.48375 0.89962 0.0
C3824 C 0.02084 0.4875 0.9114 0.0
C3825 C 0.98909 0.48588 0.88413 0.0
C3826 C 0.97921 0.46665 0.87952 0.0
C3827 C 0.99004 0.50105 0.87669 0.0
C3828 C 1.00092 0.52177 0.88082 0.0
C3829 C 0.02111 0.5308 0.88417 0.0
C3830 C 0.03121 0.55028 0.88815 0.0
C3831 C 0.02132 0.56093 0.88872 0.0
C3832 C 0.00132 0.55213 0.88529 0.0
C3833 C 0.99114 0.53264 0.88131 0.0
H3834 H 0.02917 0.57601 0.89181 0.0
H3835 H 0.93089 0.38728 0.8524 0.0
H3836 H 0.53274 0.43608 0.83191 0.0
H3837 H 0.52555 0.44305 0.85284 0.0
H3838 H 0.53452 0.49868 0.84037 0.0
H3839 H 0.54242 0.49198 0.81951 0.0
H3840 H 0.54834 0.50283 0.86288 0.0
H3841 H 0.48732 0.45753 0.84276 0.0
H3842 H 0.46401 0.42736 0.83146 0.0
H3843 H 0.46494 0.39295 0.86196 0.0
H3844 H 0.48848 0.42293 0.87338 0.0
H3845 H 0.46331 0.4831 0.90919 0.0
H3846 H 0.47463 0.47724 0.88941 0.0
H3847 H 0.5311 0.49245 0.90618 0.0
H3848 H 0.52042 0.49976 0.92578 0.0
H3849 H 0.48475 0.45325 0.88142 0.0
H3850 H 0.56781 0.51248 0.88496 0.0
H3851 H 0.58888 0.54471 0.89484 0.0
H3852 H 0.53966 0.555 0.89511 0.0
H3853 H 0.51838 0.52296 0.8851 0.0
C3854 C 0.53334 0.44986 0.83369 0.0
C3855 C 0.53795 0.46342 0.82409 0.0
C3856 C 0.52917 0.45382 0.84563 0.0
C3857 C 0.52904 0.47121 0.84814 0.0
C3858 C 0.53446 0.48513 0.83867 0.0
C3859 C 0.53896 0.48131 0.82676 0.0
C3860 C 0.52238 0.47447 0.86043 0.0
C3861 C 0.53447 0.49196 0.86695 0.0
C3862 C 0.50407 0.46051 0.86566 0.0
C3863 C 0.48981 0.44246 0.85887 0.0
C3864 C 0.48265 0.44352 0.84702 0.0
C3865 C 0.46939 0.42646 0.8406 0.0
C3866 C 0.46304 0.40824 0.84597 0.0
C3867 C 0.4699 0.40706 0.8578 0.0
C3868 C 0.48319 0.42408 0.86425 0.0
C3869 C 0.47826 0.48551 0.90867 0.0
C3870 C 0.49101 0.49222 0.91911 0.0
C3871 C 0.48464 0.4819 0.89735 0.0
C3872 C 0.50385 0.48469 0.8962 0.0
C3873 C 0.51636 0.49059 0.90673 0.0
C3874 C 0.51009 0.4945 0.91802 0.0
C3875 C 0.51073 0.48159 0.88393 0.0
C3876 C 0.49869 0.46409 0.87741 0.0
C3877 C 0.52875 0.49584 0.87852 0.0
C3878 C 0.54147 0.51523 0.88441 0.0
C3879 C 0.56151 0.52165 0.8871 0.0
C3880 C 0.57348 0.53988 0.89272 0.0
C3881 C 0.56559 0.55187 0.89564 0.0
C3882 C 0.54573 0.54568 0.89289 0.0
C3883 C 0.53371 0.52748 0.88725 0.0
H3884 H 0.57488 0.56596 0.9 0.0
H3885 H 0.45277 0.39505 0.84098 0.0
H3886 H 0.5511 0.06087 0.82024 0.0
H3887 H 0.54574 0.04731 0.84114 0.0
H3888 H 0.51425 0.07739 0.85096 0.0
H3889 H 0.52044 0.09184 0.83028 0.0
H3890 H 0.53639 0.07861 0.87006 0.0
H3891 H 0.48963 0.02812 0.8428 0.0
H3892 H 0.47882 0.00626 0.82444 0.0
H3893 H 0.51413 0.98155 0.83665 0.0
H3894 H 0.52536 0.00345 0.855 0.0
H3895 H 0.48668 0.01979 0.92308 0.0
H3896 H 0.49603 0.03789 0.90349 0.0
H3897 H 0.5258 0.00673 0.89209 0.0
H3898 H 0.51578 0.98816 0.91141 0.0
H3899 H 0.50445 0.00671 0.87388 0.0
H3900 H 0.55037 0.05727 0.90192 0.0
H3901 H 0.55966 0.07869 0.92045 0.0
H3902 H 0.52463 0.10302 0.90702 0.0
H3903 H 0.51488 0.08153 0.88851 0.0
C3904 C 0.54332 0.06491 0.82688 0.0
C3905 C 0.53607 0.07738 0.82345 0.0
C3906 C 0.54006 0.05694 0.83883 0.0
C3907 C 0.52924 0.06099 0.84762 0.0
C3908 C 0.52253 0.0739 0.84436 0.0
C3909 C 0.5259 0.08199 0.83244 0.0
C3910 C 0.52441 0.05133 0.86004 0.0
C3911 C 0.52924 0.06287 0.8709 0.0
C3912 C 0.51528 0.0308 0.86121 0.0
C3913 C 0.50848 0.01756 0.85021 0.0
C3914 C 0.49519 0.01812 0.84152 0.0
C3915 C 0.48898 0.00571 0.83113 0.0
C3916 C 0.49582 0.99256 0.82937 0.0
C3917 C 0.50886 0.99176 0.83802 0.0
C3918 C 0.51514 0.00416 0.84842 0.0
C3919 C 0.49543 0.01702 0.91643 0.0
C3920 C 0.50043 0.00252 0.91873 0.0
C3921 C 0.50085 0.02742 0.90524 0.0
C3922 C 0.51181 0.02387 0.89627 0.0
C3923 C 0.51728 0.00974 0.89878 0.0
C3924 C 0.51157 0.99914 0.90984 0.0
C3925 C 0.51672 0.03397 0.88398 0.0
C3926 C 0.51176 0.02247 0.8731 0.0
C3927 C 0.52563 0.05451 0.88283 0.0
C3928 C 0.53177 0.06766 0.89387 0.0
C3929 C 0.54456 0.06711 0.90295 0.0
C3930 C 0.54991 0.07927 0.91345 0.0
C3931 C 0.54271 0.09219 0.91492 0.0
C3932 C 0.53019 0.09301 0.90588 0.0
C3933 C 0.52476 0.08085 0.89538 0.0
H3934 H 0.54685 0.10158 0.92306 0.0
H3935 H 0.49099 0.98296 0.82131 0.0
H3936 H 0.13856 0.24446 0.51307 0.0
H3937 H 0.14701 0.25783 0.49206 0.0
H3938 H 0.12682 0.29829 0.50085 0.0
H3939 H 0.1183 0.28496 0.52182 0.0
H3940 H 0.11388 0.28296 0.4784 0.0
H3941 H 0.17689 0.31229 0.49991 0.0
H3942 H 0.20375 0.31232 0.51221 0.0
H3943 H 0.21201 0.27908 0.48354 0.0
H3944 H 0.18499 0.27862 0.47114 0.0
H3945 H 0.16035 0.35453 0.43202 0.0
H3946 H 0.15062 0.33672 0.45163 0.0
H3947 H 0.16835 0.29657 0.43759 0.0
H3948 H 0.17849 0.31471 0.41795 0.0
H3949 H 0.18171 0.30888 0.46165 0.0
H3950 H 0.12114 0.28359 0.43896 0.0
H3951 H 0.09566 0.28572 0.42651 0.0
H3952 H 0.08244 0.31156 0.45754 0.0
H3953 H 0.1086 0.31056 0.47002 0.0
C3954 C 0.13607 0.25631 0.51057 0.0
C3955 C 0.12777 0.26364 0.51918 0.0
C3956 C 0.14089 0.26394 0.49853 0.0
C3957 C 0.13774 0.27923 0.49485 0.0
C3958 C 0.12933 0.28646 0.5034 0.0
C3959 C 0.12443 0.27879 0.51541 0.0
C3960 C 0.14323 0.28779 0.48215 0.0
C3961 C 0.12877 0.28881 0.4748 0.0
C3962 C 0.1625 0.29493 0.47724 0.0
C3963 C 0.17877 0.29524 0.48467 0.0
C3964 C 0.18433 0.30485 0.49627 0.0
C3965 C 0.1996 0.30497 0.50326 0.0
C3966 C 0.20954 0.29566 0.49868 0.0
C3967 C 0.20427 0.28625 0.48709 0.0
C3968 C 0.18899 0.28607 0.48008 0.0
C3969 C 0.1622 0.34192 0.43311 0.0
C3970 C 0.17006 0.33592 0.42341 0.0
C3971 C 0.15654 0.33168 0.4443 0.0
C3972 C 0.15858 0.31519 0.44607 0.0
C3973 C 0.16657 0.30921 0.43643 0.0
C3974 C 0.17215 0.31943 0.42518 0.0
C3975 C 0.15247 0.30438 0.45804 0.0
C3976 C 0.16678 0.3029 0.46522 0.0
C3977 C 0.13308 0.29689 0.46281 0.0
C3978 C 0.11702 0.29716 0.45541 0.0
C3979 C 0.11297 0.28992 0.44311 0.0
C3980 C 0.09838 0.29092 0.43604 0.0
C3981 C 0.08735 0.29866 0.44125 0.0
C3982 C 0.09099 0.30555 0.45352 0.0
C3983 C 0.10577 0.30485 0.46058 0.0
H3984 H 0.07599 0.29932 0.43577 0.0
H3985 H 0.22136 0.29577 0.50409 0.0
H3986 H 0.70615 0.88222 0.52104 0.0
H3987 H 0.691 0.8736 0.50038 0.0
H3988 H 0.7262 0.84701 0.49142 0.0
H3989 H 0.74223 0.85649 0.5119 0.0
H3990 H 0.7253 0.86763 0.47234 0.0
H3991 H 0.67684 0.81909 0.49875 0.0
H3992 H 0.65483 0.8063 0.51689 0.0
H3993 H 0.62397 0.83588 0.50515 0.0
H3994 H 0.64599 0.84909 0.48702 0.0
H3995 H 0.66749 0.81988 0.4181 0.0
H3996 H 0.68362 0.82606 0.43853 0.0
H3997 H 0.65337 0.85663 0.45012 0.0
H3998 H 0.63723 0.85053 0.42972 0.0
H3999 H 0.65197 0.83177 0.46775 0.0
H4000 H 0.70217 0.88129 0.44158 0.0
H4001 H 0.72399 0.89291 0.42328 0.0
H4002 H 0.75128 0.85969 0.43447 0.0
H4003 H 0.72944 0.84767 0.45276 0.0
C4004 C 0.71089 0.87476 0.51464 0.0
C4005 C 0.72541 0.87004 0.51815 0.0
C4006 C 0.70201 0.86962 0.50287 0.0
C4007 C 0.70722 0.85937 0.49442 0.0
C4008 C 0.72187 0.85481 0.49782 0.0
C4009 C 0.73087 0.86008 0.50958 0.0
C4010 C 0.69743 0.85357 0.48203 0.0
C4011 C 0.70927 0.85952 0.47134 0.0
C4012 C 0.67651 0.84318 0.48071 0.0
C4013 C 0.66318 0.83521 0.49158 0.0
C4014 C 0.66546 0.82299 0.50009 0.0
C4015 C 0.65296 0.81564 0.51036 0.0
C4016 C 0.63804 0.82031 0.51218 0.0
C4017 C 0.63555 0.83229 0.50373 0.0
C4018 C 0.64802 0.8397 0.49344 0.0
C4019 C 0.66438 0.82803 0.42498 0.0
C4020 C 0.65113 0.83477 0.4223 0.0
C4021 C 0.67359 0.83153 0.43665 0.0
C4022 C 0.66985 0.84198 0.44579 0.0
C4023 C 0.65644 0.8485 0.44319 0.0
C4024 C 0.64718 0.84496 0.43155 0.0
C4025 C 0.67983 0.84613 0.45811 0.0
C4026 C 0.66801 0.8398 0.46878 0.0
C4027 C 0.70075 0.85602 0.45939 0.0
C4028 C 0.71405 0.86344 0.44848 0.0
C4029 C 0.71274 0.87636 0.44009 0.0
C4030 C 0.72512 0.88303 0.42973 0.0
C4031 C 0.73898 0.87701 0.4277 0.0
C4032 C 0.74052 0.86433 0.43605 0.0
C4033 C 0.72816 0.8576 0.44642 0.0
H4034 H 0.74856 0.8822 0.41969 0.0
H4035 H 0.62838 0.8146 0.52014 0.0
H4036 H 0.13986 0.89319 0.50974 0.0
H4037 H 0.14593 0.88476 0.48893 0.0
H4038 H 0.12495 0.82558 0.50065 0.0
H4039 H 0.11918 0.83401 0.52159 0.0
H4040 H 0.16015 0.84077 0.48849 0.0
H4041 H 0.0969 0.83587 0.48147 0.0
H4042 H 0.07256 0.84718 0.48188 0.0
H4043 H 0.11003 0.89531 0.4584 0.0
H4044 H 0.13474 0.88445 0.458 0.0
H4045 H 0.16429 0.80526 0.42893 0.0
H4046 H 0.15148 0.80977 0.44866 0.0
H4047 H 0.16663 0.86803 0.43778 0.0
H4048 H 0.17894 0.86334 0.41788 0.0
H4049 H 0.13272 0.85178 0.44957 0.0
H4050 H 0.19677 0.85878 0.4576 0.0
H4051 H 0.22216 0.84881 0.45734 0.0
H4052 H 0.18454 0.79846 0.47917 0.0
H4053 H 0.15881 0.80801 0.47941 0.0
C4054 C 0.13651 0.87837 0.50789 0.0
C4055 C 0.12908 0.86428 0.51733 0.0
C4056 C 0.13983 0.87353 0.49595 0.0
C4057 C 0.13575 0.8545 0.4932 0.0
C4058 C 0.12813 0.84034 0.50256 0.0
C4059 C 0.12472 0.84514 0.51449 0.0
C4060 C 0.14037 0.84966 0.48073 0.0
C4061 C 0.15388 0.84284 0.47999 0.0
C4062 C 0.13264 0.85292 0.46962 0.0
C4063 C 0.11775 0.85943 0.46979 0.0
C4064 C 0.10002 0.84895 0.47647 0.0
C4065 C 0.08615 0.85526 0.47669 0.0
C4066 C 0.08977 0.87197 0.47019 0.0
C4067 C 0.10726 0.88238 0.46344 0.0
C4068 C 0.12119 0.87613 0.4632 0.0
C4069 C 0.16482 0.819 0.43075 0.0
C4070 C 0.17283 0.83404 0.42194 0.0
C4071 C 0.15753 0.82158 0.44203 0.0
C4072 C 0.15848 0.83941 0.44485 0.0
C4073 C 0.16579 0.85417 0.43586 0.0
C4074 C 0.17283 0.85149 0.42449 0.0
C4075 C 0.15256 0.84292 0.45733 0.0
C4076 C 0.13887 0.84956 0.45807 0.0
C4077 C 0.16028 0.8397 0.46847 0.0
C4078 C 0.17579 0.834 0.46841 0.0
C4079 C 0.19387 0.84552 0.46227 0.0
C4080 C 0.20832 0.83995 0.46214 0.0
C4081 C 0.20495 0.82298 0.46821 0.0
C4082 C 0.18712 0.81158 0.47445 0.0
C4083 C 0.1726 0.81707 0.4746 0.0
H4084 H 0.21616 0.81869 0.46809 0.0
H4085 H 0.07901 0.87684 0.47037 0.0
H4086 H 0.5939 0.80951 0.16221 0.0
H4087 H 0.60647 0.81592 0.18365 0.0
H4088 H 0.64273 0.79016 0.17562 0.0
H4089 H 0.63053 0.78399 0.15417 0.0
H4090 H 0.62259 0.77703 0.19758 0.0
H4091 H 0.66305 0.83895 0.17718 0.0
H4092 H 0.66858 0.86759 0.16502 0.0
H4093 H 0.63841 0.88209 0.19277 0.0
H4094 H 0.63247 0.85337 0.20501 0.0
H4095 H 0.69199 0.80994 0.24691 0.0
H4096 H 0.6754 0.80329 0.22665 0.0
H4097 H 0.64515 0.83389 0.23816 0.0
H4098 H 0.66226 0.84122 0.25831 0.0
H4099 H 0.65918 0.84413 0.21525 0.0
H4100 H 0.62057 0.78432 0.23652 0.0
H4101 H 0.61401 0.7556 0.24893 0.0
H4102 H 0.63875 0.73662 0.22013 0.0
H4103 H 0.64576 0.7654 0.20762 0.0
C4104 C 0.6047 0.80539 0.16497 0.0
C4105 C 0.61119 0.79621 0.15647 0.0
C4106 C 0.6118 0.80899 0.17724 0.0
C4107 C 0.62557 0.80356 0.18121 0.0
C4108 C 0.63201 0.79435 0.17277 0.0
C4109 C 0.62497 0.79079 0.16052 0.0
C4110 C 0.63342 0.80749 0.19413 0.0
C4111 C 0.63076 0.79171 0.20143 0.0
C4112 C 0.64346 0.82658 0.19926 0.0
C4113 C 0.64713 0.8439 0.19193 0.0
C4114 C 0.65746 0.84816 0.18063 0.0
C4115 C 0.66069 0.86442 0.17374 0.0
C4116 C 0.6538 0.87662 0.1781 0.0
C4117 C 0.64371 0.87261 0.18939 0.0
C4118 C 0.64042 0.85635 0.19631 0.0
C4119 C 0.68194 0.8154 0.2451 0.0
C4120 C 0.67844 0.8261 0.25423 0.0
C4121 C 0.67229 0.8114 0.23357 0.0
C4122 C 0.65882 0.81786 0.23095 0.0
C4123 C 0.6554 0.82867 0.24 0.0
C4124 C 0.66508 0.83271 0.25154 0.0
C4125 C 0.64871 0.81369 0.21865 0.0
C4126 C 0.65089 0.82942 0.21148 0.0
C4127 C 0.63805 0.79451 0.21368 0.0
C4128 C 0.63385 0.77714 0.22117 0.0
C4129 C 0.62477 0.77412 0.23287 0.0
C4130 C 0.62094 0.75781 0.23992 0.0
C4131 C 0.626 0.74432 0.23533 0.0
C4132 C 0.63486 0.74709 0.22368 0.0
C4133 C 0.63875 0.7634 0.2166 0.0
H4134 H 0.62303 0.7317 0.2408 0.0
H4135 H 0.65632 0.88921 0.17275 0.0
H4136 H 0.19338 0.7715 0.16385 0.0
H4137 H 0.18731 0.77905 0.1849 0.0
H4138 H 0.20355 0.83734 0.17343 0.0
H4139 H 0.20995 0.82992 0.15237 0.0
H4140 H 0.21793 0.83829 0.19609 0.0
H4141 H 0.15454 0.80114 0.17593 0.0
H4142 H 0.12808 0.77324 0.16429 0.0
H4143 H 0.1232 0.73459 0.19371 0.0
H4144 H 0.14985 0.76224 0.20546 0.0
H4145 H 0.16809 0.85986 0.24389 0.0
H4146 H 0.17887 0.85314 0.22402 0.0
H4147 H 0.16872 0.79789 0.23799 0.0
H4148 H 0.15786 0.80451 0.2579 0.0
H4149 H 0.15186 0.79515 0.2145 0.0
H4150 H 0.21465 0.83338 0.23506 0.0
H4151 H 0.2406 0.86185 0.24656 0.0
H4152 H 0.24586 0.89921 0.21621 0.0
H4153 H 0.21972 0.87099 0.20459 0.0
C4154 C 0.19567 0.78593 0.16582 0.0
C4155 C 0.20195 0.80005 0.15642 0.0
C4156 C 0.19219 0.79024 0.17785 0.0
C4157 C 0.19459 0.80866 0.18071 0.0
C4158 C 0.20154 0.82301 0.17145 0.0
C4159 C 0.20521 0.81876 0.15942 0.0
C4160 C 0.18926 0.8127 0.19322 0.0
C4161 C 0.20341 0.82898 0.20005 0.0
C4162 C 0.17043 0.80037 0.19852 0.0
C4163 C 0.15432 0.78373 0.19151 0.0
C4164 C 0.14793 0.78667 0.17987 0.0
C4165 C 0.13288 0.7709 0.17326 0.0
C4166 C 0.124 0.75214 0.17824 0.0
C4167 C 0.13011 0.74912 0.18986 0.0
C4168 C 0.14518 0.76484 0.1965 0.0
C4169 C 0.16816 0.84628 0.24272 0.0
C4170 C 0.16209 0.83269 0.25244 0.0
C4171 C 0.17445 0.84253 0.2314 0.0
C4172 C 0.17469 0.82506 0.22955 0.0
C4173 C 0.16869 0.81148 0.23924 0.0
C4174 C 0.1626 0.81532 0.25062 0.0
C4175 C 0.18052 0.8207 0.21734 0.0
C4176 C 0.16642 0.80439 0.21056 0.0
C4177 C 0.19931 0.83309 0.21206 0.0
C4178 C 0.21508 0.85009 0.21901 0.0
C4179 C 0.22121 0.84769 0.23088 0.0
C4180 C 0.23598 0.86378 0.23741 0.0
C4181 C 0.24484 0.88233 0.23213 0.0
C4182 C 0.23897 0.88483 0.22029 0.0
C4183 C 0.22419 0.86879 0.21373 0.0
H4184 H 0.25628 0.89477 0.2372 0.0
H4185 H 0.11236 0.73995 0.17311 0.0
H4186 H 0.22927 0.42605 0.16263 0.0
H4187 H 0.22381 0.41308 0.18379 0.0
H4188 H 0.16304 0.37152 0.17423 0.0
H4189 H 0.16838 0.38441 0.15314 0.0
H4190 H 0.16457 0.38776 0.19607 0.0
H4191 H 0.19985 0.35865 0.17707 0.0
H4192 H 0.22772 0.35893 0.16605 0.0
H4193 H 0.26765 0.39358 0.19543 0.0
H4194 H 0.24005 0.3937 0.20656 0.0
H4195 H 0.13589 0.31805 0.24364 0.0
H4196 H 0.14515 0.33588 0.22411 0.0
H4197 H 0.20372 0.37468 0.23886 0.0
H4198 H 0.19467 0.35643 0.25842 0.0
H4199 H 0.20571 0.36313 0.21549 0.0
H4200 H 0.17014 0.3902 0.23528 0.0
H4201 H 0.14236 0.38987 0.24644 0.0
H4202 H 0.10321 0.35949 0.21574 0.0
H4203 H 0.1307 0.35939 0.20447 0.0
C4204 C 0.2148 0.41402 0.165 0.0
C4205 C 0.19925 0.40633 0.15615 0.0
C4206 C 0.21168 0.40661 0.17712 0.0
C4207 C 0.19302 0.39119 0.18065 0.0
C4208 C 0.17754 0.38347 0.17181 0.0
C4209 C 0.18061 0.39091 0.15973 0.0
C4210 C 0.18939 0.38317 0.19354 0.0
C4211 C 0.17346 0.3822 0.20025 0.0
C4212 C 0.20135 0.37648 0.19924 0.0
C4213 C 0.21793 0.37636 0.19257 0.0
C4214 C 0.21461 0.36645 0.18113 0.0
C4215 C 0.23035 0.36652 0.17487 0.0
C4216 C 0.24946 0.37632 0.18002 0.0
C4217 C 0.25285 0.38602 0.19145 0.0
C4218 C 0.23716 0.38602 0.19774 0.0
C4219 C 0.15078 0.33034 0.24276 0.0
C4220 C 0.16455 0.33572 0.25262 0.0
C4221 C 0.156 0.34067 0.23159 0.0
C4222 C 0.1751 0.35678 0.23 0.0
C4223 C 0.18888 0.36234 0.23985 0.0
C4224 C 0.18363 0.35199 0.25108 0.0
C4225 C 0.18065 0.36735 0.2179 0.0
C4226 C 0.19693 0.36884 0.21135 0.0
C4227 C 0.16904 0.37455 0.21235 0.0
C4228 C 0.15247 0.37466 0.21907 0.0
C4229 C 0.15558 0.38332 0.23095 0.0
C4230 C 0.13989 0.38323 0.23729 0.0
C4231 C 0.12103 0.37463 0.23181 0.0
C4232 C 0.11783 0.36614 0.21998 0.0
C4233 C 0.13347 0.36617 0.2136 0.0
H4234 H 0.10889 0.37457 0.23673 0.0
H4235 H 0.26163 0.37635 0.17516 0.0
H4236 H 0.79774 0.56895 0.84463 0.0
H4237 H 0.80582 0.58201 0.82352 0.0
H4238 H 0.79194 0.62673 0.83352 0.0
H4239 H 0.78352 0.61351 0.85452 0.0
H4240 H 0.77736 0.61339 0.81156 0.0
H4241 H 0.84089 0.6355 0.83117 0.0
H4242 H 0.86644 0.6317 0.84245 0.0
H4243 H 0.86744 0.59553 0.81285 0.0
H4244 H 0.8417 0.59892 0.80147 0.0
H4245 H 0.85826 0.682 0.76511 0.0
H4246 H 0.84869 0.66441 0.78467 0.0
H4247 H 0.79439 0.61976 0.76766 0.0
H4248 H 0.80331 0.63801 0.74819 0.0
H4249 H 0.84229 0.63144 0.7927 0.0
H4250 H 0.75761 0.59986 0.78967 0.0
H4251 H 0.73325 0.60666 0.77949 0.0
H4252 H 0.77696 0.66753 0.77759 0.0
H4253 H 0.80145 0.66115 0.78801 0.0
C4254 C 0.79651 0.58163 0.84234 0.0
C4255 C 0.79 0.59019 0.85128 0.0
C4256 C 0.80114 0.5891 0.83025 0.0
C4257 C 0.7997 0.60552 0.8269 0.0
C4258 C 0.7931 0.61401 0.83581 0.0
C4259 C 0.78828 0.60643 0.84784 0.0
C4260 C 0.80514 0.61402 0.81417 0.0
C4261 C 0.79154 0.61726 0.80743 0.0
C4262 C 0.8237 0.61927 0.80874 0.0
C4263 C 0.83923 0.6173 0.81553 0.0
C4264 C 0.84647 0.62663 0.82711 0.0
C4265 C 0.86099 0.62457 0.83351 0.0
C4266 C 0.86852 0.61334 0.82838 0.0
C4267 C 0.86157 0.6042 0.81682 0.0
C4268 C 0.84703 0.6062 0.81039 0.0
C4269 C 0.84415 0.66855 0.76552 0.0
C4270 C 0.83142 0.66169 0.75506 0.0
C4271 C 0.8388 0.65834 0.77672 0.0
C4272 C 0.82064 0.64086 0.77779 0.0
C4273 C 0.8083 0.63341 0.7672 0.0
C4274 C 0.81355 0.64377 0.75599 0.0
C4275 C 0.81457 0.63098 0.79011 0.0
C4276 C 0.82803 0.62741 0.79677 0.0
C4277 C 0.79606 0.62585 0.79559 0.0
C4278 C 0.78142 0.62996 0.78947 0.0
C4279 C 0.76199 0.6147 0.78711 0.0
C4280 C 0.74816 0.61849 0.78131 0.0
C4281 C 0.75358 0.63749 0.77782 0.0
C4282 C 0.77281 0.65279 0.78024 0.0
C4283 C 0.78667 0.6491 0.7861 0.0
H4284 H 0.74287 0.64037 0.77327 0.0
H4285 H 0.87976 0.61176 0.83336 0.0
H4286 H 0.40714 0.19009 0.84492 0.0
H4287 H 0.39203 0.18129 0.82415 0.0
H4288 H 0.35032 0.19962 0.83459 0.0
H4289 H 0.36503 0.208 0.85546 0.0
H4290 H 0.33234 0.16512 0.822 0.0
H4291 H 0.38983 0.22861 0.81707 0.0
H4292 H 0.42538 0.25327 0.81854 0.0
H4293 H 0.43954 0.21812 0.79485 0.0
H4294 H 0.40408 0.1931 0.79339 0.0
H4295 H 0.29893 0.17578 0.76275 0.0
H4296 H 0.31428 0.18206 0.78339 0.0
H4297 H 0.35261 0.16064 0.77101 0.0
H4298 H 0.337 0.15381 0.75039 0.0
H4299 H 0.37266 0.1954 0.78439 0.0
H4300 H 0.31496 0.13244 0.78872 0.0
H4301 H 0.27937 0.10799 0.78714 0.0
H4302 H 0.26557 0.14228 0.81188 0.0
H4303 H 0.30108 0.1671 0.81346 0.0
C4304 C 0.39463 0.19207 0.84282 0.0
C4305 C 0.38732 0.19981 0.85181 0.0
C4306 C 0.38613 0.18719 0.83093 0.0
C4307 C 0.3702 0.19001 0.8278 0.0
C4308 C 0.36265 0.1974 0.83681 0.0
C4309 C 0.37117 0.20233 0.84869 0.0
C4310 C 0.36143 0.18535 0.81512 0.0
C4311 C 0.3411 0.1719 0.81379 0.0
C4312 C 0.373 0.19385 0.80439 0.0
C4313 C 0.39432 0.20888 0.80524 0.0
C4314 C 0.40054 0.22606 0.81226 0.0
C4315 C 0.42067 0.24012 0.81308 0.0
C4316 C 0.43471 0.23724 0.80682 0.0
C4317 C 0.42865 0.22032 0.79971 0.0
C4318 C 0.40854 0.2062 0.79888 0.0
C4319 C 0.31045 0.17217 0.76443 0.0
C4320 C 0.31664 0.16419 0.75491 0.0
C4321 C 0.31927 0.17585 0.77622 0.0
C4322 C 0.33445 0.17166 0.77873 0.0
C4323 C 0.34092 0.164 0.76923 0.0
C4324 C 0.33203 0.16019 0.75745 0.0
C4325 C 0.34356 0.17532 0.7913 0.0
C4326 C 0.36393 0.18856 0.79261 0.0
C4327 C 0.33204 0.16665 0.802 0.0
C4328 C 0.31067 0.15172 0.80112 0.0
C4329 C 0.30433 0.13485 0.79375 0.0
C4330 C 0.28417 0.12091 0.79286 0.0
C4331 C 0.27021 0.1236 0.79938 0.0
C4332 C 0.2764 0.14022 0.80682 0.0
C4333 C 0.29654 0.15423 0.80773 0.0
H4334 H 0.25461 0.11279 0.79869 0.0
H4335 H 0.45029 0.24814 0.80745 0.0
H4336 H 0.77143 0.18513 0.84568 0.0
H4337 H 0.77784 0.17829 0.82445 0.0
H4338 H 0.83998 0.20343 0.8335 0.0
H4339 H 0.83369 0.21001 0.85469 0.0
H4340 H 0.83436 0.21756 0.81178 0.0
H4341 H 0.80992 0.15441 0.83088 0.0
H4342 H 0.78549 0.12513 0.84209 0.0
H4343 H 0.74239 0.1127 0.81317 0.0
H4344 H 0.76651 0.14207 0.80187 0.0
H4345 H 0.87381 0.18669 0.7641 0.0
H4346 H 0.86188 0.19204 0.78385 0.0
H4347 H 0.80212 0.16379 0.76917 0.0
H4348 H 0.81391 0.15781 0.74942 0.0
H4349 H 0.80308 0.15151 0.79255 0.0
H4350 H 0.82767 0.2127 0.77257 0.0
H4351 H 0.85155 0.24196 0.76112 0.0
H4352 H 0.89336 0.25845 0.79133 0.0
H4353 H 0.86984 0.22912 0.8029 0.0
C4354 C 0.78641 0.18894 0.84319 0.0
C4355 C 0.80207 0.19825 0.85188 0.0
C4356 C 0.79006 0.18508 0.83105 0.0
C4357 C 0.8094 0.19037 0.82738 0.0
C4358 C 0.82496 0.19937 0.83608 0.0
C4359 C 0.82134 0.20318 0.84819 0.0
C4360 C 0.81372 0.187 0.81443 0.0
C4361 C 0.82765 0.2031 0.80762 0.0
C4362 C 0.80442 0.16822 0.80882 0.0
C4363 C 0.78994 0.15056 0.8156 0.0
C4364 C 0.79518 0.14553 0.82697 0.0
C4365 C 0.7814 0.1289 0.83333 0.0
C4366 C 0.76238 0.1171 0.82837 0.0
C4367 C 0.75711 0.12187 0.81702 0.0
C4368 C 0.77084 0.13851 0.81063 0.0
C4369 C 0.8581 0.18148 0.76508 0.0
C4370 C 0.84482 0.1718 0.75517 0.0
C4371 C 0.85132 0.18472 0.77635 0.0
C4372 C 0.83113 0.17852 0.77797 0.0
C4373 C 0.81778 0.16877 0.76813 0.0
C4374 C 0.82456 0.16552 0.75681 0.0
C4375 C 0.82413 0.18203 0.79004 0.0
C4376 C 0.80965 0.16601 0.79666 0.0
C4377 C 0.83283 0.20091 0.79547 0.0
C4378 C 0.84703 0.21861 0.78856 0.0
C4379 C 0.84202 0.22248 0.77673 0.0
C4380 C 0.85548 0.2391 0.77023 0.0
C4381 C 0.87398 0.25204 0.77549 0.0
C4382 C 0.87903 0.2484 0.78727 0.0
C4383 C 0.86563 0.23179 0.79381 0.0
H4384 H 0.88438 0.2649 0.77044 0.0
H4385 H 0.75173 0.10422 0.8333 0.0
H4386 H 0.30121 0.16181 0.48593 0.0
H4387 H 0.31521 0.16937 0.50702 0.0
H4388 H 0.27481 0.11014 0.51802 0.0
H4389 H 0.26062 0.10249 0.49694 0.0
H4390 H 0.27829 0.13876 0.53549 0.0
H4391 H 0.32023 0.1218 0.51179 0.0
H4392 H 0.34156 0.12455 0.49412 0.0
H4393 H 0.38145 0.18468 0.50352 0.0
H4394 H 0.36019 0.18236 0.52115 0.0
H4395 H 0.32478 0.13474 0.5913 0.0
H4396 H 0.30923 0.1291 0.57072 0.0
H4397 H 0.35655 0.18506 0.55869 0.0
H4398 H 0.37238 0.19052 0.5792 0.0
H4399 H 0.3493 0.15907 0.5416 0.0
H4400 H 0.30906 0.17683 0.56544 0.0
H4401 H 0.28797 0.17549 0.58288 0.0
H4402 H 0.24523 0.11625 0.57324 0.0
H4403 H 0.26621 0.11713 0.55582 0.0
C4404 C 0.29518 0.15046 0.49288 0.0
C4405 C 0.27989 0.13154 0.4898 0.0
C4406 C 0.30325 0.15477 0.50489 0.0
C4407 C 0.29611 0.14027 0.51402 0.0
C4408 C 0.28051 0.1215 0.51107 0.0
C4409 C 0.27254 0.11713 0.49903 0.0
C4410 C 0.30536 0.14452 0.52655 0.0
C4411 C 0.29375 0.14299 0.53689 0.0
C4412 C 0.32566 0.15058 0.52825 0.0
C4413 C 0.33852 0.15195 0.51771 0.0
C4414 C 0.33346 0.13565 0.51003 0.0
C4415 C 0.34555 0.13713 0.50003 0.0
C4416 C 0.36282 0.15479 0.49768 0.0
C4417 C 0.36806 0.17101 0.50534 0.0
C4418 C 0.356 0.16962 0.51534 0.0
C4419 C 0.33176 0.14588 0.58428 0.0
C4420 C 0.34975 0.16308 0.58682 0.0
C4421 C 0.32284 0.14269 0.57254 0.0
C4422 C 0.33155 0.15679 0.56321 0.0
C4423 C 0.34955 0.17398 0.56575 0.0
C4424 C 0.3586 0.17707 0.57744 0.0
C4425 C 0.32227 0.15331 0.55066 0.0
C4426 C 0.33386 0.15494 0.54028 0.0
C4427 C 0.302 0.14758 0.54892 0.0
C4428 C 0.28931 0.14699 0.55939 0.0
C4429 C 0.29524 0.16346 0.56709 0.0
C4430 C 0.28329 0.16279 0.57697 0.0
C4431 C 0.2653 0.14578 0.57919 0.0
C4432 C 0.25919 0.12941 0.57151 0.0
C4433 C 0.27109 0.12999 0.56163 0.0
H4434 H 0.25607 0.1453 0.58684 0.0
H4435 H 0.37216 0.15591 0.48994 0.0
H4436 H 0.8674 0.10827 0.49924 0.0
H4437 H 0.86009 0.11611 0.51989 0.0
H4438 H 0.86903 0.17113 0.50621 0.0
H4439 H 0.87706 0.16358 0.48563 0.0
H4440 H 0.88276 0.17627 0.52883 0.0
H4441 H 0.82177 0.12998 0.50906 0.0
H4442 H 0.79855 0.09931 0.4982 0.0
H4443 H 0.79968 0.06631 0.52949 0.0
H4444 H 0.82313 0.0968 0.54047 0.0
H4445 H 0.79785 0.15684 0.57554 0.0
H4446 H 0.80924 0.15152 0.55561 0.0
H4447 H 0.86594 0.16705 0.57215 0.0
H4448 H 0.85514 0.17373 0.59194 0.0
H4449 H 0.81931 0.12729 0.54783 0.0
H4450 H 0.90241 0.18675 0.5507 0.0
H4451 H 0.92352 0.21927 0.56021 0.0
H4452 H 0.87415 0.22932 0.56041 0.0
H4453 H 0.85283 0.19699 0.55076 0.0
C4454 C 0.86796 0.12211 0.50069 0.0
C4455 C 0.87262 0.13525 0.49083 0.0
C4456 C 0.86372 0.12655 0.51248 0.0
C4457 C 0.86354 0.14402 0.51457 0.0
C4458 C 0.869 0.15753 0.50484 0.0
C4459 C 0.87358 0.15322 0.49309 0.0
C4460 C 0.85685 0.1478 0.52671 0.0
C4461 C 0.86891 0.16554 0.53299 0.0
C4462 C 0.83856 0.13401 0.53207 0.0
C4463 C 0.82434 0.11566 0.52554 0.0
C4464 C 0.81716 0.11618 0.51359 0.0
C4465 C 0.80395 0.09883 0.50742 0.0
C4466 C 0.79768 0.08087 0.51314 0.0
C4467 C 0.80457 0.08023 0.52506 0.0
C4468 C 0.81781 0.09754 0.53127 0.0
C4469 C 0.81288 0.15948 0.57493 0.0
C4470 C 0.8256 0.16593 0.58539 0.0
C4471 C 0.81931 0.15619 0.56352 0.0
C4472 C 0.83856 0.1591 0.56228 0.0
C4473 C 0.85115 0.16505 0.57277 0.0
C4474 C 0.84482 0.1686 0.58416 0.0
C4475 C 0.84527 0.15572 0.55002 0.0
C4476 C 0.83321 0.13802 0.54371 0.0
C4477 C 0.86324 0.1698 0.54446 0.0
C4478 C 0.87599 0.18937 0.55014 0.0
C4479 C 0.89609 0.19594 0.55274 0.0
C4480 C 0.90808 0.21433 0.55816 0.0
C4481 C 0.90017 0.22633 0.56095 0.0
C4482 C 0.88025 0.21999 0.55829 0.0
C4483 C 0.8682 0.20162 0.55286 0.0
H4484 H 0.90947 0.24055 0.56515 0.0
H4485 H 0.78746 0.06745 0.50834 0.0
H4486 H 0.83656 0.71823 0.48481 0.0
H4487 H 0.83107 0.70547 0.50593 0.0
H4488 H 0.8921 0.74621 0.51541 0.0
H4489 H 0.89774 0.75903 0.49418 0.0
H4490 H 0.88114 0.71133 0.52521 0.0
H4491 H 0.85439 0.75405 0.52487 0.0
H4492 H 0.83402 0.76768 0.51707 0.0
H4493 H 0.78112 0.71247 0.52246 0.0
H4494 H 0.8012 0.69841 0.53013 0.0
H4495 H 0.86192 0.68912 0.58999 0.0
H4496 H 0.87143 0.70752 0.5705 0.0
H4497 H 0.81254 0.67016 0.55571 0.0
H4498 H 0.80282 0.65221 0.57519 0.0
H4499 H 0.8251 0.70695 0.5496 0.0
H4500 H 0.85241 0.66378 0.54827 0.0
H4501 H 0.87293 0.65025 0.55601 0.0
H4502 H 0.92506 0.70692 0.55392 0.0
H4503 H 0.90479 0.72082 0.54632 0.0
C4504 C 0.84881 0.72459 0.49139 0.0
C4505 C 0.86755 0.73982 0.4878 0.0
C4506 C 0.84565 0.71726 0.50349 0.0
C4507 C 0.86106 0.72511 0.51239 0.0
C4508 C 0.87994 0.73995 0.50876 0.0
C4509 C 0.88316 0.74724 0.4966 0.0
C4510 C 0.85732 0.71778 0.52544 0.0
C4511 C 0.86909 0.71069 0.53062 0.0
C4512 C 0.84147 0.7167 0.53251 0.0
C4513 C 0.82932 0.72514 0.52799 0.0
C4514 C 0.83842 0.74478 0.52432 0.0
C4515 C 0.82693 0.75258 0.51993 0.0
C4516 C 0.80629 0.74094 0.51925 0.0
C4517 C 0.7971 0.72147 0.52299 0.0
C4518 C 0.80854 0.71358 0.52737 0.0
C4519 C 0.85093 0.68501 0.58265 0.0
C4520 C 0.83166 0.66902 0.58413 0.0
C4521 C 0.85644 0.69543 0.57146 0.0
C4522 C 0.8428 0.69005 0.56151 0.0
C4523 C 0.82338 0.67456 0.56317 0.0
C4524 C 0.81789 0.66418 0.57431 0.0
C4525 C 0.84863 0.70012 0.54926 0.0
C4526 C 0.83726 0.70777 0.54423 0.0
C4527 C 0.86487 0.70174 0.54236 0.0
C4528 C 0.87706 0.69337 0.54686 0.0
C4529 C 0.86823 0.67337 0.54955 0.0
C4530 C 0.87981 0.66564 0.55389 0.0
C4531 C 0.90027 0.67773 0.55549 0.0
C4532 C 0.9092 0.69758 0.5527 0.0
C4533 C 0.89768 0.70539 0.54837 0.0
H4534 H 0.90922 0.67171 0.55886 0.0
H4535 H 0.79741 0.74701 0.51584 0.0
loop_
_geom_bond_atom_site_label_1
_geom_bond_atom_site_label_2
_geom_bond_distance
_geom_bond_site_symmetry_2
_ccdc_geom_bond_type
C0 C1 1.391 . S
C0 C4 1.391 . S
C0 H42 0.948 . S
C1 C0 1.391 . S
C1 C2 1.391 . S
C2 C1 1.391 . S
C2 H58 0.947 . S
C2 C59 1.392 . S
C3 C4 1.391 . S
C3 C7 1.397 . S
C3 C59 1.419 . S
C4 C0 1.391 . S
C4 C3 1.391 . S
C4 C5 1.399 . S
C5 C4 1.399 . S
C5 C8 1.396 . S
C5 C17 1.453 . S
C5 C18 1.684 . S
H6 C30 0.948 . S
C7 C3 1.397 . S
C7 C8 1.394 . S
C7 C26 1.723 . S
C8 C5 1.396 . S
C8 C7 1.394 . S
C8 C38 1.723 . S
H9 C32 0.947 . S
H10 C33 0.948 . S
H11 C39 0.982 . S
H12 C40 0.979 . S
H13 C40 0.980 . S
H14 C40 0.983 . S
H15 C39 0.979 . S
H16 C39 0.977 . S
C17 C5 1.453 . S
C17 H46 0.982 . S
C17 H47 0.979 . S
C17 H48 0.977 . S
C18 C5 1.684 . S
C18 H43 0.979 . S
C18 H44 0.980 . S
C18 H45 0.983 . S
C19 C20 1.391 . S
C19 C24 1.391 . S
C19 H49 0.948 . S
C20 C19 1.391 . S
C20 C21 1.391 . S
C21 C20 1.391 . S
C21 C22 1.392 . S
C21 H50 0.947 . S
C22 C21 1.392 . S
C22 C23 1.419 . S
C22 H51 0.948 . S
C23 C22 1.419 . S
C23 C24 1.391 . S
C23 C27 1.397 . S
C24 C19 1.391 . S
C24 C23 1.391 . S
C24 C25 1.399 . S
C25 C24 1.399 . S
C25 C26 1.396 . S
C25 C28 1.453 . S
C25 C29 1.684 . S
C26 C7 1.723 . S
C26 C25 1.396 . S
C26 C27 1.394 . S
C27 C23 1.397 . S
C27 C26 1.394 . S
C27 C37 1.723 . S
C28 C25 1.453 . S
C28 H52 0.982 . S
C28 H53 0.979 . S
C28 H54 0.977 . S
C29 C25 1.684 . S
C29 H55 0.979 . S
C29 H56 0.980 . S
C29 H57 0.983 . S
C30 H6 0.948 . S
C30 C31 1.391 . S
C30 C35 1.391 . S
C31 C30 1.391 . S
C31 C32 1.391 . S
C32 H9 0.947 . S
C32 C31 1.391 . S
C32 C33 1.392 . S
C33 H10 0.948 . S
C33 C32 1.392 . S
C33 C34 1.419 . S
C34 C33 1.419 . S
C34 C35 1.391 . S
C34 C38 1.397 . S
C35 C30 1.391 . S
C35 C34 1.391 . S
C35 C36 1.399 . S
C36 C35 1.399 . S
C36 C37 1.396 . S
C36 C39 1.453 . S
C36 C40 1.684 . S
C37 C27 1.723 . S
C37 C36 1.396 . S
C37 C38 1.394 . S
C38 C8 1.723 . S
C38 C34 1.397 . S
C38 C37 1.394 . S
C39 H11 0.982 . S
C39 H15 0.979 . S
C39 H16 0.977 . S
C39 C36 1.453 . S
C40 H12 0.979 . S
C40 H13 0.980 . S
C40 H14 0.983 . S
C40 C36 1.684 . S
H41 C59 0.948 . S
H42 C0 0.948 . S
H43 C18 0.979 . S
H44 C18 0.980 . S
H45 C18 0.983 . S
H46 C17 0.982 . S
H47 C17 0.979 . S
H48 C17 0.977 . S
H49 C19 0.948 . S
H50 C21 0.947 . S
H51 C22 0.948 . S
H52 C28 0.982 . S
H53 C28 0.979 . S
H54 C28 0.977 . S
H55 C29 0.979 . S
H56 C29 0.980 . S
H57 C29 0.983 . S
H58 C2 0.947 . S
C59 C2 1.392 . S
C59 C3 1.419 . S
C59 H41 0.948 . S
C60 C61 1.391 . S
C60 C64 1.391 . S
C60 H102 0.948 . S
C61 C60 1.391 . S
C61 C62 1.391 . S
C62 C61 1.391 . S
C62 H118 0.947 . S
C62 C119 1.392 . S
C63 C64 1.391 . S
C63 C67 1.397 . S
C63 C119 1.419 . S
C64 C60 1.391 . S
C64 C63 1.391 . S
C64 C65 1.399 . S
C65 C64 1.399 . S
C65 C68 1.396 . S
C65 C77 1.453 . S
C65 C78 1.684 . S
H66 C90 0.948 . S
C67 C63 1.397 . S
C67 C68 1.394 . S
C67 C86 1.723 . S
C68 C65 1.396 . S
C68 C67 1.394 . S
C68 C98 1.723 . S
H69 C92 0.947 . S
H70 C93 0.948 . S
H71 C99 0.982 . S
H72 C100 0.979 . S
H73 C100 0.980 . S
H74 C100 0.983 . S
H75 C99 0.979 . S
H76 C99 0.977 . S
C77 C65 1.453 . S
C77 H106 0.982 . S
C77 H107 0.979 . S
C77 H108 0.977 . S
C78 C65 1.684 . S
C78 H103 0.979 . S
C78 H104 0.980 . S
C78 H105 0.983 . S
C79 C80 1.391 . S
C79 C84 1.391 . S
C79 H109 0.948 . S
C80 C79 1.391 . S
C80 C81 1.391 . S
C81 C80 1.391 . S
C81 C82 1.392 . S
C81 H110 0.947 . S
C82 C81 1.392 . S
C82 C83 1.419 . S
C82 H111 0.948 . S
C83 C82 1.419 . S
C83 C84 1.391 . S
C83 C87 1.397 . S
C84 C79 1.391 . S
C84 C83 1.391 . S
C84 C85 1.399 . S
C85 C84 1.399 . S
C85 C86 1.396 . S
C85 C88 1.453 . S
C85 C89 1.684 . S
C86 C67 1.723 . S
C86 C85 1.396 . S
C86 C87 1.394 . S
C87 C83 1.397 . S
C87 C86 1.394 . S
C87 C97 1.723 . S
C88 C85 1.453 . S
C88 H112 0.982 . S
C88 H113 0.979 . S
C88 H114 0.977 . S
C89 C85 1.684 . S
C89 H115 0.979 . S
C89 H116 0.980 . S
C89 H117 0.983 . S
C90 H66 0.948 . S
C90 C91 1.391 . S
C90 C95 1.391 . S
C91 C90 1.391 . S
C91 C92 1.391 . S
C92 H69 0.947 . S
C92 C91 1.391 . S
C92 C93 1.392 . S
C93 H70 0.948 . S
C93 C92 1.392 . S
C93 C94 1.419 . S
C94 C93 1.419 . S
C94 C95 1.391 . S
C94 C98 1.397 . S
C95 C90 1.391 . S
C95 C94 1.391 . S
C95 C96 1.399 . S
C96 C95 1.399 . S
C96 C97 1.396 . S
C96 C99 1.453 . S
C96 C100 1.684 . S
C97 C87 1.723 . S
C97 C96 1.396 . S
C97 C98 1.394 . S
C98 C68 1.723 . S
C98 C94 1.397 . S
C98 C97 1.394 . S
C99 H71 0.982 . S
C99 H75 0.979 . S
C99 H76 0.977 . S
C99 C96 1.453 . S
C100 H72 0.979 . S
C100 H73 0.980 . S
C100 H74 0.983 . S
C100 C96 1.684 . S
H101 C119 0.948 . S
H102 C60 0.948 . S
H103 C78 0.979 . S
H104 C78 0.980 . S
H105 C78 0.983 . S
H106 C77 0.982 . S
H107 C77 0.979 . S
H108 C77 0.977 . S
H109 C79 0.948 . S
H110 C81 0.947 . S
H111 C82 0.948 . S
H112 C88 0.982 . S
H113 C88 0.979 . S
H114 C88 0.977 . S
H115 C89 0.979 . S
H116 C89 0.980 . S
H117 C89 0.983 . S
H118 C62 0.947 . S
C119 C62 1.392 . S
C119 C63 1.419 . S
C119 H101 0.948 . S
C120 C121 1.391 . S
C120 C124 1.391 . S
C120 H162 0.948 . S
C121 C120 1.391 . S
C121 C122 1.391 . S
C122 C121 1.391 . S
C122 H178 0.947 . S
C122 C179 1.392 . S
C123 C124 1.391 . S
C123 C127 1.397 . S
C123 C179 1.419 . S
C124 C120 1.391 . S
C124 C123 1.391 . S
C124 C125 1.399 . S
C125 C124 1.399 . S
C125 C128 1.396 . S
C125 C137 1.453 . S
C125 C138 1.684 . S
H126 C150 0.948 . S
C127 C123 1.397 . S
C127 C128 1.394 . S
C127 C146 1.723 . S
C128 C125 1.396 . S
C128 C127 1.394 . S
C128 C158 1.723 . S
H129 C152 0.947 . S
H130 C153 0.948 . S
H131 C159 0.982 . S
H132 C160 0.979 . S
H133 C160 0.980 . S
H134 C160 0.983 . S
H135 C159 0.979 . S
H136 C159 0.977 . S
C137 C125 1.453 . S
C137 H166 0.982 . S
C137 H167 0.979 . S
C137 H168 0.977 . S
C138 C125 1.684 . S
C138 H163 0.979 . S
C138 H164 0.980 . S
C138 H165 0.983 . S
C139 C140 1.391 . S
C139 C144 1.391 . S
C139 H169 0.948 . S
C140 C139 1.391 . S
C140 C141 1.391 . S
C141 C140 1.391 . S
C141 C142 1.392 . S
C141 H170 0.947 . S
C142 C141 1.392 . S
C142 C143 1.419 . S
C142 H171 0.948 . S
C143 C142 1.419 . S
C143 C144 1.391 . S
C143 C147 1.397 . S
C144 C139 1.391 . S
C144 C143 1.391 . S
C144 C145 1.399 . S
C145 C144 1.399 . S
C145 C146 1.396 . S
C145 C148 1.453 . S
C145 C149 1.684 . S
C146 C127 1.723 . S
C146 C145 1.396 . S
C146 C147 1.394 . S
C147 C143 1.397 . S
C147 C146 1.394 . S
C147 C157 1.723 . S
C148 C145 1.453 . S
C148 H172 0.982 . S
C148 H173 0.979 . S
C148 H174 0.977 . S
C149 C145 1.684 . S
C149 H175 0.979 . S
C149 H176 0.980 . S
C149 H177 0.983 . S
C150 H126 0.948 . S
C150 C151 1.391 . S
C150 C155 1.391 . S
C151 C150 1.391 . S
C151 C152 1.391 . S
C152 H129 0.947 . S
C152 C151 1.391 . S
C152 C153 1.392 . S
C153 H130 0.948 . S
C153 C152 1.392 . S
C153 C154 1.419 . S
C154 C153 1.419 . S
C154 C155 1.391 . S
C154 C158 1.397 . S
C155 C150 1.391 . S
C155 C154 1.391 . S
C155 C156 1.399 . S
C156 C155 1.399 . S
C156 C157 1.396 . S
C156 C159 1.453 . S
C156 C160 1.684 . S
C157 C147 1.723 . S
C157 C156 1.396 . S
C157 C158 1.394 . S
C158 C128 1.723 . S
C158 C154 1.397 . S
C158 C157 1.394 . S
C159 H131 0.982 . S
C159 H135 0.979 . S
C159 H136 0.977 . S
C159 C156 1.453 . S
C160 H132 0.979 . S
C160 H133 0.980 . S
C160 H134 0.983 . S
C160 C156 1.684 . S
H161 C179 0.948 . S
H162 C120 0.948 . S
H163 C138 0.979 . S
H164 C138 0.980 . S
H165 C138 0.983 . S
H166 C137 0.982 . S
H167 C137 0.979 . S
H168 C137 0.977 . S
H169 C139 0.948 . S
H170 C141 0.947 . S
H171 C142 0.948 . S
H172 C148 0.982 . S
H173 C148 0.979 . S
H174 C148 0.977 . S
H175 C149 0.979 . S
H176 C149 0.980 . S
H177 C149 0.983 . S
H178 C122 0.947 . S
C179 C122 1.392 . S
C179 C123 1.419 . S
C179 H161 0.948 . S
C180 C181 1.391 . S
C180 C184 1.391 . S
C180 H222 0.948 . S
C181 C180 1.391 . S
C181 C182 1.391 . S
C182 C181 1.391 . S
C182 H238 0.947 . S
C182 C239 1.392 . S
C183 C184 1.391 . S
C183 C187 1.397 . S
C183 C239 1.419 . S
C184 C180 1.391 . S
C184 C183 1.391 . S
C184 C185 1.399 . S
C185 C184 1.399 . S
C185 C188 1.396 . S
C185 C197 1.453 . S
C185 C198 1.684 . S
H186 C210 0.948 . S
C187 C183 1.397 . S
C187 C188 1.394 . S
C187 C206 1.723 . S
C188 C185 1.396 . S
C188 C187 1.394 . S
C188 C218 1.723 . S
H189 C212 0.947 . S
H190 C213 0.948 . S
H191 C219 0.982 . S
H192 C220 0.979 . S
H193 C220 0.980 . S
H194 C220 0.983 . S
H195 C219 0.979 . S
H196 C219 0.977 . S
C197 C185 1.453 . S
C197 H226 0.982 . S
C197 H227 0.979 . S
C197 H228 0.977 . S
C198 C185 1.684 . S
C198 H223 0.979 . S
C198 H224 0.980 . S
C198 H225 0.983 . S
C199 C200 1.391 . S
C199 C204 1.391 . S
C199 H229 0.948 . S
C200 C199 1.391 . S
C200 C201 1.391 . S
C201 C200 1.391 . S
C201 C202 1.392 . S
C201 H230 0.947 . S
C202 C201 1.392 . S
C202 C203 1.419 . S
C202 H231 0.948 . S
C203 C202 1.419 . S
C203 C204 1.391 . S
C203 C207 1.397 . S
C204 C199 1.391 . S
C204 C203 1.391 . S
C204 C205 1.399 . S
C205 C204 1.399 . S
C205 C206 1.396 . S
C205 C208 1.453 . S
C205 C209 1.684 . S
C206 C187 1.723 . S
C206 C205 1.396 . S
C206 C207 1.394 . S
C207 C203 1.397 . S
C207 C206 1.394 . S
C207 C217 1.723 . S
C208 C205 1.453 . S
C208 H232 0.982 . S
C208 H233 0.979 . S
C208 H234 0.977 . S
C209 C205 1.684 . S
C209 H235 0.979 . S
C209 H236 0.980 . S
C209 H237 0.983 . S
C210 H186 0.948 . S
C210 C211 1.391 . S
C210 C215 1.391 . S
C211 C210 1.391 . S
C211 C212 1.391 . S
C212 H189 0.947 . S
C212 C211 1.391 . S
C212 C213 1.392 . S
C213 H190 0.948 . S
C213 C212 1.392 . S
C213 C214 1.419 . S
C214 C213 1.419 . S
C214 C215 1.391 . S
C214 C218 1.397 . S
C215 C210 1.391 . S
C215 C214 1.391 . S
C215 C216 1.399 . S
C216 C215 1.399 . S
C216 C217 1.396 . S
C216 C219 1.453 . S
C216 C220 1.684 . S
C217 C207 1.723 . S
C217 C216 1.396 . S
C217 C218 1.394 . S
C218 C188 1.723 . S
C218 C214 1.397 . S
C218 C217 1.394 . S
C219 H191 0.982 . S
C219 H195 0.979 . S
C219 H196 0.977 . S
C219 C216 1.453 . S
C220 H192 0.979 . S
C220 H193 0.980 . S
C220 H194 0.983 . S
C220 C216 1.684 . S
H221 C239 0.948 . S
H222 C180 0.948 . S
H223 C198 0.979 . S
H224 C198 0.980 . S
H225 C198 0.983 . S
H226 C197 0.982 . S
H227 C197 0.979 . S
H228 C197 0.977 . S
H229 C199 0.948 . S
H230 C201 0.947 . S
H231 C202 0.948 . S
H232 C208 0.982 . S
H233 C208 0.979 . S
H234 C208 0.977 . S
H235 C209 0.979 . S
H236 C209 0.980 . S
H237 C209 0.983 . S
H238 C182 0.947 . S
C239 C182 1.392 . S
C239 C183 1.419 . S
C239 H221 0.948 . S
C240 C241 1.391 . S
C240 C244 1.391 . S
C240 H282 0.948 . S
C241 C240 1.391 . S
C241 C242 1.391 . S
C242 C241 1.391 . S
C242 H298 0.947 . S
C242 C299 1.392 . S
C243 C244 1.391 . S
C243 C247 1.397 . S
C243 C299 1.419 . S
C244 C240 1.391 . S
C244 C243 1.391 . S
C244 C245 1.399 . S
C245 C244 1.399 . S
C245 C248 1.396 . S
C245 C257 1.453 . S
C245 C258 1.684 . S
H246 C270 0.948 . S
C247 C243 1.397 . S
C247 C248 1.394 . S
C247 C266 1.723 . S
C248 C245 1.396 . S
C248 C247 1.394 . S
C248 C278 1.723 . S
H249 C272 0.947 . S
H250 C273 0.948 . S
H251 C279 0.982 . S
H252 C280 0.979 . S
H253 C280 0.980 . S
H254 C280 0.983 . S
H255 C279 0.979 . S
H256 C279 0.977 . S
C257 C245 1.453 . S
C257 H286 0.982 . S
C257 H287 0.979 . S
C257 H288 0.977 . S
C258 C245 1.684 . S
C258 H283 0.979 . S
C258 H284 0.980 . S
C258 H285 0.983 . S
C259 C260 1.391 . S
C259 C264 1.391 . S
C259 H289 0.948 . S
C260 C259 1.391 . S
C260 C261 1.391 . S
C261 C260 1.391 . S
C261 C262 1.392 . S
C261 H290 0.947 . S
C262 C261 1.392 . S
C262 C263 1.419 . S
C262 H291 0.948 . S
C263 C262 1.419 . S
C263 C264 1.391 . S
C263 C267 1.397 . S
C264 C259 1.391 . S
C264 C263 1.391 . S
C264 C265 1.399 . S
C265 C264 1.399 . S
C265 C266 1.396 . S
C265 C268 1.453 . S
C265 C269 1.684 . S
C266 C247 1.723 . S
C266 C265 1.396 . S
C266 C267 1.394 . S
C267 C263 1.397 . S
C267 C266 1.394 . S
C267 C277 1.723 . S
C268 C265 1.453 . S
C268 H292 0.982 . S
C268 H293 0.979 . S
C268 H294 0.977 . S
C269 C265 1.684 . S
C269 H295 0.979 . S
C269 H296 0.980 . S
C269 H297 0.983 . S
C270 H246 0.948 . S
C270 C271 1.391 . S
C270 C275 1.391 . S
C271 C270 1.391 . S
C271 C272 1.391 . S
C272 H249 0.947 . S
C272 C271 1.391 . S
C272 C273 1.392 . S
C273 H250 0.948 . S
C273 C272 1.392 . S
C273 C274 1.419 . S
C274 C273 1.419 . S
C274 C275 1.391 . S
C274 C278 1.397 . S
C275 C270 1.391 . S
C275 C274 1.391 . S
C275 C276 1.399 . S
C276 C275 1.399 . S
C276 C277 1.396 . S
C276 C279 1.453 . S
C276 C280 1.684 . S
C277 C267 1.723 . S
C277 C276 1.396 . S
C277 C278 1.394 . S
C278 C248 1.723 . S
C278 C274 1.397 . S
C278 C277 1.394 . S
C279 H251 0.982 . S
C279 H255 0.979 . S
C279 H256 0.977 . S
C279 C276 1.453 . S
C280 H252 0.979 . S
C280 H253 0.980 . S
C280 H254 0.983 . S
C280 C276 1.684 . S
H281 C299 0.948 . S
H282 C240 0.948 . S
H283 C258 0.979 . S
H284 C258 0.980 . S
H285 C258 0.983 . S
H286 C257 0.982 . S
H287 C257 0.979 . S
H288 C257 0.977 . S
H289 C259 0.948 . S
H290 C261 0.947 . S
H291 C262 0.948 . S
H292 C268 0.982 . S
H293 C268 0.979 . S
H294 C268 0.977 . S
H295 C269 0.979 . S
H296 C269 0.980 . S
H297 C269 0.983 . S
H298 C242 0.947 . S
C299 C242 1.392 . S
C299 C243 1.419 . S
C299 H281 0.948 . S
C300 C301 1.391 . S
C300 C304 1.391 . S
C300 H342 0.948 . S
C301 C300 1.391 . S
C301 C302 1.391 . S
C302 C301 1.391 . S
C302 H358 0.947 . S
C302 C359 1.392 . S
C303 C304 1.391 . S
C303 C307 1.397 . S
C303 C359 1.419 . S
C304 C300 1.391 . S
C304 C303 1.391 . S
C304 C305 1.399 . S
C305 C304 1.399 . S
C305 C308 1.396 . S
C305 C317 1.453 . S
C305 C318 1.684 . S
H306 C330 0.948 . S
C307 C303 1.397 . S
C307 C308 1.394 . S
C307 C326 1.723 . S
C308 C305 1.396 . S
C308 C307 1.394 . S
C308 C338 1.723 . S
H309 C332 0.947 . S
H310 C333 0.948 . S
H311 C339 0.982 . S
H312 C340 0.979 . S
H313 C340 0.980 . S
H314 C340 0.983 . S
H315 C339 0.979 . S
H316 C339 0.977 . S
C317 C305 1.453 . S
C317 H346 0.982 . S
C317 H347 0.979 . S
C317 H348 0.977 . S
C318 C305 1.684 . S
C318 H343 0.979 . S
C318 H344 0.980 . S
C318 H345 0.983 . S
C319 C320 1.391 . S
C319 C324 1.391 . S
C319 H349 0.948 . S
C320 C319 1.391 . S
C320 C321 1.391 . S
C321 C320 1.391 . S
C321 C322 1.392 . S
C321 H350 0.947 . S
C322 C321 1.392 . S
C322 C323 1.419 . S
C322 H351 0.948 . S
C323 C322 1.419 . S
C323 C324 1.391 . S
C323 C327 1.397 . S
C324 C319 1.391 . S
C324 C323 1.391 . S
C324 C325 1.399 . S
C325 C324 1.399 . S
C325 C326 1.396 . S
C325 C328 1.453 . S
C325 C329 1.684 . S
C326 C307 1.723 . S
C326 C325 1.396 . S
C326 C327 1.394 . S
C327 C323 1.397 . S
C327 C326 1.394 . S
C327 C337 1.723 . S
C328 C325 1.453 . S
C328 H352 0.982 . S
C328 H353 0.979 . S
C328 H354 0.977 . S
C329 C325 1.684 . S
C329 H355 0.979 . S
C329 H356 0.980 . S
C329 H357 0.983 . S
C330 H306 0.948 . S
C330 C331 1.391 . S
C330 C335 1.391 . S
C331 C330 1.391 . S
C331 C332 1.391 . S
C332 H309 0.947 . S
C332 C331 1.391 . S
C332 C333 1.392 . S
C333 H310 0.948 . S
C333 C332 1.392 . S
C333 C334 1.419 . S
C334 C333 1.419 . S
C334 C335 1.391 . S
C334 C338 1.397 . S
C335 C330 1.391 . S
C335 C334 1.391 . S
C335 C336 1.399 . S
C336 C335 1.399 . S
C336 C337 1.396 . S
C336 C339 1.453 . S
C336 C340 1.684 . S
C337 C327 1.723 . S
C337 C336 1.396 . S
C337 C338 1.394 . S
C338 C308 1.723 . S
C338 C334 1.397 . S
C338 C337 1.394 . S
C339 H311 0.982 . S
C339 H315 0.979 . S
C339 H316 0.977 . S
C339 C336 1.453 . S
C340 H312 0.979 . S
C340 H313 0.980 . S
C340 H314 0.983 . S
C340 C336 1.684 . S
H341 C359 0.948 . S
H342 C300 0.948 . S
H343 C318 0.979 . S
H344 C318 0.980 . S
H345 C318 0.983 . S
H346 C317 0.982 . S
H347 C317 0.979 . S
H348 C317 0.977 . S
H349 C319 0.948 . S
H350 C321 0.947 . S
H351 C322 0.948 . S
H352 C328 0.982 . S
H353 C328 0.979 . S
H354 C328 0.977 . S
H355 C329 0.979 . S
H356 C329 0.980 . S
H357 C329 0.983 . S
H358 C302 0.947 . S
C359 C302 1.392 . S
C359 C303 1.419 . S
C359 H341 0.948 . S
C360 C361 1.391 . S
C360 C364 1.391 . S
C360 H402 0.948 . S
C361 C360 1.391 . S
C361 C362 1.391 . S
C362 C361 1.391 . S
C362 H418 0.947 . S
C362 C419 1.392 . S
C363 C364 1.391 . S
C363 C367 1.397 . S
C363 C419 1.419 . S
C364 C360 1.391 . S
C364 C363 1.391 . S
C364 C365 1.399 . S
C365 C364 1.399 . S
C365 C368 1.396 . S
C365 C377 1.453 . S
C365 C378 1.684 . S
H366 C390 0.948 . S
C367 C363 1.397 . S
C367 C368 1.394 . S
C367 C386 1.723 . S
C368 C365 1.396 . S
C368 C367 1.394 . S
C368 C398 1.723 . S
H369 C392 0.947 . S
H370 C393 0.948 . S
H371 C399 0.982 . S
H372 C400 0.979 . S
H373 C400 0.980 . S
H374 C400 0.983 . S
H375 C399 0.979 . S
H376 C399 0.977 . S
C377 C365 1.453 . S
C377 H406 0.982 . S
C377 H407 0.979 . S
C377 H408 0.977 . S
C378 C365 1.684 . S
C378 H403 0.979 . S
C378 H404 0.980 . S
C378 H405 0.983 . S
C379 C380 1.391 . S
C379 C384 1.391 . S
C379 H409 0.948 . S
C380 C379 1.391 . S
C380 C381 1.391 . S
C381 C380 1.391 . S
C381 C382 1.392 . S
C381 H410 0.947 . S
C382 C381 1.392 . S
C382 C383 1.419 . S
C382 H411 0.948 . S
C383 C382 1.419 . S
C383 C384 1.391 . S
C383 C387 1.397 . S
C384 C379 1.391 . S
C384 C383 1.391 . S
C384 C385 1.399 . S
C385 C384 1.399 . S
C385 C386 1.396 . S
C385 C388 1.453 . S
C385 C389 1.684 . S
C386 C367 1.723 . S
C386 C385 1.396 . S
C386 C387 1.394 . S
C387 C383 1.397 . S
C387 C386 1.394 . S
C387 C397 1.723 . S
C388 C385 1.453 . S
C388 H412 0.982 . S
C388 H413 0.979 . S
C388 H414 0.977 . S
C389 C385 1.684 . S
C389 H415 0.979 . S
C389 H416 0.980 . S
C389 H417 0.983 . S
C390 H366 0.948 . S
C390 C391 1.391 . S
C390 C395 1.391 . S
C391 C390 1.391 . S
C391 C392 1.391 . S
C392 H369 0.947 . S
C392 C391 1.391 . S
C392 C393 1.392 . S
C393 H370 0.948 . S
C393 C392 1.392 . S
C393 C394 1.419 . S
C394 C393 1.419 . S
C394 C395 1.391 . S
C394 C398 1.397 . S
C395 C390 1.391 . S
C395 C394 1.391 . S
C395 C396 1.399 . S
C396 C395 1.399 . S
C396 C397 1.396 . S
C396 C399 1.453 . S
C396 C400 1.684 . S
C397 C387 1.723 . S
C397 C396 1.396 . S
C397 C398 1.394 . S
C398 C368 1.723 . S
C398 C394 1.397 . S
C398 C397 1.394 . S
C399 H371 0.982 . S
C399 H375 0.979 . S
C399 H376 0.977 . S
C399 C396 1.453 . S
C400 H372 0.979 . S
C400 H373 0.980 . S
C400 H374 0.983 . S
C400 C396 1.684 . S
H401 C419 0.948 . S
H402 C360 0.948 . S
H403 C378 0.979 . S
H404 C378 0.980 . S
H405 C378 0.983 . S
H406 C377 0.982 . S
H407 C377 0.979 . S
H408 C377 0.977 . S
H409 C379 0.948 . S
H410 C381 0.947 . S
H411 C382 0.948 . S
H412 C388 0.982 . S
H413 C388 0.979 . S
H414 C388 0.977 . S
H415 C389 0.979 . S
H416 C389 0.980 . S
H417 C389 0.983 . S
H418 C362 0.947 . S
C419 C362 1.392 . S
C419 C363 1.419 . S
C419 H401 0.948 . S
C420 C421 1.391 . S
C420 C424 1.391 . S
C420 H462 0.948 . S
C421 C420 1.391 . S
C421 C422 1.391 . S
C422 C421 1.391 . S
C422 H478 0.947 . S
C422 C479 1.392 . S
C423 C424 1.391 . S
C423 C427 1.397 . S
C423 C479 1.419 . S
C424 C420 1.391 . S
C424 C423 1.391 . S
C424 C425 1.399 . S
C425 C424 1.399 . S
C425 C428 1.396 . S
C425 C437 1.453 . S
C425 C438 1.684 . S
H426 C450 0.948 . S
C427 C423 1.397 . S
C427 C428 1.394 . S
C427 C446 1.723 . S
C428 C425 1.396 . S
C428 C427 1.394 . S
C428 C458 1.723 . S
H429 C452 0.947 . S
H430 C453 0.948 . S
H431 C459 0.982 . S
H432 C460 0.979 . S
H433 C460 0.980 . S
H434 C460 0.983 . S
H435 C459 0.979 . S
H436 C459 0.977 . S
C437 C425 1.453 . S
C437 H466 0.982 . S
C437 H467 0.979 . S
C437 H468 0.977 . S
C438 C425 1.684 . S
C438 H463 0.979 . S
C438 H464 0.980 . S
C438 H465 0.983 . S
C439 C440 1.391 . S
C439 C444 1.391 . S
C439 H469 0.948 . S
C440 C439 1.391 . S
C440 C441 1.391 . S
C441 C440 1.391 . S
C441 C442 1.392 . S
C441 H470 0.947 . S
C442 C441 1.392 . S
C442 C443 1.419 . S
C442 H471 0.948 . S
C443 C442 1.419 . S
C443 C444 1.391 . S
C443 C447 1.397 . S
C444 C439 1.391 . S
C444 C443 1.391 . S
C444 C445 1.399 . S
C445 C444 1.399 . S
C445 C446 1.396 . S
C445 C448 1.453 . S
C445 C449 1.684 . S
C446 C427 1.723 . S
C446 C445 1.396 . S
C446 C447 1.394 . S
C447 C443 1.397 . S
C447 C446 1.394 . S
C447 C457 1.723 . S
C448 C445 1.453 . S
C448 H472 0.982 . S
C448 H473 0.979 . S
C448 H474 0.977 . S
C449 C445 1.684 . S
C449 H475 0.979 . S
C449 H476 0.980 . S
C449 H477 0.983 . S
C450 H426 0.948 . S
C450 C451 1.391 . S
C450 C455 1.391 . S
C451 C450 1.391 . S
C451 C452 1.391 . S
C452 H429 0.947 . S
C452 C451 1.391 . S
C452 C453 1.392 . S
C453 H430 0.948 . S
C453 C452 1.392 . S
C453 C454 1.419 . S
C454 C453 1.419 . S
C454 C455 1.391 . S
C454 C458 1.397 . S
C455 C450 1.391 . S
C455 C454 1.391 . S
C455 C456 1.399 . S
C456 C455 1.399 . S
C456 C457 1.396 . S
C456 C459 1.453 . S
C456 C460 1.684 . S
C457 C447 1.723 . S
C457 C456 1.396 . S
C457 C458 1.394 . S
C458 C428 1.723 . S
C458 C454 1.397 . S
C458 C457 1.394 . S
C459 H431 0.982 . S
C459 H435 0.979 . S
C459 H436 0.977 . S
C459 C456 1.453 . S
C460 H432 0.979 . S
C460 H433 0.980 . S
C460 H434 0.983 . S
C460 C456 1.684 . S
H461 C479 0.948 . S
H462 C420 0.948 . S
H463 C438 0.979 . S
H464 C438 0.980 . S
H465 C438 0.983 . S
H466 C437 0.982 . S
H467 C437 0.979 . S
H468 C437 0.977 . S
H469 C439 0.948 . S
H470 C441 0.947 . S
H471 C442 0.948 . S
H472 C448 0.982 . S
H473 C448 0.979 . S
H474 C448 0.977 . S
H475 C449 0.979 . S
H476 C449 0.980 . S
H477 C449 0.983 . S
H478 C422 0.947 . S
C479 C422 1.392 . S
C479 C423 1.419 . S
C479 H461 0.948 . S
C480 C481 1.391 . S
C480 C484 1.391 . S
C480 H522 0.948 . S
C481 C480 1.391 . S
C481 C482 1.391 . S
C482 C481 1.391 . S
C482 H538 0.947 . S
C482 C539 1.392 . S
C483 C484 1.391 . S
C483 C487 1.397 . S
C483 C539 1.419 . S
C484 C480 1.391 . S
C484 C483 1.391 . S
C484 C485 1.399 . S
C485 C484 1.399 . S
C485 C488 1.396 . S
C485 C497 1.453 . S
C485 C498 1.684 . S
H486 C510 0.948 . S
C487 C483 1.397 . S
C487 C488 1.394 . S
C487 C506 1.723 . S
C488 C485 1.396 . S
C488 C487 1.394 . S
C488 C518 1.723 . S
H489 C512 0.947 . S
H490 C513 0.948 . S
H491 C519 0.982 . S
H492 C520 0.979 . S
H493 C520 0.980 . S
H494 C520 0.983 . S
H495 C519 0.979 . S
H496 C519 0.977 . S
C497 C485 1.453 . S
C497 H526 0.982 . S
C497 H527 0.979 . S
C497 H528 0.977 . S
C498 C485 1.684 . S
C498 H523 0.979 . S
C498 H524 0.980 . S
C498 H525 0.983 . S
C499 C500 1.391 . S
C499 C504 1.391 . S
C499 H529 0.948 . S
C500 C499 1.391 . S
C500 C501 1.391 . S
C501 C500 1.391 . S
C501 C502 1.392 . S
C501 H530 0.947 . S
C502 C501 1.392 . S
C502 C503 1.419 . S
C502 H531 0.948 . S
C503 C502 1.419 . S
C503 C504 1.391 . S
C503 C507 1.397 . S
C504 C499 1.391 . S
C504 C503 1.391 . S
C504 C505 1.399 . S
C505 C504 1.399 . S
C505 C506 1.396 . S
C505 C508 1.453 . S
C505 C509 1.684 . S
C506 C487 1.723 . S
C506 C505 1.396 . S
C506 C507 1.394 . S
C507 C503 1.397 . S
C507 C506 1.394 . S
C507 C517 1.723 . S
C508 C505 1.453 . S
C508 H532 0.982 . S
C508 H533 0.979 . S
C508 H534 0.977 . S
C509 C505 1.684 . S
C509 H535 0.979 . S
C509 H536 0.980 . S
C509 H537 0.983 . S
C510 H486 0.948 . S
C510 C511 1.391 . S
C510 C515 1.391 . S
C511 C510 1.391 . S
C511 C512 1.391 . S
C512 H489 0.947 . S
C512 C511 1.391 . S
C512 C513 1.392 . S
C513 H490 0.948 . S
C513 C512 1.392 . S
C513 C514 1.419 . S
C514 C513 1.419 . S
C514 C515 1.391 . S
C514 C518 1.397 . S
C515 C510 1.391 . S
C515 C514 1.391 . S
C515 C516 1.399 . S
C516 C515 1.399 . S
C516 C517 1.396 . S
C516 C519 1.453 . S
C516 C520 1.684 . S
C517 C507 1.723 . S
C517 C516 1.396 . S
C517 C518 1.394 . S
C518 C488 1.723 . S
C518 C514 1.397 . S
C518 C517 1.394 . S
C519 H491 0.982 . S
C519 H495 0.979 . S
C519 H496 0.977 . S
C519 C516 1.453 . S
C520 H492 0.979 . S
C520 H493 0.980 . S
C520 H494 0.983 . S
C520 C516 1.684 . S
H521 C539 0.948 . S
H522 C480 0.948 . S
H523 C498 0.979 . S
H524 C498 0.980 . S
H525 C498 0.983 . S
H526 C497 0.982 . S
H527 C497 0.979 . S
H528 C497 0.977 . S
H529 C499 0.948 . S
H530 C501 0.947 . S
H531 C502 0.948 . S
H532 C508 0.982 . S
H533 C508 0.979 . S
H534 C508 0.977 . S
H535 C509 0.979 . S
H536 C509 0.980 . S
H537 C509 0.983 . S
H538 C482 0.947 . S
C539 C482 1.392 . S
C539 C483 1.419 . S
C539 H521 0.948 . S
C540 C541 1.391 . S
C540 C544 1.391 . S
C540 H582 0.948 . S
C541 C540 1.391 . S
C541 C542 1.391 . S
C542 C541 1.391 . S
C542 H598 0.947 . S
C542 C599 1.392 . S
C543 C544 1.391 . S
C543 C547 1.397 . S
C543 C599 1.419 . S
C544 C540 1.391 . S
C544 C543 1.391 . S
C544 C545 1.399 . S
C545 C544 1.399 . S
C545 C548 1.396 . S
C545 C557 1.453 . S
C545 C558 1.684 . S
H546 C570 0.948 . S
C547 C543 1.397 . S
C547 C548 1.394 . S
C547 C566 1.723 . S
C548 C545 1.396 . S
C548 C547 1.394 . S
C548 C578 1.723 . S
H549 C572 0.947 . S
H550 C573 0.948 . S
H551 C579 0.982 . S
H552 C580 0.979 . S
H553 C580 0.980 . S
H554 C580 0.983 . S
H555 C579 0.979 . S
H556 C579 0.977 . S
C557 C545 1.453 . S
C557 H586 0.982 . S
C557 H587 0.979 . S
C557 H588 0.977 . S
C558 C545 1.684 . S
C558 H583 0.979 . S
C558 H584 0.980 . S
C558 H585 0.983 . S
C559 C560 1.391 . S
C559 C564 1.391 . S
C559 H589 0.948 . S
C560 C559 1.391 . S
C560 C561 1.391 . S
C561 C560 1.391 . S
C561 C562 1.392 . S
C561 H590 0.947 . S
C562 C561 1.392 . S
C562 C563 1.419 . S
C562 H591 0.948 . S
C563 C562 1.419 . S
C563 C564 1.391 . S
C563 C567 1.397 . S
C564 C559 1.391 . S
C564 C563 1.391 . S
C564 C565 1.399 . S
C565 C564 1.399 . S
C565 C566 1.396 . S
C565 C568 1.453 . S
C565 C569 1.684 . S
C566 C547 1.723 . S
C566 C565 1.396 . S
C566 C567 1.394 . S
C567 C563 1.397 . S
C567 C566 1.394 . S
C567 C577 1.723 . S
C568 C565 1.453 . S
C568 H592 0.982 . S
C568 H593 0.979 . S
C568 H594 0.977 . S
C569 C565 1.684 . S
C569 H595 0.979 . S
C569 H596 0.980 . S
C569 H597 0.983 . S
C570 H546 0.948 . S
C570 C571 1.391 . S
C570 C575 1.391 . S
C571 C570 1.391 . S
C571 C572 1.391 . S
C572 H549 0.947 . S
C572 C571 1.391 . S
C572 C573 1.392 . S
C573 H550 0.948 . S
C573 C572 1.392 . S
C573 C574 1.419 . S
C574 C573 1.419 . S
C574 C575 1.391 . S
C574 C578 1.397 . S
C575 C570 1.391 . S
C575 C574 1.391 . S
C575 C576 1.399 . S
C576 C575 1.399 . S
C576 C577 1.396 . S
C576 C579 1.453 . S
C576 C580 1.684 . S
C577 C567 1.723 . S
C577 C576 1.396 . S
C577 C578 1.394 . S
C578 C548 1.723 . S
C578 C574 1.397 . S
C578 C577 1.394 . S
C579 H551 0.982 . S
C579 H555 0.979 . S
C579 H556 0.977 . S
C579 C576 1.453 . S
C580 H552 0.979 . S
C580 H553 0.980 . S
C580 H554 0.983 . S
C580 C576 1.684 . S
H581 C599 0.948 . S
H582 C540 0.948 . S
H583 C558 0.979 . S
H584 C558 0.980 . S
H585 C558 0.983 . S
H586 C557 0.982 . S
H587 C557 0.979 . S
H588 C557 0.977 . S
H589 C559 0.948 . S
H590 C561 0.947 . S
H591 C562 0.948 . S
H592 C568 0.982 . S
H593 C568 0.979 . S
H594 C568 0.977 . S
H595 C569 0.979 . S
H596 C569 0.980 . S
H597 C569 0.983 . S
H598 C542 0.947 . S
C599 C542 1.392 . S
C599 C543 1.419 . S
C599 H581 0.948 . S
C600 C601 1.391 . S
C600 C604 1.391 . S
C600 H642 0.948 . S
C601 C600 1.391 . S
C601 C602 1.391 . S
C602 C601 1.391 . S
C602 H658 0.947 . S
C602 C659 1.392 . S
C603 C604 1.391 . S
C603 C607 1.397 . S
C603 C659 1.419 . S
C604 C600 1.391 . S
C604 C603 1.391 . S
C604 C605 1.399 . S
C605 C604 1.399 . S
C605 C608 1.396 . S
C605 C617 1.453 . S
C605 C618 1.684 . S
H606 C630 0.948 . S
C607 C603 1.397 . S
C607 C608 1.394 . S
C607 C626 1.723 . S
C608 C605 1.396 . S
C608 C607 1.394 . S
C608 C638 1.723 . S
H609 C632 0.947 . S
H610 C633 0.948 . S
H611 C639 0.982 . S
H612 C640 0.979 . S
H613 C640 0.980 . S
H614 C640 0.983 . S
H615 C639 0.979 . S
H616 C639 0.977 . S
C617 C605 1.453 . S
C617 H646 0.982 . S
C617 H647 0.979 . S
C617 H648 0.977 . S
C618 C605 1.684 . S
C618 H643 0.979 . S
C618 H644 0.980 . S
C618 H645 0.983 . S
C619 C620 1.391 . S
C619 C624 1.391 . S
C619 H649 0.948 . S
C620 C619 1.391 . S
C620 C621 1.391 . S
C621 C620 1.391 . S
C621 C622 1.392 . S
C621 H650 0.947 . S
C622 C621 1.392 . S
C622 C623 1.419 . S
C622 H651 0.948 . S
C623 C622 1.419 . S
C623 C624 1.391 . S
C623 C627 1.397 . S
C624 C619 1.391 . S
C624 C623 1.391 . S
C624 C625 1.399 . S
C625 C624 1.399 . S
C625 C626 1.396 . S
C625 C628 1.453 . S
C625 C629 1.684 . S
C626 C607 1.723 . S
C626 C625 1.396 . S
C626 C627 1.394 . S
C627 C623 1.397 . S
C627 C626 1.394 . S
C627 C637 1.723 . S
C628 C625 1.453 . S
C628 H652 0.982 . S
C628 H653 0.979 . S
C628 H654 0.977 . S
C629 C625 1.684 . S
C629 H655 0.979 . S
C629 H656 0.980 . S
C629 H657 0.983 . S
C630 H606 0.948 . S
C630 C631 1.391 . S
C630 C635 1.391 . S
C631 C630 1.391 . S
C631 C632 1.391 . S
C632 H609 0.947 . S
C632 C631 1.391 . S
C632 C633 1.392 . S
C633 H610 0.948 . S
C633 C632 1.392 . S
C633 C634 1.419 . S
C634 C633 1.419 . S
C634 C635 1.391 . S
C634 C638 1.397 . S
C635 C630 1.391 . S
C635 C634 1.391 . S
C635 C636 1.399 . S
C636 C635 1.399 . S
C636 C637 1.396 . S
C636 C639 1.453 . S
C636 C640 1.684 . S
C637 C627 1.723 . S
C637 C636 1.396 . S
C637 C638 1.394 . S
C638 C608 1.723 . S
C638 C634 1.397 . S
C638 C637 1.394 . S
C639 H611 0.982 . S
C639 H615 0.979 . S
C639 H616 0.977 . S
C639 C636 1.453 . S
C640 H612 0.979 . S
C640 H613 0.980 . S
C640 H614 0.983 . S
C640 C636 1.684 . S
H641 C659 0.948 . S
H642 C600 0.948 . S
H643 C618 0.979 . S
H644 C618 0.980 . S
H645 C618 0.983 . S
H646 C617 0.982 . S
H647 C617 0.979 . S
H648 C617 0.977 . S
H649 C619 0.948 . S
H650 C621 0.947 . S
H651 C622 0.948 . S
H652 C628 0.982 . S
H653 C628 0.979 . S
H654 C628 0.977 . S
H655 C629 0.979 . S
H656 C629 0.980 . S
H657 C629 0.983 . S
H658 C602 0.947 . S
C659 C602 1.392 . S
C659 C603 1.419 . S
C659 H641 0.948 . S
C660 C661 1.391 . S
C660 C664 1.391 . S
C660 H702 0.948 . S
C661 C660 1.391 . S
C661 C662 1.391 . S
C662 C661 1.391 . S
C662 H718 0.947 . S
C662 C719 1.392 . S
C663 C664 1.391 . S
C663 C667 1.397 . S
C663 C719 1.419 . S
C664 C660 1.391 . S
C664 C663 1.391 . S
C664 C665 1.399 . S
C665 C664 1.399 . S
C665 C668 1.396 . S
C665 C677 1.453 . S
C665 C678 1.684 . S
H666 C690 0.948 . S
C667 C663 1.397 . S
C667 C668 1.394 . S
C667 C686 1.723 . S
C668 C665 1.396 . S
C668 C667 1.394 . S
C668 C698 1.723 . S
H669 C692 0.947 . S
H670 C693 0.948 . S
H671 C699 0.982 . S
H672 C700 0.979 . S
H673 C700 0.980 . S
H674 C700 0.983 . S
H675 C699 0.979 . S
H676 C699 0.977 . S
C677 C665 1.453 . S
C677 H706 0.982 . S
C677 H707 0.979 . S
C677 H708 0.977 . S
C678 C665 1.684 . S
C678 H703 0.979 . S
C678 H704 0.980 . S
C678 H705 0.983 . S
C679 C680 1.391 . S
C679 C684 1.391 . S
C679 H709 0.948 . S
C680 C679 1.391 . S
C680 C681 1.391 . S
C681 C680 1.391 . S
C681 C682 1.392 . S
C681 H710 0.947 . S
C682 C681 1.392 . S
C682 C683 1.419 . S
C682 H711 0.948 . S
C683 C682 1.419 . S
C683 C684 1.391 . S
C683 C687 1.397 . S
C684 C679 1.391 . S
C684 C683 1.391 . S
C684 C685 1.399 . S
C685 C684 1.399 . S
C685 C686 1.396 . S
C685 C688 1.453 . S
C685 C689 1.684 . S
C686 C667 1.723 . S
C686 C685 1.396 . S
C686 C687 1.394 . S
C687 C683 1.397 . S
C687 C686 1.394 . S
C687 C697 1.723 . S
C688 C685 1.453 . S
C688 H712 0.982 . S
C688 H713 0.979 . S
C688 H714 0.977 . S
C689 C685 1.684 . S
C689 H715 0.979 . S
C689 H716 0.980 . S
C689 H717 0.983 . S
C690 H666 0.948 . S
C690 C691 1.391 . S
C690 C695 1.391 . S
C691 C690 1.391 . S
C691 C692 1.391 . S
C692 H669 0.947 . S
C692 C691 1.391 . S
C692 C693 1.392 . S
C693 H670 0.948 . S
C693 C692 1.392 . S
C693 C694 1.419 . S
C694 C693 1.419 . S
C694 C695 1.391 . S
C694 C698 1.397 . S
C695 C690 1.391 . S
C695 C694 1.391 . S
C695 C696 1.399 . S
C696 C695 1.399 . S
C696 C697 1.396 . S
C696 C699 1.453 . S
C696 C700 1.684 . S
C697 C687 1.723 . S
C697 C696 1.396 . S
C697 C698 1.394 . S
C698 C668 1.723 . S
C698 C694 1.397 . S
C698 C697 1.394 . S
C699 H671 0.982 . S
C699 H675 0.979 . S
C699 H676 0.977 . S
C699 C696 1.453 . S
C700 H672 0.979 . S
C700 H673 0.980 . S
C700 H674 0.983 . S
C700 C696 1.684 . S
H701 C719 0.948 . S
H702 C660 0.948 . S
H703 C678 0.979 . S
H704 C678 0.980 . S
H705 C678 0.983 . S
H706 C677 0.982 . S
H707 C677 0.979 . S
H708 C677 0.977 . S
H709 C679 0.948 . S
H710 C681 0.947 . S
H711 C682 0.948 . S
H712 C688 0.982 . S
H713 C688 0.979 . S
H714 C688 0.977 . S
H715 C689 0.979 . S
H716 C689 0.980 . S
H717 C689 0.983 . S
H718 C662 0.947 . S
C719 C662 1.392 . S
C719 C663 1.419 . S
C719 H701 0.948 . S
C720 C721 1.391 . S
C720 C724 1.391 . S
C720 H762 0.948 . S
C721 C720 1.391 . S
C721 C722 1.391 . S
C722 C721 1.391 . S
C722 H778 0.947 . S
C722 C779 1.392 . S
C723 C724 1.391 . S
C723 C727 1.397 . S
C723 C779 1.419 . S
C724 C720 1.391 . S
C724 C723 1.391 . S
C724 C725 1.399 . S
C725 C724 1.399 . S
C725 C728 1.396 . S
C725 C737 1.453 . S
C725 C738 1.684 . S
H726 C750 0.948 . S
C727 C723 1.397 . S
C727 C728 1.394 . S
C727 C746 1.723 . S
C728 C725 1.396 . S
C728 C727 1.394 . S
C728 C758 1.723 . S
H729 C752 0.947 . S
H730 C753 0.948 . S
H731 C759 0.982 . S
H732 C760 0.979 . S
H733 C760 0.980 . S
H734 C760 0.983 . S
H735 C759 0.979 . S
H736 C759 0.977 . S
C737 C725 1.453 . S
C737 H766 0.982 . S
C737 H767 0.979 . S
C737 H768 0.977 . S
C738 C725 1.684 . S
C738 H763 0.979 . S
C738 H764 0.980 . S
C738 H765 0.983 . S
C739 C740 1.391 . S
C739 C744 1.391 . S
C739 H769 0.948 . S
C740 C739 1.391 . S
C740 C741 1.391 . S
C741 C740 1.391 . S
C741 C742 1.392 . S
C741 H770 0.947 . S
C742 C741 1.392 . S
C742 C743 1.419 . S
C742 H771 0.948 . S
C743 C742 1.419 . S
C743 C744 1.391 . S
C743 C747 1.397 . S
C744 C739 1.391 . S
C744 C743 1.391 . S
C744 C745 1.399 . S
C745 C744 1.399 . S
C745 C746 1.396 . S
C745 C748 1.453 . S
C745 C749 1.684 . S
C746 C727 1.723 . S
C746 C745 1.396 . S
C746 C747 1.394 . S
C747 C743 1.397 . S
C747 C746 1.394 . S
C747 C757 1.723 . S
C748 C745 1.453 . S
C748 H772 0.982 . S
C748 H773 0.979 . S
C748 H774 0.977 . S
C749 C745 1.684 . S
C749 H775 0.979 . S
C749 H776 0.980 . S
C749 H777 0.983 . S
C750 H726 0.948 . S
C750 C751 1.391 . S
C750 C755 1.391 . S
C751 C750 1.391 . S
C751 C752 1.391 . S
C752 H729 0.947 . S
C752 C751 1.391 . S
C752 C753 1.392 . S
C753 H730 0.948 . S
C753 C752 1.392 . S
C753 C754 1.419 . S
C754 C753 1.419 . S
C754 C755 1.391 . S
C754 C758 1.397 . S
C755 C750 1.391 . S
C755 C754 1.391 . S
C755 C756 1.399 . S
C756 C755 1.399 . S
C756 C757 1.396 . S
C756 C759 1.453 . S
C756 C760 1.684 . S
C757 C747 1.723 . S
C757 C756 1.396 . S
C757 C758 1.394 . S
C758 C728 1.723 . S
C758 C754 1.397 . S
C758 C757 1.394 . S
C759 H731 0.982 . S
C759 H735 0.979 . S
C759 H736 0.977 . S
C759 C756 1.453 . S
C760 H732 0.979 . S
C760 H733 0.980 . S
C760 H734 0.983 . S
C760 C756 1.684 . S
H761 C779 0.948 . S
H762 C720 0.948 . S
H763 C738 0.979 . S
H764 C738 0.980 . S
H765 C738 0.983 . S
H766 C737 0.982 . S
H767 C737 0.979 . S
H768 C737 0.977 . S
H769 C739 0.948 . S
H770 C741 0.947 . S
H771 C742 0.948 . S
H772 C748 0.982 . S
H773 C748 0.979 . S
H774 C748 0.977 . S
H775 C749 0.979 . S
H776 C749 0.980 . S
H777 C749 0.983 . S
H778 C722 0.947 . S
C779 C722 1.392 . S
C779 C723 1.419 . S
C779 H761 0.948 . S
C780 C781 1.391 . S
C780 C784 1.391 . S
C780 H822 0.948 . S
C781 C780 1.391 . S
C781 C782 1.391 . S
C782 C781 1.391 . S
C782 H838 0.947 . S
C782 C839 1.392 . S
C783 C784 1.391 . S
C783 C787 1.397 . S
C783 C839 1.419 . S
C784 C780 1.391 . S
C784 C783 1.391 . S
C784 C785 1.399 . S
C785 C784 1.399 . S
C785 C788 1.396 . S
C785 C797 1.453 . S
C785 C798 1.684 . S
H786 C810 0.948 . S
C787 C783 1.397 . S
C787 C788 1.394 . S
C787 C806 1.723 . S
C788 C785 1.396 . S
C788 C787 1.394 . S
C788 C818 1.723 . S
H789 C812 0.947 . S
H790 C813 0.948 . S
H791 C819 0.982 . S
H792 C820 0.979 . S
H793 C820 0.980 . S
H794 C820 0.983 . S
H795 C819 0.979 . S
H796 C819 0.977 . S
C797 C785 1.453 . S
C797 H826 0.982 . S
C797 H827 0.979 . S
C797 H828 0.977 . S
C798 C785 1.684 . S
C798 H823 0.979 . S
C798 H824 0.980 . S
C798 H825 0.983 . S
C799 C800 1.391 . S
C799 C804 1.391 . S
C799 H829 0.948 . S
C800 C799 1.391 . S
C800 C801 1.391 . S
C801 C800 1.391 . S
C801 C802 1.392 . S
C801 H830 0.947 . S
C802 C801 1.392 . S
C802 C803 1.419 . S
C802 H831 0.948 . S
C803 C802 1.419 . S
C803 C804 1.391 . S
C803 C807 1.397 . S
C804 C799 1.391 . S
C804 C803 1.391 . S
C804 C805 1.399 . S
C805 C804 1.399 . S
C805 C806 1.396 . S
C805 C808 1.453 . S
C805 C809 1.684 . S
C806 C787 1.723 . S
C806 C805 1.396 . S
C806 C807 1.394 . S
C807 C803 1.397 . S
C807 C806 1.394 . S
C807 C817 1.723 . S
C808 C805 1.453 . S
C808 H832 0.982 . S
C808 H833 0.979 . S
C808 H834 0.977 . S
C809 C805 1.684 . S
C809 H835 0.979 . S
C809 H836 0.980 . S
C809 H837 0.983 . S
C810 H786 0.948 . S
C810 C811 1.391 . S
C810 C815 1.391 . S
C811 C810 1.391 . S
C811 C812 1.391 . S
C812 H789 0.947 . S
C812 C811 1.391 . S
C812 C813 1.392 . S
C813 H790 0.948 . S
C813 C812 1.392 . S
C813 C814 1.419 . S
C814 C813 1.419 . S
C814 C815 1.391 . S
C814 C818 1.397 . S
C815 C810 1.391 . S
C815 C814 1.391 . S
C815 C816 1.399 . S
C816 C815 1.399 . S
C816 C817 1.396 . S
C816 C819 1.453 . S
C816 C820 1.684 . S
C817 C807 1.723 . S
C817 C816 1.396 . S
C817 C818 1.394 . S
C818 C788 1.723 . S
C818 C814 1.397 . S
C818 C817 1.394 . S
C819 H791 0.982 . S
C819 H795 0.979 . S
C819 H796 0.977 . S
C819 C816 1.453 . S
C820 H792 0.979 . S
C820 H793 0.980 . S
C820 H794 0.983 . S
C820 C816 1.684 . S
H821 C839 0.948 . S
H822 C780 0.948 . S
H823 C798 0.979 . S
H824 C798 0.980 . S
H825 C798 0.983 . S
H826 C797 0.982 . S
H827 C797 0.979 . S
H828 C797 0.977 . S
H829 C799 0.948 . S
H830 C801 0.947 . S
H831 C802 0.948 . S
H832 C808 0.982 . S
H833 C808 0.979 . S
H834 C808 0.977 . S
H835 C809 0.979 . S
H836 C809 0.980 . S
H837 C809 0.983 . S
H838 C782 0.947 . S
C839 C782 1.392 . S
C839 C783 1.419 . S
C839 H821 0.948 . S
C840 C841 1.391 . S
C840 C844 1.391 . S
C840 H882 0.948 . S
C841 C840 1.391 . S
C841 C842 1.391 . S
C842 C841 1.391 . S
C842 H898 0.947 . S
C842 C899 1.392 . S
C843 C844 1.391 . S
C843 C847 1.397 . S
C843 C899 1.419 . S
C844 C840 1.391 . S
C844 C843 1.391 . S
C844 C845 1.399 . S
C845 C844 1.399 . S
C845 C848 1.396 . S
C845 C857 1.453 . S
C845 C858 1.684 . S
H846 C870 0.948 . S
C847 C843 1.397 . S
C847 C848 1.394 . S
C847 C866 1.723 . S
C848 C845 1.396 . S
C848 C847 1.394 . S
C848 C878 1.723 . S
H849 C872 0.947 . S
H850 C873 0.948 . S
H851 C879 0.982 . S
H852 C880 0.979 . S
H853 C880 0.980 . S
H854 C880 0.983 . S
H855 C879 0.979 . S
H856 C879 0.977 . S
C857 C845 1.453 . S
C857 H886 0.982 . S
C857 H887 0.979 . S
C857 H888 0.977 . S
C858 C845 1.684 . S
C858 H883 0.979 . S
C858 H884 0.980 . S
C858 H885 0.983 . S
C859 C860 1.391 . S
C859 C864 1.391 . S
C859 H889 0.948 . S
C860 C859 1.391 . S
C860 C861 1.391 . S
C861 C860 1.391 . S
C861 C862 1.392 . S
C861 H890 0.947 . S
C862 C861 1.392 . S
C862 C863 1.419 . S
C862 H891 0.948 . S
C863 C862 1.419 . S
C863 C864 1.391 . S
C863 C867 1.397 . S
C864 C859 1.391 . S
C864 C863 1.391 . S
C864 C865 1.399 . S
C865 C864 1.399 . S
C865 C866 1.396 . S
C865 C868 1.453 . S
C865 C869 1.684 . S
C866 C847 1.723 . S
C866 C865 1.396 . S
C866 C867 1.394 . S
C867 C863 1.397 . S
C867 C866 1.394 . S
C867 C877 1.723 . S
C868 C865 1.453 . S
C868 H892 0.982 . S
C868 H893 0.979 . S
C868 H894 0.977 . S
C869 C865 1.684 . S
C869 H895 0.979 . S
C869 H896 0.980 . S
C869 H897 0.983 . S
C870 H846 0.948 . S
C870 C871 1.391 . S
C870 C875 1.391 . S
C871 C870 1.391 . S
C871 C872 1.391 . S
C872 H849 0.947 . S
C872 C871 1.391 . S
C872 C873 1.392 . S
C873 H850 0.948 . S
C873 C872 1.392 . S
C873 C874 1.419 . S
C874 C873 1.419 . S
C874 C875 1.391 . S
C874 C878 1.397 . S
C875 C870 1.391 . S
C875 C874 1.391 . S
C875 C876 1.399 . S
C876 C875 1.399 . S
C876 C877 1.396 . S
C876 C879 1.453 . S
C876 C880 1.684 . S
C877 C867 1.723 . S
C877 C876 1.396 . S
C877 C878 1.394 . S
C878 C848 1.723 . S
C878 C874 1.397 . S
C878 C877 1.394 . S
C879 H851 0.982 . S
C879 H855 0.979 . S
C879 H856 0.977 . S
C879 C876 1.453 . S
C880 H852 0.979 . S
C880 H853 0.980 . S
C880 H854 0.983 . S
C880 C876 1.684 . S
H881 C899 0.948 . S
H882 C840 0.948 . S
H883 C858 0.979 . S
H884 C858 0.980 . S
H885 C858 0.983 . S
H886 C857 0.982 . S
H887 C857 0.979 . S
H888 C857 0.977 . S
H889 C859 0.948 . S
H890 C861 0.947 . S
H891 C862 0.948 . S
H892 C868 0.982 . S
H893 C868 0.979 . S
H894 C868 0.977 . S
H895 C869 0.979 . S
H896 C869 0.980 . S
H897 C869 0.983 . S
H898 C842 0.947 . S
C899 C842 1.392 . S
C899 C843 1.419 . S
C899 H881 0.948 . S
C900 C901 1.391 . S
C900 C904 1.391 . S
C900 H942 0.948 . S
C901 C900 1.391 . S
C901 C902 1.391 . S
C902 C901 1.391 . S
C902 H958 0.947 . S
C902 C959 1.392 . S
C903 C904 1.391 . S
C903 C907 1.397 . S
C903 C959 1.419 . S
C904 C900 1.391 . S
C904 C903 1.391 . S
C904 C905 1.399 . S
C905 C904 1.399 . S
C905 C908 1.396 . S
C905 C917 1.453 . S
C905 C918 1.684 . S
H906 C930 0.948 . S
C907 C903 1.397 . S
C907 C908 1.394 . S
C907 C926 1.723 . S
C908 C905 1.396 . S
C908 C907 1.394 . S
C908 C938 1.723 . S
H909 C932 0.947 . S
H910 C933 0.948 . S
H911 C939 0.982 . S
H912 C940 0.979 . S
H913 C940 0.980 . S
H914 C940 0.983 . S
H915 C939 0.979 . S
H916 C939 0.977 . S
C917 C905 1.453 . S
C917 H946 0.982 . S
C917 H947 0.979 . S
C917 H948 0.977 . S
C918 C905 1.684 . S
C918 H943 0.979 . S
C918 H944 0.980 . S
C918 H945 0.983 . S
C919 C920 1.391 . S
C919 C924 1.391 . S
C919 H949 0.948 . S
C920 C919 1.391 . S
C920 C921 1.391 . S
C921 C920 1.391 . S
C921 C922 1.392 . S
C921 H950 0.947 . S
C922 C921 1.392 . S
C922 C923 1.419 . S
C922 H951 0.948 . S
C923 C922 1.419 . S
C923 C924 1.391 . S
C923 C927 1.397 . S
C924 C919 1.391 . S
C924 C923 1.391 . S
C924 C925 1.399 . S
C925 C924 1.399 . S
C925 C926 1.396 . S
C925 C928 1.453 . S
C925 C929 1.684 . S
C926 C907 1.723 . S
C926 C925 1.396 . S
C926 C927 1.394 . S
C927 C923 1.397 . S
C927 C926 1.394 . S
C927 C937 1.723 . S
C928 C925 1.453 . S
C928 H952 0.982 . S
C928 H953 0.979 . S
C928 H954 0.977 . S
C929 C925 1.684 . S
C929 H955 0.979 . S
C929 H956 0.980 . S
C929 H957 0.983 . S
C930 H906 0.948 . S
C930 C931 1.391 . S
C930 C935 1.391 . S
C931 C930 1.391 . S
C931 C932 1.391 . S
C932 H909 0.947 . S
C932 C931 1.391 . S
C932 C933 1.392 . S
C933 H910 0.948 . S
C933 C932 1.392 . S
C933 C934 1.419 . S
C934 C933 1.419 . S
C934 C935 1.391 . S
C934 C938 1.397 . S
C935 C930 1.391 . S
C935 C934 1.391 . S
C935 C936 1.399 . S
C936 C935 1.399 . S
C936 C937 1.396 . S
C936 C939 1.453 . S
C936 C940 1.684 . S
C937 C927 1.723 . S
C937 C936 1.396 . S
C937 C938 1.394 . S
C938 C908 1.723 . S
C938 C934 1.397 . S
C938 C937 1.394 . S
C939 H911 0.982 . S
C939 H915 0.979 . S
C939 H916 0.977 . S
C939 C936 1.453 . S
C940 H912 0.979 . S
C940 H913 0.980 . S
C940 H914 0.983 . S
C940 C936 1.684 . S
H941 C959 0.948 . S
H942 C900 0.948 . S
H943 C918 0.979 . S
H944 C918 0.980 . S
H945 C918 0.983 . S
H946 C917 0.982 . S
H947 C917 0.979 . S
H948 C917 0.977 . S
H949 C919 0.948 . S
H950 C921 0.947 . S
H951 C922 0.948 . S
H952 C928 0.982 . S
H953 C928 0.979 . S
H954 C928 0.977 . S
H955 C929 0.979 . S
H956 C929 0.980 . S
H957 C929 0.983 . S
H958 C902 0.947 . S
C959 C902 1.392 . S
C959 C903 1.419 . S
C959 H941 0.948 . S
C960 C961 1.391 . S
C960 C964 1.391 . S
C960 H1002 0.948 . S
C961 C960 1.391 . S
C961 C962 1.391 . S
C962 C961 1.391 . S
C962 H1018 0.947 . S
C962 C1019 1.392 . S
C963 C964 1.391 . S
C963 C967 1.397 . S
C963 C1019 1.419 . S
C964 C960 1.391 . S
C964 C963 1.391 . S
C964 C965 1.399 . S
C965 C964 1.399 . S
C965 C968 1.396 . S
C965 C977 1.453 . S
C965 C978 1.684 . S
H966 C990 0.948 . S
C967 C963 1.397 . S
C967 C968 1.394 . S
C967 C986 1.723 . S
C968 C965 1.396 . S
C968 C967 1.394 . S
C968 C998 1.723 . S
H969 C992 0.947 . S
H970 C993 0.948 . S
H971 C999 0.982 . S
H972 C1000 0.979 . S
H973 C1000 0.980 . S
H974 C1000 0.983 . S
H975 C999 0.979 . S
H976 C999 0.977 . S
C977 C965 1.453 . S
C977 H1006 0.982 . S
C977 H1007 0.979 . S
C977 H1008 0.977 . S
C978 C965 1.684 . S
C978 H1003 0.979 . S
C978 H1004 0.980 . S
C978 H1005 0.983 . S
C979 C980 1.391 . S
C979 C984 1.391 . S
C979 H1009 0.948 . S
C980 C979 1.391 . S
C980 C981 1.391 . S
C981 C980 1.391 . S
C981 C982 1.392 . S
C981 H1010 0.947 . S
C982 C981 1.392 . S
C982 C983 1.419 . S
C982 H1011 0.948 . S
C983 C982 1.419 . S
C983 C984 1.391 . S
C983 C987 1.397 . S
C984 C979 1.391 . S
C984 C983 1.391 . S
C984 C985 1.399 . S
C985 C984 1.399 . S
C985 C986 1.396 . S
C985 C988 1.453 . S
C985 C989 1.684 . S
C986 C967 1.723 . S
C986 C985 1.396 . S
C986 C987 1.394 . S
C987 C983 1.397 . S
C987 C986 1.394 . S
C987 C997 1.723 . S
C988 C985 1.453 . S
C988 H1012 0.982 . S
C988 H1013 0.979 . S
C988 H1014 0.977 . S
C989 C985 1.684 . S
C989 H1015 0.979 . S
C989 H1016 0.980 . S
C989 H1017 0.983 . S
C990 H966 0.948 . S
C990 C991 1.391 . S
C990 C995 1.391 . S
C991 C990 1.391 . S
C991 C992 1.391 . S
C992 H969 0.947 . S
C992 C991 1.391 . S
C992 C993 1.392 . S
C993 H970 0.948 . S
C993 C992 1.392 . S
C993 C994 1.419 . S
C994 C993 1.419 . S
C994 C995 1.391 . S
C994 C998 1.397 . S
C995 C990 1.391 . S
C995 C994 1.391 . S
C995 C996 1.399 . S
C996 C995 1.399 . S
C996 C997 1.396 . S
C996 C999 1.453 . S
C996 C1000 1.684 . S
C997 C987 1.723 . S
C997 C996 1.396 . S
C997 C998 1.394 . S
C998 C968 1.723 . S
C998 C994 1.397 . S
C998 C997 1.394 . S
C999 H971 0.982 . S
C999 H975 0.979 . S
C999 H976 0.977 . S
C999 C996 1.453 . S
C1000 H972 0.979 . S
C1000 H973 0.980 . S
C1000 H974 0.983 . S
C1000 C996 1.684 . S
H1001 C1019 0.948 . S
H1002 C960 0.948 . S
H1003 C978 0.979 . S
H1004 C978 0.980 . S
H1005 C978 0.983 . S
H1006 C977 0.982 . S
H1007 C977 0.979 . S
H1008 C977 0.977 . S
H1009 C979 0.948 . S
H1010 C981 0.947 . S
H1011 C982 0.948 . S
H1012 C988 0.982 . S
H1013 C988 0.979 . S
H1014 C988 0.977 . S
H1015 C989 0.979 . S
H1016 C989 0.980 . S
H1017 C989 0.983 . S
H1018 C962 0.947 . S
C1019 C962 1.392 . S
C1019 C963 1.419 . S
C1019 H1001 0.948 . S
C1020 C1021 1.391 . S
C1020 C1024 1.391 . S
C1020 H1062 0.948 . S
C1021 C1020 1.391 . S
C1021 C1022 1.391 . S
C1022 C1021 1.391 . S
C1022 H1078 0.947 . S
C1022 C1079 1.392 . S
C1023 C1024 1.391 . S
C1023 C1027 1.397 . S
C1023 C1079 1.419 . S
C1024 C1020 1.391 . S
C1024 C1023 1.391 . S
C1024 C1025 1.399 . S
C1025 C1024 1.399 . S
C1025 C1028 1.396 . S
C1025 C1037 1.453 . S
C1025 C1038 1.684 . S
H1026 C1050 0.948 . S
C1027 C1023 1.397 . S
C1027 C1028 1.394 . S
C1027 C1046 1.723 . S
C1028 C1025 1.396 . S
C1028 C1027 1.394 . S
C1028 C1058 1.723 . S
H1029 C1052 0.947 . S
H1030 C1053 0.948 . S
H1031 C1059 0.982 . S
H1032 C1060 0.979 . S
H1033 C1060 0.980 . S
H1034 C1060 0.983 . S
H1035 C1059 0.979 . S
H1036 C1059 0.977 . S
C1037 C1025 1.453 . S
C1037 H1066 0.982 . S
C1037 H1067 0.979 . S
C1037 H1068 0.977 . S
C1038 C1025 1.684 . S
C1038 H1063 0.979 . S
C1038 H1064 0.980 . S
C1038 H1065 0.983 . S
C1039 C1040 1.391 . S
C1039 C1044 1.391 . S
C1039 H1069 0.948 . S
C1040 C1039 1.391 . S
C1040 C1041 1.391 . S
C1041 C1040 1.391 . S
C1041 C1042 1.392 . S
C1041 H1070 0.947 . S
C1042 C1041 1.392 . S
C1042 C1043 1.419 . S
C1042 H1071 0.948 . S
C1043 C1042 1.419 . S
C1043 C1044 1.391 . S
C1043 C1047 1.397 . S
C1044 C1039 1.391 . S
C1044 C1043 1.391 . S
C1044 C1045 1.399 . S
C1045 C1044 1.399 . S
C1045 C1046 1.396 . S
C1045 C1048 1.453 . S
C1045 C1049 1.684 . S
C1046 C1027 1.723 . S
C1046 C1045 1.396 . S
C1046 C1047 1.394 . S
C1047 C1043 1.397 . S
C1047 C1046 1.394 . S
C1047 C1057 1.723 . S
C1048 C1045 1.453 . S
C1048 H1072 0.982 . S
C1048 H1073 0.979 . S
C1048 H1074 0.977 . S
C1049 C1045 1.684 . S
C1049 H1075 0.979 . S
C1049 H1076 0.980 . S
C1049 H1077 0.983 . S
C1050 H1026 0.948 . S
C1050 C1051 1.391 . S
C1050 C1055 1.391 . S
C1051 C1050 1.391 . S
C1051 C1052 1.391 . S
C1052 H1029 0.947 . S
C1052 C1051 1.391 . S
C1052 C1053 1.392 . S
C1053 H1030 0.948 . S
C1053 C1052 1.392 . S
C1053 C1054 1.419 . S
C1054 C1053 1.419 . S
C1054 C1055 1.391 . S
C1054 C1058 1.397 . S
C1055 C1050 1.391 . S
C1055 C1054 1.391 . S
C1055 C1056 1.399 . S
C1056 C1055 1.399 . S
C1056 C1057 1.396 . S
C1056 C1059 1.453 . S
C1056 C1060 1.684 . S
C1057 C1047 1.723 . S
C1057 C1056 1.396 . S
C1057 C1058 1.394 . S
C1058 C1028 1.723 . S
C1058 C1054 1.397 . S
C1058 C1057 1.394 . S
C1059 H1031 0.982 . S
C1059 H1035 0.979 . S
C1059 H1036 0.977 . S
C1059 C1056 1.453 . S
C1060 H1032 0.979 . S
C1060 H1033 0.980 . S
C1060 H1034 0.983 . S
C1060 C1056 1.684 . S
H1061 C1079 0.948 . S
H1062 C1020 0.948 . S
H1063 C1038 0.979 . S
H1064 C1038 0.980 . S
H1065 C1038 0.983 . S
H1066 C1037 0.982 . S
H1067 C1037 0.979 . S
H1068 C1037 0.977 . S
H1069 C1039 0.948 . S
H1070 C1041 0.947 . S
H1071 C1042 0.948 . S
H1072 C1048 0.982 . S
H1073 C1048 0.979 . S
H1074 C1048 0.977 . S
H1075 C1049 0.979 . S
H1076 C1049 0.980 . S
H1077 C1049 0.983 . S
H1078 C1022 0.947 . S
C1079 C1022 1.392 . S
C1079 C1023 1.419 . S
C1079 H1061 0.948 . S
Eu1080 N1111 2.657 . S
Eu1080 N1118 2.609 . S
Eu1080 O1124 2.558 . S
Eu1080 O1125 2.612 1_565 S
Eu1080 O1127 2.339 1_565 S
Eu1080 O1128 2.563 1_565 S
Eu1080 O1129 2.419 . S
Eu1080 O1131 2.380 1_556 S
Eu1080 O1132 2.432 . S
Eu1080 C1144 2.848 . S
C1081 C1084 1.429 . S
C1081 C1085 1.411 . S
C1081 N1088 1.377 . S
C1082 C1084 1.420 . S
C1082 C1086 1.423 . S
C1082 C1094 1.392 . S
C1083 C1085 1.420 . S
C1083 C1086 1.351 . S
C1083 H1106 0.931 . S
C1084 C1081 1.429 . S
C1084 C1082 1.420 . S
C1084 N1092 1.362 . S
C1085 C1081 1.411 . S
C1085 C1083 1.420 . S
C1085 C1090 1.395 . S
C1086 C1082 1.423 . S
C1086 C1083 1.351 . S
C1086 H1098 0.930 . S
C1087 C1089 1.400 . S
C1087 C1090 1.386 . S
C1087 H1099 0.930 . S
N1088 C1081 1.377 . S
N1088 C1089 1.321 . S
N1088 Eu1091 2.609 . S
C1089 C1087 1.400 . S
C1089 N1088 1.321 . S
C1089 H1096 0.930 . S
C1090 C1085 1.395 . S
C1090 C1087 1.386 . S
C1090 H1109 0.930 . S
Eu1091 N1088 2.609 . S
Eu1091 N1092 2.657 . S
Eu1091 O1125 2.380 1_554 S
Eu1091 O1126 2.432 . S
Eu1091 O1130 2.558 . S
Eu1091 O1131 2.612 1_545 S
Eu1091 O1133 2.339 1_545 S
Eu1091 O1134 2.563 1_545 S
Eu1091 O1135 2.419 . S
Eu1091 C1155 2.848 . S
N1092 C1084 1.362 . S
N1092 Eu1091 2.657 . S
N1092 C1093 1.334 . S
C1093 N1092 1.334 . S
C1093 C1095 1.413 . S
C1093 H1100 0.929 . S
C1094 C1082 1.392 . S
C1094 C1095 1.367 . S
C1094 H1102 0.930 . S
C1095 C1093 1.413 . S
C1095 C1094 1.367 . S
C1095 H1097 0.930 . S
H1096 C1089 0.930 . S
H1097 C1095 0.930 . S
H1098 C1086 0.930 . S
H1099 C1087 0.930 . S
H1100 C1093 0.929 . S
H1101 C1115 0.930 . S
H1102 C1094 0.930 . S
H1103 C1121 0.930 . S
H1104 C1112 0.929 . S
H1105 C1119 0.930 . S
H1106 C1083 0.931 . S
H1107 C1113 0.930 . S
H1108 C1146 0.930 . S
H1109 C1090 0.930 . S
H1110 C1145 0.931 . S
N1111 Eu1080 2.657 . S
N1111 C1112 1.334 . S
N1111 C1116 1.362 . S
C1112 H1104 0.929 . S
C1112 N1111 1.334 . S
C1112 C1115 1.413 . S
C1113 H1107 0.930 . S
C1113 C1114 1.392 . S
C1113 C1115 1.367 . S
C1114 C1113 1.392 . S
C1114 C1116 1.420 . S
C1114 C1146 1.423 . S
C1115 H1101 0.930 . S
C1115 C1112 1.413 . S
C1115 C1113 1.367 . S
C1116 N1111 1.362 . S
C1116 C1114 1.420 . S
C1116 C1120 1.429 . S
H1117 C1122 0.930 . S
N1118 Eu1080 2.609 . S
N1118 C1120 1.377 . S
N1118 C1121 1.321 . S
C1119 H1105 0.930 . S
C1119 C1121 1.400 . S
C1119 C1122 1.386 . S
C1120 C1116 1.429 . S
C1120 N1118 1.377 . S
C1120 C1123 1.411 . S
C1121 H1103 0.930 . S
C1121 N1118 1.321 . S
C1121 C1119 1.400 . S
C1122 H1117 0.930 . S
C1122 C1119 1.386 . S
C1122 C1123 1.395 . S
C1123 C1120 1.411 . S
C1123 C1122 1.395 . S
C1123 C1145 1.420 . S
O1124 Eu1080 2.558 . S
O1124 C1144 1.257 . S
O1125 Eu1080 2.612 1_545 S
O1125 Eu1091 2.380 1_556 S
O1125 C1136 1.276 . S
O1126 Eu1091 2.432 . S
O1126 C1143 1.264 1_554 S
O1127 Eu1080 2.339 1_545 S
O1127 C1143 1.254 . S
O1128 Eu1080 2.563 1_545 S
O1128 C1136 1.235 . S
O1129 Eu1080 2.419 . S
O1129 C1144 1.249 . S
O1130 Eu1091 2.558 . S
O1130 C1155 1.257 . S
O1131 Eu1080 2.380 1_554 S
O1131 Eu1091 2.612 1_565 S
O1131 C1147 1.276 . S
O1132 Eu1080 2.432 . S
O1132 C1154 1.264 1_556 S
O1133 Eu1091 2.339 1_565 S
O1133 C1154 1.254 . S
O1134 Eu1091 2.563 1_565 S
O1134 C1147 1.235 . S
O1135 Eu1091 2.419 . S
O1135 C1155 1.249 . S
C1136 O1125 1.276 . S
C1136 O1128 1.235 . S
C1137 C1139 1.393 1_565 S
C1137 C1141 1.395 . S
C1137 C1144 1.492 . S
C1138 C1139 1.392 . S
C1138 C1140 1.386 1_545 S
C1139 C1137 1.393 1_545 S
C1139 C1138 1.392 . S
C1139 H1156 0.930 . S
C1140 C1138 1.386 1_565 S
C1140 C1142 1.395 . S
C1140 H1157 0.930 . S
C1141 C1137 1.395 . S
C1141 C1142 1.379 . S
C1141 H1158 0.930 . S
C1142 C1140 1.395 . S
C1142 C1141 1.379 . S
C1142 H1159 0.930 . S
C1143 O1126 1.264 1_556 S
C1143 O1127 1.254 . S
C1144 Eu1080 2.848 . S
C1144 O1124 1.257 . S
C1144 O1129 1.249 . S
C1144 C1137 1.492 . S
C1145 H1110 0.931 . S
C1145 C1123 1.420 . S
C1145 C1146 1.351 . S
C1146 H1108 0.930 . S
C1146 C1114 1.423 . S
C1146 C1145 1.351 . S
C1147 O1131 1.276 . S
C1147 O1134 1.235 . S
C1148 C1149 1.393 1_545 S
C1148 C1152 1.395 . S
C1148 C1155 1.492 . S
C1149 C1148 1.393 1_565 S
C1149 C1150 1.392 . S
C1149 H1160 0.930 . S
C1150 C1149 1.392 . S
C1150 C1151 1.386 1_565 S
C1151 C1150 1.386 1_545 S
C1151 C1153 1.395 . S
C1151 H1161 0.930 . S
C1152 C1148 1.395 . S
C1152 C1153 1.379 . S
C1152 H1162 0.930 . S
C1153 C1151 1.395 . S
C1153 C1152 1.379 . S
C1153 H1163 0.930 . S
C1154 O1132 1.264 1_554 S
C1154 O1133 1.254 . S
C1155 Eu1091 2.848 . S
C1155 O1130 1.257 . S
C1155 O1135 1.249 . S
C1155 C1148 1.492 . S
H1156 C1139 0.930 . S
H1157 C1140 0.930 . S
H1158 C1141 0.930 . S
H1159 C1142 0.930 . S
H1160 C1149 0.930 . S
H1161 C1151 0.930 . S
H1162 C1152 0.930 . S
H1163 C1153 0.930 . S
Eu1164 N1195 2.657 . S
Eu1164 N1202 2.609 . S
Eu1164 O1208 2.558 . S
Eu1164 O1209 2.612 1_455 S
Eu1164 O1211 2.339 1_455 S
Eu1164 O1212 2.563 1_455 S
Eu1164 O1213 2.419 . S
Eu1164 O1215 2.380 1_556 S
Eu1164 O1216 2.432 . S
Eu1164 C1228 2.848 . S
C1165 C1168 1.429 . S
C1165 C1169 1.411 . S
C1165 N1172 1.377 . S
C1166 C1168 1.420 . S
C1166 C1170 1.423 . S
C1166 C1178 1.392 . S
C1167 C1169 1.420 . S
C1167 C1170 1.351 . S
C1167 H1190 0.931 . S
C1168 C1165 1.429 . S
C1168 C1166 1.420 . S
C1168 N1176 1.362 . S
C1169 C1165 1.411 . S
C1169 C1167 1.420 . S
C1169 C1174 1.395 . S
C1170 C1166 1.423 . S
C1170 C1167 1.351 . S
C1170 H1182 0.930 . S
C1171 C1173 1.400 . S
C1171 C1174 1.386 . S
C1171 H1183 0.930 . S
N1172 C1165 1.377 . S
N1172 C1173 1.321 . S
N1172 Eu1175 2.609 . S
C1173 C1171 1.400 . S
C1173 N1172 1.321 . S
C1173 H1180 0.930 . S
C1174 C1169 1.395 . S
C1174 C1171 1.386 . S
C1174 H1193 0.930 . S
Eu1175 N1172 2.609 . S
Eu1175 N1176 2.657 . S
Eu1175 O1209 2.380 1_554 S
Eu1175 O1210 2.432 . S
Eu1175 O1214 2.558 . S
Eu1175 O1215 2.612 1_655 S
Eu1175 O1217 2.339 1_655 S
Eu1175 O1218 2.563 1_655 S
Eu1175 O1219 2.419 . S
Eu1175 C1239 2.848 . S
N1176 C1168 1.362 . S
N1176 Eu1175 2.657 . S
N1176 C1177 1.334 . S
C1177 N1176 1.334 . S
C1177 C1179 1.413 . S
C1177 H1184 0.929 . S
C1178 C1166 1.392 . S
C1178 C1179 1.367 . S
C1178 H1186 0.930 . S
C1179 C1177 1.413 . S
C1179 C1178 1.367 . S
C1179 H1181 0.930 . S
H1180 C1173 0.930 . S
H1181 C1179 0.930 . S
H1182 C1170 0.930 . S
H1183 C1171 0.930 . S
H1184 C1177 0.929 . S
H1185 C1199 0.930 . S
H1186 C1178 0.930 . S
H1187 C1205 0.930 . S
H1188 C1196 0.929 . S
H1189 C1203 0.930 . S
H1190 C1167 0.931 . S
H1191 C1197 0.930 . S
H1192 C1230 0.930 . S
H1193 C1174 0.930 . S
H1194 C1229 0.931 . S
N1195 Eu1164 2.657 . S
N1195 C1196 1.334 . S
N1195 C1200 1.362 . S
C1196 H1188 0.929 . S
C1196 N1195 1.334 . S
C1196 C1199 1.413 . S
C1197 H1191 0.930 . S
C1197 C1198 1.392 . S
C1197 C1199 1.367 . S
C1198 C1197 1.392 . S
C1198 C1200 1.420 . S
C1198 C1230 1.423 . S
C1199 H1185 0.930 . S
C1199 C1196 1.413 . S
C1199 C1197 1.367 . S
C1200 N1195 1.362 . S
C1200 C1198 1.420 . S
C1200 C1204 1.429 . S
H1201 C1206 0.930 . S
N1202 Eu1164 2.609 . S
N1202 C1204 1.377 . S
N1202 C1205 1.321 . S
C1203 H1189 0.930 . S
C1203 C1205 1.400 . S
C1203 C1206 1.386 . S
C1204 C1200 1.429 . S
C1204 N1202 1.377 . S
C1204 C1207 1.411 . S
C1205 H1187 0.930 . S
C1205 N1202 1.321 . S
C1205 C1203 1.400 . S
C1206 H1201 0.930 . S
C1206 C1203 1.386 . S
C1206 C1207 1.395 . S
C1207 C1204 1.411 . S
C1207 C1206 1.395 . S
C1207 C1229 1.420 . S
O1208 Eu1164 2.558 . S
O1208 C1228 1.257 . S
O1209 Eu1164 2.612 1_655 S
O1209 Eu1175 2.380 1_556 S
O1209 C1220 1.276 . S
O1210 Eu1175 2.432 . S
O1210 C1227 1.264 1_554 S
O1211 Eu1164 2.339 1_655 S
O1211 C1227 1.254 . S
O1212 Eu1164 2.563 1_655 S
O1212 C1220 1.235 . S
O1213 Eu1164 2.419 . S
O1213 C1228 1.249 . S
O1214 Eu1175 2.558 . S
O1214 C1239 1.257 . S
O1215 Eu1164 2.380 1_554 S
O1215 Eu1175 2.612 1_455 S
O1215 C1231 1.276 . S
O1216 Eu1164 2.432 . S
O1216 C1238 1.264 1_556 S
O1217 Eu1175 2.339 1_455 S
O1217 C1238 1.254 . S
O1218 Eu1175 2.563 1_455 S
O1218 C1231 1.235 . S
O1219 Eu1175 2.419 . S
O1219 C1239 1.249 . S
C1220 O1209 1.276 . S
C1220 O1212 1.235 . S
C1221 C1223 1.393 1_455 S
C1221 C1225 1.395 . S
C1221 C1228 1.492 . S
C1222 C1223 1.392 . S
C1222 C1224 1.386 1_655 S
C1223 C1221 1.393 1_655 S
C1223 C1222 1.392 . S
C1223 H1240 0.930 . S
C1224 C1222 1.386 1_455 S
C1224 C1226 1.395 . S
C1224 H1241 0.930 . S
C1225 C1221 1.395 . S
C1225 C1226 1.379 . S
C1225 H1242 0.930 . S
C1226 C1224 1.395 . S
C1226 C1225 1.379 . S
C1226 H1243 0.930 . S
C1227 O1210 1.264 1_556 S
C1227 O1211 1.254 . S
C1228 Eu1164 2.848 . S
C1228 O1208 1.257 . S
C1228 O1213 1.249 . S
C1228 C1221 1.492 . S
C1229 H1194 0.931 . S
C1229 C1207 1.420 . S
C1229 C1230 1.351 . S
C1230 H1192 0.930 . S
C1230 C1198 1.423 . S
C1230 C1229 1.351 . S
C1231 O1215 1.276 . S
C1231 O1218 1.235 . S
C1232 C1233 1.393 1_655 S
C1232 C1236 1.395 . S
C1232 C1239 1.492 . S
C1233 C1232 1.393 1_455 S
C1233 C1234 1.392 . S
C1233 H1244 0.930 . S
C1234 C1233 1.392 . S
C1234 C1235 1.386 1_455 S
C1235 C1234 1.386 1_655 S
C1235 C1237 1.395 . S
C1235 H1245 0.930 . S
C1236 C1232 1.395 . S
C1236 C1237 1.379 . S
C1236 H1246 0.930 . S
C1237 C1235 1.395 . S
C1237 C1236 1.379 . S
C1237 H1247 0.930 . S
C1238 O1216 1.264 1_554 S
C1238 O1217 1.254 . S
C1239 Eu1175 2.848 . S
C1239 O1214 1.257 . S
C1239 O1219 1.249 . S
C1239 C1232 1.492 . S
H1240 C1223 0.930 . S
H1241 C1224 0.930 . S
H1242 C1225 0.930 . S
H1243 C1226 0.930 . S
H1244 C1233 0.930 . S
H1245 C1235 0.930 . S
H1246 C1236 0.930 . S
H1247 C1237 0.930 . S
Eu1248 N1279 2.657 . S
Eu1248 N1286 2.609 . S
Eu1248 O1292 2.558 . S
Eu1248 O1293 2.612 . S
Eu1248 O1295 2.339 . S
Eu1248 O1296 2.563 . S
Eu1248 O1297 2.419 . S
Eu1248 O1299 2.380 1_554 S
Eu1248 O1300 2.432 . S
Eu1248 C1312 2.848 . S
C1249 C1252 1.429 . S
C1249 C1253 1.411 . S
C1249 N1256 1.377 . S
C1250 C1252 1.420 . S
C1250 C1254 1.423 . S
C1250 C1262 1.392 . S
C1251 C1253 1.420 . S
C1251 C1254 1.351 . S
C1251 H1274 0.931 . S
C1252 C1249 1.429 . S
C1252 C1250 1.420 . S
C1252 N1260 1.362 . S
C1253 C1249 1.411 . S
C1253 C1251 1.420 . S
C1253 C1258 1.395 . S
C1254 C1250 1.423 . S
C1254 C1251 1.351 . S
C1254 H1266 0.930 . S
C1255 C1257 1.400 . S
C1255 C1258 1.386 . S
C1255 H1267 0.930 . S
N1256 C1249 1.377 . S
N1256 C1257 1.321 . S
N1256 Eu1259 2.609 . S
C1257 C1255 1.400 . S
C1257 N1256 1.321 . S
C1257 H1264 0.930 . S
C1258 C1253 1.395 . S
C1258 C1255 1.386 . S
C1258 H1277 0.930 . S
Eu1259 N1256 2.609 . S
Eu1259 N1260 2.657 . S
Eu1259 O1293 2.380 1_556 S
Eu1259 O1294 2.432 . S
Eu1259 O1298 2.558 . S
Eu1259 O1299 2.612 . S
Eu1259 O1301 2.339 . S
Eu1259 O1302 2.563 . S
Eu1259 O1303 2.419 . S
Eu1259 C1323 2.848 . S
N1260 C1252 1.362 . S
N1260 Eu1259 2.657 . S
N1260 C1261 1.334 . S
C1261 N1260 1.334 . S
C1261 C1263 1.413 . S
C1261 H1268 0.929 . S
C1262 C1250 1.392 . S
C1262 C1263 1.367 . S
C1262 H1270 0.930 . S
C1263 C1261 1.413 . S
C1263 C1262 1.367 . S
C1263 H1265 0.930 . S
H1264 C1257 0.930 . S
H1265 C1263 0.930 . S
H1266 C1254 0.930 . S
H1267 C1255 0.930 . S
H1268 C1261 0.929 . S
H1269 C1283 0.930 . S
H1270 C1262 0.930 . S
H1271 C1289 0.930 . S
H1272 C1280 0.929 . S
H1273 C1287 0.930 . S
H1274 C1251 0.931 . S
H1275 C1281 0.930 . S
H1276 C1314 0.930 . S
H1277 C1258 0.930 . S
H1278 C1313 0.931 . S
N1279 Eu1248 2.657 . S
N1279 C1280 1.334 . S
N1279 C1284 1.362 . S
C1280 H1272 0.929 . S
C1280 N1279 1.334 . S
C1280 C1283 1.413 . S
C1281 H1275 0.930 . S
C1281 C1282 1.392 . S
C1281 C1283 1.367 . S
C1282 C1281 1.392 . S
C1282 C1284 1.420 . S
C1282 C1314 1.423 . S
C1283 H1269 0.930 . S
C1283 C1280 1.413 . S
C1283 C1281 1.367 . S
C1284 N1279 1.362 . S
C1284 C1282 1.420 . S
C1284 C1288 1.429 . S
H1285 C1290 0.930 . S
N1286 Eu1248 2.609 . S
N1286 C1288 1.377 . S
N1286 C1289 1.321 . S
C1287 H1273 0.930 . S
C1287 C1289 1.400 . S
C1287 C1290 1.386 . S
C1288 C1284 1.429 . S
C1288 N1286 1.377 . S
C1288 C1291 1.411 . S
C1289 H1271 0.930 . S
C1289 N1286 1.321 . S
C1289 C1287 1.400 . S
C1290 H1285 0.930 . S
C1290 C1287 1.386 . S
C1290 C1291 1.395 . S
C1291 C1288 1.411 . S
C1291 C1290 1.395 . S
C1291 C1313 1.420 . S
O1292 Eu1248 2.558 . S
O1292 C1312 1.257 . S
O1293 Eu1248 2.612 . S
O1293 Eu1259 2.380 1_554 S
O1293 C1304 1.276 . S
O1294 Eu1259 2.432 . S
O1294 C1311 1.264 1_556 S
O1295 Eu1248 2.339 . S
O1295 C1311 1.254 . S
O1296 Eu1248 2.563 . S
O1296 C1304 1.235 . S
O1297 Eu1248 2.419 . S
O1297 C1312 1.249 . S
O1298 Eu1259 2.558 . S
O1298 C1323 1.257 . S
O1299 Eu1248 2.380 1_556 S
O1299 Eu1259 2.612 . S
O1299 C1315 1.276 . S
O1300 Eu1248 2.432 . S
O1300 C1322 1.264 1_554 S
O1301 Eu1259 2.339 . S
O1301 C1322 1.254 . S
O1302 Eu1259 2.563 . S
O1302 C1315 1.235 . S
O1303 Eu1259 2.419 . S
O1303 C1323 1.249 . S
C1304 O1293 1.276 . S
C1304 O1296 1.235 . S
C1305 C1307 1.393 . S
C1305 C1309 1.395 . S
C1305 C1312 1.492 . S
C1306 C1307 1.392 . S
C1306 C1308 1.386 . S
C1307 C1305 1.393 . S
C1307 C1306 1.392 . S
C1307 H1324 0.930 . S
C1308 C1306 1.386 . S
C1308 C1310 1.395 . S
C1308 H1325 0.930 . S
C1309 C1305 1.395 . S
C1309 C1310 1.379 . S
C1309 H1326 0.930 . S
C1310 C1308 1.395 . S
C1310 C1309 1.379 . S
C1310 H1327 0.930 . S
C1311 O1294 1.264 1_554 S
C1311 O1295 1.254 . S
C1312 Eu1248 2.848 . S
C1312 O1292 1.257 . S
C1312 O1297 1.249 . S
C1312 C1305 1.492 . S
C1313 H1278 0.931 . S
C1313 C1291 1.420 . S
C1313 C1314 1.351 . S
C1314 H1276 0.930 . S
C1314 C1282 1.423 . S
C1314 C1313 1.351 . S
C1315 O1299 1.276 . S
C1315 O1302 1.235 . S
C1316 C1317 1.393 . S
C1316 C1320 1.395 . S
C1316 C1323 1.492 . S
C1317 C1316 1.393 . S
C1317 C1318 1.392 . S
C1317 H1328 0.930 . S
C1318 C1317 1.392 . S
C1318 C1319 1.386 . S
C1319 C1318 1.386 . S
C1319 C1321 1.395 . S
C1319 H1329 0.930 . S
C1320 C1316 1.395 . S
C1320 C1321 1.379 . S
C1320 H1330 0.930 . S
C1321 C1319 1.395 . S
C1321 C1320 1.379 . S
C1321 H1331 0.930 . S
C1322 O1300 1.264 1_556 S
C1322 O1301 1.254 . S
C1323 Eu1259 2.848 . S
C1323 O1298 1.257 . S
C1323 O1303 1.249 . S
C1323 C1316 1.492 . S
H1324 C1307 0.930 . S
H1325 C1308 0.930 . S
H1326 C1309 0.930 . S
H1327 C1310 0.930 . S
H1328 C1317 0.930 . S
H1329 C1319 0.930 . S
H1330 C1320 0.930 . S
H1331 C1321 0.930 . S
Eu1332 N1363 2.657 . S
Eu1332 N1370 2.609 . S
Eu1332 O1376 2.558 . S
Eu1332 O1377 2.612 . S
Eu1332 O1379 2.339 . S
Eu1332 O1380 2.563 . S
Eu1332 O1381 2.419 . S
Eu1332 O1383 2.380 . S
Eu1332 O1384 2.432 . S
Eu1332 C1396 2.848 . S
C1333 C1336 1.429 . S
C1333 C1337 1.411 . S
C1333 N1340 1.377 . S
C1334 C1336 1.420 . S
C1334 C1338 1.423 . S
C1334 C1346 1.392 . S
C1335 C1337 1.420 . S
C1335 C1338 1.351 . S
C1335 H1358 0.931 . S
C1336 C1333 1.429 . S
C1336 C1334 1.420 . S
C1336 N1344 1.362 . S
C1337 C1333 1.411 . S
C1337 C1335 1.420 . S
C1337 C1342 1.395 . S
C1338 C1334 1.423 . S
C1338 C1335 1.351 . S
C1338 H1350 0.930 . S
C1339 C1341 1.400 . S
C1339 C1342 1.386 . S
C1339 H1351 0.930 . S
N1340 C1333 1.377 . S
N1340 C1341 1.321 . S
N1340 Eu1343 2.609 . S
C1341 C1339 1.400 . S
C1341 N1340 1.321 . S
C1341 H1348 0.930 . S
C1342 C1337 1.395 . S
C1342 C1339 1.386 . S
C1342 H1361 0.930 . S
Eu1343 N1340 2.609 . S
Eu1343 N1344 2.657 . S
Eu1343 O1377 2.380 . S
Eu1343 O1378 2.432 . S
Eu1343 O1382 2.558 . S
Eu1343 O1383 2.612 . S
Eu1343 O1385 2.339 . S
Eu1343 O1386 2.563 . S
Eu1343 O1387 2.419 . S
Eu1343 C1407 2.848 . S
N1344 C1336 1.362 . S
N1344 Eu1343 2.657 . S
N1344 C1345 1.334 . S
C1345 N1344 1.334 . S
C1345 C1347 1.413 . S
C1345 H1352 0.929 . S
C1346 C1334 1.392 . S
C1346 C1347 1.367 . S
C1346 H1354 0.930 . S
C1347 C1345 1.413 . S
C1347 C1346 1.367 . S
C1347 H1349 0.930 . S
H1348 C1341 0.930 . S
H1349 C1347 0.930 . S
H1350 C1338 0.930 . S
H1351 C1339 0.930 . S
H1352 C1345 0.929 . S
H1353 C1367 0.930 . S
H1354 C1346 0.930 . S
H1355 C1373 0.930 . S
H1356 C1364 0.929 . S
H1357 C1371 0.930 . S
H1358 C1335 0.931 . S
H1359 C1365 0.930 . S
H1360 C1398 0.930 . S
H1361 C1342 0.930 . S
H1362 C1397 0.931 . S
N1363 Eu1332 2.657 . S
N1363 C1364 1.334 . S
N1363 C1368 1.362 . S
C1364 H1356 0.929 . S
C1364 N1363 1.334 . S
C1364 C1367 1.413 . S
C1365 H1359 0.930 . S
C1365 C1366 1.392 . S
C1365 C1367 1.367 . S
C1366 C1365 1.392 . S
C1366 C1368 1.420 . S
C1366 C1398 1.423 . S
C1367 H1353 0.930 . S
C1367 C1364 1.413 . S
C1367 C1365 1.367 . S
C1368 N1363 1.362 . S
C1368 C1366 1.420 . S
C1368 C1372 1.429 . S
H1369 C1374 0.930 . S
N1370 Eu1332 2.609 . S
N1370 C1372 1.377 . S
N1370 C1373 1.321 . S
C1371 H1357 0.930 . S
C1371 C1373 1.400 . S
C1371 C1374 1.386 . S
C1372 C1368 1.429 . S
C1372 N1370 1.377 . S
C1372 C1375 1.411 . S
C1373 H1355 0.930 . S
C1373 N1370 1.321 . S
C1373 C1371 1.400 . S
C1374 H1369 0.930 . S
C1374 C1371 1.386 . S
C1374 C1375 1.395 . S
C1375 C1372 1.411 . S
C1375 C1374 1.395 . S
C1375 C1397 1.420 . S
O1376 Eu1332 2.558 . S
O1376 C1396 1.257 . S
O1377 Eu1332 2.612 . S
O1377 Eu1343 2.380 . S
O1377 C1388 1.276 . S
O1378 Eu1343 2.432 . S
O1378 C1395 1.264 . S
O1379 Eu1332 2.339 . S
O1379 C1395 1.254 . S
O1380 Eu1332 2.563 . S
O1380 C1388 1.235 . S
O1381 Eu1332 2.419 . S
O1381 C1396 1.249 . S
O1382 Eu1343 2.558 . S
O1382 C1407 1.257 . S
O1383 Eu1332 2.380 . S
O1383 Eu1343 2.612 . S
O1383 C1399 1.276 . S
O1384 Eu1332 2.432 . S
O1384 C1406 1.264 . S
O1385 Eu1343 2.339 . S
O1385 C1406 1.254 . S
O1386 Eu1343 2.563 . S
O1386 C1399 1.235 . S
O1387 Eu1343 2.419 . S
O1387 C1407 1.249 . S
C1388 O1377 1.276 . S
C1388 O1380 1.235 . S
C1389 C1391 1.393 . S
C1389 C1393 1.395 . S
C1389 C1396 1.492 . S
C1390 C1391 1.392 . S
C1390 C1392 1.386 . S
C1391 C1389 1.393 . S
C1391 C1390 1.392 . S
C1391 H1408 0.930 . S
C1392 C1390 1.386 . S
C1392 C1394 1.395 . S
C1392 H1409 0.930 . S
C1393 C1389 1.395 . S
C1393 C1394 1.379 . S
C1393 H1410 0.930 . S
C1394 C1392 1.395 . S
C1394 C1393 1.379 . S
C1394 H1411 0.930 . S
C1395 O1378 1.264 . S
C1395 O1379 1.254 . S
C1396 Eu1332 2.848 . S
C1396 O1376 1.257 . S
C1396 O1381 1.249 . S
C1396 C1389 1.492 . S
C1397 H1362 0.931 . S
C1397 C1375 1.420 . S
C1397 C1398 1.351 . S
C1398 H1360 0.930 . S
C1398 C1366 1.423 . S
C1398 C1397 1.351 . S
C1399 O1383 1.276 . S
C1399 O1386 1.235 . S
C1400 C1401 1.393 . S
C1400 C1404 1.395 . S
C1400 C1407 1.492 . S
C1401 C1400 1.393 . S
C1401 C1402 1.392 . S
C1401 H1412 0.930 . S
C1402 C1401 1.392 . S
C1402 C1403 1.386 . S
C1403 C1402 1.386 . S
C1403 C1405 1.395 . S
C1403 H1413 0.930 . S
C1404 C1400 1.395 . S
C1404 C1405 1.379 . S
C1404 H1414 0.930 . S
C1405 C1403 1.395 . S
C1405 C1404 1.379 . S
C1405 H1415 0.930 . S
C1406 O1384 1.264 . S
C1406 O1385 1.254 . S
C1407 Eu1343 2.848 . S
C1407 O1382 1.257 . S
C1407 O1387 1.249 . S
C1407 C1400 1.492 . S
H1408 C1391 0.930 . S
H1409 C1392 0.930 . S
H1410 C1393 0.930 . S
H1411 C1394 0.930 . S
H1412 C1401 0.930 . S
H1413 C1403 0.930 . S
H1414 C1404 0.930 . S
H1415 C1405 0.930 . S
Eu1416 N1447 2.657 . S
Eu1416 N1454 2.609 . S
Eu1416 O1460 2.558 . S
Eu1416 O1461 2.612 . S
Eu1416 O1463 2.339 . S
Eu1416 O1464 2.563 . S
Eu1416 O1465 2.419 . S
Eu1416 O1467 2.380 . S
Eu1416 O1468 2.432 . S
Eu1416 C1480 2.848 . S
C1417 C1420 1.429 . S
C1417 C1421 1.411 . S
C1417 N1424 1.377 . S
C1418 C1420 1.420 . S
C1418 C1422 1.423 . S
C1418 C1430 1.392 . S
C1419 C1421 1.420 . S
C1419 C1422 1.351 . S
C1419 H1442 0.931 . S
C1420 C1417 1.429 . S
C1420 C1418 1.420 . S
C1420 N1428 1.362 . S
C1421 C1417 1.411 . S
C1421 C1419 1.420 . S
C1421 C1426 1.395 . S
C1422 C1418 1.423 . S
C1422 C1419 1.351 . S
C1422 H1434 0.930 . S
C1423 C1425 1.400 . S
C1423 C1426 1.386 . S
C1423 H1435 0.930 . S
N1424 C1417 1.377 . S
N1424 C1425 1.321 . S
N1424 Eu1427 2.609 . S
C1425 C1423 1.400 . S
C1425 N1424 1.321 . S
C1425 H1432 0.930 . S
C1426 C1421 1.395 . S
C1426 C1423 1.386 . S
C1426 H1445 0.930 . S
Eu1427 N1424 2.609 . S
Eu1427 N1428 2.657 . S
Eu1427 O1461 2.380 . S
Eu1427 O1462 2.432 . S
Eu1427 O1466 2.558 . S
Eu1427 O1467 2.612 . S
Eu1427 O1469 2.339 . S
Eu1427 O1470 2.563 . S
Eu1427 O1471 2.419 . S
Eu1427 C1491 2.848 . S
N1428 C1420 1.362 . S
N1428 Eu1427 2.657 . S
N1428 C1429 1.334 . S
C1429 N1428 1.334 . S
C1429 C1431 1.413 . S
C1429 H1436 0.929 . S
C1430 C1418 1.392 . S
C1430 C1431 1.367 . S
C1430 H1438 0.930 . S
C1431 C1429 1.413 . S
C1431 C1430 1.367 . S
C1431 H1433 0.930 . S
H1432 C1425 0.930 . S
H1433 C1431 0.930 . S
H1434 C1422 0.930 . S
H1435 C1423 0.930 . S
H1436 C1429 0.929 . S
H1437 C1451 0.930 . S
H1438 C1430 0.930 . S
H1439 C1457 0.930 . S
H1440 C1448 0.929 . S
H1441 C1455 0.930 . S
H1442 C1419 0.931 . S
H1443 C1449 0.930 . S
H1444 C1482 0.930 . S
H1445 C1426 0.930 . S
H1446 C1481 0.931 . S
N1447 Eu1416 2.657 . S
N1447 C1448 1.334 . S
N1447 C1452 1.362 . S
C1448 H1440 0.929 . S
C1448 N1447 1.334 . S
C1448 C1451 1.413 . S
C1449 H1443 0.930 . S
C1449 C1450 1.392 . S
C1449 C1451 1.367 . S
C1450 C1449 1.392 . S
C1450 C1452 1.420 . S
C1450 C1482 1.423 . S
C1451 H1437 0.930 . S
C1451 C1448 1.413 . S
C1451 C1449 1.367 . S
C1452 N1447 1.362 . S
C1452 C1450 1.420 . S
C1452 C1456 1.429 . S
H1453 C1458 0.930 . S
N1454 Eu1416 2.609 . S
N1454 C1456 1.377 . S
N1454 C1457 1.321 . S
C1455 H1441 0.930 . S
C1455 C1457 1.400 . S
C1455 C1458 1.386 . S
C1456 C1452 1.429 . S
C1456 N1454 1.377 . S
C1456 C1459 1.411 . S
C1457 H1439 0.930 . S
C1457 N1454 1.321 . S
C1457 C1455 1.400 . S
C1458 H1453 0.930 . S
C1458 C1455 1.386 . S
C1458 C1459 1.395 . S
C1459 C1456 1.411 . S
C1459 C1458 1.395 . S
C1459 C1481 1.420 . S
O1460 Eu1416 2.558 . S
O1460 C1480 1.257 . S
O1461 Eu1416 2.612 . S
O1461 Eu1427 2.380 . S
O1461 C1472 1.276 . S
O1462 Eu1427 2.432 . S
O1462 C1479 1.264 . S
O1463 Eu1416 2.339 . S
O1463 C1479 1.254 . S
O1464 Eu1416 2.563 . S
O1464 C1472 1.235 . S
O1465 Eu1416 2.419 . S
O1465 C1480 1.249 . S
O1466 Eu1427 2.558 . S
O1466 C1491 1.257 . S
O1467 Eu1416 2.380 . S
O1467 Eu1427 2.612 . S
O1467 C1483 1.276 . S
O1468 Eu1416 2.432 . S
O1468 C1490 1.264 . S
O1469 Eu1427 2.339 . S
O1469 C1490 1.254 . S
O1470 Eu1427 2.563 . S
O1470 C1483 1.235 . S
O1471 Eu1427 2.419 . S
O1471 C1491 1.249 . S
C1472 O1461 1.276 . S
C1472 O1464 1.235 . S
C1473 C1475 1.393 . S
C1473 C1477 1.395 . S
C1473 C1480 1.492 . S
C1474 C1475 1.392 . S
C1474 C1476 1.386 . S
C1475 C1473 1.393 . S
C1475 C1474 1.392 . S
C1475 H1492 0.930 . S
C1476 C1474 1.386 . S
C1476 C1478 1.395 . S
C1476 H1493 0.930 . S
C1477 C1473 1.395 . S
C1477 C1478 1.379 . S
C1477 H1494 0.930 . S
C1478 C1476 1.395 . S
C1478 C1477 1.379 . S
C1478 H1495 0.930 . S
C1479 O1462 1.264 . S
C1479 O1463 1.254 . S
C1480 Eu1416 2.848 . S
C1480 O1460 1.257 . S
C1480 O1465 1.249 . S
C1480 C1473 1.492 . S
C1481 H1446 0.931 . S
C1481 C1459 1.420 . S
C1481 C1482 1.351 . S
C1482 H1444 0.930 . S
C1482 C1450 1.423 . S
C1482 C1481 1.351 . S
C1483 O1467 1.276 . S
C1483 O1470 1.235 . S
C1484 C1485 1.393 . S
C1484 C1488 1.395 . S
C1484 C1491 1.492 . S
C1485 C1484 1.393 . S
C1485 C1486 1.392 . S
C1485 H1496 0.930 . S
C1486 C1485 1.392 . S
C1486 C1487 1.386 . S
C1487 C1486 1.386 . S
C1487 C1489 1.395 . S
C1487 H1497 0.930 . S
C1488 C1484 1.395 . S
C1488 C1489 1.379 . S
C1488 H1498 0.930 . S
C1489 C1487 1.395 . S
C1489 C1488 1.379 . S
C1489 H1499 0.930 . S
C1490 O1468 1.264 . S
C1490 O1469 1.254 . S
C1491 Eu1427 2.848 . S
C1491 O1466 1.257 . S
C1491 O1471 1.249 . S
C1491 C1484 1.492 . S
H1492 C1475 0.930 . S
H1493 C1476 0.930 . S
H1494 C1477 0.930 . S
H1495 C1478 0.930 . S
H1496 C1485 0.930 . S
H1497 C1487 0.930 . S
H1498 C1488 0.930 . S
H1499 C1489 0.930 . S
Eu1500 N1531 2.657 . S
Eu1500 N1538 2.609 . S
Eu1500 O1544 2.558 . S
Eu1500 O1545 2.612 . S
Eu1500 O1547 2.339 . S
Eu1500 O1548 2.563 . S
Eu1500 O1549 2.419 . S
Eu1500 O1551 2.380 . S
Eu1500 O1552 2.432 . S
Eu1500 C1564 2.848 . S
C1501 C1504 1.429 . S
C1501 C1505 1.411 . S
C1501 N1508 1.377 . S
C1502 C1504 1.420 . S
C1502 C1506 1.423 . S
C1502 C1514 1.392 . S
C1503 C1505 1.420 . S
C1503 C1506 1.351 . S
C1503 H1526 0.931 . S
C1504 C1501 1.429 . S
C1504 C1502 1.420 . S
C1504 N1512 1.362 . S
C1505 C1501 1.411 . S
C1505 C1503 1.420 . S
C1505 C1510 1.395 . S
C1506 C1502 1.423 . S
C1506 C1503 1.351 . S
C1506 H1518 0.930 . S
C1507 C1509 1.400 . S
C1507 C1510 1.386 . S
C1507 H1519 0.930 . S
N1508 C1501 1.377 . S
N1508 C1509 1.321 . S
N1508 Eu1511 2.609 . S
C1509 C1507 1.400 . S
C1509 N1508 1.321 . S
C1509 H1516 0.930 . S
C1510 C1505 1.395 . S
C1510 C1507 1.386 . S
C1510 H1529 0.930 . S
Eu1511 N1508 2.609 . S
Eu1511 N1512 2.657 . S
Eu1511 O1545 2.380 . S
Eu1511 O1546 2.432 . S
Eu1511 O1550 2.558 . S
Eu1511 O1551 2.612 . S
Eu1511 O1553 2.339 . S
Eu1511 O1554 2.563 . S
Eu1511 O1555 2.419 . S
Eu1511 C1575 2.848 . S
N1512 C1504 1.362 . S
N1512 Eu1511 2.657 . S
N1512 C1513 1.334 . S
C1513 N1512 1.334 . S
C1513 C1515 1.413 . S
C1513 H1520 0.929 . S
C1514 C1502 1.392 . S
C1514 C1515 1.367 . S
C1514 H1522 0.930 . S
C1515 C1513 1.413 . S
C1515 C1514 1.367 . S
C1515 H1517 0.930 . S
H1516 C1509 0.930 . S
H1517 C1515 0.930 . S
H1518 C1506 0.930 . S
H1519 C1507 0.930 . S
H1520 C1513 0.929 . S
H1521 C1535 0.930 . S
H1522 C1514 0.930 . S
H1523 C1541 0.930 . S
H1524 C1532 0.929 . S
H1525 C1539 0.930 . S
H1526 C1503 0.931 . S
H1527 C1533 0.930 . S
H1528 C1566 0.930 . S
H1529 C1510 0.930 . S
H1530 C1565 0.931 . S
N1531 Eu1500 2.657 . S
N1531 C1532 1.334 . S
N1531 C1536 1.362 . S
C1532 H1524 0.929 . S
C1532 N1531 1.334 . S
C1532 C1535 1.413 . S
C1533 H1527 0.930 . S
C1533 C1534 1.392 . S
C1533 C1535 1.367 . S
C1534 C1533 1.392 . S
C1534 C1536 1.420 . S
C1534 C1566 1.423 . S
C1535 H1521 0.930 . S
C1535 C1532 1.413 . S
C1535 C1533 1.367 . S
C1536 N1531 1.362 . S
C1536 C1534 1.420 . S
C1536 C1540 1.429 . S
H1537 C1542 0.930 . S
N1538 Eu1500 2.609 . S
N1538 C1540 1.377 . S
N1538 C1541 1.321 . S
C1539 H1525 0.930 . S
C1539 C1541 1.400 . S
C1539 C1542 1.386 . S
C1540 C1536 1.429 . S
C1540 N1538 1.377 . S
C1540 C1543 1.411 . S
C1541 H1523 0.930 . S
C1541 N1538 1.321 . S
C1541 C1539 1.400 . S
C1542 H1537 0.930 . S
C1542 C1539 1.386 . S
C1542 C1543 1.395 . S
C1543 C1540 1.411 . S
C1543 C1542 1.395 . S
C1543 C1565 1.420 . S
O1544 Eu1500 2.558 . S
O1544 C1564 1.257 . S
O1545 Eu1500 2.612 . S
O1545 Eu1511 2.380 . S
O1545 C1556 1.276 . S
O1546 Eu1511 2.432 . S
O1546 C1563 1.264 . S
O1547 Eu1500 2.339 . S
O1547 C1563 1.254 . S
O1548 Eu1500 2.563 . S
O1548 C1556 1.235 . S
O1549 Eu1500 2.419 . S
O1549 C1564 1.249 . S
O1550 Eu1511 2.558 . S
O1550 C1575 1.257 . S
O1551 Eu1500 2.380 . S
O1551 Eu1511 2.612 . S
O1551 C1567 1.276 . S
O1552 Eu1500 2.432 . S
O1552 C1574 1.264 . S
O1553 Eu1511 2.339 . S
O1553 C1574 1.254 . S
O1554 Eu1511 2.563 . S
O1554 C1567 1.235 . S
O1555 Eu1511 2.419 . S
O1555 C1575 1.249 . S
C1556 O1545 1.276 . S
C1556 O1548 1.235 . S
C1557 C1559 1.393 . S
C1557 C1561 1.395 . S
C1557 C1564 1.492 . S
C1558 C1559 1.392 . S
C1558 C1560 1.386 . S
C1559 C1557 1.393 . S
C1559 C1558 1.392 . S
C1559 H1576 0.930 . S
C1560 C1558 1.386 . S
C1560 C1562 1.395 . S
C1560 H1577 0.930 . S
C1561 C1557 1.395 . S
C1561 C1562 1.379 . S
C1561 H1578 0.930 . S
C1562 C1560 1.395 . S
C1562 C1561 1.379 . S
C1562 H1579 0.930 . S
C1563 O1546 1.264 . S
C1563 O1547 1.254 . S
C1564 Eu1500 2.848 . S
C1564 O1544 1.257 . S
C1564 O1549 1.249 . S
C1564 C1557 1.492 . S
C1565 H1530 0.931 . S
C1565 C1543 1.420 . S
C1565 C1566 1.351 . S
C1566 H1528 0.930 . S
C1566 C1534 1.423 . S
C1566 C1565 1.351 . S
C1567 O1551 1.276 . S
C1567 O1554 1.235 . S
C1568 C1569 1.393 . S
C1568 C1572 1.395 . S
C1568 C1575 1.492 . S
C1569 C1568 1.393 . S
C1569 C1570 1.392 . S
C1569 H1580 0.930 . S
C1570 C1569 1.392 . S
C1570 C1571 1.386 . S
C1571 C1570 1.386 . S
C1571 C1573 1.395 . S
C1571 H1581 0.930 . S
C1572 C1568 1.395 . S
C1572 C1573 1.379 . S
C1572 H1582 0.930 . S
C1573 C1571 1.395 . S
C1573 C1572 1.379 . S
C1573 H1583 0.930 . S
C1574 O1552 1.264 . S
C1574 O1553 1.254 . S
C1575 Eu1511 2.848 . S
C1575 O1550 1.257 . S
C1575 O1555 1.249 . S
C1575 C1568 1.492 . S
H1576 C1559 0.930 . S
H1577 C1560 0.930 . S
H1578 C1561 0.930 . S
H1579 C1562 0.930 . S
H1580 C1569 0.930 . S
H1581 C1571 0.930 . S
H1582 C1572 0.930 . S
H1583 C1573 0.930 . S
Eu1584 N1615 2.657 . S
Eu1584 N1622 2.609 . S
Eu1584 O1628 2.558 . S
Eu1584 O1629 2.612 . S
Eu1584 O1631 2.339 . S
Eu1584 O1632 2.563 . S
Eu1584 O1633 2.419 . S
Eu1584 O1635 2.380 . S
Eu1584 O1636 2.432 . S
Eu1584 C1648 2.848 . S
C1585 C1588 1.429 . S
C1585 C1589 1.411 . S
C1585 N1592 1.377 . S
C1586 C1588 1.420 . S
C1586 C1590 1.423 . S
C1586 C1598 1.392 . S
C1587 C1589 1.420 . S
C1587 C1590 1.351 . S
C1587 H1610 0.931 . S
C1588 C1585 1.429 . S
C1588 C1586 1.420 . S
C1588 N1596 1.362 . S
C1589 C1585 1.411 . S
C1589 C1587 1.420 . S
C1589 C1594 1.395 . S
C1590 C1586 1.423 . S
C1590 C1587 1.351 . S
C1590 H1602 0.930 . S
C1591 C1593 1.400 . S
C1591 C1594 1.386 . S
C1591 H1603 0.930 . S
N1592 C1585 1.377 . S
N1592 C1593 1.321 . S
N1592 Eu1595 2.609 . S
C1593 C1591 1.400 . S
C1593 N1592 1.321 . S
C1593 H1600 0.930 . S
C1594 C1589 1.395 . S
C1594 C1591 1.386 . S
C1594 H1613 0.930 . S
Eu1595 N1592 2.609 . S
Eu1595 N1596 2.657 . S
Eu1595 O1629 2.380 . S
Eu1595 O1630 2.432 . S
Eu1595 O1634 2.558 . S
Eu1595 O1635 2.612 . S
Eu1595 O1637 2.339 . S
Eu1595 O1638 2.563 . S
Eu1595 O1639 2.419 . S
Eu1595 C1659 2.848 . S
N1596 C1588 1.362 . S
N1596 Eu1595 2.657 . S
N1596 C1597 1.334 . S
C1597 N1596 1.334 . S
C1597 C1599 1.413 . S
C1597 H1604 0.929 . S
C1598 C1586 1.392 . S
C1598 C1599 1.367 . S
C1598 H1606 0.930 . S
C1599 C1597 1.413 . S
C1599 C1598 1.367 . S
C1599 H1601 0.930 . S
H1600 C1593 0.930 . S
H1601 C1599 0.930 . S
H1602 C1590 0.930 . S
H1603 C1591 0.930 . S
H1604 C1597 0.929 . S
H1605 C1619 0.930 . S
H1606 C1598 0.930 . S
H1607 C1625 0.930 . S
H1608 C1616 0.929 . S
H1609 C1623 0.930 . S
H1610 C1587 0.931 . S
H1611 C1617 0.930 . S
H1612 C1650 0.930 . S
H1613 C1594 0.930 . S
H1614 C1649 0.931 . S
N1615 Eu1584 2.657 . S
N1615 C1616 1.334 . S
N1615 C1620 1.362 . S
C1616 H1608 0.929 . S
C1616 N1615 1.334 . S
C1616 C1619 1.413 . S
C1617 H1611 0.930 . S
C1617 C1618 1.392 . S
C1617 C1619 1.367 . S
C1618 C1617 1.392 . S
C1618 C1620 1.420 . S
C1618 C1650 1.423 . S
C1619 H1605 0.930 . S
C1619 C1616 1.413 . S
C1619 C1617 1.367 . S
C1620 N1615 1.362 . S
C1620 C1618 1.420 . S
C1620 C1624 1.429 . S
H1621 C1626 0.930 . S
N1622 Eu1584 2.609 . S
N1622 C1624 1.377 . S
N1622 C1625 1.321 . S
C1623 H1609 0.930 . S
C1623 C1625 1.400 . S
C1623 C1626 1.386 . S
C1624 C1620 1.429 . S
C1624 N1622 1.377 . S
C1624 C1627 1.411 . S
C1625 H1607 0.930 . S
C1625 N1622 1.321 . S
C1625 C1623 1.400 . S
C1626 H1621 0.930 . S
C1626 C1623 1.386 . S
C1626 C1627 1.395 . S
C1627 C1624 1.411 . S
C1627 C1626 1.395 . S
C1627 C1649 1.420 . S
O1628 Eu1584 2.558 . S
O1628 C1648 1.257 . S
O1629 Eu1584 2.612 . S
O1629 Eu1595 2.380 . S
O1629 C1640 1.276 . S
O1630 Eu1595 2.432 . S
O1630 C1647 1.264 . S
O1631 Eu1584 2.339 . S
O1631 C1647 1.254 . S
O1632 Eu1584 2.563 . S
O1632 C1640 1.235 . S
O1633 Eu1584 2.419 . S
O1633 C1648 1.249 . S
O1634 Eu1595 2.558 . S
O1634 C1659 1.257 . S
O1635 Eu1584 2.380 . S
O1635 Eu1595 2.612 . S
O1635 C1651 1.276 . S
O1636 Eu1584 2.432 . S
O1636 C1658 1.264 . S
O1637 Eu1595 2.339 . S
O1637 C1658 1.254 . S
O1638 Eu1595 2.563 . S
O1638 C1651 1.235 . S
O1639 Eu1595 2.419 . S
O1639 C1659 1.249 . S
C1640 O1629 1.276 . S
C1640 O1632 1.235 . S
C1641 C1643 1.393 . S
C1641 C1645 1.395 . S
C1641 C1648 1.492 . S
C1642 C1643 1.392 . S
C1642 C1644 1.386 . S
C1643 C1641 1.393 . S
C1643 C1642 1.392 . S
C1643 H1660 0.930 . S
C1644 C1642 1.386 . S
C1644 C1646 1.395 . S
C1644 H1661 0.930 . S
C1645 C1641 1.395 . S
C1645 C1646 1.379 . S
C1645 H1662 0.930 . S
C1646 C1644 1.395 . S
C1646 C1645 1.379 . S
C1646 H1663 0.930 . S
C1647 O1630 1.264 . S
C1647 O1631 1.254 . S
C1648 Eu1584 2.848 . S
C1648 O1628 1.257 . S
C1648 O1633 1.249 . S
C1648 C1641 1.492 . S
C1649 H1614 0.931 . S
C1649 C1627 1.420 . S
C1649 C1650 1.351 . S
C1650 H1612 0.930 . S
C1650 C1618 1.423 . S
C1650 C1649 1.351 . S
C1651 O1635 1.276 . S
C1651 O1638 1.235 . S
C1652 C1653 1.393 . S
C1652 C1656 1.395 . S
C1652 C1659 1.492 . S
C1653 C1652 1.393 . S
C1653 C1654 1.392 . S
C1653 H1664 0.930 . S
C1654 C1653 1.392 . S
C1654 C1655 1.386 . S
C1655 C1654 1.386 . S
C1655 C1657 1.395 . S
C1655 H1665 0.930 . S
C1656 C1652 1.395 . S
C1656 C1657 1.379 . S
C1656 H1666 0.930 . S
C1657 C1655 1.395 . S
C1657 C1656 1.379 . S
C1657 H1667 0.930 . S
C1658 O1636 1.264 . S
C1658 O1637 1.254 . S
C1659 Eu1595 2.848 . S
C1659 O1634 1.257 . S
C1659 O1639 1.249 . S
C1659 C1652 1.492 . S
H1660 C1643 0.930 . S
H1661 C1644 0.930 . S
H1662 C1645 0.930 . S
H1663 C1646 0.930 . S
H1664 C1653 0.930 . S
H1665 C1655 0.930 . S
H1666 C1656 0.930 . S
H1667 C1657 0.930 . S
Eu1668 N1699 2.657 . S
Eu1668 N1706 2.609 . S
Eu1668 O1712 2.558 . S
Eu1668 O1713 2.612 . S
Eu1668 O1715 2.339 . S
Eu1668 O1716 2.563 . S
Eu1668 O1717 2.419 . S
Eu1668 O1719 2.380 . S
Eu1668 O1720 2.432 . S
Eu1668 C1732 2.848 . S
C1669 C1672 1.429 . S
C1669 C1673 1.411 . S
C1669 N1676 1.377 . S
C1670 C1672 1.420 . S
C1670 C1674 1.423 . S
C1670 C1682 1.392 . S
C1671 C1673 1.420 . S
C1671 C1674 1.351 . S
C1671 H1694 0.931 . S
C1672 C1669 1.429 . S
C1672 C1670 1.420 . S
C1672 N1680 1.362 . S
C1673 C1669 1.411 . S
C1673 C1671 1.420 . S
C1673 C1678 1.395 . S
C1674 C1670 1.423 . S
C1674 C1671 1.351 . S
C1674 H1686 0.930 . S
C1675 C1677 1.400 . S
C1675 C1678 1.386 . S
C1675 H1687 0.930 . S
N1676 C1669 1.377 . S
N1676 C1677 1.321 . S
N1676 Eu1679 2.609 . S
C1677 C1675 1.400 . S
C1677 N1676 1.321 . S
C1677 H1684 0.930 . S
C1678 C1673 1.395 . S
C1678 C1675 1.386 . S
C1678 H1697 0.930 . S
Eu1679 N1676 2.609 . S
Eu1679 N1680 2.657 . S
Eu1679 O1713 2.380 . S
Eu1679 O1714 2.432 . S
Eu1679 O1718 2.558 . S
Eu1679 O1719 2.612 . S
Eu1679 O1721 2.339 . S
Eu1679 O1722 2.563 . S
Eu1679 O1723 2.419 . S
Eu1679 C1743 2.848 . S
N1680 C1672 1.362 . S
N1680 Eu1679 2.657 . S
N1680 C1681 1.334 . S
C1681 N1680 1.334 . S
C1681 C1683 1.413 . S
C1681 H1688 0.929 . S
C1682 C1670 1.392 . S
C1682 C1683 1.367 . S
C1682 H1690 0.930 . S
C1683 C1681 1.413 . S
C1683 C1682 1.367 . S
C1683 H1685 0.930 . S
H1684 C1677 0.930 . S
H1685 C1683 0.930 . S
H1686 C1674 0.930 . S
H1687 C1675 0.930 . S
H1688 C1681 0.929 . S
H1689 C1703 0.930 . S
H1690 C1682 0.930 . S
H1691 C1709 0.930 . S
H1692 C1700 0.929 . S
H1693 C1707 0.930 . S
H1694 C1671 0.931 . S
H1695 C1701 0.930 . S
H1696 C1734 0.930 . S
H1697 C1678 0.930 . S
H1698 C1733 0.931 . S
N1699 Eu1668 2.657 . S
N1699 C1700 1.334 . S
N1699 C1704 1.362 . S
C1700 H1692 0.929 . S
C1700 N1699 1.334 . S
C1700 C1703 1.413 . S
C1701 H1695 0.930 . S
C1701 C1702 1.392 . S
C1701 C1703 1.367 . S
C1702 C1701 1.392 . S
C1702 C1704 1.420 . S
C1702 C1734 1.423 . S
C1703 H1689 0.930 . S
C1703 C1700 1.413 . S
C1703 C1701 1.367 . S
C1704 N1699 1.362 . S
C1704 C1702 1.420 . S
C1704 C1708 1.429 . S
H1705 C1710 0.930 . S
N1706 Eu1668 2.609 . S
N1706 C1708 1.377 . S
N1706 C1709 1.321 . S
C1707 H1693 0.930 . S
C1707 C1709 1.400 . S
C1707 C1710 1.386 . S
C1708 C1704 1.429 . S
C1708 N1706 1.377 . S
C1708 C1711 1.411 . S
C1709 H1691 0.930 . S
C1709 N1706 1.321 . S
C1709 C1707 1.400 . S
C1710 H1705 0.930 . S
C1710 C1707 1.386 . S
C1710 C1711 1.395 . S
C1711 C1708 1.411 . S
C1711 C1710 1.395 . S
C1711 C1733 1.420 . S
O1712 Eu1668 2.558 . S
O1712 C1732 1.257 . S
O1713 Eu1668 2.612 . S
O1713 Eu1679 2.380 . S
O1713 C1724 1.276 . S
O1714 Eu1679 2.432 . S
O1714 C1731 1.264 . S
O1715 Eu1668 2.339 . S
O1715 C1731 1.254 . S
O1716 Eu1668 2.563 . S
O1716 C1724 1.235 . S
O1717 Eu1668 2.419 . S
O1717 C1732 1.249 . S
O1718 Eu1679 2.558 . S
O1718 C1743 1.257 . S
O1719 Eu1668 2.380 . S
O1719 Eu1679 2.612 . S
O1719 C1735 1.276 . S
O1720 Eu1668 2.432 . S
O1720 C1742 1.264 . S
O1721 Eu1679 2.339 . S
O1721 C1742 1.254 . S
O1722 Eu1679 2.563 . S
O1722 C1735 1.235 . S
O1723 Eu1679 2.419 . S
O1723 C1743 1.249 . S
C1724 O1713 1.276 . S
C1724 O1716 1.235 . S
C1725 C1727 1.393 . S
C1725 C1729 1.395 . S
C1725 C1732 1.492 . S
C1726 C1727 1.392 . S
C1726 C1728 1.386 . S
C1727 C1725 1.393 . S
C1727 C1726 1.392 . S
C1727 H1744 0.930 . S
C1728 C1726 1.386 . S
C1728 C1730 1.395 . S
C1728 H1745 0.930 . S
C1729 C1725 1.395 . S
C1729 C1730 1.379 . S
C1729 H1746 0.930 . S
C1730 C1728 1.395 . S
C1730 C1729 1.379 . S
C1730 H1747 0.930 . S
C1731 O1714 1.264 . S
C1731 O1715 1.254 . S
C1732 Eu1668 2.848 . S
C1732 O1712 1.257 . S
C1732 O1717 1.249 . S
C1732 C1725 1.492 . S
C1733 H1698 0.931 . S
C1733 C1711 1.420 . S
C1733 C1734 1.351 . S
C1734 H1696 0.930 . S
C1734 C1702 1.423 . S
C1734 C1733 1.351 . S
C1735 O1719 1.276 . S
C1735 O1722 1.235 . S
C1736 C1737 1.393 . S
C1736 C1740 1.395 . S
C1736 C1743 1.492 . S
C1737 C1736 1.393 . S
C1737 C1738 1.392 . S
C1737 H1748 0.930 . S
C1738 C1737 1.392 . S
C1738 C1739 1.386 . S
C1739 C1738 1.386 . S
C1739 C1741 1.395 . S
C1739 H1749 0.930 . S
C1740 C1736 1.395 . S
C1740 C1741 1.379 . S
C1740 H1750 0.930 . S
C1741 C1739 1.395 . S
C1741 C1740 1.379 . S
C1741 H1751 0.930 . S
C1742 O1720 1.264 . S
C1742 O1721 1.254 . S
C1743 Eu1679 2.848 . S
C1743 O1718 1.257 . S
C1743 O1723 1.249 . S
C1743 C1736 1.492 . S
H1744 C1727 0.930 . S
H1745 C1728 0.930 . S
H1746 C1729 0.930 . S
H1747 C1730 0.930 . S
H1748 C1737 0.930 . S
H1749 C1739 0.930 . S
H1750 C1740 0.930 . S
H1751 C1741 0.930 . S
Eu1752 N1783 2.657 . S
Eu1752 N1790 2.609 . S
Eu1752 O1796 2.558 . S
Eu1752 O1797 2.612 . S
Eu1752 O1799 2.339 . S
Eu1752 O1800 2.563 . S
Eu1752 O1801 2.419 . S
Eu1752 O1803 2.380 . S
Eu1752 O1804 2.432 . S
Eu1752 C1816 2.848 . S
C1753 C1756 1.429 . S
C1753 C1757 1.411 . S
C1753 N1760 1.377 . S
C1754 C1756 1.420 . S
C1754 C1758 1.423 . S
C1754 C1766 1.392 . S
C1755 C1757 1.420 . S
C1755 C1758 1.351 . S
C1755 H1778 0.931 . S
C1756 C1753 1.429 . S
C1756 C1754 1.420 . S
C1756 N1764 1.362 . S
C1757 C1753 1.411 . S
C1757 C1755 1.420 . S
C1757 C1762 1.395 . S
C1758 C1754 1.423 . S
C1758 C1755 1.351 . S
C1758 H1770 0.930 . S
C1759 C1761 1.400 . S
C1759 C1762 1.386 . S
C1759 H1771 0.930 . S
N1760 C1753 1.377 . S
N1760 C1761 1.321 . S
N1760 Eu1763 2.609 . S
C1761 C1759 1.400 . S
C1761 N1760 1.321 . S
C1761 H1768 0.930 . S
C1762 C1757 1.395 . S
C1762 C1759 1.386 . S
C1762 H1781 0.930 . S
Eu1763 N1760 2.609 . S
Eu1763 N1764 2.657 . S
Eu1763 O1797 2.380 . S
Eu1763 O1798 2.432 . S
Eu1763 O1802 2.558 . S
Eu1763 O1803 2.612 . S
Eu1763 O1805 2.339 . S
Eu1763 O1806 2.563 . S
Eu1763 O1807 2.419 . S
Eu1763 C1827 2.848 . S
N1764 C1756 1.362 . S
N1764 Eu1763 2.657 . S
N1764 C1765 1.334 . S
C1765 N1764 1.334 . S
C1765 C1767 1.413 . S
C1765 H1772 0.929 . S
C1766 C1754 1.392 . S
C1766 C1767 1.367 . S
C1766 H1774 0.930 . S
C1767 C1765 1.413 . S
C1767 C1766 1.367 . S
C1767 H1769 0.930 . S
H1768 C1761 0.930 . S
H1769 C1767 0.930 . S
H1770 C1758 0.930 . S
H1771 C1759 0.930 . S
H1772 C1765 0.929 . S
H1773 C1787 0.930 . S
H1774 C1766 0.930 . S
H1775 C1793 0.930 . S
H1776 C1784 0.929 . S
H1777 C1791 0.930 . S
H1778 C1755 0.931 . S
H1779 C1785 0.930 . S
H1780 C1818 0.930 . S
H1781 C1762 0.930 . S
H1782 C1817 0.931 . S
N1783 Eu1752 2.657 . S
N1783 C1784 1.334 . S
N1783 C1788 1.362 . S
C1784 H1776 0.929 . S
C1784 N1783 1.334 . S
C1784 C1787 1.413 . S
C1785 H1779 0.930 . S
C1785 C1786 1.392 . S
C1785 C1787 1.367 . S
C1786 C1785 1.392 . S
C1786 C1788 1.420 . S
C1786 C1818 1.423 . S
C1787 H1773 0.930 . S
C1787 C1784 1.413 . S
C1787 C1785 1.367 . S
C1788 N1783 1.362 . S
C1788 C1786 1.420 . S
C1788 C1792 1.429 . S
H1789 C1794 0.930 . S
N1790 Eu1752 2.609 . S
N1790 C1792 1.377 . S
N1790 C1793 1.321 . S
C1791 H1777 0.930 . S
C1791 C1793 1.400 . S
C1791 C1794 1.386 . S
C1792 C1788 1.429 . S
C1792 N1790 1.377 . S
C1792 C1795 1.411 . S
C1793 H1775 0.930 . S
C1793 N1790 1.321 . S
C1793 C1791 1.400 . S
C1794 H1789 0.930 . S
C1794 C1791 1.386 . S
C1794 C1795 1.395 . S
C1795 C1792 1.411 . S
C1795 C1794 1.395 . S
C1795 C1817 1.420 . S
O1796 Eu1752 2.558 . S
O1796 C1816 1.257 . S
O1797 Eu1752 2.612 . S
O1797 Eu1763 2.380 . S
O1797 C1808 1.276 . S
O1798 Eu1763 2.432 . S
O1798 C1815 1.264 . S
O1799 Eu1752 2.339 . S
O1799 C1815 1.254 . S
O1800 Eu1752 2.563 . S
O1800 C1808 1.235 . S
O1801 Eu1752 2.419 . S
O1801 C1816 1.249 . S
O1802 Eu1763 2.558 . S
O1802 C1827 1.257 . S
O1803 Eu1752 2.380 . S
O1803 Eu1763 2.612 . S
O1803 C1819 1.276 . S
O1804 Eu1752 2.432 . S
O1804 C1826 1.264 . S
O1805 Eu1763 2.339 . S
O1805 C1826 1.254 . S
O1806 Eu1763 2.563 . S
O1806 C1819 1.235 . S
O1807 Eu1763 2.419 . S
O1807 C1827 1.249 . S
C1808 O1797 1.276 . S
C1808 O1800 1.235 . S
C1809 C1811 1.393 . S
C1809 C1813 1.395 . S
C1809 C1816 1.492 . S
C1810 C1811 1.392 . S
C1810 C1812 1.386 . S
C1811 C1809 1.393 . S
C1811 C1810 1.392 . S
C1811 H1828 0.930 . S
C1812 C1810 1.386 . S
C1812 C1814 1.395 . S
C1812 H1829 0.930 . S
C1813 C1809 1.395 . S
C1813 C1814 1.379 . S
C1813 H1830 0.930 . S
C1814 C1812 1.395 . S
C1814 C1813 1.379 . S
C1814 H1831 0.930 . S
C1815 O1798 1.264 . S
C1815 O1799 1.254 . S
C1816 Eu1752 2.848 . S
C1816 O1796 1.257 . S
C1816 O1801 1.249 . S
C1816 C1809 1.492 . S
C1817 H1782 0.931 . S
C1817 C1795 1.420 . S
C1817 C1818 1.351 . S
C1818 H1780 0.930 . S
C1818 C1786 1.423 . S
C1818 C1817 1.351 . S
C1819 O1803 1.276 . S
C1819 O1806 1.235 . S
C1820 C1821 1.393 . S
C1820 C1824 1.395 . S
C1820 C1827 1.492 . S
C1821 C1820 1.393 . S
C1821 C1822 1.392 . S
C1821 H1832 0.930 . S
C1822 C1821 1.392 . S
C1822 C1823 1.386 . S
C1823 C1822 1.386 . S
C1823 C1825 1.395 . S
C1823 H1833 0.930 . S
C1824 C1820 1.395 . S
C1824 C1825 1.379 . S
C1824 H1834 0.930 . S
C1825 C1823 1.395 . S
C1825 C1824 1.379 . S
C1825 H1835 0.930 . S
C1826 O1804 1.264 . S
C1826 O1805 1.254 . S
C1827 Eu1763 2.848 . S
C1827 O1802 1.257 . S
C1827 O1807 1.249 . S
C1827 C1820 1.492 . S
H1828 C1811 0.930 . S
H1829 C1812 0.930 . S
H1830 C1813 0.930 . S
H1831 C1814 0.930 . S
H1832 C1821 0.930 . S
H1833 C1823 0.930 . S
H1834 C1824 0.930 . S
H1835 C1825 0.930 . S
H1836 C1854 0.951 . S
H1837 C1856 0.951 . S
H1838 C1858 0.950 . S
H1839 C1859 0.950 . S
H1840 C1861 0.950 . S
H1841 C1864 0.950 . S
H1842 C1865 0.950 . S
H1843 C1867 0.944 1_556 S
H1844 C1868 0.950 . S
H1845 C1869 0.951 . S
H1846 C1871 0.951 . S
H1847 C1873 0.950 . S
H1848 C1874 0.950 . S
H1849 C1876 0.950 . S
H1850 C1879 0.950 . S
H1851 C1880 0.950 . S
H1852 C1882 0.950 . S
H1853 C1883 0.950 . S
C1854 H1836 0.951 . S
C1854 C1855 1.366 . S
C1854 C1856 1.388 . S
C1855 C1854 1.366 . S
C1855 C1859 1.385 . S
C1856 H1837 0.951 . S
C1856 C1854 1.388 . S
C1856 C1857 1.366 . S
C1857 C1856 1.366 . S
C1857 C1858 1.414 . S
C1857 C1860 1.499 . S
C1858 H1838 0.950 . S
C1858 C1857 1.414 . S
C1858 C1859 1.374 . S
C1859 H1839 0.950 . S
C1859 C1855 1.385 . S
C1859 C1858 1.374 . S
C1860 C1857 1.499 . S
C1860 C1861 1.373 . S
C1860 C1862 1.389 . S
C1861 H1840 0.950 . S
C1861 C1860 1.373 . S
C1861 C1877 1.377 . S
C1862 C1860 1.389 . S
C1862 C1863 1.524 . S
C1862 C1876 1.377 . S
C1863 C1862 1.524 . S
C1863 C1864 1.397 . S
C1863 C1868 1.363 . S
C1864 H1841 0.950 . S
C1864 C1863 1.397 . S
C1864 C1865 1.334 . S
C1865 H1842 0.950 . S
C1865 C1864 1.334 . S
C1865 C1866 1.287 . S
C1866 C1865 1.287 . S
C1866 C1867 1.525 . S
C1866 H1885 0.913 1_554 S
C1867 H1843 0.944 1_554 S
C1867 C1866 1.525 . S
C1867 C1868 1.420 . S
C1868 H1844 0.950 . S
C1868 C1863 1.363 . S
C1868 C1867 1.420 . S
C1869 H1845 0.951 . S
C1869 C1870 1.366 . S
C1869 C1871 1.388 . S
C1870 C1869 1.366 . S
C1870 C1874 1.385 . S
C1871 H1846 0.951 . S
C1871 C1869 1.388 . S
C1871 C1872 1.366 . S
C1872 C1871 1.366 . S
C1872 C1873 1.414 . S
C1872 C1875 1.499 . S
C1873 H1847 0.950 . S
C1873 C1872 1.414 . S
C1873 C1874 1.374 . S
C1874 H1848 0.950 . S
C1874 C1870 1.385 . S
C1874 C1873 1.374 . S
C1875 C1872 1.499 . S
C1875 C1876 1.373 . S
C1875 C1877 1.389 . S
C1876 H1849 0.950 . S
C1876 C1862 1.377 . S
C1876 C1875 1.373 . S
C1877 C1861 1.377 . S
C1877 C1875 1.389 . S
C1877 C1878 1.524 . S
C1878 C1877 1.524 . S
C1878 C1879 1.397 . S
C1878 C1883 1.363 . S
C1879 H1850 0.950 . S
C1879 C1878 1.397 . S
C1879 C1880 1.334 . S
C1880 H1851 0.950 . S
C1880 C1879 1.334 . S
C1880 C1881 1.287 . S
C1881 C1880 1.287 . S
C1881 C1882 1.524 . S
C1881 H1884 0.999 . S
C1882 H1852 0.950 . S
C1882 C1881 1.524 . S
C1882 C1883 1.415 . S
C1883 H1853 0.950 . S
C1883 C1878 1.363 . S
C1883 C1882 1.415 . S
H1884 C1881 0.999 . S
H1885 C1866 0.913 1_556 S
H1886 C1904 0.951 . S
H1887 C1906 0.951 . S
H1888 C1908 0.950 . S
H1889 C1909 0.950 . S
H1890 C1911 0.950 . S
H1891 C1914 0.950 . S
H1892 C1915 0.950 . S
H1893 C1917 0.950 . S
H1894 C1918 0.950 . S
H1895 C1919 0.951 . S
H1896 C1921 0.951 . S
H1897 C1923 0.950 . S
H1898 C1924 0.950 . S
H1899 C1926 0.950 . S
H1900 C1929 0.950 . S
H1901 C1930 0.950 . S
H1902 C1932 0.950 . S
H1903 C1933 0.950 . S
C1904 H1886 0.951 . S
C1904 C1905 1.366 . S
C1904 C1906 1.388 . S
C1905 C1904 1.366 . S
C1905 C1909 1.385 . S
C1906 H1887 0.951 . S
C1906 C1904 1.388 . S
C1906 C1907 1.366 . S
C1907 C1906 1.366 . S
C1907 C1908 1.414 . S
C1907 C1910 1.499 . S
C1908 H1888 0.950 . S
C1908 C1907 1.414 . S
C1908 C1909 1.374 . S
C1909 H1889 0.950 . S
C1909 C1905 1.385 . S
C1909 C1908 1.374 . S
C1910 C1907 1.499 . S
C1910 C1911 1.373 . S
C1910 C1912 1.389 . S
C1911 H1890 0.950 . S
C1911 C1910 1.373 . S
C1911 C1927 1.377 . S
C1912 C1910 1.389 . S
C1912 C1913 1.524 . S
C1912 C1926 1.377 . S
C1913 C1912 1.524 . S
C1913 C1914 1.397 . S
C1913 C1918 1.363 . S
C1914 H1891 0.950 . S
C1914 C1913 1.397 . S
C1914 C1915 1.334 . S
C1915 H1892 0.950 . S
C1915 C1914 1.334 . S
C1915 C1916 1.287 . S
C1916 C1915 1.287 . S
C1916 C1917 1.524 . S
C1916 H1935 0.913 . S
C1917 H1893 0.950 . S
C1917 C1916 1.524 . S
C1917 C1918 1.415 . S
C1918 H1894 0.950 . S
C1918 C1913 1.363 . S
C1918 C1917 1.415 . S
C1919 H1895 0.951 . S
C1919 C1920 1.366 . S
C1919 C1921 1.388 . S
C1920 C1919 1.366 . S
C1920 C1924 1.385 . S
C1921 H1896 0.951 . S
C1921 C1919 1.388 . S
C1921 C1922 1.366 . S
C1922 C1921 1.366 . S
C1922 C1923 1.414 . S
C1922 C1925 1.499 . S
C1923 H1897 0.950 . S
C1923 C1922 1.414 . S
C1923 C1924 1.374 . S
C1924 H1898 0.950 . S
C1924 C1920 1.385 . S
C1924 C1923 1.374 . S
C1925 C1922 1.499 . S
C1925 C1926 1.373 . S
C1925 C1927 1.389 . S
C1926 H1899 0.950 . S
C1926 C1912 1.377 . S
C1926 C1925 1.373 . S
C1927 C1911 1.377 . S
C1927 C1925 1.389 . S
C1927 C1928 1.524 . S
C1928 C1927 1.524 . S
C1928 C1929 1.397 . S
C1928 C1933 1.363 . S
C1929 H1900 0.950 . S
C1929 C1928 1.397 . S
C1929 C1930 1.334 . S
C1930 H1901 0.950 . S
C1930 C1929 1.334 . S
C1930 C1931 1.287 . S
C1931 C1930 1.287 . S
C1931 C1932 1.524 . S
C1931 H1934 0.999 . S
C1932 H1902 0.950 . S
C1932 C1931 1.524 . S
C1932 C1933 1.415 . S
C1933 H1903 0.950 . S
C1933 C1928 1.363 . S
C1933 C1932 1.415 . S
H1934 C1931 0.999 . S
H1935 C1916 0.913 . S
H1936 C1954 0.951 . S
H1937 C1956 0.951 . S
H1938 C1958 0.950 . S
H1939 C1959 0.950 . S
H1940 C1961 0.950 . S
H1941 C1964 0.950 . S
H1942 C1965 0.950 . S
H1943 C1967 0.950 . S
H1944 C1968 0.950 . S
H1945 C1969 0.951 . S
H1946 C1971 0.951 . S
H1947 C1973 0.950 . S
H1948 C1974 0.950 . S
H1949 C1976 0.950 . S
H1950 C1979 0.950 . S
H1951 C1980 0.950 . S
H1952 C1982 0.950 . S
H1953 C1983 0.950 . S
C1954 H1936 0.951 . S
C1954 C1955 1.366 . S
C1954 C1956 1.388 . S
C1955 C1954 1.366 . S
C1955 C1959 1.385 . S
C1956 H1937 0.951 . S
C1956 C1954 1.388 . S
C1956 C1957 1.366 . S
C1957 C1956 1.366 . S
C1957 C1958 1.414 . S
C1957 C1960 1.499 . S
C1958 H1938 0.950 . S
C1958 C1957 1.414 . S
C1958 C1959 1.374 . S
C1959 H1939 0.950 . S
C1959 C1955 1.385 . S
C1959 C1958 1.374 . S
C1960 C1957 1.499 . S
C1960 C1961 1.373 . S
C1960 C1962 1.389 . S
C1961 H1940 0.950 . S
C1961 C1960 1.373 . S
C1961 C1977 1.377 . S
C1962 C1960 1.389 . S
C1962 C1963 1.524 . S
C1962 C1976 1.377 . S
C1963 C1962 1.524 . S
C1963 C1964 1.397 . S
C1963 C1968 1.363 . S
C1964 H1941 0.950 . S
C1964 C1963 1.397 . S
C1964 C1965 1.334 . S
C1965 H1942 0.950 . S
C1965 C1964 1.334 . S
C1965 C1966 1.287 . S
C1966 C1965 1.287 . S
C1966 C1967 1.524 . S
C1966 H1985 0.913 . S
C1967 H1943 0.950 . S
C1967 C1966 1.524 . S
C1967 C1968 1.415 . S
C1968 H1944 0.950 . S
C1968 C1963 1.363 . S
C1968 C1967 1.415 . S
C1969 H1945 0.951 . S
C1969 C1970 1.366 . S
C1969 C1971 1.388 . S
C1970 C1969 1.366 . S
C1970 C1974 1.385 . S
C1971 H1946 0.951 . S
C1971 C1969 1.388 . S
C1971 C1972 1.366 . S
C1972 C1971 1.366 . S
C1972 C1973 1.414 . S
C1972 C1975 1.499 . S
C1973 H1947 0.950 . S
C1973 C1972 1.414 . S
C1973 C1974 1.374 . S
C1974 H1948 0.950 . S
C1974 C1970 1.385 . S
C1974 C1973 1.374 . S
C1975 C1972 1.499 . S
C1975 C1976 1.373 . S
C1975 C1977 1.389 . S
C1976 H1949 0.950 . S
C1976 C1962 1.377 . S
C1976 C1975 1.373 . S
C1977 C1961 1.377 . S
C1977 C1975 1.389 . S
C1977 C1978 1.524 . S
C1978 C1977 1.524 . S
C1978 C1979 1.397 . S
C1978 C1983 1.363 . S
C1979 H1950 0.950 . S
C1979 C1978 1.397 . S
C1979 C1980 1.334 . S
C1980 H1951 0.950 . S
C1980 C1979 1.334 . S
C1980 C1981 1.287 . S
C1981 C1980 1.287 . S
C1981 C1982 1.524 . S
C1981 H1984 0.999 . S
C1982 H1952 0.950 . S
C1982 C1981 1.524 . S
C1982 C1983 1.415 . S
C1983 H1953 0.950 . S
C1983 C1978 1.363 . S
C1983 C1982 1.415 . S
H1984 C1981 0.999 . S
H1985 C1966 0.913 . S
H1986 C2004 0.951 . S
H1987 C2006 0.951 . S
H1988 C2008 0.950 . S
H1989 C2009 0.950 . S
H1990 C2011 0.950 . S
H1991 C2014 0.950 . S
H1992 C2015 0.950 . S
H1993 C2017 0.950 . S
H1994 C2018 0.950 . S
H1995 C2019 0.965 . S
H1996 C2021 0.951 . S
H1997 C2023 0.950 . S
H1998 C2024 0.950 . S
H1999 C2026 0.950 . S
H2000 C2029 0.950 . S
H2001 C2030 0.950 . S
H2002 C2032 0.950 . S
H2003 C2033 0.937 1_556 S
C2004 H1986 0.951 . S
C2004 C2005 1.366 . S
C2004 C2006 1.388 . S
C2005 C2004 1.366 . S
C2005 C2009 1.385 . S
C2006 H1987 0.951 . S
C2006 C2004 1.388 . S
C2006 C2007 1.366 . S
C2007 C2006 1.366 . S
C2007 C2008 1.414 . S
C2007 C2010 1.499 . S
C2008 H1988 0.950 . S
C2008 C2007 1.414 . S
C2008 C2009 1.374 . S
C2009 H1989 0.950 . S
C2009 C2005 1.385 . S
C2009 C2008 1.374 . S
C2010 C2007 1.499 . S
C2010 C2011 1.373 . S
C2010 C2012 1.389 . S
C2011 H1990 0.950 . S
C2011 C2010 1.373 . S
C2011 C2027 1.377 . S
C2012 C2010 1.389 . S
C2012 C2013 1.524 . S
C2012 C2026 1.377 . S
C2013 C2012 1.524 . S
C2013 C2014 1.397 . S
C2013 C2018 1.363 . S
C2014 H1991 0.950 . S
C2014 C2013 1.397 . S
C2014 C2015 1.334 . S
C2015 H1992 0.950 . S
C2015 C2014 1.334 . S
C2015 C2016 1.287 . S
C2016 C2015 1.287 . S
C2016 C2017 1.524 . S
C2016 H2035 0.913 . S
C2017 H1993 0.950 . S
C2017 C2016 1.524 . S
C2017 C2018 1.415 . S
C2018 H1994 0.950 . S
C2018 C2013 1.363 . S
C2018 C2017 1.415 . S
C2019 H1995 0.965 . S
C2019 C2020 1.366 . S
C2019 C2021 1.388 . S
C2020 C2019 1.366 . S
C2020 C2024 1.385 . S
C2021 H1996 0.951 . S
C2021 C2019 1.388 . S
C2021 C2022 1.366 . S
C2022 C2021 1.366 . S
C2022 C2023 1.414 . S
C2022 C2025 1.499 . S
C2023 H1997 0.950 . S
C2023 C2022 1.414 . S
C2023 C2024 1.374 . S
C2024 H1998 0.950 . S
C2024 C2020 1.385 . S
C2024 C2023 1.374 . S
C2025 C2022 1.499 . S
C2025 C2026 1.373 . S
C2025 C2027 1.389 . S
C2026 H1999 0.950 . S
C2026 C2012 1.377 . S
C2026 C2025 1.373 . S
C2027 C2011 1.377 . S
C2027 C2025 1.389 . S
C2027 C2028 1.524 . S
C2028 C2027 1.524 . S
C2028 C2029 1.397 . S
C2028 C2033 1.363 1_556 S
C2029 H2000 0.950 . S
C2029 C2028 1.397 . S
C2029 C2030 1.334 1_556 S
C2030 H2001 0.950 . S
C2030 C2029 1.334 1_554 S
C2030 C2031 1.287 . S
C2031 C2030 1.287 . S
C2031 C2032 1.524 . S
C2031 H2034 0.999 . S
C2032 H2002 0.950 . S
C2032 C2031 1.524 . S
C2032 C2033 1.415 . S
C2033 H2003 0.937 1_554 S
C2033 C2028 1.363 1_554 S
C2033 C2032 1.415 . S
H2034 C2031 0.999 . S
H2035 C2016 0.913 . S
H2036 C2054 0.951 . S
H2037 C2056 0.951 . S
H2038 C2058 0.950 . S
H2039 C2059 0.950 . S
H2040 C2061 0.950 . S
H2041 C2064 0.950 . S
H2042 C2065 0.950 . S
H2043 C2067 0.950 . S
H2044 C2068 0.950 . S
H2045 C2069 0.951 . S
H2046 C2071 0.951 . S
H2047 C2073 0.950 . S
H2048 C2074 0.950 1_554 S
H2049 C2076 0.950 . S
H2050 C2079 0.950 . S
H2051 C2080 0.950 . S
H2052 C2082 0.950 . S
H2053 C2083 0.950 . S
C2054 H2036 0.951 . S
C2054 C2055 1.366 . S
C2054 C2056 1.388 . S
C2055 C2054 1.366 . S
C2055 C2059 1.385 . S
C2056 H2037 0.951 . S
C2056 C2054 1.388 . S
C2056 C2057 1.366 . S
C2057 C2056 1.366 . S
C2057 C2058 1.414 . S
C2057 C2060 1.499 . S
C2058 H2038 0.950 . S
C2058 C2057 1.414 . S
C2058 C2059 1.374 . S
C2059 H2039 0.950 . S
C2059 C2055 1.385 . S
C2059 C2058 1.374 . S
C2060 C2057 1.499 . S
C2060 C2061 1.373 . S
C2060 C2062 1.389 . S
C2061 H2040 0.950 . S
C2061 C2060 1.373 . S
C2061 C2077 1.377 . S
C2062 C2060 1.389 . S
C2062 C2063 1.524 . S
C2062 C2076 1.377 . S
C2063 C2062 1.524 . S
C2063 C2064 1.397 . S
C2063 C2068 1.363 . S
C2064 H2041 0.950 . S
C2064 C2063 1.397 . S
C2064 C2065 1.334 . S
C2065 H2042 0.950 . S
C2065 C2064 1.334 . S
C2065 C2066 1.287 . S
C2066 C2065 1.287 . S
C2066 C2067 1.524 . S
C2066 H2085 0.913 . S
C2067 H2043 0.950 . S
C2067 C2066 1.524 . S
C2067 C2068 1.415 . S
C2068 H2044 0.950 . S
C2068 C2063 1.363 . S
C2068 C2067 1.415 . S
C2069 H2045 0.951 . S
C2069 C2070 1.366 . S
C2069 C2071 1.388 . S
C2070 C2069 1.366 . S
C2070 C2074 1.385 . S
C2071 H2046 0.951 . S
C2071 C2069 1.388 . S
C2071 C2072 1.366 . S
C2072 C2071 1.366 . S
C2072 C2073 1.414 . S
C2072 C2075 1.499 . S
C2073 H2047 0.950 . S
C2073 C2072 1.414 . S
C2073 C2074 1.374 . S
C2074 H2048 0.950 1_556 S
C2074 C2070 1.385 . S
C2074 C2073 1.374 . S
C2075 C2072 1.499 . S
C2075 C2076 1.373 . S
C2075 C2077 1.389 . S
C2076 H2049 0.950 . S
C2076 C2062 1.377 . S
C2076 C2075 1.373 . S
C2077 C2061 1.377 . S
C2077 C2075 1.389 . S
C2077 C2078 1.524 . S
C2078 C2077 1.524 . S
C2078 C2079 1.397 . S
C2078 C2083 1.363 . S
C2079 H2050 0.950 . S
C2079 C2078 1.397 . S
C2079 C2080 1.334 . S
C2080 H2051 0.950 . S
C2080 C2079 1.334 . S
C2080 C2081 1.287 . S
C2081 C2080 1.287 . S
C2081 C2082 1.524 . S
C2081 H2084 0.999 . S
C2082 H2052 0.950 . S
C2082 C2081 1.524 . S
C2082 C2083 1.415 . S
C2083 H2053 0.950 . S
C2083 C2078 1.363 . S
C2083 C2082 1.415 . S
H2084 C2081 0.999 . S
H2085 C2066 0.913 . S
H2086 C2104 0.951 . S
H2087 C2106 0.951 . S
H2088 C2108 0.950 . S
H2089 C2109 0.950 . S
H2090 C2111 0.950 . S
H2091 C2114 0.950 . S
H2092 C2115 0.950 . S
H2093 C2117 0.950 . S
H2094 C2118 0.950 . S
H2095 C2119 0.951 . S
H2096 C2121 0.951 . S
H2097 C2123 0.950 . S
H2098 C2124 0.950 . S
H2099 C2126 0.950 . S
H2100 C2129 0.971 . S
H2101 C2130 0.950 . S
H2102 C2132 0.950 . S
H2103 C2133 0.950 . S
C2104 H2086 0.951 . S
C2104 C2105 1.366 . S
C2104 C2106 1.388 . S
C2105 C2104 1.366 . S
C2105 C2109 1.385 . S
C2106 H2087 0.951 . S
C2106 C2104 1.388 . S
C2106 C2107 1.366 . S
C2107 C2106 1.366 . S
C2107 C2108 1.414 . S
C2107 C2110 1.499 . S
C2108 H2088 0.950 . S
C2108 C2107 1.414 . S
C2108 C2109 1.374 . S
C2109 H2089 0.950 . S
C2109 C2105 1.385 . S
C2109 C2108 1.374 . S
C2110 C2107 1.499 . S
C2110 C2111 1.373 . S
C2110 C2112 1.389 . S
C2111 H2090 0.950 . S
C2111 C2110 1.373 . S
C2111 C2127 1.377 . S
C2112 C2110 1.389 . S
C2112 C2113 1.524 . S
C2112 C2126 1.377 . S
C2113 C2112 1.524 . S
C2113 C2114 1.397 . S
C2113 C2118 1.363 . S
C2114 H2091 0.950 . S
C2114 C2113 1.397 . S
C2114 C2115 1.334 . S
C2115 H2092 0.950 . S
C2115 C2114 1.334 . S
C2115 C2116 1.287 . S
C2116 C2115 1.287 . S
C2116 C2117 1.524 . S
C2116 H2135 0.913 . S
C2117 H2093 0.950 . S
C2117 C2116 1.524 . S
C2117 C2118 1.415 . S
C2118 H2094 0.950 . S
C2118 C2113 1.363 . S
C2118 C2117 1.415 . S
C2119 H2095 0.951 . S
C2119 C2120 1.366 . S
C2119 C2121 1.388 . S
C2120 C2119 1.366 . S
C2120 C2124 1.385 . S
C2121 H2096 0.951 . S
C2121 C2119 1.388 . S
C2121 C2122 1.366 . S
C2122 C2121 1.366 . S
C2122 C2123 1.414 . S
C2122 C2125 1.499 . S
C2123 H2097 0.950 . S
C2123 C2122 1.414 . S
C2123 C2124 1.374 . S
C2124 H2098 0.950 . S
C2124 C2120 1.385 . S
C2124 C2123 1.374 . S
C2125 C2122 1.499 . S
C2125 C2126 1.373 . S
C2125 C2127 1.389 . S
C2126 H2099 0.950 . S
C2126 C2112 1.377 . S
C2126 C2125 1.373 . S
C2127 C2111 1.377 . S
C2127 C2125 1.389 . S
C2127 C2128 1.524 . S
C2128 C2127 1.524 . S
C2128 C2129 1.397 1_556 S
C2128 C2133 1.363 . S
C2129 H2100 0.971 . S
C2129 C2128 1.397 1_554 S
C2129 C2130 1.334 . S
C2130 H2101 0.950 . S
C2130 C2129 1.334 . S
C2130 C2131 1.287 . S
C2131 C2130 1.287 . S
C2131 C2132 1.524 . S
C2131 H2134 0.999 . S
C2132 H2102 0.950 . S
C2132 C2131 1.524 . S
C2132 C2133 1.415 1_554 S
C2133 H2103 0.950 . S
C2133 C2128 1.363 . S
C2133 C2132 1.415 1_556 S
H2134 C2131 0.999 . S
H2135 C2116 0.913 . S
H2136 C2154 0.951 . S
H2137 C2156 0.951 . S
H2138 C2158 0.950 . S
H2139 C2159 0.950 . S
H2140 C2161 0.950 . S
H2141 C2164 0.950 . S
H2142 C2165 0.950 . S
H2143 C2167 0.950 . S
H2144 C2168 0.950 . S
H2145 C2169 0.951 . S
H2146 C2171 0.951 . S
H2147 C2173 0.950 . S
H2148 C2174 0.950 . S
H2149 C2176 0.950 . S
H2150 C2179 0.950 . S
H2151 C2180 0.950 . S
H2152 C2182 0.950 . S
H2153 C2183 0.950 . S
C2154 H2136 0.951 . S
C2154 C2155 1.366 . S
C2154 C2156 1.388 . S
C2155 C2154 1.366 . S
C2155 C2159 1.385 . S
C2156 H2137 0.951 . S
C2156 C2154 1.388 . S
C2156 C2157 1.366 . S
C2157 C2156 1.366 . S
C2157 C2158 1.414 . S
C2157 C2160 1.499 . S
C2158 H2138 0.950 . S
C2158 C2157 1.414 . S
C2158 C2159 1.374 . S
C2159 H2139 0.950 . S
C2159 C2155 1.385 . S
C2159 C2158 1.374 . S
C2160 C2157 1.499 . S
C2160 C2161 1.373 . S
C2160 C2162 1.389 . S
C2161 H2140 0.950 . S
C2161 C2160 1.373 . S
C2161 C2177 1.377 . S
C2162 C2160 1.389 . S
C2162 C2163 1.524 . S
C2162 C2176 1.377 . S
C2163 C2162 1.524 . S
C2163 C2164 1.397 . S
C2163 C2168 1.363 . S
C2164 H2141 0.950 . S
C2164 C2163 1.397 . S
C2164 C2165 1.334 . S
C2165 H2142 0.950 . S
C2165 C2164 1.334 . S
C2165 C2166 1.287 . S
C2166 C2165 1.287 . S
C2166 C2167 1.524 . S
C2166 H2185 0.913 . S
C2167 H2143 0.950 . S
C2167 C2166 1.524 . S
C2167 C2168 1.415 . S
C2168 H2144 0.950 . S
C2168 C2163 1.363 . S
C2168 C2167 1.415 . S
C2169 H2145 0.951 . S
C2169 C2170 1.366 . S
C2169 C2171 1.388 . S
C2170 C2169 1.366 . S
C2170 C2174 1.385 . S
C2171 H2146 0.951 . S
C2171 C2169 1.388 . S
C2171 C2172 1.366 . S
C2172 C2171 1.366 . S
C2172 C2173 1.414 . S
C2172 C2175 1.499 . S
C2173 H2147 0.950 . S
C2173 C2172 1.414 . S
C2173 C2174 1.374 . S
C2174 H2148 0.950 . S
C2174 C2170 1.385 . S
C2174 C2173 1.374 . S
C2175 C2172 1.499 . S
C2175 C2176 1.373 . S
C2175 C2177 1.389 . S
C2176 H2149 0.950 . S
C2176 C2162 1.377 . S
C2176 C2175 1.373 . S
C2177 C2161 1.377 . S
C2177 C2175 1.389 . S
C2177 C2178 1.524 . S
C2178 C2177 1.524 . S
C2178 C2179 1.397 . S
C2178 C2183 1.363 . S
C2179 H2150 0.950 . S
C2179 C2178 1.397 . S
C2179 C2180 1.334 . S
C2180 H2151 0.950 . S
C2180 C2179 1.334 . S
C2180 C2181 1.287 . S
C2181 C2180 1.287 . S
C2181 C2182 1.524 . S
C2181 H2184 0.999 . S
C2182 H2152 0.950 . S
C2182 C2181 1.524 . S
C2182 C2183 1.415 . S
C2183 H2153 0.950 . S
C2183 C2178 1.363 . S
C2183 C2182 1.415 . S
H2184 C2181 0.999 . S
H2185 C2166 0.913 . S
H2186 C2204 0.951 . S
H2187 C2206 0.951 . S
H2188 C2208 0.950 . S
H2189 C2209 0.950 . S
H2190 C2211 0.950 . S
H2191 C2214 0.950 . S
H2192 C2215 0.950 . S
H2193 C2217 0.950 . S
H2194 C2218 0.950 . S
H2195 C2219 0.984 . S
H2196 C2221 0.951 . S
H2197 C2223 0.950 . S
H2198 C2224 0.950 . S
H2199 C2226 0.950 . S
H2200 C2229 0.950 . S
H2201 C2230 0.950 . S
H2202 C2232 0.950 . S
H2203 C2233 0.942 1_556 S
C2204 H2186 0.951 . S
C2204 C2205 1.366 . S
C2204 C2206 1.388 . S
C2205 C2204 1.366 . S
C2205 C2209 1.385 . S
C2206 H2187 0.951 . S
C2206 C2204 1.388 . S
C2206 C2207 1.366 . S
C2207 C2206 1.366 . S
C2207 C2208 1.414 . S
C2207 C2210 1.499 . S
C2208 H2188 0.950 . S
C2208 C2207 1.414 . S
C2208 C2209 1.374 . S
C2209 H2189 0.950 . S
C2209 C2205 1.385 . S
C2209 C2208 1.374 . S
C2210 C2207 1.499 . S
C2210 C2211 1.373 . S
C2210 C2212 1.389 . S
C2211 H2190 0.950 . S
C2211 C2210 1.373 . S
C2211 C2227 1.377 . S
C2212 C2210 1.389 . S
C2212 C2213 1.524 . S
C2212 C2226 1.377 . S
C2213 C2212 1.524 . S
C2213 C2214 1.397 . S
C2213 C2218 1.363 . S
C2214 H2191 0.950 . S
C2214 C2213 1.397 . S
C2214 C2215 1.334 . S
C2215 H2192 0.950 . S
C2215 C2214 1.334 . S
C2215 C2216 1.287 . S
C2216 C2215 1.287 . S
C2216 C2217 1.524 . S
C2216 H2235 0.913 . S
C2217 H2193 0.950 . S
C2217 C2216 1.524 . S
C2217 C2218 1.415 . S
C2218 H2194 0.950 . S
C2218 C2213 1.363 . S
C2218 C2217 1.415 . S
C2219 H2195 0.984 . S
C2219 C2220 1.366 . S
C2219 C2221 1.388 . S
C2220 C2219 1.366 . S
C2220 C2224 1.385 . S
C2221 H2196 0.951 . S
C2221 C2219 1.388 . S
C2221 C2222 1.366 . S
C2222 C2221 1.366 . S
C2222 C2223 1.414 . S
C2222 C2225 1.499 . S
C2223 H2197 0.950 . S
C2223 C2222 1.414 . S
C2223 C2224 1.374 . S
C2224 H2198 0.950 . S
C2224 C2220 1.385 . S
C2224 C2223 1.374 . S
C2225 C2222 1.499 . S
C2225 C2226 1.373 . S
C2225 C2227 1.389 . S
C2226 H2199 0.950 . S
C2226 C2212 1.377 . S
C2226 C2225 1.373 . S
C2227 C2211 1.377 . S
C2227 C2225 1.389 . S
C2227 C2228 1.524 . S
C2228 C2227 1.524 . S
C2228 C2229 1.397 . S
C2228 C2233 1.341 1_556 S
C2229 H2200 0.950 . S
C2229 C2228 1.397 . S
C2229 C2230 1.334 1_556 S
C2230 H2201 0.950 . S
C2230 C2229 1.334 1_554 S
C2230 C2231 1.287 . S
C2231 C2230 1.287 . S
C2231 C2232 1.524 . S
C2231 H2234 0.999 . S
C2232 H2202 0.950 . S
C2232 C2231 1.524 . S
C2232 C2233 1.446 . S
C2233 H2203 0.942 1_554 S
C2233 C2228 1.341 1_554 S
C2233 C2232 1.446 . S
H2234 C2231 0.999 . S
H2235 C2216 0.913 . S
H2236 C2254 0.951 . S
H2237 C2256 0.951 . S
H2238 C2258 0.950 . S
H2239 C2259 0.950 . S
H2240 C2261 0.950 . S
H2241 C2264 0.950 . S
H2242 C2265 0.950 . S
H2243 C2267 0.950 . S
H2244 C2268 0.950 . S
H2245 C2269 0.951 . S
H2246 C2271 0.951 . S
H2247 C2273 0.950 . S
H2248 C2274 0.950 . S
H2249 C2276 0.950 . S
H2250 C2279 0.950 . S
H2251 C2280 0.950 . S
H2252 C2282 0.950 . S
H2253 C2283 0.950 . S
C2254 H2236 0.951 . S
C2254 C2255 1.366 . S
C2254 C2256 1.388 . S
C2255 C2254 1.366 . S
C2255 C2259 1.385 . S
C2256 H2237 0.951 . S
C2256 C2254 1.388 . S
C2256 C2257 1.366 . S
C2257 C2256 1.366 . S
C2257 C2258 1.414 . S
C2257 C2260 1.499 . S
C2258 H2238 0.950 . S
C2258 C2257 1.414 . S
C2258 C2259 1.374 . S
C2259 H2239 0.950 . S
C2259 C2255 1.385 . S
C2259 C2258 1.374 . S
C2260 C2257 1.499 . S
C2260 C2261 1.373 . S
C2260 C2262 1.389 . S
C2261 H2240 0.950 . S
C2261 C2260 1.373 . S
C2261 C2277 1.377 . S
C2262 C2260 1.389 . S
C2262 C2263 1.524 . S
C2262 C2276 1.377 . S
C2263 C2262 1.524 . S
C2263 C2264 1.397 . S
C2263 C2268 1.363 . S
C2264 H2241 0.950 . S
C2264 C2263 1.397 . S
C2264 C2265 1.334 . S
C2265 H2242 0.950 . S
C2265 C2264 1.334 . S
C2265 C2266 1.287 1_556 S
C2266 C2265 1.287 1_554 S
C2266 C2267 1.524 . S
C2266 H2285 0.913 . S
C2267 H2243 0.950 . S
C2267 C2266 1.524 . S
C2267 C2268 1.415 1_554 S
C2268 H2244 0.950 . S
C2268 C2263 1.363 . S
C2268 C2267 1.415 1_556 S
C2269 H2245 0.951 . S
C2269 C2270 1.366 . S
C2269 C2271 1.388 . S
C2270 C2269 1.366 . S
C2270 C2274 1.385 . S
C2271 H2246 0.951 . S
C2271 C2269 1.388 . S
C2271 C2272 1.366 . S
C2272 C2271 1.366 . S
C2272 C2273 1.414 . S
C2272 C2275 1.499 . S
C2273 H2247 0.950 . S
C2273 C2272 1.414 . S
C2273 C2274 1.374 . S
C2274 H2248 0.950 . S
C2274 C2270 1.385 . S
C2274 C2273 1.374 . S
C2275 C2272 1.499 . S
C2275 C2276 1.373 . S
C2275 C2277 1.389 . S
C2276 H2249 0.950 . S
C2276 C2262 1.377 . S
C2276 C2275 1.373 . S
C2277 C2261 1.377 . S
C2277 C2275 1.389 . S
C2277 C2278 1.524 . S
C2278 C2277 1.524 . S
C2278 C2279 1.397 . S
C2278 C2283 1.363 . S
C2279 H2250 0.950 . S
C2279 C2278 1.397 . S
C2279 C2280 1.334 . S
C2280 H2251 0.950 . S
C2280 C2279 1.334 . S
C2280 C2281 1.287 . S
C2281 C2280 1.287 . S
C2281 C2282 1.524 . S
C2281 H2284 0.999 . S
C2282 H2252 0.950 . S
C2282 C2281 1.524 . S
C2282 C2283 1.415 . S
C2283 H2253 0.950 . S
C2283 C2278 1.363 . S
C2283 C2282 1.415 . S
H2284 C2281 0.999 . S
H2285 C2266 0.913 . S
H2286 C2304 0.951 . S
H2287 C2306 0.951 . S
H2288 C2308 0.950 . S
H2289 C2309 0.950 . S
H2290 C2311 0.950 . S
H2291 C2314 0.950 . S
H2292 C2315 0.950 . S
H2293 C2317 0.975 . S
H2294 C2318 0.950 . S
H2295 C2319 0.951 . S
H2296 C2321 0.951 . S
H2297 C2323 0.950 . S
H2298 C2324 0.950 . S
H2299 C2326 0.950 . S
H2300 C2329 0.950 . S
H2301 C2330 0.950 . S
H2302 C2332 0.950 . S
H2303 C2333 0.950 . S
C2304 H2286 0.951 . S
C2304 C2305 1.366 . S
C2304 C2306 1.388 . S
C2305 C2304 1.366 . S
C2305 C2309 1.385 . S
C2306 H2287 0.951 . S
C2306 C2304 1.388 . S
C2306 C2307 1.366 . S
C2307 C2306 1.366 . S
C2307 C2308 1.414 . S
C2307 C2310 1.499 . S
C2308 H2288 0.950 . S
C2308 C2307 1.414 . S
C2308 C2309 1.374 . S
C2309 H2289 0.950 . S
C2309 C2305 1.385 . S
C2309 C2308 1.374 . S
C2310 C2307 1.499 . S
C2310 C2311 1.373 . S
C2310 C2312 1.389 . S
C2311 H2290 0.950 . S
C2311 C2310 1.373 . S
C2311 C2327 1.377 . S
C2312 C2310 1.389 . S
C2312 C2313 1.524 . S
C2312 C2326 1.377 . S
C2313 C2312 1.524 . S
C2313 C2314 1.397 . S
C2313 C2318 1.363 . S
C2314 H2291 0.950 . S
C2314 C2313 1.397 . S
C2314 C2315 1.334 . S
C2315 H2292 0.950 . S
C2315 C2314 1.334 . S
C2315 C2316 1.287 . S
C2316 C2315 1.287 . S
C2316 C2317 1.520 1_554 S
C2316 H2335 0.913 1_554 S
C2317 H2293 0.975 . S
C2317 C2316 1.520 1_556 S
C2317 C2318 1.391 1_556 S
C2318 H2294 0.950 . S
C2318 C2313 1.363 . S
C2318 C2317 1.391 1_554 S
C2319 H2295 0.951 . S
C2319 C2320 1.366 . S
C2319 C2321 1.388 . S
C2320 C2319 1.366 . S
C2320 C2324 1.385 . S
C2321 H2296 0.951 . S
C2321 C2319 1.388 . S
C2321 C2322 1.366 . S
C2322 C2321 1.366 . S
C2322 C2323 1.414 . S
C2322 C2325 1.499 . S
C2323 H2297 0.950 . S
C2323 C2322 1.414 . S
C2323 C2324 1.374 . S
C2324 H2298 0.950 . S
C2324 C2320 1.385 . S
C2324 C2323 1.374 . S
C2325 C2322 1.499 . S
C2325 C2326 1.373 . S
C2325 C2327 1.389 . S
C2326 H2299 0.950 . S
C2326 C2312 1.377 . S
C2326 C2325 1.373 . S
C2327 C2311 1.377 . S
C2327 C2325 1.389 . S
C2327 C2328 1.524 . S
C2328 C2327 1.524 . S
C2328 C2329 1.397 . S
C2328 C2333 1.363 . S
C2329 H2300 0.950 . S
C2329 C2328 1.397 . S
C2329 C2330 1.334 . S
C2330 H2301 0.950 . S
C2330 C2329 1.334 . S
C2330 C2331 1.287 . S
C2331 C2330 1.287 . S
C2331 C2332 1.524 . S
C2331 H2334 0.999 . S
C2332 H2302 0.950 . S
C2332 C2331 1.524 . S
C2332 C2333 1.415 . S
C2333 H2303 0.950 . S
C2333 C2328 1.363 . S
C2333 C2332 1.415 . S
H2334 C2331 0.999 . S
H2335 C2316 0.913 1_556 S
H2336 C2354 0.951 . S
H2337 C2356 0.951 . S
H2338 C2358 0.950 . S
H2339 C2359 0.950 . S
H2340 C2361 0.950 . S
H2341 C2364 0.950 . S
H2342 C2365 0.950 . S
H2343 C2367 0.950 . S
H2344 C2368 0.950 . S
H2345 C2369 0.951 . S
H2346 C2371 0.951 . S
H2347 C2373 0.950 . S
H2348 C2374 0.950 . S
H2349 C2376 0.950 . S
H2350 C2379 0.950 . S
H2351 C2380 0.962 . S
H2352 C2382 0.950 . S
H2353 C2383 0.950 . S
C2354 H2336 0.951 . S
C2354 C2355 1.366 . S
C2354 C2356 1.388 . S
C2355 C2354 1.366 . S
C2355 C2359 1.385 . S
C2356 H2337 0.951 . S
C2356 C2354 1.388 . S
C2356 C2357 1.366 . S
C2357 C2356 1.366 . S
C2357 C2358 1.414 . S
C2357 C2360 1.499 . S
C2358 H2338 0.950 . S
C2358 C2357 1.414 . S
C2358 C2359 1.374 . S
C2359 H2339 0.950 . S
C2359 C2355 1.385 . S
C2359 C2358 1.374 . S
C2360 C2357 1.499 . S
C2360 C2361 1.373 . S
C2360 C2362 1.389 . S
C2361 H2340 0.950 . S
C2361 C2360 1.373 . S
C2361 C2377 1.377 . S
C2362 C2360 1.389 . S
C2362 C2363 1.524 . S
C2362 C2376 1.377 . S
C2363 C2362 1.524 . S
C2363 C2364 1.397 . S
C2363 C2368 1.363 . S
C2364 H2341 0.950 . S
C2364 C2363 1.397 . S
C2364 C2365 1.334 . S
C2365 H2342 0.950 . S
C2365 C2364 1.334 . S
C2365 C2366 1.287 . S
C2366 C2365 1.287 . S
C2366 C2367 1.524 . S
C2366 H2385 0.913 . S
C2367 H2343 0.950 . S
C2367 C2366 1.524 . S
C2367 C2368 1.415 . S
C2368 H2344 0.950 . S
C2368 C2363 1.363 . S
C2368 C2367 1.415 . S
C2369 H2345 0.951 . S
C2369 C2370 1.366 . S
C2369 C2371 1.388 . S
C2370 C2369 1.366 . S
C2370 C2374 1.385 . S
C2371 H2346 0.951 . S
C2371 C2369 1.388 . S
C2371 C2372 1.366 . S
C2372 C2371 1.366 . S
C2372 C2373 1.414 . S
C2372 C2375 1.499 . S
C2373 H2347 0.950 . S
C2373 C2372 1.414 . S
C2373 C2374 1.374 . S
C2374 H2348 0.950 . S
C2374 C2370 1.385 . S
C2374 C2373 1.374 . S
C2375 C2372 1.499 . S
C2375 C2376 1.373 . S
C2375 C2377 1.389 . S
C2376 H2349 0.950 . S
C2376 C2362 1.377 . S
C2376 C2375 1.373 . S
C2377 C2361 1.377 . S
C2377 C2375 1.389 . S
C2377 C2378 1.524 . S
C2378 C2377 1.524 . S
C2378 C2379 1.397 . S
C2378 C2383 1.363 . S
C2379 H2350 0.950 . S
C2379 C2378 1.397 . S
C2379 C2380 1.334 . S
C2380 H2351 0.962 . S
C2380 C2379 1.334 . S
C2380 C2381 1.287 1_554 S
C2381 C2380 1.287 1_556 S
C2381 C2382 1.524 . S
C2381 H2384 0.999 . S
C2382 H2352 0.950 . S
C2382 C2381 1.524 . S
C2382 C2383 1.415 1_556 S
C2383 H2353 0.950 . S
C2383 C2378 1.363 . S
C2383 C2382 1.415 1_554 S
H2384 C2381 0.999 . S
H2385 C2366 0.913 . S
H2386 C2404 0.951 . S
H2387 C2406 0.951 . S
H2388 C2408 0.950 . S
H2389 C2409 0.950 . S
H2390 C2411 0.950 . S
H2391 C2414 0.950 . S
H2392 C2415 0.950 . S
H2393 C2417 0.950 . S
H2394 C2418 0.950 . S
H2395 C2419 0.911 1_556 S
H2396 C2421 0.951 . S
H2397 C2423 0.950 . S
H2398 C2424 0.950 . S
H2399 C2426 0.950 . S
H2400 C2429 0.950 . S
H2401 C2430 0.950 . S
H2402 C2432 0.950 . S
H2403 C2433 0.950 . S
C2404 H2386 0.951 . S
C2404 C2405 1.366 . S
C2404 C2406 1.388 . S
C2405 C2404 1.366 . S
C2405 C2409 1.385 . S
C2406 H2387 0.951 . S
C2406 C2404 1.388 . S
C2406 C2407 1.366 . S
C2407 C2406 1.366 . S
C2407 C2408 1.414 . S
C2407 C2410 1.499 . S
C2408 H2388 0.950 . S
C2408 C2407 1.414 . S
C2408 C2409 1.374 . S
C2409 H2389 0.950 . S
C2409 C2405 1.385 . S
C2409 C2408 1.374 . S
C2410 C2407 1.499 . S
C2410 C2411 1.373 . S
C2410 C2412 1.389 . S
C2411 H2390 0.950 . S
C2411 C2410 1.373 . S
C2411 C2427 1.377 . S
C2412 C2410 1.389 . S
C2412 C2413 1.524 . S
C2412 C2426 1.377 . S
C2413 C2412 1.524 . S
C2413 C2414 1.397 . S
C2413 C2418 1.363 . S
C2414 H2391 0.950 . S
C2414 C2413 1.397 . S
C2414 C2415 1.334 . S
C2415 H2392 0.950 . S
C2415 C2414 1.334 . S
C2415 C2416 1.287 . S
C2416 C2415 1.287 . S
C2416 C2417 1.524 . S
C2416 H2435 0.913 . S
C2417 H2393 0.950 . S
C2417 C2416 1.524 . S
C2417 C2418 1.415 . S
C2418 H2394 0.950 . S
C2418 C2413 1.363 . S
C2418 C2417 1.415 . S
C2419 H2395 0.911 1_554 S
C2419 C2420 1.366 . S
C2419 C2421 1.388 . S
C2420 C2419 1.366 . S
C2420 C2424 1.385 . S
C2421 H2396 0.951 . S
C2421 C2419 1.388 . S
C2421 C2422 1.366 . S
C2422 C2421 1.366 . S
C2422 C2423 1.414 . S
C2422 C2425 1.499 . S
C2423 H2397 0.950 . S
C2423 C2422 1.414 . S
C2423 C2424 1.374 . S
C2424 H2398 0.950 . S
C2424 C2420 1.385 . S
C2424 C2423 1.374 . S
C2425 C2422 1.499 . S
C2425 C2426 1.373 . S
C2425 C2427 1.389 . S
C2426 H2399 0.950 . S
C2426 C2412 1.377 . S
C2426 C2425 1.373 . S
C2427 C2411 1.377 . S
C2427 C2425 1.389 . S
C2427 C2428 1.524 . S
C2428 C2427 1.524 . S
C2428 C2429 1.397 . S
C2428 C2433 1.363 . S
C2429 H2400 0.950 . S
C2429 C2428 1.397 . S
C2429 C2430 1.334 . S
C2430 H2401 0.950 . S
C2430 C2429 1.334 . S
C2430 C2431 1.287 . S
C2431 C2430 1.287 . S
C2431 C2432 1.524 . S
C2431 H2434 0.999 . S
C2432 H2402 0.950 . S
C2432 C2431 1.524 . S
C2432 C2433 1.415 . S
C2433 H2403 0.950 . S
C2433 C2428 1.363 . S
C2433 C2432 1.415 . S
H2434 C2431 0.999 . S
H2435 C2416 0.913 . S
H2436 C2454 0.951 . S
H2437 C2456 0.951 . S
H2438 C2458 0.950 . S
H2439 C2459 0.950 . S
H2440 C2461 0.950 . S
H2441 C2464 0.950 . S
H2442 C2465 0.950 . S
H2443 C2467 0.950 . S
H2444 C2468 0.950 . S
H2445 C2469 0.951 . S
H2446 C2471 0.951 . S
H2447 C2473 0.950 . S
H2448 C2474 0.950 . S
H2449 C2476 0.950 . S
H2450 C2479 0.950 . S
H2451 C2480 0.950 . S
H2452 C2482 0.950 . S
H2453 C2483 0.950 . S
C2454 H2436 0.951 . S
C2454 C2455 1.366 . S
C2454 C2456 1.388 1_655 S
C2455 C2454 1.366 . S
C2455 C2459 1.385 . S
C2456 H2437 0.951 . S
C2456 C2454 1.388 1_455 S
C2456 C2457 1.366 . S
C2457 C2456 1.366 . S
C2457 C2458 1.414 1_455 S
C2457 C2460 1.499 . S
C2458 H2438 0.950 . S
C2458 C2457 1.414 1_655 S
C2458 C2459 1.374 . S
C2459 H2439 0.950 . S
C2459 C2455 1.385 . S
C2459 C2458 1.374 . S
C2460 C2457 1.499 . S
C2460 C2461 1.373 . S
C2460 C2462 1.389 . S
C2461 H2440 0.950 . S
C2461 C2460 1.373 . S
C2461 C2477 1.377 . S
C2462 C2460 1.389 . S
C2462 C2463 1.524 . S
C2462 C2476 1.377 . S
C2463 C2462 1.524 . S
C2463 C2464 1.397 . S
C2463 C2468 1.363 . S
C2464 H2441 0.950 . S
C2464 C2463 1.397 . S
C2464 C2465 1.334 . S
C2465 H2442 0.950 . S
C2465 C2464 1.334 . S
C2465 C2466 1.287 . S
C2466 C2465 1.287 . S
C2466 C2467 1.524 . S
C2466 H2485 0.913 . S
C2467 H2443 0.950 . S
C2467 C2466 1.524 . S
C2467 C2468 1.415 . S
C2468 H2444 0.950 . S
C2468 C2463 1.363 . S
C2468 C2467 1.415 . S
C2469 H2445 0.951 . S
C2469 C2470 1.366 . S
C2469 C2471 1.388 . S
C2470 C2469 1.366 . S
C2470 C2474 1.385 . S
C2471 H2446 0.951 . S
C2471 C2469 1.388 . S
C2471 C2472 1.366 . S
C2472 C2471 1.366 . S
C2472 C2473 1.414 . S
C2472 C2475 1.499 . S
C2473 H2447 0.950 . S
C2473 C2472 1.414 . S
C2473 C2474 1.374 . S
C2474 H2448 0.950 . S
C2474 C2470 1.385 . S
C2474 C2473 1.374 . S
C2475 C2472 1.499 . S
C2475 C2476 1.373 . S
C2475 C2477 1.389 . S
C2476 H2449 0.950 . S
C2476 C2462 1.377 . S
C2476 C2475 1.373 . S
C2477 C2461 1.377 . S
C2477 C2475 1.389 . S
C2477 C2478 1.524 . S
C2478 C2477 1.524 . S
C2478 C2479 1.397 . S
C2478 C2483 1.363 . S
C2479 H2450 0.950 . S
C2479 C2478 1.397 . S
C2479 C2480 1.334 . S
C2480 H2451 0.950 . S
C2480 C2479 1.334 . S
C2480 C2481 1.287 . S
C2481 C2480 1.287 . S
C2481 C2482 1.524 . S
C2481 H2484 0.999 . S
C2482 H2452 0.950 . S
C2482 C2481 1.524 . S
C2482 C2483 1.415 . S
C2483 H2453 0.950 . S
C2483 C2478 1.363 . S
C2483 C2482 1.415 . S
H2484 C2481 0.999 . S
H2485 C2466 0.913 . S
H2486 C2504 0.951 . S
H2487 C2506 0.951 . S
H2488 C2508 0.950 . S
H2489 C2509 0.950 . S
H2490 C2511 0.950 . S
H2491 C2514 0.950 . S
H2492 C2515 0.950 . S
H2493 C2517 0.950 . S
H2494 C2518 0.950 . S
H2495 C2519 0.951 . S
H2496 C2521 0.951 . S
H2497 C2523 0.950 . S
H2498 C2524 0.950 . S
H2499 C2526 0.950 . S
H2500 C2529 0.950 . S
H2501 C2530 0.950 . S
H2502 C2532 0.950 . S
H2503 C2533 0.950 . S
C2504 H2486 0.951 . S
C2504 C2505 1.366 . S
C2504 C2506 1.388 . S
C2505 C2504 1.366 . S
C2505 C2509 1.385 . S
C2506 H2487 0.951 . S
C2506 C2504 1.388 . S
C2506 C2507 1.366 . S
C2507 C2506 1.366 . S
C2507 C2508 1.414 . S
C2507 C2510 1.499 . S
C2508 H2488 0.950 . S
C2508 C2507 1.414 . S
C2508 C2509 1.374 . S
C2509 H2489 0.950 . S
C2509 C2505 1.385 . S
C2509 C2508 1.374 . S
C2510 C2507 1.499 . S
C2510 C2511 1.373 . S
C2510 C2512 1.389 . S
C2511 H2490 0.950 . S
C2511 C2510 1.373 . S
C2511 C2527 1.377 . S
C2512 C2510 1.389 . S
C2512 C2513 1.524 . S
C2512 C2526 1.377 . S
C2513 C2512 1.524 . S
C2513 C2514 1.397 . S
C2513 C2518 1.363 . S
C2514 H2491 0.950 . S
C2514 C2513 1.397 . S
C2514 C2515 1.334 . S
C2515 H2492 0.950 . S
C2515 C2514 1.334 . S
C2515 C2516 1.287 . S
C2516 C2515 1.287 . S
C2516 C2517 1.524 . S
C2516 H2535 0.913 . S
C2517 H2493 0.950 . S
C2517 C2516 1.524 . S
C2517 C2518 1.415 . S
C2518 H2494 0.950 . S
C2518 C2513 1.363 . S
C2518 C2517 1.415 . S
C2519 H2495 0.951 . S
C2519 C2520 1.366 . S
C2519 C2521 1.388 . S
C2520 C2519 1.366 . S
C2520 C2524 1.385 . S
C2521 H2496 0.951 . S
C2521 C2519 1.388 . S
C2521 C2522 1.366 . S
C2522 C2521 1.366 . S
C2522 C2523 1.414 . S
C2522 C2525 1.499 . S
C2523 H2497 0.950 . S
C2523 C2522 1.414 . S
C2523 C2524 1.374 . S
C2524 H2498 0.950 . S
C2524 C2520 1.385 . S
C2524 C2523 1.374 . S
C2525 C2522 1.499 . S
C2525 C2526 1.373 . S
C2525 C2527 1.389 . S
C2526 H2499 0.950 . S
C2526 C2512 1.377 . S
C2526 C2525 1.373 . S
C2527 C2511 1.377 . S
C2527 C2525 1.389 . S
C2527 C2528 1.524 . S
C2528 C2527 1.524 . S
C2528 C2529 1.397 . S
C2528 C2533 1.363 . S
C2529 H2500 0.950 . S
C2529 C2528 1.397 . S
C2529 C2530 1.334 . S
C2530 H2501 0.950 . S
C2530 C2529 1.334 . S
C2530 C2531 1.287 . S
C2531 C2530 1.287 . S
C2531 C2532 1.524 . S
C2531 H2534 0.999 . S
C2532 H2502 0.950 . S
C2532 C2531 1.524 . S
C2532 C2533 1.415 . S
C2533 H2503 0.950 . S
C2533 C2528 1.363 . S
C2533 C2532 1.415 . S
H2534 C2531 0.999 . S
H2535 C2516 0.913 . S
H2536 C2554 0.951 . S
H2537 C2556 0.951 . S
H2538 C2558 0.950 . S
H2539 C2559 0.950 . S
H2540 C2561 0.950 . S
H2541 C2564 0.950 . S
H2542 C2565 0.950 . S
H2543 C2567 0.950 . S
H2544 C2568 0.950 . S
H2545 C2569 0.951 . S
H2546 C2571 0.951 . S
H2547 C2573 0.950 . S
H2548 C2574 0.950 . S
H2549 C2576 0.950 . S
H2550 C2579 0.950 . S
H2551 C2580 0.950 . S
H2552 C2582 0.950 . S
H2553 C2583 0.950 . S
C2554 H2536 0.951 . S
C2554 C2555 1.366 . S
C2554 C2556 1.388 . S
C2555 C2554 1.366 . S
C2555 C2559 1.385 . S
C2556 H2537 0.951 . S
C2556 C2554 1.388 . S
C2556 C2557 1.366 . S
C2557 C2556 1.366 . S
C2557 C2558 1.414 . S
C2557 C2560 1.499 1_545 S
C2558 H2538 0.950 . S
C2558 C2557 1.414 . S
C2558 C2559 1.374 . S
C2559 H2539 0.950 . S
C2559 C2555 1.385 . S
C2559 C2558 1.374 . S
C2560 C2557 1.499 1_565 S
C2560 C2561 1.373 . S
C2560 C2562 1.389 . S
C2561 H2540 0.950 . S
C2561 C2560 1.373 . S
C2561 C2577 1.377 . S
C2562 C2560 1.389 . S
C2562 C2563 1.524 . S
C2562 C2576 1.377 . S
C2563 C2562 1.524 . S
C2563 C2564 1.397 . S
C2563 C2568 1.363 . S
C2564 H2541 0.950 . S
C2564 C2563 1.397 . S
C2564 C2565 1.334 . S
C2565 H2542 0.950 . S
C2565 C2564 1.334 . S
C2565 C2566 1.287 . S
C2566 C2565 1.287 . S
C2566 C2567 1.524 . S
C2566 H2585 0.913 . S
C2567 H2543 0.950 . S
C2567 C2566 1.524 . S
C2567 C2568 1.415 . S
C2568 H2544 0.950 . S
C2568 C2563 1.363 . S
C2568 C2567 1.415 . S
C2569 H2545 0.951 . S
C2569 C2570 1.366 . S
C2569 C2571 1.388 . S
C2570 C2569 1.366 . S
C2570 C2574 1.385 . S
C2571 H2546 0.951 . S
C2571 C2569 1.388 . S
C2571 C2572 1.366 . S
C2572 C2571 1.366 . S
C2572 C2573 1.414 . S
C2572 C2575 1.499 . S
C2573 H2547 0.950 . S
C2573 C2572 1.414 . S
C2573 C2574 1.374 . S
C2574 H2548 0.950 . S
C2574 C2570 1.385 . S
C2574 C2573 1.374 . S
C2575 C2572 1.499 . S
C2575 C2576 1.373 . S
C2575 C2577 1.389 . S
C2576 H2549 0.950 . S
C2576 C2562 1.377 . S
C2576 C2575 1.373 . S
C2577 C2561 1.377 . S
C2577 C2575 1.389 . S
C2577 C2578 1.524 . S
C2578 C2577 1.524 . S
C2578 C2579 1.397 . S
C2578 C2583 1.363 . S
C2579 H2550 0.950 . S
C2579 C2578 1.397 . S
C2579 C2580 1.334 . S
C2580 H2551 0.950 . S
C2580 C2579 1.334 . S
C2580 C2581 1.287 . S
C2581 C2580 1.287 . S
C2581 C2582 1.524 . S
C2581 H2584 0.999 . S
C2582 H2552 0.950 . S
C2582 C2581 1.524 . S
C2582 C2583 1.415 . S
C2583 H2553 0.950 . S
C2583 C2578 1.363 . S
C2583 C2582 1.415 . S
H2584 C2581 0.999 . S
H2585 C2566 0.913 . S
H2586 C2604 0.951 . S
H2587 C2606 0.951 . S
H2588 C2608 0.950 . S
H2589 C2609 0.950 . S
H2590 C2611 0.950 . S
H2591 C2614 0.950 . S
H2592 C2615 0.950 . S
H2593 C2617 0.950 . S
H2594 C2618 0.950 . S
H2595 C2619 0.951 . S
H2596 C2621 0.951 . S
H2597 C2623 0.950 . S
H2598 C2624 0.950 . S
H2599 C2626 0.950 . S
H2600 C2629 0.950 . S
H2601 C2630 0.950 . S
H2602 C2632 0.950 . S
H2603 C2633 0.950 . S
C2604 H2586 0.951 . S
C2604 C2605 1.366 . S
C2604 C2606 1.388 . S
C2605 C2604 1.366 . S
C2605 C2609 1.385 . S
C2606 H2587 0.951 . S
C2606 C2604 1.388 . S
C2606 C2607 1.366 . S
C2607 C2606 1.366 . S
C2607 C2608 1.414 . S
C2607 C2610 1.499 . S
C2608 H2588 0.950 . S
C2608 C2607 1.414 . S
C2608 C2609 1.374 . S
C2609 H2589 0.950 . S
C2609 C2605 1.385 . S
C2609 C2608 1.374 . S
C2610 C2607 1.499 . S
C2610 C2611 1.373 . S
C2610 C2612 1.389 . S
C2611 H2590 0.950 . S
C2611 C2610 1.373 . S
C2611 C2627 1.377 . S
C2612 C2610 1.389 . S
C2612 C2613 1.524 . S
C2612 C2626 1.377 . S
C2613 C2612 1.524 . S
C2613 C2614 1.397 . S
C2613 C2618 1.363 . S
C2614 H2591 0.950 . S
C2614 C2613 1.397 . S
C2614 C2615 1.334 . S
C2615 H2592 0.950 . S
C2615 C2614 1.334 . S
C2615 C2616 1.287 . S
C2616 C2615 1.287 . S
C2616 C2617 1.524 . S
C2616 H2635 0.913 . S
C2617 H2593 0.950 . S
C2617 C2616 1.524 . S
C2617 C2618 1.415 . S
C2618 H2594 0.950 . S
C2618 C2613 1.363 . S
C2618 C2617 1.415 . S
C2619 H2595 0.951 . S
C2619 C2620 1.366 . S
C2619 C2621 1.388 . S
C2620 C2619 1.366 . S
C2620 C2624 1.385 . S
C2621 H2596 0.951 . S
C2621 C2619 1.388 . S
C2621 C2622 1.366 . S
C2622 C2621 1.366 . S
C2622 C2623 1.414 . S
C2622 C2625 1.499 . S
C2623 H2597 0.950 . S
C2623 C2622 1.414 . S
C2623 C2624 1.374 . S
C2624 H2598 0.950 . S
C2624 C2620 1.385 . S
C2624 C2623 1.374 . S
C2625 C2622 1.499 . S
C2625 C2626 1.373 . S
C2625 C2627 1.389 . S
C2626 H2599 0.950 . S
C2626 C2612 1.377 . S
C2626 C2625 1.373 . S
C2627 C2611 1.377 . S
C2627 C2625 1.389 . S
C2627 C2628 1.524 . S
C2628 C2627 1.524 . S
C2628 C2629 1.397 . S
C2628 C2633 1.363 . S
C2629 H2600 0.950 . S
C2629 C2628 1.397 . S
C2629 C2630 1.334 . S
C2630 H2601 0.950 . S
C2630 C2629 1.334 . S
C2630 C2631 1.287 . S
C2631 C2630 1.287 . S
C2631 C2632 1.524 . S
C2631 H2634 0.999 . S
C2632 H2602 0.950 . S
C2632 C2631 1.524 . S
C2632 C2633 1.415 . S
C2633 H2603 0.950 . S
C2633 C2628 1.363 . S
C2633 C2632 1.415 . S
H2634 C2631 0.999 . S
H2635 C2616 0.913 . S
H2636 C2654 0.951 . S
H2637 C2656 0.951 . S
H2638 C2658 0.950 . S
H2639 C2659 0.950 . S
H2640 C2661 0.950 . S
H2641 C2664 0.950 . S
H2642 C2665 0.950 . S
H2643 C2667 0.950 . S
H2644 C2668 0.950 . S
H2645 C2669 0.951 . S
H2646 C2671 0.951 . S
H2647 C2673 0.950 . S
H2648 C2674 0.950 . S
H2649 C2676 0.950 . S
H2650 C2679 0.950 . S
H2651 C2680 0.950 . S
H2652 C2682 0.950 . S
H2653 C2683 0.950 . S
C2654 H2636 0.951 . S
C2654 C2655 1.366 . S
C2654 C2656 1.388 . S
C2655 C2654 1.366 . S
C2655 C2659 1.385 . S
C2656 H2637 0.951 . S
C2656 C2654 1.388 . S
C2656 C2657 1.366 . S
C2657 C2656 1.366 . S
C2657 C2658 1.414 . S
C2657 C2660 1.499 . S
C2658 H2638 0.950 . S
C2658 C2657 1.414 . S
C2658 C2659 1.374 . S
C2659 H2639 0.950 . S
C2659 C2655 1.385 . S
C2659 C2658 1.374 . S
C2660 C2657 1.499 . S
C2660 C2661 1.373 . S
C2660 C2662 1.389 . S
C2661 H2640 0.950 . S
C2661 C2660 1.373 . S
C2661 C2677 1.377 . S
C2662 C2660 1.389 . S
C2662 C2663 1.524 . S
C2662 C2676 1.377 . S
C2663 C2662 1.524 . S
C2663 C2664 1.397 . S
C2663 C2668 1.363 . S
C2664 H2641 0.950 . S
C2664 C2663 1.397 . S
C2664 C2665 1.334 . S
C2665 H2642 0.950 . S
C2665 C2664 1.334 . S
C2665 C2666 1.287 . S
C2666 C2665 1.287 . S
C2666 C2667 1.524 . S
C2666 H2685 0.913 . S
C2667 H2643 0.950 . S
C2667 C2666 1.524 . S
C2667 C2668 1.415 . S
C2668 H2644 0.950 . S
C2668 C2663 1.363 . S
C2668 C2667 1.415 . S
C2669 H2645 0.951 . S
C2669 C2670 1.366 . S
C2669 C2671 1.388 . S
C2670 C2669 1.366 . S
C2670 C2674 1.385 . S
C2671 H2646 0.951 . S
C2671 C2669 1.388 . S
C2671 C2672 1.366 . S
C2672 C2671 1.366 . S
C2672 C2673 1.414 . S
C2672 C2675 1.499 . S
C2673 H2647 0.950 . S
C2673 C2672 1.414 . S
C2673 C2674 1.374 . S
C2674 H2648 0.950 . S
C2674 C2670 1.385 . S
C2674 C2673 1.374 . S
C2675 C2672 1.499 . S
C2675 C2676 1.373 . S
C2675 C2677 1.389 . S
C2676 H2649 0.950 . S
C2676 C2662 1.377 . S
C2676 C2675 1.373 . S
C2677 C2661 1.377 . S
C2677 C2675 1.389 . S
C2677 C2678 1.524 . S
C2678 C2677 1.524 . S
C2678 C2679 1.397 . S
C2678 C2683 1.363 . S
C2679 H2650 0.950 . S
C2679 C2678 1.397 . S
C2679 C2680 1.334 . S
C2680 H2651 0.950 . S
C2680 C2679 1.334 . S
C2680 C2681 1.287 . S
C2681 C2680 1.287 . S
C2681 C2682 1.524 . S
C2681 H2684 0.999 . S
C2682 H2652 0.950 . S
C2682 C2681 1.524 . S
C2682 C2683 1.415 . S
C2683 H2653 0.950 . S
C2683 C2678 1.363 . S
C2683 C2682 1.415 . S
H2684 C2681 0.999 . S
H2685 C2666 0.913 . S
H2686 C2704 0.951 . S
H2687 C2706 0.951 . S
H2688 C2708 0.950 . S
H2689 C2709 0.950 . S
H2690 C2711 0.950 . S
H2691 C2714 0.950 . S
H2692 C2715 0.950 . S
H2693 C2717 0.950 . S
H2694 C2718 0.950 . S
H2695 C2719 0.951 . S
H2696 C2721 0.951 . S
H2697 C2723 0.950 . S
H2698 C2724 0.950 . S
H2699 C2726 0.950 . S
H2700 C2729 0.950 . S
H2701 C2730 0.950 . S
H2702 C2732 0.950 . S
H2703 C2733 0.950 . S
C2704 H2686 0.951 . S
C2704 C2705 1.366 . S
C2704 C2706 1.388 . S
C2705 C2704 1.366 . S
C2705 C2709 1.385 . S
C2706 H2687 0.951 . S
C2706 C2704 1.388 . S
C2706 C2707 1.366 . S
C2707 C2706 1.366 . S
C2707 C2708 1.414 . S
C2707 C2710 1.499 . S
C2708 H2688 0.950 . S
C2708 C2707 1.414 . S
C2708 C2709 1.374 . S
C2709 H2689 0.950 . S
C2709 C2705 1.385 . S
C2709 C2708 1.374 . S
C2710 C2707 1.499 . S
C2710 C2711 1.373 . S
C2710 C2712 1.389 . S
C2711 H2690 0.950 . S
C2711 C2710 1.373 . S
C2711 C2727 1.377 . S
C2712 C2710 1.389 . S
C2712 C2713 1.524 . S
C2712 C2726 1.377 . S
C2713 C2712 1.524 . S
C2713 C2714 1.397 . S
C2713 C2718 1.363 . S
C2714 H2691 0.950 . S
C2714 C2713 1.397 . S
C2714 C2715 1.334 . S
C2715 H2692 0.950 . S
C2715 C2714 1.334 . S
C2715 C2716 1.287 . S
C2716 C2715 1.287 . S
C2716 C2717 1.524 . S
C2716 H2735 0.913 . S
C2717 H2693 0.950 . S
C2717 C2716 1.524 . S
C2717 C2718 1.415 . S
C2718 H2694 0.950 . S
C2718 C2713 1.363 . S
C2718 C2717 1.415 . S
C2719 H2695 0.951 . S
C2719 C2720 1.366 . S
C2719 C2721 1.388 . S
C2720 C2719 1.366 . S
C2720 C2724 1.385 . S
C2721 H2696 0.951 . S
C2721 C2719 1.388 . S
C2721 C2722 1.366 . S
C2722 C2721 1.366 . S
C2722 C2723 1.414 . S
C2722 C2725 1.499 . S
C2723 H2697 0.950 . S
C2723 C2722 1.414 . S
C2723 C2724 1.374 . S
C2724 H2698 0.950 . S
C2724 C2720 1.385 . S
C2724 C2723 1.374 . S
C2725 C2722 1.499 . S
C2725 C2726 1.373 . S
C2725 C2727 1.389 . S
C2726 H2699 0.950 . S
C2726 C2712 1.377 . S
C2726 C2725 1.373 . S
C2727 C2711 1.377 . S
C2727 C2725 1.389 . S
C2727 C2728 1.524 . S
C2728 C2727 1.524 . S
C2728 C2729 1.397 . S
C2728 C2733 1.363 . S
C2729 H2700 0.950 . S
C2729 C2728 1.397 . S
C2729 C2730 1.334 . S
C2730 H2701 0.950 . S
C2730 C2729 1.334 . S
C2730 C2731 1.287 . S
C2731 C2730 1.287 . S
C2731 C2732 1.524 . S
C2731 H2734 0.999 . S
C2732 H2702 0.950 . S
C2732 C2731 1.524 . S
C2732 C2733 1.415 . S
C2733 H2703 0.950 . S
C2733 C2728 1.363 . S
C2733 C2732 1.415 . S
H2734 C2731 0.999 . S
H2735 C2716 0.913 . S
H2736 C2754 0.951 . S
H2737 C2756 0.951 . S
H2738 C2758 0.950 . S
H2739 C2759 0.950 . S
H2740 C2761 0.950 . S
H2741 C2764 0.950 . S
H2742 C2765 0.950 . S
H2743 C2767 0.950 . S
H2744 C2768 0.950 . S
H2745 C2769 0.951 . S
H2746 C2771 0.951 . S
H2747 C2773 0.950 . S
H2748 C2774 0.950 . S
H2749 C2776 0.950 . S
H2750 C2779 0.950 . S
H2751 C2780 0.950 . S
H2752 C2782 0.950 . S
H2753 C2783 0.950 . S
C2754 H2736 0.951 . S
C2754 C2755 1.366 . S
C2754 C2756 1.388 . S
C2755 C2754 1.366 . S
C2755 C2759 1.385 . S
C2756 H2737 0.951 . S
C2756 C2754 1.388 . S
C2756 C2757 1.366 . S
C2757 C2756 1.366 . S
C2757 C2758 1.414 . S
C2757 C2760 1.499 . S
C2758 H2738 0.950 . S
C2758 C2757 1.414 . S
C2758 C2759 1.374 . S
C2759 H2739 0.950 . S
C2759 C2755 1.385 . S
C2759 C2758 1.374 . S
C2760 C2757 1.499 . S
C2760 C2761 1.373 . S
C2760 C2762 1.389 . S
C2761 H2740 0.950 . S
C2761 C2760 1.373 . S
C2761 C2777 1.377 . S
C2762 C2760 1.389 . S
C2762 C2763 1.524 . S
C2762 C2776 1.377 . S
C2763 C2762 1.524 . S
C2763 C2764 1.397 . S
C2763 C2768 1.363 . S
C2764 H2741 0.950 . S
C2764 C2763 1.397 . S
C2764 C2765 1.334 . S
C2765 H2742 0.950 . S
C2765 C2764 1.334 . S
C2765 C2766 1.287 . S
C2766 C2765 1.287 . S
C2766 C2767 1.524 . S
C2766 H2785 0.913 . S
C2767 H2743 0.950 . S
C2767 C2766 1.524 . S
C2767 C2768 1.415 . S
C2768 H2744 0.950 . S
C2768 C2763 1.363 . S
C2768 C2767 1.415 . S
C2769 H2745 0.951 . S
C2769 C2770 1.366 . S
C2769 C2771 1.388 . S
C2770 C2769 1.366 . S
C2770 C2774 1.385 . S
C2771 H2746 0.951 . S
C2771 C2769 1.388 . S
C2771 C2772 1.366 . S
C2772 C2771 1.366 . S
C2772 C2773 1.414 . S
C2772 C2775 1.499 . S
C2773 H2747 0.950 . S
C2773 C2772 1.414 . S
C2773 C2774 1.374 . S
C2774 H2748 0.950 . S
C2774 C2770 1.385 . S
C2774 C2773 1.374 . S
C2775 C2772 1.499 . S
C2775 C2776 1.373 . S
C2775 C2777 1.389 . S
C2776 H2749 0.950 . S
C2776 C2762 1.377 . S
C2776 C2775 1.373 . S
C2777 C2761 1.377 . S
C2777 C2775 1.389 . S
C2777 C2778 1.524 . S
C2778 C2777 1.524 . S
C2778 C2779 1.397 . S
C2778 C2783 1.363 . S
C2779 H2750 0.950 . S
C2779 C2778 1.397 . S
C2779 C2780 1.334 . S
C2780 H2751 0.950 . S
C2780 C2779 1.334 . S
C2780 C2781 1.287 . S
C2781 C2780 1.287 . S
C2781 C2782 1.524 . S
C2781 H2784 0.999 . S
C2782 H2752 0.950 . S
C2782 C2781 1.524 . S
C2782 C2783 1.415 . S
C2783 H2753 0.950 . S
C2783 C2778 1.363 . S
C2783 C2782 1.415 . S
H2784 C2781 0.999 . S
H2785 C2766 0.913 . S
H2786 C2804 0.951 . S
H2787 C2806 0.951 . S
H2788 C2808 0.950 . S
H2789 C2809 0.950 . S
H2790 C2811 0.950 . S
H2791 C2814 0.950 . S
H2792 C2815 0.950 . S
H2793 C2817 0.950 . S
H2794 C2818 0.950 . S
H2795 C2819 0.951 . S
H2796 C2821 0.951 . S
H2797 C2823 0.950 . S
H2798 C2824 0.950 . S
H2799 C2826 0.950 . S
H2800 C2829 0.950 . S
H2801 C2830 0.950 . S
H2802 C2832 0.950 . S
H2803 C2833 0.950 . S
C2804 H2786 0.951 . S
C2804 C2805 1.366 . S
C2804 C2806 1.388 . S
C2805 C2804 1.366 . S
C2805 C2809 1.385 . S
C2806 H2787 0.951 . S
C2806 C2804 1.388 . S
C2806 C2807 1.366 . S
C2807 C2806 1.366 . S
C2807 C2808 1.414 . S
C2807 C2810 1.499 . S
C2808 H2788 0.950 . S
C2808 C2807 1.414 . S
C2808 C2809 1.374 . S
C2809 H2789 0.950 . S
C2809 C2805 1.385 . S
C2809 C2808 1.374 . S
C2810 C2807 1.499 . S
C2810 C2811 1.373 . S
C2810 C2812 1.389 . S
C2811 H2790 0.950 . S
C2811 C2810 1.373 . S
C2811 C2827 1.377 . S
C2812 C2810 1.389 . S
C2812 C2813 1.524 . S
C2812 C2826 1.377 . S
C2813 C2812 1.524 . S
C2813 C2814 1.397 . S
C2813 C2818 1.363 . S
C2814 H2791 0.950 . S
C2814 C2813 1.397 . S
C2814 C2815 1.334 . S
C2815 H2792 0.950 . S
C2815 C2814 1.334 . S
C2815 C2816 1.287 . S
C2816 C2815 1.287 . S
C2816 C2817 1.524 . S
C2816 H2835 0.913 . S
C2817 H2793 0.950 . S
C2817 C2816 1.524 . S
C2817 C2818 1.415 . S
C2818 H2794 0.950 . S
C2818 C2813 1.363 . S
C2818 C2817 1.415 . S
C2819 H2795 0.951 . S
C2819 C2820 1.366 . S
C2819 C2821 1.388 . S
C2820 C2819 1.366 . S
C2820 C2824 1.385 . S
C2821 H2796 0.951 . S
C2821 C2819 1.388 . S
C2821 C2822 1.366 . S
C2822 C2821 1.366 . S
C2822 C2823 1.414 . S
C2822 C2825 1.499 . S
C2823 H2797 0.950 . S
C2823 C2822 1.414 . S
C2823 C2824 1.374 . S
C2824 H2798 0.950 . S
C2824 C2820 1.385 . S
C2824 C2823 1.374 . S
C2825 C2822 1.499 . S
C2825 C2826 1.373 . S
C2825 C2827 1.389 . S
C2826 H2799 0.950 . S
C2826 C2812 1.377 . S
C2826 C2825 1.373 . S
C2827 C2811 1.377 . S
C2827 C2825 1.389 . S
C2827 C2828 1.524 . S
C2828 C2827 1.524 . S
C2828 C2829 1.397 . S
C2828 C2833 1.363 . S
C2829 H2800 0.950 . S
C2829 C2828 1.397 . S
C2829 C2830 1.334 . S
C2830 H2801 0.950 . S
C2830 C2829 1.334 . S
C2830 C2831 1.287 . S
C2831 C2830 1.287 . S
C2831 C2832 1.524 . S
C2831 H2834 0.999 . S
C2832 H2802 0.950 . S
C2832 C2831 1.524 . S
C2832 C2833 1.415 . S
C2833 H2803 0.950 . S
C2833 C2828 1.363 . S
C2833 C2832 1.415 . S
H2834 C2831 0.999 . S
H2835 C2816 0.913 . S
H2836 C2854 0.951 . S
H2837 C2856 0.951 . S
H2838 C2858 0.950 . S
H2839 C2859 0.950 . S
H2840 C2861 0.950 . S
H2841 C2864 0.950 . S
H2842 C2865 0.950 . S
H2843 C2867 0.950 . S
H2844 C2868 0.950 . S
H2845 C2869 0.951 . S
H2846 C2871 0.951 . S
H2847 C2873 0.950 . S
H2848 C2874 0.950 . S
H2849 C2876 0.950 . S
H2850 C2879 0.950 . S
H2851 C2880 0.950 . S
H2852 C2882 0.950 . S
H2853 C2883 0.950 . S
C2854 H2836 0.951 . S
C2854 C2855 1.366 . S
C2854 C2856 1.388 . S
C2855 C2854 1.366 . S
C2855 C2859 1.385 . S
C2856 H2837 0.951 . S
C2856 C2854 1.388 . S
C2856 C2857 1.366 . S
C2857 C2856 1.366 . S
C2857 C2858 1.414 . S
C2857 C2860 1.499 . S
C2858 H2838 0.950 . S
C2858 C2857 1.414 . S
C2858 C2859 1.374 . S
C2859 H2839 0.950 . S
C2859 C2855 1.385 . S
C2859 C2858 1.374 . S
C2860 C2857 1.499 . S
C2860 C2861 1.373 . S
C2860 C2862 1.389 . S
C2861 H2840 0.950 . S
C2861 C2860 1.373 . S
C2861 C2877 1.377 . S
C2862 C2860 1.389 . S
C2862 C2863 1.524 . S
C2862 C2876 1.377 . S
C2863 C2862 1.524 . S
C2863 C2864 1.397 . S
C2863 C2868 1.363 . S
C2864 H2841 0.950 . S
C2864 C2863 1.397 . S
C2864 C2865 1.334 . S
C2865 H2842 0.950 . S
C2865 C2864 1.334 . S
C2865 C2866 1.287 . S
C2866 C2865 1.287 . S
C2866 C2867 1.524 . S
C2866 H2885 0.913 . S
C2867 H2843 0.950 . S
C2867 C2866 1.524 . S
C2867 C2868 1.415 . S
C2868 H2844 0.950 . S
C2868 C2863 1.363 . S
C2868 C2867 1.415 . S
C2869 H2845 0.951 . S
C2869 C2870 1.366 . S
C2869 C2871 1.388 . S
C2870 C2869 1.366 . S
C2870 C2874 1.385 . S
C2871 H2846 0.951 . S
C2871 C2869 1.388 . S
C2871 C2872 1.366 . S
C2872 C2871 1.366 . S
C2872 C2873 1.414 . S
C2872 C2875 1.499 . S
C2873 H2847 0.950 . S
C2873 C2872 1.414 . S
C2873 C2874 1.374 . S
C2874 H2848 0.950 . S
C2874 C2870 1.385 . S
C2874 C2873 1.374 . S
C2875 C2872 1.499 . S
C2875 C2876 1.373 . S
C2875 C2877 1.389 . S
C2876 H2849 0.950 . S
C2876 C2862 1.377 . S
C2876 C2875 1.373 . S
C2877 C2861 1.377 . S
C2877 C2875 1.389 . S
C2877 C2878 1.524 . S
C2878 C2877 1.524 . S
C2878 C2879 1.397 . S
C2878 C2883 1.363 . S
C2879 H2850 0.950 . S
C2879 C2878 1.397 . S
C2879 C2880 1.334 . S
C2880 H2851 0.950 . S
C2880 C2879 1.334 . S
C2880 C2881 1.287 . S
C2881 C2880 1.287 . S
C2881 C2882 1.524 . S
C2881 H2884 0.999 . S
C2882 H2852 0.950 . S
C2882 C2881 1.524 . S
C2882 C2883 1.415 . S
C2883 H2853 0.950 . S
C2883 C2878 1.363 . S
C2883 C2882 1.415 . S
H2884 C2881 0.999 . S
H2885 C2866 0.913 . S
H2886 C2904 0.951 . S
H2887 C2906 0.951 1_565 S
H2888 C2908 0.950 . S
H2889 C2909 0.950 . S
H2890 C2911 0.950 . S
H2891 C2914 0.950 . S
H2892 C2915 0.950 . S
H2893 C2917 0.950 . S
H2894 C2918 0.950 . S
H2895 C2919 0.951 . S
H2896 C2921 0.951 . S
H2897 C2923 0.950 . S
H2898 C2924 0.950 . S
H2899 C2926 0.950 . S
H2900 C2929 0.950 . S
H2901 C2930 0.950 . S
H2902 C2932 0.950 . S
H2903 C2933 0.950 . S
C2904 H2886 0.951 . S
C2904 C2905 1.366 . S
C2904 C2906 1.388 . S
C2905 C2904 1.366 . S
C2905 C2909 1.385 . S
C2906 H2887 0.951 1_545 S
C2906 C2904 1.388 . S
C2906 C2907 1.365 . S
C2907 C2906 1.365 . S
C2907 C2908 1.410 . S
C2907 C2910 1.503 1_545 S
C2908 H2888 0.950 . S
C2908 C2907 1.410 . S
C2908 C2909 1.374 . S
C2909 H2889 0.950 . S
C2909 C2905 1.385 . S
C2909 C2908 1.374 . S
C2910 C2907 1.503 1_565 S
C2910 C2911 1.373 . S
C2910 C2912 1.389 . S
C2911 H2890 0.950 . S
C2911 C2910 1.373 . S
C2911 C2927 1.377 . S
C2912 C2910 1.389 . S
C2912 C2913 1.524 . S
C2912 C2926 1.377 . S
C2913 C2912 1.524 . S
C2913 C2914 1.397 . S
C2913 C2918 1.363 . S
C2914 H2891 0.950 . S
C2914 C2913 1.397 . S
C2914 C2915 1.334 . S
C2915 H2892 0.950 . S
C2915 C2914 1.334 . S
C2915 C2916 1.287 . S
C2916 C2915 1.287 . S
C2916 C2917 1.524 . S
C2916 H2935 0.913 . S
C2917 H2893 0.950 . S
C2917 C2916 1.524 . S
C2917 C2918 1.415 . S
C2918 H2894 0.950 . S
C2918 C2913 1.363 . S
C2918 C2917 1.415 . S
C2919 H2895 0.951 . S
C2919 C2920 1.366 . S
C2919 C2921 1.388 . S
C2920 C2919 1.366 . S
C2920 C2924 1.385 . S
C2921 H2896 0.951 . S
C2921 C2919 1.388 . S
C2921 C2922 1.366 . S
C2922 C2921 1.366 . S
C2922 C2923 1.414 . S
C2922 C2925 1.499 . S
C2923 H2897 0.950 . S
C2923 C2922 1.414 . S
C2923 C2924 1.374 . S
C2924 H2898 0.950 . S
C2924 C2920 1.385 . S
C2924 C2923 1.374 . S
C2925 C2922 1.499 . S
C2925 C2926 1.373 . S
C2925 C2927 1.389 . S
C2926 H2899 0.950 . S
C2926 C2912 1.377 . S
C2926 C2925 1.373 . S
C2927 C2911 1.377 . S
C2927 C2925 1.389 . S
C2927 C2928 1.524 . S
C2928 C2927 1.524 . S
C2928 C2929 1.397 . S
C2928 C2933 1.363 . S
C2929 H2900 0.950 . S
C2929 C2928 1.397 . S
C2929 C2930 1.334 . S
C2930 H2901 0.950 . S
C2930 C2929 1.334 . S
C2930 C2931 1.287 . S
C2931 C2930 1.287 . S
C2931 C2932 1.524 . S
C2931 H2934 0.999 . S
C2932 H2902 0.950 . S
C2932 C2931 1.524 . S
C2932 C2933 1.415 . S
C2933 H2903 0.950 . S
C2933 C2928 1.363 . S
C2933 C2932 1.415 . S
H2934 C2931 0.999 . S
H2935 C2916 0.913 . S
H2936 C2954 0.951 . S
H2937 C2956 0.951 . S
H2938 C2958 0.950 . S
H2939 C2959 0.950 . S
H2940 C2961 0.950 . S
H2941 C2964 0.967 1_655 S
H2942 C2965 0.950 . S
H2943 C2967 0.950 . S
H2944 C2968 0.950 . S
H2945 C2969 0.951 . S
H2946 C2971 0.951 . S
H2947 C2973 0.950 . S
H2948 C2974 0.950 . S
H2949 C2976 0.950 . S
H2950 C2979 0.950 . S
H2951 C2980 0.950 . S
H2952 C2982 0.950 . S
H2953 C2983 0.950 . S
C2954 H2936 0.951 . S
C2954 C2955 1.366 . S
C2954 C2956 1.388 1_655 S
C2955 C2954 1.366 . S
C2955 C2959 1.385 . S
C2956 H2937 0.951 . S
C2956 C2954 1.388 1_455 S
C2956 C2957 1.366 . S
C2957 C2956 1.366 . S
C2957 C2958 1.414 1_455 S
C2957 C2960 1.499 . S
C2958 H2938 0.950 . S
C2958 C2957 1.414 1_655 S
C2958 C2959 1.374 . S
C2959 H2939 0.950 . S
C2959 C2955 1.385 . S
C2959 C2958 1.374 . S
C2960 C2957 1.499 . S
C2960 C2961 1.373 . S
C2960 C2962 1.389 . S
C2961 H2940 0.950 . S
C2961 C2960 1.373 . S
C2961 C2977 1.377 . S
C2962 C2960 1.389 . S
C2962 C2963 1.524 . S
C2962 C2976 1.377 . S
C2963 C2962 1.524 . S
C2963 C2964 1.437 . S
C2963 C2968 1.363 . S
C2964 H2941 0.967 1_455 S
C2964 C2963 1.437 . S
C2964 C2965 1.280 1_455 S
C2965 H2942 0.950 . S
C2965 C2964 1.280 1_655 S
C2965 C2966 1.287 . S
C2966 C2965 1.287 . S
C2966 C2967 1.524 1_655 S
C2966 H2985 0.913 . S
C2967 H2943 0.950 . S
C2967 C2966 1.524 1_455 S
C2967 C2968 1.415 . S
C2968 H2944 0.950 . S
C2968 C2963 1.363 . S
C2968 C2967 1.415 . S
C2969 H2945 0.951 . S
C2969 C2970 1.366 . S
C2969 C2971 1.388 . S
C2970 C2969 1.366 . S
C2970 C2974 1.385 . S
C2971 H2946 0.951 . S
C2971 C2969 1.388 . S
C2971 C2972 1.366 . S
C2972 C2971 1.366 . S
C2972 C2973 1.414 . S
C2972 C2975 1.499 . S
C2973 H2947 0.950 . S
C2973 C2972 1.414 . S
C2973 C2974 1.374 . S
C2974 H2948 0.950 . S
C2974 C2970 1.385 . S
C2974 C2973 1.374 . S
C2975 C2972 1.499 . S
C2975 C2976 1.373 . S
C2975 C2977 1.389 . S
C2976 H2949 0.950 . S
C2976 C2962 1.377 . S
C2976 C2975 1.373 . S
C2977 C2961 1.377 . S
C2977 C2975 1.389 . S
C2977 C2978 1.524 . S
C2978 C2977 1.524 . S
C2978 C2979 1.397 . S
C2978 C2983 1.363 . S
C2979 H2950 0.950 . S
C2979 C2978 1.397 . S
C2979 C2980 1.334 . S
C2980 H2951 0.950 . S
C2980 C2979 1.334 . S
C2980 C2981 1.287 . S
C2981 C2980 1.287 . S
C2981 C2982 1.524 . S
C2981 H2984 0.999 . S
C2982 H2952 0.950 . S
C2982 C2981 1.524 . S
C2982 C2983 1.415 . S
C2983 H2953 0.950 . S
C2983 C2978 1.363 . S
C2983 C2982 1.415 . S
H2984 C2981 0.999 . S
H2985 C2966 0.913 . S
H2986 C3004 0.951 . S
H2987 C3006 0.951 . S
H2988 C3008 0.950 . S
H2989 C3009 0.950 . S
H2990 C3011 0.950 . S
H2991 C3014 0.950 . S
H2992 C3015 0.950 . S
H2993 C3017 0.950 . S
H2994 C3018 0.950 . S
H2995 C3019 0.951 . S
H2996 C3021 0.951 . S
H2997 C3023 0.950 . S
H2998 C3024 0.950 . S
H2999 C3026 0.950 . S
H3000 C3029 0.950 . S
H3001 C3030 0.950 . S
H3002 C3032 0.950 . S
H3003 C3033 0.950 . S
C3004 H2986 0.951 . S
C3004 C3005 1.366 . S
C3004 C3006 1.388 . S
C3005 C3004 1.366 . S
C3005 C3009 1.385 . S
C3006 H2987 0.951 . S
C3006 C3004 1.388 . S
C3006 C3007 1.366 . S
C3007 C3006 1.366 . S
C3007 C3008 1.414 . S
C3007 C3010 1.499 . S
C3008 H2988 0.950 . S
C3008 C3007 1.414 . S
C3008 C3009 1.374 . S
C3009 H2989 0.950 . S
C3009 C3005 1.385 . S
C3009 C3008 1.374 . S
C3010 C3007 1.499 . S
C3010 C3011 1.373 . S
C3010 C3012 1.389 . S
C3011 H2990 0.950 . S
C3011 C3010 1.373 . S
C3011 C3027 1.377 . S
C3012 C3010 1.389 . S
C3012 C3013 1.524 . S
C3012 C3026 1.377 . S
C3013 C3012 1.524 . S
C3013 C3014 1.397 . S
C3013 C3018 1.363 . S
C3014 H2991 0.950 . S
C3014 C3013 1.397 . S
C3014 C3015 1.334 . S
C3015 H2992 0.950 . S
C3015 C3014 1.334 . S
C3015 C3016 1.287 . S
C3016 C3015 1.287 . S
C3016 C3017 1.524 . S
C3016 H3035 0.913 . S
C3017 H2993 0.950 . S
C3017 C3016 1.524 . S
C3017 C3018 1.415 . S
C3018 H2994 0.950 . S
C3018 C3013 1.363 . S
C3018 C3017 1.415 . S
C3019 H2995 0.951 . S
C3019 C3020 1.366 . S
C3019 C3021 1.388 . S
C3020 C3019 1.366 . S
C3020 C3024 1.385 . S
C3021 H2996 0.951 . S
C3021 C3019 1.388 . S
C3021 C3022 1.366 . S
C3022 C3021 1.366 . S
C3022 C3023 1.414 . S
C3022 C3025 1.499 . S
C3023 H2997 0.950 . S
C3023 C3022 1.414 . S
C3023 C3024 1.374 . S
C3024 H2998 0.950 . S
C3024 C3020 1.385 . S
C3024 C3023 1.374 . S
C3025 C3022 1.499 . S
C3025 C3026 1.373 . S
C3025 C3027 1.389 . S
C3026 H2999 0.950 . S
C3026 C3012 1.377 . S
C3026 C3025 1.373 . S
C3027 C3011 1.377 . S
C3027 C3025 1.389 . S
C3027 C3028 1.524 . S
C3028 C3027 1.524 . S
C3028 C3029 1.397 . S
C3028 C3033 1.363 . S
C3029 H3000 0.950 . S
C3029 C3028 1.397 . S
C3029 C3030 1.334 . S
C3030 H3001 0.950 . S
C3030 C3029 1.334 . S
C3030 C3031 1.287 . S
C3031 C3030 1.287 . S
C3031 C3032 1.524 . S
C3031 H3034 0.999 . S
C3032 H3002 0.950 . S
C3032 C3031 1.524 . S
C3032 C3033 1.415 . S
C3033 H3003 0.950 . S
C3033 C3028 1.363 . S
C3033 C3032 1.415 . S
H3034 C3031 0.999 . S
H3035 C3016 0.913 . S
H3036 C3054 0.951 . S
H3037 C3056 0.951 . S
H3038 C3058 0.950 . S
H3039 C3059 0.950 . S
H3040 C3061 0.950 . S
H3041 C3064 0.950 . S
H3042 C3065 0.950 . S
H3043 C3067 0.950 . S
H3044 C3068 0.950 . S
H3045 C3069 0.951 . S
H3046 C3071 0.951 . S
H3047 C3073 0.950 . S
H3048 C3074 0.950 . S
H3049 C3076 0.950 . S
H3050 C3079 0.950 . S
H3051 C3080 0.950 . S
H3052 C3082 0.950 . S
H3053 C3083 0.950 . S
C3054 H3036 0.951 . S
C3054 C3055 1.366 . S
C3054 C3056 1.388 . S
C3055 C3054 1.366 . S
C3055 C3059 1.385 . S
C3056 H3037 0.951 . S
C3056 C3054 1.388 . S
C3056 C3057 1.366 . S
C3057 C3056 1.366 . S
C3057 C3058 1.414 . S
C3057 C3060 1.499 . S
C3058 H3038 0.950 . S
C3058 C3057 1.414 . S
C3058 C3059 1.374 . S
C3059 H3039 0.950 . S
C3059 C3055 1.385 . S
C3059 C3058 1.374 . S
C3060 C3057 1.499 . S
C3060 C3061 1.373 . S
C3060 C3062 1.389 . S
C3061 H3040 0.950 . S
C3061 C3060 1.373 . S
C3061 C3077 1.377 . S
C3062 C3060 1.389 . S
C3062 C3063 1.524 . S
C3062 C3076 1.377 . S
C3063 C3062 1.524 . S
C3063 C3064 1.397 . S
C3063 C3068 1.363 . S
C3064 H3041 0.950 . S
C3064 C3063 1.397 . S
C3064 C3065 1.334 . S
C3065 H3042 0.950 . S
C3065 C3064 1.334 . S
C3065 C3066 1.287 . S
C3066 C3065 1.287 . S
C3066 C3067 1.524 . S
C3066 H3085 0.913 . S
C3067 H3043 0.950 . S
C3067 C3066 1.524 . S
C3067 C3068 1.415 . S
C3068 H3044 0.950 . S
C3068 C3063 1.363 . S
C3068 C3067 1.415 . S
C3069 H3045 0.951 . S
C3069 C3070 1.366 . S
C3069 C3071 1.388 . S
C3070 C3069 1.366 . S
C3070 C3074 1.385 . S
C3071 H3046 0.951 . S
C3071 C3069 1.388 . S
C3071 C3072 1.366 . S
C3072 C3071 1.366 . S
C3072 C3073 1.414 . S
C3072 C3075 1.499 . S
C3073 H3047 0.950 . S
C3073 C3072 1.414 . S
C3073 C3074 1.374 . S
C3074 H3048 0.950 . S
C3074 C3070 1.385 . S
C3074 C3073 1.374 . S
C3075 C3072 1.499 . S
C3075 C3076 1.373 . S
C3075 C3077 1.389 . S
C3076 H3049 0.950 . S
C3076 C3062 1.377 . S
C3076 C3075 1.373 . S
C3077 C3061 1.377 . S
C3077 C3075 1.389 . S
C3077 C3078 1.524 . S
C3078 C3077 1.524 . S
C3078 C3079 1.397 . S
C3078 C3083 1.363 . S
C3079 H3050 0.950 . S
C3079 C3078 1.397 . S
C3079 C3080 1.334 . S
C3080 H3051 0.950 . S
C3080 C3079 1.334 . S
C3080 C3081 1.287 . S
C3081 C3080 1.287 . S
C3081 C3082 1.524 . S
C3081 H3084 0.999 . S
C3082 H3052 0.950 . S
C3082 C3081 1.524 . S
C3082 C3083 1.415 . S
C3083 H3053 0.950 . S
C3083 C3078 1.363 . S
C3083 C3082 1.415 . S
H3084 C3081 0.999 . S
H3085 C3066 0.913 . S
H3086 C3104 0.951 . S
H3087 C3106 0.951 . S
H3088 C3108 0.950 . S
H3089 C3109 0.950 . S
H3090 C3111 0.950 . S
H3091 C3114 0.950 . S
H3092 C3115 0.950 . S
H3093 C3117 0.950 . S
H3094 C3118 0.950 . S
H3095 C3119 0.951 . S
H3096 C3121 0.951 . S
H3097 C3123 0.950 . S
H3098 C3124 0.950 . S
H3099 C3126 0.950 . S
H3100 C3129 0.950 . S
H3101 C3130 0.950 . S
H3102 C3132 0.950 . S
H3103 C3133 0.950 . S
C3104 H3086 0.951 . S
C3104 C3105 1.366 . S
C3104 C3106 1.388 . S
C3105 C3104 1.366 . S
C3105 C3109 1.385 . S
C3106 H3087 0.951 . S
C3106 C3104 1.388 . S
C3106 C3107 1.366 . S
C3107 C3106 1.366 . S
C3107 C3108 1.414 . S
C3107 C3110 1.499 . S
C3108 H3088 0.950 . S
C3108 C3107 1.414 . S
C3108 C3109 1.374 . S
C3109 H3089 0.950 . S
C3109 C3105 1.385 . S
C3109 C3108 1.374 . S
C3110 C3107 1.499 . S
C3110 C3111 1.373 . S
C3110 C3112 1.389 . S
C3111 H3090 0.950 . S
C3111 C3110 1.373 . S
C3111 C3127 1.377 . S
C3112 C3110 1.389 . S
C3112 C3113 1.524 . S
C3112 C3126 1.377 . S
C3113 C3112 1.524 . S
C3113 C3114 1.397 . S
C3113 C3118 1.363 . S
C3114 H3091 0.950 . S
C3114 C3113 1.397 . S
C3114 C3115 1.334 . S
C3115 H3092 0.950 . S
C3115 C3114 1.334 . S
C3115 C3116 1.287 . S
C3116 C3115 1.287 . S
C3116 C3117 1.524 . S
C3116 H3135 0.913 . S
C3117 H3093 0.950 . S
C3117 C3116 1.524 . S
C3117 C3118 1.415 . S
C3118 H3094 0.950 . S
C3118 C3113 1.363 . S
C3118 C3117 1.415 . S
C3119 H3095 0.951 . S
C3119 C3120 1.366 . S
C3119 C3121 1.388 . S
C3120 C3119 1.366 . S
C3120 C3124 1.385 . S
C3121 H3096 0.951 . S
C3121 C3119 1.388 . S
C3121 C3122 1.366 . S
C3122 C3121 1.366 . S
C3122 C3123 1.414 . S
C3122 C3125 1.499 . S
C3123 H3097 0.950 . S
C3123 C3122 1.414 . S
C3123 C3124 1.374 . S
C3124 H3098 0.950 . S
C3124 C3120 1.385 . S
C3124 C3123 1.374 . S
C3125 C3122 1.499 . S
C3125 C3126 1.373 . S
C3125 C3127 1.389 . S
C3126 H3099 0.950 . S
C3126 C3112 1.377 . S
C3126 C3125 1.373 . S
C3127 C3111 1.377 . S
C3127 C3125 1.389 . S
C3127 C3128 1.524 . S
C3128 C3127 1.524 . S
C3128 C3129 1.397 . S
C3128 C3133 1.363 . S
C3129 H3100 0.950 . S
C3129 C3128 1.397 . S
C3129 C3130 1.334 . S
C3130 H3101 0.950 . S
C3130 C3129 1.334 . S
C3130 C3131 1.287 . S
C3131 C3130 1.287 . S
C3131 C3132 1.524 . S
C3131 H3134 0.999 . S
C3132 H3102 0.950 . S
C3132 C3131 1.524 . S
C3132 C3133 1.415 . S
C3133 H3103 0.950 . S
C3133 C3128 1.363 . S
C3133 C3132 1.415 . S
H3134 C3131 0.999 . S
H3135 C3116 0.913 . S
H3136 C3154 0.951 . S
H3137 C3156 0.951 . S
H3138 C3158 0.950 . S
H3139 C3159 0.950 . S
H3140 C3161 0.950 . S
H3141 C3164 0.950 . S
H3142 C3165 0.950 . S
H3143 C3167 0.950 . S
H3144 C3168 0.950 . S
H3145 C3169 0.951 . S
H3146 C3171 0.951 . S
H3147 C3173 0.950 . S
H3148 C3174 0.950 . S
H3149 C3176 0.950 . S
H3150 C3179 0.950 . S
H3151 C3180 0.950 . S
H3152 C3182 0.950 . S
H3153 C3183 0.950 . S
C3154 H3136 0.951 . S
C3154 C3155 1.366 . S
C3154 C3156 1.388 . S
C3155 C3154 1.366 . S
C3155 C3159 1.385 . S
C3156 H3137 0.951 . S
C3156 C3154 1.388 . S
C3156 C3157 1.366 . S
C3157 C3156 1.366 . S
C3157 C3158 1.414 . S
C3157 C3160 1.499 . S
C3158 H3138 0.950 . S
C3158 C3157 1.414 . S
C3158 C3159 1.374 . S
C3159 H3139 0.950 . S
C3159 C3155 1.385 . S
C3159 C3158 1.374 . S
C3160 C3157 1.499 . S
C3160 C3161 1.373 . S
C3160 C3162 1.389 . S
C3161 H3140 0.950 . S
C3161 C3160 1.373 . S
C3161 C3177 1.377 . S
C3162 C3160 1.389 . S
C3162 C3163 1.524 . S
C3162 C3176 1.377 . S
C3163 C3162 1.524 . S
C3163 C3164 1.397 . S
C3163 C3168 1.363 . S
C3164 H3141 0.950 . S
C3164 C3163 1.397 . S
C3164 C3165 1.334 . S
C3165 H3142 0.950 . S
C3165 C3164 1.334 . S
C3165 C3166 1.287 . S
C3166 C3165 1.287 . S
C3166 C3167 1.524 . S
C3166 H3185 0.913 . S
C3167 H3143 0.950 . S
C3167 C3166 1.524 . S
C3167 C3168 1.415 . S
C3168 H3144 0.950 . S
C3168 C3163 1.363 . S
C3168 C3167 1.415 . S
C3169 H3145 0.951 . S
C3169 C3170 1.366 . S
C3169 C3171 1.388 . S
C3170 C3169 1.366 . S
C3170 C3174 1.385 . S
C3171 H3146 0.951 . S
C3171 C3169 1.388 . S
C3171 C3172 1.366 . S
C3172 C3171 1.366 . S
C3172 C3173 1.414 . S
C3172 C3175 1.499 . S
C3173 H3147 0.950 . S
C3173 C3172 1.414 . S
C3173 C3174 1.374 . S
C3174 H3148 0.950 . S
C3174 C3170 1.385 . S
C3174 C3173 1.374 . S
C3175 C3172 1.499 . S
C3175 C3176 1.373 . S
C3175 C3177 1.389 . S
C3176 H3149 0.950 . S
C3176 C3162 1.377 . S
C3176 C3175 1.373 . S
C3177 C3161 1.377 . S
C3177 C3175 1.389 . S
C3177 C3178 1.524 . S
C3178 C3177 1.524 . S
C3178 C3179 1.397 . S
C3178 C3183 1.363 . S
C3179 H3150 0.950 . S
C3179 C3178 1.397 . S
C3179 C3180 1.334 . S
C3180 H3151 0.950 . S
C3180 C3179 1.334 . S
C3180 C3181 1.287 . S
C3181 C3180 1.287 . S
C3181 C3182 1.524 . S
C3181 H3184 0.999 . S
C3182 H3152 0.950 . S
C3182 C3181 1.524 . S
C3182 C3183 1.415 . S
C3183 H3153 0.950 . S
C3183 C3178 1.363 . S
C3183 C3182 1.415 . S
H3184 C3181 0.999 . S
H3185 C3166 0.913 . S
H3186 C3204 0.951 . S
H3187 C3206 0.951 . S
H3188 C3208 0.950 . S
H3189 C3209 0.950 . S
H3190 C3211 0.950 . S
H3191 C3214 0.950 . S
H3192 C3215 0.950 . S
H3193 C3217 0.950 . S
H3194 C3218 0.950 . S
H3195 C3219 0.951 . S
H3196 C3221 0.951 . S
H3197 C3223 0.950 . S
H3198 C3224 0.950 . S
H3199 C3226 0.950 . S
H3200 C3229 0.950 . S
H3201 C3230 0.950 . S
H3202 C3232 0.950 . S
H3203 C3233 0.950 . S
C3204 H3186 0.951 . S
C3204 C3205 1.366 . S
C3204 C3206 1.388 . S
C3205 C3204 1.366 . S
C3205 C3209 1.385 . S
C3206 H3187 0.951 . S
C3206 C3204 1.388 . S
C3206 C3207 1.366 1_565 S
C3207 C3206 1.366 1_545 S
C3207 C3208 1.414 1_545 S
C3207 C3210 1.499 . S
C3208 H3188 0.950 . S
C3208 C3207 1.414 1_565 S
C3208 C3209 1.374 . S
C3209 H3189 0.950 . S
C3209 C3205 1.385 . S
C3209 C3208 1.374 . S
C3210 C3207 1.499 . S
C3210 C3211 1.373 . S
C3210 C3212 1.389 . S
C3211 H3190 0.950 . S
C3211 C3210 1.373 . S
C3211 C3227 1.377 . S
C3212 C3210 1.389 . S
C3212 C3213 1.524 . S
C3212 C3226 1.377 . S
C3213 C3212 1.524 . S
C3213 C3214 1.397 . S
C3213 C3218 1.363 . S
C3214 H3191 0.950 . S
C3214 C3213 1.397 . S
C3214 C3215 1.334 . S
C3215 H3192 0.950 . S
C3215 C3214 1.334 . S
C3215 C3216 1.287 . S
C3216 C3215 1.287 . S
C3216 C3217 1.524 . S
C3216 H3235 0.913 . S
C3217 H3193 0.950 . S
C3217 C3216 1.524 . S
C3217 C3218 1.415 . S
C3218 H3194 0.950 . S
C3218 C3213 1.363 . S
C3218 C3217 1.415 . S
C3219 H3195 0.951 . S
C3219 C3220 1.366 . S
C3219 C3221 1.388 . S
C3220 C3219 1.366 . S
C3220 C3224 1.385 . S
C3221 H3196 0.951 . S
C3221 C3219 1.388 . S
C3221 C3222 1.366 . S
C3222 C3221 1.366 . S
C3222 C3223 1.414 . S
C3222 C3225 1.499 . S
C3223 H3197 0.950 . S
C3223 C3222 1.414 . S
C3223 C3224 1.374 . S
C3224 H3198 0.950 . S
C3224 C3220 1.385 . S
C3224 C3223 1.374 . S
C3225 C3222 1.499 . S
C3225 C3226 1.373 . S
C3225 C3227 1.389 . S
C3226 H3199 0.950 . S
C3226 C3212 1.377 . S
C3226 C3225 1.373 . S
C3227 C3211 1.377 . S
C3227 C3225 1.389 . S
C3227 C3228 1.524 . S
C3228 C3227 1.524 . S
C3228 C3229 1.397 . S
C3228 C3233 1.363 . S
C3229 H3200 0.950 . S
C3229 C3228 1.397 . S
C3229 C3230 1.334 . S
C3230 H3201 0.950 . S
C3230 C3229 1.334 . S
C3230 C3231 1.287 . S
C3231 C3230 1.287 . S
C3231 C3232 1.524 . S
C3231 H3234 0.999 . S
C3232 H3202 0.950 . S
C3232 C3231 1.524 . S
C3232 C3233 1.415 . S
C3233 H3203 0.950 . S
C3233 C3228 1.363 . S
C3233 C3232 1.415 . S
H3234 C3231 0.999 . S
H3235 C3216 0.913 . S
H3236 C3254 0.951 . S
H3237 C3256 0.951 . S
H3238 C3258 0.950 . S
H3239 C3259 0.950 . S
H3240 C3261 0.950 . S
H3241 C3264 0.950 . S
H3242 C3265 0.983 . S
H3243 C3267 0.950 . S
H3244 C3268 0.950 . S
H3245 C3269 0.951 . S
H3246 C3271 0.951 . S
H3247 C3273 0.950 . S
H3248 C3274 0.950 . S
H3249 C3276 0.950 . S
H3250 C3279 0.950 . S
H3251 C3280 0.950 . S
H3252 C3282 0.950 . S
H3253 C3283 0.950 . S
C3254 H3236 0.951 . S
C3254 C3255 1.366 . S
C3254 C3256 1.388 1_455 S
C3255 C3254 1.366 . S
C3255 C3259 1.385 . S
C3256 H3237 0.951 . S
C3256 C3254 1.388 1_655 S
C3256 C3257 1.366 . S
C3257 C3256 1.366 . S
C3257 C3258 1.414 1_655 S
C3257 C3260 1.499 . S
C3258 H3238 0.950 . S
C3258 C3257 1.414 1_455 S
C3258 C3259 1.374 . S
C3259 H3239 0.950 . S
C3259 C3255 1.385 . S
C3259 C3258 1.374 . S
C3260 C3257 1.499 . S
C3260 C3261 1.373 . S
C3260 C3262 1.389 . S
C3261 H3240 0.950 . S
C3261 C3260 1.373 . S
C3261 C3277 1.377 . S
C3262 C3260 1.389 . S
C3262 C3263 1.524 . S
C3262 C3276 1.377 . S
C3263 C3262 1.524 . S
C3263 C3264 1.397 . S
C3263 C3268 1.363 . S
C3264 H3241 0.950 . S
C3264 C3263 1.397 . S
C3264 C3265 1.335 1_655 S
C3265 H3242 0.983 . S
C3265 C3264 1.335 1_455 S
C3265 C3266 1.254 1_455 S
C3266 C3265 1.254 1_655 S
C3266 C3267 1.524 . S
C3266 H3285 0.913 . S
C3267 H3243 0.950 . S
C3267 C3266 1.524 . S
C3267 C3268 1.415 . S
C3268 H3244 0.950 . S
C3268 C3263 1.363 . S
C3268 C3267 1.415 . S
C3269 H3245 0.951 . S
C3269 C3270 1.366 . S
C3269 C3271 1.388 . S
C3270 C3269 1.366 . S
C3270 C3274 1.385 . S
C3271 H3246 0.951 . S
C3271 C3269 1.388 . S
C3271 C3272 1.366 . S
C3272 C3271 1.366 . S
C3272 C3273 1.414 . S
C3272 C3275 1.499 . S
C3273 H3247 0.950 . S
C3273 C3272 1.414 . S
C3273 C3274 1.374 . S
C3274 H3248 0.950 . S
C3274 C3270 1.385 . S
C3274 C3273 1.374 . S
C3275 C3272 1.499 . S
C3275 C3276 1.373 . S
C3275 C3277 1.389 . S
C3276 H3249 0.950 . S
C3276 C3262 1.377 . S
C3276 C3275 1.373 . S
C3277 C3261 1.377 . S
C3277 C3275 1.389 . S
C3277 C3278 1.524 . S
C3278 C3277 1.524 . S
C3278 C3279 1.397 . S
C3278 C3283 1.363 . S
C3279 H3250 0.950 . S
C3279 C3278 1.397 . S
C3279 C3280 1.334 . S
C3280 H3251 0.950 . S
C3280 C3279 1.334 . S
C3280 C3281 1.287 . S
C3281 C3280 1.287 . S
C3281 C3282 1.524 . S
C3281 H3284 0.999 . S
C3282 H3252 0.950 . S
C3282 C3281 1.524 . S
C3282 C3283 1.415 . S
C3283 H3253 0.950 . S
C3283 C3278 1.363 . S
C3283 C3282 1.415 . S
H3284 C3281 0.999 . S
H3285 C3266 0.913 . S
H3286 C3304 0.951 . S
H3287 C3306 0.951 . S
H3288 C3308 0.950 . S
H3289 C3309 0.950 . S
H3290 C3311 0.950 . S
H3291 C3314 0.950 . S
H3292 C3315 0.950 . S
H3293 C3317 0.950 . S
H3294 C3318 0.950 . S
H3295 C3319 0.951 . S
H3296 C3321 0.951 . S
H3297 C3323 0.950 . S
H3298 C3324 0.950 . S
H3299 C3326 0.950 . S
H3300 C3329 0.950 . S
H3301 C3330 0.950 . S
H3302 C3332 0.950 . S
H3303 C3333 0.950 . S
C3304 H3286 0.951 . S
C3304 C3305 1.366 . S
C3304 C3306 1.388 . S
C3305 C3304 1.366 . S
C3305 C3309 1.385 . S
C3306 H3287 0.951 . S
C3306 C3304 1.388 . S
C3306 C3307 1.366 . S
C3307 C3306 1.366 . S
C3307 C3308 1.414 . S
C3307 C3310 1.499 . S
C3308 H3288 0.950 . S
C3308 C3307 1.414 . S
C3308 C3309 1.374 . S
C3309 H3289 0.950 . S
C3309 C3305 1.385 . S
C3309 C3308 1.374 . S
C3310 C3307 1.499 . S
C3310 C3311 1.373 . S
C3310 C3312 1.389 . S
C3311 H3290 0.950 . S
C3311 C3310 1.373 . S
C3311 C3327 1.377 . S
C3312 C3310 1.389 . S
C3312 C3313 1.524 . S
C3312 C3326 1.377 . S
C3313 C3312 1.524 . S
C3313 C3314 1.397 . S
C3313 C3318 1.363 . S
C3314 H3291 0.950 . S
C3314 C3313 1.397 . S
C3314 C3315 1.334 . S
C3315 H3292 0.950 . S
C3315 C3314 1.334 . S
C3315 C3316 1.287 . S
C3316 C3315 1.287 . S
C3316 C3317 1.524 . S
C3316 H3335 0.913 . S
C3317 H3293 0.950 . S
C3317 C3316 1.524 . S
C3317 C3318 1.415 . S
C3318 H3294 0.950 . S
C3318 C3313 1.363 . S
C3318 C3317 1.415 . S
C3319 H3295 0.951 . S
C3319 C3320 1.366 . S
C3319 C3321 1.388 . S
C3320 C3319 1.366 . S
C3320 C3324 1.385 . S
C3321 H3296 0.951 . S
C3321 C3319 1.388 . S
C3321 C3322 1.366 . S
C3322 C3321 1.366 . S
C3322 C3323 1.414 . S
C3322 C3325 1.499 . S
C3323 H3297 0.950 . S
C3323 C3322 1.414 . S
C3323 C3324 1.374 . S
C3324 H3298 0.950 . S
C3324 C3320 1.385 . S
C3324 C3323 1.374 . S
C3325 C3322 1.499 . S
C3325 C3326 1.373 . S
C3325 C3327 1.389 . S
C3326 H3299 0.950 . S
C3326 C3312 1.377 . S
C3326 C3325 1.373 . S
C3327 C3311 1.377 . S
C3327 C3325 1.389 . S
C3327 C3328 1.524 . S
C3328 C3327 1.524 . S
C3328 C3329 1.397 . S
C3328 C3333 1.363 . S
C3329 H3300 0.950 . S
C3329 C3328 1.397 . S
C3329 C3330 1.334 . S
C3330 H3301 0.950 . S
C3330 C3329 1.334 . S
C3330 C3331 1.287 . S
C3331 C3330 1.287 . S
C3331 C3332 1.524 . S
C3331 H3334 0.999 . S
C3332 H3302 0.950 . S
C3332 C3331 1.524 . S
C3332 C3333 1.415 . S
C3333 H3303 0.950 . S
C3333 C3328 1.363 . S
C3333 C3332 1.415 . S
H3334 C3331 0.999 . S
H3335 C3316 0.913 . S
H3336 C3354 0.951 . S
H3337 C3356 0.951 . S
H3338 C3358 0.950 . S
H3339 C3359 0.950 . S
H3340 C3361 0.950 . S
H3341 C3364 0.950 . S
H3342 C3365 0.950 . S
H3343 C3367 0.950 . S
H3344 C3368 0.950 . S
H3345 C3369 0.951 . S
H3346 C3371 0.951 . S
H3347 C3373 0.950 . S
H3348 C3374 0.950 . S
H3349 C3376 0.950 . S
H3350 C3379 0.950 . S
H3351 C3380 0.950 . S
H3352 C3382 0.950 . S
H3353 C3383 0.950 . S
C3354 H3336 0.951 . S
C3354 C3355 1.366 . S
C3354 C3356 1.388 . S
C3355 C3354 1.366 . S
C3355 C3359 1.385 . S
C3356 H3337 0.951 . S
C3356 C3354 1.388 . S
C3356 C3357 1.366 1_455 S
C3357 C3356 1.366 1_655 S
C3357 C3358 1.414 . S
C3357 C3360 1.499 . S
C3358 H3338 0.950 . S
C3358 C3357 1.414 . S
C3358 C3359 1.374 1_655 S
C3359 H3339 0.950 . S
C3359 C3355 1.385 . S
C3359 C3358 1.374 1_455 S
C3360 C3357 1.499 . S
C3360 C3361 1.373 . S
C3360 C3362 1.389 . S
C3361 H3340 0.950 . S
C3361 C3360 1.373 . S
C3361 C3377 1.377 . S
C3362 C3360 1.389 . S
C3362 C3363 1.524 . S
C3362 C3376 1.377 . S
C3363 C3362 1.524 . S
C3363 C3364 1.397 . S
C3363 C3368 1.363 . S
C3364 H3341 0.950 . S
C3364 C3363 1.397 . S
C3364 C3365 1.334 1_655 S
C3365 H3342 0.950 . S
C3365 C3364 1.334 1_455 S
C3365 C3366 1.287 . S
C3366 C3365 1.287 . S
C3366 C3367 1.524 . S
C3366 H3385 0.913 . S
C3367 H3343 0.950 . S
C3367 C3366 1.524 . S
C3367 C3368 1.415 1_455 S
C3368 H3344 0.950 . S
C3368 C3363 1.363 . S
C3368 C3367 1.415 1_655 S
C3369 H3345 0.951 . S
C3369 C3370 1.366 . S
C3369 C3371 1.388 . S
C3370 C3369 1.366 . S
C3370 C3374 1.385 . S
C3371 H3346 0.951 . S
C3371 C3369 1.388 . S
C3371 C3372 1.366 . S
C3372 C3371 1.366 . S
C3372 C3373 1.414 . S
C3372 C3375 1.499 . S
C3373 H3347 0.950 . S
C3373 C3372 1.414 . S
C3373 C3374 1.374 . S
C3374 H3348 0.950 . S
C3374 C3370 1.385 . S
C3374 C3373 1.374 . S
C3375 C3372 1.499 . S
C3375 C3376 1.373 . S
C3375 C3377 1.389 . S
C3376 H3349 0.950 . S
C3376 C3362 1.377 . S
C3376 C3375 1.373 . S
C3377 C3361 1.377 . S
C3377 C3375 1.389 . S
C3377 C3378 1.524 . S
C3378 C3377 1.524 . S
C3378 C3379 1.397 . S
C3378 C3383 1.363 . S
C3379 H3350 0.950 . S
C3379 C3378 1.397 . S
C3379 C3380 1.334 . S
C3380 H3351 0.950 . S
C3380 C3379 1.334 . S
C3380 C3381 1.287 . S
C3381 C3380 1.287 . S
C3381 C3382 1.524 . S
C3381 H3384 0.999 . S
C3382 H3352 0.950 . S
C3382 C3381 1.524 . S
C3382 C3383 1.415 . S
C3383 H3353 0.950 . S
C3383 C3378 1.363 . S
C3383 C3382 1.415 . S
H3384 C3381 0.999 . S
H3385 C3366 0.913 . S
H3386 C3404 0.951 . S
H3387 C3406 0.951 . S
H3388 C3408 0.950 . S
H3389 C3409 0.950 . S
H3390 C3411 0.950 . S
H3391 C3414 0.950 . S
H3392 C3415 0.950 . S
H3393 C3417 0.950 . S
H3394 C3418 0.950 . S
H3395 C3419 0.951 . S
H3396 C3421 0.951 . S
H3397 C3423 0.950 . S
H3398 C3424 0.950 . S
H3399 C3426 0.950 . S
H3400 C3429 0.950 . S
H3401 C3430 0.950 . S
H3402 C3432 0.950 . S
H3403 C3433 0.950 . S
C3404 H3386 0.951 . S
C3404 C3405 1.366 . S
C3404 C3406 1.388 . S
C3405 C3404 1.366 . S
C3405 C3409 1.385 . S
C3406 H3387 0.951 . S
C3406 C3404 1.388 . S
C3406 C3407 1.366 . S
C3407 C3406 1.366 . S
C3407 C3408 1.414 . S
C3407 C3410 1.499 . S
C3408 H3388 0.950 . S
C3408 C3407 1.414 . S
C3408 C3409 1.374 . S
C3409 H3389 0.950 . S
C3409 C3405 1.385 . S
C3409 C3408 1.374 . S
C3410 C3407 1.499 . S
C3410 C3411 1.373 . S
C3410 C3412 1.389 . S
C3411 H3390 0.950 . S
C3411 C3410 1.373 . S
C3411 C3427 1.377 . S
C3412 C3410 1.389 . S
C3412 C3413 1.524 . S
C3412 C3426 1.377 . S
C3413 C3412 1.524 . S
C3413 C3414 1.397 . S
C3413 C3418 1.363 . S
C3414 H3391 0.950 . S
C3414 C3413 1.397 . S
C3414 C3415 1.334 . S
C3415 H3392 0.950 . S
C3415 C3414 1.334 . S
C3415 C3416 1.287 . S
C3416 C3415 1.287 . S
C3416 C3417 1.524 . S
C3416 H3435 0.913 . S
C3417 H3393 0.950 . S
C3417 C3416 1.524 . S
C3417 C3418 1.415 . S
C3418 H3394 0.950 . S
C3418 C3413 1.363 . S
C3418 C3417 1.415 . S
C3419 H3395 0.951 . S
C3419 C3420 1.366 . S
C3419 C3421 1.388 . S
C3420 C3419 1.366 . S
C3420 C3424 1.385 . S
C3421 H3396 0.951 . S
C3421 C3419 1.388 . S
C3421 C3422 1.366 . S
C3422 C3421 1.366 . S
C3422 C3423 1.414 . S
C3422 C3425 1.499 . S
C3423 H3397 0.950 . S
C3423 C3422 1.414 . S
C3423 C3424 1.374 . S
C3424 H3398 0.950 . S
C3424 C3420 1.385 . S
C3424 C3423 1.374 . S
C3425 C3422 1.499 . S
C3425 C3426 1.373 . S
C3425 C3427 1.389 . S
C3426 H3399 0.950 . S
C3426 C3412 1.377 . S
C3426 C3425 1.373 . S
C3427 C3411 1.377 . S
C3427 C3425 1.389 . S
C3427 C3428 1.524 . S
C3428 C3427 1.524 . S
C3428 C3429 1.397 . S
C3428 C3433 1.363 . S
C3429 H3400 0.950 . S
C3429 C3428 1.397 . S
C3429 C3430 1.334 . S
C3430 H3401 0.950 . S
C3430 C3429 1.334 . S
C3430 C3431 1.287 . S
C3431 C3430 1.287 . S
C3431 C3432 1.524 . S
C3431 H3434 0.999 . S
C3432 H3402 0.950 . S
C3432 C3431 1.524 . S
C3432 C3433 1.415 . S
C3433 H3403 0.950 . S
C3433 C3428 1.363 . S
C3433 C3432 1.415 . S
H3434 C3431 0.999 . S
H3435 C3416 0.913 . S
H3436 C3454 0.951 . S
H3437 C3456 0.951 . S
H3438 C3458 0.950 . S
H3439 C3459 0.950 . S
H3440 C3461 0.950 . S
H3441 C3464 0.950 . S
H3442 C3465 0.950 . S
H3443 C3467 0.950 . S
H3444 C3468 0.950 . S
H3445 C3469 0.951 . S
H3446 C3471 0.951 . S
H3447 C3473 0.950 . S
H3448 C3474 0.950 . S
H3449 C3476 0.950 . S
H3450 C3479 0.950 . S
H3451 C3480 0.950 . S
H3452 C3482 0.950 . S
H3453 C3483 0.950 . S
C3454 H3436 0.951 . S
C3454 C3455 1.366 . S
C3454 C3456 1.388 . S
C3455 C3454 1.366 . S
C3455 C3459 1.385 . S
C3456 H3437 0.951 . S
C3456 C3454 1.388 . S
C3456 C3457 1.366 . S
C3457 C3456 1.366 . S
C3457 C3458 1.414 . S
C3457 C3460 1.499 1_565 S
C3458 H3438 0.950 . S
C3458 C3457 1.414 . S
C3458 C3459 1.374 . S
C3459 H3439 0.950 . S
C3459 C3455 1.385 . S
C3459 C3458 1.374 . S
C3460 C3457 1.499 1_545 S
C3460 C3461 1.373 . S
C3460 C3462 1.389 . S
C3461 H3440 0.950 . S
C3461 C3460 1.373 . S
C3461 C3477 1.377 . S
C3462 C3460 1.389 . S
C3462 C3463 1.524 . S
C3462 C3476 1.377 . S
C3463 C3462 1.524 . S
C3463 C3464 1.397 . S
C3463 C3468 1.363 . S
C3464 H3441 0.950 . S
C3464 C3463 1.397 . S
C3464 C3465 1.334 . S
C3465 H3442 0.950 . S
C3465 C3464 1.334 . S
C3465 C3466 1.287 . S
C3466 C3465 1.287 . S
C3466 C3467 1.524 . S
C3466 H3485 0.913 . S
C3467 H3443 0.950 . S
C3467 C3466 1.524 . S
C3467 C3468 1.415 . S
C3468 H3444 0.950 . S
C3468 C3463 1.363 . S
C3468 C3467 1.415 . S
C3469 H3445 0.951 . S
C3469 C3470 1.366 . S
C3469 C3471 1.388 . S
C3470 C3469 1.366 . S
C3470 C3474 1.385 . S
C3471 H3446 0.951 . S
C3471 C3469 1.388 . S
C3471 C3472 1.366 . S
C3472 C3471 1.366 . S
C3472 C3473 1.414 . S
C3472 C3475 1.499 . S
C3473 H3447 0.950 . S
C3473 C3472 1.414 . S
C3473 C3474 1.374 . S
C3474 H3448 0.950 . S
C3474 C3470 1.385 . S
C3474 C3473 1.374 . S
C3475 C3472 1.499 . S
C3475 C3476 1.373 . S
C3475 C3477 1.389 . S
C3476 H3449 0.950 . S
C3476 C3462 1.377 . S
C3476 C3475 1.373 . S
C3477 C3461 1.377 . S
C3477 C3475 1.389 . S
C3477 C3478 1.524 . S
C3478 C3477 1.524 . S
C3478 C3479 1.397 . S
C3478 C3483 1.363 . S
C3479 H3450 0.950 . S
C3479 C3478 1.397 . S
C3479 C3480 1.334 . S
C3480 H3451 0.950 . S
C3480 C3479 1.334 . S
C3480 C3481 1.287 . S
C3481 C3480 1.287 . S
C3481 C3482 1.524 . S
C3481 H3484 0.999 . S
C3482 H3452 0.950 . S
C3482 C3481 1.524 . S
C3482 C3483 1.415 . S
C3483 H3453 0.950 . S
C3483 C3478 1.363 . S
C3483 C3482 1.415 . S
H3484 C3481 0.999 . S
H3485 C3466 0.913 . S
H3486 C3504 0.951 . S
H3487 C3506 0.951 . S
H3488 C3508 0.950 . S
H3489 C3509 0.950 . S
H3490 C3511 0.950 . S
H3491 C3514 0.950 . S
H3492 C3515 0.950 . S
H3493 C3517 0.950 . S
H3494 C3518 0.950 . S
H3495 C3519 0.951 . S
H3496 C3521 0.951 . S
H3497 C3523 0.950 . S
H3498 C3524 0.950 . S
H3499 C3526 0.950 . S
H3500 C3529 0.950 . S
H3501 C3530 0.950 . S
H3502 C3532 0.950 . S
H3503 C3533 0.950 . S
C3504 H3486 0.951 . S
C3504 C3505 1.366 . S
C3504 C3506 1.388 . S
C3505 C3504 1.366 . S
C3505 C3509 1.385 . S
C3506 H3487 0.951 . S
C3506 C3504 1.388 . S
C3506 C3507 1.366 . S
C3507 C3506 1.366 . S
C3507 C3508 1.414 . S
C3507 C3510 1.499 . S
C3508 H3488 0.950 . S
C3508 C3507 1.414 . S
C3508 C3509 1.374 . S
C3509 H3489 0.950 . S
C3509 C3505 1.385 . S
C3509 C3508 1.374 . S
C3510 C3507 1.499 . S
C3510 C3511 1.373 . S
C3510 C3512 1.389 . S
C3511 H3490 0.950 . S
C3511 C3510 1.373 . S
C3511 C3527 1.377 . S
C3512 C3510 1.389 . S
C3512 C3513 1.524 . S
C3512 C3526 1.377 . S
C3513 C3512 1.524 . S
C3513 C3514 1.397 . S
C3513 C3518 1.363 . S
C3514 H3491 0.950 . S
C3514 C3513 1.397 . S
C3514 C3515 1.334 . S
C3515 H3492 0.950 . S
C3515 C3514 1.334 . S
C3515 C3516 1.287 . S
C3516 C3515 1.287 . S
C3516 C3517 1.524 . S
C3516 H3535 0.913 . S
C3517 H3493 0.950 . S
C3517 C3516 1.524 . S
C3517 C3518 1.415 . S
C3518 H3494 0.950 . S
C3518 C3513 1.363 . S
C3518 C3517 1.415 . S
C3519 H3495 0.951 . S
C3519 C3520 1.366 . S
C3519 C3521 1.388 . S
C3520 C3519 1.366 . S
C3520 C3524 1.385 . S
C3521 H3496 0.951 . S
C3521 C3519 1.388 . S
C3521 C3522 1.366 . S
C3522 C3521 1.366 . S
C3522 C3523 1.414 . S
C3522 C3525 1.499 . S
C3523 H3497 0.950 . S
C3523 C3522 1.414 . S
C3523 C3524 1.374 . S
C3524 H3498 0.950 . S
C3524 C3520 1.385 . S
C3524 C3523 1.374 . S
C3525 C3522 1.499 . S
C3525 C3526 1.373 . S
C3525 C3527 1.389 . S
C3526 H3499 0.950 . S
C3526 C3512 1.377 . S
C3526 C3525 1.373 . S
C3527 C3511 1.377 . S
C3527 C3525 1.389 . S
C3527 C3528 1.524 . S
C3528 C3527 1.524 . S
C3528 C3529 1.397 . S
C3528 C3533 1.363 . S
C3529 H3500 0.950 . S
C3529 C3528 1.397 . S
C3529 C3530 1.334 . S
C3530 H3501 0.950 . S
C3530 C3529 1.334 . S
C3530 C3531 1.287 . S
C3531 C3530 1.287 . S
C3531 C3532 1.524 . S
C3531 H3534 0.999 . S
C3532 H3502 0.950 . S
C3532 C3531 1.524 . S
C3532 C3533 1.415 . S
C3533 H3503 0.950 . S
C3533 C3528 1.363 . S
C3533 C3532 1.415 . S
H3534 C3531 0.999 . S
H3535 C3516 0.913 . S
H3536 C3554 0.951 . S
H3537 C3556 0.951 . S
H3538 C3558 0.950 . S
H3539 C3559 0.950 . S
H3540 C3561 0.950 . S
H3541 C3564 0.950 . S
H3542 C3565 0.950 . S
H3543 C3567 0.950 . S
H3544 C3568 0.950 . S
H3545 C3569 0.951 . S
H3546 C3571 0.951 . S
H3547 C3573 0.950 . S
H3548 C3574 0.950 . S
H3549 C3576 0.950 . S
H3550 C3579 0.950 . S
H3551 C3580 0.950 . S
H3552 C3582 0.950 . S
H3553 C3583 0.950 . S
C3554 H3536 0.951 . S
C3554 C3555 1.366 . S
C3554 C3556 1.388 . S
C3555 C3554 1.366 . S
C3555 C3559 1.385 . S
C3556 H3537 0.951 . S
C3556 C3554 1.388 . S
C3556 C3557 1.366 . S
C3557 C3556 1.366 . S
C3557 C3558 1.414 . S
C3557 C3560 1.499 . S
C3558 H3538 0.950 . S
C3558 C3557 1.414 . S
C3558 C3559 1.374 . S
C3559 H3539 0.950 . S
C3559 C3555 1.385 . S
C3559 C3558 1.374 . S
C3560 C3557 1.499 . S
C3560 C3561 1.373 . S
C3560 C3562 1.389 . S
C3561 H3540 0.950 . S
C3561 C3560 1.373 . S
C3561 C3577 1.377 . S
C3562 C3560 1.389 . S
C3562 C3563 1.524 . S
C3562 C3576 1.377 . S
C3563 C3562 1.524 . S
C3563 C3564 1.397 . S
C3563 C3568 1.363 . S
C3564 H3541 0.950 . S
C3564 C3563 1.397 . S
C3564 C3565 1.334 . S
C3565 H3542 0.950 . S
C3565 C3564 1.334 . S
C3565 C3566 1.287 . S
C3566 C3565 1.287 . S
C3566 C3567 1.524 . S
C3566 H3585 0.913 . S
C3567 H3543 0.950 . S
C3567 C3566 1.524 . S
C3567 C3568 1.415 . S
C3568 H3544 0.950 . S
C3568 C3563 1.363 . S
C3568 C3567 1.415 . S
C3569 H3545 0.951 . S
C3569 C3570 1.366 . S
C3569 C3571 1.388 . S
C3570 C3569 1.366 . S
C3570 C3574 1.385 . S
C3571 H3546 0.951 . S
C3571 C3569 1.388 . S
C3571 C3572 1.366 . S
C3572 C3571 1.366 . S
C3572 C3573 1.414 . S
C3572 C3575 1.499 . S
C3573 H3547 0.950 . S
C3573 C3572 1.414 . S
C3573 C3574 1.374 . S
C3574 H3548 0.950 . S
C3574 C3570 1.385 . S
C3574 C3573 1.374 . S
C3575 C3572 1.499 . S
C3575 C3576 1.373 . S
C3575 C3577 1.389 . S
C3576 H3549 0.950 . S
C3576 C3562 1.377 . S
C3576 C3575 1.373 . S
C3577 C3561 1.377 . S
C3577 C3575 1.389 . S
C3577 C3578 1.524 . S
C3578 C3577 1.524 . S
C3578 C3579 1.397 . S
C3578 C3583 1.363 . S
C3579 H3550 0.950 . S
C3579 C3578 1.397 . S
C3579 C3580 1.334 . S
C3580 H3551 0.950 . S
C3580 C3579 1.334 . S
C3580 C3581 1.287 . S
C3581 C3580 1.287 . S
C3581 C3582 1.524 . S
C3581 H3584 0.999 . S
C3582 H3552 0.950 . S
C3582 C3581 1.524 . S
C3582 C3583 1.415 . S
C3583 H3553 0.950 . S
C3583 C3578 1.363 . S
C3583 C3582 1.415 . S
H3584 C3581 0.999 . S
H3585 C3566 0.913 . S
H3586 C3604 0.951 . S
H3587 C3606 0.951 . S
H3588 C3608 0.950 . S
H3589 C3609 0.950 . S
H3590 C3611 0.950 . S
H3591 C3614 0.950 . S
H3592 C3615 0.950 . S
H3593 C3617 0.950 . S
H3594 C3618 0.950 . S
H3595 C3619 0.951 . S
H3596 C3621 0.951 . S
H3597 C3623 0.950 . S
H3598 C3624 0.950 . S
H3599 C3626 0.950 . S
H3600 C3629 0.950 . S
H3601 C3630 0.950 . S
H3602 C3632 0.950 . S
H3603 C3633 0.950 . S
C3604 H3586 0.951 . S
C3604 C3605 1.366 . S
C3604 C3606 1.388 . S
C3605 C3604 1.366 . S
C3605 C3609 1.385 . S
C3606 H3587 0.951 . S
C3606 C3604 1.388 . S
C3606 C3607 1.366 . S
C3607 C3606 1.366 . S
C3607 C3608 1.414 . S
C3607 C3610 1.499 . S
C3608 H3588 0.950 . S
C3608 C3607 1.414 . S
C3608 C3609 1.374 . S
C3609 H3589 0.950 . S
C3609 C3605 1.385 . S
C3609 C3608 1.374 . S
C3610 C3607 1.499 . S
C3610 C3611 1.373 . S
C3610 C3612 1.389 . S
C3611 H3590 0.950 . S
C3611 C3610 1.373 . S
C3611 C3627 1.377 . S
C3612 C3610 1.389 . S
C3612 C3613 1.524 . S
C3612 C3626 1.377 . S
C3613 C3612 1.524 . S
C3613 C3614 1.397 . S
C3613 C3618 1.363 . S
C3614 H3591 0.950 . S
C3614 C3613 1.397 . S
C3614 C3615 1.334 . S
C3615 H3592 0.950 . S
C3615 C3614 1.334 . S
C3615 C3616 1.287 . S
C3616 C3615 1.287 . S
C3616 C3617 1.524 . S
C3616 H3635 0.913 . S
C3617 H3593 0.950 . S
C3617 C3616 1.524 . S
C3617 C3618 1.415 . S
C3618 H3594 0.950 . S
C3618 C3613 1.363 . S
C3618 C3617 1.415 . S
C3619 H3595 0.951 . S
C3619 C3620 1.366 . S
C3619 C3621 1.388 . S
C3620 C3619 1.366 . S
C3620 C3624 1.385 . S
C3621 H3596 0.951 . S
C3621 C3619 1.388 . S
C3621 C3622 1.366 . S
C3622 C3621 1.366 . S
C3622 C3623 1.414 . S
C3622 C3625 1.499 . S
C3623 H3597 0.950 . S
C3623 C3622 1.414 . S
C3623 C3624 1.374 . S
C3624 H3598 0.950 . S
C3624 C3620 1.385 . S
C3624 C3623 1.374 . S
C3625 C3622 1.499 . S
C3625 C3626 1.373 . S
C3625 C3627 1.389 . S
C3626 H3599 0.950 . S
C3626 C3612 1.377 . S
C3626 C3625 1.373 . S
C3627 C3611 1.377 . S
C3627 C3625 1.389 . S
C3627 C3628 1.524 . S
C3628 C3627 1.524 . S
C3628 C3629 1.397 . S
C3628 C3633 1.363 . S
C3629 H3600 0.950 . S
C3629 C3628 1.397 . S
C3629 C3630 1.334 . S
C3630 H3601 0.950 . S
C3630 C3629 1.334 . S
C3630 C3631 1.287 . S
C3631 C3630 1.287 . S
C3631 C3632 1.524 . S
C3631 H3634 0.999 . S
C3632 H3602 0.950 . S
C3632 C3631 1.524 . S
C3632 C3633 1.415 . S
C3633 H3603 0.950 . S
C3633 C3628 1.363 . S
C3633 C3632 1.415 . S
H3634 C3631 0.999 . S
H3635 C3616 0.913 . S
H3636 C3654 0.951 . S
H3637 C3656 0.951 . S
H3638 C3658 0.950 . S
H3639 C3659 0.950 . S
H3640 C3661 0.950 . S
H3641 C3664 0.950 . S
H3642 C3665 0.950 . S
H3643 C3667 0.950 . S
H3644 C3668 0.950 . S
H3645 C3669 0.951 1_545 S
H3646 C3671 0.951 . S
H3647 C3673 0.950 . S
H3648 C3674 0.950 . S
H3649 C3676 0.950 . S
H3650 C3679 0.950 . S
H3651 C3680 0.939 . S
H3652 C3682 0.950 . S
H3653 C3683 0.950 . S
C3654 H3636 0.951 . S
C3654 C3655 1.366 . S
C3654 C3656 1.388 . S
C3655 C3654 1.366 . S
C3655 C3659 1.385 . S
C3656 H3637 0.951 . S
C3656 C3654 1.388 . S
C3656 C3657 1.366 . S
C3657 C3656 1.366 . S
C3657 C3658 1.414 . S
C3657 C3660 1.499 . S
C3658 H3638 0.950 . S
C3658 C3657 1.414 . S
C3658 C3659 1.374 . S
C3659 H3639 0.950 . S
C3659 C3655 1.385 . S
C3659 C3658 1.374 . S
C3660 C3657 1.499 . S
C3660 C3661 1.373 . S
C3660 C3662 1.389 . S
C3661 H3640 0.950 . S
C3661 C3660 1.373 . S
C3661 C3677 1.377 . S
C3662 C3660 1.389 . S
C3662 C3663 1.524 . S
C3662 C3676 1.377 . S
C3663 C3662 1.524 . S
C3663 C3664 1.397 . S
C3663 C3668 1.363 . S
C3664 H3641 0.950 . S
C3664 C3663 1.397 . S
C3664 C3665 1.334 . S
C3665 H3642 0.950 . S
C3665 C3664 1.334 . S
C3665 C3666 1.287 . S
C3666 C3665 1.287 . S
C3666 C3667 1.524 . S
C3666 H3685 0.913 . S
C3667 H3643 0.950 . S
C3667 C3666 1.524 . S
C3667 C3668 1.415 . S
C3668 H3644 0.950 . S
C3668 C3663 1.363 . S
C3668 C3667 1.415 . S
C3669 H3645 0.951 1_565 S
C3669 C3670 1.366 . S
C3669 C3671 1.388 . S
C3670 C3669 1.366 . S
C3670 C3674 1.385 . S
C3671 H3646 0.951 . S
C3671 C3669 1.388 . S
C3671 C3672 1.366 . S
C3672 C3671 1.366 . S
C3672 C3673 1.414 . S
C3672 C3675 1.499 . S
C3673 H3647 0.950 . S
C3673 C3672 1.414 . S
C3673 C3674 1.374 . S
C3674 H3648 0.950 . S
C3674 C3670 1.385 . S
C3674 C3673 1.374 . S
C3675 C3672 1.499 . S
C3675 C3676 1.373 . S
C3675 C3677 1.389 . S
C3676 H3649 0.950 . S
C3676 C3662 1.377 . S
C3676 C3675 1.373 . S
C3677 C3661 1.377 . S
C3677 C3675 1.389 . S
C3677 C3678 1.524 . S
C3678 C3677 1.524 . S
C3678 C3679 1.397 . S
C3678 C3683 1.363 1_565 S
C3679 H3650 0.950 . S
C3679 C3678 1.397 . S
C3679 C3680 1.385 . S
C3680 H3651 0.939 . S
C3680 C3679 1.385 . S
C3680 C3681 1.250 1_565 S
C3681 C3680 1.250 1_545 S
C3681 C3682 1.524 . S
C3681 H3684 0.999 . S
C3682 H3652 0.950 . S
C3682 C3681 1.524 . S
C3682 C3683 1.415 . S
C3683 H3653 0.950 . S
C3683 C3678 1.363 1_545 S
C3683 C3682 1.415 . S
H3684 C3681 0.999 . S
H3685 C3666 0.913 . S
H3686 C3704 0.951 . S
H3687 C3706 0.951 . S
H3688 C3708 0.950 . S
H3689 C3709 0.950 . S
H3690 C3711 0.950 . S
H3691 C3714 0.950 . S
H3692 C3715 0.950 . S
H3693 C3717 0.950 . S
H3694 C3718 0.950 . S
H3695 C3719 0.951 1_655 S
H3696 C3721 0.951 . S
H3697 C3723 0.950 . S
H3698 C3724 0.950 . S
H3699 C3726 0.950 . S
H3700 C3729 0.950 . S
H3701 C3730 0.950 . S
H3702 C3732 0.950 . S
H3703 C3733 0.950 . S
C3704 H3686 0.951 . S
C3704 C3705 1.366 . S
C3704 C3706 1.388 . S
C3705 C3704 1.366 . S
C3705 C3709 1.385 . S
C3706 H3687 0.951 . S
C3706 C3704 1.388 . S
C3706 C3707 1.366 . S
C3707 C3706 1.366 . S
C3707 C3708 1.414 . S
C3707 C3710 1.499 . S
C3708 H3688 0.950 . S
C3708 C3707 1.414 . S
C3708 C3709 1.374 . S
C3709 H3689 0.950 . S
C3709 C3705 1.385 . S
C3709 C3708 1.374 . S
C3710 C3707 1.499 . S
C3710 C3711 1.373 . S
C3710 C3712 1.389 . S
C3711 H3690 0.950 . S
C3711 C3710 1.373 . S
C3711 C3727 1.377 . S
C3712 C3710 1.389 . S
C3712 C3713 1.524 . S
C3712 C3726 1.377 . S
C3713 C3712 1.524 . S
C3713 C3714 1.397 . S
C3713 C3718 1.363 . S
C3714 H3691 0.950 . S
C3714 C3713 1.397 . S
C3714 C3715 1.334 . S
C3715 H3692 0.950 . S
C3715 C3714 1.334 . S
C3715 C3716 1.287 . S
C3716 C3715 1.287 . S
C3716 C3717 1.524 . S
C3716 H3735 0.913 . S
C3717 H3693 0.950 . S
C3717 C3716 1.524 . S
C3717 C3718 1.415 . S
C3718 H3694 0.950 . S
C3718 C3713 1.363 . S
C3718 C3717 1.415 . S
C3719 H3695 0.951 1_455 S
C3719 C3720 1.366 . S
C3719 C3721 1.388 . S
C3720 C3719 1.366 . S
C3720 C3724 1.385 . S
C3721 H3696 0.951 . S
C3721 C3719 1.388 . S
C3721 C3722 1.366 . S
C3722 C3721 1.366 . S
C3722 C3723 1.414 . S
C3722 C3725 1.499 . S
C3723 H3697 0.950 . S
C3723 C3722 1.414 . S
C3723 C3724 1.374 . S
C3724 H3698 0.950 . S
C3724 C3720 1.385 . S
C3724 C3723 1.374 . S
C3725 C3722 1.499 . S
C3725 C3726 1.373 . S
C3725 C3727 1.389 . S
C3726 H3699 0.950 . S
C3726 C3712 1.377 . S
C3726 C3725 1.373 . S
C3727 C3711 1.377 . S
C3727 C3725 1.389 . S
C3727 C3728 1.524 . S
C3728 C3727 1.524 . S
C3728 C3729 1.397 . S
C3728 C3733 1.363 . S
C3729 H3700 0.950 . S
C3729 C3728 1.397 . S
C3729 C3730 1.334 . S
C3730 H3701 0.950 . S
C3730 C3729 1.334 . S
C3730 C3731 1.287 . S
C3731 C3730 1.287 . S
C3731 C3732 1.524 . S
C3731 H3734 0.999 . S
C3732 H3702 0.950 . S
C3732 C3731 1.524 . S
C3732 C3733 1.415 . S
C3733 H3703 0.950 . S
C3733 C3728 1.363 . S
C3733 C3732 1.415 . S
H3734 C3731 0.999 . S
H3735 C3716 0.913 . S
H3736 C3754 0.951 . S
H3737 C3756 0.951 . S
H3738 C3758 0.950 . S
H3739 C3759 0.950 . S
H3740 C3761 0.950 . S
H3741 C3764 0.950 . S
H3742 C3765 0.950 . S
H3743 C3767 0.950 . S
H3744 C3768 0.950 . S
H3745 C3769 0.951 . S
H3746 C3771 0.951 . S
H3747 C3773 0.950 . S
H3748 C3774 0.950 . S
H3749 C3776 0.950 . S
H3750 C3779 0.950 . S
H3751 C3780 0.950 . S
H3752 C3782 0.950 . S
H3753 C3783 0.950 . S
C3754 H3736 0.951 . S
C3754 C3755 1.366 . S
C3754 C3756 1.388 . S
C3755 C3754 1.366 . S
C3755 C3759 1.385 . S
C3756 H3737 0.951 . S
C3756 C3754 1.388 . S
C3756 C3757 1.366 . S
C3757 C3756 1.366 . S
C3757 C3758 1.414 . S
C3757 C3760 1.499 . S
C3758 H3738 0.950 . S
C3758 C3757 1.414 . S
C3758 C3759 1.374 . S
C3759 H3739 0.950 . S
C3759 C3755 1.385 . S
C3759 C3758 1.374 . S
C3760 C3757 1.499 . S
C3760 C3761 1.373 . S
C3760 C3762 1.389 . S
C3761 H3740 0.950 . S
C3761 C3760 1.373 . S
C3761 C3777 1.377 . S
C3762 C3760 1.389 . S
C3762 C3763 1.524 . S
C3762 C3776 1.377 . S
C3763 C3762 1.524 . S
C3763 C3764 1.397 . S
C3763 C3768 1.363 . S
C3764 H3741 0.950 . S
C3764 C3763 1.397 . S
C3764 C3765 1.334 . S
C3765 H3742 0.950 . S
C3765 C3764 1.334 . S
C3765 C3766 1.287 . S
C3766 C3765 1.287 . S
C3766 C3767 1.524 . S
C3766 H3785 0.913 . S
C3767 H3743 0.950 . S
C3767 C3766 1.524 . S
C3767 C3768 1.415 . S
C3768 H3744 0.950 . S
C3768 C3763 1.363 . S
C3768 C3767 1.415 . S
C3769 H3745 0.951 . S
C3769 C3770 1.366 . S
C3769 C3771 1.388 . S
C3770 C3769 1.366 . S
C3770 C3774 1.385 . S
C3771 H3746 0.951 . S
C3771 C3769 1.388 . S
C3771 C3772 1.366 . S
C3772 C3771 1.366 . S
C3772 C3773 1.414 . S
C3772 C3775 1.499 . S
C3773 H3747 0.950 . S
C3773 C3772 1.414 . S
C3773 C3774 1.374 . S
C3774 H3748 0.950 . S
C3774 C3770 1.385 . S
C3774 C3773 1.374 . S
C3775 C3772 1.499 . S
C3775 C3776 1.373 . S
C3775 C3777 1.389 . S
C3776 H3749 0.950 . S
C3776 C3762 1.377 . S
C3776 C3775 1.373 . S
C3777 C3761 1.377 . S
C3777 C3775 1.389 . S
C3777 C3778 1.524 . S
C3778 C3777 1.524 . S
C3778 C3779 1.397 . S
C3778 C3783 1.363 . S
C3779 H3750 0.950 . S
C3779 C3778 1.397 . S
C3779 C3780 1.334 . S
C3780 H3751 0.950 . S
C3780 C3779 1.334 . S
C3780 C3781 1.287 . S
C3781 C3780 1.287 . S
C3781 C3782 1.524 . S
C3781 H3784 0.999 . S
C3782 H3752 0.950 . S
C3782 C3781 1.524 . S
C3782 C3783 1.415 . S
C3783 H3753 0.950 . S
C3783 C3778 1.363 . S
C3783 C3782 1.415 . S
H3784 C3781 0.999 . S
H3785 C3766 0.913 . S
H3786 C3804 0.951 . S
H3787 C3806 0.951 . S
H3788 C3808 0.950 . S
H3789 C3809 0.950 . S
H3790 C3811 0.950 . S
H3791 C3814 0.950 . S
H3792 C3815 0.950 . S
H3793 C3817 0.950 . S
H3794 C3818 0.950 . S
H3795 C3819 0.951 . S
H3796 C3821 0.951 . S
H3797 C3823 0.950 . S
H3798 C3824 0.950 . S
H3799 C3826 0.950 . S
H3800 C3829 0.950 . S
H3801 C3830 0.950 . S
H3802 C3832 0.950 . S
H3803 C3833 0.950 . S
C3804 H3786 0.951 . S
C3804 C3805 1.366 . S
C3804 C3806 1.388 . S
C3805 C3804 1.366 . S
C3805 C3809 1.385 . S
C3806 H3787 0.951 . S
C3806 C3804 1.388 . S
C3806 C3807 1.366 . S
C3807 C3806 1.366 . S
C3807 C3808 1.414 . S
C3807 C3810 1.499 . S
C3808 H3788 0.950 . S
C3808 C3807 1.414 . S
C3808 C3809 1.374 . S
C3809 H3789 0.950 . S
C3809 C3805 1.385 . S
C3809 C3808 1.374 . S
C3810 C3807 1.499 . S
C3810 C3811 1.373 . S
C3810 C3812 1.389 . S
C3811 H3790 0.950 . S
C3811 C3810 1.373 . S
C3811 C3827 1.377 . S
C3812 C3810 1.389 . S
C3812 C3813 1.524 . S
C3812 C3826 1.377 . S
C3813 C3812 1.524 . S
C3813 C3814 1.397 . S
C3813 C3818 1.363 . S
C3814 H3791 0.950 . S
C3814 C3813 1.397 . S
C3814 C3815 1.334 . S
C3815 H3792 0.950 . S
C3815 C3814 1.334 . S
C3815 C3816 1.287 . S
C3816 C3815 1.287 . S
C3816 C3817 1.524 . S
C3816 H3835 0.913 . S
C3817 H3793 0.950 . S
C3817 C3816 1.524 . S
C3817 C3818 1.415 . S
C3818 H3794 0.950 . S
C3818 C3813 1.363 . S
C3818 C3817 1.415 . S
C3819 H3795 0.951 . S
C3819 C3820 1.366 . S
C3819 C3821 1.388 . S
C3820 C3819 1.366 . S
C3820 C3824 1.385 . S
C3821 H3796 0.951 . S
C3821 C3819 1.388 . S
C3821 C3822 1.366 . S
C3822 C3821 1.366 . S
C3822 C3823 1.414 . S
C3822 C3825 1.499 . S
C3823 H3797 0.950 . S
C3823 C3822 1.414 . S
C3823 C3824 1.374 . S
C3824 H3798 0.950 . S
C3824 C3820 1.385 . S
C3824 C3823 1.374 . S
C3825 C3822 1.499 . S
C3825 C3826 1.373 . S
C3825 C3827 1.389 . S
C3826 H3799 0.950 . S
C3826 C3812 1.377 . S
C3826 C3825 1.373 . S
C3827 C3811 1.377 . S
C3827 C3825 1.389 . S
C3827 C3828 1.524 . S
C3828 C3827 1.524 . S
C3828 C3829 1.397 1_655 S
C3828 C3833 1.363 . S
C3829 H3800 0.950 . S
C3829 C3828 1.397 1_455 S
C3829 C3830 1.334 . S
C3830 H3801 0.950 . S
C3830 C3829 1.334 . S
C3830 C3831 1.287 . S
C3831 C3830 1.287 . S
C3831 C3832 1.524 . S
C3831 H3834 0.999 . S
C3832 H3802 0.950 . S
C3832 C3831 1.524 . S
C3832 C3833 1.415 1_455 S
C3833 H3803 0.950 . S
C3833 C3828 1.363 . S
C3833 C3832 1.415 1_655 S
H3834 C3831 0.999 . S
H3835 C3816 0.913 . S
H3836 C3854 0.951 . S
H3837 C3856 0.951 . S
H3838 C3858 0.950 . S
H3839 C3859 0.950 . S
H3840 C3861 0.950 . S
H3841 C3864 0.950 . S
H3842 C3865 0.950 . S
H3843 C3867 0.950 . S
H3844 C3868 0.950 . S
H3845 C3869 0.951 . S
H3846 C3871 0.951 . S
H3847 C3873 0.950 . S
H3848 C3874 0.950 . S
H3849 C3876 0.950 . S
H3850 C3879 0.950 . S
H3851 C3880 0.950 . S
H3852 C3882 0.950 . S
H3853 C3883 0.950 . S
C3854 H3836 0.951 . S
C3854 C3855 1.366 . S
C3854 C3856 1.388 . S
C3855 C3854 1.366 . S
C3855 C3859 1.385 . S
C3856 H3837 0.951 . S
C3856 C3854 1.388 . S
C3856 C3857 1.366 . S
C3857 C3856 1.366 . S
C3857 C3858 1.414 . S
C3857 C3860 1.499 . S
C3858 H3838 0.950 . S
C3858 C3857 1.414 . S
C3858 C3859 1.374 . S
C3859 H3839 0.950 . S
C3859 C3855 1.385 . S
C3859 C3858 1.374 . S
C3860 C3857 1.499 . S
C3860 C3861 1.373 . S
C3860 C3862 1.389 . S
C3861 H3840 0.950 . S
C3861 C3860 1.373 . S
C3861 C3877 1.377 . S
C3862 C3860 1.389 . S
C3862 C3863 1.524 . S
C3862 C3876 1.377 . S
C3863 C3862 1.524 . S
C3863 C3864 1.397 . S
C3863 C3868 1.363 . S
C3864 H3841 0.950 . S
C3864 C3863 1.397 . S
C3864 C3865 1.334 . S
C3865 H3842 0.950 . S
C3865 C3864 1.334 . S
C3865 C3866 1.287 . S
C3866 C3865 1.287 . S
C3866 C3867 1.524 . S
C3866 H3885 0.913 . S
C3867 H3843 0.950 . S
C3867 C3866 1.524 . S
C3867 C3868 1.415 . S
C3868 H3844 0.950 . S
C3868 C3863 1.363 . S
C3868 C3867 1.415 . S
C3869 H3845 0.951 . S
C3869 C3870 1.366 . S
C3869 C3871 1.388 . S
C3870 C3869 1.366 . S
C3870 C3874 1.385 . S
C3871 H3846 0.951 . S
C3871 C3869 1.388 . S
C3871 C3872 1.366 . S
C3872 C3871 1.366 . S
C3872 C3873 1.414 . S
C3872 C3875 1.499 . S
C3873 H3847 0.950 . S
C3873 C3872 1.414 . S
C3873 C3874 1.374 . S
C3874 H3848 0.950 . S
C3874 C3870 1.385 . S
C3874 C3873 1.374 . S
C3875 C3872 1.499 . S
C3875 C3876 1.373 . S
C3875 C3877 1.389 . S
C3876 H3849 0.950 . S
C3876 C3862 1.377 . S
C3876 C3875 1.373 . S
C3877 C3861 1.377 . S
C3877 C3875 1.389 . S
C3877 C3878 1.524 . S
C3878 C3877 1.524 . S
C3878 C3879 1.397 . S
C3878 C3883 1.363 . S
C3879 H3850 0.950 . S
C3879 C3878 1.397 . S
C3879 C3880 1.334 . S
C3880 H3851 0.950 . S
C3880 C3879 1.334 . S
C3880 C3881 1.287 . S
C3881 C3880 1.287 . S
C3881 C3882 1.524 . S
C3881 H3884 0.999 . S
C3882 H3852 0.950 . S
C3882 C3881 1.524 . S
C3882 C3883 1.415 . S
C3883 H3853 0.950 . S
C3883 C3878 1.363 . S
C3883 C3882 1.415 . S
H3884 C3881 0.999 . S
H3885 C3866 0.913 . S
H3886 C3904 0.951 . S
H3887 C3906 0.951 . S
H3888 C3908 0.950 . S
H3889 C3909 0.950 . S
H3890 C3911 0.950 . S
H3891 C3914 0.950 . S
H3892 C3915 0.950 . S
H3893 C3917 0.950 . S
H3894 C3918 0.950 . S
H3895 C3919 0.951 . S
H3896 C3921 0.951 . S
H3897 C3923 0.950 . S
H3898 C3924 0.950 . S
H3899 C3926 0.950 . S
H3900 C3929 0.950 . S
H3901 C3930 0.950 . S
H3902 C3932 0.950 . S
H3903 C3933 0.950 . S
C3904 H3886 0.951 . S
C3904 C3905 1.366 . S
C3904 C3906 1.388 . S
C3905 C3904 1.366 . S
C3905 C3909 1.385 . S
C3906 H3887 0.951 . S
C3906 C3904 1.388 . S
C3906 C3907 1.366 . S
C3907 C3906 1.366 . S
C3907 C3908 1.414 . S
C3907 C3910 1.499 . S
C3908 H3888 0.950 . S
C3908 C3907 1.414 . S
C3908 C3909 1.374 . S
C3909 H3889 0.950 . S
C3909 C3905 1.385 . S
C3909 C3908 1.374 . S
C3910 C3907 1.499 . S
C3910 C3911 1.373 . S
C3910 C3912 1.389 . S
C3911 H3890 0.950 . S
C3911 C3910 1.373 . S
C3911 C3927 1.377 . S
C3912 C3910 1.389 . S
C3912 C3913 1.524 . S
C3912 C3926 1.377 . S
C3913 C3912 1.524 . S
C3913 C3914 1.397 . S
C3913 C3918 1.363 . S
C3914 H3891 0.950 . S
C3914 C3913 1.397 . S
C3914 C3915 1.334 1_545 S
C3915 H3892 0.950 . S
C3915 C3914 1.334 1_565 S
C3915 C3916 1.287 . S
C3916 C3915 1.287 . S
C3916 C3917 1.524 . S
C3916 H3935 0.913 . S
C3917 H3893 0.950 . S
C3917 C3916 1.524 . S
C3917 C3918 1.415 1_565 S
C3918 H3894 0.950 . S
C3918 C3913 1.363 . S
C3918 C3917 1.415 1_545 S
C3919 H3895 0.951 . S
C3919 C3920 1.366 . S
C3919 C3921 1.388 . S
C3920 C3919 1.366 . S
C3920 C3924 1.385 . S
C3921 H3896 0.951 . S
C3921 C3919 1.388 . S
C3921 C3922 1.366 . S
C3922 C3921 1.366 . S
C3922 C3923 1.414 . S
C3922 C3925 1.499 . S
C3923 H3897 0.950 . S
C3923 C3922 1.414 . S
C3923 C3924 1.374 . S
C3924 H3898 0.950 . S
C3924 C3920 1.385 . S
C3924 C3923 1.374 . S
C3925 C3922 1.499 . S
C3925 C3926 1.373 . S
C3925 C3927 1.389 . S
C3926 H3899 0.950 . S
C3926 C3912 1.377 . S
C3926 C3925 1.373 . S
C3927 C3911 1.377 . S
C3927 C3925 1.389 . S
C3927 C3928 1.524 . S
C3928 C3927 1.524 . S
C3928 C3929 1.397 . S
C3928 C3933 1.363 . S
C3929 H3900 0.950 . S
C3929 C3928 1.397 . S
C3929 C3930 1.334 . S
C3930 H3901 0.950 . S
C3930 C3929 1.334 . S
C3930 C3931 1.287 . S
C3931 C3930 1.287 . S
C3931 C3932 1.524 . S
C3931 H3934 0.999 . S
C3932 H3902 0.950 . S
C3932 C3931 1.524 . S
C3932 C3933 1.415 . S
C3933 H3903 0.950 . S
C3933 C3928 1.363 . S
C3933 C3932 1.415 . S
H3934 C3931 0.999 . S
H3935 C3916 0.913 . S
H3936 C3954 0.951 . S
H3937 C3956 0.951 . S
H3938 C3958 0.950 . S
H3939 C3959 0.950 . S
H3940 C3961 0.950 . S
H3941 C3964 0.950 . S
H3942 C3965 0.950 . S
H3943 C3967 0.950 . S
H3944 C3968 0.950 . S
H3945 C3969 0.951 . S
H3946 C3971 0.951 . S
H3947 C3973 0.950 . S
H3948 C3974 0.950 . S
H3949 C3976 0.950 . S
H3950 C3979 0.950 . S
H3951 C3980 0.950 . S
H3952 C3982 0.950 . S
H3953 C3983 0.950 . S
C3954 H3936 0.951 . S
C3954 C3955 1.366 . S
C3954 C3956 1.388 . S
C3955 C3954 1.366 . S
C3955 C3959 1.385 . S
C3956 H3937 0.951 . S
C3956 C3954 1.388 . S
C3956 C3957 1.366 . S
C3957 C3956 1.366 . S
C3957 C3958 1.414 . S
C3957 C3960 1.499 . S
C3958 H3938 0.950 . S
C3958 C3957 1.414 . S
C3958 C3959 1.374 . S
C3959 H3939 0.950 . S
C3959 C3955 1.385 . S
C3959 C3958 1.374 . S
C3960 C3957 1.499 . S
C3960 C3961 1.373 . S
C3960 C3962 1.389 . S
C3961 H3940 0.950 . S
C3961 C3960 1.373 . S
C3961 C3977 1.377 . S
C3962 C3960 1.389 . S
C3962 C3963 1.524 . S
C3962 C3976 1.377 . S
C3963 C3962 1.524 . S
C3963 C3964 1.397 . S
C3963 C3968 1.363 . S
C3964 H3941 0.950 . S
C3964 C3963 1.397 . S
C3964 C3965 1.334 . S
C3965 H3942 0.950 . S
C3965 C3964 1.334 . S
C3965 C3966 1.287 . S
C3966 C3965 1.287 . S
C3966 C3967 1.524 . S
C3966 H3985 0.913 . S
C3967 H3943 0.950 . S
C3967 C3966 1.524 . S
C3967 C3968 1.415 . S
C3968 H3944 0.950 . S
C3968 C3963 1.363 . S
C3968 C3967 1.415 . S
C3969 H3945 0.951 . S
C3969 C3970 1.366 . S
C3969 C3971 1.388 . S
C3970 C3969 1.366 . S
C3970 C3974 1.385 . S
C3971 H3946 0.951 . S
C3971 C3969 1.388 . S
C3971 C3972 1.366 . S
C3972 C3971 1.366 . S
C3972 C3973 1.414 . S
C3972 C3975 1.499 . S
C3973 H3947 0.950 . S
C3973 C3972 1.414 . S
C3973 C3974 1.374 . S
C3974 H3948 0.950 . S
C3974 C3970 1.385 . S
C3974 C3973 1.374 . S
C3975 C3972 1.499 . S
C3975 C3976 1.373 . S
C3975 C3977 1.389 . S
C3976 H3949 0.950 . S
C3976 C3962 1.377 . S
C3976 C3975 1.373 . S
C3977 C3961 1.377 . S
C3977 C3975 1.389 . S
C3977 C3978 1.524 . S
C3978 C3977 1.524 . S
C3978 C3979 1.397 . S
C3978 C3983 1.363 . S
C3979 H3950 0.950 . S
C3979 C3978 1.397 . S
C3979 C3980 1.334 . S
C3980 H3951 0.950 . S
C3980 C3979 1.334 . S
C3980 C3981 1.287 . S
C3981 C3980 1.287 . S
C3981 C3982 1.524 . S
C3981 H3984 0.999 . S
C3982 H3952 0.950 . S
C3982 C3981 1.524 . S
C3982 C3983 1.415 . S
C3983 H3953 0.950 . S
C3983 C3978 1.363 . S
C3983 C3982 1.415 . S
H3984 C3981 0.999 . S
H3985 C3966 0.913 . S
H3986 C4004 0.951 . S
H3987 C4006 0.951 . S
H3988 C4008 0.950 . S
H3989 C4009 0.950 . S
H3990 C4011 0.950 . S
H3991 C4014 0.950 . S
H3992 C4015 0.950 . S
H3993 C4017 0.950 . S
H3994 C4018 0.950 . S
H3995 C4019 0.951 . S
H3996 C4021 0.951 . S
H3997 C4023 0.950 . S
H3998 C4024 0.950 . S
H3999 C4026 0.950 . S
H4000 C4029 0.950 . S
H4001 C4030 0.950 . S
H4002 C4032 0.950 . S
H4003 C4033 0.950 . S
C4004 H3986 0.951 . S
C4004 C4005 1.366 . S
C4004 C4006 1.388 . S
C4005 C4004 1.366 . S
C4005 C4009 1.385 . S
C4006 H3987 0.951 . S
C4006 C4004 1.388 . S
C4006 C4007 1.366 . S
C4007 C4006 1.366 . S
C4007 C4008 1.414 . S
C4007 C4010 1.499 . S
C4008 H3988 0.950 . S
C4008 C4007 1.414 . S
C4008 C4009 1.374 . S
C4009 H3989 0.950 . S
C4009 C4005 1.385 . S
C4009 C4008 1.374 . S
C4010 C4007 1.499 . S
C4010 C4011 1.373 . S
C4010 C4012 1.389 . S
C4011 H3990 0.950 . S
C4011 C4010 1.373 . S
C4011 C4027 1.377 . S
C4012 C4010 1.389 . S
C4012 C4013 1.524 . S
C4012 C4026 1.377 . S
C4013 C4012 1.524 . S
C4013 C4014 1.397 . S
C4013 C4018 1.363 . S
C4014 H3991 0.950 . S
C4014 C4013 1.397 . S
C4014 C4015 1.334 . S
C4015 H3992 0.950 . S
C4015 C4014 1.334 . S
C4015 C4016 1.287 . S
C4016 C4015 1.287 . S
C4016 C4017 1.524 . S
C4016 H4035 0.913 . S
C4017 H3993 0.950 . S
C4017 C4016 1.524 . S
C4017 C4018 1.415 . S
C4018 H3994 0.950 . S
C4018 C4013 1.363 . S
C4018 C4017 1.415 . S
C4019 H3995 0.951 . S
C4019 C4020 1.366 . S
C4019 C4021 1.388 . S
C4020 C4019 1.366 . S
C4020 C4024 1.385 . S
C4021 H3996 0.951 . S
C4021 C4019 1.388 . S
C4021 C4022 1.366 . S
C4022 C4021 1.366 . S
C4022 C4023 1.414 . S
C4022 C4025 1.499 . S
C4023 H3997 0.950 . S
C4023 C4022 1.414 . S
C4023 C4024 1.374 . S
C4024 H3998 0.950 . S
C4024 C4020 1.385 . S
C4024 C4023 1.374 . S
C4025 C4022 1.499 . S
C4025 C4026 1.373 . S
C4025 C4027 1.389 . S
C4026 H3999 0.950 . S
C4026 C4012 1.377 . S
C4026 C4025 1.373 . S
C4027 C4011 1.377 . S
C4027 C4025 1.389 . S
C4027 C4028 1.524 . S
C4028 C4027 1.524 . S
C4028 C4029 1.397 . S
C4028 C4033 1.363 . S
C4029 H4000 0.950 . S
C4029 C4028 1.397 . S
C4029 C4030 1.334 . S
C4030 H4001 0.950 . S
C4030 C4029 1.334 . S
C4030 C4031 1.287 . S
C4031 C4030 1.287 . S
C4031 C4032 1.524 . S
C4031 H4034 0.999 . S
C4032 H4002 0.950 . S
C4032 C4031 1.524 . S
C4032 C4033 1.415 . S
C4033 H4003 0.950 . S
C4033 C4028 1.363 . S
C4033 C4032 1.415 . S
H4034 C4031 0.999 . S
H4035 C4016 0.913 . S
H4036 C4054 0.951 . S
H4037 C4056 0.951 . S
H4038 C4058 0.950 . S
H4039 C4059 0.950 . S
H4040 C4061 0.950 . S
H4041 C4064 0.950 . S
H4042 C4065 0.950 . S
H4043 C4067 0.950 . S
H4044 C4068 0.950 . S
H4045 C4069 0.951 . S
H4046 C4071 0.951 . S
H4047 C4073 0.950 . S
H4048 C4074 0.950 . S
H4049 C4076 0.950 . S
H4050 C4079 0.950 . S
H4051 C4080 0.950 . S
H4052 C4082 0.950 . S
H4053 C4083 0.950 . S
C4054 H4036 0.951 . S
C4054 C4055 1.366 . S
C4054 C4056 1.388 . S
C4055 C4054 1.366 . S
C4055 C4059 1.385 . S
C4056 H4037 0.951 . S
C4056 C4054 1.388 . S
C4056 C4057 1.366 . S
C4057 C4056 1.366 . S
C4057 C4058 1.414 . S
C4057 C4060 1.499 . S
C4058 H4038 0.950 . S
C4058 C4057 1.414 . S
C4058 C4059 1.374 . S
C4059 H4039 0.950 . S
C4059 C4055 1.385 . S
C4059 C4058 1.374 . S
C4060 C4057 1.499 . S
C4060 C4061 1.373 . S
C4060 C4062 1.389 . S
C4061 H4040 0.950 . S
C4061 C4060 1.373 . S
C4061 C4077 1.377 . S
C4062 C4060 1.389 . S
C4062 C4063 1.524 . S
C4062 C4076 1.377 . S
C4063 C4062 1.524 . S
C4063 C4064 1.397 . S
C4063 C4068 1.363 . S
C4064 H4041 0.950 . S
C4064 C4063 1.397 . S
C4064 C4065 1.334 . S
C4065 H4042 0.950 . S
C4065 C4064 1.334 . S
C4065 C4066 1.287 . S
C4066 C4065 1.287 . S
C4066 C4067 1.524 . S
C4066 H4085 0.913 . S
C4067 H4043 0.950 . S
C4067 C4066 1.524 . S
C4067 C4068 1.415 . S
C4068 H4044 0.950 . S
C4068 C4063 1.363 . S
C4068 C4067 1.415 . S
C4069 H4045 0.951 . S
C4069 C4070 1.366 . S
C4069 C4071 1.388 . S
C4070 C4069 1.366 . S
C4070 C4074 1.385 . S
C4071 H4046 0.951 . S
C4071 C4069 1.388 . S
C4071 C4072 1.366 . S
C4072 C4071 1.366 . S
C4072 C4073 1.414 . S
C4072 C4075 1.499 . S
C4073 H4047 0.950 . S
C4073 C4072 1.414 . S
C4073 C4074 1.374 . S
C4074 H4048 0.950 . S
C4074 C4070 1.385 . S
C4074 C4073 1.374 . S
C4075 C4072 1.499 . S
C4075 C4076 1.373 . S
C4075 C4077 1.389 . S
C4076 H4049 0.950 . S
C4076 C4062 1.377 . S
C4076 C4075 1.373 . S
C4077 C4061 1.377 . S
C4077 C4075 1.389 . S
C4077 C4078 1.524 . S
C4078 C4077 1.524 . S
C4078 C4079 1.397 . S
C4078 C4083 1.363 . S
C4079 H4050 0.950 . S
C4079 C4078 1.397 . S
C4079 C4080 1.334 . S
C4080 H4051 0.950 . S
C4080 C4079 1.334 . S
C4080 C4081 1.287 . S
C4081 C4080 1.287 . S
C4081 C4082 1.524 . S
C4081 H4084 0.999 . S
C4082 H4052 0.950 . S
C4082 C4081 1.524 . S
C4082 C4083 1.415 . S
C4083 H4053 0.950 . S
C4083 C4078 1.363 . S
C4083 C4082 1.415 . S
H4084 C4081 0.999 . S
H4085 C4066 0.913 . S
H4086 C4104 0.951 . S
H4087 C4106 0.951 . S
H4088 C4108 0.950 . S
H4089 C4109 0.950 . S
H4090 C4111 0.950 . S
H4091 C4114 0.950 . S
H4092 C4115 0.950 . S
H4093 C4117 0.950 . S
H4094 C4118 0.950 . S
H4095 C4119 0.951 . S
H4096 C4121 0.951 . S
H4097 C4123 0.950 . S
H4098 C4124 0.950 . S
H4099 C4126 0.950 . S
H4100 C4129 0.950 . S
H4101 C4130 0.950 . S
H4102 C4132 0.950 . S
H4103 C4133 0.950 . S
C4104 H4086 0.951 . S
C4104 C4105 1.366 . S
C4104 C4106 1.388 . S
C4105 C4104 1.366 . S
C4105 C4109 1.385 . S
C4106 H4087 0.951 . S
C4106 C4104 1.388 . S
C4106 C4107 1.366 . S
C4107 C4106 1.366 . S
C4107 C4108 1.414 . S
C4107 C4110 1.499 . S
C4108 H4088 0.950 . S
C4108 C4107 1.414 . S
C4108 C4109 1.374 . S
C4109 H4089 0.950 . S
C4109 C4105 1.385 . S
C4109 C4108 1.374 . S
C4110 C4107 1.499 . S
C4110 C4111 1.373 . S
C4110 C4112 1.389 . S
C4111 H4090 0.950 . S
C4111 C4110 1.373 . S
C4111 C4127 1.377 . S
C4112 C4110 1.389 . S
C4112 C4113 1.524 . S
C4112 C4126 1.377 . S
C4113 C4112 1.524 . S
C4113 C4114 1.397 . S
C4113 C4118 1.363 . S
C4114 H4091 0.950 . S
C4114 C4113 1.397 . S
C4114 C4115 1.334 . S
C4115 H4092 0.950 . S
C4115 C4114 1.334 . S
C4115 C4116 1.287 . S
C4116 C4115 1.287 . S
C4116 C4117 1.524 . S
C4116 H4135 0.913 . S
C4117 H4093 0.950 . S
C4117 C4116 1.524 . S
C4117 C4118 1.415 . S
C4118 H4094 0.950 . S
C4118 C4113 1.363 . S
C4118 C4117 1.415 . S
C4119 H4095 0.951 . S
C4119 C4120 1.366 . S
C4119 C4121 1.388 . S
C4120 C4119 1.366 . S
C4120 C4124 1.385 . S
C4121 H4096 0.951 . S
C4121 C4119 1.388 . S
C4121 C4122 1.366 . S
C4122 C4121 1.366 . S
C4122 C4123 1.414 . S
C4122 C4125 1.499 . S
C4123 H4097 0.950 . S
C4123 C4122 1.414 . S
C4123 C4124 1.374 . S
C4124 H4098 0.950 . S
C4124 C4120 1.385 . S
C4124 C4123 1.374 . S
C4125 C4122 1.499 . S
C4125 C4126 1.373 . S
C4125 C4127 1.389 . S
C4126 H4099 0.950 . S
C4126 C4112 1.377 . S
C4126 C4125 1.373 . S
C4127 C4111 1.377 . S
C4127 C4125 1.389 . S
C4127 C4128 1.524 . S
C4128 C4127 1.524 . S
C4128 C4129 1.397 . S
C4128 C4133 1.363 . S
C4129 H4100 0.950 . S
C4129 C4128 1.397 . S
C4129 C4130 1.334 . S
C4130 H4101 0.950 . S
C4130 C4129 1.334 . S
C4130 C4131 1.287 . S
C4131 C4130 1.287 . S
C4131 C4132 1.524 . S
C4131 H4134 0.999 . S
C4132 H4102 0.950 . S
C4132 C4131 1.524 . S
C4132 C4133 1.415 . S
C4133 H4103 0.950 . S
C4133 C4128 1.363 . S
C4133 C4132 1.415 . S
H4134 C4131 0.999 . S
H4135 C4116 0.913 . S
H4136 C4154 0.951 . S
H4137 C4156 0.951 . S
H4138 C4158 0.950 . S
H4139 C4159 0.950 . S
H4140 C4161 0.950 . S
H4141 C4164 0.950 . S
H4142 C4165 0.950 . S
H4143 C4167 0.950 . S
H4144 C4168 0.950 . S
H4145 C4169 0.951 . S
H4146 C4171 0.951 . S
H4147 C4173 0.950 . S
H4148 C4174 0.950 . S
H4149 C4176 0.950 . S
H4150 C4179 0.950 . S
H4151 C4180 0.950 . S
H4152 C4182 0.950 . S
H4153 C4183 0.950 . S
C4154 H4136 0.951 . S
C4154 C4155 1.366 . S
C4154 C4156 1.388 . S
C4155 C4154 1.366 . S
C4155 C4159 1.385 . S
C4156 H4137 0.951 . S
C4156 C4154 1.388 . S
C4156 C4157 1.366 . S
C4157 C4156 1.366 . S
C4157 C4158 1.414 . S
C4157 C4160 1.499 . S
C4158 H4138 0.950 . S
C4158 C4157 1.414 . S
C4158 C4159 1.374 . S
C4159 H4139 0.950 . S
C4159 C4155 1.385 . S
C4159 C4158 1.374 . S
C4160 C4157 1.499 . S
C4160 C4161 1.373 . S
C4160 C4162 1.389 . S
C4161 H4140 0.950 . S
C4161 C4160 1.373 . S
C4161 C4177 1.377 . S
C4162 C4160 1.389 . S
C4162 C4163 1.524 . S
C4162 C4176 1.377 . S
C4163 C4162 1.524 . S
C4163 C4164 1.397 . S
C4163 C4168 1.363 . S
C4164 H4141 0.950 . S
C4164 C4163 1.397 . S
C4164 C4165 1.334 . S
C4165 H4142 0.950 . S
C4165 C4164 1.334 . S
C4165 C4166 1.287 . S
C4166 C4165 1.287 . S
C4166 C4167 1.524 . S
C4166 H4185 0.913 . S
C4167 H4143 0.950 . S
C4167 C4166 1.524 . S
C4167 C4168 1.415 . S
C4168 H4144 0.950 . S
C4168 C4163 1.363 . S
C4168 C4167 1.415 . S
C4169 H4145 0.951 . S
C4169 C4170 1.366 . S
C4169 C4171 1.388 . S
C4170 C4169 1.366 . S
C4170 C4174 1.385 . S
C4171 H4146 0.951 . S
C4171 C4169 1.388 . S
C4171 C4172 1.366 . S
C4172 C4171 1.366 . S
C4172 C4173 1.414 . S
C4172 C4175 1.499 . S
C4173 H4147 0.950 . S
C4173 C4172 1.414 . S
C4173 C4174 1.374 . S
C4174 H4148 0.950 . S
C4174 C4170 1.385 . S
C4174 C4173 1.374 . S
C4175 C4172 1.499 . S
C4175 C4176 1.373 . S
C4175 C4177 1.389 . S
C4176 H4149 0.950 . S
C4176 C4162 1.377 . S
C4176 C4175 1.373 . S
C4177 C4161 1.377 . S
C4177 C4175 1.389 . S
C4177 C4178 1.524 . S
C4178 C4177 1.524 . S
C4178 C4179 1.397 . S
C4178 C4183 1.363 . S
C4179 H4150 0.950 . S
C4179 C4178 1.397 . S
C4179 C4180 1.334 . S
C4180 H4151 0.950 . S
C4180 C4179 1.334 . S
C4180 C4181 1.287 . S
C4181 C4180 1.287 . S
C4181 C4182 1.524 . S
C4181 H4184 0.999 . S
C4182 H4152 0.950 . S
C4182 C4181 1.524 . S
C4182 C4183 1.415 . S
C4183 H4153 0.950 . S
C4183 C4178 1.363 . S
C4183 C4182 1.415 . S
H4184 C4181 0.999 . S
H4185 C4166 0.913 . S
H4186 C4204 0.951 . S
H4187 C4206 0.951 . S
H4188 C4208 0.950 . S
H4189 C4209 0.950 . S
H4190 C4211 0.950 . S
H4191 C4214 0.950 . S
H4192 C4215 0.950 . S
H4193 C4217 0.950 . S
H4194 C4218 0.950 . S
H4195 C4219 0.951 . S
H4196 C4221 0.951 . S
H4197 C4223 0.950 . S
H4198 C4224 0.950 . S
H4199 C4226 0.950 . S
H4200 C4229 0.950 . S
H4201 C4230 0.950 . S
H4202 C4232 0.950 . S
H4203 C4233 0.950 . S
C4204 H4186 0.951 . S
C4204 C4205 1.366 . S
C4204 C4206 1.388 . S
C4205 C4204 1.366 . S
C4205 C4209 1.385 . S
C4206 H4187 0.951 . S
C4206 C4204 1.388 . S
C4206 C4207 1.366 . S
C4207 C4206 1.366 . S
C4207 C4208 1.414 . S
C4207 C4210 1.499 . S
C4208 H4188 0.950 . S
C4208 C4207 1.414 . S
C4208 C4209 1.374 . S
C4209 H4189 0.950 . S
C4209 C4205 1.385 . S
C4209 C4208 1.374 . S
C4210 C4207 1.499 . S
C4210 C4211 1.373 . S
C4210 C4212 1.389 . S
C4211 H4190 0.950 . S
C4211 C4210 1.373 . S
C4211 C4227 1.377 . S
C4212 C4210 1.389 . S
C4212 C4213 1.524 . S
C4212 C4226 1.377 . S
C4213 C4212 1.524 . S
C4213 C4214 1.397 . S
C4213 C4218 1.363 . S
C4214 H4191 0.950 . S
C4214 C4213 1.397 . S
C4214 C4215 1.334 . S
C4215 H4192 0.950 . S
C4215 C4214 1.334 . S
C4215 C4216 1.287 . S
C4216 C4215 1.287 . S
C4216 C4217 1.524 . S
C4216 H4235 0.913 . S
C4217 H4193 0.950 . S
C4217 C4216 1.524 . S
C4217 C4218 1.415 . S
C4218 H4194 0.950 . S
C4218 C4213 1.363 . S
C4218 C4217 1.415 . S
C4219 H4195 0.951 . S
C4219 C4220 1.366 . S
C4219 C4221 1.388 . S
C4220 C4219 1.366 . S
C4220 C4224 1.385 . S
C4221 H4196 0.951 . S
C4221 C4219 1.388 . S
C4221 C4222 1.366 . S
C4222 C4221 1.366 . S
C4222 C4223 1.414 . S
C4222 C4225 1.499 . S
C4223 H4197 0.950 . S
C4223 C4222 1.414 . S
C4223 C4224 1.374 . S
C4224 H4198 0.950 . S
C4224 C4220 1.385 . S
C4224 C4223 1.374 . S
C4225 C4222 1.499 . S
C4225 C4226 1.373 . S
C4225 C4227 1.389 . S
C4226 H4199 0.950 . S
C4226 C4212 1.377 . S
C4226 C4225 1.373 . S
C4227 C4211 1.377 . S
C4227 C4225 1.389 . S
C4227 C4228 1.524 . S
C4228 C4227 1.524 . S
C4228 C4229 1.397 . S
C4228 C4233 1.363 . S
C4229 H4200 0.950 . S
C4229 C4228 1.397 . S
C4229 C4230 1.334 . S
C4230 H4201 0.950 . S
C4230 C4229 1.334 . S
C4230 C4231 1.287 . S
C4231 C4230 1.287 . S
C4231 C4232 1.524 . S
C4231 H4234 0.999 . S
C4232 H4202 0.950 . S
C4232 C4231 1.524 . S
C4232 C4233 1.415 . S
C4233 H4203 0.950 . S
C4233 C4228 1.363 . S
C4233 C4232 1.415 . S
H4234 C4231 0.999 . S
H4235 C4216 0.913 . S
H4236 C4254 0.951 . S
H4237 C4256 0.951 . S
H4238 C4258 0.950 . S
H4239 C4259 0.950 . S
H4240 C4261 0.950 . S
H4241 C4264 0.950 . S
H4242 C4265 0.950 . S
H4243 C4267 0.950 . S
H4244 C4268 0.950 . S
H4245 C4269 0.951 . S
H4246 C4271 0.951 . S
H4247 C4273 0.950 . S
H4248 C4274 0.950 . S
H4249 C4276 0.950 . S
H4250 C4279 0.950 . S
H4251 C4280 0.950 . S
H4252 C4282 0.950 . S
H4253 C4283 0.950 . S
C4254 H4236 0.951 . S
C4254 C4255 1.366 . S
C4254 C4256 1.388 . S
C4255 C4254 1.366 . S
C4255 C4259 1.385 . S
C4256 H4237 0.951 . S
C4256 C4254 1.388 . S
C4256 C4257 1.366 . S
C4257 C4256 1.366 . S
C4257 C4258 1.414 . S
C4257 C4260 1.499 . S
C4258 H4238 0.950 . S
C4258 C4257 1.414 . S
C4258 C4259 1.374 . S
C4259 H4239 0.950 . S
C4259 C4255 1.385 . S
C4259 C4258 1.374 . S
C4260 C4257 1.499 . S
C4260 C4261 1.373 . S
C4260 C4262 1.389 . S
C4261 H4240 0.950 . S
C4261 C4260 1.373 . S
C4261 C4277 1.377 . S
C4262 C4260 1.389 . S
C4262 C4263 1.524 . S
C4262 C4276 1.377 . S
C4263 C4262 1.524 . S
C4263 C4264 1.397 . S
C4263 C4268 1.363 . S
C4264 H4241 0.950 . S
C4264 C4263 1.397 . S
C4264 C4265 1.334 . S
C4265 H4242 0.950 . S
C4265 C4264 1.334 . S
C4265 C4266 1.287 . S
C4266 C4265 1.287 . S
C4266 C4267 1.524 . S
C4266 H4285 0.913 . S
C4267 H4243 0.950 . S
C4267 C4266 1.524 . S
C4267 C4268 1.415 . S
C4268 H4244 0.950 . S
C4268 C4263 1.363 . S
C4268 C4267 1.415 . S
C4269 H4245 0.951 . S
C4269 C4270 1.366 . S
C4269 C4271 1.388 . S
C4270 C4269 1.366 . S
C4270 C4274 1.385 . S
C4271 H4246 0.951 . S
C4271 C4269 1.388 . S
C4271 C4272 1.366 . S
C4272 C4271 1.366 . S
C4272 C4273 1.414 . S
C4272 C4275 1.499 . S
C4273 H4247 0.950 . S
C4273 C4272 1.414 . S
C4273 C4274 1.374 . S
C4274 H4248 0.950 . S
C4274 C4270 1.385 . S
C4274 C4273 1.374 . S
C4275 C4272 1.499 . S
C4275 C4276 1.373 . S
C4275 C4277 1.389 . S
C4276 H4249 0.950 . S
C4276 C4262 1.377 . S
C4276 C4275 1.373 . S
C4277 C4261 1.377 . S
C4277 C4275 1.389 . S
C4277 C4278 1.524 . S
C4278 C4277 1.524 . S
C4278 C4279 1.397 . S
C4278 C4283 1.363 . S
C4279 H4250 0.950 . S
C4279 C4278 1.397 . S
C4279 C4280 1.334 . S
C4280 H4251 0.950 . S
C4280 C4279 1.334 . S
C4280 C4281 1.287 . S
C4281 C4280 1.287 . S
C4281 C4282 1.524 . S
C4281 H4284 0.999 . S
C4282 H4252 0.950 . S
C4282 C4281 1.524 . S
C4282 C4283 1.415 . S
C4283 H4253 0.950 . S
C4283 C4278 1.363 . S
C4283 C4282 1.415 . S
H4284 C4281 0.999 . S
H4285 C4266 0.913 . S
H4286 C4304 0.951 . S
H4287 C4306 0.951 . S
H4288 C4308 0.950 . S
H4289 C4309 0.950 . S
H4290 C4311 0.950 . S
H4291 C4314 0.950 . S
H4292 C4315 0.950 . S
H4293 C4317 0.950 . S
H4294 C4318 0.950 . S
H4295 C4319 0.951 . S
H4296 C4321 0.951 . S
H4297 C4323 0.950 . S
H4298 C4324 0.950 . S
H4299 C4326 0.950 . S
H4300 C4329 0.950 . S
H4301 C4330 0.950 . S
H4302 C4332 0.950 . S
H4303 C4333 0.950 . S
C4304 H4286 0.951 . S
C4304 C4305 1.366 . S
C4304 C4306 1.388 . S
C4305 C4304 1.366 . S
C4305 C4309 1.385 . S
C4306 H4287 0.951 . S
C4306 C4304 1.388 . S
C4306 C4307 1.366 . S
C4307 C4306 1.366 . S
C4307 C4308 1.414 . S
C4307 C4310 1.499 . S
C4308 H4288 0.950 . S
C4308 C4307 1.414 . S
C4308 C4309 1.374 . S
C4309 H4289 0.950 . S
C4309 C4305 1.385 . S
C4309 C4308 1.374 . S
C4310 C4307 1.499 . S
C4310 C4311 1.373 . S
C4310 C4312 1.389 . S
C4311 H4290 0.950 . S
C4311 C4310 1.373 . S
C4311 C4327 1.377 . S
C4312 C4310 1.389 . S
C4312 C4313 1.524 . S
C4312 C4326 1.377 . S
C4313 C4312 1.524 . S
C4313 C4314 1.397 . S
C4313 C4318 1.363 . S
C4314 H4291 0.950 . S
C4314 C4313 1.397 . S
C4314 C4315 1.334 . S
C4315 H4292 0.950 . S
C4315 C4314 1.334 . S
C4315 C4316 1.287 . S
C4316 C4315 1.287 . S
C4316 C4317 1.524 . S
C4316 H4335 0.913 . S
C4317 H4293 0.950 . S
C4317 C4316 1.524 . S
C4317 C4318 1.415 . S
C4318 H4294 0.950 . S
C4318 C4313 1.363 . S
C4318 C4317 1.415 . S
C4319 H4295 0.951 . S
C4319 C4320 1.366 . S
C4319 C4321 1.388 . S
C4320 C4319 1.366 . S
C4320 C4324 1.385 . S
C4321 H4296 0.951 . S
C4321 C4319 1.388 . S
C4321 C4322 1.366 . S
C4322 C4321 1.366 . S
C4322 C4323 1.414 . S
C4322 C4325 1.499 . S
C4323 H4297 0.950 . S
C4323 C4322 1.414 . S
C4323 C4324 1.374 . S
C4324 H4298 0.950 . S
C4324 C4320 1.385 . S
C4324 C4323 1.374 . S
C4325 C4322 1.499 . S
C4325 C4326 1.373 . S
C4325 C4327 1.389 . S
C4326 H4299 0.950 . S
C4326 C4312 1.377 . S
C4326 C4325 1.373 . S
C4327 C4311 1.377 . S
C4327 C4325 1.389 . S
C4327 C4328 1.524 . S
C4328 C4327 1.524 . S
C4328 C4329 1.397 . S
C4328 C4333 1.363 . S
C4329 H4300 0.950 . S
C4329 C4328 1.397 . S
C4329 C4330 1.334 . S
C4330 H4301 0.950 . S
C4330 C4329 1.334 . S
C4330 C4331 1.287 . S
C4331 C4330 1.287 . S
C4331 C4332 1.524 . S
C4331 H4334 0.999 . S
C4332 H4302 0.950 . S
C4332 C4331 1.524 . S
C4332 C4333 1.415 . S
C4333 H4303 0.950 . S
C4333 C4328 1.363 . S
C4333 C4332 1.415 . S
H4334 C4331 0.999 . S
H4335 C4316 0.913 . S
H4336 C4354 0.951 . S
H4337 C4356 0.951 . S
H4338 C4358 0.950 . S
H4339 C4359 0.950 . S
H4340 C4361 0.950 . S
H4341 C4364 0.950 . S
H4342 C4365 0.950 . S
H4343 C4367 0.950 . S
H4344 C4368 0.950 . S
H4345 C4369 0.951 . S
H4346 C4371 0.951 . S
H4347 C4373 0.950 . S
H4348 C4374 0.950 . S
H4349 C4376 0.950 . S
H4350 C4379 0.950 . S
H4351 C4380 0.950 . S
H4352 C4382 0.950 . S
H4353 C4383 0.950 . S
C4354 H4336 0.951 . S
C4354 C4355 1.366 . S
C4354 C4356 1.388 . S
C4355 C4354 1.366 . S
C4355 C4359 1.385 . S
C4356 H4337 0.951 . S
C4356 C4354 1.388 . S
C4356 C4357 1.366 . S
C4357 C4356 1.366 . S
C4357 C4358 1.414 . S
C4357 C4360 1.499 . S
C4358 H4338 0.950 . S
C4358 C4357 1.414 . S
C4358 C4359 1.374 . S
C4359 H4339 0.950 . S
C4359 C4355 1.385 . S
C4359 C4358 1.374 . S
C4360 C4357 1.499 . S
C4360 C4361 1.373 . S
C4360 C4362 1.389 . S
C4361 H4340 0.950 . S
C4361 C4360 1.373 . S
C4361 C4377 1.377 . S
C4362 C4360 1.389 . S
C4362 C4363 1.524 . S
C4362 C4376 1.377 . S
C4363 C4362 1.524 . S
C4363 C4364 1.397 . S
C4363 C4368 1.363 . S
C4364 H4341 0.950 . S
C4364 C4363 1.397 . S
C4364 C4365 1.334 . S
C4365 H4342 0.950 . S
C4365 C4364 1.334 . S
C4365 C4366 1.287 . S
C4366 C4365 1.287 . S
C4366 C4367 1.524 . S
C4366 H4385 0.913 . S
C4367 H4343 0.950 . S
C4367 C4366 1.524 . S
C4367 C4368 1.415 . S
C4368 H4344 0.950 . S
C4368 C4363 1.363 . S
C4368 C4367 1.415 . S
C4369 H4345 0.951 . S
C4369 C4370 1.366 . S
C4369 C4371 1.388 . S
C4370 C4369 1.366 . S
C4370 C4374 1.385 . S
C4371 H4346 0.951 . S
C4371 C4369 1.388 . S
C4371 C4372 1.366 . S
C4372 C4371 1.366 . S
C4372 C4373 1.414 . S
C4372 C4375 1.499 . S
C4373 H4347 0.950 . S
C4373 C4372 1.414 . S
C4373 C4374 1.374 . S
C4374 H4348 0.950 . S
C4374 C4370 1.385 . S
C4374 C4373 1.374 . S
C4375 C4372 1.499 . S
C4375 C4376 1.373 . S
C4375 C4377 1.389 . S
C4376 H4349 0.950 . S
C4376 C4362 1.377 . S
C4376 C4375 1.373 . S
C4377 C4361 1.377 . S
C4377 C4375 1.389 . S
C4377 C4378 1.524 . S
C4378 C4377 1.524 . S
C4378 C4379 1.397 . S
C4378 C4383 1.363 . S
C4379 H4350 0.950 . S
C4379 C4378 1.397 . S
C4379 C4380 1.334 . S
C4380 H4351 0.950 . S
C4380 C4379 1.334 . S
C4380 C4381 1.287 . S
C4381 C4380 1.287 . S
C4381 C4382 1.524 . S
C4381 H4384 0.999 . S
C4382 H4352 0.950 . S
C4382 C4381 1.524 . S
C4382 C4383 1.415 . S
C4383 H4353 0.950 . S
C4383 C4378 1.363 . S
C4383 C4382 1.415 . S
H4384 C4381 0.999 . S
H4385 C4366 0.913 . S
H4386 C4404 0.951 . S
H4387 C4406 0.951 . S
H4388 C4408 0.950 . S
H4389 C4409 0.950 . S
H4390 C4411 0.950 . S
H4391 C4414 0.950 . S
H4392 C4415 0.950 . S
H4393 C4417 0.950 . S
H4394 C4418 0.950 . S
H4395 C4419 0.951 . S
H4396 C4421 0.951 . S
H4397 C4423 0.950 . S
H4398 C4424 0.950 . S
H4399 C4426 0.950 . S
H4400 C4429 0.950 . S
H4401 C4430 0.950 . S
H4402 C4432 0.950 . S
H4403 C4433 0.950 . S
C4404 H4386 0.951 . S
C4404 C4405 1.366 . S
C4404 C4406 1.388 . S
C4405 C4404 1.366 . S
C4405 C4409 1.385 . S
C4406 H4387 0.951 . S
C4406 C4404 1.388 . S
C4406 C4407 1.366 . S
C4407 C4406 1.366 . S
C4407 C4408 1.414 . S
C4407 C4410 1.499 . S
C4408 H4388 0.950 . S
C4408 C4407 1.414 . S
C4408 C4409 1.374 . S
C4409 H4389 0.950 . S
C4409 C4405 1.385 . S
C4409 C4408 1.374 . S
C4410 C4407 1.499 . S
C4410 C4411 1.373 . S
C4410 C4412 1.389 . S
C4411 H4390 0.950 . S
C4411 C4410 1.373 . S
C4411 C4427 1.377 . S
C4412 C4410 1.389 . S
C4412 C4413 1.524 . S
C4412 C4426 1.377 . S
C4413 C4412 1.524 . S
C4413 C4414 1.397 . S
C4413 C4418 1.363 . S
C4414 H4391 0.950 . S
C4414 C4413 1.397 . S
C4414 C4415 1.334 . S
C4415 H4392 0.950 . S
C4415 C4414 1.334 . S
C4415 C4416 1.287 . S
C4416 C4415 1.287 . S
C4416 C4417 1.524 . S
C4416 H4435 0.913 . S
C4417 H4393 0.950 . S
C4417 C4416 1.524 . S
C4417 C4418 1.415 . S
C4418 H4394 0.950 . S
C4418 C4413 1.363 . S
C4418 C4417 1.415 . S
C4419 H4395 0.951 . S
C4419 C4420 1.366 . S
C4419 C4421 1.388 . S
C4420 C4419 1.366 . S
C4420 C4424 1.385 . S
C4421 H4396 0.951 . S
C4421 C4419 1.388 . S
C4421 C4422 1.366 . S
C4422 C4421 1.366 . S
C4422 C4423 1.414 . S
C4422 C4425 1.499 . S
C4423 H4397 0.950 . S
C4423 C4422 1.414 . S
C4423 C4424 1.374 . S
C4424 H4398 0.950 . S
C4424 C4420 1.385 . S
C4424 C4423 1.374 . S
C4425 C4422 1.499 . S
C4425 C4426 1.373 . S
C4425 C4427 1.389 . S
C4426 H4399 0.950 . S
C4426 C4412 1.377 . S
C4426 C4425 1.373 . S
C4427 C4411 1.377 . S
C4427 C4425 1.389 . S
C4427 C4428 1.524 . S
C4428 C4427 1.524 . S
C4428 C4429 1.397 . S
C4428 C4433 1.363 . S
C4429 H4400 0.950 . S
C4429 C4428 1.397 . S
C4429 C4430 1.334 . S
C4430 H4401 0.950 . S
C4430 C4429 1.334 . S
C4430 C4431 1.287 . S
C4431 C4430 1.287 . S
C4431 C4432 1.524 . S
C4431 H4434 0.999 . S
C4432 H4402 0.950 . S
C4432 C4431 1.524 . S
C4432 C4433 1.415 . S
C4433 H4403 0.950 . S
C4433 C4428 1.363 . S
C4433 C4432 1.415 . S
H4434 C4431 0.999 . S
H4435 C4416 0.913 . S
H4436 C4454 0.951 . S
H4437 C4456 0.951 . S
H4438 C4458 0.950 . S
H4439 C4459 0.950 . S
H4440 C4461 0.950 . S
H4441 C4464 0.950 . S
H4442 C4465 0.950 . S
H4443 C4467 0.950 . S
H4444 C4468 0.950 . S
H4445 C4469 0.951 . S
H4446 C4471 0.951 . S
H4447 C4473 0.950 . S
H4448 C4474 0.950 . S
H4449 C4476 0.950 . S
H4450 C4479 0.950 . S
H4451 C4480 0.950 . S
H4452 C4482 0.950 . S
H4453 C4483 0.950 . S
C4454 H4436 0.951 . S
C4454 C4455 1.366 . S
C4454 C4456 1.388 . S
C4455 C4454 1.366 . S
C4455 C4459 1.385 . S
C4456 H4437 0.951 . S
C4456 C4454 1.388 . S
C4456 C4457 1.366 . S
C4457 C4456 1.366 . S
C4457 C4458 1.414 . S
C4457 C4460 1.499 . S
C4458 H4438 0.950 . S
C4458 C4457 1.414 . S
C4458 C4459 1.374 . S
C4459 H4439 0.950 . S
C4459 C4455 1.385 . S
C4459 C4458 1.374 . S
C4460 C4457 1.499 . S
C4460 C4461 1.373 . S
C4460 C4462 1.389 . S
C4461 H4440 0.950 . S
C4461 C4460 1.373 . S
C4461 C4477 1.377 . S
C4462 C4460 1.389 . S
C4462 C4463 1.524 . S
C4462 C4476 1.377 . S
C4463 C4462 1.524 . S
C4463 C4464 1.397 . S
C4463 C4468 1.363 . S
C4464 H4441 0.950 . S
C4464 C4463 1.397 . S
C4464 C4465 1.334 . S
C4465 H4442 0.950 . S
C4465 C4464 1.334 . S
C4465 C4466 1.287 . S
C4466 C4465 1.287 . S
C4466 C4467 1.524 . S
C4466 H4485 0.913 . S
C4467 H4443 0.950 . S
C4467 C4466 1.524 . S
C4467 C4468 1.415 . S
C4468 H4444 0.950 . S
C4468 C4463 1.363 . S
C4468 C4467 1.415 . S
C4469 H4445 0.951 . S
C4469 C4470 1.366 . S
C4469 C4471 1.388 . S
C4470 C4469 1.366 . S
C4470 C4474 1.385 . S
C4471 H4446 0.951 . S
C4471 C4469 1.388 . S
C4471 C4472 1.366 . S
C4472 C4471 1.366 . S
C4472 C4473 1.414 . S
C4472 C4475 1.499 . S
C4473 H4447 0.950 . S
C4473 C4472 1.414 . S
C4473 C4474 1.374 . S
C4474 H4448 0.950 . S
C4474 C4470 1.385 . S
C4474 C4473 1.374 . S
C4475 C4472 1.499 . S
C4475 C4476 1.373 . S
C4475 C4477 1.389 . S
C4476 H4449 0.950 . S
C4476 C4462 1.377 . S
C4476 C4475 1.373 . S
C4477 C4461 1.377 . S
C4477 C4475 1.389 . S
C4477 C4478 1.524 . S
C4478 C4477 1.524 . S
C4478 C4479 1.397 . S
C4478 C4483 1.363 . S
C4479 H4450 0.950 . S
C4479 C4478 1.397 . S
C4479 C4480 1.334 . S
C4480 H4451 0.950 . S
C4480 C4479 1.334 . S
C4480 C4481 1.287 . S
C4481 C4480 1.287 . S
C4481 C4482 1.524 . S
C4481 H4484 0.999 . S
C4482 H4452 0.950 . S
C4482 C4481 1.524 . S
C4482 C4483 1.415 . S
C4483 H4453 0.950 . S
C4483 C4478 1.363 . S
C4483 C4482 1.415 . S
H4484 C4481 0.999 . S
H4485 C4466 0.913 . S
H4486 C4504 0.951 . S
H4487 C4506 0.951 . S
H4488 C4508 0.950 . S
H4489 C4509 0.950 . S
H4490 C4511 0.950 . S
H4491 C4514 0.950 . S
H4492 C4515 0.950 . S
H4493 C4517 0.950 . S
H4494 C4518 0.950 . S
H4495 C4519 0.951 . S
H4496 C4521 0.951 . S
H4497 C4523 0.950 . S
H4498 C4524 0.950 . S
H4499 C4526 0.950 . S
H4500 C4529 0.950 . S
H4501 C4530 0.950 . S
H4502 C4532 0.950 . S
H4503 C4533 0.950 . S
C4504 H4486 0.951 . S
C4504 C4505 1.366 . S
C4504 C4506 1.388 . S
C4505 C4504 1.366 . S
C4505 C4509 1.385 . S
C4506 H4487 0.951 . S
C4506 C4504 1.388 . S
C4506 C4507 1.366 . S
C4507 C4506 1.366 . S
C4507 C4508 1.414 . S
C4507 C4510 1.499 . S
C4508 H4488 0.950 . S
C4508 C4507 1.414 . S
C4508 C4509 1.374 . S
C4509 H4489 0.950 . S
C4509 C4505 1.385 . S
C4509 C4508 1.374 . S
C4510 C4507 1.499 . S
C4510 C4511 1.373 . S
C4510 C4512 1.389 . S
C4511 H4490 0.950 . S
C4511 C4510 1.373 . S
C4511 C4527 1.377 . S
C4512 C4510 1.389 . S
C4512 C4513 1.524 . S
C4512 C4526 1.377 . S
C4513 C4512 1.524 . S
C4513 C4514 1.397 . S
C4513 C4518 1.363 . S
C4514 H4491 0.950 . S
C4514 C4513 1.397 . S
C4514 C4515 1.334 . S
C4515 H4492 0.950 . S
C4515 C4514 1.334 . S
C4515 C4516 1.287 . S
C4516 C4515 1.287 . S
C4516 C4517 1.524 . S
C4516 H4535 0.913 . S
C4517 H4493 0.950 . S
C4517 C4516 1.524 . S
C4517 C4518 1.415 . S
C4518 H4494 0.950 . S
C4518 C4513 1.363 . S
C4518 C4517 1.415 . S
C4519 H4495 0.951 . S
C4519 C4520 1.366 . S
C4519 C4521 1.388 . S
C4520 C4519 1.366 . S
C4520 C4524 1.385 . S
C4521 H4496 0.951 . S
C4521 C4519 1.388 . S
C4521 C4522 1.366 . S
C4522 C4521 1.366 . S
C4522 C4523 1.414 . S
C4522 C4525 1.499 . S
C4523 H4497 0.950 . S
C4523 C4522 1.414 . S
C4523 C4524 1.374 . S
C4524 H4498 0.950 . S
C4524 C4520 1.385 . S
C4524 C4523 1.374 . S
C4525 C4522 1.499 . S
C4525 C4526 1.373 . S
C4525 C4527 1.389 . S
C4526 H4499 0.950 . S
C4526 C4512 1.377 . S
C4526 C4525 1.373 . S
C4527 C4511 1.377 . S
C4527 C4525 1.389 . S
C4527 C4528 1.524 . S
C4528 C4527 1.524 . S
C4528 C4529 1.397 . S
C4528 C4533 1.363 . S
C4529 H4500 0.950 . S
C4529 C4528 1.397 . S
C4529 C4530 1.334 . S
C4530 H4501 0.950 . S
C4530 C4529 1.334 . S
C4530 C4531 1.287 . S
C4531 C4530 1.287 . S
C4531 C4532 1.524 . S
C4531 H4534 0.999 . S
C4532 H4502 0.950 . S
C4532 C4531 1.524 . S
C4532 C4533 1.415 . S
C4533 H4503 0.950 . S
C4533 C4528 1.363 . S
C4533 C4532 1.415 . S
H4534 C4531 0.999 . S
H4535 C4516 0.913 . S
C1855 C781 1.394 . S
C1870 C1147 1.339 . S
C1905 C871 1.416 . S
C1920 C1231 1.372 . S
C1955 C751 1.419 . S
C1970 C1311 1.409 . S
C2005 C691 1.375 . S
C2020 C1227 1.366 . S
C2070 C1315 1.298 . S
C2055 C571 1.343 . S
C2105 C601 1.360 . S
C2120 C1143 1.339 . S
C2170 C1136 1.339 . S
C2155 C661 1.375 . S
C2220 C1220 1.372 . S
C2205 C541 1.407 . S
C2255 C631 1.444 . S
C2270 C1322 1.409 . S
C2305 C811 1.394 . S
C2320 C1238 1.366 . S
C2355 C841 1.338 . S
C2370 C1304 1.297 . S
C2420 C1154 1.339 . S
C2405 C721 1.336 . S
C2470 C1399 1.338 . S
C2455 C61 1.395 . S
C2505 C151 1.416 . S
C2520 C1483 1.372 . S
C2555 C31 1.419 . S
C2570 C1563 1.410 . S
C2605 C1051 1.375 . S
C2620 C1479 1.366 . S
C2655 C931 1.343 . S
C2670 C1567 1.297 . S
C2705 C961 1.359 . S
C2720 C1395 1.338 . S
C2755 C1021 1.375 . S
C2770 C1388 1.338 . S
C2805 C901 1.407 . S
C2820 C1472 1.372 . S
C2870 C1574 1.410 . S
C2855 C991 1.444 . S
C2905 C91 1.394 . S
C2920 C1490 1.366 . S
C2970 C1556 1.298 . S
C2955 C121 1.337 . S
C3005 C1 1.335 . S
C3020 C1406 1.338 . S
C3070 C1651 1.338 . S
C3055 C421 1.395 . S
C3105 C511 1.417 . S
C3120 C1735 1.373 . S
C3170 C1815 1.409 . S
C3155 C391 1.419 . S
C3220 C1731 1.367 . S
C3205 C331 1.376 . S
C3270 C1819 1.297 . S
C3255 C211 1.342 . S
C3305 C241 1.359 . S
C3320 C1647 1.338 . S
C3355 C301 1.375 . S
C3370 C1640 1.338 . S
C3405 C181 1.407 . S
C3420 C1724 1.372 . S
C3470 C1826 1.409 . S
C3455 C271 1.443 . S
C3505 C451 1.394 . S
C3520 C1742 1.366 . S
C3555 C481 1.337 . S
C3570 C1808 1.298 . S
C3605 C361 1.335 . S
C3620 C1658 1.339 . S
C3655 C920 1.396 . S
C3670 C1150 1.304 . S
C3720 C1234 1.354 . S
C3705 C980 1.479 . S
C3755 C1040 1.428 . S
C3770 C1306 1.325 . S
C3805 C380 1.468 . S
C3820 C1222 1.356 . S
C3855 C440 1.434 . S
C3870 C1318 1.325 . S
C3920 C1138 1.303 . S
C3905 C500 1.397 . S
C3955 C200 1.396 . S
C3970 C1402 1.303 . S
C4005 C260 1.479 . S
C4020 C1486 1.354 . S
C4055 C320 1.428 . S
C4070 C1558 1.325 . S
C4105 C740 1.467 . S
C4120 C1474 1.354 . S
C4170 C1570 1.324 . S
C4155 C800 1.434 . S
C4205 C860 1.397 . S
C4220 C1390 1.304 . S
C4255 C560 1.396 . S
C4270 C1654 1.304 . S
C4305 C620 1.479 . S
C4320 C1738 1.355 . S
C4370 C1810 1.324 . S
C4355 C680 1.427 . S
C4405 C20 1.467 . S
C4420 C1726 1.354 . S
C4455 C80 1.434 . S
C4470 C1822 1.325 . S
C4505 C140 1.397 . S
C4520 C1642 1.304 . S
