# Generated by pormake.
# Topology anh, (6,3)-cn, num edge types: 1
# Building blocks:
#     Node 0, Type 0, BuildingBlock: BETDIP_clean_sbu_0, # of connection points: 6
#     Node 1, Type 0, BuildingBlock: BETDIP_clean_sbu_0, # of connection points: 6
#     Node 2, Type 0, BuildingBlock: BETDIP_clean_sbu_0, # of connection points: 6
#     Node 3, Type 1, BuildingBlock: QEWDON_clean_linker_0, # of connection points: 3
#     Node 4, Type 1, BuildingBlock: QEWDON_clean_linker_0, # of connection points: 3
#     Node 5, Type 1, BuildingBlock: QEWDON_clean_linker_0, # of connection points: 3
#     Node 6, Type 1, BuildingBlock: QEWDON_clean_linker_0, # of connection points: 3
#     Node 7, Type 1, BuildingBlock: QEWDON_clean_linker_0, # of connection points: 3
#     Node 8, Type 1, BuildingBlock: QEWDON_clean_linker_0, # of connection points: 3
#     Edge 9, Type (0, 1), BuildingBlock: KIFKEQ_clean_linker_1, # of connection points: 2
#     Edge 10, Type (0, 1), BuildingBlock: KIFKEQ_clean_linker_1, # of connection points: 2
#     Edge 11, Type (0, 1), BuildingBlock: KIFKEQ_clean_linker_1, # of connection points: 2
#     Edge 12, Type (0, 1), BuildingBlock: KIFKEQ_clean_linker_1, # of connection points: 2
#     Edge 13, Type (0, 1), BuildingBlock: KIFKEQ_clean_linker_1, # of connection points: 2
#     Edge 14, Type (0, 1), BuildingBlock: KIFKEQ_clean_linker_1, # of connection points: 2
#     Edge 15, Type (0, 1), BuildingBlock: KIFKEQ_clean_linker_1, # of connection points: 2
#     Edge 16, Type (0, 1), BuildingBlock: KIFKEQ_clean_linker_1, # of connection points: 2
#     Edge 17, Type (0, 1), BuildingBlock: KIFKEQ_clean_linker_1, # of connection points: 2
#     Edge 18, Type (0, 1), BuildingBlock: KIFKEQ_clean_linker_1, # of connection points: 2
#     Edge 19, Type (0, 1), BuildingBlock: KIFKEQ_clean_linker_1, # of connection points: 2
#     Edge 20, Type (0, 1), BuildingBlock: KIFKEQ_clean_linker_1, # of connection points: 2
#     Edge 21, Type (0, 1), BuildingBlock: KIFKEQ_clean_linker_1, # of connection points: 2
#     Edge 22, Type (0, 1), BuildingBlock: KIFKEQ_clean_linker_1, # of connection points: 2
#     Edge 23, Type (0, 1), BuildingBlock: KIFKEQ_clean_linker_1, # of connection points: 2
#     Edge 24, Type (0, 1), BuildingBlock: KIFKEQ_clean_linker_1, # of connection points: 2
#     Edge 25, Type (0, 1), BuildingBlock: KIFKEQ_clean_linker_1, # of connection points: 2
#     Edge 26, Type (0, 1), BuildingBlock: KIFKEQ_clean_linker_1, # of connection points: 2
# Relax obj value: 0.227
# Max RMSD: 0.146
# Mean RMSD: 0.131
data_MOF--net-anh--node1-BETDIP_clean_sbu_0--node2-QEWDON_clean_linker_0--edge1-KIFKEQ_clean_linker_1
_symmetry_space_group_name_H-M    P1
_symmetry_Int_Tables_number       1
_symmetry_cell_setting            triclinic
loop_
_symmetry_equiv_pos_as_xyz
'x, y, z'
_cell_length_a     32.84313
_cell_length_b     32.506908
_cell_length_c     49.243717
_cell_angle_alpha  94.269998
_cell_angle_beta   92.088999
_cell_angle_gamma 120.45773
loop_
_atom_site_label
_atom_site_type_symbol
_atom_site_fract_x
_atom_site_fract_y
_atom_site_fract_z
_atom_type_partial_charge
Tb0 Tb 0.17357 0.65411 0.1603 0.0
Tb1 Tb 0.12646 0.55317 0.138 0.0
C2 C 0.22389 0.7322 0.18951 0.0
C3 C 0.27324 0.77137 0.18994 0.0
C4 C 0.29801 0.79703 0.21491 0.0
C5 C 0.34363 0.83682 0.2155 0.0
C6 C 0.36499 0.85171 0.19105 0.0
C7 C 0.34072 0.82491 0.1661 0.0
C8 C 0.29527 0.78473 0.16556 0.0
C9 C 0.16073 0.64072 0.10693 0.0
C10 C 0.23842 0.60518 0.14586 0.0
C11 C 1.07313 0.47428 0.10986 0.0
C12 C 1.02131 0.44771 0.10243 0.0
C13 C 1.00189 0.45886 0.08017 0.0
C14 C 0.95294 0.43963 0.07607 0.0
C15 C 0.92241 0.4088 0.0941 0.0
C16 C 0.94172 0.39509 0.11514 0.0
C17 C 0.99051 0.41406 0.11914 0.0
C18 C 0.13927 0.5693 0.19215 0.0
C19 C 1.06267 0.60347 0.14711 0.0
O20 O 0.21743 0.69127 0.19637 0.0
O21 O 0.1962 0.72682 0.16811 0.0
O22 O 0.17264 0.61838 0.122 0.0
O23 O 0.1603 0.67522 0.12152 0.0
O24 O 0.23557 0.64157 0.15851 0.0
O25 O 0.19915 0.56695 0.13381 0.0
O26 O 1.0978 0.51483 0.09932 0.0
O27 O 1.08661 0.47804 0.13573 0.0
O28 O 0.12632 0.58962 0.17611 0.0
O29 O 0.14368 0.53671 0.178 0.0
O30 O 1.06725 0.56891 0.13382 0.0
O31 O 1.09965 0.63837 0.16294 0.0
H32 H 0.28157 0.78707 0.23389 0.0
H33 H 0.36135 0.85722 0.235 0.0
H34 H 0.35656 0.83555 0.14703 0.0
H35 H 0.27688 0.7649 0.14605 0.0
H36 H 1.0246 0.48408 0.0666 0.0
H37 H 0.93921 0.45027 0.05937 0.0
H38 H 0.91956 0.37194 0.12969 0.0
H39 H 1.00424 0.40424 0.13625 0.0
Tb40 Tb 0.67572 0.09441 0.49815 0.0
Tb41 Tb 0.62233 0.14072 0.48027 0.0
C42 C 0.69755 1.04408 0.52401 0.0
C43 C 0.66902 0.99239 0.52672 0.0
C44 C 0.66263 0.97609 0.55269 0.0
C45 C 0.6307 0.92781 0.55556 0.0
C46 C 0.6046 0.89521 0.53247 0.0
C47 C 0.61199 0.91155 0.50648 0.0
C48 C 0.6436 0.9596 0.50364 0.0
C49 C 0.67707 0.10689 0.44618 0.0
C50 C 0.56056 1.02839 0.481 0.0
C51 C 0.59392 0.18781 0.45575 0.0
C52 C 0.61782 0.23122 0.44168 0.0
C53 C 0.66407 0.24862 0.43404 0.0
C54 C 0.69043 0.29508 0.42643 0.0
C55 C 0.67076 0.32468 0.42643 0.0
C56 C 0.62262 0.30493 0.43126 0.0
C57 C 0.5965 0.25866 0.43895 0.0
C58 C 0.6219 0.12843 0.53272 0.0
C59 C 0.73808 0.20396 0.49021 0.0
O60 O 0.68137 1.06993 0.53555 0.0
O61 O 0.71071 1.05567 0.49957 0.0
O62 O 0.64266 0.09477 0.46064 0.0
O63 O 0.71189 0.1085 0.46055 0.0
O64 O 0.60041 1.0317 0.49154 0.0
O65 O 0.56136 1.0671 0.47343 0.0
O66 O 0.59345 0.15003 0.44425 0.0
O67 O 0.60464 0.19437 0.48219 0.0
O68 O 0.65671 0.14152 0.51841 0.0
O69 O 0.58642 0.12461 0.51795 0.0
O70 O 0.69801 0.19845 0.47863 0.0
O71 O 0.73709 0.16868 0.50289 0.0
H72 H 0.68137 1.00096 0.57078 0.0
H73 H 0.62567 0.91623 0.57586 0.0
H74 H 0.59321 0.88718 0.48823 0.0
H75 H 0.64722 0.97118 0.48334 0.0
H76 H 0.68081 0.22751 0.43555 0.0
H77 H 0.72716 0.30898 0.42251 0.0
H78 H 0.60625 0.32667 0.43179 0.0
H79 H 0.56074 0.24566 0.44463 0.0
Tb80 Tb 0.59484 0.58221 0.83115 0.0
Tb81 Tb 0.69252 0.63064 0.81222 0.0
C82 C 0.52728 0.56719 0.85875 0.0
C83 C 0.51949 0.60368 0.87294 0.0
C84 C 0.55796 0.65068 0.87943 0.0
C85 C 0.55058 0.68787 0.88827 0.0
C86 C 0.50444 0.67893 0.89058 0.0
C87 C 0.46596 0.63142 0.88523 0.0
C88 C 0.47348 0.59406 0.8764 0.0
C89 C 0.59866 0.56507 0.77901 0.0
C90 C 0.64319 0.69369 0.81878 0.0
C91 C 0.7632 0.66609 0.78499 0.0
C92 C 0.79855 0.65231 0.78014 0.0
C93 C 0.82816 0.66968 0.75892 0.0
C94 C 0.86095 0.65517 0.75401 0.0
C95 C 0.86435 0.623 0.77025 0.0
C96 C 0.83345 0.6048 0.79101 0.0
C97 C 0.80077 0.61917 0.7958 0.0
C98 C 0.68832 0.6181 0.86486 0.0
C99 C 0.64182 0.51832 0.81894 0.0
O100 O 0.56431 0.56583 0.86842 0.0
O101 O 0.52451 0.56596 0.83208 0.0
O102 O 0.62362 0.60434 0.79365 0.0
O103 O 0.56759 0.53342 0.79327 0.0
O104 O 0.60486 0.65396 0.8248 0.0
O105 O 0.68269 0.6934 0.81415 0.0
O106 O 0.72038 0.63396 0.77447 0.0
O107 O 0.76383 0.68302 0.81018 0.0
O108 O 0.66375 0.62977 0.85069 0.0
O109 O 0.71897 0.61613 0.8498 0.0
O110 O 0.67359 0.55454 0.80631 0.0
O111 O 0.61042 0.52323 0.83321 0.0
H112 H 0.59374 0.65931 0.87637 0.0
H113 H 0.58092 0.72391 0.89243 0.0
H114 H 0.42987 0.62348 0.88645 0.0
H115 H 0.4433 0.55822 0.87105 0.0
H116 H 0.82608 0.69457 0.7463 0.0
H117 H 0.88402 0.66958 0.73777 0.0
H118 H 0.83564 0.58083 0.80434 0.0
H119 H 0.77756 0.60481 0.812 0.0
H120 H 0.68087 0.32121 0.27986 0.0
C121 C 0.66239 0.28528 0.2692 0.0
C122 C 0.66353 0.24793 0.28105 0.0
C123 C 0.63832 0.27612 0.24318 0.0
H124 H 0.64002 0.17281 0.2769 0.0
C125 C 0.63953 0.20159 0.26733 0.0
C126 C 0.61272 0.19124 0.24239 0.0
C127 C 0.61326 0.22895 0.23 0.0
C128 C 0.64052 0.31568 0.22905 0.0
H129 H 0.59295 0.22151 0.21056 0.0
C130 C 0.65528 0.32137 0.20255 0.0
C131 C 0.66001 0.35978 0.18887 0.0
C132 C 0.62938 0.34834 0.24184 0.0
H133 H 0.61781 0.34454 0.2623 0.0
C134 C 0.63288 0.38604 0.22811 0.0
H135 H 0.66561 0.29715 0.19316 0.0
C136 C 0.64848 0.39206 0.20184 0.0
H137 H 0.65211 0.42217 0.19182 0.0
H138 H 0.62416 0.41111 0.23803 0.0
H139 H 0.5389 0.52054 0.57285 0.0
C140 C 0.56703 0.52144 0.56156 0.0
C141 C 0.60733 0.52609 0.57563 0.0
C142 C 0.56266 0.51828 0.53301 0.0
H143 H 0.67551 0.5327 0.57144 0.0
C144 C 0.64427 0.52905 0.56072 0.0
C145 C 0.64041 0.52602 0.53197 0.0
C146 C 0.59914 0.52021 0.51831 0.0
C147 C 0.52114 0.51605 0.51878 0.0
H148 H 0.59511 0.51694 0.49617 0.0
C149 C 0.51057 0.55181 0.52607 0.0
C150 C 0.47329 0.55285 0.51192 0.0
C151 C 0.49335 0.48012 0.49743 0.0
H152 H 0.50103 0.45216 0.49147 0.0
C153 C 0.45535 0.48017 0.48366 0.0
H154 H 0.53337 0.58057 0.54183 0.0
C155 C 0.44553 0.5166 0.49066 0.0
H156 H 0.41683 0.51687 0.47929 0.0
H157 H 0.43398 0.45241 0.4672 0.0
H158 H 0.23179 0.73782 0.9215 0.0
C159 C 0.20614 0.71629 0.90434 0.0
C160 C 0.16919 0.66989 0.90756 0.0
C161 C 0.20906 0.73608 0.8796 0.0
H162 H 1.1073 0.60664 0.88797 0.0
C163 C 0.13541 0.64271 0.88551 0.0
C164 C 0.13701 0.66221 0.86073 0.0
C165 C 0.17418 0.70902 0.85801 0.0
C166 C 0.24937 0.78454 0.87621 0.0
H167 H 0.17577 0.72491 0.83923 0.0
C168 C 0.29533 0.79668 0.88544 0.0
C169 C 0.33472 0.84071 0.8809 0.0
C170 C 0.24299 0.81789 0.86284 0.0
H171 H 0.20784 0.80971 0.85569 0.0
C172 C 0.28222 0.86218 0.85853 0.0
H173 H 0.30085 0.7706 0.89491 0.0
C174 C 0.32811 0.8734 0.86719 0.0
H175 H 0.35828 0.90713 0.86301 0.0
H176 H 0.27707 0.88751 0.84804 0.0
H177 H 0.12221 0.58496 0.40934 0.0
C178 C 0.15551 0.61588 0.41781 0.0
C179 C 0.18842 0.64433 0.39969 0.0
C180 C 0.16388 0.62847 0.44641 0.0
H181 H 0.25628 0.70725 0.39637 0.0
C182 C 0.23082 0.68628 0.41037 0.0
C183 C 0.24157 0.70158 0.43857 0.0
C184 C 0.20822 0.67145 0.45647 0.0
C185 C 0.12474 0.59951 0.46525 0.0
H186 H 0.21676 0.68238 0.47818 0.0
C187 C 1.087 0.54971 0.45898 0.0
C188 C 1.05121 0.52584 0.47762 0.0
C189 C 0.12376 0.62362 0.48998 0.0
H190 H 0.14904 0.6613 0.49553 0.0
C191 C 1.0893 0.60055 0.50796 0.0
H192 H 1.0858 0.52942 0.44023 0.0
C193 C 1.05392 0.55265 0.50201 0.0
H194 H 1.02778 0.53644 0.51662 0.0
H195 H 1.08978 0.62034 0.52678 0.0
H196 H 0.62773 1.07837 0.7479 0.0
C197 C 0.631 0.11119 0.75719 0.0
C198 C 0.62898 0.14305 0.73978 0.0
C199 C 0.63531 0.12064 0.78607 0.0
H200 H 0.62888 0.20922 0.738 0.0
C201 C 0.63055 0.1849 0.7513 0.0
C202 C 0.63564 0.19704 0.7796 0.0
C203 C 0.63946 0.16553 0.79676 0.0
C204 C 0.63309 0.08327 0.80484 0.0
H205 H 0.64519 0.17672 0.8184 0.0
C206 C 0.63589 1.04098 0.79614 0.0
C207 C 0.63108 1.00694 0.81494 0.0
C208 C 0.62551 0.08895 0.83258 0.0
H209 H 0.62039 0.11745 0.84086 0.0
C210 C 0.62285 1.05725 0.85085 0.0
H211 H 0.64081 1.03377 0.77512 0.0
C212 C 0.62574 1.01727 0.8423 0.0
H213 H 0.62307 0.9936 0.85741 0.0
H214 H 0.61755 1.06335 0.87201 0.0
H215 H 0.64117 0.61603 0.07853 0.0
C216 C 0.6686 0.61121 0.08789 0.0
C217 C 0.69982 0.60529 0.07111 0.0
C218 C 0.6747 0.61496 0.11668 0.0
H219 H 0.75973 0.5948 0.07049 0.0
C220 C 0.73669 0.60066 0.08338 0.0
C221 C 0.74572 0.60474 0.11185 0.0
C222 C 0.71435 0.61207 0.12841 0.0
C223 C 0.64418 0.62875 0.13412 0.0
H224 H 0.72076 0.61518 0.15038 0.0
C225 C 0.59472 0.61465 0.12737 0.0
C226 C 0.57024 0.6317 0.1448 0.0
C227 C 0.66737 0.66063 0.15784 0.0
H228 H 0.70444 0.67404 0.16359 0.0
C229 C 0.64457 0.67805 0.17412 0.0
H230 H 0.57543 0.59019 0.10927 0.0
C231 C 0.59745 0.66423 0.16774 0.0
H232 H 0.58233 0.67999 0.18109 0.0
H233 H 0.664 0.70326 0.19196 0.0
H234 H 0.26499 0.55663 0.10801 0.0
H235 H 0.32303 0.65999 0.17935 0.0
H236 H 0.34127 0.56001 0.1052 0.0
H237 H 0.39867 0.66207 0.17712 0.0
H238 H 0.5075 0.61117 0.18462 0.0
H239 H 0.43142 0.60687 0.18364 0.0
H240 H 0.43222 0.61544 0.09689 0.0
H241 H 0.51104 0.62256 0.09804 0.0
C242 C 0.29381 0.58012 0.12325 0.0
C243 C 0.28661 0.60793 0.14401 0.0
C244 C 0.33814 0.58223 0.12151 0.0
C245 C 0.37735 0.61123 0.14091 0.0
C246 C 0.37002 0.63892 0.16171 0.0
C247 C 0.32616 0.63784 0.163 0.0
C248 C 0.49213 0.61238 0.16508 0.0
C249 C 0.51745 0.61812 0.14147 0.0
C250 C 0.44778 0.60999 0.16462 0.0
C251 C 0.42474 0.61165 0.14035 0.0
C252 C 0.44819 0.61427 0.11621 0.0
C253 C 0.49369 0.6179 0.11679 0.0
H254 H 0.83055 0.22661 0.50482 0.0
H255 H 0.75421 0.28704 0.46855 0.0
H256 H 0.90553 0.29875 0.49857 0.0
H257 H 0.82888 0.35961 0.46265 0.0
H258 H 0.97219 0.48017 0.4393 0.0
H259 H 0.89856 0.40303 0.44109 0.0
H260 H 0.96095 0.37813 0.51198 0.0
H261 H 1.03401 0.45404 0.50953 0.0
C262 C 0.82945 0.25533 0.49567 0.0
C263 C 0.78524 0.24997 0.48733 0.0
C264 C 0.87303 0.29744 0.49208 0.0
C265 C 0.87482 0.33656 0.47998 0.0
C266 C 0.83039 0.33097 0.47162 0.0
C267 C 0.78686 0.28885 0.47521 0.0
C268 C 0.97078 0.45741 0.45465 0.0
C269 C 1.01031 0.47358 0.47378 0.0
C270 C 0.92779 0.41312 0.45613 0.0
C271 C 0.92222 0.38294 0.47689 0.0
C272 C 0.96263 0.39871 0.49535 0.0
C273 C 1.00527 0.44279 0.49388 0.0
H274 H 0.5653 0.70552 0.81879 0.0
H275 H 0.71597 0.78649 0.81262 0.0
H276 H 0.56055 0.77651 0.81326 0.0
H277 H 0.71218 0.85892 0.80863 0.0
H278 H 0.69604 0.98696 0.79008 0.0
H279 H 0.6986 0.91263 0.78912 0.0
H280 H 0.56683 0.84555 0.82739 0.0
H281 H 0.56343 0.91784 0.8266 0.0
C282 C 0.59779 0.73867 0.81653 0.0
C283 C 0.64104 0.73924 0.81622 0.0
C284 C 0.59525 0.78039 0.81353 0.0
C285 C 0.636 0.82549 0.81056 0.0
C286 C 0.67939 0.82587 0.81036 0.0
C287 C 0.68177 0.78382 0.81294 0.0
C288 C 0.66684 0.95574 0.79739 0.0
C289 C 0.62925 0.95916 0.80811 0.0
C290 C 0.66867 0.91277 0.79745 0.0
C291 C 0.63319 0.87134 0.80847 0.0
C292 C 0.59495 0.87487 0.81823 0.0
C293 C 0.59294 0.91722 0.81786 0.0
H294 H 1.03417 0.66167 0.17516 0.0
H295 H 0.98194 0.54414 0.11163 0.0
H296 H 0.95948 0.66086 0.16987 0.0
H297 H 0.9084 0.54455 0.10524 0.0
H298 H 0.76374 0.53072 0.10289 0.0
H299 H 0.83624 0.52962 0.11267 0.0
H300 H 0.90313 0.67443 0.15215 0.0
H301 H 0.82904 0.67414 0.14325 0.0
C302 C 1.00692 0.63555 0.1599 0.0
C303 C 1.01533 0.60284 0.14402 0.0
C304 C 0.96334 0.63523 0.15662 0.0
C305 C 0.92558 0.60245 0.13705 0.0
C306 C 0.93452 0.56996 0.12111 0.0
C307 C 0.97778 0.56993 0.12462 0.0
C308 C 0.79352 0.56212 0.11423 0.0
C309 C 0.78908 0.60215 0.12259 0.0
C310 C 0.83627 0.5619 0.11954 0.0
C311 C 0.87797 0.60215 0.13301 0.0
C312 C 0.87305 0.642 0.14196 0.0
C313 C 0.82981 0.64193 0.13694 0.0
H314 H 0.47282 1.00882 0.45953 0.0
H315 H 0.5399 0.9369 0.49288 0.0
H316 H 0.39783 0.93324 0.45207 0.0
H317 H 0.46437 0.86014 0.48469 0.0
H318 H 0.30965 0.72868 0.48328 0.0
H319 H 0.38481 0.80529 0.49468 0.0
H320 H 0.35286 0.86113 0.42546 0.0
H321 H 0.27831 0.78631 0.41488 0.0
C322 C 0.47195 0.97686 0.46521 0.0
C323 C 0.51367 0.98009 0.47675 0.0
C324 C 0.42831 0.93269 0.46069 0.0
C325 C 0.42372 0.88897 0.46736 0.0
C326 C 0.46535 0.89225 0.47931 0.0
C327 C 0.50925 0.93669 0.48387 0.0
C328 C 0.31831 0.75752 0.47071 0.0
C329 C 0.28692 0.75006 0.44791 0.0
C330 C 0.36214 0.80178 0.47708 0.0
C331 C 0.37634 0.84086 0.46117 0.0
C332 C 0.34425 0.83331 0.43878 0.0
C333 C 0.30096 0.78941 0.43241 0.0
H334 H 0.56971 0.42673 0.82764 0.0
H335 H 0.71211 0.50073 0.80306 0.0
H336 H 0.56793 0.35022 0.82069 0.0
H337 H 0.71066 0.42456 0.79657 0.0
H338 H 0.70747 0.28173 0.8087 0.0
H339 H 0.70943 0.358 0.81952 0.0
H340 H 0.56552 0.29233 0.78391 0.0
H341 H 0.56416 0.2169 0.77275 0.0
C342 C 0.60089 0.427 0.82097 0.0
C343 C 0.64103 0.47077 0.81599 0.0
C344 C 0.59981 0.38271 0.8168 0.0
C345 C 0.63917 0.38023 0.808 0.0
C346 C 0.67963 0.42422 0.80357 0.0
C347 C 0.68036 0.4683 0.8072 0.0
C348 C 0.67596 0.2833 0.80361 0.0
C349 C 0.63541 0.24235 0.79013 0.0
C350 C 0.67719 0.32744 0.80955 0.0
C351 C 0.63761 0.33228 0.8027 0.0
C352 C 0.5967 0.29074 0.78992 0.0
C353 C 0.59586 0.24709 0.78349 0.0
H354 H 0.61597 0.83666 0.56499 0.0
H355 H 0.51676 0.83781 0.50549 0.0
H356 H 0.5663 0.74994 0.56347 0.0
H357 H 0.46689 0.75074 0.50387 0.0
H358 H 0.46516 0.60677 0.47482 0.0
H359 H 0.48275 0.68894 0.48405 0.0
H360 H 0.49025 0.67857 0.57086 0.0
H361 H 0.47266 0.59606 0.56152 0.0
C362 C 0.58285 0.81855 0.55218 0.0
C363 C 0.57066 0.84391 0.53501 0.0
C364 C 0.55421 0.7688 0.55136 0.0
C365 C 0.5128 0.74346 0.53338 0.0
C366 C 0.49889 0.76924 0.51765 0.0
C367 C 0.52752 0.819 0.51851 0.0
C368 C 0.46851 0.62129 0.49584 0.0
C369 C 0.46847 0.59547 0.51745 0.0
C370 C 0.47866 0.66848 0.50118 0.0
C371 C 0.48888 0.6905 0.52821 0.0
C372 C 0.48349 0.66278 0.54984 0.0
C373 C 0.47329 0.6156 0.54449 0.0
H374 H 0.86133 0.5379 0.77513 0.0
H375 H 0.95642 0.68562 0.76153 0.0
H376 H 0.92937 0.52996 0.78787 0.0
H377 H 1.02379 0.67704 0.77332 0.0
H378 H 0.14068 0.66149 0.80478 0.0
H379 H 1.07391 0.63635 0.77089 0.0
H380 H 0.97694 0.5773 0.83319 0.0
H381 H 1.04265 0.60442 0.86709 0.0
C382 C 0.89666 0.56812 0.77392 0.0
C383 C 0.9035 0.61292 0.76831 0.0
C384 C 0.93551 0.56336 0.78095 0.0
C385 C 0.98168 0.60314 0.78208 0.0
C386 C 0.98857 0.6457 0.77256 0.0
C387 C 0.94977 0.65065 0.76584 0.0
C388 C 1.10506 0.64259 0.81118 0.0
C389 C 1.09729 0.63625 0.83891 0.0
C390 C 1.06692 0.62765 0.79167 0.0
C391 C 1.0204 0.60514 0.79946 0.0
C392 C 1.01241 0.59402 0.82648 0.0
C393 C 1.05038 0.60974 0.84603 0.0
H394 H 0.38635 0.92469 0.15978 0.0
H395 H 0.44539 0.88242 0.2243 0.0
H396 H 0.45372 1.00675 0.1682 0.0
H397 H 0.513 0.96426 0.23251 0.0
H398 H 0.55765 0.11635 0.27052 0.0
H399 H 0.50685 1.03276 0.25342 0.0
H400 H 0.54286 1.06645 0.17127 0.0
H401 H 0.59545 0.15141 0.1887 0.0
C402 C 0.41458 0.93261 0.1751 0.0
C403 C 0.41039 0.89759 0.19177 0.0
C404 C 0.45315 0.97954 0.17988 0.0
C405 C 0.48802 0.99195 0.20134 0.0
C406 C 0.48603 0.95577 0.21619 0.0
C407 C 0.44745 0.90904 0.21153 0.0
C408 C 0.55576 0.10605 0.24887 0.0
C409 C 0.5813 0.14043 0.23103 0.0
C410 C 0.52662 1.05802 0.23907 0.0
C411 C 0.52171 1.04295 0.2111 0.0
C412 C 0.5464 1.0772 0.19299 0.0
C413 C 0.57617 0.12567 0.20291 0.0
H414 H 0.65406 0.38945 0.40311 0.0
H415 H 0.75719 0.38057 0.45534 0.0
H416 H 0.67757 0.46705 0.42688 0.0
H417 H 0.7826 0.45947 0.4782 0.0
H418 H 0.67586 0.56826 0.48531 0.0
H419 H 0.7164 0.54479 0.45251 0.0
H420 H 0.7272 0.45546 0.50977 0.0
H421 H 0.6869 0.47839 0.54194 0.0
C422 C 0.68367 0.40532 0.41862 0.0
C423 C 0.70161 0.37769 0.42851 0.0
C424 C 0.69758 0.45025 0.43223 0.0
C425 C 0.72998 0.46806 0.45564 0.0
C426 C 0.75596 0.44557 0.46102 0.0
C427 C 0.74156 0.40029 0.44767 0.0
C428 C 0.68809 0.54456 0.49106 0.0
C429 C 0.67672 0.52384 0.51583 0.0
C430 C 0.71165 0.53145 0.47235 0.0
C431 C 0.72409 0.49732 0.47812 0.0
C432 C 0.71843 0.48195 0.50445 0.0
C433 C 0.69487 0.49493 0.52305 0.0
H434 H 0.44158 0.68365 0.92358 0.0
H435 H 0.5482 0.76554 0.86969 0.0
H436 H 0.41857 0.74386 0.92641 0.0
H437 H 0.52664 0.82716 0.87352 0.0
H438 H 0.37465 0.84545 0.93111 0.0
H439 H 0.43451 0.82351 0.93968 0.0
H440 H 0.45742 0.82503 0.85375 0.0
H441 H 0.3989 0.84854 0.84565 0.0
C442 C 0.46077 0.71507 0.91282 0.0
C443 C 0.49611 0.71941 0.8961 0.0
C444 C 0.44818 0.75012 0.91478 0.0
C445 C 0.47074 0.79042 0.90011 0.0
C446 C 0.50836 0.79638 0.88488 0.0
C447 C 0.52088 0.76119 0.88285 0.0
C448 C 0.39448 0.84357 0.91444 0.0
C449 C 0.3821 0.84806 0.88772 0.0
C450 C 0.4283 0.83048 0.91923 0.0
C451 C 0.44951 0.82092 0.89726 0.0
C452 C 0.44173 0.83196 0.87117 0.0
C453 C 0.40824 0.84557 0.86645 0.0
H454 H 0.88467 0.46456 0.08256 0.0
H455 H 0.84541 0.32352 0.10433 0.0
H456 H 0.80717 0.45086 0.09317 0.0
H457 H 0.76958 0.31138 0.1167 0.0
H458 H 0.64031 0.29488 0.14443 0.0
H459 H 0.69303 0.30391 0.10871 0.0
H460 H 0.78455 0.45328 0.13948 0.0
H461 H 0.73181 0.44423 0.17478 0.0
C462 C 0.85924 0.43021 0.08898 0.0
C463 C 0.8719 0.39573 0.09348 0.0
C464 C 0.81502 0.42268 0.09537 0.0
C465 C 0.78288 0.38087 0.10667 0.0
C466 C 0.79345 0.34419 0.10815 0.0
C467 C 0.83737 0.35144 0.10146 0.0
C468 C 0.67096 0.32997 0.14293 0.0
C469 C 0.68264 0.36858 0.16275 0.0
C470 C 0.70114 0.33513 0.12252 0.0
C471 C 0.74359 0.37895 0.12165 0.0
C472 C 0.75213 0.41899 0.13944 0.0
C473 C 0.72187 0.41384 0.1598 0.0
H474 H 0.12173 0.67606 0.07357 0.0
H475 H 0.18989 0.59212 0.07284 0.0
H476 H 0.11898 0.67199 0.02385 0.0
H477 H 0.18769 0.58851 0.02275 0.0
H478 H 0.23699 0.67231 0.94277 0.0
H479 H 0.22991 0.65508 -0.00952 0.0
H480 H 1.08161 0.61094 0.98155 0.0
H481 H 1.0887 0.62845 0.93401 0.0
C482 C 0.13576 0.6564 0.06268 0.0
C483 C 0.1563 0.6347 0.0769 0.0
C484 C 0.13388 0.65376 0.03425 0.0
C485 C 0.15305 0.62985 0.01951 0.0
C486 C 0.17277 0.60722 0.0337 0.0
C487 C 0.17394 0.6092 0.06223 0.0
C488 C 0.20275 0.65814 0.95092 0.0
C489 C 0.16349 0.65206 0.9348 0.0
C490 C 0.19861 0.64793 0.9781 0.0
C491 C 0.15529 0.63202 0.98967 0.0
C492 C 0.11547 0.62347 0.97312 0.0
C493 C 0.11947 0.63319 0.9459 0.0
H494 H 0.75949 0.17829 0.42944 0.0
H495 H 0.60833 0.09396 0.40863 0.0
H496 H 0.7674 0.22835 0.39272 0.0
H497 H 0.61599 0.14436 0.37248 0.0
H498 H 0.62991 0.26127 0.32803 0.0
H499 H 0.64031 0.23347 0.37109 0.0
H500 H 0.75114 0.21432 0.3394 0.0
H501 H 0.74024 0.2417 0.29626 0.0
C502 C 0.72809 0.17019 0.4168 0.0
C503 C 0.68313 0.13278 0.42197 0.0
C504 C 0.7326 0.19905 0.39604 0.0
C505 C 0.69216 0.19097 0.38033 0.0
C506 C 0.64757 0.15225 0.38485 0.0
C507 C 0.64319 0.12322 0.40533 0.0
C508 C 0.65824 0.25369 0.33089 0.0
C509 C 0.68438 0.25363 0.30902 0.0
C510 C 0.66374 0.23712 0.35532 0.0
C511 C 0.69581 0.2208 0.35823 0.0
C512 C 0.72616 0.22664 0.33764 0.0
C513 C 0.72026 0.24269 0.31308 0.0
H514 H 0.56201 0.47962 0.74746 0.0
H515 H 0.64566 0.63288 0.74489 0.0
H516 H 0.56885 0.46691 0.69866 0.0
H517 H 0.65172 0.62054 0.69615 0.0
H518 H 0.68341 0.58543 0.61249 0.0
H519 H 0.68518 0.59173 0.66232 0.0
H520 H 0.5384 0.47772 0.65654 0.0
H521 H 0.53741 0.46998 0.60703 0.0
C522 C 0.58178 0.51051 0.73639 0.0
C523 C 0.60328 0.55716 0.74979 0.0
C524 C 0.58568 0.50332 0.70849 0.0
C525 C 0.61084 0.54273 0.69348 0.0
C526 C 0.63283 0.58938 0.70714 0.0
C527 C 0.6291 0.59649 0.73501 0.0
C528 C 0.65187 0.56113 0.62193 0.0
C529 C 0.61011 0.52761 0.60585 0.0
C530 C 0.6527 0.56506 0.65045 0.0
C531 C 0.61179 0.53553 0.66342 0.0
C532 C 0.57066 0.50078 0.64729 0.0
C533 C 0.56989 0.49677 0.61887 0.0
H534 H 0.69833 0.15454 0.56964 0.0
H535 H 0.54689 0.0944 0.56363 0.0
H536 H 0.69861 0.15296 0.61936 0.0
H537 H 0.54673 0.09165 0.6129 0.0
H538 H 0.57068 0.15183 0.70253 0.0
H539 H 0.56965 0.14554 0.65304 0.0
H540 H 0.67594 0.10484 0.65761 0.0
H541 H 0.67812 0.11295 0.70765 0.0
C542 C 0.66504 0.14045 0.57891 0.0
C543 C 0.62264 0.12494 0.5627 0.0
C544 C 0.6651 0.13929 0.60743 0.0
C545 C 0.62272 0.12257 0.62042 0.0
C546 C 0.58024 0.10575 0.6039 0.0
C547 C 0.58026 0.10709 0.57553 0.0
C548 C 0.59387 0.14148 0.69306 0.0
C549 C 0.62476 0.13328 0.70923 0.0
C550 C 0.59295 0.13738 0.66451 0.0
C551 C 0.62275 0.1247 0.65104 0.0
C552 C 0.65287 0.11525 0.66716 0.0
C553 C 0.65371 0.11929 0.69588 0.0
H554 H 0.74119 0.59423 0.89685 0.0
H555 H 0.63505 0.63451 0.9011 0.0
H556 H 0.74227 0.58997 0.94622 0.0
H557 H 0.63526 0.62944 0.95036 0.0
H558 H 0.61935 0.56831 0.03506 0.0
H559 H 0.61494 0.57046 0.98545 0.0
H560 H 0.76763 0.64718 0.98836 0.0
H561 H 0.77232 0.6466 0.03764 0.0
C562 C 0.71783 0.60194 0.90827 0.0
C563 C 0.68769 0.61438 0.89488 0.0
C564 C 0.71853 0.59962 0.93663 0.0
C565 C 0.6888 0.60931 0.95238 0.0
C566 C 0.65819 0.62114 0.9389 0.0
C567 C 0.65798 0.62401 0.91058 0.0
C568 C 0.65203 0.58607 0.02521 0.0
C569 C 0.69618 0.60665 0.04064 0.0
C570 C 0.64947 0.58718 -0.0033 0.0
C571 C 0.69094 0.60851 0.98279 0.0
C572 C 0.73494 0.6295 -0.00178 0.0
C573 C 0.73754 0.62893 0.02663 0.0
H574 H 0.1658 0.52697 0.22958 0.0
H575 H 0.12527 0.63329 0.22347 0.0
H576 H 0.17583 0.54368 0.27945 0.0
H577 H 0.1342 0.6494 0.27317 0.0
H578 H 0.20482 0.70483 0.36006 0.0
H579 H 0.19294 0.68594 0.31069 0.0
H580 H 0.1351 0.53584 0.32029 0.0
H581 H 0.14888 0.55519 0.36998 0.0
C582 C 0.15881 0.55376 0.23891 0.0
C583 C 0.14488 0.57888 0.22253 0.0
C584 C 0.16423 0.56316 0.26756 0.0
C585 C 0.15593 0.59803 0.28061 0.0
C586 C 0.14167 0.62285 0.26405 0.0
C587 C 0.13626 0.61343 0.23546 0.0
C588 C 0.18992 0.66777 0.35174 0.0
C589 C 0.17828 0.63166 0.36923 0.0
C590 C 0.18251 0.65679 0.32326 0.0
C591 C 0.163 0.60926 0.3112 0.0
C592 C 0.15074 0.57296 0.32868 0.0
C593 C 0.15813 0.58397 0.35727 0.0
loop_
_geom_bond_atom_site_label_1
_geom_bond_atom_site_label_2
_geom_bond_distance
_geom_bond_site_symmetry_2
_ccdc_geom_bond_type
Tb0 C2 2.809 . S
Tb0 O20 2.484 . S
Tb0 O21 2.440 . S
Tb0 O22 2.658 . S
Tb0 O23 2.409 . S
Tb0 O24 2.378 . S
Tb0 O28 2.325 . S
Tb0 O31 2.341 1_455 S
Tb1 C11 2.809 . S
Tb1 O22 2.325 1_655 S
Tb1 O25 2.341 1_655 S
Tb1 O26 2.484 . S
Tb1 O27 2.440 . S
Tb1 O28 2.658 1_655 S
Tb1 O29 2.409 1_655 S
Tb1 O30 2.378 . S
C2 Tb0 2.809 . S
C2 C3 1.514 . S
C2 O20 1.248 . S
C2 O21 1.266 . S
C3 C2 1.514 . S
C3 C4 1.359 . S
C3 C8 1.348 . S
C4 C3 1.359 . S
C4 C5 1.380 . S
C4 H32 0.929 . S
C5 C4 1.380 . S
C5 C6 1.347 . S
C5 H33 0.931 . S
C6 C5 1.347 . S
C6 C7 1.369 . S
C7 C6 1.369 . S
C7 C8 1.408 . S
C7 H34 0.930 . S
C8 C3 1.348 . S
C8 C7 1.408 . S
C8 H35 0.930 . S
C9 O22 1.281 . S
C9 O23 1.254 . S
C10 O24 1.236 . S
C10 O25 1.266 . S
C11 Tb1 2.809 . S
C11 C12 1.514 . S
C11 O26 1.248 . S
C11 O27 1.266 . S
C12 C11 1.514 . S
C12 C13 1.359 . S
C12 C17 1.348 . S
C13 C12 1.359 . S
C13 C14 1.380 . S
C13 H36 0.929 . S
C14 C13 1.380 . S
C14 C15 1.347 . S
C14 H37 0.931 . S
C15 C14 1.347 . S
C15 C16 1.369 . S
C16 C15 1.369 . S
C16 C17 1.408 . S
C16 H38 0.930 . S
C17 C12 1.348 . S
C17 C16 1.408 . S
C17 H39 0.930 . S
C18 O28 1.281 . S
C18 O29 1.254 . S
C19 O30 1.236 . S
C19 O31 1.266 . S
O20 Tb0 2.484 . S
O20 C2 1.248 . S
O21 Tb0 2.440 . S
O21 C2 1.266 . S
O22 Tb0 2.658 . S
O22 Tb1 2.325 1_455 S
O22 C9 1.281 . S
O23 Tb0 2.409 . S
O23 C9 1.254 . S
O24 Tb0 2.378 . S
O24 C10 1.236 . S
O25 Tb1 2.341 1_455 S
O25 C10 1.266 . S
O26 Tb1 2.484 . S
O26 C11 1.248 . S
O27 Tb1 2.440 . S
O27 C11 1.266 . S
O28 Tb0 2.325 . S
O28 Tb1 2.658 1_455 S
O28 C18 1.281 . S
O29 Tb1 2.409 1_455 S
O29 C18 1.254 . S
O30 Tb1 2.378 . S
O30 C19 1.236 . S
O31 Tb0 2.341 1_655 S
O31 C19 1.266 . S
H32 C4 0.929 . S
H33 C5 0.931 . S
H34 C7 0.930 . S
H35 C8 0.930 . S
H36 C13 0.929 . S
H37 C14 0.931 . S
H38 C16 0.930 . S
H39 C17 0.930 . S
Tb40 C42 2.809 1_545 S
Tb40 O60 2.484 1_545 S
Tb40 O61 2.440 1_545 S
Tb40 O62 2.658 . S
Tb40 O63 2.409 . S
Tb40 O64 2.378 1_545 S
Tb40 O68 2.325 . S
Tb40 O71 2.341 . S
Tb41 C51 2.809 . S
Tb41 O62 2.325 . S
Tb41 O65 2.341 . S
Tb41 O66 2.484 . S
Tb41 O67 2.440 . S
Tb41 O68 2.658 . S
Tb41 O69 2.409 . S
Tb41 O70 2.378 . S
C42 Tb40 2.809 1_565 S
C42 C43 1.514 . S
C42 O60 1.248 . S
C42 O61 1.266 . S
C43 C42 1.514 . S
C43 C44 1.359 . S
C43 C48 1.348 . S
C44 C43 1.359 . S
C44 C45 1.380 . S
C44 H72 0.929 . S
C45 C44 1.380 . S
C45 C46 1.347 . S
C45 H73 0.931 . S
C46 C45 1.347 . S
C46 C47 1.369 . S
C47 C46 1.369 . S
C47 C48 1.408 . S
C47 H74 0.930 . S
C48 C43 1.348 . S
C48 C47 1.408 . S
C48 H75 0.930 . S
C49 O62 1.281 . S
C49 O63 1.254 . S
C50 O64 1.236 . S
C50 O65 1.266 1_565 S
C51 Tb41 2.809 . S
C51 C52 1.514 . S
C51 O66 1.248 . S
C51 O67 1.266 . S
C52 C51 1.514 . S
C52 C53 1.359 . S
C52 C57 1.348 . S
C53 C52 1.359 . S
C53 C54 1.380 . S
C53 H76 0.929 . S
C54 C53 1.380 . S
C54 C55 1.347 . S
C54 H77 0.931 . S
C55 C54 1.347 . S
C55 C56 1.369 . S
C56 C55 1.369 . S
C56 C57 1.408 . S
C56 H78 0.930 . S
C57 C52 1.348 . S
C57 C56 1.408 . S
C57 H79 0.930 . S
C58 O68 1.281 . S
C58 O69 1.254 . S
C59 O70 1.236 . S
C59 O71 1.266 . S
O60 Tb40 2.484 1_565 S
O60 C42 1.248 . S
O61 Tb40 2.440 1_565 S
O61 C42 1.266 . S
O62 Tb40 2.658 . S
O62 Tb41 2.325 . S
O62 C49 1.281 . S
O63 Tb40 2.409 . S
O63 C49 1.254 . S
O64 Tb40 2.378 1_565 S
O64 C50 1.236 . S
O65 Tb41 2.341 . S
O65 C50 1.266 1_545 S
O66 Tb41 2.484 . S
O66 C51 1.248 . S
O67 Tb41 2.440 . S
O67 C51 1.266 . S
O68 Tb40 2.325 . S
O68 Tb41 2.658 . S
O68 C58 1.281 . S
O69 Tb41 2.409 . S
O69 C58 1.254 . S
O70 Tb41 2.378 . S
O70 C59 1.236 . S
O71 Tb40 2.341 . S
O71 C59 1.266 . S
H72 C44 0.929 . S
H73 C45 0.931 . S
H74 C47 0.930 . S
H75 C48 0.930 . S
H76 C53 0.929 . S
H77 C54 0.931 . S
H78 C56 0.930 . S
H79 C57 0.930 . S
Tb80 C82 2.809 . S
Tb80 O100 2.484 . S
Tb80 O101 2.440 . S
Tb80 O102 2.658 . S
Tb80 O103 2.409 . S
Tb80 O104 2.378 . S
Tb80 O108 2.325 . S
Tb80 O111 2.341 . S
Tb81 C91 2.809 . S
Tb81 O102 2.325 . S
Tb81 O105 2.341 . S
Tb81 O106 2.484 . S
Tb81 O107 2.440 . S
Tb81 O108 2.658 . S
Tb81 O109 2.409 . S
Tb81 O110 2.378 . S
C82 Tb80 2.809 . S
C82 C83 1.514 . S
C82 O100 1.248 . S
C82 O101 1.266 . S
C83 C82 1.514 . S
C83 C84 1.359 . S
C83 C88 1.348 . S
C84 C83 1.359 . S
C84 C85 1.380 . S
C84 H112 0.929 . S
C85 C84 1.380 . S
C85 C86 1.347 . S
C85 H113 0.931 . S
C86 C85 1.347 . S
C86 C87 1.369 . S
C87 C86 1.369 . S
C87 C88 1.408 . S
C87 H114 0.930 . S
C88 C83 1.348 . S
C88 C87 1.408 . S
C88 H115 0.930 . S
C89 O102 1.281 . S
C89 O103 1.254 . S
C90 O104 1.236 . S
C90 O105 1.266 . S
C91 Tb81 2.809 . S
C91 C92 1.514 . S
C91 O106 1.248 . S
C91 O107 1.266 . S
C92 C91 1.514 . S
C92 C93 1.359 . S
C92 C97 1.348 . S
C93 C92 1.359 . S
C93 C94 1.380 . S
C93 H116 0.929 . S
C94 C93 1.380 . S
C94 C95 1.347 . S
C94 H117 0.931 . S
C95 C94 1.347 . S
C95 C96 1.369 . S
C96 C95 1.369 . S
C96 C97 1.408 . S
C96 H118 0.930 . S
C97 C92 1.348 . S
C97 C96 1.408 . S
C97 H119 0.930 . S
C98 O108 1.281 . S
C98 O109 1.254 . S
C99 O110 1.236 . S
C99 O111 1.266 . S
O100 Tb80 2.484 . S
O100 C82 1.248 . S
O101 Tb80 2.440 . S
O101 C82 1.266 . S
O102 Tb80 2.658 . S
O102 Tb81 2.325 . S
O102 C89 1.281 . S
O103 Tb80 2.409 . S
O103 C89 1.254 . S
O104 Tb80 2.378 . S
O104 C90 1.236 . S
O105 Tb81 2.341 . S
O105 C90 1.266 . S
O106 Tb81 2.484 . S
O106 C91 1.248 . S
O107 Tb81 2.440 . S
O107 C91 1.266 . S
O108 Tb80 2.325 . S
O108 Tb81 2.658 . S
O108 C98 1.281 . S
O109 Tb81 2.409 . S
O109 C98 1.254 . S
O110 Tb81 2.378 . S
O110 C99 1.236 . S
O111 Tb80 2.341 . S
O111 C99 1.266 . S
H112 C84 0.929 . S
H113 C85 0.931 . S
H114 C87 0.930 . S
H115 C88 0.930 . S
H116 C93 0.929 . S
H117 C94 0.931 . S
H118 C96 0.930 . S
H119 C97 0.930 . S
H120 C121 0.949 . S
C121 H120 0.949 . S
C121 C122 1.395 . S
C121 C123 1.391 . S
C122 C121 1.395 . S
C122 C125 1.390 . S
C123 C121 1.391 . S
C123 C127 1.387 . S
C123 C128 1.491 . S
H124 C125 0.941 1_565 S
C125 C122 1.390 . S
C125 H124 0.941 1_545 S
C125 C126 1.378 . S
C126 C125 1.378 . S
C126 C127 1.409 . S
C127 C123 1.387 . S
C127 C126 1.409 . S
C127 H129 0.951 . S
C128 C123 1.491 . S
C128 C130 1.382 . S
C128 C132 1.404 . S
H129 C127 0.951 . S
C130 C128 1.382 . S
C130 C131 1.390 . S
C130 H135 0.949 . S
C131 C130 1.390 . S
C131 C136 1.399 . S
C132 C128 1.404 . S
C132 H133 0.950 . S
C132 C134 1.375 . S
H133 C132 0.950 . S
C134 C132 1.375 . S
C134 C136 1.382 . S
C134 H138 0.950 . S
H135 C130 0.949 . S
C136 C131 1.399 . S
C136 C134 1.382 . S
C136 H137 0.952 . S
H137 C136 0.952 . S
H138 C134 0.950 . S
H139 C140 0.949 . S
C140 H139 0.949 . S
C140 C141 1.395 . S
C140 C142 1.391 . S
C141 C140 1.395 . S
C141 C144 1.390 . S
C142 C140 1.391 . S
C142 C146 1.387 . S
C142 C147 1.491 . S
H143 C144 0.950 . S
C144 C141 1.390 . S
C144 H143 0.950 . S
C144 C145 1.378 . S
C145 C144 1.378 . S
C145 C146 1.409 . S
C146 C142 1.387 . S
C146 C145 1.409 . S
C146 H148 0.951 . S
C147 C142 1.491 . S
C147 C149 1.382 . S
C147 C151 1.404 . S
H148 C146 0.951 . S
C149 C147 1.382 . S
C149 C150 1.390 . S
C149 H154 0.949 . S
C150 C149 1.390 . S
C150 C155 1.399 . S
C151 C147 1.404 . S
C151 H152 0.950 . S
C151 C153 1.375 . S
H152 C151 0.950 . S
C153 C151 1.375 . S
C153 C155 1.382 . S
C153 H157 0.950 . S
H154 C149 0.949 . S
C155 C150 1.399 . S
C155 C153 1.382 . S
C155 H156 0.952 . S
H156 C155 0.952 . S
H157 C153 0.950 . S
H158 C159 0.949 . S
C159 H158 0.949 . S
C159 C160 1.395 . S
C159 C161 1.391 . S
C160 C159 1.395 . S
C160 C163 1.390 1_455 S
C161 C159 1.391 . S
C161 C165 1.387 1_455 S
C161 C166 1.491 . S
H162 C163 0.950 . S
C163 C160 1.390 1_655 S
C163 H162 0.950 . S
C163 C164 1.378 . S
C164 C163 1.378 . S
C164 C165 1.409 . S
C165 C161 1.387 1_655 S
C165 C164 1.409 . S
C165 H167 0.951 . S
C166 C161 1.491 . S
C166 C168 1.382 . S
C166 C170 1.404 . S
H167 C165 0.951 . S
C168 C166 1.382 . S
C168 C169 1.390 . S
C168 H173 0.949 . S
C169 C168 1.390 . S
C169 C174 1.399 . S
C170 C166 1.404 . S
C170 H171 0.950 . S
C170 C172 1.375 . S
H171 C170 0.950 . S
C172 C170 1.375 . S
C172 C174 1.382 . S
C172 H176 0.950 . S
H173 C168 0.949 . S
C174 C169 1.399 . S
C174 C172 1.382 . S
C174 H175 0.952 . S
H175 C174 0.952 . S
H176 C172 0.950 . S
H177 C178 0.949 1_655 S
C178 H177 0.949 1_455 S
C178 C179 1.395 . S
C178 C180 1.391 . S
C179 C178 1.395 . S
C179 C182 1.390 . S
C180 C178 1.391 . S
C180 C184 1.387 . S
C180 C185 1.491 1_455 S
H181 C182 0.950 . S
C182 C179 1.390 . S
C182 H181 0.950 . S
C182 C183 1.378 . S
C183 C182 1.378 . S
C183 C184 1.409 . S
C184 C180 1.387 . S
C184 C183 1.409 . S
C184 H186 0.951 . S
C185 C180 1.491 1_655 S
C185 C187 1.382 . S
C185 C189 1.404 . S
H186 C184 0.951 . S
C187 C185 1.382 . S
C187 C188 1.390 . S
C187 H192 0.949 . S
C188 C187 1.390 . S
C188 C193 1.399 . S
C189 C185 1.404 . S
C189 H190 0.951 . S
C189 C191 1.375 . S
H190 C189 0.951 . S
C191 C189 1.375 . S
C191 C193 1.382 . S
C191 H195 0.950 . S
H192 C187 0.949 . S
C193 C188 1.399 . S
C193 C191 1.382 . S
C193 H194 0.952 . S
H194 C193 0.952 . S
H195 C191 0.950 . S
H196 C197 0.949 1_565 S
C197 H196 0.949 1_545 S
C197 C198 1.395 . S
C197 C199 1.391 . S
C198 C197 1.395 . S
C198 C201 1.390 . S
C199 C197 1.391 . S
C199 C203 1.387 . S
C199 C204 1.491 1_545 S
H200 C201 0.950 . S
C201 C198 1.390 . S
C201 H200 0.950 . S
C201 C202 1.378 . S
C202 C201 1.378 . S
C202 C203 1.409 . S
C203 C199 1.387 . S
C203 C202 1.409 . S
C203 H205 0.951 . S
C204 C199 1.491 1_565 S
C204 C206 1.382 . S
C204 C208 1.404 . S
H205 C203 0.951 . S
C206 C204 1.382 . S
C206 C207 1.390 . S
C206 H211 0.949 . S
C207 C206 1.390 . S
C207 C212 1.399 . S
C208 C204 1.404 . S
C208 H209 0.950 . S
C208 C210 1.375 . S
H209 C208 0.950 . S
C210 C208 1.375 . S
C210 C212 1.382 . S
C210 H214 0.950 . S
H211 C206 0.949 . S
C212 C207 1.399 . S
C212 C210 1.382 . S
C212 H213 0.952 . S
H213 C212 0.952 . S
H214 C210 0.950 . S
H215 C216 0.949 . S
C216 H215 0.949 . S
C216 C217 1.395 . S
C216 C218 1.391 . S
C217 C216 1.395 . S
C217 C220 1.390 . S
C218 C216 1.391 . S
C218 C222 1.387 . S
C218 C223 1.491 . S
H219 C220 0.950 . S
C220 C217 1.390 . S
C220 H219 0.950 . S
C220 C221 1.378 . S
C221 C220 1.378 . S
C221 C222 1.409 . S
C222 C218 1.387 . S
C222 C221 1.409 . S
C222 H224 0.951 . S
C223 C218 1.491 . S
C223 C225 1.382 . S
C223 C227 1.404 . S
H224 C222 0.951 . S
C225 C223 1.382 . S
C225 C226 1.390 . S
C225 H230 0.949 . S
C226 C225 1.390 . S
C226 C231 1.399 . S
C227 C223 1.404 . S
C227 H228 0.950 . S
C227 C229 1.375 . S
H228 C227 0.950 . S
C229 C227 1.375 . S
C229 C231 1.382 . S
C229 H233 0.950 . S
H230 C225 0.949 . S
C231 C226 1.399 . S
C231 C229 1.382 . S
C231 H232 0.952 . S
H232 C231 0.952 . S
H233 C229 0.950 . S
H234 C242 0.950 . S
H235 C247 0.950 . S
H236 C244 0.950 . S
H237 C246 0.950 . S
H238 C248 0.950 . S
H239 C250 0.950 . S
H240 C252 0.950 . S
H241 C253 0.950 . S
C242 H234 0.950 . S
C242 C243 1.386 . S
C242 C244 1.391 . S
C243 C242 1.386 . S
C243 C247 1.393 . S
C244 H236 0.950 . S
C244 C242 1.391 . S
C244 C245 1.400 . S
C245 C244 1.400 . S
C245 C246 1.398 . S
C245 C251 1.491 . S
C246 H237 0.950 . S
C246 C245 1.398 . S
C246 C247 1.391 . S
C247 H235 0.950 . S
C247 C243 1.393 . S
C247 C246 1.391 . S
C248 H238 0.950 . S
C248 C249 1.386 . S
C248 C250 1.391 . S
C249 C248 1.386 . S
C249 C253 1.393 . S
C250 H239 0.950 . S
C250 C248 1.391 . S
C250 C251 1.400 . S
C251 C245 1.491 . S
C251 C250 1.400 . S
C251 C252 1.398 . S
C252 H240 0.950 . S
C252 C251 1.398 . S
C252 C253 1.391 . S
C253 H241 0.950 . S
C253 C249 1.393 . S
C253 C252 1.391 . S
H254 C262 0.950 . S
H255 C267 0.950 . S
H256 C264 0.950 . S
H257 C266 0.950 . S
H258 C268 0.950 . S
H259 C270 0.950 . S
H260 C272 0.950 . S
H261 C273 0.950 . S
C262 H254 0.950 . S
C262 C263 1.386 . S
C262 C264 1.391 . S
C263 C262 1.386 . S
C263 C267 1.393 . S
C264 H256 0.950 . S
C264 C262 1.391 . S
C264 C265 1.400 . S
C265 C264 1.400 . S
C265 C266 1.398 . S
C265 C271 1.491 . S
C266 H257 0.950 . S
C266 C265 1.398 . S
C266 C267 1.391 . S
C267 H255 0.950 . S
C267 C263 1.393 . S
C267 C266 1.391 . S
C268 H258 0.950 . S
C268 C269 1.386 . S
C268 C270 1.391 . S
C269 C268 1.386 . S
C269 C273 1.393 . S
C270 H259 0.950 . S
C270 C268 1.391 . S
C270 C271 1.400 . S
C271 C265 1.491 . S
C271 C270 1.400 . S
C271 C272 1.398 . S
C272 H260 0.950 . S
C272 C271 1.398 . S
C272 C273 1.391 . S
C273 H261 0.950 . S
C273 C269 1.393 . S
C273 C272 1.391 . S
H274 C282 0.950 . S
H275 C287 0.950 . S
H276 C284 0.950 . S
H277 C286 0.950 . S
H278 C288 0.950 . S
H279 C290 0.950 . S
H280 C292 0.950 . S
H281 C293 0.950 . S
C282 H274 0.950 . S
C282 C283 1.386 . S
C282 C284 1.391 . S
C283 C282 1.386 . S
C283 C287 1.393 . S
C284 H276 0.950 . S
C284 C282 1.391 . S
C284 C285 1.400 . S
C285 C284 1.400 . S
C285 C286 1.398 . S
C285 C291 1.491 . S
C286 H277 0.950 . S
C286 C285 1.398 . S
C286 C287 1.391 . S
C287 H275 0.950 . S
C287 C283 1.393 . S
C287 C286 1.391 . S
C288 H278 0.950 . S
C288 C289 1.386 . S
C288 C290 1.391 . S
C289 C288 1.386 . S
C289 C293 1.393 . S
C290 H279 0.950 . S
C290 C288 1.391 . S
C290 C291 1.400 . S
C291 C285 1.491 . S
C291 C290 1.400 . S
C291 C292 1.398 . S
C292 H280 0.950 . S
C292 C291 1.398 . S
C292 C293 1.391 . S
C293 H281 0.950 . S
C293 C289 1.393 . S
C293 C292 1.391 . S
H294 C302 0.950 . S
H295 C307 0.950 . S
H296 C304 0.950 . S
H297 C306 0.950 . S
H298 C308 0.950 . S
H299 C310 0.950 . S
H300 C312 0.950 . S
H301 C313 0.950 . S
C302 H294 0.950 . S
C302 C303 1.386 . S
C302 C304 1.391 . S
C303 C302 1.386 . S
C303 C307 1.393 . S
C304 H296 0.950 . S
C304 C302 1.391 . S
C304 C305 1.400 . S
C305 C304 1.400 . S
C305 C306 1.398 . S
C305 C311 1.491 . S
C306 H297 0.950 . S
C306 C305 1.398 . S
C306 C307 1.391 . S
C307 H295 0.950 . S
C307 C303 1.393 . S
C307 C306 1.391 . S
C308 H298 0.950 . S
C308 C309 1.386 . S
C308 C310 1.391 . S
C309 C308 1.386 . S
C309 C313 1.393 . S
C310 H299 0.950 . S
C310 C308 1.391 . S
C310 C311 1.400 . S
C311 C305 1.491 . S
C311 C310 1.400 . S
C311 C312 1.398 . S
C312 H300 0.950 . S
C312 C311 1.398 . S
C312 C313 1.391 . S
C313 H301 0.950 . S
C313 C309 1.393 . S
C313 C312 1.391 . S
H314 C322 0.950 . S
H315 C327 0.950 . S
H316 C324 0.950 . S
H317 C326 0.950 . S
H318 C328 0.950 . S
H319 C330 0.950 . S
H320 C332 0.950 . S
H321 C333 0.950 . S
C322 H314 0.950 . S
C322 C323 1.386 . S
C322 C324 1.391 . S
C323 C322 1.386 . S
C323 C327 1.393 . S
C324 H316 0.950 . S
C324 C322 1.391 . S
C324 C325 1.400 . S
C325 C324 1.400 . S
C325 C326 1.398 . S
C325 C331 1.491 . S
C326 H317 0.950 . S
C326 C325 1.398 . S
C326 C327 1.391 . S
C327 H315 0.950 . S
C327 C323 1.393 . S
C327 C326 1.391 . S
C328 H318 0.950 . S
C328 C329 1.386 . S
C328 C330 1.391 . S
C329 C328 1.386 . S
C329 C333 1.393 . S
C330 H319 0.950 . S
C330 C328 1.391 . S
C330 C331 1.400 . S
C331 C325 1.491 . S
C331 C330 1.400 . S
C331 C332 1.398 . S
C332 H320 0.950 . S
C332 C331 1.398 . S
C332 C333 1.391 . S
C333 H321 0.950 . S
C333 C329 1.393 . S
C333 C332 1.391 . S
H334 C342 0.950 . S
H335 C347 0.950 . S
H336 C344 0.950 . S
H337 C346 0.950 . S
H338 C348 0.950 . S
H339 C350 0.950 . S
H340 C352 0.950 . S
H341 C353 0.950 . S
C342 H334 0.950 . S
C342 C343 1.386 . S
C342 C344 1.391 . S
C343 C342 1.386 . S
C343 C347 1.393 . S
C344 H336 0.950 . S
C344 C342 1.391 . S
C344 C345 1.400 . S
C345 C344 1.400 . S
C345 C346 1.398 . S
C345 C351 1.491 . S
C346 H337 0.950 . S
C346 C345 1.398 . S
C346 C347 1.391 . S
C347 H335 0.950 . S
C347 C343 1.393 . S
C347 C346 1.391 . S
C348 H338 0.950 . S
C348 C349 1.386 . S
C348 C350 1.391 . S
C349 C348 1.386 . S
C349 C353 1.393 . S
C350 H339 0.950 . S
C350 C348 1.391 . S
C350 C351 1.400 . S
C351 C345 1.491 . S
C351 C350 1.400 . S
C351 C352 1.398 . S
C352 H340 0.950 . S
C352 C351 1.398 . S
C352 C353 1.391 . S
C353 H341 0.950 . S
C353 C349 1.393 . S
C353 C352 1.391 . S
H354 C362 0.950 . S
H355 C367 0.950 . S
H356 C364 0.950 . S
H357 C366 0.950 . S
H358 C368 0.950 . S
H359 C370 0.950 . S
H360 C372 0.950 . S
H361 C373 0.950 . S
C362 H354 0.950 . S
C362 C363 1.386 . S
C362 C364 1.391 . S
C363 C362 1.386 . S
C363 C367 1.393 . S
C364 H356 0.950 . S
C364 C362 1.391 . S
C364 C365 1.400 . S
C365 C364 1.400 . S
C365 C366 1.398 . S
C365 C371 1.491 . S
C366 H357 0.950 . S
C366 C365 1.398 . S
C366 C367 1.391 . S
C367 H355 0.950 . S
C367 C363 1.393 . S
C367 C366 1.391 . S
C368 H358 0.950 . S
C368 C369 1.386 . S
C368 C370 1.391 . S
C369 C368 1.386 . S
C369 C373 1.393 . S
C370 H359 0.950 . S
C370 C368 1.391 . S
C370 C371 1.400 . S
C371 C365 1.491 . S
C371 C370 1.400 . S
C371 C372 1.398 . S
C372 H360 0.950 . S
C372 C371 1.398 . S
C372 C373 1.391 . S
C373 H361 0.950 . S
C373 C369 1.393 . S
C373 C372 1.391 . S
H374 C382 0.950 . S
H375 C387 0.950 . S
H376 C384 0.950 . S
H377 C386 0.950 . S
H378 C388 0.950 . S
H379 C390 0.950 . S
H380 C392 0.950 . S
H381 C393 0.950 . S
C382 H374 0.950 . S
C382 C383 1.386 . S
C382 C384 1.391 . S
C383 C382 1.386 . S
C383 C387 1.393 . S
C384 H376 0.950 . S
C384 C382 1.391 . S
C384 C385 1.400 . S
C385 C384 1.400 . S
C385 C386 1.398 . S
C385 C391 1.491 . S
C386 H377 0.950 . S
C386 C385 1.398 . S
C386 C387 1.391 . S
C387 H375 0.950 . S
C387 C383 1.393 . S
C387 C386 1.391 . S
C388 H378 0.950 . S
C388 C389 1.386 . S
C388 C390 1.391 . S
C389 C388 1.386 . S
C389 C393 1.393 . S
C390 H379 0.950 . S
C390 C388 1.391 . S
C390 C391 1.400 . S
C391 C385 1.491 . S
C391 C390 1.400 . S
C391 C392 1.398 . S
C392 H380 0.950 . S
C392 C391 1.398 . S
C392 C393 1.391 . S
C393 H381 0.950 . S
C393 C389 1.393 . S
C393 C392 1.391 . S
H394 C402 0.950 . S
H395 C407 0.950 . S
H396 C404 0.950 . S
H397 C406 0.950 . S
H398 C408 0.950 . S
H399 C410 0.950 . S
H400 C412 0.950 . S
H401 C413 0.971 . S
C402 H394 0.950 . S
C402 C403 1.386 . S
C402 C404 1.391 . S
C403 C402 1.386 . S
C403 C407 1.393 . S
C404 H396 0.950 . S
C404 C402 1.391 . S
C404 C405 1.400 . S
C405 C404 1.400 . S
C405 C406 1.398 . S
C405 C411 1.491 . S
C406 H397 0.950 . S
C406 C405 1.398 . S
C406 C407 1.391 . S
C407 H395 0.950 . S
C407 C403 1.393 . S
C407 C406 1.391 . S
C408 H398 0.950 . S
C408 C409 1.386 1_565 S
C408 C410 1.391 . S
C409 C408 1.386 1_545 S
C409 C413 1.387 . S
C410 H399 0.950 . S
C410 C408 1.391 . S
C410 C411 1.400 . S
C411 C405 1.491 . S
C411 C410 1.400 . S
C411 C412 1.398 . S
C412 H400 0.950 . S
C412 C411 1.398 . S
C412 C413 1.375 1_565 S
C413 H401 0.971 . S
C413 C409 1.387 . S
C413 C412 1.375 1_545 S
H414 C422 0.950 . S
H415 C427 0.950 . S
H416 C424 0.950 . S
H417 C426 0.950 . S
H418 C428 0.950 . S
H419 C430 0.950 . S
H420 C432 0.950 . S
H421 C433 0.950 . S
C422 H414 0.950 . S
C422 C423 1.386 . S
C422 C424 1.391 . S
C423 C422 1.386 . S
C423 C427 1.393 . S
C424 H416 0.950 . S
C424 C422 1.391 . S
C424 C425 1.400 . S
C425 C424 1.400 . S
C425 C426 1.398 . S
C425 C431 1.491 . S
C426 H417 0.950 . S
C426 C425 1.398 . S
C426 C427 1.391 . S
C427 H415 0.950 . S
C427 C423 1.393 . S
C427 C426 1.391 . S
C428 H418 0.950 . S
C428 C429 1.386 . S
C428 C430 1.391 . S
C429 C428 1.386 . S
C429 C433 1.393 . S
C430 H419 0.950 . S
C430 C428 1.391 . S
C430 C431 1.400 . S
C431 C425 1.491 . S
C431 C430 1.400 . S
C431 C432 1.398 . S
C432 H420 0.950 . S
C432 C431 1.398 . S
C432 C433 1.391 . S
C433 H421 0.950 . S
C433 C429 1.393 . S
C433 C432 1.391 . S
H434 C442 0.950 . S
H435 C447 0.950 . S
H436 C444 0.950 . S
H437 C446 0.950 . S
H438 C448 0.950 . S
H439 C450 0.950 . S
H440 C452 0.950 . S
H441 C453 0.950 . S
C442 H434 0.950 . S
C442 C443 1.386 . S
C442 C444 1.391 . S
C443 C442 1.386 . S
C443 C447 1.393 . S
C444 H436 0.950 . S
C444 C442 1.391 . S
C444 C445 1.400 . S
C445 C444 1.400 . S
C445 C446 1.398 . S
C445 C451 1.491 . S
C446 H437 0.950 . S
C446 C445 1.398 . S
C446 C447 1.391 . S
C447 H435 0.950 . S
C447 C443 1.393 . S
C447 C446 1.391 . S
C448 H438 0.950 . S
C448 C449 1.386 . S
C448 C450 1.391 . S
C449 C448 1.386 . S
C449 C453 1.393 . S
C450 H439 0.950 . S
C450 C448 1.391 . S
C450 C451 1.400 . S
C451 C445 1.491 . S
C451 C450 1.400 . S
C451 C452 1.398 . S
C452 H440 0.950 . S
C452 C451 1.398 . S
C452 C453 1.391 . S
C453 H441 0.950 . S
C453 C449 1.393 . S
C453 C452 1.391 . S
H454 C462 0.950 . S
H455 C467 0.950 . S
H456 C464 0.950 . S
H457 C466 0.950 . S
H458 C468 0.950 . S
H459 C470 0.950 . S
H460 C472 0.950 . S
H461 C473 0.950 . S
C462 H454 0.950 . S
C462 C463 1.386 . S
C462 C464 1.391 . S
C463 C462 1.386 . S
C463 C467 1.393 . S
C464 H456 0.950 . S
C464 C462 1.391 . S
C464 C465 1.400 . S
C465 C464 1.400 . S
C465 C466 1.398 . S
C465 C471 1.491 . S
C466 H457 0.950 . S
C466 C465 1.398 . S
C466 C467 1.391 . S
C467 H455 0.950 . S
C467 C463 1.393 . S
C467 C466 1.391 . S
C468 H458 0.950 . S
C468 C469 1.386 . S
C468 C470 1.391 . S
C469 C468 1.386 . S
C469 C473 1.393 . S
C470 H459 0.950 . S
C470 C468 1.391 . S
C470 C471 1.400 . S
C471 C465 1.491 . S
C471 C470 1.400 . S
C471 C472 1.398 . S
C472 H460 0.950 . S
C472 C471 1.398 . S
C472 C473 1.391 . S
C473 H461 0.950 . S
C473 C469 1.393 . S
C473 C472 1.391 . S
H474 C482 0.950 . S
H475 C487 0.950 . S
H476 C484 0.950 . S
H477 C486 0.950 . S
H478 C488 0.950 . S
H479 C490 0.950 . S
H480 C492 0.950 . S
H481 C493 0.950 . S
C482 H474 0.950 . S
C482 C483 1.386 . S
C482 C484 1.391 . S
C483 C482 1.386 . S
C483 C487 1.393 1_455 S
C484 H476 0.950 . S
C484 C482 1.391 . S
C484 C485 1.400 . S
C485 C484 1.400 . S
C485 C486 1.398 1_455 S
C485 C491 1.491 1_554 S
C486 H477 0.950 . S
C486 C485 1.398 1_655 S
C486 C487 1.391 . S
C487 H475 0.950 . S
C487 C483 1.393 1_655 S
C487 C486 1.391 . S
C488 H478 0.950 . S
C488 C489 1.386 1_655 S
C488 C490 1.391 . S
C489 C488 1.386 1_455 S
C489 C493 1.393 . S
C490 H479 0.950 . S
C490 C488 1.391 . S
C490 C491 1.400 1_655 S
C491 C485 1.491 1_556 S
C491 C490 1.400 1_455 S
C491 C492 1.398 . S
C492 H480 0.950 . S
C492 C491 1.398 . S
C492 C493 1.391 . S
C493 H481 0.950 . S
C493 C489 1.393 . S
C493 C492 1.391 . S
H494 C502 0.950 . S
H495 C507 0.950 . S
H496 C504 0.950 . S
H497 C506 0.950 . S
H498 C508 0.950 . S
H499 C510 0.950 . S
H500 C512 0.950 . S
H501 C513 0.950 . S
C502 H494 0.950 . S
C502 C503 1.386 . S
C502 C504 1.391 . S
C503 C502 1.386 . S
C503 C507 1.393 . S
C504 H496 0.950 . S
C504 C502 1.391 . S
C504 C505 1.400 . S
C505 C504 1.400 . S
C505 C506 1.398 . S
C505 C511 1.491 . S
C506 H497 0.950 . S
C506 C505 1.398 . S
C506 C507 1.391 . S
C507 H495 0.950 . S
C507 C503 1.393 . S
C507 C506 1.391 . S
C508 H498 0.950 . S
C508 C509 1.386 . S
C508 C510 1.391 . S
C509 C508 1.386 . S
C509 C513 1.393 . S
C510 H499 0.950 . S
C510 C508 1.391 . S
C510 C511 1.400 . S
C511 C505 1.491 . S
C511 C510 1.400 . S
C511 C512 1.398 . S
C512 H500 0.950 . S
C512 C511 1.398 . S
C512 C513 1.391 . S
C513 H501 0.950 . S
C513 C509 1.393 . S
C513 C512 1.391 . S
H514 C522 0.950 . S
H515 C527 0.950 . S
H516 C524 0.950 . S
H517 C526 0.950 . S
H518 C528 0.950 . S
H519 C530 0.950 . S
H520 C532 0.950 . S
H521 C533 0.950 . S
C522 H514 0.950 . S
C522 C523 1.386 . S
C522 C524 1.391 . S
C523 C522 1.386 . S
C523 C527 1.393 . S
C524 H516 0.950 . S
C524 C522 1.391 . S
C524 C525 1.400 . S
C525 C524 1.400 . S
C525 C526 1.398 . S
C525 C531 1.491 . S
C526 H517 0.950 . S
C526 C525 1.398 . S
C526 C527 1.391 . S
C527 H515 0.950 . S
C527 C523 1.393 . S
C527 C526 1.391 . S
C528 H518 0.950 . S
C528 C529 1.386 . S
C528 C530 1.391 . S
C529 C528 1.386 . S
C529 C533 1.393 . S
C530 H519 0.950 . S
C530 C528 1.391 . S
C530 C531 1.400 . S
C531 C525 1.491 . S
C531 C530 1.400 . S
C531 C532 1.398 . S
C532 H520 0.950 . S
C532 C531 1.398 . S
C532 C533 1.391 . S
C533 H521 0.950 . S
C533 C529 1.393 . S
C533 C532 1.391 . S
H534 C542 0.950 . S
H535 C547 0.950 . S
H536 C544 0.950 . S
H537 C546 0.950 . S
H538 C548 0.950 . S
H539 C550 0.950 . S
H540 C552 0.950 . S
H541 C553 0.950 . S
C542 H534 0.950 . S
C542 C543 1.386 . S
C542 C544 1.391 . S
C543 C542 1.386 . S
C543 C547 1.393 . S
C544 H536 0.950 . S
C544 C542 1.391 . S
C544 C545 1.400 . S
C545 C544 1.400 . S
C545 C546 1.398 . S
C545 C551 1.491 . S
C546 H537 0.950 . S
C546 C545 1.398 . S
C546 C547 1.391 . S
C547 H535 0.950 . S
C547 C543 1.393 . S
C547 C546 1.391 . S
C548 H538 0.950 . S
C548 C549 1.386 . S
C548 C550 1.391 . S
C549 C548 1.386 . S
C549 C553 1.393 . S
C550 H539 0.950 . S
C550 C548 1.391 . S
C550 C551 1.400 . S
C551 C545 1.491 . S
C551 C550 1.400 . S
C551 C552 1.398 . S
C552 H540 0.950 . S
C552 C551 1.398 . S
C552 C553 1.391 . S
C553 H541 0.950 . S
C553 C549 1.393 . S
C553 C552 1.391 . S
H554 C562 0.950 . S
H555 C567 0.950 . S
H556 C564 0.950 . S
H557 C566 0.950 . S
H558 C568 0.950 . S
H559 C570 0.964 . S
H560 C572 0.950 . S
H561 C573 0.950 . S
C562 H554 0.950 . S
C562 C563 1.386 . S
C562 C564 1.391 . S
C563 C562 1.386 . S
C563 C567 1.393 . S
C564 H556 0.950 . S
C564 C562 1.391 . S
C564 C565 1.400 . S
C565 C564 1.400 . S
C565 C566 1.398 . S
C565 C571 1.491 1_556 S
C566 H557 0.950 . S
C566 C565 1.398 . S
C566 C567 1.391 . S
C567 H555 0.950 . S
C567 C563 1.393 . S
C567 C566 1.391 . S
C568 H558 0.950 . S
C568 C569 1.386 . S
C568 C570 1.391 . S
C569 C568 1.386 . S
C569 C573 1.393 . S
C570 H559 0.964 . S
C570 C568 1.391 . S
C570 C571 1.400 . S
C571 C565 1.491 1_554 S
C571 C570 1.400 . S
C571 C572 1.398 . S
C572 H560 0.950 . S
C572 C571 1.398 . S
C572 C573 1.391 . S
C573 H561 0.950 . S
C573 C569 1.393 . S
C573 C572 1.391 . S
H574 C582 0.950 . S
H575 C587 0.950 . S
H576 C584 0.950 . S
H577 C586 0.950 . S
H578 C588 0.950 . S
H579 C590 0.950 . S
H580 C592 0.950 . S
H581 C593 0.950 . S
C582 H574 0.950 . S
C582 C583 1.386 . S
C582 C584 1.391 . S
C583 C582 1.386 . S
C583 C587 1.393 . S
C584 H576 0.950 . S
C584 C582 1.391 . S
C584 C585 1.400 . S
C585 C584 1.400 . S
C585 C586 1.398 . S
C585 C591 1.491 . S
C586 H577 0.950 . S
C586 C585 1.398 . S
C586 C587 1.391 . S
C587 H575 0.950 . S
C587 C583 1.393 . S
C587 C586 1.391 . S
C588 H578 0.950 . S
C588 C589 1.386 . S
C588 C590 1.391 . S
C589 C588 1.386 . S
C589 C593 1.393 . S
C590 H579 0.950 . S
C590 C588 1.391 . S
C590 C591 1.400 . S
C591 C585 1.491 . S
C591 C590 1.400 . S
C591 C592 1.398 . S
C592 H580 0.950 . S
C592 C591 1.398 . S
C592 C593 1.391 . S
C593 H581 0.950 . S
C593 C589 1.393 . S
C593 C592 1.391 . S
C243 C10 3.138 . S
C249 C226 3.071 . S
C263 C59 3.210 . S
C269 C188 3.127 . S
C283 C90 3.122 . S
C289 C207 3.053 . S
C303 C19 3.015 . S
C309 C221 2.982 . S
C329 C183 2.934 . S
C323 C50 2.960 . S
C349 C202 2.990 . S
C343 C99 3.023 . S
C363 C46 0.634 . S
C369 C150 0.690 . S
C383 C95 0.260 . S
C389 C164 0.168 . S
C403 C6 0.154 . S
C409 C126 0.285 . S
C429 C145 0.258 . S
C423 C55 0.175 . S
C449 C169 0.603 . S
C443 C86 0.518 . S
C463 C15 0.449 . S
C469 C131 0.546 . S
C489 C160 1.393 . S
C483 C9 1.402 . S
C503 C49 1.276 . S
C509 C122 1.333 . S
C523 C89 1.320 . S
C529 C141 1.358 . S
C549 C198 1.729 . S
C543 C58 1.696 . S
C569 C217 1.747 . S
C563 C98 1.692 . S
C583 C18 1.696 . S
C589 C179 1.808 . S
