# Generated by pormake.
# Topology pyr, (3,6)-cn, num edge types: 1
# Building blocks:
#     Node 0, Type 0, BuildingBlock: VETTIZ_charged_linker_0, # of connection points: 3
#     Node 1, Type 0, BuildingBlock: VETTIZ_charged_linker_0, # of connection points: 3
#     Node 2, Type 0, BuildingBlock: VETTIZ_charged_linker_0, # of connection points: 3
#     Node 3, Type 0, BuildingBlock: VETTIZ_charged_linker_0, # of connection points: 3
#     Node 4, Type 0, BuildingBlock: VETTIZ_charged_linker_0, # of connection points: 3
#     Node 5, Type 0, BuildingBlock: VETTIZ_charged_linker_0, # of connection points: 3
#     Node 6, Type 0, BuildingBlock: VETTIZ_charged_linker_0, # of connection points: 3
#     Node 7, Type 0, BuildingBlock: VETTIZ_charged_linker_0, # of connection points: 3
#     Node 8, Type 1, BuildingBlock: BETFAJ_clean_sbu_0, # of connection points: 6
#     Node 9, Type 1, BuildingBlock: BETFAJ_clean_sbu_0, # of connection points: 6
#     Node 10, Type 1, BuildingBlock: BETFAJ_clean_sbu_0, # of connection points: 6
#     Node 11, Type 1, BuildingBlock: BETFAJ_clean_sbu_0, # of connection points: 6
#     Edge 12, Type (0, 1), BuildingBlock: ZUJKAS_clean_linker_0, # of connection points: 2
#     Edge 13, Type (0, 1), BuildingBlock: ZUJKAS_clean_linker_0, # of connection points: 2
#     Edge 14, Type (0, 1), BuildingBlock: ZUJKAS_clean_linker_0, # of connection points: 2
#     Edge 15, Type (0, 1), BuildingBlock: ZUJKAS_clean_linker_0, # of connection points: 2
#     Edge 16, Type (0, 1), BuildingBlock: ZUJKAS_clean_linker_0, # of connection points: 2
#     Edge 17, Type (0, 1), BuildingBlock: ZUJKAS_clean_linker_0, # of connection points: 2
#     Edge 18, Type (0, 1), BuildingBlock: ZUJKAS_clean_linker_0, # of connection points: 2
#     Edge 19, Type (0, 1), BuildingBlock: ZUJKAS_clean_linker_0, # of connection points: 2
#     Edge 20, Type (0, 1), BuildingBlock: ZUJKAS_clean_linker_0, # of connection points: 2
#     Edge 21, Type (0, 1), BuildingBlock: ZUJKAS_clean_linker_0, # of connection points: 2
#     Edge 22, Type (0, 1), BuildingBlock: ZUJKAS_clean_linker_0, # of connection points: 2
#     Edge 23, Type (0, 1), BuildingBlock: ZUJKAS_clean_linker_0, # of connection points: 2
#     Edge 24, Type (0, 1), BuildingBlock: ZUJKAS_clean_linker_0, # of connection points: 2
#     Edge 25, Type (0, 1), BuildingBlock: ZUJKAS_clean_linker_0, # of connection points: 2
#     Edge 26, Type (0, 1), BuildingBlock: ZUJKAS_clean_linker_0, # of connection points: 2
#     Edge 27, Type (0, 1), BuildingBlock: ZUJKAS_clean_linker_0, # of connection points: 2
#     Edge 28, Type (0, 1), BuildingBlock: ZUJKAS_clean_linker_0, # of connection points: 2
#     Edge 29, Type (0, 1), BuildingBlock: ZUJKAS_clean_linker_0, # of connection points: 2
#     Edge 30, Type (0, 1), BuildingBlock: ZUJKAS_clean_linker_0, # of connection points: 2
#     Edge 31, Type (0, 1), BuildingBlock: ZUJKAS_clean_linker_0, # of connection points: 2
#     Edge 32, Type (0, 1), BuildingBlock: ZUJKAS_clean_linker_0, # of connection points: 2
#     Edge 33, Type (0, 1), BuildingBlock: ZUJKAS_clean_linker_0, # of connection points: 2
#     Edge 34, Type (0, 1), BuildingBlock: ZUJKAS_clean_linker_0, # of connection points: 2
#     Edge 35, Type (0, 1), BuildingBlock: ZUJKAS_clean_linker_0, # of connection points: 2
# Relax obj value: 0.073
# Max RMSD: 0.116
# Mean RMSD: 0.055
data_MOF--net-pyr--node1-BETFAJ_clean_sbu_0--node2-VETTIZ_charged_linker_0--edge1-ZUJKAS_clean_linker_0
_symmetry_space_group_name_H-M    P1
_symmetry_Int_Tables_number       1
_symmetry_cell_setting            triclinic
loop_
_symmetry_equiv_pos_as_xyz
'x, y, z'
_cell_length_a     57.043274
_cell_length_b     60.753516
_cell_length_c     55.78189
_cell_angle_alpha  91.351714
_cell_angle_beta   88.879079
_cell_angle_gamma 98.385782
loop_
_atom_site_label
_atom_site_type_symbol
_atom_site_fract_x
_atom_site_fract_y
_atom_site_fract_z
_atom_type_partial_charge
C0 C 0.2818 0.23301 0.30146 0.0
C1 C 0.26298 0.2425 0.3122 0.0
C2 C 0.25579 0.26125 0.30168 0.0
C3 C 0.28302 0.2583 0.26832 0.0
C4 C 0.2914 0.24102 0.27948 0.0
C5 C 0.30954 0.23121 0.26426 0.0
H6 H 0.35536 0.2155 0.15417 0.0
C7 C 0.29379 0.26028 0.24404 0.0
C8 C 0.30943 0.24455 0.24153 0.0
H9 H 0.37317 0.1877 0.22112 0.0
H10 H 0.34862 0.2106 0.24277 0.0
H11 H 0.36201 0.26671 0.17648 0.0
H12 H 0.30075 0.21721 0.16495 0.0
H13 H 0.29408 0.24301 0.1556 0.0
H14 H 0.31763 0.231 0.1407 0.0
H15 H 0.35074 0.25949 0.14707 0.0
H16 H 0.33925 0.28026 0.16573 0.0
C17 C 0.33374 0.23583 0.277 0.0
C18 C 0.30037 0.20618 0.25985 0.0
C19 C 0.2623 0.31046 0.18499 0.0
C20 C 0.26505 0.31295 0.1601 0.0
C21 C 0.28097 0.30106 0.14744 0.0
C22 C 0.29373 0.28667 0.15943 0.0
C23 C 0.29027 0.2839 0.18429 0.0
C24 C 0.27485 0.29583 0.19661 0.0
C25 C 0.27205 0.28984 0.22257 0.0
C26 C 0.2888 0.27272 0.22402 0.0
C27 C 0.29945 0.26927 0.20159 0.0
C28 C 0.28071 0.31092 0.23793 0.0
C29 C 0.24577 0.27968 0.22728 0.0
C30 C 0.35427 0.21442 0.17351 0.0
C31 C 0.36581 0.1991 0.18574 0.0
C32 C 0.36384 0.19859 0.21101 0.0
C33 C 0.34969 0.21204 0.22365 0.0
C34 C 0.33733 0.22628 0.21104 0.0
C35 C 0.34045 0.22799 0.18652 0.0
C36 C 0.32725 0.24536 0.17648 0.0
C37 C 0.3153 0.25332 0.199 0.0
C38 C 0.32082 0.24161 0.21905 0.0
C39 C 0.3456 0.26394 0.16567 0.0
C40 C 0.30902 0.23373 0.15833 0.0
H41 H 0.25895 0.28305 0.27239 0.0
H42 H 0.28807 0.21888 0.30938 0.0
H43 H 0.28151 0.20384 0.25436 0.0
H44 H 0.31008 0.19848 0.24545 0.0
H45 H 0.30151 0.19659 0.27639 0.0
H46 H 0.33446 0.25005 0.29005 0.0
H47 H 0.33728 0.22112 0.28704 0.0
H48 H 0.34863 0.24074 0.26426 0.0
H49 H 0.24974 0.31891 0.19512 0.0
H50 H 0.28336 0.30275 0.12823 0.0
H51 H 0.3054 0.2779 0.14881 0.0
H52 H 0.29704 0.32036 0.22988 0.0
H53 H 0.26704 0.32221 0.23909 0.0
H54 H 0.28561 0.30704 0.25625 0.0
H55 H 0.23684 0.27308 0.21049 0.0
H56 H 0.24394 0.26516 0.2391 0.0
H57 H 0.2354 0.29228 0.23515 0.0
H58 H 0.24131 0.26889 0.30943 0.0
C59 C 0.26582 0.26927 0.27991 0.0
C60 C 0.24684 0.88405 0.57869 0.0
C61 C 0.23837 0.89936 0.59477 0.0
C62 C 0.24925 0.90368 0.61719 0.0
C63 C 0.27658 0.87776 0.60721 0.0
C64 C 0.26587 0.87348 0.58526 0.0
C65 C 0.27708 0.85682 0.57026 0.0
H66 H 0.35683 0.7848 0.56115 0.0
C67 C 0.29588 0.86413 0.60844 0.0
C68 C 0.29629 0.85182 0.58686 0.0
H69 H 0.30688 0.79764 0.50791 0.0
H70 H 0.29349 0.82602 0.53407 0.0
H71 H 0.37476 0.83487 0.57322 0.0
H72 H 0.32267 0.78715 0.60788 0.0
H73 H 0.3407 0.80151 0.63017 0.0
H74 H 0.35387 0.78556 0.60737 0.0
H75 H 0.38309 0.81471 0.59314 0.0
H76 H 0.37654 0.84144 0.60398 0.0
C77 C 0.28755 0.86829 0.54711 0.0
C78 C 0.25811 0.83622 0.56586 0.0
C79 C 0.34652 0.86892 0.68262 0.0
C80 C 0.36628 0.85898 0.68871 0.0
C81 C 0.37467 0.84366 0.67252 0.0
C82 C 0.36348 0.83832 0.65055 0.0
C83 C 0.34383 0.84856 0.64464 0.0
C84 C 0.33572 0.86359 0.66057 0.0
C85 C 0.31518 0.87343 0.65101 0.0
C86 C 0.31235 0.86188 0.62663 0.0
C87 C 0.32903 0.84725 0.62308 0.0
C88 C 0.32273 0.89891 0.64892 0.0
C89 C 0.29341 0.86663 0.6677 0.0
C90 C 0.34288 0.79367 0.55525 0.0
C91 C 0.33249 0.7889 0.5328 0.0
C92 C 0.31491 0.80108 0.52529 0.0
C93 C 0.30717 0.81741 0.54052 0.0
C94 C 0.31737 0.82162 0.56329 0.0
C95 C 0.3352 0.81006 0.57008 0.0
C96 C 0.34479 0.81723 0.59435 0.0
C97 C 0.32928 0.83458 0.60144 0.0
C98 C 0.31315 0.837 0.58331 0.0
C99 C 0.37119 0.82748 0.59123 0.0
C100 C 0.3405 0.79687 0.61093 0.0
H101 H 0.27578 0.89695 0.64081 0.0
H102 H 0.23907 0.8806 0.56119 0.0
H103 H 0.24717 0.83225 0.58235 0.0
H104 H 0.26576 0.82097 0.56133 0.0
H105 H 0.24597 0.83927 0.55136 0.0
H106 H 0.29408 0.88622 0.55062 0.0
H107 H 0.27402 0.86724 0.53292 0.0
H108 H 0.30319 0.86133 0.53998 0.0
H109 H 0.33997 0.8811 0.6945 0.0
H110 H 0.38985 0.83578 0.67692 0.0
H111 H 0.37064 0.82652 0.63899 0.0
H112 H 0.34186 0.90286 0.644 0.0
H113 H 0.31987 0.9077 0.66618 0.0
H114 H 0.31345 0.90624 0.63459 0.0
H115 H 0.29341 0.8496 0.67461 0.0
H116 H 0.27636 0.86577 0.65842 0.0
H117 H 0.29347 0.8782 0.68342 0.0
H118 H 0.24287 0.91521 0.62999 0.0
C119 C 0.26828 0.89296 0.62349 0.0
C120 C 0.63813 0.27821 0.88061 0.0
C121 C 0.61776 0.26412 0.87247 0.0
C122 C 0.60624 0.27119 0.85232 0.0
C123 C 0.63487 0.30535 0.84937 0.0
C124 C 0.64629 0.29839 0.86891 0.0
C125 C 0.66789 0.31466 0.87541 0.0
H126 H 0.74231 0.41119 0.85774 0.0
C127 C 0.6481 0.32739 0.8415 0.0
C128 C 0.66756 0.33268 0.85693 0.0
H129 H 0.7467 0.361 0.91055 0.0
H130 H 0.71127 0.33938 0.89544 0.0
H131 H 0.6859 0.41057 0.86296 0.0
H132 H 0.72646 0.37563 0.81282 0.0
H133 H 0.70467 0.38682 0.79702 0.0
H134 H 0.72717 0.40528 0.81268 0.0
H135 H 0.70271 0.42446 0.83875 0.0
H136 H 0.67276 0.41067 0.83476 0.0
C137 C 0.66411 0.32358 0.90124 0.0
C138 C 0.68993 0.30261 0.87209 0.0
C139 C 0.61997 0.3703 0.77077 0.0
C140 C 0.62824 0.39139 0.76074 0.0
C141 C 0.64874 0.40381 0.77081 0.0
C142 C 0.66056 0.39583 0.79003 0.0
C143 C 0.65203 0.37503 0.79995 0.0
C144 C 0.63195 0.3626 0.79042 0.0
C145 C 0.62524 0.34107 0.80395 0.0
C146 C 0.64455 0.34262 0.82292 0.0
C147 C 0.66039 0.36266 0.82033 0.0
C148 C 0.60044 0.34126 0.81548 0.0
C149 C 0.62652 0.32136 0.78623 0.0
C150 C 0.73577 0.39546 0.86595 0.0
C151 C 0.74765 0.38814 0.88574 0.0
C152 C 0.73803 0.36754 0.89576 0.0
C153 C 0.71735 0.35479 0.88677 0.0
C154 C 0.70564 0.36237 0.86729 0.0
C155 C 0.71489 0.38241 0.85716 0.0
C156 C 0.69976 0.38782 0.83666 0.0
C157 C 0.68019 0.36769 0.83602 0.0
C158 C 0.68375 0.35281 0.85411 0.0
C159 C 0.68981 0.40959 0.84337 0.0
C160 C 0.71522 0.38915 0.8135 0.0
H161 H 0.60484 0.29575 0.8258 0.0
H162 H 0.6479 0.27349 0.89564 0.0
H163 H 0.68756 0.2903 0.85692 0.0
H164 H 0.70618 0.314 0.86734 0.0
H165 H 0.69314 0.29348 0.88845 0.0
H166 H 0.64529 0.32588 0.90439 0.0
H167 H 0.66861 0.3118 0.91477 0.0
H168 H 0.67439 0.34013 0.90482 0.0
H169 H 0.60425 0.36022 0.76382 0.0
H170 H 0.65595 0.41981 0.76358 0.0
H171 H 0.67602 0.4063 0.7965 0.0
H172 H 0.59913 0.3578 0.82398 0.0
H173 H 0.5864 0.33786 0.8018 0.0
H174 H 0.59652 0.3291 0.8299 0.0
H175 H 0.64289 0.32441 0.7749 0.0
H176 H 0.62734 0.3056 0.79537 0.0
H177 H 0.61107 0.31904 0.77414 0.0
H178 H 0.59044 0.26113 0.84552 0.0
C179 C 0.61457 0.29152 0.84088 0.0
C180 C 0.89859 0.75279 0.36156 0.0
C181 C 0.88997 0.76407 0.38173 0.0
C182 C 0.86976 0.75319 0.39398 0.0
C183 C 0.86658 0.72159 0.36594 0.0
C184 C 0.88667 0.73165 0.35405 0.0
C185 C 0.89324 0.7172 0.33312 0.0
H186 H 0.86979 0.62064 0.26605 0.0
C187 C 0.85798 0.69993 0.3536 0.0
C188 C 0.87362 0.69713 0.33426 0.0
H189 H 0.92792 0.67419 0.25668 0.0
H190 H 0.91338 0.6943 0.29023 0.0
H191 H 0.87013 0.62057 0.32471 0.0
H192 H 0.82994 0.65319 0.27526 0.0
H193 H 0.8109 0.64306 0.29891 0.0
H194 H 0.82408 0.62372 0.27974 0.0
H195 H 0.84831 0.60553 0.30533 0.0
H196 H 0.84012 0.61675 0.33393 0.0
C197 C 0.91787 0.71061 0.33797 0.0
C198 C 0.89224 0.73025 0.3098 0.0
C199 C 0.78222 0.6526 0.38448 0.0
C200 C 0.76883 0.63228 0.37679 0.0
C201 C 0.77731 0.62143 0.35632 0.0
C202 C 0.79833 0.63035 0.3441 0.0
C203 C 0.81136 0.65059 0.35206 0.0
C204 C 0.80309 0.6614 0.37189 0.0
C205 C 0.81883 0.683 0.37758 0.0
C206 C 0.8379 0.68344 0.35799 0.0
C207 C 0.8336 0.66431 0.34306 0.0
C208 C 0.82915 0.6813 0.40286 0.0
C209 C 0.80391 0.70217 0.37508 0.0
C210 C 0.87941 0.63675 0.27098 0.0
C211 C 0.9004 0.64544 0.25836 0.0
C212 C 0.91212 0.66654 0.26603 0.0
C213 C 0.90353 0.67841 0.28558 0.0
C214 C 0.88277 0.66937 0.29803 0.0
C215 C 0.87101 0.64888 0.29053 0.0
C216 C 0.849 0.64191 0.30562 0.0
C217 C 0.84965 0.66129 0.32361 0.0
C218 C 0.86954 0.67752 0.31915 0.0
C219 C 0.8518 0.61996 0.31802 0.0
C220 C 0.82724 0.64017 0.28915 0.0
H221 H 0.84289 0.72531 0.39653 0.0
H222 H 0.91403 0.76034 0.35157 0.0
H223 H 0.87643 0.73904 0.31008 0.0
H224 H 0.89048 0.71938 0.29363 0.0
H225 H 0.90823 0.74293 0.3077 0.0
H226 H 0.91934 0.70652 0.35717 0.0
H227 H 0.93222 0.72447 0.33378 0.0
H228 H 0.92121 0.69557 0.32779 0.0
H229 H 0.77681 0.66151 0.40017 0.0
H230 H 0.76751 0.6061 0.34935 0.0
H231 H 0.8036 0.62113 0.32876 0.0
H232 H 0.83232 0.664 0.40624 0.0
H233 H 0.81681 0.68599 0.4171 0.0
H234 H 0.84665 0.69157 0.40506 0.0
H235 H 0.79139 0.69869 0.35995 0.0
H236 H 0.81472 0.71822 0.3708 0.0
H237 H 0.79326 0.70432 0.39164 0.0
H238 H 0.8629 0.7607 0.40992 0.0
C239 C 0.85813 0.73232 0.38625 0.0
C240 C 0.74577 0.72788 0.86413 0.0
C241 C 0.76006 0.71291 0.85402 0.0
C242 C 0.7631 0.71182 0.82892 0.0
C243 C 0.74017 0.74194 0.8246 0.0
C244 C 0.73573 0.742 0.84903 0.0
C245 C 0.71999 0.75895 0.85645 0.0
H246 H 0.66109 0.84283 0.82489 0.0
C247 C 0.72905 0.75984 0.81415 0.0
C248 C 0.71662 0.76955 0.83255 0.0
H249 H 0.66569 0.81564 0.89547 0.0
H250 H 0.68911 0.78887 0.87907 0.0
H251 H 0.65695 0.79599 0.7926 0.0
H252 H 0.713 0.84681 0.81471 0.0
H253 H 0.72371 0.83566 0.78812 0.0
H254 H 0.69746 0.84903 0.78749 0.0
H255 H 0.66098 0.82432 0.78295 0.0
H256 H 0.67564 0.80363 0.76759 0.0
C257 C 0.69645 0.74637 0.86657 0.0
C258 C 0.73368 0.77571 0.87439 0.0
C259 C 0.7547 0.78615 0.73102 0.0
C260 C 0.75127 0.80517 0.71844 0.0
C261 C 0.7334 0.81751 0.72647 0.0
C262 C 0.7206 0.81203 0.74775 0.0
C263 C 0.72594 0.79426 0.76133 0.0
C264 C 0.74219 0.78122 0.7525 0.0
C265 C 0.74639 0.76359 0.76974 0.0
C266 C 0.73091 0.769 0.79091 0.0
C267 C 0.71897 0.78693 0.78586 0.0
C268 C 0.73748 0.74046 0.75824 0.0
C269 C 0.77309 0.76731 0.77593 0.0
C270 C 0.66714 0.83126 0.83698 0.0
C271 C 0.66118 0.8315 0.86161 0.0
C272 C 0.66941 0.81573 0.87637 0.0
C273 C 0.68327 0.80024 0.86685 0.0
C274 C 0.6894 0.80063 0.84234 0.0
C275 C 0.68143 0.81605 0.82789 0.0
C276 C 0.69115 0.81526 0.80269 0.0
C277 C 0.7054 0.79612 0.80411 0.0
C278 C 0.70431 0.78757 0.82736 0.0
C279 C 0.67015 0.80963 0.78538 0.0
C280 C 0.70705 0.8378 0.79779 0.0
H281 H 0.7566 0.72492 0.79529 0.0
H282 H 0.74277 0.72876 0.88334 0.0
H283 H 0.75266 0.77957 0.86889 0.0
H284 H 0.72714 0.79193 0.87522 0.0
H285 H 0.73294 0.76882 0.89271 0.0
H286 H 0.69134 0.73033 0.85666 0.0
H287 H 0.69808 0.74253 0.88579 0.0
H288 H 0.68131 0.75557 0.86453 0.0
H289 H 0.76792 0.77605 0.72501 0.0
H290 H 0.73033 0.83223 0.71715 0.0
H291 H 0.70779 0.82246 0.75338 0.0
H292 H 0.72422 0.74153 0.7441 0.0
H293 H 0.7523 0.73293 0.74978 0.0
H294 H 0.72812 0.72877 0.77141 0.0
H295 H 0.77934 0.78527 0.77961 0.0
H296 H 0.77722 0.75865 0.79208 0.0
H297 H 0.78395 0.7618 0.7608 0.0
H298 H 0.77405 0.70048 0.82071 0.0
C299 C 0.75315 0.72617 0.81418 0.0
C300 C 0.78727 0.16702 0.44734 0.0
C301 C 0.7974 0.15417 0.42977 0.0
C302 C 0.78686 0.15091 0.40708 0.0
C303 C 0.75562 0.17161 0.42034 0.0
C304 C 0.76641 0.17547 0.4423 0.0
C305 C 0.75266 0.18851 0.45936 0.0
H306 H 0.65311 0.23391 0.48353 0.0
C307 C 0.73326 0.18111 0.42149 0.0
C308 C 0.73134 0.19095 0.44433 0.0
H309 H 0.71542 0.23815 0.52699 0.0
H310 H 0.73384 0.21591 0.49734 0.0
H311 H 0.65146 0.18197 0.46386 0.0
H312 H 0.68132 0.24595 0.43684 0.0
H313 H 0.67003 0.22976 0.41209 0.0
H314 H 0.65012 0.23607 0.43597 0.0
H315 H 0.63365 0.20149 0.4529 0.0
H316 H 0.64551 0.18183 0.43304 0.0
C317 C 0.74563 0.17427 0.48174 0.0
C318 C 0.76795 0.21126 0.46486 0.0
C319 C 0.67869 0.17177 0.35014 0.0
C320 C 0.65593 0.17715 0.34641 0.0
C321 C 0.64438 0.18754 0.3651 0.0
C322 C 0.65547 0.19266 0.38716 0.0
C323 C 0.67828 0.18719 0.39061 0.0
C324 C 0.68943 0.17683 0.37227 0.0
C325 C 0.71316 0.17138 0.37938 0.0
C326 C 0.71472 0.18072 0.40484 0.0
C327 C 0.69429 0.18994 0.4113 0.0
C328 C 0.71204 0.14569 0.37846 0.0
C329 C 0.73233 0.18403 0.36271 0.0
C330 C 0.67046 0.22945 0.48688 0.0
C331 C 0.6827 0.23706 0.50772 0.0
C332 C 0.70564 0.23195 0.51118 0.0
C333 C 0.71628 0.21926 0.49388 0.0
C334 C 0.70398 0.21211 0.4728 0.0
C335 C 0.6815 0.21738 0.46956 0.0
C336 C 0.67192 0.21034 0.44524 0.0
C337 C 0.69225 0.19978 0.43441 0.0
C338 C 0.71082 0.20055 0.45073 0.0
C339 C 0.64935 0.1931 0.44874 0.0
C340 C 0.66792 0.23148 0.43173 0.0
H341 H 0.75874 0.15628 0.38476 0.0
H342 H 0.79483 0.16967 0.46502 0.0
H343 H 0.78046 0.21644 0.44979 0.0
H344 H 0.75719 0.22494 0.46703 0.0
H345 H 0.77865 0.21056 0.48117 0.0
H346 H 0.73912 0.15673 0.47633 0.0
H347 H 0.76106 0.1742 0.49357 0.0
H348 H 0.73111 0.17993 0.49244 0.0
H349 H 0.68777 0.16329 0.33629 0.0
H350 H 0.62682 0.19182 0.36258 0.0
H351 H 0.64581 0.20062 0.4007 0.0
H352 H 0.69375 0.13718 0.38222 0.0
H353 H 0.71756 0.13976 0.36053 0.0
H354 H 0.72292 0.13954 0.3923 0.0
H355 H 0.72822 0.20099 0.35912 0.0
H356 H 0.75012 0.18675 0.37066 0.0
H357 H 0.73329 0.17514 0.34517 0.0
H358 H 0.79454 0.14135 0.39314 0.0
C359 C 0.76608 0.1596 0.40226 0.0
C360 C 0.40426 0.66649 0.26089 0.0
C361 C 0.3959 0.64545 0.27098 0.0
C362 C 0.37531 0.63312 0.26098 0.0
C363 C 0.3721 0.66189 0.23181 0.0
C364 C 0.39228 0.67423 0.24127 0.0
C365 C 0.39907 0.69573 0.22772 0.0
H366 H 0.37658 0.76359 0.13625 0.0
C367 C 0.36378 0.6743 0.21145 0.0
C368 C 0.37972 0.69427 0.20881 0.0
H369 H 0.43419 0.77555 0.18624 0.0
H370 H 0.41967 0.74093 0.20588 0.0
H371 H 0.33688 0.74673 0.17518 0.0
H372 H 0.37888 0.71129 0.12728 0.0
H373 H 0.34984 0.69692 0.12708 0.0
H374 H 0.3554 0.72525 0.11708 0.0
H375 H 0.33142 0.74396 0.14361 0.0
H376 H 0.31814 0.72327 0.16441 0.0
C377 C 0.39794 0.71547 0.24544 0.0
C378 C 0.42382 0.69541 0.21612 0.0
C379 C 0.28774 0.64221 0.16647 0.0
C380 C 0.27551 0.6499 0.14713 0.0
C381 C 0.28558 0.6702 0.13671 0.0
C382 C 0.30663 0.68259 0.1453 0.0
C383 C 0.31836 0.6749 0.16471 0.0
C384 C 0.30896 0.65495 0.17492 0.0
C385 C 0.32414 0.64942 0.19532 0.0
C386 C 0.34391 0.66939 0.19582 0.0
C387 C 0.34041 0.68429 0.17773 0.0
C388 C 0.30885 0.64825 0.2186 0.0
C389 C 0.3338 0.62752 0.18854 0.0
C390 C 0.38635 0.75879 0.15124 0.0
C391 C 0.4068 0.77277 0.15937 0.0
C392 C 0.41832 0.76558 0.17945 0.0
C393 C 0.40992 0.74525 0.19085 0.0
C394 C 0.38953 0.73154 0.18239 0.0
C395 C 0.37811 0.7386 0.1629 0.0
C396 C 0.35642 0.72243 0.15643 0.0
C397 C 0.35669 0.70435 0.17488 0.0
C398 C 0.37621 0.70954 0.19025 0.0
C399 C 0.33448 0.73461 0.15985 0.0
C400 C 0.36006 0.71352 0.13057 0.0
H401 H 0.34796 0.63074 0.23537 0.0
H402 H 0.42005 0.67651 0.26777 0.0
H403 H 0.42504 0.67883 0.20767 0.0
H404 H 0.42774 0.70751 0.20164 0.0
H405 H 0.43791 0.69881 0.22975 0.0
H406 H 0.38163 0.71248 0.25687 0.0
H407 H 0.41346 0.71777 0.25745 0.0
H408 H 0.39711 0.73123 0.23631 0.0
H409 H 0.2808 0.62681 0.17512 0.0
H410 H 0.27731 0.67652 0.12152 0.0
H411 H 0.31302 0.69779 0.13636 0.0
H412 H 0.29775 0.66187 0.21935 0.0
H413 H 0.29677 0.63219 0.21952 0.0
H414 H 0.31952 0.65052 0.23499 0.0
H415 H 0.33766 0.62654 0.16895 0.0
H416 H 0.35081 0.62624 0.19712 0.0
H417 H 0.32073 0.61276 0.19315 0.0
H418 H 0.36802 0.61716 0.26827 0.0
C419 C 0.36349 0.64113 0.24178 0.0
C420 C 0.12492 0.28589 0.66893 0.0
C421 C 0.13341 0.27461 0.64868 0.0
C422 C 0.15365 0.28541 0.63642 0.0
C423 C 0.15716 0.3169 0.66461 0.0
C424 C 0.13703 0.30694 0.67651 0.0
C425 C 0.13062 0.32138 0.69751 0.0
H426 H 0.15553 0.41721 0.76559 0.0
C427 C 0.16596 0.33846 0.67703 0.0
C428 C 0.1504 0.34132 0.69642 0.0
H429 H 0.09623 0.36471 0.77399 0.0
H430 H 0.11068 0.34437 0.74047 0.0
H431 H 0.15477 0.4179 0.70641 0.0
H432 H 0.1946 0.38454 0.75554 0.0
H433 H 0.21367 0.39465 0.73191 0.0
H434 H 0.20077 0.41403 0.75128 0.0
H435 H 0.17665 0.43264 0.72594 0.0
H436 H 0.18481 0.42156 0.69726 0.0
C437 C 0.10608 0.3282 0.69275 0.0
C438 C 0.13152 0.30821 0.72076 0.0
C439 C 0.24206 0.38527 0.64621 0.0
C440 C 0.25569 0.40544 0.65398 0.0
C441 C 0.24739 0.41628 0.67454 0.0
C442 C 0.22632 0.40751 0.68677 0.0
C443 C 0.21305 0.38741 0.67873 0.0
C444 C 0.22115 0.37661 0.65881 0.0
C445 C 0.20519 0.35516 0.65304 0.0
C446 C 0.18618 0.35481 0.67269 0.0
C447 C 0.1907 0.37385 0.68771 0.0
C448 C 0.19485 0.35708 0.62781 0.0
C449 C 0.21988 0.3358 0.65539 0.0
C450 C 0.14544 0.40146 0.76015 0.0
C451 C 0.12452 0.39279 0.77288 0.0
C452 C 0.11248 0.37189 0.76506 0.0
C453 C 0.12082 0.36008 0.74532 0.0
C454 C 0.14162 0.36901 0.73285 0.0
C455 C 0.1536 0.38938 0.74044 0.0
C456 C 0.17564 0.39622 0.72535 0.0
C457 C 0.17473 0.37694 0.70722 0.0
C458 C 0.1547 0.36085 0.71163 0.0
C459 C 0.17307 0.41832 0.71313 0.0
C460 C 0.19741 0.39764 0.74175 0.0
H461 H 0.18071 0.31313 0.63392 0.0
H462 H 0.10946 0.2784 0.67892 0.0
H463 H 0.1473 0.29938 0.72047 0.0
H464 H 0.13326 0.31901 0.737 0.0
H465 H 0.1155 0.29556 0.72277 0.0
H466 H 0.10457 0.33228 0.67355 0.0
H467 H 0.09162 0.31447 0.69703 0.0
H468 H 0.10295 0.34332 0.70291 0.0
H469 H 0.24733 0.37636 0.63045 0.0
H470 H 0.25737 0.4315 0.68157 0.0
H471 H 0.22121 0.41671 0.70219 0.0
H472 H 0.19189 0.37445 0.62452 0.0
H473 H 0.20708 0.3523 0.61351 0.0
H474 H 0.17725 0.34699 0.62561 0.0
H475 H 0.23248 0.33911 0.67048 0.0
H476 H 0.20893 0.31982 0.65966 0.0
H477 H 0.23043 0.3336 0.63878 0.0
H478 H 0.16041 0.27791 0.62042 0.0
C479 C 0.16545 0.30618 0.64421 0.0
Sm480 Sm 0.01678 0.02973 0.49045 0.0
Sm481 Sm 1.00512 1.00987 0.53912 0.0
C482 C 0.02315 0.05623 0.4533 0.0
C483 C 0.04161 0.07496 0.44789 0.0
C484 C 0.03926 0.08878 0.42863 0.0
C485 C 0.05748 0.106 0.42301 0.0
C486 C 0.07832 0.10946 0.43653 0.0
C487 C 0.08028 0.09585 0.45619 0.0
C488 C 0.06203 0.0788 0.46188 0.0
C489 C 0.05165 1.00857 0.50847 0.0
C490 C 0.03131 0.0609 0.53992 0.0
C491 C 0.99889 0.98386 0.57672 0.0
C492 C 0.98063 0.96526 0.58301 0.0
C493 C 0.98202 0.95395 0.60438 0.0
C494 C 0.96357 0.93744 0.61126 0.0
C495 C 0.9434 0.93211 0.5969 0.0
C496 C 0.94254 0.94307 0.57507 0.0
C497 C 0.96101 0.95949 0.56819 0.0
C498 C 0.97056 0.03146 0.52108 0.0
C499 C 0.99072 0.97863 0.48967 0.0
O500 O 1.00896 0.05946 0.47135 0.0
O501 O 0.03041 0.03679 0.45357 0.0
O502 O 0.03971 0.02096 0.52036 0.0
O503 O 0.04666 1.0082 0.48589 0.0
O504 O 0.02648 0.06033 0.51671 0.0
O505 O 0.02772 0.04244 0.55244 0.0
O506 O 0.0128 0.98028 0.55855 0.0
O507 O 0.99149 1.00322 0.57607 0.0
O508 O 0.98226 0.01879 0.5093 0.0
O509 O 0.97557 0.03185 0.54365 0.0
O510 O 0.99542 0.97926 0.51292 0.0
O511 O 0.99441 0.99706 0.47708 0.0
H512 H 0.02354 0.08605 0.41773 0.0
H513 H 0.05559 0.11614 0.40765 0.0
H514 H 0.09601 0.09832 0.46708 0.0
H515 H 0.06401 0.06836 0.47699 0.0
H516 H 0.99712 0.95819 0.61595 0.0
H517 H 0.96497 0.92906 0.62798 0.0
H518 H 0.9272 0.9396 0.56372 0.0
H519 H 0.95969 0.96814 0.5516 0.0
Sm520 Sm 0.53217 0.02168 0.03037 0.0
Sm521 Sm 0.49268 1.0155 1.00182 0.0
C522 C 0.56758 0.03669 0.05927 0.0
C523 C 0.57031 0.04925 0.0821 0.0
C524 C 0.55747 0.0669 0.08723 0.0
C525 C 0.5601 0.07839 0.10923 0.0
C526 C 0.57543 0.07227 0.12648 0.0
C527 C 0.5881 0.05448 0.12131 0.0
C528 C 0.58557 0.0431 0.09929 0.0
C529 C 0.50505 0.98052 0.03941 0.0
C530 C 0.48527 0.04309 0.04901 0.0
C531 C 0.45762 1.00056 0.97253 0.0
C532 C 0.45538 0.9874 0.95002 0.0
C533 C 0.46586 0.96793 0.94701 0.0
C534 C 0.46403 0.95606 0.9252 0.0
C535 C 0.45203 0.96366 0.90602 0.0
C536 C 0.44173 0.98321 0.90905 0.0
C537 C 0.44333 0.99493 0.93091 0.0
C538 C 0.51983 0.05666 0.99297 0.0
C539 C 0.53946 0.99399 0.98326 0.0
O540 O 0.56217 0.04744 0.04065 0.0
O541 O 0.55585 1.01665 0.06034 0.0
O542 O 0.49681 0.99878 0.03747 0.0
O543 O 0.52773 0.98369 0.03539 0.0
O544 O 0.50846 0.04444 0.04999 0.0
O545 O 0.47341 0.03003 0.03303 0.0
O546 O 0.4621 0.99025 0.99181 0.0
O547 O 0.46982 0.02037 0.97114 0.0
O548 O 0.52801 0.03835 0.99472 0.0
O549 O 0.49717 0.05352 0.99712 0.0
O550 O 0.51624 0.99241 0.98251 0.0
O551 O 0.55134 1.00733 0.99899 0.0
H552 H 0.54541 0.0718 0.07428 0.0
H553 H 0.55 0.09192 0.11283 0.0
H554 H 0.60027 0.0496 0.13416 0.0
H555 H 0.59555 0.02948 0.09565 0.0
H556 H 0.47554 0.96193 0.96141 0.0
H557 H 0.47224 0.94111 0.92322 0.0
H558 H 0.43213 0.98927 0.89461 0.0
H559 H 0.43523 1.00995 0.93287 0.0
Sm560 Sm 0.51756 0.49745 0.49817 0.0
Sm561 Sm 0.50752 0.53905 0.53273 0.0
C562 C 0.54042 0.46969 0.47339 0.0
C563 C 0.54579 0.44768 0.47942 0.0
C564 C 0.56473 0.43921 0.46801 0.0
C565 C 0.57215 0.41985 0.47627 0.0
C566 C 0.56076 0.40876 0.49615 0.0
C567 C 0.54133 0.41705 0.50708 0.0
C568 C 0.53398 0.43639 0.49884 0.0
C569 C 0.47516 0.48659 0.5241 0.0
C570 C 0.5316 0.498 0.55679 0.0
C571 C 0.48475 0.56709 0.5571 0.0
C572 C 0.47893 0.58866 0.54998 0.0
C573 C 0.46095 0.59801 0.56206 0.0
C574 C 0.45266 0.61654 0.55275 0.0
C575 C 0.46216 0.62581 0.53111 0.0
C576 C 0.48075 0.61676 0.51952 0.0
C577 C 0.48907 0.59833 0.52889 0.0
C578 C 0.54985 0.54992 0.50668 0.0
C579 C 0.4934 0.5385 0.47418 0.0
O580 O 0.55112 0.48587 0.48692 0.0
O581 O 0.51802 0.47121 0.46987 0.0
O582 O 0.48942 0.50459 0.52467 0.0
O583 O 0.48328 0.47335 0.50837 0.0
O584 O 0.53308 0.48899 0.53489 0.0
O585 O 0.52179 0.51641 0.56072 0.0
O586 O 0.47395 0.55027 0.54452 0.0
O587 O 0.5073 0.56602 0.56027 0.0
O588 O 0.53561 0.53191 0.50616 0.0
O589 O 0.54177 0.56314 0.52244 0.0
O590 O 0.49185 0.54743 0.49609 0.0
O591 O 0.50332 0.52016 0.47022 0.0
H592 H 0.5743 0.44798 0.4533 0.0
H593 H 0.58738 0.41409 0.46767 0.0
H594 H 0.53202 0.40877 0.52222 0.0
H595 H 0.51953 0.44294 0.50811 0.0
H596 H 0.45268 0.59048 0.57812 0.0
H597 H 0.4381 0.62297 0.56192 0.0
H598 H 0.48855 0.62367 0.50297 0.0
H599 H 0.5028 0.59108 0.51916 0.0
Sm600 Sm 0.01658 0.4941 0.02558 0.0
Sm601 Sm 1.00754 0.54315 1.00571 0.0
C602 C 0.03289 0.45564 0.02671 0.0
C603 C 0.04918 0.44382 0.03972 0.0
C604 C 0.06027 0.42785 0.02722 0.0
C605 C 0.07709 0.41727 0.0384 0.0
C606 C 0.08311 0.42241 0.06244 0.0
C607 C 0.07173 0.43836 0.07503 0.0
C608 C 0.05494 0.44905 0.06372 0.0
C609 C 0.99682 0.51955 0.06112 0.0
C610 C 0.05658 0.53923 0.03662 0.0
C611 C 0.99087 0.58141 1.00408 0.0
C612 C 0.97415 0.59216 0.99043 0.0
C613 C 0.9642 0.60973 1.00125 0.0
C614 C 0.94657 0.61895 0.98971 0.0
C615 C 0.93857 0.6108 0.96703 0.0
C616 C 0.94895 0.59337 0.95605 0.0
C617 C 0.96654 0.58405 0.96772 0.0
C618 C 0.02723 0.51764 0.97017 0.0
C619 C 0.96751 0.49808 0.99469 0.0
O620 O 0.04293 0.47253 1.01417 0.0
O621 O 0.01312 0.45915 0.03762 0.0
O622 O 1.00277 0.5244 0.03975 0.0
O623 O 1.00125 0.49937 0.06443 0.0
O624 O 0.05133 0.5171 0.03645 0.0
O625 O 0.04233 0.55226 0.02736 0.0
O626 O 0.98121 0.56473 0.01712 0.0
O627 O 1.0107 0.57795 0.99325 0.0
O628 O 0.0213 0.51283 0.99156 0.0
O629 O 0.02288 0.53783 0.96687 0.0
O630 O 0.97281 0.52019 0.99484 0.0
O631 O 0.98173 0.48503 1.00396 0.0
H632 H 0.05625 0.42384 1.00857 0.0
H633 H 0.0858 0.40547 0.02798 0.0
H634 H 0.07579 0.44257 0.09361 0.0
H635 H 0.04668 0.46153 0.07358 0.0
H636 H 0.96966 0.61595 0.01895 0.0
H637 H 0.93872 0.63204 0.99893 0.0
H638 H 0.94342 0.58685 0.93849 0.0
H639 H 0.9739 0.5703 0.95922 0.0
H640 H 0.24963 0.19788 0.31709 0.0
H641 H 0.2203 0.17934 0.34508 0.0
H642 H 0.21303 0.24237 0.37928 0.0
H643 H 0.24296 0.26125 0.35156 0.0
H644 H 0.214 0.19645 0.40963 0.0
H645 H 0.14845 0.19801 0.33722 0.0
H646 H 0.17698 0.19065 0.32871 0.0
H647 H 0.17484 0.21832 0.33955 0.0
C648 C 0.2425 0.20781 0.33105 0.0
C649 C 0.24861 0.2311 0.33201 0.0
C650 C 0.22561 0.19716 0.34693 0.0
C651 C 0.21452 0.20956 0.36404 0.0
C652 C 0.22149 0.2326 0.36611 0.0
H653 H 0.07705 0.15257 0.42405 0.0
H654 H 0.11023 0.17975 0.41006 0.0
C655 C 0.23845 0.24333 0.3502 0.0
C656 C 0.19391 0.19857 0.37775 0.0
H657 H 0.13619 0.17581 0.3706 0.0
C658 C 0.19686 0.19213 0.40132 0.0
C659 C 0.17161 0.19331 0.36684 0.0
C660 C 0.16755 0.20049 0.34173 0.0
C661 C 0.17813 0.1797 0.41402 0.0
C662 C 0.15615 0.17329 0.40258 0.0
C663 C 0.15303 0.18064 0.37935 0.0
C664 C 0.1366 0.1578 0.41355 0.0
C665 C 0.18213 0.17347 0.43948 0.0
C666 C 0.14041 0.13647 0.42013 0.0
C667 C 0.12155 0.12101 0.42819 0.0
C668 C 0.09844 0.12647 0.42947 0.0
C669 C 0.09466 0.14789 0.42309 0.0
C670 C 0.11359 0.16344 0.41523 0.0
H671 H 0.1961 0.18559 0.44808 0.0
H672 H 0.16561 0.17261 0.45051 0.0
H673 H 0.18815 0.15691 0.43942 0.0
H674 H 0.15782 0.13147 0.41824 0.0
H675 H 0.12491 0.10449 0.43258 0.0
H676 H 0.34629 0.86236 0.73312 0.0
H677 H 0.36588 0.8778 0.76969 0.0
H678 H 0.43335 0.886 0.73222 0.0
H679 H 0.41384 0.87038 0.69553 0.0
H680 H 0.43489 0.87096 0.78042 0.0
H681 H 0.38941 0.94526 0.77372 0.0
H682 H 0.36952 0.91947 0.77384 0.0
H683 H 0.39032 0.9253 0.74936 0.0
C684 C 0.36533 0.86727 0.73276 0.0
C685 C 0.37854 0.86546 0.71147 0.0
C686 C 0.37647 0.87606 0.75361 0.0
C687 C 0.40095 0.88341 0.75344 0.0
C688 C 0.41441 0.88048 0.73261 0.0
H689 H 0.46047 0.97987 0.86109 0.0
H690 H 0.45232 0.9598 0.82292 0.0
C691 C 0.40327 0.87153 0.71173 0.0
C692 C 0.41206 0.89552 0.77453 0.0
H693 H 0.40931 0.94149 0.81004 0.0
C694 C 0.42949 0.88646 0.78687 0.0
C695 C 0.4053 0.91597 0.7825 0.0
C696 C 0.38779 0.92722 0.76905 0.0
C697 C 0.43974 0.89701 0.80762 0.0
C698 C 0.43199 0.91685 0.81631 0.0
C699 C 0.41513 0.9262 0.80345 0.0
C700 C 0.44035 0.92799 0.8391 0.0
C701 C 0.45881 0.88689 0.8199 0.0
C702 C 0.4367 0.91668 0.86082 0.0
C703 C 0.44151 0.92809 0.88261 0.0
C704 C 0.44964 0.95106 0.883 0.0
C705 C 0.45399 0.9622 0.86124 0.0
C706 C 0.44944 0.95075 0.83948 0.0
H707 H 0.4679 0.8764 0.80723 0.0
H708 H 0.47225 0.89993 0.82788 0.0
H709 H 0.45064 0.87609 0.83448 0.0
H710 H 0.42912 0.89927 0.86101 0.0
H711 H 0.43778 0.9192 0.89918 0.0
H712 H 0.61954 0.43449 0.75507 0.0
H713 H 0.6024 0.45084 0.72116 0.0
H714 H 0.59294 0.38698 0.68455 0.0
H715 H 0.60945 0.37039 0.71897 0.0
H716 H 0.61514 0.45814 0.67779 0.0
H717 H 0.52997 0.40208 0.67111 0.0
H718 H 0.54942 0.40131 0.69605 0.0
H719 H 0.55475 0.38712 0.66815 0.0
C720 C 0.61369 0.42377 0.73991 0.0
C721 C 0.616 0.40093 0.74012 0.0
C722 C 0.60379 0.43324 0.72031 0.0
C723 C 0.59578 0.42037 0.6999 0.0
C724 C 0.59808 0.39749 0.70005 0.0
H725 H 0.54592 0.45637 0.55809 0.0
H726 H 0.56112 0.43795 0.59197 0.0
C727 C 0.60773 0.38791 0.71988 0.0
C728 C 0.58603 0.43122 0.67847 0.0
H729 H 0.54001 0.42668 0.63869 0.0
C730 C 0.59859 0.45119 0.66949 0.0
C731 C 0.56437 0.42257 0.66708 0.0
C732 C 0.54872 0.40224 0.67623 0.0
C733 C 0.5905 0.46231 0.64983 0.0
C734 C 0.56901 0.45357 0.6384 0.0
C735 C 0.5565 0.43356 0.64716 0.0
C736 C 0.5593 0.46499 0.61752 0.0
C737 C 0.60537 0.48326 0.6411 0.0
C738 C 0.55273 0.48644 0.62015 0.0
C739 C 0.54375 0.49704 0.60071 0.0
C740 C 0.54116 0.48667 0.57778 0.0
C741 C 0.54768 0.46514 0.57523 0.0
C742 C 0.55638 0.45446 0.59476 0.0
H743 H 0.62377 0.48506 0.64785 0.0
H744 H 0.60607 0.48345 0.6212 0.0
H745 H 0.5973 0.49789 0.6476 0.0
H746 H 0.55435 0.49501 0.63741 0.0
H747 H 0.53894 0.51349 0.60368 0.0
H748 H 0.87604 0.61722 0.22424 0.0
H749 H 0.89207 0.59667 0.19097 0.0
H750 H 0.96295 0.62492 0.21056 0.0
H751 H 0.94724 0.64461 0.24444 0.0
H752 H 0.91764 0.60887 0.15124 0.0
H753 H 0.97107 0.56072 0.20602 0.0
H754 H 0.94969 0.57672 0.21923 0.0
H755 H 0.97881 0.59017 0.21069 0.0
C756 C 0.89508 0.61887 0.22183 0.0
C757 C 0.91016 0.63273 0.23751 0.0
C758 C 0.90428 0.60717 0.20248 0.0
C759 C 0.92889 0.60874 0.19815 0.0
C760 C 0.94395 0.6228 0.21354 0.0
H761 H 0.99462 0.56501 0.06212 0.0
H762 H 0.9782 0.58708 0.09414 0.0
C763 C 0.9348 0.63444 0.2329 0.0
C764 C 0.93875 0.5959 0.17759 0.0
H765 H 0.97787 0.55936 0.16391 0.0
C766 C 0.93078 0.59802 0.1541 0.0
C767 C 0.95574 0.58136 0.18095 0.0
C768 C 0.96417 0.57689 0.2056 0.0
C769 C 0.93938 0.58642 0.13419 0.0
C770 C 0.95693 0.57243 0.13747 0.0
C771 C 0.96469 0.57016 0.16101 0.0
C772 C 0.96672 0.55918 0.11717 0.0
C773 C 0.92898 0.58882 0.10991 0.0
C774 C 0.96651 0.53609 0.1192 0.0
C775 C 0.97604 0.52352 0.10093 0.0
C776 C 0.98611 0.5335 0.07985 0.0
C777 C 0.98647 0.55661 0.07772 0.0
C778 C 0.97701 0.56928 0.09615 0.0
H779 H 0.91144 0.59468 0.11145 0.0
H780 H 0.94102 0.60129 0.09958 0.0
H781 H 0.92687 0.5728 0.09962 0.0
H782 H 0.95888 0.52766 0.13504 0.0
H783 H 0.97552 0.50582 0.10337 0.0
H784 H 0.39225 0.20591 0.14393 0.0
H785 H 0.41197 0.17894 0.12107 0.0
H786 H 0.39123 0.13002 0.17517 0.0
H787 H 0.36981 0.15606 0.19704 0.0
H788 H 0.44761 0.15797 0.13017 0.0
H789 H 0.36839 0.09488 0.11715 0.0
H790 H 0.36644 0.12235 0.12919 0.0
H791 H 0.37375 0.10091 0.14832 0.0
C792 C 0.39145 0.18929 0.15079 0.0
C793 C 0.37916 0.18323 0.17233 0.0
C794 C 0.40299 0.17394 0.13779 0.0
C795 C 0.40267 0.15226 0.14611 0.0
C796 C 0.39117 0.14641 0.16799 0.0
H797 H 0.50006 0.0634 0.09147 0.0
H798 H 0.4802 0.08943 0.11582 0.0
C799 C 0.37928 0.16157 0.18075 0.0
C800 C 0.41453 0.13583 0.13204 0.0
H801 H 0.40569 0.08317 0.10792 0.0
C802 C 0.43841 0.14166 0.12517 0.0
C803 C 0.40243 0.11466 0.12514 0.0
C804 C 0.37628 0.10792 0.13011 0.0
C805 C 0.45057 0.12687 0.11182 0.0
C806 C 0.43878 0.10529 0.10596 0.0
C807 C 0.41486 0.09956 0.11268 0.0
C808 C 0.45052 0.0887 0.092 0.0
C809 C 0.47567 0.13484 0.10356 0.0
C810 C 0.43991 0.07868 0.07117 0.0
C811 C 0.45086 0.06331 0.05766 0.0
C812 C 0.47282 0.05783 0.06453 0.0
C813 C 0.48325 0.0675 0.08562 0.0
C814 C 0.47203 0.08255 0.09941 0.0
H815 H 0.4793 0.1533 0.103 0.0
H816 H 0.48817 0.12933 0.11636 0.0
H817 H 0.47932 0.128 0.08546 0.0
H818 H 0.42329 0.08305 0.0651 0.0
H819 H 0.44244 0.05623 0.04143 0.0
H820 H 0.23426 0.94328 0.60191 0.0
H821 H 0.20162 0.96252 0.59009 0.0
H822 H 0.16535 0.90113 0.55995 0.0
H823 H 0.19756 0.88162 0.57233 0.0
H824 H 0.18602 0.9662 0.5435 0.0
H825 H 0.1141 0.92442 0.60213 0.0
H826 H 0.14505 0.92318 0.60719 0.0
H827 H 0.12934 0.90556 0.58464 0.0
C828 C 0.21914 0.93381 0.59313 0.0
C829 C 0.21842 0.91093 0.5881 0.0
C830 C 0.20061 0.94484 0.58628 0.0
C831 C 0.181 0.93316 0.57446 0.0
C832 C 0.18017 0.91033 0.56945 0.0
H833 H 0.08053 0.9833 0.48467 0.0
H834 H 0.11224 0.96557 0.50147 0.0
C835 C 0.19869 0.89929 0.57628 0.0
C836 C 0.16195 0.94506 0.56626 0.0
H837 H 0.10244 0.94632 0.57076 0.0
C838 C 0.16776 0.96198 0.54957 0.0
C839 C 0.13825 0.93965 0.57446 0.0
C840 C 0.13128 0.92236 0.59327 0.0
C841 C 0.15032 0.97329 0.54033 0.0
C842 C 0.12647 0.96722 0.54776 0.0
C843 C 0.12074 0.95073 0.56495 0.0
C844 C 0.10717 0.97769 0.53772 0.0
C845 C 0.15758 0.9917 0.52282 0.0
C846 C 0.0935 0.98985 0.55271 0.0
C847 C 0.07535 0.9999 0.54319 0.0
C848 C 0.07057 0.99779 0.51857 0.0
C849 C 0.08401 0.9853 0.50367 0.0
C850 C 0.10216 0.97527 0.5132 0.0
H851 H 0.17681 0.99812 0.52382 0.0
H852 H 0.15389 0.98518 0.50431 0.0
H853 H 0.1474 1.00574 0.52619 0.0
H854 H 0.09705 0.99175 0.57172 0.0
H855 H 0.06511 1.00934 0.55507 0.0
H856 H 0.76053 0.39346 0.93323 0.0
H857 H 0.79716 0.41276 0.95022 0.0
H858 H 0.82218 0.43316 0.87968 0.0
H859 H 0.78562 0.4132 0.86233 0.0
H860 H 0.85736 0.4183 0.90492 0.0
H861 H 0.81706 0.47842 0.96254 0.0
H862 H 0.80465 0.45013 0.96818 0.0
H863 H 0.80072 0.46184 0.93944 0.0
C864 C 0.77376 0.40194 0.92116 0.0
C865 C 0.76981 0.40151 0.89621 0.0
C866 C 0.79476 0.41331 0.93105 0.0
C867 C 0.81263 0.42487 0.91645 0.0
C868 C 0.80879 0.42456 0.89153 0.0
H869 H 0.93315 0.51842 0.97329 0.0
H870 H 0.89667 0.50108 0.95393 0.0
C871 C 0.78767 0.41323 0.88158 0.0
C872 C 0.83542 0.43662 0.92718 0.0
H873 H 0.85742 0.47518 0.97014 0.0
C874 C 0.8573 0.43081 0.9191 0.0
C875 C 0.83577 0.45326 0.94556 0.0
C876 C 0.81333 0.46147 0.95429 0.0
C877 C 0.8791 0.4406 0.92913 0.0
C878 C 0.87936 0.45657 0.9482 0.0
C879 C 0.85753 0.4628 0.95583 0.0
C880 C 0.90197 0.46716 0.96023 0.0
C881 C 0.90175 0.43397 0.9188 0.0
C882 C 0.91737 0.45415 0.97079 0.0
C883 C 0.9384 0.46409 0.98196 0.0
C884 C 0.94475 0.48743 0.98313 0.0
C885 C 0.92912 0.50043 0.97284 0.0
C886 C 0.90809 0.49048 0.96169 0.0
H887 H 0.89929 0.42702 0.90027 0.0
H888 H 0.91618 0.44836 0.9185 0.0
H889 H 0.90739 0.42092 0.93004 0.0
H890 H 0.91304 0.4362 0.97063 0.0
H891 H 0.9497 0.45337 0.9897 0.0
H892 H 0.74983 0.58786 0.38225 0.0
H893 H 0.71307 0.57225 0.40267 0.0
H894 H 0.69971 0.6382 0.42261 0.0
H895 H 0.73589 0.65417 0.40139 0.0
H896 H 0.69532 0.60473 0.46167 0.0
H897 H 0.64282 0.57498 0.38126 0.0
H898 H 0.67237 0.56804 0.38273 0.0
H899 H 0.6682 0.59653 0.37976 0.0
C900 C 0.739 0.59924 0.39052 0.0
C901 C 0.74622 0.62249 0.38981 0.0
C902 C 0.71789 0.59016 0.40238 0.0
C903 C 0.70333 0.60397 0.41409 0.0
C904 C 0.71052 0.62711 0.41373 0.0
H905 H 0.57749 0.59014 0.50636 0.0
H906 H 0.61401 0.60191 0.48395 0.0
C907 C 0.73149 0.63624 0.40166 0.0
C908 C 0.681 0.59434 0.4272 0.0
H909 H 0.62467 0.5669 0.419 0.0
C910 C 0.67988 0.59647 0.45231 0.0
C911 C 0.66086 0.58321 0.41517 0.0
C912 C 0.66087 0.58057 0.38823 0.0
C913 C 0.6594 0.58785 0.46563 0.0
C914 C 0.63885 0.57739 0.45358 0.0
C915 C 0.64016 0.57491 0.42843 0.0
C916 C 0.61572 0.5699 0.46667 0.0
C917 C 0.66033 0.58963 0.49264 0.0
C918 C 0.60333 0.54813 0.4638 0.0
C919 C 0.58185 0.54138 0.47646 0.0
C920 C 0.57226 0.55622 0.49233 0.0
C921 C 0.58442 0.57806 0.49465 0.0
C922 C 0.60559 0.58483 0.48191 0.0
H923 H 0.67877 0.59043 0.49902 0.0
H924 H 0.6538 0.60519 0.49876 0.0
H925 H 0.64919 0.57531 0.50115 0.0
H926 H 0.61041 0.53625 0.45196 0.0
H927 H 0.57288 0.52458 0.47391 0.0
H928 H 0.2392 0.3016 0.11989 0.0
H929 H 0.20981 0.32196 0.10243 0.0
H930 H 0.2266 0.37497 0.15478 0.0
H931 H 0.25603 0.35474 0.17232 0.0
H932 H 0.17022 0.3362 0.13421 0.0
H933 H 0.22576 0.40498 0.08614 0.0
H934 H 0.23608 0.37884 0.09173 0.0
H935 H 0.23446 0.39866 0.11579 0.0
C936 C 0.23703 0.31784 0.12729 0.0
C937 C 0.24988 0.32661 0.14745 0.0
C938 C 0.22017 0.32936 0.11741 0.0
C939 C 0.21617 0.34995 0.1273 0.0
C940 C 0.22961 0.35917 0.1468 0.0
H941 H 0.11781 0.44114 0.09319 0.0
H942 H 0.14926 0.42342 0.11046 0.0
C943 C 0.24631 0.34758 0.15684 0.0
C944 C 0.19658 0.3609 0.11855 0.0
H945 H 0.18449 0.40553 0.08755 0.0
C946 C 0.17327 0.35132 0.12394 0.0
C947 C 0.20076 0.38075 0.10552 0.0
C948 C 0.22559 0.39147 0.09926 0.0
C949 C 0.15387 0.36118 0.1167 0.0
C950 C 0.15796 0.3808 0.10311 0.0
C951 C 0.18137 0.39048 0.09793 0.0
C952 C 0.13822 0.39124 0.09358 0.0
C953 C 0.12925 0.35073 0.12416 0.0
C954 C 0.12155 0.37904 0.07838 0.0
C955 C 0.10334 0.38899 0.06883 0.0
C956 C 0.10162 0.4115 0.07392 0.0
C957 C 0.11835 0.42369 0.0892 0.0
C958 C 0.13648 0.41365 0.0989 0.0
H959 H 0.12958 0.34054 0.1404 0.0
H960 H 0.11757 0.36355 0.12789 0.0
H961 H 0.12142 0.33955 0.10948 0.0
H962 H 0.12281 0.36187 0.0736 0.0
H963 H 0.09065 0.37902 0.05735 0.0
H964 H 0.61725 0.25453 0.92093 0.0
H965 H 0.60256 0.21965 0.94077 0.0
H966 H 0.58277 0.18876 0.8724 0.0
H967 H 0.59716 0.22373 0.85246 0.0
H968 H 0.54903 0.17575 0.90291 0.0
H969 H 0.63162 0.16484 0.94817 0.0
H970 H 0.62203 0.19077 0.95665 0.0
H971 H 0.63078 0.18582 0.926 0.0
C972 C 0.61007 0.2403 0.90994 0.0
C973 C 0.60869 0.24232 0.88484 0.0
C974 C 0.60168 0.22011 0.92144 0.0
C975 C 0.59187 0.20094 0.9083 0.0
C976 C 0.59025 0.20298 0.88325 0.0
H977 H 0.56394 0.06482 0.96961 0.0
H978 H 0.58154 0.09887 0.94885 0.0
C979 C 0.59848 0.22322 0.87176 0.0
C980 C 0.5826 0.17914 0.92057 0.0
H981 H 0.59657 0.1414 0.96114 0.0
C982 C 0.55959 0.16831 0.91555 0.0
C983 C 0.59618 0.1687 0.93689 0.0
C984 C 0.6216 0.17799 0.94207 0.0
C985 C 0.54977 0.14812 0.92651 0.0
C986 C 0.56288 0.1383 0.94376 0.0
C987 C 0.58613 0.14878 0.94833 0.0
C988 C 0.55267 0.11746 0.95726 0.0
C989 C 0.52548 0.13729 0.91892 0.0
C990 C 0.53082 0.11626 0.96973 0.0
C991 C 0.52071 0.09677 0.98146 0.0
C992 C 0.53216 0.07769 0.98159 0.0
C993 C 0.55449 0.07904 0.96994 0.0
C994 C 0.56458 0.09863 0.95799 0.0
H995 H 0.52138 0.14229 0.90061 0.0
H996 H 0.52388 0.11886 0.91913 0.0
H997 H 0.51196 0.14268 0.93143 0.0
H998 H 0.5214 0.1305 0.97042 0.0
H999 H 0.50367 0.09663 0.99041 0.0
H1000 H 0.86849 0.79818 0.40188 0.0
H1001 H 0.88662 0.83372 0.41874 0.0
H1002 H 0.95571 0.81893 0.39741 0.0
H1003 H 0.93768 0.78244 0.38157 0.0
H1004 H 0.95815 0.83711 0.441 0.0
H1005 H 0.91043 0.89014 0.38639 0.0
H1006 H 0.89008 0.8705 0.40273 0.0
H1007 H 0.90936 0.86077 0.3801 0.0
C1008 C 0.88759 0.8022 0.40084 0.0
C1009 C 0.90146 0.78694 0.39035 0.0
C1010 C 0.89799 0.82294 0.41024 0.0
C1011 C 0.92266 0.82958 0.40911 0.0
C1012 C 0.93664 0.81451 0.3985 0.0
H1013 H 0.98516 0.96878 0.44136 0.0
H1014 H 0.97012 0.93304 0.42198 0.0
C1015 C 0.92622 0.79359 0.38918 0.0
C1016 C 0.93371 0.8518 0.41969 0.0
H1017 H 0.92954 0.90762 0.4212 0.0
C1018 C 0.95195 0.85251 0.43648 0.0
C1019 C 0.92617 0.87225 0.41373 0.0
C1020 C 0.90813 0.87345 0.39456 0.0
C1021 C 0.96224 0.87265 0.44777 0.0
C1022 C 0.95376 0.89293 0.4428 0.0
C1023 C 0.93597 0.89228 0.42552 0.0
C1024 C 0.96321 0.91494 0.45495 0.0
C1025 C 0.98255 0.87195 0.46452 0.0
C1026 C 0.96421 0.91726 0.48014 0.0
C1027 C 0.9731 0.93776 0.49131 0.0
C1028 C 0.9809 0.9568 0.47771 0.0
C1029 C 0.97939 0.95461 0.45254 0.0
C1030 C 0.97072 0.93405 0.44137 0.0
H1031 H 0.99185 0.85744 0.46036 0.0
H1032 H 0.99564 0.88734 0.46353 0.0
H1033 H 0.97556 0.87026 0.48319 0.0
H1034 H 0.95787 0.90324 0.49131 0.0
H1035 H 0.97365 0.9387 0.51071 0.0
H1036 H 0.33075 0.74605 0.54485 0.0
H1037 H 0.35243 0.71858 0.5256 0.0
H1038 H 0.37398 0.76376 0.46803 0.0
H1039 H 0.35234 0.79165 0.48772 0.0
H1040 H 0.35564 0.69697 0.48067 0.0
H1041 H 0.43623 0.75779 0.50141 0.0
H1042 H 0.40742 0.76203 0.51283 0.0
H1043 H 0.41462 0.76579 0.48158 0.0
C1044 C 0.33955 0.74985 0.52774 0.0
C1045 C 0.34024 0.77092 0.51785 0.0
C1046 C 0.35185 0.73415 0.51669 0.0
C1047 C 0.36514 0.7393 0.49561 0.0
C1048 C 0.36407 0.75962 0.48446 0.0
H1049 H 0.45168 0.63018 0.48388 0.0
H1050 H 0.43139 0.65885 0.46657 0.0
C1051 C 0.35163 0.77542 0.49558 0.0
C1052 C 0.38268 0.72467 0.48825 0.0
H1053 H 0.44073 0.7204 0.49768 0.0
C1054 C 0.37442 0.70212 0.48348 0.0
C1055 C 0.40715 0.73156 0.49198 0.0
C1056 C 0.41704 0.75557 0.49731 0.0
C1057 C 0.38952 0.68594 0.48501 0.0
C1058 C 0.41348 0.69268 0.49109 0.0
C1059 C 0.42228 0.7154 0.49315 0.0
C1060 C 0.42813 0.67666 0.50022 0.0
C1061 C 0.37923 0.66167 0.48253 0.0
C1062 C 0.43367 0.67768 0.52466 0.0
C1063 C 0.44537 0.66155 0.53453 0.0
C1064 C 0.45179 0.64407 0.52013 0.0
C1065 C 0.44707 0.64355 0.49541 0.0
C1066 C 0.43532 0.65977 0.48551 0.0
H1067 H 0.35979 0.65926 0.4797 0.0
H1068 H 0.38776 0.65404 0.46702 0.0
H1069 H 0.38281 0.65265 0.49884 0.0
H1070 H 0.42827 0.69064 0.5363 0.0
H1071 H 0.44908 0.66258 0.55353 0.0
H1072 H 0.79911 0.80631 0.71832 0.0
H1073 H 0.82816 0.8246 0.6901 0.0
H1074 H 0.77203 0.84286 0.64745 0.0
H1075 H 0.74251 0.82437 0.67584 0.0
H1076 H 0.83665 0.82017 0.64105 0.0
H1077 H 0.81085 0.90279 0.66596 0.0
H1078 H 0.80052 0.87811 0.68268 0.0
H1079 H 0.78783 0.88224 0.65421 0.0
C1080 C 0.79279 0.81367 0.70264 0.0
C1081 C 0.76843 0.81386 0.69935 0.0
C1082 C 0.80949 0.82423 0.68656 0.0
C1083 C 0.80227 0.83532 0.66687 0.0
C1084 C 0.77796 0.8347 0.66279 0.0
H1085 H 0.91467 0.90067 0.57043 0.0
H1086 H 0.87897 0.87659 0.58421 0.0
C1087 C 0.76115 0.82414 0.67899 0.0
C1088 C 0.82051 0.84877 0.65197 0.0
H1089 H 0.84393 0.90251 0.64049 0.0
C1090 C 0.8381 0.83816 0.64057 0.0
C1091 C 0.82243 0.87225 0.65168 0.0
C1092 C 0.80455 0.88463 0.6644 0.0
C1093 C 0.85807 0.85045 0.62965 0.0
C1094 C 0.86022 0.87394 0.62985 0.0
C1095 C 0.84216 0.88448 0.64038 0.0
C1096 C 0.88196 0.88804 0.6212 0.0
C1097 C 0.87726 0.8383 0.61914 0.0
C1098 C 0.89527 0.90263 0.63736 0.0
C1099 C 0.91542 0.91658 0.62953 0.0
C1100 C 0.92273 0.91624 0.60532 0.0
C1101 C 0.90945 0.90144 0.58917 0.0
C1102 C 0.88918 0.88752 0.59703 0.0
H1103 H 0.87501 0.82063 0.62458 0.0
H1104 H 0.8767 0.83861 0.59928 0.0
H1105 H 0.89502 0.84655 0.62476 0.0
H1106 H 0.88993 0.90333 0.65608 0.0
H1107 H 0.92491 0.92804 0.64237 0.0
H1108 H 0.67474 0.18386 0.30149 0.0
H1109 H 0.65713 0.16966 0.26354 0.0
H1110 H 0.59329 0.14194 0.30132 0.0
H1111 H 0.61076 0.15634 0.33935 0.0
H1112 H 0.64455 0.12551 0.25423 0.0
H1113 H 0.56708 0.16986 0.24364 0.0
H1114 H 0.59067 0.17937 0.26421 0.0
H1115 H 0.56793 0.15691 0.27216 0.0
C1116 C 0.65682 0.17502 0.30163 0.0
C1117 C 0.64413 0.17108 0.32332 0.0
C1118 C 0.64676 0.16701 0.27998 0.0
C1119 C 0.62385 0.15491 0.27961 0.0
C1120 C 0.61079 0.15165 0.30114 0.0
H1121 H 0.57625 0.05518 0.17118 0.0
H1122 H 0.58599 0.07565 0.20884 0.0
C1123 C 0.62081 0.15982 0.32284 0.0
C1124 C 0.61483 0.14366 0.25713 0.0
H1125 H 0.56931 0.13844 0.21758 0.0
C1126 C 0.62816 0.12844 0.24615 0.0
C1127 C 0.59352 0.14761 0.24661 0.0
C1128 C 0.57905 0.16448 0.25711 0.0
C1129 C 0.62069 0.11688 0.22503 0.0
C1130 C 0.599 0.12027 0.2149 0.0
C1131 C 0.58578 0.13572 0.22563 0.0
C1132 C 0.5902 0.10813 0.19285 0.0
C1133 C 0.63627 0.10138 0.21354 0.0
C1134 C 0.58834 0.11972 0.17169 0.0
C1135 C 0.58268 0.10808 0.15019 0.0
C1136 C 0.57884 0.08468 0.14959 0.0
C1137 C 0.57958 0.07319 0.17107 0.0
C1138 C 0.58509 0.08484 0.19255 0.0
H1139 H 0.65475 0.1049 0.22008 0.0
H1140 H 0.62911 0.08397 0.21806 0.0
H1141 H 0.63666 0.10272 0.19371 0.0
H1142 H 0.59218 0.13772 0.17163 0.0
H1143 H 0.58231 0.11734 0.13388 0.0
H1144 H 0.40419 0.60222 0.27685 0.0
H1145 H 0.42125 0.58588 0.31094 0.0
H1146 H 0.43268 0.65007 0.34659 0.0
H1147 H 0.41551 0.66662 0.31237 0.0
H1148 H 0.46699 0.59579 0.33239 0.0
H1149 H 0.39619 0.6098 0.39823 0.0
H1150 H 0.3924 0.61141 0.36628 0.0
H1151 H 0.40978 0.63387 0.38229 0.0
C1152 C 0.41023 0.61299 0.29192 0.0
C1153 C 0.40812 0.63589 0.2916 0.0
C1154 C 0.42015 0.60353 0.31152 0.0
C1155 C 0.42808 0.61646 0.33186 0.0
C1156 C 0.42644 0.63943 0.33149 0.0
H1157 H 0.47954 0.58031 0.47284 0.0
H1158 H 0.46499 0.59904 0.43896 0.0
C1159 C 0.41677 0.649 0.31167 0.0
C1160 C 0.43806 0.6058 0.35313 0.0
H1161 H 0.42826 0.59391 0.41277 0.0
C1162 C 0.45846 0.59541 0.34995 0.0
C1163 C 0.4273 0.60523 0.37633 0.0
C1164 C 0.4051 0.6155 0.38112 0.0
C1165 C 0.46845 0.58496 0.36902 0.0
C1166 C 0.45736 0.58383 0.39217 0.0
C1167 C 0.437 0.59441 0.39532 0.0
C1168 C 0.46652 0.57201 0.41322 0.0
C1169 C 0.4914 0.57594 0.36413 0.0
C1170 C 0.47215 0.55014 0.4109 0.0
C1171 C 0.48091 0.53942 0.43038 0.0
C1172 C 0.48387 0.54988 0.45321 0.0
C1173 C 0.47765 0.57151 0.45572 0.0
C1174 C 0.4692 0.58234 0.43615 0.0
H1175 H 0.50157 0.58468 0.34909 0.0
H1176 H 0.50278 0.57761 0.38018 0.0
H1177 H 0.48744 0.55808 0.35888 0.0
H1178 H 0.46957 0.54111 0.39399 0.0
H1179 H 0.48512 0.52273 0.42755 0.0
H1180 H 0.10256 0.37608 0.81478 0.0
H1181 H 0.08626 0.39622 0.84821 0.0
H1182 H 0.10937 0.45831 0.81335 0.0
H1183 H 0.12518 0.43828 0.77954 0.0
H1184 H 0.10675 0.42839 0.8804 0.0
H1185 H 0.0403 0.46344 0.8276 0.0
H1186 H 0.05581 0.44153 0.81595 0.0
H1187 H 0.07001 0.46999 0.81601 0.0
C1188 C 0.10401 0.39401 0.81396 0.0
C1189 C 0.11515 0.40535 0.79401 0.0
C1190 C 0.09476 0.40559 0.83334 0.0
C1191 C 0.09607 0.42892 0.83342 0.0
C1192 C 0.10756 0.44033 0.81376 0.0
H1193 H 0.04851 0.53128 0.92787 0.0
H1194 H 0.06514 0.50937 0.89626 0.0
C1195 C 0.11692 0.42878 0.79442 0.0
C1196 C 0.0856 0.44121 0.85401 0.0
H1197 H 0.04588 0.47719 0.86752 0.0
C1198 C 0.09334 0.43897 0.87754 0.0
C1199 C 0.06801 0.45509 0.85063 0.0
C1200 C 0.05784 0.45754 0.82624 0.0
C1201 C 0.08466 0.45059 0.89739 0.0
C1202 C 0.06716 0.46461 0.89399 0.0
C1203 C 0.05926 0.46662 0.87045 0.0
C1204 C 0.05733 0.4779 0.91422 0.0
C1205 C 0.09503 0.44827 0.92171 0.0
C1206 C 0.04702 0.46785 0.93526 0.0
C1207 C 0.03755 0.48055 0.95365 0.0
C1208 C 0.03793 0.50366 0.95147 0.0
C1209 C 0.04799 0.51359 0.93036 0.0
C1210 C 0.05752 0.50098 0.91212 0.0
H1211 H 0.11257 0.44241 0.92024 0.0
H1212 H 0.09713 0.46433 0.93193 0.0
H1213 H 0.08298 0.43584 0.93208 0.0
H1214 H 0.04582 0.45005 0.93732 0.0
H1215 H 0.02939 0.47218 0.96927 0.0
H1216 H 0.62941 0.82758 0.89977 0.0
H1217 H 0.60841 0.85617 0.91758 0.0
H1218 H 0.63846 0.90221 0.86366 0.0
H1219 H 0.66145 0.87461 0.84728 0.0
H1220 H 0.64045 0.92279 0.90338 0.0
H1221 H 0.54967 0.87706 0.89799 0.0
H1222 H 0.56789 0.86185 0.91512 0.0
H1223 H 0.57465 0.86668 0.88378 0.0
C1224 C 0.63186 0.84384 0.8918 0.0
C1225 C 0.6472 0.84856 0.8719 0.0
C1226 C 0.61936 0.86009 0.90176 0.0
C1227 C 0.62127 0.88124 0.89162 0.0
C1228 C 0.63644 0.88598 0.87171 0.0
H1229 H 0.5247 0.97345 0.94089 0.0
H1230 H 0.54496 0.94776 0.91638 0.0
C1231 C 0.64939 0.86996 0.86212 0.0
C1232 C 0.60857 0.89886 0.90252 0.0
H1233 H 0.55488 0.90896 0.92476 0.0
C1234 C 0.62165 0.9198 0.90775 0.0
C1235 C 0.58393 0.89529 0.9078 0.0
C1236 C 0.56821 0.87408 0.90061 0.0
C1237 C 0.61101 0.93697 0.91866 0.0
C1238 C 0.5868 0.9328 0.92568 0.0
C1239 C 0.57353 0.91211 0.91978 0.0
C1240 C 0.57509 0.94936 0.93976 0.0
C1241 C 0.62586 0.95947 0.92213 0.0
C1242 C 0.58516 0.9588 0.96109 0.0
C1243 C 0.57393 0.97389 0.97473 0.0
C1244 C 0.55199 0.97932 0.96775 0.0
C1245 C 0.54167 0.96965 0.94662 0.0
C1246 C 0.5532 0.95492 0.93266 0.0
H1247 H 0.6402 0.96225 0.90829 0.0
H1248 H 0.61499 0.97317 0.92128 0.0
H1249 H 0.63442 0.96025 0.93988 0.0
H1250 H 0.60152 0.95419 0.96751 0.0
H1251 H 0.58209 0.98073 0.99118 0.0
H1252 H 0.80343 0.11141 0.41857 0.0
H1253 H 0.8349 0.09142 0.4318 0.0
H1254 H 0.86826 0.15076 0.4684 0.0
H1255 H 0.83708 0.17112 0.45477 0.0
H1256 H 0.90006 0.12479 0.44139 0.0
H1257 H 0.83752 0.07506 0.50407 0.0
H1258 H 0.8281 0.075 0.47349 0.0
H1259 H 0.83114 0.10041 0.49102 0.0
C1260 C 0.81773 0.12036 0.429 0.0
C1261 C 0.81775 0.14282 0.43574 0.0
C1262 C 0.83555 0.10886 0.4367 0.0
C1263 C 0.85362 0.1196 0.4513 0.0
C1264 C 0.85432 0.14223 0.45722 0.0
H1265 H 0.94439 0.0595 0.54435 0.0
H1266 H 0.91679 0.08165 0.52674 0.0
C1267 C 0.83646 0.15376 0.44956 0.0
C1268 C 0.87105 0.10686 0.46143 0.0
H1269 H 0.87609 0.06535 0.50026 0.0
C1270 C 0.8949 0.11179 0.45426 0.0
C1271 C 0.86417 0.09016 0.47843 0.0
C1272 C 0.83888 0.08489 0.48742 0.0
C1273 C 0.91211 0.10012 0.46347 0.0
C1274 C 0.9051 0.08306 0.48004 0.0
C1275 C 0.8813 0.07836 0.48741 0.0
C1276 C 0.92223 0.07006 0.49036 0.0
C1277 C 0.93766 0.10636 0.45573 0.0
C1278 C 0.93416 0.05609 0.47569 0.0
C1279 C 0.94986 0.04339 0.4857 0.0
C1280 C 0.95372 0.04447 0.51052 0.0
C1281 C 0.94167 0.05837 0.52517 0.0
C1282 C 0.92597 0.07103 0.51516 0.0
H1283 H 0.94085 0.12295 0.44733 0.0
H1284 H 0.94962 0.10648 0.47122 0.0
H1285 H 0.94241 0.09386 0.44236 0.0
H1286 H 0.93115 0.05484 0.45656 0.0
H1287 H 0.95894 0.03275 0.47405 0.0
H1288 H 0.23687 0.66675 0.12965 0.0
H1289 H 0.20094 0.6469 0.11181 0.0
H1290 H 0.22503 0.58435 0.12478 0.0
H1291 H 0.26137 0.60417 0.14251 0.0
H1292 H 0.19508 0.61972 0.07226 0.0
H1293 H 0.15784 0.5719 0.15106 0.0
H1294 H 0.18193 0.59462 0.15348 0.0
H1295 H 0.18746 0.56766 0.14281 0.0
C1296 C 0.23477 0.64876 0.12869 0.0
C1297 C 0.25251 0.63726 0.13756 0.0
C1298 C 0.21395 0.63734 0.11849 0.0
C1299 C 0.2098 0.61395 0.11696 0.0
C1300 C 0.22728 0.60233 0.12605 0.0
H1301 H 0.09179 0.51909 0.05688 0.0
H1302 H 0.1286 0.53668 0.07551 0.0
C1303 C 0.24822 0.61378 0.13627 0.0
C1304 C 0.18763 0.60207 0.10515 0.0
H1305 H 0.13802 0.56359 0.11431 0.0
C1306 C 0.18262 0.6075 0.08156 0.0
C1307 C 0.17115 0.58592 0.11697 0.0
C1308 C 0.17467 0.57977 0.14255 0.0
C1309 C 0.1621 0.59726 0.06954 0.0
C1310 C 0.14541 0.58134 0.08146 0.0
C1311 C 0.15054 0.57573 0.10498 0.0
C1312 C 0.1226 0.57053 0.06994 0.0
C1313 C 0.15888 0.60327 0.04384 0.0
C1314 C 0.10635 0.58341 0.06068 0.0
C1315 C 0.08521 0.57334 0.04985 0.0
C1316 C 0.07938 0.54997 0.04806 0.0
C1317 C 0.09549 0.53709 0.05768 0.0
C1318 C 0.11667 0.54719 0.06848 0.0
H1319 H 0.17607 0.60988 0.03512 0.0
H1320 H 0.15048 0.58867 0.03317 0.0
H1321 H 0.14732 0.61644 0.04341 0.0
H1322 H 0.10986 0.60138 0.06203 0.0
H1323 H 0.07334 0.58398 0.04299 0.0
H1324 H 0.28824 0.38327 0.62912 0.0
H1325 H 0.32451 0.39895 0.60787 0.0
H1326 H 0.31207 0.46507 0.62829 0.0
H1327 H 0.27523 0.44974 0.64875 0.0
H1328 H 0.32929 0.4326 0.56901 0.0
H1329 H 0.38218 0.46146 0.64943 0.0
H1330 H 0.35655 0.44017 0.65089 0.0
H1331 H 0.35278 0.46879 0.64808 0.0
C1332 C 0.29286 0.40118 0.62895 0.0
C1333 C 0.27836 0.41505 0.64095 0.0
C1334 C 0.31388 0.41015 0.61686 0.0
C1335 C 0.32136 0.43324 0.61662 0.0
C1336 C 0.30704 0.44718 0.62848 0.0
H1337 H 0.45241 0.51182 0.5572 0.0
H1338 H 0.41483 0.50029 0.57907 0.0
C1339 C 0.28587 0.43827 0.64036 0.0
C1340 C 0.34375 0.44271 0.6035 0.0
H1341 H 0.40032 0.46958 0.6117 0.0
C1342 C 0.34481 0.44067 0.57838 0.0
C1343 C 0.36401 0.45359 0.61554 0.0
C1344 C 0.36408 0.45611 0.64249 0.0
C1345 C 0.36534 0.44916 0.56505 0.0
C1346 C 0.386 0.45938 0.5771 0.0
C1347 C 0.38475 0.46175 0.60226 0.0
C1348 C 0.40915 0.46678 0.56399 0.0
C1349 C 0.36435 0.44752 0.53804 0.0
C1350 C 0.41911 0.45189 0.54855 0.0
C1351 C 0.44031 0.45859 0.53583 0.0
C1352 C 0.45268 0.48033 0.53838 0.0
C1353 C 0.44327 0.49512 0.55444 0.0
C1354 C 0.42176 0.48843 0.56707 0.0
H1355 H 0.34591 0.44693 0.53171 0.0
H1356 H 0.3756 0.4618 0.52958 0.0
H1357 H 0.37069 0.43191 0.5318 0.0
H1358 H 0.41052 0.43488 0.54634 0.0
H1359 H 0.44711 0.44654 0.52397 0.0
H1360 H 0.78689 0.72752 0.89267 0.0
H1361 H 0.8146 0.70754 0.91331 0.0
H1362 H 0.79138 0.64864 0.87047 0.0
H1363 H 0.764 0.66871 0.84941 0.0
H1364 H 0.8111 0.66961 0.93949 0.0
H1365 H 0.86163 0.65987 0.85472 0.0
H1366 H 0.83882 0.67749 0.85728 0.0
H1367 H 0.83101 0.64786 0.85342 0.0
C1368 C 0.78737 0.71018 0.888 0.0
C1369 C 0.7735 0.69971 0.86929 0.0
C1370 C 0.80327 0.69881 0.89972 0.0
C1371 C 0.80549 0.67679 0.89298 0.0
C1372 C 0.79045 0.66583 0.87546 0.0
H1373 H 0.90172 0.5883 0.94128 0.0
H1374 H 0.86884 0.60355 0.9234 0.0
C1375 C 0.77473 0.67725 0.86356 0.0
C1376 C 0.82434 0.66576 0.90344 0.0
H1377 H 0.87401 0.6426 0.88889 0.0
C1378 C 0.82483 0.66368 0.92843 0.0
C1379 C 0.84236 0.65818 0.88896 0.0
C1380 C 0.84364 0.66112 0.86214 0.0
C1381 C 0.8428 0.65412 0.93931 0.0
C1382 C 0.86069 0.64653 0.92481 0.0
C1383 C 0.86011 0.64835 0.89986 0.0
C1384 C 0.8807 0.63738 0.93533 0.0
C1385 C 0.84261 0.65212 0.96621 0.0
C1386 C 0.89842 0.6515 0.94746 0.0
C1387 C 0.91743 0.64295 0.95734 0.0
C1388 C 0.919 0.62006 0.95538 0.0
C1389 C 0.90128 0.60603 0.94287 0.0
C1390 C 0.88236 0.61465 0.93283 0.0
H1391 H 0.82548 0.65523 0.97448 0.0
H1392 H 0.84604 0.6353 0.97121 0.0
H1393 H 0.85695 0.66446 0.97383 0.0
H1394 H 0.89758 0.66917 0.94919 0.0
H1395 H 0.93095 0.65432 0.96643 0.0
H1396 H 0.40704 0.7827 0.11096 0.0
H1397 H 0.42218 0.81764 0.09129 0.0
H1398 H 0.44217 0.84796 0.15986 0.0
H1399 H 0.42737 0.81303 0.1796 0.0
H1400 H 0.41163 0.85846 0.0921 0.0
H1401 H 0.50318 0.86507 0.12501 0.0
H1402 H 0.48189 0.84036 0.12891 0.0
H1403 H 0.48182 0.86394 0.14911 0.0
C1404 C 0.41458 0.79676 0.122 0.0
C1405 C 0.41601 0.79458 0.14709 0.0
C1406 C 0.42337 0.81691 0.1106 0.0
C1407 C 0.43398 0.83575 0.12376 0.0
C1408 C 0.43492 0.83376 0.14888 0.0
H1409 H 0.46081 0.97236 0.06241 0.0
H1410 H 0.4429 0.9383 0.08276 0.0
C1411 C 0.4263 0.81358 0.16027 0.0
C1412 C 0.44378 0.8573 0.11129 0.0
H1413 H 0.49316 0.89682 0.10586 0.0
C1414 C 0.4295 0.86676 0.09515 0.0
C1415 C 0.46726 0.86838 0.11466 0.0
C1416 C 0.48452 0.85882 0.13015 0.0
C1417 C 0.43777 0.88665 0.08275 0.0
C1418 C 0.461 0.89811 0.08674 0.0
C1419 C 0.4753 0.88853 0.10273 0.0
C1420 C 0.47135 0.91929 0.07384 0.0
C1421 C 0.42164 0.89471 0.06485 0.0
C1422 C 0.49367 0.92076 0.06223 0.0
C1423 C 0.50405 0.94037 0.05088 0.0
C1424 C 0.49259 0.95943 0.05058 0.0
C1425 C 0.47014 0.95806 0.06197 0.0
C1426 C 0.45978 0.93837 0.07356 0.0
H1427 H 0.40785 0.88107 0.05861 0.0
H1428 H 0.41248 0.9078 0.07347 0.0
H1429 H 0.43178 0.90187 0.04897 0.0
H1430 H 0.50324 0.90661 0.06191 0.0
H1431 H 0.52132 0.94062 0.04238 0.0
H1432 H 0.08561 0.25654 0.64888 0.0
H1433 H 0.06731 0.2202 0.6329 0.0
H1434 H 0.1362 0.20504 0.61133 0.0
H1435 H 0.15459 0.24041 0.62833 0.0
H1436 H 0.06467 0.2022 0.58924 0.0
H1437 H 0.11207 0.14858 0.64342 0.0
H1438 H 0.11336 0.17794 0.64986 0.0
H1439 H 0.13253 0.16818 0.62714 0.0
C1440 C 0.09697 0.24533 0.64119 0.0
C1441 C 0.12175 0.25183 0.63999 0.0
C1442 C 0.0864 0.22449 0.63179 0.0
C1443 C 0.10024 0.20937 0.62106 0.0
C1444 C 0.12493 0.21586 0.61991 0.0
H1445 H 0.04842 0.10089 0.51901 0.0
H1446 H 0.06439 0.13624 0.53853 0.0
C1447 C 0.13548 0.23651 0.62939 0.0
C1448 C 0.08903 0.18725 0.61039 0.0
H1449 H 0.09287 0.13137 0.60853 0.0
C1450 C 0.07078 0.18673 0.59365 0.0
C1451 C 0.09645 0.16671 0.61621 0.0
C1452 C 0.11449 0.16531 0.63533 0.0
C1453 C 0.06035 0.16668 0.58227 0.0
C1454 C 0.06872 0.14632 0.58709 0.0
C1455 C 0.08652 0.14678 0.60432 0.0
C1456 C 0.05912 0.1244 0.57485 0.0
C1457 C 0.04003 0.16758 0.56559 0.0
C1458 C 0.05157 0.10525 0.58835 0.0
C1459 C 0.04279 0.08475 0.57711 0.0
C1460 C 0.04121 0.08267 0.55194 0.0
C1461 C 0.04903 0.10175 0.53841 0.0
C1462 C 0.05803 0.12219 0.54965 0.0
H1463 H 0.03083 0.18213 0.56987 0.0
H1464 H 0.04699 0.16933 0.54691 0.0
H1465 H 0.02686 0.15224 0.56652 0.0
H1466 H 0.05223 0.10617 0.60774 0.0
H1467 H 0.03701 0.07055 0.58824 0.0
H1468 H 0.69765 0.28099 0.51249 0.0
H1469 H 0.67366 0.30876 0.52675 0.0
H1470 H 0.62009 0.2566 0.55248 0.0
H1471 H 0.64368 0.22872 0.53667 0.0
H1472 H 0.60124 0.27903 0.5235 0.0
H1473 H 0.65186 0.34114 0.5825 0.0
H1474 H 0.67027 0.33751 0.55682 0.0
H1475 H 0.66123 0.3144 0.57639 0.0
C1476 C 0.68126 0.27557 0.52219 0.0
C1477 C 0.67243 0.25288 0.52363 0.0
C1478 C 0.66755 0.29146 0.53053 0.0
C1479 C 0.64503 0.28489 0.54094 0.0
C1480 C 0.63737 0.26212 0.54456 0.0
H1481 H 0.56558 0.39888 0.54333 0.0
H1482 H 0.58167 0.36707 0.55928 0.0
C1483 C 0.65086 0.2462 0.53568 0.0
C1484 C 0.62791 0.30109 0.54282 0.0
H1485 H 0.62544 0.35618 0.55386 0.0
C1486 C 0.60628 0.29569 0.53088 0.0
C1487 C 0.63395 0.32278 0.55278 0.0
C1488 C 0.6555 0.32912 0.56807 0.0
C1489 C 0.59182 0.31186 0.52659 0.0
C1490 C 0.59955 0.33416 0.5337 0.0
C1491 C 0.61986 0.33916 0.54777 0.0
C1492 C 0.58837 0.35268 0.52443 0.0
C1493 C 0.56884 0.30499 0.51364 0.0
C1494 C 0.58697 0.35518 0.49956 0.0
C1495 C 0.57756 0.37311 0.49041 0.0
C1496 C 0.56968 0.38912 0.50594 0.0
C1497 C 0.57112 0.38661 0.53089 0.0
C1498 C 0.58046 0.36856 0.54004 0.0
H1499 H 0.56128 0.28755 0.51772 0.0
H1500 H 0.55552 0.31601 0.51858 0.0
H1501 H 0.57226 0.30582 0.494 0.0
H1502 H 0.59356 0.34345 0.48715 0.0
H1503 H 0.57656 0.37447 0.47114 0.0
loop_
_geom_bond_atom_site_label_1
_geom_bond_atom_site_label_2
_geom_bond_distance
_geom_bond_site_symmetry_2
_ccdc_geom_bond_type
C0 C1 1.391 . S
C0 C4 1.391 . S
C0 H42 0.948 . S
C1 C0 1.391 . S
C1 C2 1.391 . S
C2 C1 1.391 . S
C2 H58 0.947 . S
C2 C59 1.392 . S
C3 C4 1.391 . S
C3 C7 1.397 . S
C3 C59 1.419 . S
C4 C0 1.391 . S
C4 C3 1.391 . S
C4 C5 1.399 . S
C5 C4 1.399 . S
C5 C8 1.396 . S
C5 C17 1.453 . S
C5 C18 1.684 . S
H6 C30 0.948 . S
C7 C3 1.397 . S
C7 C8 1.394 . S
C7 C26 1.723 . S
C8 C5 1.396 . S
C8 C7 1.394 . S
C8 C38 1.723 . S
H9 C32 0.947 . S
H10 C33 0.948 . S
H11 C39 0.982 . S
H12 C40 0.979 . S
H13 C40 0.980 . S
H14 C40 0.983 . S
H15 C39 0.979 . S
H16 C39 0.977 . S
C17 C5 1.453 . S
C17 H46 0.982 . S
C17 H47 0.979 . S
C17 H48 0.977 . S
C18 C5 1.684 . S
C18 H43 0.979 . S
C18 H44 0.980 . S
C18 H45 0.983 . S
C19 C20 1.391 . S
C19 C24 1.391 . S
C19 H49 0.948 . S
C20 C19 1.391 . S
C20 C21 1.391 . S
C21 C20 1.391 . S
C21 C22 1.392 . S
C21 H50 0.947 . S
C22 C21 1.392 . S
C22 C23 1.419 . S
C22 H51 0.948 . S
C23 C22 1.419 . S
C23 C24 1.391 . S
C23 C27 1.397 . S
C24 C19 1.391 . S
C24 C23 1.391 . S
C24 C25 1.399 . S
C25 C24 1.399 . S
C25 C26 1.396 . S
C25 C28 1.453 . S
C25 C29 1.684 . S
C26 C7 1.723 . S
C26 C25 1.396 . S
C26 C27 1.394 . S
C27 C23 1.397 . S
C27 C26 1.394 . S
C27 C37 1.723 . S
C28 C25 1.453 . S
C28 H52 0.982 . S
C28 H53 0.979 . S
C28 H54 0.977 . S
C29 C25 1.684 . S
C29 H55 0.979 . S
C29 H56 0.980 . S
C29 H57 0.983 . S
C30 H6 0.948 . S
C30 C31 1.391 . S
C30 C35 1.391 . S
C31 C30 1.391 . S
C31 C32 1.391 . S
C32 H9 0.947 . S
C32 C31 1.391 . S
C32 C33 1.392 . S
C33 H10 0.948 . S
C33 C32 1.392 . S
C33 C34 1.419 . S
C34 C33 1.419 . S
C34 C35 1.391 . S
C34 C38 1.397 . S
C35 C30 1.391 . S
C35 C34 1.391 . S
C35 C36 1.399 . S
C36 C35 1.399 . S
C36 C37 1.396 . S
C36 C39 1.453 . S
C36 C40 1.684 . S
C37 C27 1.723 . S
C37 C36 1.396 . S
C37 C38 1.394 . S
C38 C8 1.723 . S
C38 C34 1.397 . S
C38 C37 1.394 . S
C39 H11 0.982 . S
C39 H15 0.979 . S
C39 H16 0.977 . S
C39 C36 1.453 . S
C40 H12 0.979 . S
C40 H13 0.980 . S
C40 H14 0.983 . S
C40 C36 1.684 . S
H41 C59 0.948 . S
H42 C0 0.948 . S
H43 C18 0.979 . S
H44 C18 0.980 . S
H45 C18 0.983 . S
H46 C17 0.982 . S
H47 C17 0.979 . S
H48 C17 0.977 . S
H49 C19 0.948 . S
H50 C21 0.947 . S
H51 C22 0.948 . S
H52 C28 0.982 . S
H53 C28 0.979 . S
H54 C28 0.977 . S
H55 C29 0.979 . S
H56 C29 0.980 . S
H57 C29 0.983 . S
H58 C2 0.947 . S
C59 C2 1.392 . S
C59 C3 1.419 . S
C59 H41 0.948 . S
C60 C61 1.391 . S
C60 C64 1.391 . S
C60 H102 0.948 . S
C61 C60 1.391 . S
C61 C62 1.391 . S
C62 C61 1.391 . S
C62 H118 0.947 . S
C62 C119 1.392 . S
C63 C64 1.391 . S
C63 C67 1.397 . S
C63 C119 1.419 . S
C64 C60 1.391 . S
C64 C63 1.391 . S
C64 C65 1.399 . S
C65 C64 1.399 . S
C65 C68 1.396 . S
C65 C77 1.453 . S
C65 C78 1.684 . S
H66 C90 0.948 . S
C67 C63 1.397 . S
C67 C68 1.394 . S
C67 C86 1.723 . S
C68 C65 1.396 . S
C68 C67 1.394 . S
C68 C98 1.723 . S
H69 C92 0.947 . S
H70 C93 0.948 . S
H71 C99 0.982 . S
H72 C100 0.979 . S
H73 C100 0.980 . S
H74 C100 0.983 . S
H75 C99 0.979 . S
H76 C99 0.977 . S
C77 C65 1.453 . S
C77 H106 0.982 . S
C77 H107 0.979 . S
C77 H108 0.977 . S
C78 C65 1.684 . S
C78 H103 0.979 . S
C78 H104 0.980 . S
C78 H105 0.983 . S
C79 C80 1.391 . S
C79 C84 1.391 . S
C79 H109 0.948 . S
C80 C79 1.391 . S
C80 C81 1.391 . S
C81 C80 1.391 . S
C81 C82 1.392 . S
C81 H110 0.947 . S
C82 C81 1.392 . S
C82 C83 1.419 . S
C82 H111 0.948 . S
C83 C82 1.419 . S
C83 C84 1.391 . S
C83 C87 1.397 . S
C84 C79 1.391 . S
C84 C83 1.391 . S
C84 C85 1.399 . S
C85 C84 1.399 . S
C85 C86 1.396 . S
C85 C88 1.453 . S
C85 C89 1.684 . S
C86 C67 1.723 . S
C86 C85 1.396 . S
C86 C87 1.394 . S
C87 C83 1.397 . S
C87 C86 1.394 . S
C87 C97 1.723 . S
C88 C85 1.453 . S
C88 H112 0.982 . S
C88 H113 0.979 . S
C88 H114 0.977 . S
C89 C85 1.684 . S
C89 H115 0.979 . S
C89 H116 0.980 . S
C89 H117 0.983 . S
C90 H66 0.948 . S
C90 C91 1.391 . S
C90 C95 1.391 . S
C91 C90 1.391 . S
C91 C92 1.391 . S
C92 H69 0.947 . S
C92 C91 1.391 . S
C92 C93 1.392 . S
C93 H70 0.948 . S
C93 C92 1.392 . S
C93 C94 1.419 . S
C94 C93 1.419 . S
C94 C95 1.391 . S
C94 C98 1.397 . S
C95 C90 1.391 . S
C95 C94 1.391 . S
C95 C96 1.399 . S
C96 C95 1.399 . S
C96 C97 1.396 . S
C96 C99 1.453 . S
C96 C100 1.684 . S
C97 C87 1.723 . S
C97 C96 1.396 . S
C97 C98 1.394 . S
C98 C68 1.723 . S
C98 C94 1.397 . S
C98 C97 1.394 . S
C99 H71 0.982 . S
C99 H75 0.979 . S
C99 H76 0.977 . S
C99 C96 1.453 . S
C100 H72 0.979 . S
C100 H73 0.980 . S
C100 H74 0.983 . S
C100 C96 1.684 . S
H101 C119 0.948 . S
H102 C60 0.948 . S
H103 C78 0.979 . S
H104 C78 0.980 . S
H105 C78 0.983 . S
H106 C77 0.982 . S
H107 C77 0.979 . S
H108 C77 0.977 . S
H109 C79 0.948 . S
H110 C81 0.947 . S
H111 C82 0.948 . S
H112 C88 0.982 . S
H113 C88 0.979 . S
H114 C88 0.977 . S
H115 C89 0.979 . S
H116 C89 0.980 . S
H117 C89 0.983 . S
H118 C62 0.947 . S
C119 C62 1.392 . S
C119 C63 1.419 . S
C119 H101 0.948 . S
C120 C121 1.391 . S
C120 C124 1.391 . S
C120 H162 0.948 . S
C121 C120 1.391 . S
C121 C122 1.391 . S
C122 C121 1.391 . S
C122 H178 0.947 . S
C122 C179 1.392 . S
C123 C124 1.391 . S
C123 C127 1.397 . S
C123 C179 1.419 . S
C124 C120 1.391 . S
C124 C123 1.391 . S
C124 C125 1.399 . S
C125 C124 1.399 . S
C125 C128 1.396 . S
C125 C137 1.453 . S
C125 C138 1.684 . S
H126 C150 0.948 . S
C127 C123 1.397 . S
C127 C128 1.394 . S
C127 C146 1.723 . S
C128 C125 1.396 . S
C128 C127 1.394 . S
C128 C158 1.723 . S
H129 C152 0.947 . S
H130 C153 0.948 . S
H131 C159 0.982 . S
H132 C160 0.979 . S
H133 C160 0.980 . S
H134 C160 0.983 . S
H135 C159 0.979 . S
H136 C159 0.977 . S
C137 C125 1.453 . S
C137 H166 0.982 . S
C137 H167 0.979 . S
C137 H168 0.977 . S
C138 C125 1.684 . S
C138 H163 0.979 . S
C138 H164 0.980 . S
C138 H165 0.983 . S
C139 C140 1.391 . S
C139 C144 1.391 . S
C139 H169 0.948 . S
C140 C139 1.391 . S
C140 C141 1.391 . S
C141 C140 1.391 . S
C141 C142 1.392 . S
C141 H170 0.947 . S
C142 C141 1.392 . S
C142 C143 1.419 . S
C142 H171 0.948 . S
C143 C142 1.419 . S
C143 C144 1.391 . S
C143 C147 1.397 . S
C144 C139 1.391 . S
C144 C143 1.391 . S
C144 C145 1.399 . S
C145 C144 1.399 . S
C145 C146 1.396 . S
C145 C148 1.453 . S
C145 C149 1.684 . S
C146 C127 1.723 . S
C146 C145 1.396 . S
C146 C147 1.394 . S
C147 C143 1.397 . S
C147 C146 1.394 . S
C147 C157 1.723 . S
C148 C145 1.453 . S
C148 H172 0.982 . S
C148 H173 0.979 . S
C148 H174 0.977 . S
C149 C145 1.684 . S
C149 H175 0.979 . S
C149 H176 0.980 . S
C149 H177 0.983 . S
C150 H126 0.948 . S
C150 C151 1.391 . S
C150 C155 1.391 . S
C151 C150 1.391 . S
C151 C152 1.391 . S
C152 H129 0.947 . S
C152 C151 1.391 . S
C152 C153 1.392 . S
C153 H130 0.948 . S
C153 C152 1.392 . S
C153 C154 1.419 . S
C154 C153 1.419 . S
C154 C155 1.391 . S
C154 C158 1.397 . S
C155 C150 1.391 . S
C155 C154 1.391 . S
C155 C156 1.399 . S
C156 C155 1.399 . S
C156 C157 1.396 . S
C156 C159 1.453 . S
C156 C160 1.684 . S
C157 C147 1.723 . S
C157 C156 1.396 . S
C157 C158 1.394 . S
C158 C128 1.723 . S
C158 C154 1.397 . S
C158 C157 1.394 . S
C159 H131 0.982 . S
C159 H135 0.979 . S
C159 H136 0.977 . S
C159 C156 1.453 . S
C160 H132 0.979 . S
C160 H133 0.980 . S
C160 H134 0.983 . S
C160 C156 1.684 . S
H161 C179 0.948 . S
H162 C120 0.948 . S
H163 C138 0.979 . S
H164 C138 0.980 . S
H165 C138 0.983 . S
H166 C137 0.982 . S
H167 C137 0.979 . S
H168 C137 0.977 . S
H169 C139 0.948 . S
H170 C141 0.947 . S
H171 C142 0.948 . S
H172 C148 0.982 . S
H173 C148 0.979 . S
H174 C148 0.977 . S
H175 C149 0.979 . S
H176 C149 0.980 . S
H177 C149 0.983 . S
H178 C122 0.947 . S
C179 C122 1.392 . S
C179 C123 1.419 . S
C179 H161 0.948 . S
C180 C181 1.391 . S
C180 C184 1.391 . S
C180 H222 0.948 . S
C181 C180 1.391 . S
C181 C182 1.391 . S
C182 C181 1.391 . S
C182 H238 0.947 . S
C182 C239 1.392 . S
C183 C184 1.391 . S
C183 C187 1.397 . S
C183 C239 1.419 . S
C184 C180 1.391 . S
C184 C183 1.391 . S
C184 C185 1.399 . S
C185 C184 1.399 . S
C185 C188 1.396 . S
C185 C197 1.453 . S
C185 C198 1.684 . S
H186 C210 0.948 . S
C187 C183 1.397 . S
C187 C188 1.394 . S
C187 C206 1.723 . S
C188 C185 1.396 . S
C188 C187 1.394 . S
C188 C218 1.723 . S
H189 C212 0.947 . S
H190 C213 0.948 . S
H191 C219 0.982 . S
H192 C220 0.979 . S
H193 C220 0.980 . S
H194 C220 0.983 . S
H195 C219 0.979 . S
H196 C219 0.977 . S
C197 C185 1.453 . S
C197 H226 0.982 . S
C197 H227 0.979 . S
C197 H228 0.977 . S
C198 C185 1.684 . S
C198 H223 0.979 . S
C198 H224 0.980 . S
C198 H225 0.983 . S
C199 C200 1.391 . S
C199 C204 1.391 . S
C199 H229 0.948 . S
C200 C199 1.391 . S
C200 C201 1.391 . S
C201 C200 1.391 . S
C201 C202 1.392 . S
C201 H230 0.947 . S
C202 C201 1.392 . S
C202 C203 1.419 . S
C202 H231 0.948 . S
C203 C202 1.419 . S
C203 C204 1.391 . S
C203 C207 1.397 . S
C204 C199 1.391 . S
C204 C203 1.391 . S
C204 C205 1.399 . S
C205 C204 1.399 . S
C205 C206 1.396 . S
C205 C208 1.453 . S
C205 C209 1.684 . S
C206 C187 1.723 . S
C206 C205 1.396 . S
C206 C207 1.394 . S
C207 C203 1.397 . S
C207 C206 1.394 . S
C207 C217 1.723 . S
C208 C205 1.453 . S
C208 H232 0.982 . S
C208 H233 0.979 . S
C208 H234 0.977 . S
C209 C205 1.684 . S
C209 H235 0.979 . S
C209 H236 0.980 . S
C209 H237 0.983 . S
C210 H186 0.948 . S
C210 C211 1.391 . S
C210 C215 1.391 . S
C211 C210 1.391 . S
C211 C212 1.391 . S
C212 H189 0.947 . S
C212 C211 1.391 . S
C212 C213 1.392 . S
C213 H190 0.948 . S
C213 C212 1.392 . S
C213 C214 1.419 . S
C214 C213 1.419 . S
C214 C215 1.391 . S
C214 C218 1.397 . S
C215 C210 1.391 . S
C215 C214 1.391 . S
C215 C216 1.399 . S
C216 C215 1.399 . S
C216 C217 1.396 . S
C216 C219 1.453 . S
C216 C220 1.684 . S
C217 C207 1.723 . S
C217 C216 1.396 . S
C217 C218 1.394 . S
C218 C188 1.723 . S
C218 C214 1.397 . S
C218 C217 1.394 . S
C219 H191 0.982 . S
C219 H195 0.979 . S
C219 H196 0.977 . S
C219 C216 1.453 . S
C220 H192 0.979 . S
C220 H193 0.980 . S
C220 H194 0.983 . S
C220 C216 1.684 . S
H221 C239 0.948 . S
H222 C180 0.948 . S
H223 C198 0.979 . S
H224 C198 0.980 . S
H225 C198 0.983 . S
H226 C197 0.982 . S
H227 C197 0.979 . S
H228 C197 0.977 . S
H229 C199 0.948 . S
H230 C201 0.947 . S
H231 C202 0.948 . S
H232 C208 0.982 . S
H233 C208 0.979 . S
H234 C208 0.977 . S
H235 C209 0.979 . S
H236 C209 0.980 . S
H237 C209 0.983 . S
H238 C182 0.947 . S
C239 C182 1.392 . S
C239 C183 1.419 . S
C239 H221 0.948 . S
C240 C241 1.391 . S
C240 C244 1.391 . S
C240 H282 0.948 . S
C241 C240 1.391 . S
C241 C242 1.391 . S
C242 C241 1.391 . S
C242 H298 0.947 . S
C242 C299 1.392 . S
C243 C244 1.391 . S
C243 C247 1.397 . S
C243 C299 1.419 . S
C244 C240 1.391 . S
C244 C243 1.391 . S
C244 C245 1.399 . S
C245 C244 1.399 . S
C245 C248 1.396 . S
C245 C257 1.453 . S
C245 C258 1.684 . S
H246 C270 0.948 . S
C247 C243 1.397 . S
C247 C248 1.394 . S
C247 C266 1.723 . S
C248 C245 1.396 . S
C248 C247 1.394 . S
C248 C278 1.723 . S
H249 C272 0.947 . S
H250 C273 0.948 . S
H251 C279 0.982 . S
H252 C280 0.979 . S
H253 C280 0.980 . S
H254 C280 0.983 . S
H255 C279 0.979 . S
H256 C279 0.977 . S
C257 C245 1.453 . S
C257 H286 0.982 . S
C257 H287 0.979 . S
C257 H288 0.977 . S
C258 C245 1.684 . S
C258 H283 0.979 . S
C258 H284 0.980 . S
C258 H285 0.983 . S
C259 C260 1.391 . S
C259 C264 1.391 . S
C259 H289 0.948 . S
C260 C259 1.391 . S
C260 C261 1.391 . S
C261 C260 1.391 . S
C261 C262 1.392 . S
C261 H290 0.947 . S
C262 C261 1.392 . S
C262 C263 1.419 . S
C262 H291 0.948 . S
C263 C262 1.419 . S
C263 C264 1.391 . S
C263 C267 1.397 . S
C264 C259 1.391 . S
C264 C263 1.391 . S
C264 C265 1.399 . S
C265 C264 1.399 . S
C265 C266 1.396 . S
C265 C268 1.453 . S
C265 C269 1.684 . S
C266 C247 1.723 . S
C266 C265 1.396 . S
C266 C267 1.394 . S
C267 C263 1.397 . S
C267 C266 1.394 . S
C267 C277 1.723 . S
C268 C265 1.453 . S
C268 H292 0.982 . S
C268 H293 0.979 . S
C268 H294 0.977 . S
C269 C265 1.684 . S
C269 H295 0.979 . S
C269 H296 0.980 . S
C269 H297 0.983 . S
C270 H246 0.948 . S
C270 C271 1.391 . S
C270 C275 1.391 . S
C271 C270 1.391 . S
C271 C272 1.391 . S
C272 H249 0.947 . S
C272 C271 1.391 . S
C272 C273 1.392 . S
C273 H250 0.948 . S
C273 C272 1.392 . S
C273 C274 1.419 . S
C274 C273 1.419 . S
C274 C275 1.391 . S
C274 C278 1.397 . S
C275 C270 1.391 . S
C275 C274 1.391 . S
C275 C276 1.399 . S
C276 C275 1.399 . S
C276 C277 1.396 . S
C276 C279 1.453 . S
C276 C280 1.684 . S
C277 C267 1.723 . S
C277 C276 1.396 . S
C277 C278 1.394 . S
C278 C248 1.723 . S
C278 C274 1.397 . S
C278 C277 1.394 . S
C279 H251 0.982 . S
C279 H255 0.979 . S
C279 H256 0.977 . S
C279 C276 1.453 . S
C280 H252 0.979 . S
C280 H253 0.980 . S
C280 H254 0.983 . S
C280 C276 1.684 . S
H281 C299 0.948 . S
H282 C240 0.948 . S
H283 C258 0.979 . S
H284 C258 0.980 . S
H285 C258 0.983 . S
H286 C257 0.982 . S
H287 C257 0.979 . S
H288 C257 0.977 . S
H289 C259 0.948 . S
H290 C261 0.947 . S
H291 C262 0.948 . S
H292 C268 0.982 . S
H293 C268 0.979 . S
H294 C268 0.977 . S
H295 C269 0.979 . S
H296 C269 0.980 . S
H297 C269 0.983 . S
H298 C242 0.947 . S
C299 C242 1.392 . S
C299 C243 1.419 . S
C299 H281 0.948 . S
C300 C301 1.391 . S
C300 C304 1.391 . S
C300 H342 0.948 . S
C301 C300 1.391 . S
C301 C302 1.391 . S
C302 C301 1.391 . S
C302 H358 0.947 . S
C302 C359 1.392 . S
C303 C304 1.391 . S
C303 C307 1.397 . S
C303 C359 1.419 . S
C304 C300 1.391 . S
C304 C303 1.391 . S
C304 C305 1.399 . S
C305 C304 1.399 . S
C305 C308 1.396 . S
C305 C317 1.453 . S
C305 C318 1.684 . S
H306 C330 0.948 . S
C307 C303 1.397 . S
C307 C308 1.394 . S
C307 C326 1.723 . S
C308 C305 1.396 . S
C308 C307 1.394 . S
C308 C338 1.723 . S
H309 C332 0.947 . S
H310 C333 0.948 . S
H311 C339 0.982 . S
H312 C340 0.979 . S
H313 C340 0.980 . S
H314 C340 0.983 . S
H315 C339 0.979 . S
H316 C339 0.977 . S
C317 C305 1.453 . S
C317 H346 0.982 . S
C317 H347 0.979 . S
C317 H348 0.977 . S
C318 C305 1.684 . S
C318 H343 0.979 . S
C318 H344 0.980 . S
C318 H345 0.983 . S
C319 C320 1.391 . S
C319 C324 1.391 . S
C319 H349 0.948 . S
C320 C319 1.391 . S
C320 C321 1.391 . S
C321 C320 1.391 . S
C321 C322 1.392 . S
C321 H350 0.947 . S
C322 C321 1.392 . S
C322 C323 1.419 . S
C322 H351 0.948 . S
C323 C322 1.419 . S
C323 C324 1.391 . S
C323 C327 1.397 . S
C324 C319 1.391 . S
C324 C323 1.391 . S
C324 C325 1.399 . S
C325 C324 1.399 . S
C325 C326 1.396 . S
C325 C328 1.453 . S
C325 C329 1.684 . S
C326 C307 1.723 . S
C326 C325 1.396 . S
C326 C327 1.394 . S
C327 C323 1.397 . S
C327 C326 1.394 . S
C327 C337 1.723 . S
C328 C325 1.453 . S
C328 H352 0.982 . S
C328 H353 0.979 . S
C328 H354 0.977 . S
C329 C325 1.684 . S
C329 H355 0.979 . S
C329 H356 0.980 . S
C329 H357 0.983 . S
C330 H306 0.948 . S
C330 C331 1.391 . S
C330 C335 1.391 . S
C331 C330 1.391 . S
C331 C332 1.391 . S
C332 H309 0.947 . S
C332 C331 1.391 . S
C332 C333 1.392 . S
C333 H310 0.948 . S
C333 C332 1.392 . S
C333 C334 1.419 . S
C334 C333 1.419 . S
C334 C335 1.391 . S
C334 C338 1.397 . S
C335 C330 1.391 . S
C335 C334 1.391 . S
C335 C336 1.399 . S
C336 C335 1.399 . S
C336 C337 1.396 . S
C336 C339 1.453 . S
C336 C340 1.684 . S
C337 C327 1.723 . S
C337 C336 1.396 . S
C337 C338 1.394 . S
C338 C308 1.723 . S
C338 C334 1.397 . S
C338 C337 1.394 . S
C339 H311 0.982 . S
C339 H315 0.979 . S
C339 H316 0.977 . S
C339 C336 1.453 . S
C340 H312 0.979 . S
C340 H313 0.980 . S
C340 H314 0.983 . S
C340 C336 1.684 . S
H341 C359 0.948 . S
H342 C300 0.948 . S
H343 C318 0.979 . S
H344 C318 0.980 . S
H345 C318 0.983 . S
H346 C317 0.982 . S
H347 C317 0.979 . S
H348 C317 0.977 . S
H349 C319 0.948 . S
H350 C321 0.947 . S
H351 C322 0.948 . S
H352 C328 0.982 . S
H353 C328 0.979 . S
H354 C328 0.977 . S
H355 C329 0.979 . S
H356 C329 0.980 . S
H357 C329 0.983 . S
H358 C302 0.947 . S
C359 C302 1.392 . S
C359 C303 1.419 . S
C359 H341 0.948 . S
C360 C361 1.391 . S
C360 C364 1.391 . S
C360 H402 0.948 . S
C361 C360 1.391 . S
C361 C362 1.391 . S
C362 C361 1.391 . S
C362 H418 0.947 . S
C362 C419 1.392 . S
C363 C364 1.391 . S
C363 C367 1.397 . S
C363 C419 1.419 . S
C364 C360 1.391 . S
C364 C363 1.391 . S
C364 C365 1.399 . S
C365 C364 1.399 . S
C365 C368 1.396 . S
C365 C377 1.453 . S
C365 C378 1.684 . S
H366 C390 0.948 . S
C367 C363 1.397 . S
C367 C368 1.394 . S
C367 C386 1.723 . S
C368 C365 1.396 . S
C368 C367 1.394 . S
C368 C398 1.723 . S
H369 C392 0.947 . S
H370 C393 0.948 . S
H371 C399 0.982 . S
H372 C400 0.979 . S
H373 C400 0.980 . S
H374 C400 0.983 . S
H375 C399 0.979 . S
H376 C399 0.977 . S
C377 C365 1.453 . S
C377 H406 0.982 . S
C377 H407 0.979 . S
C377 H408 0.977 . S
C378 C365 1.684 . S
C378 H403 0.979 . S
C378 H404 0.980 . S
C378 H405 0.983 . S
C379 C380 1.391 . S
C379 C384 1.391 . S
C379 H409 0.948 . S
C380 C379 1.391 . S
C380 C381 1.391 . S
C381 C380 1.391 . S
C381 C382 1.392 . S
C381 H410 0.947 . S
C382 C381 1.392 . S
C382 C383 1.419 . S
C382 H411 0.948 . S
C383 C382 1.419 . S
C383 C384 1.391 . S
C383 C387 1.397 . S
C384 C379 1.391 . S
C384 C383 1.391 . S
C384 C385 1.399 . S
C385 C384 1.399 . S
C385 C386 1.396 . S
C385 C388 1.453 . S
C385 C389 1.684 . S
C386 C367 1.723 . S
C386 C385 1.396 . S
C386 C387 1.394 . S
C387 C383 1.397 . S
C387 C386 1.394 . S
C387 C397 1.723 . S
C388 C385 1.453 . S
C388 H412 0.982 . S
C388 H413 0.979 . S
C388 H414 0.977 . S
C389 C385 1.684 . S
C389 H415 0.979 . S
C389 H416 0.980 . S
C389 H417 0.983 . S
C390 H366 0.948 . S
C390 C391 1.391 . S
C390 C395 1.391 . S
C391 C390 1.391 . S
C391 C392 1.391 . S
C392 H369 0.947 . S
C392 C391 1.391 . S
C392 C393 1.392 . S
C393 H370 0.948 . S
C393 C392 1.392 . S
C393 C394 1.419 . S
C394 C393 1.419 . S
C394 C395 1.391 . S
C394 C398 1.397 . S
C395 C390 1.391 . S
C395 C394 1.391 . S
C395 C396 1.399 . S
C396 C395 1.399 . S
C396 C397 1.396 . S
C396 C399 1.453 . S
C396 C400 1.684 . S
C397 C387 1.723 . S
C397 C396 1.396 . S
C397 C398 1.394 . S
C398 C368 1.723 . S
C398 C394 1.397 . S
C398 C397 1.394 . S
C399 H371 0.982 . S
C399 H375 0.979 . S
C399 H376 0.977 . S
C399 C396 1.453 . S
C400 H372 0.979 . S
C400 H373 0.980 . S
C400 H374 0.983 . S
C400 C396 1.684 . S
H401 C419 0.948 . S
H402 C360 0.948 . S
H403 C378 0.979 . S
H404 C378 0.980 . S
H405 C378 0.983 . S
H406 C377 0.982 . S
H407 C377 0.979 . S
H408 C377 0.977 . S
H409 C379 0.948 . S
H410 C381 0.947 . S
H411 C382 0.948 . S
H412 C388 0.982 . S
H413 C388 0.979 . S
H414 C388 0.977 . S
H415 C389 0.979 . S
H416 C389 0.980 . S
H417 C389 0.983 . S
H418 C362 0.947 . S
C419 C362 1.392 . S
C419 C363 1.419 . S
C419 H401 0.948 . S
C420 C421 1.391 . S
C420 C424 1.391 . S
C420 H462 0.948 . S
C421 C420 1.391 . S
C421 C422 1.391 . S
C422 C421 1.391 . S
C422 H478 0.947 . S
C422 C479 1.392 . S
C423 C424 1.391 . S
C423 C427 1.397 . S
C423 C479 1.419 . S
C424 C420 1.391 . S
C424 C423 1.391 . S
C424 C425 1.399 . S
C425 C424 1.399 . S
C425 C428 1.396 . S
C425 C437 1.453 . S
C425 C438 1.684 . S
H426 C450 0.948 . S
C427 C423 1.397 . S
C427 C428 1.394 . S
C427 C446 1.723 . S
C428 C425 1.396 . S
C428 C427 1.394 . S
C428 C458 1.723 . S
H429 C452 0.947 . S
H430 C453 0.948 . S
H431 C459 0.982 . S
H432 C460 0.979 . S
H433 C460 0.980 . S
H434 C460 0.983 . S
H435 C459 0.979 . S
H436 C459 0.977 . S
C437 C425 1.453 . S
C437 H466 0.982 . S
C437 H467 0.979 . S
C437 H468 0.977 . S
C438 C425 1.684 . S
C438 H463 0.979 . S
C438 H464 0.980 . S
C438 H465 0.983 . S
C439 C440 1.391 . S
C439 C444 1.391 . S
C439 H469 0.948 . S
C440 C439 1.391 . S
C440 C441 1.391 . S
C441 C440 1.391 . S
C441 C442 1.392 . S
C441 H470 0.947 . S
C442 C441 1.392 . S
C442 C443 1.419 . S
C442 H471 0.948 . S
C443 C442 1.419 . S
C443 C444 1.391 . S
C443 C447 1.397 . S
C444 C439 1.391 . S
C444 C443 1.391 . S
C444 C445 1.399 . S
C445 C444 1.399 . S
C445 C446 1.396 . S
C445 C448 1.453 . S
C445 C449 1.684 . S
C446 C427 1.723 . S
C446 C445 1.396 . S
C446 C447 1.394 . S
C447 C443 1.397 . S
C447 C446 1.394 . S
C447 C457 1.723 . S
C448 C445 1.453 . S
C448 H472 0.982 . S
C448 H473 0.979 . S
C448 H474 0.977 . S
C449 C445 1.684 . S
C449 H475 0.979 . S
C449 H476 0.980 . S
C449 H477 0.983 . S
C450 H426 0.948 . S
C450 C451 1.391 . S
C450 C455 1.391 . S
C451 C450 1.391 . S
C451 C452 1.391 . S
C452 H429 0.947 . S
C452 C451 1.391 . S
C452 C453 1.392 . S
C453 H430 0.948 . S
C453 C452 1.392 . S
C453 C454 1.419 . S
C454 C453 1.419 . S
C454 C455 1.391 . S
C454 C458 1.397 . S
C455 C450 1.391 . S
C455 C454 1.391 . S
C455 C456 1.399 . S
C456 C455 1.399 . S
C456 C457 1.396 . S
C456 C459 1.453 . S
C456 C460 1.684 . S
C457 C447 1.723 . S
C457 C456 1.396 . S
C457 C458 1.394 . S
C458 C428 1.723 . S
C458 C454 1.397 . S
C458 C457 1.394 . S
C459 H431 0.982 . S
C459 H435 0.979 . S
C459 H436 0.977 . S
C459 C456 1.453 . S
C460 H432 0.979 . S
C460 H433 0.980 . S
C460 H434 0.983 . S
C460 C456 1.684 . S
H461 C479 0.948 . S
H462 C420 0.948 . S
H463 C438 0.979 . S
H464 C438 0.980 . S
H465 C438 0.983 . S
H466 C437 0.982 . S
H467 C437 0.979 . S
H468 C437 0.977 . S
H469 C439 0.948 . S
H470 C441 0.947 . S
H471 C442 0.948 . S
H472 C448 0.982 . S
H473 C448 0.979 . S
H474 C448 0.977 . S
H475 C449 0.979 . S
H476 C449 0.980 . S
H477 C449 0.983 . S
H478 C422 0.947 . S
C479 C422 1.392 . S
C479 C423 1.419 . S
C479 H461 0.948 . S
Sm480 C482 2.846 . S
Sm480 O500 2.543 . S
Sm480 O501 2.450 . S
Sm480 O502 2.681 1_545 S
Sm480 O503 2.464 1_545 S
Sm480 O504 2.396 . S
Sm480 O508 2.386 1_455 S
Sm480 O511 2.408 1_445 S
Sm481 C491 2.846 . S
Sm481 O502 2.386 1_655 S
Sm481 O505 2.408 1_665 S
Sm481 O506 2.543 . S
Sm481 O507 2.450 . S
Sm481 O508 2.681 1_565 S
Sm481 O509 2.464 1_565 S
Sm481 O510 2.396 . S
C482 Sm480 2.846 . S
C482 C483 1.506 . S
C482 O500 1.261 . S
C482 O501 1.242 . S
C483 C482 1.506 . S
C483 C484 1.358 . S
C483 C488 1.382 . S
C484 C483 1.358 . S
C484 C485 1.385 . S
C484 H512 0.930 . S
C485 C484 1.385 . S
C485 C486 1.395 . S
C485 H513 0.929 . S
C486 C485 1.395 . S
C486 C487 1.335 . S
C487 C486 1.335 . S
C487 C488 1.398 . S
C487 H514 0.930 . S
C488 C483 1.382 . S
C488 C487 1.398 . S
C488 H515 0.929 . S
C489 O502 1.271 . S
C489 O503 1.251 . S
C490 O504 1.252 . S
C490 O505 1.272 . S
C491 Sm481 2.846 . S
C491 C492 1.506 . S
C491 O506 1.261 . S
C491 O507 1.242 . S
C492 C491 1.506 . S
C492 C493 1.358 . S
C492 C497 1.382 . S
C493 C492 1.358 . S
C493 C494 1.385 . S
C493 H516 0.930 . S
C494 C493 1.385 . S
C494 C495 1.395 . S
C494 H517 0.929 . S
C495 C494 1.395 . S
C495 C496 1.335 . S
C496 C495 1.335 . S
C496 C497 1.398 . S
C496 H518 0.930 . S
C497 C492 1.382 . S
C497 C496 1.398 . S
C497 H519 0.929 . S
C498 O508 1.271 . S
C498 O509 1.251 . S
C499 O510 1.252 . S
C499 O511 1.272 . S
O500 Sm480 2.543 . S
O500 C482 1.261 . S
O501 Sm480 2.450 . S
O501 C482 1.242 . S
O502 Sm480 2.681 1_565 S
O502 Sm481 2.386 1_455 S
O502 C489 1.271 . S
O503 Sm480 2.464 1_565 S
O503 C489 1.251 . S
O504 Sm480 2.396 . S
O504 C490 1.252 . S
O505 Sm481 2.408 1_445 S
O505 C490 1.272 . S
O506 Sm481 2.543 . S
O506 C491 1.261 . S
O507 Sm481 2.450 . S
O507 C491 1.242 . S
O508 Sm480 2.386 1_655 S
O508 Sm481 2.681 1_545 S
O508 C498 1.271 . S
O509 Sm481 2.464 1_545 S
O509 C498 1.251 . S
O510 Sm481 2.396 . S
O510 C499 1.252 . S
O511 Sm480 2.408 1_665 S
O511 C499 1.272 . S
H512 C484 0.930 . S
H513 C485 0.929 . S
H514 C487 0.930 . S
H515 C488 0.929 . S
H516 C493 0.930 . S
H517 C494 0.929 . S
H518 C496 0.930 . S
H519 C497 0.929 . S
Sm520 C522 2.828 1_565 S
Sm520 O540 2.513 1_565 S
Sm520 O541 2.448 1_565 S
Sm520 O542 2.696 . S
Sm520 O543 2.490 . S
Sm520 O544 2.378 1_565 S
Sm520 O548 2.362 1_564 S
Sm520 O551 2.428 1_554 S
Sm521 C531 2.846 1_545 S
Sm521 O542 2.386 1_546 S
Sm521 O545 2.408 1_556 S
Sm521 O546 2.543 1_545 S
Sm521 O547 2.450 1_545 S
Sm521 O548 2.681 . S
Sm521 O549 2.464 . S
Sm521 O550 2.396 1_545 S
C522 Sm520 2.828 1_545 S
C522 C523 1.506 . S
C522 O540 1.261 . S
C522 O541 1.242 . S
C523 C522 1.506 . S
C523 C524 1.358 . S
C523 C528 1.382 . S
C524 C523 1.358 . S
C524 C525 1.385 . S
C524 H552 0.930 . S
C525 C524 1.385 . S
C525 C526 1.395 . S
C525 H553 0.929 . S
C526 C525 1.395 . S
C526 C527 1.335 . S
C527 C526 1.335 . S
C527 C528 1.398 . S
C527 H554 0.930 . S
C528 C523 1.382 . S
C528 C527 1.398 . S
C528 H555 0.929 . S
C529 O542 1.271 . S
C529 O543 1.251 . S
C530 O544 1.252 . S
C530 O545 1.272 . S
C531 Sm521 2.846 1_565 S
C531 C532 1.506 . S
C531 O546 1.261 . S
C531 O547 1.242 . S
C532 C531 1.506 . S
C532 C533 1.358 . S
C532 C537 1.382 . S
C533 C532 1.358 . S
C533 C534 1.385 . S
C533 H556 0.930 . S
C534 C533 1.385 . S
C534 C535 1.395 . S
C534 H557 0.929 . S
C535 C534 1.395 . S
C535 C536 1.335 . S
C536 C535 1.335 . S
C536 C537 1.398 . S
C536 H558 0.930 . S
C537 C532 1.382 . S
C537 C536 1.398 . S
C537 H559 0.929 . S
C538 O548 1.271 . S
C538 O549 1.251 . S
C539 O550 1.252 . S
C539 O551 1.272 . S
O540 Sm520 2.513 1_545 S
O540 C522 1.261 . S
O541 Sm520 2.448 1_545 S
O541 C522 1.242 . S
O542 Sm520 2.696 . S
O542 Sm521 2.386 1_564 S
O542 C529 1.271 . S
O543 Sm520 2.490 . S
O543 C529 1.251 . S
O544 Sm520 2.378 1_545 S
O544 C530 1.252 . S
O545 Sm521 2.408 1_554 S
O545 C530 1.272 . S
O546 Sm521 2.543 1_565 S
O546 C531 1.261 . S
O547 Sm521 2.450 1_565 S
O547 C531 1.242 . S
O548 Sm520 2.362 1_546 S
O548 Sm521 2.681 . S
O548 C538 1.271 . S
O549 Sm521 2.464 . S
O549 C538 1.251 . S
O550 Sm521 2.396 1_565 S
O550 C539 1.252 . S
O551 Sm520 2.428 1_556 S
O551 C539 1.272 . S
H552 C524 0.930 . S
H553 C525 0.929 . S
H554 C527 0.930 . S
H555 C528 0.929 . S
H556 C533 0.930 . S
H557 C534 0.929 . S
H558 C536 0.930 . S
H559 C537 0.929 . S
Sm560 C562 2.846 . S
Sm560 O580 2.543 . S
Sm560 O581 2.450 . S
Sm560 O582 2.681 . S
Sm560 O583 2.464 . S
Sm560 O584 2.396 . S
Sm560 O588 2.386 . S
Sm560 O591 2.408 . S
Sm561 C571 2.846 . S
Sm561 O582 2.386 . S
Sm561 O585 2.408 . S
Sm561 O586 2.543 . S
Sm561 O587 2.450 . S
Sm561 O588 2.681 . S
Sm561 O589 2.464 . S
Sm561 O590 2.396 . S
C562 Sm560 2.846 . S
C562 C563 1.506 . S
C562 O580 1.261 . S
C562 O581 1.242 . S
C563 C562 1.506 . S
C563 C564 1.358 . S
C563 C568 1.382 . S
C564 C563 1.358 . S
C564 C565 1.385 . S
C564 H592 0.930 . S
C565 C564 1.385 . S
C565 C566 1.395 . S
C565 H593 0.929 . S
C566 C565 1.395 . S
C566 C567 1.335 . S
C567 C566 1.335 . S
C567 C568 1.398 . S
C567 H594 0.930 . S
C568 C563 1.382 . S
C568 C567 1.398 . S
C568 H595 0.929 . S
C569 O582 1.271 . S
C569 O583 1.251 . S
C570 O584 1.252 . S
C570 O585 1.272 . S
C571 Sm561 2.846 . S
C571 C572 1.506 . S
C571 O586 1.261 . S
C571 O587 1.242 . S
C572 C571 1.506 . S
C572 C573 1.358 . S
C572 C577 1.382 . S
C573 C572 1.358 . S
C573 C574 1.385 . S
C573 H596 0.930 . S
C574 C573 1.385 . S
C574 C575 1.395 . S
C574 H597 0.929 . S
C575 C574 1.395 . S
C575 C576 1.335 . S
C576 C575 1.335 . S
C576 C577 1.398 . S
C576 H598 0.930 . S
C577 C572 1.382 . S
C577 C576 1.398 . S
C577 H599 0.929 . S
C578 O588 1.271 . S
C578 O589 1.251 . S
C579 O590 1.252 . S
C579 O591 1.272 . S
O580 Sm560 2.543 . S
O580 C562 1.261 . S
O581 Sm560 2.450 . S
O581 C562 1.242 . S
O582 Sm560 2.681 . S
O582 Sm561 2.386 . S
O582 C569 1.271 . S
O583 Sm560 2.464 . S
O583 C569 1.251 . S
O584 Sm560 2.396 . S
O584 C570 1.252 . S
O585 Sm561 2.408 . S
O585 C570 1.272 . S
O586 Sm561 2.543 . S
O586 C571 1.261 . S
O587 Sm561 2.450 . S
O587 C571 1.242 . S
O588 Sm560 2.386 . S
O588 Sm561 2.681 . S
O588 C578 1.271 . S
O589 Sm561 2.464 . S
O589 C578 1.251 . S
O590 Sm561 2.396 . S
O590 C579 1.252 . S
O591 Sm560 2.408 . S
O591 C579 1.272 . S
H592 C564 0.930 . S
H593 C565 0.929 . S
H594 C567 0.930 . S
H595 C568 0.929 . S
H596 C573 0.930 . S
H597 C574 0.929 . S
H598 C576 0.930 . S
H599 C577 0.929 . S
Sm600 C602 2.846 . S
Sm600 O620 2.543 . S
Sm600 O621 2.450 . S
Sm600 O622 2.681 1_455 S
Sm600 O623 2.464 1_455 S
Sm600 O624 2.396 . S
Sm600 O628 2.386 1_554 S
Sm600 O631 2.408 1_454 S
Sm601 C611 2.846 . S
Sm601 O622 2.386 1_556 S
Sm601 O625 2.408 1_656 S
Sm601 O626 2.543 . S
Sm601 O627 2.450 . S
Sm601 O628 2.681 1_655 S
Sm601 O629 2.464 1_655 S
Sm601 O630 2.396 . S
C602 Sm600 2.846 . S
C602 C603 1.506 . S
C602 O620 1.261 . S
C602 O621 1.242 . S
C603 C602 1.506 . S
C603 C604 1.358 . S
C603 C608 1.382 . S
C604 C603 1.358 . S
C604 C605 1.385 . S
C604 H632 0.930 . S
C605 C604 1.385 . S
C605 C606 1.395 . S
C605 H633 0.929 . S
C606 C605 1.395 . S
C606 C607 1.335 . S
C607 C606 1.335 . S
C607 C608 1.398 . S
C607 H634 0.930 . S
C608 C603 1.382 . S
C608 C607 1.398 . S
C608 H635 0.929 . S
C609 O622 1.271 . S
C609 O623 1.251 . S
C610 O624 1.252 . S
C610 O625 1.272 . S
C611 Sm601 2.846 . S
C611 C612 1.506 . S
C611 O626 1.261 . S
C611 O627 1.242 . S
C612 C611 1.506 . S
C612 C613 1.358 . S
C612 C617 1.382 . S
C613 C612 1.358 . S
C613 C614 1.385 . S
C613 H636 0.930 . S
C614 C613 1.385 . S
C614 C615 1.395 . S
C614 H637 0.929 . S
C615 C614 1.395 . S
C615 C616 1.335 . S
C616 C615 1.335 . S
C616 C617 1.398 . S
C616 H638 0.930 . S
C617 C612 1.382 . S
C617 C616 1.398 . S
C617 H639 0.929 . S
C618 O628 1.271 . S
C618 O629 1.251 . S
C619 O630 1.252 . S
C619 O631 1.272 . S
O620 Sm600 2.543 . S
O620 C602 1.261 . S
O621 Sm600 2.450 . S
O621 C602 1.242 . S
O622 Sm600 2.681 1_655 S
O622 Sm601 2.386 1_554 S
O622 C609 1.271 . S
O623 Sm600 2.464 1_655 S
O623 C609 1.251 . S
O624 Sm600 2.396 . S
O624 C610 1.252 . S
O625 Sm601 2.408 1_454 S
O625 C610 1.272 . S
O626 Sm601 2.543 . S
O626 C611 1.261 . S
O627 Sm601 2.450 . S
O627 C611 1.242 . S
O628 Sm600 2.386 1_556 S
O628 Sm601 2.681 1_455 S
O628 C618 1.271 . S
O629 Sm601 2.464 1_455 S
O629 C618 1.251 . S
O630 Sm601 2.396 . S
O630 C619 1.252 . S
O631 Sm600 2.408 1_656 S
O631 C619 1.272 . S
H632 C604 0.930 . S
H633 C605 0.929 . S
H634 C607 0.930 . S
H635 C608 0.929 . S
H636 C613 0.930 . S
H637 C614 0.929 . S
H638 C616 0.930 . S
H639 C617 0.929 . S
H640 C648 0.929 . S
H641 C650 0.930 . S
H642 C652 0.930 . S
H643 C655 0.929 . S
H644 C658 0.930 . S
H645 C660 0.960 . S
H646 C660 0.960 . S
H647 C660 0.960 . S
C648 H640 0.929 . S
C648 C649 1.377 . S
C648 C650 1.384 . S
C649 C648 1.377 . S
C649 C655 1.390 . S
C650 H641 0.930 . S
C650 C648 1.384 . S
C650 C651 1.372 . S
C651 C650 1.372 . S
C651 C652 1.400 . S
C651 C656 1.490 . S
C652 H642 0.930 . S
C652 C651 1.400 . S
C652 C655 1.386 . S
H653 C669 0.930 . S
H654 C670 0.931 . S
C655 H643 0.929 . S
C655 C649 1.390 . S
C655 C652 1.386 . S
C656 C651 1.490 . S
C656 C658 1.395 . S
C656 C659 1.403 . S
H657 C663 0.930 . S
C658 H644 0.930 . S
C658 C656 1.395 . S
C658 C661 1.403 . S
C659 C656 1.403 . S
C659 C660 1.524 . S
C659 C663 1.400 . S
C660 H645 0.960 . S
C660 H646 0.960 . S
C660 H647 0.960 . S
C660 C659 1.524 . S
C661 C658 1.403 . S
C661 C662 1.392 . S
C661 C665 1.495 . S
C662 C661 1.392 . S
C662 C663 1.385 . S
C662 C664 1.478 . S
C663 H657 0.930 . S
C663 C659 1.400 . S
C663 C662 1.385 . S
C664 C662 1.478 . S
C664 C666 1.381 . S
C664 C670 1.383 . S
C665 C661 1.495 . S
C665 H671 0.959 . S
C665 H672 0.961 . S
C665 H673 0.960 . S
C666 C664 1.381 . S
C666 C667 1.394 . S
C666 H674 0.930 . S
C667 C666 1.394 . S
C667 C668 1.383 . S
C667 H675 0.929 . S
C668 C667 1.383 . S
C668 C669 1.377 . S
C669 H653 0.930 . S
C669 C668 1.377 . S
C669 C670 1.379 . S
C670 H654 0.931 . S
C670 C664 1.383 . S
C670 C669 1.379 . S
H671 C665 0.959 . S
H672 C665 0.961 . S
H673 C665 0.960 . S
H674 C666 0.930 . S
H675 C667 0.929 . S
H676 C684 0.929 . S
H677 C686 0.930 . S
H678 C688 0.930 . S
H679 C691 0.929 . S
H680 C694 0.930 . S
H681 C696 0.960 . S
H682 C696 0.960 . S
H683 C696 0.960 . S
C684 H676 0.929 . S
C684 C685 1.377 . S
C684 C686 1.384 . S
C685 C684 1.377 . S
C685 C691 1.390 . S
C686 H677 0.930 . S
C686 C684 1.384 . S
C686 C687 1.372 . S
C687 C686 1.372 . S
C687 C688 1.400 . S
C687 C692 1.490 . S
C688 H678 0.930 . S
C688 C687 1.400 . S
C688 C691 1.386 . S
H689 C705 0.930 . S
H690 C706 0.931 . S
C691 H679 0.929 . S
C691 C685 1.390 . S
C691 C688 1.386 . S
C692 C687 1.490 . S
C692 C694 1.395 . S
C692 C695 1.403 . S
H693 C699 0.930 . S
C694 H680 0.930 . S
C694 C692 1.395 . S
C694 C697 1.403 . S
C695 C692 1.403 . S
C695 C696 1.524 . S
C695 C699 1.400 . S
C696 H681 0.960 . S
C696 H682 0.960 . S
C696 H683 0.960 . S
C696 C695 1.524 . S
C697 C694 1.403 . S
C697 C698 1.392 . S
C697 C701 1.495 . S
C698 C697 1.392 . S
C698 C699 1.385 . S
C698 C700 1.478 . S
C699 H693 0.930 . S
C699 C695 1.400 . S
C699 C698 1.385 . S
C700 C698 1.478 . S
C700 C702 1.381 . S
C700 C706 1.383 . S
C701 C697 1.495 . S
C701 H707 0.959 . S
C701 H708 0.961 . S
C701 H709 0.960 . S
C702 C700 1.381 . S
C702 C703 1.394 . S
C702 H710 0.930 . S
C703 C702 1.394 . S
C703 C704 1.383 . S
C703 H711 0.929 . S
C704 C703 1.383 . S
C704 C705 1.377 . S
C705 H689 0.930 . S
C705 C704 1.377 . S
C705 C706 1.379 . S
C706 H690 0.931 . S
C706 C700 1.383 . S
C706 C705 1.379 . S
H707 C701 0.959 . S
H708 C701 0.961 . S
H709 C701 0.960 . S
H710 C702 0.930 . S
H711 C703 0.929 . S
H712 C720 0.929 . S
H713 C722 0.930 . S
H714 C724 0.930 . S
H715 C727 0.929 . S
H716 C730 0.930 . S
H717 C732 0.960 . S
H718 C732 0.960 . S
H719 C732 0.960 . S
C720 H712 0.929 . S
C720 C721 1.377 . S
C720 C722 1.384 . S
C721 C720 1.377 . S
C721 C727 1.390 . S
C722 H713 0.930 . S
C722 C720 1.384 . S
C722 C723 1.372 . S
C723 C722 1.372 . S
C723 C724 1.400 . S
C723 C728 1.490 . S
C724 H714 0.930 . S
C724 C723 1.400 . S
C724 C727 1.386 . S
H725 C741 0.930 . S
H726 C742 0.931 . S
C727 H715 0.929 . S
C727 C721 1.390 . S
C727 C724 1.386 . S
C728 C723 1.490 . S
C728 C730 1.395 . S
C728 C731 1.403 . S
H729 C735 0.930 . S
C730 H716 0.930 . S
C730 C728 1.395 . S
C730 C733 1.403 . S
C731 C728 1.403 . S
C731 C732 1.524 . S
C731 C735 1.400 . S
C732 H717 0.960 . S
C732 H718 0.960 . S
C732 H719 0.960 . S
C732 C731 1.524 . S
C733 C730 1.403 . S
C733 C734 1.392 . S
C733 C737 1.495 . S
C734 C733 1.392 . S
C734 C735 1.385 . S
C734 C736 1.478 . S
C735 H729 0.930 . S
C735 C731 1.400 . S
C735 C734 1.385 . S
C736 C734 1.478 . S
C736 C738 1.381 . S
C736 C742 1.383 . S
C737 C733 1.495 . S
C737 H743 0.959 . S
C737 H744 0.961 . S
C737 H745 0.960 . S
C738 C736 1.381 . S
C738 C739 1.394 . S
C738 H746 0.930 . S
C739 C738 1.394 . S
C739 C740 1.383 . S
C739 H747 0.929 . S
C740 C739 1.383 . S
C740 C741 1.377 . S
C741 H725 0.930 . S
C741 C740 1.377 . S
C741 C742 1.379 . S
C742 H726 0.931 . S
C742 C736 1.383 . S
C742 C741 1.379 . S
H743 C737 0.959 . S
H744 C737 0.961 . S
H745 C737 0.960 . S
H746 C738 0.930 . S
H747 C739 0.929 . S
H748 C756 0.929 . S
H749 C758 0.930 . S
H750 C760 0.930 . S
H751 C763 0.929 . S
H752 C766 0.930 . S
H753 C768 0.960 . S
H754 C768 0.960 . S
H755 C768 0.960 . S
C756 H748 0.929 . S
C756 C757 1.377 . S
C756 C758 1.384 . S
C757 C756 1.377 . S
C757 C763 1.390 . S
C758 H749 0.930 . S
C758 C756 1.384 . S
C758 C759 1.372 . S
C759 C758 1.372 . S
C759 C760 1.400 . S
C759 C764 1.490 . S
C760 H750 0.930 . S
C760 C759 1.400 . S
C760 C763 1.386 . S
H761 C777 0.930 . S
H762 C778 0.931 . S
C763 H751 0.929 . S
C763 C757 1.390 . S
C763 C760 1.386 . S
C764 C759 1.490 . S
C764 C766 1.395 . S
C764 C767 1.403 . S
H765 C771 0.930 . S
C766 H752 0.930 . S
C766 C764 1.395 . S
C766 C769 1.403 . S
C767 C764 1.403 . S
C767 C768 1.524 . S
C767 C771 1.400 . S
C768 H753 0.960 . S
C768 H754 0.960 . S
C768 H755 0.960 . S
C768 C767 1.524 . S
C769 C766 1.403 . S
C769 C770 1.392 . S
C769 C773 1.495 . S
C770 C769 1.392 . S
C770 C771 1.385 . S
C770 C772 1.478 . S
C771 H765 0.930 . S
C771 C767 1.400 . S
C771 C770 1.385 . S
C772 C770 1.478 . S
C772 C774 1.381 . S
C772 C778 1.383 . S
C773 C769 1.495 . S
C773 H779 0.959 . S
C773 H780 0.961 . S
C773 H781 0.960 . S
C774 C772 1.381 . S
C774 C775 1.394 . S
C774 H782 0.930 . S
C775 C774 1.394 . S
C775 C776 1.383 . S
C775 H783 0.929 . S
C776 C775 1.383 . S
C776 C777 1.377 . S
C777 H761 0.930 . S
C777 C776 1.377 . S
C777 C778 1.379 . S
C778 H762 0.931 . S
C778 C772 1.383 . S
C778 C777 1.379 . S
H779 C773 0.959 . S
H780 C773 0.961 . S
H781 C773 0.960 . S
H782 C774 0.930 . S
H783 C775 0.929 . S
H784 C792 0.929 . S
H785 C794 0.930 . S
H786 C796 0.930 . S
H787 C799 0.929 . S
H788 C802 0.930 . S
H789 C804 0.960 . S
H790 C804 0.960 . S
H791 C804 0.960 . S
C792 H784 0.929 . S
C792 C793 1.377 . S
C792 C794 1.384 . S
C793 C792 1.377 . S
C793 C799 1.390 . S
C794 H785 0.930 . S
C794 C792 1.384 . S
C794 C795 1.372 . S
C795 C794 1.372 . S
C795 C796 1.400 . S
C795 C800 1.490 . S
C796 H786 0.930 . S
C796 C795 1.400 . S
C796 C799 1.386 . S
H797 C813 0.930 . S
H798 C814 0.931 . S
C799 H787 0.929 . S
C799 C793 1.390 . S
C799 C796 1.386 . S
C800 C795 1.490 . S
C800 C802 1.395 . S
C800 C803 1.403 . S
H801 C807 0.930 . S
C802 H788 0.930 . S
C802 C800 1.395 . S
C802 C805 1.403 . S
C803 C800 1.403 . S
C803 C804 1.524 . S
C803 C807 1.400 . S
C804 H789 0.960 . S
C804 H790 0.960 . S
C804 H791 0.960 . S
C804 C803 1.524 . S
C805 C802 1.403 . S
C805 C806 1.392 . S
C805 C809 1.495 . S
C806 C805 1.392 . S
C806 C807 1.385 . S
C806 C808 1.478 . S
C807 H801 0.930 . S
C807 C803 1.400 . S
C807 C806 1.385 . S
C808 C806 1.478 . S
C808 C810 1.381 . S
C808 C814 1.383 . S
C809 C805 1.495 . S
C809 H815 0.959 . S
C809 H816 0.961 . S
C809 H817 0.960 . S
C810 C808 1.381 . S
C810 C811 1.394 . S
C810 H818 0.930 . S
C811 C810 1.394 . S
C811 C812 1.383 . S
C811 H819 0.929 . S
C812 C811 1.383 . S
C812 C813 1.377 . S
C813 H797 0.930 . S
C813 C812 1.377 . S
C813 C814 1.379 . S
C814 H798 0.931 . S
C814 C808 1.383 . S
C814 C813 1.379 . S
H815 C809 0.959 . S
H816 C809 0.961 . S
H817 C809 0.960 . S
H818 C810 0.930 . S
H819 C811 0.929 . S
H820 C828 0.929 . S
H821 C830 0.930 . S
H822 C832 0.930 . S
H823 C835 0.929 . S
H824 C838 0.930 . S
H825 C840 0.960 . S
H826 C840 0.960 . S
H827 C840 0.960 . S
C828 H820 0.929 . S
C828 C829 1.377 . S
C828 C830 1.384 . S
C829 C828 1.377 . S
C829 C835 1.390 . S
C830 H821 0.930 . S
C830 C828 1.384 . S
C830 C831 1.372 . S
C831 C830 1.372 . S
C831 C832 1.400 . S
C831 C836 1.490 . S
C832 H822 0.930 . S
C832 C831 1.400 . S
C832 C835 1.386 . S
H833 C849 0.930 . S
H834 C850 0.931 . S
C835 H823 0.929 . S
C835 C829 1.390 . S
C835 C832 1.386 . S
C836 C831 1.490 . S
C836 C838 1.395 . S
C836 C839 1.403 . S
H837 C843 0.930 . S
C838 H824 0.930 . S
C838 C836 1.395 . S
C838 C841 1.403 . S
C839 C836 1.403 . S
C839 C840 1.524 . S
C839 C843 1.400 . S
C840 H825 0.960 . S
C840 H826 0.960 . S
C840 H827 0.960 . S
C840 C839 1.524 . S
C841 C838 1.403 . S
C841 C842 1.392 . S
C841 C845 1.495 . S
C842 C841 1.392 . S
C842 C843 1.385 . S
C842 C844 1.478 . S
C843 H837 0.930 . S
C843 C839 1.400 . S
C843 C842 1.385 . S
C844 C842 1.478 . S
C844 C846 1.381 . S
C844 C850 1.383 . S
C845 C841 1.495 . S
C845 H851 0.959 . S
C845 H852 0.961 . S
C845 H853 0.960 . S
C846 C844 1.381 . S
C846 C847 1.394 . S
C846 H854 0.930 . S
C847 C846 1.394 . S
C847 C848 1.383 . S
C847 H855 0.929 1_565 S
C848 C847 1.383 . S
C848 C849 1.377 . S
C849 H833 0.930 . S
C849 C848 1.377 . S
C849 C850 1.379 . S
C850 H834 0.931 . S
C850 C844 1.383 . S
C850 C849 1.379 . S
H851 C845 0.959 . S
H852 C845 0.961 . S
H853 C845 0.960 . S
H854 C846 0.930 . S
H855 C847 0.929 1_545 S
H856 C864 0.929 . S
H857 C866 0.930 . S
H858 C868 0.930 . S
H859 C871 0.929 . S
H860 C874 0.930 . S
H861 C876 0.960 . S
H862 C876 0.960 . S
H863 C876 0.960 . S
C864 H856 0.929 . S
C864 C865 1.377 . S
C864 C866 1.384 . S
C865 C864 1.377 . S
C865 C871 1.390 . S
C866 H857 0.930 . S
C866 C864 1.384 . S
C866 C867 1.372 . S
C867 C866 1.372 . S
C867 C868 1.400 . S
C867 C872 1.490 . S
C868 H858 0.930 . S
C868 C867 1.400 . S
C868 C871 1.386 . S
H869 C885 0.930 . S
H870 C886 0.931 . S
C871 H859 0.929 . S
C871 C865 1.390 . S
C871 C868 1.386 . S
C872 C867 1.490 . S
C872 C874 1.395 . S
C872 C875 1.403 . S
H873 C879 0.930 . S
C874 H860 0.930 . S
C874 C872 1.395 . S
C874 C877 1.403 . S
C875 C872 1.403 . S
C875 C876 1.524 . S
C875 C879 1.400 . S
C876 H861 0.960 . S
C876 H862 0.960 . S
C876 H863 0.960 . S
C876 C875 1.524 . S
C877 C874 1.403 . S
C877 C878 1.392 . S
C877 C881 1.495 . S
C878 C877 1.392 . S
C878 C879 1.385 . S
C878 C880 1.478 . S
C879 H873 0.930 . S
C879 C875 1.400 . S
C879 C878 1.385 . S
C880 C878 1.478 . S
C880 C882 1.381 . S
C880 C886 1.383 . S
C881 C877 1.495 . S
C881 H887 0.959 . S
C881 H888 0.961 . S
C881 H889 0.960 . S
C882 C880 1.381 . S
C882 C883 1.394 . S
C882 H890 0.930 . S
C883 C882 1.394 . S
C883 C884 1.383 . S
C883 H891 0.929 . S
C884 C883 1.383 . S
C884 C885 1.377 . S
C885 H869 0.930 . S
C885 C884 1.377 . S
C885 C886 1.379 . S
C886 H870 0.931 . S
C886 C880 1.383 . S
C886 C885 1.379 . S
H887 C881 0.959 . S
H888 C881 0.961 . S
H889 C881 0.960 . S
H890 C882 0.930 . S
H891 C883 0.929 . S
H892 C900 0.929 . S
H893 C902 0.930 . S
H894 C904 0.930 . S
H895 C907 0.929 . S
H896 C910 0.930 . S
H897 C912 0.960 . S
H898 C912 0.960 . S
H899 C912 0.960 . S
C900 H892 0.929 . S
C900 C901 1.377 . S
C900 C902 1.384 . S
C901 C900 1.377 . S
C901 C907 1.390 . S
C902 H893 0.930 . S
C902 C900 1.384 . S
C902 C903 1.372 . S
C903 C902 1.372 . S
C903 C904 1.400 . S
C903 C908 1.490 . S
C904 H894 0.930 . S
C904 C903 1.400 . S
C904 C907 1.386 . S
H905 C921 0.930 . S
H906 C922 0.931 . S
C907 H895 0.929 . S
C907 C901 1.390 . S
C907 C904 1.386 . S
C908 C903 1.490 . S
C908 C910 1.395 . S
C908 C911 1.403 . S
H909 C915 0.930 . S
C910 H896 0.930 . S
C910 C908 1.395 . S
C910 C913 1.403 . S
C911 C908 1.403 . S
C911 C912 1.524 . S
C911 C915 1.400 . S
C912 H897 0.960 . S
C912 H898 0.960 . S
C912 H899 0.960 . S
C912 C911 1.524 . S
C913 C910 1.403 . S
C913 C914 1.392 . S
C913 C917 1.495 . S
C914 C913 1.392 . S
C914 C915 1.385 . S
C914 C916 1.478 . S
C915 H909 0.930 . S
C915 C911 1.400 . S
C915 C914 1.385 . S
C916 C914 1.478 . S
C916 C918 1.381 . S
C916 C922 1.383 . S
C917 C913 1.495 . S
C917 H923 0.959 . S
C917 H924 0.961 . S
C917 H925 0.960 . S
C918 C916 1.381 . S
C918 C919 1.394 . S
C918 H926 0.930 . S
C919 C918 1.394 . S
C919 C920 1.383 . S
C919 H927 0.929 . S
C920 C919 1.383 . S
C920 C921 1.377 . S
C921 H905 0.930 . S
C921 C920 1.377 . S
C921 C922 1.379 . S
C922 H906 0.931 . S
C922 C916 1.383 . S
C922 C921 1.379 . S
H923 C917 0.959 . S
H924 C917 0.961 . S
H925 C917 0.960 . S
H926 C918 0.930 . S
H927 C919 0.929 . S
H928 C936 0.929 . S
H929 C938 0.930 . S
H930 C940 0.930 . S
H931 C943 0.929 . S
H932 C946 0.930 . S
H933 C948 0.960 . S
H934 C948 0.960 . S
H935 C948 0.960 . S
C936 H928 0.929 . S
C936 C937 1.377 . S
C936 C938 1.384 . S
C937 C936 1.377 . S
C937 C943 1.390 . S
C938 H929 0.930 . S
C938 C936 1.384 . S
C938 C939 1.372 . S
C939 C938 1.372 . S
C939 C940 1.400 . S
C939 C944 1.490 . S
C940 H930 0.930 . S
C940 C939 1.400 . S
C940 C943 1.386 . S
H941 C957 0.930 . S
H942 C958 0.931 . S
C943 H931 0.929 . S
C943 C937 1.390 . S
C943 C940 1.386 . S
C944 C939 1.490 . S
C944 C946 1.395 . S
C944 C947 1.403 . S
H945 C951 0.930 . S
C946 H932 0.930 . S
C946 C944 1.395 . S
C946 C949 1.403 . S
C947 C944 1.403 . S
C947 C948 1.524 . S
C947 C951 1.400 . S
C948 H933 0.960 . S
C948 H934 0.960 . S
C948 H935 0.960 . S
C948 C947 1.524 . S
C949 C946 1.403 . S
C949 C950 1.392 . S
C949 C953 1.495 . S
C950 C949 1.392 . S
C950 C951 1.385 . S
C950 C952 1.478 . S
C951 H945 0.930 . S
C951 C947 1.400 . S
C951 C950 1.385 . S
C952 C950 1.478 . S
C952 C954 1.381 . S
C952 C958 1.383 . S
C953 C949 1.495 . S
C953 H959 0.959 . S
C953 H960 0.961 . S
C953 H961 0.960 . S
C954 C952 1.381 . S
C954 C955 1.394 . S
C954 H962 0.930 . S
C955 C954 1.394 . S
C955 C956 1.383 . S
C955 H963 0.929 . S
C956 C955 1.383 . S
C956 C957 1.377 . S
C957 H941 0.930 . S
C957 C956 1.377 . S
C957 C958 1.379 . S
C958 H942 0.931 . S
C958 C952 1.383 . S
C958 C957 1.379 . S
H959 C953 0.959 . S
H960 C953 0.961 . S
H961 C953 0.960 . S
H962 C954 0.930 . S
H963 C955 0.929 . S
H964 C972 0.929 . S
H965 C974 0.930 . S
H966 C976 0.930 . S
H967 C979 0.929 . S
H968 C982 0.930 . S
H969 C984 0.960 . S
H970 C984 0.960 . S
H971 C984 0.960 . S
C972 H964 0.929 . S
C972 C973 1.377 . S
C972 C974 1.384 . S
C973 C972 1.377 . S
C973 C979 1.390 . S
C974 H965 0.930 . S
C974 C972 1.384 . S
C974 C975 1.372 . S
C975 C974 1.372 . S
C975 C976 1.400 . S
C975 C980 1.490 . S
C976 H966 0.930 . S
C976 C975 1.400 . S
C976 C979 1.386 . S
H977 C993 0.930 . S
H978 C994 0.931 . S
C979 H967 0.929 . S
C979 C973 1.390 . S
C979 C976 1.386 . S
C980 C975 1.490 . S
C980 C982 1.395 . S
C980 C983 1.403 . S
H981 C987 0.930 . S
C982 H968 0.930 . S
C982 C980 1.395 . S
C982 C985 1.403 . S
C983 C980 1.403 . S
C983 C984 1.524 . S
C983 C987 1.400 . S
C984 H969 0.960 . S
C984 H970 0.960 . S
C984 H971 0.960 . S
C984 C983 1.524 . S
C985 C982 1.403 . S
C985 C986 1.392 . S
C985 C989 1.495 . S
C986 C985 1.392 . S
C986 C987 1.385 . S
C986 C988 1.478 . S
C987 H981 0.930 . S
C987 C983 1.400 . S
C987 C986 1.385 . S
C988 C986 1.478 . S
C988 C990 1.381 . S
C988 C994 1.383 . S
C989 C985 1.495 . S
C989 H995 0.959 . S
C989 H996 0.961 . S
C989 H997 0.960 . S
C990 C988 1.381 . S
C990 C991 1.394 . S
C990 H998 0.930 . S
C991 C990 1.394 . S
C991 C992 1.383 . S
C991 H999 0.929 . S
C992 C991 1.383 . S
C992 C993 1.377 . S
C993 H977 0.930 . S
C993 C992 1.377 . S
C993 C994 1.379 . S
C994 H978 0.931 . S
C994 C988 1.383 . S
C994 C993 1.379 . S
H995 C989 0.959 . S
H996 C989 0.961 . S
H997 C989 0.960 . S
H998 C990 0.930 . S
H999 C991 0.929 . S
H1000 C1008 0.929 . S
H1001 C1010 0.930 . S
H1002 C1012 0.930 . S
H1003 C1015 0.929 . S
H1004 C1018 0.930 . S
H1005 C1020 0.960 . S
H1006 C1020 0.960 . S
H1007 C1020 0.960 . S
C1008 H1000 0.929 . S
C1008 C1009 1.377 . S
C1008 C1010 1.384 . S
C1009 C1008 1.377 . S
C1009 C1015 1.390 . S
C1010 H1001 0.930 . S
C1010 C1008 1.384 . S
C1010 C1011 1.372 . S
C1011 C1010 1.372 . S
C1011 C1012 1.400 . S
C1011 C1016 1.490 . S
C1012 H1002 0.930 . S
C1012 C1011 1.400 . S
C1012 C1015 1.386 . S
H1013 C1029 0.930 . S
H1014 C1030 0.931 . S
C1015 H1003 0.929 . S
C1015 C1009 1.390 . S
C1015 C1012 1.386 . S
C1016 C1011 1.490 . S
C1016 C1018 1.395 . S
C1016 C1019 1.403 . S
H1017 C1023 0.930 . S
C1018 H1004 0.930 . S
C1018 C1016 1.395 . S
C1018 C1021 1.403 . S
C1019 C1016 1.403 . S
C1019 C1020 1.524 . S
C1019 C1023 1.400 . S
C1020 H1005 0.960 . S
C1020 H1006 0.960 . S
C1020 H1007 0.960 . S
C1020 C1019 1.524 . S
C1021 C1018 1.403 . S
C1021 C1022 1.392 . S
C1021 C1025 1.495 . S
C1022 C1021 1.392 . S
C1022 C1023 1.385 . S
C1022 C1024 1.478 . S
C1023 H1017 0.930 . S
C1023 C1019 1.400 . S
C1023 C1022 1.385 . S
C1024 C1022 1.478 . S
C1024 C1026 1.381 . S
C1024 C1030 1.383 . S
C1025 C1021 1.495 . S
C1025 H1031 0.959 . S
C1025 H1032 0.961 . S
C1025 H1033 0.960 . S
C1026 C1024 1.381 . S
C1026 C1027 1.394 . S
C1026 H1034 0.930 . S
C1027 C1026 1.394 . S
C1027 C1028 1.383 . S
C1027 H1035 0.929 . S
C1028 C1027 1.383 . S
C1028 C1029 1.377 . S
C1029 H1013 0.930 . S
C1029 C1028 1.377 . S
C1029 C1030 1.379 . S
C1030 H1014 0.931 . S
C1030 C1024 1.383 . S
C1030 C1029 1.379 . S
H1031 C1025 0.959 . S
H1032 C1025 0.961 . S
H1033 C1025 0.960 . S
H1034 C1026 0.930 . S
H1035 C1027 0.929 . S
H1036 C1044 0.929 . S
H1037 C1046 0.930 . S
H1038 C1048 0.930 . S
H1039 C1051 0.929 . S
H1040 C1054 0.930 . S
H1041 C1056 0.960 . S
H1042 C1056 0.960 . S
H1043 C1056 0.960 . S
C1044 H1036 0.929 . S
C1044 C1045 1.377 . S
C1044 C1046 1.384 . S
C1045 C1044 1.377 . S
C1045 C1051 1.390 . S
C1046 H1037 0.930 . S
C1046 C1044 1.384 . S
C1046 C1047 1.372 . S
C1047 C1046 1.372 . S
C1047 C1048 1.400 . S
C1047 C1052 1.490 . S
C1048 H1038 0.930 . S
C1048 C1047 1.400 . S
C1048 C1051 1.386 . S
H1049 C1065 0.930 . S
H1050 C1066 0.931 . S
C1051 H1039 0.929 . S
C1051 C1045 1.390 . S
C1051 C1048 1.386 . S
C1052 C1047 1.490 . S
C1052 C1054 1.395 . S
C1052 C1055 1.403 . S
H1053 C1059 0.930 . S
C1054 H1040 0.930 . S
C1054 C1052 1.395 . S
C1054 C1057 1.403 . S
C1055 C1052 1.403 . S
C1055 C1056 1.524 . S
C1055 C1059 1.400 . S
C1056 H1041 0.960 . S
C1056 H1042 0.960 . S
C1056 H1043 0.960 . S
C1056 C1055 1.524 . S
C1057 C1054 1.403 . S
C1057 C1058 1.392 . S
C1057 C1061 1.495 . S
C1058 C1057 1.392 . S
C1058 C1059 1.385 . S
C1058 C1060 1.478 . S
C1059 H1053 0.930 . S
C1059 C1055 1.400 . S
C1059 C1058 1.385 . S
C1060 C1058 1.478 . S
C1060 C1062 1.381 . S
C1060 C1066 1.383 . S
C1061 C1057 1.495 . S
C1061 H1067 0.959 . S
C1061 H1068 0.961 . S
C1061 H1069 0.960 . S
C1062 C1060 1.381 . S
C1062 C1063 1.394 . S
C1062 H1070 0.930 . S
C1063 C1062 1.394 . S
C1063 C1064 1.383 . S
C1063 H1071 0.929 . S
C1064 C1063 1.383 . S
C1064 C1065 1.377 . S
C1065 H1049 0.930 . S
C1065 C1064 1.377 . S
C1065 C1066 1.379 . S
C1066 H1050 0.931 . S
C1066 C1060 1.383 . S
C1066 C1065 1.379 . S
H1067 C1061 0.959 . S
H1068 C1061 0.961 . S
H1069 C1061 0.960 . S
H1070 C1062 0.930 . S
H1071 C1063 0.929 . S
H1072 C1080 0.929 . S
H1073 C1082 0.930 . S
H1074 C1084 0.930 . S
H1075 C1087 0.929 . S
H1076 C1090 0.930 . S
H1077 C1092 0.960 . S
H1078 C1092 0.960 . S
H1079 C1092 0.960 . S
C1080 H1072 0.929 . S
C1080 C1081 1.377 . S
C1080 C1082 1.384 . S
C1081 C1080 1.377 . S
C1081 C1087 1.390 . S
C1082 H1073 0.930 . S
C1082 C1080 1.384 . S
C1082 C1083 1.372 . S
C1083 C1082 1.372 . S
C1083 C1084 1.400 . S
C1083 C1088 1.490 . S
C1084 H1074 0.930 . S
C1084 C1083 1.400 . S
C1084 C1087 1.386 . S
H1085 C1101 0.930 . S
H1086 C1102 0.931 . S
C1087 H1075 0.929 . S
C1087 C1081 1.390 . S
C1087 C1084 1.386 . S
C1088 C1083 1.490 . S
C1088 C1090 1.395 . S
C1088 C1091 1.403 . S
H1089 C1095 0.930 . S
C1090 H1076 0.930 . S
C1090 C1088 1.395 . S
C1090 C1093 1.403 . S
C1091 C1088 1.403 . S
C1091 C1092 1.524 . S
C1091 C1095 1.400 . S
C1092 H1077 0.960 . S
C1092 H1078 0.960 . S
C1092 H1079 0.960 . S
C1092 C1091 1.524 . S
C1093 C1090 1.403 . S
C1093 C1094 1.392 . S
C1093 C1097 1.495 . S
C1094 C1093 1.392 . S
C1094 C1095 1.385 . S
C1094 C1096 1.478 . S
C1095 H1089 0.930 . S
C1095 C1091 1.400 . S
C1095 C1094 1.385 . S
C1096 C1094 1.478 . S
C1096 C1098 1.381 . S
C1096 C1102 1.383 . S
C1097 C1093 1.495 . S
C1097 H1103 0.959 . S
C1097 H1104 0.961 . S
C1097 H1105 0.960 . S
C1098 C1096 1.381 . S
C1098 C1099 1.394 . S
C1098 H1106 0.930 . S
C1099 C1098 1.394 . S
C1099 C1100 1.383 . S
C1099 H1107 0.929 . S
C1100 C1099 1.383 . S
C1100 C1101 1.377 . S
C1101 H1085 0.930 . S
C1101 C1100 1.377 . S
C1101 C1102 1.379 . S
C1102 H1086 0.931 . S
C1102 C1096 1.383 . S
C1102 C1101 1.379 . S
H1103 C1097 0.959 . S
H1104 C1097 0.961 . S
H1105 C1097 0.960 . S
H1106 C1098 0.930 . S
H1107 C1099 0.929 . S
H1108 C1116 0.929 . S
H1109 C1118 0.930 . S
H1110 C1120 0.930 . S
H1111 C1123 0.929 . S
H1112 C1126 0.930 . S
H1113 C1128 0.960 . S
H1114 C1128 0.960 . S
H1115 C1128 0.960 . S
C1116 H1108 0.929 . S
C1116 C1117 1.377 . S
C1116 C1118 1.384 . S
C1117 C1116 1.377 . S
C1117 C1123 1.390 . S
C1118 H1109 0.930 . S
C1118 C1116 1.384 . S
C1118 C1119 1.372 . S
C1119 C1118 1.372 . S
C1119 C1120 1.400 . S
C1119 C1124 1.490 . S
C1120 H1110 0.930 . S
C1120 C1119 1.400 . S
C1120 C1123 1.386 . S
H1121 C1137 0.930 . S
H1122 C1138 0.931 . S
C1123 H1111 0.929 . S
C1123 C1117 1.390 . S
C1123 C1120 1.386 . S
C1124 C1119 1.490 . S
C1124 C1126 1.395 . S
C1124 C1127 1.403 . S
H1125 C1131 0.930 . S
C1126 H1112 0.930 . S
C1126 C1124 1.395 . S
C1126 C1129 1.403 . S
C1127 C1124 1.403 . S
C1127 C1128 1.524 . S
C1127 C1131 1.400 . S
C1128 H1113 0.960 . S
C1128 H1114 0.960 . S
C1128 H1115 0.960 . S
C1128 C1127 1.524 . S
C1129 C1126 1.403 . S
C1129 C1130 1.392 . S
C1129 C1133 1.495 . S
C1130 C1129 1.392 . S
C1130 C1131 1.385 . S
C1130 C1132 1.478 . S
C1131 H1125 0.930 . S
C1131 C1127 1.400 . S
C1131 C1130 1.385 . S
C1132 C1130 1.478 . S
C1132 C1134 1.381 . S
C1132 C1138 1.383 . S
C1133 C1129 1.495 . S
C1133 H1139 0.959 . S
C1133 H1140 0.961 . S
C1133 H1141 0.960 . S
C1134 C1132 1.381 . S
C1134 C1135 1.394 . S
C1134 H1142 0.930 . S
C1135 C1134 1.394 . S
C1135 C1136 1.383 . S
C1135 H1143 0.929 . S
C1136 C1135 1.383 . S
C1136 C1137 1.377 . S
C1137 H1121 0.930 . S
C1137 C1136 1.377 . S
C1137 C1138 1.379 . S
C1138 H1122 0.931 . S
C1138 C1132 1.383 . S
C1138 C1137 1.379 . S
H1139 C1133 0.959 . S
H1140 C1133 0.961 . S
H1141 C1133 0.960 . S
H1142 C1134 0.930 . S
H1143 C1135 0.929 . S
H1144 C1152 0.929 . S
H1145 C1154 0.930 . S
H1146 C1156 0.930 . S
H1147 C1159 0.929 . S
H1148 C1162 0.930 . S
H1149 C1164 0.960 . S
H1150 C1164 0.960 . S
H1151 C1164 0.960 . S
C1152 H1144 0.929 . S
C1152 C1153 1.377 . S
C1152 C1154 1.384 . S
C1153 C1152 1.377 . S
C1153 C1159 1.390 . S
C1154 H1145 0.930 . S
C1154 C1152 1.384 . S
C1154 C1155 1.372 . S
C1155 C1154 1.372 . S
C1155 C1156 1.400 . S
C1155 C1160 1.490 . S
C1156 H1146 0.930 . S
C1156 C1155 1.400 . S
C1156 C1159 1.386 . S
H1157 C1173 0.930 . S
H1158 C1174 0.931 . S
C1159 H1147 0.929 . S
C1159 C1153 1.390 . S
C1159 C1156 1.386 . S
C1160 C1155 1.490 . S
C1160 C1162 1.395 . S
C1160 C1163 1.403 . S
H1161 C1167 0.930 . S
C1162 H1148 0.930 . S
C1162 C1160 1.395 . S
C1162 C1165 1.403 . S
C1163 C1160 1.403 . S
C1163 C1164 1.524 . S
C1163 C1167 1.400 . S
C1164 H1149 0.960 . S
C1164 H1150 0.960 . S
C1164 H1151 0.960 . S
C1164 C1163 1.524 . S
C1165 C1162 1.403 . S
C1165 C1166 1.392 . S
C1165 C1169 1.495 . S
C1166 C1165 1.392 . S
C1166 C1167 1.385 . S
C1166 C1168 1.478 . S
C1167 H1161 0.930 . S
C1167 C1163 1.400 . S
C1167 C1166 1.385 . S
C1168 C1166 1.478 . S
C1168 C1170 1.381 . S
C1168 C1174 1.383 . S
C1169 C1165 1.495 . S
C1169 H1175 0.959 . S
C1169 H1176 0.961 . S
C1169 H1177 0.960 . S
C1170 C1168 1.381 . S
C1170 C1171 1.394 . S
C1170 H1178 0.930 . S
C1171 C1170 1.394 . S
C1171 C1172 1.383 . S
C1171 H1179 0.929 . S
C1172 C1171 1.383 . S
C1172 C1173 1.377 . S
C1173 H1157 0.930 . S
C1173 C1172 1.377 . S
C1173 C1174 1.379 . S
C1174 H1158 0.931 . S
C1174 C1168 1.383 . S
C1174 C1173 1.379 . S
H1175 C1169 0.959 . S
H1176 C1169 0.961 . S
H1177 C1169 0.960 . S
H1178 C1170 0.930 . S
H1179 C1171 0.929 . S
H1180 C1188 0.929 . S
H1181 C1190 0.930 . S
H1182 C1192 0.930 . S
H1183 C1195 0.929 . S
H1184 C1198 0.930 . S
H1185 C1200 0.960 . S
H1186 C1200 0.960 . S
H1187 C1200 0.960 . S
C1188 H1180 0.929 . S
C1188 C1189 1.377 . S
C1188 C1190 1.384 . S
C1189 C1188 1.377 . S
C1189 C1195 1.390 . S
C1190 H1181 0.930 . S
C1190 C1188 1.384 . S
C1190 C1191 1.372 . S
C1191 C1190 1.372 . S
C1191 C1192 1.400 . S
C1191 C1196 1.490 . S
C1192 H1182 0.930 . S
C1192 C1191 1.400 . S
C1192 C1195 1.386 . S
H1193 C1209 0.930 . S
H1194 C1210 0.931 . S
C1195 H1183 0.929 . S
C1195 C1189 1.390 . S
C1195 C1192 1.386 . S
C1196 C1191 1.490 . S
C1196 C1198 1.395 . S
C1196 C1199 1.403 . S
H1197 C1203 0.930 . S
C1198 H1184 0.930 . S
C1198 C1196 1.395 . S
C1198 C1201 1.403 . S
C1199 C1196 1.403 . S
C1199 C1200 1.524 . S
C1199 C1203 1.400 . S
C1200 H1185 0.960 . S
C1200 H1186 0.960 . S
C1200 H1187 0.960 . S
C1200 C1199 1.524 . S
C1201 C1198 1.403 . S
C1201 C1202 1.392 . S
C1201 C1205 1.495 . S
C1202 C1201 1.392 . S
C1202 C1203 1.385 . S
C1202 C1204 1.478 . S
C1203 H1197 0.930 . S
C1203 C1199 1.400 . S
C1203 C1202 1.385 . S
C1204 C1202 1.478 . S
C1204 C1206 1.381 . S
C1204 C1210 1.383 . S
C1205 C1201 1.495 . S
C1205 H1211 0.959 . S
C1205 H1212 0.961 . S
C1205 H1213 0.960 . S
C1206 C1204 1.381 . S
C1206 C1207 1.394 . S
C1206 H1214 0.930 . S
C1207 C1206 1.394 . S
C1207 C1208 1.383 . S
C1207 H1215 0.929 . S
C1208 C1207 1.383 . S
C1208 C1209 1.377 . S
C1209 H1193 0.930 . S
C1209 C1208 1.377 . S
C1209 C1210 1.379 . S
C1210 H1194 0.931 . S
C1210 C1204 1.383 . S
C1210 C1209 1.379 . S
H1211 C1205 0.959 . S
H1212 C1205 0.961 . S
H1213 C1205 0.960 . S
H1214 C1206 0.930 . S
H1215 C1207 0.929 . S
H1216 C1224 0.929 . S
H1217 C1226 0.930 . S
H1218 C1228 0.930 . S
H1219 C1231 0.929 . S
H1220 C1234 0.930 . S
H1221 C1236 0.960 . S
H1222 C1236 0.960 . S
H1223 C1236 0.960 . S
C1224 H1216 0.929 . S
C1224 C1225 1.377 . S
C1224 C1226 1.384 . S
C1225 C1224 1.377 . S
C1225 C1231 1.390 . S
C1226 H1217 0.930 . S
C1226 C1224 1.384 . S
C1226 C1227 1.372 . S
C1227 C1226 1.372 . S
C1227 C1228 1.400 . S
C1227 C1232 1.490 . S
C1228 H1218 0.930 . S
C1228 C1227 1.400 . S
C1228 C1231 1.386 . S
H1229 C1245 0.930 . S
H1230 C1246 0.931 . S
C1231 H1219 0.929 . S
C1231 C1225 1.390 . S
C1231 C1228 1.386 . S
C1232 C1227 1.490 . S
C1232 C1234 1.395 . S
C1232 C1235 1.403 . S
H1233 C1239 0.930 . S
C1234 H1220 0.930 . S
C1234 C1232 1.395 . S
C1234 C1237 1.403 . S
C1235 C1232 1.403 . S
C1235 C1236 1.524 . S
C1235 C1239 1.400 . S
C1236 H1221 0.960 . S
C1236 H1222 0.960 . S
C1236 H1223 0.960 . S
C1236 C1235 1.524 . S
C1237 C1234 1.403 . S
C1237 C1238 1.392 . S
C1237 C1241 1.495 . S
C1238 C1237 1.392 . S
C1238 C1239 1.385 . S
C1238 C1240 1.478 . S
C1239 H1233 0.930 . S
C1239 C1235 1.400 . S
C1239 C1238 1.385 . S
C1240 C1238 1.478 . S
C1240 C1242 1.381 . S
C1240 C1246 1.383 . S
C1241 C1237 1.495 . S
C1241 H1247 0.959 . S
C1241 H1248 0.961 . S
C1241 H1249 0.960 . S
C1242 C1240 1.381 . S
C1242 C1243 1.394 . S
C1242 H1250 0.930 . S
C1243 C1242 1.394 . S
C1243 C1244 1.383 . S
C1243 H1251 0.929 . S
C1244 C1243 1.383 . S
C1244 C1245 1.377 . S
C1245 H1229 0.930 . S
C1245 C1244 1.377 . S
C1245 C1246 1.379 . S
C1246 H1230 0.931 . S
C1246 C1240 1.383 . S
C1246 C1245 1.379 . S
H1247 C1241 0.959 . S
H1248 C1241 0.961 . S
H1249 C1241 0.960 . S
H1250 C1242 0.930 . S
H1251 C1243 0.929 . S
H1252 C1260 0.929 . S
H1253 C1262 0.930 . S
H1254 C1264 0.930 . S
H1255 C1267 0.929 . S
H1256 C1270 0.930 . S
H1257 C1272 0.960 . S
H1258 C1272 0.960 . S
H1259 C1272 0.960 . S
C1260 H1252 0.929 . S
C1260 C1261 1.377 . S
C1260 C1262 1.384 . S
C1261 C1260 1.377 . S
C1261 C1267 1.390 . S
C1262 H1253 0.930 . S
C1262 C1260 1.384 . S
C1262 C1263 1.372 . S
C1263 C1262 1.372 . S
C1263 C1264 1.400 . S
C1263 C1268 1.490 . S
C1264 H1254 0.930 . S
C1264 C1263 1.400 . S
C1264 C1267 1.386 . S
H1265 C1281 0.930 . S
H1266 C1282 0.931 . S
C1267 H1255 0.929 . S
C1267 C1261 1.390 . S
C1267 C1264 1.386 . S
C1268 C1263 1.490 . S
C1268 C1270 1.395 . S
C1268 C1271 1.403 . S
H1269 C1275 0.930 . S
C1270 H1256 0.930 . S
C1270 C1268 1.395 . S
C1270 C1273 1.403 . S
C1271 C1268 1.403 . S
C1271 C1272 1.524 . S
C1271 C1275 1.400 . S
C1272 H1257 0.960 . S
C1272 H1258 0.960 . S
C1272 H1259 0.960 . S
C1272 C1271 1.524 . S
C1273 C1270 1.403 . S
C1273 C1274 1.392 . S
C1273 C1277 1.495 . S
C1274 C1273 1.392 . S
C1274 C1275 1.385 . S
C1274 C1276 1.478 . S
C1275 H1269 0.930 . S
C1275 C1271 1.400 . S
C1275 C1274 1.385 . S
C1276 C1274 1.478 . S
C1276 C1278 1.381 . S
C1276 C1282 1.383 . S
C1277 C1273 1.495 . S
C1277 H1283 0.959 . S
C1277 H1284 0.961 . S
C1277 H1285 0.960 . S
C1278 C1276 1.381 . S
C1278 C1279 1.394 . S
C1278 H1286 0.930 . S
C1279 C1278 1.394 . S
C1279 C1280 1.383 . S
C1279 H1287 0.955 . S
C1280 C1279 1.383 . S
C1280 C1281 1.377 . S
C1281 H1265 0.930 . S
C1281 C1280 1.377 . S
C1281 C1282 1.379 . S
C1282 H1266 0.931 . S
C1282 C1276 1.383 . S
C1282 C1281 1.379 . S
H1283 C1277 0.959 . S
H1284 C1277 0.961 . S
H1285 C1277 0.960 . S
H1286 C1278 0.930 . S
H1287 C1279 0.955 . S
H1288 C1296 0.929 . S
H1289 C1298 0.930 . S
H1290 C1300 0.930 . S
H1291 C1303 0.929 . S
H1292 C1306 0.930 . S
H1293 C1308 0.960 . S
H1294 C1308 0.960 . S
H1295 C1308 0.960 . S
C1296 H1288 0.929 . S
C1296 C1297 1.377 . S
C1296 C1298 1.384 . S
C1297 C1296 1.377 . S
C1297 C1303 1.390 . S
C1298 H1289 0.930 . S
C1298 C1296 1.384 . S
C1298 C1299 1.372 . S
C1299 C1298 1.372 . S
C1299 C1300 1.400 . S
C1299 C1304 1.490 . S
C1300 H1290 0.930 . S
C1300 C1299 1.400 . S
C1300 C1303 1.386 . S
H1301 C1317 0.930 . S
H1302 C1318 0.931 . S
C1303 H1291 0.929 . S
C1303 C1297 1.390 . S
C1303 C1300 1.386 . S
C1304 C1299 1.490 . S
C1304 C1306 1.395 . S
C1304 C1307 1.403 . S
H1305 C1311 0.930 . S
C1306 H1292 0.930 . S
C1306 C1304 1.395 . S
C1306 C1309 1.403 . S
C1307 C1304 1.403 . S
C1307 C1308 1.524 . S
C1307 C1311 1.400 . S
C1308 H1293 0.960 . S
C1308 H1294 0.960 . S
C1308 H1295 0.960 . S
C1308 C1307 1.524 . S
C1309 C1306 1.403 . S
C1309 C1310 1.392 . S
C1309 C1313 1.495 . S
C1310 C1309 1.392 . S
C1310 C1311 1.385 . S
C1310 C1312 1.478 . S
C1311 H1305 0.930 . S
C1311 C1307 1.400 . S
C1311 C1310 1.385 . S
C1312 C1310 1.478 . S
C1312 C1314 1.381 . S
C1312 C1318 1.383 . S
C1313 C1309 1.495 . S
C1313 H1319 0.959 . S
C1313 H1320 0.961 . S
C1313 H1321 0.960 . S
C1314 C1312 1.381 . S
C1314 C1315 1.394 . S
C1314 H1322 0.930 . S
C1315 C1314 1.394 . S
C1315 C1316 1.383 . S
C1315 H1323 0.929 . S
C1316 C1315 1.383 . S
C1316 C1317 1.377 . S
C1317 H1301 0.930 . S
C1317 C1316 1.377 . S
C1317 C1318 1.379 . S
C1318 H1302 0.931 . S
C1318 C1312 1.383 . S
C1318 C1317 1.379 . S
H1319 C1313 0.959 . S
H1320 C1313 0.961 . S
H1321 C1313 0.960 . S
H1322 C1314 0.930 . S
H1323 C1315 0.929 . S
H1324 C1332 0.929 . S
H1325 C1334 0.930 . S
H1326 C1336 0.930 . S
H1327 C1339 0.929 . S
H1328 C1342 0.930 . S
H1329 C1344 0.960 . S
H1330 C1344 0.960 . S
H1331 C1344 0.960 . S
C1332 H1324 0.929 . S
C1332 C1333 1.377 . S
C1332 C1334 1.384 . S
C1333 C1332 1.377 . S
C1333 C1339 1.390 . S
C1334 H1325 0.930 . S
C1334 C1332 1.384 . S
C1334 C1335 1.372 . S
C1335 C1334 1.372 . S
C1335 C1336 1.400 . S
C1335 C1340 1.490 . S
C1336 H1326 0.930 . S
C1336 C1335 1.400 . S
C1336 C1339 1.386 . S
H1337 C1353 0.930 . S
H1338 C1354 0.931 . S
C1339 H1327 0.929 . S
C1339 C1333 1.390 . S
C1339 C1336 1.386 . S
C1340 C1335 1.490 . S
C1340 C1342 1.395 . S
C1340 C1343 1.403 . S
H1341 C1347 0.930 . S
C1342 H1328 0.930 . S
C1342 C1340 1.395 . S
C1342 C1345 1.403 . S
C1343 C1340 1.403 . S
C1343 C1344 1.524 . S
C1343 C1347 1.400 . S
C1344 H1329 0.960 . S
C1344 H1330 0.960 . S
C1344 H1331 0.960 . S
C1344 C1343 1.524 . S
C1345 C1342 1.403 . S
C1345 C1346 1.392 . S
C1345 C1349 1.495 . S
C1346 C1345 1.392 . S
C1346 C1347 1.385 . S
C1346 C1348 1.478 . S
C1347 H1341 0.930 . S
C1347 C1343 1.400 . S
C1347 C1346 1.385 . S
C1348 C1346 1.478 . S
C1348 C1350 1.381 . S
C1348 C1354 1.383 . S
C1349 C1345 1.495 . S
C1349 H1355 0.959 . S
C1349 H1356 0.961 . S
C1349 H1357 0.960 . S
C1350 C1348 1.381 . S
C1350 C1351 1.394 . S
C1350 H1358 0.930 . S
C1351 C1350 1.394 . S
C1351 C1352 1.383 . S
C1351 H1359 0.929 . S
C1352 C1351 1.383 . S
C1352 C1353 1.377 . S
C1353 H1337 0.930 . S
C1353 C1352 1.377 . S
C1353 C1354 1.379 . S
C1354 H1338 0.931 . S
C1354 C1348 1.383 . S
C1354 C1353 1.379 . S
H1355 C1349 0.959 . S
H1356 C1349 0.961 . S
H1357 C1349 0.960 . S
H1358 C1350 0.930 . S
H1359 C1351 0.929 . S
H1360 C1368 0.929 . S
H1361 C1370 0.930 . S
H1362 C1372 0.930 . S
H1363 C1375 0.929 . S
H1364 C1378 0.930 . S
H1365 C1380 0.960 . S
H1366 C1380 0.960 . S
H1367 C1380 0.960 . S
C1368 H1360 0.929 . S
C1368 C1369 1.377 . S
C1368 C1370 1.384 . S
C1369 C1368 1.377 . S
C1369 C1375 1.390 . S
C1370 H1361 0.930 . S
C1370 C1368 1.384 . S
C1370 C1371 1.372 . S
C1371 C1370 1.372 . S
C1371 C1372 1.400 . S
C1371 C1376 1.490 . S
C1372 H1362 0.930 . S
C1372 C1371 1.400 . S
C1372 C1375 1.386 . S
H1373 C1389 0.930 . S
H1374 C1390 0.931 . S
C1375 H1363 0.929 . S
C1375 C1369 1.390 . S
C1375 C1372 1.386 . S
C1376 C1371 1.490 . S
C1376 C1378 1.395 . S
C1376 C1379 1.403 . S
H1377 C1383 0.930 . S
C1378 H1364 0.930 . S
C1378 C1376 1.395 . S
C1378 C1381 1.403 . S
C1379 C1376 1.403 . S
C1379 C1380 1.524 . S
C1379 C1383 1.400 . S
C1380 H1365 0.960 . S
C1380 H1366 0.960 . S
C1380 H1367 0.960 . S
C1380 C1379 1.524 . S
C1381 C1378 1.403 . S
C1381 C1382 1.392 . S
C1381 C1385 1.495 . S
C1382 C1381 1.392 . S
C1382 C1383 1.385 . S
C1382 C1384 1.478 . S
C1383 H1377 0.930 . S
C1383 C1379 1.400 . S
C1383 C1382 1.385 . S
C1384 C1382 1.478 . S
C1384 C1386 1.381 . S
C1384 C1390 1.383 . S
C1385 C1381 1.495 . S
C1385 H1391 0.959 . S
C1385 H1392 0.961 . S
C1385 H1393 0.960 . S
C1386 C1384 1.381 . S
C1386 C1387 1.394 . S
C1386 H1394 0.930 . S
C1387 C1386 1.394 . S
C1387 C1388 1.383 . S
C1387 H1395 0.929 . S
C1388 C1387 1.383 . S
C1388 C1389 1.377 . S
C1389 H1373 0.930 . S
C1389 C1388 1.377 . S
C1389 C1390 1.379 . S
C1390 H1374 0.931 . S
C1390 C1384 1.383 . S
C1390 C1389 1.379 . S
H1391 C1385 0.959 . S
H1392 C1385 0.961 . S
H1393 C1385 0.960 . S
H1394 C1386 0.930 . S
H1395 C1387 0.929 . S
H1396 C1404 0.929 . S
H1397 C1406 0.930 . S
H1398 C1408 0.930 . S
H1399 C1411 0.929 . S
H1400 C1414 0.930 . S
H1401 C1416 0.960 . S
H1402 C1416 0.960 . S
H1403 C1416 0.960 . S
C1404 H1396 0.929 . S
C1404 C1405 1.377 . S
C1404 C1406 1.384 . S
C1405 C1404 1.377 . S
C1405 C1411 1.390 . S
C1406 H1397 0.930 . S
C1406 C1404 1.384 . S
C1406 C1407 1.372 . S
C1407 C1406 1.372 . S
C1407 C1408 1.400 . S
C1407 C1412 1.490 . S
C1408 H1398 0.930 . S
C1408 C1407 1.400 . S
C1408 C1411 1.386 . S
H1409 C1425 0.930 . S
H1410 C1426 0.931 . S
C1411 H1399 0.929 . S
C1411 C1405 1.390 . S
C1411 C1408 1.386 . S
C1412 C1407 1.490 . S
C1412 C1414 1.395 . S
C1412 C1415 1.403 . S
H1413 C1419 0.930 . S
C1414 H1400 0.930 . S
C1414 C1412 1.395 . S
C1414 C1417 1.403 . S
C1415 C1412 1.403 . S
C1415 C1416 1.524 . S
C1415 C1419 1.400 . S
C1416 H1401 0.960 . S
C1416 H1402 0.960 . S
C1416 H1403 0.960 . S
C1416 C1415 1.524 . S
C1417 C1414 1.403 . S
C1417 C1418 1.392 . S
C1417 C1421 1.495 . S
C1418 C1417 1.392 . S
C1418 C1419 1.385 . S
C1418 C1420 1.478 . S
C1419 H1413 0.930 . S
C1419 C1415 1.400 . S
C1419 C1418 1.385 . S
C1420 C1418 1.478 . S
C1420 C1422 1.381 . S
C1420 C1426 1.383 . S
C1421 C1417 1.495 . S
C1421 H1427 0.959 . S
C1421 H1428 0.961 . S
C1421 H1429 0.960 . S
C1422 C1420 1.381 . S
C1422 C1423 1.394 . S
C1422 H1430 0.930 . S
C1423 C1422 1.394 . S
C1423 C1424 1.383 . S
C1423 H1431 0.929 . S
C1424 C1423 1.383 . S
C1424 C1425 1.377 . S
C1425 H1409 0.930 . S
C1425 C1424 1.377 . S
C1425 C1426 1.379 . S
C1426 H1410 0.931 . S
C1426 C1420 1.383 . S
C1426 C1425 1.379 . S
H1427 C1421 0.959 . S
H1428 C1421 0.961 . S
H1429 C1421 0.960 . S
H1430 C1422 0.930 . S
H1431 C1423 0.929 . S
H1432 C1440 0.929 . S
H1433 C1442 0.930 . S
H1434 C1444 0.930 . S
H1435 C1447 0.929 . S
H1436 C1450 0.930 . S
H1437 C1452 0.960 . S
H1438 C1452 0.960 . S
H1439 C1452 0.960 . S
C1440 H1432 0.929 . S
C1440 C1441 1.377 . S
C1440 C1442 1.384 . S
C1441 C1440 1.377 . S
C1441 C1447 1.390 . S
C1442 H1433 0.930 . S
C1442 C1440 1.384 . S
C1442 C1443 1.372 . S
C1443 C1442 1.372 . S
C1443 C1444 1.400 . S
C1443 C1448 1.490 . S
C1444 H1434 0.930 . S
C1444 C1443 1.400 . S
C1444 C1447 1.386 . S
H1445 C1461 0.930 . S
H1446 C1462 0.931 . S
C1447 H1435 0.929 . S
C1447 C1441 1.390 . S
C1447 C1444 1.386 . S
C1448 C1443 1.490 . S
C1448 C1450 1.395 . S
C1448 C1451 1.403 . S
H1449 C1455 0.930 . S
C1450 H1436 0.930 . S
C1450 C1448 1.395 . S
C1450 C1453 1.403 . S
C1451 C1448 1.403 . S
C1451 C1452 1.524 . S
C1451 C1455 1.400 . S
C1452 H1437 0.960 . S
C1452 H1438 0.960 . S
C1452 H1439 0.960 . S
C1452 C1451 1.524 . S
C1453 C1450 1.403 . S
C1453 C1454 1.392 . S
C1453 C1457 1.495 . S
C1454 C1453 1.392 . S
C1454 C1455 1.385 . S
C1454 C1456 1.478 . S
C1455 H1449 0.930 . S
C1455 C1451 1.400 . S
C1455 C1454 1.385 . S
C1456 C1454 1.478 . S
C1456 C1458 1.381 . S
C1456 C1462 1.383 . S
C1457 C1453 1.495 . S
C1457 H1463 0.959 . S
C1457 H1464 0.961 . S
C1457 H1465 0.960 . S
C1458 C1456 1.381 . S
C1458 C1459 1.394 . S
C1458 H1466 0.930 . S
C1459 C1458 1.394 . S
C1459 C1460 1.383 . S
C1459 H1467 0.929 . S
C1460 C1459 1.383 . S
C1460 C1461 1.377 . S
C1461 H1445 0.930 . S
C1461 C1460 1.377 . S
C1461 C1462 1.379 . S
C1462 H1446 0.931 . S
C1462 C1456 1.383 . S
C1462 C1461 1.379 . S
H1463 C1457 0.959 . S
H1464 C1457 0.961 . S
H1465 C1457 0.960 . S
H1466 C1458 0.930 . S
H1467 C1459 0.929 . S
H1468 C1476 0.929 . S
H1469 C1478 0.930 . S
H1470 C1480 0.930 . S
H1471 C1483 0.929 . S
H1472 C1486 0.930 . S
H1473 C1488 0.960 . S
H1474 C1488 0.960 . S
H1475 C1488 0.960 . S
C1476 H1468 0.929 . S
C1476 C1477 1.377 . S
C1476 C1478 1.384 . S
C1477 C1476 1.377 . S
C1477 C1483 1.390 . S
C1478 H1469 0.930 . S
C1478 C1476 1.384 . S
C1478 C1479 1.372 . S
C1479 C1478 1.372 . S
C1479 C1480 1.400 . S
C1479 C1484 1.490 . S
C1480 H1470 0.930 . S
C1480 C1479 1.400 . S
C1480 C1483 1.386 . S
H1481 C1497 0.930 . S
H1482 C1498 0.931 . S
C1483 H1471 0.929 . S
C1483 C1477 1.390 . S
C1483 C1480 1.386 . S
C1484 C1479 1.490 . S
C1484 C1486 1.395 . S
C1484 C1487 1.403 . S
H1485 C1491 0.930 . S
C1486 H1472 0.930 . S
C1486 C1484 1.395 . S
C1486 C1489 1.403 . S
C1487 C1484 1.403 . S
C1487 C1488 1.524 . S
C1487 C1491 1.400 . S
C1488 H1473 0.960 . S
C1488 H1474 0.960 . S
C1488 H1475 0.960 . S
C1488 C1487 1.524 . S
C1489 C1486 1.403 . S
C1489 C1490 1.392 . S
C1489 C1493 1.495 . S
C1490 C1489 1.392 . S
C1490 C1491 1.385 . S
C1490 C1492 1.478 . S
C1491 H1485 0.930 . S
C1491 C1487 1.400 . S
C1491 C1490 1.385 . S
C1492 C1490 1.478 . S
C1492 C1494 1.381 . S
C1492 C1498 1.383 . S
C1493 C1489 1.495 . S
C1493 H1499 0.959 . S
C1493 H1500 0.961 . S
C1493 H1501 0.960 . S
C1494 C1492 1.381 . S
C1494 C1495 1.394 . S
C1494 H1502 0.930 . S
C1495 C1494 1.394 . S
C1495 C1496 1.383 . S
C1495 H1503 0.929 . S
C1496 C1495 1.383 . S
C1496 C1497 1.377 . S
C1497 H1481 0.930 . S
C1497 C1496 1.377 . S
C1497 C1498 1.379 . S
C1498 H1482 0.931 . S
C1498 C1492 1.383 . S
C1498 C1497 1.379 . S
H1499 C1493 0.959 . S
H1500 C1493 0.961 . S
H1501 C1493 0.960 . S
H1502 C1494 0.930 . S
H1503 C1495 0.929 . S
C649 C1 1.150 . S
C668 C486 1.227 . S
C685 C80 0.917 . S
C704 C535 0.955 . S
C740 C570 2.453 . S
C721 C140 2.445 . S
C757 C211 2.299 . S
C776 C609 2.280 . S
C812 C530 2.488 . S
C793 C31 2.290 . S
C848 C489 0.833 . S
C829 C61 0.877 . S
C884 C619 1.865 . S
C865 C151 1.889 . S
C920 C578 1.505 . S
C901 C200 1.527 . S
C937 C20 1.670 . S
C956 C606 1.755 . S
C992 C538 2.304 . S
C973 C121 2.377 . S
C1009 C181 2.296 . S
C1028 C499 2.332 . S
C1045 C91 0.715 . S
C1064 C575 0.709 . S
C1100 C495 1.253 . S
C1081 C260 1.172 . S
C1117 C320 0.904 . S
C1136 C526 0.904 . S
C1153 C361 2.440 . S
C1172 C579 2.432 . S
C1189 C451 2.294 . S
C1208 C618 2.281 . S
C1225 C271 2.353 . S
C1244 C539 2.486 . S
C1280 C498 0.933 . S
C1261 C301 0.889 . S
C1316 C610 1.865 . S
C1297 C380 1.877 . S
C1352 C569 1.515 . S
C1333 C440 1.528 . S
C1369 C241 1.614 . S
C1388 C615 1.754 . S
C1424 C529 2.326 . S
C1405 C391 2.367 . S
C1460 C490 2.333 . S
C1441 C421 2.300 . S
C1477 C331 0.713 . S
C1496 C566 0.722 . S
