# Generated by pormake.
# Topology pth, (4,4)-cn, num edge types: 1
# Building blocks:
#     Node 0, Type 0, BuildingBlock: AZAVOO_clean_sbu_0, # of connection points: 4
#     Node 1, Type 0, BuildingBlock: AZAVOO_clean_sbu_0, # of connection points: 4
#     Node 2, Type 0, BuildingBlock: AZAVOO_clean_sbu_0, # of connection points: 4
#     Node 3, Type 1, BuildingBlock: MUDLON_clean_linker_0, # of connection points: 4
#     Node 4, Type 1, BuildingBlock: MUDLON_clean_linker_0, # of connection points: 4
#     Node 5, Type 1, BuildingBlock: MUDLON_clean_linker_0, # of connection points: 4
#     Edge 6, Type (0, 1), BuildingBlock: EZIPEK_clean_linker_0, # of connection points: 2
#     Edge 7, Type (0, 1), BuildingBlock: EZIPEK_clean_linker_0, # of connection points: 2
#     Edge 8, Type (0, 1), BuildingBlock: EZIPEK_clean_linker_0, # of connection points: 2
#     Edge 9, Type (0, 1), BuildingBlock: EZIPEK_clean_linker_0, # of connection points: 2
#     Edge 10, Type (0, 1), BuildingBlock: EZIPEK_clean_linker_0, # of connection points: 2
#     Edge 11, Type (0, 1), BuildingBlock: EZIPEK_clean_linker_0, # of connection points: 2
#     Edge 12, Type (0, 1), BuildingBlock: EZIPEK_clean_linker_0, # of connection points: 2
#     Edge 13, Type (0, 1), BuildingBlock: EZIPEK_clean_linker_0, # of connection points: 2
#     Edge 14, Type (0, 1), BuildingBlock: EZIPEK_clean_linker_0, # of connection points: 2
#     Edge 15, Type (0, 1), BuildingBlock: EZIPEK_clean_linker_0, # of connection points: 2
#     Edge 16, Type (0, 1), BuildingBlock: EZIPEK_clean_linker_0, # of connection points: 2
#     Edge 17, Type (0, 1), BuildingBlock: EZIPEK_clean_linker_0, # of connection points: 2
# Relax obj value: 0.079
# Max RMSD: 0.217
# Mean RMSD: 0.135
data_MOF--net-pth--node1-AZAVOO_clean_sbu_0--node2-MUDLON_clean_linker_0--edge1-EZIPEK_clean_linker_0
_symmetry_space_group_name_H-M    P1
_symmetry_Int_Tables_number       1
_symmetry_cell_setting            triclinic
loop_
_symmetry_equiv_pos_as_xyz
'x, y, z'
_cell_length_a     26.574719
_cell_length_b     27.138031
_cell_length_c     53.717074
_cell_angle_alpha  90.892678
_cell_angle_beta   92.964383
_cell_angle_gamma 121.93667
loop_
_atom_site_label
_atom_site_type_symbol
_atom_site_fract_x
_atom_site_fract_y
_atom_site_fract_z
_atom_type_partial_charge
Mg0 Mg 0.14095 0.06986 0.03551 0.0
O1 O 0.05988 0.0111 0.00843 0.0
O2 O 0.04785 0.06784 0.98221 0.0
Mg3 Mg 0.12024 0.1627 0.9927 0.0
C4 C 0.03245 0.01781 0.9899 0.0
C5 C 0.15023 0.98774 0.07333 0.0
O6 O 0.20709 0.02759 0.0733 0.0
O7 O 0.08803 0.09859 0.05681 0.0
O8 O 0.08079 0.15791 0.03026 0.0
O9 O 0.20254 0.06939 0.00827 0.0
O10 O 0.17693 0.1347 0.01023 0.0
C11 C 0.07183 0.13403 0.05123 0.0
C12 C 0.20532 0.115 -0.00039 0.0
O13 O 0.11263 0.99267 0.05981 0.0
Mg14 Mg 0.90805 0.95303 0.3609 0.0
O15 O 1.0015 0.99535 0.38087 0.0
O16 O 0.01172 0.06348 0.40817 0.0
Mg17 Mg 0.92915 0.06957 0.40407 0.0
C18 C 0.03146 0.03449 0.39824 0.0
C19 C 0.94558 0.86994 0.33899 0.0
O20 O 0.95011 0.86079 0.36271 0.0
O21 O 0.93868 0.0306 0.33663 0.0
O22 O 0.94674 0.09853 0.36375 0.0
O23 O 0.86669 0.89218 0.39214 0.0
O24 O 0.87805 0.9788 0.38995 0.0
C25 C 0.94865 0.08129 0.34173 0.0
C26 C 0.86084 0.93265 0.40191 0.0
O27 O 0.93107 0.90592 0.33264 0.0
Mg28 Mg 0.01035 0.95855 0.68278 0.0
O29 O 0.06337 0.0386 0.7096 0.0
O30 O 0.00325 0.03454 0.73806 0.0
Mg31 Mg 0.90931 0.95689 0.7272 0.0
C32 C 0.05442 0.05886 0.7293 0.0
C33 C 0.08142 0.00571 0.635 0.0
O34 O 0.02866 0.99117 0.62532 0.0
O35 O 0.96772 0.00232 0.66315 0.0
O36 O 0.90341 0.99642 0.69017 0.0
O37 O 0.02662 0.90425 0.70927 0.0
O38 O 0.94897 0.91403 0.70885 0.0
C39 C 0.92675 0.01047 0.6692 0.0
C40 C 0.97848 0.89359 0.71902 0.0
O41 O 0.08808 0.99752 0.65785 0.0
H42 H 0.87937 0.6674 0.20454 0.0
N43 N 0.97 0.6627 0.18919 0.0
H44 H 0.87709 0.71653 0.24294 0.0
H45 H 0.05811 0.7144 0.22694 0.0
H46 H 0.05554 0.76262 0.26539 0.0
H47 H 0.08977 0.73394 0.1855 0.0
H48 H 0.13802 0.81245 0.15645 0.0
H49 H 0.9181 0.68439 0.15122 0.0
H50 H 0.96634 0.7627 0.12203 0.0
H51 H 0.87709 0.56085 0.1728 0.0
H52 H 0.05801 0.64283 0.20355 0.0
H53 H 0.86813 0.46647 0.17183 0.0
H54 H 0.04889 0.54853 0.20391 0.0
H55 H 0.85276 0.16928 0.20514 0.0
H56 H 0.86632 0.12909 0.24374 0.0
H57 H 0.03229 0.29023 0.26258 0.0
H58 H 0.01909 0.33028 0.22379 0.0
H59 H 0.03615 0.28786 0.18461 0.0
H60 H 0.06696 0.25113 0.15054 0.0
H61 H 0.89672 0.18435 0.11038 0.0
H62 H 0.86498 0.21986 0.14504 0.0
H63 H 0.84725 0.29986 0.19825 0.0
H64 H 0.85967 0.39569 0.19907 0.0
H65 H 0.04064 0.47152 0.17869 0.0
N66 N 0.92631 0.27268 0.18802 0.0
H67 H 0.02853 0.37597 0.17918 0.0
C68 C 0.9685 0.68683 0.21295 0.0
C69 C 0.91762 0.68746 0.21792 0.0
C70 C 0.91642 0.71548 0.23969 0.0
C71 C 0.96623 0.74324 0.25685 0.0
C72 C 0.01675 0.74139 0.25229 0.0
C73 C 0.01804 0.71362 0.23039 0.0
C74 C 1.00023 0.7034 0.17042 0.0
C75 C 0.06255 0.73916 0.17146 0.0
C76 C 0.09007 0.7839 0.15493 0.0
C77 C 0.05556 0.79314 0.13721 0.0
C78 C 0.99354 0.75596 0.13556 0.0
C79 C 0.96615 0.71143 0.15208 0.0
C80 C 0.96773 0.6086 0.18844 0.0
C81 C 0.91474 0.55825 0.17948 0.0
C82 C 0.90966 0.50435 0.17917 0.0
C83 C 0.95756 0.49954 0.1881 0.0
C84 C 0.0112 0.5505 0.19673 0.0
C85 C 0.01636 0.6046 0.19678 0.0
C86 C 0.93432 0.2527 0.21172 0.0
C87 C 0.89181 0.19601 0.21768 0.0
C88 C 0.89976 0.17309 0.23951 0.0
C89 C 0.95052 0.20665 0.25577 0.0
C90 C 0.99309 0.26371 0.25008 0.0
C91 C 0.98524 0.28661 0.2281 0.0
C92 C 0.94785 0.25616 0.1674 0.0
C93 C 0.00526 0.26534 0.16858 0.0
C94 C 0.02286 0.2443 0.14918 0.0
C95 C 0.9838 0.21453 0.12816 0.0
C96 C 0.92715 0.20675 0.1266 0.0
C97 C 0.90928 0.22724 0.14619 0.0
C98 C 0.93634 0.3304 0.18834 0.0
C99 C 0.88956 0.3373 0.19402 0.0
C100 C 0.89671 0.3921 0.19427 0.0
C101 C 0.95097 0.44149 0.18861 0.0
C102 C 0.99835 0.43465 0.18331 0.0
C103 C 0.99129 0.37974 0.18333 0.0
H104 H 0.85448 0.17308 0.54628 0.0
N105 N 0.74286 0.10447 0.52761 0.0
H106 H 0.90088 0.15753 0.58361 0.0
H107 H 0.683 0.03036 0.56424 0.0
H108 H 0.72943 0.01469 0.60144 0.0
H109 H 0.68722 0.9855 0.52593 0.0
H110 H 0.71055 0.92689 0.49925 0.0
H111 H 0.81579 0.14042 0.49093 0.0
H112 H 0.83757 0.08147 0.46362 0.0
H113 H 0.71082 0.16277 0.55711 0.0
H114 H 0.64726 0.04305 0.49238 0.0
H115 H 0.62183 0.16711 0.55259 0.0
H116 H 0.55992 0.04925 0.48752 0.0
H117 H 0.34026 0.19754 0.52721 0.0
H118 H 0.27191 0.17114 0.56065 0.0
H119 H 0.29353 0.02835 0.57744 0.0
H120 H 0.36037 0.05351 0.54404 0.0
H121 H 0.27478 0.03241 0.5048 0.0
H122 H 0.19531 0.00855 0.47326 0.0
H123 H 0.31728 0.15429 0.43163 0.0
H124 H 0.39599 0.18241 0.46501 0.0
H125 H 0.49571 0.21827 0.52105 0.0
H126 H 0.58159 0.20791 0.52541 0.0
H127 H 0.46772 0.02462 0.50462 0.0
N128 N 0.38324 0.13602 0.50954 0.0
H129 H 0.38241 0.03614 0.49952 0.0
C130 C 0.76557 0.10284 0.55241 0.0
C131 C 0.8267 0.13977 0.55873 0.0
C132 C 0.85307 0.13088 0.57991 0.0
C133 C 0.81845 0.08491 0.59509 0.0
C134 C 0.75664 0.05051 0.5899 0.0
C135 C 0.73026 0.0594 0.5687 0.0
C136 C 0.75008 0.0676 0.51038 0.0
C137 C 0.72012 0.00684 0.51244 0.0
C138 C 0.73331 0.97339 0.49725 0.0
C139 C 0.7757 1.00002 0.47955 0.0
C140 C 0.80467 0.06029 0.47719 0.0
C141 C 0.79202 0.09377 0.49255 0.0
C142 C 0.68608 0.10088 0.5259 0.0
C143 C 0.67749 0.13641 0.54225 0.0
C144 C 0.62679 0.13965 0.53939 0.0
C145 C 0.58359 0.1086 0.51963 0.0
C146 C 0.59168 0.07292 0.50323 0.0
C147 C 0.64228 0.06937 0.50616 0.0
C148 C 0.35572 0.12791 0.53294 0.0
C149 C 0.33181 0.16177 0.53864 0.0
C150 C 0.2928 0.14665 0.5576 0.0
C151 C 0.27766 0.09767 0.5713 0.0
C152 C 0.30495 0.06636 0.56702 0.0
C153 C 0.34347 0.08109 0.54793 0.0
C154 C 0.34117 0.11107 0.4879 0.0
C155 C 0.28504 0.0595 0.48898 0.0
C156 C 0.23943 0.04548 0.47079 0.0
C157 C 0.24971 0.08066 0.4504 0.0
C158 C 0.30791 0.12736 0.44752 0.0
C159 C 0.3529 0.14317 0.46642 0.0
C160 C 0.43295 0.12829 0.50994 0.0
C161 C 0.4896 0.17608 0.51717 0.0
C162 C 0.53841 0.16982 0.51994 0.0
C163 C 0.53156 0.11522 0.51571 0.0
C164 C 0.47476 0.06738 0.50787 0.0
C165 C 0.42589 0.07384 0.50494 0.0
H166 H 0.76349 0.85734 0.87341 0.0
N167 N 0.72683 0.74868 0.85932 0.0
H168 H 0.83335 0.916 0.90885 0.0
H169 H 0.76643 0.70776 0.89707 0.0
H170 H 0.83469 0.76595 0.93316 0.0
H171 H 0.80802 0.71643 0.85538 0.0
H172 H 0.87958 0.74498 0.82299 0.0
H173 H 0.73575 0.80921 0.8197 0.0
H174 H 0.80635 0.83674 0.7871 0.0
H175 H 0.64713 0.70476 0.89451 0.0
H176 H 0.68868 0.65655 0.82483 0.0
H177 H 0.55675 0.6093 0.8941 0.0
H178 H 0.59745 0.5629 0.824 0.0
H179 H 0.24885 0.32472 0.88229 0.0
H180 H 0.22435 0.26164 0.91782 0.0
H181 H 0.38837 0.26647 0.9132 0.0
H182 H 0.41288 0.3293 0.8778 0.0
H183 H 0.32757 0.25748 0.84268 0.0
H184 H 0.26144 0.19042 0.80886 0.0
H185 H 0.23605 0.32333 0.77944 0.0
H186 H 0.29813 0.3895 0.81511 0.0
H187 H 0.36682 0.46774 0.87028 0.0
H188 H 0.46275 0.55947 0.87206 0.0
H189 H 0.54235 0.47013 0.84145 0.0
N190 N 0.34209 0.36361 0.85511 0.0
H191 H 0.44497 0.37894 0.83872 0.0
C192 C 0.75959 0.77835 0.88263 0.0
C193 C 0.77799 0.83688 0.88664 0.0
C194 C 0.81783 0.87024 0.90677 0.0
C195 C 0.83944 0.84537 0.92348 0.0
C196 C 0.81858 0.78588 0.92038 0.0
C197 C 0.77958 0.75273 0.89988 0.0
C198 C 0.76684 0.76116 0.83987 0.0
C199 C 0.80749 0.74273 0.84057 0.0
C200 C 0.84807 0.7588 0.82215 0.0
C201 C 0.84795 0.79289 0.8028 0.0
C202 C 0.80682 0.81035 0.80193 0.0
C203 C 0.76666 0.79466 0.82037 0.0
C204 C 0.67745 0.68869 0.86036 0.0
C205 C 0.63803 0.67362 0.87942 0.0
C206 C 0.58546 0.61903 0.87894 0.0
C207 C 0.56949 0.57822 0.85895 0.0
C208 C 0.60872 0.59265 0.83996 0.0
C209 C 0.66163 0.64702 0.84054 0.0
C210 C 0.33275 0.3323 0.87758 0.0
C211 C 0.27992 0.31299 0.88925 0.0
C212 C 0.26591 0.27693 0.90931 0.0
C213 C 0.30465 0.25963 0.91797 0.0
C214 C 0.35819 0.27972 0.90673 0.0
C215 C 0.37231 0.31597 0.88669 0.0
C216 C 0.3164 0.32845 0.83208 0.0
C217 C 0.30821 0.27289 0.82914 0.0
C218 C 0.27049 0.23434 0.80963 0.0
C219 C 0.24245 0.25127 0.79195 0.0
C220 C 0.25618 0.30892 0.79318 0.0
C221 C 0.2919 0.34677 0.81337 0.0
C222 C 0.39895 0.41689 0.85446 0.0
C223 C 0.40502 0.4683 0.86379 0.0
C224 C 0.46009 0.52046 0.86507 0.0
C225 C 0.51075 0.52226 0.85726 0.0
C226 C 0.50435 0.47053 0.84752 0.0
C227 C 0.44884 0.4183 0.84603 0.0
C228 C 0.0767 0.21399 0.07719 0.0
C229 C 0.04781 0.15361 0.07068 0.0
C230 C 0.97825 0.13235 0.10303 0.0
C231 C 0.0034 0.19295 0.10757 0.0
N232 N 0.06752 0.29101 0.09498 0.0
N233 N 0.96443 0.05586 0.07418 0.0
C234 C 0.04984 0.23364 0.09338 0.0
C235 C 0.99662 0.1128 0.08269 0.0
N236 N 0.13147 0.2524 0.06905 0.0
N237 N 0.93853 0.09362 0.11864 0.0
H238 H 0.976 0.04018 0.05906 0.0
H239 H 0.92339 0.02541 0.08058 0.0
H240 H 0.92427 0.10623 0.13384 0.0
H241 H 0.92367 0.04955 0.11781 0.0
H242 H 0.15689 0.29592 0.07537 0.0
H243 H 0.15456 0.2398 0.05818 0.0
H244 H 0.09702 0.32146 0.08312 0.0
H245 H 0.04824 0.30704 0.10641 0.0
C246 C 0.8705 0.95644 0.44749 0.0
C247 C 0.83346 0.92735 0.42566 0.0
C248 C 0.75233 0.93238 0.44224 0.0
C249 C 0.79089 0.96571 0.46329 0.0
N250 N 0.87919 0.99501 0.48971 0.0
N251 N 0.73548 0.87107 0.40537 0.0
C252 C 0.84758 0.97263 0.46721 0.0
C253 C 0.77278 0.90921 0.4243 0.0
N254 N 0.92824 0.97087 0.44867 0.0
N255 N 0.69808 0.92649 0.43848 0.0
H256 H 0.75026 0.85401 0.39206 0.0
H257 H 0.68959 0.85223 0.40422 0.0
H258 H 0.68139 0.94265 0.45123 0.0
H259 H 0.67093 0.90858 0.42207 0.0
H260 H 0.96014 0.99822 0.46263 0.0
H261 H 0.94442 0.95621 0.43496 0.0
H262 H 0.91893 0.99746 0.49451 0.0
H263 H 0.86288 0.00675 0.50445 0.0
C264 C 0.907 0.80332 0.73944 0.0
C265 C 0.95749 0.86074 0.74177 0.0
C266 C 0.9444 0.86762 0.78616 0.0
C267 C 0.89131 0.81187 0.78338 0.0
N268 N 0.82943 0.72073 0.75996 0.0
N269 N 0.03359 0.94181 0.76765 0.0
C270 C 0.8753 0.77756 0.76083 0.0
C271 C 0.97952 0.89083 0.76537 0.0
N272 N 0.88811 0.77475 0.71647 0.0
N273 N 0.95942 0.89917 0.80835 0.0
H274 H 0.05986 0.95907 0.75259 0.0
H275 H 0.05468 0.96446 0.78455 0.0
H276 H 0.9359 0.88229 0.82419 0.0
H277 H 0.99358 0.94259 0.81096 0.0
H278 H 0.84783 0.73569 0.71262 0.0
H279 H 0.91251 0.79144 0.70082 0.0
H280 H 0.8182 0.69166 0.74478 0.0
H281 H 0.80504 0.70117 0.77533 0.0
C282 C 0.10044 0.93981 0.11181 0.0
C283 C 0.12935 0.93941 0.09038 0.0
C284 C 0.11044 0.84297 0.09966 0.0
C285 C 0.08365 0.84446 0.12159 0.0
N286 N 0.06239 0.89759 0.15121 0.0
N287 N 0.16985 0.8956 0.06548 0.0
C288 C 0.08129 0.89389 0.12843 0.0
C289 C 0.13705 0.89256 0.08486 0.0
N290 N 0.09066 0.98381 0.11611 0.0
N291 N 0.10833 0.79327 0.09252 0.0
H292 H 0.18774 0.93002 0.05357 0.0
H293 H 0.18275 0.86611 0.06212 0.0
H294 H 0.09008 0.75656 0.10313 0.0
H295 H 0.12093 0.78674 0.07536 0.0
H296 H 0.06326 0.98293 0.12949 0.0
H297 H 0.10725 0.02016 0.10531 0.0
H298 H 0.06557 0.93494 0.15853 0.0
H299 H 0.04785 0.86473 0.16387 0.0
C300 C 0.10034 1.00059 0.41304 0.0
C301 C 0.09074 0.04645 0.40795 0.0
C302 C 0.18599 0.11547 0.43058 0.0
C303 C 0.19825 0.07075 0.43355 0.0
N304 N 0.1739 0.97466 0.42049 0.0
N305 N 0.1353 0.14994 0.40452 0.0
C306 C 0.15772 0.0146 0.42232 0.0
C307 C 0.13716 0.10472 0.41429 0.0
N308 N 0.05438 0.94385 0.41098 0.0
N309 N 0.21783 0.16678 0.44445 0.0
H310 H 0.10195 0.14379 0.39135 0.0
H311 H 0.1706 0.19301 0.40721 0.0
H312 H 0.25095 0.17542 0.4582 0.0
H313 H 0.2064 0.19809 0.4443 0.0
H314 H 0.05896 0.90981 0.41671 0.0
H315 H 0.01042 0.93103 0.40646 0.0
H316 H 0.14756 0.93473 0.41061 0.0
H317 H 0.21626 0.98418 0.42646 0.0
C318 C 0.16293 0.12104 0.74578 0.0
C319 C 0.10499 0.1121 0.74278 0.0
C320 C 0.13701 0.19463 0.77232 0.0
C321 C 0.19618 0.20707 0.77331 0.0
N322 N 0.26781 0.19185 0.75461 0.0
N323 N 0.04542 0.15481 0.74665 0.0
C324 C 0.20994 0.17353 0.75787 0.0
C325 C 0.09465 0.15345 0.75397 0.0
N326 N 0.17301 0.07852 0.73881 0.0
N327 N 0.11978 0.21914 0.78966 0.0
H328 H 0.01544 0.1283 0.73194 0.0
H329 H 0.03876 0.18727 0.75306 0.0
H330 H 0.14785 0.24656 0.80458 0.0
H331 H 0.07558 0.20684 0.79076 0.0
H332 H 0.2135 0.08185 0.74294 0.0
H333 H 0.13986 0.03739 0.73165 0.0
H334 H 0.27996 0.17138 0.7418 0.0
H335 H 0.30333 0.23104 0.76263 0.0
C336 C 0.87438 0.99782 0.62735 0.0
C337 C 0.90081 0.03114 0.65016 0.0
C338 C 0.86961 0.09816 0.63766 0.0
C339 C 0.84774 0.06747 0.61411 0.0
N340 N 0.84047 0.99578 0.58447 0.0
N341 N 0.93248 0.11802 0.67558 0.0
C342 C 0.85355 0.01962 0.60833 0.0
C343 C 0.90085 0.08276 0.65496 0.0
N344 N 0.86622 0.94385 0.62428 0.0
N345 N 0.85928 0.14103 0.64366 0.0
H346 H 0.95647 0.10838 0.68844 0.0
H347 H 0.93922 0.15907 0.67885 0.0
H348 H 0.83733 0.15387 0.63124 0.0
H349 H 0.86844 0.16083 0.66146 0.0
H350 H 0.84131 0.91516 0.60914 0.0
H351 H 0.87908 0.92508 0.63797 0.0
H352 H 0.85036 0.96526 0.57859 0.0
H353 H 0.82477 0.0102 0.5699 0.0
C354 C 0.923 0.95681 0.97764 0.0
C355 C 0.98062 0.96603 0.97662 0.0
C356 C 0.94506 0.89379 0.94178 0.0
C357 C 0.8869 0.88313 0.94314 0.0
N358 N 0.81737 0.8939 0.96604 0.0
N359 N 0.04122 0.92992 0.96338 0.0
C360 C 0.87487 0.91142 0.96226 0.0
C361 C 0.98988 0.92997 0.96061 0.0
N362 N 0.91447 0.9918 0.99314 0.0
N363 N 0.95877 0.87254 0.92171 0.0
H364 H 0.07424 0.95433 0.97748 0.0
H365 H 0.04789 0.90063 0.95358 0.0
H366 H 0.92808 0.84746 0.90696 0.0
H367 H 1.00207 0.88458 0.91849 0.0
H368 H 0.87539 0.99207 0.99257 0.0
H369 H 0.94774 0.0227 0.00589 0.0
H370 H 0.80519 0.90902 0.98108 0.0
H371 H 0.7812 0.86008 0.95535 0.0
C372 C 0.99764 0.86797 0.3018 0.0
C373 C 0.95512 0.83713 0.31946 0.0
C374 C 0.92936 0.74477 0.29871 0.0
C375 C 0.96565 0.77575 0.2792 0.0
N376 N 0.02861 0.86696 0.26029 0.0
N377 N 0.8738 0.74612 0.33272 0.0
C378 C 0.99855 0.83746 0.28026 0.0
C379 C 0.91946 0.77542 0.31755 0.0
N380 N 0.03828 0.92615 0.30596 0.0
N381 N 0.90503 0.68611 0.2994 0.0
H382 H 0.86384 0.76674 0.34638 0.0
H383 H 0.84233 0.70176 0.33026 0.0
H384 H 0.91146 0.66231 0.28588 0.0
H385 H 0.88325 0.66209 0.31451 0.0
H386 H 0.07409 0.94975 0.29504 0.0
H387 H 0.03974 0.94972 0.32181 0.0
H388 H 0.0477 0.91156 0.2589 0.0
H389 H 0.03037 0.84635 0.2441 0.0
C390 C 0.18545 0.08347 0.62588 0.0
C391 C 0.13233 0.02934 0.61907 0.0
C392 C 0.1726 0.02405 0.57985 0.0
C393 C 0.22784 0.07479 0.58786 0.0
N394 N 0.29037 0.14823 0.61999 0.0
N395 N 0.08054 0.94191 0.59221 0.0
C396 C 0.23535 0.10323 0.61135 0.0
C397 C 0.12726 0.99788 0.59676 0.0
N398 N 0.18742 0.11728 0.64551 0.0
N399 N 0.1627 0.00178 0.55584 0.0
H400 H 0.04736 0.92015 0.60455 0.0
H401 H 0.07801 0.91502 0.57751 0.0
H402 H 0.19449 0.01994 0.54268 0.0
H403 H 0.1211 0.96866 0.54829 0.0
H404 H 0.22279 0.15968 0.64972 0.0
H405 H 0.15141 0.10516 0.65626 0.0
H406 H 0.29994 0.1666 0.6381 0.0
H407 H 0.32774 0.16408 0.60971 0.0
C408 C 0.29086 0.20194 0.98292 0.0
C409 C 0.23998 0.14534 0.97826 0.0
C410 C 0.24357 0.15939 0.93334 0.0
C411 C 0.28768 0.21899 0.93845 0.0
N412 N 0.35278 0.29859 0.96789 0.0
N413 N 0.16648 0.0693 0.94948 0.0
C414 C 0.31195 0.24061 0.96317 0.0
C415 C 0.21649 0.12336 0.95353 0.0
N416 N 0.31887 0.21839 0.00634 0.0
N417 N 0.22795 0.13743 0.90919 0.0
H418 H 0.14729 0.04138 0.96388 0.0
H419 H 0.14249 0.05332 0.93227 0.0
H420 H 0.24702 0.16291 0.89401 0.0
H421 H 0.20007 0.09332 0.90425 0.0
H422 H 0.35929 0.25713 0.01059 0.0
H423 H 0.30434 0.19052 0.02108 0.0
H424 H 0.36691 0.31822 0.98578 0.0
H425 H 0.36994 0.32813 0.95385 0.0
C426 C 0.99833 0.13432 0.30376 0.0
C427 C 0.95377 0.11831 0.32083 0.0
C428 C 0.91841 0.17323 0.29824 0.0
C429 C 0.95687 0.18187 0.27926 0.0
N430 N 0.02997 0.16623 0.26236 0.0
N431 N 0.86337 0.11279 0.33133 0.0
C432 C 0.99629 0.16157 0.28162 0.0
C433 C 0.91188 0.13554 0.31744 0.0
N434 N 0.04325 0.12473 0.30899 0.0
N435 N 0.88823 0.20129 0.29795 0.0
H436 H 0.85443 0.08237 0.34475 0.0
H437 H 0.82845 0.11928 0.3277 0.0
H438 H 0.89214 0.22948 0.28412 0.0
H439 H 0.86421 0.2012 0.3127 0.0
H440 H 0.08015 0.14049 0.29848 0.0
H441 H 0.04632 0.10548 0.32519 0.0
H442 H 0.05443 0.14641 0.26183 0.0
H443 H 0.03019 0.18656 0.24601 0.0
loop_
_geom_bond_atom_site_label_1
_geom_bond_atom_site_label_2
_geom_bond_distance
_geom_bond_site_symmetry_2
_ccdc_geom_bond_type
Mg0 O1 2.018 1_445 S
Mg0 O7 1.986 . S
Mg0 O9 2.114 . S
Mg0 O10 2.251 . S
Mg0 O13 2.010 1_545 S
O1 Mg0 2.018 1_665 S
O1 C4 1.265 . S
O2 Mg3 2.028 1_655 S
O2 C4 1.248 1_546 S
Mg3 O2 2.028 1_455 S
Mg3 O8 2.032 1_556 S
Mg3 O10 2.079 1_556 S
C4 O1 1.265 . S
C4 O2 1.248 1_564 S
C5 O6 1.264 . S
C5 O13 1.249 . S
O6 C5 1.264 . S
O7 Mg0 1.986 . S
O7 C11 1.246 . S
O8 Mg3 2.032 1_554 S
O8 C11 1.259 . S
O9 Mg0 2.114 . S
O9 C12 1.252 . S
O10 Mg0 2.251 . S
O10 Mg3 2.079 1_554 S
O10 C12 1.273 . S
C11 O7 1.246 . S
C11 O8 1.259 . S
C12 O9 1.252 . S
C12 O10 1.273 . S
O13 Mg0 2.010 1_565 S
O13 C5 1.249 . S
Mg14 O15 2.028 1_665 S
Mg14 O21 1.986 1_665 S
Mg14 O23 2.114 . S
Mg14 O24 2.251 1_565 S
Mg14 O27 2.010 . S
O15 Mg14 2.028 1_445 S
O15 C18 1.250 . S
O16 Mg17 2.028 . S
O16 C18 1.248 . S
Mg17 O16 2.028 . S
Mg17 O22 2.032 . S
Mg17 O24 2.079 1_455 S
C18 O15 1.250 . S
C18 O16 1.248 . S
C19 O20 1.264 . S
C19 O27 1.249 . S
O20 C19 1.264 . S
O21 Mg14 1.986 1_445 S
O21 C25 1.246 . S
O22 Mg17 2.032 . S
O22 C25 1.259 . S
O23 Mg14 2.114 . S
O23 C26 1.252 . S
O24 Mg14 2.251 1_545 S
O24 Mg17 2.079 1_655 S
O24 C26 1.273 1_545 S
C25 O21 1.246 . S
C25 O22 1.259 . S
C26 O23 1.252 . S
C26 O24 1.273 1_565 S
O27 Mg14 2.010 . S
O27 C19 1.249 . S
Mg28 O29 2.028 1_565 S
Mg28 O35 1.986 1_465 S
Mg28 O37 2.114 1_455 S
Mg28 O38 2.251 1_455 S
Mg28 O41 2.010 . S
O29 Mg28 2.028 1_545 S
O29 C32 1.250 . S
O30 Mg31 2.028 1_455 S
O30 C32 1.248 . S
Mg31 O30 2.028 1_655 S
Mg31 O36 2.032 . S
Mg31 O38 2.079 1_545 S
C32 O29 1.250 . S
C32 O30 1.248 . S
C33 O34 1.264 . S
C33 O41 1.249 . S
O34 C33 1.264 . S
O35 Mg28 1.986 1_645 S
O35 C39 1.246 . S
O36 Mg31 2.032 . S
O36 C39 1.259 . S
O37 Mg28 2.114 1_655 S
O37 C40 1.252 . S
O38 Mg28 2.251 1_655 S
O38 Mg31 2.079 1_565 S
O38 C40 1.273 . S
C39 O35 1.246 . S
C39 O36 1.259 . S
C40 O37 1.252 . S
C40 O38 1.273 . S
O41 Mg28 2.010 . S
O41 C33 1.249 . S
H42 C69 0.929 . S
N43 C68 1.433 1_655 S
N43 C74 1.435 1_655 S
N43 C80 1.423 . S
H44 C70 0.930 . S
H45 C73 0.931 . S
H46 C72 0.929 . S
H47 C75 0.930 . S
H48 C76 0.932 . S
H49 C79 0.929 . S
H50 C78 0.931 . S
H51 C81 0.929 . S
H52 C85 0.932 . S
H53 C82 0.931 . S
H54 C84 0.929 . S
H55 C87 0.929 . S
H56 C88 0.930 . S
H57 C90 0.929 . S
H58 C91 0.931 . S
H59 C93 0.930 . S
H60 C94 0.932 . S
H61 C96 0.931 . S
H62 C97 0.929 . S
H63 C99 0.929 . S
H64 C100 0.931 . S
H65 C102 0.929 . S
N66 C86 1.433 1_655 S
N66 C92 1.435 1_655 S
N66 C98 1.423 . S
H67 C103 0.932 . S
C68 N43 1.433 1_455 S
C68 C69 1.363 1_455 S
C68 C73 1.370 . S
C69 H42 0.929 . S
C69 C68 1.363 1_655 S
C69 C70 1.385 . S
C70 H44 0.930 . S
C70 C69 1.385 . S
C70 C71 1.357 1_655 S
C71 C70 1.357 1_455 S
C71 C72 1.406 . S
C72 H46 0.929 . S
C72 C71 1.406 . S
C72 C73 1.391 . S
C73 H45 0.931 . S
C73 C68 1.370 . S
C73 C72 1.391 . S
C74 N43 1.435 1_455 S
C74 C75 1.358 . S
C74 C79 1.371 1_455 S
C75 H47 0.930 . S
C75 C74 1.358 . S
C75 C76 1.405 . S
C76 H48 0.932 . S
C76 C75 1.405 . S
C76 C77 1.383 . S
C77 C76 1.383 . S
C77 C78 1.393 1_455 S
C78 H50 0.931 . S
C78 C77 1.393 1_655 S
C78 C79 1.382 . S
C79 H49 0.929 . S
C79 C74 1.371 1_655 S
C79 C78 1.382 . S
C80 N43 1.423 . S
C80 C81 1.362 . S
C80 C85 1.388 1_655 S
C81 H51 0.929 . S
C81 C80 1.362 . S
C81 C82 1.376 . S
C82 H53 0.931 . S
C82 C81 1.376 . S
C82 C83 1.396 . S
C83 C82 1.396 . S
C83 C84 1.348 1_655 S
C83 C101 1.472 . S
C84 H54 0.929 . S
C84 C83 1.348 1_455 S
C84 C85 1.443 . S
C85 H52 0.932 . S
C85 C80 1.388 1_455 S
C85 C84 1.443 . S
C86 N66 1.433 1_455 S
C86 C87 1.363 1_455 S
C86 C91 1.370 . S
C87 H55 0.929 . S
C87 C86 1.363 1_655 S
C87 C88 1.385 . S
C88 H56 0.930 . S
C88 C87 1.385 . S
C88 C89 1.357 1_655 S
C89 C88 1.357 1_455 S
C89 C90 1.406 . S
C90 H57 0.929 . S
C90 C89 1.406 . S
C90 C91 1.391 . S
C91 H58 0.931 . S
C91 C86 1.370 . S
C91 C90 1.391 . S
C92 N66 1.435 1_455 S
C92 C93 1.358 . S
C92 C97 1.371 1_455 S
C93 H59 0.930 . S
C93 C92 1.358 . S
C93 C94 1.405 . S
C94 H60 0.932 . S
C94 C93 1.405 . S
C94 C95 1.383 . S
C95 C94 1.383 . S
C95 C96 1.393 1_455 S
C96 H61 0.931 . S
C96 C95 1.393 1_655 S
C96 C97 1.382 . S
C97 H62 0.929 . S
C97 C92 1.371 1_655 S
C97 C96 1.382 . S
C98 N66 1.423 . S
C98 C99 1.362 . S
C98 C103 1.388 1_655 S
C99 H63 0.929 . S
C99 C98 1.362 . S
C99 C100 1.376 . S
C100 H64 0.931 . S
C100 C99 1.376 . S
C100 C101 1.396 . S
C101 C83 1.472 . S
C101 C100 1.396 . S
C101 C102 1.348 1_655 S
C102 H65 0.929 . S
C102 C101 1.348 1_455 S
C102 C103 1.443 . S
C103 H67 0.932 . S
C103 C98 1.388 1_455 S
C103 C102 1.443 . S
H104 C131 0.929 . S
N105 C130 1.433 . S
N105 C136 1.435 . S
N105 C142 1.423 . S
H106 C132 0.930 . S
H107 C135 0.931 . S
H108 C134 0.927 1_565 S
H109 C137 0.930 1_565 S
H110 C138 0.932 1_565 S
H111 C141 0.929 . S
H112 C140 0.931 . S
H113 C143 0.929 . S
H114 C147 0.932 . S
H115 C144 0.931 . S
H116 C146 0.929 . S
H117 C149 0.929 . S
H118 C150 0.930 . S
H119 C152 0.920 1_565 S
H120 C153 0.931 . S
H121 C155 0.930 1_565 S
H122 C156 0.932 1_565 S
H123 C158 0.931 . S
H124 C159 0.929 . S
H125 C161 0.929 . S
H126 C162 0.931 . S
H127 C164 0.929 . S
N128 C148 1.433 . S
N128 C154 1.435 . S
N128 C160 1.423 . S
H129 C165 0.932 . S
C130 N105 1.433 . S
C130 C131 1.363 . S
C130 C135 1.370 . S
C131 H104 0.929 . S
C131 C130 1.363 . S
C131 C132 1.385 . S
C132 H106 0.930 . S
C132 C131 1.385 . S
C132 C133 1.357 . S
C133 C132 1.357 . S
C133 C134 1.406 . S
C134 H108 0.927 1_545 S
C134 C133 1.406 . S
C134 C135 1.391 . S
C135 H107 0.931 . S
C135 C130 1.370 . S
C135 C134 1.391 . S
C136 N105 1.435 . S
C136 C137 1.358 . S
C136 C141 1.371 . S
C137 H109 0.930 1_545 S
C137 C136 1.358 . S
C137 C138 1.405 . S
C138 H110 0.932 1_545 S
C138 C137 1.405 . S
C138 C139 1.383 . S
C139 C138 1.383 . S
C139 C140 1.393 . S
C140 H112 0.931 . S
C140 C139 1.393 . S
C140 C141 1.382 . S
C141 H111 0.929 . S
C141 C136 1.371 . S
C141 C140 1.382 . S
C142 N105 1.423 . S
C142 C143 1.362 . S
C142 C147 1.388 . S
C143 H113 0.929 . S
C143 C142 1.362 . S
C143 C144 1.376 . S
C144 H115 0.931 . S
C144 C143 1.376 . S
C144 C145 1.396 . S
C145 C144 1.396 . S
C145 C146 1.348 . S
C145 C163 1.472 . S
C146 H116 0.929 . S
C146 C145 1.348 . S
C146 C147 1.443 . S
C147 H114 0.932 . S
C147 C142 1.388 . S
C147 C146 1.443 . S
C148 N128 1.433 . S
C148 C149 1.363 . S
C148 C153 1.370 . S
C149 H117 0.929 . S
C149 C148 1.363 . S
C149 C150 1.385 . S
C150 H118 0.930 . S
C150 C149 1.385 . S
C150 C151 1.357 . S
C151 C150 1.357 . S
C151 C152 1.406 . S
C152 H119 0.920 1_545 S
C152 C151 1.406 . S
C152 C153 1.391 . S
C153 H120 0.931 . S
C153 C148 1.370 . S
C153 C152 1.391 . S
C154 N128 1.435 . S
C154 C155 1.358 . S
C154 C159 1.371 . S
C155 H121 0.930 1_545 S
C155 C154 1.358 . S
C155 C156 1.405 . S
C156 H122 0.932 1_545 S
C156 C155 1.405 . S
C156 C157 1.383 . S
C157 C156 1.383 . S
C157 C158 1.393 . S
C158 H123 0.931 . S
C158 C157 1.393 . S
C158 C159 1.382 . S
C159 H124 0.929 . S
C159 C154 1.371 . S
C159 C158 1.382 . S
C160 N128 1.423 . S
C160 C161 1.362 . S
C160 C165 1.388 . S
C161 H125 0.929 . S
C161 C160 1.362 . S
C161 C162 1.376 . S
C162 H126 0.931 . S
C162 C161 1.376 . S
C162 C163 1.396 . S
C163 C145 1.472 . S
C163 C162 1.396 . S
C163 C164 1.348 . S
C164 H127 0.929 . S
C164 C163 1.348 . S
C164 C165 1.443 . S
C165 H129 0.932 . S
C165 C160 1.388 . S
C165 C164 1.443 . S
H166 C193 0.929 . S
N167 C192 1.433 . S
N167 C198 1.435 . S
N167 C204 1.423 . S
H168 C194 0.930 . S
H169 C197 0.931 . S
H170 C196 0.929 . S
H171 C199 0.930 . S
H172 C200 0.932 . S
H173 C203 0.929 . S
H174 C202 0.931 . S
H175 C205 0.929 . S
H176 C209 0.932 . S
H177 C206 0.931 . S
H178 C208 0.929 . S
H179 C211 0.929 . S
H180 C212 0.930 . S
H181 C214 0.929 . S
H182 C215 0.931 . S
H183 C217 0.930 . S
H184 C218 0.932 . S
H185 C220 0.931 . S
H186 C221 0.929 . S
H187 C223 0.929 . S
H188 C224 0.931 . S
H189 C226 0.929 . S
N190 C210 1.433 . S
N190 C216 1.435 . S
N190 C222 1.423 . S
H191 C227 0.932 . S
C192 N167 1.433 . S
C192 C193 1.363 . S
C192 C197 1.370 . S
C193 H166 0.929 . S
C193 C192 1.363 . S
C193 C194 1.385 . S
C194 H168 0.930 . S
C194 C193 1.385 . S
C194 C195 1.357 . S
C195 C194 1.357 . S
C195 C196 1.406 . S
C196 H170 0.929 . S
C196 C195 1.406 . S
C196 C197 1.391 . S
C197 H169 0.931 . S
C197 C192 1.370 . S
C197 C196 1.391 . S
C198 N167 1.435 . S
C198 C199 1.358 . S
C198 C203 1.371 . S
C199 H171 0.930 . S
C199 C198 1.358 . S
C199 C200 1.405 . S
C200 H172 0.932 . S
C200 C199 1.405 . S
C200 C201 1.383 . S
C201 C200 1.383 . S
C201 C202 1.393 . S
C202 H174 0.931 . S
C202 C201 1.393 . S
C202 C203 1.382 . S
C203 H173 0.929 . S
C203 C198 1.371 . S
C203 C202 1.382 . S
C204 N167 1.423 . S
C204 C205 1.362 . S
C204 C209 1.388 . S
C205 H175 0.929 . S
C205 C204 1.362 . S
C205 C206 1.376 . S
C206 H177 0.931 . S
C206 C205 1.376 . S
C206 C207 1.396 . S
C207 C206 1.396 . S
C207 C208 1.348 . S
C207 C225 1.472 . S
C208 H178 0.929 . S
C208 C207 1.348 . S
C208 C209 1.443 . S
C209 H176 0.932 . S
C209 C204 1.388 . S
C209 C208 1.443 . S
C210 N190 1.433 . S
C210 C211 1.363 . S
C210 C215 1.370 . S
C211 H179 0.929 . S
C211 C210 1.363 . S
C211 C212 1.385 . S
C212 H180 0.930 . S
C212 C211 1.385 . S
C212 C213 1.357 . S
C213 C212 1.357 . S
C213 C214 1.406 . S
C214 H181 0.929 . S
C214 C213 1.406 . S
C214 C215 1.391 . S
C215 H182 0.931 . S
C215 C210 1.370 . S
C215 C214 1.391 . S
C216 N190 1.435 . S
C216 C217 1.358 . S
C216 C221 1.371 . S
C217 H183 0.930 . S
C217 C216 1.358 . S
C217 C218 1.405 . S
C218 H184 0.932 . S
C218 C217 1.405 . S
C218 C219 1.383 . S
C219 C218 1.383 . S
C219 C220 1.393 . S
C220 H185 0.931 . S
C220 C219 1.393 . S
C220 C221 1.382 . S
C221 H186 0.929 . S
C221 C216 1.371 . S
C221 C220 1.382 . S
C222 N190 1.423 . S
C222 C223 1.362 . S
C222 C227 1.388 . S
C223 H187 0.929 . S
C223 C222 1.362 . S
C223 C224 1.376 . S
C224 H188 0.931 . S
C224 C223 1.376 . S
C224 C225 1.396 . S
C225 C207 1.472 . S
C225 C224 1.396 . S
C225 C226 1.348 . S
C226 H189 0.929 . S
C226 C225 1.348 . S
C226 C227 1.443 . S
C227 H191 0.932 . S
C227 C222 1.388 . S
C227 C226 1.443 . S
C228 C229 1.363 . S
C228 C234 1.379 . S
C228 N236 1.356 . S
C229 C228 1.363 . S
C229 C235 1.363 1_455 S
C230 C231 1.363 1_655 S
C230 C235 1.379 . S
C230 N237 1.356 . S
C231 C230 1.363 1_455 S
C231 C234 1.363 . S
N232 C234 1.356 . S
N232 H244 0.984 . S
N232 H245 0.985 . S
N233 C235 1.356 . S
N233 H238 0.984 . S
N233 H239 0.985 . S
C234 C228 1.379 . S
C234 C231 1.363 . S
C234 N232 1.356 . S
C235 C229 1.363 1_655 S
C235 C230 1.379 . S
C235 N233 1.356 . S
N236 C228 1.356 . S
N236 H242 0.984 . S
N236 H243 0.984 . S
N237 C230 1.356 . S
N237 H240 0.984 . S
N237 H241 0.985 . S
H238 N233 0.984 . S
H239 N233 0.985 . S
H240 N237 0.984 . S
H241 N237 0.985 . S
H242 N236 0.984 . S
H243 N236 0.984 . S
H244 N232 0.984 . S
H245 N232 0.985 . S
C246 C247 1.363 1_545 S
C246 C252 1.379 . S
C246 N254 1.356 . S
C247 C246 1.363 1_565 S
C247 C253 1.363 . S
C248 C249 1.363 1_565 S
C248 C253 1.379 . S
C248 N255 1.356 . S
C249 C248 1.363 1_545 S
C249 C252 1.363 . S
N250 C252 1.356 . S
N250 H262 0.984 . S
N250 H263 0.985 . S
N251 C253 1.356 . S
N251 H256 0.984 . S
N251 H257 0.985 . S
C252 C246 1.379 . S
C252 C249 1.363 . S
C252 N250 1.356 . S
C253 C247 1.363 . S
C253 C248 1.379 . S
C253 N251 1.356 . S
N254 C246 1.356 . S
N254 H260 0.984 1_655 S
N254 H261 0.984 . S
N255 C248 1.356 . S
N255 H258 0.984 . S
N255 H259 0.985 . S
H256 N251 0.984 . S
H257 N251 0.985 . S
H258 N255 0.984 . S
H259 N255 0.985 . S
H260 N254 0.984 1_455 S
H261 N254 0.984 . S
H262 N250 0.984 . S
H263 N250 0.985 . S
C264 C265 1.363 . S
C264 C270 1.379 . S
C264 N272 1.356 . S
C265 C264 1.363 . S
C265 C271 1.363 . S
C266 C267 1.363 . S
C266 C271 1.379 . S
C266 N273 1.356 . S
C267 C266 1.363 . S
C267 C270 1.363 . S
N268 C270 1.356 . S
N268 H280 0.984 . S
N268 H281 0.985 . S
N269 C271 1.356 . S
N269 H274 0.984 1_655 S
N269 H275 0.985 1_655 S
C270 C264 1.379 . S
C270 C267 1.363 . S
C270 N268 1.356 . S
C271 C265 1.363 . S
C271 C266 1.379 . S
C271 N269 1.356 . S
N272 C264 1.356 . S
N272 H278 0.984 . S
N272 H279 0.984 . S
N273 C266 1.356 . S
N273 H276 0.984 . S
N273 H277 0.985 . S
H274 N269 0.984 1_455 S
H275 N269 0.985 1_455 S
H276 N273 0.984 . S
H277 N273 0.985 . S
H278 N272 0.984 . S
H279 N272 0.984 . S
H280 N268 0.984 . S
H281 N268 0.985 . S
C282 C283 1.363 . S
C282 C288 1.379 . S
C282 N290 1.356 1_455 S
C283 C282 1.363 . S
C283 C289 1.363 . S
C284 C285 1.363 . S
C284 C289 1.379 . S
C284 N291 1.356 . S
C285 C284 1.363 . S
C285 C288 1.363 . S
N286 C288 1.356 1_655 S
N286 H298 0.984 . S
N286 H299 0.985 . S
N287 C289 1.356 . S
N287 H292 0.984 . S
N287 H293 0.985 . S
C288 C282 1.379 . S
C288 C285 1.363 . S
C288 N286 1.356 1_455 S
C289 C283 1.363 . S
C289 C284 1.379 . S
C289 N287 1.356 . S
N290 C282 1.356 1_655 S
N290 H296 0.984 . S
N290 H297 0.984 1_655 S
N291 C284 1.356 . S
N291 H294 0.984 . S
N291 H295 0.985 . S
H292 N287 0.984 . S
H293 N287 0.985 . S
H294 N291 0.984 . S
H295 N291 0.985 . S
H296 N290 0.984 . S
H297 N290 0.984 1_455 S
H298 N286 0.984 . S
H299 N286 0.985 . S
C300 C301 1.373 . S
C300 C306 1.374 . S
C300 N308 1.356 1_545 S
C301 C300 1.373 . S
C301 C307 1.363 . S
C302 C303 1.363 . S
C302 C307 1.379 . S
C302 N309 1.356 . S
C303 C302 1.363 . S
C303 C306 1.364 . S
N304 C306 1.354 1_565 S
N304 H316 0.984 . S
N304 H317 0.985 . S
N305 C307 1.356 . S
N305 H310 0.984 . S
N305 H311 0.985 . S
C306 C300 1.374 . S
C306 C303 1.364 . S
C306 N304 1.354 1_545 S
C307 C301 1.363 . S
C307 C302 1.379 . S
C307 N305 1.356 . S
N308 C300 1.356 1_565 S
N308 H314 0.984 . S
N308 H315 0.984 . S
N309 C302 1.356 . S
N309 H312 0.984 . S
N309 H313 0.985 . S
H310 N305 0.984 . S
H311 N305 0.985 . S
H312 N309 0.984 . S
H313 N309 0.985 . S
H314 N308 0.984 . S
H315 N308 0.984 . S
H316 N304 0.984 . S
H317 N304 0.985 . S
C318 C319 1.363 . S
C318 C324 1.379 . S
C318 N326 1.356 . S
C319 C318 1.363 . S
C319 C325 1.363 . S
C320 C321 1.363 . S
C320 C325 1.379 . S
C320 N327 1.356 . S
C321 C320 1.363 . S
C321 C324 1.363 . S
N322 C324 1.356 . S
N322 H334 0.984 . S
N322 H335 0.985 . S
N323 C325 1.356 . S
N323 H328 0.984 . S
N323 H329 0.985 . S
C324 C318 1.379 . S
C324 C321 1.363 . S
C324 N322 1.356 . S
C325 C319 1.363 . S
C325 C320 1.379 . S
C325 N323 1.356 . S
N326 C318 1.356 . S
N326 H332 0.984 . S
N326 H333 0.984 . S
N327 C320 1.356 . S
N327 H330 0.984 . S
N327 H331 0.985 . S
H328 N323 0.984 . S
H329 N323 0.985 . S
H330 N327 0.984 . S
H331 N327 0.985 . S
H332 N326 0.984 . S
H333 N326 0.984 . S
H334 N322 0.984 . S
H335 N322 0.985 . S
C336 C337 1.363 . S
C336 C342 1.379 . S
C336 N344 1.356 1_545 S
C337 C336 1.363 . S
C337 C343 1.363 . S
C338 C339 1.363 . S
C338 C343 1.379 . S
C338 N345 1.356 . S
C339 C338 1.363 . S
C339 C342 1.363 . S
N340 C342 1.356 1_565 S
N340 H352 0.984 . S
N340 H353 0.985 . S
N341 C343 1.356 . S
N341 H346 0.984 . S
N341 H347 0.985 . S
C342 C336 1.379 . S
C342 C339 1.363 . S
C342 N340 1.356 1_545 S
C343 C337 1.363 . S
C343 C338 1.379 . S
C343 N341 1.356 . S
N344 C336 1.356 1_565 S
N344 H350 0.984 . S
N344 H351 0.984 . S
N345 C338 1.356 . S
N345 H348 0.984 . S
N345 H349 0.985 . S
H346 N341 0.984 . S
H347 N341 0.985 . S
H348 N345 0.984 . S
H349 N345 0.985 . S
H350 N344 0.984 . S
H351 N344 0.984 . S
H352 N340 0.984 . S
H353 N340 0.985 . S
C354 C355 1.363 . S
C354 C360 1.379 . S
C354 N362 1.356 . S
C355 C354 1.363 . S
C355 C361 1.363 . S
C356 C357 1.363 . S
C356 C361 1.379 . S
C356 N363 1.356 . S
C357 C356 1.363 . S
C357 C360 1.363 . S
N358 C360 1.356 . S
N358 H370 0.984 . S
N358 H371 0.985 . S
N359 C361 1.356 1_554 S
N359 H364 0.984 . S
N359 H365 0.985 . S
C360 C354 1.379 . S
C360 C357 1.363 . S
C360 N358 1.356 . S
C361 C355 1.363 . S
C361 C356 1.379 . S
C361 N359 1.356 1_556 S
N362 C354 1.356 . S
N362 H368 0.984 . S
N362 H369 0.985 . S
N363 C356 1.356 . S
N363 H366 0.984 . S
N363 H367 0.985 . S
H364 N359 0.984 . S
H365 N359 0.985 . S
H366 N363 0.984 . S
H367 N363 0.985 . S
H368 N362 0.984 . S
H369 N362 0.985 . S
H370 N358 0.984 . S
H371 N358 0.985 . S
C372 C373 1.363 1_455 S
C372 C378 1.379 . S
C372 N380 1.356 . S
C373 C372 1.363 1_655 S
C373 C379 1.363 . S
C374 C375 1.363 1_655 S
C374 C379 1.379 . S
C374 N381 1.356 . S
C375 C374 1.363 1_455 S
C375 C378 1.363 . S
N376 C378 1.356 . S
N376 H388 0.984 . S
N376 H389 0.985 . S
N377 C379 1.356 . S
N377 H382 0.984 . S
N377 H383 0.985 . S
C378 C372 1.379 . S
C378 C375 1.363 . S
C378 N376 1.356 . S
C379 C373 1.363 . S
C379 C374 1.379 . S
C379 N377 1.356 . S
N380 C372 1.356 . S
N380 H386 0.984 . S
N380 H387 0.984 . S
N381 C374 1.356 . S
N381 H384 0.984 . S
N381 H385 0.985 . S
H382 N377 0.984 . S
H383 N377 0.985 . S
H384 N381 0.984 . S
H385 N381 0.985 . S
H386 N380 0.984 . S
H387 N380 0.984 . S
H388 N376 0.984 . S
H389 N376 0.985 . S
C390 C391 1.363 1_545 S
C390 C396 1.379 . S
C390 N398 1.356 . S
C391 C390 1.363 1_565 S
C391 C397 1.363 . S
C392 C393 1.363 1_565 S
C392 C397 1.379 . S
C392 N399 1.356 . S
C393 C392 1.363 1_545 S
C393 C396 1.363 . S
N394 C396 1.356 . S
N394 H406 0.984 . S
N394 H407 0.985 . S
N395 C397 1.356 . S
N395 H400 0.984 . S
N395 H401 0.985 . S
C396 C390 1.379 . S
C396 C393 1.363 . S
C396 N394 1.356 . S
C397 C391 1.363 . S
C397 C392 1.379 . S
C397 N395 1.356 . S
N398 C390 1.356 . S
N398 H404 0.984 . S
N398 H405 0.984 . S
N399 C392 1.356 . S
N399 H402 0.984 . S
N399 H403 0.985 . S
H400 N395 0.984 . S
H401 N395 0.985 . S
H402 N399 0.984 . S
H403 N399 0.985 . S
H404 N398 0.984 . S
H405 N398 0.984 . S
H406 N394 0.984 . S
H407 N394 0.985 . S
C408 C409 1.363 . S
C408 C414 1.379 . S
C408 N416 1.356 1_556 S
C409 C408 1.363 . S
C409 C415 1.363 . S
C410 C411 1.363 . S
C410 C415 1.379 . S
C410 N417 1.356 . S
C411 C410 1.363 . S
C411 C414 1.363 . S
N412 C414 1.356 . S
N412 H424 0.984 1_556 S
N412 H425 0.985 . S
N413 C415 1.356 . S
N413 H418 0.984 . S
N413 H419 0.985 . S
C414 C408 1.379 . S
C414 C411 1.363 . S
C414 N412 1.356 . S
C415 C409 1.363 . S
C415 C410 1.379 . S
C415 N413 1.356 . S
N416 C408 1.356 1_554 S
N416 H422 0.984 . S
N416 H423 0.984 . S
N417 C410 1.356 . S
N417 H420 0.984 . S
N417 H421 0.985 . S
H418 N413 0.984 . S
H419 N413 0.985 . S
H420 N417 0.984 . S
H421 N417 0.985 . S
H422 N416 0.984 . S
H423 N416 0.984 . S
H424 N412 0.984 1_554 S
H425 N412 0.985 . S
C426 C427 1.363 . S
C426 C432 1.379 . S
C426 N434 1.356 . S
C427 C426 1.363 . S
C427 C433 1.363 . S
C428 C429 1.363 . S
C428 C433 1.379 . S
C428 N435 1.373 . S
C429 C428 1.363 . S
C429 C432 1.363 . S
N430 C432 1.356 . S
N430 H442 0.984 . S
N430 H443 0.985 . S
N431 C433 1.356 . S
N431 H436 0.984 . S
N431 H437 0.985 . S
C432 C426 1.379 . S
C432 C429 1.363 . S
C432 N430 1.356 . S
C433 C427 1.363 . S
C433 C428 1.379 . S
C433 N431 1.356 . S
N434 C426 1.356 . S
N434 H440 0.984 . S
N434 H441 0.984 . S
N435 C428 1.373 . S
N435 H438 0.976 1_455 S
N435 H439 0.977 1_455 S
H436 N431 0.984 . S
H437 N431 0.985 . S
H438 N435 0.976 1_655 S
H439 N435 0.977 1_655 S
H440 N434 0.984 . S
H441 N434 0.984 . S
H442 N430 0.984 . S
H443 N430 0.985 . S
C231 C95 1.330 . S
C229 C11 1.328 . S
C247 C26 1.483 . S
C249 C139 1.509 . S
C265 C40 1.391 . S
C267 C201 1.415 . S
C283 C5 1.175 . S
C285 C77 1.346 . S
C303 C157 1.464 . S
C301 C18 1.432 . S
C319 C32 1.340 . S
C321 C219 1.376 . S
C339 C133 1.390 . S
C337 C39 1.458 . S
C355 C4 1.636 1_556 S
C357 C195 1.520 . S
C375 C71 1.506 . S
C373 C19 1.515 . S
C393 C151 1.468 . S
C391 C33 1.435 . S
C411 C213 1.565 . S
C409 C12 1.644 1_556 S
C427 C25 1.576 . S
C429 C89 1.518 . S
