# Generated by pormake.
# Topology eea, (3,6)-cn, num edge types: 1
# Building blocks:
#     Node 0, Type 0, BuildingBlock: MIDCAF_clean_linker_0, # of connection points: 3
#     Node 1, Type 0, BuildingBlock: MIDCAF_clean_linker_0, # of connection points: 3
#     Node 2, Type 0, BuildingBlock: MIDCAF_clean_linker_0, # of connection points: 3
#     Node 3, Type 0, BuildingBlock: MIDCAF_clean_linker_0, # of connection points: 3
#     Node 4, Type 0, BuildingBlock: MIDCAF_clean_linker_0, # of connection points: 3
#     Node 5, Type 0, BuildingBlock: MIDCAF_clean_linker_0, # of connection points: 3
#     Node 6, Type 0, BuildingBlock: MIDCAF_clean_linker_0, # of connection points: 3
#     Node 7, Type 0, BuildingBlock: MIDCAF_clean_linker_0, # of connection points: 3
#     Node 8, Type 0, BuildingBlock: MIDCAF_clean_linker_0, # of connection points: 3
#     Node 9, Type 0, BuildingBlock: MIDCAF_clean_linker_0, # of connection points: 3
#     Node 10, Type 0, BuildingBlock: MIDCAF_clean_linker_0, # of connection points: 3
#     Node 11, Type 0, BuildingBlock: MIDCAF_clean_linker_0, # of connection points: 3
#     Node 12, Type 0, BuildingBlock: MIDCAF_clean_linker_0, # of connection points: 3
#     Node 13, Type 0, BuildingBlock: MIDCAF_clean_linker_0, # of connection points: 3
#     Node 14, Type 0, BuildingBlock: MIDCAF_clean_linker_0, # of connection points: 3
#     Node 15, Type 0, BuildingBlock: MIDCAF_clean_linker_0, # of connection points: 3
#     Node 16, Type 0, BuildingBlock: MIDCAF_clean_linker_0, # of connection points: 3
#     Node 17, Type 0, BuildingBlock: MIDCAF_clean_linker_0, # of connection points: 3
#     Node 18, Type 1, BuildingBlock: CUWYAW_clean_sbu_0, # of connection points: 6
#     Node 19, Type 1, BuildingBlock: CUWYAW_clean_sbu_0, # of connection points: 6
#     Node 20, Type 1, BuildingBlock: CUWYAW_clean_sbu_0, # of connection points: 6
#     Node 21, Type 1, BuildingBlock: CUWYAW_clean_sbu_0, # of connection points: 6
#     Node 22, Type 1, BuildingBlock: CUWYAW_clean_sbu_0, # of connection points: 6
#     Node 23, Type 1, BuildingBlock: CUWYAW_clean_sbu_0, # of connection points: 6
#     Node 24, Type 1, BuildingBlock: CUWYAW_clean_sbu_0, # of connection points: 6
#     Node 25, Type 1, BuildingBlock: CUWYAW_clean_sbu_0, # of connection points: 6
#     Node 26, Type 1, BuildingBlock: CUWYAW_clean_sbu_0, # of connection points: 6
#     Edge 27, Type (0, 1), None
#     Edge 28, Type (0, 1), None
#     Edge 29, Type (0, 1), None
#     Edge 30, Type (0, 1), None
#     Edge 31, Type (0, 1), None
#     Edge 32, Type (0, 1), None
#     Edge 33, Type (0, 1), None
#     Edge 34, Type (0, 1), None
#     Edge 35, Type (0, 1), None
#     Edge 36, Type (0, 1), None
#     Edge 37, Type (0, 1), None
#     Edge 38, Type (0, 1), None
#     Edge 39, Type (0, 1), None
#     Edge 40, Type (0, 1), None
#     Edge 41, Type (0, 1), None
#     Edge 42, Type (0, 1), None
#     Edge 43, Type (0, 1), None
#     Edge 44, Type (0, 1), None
#     Edge 45, Type (0, 1), None
#     Edge 46, Type (0, 1), None
#     Edge 47, Type (0, 1), None
#     Edge 48, Type (0, 1), None
#     Edge 49, Type (0, 1), None
#     Edge 50, Type (0, 1), None
#     Edge 51, Type (0, 1), None
#     Edge 52, Type (0, 1), None
#     Edge 53, Type (0, 1), None
#     Edge 54, Type (0, 1), None
#     Edge 55, Type (0, 1), None
#     Edge 56, Type (0, 1), None
#     Edge 57, Type (0, 1), None
#     Edge 58, Type (0, 1), None
#     Edge 59, Type (0, 1), None
#     Edge 60, Type (0, 1), None
#     Edge 61, Type (0, 1), None
#     Edge 62, Type (0, 1), None
#     Edge 63, Type (0, 1), None
#     Edge 64, Type (0, 1), None
#     Edge 65, Type (0, 1), None
#     Edge 66, Type (0, 1), None
#     Edge 67, Type (0, 1), None
#     Edge 68, Type (0, 1), None
#     Edge 69, Type (0, 1), None
#     Edge 70, Type (0, 1), None
#     Edge 71, Type (0, 1), None
#     Edge 72, Type (0, 1), None
#     Edge 73, Type (0, 1), None
#     Edge 74, Type (0, 1), None
#     Edge 75, Type (0, 1), None
#     Edge 76, Type (0, 1), None
#     Edge 77, Type (0, 1), None
#     Edge 78, Type (0, 1), None
#     Edge 79, Type (0, 1), None
#     Edge 80, Type (0, 1), None
# Relax obj value: 0.034
# Max RMSD: 0.130
# Mean RMSD: 0.113
data_MOF--net-eea--node1-CUWYAW_clean_sbu_0--node2-MIDCAF_clean_linker_0--edge1-none
_symmetry_space_group_name_H-M    P1
_symmetry_Int_Tables_number       1
_symmetry_cell_setting            triclinic
loop_
_symmetry_equiv_pos_as_xyz
'x, y, z'
_cell_length_a     33.497243
_cell_length_b     33.038618
_cell_length_c     56.178431
_cell_angle_alpha  93.239326
_cell_angle_beta   92.67917
_cell_angle_gamma 119.97816
loop_
_atom_site_label
_atom_site_type_symbol
_atom_site_fract_x
_atom_site_fract_y
_atom_site_fract_z
_atom_type_partial_charge
C0 C 0.21343 0.97167 0.37544 0.0
C1 C 0.17118 0.94669 0.36127 0.0
C2 C 0.13997 0.96331 0.36136 0.0
C3 C 0.15105 0.00457 0.37515 0.0
H4 H 0.12133 0.11688 0.38126 0.0
H5 H 0.10311 0.16428 0.35622 0.0
H6 H 0.23498 0.28637 0.38047 0.0
H7 H 0.25267 0.23887 0.4063 0.0
H8 H 0.23892 0.18131 0.47572 0.0
H9 H 0.26916 0.18754 0.51708 0.0
H10 H 0.33059 0.10513 0.49468 0.0
H11 H 0.29926 0.09769 0.45379 0.0
H12 H 0.25692 0.03117 0.40047 0.0
H13 H 0.23855 0.9602 0.37524 0.0
H14 H 0.10718 0.94476 0.35055 0.0
H15 H 0.12657 0.01693 0.3747 0.0
N16 N 0.19071 0.10197 0.39468 0.0
N17 N 0.22769 0.15633 0.42839 0.0
N18 N 0.23083 0.0867 0.42465 0.0
C19 C 0.20217 0.14343 0.40687 0.0
C20 C 0.24176 0.12762 0.43744 0.0
C21 C 0.20515 0.07366 0.40335 0.0
C22 C 0.18838 0.17431 0.39566 0.0
C23 C 0.14598 0.15409 0.38165 0.0
C24 C 0.13567 0.18116 0.36723 0.0
C25 C 0.16788 0.22884 0.36623 0.0
C26 C 0.20952 0.24968 0.381 0.0
C27 C 0.21953 0.22265 0.39585 0.0
C28 C 0.26619 0.13848 0.46158 0.0
C29 C 0.25953 0.16522 0.47964 0.0
C30 C 0.27688 0.16878 0.50333 0.0
C31 C 0.30151 0.14601 0.50929 0.0
C32 C 0.31058 0.1219 0.49087 0.0
C33 C 0.29289 0.11792 0.46737 0.0
C34 C 0.1931 0.02934 0.3895 0.0
C35 C 0.22401 0.01232 0.38977 0.0
C36 C 0.03568 0.25965 0.39811 0.0
C37 C 0.03546 0.25847 0.37296 0.0
C38 C 0.99386 0.22856 0.35901 0.0
C39 C 0.95411 0.19868 0.36984 0.0
H40 H 0.87703 0.04074 0.37064 0.0
H41 H 0.82962 0.96593 0.34656 0.0
H42 H 0.70641 0.95761 0.37223 0.0
H43 H 0.7543 0.03109 0.39766 0.0
H44 H 0.80253 0.06251 0.46206 0.0
H45 H 0.78481 0.06727 0.50302 0.0
H46 H 0.89388 0.21233 0.51328 0.0
H47 H 0.91171 0.20792 0.47173 0.0
H48 H 0.99726 0.23034 0.4283 0.0
H49 H 0.06713 0.28253 0.40944 0.0
H50 H 0.99229 0.22687 0.33966 0.0
H51 H 0.92302 0.17501 0.35843 0.0
N52 N 0.88544 0.12081 0.39197 0.0
N53 N 0.83972 0.09112 0.4238 0.0
N54 N 0.90582 0.16648 0.42883 0.0
C55 C 0.84829 0.08572 0.40088 0.0
C56 C 0.86831 0.1312 0.43802 0.0
C57 C 0.91411 0.16144 0.4056 0.0
C58 C 0.81917 0.04123 0.38607 0.0
C59 C 0.83981 0.02266 0.37124 0.0
C60 C 0.81272 0.9799 0.35751 0.0
C61 C 0.76444 0.95561 0.35792 0.0
C62 C 0.74365 0.97495 0.37217 0.0
C63 C 0.77091 0.01702 0.38655 0.0
C64 C 0.85859 0.13494 0.4634 0.0
C65 C 0.823 0.0956 0.47289 0.0
C66 C 0.81297 0.09813 0.49656 0.0
C67 C 0.83806 0.14007 0.51151 0.0
C68 C 0.87373 0.17955 0.50216 0.0
C69 C 0.88405 0.17696 0.47837 0.0
C70 C 0.95478 0.19816 0.3949 0.0
C71 C 0.99562 0.22993 0.40898 0.0
C72 C 0.75937 0.78925 0.40026 0.0
C73 C 0.75768 0.79092 0.37531 0.0
C74 C 0.78618 0.7799 0.36215 0.0
C75 C 0.81625 0.76811 0.37374 0.0
H76 H 0.92452 0.74462 0.36297 0.0
H77 H 0.99346 0.76431 0.3424 0.0
H78 H 0.06998 0.78386 0.41028 0.0
H79 H 0.0008 0.76385 0.43088 0.0
H80 H 0.90638 0.6835 0.47021 0.0
H81 H 0.88748 0.65648 0.51012 0.0
H82 H 0.81063 0.72882 0.51722 0.0
H83 H 0.82918 0.75558 0.47765 0.0
H84 H 0.78962 0.77624 0.43108 0.0
H85 H 0.73768 0.79734 0.41091 0.0
H86 H 0.78572 0.78095 0.3429 0.0
H87 H 0.838 0.76012 0.36309 0.0
N88 N 0.88605 0.75652 0.39975 0.0
N89 N 0.91193 0.73624 0.43422 0.0
N90 N 0.84601 0.74413 0.43405 0.0
C91 C 0.91699 0.74743 0.41112 0.0
C92 C 0.87617 0.73436 0.44574 0.0
C93 C 0.85058 0.75504 0.41107 0.0
C94 C 0.95725 0.75308 0.39863 0.0
C95 C 0.95591 0.75257 0.37351 0.0
C96 C 0.99543 0.76374 0.36167 0.0
C97 C 0.03737 0.77621 0.37468 0.0
C98 C 0.03827 0.77482 0.39971 0.0
C99 C 0.99855 0.76307 0.41154 0.0
C100 C 0.86905 0.72141 0.47068 0.0
C101 C 0.88595 0.69406 0.48044 0.0
C102 C 0.8749 0.67836 0.50319 0.0
C103 C 0.84746 0.69044 0.51674 0.0
C104 C 0.8321 0.71922 0.50731 0.0
C105 C 0.84253 0.73428 0.48453 0.0
C106 C 0.81804 0.76655 0.39871 0.0
C107 C 0.78903 0.77694 0.41182 0.0
C108 C 0.96144 0.22294 0.61775 0.0
C109 C 0.96251 0.22193 0.6428 0.0
C110 C 0.00448 0.23442 0.65578 0.0
C111 C 0.04389 0.24528 0.64388 0.0
H112 H 0.16134 0.23663 0.65403 0.0
H113 H 0.21364 0.21572 0.6741 0.0
H114 H 0.26182 0.19996 0.60603 0.0
H115 H 0.20982 0.22114 0.58597 0.0
H116 H 0.17018 0.24205 0.53948 0.0
H117 H 0.18845 0.26889 0.49991 0.0
H118 H 0.11139 0.34097 0.50729 0.0
H119 H 0.09278 0.31388 0.5472 0.0
H120 H 0.99867 0.23339 0.58652 0.0
H121 H 0.92969 0.21384 0.60721 0.0
H122 H 0.00655 0.23411 0.67506 0.0
H123 H 0.07532 0.25327 0.65439 0.0
N124 N 0.11344 0.24075 0.6175 0.0
N125 N 0.15332 0.25312 0.58313 0.0
N126 N 0.08753 0.26123 0.58311 0.0
C127 C 0.14881 0.24214 0.60611 0.0
C128 C 0.12319 0.26303 0.57153 0.0
C129 C 0.08254 0.24998 0.6062 0.0
C130 C 0.18134 0.23052 0.61839 0.0
C131 C 0.18312 0.22876 0.64334 0.0
C132 C 0.21321 0.21692 0.65487 0.0
C133 C 0.24176 0.20607 0.64165 0.0
C134 C 0.24009 0.20792 0.61672 0.0
C135 C 0.21039 0.22028 0.60523 0.0
C136 C 0.13023 0.27608 0.5466 0.0
C137 C 0.15673 0.26331 0.53267 0.0
C138 C 0.16699 0.27842 0.50989 0.0
C139 C 0.15149 0.30714 0.50053 0.0
C140 C 0.12409 0.31913 0.51416 0.0
C141 C 0.1132 0.30339 0.53692 0.0
C142 C 0.04239 0.24448 0.61875 0.0
C143 C 0.00105 0.23442 0.60587 0.0
C144 C 0.78937 0.74906 0.63614 0.0
C145 C 0.83071 0.76966 0.65116 0.0
C146 C 0.86297 0.81741 0.65045 0.0
C147 C 0.85301 0.84477 0.63608 0.0
H148 H 0.87333 0.98214 0.64303 0.0
H149 H 0.89271 0.0542 0.66727 0.0
H150 H 0.76232 0.04008 0.64178 0.0
H151 H 0.74398 0.96923 0.61645 0.0
H152 H 0.7038 0.90478 0.56278 0.0
H153 H 0.6728 0.89701 0.52181 0.0
H154 H 0.72954 0.80965 0.50052 0.0
H155 H 0.7596 0.81635 0.54197 0.0
H156 H 0.74681 0.76035 0.61068 0.0
H157 H 0.76389 0.71231 0.63642 0.0
H158 H 0.89531 0.83411 0.66165 0.0
H159 H 0.87771 0.88201 0.63669 0.0
N160 N 0.80912 0.89744 0.62274 0.0
N161 N 0.76981 0.91325 0.59257 0.0
N162 N 0.77231 0.84326 0.58896 0.0
C163 C 0.79516 0.92604 0.61397 0.0
C164 C 0.75873 0.87227 0.5798 0.0
C165 C 0.79751 0.85592 0.61056 0.0
C166 C 0.80729 0.97038 0.62783 0.0
C167 C 0.84906 0.99477 0.64242 0.0
C168 C 0.86014 0.03597 0.65626 0.0
C169 C 0.82918 0.0529 0.65617 0.0
C170 C 0.78723 0.02835 0.64173 0.0
C171 C 0.77667 0.98777 0.62735 0.0
C172 C 0.73461 0.8616 0.55557 0.0
C173 C 0.70927 0.88345 0.54944 0.0
C174 C 0.69176 0.87927 0.52588 0.0
C175 C 0.69956 0.85358 0.50775 0.0
C176 C 0.72285 0.82965 0.51406 0.0
C177 C 0.74008 0.83348 0.5378 0.0
C178 C 0.81091 0.8248 0.62182 0.0
C179 C 0.77972 0.77641 0.62134 0.0
C180 C 0.25595 0.02174 0.645 0.0
C181 C 0.23512 0.04107 0.65922 0.0
C182 C 0.18688 0.01656 0.65977 0.0
C183 C 0.15986 0.97357 0.64623 0.0
H184 H 0.07515 0.82197 0.659 0.0
H185 H 0.00552 0.77069 0.67764 0.0
H186 H 0.93114 0.71515 0.60775 0.0
H187 H 0.00149 0.76679 0.589 0.0
H188 H 0.07715 0.799 0.54244 0.0
H189 H 0.09587 0.7964 0.50092 0.0
H190 H 0.23295 0.91476 0.52021 0.0
H191 H 0.2143 0.91801 0.56106 0.0
H192 H 0.24545 0.96533 0.61976 0.0
H193 H 0.29318 0.0393 0.64479 0.0
H194 H 0.16996 0.03055 0.67069 0.0
H195 H 0.12266 0.95538 0.64693 0.0
N196 N 0.11341 0.8758 0.62544 0.0
N197 N 0.09414 0.82911 0.58895 0.0
N198 N 0.1612 0.90379 0.59424 0.0
C199 C 0.08485 0.83503 0.61189 0.0
C200 C 0.13276 0.86356 0.5801 0.0
C201 C 0.15147 0.91018 0.61678 0.0
C202 C 0.04369 0.79884 0.62248 0.0
C203 C 0.04407 0.79848 0.64754 0.0
C204 C 0.00412 0.76893 0.65829 0.0
C205 C 0.96257 0.73918 0.64427 0.0
C206 C 0.96257 0.73791 0.61912 0.0
C207 C 0.00287 0.76729 0.60832 0.0
C208 C 0.14399 0.85894 0.55514 0.0
C209 C 0.11132 0.82428 0.53779 0.0
C210 C 0.12208 0.82277 0.514 0.0
C211 C 0.16574 0.85583 0.50711 0.0
C212 C 0.1986 0.88953 0.52465 0.0
C213 C 0.18789 0.89115 0.54824 0.0
C214 C 0.18053 0.95492 0.63145 0.0
C215 C 0.22876 0.97937 0.63084 0.0
C216 C 0.8801 0.305 0.70878 0.0
C217 C 0.83784 0.28002 0.69461 0.0
C218 C 0.80664 0.29664 0.69469 0.0
C219 C 0.81772 0.3379 0.70848 0.0
H220 H 0.788 0.45021 0.71459 0.0
H221 H 0.76977 0.49761 0.68955 0.0
H222 H 0.90165 0.6197 0.7138 0.0
H223 H 0.91934 0.5722 0.73963 0.0
H224 H 0.90558 0.51464 0.80905 0.0
H225 H 0.93583 0.52087 0.85041 0.0
H226 H 0.99726 0.43847 0.82801 0.0
H227 H 0.96593 0.43102 0.78713 0.0
H228 H 0.92358 0.3645 0.7338 0.0
H229 H 0.90521 0.29353 0.70857 0.0
H230 H 0.77385 0.27809 0.68388 0.0
H231 H 0.79324 0.35026 0.70803 0.0
N232 N 0.85737 0.4353 0.72801 0.0
N233 N 0.89435 0.48966 0.76172 0.0
N234 N 0.8975 0.42003 0.75799 0.0
C235 C 0.86884 0.47676 0.7402 0.0
C236 C 0.90842 0.46095 0.77077 0.0
C237 C 0.87181 0.40699 0.73668 0.0
C238 C 0.85505 0.50764 0.729 0.0
C239 C 0.81265 0.48742 0.71499 0.0
C240 C 0.80234 0.51449 0.70057 0.0
C241 C 0.83454 0.56216 0.69956 0.0
C242 C 0.87618 0.58301 0.71434 0.0
C243 C 0.88619 0.55598 0.72918 0.0
C244 C 0.93285 0.47181 0.79492 0.0
C245 C 0.92619 0.49855 0.81297 0.0
C246 C 0.94354 0.50211 0.83666 0.0
C247 C 0.96818 0.47934 0.84262 0.0
C248 C 0.97724 0.45523 0.8242 0.0
C249 C 0.95956 0.45126 0.8007 0.0
C250 C 0.85976 0.36267 0.72283 0.0
C251 C 0.89068 0.34565 0.7231 0.0
C252 C 0.70234 0.59298 0.73145 0.0
C253 C 0.70212 0.5918 0.7063 0.0
C254 C 0.66053 0.56188 0.69235 0.0
C255 C 0.62078 0.532 0.70317 0.0
H256 H 0.5437 0.37406 0.70397 0.0
H257 H 0.49629 0.29925 0.6799 0.0
H258 H 0.37308 0.29094 0.70556 0.0
H259 H 0.42097 0.36442 0.731 0.0
H260 H 0.46923 0.39583 0.7954 0.0
H261 H 0.45151 0.40059 0.83637 0.0
H262 H 0.56053 0.54568 0.84661 0.0
H263 H 0.57836 0.54126 0.80506 0.0
H264 H 0.66393 0.56367 0.76164 0.0
H265 H 0.7338 0.61586 0.74277 0.0
H266 H 0.65896 0.56019 0.67299 0.0
H267 H 0.58969 0.50833 0.69177 0.0
N268 N 0.55211 0.45413 0.7253 0.0
N269 N 0.50639 0.42445 0.75714 0.0
N270 N 0.57249 0.49981 0.76217 0.0
C271 C 0.51496 0.41905 0.73422 0.0
C272 C 0.53498 0.46453 0.77136 0.0
C273 C 0.58078 0.49477 0.73893 0.0
C274 C 0.48584 0.37455 0.71941 0.0
C275 C 0.50648 0.35599 0.70457 0.0
C276 C 0.47939 0.31323 0.69085 0.0
C277 C 0.43111 0.28893 0.69126 0.0
C278 C 0.41032 0.30827 0.70551 0.0
C279 C 0.43758 0.35035 0.71989 0.0
C280 C 0.52527 0.46827 0.79673 0.0
C281 C 0.48969 0.42893 0.80623 0.0
C282 C 0.47966 0.43145 0.8299 0.0
C283 C 0.50473 0.4734 0.84485 0.0
C284 C 0.54039 0.51289 0.83549 0.0
C285 C 0.55071 0.5103 0.81171 0.0
C286 C 0.62145 0.53148 0.72823 0.0
C287 C 0.66229 0.56326 0.74232 0.0
C288 C 0.42603 0.12258 0.73359 0.0
C289 C 0.42435 0.12425 0.70864 0.0
C290 C 0.45284 0.11323 0.69548 0.0
C291 C 0.48291 0.10143 0.70707 0.0
H292 H 0.59119 0.07795 0.6963 0.0
H293 H 0.66013 0.09764 0.67573 0.0
H294 H 0.73665 0.11719 0.74361 0.0
H295 H 0.66746 0.09718 0.76421 0.0
H296 H 0.57305 0.01683 0.80355 0.0
H297 H 0.55416 0.98982 0.84346 0.0
H298 H 0.47729 0.06216 0.85055 0.0
H299 H 0.49584 0.08891 0.81099 0.0
H300 H 0.45629 0.10956 0.76441 0.0
H301 H 0.40434 0.13067 0.74424 0.0
H302 H 0.45239 0.11428 0.67624 0.0
H303 H 0.50466 0.09345 0.69642 0.0
N304 N 0.55272 0.08985 0.73308 0.0
N305 N 0.5786 0.06958 0.76756 0.0
N306 N 0.51268 0.07746 0.76738 0.0
C307 C 0.58366 0.08076 0.74446 0.0
C308 C 0.54284 0.0677 0.77907 0.0
C309 C 0.51724 0.08837 0.7444 0.0
C310 C 0.62392 0.08641 0.73196 0.0
C311 C 0.62258 0.08591 0.70685 0.0
C312 C 0.6621 0.09707 0.695 0.0
C313 C 0.70403 0.10954 0.70801 0.0
C314 C 0.70494 0.10815 0.73304 0.0
C315 C 0.66521 0.09641 0.74488 0.0
C316 C 0.53571 0.05475 0.80401 0.0
C317 C 0.55262 0.0274 0.81377 0.0
C318 C 0.54157 0.0117 0.83653 0.0
C319 C 0.51413 0.02378 0.85008 0.0
C320 C 0.49877 0.05255 0.84064 0.0
C321 C 0.50919 0.06761 0.81786 0.0
C322 C 0.48471 0.09988 0.73204 0.0
C323 C 0.45569 0.11026 0.74515 0.0
C324 C 0.6281 0.55627 0.95108 0.0
C325 C 0.62918 0.55527 0.97613 0.0
C326 C 0.67115 0.56775 0.98911 0.0
C327 C 0.71056 0.57862 0.97721 0.0
H328 H 0.82801 0.56997 0.98737 0.0
H329 H 0.88031 0.54907 0.00743 0.0
H330 H 0.92848 0.53329 0.93936 0.0
H331 H 0.87648 0.55447 0.91931 0.0
H332 H 0.83684 0.57538 0.87282 0.0
H333 H 0.85511 0.60222 0.83324 0.0
H334 H 0.77806 0.6743 0.84062 0.0
H335 H 0.75944 0.64721 0.88053 0.0
H336 H 0.66533 0.56673 0.91986 0.0
H337 H 0.59635 0.54718 0.94054 0.0
H338 H 0.67322 0.56745 0.00839 0.0
H339 H 0.74199 0.58661 0.98772 0.0
N340 N 0.78011 0.57409 0.95083 0.0
N341 N 0.81998 0.58645 0.91647 0.0
N342 N 0.7542 0.59456 0.91644 0.0
C343 C 0.81548 0.57547 0.93944 0.0
C344 C 0.78985 0.59636 0.90486 0.0
C345 C 0.74921 0.58332 0.93953 0.0
C346 C 0.84801 0.56386 0.95172 0.0
C347 C 0.84979 0.5621 0.97667 0.0
C348 C 0.87988 0.55026 0.9882 0.0
C349 C 0.90843 0.53941 0.97499 0.0
C350 C 0.90675 0.54126 0.95005 0.0
C351 C 0.87706 0.55361 0.93856 0.0
C352 C 0.79689 0.60941 0.87993 0.0
C353 C 0.82339 0.59664 0.866 0.0
C354 C 0.83365 0.61175 0.84322 0.0
C355 C 0.81815 0.64047 0.83386 0.0
C356 C 0.79075 0.65246 0.84749 0.0
C357 C 0.77986 0.63672 0.87025 0.0
C358 C 0.70906 0.57782 0.95209 0.0
C359 C 0.66771 0.56775 0.9392 0.0
C360 C 0.45605 0.0824 0.96947 0.0
C361 C 0.49738 0.103 0.98449 0.0
C362 C 0.52964 0.15075 0.98378 0.0
C363 C 0.51968 0.17811 0.96941 0.0
H364 H 0.54 0.31548 0.97637 0.0
H365 H 0.55938 0.38754 1.00061 0.0
H366 H 0.42899 0.37343 0.97511 0.0
H367 H 0.41066 0.30257 0.94978 0.0
H368 H 0.37049 0.23813 0.89611 0.0
H369 H 0.33948 0.23036 0.85514 0.0
H370 H 0.3962 0.14298 0.83385 0.0
H371 H 0.42627 0.14968 0.87531 0.0
H372 H 0.41348 0.09369 0.94402 0.0
H373 H 0.43057 0.04565 0.96976 0.0
H374 H 0.56199 0.16745 0.99498 0.0
H375 H 0.54439 0.21535 0.97002 0.0
N376 N 0.4758 0.23078 0.95607 0.0
N377 N 0.43649 0.24659 0.92591 0.0
N378 N 0.43898 0.17661 0.92229 0.0
C379 C 0.46183 0.25938 0.9473 0.0
C380 C 0.4254 0.20561 0.91313 0.0
C381 C 0.46418 0.18927 0.94389 0.0
C382 C 0.47396 0.30372 0.96116 0.0
C383 C 0.51574 0.32812 0.97575 0.0
C384 C 0.52681 0.36931 0.9896 0.0
C385 C 0.49586 0.38624 0.9895 0.0
C386 C 0.4539 0.36169 0.97506 0.0
C387 C 0.44335 0.32111 0.96068 0.0
C388 C 0.40128 0.19494 0.88891 0.0
C389 C 0.37595 0.21679 0.88277 0.0
C390 C 0.35844 0.21261 0.85922 0.0
C391 C 0.36623 0.18692 0.84109 0.0
C392 C 0.38952 0.16298 0.84739 0.0
C393 C 0.40675 0.16682 0.87113 0.0
C394 C 0.47758 0.15814 0.95515 0.0
C395 C 0.44639 0.10975 0.95468 0.0
C396 C 0.92263 0.35508 0.97834 0.0
C397 C 0.90179 0.37441 0.99256 0.0
C398 C 0.85355 0.3499 0.99311 0.0
C399 C 0.82654 0.30691 0.97957 0.0
H400 H 0.74182 0.15531 0.99233 0.0
H401 H 0.6722 0.10403 0.01098 0.0
H402 H 0.59782 0.0485 0.94108 0.0
H403 H 0.66816 0.10014 0.92233 0.0
H404 H 0.74383 0.13233 0.87578 0.0
H405 H 0.76255 0.12973 0.83426 0.0
H406 H 0.89961 0.24812 0.85354 0.0
H407 H 0.88096 0.25138 0.89439 0.0
H408 H 0.91212 0.29867 0.9531 0.0
H409 H 0.95986 0.37265 0.97813 0.0
H410 H 0.83663 0.36389 1.00403 0.0
H411 H 0.78934 0.28872 0.98027 0.0
N412 N 0.78009 0.20915 0.95877 0.0
N413 N 0.76081 0.16245 0.92229 0.0
N414 N 0.82787 0.23713 0.92758 0.0
C415 C 0.75152 0.16837 0.94522 0.0
C416 C 0.79944 0.1969 0.91344 0.0
C417 C 0.81814 0.24353 0.95012 0.0
C418 C 0.71036 0.13218 0.95582 0.0
C419 C 0.71074 0.13183 0.98088 0.0
C420 C 0.67079 0.10227 0.99163 0.0
C421 C 0.62925 0.07252 0.9776 0.0
C422 C 0.62925 0.07125 0.95246 0.0
C423 C 0.66954 0.10064 0.94166 0.0
C424 C 0.81066 0.19229 0.88847 0.0
C425 C 0.778 0.15762 0.87113 0.0
C426 C 0.78876 0.1561 0.84734 0.0
C427 C 0.83241 0.18917 0.84044 0.0
C428 C 0.86526 0.22288 0.85798 0.0
C429 C 0.85455 0.2245 0.88157 0.0
C430 C 0.8472 0.28827 0.96479 0.0
C431 C 0.89544 0.31272 0.96417 0.0
C432 C 0.54677 0.63834 0.04211 0.0
C433 C 0.50451 0.61336 0.02794 0.0
C434 C 0.47331 0.62998 0.02803 0.0
C435 C 0.48439 0.67124 0.04182 0.0
H436 H 0.45467 0.78355 0.04792 0.0
H437 H 0.43644 0.83095 0.02289 0.0
H438 H 0.56832 0.95304 0.04714 0.0
H439 H 0.58601 0.90554 0.07297 0.0
H440 H 0.57225 0.84797 0.14239 0.0
H441 H 0.6025 0.85421 0.18375 0.0
H442 H 0.66393 0.77181 0.16134 0.0
H443 H 0.6326 0.76436 0.12046 0.0
H444 H 0.59025 0.69784 0.06714 0.0
H445 H 0.57188 0.62687 0.04191 0.0
H446 H 0.44052 0.61143 0.01722 0.0
H447 H 0.45991 0.6836 0.04136 0.0
N448 N 0.52404 0.76864 0.06135 0.0
N449 N 0.56103 0.823 0.09505 0.0
N450 N 0.56417 0.75337 0.09132 0.0
C451 C 0.53551 0.8101 0.07354 0.0
C452 C 0.57509 0.79429 0.1041 0.0
C453 C 0.53849 0.74033 0.07002 0.0
C454 C 0.52172 0.84098 0.06233 0.0
C455 C 0.47932 0.82076 0.04832 0.0
C456 C 0.46901 0.84783 0.0339 0.0
C457 C 0.50121 0.89551 0.03289 0.0
C458 C 0.54285 0.91635 0.04767 0.0
C459 C 0.55286 0.88932 0.06252 0.0
C460 C 0.59953 0.80515 0.12825 0.0
C461 C 0.59286 0.83189 0.1463 0.0
C462 C 0.61021 0.83545 0.16999 0.0
C463 C 0.63485 0.81268 0.17596 0.0
C464 C 0.64392 0.78857 0.15754 0.0
C465 C 0.62623 0.7846 0.13403 0.0
C466 C 0.52644 0.69601 0.05617 0.0
C467 C 0.55735 0.67899 0.05644 0.0
C468 C 0.36901 0.92632 0.06478 0.0
C469 C 0.3688 0.92514 0.03963 0.0
C470 C 0.3272 0.89523 0.02568 0.0
C471 C 0.28745 0.86535 0.0365 0.0
H472 H 0.21036 0.70741 0.0373 0.0
H473 H 0.16296 0.6326 0.01323 0.0
H474 H 0.03975 0.62428 0.03889 0.0
H475 H 0.08763 0.69776 0.06433 0.0
H476 H 0.13587 0.72918 0.12873 0.0
H477 H 0.11815 0.73394 0.16969 0.0
H478 H 0.22721 0.87901 0.17995 0.0
H479 H 0.24505 0.87459 0.13839 0.0
H480 H 0.3306 0.89701 0.09497 0.0
H481 H 0.40047 0.9492 0.07611 0.0
H482 H 0.32563 0.89354 1.00632 0.0
H483 H 0.25636 0.84168 0.0251 0.0
N484 N 0.21878 0.78748 0.05863 0.0
N485 N 0.17306 0.75779 0.09047 0.0
N486 N 0.23916 0.83315 0.0955 0.0
C487 C 0.18163 0.75239 0.06755 0.0
C488 C 0.20165 0.79787 0.10469 0.0
C489 C 0.24745 0.82811 0.07226 0.0
C490 C 0.1525 0.7079 0.05274 0.0
C491 C 0.17314 0.68933 0.0379 0.0
C492 C 0.14606 0.64657 0.02418 0.0
C493 C 0.09778 0.62228 0.02459 0.0
C494 C 0.07699 0.64162 0.03884 0.0
C495 C 0.10425 0.68369 0.05322 0.0
C496 C 0.19193 0.80161 0.13006 0.0
C497 C 0.15634 0.76227 0.13956 0.0
C498 C 0.14631 0.7648 0.16323 0.0
C499 C 0.17139 0.80674 0.17818 0.0
C500 C 0.20706 0.84622 0.16882 0.0
C501 C 0.21738 0.84363 0.14504 0.0
C502 C 0.28812 0.86483 0.06156 0.0
C503 C 0.32895 0.8966 0.07565 0.0
C504 C 0.09271 0.45592 0.06692 0.0
C505 C 0.09102 0.45759 0.04198 0.0
C506 C 0.11951 0.44658 0.02881 0.0
C507 C 0.14958 0.43478 0.04041 0.0
H508 H 0.25786 0.41129 0.02964 0.0
H509 H 0.3268 0.43098 0.00907 0.0
H510 H 0.40331 0.45053 0.07695 0.0
H511 H 0.33413 0.43052 0.09755 0.0
H512 H 0.23972 0.35017 0.13688 0.0
H513 H 0.22082 0.32315 0.17679 0.0
H514 H 0.14396 0.39549 0.18388 0.0
H515 H 0.16251 0.42225 0.14432 0.0
H516 H 0.12296 0.4429 0.09775 0.0
H517 H 0.07102 0.46401 0.07758 0.0
H518 H 0.11906 0.44762 0.00957 0.0
H519 H 0.17133 0.42679 0.02976 0.0
N520 N 0.21939 0.42319 0.06642 0.0
N521 N 0.24527 0.40291 0.10089 0.0
N522 N 0.17935 0.4108 0.10072 0.0
C523 C 0.25032 0.4141 0.07779 0.0
C524 C 0.20951 0.40103 0.1124 0.0
C525 C 0.18391 0.42171 0.07774 0.0
C526 C 0.29059 0.41975 0.06529 0.0
C527 C 0.28925 0.41924 0.04018 0.0
C528 C 0.32876 0.43041 0.02834 0.0
C529 C 0.3707 0.44288 0.04135 0.0
C530 C 0.37161 0.44149 0.06638 0.0
C531 C 0.33188 0.42974 0.07821 0.0
C532 C 0.20238 0.38808 0.13734 0.0
C533 C 0.21929 0.36073 0.14711 0.0
C534 C 0.20823 0.34503 0.16986 0.0
C535 C 0.18079 0.35711 0.18341 0.0
C536 C 0.16544 0.38589 0.17397 0.0
C537 C 0.17586 0.40095 0.1512 0.0
C538 C 0.15138 0.43322 0.06538 0.0
C539 C 0.12236 0.4436 0.07848 0.0
C540 C 0.29477 0.8896 0.28442 0.0
C541 C 0.29584 0.8886 0.30946 0.0
C542 C 0.33782 0.90109 0.32244 0.0
C543 C 0.37722 0.91195 0.31054 0.0
H544 H 0.49468 0.9033 0.3207 0.0
H545 H 0.54697 0.8824 0.34077 0.0
H546 H 0.59515 0.86663 0.2727 0.0
H547 H 0.54315 0.88781 0.25264 0.0
H548 H 0.50351 0.90872 0.20615 0.0
H549 H 0.52178 0.93555 0.16658 0.0
H550 H 0.44473 0.00764 0.17396 0.0
H551 H 0.42611 0.98055 0.21387 0.0
H552 H 0.332 0.90006 0.25319 0.0
H553 H 0.26302 0.88051 0.27387 0.0
H554 H 0.33988 0.90078 0.34172 0.0
H555 H 0.40866 0.91994 0.32106 0.0
N556 N 0.44677 0.90742 0.28417 0.0
N557 N 0.48665 0.91978 0.2498 0.0
N558 N 0.42087 0.9279 0.24978 0.0
C559 C 0.48215 0.90881 0.27277 0.0
C560 C 0.45652 0.9297 0.23819 0.0
C561 C 0.41587 0.91665 0.27287 0.0
C562 C 0.51467 0.89719 0.28505 0.0
C563 C 0.51645 0.89543 0.31001 0.0
C564 C 0.54654 0.88359 0.32153 0.0
C565 C 0.57509 0.87274 0.30832 0.0
C566 C 0.57342 0.87459 0.28339 0.0
C567 C 0.54372 0.88695 0.27189 0.0
C568 C 0.46356 0.94275 0.21327 0.0
C569 C 0.49006 0.92998 0.19934 0.0
C570 C 0.50032 0.94509 0.17655 0.0
C571 C 0.48482 0.97381 0.16719 0.0
C572 C 0.45742 0.9858 0.18083 0.0
C573 C 0.44653 0.97006 0.20358 0.0
C574 C 0.37572 0.91115 0.28542 0.0
C575 C 0.33438 0.90108 0.27253 0.0
C576 C 0.12271 0.41573 0.30281 0.0
C577 C 0.16404 0.43633 0.31783 0.0
C578 C 0.1963 0.48408 0.31712 0.0
C579 C 0.18634 0.51144 0.30275 0.0
H580 H 0.20666 0.64881 0.3097 0.0
H581 H 0.22604 0.72087 0.33394 0.0
H582 H 0.09565 0.70675 0.30845 0.0
H583 H 0.07732 0.6359 0.28312 0.0
H584 H 0.03713 0.57145 0.22944 0.0
H585 H 0.00613 0.56368 0.18847 0.0
H586 H 0.06288 0.47632 0.16718 0.0
H587 H 0.09294 0.48302 0.20864 0.0
H588 H 0.08014 0.42702 0.27735 0.0
H589 H 0.09723 0.37898 0.30309 0.0
H590 H 0.22865 0.50078 0.32832 0.0
H591 H 0.21105 0.54868 0.30336 0.0
N592 N 0.14246 0.56411 0.28941 0.0
N593 N 0.10315 0.57992 0.25924 0.0
N594 N 0.10564 0.50993 0.25562 0.0
C595 C 0.12849 0.59271 0.28064 0.0
C596 C 0.09206 0.53894 0.24646 0.0
C597 C 0.13084 0.52259 0.27722 0.0
C598 C 0.14062 0.63705 0.2945 0.0
C599 C 0.1824 0.66144 0.30908 0.0
C600 C 0.19348 0.70264 0.32293 0.0
C601 C 0.16252 0.71957 0.32284 0.0
C602 C 0.12056 0.69502 0.3084 0.0
C603 C 0.11001 0.65444 0.29402 0.0
C604 C 0.06794 0.52827 0.22224 0.0
C605 C 0.0426 0.55011 0.21611 0.0
C606 C 0.02509 0.54594 0.19255 0.0
C607 C 0.03289 0.52025 0.17442 0.0
C608 C 0.05618 0.49632 0.18072 0.0
C609 C 0.07342 0.50015 0.20447 0.0
C610 C 0.14425 0.49147 0.28849 0.0
C611 C 0.11305 0.44308 0.28801 0.0
C612 C 0.58929 0.68841 0.31167 0.0
C613 C 0.56846 0.70774 0.32589 0.0
C614 C 0.52022 0.68323 0.32644 0.0
C615 C 0.4932 0.64024 0.3129 0.0
H616 H 0.40849 0.48864 0.32567 0.0
H617 H 0.33886 0.43736 0.34431 0.0
H618 H 0.26448 0.38183 0.27442 0.0
H619 H 0.33482 0.43347 0.25567 0.0
H620 H 0.4105 0.46567 0.20911 0.0
H621 H 0.42921 0.46307 0.1676 0.0
H622 H 0.56628 0.58145 0.18687 0.0
H623 H 0.54763 0.5847 0.22773 0.0
H624 H 0.57878 0.632 0.28643 0.0
H625 H 0.62652 0.70598 0.31147 0.0
H626 H 0.50329 0.69722 0.33736 0.0
H627 H 0.456 0.62205 0.3136 0.0
N628 N 0.44675 0.54248 0.29211 0.0
N629 N 0.42748 0.49579 0.25562 0.0
N630 N 0.49454 0.57046 0.26091 0.0
C631 C 0.41819 0.5017 0.27856 0.0
C632 C 0.4661 0.53023 0.24677 0.0
C633 C 0.48481 0.57686 0.28345 0.0
C634 C 0.37703 0.46551 0.28915 0.0
C635 C 0.3774 0.46516 0.31421 0.0
C636 C 0.33745 0.4356 0.32496 0.0
C637 C 0.29591 0.40585 0.31094 0.0
C638 C 0.29591 0.40459 0.28579 0.0
C639 C 0.33621 0.43397 0.27499 0.0
C640 C 0.47732 0.52562 0.2218 0.0
C641 C 0.44466 0.49095 0.20446 0.0
C642 C 0.45542 0.48944 0.18067 0.0
C643 C 0.49907 0.5225 0.17377 0.0
C644 C 0.53193 0.55621 0.19132 0.0
C645 C 0.52122 0.55783 0.2149 0.0
C646 C 0.51387 0.6216 0.29812 0.0
C647 C 0.5621 0.64605 0.29751 0.0
C648 C 0.55172 0.05075 0.07791 0.0
Eu649 Eu 0.52399 0.02609 0.03269 0.0
C650 C 0.53352 0.03039 0.1004 0.0
C651 C 0.53448 0.05946 0.11987 0.0
C652 C 0.51737 0.04084 0.14135 0.0
C653 C 0.4993 0.9928 0.14378 0.0
C654 C 0.49766 0.96358 0.12409 0.0
C655 C 0.5143 0.98212 0.10255 0.0
C656 C 0.50676 0.07595 1.00159 0.0
C657 C 0.4123 0.95235 0.02807 0.0
C658 C 0.44636 0.94701 0.93928 0.0
Eu659 Eu 0.47399 0.97181 0.9845 0.0
C660 C 0.46476 0.96731 0.91681 0.0
C661 C 0.46392 0.93819 0.89739 0.0
C662 C 0.48126 0.95678 0.87594 0.0
C663 C 0.49945 0.00483 0.87348 0.0
C664 C 0.50098 0.03409 0.89311 0.0
C665 C 0.4841 0.01559 0.91463 0.0
C666 C 0.4915 0.92222 0.01573 0.0
C667 C 0.58566 0.04547 0.98912 0.0
O668 O 0.56614 0.02837 0.064 0.0
O669 O 0.52791 0.06573 0.066 0.0
O670 O 0.54317 0.09395 0.01671 0.0
O671 O 0.47948 0.03364 1.0048 0.0
O672 O 0.45178 0.97328 0.04171 0.0
O673 O 0.41109 0.95188 1.00448 0.0
O674 O 0.43197 0.9695 0.95312 0.0
O675 O 0.47002 0.93195 0.95127 0.0
O676 O 0.45496 0.90404 1.00068 0.0
O677 O 0.51859 0.96443 0.01232 0.0
O678 O 0.5462 0.02461 0.97546 0.0
O679 O 0.58683 0.0459 0.0127 0.0
H680 H 0.5488 0.09671 0.11852 0.0
H681 H 0.51947 0.06427 0.15627 0.0
H682 H 0.48352 0.92634 0.12538 0.0
H683 H 0.51233 0.95872 0.08766 0.0
H684 H 0.44951 0.90094 0.89876 0.0
H685 H 0.47924 0.93331 0.86106 0.0
H686 H 0.51521 0.07133 0.89181 0.0
H687 H 0.48599 0.03903 0.92948 0.0
C688 C 0.97371 0.52442 0.07673 0.0
Eu689 Eu 0.98223 0.50337 0.03258 0.0
C690 C 0.9898 0.52239 0.10125 0.0
C691 C 0.98548 0.48089 0.1092 0.0
C692 C 0.99974 0.48004 0.13292 0.0
C693 C 0.01862 0.52067 0.14901 0.0
C694 C 0.02383 0.5623 0.1407 0.0
C695 C 0.00938 0.56304 0.11713 0.0
C696 C 0.92987 0.41996 1.00674 0.0
C697 C 0.05993 0.47107 0.02983 0.0
C698 C 0.02581 0.4724 0.94018 0.0
Eu699 Eu 0.01728 0.49356 0.98431 0.0
C700 C 0.01039 0.47517 0.91566 0.0
C701 C 0.01326 0.51642 0.90827 0.0
C702 C 0.99941 0.51797 0.88458 0.0
C703 C 0.98236 0.47827 0.86797 0.0
C704 C 0.97865 0.43684 0.87572 0.0
C705 C 0.9927 0.43543 0.89926 0.0
C706 C 0.06969 0.5769 0.01025 0.0
C707 C 0.93957 0.52593 0.98708 0.0
O708 O 0.00506 0.55412 0.06387 0.0
O709 O 0.94434 0.48472 0.06441 0.0
O710 O 0.91284 0.44037 0.01978 0.0
O711 O 0.97344 0.44303 0.00888 0.0
O712 O 0.0409 0.49033 0.04297 0.0
O713 O 0.05139 0.46292 1.00634 0.0
O714 O 0.99384 0.44303 0.95288 0.0
O715 O 0.05564 0.51175 0.95263 0.0
O716 O 0.08672 0.55654 0.99718 0.0
O717 O 0.02613 0.55385 0.00799 0.0
O718 O 0.95885 0.50699 0.97391 0.0
O719 O 0.94787 0.53377 0.01059 0.0
H720 H 0.97076 0.44906 0.09722 0.0
H721 H 0.99517 0.44741 0.13875 0.0
H722 H 0.03931 0.59456 0.1524 0.0
H723 H 0.01338 0.5955 0.11131 0.0
H724 H 0.02648 0.5475 0.92069 0.0
H725 H 0.00281 0.55043 0.87919 0.0
H726 H 0.96454 0.40521 0.86363 0.0
H727 H 0.9898 0.40315 0.90467 0.0
C728 C 0.44291 0.47575 0.93941 0.0
Eu729 Eu 0.47333 0.49322 0.98454 0.0
C730 C 0.46162 0.47631 0.9159 0.0
C731 C 0.47352 0.51422 0.90199 0.0
C732 C 0.48898 0.51405 0.87927 0.0
C733 C 0.49243 0.47571 0.86983 0.0
C734 C 0.48135 0.43819 0.88394 0.0
C735 C 0.46609 0.43844 0.90668 0.0
C736 C 0.49294 0.57051 0.01281 0.0
C737 C 0.5861 0.53851 0.98833 0.0
C738 C 0.55804 0.52502 0.0781 0.0
Eu739 Eu 0.52692 0.50623 0.03307 0.0
C740 C 0.53983 0.52343 0.10182 0.0
C741 C 0.5119 0.48064 0.11152 0.0
C742 C 0.49758 0.48015 0.1346 0.0
C743 C 0.51096 0.5224 0.14851 0.0
C744 C 0.53774 0.56504 0.13845 0.0
C745 C 0.55216 0.56553 0.11547 0.0
C746 C 0.50737 0.42897 1.00474 0.0
C747 C 0.41388 0.46004 0.02919 0.0
O748 O 0.43865 0.44326 0.95311 0.0
O749 O 0.45781 0.51637 0.95156 0.0
O750 O 0.45488 0.54625 0.99902 0.0
O751 O 0.51985 0.55458 0.01012 0.0
O752 O 0.54614 0.51515 0.97509 0.0
O753 O 0.58836 0.54512 0.01192 0.0
O754 O 0.55931 0.55656 0.06458 0.0
O755 O 0.54549 0.485 0.06586 0.0
O756 O 0.54532 0.45304 0.01866 0.0
O757 O 0.48053 0.44494 0.00749 0.0
O758 O 0.45377 0.48273 0.04254 0.0
O759 O 0.41172 0.45438 1.00557 0.0
H760 H 0.47011 0.54375 0.90849 0.0
H761 H 0.4967 0.54322 0.86878 0.0
H762 H 0.48412 0.40834 0.87731 0.0
H763 H 0.45723 0.40861 0.91685 0.0
H764 H 0.50176 0.44749 0.1015 0.0
H765 H 0.47727 0.44672 0.14181 0.0
H766 H 0.54795 0.59826 0.14843 0.0
H767 H 0.57356 0.59901 0.10849 0.0
C768 C 0.21839 0.38408 0.41124 0.0
Eu769 Eu 0.19065 0.35942 0.36602 0.0
C770 C 0.20018 0.36372 0.43373 0.0
C771 C 0.20114 0.39279 0.45321 0.0
C772 C 0.18403 0.37417 0.47468 0.0
C773 C 0.16597 0.32613 0.47711 0.0
C774 C 0.16432 0.29691 0.45743 0.0
C775 C 0.18097 0.31545 0.43589 0.0
C776 C 0.17342 0.40928 0.33492 0.0
C777 C 0.07896 0.28568 0.3614 0.0
C778 C 0.11303 0.28034 0.27261 0.0
Eu779 Eu 0.14065 0.30514 0.31783 0.0
C780 C 0.13143 0.30064 0.25014 0.0
C781 C 0.13058 0.27152 0.23072 0.0
C782 C 0.14793 0.29011 0.20928 0.0
C783 C 0.16611 0.33816 0.20681 0.0
C784 C 0.16764 0.36743 0.22645 0.0
C785 C 0.15077 0.34893 0.24796 0.0
C786 C 0.15817 0.25555 0.34906 0.0
C787 C 0.25233 0.3788 0.32245 0.0
O788 O 0.2328 0.3617 0.39733 0.0
O789 O 0.19457 0.39906 0.39933 0.0
O790 O 0.20983 0.42728 0.35004 0.0
O791 O 0.14614 0.36697 0.33813 0.0
O792 O 0.11845 0.30661 0.37505 0.0
O793 O 0.07776 0.28521 0.33781 0.0
O794 O 0.09863 0.30283 0.28646 0.0
O795 O 0.13669 0.26529 0.2846 0.0
O796 O 0.12162 0.23737 0.33402 0.0
O797 O 0.18526 0.29776 0.34565 0.0
O798 O 0.21286 0.35795 0.30879 0.0
O799 O 0.25349 0.37923 0.34604 0.0
H800 H 0.21546 0.43004 0.45185 0.0
H801 H 0.18613 0.3976 0.4896 0.0
H802 H 0.15018 0.25968 0.45871 0.0
H803 H 0.179 0.29205 0.42099 0.0
H804 H 0.11618 0.23428 0.23209 0.0
H805 H 0.1459 0.26665 0.19439 0.0
H806 H 0.18187 0.40466 0.22514 0.0
H807 H 0.15265 0.37236 0.26282 0.0
C808 C 0.64037 0.85775 0.41006 0.0
Eu809 Eu 0.64889 0.8367 0.36591 0.0
C810 C 0.65647 0.85572 0.43458 0.0
C811 C 0.65215 0.81422 0.44254 0.0
C812 C 0.66641 0.81337 0.46625 0.0
C813 C 0.68528 0.854 0.48234 0.0
C814 C 0.69049 0.89563 0.47403 0.0
C815 C 0.67605 0.89637 0.45047 0.0
C816 C 0.59653 0.75329 0.34008 0.0
C817 C 0.7266 0.8044 0.36317 0.0
C818 C 0.69247 0.80572 0.27351 0.0
Eu819 Eu 0.68395 0.82689 0.31764 0.0
C820 C 0.67706 0.8085 0.249 0.0
C821 C 0.67993 0.84976 0.2416 0.0
C822 C 0.66608 0.85131 0.21791 0.0
C823 C 0.64903 0.8116 0.2013 0.0
C824 C 0.64532 0.77017 0.20905 0.0
C825 C 0.65937 0.76876 0.23259 0.0
C826 C 0.73635 0.91023 0.34358 0.0
C827 C 0.60623 0.85926 0.32042 0.0
O828 O 0.67172 0.88745 0.39721 0.0
O829 O 0.611 0.81805 0.39774 0.0
O830 O 0.57951 0.7737 0.35312 0.0
O831 O 0.6401 0.77636 0.34222 0.0
O832 O 0.70756 0.82366 0.37631 0.0
O833 O 0.71805 0.79625 0.33967 0.0
O834 O 0.6605 0.77635 0.28621 0.0
O835 O 0.7223 0.84507 0.28596 0.0
O836 O 0.75338 0.88987 0.33051 0.0
O837 O 0.69279 0.88718 0.34132 0.0
O838 O 0.62551 0.84032 0.30724 0.0
O839 O 0.61453 0.8671 0.34393 0.0
H840 H 0.63742 0.78239 0.43055 0.0
H841 H 0.66183 0.78074 0.47209 0.0
H842 H 0.70598 0.92789 0.48573 0.0
H843 H 0.68005 0.92883 0.44464 0.0
H844 H 0.69314 0.88083 0.25402 0.0
H845 H 0.66947 0.88377 0.21253 0.0
H846 H 0.63121 0.73855 0.19696 0.0
H847 H 0.65647 0.73648 0.238 0.0
C848 C 0.10958 0.80907 0.27275 0.0
Eu849 Eu 0.13999 0.82655 0.31787 0.0
C850 C 0.12828 0.80964 0.24924 0.0
C851 C 0.1402 0.84756 0.23533 0.0
C852 C 0.15566 0.84739 0.21261 0.0
C853 C 0.15909 0.80904 0.20316 0.0
C854 C 0.14799 0.77151 0.21727 0.0
C855 C 0.13273 0.77176 0.24 0.0
C856 C 0.15961 0.90384 0.34614 0.0
C857 C 0.25277 0.87184 0.32167 0.0
C858 C 0.2247 0.85835 0.41143 0.0
Eu859 Eu 0.19359 0.83956 0.3664 0.0
C860 C 0.2065 0.85676 0.43515 0.0
C861 C 0.17856 0.81397 0.44485 0.0
C862 C 0.16424 0.81348 0.46793 0.0
C863 C 0.17763 0.85573 0.48184 0.0
C864 C 0.20442 0.89837 0.47179 0.0
C865 C 0.21884 0.89886 0.44881 0.0
C866 C 0.17403 0.7623 0.33807 0.0
C867 C 0.08054 0.79338 0.36252 0.0
O868 O 0.10532 0.77659 0.28644 0.0
O869 O 0.12446 0.8497 0.28489 0.0
O870 O 0.12154 0.87958 0.33235 0.0
O871 O 0.18652 0.88791 0.34345 0.0
O872 O 0.2128 0.84848 0.30842 0.0
O873 O 0.25503 0.87845 0.34525 0.0
O874 O 0.22597 0.88989 0.39792 0.0
O875 O 0.21216 0.81833 0.39919 0.0
O876 O 0.21198 0.78637 0.35199 0.0
O877 O 0.14719 0.77827 0.34083 0.0
O878 O 0.12044 0.81606 0.37587 0.0
O879 O 0.07839 0.78771 0.3389 0.0
H880 H 0.13681 0.8771 0.24183 0.0
H881 H 0.16339 0.87657 0.20212 0.0
H882 H 0.15074 0.74165 0.21063 0.0
H883 H 0.12385 0.74192 0.25018 0.0
H884 H 0.1684 0.78082 0.43482 0.0
H885 H 0.14392 0.78004 0.47514 0.0
H886 H 0.21463 0.93158 0.48176 0.0
H887 H 0.24024 0.93234 0.44183 0.0
C888 C 0.88505 0.71741 0.74457 0.0
Eu889 Eu 0.85731 0.69275 0.69936 0.0
C890 C 0.86684 0.69705 0.76707 0.0
C891 C 0.86781 0.72612 0.78654 0.0
C892 C 0.85069 0.7075 0.80801 0.0
C893 C 0.83263 0.65946 0.81045 0.0
C894 C 0.83099 0.63024 0.79076 0.0
C895 C 0.84763 0.64877 0.76922 0.0
C896 C 0.84009 0.7426 0.66825 0.0
C897 C 0.74563 0.61901 0.69473 0.0
C898 C 0.77969 0.61367 0.60595 0.0
Eu899 Eu 0.80732 0.63847 0.65117 0.0
C900 C 0.79809 0.63397 0.58347 0.0
C901 C 0.79725 0.60485 0.56405 0.0
C902 C 0.81459 0.62344 0.54261 0.0
C903 C 0.83278 0.67149 0.54015 0.0
C904 C 0.83431 0.70075 0.55978 0.0
C905 C 0.81743 0.68225 0.58129 0.0
C906 C 0.82483 0.58888 0.68239 0.0
C907 C 0.91899 0.71213 0.65579 0.0
O908 O 0.89946 0.69503 0.73067 0.0
O909 O 0.86124 0.73239 0.73266 0.0
O910 O 0.8765 0.76061 0.68337 0.0
O911 O 0.8128 0.70029 0.67146 0.0
O912 O 0.78511 0.63994 0.70838 0.0
O913 O 0.74442 0.61854 0.67115 0.0
O914 O 0.76529 0.63616 0.61979 0.0
O915 O 0.80335 0.59861 0.61793 0.0
O916 O 0.78829 0.5707 0.66735 0.0
O917 O 0.85192 0.63109 0.67898 0.0
O918 O 0.87953 0.69127 0.64212 0.0
O919 O 0.92015 0.71256 0.67937 0.0
H920 H 0.88213 0.76337 0.78519 0.0
H921 H 0.8528 0.73093 0.82293 0.0
H922 H 0.81684 0.593 0.79204 0.0
H923 H 0.84566 0.62538 0.75432 0.0
H924 H 0.78284 0.5676 0.56543 0.0
H925 H 0.81257 0.59998 0.52773 0.0
H926 H 0.84854 0.73799 0.55848 0.0
H927 H 0.81932 0.70569 0.59615 0.0
C928 C 0.30703 0.19106 0.74339 0.0
Eu929 Eu 0.31556 0.17002 0.69925 0.0
C930 C 0.32313 0.18904 0.76791 0.0
C931 C 0.31881 0.14754 0.77587 0.0
C932 C 0.33307 0.1467 0.79959 0.0
C933 C 0.35195 0.18733 0.81568 0.0
C934 C 0.35717 0.22896 0.80736 0.0
C935 C 0.34272 0.2297 0.7838 0.0
C936 C 0.26319 0.08662 0.67341 0.0
C937 C 0.39326 0.13773 0.6965 0.0
C938 C 0.35915 0.13906 0.60685 0.0
Eu939 Eu 0.35061 0.16022 0.65097 0.0
C940 C 0.34372 0.14183 0.58233 0.0
C941 C 0.3466 0.18309 0.57493 0.0
C942 C 0.33275 0.18464 0.55124 0.0
C943 C 0.31569 0.14494 0.53463 0.0
C944 C 0.31198 0.10351 0.54239 0.0
C945 C 0.32604 0.10209 0.56593 0.0
C946 C 0.40302 0.24356 0.67692 0.0
C947 C 0.2729 0.19259 0.65375 0.0
O948 O 0.33837 0.22077 0.73054 0.0
O949 O 0.27766 0.15136 0.73107 0.0
O950 O 0.24617 0.10703 0.68644 0.0
O951 O 0.30676 0.10969 0.67555 0.0
O952 O 0.37423 0.15698 0.70964 0.0
O953 O 0.38471 0.12957 0.67301 0.0
O954 O 0.32718 0.10969 0.61954 0.0
O955 O 0.38897 0.17842 0.6193 0.0
O956 O 0.42005 0.2232 0.66385 0.0
O957 O 0.35946 0.22051 0.67465 0.0
O958 O 0.29218 0.17365 0.64057 0.0
O959 O 0.28119 0.20042 0.67726 0.0
H960 H 0.30407 0.1157 0.76389 0.0
H961 H 0.32849 0.11407 0.80542 0.0
H962 H 0.37266 0.26122 0.81906 0.0
H963 H 0.34672 0.26215 0.77797 0.0
H964 H 0.35981 0.21417 0.58735 0.0
H965 H 0.33614 0.2171 0.54586 0.0
H966 H 0.29788 0.07188 0.53029 0.0
H967 H 0.32314 0.06981 0.57134 0.0
C968 C 0.77624 0.1424 0.60608 0.0
Eu969 Eu 0.80666 0.15988 0.6512 0.0
C970 C 0.79495 0.14297 0.58257 0.0
C971 C 0.80687 0.18089 0.56866 0.0
C972 C 0.82233 0.18072 0.54595 0.0
C973 C 0.82575 0.14237 0.5365 0.0
C974 C 0.81465 0.10484 0.5506 0.0
C975 C 0.7994 0.10509 0.57334 0.0
C976 C 0.82628 0.23717 0.67947 0.0
C977 C 0.91943 0.20517 0.655 0.0
C978 C 0.89137 0.19168 0.74477 0.0
Eu979 Eu 0.86026 0.17289 0.69974 0.0
C980 C 0.87316 0.19009 0.76848 0.0
C981 C 0.84524 0.1473 0.77819 0.0
C982 C 0.83091 0.14682 0.80127 0.0
C983 C 0.8443 0.18907 0.81518 0.0
C984 C 0.87107 0.2317 0.80512 0.0
C985 C 0.88549 0.23219 0.78214 0.0
C986 C 0.8407 0.09563 0.6714 0.0
C987 C 0.74721 0.12671 0.69586 0.0
O988 O 0.77198 0.10992 0.61978 0.0
O989 O 0.79113 0.18303 0.61823 0.0
O990 O 0.78821 0.21291 0.66568 0.0
O991 O 0.85318 0.22124 0.67678 0.0
O992 O 0.87947 0.18181 0.64176 0.0
O993 O 0.92169 0.21178 0.67858 0.0
O994 O 0.89264 0.22322 0.73125 0.0
O995 O 0.87882 0.15166 0.73253 0.0
O996 O 0.87865 0.1197 0.68532 0.0
O997 O 0.81386 0.1116 0.67416 0.0
O998 O 0.7871 0.14939 0.7092 0.0
O999 O 0.74505 0.12104 0.67224 0.0
H1000 H 0.80348 0.21044 0.57516 0.0
H1001 H 0.83007 0.2099 0.53545 0.0
H1002 H 0.8174 0.07498 0.54396 0.0
H1003 H 0.79051 0.07524 0.58351 0.0
H1004 H 0.83509 0.11415 0.76816 0.0
H1005 H 0.81061 0.11338 0.80848 0.0
H1006 H 0.88128 0.26492 0.81509 0.0
H1007 H 0.90689 0.26568 0.77516 0.0
loop_
_geom_bond_atom_site_label_1
_geom_bond_atom_site_label_2
_geom_bond_distance
_geom_bond_site_symmetry_2
_ccdc_geom_bond_type
C0 C1 1.384 1_545 S
C0 H13 0.947 1_545 S
C0 C35 1.382 . S
C1 C0 1.384 1_565 S
C1 C2 1.356 1_565 S
C2 C1 1.356 1_545 S
C2 C3 1.378 . S
C2 H14 0.952 . S
C3 C2 1.378 . S
C3 H15 0.950 . S
C3 C34 1.383 . S
H4 C23 0.947 . S
H5 C24 0.946 . S
H6 C26 0.953 . S
H7 C27 0.945 . S
H8 C29 0.952 . S
H9 C30 0.949 . S
H10 C32 0.950 . S
H11 C33 0.948 . S
H12 C35 0.951 . S
H13 C0 0.947 1_565 S
H14 C2 0.952 . S
H15 C3 0.950 . S
N16 C19 1.382 . S
N16 C21 1.363 . S
N17 C19 1.371 . S
N17 C20 1.372 . S
N18 C20 1.361 . S
N18 C21 1.377 . S
C19 N16 1.382 . S
C19 N17 1.371 . S
C19 C22 1.480 . S
C20 N17 1.372 . S
C20 N18 1.361 . S
C20 C28 1.457 . S
C21 N16 1.363 . S
C21 N18 1.377 . S
C21 C34 1.479 . S
C22 C19 1.480 . S
C22 C23 1.383 . S
C22 C27 1.385 . S
C23 H4 0.947 . S
C23 C22 1.383 . S
C23 C24 1.388 . S
C24 H5 0.946 . S
C24 C23 1.388 . S
C24 C25 1.384 . S
C25 C24 1.384 . S
C25 C26 1.377 . S
C26 H6 0.953 . S
C26 C25 1.377 . S
C26 C27 1.369 . S
C27 H7 0.945 . S
C27 C22 1.385 . S
C27 C26 1.369 . S
C28 C20 1.457 . S
C28 C29 1.372 . S
C28 C33 1.364 . S
C29 H8 0.952 . S
C29 C28 1.372 . S
C29 C30 1.389 . S
C30 H9 0.949 . S
C30 C29 1.389 . S
C30 C31 1.387 . S
C31 C30 1.387 . S
C31 C32 1.372 . S
C32 H10 0.950 . S
C32 C31 1.372 . S
C32 C33 1.379 . S
C33 H11 0.948 . S
C33 C28 1.364 . S
C33 C32 1.379 . S
C34 C3 1.383 . S
C34 C21 1.479 . S
C34 C35 1.398 . S
C35 C0 1.382 . S
C35 H12 0.951 . S
C35 C34 1.398 . S
C36 C37 1.384 . S
C36 H49 0.947 . S
C36 C71 1.382 1_455 S
C37 C36 1.384 . S
C37 C38 1.378 1_455 S
C38 C37 1.378 1_655 S
C38 C39 1.378 . S
C38 H50 0.952 . S
C39 C38 1.378 . S
C39 H51 0.950 . S
C39 C70 1.383 . S
H40 C59 0.947 . S
H41 C60 0.946 . S
H42 C62 0.953 . S
H43 C63 0.945 . S
H44 C65 0.952 . S
H45 C66 0.949 . S
H46 C68 0.950 . S
H47 C69 0.948 . S
H48 C71 0.951 . S
H49 C36 0.947 . S
H50 C38 0.952 . S
H51 C39 0.950 . S
N52 C55 1.382 . S
N52 C57 1.363 . S
N53 C55 1.371 . S
N53 C56 1.372 . S
N54 C56 1.361 . S
N54 C57 1.377 . S
C55 N52 1.382 . S
C55 N53 1.371 . S
C55 C58 1.480 . S
C56 N53 1.372 . S
C56 N54 1.361 . S
C56 C64 1.457 . S
C57 N52 1.363 . S
C57 N54 1.377 . S
C57 C70 1.479 . S
C58 C55 1.480 . S
C58 C59 1.383 . S
C58 C63 1.385 . S
C59 H40 0.947 . S
C59 C58 1.383 . S
C59 C60 1.388 . S
C60 H41 0.946 . S
C60 C59 1.388 . S
C60 C61 1.384 1_545 S
C61 C60 1.384 1_565 S
C61 C62 1.377 . S
C62 H42 0.953 . S
C62 C61 1.377 . S
C62 C63 1.369 1_565 S
C63 H43 0.945 . S
C63 C58 1.385 . S
C63 C62 1.369 1_545 S
C64 C56 1.457 . S
C64 C65 1.372 . S
C64 C69 1.364 . S
C65 H44 0.952 . S
C65 C64 1.372 . S
C65 C66 1.389 . S
C66 H45 0.949 . S
C66 C65 1.389 . S
C66 C67 1.387 . S
C67 C66 1.387 . S
C67 C68 1.372 . S
C68 H46 0.950 . S
C68 C67 1.372 . S
C68 C69 1.379 . S
C69 H47 0.948 . S
C69 C64 1.364 . S
C69 C68 1.379 . S
C70 C39 1.383 . S
C70 C57 1.479 . S
C70 C71 1.398 . S
C71 C36 1.382 1_655 S
C71 H48 0.951 . S
C71 C70 1.398 . S
C72 C73 1.384 . S
C72 H85 0.947 . S
C72 C107 1.382 . S
C73 C72 1.384 . S
C73 C74 1.378 . S
C74 C73 1.378 . S
C74 C75 1.378 . S
C74 H86 0.952 . S
C75 C74 1.378 . S
C75 H87 0.950 . S
C75 C106 1.383 . S
H76 C95 0.947 . S
H77 C96 0.946 . S
H78 C98 0.953 . S
H79 C99 0.945 . S
H80 C101 0.952 . S
H81 C102 0.949 . S
H82 C104 0.950 . S
H83 C105 0.948 . S
H84 C107 0.951 . S
H85 C72 0.947 . S
H86 C74 0.952 . S
H87 C75 0.950 . S
N88 C91 1.382 . S
N88 C93 1.363 . S
N89 C91 1.371 . S
N89 C92 1.372 . S
N90 C92 1.361 . S
N90 C93 1.377 . S
C91 N88 1.382 . S
C91 N89 1.371 . S
C91 C94 1.480 . S
C92 N89 1.372 . S
C92 N90 1.361 . S
C92 C100 1.457 . S
C93 N88 1.363 . S
C93 N90 1.377 . S
C93 C106 1.479 . S
C94 C91 1.480 . S
C94 C95 1.383 . S
C94 C99 1.385 . S
C95 H76 0.947 . S
C95 C94 1.383 . S
C95 C96 1.388 1_655 S
C96 H77 0.946 . S
C96 C95 1.388 1_455 S
C96 C97 1.384 . S
C97 C96 1.384 . S
C97 C98 1.377 . S
C98 H78 0.953 . S
C98 C97 1.377 . S
C98 C99 1.369 1_455 S
C99 H79 0.945 . S
C99 C94 1.385 . S
C99 C98 1.369 1_655 S
C100 C92 1.457 . S
C100 C101 1.372 . S
C100 C105 1.364 . S
C101 H80 0.952 . S
C101 C100 1.372 . S
C101 C102 1.389 . S
C102 H81 0.949 . S
C102 C101 1.389 . S
C102 C103 1.387 . S
C103 C102 1.387 . S
C103 C104 1.372 . S
C104 H82 0.950 . S
C104 C103 1.372 . S
C104 C105 1.379 . S
C105 H83 0.948 . S
C105 C100 1.364 . S
C105 C104 1.379 . S
C106 C75 1.383 . S
C106 C93 1.479 . S
C106 C107 1.398 . S
C107 C72 1.382 . S
C107 H84 0.951 . S
C107 C106 1.398 . S
C108 C109 1.384 . S
C108 H121 0.947 . S
C108 C143 1.382 1_655 S
C109 C108 1.384 . S
C109 C110 1.378 1_655 S
C110 C109 1.378 1_455 S
C110 C111 1.378 . S
C110 H122 0.952 1_455 S
C111 C110 1.378 . S
C111 H123 0.950 . S
C111 C142 1.383 . S
H112 C131 0.947 . S
H113 C132 0.946 . S
H114 C134 0.953 . S
H115 C135 0.945 . S
H116 C137 0.952 . S
H117 C138 0.949 . S
H118 C140 0.950 . S
H119 C141 0.948 . S
H120 C143 0.951 . S
H121 C108 0.947 . S
H122 C110 0.952 1_655 S
H123 C111 0.950 . S
N124 C127 1.382 . S
N124 C129 1.363 . S
N125 C127 1.371 . S
N125 C128 1.372 . S
N126 C128 1.361 . S
N126 C129 1.377 . S
C127 N124 1.382 . S
C127 N125 1.371 . S
C127 C130 1.480 . S
C128 N125 1.372 . S
C128 N126 1.361 . S
C128 C136 1.457 . S
C129 N124 1.363 . S
C129 N126 1.377 . S
C129 C142 1.479 . S
C130 C127 1.480 . S
C130 C131 1.383 . S
C130 C135 1.385 . S
C131 H112 0.947 . S
C131 C130 1.383 . S
C131 C132 1.388 . S
C132 H113 0.946 . S
C132 C131 1.388 . S
C132 C133 1.384 . S
C133 C132 1.384 . S
C133 C134 1.377 . S
C134 H114 0.953 . S
C134 C133 1.377 . S
C134 C135 1.369 . S
C135 H115 0.945 . S
C135 C130 1.385 . S
C135 C134 1.369 . S
C136 C128 1.457 . S
C136 C137 1.372 . S
C136 C141 1.364 . S
C137 H116 0.952 . S
C137 C136 1.372 . S
C137 C138 1.389 . S
C138 H117 0.949 . S
C138 C137 1.389 . S
C138 C139 1.387 . S
C139 C138 1.387 . S
C139 C140 1.372 . S
C140 H118 0.950 . S
C140 C139 1.372 . S
C140 C141 1.379 . S
C141 H119 0.948 . S
C141 C136 1.364 . S
C141 C140 1.379 . S
C142 C111 1.383 . S
C142 C129 1.479 . S
C142 C143 1.398 . S
C143 C108 1.382 1_455 S
C143 H120 0.951 . S
C143 C142 1.398 . S
C144 C145 1.384 . S
C144 H157 0.947 . S
C144 C179 1.382 . S
C145 C144 1.384 . S
C145 C146 1.378 . S
C146 C145 1.378 . S
C146 C147 1.378 . S
C146 H158 0.952 . S
C147 C146 1.378 . S
C147 H159 0.950 . S
C147 C178 1.383 . S
H148 C167 0.947 . S
H149 C168 0.946 . S
H150 C170 0.953 1_545 S
H151 C171 0.945 . S
H152 C173 0.952 . S
H153 C174 0.949 . S
H154 C176 0.950 . S
H155 C177 0.948 . S
H156 C179 0.951 . S
H157 C144 0.947 . S
H158 C146 0.952 . S
H159 C147 0.950 . S
N160 C163 1.382 . S
N160 C165 1.363 . S
N161 C163 1.371 . S
N161 C164 1.372 . S
N162 C164 1.361 . S
N162 C165 1.377 . S
C163 N160 1.382 . S
C163 N161 1.371 . S
C163 C166 1.480 . S
C164 N161 1.372 . S
C164 N162 1.361 . S
C164 C172 1.457 . S
C165 N160 1.363 . S
C165 N162 1.377 . S
C165 C178 1.479 . S
C166 C163 1.480 . S
C166 C167 1.383 . S
C166 C171 1.385 . S
C167 H148 0.947 . S
C167 C166 1.383 . S
C167 C168 1.388 . S
C168 H149 0.946 . S
C168 C167 1.388 . S
C168 C169 1.384 1_565 S
C169 C168 1.384 1_545 S
C169 C170 1.377 1_545 S
C170 H150 0.953 1_565 S
C170 C169 1.377 1_565 S
C170 C171 1.369 . S
C171 H151 0.945 . S
C171 C166 1.385 . S
C171 C170 1.369 . S
C172 C164 1.457 . S
C172 C173 1.372 . S
C172 C177 1.364 . S
C173 H152 0.952 . S
C173 C172 1.372 . S
C173 C174 1.389 . S
C174 H153 0.949 . S
C174 C173 1.389 . S
C174 C175 1.387 . S
C175 C174 1.387 . S
C175 C176 1.372 . S
C176 H154 0.950 . S
C176 C175 1.372 . S
C176 C177 1.379 . S
C177 H155 0.948 . S
C177 C172 1.364 . S
C177 C176 1.379 . S
C178 C147 1.383 . S
C178 C165 1.479 . S
C178 C179 1.398 . S
C179 C144 1.382 . S
C179 H156 0.951 . S
C179 C178 1.398 . S
C180 C181 1.384 . S
C180 H193 0.947 . S
C180 C215 1.382 1_545 S
C181 C180 1.384 . S
C181 C182 1.378 1_545 S
C182 C181 1.378 1_565 S
C182 C183 1.378 . S
C182 H194 0.952 . S
C183 C182 1.378 . S
C183 H195 0.950 . S
C183 C214 1.383 . S
H184 C203 0.947 . S
H185 C204 0.946 . S
H186 C206 0.953 . S
H187 C207 0.945 . S
H188 C209 0.952 . S
H189 C210 0.949 . S
H190 C212 0.950 . S
H191 C213 0.948 . S
H192 C215 0.951 . S
H193 C180 0.947 . S
H194 C182 0.952 . S
H195 C183 0.950 . S
N196 C199 1.382 . S
N196 C201 1.363 . S
N197 C199 1.371 . S
N197 C200 1.372 . S
N198 C200 1.361 . S
N198 C201 1.377 . S
C199 N196 1.382 . S
C199 N197 1.371 . S
C199 C202 1.480 . S
C200 N197 1.372 . S
C200 N198 1.361 . S
C200 C208 1.457 . S
C201 N196 1.363 . S
C201 N198 1.377 . S
C201 C214 1.479 . S
C202 C199 1.480 . S
C202 C203 1.383 . S
C202 C207 1.385 . S
C203 H184 0.947 . S
C203 C202 1.383 . S
C203 C204 1.388 . S
C204 H185 0.946 . S
C204 C203 1.388 . S
C204 C205 1.384 1_455 S
C205 C204 1.384 1_655 S
C205 C206 1.377 . S
C206 H186 0.953 . S
C206 C205 1.377 . S
C206 C207 1.369 1_655 S
C207 H187 0.945 . S
C207 C202 1.385 . S
C207 C206 1.369 1_455 S
C208 C200 1.457 . S
C208 C209 1.372 . S
C208 C213 1.364 . S
C209 H188 0.952 . S
C209 C208 1.372 . S
C209 C210 1.389 . S
C210 H189 0.949 . S
C210 C209 1.389 . S
C210 C211 1.387 . S
C211 C210 1.387 . S
C211 C212 1.372 . S
C212 H190 0.950 . S
C212 C211 1.372 . S
C212 C213 1.379 . S
C213 H191 0.948 . S
C213 C208 1.364 . S
C213 C212 1.379 . S
C214 C183 1.383 . S
C214 C201 1.479 . S
C214 C215 1.398 . S
C215 C180 1.382 1_565 S
C215 H192 0.951 . S
C215 C214 1.398 . S
C216 C217 1.384 . S
C216 H229 0.947 . S
C216 C251 1.382 . S
C217 C216 1.384 . S
C217 C218 1.378 . S
C218 C217 1.378 . S
C218 C219 1.378 . S
C218 H230 0.952 . S
C219 C218 1.378 . S
C219 H231 0.950 . S
C219 C250 1.383 . S
H220 C239 0.947 . S
H221 C240 0.946 . S
H222 C242 0.953 . S
H223 C243 0.945 . S
H224 C245 0.952 . S
H225 C246 0.943 1_655 S
H226 C248 0.950 . S
H227 C249 0.948 . S
H228 C251 0.951 . S
H229 C216 0.947 . S
H230 C218 0.952 . S
H231 C219 0.950 . S
N232 C235 1.382 . S
N232 C237 1.363 . S
N233 C235 1.371 . S
N233 C236 1.372 . S
N234 C236 1.361 . S
N234 C237 1.377 . S
C235 N232 1.382 . S
C235 N233 1.371 . S
C235 C238 1.480 . S
C236 N233 1.372 . S
C236 N234 1.361 . S
C236 C244 1.457 . S
C237 N232 1.363 . S
C237 N234 1.377 . S
C237 C250 1.479 . S
C238 C235 1.480 . S
C238 C239 1.383 . S
C238 C243 1.385 . S
C239 H220 0.947 . S
C239 C238 1.383 . S
C239 C240 1.388 . S
C240 H221 0.946 . S
C240 C239 1.388 . S
C240 C241 1.384 . S
C241 C240 1.384 . S
C241 C242 1.377 . S
C242 H222 0.953 . S
C242 C241 1.377 . S
C242 C243 1.369 . S
C243 H223 0.945 . S
C243 C238 1.385 . S
C243 C242 1.369 . S
C244 C236 1.457 . S
C244 C245 1.372 . S
C244 C249 1.364 1_655 S
C245 H224 0.952 . S
C245 C244 1.372 . S
C245 C246 1.388 1_655 S
C246 H225 0.943 1_455 S
C246 C245 1.388 1_455 S
C246 C247 1.391 . S
C247 C246 1.391 . S
C247 C248 1.372 . S
C248 H226 0.950 . S
C248 C247 1.372 . S
C248 C249 1.379 . S
C249 H227 0.948 . S
C249 C244 1.364 1_455 S
C249 C248 1.379 . S
C250 C219 1.383 . S
C250 C237 1.479 . S
C250 C251 1.398 . S
C251 C216 1.382 . S
C251 H228 0.951 . S
C251 C250 1.398 . S
C252 C253 1.384 . S
C252 H265 0.947 . S
C252 C287 1.382 . S
C253 C252 1.384 . S
C253 C254 1.378 . S
C254 C253 1.378 . S
C254 C255 1.378 . S
C254 H266 0.952 . S
C255 C254 1.378 . S
C255 H267 0.950 . S
C255 C286 1.383 . S
H256 C275 0.947 . S
H257 C276 0.946 . S
H258 C278 0.953 . S
H259 C279 0.945 . S
H260 C281 0.952 . S
H261 C282 0.949 . S
H262 C284 0.950 . S
H263 C285 0.948 . S
H264 C287 0.951 . S
H265 C252 0.947 . S
H266 C254 0.952 . S
H267 C255 0.950 . S
N268 C271 1.382 . S
N268 C273 1.363 . S
N269 C271 1.371 . S
N269 C272 1.372 . S
N270 C272 1.361 . S
N270 C273 1.377 . S
C271 N268 1.382 . S
C271 N269 1.371 . S
C271 C274 1.480 . S
C272 N269 1.372 . S
C272 N270 1.361 . S
C272 C280 1.457 . S
C273 N268 1.363 . S
C273 N270 1.377 . S
C273 C286 1.479 . S
C274 C271 1.480 . S
C274 C275 1.383 . S
C274 C279 1.385 . S
C275 H256 0.947 . S
C275 C274 1.383 . S
C275 C276 1.388 . S
C276 H257 0.946 . S
C276 C275 1.388 . S
C276 C277 1.384 . S
C277 C276 1.384 . S
C277 C278 1.377 . S
C278 H258 0.953 . S
C278 C277 1.377 . S
C278 C279 1.369 . S
C279 H259 0.945 . S
C279 C274 1.385 . S
C279 C278 1.369 . S
C280 C272 1.457 . S
C280 C281 1.372 . S
C280 C285 1.364 . S
C281 H260 0.952 . S
C281 C280 1.372 . S
C281 C282 1.389 . S
C282 H261 0.949 . S
C282 C281 1.389 . S
C282 C283 1.387 . S
C283 C282 1.387 . S
C283 C284 1.372 . S
C284 H262 0.950 . S
C284 C283 1.372 . S
C284 C285 1.379 . S
C285 H263 0.948 . S
C285 C280 1.364 . S
C285 C284 1.379 . S
C286 C255 1.383 . S
C286 C273 1.479 . S
C286 C287 1.398 . S
C287 C252 1.382 . S
C287 H264 0.951 . S
C287 C286 1.398 . S
C288 C289 1.384 . S
C288 H301 0.947 . S
C288 C323 1.382 . S
C289 C288 1.384 . S
C289 C290 1.378 . S
C290 C289 1.378 . S
C290 C291 1.378 . S
C290 H302 0.952 . S
C291 C290 1.378 . S
C291 H303 0.950 . S
C291 C322 1.383 . S
H292 C311 0.947 . S
H293 C312 0.946 . S
H294 C314 0.953 . S
H295 C315 0.945 . S
H296 C317 0.952 . S
H297 C318 0.949 . S
H298 C320 0.950 . S
H299 C321 0.948 . S
H300 C323 0.951 . S
H301 C288 0.947 . S
H302 C290 0.952 . S
H303 C291 0.950 . S
N304 C307 1.382 . S
N304 C309 1.363 . S
N305 C307 1.371 . S
N305 C308 1.372 . S
N306 C308 1.361 . S
N306 C309 1.377 . S
C307 N304 1.382 . S
C307 N305 1.371 . S
C307 C310 1.480 . S
C308 N305 1.372 . S
C308 N306 1.361 . S
C308 C316 1.457 . S
C309 N304 1.363 . S
C309 N306 1.377 . S
C309 C322 1.479 . S
C310 C307 1.480 . S
C310 C311 1.383 . S
C310 C315 1.385 . S
C311 H292 0.947 . S
C311 C310 1.383 . S
C311 C312 1.388 . S
C312 H293 0.946 . S
C312 C311 1.388 . S
C312 C313 1.384 . S
C313 C312 1.384 . S
C313 C314 1.377 . S
C314 H294 0.953 . S
C314 C313 1.377 . S
C314 C315 1.369 . S
C315 H295 0.945 . S
C315 C310 1.385 . S
C315 C314 1.369 . S
C316 C308 1.457 . S
C316 C317 1.372 . S
C316 C321 1.364 . S
C317 H296 0.952 . S
C317 C316 1.372 . S
C317 C318 1.389 . S
C318 H297 0.949 . S
C318 C317 1.389 . S
C318 C319 1.387 . S
C319 C318 1.387 . S
C319 C320 1.372 . S
C320 H298 0.950 . S
C320 C319 1.372 . S
C320 C321 1.379 . S
C321 H299 0.948 . S
C321 C316 1.364 . S
C321 C320 1.379 . S
C322 C291 1.383 . S
C322 C309 1.479 . S
C322 C323 1.398 . S
C323 C288 1.382 . S
C323 H300 0.951 . S
C323 C322 1.398 . S
C324 C325 1.384 . S
C324 H337 0.947 . S
C324 C359 1.382 . S
C325 C324 1.384 . S
C325 C326 1.378 . S
C326 C325 1.378 . S
C326 C327 1.378 . S
C326 H338 0.952 1_556 S
C327 C326 1.378 . S
C327 H339 0.950 . S
C327 C358 1.383 . S
H328 C347 0.947 . S
H329 C348 0.946 1_554 S
H330 C350 0.953 . S
H331 C351 0.945 . S
H332 C353 0.952 . S
H333 C354 0.949 . S
H334 C356 0.950 . S
H335 C357 0.948 . S
H336 C359 0.951 . S
H337 C324 0.947 . S
H338 C326 0.952 1_554 S
H339 C327 0.950 . S
N340 C343 1.382 . S
N340 C345 1.363 . S
N341 C343 1.371 . S
N341 C344 1.372 . S
N342 C344 1.361 . S
N342 C345 1.377 . S
C343 N340 1.382 . S
C343 N341 1.371 . S
C343 C346 1.480 . S
C344 N341 1.372 . S
C344 N342 1.361 . S
C344 C352 1.457 . S
C345 N340 1.363 . S
C345 N342 1.377 . S
C345 C358 1.479 . S
C346 C343 1.480 . S
C346 C347 1.383 . S
C346 C351 1.385 . S
C347 H328 0.947 . S
C347 C346 1.383 . S
C347 C348 1.388 . S
C348 H329 0.946 1_556 S
C348 C347 1.388 . S
C348 C349 1.384 . S
C349 C348 1.384 . S
C349 C350 1.377 . S
C350 H330 0.953 . S
C350 C349 1.377 . S
C350 C351 1.369 . S
C351 H331 0.945 . S
C351 C346 1.385 . S
C351 C350 1.369 . S
C352 C344 1.457 . S
C352 C353 1.372 . S
C352 C357 1.364 . S
C353 H332 0.952 . S
C353 C352 1.372 . S
C353 C354 1.389 . S
C354 H333 0.949 . S
C354 C353 1.389 . S
C354 C355 1.387 . S
C355 C354 1.387 . S
C355 C356 1.372 . S
C356 H334 0.950 . S
C356 C355 1.372 . S
C356 C357 1.379 . S
C357 H335 0.948 . S
C357 C352 1.364 . S
C357 C356 1.379 . S
C358 C327 1.383 . S
C358 C345 1.479 . S
C358 C359 1.398 . S
C359 C324 1.382 . S
C359 H336 0.951 . S
C359 C358 1.398 . S
C360 C361 1.384 . S
C360 H373 0.947 . S
C360 C395 1.382 . S
C361 C360 1.384 . S
C361 C362 1.378 1_556 S
C362 C361 1.378 1_554 S
C362 C363 1.378 1_554 S
C362 H374 0.952 . S
C363 C362 1.378 1_556 S
C363 H375 0.950 1_556 S
C363 C394 1.383 . S
H364 C383 0.947 1_554 S
H365 C384 0.946 . S
H366 C386 0.953 . S
H367 C387 0.945 . S
H368 C389 0.952 . S
H369 C390 0.949 . S
H370 C392 0.950 . S
H371 C393 0.948 . S
H372 C395 0.951 . S
H373 C360 0.947 . S
H374 C362 0.952 . S
H375 C363 0.950 1_554 S
N376 C379 1.382 . S
N376 C381 1.363 . S
N377 C379 1.371 . S
N377 C380 1.372 . S
N378 C380 1.361 . S
N378 C381 1.377 . S
C379 N376 1.382 . S
C379 N377 1.371 . S
C379 C382 1.480 . S
C380 N377 1.372 . S
C380 N378 1.361 . S
C380 C388 1.457 . S
C381 N376 1.363 . S
C381 N378 1.377 . S
C381 C394 1.479 . S
C382 C379 1.480 . S
C382 C383 1.383 . S
C382 C387 1.385 . S
C383 H364 0.947 1_556 S
C383 C382 1.383 . S
C383 C384 1.388 1_556 S
C384 H365 0.946 . S
C384 C383 1.388 1_554 S
C384 C385 1.384 1_554 S
C385 C384 1.384 1_556 S
C385 C386 1.377 . S
C386 H366 0.953 . S
C386 C385 1.377 . S
C386 C387 1.369 . S
C387 H367 0.945 . S
C387 C382 1.385 . S
C387 C386 1.369 . S
C388 C380 1.457 . S
C388 C389 1.372 . S
C388 C393 1.364 . S
C389 H368 0.952 . S
C389 C388 1.372 . S
C389 C390 1.389 . S
C390 H369 0.949 . S
C390 C389 1.389 . S
C390 C391 1.387 . S
C391 C390 1.387 . S
C391 C392 1.372 . S
C392 H370 0.950 . S
C392 C391 1.372 . S
C392 C393 1.379 . S
C393 H371 0.948 . S
C393 C388 1.364 . S
C393 C392 1.379 . S
C394 C363 1.383 . S
C394 C381 1.479 . S
C394 C395 1.398 . S
C395 C360 1.382 . S
C395 H372 0.951 . S
C395 C394 1.398 . S
C396 C397 1.384 . S
C396 H409 0.947 . S
C396 C431 1.382 . S
C397 C396 1.384 . S
C397 C398 1.378 1_556 S
C398 C397 1.378 1_554 S
C398 C399 1.378 1_554 S
C398 H410 0.952 . S
C399 C398 1.378 1_556 S
C399 H411 0.950 1_556 S
C399 C430 1.383 . S
H400 C419 0.947 . S
H401 C420 0.946 1_554 S
H402 C422 0.953 . S
H403 C423 0.945 . S
H404 C425 0.952 . S
H405 C426 0.949 . S
H406 C428 0.950 . S
H407 C429 0.948 . S
H408 C431 0.951 . S
H409 C396 0.947 . S
H410 C398 0.952 . S
H411 C399 0.950 1_554 S
N412 C415 1.382 . S
N412 C417 1.363 . S
N413 C415 1.371 . S
N413 C416 1.372 . S
N414 C416 1.361 . S
N414 C417 1.377 . S
C415 N412 1.382 . S
C415 N413 1.371 . S
C415 C418 1.480 . S
C416 N413 1.372 . S
C416 N414 1.361 . S
C416 C424 1.457 . S
C417 N412 1.363 . S
C417 N414 1.377 . S
C417 C430 1.479 . S
C418 C415 1.480 . S
C418 C419 1.383 . S
C418 C423 1.385 . S
C419 H400 0.947 . S
C419 C418 1.383 . S
C419 C420 1.388 . S
C420 H401 0.946 1_556 S
C420 C419 1.388 . S
C420 C421 1.384 . S
C421 C420 1.384 . S
C421 C422 1.377 . S
C422 H402 0.953 . S
C422 C421 1.377 . S
C422 C423 1.369 . S
C423 H403 0.945 . S
C423 C418 1.385 . S
C423 C422 1.369 . S
C424 C416 1.457 . S
C424 C425 1.372 . S
C424 C429 1.364 . S
C425 H404 0.952 . S
C425 C424 1.372 . S
C425 C426 1.389 . S
C426 H405 0.949 . S
C426 C425 1.389 . S
C426 C427 1.387 . S
C427 C426 1.387 . S
C427 C428 1.372 . S
C428 H406 0.950 . S
C428 C427 1.372 . S
C428 C429 1.379 . S
C429 H407 0.948 . S
C429 C424 1.364 . S
C429 C428 1.379 . S
C430 C399 1.383 . S
C430 C417 1.479 . S
C430 C431 1.398 . S
C431 C396 1.382 . S
C431 H408 0.951 . S
C431 C430 1.398 . S
C432 C433 1.384 . S
C432 H445 0.947 . S
C432 C467 1.382 . S
C433 C432 1.384 . S
C433 C434 1.378 1_554 S
C434 C433 1.378 1_556 S
C434 C435 1.378 1_556 S
C434 H446 0.952 . S
C435 C434 1.378 1_554 S
C435 H447 0.950 1_554 S
C435 C466 1.383 . S
H436 C455 0.949 . S
H437 C456 0.946 . S
H438 C458 0.953 1_545 S
H439 C459 0.945 . S
H440 C461 0.952 . S
H441 C462 0.949 . S
H442 C464 0.950 . S
H443 C465 0.948 . S
H444 C467 0.951 . S
H445 C432 0.947 . S
H446 C434 0.952 . S
H447 C435 0.950 1_556 S
N448 C451 1.382 . S
N448 C453 1.363 . S
N449 C451 1.371 . S
N449 C452 1.372 . S
N450 C452 1.361 . S
N450 C453 1.377 . S
C451 N448 1.382 . S
C451 N449 1.371 . S
C451 C454 1.480 . S
C452 N449 1.372 . S
C452 N450 1.361 . S
C452 C460 1.457 . S
C453 N448 1.363 . S
C453 N450 1.377 . S
C453 C466 1.479 . S
C454 C451 1.480 . S
C454 C455 1.383 . S
C454 C459 1.385 . S
C455 H436 0.949 . S
C455 C454 1.383 . S
C455 C456 1.388 1_554 S
C456 H437 0.946 . S
C456 C455 1.388 1_556 S
C456 C457 1.384 1_556 S
C457 C456 1.384 1_554 S
C457 C458 1.377 . S
C458 H438 0.953 1_565 S
C458 C457 1.377 . S
C458 C459 1.369 . S
C459 H439 0.945 . S
C459 C454 1.385 . S
C459 C458 1.369 . S
C460 C452 1.457 . S
C460 C461 1.372 . S
C460 C465 1.364 . S
C461 H440 0.952 . S
C461 C460 1.372 . S
C461 C462 1.389 . S
C462 H441 0.949 . S
C462 C461 1.389 . S
C462 C463 1.387 . S
C463 C462 1.387 . S
C463 C464 1.372 . S
C464 H442 0.950 . S
C464 C463 1.372 . S
C464 C465 1.379 . S
C465 H443 0.948 . S
C465 C460 1.364 . S
C465 C464 1.379 . S
C466 C435 1.383 . S
C466 C453 1.479 . S
C466 C467 1.398 . S
C467 C432 1.382 . S
C467 H444 0.951 . S
C467 C466 1.398 . S
C468 C469 1.384 . S
C468 H481 0.947 . S
C468 C503 1.382 . S
C469 C468 1.384 . S
C469 C470 1.378 . S
C470 C469 1.378 . S
C470 C471 1.378 . S
C470 H482 0.952 1_554 S
C471 C470 1.378 . S
C471 H483 0.950 . S
C471 C502 1.383 . S
H472 C491 0.947 . S
H473 C492 0.954 . S
H474 C494 0.953 . S
H475 C495 0.945 . S
H476 C497 0.952 . S
H477 C498 0.949 . S
H478 C500 0.950 . S
H479 C501 0.948 . S
H480 C503 0.951 . S
H481 C468 0.947 . S
H482 C470 0.952 1_556 S
H483 C471 0.950 . S
N484 C487 1.382 . S
N484 C489 1.363 . S
N485 C487 1.371 . S
N485 C488 1.372 . S
N486 C488 1.361 . S
N486 C489 1.377 . S
C487 N484 1.382 . S
C487 N485 1.371 . S
C487 C490 1.480 . S
C488 N485 1.372 . S
C488 N486 1.361 . S
C488 C496 1.457 . S
C489 N484 1.363 . S
C489 N486 1.377 . S
C489 C502 1.479 . S
C490 C487 1.480 . S
C490 C491 1.383 . S
C490 C495 1.385 . S
C491 H472 0.947 . S
C491 C490 1.383 . S
C491 C492 1.384 1_554 S
C492 H473 0.954 . S
C492 C491 1.384 1_556 S
C492 C493 1.379 1_556 S
C493 C492 1.379 1_554 S
C493 C494 1.377 . S
C494 H474 0.953 . S
C494 C493 1.377 . S
C494 C495 1.369 . S
C495 H475 0.945 . S
C495 C490 1.385 . S
C495 C494 1.369 . S
C496 C488 1.457 . S
C496 C497 1.372 . S
C496 C501 1.364 . S
C497 H476 0.952 . S
C497 C496 1.372 . S
C497 C498 1.389 . S
C498 H477 0.949 . S
C498 C497 1.389 . S
C498 C499 1.387 . S
C499 C498 1.387 . S
C499 C500 1.372 . S
C500 H478 0.950 . S
C500 C499 1.372 . S
C500 C501 1.379 . S
C501 H479 0.948 . S
C501 C496 1.364 . S
C501 C500 1.379 . S
C502 C471 1.383 . S
C502 C489 1.479 . S
C502 C503 1.398 . S
C503 C468 1.382 . S
C503 H480 0.951 . S
C503 C502 1.398 . S
C504 C505 1.384 . S
C504 H517 0.947 . S
C504 C539 1.382 . S
C505 C504 1.384 . S
C505 C506 1.378 . S
C506 C505 1.378 . S
C506 C507 1.378 . S
C506 H518 0.952 1_554 S
C507 C506 1.378 . S
C507 H519 0.950 . S
C507 C538 1.383 . S
H508 C527 0.947 . S
H509 C528 0.946 . S
H510 C530 0.953 . S
H511 C531 0.945 . S
H512 C533 0.952 . S
H513 C534 0.949 . S
H514 C536 0.950 . S
H515 C537 0.948 . S
H516 C539 0.951 . S
H517 C504 0.947 . S
H518 C506 0.952 1_556 S
H519 C507 0.950 . S
N520 C523 1.382 . S
N520 C525 1.363 . S
N521 C523 1.371 . S
N521 C524 1.372 . S
N522 C524 1.361 . S
N522 C525 1.377 . S
C523 N520 1.382 . S
C523 N521 1.371 . S
C523 C526 1.480 . S
C524 N521 1.372 . S
C524 N522 1.361 . S
C524 C532 1.457 . S
C525 N520 1.363 . S
C525 N522 1.377 . S
C525 C538 1.479 . S
C526 C523 1.480 . S
C526 C527 1.383 . S
C526 C531 1.385 . S
C527 H508 0.947 . S
C527 C526 1.383 . S
C527 C528 1.388 . S
C528 H509 0.946 . S
C528 C527 1.388 . S
C528 C529 1.384 . S
C529 C528 1.384 . S
C529 C530 1.377 . S
C530 H510 0.953 . S
C530 C529 1.377 . S
C530 C531 1.369 . S
C531 H511 0.945 . S
C531 C526 1.385 . S
C531 C530 1.369 . S
C532 C524 1.457 . S
C532 C533 1.372 . S
C532 C537 1.364 . S
C533 H512 0.952 . S
C533 C532 1.372 . S
C533 C534 1.389 . S
C534 H513 0.949 . S
C534 C533 1.389 . S
C534 C535 1.387 . S
C535 C534 1.387 . S
C535 C536 1.372 . S
C536 H514 0.950 . S
C536 C535 1.372 . S
C536 C537 1.379 . S
C537 H515 0.948 . S
C537 C532 1.364 . S
C537 C536 1.379 . S
C538 C507 1.383 . S
C538 C525 1.479 . S
C538 C539 1.398 . S
C539 C504 1.382 . S
C539 H516 0.951 . S
C539 C538 1.398 . S
C540 C541 1.384 . S
C540 H553 0.947 . S
C540 C575 1.382 . S
C541 C540 1.384 . S
C541 C542 1.378 . S
C542 C541 1.378 . S
C542 C543 1.378 . S
C542 H554 0.952 . S
C543 C542 1.378 . S
C543 H555 0.950 . S
C543 C574 1.383 . S
H544 C563 0.947 . S
H545 C564 0.946 . S
H546 C566 0.953 . S
H547 C567 0.945 . S
H548 C569 0.952 . S
H549 C570 0.949 . S
H550 C572 0.950 . S
H551 C573 0.948 . S
H552 C575 0.951 . S
H553 C540 0.947 . S
H554 C542 0.952 . S
H555 C543 0.950 . S
N556 C559 1.382 . S
N556 C561 1.363 . S
N557 C559 1.371 . S
N557 C560 1.372 . S
N558 C560 1.361 . S
N558 C561 1.377 . S
C559 N556 1.382 . S
C559 N557 1.371 . S
C559 C562 1.480 . S
C560 N557 1.372 . S
C560 N558 1.361 . S
C560 C568 1.457 . S
C561 N556 1.363 . S
C561 N558 1.377 . S
C561 C574 1.479 . S
C562 C559 1.480 . S
C562 C563 1.383 . S
C562 C567 1.385 . S
C563 H544 0.947 . S
C563 C562 1.383 . S
C563 C564 1.388 . S
C564 H545 0.946 . S
C564 C563 1.388 . S
C564 C565 1.384 . S
C565 C564 1.384 . S
C565 C566 1.377 . S
C566 H546 0.953 . S
C566 C565 1.377 . S
C566 C567 1.369 . S
C567 H547 0.945 . S
C567 C562 1.385 . S
C567 C566 1.369 . S
C568 C560 1.457 . S
C568 C569 1.372 . S
C568 C573 1.364 . S
C569 H548 0.952 . S
C569 C568 1.372 . S
C569 C570 1.389 . S
C570 H549 0.949 . S
C570 C569 1.389 . S
C570 C571 1.387 . S
C571 C570 1.387 . S
C571 C572 1.372 . S
C572 H550 0.950 . S
C572 C571 1.372 . S
C572 C573 1.379 . S
C573 H551 0.948 . S
C573 C568 1.364 . S
C573 C572 1.379 . S
C574 C543 1.383 . S
C574 C561 1.479 . S
C574 C575 1.398 . S
C575 C540 1.382 . S
C575 H552 0.951 . S
C575 C574 1.398 . S
C576 C577 1.384 . S
C576 H589 0.947 . S
C576 C611 1.382 . S
C577 C576 1.384 . S
C577 C578 1.378 . S
C578 C577 1.378 . S
C578 C579 1.378 . S
C578 H590 0.952 . S
C579 C578 1.378 . S
C579 H591 0.950 . S
C579 C610 1.383 . S
H580 C599 0.947 . S
H581 C600 0.946 . S
H582 C602 0.953 . S
H583 C603 0.945 . S
H584 C605 0.952 . S
H585 C606 0.942 . S
H586 C608 0.950 . S
H587 C609 0.948 . S
H588 C611 0.951 . S
H589 C576 0.947 . S
H590 C578 0.952 . S
H591 C579 0.950 . S
N592 C595 1.382 . S
N592 C597 1.363 . S
N593 C595 1.371 . S
N593 C596 1.372 . S
N594 C596 1.361 . S
N594 C597 1.377 . S
C595 N592 1.382 . S
C595 N593 1.371 . S
C595 C598 1.480 . S
C596 N593 1.372 . S
C596 N594 1.361 . S
C596 C604 1.457 . S
C597 N592 1.363 . S
C597 N594 1.377 . S
C597 C610 1.479 . S
C598 C595 1.480 . S
C598 C599 1.383 . S
C598 C603 1.385 . S
C599 H580 0.947 . S
C599 C598 1.383 . S
C599 C600 1.388 . S
C600 H581 0.946 . S
C600 C599 1.388 . S
C600 C601 1.384 . S
C601 C600 1.384 . S
C601 C602 1.377 . S
C602 H582 0.953 . S
C602 C601 1.377 . S
C602 C603 1.369 . S
C603 H583 0.945 . S
C603 C598 1.385 . S
C603 C602 1.369 . S
C604 C596 1.457 . S
C604 C605 1.372 . S
C604 C609 1.364 1_455 S
C605 H584 0.952 . S
C605 C604 1.372 . S
C605 C606 1.390 . S
C606 H585 0.942 . S
C606 C605 1.390 . S
C606 C607 1.392 1_455 S
C607 C606 1.392 1_655 S
C607 C608 1.372 . S
C608 H586 0.950 . S
C608 C607 1.372 . S
C608 C609 1.379 . S
C609 H587 0.948 . S
C609 C604 1.364 1_655 S
C609 C608 1.379 . S
C610 C579 1.383 . S
C610 C597 1.479 . S
C610 C611 1.398 . S
C611 C576 1.382 . S
C611 H588 0.951 . S
C611 C610 1.398 . S
C612 C613 1.384 . S
C612 H625 0.947 . S
C612 C647 1.382 . S
C613 C612 1.384 . S
C613 C614 1.378 . S
C614 C613 1.378 . S
C614 C615 1.378 . S
C614 H626 0.952 . S
C615 C614 1.378 . S
C615 H627 0.950 . S
C615 C646 1.383 . S
H616 C635 0.947 . S
H617 C636 0.946 . S
H618 C638 0.953 . S
H619 C639 0.945 . S
H620 C641 0.952 . S
H621 C642 0.949 . S
H622 C644 0.950 . S
H623 C645 0.948 . S
H624 C647 0.951 . S
H625 C612 0.947 . S
H626 C614 0.952 . S
H627 C615 0.950 . S
N628 C631 1.382 . S
N628 C633 1.363 . S
N629 C631 1.371 . S
N629 C632 1.372 . S
N630 C632 1.361 . S
N630 C633 1.377 . S
C631 N628 1.382 . S
C631 N629 1.371 . S
C631 C634 1.480 . S
C632 N629 1.372 . S
C632 N630 1.361 . S
C632 C640 1.457 . S
C633 N628 1.363 . S
C633 N630 1.377 . S
C633 C646 1.479 . S
C634 C631 1.480 . S
C634 C635 1.383 . S
C634 C639 1.385 . S
C635 H616 0.947 . S
C635 C634 1.383 . S
C635 C636 1.388 . S
C636 H617 0.946 . S
C636 C635 1.388 . S
C636 C637 1.384 . S
C637 C636 1.384 . S
C637 C638 1.377 . S
C638 H618 0.953 . S
C638 C637 1.377 . S
C638 C639 1.369 . S
C639 H619 0.945 . S
C639 C634 1.385 . S
C639 C638 1.369 . S
C640 C632 1.457 . S
C640 C641 1.372 . S
C640 C645 1.364 . S
C641 H620 0.952 . S
C641 C640 1.372 . S
C641 C642 1.389 . S
C642 H621 0.949 . S
C642 C641 1.389 . S
C642 C643 1.387 . S
C643 C642 1.387 . S
C643 C644 1.372 . S
C644 H622 0.950 . S
C644 C643 1.372 . S
C644 C645 1.379 . S
C645 H623 0.948 . S
C645 C640 1.364 . S
C645 C644 1.379 . S
C646 C615 1.383 . S
C646 C633 1.479 . S
C646 C647 1.398 . S
C647 C612 1.382 . S
C647 H624 0.951 . S
C647 C646 1.398 . S
C648 Eu649 2.835 . S
C648 C650 1.500 . S
C648 O668 1.257 1_545 S
C648 O669 1.260 . S
Eu649 C648 2.835 . S
Eu649 O668 2.473 1_545 S
Eu649 O669 2.480 . S
Eu649 O670 2.430 . S
Eu649 O671 2.670 1_554 S
Eu649 O672 2.394 1_545 S
Eu649 O677 2.355 1_545 S
Eu649 O679 2.374 . S
C650 C648 1.500 . S
C650 C651 1.377 . S
C650 C655 1.377 1_545 S
C651 C650 1.377 . S
C651 C652 1.395 . S
C651 H680 0.931 . S
C652 C651 1.395 . S
C652 C653 1.367 1_545 S
C652 H681 0.931 . S
C653 C652 1.367 1_565 S
C653 C654 1.408 . S
C654 C653 1.408 . S
C654 C655 1.378 . S
C654 H682 0.931 . S
C655 C650 1.377 1_565 S
C655 C654 1.378 . S
C655 H683 0.931 . S
C656 O670 1.259 1_556 S
C656 O671 1.270 . S
C657 O672 1.251 . S
C657 O673 1.251 1_554 S
C658 Eu659 2.835 . S
C658 C660 1.500 . S
C658 O674 1.257 1_565 S
C658 O675 1.260 . S
Eu659 C658 2.835 . S
Eu659 O671 2.355 1_565 S
Eu659 O673 2.374 . S
Eu659 O674 2.473 1_565 S
Eu659 O675 2.480 . S
Eu659 O676 2.430 . S
Eu659 O677 2.670 1_556 S
Eu659 O678 2.394 1_565 S
C660 C658 1.500 . S
C660 C661 1.377 . S
C660 C665 1.377 1_565 S
C661 C660 1.377 . S
C661 C662 1.395 . S
C661 H684 0.931 . S
C662 C661 1.395 . S
C662 C663 1.360 1_565 S
C662 H685 0.931 . S
C663 C662 1.360 1_545 S
C663 C664 1.415 . S
C664 C663 1.415 . S
C664 C665 1.378 . S
C664 H686 0.931 . S
C665 C660 1.377 1_545 S
C665 C664 1.378 . S
C665 H687 0.931 . S
C666 O676 1.259 1_554 S
C666 O677 1.270 . S
C667 O678 1.251 . S
C667 O679 1.251 1_556 S
O668 C648 1.257 1_565 S
O668 Eu649 2.473 1_565 S
O669 C648 1.260 . S
O669 Eu649 2.480 . S
O670 Eu649 2.430 . S
O670 C656 1.259 1_554 S
O671 Eu649 2.670 1_556 S
O671 C656 1.270 . S
O671 Eu659 2.355 1_545 S
O672 Eu649 2.394 1_565 S
O672 C657 1.251 . S
O673 C657 1.251 1_556 S
O673 Eu659 2.374 . S
O674 C658 1.257 1_545 S
O674 Eu659 2.473 1_545 S
O675 C658 1.260 . S
O675 Eu659 2.480 . S
O676 Eu659 2.430 . S
O676 C666 1.259 1_556 S
O677 Eu649 2.355 1_565 S
O677 Eu659 2.670 1_554 S
O677 C666 1.270 . S
O678 Eu659 2.394 1_545 S
O678 C667 1.251 . S
O679 Eu649 2.374 . S
O679 C667 1.251 1_554 S
H680 C651 0.931 . S
H681 C652 0.931 . S
H682 C654 0.931 . S
H683 C655 0.931 . S
H684 C661 0.931 . S
H685 C662 0.931 . S
H686 C664 0.931 . S
H687 C665 0.931 . S
C688 Eu689 2.835 . S
C688 C690 1.500 1_655 S
C688 O708 1.257 1_655 S
C688 O709 1.260 . S
Eu689 C688 2.835 . S
Eu689 O708 2.473 1_655 S
Eu689 O709 2.480 . S
Eu689 O710 2.430 . S
Eu689 O711 2.670 1_554 S
Eu689 O712 2.394 1_655 S
Eu689 O717 2.355 1_655 S
Eu689 O719 2.374 . S
C690 C688 1.500 1_455 S
C690 C691 1.377 1_455 S
C690 C695 1.377 . S
C691 C690 1.377 1_655 S
C691 C692 1.395 . S
C691 H720 0.931 . S
C692 C691 1.395 . S
C692 C693 1.383 1_655 S
C692 H721 0.931 . S
C693 C692 1.383 1_455 S
C693 C694 1.394 . S
C694 C693 1.394 . S
C694 C695 1.378 . S
C694 H722 0.931 . S
C695 C690 1.377 . S
C695 C694 1.378 . S
C695 H723 0.931 . S
C696 O710 1.259 1_556 S
C696 O711 1.270 . S
C697 O712 1.251 . S
C697 O713 1.251 . S
C698 Eu699 2.835 . S
C698 C700 1.500 1_455 S
C698 O714 1.257 1_455 S
C698 O715 1.260 . S
Eu699 C698 2.835 . S
Eu699 O711 2.355 1_455 S
Eu699 O713 2.374 1_556 S
Eu699 O714 2.473 1_455 S
Eu699 O715 2.480 . S
Eu699 O716 2.430 . S
Eu699 O717 2.670 1_556 S
Eu699 O718 2.394 1_455 S
C700 C698 1.500 1_655 S
C700 C701 1.377 1_655 S
C700 C705 1.377 . S
C701 C700 1.377 1_455 S
C701 C702 1.395 . S
C701 H724 0.931 . S
C702 C701 1.395 . S
C702 C703 1.383 1_455 S
C702 H725 0.931 . S
C703 C702 1.383 1_655 S
C703 C704 1.394 . S
C704 C703 1.394 . S
C704 C705 1.378 . S
C704 H726 0.931 . S
C705 C700 1.377 . S
C705 C704 1.378 . S
C705 H727 0.931 . S
C706 O716 1.259 1_554 S
C706 O717 1.270 . S
C707 O718 1.251 . S
C707 O719 1.251 1_556 S
O708 C688 1.257 1_455 S
O708 Eu689 2.473 1_455 S
O709 C688 1.260 . S
O709 Eu689 2.480 . S
O710 Eu689 2.430 . S
O710 C696 1.259 1_554 S
O711 Eu689 2.670 1_556 S
O711 C696 1.270 . S
O711 Eu699 2.355 1_655 S
O712 Eu689 2.394 1_455 S
O712 C697 1.251 . S
O713 C697 1.251 . S
O713 Eu699 2.374 1_554 S
O714 C698 1.257 1_655 S
O714 Eu699 2.473 1_655 S
O715 C698 1.260 . S
O715 Eu699 2.480 . S
O716 Eu699 2.430 . S
O716 C706 1.259 1_556 S
O717 Eu689 2.355 1_455 S
O717 Eu699 2.670 1_554 S
O717 C706 1.270 . S
O718 Eu699 2.394 1_655 S
O718 C707 1.251 . S
O719 Eu689 2.374 . S
O719 C707 1.251 1_554 S
H720 C691 0.931 . S
H721 C692 0.931 . S
H722 C694 0.931 . S
H723 C695 0.931 . S
H724 C701 0.931 . S
H725 C702 0.931 . S
H726 C704 0.931 . S
H727 C705 0.931 . S
C728 Eu729 2.835 . S
C728 C730 1.500 . S
C728 O748 1.257 . S
C728 O749 1.260 . S
Eu729 C728 2.835 . S
Eu729 O748 2.473 . S
Eu729 O749 2.480 . S
Eu729 O750 2.430 . S
Eu729 O751 2.670 1_556 S
Eu729 O752 2.394 . S
Eu729 O757 2.355 . S
Eu729 O759 2.405 . S
C730 C728 1.500 . S
C730 C731 1.377 . S
C730 C735 1.377 . S
C731 C730 1.377 . S
C731 C732 1.395 . S
C731 H760 0.931 . S
C732 C731 1.395 . S
C732 C733 1.383 . S
C732 H761 0.931 . S
C733 C732 1.383 . S
C733 C734 1.394 . S
C734 C733 1.394 . S
C734 C735 1.378 . S
C734 H762 0.931 . S
C735 C730 1.377 . S
C735 C734 1.378 . S
C735 H763 0.931 . S
C736 O750 1.259 1_554 S
C736 O751 1.270 . S
C737 O752 1.251 . S
C737 O753 1.251 1_556 S
C738 Eu739 2.835 . S
C738 C740 1.500 . S
C738 O754 1.257 . S
C738 O755 1.260 . S
Eu739 C738 2.835 . S
Eu739 O751 2.355 . S
Eu739 O753 2.374 . S
Eu739 O754 2.473 . S
Eu739 O755 2.480 . S
Eu739 O756 2.430 . S
Eu739 O757 2.670 1_554 S
Eu739 O758 2.394 . S
C740 C738 1.500 . S
C740 C741 1.377 . S
C740 C745 1.377 . S
C741 C740 1.377 . S
C741 C742 1.395 . S
C741 H764 0.931 . S
C742 C741 1.395 . S
C742 C743 1.383 . S
C742 H765 0.931 . S
C743 C742 1.383 . S
C743 C744 1.394 . S
C744 C743 1.394 . S
C744 C745 1.378 . S
C744 H766 0.931 . S
C745 C740 1.377 . S
C745 C744 1.378 . S
C745 H767 0.931 . S
C746 O756 1.259 1_556 S
C746 O757 1.270 . S
C747 O758 1.251 . S
C747 O759 1.212 1_554 S
O748 C728 1.257 . S
O748 Eu729 2.473 . S
O749 C728 1.260 . S
O749 Eu729 2.480 . S
O750 Eu729 2.430 . S
O750 C736 1.259 1_556 S
O751 Eu729 2.670 1_554 S
O751 C736 1.270 . S
O751 Eu739 2.355 . S
O752 Eu729 2.394 . S
O752 C737 1.251 . S
O753 C737 1.251 1_554 S
O753 Eu739 2.374 . S
O754 C738 1.257 . S
O754 Eu739 2.473 . S
O755 C738 1.260 . S
O755 Eu739 2.480 . S
O756 Eu739 2.430 . S
O756 C746 1.259 1_554 S
O757 Eu729 2.355 . S
O757 Eu739 2.670 1_556 S
O757 C746 1.270 . S
O758 Eu739 2.394 . S
O758 C747 1.251 . S
O759 Eu729 2.405 . S
O759 C747 1.212 1_556 S
H760 C731 0.931 . S
H761 C732 0.931 . S
H762 C734 0.931 . S
H763 C735 0.931 . S
H764 C741 0.931 . S
H765 C742 0.931 . S
H766 C744 0.931 . S
H767 C745 0.931 . S
C768 Eu769 2.835 . S
C768 C770 1.500 . S
C768 O788 1.257 . S
C768 O789 1.260 . S
Eu769 C768 2.835 . S
Eu769 O788 2.473 . S
Eu769 O789 2.480 . S
Eu769 O790 2.430 . S
Eu769 O791 2.670 . S
Eu769 O792 2.394 . S
Eu769 O797 2.355 . S
Eu769 O799 2.374 . S
C770 C768 1.500 . S
C770 C771 1.377 . S
C770 C775 1.377 . S
C771 C770 1.377 . S
C771 C772 1.395 . S
C771 H800 0.931 . S
C772 C771 1.395 . S
C772 C773 1.383 . S
C772 H801 0.931 . S
C773 C772 1.383 . S
C773 C774 1.394 . S
C774 C773 1.394 . S
C774 C775 1.378 . S
C774 H802 0.931 . S
C775 C770 1.377 . S
C775 C774 1.378 . S
C775 H803 0.931 . S
C776 O790 1.259 . S
C776 O791 1.270 . S
C777 O792 1.251 . S
C777 O793 1.251 . S
C778 Eu779 2.835 . S
C778 C780 1.500 . S
C778 O794 1.257 . S
C778 O795 1.260 . S
Eu779 C778 2.835 . S
Eu779 O791 2.355 . S
Eu779 O793 2.374 . S
Eu779 O794 2.473 . S
Eu779 O795 2.480 . S
Eu779 O796 2.430 . S
Eu779 O797 2.670 . S
Eu779 O798 2.394 . S
C780 C778 1.500 . S
C780 C781 1.377 . S
C780 C785 1.377 . S
C781 C780 1.377 . S
C781 C782 1.395 . S
C781 H804 0.931 . S
C782 C781 1.395 . S
C782 C783 1.383 . S
C782 H805 0.931 . S
C783 C782 1.383 . S
C783 C784 1.394 . S
C784 C783 1.394 . S
C784 C785 1.378 . S
C784 H806 0.931 . S
C785 C780 1.377 . S
C785 C784 1.378 . S
C785 H807 0.931 . S
C786 O796 1.259 . S
C786 O797 1.270 . S
C787 O798 1.251 . S
C787 O799 1.251 . S
O788 C768 1.257 . S
O788 Eu769 2.473 . S
O789 C768 1.260 . S
O789 Eu769 2.480 . S
O790 Eu769 2.430 . S
O790 C776 1.259 . S
O791 Eu769 2.670 . S
O791 C776 1.270 . S
O791 Eu779 2.355 . S
O792 Eu769 2.394 . S
O792 C777 1.251 . S
O793 C777 1.251 . S
O793 Eu779 2.374 . S
O794 C778 1.257 . S
O794 Eu779 2.473 . S
O795 C778 1.260 . S
O795 Eu779 2.480 . S
O796 Eu779 2.430 . S
O796 C786 1.259 . S
O797 Eu769 2.355 . S
O797 Eu779 2.670 . S
O797 C786 1.270 . S
O798 Eu779 2.394 . S
O798 C787 1.251 . S
O799 Eu769 2.374 . S
O799 C787 1.251 . S
H800 C771 0.931 . S
H801 C772 0.931 . S
H802 C774 0.931 . S
H803 C775 0.931 . S
H804 C781 0.931 . S
H805 C782 0.931 . S
H806 C784 0.931 . S
H807 C785 0.931 . S
C808 Eu809 2.835 . S
C808 C810 1.500 . S
C808 O828 1.257 . S
C808 O829 1.260 . S
Eu809 C808 2.835 . S
Eu809 O828 2.473 . S
Eu809 O829 2.480 . S
Eu809 O830 2.430 . S
Eu809 O831 2.670 . S
Eu809 O832 2.394 . S
Eu809 O837 2.355 . S
Eu809 O839 2.374 . S
C810 C808 1.500 . S
C810 C811 1.377 . S
C810 C815 1.377 . S
C811 C810 1.377 . S
C811 C812 1.395 . S
C811 H840 0.931 . S
C812 C811 1.395 . S
C812 C813 1.383 . S
C812 H841 0.931 . S
C813 C812 1.383 . S
C813 C814 1.394 . S
C814 C813 1.394 . S
C814 C815 1.378 . S
C814 H842 0.931 . S
C815 C810 1.377 . S
C815 C814 1.378 . S
C815 H843 0.931 . S
C816 O830 1.259 . S
C816 O831 1.270 . S
C817 O832 1.251 . S
C817 O833 1.251 . S
C818 Eu819 2.835 . S
C818 C820 1.500 . S
C818 O834 1.257 . S
C818 O835 1.260 . S
Eu819 C818 2.835 . S
Eu819 O831 2.355 . S
Eu819 O833 2.374 . S
Eu819 O834 2.473 . S
Eu819 O835 2.480 . S
Eu819 O836 2.430 . S
Eu819 O837 2.670 . S
Eu819 O838 2.394 . S
C820 C818 1.500 . S
C820 C821 1.377 . S
C820 C825 1.377 . S
C821 C820 1.377 . S
C821 C822 1.395 . S
C821 H844 0.931 . S
C822 C821 1.395 . S
C822 C823 1.383 . S
C822 H845 0.931 . S
C823 C822 1.383 . S
C823 C824 1.394 . S
C824 C823 1.394 . S
C824 C825 1.378 . S
C824 H846 0.931 . S
C825 C820 1.377 . S
C825 C824 1.378 . S
C825 H847 0.931 . S
C826 O836 1.259 . S
C826 O837 1.270 . S
C827 O838 1.251 . S
C827 O839 1.251 . S
O828 C808 1.257 . S
O828 Eu809 2.473 . S
O829 C808 1.260 . S
O829 Eu809 2.480 . S
O830 Eu809 2.430 . S
O830 C816 1.259 . S
O831 Eu809 2.670 . S
O831 C816 1.270 . S
O831 Eu819 2.355 . S
O832 Eu809 2.394 . S
O832 C817 1.251 . S
O833 C817 1.251 . S
O833 Eu819 2.374 . S
O834 C818 1.257 . S
O834 Eu819 2.473 . S
O835 C818 1.260 . S
O835 Eu819 2.480 . S
O836 Eu819 2.430 . S
O836 C826 1.259 . S
O837 Eu809 2.355 . S
O837 Eu819 2.670 . S
O837 C826 1.270 . S
O838 Eu819 2.394 . S
O838 C827 1.251 . S
O839 Eu809 2.374 . S
O839 C827 1.251 . S
H840 C811 0.931 . S
H841 C812 0.931 . S
H842 C814 0.931 . S
H843 C815 0.931 . S
H844 C821 0.931 . S
H845 C822 0.931 . S
H846 C824 0.931 . S
H847 C825 0.931 . S
C848 Eu849 2.835 . S
C848 C850 1.500 . S
C848 O868 1.257 . S
C848 O869 1.260 . S
Eu849 C848 2.835 . S
Eu849 O868 2.473 . S
Eu849 O869 2.480 . S
Eu849 O870 2.430 . S
Eu849 O871 2.670 . S
Eu849 O872 2.394 . S
Eu849 O877 2.355 . S
Eu849 O879 2.374 . S
C850 C848 1.500 . S
C850 C851 1.377 . S
C850 C855 1.377 . S
C851 C850 1.377 . S
C851 C852 1.395 . S
C851 H880 0.931 . S
C852 C851 1.395 . S
C852 C853 1.383 . S
C852 H881 0.931 . S
C853 C852 1.383 . S
C853 C854 1.394 . S
C854 C853 1.394 . S
C854 C855 1.378 . S
C854 H882 0.931 . S
C855 C850 1.377 . S
C855 C854 1.378 . S
C855 H883 0.931 . S
C856 O870 1.259 . S
C856 O871 1.270 . S
C857 O872 1.251 . S
C857 O873 1.251 . S
C858 Eu859 2.835 . S
C858 C860 1.500 . S
C858 O874 1.257 . S
C858 O875 1.260 . S
Eu859 C858 2.835 . S
Eu859 O871 2.355 . S
Eu859 O873 2.374 . S
Eu859 O874 2.473 . S
Eu859 O875 2.480 . S
Eu859 O876 2.430 . S
Eu859 O877 2.670 . S
Eu859 O878 2.394 . S
C860 C858 1.500 . S
C860 C861 1.377 . S
C860 C865 1.377 . S
C861 C860 1.377 . S
C861 C862 1.395 . S
C861 H884 0.931 . S
C862 C861 1.395 . S
C862 C863 1.383 . S
C862 H885 0.931 . S
C863 C862 1.383 . S
C863 C864 1.394 . S
C864 C863 1.394 . S
C864 C865 1.378 . S
C864 H886 0.931 . S
C865 C860 1.377 . S
C865 C864 1.378 . S
C865 H887 0.931 . S
C866 O876 1.259 . S
C866 O877 1.270 . S
C867 O878 1.251 . S
C867 O879 1.251 . S
O868 C848 1.257 . S
O868 Eu849 2.473 . S
O869 C848 1.260 . S
O869 Eu849 2.480 . S
O870 Eu849 2.430 . S
O870 C856 1.259 . S
O871 Eu849 2.670 . S
O871 C856 1.270 . S
O871 Eu859 2.355 . S
O872 Eu849 2.394 . S
O872 C857 1.251 . S
O873 C857 1.251 . S
O873 Eu859 2.374 . S
O874 C858 1.257 . S
O874 Eu859 2.473 . S
O875 C858 1.260 . S
O875 Eu859 2.480 . S
O876 Eu859 2.430 . S
O876 C866 1.259 . S
O877 Eu849 2.355 . S
O877 Eu859 2.670 . S
O877 C866 1.270 . S
O878 Eu859 2.394 . S
O878 C867 1.251 . S
O879 Eu849 2.374 . S
O879 C867 1.251 . S
H880 C851 0.931 . S
H881 C852 0.931 . S
H882 C854 0.931 . S
H883 C855 0.931 . S
H884 C861 0.931 . S
H885 C862 0.931 . S
H886 C864 0.931 . S
H887 C865 0.931 . S
C888 Eu889 2.835 . S
C888 C890 1.500 . S
C888 O908 1.257 . S
C888 O909 1.260 . S
Eu889 C888 2.835 . S
Eu889 O908 2.473 . S
Eu889 O909 2.480 . S
Eu889 O910 2.430 . S
Eu889 O911 2.670 . S
Eu889 O912 2.394 . S
Eu889 O917 2.355 . S
Eu889 O919 2.374 . S
C890 C888 1.500 . S
C890 C891 1.377 . S
C890 C895 1.377 . S
C891 C890 1.377 . S
C891 C892 1.395 . S
C891 H920 0.931 . S
C892 C891 1.395 . S
C892 C893 1.383 . S
C892 H921 0.931 . S
C893 C892 1.383 . S
C893 C894 1.394 . S
C894 C893 1.394 . S
C894 C895 1.378 . S
C894 H922 0.931 . S
C895 C890 1.377 . S
C895 C894 1.378 . S
C895 H923 0.931 . S
C896 O910 1.259 . S
C896 O911 1.270 . S
C897 O912 1.251 . S
C897 O913 1.251 . S
C898 Eu899 2.835 . S
C898 C900 1.500 . S
C898 O914 1.257 . S
C898 O915 1.260 . S
Eu899 C898 2.835 . S
Eu899 O911 2.355 . S
Eu899 O913 2.374 . S
Eu899 O914 2.473 . S
Eu899 O915 2.480 . S
Eu899 O916 2.430 . S
Eu899 O917 2.670 . S
Eu899 O918 2.394 . S
C900 C898 1.500 . S
C900 C901 1.377 . S
C900 C905 1.377 . S
C901 C900 1.377 . S
C901 C902 1.395 . S
C901 H924 0.931 . S
C902 C901 1.395 . S
C902 C903 1.383 . S
C902 H925 0.931 . S
C903 C902 1.383 . S
C903 C904 1.394 . S
C904 C903 1.394 . S
C904 C905 1.378 . S
C904 H926 0.931 . S
C905 C900 1.377 . S
C905 C904 1.378 . S
C905 H927 0.931 . S
C906 O916 1.259 . S
C906 O917 1.270 . S
C907 O918 1.251 . S
C907 O919 1.251 . S
O908 C888 1.257 . S
O908 Eu889 2.473 . S
O909 C888 1.260 . S
O909 Eu889 2.480 . S
O910 Eu889 2.430 . S
O910 C896 1.259 . S
O911 Eu889 2.670 . S
O911 C896 1.270 . S
O911 Eu899 2.355 . S
O912 Eu889 2.394 . S
O912 C897 1.251 . S
O913 C897 1.251 . S
O913 Eu899 2.374 . S
O914 C898 1.257 . S
O914 Eu899 2.473 . S
O915 C898 1.260 . S
O915 Eu899 2.480 . S
O916 Eu899 2.430 . S
O916 C906 1.259 . S
O917 Eu889 2.355 . S
O917 Eu899 2.670 . S
O917 C906 1.270 . S
O918 Eu899 2.394 . S
O918 C907 1.251 . S
O919 Eu889 2.374 . S
O919 C907 1.251 . S
H920 C891 0.931 . S
H921 C892 0.931 . S
H922 C894 0.931 . S
H923 C895 0.931 . S
H924 C901 0.931 . S
H925 C902 0.931 . S
H926 C904 0.931 . S
H927 C905 0.931 . S
C928 Eu929 2.835 . S
C928 C930 1.500 . S
C928 O948 1.257 . S
C928 O949 1.260 . S
Eu929 C928 2.835 . S
Eu929 O948 2.473 . S
Eu929 O949 2.480 . S
Eu929 O950 2.430 . S
Eu929 O951 2.670 . S
Eu929 O952 2.394 . S
Eu929 O957 2.355 . S
Eu929 O959 2.374 . S
C930 C928 1.500 . S
C930 C931 1.377 . S
C930 C935 1.377 . S
C931 C930 1.377 . S
C931 C932 1.395 . S
C931 H960 0.931 . S
C932 C931 1.395 . S
C932 C933 1.383 . S
C932 H961 0.931 . S
C933 C932 1.383 . S
C933 C934 1.394 . S
C934 C933 1.394 . S
C934 C935 1.378 . S
C934 H962 0.931 . S
C935 C930 1.377 . S
C935 C934 1.378 . S
C935 H963 0.931 . S
C936 O950 1.259 . S
C936 O951 1.270 . S
C937 O952 1.251 . S
C937 O953 1.251 . S
C938 Eu939 2.835 . S
C938 C940 1.500 . S
C938 O954 1.257 . S
C938 O955 1.260 . S
Eu939 C938 2.835 . S
Eu939 O951 2.355 . S
Eu939 O953 2.374 . S
Eu939 O954 2.473 . S
Eu939 O955 2.480 . S
Eu939 O956 2.430 . S
Eu939 O957 2.670 . S
Eu939 O958 2.394 . S
C940 C938 1.500 . S
C940 C941 1.377 . S
C940 C945 1.377 . S
C941 C940 1.377 . S
C941 C942 1.395 . S
C941 H964 0.931 . S
C942 C941 1.395 . S
C942 C943 1.383 . S
C942 H965 0.931 . S
C943 C942 1.383 . S
C943 C944 1.394 . S
C944 C943 1.394 . S
C944 C945 1.378 . S
C944 H966 0.931 . S
C945 C940 1.377 . S
C945 C944 1.378 . S
C945 H967 0.931 . S
C946 O956 1.259 . S
C946 O957 1.270 . S
C947 O958 1.251 . S
C947 O959 1.251 . S
O948 C928 1.257 . S
O948 Eu929 2.473 . S
O949 C928 1.260 . S
O949 Eu929 2.480 . S
O950 Eu929 2.430 . S
O950 C936 1.259 . S
O951 Eu929 2.670 . S
O951 C936 1.270 . S
O951 Eu939 2.355 . S
O952 Eu929 2.394 . S
O952 C937 1.251 . S
O953 C937 1.251 . S
O953 Eu939 2.374 . S
O954 C938 1.257 . S
O954 Eu939 2.473 . S
O955 C938 1.260 . S
O955 Eu939 2.480 . S
O956 Eu939 2.430 . S
O956 C946 1.259 . S
O957 Eu929 2.355 . S
O957 Eu939 2.670 . S
O957 C946 1.270 . S
O958 Eu939 2.394 . S
O958 C947 1.251 . S
O959 Eu929 2.374 . S
O959 C947 1.251 . S
H960 C931 0.931 . S
H961 C932 0.931 . S
H962 C934 0.931 . S
H963 C935 0.931 . S
H964 C941 0.931 . S
H965 C942 0.931 . S
H966 C944 0.931 . S
H967 C945 0.931 . S
C968 Eu969 2.835 . S
C968 C970 1.500 . S
C968 O988 1.257 . S
C968 O989 1.260 . S
Eu969 C968 2.835 . S
Eu969 O988 2.473 . S
Eu969 O989 2.480 . S
Eu969 O990 2.430 . S
Eu969 O991 2.670 . S
Eu969 O992 2.394 . S
Eu969 O997 2.355 . S
Eu969 O999 2.374 . S
C970 C968 1.500 . S
C970 C971 1.377 . S
C970 C975 1.377 . S
C971 C970 1.377 . S
C971 C972 1.395 . S
C971 H1000 0.931 . S
C972 C971 1.395 . S
C972 C973 1.383 . S
C972 H1001 0.931 . S
C973 C972 1.383 . S
C973 C974 1.394 . S
C974 C973 1.394 . S
C974 C975 1.378 . S
C974 H1002 0.931 . S
C975 C970 1.377 . S
C975 C974 1.378 . S
C975 H1003 0.931 . S
C976 O990 1.259 . S
C976 O991 1.270 . S
C977 O992 1.251 . S
C977 O993 1.251 . S
C978 Eu979 2.835 . S
C978 C980 1.500 . S
C978 O994 1.257 . S
C978 O995 1.260 . S
Eu979 C978 2.835 . S
Eu979 O991 2.355 . S
Eu979 O993 2.374 . S
Eu979 O994 2.473 . S
Eu979 O995 2.480 . S
Eu979 O996 2.430 . S
Eu979 O997 2.670 . S
Eu979 O998 2.394 . S
C980 C978 1.500 . S
C980 C981 1.377 . S
C980 C985 1.377 . S
C981 C980 1.377 . S
C981 C982 1.395 . S
C981 H1004 0.931 . S
C982 C981 1.395 . S
C982 C983 1.383 . S
C982 H1005 0.931 . S
C983 C982 1.383 . S
C983 C984 1.394 . S
C984 C983 1.394 . S
C984 C985 1.378 . S
C984 H1006 0.931 . S
C985 C980 1.377 . S
C985 C984 1.378 . S
C985 H1007 0.931 . S
C986 O996 1.259 . S
C986 O997 1.270 . S
C987 O998 1.251 . S
C987 O999 1.251 . S
O988 C968 1.257 . S
O988 Eu969 2.473 . S
O989 C968 1.260 . S
O989 Eu969 2.480 . S
O990 Eu969 2.430 . S
O990 C976 1.259 . S
O991 Eu969 2.670 . S
O991 C976 1.270 . S
O991 Eu979 2.355 . S
O992 Eu969 2.394 . S
O992 C977 1.251 . S
O993 C977 1.251 . S
O993 Eu979 2.374 . S
O994 C978 1.257 . S
O994 Eu979 2.473 . S
O995 C978 1.260 . S
O995 Eu979 2.480 . S
O996 Eu979 2.430 . S
O996 C986 1.259 . S
O997 Eu969 2.355 . S
O997 Eu979 2.670 . S
O997 C986 1.270 . S
O998 Eu979 2.394 . S
O998 C987 1.251 . S
O999 Eu969 2.374 . S
O999 C987 1.251 . S
H1000 C971 0.931 . S
H1001 C972 0.931 . S
H1002 C974 0.931 . S
H1003 C975 0.931 . S
H1004 C981 0.931 . S
H1005 C982 0.931 . S
H1006 C984 0.931 . S
H1007 C985 0.931 . S
C469 C657 2.312 . S
C505 C697 2.123 . S
C433 C736 2.655 . S
C397 C696 2.283 . S
C737 C325 1.820 . S
C361 C656 2.427 . S
C667 C421 2.348 . S
C707 C349 2.120 . S
C385 C746 2.660 . S
C493 C706 2.299 . S
C529 C747 1.870 . S
C666 C457 2.470 . S
C777 C37 2.311 . S
C73 C817 2.125 . S
C1 C856 2.668 . S
C613 C816 2.283 . S
C541 C857 1.822 . S
C577 C776 2.425 . S
C637 C787 2.346 . S
C565 C827 2.120 . S
C866 C601 2.659 . S
C61 C826 2.299 . S
C867 C97 1.873 . S
C25 C786 2.470 . S
C897 C253 2.310 . S
C289 C937 2.125 . S
C976 C217 2.654 . S
C936 C181 2.284 . S
C977 C109 1.822 . S
C145 C896 2.427 . S
C205 C907 2.347 . S
C133 C947 2.120 . S
C986 C169 2.660 . S
C277 C946 2.297 . S
C313 C987 1.872 . S
C241 C906 2.468 . S
C571 C653 1.533 . S
C693 C607 2.227 1_455 S
C643 C743 1.679 . S
C247 C703 2.239 1_455 S
C283 C733 1.684 . S
C663 C319 1.559 . S
C139 C773 1.525 . S
C175 C813 2.228 . S
C211 C863 1.679 . S
C463 C823 2.240 . S
C853 C499 1.685 . S
C535 C783 1.545 . S
C355 C893 1.525 . S
C391 C933 2.227 . S
C983 C427 1.680 . S
C31 C943 2.240 . S
C67 C973 1.684 . S
C103 C903 1.545 . S
