# Generated by pormake.
# Topology ant, (3,6)-cn, num edge types: 1
# Building blocks:
#     Node 0, Type 0, BuildingBlock: BETDAH_clean_linker_0, # of connection points: 3
#     Node 1, Type 0, BuildingBlock: BETDAH_clean_linker_0, # of connection points: 3
#     Node 2, Type 0, BuildingBlock: BETDAH_clean_linker_0, # of connection points: 3
#     Node 3, Type 0, BuildingBlock: BETDAH_clean_linker_0, # of connection points: 3
#     Node 4, Type 0, BuildingBlock: BETDAH_clean_linker_0, # of connection points: 3
#     Node 5, Type 0, BuildingBlock: BETDAH_clean_linker_0, # of connection points: 3
#     Node 6, Type 0, BuildingBlock: BETDAH_clean_linker_0, # of connection points: 3
#     Node 7, Type 0, BuildingBlock: BETDAH_clean_linker_0, # of connection points: 3
#     Node 8, Type 1, BuildingBlock: MIDCAF_clean_sbu_0, # of connection points: 6
#     Node 9, Type 1, BuildingBlock: MIDCAF_clean_sbu_0, # of connection points: 6
#     Node 10, Type 1, BuildingBlock: MIDCAF_clean_sbu_0, # of connection points: 6
#     Node 11, Type 1, BuildingBlock: MIDCAF_clean_sbu_0, # of connection points: 6
#     Edge 12, Type (0, 1), BuildingBlock: EZIPEK_clean_linker_0, # of connection points: 2
#     Edge 13, Type (0, 1), BuildingBlock: EZIPEK_clean_linker_0, # of connection points: 2
#     Edge 14, Type (0, 1), BuildingBlock: EZIPEK_clean_linker_0, # of connection points: 2
#     Edge 15, Type (0, 1), BuildingBlock: EZIPEK_clean_linker_0, # of connection points: 2
#     Edge 16, Type (0, 1), BuildingBlock: EZIPEK_clean_linker_0, # of connection points: 2
#     Edge 17, Type (0, 1), BuildingBlock: EZIPEK_clean_linker_0, # of connection points: 2
#     Edge 18, Type (0, 1), BuildingBlock: EZIPEK_clean_linker_0, # of connection points: 2
#     Edge 19, Type (0, 1), BuildingBlock: EZIPEK_clean_linker_0, # of connection points: 2
#     Edge 20, Type (0, 1), BuildingBlock: EZIPEK_clean_linker_0, # of connection points: 2
#     Edge 21, Type (0, 1), BuildingBlock: EZIPEK_clean_linker_0, # of connection points: 2
#     Edge 22, Type (0, 1), BuildingBlock: EZIPEK_clean_linker_0, # of connection points: 2
#     Edge 23, Type (0, 1), BuildingBlock: EZIPEK_clean_linker_0, # of connection points: 2
#     Edge 24, Type (0, 1), BuildingBlock: EZIPEK_clean_linker_0, # of connection points: 2
#     Edge 25, Type (0, 1), BuildingBlock: EZIPEK_clean_linker_0, # of connection points: 2
#     Edge 26, Type (0, 1), BuildingBlock: EZIPEK_clean_linker_0, # of connection points: 2
#     Edge 27, Type (0, 1), BuildingBlock: EZIPEK_clean_linker_0, # of connection points: 2
#     Edge 28, Type (0, 1), BuildingBlock: EZIPEK_clean_linker_0, # of connection points: 2
#     Edge 29, Type (0, 1), BuildingBlock: EZIPEK_clean_linker_0, # of connection points: 2
#     Edge 30, Type (0, 1), BuildingBlock: EZIPEK_clean_linker_0, # of connection points: 2
#     Edge 31, Type (0, 1), BuildingBlock: EZIPEK_clean_linker_0, # of connection points: 2
#     Edge 32, Type (0, 1), BuildingBlock: EZIPEK_clean_linker_0, # of connection points: 2
#     Edge 33, Type (0, 1), BuildingBlock: EZIPEK_clean_linker_0, # of connection points: 2
#     Edge 34, Type (0, 1), BuildingBlock: EZIPEK_clean_linker_0, # of connection points: 2
#     Edge 35, Type (0, 1), BuildingBlock: EZIPEK_clean_linker_0, # of connection points: 2
# Relax obj value: 0.057
# Max RMSD: 0.148
# Mean RMSD: 0.088
data_MOF--net-ant--node1-MIDCAF_clean_sbu_0--node2-BETDAH_clean_linker_0--edge1-EZIPEK_clean_linker_0
_symmetry_space_group_name_H-M    P1
_symmetry_Int_Tables_number       1
_symmetry_cell_setting            triclinic
loop_
_symmetry_equiv_pos_as_xyz
'x, y, z'
_cell_length_a     21.758357
_cell_length_b     21.436423
_cell_length_c     50.898203
_cell_angle_alpha  92.983627
_cell_angle_beta   101.90071
_cell_angle_gamma 89.318511
loop_
_atom_site_label
_atom_site_type_symbol
_atom_site_fract_x
_atom_site_fract_y
_atom_site_fract_z
_atom_type_partial_charge
H0 H 0.15783 0.35257 0.02654 0.0
H1 H 0.22246 0.175 0.057 0.0
H2 H 0.20888 0.33164 0.11194 0.0
C3 C 0.17429 0.32367 0.04344 0.0
C4 C 0.18331 0.35022 0.06977 0.0
C5 C 0.18741 0.26008 0.03889 0.0
C6 C 0.20952 0.223 0.06076 0.0
C7 C 0.21504 0.24795 0.08723 0.0
C8 C 0.20311 0.31184 0.09155 0.0
N9 N 0.23242 0.21029 0.10983 0.0
C10 C 0.22709 0.14532 0.10875 0.0
H11 H 0.21144 0.7721 0.29564 0.0
H12 H 0.01669 0.79221 0.29877 0.0
H13 H 0.15936 0.82811 0.37045 0.0
C14 C 0.17557 0.78312 0.30715 0.0
C15 C 0.19318 0.79948 0.33466 0.0
C16 C 0.11228 0.78141 0.29419 0.0
C17 C 0.06558 0.79409 0.30896 0.0
C18 C 0.0825 0.81035 0.33666 0.0
C19 C 0.14631 0.81489 0.34919 0.0
N20 N 0.03661 0.82206 0.35245 0.0
C21 C 0.97385 0.80507 0.34415 0.0
H22 H 0.65639 0.81847 0.53336 0.0
H23 H 0.71203 0.63733 0.56261 0.0
H24 H 0.72725 0.79848 0.61782 0.0
C25 C 0.67395 0.78906 0.54998 0.0
C26 C 0.68902 0.81583 0.57625 0.0
C27 C 0.68307 0.72478 0.54501 0.0
C28 C 0.70543 0.68677 0.56663 0.0
C29 C 0.72243 0.71339 0.59298 0.0
C30 C 0.71413 0.77785 0.59756 0.0
N31 N 0.74997 0.67737 0.61511 0.0
C32 C 0.75036 0.6123 0.61459 0.0
H33 H 0.66852 0.24532 0.77998 0.0
H34 H 0.48018 0.28095 0.79031 0.0
H35 H 0.63503 0.29476 0.85874 0.0
C36 C 0.63625 0.2578 0.79306 0.0
C37 C 0.65944 0.26902 0.82062 0.0
C38 C 0.57192 0.26256 0.78215 0.0
C39 C 0.52987 0.27757 0.79896 0.0
C40 C 0.5526 0.28903 0.82676 0.0
C41 C 0.61747 0.28586 0.83736 0.0
N42 N 0.51165 0.3036 0.84458 0.0
C43 C 0.44688 0.29577 0.83774 0.0
H44 H 0.04499 0.58637 0.94975 0.0
H45 H 0.10858 0.77535 0.95129 0.0
H46 H 0.0856 0.65951 0.87806 0.0
C47 C 0.05922 0.62473 0.93925 0.0
C48 C 0.06251 0.61599 0.91215 0.0
C49 C 0.07733 0.68111 0.95344 0.0
C50 C 0.09486 0.73161 0.9401 0.0
C51 C 0.09663 0.72451 0.91263 0.0
C52 C 0.08219 0.66594 0.89897 0.0
N53 N 0.11448 0.77435 0.89838 0.0
C54 C 0.1164 0.83733 0.90703 0.0
H55 H 0.53008 0.77602 0.20599 0.0
H56 H 0.72617 0.78991 0.20521 0.0
H57 H 0.58728 0.84744 0.13735 0.0
C58 C 0.56686 0.78806 0.19564 0.0
C59 C 0.55083 0.81158 0.16994 0.0
C60 C 0.62977 0.78118 0.20847 0.0
C61 C 0.67762 0.79561 0.19515 0.0
C62 C 0.66234 0.81888 0.16923 0.0
C63 C 0.59902 0.82846 0.15709 0.0
N64 N 0.70931 0.83344 0.15491 0.0
C65 C 0.77215 0.81654 0.16249 0.0
H66 H 0.50171 0.09956 0.45425 0.0
H67 H 0.57301 0.28343 0.44984 0.0
H68 H 0.56534 0.14941 0.38353 0.0
C69 C 0.51798 0.13446 0.44258 0.0
C70 C 0.53117 0.1169 0.41743 0.0
C71 C 0.53735 0.19265 0.45491 0.0
C72 C 0.55801 0.23849 0.44006 0.0
C73 C 0.56526 0.22365 0.41363 0.0
C74 C 0.55412 0.16224 0.40288 0.0
N75 N 0.58887 0.26749 0.39825 0.0
C76 C 0.59482 0.33116 0.405 0.0
H77 H 0.02194 0.25795 0.70282 0.0
H78 H 0.21664 0.27379 0.69929 0.0
H79 H 0.0724 0.32203 0.63153 0.0
C80 C 0.05762 0.26932 0.69176 0.0
C81 C 0.03947 0.28991 0.66565 0.0
C82 C 0.12119 0.26398 0.70397 0.0
C83 C 0.16758 0.27799 0.68972 0.0
C84 C 0.14997 0.29856 0.66336 0.0
C85 C 0.08598 0.30564 0.6517 0.0
N86 N 0.19497 0.31291 0.64798 0.0
C87 C 0.25912 0.3013 0.65532 0.0
Zn88 Zn 0.21803 0.67249 0.15785 0.0
Zn89 Zn 0.06166 0.81343 0.10132 0.0
Zn90 Zn 0.14535 0.74833 0.12699 0.0
C91 C 0.08885 0.72321 0.0653 0.0
C92 C 0.16425 0.89107 0.11595 0.0
O93 O 0.11321 0.74169 0.16506 0.0
O94 O 0.1861 0.68737 0.19137 0.0
C95 C 0.16911 0.60058 0.11199 0.0
O96 O 0.11851 0.70023 0.08723 0.0
O97 O 0.06129 0.7751 0.06574 0.0
O98 O 0.10525 0.89369 0.10904 0.0
O99 O 0.1917 0.83847 0.12204 0.0
O100 O 0.1977 0.59382 0.13588 0.0
O101 O 0.1489 0.65508 0.10434 0.0
O102 O 0.23766 0.79494 0.13484 0.0
O103 O 0.29501 0.71776 0.15465 0.0
C104 C 0.29139 0.77111 0.14502 0.0
O105 O 0.06261 0.76375 0.14716 0.0
O106 O 0.98732 0.803 0.1164 0.0
C107 C 0.13679 0.72002 0.18814 0.0
C108 C 0.0052 0.78191 0.13933 0.0
Zn109 Zn 0.52793 0.64924 0.33881 0.0
Zn110 Zn 0.67762 0.79314 0.39953 0.0
Zn111 Zn 0.59969 0.72657 0.37258 0.0
C112 C 0.57589 0.86761 0.38411 0.0
C113 C 0.73981 0.75939 0.36319 0.0
O114 O 0.60234 0.63673 0.39222 0.0
O115 O 0.55677 0.5731 0.35824 0.0
C116 C 0.45156 0.74314 0.35647 0.0
O117 O 0.55004 0.81334 0.38023 0.0
O118 O 0.63486 0.87217 0.38847 0.0
O119 O 0.75622 0.77645 0.38764 0.0
O120 O 0.68208 0.74433 0.35324 0.0
O121 O 0.44884 0.68929 0.34499 0.0
O122 O 0.50498 0.76872 0.36666 0.0
O123 O 0.63213 0.72171 0.33438 0.0
O124 O 0.55792 0.66895 0.3058 0.0
C125 C 0.60709 0.70174 0.31027 0.0
O126 O 0.62811 0.68218 0.4117 0.0
O127 O 0.67212 0.76542 0.43515 0.0
C128 C 0.58577 0.58148 0.38232 0.0
C129 C 0.65126 0.71067 0.43445 0.0
Zn130 Zn 0.53434 0.32917 0.58118 0.0
Zn131 Zn 0.70433 0.15357 0.65901 0.0
Zn132 Zn 0.63626 0.21972 0.62246 0.0
C133 C 0.77937 0.24954 0.64453 0.0
C134 C 0.66959 0.07053 0.61499 0.0
O135 O 0.54483 0.25024 0.63414 0.0
O136 O 0.48273 0.31952 0.60901 0.0
C137 C 0.6669 0.36566 0.60702 0.0
O138 O 0.72662 0.26832 0.63082 0.0
O139 O 0.78211 0.20093 0.65774 0.0
O140 O 0.69385 0.07 0.63975 0.0
O141 O 0.64809 0.12206 0.60445 0.0
O142 O 0.6125 0.3798 0.594 0.0
O143 O 0.68095 0.31105 0.61661 0.0
O144 O 0.61697 0.16098 0.58551 0.0
O145 O 0.56899 0.24765 0.58218 0.0
C146 C 0.58356 0.19912 0.57045 0.0
O147 O 0.58785 0.22104 0.65565 0.0
O148 O 0.65583 0.17545 0.68733 0.0
C149 C 0.49407 0.28385 0.62869 0.0
C150 C 0.60476 0.20427 0.67992 0.0
Zn151 Zn 0.01535 0.12634 0.83234 0.0
Zn152 Zn 0.13546 0.3383 0.89428 0.0
Zn153 Zn 0.0723 0.22373 0.86519 0.0
C154 C 0.13792 0.23066 0.92784 0.0
C155 C -0.00254 0.3641 0.8692 0.0
O156 O 0.1118 0.21338 0.82894 0.0
O157 O 0.05132 0.14659 0.80067 0.0
C158 C 0.08174 0.08396 0.88344 0.0
O159 O 0.11006 0.19765 0.90687 0.0
O160 O 0.15209 0.28747 0.92658 0.0
O161 O 0.0411 0.32398 0.87316 0.0
O162 O 0.03947 0.32123 0.87244 0.0
O163 O 0.05685 0.06708 0.85946 0.0
O164 O 0.08869 0.14238 0.89089 0.0
O165 O 0.97007 0.23885 0.85325 0.0
O166 O 0.92717 0.15252 0.83247 0.0
C167 C 0.92149 0.20722 0.84214 0.0
O168 O 0.1544 0.24718 0.84818 0.0
O169 O 0.20224 0.32871 0.8727 0.0
C170 C 0.09479 0.18664 0.80535 0.0
C171 C 0.20065 0.28612 0.85438 0.0
C172 C 0.1167 0.43882 0.08301 0.0
C173 C 0.17255 0.41848 0.07483 0.0
C174 C 0.21222 0.52639 0.08094 0.0
C175 C 0.1617 0.54412 0.09338 0.0
N176 N 0.06416 0.51977 0.1056 0.0
N177 N 0.27388 0.44205 0.06562 0.0
C178 C 0.11282 0.50124 0.09379 0.0
C179 C 0.21995 0.46233 0.07317 0.0
N180 N 0.06745 0.39836 0.08031 0.0
N181 N 0.25318 0.57107 0.07696 0.0
H182 H 0.28083 0.39584 0.05942 0.0
H183 H 0.31329 0.46994 0.06687 0.0
H184 H 0.24881 0.61792 0.08295 0.0
H185 H 0.2879 0.56309 0.06585 0.0
H186 H 0.02336 0.41127 0.08367 0.0
H187 H 0.0692 0.35247 0.07257 0.0
H188 H 0.03068 0.48946 0.10966 0.0
H189 H 0.05861 0.566 0.11225 0.0
C190 C 0.86151 0.83478 0.33417 0.0
C191 C 0.90804 0.78764 0.33876 0.0
C192 C 0.83118 0.71273 0.34703 0.0
C193 C 0.78742 0.76223 0.34645 0.0
N194 N 0.75218 0.86394 0.33236 0.0
N195 N 0.93484 0.67874 0.34096 0.0
C196 C 0.7996 0.82106 0.3372 0.0
C197 C 0.8918 0.72523 0.3421 0.0
N198 N 0.87772 0.8931 0.3283 0.0
N199 N 0.81545 0.65509 0.35382 0.0
H200 H 0.9792 0.68751 0.33713 0.0
H201 H 0.92551 0.6315 0.3418 0.0
H202 H 0.77019 0.64504 0.35629 0.0
H203 H 0.84662 0.61784 0.35734 0.0
H204 H 0.84803 0.93168 0.32699 0.0
H205 H 0.92226 0.90304 0.32495 0.0
H206 H 0.75591 0.9069 0.32423 0.0
H207 H 0.70701 0.85434 0.335 0.0
C208 C 0.76038 0.50419 0.59553 0.0
C209 C 0.74628 0.54491 0.61634 0.0
C210 C 0.70846 0.45649 0.63725 0.0
C211 C 0.71148 0.41847 0.61393 0.0
N212 N 0.74522 0.40163 0.57216 0.0
N213 N 0.71406 0.56098 0.65869 0.0
C214 C 0.74025 0.44074 0.59369 0.0
C215 C 0.72362 0.52109 0.63803 0.0
N216 N 0.79272 0.52649 0.57767 0.0
N217 N 0.68903 0.43072 0.65816 0.0
H218 H 0.72722 0.6079 0.66034 0.0
H219 H 0.69181 0.54871 0.67389 0.0
H220 H 0.67725 0.38362 0.6577 0.0
H221 H 0.68895 0.45387 0.67661 0.0
H222 H 0.80821 0.4988 0.56293 0.0
H223 H 0.80828 0.57265 0.57893 0.0
H224 H 0.75936 0.41573 0.55507 0.0
H225 H 0.73359 0.35432 0.57133 0.0
C226 C 0.75058 0.20921 0.84663 0.0
C227 C 0.72802 0.26141 0.83138 0.0
C228 C 0.83496 0.28395 0.82598 0.0
C229 C 0.85742 0.23224 0.8415 0.0
N230 N 0.84049 0.15758 0.87305 0.0
N231 N 0.75014 0.35776 0.81282 0.0
C232 C 0.81636 0.19886 0.85398 0.0
C233 C 0.77088 0.30198 0.8232 0.0
N234 N 0.70939 0.16725 0.85267 0.0
N235 N 0.87353 0.31332 0.81249 0.0
H236 H 0.70349 0.37227 0.81075 0.0
H237 H 0.78005 0.39193 0.80878 0.0
H238 H 0.92078 0.30171 0.81407 0.0
H239 H 0.85767 0.3463 0.79831 0.0
H240 H 0.72332 0.12462 0.86094 0.0
H241 H 0.66078 0.17247 0.84753 0.0
H242 H 0.8135 0.13621 0.88471 0.0
H243 H 0.88865 0.14969 0.87913 0.0
C244 C 0.07934 0.50048 0.91179 0.0
C245 C 0.04811 0.55257 0.89891 0.0
C246 C 0.98331 0.48032 0.86571 0.0
C247 C 0.01041 0.42909 0.88063 0.0
N248 N 0.06332 0.39616 0.92421 0.0
N249 N 0.96013 0.59123 0.86668 0.0
C250 C 0.05252 0.44062 0.90556 0.0
C251 C -0.00278 0.54246 0.87659 0.0
N252 N 0.13477 0.50793 0.92996 0.0
N253 N 0.94503 0.46984 0.84104 0.0
H254 H 0.96744 0.63703 0.87452 0.0
H255 H 0.91871 0.58534 0.85229 0.0
H256 H 0.9322 0.42512 0.83287 0.0
H257 H 0.92961 0.50532 0.828 0.0
H258 H 0.16087 0.4701 0.93839 0.0
H259 H 0.15762 0.55093 0.93422 0.0
H260 H 0.09021 0.40476 0.94352 0.0
H261 H 0.03919 0.35376 0.92147 0.0
C262 C 0.88353 0.84919 0.17398 0.0
C263 C 0.83846 0.80088 0.16683 0.0
C264 C 0.91727 0.72997 0.15394 0.0
C265 C 0.959 0.78117 0.15685 0.0
N266 N -0.00867 0.8827 0.17638 0.0
N267 N 0.81494 0.69163 0.15827 0.0
C268 C 0.94536 0.83844 0.16956 0.0
C269 C 0.85652 0.73963 0.1598 0.0
N270 N 0.86588 0.90584 0.18365 0.0
N271 N 0.93499 0.67356 0.14411 0.0
H272 H 0.77058 0.6984 0.1628 0.0
H273 H 0.82533 0.64502 0.15438 0.0
H274 H 0.98036 0.66568 0.14086 0.0
H275 H 0.90552 0.63506 0.13903 0.0
H276 H 0.89438 0.94522 0.18734 0.0
H277 H 0.82142 0.91344 0.18795 0.0
H278 H 0.98655 0.92492 0.18678 0.0
H279 H 0.03646 0.875 0.17286 0.0
C280 C 0.65529 0.42816 0.40457 0.0
C281 C 0.59995 0.39872 0.40836 0.0
C282 C 0.54453 0.49885 0.40636 0.0
C283 C 0.59681 0.52631 0.39884 0.0
N284 N 0.70653 0.52496 0.39786 0.0
N285 N 0.49833 0.40597 0.41996 0.0
C286 C 0.65415 0.4935 0.40062 0.0
C287 C 0.54674 0.43435 0.41187 0.0
N288 N 0.70757 0.39285 0.40351 0.0
N289 N 0.49211 0.53431 0.40691 0.0
H290 H 0.49915 0.35868 0.42391 0.0
H291 H 0.45916 0.42925 0.42431 0.0
H292 H 0.49127 0.58233 0.40427 0.0
H293 H 0.44966 0.51698 0.40975 0.0
H294 H 0.74801 0.40955 0.39842 0.0
H295 H 0.71008 0.34548 0.40746 0.0
H296 H 0.75112 0.50535 0.40013 0.0
H297 H 0.70593 0.57287 0.39504 0.0
C298 C 0.9332 0.33605 0.66599 0.0
C299 C 0.97106 0.29425 0.65358 0.0
C300 C 0.87577 0.24692 0.62593 0.0
C301 C 0.8397 0.27833 0.64271 0.0
N302 N 0.83223 0.35404 0.67838 0.0
N303 N 0.97839 0.20804 0.6218 0.0
C304 C 0.86764 0.32439 0.66229 0.0
C305 C 0.9424 0.25015 0.63302 0.0
N306 N 0.96044 0.38611 0.68159 0.0
N307 N 0.84596 0.21249 0.60372 0.0
H308 H 0.02729 0.2081 0.62653 0.0
H309 H 0.95976 0.17017 0.60913 0.0
H310 H 0.79708 0.20931 0.59841 0.0
H311 H 0.86899 0.1925 0.58933 0.0
H312 H 0.93497 0.42106 0.68956 0.0
H313 H 0.00838 0.39557 0.6844 0.0
H314 H 0.85092 0.38316 0.69506 0.0
H315 H 0.78401 0.34664 0.67571 0.0
C316 C 0.3499 0.23253 0.65273 0.0
C317 C 0.32648 0.29248 0.6583 0.0
C318 C 0.42764 0.33916 0.65686 0.0
C319 C 0.44561 0.2819 0.64531 0.0
N320 N 0.42689 0.17205 0.63388 0.0
N321 N 0.34348 0.40206 0.66943 0.0
C322 C 0.40855 0.22738 0.64448 0.0
C323 C 0.3661 0.34542 0.66213 0.0
N324 N 0.31537 0.18099 0.65499 0.0
N325 N 0.46943 0.38755 0.66223 0.0
H326 H 0.29965 0.40695 0.67465 0.0
H327 H 0.36687 0.44419 0.66966 0.0
H328 H 0.51434 0.38401 0.65804 0.0
H329 H 0.46186 0.42907 0.67262 0.0
H330 H 0.33161 0.13537 0.65337 0.0
H331 H 0.27231 0.1844 0.661 0.0
H332 H 0.39854 0.13254 0.6297 0.0
H333 H 0.4699 0.16607 0.62812 0.0
C334 C 0.45447 0.78028 0.13456 0.0
C335 C 0.48288 0.81853 0.1574 0.0
C336 C 0.37945 0.8419 0.16746 0.0
C337 C 0.35139 0.80276 0.14506 0.0
N338 N 0.35839 0.75134 0.10275 0.0
N339 N 0.47095 0.90221 0.18944 0.0
C340 C 0.38783 0.77844 0.12686 0.0
C341 C 0.44455 0.85548 0.17157 0.0
N342 N 0.49032 0.74168 0.12161 0.0
N343 N 0.34536 0.8617 0.18603 0.0
H344 H 0.51865 0.91309 0.19261 0.0
H345 H 0.44462 0.93372 0.19887 0.0
H346 H 0.29801 0.85072 0.184 0.0
H347 H 0.36513 0.88477 0.20429 0.0
H348 H 0.47136 0.70774 0.10688 0.0
H349 H 0.53912 0.73999 0.12688 0.0
H350 H 0.38191 0.73694 0.08761 0.0
H351 H 0.3095 0.74924 0.09704 0.0
C352 C 0.33858 0.33844 0.82745 0.0
C353 C 0.3795 0.28713 0.83376 0.0
C354 C 0.29557 0.22686 0.84573 0.0
C355 C 0.25563 0.28 0.84143 0.0
N356 N 0.2316 0.37807 0.82074 0.0
N357 N 0.39307 0.17707 0.83979 0.0
C358 C 0.27475 0.33305 0.82965 0.0
C359 C 0.3564 0.2293 0.83968 0.0
N360 N 0.36151 0.39293 0.82051 0.0
N361 N 0.27772 0.17619 0.85759 0.0
H362 H 0.43791 0.1781 0.83546 0.0
H363 H 0.37699 0.13221 0.84153 0.0
H364 H 0.23362 0.17175 0.86223 0.0
H365 H 0.308 0.13979 0.86437 0.0
H366 H 0.3362 0.43454 0.81862 0.0
H367 H 0.40736 0.39696 0.81757 0.0
H368 H 0.24073 0.41557 0.80993 0.0
H369 H 0.18462 0.37466 0.82218 0.0
C370 C 0.30249 0.83789 0.33718 0.0
C371 C 0.26134 0.79934 0.34748 0.0
C372 C 0.35271 0.74644 0.37345 0.0
C373 C 0.39138 0.77427 0.35814 0.0
N374 N 0.40279 0.84415 0.32393 0.0
N375 N 0.24763 0.71349 0.37482 0.0
C376 C 0.36665 0.82057 0.34002 0.0
C377 C 0.28647 0.75359 0.36602 0.0
N378 N 0.27964 0.89005 0.32417 0.0
N379 N 0.37954 0.71179 0.39461 0.0
H380 H 0.19885 0.71566 0.36949 0.0
H381 H 0.26387 0.67481 0.38581 0.0
H382 H 0.42812 0.70595 0.40024 0.0
H383 H 0.35446 0.69451 0.40802 0.0
H384 H 0.30827 0.92261 0.31804 0.0
H385 H 0.23271 0.9037 0.32201 0.0
H386 H 0.38526 0.87315 0.3083 0.0
H387 H 0.44937 0.83069 0.32492 0.0
C388 C 0.62197 0.90777 0.58599 0.0
C389 C 0.68055 0.88433 0.58151 0.0
C390 C 0.72781 0.98833 0.5931 0.0
C391 C 0.66994 0.01112 0.59855 0.0
N392 N 0.55887 -0.00181 0.59472 0.0
N393 N 0.78488 0.90399 0.57489 0.0
C394 C 0.61586 0.97258 0.59304 0.0
C395 C 0.7321 0.92535 0.58314 0.0
N396 N 0.57305 0.86741 0.58457 0.0
N397 N 0.77916 0.02666 0.59835 0.0
H398 H 0.78975 0.85798 0.56787 0.0
H399 H 0.82197 0.9325 0.57307 0.0
H400 H 0.7765 0.07402 0.60393 0.0
H401 H 0.82468 0.01152 0.59815 0.0
H402 H 0.53125 0.87955 0.59042 0.0
H403 H 0.57539 0.8202 0.57875 0.0
H404 H 0.5164 0.97454 0.5888 0.0
H405 H 0.5535 0.04529 0.60006 0.0
C406 C 0.18655 0.04247 0.08755 0.0
C407 C 0.22021 0.07796 0.11006 0.0
C408 C 0.22803 0.98524 0.13695 0.0
C409 C 0.19862 0.9492 0.11373 0.0
N410 N 0.16774 0.93972 0.06549 0.0
N411 N 0.28456 0.08025 0.15483 0.0
C412 C 0.18488 0.97664 0.08848 0.0
C413 C 0.24541 0.04819 0.13426 0.0
N414 N 0.15154 0.07141 0.06621 0.0
N415 N 0.2348 0.96127 0.16169 0.0
H416 H 0.29696 0.12677 0.15371 0.0
H417 H 0.30855 0.05909 0.17196 0.0
H418 H 0.2203 0.91622 0.16424 0.0
H419 H 0.25001 0.98756 0.17961 0.0
H420 H 0.1225 0.0473 0.05014 0.0
H421 H 0.14457 0.11952 0.06644 0.0
H422 H 0.16156 0.95701 0.04635 0.0
H423 H 0.16635 0.89106 0.06574 0.0
C424 C 0.50295 0.0285 0.38189 0.0
C425 C 0.53083 0.0493 0.40865 0.0
C426 C 0.55518 0.94092 0.41928 0.0
C427 C 0.54212 0.9232 0.39167 0.0
N428 N 0.51021 0.95223 0.3458 0.0
N429 N 0.60123 0.02334 0.45039 0.0
C430 C 0.51699 0.96731 0.37259 0.0
C431 C 0.56109 0.00495 0.42698 0.0
N432 N 0.46328 0.06652 0.36552 0.0
N433 N 0.56697 0.8966 0.438 0.0
H434 H 0.61528 0.06946 0.45525 0.0
H435 H 0.62747 0.99176 0.46311 0.0
H436 H 0.56356 0.84888 0.43263 0.0
H437 H 0.57339 0.90766 0.45859 0.0
H438 H 0.43866 0.05144 0.34649 0.0
H439 H 0.45014 0.11062 0.37213 0.0
H440 H 0.49753 0.98478 0.3311 0.0
H441 H 0.5221 0.90823 0.33863 0.0
C442 C 0.06152 0.93592 0.91611 0.0
C443 C 0.11648 0.90525 0.91132 0.0
C444 C 0.16045 0.00571 0.9032 0.0
C445 C 0.10068 0.03321 0.90216 0.0
N446 N -0.0026 0.03037 0.91165 0.0
N447 N 0.22254 0.91012 0.90466 0.0
C448 C 0.05265 0.00034 0.9106 0.0
C449 C 0.16794 0.94026 0.90679 0.0
N450 N 0.01777 0.9029 0.92541 0.0
N451 N 0.2089 0.04238 0.89986 0.0
H452 H 0.22963 0.86282 0.90828 0.0
H453 H 0.26036 0.93109 0.89902 0.0
H454 H 0.20326 0.09032 0.89741 0.0
H455 H 0.25495 0.02703 0.90141 0.0
H456 H 0.97792 0.92254 0.93079 0.0
H457 H 0.02384 0.85576 0.92952 0.0
H458 H 0.95741 0.00863 0.91497 0.0
H459 H -0.00826 0.07816 0.90878 0.0
C460 C 0.22682 0.22571 0.99724 0.0
C461 C 0.17643 0.23208 0.01098 0.0
C462 C 0.10064 0.20625 0.96916 0.0
C463 C 0.15043 0.20654 0.9551 0.0
N464 N 0.26008 0.19484 0.95558 0.0
N465 N 0.06897 0.20956 0.01231 0.0
C466 C 0.21347 0.2082 0.96932 0.0
C467 C 0.11441 0.21561 0.99766 0.0
N468 N 0.28663 0.2399 0.01051 0.0
N469 N 0.04009 0.20177 0.95505 0.0
H470 H 0.07789 0.21667 0.03319 0.0
H471 H 0.02409 0.19258 0.0042 0.0
H472 H 0.02907 0.192 0.93434 0.0
H473 H 0.00097 0.20942 0.9636 0.0
H474 H 0.32451 0.24262 0.00104 0.0
H475 H 0.29803 0.25202 0.03105 0.0
H476 H 0.30729 0.19088 0.9647 0.0
H477 H 0.24997 0.18211 0.93505 0.0
C478 C 0.08581 0.70689 0.25383 0.0
C479 C 0.09685 0.7689 0.26471 0.0
C480 C 0.11932 0.80215 0.22253 0.0
C481 C 0.11118 0.73948 0.21196 0.0
N482 N 0.06977 0.63678 0.21391 0.0
N483 N 0.10362 0.87831 0.25748 0.0
C484 C 0.08845 0.69333 0.22644 0.0
C485 C 0.10612 0.81755 0.24822 0.0
N486 N 0.07617 0.66072 0.27005 0.0
N487 N 0.14463 0.84576 0.20918 0.0
H488 H 0.09456 0.89055 0.27643 0.0
H489 H 0.10424 0.91615 0.2455 0.0
H490 H 0.15533 0.83686 0.19031 0.0
H491 H 0.15889 0.88992 0.21756 0.0
H492 H 0.07513 0.6134 0.26424 0.0
H493 H 0.07186 0.66982 0.28992 0.0
H494 H 0.04805 0.60261 0.2226 0.0
H495 H 0.07091 0.62646 0.19373 0.0
C496 C 0.60963 0.69625 0.50125 0.0
C497 C 0.67188 0.69868 0.51674 0.0
C498 C 0.71228 0.67028 0.47621 0.0
C499 C 0.6526 0.68301 0.4605 0.0
N500 N 0.54223 0.7012 0.45687 0.0
N501 N 0.78362 0.68663 0.51922 0.0
C502 C 0.60014 0.69218 0.47269 0.0
C503 C 0.72358 0.68351 0.50443 0.0
N504 N 0.56011 0.69862 0.51398 0.0
N505 N 0.75837 0.64774 0.46371 0.0
H506 H 0.7943 0.69697 0.53988 0.0
H507 H 0.82329 0.68292 0.51078 0.0
H508 H 0.74991 0.6385 0.44292 0.0
H509 H 0.80203 0.63269 0.47394 0.0
H510 H 0.51355 0.69259 0.50406 0.0
H511 H 0.56627 0.70142 0.5349 0.0
H512 H 0.50294 0.7157 0.46426 0.0
H513 H 0.53426 0.69566 0.43595 0.0
C514 C 0.5384 0.19179 0.74119 0.0
C515 C 0.55093 0.25305 0.75268 0.0
C516 C 0.57543 0.28766 0.71117 0.0
C517 C 0.56951 0.22491 0.70063 0.0
N518 N 0.52612 0.1227 0.70097 0.0
N519 N 0.55825 0.36265 0.74636 0.0
C520 C 0.54378 0.17885 0.71409 0.0
C521 C 0.56072 0.3023 0.73664 0.0
N522 N 0.5255 0.14564 0.75675 0.0
N523 N 0.60057 0.33181 0.69809 0.0
H524 H 0.54819 0.37375 0.76525 0.0
H525 H 0.55999 0.40114 0.73487 0.0
H526 H 0.61111 0.32308 0.67919 0.0
H527 H 0.61355 0.3763 0.70641 0.0
H528 H 0.52288 0.0985 0.75062 0.0
H529 H 0.51923 0.15484 0.77636 0.0
H530 H 0.50311 0.08815 0.70887 0.0
H531 H 0.52976 0.11327 0.68101 0.0
C532 C 0.02608 0.68267 0.99326 0.0
C533 C 0.08163 0.68464 0.98285 0.0
C534 C 0.14547 0.69598 0.02838 0.0
C535 C 0.08986 0.69357 0.03871 0.0
N536 N 0.98069 0.66714 0.03216 0.0
N537 N 0.19452 0.67434 0.9903 0.0
C538 C 0.03127 0.68065 0.02142 0.0
C539 C 0.14155 0.68517 0.00036 0.0
N540 N 0.96853 0.68579 0.97641 0.0
N541 N 0.20122 0.71278 0.04492 0.0
H542 H 0.19356 0.66604 0.96984 0.0
H543 H 0.23868 0.66785 0.00244 0.0
H544 H 0.2064 0.72038 0.06564 0.0
H545 H 0.24147 0.72298 0.03789 0.0
H546 H 0.92663 0.69083 0.98316 0.0
H547 H 0.96287 0.68864 0.95565 0.0
H548 H 0.93764 0.65218 0.02066 0.0
H549 H 0.98416 0.66496 0.05287 0.0
C550 C 0.65257 0.69898 0.24263 0.0
C551 C 0.64376 0.76274 0.23672 0.0
C552 C 0.62283 0.78852 0.28133 0.0
C553 C 0.63012 0.72441 0.28716 0.0
N554 N 0.66773 0.622 0.27682 0.0
N555 N 0.64048 0.87017 0.25255 0.0
C556 C 0.65048 0.6807 0.2689 0.0
C557 C 0.63615 0.80819 0.25695 0.0
N558 N 0.65982 0.6558 0.22279 0.0
N559 N 0.59812 0.82971 0.29784 0.0
H560 H 0.64962 0.88577 0.23465 0.0
H561 H 0.64133 0.90546 0.26749 0.0
H562 H 0.58656 0.8177 0.31579 0.0
H563 H 0.58466 0.87505 0.29279 0.0
H564 H 0.65912 0.60777 0.22487 0.0
H565 H 0.66369 0.66822 0.20364 0.0
H566 H 0.68791 0.58931 0.2653 0.0
H567 H 0.66702 0.60804 0.2961 0.0
C568 C 0.49811 0.20224 0.49787 0.0
C569 C 0.54933 0.19882 0.48462 0.0
C570 C 0.62338 0.19709 0.52791 0.0
C571 C 0.57201 0.19384 0.54094 0.0
N572 N 0.46067 0.18561 0.53869 0.0
N573 N 0.66034 0.18074 0.48656 0.0
C574 C 0.5093 0.19437 0.52601 0.0
C575 C 0.61192 0.19289 0.49948 0.0
N576 N 0.43914 0.21422 0.48358 0.0
N577 N 0.68289 0.20732 0.54257 0.0
H578 H 0.65496 0.17748 0.46572 0.0
H579 H 0.70522 0.16837 0.49656 0.0
H580 H 0.69373 0.21139 0.56351 0.0
H581 H 0.72074 0.21765 0.53391 0.0
H582 H 0.40064 0.22326 0.49241 0.0
H583 H 0.42979 0.2204 0.46293 0.0
H584 H 0.41426 0.17945 0.52859 0.0
H585 H 0.46743 0.17913 0.55927 0.0
C586 C 0.12657 0.29274 0.75213 0.0
C587 C 0.13693 0.24716 0.73246 0.0
C588 C 0.14354 0.1664 0.76523 0.0
C589 C 0.11911 0.20962 0.78251 0.0
N590 N 0.08012 0.31392 0.79073 0.0
N591 N 0.15736 0.14042 0.71979 0.0
C592 C 0.11007 0.27327 0.77592 0.0
C593 C 0.14726 0.18394 0.73901 0.0
N594 N 0.13049 0.35463 0.74754 0.0
N595 N 0.16309 0.10889 0.77397 0.0
H596 H 0.16246 0.15242 0.70075 0.0
H597 H 0.15782 0.0925 0.72229 0.0
H598 H 0.16153 0.09556 0.79326 0.0
H599 H 0.18607 0.07701 0.76319 0.0
H600 H 0.12905 0.39013 0.76219 0.0
H601 H 0.14189 0.36981 0.72998 0.0
H602 H 0.06625 0.35863 0.78483 0.0
H603 H 0.06366 0.30189 0.80759 0.0
loop_
_geom_bond_atom_site_label_1
_geom_bond_atom_site_label_2
_geom_bond_distance
_geom_bond_site_symmetry_2
_ccdc_geom_bond_type
H0 C3 0.929 . S
H1 C6 0.929 . S
H2 C8 0.930 . S
C3 H0 0.929 . S
C3 C4 1.398 . S
C3 C5 1.396 . S
C4 C3 1.398 . S
C4 C8 1.407 . S
C5 C3 1.396 . S
C5 C6 1.394 . S
C6 H1 0.929 . S
C6 C5 1.394 . S
C6 C7 1.382 . S
C7 C6 1.382 . S
C7 C8 1.392 . S
C7 N9 1.420 . S
C8 H2 0.930 . S
C8 C4 1.407 . S
C8 C7 1.392 . S
N9 C7 1.420 . S
N9 C10 1.244 . S
C10 N9 1.244 . S
H11 C14 0.929 . S
H12 C17 0.929 . S
H13 C19 0.930 . S
C14 H11 0.929 . S
C14 C15 1.398 . S
C14 C16 1.396 . S
C15 C14 1.398 . S
C15 C19 1.407 . S
C16 C14 1.396 . S
C16 C17 1.394 . S
C17 H12 0.929 . S
C17 C16 1.394 . S
C17 C18 1.382 . S
C18 C17 1.382 . S
C18 C19 1.392 . S
C18 N20 1.420 . S
C19 H13 0.930 . S
C19 C15 1.407 . S
C19 C18 1.392 . S
N20 C18 1.420 . S
N20 C21 1.244 1_455 S
C21 N20 1.244 1_655 S
H22 C25 0.929 . S
H23 C28 0.929 . S
H24 C30 0.930 . S
C25 H22 0.929 . S
C25 C26 1.398 . S
C25 C27 1.396 . S
C26 C25 1.398 . S
C26 C30 1.407 . S
C27 C25 1.396 . S
C27 C28 1.394 . S
C28 H23 0.929 . S
C28 C27 1.394 . S
C28 C29 1.382 . S
C29 C28 1.382 . S
C29 C30 1.392 . S
C29 N31 1.420 . S
C30 H24 0.930 . S
C30 C26 1.407 . S
C30 C29 1.392 . S
N31 C29 1.420 . S
N31 C32 1.244 . S
C32 N31 1.244 . S
H33 C36 0.929 . S
H34 C39 0.929 . S
H35 C41 0.930 . S
C36 H33 0.929 . S
C36 C37 1.398 . S
C36 C38 1.396 . S
C37 C36 1.398 . S
C37 C41 1.407 . S
C38 C36 1.396 . S
C38 C39 1.394 . S
C39 H34 0.929 . S
C39 C38 1.394 . S
C39 C40 1.382 . S
C40 C39 1.382 . S
C40 C41 1.392 . S
C40 N42 1.420 . S
C41 H35 0.930 . S
C41 C37 1.407 . S
C41 C40 1.392 . S
N42 C40 1.420 . S
N42 C43 1.244 . S
C43 N42 1.244 . S
H44 C47 0.929 . S
H45 C50 0.929 . S
H46 C52 0.930 . S
C47 H44 0.929 . S
C47 C48 1.398 . S
C47 C49 1.396 . S
C48 C47 1.398 . S
C48 C52 1.407 . S
C49 C47 1.396 . S
C49 C50 1.394 . S
C50 H45 0.929 . S
C50 C49 1.394 . S
C50 C51 1.382 . S
C51 C50 1.382 . S
C51 C52 1.392 . S
C51 N53 1.420 . S
C52 H46 0.930 . S
C52 C48 1.407 . S
C52 C51 1.392 . S
N53 C51 1.420 . S
N53 C54 1.244 . S
C54 N53 1.244 . S
H55 C58 0.929 . S
H56 C61 0.929 . S
H57 C63 0.930 . S
C58 H55 0.929 . S
C58 C59 1.398 . S
C58 C60 1.396 . S
C59 C58 1.398 . S
C59 C63 1.407 . S
C60 C58 1.396 . S
C60 C61 1.394 . S
C61 H56 0.929 . S
C61 C60 1.394 . S
C61 C62 1.382 . S
C62 C61 1.382 . S
C62 C63 1.392 . S
C62 N64 1.420 . S
C63 H57 0.930 . S
C63 C59 1.407 . S
C63 C62 1.392 . S
N64 C62 1.420 . S
N64 C65 1.244 . S
C65 N64 1.244 . S
H66 C69 0.929 . S
H67 C72 0.929 . S
H68 C74 0.930 . S
C69 H66 0.929 . S
C69 C70 1.398 . S
C69 C71 1.396 . S
C70 C69 1.398 . S
C70 C74 1.407 . S
C71 C69 1.396 . S
C71 C72 1.394 . S
C72 H67 0.929 . S
C72 C71 1.394 . S
C72 C73 1.382 . S
C73 C72 1.382 . S
C73 C74 1.392 . S
C73 N75 1.420 . S
C74 H68 0.930 . S
C74 C70 1.407 . S
C74 C73 1.392 . S
N75 C73 1.420 . S
N75 C76 1.244 . S
C76 N75 1.244 . S
H77 C80 0.929 . S
H78 C83 0.929 . S
H79 C85 0.930 . S
C80 H77 0.929 . S
C80 C81 1.398 . S
C80 C82 1.396 . S
C81 C80 1.398 . S
C81 C85 1.407 . S
C82 C80 1.396 . S
C82 C83 1.394 . S
C83 H78 0.929 . S
C83 C82 1.394 . S
C83 C84 1.382 . S
C84 C83 1.382 . S
C84 C85 1.392 . S
C84 N86 1.420 . S
C85 H79 0.930 . S
C85 C81 1.407 . S
C85 C84 1.392 . S
N86 C84 1.420 . S
N86 C87 1.244 . S
C87 N86 1.244 . S
Zn88 O94 1.920 . S
Zn88 O100 1.898 . S
Zn88 O103 1.905 . S
Zn89 O97 1.905 . S
Zn89 O98 1.898 . S
Zn89 O106 1.920 1_455 S
Zn90 O93 2.080 . S
Zn90 O96 2.114 . S
Zn90 O99 2.120 . S
Zn90 O101 2.120 . S
Zn90 O102 2.114 . S
Zn90 O105 2.080 . S
C91 O96 1.166 . S
C91 O97 1.182 . S
C92 O98 1.167 . S
C92 O99 1.299 . S
O93 Zn90 2.080 . S
O93 C107 1.305 . S
O94 Zn88 1.920 . S
O94 C107 1.234 . S
C95 O100 1.167 . S
C95 O101 1.299 . S
O96 Zn90 2.114 . S
O96 C91 1.166 . S
O97 Zn89 1.905 . S
O97 C91 1.182 . S
O98 Zn89 1.898 . S
O98 C92 1.167 . S
O99 Zn90 2.120 . S
O99 C92 1.299 . S
O100 Zn88 1.898 . S
O100 C95 1.167 . S
O101 Zn90 2.120 . S
O101 C95 1.299 . S
O102 Zn90 2.114 . S
O102 C104 1.166 . S
O103 Zn88 1.905 . S
O103 C104 1.182 . S
C104 O102 1.166 . S
C104 O103 1.182 . S
O105 Zn90 2.080 . S
O105 C108 1.305 . S
O106 Zn89 1.920 1_655 S
O106 C108 1.234 1_655 S
C107 O93 1.305 . S
C107 O94 1.234 . S
C108 O105 1.305 . S
C108 O106 1.234 1_455 S
Zn109 O115 1.920 . S
Zn109 O121 1.898 . S
Zn109 O124 1.905 . S
Zn110 O118 1.905 . S
Zn110 O119 1.898 . S
Zn110 O127 1.920 . S
Zn111 O114 2.080 . S
Zn111 O117 2.114 . S
Zn111 O120 2.120 . S
Zn111 O122 2.120 . S
Zn111 O123 2.114 . S
Zn111 O126 2.080 . S
C112 O117 1.166 . S
C112 O118 1.182 . S
C113 O119 1.167 . S
C113 O120 1.299 . S
O114 Zn111 2.080 . S
O114 C128 1.305 . S
O115 Zn109 1.920 . S
O115 C128 1.234 . S
C116 O121 1.167 . S
C116 O122 1.299 . S
O117 Zn111 2.114 . S
O117 C112 1.166 . S
O118 Zn110 1.905 . S
O118 C112 1.182 . S
O119 Zn110 1.898 . S
O119 C113 1.167 . S
O120 Zn111 2.120 . S
O120 C113 1.299 . S
O121 Zn109 1.898 . S
O121 C116 1.167 . S
O122 Zn111 2.120 . S
O122 C116 1.299 . S
O123 Zn111 2.114 . S
O123 C125 1.166 . S
O124 Zn109 1.905 . S
O124 C125 1.182 . S
C125 O123 1.166 . S
C125 O124 1.182 . S
O126 Zn111 2.080 . S
O126 C129 1.305 . S
O127 Zn110 1.920 . S
O127 C129 1.234 . S
C128 O114 1.305 . S
C128 O115 1.234 . S
C129 O126 1.305 . S
C129 O127 1.234 . S
Zn130 O136 1.920 . S
Zn130 O142 1.898 . S
Zn130 O145 1.905 . S
Zn131 O139 1.905 . S
Zn131 O140 1.898 . S
Zn131 O148 1.920 . S
Zn132 O135 2.080 . S
Zn132 O138 2.114 . S
Zn132 O141 2.120 . S
Zn132 O143 2.120 . S
Zn132 O144 2.114 . S
Zn132 O147 2.080 . S
C133 O138 1.166 . S
C133 O139 1.182 . S
C134 O140 1.167 . S
C134 O141 1.299 . S
O135 Zn132 2.080 . S
O135 C149 1.305 . S
O136 Zn130 1.920 . S
O136 C149 1.234 . S
C137 O142 1.167 . S
C137 O143 1.299 . S
O138 Zn132 2.114 . S
O138 C133 1.166 . S
O139 Zn131 1.905 . S
O139 C133 1.182 . S
O140 Zn131 1.898 . S
O140 C134 1.167 . S
O141 Zn132 2.120 . S
O141 C134 1.299 . S
O142 Zn130 1.898 . S
O142 C137 1.167 . S
O143 Zn132 2.120 . S
O143 C137 1.299 . S
O144 Zn132 2.114 . S
O144 C146 1.166 . S
O145 Zn130 1.905 . S
O145 C146 1.182 . S
C146 O144 1.166 . S
C146 O145 1.182 . S
O147 Zn132 2.080 . S
O147 C150 1.305 . S
O148 Zn131 1.920 . S
O148 C150 1.234 . S
C149 O135 1.305 . S
C149 O136 1.234 . S
C150 O147 1.305 . S
C150 O148 1.234 . S
Zn151 O157 1.920 1_655 S
Zn151 O163 1.898 1_655 S
Zn151 O166 1.905 . S
Zn152 O160 1.905 . S
Zn152 O161 1.898 . S
Zn152 O169 1.920 . S
Zn153 O156 2.080 . S
Zn153 O159 2.114 . S
Zn153 O162 2.120 . S
Zn153 O164 2.120 . S
Zn153 O165 2.123 . S
Zn153 O168 2.080 . S
C154 O159 1.166 . S
C154 O160 1.182 . S
C155 O161 1.167 . S
C155 O162 1.299 . S
O156 Zn153 2.080 . S
O156 C170 1.305 . S
O157 Zn151 1.920 1_455 S
O157 C170 1.234 . S
C158 O163 1.167 . S
C158 O164 1.299 . S
O159 Zn153 2.114 . S
O159 C154 1.166 . S
O160 Zn152 1.905 . S
O160 C154 1.182 . S
O161 Zn152 1.898 . S
O161 C155 1.167 . S
O162 Zn153 2.120 . S
O162 C155 1.299 . S
O163 Zn151 1.898 1_455 S
O163 C158 1.167 . S
O164 Zn153 2.120 . S
O164 C158 1.299 . S
O165 Zn153 2.123 . S
O165 C167 1.160 1_455 S
O166 Zn151 1.905 . S
O166 C167 1.182 . S
C167 O165 1.160 1_655 S
C167 O166 1.182 . S
O168 Zn153 2.080 . S
O168 C171 1.305 . S
O169 Zn152 1.920 . S
O169 C171 1.234 . S
C170 O156 1.305 . S
C170 O157 1.234 . S
C171 O168 1.305 . S
C171 O169 1.234 . S
C172 C173 1.363 . S
C172 C178 1.379 . S
C172 N180 1.356 . S
C173 C172 1.363 . S
C173 C179 1.363 . S
C174 C175 1.363 . S
C174 C179 1.379 . S
C174 N181 1.356 . S
C175 C174 1.363 . S
C175 C178 1.363 . S
N176 C178 1.356 . S
N176 H188 0.984 . S
N176 H189 0.985 . S
N177 C179 1.356 . S
N177 H182 0.984 . S
N177 H183 0.985 . S
C178 C172 1.379 . S
C178 C175 1.363 . S
C178 N176 1.356 . S
C179 C173 1.363 . S
C179 C174 1.379 . S
C179 N177 1.356 . S
N180 C172 1.356 . S
N180 H186 0.984 . S
N180 H187 0.984 . S
N181 C174 1.356 . S
N181 H184 0.984 . S
N181 H185 0.985 . S
H182 N177 0.984 . S
H183 N177 0.985 . S
H184 N181 0.984 . S
H185 N181 0.985 . S
H186 N180 0.984 . S
H187 N180 0.984 . S
H188 N176 0.984 . S
H189 N176 0.985 . S
C190 C191 1.363 . S
C190 C196 1.379 . S
C190 N198 1.356 . S
C191 C190 1.363 . S
C191 C197 1.363 . S
C192 C193 1.363 . S
C192 C197 1.379 . S
C192 N199 1.356 . S
C193 C192 1.363 . S
C193 C196 1.363 . S
N194 C196 1.356 . S
N194 H206 0.984 . S
N194 H207 0.985 . S
N195 C197 1.356 . S
N195 H200 0.984 . S
N195 H201 0.985 . S
C196 C190 1.379 . S
C196 C193 1.363 . S
C196 N194 1.356 . S
C197 C191 1.363 . S
C197 C192 1.379 . S
C197 N195 1.356 . S
N198 C190 1.356 . S
N198 H204 0.984 . S
N198 H205 0.984 . S
N199 C192 1.356 . S
N199 H202 0.984 . S
N199 H203 0.985 . S
H200 N195 0.984 . S
H201 N195 0.985 . S
H202 N199 0.984 . S
H203 N199 0.985 . S
H204 N198 0.984 . S
H205 N198 0.984 . S
H206 N194 0.984 . S
H207 N194 0.985 . S
C208 C209 1.363 . S
C208 C214 1.379 . S
C208 N216 1.356 . S
C209 C208 1.363 . S
C209 C215 1.363 . S
C210 C211 1.363 . S
C210 C215 1.379 . S
C210 N217 1.356 . S
C211 C210 1.363 . S
C211 C214 1.363 . S
N212 C214 1.356 . S
N212 H224 0.984 . S
N212 H225 0.985 . S
N213 C215 1.356 . S
N213 H218 0.984 . S
N213 H219 0.985 . S
C214 C208 1.379 . S
C214 C211 1.363 . S
C214 N212 1.356 . S
C215 C209 1.363 . S
C215 C210 1.379 . S
C215 N213 1.356 . S
N216 C208 1.356 . S
N216 H222 0.984 . S
N216 H223 0.984 . S
N217 C210 1.356 . S
N217 H220 0.984 . S
N217 H221 0.985 . S
H218 N213 0.984 . S
H219 N213 0.985 . S
H220 N217 0.984 . S
H221 N217 0.985 . S
H222 N216 0.984 . S
H223 N216 0.984 . S
H224 N212 0.984 . S
H225 N212 0.985 . S
C226 C227 1.363 . S
C226 C232 1.379 . S
C226 N234 1.356 . S
C227 C226 1.363 . S
C227 C233 1.363 . S
C228 C229 1.363 . S
C228 C233 1.379 . S
C228 N235 1.356 . S
C229 C228 1.363 . S
C229 C232 1.363 . S
N230 C232 1.356 . S
N230 H242 0.984 . S
N230 H243 0.985 . S
N231 C233 1.356 . S
N231 H236 0.984 . S
N231 H237 0.985 . S
C232 C226 1.379 . S
C232 C229 1.363 . S
C232 N230 1.356 . S
C233 C227 1.363 . S
C233 C228 1.379 . S
C233 N231 1.356 . S
N234 C226 1.356 . S
N234 H240 0.984 . S
N234 H241 0.984 . S
N235 C228 1.356 . S
N235 H238 0.984 . S
N235 H239 0.985 . S
H236 N231 0.984 . S
H237 N231 0.985 . S
H238 N235 0.984 . S
H239 N235 0.985 . S
H240 N234 0.984 . S
H241 N234 0.984 . S
H242 N230 0.984 . S
H243 N230 0.985 . S
C244 C245 1.363 . S
C244 C250 1.379 . S
C244 N252 1.356 . S
C245 C244 1.363 . S
C245 C251 1.363 . S
C246 C247 1.363 . S
C246 C251 1.379 . S
C246 N253 1.356 1_455 S
C247 C246 1.363 . S
C247 C250 1.363 . S
N248 C250 1.356 . S
N248 H260 0.984 . S
N248 H261 0.985 . S
N249 C251 1.356 1_655 S
N249 H254 0.984 . S
N249 H255 0.985 . S
C250 C244 1.379 . S
C250 C247 1.363 . S
C250 N248 1.356 . S
C251 C245 1.363 . S
C251 C246 1.379 . S
C251 N249 1.356 1_455 S
N252 C244 1.356 . S
N252 H258 0.984 . S
N252 H259 0.984 . S
N253 C246 1.356 1_655 S
N253 H256 0.984 1_655 S
N253 H257 0.985 . S
H254 N249 0.984 . S
H255 N249 0.985 . S
H256 N253 0.984 1_455 S
H257 N253 0.985 . S
H258 N252 0.984 . S
H259 N252 0.984 . S
H260 N248 0.984 . S
H261 N248 0.985 . S
C262 C263 1.363 . S
C262 C268 1.379 . S
C262 N270 1.356 . S
C263 C262 1.363 . S
C263 C269 1.363 . S
C264 C265 1.363 . S
C264 C269 1.379 . S
C264 N271 1.356 . S
C265 C264 1.363 . S
C265 C268 1.363 . S
N266 C268 1.356 . S
N266 H278 0.984 . S
N266 H279 0.985 . S
N267 C269 1.356 . S
N267 H272 0.984 . S
N267 H273 0.985 . S
C268 C262 1.379 . S
C268 C265 1.363 . S
C268 N266 1.356 . S
C269 C263 1.363 . S
C269 C264 1.379 . S
C269 N267 1.356 . S
N270 C262 1.356 . S
N270 H276 0.984 . S
N270 H277 0.984 . S
N271 C264 1.356 . S
N271 H274 0.984 1_655 S
N271 H275 0.985 . S
H272 N267 0.984 . S
H273 N267 0.985 . S
H274 N271 0.984 1_455 S
H275 N271 0.985 . S
H276 N270 0.984 . S
H277 N270 0.984 . S
H278 N266 0.984 . S
H279 N266 0.985 . S
C280 C281 1.363 . S
C280 C286 1.379 . S
C280 N288 1.356 . S
C281 C280 1.363 . S
C281 C287 1.363 . S
C282 C283 1.363 . S
C282 C287 1.379 . S
C282 N289 1.356 . S
C283 C282 1.363 . S
C283 C286 1.363 . S
N284 C286 1.356 . S
N284 H296 0.984 . S
N284 H297 0.985 . S
N285 C287 1.356 . S
N285 H290 0.984 . S
N285 H291 0.985 . S
C286 C280 1.379 . S
C286 C283 1.363 . S
C286 N284 1.356 . S
C287 C281 1.363 . S
C287 C282 1.379 . S
C287 N285 1.356 . S
N288 C280 1.356 . S
N288 H294 0.984 . S
N288 H295 0.984 . S
N289 C282 1.356 . S
N289 H292 0.984 . S
N289 H293 0.985 . S
H290 N285 0.984 . S
H291 N285 0.985 . S
H292 N289 0.984 . S
H293 N289 0.985 . S
H294 N288 0.984 . S
H295 N288 0.984 . S
H296 N284 0.984 . S
H297 N284 0.985 . S
C298 C299 1.363 . S
C298 C304 1.379 . S
C298 N306 1.356 . S
C299 C298 1.363 . S
C299 C305 1.363 . S
C300 C301 1.363 . S
C300 C305 1.379 . S
C300 N307 1.356 . S
C301 C300 1.363 . S
C301 C304 1.363 . S
N302 C304 1.356 . S
N302 H314 0.984 . S
N302 H315 0.985 . S
N303 C305 1.356 1_455 S
N303 H308 0.984 . S
N303 H309 0.985 . S
C304 C298 1.379 . S
C304 C301 1.363 . S
C304 N302 1.356 . S
C305 C299 1.363 . S
C305 C300 1.379 . S
C305 N303 1.356 1_655 S
N306 C298 1.356 . S
N306 H312 0.984 . S
N306 H313 0.984 1_655 S
N307 C300 1.356 . S
N307 H310 0.984 . S
N307 H311 0.985 . S
H308 N303 0.984 . S
H309 N303 0.985 . S
H310 N307 0.984 . S
H311 N307 0.985 . S
H312 N306 0.984 . S
H313 N306 0.984 1_455 S
H314 N302 0.984 . S
H315 N302 0.985 . S
C316 C317 1.363 . S
C316 C322 1.379 . S
C316 N324 1.356 . S
C317 C316 1.363 . S
C317 C323 1.363 . S
C318 C319 1.363 . S
C318 C323 1.379 . S
C318 N325 1.356 . S
C319 C318 1.363 . S
C319 C322 1.363 . S
N320 C322 1.356 . S
N320 H332 0.984 . S
N320 H333 0.985 . S
N321 C323 1.356 . S
N321 H326 0.984 . S
N321 H327 0.985 . S
C322 C316 1.379 . S
C322 C319 1.363 . S
C322 N320 1.356 . S
C323 C317 1.363 . S
C323 C318 1.379 . S
C323 N321 1.356 . S
N324 C316 1.356 . S
N324 H330 0.984 . S
N324 H331 0.984 . S
N325 C318 1.356 . S
N325 H328 0.984 . S
N325 H329 0.985 . S
H326 N321 0.984 . S
H327 N321 0.985 . S
H328 N325 0.984 . S
H329 N325 0.985 . S
H330 N324 0.984 . S
H331 N324 0.984 . S
H332 N320 0.984 . S
H333 N320 0.985 . S
C334 C335 1.363 . S
C334 C340 1.379 . S
C334 N342 1.356 . S
C335 C334 1.363 . S
C335 C341 1.363 . S
C336 C337 1.363 . S
C336 C341 1.379 . S
C336 N343 1.356 . S
C337 C336 1.363 . S
C337 C340 1.363 . S
N338 C340 1.356 . S
N338 H350 0.984 . S
N338 H351 0.985 . S
N339 C341 1.356 . S
N339 H344 0.984 . S
N339 H345 0.985 . S
C340 C334 1.379 . S
C340 C337 1.363 . S
C340 N338 1.356 . S
C341 C335 1.363 . S
C341 C336 1.379 . S
C341 N339 1.356 . S
N342 C334 1.356 . S
N342 H348 0.984 . S
N342 H349 0.984 . S
N343 C336 1.356 . S
N343 H346 0.984 . S
N343 H347 0.985 . S
H344 N339 0.984 . S
H345 N339 0.985 . S
H346 N343 0.984 . S
H347 N343 0.985 . S
H348 N342 0.984 . S
H349 N342 0.984 . S
H350 N338 0.984 . S
H351 N338 0.985 . S
C352 C353 1.363 . S
C352 C358 1.379 . S
C352 N360 1.356 . S
C353 C352 1.363 . S
C353 C359 1.363 . S
C354 C355 1.363 . S
C354 C359 1.379 . S
C354 N361 1.356 . S
C355 C354 1.363 . S
C355 C358 1.363 . S
N356 C358 1.356 . S
N356 H368 0.984 . S
N356 H369 0.985 . S
N357 C359 1.356 . S
N357 H362 0.984 . S
N357 H363 0.985 . S
C358 C352 1.379 . S
C358 C355 1.363 . S
C358 N356 1.356 . S
C359 C353 1.363 . S
C359 C354 1.379 . S
C359 N357 1.356 . S
N360 C352 1.356 . S
N360 H366 0.984 . S
N360 H367 0.984 . S
N361 C354 1.356 . S
N361 H364 0.984 . S
N361 H365 0.985 . S
H362 N357 0.984 . S
H363 N357 0.985 . S
H364 N361 0.984 . S
H365 N361 0.985 . S
H366 N360 0.984 . S
H367 N360 0.984 . S
H368 N356 0.984 . S
H369 N356 0.985 . S
C370 C371 1.363 . S
C370 C376 1.379 . S
C370 N378 1.356 . S
C371 C370 1.363 . S
C371 C377 1.363 . S
C372 C373 1.363 . S
C372 C377 1.379 . S
C372 N379 1.356 . S
C373 C372 1.363 . S
C373 C376 1.363 . S
N374 C376 1.356 . S
N374 H386 0.984 . S
N374 H387 0.985 . S
N375 C377 1.356 . S
N375 H380 0.984 . S
N375 H381 0.985 . S
C376 C370 1.379 . S
C376 C373 1.363 . S
C376 N374 1.356 . S
C377 C371 1.363 . S
C377 C372 1.379 . S
C377 N375 1.356 . S
N378 C370 1.356 . S
N378 H384 0.984 . S
N378 H385 0.984 . S
N379 C372 1.356 . S
N379 H382 0.984 . S
N379 H383 0.985 . S
H380 N375 0.984 . S
H381 N375 0.985 . S
H382 N379 0.984 . S
H383 N379 0.985 . S
H384 N378 0.984 . S
H385 N378 0.984 . S
H386 N374 0.984 . S
H387 N374 0.985 . S
C388 C389 1.363 . S
C388 C394 1.379 . S
C388 N396 1.356 . S
C389 C388 1.363 . S
C389 C395 1.363 . S
C390 C391 1.363 1_565 S
C390 C395 1.379 . S
C390 N397 1.356 1_565 S
C391 C390 1.363 1_545 S
C391 C394 1.363 1_545 S
N392 C394 1.356 1_545 S
N392 H404 0.984 . S
N392 H405 0.985 . S
N393 C395 1.356 . S
N393 H398 0.984 . S
N393 H399 0.985 . S
C394 C388 1.379 . S
C394 C391 1.363 1_565 S
C394 N392 1.356 1_565 S
C395 C389 1.363 . S
C395 C390 1.379 . S
C395 N393 1.356 . S
N396 C388 1.356 . S
N396 H402 0.984 . S
N396 H403 0.984 . S
N397 C390 1.356 1_545 S
N397 H400 0.984 . S
N397 H401 0.985 . S
H398 N393 0.984 . S
H399 N393 0.985 . S
H400 N397 0.984 . S
H401 N397 0.985 . S
H402 N396 0.984 . S
H403 N396 0.984 . S
H404 N392 0.984 . S
H405 N392 0.985 . S
C406 C407 1.363 . S
C406 C412 1.379 1_545 S
C406 N414 1.356 . S
C407 C406 1.363 . S
C407 C413 1.363 . S
C408 C409 1.363 . S
C408 C413 1.379 1_565 S
C408 N415 1.356 . S
C409 C408 1.363 . S
C409 C412 1.363 . S
N410 C412 1.356 . S
N410 H422 0.984 . S
N410 H423 0.985 . S
N411 C413 1.356 . S
N411 H416 0.984 . S
N411 H417 0.985 . S
C412 C406 1.379 1_565 S
C412 C409 1.363 . S
C412 N410 1.356 . S
C413 C407 1.363 . S
C413 C408 1.379 1_545 S
C413 N411 1.356 . S
N414 C406 1.356 . S
N414 H420 0.984 . S
N414 H421 0.984 . S
N415 C408 1.356 . S
N415 H418 0.984 . S
N415 H419 0.985 . S
H416 N411 0.984 . S
H417 N411 0.985 . S
H418 N415 0.984 . S
H419 N415 0.985 . S
H420 N414 0.984 . S
H421 N414 0.984 . S
H422 N410 0.984 . S
H423 N410 0.985 . S
C424 C425 1.363 . S
C424 C430 1.379 1_545 S
C424 N432 1.356 . S
C425 C424 1.363 . S
C425 C431 1.363 . S
C426 C427 1.363 . S
C426 C431 1.379 1_565 S
C426 N433 1.356 . S
C427 C426 1.363 . S
C427 C430 1.363 . S
N428 C430 1.356 . S
N428 H440 0.984 . S
N428 H441 0.985 . S
N429 C431 1.356 . S
N429 H434 0.984 . S
N429 H435 0.985 . S
C430 C424 1.379 1_565 S
C430 C427 1.363 . S
C430 N428 1.356 . S
C431 C425 1.363 . S
C431 C426 1.379 1_545 S
C431 N429 1.356 . S
N432 C424 1.356 . S
N432 H438 0.984 . S
N432 H439 0.984 . S
N433 C426 1.356 . S
N433 H436 0.984 . S
N433 H437 0.985 . S
H434 N429 0.984 . S
H435 N429 0.985 . S
H436 N433 0.984 . S
H437 N433 0.985 . S
H438 N432 0.984 . S
H439 N432 0.984 . S
H440 N428 0.984 . S
H441 N428 0.985 . S
C442 C443 1.363 . S
C442 C448 1.379 1_565 S
C442 N450 1.356 1_455 S
C443 C442 1.363 . S
C443 C449 1.363 . S
C444 C445 1.363 . S
C444 C449 1.379 1_545 S
C444 N451 1.356 . S
C445 C444 1.363 . S
C445 C448 1.363 . S
N446 C448 1.356 . S
N446 H458 0.984 1_455 S
N446 H459 0.985 . S
N447 C449 1.356 . S
N447 H452 0.984 . S
N447 H453 0.985 . S
C448 C442 1.379 1_545 S
C448 C445 1.363 . S
C448 N446 1.356 . S
C449 C443 1.363 . S
C449 C444 1.379 1_565 S
C449 N447 1.356 . S
N450 C442 1.356 1_655 S
N450 H456 0.984 . S
N450 H457 0.984 . S
N451 C444 1.356 . S
N451 H454 0.984 . S
N451 H455 0.985 . S
H452 N447 0.984 . S
H453 N447 0.985 . S
H454 N451 0.984 . S
H455 N451 0.985 . S
H456 N450 0.984 . S
H457 N450 0.984 . S
H458 N446 0.984 1_655 S
H459 N446 0.985 . S
C460 C461 1.363 1_556 S
C460 C466 1.379 . S
C460 N468 1.356 1_556 S
C461 C460 1.363 1_554 S
C461 C467 1.363 . S
C462 C463 1.363 . S
C462 C467 1.379 1_556 S
C462 N469 1.356 . S
C463 C462 1.363 . S
C463 C466 1.363 . S
N464 C466 1.356 . S
N464 H476 0.984 . S
N464 H477 0.985 . S
N465 C467 1.356 . S
N465 H470 0.984 . S
N465 H471 0.985 . S
C466 C460 1.379 . S
C466 C463 1.363 . S
C466 N464 1.356 . S
C467 C461 1.363 . S
C467 C462 1.379 1_554 S
C467 N465 1.356 . S
N468 C460 1.356 1_554 S
N468 H474 0.984 . S
N468 H475 0.984 . S
N469 C462 1.356 . S
N469 H472 0.984 . S
N469 H473 0.985 . S
H470 N465 0.984 . S
H471 N465 0.985 . S
H472 N469 0.984 . S
H473 N469 0.985 . S
H474 N468 0.984 . S
H475 N468 0.984 . S
H476 N464 0.984 . S
H477 N464 0.985 . S
C478 C479 1.363 . S
C478 C484 1.379 . S
C478 N486 1.356 . S
C479 C478 1.363 . S
C479 C485 1.363 . S
C480 C481 1.363 . S
C480 C485 1.379 . S
C480 N487 1.356 . S
C481 C480 1.363 . S
C481 C484 1.363 . S
N482 C484 1.356 . S
N482 H494 0.984 . S
N482 H495 0.985 . S
N483 C485 1.356 . S
N483 H488 0.984 . S
N483 H489 0.985 . S
C484 C478 1.379 . S
C484 C481 1.363 . S
C484 N482 1.356 . S
C485 C479 1.363 . S
C485 C480 1.379 . S
C485 N483 1.356 . S
N486 C478 1.356 . S
N486 H492 0.984 . S
N486 H493 0.984 . S
N487 C480 1.356 . S
N487 H490 0.984 . S
N487 H491 0.985 . S
H488 N483 0.984 . S
H489 N483 0.985 . S
H490 N487 0.984 . S
H491 N487 0.985 . S
H492 N486 0.984 . S
H493 N486 0.984 . S
H494 N482 0.984 . S
H495 N482 0.985 . S
C496 C497 1.363 . S
C496 C502 1.379 . S
C496 N504 1.356 . S
C497 C496 1.363 . S
C497 C503 1.363 . S
C498 C499 1.363 . S
C498 C503 1.379 . S
C498 N505 1.356 . S
C499 C498 1.363 . S
C499 C502 1.363 . S
N500 C502 1.356 . S
N500 H512 0.984 . S
N500 H513 0.985 . S
N501 C503 1.356 . S
N501 H506 0.984 . S
N501 H507 0.985 . S
C502 C496 1.379 . S
C502 C499 1.363 . S
C502 N500 1.356 . S
C503 C497 1.363 . S
C503 C498 1.379 . S
C503 N501 1.356 . S
N504 C496 1.356 . S
N504 H510 0.984 . S
N504 H511 0.984 . S
N505 C498 1.356 . S
N505 H508 0.984 . S
N505 H509 0.985 . S
H506 N501 0.984 . S
H507 N501 0.985 . S
H508 N505 0.984 . S
H509 N505 0.985 . S
H510 N504 0.984 . S
H511 N504 0.984 . S
H512 N500 0.984 . S
H513 N500 0.985 . S
C514 C515 1.363 . S
C514 C520 1.379 . S
C514 N522 1.356 . S
C515 C514 1.363 . S
C515 C521 1.363 . S
C516 C517 1.363 . S
C516 C521 1.379 . S
C516 N523 1.356 . S
C517 C516 1.363 . S
C517 C520 1.363 . S
N518 C520 1.356 . S
N518 H530 0.984 . S
N518 H531 0.985 . S
N519 C521 1.356 . S
N519 H524 0.984 . S
N519 H525 0.985 . S
C520 C514 1.379 . S
C520 C517 1.363 . S
C520 N518 1.356 . S
C521 C515 1.363 . S
C521 C516 1.379 . S
C521 N519 1.356 . S
N522 C514 1.356 . S
N522 H528 0.984 . S
N522 H529 0.984 . S
N523 C516 1.356 . S
N523 H526 0.984 . S
N523 H527 0.985 . S
H524 N519 0.984 . S
H525 N519 0.985 . S
H526 N523 0.984 . S
H527 N523 0.985 . S
H528 N522 0.984 . S
H529 N522 0.984 . S
H530 N518 0.984 . S
H531 N518 0.985 . S
C532 C533 1.363 . S
C532 C538 1.379 1_556 S
C532 N540 1.356 1_455 S
C533 C532 1.363 . S
C533 C539 1.378 . S
C534 C535 1.363 . S
C534 C539 1.347 1_554 S
C534 N541 1.356 . S
C535 C534 1.363 . S
C535 C538 1.363 . S
N536 C538 1.356 . S
N536 H548 0.984 . S
N536 H549 0.985 . S
N537 C539 1.381 . S
N537 H542 0.984 . S
N537 H543 0.985 . S
C538 C532 1.379 1_554 S
C538 C535 1.363 . S
C538 N536 1.356 . S
C539 C533 1.378 . S
C539 C534 1.347 1_556 S
C539 N537 1.381 . S
N540 C532 1.356 1_655 S
N540 H546 0.984 . S
N540 H547 0.984 . S
N541 C534 1.356 . S
N541 H544 0.984 . S
N541 H545 0.985 . S
H542 N537 0.984 . S
H543 N537 0.985 . S
H544 N541 0.984 . S
H545 N541 0.985 . S
H546 N540 0.984 . S
H547 N540 0.984 . S
H548 N536 0.984 . S
H549 N536 0.985 . S
C550 C551 1.363 . S
C550 C556 1.379 . S
C550 N558 1.356 . S
C551 C550 1.363 . S
C551 C557 1.363 . S
C552 C553 1.363 . S
C552 C557 1.379 . S
C552 N559 1.356 . S
C553 C552 1.363 . S
C553 C556 1.363 . S
N554 C556 1.356 . S
N554 H566 0.984 . S
N554 H567 0.985 . S
N555 C557 1.356 . S
N555 H560 0.984 . S
N555 H561 0.985 . S
C556 C550 1.379 . S
C556 C553 1.363 . S
C556 N554 1.356 . S
C557 C551 1.363 . S
C557 C552 1.379 . S
C557 N555 1.356 . S
N558 C550 1.356 . S
N558 H564 0.984 . S
N558 H565 0.984 . S
N559 C552 1.356 . S
N559 H562 0.984 . S
N559 H563 0.985 . S
H560 N555 0.984 . S
H561 N555 0.985 . S
H562 N559 0.984 . S
H563 N559 0.985 . S
H564 N558 0.984 . S
H565 N558 0.984 . S
H566 N554 0.984 . S
H567 N554 0.985 . S
C568 C569 1.363 . S
C568 C574 1.379 . S
C568 N576 1.356 . S
C569 C568 1.363 . S
C569 C575 1.363 . S
C570 C571 1.363 . S
C570 C575 1.379 . S
C570 N577 1.356 . S
C571 C570 1.363 . S
C571 C574 1.363 . S
N572 C574 1.356 . S
N572 H584 0.984 . S
N572 H585 0.985 . S
N573 C575 1.356 . S
N573 H578 0.984 . S
N573 H579 0.985 . S
C574 C568 1.379 . S
C574 C571 1.363 . S
C574 N572 1.356 . S
C575 C569 1.363 . S
C575 C570 1.379 . S
C575 N573 1.356 . S
N576 C568 1.356 . S
N576 H582 0.984 . S
N576 H583 0.984 . S
N577 C570 1.356 . S
N577 H580 0.984 . S
N577 H581 0.985 . S
H578 N573 0.984 . S
H579 N573 0.985 . S
H580 N577 0.984 . S
H581 N577 0.985 . S
H582 N576 0.984 . S
H583 N576 0.984 . S
H584 N572 0.984 . S
H585 N572 0.985 . S
C586 C587 1.363 . S
C586 C592 1.379 . S
C586 N594 1.356 . S
C587 C586 1.363 . S
C587 C593 1.363 . S
C588 C589 1.363 . S
C588 C593 1.379 . S
C588 N595 1.356 . S
C589 C588 1.363 . S
C589 C592 1.363 . S
N590 C592 1.356 . S
N590 H602 0.984 . S
N590 H603 0.985 . S
N591 C593 1.356 . S
N591 H596 0.984 . S
N591 H597 0.985 . S
C592 C586 1.379 . S
C592 C589 1.363 . S
C592 N590 1.356 . S
C593 C587 1.363 . S
C593 C588 1.379 . S
C593 N591 1.356 . S
N594 C586 1.356 . S
N594 H600 0.984 . S
N594 H601 0.984 . S
N595 C588 1.356 . S
N595 H598 0.984 . S
N595 H599 0.985 . S
H596 N591 0.984 . S
H597 N591 0.985 . S
H598 N595 0.984 . S
H599 N595 0.985 . S
H600 N594 0.984 . S
H601 N594 0.984 . S
H602 N590 0.984 . S
H603 N590 0.985 . S
C175 C95 1.404 . S
C173 C4 1.543 . S
C193 C113 1.384 . S
C191 C21 1.462 . S
C209 C32 1.430 . S
C211 C137 1.336 . S
C229 C167 1.288 . S
C227 C37 1.440 . S
C247 C155 1.293 . S
C245 C48 1.381 . S
C263 C65 1.478 . S
C265 C108 1.405 1_655 S
C281 C76 1.582 . S
C283 C128 1.475 . S
C299 C81 1.438 1_655 S
C301 C133 1.311 . S
C317 C87 1.472 . S
C319 C149 1.397 . S
C335 C59 1.443 . S
C337 C104 1.308 . S
C355 C171 1.403 . S
C353 C43 1.473 . S
C373 C116 1.276 . S
C371 C15 1.434 . S
C389 C26 1.538 . S
C391 C134 1.399 . S
C407 C10 1.437 . S
C409 C92 1.342 . S
C427 C112 1.297 . S
C425 C70 1.382 . S
C445 C158 1.464 . S
C443 C54 1.580 . S
C463 C154 1.368 . S
C461 C5 1.526 . S
C481 C107 1.497 . S
C479 C16 1.535 . S
C497 C27 1.510 . S
C499 C129 1.347 . S
C515 C38 1.549 . S
C517 C150 1.507 . S
C535 C91 1.328 . S
C533 C49 1.576 . S
C551 C60 1.520 . S
C553 C125 1.467 . S
C571 C146 1.341 . S
C569 C71 1.590 . S
C589 C170 1.445 . S
C587 C82 1.499 . S
