# Generated by pormake.
# Topology pto, (3,4)-cn, num edge types: 1
# Building blocks:
#     Node 0, Type 0, BuildingBlock: BETDIP_clean_linker_0, # of connection points: 3
#     Node 1, Type 0, BuildingBlock: BETDIP_clean_linker_0, # of connection points: 3
#     Node 2, Type 0, BuildingBlock: BETDIP_clean_linker_0, # of connection points: 3
#     Node 3, Type 0, BuildingBlock: BETDIP_clean_linker_0, # of connection points: 3
#     Node 4, Type 0, BuildingBlock: BETDIP_clean_linker_0, # of connection points: 3
#     Node 5, Type 0, BuildingBlock: BETDIP_clean_linker_0, # of connection points: 3
#     Node 6, Type 0, BuildingBlock: BETDIP_clean_linker_0, # of connection points: 3
#     Node 7, Type 0, BuildingBlock: BETDIP_clean_linker_0, # of connection points: 3
#     Node 8, Type 1, BuildingBlock: KOZSID_clean_sbu_0, # of connection points: 4
#     Node 9, Type 1, BuildingBlock: KOZSID_clean_sbu_0, # of connection points: 4
#     Node 10, Type 1, BuildingBlock: KOZSID_clean_sbu_0, # of connection points: 4
#     Node 11, Type 1, BuildingBlock: KOZSID_clean_sbu_0, # of connection points: 4
#     Node 12, Type 1, BuildingBlock: KOZSID_clean_sbu_0, # of connection points: 4
#     Node 13, Type 1, BuildingBlock: KOZSID_clean_sbu_0, # of connection points: 4
#     Edge 14, Type (0, 1), BuildingBlock: EZIPEK_clean_linker_0, # of connection points: 2
#     Edge 15, Type (0, 1), BuildingBlock: EZIPEK_clean_linker_0, # of connection points: 2
#     Edge 16, Type (0, 1), BuildingBlock: EZIPEK_clean_linker_0, # of connection points: 2
#     Edge 17, Type (0, 1), BuildingBlock: EZIPEK_clean_linker_0, # of connection points: 2
#     Edge 18, Type (0, 1), BuildingBlock: EZIPEK_clean_linker_0, # of connection points: 2
#     Edge 19, Type (0, 1), BuildingBlock: EZIPEK_clean_linker_0, # of connection points: 2
#     Edge 20, Type (0, 1), BuildingBlock: EZIPEK_clean_linker_0, # of connection points: 2
#     Edge 21, Type (0, 1), BuildingBlock: EZIPEK_clean_linker_0, # of connection points: 2
#     Edge 22, Type (0, 1), BuildingBlock: EZIPEK_clean_linker_0, # of connection points: 2
#     Edge 23, Type (0, 1), BuildingBlock: EZIPEK_clean_linker_0, # of connection points: 2
#     Edge 24, Type (0, 1), BuildingBlock: EZIPEK_clean_linker_0, # of connection points: 2
#     Edge 25, Type (0, 1), BuildingBlock: EZIPEK_clean_linker_0, # of connection points: 2
#     Edge 26, Type (0, 1), BuildingBlock: EZIPEK_clean_linker_0, # of connection points: 2
#     Edge 27, Type (0, 1), BuildingBlock: EZIPEK_clean_linker_0, # of connection points: 2
#     Edge 28, Type (0, 1), BuildingBlock: EZIPEK_clean_linker_0, # of connection points: 2
#     Edge 29, Type (0, 1), BuildingBlock: EZIPEK_clean_linker_0, # of connection points: 2
#     Edge 30, Type (0, 1), BuildingBlock: EZIPEK_clean_linker_0, # of connection points: 2
#     Edge 31, Type (0, 1), BuildingBlock: EZIPEK_clean_linker_0, # of connection points: 2
#     Edge 32, Type (0, 1), BuildingBlock: EZIPEK_clean_linker_0, # of connection points: 2
#     Edge 33, Type (0, 1), BuildingBlock: EZIPEK_clean_linker_0, # of connection points: 2
#     Edge 34, Type (0, 1), BuildingBlock: EZIPEK_clean_linker_0, # of connection points: 2
#     Edge 35, Type (0, 1), BuildingBlock: EZIPEK_clean_linker_0, # of connection points: 2
#     Edge 36, Type (0, 1), BuildingBlock: EZIPEK_clean_linker_0, # of connection points: 2
#     Edge 37, Type (0, 1), BuildingBlock: EZIPEK_clean_linker_0, # of connection points: 2
# Relax obj value: 0.011
# Max RMSD: 0.133
# Mean RMSD: 0.060
data_MOF--net-pto--node1-KOZSID_clean_sbu_0--node2-BETDIP_clean_linker_0--edge1-EZIPEK_clean_linker_0
_symmetry_space_group_name_H-M    P1
_symmetry_Int_Tables_number       1
_symmetry_cell_setting            triclinic
loop_
_symmetry_equiv_pos_as_xyz
'x, y, z'
_cell_length_a     27.490256
_cell_length_b     38.496424
_cell_length_c     33.697301
_cell_angle_alpha  95.049011
_cell_angle_beta   102.48161
_cell_angle_gamma 109.43682
loop_
_atom_site_label
_atom_site_type_symbol
_atom_site_fract_x
_atom_site_fract_y
_atom_site_fract_z
_atom_type_partial_charge
H0 H 0.17081 0.32453 0.34349 0.0
H1 H 0.26203 0.27947 0.28115 0.0
H2 H 0.23929 0.37898 0.25146 0.0
H3 H 0.27569 0.25434 0.33674 0.0
C4 C 0.24045 0.24906 0.34827 0.0
C5 C 0.19052 0.32526 0.31897 0.0
C6 C 0.19191 0.3518 0.29217 0.0
C7 C 0.21556 0.29928 0.31565 0.0
C8 C 0.24473 0.30041 0.28612 0.0
C9 C 0.25268 0.32918 0.2629 0.0
C10 C 0.22855 0.35568 0.26749 0.0
N11 N 0.20864 0.27154 0.34137 0.0
H12 H 0.14484 0.80389 0.68884 0.0
H13 H 0.28799 0.89677 0.75351 0.0
H14 H 0.24997 0.79179 0.79686 0.0
H15 H 0.2391 0.93113 0.72619 0.0
C16 C 0.21766 0.9147 0.69571 0.0
C17 C 0.1808 0.81572 0.71404 0.0
C18 C 0.19374 0.79349 0.74231 0.0
C19 C 0.21314 0.85342 0.71876 0.0
C20 C 0.26089 0.86832 0.75064 0.0
C21 C 0.27425 0.84611 0.77891 0.0
C22 C 0.23999 0.80897 0.77494 0.0
N23 N 0.1972 0.875 0.69007 0.0
H24 H 0.83813 0.80788 0.29673 0.0
H25 H 0.89498 0.85396 0.42667 0.0
H26 H 0.80217 0.90119 0.34429 0.0
H27 H 0.94557 0.81927 0.42923 0.0
C28 C 0.92648 0.79614 0.40353 0.0
C29 C 0.84186 0.82841 0.32248 0.0
C30 C 0.81743 0.85483 0.31584 0.0
C31 C 0.87038 0.82784 0.36212 0.0
C32 C 0.87436 0.85425 0.39558 0.0
C33 C 0.84985 0.88079 0.38922 0.0
C34 C 0.82155 0.881 0.34927 0.0
N35 N 0.89206 0.79919 0.36699 0.0
H36 H 0.69402 0.23621 0.84117 0.0
H37 H 0.71821 0.35322 0.85503 0.0
H38 H 0.82408 0.31227 0.80463 0.0
H39 H 0.6652 0.24108 0.90059 0.0
C40 C 0.64714 0.26222 0.89836 0.0
C41 C 0.71739 0.26454 0.83918 0.0
C42 C 0.75957 0.2708 0.82013 0.0
C43 C 0.70399 0.29479 0.85341 0.0
C44 C 0.73094 0.33054 0.84625 0.0
C45 C 0.77555 0.33769 0.82991 0.0
C46 C 0.79043 0.30753 0.81802 0.0
N47 N 0.66358 0.29066 0.87471 0.0
H48 H 0.86553 0.85389 0.90505 0.0
H49 H 0.89566 0.87946 0.78934 0.0
H50 H 0.77879 0.91188 0.83247 0.0
H51 H 0.89214 0.81804 0.78121 0.0
C52 C 0.90845 0.81323 0.81167 0.0
C53 C 0.85644 0.86585 0.87774 0.0
C54 C 0.81805 0.883 0.87312 0.0
C55 C 0.8799 0.86092 0.84573 0.0
C56 C 0.87348 0.87983 0.81221 0.0
C57 C 0.83906 0.90003 0.80875 0.0
C58 C 0.80833 0.89871 0.83729 0.0
N59 N 0.90694 0.83514 0.84729 0.0
H60 H 0.69709 0.2459 0.37342 0.0
H61 H 0.8479 0.32621 0.44844 0.0
H62 H 0.76271 0.35453 0.34185 0.0
H63 H 0.85457 0.28168 0.4817 0.0
C64 C 0.81929 0.25644 0.47148 0.0
C65 C 0.72829 0.27335 0.38013 0.0
C66 C 0.72476 0.29931 0.35391 0.0
C67 C 0.77261 0.28229 0.41437 0.0
C68 C 0.81323 0.3181 0.42246 0.0
C69 C 0.80936 0.34412 0.39636 0.0
C70 C 0.7652 0.33458 0.36231 0.0
N71 N 0.77495 0.25431 0.43904 0.0
H72 H 0.09612 0.31805 0.70623 0.0
H73 H 0.1977 0.27249 0.78321 0.0
H74 H 0.18177 0.37421 0.83075 0.0
H75 H 0.21401 0.25845 0.72094 0.0
C76 C 0.17431 0.24824 0.69988 0.0
C77 C 0.12309 0.31946 0.73554 0.0
C78 C 0.13605 0.34926 0.76795 0.0
C79 C 0.14664 0.29239 0.74024 0.0
C80 C 0.18087 0.29402 0.77853 0.0
C81 C 0.19353 0.32335 0.81123 0.0
C82 C 0.1716 0.35124 0.80569 0.0
N83 N 0.13608 0.26414 0.70603 0.0
H84 H 0.33047 0.87885 0.27266 0.0
H85 H 0.28824 0.7595 0.24696 0.0
H86 H 0.22511 0.80821 0.33413 0.0
H87 H 0.4147 0.87362 0.26667 0.0
C88 C 0.39693 0.85489 0.23709 0.0
C89 C 0.30988 0.85117 0.27832 0.0
C90 C 0.27668 0.84694 0.30515 0.0
C91 C 0.31524 0.81964 0.25811 0.0
C92 C 0.28538 0.78386 0.26358 0.0
C93 C 0.2536 0.77947 0.29169 0.0
C94 C 0.25 0.81128 0.31272 0.0
N95 N 0.34944 0.82327 0.23143 0.0
C96 C 0.1483 0.62995 0.37272 0.0
C97 C 0.19372 0.65296 0.40278 0.0
C98 C 0.19129 0.63903 0.43843 0.0
C99 C 0.14447 0.60872 0.42833 0.0
N100 N 0.11722 0.60196 0.38816 0.0
Co101 Co 0.04373 0.56418 0.36182 0.0
N102 N 0.03787 0.54588 0.4152 0.0
C103 C 0.07535 0.55797 0.45177 0.0
C104 C 0.06171 0.53799 0.48199 0.0
C105 C 0.01307 0.51092 0.46337 0.0
C106 C 0.99984 0.51617 0.42282 0.0
N107 N 0.9694 0.52755 0.33581 0.0
C108 C 0.93691 0.50087 0.3517 0.0
C109 C 0.88828 0.48115 0.32324 0.0
C110 C 0.89059 0.49539 0.28771 0.0
C111 C 0.94019 0.52296 0.29655 0.0
N112 N 0.05024 0.58116 0.30803 0.0
C113 C 0.01427 0.56709 0.27084 0.0
C114 C 0.03065 0.5839 0.23937 0.0
C115 C 0.07968 0.61066 0.25766 0.0
C116 C 0.09013 0.60878 0.29943 0.0
N117 N 0.07389 0.52572 0.34826 0.0
C118 C 0.11375 0.46963 0.32919 0.0
C119 C 0.06956 0.47235 0.30221 0.0
C120 C 0.05065 0.50047 0.31211 0.0
C121 C 0.13845 0.49562 0.36568 0.0
C122 C 0.11776 0.5232 0.37469 0.0
N123 N 0.01391 0.60293 0.3752 0.0
C124 C 0.96527 0.64266 0.35208 0.0
C125 C 0.98314 0.66439 0.39129 0.0
C126 C 0.01424 0.6539 0.42295 0.0
C127 C 0.02892 0.62314 0.41431 0.0
C128 C 0.98074 0.61213 0.3448 0.0
H129 H 0.05339 0.61679 0.43954 0.0
H130 H 0.96657 0.59711 0.31404 0.0
H131 H 0.01677 0.50088 0.29014 0.0
H132 H 0.1376 0.54195 0.40331 0.0
C133 C 0.1237 0.58727 0.45627 0.0
C134 C 0.13546 0.63639 0.33026 0.0
C135 C 0.95209 0.49107 0.39211 0.0
C136 C 0.96329 0.54106 0.26733 0.0
H137 H 0.22495 0.67773 0.39966 0.0
H138 H 0.21943 0.65039 0.46845 0.0
H139 H 0.08504 0.54198 0.51347 0.0
H140 H 0.99041 0.48925 0.47767 0.0
H141 H 0.85546 0.45788 0.32729 0.0
H142 H 0.8608 0.48548 0.25833 0.0
H143 H 0.0086 0.57846 0.2073 0.0
H144 H 0.10397 0.63045 0.24236 0.0
H145 H 0.04945 0.45261 0.27358 0.0
H146 H 0.17291 0.49425 0.38733 0.0
H147 H 0.94047 0.64977 0.32691 0.0
H148 H 0.02811 0.66988 0.45395 0.0
C149 C 0.08454 0.63471 0.79345 0.0
C150 C 0.12808 0.65892 0.8242 0.0
C151 C 0.12524 0.64487 0.85976 0.0
C152 C 0.08016 0.61316 0.84876 0.0
N153 N 0.05479 0.60548 0.80812 0.0
Co154 Co 0.98354 0.56562 0.78033 0.0
N155 N 0.9769 0.54627 0.83307 0.0
C156 C 0.01379 0.5588 0.86998 0.0
C157 C 0.00382 0.5358 0.89834 0.0
C158 C 0.95841 0.5064 0.8782 0.0
C159 C 0.94236 0.51356 0.83873 0.0
N160 N 0.91098 0.52755 0.75299 0.0
C161 C 0.8779 0.50099 0.76861 0.0
C162 C 0.82904 0.4822 0.73997 0.0
C163 C 0.83249 0.49624 0.70442 0.0
C164 C 0.88268 0.52311 0.71355 0.0
N165 N 0.99142 0.58314 0.72696 0.0
C166 C 0.95744 0.56804 0.68915 0.0
C167 C 0.9738 0.5861 0.65837 0.0
C168 C 0.02058 0.6148 0.67781 0.0
C169 C 0.02984 0.6126 0.71945 0.0
N170 N 0.01752 0.52903 0.76864 0.0
C171 C 0.05612 0.47056 0.75952 0.0
C172 C 0.01429 0.47239 0.72887 0.0
C173 C 0.99583 0.50192 0.73392 0.0
C174 C 0.08056 0.49945 0.7933 0.0
C175 C 0.06114 0.52841 0.79703 0.0
N176 N 0.95007 0.60246 0.79245 0.0
C177 C 0.90876 0.64558 0.76749 0.0
C178 C 0.92596 0.66711 0.80688 0.0
C179 C 0.94925 0.65322 0.83975 0.0
C180 C 0.96091 0.62098 0.83188 0.0
C181 C 0.92055 0.61324 0.76107 0.0
H182 H 0.98074 0.61254 0.85796 0.0
H183 H 0.90812 0.5987 0.73007 0.0
H184 H 0.96276 0.50151 0.71017 0.0
H185 H 0.08119 0.54936 0.82384 0.0
C186 C 0.05998 0.59036 0.87583 0.0
C187 C 0.07167 0.64158 0.75125 0.0
C188 C 0.89436 0.48857 0.80738 0.0
C189 C 0.90677 0.54126 0.6848 0.0
H190 H 0.15807 0.68457 0.82142 0.0
H191 H 0.152 0.65688 0.89021 0.0
H192 H 0.02815 0.53907 0.92931 0.0
H193 H 0.9403 0.48212 0.89113 0.0
H194 H 0.7957 0.45909 0.74362 0.0
H195 H 0.803 0.48663 0.67488 0.0
H196 H 0.95259 0.58053 0.62607 0.0
H197 H 0.04377 0.63613 0.66341 0.0
H198 H 0.99485 0.45054 0.70194 0.0
H199 H 0.11372 0.49918 0.8173 0.0
H200 H 0.88885 0.65476 0.74137 0.0
H201 H 0.96118 0.66839 0.87102 0.0
C202 C 0.23698 0.01874 0.55851 0.0
C203 C 0.28492 0.01989 0.58377 0.0
C204 C 0.32479 0.0408 0.56798 0.0
C205 C 0.29919 0.05138 0.53424 0.0
N206 N 0.24571 0.03885 0.52808 0.0
Co207 Co 0.19391 0.04687 0.4821 0.0
N208 N 0.25124 0.08862 0.47005 0.0
C209 C 0.30405 0.0955 0.48192 0.0
C210 C 0.33396 0.12611 0.46841 0.0
C211 C 0.29765 0.13915 0.44644 0.0
C212 C 0.24748 0.1156 0.44781 0.0
N213 N 0.14247 0.05498 0.43596 0.0
C214 C 0.14786 0.08508 0.41692 0.0
C215 C 0.10188 0.07952 0.38633 0.0
C216 C 0.06666 0.04448 0.38614 0.0
C217 C 0.09303 0.0307 0.41655 0.0
N218 N 0.13655 0.00481 0.49401 0.0
C219 C 0.08749 0.98606 0.46867 0.0
C220 C 0.05627 0.95852 0.48538 0.0
C221 C 0.08791 0.95971 0.5234 0.0
C222 C 0.13681 0.98797 0.52769 0.0
N223 N 0.18137 0.082 0.52046 0.0
C224 C 0.16387 0.13188 0.57598 0.0
C225 C 0.12074 0.10423 0.54741 0.0
C226 C 0.13038 0.07962 0.51977 0.0
C227 C 0.21578 0.13416 0.57639 0.0
C228 C 0.2237 0.10896 0.54839 0.0
N229 N 0.20659 0.01169 0.44377 0.0
C230 C 0.22609 0.99556 0.37985 0.0
C231 C 0.23026 0.96261 0.39194 0.0
C232 C 0.22174 0.95439 0.4299 0.0
C233 C 0.20997 0.97926 0.45526 0.0
C234 C 0.21404 0.01975 0.40628 0.0
H235 H 0.20458 0.97256 0.48454 0.0
H236 H 0.21153 0.04517 0.39668 0.0
H237 H 0.09654 0.05863 0.49792 0.0
H238 H 0.2641 0.11125 0.5494 0.0
C239 C 0.32418 0.07667 0.51101 0.0
C240 C 0.18425 0.99496 0.56174 0.0
C241 C 0.19719 0.11791 0.42512 0.0
C242 C 0.06991 0.99858 0.43242 0.0
H243 H 0.29051 0.00633 0.6103 0.0
H244 H 0.36737 0.04802 0.58015 0.0
H245 H 0.37706 0.1383 0.47495 0.0
H246 H 0.30699 0.16303 0.43089 0.0
H247 H 0.09475 0.09868 0.36616 0.0
H248 H 0.02598 0.03129 0.36722 0.0
H249 H 0.01505 0.94036 0.472 0.0
H250 H 0.07679 0.94134 0.54509 0.0
H251 H 0.08007 0.10178 0.54647 0.0
H252 H 0.24996 0.15527 0.59827 0.0
H253 H 0.23252 0.0026 0.35051 0.0
H254 H 0.22473 0.92906 0.44005 0.0
C255 C 0.53853 0.90872 0.10151 0.0
C256 C 0.53721 0.94173 0.12055 0.0
C257 C 0.56744 0.96999 0.10423 0.0
C258 C 0.5853 0.95267 0.07619 0.0
N259 N 0.5683 0.9153 0.07394 0.0
Co260 Co 0.58327 0.8795 0.03664 0.0
N261 N 0.64416 0.91999 0.02647 0.0
C262 C 0.65673 0.95705 0.03749 0.0
C263 C 0.7055 0.97798 0.03241 0.0
C264 C 0.72431 0.95261 0.01642 0.0
C265 C 0.68503 0.91749 0.01138 0.0
N266 N 0.59646 0.84371 0.99786 0.0
C267 C 0.63586 0.84918 0.97821 0.0
C268 C 0.62372 0.81862 0.94752 0.0
C269 C 0.57581 0.79312 0.94852 0.0
C270 C 0.56076 0.80953 0.97906 0.0
N271 N 0.52351 0.83885 0.04791 0.0
C272 C 0.49758 0.80437 0.02532 0.0
C273 C 0.45921 0.782 0.04161 0.0
C274 C 0.4609 0.80391 0.07657 0.0
C275 C 0.50011 0.83856 0.07938 0.0
N276 N 0.53348 0.88696 0.99002 0.0
C277 C 0.45671 0.88524 0.91966 0.0
C278 C 0.5099 0.8933 0.91868 0.0
C279 C 0.54751 0.89357 0.95408 0.0
C280 C 0.44357 0.88104 0.95723 0.0
C281 C 0.48276 0.88268 0.99218 0.0
N282 N 0.63257 0.8719 0.08347 0.0
C283 C 0.66272 0.83058 0.12351 0.0
C284 C 0.69491 0.86082 0.15511 0.0
C285 C 0.69701 0.89674 0.14946 0.0
C286 C 0.66592 0.90171 0.1134 0.0
C287 C 0.63161 0.83671 0.08797 0.0
H288 H 0.66794 0.92969 0.11038 0.0
H289 H 0.60574 0.81289 0.06462 0.0
H290 H 0.58728 0.89754 0.95178 0.0
H291 H 0.47134 0.87888 0.02052 0.0
C292 C 0.62628 0.97067 0.05843 0.0
C293 C 0.50996 0.87162 0.10943 0.0
C294 C 0.68314 0.88376 0.98562 0.0
C295 C 0.51527 0.79275 0.9926 0.0
H296 H 0.51701 0.94503 0.14406 0.0
H297 H 0.57745 0.99972 0.11333 0.0
H298 H 0.72577 0.00801 0.04052 0.0
H299 H 0.76165 0.95943 0.00779 0.0
H300 H 0.64606 0.81521 0.92568 0.0
H301 H 0.55438 0.76596 0.92911 0.0
H302 H 0.43405 0.75296 0.03011 0.0
H303 H 0.43544 0.79561 0.09712 0.0
H304 H 0.52154 0.89719 0.89018 0.0
H305 H 0.40292 0.87536 0.95925 0.0
H306 H 0.66058 0.80241 0.12683 0.0
H307 H 0.72189 0.92078 0.17315 0.0
C308 C 0.8784 0.03206 0.69151 0.0
C309 C 0.92832 0.03591 0.7157 0.0
C310 C 0.96424 0.0671 0.70808 0.0
C311 C 0.93449 0.08043 0.67968 0.0
N312 N 0.88164 0.05959 0.66853 0.0
Co313 Co 0.82449 0.06845 0.62703 0.0
N314 N 0.87819 0.11261 0.6135 0.0
C315 C 0.93187 0.12546 0.62883 0.0
C316 C 0.95851 0.15588 0.61341 0.0
C317 C 0.9195 0.16301 0.58664 0.0
C318 C 0.87115 0.13648 0.58744 0.0
N319 N 0.7671 0.07818 0.58662 0.0
C320 C 0.77039 0.10611 0.56424 0.0
C321 C 0.7204 0.1035 0.54148 0.0
C322 C 0.68412 0.0729 0.54986 0.0
C323 C 0.71389 0.05873 0.57725 0.0
N324 N 0.77101 0.02338 0.63938 0.0
C325 C 0.71773 0.00892 0.62174 0.0
C326 C 0.69125 0.9777 0.63601 0.0
C327 C 0.72991 0.97155 0.6642 0.0
C328 C 0.77803 0.99943 0.6654 0.0
N329 N 0.81536 0.10168 0.67137 0.0
C330 C 0.79927 0.15349 0.72676 0.0
C331 C 0.75708 0.12107 0.70528 0.0
C332 C 0.76591 0.09573 0.67799 0.0
C333 C 0.85024 0.15872 0.7219 0.0
C334 C 0.85745 0.13243 0.69451 0.0
N335 N 0.83341 0.03531 0.5825 0.0
C336 C 0.79503 0.98819 0.5206 0.0
C337 C 0.84496 0.98653 0.52076 0.0
C338 C 0.88921 0.00988 0.55193 0.0
C339 C 0.88268 0.03417 0.58203 0.0
C340 C 0.79013 0.0124 0.55161 0.0
H341 H 0.91807 0.05156 0.6047 0.0
H342 H 0.75079 0.01181 0.55003 0.0
H343 H 0.73174 0.07207 0.66182 0.0
H344 H 0.89718 0.13802 0.69181 0.0
C345 C 0.95565 0.11011 0.65992 0.0
C346 C 0.82924 0.00183 0.69169 0.0
C347 C 0.81967 0.13584 0.56375 0.0
C348 C 0.6933 0.02663 0.59376 0.0
H349 H 0.93792 0.0178 0.73641 0.0
H350 H 0.00716 0.07814 0.72083 0.0
H351 H 1.00112 0.17151 0.62137 0.0
H352 H 0.9258 0.18554 0.56899 0.0
H353 H 0.71116 0.12189 0.521 0.0
H354 H 0.64116 0.06224 0.53746 0.0
H355 H 0.64877 0.96161 0.62734 0.0
H356 H 0.72336 0.94907 0.6819 0.0
H357 H 0.71701 0.11599 0.70846 0.0
H358 H 0.88404 0.18348 0.73833 0.0
H359 H 0.75974 0.97043 0.49689 0.0
H360 H 0.92864 0.00935 0.55302 0.0
C361 C 0.41848 0.35081 0.13832 0.0
C362 C 0.42976 0.38767 0.15535 0.0
C363 C 0.47165 0.40907 0.14209 0.0
C364 C 0.48339 0.38417 0.11774 0.0
N365 N 0.45133 0.34811 0.1144 0.0
Co366 Co 0.4544 0.30285 0.08202 0.0
N367 N 0.51724 0.33426 0.06364 0.0
C368 C 0.54265 0.37181 0.07382 0.0
C369 C 0.584 0.38551 0.05608 0.0
C370 C 0.58493 0.35496 0.03291 0.0
C371 C 0.54389 0.32428 0.03789 0.0
N372 N 0.45725 0.25764 0.04937 0.0
C373 C 0.48922 0.25503 0.02462 0.0
C374 C 0.47714 0.21825 0.00681 0.0
C375 C 0.43575 0.1968 0.02052 0.0
C376 C 0.42498 0.22159 0.04578 0.0
N377 N 0.39179 0.27138 0.10055 0.0
C378 C 0.36708 0.23375 0.09099 0.0
C379 C 0.32641 0.21991 0.10934 0.0
C380 C 0.32517 0.25046 0.13223 0.0
C381 C 0.36525 0.28132 0.12638 0.0
N382 N 0.40502 0.30864 0.03263 0.0
C383 C 0.33609 0.31663 0.96203 0.0
C384 C 0.32761 0.28183 0.97403 0.0
C385 C 0.36224 0.27849 0.00927 0.0
C386 C 0.37911 0.34746 0.98588 0.0
C387 C 0.41295 0.34285 0.02075 0.0
N388 N 0.50367 0.2971 0.13158 0.0
C389 C 0.52916 0.25858 0.17903 0.0
C390 C 0.57031 0.28984 0.20397 0.0
C391 C 0.57826 0.32463 0.19213 0.0
C392 C 0.54487 0.3276 0.156 0.0
C393 C 0.49653 0.26281 0.14315 0.0
H394 H 0.55304 0.35491 0.14866 0.0
H395 H 0.46564 0.23797 0.12547 0.0
H396 H 0.35371 0.25122 0.01685 0.0
H397 H 0.44535 0.36735 0.03742 0.0
C398 C 0.52525 0.39364 0.09866 0.0
C399 C 0.37711 0.31934 0.14672 0.0
C400 C 0.53092 0.28645 0.01651 0.0
C401 C 0.38391 0.21203 0.06559 0.0
H402 H 0.41011 0.39794 0.17568 0.0
H403 H 0.49162 0.43914 0.14972 0.0
H404 H 0.60977 0.41436 0.05904 0.0
H405 H 0.61222 0.35525 0.01399 0.0
H406 H 0.49602 0.20805 0.98578 0.0
H407 H 0.41544 0.16676 0.01257 0.0
H408 H 0.30119 0.19099 0.10683 0.0
H409 H 0.29816 0.24999 0.15144 0.0
H410 H 0.29449 0.25729 0.95617 0.0
H411 H 0.38681 0.37491 0.97739 0.0
H412 H 0.52213 0.2311 0.18731 0.0
H413 H 0.61015 0.34945 0.21075 0.0
C414 C 0.16486 0.40682 0.27016 0.0
C415 C 0.15979 0.37738 0.2934 0.0
C416 C 0.11582 0.40564 0.33552 0.0
C417 C 0.13244 0.43881 0.31872 0.0
N418 N 0.17454 0.47151 0.27001 0.0
N419 N 0.09063 0.33876 0.32079 0.0
C420 C 0.15745 0.43956 0.28596 0.0
C421 C 0.12393 0.37353 0.3188 0.0
N422 N 0.16621 0.40074 0.23001 0.0
N423 N 0.0922 0.40451 0.36734 0.0
H424 H 0.08887 0.31485 0.30239 0.0
H425 H 0.06006 0.33428 0.33564 0.0
H426 H 0.08501 0.4273 0.38034 0.0
H427 H 0.08391 0.38182 0.38284 0.0
H428 H 0.16512 0.42016 0.21045 0.0
H429 H 0.15975 0.3741 0.21488 0.0
H430 H 0.19724 0.47413 0.24856 0.0
H431 H 0.17002 0.4962 0.28085 0.0
C432 C 0.1076 0.74482 0.74555 0.0
C433 C 0.15897 0.75375 0.7383 0.0
C434 C 0.15067 0.688 0.73445 0.0
C435 C 0.09933 0.67917 0.74161 0.0
N436 N 0.02289 0.69647 0.74193 0.0
N437 N 0.22367 0.73313 0.71542 0.0
C438 C 0.07578 0.70675 0.74312 0.0
C439 C 0.17876 0.72504 0.72949 0.0
N440 N 0.09029 0.77272 0.75685 0.0
N441 N 0.173 0.66119 0.73344 0.0
H442 H 0.24447 0.75986 0.71065 0.0
H443 H 0.23751 0.71292 0.70486 0.0
H444 H 0.15237 0.63336 0.73493 0.0
H445 H 0.21274 0.66684 0.73339 0.0
H446 H 0.05503 0.76807 0.76577 0.0
H447 H 0.11299 0.80106 0.76036 0.0
H448 H 0.00187 0.71454 0.73869 0.0
H449 H 0.99872 0.6688 0.74008 0.0
C450 C 0.90262 0.72686 0.40083 0.0
C451 C 0.94212 0.76274 0.4043 0.0
C452 C 0.00928 0.73433 0.40121 0.0
C453 C 0.97007 0.69853 0.39858 0.0
N454 N 0.88277 0.66084 0.40359 0.0
N455 N 0.03466 0.80179 0.41518 0.0
C456 C 0.91762 0.69484 0.40059 0.0
C457 C 0.99606 0.76683 0.40709 0.0
N458 N 0.85073 0.72343 0.3977 0.0
N459 N 0.05841 0.73711 0.39612 0.0
H460 H 0.02635 0.82629 0.41768 0.0
H461 H 0.07543 0.80671 0.42231 0.0
H462 H 0.07008 0.71412 0.39261 0.0
H463 H 0.08646 0.76173 0.39246 0.0
H464 H 0.81882 0.69795 0.38976 0.0
H465 H 0.83893 0.74636 0.40134 0.0
H466 H 0.84574 0.65674 0.40934 0.0
H467 H 0.89262 0.6369 0.40365 0.0
C468 C 0.82011 0.40782 0.85588 0.0
C469 C 0.80558 0.37651 0.82411 0.0
C470 C 0.85639 0.41811 0.78452 0.0
C471 C 0.8637 0.44983 0.81336 0.0
N472 N 0.83553 0.47376 0.86958 0.0
N473 N 0.79553 0.3561 0.75167 0.0
C474 C 0.83998 0.44439 0.84682 0.0
C475 C 0.81954 0.38278 0.78642 0.0
N476 N 0.818 0.40309 0.89523 0.0
N477 N 0.88465 0.42138 0.7555 0.0
H478 H 0.76427 0.33123 0.75043 0.0
H479 H 0.80197 0.3609 0.72293 0.0
H480 H 0.91343 0.44652 0.75394 0.0
H481 H 0.88339 0.39826 0.73609 0.0
H482 H 0.83195 0.42556 0.9196 0.0
H483 H 0.80879 0.37699 0.90437 0.0
H484 H 0.81482 0.47024 0.89237 0.0
H485 H 0.84796 0.50079 0.86287 0.0
C486 C 0.21657 0.21706 0.40723 0.0
C487 C 0.22239 0.21475 0.36634 0.0
C488 C 0.20681 0.14792 0.36231 0.0
C489 C 0.19944 0.14995 0.40275 0.0
N490 N 0.187 0.18384 0.46077 0.0
N491 N 0.21151 0.17711 0.30169 0.0
C492 C 0.20077 0.18374 0.42417 0.0
C493 C 0.21401 0.17987 0.34289 0.0
N494 N 0.22929 0.25122 0.43072 0.0
N495 N 0.20922 0.11594 0.34316 0.0
H496 H 0.21625 0.19991 0.28632 0.0
H497 H 0.19991 0.15176 0.28193 0.0
H498 H 0.20247 0.09154 0.35575 0.0
H499 H 0.2213 0.11426 0.31606 0.0
H500 H 0.23164 0.2551 0.46214 0.0
H501 H 0.24177 0.2763 0.41967 0.0
H502 H 0.18201 0.20662 0.47604 0.0
H503 H 0.17608 0.15991 0.47415 0.0
C504 C 0.36257 0.84257 0.81248 0.0
C505 C 0.32514 0.86058 0.8121 0.0
C506 C 0.38206 0.90111 0.87739 0.0
C507 C 0.41391 0.87855 0.88114 0.0
N508 N 0.4277 0.82287 0.85499 0.0
N509 N 0.2956 0.90413 0.8472 0.0
C510 C 0.40268 0.84806 0.84929 0.0
C511 C 0.33402 0.88937 0.8452 0.0
N512 N 0.36002 0.82043 0.77751 0.0
N513 N 0.3981 0.93398 0.90416 0.0
H514 H 0.25936 0.89585 0.82475 0.0
H515 H 0.29773 0.92224 0.87293 0.0
H516 H 0.43363 0.94373 0.9276 0.0
H517 H 0.37902 0.95323 0.90053 0.0
H518 H 0.38926 0.80933 0.77512 0.0
H519 H 0.33187 0.81658 0.74962 0.0
H520 H 0.41668 0.79814 0.83425 0.0
H521 H 0.45552 0.82448 0.88222 0.0
C522 C 0.88282 0.94625 0.42911 0.0
C523 C 0.85195 0.90769 0.42472 0.0
C524 C 0.82558 0.92054 0.48784 0.0
C525 C 0.85013 0.95952 0.48887 0.0
N526 N 0.89631 0.00991 0.45712 0.0
N527 N 0.78749 0.85853 0.44642 0.0
C528 C 0.8775 0.97256 0.45872 0.0
C529 C 0.82168 0.89488 0.45323 0.0
N530 N 0.91805 0.95763 0.40559 0.0
N531 N 0.80731 0.90796 0.52051 0.0
H532 H 0.78308 0.83883 0.4213 0.0
H533 H 0.76009 0.8487 0.46364 0.0
H534 H 0.81043 0.92589 0.5468 0.0
H535 H 0.79398 0.87984 0.52335 0.0
H536 H 0.94567 0.98479 0.4104 0.0
H537 H 0.92309 0.93908 0.38373 0.0
H538 H 0.91148 0.02063 0.43318 0.0
H539 H 0.89257 0.03007 0.47782 0.0
C540 C 0.63871 0.26958 0.97123 0.0
C541 C 0.61652 0.26723 0.92844 0.0
C542 C 0.54018 0.28017 0.94371 0.0
C543 C 0.56051 0.27978 0.98603 0.0
N544 N 0.62444 0.26883 0.03981 0.0
N545 N 0.54201 0.26367 0.87303 0.0
C546 C 0.60838 0.27282 0.99969 0.0
C547 C 0.56614 0.27084 0.9144 0.0
N548 N 0.68992 0.27073 0.98498 0.0
N549 N 0.49651 0.29005 0.93168 0.0
H550 H 0.55926 0.25594 0.85071 0.0
H551 H 0.50297 0.26203 0.86091 0.0
H552 H 0.47557 0.29598 0.95211 0.0
H553 H 0.48327 0.29502 0.90213 0.0
H554 H 0.71044 0.27668 0.01606 0.0
H555 H 0.71393 0.26898 0.96537 0.0
H556 H 0.65544 0.25942 0.0506 0.0
H557 H 0.60419 0.27224 0.06185 0.0
C558 C 0.18568 0.96358 0.66614 0.0
C559 C 0.20481 0.93388 0.6607 0.0
C560 C 0.1933 0.93759 0.58741 0.0
C561 C 0.18232 0.97077 0.59414 0.0
N562 N 0.17108 0.01721 0.64023 0.0
N563 N 0.23872 0.89874 0.61797 0.0
C564 C 0.17912 0.98424 0.63362 0.0
C565 C 0.21148 0.92227 0.62175 0.0
N566 N 0.17213 0.97125 0.70172 0.0
N567 N 0.18659 0.92072 0.54823 0.0
H568 H 0.25654 0.88901 0.64292 0.0
H569 H 0.24923 0.89248 0.59104 0.0
H570 H 0.17173 0.9305 0.52226 0.0
H571 H 0.18959 0.89468 0.54152 0.0
H572 H 0.15311 0.9901 0.70579 0.0
H573 H 0.17548 0.95637 0.72594 0.0
H574 H 0.17474 0.03089 0.6694 0.0
H575 H 0.16354 0.03196 0.61653 0.0
C576 C 0.8127 0.87137 0.24491 0.0
C577 C 0.78603 0.85433 0.27375 0.0
C578 C 0.69917 0.83978 0.22419 0.0
C579 C 0.72593 0.85545 0.19467 0.0
N580 N 0.80747 0.87899 0.17356 0.0
N581 N 0.70511 0.81635 0.28893 0.0
C582 C 0.78259 0.86911 0.20407 0.0
C583 C 0.72957 0.8367 0.26277 0.0
N584 N 0.86663 0.89075 0.25699 0.0
N585 N 0.64487 0.82925 0.21607 0.0
H586 H 0.72596 0.814 0.31774 0.0
H587 H 0.66483 0.79937 0.28089 0.0
H588 H 0.6209 0.82994 0.18783 0.0
H589 H 0.62371 0.82219 0.23816 0.0
H590 H 0.88756 0.90736 0.23895 0.0
H591 H 0.89011 0.89256 0.28646 0.0
H592 H 0.8483 0.88562 0.17725 0.0
H593 H 0.78653 0.87725 0.14322 0.0
C594 C 0.74713 0.23026 0.75368 0.0
C595 C 0.76749 0.23904 0.79726 0.0
C596 C 0.80474 0.18924 0.79528 0.0
C597 C 0.78894 0.18313 0.75144 0.0
N598 N 0.75307 0.20207 0.68866 0.0
N599 N 0.82032 0.23008 0.85968 0.0
C600 C 0.76225 0.20479 0.73057 0.0
C601 C 0.79755 0.21935 0.81817 0.0
N602 N 0.71213 0.24559 0.73442 0.0
N603 N 0.82515 0.16561 0.81495 0.0
H604 H 0.81467 0.25136 0.87738 0.0
H605 H 0.84754 0.21973 0.87611 0.0
H606 H 0.83119 0.14349 0.79915 0.0
H607 H 0.83231 0.16606 0.84665 0.0
H608 H 0.6914 0.23719 0.70336 0.0
H609 H 0.69986 0.26432 0.75021 0.0
H610 H 0.73955 0.22023 0.67228 0.0
H611 H 0.76342 0.18375 0.67047 0.0
C612 C 0.34122 0.33751 0.24795 0.0
C613 C 0.28592 0.33085 0.23306 0.0
C614 C 0.29392 0.32455 0.16191 0.0
C615 C 0.3469 0.32581 0.17676 0.0
N616 N 0.4199 0.32949 0.23358 0.0
N617 N 0.20748 0.31272 0.1756 0.0
C618 C 0.37042 0.33136 0.21975 0.0
C619 C 0.26167 0.32325 0.18992 0.0
N620 N 0.36604 0.3506 0.28894 0.0
N621 N 0.27456 0.32474 0.12103 0.0
H622 H 0.1821 0.31062 0.19494 0.0
H623 H 0.18709 0.30288 0.14461 0.0
H624 H 0.29702 0.32526 0.09961 0.0
H625 H 0.2382 0.32771 0.10907 0.0
H626 H 0.40724 0.35942 0.30103 0.0
H627 H 0.346 0.35603 0.31034 0.0
H628 H 0.43657 0.32906 0.26429 0.0
H629 H 0.44283 0.32553 0.21386 0.0
C630 C 0.86615 0.74328 0.801 0.0
C631 C 0.91287 0.77604 0.81448 0.0
C632 C 0.96857 0.73766 0.82521 0.0
C633 C 0.92159 0.70476 0.81287 0.0
N634 N 0.82584 0.67644 0.79881 0.0
N635 N 0.00715 0.80518 0.84686 0.0
C636 C 0.87037 0.70766 0.8036 0.0
C637 C 0.96363 0.77342 0.82928 0.0
N638 N 0.8177 0.74618 0.78534 0.0
N639 N 0.01786 0.73487 0.83086 0.0
H640 H 0.00523 0.83187 0.84881 0.0
H641 H 0.04419 0.80505 0.86235 0.0
H642 H 0.02357 0.70951 0.8268 0.0
H643 H 0.05333 0.75774 0.83637 0.0
H644 H 0.78333 0.72335 0.77028 0.0
H645 H 0.81229 0.77174 0.7852 0.0
H646 H 0.78772 0.67711 0.79607 0.0
H647 H 0.82764 0.65009 0.80157 0.0
C648 C 0.89405 0.38537 0.38278 0.0
C649 C 0.85251 0.38125 0.40276 0.0
C650 C 0.87994 0.44938 0.42016 0.0
C651 C 0.92131 0.45348 0.40002 0.0
N652 N 0.97523 0.4267 0.36965 0.0
N653 N 0.81192 0.40793 0.44749 0.0
C654 C 0.93083 0.42179 0.38384 0.0
C655 C 0.84758 0.41292 0.42389 0.0
N656 N 0.89685 0.35449 0.3614 0.0
N657 N 0.8702 0.48024 0.43401 0.0
H658 H 0.78738 0.3815 0.45038 0.0
H659 H 0.80957 0.42962 0.46679 0.0
H660 H 0.89402 0.50739 0.43266 0.0
H661 H 0.83698 0.47902 0.4447 0.0
H662 H 0.92174 0.35567 0.34187 0.0
H663 H 0.87198 0.32728 0.36142 0.0
H664 H 0.98685 0.40492 0.36026 0.0
H665 H 0.00305 0.45305 0.37024 0.0
C666 C 0.06903 0.37767 0.77925 0.0
C667 C 0.11259 0.37877 0.76251 0.0
C668 C 0.117 0.439 0.74131 0.0
C669 C 0.07322 0.43777 0.75778 0.0
N670 N 0.00348 0.4051 0.78845 0.0
N671 N 0.17435 0.40727 0.72334 0.0
C672 C 0.04791 0.40672 0.77547 0.0
C673 C 0.13534 0.40846 0.7421 0.0
N674 N 0.04885 0.34923 0.79968 0.0
N675 N 0.14207 0.47005 0.72623 0.0
H676 H 0.19065 0.38639 0.72502 0.0
H677 H 0.18873 0.42564 0.7041 0.0
H678 H 0.12832 0.49217 0.72364 0.0
H679 H 0.1779 0.47505 0.71811 0.0
H680 H 0.02144 0.34864 0.81682 0.0
H681 H 0.06131 0.32646 0.80108 0.0
H682 H 0.97925 0.3817 0.79741 0.0
H683 H 0.98878 0.4268 0.78832 0.0
C684 C 0.16705 0.73026 0.29329 0.0
C685 C 0.22318 0.74163 0.29901 0.0
C686 C 0.21967 0.68097 0.31786 0.0
C687 C 0.16575 0.67255 0.31892 0.0
N688 N 0.09059 0.69259 0.31455 0.0
N689 N 0.30467 0.73023 0.32527 0.0
C690 C 0.14009 0.69821 0.30865 0.0
C691 C 0.25011 0.7176 0.31346 0.0
N692 N 0.13912 0.74922 0.27193 0.0
N693 N 0.24171 0.65401 0.32076 0.0
H694 H 0.32873 0.75751 0.32477 0.0
H695 H 0.32585 0.71481 0.33968 0.0
H696 H 0.22041 0.6268 0.3239 0.0
H697 H 0.27936 0.65779 0.31627 0.0
H698 H 0.09752 0.74001 0.26382 0.0
H699 H 0.15706 0.77174 0.25831 0.0
H700 H 0.07241 0.71236 0.31121 0.0
H701 H 0.06998 0.66986 0.32667 0.0
C702 C 0.85473 0.96452 0.79213 0.0
C703 C 0.83821 0.92552 0.77781 0.0
C704 C 0.8219 0.93697 0.70645 0.0
C705 C 0.83112 0.97496 0.72117 0.0
N706 N 0.84525 0.0228 0.77828 0.0
N707 N 0.79818 0.87368 0.72092 0.0
C708 C 0.84398 0.98806 0.76413 0.0
C709 C 0.81966 0.9114 0.73476 0.0
N710 N 0.88324 0.97946 0.8321 0.0
N711 N 0.81638 0.92552 0.66564 0.0
H712 H 0.7952 0.85418 0.74075 0.0
H713 H 0.77916 0.86182 0.69008 0.0
H714 H 0.8178 0.94348 0.64411 0.0
H715 H 0.81489 0.89913 0.65389 0.0
H716 H 0.90019 0.00816 0.84312 0.0
H717 H 0.89537 0.9635 0.85283 0.0
H718 H 0.84943 0.03219 0.80924 0.0
H719 H 0.83698 0.04081 0.75867 0.0
C720 C 0.63436 0.29893 0.31814 0.0
C721 C 0.6799 0.28988 0.31628 0.0
C722 C 0.65109 0.27746 0.24062 0.0
C723 C 0.60553 0.28651 0.24246 0.0
N724 N 0.54755 0.29852 0.28175 0.0
N725 N 0.72685 0.2635 0.27727 0.0
C726 C 0.59515 0.29485 0.28094 0.0
C727 C 0.68655 0.27672 0.2779 0.0
N728 N 0.62982 0.31284 0.35537 0.0
N729 N 0.66164 0.27122 0.20333 0.0
H730 H 0.75395 0.26314 0.30406 0.0
H731 H 0.73098 0.25011 0.25068 0.0
H732 H 0.6359 0.2706 0.17532 0.0
H733 H 0.69727 0.26889 0.20008 0.0
H734 H 0.60123 0.32429 0.35859 0.0
H735 H 0.65667 0.31473 0.38331 0.0
H736 H 0.53509 0.30103 0.30855 0.0
H737 H 0.51832 0.29613 0.25502 0.0
C738 C 0.14833 0.21942 0.62476 0.0
C739 C 0.16078 0.21573 0.66697 0.0
C740 C 0.1604 0.15265 0.64741 0.0
C741 C 0.15545 0.1585 0.60604 0.0
N742 N 0.14348 0.19614 0.55405 0.0
N743 N 0.17805 0.17935 0.71934 0.0
C744 C 0.14804 0.19126 0.59421 0.0
C745 C 0.16618 0.18231 0.67849 0.0
N746 N 0.13794 0.25016 0.61395 0.0
N747 N 0.15867 0.11843 0.65664 0.0
H748 H 0.17884 0.19931 0.74277 0.0
H749 H 0.18922 0.15798 0.7304 0.0
H750 H 0.15434 0.09622 0.63439 0.0
H751 H 0.15704 0.11086 0.68535 0.0
H752 H 0.12263 0.25265 0.58373 0.0
H753 H 0.14177 0.27275 0.63535 0.0
H754 H 0.14483 0.22109 0.54386 0.0
H755 H 0.14045 0.17534 0.53069 0.0
C756 C 0.47966 0.8613 0.21376 0.0
C757 C 0.42613 0.85994 0.20464 0.0
C758 C 0.42688 0.86554 0.1329 0.0
C759 C 0.48112 0.86833 0.14246 0.0
N760 N 0.56249 0.87657 0.19311 0.0
N761 N 0.35232 0.86861 0.15861 0.0
C762 C 0.50856 0.86857 0.18329 0.0
C763 C 0.40055 0.86406 0.16498 0.0
N764 N 0.5021 0.85397 0.2509 0.0
N765 N 0.4005 0.86413 0.09309 0.0
H766 H 0.33235 0.86863 0.18164 0.0
H767 H 0.3342 0.87577 0.13176 0.0
H768 H 0.41923 0.8676 0.06918 0.0
H769 H 0.35934 0.85726 0.08314 0.0
H770 H 0.53872 0.85034 0.25761 0.0
H771 H 0.48222 0.84845 0.27404 0.0
H772 H 0.58589 0.88158 0.22327 0.0
H773 H 0.58476 0.88114 0.17135 0.0
C774 C 0.81314 0.18984 0.47383 0.0
C775 C 0.81687 0.22485 0.49445 0.0
C776 C 0.81782 0.20039 0.5595 0.0
C777 C 0.81747 0.1663 0.53947 0.0
N778 N 0.82013 0.129 0.47938 0.0
N779 N 0.8277 0.26519 0.55726 0.0
C780 C 0.81624 0.16104 0.49702 0.0
C781 C 0.82071 0.23061 0.53744 0.0
N782 N 0.80721 0.18426 0.43214 0.0
N783 N 0.81409 0.20343 0.5994 0.0
H784 H 0.82674 0.28741 0.54189 0.0
H785 H 0.83729 0.27267 0.58919 0.0
H786 H 0.81331 0.1822 0.61676 0.0
H787 H 0.80815 0.22578 0.61463 0.0
H788 H 0.7976 0.15825 0.41432 0.0
H789 H 0.8095 0.20545 0.4146 0.0
H790 H 0.82553 0.12479 0.44997 0.0
H791 H 0.82132 0.10707 0.49521 0.0
C792 C 0.21116 0.31633 0.88609 0.0
C793 C 0.23084 0.32477 0.85109 0.0
C794 C 0.319 0.32654 0.88832 0.0
C795 C 0.30034 0.3206 0.92418 0.0
N796 N 0.23227 0.31726 0.95997 0.0
N797 N 0.30572 0.34567 0.82141 0.0
C798 C 0.24744 0.31774 0.9239 0.0
C799 C 0.28552 0.33226 0.853 0.0
N800 N 0.15756 0.30542 0.88278 0.0
N801 N 0.36784 0.32519 0.88739 0.0
H802 H 0.28244 0.35054 0.79521 0.0
H803 H 0.34634 0.35526 0.82286 0.0
H804 H 0.39351 0.32088 0.91254 0.0
H805 H 0.38104 0.32514 0.86066 0.0
H806 H 0.14019 0.29485 0.90584 0.0
H807 H 0.12965 0.30402 0.85565 0.0
H808 H 0.19613 0.31917 0.96251 0.0
H809 H 0.25781 0.3183 0.98826 0.0
C810 C 0.21787 0.88397 0.30921 0.0
C811 C 0.26753 0.87965 0.32418 0.0
C812 C 0.29669 0.93558 0.37687 0.0
C813 C 0.24444 0.93657 0.36566 0.0
N814 N 0.15343 0.9102 0.32369 0.0
N815 N 0.35308 0.89906 0.37406 0.0
C816 C 0.20456 0.91056 0.33225 0.0
C817 C 0.30694 0.90506 0.35829 0.0
N818 N 0.18393 0.86307 0.27257 0.0
N819 N 0.33654 0.9641 0.40495 0.0
H820 H 0.36221 0.87718 0.36105 0.0
H821 H 0.38061 0.91407 0.40171 0.0
H822 H 0.33022 0.98686 0.41913 0.0
H823 H 0.37661 0.96698 0.41147 0.0
H824 H 0.14957 0.86749 0.25796 0.0
H825 H 0.19261 0.84347 0.25476 0.0
H826 H 0.12122 0.8891 0.30303 0.0
H827 H 0.14233 0.9297 0.33937 0.0
C828 C 0.77397 0.91627 0.91408 0.0
C829 C 0.78777 0.88452 0.90523 0.0
C830 C 0.74713 0.85897 0.95937 0.0
C831 C 0.72242 0.88595 0.96001 0.0
N832 N 0.70063 0.93322 0.92442 0.0
N833 N 0.76863 0.81926 0.91234 0.0
C834 C 0.73217 0.9126 0.93333 0.0
C835 C 0.76968 0.85396 0.92615 0.0
N836 N 0.8016 0.95026 0.90592 0.0
N837 N 0.74715 0.8371 0.98909 0.0
H838 H 0.77647 0.81246 0.88436 0.0
H839 H 0.75239 0.79614 0.92572 0.0
H840 H 0.76736 0.81842 0.99052 0.0
H841 H 0.73142 0.84041 0.01412 0.0
H842 H 0.79338 0.97413 0.91398 0.0
H843 H 0.83663 0.95526 0.89651 0.0
H844 H 0.70572 0.95127 0.90302 0.0
H845 H 0.66639 0.92918 0.9347 0.0
loop_
_geom_bond_atom_site_label_1
_geom_bond_atom_site_label_2
_geom_bond_distance
_geom_bond_site_symmetry_2
_ccdc_geom_bond_type
H0 C5 0.930 . S
H1 C8 0.930 . S
H2 C10 0.930 . S
H3 C4 1.016 . S
C4 H3 1.016 . S
C4 N11 1.286 . S
C5 H0 0.930 . S
C5 C6 1.397 . S
C5 C7 1.361 . S
C6 C5 1.397 . S
C6 C10 1.390 . S
C7 C5 1.361 . S
C7 C8 1.393 . S
C7 N11 1.413 . S
C8 H1 0.930 . S
C8 C7 1.393 . S
C8 C9 1.399 . S
C9 C8 1.399 . S
C9 C10 1.381 . S
C10 H2 0.930 . S
C10 C6 1.390 . S
C10 C9 1.381 . S
N11 C4 1.286 . S
N11 C7 1.413 . S
H12 C17 0.930 . S
H13 C20 0.930 . S
H14 C22 0.930 . S
H15 C16 1.016 . S
C16 H15 1.016 . S
C16 N23 1.286 . S
C17 H12 0.930 . S
C17 C18 1.397 . S
C17 C19 1.361 . S
C18 C17 1.397 . S
C18 C22 1.390 . S
C19 C17 1.361 . S
C19 C20 1.393 . S
C19 N23 1.413 . S
C20 H13 0.930 . S
C20 C19 1.393 . S
C20 C21 1.399 . S
C21 C20 1.399 . S
C21 C22 1.381 . S
C22 H14 0.930 . S
C22 C18 1.390 . S
C22 C21 1.381 . S
N23 C16 1.286 . S
N23 C19 1.413 . S
H24 C29 0.930 . S
H25 C32 0.930 . S
H26 C34 0.930 . S
H27 C28 1.016 . S
C28 H27 1.016 . S
C28 N35 1.286 . S
C29 H24 0.930 . S
C29 C30 1.397 . S
C29 C31 1.361 . S
C30 C29 1.397 . S
C30 C34 1.390 . S
C31 C29 1.361 . S
C31 C32 1.393 . S
C31 N35 1.413 . S
C32 H25 0.930 . S
C32 C31 1.393 . S
C32 C33 1.399 . S
C33 C32 1.399 . S
C33 C34 1.381 . S
C34 H26 0.930 . S
C34 C30 1.390 . S
C34 C33 1.381 . S
N35 C28 1.286 . S
N35 C31 1.413 . S
H36 C41 0.930 . S
H37 C44 0.930 . S
H38 C46 0.930 . S
H39 C40 1.016 . S
C40 H39 1.016 . S
C40 N47 1.286 . S
C41 H36 0.930 . S
C41 C42 1.397 . S
C41 C43 1.361 . S
C42 C41 1.397 . S
C42 C46 1.390 . S
C43 C41 1.361 . S
C43 C44 1.393 . S
C43 N47 1.413 . S
C44 H37 0.930 . S
C44 C43 1.393 . S
C44 C45 1.399 . S
C45 C44 1.399 . S
C45 C46 1.381 . S
C46 H38 0.930 . S
C46 C42 1.390 . S
C46 C45 1.381 . S
N47 C40 1.286 . S
N47 C43 1.413 . S
H48 C53 0.930 . S
H49 C56 0.930 . S
H50 C58 0.930 . S
H51 C52 1.016 . S
C52 H51 1.016 . S
C52 N59 1.286 . S
C53 H48 0.930 . S
C53 C54 1.397 . S
C53 C55 1.361 . S
C54 C53 1.397 . S
C54 C58 1.390 . S
C55 C53 1.361 . S
C55 C56 1.393 . S
C55 N59 1.413 . S
C56 H49 0.930 . S
C56 C55 1.393 . S
C56 C57 1.399 . S
C57 C56 1.399 . S
C57 C58 1.381 . S
C58 H50 0.930 . S
C58 C54 1.390 . S
C58 C57 1.381 . S
N59 C52 1.286 . S
N59 C55 1.413 . S
H60 C65 0.930 . S
H61 C68 0.930 . S
H62 C70 0.930 . S
H63 C64 1.016 . S
C64 H63 1.016 . S
C64 N71 1.286 . S
C65 H60 0.930 . S
C65 C66 1.397 . S
C65 C67 1.361 . S
C66 C65 1.397 . S
C66 C70 1.390 . S
C67 C65 1.361 . S
C67 C68 1.393 . S
C67 N71 1.413 . S
C68 H61 0.930 . S
C68 C67 1.393 . S
C68 C69 1.399 . S
C69 C68 1.399 . S
C69 C70 1.381 . S
C70 H62 0.930 . S
C70 C66 1.390 . S
C70 C69 1.381 . S
N71 C64 1.286 . S
N71 C67 1.413 . S
H72 C77 0.930 . S
H73 C80 0.930 . S
H74 C82 0.930 . S
H75 C76 1.016 . S
C76 H75 1.016 . S
C76 N83 1.286 . S
C77 H72 0.930 . S
C77 C78 1.397 . S
C77 C79 1.361 . S
C78 C77 1.397 . S
C78 C82 1.390 . S
C79 C77 1.361 . S
C79 C80 1.393 . S
C79 N83 1.413 . S
C80 H73 0.930 . S
C80 C79 1.393 . S
C80 C81 1.399 . S
C81 C80 1.399 . S
C81 C82 1.381 . S
C82 H74 0.930 . S
C82 C78 1.390 . S
C82 C81 1.381 . S
N83 C76 1.286 . S
N83 C79 1.413 . S
H84 C89 0.930 . S
H85 C92 0.930 . S
H86 C94 0.930 . S
H87 C88 1.016 . S
C88 H87 1.016 . S
C88 N95 1.286 . S
C89 H84 0.930 . S
C89 C90 1.397 . S
C89 C91 1.361 . S
C90 C89 1.397 . S
C90 C94 1.390 . S
C91 C89 1.361 . S
C91 C92 1.393 . S
C91 N95 1.413 . S
C92 H85 0.930 . S
C92 C91 1.393 . S
C92 C93 1.399 . S
C93 C92 1.399 . S
C93 C94 1.381 . S
C94 H86 0.930 . S
C94 C90 1.390 . S
C94 C93 1.381 . S
N95 C88 1.286 . S
N95 C91 1.413 . S
C96 C97 1.443 . S
C96 N100 1.376 . S
C96 C134 1.389 . S
C97 C96 1.443 . S
C97 C98 1.340 . S
C97 H137 0.951 . S
C98 C97 1.340 . S
C98 C99 1.439 . S
C98 H138 0.950 . S
C99 C98 1.439 . S
C99 N100 1.374 . S
C99 C133 1.395 . S
N100 C96 1.376 . S
N100 C99 1.374 . S
N100 Co101 2.008 . S
Co101 N100 2.008 . S
Co101 N102 1.995 . S
Co101 N107 2.008 . S
Co101 N112 1.995 . S
Co101 N117 2.282 . S
Co101 N123 2.282 . S
N102 Co101 1.995 . S
N102 C103 1.376 . S
N102 C106 1.383 . S
C103 N102 1.376 . S
C103 C104 1.446 . S
C103 C133 1.391 . S
C104 C103 1.446 . S
C104 C105 1.339 . S
C104 H139 0.949 . S
C105 C104 1.339 . S
C105 C106 1.439 . S
C105 H140 0.950 . S
C106 N102 1.383 . S
C106 C105 1.439 . S
C106 C135 1.392 . S
N107 Co101 2.008 . S
N107 C108 1.376 . S
N107 C111 1.374 . S
C108 N107 1.376 . S
C108 C109 1.443 1_455 S
C108 C135 1.389 . S
C109 C108 1.443 1_655 S
C109 C110 1.340 . S
C109 H141 0.951 . S
C110 C109 1.340 . S
C110 C111 1.439 1_655 S
C110 H142 0.950 . S
C111 N107 1.374 . S
C111 C110 1.439 1_455 S
C111 C136 1.395 . S
N112 Co101 1.995 . S
N112 C113 1.376 . S
N112 C116 1.383 . S
C113 N112 1.376 . S
C113 C114 1.446 . S
C113 C136 1.391 . S
C114 C113 1.446 . S
C114 C115 1.339 . S
C114 H143 0.949 . S
C115 C114 1.339 . S
C115 C116 1.439 . S
C115 H144 0.950 . S
C116 N112 1.383 . S
C116 C115 1.439 . S
C116 C134 1.392 . S
N117 Co101 2.282 . S
N117 C120 1.332 . S
N117 C122 1.332 . S
C118 C119 1.386 . S
C118 C121 1.388 . S
C119 C118 1.386 . S
C119 C120 1.382 . S
C119 H145 0.950 . S
C120 N117 1.332 . S
C120 C119 1.382 . S
C120 H131 0.952 . S
C121 C118 1.388 . S
C121 C122 1.382 . S
C121 H146 0.950 . S
C122 N117 1.332 . S
C122 C121 1.382 . S
C122 H132 0.948 . S
N123 Co101 2.282 . S
N123 C127 1.332 . S
N123 C128 1.332 . S
C124 C125 1.388 . S
C124 C128 1.382 . S
C124 H147 0.950 . S
C125 C124 1.388 . S
C125 C126 1.386 . S
C126 C125 1.386 . S
C126 C127 1.382 . S
C126 H148 0.950 . S
C127 N123 1.332 . S
C127 C126 1.382 . S
C127 H129 0.952 . S
C128 N123 1.332 . S
C128 C124 1.382 . S
C128 H130 0.948 . S
H129 C127 0.952 . S
H130 C128 0.948 . S
H131 C120 0.952 . S
H132 C122 0.948 . S
C133 C99 1.395 . S
C133 C103 1.391 . S
C134 C96 1.389 . S
C134 C116 1.392 . S
C135 C106 1.392 . S
C135 C108 1.389 . S
C136 C111 1.395 . S
C136 C113 1.391 . S
H137 C97 0.951 . S
H138 C98 0.950 . S
H139 C104 0.949 . S
H140 C105 0.950 . S
H141 C109 0.951 . S
H142 C110 0.950 . S
H143 C114 0.949 . S
H144 C115 0.950 . S
H145 C119 0.950 . S
H146 C121 0.950 . S
H147 C124 0.950 . S
H148 C126 0.950 . S
C149 C150 1.443 . S
C149 N153 1.376 . S
C149 C187 1.389 . S
C150 C149 1.443 . S
C150 C151 1.340 . S
C150 H190 0.951 . S
C151 C150 1.340 . S
C151 C152 1.439 . S
C151 H191 0.950 . S
C152 C151 1.439 . S
C152 N153 1.374 . S
C152 C186 1.395 . S
N153 C149 1.376 . S
N153 C152 1.374 . S
N153 Co154 2.008 . S
Co154 N153 2.008 . S
Co154 N155 1.995 1_455 S
Co154 N160 2.008 1_455 S
Co154 N165 1.995 . S
Co154 N170 2.282 . S
Co154 N176 2.282 1_455 S
N155 Co154 1.995 1_655 S
N155 C156 1.376 1_655 S
N155 C159 1.383 . S
C156 N155 1.376 1_455 S
C156 C157 1.446 . S
C156 C186 1.391 . S
C157 C156 1.446 . S
C157 C158 1.339 1_455 S
C157 H192 0.949 . S
C158 C157 1.339 1_655 S
C158 C159 1.439 . S
C158 H193 0.950 . S
C159 N155 1.383 . S
C159 C158 1.439 . S
C159 C188 1.392 . S
N160 Co154 2.008 1_655 S
N160 C161 1.376 . S
N160 C164 1.374 . S
C161 N160 1.376 . S
C161 C162 1.443 . S
C161 C188 1.389 . S
C162 C161 1.443 . S
C162 C163 1.340 . S
C162 H194 0.951 . S
C163 C162 1.340 . S
C163 C164 1.439 . S
C163 H195 0.950 . S
C164 N160 1.374 . S
C164 C163 1.439 . S
C164 C189 1.395 . S
N165 Co154 1.995 . S
N165 C166 1.376 1_455 S
N165 C169 1.383 . S
C166 N165 1.376 1_655 S
C166 C167 1.446 . S
C166 C189 1.391 . S
C167 C166 1.446 . S
C167 C168 1.339 1_655 S
C167 H196 0.949 . S
C168 C167 1.339 1_455 S
C168 C169 1.439 . S
C168 H197 0.950 . S
C169 N165 1.383 . S
C169 C168 1.439 . S
C169 C187 1.392 . S
N170 Co154 2.282 . S
N170 C173 1.332 . S
N170 C175 1.332 . S
C171 C172 1.386 . S
C171 C174 1.388 . S
C172 C171 1.386 . S
C172 C173 1.382 . S
C172 H198 0.950 . S
C173 N170 1.332 . S
C173 C172 1.382 . S
C173 H184 0.952 . S
C174 C171 1.388 . S
C174 C175 1.382 . S
C174 H199 0.950 . S
C175 N170 1.332 . S
C175 C174 1.382 . S
C175 H185 0.948 . S
N176 Co154 2.282 1_655 S
N176 C180 1.332 . S
N176 C181 1.332 . S
C177 C178 1.388 . S
C177 C181 1.382 . S
C177 H200 0.950 . S
C178 C177 1.388 . S
C178 C179 1.386 . S
C179 C178 1.386 . S
C179 C180 1.382 . S
C179 H201 0.950 . S
C180 N176 1.332 . S
C180 C179 1.382 . S
C180 H182 0.952 . S
C181 N176 1.332 . S
C181 C177 1.382 . S
C181 H183 0.948 . S
H182 C180 0.952 . S
H183 C181 0.948 . S
H184 C173 0.952 . S
H185 C175 0.948 . S
C186 C152 1.395 . S
C186 C156 1.391 . S
C187 C149 1.389 . S
C187 C169 1.392 . S
C188 C159 1.392 . S
C188 C161 1.389 . S
C189 C164 1.395 . S
C189 C166 1.391 . S
H190 C150 0.951 . S
H191 C151 0.950 . S
H192 C157 0.949 . S
H193 C158 0.950 . S
H194 C162 0.951 . S
H195 C163 0.950 . S
H196 C167 0.949 . S
H197 C168 0.950 . S
H198 C172 0.950 . S
H199 C174 0.950 . S
H200 C177 0.950 . S
H201 C179 0.950 . S
C202 C203 1.443 . S
C202 N206 1.376 . S
C202 C240 1.389 . S
C203 C202 1.443 . S
C203 C204 1.340 . S
C203 H243 0.951 . S
C204 C203 1.340 . S
C204 C205 1.439 1_565 S
C204 H244 0.950 . S
C205 C204 1.439 1_545 S
C205 N206 1.374 1_545 S
C205 C239 1.395 . S
N206 C202 1.376 . S
N206 C205 1.374 1_565 S
N206 Co207 2.008 1_565 S
Co207 N206 2.008 1_545 S
Co207 N208 1.995 . S
Co207 N213 2.008 . S
Co207 N218 1.995 1_545 S
Co207 N223 2.282 . S
Co207 N229 2.282 1_545 S
N208 Co207 1.995 . S
N208 C209 1.376 . S
N208 C212 1.383 . S
C209 N208 1.376 . S
C209 C210 1.446 . S
C209 C239 1.391 . S
C210 C209 1.446 . S
C210 C211 1.339 . S
C210 H245 0.949 . S
C211 C210 1.339 . S
C211 C212 1.439 . S
C211 H246 0.950 . S
C212 N208 1.383 . S
C212 C211 1.439 . S
C212 C241 1.392 . S
N213 Co207 2.008 . S
N213 C214 1.376 . S
N213 C217 1.374 1_545 S
C214 N213 1.376 . S
C214 C215 1.443 . S
C214 C241 1.389 . S
C215 C214 1.443 . S
C215 C216 1.340 1_455 S
C215 H247 0.951 . S
C216 C215 1.340 1_655 S
C216 C217 1.439 1_645 S
C216 H248 0.950 . S
C217 N213 1.374 1_565 S
C217 C216 1.439 1_465 S
C217 C242 1.395 . S
N218 Co207 1.995 1_565 S
N218 C219 1.376 . S
N218 C222 1.383 . S
C219 N218 1.376 . S
C219 C220 1.446 . S
C219 C242 1.391 . S
C220 C219 1.446 . S
C220 C221 1.339 . S
C220 H249 0.949 1_455 S
C221 C220 1.339 . S
C221 C222 1.439 . S
C221 H250 0.950 . S
C222 N218 1.383 . S
C222 C221 1.439 . S
C222 C240 1.392 . S
N223 Co207 2.282 . S
N223 C226 1.332 . S
N223 C228 1.332 . S
C224 C225 1.386 . S
C224 C227 1.388 . S
C225 C224 1.386 . S
C225 C226 1.382 . S
C225 H251 0.950 . S
C226 N223 1.332 . S
C226 C225 1.382 . S
C226 H237 0.952 . S
C227 C224 1.388 . S
C227 C228 1.382 . S
C227 H252 0.950 . S
C228 N223 1.332 . S
C228 C227 1.382 . S
C228 H238 0.948 . S
N229 Co207 2.282 1_565 S
N229 C233 1.332 . S
N229 C234 1.332 . S
C230 C231 1.388 . S
C230 C234 1.382 . S
C230 H253 0.950 . S
C231 C230 1.388 . S
C231 C232 1.386 . S
C232 C231 1.386 . S
C232 C233 1.382 . S
C232 H254 0.950 . S
C233 N229 1.332 . S
C233 C232 1.382 . S
C233 H235 0.952 . S
C234 N229 1.332 . S
C234 C230 1.382 . S
C234 H236 0.948 . S
H235 C233 0.952 . S
H236 C234 0.948 . S
H237 C226 0.952 . S
H238 C228 0.948 . S
C239 C205 1.395 . S
C239 C209 1.391 . S
C240 C202 1.389 . S
C240 C222 1.392 . S
C241 C212 1.392 . S
C241 C214 1.389 . S
C242 C217 1.395 . S
C242 C219 1.391 . S
H243 C203 0.951 . S
H244 C204 0.950 . S
H245 C210 0.949 . S
H246 C211 0.950 . S
H247 C215 0.951 . S
H248 C216 0.950 . S
H249 C220 0.949 1_655 S
H250 C221 0.950 . S
H251 C225 0.950 . S
H252 C227 0.950 . S
H253 C230 0.950 . S
H254 C232 0.950 . S
C255 C256 1.443 . S
C255 N259 1.376 . S
C255 C293 1.389 . S
C256 C255 1.443 . S
C256 C257 1.340 . S
C256 H296 0.951 . S
C257 C256 1.340 . S
C257 C258 1.439 . S
C257 H297 0.950 1_565 S
C258 C257 1.439 . S
C258 N259 1.374 . S
C258 C292 1.395 . S
N259 C255 1.376 . S
N259 C258 1.374 . S
N259 Co260 2.008 . S
Co260 N259 2.008 . S
Co260 N261 1.995 . S
Co260 N266 2.008 1_554 S
Co260 N271 1.995 . S
Co260 N276 2.282 1_554 S
Co260 N282 2.282 . S
N261 Co260 1.995 . S
N261 C262 1.376 . S
N261 C265 1.383 1_554 S
C262 N261 1.376 . S
C262 C263 1.445 1_554 S
C262 C292 1.391 . S
C263 C262 1.445 1_556 S
C263 C264 1.340 . S
C263 H298 0.950 1_566 S
C264 C263 1.340 . S
C264 C265 1.439 . S
C264 H299 0.950 . S
C265 N261 1.383 1_556 S
C265 C264 1.439 . S
C265 C294 1.392 . S
N266 Co260 2.008 1_556 S
N266 C267 1.376 . S
N266 C270 1.374 . S
C267 N266 1.376 . S
C267 C268 1.443 . S
C267 C294 1.389 . S
C268 C267 1.443 . S
C268 C269 1.340 . S
C268 H300 0.951 . S
C269 C268 1.340 . S
C269 C270 1.439 . S
C269 H301 0.950 . S
C270 N266 1.374 . S
C270 C269 1.439 . S
C270 C295 1.395 1_556 S
N271 Co260 1.995 . S
N271 C272 1.376 . S
N271 C275 1.383 . S
C272 N271 1.376 . S
C272 C273 1.446 . S
C272 C295 1.391 . S
C273 C272 1.446 . S
C273 C274 1.339 . S
C273 H302 0.949 . S
C274 C273 1.339 . S
C274 C275 1.439 . S
C274 H303 0.950 . S
C275 N271 1.383 . S
C275 C274 1.439 . S
C275 C293 1.392 . S
N276 Co260 2.282 1_556 S
N276 C279 1.332 . S
N276 C281 1.332 . S
C277 C278 1.386 . S
C277 C280 1.388 . S
C278 C277 1.386 . S
C278 C279 1.382 . S
C278 H304 0.950 . S
C279 N276 1.332 . S
C279 C278 1.382 . S
C279 H290 0.952 . S
C280 C277 1.388 . S
C280 C281 1.382 . S
C280 H305 0.950 . S
C281 N276 1.332 . S
C281 C280 1.382 . S
C281 H291 0.948 . S
N282 Co260 2.282 . S
N282 C286 1.332 . S
N282 C287 1.332 . S
C283 C284 1.388 . S
C283 C287 1.382 . S
C283 H306 0.950 . S
C284 C283 1.388 . S
C284 C285 1.386 . S
C285 C284 1.386 . S
C285 C286 1.382 . S
C285 H307 0.950 . S
C286 N282 1.332 . S
C286 C285 1.382 . S
C286 H288 0.952 . S
C287 N282 1.332 . S
C287 C283 1.382 . S
C287 H289 0.948 . S
H288 C286 0.952 . S
H289 C287 0.948 . S
H290 C279 0.952 . S
H291 C281 0.948 . S
C292 C258 1.395 . S
C292 C262 1.391 . S
C293 C255 1.389 . S
C293 C275 1.392 . S
C294 C265 1.392 . S
C294 C267 1.389 . S
C295 C270 1.395 1_554 S
C295 C272 1.391 . S
H296 C256 0.951 . S
H297 C257 0.950 1_545 S
H298 C263 0.950 1_544 S
H299 C264 0.950 . S
H300 C268 0.951 . S
H301 C269 0.950 . S
H302 C273 0.949 . S
H303 C274 0.950 . S
H304 C278 0.950 . S
H305 C280 0.950 . S
H306 C283 0.950 . S
H307 C285 0.950 . S
C308 C309 1.443 . S
C308 N312 1.376 . S
C308 C346 1.389 1_545 S
C309 C308 1.443 . S
C309 C310 1.340 . S
C309 H349 0.951 . S
C310 C309 1.340 . S
C310 C311 1.439 . S
C310 H350 0.950 . S
C311 C310 1.439 . S
C311 N312 1.374 . S
C311 C345 1.395 . S
N312 C308 1.376 . S
N312 C311 1.374 . S
N312 Co313 2.008 . S
Co313 N312 2.008 . S
Co313 N314 1.995 . S
Co313 N319 2.008 . S
Co313 N324 1.995 . S
Co313 N329 2.282 . S
Co313 N335 2.282 . S
N314 Co313 1.995 . S
N314 C315 1.376 . S
N314 C318 1.383 . S
C315 N314 1.376 . S
C315 C316 1.446 . S
C315 C345 1.391 . S
C316 C315 1.446 . S
C316 C317 1.339 . S
C316 H351 0.949 . S
C317 C316 1.339 . S
C317 C318 1.439 . S
C317 H352 0.950 . S
C318 N314 1.383 . S
C318 C317 1.439 . S
C318 C347 1.392 . S
N319 Co313 2.008 . S
N319 C320 1.376 . S
N319 C323 1.374 . S
C320 N319 1.376 . S
C320 C321 1.443 . S
C320 C347 1.389 . S
C321 C320 1.443 . S
C321 C322 1.340 . S
C321 H353 0.951 . S
C322 C321 1.340 . S
C322 C323 1.439 . S
C322 H354 0.950 . S
C323 N319 1.374 . S
C323 C322 1.439 . S
C323 C348 1.395 . S
N324 Co313 1.995 . S
N324 C325 1.376 . S
N324 C328 1.383 1_545 S
C325 N324 1.376 . S
C325 C326 1.446 1_545 S
C325 C348 1.391 . S
C326 C325 1.446 1_565 S
C326 C327 1.339 . S
C326 H355 0.949 . S
C327 C326 1.339 . S
C327 C328 1.439 . S
C327 H356 0.950 . S
C328 N324 1.383 1_565 S
C328 C327 1.439 . S
C328 C346 1.392 . S
N329 Co313 2.282 . S
N329 C332 1.332 . S
N329 C334 1.332 . S
C330 C331 1.386 . S
C330 C333 1.388 . S
C331 C330 1.386 . S
C331 C332 1.382 . S
C331 H357 0.950 . S
C332 N329 1.332 . S
C332 C331 1.382 . S
C332 H343 0.952 . S
C333 C330 1.388 . S
C333 C334 1.382 . S
C333 H358 0.950 . S
C334 N329 1.332 . S
C334 C333 1.382 . S
C334 H344 0.948 . S
N335 Co313 2.282 . S
N335 C339 1.332 . S
N335 C340 1.332 1_545 S
C336 C337 1.388 . S
C336 C340 1.382 . S
C336 H359 0.950 . S
C337 C336 1.388 . S
C337 C338 1.386 1_565 S
C338 C337 1.386 1_545 S
C338 C339 1.382 . S
C338 H360 0.950 . S
C339 N335 1.332 . S
C339 C338 1.382 . S
C339 H341 0.952 . S
C340 N335 1.332 1_565 S
C340 C336 1.382 . S
C340 H342 0.948 . S
H341 C339 0.952 . S
H342 C340 0.948 . S
H343 C332 0.952 . S
H344 C334 0.948 . S
C345 C311 1.395 . S
C345 C315 1.391 . S
C346 C308 1.389 1_565 S
C346 C328 1.392 . S
C347 C318 1.392 . S
C347 C320 1.389 . S
C348 C323 1.395 . S
C348 C325 1.391 . S
H349 C309 0.951 . S
H350 C310 0.950 . S
H351 C316 0.949 . S
H352 C317 0.950 . S
H353 C321 0.951 . S
H354 C322 0.950 . S
H355 C326 0.949 . S
H356 C327 0.950 . S
H357 C331 0.950 . S
H358 C333 0.950 . S
H359 C336 0.950 . S
H360 C338 0.950 . S
C361 C362 1.443 . S
C361 N365 1.376 . S
C361 C399 1.389 . S
C362 C361 1.443 . S
C362 C363 1.340 . S
C362 H402 0.951 . S
C363 C362 1.340 . S
C363 C364 1.439 . S
C363 H403 0.950 . S
C364 C363 1.439 . S
C364 N365 1.374 . S
C364 C398 1.395 . S
N365 C361 1.376 . S
N365 C364 1.374 . S
N365 Co366 2.008 . S
Co366 N365 2.008 . S
Co366 N367 1.995 . S
Co366 N372 2.008 . S
Co366 N377 1.995 . S
Co366 N382 2.282 . S
Co366 N388 2.282 . S
N367 Co366 1.995 . S
N367 C368 1.376 . S
N367 C371 1.383 . S
C368 N367 1.376 . S
C368 C369 1.446 . S
C368 C398 1.391 . S
C369 C368 1.446 . S
C369 C370 1.339 . S
C369 H404 0.949 . S
C370 C369 1.339 . S
C370 C371 1.439 . S
C370 H405 0.950 . S
C371 N367 1.383 . S
C371 C370 1.439 . S
C371 C400 1.392 . S
N372 Co366 2.008 . S
N372 C373 1.376 . S
N372 C376 1.374 . S
C373 N372 1.376 . S
C373 C374 1.443 . S
C373 C400 1.389 . S
C374 C373 1.443 . S
C374 C375 1.340 . S
C374 H406 0.951 . S
C375 C374 1.340 . S
C375 C376 1.439 . S
C375 H407 0.950 . S
C376 N372 1.374 . S
C376 C375 1.439 . S
C376 C401 1.395 . S
N377 Co366 1.995 . S
N377 C378 1.376 . S
N377 C381 1.383 . S
C378 N377 1.376 . S
C378 C379 1.446 . S
C378 C401 1.391 . S
C379 C378 1.446 . S
C379 C380 1.339 . S
C379 H408 0.949 . S
C380 C379 1.339 . S
C380 C381 1.439 . S
C380 H409 0.950 . S
C381 N377 1.383 . S
C381 C380 1.439 . S
C381 C399 1.392 . S
N382 Co366 2.282 . S
N382 C385 1.332 . S
N382 C387 1.332 . S
C383 C384 1.386 . S
C383 C386 1.388 . S
C384 C383 1.386 . S
C384 C385 1.382 1_556 S
C384 H410 0.950 . S
C385 N382 1.332 . S
C385 C384 1.382 1_554 S
C385 H396 0.952 . S
C386 C383 1.388 . S
C386 C387 1.382 1_556 S
C386 H411 0.950 . S
C387 N382 1.332 . S
C387 C386 1.382 1_554 S
C387 H397 0.948 . S
N388 Co366 2.282 . S
N388 C392 1.332 . S
N388 C393 1.332 . S
C389 C390 1.388 . S
C389 C393 1.382 . S
C389 H412 0.950 . S
C390 C389 1.388 . S
C390 C391 1.386 . S
C391 C390 1.386 . S
C391 C392 1.382 . S
C391 H413 0.950 . S
C392 N388 1.332 . S
C392 C391 1.382 . S
C392 H394 0.952 . S
C393 N388 1.332 . S
C393 C389 1.382 . S
C393 H395 0.948 . S
H394 C392 0.952 . S
H395 C393 0.948 . S
H396 C385 0.952 . S
H397 C387 0.948 . S
C398 C364 1.395 . S
C398 C368 1.391 . S
C399 C361 1.389 . S
C399 C381 1.392 . S
C400 C371 1.392 . S
C400 C373 1.389 . S
C401 C376 1.395 . S
C401 C378 1.391 . S
H402 C362 0.951 . S
H403 C363 0.950 . S
H404 C369 0.949 . S
H405 C370 0.950 . S
H406 C374 0.951 . S
H407 C375 0.950 . S
H408 C379 0.949 . S
H409 C380 0.950 . S
H410 C384 0.950 . S
H411 C386 0.950 . S
H412 C389 0.950 . S
H413 C391 0.950 . S
C414 C415 1.363 . S
C414 C420 1.379 . S
C414 N422 1.356 . S
C415 C414 1.363 . S
C415 C421 1.363 . S
C416 C417 1.363 . S
C416 C421 1.379 . S
C416 N423 1.356 . S
C417 C416 1.363 . S
C417 C420 1.363 . S
N418 C420 1.356 . S
N418 H430 0.984 . S
N418 H431 0.985 . S
N419 C421 1.356 . S
N419 H424 0.984 . S
N419 H425 0.985 . S
C420 C414 1.379 . S
C420 C417 1.363 . S
C420 N418 1.356 . S
C421 C415 1.363 . S
C421 C416 1.379 . S
C421 N419 1.356 . S
N422 C414 1.356 . S
N422 H428 0.984 . S
N422 H429 0.984 . S
N423 C416 1.356 . S
N423 H426 0.984 . S
N423 H427 0.985 . S
H424 N419 0.984 . S
H425 N419 0.985 . S
H426 N423 0.984 . S
H427 N423 0.985 . S
H428 N422 0.984 . S
H429 N422 0.984 . S
H430 N418 0.984 . S
H431 N418 0.985 . S
C432 C433 1.363 . S
C432 C438 1.379 . S
C432 N440 1.356 . S
C433 C432 1.363 . S
C433 C439 1.363 . S
C434 C435 1.363 . S
C434 C439 1.379 . S
C434 N441 1.356 . S
C435 C434 1.363 . S
C435 C438 1.363 . S
N436 C438 1.356 . S
N436 H448 0.984 . S
N436 H449 0.985 . S
N437 C439 1.356 . S
N437 H442 0.984 . S
N437 H443 0.985 . S
C438 C432 1.379 . S
C438 C435 1.363 . S
C438 N436 1.356 . S
C439 C433 1.363 . S
C439 C434 1.379 . S
C439 N437 1.356 . S
N440 C432 1.356 . S
N440 H446 0.984 . S
N440 H447 0.984 . S
N441 C434 1.356 . S
N441 H444 0.984 . S
N441 H445 0.985 . S
H442 N437 0.984 . S
H443 N437 0.985 . S
H444 N441 0.984 . S
H445 N441 0.985 . S
H446 N440 0.984 . S
H447 N440 0.984 . S
H448 N436 0.984 . S
H449 N436 0.985 . S
C450 C451 1.363 . S
C450 C456 1.379 . S
C450 N458 1.356 . S
C451 C450 1.363 . S
C451 C457 1.363 1_655 S
C452 C453 1.363 . S
C452 C457 1.379 . S
C452 N459 1.356 . S
C453 C452 1.363 . S
C453 C456 1.363 1_455 S
N454 C456 1.356 . S
N454 H466 0.984 . S
N454 H467 0.985 . S
N455 C457 1.356 . S
N455 H460 0.984 1_455 S
N455 H461 0.985 . S
C456 C450 1.379 . S
C456 C453 1.363 1_655 S
C456 N454 1.356 . S
C457 C451 1.363 1_455 S
C457 C452 1.379 . S
C457 N455 1.356 . S
N458 C450 1.356 . S
N458 H464 0.984 . S
N458 H465 0.984 . S
N459 C452 1.356 . S
N459 H462 0.984 . S
N459 H463 0.985 . S
H460 N455 0.984 1_655 S
H461 N455 0.985 . S
H462 N459 0.984 . S
H463 N459 0.985 . S
H464 N458 0.984 . S
H465 N458 0.984 . S
H466 N454 0.984 . S
H467 N454 0.985 . S
C468 C469 1.363 . S
C468 C474 1.379 . S
C468 N476 1.356 . S
C469 C468 1.363 . S
C469 C475 1.363 . S
C470 C471 1.363 . S
C470 C475 1.379 . S
C470 N477 1.356 . S
C471 C470 1.363 . S
C471 C474 1.363 . S
N472 C474 1.356 . S
N472 H484 0.984 . S
N472 H485 0.985 . S
N473 C475 1.356 . S
N473 H478 0.984 . S
N473 H479 0.985 . S
C474 C468 1.379 . S
C474 C471 1.363 . S
C474 N472 1.356 . S
C475 C469 1.363 . S
C475 C470 1.379 . S
C475 N473 1.356 . S
N476 C468 1.356 . S
N476 H482 0.984 . S
N476 H483 0.984 . S
N477 C470 1.356 . S
N477 H480 0.984 . S
N477 H481 0.985 . S
H478 N473 0.984 . S
H479 N473 0.985 . S
H480 N477 0.984 . S
H481 N477 0.985 . S
H482 N476 0.984 . S
H483 N476 0.984 . S
H484 N472 0.984 . S
H485 N472 0.985 . S
C486 C487 1.363 . S
C486 C492 1.379 . S
C486 N494 1.356 . S
C487 C486 1.363 . S
C487 C493 1.363 . S
C488 C489 1.363 . S
C488 C493 1.379 . S
C488 N495 1.356 . S
C489 C488 1.363 . S
C489 C492 1.363 . S
N490 C492 1.356 . S
N490 H502 0.984 . S
N490 H503 0.985 . S
N491 C493 1.356 . S
N491 H496 0.984 . S
N491 H497 0.985 . S
C492 C486 1.379 . S
C492 C489 1.363 . S
C492 N490 1.356 . S
C493 C487 1.363 . S
C493 C488 1.379 . S
C493 N491 1.356 . S
N494 C486 1.356 . S
N494 H500 0.984 . S
N494 H501 0.984 . S
N495 C488 1.356 . S
N495 H498 0.984 . S
N495 H499 0.985 . S
H496 N491 0.984 . S
H497 N491 0.985 . S
H498 N495 0.984 . S
H499 N495 0.985 . S
H500 N494 0.984 . S
H501 N494 0.984 . S
H502 N490 0.984 . S
H503 N490 0.985 . S
C504 C505 1.363 . S
C504 C510 1.379 . S
C504 N512 1.356 . S
C505 C504 1.363 . S
C505 C511 1.363 . S
C506 C507 1.363 . S
C506 C511 1.379 . S
C506 N513 1.356 . S
C507 C506 1.363 . S
C507 C510 1.363 . S
N508 C510 1.356 . S
N508 H520 0.984 . S
N508 H521 0.985 . S
N509 C511 1.356 . S
N509 H514 0.984 . S
N509 H515 0.985 . S
C510 C504 1.379 . S
C510 C507 1.363 . S
C510 N508 1.356 . S
C511 C505 1.363 . S
C511 C506 1.379 . S
C511 N509 1.356 . S
N512 C504 1.356 . S
N512 H518 0.984 . S
N512 H519 0.984 . S
N513 C506 1.356 . S
N513 H516 0.984 . S
N513 H517 0.985 . S
H514 N509 0.984 . S
H515 N509 0.985 . S
H516 N513 0.984 . S
H517 N513 0.985 . S
H518 N512 0.984 . S
H519 N512 0.984 . S
H520 N508 0.984 . S
H521 N508 0.985 . S
C522 C523 1.363 . S
C522 C528 1.379 . S
C522 N530 1.356 . S
C523 C522 1.363 . S
C523 C529 1.363 . S
C524 C525 1.363 . S
C524 C529 1.379 . S
C524 N531 1.356 . S
C525 C524 1.363 . S
C525 C528 1.363 . S
N526 C528 1.356 . S
N526 H538 0.984 1_565 S
N526 H539 0.985 1_565 S
N527 C529 1.356 . S
N527 H532 0.984 . S
N527 H533 0.985 . S
C528 C522 1.379 . S
C528 C525 1.363 . S
C528 N526 1.356 . S
C529 C523 1.363 . S
C529 C524 1.379 . S
C529 N527 1.356 . S
N530 C522 1.356 . S
N530 H536 0.984 . S
N530 H537 0.984 . S
N531 C524 1.356 . S
N531 H534 0.984 . S
N531 H535 0.985 . S
H532 N527 0.984 . S
H533 N527 0.985 . S
H534 N531 0.984 . S
H535 N531 0.985 . S
H536 N530 0.984 . S
H537 N530 0.984 . S
H538 N526 0.984 1_545 S
H539 N526 0.985 1_545 S
C540 C541 1.363 . S
C540 C546 1.379 . S
C540 N548 1.356 . S
C541 C540 1.363 . S
C541 C547 1.363 . S
C542 C543 1.363 1_556 S
C542 C547 1.379 . S
C542 N549 1.356 1_556 S
C543 C542 1.363 1_554 S
C543 C546 1.363 1_554 S
N544 C546 1.356 1_554 S
N544 H556 0.984 . S
N544 H557 0.985 . S
N545 C547 1.356 . S
N545 H550 0.984 . S
N545 H551 0.985 . S
C546 C540 1.379 . S
C546 C543 1.363 1_556 S
C546 N544 1.356 1_556 S
C547 C541 1.363 . S
C547 C542 1.379 . S
C547 N545 1.356 . S
N548 C540 1.356 . S
N548 H554 0.984 . S
N548 H555 0.984 . S
N549 C542 1.356 1_554 S
N549 H552 0.984 . S
N549 H553 0.985 . S
H550 N545 0.984 . S
H551 N545 0.985 . S
H552 N549 0.984 . S
H553 N549 0.985 . S
H554 N548 0.984 . S
H555 N548 0.984 . S
H556 N544 0.984 . S
H557 N544 0.985 . S
C558 C559 1.363 . S
C558 C564 1.379 . S
C558 N566 1.356 . S
C559 C558 1.363 . S
C559 C565 1.363 . S
C560 C561 1.363 . S
C560 C565 1.379 . S
C560 N567 1.356 . S
C561 C560 1.363 . S
C561 C564 1.363 . S
N562 C564 1.356 . S
N562 H574 0.984 . S
N562 H575 0.985 . S
N563 C565 1.356 . S
N563 H568 0.984 . S
N563 H569 0.985 . S
C564 C558 1.379 . S
C564 C561 1.363 . S
C564 N562 1.356 . S
C565 C559 1.363 . S
C565 C560 1.379 . S
C565 N563 1.356 . S
N566 C558 1.356 . S
N566 H572 0.984 . S
N566 H573 0.984 . S
N567 C560 1.356 . S
N567 H570 0.984 . S
N567 H571 0.985 . S
H568 N563 0.984 . S
H569 N563 0.985 . S
H570 N567 0.984 . S
H571 N567 0.985 . S
H572 N566 0.984 . S
H573 N566 0.984 . S
H574 N562 0.984 . S
H575 N562 0.985 . S
C576 C577 1.363 . S
C576 C582 1.379 . S
C576 N584 1.356 . S
C577 C576 1.363 . S
C577 C583 1.363 . S
C578 C579 1.363 . S
C578 C583 1.379 . S
C578 N585 1.356 . S
C579 C578 1.363 . S
C579 C582 1.363 . S
N580 C582 1.356 . S
N580 H592 0.984 . S
N580 H593 0.985 . S
N581 C583 1.356 . S
N581 H586 0.984 . S
N581 H587 0.985 . S
C582 C576 1.379 . S
C582 C579 1.363 . S
C582 N580 1.356 . S
C583 C577 1.363 . S
C583 C578 1.379 . S
C583 N581 1.356 . S
N584 C576 1.356 . S
N584 H590 0.984 . S
N584 H591 0.984 . S
N585 C578 1.356 . S
N585 H588 0.984 . S
N585 H589 0.985 . S
H586 N581 0.984 . S
H587 N581 0.985 . S
H588 N585 0.984 . S
H589 N585 0.985 . S
H590 N584 0.984 . S
H591 N584 0.984 . S
H592 N580 0.984 . S
H593 N580 0.985 . S
C594 C595 1.363 . S
C594 C600 1.379 . S
C594 N602 1.356 . S
C595 C594 1.363 . S
C595 C601 1.363 . S
C596 C597 1.363 . S
C596 C601 1.379 . S
C596 N603 1.356 . S
C597 C596 1.363 . S
C597 C600 1.363 . S
N598 C600 1.356 . S
N598 H610 0.984 . S
N598 H611 0.985 . S
N599 C601 1.356 . S
N599 H604 0.984 . S
N599 H605 0.985 . S
C600 C594 1.379 . S
C600 C597 1.363 . S
C600 N598 1.356 . S
C601 C595 1.363 . S
C601 C596 1.379 . S
C601 N599 1.356 . S
N602 C594 1.356 . S
N602 H608 0.984 . S
N602 H609 0.984 . S
N603 C596 1.356 . S
N603 H606 0.984 . S
N603 H607 0.985 . S
H604 N599 0.984 . S
H605 N599 0.985 . S
H606 N603 0.984 . S
H607 N603 0.985 . S
H608 N602 0.984 . S
H609 N602 0.984 . S
H610 N598 0.984 . S
H611 N598 0.985 . S
C612 C613 1.363 . S
C612 C618 1.379 . S
C612 N620 1.356 . S
C613 C612 1.363 . S
C613 C619 1.363 . S
C614 C615 1.363 . S
C614 C619 1.379 . S
C614 N621 1.356 . S
C615 C614 1.363 . S
C615 C618 1.363 . S
N616 C618 1.356 . S
N616 H628 0.984 . S
N616 H629 0.985 . S
N617 C619 1.356 . S
N617 H622 0.984 . S
N617 H623 0.985 . S
C618 C612 1.379 . S
C618 C615 1.363 . S
C618 N616 1.356 . S
C619 C613 1.363 . S
C619 C614 1.379 . S
C619 N617 1.356 . S
N620 C612 1.356 . S
N620 H626 0.984 . S
N620 H627 0.984 . S
N621 C614 1.356 . S
N621 H624 0.984 . S
N621 H625 0.985 . S
H622 N617 0.984 . S
H623 N617 0.985 . S
H624 N621 0.984 . S
H625 N621 0.985 . S
H626 N620 0.984 . S
H627 N620 0.984 . S
H628 N616 0.984 . S
H629 N616 0.985 . S
C630 C631 1.363 . S
C630 C636 1.379 . S
C630 N638 1.356 . S
C631 C630 1.363 . S
C631 C637 1.363 . S
C632 C633 1.363 . S
C632 C637 1.379 . S
C632 N639 1.356 . S
C633 C632 1.363 . S
C633 C636 1.363 . S
N634 C636 1.356 . S
N634 H646 0.984 . S
N634 H647 0.985 . S
N635 C637 1.356 . S
N635 H640 0.984 . S
N635 H641 0.985 . S
C636 C630 1.379 . S
C636 C633 1.363 . S
C636 N634 1.356 . S
C637 C631 1.363 . S
C637 C632 1.379 . S
C637 N635 1.356 . S
N638 C630 1.356 . S
N638 H644 0.984 . S
N638 H645 0.984 . S
N639 C632 1.356 . S
N639 H642 0.984 . S
N639 H643 0.985 1_655 S
H640 N635 0.984 . S
H641 N635 0.985 . S
H642 N639 0.984 . S
H643 N639 0.985 1_455 S
H644 N638 0.984 . S
H645 N638 0.984 . S
H646 N634 0.984 . S
H647 N634 0.985 . S
C648 C649 1.363 . S
C648 C654 1.379 . S
C648 N656 1.356 . S
C649 C648 1.363 . S
C649 C655 1.363 . S
C650 C651 1.363 . S
C650 C655 1.379 . S
C650 N657 1.356 . S
C651 C650 1.363 . S
C651 C654 1.363 . S
N652 C654 1.356 . S
N652 H664 0.984 . S
N652 H665 0.985 1_655 S
N653 C655 1.356 . S
N653 H658 0.984 . S
N653 H659 0.985 . S
C654 C648 1.379 . S
C654 C651 1.363 . S
C654 N652 1.356 . S
C655 C649 1.363 . S
C655 C650 1.379 . S
C655 N653 1.356 . S
N656 C648 1.356 . S
N656 H662 0.984 . S
N656 H663 0.984 . S
N657 C650 1.356 . S
N657 H660 0.984 1_655 S
N657 H661 0.985 . S
H658 N653 0.984 . S
H659 N653 0.985 . S
H660 N657 0.984 1_455 S
H661 N657 0.985 . S
H662 N656 0.984 . S
H663 N656 0.984 . S
H664 N652 0.984 . S
H665 N652 0.985 1_455 S
C666 C667 1.363 . S
C666 C672 1.379 . S
C666 N674 1.356 . S
C667 C666 1.363 . S
C667 C673 1.363 . S
C668 C669 1.363 . S
C668 C673 1.379 . S
C668 N675 1.356 . S
C669 C668 1.363 . S
C669 C672 1.363 . S
N670 C672 1.356 . S
N670 H682 0.984 . S
N670 H683 0.985 . S
N671 C673 1.356 . S
N671 H676 0.984 . S
N671 H677 0.985 . S
C672 C666 1.379 . S
C672 C669 1.363 . S
C672 N670 1.356 . S
C673 C667 1.363 . S
C673 C668 1.379 . S
C673 N671 1.356 . S
N674 C666 1.356 . S
N674 H680 0.984 . S
N674 H681 0.984 . S
N675 C668 1.356 . S
N675 H678 0.984 . S
N675 H679 0.985 . S
H676 N671 0.984 . S
H677 N671 0.985 . S
H678 N675 0.984 . S
H679 N675 0.985 . S
H680 N674 0.984 . S
H681 N674 0.984 . S
H682 N670 0.984 . S
H683 N670 0.985 . S
C684 C685 1.363 . S
C684 C690 1.379 . S
C684 N692 1.356 . S
C685 C684 1.363 . S
C685 C691 1.363 . S
C686 C687 1.363 . S
C686 C691 1.379 . S
C686 N693 1.356 . S
C687 C686 1.363 . S
C687 C690 1.363 . S
N688 C690 1.356 . S
N688 H700 0.984 . S
N688 H701 0.985 . S
N689 C691 1.356 . S
N689 H694 0.984 . S
N689 H695 0.985 . S
C690 C684 1.379 . S
C690 C687 1.363 . S
C690 N688 1.356 . S
C691 C685 1.363 . S
C691 C686 1.379 . S
C691 N689 1.356 . S
N692 C684 1.356 . S
N692 H698 0.984 . S
N692 H699 0.984 . S
N693 C686 1.356 . S
N693 H696 0.984 . S
N693 H697 0.985 . S
H694 N689 0.984 . S
H695 N689 0.985 . S
H696 N693 0.984 . S
H697 N693 0.985 . S
H698 N692 0.984 . S
H699 N692 0.984 . S
H700 N688 0.984 . S
H701 N688 0.985 . S
C702 C703 1.363 . S
C702 C708 1.379 . S
C702 N710 1.356 . S
C703 C702 1.363 . S
C703 C709 1.363 . S
C704 C705 1.363 . S
C704 C709 1.379 . S
C704 N711 1.356 . S
C705 C704 1.363 . S
C705 C708 1.363 . S
N706 C708 1.356 . S
N706 H718 0.984 . S
N706 H719 0.985 1_565 S
N707 C709 1.356 . S
N707 H712 0.984 . S
N707 H713 0.985 . S
C708 C702 1.379 . S
C708 C705 1.363 . S
C708 N706 1.356 . S
C709 C703 1.363 . S
C709 C704 1.379 . S
C709 N707 1.356 . S
N710 C702 1.356 . S
N710 H716 0.984 . S
N710 H717 0.984 . S
N711 C704 1.356 . S
N711 H714 0.984 . S
N711 H715 0.985 . S
H712 N707 0.984 . S
H713 N707 0.985 . S
H714 N711 0.984 . S
H715 N711 0.985 . S
H716 N710 0.984 . S
H717 N710 0.984 . S
H718 N706 0.984 . S
H719 N706 0.985 1_545 S
C720 C721 1.363 . S
C720 C726 1.379 . S
C720 N728 1.356 . S
C721 C720 1.363 . S
C721 C727 1.363 . S
C722 C723 1.363 . S
C722 C727 1.379 . S
C722 N729 1.356 . S
C723 C722 1.363 . S
C723 C726 1.363 . S
N724 C726 1.356 . S
N724 H736 0.984 . S
N724 H737 0.985 . S
N725 C727 1.356 . S
N725 H730 0.984 . S
N725 H731 0.985 . S
C726 C720 1.379 . S
C726 C723 1.363 . S
C726 N724 1.356 . S
C727 C721 1.363 . S
C727 C722 1.379 . S
C727 N725 1.356 . S
N728 C720 1.356 . S
N728 H734 0.984 . S
N728 H735 0.984 . S
N729 C722 1.356 . S
N729 H732 0.984 . S
N729 H733 0.985 . S
H730 N725 0.984 . S
H731 N725 0.985 . S
H732 N729 0.984 . S
H733 N729 0.985 . S
H734 N728 0.984 . S
H735 N728 0.984 . S
H736 N724 0.984 . S
H737 N724 0.985 . S
C738 C739 1.363 . S
C738 C744 1.379 . S
C738 N746 1.356 . S
C739 C738 1.363 . S
C739 C745 1.363 . S
C740 C741 1.363 . S
C740 C745 1.379 . S
C740 N747 1.356 . S
C741 C740 1.363 . S
C741 C744 1.363 . S
N742 C744 1.356 . S
N742 H754 0.984 . S
N742 H755 0.985 . S
N743 C745 1.356 . S
N743 H748 0.984 . S
N743 H749 0.985 . S
C744 C738 1.379 . S
C744 C741 1.363 . S
C744 N742 1.356 . S
C745 C739 1.363 . S
C745 C740 1.379 . S
C745 N743 1.356 . S
N746 C738 1.356 . S
N746 H752 0.984 . S
N746 H753 0.984 . S
N747 C740 1.356 . S
N747 H750 0.984 . S
N747 H751 0.985 . S
H748 N743 0.984 . S
H749 N743 0.985 . S
H750 N747 0.984 . S
H751 N747 0.985 . S
H752 N746 0.984 . S
H753 N746 0.984 . S
H754 N742 0.984 . S
H755 N742 0.985 . S
C756 C757 1.363 . S
C756 C762 1.379 . S
C756 N764 1.356 . S
C757 C756 1.363 . S
C757 C763 1.363 . S
C758 C759 1.363 . S
C758 C763 1.379 . S
C758 N765 1.356 . S
C759 C758 1.363 . S
C759 C762 1.363 . S
N760 C762 1.356 . S
N760 H772 0.984 . S
N760 H773 0.985 . S
N761 C763 1.356 . S
N761 H766 0.984 . S
N761 H767 0.985 . S
C762 C756 1.379 . S
C762 C759 1.363 . S
C762 N760 1.356 . S
C763 C757 1.363 . S
C763 C758 1.379 . S
C763 N761 1.356 . S
N764 C756 1.356 . S
N764 H770 0.984 . S
N764 H771 0.984 . S
N765 C758 1.356 . S
N765 H768 0.984 . S
N765 H769 0.985 . S
H766 N761 0.984 . S
H767 N761 0.985 . S
H768 N765 0.984 . S
H769 N765 0.985 . S
H770 N764 0.984 . S
H771 N764 0.984 . S
H772 N760 0.984 . S
H773 N760 0.985 . S
C774 C775 1.363 . S
C774 C780 1.379 . S
C774 N782 1.356 . S
C775 C774 1.363 . S
C775 C781 1.363 . S
C776 C777 1.363 . S
C776 C781 1.379 . S
C776 N783 1.356 . S
C777 C776 1.363 . S
C777 C780 1.363 . S
N778 C780 1.356 . S
N778 H790 0.984 . S
N778 H791 0.985 . S
N779 C781 1.356 . S
N779 H784 0.984 . S
N779 H785 0.985 . S
C780 C774 1.379 . S
C780 C777 1.363 . S
C780 N778 1.356 . S
C781 C775 1.363 . S
C781 C776 1.379 . S
C781 N779 1.356 . S
N782 C774 1.356 . S
N782 H788 0.984 . S
N782 H789 0.984 . S
N783 C776 1.356 . S
N783 H786 0.984 . S
N783 H787 0.985 . S
H784 N779 0.984 . S
H785 N779 0.985 . S
H786 N783 0.984 . S
H787 N783 0.985 . S
H788 N782 0.984 . S
H789 N782 0.984 . S
H790 N778 0.984 . S
H791 N778 0.985 . S
C792 C793 1.363 . S
C792 C798 1.379 . S
C792 N800 1.356 . S
C793 C792 1.363 . S
C793 C799 1.363 . S
C794 C795 1.363 . S
C794 C799 1.379 . S
C794 N801 1.356 . S
C795 C794 1.363 . S
C795 C798 1.363 . S
N796 C798 1.356 . S
N796 H808 0.984 . S
N796 H809 0.985 . S
N797 C799 1.356 . S
N797 H802 0.984 . S
N797 H803 0.985 . S
C798 C792 1.379 . S
C798 C795 1.363 . S
C798 N796 1.356 . S
C799 C793 1.363 . S
C799 C794 1.379 . S
C799 N797 1.356 . S
N800 C792 1.356 . S
N800 H806 0.984 . S
N800 H807 0.984 . S
N801 C794 1.356 . S
N801 H804 0.984 . S
N801 H805 0.985 . S
H802 N797 0.984 . S
H803 N797 0.985 . S
H804 N801 0.984 . S
H805 N801 0.985 . S
H806 N800 0.984 . S
H807 N800 0.984 . S
H808 N796 0.984 . S
H809 N796 0.985 . S
C810 C811 1.363 . S
C810 C816 1.379 . S
C810 N818 1.356 . S
C811 C810 1.363 . S
C811 C817 1.363 . S
C812 C813 1.363 . S
C812 C817 1.379 . S
C812 N819 1.356 . S
C813 C812 1.363 . S
C813 C816 1.363 . S
N814 C816 1.356 . S
N814 H826 0.984 . S
N814 H827 0.985 . S
N815 C817 1.356 . S
N815 H820 0.984 . S
N815 H821 0.985 . S
C816 C810 1.379 . S
C816 C813 1.363 . S
C816 N814 1.356 . S
C817 C811 1.363 . S
C817 C812 1.379 . S
C817 N815 1.356 . S
N818 C810 1.356 . S
N818 H824 0.984 . S
N818 H825 0.984 . S
N819 C812 1.356 . S
N819 H822 0.984 . S
N819 H823 0.985 . S
H820 N815 0.984 . S
H821 N815 0.985 . S
H822 N819 0.984 . S
H823 N819 0.985 . S
H824 N818 0.984 . S
H825 N818 0.984 . S
H826 N814 0.984 . S
H827 N814 0.985 . S
C828 C829 1.363 . S
C828 C834 1.379 . S
C828 N836 1.356 . S
C829 C828 1.363 . S
C829 C835 1.363 . S
C830 C831 1.363 . S
C830 C835 1.379 . S
C830 N837 1.356 . S
C831 C830 1.363 . S
C831 C834 1.363 . S
N832 C834 1.356 . S
N832 H844 0.984 . S
N832 H845 0.985 . S
N833 C835 1.356 . S
N833 H838 0.984 . S
N833 H839 0.985 . S
C834 C828 1.379 . S
C834 C831 1.363 . S
C834 N832 1.356 . S
C835 C829 1.363 . S
C835 C830 1.379 . S
C835 N833 1.356 . S
N836 C828 1.356 . S
N836 H842 0.984 . S
N836 H843 0.984 . S
N837 C830 1.356 . S
N837 H840 0.984 . S
N837 H841 0.985 . S
H838 N833 0.984 . S
H839 N833 0.985 . S
H840 N837 0.984 . S
H841 N837 0.985 . S
H842 N836 0.984 . S
H843 N836 0.984 . S
H844 N832 0.984 . S
H845 N832 0.985 . S
C417 C118 1.634 . S
C415 C6 1.641 . S
C435 C187 1.468 . S
C433 C18 1.448 . S
C453 C125 1.585 . S
C451 C28 1.591 . S
C471 C188 1.530 . S
C469 C45 1.523 . S
C489 C241 1.524 . S
C487 C4 1.542 . S
C507 C277 1.738 . S
C505 C21 1.760 . S
C523 C33 1.628 . S
C525 C337 1.642 . S
C543 C400 1.682 . S
C541 C40 1.667 . S
C561 C240 1.651 . S
C559 C16 1.651 . S
C577 C30 1.716 . S
C579 C284 1.687 . S
C597 C330 1.599 . S
C595 C42 1.595 . S
C615 C399 1.659 . S
C613 C9 1.654 . S
C631 C52 1.557 . S
C633 C178 1.559 . S
C651 C135 1.681 1_655 S
C649 C69 1.693 . S
C667 C78 1.452 . S
C669 C171 1.452 . S
C685 C93 1.497 . S
C687 C134 1.529 . S
C705 C346 1.660 . S
C703 C57 1.644 . S
C723 C390 1.663 . S
C721 C66 1.675 . S
C741 C224 1.500 . S
C739 C76 1.527 . S
C757 C88 1.611 . S
C759 C293 1.574 . S
C777 C347 1.609 . S
C775 C64 1.589 . S
C795 C383 1.638 . S
C793 C81 1.631 . S
C813 C231 1.499 . S
C811 C90 1.506 . S
C829 C54 1.675 . S
C831 C294 1.654 . S
