# Generated by pormake.
# Topology tsx, (6,3)-cn, num edge types: 1
# Building blocks:
#     Node 0, Type 0, BuildingBlock: MIDCAF_clean_sbu_0, # of connection points: 6
#     Node 1, Type 0, BuildingBlock: MIDCAF_clean_sbu_0, # of connection points: 6
#     Node 2, Type 1, BuildingBlock: BETDIP_clean_linker_0, # of connection points: 3
#     Node 3, Type 1, BuildingBlock: BETDIP_clean_linker_0, # of connection points: 3
#     Node 4, Type 1, BuildingBlock: BETDIP_clean_linker_0, # of connection points: 3
#     Node 5, Type 1, BuildingBlock: BETDIP_clean_linker_0, # of connection points: 3
#     Edge 6, Type (0, 1), BuildingBlock: XUDNAN_clean_linker_2, # of connection points: 2
#     Edge 7, Type (0, 1), BuildingBlock: XUDNAN_clean_linker_2, # of connection points: 2
#     Edge 8, Type (0, 1), BuildingBlock: XUDNAN_clean_linker_2, # of connection points: 2
#     Edge 9, Type (0, 1), BuildingBlock: XUDNAN_clean_linker_2, # of connection points: 2
#     Edge 10, Type (0, 1), BuildingBlock: XUDNAN_clean_linker_2, # of connection points: 2
#     Edge 11, Type (0, 1), BuildingBlock: XUDNAN_clean_linker_2, # of connection points: 2
#     Edge 12, Type (0, 1), BuildingBlock: XUDNAN_clean_linker_2, # of connection points: 2
#     Edge 13, Type (0, 1), BuildingBlock: XUDNAN_clean_linker_2, # of connection points: 2
#     Edge 14, Type (0, 1), BuildingBlock: XUDNAN_clean_linker_2, # of connection points: 2
#     Edge 15, Type (0, 1), BuildingBlock: XUDNAN_clean_linker_2, # of connection points: 2
#     Edge 16, Type (0, 1), BuildingBlock: XUDNAN_clean_linker_2, # of connection points: 2
#     Edge 17, Type (0, 1), BuildingBlock: XUDNAN_clean_linker_2, # of connection points: 2
# Relax obj value: 0.082
# Max RMSD: 0.149
# Mean RMSD: 0.112
data_MOF--net-tsx--node1-MIDCAF_clean_sbu_0--node2-BETDIP_clean_linker_0--edge1-XUDNAN_clean_linker_2
_symmetry_space_group_name_H-M    P1
_symmetry_Int_Tables_number       1
_symmetry_cell_setting            triclinic
loop_
_symmetry_equiv_pos_as_xyz
'x, y, z'
_cell_length_a     20.229028
_cell_length_b     20.894175
_cell_length_c     35.573187
_cell_angle_alpha  90.018671
_cell_angle_beta   105.08719
_cell_angle_gamma 89.962191
loop_
_atom_site_label
_atom_site_type_symbol
_atom_site_fract_x
_atom_site_fract_y
_atom_site_fract_z
_atom_type_partial_charge
Zn0 Zn 0.942 0.02218 0.95212 0.0
Zn1 Zn 0.15194 0.01243 0.06884 0.0
Zn2 Zn 0.04883 0.02702 0.01213 0.0
C3 C 0.1554 0.13794 0.03933 0.0
C4 C 0.17177 0.92278 0.01887 0.0
O5 O 0.96032 0.9862 0.0302 0.0
O6 O 0.88403 0.96483 0.97459 0.0
C7 C 0.97193 0.15234 0.97367 0.0
O8 O 0.0934 0.12426 0.02085 0.0
O9 O 0.19263 0.09556 0.05987 0.0
O10 O 0.19212 0.93364 0.05485 0.0
O11 O 0.12289 0.95667 0.99738 0.0
O12 O 0.92726 0.11645 0.95237 0.0
O13 O 0.02574 0.12822 0.99709 0.0
O14 O 0.07576 0.97475 0.96353 0.0
O15 O 0.98542 0.98783 0.9133 0.0
C16 C 0.04573 0.9681 0.92703 0.0
O17 O 0.0137 -0.00254 0.06389 0.0
O18 O 0.10844 0.00512 0.11171 0.0
C19 C 0.90269 0.96165 0.01126 0.0
C20 C 0.04489 0.99547 0.10045 0.0
Zn21 Zn 0.63425 0.4629 0.56274 0.0
Zn22 Zn 0.432 0.49219 0.44541 0.0
Zn23 Zn 0.53526 0.48942 0.50702 0.0
C24 C 0.54247 0.46072 0.41819 0.0
C25 C 0.45104 0.61641 0.47887 0.0
O26 O 0.49789 0.44225 0.55398 0.0
O27 O 0.58988 0.44243 0.60378 0.0
C28 C 0.66882 0.40152 0.50638 0.0
O29 O 0.57077 0.46108 0.45516 0.0
O30 O 0.47972 0.47331 0.40534 0.0
O31 O 0.41016 0.58364 0.45312 0.0
O32 O 0.50436 0.59042 0.50155 0.0
O33 O 0.68022 0.39304 0.54256 0.0
O34 O 0.62035 0.43971 0.4887 0.0
O35 O 0.57052 0.58541 0.52648 0.0
O36 O 0.67137 0.55132 0.5608 0.0
C37 C 0.63273 0.59697 0.54528 0.0
O38 O 0.45229 0.42753 0.51804 0.0
O39 O 0.37818 0.42255 0.46011 0.0
C40 C 0.52653 0.4334 0.59053 0.0
C41 C 0.39743 0.4042 0.49504 0.0
H42 H 0.15663 0.03614 0.4778 0.0
H43 H 0.99611 0.08722 0.37885 0.0
H44 H 0.13803 0.93868 0.36877 0.0
H45 H 0.06911 0.19315 0.41181 0.0
C46 C 0.04419 0.1801 0.43438 0.0
C47 C 0.1304 0.02783 0.44755 0.0
C48 C 0.15323 0.98028 0.42582 0.0
C49 C 0.07539 0.06726 0.42994 0.0
C50 C 0.04094 0.05824 0.39082 0.0
C51 C 0.06398 0.01353 0.36758 0.0
C52 C 0.1199 0.97408 0.38575 0.0
N53 N 0.05592 0.1181 0.45111 0.0
H54 H 0.93794 0.02386 0.55974 0.0
H55 H 0.10258 0.05042 0.66327 0.0
H56 H 0.95123 0.90469 0.65959 0.0
H57 H 0.10493 0.15169 0.6378 0.0
C58 C 0.09812 0.13898 0.60742 0.0
C59 C 0.96302 0.01131 0.58963 0.0
C60 C 0.93839 0.96021 0.6075 0.0
C61 C 0.02167 0.04484 0.60972 0.0
C62 C 0.0558 0.02661 0.64804 0.0
C63 C 0.03108 0.97568 0.66634 0.0
C64 C 0.97195 0.94331 0.6458 0.0
N65 N 0.04816 0.09292 0.5895 0.0
H66 H 0.63737 0.54407 0.95692 0.0
H67 H 0.46188 0.55675 0.85984 0.0
H68 H 0.62907 0.4339 0.85348 0.0
H69 H 0.47495 0.66762 0.88491 0.0
C70 C 0.47378 0.65064 0.91362 0.0
C71 C 0.61132 0.5289 0.92774 0.0
C72 C 0.64142 0.48372 0.90786 0.0
C73 C 0.54771 0.55624 0.91004 0.0
C74 C 0.5127 0.53793 0.87216 0.0
C75 C 0.54195 0.49467 0.8508 0.0
C76 C 0.60627 0.46771 0.86923 0.0
N77 N 0.51821 0.60026 0.93143 0.0
H78 H 0.44536 0.57396 0.04836 0.0
H79 H 0.59871 0.61987 0.15271 0.0
H80 H 0.45788 0.4646 0.15181 0.0
H81 H 0.5419 0.72597 0.12766 0.0
C82 C 0.55941 0.71752 0.10164 0.0
C83 C 0.46937 0.5647 0.07881 0.0
C84 C 0.44811 0.51275 0.09768 0.0
C85 C 0.52171 0.60487 0.09942 0.0
C86 C 0.55515 0.59094 0.13842 0.0
C87 C 0.53336 0.5403 0.15839 0.0
C88 C 0.47856 0.50231 0.13746 0.0
N89 N 0.54115 0.65926 0.08092 0.0
H90 H 0.28983 0.16817 0.0635 0.0
H91 H 0.09136 0.25257 0.01111 0.0
H92 H 0.1463 0.35917 0.01318 0.0
H93 H 0.35021 0.2884 0.13016 0.0
H94 H 0.4375 0.28271 0.12699 0.0
H95 H 0.38274 0.21373 0.11685 0.0
H96 H 0.40664 0.20279 0.04892 0.0
H97 H 0.46156 0.27198 0.05885 0.0
H98 H 0.3907 0.26988 0.01592 0.0
H99 H 0.22541 0.45888 0.02722 0.0
H100 H 0.31723 0.53862 0.05331 0.0
H101 H 0.46016 0.38435 0.09582 0.0
C102 C 0.2575 0.20873 0.05198 0.0
C103 C 0.18599 0.20193 0.03725 0.0
C104 C 0.14614 0.2565 0.02243 0.0
C105 C 0.17708 0.31719 0.02346 0.0
C106 C 0.2479 0.32206 0.03896 0.0
C107 C 0.28732 0.26882 0.05274 0.0
C108 C 0.36135 0.2859 0.07039 0.0
C109 C 0.38423 0.26656 0.11364 0.0
C110 C 0.40778 0.25586 0.04711 0.0
C111 C 0.35767 0.35754 0.06557 0.0
C112 C 0.29228 0.378 0.04694 0.0
C113 C 0.27681 0.4431 0.04141 0.0
C114 C 0.32912 0.48801 0.05614 0.0
C115 C 0.3954 0.46726 0.07653 0.0
C116 C 0.40983 0.40132 0.08028 0.0
H117 H 0.22215 0.92244 0.95392 0.0
H118 H 0.19827 0.80542 0.05015 0.0
H119 H 0.26919 0.72087 0.03194 0.0
H120 H 0.22393 0.79244 0.88479 0.0
H121 H 0.29121 0.82675 0.86648 0.0
H122 H 0.23439 0.87822 0.88396 0.0
H123 H 0.33395 0.93265 0.93249 0.0
H124 H 0.39332 0.88394 0.91516 0.0
H125 H 0.39639 0.8847 0.96626 0.0
H126 H 0.35166 0.65445 0.00837 0.0
H127 H 0.43458 0.60543 0.97684 0.0
H128 H 0.40601 0.76371 0.89526 0.0
C129 C 0.23003 0.87803 0.97016 0.0
C130 C 0.20403 0.86967 0.00301 0.0
C131 C 0.21741 0.81215 0.02467 0.0
C132 C 0.25766 0.76399 0.01461 0.0
C133 C 0.28455 0.77425 0.98291 0.0
C134 C 0.27102 0.82948 0.96073 0.0
C135 C 0.31071 0.82999 0.92994 0.0
C136 C 0.26208 0.83183 0.88884 0.0
C137 C 0.36161 0.88615 0.93637 0.0
C138 C 0.34787 0.76638 0.93818 0.0
C139 C 0.33248 0.73538 0.96912 0.0
C140 C 0.36348 0.67775 0.98374 0.0
C141 C 0.41083 0.65049 0.96584 0.0
C142 C 0.42627 0.68078 0.93359 0.0
C143 C 0.39441 0.7394 0.91967 0.0
H144 H 0.82328 0.85558 0.98906 0.0
H145 H 0.87373 0.00245 0.07765 0.0
H146 H 0.79258 0.95484 0.11105 0.0
H147 H 0.64392 0.85118 0.98253 0.0
H148 H 0.63591 0.76589 0.97512 0.0
H149 H 0.70087 0.80938 0.95949 0.0
H150 H 0.79444 0.73484 0.00084 0.0
H151 H 0.7296 0.69084 0.01629 0.0
H152 H 0.80083 0.72504 0.05202 0.0
H153 H 0.70245 0.89424 0.13269 0.0
H154 H 0.61319 0.82128 0.14361 0.0
H155 H 0.61933 0.71415 0.04006 0.0
C156 C 0.81759 0.87718 0.01573 0.0
C157 C 0.85646 0.93138 0.03186 0.0
C158 C 0.84705 0.95909 0.06628 0.0
C159 C 0.80015 0.933 0.0849 0.0
C160 C 0.76266 0.87944 0.06833 0.0
C161 C 0.77092 0.85163 0.0346 0.0
C162 C 0.72352 0.79482 0.02258 0.0
C163 C 0.67307 0.80603 0.98256 0.0
C164 C 0.76456 0.73271 0.02298 0.0
C165 C 0.68711 0.79521 0.05477 0.0
C166 C 0.71031 0.84462 0.08072 0.0
C167 C 0.68404 0.85526 0.11267 0.0
C168 C 0.63331 0.8138 0.11854 0.0
C169 C 0.60964 0.76229 0.09274 0.0
C170 C 0.63657 0.75314 0.06028 0.0
H171 H 0.93432 0.23389 0.91258 0.0
H172 H 0.96307 0.22016 0.03713 0.0
H173 H 0.89446 0.31857 0.03582 0.0
H174 H 0.93011 0.42016 0.90895 0.0
H175 H 0.86727 0.41746 0.86257 0.0
H176 H 0.93236 0.35641 0.87516 0.0
H177 H 0.8376 0.26987 0.86156 0.0
H178 H 0.77224 0.33017 0.85007 0.0
H179 H 0.77226 0.27241 0.88769 0.0
H180 H 0.79673 0.39599 0.0176 0.0
H181 H 0.69401 0.45763 0.98641 0.0
H182 H 0.74049 0.43369 0.87448 0.0
C183 C 0.92941 0.254 0.93979 0.0
C184 C 0.95462 0.22051 0.97503 0.0
C185 C 0.94547 0.2463 0.01005 0.0
C186 C 0.90618 0.3019 0.00948 0.0
C187 C 0.87835 0.33193 0.9738 0.0
C188 C 0.89181 0.3103 0.93976 0.0
C189 C 0.85062 0.34718 0.90477 0.0
C190 C 0.89791 0.38773 0.88681 0.0
C191 C 0.80554 0.30221 0.87428 0.0
C192 C 0.80773 0.38908 0.92396 0.0
C193 C 0.8247 0.37998 0.96377 0.0
C194 C 0.785 0.4058 0.9867 0.0
C195 C 0.72641 0.44126 0.9685 0.0
C196 C 0.70798 0.45168 0.9276 0.0
C197 C 0.75127 0.42661 0.90558 0.0
H198 H 0.767 0.62458 0.55834 0.0
H199 H 0.56758 0.71513 0.53511 0.0
H200 H 0.62344 0.82187 0.54026 0.0
H201 H 0.85316 0.72882 0.62958 0.0
H202 H 0.93201 0.72634 0.61496 0.0
H203 H 0.87472 0.65916 0.60527 0.0
H204 H 0.87054 0.66605 0.53183 0.0
H205 H 0.9276 0.73376 0.54132 0.0
H206 H 0.84586 0.74011 0.506 0.0
H207 H 0.70553 0.91912 0.55489 0.0
H208 H 0.80313 0.99399 0.57884 0.0
H209 H 0.94486 0.83552 0.59071 0.0
C210 C 0.73466 0.66671 0.55407 0.0
C211 C 0.6629 0.66164 0.54658 0.0
C212 C 0.62264 0.71801 0.54077 0.0
C213 C 0.65401 0.7787 0.54358 0.0
C214 C 0.72539 0.78173 0.55152 0.0
C215 C 0.76483 0.72683 0.55639 0.0
C216 C 0.84039 0.74153 0.56681 0.0
C217 C 0.87717 0.71226 0.6065 0.0
C218 C 0.87299 0.71903 0.53456 0.0
C219 C 0.83802 0.81348 0.56866 0.0
C220 C 0.77152 0.8364 0.55923 0.0
C221 C 0.75766 0.9016 0.56167 0.0
C222 C 0.81313 0.94377 0.57509 0.0
C223 C 0.88094 0.92006 0.58613 0.0
C224 C 0.8933 0.85459 0.58187 0.0
H225 H 0.74012 0.2899 0.52472 0.0
H226 H 0.71021 0.45096 0.44556 0.0
H227 H 0.80017 0.40933 0.41674 0.0
H228 H 0.92002 0.28903 0.54531 0.0
H229 H 0.92907 0.20323 0.54845 0.0
H230 H 0.85665 0.24119 0.55974 0.0
H231 H 0.77369 0.17094 0.50831 0.0
H232 H 0.84604 0.1321 0.4974 0.0
H233 H 0.78156 0.16947 0.45898 0.0
H234 H 0.89986 0.35553 0.40085 0.0
H235 H 0.99778 0.28869 0.39536 0.0
H236 H 0.96585 0.16418 0.48664 0.0
C237 C 0.75149 0.31551 0.50068 0.0
C238 C 0.71627 0.37242 0.48608 0.0
C239 C 0.73375 0.40557 0.45544 0.0
C240 C 0.78576 0.38284 0.43952 0.0
C241 C 0.8202 0.32715 0.45497 0.0
C242 C 0.80357 0.29361 0.4847 0.0
C243 C 0.85078 0.23683 0.49737 0.0
C244 C 0.89153 0.24299 0.54026 0.0
C245 C 0.81061 0.17359 0.49005 0.0
C246 C 0.89693 0.24407 0.47032 0.0
C247 C 0.87846 0.29656 0.44618 0.0
C248 C 0.91446 0.31401 0.41934 0.0
C249 C 0.97008 0.27608 0.41658 0.0
C250 C 0.98889 0.22144 0.44042 0.0
C251 C 0.95227 0.20558 0.46789 0.0
H252 H 0.36533 0.39303 0.56543 0.0
H253 H 0.33502 0.30406 0.45224 0.0
H254 H 0.25855 0.22417 0.46975 0.0
H255 H 0.3624 0.24371 0.62102 0.0
H256 H 0.31634 0.28017 0.65258 0.0
H257 H 0.37307 0.32766 0.63254 0.0
H258 H 0.27504 0.40662 0.60376 0.0
H259 H 0.21721 0.35959 0.62327 0.0
H260 H 0.19643 0.37718 0.57192 0.0
H261 H 0.18206 0.15806 0.49752 0.0
H262 H 0.10758 0.1081 0.53416 0.0
H263 H 0.18676 0.23862 0.63031 0.0
C264 C 0.34456 0.35544 0.54505 0.0
C265 C 0.35705 0.35395 0.50786 0.0
C266 C 0.32622 0.3058 0.48099 0.0
C267 C 0.28294 0.26013 0.49069 0.0
C268 C 0.27091 0.26334 0.52739 0.0
C269 C 0.30089 0.30945 0.55431 0.0
C270 C 0.27599 0.30405 0.5909 0.0
C271 C 0.3355 0.28787 0.62635 0.0
C272 C 0.23895 0.36552 0.59784 0.0
C273 C 0.22664 0.24835 0.57993 0.0
C274 C 0.22498 0.22554 0.54326 0.0
C275 C 0.18253 0.17531 0.52625 0.0
C276 C 0.14033 0.14746 0.54725 0.0
C277 C 0.14126 0.16983 0.58495 0.0
C278 C 0.18514 0.22076 0.60149 0.0
H279 H 0.42325 0.70845 0.42361 0.0
H280 H 0.43157 0.67125 0.54439 0.0
H281 H 0.36829 0.77198 0.54718 0.0
H282 H 0.43442 0.8918 0.43364 0.0
H283 H 0.3775 0.90106 0.3857 0.0
H284 H 0.43568 0.83409 0.39615 0.0
H285 H 0.3332 0.75689 0.37234 0.0
H286 H 0.27455 0.82306 0.36274 0.0
H287 H 0.26302 0.75977 0.39486 0.0
H288 H 0.2805 0.85974 0.53136 0.0
H289 H 0.18941 0.93604 0.50165 0.0
H290 H 0.24969 0.9249 0.39306 0.0
C291 C 0.41453 0.72339 0.45109 0.0
C292 C 0.43271 0.6832 0.48395 0.0
C293 C 0.41909 0.70253 0.51924 0.0
C294 C 0.38297 0.7594 0.52097 0.0
C295 C 0.36269 0.79678 0.48739 0.0
C296 C 0.38 0.78061 0.45345 0.0
C297 C 0.34726 0.82563 0.42052 0.0
C298 C 0.40198 0.86553 0.40829 0.0
C299 C 0.30183 0.78913 0.3856 0.0
C300 C 0.30488 0.86676 0.44039 0.0
C301 C 0.31472 0.84977 0.47898 0.0
C302 C 0.27435 0.87525 0.50162 0.0
C303 C 0.2226 0.91894 0.48436 0.0
C304 C 0.21176 0.93745 0.44479 0.0
C305 C 0.25519 0.91182 0.42312 0.0
H306 H 0.05363 0.90274 0.15479 0.0
H307 H 0.96183 0.08622 0.11626 0.0
H308 H 0.93451 0.1011 0.17931 0.0
H309 H 0.93475 0.86295 0.22313 0.0
H310 H 0.00594 0.82589 0.25748 0.0
H311 H 0.99894 0.82069 0.20597 0.0
H312 H 0.12071 0.86823 0.21791 0.0
H313 H 0.12765 0.87545 0.26904 0.0
H314 H 0.13903 0.94505 0.24146 0.0
H315 H 0.95256 0.11166 0.24953 0.0
H316 H 0.99642 0.11109 0.3198 0.0
H317 H 0.06312 0.91357 0.31493 0.0
C318 C 0.0237 0.94386 0.15897 0.0
C319 C 0.00745 0.99238 0.1305 0.0
C320 C 0.97213 0.04762 0.13733 0.0
C321 C 0.95679 0.0565 0.17312 0.0
C322 C 0.9767 0.00934 0.20156 0.0
C323 C 0.00742 0.95297 0.19454 0.0
C324 C 0.03211 0.91424 0.23166 0.0
C325 C 0.99043 0.85227 0.22943 0.0
C326 C 0.10942 0.89998 0.2405 0.0
C327 C 0.01632 0.96033 0.26106 0.0
C328 C 0.98363 0.01441 0.24295 0.0
C329 C 0.97466 0.06819 0.26406 0.0
C330 C 0.99977 0.06697 0.30457 0.0
C331 C 0.03241 0.01159 0.32434 0.0
C332 C 0.03886 0.95706 0.30175 0.0
H333 H 0.10616 0.04662 0.88767 0.0
H334 H 0.05906 0.84761 0.90049 0.0
H335 H 0.08135 0.82354 0.83677 0.0
H336 H 0.01169 0.06047 0.80004 0.0
H337 H 0.06344 0.11506 0.78064 0.0
H338 H 0.07178 0.11301 0.83196 0.0
H339 H 0.20163 0.0902 0.84531 0.0
H340 H 0.19415 0.09321 0.79369 0.0
H341 H 0.2309 0.02383 0.82152 0.0
H342 H 0.0809 0.82609 0.76707 0.0
H343 H 0.05018 0.8545 0.69752 0.0
H344 H 0.08572 0.05486 0.72796 0.0
C345 C 0.10548 -0.00265 0.87806 0.0
C346 C 0.08358 0.94841 0.89914 0.0
C347 C 0.07831 0.88501 0.88511 0.0
C348 C 0.09054 0.87121 0.84888 0.0
C349 C 0.10799 0.92148 0.82737 0.0
C350 C 0.11604 0.98344 0.84167 0.0
C351 C 0.11923 0.0311 0.8101 0.0
C352 C 0.06318 0.08283 0.80542 0.0
C353 C 0.19075 0.06136 0.81813 0.0
C354 C 0.10613 0.98717 0.77516 0.0
C355 C 0.10294 0.92386 0.78597 0.0
C356 C 0.08442 0.87534 0.75839 0.0
C357 C 0.06619 0.89211 0.7189 0.0
C358 C 0.0646 0.95714 0.70726 0.0
C359 C 0.08757 0.00473 0.73584 0.0
H360 H 0.5482 0.34928 0.65043 0.0
H361 H 0.421 0.50808 0.59695 0.0
H362 H 0.38829 0.52722 0.6581 0.0
H363 H 0.43353 0.30327 0.72148 0.0
H364 H 0.50996 0.2814 0.75816 0.0
H365 H 0.5044 0.26718 0.7074 0.0
H366 H 0.6166 0.33102 0.71481 0.0
H367 H 0.62168 0.34746 0.76491 0.0
H368 H 0.62117 0.41273 0.73171 0.0
H369 H 0.40587 0.55307 0.72754 0.0
H370 H 0.45239 0.5713 0.79713 0.0
H371 H 0.55365 0.38581 0.80751 0.0
C372 C 0.50985 0.38517 0.65105 0.0
C373 C 0.48603 0.42652 0.61906 0.0
C374 C 0.43819 0.4749 0.62092 0.0
C375 C 0.4197 0.48628 0.65565 0.0
C376 C 0.44823 0.44774 0.68782 0.0
C377 C 0.48999 0.39623 0.68538 0.0
C378 C 0.52086 0.3674 0.72521 0.0
C379 C 0.49035 0.30087 0.72825 0.0
C380 C 0.59968 0.36459 0.73467 0.0
C381 C 0.49683 0.41534 0.75074 0.0
C382 C 0.4541 0.46065 0.72862 0.0
C383 C 0.43617 0.51608 0.74534 0.0
C384 C 0.46309 0.52588 0.78539 0.0
C385 C 0.50692 0.47996 0.80896 0.0
C386 C 0.52134 0.42281 0.79109 0.0
H387 H 0.53479 0.37989 0.35726 0.0
H388 H 0.63377 0.5511 0.41315 0.0
H389 H 0.66492 0.58096 0.35301 0.0
H390 H 0.65846 0.35738 0.28842 0.0
H391 H 0.58736 0.32836 0.25045 0.0
H392 H 0.59223 0.31059 0.30072 0.0
H393 H 0.47134 0.35894 0.29157 0.0
H394 H 0.46665 0.37883 0.24192 0.0
H395 H 0.4557 0.4406 0.27518 0.0
H396 H 0.64729 0.60984 0.28419 0.0
H397 H 0.60409 0.6263 0.21435 0.0
H398 H 0.53407 0.42835 0.20143 0.0
C399 C 0.56725 0.42113 0.35742 0.0
C400 C 0.58374 0.46234 0.3899 0.0
C401 C 0.62287 0.51796 0.38886 0.0
C402 C 0.64038 0.53545 0.35472 0.0
C403 C 0.61955 0.49599 0.32219 0.0
C404 C 0.58636 0.43845 0.32365 0.0
C405 C 0.56211 0.40905 0.28341 0.0
C406 C 0.60247 0.34771 0.28058 0.0
C407 C 0.48438 0.39618 0.27242 0.0
C408 C 0.58035 0.46209 0.25885 0.0
C409 C 0.614 0.51145 0.28179 0.0
C410 C 0.62439 0.57019 0.2658 0.0
C411 C 0.59951 0.57891 0.22553 0.0
C412 C 0.56557 0.52866 0.201 0.0
C413 C 0.55853 0.46875 0.21838 0.0
loop_
_geom_bond_atom_site_label_1
_geom_bond_atom_site_label_2
_geom_bond_distance
_geom_bond_site_symmetry_2
_ccdc_geom_bond_type
Zn0 O6 1.920 1_545 S
Zn0 O12 1.898 . S
Zn0 O15 1.905 1_545 S
Zn1 O9 1.905 . S
Zn1 O10 1.898 1_545 S
Zn1 O18 1.920 1_545 S
Zn2 O5 2.080 1_445 S
Zn2 O8 2.114 . S
Zn2 O11 2.120 1_545 S
Zn2 O13 2.120 1_455 S
Zn2 O14 2.114 1_554 S
Zn2 O17 2.080 . S
C3 O8 1.166 . S
C3 O9 1.182 . S
C4 O10 1.167 . S
C4 O11 1.299 . S
O5 Zn2 2.080 1_665 S
O5 C19 1.305 . S
O6 Zn0 1.920 1_565 S
O6 C19 1.234 1_556 S
C7 O12 1.167 . S
C7 O13 1.299 1_556 S
O8 Zn2 2.114 . S
O8 C3 1.166 . S
O9 Zn1 1.905 . S
O9 C3 1.182 . S
O10 Zn1 1.898 1_565 S
O10 C4 1.167 . S
O11 Zn2 2.120 1_565 S
O11 C4 1.299 . S
O12 Zn0 1.898 . S
O12 C7 1.167 . S
O13 Zn2 2.120 1_655 S
O13 C7 1.299 1_554 S
O14 Zn2 2.114 1_556 S
O14 C16 1.161 1_445 S
O15 Zn0 1.905 1_565 S
O15 C16 1.194 . S
C16 O14 1.161 1_665 S
C16 O15 1.194 . S
O17 Zn2 2.080 . S
O17 C20 1.305 1_545 S
O18 Zn1 1.920 1_565 S
O18 C20 1.234 . S
C19 O5 1.305 . S
C19 O6 1.234 1_554 S
C20 O17 1.305 1_565 S
C20 O18 1.234 . S
Zn21 O27 1.920 . S
Zn21 O33 1.898 . S
Zn21 O36 1.905 . S
Zn22 O30 1.905 . S
Zn22 O31 1.898 . S
Zn22 O39 1.920 . S
Zn23 O26 2.080 . S
Zn23 O29 2.114 . S
Zn23 O32 2.120 . S
Zn23 O34 2.120 . S
Zn23 O35 2.114 . S
Zn23 O38 2.080 . S
C24 O29 1.166 . S
C24 O30 1.182 . S
C25 O31 1.167 . S
C25 O32 1.299 . S
O26 Zn23 2.080 . S
O26 C40 1.305 . S
O27 Zn21 1.920 . S
O27 C40 1.234 . S
C28 O33 1.167 . S
C28 O34 1.299 . S
O29 Zn23 2.114 . S
O29 C24 1.166 . S
O30 Zn22 1.905 . S
O30 C24 1.182 . S
O31 Zn22 1.898 . S
O31 C25 1.167 . S
O32 Zn23 2.120 . S
O32 C25 1.299 . S
O33 Zn21 1.898 . S
O33 C28 1.167 . S
O34 Zn23 2.120 . S
O34 C28 1.299 . S
O35 Zn23 2.114 . S
O35 C37 1.166 . S
O36 Zn21 1.905 . S
O36 C37 1.182 . S
C37 O35 1.166 . S
C37 O36 1.182 . S
O38 Zn23 2.080 . S
O38 C41 1.305 . S
O39 Zn22 1.920 . S
O39 C41 1.234 . S
C40 O26 1.305 . S
C40 O27 1.234 . S
C41 O38 1.305 . S
C41 O39 1.234 . S
H42 C47 0.930 1_565 S
H43 C50 0.930 . S
H44 C52 0.930 . S
H45 C46 1.015 . S
C46 H45 1.015 . S
C46 N53 1.286 . S
C47 H42 0.930 1_545 S
C47 C48 1.397 1_545 S
C47 C49 1.361 . S
C48 C47 1.397 1_565 S
C48 C52 1.390 . S
C49 C47 1.361 . S
C49 C50 1.393 . S
C49 N53 1.413 . S
C50 H43 0.930 . S
C50 C49 1.393 . S
C50 C51 1.399 . S
C51 C50 1.399 . S
C51 C52 1.381 1_545 S
C52 H44 0.930 . S
C52 C48 1.390 . S
C52 C51 1.381 1_565 S
N53 C46 1.286 . S
N53 C49 1.413 . S
H54 C59 0.931 . S
H55 C62 0.930 . S
H56 C64 0.930 . S
H57 C58 1.016 . S
C58 H57 1.016 . S
C58 N65 1.286 . S
C59 H54 0.931 . S
C59 C60 1.400 . S
C59 C61 1.356 1_665 S
C60 C59 1.400 . S
C60 C64 1.390 . S
C61 C59 1.356 1_445 S
C61 C62 1.393 . S
C61 N65 1.413 . S
C62 H55 0.930 . S
C62 C61 1.393 . S
C62 C63 1.399 1_455 S
C63 C62 1.399 1_655 S
C63 C64 1.381 1_545 S
C64 H56 0.930 . S
C64 C60 1.390 . S
C64 C63 1.381 1_565 S
N65 C58 1.286 . S
N65 C61 1.413 . S
H66 C71 0.930 . S
H67 C74 0.930 . S
H68 C76 0.930 . S
H69 C70 1.016 . S
C70 H69 1.016 . S
C70 N77 1.286 . S
C71 H66 0.930 . S
C71 C72 1.397 . S
C71 C73 1.361 . S
C72 C71 1.397 . S
C72 C76 1.390 . S
C73 C71 1.361 . S
C73 C74 1.393 . S
C73 N77 1.413 . S
C74 H67 0.930 . S
C74 C73 1.393 . S
C74 C75 1.399 . S
C75 C74 1.399 . S
C75 C76 1.381 . S
C76 H68 0.930 . S
C76 C72 1.390 . S
C76 C75 1.381 . S
N77 C70 1.286 . S
N77 C73 1.413 . S
H78 C83 0.930 . S
H79 C86 0.930 . S
H80 C88 0.930 . S
H81 C82 1.016 . S
C82 H81 1.016 . S
C82 N89 1.286 . S
C83 H78 0.930 . S
C83 C84 1.397 . S
C83 C85 1.361 . S
C84 C83 1.397 . S
C84 C88 1.390 . S
C85 C83 1.361 . S
C85 C86 1.393 . S
C85 N89 1.413 . S
C86 H79 0.930 . S
C86 C85 1.393 . S
C86 C87 1.399 . S
C87 C86 1.399 . S
C87 C88 1.381 . S
C88 H80 0.930 . S
C88 C84 1.390 . S
C88 C87 1.381 . S
N89 C82 1.286 . S
N89 C85 1.413 . S
H90 C102 0.930 . S
H91 C104 0.930 . S
H92 C105 0.930 . S
H93 C109 0.959 . S
H94 C109 0.959 . S
H95 C109 0.961 . S
H96 C110 0.960 . S
H97 C110 0.961 . S
H98 C110 0.959 . S
H99 C113 0.929 1_556 S
H100 C114 0.931 . S
H101 C116 0.930 . S
C102 H90 0.930 . S
C102 C103 1.399 . S
C102 C107 1.399 . S
C103 C102 1.399 . S
C103 C104 1.376 1_554 S
C104 H91 0.930 . S
C104 C103 1.376 1_556 S
C104 C105 1.388 . S
C105 H92 0.930 . S
C105 C104 1.388 . S
C105 C106 1.390 1_556 S
C106 C105 1.390 1_554 S
C106 C107 1.394 . S
C106 C112 1.465 . S
C107 C102 1.399 . S
C107 C106 1.394 . S
C107 C108 1.516 . S
C108 C107 1.516 . S
C108 C109 1.502 . S
C108 C110 1.561 . S
C108 C111 1.526 . S
C109 H93 0.959 . S
C109 H94 0.959 . S
C109 H95 0.961 . S
C109 C108 1.502 . S
C110 H96 0.960 . S
C110 H97 0.961 . S
C110 H98 0.959 . S
C110 C108 1.561 . S
C111 C108 1.526 . S
C111 C112 1.396 . S
C111 C116 1.390 . S
C112 C106 1.465 . S
C112 C111 1.396 . S
C112 C113 1.399 . S
C113 H99 0.929 1_554 S
C113 C112 1.399 . S
C113 C114 1.385 . S
C114 H100 0.931 . S
C114 C113 1.385 . S
C114 C115 1.389 . S
C115 C114 1.389 . S
C115 C116 1.387 . S
C116 H101 0.930 . S
C116 C111 1.390 . S
C116 C115 1.387 . S
H117 C129 0.930 . S
H118 C131 0.930 . S
H119 C132 0.930 . S
H120 C136 0.959 . S
H121 C136 0.959 . S
H122 C136 0.961 . S
H123 C137 0.960 . S
H124 C137 0.961 . S
H125 C137 0.959 . S
H126 C140 0.929 . S
H127 C141 0.931 . S
H128 C143 0.930 . S
C129 H117 0.930 . S
C129 C130 1.399 1_556 S
C129 C134 1.399 . S
C130 C129 1.399 1_554 S
C130 C131 1.376 . S
C131 H118 0.930 . S
C131 C130 1.376 . S
C131 C132 1.388 . S
C132 H119 0.930 . S
C132 C131 1.388 . S
C132 C133 1.390 . S
C133 C132 1.390 . S
C133 C134 1.394 1_554 S
C133 C139 1.465 1_554 S
C134 C129 1.399 . S
C134 C133 1.394 1_556 S
C134 C135 1.516 . S
C135 C134 1.516 . S
C135 C136 1.502 . S
C135 C137 1.561 . S
C135 C138 1.526 . S
C136 H120 0.959 . S
C136 H121 0.959 . S
C136 H122 0.961 . S
C136 C135 1.502 . S
C137 H123 0.960 . S
C137 H124 0.961 . S
C137 H125 0.959 . S
C137 C135 1.561 . S
C138 C135 1.526 . S
C138 C139 1.396 . S
C138 C143 1.390 . S
C139 C133 1.465 1_556 S
C139 C138 1.396 . S
C139 C140 1.399 1_556 S
C140 H126 0.929 . S
C140 C139 1.399 1_554 S
C140 C141 1.385 . S
C141 H127 0.931 . S
C141 C140 1.385 . S
C141 C142 1.389 1_554 S
C142 C141 1.389 1_556 S
C142 C143 1.387 . S
C143 H128 0.930 . S
C143 C138 1.390 . S
C143 C142 1.387 . S
H144 C156 0.930 1_556 S
H145 C158 0.930 . S
H146 C159 0.930 . S
H147 C163 0.959 . S
H148 C163 0.959 . S
H149 C163 0.961 . S
H150 C164 0.960 . S
H151 C164 0.961 . S
H152 C164 0.959 1_554 S
H153 C167 0.929 . S
H154 C168 0.931 . S
H155 C170 0.930 . S
C156 H144 0.930 1_554 S
C156 C157 1.399 . S
C156 C161 1.399 . S
C157 C156 1.399 . S
C157 C158 1.376 . S
C158 H145 0.930 . S
C158 C157 1.376 . S
C158 C159 1.388 . S
C159 H146 0.930 . S
C159 C158 1.388 . S
C159 C160 1.390 . S
C160 C159 1.390 . S
C160 C161 1.394 . S
C160 C166 1.465 . S
C161 C156 1.399 . S
C161 C160 1.394 . S
C161 C162 1.511 1_554 S
C162 C161 1.511 1_556 S
C162 C163 1.514 . S
C162 C164 1.566 . S
C162 C165 1.513 1_556 S
C163 H147 0.959 . S
C163 H148 0.959 . S
C163 H149 0.961 . S
C163 C162 1.514 . S
C164 H150 0.960 . S
C164 H151 0.961 . S
C164 H152 0.959 1_556 S
C164 C162 1.566 . S
C165 C162 1.513 1_554 S
C165 C166 1.396 . S
C165 C170 1.390 . S
C166 C160 1.465 . S
C166 C165 1.396 . S
C166 C167 1.399 . S
C167 H153 0.929 . S
C167 C166 1.399 . S
C167 C168 1.385 . S
C168 H154 0.931 . S
C168 C167 1.385 . S
C168 C169 1.389 . S
C169 C168 1.389 . S
C169 C170 1.387 . S
C170 H155 0.930 . S
C170 C165 1.390 . S
C170 C169 1.387 . S
H171 C183 0.930 . S
H172 C185 0.930 . S
H173 C186 0.930 . S
H174 C190 0.959 . S
H175 C190 0.959 . S
H176 C190 0.961 . S
H177 C191 0.960 . S
H178 C191 0.961 . S
H179 C191 0.959 . S
H180 C194 0.929 1_554 S
H181 C195 0.931 . S
H182 C197 0.930 . S
C183 H171 0.930 . S
C183 C184 1.399 . S
C183 C188 1.399 . S
C184 C183 1.399 . S
C184 C185 1.376 1_556 S
C185 H172 0.930 . S
C185 C184 1.376 1_554 S
C185 C186 1.388 . S
C186 H173 0.930 . S
C186 C185 1.388 . S
C186 C187 1.390 1_554 S
C187 C186 1.390 1_556 S
C187 C188 1.394 . S
C187 C193 1.465 . S
C188 C183 1.399 . S
C188 C187 1.394 . S
C188 C189 1.516 . S
C189 C188 1.516 . S
C189 C190 1.502 . S
C189 C191 1.561 . S
C189 C192 1.526 . S
C190 H174 0.959 . S
C190 H175 0.959 . S
C190 H176 0.961 . S
C190 C189 1.502 . S
C191 H177 0.960 . S
C191 H178 0.961 . S
C191 H179 0.959 . S
C191 C189 1.561 . S
C192 C189 1.526 . S
C192 C193 1.396 . S
C192 C197 1.390 . S
C193 C187 1.465 . S
C193 C192 1.396 . S
C193 C194 1.399 . S
C194 H180 0.929 1_556 S
C194 C193 1.399 . S
C194 C195 1.385 . S
C195 H181 0.931 . S
C195 C194 1.385 . S
C195 C196 1.389 . S
C196 C195 1.389 . S
C196 C197 1.387 . S
C197 H182 0.930 . S
C197 C192 1.390 . S
C197 C196 1.387 . S
H198 C210 0.930 . S
H199 C212 0.930 . S
H200 C213 0.930 . S
H201 C217 0.959 . S
H202 C217 0.959 . S
H203 C217 0.961 . S
H204 C218 0.960 . S
H205 C218 0.961 . S
H206 C218 0.959 . S
H207 C221 0.929 . S
H208 C222 0.931 . S
H209 C224 0.930 . S
C210 H198 0.930 . S
C210 C211 1.399 . S
C210 C215 1.399 . S
C211 C210 1.399 . S
C211 C212 1.376 . S
C212 H199 0.930 . S
C212 C211 1.376 . S
C212 C213 1.388 . S
C213 H200 0.930 . S
C213 C212 1.388 . S
C213 C214 1.390 . S
C214 C213 1.390 . S
C214 C215 1.394 . S
C214 C220 1.465 . S
C215 C210 1.399 . S
C215 C214 1.394 . S
C215 C216 1.516 . S
C216 C215 1.516 . S
C216 C217 1.502 . S
C216 C218 1.561 . S
C216 C219 1.526 . S
C217 H201 0.959 . S
C217 H202 0.959 . S
C217 H203 0.961 . S
C217 C216 1.502 . S
C218 H204 0.960 . S
C218 H205 0.961 . S
C218 H206 0.959 . S
C218 C216 1.561 . S
C219 C216 1.526 . S
C219 C220 1.396 . S
C219 C224 1.390 . S
C220 C214 1.465 . S
C220 C219 1.396 . S
C220 C221 1.399 . S
C221 H207 0.929 . S
C221 C220 1.399 . S
C221 C222 1.385 . S
C222 H208 0.931 . S
C222 C221 1.385 . S
C222 C223 1.389 . S
C223 C222 1.389 . S
C223 C224 1.387 . S
C224 H209 0.930 . S
C224 C219 1.390 . S
C224 C223 1.387 . S
H225 C237 0.930 . S
H226 C239 0.930 . S
H227 C240 0.930 . S
H228 C244 0.959 . S
H229 C244 0.959 . S
H230 C244 0.961 . S
H231 C245 0.960 . S
H232 C245 0.961 . S
H233 C245 0.959 . S
H234 C248 0.929 . S
H235 C249 0.931 . S
H236 C251 0.930 . S
C237 H225 0.930 . S
C237 C238 1.399 . S
C237 C242 1.399 . S
C238 C237 1.399 . S
C238 C239 1.376 . S
C239 H226 0.930 . S
C239 C238 1.376 . S
C239 C240 1.388 . S
C240 H227 0.930 . S
C240 C239 1.388 . S
C240 C241 1.390 . S
C241 C240 1.390 . S
C241 C242 1.394 . S
C241 C247 1.465 . S
C242 C237 1.399 . S
C242 C241 1.394 . S
C242 C243 1.516 . S
C243 C242 1.516 . S
C243 C244 1.502 . S
C243 C245 1.561 . S
C243 C246 1.526 . S
C244 H228 0.959 . S
C244 H229 0.959 . S
C244 H230 0.961 . S
C244 C243 1.502 . S
C245 H231 0.960 . S
C245 H232 0.961 . S
C245 H233 0.959 . S
C245 C243 1.561 . S
C246 C243 1.526 . S
C246 C247 1.396 . S
C246 C251 1.390 . S
C247 C241 1.465 . S
C247 C246 1.396 . S
C247 C248 1.399 . S
C248 H234 0.929 . S
C248 C247 1.399 . S
C248 C249 1.385 . S
C249 H235 0.931 . S
C249 C248 1.385 . S
C249 C250 1.389 . S
C250 C249 1.389 . S
C250 C251 1.387 . S
C251 H236 0.930 . S
C251 C246 1.390 . S
C251 C250 1.387 . S
H252 C264 0.930 . S
H253 C266 0.930 . S
H254 C267 0.930 . S
H255 C271 0.959 . S
H256 C271 0.959 . S
H257 C271 0.961 . S
H258 C272 0.960 . S
H259 C272 0.961 . S
H260 C272 0.959 . S
H261 C275 0.929 . S
H262 C276 0.931 . S
H263 C278 0.930 . S
C264 H252 0.930 . S
C264 C265 1.399 . S
C264 C269 1.399 . S
C265 C264 1.399 . S
C265 C266 1.376 . S
C266 H253 0.930 . S
C266 C265 1.376 . S
C266 C267 1.388 . S
C267 H254 0.930 . S
C267 C266 1.388 . S
C267 C268 1.390 . S
C268 C267 1.390 . S
C268 C269 1.394 . S
C268 C274 1.465 . S
C269 C264 1.399 . S
C269 C268 1.394 . S
C269 C270 1.516 . S
C270 C269 1.516 . S
C270 C271 1.502 . S
C270 C272 1.561 . S
C270 C273 1.526 . S
C271 H255 0.959 . S
C271 H256 0.959 . S
C271 H257 0.961 . S
C271 C270 1.502 . S
C272 H258 0.960 . S
C272 H259 0.961 . S
C272 H260 0.959 . S
C272 C270 1.561 . S
C273 C270 1.526 . S
C273 C274 1.396 . S
C273 C278 1.390 . S
C274 C268 1.465 . S
C274 C273 1.396 . S
C274 C275 1.399 . S
C275 H261 0.929 . S
C275 C274 1.399 . S
C275 C276 1.385 . S
C276 H262 0.931 . S
C276 C275 1.385 . S
C276 C277 1.389 . S
C277 C276 1.389 . S
C277 C278 1.387 . S
C278 H263 0.930 . S
C278 C273 1.390 . S
C278 C277 1.387 . S
H279 C291 0.930 . S
H280 C293 0.930 . S
H281 C294 0.930 . S
H282 C298 0.959 . S
H283 C298 0.959 . S
H284 C298 0.961 . S
H285 C299 0.960 . S
H286 C299 0.961 . S
H287 C299 0.959 . S
H288 C302 0.929 . S
H289 C303 0.931 . S
H290 C305 0.930 . S
C291 H279 0.930 . S
C291 C292 1.399 . S
C291 C296 1.399 . S
C292 C291 1.399 . S
C292 C293 1.376 . S
C293 H280 0.930 . S
C293 C292 1.376 . S
C293 C294 1.388 . S
C294 H281 0.930 . S
C294 C293 1.388 . S
C294 C295 1.390 . S
C295 C294 1.390 . S
C295 C296 1.394 . S
C295 C301 1.465 . S
C296 C291 1.399 . S
C296 C295 1.394 . S
C296 C297 1.516 . S
C297 C296 1.516 . S
C297 C298 1.502 . S
C297 C299 1.561 . S
C297 C300 1.526 . S
C298 H282 0.959 . S
C298 H283 0.959 . S
C298 H284 0.961 . S
C298 C297 1.502 . S
C299 H285 0.960 . S
C299 H286 0.961 . S
C299 H287 0.959 . S
C299 C297 1.561 . S
C300 C297 1.526 . S
C300 C301 1.396 . S
C300 C305 1.390 . S
C301 C295 1.465 . S
C301 C300 1.396 . S
C301 C302 1.399 . S
C302 H288 0.929 . S
C302 C301 1.399 . S
C302 C303 1.385 . S
C303 H289 0.931 . S
C303 C302 1.385 . S
C303 C304 1.389 . S
C304 C303 1.389 . S
C304 C305 1.387 . S
C305 H290 0.930 . S
C305 C300 1.390 . S
C305 C304 1.387 . S
H306 C318 0.930 1_655 S
H307 C320 0.930 . S
H308 C321 0.930 . S
H309 C325 0.959 . S
H310 C325 0.959 . S
H311 C325 0.961 . S
H312 C326 0.960 . S
H313 C326 0.961 . S
H314 C326 0.959 1_455 S
H315 C329 0.929 . S
H316 C330 0.931 . S
H317 C332 0.930 . S
C318 H306 0.930 1_455 S
C318 C319 1.399 . S
C318 C323 1.399 . S
C319 C318 1.399 . S
C319 C320 1.376 . S
C320 H307 0.930 . S
C320 C319 1.376 . S
C320 C321 1.388 1_565 S
C321 H308 0.930 . S
C321 C320 1.388 1_545 S
C321 C322 1.390 . S
C322 C321 1.390 . S
C322 C323 1.394 1_545 S
C322 C328 1.465 . S
C323 C318 1.399 . S
C323 C322 1.394 1_565 S
C323 C324 1.516 . S
C324 C323 1.516 . S
C324 C325 1.502 1_465 S
C324 C326 1.561 1_455 S
C324 C327 1.526 1_565 S
C325 H309 0.959 . S
C325 H310 0.959 . S
C325 H311 0.961 . S
C325 C324 1.502 1_645 S
C326 H312 0.960 . S
C326 H313 0.961 . S
C326 H314 0.959 1_655 S
C326 C324 1.561 1_655 S
C327 C324 1.526 1_545 S
C327 C328 1.396 . S
C327 C332 1.390 . S
C328 C322 1.465 . S
C328 C327 1.396 . S
C328 C329 1.399 . S
C329 H315 0.929 . S
C329 C328 1.399 . S
C329 C330 1.385 . S
C330 H316 0.931 . S
C330 C329 1.385 . S
C330 C331 1.389 . S
C331 C330 1.389 . S
C331 C332 1.387 . S
C332 H317 0.930 . S
C332 C327 1.390 . S
C332 C331 1.387 . S
H333 C345 0.930 1_655 S
H334 C347 0.930 . S
H335 C348 0.930 . S
H336 C352 0.959 . S
H337 C352 0.959 . S
H338 C352 0.961 . S
H339 C353 0.960 . S
H340 C353 0.961 . S
H341 C353 0.959 . S
H342 C356 0.929 . S
H343 C357 0.931 . S
H344 C359 0.930 . S
C345 H333 0.930 1_455 S
C345 C346 1.399 1_545 S
C345 C350 1.399 . S
C346 C345 1.399 1_565 S
C346 C347 1.376 . S
C347 H334 0.930 . S
C347 C346 1.376 . S
C347 C348 1.388 . S
C348 H335 0.930 . S
C348 C347 1.388 . S
C348 C349 1.390 . S
C349 C348 1.390 . S
C349 C350 1.394 1_565 S
C349 C355 1.465 . S
C350 C345 1.399 . S
C350 C349 1.394 1_545 S
C350 C351 1.516 1_455 S
C351 C350 1.516 1_655 S
C351 C352 1.502 . S
C351 C353 1.561 1_655 S
C351 C354 1.526 1_655 S
C352 H336 0.959 . S
C352 H337 0.959 . S
C352 H338 0.961 . S
C352 C351 1.502 . S
C353 H339 0.960 . S
C353 H340 0.961 . S
C353 H341 0.959 . S
C353 C351 1.561 1_455 S
C354 C351 1.526 1_455 S
C354 C355 1.396 1_545 S
C354 C359 1.390 1_455 S
C355 C349 1.465 . S
C355 C354 1.396 1_565 S
C355 C356 1.399 . S
C356 H342 0.929 . S
C356 C355 1.399 . S
C356 C357 1.385 . S
C357 H343 0.931 . S
C357 C356 1.385 . S
C357 C358 1.389 1_465 S
C358 C357 1.389 1_645 S
C358 C359 1.387 . S
C359 H344 0.930 . S
C359 C354 1.390 1_655 S
C359 C358 1.387 . S
H360 C372 0.930 . S
H361 C374 0.930 . S
H362 C375 0.930 . S
H363 C379 0.959 . S
H364 C379 0.959 . S
H365 C379 0.961 . S
H366 C380 0.960 . S
H367 C380 0.961 . S
H368 C380 0.959 . S
H369 C383 0.929 . S
H370 C384 0.931 . S
H371 C386 0.930 . S
C372 H360 0.930 . S
C372 C373 1.399 . S
C372 C377 1.399 . S
C373 C372 1.399 . S
C373 C374 1.376 . S
C374 H361 0.930 . S
C374 C373 1.376 . S
C374 C375 1.388 . S
C375 H362 0.930 . S
C375 C374 1.388 . S
C375 C376 1.390 . S
C376 C375 1.390 . S
C376 C377 1.394 . S
C376 C382 1.465 . S
C377 C372 1.399 . S
C377 C376 1.394 . S
C377 C378 1.516 . S
C378 C377 1.516 . S
C378 C379 1.502 . S
C378 C380 1.561 . S
C378 C381 1.526 . S
C379 H363 0.959 . S
C379 H364 0.959 . S
C379 H365 0.961 . S
C379 C378 1.502 . S
C380 H366 0.960 . S
C380 H367 0.961 . S
C380 H368 0.959 . S
C380 C378 1.561 . S
C381 C378 1.526 . S
C381 C382 1.396 . S
C381 C386 1.390 . S
C382 C376 1.465 . S
C382 C381 1.396 . S
C382 C383 1.399 . S
C383 H369 0.929 . S
C383 C382 1.399 . S
C383 C384 1.385 . S
C384 H370 0.931 . S
C384 C383 1.385 . S
C384 C385 1.389 . S
C385 C384 1.389 . S
C385 C386 1.387 . S
C386 H371 0.930 . S
C386 C381 1.390 . S
C386 C385 1.387 . S
H387 C399 0.930 . S
H388 C401 0.930 . S
H389 C402 0.930 . S
H390 C406 0.959 . S
H391 C406 0.959 . S
H392 C406 0.961 . S
H393 C407 0.960 . S
H394 C407 0.961 . S
H395 C407 0.959 . S
H396 C410 0.929 . S
H397 C411 0.931 . S
H398 C413 0.930 . S
C399 H387 0.930 . S
C399 C400 1.399 . S
C399 C404 1.399 . S
C400 C399 1.399 . S
C400 C401 1.376 . S
C401 H388 0.930 . S
C401 C400 1.376 . S
C401 C402 1.388 . S
C402 H389 0.930 . S
C402 C401 1.388 . S
C402 C403 1.390 . S
C403 C402 1.390 . S
C403 C404 1.394 . S
C403 C409 1.465 . S
C404 C399 1.399 . S
C404 C403 1.394 . S
C404 C405 1.516 . S
C405 C404 1.516 . S
C405 C406 1.502 . S
C405 C407 1.561 . S
C405 C408 1.526 . S
C406 H390 0.959 . S
C406 H391 0.959 . S
C406 H392 0.961 . S
C406 C405 1.502 . S
C407 H393 0.960 . S
C407 H394 0.961 . S
C407 H395 0.959 . S
C407 C405 1.561 . S
C408 C405 1.526 . S
C408 C409 1.396 . S
C408 C413 1.390 . S
C409 C403 1.465 . S
C409 C408 1.396 . S
C409 C410 1.399 . S
C410 H396 0.929 . S
C410 C409 1.399 . S
C410 C411 1.385 . S
C411 H397 0.931 . S
C411 C410 1.385 . S
C411 C412 1.389 . S
C412 C411 1.389 . S
C412 C413 1.387 . S
C413 H398 0.930 . S
C413 C408 1.390 . S
C413 C412 1.387 . S
C115 C84 1.342 . S
C103 C3 1.209 . S
C130 C4 1.379 . S
C142 C70 1.538 . S
C157 C19 1.501 . S
C169 C82 1.495 . S
C184 C7 1.177 . S
C196 C72 1.338 . S
C211 C37 1.231 . S
C223 C60 1.309 . S
C238 C28 1.484 . S
C250 C46 1.482 1_655 S
C277 C58 1.545 . S
C265 C41 1.438 . S
C304 C48 1.346 . S
C292 C25 1.196 . S
C319 C20 1.306 . S
C331 C51 1.487 . S
C346 C16 1.447 1_455 S
C358 C63 1.509 . S
C385 C75 1.501 . S
C373 C40 1.291 . S
C400 C24 1.344 . S
C412 C87 1.547 . S
