# Generated by pormake.
# Topology sit, (3,6)-cn, num edge types: 1
# Building blocks:
#     Node 0, Type 0, BuildingBlock: BETDAH_clean_linker_0, # of connection points: 3
#     Node 1, Type 0, BuildingBlock: BETDAH_clean_linker_0, # of connection points: 3
#     Node 2, Type 0, BuildingBlock: BETDAH_clean_linker_0, # of connection points: 3
#     Node 3, Type 0, BuildingBlock: BETDAH_clean_linker_0, # of connection points: 3
#     Node 4, Type 1, BuildingBlock: MIDCAF_clean_sbu_0, # of connection points: 6
#     Node 5, Type 1, BuildingBlock: MIDCAF_clean_sbu_0, # of connection points: 6
#     Edge 6, Type (0, 1), BuildingBlock: TEMPAE_clean_linker_10, # of connection points: 2
#     Edge 7, Type (0, 1), BuildingBlock: TEMPAE_clean_linker_10, # of connection points: 2
#     Edge 8, Type (0, 1), BuildingBlock: TEMPAE_clean_linker_10, # of connection points: 2
#     Edge 9, Type (0, 1), BuildingBlock: TEMPAE_clean_linker_10, # of connection points: 2
#     Edge 10, Type (0, 1), BuildingBlock: TEMPAE_clean_linker_10, # of connection points: 2
#     Edge 11, Type (0, 1), BuildingBlock: TEMPAE_clean_linker_10, # of connection points: 2
#     Edge 12, Type (0, 1), BuildingBlock: TEMPAE_clean_linker_10, # of connection points: 2
#     Edge 13, Type (0, 1), BuildingBlock: TEMPAE_clean_linker_10, # of connection points: 2
#     Edge 14, Type (0, 1), BuildingBlock: TEMPAE_clean_linker_10, # of connection points: 2
#     Edge 15, Type (0, 1), BuildingBlock: TEMPAE_clean_linker_10, # of connection points: 2
#     Edge 16, Type (0, 1), BuildingBlock: TEMPAE_clean_linker_10, # of connection points: 2
#     Edge 17, Type (0, 1), BuildingBlock: TEMPAE_clean_linker_10, # of connection points: 2
# Relax obj value: 0.072
# Max RMSD: 0.181
# Mean RMSD: 0.109
data_MOF--net-sit--node1-MIDCAF_clean_sbu_0--node2-BETDAH_clean_linker_0--edge1-TEMPAE_clean_linker_10
_symmetry_space_group_name_H-M    P1
_symmetry_Int_Tables_number       1
_symmetry_cell_setting            triclinic
loop_
_symmetry_equiv_pos_as_xyz
'x, y, z'
_cell_length_a     21.506202
_cell_length_b     32.905015
_cell_length_c     37.639221
_cell_angle_alpha  90.438144
_cell_angle_beta   86.906321
_cell_angle_gamma 84.016118
loop_
_atom_site_label
_atom_site_type_symbol
_atom_site_fract_x
_atom_site_fract_y
_atom_site_fract_z
_atom_type_partial_charge
H0 H 0.12565 0.3828 0.99173 0.0
H1 H 0.22182 0.26219 0.98728 0.0
H2 H 0.02828 0.27979 0.02436 0.0
C3 C 0.12551 0.35064 -0.00228 0.0
C4 C 0.06962 0.33504 0.00947 0.0
C5 C 0.18044 0.32477 0.99004 0.0
C6 C 0.1799 0.28257 0.99413 0.0
C7 C 0.12577 0.26635 0.00737 0.0
C8 C 0.0707 0.29263 0.01544 0.0
N9 N 0.12698 0.22325 0.00941 0.0
C10 C 0.09651 0.20326 0.03649 0.0
H11 H 0.05321 0.64029 0.01063 0.0
H12 H 0.16645 0.7403 0.9974 0.0
H13 H 0.97217 0.76403 0.02952 0.0
C14 C 0.05891 0.67252 0.0126 0.0
C15 C 0.00591 0.70033 0.02055 0.0
C16 C 0.1173 0.68618 0.00345 0.0
C17 C 0.12287 0.72841 0.00552 0.0
C18 C 0.07174 0.7562 0.0168 0.0
C19 C 0.0129 0.7422 0.0239 0.0
N20 N 0.07919 0.79849 0.0169 0.0
C21 C 0.0578 0.82443 0.04524 0.0
H22 H 0.54648 0.91927 0.49741 0.0
H23 H 0.60943 0.80898 0.5506 0.0
H24 H 0.41246 0.84155 0.54034 0.0
C25 C 0.53512 0.89303 0.51276 0.0
C26 C 0.47273 0.88447 0.51755 0.0
C27 C 0.58419 0.86633 0.52497 0.0
C28 C 0.57122 0.8303 0.54238 0.0
C29 C 0.50876 0.82153 0.54791 0.0
C30 C 0.46021 0.8488 0.53581 0.0
N31 N 0.49255 0.78474 0.56368 0.0
C32 C 0.5318 0.75807 0.58298 0.0
H33 H 0.46857 0.15483 0.50129 0.0
H34 H 0.5664 0.25044 0.54454 0.0
H35 H 0.37343 0.27445 0.51946 0.0
C36 C 0.46889 0.18545 0.51204 0.0
C37 C 0.41443 0.21239 0.51073 0.0
C38 C 0.52465 0.19864 0.52363 0.0
C39 C 0.52401 0.23954 0.53562 0.0
C40 C 0.46919 0.26692 0.53411 0.0
C41 C 0.41513 0.25317 0.52128 0.0
N42 N 0.46726 0.30906 0.54297 0.0
C43 C 0.50817 0.32603 0.56472 0.0
Zn44 Zn 0.96005 0.1095 0.34402 0.0
Zn45 Zn 0.04887 0.95875 0.3417 0.0
Zn46 Zn 0.00533 0.0343 0.34256 0.0
C47 C 0.01392 0.97569 0.27335 0.0
C48 C 0.94584 0.96553 0.3893 0.0
O49 O 0.07229 0.06854 0.3691 0.0
O50 O 0.0173 0.12852 0.37903 0.0
C51 C -0.00553 0.09124 0.27338 0.0
O52 O 0.00943 1.01238 0.28623 0.0
O53 O 0.02617 0.94546 0.29312 0.0
O54 O -0.00548 0.94139 0.38209 0.0
O55 O 0.93919 1.00094 0.37475 0.0
O56 O 0.97923 0.12164 0.29379 0.0
O57 O 0.00151 0.05489 0.28619 0.0
O58 O 0.91472 0.04255 0.3745 0.0
O59 O 0.87273 0.10423 0.36086 0.0
C60 C 0.86882 0.07108 0.37701 0.0
O61 O 0.09659 0.0268 0.36767 0.0
O62 O 0.13748 0.96477 0.35093 0.0
C63 C 0.06635 0.10473 0.38297 0.0
C64 C 0.1425 0.99826 0.3665 0.0
Zn65 Zn 0.59929 0.59057 0.84616 0.0
Zn66 Zn 0.66985 0.44116 0.83862 0.0
Zn67 Zn 0.62513 0.51745 0.84342 0.0
C68 C 0.65582 0.46518 0.76944 0.0
C69 C 0.54866 0.44782 0.87463 0.0
O70 O 0.68775 0.54559 0.87964 0.0
O71 O 0.63369 0.60527 0.89156 0.0
C72 C 0.64416 0.57862 0.77869 0.0
O73 O 0.63762 0.49929 0.78588 0.0
O74 O 0.67404 0.43388 0.7867 0.0
O75 O 0.59632 0.42286 0.86684 0.0
O76 O 0.54861 0.48576 0.86663 0.0
O77 O 0.64277 0.6068 0.80167 0.0
O78 O 0.63241 0.54258 0.78847 0.0
O79 O 0.52887 0.52875 0.86714 0.0
O80 O 0.50719 0.59122 0.84743 0.0
C81 C 0.48941 0.56037 0.86314 0.0
O82 O 0.70888 0.50421 0.87581 0.0
O83 O 0.74896 0.44099 0.86225 0.0
C84 C 0.67874 0.57922 0.89794 0.0
C85 C 0.75126 0.47393 0.87916 0.0
C86 C 0.01756 0.19087 0.08414 0.0
C87 C 0.0746 0.17918 0.0655 0.0
C88 C 0.00011 0.17008 0.11502 0.0
C89 C 0.04124 0.13738 0.12747 0.0
C90 C 0.09719 0.1241 0.10723 0.0
C91 C 0.11321 0.14527 0.07641 0.0
C92 C 0.93978 0.18493 0.13562 0.0
C93 C 0.14232 0.0895 0.1195 0.0
C94 C 0.04433 0.13224 0.22765 0.0
C95 C 0.0099 0.09933 0.23564 0.0
C96 C 0.05591 0.14402 0.19254 0.0
C97 C 0.03183 0.12262 0.16448 0.0
C98 C -0.0017 0.08851 0.17224 0.0
C99 C -0.01242 0.07726 0.20795 0.0
C100 C 0.09297 0.18004 0.18561 0.0
C101 C 0.97192 0.06492 0.14309 0.0
H102 H -0.01221 0.21711 0.07538 0.0
H103 H 0.15729 0.13632 0.06164 0.0
H104 H 0.91397 0.15874 0.1438 0.0
H105 H 0.95047 0.20106 0.1602 0.0
H106 H 0.90894 0.20627 0.11991 0.0
H107 H 0.17949 0.07957 0.09868 0.0
H108 H 0.16493 0.0994 0.14346 0.0
H109 H 0.11702 0.06294 0.12708 0.0
H110 H 0.06187 0.14917 0.24915 0.0
H111 H 0.95988 0.05233 0.21426 0.0
H112 H 0.06325 0.20498 0.17315 0.0
H113 H 0.13364 0.17104 0.16678 0.0
H114 H 0.1105 0.19224 0.21035 0.0
H115 H 0.93285 0.08426 0.13158 0.0
H116 H 0.95403 0.03638 0.15305 0.0
H117 H 0.00798 0.05694 0.12128 0.0
C118 C 0.00509 0.88792 0.07337 0.0
C119 C 0.04423 0.85141 0.07566 0.0
C120 C -0.00568 0.91496 0.10275 0.0
C121 C 0.02406 0.90513 0.13474 0.0
C122 C 0.06411 0.86823 0.13674 0.0
C123 C 0.07359 0.84179 0.10712 0.0
C124 C 0.95168 0.95402 0.09946 0.0
C125 C 0.0968 0.85651 0.17028 0.0
C126 C 0.04881 0.97895 0.20936 0.0
C127 C 0.00585 0.96729 0.23558 0.0
C128 C 0.05213 0.96138 0.17502 0.0
C129 C 0.01136 0.93173 0.16707 0.0
C130 C 0.96429 0.92282 0.19272 0.0
C131 C 0.96261 0.9404 0.22681 0.0
C132 C 0.10225 0.97214 0.1482 0.0
C133 C 0.91916 0.89202 0.1852 0.0
H134 H -0.01683 0.89537 0.04863 0.0
H135 H 0.10437 0.81361 0.10849 0.0
H136 H 0.91767 0.95853 0.12275 0.0
H137 H 0.98 0.98032 0.09891 0.0
H138 H 0.92545 0.95437 0.07482 0.0
H139 H 0.12803 0.82748 0.16702 0.0
H140 H 0.12515 0.88105 0.1782 0.0
H141 H 0.06158 0.85296 0.19239 0.0
H142 H 0.08256 0.99952 0.21642 0.0
H143 H 0.92962 0.93133 0.24732 0.0
H144 H 0.08081 0.98271 0.12331 0.0
H145 H 0.13525 0.94463 0.14139 0.0
H146 H 0.12926 0.99638 0.1583 0.0
H147 H 0.89901 0.89772 0.15896 0.0
H148 H 0.88029 0.89277 0.20595 0.0
H149 H 0.94455 0.86085 0.18422 0.0
C150 C 0.5437 0.73139 0.64279 0.0
C151 C 0.56162 0.72872 0.6066 0.0
C152 C 0.56614 0.70115 0.66627 0.0
C153 C 0.6078 0.66747 0.65313 0.0
C154 C 0.62704 0.66513 0.61648 0.0
C155 C 0.60328 0.69585 0.59348 0.0
C156 C 0.54424 0.70496 0.7051 0.0
C157 C 0.67157 0.62992 0.60156 0.0
C158 C 0.6899 0.61901 0.7305 0.0
C159 C 0.64912 0.59022 0.74097 0.0
C160 C 0.68148 0.64138 0.69923 0.0
C161 C 0.63037 0.63521 0.67836 0.0
C162 C 0.59342 0.60297 0.6868 0.0
C163 C 0.60324 0.58084 0.71816 0.0
C164 C 0.72298 0.67471 0.69086 0.0
C165 C 0.53875 0.59499 0.66521 0.0
H166 H 0.51086 0.75676 0.65263 0.0
H167 H 0.61636 0.69381 0.56524 0.0
H168 H 0.52013 0.67797 0.7131 0.0
H169 H 0.58503 0.70573 0.72183 0.0
H170 H 0.51161 0.73295 0.71091 0.0
H171 H 0.68554 0.63416 0.57309 0.0
H172 H 0.71432 0.62622 0.61696 0.0
H173 H 0.64918 0.60112 0.60406 0.0
H174 H 0.72543 0.6263 0.74821 0.0
H175 H 0.57066 0.55945 0.72664 0.0
H176 H 0.69787 0.70467 0.69936 0.0
H177 H 0.73451 0.67603 0.66184 0.0
H178 H 0.76724 0.67023 0.70493 0.0
H179 H 0.49863 0.6181 0.67246 0.0
H180 H 0.52374 0.56417 0.67036 0.0
H181 H 0.55047 0.59767 0.63633 0.0
C182 C 0.54075 0.33716 0.62504 0.0
C183 C 0.5415 0.34825 0.58934 0.0
C184 C 0.56527 0.36147 0.65051 0.0
C185 C 0.59107 0.39772 0.63981 0.0
C186 C 0.59342 0.40835 0.60341 0.0
C187 C 0.56818 0.38346 0.57851 0.0
C188 C 0.56185 0.34894 0.68904 0.0
C189 C 0.62093 0.44649 0.59097 0.0
C190 C 0.58844 0.47108 0.71788 0.0
C191 C 0.647 0.45942 0.73126 0.0
C192 C 0.57141 0.45402 0.68595 0.0
C193 C 0.61399 0.42449 0.66729 0.0
C194 C 0.6754 0.41586 0.67892 0.0
C195 C 0.69103 0.43326 0.71095 0.0
C196 C 0.50563 0.46436 0.67435 0.0
C197 C 0.72259 0.38513 0.65957 0.0
H198 H 0.51929 0.31006 0.63321 0.0
H199 H 0.56785 0.39207 0.55076 0.0
H200 H 0.60936 0.34581 0.69947 0.0
H201 H 0.5329 0.37292 0.70524 0.0
H202 H 0.54137 0.31954 0.69279 0.0
H203 H 0.62374 0.4487 0.56151 0.0
H204 H 0.59173 0.47386 0.60217 0.0
H205 H 0.66855 0.4472 0.60076 0.0
H206 H 0.55371 0.49025 0.73408 0.0
H207 H 0.73624 0.42403 0.72147 0.0
H208 H 0.47797 0.4383 0.68013 0.0
H209 H 0.50584 0.46956 0.64527 0.0
H210 H 0.48173 0.49196 0.68839 0.0
H211 H 0.7103 0.35382 0.6653 0.0
H212 H 0.77083 0.38742 0.66802 0.0
H213 H 0.72202 0.38933 0.63038 0.0
C214 C 0.25916 0.37501 0.99281 0.0
C215 C 0.23674 0.34227 0.97527 0.0
C216 C 0.30993 0.39386 0.97813 0.0
C217 C 0.33768 0.38034 0.94455 0.0
C218 C 0.31512 0.34718 0.92675 0.0
C219 C 0.26521 0.32826 0.94252 0.0
C220 C 0.33194 0.4289 -0.00159 0.0
C221 C 0.34322 0.33203 0.89083 0.0
C222 C 0.43307 0.44925 0.88797 0.0
C223 C 0.49422 0.43258 0.89374 0.0
C224 C 0.38143 0.43354 0.90535 0.0
C225 C 0.39148 0.39982 0.92828 0.0
C226 C 0.45324 0.38344 0.93465 0.0
C227 C 0.50383 0.39991 0.91719 0.0
C228 C 0.31623 0.45261 0.89884 0.0
C229 C 0.46583 0.34846 0.9599 0.0
H230 H 0.23679 0.38594 0.01811 0.0
H231 H 0.24713 0.30331 0.92876 0.0
H232 H 0.3824 0.43187 0.99275 0.0
H233 H 0.30465 0.45761 0.9907 0.0
H234 H 0.32345 0.42543 0.02755 0.0
H235 H 0.31947 0.30647 0.88022 0.0
H236 H 0.33999 0.35739 0.87152 0.0
H237 H 0.39361 0.32147 0.89279 0.0
H238 H 0.4256 0.47397 0.86933 0.0
H239 H 0.55118 0.38717 0.92191 0.0
H240 H 0.29106 0.46217 0.92454 0.0
H241 H 0.28955 0.42976 0.88629 0.0
H242 H 0.31651 0.47972 0.88143 0.0
H243 H 0.44299 0.35674 0.9865 0.0
H244 H 0.51667 0.34019 0.9629 0.0
H245 H 0.44533 0.32115 0.95017 0.0
C246 C 0.90717 0.70351 0.98944 0.0
C247 C 0.94374 0.68598 0.01613 0.0
C248 C 0.85922 0.68329 0.97593 0.0
C249 C 0.84679 0.64495 0.98996 0.0
C250 C 0.87966 0.6289 0.01918 0.0
C251 C 0.92817 0.64958 0.03185 0.0
C252 C 0.82566 0.70134 0.94452 0.0
C253 C 0.86549 0.58911 0.0359 0.0
C254 C 0.69793 0.61238 0.95527 0.0
C255 C 0.72146 0.58886 0.92536 0.0
C256 C 0.73839 0.62789 0.97871 0.0
C257 C 0.80377 0.62044 0.97146 0.0
C258 C 0.82765 0.5941 0.94278 0.0
C259 C 0.78602 0.57859 0.92 0.0
C260 C 0.7111 0.65445 0.00976 0.0
C261 C 0.89719 0.58479 0.9345 0.0
H262 H 0.91969 0.73128 0.97687 0.0
H263 H 0.95639 0.63612 0.05261 0.0
H264 H 0.83745 0.68118 0.92081 0.0
H265 H 0.77425 0.70331 0.94993 0.0
H266 H 0.83859 0.73235 0.93801 0.0
H267 H 0.89936 0.57875 0.05606 0.0
H268 H 0.81775 0.59297 0.049 0.0
H269 H 0.86593 0.5648 0.0153 0.0
H270 H 0.64778 0.61986 0.95966 0.0
H271 H 0.80417 0.56071 0.89671 0.0
H272 H 0.71524 0.68699 0.00355 0.0
H273 H 0.73715 0.64712 0.03394 0.0
H274 H 0.66083 0.6508 0.01569 0.0
H275 H 0.91696 0.61297 0.92526 0.0
H276 H 0.90796 0.56071 0.91356 0.0
H277 H 0.92114 0.5746 0.95875 0.0
C278 C 0.958 0.34822 0.99336 0.0
C279 C 0.0098 0.36239 0.00871 0.0
C280 C 0.90989 0.37567 0.98104 0.0
C281 C 0.9145 0.41826 0.98335 0.0
C282 C 0.96199 0.43271 0.00303 0.0
C283 C 0.00857 0.4045 0.01608 0.0
C284 C 0.85809 0.35895 0.96175 0.0
C285 C 0.96765 0.47782 0.00692 0.0
C286 C 0.86012 0.46108 0.89698 0.0
C287 C 0.79755 0.47429 0.90634 0.0
C288 C 0.9013 0.44746 0.92296 0.0
C289 C 0.8784 0.44576 0.9589 0.0
C290 C 0.81706 0.46352 0.9689 0.0
C291 C 0.7772 0.47789 0.94231 0.0
C292 C 0.96727 0.43055 0.91124 0.0
C293 C 0.79079 0.46324 0.00683 0.0
H294 H 0.95762 0.31591 0.98775 0.0
H295 H 0.04702 0.41575 0.02933 0.0
H296 H 0.81224 0.37625 0.96949 0.0
H297 H 0.86683 0.3623 0.93264 0.0
H298 H 0.85516 0.32608 0.96736 0.0
H299 H -0.00194 0.48429 0.02878 0.0
H300 H -0.01161 0.48921 0.98175 0.0
H301 H 0.92099 0.49517 0.01207 0.0
H302 H 0.87562 0.45856 0.86907 0.0
H303 H 0.7285 0.4881 0.94943 0.0
H304 H 0.97118 0.39666 0.91178 0.0
H305 H 0.00127 0.44088 0.9296 0.0
H306 H 0.98051 0.44 0.88383 0.0
H307 H 0.76763 0.43494 0.01115 0.0
H308 H 0.755 0.48973 0.0123 0.0
H309 H 0.82777 0.46385 0.02619 0.0
C310 C 0.2324 0.66446 0.99194 0.0
C311 C 0.17001 0.65719 0.98785 0.0
C312 C 0.28188 0.64137 0.97287 0.0
C313 C 0.26902 0.60896 0.95034 0.0
C314 C 0.20702 0.59891 0.94861 0.0
C315 C 0.15813 0.62372 0.96658 0.0
C316 C 0.34744 0.6535 0.97502 0.0
C317 C 0.1918 0.56341 0.92614 0.0
C318 C 0.38088 0.59399 0.86953 0.0
C319 C 0.42671 0.56462 0.88143 0.0
C320 C 0.3275 0.60719 0.89109 0.0
C321 C 0.31905 0.58977 0.92504 0.0
C322 C 0.3622 0.55736 0.9358 0.0
C323 C 0.41632 0.54563 0.91409 0.0
C324 C 0.28304 0.64218 0.87869 0.0
C325 C 0.3535 0.53697 0.97118 0.0
H326 H 0.24262 0.68921 0.00909 0.0
H327 H 0.11052 0.61771 0.96242 0.0
H328 H 0.38013 0.62677 0.98188 0.0
H329 H 0.36397 0.66438 0.94867 0.0
H330 H 0.34999 0.67814 0.99507 0.0
H331 H 0.14432 0.55453 0.93333 0.0
H332 H 0.19361 0.5719 0.89768 0.0
H333 H 0.22663 0.53647 0.92913 0.0
H334 H 0.38882 0.60869 0.84423 0.0
H335 H 0.45218 0.52348 0.92373 0.0
H336 H 0.28442 0.66919 0.89637 0.0
H337 H 0.23431 0.63393 0.88023 0.0
H338 H 0.29496 0.65107 0.85092 0.0
H339 H 0.3662 0.55718 0.99275 0.0
H340 H 0.38354 0.50747 0.97226 0.0
H341 H 0.30384 0.53148 0.97651 0.0
C342 C 0.68084 0.85283 0.48626 0.0
C343 C 0.64859 0.87473 0.51474 0.0
C344 C 0.73353 0.86722 0.46905 0.0
C345 C 0.7547 0.90402 0.48111 0.0
C346 C 0.72483 0.92461 0.51157 0.0
C347 C 0.67154 0.90987 0.52787 0.0
C348 C 0.76352 0.84473 0.43634 0.0
C349 C 0.74773 0.96292 0.52615 0.0
C350 C 0.91385 0.92612 0.44223 0.0
C351 C 0.89708 0.9525 0.41444 0.0
C352 C 0.86805 0.91132 0.46516 0.0
C353 C 0.80409 0.92273 0.45973 0.0
C354 C 0.787 0.95036 0.43233 0.0
C355 C 0.83382 0.96476 0.40989 0.0
C356 C 0.88801 0.88293 0.49472 0.0
C357 C 0.71921 0.96388 0.42612 0.0
H358 H 0.66204 0.82612 0.47581 0.0
H359 H 0.64592 0.92685 0.54979 0.0
H360 H 0.75534 0.86394 0.41258 0.0
H361 H 0.81489 0.83886 0.43848 0.0
H362 H 0.74441 0.8151 0.432 0.0
H363 H 0.71401 0.9786 0.54649 0.0
H364 H 0.79291 0.95482 0.53856 0.0
H365 H 0.7565 0.98464 0.50452 0.0
H366 H 0.96293 0.91686 0.44592 0.0
H367 H 0.82084 0.98451 0.38801 0.0
H368 H 0.87218 0.85241 0.49006 0.0
H369 H 0.86566 0.89473 0.52054 0.0
H370 H 0.93962 0.87922 0.49682 0.0
H371 H 0.69506 0.93701 0.41894 0.0
H372 H 0.71398 0.9867 0.40459 0.0
H373 H 0.69516 0.97756 0.45087 0.0
C374 C 0.33381 0.21785 0.46547 0.0
C375 C 0.35884 0.19822 0.49514 0.0
C376 C 0.28539 0.20216 0.44799 0.0
C377 C 0.26103 0.1664 0.46093 0.0
C378 C 0.28509 0.14713 0.49152 0.0
C379 C 0.33414 0.16315 0.50815 0.0
C380 C 0.26135 0.22324 0.41518 0.0
C381 C 0.25894 0.10977 0.50679 0.0
C382 C 0.10071 0.14744 0.43154 0.0
C383 C 0.11616 0.11892 0.4038 0.0
C384 C 0.1474 0.16256 0.45088 0.0
C385 C 0.21094 0.14896 0.44204 0.0
C386 C 0.22674 0.11961 0.41442 0.0
C387 C 0.17905 0.10524 0.39536 0.0
C388 C 0.12878 0.19335 0.4805 0.0
C389 C 0.294 0.10388 0.40466 0.0
H390 H 0.35367 0.24466 0.4552 0.0
H391 H 0.35357 0.14816 0.53124 0.0
H392 H 0.26913 0.20193 0.392 0.0
H393 H 0.21017 0.23202 0.41885 0.0
H394 H 0.28472 0.25108 0.4089 0.0
H395 H 0.28985 0.09421 0.52636 0.0
H396 H 0.21249 0.11894 0.52038 0.0
H397 H 0.25191 0.08768 0.48538 0.0
H398 H 0.05196 0.15797 0.43813 0.0
H399 H 0.19106 0.08407 0.37329 0.0
H400 H 0.14871 0.22243 0.47435 0.0
H401 H 0.14817 0.18198 0.50572 0.0
H402 H 0.07716 0.19983 0.48471 0.0
H403 H 0.31968 0.12931 0.39446 0.0
H404 H 0.29807 0.07917 0.38411 0.0
H405 H 0.31732 0.09192 0.42858 0.0
C406 C 0.42542 0.95274 0.49601 0.0
C407 C 0.42215 0.91054 0.50031 0.0
C408 C 0.38282 0.9763 0.47549 0.0
C409 C 0.3344 0.95758 0.45997 0.0
C410 C 0.32861 0.91565 0.4659 0.0
C411 C 0.37298 0.89259 0.48544 0.0
C412 C 0.39086 1.02077 0.46944 0.0
C413 C 0.27694 0.89456 0.45032 0.0
C414 C 0.1857 1.00962 0.425 0.0
C415 C 0.19629 1.00059 0.38862 0.0
C416 C 0.23267 0.99929 0.44881 0.0
C417 C 0.29164 0.98038 0.43557 0.0
C418 C 0.30463 0.97608 0.39835 0.0
C419 C 0.25628 0.98552 0.3753 0.0
C420 C 0.21625 1.00393 0.4882 0.0
C421 C 0.36757 0.95745 0.38303 0.0
H422 H 0.46218 0.9673 0.50803 0.0
H423 H 0.37026 0.86004 0.48777 0.0
H424 H 0.39844 0.02628 0.44056 0.0
H425 H 0.34768 0.04 0.47877 0.0
H426 H 0.43089 0.03082 0.48346 0.0
H427 H 0.27564 0.86288 0.4601 0.0
H428 H 0.23077 0.91201 0.45704 0.0
H429 H 0.28379 0.89329 0.42089 0.0
H430 H 0.13901 1.02107 0.43526 0.0
H431 H 0.26432 0.97875 0.34708 0.0
H432 H 0.25702 1.01105 0.50304 0.0
H433 H 0.20136 0.97471 0.49843 0.0
H434 H 0.17705 0.02828 0.49384 0.0
H435 H 0.40606 0.96953 0.39697 0.0
H436 H 0.37393 0.96348 0.35413 0.0
H437 H 0.37156 0.92387 0.38674 0.0
C438 C 0.58376 0.12843 0.51903 0.0
C439 C 0.58405 0.17115 0.51725 0.0
C440 C 0.6318 0.10196 0.50196 0.0
C441 C 0.6825 0.11856 0.48395 0.0
C442 C 0.68745 0.16109 0.48658 0.0
C443 C 0.63783 0.18694 0.50279 0.0
C444 C 0.62442 0.0569 0.50019 0.0
C445 C 0.74218 0.17993 0.46901 0.0
C446 C 0.82862 0.06236 0.43919 0.0
C447 C 0.81635 0.06939 0.40344 0.0
C448 C 0.78302 0.07461 0.46638 0.0
C449 C 0.7241 0.09376 0.45725 0.0
C450 C 0.70921 0.09572 0.42104 0.0
C451 C 0.75599 0.08413 0.39451 0.0
C452 C 0.80048 0.07109 0.50458 0.0
C453 C 0.64587 0.11402 0.41014 0.0
H454 H 0.54354 0.11568 0.53136 0.0
H455 H 0.63922 0.2197 0.5013 0.0
H456 H 0.59885 0.05053 0.47626 0.0
H457 H 0.6703 0.0381 0.49806 0.0
H458 H 0.5969 0.04724 0.5239 0.0
H459 H 0.74403 0.21194 0.47816 0.0
H460 H 0.78696 0.16182 0.4746 0.0
H461 H 0.73806 0.17993 0.43974 0.0
H462 H 0.87555 0.05096 0.44604 0.0
H463 H 0.74662 0.08925 0.36678 0.0
H464 H 0.75978 0.06513 0.52243 0.0
H465 H 0.81673 0.10032 0.51326 0.0
H466 H 0.83899 0.04632 0.50771 0.0
H467 H 0.60796 0.102 0.42682 0.0
H468 H 0.63869 0.1075 0.38174 0.0
H469 H 0.64171 0.14767 0.41417 0.0
loop_
_geom_bond_atom_site_label_1
_geom_bond_atom_site_label_2
_geom_bond_distance
_geom_bond_site_symmetry_2
_ccdc_geom_bond_type
H0 C3 0.929 . S
H1 C6 0.929 . S
H2 C8 0.930 . S
C3 H0 0.929 . S
C3 C4 1.398 . S
C3 C5 1.396 . S
C4 C3 1.398 . S
C4 C8 1.407 1_556 S
C5 C3 1.396 . S
C5 C6 1.394 1_556 S
C6 H1 0.929 . S
C6 C5 1.394 1_554 S
C6 C7 1.382 . S
C7 C6 1.382 . S
C7 C8 1.392 . S
C7 N9 1.420 . S
C8 H2 0.930 . S
C8 C4 1.407 1_554 S
C8 C7 1.392 . S
N9 C7 1.420 . S
N9 C10 1.244 . S
C10 N9 1.244 . S
H11 C14 0.929 . S
H12 C17 0.929 . S
H13 C19 0.930 . S
C14 H11 0.929 . S
C14 C15 1.398 1_455 S
C14 C16 1.396 . S
C15 C14 1.398 1_655 S
C15 C19 1.407 1_556 S
C16 C14 1.396 . S
C16 C17 1.394 1_556 S
C17 H12 0.929 . S
C17 C16 1.394 1_554 S
C17 C18 1.382 1_455 S
C18 C17 1.382 1_655 S
C18 C19 1.392 . S
C18 N20 1.420 . S
C19 H13 0.930 . S
C19 C15 1.407 1_554 S
C19 C18 1.392 . S
N20 C18 1.420 . S
N20 C21 1.244 1_655 S
C21 N20 1.244 1_455 S
H22 C25 0.929 . S
H23 C28 0.929 . S
H24 C30 0.930 . S
C25 H22 0.929 . S
C25 C26 1.398 . S
C25 C27 1.396 . S
C26 C25 1.398 . S
C26 C30 1.407 . S
C27 C25 1.396 . S
C27 C28 1.394 . S
C28 H23 0.929 . S
C28 C27 1.394 . S
C28 C29 1.382 . S
C29 C28 1.382 . S
C29 C30 1.392 . S
C29 N31 1.420 . S
C30 H24 0.930 . S
C30 C26 1.407 . S
C30 C29 1.392 . S
N31 C29 1.420 . S
N31 C32 1.244 . S
C32 N31 1.244 . S
H33 C36 0.929 . S
H34 C39 0.929 . S
H35 C41 0.930 . S
C36 H33 0.929 . S
C36 C37 1.398 . S
C36 C38 1.396 . S
C37 C36 1.398 . S
C37 C41 1.407 . S
C38 C36 1.396 . S
C38 C39 1.394 . S
C39 H34 0.929 . S
C39 C38 1.394 . S
C39 C40 1.382 . S
C40 C39 1.382 . S
C40 C41 1.392 . S
C40 N42 1.420 . S
C41 H35 0.930 . S
C41 C37 1.407 . S
C41 C40 1.392 . S
N42 C40 1.420 . S
N42 C43 1.244 . S
C43 N42 1.244 . S
Zn44 O50 1.920 . S
Zn44 O56 1.898 . S
Zn44 O59 1.905 1_455 S
Zn45 O53 1.905 . S
Zn45 O54 1.898 . S
Zn45 O62 1.920 . S
Zn46 O49 2.080 . S
Zn46 O52 2.114 1_545 S
Zn46 O55 2.120 1_545 S
Zn46 O57 2.120 . S
Zn46 O58 2.114 1_455 S
Zn46 O61 2.080 1_545 S
C47 O52 1.166 . S
C47 O53 1.182 . S
C48 O54 1.167 . S
C48 O55 1.299 . S
O49 Zn46 2.080 . S
O49 C63 1.305 . S
O50 Zn44 1.920 . S
O50 C63 1.234 . S
C51 O56 1.167 . S
C51 O57 1.299 . S
O52 Zn46 2.114 1_565 S
O52 C47 1.166 . S
O53 Zn45 1.905 . S
O53 C47 1.182 . S
O54 Zn45 1.898 . S
O54 C48 1.167 . S
O55 Zn46 2.120 1_565 S
O55 C48 1.299 . S
O56 Zn44 1.898 . S
O56 C51 1.167 . S
O57 Zn46 2.120 . S
O57 C51 1.299 . S
O58 Zn46 2.114 1_655 S
O58 C60 1.166 . S
O59 Zn44 1.905 1_655 S
O59 C60 1.182 . S
C60 O58 1.166 . S
C60 O59 1.182 . S
O61 Zn46 2.080 1_565 S
O61 C64 1.305 . S
O62 Zn45 1.920 . S
O62 C64 1.234 . S
C63 O49 1.305 . S
C63 O50 1.234 . S
C64 O61 1.305 . S
C64 O62 1.234 . S
Zn65 O71 1.920 . S
Zn65 O77 1.898 . S
Zn65 O80 1.905 . S
Zn66 O74 1.905 . S
Zn66 O75 1.898 . S
Zn66 O83 1.920 . S
Zn67 O70 2.080 . S
Zn67 O73 2.114 . S
Zn67 O76 2.120 . S
Zn67 O78 2.120 . S
Zn67 O79 2.114 . S
Zn67 O82 2.080 . S
C68 O73 1.166 . S
C68 O74 1.182 . S
C69 O75 1.167 . S
C69 O76 1.299 . S
O70 Zn67 2.080 . S
O70 C84 1.305 . S
O71 Zn65 1.920 . S
O71 C84 1.234 . S
C72 O77 1.167 . S
C72 O78 1.299 . S
O73 Zn67 2.114 . S
O73 C68 1.166 . S
O74 Zn66 1.905 . S
O74 C68 1.182 . S
O75 Zn66 1.898 . S
O75 C69 1.167 . S
O76 Zn67 2.120 . S
O76 C69 1.299 . S
O77 Zn65 1.898 . S
O77 C72 1.167 . S
O78 Zn67 2.120 . S
O78 C72 1.299 . S
O79 Zn67 2.114 . S
O79 C81 1.166 . S
O80 Zn65 1.905 . S
O80 C81 1.182 . S
C81 O79 1.166 . S
C81 O80 1.182 . S
O82 Zn67 2.080 . S
O82 C85 1.305 . S
O83 Zn66 1.920 . S
O83 C85 1.234 . S
C84 O70 1.305 . S
C84 O71 1.234 . S
C85 O82 1.305 . S
C85 O83 1.234 . S
C86 C87 1.391 . S
C86 C88 1.394 . S
C86 H102 0.931 . S
C87 C86 1.391 . S
C87 C91 1.376 . S
C88 C86 1.394 . S
C88 C89 1.369 . S
C88 C92 1.531 . S
C89 C88 1.369 . S
C89 C90 1.410 . S
C89 C97 1.503 . S
C90 C89 1.410 . S
C90 C91 1.392 . S
C90 C93 1.511 . S
C91 C87 1.376 . S
C91 C90 1.392 . S
C91 H103 0.929 . S
C92 C88 1.531 . S
C92 H104 0.960 . S
C92 H105 0.962 . S
C92 H106 0.960 1_455 S
C93 C90 1.511 . S
C93 H107 0.961 . S
C93 H108 0.961 . S
C93 H109 0.961 . S
C94 C95 1.370 . S
C94 C96 1.363 . S
C94 H110 0.931 . S
C95 C94 1.370 . S
C95 C99 1.408 . S
C96 C94 1.363 . S
C96 C97 1.370 . S
C96 C100 1.524 . S
C97 C89 1.503 . S
C97 C96 1.370 . S
C97 C98 1.403 . S
C98 C97 1.403 . S
C98 C99 1.404 . S
C98 C101 1.539 . S
C99 C95 1.408 . S
C99 C98 1.404 . S
C99 H111 0.930 . S
C100 C96 1.524 . S
C100 H112 0.956 . S
C100 H113 0.961 . S
C100 H114 0.961 . S
C101 C98 1.539 . S
C101 H115 0.958 . S
C101 H116 0.961 . S
C101 H117 0.960 . S
H102 C86 0.931 . S
H103 C91 0.929 . S
H104 C92 0.960 . S
H105 C92 0.962 . S
H106 C92 0.960 1_655 S
H107 C93 0.961 . S
H108 C93 0.961 . S
H109 C93 0.961 . S
H110 C94 0.931 . S
H111 C99 0.930 . S
H112 C100 0.956 . S
H113 C100 0.961 . S
H114 C100 0.961 . S
H115 C101 0.958 . S
H116 C101 0.961 . S
H117 C101 0.960 . S
C118 C119 1.391 . S
C118 C120 1.394 . S
C118 H134 0.931 . S
C119 C118 1.391 . S
C119 C123 1.376 . S
C120 C118 1.394 . S
C120 C121 1.369 . S
C120 C124 1.531 . S
C121 C120 1.369 . S
C121 C122 1.410 . S
C121 C129 1.503 . S
C122 C121 1.410 . S
C122 C123 1.392 . S
C122 C125 1.511 . S
C123 C119 1.376 . S
C123 C122 1.392 . S
C123 H135 0.929 . S
C124 C120 1.531 . S
C124 H136 0.960 1_455 S
C124 H137 0.962 . S
C124 H138 0.960 1_455 S
C125 C122 1.511 . S
C125 H139 0.961 . S
C125 H140 0.961 . S
C125 H141 0.961 1_455 S
C126 C127 1.370 . S
C126 C128 1.363 . S
C126 H142 0.931 . S
C127 C126 1.370 . S
C127 C131 1.408 1_455 S
C128 C126 1.363 . S
C128 C129 1.370 . S
C128 C132 1.524 . S
C129 C121 1.503 . S
C129 C128 1.370 . S
C129 C130 1.403 1_455 S
C130 C129 1.403 1_655 S
C130 C131 1.404 . S
C130 C133 1.539 . S
C131 C127 1.408 1_655 S
C131 C130 1.404 . S
C131 H143 0.930 . S
C132 C128 1.524 . S
C132 H144 0.956 . S
C132 H145 0.961 . S
C132 H146 0.961 . S
C133 C130 1.539 . S
C133 H147 0.958 . S
C133 H148 0.961 . S
C133 H149 0.960 . S
H134 C118 0.931 . S
H135 C123 0.929 . S
H136 C124 0.960 1_655 S
H137 C124 0.962 . S
H138 C124 0.960 1_655 S
H139 C125 0.961 . S
H140 C125 0.961 . S
H141 C125 0.961 1_655 S
H142 C126 0.931 . S
H143 C131 0.930 . S
H144 C132 0.956 . S
H145 C132 0.961 . S
H146 C132 0.961 . S
H147 C133 0.958 . S
H148 C133 0.961 . S
H149 C133 0.960 . S
C150 C151 1.391 . S
C150 C152 1.394 . S
C150 H166 0.931 . S
C151 C150 1.391 . S
C151 C155 1.376 . S
C152 C150 1.394 . S
C152 C153 1.369 . S
C152 C156 1.531 . S
C153 C152 1.369 . S
C153 C154 1.410 . S
C153 C161 1.503 . S
C154 C153 1.410 . S
C154 C155 1.392 . S
C154 C157 1.511 . S
C155 C151 1.376 . S
C155 C154 1.392 . S
C155 H167 0.929 . S
C156 C152 1.531 . S
C156 H168 0.960 . S
C156 H169 0.962 . S
C156 H170 0.960 . S
C157 C154 1.511 . S
C157 H171 0.961 . S
C157 H172 0.961 . S
C157 H173 0.961 . S
C158 C159 1.370 . S
C158 C160 1.363 . S
C158 H174 0.931 . S
C159 C158 1.370 . S
C159 C163 1.408 . S
C160 C158 1.363 . S
C160 C161 1.370 . S
C160 C164 1.524 . S
C161 C153 1.503 . S
C161 C160 1.370 . S
C161 C162 1.403 . S
C162 C161 1.403 . S
C162 C163 1.404 . S
C162 C165 1.539 . S
C163 C159 1.408 . S
C163 C162 1.404 . S
C163 H175 0.930 . S
C164 C160 1.524 . S
C164 H176 0.956 . S
C164 H177 0.961 . S
C164 H178 0.961 . S
C165 C162 1.539 . S
C165 H179 0.958 . S
C165 H180 0.961 . S
C165 H181 0.960 . S
H166 C150 0.931 . S
H167 C155 0.929 . S
H168 C156 0.960 . S
H169 C156 0.962 . S
H170 C156 0.960 . S
H171 C157 0.961 . S
H172 C157 0.961 . S
H173 C157 0.961 . S
H174 C158 0.931 . S
H175 C163 0.930 . S
H176 C164 0.956 . S
H177 C164 0.961 . S
H178 C164 0.961 . S
H179 C165 0.958 . S
H180 C165 0.961 . S
H181 C165 0.960 . S
C182 C183 1.391 . S
C182 C184 1.394 . S
C182 H198 0.931 . S
C183 C182 1.391 . S
C183 C187 1.376 . S
C184 C182 1.394 . S
C184 C185 1.369 . S
C184 C188 1.531 . S
C185 C184 1.369 . S
C185 C186 1.410 . S
C185 C193 1.503 . S
C186 C185 1.410 . S
C186 C187 1.392 . S
C186 C189 1.511 . S
C187 C183 1.376 . S
C187 C186 1.392 . S
C187 H199 0.929 . S
C188 C184 1.531 . S
C188 H200 0.960 . S
C188 H201 0.962 . S
C188 H202 0.960 . S
C189 C186 1.511 . S
C189 H203 0.961 . S
C189 H204 0.961 . S
C189 H205 0.961 . S
C190 C191 1.370 . S
C190 C192 1.363 . S
C190 H206 0.931 . S
C191 C190 1.370 . S
C191 C195 1.408 . S
C192 C190 1.363 . S
C192 C193 1.370 . S
C192 C196 1.524 . S
C193 C185 1.503 . S
C193 C192 1.370 . S
C193 C194 1.403 . S
C194 C193 1.403 . S
C194 C195 1.404 . S
C194 C197 1.539 . S
C195 C191 1.408 . S
C195 C194 1.404 . S
C195 H207 0.930 . S
C196 C192 1.524 . S
C196 H208 0.956 . S
C196 H209 0.961 . S
C196 H210 0.961 . S
C197 C194 1.539 . S
C197 H211 0.958 . S
C197 H212 0.961 . S
C197 H213 0.960 . S
H198 C182 0.931 . S
H199 C187 0.929 . S
H200 C188 0.960 . S
H201 C188 0.962 . S
H202 C188 0.960 . S
H203 C189 0.961 . S
H204 C189 0.961 . S
H205 C189 0.961 . S
H206 C190 0.931 . S
H207 C195 0.930 . S
H208 C196 0.956 . S
H209 C196 0.961 . S
H210 C196 0.961 . S
H211 C197 0.958 . S
H212 C197 0.961 . S
H213 C197 0.960 . S
C214 C215 1.391 . S
C214 C216 1.394 . S
C214 H230 0.931 . S
C215 C214 1.391 . S
C215 C219 1.376 . S
C216 C214 1.394 . S
C216 C217 1.369 . S
C216 C220 1.531 . S
C217 C216 1.369 . S
C217 C218 1.410 . S
C217 C225 1.503 . S
C218 C217 1.410 . S
C218 C219 1.392 . S
C218 C221 1.511 . S
C219 C215 1.376 . S
C219 C218 1.392 . S
C219 H231 0.929 . S
C220 C216 1.531 . S
C220 H232 0.960 . S
C220 H233 0.962 . S
C220 H234 0.960 . S
C221 C218 1.511 . S
C221 H235 0.961 . S
C221 H236 0.961 . S
C221 H237 0.961 . S
C222 C223 1.370 . S
C222 C224 1.363 . S
C222 H238 0.931 . S
C223 C222 1.370 . S
C223 C227 1.408 . S
C224 C222 1.363 . S
C224 C225 1.370 . S
C224 C228 1.524 . S
C225 C217 1.503 . S
C225 C224 1.370 . S
C225 C226 1.403 . S
C226 C225 1.403 . S
C226 C227 1.404 . S
C226 C229 1.539 1_556 S
C227 C223 1.408 . S
C227 C226 1.404 . S
C227 H239 0.930 . S
C228 C224 1.524 . S
C228 H240 0.956 . S
C228 H241 0.961 . S
C228 H242 0.961 . S
C229 C226 1.539 1_554 S
C229 H243 0.958 . S
C229 H244 0.961 . S
C229 H245 0.960 . S
H230 C214 0.931 . S
H231 C219 0.929 . S
H232 C220 0.960 . S
H233 C220 0.962 . S
H234 C220 0.960 . S
H235 C221 0.961 . S
H236 C221 0.961 . S
H237 C221 0.961 . S
H238 C222 0.931 . S
H239 C227 0.930 . S
H240 C228 0.956 . S
H241 C228 0.961 . S
H242 C228 0.961 . S
H243 C229 0.958 . S
H244 C229 0.961 . S
H245 C229 0.960 . S
C246 C247 1.391 . S
C246 C248 1.394 . S
C246 H262 0.931 . S
C247 C246 1.391 . S
C247 C251 1.376 . S
C248 C246 1.394 . S
C248 C249 1.369 . S
C248 C252 1.531 . S
C249 C248 1.369 . S
C249 C250 1.410 . S
C249 C257 1.503 . S
C250 C249 1.410 . S
C250 C251 1.392 . S
C250 C253 1.511 . S
C251 C247 1.376 . S
C251 C250 1.392 . S
C251 H263 0.929 . S
C252 C248 1.531 . S
C252 H264 0.960 . S
C252 H265 0.962 . S
C252 H266 0.960 . S
C253 C250 1.511 . S
C253 H267 0.961 . S
C253 H268 0.961 . S
C253 H269 0.961 . S
C254 C255 1.370 . S
C254 C256 1.363 . S
C254 H270 0.931 . S
C255 C254 1.370 . S
C255 C259 1.408 . S
C256 C254 1.363 . S
C256 C257 1.370 . S
C256 C260 1.524 1_556 S
C257 C249 1.503 . S
C257 C256 1.370 . S
C257 C258 1.403 . S
C258 C257 1.403 . S
C258 C259 1.404 . S
C258 C261 1.539 . S
C259 C255 1.408 . S
C259 C258 1.404 . S
C259 H271 0.930 . S
C260 C256 1.524 1_554 S
C260 H272 0.956 . S
C260 H273 0.961 . S
C260 H274 0.961 . S
C261 C258 1.539 . S
C261 H275 0.958 . S
C261 H276 0.961 . S
C261 H277 0.960 . S
H262 C246 0.931 . S
H263 C251 0.929 . S
H264 C252 0.960 . S
H265 C252 0.962 . S
H266 C252 0.960 . S
H267 C253 0.961 . S
H268 C253 0.961 . S
H269 C253 0.961 . S
H270 C254 0.931 . S
H271 C259 0.930 . S
H272 C260 0.956 . S
H273 C260 0.961 . S
H274 C260 0.961 . S
H275 C261 0.958 . S
H276 C261 0.961 . S
H277 C261 0.960 . S
C278 C279 1.391 1_655 S
C278 C280 1.394 . S
C278 H294 0.931 . S
C279 C278 1.391 1_455 S
C279 C283 1.376 1_455 S
C280 C278 1.394 . S
C280 C281 1.369 . S
C280 C284 1.531 . S
C281 C280 1.369 . S
C281 C282 1.410 . S
C281 C289 1.503 . S
C282 C281 1.410 . S
C282 C283 1.392 . S
C282 C285 1.511 . S
C283 C279 1.376 1_655 S
C283 C282 1.392 . S
C283 H295 0.929 1_656 S
C284 C280 1.531 . S
C284 H296 0.960 . S
C284 H297 0.962 . S
C284 H298 0.960 . S
C285 C282 1.511 . S
C285 H299 0.961 . S
C285 H300 0.961 . S
C285 H301 0.961 1_556 S
C286 C287 1.370 . S
C286 C288 1.363 . S
C286 H302 0.931 . S
C287 C286 1.370 . S
C287 C291 1.408 . S
C288 C286 1.363 . S
C288 C289 1.370 . S
C288 C292 1.524 . S
C289 C281 1.503 . S
C289 C288 1.370 . S
C289 C290 1.403 . S
C290 C289 1.403 . S
C290 C291 1.404 . S
C290 C293 1.539 . S
C291 C287 1.408 . S
C291 C290 1.404 . S
C291 H303 0.930 . S
C292 C288 1.524 . S
C292 H304 0.956 . S
C292 H305 0.961 . S
C292 H306 0.961 . S
C293 C290 1.539 . S
C293 H307 0.958 . S
C293 H308 0.961 . S
C293 H309 0.960 . S
H294 C278 0.931 . S
H295 C283 0.929 1_454 S
H296 C284 0.960 . S
H297 C284 0.962 . S
H298 C284 0.960 . S
H299 C285 0.961 . S
H300 C285 0.961 . S
H301 C285 0.961 1_554 S
H302 C286 0.931 . S
H303 C291 0.930 . S
H304 C292 0.956 . S
H305 C292 0.961 . S
H306 C292 0.961 . S
H307 C293 0.958 . S
H308 C293 0.961 . S
H309 C293 0.960 . S
C310 C311 1.378 1_554 S
C310 C312 1.385 1_554 S
C310 H326 0.953 . S
C311 C310 1.378 1_556 S
C311 C315 1.376 . S
C312 C310 1.385 1_556 S
C312 C313 1.369 . S
C312 C316 1.531 1_556 S
C313 C312 1.369 . S
C313 C314 1.410 . S
C313 C321 1.503 . S
C314 C313 1.410 . S
C314 C315 1.392 . S
C314 C317 1.511 . S
C315 C311 1.376 . S
C315 C314 1.392 . S
C315 H327 0.929 . S
C316 C312 1.531 1_554 S
C316 H328 0.960 1_554 S
C316 H329 0.962 . S
C316 H330 0.960 . S
C317 C314 1.511 . S
C317 H331 0.961 . S
C317 H332 0.961 . S
C317 H333 0.961 . S
C318 C319 1.370 . S
C318 C320 1.363 . S
C318 H334 0.931 . S
C319 C318 1.370 . S
C319 C323 1.408 . S
C320 C318 1.363 . S
C320 C321 1.370 . S
C320 C324 1.524 . S
C321 C313 1.503 . S
C321 C320 1.370 . S
C321 C322 1.403 . S
C322 C321 1.403 . S
C322 C323 1.404 . S
C322 C325 1.539 . S
C323 C319 1.408 . S
C323 C322 1.404 . S
C323 H335 0.930 . S
C324 C320 1.524 . S
C324 H336 0.956 . S
C324 H337 0.961 . S
C324 H338 0.961 . S
C325 C322 1.539 . S
C325 H339 0.958 . S
C325 H340 0.961 . S
C325 H341 0.960 . S
H326 C310 0.953 . S
H327 C315 0.929 . S
H328 C316 0.960 1_556 S
H329 C316 0.962 . S
H330 C316 0.960 . S
H331 C317 0.961 . S
H332 C317 0.961 . S
H333 C317 0.961 . S
H334 C318 0.931 . S
H335 C323 0.930 . S
H336 C324 0.956 . S
H337 C324 0.961 . S
H338 C324 0.961 . S
H339 C325 0.958 . S
H340 C325 0.961 . S
H341 C325 0.960 . S
C342 C343 1.391 . S
C342 C344 1.394 . S
C342 H358 0.931 . S
C343 C342 1.391 . S
C343 C347 1.376 . S
C344 C342 1.394 . S
C344 C345 1.369 . S
C344 C348 1.531 . S
C345 C344 1.369 . S
C345 C346 1.410 . S
C345 C353 1.503 . S
C346 C345 1.410 . S
C346 C347 1.392 . S
C346 C349 1.511 . S
C347 C343 1.376 . S
C347 C346 1.392 . S
C347 H359 0.929 . S
C348 C344 1.531 . S
C348 H360 0.960 . S
C348 H361 0.962 . S
C348 H362 0.960 . S
C349 C346 1.511 . S
C349 H363 0.961 . S
C349 H364 0.961 . S
C349 H365 0.961 . S
C350 C351 1.370 . S
C350 C352 1.363 . S
C350 H366 0.931 . S
C351 C350 1.370 . S
C351 C355 1.408 . S
C352 C350 1.363 . S
C352 C353 1.370 . S
C352 C356 1.524 . S
C353 C345 1.503 . S
C353 C352 1.370 . S
C353 C354 1.403 . S
C354 C353 1.403 . S
C354 C355 1.404 . S
C354 C357 1.539 . S
C355 C351 1.408 . S
C355 C354 1.404 . S
C355 H367 0.930 . S
C356 C352 1.524 . S
C356 H368 0.956 . S
C356 H369 0.961 . S
C356 H370 0.961 . S
C357 C354 1.539 . S
C357 H371 0.958 . S
C357 H372 0.961 . S
C357 H373 0.960 . S
H358 C342 0.931 . S
H359 C347 0.929 . S
H360 C348 0.960 . S
H361 C348 0.962 . S
H362 C348 0.960 . S
H363 C349 0.961 . S
H364 C349 0.961 . S
H365 C349 0.961 . S
H366 C350 0.931 . S
H367 C355 0.930 . S
H368 C356 0.956 . S
H369 C356 0.961 . S
H370 C356 0.961 . S
H371 C357 0.958 . S
H372 C357 0.961 . S
H373 C357 0.960 . S
C374 C375 1.391 . S
C374 C376 1.394 . S
C374 H390 0.931 . S
C375 C374 1.391 . S
C375 C379 1.376 . S
C376 C374 1.394 . S
C376 C377 1.369 . S
C376 C380 1.531 . S
C377 C376 1.369 . S
C377 C378 1.410 . S
C377 C385 1.503 . S
C378 C377 1.410 . S
C378 C379 1.392 . S
C378 C381 1.511 . S
C379 C375 1.376 . S
C379 C378 1.392 . S
C379 H391 0.929 . S
C380 C376 1.531 . S
C380 H392 0.960 . S
C380 H393 0.962 . S
C380 H394 0.960 . S
C381 C378 1.511 . S
C381 H395 0.961 . S
C381 H396 0.961 . S
C381 H397 0.961 . S
C382 C383 1.370 . S
C382 C384 1.363 . S
C382 H398 0.931 . S
C383 C382 1.370 . S
C383 C387 1.408 . S
C384 C382 1.363 . S
C384 C385 1.370 . S
C384 C388 1.524 . S
C385 C377 1.503 . S
C385 C384 1.370 . S
C385 C386 1.403 . S
C386 C385 1.403 . S
C386 C387 1.404 . S
C386 C389 1.539 . S
C387 C383 1.408 . S
C387 C386 1.404 . S
C387 H399 0.930 . S
C388 C384 1.524 . S
C388 H400 0.956 . S
C388 H401 0.961 . S
C388 H402 0.961 . S
C389 C386 1.539 . S
C389 H403 0.958 . S
C389 H404 0.961 . S
C389 H405 0.960 . S
H390 C374 0.931 . S
H391 C379 0.929 . S
H392 C380 0.960 . S
H393 C380 0.962 . S
H394 C380 0.960 . S
H395 C381 0.961 . S
H396 C381 0.961 . S
H397 C381 0.961 . S
H398 C382 0.931 . S
H399 C387 0.930 . S
H400 C388 0.956 . S
H401 C388 0.961 . S
H402 C388 0.961 . S
H403 C389 0.958 . S
H404 C389 0.961 . S
H405 C389 0.960 . S
C406 C407 1.391 . S
C406 C408 1.394 . S
C406 H422 0.931 . S
C407 C406 1.391 . S
C407 C411 1.376 . S
C408 C406 1.394 . S
C408 C409 1.369 . S
C408 C412 1.531 . S
C409 C408 1.369 . S
C409 C410 1.410 . S
C409 C417 1.503 . S
C410 C409 1.410 . S
C410 C411 1.392 . S
C410 C413 1.511 . S
C411 C407 1.376 . S
C411 C410 1.392 . S
C411 H423 0.929 . S
C412 C408 1.531 . S
C412 H424 0.960 . S
C412 H425 0.962 . S
C412 H426 0.960 . S
C413 C410 1.511 . S
C413 H427 0.961 . S
C413 H428 0.961 . S
C413 H429 0.961 . S
C414 C415 1.370 . S
C414 C416 1.363 . S
C414 H430 0.931 . S
C415 C414 1.370 . S
C415 C419 1.408 . S
C416 C414 1.363 . S
C416 C417 1.370 . S
C416 C420 1.524 . S
C417 C409 1.503 . S
C417 C416 1.370 . S
C417 C418 1.403 . S
C418 C417 1.403 . S
C418 C419 1.404 . S
C418 C421 1.539 . S
C419 C415 1.408 . S
C419 C418 1.404 . S
C419 H431 0.930 . S
C420 C416 1.524 . S
C420 H432 0.956 . S
C420 H433 0.961 . S
C420 H434 0.961 . S
C421 C418 1.539 . S
C421 H435 0.958 . S
C421 H436 0.961 . S
C421 H437 0.960 . S
H422 C406 0.931 . S
H423 C411 0.929 . S
H424 C412 0.960 . S
H425 C412 0.962 . S
H426 C412 0.960 . S
H427 C413 0.961 . S
H428 C413 0.961 . S
H429 C413 0.961 . S
H430 C414 0.931 . S
H431 C419 0.930 . S
H432 C420 0.956 . S
H433 C420 0.961 . S
H434 C420 0.961 . S
H435 C421 0.958 . S
H436 C421 0.961 . S
H437 C421 0.960 . S
C438 C439 1.391 . S
C438 C440 1.394 . S
C438 H454 0.931 . S
C439 C438 1.391 . S
C439 C443 1.376 . S
C440 C438 1.394 . S
C440 C441 1.369 . S
C440 C444 1.531 . S
C441 C440 1.369 . S
C441 C442 1.410 . S
C441 C449 1.503 . S
C442 C441 1.410 . S
C442 C443 1.392 . S
C442 C445 1.511 . S
C443 C439 1.376 . S
C443 C442 1.392 . S
C443 H455 0.929 . S
C444 C440 1.531 . S
C444 H456 0.960 . S
C444 H457 0.962 . S
C444 H458 0.960 . S
C445 C442 1.511 . S
C445 H459 0.961 . S
C445 H460 0.961 . S
C445 H461 0.961 . S
C446 C447 1.370 . S
C446 C448 1.363 . S
C446 H462 0.931 . S
C447 C446 1.370 . S
C447 C451 1.408 . S
C448 C446 1.363 . S
C448 C449 1.370 . S
C448 C452 1.524 . S
C449 C441 1.503 . S
C449 C448 1.370 . S
C449 C450 1.403 . S
C450 C449 1.403 . S
C450 C451 1.404 . S
C450 C453 1.539 . S
C451 C447 1.408 . S
C451 C450 1.404 . S
C451 H463 0.930 . S
C452 C448 1.524 . S
C452 H464 0.956 . S
C452 H465 0.961 . S
C452 H466 0.961 . S
C453 C450 1.539 . S
C453 H467 0.958 . S
C453 H468 0.961 . S
C453 H469 0.960 . S
H454 C438 0.931 . S
H455 C443 0.929 . S
H456 C444 0.960 . S
H457 C444 0.962 . S
H458 C444 0.960 . S
H459 C445 0.961 . S
H460 C445 0.961 . S
H461 C445 0.961 . S
H462 C446 0.931 . S
H463 C451 0.930 . S
H464 C452 0.956 . S
H465 C452 0.961 . S
H466 C452 0.961 . S
H467 C453 0.958 . S
H468 C453 0.961 . S
H469 C453 0.960 . S
C95 C51 1.426 . S
C87 C10 1.536 . S
C127 C47 1.402 . S
C119 C21 1.513 . S
C159 C72 1.395 . S
C151 C32 1.522 . S
C183 C43 1.481 . S
C191 C68 1.386 . S
C215 C5 1.246 . S
C223 C69 1.140 . S
C255 C84 1.128 . S
C247 C15 1.258 . S
C279 C4 1.727 . S
C287 C85 1.573 . S
C319 C81 1.635 . S
C311 C16 1.731 . S
C351 C48 1.112 1_655 S
C343 C27 1.249 . S
C375 C37 1.249 . S
C383 C63 1.141 . S
C415 C64 1.574 . S
C407 C26 1.729 . S
C447 C60 1.619 . S
C439 C38 1.733 . S
