# Generated by pormake.
# Topology the, (3,8)-cn, num edge types: 1
# Building blocks:
#     Node 0, Type 0, BuildingBlock: PAMTOO_clean_linker_0, # of connection points: 3
#     Node 1, Type 0, BuildingBlock: PAMTOO_clean_linker_0, # of connection points: 3
#     Node 2, Type 0, BuildingBlock: PAMTOO_clean_linker_0, # of connection points: 3
#     Node 3, Type 0, BuildingBlock: PAMTOO_clean_linker_0, # of connection points: 3
#     Node 4, Type 0, BuildingBlock: PAMTOO_clean_linker_0, # of connection points: 3
#     Node 5, Type 0, BuildingBlock: PAMTOO_clean_linker_0, # of connection points: 3
#     Node 6, Type 0, BuildingBlock: PAMTOO_clean_linker_0, # of connection points: 3
#     Node 7, Type 0, BuildingBlock: PAMTOO_clean_linker_0, # of connection points: 3
#     Node 8, Type 1, BuildingBlock: GIZVER_clean_sbu_0, # of connection points: 8
#     Node 9, Type 1, BuildingBlock: GIZVER_clean_sbu_0, # of connection points: 8
#     Node 10, Type 1, BuildingBlock: GIZVER_clean_sbu_0, # of connection points: 8
#     Edge 11, Type (0, 1), BuildingBlock: MIFKUJ_clean_linker_0, # of connection points: 2
#     Edge 12, Type (0, 1), BuildingBlock: MIFKUJ_clean_linker_0, # of connection points: 2
#     Edge 13, Type (0, 1), BuildingBlock: MIFKUJ_clean_linker_0, # of connection points: 2
#     Edge 14, Type (0, 1), BuildingBlock: MIFKUJ_clean_linker_0, # of connection points: 2
#     Edge 15, Type (0, 1), BuildingBlock: MIFKUJ_clean_linker_0, # of connection points: 2
#     Edge 16, Type (0, 1), BuildingBlock: MIFKUJ_clean_linker_0, # of connection points: 2
#     Edge 17, Type (0, 1), BuildingBlock: MIFKUJ_clean_linker_0, # of connection points: 2
#     Edge 18, Type (0, 1), BuildingBlock: MIFKUJ_clean_linker_0, # of connection points: 2
#     Edge 19, Type (0, 1), BuildingBlock: MIFKUJ_clean_linker_0, # of connection points: 2
#     Edge 20, Type (0, 1), BuildingBlock: MIFKUJ_clean_linker_0, # of connection points: 2
#     Edge 21, Type (0, 1), BuildingBlock: MIFKUJ_clean_linker_0, # of connection points: 2
#     Edge 22, Type (0, 1), BuildingBlock: MIFKUJ_clean_linker_0, # of connection points: 2
#     Edge 23, Type (0, 1), BuildingBlock: MIFKUJ_clean_linker_0, # of connection points: 2
#     Edge 24, Type (0, 1), BuildingBlock: MIFKUJ_clean_linker_0, # of connection points: 2
#     Edge 25, Type (0, 1), BuildingBlock: MIFKUJ_clean_linker_0, # of connection points: 2
#     Edge 26, Type (0, 1), BuildingBlock: MIFKUJ_clean_linker_0, # of connection points: 2
#     Edge 27, Type (0, 1), BuildingBlock: MIFKUJ_clean_linker_0, # of connection points: 2
#     Edge 28, Type (0, 1), BuildingBlock: MIFKUJ_clean_linker_0, # of connection points: 2
#     Edge 29, Type (0, 1), BuildingBlock: MIFKUJ_clean_linker_0, # of connection points: 2
#     Edge 30, Type (0, 1), BuildingBlock: MIFKUJ_clean_linker_0, # of connection points: 2
#     Edge 31, Type (0, 1), BuildingBlock: MIFKUJ_clean_linker_0, # of connection points: 2
#     Edge 32, Type (0, 1), BuildingBlock: MIFKUJ_clean_linker_0, # of connection points: 2
#     Edge 33, Type (0, 1), BuildingBlock: MIFKUJ_clean_linker_0, # of connection points: 2
#     Edge 34, Type (0, 1), BuildingBlock: MIFKUJ_clean_linker_0, # of connection points: 2
# Relax obj value: 0.073
# Max RMSD: 0.217
# Mean RMSD: 0.147
data_MOF--net-the--node1-GIZVER_clean_sbu_0--node2-PAMTOO_clean_linker_0--edge1-MIFKUJ_clean_linker_0
_symmetry_space_group_name_H-M    P1
_symmetry_Int_Tables_number       1
_symmetry_cell_setting            triclinic
loop_
_symmetry_equiv_pos_as_xyz
'x, y, z'
_cell_length_a     52.473517
_cell_length_b     49.560618
_cell_length_c     46.083553
_cell_angle_alpha  88.444317
_cell_angle_beta   93.295643
_cell_angle_gamma 105.45196
loop_
_atom_site_label
_atom_site_type_symbol
_atom_site_fract_x
_atom_site_fract_y
_atom_site_fract_z
_atom_type_partial_charge
H0 H 0.28002 0.40179 0.38152 0.0
H1 H 0.27854 0.34161 0.45122 0.0
H2 H 0.33064 0.34605 0.38204 0.0
H3 H 0.29919 0.28976 0.40128 0.0
C4 C 0.30198 0.29306 0.42518 0.0
O5 O 0.31448 0.3208 0.43071 0.0
H6 H 0.28223 0.2875 0.43473 0.0
C7 C 0.28752 0.38541 0.39202 0.0
C8 C 0.30672 0.3756 0.37863 0.0
C9 C 0.27688 0.37294 0.41803 0.0
C10 C 0.28634 0.35131 0.43108 0.0
C11 C 0.3057 0.34178 0.41811 0.0
C12 C 0.31576 0.35378 0.39194 0.0
H13 H 0.71119 0.3122 0.38008 0.0
H14 H 0.65027 0.311 0.3125 0.0
H15 H 0.71741 0.38225 0.32126 0.0
H16 H 0.66772 0.3969 0.30849 0.0
C17 C 0.65618 0.37784 0.29672 0.0
O18 O 0.67244 0.36074 0.29217 0.0
H19 H 0.63981 0.3668 0.3106 0.0
C20 C 0.70336 0.32167 0.36135 0.0
C21 C 0.71745 0.34844 0.35193 0.0
C22 C 0.67874 0.30788 0.34771 0.0
C23 C 0.66884 0.32119 0.32388 0.0
C24 C 0.68265 0.34795 0.31454 0.0
C25 C 0.70687 0.36153 0.32859 0.0
H26 H 0.63345 0.74348 0.33217 0.0
H27 H 0.68307 0.6864 0.34065 0.0
H28 H 0.69385 0.75273 0.40128 0.0
H29 H 0.74375 0.74416 0.3814 0.0
C30 C 0.73715 0.72125 0.37732 0.0
O31 O 0.71136 0.71092 0.38539 0.0
H32 H 0.73821 0.71811 0.35364 0.0
C33 C 0.64905 0.73615 0.34349 0.0
C34 C 0.66226 0.75067 0.36829 0.0
C35 C 0.65631 0.71292 0.33283 0.0
C36 C 0.6773 0.70452 0.3476 0.0
C37 C 0.69104 0.71917 0.37178 0.0
C38 C 0.68344 0.74205 0.38212 0.0
H39 H 0.26433 0.74463 0.38668 0.0
H40 H 0.25603 0.67797 0.32587 0.0
H41 H 0.3275 0.74416 0.33079 0.0
H42 H 0.30578 0.72465 0.27016 0.0
C43 C 0.29763 0.70211 0.27573 0.0
O44 O 0.30246 0.6978 0.30499 0.0
H45 H 0.27592 0.69629 0.27035 0.0
C46 C 0.27241 0.73492 0.36992 0.0
C47 C 0.29792 0.74777 0.36043 0.0
C48 C 0.25699 0.70984 0.35746 0.0
C49 C 0.26732 0.6976 0.33535 0.0
C50 C 0.2925 0.71024 0.32566 0.0
C51 C 0.30775 0.73515 0.33812 0.0
H52 H 0.29495 0.75242 0.68992 0.0
H53 H 0.28484 0.68085 0.74724 0.0
H54 H 0.35248 0.75094 0.7605 0.0
H55 H 0.3623 0.69501 0.76265 0.0
C56 C 0.34497 0.68367 0.77506 0.0
O57 O 0.32865 0.7009 0.77887 0.0
H58 H 0.33382 0.66517 0.76218 0.0
C59 C 0.30171 0.74231 0.70886 0.0
C60 C 0.32578 0.75543 0.724 0.0
C61 C 0.28677 0.71549 0.71709 0.0
C62 C 0.29604 0.7016 0.74072 0.0
C63 C 0.31976 0.71444 0.75618 0.0
C64 C 0.33437 0.74129 0.74801 0.0
H65 H 0.28462 0.38267 0.73771 0.0
H66 H 0.27297 0.32052 0.6711 0.0
H67 H 0.33345 0.3251 0.73885 0.0
H68 H 0.3459 0.32406 0.67451 0.0
C69 C 0.32887 0.30593 0.6684 0.0
O70 O 0.31173 0.29989 0.69083 0.0
H71 H 0.31837 0.31181 0.64858 0.0
C72 C 0.29003 0.36534 0.7282 0.0
C73 C 0.31046 0.35523 0.74178 0.0
C74 C 0.27611 0.35284 0.70281 0.0
C75 C 0.28302 0.33006 0.69096 0.0
C76 C 0.30388 0.32037 0.70374 0.0
C77 C 0.31728 0.33269 0.72926 0.0
H78 H 0.63837 0.32103 0.75723 0.0
H79 H 0.71144 0.38534 0.77105 0.0
H80 H 0.7069 0.32023 0.71019 0.0
H81 H 0.75688 0.33829 0.75012 0.0
C82 C 0.7588 0.36121 0.74894 0.0
O83 O 0.73716 0.366 0.7333 0.0
H84 H 0.75968 0.36924 0.77138 0.0
C85 C 0.65897 0.33001 0.75267 0.0
C86 C 0.67087 0.3174 0.73214 0.0
C87 C 0.67354 0.3545 0.76695 0.0
C88 C 0.7001 0.3662 0.76064 0.0
C89 C 0.71201 0.3538 0.74026 0.0
C90 C 0.69746 0.32953 0.72606 0.0
H91 H 0.65278 0.73469 0.70514 0.0
H92 H 0.7085 0.68553 0.69884 0.0
H93 H 0.70584 0.74901 0.63475 0.0
H94 H 0.71711 0.70377 0.60864 0.0
C95 C 0.72317 0.69263 0.62801 0.0
O96 O 0.7288 0.71039 0.65144 0.0
H97 H 0.70643 0.67412 0.63273 0.0
C98 C 0.66834 0.7296 0.6937 0.0
C99 C 0.67776 0.74478 0.66846 0.0
C100 C 0.67928 0.70824 0.70484 0.0
C101 C 0.70001 0.70213 0.69071 0.0
C102 C 0.70946 0.71695 0.66554 0.0
C103 C 0.69852 0.73824 0.65459 0.0
Co104 Co 0.05585 0.503 0.55121 0.0
Co105 Co 0.02469 0.48543 0.50466 0.0
Co106 Co 1.00233 0.52922 0.53721 0.0
O107 O 0.01843 0.49669 0.54163 0.0
H108 H 1.00768 0.48119 0.55233 0.0
O109 O 0.9863 0.56177 0.53271 0.0
Co110 Co 0.94902 0.55565 0.52241 0.0
Co111 Co 0.97965 0.57302 0.56946 0.0
H112 H 0.99721 0.5773 0.52221 0.0
O113 O 0.03272 0.45125 0.49817 0.0
O114 O 0.06101 0.49184 0.51177 0.0
O115 O 0.02122 0.5102 0.47244 0.0
O116 O 0.02243 0.54532 0.50191 0.0
O117 O 0.9728 0.50533 0.51193 0.0
O118 O 0.91539 0.55294 0.51149 0.0
O119 O 0.95037 0.59062 0.50824 0.0
O120 O 0.94273 0.51827 0.53502 0.0
O121 O 0.98217 0.51312 0.57258 0.0
O122 O 0.98281 0.54831 0.6018 0.0
O123 O 0.94345 0.56685 0.56168 0.0
O124 O 0.97181 0.60733 0.57557 0.0
C125 C 0.08029 0.47995 0.5693 0.0
C126 C 0.05611 0.55679 0.55625 0.0
C127 C 0.02602 0.53623 0.4772 0.0
C128 C 0.05682 0.46612 0.50359 0.0
C129 C 0.92504 0.57891 0.50372 0.0
C130 C 0.94858 0.50191 0.51741 0.0
C131 C 0.97842 0.52229 0.59724 0.0
C132 C 0.94773 0.59264 0.56966 0.0
O133 O 0.08957 0.5059 0.56128 0.0
O134 O 0.05491 0.46809 0.56544 0.0
O135 O 0.03199 0.55322 0.56233 0.0
O136 O 0.06181 0.54031 0.53866 0.0
Co137 Co 0.53032 0.97441 0.51942 0.0
Co138 Co 0.54601 1.00055 0.56855 0.0
Co139 Co 0.50471 0.02863 0.53551 0.0
O140 O 0.53569 0.01251 0.53208 0.0
H141 H 0.55045 0.02547 0.52327 0.0
O142 O 0.47351 0.04429 0.53892 0.0
Co143 Co 0.47828 0.08183 0.55218 0.0
Co144 Co 0.46324 0.05637 0.50254 0.0
H145 H 0.45875 0.03104 0.54744 0.0
O146 O 0.57866 0.99235 0.57609 0.0
O147 O 0.54053 0.96326 0.55888 0.0
O148 O 0.52248 0.99944 0.59952 0.0
O149 O 0.48927 1.00272 0.56862 0.0
O150 O 0.52651 0.05695 0.56366 0.0
O151 O 0.48004 0.1155 0.56556 0.0
O152 O 0.44538 0.07723 0.56535 0.0
O153 O 0.51365 0.09125 0.54129 0.0
O154 O 0.52029 0.05469 0.50241 0.0
O155 O 0.48721 0.05911 0.47192 0.0
O156 O 0.46615 0.09299 0.51321 0.0
O157 O 0.42986 0.06197 0.49453 0.0
C158 C 0.55276 0.95173 0.50052 0.0
C159 C 0.47885 0.97442 0.51201 0.0
C160 C 0.49788 0.99545 0.59335 0.0
C161 C 0.56474 0.96732 0.56928 0.0
C162 C 0.45568 0.10359 0.57168 0.0
C163 C 0.52956 0.08311 0.55906 0.0
C164 C 0.51177 0.06284 0.47803 0.0
C165 C 0.44165 0.0872 0.50302 0.0
O166 O 0.52825 0.94034 0.50647 0.0
O167 O 0.56357 0.97791 0.50734 0.0
O168 O 0.48261 1.00064 0.50744 0.0
O169 O 0.49475 0.96567 0.5292 0.0
Co170 Co 0.46315 0.53065 0.0959 0.0
Co171 Co 0.45294 0.48078 0.07469 0.0
Co172 Co 0.49497 0.52439 0.03561 0.0
O173 O 0.46192 0.51618 0.05758 0.0
H174 H 0.4471 0.51902 0.0456 0.0
O175 O 0.52799 0.53253 0.01396 0.0
Co176 Co 0.52665 0.52129 0.97458 0.0
Co177 Co 0.5379 0.5695 1.00083 0.0
H178 H 0.54249 0.5283 0.0254 0.0
O179 O 0.41885 0.46325 0.08608 0.0
O180 O 0.45158 0.49235 0.11255 0.0
O181 O 0.47955 0.46068 0.07539 0.0
O182 O 0.51083 0.49666 0.05867 0.0
O183 O 0.47578 0.49496 0.00673 0.0
O184 O 0.52842 0.51019 0.93864 0.0
O185 O 0.56008 0.51792 0.97493 0.0
O186 O 0.49107 0.52203 0.96946 0.0
O187 O 0.47939 0.55226 0.01258 0.0
O188 O 0.51173 0.59034 1.00293 0.0
O189 O 0.53789 0.56084 0.96183 0.0
O190 O 0.57211 0.58681 0.98886 0.0
C191 C 0.43781 0.54467 0.11974 0.0
C192 C 0.51581 0.54962 0.09099 0.0
C193 C 0.50364 0.47257 0.07111 0.0
C194 C 0.42802 0.47517 0.11066 0.0
C195 C 0.55197 0.5095 0.94855 0.0
C196 C 0.47381 0.50156 0.97982 0.0
C197 C 0.48731 0.57765 1.00357 0.0
C198 C 0.56183 0.57707 0.96374 0.0
O199 O 0.46144 0.54502 0.13023 0.0
O200 O 0.42973 0.53402 0.09415 0.0
O201 O 0.51402 0.5543 0.06375 0.0
O202 O 0.49868 0.52982 0.10241 0.0
H203 H 0.27367 0.42584 0.42946 0.0
H204 H 0.23649 0.43914 0.44973 0.0
H205 H 0.19323 0.35213 0.45492 0.0
H206 H 0.23033 0.33873 0.43503 0.0
H207 H 0.1651 0.38829 0.42635 0.0
H208 H 0.21794 0.38245 0.51359 0.0
H209 H 0.25862 0.39381 0.54544 0.0
H210 H 0.25695 0.47984 0.54692 0.0
H211 H 0.21698 0.46937 0.51393 0.0
H212 H 0.05582 0.41146 0.4944 0.0
H213 H 0.09338 0.39278 0.48563 0.0
H214 H 0.14649 0.47544 0.49536 0.0
H215 H 0.10924 0.49406 0.50488 0.0
H216 H 0.16916 0.43827 0.51905 0.0
H217 H 0.12308 0.44787 0.42771 0.0
H218 H 0.08445 0.44033 0.39285 0.0
H219 H 0.07512 0.35158 0.39729 0.0
H220 H 0.11351 0.35859 0.43249 0.0
C221 C 0.25624 0.40961 0.43505 0.0
C222 C 0.25485 0.38128 0.43077 0.0
C223 C 0.23515 0.41719 0.44676 0.0
C224 C 0.21225 0.39657 0.45398 0.0
C225 C 0.21081 0.36831 0.44963 0.0
C226 C 0.23201 0.3607 0.43837 0.0
C227 C 0.18919 0.40451 0.46462 0.0
C228 C 0.16583 0.39883 0.44684 0.0
C229 C 0.1905 0.4189 0.491 0.0
C230 C 0.21458 0.42517 0.5109 0.0
C231 C 0.22643 0.40389 0.5203 0.0
C232 C 0.24936 0.41016 0.53862 0.0
C233 C 0.2603 0.43748 0.54826 0.0
C234 C 0.24845 0.45867 0.53944 0.0
C235 C 0.22572 0.4526 0.52082 0.0
C236 C 0.07552 0.42561 0.49483 0.0
C237 C 0.07951 0.4543 0.4999 0.0
C238 C 0.09697 0.41492 0.48979 0.0
C239 C 0.12271 0.43281 0.48927 0.0
C240 C 0.12683 0.46124 0.49555 0.0
C241 C 0.10546 0.47188 0.50083 0.0
C242 C 0.14516 0.42236 0.48058 0.0
C243 C 0.16837 0.42754 0.49868 0.0
C244 C 0.144 0.408 0.45418 0.0
C245 C 0.12096 0.40373 0.43298 0.0
C246 C 0.11266 0.42673 0.42142 0.0
C247 C 0.09083 0.42256 0.40157 0.0
C248 C 0.07729 0.39548 0.39293 0.0
C249 C 0.0856 0.37254 0.40405 0.0
C250 C 0.10739 0.37659 0.42394 0.0
H251 H 0.0604 0.39229 0.37756 0.0
H252 H 0.27796 0.44223 0.56257 0.0
H253 H 0.62469 0.28895 0.35016 0.0
H254 H 0.59883 0.24465 0.36952 0.0
H255 H 0.67054 0.22044 0.39265 0.0
H256 H 0.69661 0.26403 0.37128 0.0
H257 H 0.635 0.17666 0.37379 0.0
H258 H 0.63563 0.24538 0.44387 0.0
H259 H 0.63055 0.28951 0.46303 0.0
H260 H 0.5478 0.26564 0.43695 0.0
H261 H 0.55246 0.22151 0.41724 0.0
H262 H 0.5662 0.07595 0.48199 0.0
H263 H 0.59687 0.11443 0.45692 0.0
H264 H 0.53113 0.13312 0.40783 0.0
H265 H 0.50045 0.09461 0.43212 0.0
H266 H 0.56613 0.17875 0.44245 0.0
H267 H 0.56829 0.10868 0.37195 0.0
H268 H 0.57557 0.06411 0.3568 0.0
H269 H 0.65644 0.09051 0.3898 0.0
H270 H 0.64951 0.13511 0.40555 0.0
C271 C 0.63508 0.27408 0.35877 0.0
C272 C 0.6629 0.28032 0.3591 0.0
C273 C 0.6202 0.24881 0.37032 0.0
C274 C 0.63269 0.22935 0.38321 0.0
C275 C 0.66039 0.23516 0.38305 0.0
C276 C 0.67532 0.26031 0.37109 0.0
C277 C 0.61676 0.20318 0.39703 0.0
C278 C 0.62021 0.17721 0.38911 0.0
C279 C 0.59737 0.20368 0.41706 0.0
C280 C 0.59446 0.23024 0.42882 0.0
C281 C 0.61639 0.24963 0.442 0.0
C282 C 0.61358 0.27464 0.453 0.0
C283 C 0.58888 0.28041 0.45115 0.0
C284 C 0.56693 0.26116 0.43834 0.0
C285 C 0.56964 0.23613 0.42727 0.0
C286 C 0.55831 0.08779 0.46533 0.0
C287 C 0.53079 0.08218 0.45922 0.0
C288 C 0.57587 0.10979 0.45107 0.0
C289 C 0.5662 0.12669 0.43069 0.0
C290 C 0.53895 0.12034 0.42356 0.0
C291 C 0.52145 0.09817 0.43742 0.0
C292 C 0.58402 0.15248 0.41866 0.0
C293 C 0.58099 0.17835 0.42714 0.0
C294 C 0.60412 0.15186 0.39975 0.0
C295 C 0.60829 0.12509 0.39023 0.0
C296 C 0.58755 0.10487 0.37625 0.0
C297 C 0.59163 0.07963 0.36749 0.0
C298 C 0.61643 0.07444 0.37242 0.0
C299 C 0.63723 0.09453 0.38605 0.0
C300 C 0.63324 0.11981 0.39487 0.0
H301 H 0.61956 0.05489 0.36561 0.0
H302 H 0.58674 0.29977 0.45969 0.0
H303 H 0.73733 0.6662 0.37393 0.0
H304 H 0.76885 0.64271 0.39772 0.0
H305 H 0.80949 0.71948 0.44103 0.0
H306 H 0.77811 0.74295 0.41721 0.0
H307 H 0.84376 0.69526 0.41585 0.0
H308 H 0.76805 0.66587 0.4732 0.0
H309 H 0.72202 0.64363 0.48512 0.0
H310 H 0.7302 0.56396 0.45912 0.0
H311 H 0.77632 0.58583 0.44695 0.0
H312 H 0.93047 0.63555 0.50566 0.0
H313 H 0.89826 0.66077 0.48761 0.0
H314 H 0.84638 0.58335 0.45519 0.0
H315 H 0.8777 0.55808 0.47467 0.0
H316 H 0.81779 0.60979 0.47742 0.0
H317 H 0.88697 0.63668 0.41044 0.0
H318 H 0.93269 0.65586 0.39535 0.0
H319 H 0.93514 0.73517 0.43234 0.0
H320 H 0.88952 0.71633 0.44799 0.0
C321 C 0.75285 0.67789 0.38878 0.0
C322 C 0.75526 0.70632 0.39378 0.0
C323 C 0.77084 0.6645 0.40235 0.0
C324 C 0.79153 0.6793 0.42126 0.0
C325 C 0.79376 0.70765 0.4265 0.0
C326 C 0.77575 0.721 0.413 0.0
C327 C 0.81125 0.66548 0.43508 0.0
C328 C 0.8381 0.67675 0.42961 0.0
C329 C 0.80379 0.64077 0.4523 0.0
C330 C 0.7758 0.62763 0.4592 0.0
C331 C 0.7601 0.64366 0.47004 0.0
C332 C 0.73394 0.63109 0.47682 0.0
C333 C 0.72318 0.60238 0.47289 0.0
C334 C 0.73857 0.58621 0.46218 0.0
C335 C 0.76476 0.5987 0.4554 0.0
C336 C 0.91226 0.62403 0.49447 0.0
C337 C 0.90673 0.5949 0.49128 0.0
C338 C 0.89384 0.63845 0.48409 0.0
C339 C 0.86991 0.62413 0.46952 0.0
C340 C 0.86455 0.59501 0.46633 0.0
C341 C 0.8826 0.58056 0.47731 0.0
C342 C 0.85026 0.63914 0.45761 0.0
C343 C 0.82345 0.62824 0.46358 0.0
C344 C 0.85756 0.66362 0.44005 0.0
C345 C 0.88496 0.67501 0.43066 0.0
C346 C 0.89734 0.65815 0.41554 0.0
C347 C 0.92321 0.66897 0.40686 0.0
C348 C 0.93684 0.69669 0.41296 0.0
C349 C 0.92458 0.71368 0.42768 0.0
C350 C 0.89871 0.70296 0.43645 0.0
H351 H 0.95687 0.70502 0.40622 0.0
H352 H 0.70291 0.59267 0.47814 0.0
H353 H 0.30282 0.76175 0.41805 0.0
H354 H 0.33117 0.80402 0.44066 0.0
H355 H 0.35974 0.83486 0.35695 0.0
H356 H 0.33092 0.79298 0.33396 0.0
H357 H 0.40012 0.83831 0.39911 0.0
H358 H 0.31801 0.86395 0.38735 0.0
H359 H 0.27015 0.85727 0.39208 0.0
H360 H 0.28117 0.85436 0.48506 0.0
H361 H 0.32906 0.86063 0.48087 0.0
H362 H 0.44174 0.98406 0.47122 0.0
H363 H 0.40872 0.94885 0.44257 0.0
H364 H 0.43478 0.88305 0.48815 0.0
H365 H 0.46754 0.91766 0.51664 0.0
H366 H 0.36676 0.90188 0.45929 0.0
H367 H 0.43885 0.8357 0.4385 0.0
H368 H 0.48697 0.84241 0.4356 0.0
H369 H 0.49591 0.92739 0.40685 0.0
H370 H 0.44783 0.92109 0.40918 0.0
C371 C 0.31475 0.77771 0.40432 0.0
C372 C 0.31453 0.77392 0.37414 0.0
C373 C 0.33104 0.80182 0.41732 0.0
C374 C 0.34744 0.82262 0.40045 0.0
C375 C 0.34726 0.81901 0.37035 0.0
C376 C 0.33086 0.79499 0.35729 0.0
C377 C 0.36543 0.8477 0.4144 0.0
C378 C 0.39281 0.85231 0.41209 0.0
C379 C 0.35586 0.86605 0.43119 0.0
C380 C 0.32711 0.86258 0.43377 0.0
C381 C 0.31021 0.86171 0.4088 0.0
C382 C 0.28307 0.85802 0.41139 0.0
C383 C 0.27262 0.85535 0.43885 0.0
C384 C 0.28929 0.85643 0.46379 0.0
C385 C 0.31644 0.86009 0.46133 0.0
C386 C 0.44026 0.96208 0.47526 0.0
C387 C 0.45744 0.9537 0.49601 0.0
C388 C 0.42138 0.94203 0.45895 0.0
C389 C 0.41962 0.91343 0.46303 0.0
C390 C 0.43609 0.90505 0.48442 0.0
C391 C 0.4548 0.92493 0.50072 0.0
C392 C 0.40135 0.89209 0.44439 0.0
C393 C 0.37399 0.88809 0.44596 0.0
C394 C 0.41092 0.87428 0.42688 0.0
C395 C 0.43973 0.87794 0.42418 0.0
C396 C 0.45105 0.85575 0.43132 0.0
C397 C 0.47833 0.8595 0.42984 0.0
C398 C 0.49449 0.88532 0.4211 0.0
C399 C 0.48338 0.90742 0.41368 0.0
C400 C 0.45612 0.90377 0.41509 0.0
H401 H 0.51561 0.8882 0.42006 0.0
H402 H 0.25161 0.85248 0.44081 0.0
H403 H 0.24379 0.73586 0.70498 0.0
H404 H 0.20253 0.71302 0.67725 0.0
H405 H 0.23284 0.64197 0.66314 0.0
H406 H 0.27373 0.6643 0.69158 0.0
H407 H 0.20802 0.67288 0.61045 0.0
H408 H 0.19432 0.62561 0.70578 0.0
H409 H 0.19217 0.62622 0.75907 0.0
H410 H 0.13288 0.67159 0.74982 0.0
H411 H 0.135 0.6716 0.69644 0.0
H412 H 0.10885 0.56254 0.55294 0.0
H413 H 0.14538 0.59385 0.57963 0.0
H414 H 0.09092 0.63079 0.62032 0.0
H415 H 0.05355 0.59792 0.59448 0.0
H416 H 0.12608 0.62418 0.65916 0.0
H417 H 0.133 0.66583 0.5655 0.0
H418 H 0.13418 0.6685 0.51208 0.0
H419 H 0.20462 0.63979 0.51641 0.0
H420 H 0.20368 0.63656 0.56988 0.0
C421 C 0.24155 0.71534 0.69599 0.0
C422 C 0.26183 0.70175 0.70046 0.0
C423 C 0.21806 0.70236 0.68022 0.0
C424 C 0.21474 0.67587 0.66819 0.0
C425 C 0.23509 0.66243 0.67229 0.0
C426 C 0.25832 0.67511 0.6886 0.0
C427 C 0.18999 0.66202 0.65138 0.0
C428 C 0.1901 0.66204 0.62097 0.0
C429 C 0.1664 0.64904 0.66518 0.0
C430 C 0.1651 0.64895 0.69719 0.0
C431 C 0.18106 0.636 0.71513 0.0
C432 C 0.17979 0.63615 0.74535 0.0
C433 C 0.16247 0.64903 0.75784 0.0
C434 C 0.14633 0.66169 0.74013 0.0
C435 C 0.14755 0.66161 0.7099 0.0
C436 C 0.10442 0.57729 0.56747 0.0
C437 C 0.07812 0.57761 0.57155 0.0
C438 C 0.12552 0.5955 0.58258 0.0
C439 C 0.12113 0.61526 0.60157 0.0
C440 C 0.09489 0.61587 0.60565 0.0
C441 C 0.07355 0.59715 0.59081 0.0
C442 C 0.14408 0.63414 0.61791 0.0
C443 C 0.14374 0.63525 0.64832 0.0
C444 C 0.16733 0.6487 0.60398 0.0
C445 C 0.16819 0.65083 0.57177 0.0
C446 C 0.14867 0.65993 0.55508 0.0
C447 C 0.1493 0.66157 0.52478 0.0
C448 C 0.16946 0.65433 0.51086 0.0
C449 C 0.18904 0.64543 0.52723 0.0
C450 C 0.18849 0.64374 0.55755 0.0
H451 H 0.16993 0.65566 0.4874 0.0
H452 H 0.1615 0.64912 0.78123 0.0
H453 H 0.37671 0.3073 0.64782 0.0
H454 H 0.39269 0.26849 0.63158 0.0
H455 H 0.31959 0.21007 0.65452 0.0
H456 H 0.30336 0.24911 0.67071 0.0
H457 H 0.36451 0.19164 0.67184 0.0
H458 H 0.32769 0.2246 0.58616 0.0
H459 H 0.3195 0.25989 0.55073 0.0
H460 H 0.40159 0.2833 0.53124 0.0
H461 H 0.41041 0.24851 0.56696 0.0
H462 H 0.4065 0.08623 0.59471 0.0
H463 H 0.38027 0.11598 0.61276 0.0
H464 H 0.44205 0.1896 0.59211 0.0
H465 H 0.46853 0.16032 0.57515 0.0
H466 H 0.39478 0.19473 0.57147 0.0
H467 H 0.43151 0.16545 0.6624 0.0
H468 H 0.43924 0.13054 0.69863 0.0
H469 H 0.35543 0.0986 0.70683 0.0
H470 H 0.3472 0.13312 0.67035 0.0
C471 C 0.36418 0.28615 0.64981 0.0
C472 C 0.33907 0.28121 0.66122 0.0
C473 C 0.37325 0.264 0.64031 0.0
C474 C 0.35729 0.23637 0.64169 0.0
C475 C 0.33227 0.23122 0.65337 0.0
C476 C 0.32307 0.2535 0.66271 0.0
C477 C 0.36695 0.2132 0.63047 0.0
C478 C 0.37062 0.19194 0.64971 0.0
C479 C 0.37503 0.21363 0.60162 0.0
C480 C 0.36978 0.2342 0.5796 0.0
C481 C 0.34406 0.23744 0.57452 0.0
C482 C 0.3393 0.25735 0.55437 0.0
C483 C 0.36006 0.27403 0.539 0.0
C484 C 0.38556 0.27052 0.54337 0.0
C485 C 0.39045 0.25067 0.56354 0.0
C486 C 0.41451 0.10875 0.59422 0.0
C487 C 0.43963 0.12086 0.58353 0.0
C488 C 0.39948 0.12573 0.60445 0.0
C489 C 0.40906 0.15506 0.60353 0.0
C490 C 0.43413 0.16706 0.5929 0.0
C491 C 0.44933 0.1502 0.58332 0.0
C492 C 0.39317 0.17368 0.6131 0.0
C493 C 0.38824 0.19408 0.59345 0.0
C494 C 0.38378 0.17227 0.64145 0.0
C495 C 0.38874 0.15163 0.66343 0.0
C496 C 0.41473 0.15083 0.67177 0.0
C497 C 0.4192 0.13115 0.69237 0.0
C498 C 0.39784 0.11231 0.70496 0.0
C499 C 0.37195 0.11317 0.69702 0.0
C500 C 0.36738 0.1328 0.6764 0.0
H501 H 0.40134 0.09708 0.72091 0.0
H502 H 0.35636 0.28963 0.52364 0.0
H503 H 0.77044 0.41222 0.72025 0.0
H504 H 0.81147 0.43608 0.69724 0.0
H505 H 0.84572 0.36895 0.7247 0.0
H506 H 0.80446 0.3447 0.7474 0.0
H507 H 0.8801 0.42342 0.73386 0.0
H508 H 0.82472 0.36923 0.6577 0.0
H509 H 0.7838 0.3527 0.62681 0.0
H510 H 0.79029 0.43671 0.59606 0.0
H511 H 0.83104 0.45381 0.62713 0.0
H512 H 0.95927 0.46551 0.59204 0.0
H513 H 0.92643 0.43426 0.62154 0.0
H514 H 0.92929 0.50203 0.67944 0.0
H515 H 0.96223 0.53353 0.65015 0.0
H516 H 0.87793 0.44228 0.62757 0.0
H517 H 0.91078 0.47375 0.74674 0.0
H518 H 0.95204 0.48949 0.77726 0.0
H519 H 0.99193 0.4484 0.72098 0.0
H520 H 0.95083 0.43209 0.69035 0.0
C521 C 0.7866 0.40239 0.72109 0.0
C522 C 0.78399 0.37613 0.73474 0.0
C523 C 0.81004 0.4161 0.70809 0.0
C524 C 0.83145 0.40407 0.70898 0.0
C525 C 0.82933 0.37845 0.72364 0.0
C526 C 0.80576 0.36457 0.7364 0.0
C527 C 0.85583 0.41807 0.69404 0.0
C528 C 0.87972 0.42752 0.71061 0.0
C529 C 0.85528 0.42306 0.66369 0.0
C530 C 0.8308 0.41282 0.64495 0.0
C531 C 0.8173 0.38421 0.64454 0.0
C532 C 0.79416 0.37474 0.62697 0.0
C533 C 0.78442 0.39365 0.60954 0.0
C534 C 0.79784 0.42208 0.6096 0.0
C535 C 0.82097 0.43167 0.62717 0.0
C536 C 0.95347 0.4737 0.61144 0.0
C537 C 0.96325 0.50218 0.61851 0.0
C538 C 0.93458 0.45577 0.62822 0.0
C539 C 0.92532 0.46584 0.65257 0.0
C540 C 0.9363 0.49376 0.66084 0.0
C541 C 0.95514 0.51176 0.64401 0.0
C542 C 0.90227 0.44807 0.66739 0.0
C543 C 0.87848 0.43804 0.65079 0.0
C544 C 0.903 0.4425 0.69766 0.0
C545 C 0.92775 0.4519 0.71612 0.0
C546 C 0.92832 0.46796 0.74095 0.0
C547 C 0.95169 0.47701 0.75826 0.0
C548 C 0.97461 0.47002 0.75102 0.0
C549 C 0.97419 0.45389 0.7265 0.0
C550 C 0.95087 0.44478 0.70913 0.0
H551 H 0.99269 0.47705 0.76443 0.0
H552 H 0.76651 0.38627 0.59593 0.0
H553 H 0.7026 0.79439 0.64184 0.0
H554 H 0.68279 0.83046 0.62168 0.0
H555 H 0.6064 0.78309 0.6494 0.0
H556 H 0.62562 0.74584 0.66751 0.0
H557 H 0.60004 0.80395 0.59893 0.0
H558 H 0.64632 0.84187 0.68726 0.0
H559 H 0.6844 0.85614 0.7226 0.0
H560 H 0.7273 0.91367 0.65985 0.0
H561 H 0.68958 0.89945 0.62398 0.0
H562 H 0.53836 0.91591 0.58854 0.0
H563 H 0.55682 0.87701 0.60311 0.0
H564 H 0.63364 0.92493 0.57679 0.0
H565 H 0.61544 0.96461 0.56414 0.0
H566 H 0.63955 0.90306 0.62583 0.0
H567 H 0.58728 0.86603 0.53873 0.0
H568 H 0.54694 0.85005 0.5069 0.0
H569 H 0.51159 0.79019 0.57164 0.0
H570 H 0.55158 0.80573 0.60406 0.0
C571 C 0.6815 0.79134 0.64327 0.0
C572 C 0.6658 0.76713 0.65651 0.0
C573 C 0.67025 0.81225 0.63208 0.0
C574 C 0.64317 0.80981 0.63451 0.0
C575 C 0.62737 0.78557 0.64739 0.0
C576 C 0.63851 0.76441 0.65812 0.0
C577 C 0.63129 0.83251 0.62371 0.0
C578 C 0.60845 0.82561 0.60508 0.0
C579 C 0.6425 0.86082 0.63135 0.0
C580 C 0.66523 0.86939 0.65285 0.0
C581 C 0.66396 0.8574 0.68093 0.0
C582 C 0.68546 0.86551 0.70106 0.0
C583 C 0.70828 0.88575 0.69345 0.0
C584 C 0.70962 0.89797 0.6657 0.0
C585 C 0.68818 0.88991 0.64546 0.0
C586 C 0.55914 0.91796 0.58563 0.0
C587 C 0.57557 0.94317 0.57537 0.0
C588 C 0.56965 0.89563 0.59374 0.0
C589 C 0.59658 0.8977 0.59058 0.0
C590 C 0.61281 0.92272 0.57943 0.0
C591 C 0.60246 0.94538 0.5722 0.0
C592 C 0.60829 0.87466 0.60072 0.0
C593 C 0.63112 0.88147 0.61944 0.0
C594 C 0.59665 0.8462 0.59356 0.0
C595 C 0.57254 0.83711 0.57392 0.0
C596 C 0.57096 0.84948 0.54626 0.0
C597 C 0.54813 0.84052 0.52809 0.0
C598 C 0.52677 0.8192 0.53722 0.0
C599 C 0.52817 0.80671 0.56457 0.0
C600 C 0.55093 0.81554 0.58284 0.0
H601 H 0.50913 0.81236 0.52308 0.0
H602 H 0.72491 0.892 0.70907 0.0
H603 H 0.34991 0.30572 0.45858 0.0
H604 H 0.37432 0.27307 0.4778 0.0
H605 H 0.31414 0.20415 0.44 0.0
H606 H 0.28946 0.2368 0.42082 0.0
H607 H 0.32759 0.18997 0.49211 0.0
H608 H 0.37682 0.23438 0.40944 0.0
H609 H 0.40183 0.27493 0.38131 0.0
H610 H 0.45823 0.29871 0.45353 0.0
H611 H 0.43335 0.25846 0.48219 0.0
H612 H 0.39149 0.0827 0.48015 0.0
H613 H 0.36876 0.11953 0.47379 0.0
H614 H 0.4363 0.17853 0.51446 0.0
H615 H 0.45989 0.14218 0.51894 0.0
H616 H 0.42102 0.20135 0.46905 0.0
H617 H 0.37416 0.14896 0.54756 0.0
H618 H 0.34777 0.10768 0.57362 0.0
H619 H 0.28559 0.09695 0.50697 0.0
H620 H 0.31154 0.13792 0.48032 0.0
C621 C 0.3418 0.28364 0.45433 0.0
C622 C 0.31774 0.27377 0.43796 0.0
C623 C 0.35584 0.26495 0.46538 0.0
C624 C 0.34617 0.23611 0.46032 0.0
C625 C 0.32199 0.22627 0.44435 0.0
C626 C 0.30796 0.24491 0.43328 0.0
C627 C 0.36122 0.21602 0.47115 0.0
C628 C 0.34796 0.19228 0.48688 0.0
C629 C 0.3881 0.21957 0.4653 0.0
C630 C 0.40313 0.24359 0.44801 0.0
C631 C 0.39449 0.24835 0.41935 0.0
C632 C 0.40863 0.27126 0.40332 0.0
C633 C 0.43157 0.28942 0.41565 0.0
C634 C 0.44044 0.28465 0.44402 0.0
C635 C 0.42635 0.26179 0.46015 0.0
C636 C 0.40151 0.10348 0.48786 0.0
C637 C 0.42746 0.10939 0.5003 0.0
C638 C 0.38833 0.12451 0.48451 0.0
C639 C 0.40052 0.15177 0.49423 0.0
C640 C 0.42636 0.15765 0.50692 0.0
C641 C 0.4398 0.13678 0.50962 0.0
C642 C 0.38708 0.17453 0.4891 0.0
C643 C 0.40073 0.199 0.47466 0.0
C644 C 0.36041 0.17141 0.49586 0.0
C645 C 0.34488 0.14661 0.51193 0.0
C646 C 0.3549 0.13781 0.53843 0.0
C647 C 0.34003 0.11445 0.5533 0.0
C648 C 0.31509 0.09976 0.54198 0.0
C649 C 0.30491 0.10838 0.51575 0.0
C650 C 0.31967 0.1317 0.50077 0.0
H651 H 0.30364 0.08169 0.55356 0.0
H652 H 0.44249 0.30715 0.40321 0.0
H653 H 0.76246 0.33092 0.3594 0.0
H654 H 0.80438 0.35519 0.3846 0.0
H655 H 0.77066 0.42243 0.40538 0.0
H656 H 0.72943 0.39891 0.37858 0.0
H657 H 0.81728 0.44474 0.39324 0.0
H658 H 0.77947 0.36766 0.45573 0.0
H659 H 0.76012 0.31832 0.46953 0.0
H660 H 0.8316 0.29816 0.44884 0.0
H661 H 0.85127 0.34735 0.43455 0.0
H662 H 0.89562 0.49572 0.52033 0.0
H663 H 0.85964 0.46767 0.4895 0.0
H664 H 0.91512 0.43529 0.44522 0.0
H665 H 0.95186 0.46423 0.47565 0.0
H666 H 0.86145 0.39472 0.46651 0.0
H667 H 0.89896 0.47814 0.40891 0.0
H668 H 0.91532 0.52929 0.40246 0.0
H669 H 0.83932 0.539 0.42225 0.0
H670 H 0.82267 0.48795 0.42945 0.0
C671 C 0.76416 0.35094 0.36932 0.0
C672 C 0.74281 0.36308 0.36716 0.0
C673 C 0.78804 0.36474 0.38391 0.0
C674 C 0.79071 0.39051 0.39751 0.0
C675 C 0.76929 0.40266 0.39511 0.0
C676 C 0.74568 0.3892 0.37989 0.0
C677 C 0.81569 0.4049 0.41423 0.0
C678 C 0.82674 0.43368 0.40932 0.0
C679 C 0.82846 0.39068 0.43517 0.0
C680 C 0.81672 0.3611 0.44374 0.0
C681 C 0.79099 0.35266 0.45391 0.0
C682 C 0.77997 0.32473 0.46185 0.0
C683 C 0.79459 0.3051 0.45997 0.0
C684 C 0.82028 0.31338 0.45022 0.0
C685 C 0.83138 0.34128 0.44221 0.0
C686 C 0.90038 0.48266 0.50411 0.0
C687 C 0.92678 0.48253 0.50026 0.0
C688 C 0.87968 0.46658 0.48655 0.0
C689 C 0.88476 0.44962 0.46501 0.0
C690 C 0.91087 0.44836 0.46176 0.0
C691 C 0.93181 0.4649 0.47911 0.0
C692 C 0.86259 0.4342 0.44541 0.0
C693 C 0.85206 0.40541 0.44997 0.0
C694 C 0.84978 0.44854 0.42487 0.0
C695 C 0.85964 0.47921 0.41994 0.0
C696 C 0.8858 0.49119 0.41213 0.0
C697 C 0.89512 0.52018 0.40831 0.0
C698 C 0.87838 0.5374 0.41199 0.0
C699 C 0.85227 0.52565 0.41941 0.0
C700 C 0.84288 0.49669 0.42336 0.0
H701 H 0.88564 0.55984 0.40909 0.0
H702 H 0.78603 0.28349 0.46613 0.0
H703 H 0.61167 0.75391 0.37528 0.0
H704 H 0.59748 0.79218 0.39568 0.0
H705 H 0.67901 0.83974 0.4083 0.0
H706 H 0.69333 0.80123 0.38827 0.0
H707 H 0.65378 0.84388 0.45456 0.0
H708 H 0.63609 0.85561 0.3527 0.0
H709 H 0.61772 0.84106 0.30338 0.0
H710 H 0.53897 0.81971 0.33392 0.0
H711 H 0.55687 0.83376 0.38352 0.0
H712 H 0.60535 0.96632 0.48702 0.0
H713 H 0.62892 0.93752 0.4626 0.0
H714 H 0.55797 0.8694 0.45821 0.0
H715 H 0.53419 0.89798 0.48182 0.0
H716 H 0.58379 0.88171 0.40556 0.0
H717 H 0.61913 0.84075 0.50678 0.0
H718 H 0.63963 0.85217 0.55601 0.0
H719 H 0.68478 0.93208 0.52506 0.0
H720 H 0.66574 0.92036 0.47528 0.0
C721 C 0.62659 0.77264 0.38208 0.0
C722 C 0.65365 0.77449 0.37998 0.0
C723 C 0.61844 0.7946 0.39373 0.0
C724 C 0.63711 0.8192 0.40318 0.0
C725 C 0.66416 0.82107 0.40117 0.0
C726 C 0.67234 0.79899 0.38974 0.0
C727 C 0.62837 0.84253 0.41587 0.0
C728 C 0.63884 0.85249 0.4435 0.0
C729 C 0.60872 0.85382 0.40175 0.0
C730 C 0.59786 0.84557 0.37188 0.0
C731 C 0.61486 0.84766 0.34894 0.0
C732 C 0.60453 0.83951 0.32092 0.0
C733 C 0.5772 0.82942 0.31553 0.0
C734 C 0.56013 0.82752 0.33813 0.0
C735 C 0.57036 0.83561 0.36619 0.0
C736 C 0.59486 0.9451 0.48113 0.0
C737 C 0.56789 0.93448 0.48663 0.0
C738 C 0.6085 0.92847 0.46754 0.0
C739 C 0.59554 0.9008 0.45957 0.0
C740 C 0.56859 0.89042 0.46474 0.0
C741 C 0.55499 0.9069 0.47823 0.0
C742 C 0.60907 0.88282 0.44422 0.0
C743 C 0.59922 0.87355 0.4162 0.0
C744 C 0.6295 0.87243 0.45777 0.0
C745 C 0.64022 0.88018 0.48764 0.0
C746 C 0.63325 0.86086 0.51058 0.0
C747 C 0.64475 0.86728 0.53852 0.0
C748 C 0.66307 0.89305 0.54382 0.0
C749 C 0.6703 0.91227 0.52103 0.0
C750 C 0.65921 0.90573 0.49293 0.0
H751 H 0.67185 0.898 0.56551 0.0
H752 H 0.56924 0.82311 0.29383 0.0
H753 H 0.24246 0.70039 0.41366 0.0
H754 H 0.19942 0.67375 0.43058 0.0
H755 H 0.16872 0.66079 0.34174 0.0
H756 H 0.21156 0.68764 0.3247 0.0
H757 H 0.13251 0.67269 0.37825 0.0
H758 H 0.19078 0.61187 0.37575 0.0
H759 H 0.23156 0.59746 0.3885 0.0
H760 H 0.21536 0.59506 0.47897 0.0
H761 H 0.17463 0.60973 0.46676 0.0
H762 H 0.0499 0.5244 0.42959 0.0
H763 H 0.08523 0.55663 0.40396 0.0
H764 H 0.07519 0.62548 0.45322 0.0
H765 H 0.03978 0.59346 0.47904 0.0
H766 H 0.13094 0.58537 0.43424 0.0
H767 H 0.09724 0.68593 0.41104 0.0
H768 H 0.05615 0.69976 0.39823 0.0
H769 H 0.02218 0.62041 0.35756 0.0
H770 H 0.06318 0.60625 0.36977 0.0
C771 C 0.22639 0.69226 0.39777 0.0
C772 C 0.23039 0.69589 0.36786 0.0
C773 C 0.20189 0.67696 0.40745 0.0
C774 C 0.181 0.66512 0.38737 0.0
C775 C 0.1846 0.66974 0.35755 0.0
C776 C 0.20912 0.68487 0.34787 0.0
C777 C 0.15594 0.64643 0.39729 0.0
C778 C 0.13212 0.65362 0.39055 0.0
C779 C 0.15548 0.62144 0.41308 0.0
C780 C 0.17987 0.61235 0.42037 0.0
C781 C 0.19604 0.60853 0.39838 0.0
C782 C 0.21912 0.60024 0.40551 0.0
C783 C 0.22611 0.59546 0.43453 0.0
C784 C 0.20997 0.59885 0.4565 0.0
C785 C 0.18689 0.60715 0.44948 0.0
C786 C 0.05459 0.5465 0.43442 0.0
C787 C 0.04217 0.55628 0.45664 0.0
C788 C 0.07492 0.56486 0.41984 0.0
C789 C 0.08294 0.59335 0.42688 0.0
C790 C 0.06922 0.60357 0.44739 0.0
C791 C 0.04898 0.5852 0.46212 0.0
C792 C 0.10746 0.61162 0.4153 0.0
C793 C 0.13126 0.60443 0.42192 0.0
C794 C 0.10783 0.63653 0.39942 0.0
C795 C 0.08321 0.64495 0.39157 0.0
C796 C 0.08105 0.67148 0.39925 0.0
C797 C 0.05776 0.67937 0.39212 0.0
C798 C 0.03654 0.66094 0.37717 0.0
C799 C 0.0386 0.63462 0.36924 0.0
C800 C 0.06184 0.62663 0.37631 0.0
H801 H 0.01853 0.66708 0.37169 0.0
H802 H 0.24397 0.58903 0.44 0.0
H803 H 0.30914 0.79999 0.70039 0.0
H804 H 0.33637 0.84416 0.68136 0.0
H805 H 0.40701 0.81902 0.70699 0.0
H806 H 0.38011 0.77426 0.72477 0.0
H807 H 0.40858 0.8759 0.72158 0.0
H808 H 0.38786 0.81265 0.6402 0.0
H809 H 0.35794 0.77995 0.60596 0.0
H810 H 0.3206 0.84419 0.57809 0.0
H811 H 0.35004 0.87716 0.61255 0.0
H812 H 0.50857 0.96321 0.63923 0.0
H813 H 0.47709 0.92686 0.6651 0.0
H814 H 0.41226 0.94922 0.61754 0.0
H815 H 0.4438 0.98511 0.59071 0.0
H816 H 0.40442 0.89598 0.61562 0.0
H817 H 0.42639 0.96079 0.69316 0.0
H818 H 0.45522 0.99427 0.72752 0.0
H819 H 0.48831 0.92936 0.76325 0.0
H820 H 0.45995 0.89555 0.72883 0.0
C821 C 0.33045 0.80363 0.70178 0.0
C822 C 0.3423 0.78327 0.71407 0.0
C823 C 0.34598 0.82904 0.69108 0.0
C824 C 0.37369 0.83482 0.69273 0.0
C825 C 0.38565 0.81503 0.70568 0.0
C826 C 0.37016 0.78945 0.716 0.0
C827 C 0.39025 0.86104 0.68 0.0
C828 C 0.40787 0.8803 0.69839 0.0
C829 C 0.38865 0.86709 0.64989 0.0
C830 C 0.37091 0.84725 0.62923 0.0
C831 C 0.37307 0.81971 0.627 0.0
C832 C 0.35624 0.80115 0.60751 0.0
C833 C 0.33731 0.80996 0.58993 0.0
C834 C 0.33522 0.83738 0.59177 0.0
C835 C 0.35198 0.85601 0.61128 0.0
C836 C 0.48762 0.96089 0.63467 0.0
C837 C 0.47876 0.97714 0.61281 0.0
C838 C 0.46955 0.94005 0.64961 0.0
C839 C 0.44217 0.9353 0.64352 0.0
C840 C 0.43325 0.95237 0.62263 0.0
C841 C 0.45133 0.97302 0.6074 0.0
C842 C 0.42312 0.91109 0.65713 0.0
C843 C 0.40501 0.89202 0.63888 0.0
C844 C 0.42407 0.90542 0.68745 0.0
C845 C 0.44117 0.92567 0.70824 0.0
C846 C 0.43996 0.95369 0.7082 0.0
C847 C 0.45619 0.97272 0.72771 0.0
C848 C 0.47362 0.96396 0.74751 0.0
C849 C 0.47481 0.93612 0.74788 0.0
C850 C 0.45863 0.917 0.7284 0.0
H851 H 0.48617 0.97873 0.7626 0.0
H852 H 0.32432 0.79556 0.57483 0.0
H853 H 0.22677 0.3237 0.68178 0.0
H854 H 0.19207 0.34255 0.65805 0.0
H855 H 0.24344 0.42625 0.66631 0.0
H856 H 0.27778 0.40752 0.69069 0.0
H857 H 0.19708 0.4267 0.68064 0.0
H858 H 0.22958 0.38725 0.60126 0.0
H859 H 0.24067 0.3502 0.57388 0.0
H860 H 0.15897 0.30351 0.56933 0.0
H861 H 0.14746 0.33975 0.59758 0.0
H862 H 0.13311 0.5006 0.58201 0.0
H863 H 0.16428 0.47605 0.60317 0.0
H864 H 0.10193 0.39926 0.60543 0.0
H865 H 0.07024 0.42385 0.58394 0.0
H866 H 0.15107 0.39298 0.58616 0.0
H867 H 0.11944 0.4332 0.66619 0.0
H868 H 0.109 0.47143 0.69223 0.0
H869 H 0.19062 0.51837 0.69282 0.0
H870 H 0.20148 0.48057 0.66641 0.0
C871 C 0.23065 0.34611 0.67839 0.0
C872 C 0.25499 0.36413 0.68819 0.0
C873 C 0.21084 0.35688 0.66472 0.0
C874 C 0.21514 0.38587 0.65999 0.0
C875 C 0.23951 0.40383 0.66972 0.0
C876 C 0.25915 0.39312 0.68372 0.0
C877 C 0.19415 0.39775 0.64574 0.0
C878 C 0.1873 0.41942 0.65983 0.0
C879 C 0.18074 0.38793 0.61885 0.0
C880 C 0.18771 0.36609 0.6019 0.0
C881 C 0.21401 0.36893 0.59474 0.0
C882 C 0.22037 0.34809 0.57903 0.0
C883 C 0.20054 0.32456 0.56985 0.0
C884 C 0.17431 0.32175 0.57647 0.0
C885 C 0.16787 0.34239 0.59241 0.0
C886 C 0.12587 0.47847 0.58692 0.0
C887 C 0.09901 0.46428 0.58162 0.0
C888 C 0.1438 0.46446 0.59905 0.0
C889 C 0.13539 0.43592 0.60624 0.0
C890 C 0.1088 0.42135 0.60016 0.0
C891 C 0.0907 0.43545 0.58806 0.0
C892 C 0.15441 0.42186 0.62104 0.0
C893 C 0.16085 0.39993 0.60707 0.0
C894 C 0.16766 0.43153 0.64791 0.0
C895 C 0.16123 0.45413 0.66413 0.0
C896 C 0.13513 0.45175 0.67171 0.0
C897 C 0.12914 0.47333 0.68655 0.0
C898 C 0.14913 0.49734 0.69412 0.0
C899 C 0.17516 0.49977 0.68693 0.0
C900 C 0.18125 0.47826 0.67206 0.0
H901 H 0.14445 0.51403 0.7056 0.0
H902 H 0.20551 0.30851 0.55759 0.0
H903 H 0.66524 0.30979 0.67367 0.0
H904 H 0.64098 0.26759 0.64735 0.0
H905 H 0.61835 0.22532 0.72864 0.0
H906 H 0.64226 0.26785 0.75514 0.0
H907 H 0.64052 0.19453 0.68525 0.0
H908 H 0.57293 0.24227 0.69542 0.0
H909 H 0.55389 0.28275 0.69226 0.0
H910 H 0.56294 0.2884 0.6001 0.0
H911 H 0.58244 0.24822 0.60278 0.0
H912 H 0.54721 0.07752 0.61557 0.0
H913 H 0.5718 0.11527 0.64783 0.0
H914 H 0.5782 0.17426 0.57618 0.0
H915 H 0.55277 0.13696 0.54443 0.0
H916 H 0.56245 0.19504 0.61946 0.0
H917 H 0.63218 0.15044 0.60804 0.0
H918 H 0.65302 0.11128 0.60956 0.0
H919 H 0.64229 0.10086 0.70125 0.0
H920 H 0.62107 0.13975 0.7002 0.0
C921 C 0.65505 0.2915 0.6859 0.0
C922 C 0.65556 0.29202 0.7164 0.0
C923 C 0.64121 0.26747 0.67088 0.0
C924 C 0.62794 0.24338 0.68608 0.0
C925 C 0.62854 0.24372 0.71657 0.0
C926 C 0.642 0.26799 0.73162 0.0
C927 C 0.61331 0.21806 0.66983 0.0
C928 C 0.62317 0.19435 0.67118 0.0
C929 C 0.59112 0.21822 0.65104 0.0
C930 C 0.5794 0.24241 0.64936 0.0
C931 C 0.57111 0.25232 0.67452 0.0
C932 C 0.56018 0.27517 0.67281 0.0
C933 C 0.55727 0.28819 0.64601 0.0
C934 C 0.56524 0.27833 0.62085 0.0
C935 C 0.57621 0.2555 0.62245 0.0
C936 C 0.55434 0.09846 0.60667 0.0
C937 C 0.54806 0.10435 0.57754 0.0
C938 C 0.5684 0.12005 0.6251 0.0
C939 C 0.57694 0.14773 0.6145 0.0
C940 C 0.57166 0.15321 0.58502 0.0
C941 C 0.55725 0.13184 0.56683 0.0
C942 C 0.58995 0.17142 0.63415 0.0
C943 C 0.57971 0.19494 0.63355 0.0
C944 C 0.61201 0.17115 0.6533 0.0
C945 C 0.62477 0.14779 0.65397 0.0
C946 C 0.63407 0.13965 0.62848 0.0
C947 C 0.64599 0.11753 0.62926 0.0
C948 C 0.6489 0.10353 0.65546 0.0
C949 C 0.63997 0.11168 0.68096 0.0
C950 C 0.62802 0.13378 0.68029 0.0
H951 H 0.65813 0.08641 0.65603 0.0
H952 H 0.54879 0.30587 0.64472 0.0
H953 H 0.77221 0.72571 0.616 0.0
H954 H 0.81144 0.71093 0.60407 0.0
H955 H 0.76704 0.62442 0.61202 0.0
H956 H 0.72818 0.63916 0.62464 0.0
H957 H 0.81447 0.63257 0.63841 0.0
H958 H 0.77868 0.66049 0.54827 0.0
H959 H 0.76409 0.6934 0.51457 0.0
H960 H 0.84399 0.74466 0.51198 0.0
H961 H 0.85882 0.71338 0.54765 0.0
H962 H 0.89534 0.56502 0.56847 0.0
H963 H 0.85803 0.58455 0.57509 0.0
H964 H 0.9113 0.66727 0.58218 0.0
H965 H 0.94899 0.64786 0.57573 0.0
H966 H 0.86098 0.66266 0.54746 0.0
H967 H 0.89505 0.63875 0.64145 0.0
H968 H 0.9102 0.60718 0.67659 0.0
H969 H 0.83381 0.54793 0.66878 0.0
H970 H 0.81834 0.579 0.63321 0.0
C971 C 0.77102 0.70357 0.61536 0.0
C972 C 0.74734 0.68355 0.62138 0.0
C973 C 0.79331 0.69515 0.6084 0.0
C974 C 0.79209 0.66656 0.60687 0.0
C975 C 0.76844 0.64659 0.61309 0.0
C976 C 0.74626 0.655 0.62024 0.0
C977 C 0.81538 0.65721 0.59901 0.0
C978 C 0.82442 0.63902 0.61838 0.0
C979 C 0.82876 0.66609 0.57308 0.0
C980 C 0.81982 0.68474 0.5512 0.0
C981 C 0.79312 0.67905 0.54105 0.0
C982 C 0.78478 0.69751 0.52163 0.0
C983 C 0.80311 0.72103 0.51102 0.0
C984 C 0.82979 0.72642 0.52022 0.0
C985 C 0.83813 0.7085 0.54032 0.0
C986 C 0.89917 0.58741 0.57122 0.0
C987 C 0.92516 0.60487 0.57202 0.0
C988 C 0.87782 0.59851 0.5749 0.0
C989 C 0.88202 0.62726 0.5793 0.0
C990 C 0.90775 0.645 0.57879 0.0
C991 C 0.92923 0.63385 0.57538 0.0
C992 C 0.85974 0.63826 0.58689 0.0
C993 C 0.85094 0.65654 0.5675 0.0
C994 C 0.84651 0.62961 0.61276 0.0
C995 C 0.85563 0.61107 0.63446 0.0
C996 C 0.88155 0.61889 0.64705 0.0
C997 C 0.89018 0.60111 0.66708 0.0
C998 C 0.873 0.57553 0.67486 0.0
C999 C 0.84711 0.56773 0.6627 0.0
C1000 C 0.83839 0.58543 0.64263 0.0
H1001 H 0.87972 0.56177 0.69035 0.0
H1002 H 0.79663 0.73506 0.49566 0.0
H1003 H 0.30854 0.34681 0.32977 0.0
H1004 H 0.32677 0.36539 0.2835 0.0
H1005 H 0.34652 0.44919 0.31742 0.0
H1006 H 0.3272 0.43058 0.3635 0.0
H1007 H 0.32999 0.45077 0.26332 0.0
H1008 H 0.39358 0.4108 0.3133 0.0
H1009 H 0.41002 0.37447 0.33995 0.0
H1010 H 0.38858 0.32059 0.26608 0.0
H1011 H 0.37164 0.35645 0.23912 0.0
H1012 H 0.43678 0.50125 0.16343 0.0
H1013 H 0.41316 0.48624 0.20776 0.0
H1014 H 0.36303 0.41448 0.16325 0.0
H1015 H 0.38566 0.42998 0.11831 0.0
H1016 H 0.39569 0.4085 0.22245 0.0
H1017 H 0.33239 0.45175 0.17296 0.0
H1018 H 0.31892 0.49068 0.14783 0.0
H1019 H 0.34381 0.54161 0.22334 0.0
H1020 H 0.35833 0.50338 0.24868 0.0
C1021 C 0.31673 0.3692 0.32729 0.0
C1022 C 0.31676 0.38726 0.35026 0.0
C1023 C 0.32723 0.37982 0.30089 0.0
C1024 C 0.33865 0.40867 0.29713 0.0
C1025 C 0.33796 0.42685 0.3198 0.0
C1026 C 0.32698 0.41624 0.3461 0.0
C1027 C 0.35177 0.41962 0.2698 0.0
C1028 C 0.34457 0.4417 0.25462 0.0
C1029 C 0.37076 0.40778 0.25821 0.0
C1030 C 0.38112 0.38623 0.27428 0.0
C1031 C 0.39221 0.39113 0.3028 0.0
C1032 C 0.40163 0.37063 0.31796 0.0
C1033 C 0.40028 0.34521 0.30474 0.0
C1034 C 0.38958 0.34027 0.2763 0.0
C1035 C 0.38008 0.36069 0.26106 0.0
C1036 C 0.4204 0.48259 0.16281 0.0
C1037 C 0.41296 0.46697 0.13718 0.0
C1038 C 0.407 0.47402 0.18822 0.0
C1039 C 0.38636 0.44935 0.18863 0.0
C1040 C 0.37886 0.43367 0.1632 0.0
C1041 C 0.39178 0.44261 0.13757 0.0
C1042 C 0.37355 0.43915 0.21603 0.0
C1043 C 0.38104 0.41741 0.23126 0.0
C1044 C 0.35526 0.45163 0.22786 0.0
C1045 C 0.34682 0.4748 0.21257 0.0
C1046 C 0.33545 0.47142 0.18406 0.0
C1047 C 0.32758 0.49337 0.1698 0.0
C1048 C 0.33063 0.51867 0.18397 0.0
C1049 C 0.34164 0.52209 0.21238 0.0
C1050 C 0.34972 0.50031 0.22669 0.0
H1051 H 0.32436 0.53559 0.173 0.0
H1052 H 0.40758 0.32936 0.31652 0.0
H1053 H 0.3751 0.71667 0.81784 0.0
H1054 H 0.39535 0.7018 0.86274 0.0
H1055 H 0.35873 0.61539 0.8415 0.0
H1056 H 0.33813 0.63025 0.79703 0.0
H1057 H 0.35764 0.62344 0.89902 0.0
H1058 H 0.42326 0.64726 0.82615 0.0
H1059 H 0.45072 0.67832 0.79058 0.0
H1060 H 0.48462 0.73749 0.8578 0.0
H1061 H 0.45711 0.7069 0.89371 0.0
H1062 H 0.441 0.5511 0.97482 0.0
H1063 H 0.41345 0.5719 0.94181 0.0
H1064 H 0.46191 0.65444 0.96415 0.0
H1065 H 0.49058 0.63346 0.99601 0.0
H1066 H 0.45571 0.65227 0.90961 0.0
H1067 H 0.39375 0.62534 0.98421 0.0
H1068 H 0.36732 0.59303 0.01961 0.0
H1069 H 0.32661 0.53967 0.95029 0.0
H1070 H 0.35314 0.57131 0.91449 0.0
C1071 C 0.37111 0.69455 0.8231 0.0
C1072 C 0.3551 0.67462 0.80403 0.0
C1073 C 0.38275 0.68605 0.84862 0.0
C1074 C 0.37886 0.65743 0.85535 0.0
C1075 C 0.36203 0.63756 0.83683 0.0
C1076 C 0.35033 0.64606 0.81138 0.0
C1077 C 0.39343 0.64802 0.88066 0.0
C1078 C 0.3791 0.62963 0.90134 0.0
C1079 C 0.4214 0.65659 0.88411 0.0
C1080 C 0.43792 0.67496 0.86253 0.0
C1081 C 0.43642 0.667 0.83329 0.0
C1082 C 0.45202 0.68449 0.81308 0.0
C1083 C 0.46935 0.7099 0.82191 0.0
C1084 C 0.47116 0.71783 0.85098 0.0
C1085 C 0.45558 0.70042 0.87127 0.0
C1086 C 0.44544 0.57372 0.97326 0.0
C1087 C 0.46793 0.59066 0.98814 0.0
C1088 C 0.42955 0.58565 0.95438 0.0
C1089 C 0.43523 0.61487 0.95062 0.0
C1090 C 0.45703 0.63186 0.96655 0.0
C1091 C 0.47334 0.61988 0.98491 0.0
C1092 C 0.42002 0.62748 0.92818 0.0
C1093 C 0.43424 0.64641 0.90784 0.0
C1094 C 0.39195 0.61943 0.92517 0.0
C1095 C 0.37555 0.60067 0.94665 0.0
C1096 C 0.37924 0.60666 0.97651 0.0
C1097 C 0.36423 0.58847 0.99665 0.0
C1098 C 0.34529 0.56435 0.98721 0.0
C1099 C 0.34128 0.55838 0.95758 0.0
C1100 C 0.35628 0.57645 0.93734 0.0
H1101 H 0.33371 0.55029 1.00285 0.0
H1102 H 0.48142 0.72341 0.80624 0.0
H1103 H 0.33118 0.4111 0.75186 0.0
H1104 H 0.35648 0.43323 0.79526 0.0
H1105 H 0.34818 0.35209 0.83567 0.0
H1106 H 0.32297 0.32975 0.79212 0.0
H1107 H 0.33926 0.39496 0.87341 0.0
H1108 H 0.40361 0.37961 0.81009 0.0
H1109 H 0.42528 0.38197 0.76367 0.0
H1110 H 0.44377 0.47173 0.76416 0.0
H1111 H 0.42182 0.4699 0.81039 0.0
H1112 H 0.44288 0.44715 0.98525 0.0
H1113 H 0.41231 0.41975 0.9477 0.0
H1114 H 0.42629 0.49254 0.89127 0.0
H1115 H 0.45677 0.51959 0.92813 0.0
H1116 H 0.43239 0.44969 0.86299 0.0
H1117 H 0.36714 0.46639 0.92388 0.0
H1118 H 0.34461 0.46574 0.96949 0.0
H1119 H 0.32706 0.37603 0.97321 0.0
H1120 H 0.34982 0.37617 0.92778 0.0
C1121 C 0.33455 0.39798 0.77008 0.0
C1122 C 0.32514 0.36867 0.76854 0.0
C1123 C 0.34906 0.41064 0.79482 0.0
C1124 C 0.35426 0.3943 0.81868 0.0
C1125 C 0.34435 0.36508 0.81754 0.0
C1126 C 0.33014 0.35236 0.79258 0.0
C1127 C 0.37098 0.40784 0.8442 0.0
C1128 C 0.35976 0.40659 0.87132 0.0
C1129 C 0.39755 0.42342 0.84131 0.0
C1130 C 0.41084 0.4246 0.81356 0.0
C1131 C 0.41209 0.39985 0.80017 0.0
C1132 C 0.42446 0.40109 0.77392 0.0
C1133 C 0.43583 0.42698 0.76093 0.0
C1134 C 0.43491 0.45169 0.77422 0.0
C1135 C 0.42253 0.45056 0.80046 0.0
C1136 C 0.43904 0.45734 0.96501 0.0
C1137 C 0.45247 0.48545 0.95958 0.0
C1138 C 0.42159 0.44169 0.94354 0.0
C1139 C 0.41709 0.45402 0.91648 0.0
C1140 C 0.42962 0.48241 0.91174 0.0
C1141 C 0.44704 0.49789 0.93294 0.0
C1142 C 0.40062 0.4374 0.8923 0.0
C1143 C 0.41195 0.43796 0.8653 0.0
C1144 C 0.37412 0.42148 0.89532 0.0
C1145 C 0.36046 0.42131 0.92262 0.0
C1146 C 0.35869 0.44654 0.93456 0.0
C1147 C 0.34584 0.44626 0.96035 0.0
C1148 C 0.33449 0.42086 0.9743 0.0
C1149 C 0.33591 0.39568 0.96242 0.0
C1150 C 0.34877 0.39585 0.93664 0.0
H1151 H 0.32454 0.42068 0.99426 0.0
H1152 H 0.44541 0.4279 0.74061 0.0
H1153 H 0.62966 0.37346 0.75665 0.0
H1154 H 0.6116 0.4015 0.78906 0.0
H1155 H 0.67117 0.39591 0.85571 0.0
H1156 H 0.68971 0.36848 0.82307 0.0
H1157 H 0.61613 0.38585 0.87447 0.0
H1158 H 0.68327 0.45198 0.82392 0.0
H1159 H 0.70668 0.47464 0.78117 0.0
H1160 H 0.63678 0.49708 0.74822 0.0
H1161 H 0.61277 0.47407 0.79055 0.0
H1162 H 0.59521 0.4907 0.96541 0.0
H1163 H 0.61854 0.46575 0.93557 0.0
H1164 H 0.56957 0.47729 0.86034 0.0
H1165 H 0.54626 0.50223 0.88991 0.0
H1166 H 0.62156 0.48478 0.84735 0.0
H1167 H 0.55386 0.4171 0.89608 0.0
H1168 H 0.52982 0.39471 0.93858 0.0
H1169 H 0.60019 0.37537 0.97486 0.0
H1170 H 0.62477 0.39802 0.9327 0.0
C1171 C 0.63865 0.37796 0.77835 0.0
C1172 C 0.661 0.36885 0.78748 0.0
C1173 C 0.62844 0.39404 0.79674 0.0
C1174 C 0.64016 0.40084 0.82468 0.0
C1175 C 0.66188 0.39086 0.83423 0.0
C1176 C 0.67244 0.37528 0.81562 0.0
C1177 C 0.63019 0.41909 0.84355 0.0
C1178 C 0.61768 0.40761 0.86885 0.0
C1179 C 0.63184 0.4473 0.83584 0.0
C1180 C 0.64611 0.46094 0.81021 0.0
C1181 C 0.67277 0.46142 0.80738 0.0
C1182 C 0.68618 0.4744 0.78326 0.0
C1183 C 0.6732 0.4872 0.76194 0.0
C1184 C 0.64679 0.48709 0.76472 0.0
C1185 C 0.63327 0.47408 0.78877 0.0
C1186 C 0.58972 0.48832 0.94242 0.0
C1187 C 0.5687 0.49813 0.93008 0.0
C1188 C 0.60294 0.4739 0.92545 0.0
C1189 C 0.59545 0.46924 0.89586 0.0
C1190 C 0.57553 0.48047 0.88317 0.0
C1191 C 0.56219 0.49466 0.90013 0.0
C1192 C 0.60744 0.4516 0.87835 0.0
C1193 C 0.62024 0.46313 0.85321 0.0
C1194 C 0.606 0.42341 0.88617 0.0
C1195 C 0.59123 0.40954 0.91141 0.0
C1196 C 0.56427 0.40827 0.91323 0.0
C1197 C 0.55053 0.3955 0.93723 0.0
C1198 C 0.5635 0.38371 0.95946 0.0
C1199 C 0.5902 0.38457 0.95765 0.0
C1200 C 0.60404 0.39735 0.9337 0.0
H1201 H 0.55284 0.37385 0.97805 0.0
H1202 H 0.68363 0.49729 0.7433 0.0
H1203 H 0.62791 0.68175 0.71402 0.0
H1204 H 0.60983 0.65663 0.7578 0.0
H1205 H 0.68849 0.67414 0.79879 0.0
H1206 H 0.70673 0.69833 0.75438 0.0
H1207 H 0.66254 0.62372 0.81322 0.0
H1208 H 0.6436 0.71264 0.81325 0.0
H1209 H 0.62678 0.75181 0.79381 0.0
H1210 H 0.54794 0.69746 0.78624 0.0
H1211 H 0.56437 0.65783 0.8052 0.0
H1212 H 0.6139 0.60584 0.9591 0.0
H1213 H 0.6359 0.62501 0.91461 0.0
H1214 H 0.56372 0.58969 0.8637 0.0
H1215 H 0.54174 0.57003 0.90776 0.0
H1216 H 0.58778 0.64961 0.85594 0.0
H1217 H 0.60914 0.56075 0.85901 0.0
H1218 H 0.62786 0.52438 0.88201 0.0
H1219 H 0.705 0.58223 0.88749 0.0
H1220 H 0.68664 0.61935 0.86533 0.0
C1221 C 0.6413 0.68014 0.73239 0.0
C1222 C 0.66864 0.69215 0.73102 0.0
C1223 C 0.63098 0.66588 0.75742 0.0
C1224 C 0.64771 0.66403 0.7819 0.0
C1225 C 0.67516 0.67537 0.78026 0.0
C1226 C 0.68556 0.68921 0.75495 0.0
C1227 C 0.63641 0.65081 0.80933 0.0
C1228 C 0.64643 0.62967 0.82275 0.0
C1229 C 0.61525 0.65838 0.82176 0.0
C1230 C 0.60527 0.68219 0.81039 0.0
C1231 C 0.62271 0.70898 0.80723 0.0
C1232 C 0.61324 0.73128 0.79632 0.0
C1233 C 0.58632 0.72711 0.78872 0.0
C1234 C 0.5688 0.70065 0.79209 0.0
C1235 C 0.57818 0.67826 0.80293 0.0
C1236 C 0.60282 0.60189 0.93839 0.0
C1237 C 0.57603 0.58662 0.93697 0.0
C1238 C 0.61542 0.61279 0.91304 0.0
C1239 C 0.60135 0.6088 0.88599 0.0
C1240 C 0.57484 0.59302 0.88444 0.0
C1241 C 0.56236 0.58177 0.90964 0.0
C1242 C 0.61369 0.62244 0.85944 0.0
C1243 C 0.60391 0.64375 0.84632 0.0
C1244 C 0.63534 0.61539 0.84772 0.0
C1245 C 0.64643 0.59297 0.8608 0.0
C1246 C 0.63004 0.56586 0.86541 0.0
C1247 C 0.6406 0.54506 0.87824 0.0
C1248 C 0.66758 0.55094 0.88619 0.0
C1249 C 0.68409 0.57769 0.88134 0.0
C1250 C 0.67361 0.59865 0.86868 0.0
H1251 H 0.6757 0.53476 0.89607 0.0
H1252 H 0.57903 0.7444 0.78029 0.0
H1253 H 0.6765 0.68637 0.29129 0.0
H1254 H 0.65334 0.66017 0.24954 0.0
H1255 H 0.58139 0.68009 0.27039 0.0
H1256 H 0.60375 0.70404 0.31395 0.0
H1257 H 0.56817 0.63046 0.25343 0.0
H1258 H 0.62344 0.71334 0.21249 0.0
H1259 H 0.66472 0.74968 0.20375 0.0
H1260 H 0.6985 0.68783 0.16995 0.0
H1261 H 0.65753 0.65103 0.17885 0.0
H1262 H 0.50232 0.592 0.11635 0.0
H1263 H 0.52734 0.62242 0.15517 0.0
H1264 H 0.59187 0.58441 0.14944 0.0
H1265 H 0.56665 0.5538 0.11055 0.0
H1266 H 0.60816 0.64407 0.15731 0.0
H1267 H 0.54961 0.56138 0.2 0.0
H1268 H 0.50554 0.52843 0.20467 0.0
H1269 H 0.47499 0.59539 0.23179 0.0
H1270 H 0.51883 0.62882 0.22693 0.0
C1271 C 0.65563 0.68486 0.28749 0.0
C1272 C 0.64219 0.69755 0.30639 0.0
C1273 C 0.64245 0.67021 0.26306 0.0
C1274 C 0.61563 0.66855 0.25615 0.0
C1275 C 0.6021 0.68109 0.27495 0.0
C1276 C 0.61512 0.69522 0.29979 0.0
C1277 C 0.60164 0.65336 0.22968 0.0
C1278 C 0.57688 0.63385 0.23241 0.0
C1279 C 0.61282 0.65733 0.20202 0.0
C1280 C 0.6375 0.67939 0.19661 0.0
C1281 C 0.63974 0.70746 0.20339 0.0
C1282 C 0.66307 0.72814 0.19837 0.0
C1283 C 0.68424 0.72106 0.18637 0.0
C1284 C 0.6821 0.69328 0.17929 0.0
C1285 C 0.65881 0.6725 0.18429 0.0
C1286 C 0.52207 0.5906 0.12303 0.0
C1287 C 0.53276 0.57085 0.11047 0.0
C1288 C 0.53628 0.60786 0.14525 0.0
C1289 C 0.56138 0.60551 0.15541 0.0
C1290 C 0.57258 0.58661 0.1419 0.0
C1291 C 0.55826 0.56922 0.11971 0.0
C1292 C 0.57506 0.62141 0.18134 0.0
C1293 C 0.59965 0.64091 0.17845 0.0
C1294 C 0.56347 0.61794 0.20865 0.0
C1295 C 0.53746 0.59762 0.21295 0.0
C1296 C 0.53349 0.56908 0.20693 0.0
C1297 C 0.50855 0.55032 0.2096 0.0
C1298 C 0.48748 0.55982 0.21851 0.0
C1299 C 0.49135 0.58807 0.22494 0.0
C1300 C 0.51624 0.60692 0.22227 0.0
H1301 H 0.46815 0.5453 0.22041 0.0
H1302 H 0.70229 0.7371 0.1825 0.0
H1303 H 0.28621 0.6451 0.27615 0.0
H1304 H 0.30718 0.61528 0.24943 0.0
H1305 H 0.35766 0.68875 0.21009 0.0
H1306 H 0.33676 0.71854 0.23678 0.0
H1307 H 0.33794 0.64716 0.17056 0.0
H1308 H 0.38303 0.65808 0.26481 0.0
H1309 H 0.38608 0.65691 0.31841 0.0
H1310 H 0.34788 0.56876 0.31817 0.0
H1311 H 0.34422 0.56953 0.2646 0.0
H1312 H 0.45195 0.5755 0.1688 0.0
H1313 H 0.42514 0.59869 0.19521 0.0
H1314 H 0.35776 0.56353 0.13689 0.0
H1315 H 0.38485 0.54072 0.10979 0.0
H1316 H 0.38417 0.58488 0.22522 0.0
H1317 H 0.3199 0.60881 0.12689 0.0
H1318 H 0.32202 0.61592 0.07376 0.0
H1319 H 0.4069 0.64291 0.08258 0.0
H1320 H 0.40526 0.63627 0.13576 0.0
C1321 C 0.30173 0.65476 0.26169 0.0
C1322 C 0.31 0.68402 0.25855 0.0
C1323 C 0.31368 0.63779 0.24652 0.0
C1324 C 0.33405 0.64984 0.22792 0.0
C1325 C 0.34192 0.67906 0.22428 0.0
C1326 C 0.33008 0.69603 0.23958 0.0
C1327 C 0.34773 0.6321 0.21287 0.0
C1328 C 0.34784 0.63332 0.18244 0.0
C1329 C 0.36106 0.6145 0.22846 0.0
C1330 C 0.36321 0.61389 0.26068 0.0
C1331 C 0.37512 0.63849 0.2762 0.0
C1332 C 0.37698 0.6379 0.30658 0.0
C1333 C 0.36715 0.61278 0.32169 0.0
C1334 C 0.35548 0.5882 0.30644 0.0
C1335 C 0.35355 0.58869 0.27605 0.0
C1336 C 0.43136 0.57247 0.16169 0.0
C1337 C 0.4206 0.55655 0.13697 0.0
C1338 C 0.41599 0.5857 0.17691 0.0
C1339 C 0.38949 0.58323 0.16785 0.0
C1340 C 0.37831 0.56622 0.14397 0.0
C1341 C 0.39378 0.55314 0.12852 0.0
C1342 C 0.37421 0.59961 0.1827 0.0
C1343 C 0.37385 0.59825 0.21318 0.0
C1344 C 0.36121 0.61763 0.16717 0.0
C1345 C 0.36244 0.62177 0.13524 0.0
C1346 C 0.339 0.61632 0.11747 0.0
C1347 C 0.34012 0.62026 0.08736 0.0
C1348 C 0.36458 0.62981 0.07481 0.0
C1349 C 0.38797 0.63544 0.09233 0.0
C1350 C 0.38696 0.63157 0.12245 0.0
H1351 H 0.3654 0.63298 0.05152 0.0
H1352 H 0.3686 0.61236 0.34521 0.0
H1353 H 0.67517 0.42477 0.26323 0.0
H1354 H 0.65439 0.43983 0.21885 0.0
H1355 H 0.59062 0.36414 0.22153 0.0
H1356 H 0.61162 0.34895 0.26572 0.0
H1357 H 0.60445 0.37774 0.16613 0.0
H1358 H 0.58387 0.42504 0.24813 0.0
H1359 H 0.59374 0.45471 0.29161 0.0
H1360 H 0.63765 0.52365 0.24088 0.0
H1361 H 0.62835 0.49423 0.19715 0.0
H1362 H 0.4973 0.41959 0.09363 0.0
H1363 H 0.52887 0.40268 0.1252 0.0
H1364 H 0.58779 0.48102 0.11368 0.0
H1365 H 0.55631 0.4982 0.0821 0.0
H1366 H 0.58059 0.46786 0.17047 0.0
H1367 H 0.59658 0.4217 0.08697 0.0
H1368 H 0.58508 0.39214 0.04347 0.0
H1369 H 0.54865 0.32128 0.09642 0.0
H1370 H 0.55956 0.35051 0.14022 0.0
C1371 C 0.65682 0.41132 0.25416 0.0
C1372 C 0.64464 0.38601 0.26814 0.0
C1373 C 0.64495 0.41992 0.22887 0.0
C1374 C 0.62067 0.40336 0.21712 0.0
C1375 C 0.60925 0.37734 0.23024 0.0
C1376 C 0.62116 0.36873 0.25552 0.0
C1377 C 0.60646 0.41376 0.19218 0.0
C1378 C 0.59907 0.39735 0.16713 0.0
C1379 C 0.59996 0.43968 0.19315 0.0
C1380 C 0.60571 0.45733 0.21946 0.0
C1381 C 0.59585 0.44644 0.24631 0.0
C1382 C 0.6013 0.46323 0.27098 0.0
C1383 C 0.61639 0.49102 0.26903 0.0
C1384 C 0.62602 0.5021 0.24237 0.0
C1385 C 0.62067 0.48538 0.21764 0.0
C1386 C 0.51715 0.43303 0.09724 0.0
C1387 C 0.52418 0.46032 0.08538 0.0
C1388 C 0.53524 0.42327 0.11526 0.0
C1389 C 0.56073 0.44056 0.12183 0.0
C1390 C 0.56823 0.46731 0.10891 0.0
C1391 C 0.55022 0.47703 0.09069 0.0
C1392 C 0.57839 0.43179 0.14444 0.0
C1393 C 0.58632 0.44845 0.1692 0.0
C1394 C 0.58526 0.40611 0.14316 0.0
C1395 C 0.57872 0.38839 0.11688 0.0
C1396 C 0.58592 0.39987 0.08933 0.0
C1397 C 0.57954 0.38317 0.06461 0.0
C1398 C 0.5661 0.35487 0.06717 0.0
C1399 C 0.55905 0.34321 0.09447 0.0
C1400 C 0.56536 0.35984 0.11926 0.0
H1401 H 0.56117 0.34197 0.04801 0.0
H1402 H 0.62056 0.50399 0.28815 0.0
loop_
_geom_bond_atom_site_label_1
_geom_bond_atom_site_label_2
_geom_bond_distance
_geom_bond_site_symmetry_2
_ccdc_geom_bond_type
H0 C7 0.929 . S
H1 C10 0.930 . S
H2 C12 0.929 . S
H3 C4 0.969 . S
C4 H3 0.969 . S
C4 O5 1.550 . S
C4 H6 0.973 . S
O5 C4 1.550 . S
O5 C11 1.412 . S
H6 C4 0.973 . S
C7 H0 0.929 . S
C7 C8 1.400 . S
C7 C9 1.364 . S
C8 C7 1.400 . S
C8 C12 1.377 . S
C9 C7 1.364 . S
C9 C10 1.374 . S
C10 H1 0.930 . S
C10 C9 1.374 . S
C10 C11 1.383 . S
C11 O5 1.412 . S
C11 C10 1.383 . S
C11 C12 1.394 . S
C12 H2 0.929 . S
C12 C8 1.377 . S
C12 C11 1.394 . S
H13 C20 0.929 . S
H14 C23 0.930 . S
H15 C25 0.929 . S
H16 C17 0.969 . S
C17 H16 0.969 . S
C17 O18 1.550 . S
C17 H19 0.973 . S
O18 C17 1.550 . S
O18 C24 1.412 . S
H19 C17 0.973 . S
C20 H13 0.929 . S
C20 C21 1.400 . S
C20 C22 1.364 . S
C21 C20 1.400 . S
C21 C25 1.377 . S
C22 C20 1.364 . S
C22 C23 1.374 . S
C23 H14 0.930 . S
C23 C22 1.374 . S
C23 C24 1.383 . S
C24 O18 1.412 . S
C24 C23 1.383 . S
C24 C25 1.394 . S
C25 H15 0.929 . S
C25 C21 1.377 . S
C25 C24 1.394 . S
H26 C33 0.929 . S
H27 C36 0.930 . S
H28 C38 0.929 . S
H29 C30 0.969 . S
C30 H29 0.969 . S
C30 O31 1.550 . S
C30 H32 0.973 . S
O31 C30 1.550 . S
O31 C37 1.412 . S
H32 C30 0.973 . S
C33 H26 0.929 . S
C33 C34 1.400 . S
C33 C35 1.364 . S
C34 C33 1.400 . S
C34 C38 1.377 . S
C35 C33 1.364 . S
C35 C36 1.374 . S
C36 H27 0.930 . S
C36 C35 1.374 . S
C36 C37 1.383 . S
C37 O31 1.412 . S
C37 C36 1.383 . S
C37 C38 1.394 . S
C38 H28 0.929 . S
C38 C34 1.377 . S
C38 C37 1.394 . S
H39 C46 0.929 . S
H40 C49 0.930 . S
H41 C51 0.929 . S
H42 C43 0.969 . S
C43 H42 0.969 . S
C43 O44 1.550 . S
C43 H45 0.973 . S
O44 C43 1.550 . S
O44 C50 1.412 . S
H45 C43 0.973 . S
C46 H39 0.929 . S
C46 C47 1.400 . S
C46 C48 1.364 . S
C47 C46 1.400 . S
C47 C51 1.377 . S
C48 C46 1.364 . S
C48 C49 1.374 . S
C49 H40 0.930 . S
C49 C48 1.374 . S
C49 C50 1.383 . S
C50 O44 1.412 . S
C50 C49 1.383 . S
C50 C51 1.394 . S
C51 H41 0.929 . S
C51 C47 1.377 . S
C51 C50 1.394 . S
H52 C59 0.929 . S
H53 C62 0.930 . S
H54 C64 0.929 . S
H55 C56 0.969 . S
C56 H55 0.969 . S
C56 O57 1.550 . S
C56 H58 0.973 . S
O57 C56 1.550 . S
O57 C63 1.412 . S
H58 C56 0.973 . S
C59 H52 0.929 . S
C59 C60 1.400 . S
C59 C61 1.364 . S
C60 C59 1.400 . S
C60 C64 1.377 . S
C61 C59 1.364 . S
C61 C62 1.374 . S
C62 H53 0.930 . S
C62 C61 1.374 . S
C62 C63 1.383 . S
C63 O57 1.412 . S
C63 C62 1.383 . S
C63 C64 1.394 . S
C64 H54 0.929 . S
C64 C60 1.377 . S
C64 C63 1.394 . S
H65 C72 0.929 . S
H66 C75 0.930 . S
H67 C77 0.929 . S
H68 C69 0.969 . S
C69 H68 0.969 . S
C69 O70 1.550 . S
C69 H71 0.973 . S
O70 C69 1.550 . S
O70 C76 1.412 . S
H71 C69 0.973 . S
C72 H65 0.929 . S
C72 C73 1.400 . S
C72 C74 1.364 . S
C73 C72 1.400 . S
C73 C77 1.377 . S
C74 C72 1.364 . S
C74 C75 1.374 . S
C75 H66 0.930 . S
C75 C74 1.374 . S
C75 C76 1.383 . S
C76 O70 1.412 . S
C76 C75 1.383 . S
C76 C77 1.394 . S
C77 H67 0.929 . S
C77 C73 1.377 . S
C77 C76 1.394 . S
H78 C85 0.929 . S
H79 C88 0.930 . S
H80 C90 0.929 . S
H81 C82 0.969 . S
C82 H81 0.969 . S
C82 O83 1.550 . S
C82 H84 0.973 . S
O83 C82 1.550 . S
O83 C89 1.412 . S
H84 C82 0.973 . S
C85 H78 0.929 . S
C85 C86 1.400 . S
C85 C87 1.364 . S
C86 C85 1.400 . S
C86 C90 1.377 . S
C87 C85 1.364 . S
C87 C88 1.374 . S
C88 H79 0.930 . S
C88 C87 1.374 . S
C88 C89 1.383 . S
C89 O83 1.412 . S
C89 C88 1.383 . S
C89 C90 1.394 . S
C90 H80 0.929 . S
C90 C86 1.377 . S
C90 C89 1.394 . S
H91 C98 0.929 . S
H92 C101 0.930 . S
H93 C103 0.929 . S
H94 C95 0.969 . S
C95 H94 0.969 . S
C95 O96 1.550 . S
C95 H97 0.973 . S
O96 C95 1.550 . S
O96 C102 1.412 . S
H97 C95 0.973 . S
C98 H91 0.929 . S
C98 C99 1.400 . S
C98 C100 1.364 . S
C99 C98 1.400 . S
C99 C103 1.377 . S
C100 C98 1.364 . S
C100 C101 1.374 . S
C101 H92 0.930 . S
C101 C100 1.374 . S
C101 C102 1.383 . S
C102 O96 1.412 . S
C102 C101 1.383 . S
C102 C103 1.394 . S
C103 H93 0.929 . S
C103 C99 1.377 . S
C103 C102 1.394 . S
Co104 O107 2.042 . S
Co104 O114 2.264 . S
Co104 O133 2.286 . S
Co104 O134 2.069 . S
Co104 O136 2.015 . S
Co105 O107 2.122 . S
Co105 O113 2.073 . S
Co105 O114 2.327 . S
Co105 O115 1.976 . S
Co106 O107 2.087 . S
Co106 O109 2.087 1_455 S
Co106 O116 2.111 . S
Co106 O117 2.143 1_455 S
Co106 O121 2.111 1_455 S
Co106 O135 2.143 . S
O107 Co104 2.042 . S
O107 Co105 2.122 . S
O107 Co106 2.087 . S
O107 H108 0.980 . S
H108 O107 0.980 . S
O109 Co106 2.087 1_655 S
O109 Co110 2.042 . S
O109 Co111 2.122 . S
O109 H112 0.980 1_655 S
Co110 O109 2.042 . S
Co110 O118 2.286 . S
Co110 O119 2.069 . S
Co110 O120 2.015 . S
Co110 O123 2.264 . S
Co111 O109 2.122 . S
Co111 O122 1.976 . S
Co111 O123 2.327 . S
Co111 O124 2.073 . S
H112 O109 0.980 1_455 S
O113 Co105 2.073 . S
O113 C128 1.245 . S
O114 Co104 2.264 . S
O114 Co105 2.327 . S
O114 C128 1.257 . S
O115 Co105 1.976 . S
O115 C127 1.251 . S
O116 Co106 2.111 . S
O116 C127 1.274 . S
O117 Co106 2.143 1_655 S
O117 C130 1.246 . S
O118 Co110 2.286 . S
O118 C129 1.259 . S
O119 Co110 2.069 . S
O119 C129 1.289 . S
O120 Co110 2.015 . S
O120 C130 1.257 . S
O121 Co106 2.111 1_655 S
O121 C131 1.274 . S
O122 Co111 1.976 . S
O122 C131 1.251 . S
O123 Co110 2.264 . S
O123 Co111 2.327 . S
O123 C132 1.257 . S
O124 Co111 2.073 . S
O124 C132 1.245 . S
C125 O133 1.259 . S
C125 O134 1.289 . S
C126 O135 1.246 . S
C126 O136 1.257 . S
C127 O115 1.251 . S
C127 O116 1.274 . S
C128 O113 1.245 . S
C128 O114 1.257 . S
C129 O118 1.259 . S
C129 O119 1.289 . S
C130 O117 1.246 . S
C130 O120 1.257 . S
C131 O121 1.274 . S
C131 O122 1.251 . S
C132 O123 1.257 . S
C132 O124 1.245 . S
O133 Co104 2.286 . S
O133 C125 1.259 . S
O134 Co104 2.069 . S
O134 C125 1.289 . S
O135 Co106 2.143 . S
O135 C126 1.246 . S
O136 Co104 2.015 . S
O136 C126 1.257 . S
Co137 O140 2.042 . S
Co137 O147 2.264 . S
Co137 O166 2.286 . S
Co137 O167 2.069 . S
Co137 O169 2.015 . S
Co138 O140 2.122 . S
Co138 O146 2.073 . S
Co138 O147 2.327 . S
Co138 O148 1.976 . S
Co139 O140 2.087 1_545 S
Co139 O142 2.087 . S
Co139 O149 2.111 1_545 S
Co139 O150 2.143 . S
Co139 O154 2.111 . S
Co139 O168 2.143 1_545 S
O140 Co137 2.042 . S
O140 Co138 2.122 . S
O140 Co139 2.087 1_565 S
O140 H141 0.980 1_565 S
H141 O140 0.980 1_545 S
O142 Co139 2.087 . S
O142 Co143 2.042 . S
O142 Co144 2.122 . S
O142 H145 0.980 . S
Co143 O142 2.042 . S
Co143 O151 2.286 . S
Co143 O152 2.069 . S
Co143 O153 2.015 . S
Co143 O156 2.264 . S
Co144 O142 2.122 . S
Co144 O155 1.976 . S
Co144 O156 2.327 . S
Co144 O157 2.073 . S
H145 O142 0.980 . S
O146 Co138 2.073 . S
O146 C161 1.245 . S
O147 Co137 2.264 . S
O147 Co138 2.327 . S
O147 C161 1.257 . S
O148 Co138 1.976 . S
O148 C160 1.251 . S
O149 Co139 2.111 1_565 S
O149 C160 1.274 . S
O150 Co139 2.143 . S
O150 C163 1.246 . S
O151 Co143 2.286 . S
O151 C162 1.259 . S
O152 Co143 2.069 . S
O152 C162 1.289 . S
O153 Co143 2.015 . S
O153 C163 1.257 . S
O154 Co139 2.111 . S
O154 C164 1.274 . S
O155 Co144 1.976 . S
O155 C164 1.251 . S
O156 Co143 2.264 . S
O156 Co144 2.327 . S
O156 C165 1.257 . S
O157 Co144 2.073 . S
O157 C165 1.245 . S
C158 O166 1.259 . S
C158 O167 1.289 . S
C159 O168 1.246 . S
C159 O169 1.257 . S
C160 O148 1.251 . S
C160 O149 1.274 . S
C161 O146 1.245 . S
C161 O147 1.257 . S
C162 O151 1.259 . S
C162 O152 1.289 . S
C163 O150 1.246 . S
C163 O153 1.257 . S
C164 O154 1.274 . S
C164 O155 1.251 . S
C165 O156 1.257 . S
C165 O157 1.245 . S
O166 Co137 2.286 . S
O166 C158 1.259 . S
O167 Co137 2.069 . S
O167 C158 1.289 . S
O168 Co139 2.143 1_565 S
O168 C159 1.246 . S
O169 Co137 2.015 . S
O169 C159 1.257 . S
Co170 O173 2.042 . S
Co170 O180 2.264 . S
Co170 O199 2.286 . S
Co170 O200 2.069 . S
Co170 O202 2.015 . S
Co171 O173 2.122 . S
Co171 O179 2.073 . S
Co171 O180 2.327 . S
Co171 O181 1.976 . S
Co172 O173 2.087 . S
Co172 O175 2.087 1_554 S
Co172 O182 2.111 . S
Co172 O183 2.143 1_554 S
Co172 O187 2.111 . S
Co172 O201 2.143 . S
O173 Co170 2.042 . S
O173 Co171 2.122 . S
O173 Co172 2.087 . S
O173 H174 0.980 . S
H174 O173 0.980 . S
O175 Co172 2.087 1_556 S
O175 Co176 2.042 . S
O175 Co177 2.122 . S
O175 H178 0.975 1_556 S
Co176 O175 2.042 . S
Co176 O184 2.286 . S
Co176 O185 2.069 . S
Co176 O186 2.015 . S
Co176 O189 2.264 . S
Co177 O175 2.122 . S
Co177 O188 1.976 . S
Co177 O189 2.327 . S
Co177 O190 2.073 . S
H178 O175 0.975 1_554 S
O179 Co171 2.073 . S
O179 C194 1.245 . S
O180 Co170 2.264 . S
O180 Co171 2.327 . S
O180 C194 1.257 . S
O181 Co171 1.976 . S
O181 C193 1.251 . S
O182 Co172 2.111 . S
O182 C193 1.274 . S
O183 Co172 2.143 1_556 S
O183 C196 1.246 . S
O184 Co176 2.286 . S
O184 C195 1.259 . S
O185 Co176 2.069 . S
O185 C195 1.289 . S
O186 Co176 2.015 . S
O186 C196 1.257 . S
O187 Co172 2.111 . S
O187 C197 1.274 1_554 S
O188 Co177 1.976 . S
O188 C197 1.251 . S
O189 Co176 2.264 . S
O189 Co177 2.327 . S
O189 C198 1.257 . S
O190 Co177 2.073 . S
O190 C198 1.245 . S
C191 O199 1.259 . S
C191 O200 1.289 . S
C192 O201 1.246 . S
C192 O202 1.257 . S
C193 O181 1.251 . S
C193 O182 1.274 . S
C194 O179 1.245 . S
C194 O180 1.257 . S
C195 O184 1.259 . S
C195 O185 1.289 . S
C196 O183 1.246 . S
C196 O186 1.257 . S
C197 O187 1.274 1_556 S
C197 O188 1.251 . S
C198 O189 1.257 . S
C198 O190 1.245 . S
O199 Co170 2.286 . S
O199 C191 1.259 . S
O200 Co170 2.069 . S
O200 C191 1.289 . S
O201 Co172 2.143 . S
O201 C192 1.246 . S
O202 Co170 2.015 . S
O202 C192 1.257 . S
H203 C221 0.951 . S
H204 C223 0.951 . S
H205 C225 0.950 . S
H206 C226 0.950 . S
H207 C228 0.950 . S
H208 C231 0.950 . S
H209 C232 0.950 . S
H210 C234 0.950 . S
H211 C235 0.950 . S
H212 C236 0.951 . S
H213 C238 0.951 . S
H214 C240 0.950 . S
H215 C241 0.950 . S
H216 C243 0.950 . S
H217 C246 0.950 . S
H218 C247 0.950 . S
H219 C249 0.950 . S
H220 C250 0.950 . S
C221 H203 0.951 . S
C221 C222 1.366 . S
C221 C223 1.388 . S
C222 C221 1.366 . S
C222 C226 1.385 . S
C223 H204 0.951 . S
C223 C221 1.388 . S
C223 C224 1.366 . S
C224 C223 1.366 . S
C224 C225 1.414 . S
C224 C227 1.499 . S
C225 H205 0.950 . S
C225 C224 1.414 . S
C225 C226 1.374 . S
C226 H206 0.950 . S
C226 C222 1.385 . S
C226 C225 1.374 . S
C227 C224 1.499 . S
C227 C228 1.373 . S
C227 C229 1.389 . S
C228 H207 0.950 . S
C228 C227 1.373 . S
C228 C244 1.377 . S
C229 C227 1.389 . S
C229 C230 1.524 . S
C229 C243 1.377 . S
C230 C229 1.524 . S
C230 C231 1.397 . S
C230 C235 1.363 . S
C231 H208 0.950 . S
C231 C230 1.397 . S
C231 C232 1.334 . S
C232 H209 0.950 . S
C232 C231 1.334 . S
C232 C233 1.287 . S
C233 C232 1.287 . S
C233 C234 1.524 . S
C233 H252 0.913 . S
C234 H210 0.950 . S
C234 C233 1.524 . S
C234 C235 1.415 . S
C235 H211 0.950 . S
C235 C230 1.363 . S
C235 C234 1.415 . S
C236 H212 0.951 . S
C236 C237 1.366 . S
C236 C238 1.388 . S
C237 C236 1.366 . S
C237 C241 1.385 . S
C238 H213 0.951 . S
C238 C236 1.388 . S
C238 C239 1.366 . S
C239 C238 1.366 . S
C239 C240 1.414 . S
C239 C242 1.499 . S
C240 H214 0.950 . S
C240 C239 1.414 . S
C240 C241 1.374 . S
C241 H215 0.950 . S
C241 C237 1.385 . S
C241 C240 1.374 . S
C242 C239 1.499 . S
C242 C243 1.373 . S
C242 C244 1.389 . S
C243 H216 0.950 . S
C243 C229 1.377 . S
C243 C242 1.373 . S
C244 C228 1.377 . S
C244 C242 1.389 . S
C244 C245 1.524 . S
C245 C244 1.524 . S
C245 C246 1.397 . S
C245 C250 1.363 . S
C246 H217 0.950 . S
C246 C245 1.397 . S
C246 C247 1.334 . S
C247 H218 0.950 . S
C247 C246 1.334 . S
C247 C248 1.287 . S
C248 C247 1.287 . S
C248 C249 1.524 . S
C248 H251 0.999 . S
C249 H219 0.950 . S
C249 C248 1.524 . S
C249 C250 1.415 . S
C250 H220 0.950 . S
C250 C245 1.363 . S
C250 C249 1.415 . S
H251 C248 0.999 . S
H252 C233 0.913 . S
H253 C271 0.951 . S
H254 C273 0.951 . S
H255 C275 0.950 . S
H256 C276 0.950 . S
H257 C278 0.950 . S
H258 C281 0.950 . S
H259 C282 0.950 . S
H260 C284 0.950 . S
H261 C285 0.950 . S
H262 C286 0.951 . S
H263 C288 0.951 . S
H264 C290 0.950 . S
H265 C291 0.950 . S
H266 C293 0.950 . S
H267 C296 0.950 . S
H268 C297 0.950 . S
H269 C299 0.950 . S
H270 C300 0.950 . S
C271 H253 0.951 . S
C271 C272 1.366 . S
C271 C273 1.388 . S
C272 C271 1.366 . S
C272 C276 1.385 . S
C273 H254 0.951 . S
C273 C271 1.388 . S
C273 C274 1.366 . S
C274 C273 1.366 . S
C274 C275 1.414 . S
C274 C277 1.499 . S
C275 H255 0.950 . S
C275 C274 1.414 . S
C275 C276 1.374 . S
C276 H256 0.950 . S
C276 C272 1.385 . S
C276 C275 1.374 . S
C277 C274 1.499 . S
C277 C278 1.373 . S
C277 C279 1.389 . S
C278 H257 0.950 . S
C278 C277 1.373 . S
C278 C294 1.377 . S
C279 C277 1.389 . S
C279 C280 1.524 . S
C279 C293 1.377 . S
C280 C279 1.524 . S
C280 C281 1.397 . S
C280 C285 1.363 . S
C281 H258 0.950 . S
C281 C280 1.397 . S
C281 C282 1.334 . S
C282 H259 0.950 . S
C282 C281 1.334 . S
C282 C283 1.287 . S
C283 C282 1.287 . S
C283 C284 1.524 . S
C283 H302 0.913 . S
C284 H260 0.950 . S
C284 C283 1.524 . S
C284 C285 1.415 . S
C285 H261 0.950 . S
C285 C280 1.363 . S
C285 C284 1.415 . S
C286 H262 0.951 . S
C286 C287 1.366 . S
C286 C288 1.388 . S
C287 C286 1.366 . S
C287 C291 1.385 . S
C288 H263 0.951 . S
C288 C286 1.388 . S
C288 C289 1.366 . S
C289 C288 1.366 . S
C289 C290 1.414 . S
C289 C292 1.499 . S
C290 H264 0.950 . S
C290 C289 1.414 . S
C290 C291 1.374 . S
C291 H265 0.950 . S
C291 C287 1.385 . S
C291 C290 1.374 . S
C292 C289 1.499 . S
C292 C293 1.373 . S
C292 C294 1.389 . S
C293 H266 0.950 . S
C293 C279 1.377 . S
C293 C292 1.373 . S
C294 C278 1.377 . S
C294 C292 1.389 . S
C294 C295 1.524 . S
C295 C294 1.524 . S
C295 C296 1.397 . S
C295 C300 1.363 . S
C296 H267 0.950 . S
C296 C295 1.397 . S
C296 C297 1.334 . S
C297 H268 0.950 . S
C297 C296 1.334 . S
C297 C298 1.287 . S
C298 C297 1.287 . S
C298 C299 1.524 . S
C298 H301 0.999 . S
C299 H269 0.950 . S
C299 C298 1.524 . S
C299 C300 1.415 . S
C300 H270 0.950 . S
C300 C295 1.363 . S
C300 C299 1.415 . S
H301 C298 0.999 . S
H302 C283 0.913 . S
H303 C321 0.951 . S
H304 C323 0.951 . S
H305 C325 0.950 . S
H306 C326 0.950 . S
H307 C328 0.950 . S
H308 C331 0.950 . S
H309 C332 0.950 . S
H310 C334 0.950 . S
H311 C335 0.950 . S
H312 C336 0.951 . S
H313 C338 0.951 . S
H314 C340 0.950 . S
H315 C341 0.950 . S
H316 C343 0.950 . S
H317 C346 0.950 . S
H318 C347 0.950 . S
H319 C349 0.950 . S
H320 C350 0.950 . S
C321 H303 0.951 . S
C321 C322 1.366 . S
C321 C323 1.388 . S
C322 C321 1.366 . S
C322 C326 1.385 . S
C323 H304 0.951 . S
C323 C321 1.388 . S
C323 C324 1.366 . S
C324 C323 1.366 . S
C324 C325 1.414 . S
C324 C327 1.499 . S
C325 H305 0.950 . S
C325 C324 1.414 . S
C325 C326 1.374 . S
C326 H306 0.950 . S
C326 C322 1.385 . S
C326 C325 1.374 . S
C327 C324 1.499 . S
C327 C328 1.373 . S
C327 C329 1.389 . S
C328 H307 0.950 . S
C328 C327 1.373 . S
C328 C344 1.377 . S
C329 C327 1.389 . S
C329 C330 1.524 . S
C329 C343 1.377 . S
C330 C329 1.524 . S
C330 C331 1.397 . S
C330 C335 1.363 . S
C331 H308 0.950 . S
C331 C330 1.397 . S
C331 C332 1.334 . S
C332 H309 0.950 . S
C332 C331 1.334 . S
C332 C333 1.287 . S
C333 C332 1.287 . S
C333 C334 1.524 . S
C333 H352 0.913 . S
C334 H310 0.950 . S
C334 C333 1.524 . S
C334 C335 1.415 . S
C335 H311 0.950 . S
C335 C330 1.363 . S
C335 C334 1.415 . S
C336 H312 0.951 . S
C336 C337 1.366 . S
C336 C338 1.388 . S
C337 C336 1.366 . S
C337 C341 1.385 . S
C338 H313 0.951 . S
C338 C336 1.388 . S
C338 C339 1.366 . S
C339 C338 1.366 . S
C339 C340 1.414 . S
C339 C342 1.499 . S
C340 H314 0.950 . S
C340 C339 1.414 . S
C340 C341 1.374 . S
C341 H315 0.950 . S
C341 C337 1.385 . S
C341 C340 1.374 . S
C342 C339 1.499 . S
C342 C343 1.373 . S
C342 C344 1.389 . S
C343 H316 0.950 . S
C343 C329 1.377 . S
C343 C342 1.373 . S
C344 C328 1.377 . S
C344 C342 1.389 . S
C344 C345 1.524 . S
C345 C344 1.524 . S
C345 C346 1.397 . S
C345 C350 1.363 . S
C346 H317 0.950 . S
C346 C345 1.397 . S
C346 C347 1.334 . S
C347 H318 0.950 . S
C347 C346 1.334 . S
C347 C348 1.287 . S
C348 C347 1.287 . S
C348 C349 1.524 . S
C348 H351 0.999 . S
C349 H319 0.950 . S
C349 C348 1.524 . S
C349 C350 1.415 . S
C350 H320 0.950 . S
C350 C345 1.363 . S
C350 C349 1.415 . S
H351 C348 0.999 . S
H352 C333 0.913 . S
H353 C371 0.951 . S
H354 C373 0.951 . S
H355 C375 0.950 . S
H356 C376 0.950 . S
H357 C378 0.950 . S
H358 C381 0.950 . S
H359 C382 0.950 . S
H360 C384 0.950 . S
H361 C385 0.950 . S
H362 C386 0.951 . S
H363 C388 0.951 . S
H364 C390 0.950 . S
H365 C391 0.950 . S
H366 C393 0.950 . S
H367 C396 0.950 . S
H368 C397 0.950 . S
H369 C399 0.950 . S
H370 C400 0.950 . S
C371 H353 0.951 . S
C371 C372 1.366 . S
C371 C373 1.388 . S
C372 C371 1.366 . S
C372 C376 1.385 . S
C373 H354 0.951 . S
C373 C371 1.388 . S
C373 C374 1.366 . S
C374 C373 1.366 . S
C374 C375 1.414 . S
C374 C377 1.499 . S
C375 H355 0.950 . S
C375 C374 1.414 . S
C375 C376 1.374 . S
C376 H356 0.950 . S
C376 C372 1.385 . S
C376 C375 1.374 . S
C377 C374 1.499 . S
C377 C378 1.373 . S
C377 C379 1.389 . S
C378 H357 0.950 . S
C378 C377 1.373 . S
C378 C394 1.377 . S
C379 C377 1.389 . S
C379 C380 1.524 . S
C379 C393 1.377 . S
C380 C379 1.524 . S
C380 C381 1.397 . S
C380 C385 1.363 . S
C381 H358 0.950 . S
C381 C380 1.397 . S
C381 C382 1.334 . S
C382 H359 0.950 . S
C382 C381 1.334 . S
C382 C383 1.287 . S
C383 C382 1.287 . S
C383 C384 1.524 . S
C383 H402 0.913 . S
C384 H360 0.950 . S
C384 C383 1.524 . S
C384 C385 1.415 . S
C385 H361 0.950 . S
C385 C380 1.363 . S
C385 C384 1.415 . S
C386 H362 0.951 . S
C386 C387 1.366 . S
C386 C388 1.388 . S
C387 C386 1.366 . S
C387 C391 1.385 . S
C388 H363 0.951 . S
C388 C386 1.388 . S
C388 C389 1.366 . S
C389 C388 1.366 . S
C389 C390 1.414 . S
C389 C392 1.499 . S
C390 H364 0.950 . S
C390 C389 1.414 . S
C390 C391 1.374 . S
C391 H365 0.950 . S
C391 C387 1.385 . S
C391 C390 1.374 . S
C392 C389 1.499 . S
C392 C393 1.373 . S
C392 C394 1.389 . S
C393 H366 0.950 . S
C393 C379 1.377 . S
C393 C392 1.373 . S
C394 C378 1.377 . S
C394 C392 1.389 . S
C394 C395 1.524 . S
C395 C394 1.524 . S
C395 C396 1.397 . S
C395 C400 1.363 . S
C396 H367 0.950 . S
C396 C395 1.397 . S
C396 C397 1.334 . S
C397 H368 0.950 . S
C397 C396 1.334 . S
C397 C398 1.287 . S
C398 C397 1.287 . S
C398 C399 1.524 . S
C398 H401 0.999 . S
C399 H369 0.950 . S
C399 C398 1.524 . S
C399 C400 1.415 . S
C400 H370 0.950 . S
C400 C395 1.363 . S
C400 C399 1.415 . S
H401 C398 0.999 . S
H402 C383 0.913 . S
H403 C421 0.951 . S
H404 C423 0.951 . S
H405 C425 0.950 . S
H406 C426 0.950 . S
H407 C428 0.950 . S
H408 C431 0.950 . S
H409 C432 0.950 . S
H410 C434 0.950 . S
H411 C435 0.950 . S
H412 C436 0.951 . S
H413 C438 0.951 . S
H414 C440 0.950 . S
H415 C441 0.950 . S
H416 C443 0.950 . S
H417 C446 0.950 . S
H418 C447 0.950 . S
H419 C449 0.950 . S
H420 C450 0.950 . S
C421 H403 0.951 . S
C421 C422 1.366 . S
C421 C423 1.388 . S
C422 C421 1.366 . S
C422 C426 1.385 . S
C423 H404 0.951 . S
C423 C421 1.388 . S
C423 C424 1.366 . S
C424 C423 1.366 . S
C424 C425 1.414 . S
C424 C427 1.499 . S
C425 H405 0.950 . S
C425 C424 1.414 . S
C425 C426 1.374 . S
C426 H406 0.950 . S
C426 C422 1.385 . S
C426 C425 1.374 . S
C427 C424 1.499 . S
C427 C428 1.373 . S
C427 C429 1.389 . S
C428 H407 0.950 . S
C428 C427 1.373 . S
C428 C444 1.377 . S
C429 C427 1.389 . S
C429 C430 1.524 . S
C429 C443 1.377 . S
C430 C429 1.524 . S
C430 C431 1.397 . S
C430 C435 1.363 . S
C431 H408 0.950 . S
C431 C430 1.397 . S
C431 C432 1.334 . S
C432 H409 0.950 . S
C432 C431 1.334 . S
C432 C433 1.287 . S
C433 C432 1.287 . S
C433 C434 1.524 . S
C433 H452 0.913 . S
C434 H410 0.950 . S
C434 C433 1.524 . S
C434 C435 1.415 . S
C435 H411 0.950 . S
C435 C430 1.363 . S
C435 C434 1.415 . S
C436 H412 0.951 . S
C436 C437 1.366 . S
C436 C438 1.388 . S
C437 C436 1.366 . S
C437 C441 1.385 . S
C438 H413 0.951 . S
C438 C436 1.388 . S
C438 C439 1.366 . S
C439 C438 1.366 . S
C439 C440 1.414 . S
C439 C442 1.499 . S
C440 H414 0.950 . S
C440 C439 1.414 . S
C440 C441 1.374 . S
C441 H415 0.950 . S
C441 C437 1.385 . S
C441 C440 1.374 . S
C442 C439 1.499 . S
C442 C443 1.373 . S
C442 C444 1.389 . S
C443 H416 0.950 . S
C443 C429 1.377 . S
C443 C442 1.373 . S
C444 C428 1.377 . S
C444 C442 1.389 . S
C444 C445 1.524 . S
C445 C444 1.524 . S
C445 C446 1.397 . S
C445 C450 1.363 . S
C446 H417 0.950 . S
C446 C445 1.397 . S
C446 C447 1.334 . S
C447 H418 0.950 . S
C447 C446 1.334 . S
C447 C448 1.287 . S
C448 C447 1.287 . S
C448 C449 1.524 . S
C448 H451 0.999 . S
C449 H419 0.950 . S
C449 C448 1.524 . S
C449 C450 1.415 . S
C450 H420 0.950 . S
C450 C445 1.363 . S
C450 C449 1.415 . S
H451 C448 0.999 . S
H452 C433 0.913 . S
H453 C471 0.951 . S
H454 C473 0.951 . S
H455 C475 0.950 . S
H456 C476 0.950 . S
H457 C478 0.950 . S
H458 C481 0.950 . S
H459 C482 0.950 . S
H460 C484 0.950 . S
H461 C485 0.950 . S
H462 C486 0.951 . S
H463 C488 0.951 . S
H464 C490 0.950 . S
H465 C491 0.950 . S
H466 C493 0.950 . S
H467 C496 0.950 . S
H468 C497 0.950 . S
H469 C499 0.950 . S
H470 C500 0.950 . S
C471 H453 0.951 . S
C471 C472 1.366 . S
C471 C473 1.388 . S
C472 C471 1.366 . S
C472 C476 1.385 . S
C473 H454 0.951 . S
C473 C471 1.388 . S
C473 C474 1.366 . S
C474 C473 1.366 . S
C474 C475 1.414 . S
C474 C477 1.499 . S
C475 H455 0.950 . S
C475 C474 1.414 . S
C475 C476 1.374 . S
C476 H456 0.950 . S
C476 C472 1.385 . S
C476 C475 1.374 . S
C477 C474 1.499 . S
C477 C478 1.373 . S
C477 C479 1.389 . S
C478 H457 0.950 . S
C478 C477 1.373 . S
C478 C494 1.377 . S
C479 C477 1.389 . S
C479 C480 1.524 . S
C479 C493 1.377 . S
C480 C479 1.524 . S
C480 C481 1.397 . S
C480 C485 1.363 . S
C481 H458 0.950 . S
C481 C480 1.397 . S
C481 C482 1.334 . S
C482 H459 0.950 . S
C482 C481 1.334 . S
C482 C483 1.287 . S
C483 C482 1.287 . S
C483 C484 1.524 . S
C483 H502 0.913 . S
C484 H460 0.950 . S
C484 C483 1.524 . S
C484 C485 1.415 . S
C485 H461 0.950 . S
C485 C480 1.363 . S
C485 C484 1.415 . S
C486 H462 0.951 . S
C486 C487 1.366 . S
C486 C488 1.388 . S
C487 C486 1.366 . S
C487 C491 1.385 . S
C488 H463 0.951 . S
C488 C486 1.388 . S
C488 C489 1.366 . S
C489 C488 1.366 . S
C489 C490 1.414 . S
C489 C492 1.499 . S
C490 H464 0.950 . S
C490 C489 1.414 . S
C490 C491 1.374 . S
C491 H465 0.950 . S
C491 C487 1.385 . S
C491 C490 1.374 . S
C492 C489 1.499 . S
C492 C493 1.373 . S
C492 C494 1.389 . S
C493 H466 0.950 . S
C493 C479 1.377 . S
C493 C492 1.373 . S
C494 C478 1.377 . S
C494 C492 1.389 . S
C494 C495 1.524 . S
C495 C494 1.524 . S
C495 C496 1.397 . S
C495 C500 1.363 . S
C496 H467 0.950 . S
C496 C495 1.397 . S
C496 C497 1.334 . S
C497 H468 0.950 . S
C497 C496 1.334 . S
C497 C498 1.287 . S
C498 C497 1.287 . S
C498 C499 1.524 . S
C498 H501 0.999 . S
C499 H469 0.950 . S
C499 C498 1.524 . S
C499 C500 1.415 . S
C500 H470 0.950 . S
C500 C495 1.363 . S
C500 C499 1.415 . S
H501 C498 0.999 . S
H502 C483 0.913 . S
H503 C521 0.951 . S
H504 C523 0.951 . S
H505 C525 0.950 . S
H506 C526 0.950 . S
H507 C528 0.950 . S
H508 C531 0.950 . S
H509 C532 0.950 . S
H510 C534 0.950 . S
H511 C535 0.950 . S
H512 C536 0.951 . S
H513 C538 0.951 . S
H514 C540 0.950 . S
H515 C541 0.950 . S
H516 C543 0.950 . S
H517 C546 0.950 . S
H518 C547 0.950 . S
H519 C549 0.950 . S
H520 C550 0.950 . S
C521 H503 0.951 . S
C521 C522 1.366 . S
C521 C523 1.388 . S
C522 C521 1.366 . S
C522 C526 1.385 . S
C523 H504 0.951 . S
C523 C521 1.388 . S
C523 C524 1.366 . S
C524 C523 1.366 . S
C524 C525 1.414 . S
C524 C527 1.499 . S
C525 H505 0.950 . S
C525 C524 1.414 . S
C525 C526 1.374 . S
C526 H506 0.950 . S
C526 C522 1.385 . S
C526 C525 1.374 . S
C527 C524 1.499 . S
C527 C528 1.373 . S
C527 C529 1.389 . S
C528 H507 0.950 . S
C528 C527 1.373 . S
C528 C544 1.377 . S
C529 C527 1.389 . S
C529 C530 1.524 . S
C529 C543 1.377 . S
C530 C529 1.524 . S
C530 C531 1.397 . S
C530 C535 1.363 . S
C531 H508 0.950 . S
C531 C530 1.397 . S
C531 C532 1.334 . S
C532 H509 0.950 . S
C532 C531 1.334 . S
C532 C533 1.287 . S
C533 C532 1.287 . S
C533 C534 1.524 . S
C533 H552 0.913 . S
C534 H510 0.950 . S
C534 C533 1.524 . S
C534 C535 1.415 . S
C535 H511 0.950 . S
C535 C530 1.363 . S
C535 C534 1.415 . S
C536 H512 0.951 . S
C536 C537 1.366 . S
C536 C538 1.388 . S
C537 C536 1.366 . S
C537 C541 1.385 . S
C538 H513 0.951 . S
C538 C536 1.388 . S
C538 C539 1.366 . S
C539 C538 1.366 . S
C539 C540 1.414 . S
C539 C542 1.499 . S
C540 H514 0.950 . S
C540 C539 1.414 . S
C540 C541 1.374 . S
C541 H515 0.950 . S
C541 C537 1.385 . S
C541 C540 1.374 . S
C542 C539 1.499 . S
C542 C543 1.373 . S
C542 C544 1.389 . S
C543 H516 0.950 . S
C543 C529 1.377 . S
C543 C542 1.373 . S
C544 C528 1.377 . S
C544 C542 1.389 . S
C544 C545 1.524 . S
C545 C544 1.524 . S
C545 C546 1.397 . S
C545 C550 1.363 . S
C546 H517 0.950 . S
C546 C545 1.397 . S
C546 C547 1.334 . S
C547 H518 0.950 . S
C547 C546 1.334 . S
C547 C548 1.287 . S
C548 C547 1.287 . S
C548 C549 1.524 . S
C548 H551 0.999 . S
C549 H519 0.950 . S
C549 C548 1.524 . S
C549 C550 1.415 . S
C550 H520 0.950 . S
C550 C545 1.363 . S
C550 C549 1.415 . S
H551 C548 0.999 . S
H552 C533 0.913 . S
H553 C571 0.951 . S
H554 C573 0.951 . S
H555 C575 0.950 . S
H556 C576 0.950 . S
H557 C578 0.950 . S
H558 C581 0.950 . S
H559 C582 0.950 . S
H560 C584 0.950 . S
H561 C585 0.950 . S
H562 C586 0.951 . S
H563 C588 0.951 . S
H564 C590 0.950 . S
H565 C591 0.950 . S
H566 C593 0.950 . S
H567 C596 0.950 . S
H568 C597 0.950 . S
H569 C599 0.950 . S
H570 C600 0.950 . S
C571 H553 0.951 . S
C571 C572 1.366 . S
C571 C573 1.388 . S
C572 C571 1.366 . S
C572 C576 1.385 . S
C573 H554 0.951 . S
C573 C571 1.388 . S
C573 C574 1.366 . S
C574 C573 1.366 . S
C574 C575 1.414 . S
C574 C577 1.499 . S
C575 H555 0.950 . S
C575 C574 1.414 . S
C575 C576 1.374 . S
C576 H556 0.950 . S
C576 C572 1.385 . S
C576 C575 1.374 . S
C577 C574 1.499 . S
C577 C578 1.373 . S
C577 C579 1.389 . S
C578 H557 0.950 . S
C578 C577 1.373 . S
C578 C594 1.377 . S
C579 C577 1.389 . S
C579 C580 1.524 . S
C579 C593 1.377 . S
C580 C579 1.524 . S
C580 C581 1.397 . S
C580 C585 1.363 . S
C581 H558 0.950 . S
C581 C580 1.397 . S
C581 C582 1.334 . S
C582 H559 0.950 . S
C582 C581 1.334 . S
C582 C583 1.287 . S
C583 C582 1.287 . S
C583 C584 1.524 . S
C583 H602 0.913 . S
C584 H560 0.950 . S
C584 C583 1.524 . S
C584 C585 1.415 . S
C585 H561 0.950 . S
C585 C580 1.363 . S
C585 C584 1.415 . S
C586 H562 0.951 . S
C586 C587 1.366 . S
C586 C588 1.388 . S
C587 C586 1.366 . S
C587 C591 1.385 . S
C588 H563 0.951 . S
C588 C586 1.388 . S
C588 C589 1.366 . S
C589 C588 1.366 . S
C589 C590 1.414 . S
C589 C592 1.499 . S
C590 H564 0.950 . S
C590 C589 1.414 . S
C590 C591 1.374 . S
C591 H565 0.950 . S
C591 C587 1.385 . S
C591 C590 1.374 . S
C592 C589 1.499 . S
C592 C593 1.373 . S
C592 C594 1.389 . S
C593 H566 0.950 . S
C593 C579 1.377 . S
C593 C592 1.373 . S
C594 C578 1.377 . S
C594 C592 1.389 . S
C594 C595 1.524 . S
C595 C594 1.524 . S
C595 C596 1.397 . S
C595 C600 1.363 . S
C596 H567 0.950 . S
C596 C595 1.397 . S
C596 C597 1.334 . S
C597 H568 0.950 . S
C597 C596 1.334 . S
C597 C598 1.287 . S
C598 C597 1.287 . S
C598 C599 1.524 . S
C598 H601 0.999 . S
C599 H569 0.950 . S
C599 C598 1.524 . S
C599 C600 1.415 . S
C600 H570 0.950 . S
C600 C595 1.363 . S
C600 C599 1.415 . S
H601 C598 0.999 . S
H602 C583 0.913 . S
H603 C621 0.951 . S
H604 C623 0.951 . S
H605 C625 0.950 . S
H606 C626 0.950 . S
H607 C628 0.950 . S
H608 C631 0.950 . S
H609 C632 0.950 . S
H610 C634 0.950 . S
H611 C635 0.950 . S
H612 C636 0.951 . S
H613 C638 0.951 . S
H614 C640 0.950 . S
H615 C641 0.950 . S
H616 C643 0.950 . S
H617 C646 0.950 . S
H618 C647 0.950 . S
H619 C649 0.950 . S
H620 C650 0.950 . S
C621 H603 0.951 . S
C621 C622 1.366 . S
C621 C623 1.388 . S
C622 C621 1.366 . S
C622 C626 1.385 . S
C623 H604 0.951 . S
C623 C621 1.388 . S
C623 C624 1.366 . S
C624 C623 1.366 . S
C624 C625 1.414 . S
C624 C627 1.499 . S
C625 H605 0.950 . S
C625 C624 1.414 . S
C625 C626 1.374 . S
C626 H606 0.950 . S
C626 C622 1.385 . S
C626 C625 1.374 . S
C627 C624 1.499 . S
C627 C628 1.373 . S
C627 C629 1.389 . S
C628 H607 0.950 . S
C628 C627 1.373 . S
C628 C644 1.377 . S
C629 C627 1.389 . S
C629 C630 1.524 . S
C629 C643 1.377 . S
C630 C629 1.524 . S
C630 C631 1.397 . S
C630 C635 1.363 . S
C631 H608 0.950 . S
C631 C630 1.397 . S
C631 C632 1.334 . S
C632 H609 0.950 . S
C632 C631 1.334 . S
C632 C633 1.287 . S
C633 C632 1.287 . S
C633 C634 1.524 . S
C633 H652 0.913 . S
C634 H610 0.950 . S
C634 C633 1.524 . S
C634 C635 1.415 . S
C635 H611 0.950 . S
C635 C630 1.363 . S
C635 C634 1.415 . S
C636 H612 0.951 . S
C636 C637 1.366 . S
C636 C638 1.388 . S
C637 C636 1.366 . S
C637 C641 1.385 . S
C638 H613 0.951 . S
C638 C636 1.388 . S
C638 C639 1.366 . S
C639 C638 1.366 . S
C639 C640 1.414 . S
C639 C642 1.499 . S
C640 H614 0.950 . S
C640 C639 1.414 . S
C640 C641 1.374 . S
C641 H615 0.950 . S
C641 C637 1.385 . S
C641 C640 1.374 . S
C642 C639 1.499 . S
C642 C643 1.373 . S
C642 C644 1.389 . S
C643 H616 0.950 . S
C643 C629 1.377 . S
C643 C642 1.373 . S
C644 C628 1.377 . S
C644 C642 1.389 . S
C644 C645 1.524 . S
C645 C644 1.524 . S
C645 C646 1.397 . S
C645 C650 1.363 . S
C646 H617 0.950 . S
C646 C645 1.397 . S
C646 C647 1.334 . S
C647 H618 0.950 . S
C647 C646 1.334 . S
C647 C648 1.287 . S
C648 C647 1.287 . S
C648 C649 1.524 . S
C648 H651 0.999 . S
C649 H619 0.950 . S
C649 C648 1.524 . S
C649 C650 1.415 . S
C650 H620 0.950 . S
C650 C645 1.363 . S
C650 C649 1.415 . S
H651 C648 0.999 . S
H652 C633 0.913 . S
H653 C671 0.951 . S
H654 C673 0.951 . S
H655 C675 0.950 . S
H656 C676 0.950 . S
H657 C678 0.950 . S
H658 C681 0.950 . S
H659 C682 0.950 . S
H660 C684 0.950 . S
H661 C685 0.950 . S
H662 C686 0.951 . S
H663 C688 0.951 . S
H664 C690 0.950 . S
H665 C691 0.950 . S
H666 C693 0.950 . S
H667 C696 0.950 . S
H668 C697 0.950 . S
H669 C699 0.950 . S
H670 C700 0.950 . S
C671 H653 0.951 . S
C671 C672 1.366 . S
C671 C673 1.388 . S
C672 C671 1.366 . S
C672 C676 1.385 . S
C673 H654 0.951 . S
C673 C671 1.388 . S
C673 C674 1.366 . S
C674 C673 1.366 . S
C674 C675 1.414 . S
C674 C677 1.499 . S
C675 H655 0.950 . S
C675 C674 1.414 . S
C675 C676 1.374 . S
C676 H656 0.950 . S
C676 C672 1.385 . S
C676 C675 1.374 . S
C677 C674 1.499 . S
C677 C678 1.373 . S
C677 C679 1.389 . S
C678 H657 0.950 . S
C678 C677 1.373 . S
C678 C694 1.377 . S
C679 C677 1.389 . S
C679 C680 1.524 . S
C679 C693 1.377 . S
C680 C679 1.524 . S
C680 C681 1.397 . S
C680 C685 1.363 . S
C681 H658 0.950 . S
C681 C680 1.397 . S
C681 C682 1.334 . S
C682 H659 0.950 . S
C682 C681 1.334 . S
C682 C683 1.287 . S
C683 C682 1.287 . S
C683 C684 1.524 . S
C683 H702 0.913 . S
C684 H660 0.950 . S
C684 C683 1.524 . S
C684 C685 1.415 . S
C685 H661 0.950 . S
C685 C680 1.363 . S
C685 C684 1.415 . S
C686 H662 0.951 . S
C686 C687 1.366 . S
C686 C688 1.388 . S
C687 C686 1.366 . S
C687 C691 1.385 . S
C688 H663 0.951 . S
C688 C686 1.388 . S
C688 C689 1.366 . S
C689 C688 1.366 . S
C689 C690 1.414 . S
C689 C692 1.499 . S
C690 H664 0.950 . S
C690 C689 1.414 . S
C690 C691 1.374 . S
C691 H665 0.950 . S
C691 C687 1.385 . S
C691 C690 1.374 . S
C692 C689 1.499 . S
C692 C693 1.373 . S
C692 C694 1.389 . S
C693 H666 0.950 . S
C693 C679 1.377 . S
C693 C692 1.373 . S
C694 C678 1.377 . S
C694 C692 1.389 . S
C694 C695 1.524 . S
C695 C694 1.524 . S
C695 C696 1.397 . S
C695 C700 1.363 . S
C696 H667 0.950 . S
C696 C695 1.397 . S
C696 C697 1.334 . S
C697 H668 0.950 . S
C697 C696 1.334 . S
C697 C698 1.287 . S
C698 C697 1.287 . S
C698 C699 1.524 . S
C698 H701 0.999 . S
C699 H669 0.950 . S
C699 C698 1.524 . S
C699 C700 1.415 . S
C700 H670 0.950 . S
C700 C695 1.363 . S
C700 C699 1.415 . S
H701 C698 0.999 . S
H702 C683 0.913 . S
H703 C721 0.951 . S
H704 C723 0.951 . S
H705 C725 0.950 . S
H706 C726 0.950 . S
H707 C728 0.950 . S
H708 C731 0.950 . S
H709 C732 0.950 . S
H710 C734 0.950 . S
H711 C735 0.950 . S
H712 C736 0.951 . S
H713 C738 0.951 . S
H714 C740 0.950 . S
H715 C741 0.950 . S
H716 C743 0.950 . S
H717 C746 0.950 . S
H718 C747 0.950 . S
H719 C749 0.950 . S
H720 C750 0.950 . S
C721 H703 0.951 . S
C721 C722 1.366 . S
C721 C723 1.388 . S
C722 C721 1.366 . S
C722 C726 1.385 . S
C723 H704 0.951 . S
C723 C721 1.388 . S
C723 C724 1.366 . S
C724 C723 1.366 . S
C724 C725 1.414 . S
C724 C727 1.499 . S
C725 H705 0.950 . S
C725 C724 1.414 . S
C725 C726 1.374 . S
C726 H706 0.950 . S
C726 C722 1.385 . S
C726 C725 1.374 . S
C727 C724 1.499 . S
C727 C728 1.373 . S
C727 C729 1.389 . S
C728 H707 0.950 . S
C728 C727 1.373 . S
C728 C744 1.377 . S
C729 C727 1.389 . S
C729 C730 1.524 . S
C729 C743 1.377 . S
C730 C729 1.524 . S
C730 C731 1.397 . S
C730 C735 1.363 . S
C731 H708 0.950 . S
C731 C730 1.397 . S
C731 C732 1.334 . S
C732 H709 0.950 . S
C732 C731 1.334 . S
C732 C733 1.287 . S
C733 C732 1.287 . S
C733 C734 1.524 . S
C733 H752 0.913 . S
C734 H710 0.950 . S
C734 C733 1.524 . S
C734 C735 1.415 . S
C735 H711 0.950 . S
C735 C730 1.363 . S
C735 C734 1.415 . S
C736 H712 0.951 . S
C736 C737 1.366 . S
C736 C738 1.388 . S
C737 C736 1.366 . S
C737 C741 1.385 . S
C738 H713 0.951 . S
C738 C736 1.388 . S
C738 C739 1.366 . S
C739 C738 1.366 . S
C739 C740 1.414 . S
C739 C742 1.499 . S
C740 H714 0.950 . S
C740 C739 1.414 . S
C740 C741 1.374 . S
C741 H715 0.950 . S
C741 C737 1.385 . S
C741 C740 1.374 . S
C742 C739 1.499 . S
C742 C743 1.373 . S
C742 C744 1.389 . S
C743 H716 0.950 . S
C743 C729 1.377 . S
C743 C742 1.373 . S
C744 C728 1.377 . S
C744 C742 1.389 . S
C744 C745 1.524 . S
C745 C744 1.524 . S
C745 C746 1.397 . S
C745 C750 1.363 . S
C746 H717 0.950 . S
C746 C745 1.397 . S
C746 C747 1.334 . S
C747 H718 0.950 . S
C747 C746 1.334 . S
C747 C748 1.287 . S
C748 C747 1.287 . S
C748 C749 1.524 . S
C748 H751 0.999 . S
C749 H719 0.950 . S
C749 C748 1.524 . S
C749 C750 1.415 . S
C750 H720 0.950 . S
C750 C745 1.363 . S
C750 C749 1.415 . S
H751 C748 0.999 . S
H752 C733 0.913 . S
H753 C771 0.951 . S
H754 C773 0.951 . S
H755 C775 0.950 . S
H756 C776 0.950 . S
H757 C778 0.950 . S
H758 C781 0.950 . S
H759 C782 0.950 . S
H760 C784 0.950 . S
H761 C785 0.950 . S
H762 C786 0.951 . S
H763 C788 0.951 . S
H764 C790 0.950 . S
H765 C791 0.950 . S
H766 C793 0.950 . S
H767 C796 0.950 . S
H768 C797 0.950 . S
H769 C799 0.950 . S
H770 C800 0.950 . S
C771 H753 0.951 . S
C771 C772 1.366 . S
C771 C773 1.388 . S
C772 C771 1.366 . S
C772 C776 1.385 . S
C773 H754 0.951 . S
C773 C771 1.388 . S
C773 C774 1.366 . S
C774 C773 1.366 . S
C774 C775 1.414 . S
C774 C777 1.499 . S
C775 H755 0.950 . S
C775 C774 1.414 . S
C775 C776 1.374 . S
C776 H756 0.950 . S
C776 C772 1.385 . S
C776 C775 1.374 . S
C777 C774 1.499 . S
C777 C778 1.373 . S
C777 C779 1.389 . S
C778 H757 0.950 . S
C778 C777 1.373 . S
C778 C794 1.377 . S
C779 C777 1.389 . S
C779 C780 1.524 . S
C779 C793 1.377 . S
C780 C779 1.524 . S
C780 C781 1.397 . S
C780 C785 1.363 . S
C781 H758 0.950 . S
C781 C780 1.397 . S
C781 C782 1.334 . S
C782 H759 0.950 . S
C782 C781 1.334 . S
C782 C783 1.287 . S
C783 C782 1.287 . S
C783 C784 1.524 . S
C783 H802 0.913 . S
C784 H760 0.950 . S
C784 C783 1.524 . S
C784 C785 1.415 . S
C785 H761 0.950 . S
C785 C780 1.363 . S
C785 C784 1.415 . S
C786 H762 0.951 . S
C786 C787 1.366 . S
C786 C788 1.388 . S
C787 C786 1.366 . S
C787 C791 1.385 . S
C788 H763 0.951 . S
C788 C786 1.388 . S
C788 C789 1.366 . S
C789 C788 1.366 . S
C789 C790 1.414 . S
C789 C792 1.499 . S
C790 H764 0.950 . S
C790 C789 1.414 . S
C790 C791 1.374 . S
C791 H765 0.950 . S
C791 C787 1.385 . S
C791 C790 1.374 . S
C792 C789 1.499 . S
C792 C793 1.373 . S
C792 C794 1.389 . S
C793 H766 0.950 . S
C793 C779 1.377 . S
C793 C792 1.373 . S
C794 C778 1.377 . S
C794 C792 1.389 . S
C794 C795 1.524 . S
C795 C794 1.524 . S
C795 C796 1.397 . S
C795 C800 1.363 . S
C796 H767 0.950 . S
C796 C795 1.397 . S
C796 C797 1.334 . S
C797 H768 0.950 . S
C797 C796 1.334 . S
C797 C798 1.287 . S
C798 C797 1.287 . S
C798 C799 1.524 . S
C798 H801 0.999 . S
C799 H769 0.950 . S
C799 C798 1.524 . S
C799 C800 1.415 . S
C800 H770 0.950 . S
C800 C795 1.363 . S
C800 C799 1.415 . S
H801 C798 0.999 . S
H802 C783 0.913 . S
H803 C821 0.951 . S
H804 C823 0.951 . S
H805 C825 0.950 . S
H806 C826 0.950 . S
H807 C828 0.950 . S
H808 C831 0.950 . S
H809 C832 0.950 . S
H810 C834 0.950 . S
H811 C835 0.950 . S
H812 C836 0.951 . S
H813 C838 0.951 . S
H814 C840 0.950 . S
H815 C841 0.950 . S
H816 C843 0.950 . S
H817 C846 0.950 . S
H818 C847 0.950 . S
H819 C849 0.950 . S
H820 C850 0.950 . S
C821 H803 0.951 . S
C821 C822 1.366 . S
C821 C823 1.388 . S
C822 C821 1.366 . S
C822 C826 1.385 . S
C823 H804 0.951 . S
C823 C821 1.388 . S
C823 C824 1.366 . S
C824 C823 1.366 . S
C824 C825 1.414 . S
C824 C827 1.499 . S
C825 H805 0.950 . S
C825 C824 1.414 . S
C825 C826 1.374 . S
C826 H806 0.950 . S
C826 C822 1.385 . S
C826 C825 1.374 . S
C827 C824 1.499 . S
C827 C828 1.373 . S
C827 C829 1.389 . S
C828 H807 0.950 . S
C828 C827 1.373 . S
C828 C844 1.377 . S
C829 C827 1.389 . S
C829 C830 1.524 . S
C829 C843 1.377 . S
C830 C829 1.524 . S
C830 C831 1.397 . S
C830 C835 1.363 . S
C831 H808 0.950 . S
C831 C830 1.397 . S
C831 C832 1.334 . S
C832 H809 0.950 . S
C832 C831 1.334 . S
C832 C833 1.287 . S
C833 C832 1.287 . S
C833 C834 1.524 . S
C833 H852 0.913 . S
C834 H810 0.950 . S
C834 C833 1.524 . S
C834 C835 1.415 . S
C835 H811 0.950 . S
C835 C830 1.363 . S
C835 C834 1.415 . S
C836 H812 0.951 . S
C836 C837 1.366 . S
C836 C838 1.388 . S
C837 C836 1.366 . S
C837 C841 1.385 . S
C838 H813 0.951 . S
C838 C836 1.388 . S
C838 C839 1.366 . S
C839 C838 1.366 . S
C839 C840 1.414 . S
C839 C842 1.499 . S
C840 H814 0.950 . S
C840 C839 1.414 . S
C840 C841 1.374 . S
C841 H815 0.950 . S
C841 C837 1.385 . S
C841 C840 1.374 . S
C842 C839 1.499 . S
C842 C843 1.373 . S
C842 C844 1.389 . S
C843 H816 0.950 . S
C843 C829 1.377 . S
C843 C842 1.373 . S
C844 C828 1.377 . S
C844 C842 1.389 . S
C844 C845 1.524 . S
C845 C844 1.524 . S
C845 C846 1.397 . S
C845 C850 1.363 . S
C846 H817 0.950 . S
C846 C845 1.397 . S
C846 C847 1.334 . S
C847 H818 0.950 . S
C847 C846 1.334 . S
C847 C848 1.287 . S
C848 C847 1.287 . S
C848 C849 1.524 . S
C848 H851 0.999 . S
C849 H819 0.950 . S
C849 C848 1.524 . S
C849 C850 1.415 . S
C850 H820 0.950 . S
C850 C845 1.363 . S
C850 C849 1.415 . S
H851 C848 0.999 . S
H852 C833 0.913 . S
H853 C871 0.951 . S
H854 C873 0.951 . S
H855 C875 0.950 . S
H856 C876 0.950 . S
H857 C878 0.950 . S
H858 C881 0.950 . S
H859 C882 0.950 . S
H860 C884 0.950 . S
H861 C885 0.950 . S
H862 C886 0.951 . S
H863 C888 0.951 . S
H864 C890 0.950 . S
H865 C891 0.950 . S
H866 C893 0.950 . S
H867 C896 0.950 . S
H868 C897 0.950 . S
H869 C899 0.950 . S
H870 C900 0.950 . S
C871 H853 0.951 . S
C871 C872 1.366 . S
C871 C873 1.388 . S
C872 C871 1.366 . S
C872 C876 1.385 . S
C873 H854 0.951 . S
C873 C871 1.388 . S
C873 C874 1.366 . S
C874 C873 1.366 . S
C874 C875 1.414 . S
C874 C877 1.499 . S
C875 H855 0.950 . S
C875 C874 1.414 . S
C875 C876 1.374 . S
C876 H856 0.950 . S
C876 C872 1.385 . S
C876 C875 1.374 . S
C877 C874 1.499 . S
C877 C878 1.373 . S
C877 C879 1.389 . S
C878 H857 0.950 . S
C878 C877 1.373 . S
C878 C894 1.377 . S
C879 C877 1.389 . S
C879 C880 1.524 . S
C879 C893 1.377 . S
C880 C879 1.524 . S
C880 C881 1.397 . S
C880 C885 1.363 . S
C881 H858 0.950 . S
C881 C880 1.397 . S
C881 C882 1.334 . S
C882 H859 0.950 . S
C882 C881 1.334 . S
C882 C883 1.287 . S
C883 C882 1.287 . S
C883 C884 1.524 . S
C883 H902 0.913 . S
C884 H860 0.950 . S
C884 C883 1.524 . S
C884 C885 1.415 . S
C885 H861 0.950 . S
C885 C880 1.363 . S
C885 C884 1.415 . S
C886 H862 0.951 . S
C886 C887 1.366 . S
C886 C888 1.388 . S
C887 C886 1.366 . S
C887 C891 1.385 . S
C888 H863 0.951 . S
C888 C886 1.388 . S
C888 C889 1.366 . S
C889 C888 1.366 . S
C889 C890 1.414 . S
C889 C892 1.499 . S
C890 H864 0.950 . S
C890 C889 1.414 . S
C890 C891 1.374 . S
C891 H865 0.950 . S
C891 C887 1.385 . S
C891 C890 1.374 . S
C892 C889 1.499 . S
C892 C893 1.373 . S
C892 C894 1.389 . S
C893 H866 0.950 . S
C893 C879 1.377 . S
C893 C892 1.373 . S
C894 C878 1.377 . S
C894 C892 1.389 . S
C894 C895 1.524 . S
C895 C894 1.524 . S
C895 C896 1.397 . S
C895 C900 1.363 . S
C896 H867 0.950 . S
C896 C895 1.397 . S
C896 C897 1.334 . S
C897 H868 0.950 . S
C897 C896 1.334 . S
C897 C898 1.287 . S
C898 C897 1.287 . S
C898 C899 1.524 . S
C898 H901 0.999 . S
C899 H869 0.950 . S
C899 C898 1.524 . S
C899 C900 1.415 . S
C900 H870 0.950 . S
C900 C895 1.363 . S
C900 C899 1.415 . S
H901 C898 0.999 . S
H902 C883 0.913 . S
H903 C921 0.951 . S
H904 C923 0.951 . S
H905 C925 0.950 . S
H906 C926 0.950 . S
H907 C928 0.950 . S
H908 C931 0.950 . S
H909 C932 0.950 . S
H910 C934 0.950 . S
H911 C935 0.950 . S
H912 C936 0.951 . S
H913 C938 0.951 . S
H914 C940 0.950 . S
H915 C941 0.950 . S
H916 C943 0.950 . S
H917 C946 0.950 . S
H918 C947 0.950 . S
H919 C949 0.950 . S
H920 C950 0.950 . S
C921 H903 0.951 . S
C921 C922 1.366 . S
C921 C923 1.388 . S
C922 C921 1.366 . S
C922 C926 1.385 . S
C923 H904 0.951 . S
C923 C921 1.388 . S
C923 C924 1.366 . S
C924 C923 1.366 . S
C924 C925 1.414 . S
C924 C927 1.499 . S
C925 H905 0.950 . S
C925 C924 1.414 . S
C925 C926 1.374 . S
C926 H906 0.950 . S
C926 C922 1.385 . S
C926 C925 1.374 . S
C927 C924 1.499 . S
C927 C928 1.373 . S
C927 C929 1.389 . S
C928 H907 0.950 . S
C928 C927 1.373 . S
C928 C944 1.377 . S
C929 C927 1.389 . S
C929 C930 1.524 . S
C929 C943 1.377 . S
C930 C929 1.524 . S
C930 C931 1.397 . S
C930 C935 1.363 . S
C931 H908 0.950 . S
C931 C930 1.397 . S
C931 C932 1.334 . S
C932 H909 0.950 . S
C932 C931 1.334 . S
C932 C933 1.287 . S
C933 C932 1.287 . S
C933 C934 1.524 . S
C933 H952 0.913 . S
C934 H910 0.950 . S
C934 C933 1.524 . S
C934 C935 1.415 . S
C935 H911 0.950 . S
C935 C930 1.363 . S
C935 C934 1.415 . S
C936 H912 0.951 . S
C936 C937 1.366 . S
C936 C938 1.388 . S
C937 C936 1.366 . S
C937 C941 1.385 . S
C938 H913 0.951 . S
C938 C936 1.388 . S
C938 C939 1.366 . S
C939 C938 1.366 . S
C939 C940 1.414 . S
C939 C942 1.499 . S
C940 H914 0.950 . S
C940 C939 1.414 . S
C940 C941 1.374 . S
C941 H915 0.950 . S
C941 C937 1.385 . S
C941 C940 1.374 . S
C942 C939 1.499 . S
C942 C943 1.373 . S
C942 C944 1.389 . S
C943 H916 0.950 . S
C943 C929 1.377 . S
C943 C942 1.373 . S
C944 C928 1.377 . S
C944 C942 1.389 . S
C944 C945 1.524 . S
C945 C944 1.524 . S
C945 C946 1.397 . S
C945 C950 1.363 . S
C946 H917 0.950 . S
C946 C945 1.397 . S
C946 C947 1.334 . S
C947 H918 0.950 . S
C947 C946 1.334 . S
C947 C948 1.287 . S
C948 C947 1.287 . S
C948 C949 1.524 . S
C948 H951 0.999 . S
C949 H919 0.950 . S
C949 C948 1.524 . S
C949 C950 1.415 . S
C950 H920 0.950 . S
C950 C945 1.363 . S
C950 C949 1.415 . S
H951 C948 0.999 . S
H952 C933 0.913 . S
H953 C971 0.951 . S
H954 C973 0.951 . S
H955 C975 0.950 . S
H956 C976 0.950 . S
H957 C978 0.950 . S
H958 C981 0.950 . S
H959 C982 0.950 . S
H960 C984 0.950 . S
H961 C985 0.950 . S
H962 C986 0.951 . S
H963 C988 0.951 . S
H964 C990 0.950 . S
H965 C991 0.950 . S
H966 C993 0.950 . S
H967 C996 0.950 . S
H968 C997 0.950 . S
H969 C999 0.950 . S
H970 C1000 0.950 . S
C971 H953 0.951 . S
C971 C972 1.366 . S
C971 C973 1.388 . S
C972 C971 1.366 . S
C972 C976 1.385 . S
C973 H954 0.951 . S
C973 C971 1.388 . S
C973 C974 1.366 . S
C974 C973 1.366 . S
C974 C975 1.414 . S
C974 C977 1.499 . S
C975 H955 0.950 . S
C975 C974 1.414 . S
C975 C976 1.374 . S
C976 H956 0.950 . S
C976 C972 1.385 . S
C976 C975 1.374 . S
C977 C974 1.499 . S
C977 C978 1.373 . S
C977 C979 1.389 . S
C978 H957 0.950 . S
C978 C977 1.373 . S
C978 C994 1.377 . S
C979 C977 1.389 . S
C979 C980 1.524 . S
C979 C993 1.377 . S
C980 C979 1.524 . S
C980 C981 1.397 . S
C980 C985 1.363 . S
C981 H958 0.950 . S
C981 C980 1.397 . S
C981 C982 1.334 . S
C982 H959 0.950 . S
C982 C981 1.334 . S
C982 C983 1.287 . S
C983 C982 1.287 . S
C983 C984 1.524 . S
C983 H1002 0.913 . S
C984 H960 0.950 . S
C984 C983 1.524 . S
C984 C985 1.415 . S
C985 H961 0.950 . S
C985 C980 1.363 . S
C985 C984 1.415 . S
C986 H962 0.951 . S
C986 C987 1.366 . S
C986 C988 1.388 . S
C987 C986 1.366 . S
C987 C991 1.385 . S
C988 H963 0.951 . S
C988 C986 1.388 . S
C988 C989 1.366 . S
C989 C988 1.366 . S
C989 C990 1.414 . S
C989 C992 1.499 . S
C990 H964 0.950 . S
C990 C989 1.414 . S
C990 C991 1.374 . S
C991 H965 0.950 . S
C991 C987 1.385 . S
C991 C990 1.374 . S
C992 C989 1.499 . S
C992 C993 1.373 . S
C992 C994 1.389 . S
C993 H966 0.950 . S
C993 C979 1.377 . S
C993 C992 1.373 . S
C994 C978 1.377 . S
C994 C992 1.389 . S
C994 C995 1.524 . S
C995 C994 1.524 . S
C995 C996 1.397 . S
C995 C1000 1.363 . S
C996 H967 0.950 . S
C996 C995 1.397 . S
C996 C997 1.334 . S
C997 H968 0.950 . S
C997 C996 1.334 . S
C997 C998 1.287 . S
C998 C997 1.287 . S
C998 C999 1.524 . S
C998 H1001 0.999 . S
C999 H969 0.950 . S
C999 C998 1.524 . S
C999 C1000 1.415 . S
C1000 H970 0.950 . S
C1000 C995 1.363 . S
C1000 C999 1.415 . S
H1001 C998 0.999 . S
H1002 C983 0.913 . S
H1003 C1021 0.951 . S
H1004 C1023 0.951 . S
H1005 C1025 0.950 . S
H1006 C1026 0.950 . S
H1007 C1028 0.950 . S
H1008 C1031 0.950 . S
H1009 C1032 0.950 . S
H1010 C1034 0.950 . S
H1011 C1035 0.950 . S
H1012 C1036 0.951 . S
H1013 C1038 0.951 . S
H1014 C1040 0.950 . S
H1015 C1041 0.950 . S
H1016 C1043 0.950 . S
H1017 C1046 0.950 . S
H1018 C1047 0.950 . S
H1019 C1049 0.950 . S
H1020 C1050 0.950 . S
C1021 H1003 0.951 . S
C1021 C1022 1.366 . S
C1021 C1023 1.388 . S
C1022 C1021 1.366 . S
C1022 C1026 1.385 . S
C1023 H1004 0.951 . S
C1023 C1021 1.388 . S
C1023 C1024 1.366 . S
C1024 C1023 1.366 . S
C1024 C1025 1.414 . S
C1024 C1027 1.499 . S
C1025 H1005 0.950 . S
C1025 C1024 1.414 . S
C1025 C1026 1.374 . S
C1026 H1006 0.950 . S
C1026 C1022 1.385 . S
C1026 C1025 1.374 . S
C1027 C1024 1.499 . S
C1027 C1028 1.373 . S
C1027 C1029 1.389 . S
C1028 H1007 0.950 . S
C1028 C1027 1.373 . S
C1028 C1044 1.377 . S
C1029 C1027 1.389 . S
C1029 C1030 1.524 . S
C1029 C1043 1.377 . S
C1030 C1029 1.524 . S
C1030 C1031 1.397 . S
C1030 C1035 1.363 . S
C1031 H1008 0.950 . S
C1031 C1030 1.397 . S
C1031 C1032 1.334 . S
C1032 H1009 0.950 . S
C1032 C1031 1.334 . S
C1032 C1033 1.287 . S
C1033 C1032 1.287 . S
C1033 C1034 1.524 . S
C1033 H1052 0.913 . S
C1034 H1010 0.950 . S
C1034 C1033 1.524 . S
C1034 C1035 1.415 . S
C1035 H1011 0.950 . S
C1035 C1030 1.363 . S
C1035 C1034 1.415 . S
C1036 H1012 0.951 . S
C1036 C1037 1.366 . S
C1036 C1038 1.388 . S
C1037 C1036 1.366 . S
C1037 C1041 1.385 . S
C1038 H1013 0.951 . S
C1038 C1036 1.388 . S
C1038 C1039 1.366 . S
C1039 C1038 1.366 . S
C1039 C1040 1.414 . S
C1039 C1042 1.499 . S
C1040 H1014 0.950 . S
C1040 C1039 1.414 . S
C1040 C1041 1.374 . S
C1041 H1015 0.950 . S
C1041 C1037 1.385 . S
C1041 C1040 1.374 . S
C1042 C1039 1.499 . S
C1042 C1043 1.373 . S
C1042 C1044 1.389 . S
C1043 H1016 0.950 . S
C1043 C1029 1.377 . S
C1043 C1042 1.373 . S
C1044 C1028 1.377 . S
C1044 C1042 1.389 . S
C1044 C1045 1.524 . S
C1045 C1044 1.524 . S
C1045 C1046 1.397 . S
C1045 C1050 1.363 . S
C1046 H1017 0.950 . S
C1046 C1045 1.397 . S
C1046 C1047 1.334 . S
C1047 H1018 0.950 . S
C1047 C1046 1.334 . S
C1047 C1048 1.287 . S
C1048 C1047 1.287 . S
C1048 C1049 1.524 . S
C1048 H1051 0.999 . S
C1049 H1019 0.950 . S
C1049 C1048 1.524 . S
C1049 C1050 1.415 . S
C1050 H1020 0.950 . S
C1050 C1045 1.363 . S
C1050 C1049 1.415 . S
H1051 C1048 0.999 . S
H1052 C1033 0.913 . S
H1053 C1071 0.951 . S
H1054 C1073 0.951 . S
H1055 C1075 0.950 . S
H1056 C1076 0.950 . S
H1057 C1078 0.950 . S
H1058 C1081 0.950 . S
H1059 C1082 0.950 . S
H1060 C1084 0.950 . S
H1061 C1085 0.950 . S
H1062 C1086 0.951 . S
H1063 C1088 0.951 . S
H1064 C1090 0.950 . S
H1065 C1091 0.950 . S
H1066 C1093 0.950 . S
H1067 C1096 0.950 . S
H1068 C1097 0.950 . S
H1069 C1099 0.950 . S
H1070 C1100 0.950 . S
C1071 H1053 0.951 . S
C1071 C1072 1.366 . S
C1071 C1073 1.388 . S
C1072 C1071 1.366 . S
C1072 C1076 1.385 . S
C1073 H1054 0.951 . S
C1073 C1071 1.388 . S
C1073 C1074 1.366 . S
C1074 C1073 1.366 . S
C1074 C1075 1.414 . S
C1074 C1077 1.499 . S
C1075 H1055 0.950 . S
C1075 C1074 1.414 . S
C1075 C1076 1.374 . S
C1076 H1056 0.950 . S
C1076 C1072 1.385 . S
C1076 C1075 1.374 . S
C1077 C1074 1.499 . S
C1077 C1078 1.373 . S
C1077 C1079 1.389 . S
C1078 H1057 0.950 . S
C1078 C1077 1.373 . S
C1078 C1094 1.377 . S
C1079 C1077 1.389 . S
C1079 C1080 1.524 . S
C1079 C1093 1.377 . S
C1080 C1079 1.524 . S
C1080 C1081 1.397 . S
C1080 C1085 1.363 . S
C1081 H1058 0.950 . S
C1081 C1080 1.397 . S
C1081 C1082 1.334 . S
C1082 H1059 0.950 . S
C1082 C1081 1.334 . S
C1082 C1083 1.287 . S
C1083 C1082 1.287 . S
C1083 C1084 1.524 . S
C1083 H1102 0.913 . S
C1084 H1060 0.950 . S
C1084 C1083 1.524 . S
C1084 C1085 1.415 . S
C1085 H1061 0.950 . S
C1085 C1080 1.363 . S
C1085 C1084 1.415 . S
C1086 H1062 0.951 . S
C1086 C1087 1.366 . S
C1086 C1088 1.388 . S
C1087 C1086 1.366 . S
C1087 C1091 1.385 . S
C1088 H1063 0.951 . S
C1088 C1086 1.388 . S
C1088 C1089 1.366 . S
C1089 C1088 1.366 . S
C1089 C1090 1.414 . S
C1089 C1092 1.499 . S
C1090 H1064 0.950 . S
C1090 C1089 1.414 . S
C1090 C1091 1.374 . S
C1091 H1065 0.950 . S
C1091 C1087 1.385 . S
C1091 C1090 1.374 . S
C1092 C1089 1.499 . S
C1092 C1093 1.373 . S
C1092 C1094 1.389 . S
C1093 H1066 0.950 . S
C1093 C1079 1.377 . S
C1093 C1092 1.373 . S
C1094 C1078 1.377 . S
C1094 C1092 1.389 . S
C1094 C1095 1.524 . S
C1095 C1094 1.524 . S
C1095 C1096 1.397 . S
C1095 C1100 1.363 . S
C1096 H1067 0.950 . S
C1096 C1095 1.397 . S
C1096 C1097 1.334 . S
C1097 H1068 0.950 . S
C1097 C1096 1.334 . S
C1097 C1098 1.287 . S
C1098 C1097 1.287 . S
C1098 C1099 1.524 . S
C1098 H1101 0.999 . S
C1099 H1069 0.950 . S
C1099 C1098 1.524 . S
C1099 C1100 1.415 . S
C1100 H1070 0.950 . S
C1100 C1095 1.363 . S
C1100 C1099 1.415 . S
H1101 C1098 0.999 . S
H1102 C1083 0.913 . S
H1103 C1121 0.951 . S
H1104 C1123 0.951 . S
H1105 C1125 0.950 . S
H1106 C1126 0.950 . S
H1107 C1128 0.950 . S
H1108 C1131 0.950 . S
H1109 C1132 0.950 . S
H1110 C1134 0.950 . S
H1111 C1135 0.950 . S
H1112 C1136 0.951 . S
H1113 C1138 0.951 . S
H1114 C1140 0.950 . S
H1115 C1141 0.950 . S
H1116 C1143 0.950 . S
H1117 C1146 0.950 . S
H1118 C1147 0.950 . S
H1119 C1149 0.950 . S
H1120 C1150 0.950 . S
C1121 H1103 0.951 . S
C1121 C1122 1.366 . S
C1121 C1123 1.388 . S
C1122 C1121 1.366 . S
C1122 C1126 1.385 . S
C1123 H1104 0.951 . S
C1123 C1121 1.388 . S
C1123 C1124 1.366 . S
C1124 C1123 1.366 . S
C1124 C1125 1.414 . S
C1124 C1127 1.499 . S
C1125 H1105 0.950 . S
C1125 C1124 1.414 . S
C1125 C1126 1.374 . S
C1126 H1106 0.950 . S
C1126 C1122 1.385 . S
C1126 C1125 1.374 . S
C1127 C1124 1.499 . S
C1127 C1128 1.373 . S
C1127 C1129 1.389 . S
C1128 H1107 0.950 . S
C1128 C1127 1.373 . S
C1128 C1144 1.377 . S
C1129 C1127 1.389 . S
C1129 C1130 1.524 . S
C1129 C1143 1.377 . S
C1130 C1129 1.524 . S
C1130 C1131 1.397 . S
C1130 C1135 1.363 . S
C1131 H1108 0.950 . S
C1131 C1130 1.397 . S
C1131 C1132 1.334 . S
C1132 H1109 0.950 . S
C1132 C1131 1.334 . S
C1132 C1133 1.287 . S
C1133 C1132 1.287 . S
C1133 C1134 1.524 . S
C1133 H1152 0.913 . S
C1134 H1110 0.950 . S
C1134 C1133 1.524 . S
C1134 C1135 1.415 . S
C1135 H1111 0.950 . S
C1135 C1130 1.363 . S
C1135 C1134 1.415 . S
C1136 H1112 0.951 . S
C1136 C1137 1.366 . S
C1136 C1138 1.388 . S
C1137 C1136 1.366 . S
C1137 C1141 1.385 . S
C1138 H1113 0.951 . S
C1138 C1136 1.388 . S
C1138 C1139 1.366 . S
C1139 C1138 1.366 . S
C1139 C1140 1.414 . S
C1139 C1142 1.499 . S
C1140 H1114 0.950 . S
C1140 C1139 1.414 . S
C1140 C1141 1.374 . S
C1141 H1115 0.950 . S
C1141 C1137 1.385 . S
C1141 C1140 1.374 . S
C1142 C1139 1.499 . S
C1142 C1143 1.373 . S
C1142 C1144 1.389 . S
C1143 H1116 0.950 . S
C1143 C1129 1.377 . S
C1143 C1142 1.373 . S
C1144 C1128 1.377 . S
C1144 C1142 1.389 . S
C1144 C1145 1.524 . S
C1145 C1144 1.524 . S
C1145 C1146 1.397 . S
C1145 C1150 1.363 . S
C1146 H1117 0.950 . S
C1146 C1145 1.397 . S
C1146 C1147 1.334 . S
C1147 H1118 0.950 . S
C1147 C1146 1.334 . S
C1147 C1148 1.287 . S
C1148 C1147 1.287 . S
C1148 C1149 1.524 . S
C1148 H1151 0.999 . S
C1149 H1119 0.950 . S
C1149 C1148 1.524 . S
C1149 C1150 1.415 . S
C1150 H1120 0.950 . S
C1150 C1145 1.363 . S
C1150 C1149 1.415 . S
H1151 C1148 0.999 . S
H1152 C1133 0.913 . S
H1153 C1171 0.951 . S
H1154 C1173 0.951 . S
H1155 C1175 0.950 . S
H1156 C1176 0.950 . S
H1157 C1178 0.950 . S
H1158 C1181 0.950 . S
H1159 C1182 0.950 . S
H1160 C1184 0.950 . S
H1161 C1185 0.950 . S
H1162 C1186 0.951 . S
H1163 C1188 0.951 . S
H1164 C1190 0.950 . S
H1165 C1191 0.950 . S
H1166 C1193 0.950 . S
H1167 C1196 0.950 . S
H1168 C1197 0.950 . S
H1169 C1199 0.950 . S
H1170 C1200 0.950 . S
C1171 H1153 0.951 . S
C1171 C1172 1.366 . S
C1171 C1173 1.388 . S
C1172 C1171 1.366 . S
C1172 C1176 1.385 . S
C1173 H1154 0.951 . S
C1173 C1171 1.388 . S
C1173 C1174 1.366 . S
C1174 C1173 1.366 . S
C1174 C1175 1.414 . S
C1174 C1177 1.499 . S
C1175 H1155 0.950 . S
C1175 C1174 1.414 . S
C1175 C1176 1.374 . S
C1176 H1156 0.950 . S
C1176 C1172 1.385 . S
C1176 C1175 1.374 . S
C1177 C1174 1.499 . S
C1177 C1178 1.373 . S
C1177 C1179 1.389 . S
C1178 H1157 0.950 . S
C1178 C1177 1.373 . S
C1178 C1194 1.377 . S
C1179 C1177 1.389 . S
C1179 C1180 1.524 . S
C1179 C1193 1.377 . S
C1180 C1179 1.524 . S
C1180 C1181 1.397 . S
C1180 C1185 1.363 . S
C1181 H1158 0.950 . S
C1181 C1180 1.397 . S
C1181 C1182 1.334 . S
C1182 H1159 0.950 . S
C1182 C1181 1.334 . S
C1182 C1183 1.287 . S
C1183 C1182 1.287 . S
C1183 C1184 1.524 . S
C1183 H1202 0.913 . S
C1184 H1160 0.950 . S
C1184 C1183 1.524 . S
C1184 C1185 1.415 . S
C1185 H1161 0.950 . S
C1185 C1180 1.363 . S
C1185 C1184 1.415 . S
C1186 H1162 0.951 . S
C1186 C1187 1.366 . S
C1186 C1188 1.388 . S
C1187 C1186 1.366 . S
C1187 C1191 1.385 . S
C1188 H1163 0.951 . S
C1188 C1186 1.388 . S
C1188 C1189 1.366 . S
C1189 C1188 1.366 . S
C1189 C1190 1.414 . S
C1189 C1192 1.499 . S
C1190 H1164 0.950 . S
C1190 C1189 1.414 . S
C1190 C1191 1.374 . S
C1191 H1165 0.950 . S
C1191 C1187 1.385 . S
C1191 C1190 1.374 . S
C1192 C1189 1.499 . S
C1192 C1193 1.373 . S
C1192 C1194 1.389 . S
C1193 H1166 0.950 . S
C1193 C1179 1.377 . S
C1193 C1192 1.373 . S
C1194 C1178 1.377 . S
C1194 C1192 1.389 . S
C1194 C1195 1.524 . S
C1195 C1194 1.524 . S
C1195 C1196 1.397 . S
C1195 C1200 1.363 . S
C1196 H1167 0.950 . S
C1196 C1195 1.397 . S
C1196 C1197 1.334 . S
C1197 H1168 0.950 . S
C1197 C1196 1.334 . S
C1197 C1198 1.287 . S
C1198 C1197 1.287 . S
C1198 C1199 1.524 . S
C1198 H1201 0.999 . S
C1199 H1169 0.950 . S
C1199 C1198 1.524 . S
C1199 C1200 1.415 . S
C1200 H1170 0.950 . S
C1200 C1195 1.363 . S
C1200 C1199 1.415 . S
H1201 C1198 0.999 . S
H1202 C1183 0.913 . S
H1203 C1221 0.951 . S
H1204 C1223 0.951 . S
H1205 C1225 0.950 . S
H1206 C1226 0.950 . S
H1207 C1228 0.950 . S
H1208 C1231 0.950 . S
H1209 C1232 0.950 . S
H1210 C1234 0.950 . S
H1211 C1235 0.950 . S
H1212 C1236 0.951 . S
H1213 C1238 0.951 . S
H1214 C1240 0.950 . S
H1215 C1241 0.950 . S
H1216 C1243 0.950 . S
H1217 C1246 0.950 . S
H1218 C1247 0.950 . S
H1219 C1249 0.950 . S
H1220 C1250 0.950 . S
C1221 H1203 0.951 . S
C1221 C1222 1.366 . S
C1221 C1223 1.388 . S
C1222 C1221 1.366 . S
C1222 C1226 1.385 . S
C1223 H1204 0.951 . S
C1223 C1221 1.388 . S
C1223 C1224 1.366 . S
C1224 C1223 1.366 . S
C1224 C1225 1.414 . S
C1224 C1227 1.499 . S
C1225 H1205 0.950 . S
C1225 C1224 1.414 . S
C1225 C1226 1.374 . S
C1226 H1206 0.950 . S
C1226 C1222 1.385 . S
C1226 C1225 1.374 . S
C1227 C1224 1.499 . S
C1227 C1228 1.373 . S
C1227 C1229 1.389 . S
C1228 H1207 0.950 . S
C1228 C1227 1.373 . S
C1228 C1244 1.377 . S
C1229 C1227 1.389 . S
C1229 C1230 1.524 . S
C1229 C1243 1.377 . S
C1230 C1229 1.524 . S
C1230 C1231 1.397 . S
C1230 C1235 1.363 . S
C1231 H1208 0.950 . S
C1231 C1230 1.397 . S
C1231 C1232 1.334 . S
C1232 H1209 0.950 . S
C1232 C1231 1.334 . S
C1232 C1233 1.287 . S
C1233 C1232 1.287 . S
C1233 C1234 1.524 . S
C1233 H1252 0.913 . S
C1234 H1210 0.950 . S
C1234 C1233 1.524 . S
C1234 C1235 1.415 . S
C1235 H1211 0.950 . S
C1235 C1230 1.363 . S
C1235 C1234 1.415 . S
C1236 H1212 0.951 . S
C1236 C1237 1.366 . S
C1236 C1238 1.388 . S
C1237 C1236 1.366 . S
C1237 C1241 1.385 . S
C1238 H1213 0.951 . S
C1238 C1236 1.388 . S
C1238 C1239 1.366 . S
C1239 C1238 1.366 . S
C1239 C1240 1.414 . S
C1239 C1242 1.499 . S
C1240 H1214 0.950 . S
C1240 C1239 1.414 . S
C1240 C1241 1.374 . S
C1241 H1215 0.950 . S
C1241 C1237 1.385 . S
C1241 C1240 1.374 . S
C1242 C1239 1.499 . S
C1242 C1243 1.373 . S
C1242 C1244 1.389 . S
C1243 H1216 0.950 . S
C1243 C1229 1.377 . S
C1243 C1242 1.373 . S
C1244 C1228 1.377 . S
C1244 C1242 1.389 . S
C1244 C1245 1.524 . S
C1245 C1244 1.524 . S
C1245 C1246 1.397 . S
C1245 C1250 1.363 . S
C1246 H1217 0.950 . S
C1246 C1245 1.397 . S
C1246 C1247 1.334 . S
C1247 H1218 0.950 . S
C1247 C1246 1.334 . S
C1247 C1248 1.287 . S
C1248 C1247 1.287 . S
C1248 C1249 1.524 . S
C1248 H1251 0.999 . S
C1249 H1219 0.950 . S
C1249 C1248 1.524 . S
C1249 C1250 1.415 . S
C1250 H1220 0.950 . S
C1250 C1245 1.363 . S
C1250 C1249 1.415 . S
H1251 C1248 0.999 . S
H1252 C1233 0.913 . S
H1253 C1271 0.951 . S
H1254 C1273 0.951 . S
H1255 C1275 0.950 . S
H1256 C1276 0.950 . S
H1257 C1278 0.950 . S
H1258 C1281 0.950 . S
H1259 C1282 0.950 . S
H1260 C1284 0.950 . S
H1261 C1285 0.950 . S
H1262 C1286 0.951 . S
H1263 C1288 0.951 . S
H1264 C1290 0.950 . S
H1265 C1291 0.950 . S
H1266 C1293 0.950 . S
H1267 C1296 0.950 . S
H1268 C1297 0.950 . S
H1269 C1299 0.950 . S
H1270 C1300 0.950 . S
C1271 H1253 0.951 . S
C1271 C1272 1.366 . S
C1271 C1273 1.388 . S
C1272 C1271 1.366 . S
C1272 C1276 1.385 . S
C1273 H1254 0.951 . S
C1273 C1271 1.388 . S
C1273 C1274 1.366 . S
C1274 C1273 1.366 . S
C1274 C1275 1.414 . S
C1274 C1277 1.499 . S
C1275 H1255 0.950 . S
C1275 C1274 1.414 . S
C1275 C1276 1.374 . S
C1276 H1256 0.950 . S
C1276 C1272 1.385 . S
C1276 C1275 1.374 . S
C1277 C1274 1.499 . S
C1277 C1278 1.373 . S
C1277 C1279 1.389 . S
C1278 H1257 0.950 . S
C1278 C1277 1.373 . S
C1278 C1294 1.377 . S
C1279 C1277 1.389 . S
C1279 C1280 1.524 . S
C1279 C1293 1.377 . S
C1280 C1279 1.524 . S
C1280 C1281 1.397 . S
C1280 C1285 1.363 . S
C1281 H1258 0.950 . S
C1281 C1280 1.397 . S
C1281 C1282 1.334 . S
C1282 H1259 0.950 . S
C1282 C1281 1.334 . S
C1282 C1283 1.287 . S
C1283 C1282 1.287 . S
C1283 C1284 1.524 . S
C1283 H1302 0.913 . S
C1284 H1260 0.950 . S
C1284 C1283 1.524 . S
C1284 C1285 1.415 . S
C1285 H1261 0.950 . S
C1285 C1280 1.363 . S
C1285 C1284 1.415 . S
C1286 H1262 0.951 . S
C1286 C1287 1.366 . S
C1286 C1288 1.388 . S
C1287 C1286 1.366 . S
C1287 C1291 1.385 . S
C1288 H1263 0.951 . S
C1288 C1286 1.388 . S
C1288 C1289 1.366 . S
C1289 C1288 1.366 . S
C1289 C1290 1.414 . S
C1289 C1292 1.499 . S
C1290 H1264 0.950 . S
C1290 C1289 1.414 . S
C1290 C1291 1.374 . S
C1291 H1265 0.950 . S
C1291 C1287 1.385 . S
C1291 C1290 1.374 . S
C1292 C1289 1.499 . S
C1292 C1293 1.373 . S
C1292 C1294 1.389 . S
C1293 H1266 0.950 . S
C1293 C1279 1.377 . S
C1293 C1292 1.373 . S
C1294 C1278 1.377 . S
C1294 C1292 1.389 . S
C1294 C1295 1.524 . S
C1295 C1294 1.524 . S
C1295 C1296 1.397 . S
C1295 C1300 1.363 . S
C1296 H1267 0.950 . S
C1296 C1295 1.397 . S
C1296 C1297 1.334 . S
C1297 H1268 0.950 . S
C1297 C1296 1.334 . S
C1297 C1298 1.287 . S
C1298 C1297 1.287 . S
C1298 C1299 1.524 . S
C1298 H1301 0.999 . S
C1299 H1269 0.950 . S
C1299 C1298 1.524 . S
C1299 C1300 1.415 . S
C1300 H1270 0.950 . S
C1300 C1295 1.363 . S
C1300 C1299 1.415 . S
H1301 C1298 0.999 . S
H1302 C1283 0.913 . S
H1303 C1321 0.951 . S
H1304 C1323 0.951 . S
H1305 C1325 0.950 . S
H1306 C1326 0.950 . S
H1307 C1328 0.950 . S
H1308 C1331 0.950 . S
H1309 C1332 0.950 . S
H1310 C1334 0.950 . S
H1311 C1335 0.950 . S
H1312 C1336 0.951 . S
H1313 C1338 0.951 . S
H1314 C1340 0.950 . S
H1315 C1341 0.950 . S
H1316 C1343 0.950 . S
H1317 C1346 0.950 . S
H1318 C1347 0.950 . S
H1319 C1349 0.950 . S
H1320 C1350 0.950 . S
C1321 H1303 0.951 . S
C1321 C1322 1.366 . S
C1321 C1323 1.388 . S
C1322 C1321 1.366 . S
C1322 C1326 1.385 . S
C1323 H1304 0.951 . S
C1323 C1321 1.388 . S
C1323 C1324 1.366 . S
C1324 C1323 1.366 . S
C1324 C1325 1.414 . S
C1324 C1327 1.499 . S
C1325 H1305 0.950 . S
C1325 C1324 1.414 . S
C1325 C1326 1.374 . S
C1326 H1306 0.950 . S
C1326 C1322 1.385 . S
C1326 C1325 1.374 . S
C1327 C1324 1.499 . S
C1327 C1328 1.373 . S
C1327 C1329 1.389 . S
C1328 H1307 0.950 . S
C1328 C1327 1.373 . S
C1328 C1344 1.377 . S
C1329 C1327 1.389 . S
C1329 C1330 1.524 . S
C1329 C1343 1.377 . S
C1330 C1329 1.524 . S
C1330 C1331 1.397 . S
C1330 C1335 1.363 . S
C1331 H1308 0.950 . S
C1331 C1330 1.397 . S
C1331 C1332 1.334 . S
C1332 H1309 0.950 . S
C1332 C1331 1.334 . S
C1332 C1333 1.287 . S
C1333 C1332 1.287 . S
C1333 C1334 1.524 . S
C1333 H1352 0.913 . S
C1334 H1310 0.950 . S
C1334 C1333 1.524 . S
C1334 C1335 1.415 . S
C1335 H1311 0.950 . S
C1335 C1330 1.363 . S
C1335 C1334 1.415 . S
C1336 H1312 0.951 . S
C1336 C1337 1.366 . S
C1336 C1338 1.388 . S
C1337 C1336 1.366 . S
C1337 C1341 1.385 . S
C1338 H1313 0.951 . S
C1338 C1336 1.388 . S
C1338 C1339 1.366 . S
C1339 C1338 1.366 . S
C1339 C1340 1.414 . S
C1339 C1342 1.499 . S
C1340 H1314 0.950 . S
C1340 C1339 1.414 . S
C1340 C1341 1.374 . S
C1341 H1315 0.950 . S
C1341 C1337 1.385 . S
C1341 C1340 1.374 . S
C1342 C1339 1.499 . S
C1342 C1343 1.373 . S
C1342 C1344 1.389 . S
C1343 H1316 0.950 . S
C1343 C1329 1.377 . S
C1343 C1342 1.373 . S
C1344 C1328 1.377 . S
C1344 C1342 1.389 . S
C1344 C1345 1.524 . S
C1345 C1344 1.524 . S
C1345 C1346 1.397 . S
C1345 C1350 1.363 . S
C1346 H1317 0.950 . S
C1346 C1345 1.397 . S
C1346 C1347 1.334 . S
C1347 H1318 0.950 . S
C1347 C1346 1.334 . S
C1347 C1348 1.287 . S
C1348 C1347 1.287 . S
C1348 C1349 1.524 . S
C1348 H1351 0.999 . S
C1349 H1319 0.950 . S
C1349 C1348 1.524 . S
C1349 C1350 1.415 . S
C1350 H1320 0.950 . S
C1350 C1345 1.363 . S
C1350 C1349 1.415 . S
H1351 C1348 0.999 . S
H1352 C1333 0.913 . S
H1353 C1371 0.951 . S
H1354 C1373 0.951 . S
H1355 C1375 0.950 . S
H1356 C1376 0.950 . S
H1357 C1378 0.950 . S
H1358 C1381 0.950 . S
H1359 C1382 0.950 . S
H1360 C1384 0.950 . S
H1361 C1385 0.950 . S
H1362 C1386 0.951 . S
H1363 C1388 0.951 . S
H1364 C1390 0.950 . S
H1365 C1391 0.950 . S
H1366 C1393 0.950 . S
H1367 C1396 0.950 . S
H1368 C1397 0.950 . S
H1369 C1399 0.950 . S
H1370 C1400 0.950 . S
C1371 H1353 0.951 . S
C1371 C1372 1.366 . S
C1371 C1373 1.388 . S
C1372 C1371 1.366 . S
C1372 C1376 1.385 . S
C1373 H1354 0.951 . S
C1373 C1371 1.388 . S
C1373 C1374 1.366 . S
C1374 C1373 1.366 . S
C1374 C1375 1.414 . S
C1374 C1377 1.499 . S
C1375 H1355 0.950 . S
C1375 C1374 1.414 . S
C1375 C1376 1.374 . S
C1376 H1356 0.950 . S
C1376 C1372 1.385 . S
C1376 C1375 1.374 . S
C1377 C1374 1.499 . S
C1377 C1378 1.373 . S
C1377 C1379 1.389 . S
C1378 H1357 0.950 . S
C1378 C1377 1.373 . S
C1378 C1394 1.377 . S
C1379 C1377 1.389 . S
C1379 C1380 1.524 . S
C1379 C1393 1.377 . S
C1380 C1379 1.524 . S
C1380 C1381 1.397 . S
C1380 C1385 1.363 . S
C1381 H1358 0.950 . S
C1381 C1380 1.397 . S
C1381 C1382 1.334 . S
C1382 H1359 0.950 . S
C1382 C1381 1.334 . S
C1382 C1383 1.287 . S
C1383 C1382 1.287 . S
C1383 C1384 1.524 . S
C1383 H1402 0.913 . S
C1384 H1360 0.950 . S
C1384 C1383 1.524 . S
C1384 C1385 1.415 . S
C1385 H1361 0.950 . S
C1385 C1380 1.363 . S
C1385 C1384 1.415 . S
C1386 H1362 0.951 . S
C1386 C1387 1.366 . S
C1386 C1388 1.388 . S
C1387 C1386 1.366 . S
C1387 C1391 1.385 . S
C1388 H1363 0.951 . S
C1388 C1386 1.388 . S
C1388 C1389 1.366 . S
C1389 C1388 1.366 . S
C1389 C1390 1.414 . S
C1389 C1392 1.499 . S
C1390 H1364 0.950 . S
C1390 C1389 1.414 . S
C1390 C1391 1.374 . S
C1391 H1365 0.950 . S
C1391 C1387 1.385 . S
C1391 C1390 1.374 . S
C1392 C1389 1.499 . S
C1392 C1393 1.373 . S
C1392 C1394 1.389 . S
C1393 H1366 0.950 . S
C1393 C1379 1.377 . S
C1393 C1392 1.373 . S
C1394 C1378 1.377 . S
C1394 C1392 1.389 . S
C1394 C1395 1.524 . S
C1395 C1394 1.524 . S
C1395 C1396 1.397 . S
C1395 C1400 1.363 . S
C1396 H1367 0.950 . S
C1396 C1395 1.397 . S
C1396 C1397 1.334 . S
C1397 H1368 0.950 . S
C1397 C1396 1.334 . S
C1397 C1398 1.287 . S
C1398 C1397 1.287 . S
C1398 C1399 1.524 . S
C1398 H1401 0.999 . S
C1399 H1369 0.950 . S
C1399 C1398 1.524 . S
C1399 C1400 1.415 . S
C1400 H1370 0.950 . S
C1400 C1395 1.363 . S
C1400 C1399 1.415 . S
H1401 C1398 0.999 . S
H1402 C1383 0.913 . S
C237 C128 1.405 . S
C222 C9 1.465 . S
C287 C164 2.089 . S
C272 C22 2.215 . S
C337 C129 1.363 . S
C322 C30 1.352 . S
C387 C159 1.041 . S
C372 C47 1.075 . S
C437 C126 1.031 . S
C422 C61 1.064 . S
C472 C69 1.274 . S
C487 C162 1.321 . S
C522 C82 0.775 . S
C537 C131 0.768 . S
C587 C161 1.732 . S
C572 C99 1.784 . S
C637 C165 1.372 . S
C622 C4 1.425 . S
C687 C130 1.718 . S
C672 C21 1.789 . S
C737 C158 2.028 . S
C722 C34 2.033 . S
C787 C127 0.659 . S
C772 C48 0.594 . S
C837 C160 1.211 . S
C822 C60 1.288 . S
C872 C74 1.607 . S
C887 C125 1.608 . S
C922 C86 1.511 . S
C937 C163 1.444 . S
C987 C132 1.158 . S
C972 C95 1.159 . S
C1037 C194 1.989 . S
C1022 C8 2.114 . S
C1072 C56 1.126 . S
C1087 C197 1.099 . S
C1137 C196 1.636 . S
C1122 C73 1.695 . S
C1172 C87 2.382 . S
C1187 C195 2.366 . S
C1237 C198 2.043 . S
C1222 C100 2.143 . S
C1272 C35 2.218 . S
C1287 C192 2.145 . S
C1337 C191 1.253 . S
C1322 C43 1.246 . S
C1372 C17 1.936 . S
C1387 C193 1.892 . S
