# Generated by pormake.
# Topology rtl, (3,6)-cn, num edge types: 1
# Building blocks:
#     Node 0, Type 0, BuildingBlock: PAMTOO_clean_linker_0, # of connection points: 3
#     Node 1, Type 0, BuildingBlock: PAMTOO_clean_linker_0, # of connection points: 3
#     Node 2, Type 0, BuildingBlock: PAMTOO_clean_linker_0, # of connection points: 3
#     Node 3, Type 0, BuildingBlock: PAMTOO_clean_linker_0, # of connection points: 3
#     Node 4, Type 1, BuildingBlock: VOLQOD_clean_sbu_1, # of connection points: 6
#     Node 5, Type 1, BuildingBlock: VOLQOD_clean_sbu_1, # of connection points: 6
#     Edge 6, Type (0, 1), BuildingBlock: EZIPEK_clean_linker_0, # of connection points: 2
#     Edge 7, Type (0, 1), BuildingBlock: EZIPEK_clean_linker_0, # of connection points: 2
#     Edge 8, Type (0, 1), BuildingBlock: EZIPEK_clean_linker_0, # of connection points: 2
#     Edge 9, Type (0, 1), BuildingBlock: EZIPEK_clean_linker_0, # of connection points: 2
#     Edge 10, Type (0, 1), BuildingBlock: EZIPEK_clean_linker_0, # of connection points: 2
#     Edge 11, Type (0, 1), BuildingBlock: EZIPEK_clean_linker_0, # of connection points: 2
#     Edge 12, Type (0, 1), BuildingBlock: EZIPEK_clean_linker_0, # of connection points: 2
#     Edge 13, Type (0, 1), BuildingBlock: EZIPEK_clean_linker_0, # of connection points: 2
#     Edge 14, Type (0, 1), BuildingBlock: EZIPEK_clean_linker_0, # of connection points: 2
#     Edge 15, Type (0, 1), BuildingBlock: EZIPEK_clean_linker_0, # of connection points: 2
#     Edge 16, Type (0, 1), BuildingBlock: EZIPEK_clean_linker_0, # of connection points: 2
#     Edge 17, Type (0, 1), BuildingBlock: EZIPEK_clean_linker_0, # of connection points: 2
# Relax obj value: 0.042
# Max RMSD: 0.144
# Mean RMSD: 0.091
data_MOF--net-rtl--node1-VOLQOD_clean_sbu_1--node2-PAMTOO_clean_linker_0--edge1-EZIPEK_clean_linker_0
_symmetry_space_group_name_H-M    P1
_symmetry_Int_Tables_number       1
_symmetry_cell_setting            triclinic
loop_
_symmetry_equiv_pos_as_xyz
'x, y, z'
_cell_length_a     28.236464
_cell_length_b     28.258269
_cell_length_c     16.385973
_cell_angle_alpha  92.594827
_cell_angle_beta   90.482588
_cell_angle_gamma 90.330343
loop_
_atom_site_label
_atom_site_type_symbol
_atom_site_fract_x
_atom_site_fract_y
_atom_site_fract_z
_atom_type_partial_charge
H0 H 0.11806 0.88835 0.9801 0.0
H1 H 0.21522 0.80221 0.11066 0.0
H2 H 0.21519 0.79719 0.84774 0.0
H3 H 0.21762 0.70216 0.95122 0.0
C4 C 0.24567 0.71664 -0.00666 0.0
O5 O 0.25442 0.76367 0.97943 0.0
H6 H 0.23037 0.71321 0.05513 0.0
C7 C 0.14655 0.86272 0.97978 0.0
C8 C 0.16494 0.84526 0.90545 0.0
C9 C 0.16429 0.84713 0.0537 0.0
C10 C 0.20127 0.8143 0.05348 0.0
C11 C 0.21938 0.79598 0.97922 0.0
C12 C 0.20111 0.81132 0.90506 0.0
H13 H 0.61225 0.62035 0.52831 0.0
H14 H 0.70163 0.70477 0.38038 0.0
H15 H 0.71737 0.71305 0.64202 0.0
H16 H 0.72001 0.80586 0.55185 0.0
C17 C 0.74173 0.79225 0.49967 0.0
O18 O 0.74905 0.74426 0.50397 0.0
H19 H 0.72018 0.7997 0.44466 0.0
C20 C 0.64007 0.6467 0.52341 0.0
C21 C 0.66288 0.66529 0.59395 0.0
C22 C 0.65375 0.66089 0.44646 0.0
C23 C 0.69036 0.69415 0.43993 0.0
C24 C 0.71295 0.71328 0.51052 0.0
C25 C 0.69926 0.69886 0.58764 0.0
H26 H 0.89523 0.12111 -0.00095 0.0
H27 H 0.80974 0.22078 0.87363 0.0
H28 H 0.80904 0.22077 0.13625 0.0
H29 H 0.71651 0.23355 0.06422 0.0
C30 C 0.72622 0.2522 0.00835 0.0
O31 O 0.77433 0.26074 0.00729 0.0
H32 H 0.7155 0.22722 0.957 0.0
C33 C 0.87049 0.15038 0.0008 0.0
C34 C 0.85423 0.16886 0.07591 0.0
C35 C 0.85472 0.16897 0.92788 0.0
C36 C 0.82237 0.20645 0.92998 0.0
C37 C 0.80593 0.2251 0.0052 0.0
C38 C 0.82202 0.20647 0.07824 0.0
H39 H 0.39587 0.38406 0.46087 0.0
H40 H 0.31749 0.28958 0.60823 0.0
H41 H 0.29959 0.28193 0.34689 0.0
H42 H 0.2115 0.28529 0.48098 0.0
C43 C 0.22727 0.25483 0.51175 0.0
O44 O 0.2728 0.24651 0.48519 0.0
H45 H 0.22781 0.26641 0.57751 0.0
C46 C 0.37024 0.35557 0.46568 0.0
C47 C 0.34944 0.33471 0.39503 0.0
C48 C 0.35857 0.3397 0.54242 0.0
C49 C 0.32632 0.30229 0.54879 0.0
C50 C 0.30447 0.28199 0.47843 0.0
C51 C 0.31592 0.29822 0.40133 0.0
O52 O 0.89735 0.95574 0.49094 0.0
Zn53 Zn 0.9358 0.01558 0.49176 0.0
O54 O 0.00368 0.00209 0.4907 0.0
Zn55 Zn 0.03353 0.03079 0.58939 0.0
Zn56 Zn 0.01322 0.9334 0.48622 0.0
Zn57 Zn 0.03194 0.02883 0.39462 0.0
O58 O 0.08091 0.08114 0.56161 0.0
O59 O 0.0821 0.07681 0.42595 0.0
O60 O 0.91772 0.05427 0.59172 0.0
O61 O 0.98516 0.06288 0.66208 0.0
O62 O 0.06674 0.9812 0.6537 0.0
O63 O 0.05151 0.91378 0.58249 0.0
O64 O 0.04913 0.91179 0.38596 0.0
O65 O 0.91597 0.05242 0.3958 0.0
O66 O 0.06246 0.97864 0.323 0.0
O67 O 0.9831 0.06203 0.32824 0.0
C68 C 0.90815 0.91209 0.48918 0.0
C69 C 0.09676 0.09491 0.49408 0.0
C70 C 0.07037 0.93639 0.64343 0.0
C71 C 0.9409 0.06986 0.65418 0.0
C72 C 0.06648 0.93401 0.32726 0.0
C73 C 0.93878 0.06844 0.33635 0.0
O74 O 0.95093 0.89816 0.48709 0.0
O75 O 0.61069 0.45519 0.0071 0.0
Zn76 Zn 0.57228 0.51504 0.00749 0.0
O77 O 0.50447 0.50189 -0.0056 0.0
Zn78 Zn 0.48086 0.5322 0.89747 0.0
Zn79 Zn 0.49512 0.43337 0.9818 0.0
Zn80 Zn 0.46981 0.52654 0.09009 0.0
O81 O 0.43021 0.57973 0.92561 0.0
O82 O 0.41848 0.57192 0.05824 0.0
O83 O 0.59694 0.55456 0.91823 0.0
O84 O 0.53306 0.56618 0.84146 0.0
O85 O 0.45249 0.48385 0.81694 0.0
O86 O 0.46327 0.41528 0.87603 0.0
O87 O 0.45463 0.40909 0.07049 0.0
O88 O 0.58513 0.5508 0.11299 0.0
O89 O 0.4387 0.47346 0.14833 0.0
O90 O 0.5144 0.56066 0.17033 0.0
C91 C 0.59934 0.41169 -0.00305 0.0
C92 C 0.40795 0.59044 -0.00897 0.0
C93 C 0.4483 0.43897 0.81714 0.0
C94 C 0.57704 0.57195 0.85657 0.0
C95 C 0.43547 0.42899 0.13289 0.0
C96 C 0.55915 0.56678 0.17079 0.0
O97 O 0.55663 0.39834 -0.01438 0.0
C98 C 0.16271 0.20635 0.43772 0.0
C99 C 0.19784 0.2099 0.5 0.0
C100 C 0.17354 0.13165 0.54475 0.0
C101 C 0.13244 0.13366 0.49451 0.0
N102 N 0.0839 0.17855 0.40345 0.0
N103 N 0.2378 0.17474 0.61347 0.0
C104 C 0.12596 0.17243 0.44339 0.0
C105 C 0.20371 0.17209 0.55367 0.0
N106 N 0.16504 0.23414 0.37179 0.0
N107 N 0.18505 0.09046 0.58068 0.0
H108 H 0.26326 0.20158 0.61847 0.0
H109 H 0.23939 0.15135 0.66075 0.0
H110 H 0.16506 0.05943 0.57258 0.0
H111 H 0.21699 0.08549 0.6113 0.0
H112 H 0.14192 0.23004 0.32199 0.0
H113 H 0.19367 0.25652 0.36157 0.0
H114 H 0.07638 0.2088 0.37168 0.0
H115 H 0.05468 0.15636 0.4096 0.0
C116 C 0.29926 0.65681 0.9196 0.0
C117 C 0.29147 0.68869 -0.01257 0.0
C118 C 0.36689 0.66365 0.04733 0.0
C119 C 0.36865 0.62515 -0.01138 0.0
N120 N 0.3305 0.5806 0.87642 0.0
N121 N 0.31892 0.72316 0.1174 0.0
C122 C 0.33333 0.62055 0.92647 0.0
C123 C 0.3257 0.69243 0.05176 0.0
N124 N 0.27545 0.66189 0.84765 0.0
N125 N 0.4054 0.67429 0.09605 0.0
H126 H 0.29154 0.74771 0.12069 0.0
H127 H 0.33929 0.72267 0.17065 0.0
H128 H 0.43707 0.65556 0.09199 0.0
H129 H 0.40787 0.70471 0.13422 0.0
H130 H 0.28281 0.64145 0.79476 0.0
H131 H 0.2533 0.69049 0.8376 0.0
H132 H 0.30253 0.57408 0.83541 0.0
H133 H 0.35282 0.55167 0.88204 0.0
C134 C 0.8112 0.83448 0.57191 0.0
C135 C 0.78923 0.81759 0.49779 0.0
C136 C 0.85138 0.85528 0.41882 0.0
C137 C 0.86969 0.87674 0.49242 0.0
N138 N 0.86728 0.88918 0.63882 0.0
N139 N 0.79822 0.79686 0.35422 0.0
C140 C 0.84995 0.86665 0.56904 0.0
C141 C 0.81226 0.82349 0.42203 0.0
N142 N 0.79673 0.81764 0.64465 0.0
N143 N 0.87013 0.86705 0.34565 0.0
H144 H 0.77136 0.77144 0.35505 0.0
H145 H 0.81617 0.7961 0.29899 0.0
H146 H 0.89976 0.88899 0.34121 0.0
H147 H 0.85487 0.85758 0.28919 0.0
H148 H 0.81404 0.82512 0.70009 0.0
H149 H 0.77052 0.79176 0.64889 0.0
H150 H 0.85065 0.88841 0.69519 0.0
H151 H 0.89705 0.91126 0.63963 0.0
C152 C 0.68891 0.32512 0.07767 0.0
C153 C 0.69966 0.29863 0.00446 0.0
C154 C 0.65189 0.35272 0.92504 0.0
C155 C 0.63665 0.37541 -0.00087 0.0
N156 N 0.63814 0.38311 0.14625 0.0
N157 N 0.70676 0.29823 0.85782 0.0
C158 C 0.65503 0.36209 0.07554 0.0
C159 C 0.68571 0.31569 0.92768 0.0
N160 N 0.71278 0.31634 0.14833 0.0
N161 N 0.63284 0.36568 0.85236 0.0
H162 H 0.7338 0.27327 0.85794 0.0
H163 H 0.7014 0.31188 0.80059 0.0
H164 H 0.60992 0.39428 0.84772 0.0
H165 H 0.63753 0.34672 0.79712 0.0
H166 H 0.70996 0.33721 0.20201 0.0
H167 H 0.73949 0.29116 0.15136 0.0
H168 H 0.64538 0.37106 0.2041 0.0
H169 H 0.61409 0.41101 0.14717 0.0
C170 C 0.09665 0.84771 0.1508 0.0
C171 C 0.14231 0.86461 0.13089 0.0
C172 C 0.14146 0.91966 0.25039 0.0
C173 C 0.09326 0.90771 0.26305 0.0
N174 N 0.02282 0.8641 0.22037 0.0
N175 N 0.20711 0.91943 0.15614 0.0
C176 C 0.07031 0.87233 0.21252 0.0
C177 C 0.16466 0.90113 0.1795 0.0
N178 N 0.07874 0.80788 0.11099 0.0
N179 N 0.16538 0.94767 0.30737 0.0
H180 H 0.22563 0.90621 0.10532 0.0
H181 H 0.22237 0.94984 0.18364 0.0
H182 H 0.14972 0.96122 0.36087 0.0
H183 H 0.20176 0.95374 0.30559 0.0
H184 H 0.04772 0.79106 0.12824 0.0
H185 H 0.09718 0.78906 0.06526 0.0
H186 H 0.00314 0.84263 0.17921 0.0
H187 H 0.002 0.88176 0.26414 0.0
C188 C 0.66632 0.60196 0.69434 0.0
C189 C 0.64923 0.64688 0.67346 0.0
C190 C 0.59428 0.64719 0.78806 0.0
C191 C 0.60562 0.59911 0.79974 0.0
N192 N 0.65018 0.52897 0.76108 0.0
N193 N 0.59672 0.7128 0.69769 0.0
C194 C 0.64167 0.57616 0.75315 0.0
C195 C 0.61355 0.67002 0.72028 0.0
N196 N 0.70591 0.58397 0.65717 0.0
N197 N 0.56572 0.67107 0.84264 0.0
H198 H 0.61134 0.73128 0.65019 0.0
H199 H 0.56679 0.72881 0.72298 0.0
H200 H 0.55152 0.65537 0.89351 0.0
H201 H 0.55959 0.70735 0.84193 0.0
H202 H 0.72291 0.55348 0.67509 0.0
H203 H 0.7244 0.60205 0.6132 0.0
H204 H 0.67204 0.50908 0.72207 0.0
H205 H 0.63264 0.50847 0.80281 0.0
C206 C 0.90807 0.16807 0.19831 0.0
C207 C 0.87056 0.14693 0.15134 0.0
C208 C 0.87678 0.07446 0.22695 0.0
C209 C 0.91332 0.09613 0.27576 0.0
N210 N 0.95565 0.16689 0.32195 0.0
N211 N 0.81186 0.08517 0.13184 0.0
C212 C 0.92655 0.14403 0.26569 0.0
C213 C 0.85246 0.10175 0.16949 0.0
N214 N 0.92728 0.21015 0.17658 0.0
N215 N 0.86712 0.02721 0.23219 0.0
H216 H 0.79329 0.1044 0.08923 0.0
H217 H 0.79426 0.05459 0.1482 0.0
H218 H 0.88456 0.00571 0.27274 0.0
H219 H 0.84462 0.00833 0.19177 0.0
H220 H 0.95833 0.22443 0.20237 0.0
H221 H 0.91395 0.22938 0.12872 0.0
H222 H 0.96298 0.20306 0.32224 0.0
H223 H 0.96888 0.15062 0.37321 0.0
C224 C 0.4278 0.35223 0.63687 0.0
C225 C 0.38041 0.36306 0.61597 0.0
C226 C 0.37627 0.42082 0.73147 0.0
C227 C 0.42505 0.41334 0.7474 0.0
N228 N 0.49947 0.37751 0.70902 0.0
N229 N 0.31107 0.41172 0.63489 0.0
C230 C 0.45147 0.3804 0.6986 0.0
C231 C 0.35498 0.39847 0.66097 0.0
N232 N 0.4498 0.3145 0.59856 0.0
N233 N 0.34992 0.44776 0.78539 0.0
H234 H 0.29382 0.39548 0.58441 0.0
H235 H 0.29318 0.44109 0.65949 0.0
H236 H 0.36417 0.46433 0.83828 0.0
H237 H 0.3132 0.45039 0.78165 0.0
H238 H 0.48252 0.3017 0.6169 0.0
H239 H 0.43355 0.29333 0.55245 0.0
H240 H 0.52137 0.3579 0.66966 0.0
H241 H 0.51821 0.398 0.75307 0.0
C242 C 0.59451 0.66213 0.33155 0.0
C243 C 0.63098 0.63829 0.3729 0.0
C244 C 0.61602 0.56626 0.28801 0.0
C245 C 0.58242 0.59126 0.24191 0.0
N246 N 0.54462 0.66474 0.21068 0.0
N247 N 0.68237 0.57086 0.3827 0.0
C248 C 0.57287 0.63971 0.26122 0.0
C249 C 0.64354 0.59127 0.34868 0.0
N250 N 0.57967 0.70557 0.3609 0.0
N251 N 0.62012 0.51821 0.27625 0.0
H252 H 0.70335 0.58809 0.42771 0.0
H253 H 0.69626 0.53861 0.36137 0.0
H254 H 0.59976 0.49833 0.23362 0.0
H255 H 0.64035 0.49738 0.3139 0.0
H256 H 0.54967 0.72233 0.33913 0.0
H257 H 0.59539 0.72349 0.41129 0.0
H258 H 0.54045 0.70131 0.21666 0.0
H259 H 0.52823 0.64958 0.15845 0.0
C260 C 0.91014 0.16848 0.80914 0.0
C261 C 0.87185 0.14738 0.84979 0.0
C262 C 0.87854 0.07541 0.76199 0.0
C263 C 0.91573 0.09714 0.7192 0.0
N264 N 0.95957 0.16769 0.68892 0.0
N265 N 0.8126 0.08596 0.85476 0.0
C266 C 0.92936 0.14475 0.73884 0.0
C267 C 0.85371 0.10249 0.82262 0.0
N268 N 0.92933 0.21023 0.83958 0.0
N269 N 0.86872 0.02825 0.74803 0.0
H270 H 0.79367 0.10501 0.8996 0.0
H271 H 0.79499 0.05564 0.83189 0.0
H272 H 0.88667 0.0068 0.70523 0.0
H273 H 0.84562 0.00931 0.78368 0.0
H274 H 0.96085 0.22441 0.81856 0.0
H275 H 0.91543 0.2293 0.88976 0.0
H276 H 0.96704 0.2038 0.69544 0.0
H277 H 0.97387 0.15162 0.63617 0.0
C278 C 0.41065 0.33578 0.28733 0.0
C279 C 0.3656 0.35069 0.31518 0.0
C280 C 0.36206 0.40873 0.20896 0.0
C281 C 0.4103 0.39943 0.19092 0.0
N282 N 0.48263 0.35737 0.21899 0.0
N283 N 0.2982 0.40208 0.30596 0.0
C284 C 0.43506 0.36327 0.2307 0.0
C285 C 0.34089 0.38701 0.27629 0.0
N286 N 0.43018 0.29555 0.31602 0.0
N287 N 0.33637 0.43751 0.16068 0.0
H288 H 0.28096 0.38573 0.35331 0.0
H289 H 0.28114 0.43225 0.28679 0.0
H290 H 0.3507 0.45339 0.11012 0.0
H291 H 0.29995 0.44214 0.16603 0.0
H292 H 0.4609 0.28025 0.29237 0.0
H293 H 0.41304 0.27489 0.35811 0.0
H294 H 0.5034 0.33521 0.25336 0.0
H295 H 0.50253 0.37767 0.1801 0.0
C296 C 0.16781 0.89978 0.78869 0.0
C297 C 0.14471 0.8628 0.82882 0.0
C298 C 0.07291 0.87385 0.74733 0.0
C299 C 0.09655 0.90965 0.70479 0.0
N300 N 0.16943 0.94908 0.67142 0.0
N301 N 0.08009 0.80716 0.8346 0.0
C302 C 0.14497 0.92034 0.72138 0.0
C303 C 0.09881 0.84732 0.80393 0.0
N304 N 0.21067 0.91656 0.817 0.0
N305 N 0.02515 0.86713 0.73752 0.0
H306 H 0.09828 0.78705 0.87645 0.0
H307 H 0.04874 0.79136 0.81294 0.0
H308 H 0.00439 0.88668 0.69849 0.0
H309 H 0.00521 0.8452 0.77356 0.0
H310 H 0.22654 0.9472 0.79675 0.0
H311 H 0.22908 0.90159 0.86477 0.0
H312 H 0.20591 0.95441 0.67553 0.0
H313 H 0.15404 0.96422 0.62079 0.0
loop_
_geom_bond_atom_site_label_1
_geom_bond_atom_site_label_2
_geom_bond_distance
_geom_bond_site_symmetry_2
_ccdc_geom_bond_type
H0 C7 0.929 . S
H1 C10 0.930 . S
H2 C12 0.929 . S
H3 C4 0.969 . S
C4 H3 0.969 . S
C4 O5 1.550 1_554 S
C4 H6 0.973 . S
O5 C4 1.550 1_556 S
O5 C11 1.412 . S
H6 C4 0.973 . S
C7 H0 0.929 . S
C7 C8 1.400 1_554 S
C7 C9 1.364 . S
C8 C7 1.400 1_556 S
C8 C12 1.377 . S
C9 C7 1.364 . S
C9 C10 1.374 . S
C10 H1 0.930 . S
C10 C9 1.374 . S
C10 C11 1.383 1_554 S
C11 O5 1.412 . S
C11 C10 1.383 1_556 S
C11 C12 1.394 . S
C12 H2 0.929 . S
C12 C8 1.377 . S
C12 C11 1.394 . S
H13 C20 0.929 . S
H14 C23 0.930 . S
H15 C25 0.929 . S
H16 C17 0.969 . S
C17 H16 0.969 . S
C17 O18 1.550 . S
C17 H19 0.973 . S
O18 C17 1.550 . S
O18 C24 1.412 . S
H19 C17 0.973 . S
C20 H13 0.929 . S
C20 C21 1.400 . S
C20 C22 1.364 . S
C21 C20 1.400 . S
C21 C25 1.377 . S
C22 C20 1.364 . S
C22 C23 1.374 . S
C23 H14 0.930 . S
C23 C22 1.374 . S
C23 C24 1.383 . S
C24 O18 1.412 . S
C24 C23 1.383 . S
C24 C25 1.394 . S
C25 H15 0.929 . S
C25 C21 1.377 . S
C25 C24 1.394 . S
H26 C33 0.929 . S
H27 C36 0.930 . S
H28 C38 0.929 . S
H29 C30 0.969 . S
C30 H29 0.969 . S
C30 O31 1.550 1_556 S
C30 H32 0.973 . S
O31 C30 1.550 1_554 S
O31 C37 1.412 . S
H32 C30 0.973 . S
C33 H26 0.929 . S
C33 C34 1.400 . S
C33 C35 1.364 1_554 S
C34 C33 1.400 . S
C34 C38 1.377 . S
C35 C33 1.364 1_556 S
C35 C36 1.374 . S
C36 H27 0.930 . S
C36 C35 1.374 . S
C36 C37 1.383 1_556 S
C37 O31 1.412 . S
C37 C36 1.383 1_554 S
C37 C38 1.394 . S
C38 H28 0.929 . S
C38 C34 1.377 . S
C38 C37 1.394 . S
H39 C46 0.929 . S
H40 C49 0.930 . S
H41 C51 0.929 . S
H42 C43 0.969 . S
C43 H42 0.969 . S
C43 O44 1.550 . S
C43 H45 0.973 . S
O44 C43 1.550 . S
O44 C50 1.412 . S
H45 C43 0.973 . S
C46 H39 0.929 . S
C46 C47 1.400 . S
C46 C48 1.364 . S
C47 C46 1.400 . S
C47 C51 1.377 . S
C48 C46 1.364 . S
C48 C49 1.374 . S
C49 H40 0.930 . S
C49 C48 1.374 . S
C49 C50 1.383 . S
C50 O44 1.412 . S
C50 C49 1.383 . S
C50 C51 1.394 . S
C51 H41 0.929 . S
C51 C47 1.377 . S
C51 C50 1.394 . S
O52 Zn53 1.953 1_565 S
O52 C68 1.225 . S
Zn53 O52 1.953 1_545 S
Zn53 O54 1.949 1_655 S
Zn53 O60 1.919 . S
Zn53 O65 1.924 . S
O54 Zn53 1.949 1_455 S
O54 Zn55 1.923 . S
O54 Zn56 1.950 1_545 S
O54 Zn57 1.945 . S
Zn55 O54 1.923 . S
Zn55 O58 1.933 . S
Zn55 O61 1.941 . S
Zn55 O62 1.965 1_545 S
Zn56 O54 1.950 1_565 S
Zn56 O63 1.938 . S
Zn56 O64 1.906 . S
Zn56 O74 1.953 1_455 S
Zn57 O54 1.945 . S
Zn57 O59 1.932 . S
Zn57 O66 1.977 1_545 S
Zn57 O67 1.910 1_455 S
O58 Zn55 1.933 . S
O58 C69 1.226 . S
O59 Zn57 1.932 . S
O59 C69 1.307 . S
O60 Zn53 1.919 . S
O60 C71 1.253 . S
O61 Zn55 1.941 . S
O61 C71 1.283 1_455 S
O62 Zn55 1.965 1_565 S
O62 C70 1.303 . S
O63 Zn56 1.938 . S
O63 C70 1.247 . S
O64 Zn56 1.906 . S
O64 C72 1.304 . S
O65 Zn53 1.924 . S
O65 C73 1.311 . S
O66 Zn57 1.977 1_565 S
O66 C72 1.272 . S
O67 Zn57 1.910 1_655 S
O67 C73 1.231 . S
C68 O52 1.225 . S
C68 O74 1.298 . S
C69 O58 1.226 . S
C69 O59 1.307 . S
C70 O62 1.303 . S
C70 O63 1.247 . S
C71 O60 1.253 . S
C71 O61 1.283 1_655 S
C72 O64 1.304 . S
C72 O66 1.272 . S
C73 O65 1.311 . S
C73 O67 1.231 . S
O74 Zn56 1.953 1_655 S
O74 C68 1.298 . S
O75 Zn76 1.953 . S
O75 C91 1.225 1_556 S
Zn76 O75 1.953 . S
Zn76 O77 1.949 1_556 S
Zn76 O83 1.919 . S
Zn76 O88 1.924 1_556 S
O77 Zn76 1.949 1_554 S
O77 Zn78 1.923 1_554 S
O77 Zn79 1.950 . S
O77 Zn80 1.945 . S
Zn78 O77 1.923 1_556 S
Zn78 O81 1.933 . S
Zn78 O84 1.941 . S
Zn78 O85 1.965 . S
Zn79 O77 1.950 . S
Zn79 O86 1.938 1_554 S
Zn79 O87 1.906 . S
Zn79 O97 1.953 . S
Zn80 O77 1.945 . S
Zn80 O82 1.932 . S
Zn80 O89 1.977 . S
Zn80 O90 1.910 . S
O81 Zn78 1.933 . S
O81 C92 1.226 1_556 S
O82 Zn80 1.932 . S
O82 C92 1.307 . S
O83 Zn76 1.919 . S
O83 C94 1.253 . S
O84 Zn78 1.941 . S
O84 C94 1.283 . S
O85 Zn78 1.965 . S
O85 C93 1.303 . S
O86 Zn79 1.938 1_556 S
O86 C93 1.247 . S
O87 Zn79 1.906 . S
O87 C95 1.304 . S
O88 Zn76 1.924 1_554 S
O88 C96 1.311 . S
O89 Zn80 1.977 . S
O89 C95 1.272 . S
O90 Zn80 1.910 . S
O90 C96 1.231 . S
C91 O75 1.225 1_554 S
C91 O97 1.298 . S
C92 O81 1.226 1_554 S
C92 O82 1.307 . S
C93 O85 1.303 . S
C93 O86 1.247 . S
C94 O83 1.253 . S
C94 O84 1.283 . S
C95 O87 1.304 . S
C95 O89 1.272 . S
C96 O88 1.311 . S
C96 O90 1.231 . S
O97 Zn79 1.953 . S
O97 C91 1.298 . S
C98 C99 1.363 . S
C98 C104 1.379 . S
C98 N106 1.356 . S
C99 C98 1.363 . S
C99 C105 1.363 . S
C100 C101 1.363 . S
C100 C105 1.379 . S
C100 N107 1.356 . S
C101 C100 1.363 . S
C101 C104 1.363 . S
N102 C104 1.356 . S
N102 H114 0.984 . S
N102 H115 0.985 . S
N103 C105 1.356 . S
N103 H108 0.984 . S
N103 H109 0.985 . S
C104 C98 1.379 . S
C104 C101 1.363 . S
C104 N102 1.356 . S
C105 C99 1.363 . S
C105 C100 1.379 . S
C105 N103 1.356 . S
N106 C98 1.356 . S
N106 H112 0.984 . S
N106 H113 0.984 . S
N107 C100 1.356 . S
N107 H110 0.984 . S
N107 H111 0.985 . S
H108 N103 0.984 . S
H109 N103 0.985 . S
H110 N107 0.984 . S
H111 N107 0.985 . S
H112 N106 0.984 . S
H113 N106 0.984 . S
H114 N102 0.984 . S
H115 N102 0.985 . S
C116 C117 1.363 1_556 S
C116 C122 1.379 . S
C116 N124 1.356 . S
C117 C116 1.363 1_554 S
C117 C123 1.363 . S
C118 C119 1.363 . S
C118 C123 1.379 . S
C118 N125 1.356 . S
C119 C118 1.363 . S
C119 C122 1.363 1_554 S
N120 C122 1.356 . S
N120 H132 0.984 . S
N120 H133 0.985 . S
N121 C123 1.356 . S
N121 H126 0.984 . S
N121 H127 0.985 . S
C122 C116 1.379 . S
C122 C119 1.363 1_556 S
C122 N120 1.356 . S
C123 C117 1.363 . S
C123 C118 1.379 . S
C123 N121 1.356 . S
N124 C116 1.356 . S
N124 H130 0.984 . S
N124 H131 0.984 . S
N125 C118 1.356 . S
N125 H128 0.984 . S
N125 H129 0.985 . S
H126 N121 0.984 . S
H127 N121 0.985 . S
H128 N125 0.984 . S
H129 N125 0.985 . S
H130 N124 0.984 . S
H131 N124 0.984 . S
H132 N120 0.984 . S
H133 N120 0.985 . S
C134 C135 1.363 . S
C134 C140 1.379 . S
C134 N142 1.356 . S
C135 C134 1.363 . S
C135 C141 1.363 . S
C136 C137 1.363 . S
C136 C141 1.379 . S
C136 N143 1.356 . S
C137 C136 1.363 . S
C137 C140 1.363 . S
N138 C140 1.356 . S
N138 H150 0.984 . S
N138 H151 0.985 . S
N139 C141 1.356 . S
N139 H144 0.984 . S
N139 H145 0.985 . S
C140 C134 1.379 . S
C140 C137 1.363 . S
C140 N138 1.356 . S
C141 C135 1.363 . S
C141 C136 1.379 . S
C141 N139 1.356 . S
N142 C134 1.356 . S
N142 H148 0.984 . S
N142 H149 0.984 . S
N143 C136 1.356 . S
N143 H146 0.984 . S
N143 H147 0.985 . S
H144 N139 0.984 . S
H145 N139 0.985 . S
H146 N143 0.984 . S
H147 N143 0.985 . S
H148 N142 0.984 . S
H149 N142 0.984 . S
H150 N138 0.984 . S
H151 N138 0.985 . S
C152 C153 1.353 1_554 S
C152 C158 1.379 . S
C152 N160 1.356 . S
C153 C152 1.353 1_556 S
C153 C159 1.373 . S
C154 C155 1.363 1_556 S
C154 C159 1.379 . S
C154 N161 1.356 . S
C155 C154 1.363 1_554 S
C155 C158 1.363 . S
N156 C158 1.356 . S
N156 H168 0.984 . S
N156 H169 0.985 . S
N157 C159 1.356 . S
N157 H162 0.984 . S
N157 H163 0.985 . S
C158 C152 1.379 . S
C158 C155 1.363 . S
C158 N156 1.356 . S
C159 C153 1.373 . S
C159 C154 1.379 . S
C159 N157 1.356 . S
N160 C152 1.356 . S
N160 H166 0.984 . S
N160 H167 0.984 . S
N161 C154 1.356 . S
N161 H164 0.984 . S
N161 H165 0.985 . S
H162 N157 0.984 . S
H163 N157 0.985 . S
H164 N161 0.984 . S
H165 N161 0.985 . S
H166 N160 0.984 . S
H167 N160 0.984 . S
H168 N156 0.984 . S
H169 N156 0.985 . S
C170 C171 1.363 . S
C170 C176 1.379 . S
C170 N178 1.356 . S
C171 C170 1.363 . S
C171 C177 1.363 . S
C172 C173 1.363 . S
C172 C177 1.379 . S
C172 N179 1.356 . S
C173 C172 1.363 . S
C173 C176 1.363 . S
N174 C176 1.356 . S
N174 H186 0.984 . S
N174 H187 0.985 . S
N175 C177 1.356 . S
N175 H180 0.984 . S
N175 H181 0.985 . S
C176 C170 1.379 . S
C176 C173 1.363 . S
C176 N174 1.356 . S
C177 C171 1.363 . S
C177 C172 1.379 . S
C177 N175 1.356 . S
N178 C170 1.356 . S
N178 H184 0.984 . S
N178 H185 0.984 . S
N179 C172 1.356 . S
N179 H182 0.984 . S
N179 H183 0.985 . S
H180 N175 0.984 . S
H181 N175 0.985 . S
H182 N179 0.984 . S
H183 N179 0.985 . S
H184 N178 0.984 . S
H185 N178 0.984 . S
H186 N174 0.984 . S
H187 N174 0.985 . S
C188 C189 1.363 . S
C188 C194 1.379 . S
C188 N196 1.356 . S
C189 C188 1.363 . S
C189 C195 1.363 . S
C190 C191 1.363 . S
C190 C195 1.379 . S
C190 N197 1.356 . S
C191 C190 1.363 . S
C191 C194 1.363 . S
N192 C194 1.356 . S
N192 H204 0.984 . S
N192 H205 0.985 . S
N193 C195 1.356 . S
N193 H198 0.984 . S
N193 H199 0.985 . S
C194 C188 1.379 . S
C194 C191 1.363 . S
C194 N192 1.356 . S
C195 C189 1.363 . S
C195 C190 1.379 . S
C195 N193 1.356 . S
N196 C188 1.356 . S
N196 H202 0.984 . S
N196 H203 0.984 . S
N197 C190 1.356 . S
N197 H200 0.984 . S
N197 H201 0.985 . S
H198 N193 0.984 . S
H199 N193 0.985 . S
H200 N197 0.984 . S
H201 N197 0.985 . S
H202 N196 0.984 . S
H203 N196 0.984 . S
H204 N192 0.984 . S
H205 N192 0.985 . S
C206 C207 1.363 . S
C206 C212 1.379 . S
C206 N214 1.356 . S
C207 C206 1.363 . S
C207 C213 1.363 . S
C208 C209 1.363 . S
C208 C213 1.379 . S
C208 N215 1.356 . S
C209 C208 1.363 . S
C209 C212 1.363 . S
N210 C212 1.356 . S
N210 H222 0.984 . S
N210 H223 0.985 . S
N211 C213 1.356 . S
N211 H216 0.984 . S
N211 H217 0.985 . S
C212 C206 1.379 . S
C212 C209 1.363 . S
C212 N210 1.356 . S
C213 C207 1.363 . S
C213 C208 1.379 . S
C213 N211 1.356 . S
N214 C206 1.356 . S
N214 H220 0.984 . S
N214 H221 0.984 . S
N215 C208 1.356 . S
N215 H218 0.984 . S
N215 H219 0.985 . S
H216 N211 0.984 . S
H217 N211 0.985 . S
H218 N215 0.984 . S
H219 N215 0.985 . S
H220 N214 0.984 . S
H221 N214 0.984 . S
H222 N210 0.984 . S
H223 N210 0.985 . S
C224 C225 1.363 . S
C224 C230 1.379 . S
C224 N232 1.356 . S
C225 C224 1.363 . S
C225 C231 1.363 . S
C226 C227 1.363 . S
C226 C231 1.379 . S
C226 N233 1.356 . S
C227 C226 1.363 . S
C227 C230 1.363 . S
N228 C230 1.356 . S
N228 H240 0.984 . S
N228 H241 0.985 . S
N229 C231 1.356 . S
N229 H234 0.984 . S
N229 H235 0.985 . S
C230 C224 1.379 . S
C230 C227 1.363 . S
C230 N228 1.356 . S
C231 C225 1.363 . S
C231 C226 1.379 . S
C231 N229 1.356 . S
N232 C224 1.356 . S
N232 H238 0.984 . S
N232 H239 0.984 . S
N233 C226 1.356 . S
N233 H236 0.984 . S
N233 H237 0.985 . S
H234 N229 0.984 . S
H235 N229 0.985 . S
H236 N233 0.984 . S
H237 N233 0.985 . S
H238 N232 0.984 . S
H239 N232 0.984 . S
H240 N228 0.984 . S
H241 N228 0.985 . S
C242 C243 1.363 . S
C242 C248 1.379 . S
C242 N250 1.356 . S
C243 C242 1.363 . S
C243 C249 1.363 . S
C244 C245 1.363 . S
C244 C249 1.379 . S
C244 N251 1.356 . S
C245 C244 1.363 . S
C245 C248 1.363 . S
N246 C248 1.356 . S
N246 H258 0.984 . S
N246 H259 0.985 . S
N247 C249 1.356 . S
N247 H252 0.984 . S
N247 H253 0.985 . S
C248 C242 1.379 . S
C248 C245 1.363 . S
C248 N246 1.356 . S
C249 C243 1.363 . S
C249 C244 1.379 . S
C249 N247 1.356 . S
N250 C242 1.356 . S
N250 H256 0.984 . S
N250 H257 0.984 . S
N251 C244 1.356 . S
N251 H254 0.984 . S
N251 H255 0.985 . S
H252 N247 0.984 . S
H253 N247 0.985 . S
H254 N251 0.984 . S
H255 N251 0.985 . S
H256 N250 0.984 . S
H257 N250 0.984 . S
H258 N246 0.984 . S
H259 N246 0.985 . S
C260 C261 1.363 . S
C260 C266 1.379 . S
C260 N268 1.356 . S
C261 C260 1.363 . S
C261 C267 1.363 . S
C262 C263 1.363 . S
C262 C267 1.379 . S
C262 N269 1.356 . S
C263 C262 1.363 . S
C263 C266 1.363 . S
N264 C266 1.356 . S
N264 H276 0.984 . S
N264 H277 0.985 . S
N265 C267 1.356 . S
N265 H270 0.984 . S
N265 H271 0.985 1_556 S
C266 C260 1.379 . S
C266 C263 1.363 . S
C266 N264 1.356 . S
C267 C261 1.363 . S
C267 C262 1.379 . S
C267 N265 1.356 . S
N268 C260 1.356 . S
N268 H274 0.984 . S
N268 H275 0.984 . S
N269 C262 1.356 . S
N269 H272 0.984 . S
N269 H273 0.985 . S
H270 N265 0.984 . S
H271 N265 0.985 1_554 S
H272 N269 0.984 . S
H273 N269 0.985 . S
H274 N268 0.984 . S
H275 N268 0.984 . S
H276 N264 0.984 . S
H277 N264 0.985 . S
C278 C279 1.363 . S
C278 C284 1.379 . S
C278 N286 1.356 . S
C279 C278 1.363 . S
C279 C285 1.363 . S
C280 C281 1.363 . S
C280 C285 1.379 . S
C280 N287 1.356 . S
C281 C280 1.363 . S
C281 C284 1.363 . S
N282 C284 1.356 . S
N282 H294 0.984 . S
N282 H295 0.985 . S
N283 C285 1.356 . S
N283 H288 0.984 . S
N283 H289 0.985 . S
C284 C278 1.379 . S
C284 C281 1.363 . S
C284 N282 1.356 . S
C285 C279 1.363 . S
C285 C280 1.379 . S
C285 N283 1.356 . S
N286 C278 1.356 . S
N286 H292 0.984 . S
N286 H293 0.984 . S
N287 C280 1.356 . S
N287 H290 0.984 . S
N287 H291 0.985 . S
H288 N283 0.984 . S
H289 N283 0.985 . S
H290 N287 0.984 . S
H291 N287 0.985 . S
H292 N286 0.984 . S
H293 N286 0.984 . S
H294 N282 0.984 . S
H295 N282 0.985 . S
C296 C297 1.363 . S
C296 C302 1.379 . S
C296 N304 1.356 . S
C297 C296 1.363 . S
C297 C303 1.363 . S
C298 C299 1.363 . S
C298 C303 1.379 . S
C298 N305 1.356 . S
C299 C298 1.363 . S
C299 C302 1.363 . S
N300 C302 1.356 . S
N300 H312 0.984 . S
N300 H313 0.985 . S
N301 C303 1.356 . S
N301 H306 0.984 . S
N301 H307 0.985 . S
C302 C296 1.379 . S
C302 C299 1.363 . S
C302 N300 1.356 . S
C303 C297 1.363 . S
C303 C298 1.379 . S
C303 N301 1.356 . S
N304 C296 1.356 . S
N304 H310 0.984 . S
N304 H311 0.984 . S
N305 C298 1.356 . S
N305 H308 0.984 . S
N305 H309 0.995 . S
H306 N301 0.984 . S
H307 N301 0.985 . S
H308 N305 0.984 . S
H309 N305 0.995 . S
H310 N304 0.984 . S
H311 N304 0.984 . S
H312 N300 0.984 . S
H313 N300 0.985 . S
C101 C69 1.488 . S
C99 C43 1.438 . S
C117 C4 1.452 . S
C119 C92 1.492 . S
C135 C17 1.471 . S
C137 C68 1.517 . S
C153 C30 1.469 . S
C155 C91 1.514 . S
C173 C72 1.448 . S
C171 C9 1.481 . S
C191 C94 1.469 . S
C189 C21 1.527 . S
C207 C34 1.519 . S
C209 C73 1.455 . S
C225 C48 1.524 . S
C227 C93 1.469 . S
C245 C96 1.450 . S
C243 C22 1.493 . S
C263 C71 1.477 . S
C261 C35 1.527 . S
C281 C95 1.449 . S
C279 C47 1.506 . S
C297 C8 1.521 . S
C299 C70 1.463 . S
