# Generated by pormake.
# Topology ant, (3,6)-cn, num edge types: 1
# Building blocks:
#     Node 0, Type 0, BuildingBlock: CUQRIR_clean_linker_1, # of connection points: 3
#     Node 1, Type 0, BuildingBlock: CUQRIR_clean_linker_1, # of connection points: 3
#     Node 2, Type 0, BuildingBlock: CUQRIR_clean_linker_1, # of connection points: 3
#     Node 3, Type 0, BuildingBlock: CUQRIR_clean_linker_1, # of connection points: 3
#     Node 4, Type 0, BuildingBlock: CUQRIR_clean_linker_1, # of connection points: 3
#     Node 5, Type 0, BuildingBlock: CUQRIR_clean_linker_1, # of connection points: 3
#     Node 6, Type 0, BuildingBlock: CUQRIR_clean_linker_1, # of connection points: 3
#     Node 7, Type 0, BuildingBlock: CUQRIR_clean_linker_1, # of connection points: 3
#     Node 8, Type 1, BuildingBlock: MIDCAF_clean_sbu_0, # of connection points: 6
#     Node 9, Type 1, BuildingBlock: MIDCAF_clean_sbu_0, # of connection points: 6
#     Node 10, Type 1, BuildingBlock: MIDCAF_clean_sbu_0, # of connection points: 6
#     Node 11, Type 1, BuildingBlock: MIDCAF_clean_sbu_0, # of connection points: 6
#     Edge 12, Type (0, 1), BuildingBlock: KIFKEQ_clean_linker_1, # of connection points: 2
#     Edge 13, Type (0, 1), BuildingBlock: KIFKEQ_clean_linker_1, # of connection points: 2
#     Edge 14, Type (0, 1), BuildingBlock: KIFKEQ_clean_linker_1, # of connection points: 2
#     Edge 15, Type (0, 1), BuildingBlock: KIFKEQ_clean_linker_1, # of connection points: 2
#     Edge 16, Type (0, 1), BuildingBlock: KIFKEQ_clean_linker_1, # of connection points: 2
#     Edge 17, Type (0, 1), BuildingBlock: KIFKEQ_clean_linker_1, # of connection points: 2
#     Edge 18, Type (0, 1), BuildingBlock: KIFKEQ_clean_linker_1, # of connection points: 2
#     Edge 19, Type (0, 1), BuildingBlock: KIFKEQ_clean_linker_1, # of connection points: 2
#     Edge 20, Type (0, 1), BuildingBlock: KIFKEQ_clean_linker_1, # of connection points: 2
#     Edge 21, Type (0, 1), BuildingBlock: KIFKEQ_clean_linker_1, # of connection points: 2
#     Edge 22, Type (0, 1), BuildingBlock: KIFKEQ_clean_linker_1, # of connection points: 2
#     Edge 23, Type (0, 1), BuildingBlock: KIFKEQ_clean_linker_1, # of connection points: 2
#     Edge 24, Type (0, 1), BuildingBlock: KIFKEQ_clean_linker_1, # of connection points: 2
#     Edge 25, Type (0, 1), BuildingBlock: KIFKEQ_clean_linker_1, # of connection points: 2
#     Edge 26, Type (0, 1), BuildingBlock: KIFKEQ_clean_linker_1, # of connection points: 2
#     Edge 27, Type (0, 1), BuildingBlock: KIFKEQ_clean_linker_1, # of connection points: 2
#     Edge 28, Type (0, 1), BuildingBlock: KIFKEQ_clean_linker_1, # of connection points: 2
#     Edge 29, Type (0, 1), BuildingBlock: KIFKEQ_clean_linker_1, # of connection points: 2
#     Edge 30, Type (0, 1), BuildingBlock: KIFKEQ_clean_linker_1, # of connection points: 2
#     Edge 31, Type (0, 1), BuildingBlock: KIFKEQ_clean_linker_1, # of connection points: 2
#     Edge 32, Type (0, 1), BuildingBlock: KIFKEQ_clean_linker_1, # of connection points: 2
#     Edge 33, Type (0, 1), BuildingBlock: KIFKEQ_clean_linker_1, # of connection points: 2
#     Edge 34, Type (0, 1), BuildingBlock: KIFKEQ_clean_linker_1, # of connection points: 2
#     Edge 35, Type (0, 1), BuildingBlock: KIFKEQ_clean_linker_1, # of connection points: 2
# Relax obj value: 0.109
# Max RMSD: 0.219
# Mean RMSD: 0.147
data_MOF--net-ant--node1-MIDCAF_clean_sbu_0--node2-CUQRIR_clean_linker_1--edge1-KIFKEQ_clean_linker_1
_symmetry_space_group_name_H-M    P1
_symmetry_Int_Tables_number       1
_symmetry_cell_setting            triclinic
loop_
_symmetry_equiv_pos_as_xyz
'x, y, z'
_cell_length_a     26.734444
_cell_length_b     26.567531
_cell_length_c     67.446468
_cell_angle_alpha  84.939629
_cell_angle_beta   94.88027
_cell_angle_gamma 89.583413
loop_
_atom_site_label
_atom_site_type_symbol
_atom_site_fract_x
_atom_site_fract_y
_atom_site_fract_z
_atom_type_partial_charge
C0 C 0.23389 0.29219 0.07538 0.0
N1 N 0.22905 0.24602 0.06815 0.0
N2 N 0.21214 0.32893 0.06213 0.0
C3 C 0.25984 0.30203 0.09532 0.0
C4 C 0.19435 0.30386 0.04649 0.0
N5 N 0.20477 0.25384 0.05005 0.0
C6 C 0.16494 0.32789 0.02803 0.0
H7 H 0.23122 0.30647 0.10605 0.0
H8 H 0.28106 0.33769 0.09405 0.0
H9 H 0.2862 0.27076 0.10121 0.0
H10 H 0.17734 0.31223 0.01452 0.0
H11 H 0.16914 0.36954 0.0266 0.0
H12 H 0.12466 0.3189 0.02887 0.0
C13 C 0.07584 0.80981 0.3394 0.0
N14 N 0.10969 0.8075 0.32561 0.0
N15 N 0.02852 0.81363 0.33046 0.0
C16 C 0.08859 0.8109 0.36151 0.0
C17 C 0.03457 0.81381 0.31076 0.0
N18 N 0.08384 0.81067 0.30779 0.0
C19 C 0.99212 0.81146 0.29467 0.0
H20 H 0.0897 0.77172 0.36875 0.0
H21 H 0.05952 0.83248 0.36816 0.0
H22 H 0.12576 0.82821 0.36462 0.0
H23 H 0.97839 0.85046 0.28978 0.0
H24 H 0.96039 0.7896 0.30042 0.0
H25 H 1.00426 0.79402 0.28149 0.0
C26 C 0.72264 0.78738 0.57681 0.0
N27 N 0.7227 0.74357 0.56786 0.0
N28 N 0.70708 0.82665 0.56344 0.0
C29 C 0.73667 0.79193 0.59862 0.0
C30 C 0.69762 0.8052 0.54606 0.0
N31 N 0.70753 0.75487 0.5487 0.0
C32 C 0.67632 0.83273 0.52671 0.0
H33 H 0.70246 0.78745 0.60679 0.0
H34 H 0.75236 0.82967 0.601 0.0
H35 H 0.7644 0.76216 0.60484 0.0
H36 H 0.70431 0.83186 0.51551 0.0
H37 H 0.66661 0.87266 0.52845 0.0
H38 H 0.64239 0.8131 0.52089 0.0
C39 C 0.57226 0.32142 0.83897 0.0
N40 N 0.60693 0.3205 0.82539 0.0
N41 N 0.52526 0.32416 0.82973 0.0
C42 C 0.58379 0.32222 0.86115 0.0
C43 C 0.53212 0.32469 0.81013 0.0
N44 N 0.58168 0.32326 0.8074 0.0
C45 C 0.49024 0.32027 0.79392 0.0
H46 H 0.58495 0.28288 0.86824 0.0
H47 H 0.55399 0.34322 0.86762 0.0
H48 H 0.62059 0.33991 0.86464 0.0
H49 H 0.47932 0.35864 0.787 0.0
H50 H 0.4567 0.30249 0.8 0.0
H51 H 0.50234 0.29746 0.78213 0.0
C52 C 0.99061 0.70331 0.90851 0.0
N53 N 1.00914 0.73029 0.9236 0.0
N54 N 0.98786 0.65372 0.91495 0.0
C55 C 0.97653 0.72501 0.88743 0.0
C56 C 1.0061 0.65127 0.93436 0.0
N57 N 0.01945 0.69767 0.9396 0.0
C58 C 0.01084 0.6034 0.94816 0.0
H59 H 0.93778 0.7408 0.88642 0.0
H60 H 0.97754 0.69564 0.87676 0.0
H61 H 1.00211 0.75609 0.88317 0.0
H62 H 0.0491 0.58711 0.94793 0.0
H63 H 0.98344 0.57483 0.94341 0.0
H64 H 1.0052 0.61121 0.96371 0.0
C65 C 0.67962 0.81626 0.16846 0.0
N66 N 0.71402 0.80625 0.18438 0.0
N67 N 0.63437 0.82853 0.17453 0.0
C68 C 0.69043 0.81655 0.14694 0.0
C69 C 0.64239 0.82551 0.19469 0.0
N70 N 0.69084 0.81274 0.20066 0.0
C71 C 0.60167 0.83066 0.20855 0.0
H72 H 0.66297 0.84097 0.13715 0.0
H73 H 0.68751 0.7775 0.14238 0.0
H74 H 0.72897 0.83008 0.14487 0.0
H75 H 0.56573 0.81571 0.20218 0.0
H76 H 0.59586 0.87133 0.21037 0.0
H77 H 0.61162 0.81067 0.22351 0.0
C78 C 0.49583 0.19593 0.41011 0.0
N79 N 0.51248 0.22288 0.42545 0.0
N80 N 0.49156 0.14644 0.41651 0.0
C81 C 0.48604 0.21764 0.38879 0.0
C82 C 0.50701 0.14414 0.43622 0.0
N83 N 0.5202 0.19047 0.44164 0.0
C84 C 0.50998 0.09629 0.45003 0.0
H85 H 0.45234 0.24273 0.38743 0.0
H86 H 0.47955 0.18774 0.37842 0.0
H87 H 0.51822 0.24106 0.38444 0.0
H88 H 0.54739 0.07821 0.44968 0.0
H89 H 0.48113 0.0691 0.44526 0.0
H90 H 0.50492 0.10434 0.4656 0.0
C91 C 0.19114 0.32052 0.67547 0.0
N92 N 0.22633 0.30787 0.69089 0.0
N93 N 0.14428 0.31132 0.68108 0.0
C94 C 0.20292 0.33861 0.65468 0.0
C95 C 0.15232 0.29239 0.70038 0.0
N96 N 0.202 0.28997 0.70631 0.0
C97 C 0.1113 0.27682 0.71352 0.0
H98 H 0.21773 0.37752 0.65472 0.0
H99 H 0.16922 0.33879 0.64388 0.0
H100 H 0.23267 0.31421 0.64987 0.0
H101 H 0.1058 0.23549 0.7134 0.0
H102 H 0.07534 0.29646 0.70804 0.0
H103 H 0.12171 0.28518 0.72916 0.0
Zn104 Zn 0.22073 0.71451 0.14027 0.0
Zn105 Zn 0.10204 0.83808 0.10972 0.0
Zn106 Zn 0.16389 0.77886 0.12381 0.0
C107 C 0.12029 0.78298 0.07875 0.0
C108 C 0.18128 0.89665 0.11973 0.0
O109 O 0.14065 0.76255 0.1545 0.0
O110 O 0.20974 0.7238 0.16838 0.0
C111 C 0.17315 0.66528 0.11138 0.0
O112 O 0.13944 0.75379 0.09383 0.0
O113 O 0.10514 0.82669 0.08145 0.0
O114 O 0.13403 0.89941 0.11839 0.0
O115 O 0.20301 0.85311 0.11988 0.0
O116 O 0.19293 0.65389 0.12884 0.0
O117 O 0.16358 0.7121 0.10526 0.0
O118 O 0.23934 0.81417 0.12659 0.0
O119 O 0.28339 0.74297 0.13011 0.0
C120 C 0.28185 0.79058 0.12734 0.0
O121 O 0.09785 0.78025 0.14307 0.0
O122 O 0.04009 0.82013 0.12196 0.0
C123 C 0.16808 0.74465 0.17026 0.0
C124 C 0.0519 0.79569 0.13857 0.0
Zn125 Zn 0.55176 0.64309 0.34923 0.0
Zn126 Zn 0.61176 0.75787 0.3997 0.0
Zn127 Zn 0.58047 0.70375 0.37669 0.0
C128 C 0.53864 0.8143 0.37999 0.0
C129 C 0.69176 0.74392 0.3805 0.0
O130 O 0.57787 0.62573 0.39222 0.0
O131 O 0.56005 0.57934 0.36691 0.0
C132 C 0.47263 0.71381 0.35244 0.0
O133 O 0.52607 0.76874 0.37677 0.0
O134 O 0.58208 0.82256 0.38764 0.0
O135 O 0.68526 0.749 0.39852 0.0
O136 O 0.65421 0.73247 0.36852 0.0
O137 O 0.48371 0.67625 0.34328 0.0
O138 O 0.50453 0.73038 0.36563 0.0
O139 O 0.63042 0.7124 0.35155 0.0
O140 O 0.60241 0.65879 0.32996 0.0
C141 C 0.63263 0.69273 0.33479 0.0
O142 O 0.59277 0.6606 0.40677 0.0
O143 O 0.58159 0.72661 0.42347 0.0
C144 C 0.57043 0.58233 0.38538 0.0
C145 C 0.58633 0.67942 0.42337 0.0
Zn146 Zn 0.61961 0.34825 0.60865 0.0
Zn147 Zn 0.71625 0.20744 0.64419 0.0
Zn148 Zn 0.67103 0.28009 0.62421 0.0
C149 C 0.78959 0.2764 0.63234 0.0
C150 C 0.67081 0.16365 0.61278 0.0
O151 O 0.60332 0.29382 0.64203 0.0
O152 O 0.5552 0.34306 0.62027 0.0
C153 C 0.70658 0.39444 0.61747 0.0
O154 O 0.75041 0.30508 0.62797 0.0
O155 O 0.78453 0.23015 0.63784 0.0
O156 O 0.68737 0.15071 0.63056 0.0
O157 O 0.66542 0.21105 0.60664 0.0
O158 O 0.66057 0.406 0.6156 0.0
O159 O 0.72041 0.34751 0.61913 0.0
O160 O 0.6442 0.2543 0.59476 0.0
O161 O 0.62046 0.3299 0.58101 0.0
C162 C 0.629 0.28387 0.57918 0.0
O163 O 0.64317 0.27168 0.65425 0.0
O164 O 0.69639 0.21624 0.67119 0.0
C165 C 0.56093 0.31732 0.63692 0.0
C166 C 0.6607 0.24763 0.67089 0.0
Zn167 Zn 0.04416 0.15477 0.85058 0.0
Zn168 Zn 0.11267 0.27438 0.90428 0.0
Zn169 Zn 0.07733 0.21421 0.87885 0.0
C170 C 0.10403 0.18131 0.92575 0.0
C171 C 0.02275 0.31787 0.88947 0.0
O172 O 0.13001 0.21646 0.8547 0.0
O173 O 0.09978 0.16398 0.83306 0.0
C174 C 0.05706 0.09395 0.88709 0.0
O175 O 0.0872 0.16833 0.90847 0.0
O176 O 0.11829 0.22579 0.92778 0.0
O177 O 0.058 0.32398 0.90261 0.0
O178 O 0.02329 0.27955 0.87897 0.0
O179 O 0.04453 0.09172 0.86872 0.0
O180 O 0.0698 0.13637 0.8939 0.0
O181 O 1.0025 0.24398 0.86646 0.0
O182 O 0.97983 0.19351 0.84294 0.0
C183 C 0.97045 0.23075 0.85255 0.0
O184 O 0.15172 0.24229 0.87053 0.0
O185 O 0.17516 0.29577 0.89277 0.0
C186 C 0.13277 0.1949 0.83839 0.0
C187 C 0.18383 0.27355 0.87764 0.0
H188 H 0.27852 0.40454 0.06472 0.0
H189 H 0.12211 0.36938 0.06679 0.0
H190 H 0.26115 0.49133 0.07235 0.0
H191 H 0.10393 0.45617 0.0741 0.0
H192 H 0.11849 0.58215 0.11884 0.0
H193 H 0.12334 0.50288 0.10344 0.0
H194 H 0.21797 0.57318 0.06043 0.0
H195 H 0.21286 0.65296 0.07609 0.0
C196 C 0.24038 0.41581 0.06669 0.0
C197 C 0.20169 0.38061 0.06549 0.0
C198 C 0.23022 0.46548 0.07081 0.0
C199 C 0.18109 0.48077 0.07386 0.0
C200 C 0.1422 0.44559 0.07201 0.0
C201 C 0.15244 0.39608 0.06782 0.0
C202 C 0.13874 0.58109 0.10562 0.0
C203 C 0.16467 0.6237 0.09844 0.0
C204 C 0.14168 0.53564 0.09681 0.0
C205 C 0.1714 0.53147 0.08079 0.0
C206 C 0.19516 0.57503 0.07288 0.0
C207 C 0.19172 0.62084 0.08162 0.0
H208 H 0.94749 0.87543 0.32488 0.0
H209 H 1.00534 0.73589 0.35603 0.0
H210 H 0.86536 0.85926 0.33762 0.0
H211 H 0.92359 0.71891 0.36868 0.0
H212 H 0.78218 0.72798 0.40186 0.0
H213 H 0.86506 0.74781 0.39094 0.0
H214 H 0.79674 0.80116 0.33237 0.0
H215 H 0.71396 0.7839 0.34387 0.0
C216 C 0.94247 0.84162 0.33466 0.0
C217 C 0.98232 0.80707 0.3397 0.0
C218 C 0.89561 0.83205 0.3418 0.0
C219 C 0.88791 0.78762 0.35406 0.0
C220 C 0.92844 0.75377 0.35949 0.0
C221 C 0.97521 0.76344 0.35235 0.0
C222 C 0.78504 0.74376 0.38664 0.0
C223 C 0.74181 0.75312 0.37344 0.0
C224 C 0.83245 0.7549 0.38035 0.0
C225 C 0.83754 0.77588 0.36077 0.0
C226 C 0.79415 0.7853 0.3476 0.0
C227 C 0.74677 0.77426 0.35395 0.0
H228 H 0.68015 0.69658 0.59904 0.0
H229 H 0.79024 0.67722 0.55725 0.0
H230 H 0.69578 0.61023 0.61374 0.0
H231 H 0.80728 0.59045 0.5721 0.0
H232 H 0.75166 0.42285 0.58411 0.0
H233 H 0.76735 0.51074 0.57326 0.0
H234 H 0.75082 0.5514 0.63304 0.0
H235 H 0.73275 0.46359 0.64342 0.0
C236 C 0.70859 0.67392 0.59334 0.0
C237 C 0.73423 0.69336 0.57716 0.0
C238 C 0.71793 0.62446 0.60181 0.0
C239 C 0.75336 0.59313 0.59431 0.0
C240 C 0.77961 0.61317 0.57823 0.0
C241 C 0.76997 0.66273 0.56972 0.0
C242 C 0.75431 0.45016 0.59516 0.0
C243 C 0.74135 0.43649 0.61462 0.0
C244 C 0.76274 0.50087 0.58891 0.0
C245 C 0.75875 0.53869 0.60211 0.0
C246 C 0.75259 0.52362 0.62229 0.0
C247 C 0.74345 0.47308 0.62842 0.0
H248 H 0.65616 0.2519 0.85212 0.0
H249 H 0.67927 0.3743 0.80761 0.0
H250 H 0.74692 0.24123 0.8594 0.0
H251 H 0.77068 0.36138 0.81401 0.0
H252 H 0.91592 0.24658 0.81661 0.0
H253 H 0.82887 0.27682 0.81016 0.0
H254 H 0.82514 0.3006 0.87247 0.0
H255 H 0.91285 0.2715 0.87889 0.0
C256 C 0.6807 0.27701 0.84411 0.0
C257 C 0.66069 0.31443 0.82952 0.0
C258 C 0.73258 0.27077 0.84822 0.0
C259 C 0.76564 0.30089 0.83743 0.0
C260 C 0.74585 0.33792 0.82261 0.0
C261 C 0.69376 0.34504 0.81886 0.0
C262 C 0.89687 0.25939 0.82884 0.0
C263 C 0.92107 0.25667 0.84825 0.0
C264 C 0.8472 0.27684 0.82512 0.0
C265 C 0.82042 0.29078 0.84083 0.0
C266 C 0.84513 0.28999 0.86012 0.0
C267 C 0.89529 0.27366 0.86376 0.0
H268 H 0.0433 0.61197 0.88927 0.0
H269 H 0.90314 0.6 0.91611 0.0
H270 H 0.03002 0.52961 0.87626 0.0
H271 H 0.88885 0.51743 0.90303 0.0
H272 H 0.95894 0.35057 0.91455 0.0
H273 H 0.93317 0.43839 0.91469 0.0
H274 H 0.9833 0.4704 0.85571 0.0
H275 H 1.00902 0.38172 0.85575 0.0
C276 C 1.00873 0.59224 0.89168 0.0
C277 C 0.97427 0.61172 0.90364 0.0
C278 C 1.00084 0.54522 0.88419 0.0
C279 C 0.95839 0.51662 0.88868 0.0
C280 C 0.92205 0.53822 0.89942 0.0
C281 C 0.92998 0.5854 0.90682 0.0
C282 C 0.96154 0.37573 0.90113 0.0
C283 C 0.98588 0.35954 0.88516 0.0
C284 C 0.94707 0.42632 0.90122 0.0
C285 C 0.9573 0.46183 0.88539 0.0
C286 C 0.97569 0.44414 0.86828 0.0
C287 C 0.98966 0.3932 0.86813 0.0
H288 H 0.79135 0.85385 0.20251 0.0
H289 H 0.75596 0.73339 0.16519 0.0
H290 H 0.88052 0.84401 0.19773 0.0
H291 H 0.84474 0.72448 0.15963 0.0
H292 H 0.01128 0.70903 0.1555 0.0
H293 H 0.93251 0.70405 0.17199 0.0
H294 H 0.92507 0.86716 0.16876 0.0
H295 H 1.00281 0.87156 0.15252 0.0
C296 C 0.80292 0.82461 0.19359 0.0
C297 C 0.76686 0.79499 0.18393 0.0
C298 C 0.85388 0.81918 0.19069 0.0
C299 C 0.86992 0.78393 0.17804 0.0
C300 C 0.83399 0.75185 0.16953 0.0
C301 C 0.78304 0.75732 0.17248 0.0
C302 C 0.99344 0.74351 0.159 0.0
C303 C 0.01299 0.79067 0.15287 0.0
C304 C 0.94814 0.7408 0.16822 0.0
C305 C 0.92212 0.78524 0.17162 0.0
C306 C 0.94406 0.83212 0.16667 0.0
C307 C 0.98865 0.83474 0.1573 0.0
H308 H 0.44731 0.30056 0.41574 0.0
H309 H 0.60322 0.26456 0.43249 0.0
H310 H 0.46697 0.39073 0.41144 0.0
H311 H 0.62353 0.35481 0.42817 0.0
H312 H 0.63176 0.50261 0.38302 0.0
H313 H 0.621 0.41598 0.39712 0.0
H314 H 0.50014 0.46591 0.42956 0.0
H315 H 0.51188 0.55333 0.41559 0.0
C316 C 0.48575 0.31229 0.41862 0.0
C317 C 0.52388 0.27603 0.42423 0.0
C318 C 0.49701 0.36378 0.4164 0.0
C319 C 0.54683 0.38001 0.41951 0.0
C320 C 0.58482 0.34355 0.42562 0.0
C321 C 0.57335 0.29207 0.42811 0.0
C322 C 0.60428 0.49531 0.39381 0.0
C323 C 0.57303 0.53458 0.39842 0.0
C324 C 0.59797 0.44567 0.40185 0.0
C325 C 0.55942 0.43393 0.41433 0.0
C326 C 0.52997 0.47376 0.41988 0.0
C327 C 0.53702 0.52381 0.41211 0.0
H328 H 0.09074 0.23137 0.67128 0.0
H329 H 0.09092 0.39386 0.66462 0.0
H330 H 1.00574 0.23152 0.65505 0.0
H331 H 1.00513 0.39485 0.64789 0.0
H332 H 0.82924 0.36042 0.64849 0.0
H333 H 0.91898 0.37503 0.65671 0.0
H334 H 0.95603 0.24899 0.62406 0.0
H335 H 0.86709 0.23352 0.6167 0.0
C336 C 0.07261 0.26712 0.66585 0.0
C337 C 0.09713 0.31249 0.66897 0.0
C338 C 0.024 0.26743 0.65647 0.0
C339 C 0.9984 0.31328 0.64997 0.0
C340 C 0.02356 0.35891 0.65274 0.0
C341 C 0.07266 0.35846 0.6621 0.0
C342 C 0.85677 0.33703 0.64258 0.0
C343 C 0.84137 0.29558 0.63213 0.0
C344 C 0.9082 0.34524 0.64731 0.0
C345 C 0.94486 0.31232 0.6415 0.0
C346 C 0.92899 0.27416 0.62931 0.0
C347 C 0.87798 0.26559 0.62488 0.0
H348 H 0.28545 0.38893 0.68937 0.0
H349 H 0.28699 0.22716 0.68931 0.0
H350 H 0.37309 0.39143 0.68149 0.0
H351 H 0.37432 0.22895 0.68047 0.0
H352 H 0.54042 0.2482 0.66866 0.0
H353 H 0.46414 0.24551 0.68679 0.0
H354 H 0.40875 0.38121 0.65147 0.0
H355 H 0.48397 0.38461 0.63421 0.0
C356 C 0.3052 0.35385 0.688 0.0
C357 C 0.27996 0.30795 0.68991 0.0
C358 C 0.35519 0.35508 0.68329 0.0
C359 C 0.38082 0.31043 0.6799 0.0
C360 C 0.35618 0.26406 0.68306 0.0
C361 C 0.3062 0.26289 0.68806 0.0
C362 C 0.51229 0.27788 0.66515 0.0
C363 C 0.51841 0.31646 0.6499 0.0
C364 C 0.46835 0.27616 0.6754 0.0
C365 C 0.43002 0.31328 0.67071 0.0
C366 C 0.43742 0.35247 0.65591 0.0
C367 C 0.48072 0.35408 0.64577 0.0
H368 H 0.56977 0.90787 0.17224 0.0
H369 H 0.59067 0.76145 0.15133 0.0
H370 H 0.48407 0.91291 0.15596 0.0
H371 H 0.50508 0.7647 0.13572 0.0
H372 H 0.3571 0.77643 0.10399 0.0
H373 H 0.445 0.79719 0.11116 0.0
H374 H 0.40489 0.87863 0.16043 0.0
H375 H 0.31657 0.86036 0.15218 0.0
C376 C 0.55594 0.87709 0.1639 0.0
C377 C 0.58657 0.83441 0.16287 0.0
C378 C 0.5068 0.87965 0.1547 0.0
C379 C 0.48705 0.83922 0.14446 0.0
C380 C 0.51878 0.79725 0.14299 0.0
C381 C 0.56793 0.79506 0.15199 0.0
C382 C 0.36705 0.80065 0.11579 0.0
C383 C 0.33022 0.81694 0.1275 0.0
C384 C 0.41757 0.81182 0.12018 0.0
C385 C 0.43273 0.8382 0.13684 0.0
C386 C 0.39508 0.85831 0.14747 0.0
C387 C 0.34424 0.84806 0.14272 0.0
H388 H 0.44934 0.39167 0.82389 0.0
H389 H 0.49492 0.24706 0.85412 0.0
H390 H 0.36439 0.38008 0.83449 0.0
H391 H 0.41013 0.23507 0.86499 0.0
H392 H 0.24029 0.20731 0.85975 0.0
H393 H 0.32397 0.22131 0.84828 0.0
H394 H 0.32048 0.37386 0.86567 0.0
H395 H 0.2367 0.36021 0.87665 0.0
C396 C 0.44107 0.35789 0.83317 0.0
C397 C 0.47817 0.32044 0.83844 0.0
C398 C 0.3927 0.3511 0.83916 0.0
C399 C 0.38059 0.30646 0.85042 0.0
C400 C 0.41827 0.26952 0.8561 0.0
C401 C 0.46677 0.27658 0.8502 0.0
C402 C 0.25699 0.24414 0.86063 0.0
C403 C 0.23187 0.28287 0.86883 0.0
C404 C 0.30512 0.25191 0.85439 0.0
C405 C 0.32882 0.29858 0.85622 0.0
C406 C 0.30305 0.33764 0.86396 0.0
C407 C 0.25519 0.32976 0.8703 0.0
H408 H 0.15745 0.73768 0.35228 0.0
H409 H 0.18278 0.85756 0.30699 0.0
H410 H 0.24808 0.72467 0.35931 0.0
H411 H 0.27388 0.84204 0.3131 0.0
H412 H 0.41489 0.71902 0.31717 0.0
H413 H 0.32791 0.74917 0.3105 0.0
H414 H 0.32882 0.79003 0.37101 0.0
H415 H 0.4167 0.7613 0.37762 0.0
C416 C 0.18246 0.76168 0.34403 0.0
C417 C 0.1632 0.79923 0.32934 0.0
C418 C 0.23418 0.75407 0.34798 0.0
C419 C 0.26762 0.78287 0.33691 0.0
C420 C 0.2486 0.81973 0.32191 0.0
C421 C 0.19674 0.82823 0.31831 0.0
C422 C 0.39682 0.73525 0.32895 0.0
C423 C 0.42234 0.73754 0.34795 0.0
C424 C 0.34726 0.75267 0.32508 0.0
C425 C 0.322 0.77167 0.34027 0.0
C426 C 0.34781 0.77548 0.3591 0.0
C427 C 0.39793 0.7592 0.36284 0.0
H428 H 0.61704 0.86857 0.56722 0.0
H429 H 0.77474 0.90001 0.5681 0.0
H430 H 0.59972 0.95565 0.57455 0.0
H431 H 0.75825 0.98712 0.5756 0.0
H432 H 0.71353 0.14989 0.5782 0.0
H433 H 0.71823 0.06971 0.56281 0.0
H434 H 0.61638 1.00324 0.60378 0.0
H435 H 0.61191 0.08289 0.61892 0.0
C436 C 0.64784 0.89451 0.56894 0.0
C437 C 0.69713 0.87806 0.5673 0.0
C438 C 0.63811 0.94421 0.57312 0.0
C439 C 0.67757 0.97855 0.57563 0.0
C440 C 0.72687 0.96204 0.57347 0.0
C441 C 0.73651 0.91222 0.5694 0.0
C442 C 0.6907 0.11861 0.5833 0.0
C443 C 0.66182 0.12265 0.59954 0.0
C444 C 0.69393 0.07251 0.57473 0.0
C445 C 0.66811 0.02978 0.5822 0.0
C446 C 0.63643 0.03528 0.5975 0.0
C447 C 0.63368 0.081 0.60615 0.0
H448 H 0.27164 0.16237 0.05536 0.0
H449 H 0.20802 0.21787 0.10602 0.0
H450 H 0.27329 0.07705 0.07178 0.0
H451 H 0.21844 0.13549 0.12395 0.0
H452 H 0.15249 0.98084 0.13499 0.0
H453 H 0.17552 0.06548 0.12514 0.0
H454 H 0.29625 1.0089 0.09382 0.0
H455 H 0.26934 0.92234 0.10272 0.0
C456 C 0.25885 0.15656 0.07015 0.0
C457 C 0.23862 0.197 0.07913 0.0
C458 C 0.26103 0.10759 0.07989 0.0
C459 C 0.24478 0.09817 0.09921 0.0
C460 C 0.22922 0.13993 0.10881 0.0
C461 C 0.22453 0.18804 0.09868 0.0
C462 C 0.18477 0.98631 0.12637 0.0
C463 C 0.2084 0.94498 0.1193 0.0
C464 C 0.19859 0.03547 0.12077 0.0
C465 C 0.23759 0.04522 0.10824 0.0
C466 C 0.265 1.0034 0.10293 0.0
C467 C 0.25035 0.9536 0.10835 0.0
H468 H 0.41034 0.0869 0.41515 0.0
H469 H 0.55459 0.10993 0.39236 0.0
H470 H 0.40256 1.00633 0.39992 0.0
H471 H 0.54819 0.02957 0.37745 0.0
H472 H 0.46709 0.83844 0.40362 0.0
H473 H 0.44223 0.92501 0.40782 0.0
H474 H 0.51047 0.97654 0.35397 0.0
H475 H 0.5369 0.88989 0.35043 0.0
C476 C 0.43978 0.07495 0.40645 0.0
C477 C 0.483 0.10411 0.40481 0.0
C478 C 0.43561 0.02885 0.39784 0.0
C479 C 0.47476 0.01108 0.38746 0.0
C480 C 0.51677 0.04211 0.38497 0.0
C481 C 0.52077 0.08807 0.39356 0.0
C482 C 0.47421 0.86798 0.39211 0.0
C483 C 0.50357 0.85762 0.37666 0.0
C484 C 0.46033 0.91786 0.39457 0.0
C485 C 0.47557 0.95818 0.38154 0.0
C486 C 0.49927 0.94667 0.3646 0.0
C487 C 0.51357 0.8969 0.3623 0.0
H488 H 0.097 0.77609 0.93253 0.0
H489 H 0.94151 0.80528 0.91242 0.0
H490 H 0.11317 0.86717 0.92928 0.0
H491 H 0.95727 0.89612 0.90869 0.0
H492 H 0.98953 0.05974 0.91305 0.0
H493 H 0.9797 0.97141 0.92606 0.0
H494 H 0.11645 0.93118 0.90104 0.0
H495 H 0.1259 0.0191 0.88826 0.0
C496 C 0.0663 0.80223 0.92755 0.0
C497 C 0.01818 0.78397 0.92251 0.0
C498 C 0.07546 0.85426 0.92561 0.0
C499 C 0.03654 0.88912 0.91871 0.0
C500 C 0.98802 0.87058 0.91429 0.0
C501 C 0.97902 0.8186 0.91614 0.0
C502 C 0.01836 0.03219 0.91109 0.0
C503 C 0.05885 0.04609 0.89996 0.0
C504 C 0.01245 0.98153 0.91826 0.0
C505 C 0.04701 0.94399 0.91441 0.0
C506 C 0.08937 0.95895 0.90447 0.0
C507 C 0.09495 1.00936 0.89719 0.0
H508 H 0.25664 0.23381 0.01964 0.0
H509 H 0.12453 0.19262 0.04904 0.0
H510 H 0.22873 0.18519 0.99195 0.0
H511 H 0.09583 0.14232 0.02141 0.0
H512 H 0.18063 0.11813 0.94079 0.0
H513 H 0.20701 0.11063 0.97646 0.0
H514 H 0.06209 0.1687 0.98823 0.0
H515 H 0.03572 0.17382 0.95283 0.0
C516 C 0.22231 0.21258 0.02035 0.0
C517 C 0.19262 0.21663 0.03624 0.0
C518 C 0.20629 0.18426 0.0046 0.0
C519 C 0.15977 0.15956 0.00431 0.0
C520 C 0.13163 0.16104 0.02103 0.0
C521 C 0.14794 0.18951 0.03686 0.0
C522 C 0.15328 0.12557 0.95118 0.0
C523 C 0.10638 0.14706 0.9441 0.0
C524 C 0.16871 0.12241 0.97163 0.0
C525 C 0.13757 0.14138 0.98518 0.0
C526 C 0.08748 0.15418 0.97836 0.0
C527 C 0.07198 0.15668 0.95795 0.0
H528 H 0.08457 0.87784 0.27582 0.0
H529 H 0.12354 0.72447 0.29778 0.0
H530 H 0.1054 0.86091 0.24237 0.0
H531 H 0.14247 0.70595 0.26427 0.0
H532 H 0.21391 0.70261 0.2055 0.0
H533 H 0.19764 0.7199 0.23907 0.0
H534 H 0.07287 0.81758 0.21507 0.0
H535 H 0.09149 0.80287 0.18138 0.0
C536 C 0.09835 0.84067 0.27336 0.0
C537 C 0.10322 0.80252 0.28913 0.0
C538 C 0.10949 0.83059 0.25424 0.0
C539 C 0.125 0.78182 0.25049 0.0
C540 C 0.13119 0.74406 0.26658 0.0
C541 C 0.12055 0.75445 0.28575 0.0
C542 C 0.18276 0.7276 0.20734 0.0
C543 C 0.15365 0.75099 0.19064 0.0
C544 C 0.17326 0.7373 0.22667 0.0
C545 C 0.13405 0.77031 0.22988 0.0
C546 C 0.10399 0.79262 0.2132 0.0
C547 C 0.11395 0.78338 0.19381 0.0
H548 H 0.63521 0.6849 0.54911 0.0
H549 H 0.75341 0.74642 0.51531 0.0
H550 H 0.60485 0.63697 0.52102 0.0
H551 H 0.72369 0.69933 0.48721 0.0
H552 H 0.66948 0.62363 0.43702 0.0
H553 H 0.70443 0.61965 0.47184 0.0
H554 H 0.56239 0.67237 0.48889 0.0
H555 H 0.52809 0.67635 0.45425 0.0
C556 C 0.65546 0.68676 0.53583 0.0
C557 C 0.69622 0.71931 0.5341 0.0
C558 C 0.63817 0.65957 0.51978 0.0
C559 C 0.66171 0.66434 0.50182 0.0
C560 C 0.70502 0.69404 0.50086 0.0
C561 C 0.72188 0.72143 0.51682 0.0
C562 C 0.64489 0.63112 0.44842 0.0
C563 C 0.59627 0.6507 0.443 0.0
C564 C 0.66512 0.62967 0.46833 0.0
C565 C 0.63666 0.64714 0.48305 0.0
C566 C 0.58551 0.65876 0.478 0.0
C567 C 0.56558 0.66073 0.45811 0.0
H568 H 0.56317 0.38569 0.77414 0.0
H569 H 0.64402 0.25006 0.79806 0.0
H570 H 0.57866 0.36806 0.74048 0.0
H571 H 0.66503 0.23462 0.76463 0.0
H572 H 0.63947 0.34073 0.68171 0.0
H573 H 0.62787 0.36329 0.71519 0.0
H574 H 0.62944 0.20442 0.73634 0.0
H575 H 0.64564 0.1829 0.70316 0.0
C576 C 0.58579 0.35287 0.7721 0.0
C577 C 0.60193 0.31892 0.78853 0.0
C578 C 0.59508 0.34277 0.7528 0.0
C579 C 0.62238 0.29919 0.74954 0.0
C580 C 0.64224 0.26753 0.76633 0.0
C581 C 0.63142 0.2769 0.78559 0.0
C582 C 0.63663 0.31083 0.69355 0.0
C583 C 0.64341 0.26018 0.68998 0.0
C584 C 0.62998 0.32362 0.71282 0.0
C585 C 0.62842 0.28583 0.72881 0.0
C586 C 0.63231 0.23488 0.72476 0.0
C587 C 0.64062 0.22229 0.70564 0.0
H588 H 0.98154 0.76692 0.96121 0.0
H589 H 0.10025 0.65596 0.96206 0.0
H590 H 0.01166 0.78577 0.99502 0.0
H591 H 0.1295 0.67325 0.99628 0.0
H592 H 0.11155 0.68694 0.0663 0.0
H593 H 0.09202 0.66487 0.03187 0.0
H594 H 0.09307 0.82294 0.0107 0.0
H595 H 0.11389 0.84468 0.0446 0.0
C596 C 0.0143 0.74692 0.96864 0.0
C597 C 0.03862 0.71009 0.95915 0.0
C598 C 0.03138 0.75739 0.98796 0.0
C599 C 0.07277 0.73072 0.99825 0.0
C600 C 0.09719 0.69386 0.98875 0.0
C601 C 0.08054 0.68402 0.96926 0.0
C602 C 0.1092 0.7166 0.05421 0.0
C603 C 0.11442 0.76739 0.05817 0.0
C604 C 0.09762 0.70412 0.03456 0.0
C605 C 0.09045 0.74239 0.01872 0.0
C606 C 0.09761 0.79283 0.02266 0.0
C607 C 0.1096 0.80515 0.04211 0.0
H608 H 0.70236 0.71741 0.21667 0.0
H609 H 0.7166 0.87209 0.23004 0.0
H610 H 0.70569 0.68999 0.25218 0.0
H611 H 0.72323 0.84537 0.26586 0.0
H612 H 0.62963 0.78877 0.31816 0.0
H613 H 0.66264 0.81968 0.28698 0.0
H614 H 0.73868 0.676 0.28512 0.0
H615 H 0.70277 0.64465 0.31595 0.0
C616 C 0.70886 0.74516 0.22741 0.0
C617 C 0.70933 0.79659 0.22086 0.0
C618 C 0.7108 0.72967 0.24782 0.0
C619 C 0.71379 0.76549 0.26211 0.0
C620 C 0.71952 0.81674 0.25539 0.0
C621 C 0.7166 0.83216 0.23493 0.0
C622 C 0.65476 0.76451 0.31137 0.0
C623 C 0.66414 0.71462 0.31946 0.0
C624 C 0.67399 0.78219 0.29346 0.0
C625 C 0.70315 0.75029 0.28322 0.0
C626 C 0.71557 0.70142 0.29227 0.0
C627 C 0.69558 0.68353 0.31005 0.0
H628 H 0.5986 0.14627 0.46488 0.0
H629 H 0.48447 0.26258 0.4625 0.0
H630 H 0.62814 0.16477 0.49892 0.0
H631 H 0.51524 0.28276 0.4961 0.0
H632 H 0.62538 0.34157 0.54401 0.0
H633 H 0.60117 0.3171 0.51075 0.0
H634 H 0.58818 0.1622 0.53474 0.0
H635 H 0.61074 0.18718 0.56856 0.0
C636 C 0.57983 0.17564 0.47172 0.0
C637 C 0.53911 0.20288 0.46123 0.0
C638 C 0.59669 0.18619 0.4911 0.0
C639 C 0.57381 0.22499 0.50008 0.0
C640 C 0.53362 0.25275 0.48944 0.0
C641 C 0.51623 0.24155 0.47024 0.0
C642 C 0.61763 0.30214 0.5423 0.0
C643 C 0.62013 0.26616 0.55899 0.0
C644 C 0.60372 0.28827 0.52322 0.0
C645 C 0.59245 0.23797 0.52025 0.0
C646 C 0.59698 0.20129 0.5367 0.0
C647 C 0.61032 0.2154 0.556 0.0
H648 H 0.20021 0.19546 0.72323 0.0
H649 H 0.24764 0.3456 0.73389 0.0
H650 H 0.20468 0.17174 0.75884 0.0
H651 H 0.25505 0.32198 0.77002 0.0
H652 H 0.1554 0.28975 0.82367 0.0
H653 H 0.19533 0.31153 0.793 0.0
H654 H 0.2371 0.15442 0.79115 0.0
H655 H 0.19336 0.13282 0.82094 0.0
C656 C 0.21428 0.22252 0.73338 0.0
C657 C 0.22332 0.27221 0.72599 0.0
C658 C 0.21695 0.20914 0.75392 0.0
C659 C 0.22927 0.24519 0.76763 0.0
C660 C 0.24409 0.29349 0.76003 0.0
C661 C 0.24084 0.30692 0.73936 0.0
C662 C 0.17446 0.26026 0.81696 0.0
C663 C 0.17064 0.20959 0.82437 0.0
C664 C 0.19768 0.27265 0.79934 0.0
C665 C 0.21832 0.23455 0.78903 0.0
C666 C 0.21994 0.18463 0.7981 0.0
C667 C 0.19544 0.17217 0.81533 0.0
loop_
_geom_bond_atom_site_label_1
_geom_bond_atom_site_label_2
_geom_bond_distance
_geom_bond_site_symmetry_2
_ccdc_geom_bond_type
C0 N1 1.317 . S
C0 N2 1.348 . S
C0 C3 1.485 . S
N1 C0 1.317 . S
N1 N5 1.370 . S
N2 C0 1.348 . S
N2 C4 1.346 . S
C3 C0 1.485 . S
C3 H7 0.960 . S
C3 H8 0.961 . S
C3 H9 0.960 . S
C4 N2 1.346 . S
C4 N5 1.307 . S
C4 C6 1.486 . S
N5 N1 1.370 . S
N5 C4 1.307 . S
C6 C4 1.486 . S
C6 H10 0.960 . S
C6 H11 0.960 . S
C6 H12 0.959 . S
H7 C3 0.960 . S
H8 C3 0.961 . S
H9 C3 0.960 . S
H10 C6 0.960 . S
H11 C6 0.960 . S
H12 C6 0.959 . S
C13 N14 1.317 . S
C13 N15 1.348 . S
C13 C16 1.485 . S
N14 C13 1.317 . S
N14 N18 1.370 . S
N15 C13 1.348 . S
N15 C17 1.346 . S
C16 C13 1.485 . S
C16 H20 0.960 . S
C16 H21 0.961 . S
C16 H22 0.960 . S
C17 N15 1.346 . S
C17 N18 1.307 . S
C17 C19 1.486 . S
N18 N14 1.370 . S
N18 C17 1.307 . S
C19 C17 1.486 . S
C19 H23 0.960 1_455 S
C19 H24 0.960 1_455 S
C19 H25 0.959 . S
H20 C16 0.960 . S
H21 C16 0.961 . S
H22 C16 0.960 . S
H23 C19 0.960 1_655 S
H24 C19 0.960 1_655 S
H25 C19 0.959 . S
C26 N27 1.317 . S
C26 N28 1.348 . S
C26 C29 1.485 . S
N27 C26 1.317 . S
N27 N31 1.370 . S
N28 C26 1.348 . S
N28 C30 1.346 . S
C29 C26 1.485 . S
C29 H33 0.960 . S
C29 H34 0.961 . S
C29 H35 0.960 . S
C30 N28 1.346 . S
C30 N31 1.307 . S
C30 C32 1.486 . S
N31 N27 1.370 . S
N31 C30 1.307 . S
C32 C30 1.486 . S
C32 H36 0.960 . S
C32 H37 0.960 . S
C32 H38 0.959 . S
H33 C29 0.960 . S
H34 C29 0.961 . S
H35 C29 0.960 . S
H36 C32 0.960 . S
H37 C32 0.960 . S
H38 C32 0.959 . S
C39 N40 1.317 . S
C39 N41 1.348 . S
C39 C42 1.485 . S
N40 C39 1.317 . S
N40 N44 1.370 . S
N41 C39 1.348 . S
N41 C43 1.346 . S
C42 C39 1.485 . S
C42 H46 0.960 . S
C42 H47 0.961 . S
C42 H48 0.960 . S
C43 N41 1.346 . S
C43 N44 1.307 . S
C43 C45 1.486 . S
N44 N40 1.370 . S
N44 C43 1.307 . S
C45 C43 1.486 . S
C45 H49 0.960 . S
C45 H50 0.960 . S
C45 H51 0.959 . S
H46 C42 0.960 . S
H47 C42 0.961 . S
H48 C42 0.960 . S
H49 C45 0.960 . S
H50 C45 0.960 . S
H51 C45 0.959 . S
C52 N53 1.317 . S
C52 N54 1.348 . S
C52 C55 1.485 . S
N53 C52 1.317 . S
N53 N57 1.370 . S
N54 C52 1.348 . S
N54 C56 1.346 . S
C55 C52 1.485 . S
C55 H59 0.960 . S
C55 H60 0.961 . S
C55 H61 0.960 . S
C56 N54 1.346 . S
C56 N57 1.307 . S
C56 C58 1.486 . S
N57 N53 1.370 . S
N57 C56 1.307 . S
C58 C56 1.486 . S
C58 H62 0.960 . S
C58 H63 0.960 . S
C58 H64 0.959 . S
H59 C55 0.960 . S
H60 C55 0.961 . S
H61 C55 0.960 . S
H62 C58 0.960 . S
H63 C58 0.960 . S
H64 C58 0.959 . S
C65 N66 1.317 . S
C65 N67 1.348 . S
C65 C68 1.485 . S
N66 C65 1.317 . S
N66 N70 1.370 . S
N67 C65 1.348 . S
N67 C69 1.346 . S
C68 C65 1.485 . S
C68 H72 0.960 . S
C68 H73 0.961 . S
C68 H74 0.960 . S
C69 N67 1.346 . S
C69 N70 1.307 . S
C69 C71 1.486 . S
N70 N66 1.370 . S
N70 C69 1.307 . S
C71 C69 1.486 . S
C71 H75 0.960 . S
C71 H76 0.960 . S
C71 H77 0.959 . S
H72 C68 0.960 . S
H73 C68 0.961 . S
H74 C68 0.960 . S
H75 C71 0.960 . S
H76 C71 0.960 . S
H77 C71 0.959 . S
C78 N79 1.317 . S
C78 N80 1.348 . S
C78 C81 1.485 . S
N79 C78 1.317 . S
N79 N83 1.370 . S
N80 C78 1.348 . S
N80 C82 1.346 . S
C81 C78 1.485 . S
C81 H85 0.960 . S
C81 H86 0.961 . S
C81 H87 0.960 . S
C82 N80 1.346 . S
C82 N83 1.307 . S
C82 C84 1.486 . S
N83 N79 1.370 . S
N83 C82 1.307 . S
C84 C82 1.486 . S
C84 H88 0.960 . S
C84 H89 0.960 . S
C84 H90 0.959 . S
H85 C81 0.960 . S
H86 C81 0.961 . S
H87 C81 0.960 . S
H88 C84 0.960 . S
H89 C84 0.960 . S
H90 C84 0.959 . S
C91 N92 1.317 . S
C91 N93 1.348 . S
C91 C94 1.485 . S
N92 C91 1.317 . S
N92 N96 1.370 . S
N93 C91 1.348 . S
N93 C95 1.346 . S
C94 C91 1.485 . S
C94 H98 0.960 . S
C94 H99 0.961 . S
C94 H100 0.960 . S
C95 N93 1.346 . S
C95 N96 1.307 . S
C95 C97 1.486 . S
N96 N92 1.370 . S
N96 C95 1.307 . S
C97 C95 1.486 . S
C97 H101 0.960 . S
C97 H102 0.960 . S
C97 H103 0.959 . S
H98 C94 0.960 . S
H99 C94 0.961 . S
H100 C94 0.960 . S
H101 C97 0.960 . S
H102 C97 0.960 . S
H103 C97 0.959 . S
Zn104 O110 1.920 . S
Zn104 O116 1.898 . S
Zn104 O119 1.905 . S
Zn105 O113 1.905 . S
Zn105 O114 1.898 . S
Zn105 O122 1.920 1_455 S
Zn106 O109 2.080 . S
Zn106 O112 2.114 . S
Zn106 O115 2.120 . S
Zn106 O117 2.120 . S
Zn106 O118 2.114 . S
Zn106 O121 2.080 . S
C107 O112 1.166 . S
C107 O113 1.182 . S
C108 O114 1.167 . S
C108 O115 1.299 . S
O109 Zn106 2.080 . S
O109 C123 1.305 . S
O110 Zn104 1.920 . S
O110 C123 1.234 . S
C111 O116 1.167 . S
C111 O117 1.299 . S
O112 Zn106 2.114 . S
O112 C107 1.166 . S
O113 Zn105 1.905 . S
O113 C107 1.182 . S
O114 Zn105 1.898 . S
O114 C108 1.167 . S
O115 Zn106 2.120 . S
O115 C108 1.299 . S
O116 Zn104 1.898 . S
O116 C111 1.167 . S
O117 Zn106 2.120 . S
O117 C111 1.299 . S
O118 Zn106 2.114 . S
O118 C120 1.166 . S
O119 Zn104 1.905 . S
O119 C120 1.182 . S
C120 O118 1.166 . S
C120 O119 1.182 . S
O121 Zn106 2.080 . S
O121 C124 1.305 . S
O122 Zn105 1.920 1_655 S
O122 C124 1.234 1_655 S
C123 O109 1.305 . S
C123 O110 1.234 . S
C124 O121 1.305 . S
C124 O122 1.234 1_455 S
Zn125 O131 1.920 . S
Zn125 O137 1.898 . S
Zn125 O140 1.905 . S
Zn126 O134 1.905 . S
Zn126 O135 1.898 . S
Zn126 O143 1.920 . S
Zn127 O130 2.080 . S
Zn127 O133 2.114 . S
Zn127 O136 2.120 . S
Zn127 O138 2.120 . S
Zn127 O139 2.114 . S
Zn127 O142 2.080 . S
C128 O133 1.166 . S
C128 O134 1.182 . S
C129 O135 1.167 . S
C129 O136 1.299 . S
O130 Zn127 2.080 . S
O130 C144 1.305 . S
O131 Zn125 1.920 . S
O131 C144 1.234 . S
C132 O137 1.167 . S
C132 O138 1.299 . S
O133 Zn127 2.114 . S
O133 C128 1.166 . S
O134 Zn126 1.905 . S
O134 C128 1.182 . S
O135 Zn126 1.898 . S
O135 C129 1.167 . S
O136 Zn127 2.120 . S
O136 C129 1.299 . S
O137 Zn125 1.898 . S
O137 C132 1.167 . S
O138 Zn127 2.120 . S
O138 C132 1.299 . S
O139 Zn127 2.114 . S
O139 C141 1.166 . S
O140 Zn125 1.905 . S
O140 C141 1.182 . S
C141 O139 1.166 . S
C141 O140 1.182 . S
O142 Zn127 2.080 . S
O142 C145 1.305 . S
O143 Zn126 1.920 . S
O143 C145 1.234 . S
C144 O130 1.305 . S
C144 O131 1.234 . S
C145 O142 1.305 . S
C145 O143 1.234 . S
Zn146 O152 1.920 . S
Zn146 O158 1.898 . S
Zn146 O161 1.905 . S
Zn147 O155 1.905 . S
Zn147 O156 1.898 . S
Zn147 O164 1.920 . S
Zn148 O151 2.080 . S
Zn148 O154 2.114 . S
Zn148 O157 2.120 . S
Zn148 O159 2.120 . S
Zn148 O160 2.114 . S
Zn148 O163 2.080 . S
C149 O154 1.166 . S
C149 O155 1.182 . S
C150 O156 1.167 . S
C150 O157 1.299 . S
O151 Zn148 2.080 . S
O151 C165 1.305 . S
O152 Zn146 1.920 . S
O152 C165 1.234 . S
C153 O158 1.167 . S
C153 O159 1.299 . S
O154 Zn148 2.114 . S
O154 C149 1.166 . S
O155 Zn147 1.905 . S
O155 C149 1.182 . S
O156 Zn147 1.898 . S
O156 C150 1.167 . S
O157 Zn148 2.120 . S
O157 C150 1.299 . S
O158 Zn146 1.898 . S
O158 C153 1.167 . S
O159 Zn148 2.120 . S
O159 C153 1.299 . S
O160 Zn148 2.114 . S
O160 C162 1.166 . S
O161 Zn146 1.905 . S
O161 C162 1.182 . S
C162 O160 1.166 . S
C162 O161 1.182 . S
O163 Zn148 2.080 . S
O163 C166 1.305 . S
O164 Zn147 1.920 . S
O164 C166 1.234 . S
C165 O151 1.305 . S
C165 O152 1.234 . S
C166 O163 1.305 . S
C166 O164 1.234 . S
Zn167 O173 1.920 . S
Zn167 O179 1.898 . S
Zn167 O182 1.905 1_455 S
Zn168 O176 1.905 . S
Zn168 O177 1.898 . S
Zn168 O185 1.920 . S
Zn169 O172 2.080 . S
Zn169 O175 2.114 . S
Zn169 O178 2.120 . S
Zn169 O180 2.120 . S
Zn169 O181 2.114 . S
Zn169 O184 2.080 . S
C170 O175 1.166 . S
C170 O176 1.182 . S
C171 O177 1.167 . S
C171 O178 1.299 . S
O172 Zn169 2.080 . S
O172 C186 1.305 . S
O173 Zn167 1.920 . S
O173 C186 1.234 . S
C174 O179 1.167 . S
C174 O180 1.299 . S
O175 Zn169 2.114 . S
O175 C170 1.166 . S
O176 Zn168 1.905 . S
O176 C170 1.182 . S
O177 Zn168 1.898 . S
O177 C171 1.167 . S
O178 Zn169 2.120 . S
O178 C171 1.299 . S
O179 Zn167 1.898 . S
O179 C174 1.167 . S
O180 Zn169 2.120 . S
O180 C174 1.299 . S
O181 Zn169 2.114 . S
O181 C183 1.166 . S
O182 Zn167 1.905 1_655 S
O182 C183 1.182 1_655 S
C183 O181 1.166 . S
C183 O182 1.182 1_455 S
O184 Zn169 2.080 . S
O184 C187 1.305 . S
O185 Zn168 1.920 . S
O185 C187 1.234 . S
C186 O172 1.305 . S
C186 O173 1.234 . S
C187 O184 1.305 . S
C187 O185 1.234 . S
H188 C196 0.950 . S
H189 C201 0.950 . S
H190 C198 0.950 . S
H191 C200 0.950 . S
H192 C202 0.950 . S
H193 C204 0.950 . S
H194 C206 0.950 . S
H195 C207 0.950 . S
C196 H188 0.950 . S
C196 C197 1.386 . S
C196 C198 1.391 . S
C197 C196 1.386 . S
C197 C201 1.393 . S
C198 H190 0.950 . S
C198 C196 1.391 . S
C198 C199 1.400 . S
C199 C198 1.400 . S
C199 C200 1.398 . S
C199 C205 1.491 . S
C200 H191 0.950 . S
C200 C199 1.398 . S
C200 C201 1.391 . S
C201 H189 0.950 . S
C201 C197 1.393 . S
C201 C200 1.391 . S
C202 H192 0.950 . S
C202 C203 1.386 . S
C202 C204 1.391 . S
C203 C202 1.386 . S
C203 C207 1.393 . S
C204 H193 0.950 . S
C204 C202 1.391 . S
C204 C205 1.400 . S
C205 C199 1.491 . S
C205 C204 1.400 . S
C205 C206 1.398 . S
C206 H194 0.950 . S
C206 C205 1.398 . S
C206 C207 1.391 . S
C207 H195 0.950 . S
C207 C203 1.393 . S
C207 C206 1.391 . S
H208 C216 0.950 . S
H209 C221 0.950 1_455 S
H210 C218 0.950 . S
H211 C220 0.950 . S
H212 C222 0.950 . S
H213 C224 0.950 . S
H214 C226 0.950 . S
H215 C227 0.950 . S
C216 H208 0.950 . S
C216 C217 1.386 1_655 S
C216 C218 1.391 . S
C217 C216 1.386 1_455 S
C217 C221 1.393 1_455 S
C218 H210 0.950 . S
C218 C216 1.391 . S
C218 C219 1.400 . S
C219 C218 1.400 . S
C219 C220 1.398 . S
C219 C225 1.491 . S
C220 H211 0.950 . S
C220 C219 1.398 . S
C220 C221 1.391 . S
C221 H209 0.950 1_655 S
C221 C217 1.393 1_655 S
C221 C220 1.391 . S
C222 H212 0.950 . S
C222 C223 1.386 . S
C222 C224 1.391 . S
C223 C222 1.386 . S
C223 C227 1.393 . S
C224 H213 0.950 . S
C224 C222 1.391 . S
C224 C225 1.400 . S
C225 C219 1.491 . S
C225 C224 1.400 . S
C225 C226 1.398 . S
C226 H214 0.950 . S
C226 C225 1.398 . S
C226 C227 1.391 . S
C227 H215 0.950 . S
C227 C223 1.393 . S
C227 C226 1.391 . S
H228 C236 0.950 . S
H229 C241 0.950 . S
H230 C238 0.950 . S
H231 C240 0.950 . S
H232 C242 0.950 . S
H233 C244 0.950 . S
H234 C246 0.950 . S
H235 C247 0.950 . S
C236 H228 0.950 . S
C236 C237 1.386 . S
C236 C238 1.391 . S
C237 C236 1.386 . S
C237 C241 1.393 . S
C238 H230 0.950 . S
C238 C236 1.391 . S
C238 C239 1.400 . S
C239 C238 1.400 . S
C239 C240 1.398 . S
C239 C245 1.491 . S
C240 H231 0.950 . S
C240 C239 1.398 . S
C240 C241 1.391 . S
C241 H229 0.950 . S
C241 C237 1.393 . S
C241 C240 1.391 . S
C242 H232 0.950 . S
C242 C243 1.386 . S
C242 C244 1.391 . S
C243 C242 1.386 . S
C243 C247 1.393 . S
C244 H233 0.950 . S
C244 C242 1.391 . S
C244 C245 1.400 . S
C245 C239 1.491 . S
C245 C244 1.400 . S
C245 C246 1.398 . S
C246 H234 0.950 . S
C246 C245 1.398 . S
C246 C247 1.391 . S
C247 H235 0.950 . S
C247 C243 1.393 . S
C247 C246 1.391 . S
H248 C256 0.950 . S
H249 C261 0.950 . S
H250 C258 0.950 . S
H251 C260 0.950 . S
H252 C262 0.950 . S
H253 C264 0.950 . S
H254 C266 0.950 . S
H255 C267 0.950 . S
C256 H248 0.950 . S
C256 C257 1.386 . S
C256 C258 1.391 . S
C257 C256 1.386 . S
C257 C261 1.393 . S
C258 H250 0.950 . S
C258 C256 1.391 . S
C258 C259 1.400 . S
C259 C258 1.400 . S
C259 C260 1.398 . S
C259 C265 1.491 . S
C260 H251 0.950 . S
C260 C259 1.398 . S
C260 C261 1.391 . S
C261 H249 0.950 . S
C261 C257 1.393 . S
C261 C260 1.391 . S
C262 H252 0.950 . S
C262 C263 1.386 . S
C262 C264 1.391 . S
C263 C262 1.386 . S
C263 C267 1.393 . S
C264 H253 0.950 . S
C264 C262 1.391 . S
C264 C265 1.400 . S
C265 C259 1.491 . S
C265 C264 1.400 . S
C265 C266 1.398 . S
C266 H254 0.950 . S
C266 C265 1.398 . S
C266 C267 1.391 . S
C267 H255 0.950 . S
C267 C263 1.393 . S
C267 C266 1.391 . S
H268 C276 0.950 . S
H269 C281 0.950 . S
H270 C278 0.950 . S
H271 C280 0.950 . S
H272 C282 0.950 . S
H273 C284 0.950 . S
H274 C286 0.950 . S
H275 C287 0.950 . S
C276 H268 0.950 . S
C276 C277 1.386 . S
C276 C278 1.391 . S
C277 C276 1.386 . S
C277 C281 1.393 . S
C278 H270 0.950 . S
C278 C276 1.391 . S
C278 C279 1.400 . S
C279 C278 1.400 . S
C279 C280 1.398 . S
C279 C285 1.491 . S
C280 H271 0.950 . S
C280 C279 1.398 . S
C280 C281 1.391 . S
C281 H269 0.950 . S
C281 C277 1.393 . S
C281 C280 1.391 . S
C282 H272 0.950 . S
C282 C283 1.386 . S
C282 C284 1.391 . S
C283 C282 1.386 . S
C283 C287 1.393 . S
C284 H273 0.950 . S
C284 C282 1.391 . S
C284 C285 1.400 . S
C285 C279 1.491 . S
C285 C284 1.400 . S
C285 C286 1.398 . S
C286 H274 0.950 . S
C286 C285 1.398 . S
C286 C287 1.391 . S
C287 H275 0.950 . S
C287 C283 1.393 . S
C287 C286 1.391 . S
H288 C296 0.950 . S
H289 C301 0.950 . S
H290 C298 0.950 . S
H291 C300 0.950 . S
H292 C302 0.950 . S
H293 C304 0.950 . S
H294 C306 0.950 . S
H295 C307 0.950 . S
C296 H288 0.950 . S
C296 C297 1.386 . S
C296 C298 1.391 . S
C297 C296 1.386 . S
C297 C301 1.393 . S
C298 H290 0.950 . S
C298 C296 1.391 . S
C298 C299 1.400 . S
C299 C298 1.400 . S
C299 C300 1.398 . S
C299 C305 1.491 . S
C300 H291 0.950 . S
C300 C299 1.398 . S
C300 C301 1.391 . S
C301 H289 0.950 . S
C301 C297 1.393 . S
C301 C300 1.391 . S
C302 H292 0.950 . S
C302 C303 1.386 . S
C302 C304 1.391 . S
C303 C302 1.386 . S
C303 C307 1.393 . S
C304 H293 0.950 . S
C304 C302 1.391 . S
C304 C305 1.400 . S
C305 C299 1.491 . S
C305 C304 1.400 . S
C305 C306 1.398 . S
C306 H294 0.950 . S
C306 C305 1.398 . S
C306 C307 1.391 . S
C307 H295 0.950 . S
C307 C303 1.393 . S
C307 C306 1.391 . S
H308 C316 0.950 . S
H309 C321 0.950 . S
H310 C318 0.950 . S
H311 C320 0.950 . S
H312 C322 0.950 . S
H313 C324 0.950 . S
H314 C326 0.950 . S
H315 C327 0.950 . S
C316 H308 0.950 . S
C316 C317 1.386 . S
C316 C318 1.391 . S
C317 C316 1.386 . S
C317 C321 1.393 . S
C318 H310 0.950 . S
C318 C316 1.391 . S
C318 C319 1.400 . S
C319 C318 1.400 . S
C319 C320 1.398 . S
C319 C325 1.491 . S
C320 H311 0.950 . S
C320 C319 1.398 . S
C320 C321 1.391 . S
C321 H309 0.950 . S
C321 C317 1.393 . S
C321 C320 1.391 . S
C322 H312 0.950 . S
C322 C323 1.386 . S
C322 C324 1.391 . S
C323 C322 1.386 . S
C323 C327 1.393 . S
C324 H313 0.950 . S
C324 C322 1.391 . S
C324 C325 1.400 . S
C325 C319 1.491 . S
C325 C324 1.400 . S
C325 C326 1.398 . S
C326 H314 0.950 . S
C326 C325 1.398 . S
C326 C327 1.391 . S
C327 H315 0.950 . S
C327 C323 1.393 . S
C327 C326 1.391 . S
H328 C336 0.950 . S
H329 C341 0.950 . S
H330 C338 0.950 . S
H331 C340 0.950 . S
H332 C342 0.950 . S
H333 C344 0.950 . S
H334 C346 0.950 . S
H335 C347 0.950 . S
C336 H328 0.950 . S
C336 C337 1.386 . S
C336 C338 1.391 1_455 S
C337 C336 1.386 . S
C337 C341 1.393 . S
C338 H330 0.950 . S
C338 C336 1.391 1_655 S
C338 C339 1.400 . S
C339 C338 1.400 . S
C339 C340 1.398 . S
C339 C345 1.491 . S
C340 H331 0.950 . S
C340 C339 1.398 . S
C340 C341 1.391 1_655 S
C341 H329 0.950 . S
C341 C337 1.393 . S
C341 C340 1.391 1_455 S
C342 H332 0.950 . S
C342 C343 1.386 . S
C342 C344 1.391 . S
C343 C342 1.386 . S
C343 C347 1.393 . S
C344 H333 0.950 . S
C344 C342 1.391 . S
C344 C345 1.400 . S
C345 C339 1.491 . S
C345 C344 1.400 . S
C345 C346 1.398 . S
C346 H334 0.950 . S
C346 C345 1.398 . S
C346 C347 1.391 . S
C347 H335 0.950 . S
C347 C343 1.393 . S
C347 C346 1.391 . S
H348 C356 0.950 . S
H349 C361 0.950 . S
H350 C358 0.950 . S
H351 C360 0.950 . S
H352 C362 0.950 . S
H353 C364 0.950 . S
H354 C366 0.950 . S
H355 C367 0.950 . S
C356 H348 0.950 . S
C356 C357 1.386 . S
C356 C358 1.391 . S
C357 C356 1.386 . S
C357 C361 1.393 . S
C358 H350 0.950 . S
C358 C356 1.391 . S
C358 C359 1.400 . S
C359 C358 1.400 . S
C359 C360 1.398 . S
C359 C365 1.491 . S
C360 H351 0.950 . S
C360 C359 1.398 . S
C360 C361 1.391 . S
C361 H349 0.950 . S
C361 C357 1.393 . S
C361 C360 1.391 . S
C362 H352 0.950 . S
C362 C363 1.386 . S
C362 C364 1.391 . S
C363 C362 1.386 . S
C363 C367 1.393 . S
C364 H353 0.950 . S
C364 C362 1.391 . S
C364 C365 1.400 . S
C365 C359 1.491 . S
C365 C364 1.400 . S
C365 C366 1.398 . S
C366 H354 0.950 . S
C366 C365 1.398 . S
C366 C367 1.391 . S
C367 H355 0.950 . S
C367 C363 1.393 . S
C367 C366 1.391 . S
H368 C376 0.950 . S
H369 C381 0.950 . S
H370 C378 0.950 . S
H371 C380 0.950 . S
H372 C382 0.950 . S
H373 C384 0.950 . S
H374 C386 0.950 . S
H375 C387 0.950 . S
C376 H368 0.950 . S
C376 C377 1.386 . S
C376 C378 1.391 . S
C377 C376 1.386 . S
C377 C381 1.393 . S
C378 H370 0.950 . S
C378 C376 1.391 . S
C378 C379 1.400 . S
C379 C378 1.400 . S
C379 C380 1.398 . S
C379 C385 1.491 . S
C380 H371 0.950 . S
C380 C379 1.398 . S
C380 C381 1.391 . S
C381 H369 0.950 . S
C381 C377 1.393 . S
C381 C380 1.391 . S
C382 H372 0.950 . S
C382 C383 1.386 . S
C382 C384 1.391 . S
C383 C382 1.386 . S
C383 C387 1.393 . S
C384 H373 0.950 . S
C384 C382 1.391 . S
C384 C385 1.400 . S
C385 C379 1.491 . S
C385 C384 1.400 . S
C385 C386 1.398 . S
C386 H374 0.950 . S
C386 C385 1.398 . S
C386 C387 1.391 . S
C387 H375 0.950 . S
C387 C383 1.393 . S
C387 C386 1.391 . S
H388 C396 0.950 . S
H389 C401 0.950 . S
H390 C398 0.950 . S
H391 C400 0.950 . S
H392 C402 0.950 . S
H393 C404 0.950 . S
H394 C406 0.950 . S
H395 C407 0.950 . S
C396 H388 0.950 . S
C396 C397 1.386 . S
C396 C398 1.391 . S
C397 C396 1.386 . S
C397 C401 1.393 . S
C398 H390 0.950 . S
C398 C396 1.391 . S
C398 C399 1.400 . S
C399 C398 1.400 . S
C399 C400 1.398 . S
C399 C405 1.491 . S
C400 H391 0.950 . S
C400 C399 1.398 . S
C400 C401 1.391 . S
C401 H389 0.950 . S
C401 C397 1.393 . S
C401 C400 1.391 . S
C402 H392 0.950 . S
C402 C403 1.386 . S
C402 C404 1.391 . S
C403 C402 1.386 . S
C403 C407 1.393 . S
C404 H393 0.950 . S
C404 C402 1.391 . S
C404 C405 1.400 . S
C405 C399 1.491 . S
C405 C404 1.400 . S
C405 C406 1.398 . S
C406 H394 0.950 . S
C406 C405 1.398 . S
C406 C407 1.391 . S
C407 H395 0.950 . S
C407 C403 1.393 . S
C407 C406 1.391 . S
H408 C416 0.950 . S
H409 C421 0.950 . S
H410 C418 0.950 . S
H411 C420 0.950 . S
H412 C422 0.950 . S
H413 C424 0.950 . S
H414 C426 0.950 . S
H415 C427 0.950 . S
C416 H408 0.950 . S
C416 C417 1.386 . S
C416 C418 1.391 . S
C417 C416 1.386 . S
C417 C421 1.393 . S
C418 H410 0.950 . S
C418 C416 1.391 . S
C418 C419 1.400 . S
C419 C418 1.400 . S
C419 C420 1.398 . S
C419 C425 1.491 . S
C420 H411 0.950 . S
C420 C419 1.398 . S
C420 C421 1.391 . S
C421 H409 0.950 . S
C421 C417 1.393 . S
C421 C420 1.391 . S
C422 H412 0.950 . S
C422 C423 1.386 . S
C422 C424 1.391 . S
C423 C422 1.386 . S
C423 C427 1.393 . S
C424 H413 0.950 . S
C424 C422 1.391 . S
C424 C425 1.400 . S
C425 C419 1.491 . S
C425 C424 1.400 . S
C425 C426 1.398 . S
C426 H414 0.950 . S
C426 C425 1.398 . S
C426 C427 1.391 . S
C427 H415 0.950 . S
C427 C423 1.393 . S
C427 C426 1.391 . S
H428 C436 0.950 . S
H429 C441 0.950 . S
H430 C438 0.950 . S
H431 C440 0.950 . S
H432 C442 0.950 . S
H433 C444 0.950 . S
H434 C446 0.943 1_565 S
H435 C447 0.950 . S
C436 H428 0.950 . S
C436 C437 1.386 . S
C436 C438 1.391 . S
C437 C436 1.386 . S
C437 C441 1.393 . S
C438 H430 0.950 . S
C438 C436 1.391 . S
C438 C439 1.400 . S
C439 C438 1.400 . S
C439 C440 1.398 . S
C439 C445 1.491 1_565 S
C440 H431 0.950 . S
C440 C439 1.398 . S
C440 C441 1.391 . S
C441 H429 0.950 . S
C441 C437 1.393 . S
C441 C440 1.391 . S
C442 H432 0.950 . S
C442 C443 1.386 . S
C442 C444 1.391 . S
C443 C442 1.386 . S
C443 C447 1.393 . S
C444 H433 0.950 . S
C444 C442 1.391 . S
C444 C445 1.400 . S
C445 C439 1.491 1_545 S
C445 C444 1.400 . S
C445 C446 1.398 . S
C446 H434 0.943 1_545 S
C446 C445 1.398 . S
C446 C447 1.391 . S
C447 H435 0.950 . S
C447 C443 1.393 . S
C447 C446 1.391 . S
H448 C456 0.950 . S
H449 C461 0.950 . S
H450 C458 0.950 . S
H451 C460 0.950 . S
H452 C462 0.950 . S
H453 C464 0.950 . S
H454 C466 0.950 1_545 S
H455 C467 0.950 . S
C456 H448 0.950 . S
C456 C457 1.386 . S
C456 C458 1.391 . S
C457 C456 1.386 . S
C457 C461 1.393 . S
C458 H450 0.950 . S
C458 C456 1.391 . S
C458 C459 1.400 . S
C459 C458 1.400 . S
C459 C460 1.398 . S
C459 C465 1.491 . S
C460 H451 0.950 . S
C460 C459 1.398 . S
C460 C461 1.391 . S
C461 H449 0.950 . S
C461 C457 1.393 . S
C461 C460 1.391 . S
C462 H452 0.950 . S
C462 C463 1.386 . S
C462 C464 1.391 1_565 S
C463 C462 1.386 . S
C463 C467 1.393 . S
C464 H453 0.950 . S
C464 C462 1.391 1_545 S
C464 C465 1.400 . S
C465 C459 1.491 . S
C465 C464 1.400 . S
C465 C466 1.398 1_545 S
C466 H454 0.950 1_565 S
C466 C465 1.398 1_565 S
C466 C467 1.391 . S
C467 H455 0.950 . S
C467 C463 1.393 . S
C467 C466 1.391 . S
H468 C476 0.950 . S
H469 C481 0.950 . S
H470 C478 0.950 . S
H471 C480 0.950 1_565 S
H472 C482 0.950 . S
H473 C484 0.950 . S
H474 C486 0.950 . S
H475 C487 0.950 . S
C476 H468 0.950 . S
C476 C477 1.386 . S
C476 C478 1.391 . S
C477 C476 1.386 . S
C477 C481 1.393 . S
C478 H470 0.950 . S
C478 C476 1.391 . S
C478 C479 1.400 . S
C479 C478 1.400 . S
C479 C480 1.398 . S
C479 C485 1.491 1_545 S
C480 H471 0.950 1_545 S
C480 C479 1.398 . S
C480 C481 1.391 . S
C481 H469 0.950 . S
C481 C477 1.393 . S
C481 C480 1.391 . S
C482 H472 0.950 . S
C482 C483 1.386 . S
C482 C484 1.391 . S
C483 C482 1.386 . S
C483 C487 1.393 . S
C484 H473 0.950 . S
C484 C482 1.391 . S
C484 C485 1.400 . S
C485 C479 1.491 1_565 S
C485 C484 1.400 . S
C485 C486 1.398 . S
C486 H474 0.950 . S
C486 C485 1.398 . S
C486 C487 1.391 . S
C487 H475 0.950 . S
C487 C483 1.393 . S
C487 C486 1.391 . S
H488 C496 0.950 . S
H489 C501 0.950 1_655 S
H490 C498 0.950 . S
H491 C500 0.950 1_655 S
H492 C502 0.950 . S
H493 C504 0.950 . S
H494 C506 0.950 . S
H495 C507 0.950 . S
C496 H488 0.950 . S
C496 C497 1.386 . S
C496 C498 1.391 . S
C497 C496 1.386 . S
C497 C501 1.393 . S
C498 H490 0.950 . S
C498 C496 1.391 . S
C498 C499 1.400 . S
C499 C498 1.400 . S
C499 C500 1.398 . S
C499 C505 1.491 . S
C500 H491 0.950 1_455 S
C500 C499 1.398 . S
C500 C501 1.391 . S
C501 H489 0.950 1_455 S
C501 C497 1.393 . S
C501 C500 1.391 . S
C502 H492 0.950 . S
C502 C503 1.386 . S
C502 C504 1.391 1_545 S
C503 C502 1.386 . S
C503 C507 1.393 . S
C504 H493 0.950 . S
C504 C502 1.391 1_565 S
C504 C505 1.400 . S
C505 C499 1.491 . S
C505 C504 1.400 . S
C505 C506 1.398 . S
C506 H494 0.950 . S
C506 C505 1.398 . S
C506 C507 1.391 1_565 S
C507 H495 0.950 . S
C507 C503 1.393 . S
C507 C506 1.391 1_545 S
H508 C516 0.950 . S
H509 C521 0.950 . S
H510 C518 0.950 1_556 S
H511 C520 0.950 . S
H512 C522 0.950 . S
H513 C524 0.950 . S
H514 C526 0.950 . S
H515 C527 0.950 . S
C516 H508 0.950 . S
C516 C517 1.386 . S
C516 C518 1.391 . S
C517 C516 1.386 . S
C517 C521 1.393 . S
C518 H510 0.950 1_554 S
C518 C516 1.391 . S
C518 C519 1.422 . S
C519 C518 1.422 . S
C519 C520 1.437 . S
C519 C525 1.435 1_554 S
C520 H511 0.950 . S
C520 C519 1.437 . S
C520 C521 1.391 . S
C521 H509 0.950 . S
C521 C517 1.393 . S
C521 C520 1.391 . S
C522 H512 0.950 . S
C522 C523 1.386 . S
C522 C524 1.391 . S
C523 C522 1.386 . S
C523 C527 1.393 . S
C524 H513 0.950 . S
C524 C522 1.391 . S
C524 C525 1.400 . S
C525 C519 1.435 1_556 S
C525 C524 1.400 . S
C525 C526 1.398 . S
C526 H514 0.950 . S
C526 C525 1.398 . S
C526 C527 1.391 . S
C527 H515 0.950 . S
C527 C523 1.393 . S
C527 C526 1.391 . S
H528 C536 0.950 . S
H529 C541 0.950 . S
H530 C538 0.950 . S
H531 C540 0.950 . S
H532 C542 0.950 . S
H533 C544 0.950 . S
H534 C546 0.950 . S
H535 C547 0.950 . S
C536 H528 0.950 . S
C536 C537 1.386 . S
C536 C538 1.391 . S
C537 C536 1.386 . S
C537 C541 1.393 . S
C538 H530 0.950 . S
C538 C536 1.391 . S
C538 C539 1.400 . S
C539 C538 1.400 . S
C539 C540 1.398 . S
C539 C545 1.491 . S
C540 H531 0.950 . S
C540 C539 1.398 . S
C540 C541 1.391 . S
C541 H529 0.950 . S
C541 C537 1.393 . S
C541 C540 1.391 . S
C542 H532 0.950 . S
C542 C543 1.386 . S
C542 C544 1.391 . S
C543 C542 1.386 . S
C543 C547 1.393 . S
C544 H533 0.950 . S
C544 C542 1.391 . S
C544 C545 1.400 . S
C545 C539 1.491 . S
C545 C544 1.400 . S
C545 C546 1.398 . S
C546 H534 0.950 . S
C546 C545 1.398 . S
C546 C547 1.391 . S
C547 H535 0.950 . S
C547 C543 1.393 . S
C547 C546 1.391 . S
H548 C556 0.950 . S
H549 C561 0.950 . S
H550 C558 0.950 . S
H551 C560 0.950 . S
H552 C562 0.950 . S
H553 C564 0.950 . S
H554 C566 0.950 . S
H555 C567 0.950 . S
C556 H548 0.950 . S
C556 C557 1.386 . S
C556 C558 1.391 . S
C557 C556 1.386 . S
C557 C561 1.393 . S
C558 H550 0.950 . S
C558 C556 1.391 . S
C558 C559 1.400 . S
C559 C558 1.400 . S
C559 C560 1.398 . S
C559 C565 1.491 . S
C560 H551 0.950 . S
C560 C559 1.398 . S
C560 C561 1.391 . S
C561 H549 0.950 . S
C561 C557 1.393 . S
C561 C560 1.391 . S
C562 H552 0.950 . S
C562 C563 1.386 . S
C562 C564 1.391 . S
C563 C562 1.386 . S
C563 C567 1.393 . S
C564 H553 0.950 . S
C564 C562 1.391 . S
C564 C565 1.400 . S
C565 C559 1.491 . S
C565 C564 1.400 . S
C565 C566 1.398 . S
C566 H554 0.950 . S
C566 C565 1.398 . S
C566 C567 1.391 . S
C567 H555 0.950 . S
C567 C563 1.393 . S
C567 C566 1.391 . S
H568 C576 0.950 . S
H569 C581 0.950 . S
H570 C578 0.950 . S
H571 C580 0.950 . S
H572 C582 0.950 . S
H573 C584 0.950 . S
H574 C586 0.950 . S
H575 C587 0.950 . S
C576 H568 0.950 . S
C576 C577 1.386 . S
C576 C578 1.391 . S
C577 C576 1.386 . S
C577 C581 1.393 . S
C578 H570 0.950 . S
C578 C576 1.391 . S
C578 C579 1.400 . S
C579 C578 1.400 . S
C579 C580 1.398 . S
C579 C585 1.491 . S
C580 H571 0.950 . S
C580 C579 1.398 . S
C580 C581 1.391 . S
C581 H569 0.950 . S
C581 C577 1.393 . S
C581 C580 1.391 . S
C582 H572 0.950 . S
C582 C583 1.386 . S
C582 C584 1.391 . S
C583 C582 1.386 . S
C583 C587 1.393 . S
C584 H573 0.950 . S
C584 C582 1.391 . S
C584 C585 1.400 . S
C585 C579 1.491 . S
C585 C584 1.400 . S
C585 C586 1.398 . S
C586 H574 0.950 . S
C586 C585 1.398 . S
C586 C587 1.391 . S
C587 H575 0.950 . S
C587 C583 1.393 . S
C587 C586 1.391 . S
H588 C596 0.950 . S
H589 C601 0.950 . S
H590 C598 0.950 . S
H591 C600 0.982 . S
H592 C602 0.950 . S
H593 C604 0.950 . S
H594 C606 0.950 . S
H595 C607 0.950 . S
C596 H588 0.950 . S
C596 C597 1.386 . S
C596 C598 1.391 . S
C597 C596 1.386 . S
C597 C601 1.393 . S
C598 H590 0.950 . S
C598 C596 1.391 . S
C598 C599 1.400 . S
C599 C598 1.400 . S
C599 C600 1.398 . S
C599 C605 1.491 1_556 S
C600 H591 0.982 . S
C600 C599 1.398 . S
C600 C601 1.391 . S
C601 H589 0.950 . S
C601 C597 1.393 . S
C601 C600 1.391 . S
C602 H592 0.950 . S
C602 C603 1.386 . S
C602 C604 1.391 . S
C603 C602 1.386 . S
C603 C607 1.393 . S
C604 H593 0.950 . S
C604 C602 1.391 . S
C604 C605 1.400 . S
C605 C599 1.491 1_554 S
C605 C604 1.400 . S
C605 C606 1.398 . S
C606 H594 0.950 . S
C606 C605 1.398 . S
C606 C607 1.391 . S
C607 H595 0.950 . S
C607 C603 1.393 . S
C607 C606 1.391 . S
H608 C616 0.950 . S
H609 C621 0.950 . S
H610 C618 0.950 . S
H611 C620 0.950 . S
H612 C622 0.950 . S
H613 C624 0.950 . S
H614 C626 0.950 . S
H615 C627 0.950 . S
C616 H608 0.950 . S
C616 C617 1.386 . S
C616 C618 1.391 . S
C617 C616 1.386 . S
C617 C621 1.393 . S
C618 H610 0.950 . S
C618 C616 1.391 . S
C618 C619 1.400 . S
C619 C618 1.400 . S
C619 C620 1.398 . S
C619 C625 1.491 . S
C620 H611 0.950 . S
C620 C619 1.398 . S
C620 C621 1.391 . S
C621 H609 0.950 . S
C621 C617 1.393 . S
C621 C620 1.391 . S
C622 H612 0.950 . S
C622 C623 1.386 . S
C622 C624 1.391 . S
C623 C622 1.386 . S
C623 C627 1.393 . S
C624 H613 0.950 . S
C624 C622 1.391 . S
C624 C625 1.400 . S
C625 C619 1.491 . S
C625 C624 1.400 . S
C625 C626 1.398 . S
C626 H614 0.950 . S
C626 C625 1.398 . S
C626 C627 1.391 . S
C627 H615 0.950 . S
C627 C623 1.393 . S
C627 C626 1.391 . S
H628 C636 0.950 . S
H629 C641 0.950 . S
H630 C638 0.950 . S
H631 C640 0.950 . S
H632 C642 0.950 . S
H633 C644 0.950 . S
H634 C646 0.950 . S
H635 C647 0.950 . S
C636 H628 0.950 . S
C636 C637 1.386 . S
C636 C638 1.391 . S
C637 C636 1.386 . S
C637 C641 1.393 . S
C638 H630 0.950 . S
C638 C636 1.391 . S
C638 C639 1.400 . S
C639 C638 1.400 . S
C639 C640 1.398 . S
C639 C645 1.491 . S
C640 H631 0.950 . S
C640 C639 1.398 . S
C640 C641 1.391 . S
C641 H629 0.950 . S
C641 C637 1.393 . S
C641 C640 1.391 . S
C642 H632 0.950 . S
C642 C643 1.386 . S
C642 C644 1.391 . S
C643 C642 1.386 . S
C643 C647 1.393 . S
C644 H633 0.950 . S
C644 C642 1.391 . S
C644 C645 1.400 . S
C645 C639 1.491 . S
C645 C644 1.400 . S
C645 C646 1.398 . S
C646 H634 0.950 . S
C646 C645 1.398 . S
C646 C647 1.391 . S
C647 H635 0.950 . S
C647 C643 1.393 . S
C647 C646 1.391 . S
H648 C656 0.950 . S
H649 C661 0.950 . S
H650 C658 0.950 . S
H651 C660 0.950 . S
H652 C662 0.950 . S
H653 C664 0.950 . S
H654 C666 0.950 . S
H655 C667 0.950 . S
C656 H648 0.950 . S
C656 C657 1.386 . S
C656 C658 1.391 . S
C657 C656 1.386 . S
C657 C661 1.393 . S
C658 H650 0.950 . S
C658 C656 1.391 . S
C658 C659 1.400 . S
C659 C658 1.400 . S
C659 C660 1.398 . S
C659 C665 1.491 . S
C660 H651 0.950 . S
C660 C659 1.398 . S
C660 C661 1.391 . S
C661 H649 0.950 . S
C661 C657 1.393 . S
C661 C660 1.391 . S
C662 H652 0.950 . S
C662 C663 1.386 . S
C662 C664 1.391 . S
C663 C662 1.386 . S
C663 C667 1.393 . S
C664 H653 0.950 . S
C664 C662 1.391 . S
C664 C665 1.400 . S
C665 C659 1.491 . S
C665 C664 1.400 . S
C665 C666 1.398 . S
C666 H654 0.950 . S
C666 C665 1.398 . S
C666 C667 1.391 . S
C667 H655 0.950 . S
C667 C663 1.393 . S
C667 C666 1.391 . S
C203 C111 1.471 . S
C197 N2 1.600 . S
C223 C129 1.071 . S
C217 N15 1.163 . S
C237 N27 1.344 . S
C243 C153 1.247 . S
C263 C183 1.551 1_655 S
C257 N40 1.729 . S
C283 C171 1.310 . S
C277 N54 1.413 . S
C297 N66 1.714 . S
C303 C124 1.611 1_655 S
C317 N79 1.547 . S
C323 C144 1.407 . S
C337 N93 1.180 . S
C343 C149 1.079 . S
C357 N92 1.708 . S
C363 C165 1.615 . S
C377 N67 1.203 . S
C383 C120 1.045 . S
C403 C187 1.086 . S
C397 N41 1.165 . S
C423 C132 1.542 . S
C417 N14 1.727 . S
C437 N28 1.600 . S
C443 C150 1.492 . S
C457 N1 1.350 . S
C463 C108 1.230 . S
C483 C128 1.315 . S
C477 N80 1.414 . S
C503 C174 1.437 . S
C497 N53 1.552 . S
C523 C170 1.340 . S
C517 N5 1.573 . S
C543 C123 1.342 . S
C537 N18 1.447 . S
C557 N31 1.552 . S
C563 C145 1.340 . S
C577 N44 1.467 . S
C583 C166 1.360 . S
C603 C107 1.371 . S
C597 N57 1.474 . S
C617 N70 1.554 . S
C623 C141 1.479 . S
C643 C162 1.382 . S
C637 N83 1.492 . S
C663 C186 1.461 . S
C657 N96 1.532 . S
