# Generated by pormake.
# Topology pyr, (3,6)-cn, num edge types: 1
# Building blocks:
#     Node 0, Type 0, BuildingBlock: CUQRIR_clean_linker_1, # of connection points: 3
#     Node 1, Type 0, BuildingBlock: CUQRIR_clean_linker_1, # of connection points: 3
#     Node 2, Type 0, BuildingBlock: CUQRIR_clean_linker_1, # of connection points: 3
#     Node 3, Type 0, BuildingBlock: CUQRIR_clean_linker_1, # of connection points: 3
#     Node 4, Type 0, BuildingBlock: CUQRIR_clean_linker_1, # of connection points: 3
#     Node 5, Type 0, BuildingBlock: CUQRIR_clean_linker_1, # of connection points: 3
#     Node 6, Type 0, BuildingBlock: CUQRIR_clean_linker_1, # of connection points: 3
#     Node 7, Type 0, BuildingBlock: CUQRIR_clean_linker_1, # of connection points: 3
#     Node 8, Type 1, BuildingBlock: BETDAH_clean_sbu_0, # of connection points: 6
#     Node 9, Type 1, BuildingBlock: BETDAH_clean_sbu_0, # of connection points: 6
#     Node 10, Type 1, BuildingBlock: BETDAH_clean_sbu_0, # of connection points: 6
#     Node 11, Type 1, BuildingBlock: BETDAH_clean_sbu_0, # of connection points: 6
#     Edge 12, Type (0, 1), BuildingBlock: AJUNOK_clean_linker_0, # of connection points: 2
#     Edge 13, Type (0, 1), BuildingBlock: AJUNOK_clean_linker_0, # of connection points: 2
#     Edge 14, Type (0, 1), BuildingBlock: AJUNOK_clean_linker_0, # of connection points: 2
#     Edge 15, Type (0, 1), BuildingBlock: AJUNOK_clean_linker_0, # of connection points: 2
#     Edge 16, Type (0, 1), BuildingBlock: AJUNOK_clean_linker_0, # of connection points: 2
#     Edge 17, Type (0, 1), BuildingBlock: AJUNOK_clean_linker_0, # of connection points: 2
#     Edge 18, Type (0, 1), BuildingBlock: AJUNOK_clean_linker_0, # of connection points: 2
#     Edge 19, Type (0, 1), BuildingBlock: AJUNOK_clean_linker_0, # of connection points: 2
#     Edge 20, Type (0, 1), BuildingBlock: AJUNOK_clean_linker_0, # of connection points: 2
#     Edge 21, Type (0, 1), BuildingBlock: AJUNOK_clean_linker_0, # of connection points: 2
#     Edge 22, Type (0, 1), BuildingBlock: AJUNOK_clean_linker_0, # of connection points: 2
#     Edge 23, Type (0, 1), BuildingBlock: AJUNOK_clean_linker_0, # of connection points: 2
#     Edge 24, Type (0, 1), BuildingBlock: AJUNOK_clean_linker_0, # of connection points: 2
#     Edge 25, Type (0, 1), BuildingBlock: AJUNOK_clean_linker_0, # of connection points: 2
#     Edge 26, Type (0, 1), BuildingBlock: AJUNOK_clean_linker_0, # of connection points: 2
#     Edge 27, Type (0, 1), BuildingBlock: AJUNOK_clean_linker_0, # of connection points: 2
#     Edge 28, Type (0, 1), BuildingBlock: AJUNOK_clean_linker_0, # of connection points: 2
#     Edge 29, Type (0, 1), BuildingBlock: AJUNOK_clean_linker_0, # of connection points: 2
#     Edge 30, Type (0, 1), BuildingBlock: AJUNOK_clean_linker_0, # of connection points: 2
#     Edge 31, Type (0, 1), BuildingBlock: AJUNOK_clean_linker_0, # of connection points: 2
#     Edge 32, Type (0, 1), BuildingBlock: AJUNOK_clean_linker_0, # of connection points: 2
#     Edge 33, Type (0, 1), BuildingBlock: AJUNOK_clean_linker_0, # of connection points: 2
#     Edge 34, Type (0, 1), BuildingBlock: AJUNOK_clean_linker_0, # of connection points: 2
#     Edge 35, Type (0, 1), BuildingBlock: AJUNOK_clean_linker_0, # of connection points: 2
# Relax obj value: 0.300
# Max RMSD: 0.274
# Mean RMSD: 0.177
data_MOF--net-pyr--node1-BETDAH_clean_sbu_0--node2-CUQRIR_clean_linker_1--edge1-AJUNOK_clean_linker_0
_symmetry_space_group_name_H-M    P1
_symmetry_Int_Tables_number       1
_symmetry_cell_setting            triclinic
loop_
_symmetry_equiv_pos_as_xyz
'x, y, z'
_cell_length_a     25.550206
_cell_length_b     26.473113
_cell_length_c     23.39857
_cell_angle_alpha  89.713729
_cell_angle_beta   90.249771
_cell_angle_gamma 108.22492
loop_
_atom_site_label
_atom_site_type_symbol
_atom_site_fract_x
_atom_site_fract_y
_atom_site_fract_z
_atom_type_partial_charge
C0 C 0.40261 0.44352 0.27165 0.0
N1 N 0.43298 0.41074 0.28298 0.0
N2 N 0.40026 0.45267 0.21489 0.0
C3 C 0.36472 0.4569 0.31435 0.0
C4 C 0.43412 0.42752 0.19232 0.0
N5 N 0.45485 0.40273 0.23366 0.0
C6 C 0.44241 0.42351 0.12925 0.0
H7 H 0.33078 0.4204 0.32579 0.0
H8 H 0.34668 0.48691 0.2971 0.0
H9 H 0.38775 0.47326 0.3538 0.0
H10 H 0.44424 0.46164 0.10806 0.0
H11 H 0.40665 0.39216 0.11103 0.0
H12 H 0.48075 0.4137 0.12035 0.0
C13 C 0.39131 0.09899 0.6336 0.0
N14 N 0.35239 0.10927 0.66637 0.0
N15 N 0.42939 1.08641 0.66658 0.0
C16 C 0.38814 0.09454 0.56961 0.0
C17 C 0.41167 1.0894 0.72064 0.0
N18 N 0.3649 0.10283 0.72024 0.0
C19 C 0.43559 1.0715 0.77327 0.0
H20 H 0.35429 1.0582 0.55767 0.0
H21 H 0.42746 0.09243 0.55147 0.0
H22 H 0.37832 0.12914 0.551 0.0
H23 H 0.47934 0.09573 0.77829 0.0
H24 H 0.434 1.02936 0.76843 0.0
H25 H 0.41377 1.07557 0.81295 0.0
C26 C 0.61554 0.43469 0.92096 0.0
N27 N 0.64819 0.4268 0.96472 0.0
N28 N 0.63497 0.48467 0.89845 0.0
C29 C 0.5614 0.39522 0.90356 0.0
C30 C 0.6806 0.50739 0.93062 0.0
N31 N 0.68883 0.47325 0.97134 0.0
C32 C 0.71965 0.56228 0.91907 0.0
H33 H 0.56891 0.36793 0.87107 0.0
H34 H 0.53359 0.41564 0.88452 0.0
H35 H 0.54071 0.37126 0.94082 0.0
H36 H 0.70802 0.59142 0.94602 0.0
H37 H 0.71746 0.57371 0.87365 0.0
H38 H 0.76274 0.56445 0.92929 0.0
C39 C 0.83608 0.74741 0.41898 0.0
N40 N 0.88654 0.782 0.40332 0.0
N41 N 0.81092 0.76806 0.45972 0.0
C42 C 0.81185 0.69196 0.39585 0.0
C43 C 0.84697 0.8172 0.46812 0.0
N44 N 0.89327 0.82672 0.43517 0.0
C45 C 0.83651 0.85651 0.50961 0.0
H46 H 0.76668 0.6768 0.40249 0.0
H47 H 0.83066 0.66501 0.41854 0.0
H48 H 0.82071 0.69087 0.34958 0.0
H49 H 0.79222 0.84608 0.52068 0.0
H50 H 0.85002 0.89731 0.49151 0.0
H51 H 0.86026 0.85663 0.54945 0.0
C52 C 0.59452 0.85086 0.9727 0.0
N53 N 0.63475 0.83876 0.94371 0.0
N54 N 0.58055 0.89072 0.94659 0.0
C55 C 0.57223 0.82776 1.02976 0.0
C56 C 0.61196 0.90023 0.89885 0.0
N57 N 0.64553 0.86963 0.89753 0.0
C58 C 0.61878 0.94764 0.86043 0.0
H59 H 0.527 0.82026 1.0306 0.0
H60 H 0.59035 0.85673 1.06412 0.0
H61 H 0.58153 0.79021 1.03845 0.0
H62 H 0.64967 0.98289 0.87941 0.0
H63 H 0.57925 0.95641 0.85609 0.0
H64 H 0.63342 0.94044 0.81755 0.0
C65 C 0.8706 0.36877 0.59826 0.0
N66 N 0.88638 0.33767 0.56015 0.0
N67 N 0.84632 0.40105 0.5712 0.0
C68 C 0.88001 0.36941 0.66171 0.0
C69 C 0.84822 0.3891 0.51538 0.0
N70 N 0.87258 0.35106 0.50858 0.0
C71 C 0.81747 0.40834 0.46898 0.0
H72 H 0.8435 0.3416 0.68291 0.0
H73 H 0.88554 0.40979 0.6788 0.0
H74 H 0.91682 0.35731 0.67212 0.0
H75 H 0.83714 0.45171 0.4627 0.0
H76 H 0.77425 0.40201 0.48232 0.0
H77 H 0.81649 0.38823 0.42749 0.0
C78 C 0.33684 0.7796 0.33556 0.0
N79 N 0.38901 0.81133 0.348 0.0
N80 N 0.3195 0.7911 0.28352 0.0
C81 C 0.3022 0.7379 0.37569 0.0
C82 C 0.36306 0.83122 0.26425 0.0
N83 N 0.40541 0.84449 0.30284 0.0
C84 C 0.3641 0.8586 0.20722 0.0
H85 H 0.31681 0.7026 0.37506 0.0
H86 H 0.25797 0.72572 0.36372 0.0
H87 H 0.30672 0.75325 0.42005 0.0
H88 H 0.3612 0.89907 0.21425 0.0
H89 H 0.33023 0.83638 0.17858 0.0
H90 H 0.40319 0.86271 0.18465 0.0
C91 C 0.12103 0.45223 0.82377 0.0
N92 N 0.15576 0.44444 0.78217 0.0
N93 N 0.14152 0.50059 0.85045 0.0
C94 C 0.06598 0.41276 0.83744 0.0
C95 C 0.19107 0.52161 0.8233 0.0
N96 N 0.19993 0.48861 0.78191 0.0
C97 C 0.23241 0.57438 0.83833 0.0
H98 H 0.0475 0.38939 0.79906 0.0
H99 H 0.03732 0.43304 0.85431 0.0
H100 H 0.07172 0.38479 0.87054 0.0
H101 H 0.22235 0.59025 0.87913 0.0
H102 H 0.23384 0.60322 0.80333 0.0
H103 H 0.27414 0.57044 0.84259 0.0
Ho104 Ho 0.06842 0.16229 0.54423 0.0
Ho105 Ho 1.03258 0.10989 0.64995 0.0
C106 C 0.08878 0.23611 0.65863 0.0
C107 C 0.10905 0.22669 0.46174 0.0
C108 C 0.16622 0.24453 0.44263 0.0
C109 C 0.1936 0.29919 0.43918 0.0
C110 C 0.25006 0.3176 0.42961 0.0
C111 C 0.27992 0.28155 0.42324 0.0
C112 C 0.25267 0.2268 0.42734 0.0
C113 C 0.19614 0.20835 0.43735 0.0
C114 C 0.14253 0.12014 0.59264 0.0
C115 C 1.00574 1.03761 0.5304 0.0
C116 C 1.0124 1.04533 0.73617 0.0
C117 C 0.96226 1.0036 0.75314 0.0
C118 C 0.95964 0.97861 0.80634 0.0
C119 C 0.90894 0.94678 0.82739 0.0
C120 C 0.86043 0.94039 0.79565 0.0
C121 C 0.86399 0.96184 0.74033 0.0
C122 C 0.91469 0.9934 0.7192 0.0
C123 C 0.95827 0.15507 0.60865 0.0
O124 O 0.07359 0.2327 0.60409 0.0
O125 O 0.08589 0.19088 0.68551 0.0
O126 O 0.08079 0.1769 0.45321 0.0
O127 O 0.1029 0.2425 0.51309 0.0
O128 O 0.13128 0.11916 0.53911 0.0
O129 O 0.11593 0.14577 0.61782 0.0
O130 O 1.01348 1.03857 0.58685 0.0
O131 O 1.01643 1.08394 0.50324 0.0
O132 O 1.00866 0.0933 0.73809 0.0
O133 O 0.03568 1.03665 0.6893 0.0
O134 O 0.96592 0.14723 0.66206 0.0
O135 O 0.98506 0.13198 0.57876 0.0
H136 H 0.17132 0.32762 0.44446 0.0
H137 H 0.26993 0.36 0.4245 0.0
H138 H 0.27488 0.19845 0.42115 0.0
H139 H 0.17603 0.16593 0.44111 0.0
H140 H 0.99613 0.98604 0.83284 0.0
H141 H 0.90709 0.92988 0.86989 0.0
H142 H 0.82713 0.95755 0.71522 0.0
H143 H 0.91625 1.01255 0.6779 0.0
Ho144 Ho 0.58799 0.1447 0.17775 0.0
Ho145 Ho 0.48709 0.1353 0.12971 0.0
C146 C 0.52407 0.21522 0.23074 0.0
C147 C 0.69021 0.15297 0.19675 0.0
C148 C 0.74071 0.18991 0.21944 0.0
C149 C 0.74367 0.24238 0.23197 0.0
C150 C 0.78405 0.27192 0.2695 0.0
C151 C 0.8208 0.24866 0.2951 0.0
C152 C 0.82165 0.19852 0.27726 0.0
C153 C 0.78164 0.16921 0.23931 0.0
C154 C 0.50871 1.06209 0.22967 0.0
C155 C 0.54734 1.06717 1.06768 0.0
C156 C 0.38463 0.12531 0.10683 0.0
C157 C 0.34852 0.10473 1.05789 0.0
C158 C 0.31076 0.13054 1.04062 0.0
C159 C 0.2883 0.12271 0.98556 0.0
C160 C 0.30403 1.08943 0.94726 0.0
C161 C 0.33689 1.05913 0.9672 0.0
C162 C 0.35914 1.06688 1.02207 0.0
C163 C 0.56937 0.21686 1.07765 0.0
O164 O 0.57456 0.21769 0.21635 0.0
O165 O 0.48474 0.17201 0.21583 0.0
O166 O 0.65099 0.13549 0.23423 0.0
O167 O 0.67225 0.16496 0.14787 0.0
O168 O 0.54589 0.09951 0.25608 0.0
O169 O 0.51331 1.07273 0.17639 0.0
O170 O 0.49819 1.07155 1.07465 0.0
O171 O 0.58919 0.09693 0.098 0.0
O172 O 0.42568 0.16753 0.09529 0.0
O173 O 0.40009 0.09099 0.13709 0.0
O174 O 0.53138 0.17997 1.05121 0.0
O175 O 0.5634 0.20684 0.13063 0.0
H176 H 0.71197 0.25859 0.21708 0.0
H177 H 0.78252 0.3104 0.28349 0.0
H178 H 0.84945 0.17999 0.29713 0.0
H179 H 0.7795 0.12855 0.22992 0.0
H180 H 0.3022 0.15995 1.06791 0.0
H181 H 0.26246 0.14593 0.97141 0.0
H182 H 0.35007 1.03342 0.93861 0.0
H183 H 0.3883 1.04667 1.03458 0.0
Ho184 Ho 0.49759 0.59801 0.58552 0.0
Ho185 Ho 0.51483 0.68238 0.65827 0.0
C186 C 0.54674 0.58942 0.71391 0.0
C187 C 0.52154 0.52346 0.53144 0.0
C188 C 0.57115 0.50749 0.54185 0.0
C189 C 0.61756 0.54364 0.56766 0.0
C190 C 0.6628 0.52797 0.58373 0.0
C191 C 0.66324 0.47593 0.57336 0.0
C192 C 0.61751 0.4403 0.54544 0.0
C193 C 0.57159 0.45575 0.53055 0.0
C194 C 0.40151 0.58547 0.64501 0.0
C195 C 0.46758 0.69685 0.52965 0.0
C196 C 0.51505 0.76427 0.7183 0.0
C197 C 0.52432 0.82015 0.70341 0.0
C198 C 0.52314 0.85677 0.74596 0.0
C199 C 0.52398 0.90811 0.73077 0.0
C200 C 0.52557 0.92297 0.6729 0.0
C201 C 0.53045 0.88735 0.6307 0.0
C202 C 0.53056 0.83641 0.64597 0.0
C203 C 0.60858 0.68816 0.59668 0.0
O204 O 0.54957 0.5788 0.65893 0.0
O205 O 0.52456 0.62633 0.72716 0.0
O206 O 0.4864 0.51397 0.5734 0.0
O207 O 0.53062 0.57112 0.51055 0.0
O208 O 0.40484 0.57726 0.59056 0.0
O209 O 0.45041 0.60185 0.66556 0.0
O210 O 0.47566 0.71429 0.58304 0.0
O211 O 0.47499 0.6506 0.51777 0.0
O212 O 0.55778 0.74778 0.71325 0.0
O213 O 0.47038 0.73076 0.69677 0.0
O214 O 0.60724 0.69604 0.65104 0.0
O215 O 0.55984 0.67695 0.5781 0.0
H216 H 0.61854 0.58399 0.57642 0.0
H217 H 0.69725 0.55656 0.60479 0.0
H218 H 0.61733 0.40058 0.53443 0.0
H219 H 0.53659 0.42721 0.51044 0.0
H220 H 0.51888 0.84492 0.79054 0.0
H221 H 0.51917 0.93483 0.76383 0.0
H222 H 0.53114 0.89798 0.58587 0.0
H223 H 0.53279 0.80895 0.6127 0.0
Ho224 Ho 1.00547 0.59142 0.16362 0.0
Ho225 Ho 1.00302 0.67285 0.09271 0.0
C226 C 0.11414 0.69007 0.15899 0.0
C227 C 0.04066 0.52019 0.21353 0.0
C228 C 0.0907 0.50492 0.20178 0.0
C229 C 0.12084 0.52143 0.1511 0.0
C230 C 0.17058 0.51068 0.14189 0.0
C231 C 0.1912 0.48307 0.18322 0.0
C232 C 0.16023 0.46561 0.23334 0.0
C233 C 0.11067 0.47659 0.24258 0.0
C234 C 0.96165 0.66212 0.22304 0.0
C235 C 0.89349 0.5688 0.09756 0.0
C236 C 0.97485 0.74512 1.03647 0.0
C237 C 0.92101 0.75302 1.02569 0.0
C238 C 0.87967 0.7403 1.06771 0.0
C239 C 0.82888 0.7482 1.05713 0.0
C240 C 0.81832 0.76824 1.00416 0.0
C241 C 0.85906 0.77955 0.96164 0.0
C242 C 0.91011 0.77217 0.97242 0.0
C243 C 0.0556 0.61007 1.03604 0.0
O244 O 0.09533 0.63808 0.15646 0.0
O245 O 0.08214 0.71691 0.13952 0.0
O246 O 0.04957 0.56803 0.23326 0.0
O247 O 1.00287 0.50906 0.17385 0.0
O248 O 0.94556 0.61044 0.22726 0.0
O249 O 1.0018 0.67349 0.18804 0.0
O250 O 0.91223 0.62119 0.09262 0.0
O251 O 0.92556 0.54435 0.12141 0.0
O252 O 0.98221 0.70364 1.01251 0.0
O253 O 0.9925 0.75084 0.0891 0.0
O254 O 0.07108 0.66166 1.03714 0.0
O255 O 1.01239 0.59365 1.06741 0.0
H256 H 0.10661 0.54392 0.11926 0.0
H257 H 0.19308 0.52433 0.10271 0.0
H258 H 0.17519 0.44466 0.26628 0.0
H259 H 0.08847 0.4638 0.28213 0.0
H260 H 0.88671 0.72456 0.10884 0.0
H261 H 0.79791 0.73891 0.09038 0.0
H262 H 0.85189 0.79539 0.92059 0.0
H263 H 0.94121 0.78171 0.9393 0.0
C264 C 0.37812 0.31975 0.30562 0.0
C265 C 0.41366 0.36892 0.32469 0.0
C266 C 0.34061 0.28568 0.34224 0.0
C267 C 0.33519 0.30119 0.39837 0.0
H268 H 0.37338 0.31078 0.2606 0.0
H269 H 0.31008 0.25139 0.32385 0.0
S270 S 0.42522 0.41974 0.4723 0.0
N271 N 0.44908 0.42566 0.40622 0.0
N272 N 0.37395 0.36335 0.47477 0.0
C273 C 0.37487 0.34648 0.42021 0.0
C274 C 0.41514 0.38017 0.38322 0.0
C275 C 0.30141 1.05215 0.7932 0.0
C276 C 0.33038 0.10138 0.76867 0.0
C277 C 0.28518 1.0488 0.8505 0.0
C278 C 0.29812 0.09465 0.88474 0.0
H279 H 0.29667 1.01582 0.76974 0.0
H280 H 0.26787 1.00979 0.86964 0.0
S281 S 0.36423 0.23357 0.8356 0.0
N282 N 0.36349 0.19688 0.77856 0.0
N283 N 0.33399 0.1915 0.88678 0.0
C284 C 0.32078 0.14461 0.85815 0.0
C285 C 0.3369 0.14773 0.79977 0.0
C286 C 0.59858 0.55648 0.86133 0.0
C287 C 0.61199 0.5093 0.85218 0.0
C288 C 0.57751 0.58152 0.81696 0.0
C289 C 0.5693 0.56128 0.76056 0.0
H290 H 0.60423 0.57413 0.90346 0.0
H291 H 0.568 0.61755 0.82707 0.0
S292 S 0.59836 0.43873 0.71359 0.0
N293 N 0.61574 0.4436 0.7819 0.0
N294 N 0.57659 0.48996 0.69916 0.0
C295 C 0.58278 0.51407 0.75094 0.0
C296 C 0.60382 0.48837 0.79634 0.0
C297 C 0.91876 0.77589 0.30141 0.0
C298 C 0.92225 0.7661 0.36104 0.0
C299 C 0.93405 0.74476 0.25774 0.0
C300 C 0.95179 0.69993 0.27023 0.0
H301 H 0.90075 0.80604 0.2881 0.0
H302 H 0.92884 0.75424 0.21344 0.0
S303 S 0.96933 0.65614 0.41852 0.0
N304 N 0.94756 0.708 0.42843 0.0
N305 N 0.97322 0.64952 0.34864 0.0
C306 C 0.95658 0.69054 0.32948 0.0
C307 C 0.94277 0.72317 0.37366 0.0
C308 C 0.45567 0.31823 0.19015 0.0
C309 C 0.48022 0.36124 0.2264 0.0
C310 C 0.46958 0.27132 0.19362 0.0
C311 C 0.50975 0.26542 0.2322 0.0
H312 H 0.42215 0.31893 0.16214 0.0
H313 H 0.44803 0.23914 0.16584 0.0
S314 S 0.58987 0.368 0.33323 0.0
N315 N 0.54827 0.39604 0.30087 0.0
N316 N 0.57684 0.30825 0.30479 0.0
C317 C 0.5369 0.30902 0.26666 0.0
C318 C 0.52158 0.35669 0.26429 0.0
C319 C 0.25239 1.06914 0.6551 0.0
C320 C 0.30023 0.11268 0.64745 0.0
C321 C 0.20084 1.07201 0.6379 0.0
C322 C 0.19614 0.11847 0.61256 0.0
H323 H 0.25516 1.03271 0.67411 0.0
H324 H 0.16464 1.03772 0.64399 0.0
S325 S 0.30923 0.24284 0.58288 0.0
N326 N 0.34001 0.20313 0.61327 0.0
N327 N 0.24296 0.20858 0.58004 0.0
C328 C 0.24366 0.16214 0.6045 0.0
C329 C 0.29596 0.1592 0.62218 0.0
C330 C 0.74335 0.53553 1.04511 0.0
C331 C 0.73376 0.48802 1.01347 0.0
C332 C 0.79396 0.56031 1.07331 0.0
C333 C 0.83735 0.53799 1.0734 0.0
H334 H 0.71235 0.55558 1.04504 0.0
H335 H 0.79958 0.59812 0.09412 0.0
S336 S 0.83252 0.4116 1.00154 0.0
N337 N 0.77191 0.4186 0.98641 0.0
N338 N 0.86532 0.46287 1.04195 0.0
C339 C 0.82697 0.48848 1.04538 0.0
C340 C 0.77576 0.46403 1.01514 0.0
C341 C 0.70769 0.73107 0.46762 0.0
C342 C 0.7606 0.74266 0.49249 0.0
C343 C 0.65886 0.71221 0.50087 0.0
C344 C 0.66061 0.7047 0.56073 0.0
H345 H 0.7041 0.73797 0.42235 0.0
H346 H 0.61943 0.7048 0.47965 0.0
S347 S 0.78882 0.72627 0.64594 0.0
N348 N 0.81124 0.74258 0.58017 0.0
N349 N 0.72089 0.70829 0.64225 0.0
C350 C 0.71339 0.71499 0.58555 0.0
C351 C 0.76279 0.73369 0.55171 0.0
C352 C 0.30172 0.41507 0.19298 0.0
C353 C 0.35096 0.45777 0.18847 0.0
C354 C 0.25011 0.42298 0.18763 0.0
C355 C 0.24565 0.47373 0.17619 0.0
H356 H 0.30333 0.37626 0.20606 0.0
H357 H 0.21344 0.38962 0.19545 0.0
S358 S 0.36274 0.59666 0.15088 0.0
N359 N 0.39246 0.55107 0.16637 0.0
N360 N 0.29565 0.56581 0.15231 0.0
C361 C 0.29474 0.51558 0.16555 0.0
C362 C 0.34736 0.50764 0.17267 0.0
C363 C 0.62741 0.32781 0.96528 0.0
C364 C 0.6389 0.37615 0.99583 0.0
C365 C 0.60656 0.27731 0.99211 0.0
C366 C 0.59727 0.27174 1.05156 0.0
H367 H 0.63263 0.32908 0.91937 0.0
H368 H 0.59666 0.24213 0.9656 0.0
S369 S 0.62488 0.38517 0.15288 0.0
N370 N 0.6411 0.4144 0.09 0.0
N371 N 0.6055 0.32047 0.14078 0.0
C372 C 0.61178 0.31973 0.08329 0.0
C373 C 0.63177 0.37139 1.05556 0.0
C374 C 0.96777 0.88478 0.49689 0.0
C375 C 0.93938 0.87673 0.4436 0.0
C376 C 0.98959 0.93586 0.52327 0.0
C377 C 0.98569 0.98349 0.49811 0.0
H378 H 0.96812 0.85015 0.52151 0.0
H379 H 1.00808 0.93757 0.56523 0.0
S380 S 0.91963 0.98743 0.35667 0.0
N381 N 0.91152 0.92352 0.36601 0.0
N382 N 0.95402 1.01828 0.41306 0.0
C383 C 0.96104 0.97679 0.44294 0.0
C384 C 0.93804 0.92443 0.41654 0.0
C385 C 0.43413 1.00235 0.62839 0.0
C386 C 0.46151 1.05283 0.65082 0.0
C387 C 0.45799 0.96167 0.63108 0.0
C388 C 0.50969 0.96996 0.65682 0.0
H389 H 0.39186 0.99275 0.6139 0.0
H390 H 0.43358 0.92222 0.61794 0.0
S391 S 0.60183 0.09726 0.71312 0.0
N392 N 0.54627 0.11132 0.69144 0.0
N393 N 0.5904 1.03355 0.69912 0.0
C394 C 0.53951 1.02129 0.67504 0.0
C395 C 0.51563 1.06317 0.67107 0.0
C396 C 0.70961 0.86348 0.82103 0.0
C397 C 0.69898 0.88683 0.87149 0.0
C398 C 0.76256 0.87995 0.7969 0.0
C399 C 0.80604 0.91952 0.82333 0.0
H400 H 0.67685 0.83272 0.80033 0.0
H401 H 0.76957 0.86188 0.75742 0.0
S402 S 0.79707 0.99321 0.95548 0.0
N403 N 0.73445 0.95141 0.94633 0.0
N404 N 0.83388 0.98237 0.90183 0.0
C405 C 0.79534 0.94275 0.874 0.0
C406 C 0.74173 0.92639 0.89788 0.0
C407 C 0.89544 0.34553 0.40747 0.0
C408 C 0.86843 0.32079 0.45723 0.0
C409 C 0.88329 0.32032 0.35444 0.0
C410 C 0.84486 0.26933 0.35044 0.0
H411 H 0.92337 0.38581 0.40944 0.0
H412 H 0.90162 0.34172 0.3162 0.0
S413 S 0.76542 0.18736 0.46886 0.0
N414 N 0.80304 0.24288 0.49965 0.0
N415 N 0.78196 0.19402 0.40047 0.0
C416 C 0.82044 0.24298 0.4005 0.0
C417 C 0.83183 0.26912 0.45399 0.0
C418 C 0.44411 0.7528 0.37971 0.0
C419 C 0.42258 0.79494 0.39147 0.0
C420 C 0.45883 0.72207 0.42371 0.0
C421 C 0.45269 0.73119 0.48262 0.0
H422 H 0.44635 0.74124 0.33569 0.0
H423 H 0.47407 0.68993 0.41118 0.0
S424 S 0.39631 0.83538 0.53732 0.0
N425 N 0.39512 0.84282 0.46727 0.0
N426 N 0.42292 0.78689 0.54913 0.0
C427 C 0.43245 0.77414 0.49488 0.0
C428 C 0.41744 0.80522 0.44995 0.0
C429 C 0.09588 0.50047 0.94802 0.0
C430 C 0.11613 0.52573 0.89514 0.0
C431 C 0.07462 0.52622 0.99226 0.0
C432 C 0.07326 0.57936 0.98707 0.0
H433 H 0.0974 0.46063 0.95586 0.0
H434 H 0.06043 0.50457 1.0315 0.0
S435 S 0.11406 0.66119 0.85488 0.0
N436 N 0.12644 0.60534 0.83894 0.0
N437 N 0.09064 0.65385 0.92105 0.0
C438 C 0.09183 0.60407 0.93365 0.0
C439 C 0.11198 0.57751 0.8884 0.0
C440 C 0.60911 0.9636 1.01535 0.0
C441 C 0.56914 0.93288 0.97747 0.0
C442 C 0.60222 1.00778 1.04266 0.0
C443 C 0.55494 1.02321 1.03319 0.0
H444 H 0.6464 0.9535 1.02336 0.0
H445 H 0.63402 1.02937 1.07221 0.0
S446 S 0.43978 0.95743 0.93446 0.0
N447 N 0.4822 0.92162 0.92926 0.0
N448 N 0.46824 1.00495 0.98102 0.0
C449 C 0.51485 0.99314 0.99451 0.0
C450 C 0.52224 0.94798 0.96645 0.0
C451 C 0.88151 0.25616 0.61605 0.0
C452 C 0.9056 0.29248 0.57216 0.0
C453 C 0.89735 0.21066 0.6259 0.0
C454 C 0.93523 0.19755 0.59006 0.0
H455 H 0.84971 0.2624 0.64273 0.0
H456 H 0.8797 0.18542 0.66205 0.0
S457 S 1.00425 0.27527 0.4643 0.0
N458 N 0.97025 0.3122 0.49324 0.0
N459 N 0.99029 0.22092 0.50406 0.0
C460 C 0.95625 0.23117 0.54341 0.0
C461 C 0.944 0.28 0.5365 0.0
C462 C 0.23498 0.7954 0.23193 0.0
C463 C 0.26784 0.76554 0.25364 0.0
C464 C 0.18648 0.77139 0.19997 0.0
C465 C 0.16814 0.71624 0.18905 0.0
H466 H 0.24713 0.83781 0.23956 0.0
H467 H 0.1628 0.7962 0.1845 0.0
S468 S 0.23753 0.61998 0.24075 0.0
N469 N 0.27814 0.67814 0.26275 0.0
N470 N 0.1864 0.63238 0.20632 0.0
C471 C 0.20035 0.68599 0.21186 0.0
C472 C 0.25007 0.71068 0.24328 0.0
C473 C 0.30165 0.50815 0.76466 0.0
C474 C 0.24817 0.50317 0.74349 0.0
C475 C 0.35058 0.53488 0.73361 0.0
C476 C 0.34903 0.55781 0.67906 0.0
H477 H 0.30576 0.49311 0.80699 0.0
H478 H 0.39006 0.53769 0.75275 0.0
S479 S 0.22025 0.55773 0.60431 0.0
N480 N 0.19796 0.52602 0.66481 0.0
N481 N 0.2881 0.5729 0.60566 0.0
C482 C 0.29578 0.55204 0.65697 0.0
C483 C 0.24618 0.52582 0.68914 0.0
C484 C 0.68652 0.77501 0.9335 0.0
C485 C 0.67293 0.81337 0.96641 0.0
C486 C 0.73255 0.75895 0.94701 0.0
C487 C 0.76628 0.78056 0.9942 0.0
H488 H 0.66291 0.75946 0.89538 0.0
H489 H 0.74277 0.73063 0.91949 0.0
S490 S 0.74955 0.8834 0.09287 0.0
N491 N 0.69773 0.87328 1.04743 0.0
N492 N 0.78317 0.84215 1.07373 0.0
C493 C 0.75213 0.81763 1.0285 0.0
C494 C 0.70566 0.83427 1.01444 0.0
C495 C 0.43186 0.94107 0.32436 0.0
C496 C 0.44582 0.89788 0.30067 0.0
C497 C 0.4533 0.99386 0.30252 0.0
C498 C 0.48852 1.0061 0.25451 0.0
H499 H 0.40044 0.93315 0.35706 0.0
H500 H 0.43974 1.02483 0.32153 0.0
S501 S 0.54354 0.90975 0.18047 0.0
N502 N 0.50286 0.87352 0.23026 0.0
N503 N 0.54077 0.9709 0.18799 0.0
C504 C 0.50558 0.96417 0.23278 0.0
C505 C 0.48525 0.91098 0.2563 0.0
C506 C 0.1551 0.34913 0.77029 0.0
C507 C 0.14584 0.39539 0.74755 0.0
C508 C 0.13726 0.29869 0.74189 0.0
C509 C 0.1086 0.29095 0.68886 0.0
H510 H 0.17528 0.35164 0.81143 0.0
H511 H 0.14575 0.26522 0.76217 0.0
S512 S 0.06879 0.39766 0.61299 0.0
N513 N 0.102 0.42808 0.67014 0.0
N514 N 0.07031 0.33581 0.61664 0.0
C515 C 0.09886 0.33708 0.66599 0.0
C516 C 0.11665 0.38815 0.6952 0.0
C517 C 0.81214 0.47723 0.57867 0.0
C518 C 0.80705 0.42449 0.5936 0.0
C519 C 0.76577 0.4947 0.57571 0.0
C520 C 0.7127 0.46004 0.58816 0.0
H521 H 0.85124 0.50321 0.5632 0.0
H522 H 0.77115 0.53425 0.55908 0.0
S523 S 0.67986 0.32123 0.64105 0.0
N524 N 0.74673 0.34005 0.62841 0.0
N525 N 0.65976 0.3733 0.62587 0.0
C526 C 0.7083 0.40908 0.60957 0.0
C527 C 0.75552 0.39131 0.61198 0.0
loop_
_geom_bond_atom_site_label_1
_geom_bond_atom_site_label_2
_geom_bond_distance
_geom_bond_site_symmetry_2
_ccdc_geom_bond_type
C0 N1 1.317 . S
C0 N2 1.348 . S
C0 C3 1.485 . S
N1 C0 1.317 . S
N1 N5 1.370 . S
N2 C0 1.348 . S
N2 C4 1.346 . S
C3 C0 1.485 . S
C3 H7 0.960 . S
C3 H8 0.961 . S
C3 H9 0.960 . S
C4 N2 1.346 . S
C4 N5 1.307 . S
C4 C6 1.486 . S
N5 N1 1.370 . S
N5 C4 1.307 . S
C6 C4 1.486 . S
C6 H10 0.960 . S
C6 H11 0.960 . S
C6 H12 0.959 . S
H7 C3 0.960 . S
H8 C3 0.961 . S
H9 C3 0.960 . S
H10 C6 0.960 . S
H11 C6 0.960 . S
H12 C6 0.959 . S
C13 N14 1.317 . S
C13 N15 1.348 . S
C13 C16 1.485 . S
N14 C13 1.317 . S
N14 N18 1.370 . S
N15 C13 1.348 . S
N15 C17 1.346 . S
C16 C13 1.485 . S
C16 H20 0.960 . S
C16 H21 0.961 . S
C16 H22 0.960 . S
C17 N15 1.346 . S
C17 N18 1.307 . S
C17 C19 1.486 . S
N18 N14 1.370 . S
N18 C17 1.307 . S
C19 C17 1.486 . S
C19 H23 0.960 . S
C19 H24 0.960 . S
C19 H25 0.959 . S
H20 C16 0.960 . S
H21 C16 0.961 . S
H22 C16 0.960 . S
H23 C19 0.960 . S
H24 C19 0.960 . S
H25 C19 0.959 . S
C26 N27 1.317 . S
C26 N28 1.348 . S
C26 C29 1.485 . S
N27 C26 1.317 . S
N27 N31 1.370 . S
N28 C26 1.348 . S
N28 C30 1.346 . S
C29 C26 1.485 . S
C29 H33 0.960 . S
C29 H34 0.961 . S
C29 H35 0.960 . S
C30 N28 1.346 . S
C30 N31 1.307 . S
C30 C32 1.486 . S
N31 N27 1.370 . S
N31 C30 1.307 . S
C32 C30 1.486 . S
C32 H36 0.960 . S
C32 H37 0.960 . S
C32 H38 0.959 . S
H33 C29 0.960 . S
H34 C29 0.961 . S
H35 C29 0.960 . S
H36 C32 0.960 . S
H37 C32 0.960 . S
H38 C32 0.959 . S
C39 N40 1.317 . S
C39 N41 1.348 . S
C39 C42 1.485 . S
N40 C39 1.317 . S
N40 N44 1.370 . S
N41 C39 1.348 . S
N41 C43 1.346 . S
C42 C39 1.485 . S
C42 H46 0.960 . S
C42 H47 0.961 . S
C42 H48 0.960 . S
C43 N41 1.346 . S
C43 N44 1.307 . S
C43 C45 1.486 . S
N44 N40 1.370 . S
N44 C43 1.307 . S
C45 C43 1.486 . S
C45 H49 0.960 . S
C45 H50 0.960 . S
C45 H51 0.959 . S
H46 C42 0.960 . S
H47 C42 0.961 . S
H48 C42 0.960 . S
H49 C45 0.960 . S
H50 C45 0.960 . S
H51 C45 0.959 . S
C52 N53 1.317 . S
C52 N54 1.348 . S
C52 C55 1.485 . S
N53 C52 1.317 . S
N53 N57 1.370 . S
N54 C52 1.348 . S
N54 C56 1.346 . S
C55 C52 1.485 . S
C55 H59 0.960 . S
C55 H60 0.961 . S
C55 H61 0.960 . S
C56 N54 1.346 . S
C56 N57 1.307 . S
C56 C58 1.486 . S
N57 N53 1.370 . S
N57 C56 1.307 . S
C58 C56 1.486 . S
C58 H62 0.960 . S
C58 H63 0.960 . S
C58 H64 0.959 . S
H59 C55 0.960 . S
H60 C55 0.961 . S
H61 C55 0.960 . S
H62 C58 0.960 . S
H63 C58 0.960 . S
H64 C58 0.959 . S
C65 N66 1.317 . S
C65 N67 1.348 . S
C65 C68 1.485 . S
N66 C65 1.317 . S
N66 N70 1.370 . S
N67 C65 1.348 . S
N67 C69 1.346 . S
C68 C65 1.485 . S
C68 H72 0.960 . S
C68 H73 0.961 . S
C68 H74 0.960 . S
C69 N67 1.346 . S
C69 N70 1.307 . S
C69 C71 1.486 . S
N70 N66 1.370 . S
N70 C69 1.307 . S
C71 C69 1.486 . S
C71 H75 0.960 . S
C71 H76 0.960 . S
C71 H77 0.959 . S
H72 C68 0.960 . S
H73 C68 0.961 . S
H74 C68 0.960 . S
H75 C71 0.960 . S
H76 C71 0.960 . S
H77 C71 0.959 . S
C78 N79 1.317 . S
C78 N80 1.348 . S
C78 C81 1.485 . S
N79 C78 1.317 . S
N79 N83 1.370 . S
N80 C78 1.348 . S
N80 C82 1.346 . S
C81 C78 1.485 . S
C81 H85 0.960 . S
C81 H86 0.961 . S
C81 H87 0.960 . S
C82 N80 1.346 . S
C82 N83 1.307 . S
C82 C84 1.486 . S
N83 N79 1.370 . S
N83 C82 1.307 . S
C84 C82 1.486 . S
C84 H88 0.960 . S
C84 H89 0.960 . S
C84 H90 0.959 . S
H85 C81 0.960 . S
H86 C81 0.961 . S
H87 C81 0.960 . S
H88 C84 0.960 . S
H89 C84 0.960 . S
H90 C84 0.959 . S
C91 N92 1.317 . S
C91 N93 1.348 . S
C91 C94 1.485 . S
N92 C91 1.317 . S
N92 N96 1.370 . S
N93 C91 1.348 . S
N93 C95 1.346 . S
C94 C91 1.485 . S
C94 H98 0.960 . S
C94 H99 0.961 . S
C94 H100 0.960 . S
C95 N93 1.346 . S
C95 N96 1.307 . S
C95 C97 1.486 . S
N96 N92 1.370 . S
N96 C95 1.307 . S
C97 C95 1.486 . S
C97 H101 0.960 . S
C97 H102 0.960 . S
C97 H103 0.959 . S
H98 C94 0.960 . S
H99 C94 0.961 . S
H100 C94 0.960 . S
H101 C97 0.960 . S
H102 C97 0.960 . S
H103 C97 0.959 . S
Ho104 C107 2.811 . S
Ho104 O124 2.322 . S
Ho104 O126 2.378 . S
Ho104 O127 2.524 . S
Ho104 O128 2.381 . S
Ho104 O129 2.669 . S
Ho104 O131 2.346 1_545 S
Ho104 O135 2.305 . S
Ho105 C116 2.811 1_545 S
Ho105 O125 2.346 1_655 S
Ho105 O129 2.305 1_655 S
Ho105 O130 2.322 1_545 S
Ho105 O132 2.378 1_545 S
Ho105 O133 2.524 1_545 S
Ho105 O134 2.381 . S
Ho105 O135 2.669 1_655 S
C106 O124 1.259 . S
C106 O125 1.268 . S
C107 Ho104 2.811 . S
C107 C108 1.488 . S
C107 O126 1.215 . S
C107 O127 1.289 . S
C108 C107 1.488 . S
C108 C109 1.348 . S
C108 C113 1.413 . S
C109 C108 1.348 . S
C109 C110 1.442 . S
C109 H136 0.930 . S
C110 C109 1.442 . S
C110 C111 1.381 . S
C110 H137 0.931 . S
C111 C110 1.381 . S
C111 C112 1.321 . S
C112 C111 1.321 . S
C112 C113 1.403 . S
C112 H138 0.934 . S
C113 C108 1.413 . S
C113 C112 1.403 . S
C113 H139 0.930 . S
C114 O128 1.275 1_565 S
C114 O129 1.256 1_565 S
C115 O130 1.259 . S
C115 O131 1.268 1_655 S
C116 Ho105 2.811 1_565 S
C116 C117 1.488 . S
C116 O132 1.215 . S
C116 O133 1.289 . S
C117 C116 1.488 . S
C117 C118 1.348 . S
C117 C122 1.413 . S
C118 C117 1.348 . S
C118 C119 1.442 . S
C118 H140 0.930 . S
C119 C118 1.442 . S
C119 C120 1.381 . S
C119 H141 0.931 . S
C120 C119 1.381 . S
C120 C121 1.321 . S
C121 C120 1.321 . S
C121 C122 1.403 . S
C121 H142 0.934 . S
C122 C117 1.413 . S
C122 C121 1.403 . S
C122 H143 0.930 . S
C123 O134 1.275 . S
C123 O135 1.256 1_655 S
O124 Ho104 2.322 . S
O124 C106 1.259 . S
O125 Ho105 2.346 1_455 S
O125 C106 1.268 . S
O126 Ho104 2.378 . S
O126 C107 1.215 . S
O127 Ho104 2.524 . S
O127 C107 1.289 . S
O128 Ho104 2.381 . S
O128 C114 1.275 1_545 S
O129 Ho104 2.669 . S
O129 Ho105 2.305 1_455 S
O129 C114 1.256 1_545 S
O130 Ho105 2.322 1_565 S
O130 C115 1.259 . S
O131 Ho104 2.346 1_565 S
O131 C115 1.268 1_455 S
O132 Ho105 2.378 1_565 S
O132 C116 1.215 . S
O133 Ho105 2.524 1_565 S
O133 C116 1.289 . S
O134 Ho105 2.381 . S
O134 C123 1.275 . S
O135 Ho104 2.305 . S
O135 Ho105 2.669 1_455 S
O135 C123 1.256 1_455 S
H136 C109 0.930 . S
H137 C110 0.931 . S
H138 C112 0.934 . S
H139 C113 0.930 . S
H140 C118 0.930 . S
H141 C119 0.931 . S
H142 C121 0.934 . S
H143 C122 0.930 . S
Ho144 C147 2.811 . S
Ho144 O164 2.322 . S
Ho144 O166 2.378 . S
Ho144 O167 2.524 . S
Ho144 O168 2.381 1_545 S
Ho144 O169 2.669 . S
Ho144 O171 2.346 . S
Ho144 O175 2.305 . S
Ho145 C156 2.811 1_554 S
Ho145 O165 2.346 . S
Ho145 O169 2.305 . S
Ho145 O170 2.322 1_554 S
Ho145 O172 2.378 1_554 S
Ho145 O173 2.524 1_544 S
Ho145 O174 2.381 1_554 S
Ho145 O175 2.669 . S
C146 O164 1.259 . S
C146 O165 1.268 . S
C147 Ho144 2.811 . S
C147 C148 1.488 . S
C147 O166 1.215 . S
C147 O167 1.289 . S
C148 C147 1.488 . S
C148 C149 1.348 . S
C148 C153 1.413 . S
C149 C148 1.348 . S
C149 C150 1.442 . S
C149 H176 0.930 . S
C150 C149 1.442 . S
C150 C151 1.381 . S
C150 H177 0.931 . S
C151 C150 1.381 . S
C151 C152 1.321 . S
C152 C151 1.321 . S
C152 C153 1.403 . S
C152 H178 0.934 . S
C153 C148 1.413 . S
C153 C152 1.403 . S
C153 H179 0.930 . S
C154 O168 1.275 . S
C154 O169 1.256 1_565 S
C155 O170 1.259 . S
C155 O171 1.268 1_556 S
C156 Ho145 2.811 1_556 S
C156 C157 1.488 1_545 S
C156 O172 1.215 . S
C156 O173 1.289 1_545 S
C157 C156 1.488 1_565 S
C157 C158 1.348 . S
C157 C162 1.413 1_565 S
C158 C157 1.348 . S
C158 C159 1.442 . S
C158 H180 0.930 . S
C159 C158 1.442 . S
C159 C160 1.381 . S
C159 H181 0.931 . S
C160 C159 1.381 . S
C160 C161 1.321 . S
C161 C160 1.321 . S
C161 C162 1.403 1_565 S
C161 H182 0.934 . S
C162 C157 1.413 1_545 S
C162 C161 1.403 1_545 S
C162 H183 0.930 . S
C163 O174 1.275 1_554 S
C163 O175 1.256 . S
O164 Ho144 2.322 . S
O164 C146 1.259 . S
O165 Ho145 2.346 . S
O165 C146 1.268 . S
O166 Ho144 2.378 . S
O166 C147 1.215 . S
O167 Ho144 2.524 . S
O167 C147 1.289 . S
O168 Ho144 2.381 1_565 S
O168 C154 1.275 . S
O169 Ho144 2.669 . S
O169 Ho145 2.305 . S
O169 C154 1.256 1_545 S
O170 Ho145 2.322 1_556 S
O170 C155 1.259 . S
O171 Ho144 2.346 . S
O171 C155 1.268 1_554 S
O172 Ho145 2.378 1_556 S
O172 C156 1.215 . S
O173 Ho145 2.524 1_566 S
O173 C156 1.289 1_565 S
O174 Ho145 2.381 1_556 S
O174 C163 1.275 1_556 S
O175 Ho144 2.305 . S
O175 Ho145 2.669 . S
O175 C163 1.256 . S
H176 C149 0.930 . S
H177 C150 0.931 . S
H178 C152 0.934 . S
H179 C153 0.930 . S
H180 C158 0.930 . S
H181 C159 0.931 . S
H182 C161 0.934 . S
H183 C162 0.930 . S
Ho184 C187 2.811 . S
Ho184 O204 2.322 . S
Ho184 O206 2.378 . S
Ho184 O207 2.524 . S
Ho184 O208 2.381 . S
Ho184 O209 2.669 . S
Ho184 O211 2.346 . S
Ho184 O215 2.305 . S
Ho185 C196 2.811 . S
Ho185 O205 2.346 . S
Ho185 O209 2.305 . S
Ho185 O210 2.322 . S
Ho185 O212 2.378 . S
Ho185 O213 2.524 . S
Ho185 O214 2.381 . S
Ho185 O215 2.669 . S
C186 O204 1.259 . S
C186 O205 1.268 . S
C187 Ho184 2.811 . S
C187 C188 1.488 . S
C187 O206 1.215 . S
C187 O207 1.289 . S
C188 C187 1.488 . S
C188 C189 1.348 . S
C188 C193 1.413 . S
C189 C188 1.348 . S
C189 C190 1.442 . S
C189 H216 0.930 . S
C190 C189 1.442 . S
C190 C191 1.381 . S
C190 H217 0.931 . S
C191 C190 1.381 . S
C191 C192 1.321 . S
C192 C191 1.321 . S
C192 C193 1.403 . S
C192 H218 0.934 . S
C193 C188 1.413 . S
C193 C192 1.403 . S
C193 H219 0.930 . S
C194 O208 1.275 . S
C194 O209 1.256 . S
C195 O210 1.259 . S
C195 O211 1.268 . S
C196 Ho185 2.811 . S
C196 C197 1.488 . S
C196 O212 1.215 . S
C196 O213 1.289 . S
C197 C196 1.488 . S
C197 C198 1.348 . S
C197 C202 1.413 . S
C198 C197 1.348 . S
C198 C199 1.442 . S
C198 H220 0.930 . S
C199 C198 1.442 . S
C199 C200 1.381 . S
C199 H221 0.931 . S
C200 C199 1.381 . S
C200 C201 1.321 . S
C201 C200 1.321 . S
C201 C202 1.403 . S
C201 H222 0.934 . S
C202 C197 1.413 . S
C202 C201 1.403 . S
C202 H223 0.930 . S
C203 O214 1.275 . S
C203 O215 1.256 . S
O204 Ho184 2.322 . S
O204 C186 1.259 . S
O205 Ho185 2.346 . S
O205 C186 1.268 . S
O206 Ho184 2.378 . S
O206 C187 1.215 . S
O207 Ho184 2.524 . S
O207 C187 1.289 . S
O208 Ho184 2.381 . S
O208 C194 1.275 . S
O209 Ho184 2.669 . S
O209 Ho185 2.305 . S
O209 C194 1.256 . S
O210 Ho185 2.322 . S
O210 C195 1.259 . S
O211 Ho184 2.346 . S
O211 C195 1.268 . S
O212 Ho185 2.378 . S
O212 C196 1.215 . S
O213 Ho185 2.524 . S
O213 C196 1.289 . S
O214 Ho185 2.381 . S
O214 C203 1.275 . S
O215 Ho184 2.305 . S
O215 Ho185 2.669 . S
O215 C203 1.256 . S
H216 C189 0.930 . S
H217 C190 0.931 . S
H218 C192 0.934 . S
H219 C193 0.930 . S
H220 C198 0.930 . S
H221 C199 0.931 . S
H222 C201 0.934 . S
H223 C202 0.930 . S
Ho224 C227 2.811 . S
Ho224 O244 2.322 . S
Ho224 O246 2.378 . S
Ho224 O247 2.524 . S
Ho224 O248 2.381 1_455 S
Ho224 O249 2.669 1_455 S
Ho224 O251 2.346 1_455 S
Ho224 O255 2.305 1_554 S
Ho225 C236 2.813 1_455 S
Ho225 O245 2.344 1_556 S
Ho225 O249 2.305 1_456 S
Ho225 O250 2.323 1_455 S
Ho225 O252 2.379 1_455 S
Ho225 O253 2.526 1_455 S
Ho225 O254 2.380 . S
Ho225 O255 2.668 . S
C226 O244 1.259 . S
C226 O245 1.268 . S
C227 Ho224 2.811 . S
C227 C228 1.488 . S
C227 O246 1.215 . S
C227 O247 1.289 . S
C228 C227 1.488 . S
C228 C229 1.348 . S
C228 C233 1.413 . S
C229 C228 1.348 . S
C229 C230 1.442 . S
C229 H256 0.930 . S
C230 C229 1.442 . S
C230 C231 1.381 . S
C230 H257 0.931 . S
C231 C230 1.381 . S
C231 C232 1.321 . S
C232 C231 1.321 . S
C232 C233 1.403 . S
C232 H258 0.934 . S
C233 C228 1.413 . S
C233 C232 1.403 . S
C233 H259 0.930 . S
C234 O248 1.275 . S
C234 O249 1.256 . S
C235 O250 1.259 . S
C235 O251 1.268 1_556 S
C236 Ho225 2.813 1_655 S
C236 C237 1.488 . S
C236 O252 1.215 . S
C236 O253 1.289 . S
C237 C236 1.488 . S
C237 C238 1.348 . S
C237 C242 1.413 . S
C238 C237 1.348 . S
C238 C239 1.442 . S
C238 H260 0.930 . S
C239 C238 1.442 . S
C239 C240 1.381 . S
C239 H261 0.931 . S
C240 C239 1.381 . S
C240 C241 1.321 . S
C241 C240 1.321 . S
C241 C242 1.403 . S
C241 H262 0.934 . S
C242 C237 1.413 . S
C242 C241 1.403 . S
C242 H263 0.930 . S
C243 O254 1.275 . S
C243 O255 1.256 . S
O244 Ho224 2.322 . S
O244 C226 1.259 . S
O245 Ho225 2.344 1_554 S
O245 C226 1.268 . S
O246 Ho224 2.378 . S
O246 C227 1.215 . S
O247 Ho224 2.524 . S
O247 C227 1.289 . S
O248 Ho224 2.381 1_655 S
O248 C234 1.275 . S
O249 Ho224 2.669 1_655 S
O249 Ho225 2.305 1_654 S
O249 C234 1.256 . S
O250 Ho225 2.323 1_655 S
O250 C235 1.259 . S
O251 Ho224 2.346 1_655 S
O251 C235 1.268 1_554 S
O252 Ho225 2.379 1_655 S
O252 C236 1.215 . S
O253 Ho225 2.526 1_655 S
O253 C236 1.289 . S
O254 Ho225 2.380 . S
O254 C243 1.275 . S
O255 Ho224 2.305 1_556 S
O255 Ho225 2.668 . S
O255 C243 1.256 . S
H256 C229 0.930 . S
H257 C230 0.931 . S
H258 C232 0.934 . S
H259 C233 0.930 . S
H260 C238 0.930 . S
H261 C239 0.931 . S
H262 C241 0.934 . S
H263 C242 0.930 . S
C264 C265 1.369 . S
C264 C266 1.419 . S
C264 H268 0.930 . S
C265 C264 1.369 . S
C265 C274 1.429 . S
C266 C264 1.419 . S
C266 C267 1.363 . S
C266 H269 0.929 . S
C267 C266 1.363 . S
C267 C273 1.428 . S
H268 C264 0.930 . S
H269 C266 0.929 . S
S270 N271 1.613 . S
S270 N272 1.610 . S
N271 S270 1.613 . S
N271 C274 1.350 . S
N272 S270 1.610 . S
N272 C273 1.351 . S
C273 C267 1.428 . S
C273 N272 1.351 . S
C273 C274 1.434 . S
C274 C265 1.429 . S
C274 N271 1.350 . S
C274 C273 1.434 . S
C275 C276 1.369 . S
C275 C277 1.419 . S
C275 H279 0.930 . S
C276 C275 1.369 . S
C276 C285 1.429 . S
C277 C275 1.419 . S
C277 C278 1.363 . S
C277 H280 0.929 . S
C278 C277 1.363 . S
C278 C284 1.428 . S
H279 C275 0.930 . S
H280 C277 0.929 . S
S281 N282 1.613 . S
S281 N283 1.610 . S
N282 S281 1.613 . S
N282 C285 1.350 1_545 S
N283 S281 1.610 . S
N283 C284 1.351 1_545 S
C284 C278 1.428 . S
C284 N283 1.351 1_565 S
C284 C285 1.434 . S
C285 C276 1.429 . S
C285 N282 1.350 1_565 S
C285 C284 1.434 . S
C286 C287 1.369 . S
C286 C288 1.419 . S
C286 H290 0.930 . S
C287 C286 1.369 . S
C287 C296 1.429 . S
C288 C286 1.419 . S
C288 C289 1.363 . S
C288 H291 0.929 . S
C289 C288 1.363 . S
C289 C295 1.428 . S
H290 C286 0.930 . S
H291 C288 0.929 . S
S292 N293 1.613 . S
S292 N294 1.610 . S
N293 S292 1.613 . S
N293 C296 1.350 . S
N294 S292 1.610 . S
N294 C295 1.351 . S
C295 C289 1.428 . S
C295 N294 1.351 . S
C295 C296 1.434 . S
C296 C287 1.429 . S
C296 N293 1.350 . S
C296 C295 1.434 . S
C297 C298 1.369 . S
C297 C299 1.419 . S
C297 H301 0.930 . S
C298 C297 1.369 . S
C298 C307 1.429 . S
C299 C297 1.419 . S
C299 C300 1.363 . S
C299 H302 0.929 . S
C300 C299 1.363 . S
C300 C306 1.428 . S
H301 C297 0.930 . S
H302 C299 0.929 . S
S303 N304 1.613 1_455 S
S303 N305 1.610 . S
N304 S303 1.613 1_655 S
N304 C307 1.350 . S
N305 S303 1.610 . S
N305 C306 1.351 1_455 S
C306 C300 1.428 . S
C306 N305 1.351 1_655 S
C306 C307 1.434 . S
C307 C298 1.429 . S
C307 N304 1.350 . S
C307 C306 1.434 . S
C308 C309 1.369 . S
C308 C310 1.419 . S
C308 H312 0.930 . S
C309 C308 1.369 . S
C309 C318 1.429 . S
C310 C308 1.419 . S
C310 C311 1.363 . S
C310 H313 0.929 . S
C311 C310 1.363 . S
C311 C317 1.428 . S
H312 C308 0.930 . S
H313 C310 0.929 . S
S314 N315 1.613 . S
S314 N316 1.610 . S
N315 S314 1.613 . S
N315 C318 1.350 . S
N316 S314 1.610 . S
N316 C317 1.351 . S
C317 C311 1.428 . S
C317 N316 1.351 . S
C317 C318 1.434 . S
C318 C309 1.429 . S
C318 N315 1.350 . S
C318 C317 1.434 . S
C319 C320 1.369 . S
C319 C321 1.419 . S
C319 H323 0.930 . S
C320 C319 1.369 . S
C320 C329 1.429 . S
C321 C319 1.419 . S
C321 C322 1.363 . S
C321 H324 0.929 . S
C322 C321 1.363 . S
C322 C328 1.428 . S
H323 C319 0.930 . S
H324 C321 0.929 . S
S325 N326 1.613 1_545 S
S325 N327 1.610 . S
N326 S325 1.613 1_565 S
N326 C329 1.350 . S
N327 S325 1.610 . S
N327 C328 1.351 1_545 S
C328 C322 1.428 . S
C328 N327 1.351 1_565 S
C328 C329 1.434 . S
C329 C320 1.429 . S
C329 N326 1.350 . S
C329 C328 1.434 . S
C330 C331 1.369 . S
C330 C332 1.419 . S
C330 H334 0.930 . S
C331 C330 1.369 . S
C331 C340 1.429 . S
C332 C330 1.419 . S
C332 C333 1.363 . S
C332 H335 0.929 . S
C333 C332 1.363 . S
C333 C339 1.428 . S
H334 C330 0.930 . S
H335 C332 0.929 . S
S336 N337 1.613 . S
S336 N338 1.610 . S
N337 S336 1.613 . S
N337 C340 1.350 . S
N338 S336 1.610 . S
N338 C339 1.351 . S
C339 C333 1.428 . S
C339 N338 1.351 . S
C339 C340 1.434 . S
C340 C331 1.429 . S
C340 N337 1.350 . S
C340 C339 1.434 . S
C341 C342 1.369 . S
C341 C343 1.419 . S
C341 H345 0.930 . S
C342 C341 1.369 . S
C342 C351 1.429 . S
C343 C341 1.419 . S
C343 C344 1.363 . S
C343 H346 0.929 . S
C344 C343 1.363 . S
C344 C350 1.428 . S
H345 C341 0.930 . S
H346 C343 0.929 . S
S347 N348 1.613 . S
S347 N349 1.610 . S
N348 S347 1.613 . S
N348 C351 1.350 . S
N349 S347 1.610 . S
N349 C350 1.351 . S
C350 C344 1.428 . S
C350 N349 1.351 . S
C350 C351 1.434 . S
C351 C342 1.429 . S
C351 N348 1.350 . S
C351 C350 1.434 . S
C352 C353 1.369 . S
C352 C354 1.419 . S
C352 H356 0.930 . S
C353 C352 1.369 . S
C353 C362 1.429 . S
C354 C352 1.419 . S
C354 C355 1.363 . S
C354 H357 0.929 . S
C355 C354 1.363 . S
C355 C361 1.428 . S
H356 C352 0.930 . S
H357 C354 0.929 . S
S358 N359 1.613 . S
S358 N360 1.610 . S
N359 S358 1.613 . S
N359 C362 1.350 . S
N360 S358 1.610 . S
N360 C361 1.351 . S
C361 C355 1.428 . S
C361 N360 1.351 . S
C361 C362 1.434 . S
C362 C353 1.429 . S
C362 N359 1.350 . S
C362 C361 1.434 . S
C363 C364 1.369 . S
C363 C365 1.419 . S
C363 H367 0.930 . S
C364 C363 1.369 . S
C364 C373 1.429 . S
C365 C363 1.419 . S
C365 C366 1.363 . S
C365 H368 0.929 . S
C366 C365 1.363 . S
C366 C372 1.428 . S
H367 C363 0.930 . S
H368 C365 0.929 . S
S369 N370 1.593 1_554 S
S369 N371 1.610 . S
N370 S369 1.593 1_556 S
N370 C373 1.363 . S
N371 S369 1.610 . S
N371 C372 1.351 1_554 S
C372 C366 1.428 . S
C372 N371 1.351 1_556 S
C372 C373 1.434 . S
C373 C364 1.429 . S
C373 N370 1.363 . S
C373 C372 1.434 . S
C374 C375 1.369 . S
C374 C376 1.419 . S
C374 H378 0.930 . S
C375 C374 1.369 . S
C375 C384 1.429 . S
C376 C374 1.419 . S
C376 C377 1.363 . S
C376 H379 0.929 1_655 S
C377 C376 1.363 . S
C377 C383 1.428 . S
H378 C374 0.930 . S
H379 C376 0.929 1_455 S
S380 N381 1.613 . S
S380 N382 1.610 . S
N381 S380 1.613 . S
N381 C384 1.350 . S
N382 S380 1.610 . S
N382 C383 1.351 . S
C383 C377 1.428 . S
C383 N382 1.351 . S
C383 C384 1.434 . S
C384 C375 1.429 . S
C384 N381 1.350 . S
C384 C383 1.434 . S
C385 C386 1.369 . S
C385 C387 1.419 . S
C385 H389 0.930 . S
C386 C385 1.369 . S
C386 C395 1.429 . S
C387 C385 1.419 . S
C387 C388 1.363 . S
C387 H390 0.929 . S
C388 C387 1.363 . S
C388 C394 1.428 . S
H389 C385 0.930 . S
H390 C387 0.929 . S
S391 N392 1.613 . S
S391 N393 1.610 . S
N392 S391 1.613 . S
N392 C395 1.350 . S
N393 S391 1.610 . S
N393 C394 1.351 . S
C394 C388 1.428 . S
C394 N393 1.351 . S
C394 C395 1.434 . S
C395 C386 1.429 . S
C395 N392 1.350 . S
C395 C394 1.434 . S
C396 C397 1.369 . S
C396 C398 1.419 . S
C396 H400 0.930 . S
C397 C396 1.369 . S
C397 C406 1.429 . S
C398 C396 1.419 . S
C398 C399 1.363 . S
C398 H401 0.929 . S
C399 C398 1.363 . S
C399 C405 1.428 . S
H400 C396 0.930 . S
H401 C398 0.929 . S
S402 N403 1.613 . S
S402 N404 1.610 . S
N403 S402 1.613 . S
N403 C406 1.350 . S
N404 S402 1.610 . S
N404 C405 1.351 . S
C405 C399 1.428 . S
C405 N404 1.351 . S
C405 C406 1.434 . S
C406 C397 1.429 . S
C406 N403 1.350 . S
C406 C405 1.434 . S
C407 C408 1.369 . S
C407 C409 1.419 . S
C407 H411 0.930 . S
C408 C407 1.369 . S
C408 C417 1.429 . S
C409 C407 1.419 . S
C409 C410 1.363 . S
C409 H412 0.929 . S
C410 C409 1.363 . S
C410 C416 1.428 . S
H411 C407 0.930 . S
H412 C409 0.929 . S
S413 N414 1.613 . S
S413 N415 1.610 . S
N414 S413 1.613 . S
N414 C417 1.350 . S
N415 S413 1.610 . S
N415 C416 1.351 . S
C416 C410 1.428 . S
C416 N415 1.351 . S
C416 C417 1.434 . S
C417 C408 1.429 . S
C417 N414 1.350 . S
C417 C416 1.434 . S
C418 C419 1.369 . S
C418 C420 1.419 . S
C418 H422 0.930 . S
C419 C418 1.369 . S
C419 C428 1.429 . S
C420 C418 1.419 . S
C420 C421 1.363 . S
C420 H423 0.929 . S
C421 C420 1.363 . S
C421 C427 1.428 . S
H422 C418 0.930 . S
H423 C420 0.929 . S
S424 N425 1.613 . S
S424 N426 1.610 . S
N425 S424 1.613 . S
N425 C428 1.350 . S
N426 S424 1.610 . S
N426 C427 1.351 . S
C427 C421 1.428 . S
C427 N426 1.351 . S
C427 C428 1.434 . S
C428 C419 1.429 . S
C428 N425 1.350 . S
C428 C427 1.434 . S
C429 C430 1.369 . S
C429 C431 1.419 . S
C429 H433 0.930 . S
C430 C429 1.369 . S
C430 C439 1.429 . S
C431 C429 1.419 . S
C431 C432 1.363 . S
C431 H434 0.929 . S
C432 C431 1.363 . S
C432 C438 1.428 . S
H433 C429 0.930 . S
H434 C431 0.929 . S
S435 N436 1.613 . S
S435 N437 1.610 . S
N436 S435 1.613 . S
N436 C439 1.350 . S
N437 S435 1.610 . S
N437 C438 1.351 . S
C438 C432 1.428 . S
C438 N437 1.351 . S
C438 C439 1.434 . S
C439 C430 1.429 . S
C439 N436 1.350 . S
C439 C438 1.434 . S
C440 C441 1.369 . S
C440 C442 1.419 . S
C440 H444 0.930 . S
C441 C440 1.369 . S
C441 C450 1.429 . S
C442 C440 1.419 . S
C442 C443 1.363 . S
C442 H445 0.929 1_556 S
C443 C442 1.363 . S
C443 C449 1.428 . S
H444 C440 0.930 . S
H445 C442 0.929 1_554 S
S446 N447 1.613 . S
S446 N448 1.610 . S
N447 S446 1.613 . S
N447 C450 1.350 . S
N448 S446 1.610 . S
N448 C449 1.351 . S
C449 C443 1.428 . S
C449 N448 1.351 . S
C449 C450 1.434 . S
C450 C441 1.429 . S
C450 N447 1.350 . S
C450 C449 1.434 . S
C451 C452 1.369 . S
C451 C453 1.419 . S
C451 H455 0.930 . S
C452 C451 1.369 . S
C452 C461 1.429 . S
C453 C451 1.419 . S
C453 C454 1.363 . S
C453 H456 0.929 . S
C454 C453 1.363 . S
C454 C460 1.428 . S
H455 C451 0.930 . S
H456 C453 0.929 . S
S457 N458 1.613 . S
S457 N459 1.610 . S
N458 S457 1.613 . S
N458 C461 1.350 . S
N459 S457 1.610 . S
N459 C460 1.351 . S
C460 C454 1.428 . S
C460 N459 1.351 . S
C460 C461 1.434 . S
C461 C452 1.429 . S
C461 N458 1.350 . S
C461 C460 1.434 . S
C462 C463 1.369 . S
C462 C464 1.419 . S
C462 H466 0.930 . S
C463 C462 1.369 . S
C463 C472 1.429 . S
C464 C462 1.419 . S
C464 C465 1.363 . S
C464 H467 0.929 . S
C465 C464 1.363 . S
C465 C471 1.428 . S
H466 C462 0.930 . S
H467 C464 0.929 . S
S468 N469 1.613 . S
S468 N470 1.610 . S
N469 S468 1.613 . S
N469 C472 1.350 . S
N470 S468 1.610 . S
N470 C471 1.351 . S
C471 C465 1.428 . S
C471 N470 1.351 . S
C471 C472 1.434 . S
C472 C463 1.429 . S
C472 N469 1.350 . S
C472 C471 1.434 . S
C473 C474 1.369 . S
C473 C475 1.419 . S
C473 H477 0.930 . S
C474 C473 1.369 . S
C474 C483 1.429 . S
C475 C473 1.419 . S
C475 C476 1.363 . S
C475 H478 0.929 . S
C476 C475 1.363 . S
C476 C482 1.428 . S
H477 C473 0.930 . S
H478 C475 0.929 . S
S479 N480 1.613 . S
S479 N481 1.610 . S
N480 S479 1.613 . S
N480 C483 1.350 . S
N481 S479 1.610 . S
N481 C482 1.351 . S
C482 C476 1.428 . S
C482 N481 1.351 . S
C482 C483 1.434 . S
C483 C474 1.429 . S
C483 N480 1.350 . S
C483 C482 1.434 . S
C484 C485 1.369 . S
C484 C486 1.419 . S
C484 H488 0.930 . S
C485 C484 1.369 . S
C485 C494 1.429 . S
C486 C484 1.419 . S
C486 C487 1.363 . S
C486 H489 0.929 . S
C487 C486 1.363 . S
C487 C493 1.428 . S
H488 C484 0.930 . S
H489 C486 0.929 . S
S490 N491 1.613 . S
S490 N492 1.610 . S
N491 S490 1.613 . S
N491 C494 1.350 . S
N492 S490 1.610 . S
N492 C493 1.351 . S
C493 C487 1.428 . S
C493 N492 1.351 . S
C493 C494 1.434 . S
C494 C485 1.429 . S
C494 N491 1.350 . S
C494 C493 1.434 . S
C495 C496 1.369 . S
C495 C497 1.419 . S
C495 H499 0.930 . S
C496 C495 1.369 . S
C496 C505 1.429 . S
C497 C495 1.419 . S
C497 C498 1.363 . S
C497 H500 0.929 . S
C498 C497 1.363 . S
C498 C504 1.428 . S
H499 C495 0.930 . S
H500 C497 0.929 . S
S501 N502 1.613 . S
S501 N503 1.610 . S
N502 S501 1.613 . S
N502 C505 1.350 . S
N503 S501 1.610 . S
N503 C504 1.351 . S
C504 C498 1.428 . S
C504 N503 1.351 . S
C504 C505 1.434 . S
C505 C496 1.429 . S
C505 N502 1.350 . S
C505 C504 1.434 . S
C506 C507 1.369 . S
C506 C508 1.419 . S
C506 H510 0.930 . S
C507 C506 1.369 . S
C507 C516 1.429 . S
C508 C506 1.419 . S
C508 C509 1.363 . S
C508 H511 0.929 . S
C509 C508 1.363 . S
C509 C515 1.428 . S
H510 C506 0.930 . S
H511 C508 0.929 . S
S512 N513 1.613 1_655 S
S512 N514 1.610 1_655 S
N513 S512 1.613 1_455 S
N513 C516 1.350 . S
N514 S512 1.610 1_455 S
N514 C515 1.351 . S
C515 C509 1.428 . S
C515 N514 1.351 . S
C515 C516 1.434 . S
C516 C507 1.429 . S
C516 N513 1.350 . S
C516 C515 1.434 . S
C517 C518 1.369 . S
C517 C519 1.419 . S
C517 H521 0.930 . S
C518 C517 1.369 . S
C518 C527 1.429 . S
C519 C517 1.419 . S
C519 C520 1.363 . S
C519 H522 0.929 . S
C520 C519 1.363 . S
C520 C526 1.428 . S
H521 C517 0.930 . S
H522 C519 0.929 . S
S523 N524 1.613 . S
S523 N525 1.610 . S
N524 S523 1.613 . S
N524 C527 1.350 . S
N525 S523 1.610 . S
N525 C526 1.351 . S
C526 C520 1.428 . S
C526 N525 1.351 . S
C526 C527 1.434 . S
C527 C518 1.429 . S
C527 N524 1.350 . S
C527 C526 1.434 . S
C265 N1 0.979 . S
C267 C111 1.006 . S
C276 N18 1.122 . S
C278 C160 1.169 . S
C289 C186 2.187 . S
C287 N28 2.244 . S
C298 N40 2.668 . S
C300 C234 2.685 . S
C311 C146 2.276 . S
C309 N5 2.186 . S
C322 C114 0.592 . S
C320 N14 0.548 . S
C333 C235 2.051 . S
C331 N31 2.061 . S
C344 C203 1.584 . S
C342 N41 1.596 . S
C353 N2 1.323 . S
C355 C231 1.372 . S
C366 C163 2.485 1_556 S
C364 N27 2.547 . S
C375 N44 2.436 . S
C377 C115 2.502 . S
C386 N15 0.953 . S
C388 C200 0.972 . S
C399 C120 1.490 . S
C397 N57 1.568 . S
C408 N70 0.993 . S
C410 C151 1.077 . S
C419 N79 2.380 . S
C421 C195 2.408 . S
C430 N93 2.499 . S
C432 C243 2.483 . S
C441 N54 1.864 . S
C443 C155 2.051 1_565 S
C454 C123 1.350 . S
C452 N66 1.427 . S
C465 C226 1.591 . S
C463 N80 1.660 . S
C476 C194 1.822 . S
C474 N96 1.825 . S
C485 N53 1.531 . S
C487 C240 1.551 . S
C498 C154 2.215 . S
C496 N83 2.209 . S
C509 C106 2.658 . S
C507 N92 2.654 . S
C518 N67 1.170 . S
C520 C191 1.213 . S
