# Generated by pormake.
# Topology apo, (3,6)-cn, num edge types: 1
# Building blocks:
#     Node 0, Type 0, BuildingBlock: BELTOD_clean_linker_0, # of connection points: 3
#     Node 1, Type 0, BuildingBlock: BELTOD_clean_linker_0, # of connection points: 3
#     Node 2, Type 0, BuildingBlock: BELTOD_clean_linker_0, # of connection points: 3
#     Node 3, Type 0, BuildingBlock: BELTOD_clean_linker_0, # of connection points: 3
#     Node 4, Type 0, BuildingBlock: BELTOD_clean_linker_0, # of connection points: 3
#     Node 5, Type 0, BuildingBlock: BELTOD_clean_linker_0, # of connection points: 3
#     Node 6, Type 0, BuildingBlock: BELTOD_clean_linker_0, # of connection points: 3
#     Node 7, Type 0, BuildingBlock: BELTOD_clean_linker_0, # of connection points: 3
#     Node 8, Type 1, BuildingBlock: KUMBUR_clean_sbu_1, # of connection points: 6
#     Node 9, Type 1, BuildingBlock: KUMBUR_clean_sbu_1, # of connection points: 6
#     Node 10, Type 1, BuildingBlock: KUMBUR_clean_sbu_1, # of connection points: 6
#     Node 11, Type 1, BuildingBlock: KUMBUR_clean_sbu_1, # of connection points: 6
#     Edge 12, Type (0, 1), BuildingBlock: UVAHIK_clean_linker_0, # of connection points: 2
#     Edge 13, Type (0, 1), BuildingBlock: UVAHIK_clean_linker_0, # of connection points: 2
#     Edge 14, Type (0, 1), BuildingBlock: UVAHIK_clean_linker_0, # of connection points: 2
#     Edge 15, Type (0, 1), BuildingBlock: UVAHIK_clean_linker_0, # of connection points: 2
#     Edge 16, Type (0, 1), BuildingBlock: UVAHIK_clean_linker_0, # of connection points: 2
#     Edge 17, Type (0, 1), BuildingBlock: UVAHIK_clean_linker_0, # of connection points: 2
#     Edge 18, Type (0, 1), BuildingBlock: UVAHIK_clean_linker_0, # of connection points: 2
#     Edge 19, Type (0, 1), BuildingBlock: UVAHIK_clean_linker_0, # of connection points: 2
#     Edge 20, Type (0, 1), BuildingBlock: UVAHIK_clean_linker_0, # of connection points: 2
#     Edge 21, Type (0, 1), BuildingBlock: UVAHIK_clean_linker_0, # of connection points: 2
#     Edge 22, Type (0, 1), BuildingBlock: UVAHIK_clean_linker_0, # of connection points: 2
#     Edge 23, Type (0, 1), BuildingBlock: UVAHIK_clean_linker_0, # of connection points: 2
#     Edge 24, Type (0, 1), BuildingBlock: UVAHIK_clean_linker_0, # of connection points: 2
#     Edge 25, Type (0, 1), BuildingBlock: UVAHIK_clean_linker_0, # of connection points: 2
#     Edge 26, Type (0, 1), BuildingBlock: UVAHIK_clean_linker_0, # of connection points: 2
#     Edge 27, Type (0, 1), BuildingBlock: UVAHIK_clean_linker_0, # of connection points: 2
#     Edge 28, Type (0, 1), BuildingBlock: UVAHIK_clean_linker_0, # of connection points: 2
#     Edge 29, Type (0, 1), BuildingBlock: UVAHIK_clean_linker_0, # of connection points: 2
#     Edge 30, Type (0, 1), BuildingBlock: UVAHIK_clean_linker_0, # of connection points: 2
#     Edge 31, Type (0, 1), BuildingBlock: UVAHIK_clean_linker_0, # of connection points: 2
#     Edge 32, Type (0, 1), BuildingBlock: UVAHIK_clean_linker_0, # of connection points: 2
#     Edge 33, Type (0, 1), BuildingBlock: UVAHIK_clean_linker_0, # of connection points: 2
#     Edge 34, Type (0, 1), BuildingBlock: UVAHIK_clean_linker_0, # of connection points: 2
#     Edge 35, Type (0, 1), BuildingBlock: UVAHIK_clean_linker_0, # of connection points: 2
# Relax obj value: 0.010
# Max RMSD: 0.099
# Mean RMSD: 0.073
data_MOF--net-apo--node1-KUMBUR_clean_sbu_1--node2-BELTOD_clean_linker_0--edge1-UVAHIK_clean_linker_0
_symmetry_space_group_name_H-M    P1
_symmetry_Int_Tables_number       1
_symmetry_cell_setting            triclinic
loop_
_symmetry_equiv_pos_as_xyz
'x, y, z'
_cell_length_a     34.293485
_cell_length_b     61.345042
_cell_length_c     73.247833
_cell_angle_alpha  89.668881
_cell_angle_beta   90.034849
_cell_angle_gamma 90.373021
loop_
_atom_site_label
_atom_site_type_symbol
_atom_site_fract_x
_atom_site_fract_y
_atom_site_fract_z
_atom_type_partial_charge
P0 P 0.33244 0.36036 0.40842 0.0
H1 H 0.35151 0.32639 0.43451 0.0
H2 H 0.35505 0.32577 0.46782 0.0
H3 H 0.30714 0.39072 0.4694 0.0
H4 H 0.303 0.39103 0.43602 0.0
H5 H 0.3313 0.34289 0.37198 0.0
H6 H 0.28501 0.32033 0.35527 0.0
H7 H 0.20749 0.32035 0.40181 0.0
H8 H 0.25476 0.34282 0.41865 0.0
H9 H 0.38381 0.39659 0.4166 0.0
H10 H 0.2835 0.38512 0.38234 0.0
O11 O 0.37591 0.34993 0.40335 0.0
H12 H 0.39182 0.43285 0.40316 0.0
H13 H 0.29201 0.42114 0.36843 0.0
C14 C 0.32777 0.35889 0.43284 0.0
C15 C 0.34127 0.34037 0.44205 0.0
C16 C 0.34354 0.34011 0.46106 0.0
C17 C 0.33213 0.35837 0.47121 0.0
C18 C 0.31622 0.37641 0.46196 0.0
C19 C 0.31401 0.37665 0.44288 0.0
C20 C 0.29667 0.34422 0.39658 0.0
C21 C 0.30436 0.33802 0.3786 0.0
C22 C 0.27765 0.32528 0.36901 0.0
C23 C 0.24244 0.31857 0.37718 0.0
C24 C 0.23452 0.32508 0.3952 0.0
C25 C 0.26142 0.33795 0.40482 0.0
C26 C 0.33337 0.38811 0.40036 0.0
C27 C 0.36327 0.40199 0.40631 0.0
C28 C 0.36796 0.42264 0.39852 0.0
C29 C 0.34291 0.42974 0.38451 0.0
C30 C 0.3117 0.41619 0.37922 0.0
C31 C 0.30697 0.3955 0.3871 0.0
P32 P 0.28366 0.10151 0.91567 0.0
H33 H 0.29655 0.08306 0.8798 0.0
H34 H 0.25919 0.05746 0.86104 0.0
H35 H 0.16833 0.05581 0.90185 0.0
H36 H 0.20557 0.08148 0.92046 0.0
H37 H 0.34282 0.13462 0.92239 0.0
H38 H 0.36262 0.16752 0.90569 0.0
H39 H 0.26762 0.15766 0.86779 0.0
H40 H 0.24801 0.12478 0.88456 0.0
H41 H 0.27556 0.07267 0.94684 0.0
H42 H 0.24284 0.1384 0.93279 0.0
O43 O 0.32596 0.08877 0.91891 0.0
H44 H 0.24668 0.07688 0.97701 0.0
H45 H 0.21492 0.14308 0.96326 0.0
C46 C 0.25401 0.08409 0.90154 0.0
C47 C 0.26842 0.07732 0.88462 0.0
C48 C 0.24701 0.06277 0.8739 0.0
C49 C 0.21092 0.05456 0.88003 0.0
C50 C 0.19627 0.06166 0.89689 0.0
C51 C 0.21755 0.07641 0.90752 0.0
C52 C 0.29452 0.12705 0.90448 0.0
C53 C 0.32607 0.13967 0.91058 0.0
C54 C 0.33721 0.15853 0.90108 0.0
C55 C 0.31692 0.16506 0.8853 0.0
C56 C 0.28423 0.15283 0.87971 0.0
C57 C 0.27296 0.13404 0.8893 0.0
C58 C 0.26197 0.10533 0.93775 0.0
C59 C 0.26246 0.0881 0.95036 0.0
C60 C 0.24606 0.09058 0.96763 0.0
C61 C 0.22889 0.11042 0.97267 0.0
C62 C 0.22771 0.12755 0.9598 0.0
C63 C 0.24398 0.12498 0.94243 0.0
P64 P 0.84017 0.14128 0.59569 0.0
H65 H 0.87185 0.17117 0.56852 0.0
H66 H 0.87619 0.16961 0.53528 0.0
H67 H 0.80626 0.11077 0.53554 0.0
H68 H 0.80188 0.11252 0.56893 0.0
H69 H 0.83861 0.15978 0.63172 0.0
H70 H 0.79098 0.18113 0.64835 0.0
H71 H 0.71364 0.17907 0.60175 0.0
H72 H 0.76234 0.15781 0.58496 0.0
H73 H 0.89497 0.10574 0.59269 0.0
H74 H 0.78259 0.1162 0.61743 0.0
O75 O 0.88375 0.15152 0.60128 0.0
H76 H 0.89834 0.06982 0.60708 0.0
H77 H 0.7855 0.08015 0.63173 0.0
C78 C 0.83712 0.14177 0.57117 0.0
C79 C 0.85711 0.15805 0.56142 0.0
C80 C 0.85981 0.15705 0.54243 0.0
C81 C 0.84218 0.13984 0.53282 0.0
C82 C 0.82022 0.1242 0.54257 0.0
C83 C 0.81774 0.12516 0.56164 0.0
C84 C 0.80429 0.15761 0.60703 0.0
C85 C 0.81153 0.16406 0.62501 0.0
C86 C 0.78401 0.17606 0.63459 0.0
C87 C 0.74834 0.18173 0.62643 0.0
C88 C 0.74099 0.17513 0.60835 0.0
C89 C 0.76872 0.16299 0.59875 0.0
C90 C 0.83893 0.11375 0.60424 0.0
C91 C 0.87077 0.10015 0.60102 0.0
C92 C 0.87251 0.07956 0.60918 0.0
C93 C 0.84229 0.07218 0.62068 0.0
C94 C 0.80952 0.08551 0.62318 0.0
C95 C 0.80779 0.10612 0.61497 0.0
P96 P 0.77801 0.39685 0.08405 0.0
H97 H 0.79494 0.44109 0.09662 0.0
H98 H 0.75727 0.46757 0.11383 0.0
H99 H 0.66018 0.42248 0.11607 0.0
H100 H 0.69803 0.39596 0.09844 0.0
H101 H 0.82226 0.35804 0.07559 0.0
H102 H 0.84201 0.32646 0.09368 0.0
H103 H 0.77258 0.34957 0.1388 0.0
H104 H 0.75488 0.38157 0.12099 0.0
H105 H 0.78093 0.41999 0.04938 0.0
H106 H 0.72469 0.36237 0.07102 0.0
O107 O 0.8218 0.40782 0.07987 0.0
H108 H 0.75303 0.41268 0.01934 0.0
H109 H 0.69696 0.35469 0.04084 0.0
C110 C 0.7494 0.41646 0.09639 0.0
C111 C 0.76552 0.43685 0.1007 0.0
C112 C 0.7439 0.45205 0.11049 0.0
C113 C 0.70584 0.44707 0.11631 0.0
C114 C 0.68958 0.42666 0.11187 0.0
C115 C 0.71107 0.41156 0.10179 0.0
C116 C 0.78686 0.37212 0.09682 0.0
C117 C 0.81097 0.35614 0.08932 0.0
C118 C 0.82209 0.338 0.09969 0.0
C119 C 0.80908 0.33538 0.11782 0.0
C120 C 0.78382 0.35116 0.12505 0.0
C121 C 0.77314 0.36943 0.11472 0.0
C122 C 0.75556 0.39146 0.06229 0.0
C123 C 0.76268 0.40568 0.04762 0.0
C124 C 0.74682 0.40143 0.03043 0.0
C125 C 0.72317 0.38294 0.02761 0.0
C126 C 0.71498 0.3691 0.04255 0.0
C127 C 0.731 0.37337 0.05978 0.0
P128 P 0.77648 0.60603 0.58167 0.0
H129 H 0.80354 0.61854 0.54548 0.0
H130 H 0.76992 0.62595 0.51683 0.0
H131 H 0.65891 0.61849 0.54422 0.0
H132 H 0.69309 0.61049 0.57285 0.0
H133 H 0.81337 0.60895 0.61709 0.0
H134 H 0.83292 0.63954 0.63627 0.0
H135 H 0.78676 0.68449 0.59622 0.0
H136 H 0.76744 0.6537 0.57699 0.0
H137 H 0.7694 0.55881 0.57893 0.0
H138 H 0.72266 0.60964 0.61274 0.0
O139 O 0.81848 0.59453 0.57563 0.0
H140 H 0.7367 0.5313 0.59783 0.0
H141 H 0.69099 0.58227 0.63212 0.0
C142 C 0.7508 0.61347 0.56115 0.0
C143 C 0.77196 0.61855 0.54533 0.0
C144 C 0.75263 0.62301 0.52897 0.0
C145 C 0.71163 0.62271 0.52815 0.0
C146 C 0.69049 0.61848 0.54429 0.0
C147 C 0.70996 0.61398 0.56068 0.0
C148 C 0.78862 0.62904 0.59574 0.0
C149 C 0.80716 0.62539 0.61251 0.0
C150 C 0.81818 0.64289 0.62349 0.0
C151 C 0.81118 0.66444 0.61781 0.0
C152 C 0.79272 0.66807 0.60091 0.0
C153 C 0.78147 0.65048 0.58995 0.0
C154 C 0.74922 0.58618 0.59471 0.0
C155 C 0.75213 0.56403 0.59047 0.0
C156 C 0.73362 0.54832 0.60136 0.0
C157 C 0.71171 0.55451 0.61671 0.0
C158 C 0.70749 0.57688 0.62041 0.0
C159 C 0.72588 0.59257 0.60942 0.0
P160 P 0.82366 0.86485 0.09182 0.0
H161 H 0.8337 0.87429 0.13012 0.0
H162 H 0.83566 0.90812 0.14746 0.0
H163 H 0.80563 0.94433 0.09873 0.0
H164 H 0.80343 0.91032 0.08146 0.0
H165 H 0.83275 0.82041 0.10545 0.0
H166 H 0.78846 0.79501 0.12037 0.0
H167 H 0.69347 0.84008 0.11211 0.0
H168 H 0.73899 0.86601 0.09775 0.0
H169 H 0.86913 0.89174 0.06721 0.0
H170 H 0.7733 0.8462 0.06284 0.0
O171 O 0.8685 0.85562 0.09594 0.0
H172 H 0.87052 0.89581 0.03409 0.0
H173 H 0.77449 0.85023 0.0295 0.0
C174 C 0.81911 0.88979 0.10447 0.0
C175 C 0.82701 0.88948 0.12322 0.0
C176 C 0.82793 0.90884 0.13313 0.0
C177 C 0.82106 0.92896 0.12444 0.0
C178 C 0.81161 0.92913 0.10574 0.0
C179 C 0.81037 0.90966 0.09586 0.0
C180 C 0.7892 0.84516 0.10061 0.0
C181 C 0.80238 0.82483 0.10671 0.0
C182 C 0.77677 0.81017 0.11515 0.0
C183 C 0.73718 0.81539 0.1175 0.0
C184 C 0.72382 0.8356 0.1108 0.0
C185 C 0.74968 0.85038 0.10246 0.0
C186 C 0.82073 0.86898 0.0675 0.0
C187 C 0.84792 0.8829 0.0591 0.0
C188 C 0.84862 0.88524 0.04017 0.0
C189 C 0.8224 0.87346 0.02918 0.0
C190 C 0.79508 0.85948 0.03762 0.0
C191 C 0.79421 0.85728 0.05668 0.0
P192 P 0.27059 0.89212 0.41851 0.0
H193 H 0.30196 0.87296 0.45161 0.0
H194 H 0.27338 0.86347 0.48111 0.0
H195 H 0.16006 0.88302 0.46122 0.0
H196 H 0.18924 0.89292 0.43179 0.0
H197 H 0.31461 0.88912 0.38495 0.0
H198 H 0.33562 0.85852 0.3663 0.0
H199 H 0.27358 0.81405 0.40209 0.0
H200 H 0.25319 0.84482 0.42086 0.0
H201 H 0.2654 0.93943 0.42018 0.0
H202 H 0.21127 0.88747 0.38974 0.0
O203 O 0.31264 0.90438 0.42382 0.0
H204 H 0.22984 0.96629 0.40213 0.0
H205 H 0.17462 0.91426 0.37184 0.0
C206 C 0.24787 0.88395 0.43965 0.0
C207 C 0.27095 0.87517 0.45361 0.0
C208 C 0.25446 0.86959 0.47043 0.0
C209 C 0.21438 0.87254 0.4736 0.0
C210 C 0.19111 0.88086 0.45935 0.0
C211 C 0.20772 0.88644 0.44248 0.0
C212 C 0.28258 0.86925 0.40431 0.0
C213 C 0.30534 0.87278 0.3887 0.0
C214 C 0.31714 0.85526 0.378 0.0
C215 C 0.30634 0.83378 0.38269 0.0
C216 C 0.28285 0.83034 0.39822 0.0
C217 C 0.27099 0.84795 0.40892 0.0
C218 C 0.24156 0.91152 0.40603 0.0
C219 C 0.24561 0.93381 0.40966 0.0
C220 C 0.22496 0.94916 0.39941 0.0
C221 C 0.19949 0.94249 0.38541 0.0
C222 C 0.19453 0.92 0.38226 0.0
C223 C 0.21532 0.90465 0.39253 0.0
P224 P 0.32369 0.63812 0.90885 0.0
H225 H 0.30356 0.6258 0.8716 0.0
H226 H 0.31026 0.59198 0.8547 0.0
H227 H 0.35567 0.56049 0.90317 0.0
H228 H 0.34666 0.59404 0.9202 0.0
H229 H 0.31541 0.68511 0.90657 0.0
H230 H 0.26601 0.70846 0.89282 0.0
H231 H 0.19392 0.65191 0.8822 0.0
H232 H 0.24358 0.62856 0.89623 0.0
H233 H 0.38747 0.63868 0.93494 0.0
H234 H 0.26294 0.62867 0.93617 0.0
O235 O 0.36467 0.65088 0.90252 0.0
H236 H 0.39063 0.63355 0.96782 0.0
H237 H 0.26589 0.6229 0.96935 0.0
C238 C 0.32348 0.61231 0.8973 0.0
C239 C 0.31376 0.61142 0.87874 0.0
C240 C 0.31822 0.59211 0.86901 0.0
C241 C 0.3337 0.57344 0.87751 0.0
C242 C 0.34296 0.57436 0.89622 0.0
C243 C 0.33794 0.59363 0.90601 0.0
C244 C 0.28366 0.65509 0.90188 0.0
C245 C 0.28873 0.67775 0.90154 0.0
C246 C 0.26035 0.6911 0.89375 0.0
C247 C 0.22631 0.68198 0.88619 0.0
C248 C 0.22018 0.65933 0.88763 0.0
C249 C 0.24849 0.646 0.89564 0.0
C250 C 0.32487 0.63452 0.93321 0.0
C251 C 0.36071 0.63541 0.94233 0.0
C252 C 0.36254 0.63217 0.96115 0.0
C253 C 0.32853 0.62771 0.97126 0.0
C254 C 0.29256 0.62654 0.962 0.0
C255 C 0.2908 0.62982 0.94307 0.0
Tb256 Tb 0.04444 0.13209 0.23253 0.0
C257 C 0.8744 0.11196 0.25143 0.0
N258 N 0.89178 0.13188 0.25015 0.0
C259 C 0.83903 0.14501 0.23175 0.0
C260 C 0.83891 0.10761 0.24242 0.0
C261 C 0.87439 0.14853 0.24083 0.0
C262 C 0.82128 0.12445 0.23248 0.0
C263 C 0.87651 0.0747 0.26255 0.0
C264 C 0.89332 0.09568 0.26121 0.0
C265 C 0.84127 0.0702 0.25347 0.0
C266 C 0.82253 0.0866 0.24344 0.0
Tb267 Tb 0.94867 0.1358 0.26579 0.0
N268 N 0.92773 0.10054 0.26964 0.0
C269 C 0.89519 0.059 0.27328 0.0
C270 C 0.94412 0.08577 0.28133 0.0
C271 C 0.92876 0.06469 0.28296 0.0
H272 H 0.88772 0.16451 0.24045 0.0
H273 H 0.94233 0.05299 0.29203 0.0
H274 H 0.10286 0.0972 0.25426 0.0
H275 H 0.07046 0.21326 0.20632 0.0
H276 H 0.96791 0.09027 0.2901 0.0
H277 H 0.88319 0.0427 0.2747 0.0
H278 H 0.03407 0.17886 0.21015 0.0
H279 H 0.82545 0.15817 0.22422 0.0
H280 H 0.82808 0.05413 0.25427 0.0
H281 H 0.79535 0.08288 0.23654 0.0
H282 H 0.16716 0.09809 0.26917 0.0
H283 H 0.79399 0.12175 0.22535 0.0
H284 H 0.13516 0.21784 0.22084 0.0
N285 N 0.10395 0.13071 0.24677 0.0
C286 C 0.12642 0.14902 0.2453 0.0
C287 C 0.15578 0.11266 0.26275 0.0
C288 C 0.164 0.15009 0.25305 0.0
C289 C 0.11878 0.11235 0.25469 0.0
C290 C 0.17833 0.13169 0.26212 0.0
N291 N 0.07588 0.16465 0.22799 0.0
C292 C 0.06141 0.18089 0.21717 0.0
C293 C 0.13457 0.18563 0.2331 0.0
C294 C 0.11221 0.16645 0.23529 0.0
C295 C 0.11898 0.20278 0.22281 0.0
C296 C 0.08238 0.20031 0.21468 0.0
H297 H 0.20711 0.13181 0.26823 0.0
H298 H 0.21516 0.17046 0.25711 0.0
H299 H 0.18916 0.20168 0.2398 0.0
O300 O 0.04414 0.13279 0.20365 0.0
O301 O 0.04615 0.15807 0.25299 0.0
O302 O 0.9985 0.15432 0.27567 0.0
O303 O 0.08235 0.11148 0.21846 0.0
O304 O 0.99241 0.14939 0.22286 0.0
O305 O 0.96206 0.16417 0.24838 0.0
O306 O 0.92692 0.13187 0.29264 0.0
O307 O 0.94478 0.12269 0.23795 0.0
O308 O 0.00266 0.10514 0.23482 0.0
O309 O 0.91216 0.16036 0.27617 0.0
O310 O 0.00175 0.12098 0.27714 0.0
O311 O 0.03322 0.10596 0.25233 0.0
C312 C 0.03062 0.16291 0.26887 0.0
C313 C 0.10685 0.12649 0.19111 0.0
C314 C 0.13501 0.1331 0.16096 0.0
C315 C 0.1704 0.13915 0.16929 0.0
C316 C 0.14285 0.13213 0.19906 0.0
C317 C 0.17421 0.13863 0.18821 0.0
C318 C 0.10318 0.12685 0.17201 0.0
C319 C 0.97147 0.16463 0.23088 0.0
C320 C 0.07356 0.11954 0.20258 0.0
C321 C 0.18631 0.16928 0.25115 0.0
C322 C 0.17158 0.18703 0.24123 0.0
C323 C 0.96534 0.10666 0.23135 0.0
C324 C 0.88466 0.15873 0.3069 0.0
C325 C 0.86536 0.15862 0.33907 0.0
C326 C 0.839 0.1755 0.33525 0.0
C327 C 0.85817 0.17562 0.30351 0.0
C328 C 0.88841 0.15033 0.32481 0.0
C329 C 0.83555 0.18393 0.31762 0.0
C330 C 0.02737 0.10756 0.27002 0.0
C331 C 0.90835 0.15023 0.29172 0.0
H332 H 0.19556 0.14369 0.16115 0.0
H333 H 0.14715 0.13121 0.21362 0.0
H334 H 0.20177 0.14295 0.19448 0.0
H335 H 0.07568 0.12223 0.16578 0.0
H336 H 0.82128 0.18236 0.346 0.0
H337 H 0.85481 0.18239 0.28991 0.0
H338 H 0.90885 0.13733 0.32762 0.0
H339 H 0.81524 0.19698 0.31488 0.0
Tb340 Tb 0.46304 0.36519 0.73872 0.0
C341 C 0.62846 0.39344 0.76036 0.0
N342 N 0.61439 0.37295 0.75793 0.0
C343 C 0.67033 0.36395 0.73994 0.0
C344 C 0.66335 0.40038 0.75196 0.0
C345 C 0.63537 0.3579 0.74848 0.0
C346 C 0.68415 0.38537 0.74149 0.0
C347 C 0.62181 0.42854 0.77484 0.0
C348 C 0.60786 0.40725 0.77156 0.0
C349 C 0.65567 0.43597 0.76588 0.0
C350 C 0.67645 0.42189 0.75447 0.0
Tb351 Tb 0.55719 0.36457 0.77219 0.0
N352 N 0.57561 0.3993 0.78015 0.0
C353 C 0.60218 0.44138 0.78754 0.0
C354 C 0.55882 0.41104 0.79384 0.0
C355 C 0.57102 0.43242 0.79736 0.0
H356 H 0.62484 0.34133 0.74736 0.0
H357 H 0.55687 0.4418 0.80789 0.0
H358 H 0.40614 0.40329 0.75766 0.0
H359 H 0.42797 0.28257 0.72041 0.0
H360 H 0.53652 0.40392 0.80241 0.0
H361 H 0.61192 0.45783 0.79047 0.0
H362 H 0.46555 0.31721 0.71926 0.0
H363 H 0.68656 0.35212 0.73217 0.0
H364 H 0.66662 0.45235 0.76807 0.0
H365 H 0.70297 0.42766 0.74797 0.0
H366 H 0.34887 0.40412 0.77779 0.0
H367 H 0.71115 0.39003 0.73481 0.0
H368 H 0.3709 0.27906 0.74096 0.0
N369 N 0.40769 0.36861 0.75615 0.0
C370 C 0.38681 0.34997 0.75892 0.0
C371 C 0.35967 0.38868 0.77288 0.0
C372 C 0.35257 0.34975 0.76956 0.0
C373 C 0.39295 0.38807 0.76187 0.0
C374 C 0.33982 0.36936 0.77708 0.0
N375 N 0.43062 0.33263 0.73928 0.0
C376 C 0.44076 0.31568 0.72828 0.0
C377 C 0.37596 0.31209 0.75102 0.0
C378 C 0.39817 0.33142 0.74984 0.0
C379 C 0.38726 0.29422 0.74049 0.0
C380 C 0.41949 0.29613 0.72888 0.0
H381 H 0.31368 0.36991 0.78536 0.0
H382 H 0.30514 0.32967 0.77992 0.0
H383 H 0.32568 0.29664 0.76365 0.0
O384 O 0.46455 0.3627 0.70996 0.0
O385 O 0.47487 0.33753 0.75717 0.0
O386 O 0.50044 0.35381 0.78242 0.0
O387 O 0.41913 0.38028 0.72331 0.0
O388 O 0.51545 0.34924 0.72816 0.0
O389 O 0.55056 0.33679 0.75348 0.0
O390 O 0.58831 0.36477 0.79703 0.0
O391 O 0.56236 0.3773 0.74412 0.0
O392 O 0.50316 0.39309 0.73822 0.0
O393 O 0.58129 0.33528 0.78179 0.0
O394 O 0.50331 0.38007 0.78181 0.0
O395 O 0.47374 0.39393 0.7559 0.0
C396 C 0.47964 0.33831 0.77491 0.0
C397 C 0.40187 0.36146 0.69656 0.0
C398 C 0.37639 0.35202 0.66645 0.0
C399 C 0.3453 0.34082 0.67492 0.0
C400 C 0.37026 0.35038 0.70466 0.0
C401 C 0.34237 0.34002 0.69388 0.0
C402 C 0.40475 0.3623 0.67743 0.0
C403 C 0.54021 0.3357 0.73608 0.0
C404 C 0.43138 0.37253 0.70792 0.0
C405 C 0.33131 0.33022 0.77164 0.0
C406 C 0.34293 0.31143 0.76234 0.0
C407 C 0.54126 0.3926 0.73645 0.0
C408 C 0.57997 0.33229 0.81412 0.0
C409 C 0.58121 0.32916 0.84749 0.0
C410 C 0.55612 0.31097 0.8463 0.0
C411 C 0.55489 0.31409 0.81338 0.0
C412 C 0.59313 0.3397 0.83123 0.0
C413 C 0.5431 0.30356 0.82938 0.0
C414 C 0.48158 0.39471 0.77349 0.0
C415 C 0.59233 0.34375 0.79721 0.0
H416 H 0.32271 0.33304 0.66687 0.0
H417 H 0.36674 0.34996 0.7193 0.0
H418 H 0.3181 0.33156 0.70025 0.0
H419 H 0.42905 0.37087 0.67114 0.0
H420 H 0.54693 0.30221 0.85845 0.0
H421 H 0.54423 0.30796 0.80046 0.0
H422 H 0.61215 0.35385 0.83187 0.0
H423 H 0.52383 0.28955 0.82866 0.0
Tb424 Tb 0.04396 0.86348 0.73411 0.0
C425 C 0.88162 0.83066 0.75473 0.0
N426 N 0.89354 0.85156 0.75211 0.0
C427 C 0.83796 0.85834 0.73309 0.0
C428 C 0.84821 0.82239 0.74592 0.0
C429 C 0.87157 0.86572 0.74204 0.0
C430 C 0.8265 0.83649 0.73484 0.0
C431 C 0.89118 0.7961 0.77005 0.0
C432 C 0.9029 0.81779 0.76654 0.0
C433 C 0.85891 0.78735 0.76071 0.0
C434 C 0.83741 0.80049 0.74868 0.0
Tb435 Tb 0.94893 0.86209 0.76691 0.0
N436 N 0.93355 0.827 0.77544 0.0
C437 C 0.91135 0.78419 0.78334 0.0
C438 C 0.95075 0.81609 0.78961 0.0
C439 C 0.94076 0.79439 0.79342 0.0
H440 H 0.88038 0.88259 0.74071 0.0
H441 H 0.95525 0.78568 0.80435 0.0
H442 H 0.10305 0.82481 0.75107 0.0
H443 H 0.07668 0.94715 0.71743 0.0
H444 H 0.97169 0.82413 0.79831 0.0
H445 H 0.90331 0.76747 0.78646 0.0
H446 H 0.04011 0.91222 0.71552 0.0
H447 H 0.82099 0.86946 0.72482 0.0
H448 H 0.8497 0.77064 0.76308 0.0
H449 H 0.81208 0.7937 0.74187 0.0
H450 H 0.16126 0.82342 0.77067 0.0
H451 H 0.80057 0.83079 0.72783 0.0
H452 H 0.13386 0.95021 0.73797 0.0
N453 N 0.10055 0.85953 0.7506 0.0
C454 C 0.12081 0.87821 0.75386 0.0
C455 C 0.1498 0.839 0.76633 0.0
C456 C 0.15536 0.87818 0.7643 0.0
C457 C 0.11613 0.8399 0.75556 0.0
C458 C 0.16908 0.85828 0.77106 0.0
N459 N 0.07579 0.89619 0.73508 0.0
C460 C 0.06509 0.91354 0.72446 0.0
C461 C 0.1301 0.91662 0.7471 0.0
C462 C 0.10851 0.89713 0.74545 0.0
C463 C 0.11803 0.93491 0.73712 0.0
C464 C 0.08574 0.93325 0.72551 0.0
H465 H 0.19548 0.85753 0.77916 0.0
H466 H 0.20229 0.89818 0.77509 0.0
H467 H 0.18011 0.9319 0.76 0.0
O468 O 0.03824 0.8664 0.70564 0.0
O469 O 0.03027 0.89091 0.75223 0.0
O470 O 0.00422 0.87454 0.77756 0.0
O471 O 0.08934 0.85214 0.71735 0.0
O472 O 0.99068 0.87855 0.72353 0.0
O473 O 0.95409 0.89028 0.74839 0.0
O474 O 0.91801 0.86161 0.79182 0.0
O475 O 0.94661 0.84916 0.73896 0.0
O476 O 0.0069 0.83431 0.73424 0.0
O477 O 0.92022 0.89046 0.7752 0.0
O478 O 0.00383 0.84831 0.77725 0.0
O479 O 0.03578 0.83472 0.75199 0.0
C480 C 0.02515 0.89005 0.76995 0.0
C481 C 0.06932 0.83962 0.68842 0.0
C482 C 0.07818 0.82877 0.65667 0.0
C483 C 0.06347 0.80794 0.66112 0.0
C484 C 0.05504 0.81873 0.69263 0.0
C485 C 0.05205 0.80299 0.679 0.0
C486 C 0.08092 0.84456 0.67049 0.0
C487 C 0.96492 0.89161 0.7311 0.0
C488 C 0.07096 0.85672 0.70233 0.0
C489 C 0.17592 0.89782 0.76693 0.0
C490 C 0.16336 0.91701 0.7583 0.0
C491 C 0.9689 0.83401 0.73202 0.0
C492 C 0.9235 0.89517 0.80719 0.0
C493 C 0.92395 0.90044 0.84025 0.0
C494 C 0.94993 0.91807 0.83793 0.0
C495 C 0.94937 0.91294 0.80526 0.0
C496 C 0.91057 0.88913 0.82475 0.0
C497 C 0.96237 0.92429 0.82055 0.0
C498 C 0.02756 0.83425 0.76957 0.0
C499 C 0.91118 0.88239 0.79111 0.0
H500 H 0.06133 0.79536 0.65085 0.0
H501 H 0.04617 0.81467 0.70641 0.0
H502 H 0.04091 0.7869 0.6823 0.0
H503 H 0.09145 0.86084 0.66727 0.0
H504 H 0.96033 0.92723 0.84958 0.0
H505 H 0.9599 0.91802 0.79196 0.0
H506 H 0.89089 0.87535 0.82638 0.0
H507 H 0.98233 0.93791 0.81892 0.0
Tb508 Tb 0.44652 0.63814 0.23577 0.0
C509 C 0.62069 0.65422 0.25143 0.0
N510 N 0.60174 0.63472 0.25072 0.0
C511 C 0.65215 0.62032 0.23168 0.0
C512 C 0.65582 0.65772 0.24186 0.0
C513 C 0.61714 0.61771 0.24125 0.0
C514 C 0.67149 0.64044 0.2319 0.0
C515 C 0.62202 0.69156 0.26199 0.0
C516 C 0.60357 0.67098 0.26112 0.0
C517 C 0.65693 0.69522 0.25237 0.0
C518 C 0.67376 0.67835 0.24231 0.0
Tb519 Tb 0.54423 0.63239 0.26629 0.0
N520 N 0.56919 0.66698 0.2699 0.0
C521 C 0.60527 0.7077 0.27279 0.0
C522 C 0.55502 0.68204 0.28182 0.0
C523 C 0.57208 0.70276 0.28304 0.0
H524 H 0.60263 0.60205 0.24124 0.0
H525 H 0.56009 0.71474 0.29222 0.0
H526 H 0.38787 0.66803 0.26107 0.0
H527 H 0.43044 0.55664 0.208 0.0
H528 H 0.53159 0.67813 0.29101 0.0
H529 H 0.61856 0.72372 0.27386 0.0
H530 H 0.46015 0.59278 0.21054 0.0
H531 H 0.66417 0.60683 0.22412 0.0
H532 H 0.67134 0.71098 0.25277 0.0
H533 H 0.70068 0.68141 0.23497 0.0
H534 H 0.32466 0.66345 0.27681 0.0
H535 H 0.69845 0.64247 0.22435 0.0
H536 H 0.36998 0.54788 0.22494 0.0
N537 N 0.38841 0.63574 0.25078 0.0
C538 C 0.36878 0.61653 0.24914 0.0
C539 C 0.33685 0.65008 0.26916 0.0
C540 C 0.33253 0.61321 0.25781 0.0
C541 C 0.37285 0.65257 0.26041 0.0
C542 C 0.31664 0.6303 0.2679 0.0
N543 N 0.42129 0.60377 0.23126 0.0
C544 C 0.43589 0.5889 0.21927 0.0
C545 C 0.36683 0.57964 0.23755 0.0
C546 C 0.3861 0.5999 0.23934 0.0
C547 C 0.38386 0.56365 0.22669 0.0
C548 C 0.41815 0.56846 0.21724 0.0
H549 H 0.28885 0.62839 0.27478 0.0
H550 H 0.28592 0.58997 0.26301 0.0
H551 H 0.31575 0.56064 0.24512 0.0
O552 O 0.43706 0.63841 0.20702 0.0
O553 O 0.44092 0.62229 0.26277 0.0
O554 O 0.50064 0.60636 0.26635 0.0
O555 O 0.4055 0.65999 0.2252 0.0
O556 O 0.49714 0.62117 0.22394 0.0
O557 O 0.52872 0.60508 0.2485 0.0
O558 O 0.55313 0.63207 0.29507 0.0
O559 O 0.54848 0.64742 0.2391 0.0
O560 O 0.48985 0.66461 0.2349 0.0
O561 O 0.58598 0.61101 0.27699 0.0
O562 O 0.49384 0.64939 0.27827 0.0
O563 O 0.46207 0.66517 0.25368 0.0
C564 C 0.46378 0.60802 0.27074 0.0
C565 C 0.38999 0.66363 0.19314 0.0
C566 C 0.37229 0.66477 0.1609 0.0
C567 C 0.35248 0.6844 0.16384 0.0
C568 C 0.36962 0.68317 0.1958 0.0
C569 C 0.35099 0.69344 0.18122 0.0
C570 C 0.3909 0.65431 0.17563 0.0
C571 C 0.52054 0.60626 0.23093 0.0
C572 C 0.4112 0.65372 0.20857 0.0
C573 C 0.31372 0.59289 0.25638 0.0
C574 C 0.33082 0.57615 0.24627 0.0
C575 C 0.52743 0.66295 0.23184 0.0
C576 C 0.60131 0.60767 0.30916 0.0
C577 C 0.61699 0.60588 0.34161 0.0
C578 C 0.64211 0.58841 0.33825 0.0
C579 C 0.6268 0.59019 0.3061 0.0
C580 C 0.59654 0.61556 0.32705 0.0
C581 C 0.64701 0.58066 0.32057 0.0
C582 C 0.47001 0.66405 0.27124 0.0
C583 C 0.57978 0.61718 0.29361 0.0
H584 H 0.33788 0.69265 0.15267 0.0
H585 H 0.36849 0.69071 0.20913 0.0
H586 H 0.33555 0.70854 0.18339 0.0
H587 H 0.40656 0.63927 0.17337 0.0
H588 H 0.65801 0.58081 0.34935 0.0
H589 H 0.63103 0.58377 0.2925 0.0
H590 H 0.57706 0.62902 0.32968 0.0
H591 H 0.66648 0.56718 0.31807 0.0
C592 C 0.17536 0.95588 0.35491 0.0
C593 C 0.17924 0.95898 0.37384 0.0
C594 C 0.15805 0.97181 0.3439 0.0
C595 C 0.09462 0.02065 0.34558 0.0
H596 H 0.1402 0.03281 0.29814 0.0
C597 C 0.04922 0.09461 0.3009 0.0
C598 C 0.04478 0.09081 0.28212 0.0
C599 C 0.0652 0.07861 0.3123 0.0
C600 C 0.12689 0.02948 0.31128 0.0
H601 H 0.16688 0.98115 0.39604 0.0
H602 H 0.13764 0.00913 0.37681 0.0
H603 H 0.16835 0.00465 0.31756 0.0
H604 H 0.05243 0.06697 0.26066 0.0
H605 H 0.08056 0.03921 0.28048 0.0
H606 H 0.05333 0.04567 0.33928 0.0
C607 C 0.1476 0.99426 0.37048 0.0
C608 C 0.14297 0.01328 0.32241 0.0
C609 C 0.16483 0.9783 0.3815 0.0
C610 C 0.05621 0.07059 0.27502 0.0
C611 C 0.07235 0.05467 0.28637 0.0
C612 C 0.07861 0.03692 0.33446 0.0
C613 C 0.14424 0.9913 0.35151 0.0
C614 C 0.12698 0.00859 0.33968 0.0
C615 C 0.07713 0.05848 0.30515 0.0
C616 C 0.09448 0.04147 0.31715 0.0
H617 H 0.18648 0.94133 0.3485 0.0
H618 H 0.15547 0.96882 0.3294 0.0
H619 H 0.0812 0.0173 0.35868 0.0
H620 H 0.04056 0.11001 0.30675 0.0
H621 H 0.06875 0.08211 0.32668 0.0
C622 C 0.33872 0.53265 0.8743 0.0
C623 C 0.34267 0.55366 0.86666 0.0
C624 C 0.34981 0.51426 0.86442 0.0
C625 C 0.36856 0.49458 0.81797 0.0
H626 H 0.43944 0.45415 0.84142 0.0
C627 C 0.45694 0.43263 0.7767 0.0
C628 C 0.46365 0.41203 0.78443 0.0
C629 C 0.43957 0.449 0.78699 0.0
C630 C 0.41913 0.46503 0.83473 0.0
H631 H 0.3614 0.57161 0.84252 0.0
H632 H 0.37957 0.53957 0.82523 0.0
H633 H 0.41188 0.48399 0.85895 0.0
H634 H 0.45716 0.39213 0.80877 0.0
H635 H 0.42598 0.42054 0.82669 0.0
H636 H 0.37551 0.47567 0.79378 0.0
C637 C 0.36769 0.53736 0.83882 0.0
C638 C 0.40341 0.48214 0.84479 0.0
C639 C 0.35708 0.55573 0.84874 0.0
C640 C 0.45261 0.408 0.80258 0.0
C641 C 0.43487 0.42429 0.81283 0.0
C642 C 0.38394 0.47735 0.80796 0.0
C643 C 0.36461 0.51648 0.84663 0.0
C644 C 0.37847 0.49727 0.83642 0.0
C645 C 0.42817 0.44502 0.80517 0.0
C646 C 0.40993 0.46256 0.81613 0.0
H647 H 0.32718 0.53039 0.88794 0.0
H648 H 0.34681 0.4983 0.87068 0.0
H649 H 0.349 0.50587 0.81125 0.0
H650 H 0.4655 0.43615 0.76275 0.0
H651 H 0.43562 0.46488 0.78075 0.0
C652 C 0.71513 0.51861 0.63334 0.0
C653 C 0.69443 0.53772 0.62909 0.0
C654 C 0.69941 0.50298 0.64523 0.0
C655 C 0.62714 0.49589 0.68207 0.0
H656 H 0.63506 0.43453 0.67032 0.0
C657 C 0.54184 0.42937 0.72159 0.0
C658 C 0.56037 0.40939 0.72493 0.0
C659 C 0.55939 0.44516 0.71045 0.0
C660 C 0.63309 0.45157 0.67396 0.0
H661 H 0.64058 0.55513 0.63391 0.0
H662 H 0.6133 0.52791 0.65478 0.0
H663 H 0.66303 0.46173 0.6497 0.0
H664 H 0.61141 0.39013 0.71892 0.0
H665 H 0.64278 0.41794 0.69997 0.0
H666 H 0.5973 0.48576 0.70636 0.0
C667 C 0.64193 0.52517 0.64903 0.0
C668 C 0.64905 0.46717 0.6621 0.0
C669 C 0.65758 0.54078 0.63706 0.0
C670 C 0.59682 0.40553 0.7169 0.0
C671 C 0.6145 0.42136 0.70582 0.0
C672 C 0.6113 0.48029 0.69397 0.0
C673 C 0.66268 0.5061 0.65325 0.0
C674 C 0.6461 0.48951 0.66598 0.0
C675 C 0.59588 0.44134 0.70236 0.0
C676 C 0.61389 0.45793 0.69002 0.0
H677 H 0.74391 0.51589 0.62775 0.0
H678 H 0.71639 0.48862 0.6484 0.0
H679 H 0.62495 0.51296 0.6856 0.0
H680 H 0.51369 0.43282 0.72759 0.0
H681 H 0.54393 0.46021 0.70788 0.0
C682 C 0.81309 0.95132 0.1528 0.0
C683 C 0.82628 0.94961 0.1347 0.0
C684 C 0.82214 0.96971 0.1632 0.0
C685 C 0.85972 0.02663 0.16072 0.0
H686 H 0.89782 0.01386 0.20946 0.0
C687 C 0.96219 0.06869 0.21931 0.0
C688 C 0.94587 0.08955 0.22045 0.0
C689 C 0.94373 0.05235 0.20923 0.0
C690 C 0.8873 0.0177 0.19588 0.0
H691 H 0.85817 0.96625 0.11314 0.0
H692 H 0.87404 0.99832 0.13128 0.0
H693 H 0.87156 0.98452 0.19079 0.0
H694 H 0.89787 0.10986 0.2116 0.0
H695 H 0.8653 0.0812 0.19407 0.0
H696 H 0.87667 0.05977 0.16571 0.0
C697 C 0.85632 0.98555 0.13739 0.0
C698 C 0.87181 0.00093 0.18524 0.0
C699 C 0.84721 0.96716 0.12698 0.0
C700 C 0.91085 0.09383 0.21116 0.0
C701 C 0.89241 0.07749 0.20099 0.0
C702 C 0.8751 0.04347 0.17142 0.0
C703 C 0.84466 0.98682 0.15576 0.0
C704 C 0.85827 0.00511 0.16745 0.0
C705 C 0.90864 0.05655 0.19994 0.0
C706 C 0.88962 0.03911 0.18902 0.0
H707 H 0.79633 0.93825 0.15905 0.0
H708 H 0.81205 0.97036 0.17719 0.0
H709 H 0.84924 0.03043 0.14713 0.0
H710 H 0.98913 0.0649 0.22635 0.0
H711 H 0.95727 0.03648 0.20849 0.0
C712 C 0.83643 0.05012 0.64952 0.0
C713 C 0.84644 0.05135 0.63092 0.0
C714 C 0.84455 0.03139 0.65975 0.0
C715 C 0.91269 0.98561 0.66021 0.0
H716 H 0.84512 0.96225 0.69809 0.0
C717 C 0.95374 0.90857 0.70043 0.0
C718 C 0.9472 0.90861 0.71938 0.0
C719 C 0.93831 0.92492 0.68933 0.0
C720 C 0.86444 0.96872 0.68767 0.0
H721 H 0.87056 0.03335 0.60823 0.0
H722 H 0.88475 0.00065 0.62607 0.0
H723 H 0.82261 0.99242 0.67893 0.0
H724 H 0.91864 0.92571 0.74145 0.0
H725 H 0.89221 0.95451 0.72205 0.0
H726 H 0.9548 0.96234 0.66906 0.0
C727 C 0.8713 0.01435 0.63282 0.0
C728 C 0.85151 0.98595 0.67668 0.0
C729 C 0.86316 0.03306 0.6226 0.0
C730 C 0.92422 0.92518 0.72691 0.0
C731 C 0.90888 0.94162 0.71577 0.0
C732 C 0.92563 0.96848 0.6712 0.0
C733 C 0.8629 0.01349 0.6516 0.0
C734 C 0.87555 0.9946 0.66284 0.0
C735 C 0.9161 0.94179 0.69687 0.0
C736 C 0.90172 0.95983 0.68508 0.0
H737 H 0.82396 0.06401 0.65641 0.0
H738 H 0.83806 0.03132 0.67421 0.0
H739 H 0.93226 0.9922 0.64994 0.0
H740 H 0.97094 0.89595 0.69411 0.0
H741 H 0.94382 0.92431 0.67478 0.0
C742 C 0.68209 0.48506 0.12175 0.0
C743 C 0.68366 0.46311 0.12723 0.0
C744 C 0.66275 0.50041 0.13242 0.0
C745 C 0.59265 0.50547 0.17129 0.0
H746 H 0.63521 0.56413 0.17349 0.0
C747 C 0.54722 0.56904 0.22536 0.0
C748 C 0.53788 0.58988 0.21869 0.0
C749 C 0.5637 0.55351 0.21385 0.0
C750 C 0.62285 0.54785 0.17288 0.0
H751 H 0.66638 0.44 0.1482 0.0
H752 H 0.63373 0.46681 0.16719 0.0
H753 H 0.6666 0.53707 0.15434 0.0
H754 H 0.53879 0.61095 0.19485 0.0
H755 H 0.56849 0.58389 0.17478 0.0
H756 H 0.54972 0.51628 0.19044 0.0
C757 C 0.64637 0.47219 0.15439 0.0
C758 C 0.64068 0.53231 0.16183 0.0
C759 C 0.66522 0.45677 0.14354 0.0
C760 C 0.54555 0.59496 0.20031 0.0
C761 C 0.56269 0.57955 0.18887 0.0
C762 C 0.57521 0.52094 0.18257 0.0
C763 C 0.64502 0.49428 0.14903 0.0
C764 C 0.6258 0.51088 0.16081 0.0
C765 C 0.5718 0.55865 0.19552 0.0
C766 C 0.59008 0.54229 0.18344 0.0
H767 H 0.69569 0.49035 0.10912 0.0
H768 H 0.66163 0.51709 0.12756 0.0
H769 H 0.57979 0.48933 0.17066 0.0
H770 H 0.54151 0.56467 0.23946 0.0
H771 H 0.57069 0.53758 0.21935 0.0
C772 C 0.3212 0.46463 0.36932 0.0
C773 C 0.35129 0.45045 0.3746 0.0
C774 C 0.32968 0.4838 0.35956 0.0
C775 C 0.41207 0.52107 0.34818 0.0
H776 H 0.34909 0.53723 0.3063 0.0
C777 C 0.47081 0.57499 0.29049 0.0
C778 C 0.44726 0.59193 0.28379 0.0
C779 C 0.45589 0.55967 0.30278 0.0
C780 C 0.36658 0.53308 0.31812 0.0
H781 H 0.41365 0.44495 0.37328 0.0
H782 H 0.42833 0.47806 0.35635 0.0
H783 H 0.32861 0.5067 0.32579 0.0
H784 H 0.38985 0.60638 0.28537 0.0
H785 H 0.36323 0.57894 0.30639 0.0
H786 H 0.45074 0.54688 0.34015 0.0
C787 C 0.39831 0.47481 0.36012 0.0
C788 C 0.35487 0.51564 0.3293 0.0
C789 C 0.38988 0.45578 0.36985 0.0
C790 C 0.40841 0.59322 0.28982 0.0
C791 C 0.39324 0.57761 0.30195 0.0
C792 C 0.42387 0.53833 0.33697 0.0
C793 C 0.3684 0.48911 0.35489 0.0
C794 C 0.37803 0.50911 0.34421 0.0
C795 C 0.41699 0.56077 0.30862 0.0
C796 C 0.40175 0.54418 0.3216 0.0
H797 H 0.29118 0.46101 0.37285 0.0
H798 H 0.306 0.49453 0.35583 0.0
H799 H 0.43008 0.51684 0.35981 0.0
H800 H 0.50091 0.57347 0.28624 0.0
H801 H 0.47475 0.54672 0.30754 0.0
C802 C 0.17353 0.01945 0.87751 0.0
C803 C 0.18925 0.03818 0.8691 0.0
C804 C 0.15445 0.00357 0.86714 0.0
C805 C 0.10335 0.99486 0.82369 0.0
H806 H 0.13059 0.93419 0.83106 0.0
C807 C 0.05172 0.9277 0.77437 0.0
C808 C 0.04248 0.9071 0.78163 0.0
C809 C 0.0688 0.9437 0.78531 0.0
C810 C 0.12214 0.951 0.829 0.0
H811 H 0.1966 0.05521 0.84331 0.0
H812 H 0.16306 0.02749 0.82518 0.0
H813 H 0.16125 0.96219 0.8498 0.0
H814 H 0.04247 0.88728 0.80622 0.0
H815 H 0.07096 0.91544 0.82554 0.0
H816 H 0.06384 0.98376 0.8031 0.0
C817 C 0.16555 0.0251 0.83979 0.0
C818 C 0.13983 0.96705 0.83972 0.0
C819 C 0.18499 0.04087 0.85014 0.0
C820 C 0.04965 0.90297 0.8002 0.0
C821 C 0.06633 0.91906 0.81122 0.0
C822 C 0.08536 0.9788 0.81309 0.0
C823 C 0.15035 0.0062 0.84817 0.0
C824 C 0.1308 0.98915 0.83709 0.0
C825 C 0.07635 0.9396 0.80389 0.0
C826 C 0.09471 0.95666 0.81552 0.0
H827 H 0.17666 0.01685 0.89208 0.0
H828 H 0.14276 0.98925 0.87397 0.0
H829 H 0.09545 0.01175 0.82153 0.0
H830 H 0.0455 0.93153 0.76025 0.0
H831 H 0.07645 0.9592 0.7791 0.0
C832 C 0.23272 0.10423 0.00649 0.0
C833 C 0.21302 0.1132 0.9914 0.0
C834 C 0.21782 0.1064 0.02409 0.0
C835 C 0.15344 0.14012 0.05206 0.0
H836 H 0.16036 0.09113 0.08559 0.0
C837 C 0.14941 0.14911 0.13017 0.0
C838 C 0.13248 0.13239 0.14077 0.0
C839 C 0.15188 0.14717 0.11124 0.0
C840 C 0.15759 0.10488 0.07636 0.0
H841 H 0.16209 0.13156 0.98308 0.0
H842 H 0.13625 0.13556 0.01397 0.0
H843 H 0.17905 0.08652 0.05381 0.0
H844 H 0.10316 0.10101 0.13977 0.0
H845 H 0.1069 0.09776 0.10658 0.0
H846 H 0.1322 0.15852 0.0747 0.0
C847 C 0.16335 0.1269 0.01208 0.0
C848 C 0.16881 0.10231 0.05819 0.0
C849 C 0.17822 0.12465 0.99441 0.0
C850 C 0.11623 0.1142 0.13195 0.0
C851 C 0.11874 0.11224 0.11298 0.0
C852 C 0.14225 0.14271 0.07027 0.0
C853 C 0.18291 0.11767 0.0271 0.0
C854 C 0.1676 0.12 0.04593 0.0
C855 C 0.13744 0.12847 0.10246 0.0
C856 C 0.14487 0.12521 0.0827 0.0
H857 H 0.26004 0.09574 0.00475 0.0
H858 H 0.23405 0.09952 0.0354 0.0
H859 H 0.15231 0.15408 0.04296 0.0
H860 H 0.16177 0.16344 0.13659 0.0
H861 H 0.16674 0.15989 0.1036 0.0
C862 C 0.37427 0.35128 0.49848 0.0
C863 C 0.33895 0.35896 0.49122 0.0
C864 C 0.38113 0.35169 0.51725 0.0
C865 C 0.34761 0.3766 0.56042 0.0
H866 H 0.39824 0.32646 0.58222 0.0
C867 C 0.38697 0.373 0.63724 0.0
C868 C 0.37828 0.35324 0.64622 0.0
C869 C 0.38534 0.37443 0.61818 0.0
C870 C 0.38393 0.34055 0.57638 0.0
H871 H 0.28325 0.37331 0.49797 0.0
H872 H 0.29496 0.37376 0.53088 0.0
H873 H 0.38744 0.32759 0.54943 0.0
H874 H 0.36278 0.31928 0.6422 0.0
H875 H 0.35922 0.32183 0.60911 0.0
H876 H 0.34288 0.38917 0.58754 0.0
C877 C 0.31762 0.3677 0.522 0.0
C878 C 0.37812 0.34133 0.55753 0.0
C879 C 0.31082 0.36737 0.50316 0.0
C880 C 0.36916 0.33481 0.63571 0.0
C881 C 0.36754 0.33622 0.61671 0.0
C882 C 0.35334 0.3758 0.57932 0.0
C883 C 0.35279 0.35973 0.52927 0.0
C884 C 0.35968 0.35929 0.54931 0.0
C885 C 0.37516 0.35609 0.60771 0.0
C886 C 0.37126 0.35766 0.58753 0.0
H887 H 0.39692 0.34517 0.48961 0.0
H888 H 0.40885 0.34586 0.52232 0.0
H889 H 0.33374 0.39081 0.55452 0.0
H890 H 0.39386 0.38753 0.64497 0.0
H891 H 0.39183 0.38991 0.61165 0.0
C892 C 0.73166 0.38081 0.9936 0.0
C893 C 0.70779 0.37802 0.00905 0.0
C894 C 0.71744 0.37628 0.97613 0.0
C895 C 0.63896 0.34602 0.95204 0.0
H896 H 0.66959 0.38266 0.91109 0.0
C897 C 0.56957 0.3365 0.88078 0.0
C898 C 0.59494 0.33683 0.86569 0.0
C899 C 0.58283 0.34239 0.89812 0.0
C900 C 0.66104 0.37217 0.92236 0.0
H901 H 0.65001 0.36849 0.01819 0.0
H902 H 0.62501 0.36076 0.9877 0.0
H903 H 0.69324 0.39119 0.94166 0.0
H904 H 0.65415 0.34408 0.85706 0.0
H905 H 0.67717 0.3546 0.88733 0.0
H906 H 0.60659 0.3271 0.93273 0.0
C907 C 0.65501 0.3661 0.9891 0.0
C908 C 0.67464 0.37702 0.9399 0.0
C909 C 0.66931 0.37055 0.0066 0.0
C910 C 0.63368 0.34384 0.86831 0.0
C911 C 0.64691 0.34984 0.88568 0.0
C912 C 0.62522 0.34125 0.93452 0.0
C913 C 0.6789 0.3689 0.97363 0.0
C914 C 0.66388 0.36397 0.95497 0.0
C915 C 0.62175 0.34891 0.90083 0.0
C916 C 0.63614 0.35423 0.91947 0.0
H917 H 0.76165 0.38618 0.99502 0.0
H918 H 0.73695 0.37823 0.96461 0.0
H919 H 0.63059 0.33537 0.96322 0.0
H920 H 0.53933 0.33168 0.87922 0.0
H921 H 0.56249 0.3419 0.90943 0.0
C922 C 0.81675 0.13278 0.50116 0.0
C923 C 0.84802 0.13792 0.51279 0.0
C924 C 0.82237 0.13161 0.48227 0.0
C925 C 0.89003 0.15048 0.44589 0.0
H926 H 0.831 0.10978 0.41627 0.0
C927 C 0.90424 0.14929 0.36718 0.0
C928 C 0.86824 0.1501 0.35803 0.0
C929 C 0.9057 0.14434 0.38588 0.0
C930 C 0.84772 0.12124 0.42437 0.0
H931 H 0.91003 0.14492 0.51381 0.0
H932 H 0.91997 0.1426 0.48097 0.0
H933 H 0.82577 0.10801 0.44946 0.0
H934 H 0.80598 0.1451 0.36092 0.0
H935 H 0.80845 0.13636 0.39337 0.0
H936 H 0.91158 0.16386 0.42075 0.0
C937 C 0.89086 0.14004 0.48632 0.0
C938 C 0.84457 0.12031 0.44339 0.0
C939 C 0.88518 0.14136 0.50517 0.0
C940 C 0.83409 0.14471 0.36767 0.0
C941 C 0.83557 0.13955 0.38623 0.0
C942 C 0.89334 0.15132 0.42687 0.0
C943 C 0.85947 0.13538 0.47458 0.0
C944 C 0.8651 0.1352 0.4544 0.0
C945 C 0.87123 0.13981 0.39568 0.0
C946 C 0.87162 0.137 0.41587 0.0
H947 H 0.78773 0.13019 0.50663 0.0
H948 H 0.79736 0.12831 0.47367 0.0
H949 H 0.90591 0.16241 0.45386 0.0
H950 H 0.93099 0.15347 0.36008 0.0
H951 H 0.93367 0.14448 0.39277 0.0
C952 C 0.83092 0.89582 1.00073 0.0
C953 C 0.82499 0.87535 0.00899 0.0
C954 C 0.83777 0.89754 0.982 0.0
C955 C 0.8324 0.86784 0.93802 0.0
H956 H 0.91508 0.90825 0.92461 0.0
C957 C 0.87165 0.89025 0.86287 0.0
C958 C 0.91122 0.89405 0.8589 0.0
C959 C 0.85958 0.88635 0.88087 0.0
C960 C 0.89219 0.89672 0.92809 0.0
H961 H 0.82011 0.84066 0.00395 0.0
H962 H 0.83238 0.84361 0.97115 0.0
H963 H 0.89578 0.90481 0.95634 0.0
H964 H 0.96941 0.89528 0.87041 0.0
H965 H 0.94859 0.88818 0.90165 0.0
H966 H 0.82966 0.85942 0.90966 0.0
C967 C 0.83135 0.85838 0.97916 0.0
C968 C 0.88068 0.89499 0.9463 0.0
C969 C 0.82433 0.85668 0.99795 0.0
C970 C 0.93862 0.89286 0.87312 0.0
C971 C 0.92665 0.88885 0.89103 0.0
C972 C 0.844 0.86956 0.91972 0.0
C973 C 0.83906 0.8788 0.97105 0.0
C974 C 0.85059 0.88059 0.95152 0.0
C975 C 0.88691 0.88607 0.89521 0.0
C976 C 0.87417 0.88398 0.91457 0.0
H977 H 0.83087 0.91055 0.00883 0.0
H978 H 0.84261 0.91357 0.97613 0.0
H979 H 0.80897 0.85668 0.94157 0.0
H980 H 0.84987 0.89116 0.85218 0.0
H981 H 0.82873 0.8844 0.88362 0.0
C982 C 0.70578 0.64038 0.49717 0.0
C983 C 0.6914 0.62556 0.5103 0.0
C984 C 0.68957 0.64124 0.47967 0.0
C985 C 0.6358 0.60618 0.44763 0.0
H986 H 0.62998 0.65897 0.4184 0.0
C987 C 0.58878 0.60206 0.3727 0.0
C988 C 0.61278 0.61358 0.3605 0.0
C989 C 0.59073 0.60625 0.39142 0.0
C990 C 0.63151 0.64408 0.42638 0.0
H991 H 0.64747 0.60067 0.51546 0.0
H992 H 0.61853 0.60263 0.48514 0.0
H993 H 0.64744 0.66127 0.45068 0.0
H994 H 0.65666 0.63884 0.35784 0.0
H995 H 0.66053 0.64616 0.3906 0.0
H996 H 0.62099 0.5889 0.42336 0.0
C997 C 0.64287 0.6133 0.48827 0.0
C998 C 0.64155 0.64539 0.44487 0.0
C999 C 0.65918 0.61238 0.50576 0.0
C1000 C 0.63747 0.63005 0.36708 0.0
C1001 C 0.63959 0.6342 0.38582 0.0
C1002 C 0.62576 0.60487 0.4292 0.0
C1003 C 0.65847 0.62736 0.47487 0.0
C1004 C 0.64436 0.62641 0.45566 0.0
C1005 C 0.61711 0.62187 0.39826 0.0
C1006 C 0.62399 0.62376 0.41826 0.0
H1007 H 0.73016 0.65103 0.50029 0.0
H1008 H 0.70252 0.65218 0.46969 0.0
H1009 H 0.6384 0.59117 0.45538 0.0
H1010 H 0.56982 0.58914 0.36784 0.0
H1011 H 0.57256 0.5967 0.40058 0.0
C1012 C 0.30303 0.63453 0.00288 0.0
C1013 C 0.33093 0.62501 0.99141 0.0
C1014 C 0.30781 0.63405 0.02184 0.0
C1015 C 0.38559 0.63236 0.0557 0.0
H1016 H 0.3012 0.62496 0.09046 0.0
C1017 C 0.35808 0.63485 0.1387 0.0
C1018 C 0.37351 0.65564 0.1423 0.0
C1019 C 0.35491 0.6275 0.1207 0.0
C1020 C 0.32514 0.62677 0.08092 0.0
H1021 H 0.38425 0.60614 0.99097 0.0
H1022 H 0.39284 0.60565 0.024 0.0
H1023 H 0.28945 0.61803 0.05802 0.0
H1024 H 0.39927 0.68465 0.13028 0.0
H1025 H 0.39461 0.67166 0.0989 0.0
H1026 H 0.42095 0.64177 0.07848 0.0
C1027 C 0.36759 0.61374 0.0183 0.0
C1028 C 0.31834 0.62301 0.06237 0.0
C1029 C 0.3627 0.61409 0.99938 0.0
C1030 C 0.38727 0.66856 0.12778 0.0
C1031 C 0.38473 0.66109 0.10988 0.0
C1032 C 0.39226 0.63635 0.07418 0.0
C1033 C 0.34066 0.62411 0.0297 0.0
C1034 C 0.34837 0.62607 0.04955 0.0
C1035 C 0.36786 0.64067 0.10612 0.0
C1036 C 0.36196 0.63394 0.08693 0.0
H1037 H 0.27842 0.64323 0.9972 0.0
H1038 H 0.28675 0.64236 0.03029 0.0
H1039 H 0.40923 0.63505 0.04613 0.0
H1040 H 0.34709 0.6247 0.14973 0.0
H1041 H 0.34194 0.61166 0.11814 0.0
C1042 C 0.20996 0.84912 0.50183 0.0
C1043 C 0.19739 0.86743 0.49185 0.0
C1044 C 0.1958 0.845 0.5194 0.0
C1045 C 0.11533 0.85773 0.55106 0.0
H1046 H 0.18944 0.83975 0.58814 0.0
C1047 C 0.12528 0.84582 0.63443 0.0
C1048 C 0.0907 0.83399 0.6377 0.0
C1049 C 0.13752 0.85029 0.61659 0.0
C1050 C 0.16841 0.84491 0.57798 0.0
H1051 H 0.15962 0.89565 0.49257 0.0
H1052 H 0.13466 0.88834 0.5232 0.0
H1053 H 0.21185 0.84672 0.55707 0.0
H1054 H 0.0414 0.81804 0.62475 0.0
H1055 H 0.06299 0.82565 0.5936 0.0
H1056 H 0.07196 0.85615 0.57208 0.0
C1057 C 0.1553 0.87708 0.51733 0.0
C1058 C 0.18117 0.84866 0.56012 0.0
C1059 C 0.16957 0.88124 0.49975 0.0
C1060 C 0.0684 0.82698 0.6227 0.0
C1061 C 0.08055 0.83154 0.60485 0.0
C1062 C 0.10252 0.85388 0.56893 0.0
C1063 C 0.16859 0.85904 0.52744 0.0
C1064 C 0.1548 0.85508 0.54643 0.0
C1065 C 0.11538 0.84313 0.60158 0.0
C1066 C 0.12892 0.84742 0.5826 0.0
H1067 H 0.23079 0.83791 0.49605 0.0
H1068 H 0.20608 0.83073 0.52668 0.0
H1069 H 0.09422 0.86252 0.54082 0.0
H1070 H 0.14327 0.85132 0.64568 0.0
H1071 H 0.16428 0.85946 0.61454 0.0
C1072 C 0.20873 0.30795 0.34815 0.0
C1073 C 0.21498 0.30437 0.3669 0.0
C1074 C 0.18645 0.29333 0.33794 0.0
C1075 C 0.11311 0.24946 0.34077 0.0
H1076 H 0.15934 0.23086 0.29517 0.0
C1077 C 0.04958 0.17785 0.29923 0.0
C1078 C 0.05072 0.1794 0.28011 0.0
C1079 C 0.0688 0.19327 0.30999 0.0
C1080 C 0.14566 0.23609 0.30771 0.0
H1081 H 0.20131 0.28303 0.38976 0.0
H1082 H 0.16183 0.25758 0.37189 0.0
H1083 H 0.19273 0.25794 0.31373 0.0
H1084 H 0.0712 0.19882 0.25726 0.0
H1085 H 0.1045 0.22591 0.27593 0.0
H1086 H 0.06574 0.22785 0.33466 0.0
C1087 C 0.17431 0.27175 0.36514 0.0
C1088 C 0.16488 0.25159 0.31837 0.0
C1089 C 0.19683 0.28635 0.37538 0.0
C1090 C 0.07089 0.19687 0.27194 0.0
C1091 C 0.08986 0.21241 0.28269 0.0
C1092 C 0.09365 0.23409 0.33001 0.0
C1093 C 0.16964 0.27485 0.34624 0.0
C1094 C 0.14881 0.25846 0.335 0.0
C1095 C 0.08918 0.21077 0.30187 0.0
C1096 C 0.1097 0.2272 0.31333 0.0
H1097 H 0.22156 0.32194 0.34128 0.0
H1098 H 0.18267 0.29639 0.32346 0.0
H1099 H 0.0999 0.25459 0.35346 0.0
H1100 H 0.03436 0.16447 0.30589 0.0
H1101 H 0.06813 0.19125 0.32468 0.0
C1102 C 0.33344 0.18222 0.85512 0.0
C1103 C 0.33111 0.18386 0.87422 0.0
C1104 C 0.34898 0.19931 0.84469 0.0
C1105 C 0.37033 0.25818 0.84508 0.0
H1106 H 0.44478 0.24377 0.80727 0.0
C1107 C 0.45681 0.32441 0.8053 0.0
C1108 C 0.46289 0.32092 0.78659 0.0
C1109 C 0.44085 0.30793 0.81631 0.0
C1110 C 0.42365 0.24809 0.81759 0.0
H1111 H 0.34236 0.20495 0.89731 0.0
H1112 H 0.36955 0.23488 0.87903 0.0
H1113 H 0.41568 0.21479 0.82569 0.0
H1114 H 0.45827 0.29724 0.76488 0.0
H1115 H 0.42878 0.2689 0.78376 0.0
H1116 H 0.37783 0.29147 0.83683 0.0
C1117 C 0.35929 0.22035 0.87216 0.0
C1118 C 0.40704 0.23146 0.82818 0.0
C1119 C 0.34401 0.20316 0.88262 0.0
C1120 C 0.45307 0.30059 0.77915 0.0
C1121 C 0.43677 0.2842 0.79008 0.0
C1122 C 0.38674 0.27484 0.83439 0.0
C1123 C 0.36234 0.2185 0.85309 0.0
C1124 C 0.38011 0.2363 0.84199 0.0
C1125 C 0.43053 0.28762 0.80882 0.0
C1126 C 0.41352 0.26999 0.82046 0.0
H1127 H 0.32416 0.16748 0.84825 0.0
H1128 H 0.35058 0.1975 0.83001 0.0
H1129 H 0.34939 0.26239 0.85553 0.0
H1130 H 0.46438 0.33989 0.81145 0.0
H1131 H 0.43713 0.31103 0.83074 0.0
C1132 C 0.69997 0.21235 0.62863 0.0
C1133 C 0.71967 0.19482 0.63687 0.0
C1134 C 0.67651 0.2261 0.63909 0.0
C1135 C 0.66765 0.24547 0.68608 0.0
H1136 H 0.56781 0.26824 0.67046 0.0
C1137 C 0.57756 0.30094 0.73285 0.0
C1138 C 0.55782 0.31848 0.72471 0.0
C1139 C 0.59461 0.28485 0.7221 0.0
C1140 C 0.59587 0.26223 0.67494 0.0
H1141 H 0.72776 0.17706 0.66228 0.0
H1142 H 0.68727 0.20111 0.68047 0.0
H1143 H 0.60162 0.24178 0.65143 0.0
H1144 H 0.54034 0.33278 0.69882 0.0
H1145 H 0.57097 0.30511 0.6801 0.0
H1146 H 0.66279 0.2662 0.70927 0.0
C1147 C 0.69056 0.20449 0.66602 0.0
C1148 C 0.61514 0.24702 0.66405 0.0
C1149 C 0.7138 0.19073 0.65559 0.0
C1150 C 0.55523 0.31945 0.70556 0.0
C1151 C 0.57259 0.30347 0.6948 0.0
C1152 C 0.64864 0.26078 0.69687 0.0
C1153 C 0.67239 0.22261 0.65799 0.0
C1154 C 0.65121 0.23845 0.66954 0.0
C1155 C 0.5927 0.286 0.70292 0.0
C1156 C 0.61247 0.26938 0.69147 0.0
H1157 H 0.70404 0.21603 0.61428 0.0
H1158 H 0.66298 0.24 0.63254 0.0
H1159 H 0.69577 0.23948 0.69052 0.0
H1160 H 0.57975 0.29955 0.74757 0.0
H1161 H 0.60915 0.27143 0.72887 0.0
C1162 C 0.83079 0.31986 0.14807 0.0
C1163 C 0.82317 0.31686 0.12936 0.0
C1164 C 0.84513 0.3028 0.15882 0.0
C1165 C 0.90028 0.25189 0.15614 0.0
H1166 H 0.85784 0.24079 0.20437 0.0
C1167 C 0.95091 0.17884 0.2002 0.0
C1168 C 0.95399 0.1818 0.21917 0.0
C1169 C 0.93399 0.19483 0.18912 0.0
C1170 C 0.87046 0.24383 0.19105 0.0
H1171 H 0.82419 0.29314 0.10747 0.0
H1172 H 0.85011 0.26355 0.1262 0.0
H1173 H 0.82991 0.26941 0.18531 0.0
H1174 H 0.9421 0.20404 0.24133 0.0
H1175 H 0.91351 0.23219 0.22198 0.0
H1176 H 0.94144 0.22675 0.16195 0.0
C1177 C 0.84502 0.27922 0.13247 0.0
C1178 C 0.85429 0.26019 0.18009 0.0
C1179 C 0.83025 0.29623 0.12174 0.0
C1180 C 0.93992 0.20119 0.22678 0.0
C1181 C 0.92329 0.21728 0.21567 0.0
C1182 C 0.91672 0.23566 0.16716 0.0
C1183 C 0.85266 0.28233 0.15113 0.0
C1184 C 0.86908 0.26446 0.16254 0.0
C1185 C 0.91998 0.2143 0.19667 0.0
C1186 C 0.90213 0.23144 0.18481 0.0
H1187 H 0.82661 0.33558 0.1544 0.0
H1188 H 0.85125 0.30581 0.1731 0.0
H1189 H 0.91264 0.25498 0.14276 0.0
H1190 H 0.96114 0.16402 0.19389 0.0
H1191 H 0.93141 0.19173 0.17463 0.0
C1192 C 0.84282 0.70119 0.62171 0.0
C1193 C 0.82393 0.68295 0.62942 0.0
C1194 C 0.85687 0.71797 0.63282 0.0
C1195 C 0.88642 0.72884 0.68052 0.0
H1196 H 0.88171 0.78933 0.66511 0.0
C1197 C 0.97004 0.79681 0.71836 0.0
C1198 C 0.95136 0.81692 0.72047 0.0
C1199 C 0.9537 0.78068 0.7073 0.0
C1200 C 0.88294 0.77254 0.66971 0.0
H1201 H 0.80354 0.66844 0.65476 0.0
H1202 H 0.8276 0.69777 0.67411 0.0
H1203 H 0.85317 0.76113 0.64588 0.0
H1204 H 0.90135 0.8361 0.71244 0.0
H1205 H 0.87191 0.80768 0.69372 0.0
H1206 H 0.91539 0.74026 0.70453 0.0
C1207 C 0.83244 0.6989 0.65952 0.0
C1208 C 0.867 0.75634 0.65856 0.0
C1209 C 0.81856 0.68211 0.64843 0.0
C1210 C 0.91604 0.82061 0.71131 0.0
C1211 C 0.89949 0.80443 0.70037 0.0
C1212 C 0.90225 0.74504 0.69168 0.0
C1213 C 0.85219 0.71693 0.65189 0.0
C1214 C 0.8686 0.73428 0.66382 0.0
C1215 C 0.91817 0.78427 0.69818 0.0
C1216 C 0.90082 0.76708 0.68639 0.0
H1217 H 0.84781 0.70219 0.60712 0.0
H1218 H 0.87236 0.73147 0.62649 0.0
H1219 H 0.88864 0.71201 0.6849 0.0
H1220 H 0.99726 0.79348 0.72532 0.0
H1221 H 0.96919 0.76548 0.70572 0.0
C1222 C 0.71555 0.77741 0.12614 0.0
C1223 C 0.71077 0.80011 0.1276 0.0
C1224 C 0.6938 0.76307 0.13703 0.0
C1225 C 0.60461 0.75654 0.1637 0.0
H1226 H 0.66429 0.71434 0.19149 0.0
C1227 C 0.53221 0.70023 0.21786 0.0
C1228 C 0.54693 0.67906 0.21984 0.0
C1229 C 0.55143 0.71553 0.20677 0.0
C1230 C 0.64697 0.72573 0.18363 0.0
H1231 H 0.67792 0.82535 0.14132 0.0
H1232 H 0.63897 0.80014 0.15987 0.0
H1233 H 0.69778 0.73959 0.17102 0.0
H1234 H 0.59253 0.65703 0.21139 0.0
H1235 H 0.62532 0.68328 0.19168 0.0
H1236 H 0.55364 0.74231 0.17579 0.0
C1237 C 0.65997 0.79359 0.15035 0.0
C1238 C 0.66628 0.74028 0.17196 0.0
C1239 C 0.68218 0.80801 0.13964 0.0
C1240 C 0.58086 0.67335 0.21035 0.0
C1241 C 0.59977 0.6885 0.19909 0.0
C1242 C 0.58515 0.74172 0.17515 0.0
C1243 C 0.66622 0.77103 0.14942 0.0
C1244 C 0.64532 0.75578 0.16185 0.0
C1245 C 0.58549 0.70987 0.1972 0.0
C1246 C 0.60607 0.72604 0.18525 0.0
H1247 H 0.73649 0.77065 0.11671 0.0
H1248 H 0.6987 0.74571 0.13584 0.0
H1249 H 0.58778 0.76829 0.15597 0.0
H1250 H 0.50624 0.7051 0.22516 0.0
H1251 H 0.53984 0.73188 0.20593 0.0
C1252 C 0.3223 0.81677 0.35249 0.0
C1253 C 0.32045 0.81513 0.37162 0.0
C1254 C 0.33778 0.79986 0.34211 0.0
C1255 C 0.36257 0.74119 0.34334 0.0
H1256 H 0.43105 0.75725 0.30329 0.0
C1257 C 0.4513 0.67766 0.30233 0.0
C1258 C 0.45311 0.68083 0.28332 0.0
C1259 C 0.43518 0.69363 0.31358 0.0
C1260 C 0.41167 0.75246 0.3143 0.0
H1261 H 0.33304 0.79417 0.39481 0.0
H1262 H 0.35995 0.76459 0.37667 0.0
H1263 H 0.40199 0.7856 0.32186 0.0
H1264 H 0.43944 0.70326 0.26125 0.0
H1265 H 0.411 0.73084 0.28077 0.0
H1266 H 0.37231 0.708 0.33569 0.0
C1267 C 0.34908 0.77893 0.36969 0.0
C1268 C 0.39497 0.76874 0.32495 0.0
C1269 C 0.3336 0.79589 0.38009 0.0
C1270 C 0.43847 0.70027 0.27584 0.0
C1271 C 0.42243 0.71619 0.28706 0.0
C1272 C 0.3793 0.72487 0.33265 0.0
C1273 C 0.3518 0.78084 0.35059 0.0
C1274 C 0.36998 0.76334 0.33952 0.0
C1275 C 0.42067 0.71313 0.30607 0.0
C1276 C 0.40383 0.73033 0.31791 0.0
H1277 H 0.31175 0.83117 0.34549 0.0
H1278 H 0.33867 0.80169 0.3274 0.0
H1279 H 0.34318 0.73647 0.35436 0.0
H1280 H 0.46226 0.66283 0.3085 0.0
H1281 H 0.43458 0.69083 0.32819 0.0
C1282 C 0.18606 0.68938 0.85829 0.0
C1283 C 0.19918 0.69595 0.8756 0.0
C1284 C 0.16476 0.70364 0.84723 0.0
C1285 C 0.14852 0.76265 0.84067 0.0
H1286 H 0.06598 0.74356 0.80816 0.0
C1287 C 0.05474 0.82311 0.79974 0.0
C1288 C 0.04688 0.81807 0.78143 0.0
C1289 C 0.07234 0.80784 0.81121 0.0
C1290 C 0.08924 0.74907 0.81705 0.0
H1291 H 0.19829 0.72211 0.89534 0.0
H1292 H 0.16045 0.74687 0.87623 0.0
H1293 H 0.09637 0.71734 0.82888 0.0
H1294 H 0.05109 0.79317 0.7607 0.0
H1295 H 0.08221 0.76634 0.7808 0.0
H1296 H 0.14131 0.79437 0.82892 0.0
C1297 C 0.16752 0.73092 0.87096 0.0
C1298 C 0.10665 0.73406 0.82893 0.0
C1299 C 0.18903 0.71671 0.88195 0.0
C1300 C 0.05702 0.79746 0.77476 0.0
C1301 C 0.07449 0.78209 0.78629 0.0
C1302 C 0.13103 0.77763 0.82888 0.0
C1303 C 0.15593 0.72477 0.85328 0.0
C1304 C 0.1365 0.74069 0.84091 0.0
C1305 C 0.08237 0.78715 0.80464 0.0
C1306 C 0.10118 0.77103 0.81695 0.0
H1307 H 0.19385 0.67358 0.85292 0.0
H1308 H 0.15667 0.69842 0.83364 0.0
H1309 H 0.17203 0.76825 0.84938 0.0
H1310 H 0.04731 0.83892 0.80521 0.0
H1311 H 0.07766 0.81215 0.82532 0.0
loop_
_geom_bond_atom_site_label_1
_geom_bond_atom_site_label_2
_geom_bond_distance
_geom_bond_site_symmetry_2
_ccdc_geom_bond_type
P0 O11 1.490 . S
P0 C14 1.812 . S
P0 C20 1.803 . S
P0 C26 1.819 . S
H1 C15 0.941 . S
H2 C16 0.939 . S
H3 C18 0.940 . S
H4 C19 0.940 . S
H5 C21 0.939 . S
H6 C22 0.942 . S
H7 C24 0.940 . S
H8 C25 0.939 . S
H9 C27 0.941 . S
H10 C31 0.939 . S
O11 P0 1.490 . S
H12 C28 0.939 . S
H13 C30 0.940 . S
C14 P0 1.812 . S
C14 C15 1.389 . S
C14 C19 1.391 . S
C15 H1 0.941 . S
C15 C14 1.389 . S
C15 C16 1.397 . S
C16 H2 0.939 . S
C16 C15 1.397 . S
C16 C17 1.378 . S
C17 C16 1.378 . S
C17 C18 1.378 . S
C18 H3 0.940 . S
C18 C17 1.378 . S
C18 C19 1.396 . S
C19 H4 0.940 . S
C19 C14 1.391 . S
C19 C18 1.396 . S
C20 P0 1.803 . S
C20 C21 1.378 . S
C20 C25 1.400 . S
C21 H5 0.939 . S
C21 C20 1.378 . S
C21 C22 1.361 . S
C22 H6 0.942 . S
C22 C21 1.361 . S
C22 C23 1.369 . S
C23 C22 1.369 . S
C23 C24 1.404 . S
C24 H7 0.940 . S
C24 C23 1.404 . S
C24 C25 1.389 . S
C25 H8 0.939 . S
C25 C20 1.400 . S
C25 C24 1.389 . S
C26 P0 1.819 . S
C26 C27 1.391 . S
C26 C31 1.391 . S
C27 H9 0.941 . S
C27 C26 1.391 . S
C27 C28 1.396 . S
C28 H12 0.939 . S
C28 C27 1.396 . S
C28 C29 1.397 . S
C29 C28 1.397 . S
C29 C30 1.385 . S
C30 H13 0.940 . S
C30 C29 1.385 . S
C30 C31 1.388 . S
C31 H10 0.939 . S
C31 C26 1.391 . S
C31 C30 1.388 . S
P32 O43 1.490 . S
P32 C46 1.812 . S
P32 C52 1.803 . S
P32 C58 1.819 . S
H33 C47 0.941 . S
H34 C48 0.939 . S
H35 C50 0.940 . S
H36 C51 0.940 . S
H37 C53 0.939 . S
H38 C54 0.942 . S
H39 C56 0.940 . S
H40 C57 0.939 . S
H41 C59 0.941 . S
H42 C63 0.939 . S
O43 P32 1.490 . S
H44 C60 0.939 . S
H45 C62 0.940 . S
C46 P32 1.812 . S
C46 C47 1.389 . S
C46 C51 1.391 . S
C47 H33 0.941 . S
C47 C46 1.389 . S
C47 C48 1.397 . S
C48 H34 0.939 . S
C48 C47 1.397 . S
C48 C49 1.378 . S
C49 C48 1.378 . S
C49 C50 1.378 . S
C50 H35 0.940 . S
C50 C49 1.378 . S
C50 C51 1.396 . S
C51 H36 0.940 . S
C51 C46 1.391 . S
C51 C50 1.396 . S
C52 P32 1.803 . S
C52 C53 1.378 . S
C52 C57 1.400 . S
C53 H37 0.939 . S
C53 C52 1.378 . S
C53 C54 1.361 . S
C54 H38 0.942 . S
C54 C53 1.361 . S
C54 C55 1.369 . S
C55 C54 1.369 . S
C55 C56 1.404 . S
C56 H39 0.940 . S
C56 C55 1.404 . S
C56 C57 1.389 . S
C57 H40 0.939 . S
C57 C52 1.400 . S
C57 C56 1.389 . S
C58 P32 1.819 . S
C58 C59 1.391 . S
C58 C63 1.391 . S
C59 H41 0.941 . S
C59 C58 1.391 . S
C59 C60 1.396 . S
C60 H44 0.939 . S
C60 C59 1.396 . S
C60 C61 1.397 . S
C61 C60 1.397 . S
C61 C62 1.385 . S
C62 H45 0.940 . S
C62 C61 1.385 . S
C62 C63 1.388 . S
C63 H42 0.939 . S
C63 C58 1.391 . S
C63 C62 1.388 . S
P64 O75 1.490 . S
P64 C78 1.812 . S
P64 C84 1.803 . S
P64 C90 1.819 . S
H65 C79 0.941 . S
H66 C80 0.939 . S
H67 C82 0.940 . S
H68 C83 0.940 . S
H69 C85 0.939 . S
H70 C86 0.942 . S
H71 C88 0.940 . S
H72 C89 0.939 . S
H73 C91 0.941 . S
H74 C95 0.939 . S
O75 P64 1.490 . S
H76 C92 0.939 . S
H77 C94 0.940 . S
C78 P64 1.812 . S
C78 C79 1.389 . S
C78 C83 1.391 . S
C79 H65 0.941 . S
C79 C78 1.389 . S
C79 C80 1.397 . S
C80 H66 0.939 . S
C80 C79 1.397 . S
C80 C81 1.378 . S
C81 C80 1.378 . S
C81 C82 1.378 . S
C82 H67 0.940 . S
C82 C81 1.378 . S
C82 C83 1.396 . S
C83 H68 0.940 . S
C83 C78 1.391 . S
C83 C82 1.396 . S
C84 P64 1.803 . S
C84 C85 1.378 . S
C84 C89 1.400 . S
C85 H69 0.939 . S
C85 C84 1.378 . S
C85 C86 1.361 . S
C86 H70 0.942 . S
C86 C85 1.361 . S
C86 C87 1.369 . S
C87 C86 1.369 . S
C87 C88 1.404 . S
C88 H71 0.940 . S
C88 C87 1.404 . S
C88 C89 1.389 . S
C89 H72 0.939 . S
C89 C84 1.400 . S
C89 C88 1.389 . S
C90 P64 1.819 . S
C90 C91 1.391 . S
C90 C95 1.391 . S
C91 H73 0.941 . S
C91 C90 1.391 . S
C91 C92 1.396 . S
C92 H76 0.939 . S
C92 C91 1.396 . S
C92 C93 1.397 . S
C93 C92 1.397 . S
C93 C94 1.385 . S
C94 H77 0.940 . S
C94 C93 1.385 . S
C94 C95 1.388 . S
C95 H74 0.939 . S
C95 C90 1.391 . S
C95 C94 1.388 . S
P96 O107 1.490 . S
P96 C110 1.812 . S
P96 C116 1.803 . S
P96 C122 1.819 . S
H97 C111 0.941 . S
H98 C112 0.939 . S
H99 C114 0.940 . S
H100 C115 0.940 . S
H101 C117 0.939 . S
H102 C118 0.942 . S
H103 C120 0.940 . S
H104 C121 0.939 . S
H105 C123 0.941 . S
H106 C127 0.939 . S
O107 P96 1.490 . S
H108 C124 0.939 . S
H109 C126 0.940 . S
C110 P96 1.812 . S
C110 C111 1.389 . S
C110 C115 1.391 . S
C111 H97 0.941 . S
C111 C110 1.389 . S
C111 C112 1.397 . S
C112 H98 0.939 . S
C112 C111 1.397 . S
C112 C113 1.378 . S
C113 C112 1.378 . S
C113 C114 1.378 . S
C114 H99 0.940 . S
C114 C113 1.378 . S
C114 C115 1.396 . S
C115 H100 0.940 . S
C115 C110 1.391 . S
C115 C114 1.396 . S
C116 P96 1.803 . S
C116 C117 1.378 . S
C116 C121 1.400 . S
C117 H101 0.939 . S
C117 C116 1.378 . S
C117 C118 1.361 . S
C118 H102 0.942 . S
C118 C117 1.361 . S
C118 C119 1.369 . S
C119 C118 1.369 . S
C119 C120 1.404 . S
C120 H103 0.940 . S
C120 C119 1.404 . S
C120 C121 1.389 . S
C121 H104 0.939 . S
C121 C116 1.400 . S
C121 C120 1.389 . S
C122 P96 1.819 . S
C122 C123 1.391 . S
C122 C127 1.391 . S
C123 H105 0.941 . S
C123 C122 1.391 . S
C123 C124 1.396 . S
C124 H108 0.939 . S
C124 C123 1.396 . S
C124 C125 1.397 . S
C125 C124 1.397 . S
C125 C126 1.385 . S
C126 H109 0.940 . S
C126 C125 1.385 . S
C126 C127 1.388 . S
C127 H106 0.939 . S
C127 C122 1.391 . S
C127 C126 1.388 . S
P128 O139 1.490 . S
P128 C142 1.812 . S
P128 C148 1.803 . S
P128 C154 1.819 . S
H129 C143 0.941 . S
H130 C144 0.939 . S
H131 C146 0.940 . S
H132 C147 0.940 . S
H133 C149 0.939 . S
H134 C150 0.942 . S
H135 C152 0.940 . S
H136 C153 0.939 . S
H137 C155 0.941 . S
H138 C159 0.939 . S
O139 P128 1.490 . S
H140 C156 0.939 . S
H141 C158 0.940 . S
C142 P128 1.812 . S
C142 C143 1.389 . S
C142 C147 1.391 . S
C143 H129 0.941 . S
C143 C142 1.389 . S
C143 C144 1.397 . S
C144 H130 0.939 . S
C144 C143 1.397 . S
C144 C145 1.378 . S
C145 C144 1.378 . S
C145 C146 1.378 . S
C146 H131 0.940 . S
C146 C145 1.378 . S
C146 C147 1.396 . S
C147 H132 0.940 . S
C147 C142 1.391 . S
C147 C146 1.396 . S
C148 P128 1.803 . S
C148 C149 1.378 . S
C148 C153 1.400 . S
C149 H133 0.939 . S
C149 C148 1.378 . S
C149 C150 1.361 . S
C150 H134 0.942 . S
C150 C149 1.361 . S
C150 C151 1.369 . S
C151 C150 1.369 . S
C151 C152 1.404 . S
C152 H135 0.940 . S
C152 C151 1.404 . S
C152 C153 1.389 . S
C153 H136 0.939 . S
C153 C148 1.400 . S
C153 C152 1.389 . S
C154 P128 1.819 . S
C154 C155 1.391 . S
C154 C159 1.391 . S
C155 H137 0.941 . S
C155 C154 1.391 . S
C155 C156 1.396 . S
C156 H140 0.939 . S
C156 C155 1.396 . S
C156 C157 1.397 . S
C157 C156 1.397 . S
C157 C158 1.385 . S
C158 H141 0.940 . S
C158 C157 1.385 . S
C158 C159 1.388 . S
C159 H138 0.939 . S
C159 C154 1.391 . S
C159 C158 1.388 . S
P160 O171 1.490 . S
P160 C174 1.812 . S
P160 C180 1.803 . S
P160 C186 1.819 . S
H161 C175 0.941 . S
H162 C176 0.939 . S
H163 C178 0.940 . S
H164 C179 0.940 . S
H165 C181 0.939 . S
H166 C182 0.942 . S
H167 C184 0.940 . S
H168 C185 0.939 . S
H169 C187 0.941 . S
H170 C191 0.939 . S
O171 P160 1.490 . S
H172 C188 0.939 . S
H173 C190 0.940 . S
C174 P160 1.812 . S
C174 C175 1.389 . S
C174 C179 1.391 . S
C175 H161 0.941 . S
C175 C174 1.389 . S
C175 C176 1.397 . S
C176 H162 0.939 . S
C176 C175 1.397 . S
C176 C177 1.378 . S
C177 C176 1.378 . S
C177 C178 1.378 . S
C178 H163 0.940 . S
C178 C177 1.378 . S
C178 C179 1.396 . S
C179 H164 0.940 . S
C179 C174 1.391 . S
C179 C178 1.396 . S
C180 P160 1.803 . S
C180 C181 1.378 . S
C180 C185 1.400 . S
C181 H165 0.939 . S
C181 C180 1.378 . S
C181 C182 1.361 . S
C182 H166 0.942 . S
C182 C181 1.361 . S
C182 C183 1.369 . S
C183 C182 1.369 . S
C183 C184 1.404 . S
C184 H167 0.940 . S
C184 C183 1.404 . S
C184 C185 1.389 . S
C185 H168 0.939 . S
C185 C180 1.400 . S
C185 C184 1.389 . S
C186 P160 1.819 . S
C186 C187 1.391 . S
C186 C191 1.391 . S
C187 H169 0.941 . S
C187 C186 1.391 . S
C187 C188 1.396 . S
C188 H172 0.939 . S
C188 C187 1.396 . S
C188 C189 1.397 . S
C189 C188 1.397 . S
C189 C190 1.385 . S
C190 H173 0.940 . S
C190 C189 1.385 . S
C190 C191 1.388 . S
C191 H170 0.939 . S
C191 C186 1.391 . S
C191 C190 1.388 . S
P192 O203 1.490 . S
P192 C206 1.812 . S
P192 C212 1.803 . S
P192 C218 1.819 . S
H193 C207 0.941 . S
H194 C208 0.939 . S
H195 C210 0.940 . S
H196 C211 0.940 . S
H197 C213 0.939 . S
H198 C214 0.942 . S
H199 C216 0.940 . S
H200 C217 0.939 . S
H201 C219 0.941 . S
H202 C223 0.939 . S
O203 P192 1.490 . S
H204 C220 0.939 . S
H205 C222 0.940 . S
C206 P192 1.812 . S
C206 C207 1.389 . S
C206 C211 1.391 . S
C207 H193 0.941 . S
C207 C206 1.389 . S
C207 C208 1.397 . S
C208 H194 0.939 . S
C208 C207 1.397 . S
C208 C209 1.378 . S
C209 C208 1.378 . S
C209 C210 1.378 . S
C210 H195 0.940 . S
C210 C209 1.378 . S
C210 C211 1.396 . S
C211 H196 0.940 . S
C211 C206 1.391 . S
C211 C210 1.396 . S
C212 P192 1.803 . S
C212 C213 1.378 . S
C212 C217 1.400 . S
C213 H197 0.939 . S
C213 C212 1.378 . S
C213 C214 1.361 . S
C214 H198 0.942 . S
C214 C213 1.361 . S
C214 C215 1.369 . S
C215 C214 1.369 . S
C215 C216 1.404 . S
C216 H199 0.940 . S
C216 C215 1.404 . S
C216 C217 1.389 . S
C217 H200 0.939 . S
C217 C212 1.400 . S
C217 C216 1.389 . S
C218 P192 1.819 . S
C218 C219 1.391 . S
C218 C223 1.391 . S
C219 H201 0.941 . S
C219 C218 1.391 . S
C219 C220 1.396 . S
C220 H204 0.939 . S
C220 C219 1.396 . S
C220 C221 1.397 . S
C221 C220 1.397 . S
C221 C222 1.385 . S
C222 H205 0.940 . S
C222 C221 1.385 . S
C222 C223 1.388 . S
C223 H202 0.939 . S
C223 C218 1.391 . S
C223 C222 1.388 . S
P224 O235 1.490 . S
P224 C238 1.812 . S
P224 C244 1.803 . S
P224 C250 1.819 . S
H225 C239 0.941 . S
H226 C240 0.939 . S
H227 C242 0.940 . S
H228 C243 0.940 . S
H229 C245 0.939 . S
H230 C246 0.942 . S
H231 C248 0.940 . S
H232 C249 0.939 . S
H233 C251 0.941 . S
H234 C255 0.939 . S
O235 P224 1.490 . S
H236 C252 0.939 . S
H237 C254 0.940 . S
C238 P224 1.812 . S
C238 C239 1.389 . S
C238 C243 1.391 . S
C239 H225 0.941 . S
C239 C238 1.389 . S
C239 C240 1.397 . S
C240 H226 0.939 . S
C240 C239 1.397 . S
C240 C241 1.378 . S
C241 C240 1.378 . S
C241 C242 1.378 . S
C242 H227 0.940 . S
C242 C241 1.378 . S
C242 C243 1.396 . S
C243 H228 0.940 . S
C243 C238 1.391 . S
C243 C242 1.396 . S
C244 P224 1.803 . S
C244 C245 1.378 . S
C244 C249 1.400 . S
C245 H229 0.939 . S
C245 C244 1.378 . S
C245 C246 1.361 . S
C246 H230 0.942 . S
C246 C245 1.361 . S
C246 C247 1.369 . S
C247 C246 1.369 . S
C247 C248 1.404 . S
C248 H231 0.940 . S
C248 C247 1.404 . S
C248 C249 1.389 . S
C249 H232 0.939 . S
C249 C244 1.400 . S
C249 C248 1.389 . S
C250 P224 1.819 . S
C250 C251 1.391 . S
C250 C255 1.391 . S
C251 H233 0.941 . S
C251 C250 1.391 . S
C251 C252 1.396 . S
C252 H236 0.939 . S
C252 C251 1.396 . S
C252 C253 1.397 . S
C253 C252 1.397 . S
C253 C254 1.385 . S
C254 H237 0.940 . S
C254 C253 1.385 . S
C254 C255 1.388 . S
C255 H234 0.939 . S
C255 C250 1.391 . S
C255 C254 1.388 . S
Tb256 N285 2.617 . S
Tb256 N291 2.572 . S
Tb256 O300 2.465 . S
Tb256 O301 2.387 . S
Tb256 O303 2.428 . S
Tb256 O304 2.308 . S
Tb256 O308 2.349 . S
Tb256 O311 2.393 . S
Tb256 C320 2.802 . S
C257 N258 1.379 . S
C257 C260 1.416 . S
C257 C264 1.424 . S
N258 C257 1.379 . S
N258 C261 1.334 . S
N258 Tb267 2.617 . S
C259 C261 1.390 . S
C259 C262 1.339 . S
C259 H279 0.930 . S
C260 C257 1.416 . S
C260 C262 1.416 . S
C260 C266 1.448 . S
C261 N258 1.334 . S
C261 C259 1.390 . S
C261 H272 0.930 . S
C262 C259 1.339 . S
C262 C260 1.416 . S
C262 H283 0.930 . S
C263 C264 1.413 . S
C263 C265 1.427 . S
C263 C269 1.416 . S
C264 C257 1.424 . S
C264 C263 1.413 . S
C264 N268 1.361 . S
C265 C263 1.427 . S
C265 C266 1.328 . S
C265 H280 0.929 . S
C266 C260 1.448 . S
C266 C265 1.328 . S
C266 H281 0.930 . S
Tb267 N258 2.617 . S
Tb267 N268 2.572 . S
Tb267 O302 2.349 1_655 S
Tb267 O305 2.393 . S
Tb267 O306 2.465 . S
Tb267 O307 2.387 . S
Tb267 O309 2.428 . S
Tb267 O310 2.308 1_655 S
Tb267 C331 2.802 . S
N268 C264 1.361 . S
N268 Tb267 2.572 . S
N268 C270 1.340 . S
C269 C263 1.416 . S
C269 C271 1.332 . S
C269 H277 0.931 . S
C270 N268 1.340 . S
C270 C271 1.407 . S
C270 H276 0.930 . S
C271 C269 1.332 . S
C271 C270 1.407 . S
C271 H273 0.929 . S
H272 C261 0.930 . S
H273 C271 0.929 . S
H274 C289 0.930 . S
H275 C296 0.929 . S
H276 C270 0.930 . S
H277 C269 0.931 . S
H278 C292 0.930 . S
H279 C259 0.930 . S
H280 C265 0.929 . S
H281 C266 0.930 . S
H282 C287 0.930 . S
H283 C262 0.930 . S
H284 C295 0.931 . S
N285 Tb256 2.617 . S
N285 C286 1.379 . S
N285 C289 1.334 . S
C286 N285 1.379 . S
C286 C288 1.416 . S
C286 C294 1.424 . S
C287 H282 0.930 . S
C287 C289 1.390 . S
C287 C290 1.339 . S
C288 C286 1.416 . S
C288 C290 1.416 . S
C288 C321 1.448 . S
C289 H274 0.930 . S
C289 N285 1.334 . S
C289 C287 1.390 . S
C290 C287 1.339 . S
C290 C288 1.416 . S
C290 H297 0.930 . S
N291 Tb256 2.572 . S
N291 C292 1.340 . S
N291 C294 1.361 . S
C292 H278 0.930 . S
C292 N291 1.340 . S
C292 C296 1.407 . S
C293 C294 1.413 . S
C293 C295 1.416 . S
C293 C322 1.427 . S
C294 C286 1.424 . S
C294 N291 1.361 . S
C294 C293 1.413 . S
C295 H284 0.931 . S
C295 C293 1.416 . S
C295 C296 1.332 . S
C296 H275 0.929 . S
C296 C292 1.407 . S
C296 C295 1.332 . S
H297 C290 0.930 . S
H298 C321 0.930 . S
H299 C322 0.929 . S
O300 Tb256 2.465 . S
O300 C320 1.264 . S
O301 Tb256 2.387 . S
O301 C312 1.264 . S
O302 Tb267 2.349 1_455 S
O302 C312 1.243 . S
O303 Tb256 2.428 . S
O303 C320 1.256 . S
O304 Tb256 2.308 . S
O304 C319 1.266 1_455 S
O305 Tb267 2.393 . S
O305 C319 1.248 . S
O306 Tb267 2.465 . S
O306 C331 1.264 . S
O307 Tb267 2.387 . S
O307 C323 1.264 . S
O308 Tb256 2.349 . S
O308 C323 1.243 1_455 S
O309 Tb267 2.428 . S
O309 C331 1.256 . S
O310 Tb267 2.308 1_455 S
O310 C330 1.266 . S
O311 Tb256 2.393 . S
O311 C330 1.248 . S
C312 O301 1.264 . S
C312 O302 1.243 . S
C313 C316 1.399 . S
C313 C318 1.383 . S
C313 C320 1.496 . S
C314 C315 1.399 . S
C314 C318 1.389 . S
C315 C314 1.399 . S
C315 C317 1.380 . S
C315 H332 0.929 . S
C316 C313 1.399 . S
C316 C317 1.392 . S
C316 H333 0.929 . S
C317 C315 1.380 . S
C317 C316 1.392 . S
C317 H334 0.929 . S
C318 C313 1.383 . S
C318 C314 1.389 . S
C318 H335 0.931 . S
C319 O304 1.266 1_655 S
C319 O305 1.248 . S
C320 Tb256 2.802 . S
C320 O300 1.264 . S
C320 O303 1.256 . S
C320 C313 1.496 . S
C321 C288 1.448 . S
C321 H298 0.930 . S
C321 C322 1.328 . S
C322 C293 1.427 . S
C322 H299 0.929 . S
C322 C321 1.328 . S
C323 O307 1.264 . S
C323 O308 1.243 1_655 S
C324 C327 1.399 . S
C324 C328 1.383 . S
C324 C331 1.496 . S
C325 C326 1.399 . S
C325 C328 1.389 . S
C326 C325 1.399 . S
C326 C329 1.380 . S
C326 H336 0.929 . S
C327 C324 1.399 . S
C327 C329 1.392 . S
C327 H337 0.929 . S
C328 C324 1.383 . S
C328 C325 1.389 . S
C328 H338 0.931 . S
C329 C326 1.380 . S
C329 C327 1.392 . S
C329 H339 0.929 . S
C330 O310 1.266 . S
C330 O311 1.248 . S
C331 Tb267 2.802 . S
C331 O306 1.264 . S
C331 O309 1.256 . S
C331 C324 1.496 . S
H332 C315 0.929 . S
H333 C316 0.929 . S
H334 C317 0.929 . S
H335 C318 0.931 . S
H336 C326 0.929 . S
H337 C327 0.929 . S
H338 C328 0.931 . S
H339 C329 0.929 . S
Tb340 N369 2.617 . S
Tb340 N375 2.572 . S
Tb340 O384 2.465 . S
Tb340 O385 2.387 . S
Tb340 O387 2.428 . S
Tb340 O388 2.308 . S
Tb340 O392 2.349 . S
Tb340 O395 2.393 . S
Tb340 C404 2.802 . S
C341 N342 1.379 . S
C341 C344 1.416 . S
C341 C348 1.424 . S
N342 C341 1.379 . S
N342 C345 1.334 . S
N342 Tb351 2.617 . S
C343 C345 1.390 . S
C343 C346 1.339 . S
C343 H363 0.930 . S
C344 C341 1.416 . S
C344 C346 1.416 . S
C344 C350 1.448 . S
C345 N342 1.334 . S
C345 C343 1.390 . S
C345 H356 0.930 . S
C346 C343 1.339 . S
C346 C344 1.416 . S
C346 H367 0.930 . S
C347 C348 1.413 . S
C347 C349 1.427 . S
C347 C353 1.416 . S
C348 C341 1.424 . S
C348 C347 1.413 . S
C348 N352 1.361 . S
C349 C347 1.427 . S
C349 C350 1.328 . S
C349 H364 0.929 . S
C350 C344 1.448 . S
C350 C349 1.328 . S
C350 H365 0.930 . S
Tb351 N342 2.617 . S
Tb351 N352 2.572 . S
Tb351 O386 2.349 . S
Tb351 O389 2.393 . S
Tb351 O390 2.465 . S
Tb351 O391 2.387 . S
Tb351 O393 2.428 . S
Tb351 O394 2.308 . S
Tb351 C415 2.802 . S
N352 C348 1.361 . S
N352 Tb351 2.572 . S
N352 C354 1.340 . S
C353 C347 1.416 . S
C353 C355 1.332 . S
C353 H361 0.931 . S
C354 N352 1.340 . S
C354 C355 1.407 . S
C354 H360 0.930 . S
C355 C353 1.332 . S
C355 C354 1.407 . S
C355 H357 0.929 . S
H356 C345 0.930 . S
H357 C355 0.929 . S
H358 C373 0.930 . S
H359 C380 0.929 . S
H360 C354 0.930 . S
H361 C353 0.931 . S
H362 C376 0.930 . S
H363 C343 0.930 . S
H364 C349 0.929 . S
H365 C350 0.930 . S
H366 C371 0.930 . S
H367 C346 0.930 . S
H368 C379 0.931 . S
N369 Tb340 2.617 . S
N369 C370 1.379 . S
N369 C373 1.334 . S
C370 N369 1.379 . S
C370 C372 1.416 . S
C370 C378 1.424 . S
C371 H366 0.930 . S
C371 C373 1.390 . S
C371 C374 1.339 . S
C372 C370 1.416 . S
C372 C374 1.416 . S
C372 C405 1.448 . S
C373 H358 0.930 . S
C373 N369 1.334 . S
C373 C371 1.390 . S
C374 C371 1.339 . S
C374 C372 1.416 . S
C374 H381 0.930 . S
N375 Tb340 2.572 . S
N375 C376 1.340 . S
N375 C378 1.361 . S
C376 H362 0.930 . S
C376 N375 1.340 . S
C376 C380 1.407 . S
C377 C378 1.413 . S
C377 C379 1.416 . S
C377 C406 1.427 . S
C378 C370 1.424 . S
C378 N375 1.361 . S
C378 C377 1.413 . S
C379 H368 0.931 . S
C379 C377 1.416 . S
C379 C380 1.332 . S
C380 H359 0.929 . S
C380 C376 1.407 . S
C380 C379 1.332 . S
H381 C374 0.930 . S
H382 C405 0.930 . S
H383 C406 0.929 . S
O384 Tb340 2.465 . S
O384 C404 1.264 . S
O385 Tb340 2.387 . S
O385 C396 1.264 . S
O386 Tb351 2.349 . S
O386 C396 1.243 . S
O387 Tb340 2.428 . S
O387 C404 1.256 . S
O388 Tb340 2.308 . S
O388 C403 1.266 . S
O389 Tb351 2.393 . S
O389 C403 1.248 . S
O390 Tb351 2.465 . S
O390 C415 1.264 . S
O391 Tb351 2.387 . S
O391 C407 1.264 . S
O392 Tb340 2.349 . S
O392 C407 1.243 . S
O393 Tb351 2.428 . S
O393 C415 1.256 . S
O394 Tb351 2.308 . S
O394 C414 1.266 . S
O395 Tb340 2.393 . S
O395 C414 1.248 . S
C396 O385 1.264 . S
C396 O386 1.243 . S
C397 C400 1.399 . S
C397 C402 1.383 . S
C397 C404 1.496 . S
C398 C399 1.399 . S
C398 C402 1.389 . S
C399 C398 1.399 . S
C399 C401 1.380 . S
C399 H416 0.929 . S
C400 C397 1.399 . S
C400 C401 1.392 . S
C400 H417 0.929 . S
C401 C399 1.380 . S
C401 C400 1.392 . S
C401 H418 0.929 . S
C402 C397 1.383 . S
C402 C398 1.389 . S
C402 H419 0.931 . S
C403 O388 1.266 . S
C403 O389 1.248 . S
C404 Tb340 2.802 . S
C404 O384 1.264 . S
C404 O387 1.256 . S
C404 C397 1.496 . S
C405 C372 1.448 . S
C405 H382 0.930 . S
C405 C406 1.328 . S
C406 C377 1.427 . S
C406 H383 0.929 . S
C406 C405 1.328 . S
C407 O391 1.264 . S
C407 O392 1.243 . S
C408 C411 1.399 . S
C408 C412 1.383 . S
C408 C415 1.496 . S
C409 C410 1.399 . S
C409 C412 1.389 . S
C410 C409 1.399 . S
C410 C413 1.380 . S
C410 H420 0.929 . S
C411 C408 1.399 . S
C411 C413 1.392 . S
C411 H421 0.929 . S
C412 C408 1.383 . S
C412 C409 1.389 . S
C412 H422 0.931 . S
C413 C410 1.380 . S
C413 C411 1.392 . S
C413 H423 0.929 . S
C414 O394 1.266 . S
C414 O395 1.248 . S
C415 Tb351 2.802 . S
C415 O390 1.264 . S
C415 O393 1.256 . S
C415 C408 1.496 . S
H416 C399 0.929 . S
H417 C400 0.929 . S
H418 C401 0.929 . S
H419 C402 0.931 . S
H420 C410 0.929 . S
H421 C411 0.929 . S
H422 C412 0.931 . S
H423 C413 0.929 . S
Tb424 N453 2.617 . S
Tb424 N459 2.572 . S
Tb424 O468 2.465 . S
Tb424 O469 2.387 . S
Tb424 O471 2.428 . S
Tb424 O472 2.308 . S
Tb424 O476 2.349 . S
Tb424 O479 2.393 . S
Tb424 C488 2.802 . S
C425 N426 1.379 . S
C425 C428 1.416 . S
C425 C432 1.424 . S
N426 C425 1.379 . S
N426 C429 1.334 . S
N426 Tb435 2.617 . S
C427 C429 1.390 . S
C427 C430 1.339 . S
C427 H447 0.930 . S
C428 C425 1.416 . S
C428 C430 1.416 . S
C428 C434 1.448 . S
C429 N426 1.334 . S
C429 C427 1.390 . S
C429 H440 0.930 . S
C430 C427 1.339 . S
C430 C428 1.416 . S
C430 H451 0.930 . S
C431 C432 1.413 . S
C431 C433 1.427 . S
C431 C437 1.416 . S
C432 C425 1.424 . S
C432 C431 1.413 . S
C432 N436 1.361 . S
C433 C431 1.427 . S
C433 C434 1.328 . S
C433 H448 0.929 . S
C434 C428 1.448 . S
C434 C433 1.328 . S
C434 H449 0.930 . S
Tb435 N426 2.617 . S
Tb435 N436 2.572 . S
Tb435 O470 2.332 1_655 S
Tb435 O473 2.393 . S
Tb435 O474 2.465 . S
Tb435 O475 2.387 . S
Tb435 O477 2.428 . S
Tb435 O478 2.285 1_655 S
Tb435 C499 2.802 . S
N436 C432 1.361 . S
N436 Tb435 2.572 . S
N436 C438 1.340 . S
C437 C431 1.416 . S
C437 C439 1.332 . S
C437 H445 0.931 . S
C438 N436 1.340 . S
C438 C439 1.407 . S
C438 H444 0.930 . S
C439 C437 1.332 . S
C439 C438 1.407 . S
C439 H441 0.929 . S
H440 C429 0.930 . S
H441 C439 0.929 . S
H442 C457 0.930 . S
H443 C464 0.929 . S
H444 C438 0.930 . S
H445 C437 0.931 . S
H446 C460 0.930 . S
H447 C427 0.930 . S
H448 C433 0.929 . S
H449 C434 0.930 . S
H450 C455 0.930 . S
H451 C430 0.930 . S
H452 C463 0.931 . S
N453 Tb424 2.617 . S
N453 C454 1.379 . S
N453 C457 1.334 . S
C454 N453 1.379 . S
C454 C456 1.416 . S
C454 C462 1.424 . S
C455 H450 0.930 . S
C455 C457 1.390 . S
C455 C458 1.339 . S
C456 C454 1.416 . S
C456 C458 1.416 . S
C456 C489 1.448 . S
C457 H442 0.930 . S
C457 N453 1.334 . S
C457 C455 1.390 . S
C458 C455 1.339 . S
C458 C456 1.416 . S
C458 H465 0.930 . S
N459 Tb424 2.572 . S
N459 C460 1.340 . S
N459 C462 1.361 . S
C460 H446 0.930 . S
C460 N459 1.340 . S
C460 C464 1.407 . S
C461 C462 1.413 . S
C461 C463 1.416 . S
C461 C490 1.427 . S
C462 C454 1.424 . S
C462 N459 1.361 . S
C462 C461 1.413 . S
C463 H452 0.931 . S
C463 C461 1.416 . S
C463 C464 1.332 . S
C464 H443 0.929 . S
C464 C460 1.407 . S
C464 C463 1.332 . S
H465 C458 0.930 . S
H466 C489 0.930 . S
H467 C490 0.929 . S
O468 Tb424 2.465 . S
O468 C488 1.264 . S
O469 Tb424 2.387 . S
O469 C480 1.264 . S
O470 Tb435 2.332 1_455 S
O470 C480 1.266 . S
O471 Tb424 2.428 . S
O471 C488 1.256 . S
O472 Tb424 2.308 . S
O472 C487 1.266 1_455 S
O473 Tb435 2.393 . S
O473 C487 1.248 . S
O474 Tb435 2.465 . S
O474 C499 1.264 . S
O475 Tb435 2.387 . S
O475 C491 1.264 . S
O476 Tb424 2.349 . S
O476 C491 1.243 1_455 S
O477 Tb435 2.428 . S
O477 C499 1.256 . S
O478 Tb435 2.285 1_455 S
O478 C498 1.293 . S
O479 Tb424 2.393 . S
O479 C498 1.248 . S
C480 O469 1.264 . S
C480 O470 1.266 . S
C481 C484 1.399 . S
C481 C486 1.383 . S
C481 C488 1.496 . S
C482 C483 1.399 . S
C482 C486 1.389 . S
C483 C482 1.399 . S
C483 C485 1.380 . S
C483 H500 0.929 . S
C484 C481 1.399 . S
C484 C485 1.392 . S
C484 H501 0.929 . S
C485 C483 1.380 . S
C485 C484 1.392 . S
C485 H502 0.929 . S
C486 C481 1.383 . S
C486 C482 1.389 . S
C486 H503 0.931 . S
C487 O472 1.266 1_655 S
C487 O473 1.248 . S
C488 Tb424 2.802 . S
C488 O468 1.264 . S
C488 O471 1.256 . S
C488 C481 1.496 . S
C489 C456 1.448 . S
C489 H466 0.930 . S
C489 C490 1.328 . S
C490 C461 1.427 . S
C490 H467 0.929 . S
C490 C489 1.328 . S
C491 O475 1.264 . S
C491 O476 1.243 1_655 S
C492 C495 1.399 . S
C492 C496 1.383 . S
C492 C499 1.496 . S
C493 C494 1.399 . S
C493 C496 1.389 . S
C494 C493 1.399 . S
C494 C497 1.380 . S
C494 H504 0.929 . S
C495 C492 1.399 . S
C495 C497 1.392 . S
C495 H505 0.929 . S
C496 C492 1.383 . S
C496 C493 1.389 . S
C496 H506 0.931 . S
C497 C494 1.380 . S
C497 C495 1.392 . S
C497 H507 0.929 . S
C498 O478 1.293 . S
C498 O479 1.248 . S
C499 Tb435 2.802 . S
C499 O474 1.264 . S
C499 O477 1.256 . S
C499 C492 1.496 . S
H500 C483 0.929 . S
H501 C484 0.929 . S
H502 C485 0.929 . S
H503 C486 0.931 . S
H504 C494 0.929 . S
H505 C495 0.929 . S
H506 C496 0.931 . S
H507 C497 0.929 . S
Tb508 N537 2.617 . S
Tb508 N543 2.572 . S
Tb508 O552 2.465 . S
Tb508 O553 2.387 . S
Tb508 O555 2.428 . S
Tb508 O556 2.308 . S
Tb508 O560 2.349 . S
Tb508 O563 2.393 . S
Tb508 C572 2.802 . S
C509 N510 1.379 . S
C509 C512 1.416 . S
C509 C516 1.424 . S
N510 C509 1.379 . S
N510 C513 1.334 . S
N510 Tb519 2.617 . S
C511 C513 1.390 . S
C511 C514 1.339 . S
C511 H531 0.930 . S
C512 C509 1.416 . S
C512 C514 1.416 . S
C512 C518 1.448 . S
C513 N510 1.334 . S
C513 C511 1.390 . S
C513 H524 0.930 . S
C514 C511 1.339 . S
C514 C512 1.416 . S
C514 H535 0.930 . S
C515 C516 1.413 . S
C515 C517 1.427 . S
C515 C521 1.416 . S
C516 C509 1.424 . S
C516 C515 1.413 . S
C516 N520 1.361 . S
C517 C515 1.427 . S
C517 C518 1.328 . S
C517 H532 0.929 . S
C518 C512 1.448 . S
C518 C517 1.328 . S
C518 H533 0.930 . S
Tb519 N510 2.617 . S
Tb519 N520 2.572 . S
Tb519 O554 2.349 . S
Tb519 O557 2.393 . S
Tb519 O558 2.465 . S
Tb519 O559 2.387 . S
Tb519 O561 2.428 . S
Tb519 O562 2.308 . S
Tb519 C583 2.802 . S
N520 C516 1.361 . S
N520 Tb519 2.572 . S
N520 C522 1.340 . S
C521 C515 1.416 . S
C521 C523 1.332 . S
C521 H529 0.931 . S
C522 N520 1.340 . S
C522 C523 1.407 . S
C522 H528 0.930 . S
C523 C521 1.332 . S
C523 C522 1.407 . S
C523 H525 0.929 . S
H524 C513 0.930 . S
H525 C523 0.929 . S
H526 C541 0.930 . S
H527 C548 0.929 . S
H528 C522 0.930 . S
H529 C521 0.931 . S
H530 C544 0.930 . S
H531 C511 0.930 . S
H532 C517 0.929 . S
H533 C518 0.930 . S
H534 C539 0.930 . S
H535 C514 0.930 . S
H536 C547 0.931 . S
N537 Tb508 2.617 . S
N537 C538 1.379 . S
N537 C541 1.334 . S
C538 N537 1.379 . S
C538 C540 1.416 . S
C538 C546 1.424 . S
C539 H534 0.930 . S
C539 C541 1.390 . S
C539 C542 1.339 . S
C540 C538 1.416 . S
C540 C542 1.416 . S
C540 C573 1.448 . S
C541 H526 0.930 . S
C541 N537 1.334 . S
C541 C539 1.390 . S
C542 C539 1.339 . S
C542 C540 1.416 . S
C542 H549 0.930 . S
N543 Tb508 2.572 . S
N543 C544 1.340 . S
N543 C546 1.361 . S
C544 H530 0.930 . S
C544 N543 1.340 . S
C544 C548 1.407 . S
C545 C546 1.413 . S
C545 C547 1.416 . S
C545 C574 1.427 . S
C546 C538 1.424 . S
C546 N543 1.361 . S
C546 C545 1.413 . S
C547 H536 0.931 . S
C547 C545 1.416 . S
C547 C548 1.332 . S
C548 H527 0.929 . S
C548 C544 1.407 . S
C548 C547 1.332 . S
H549 C542 0.930 . S
H550 C573 0.930 . S
H551 C574 0.929 . S
O552 Tb508 2.465 . S
O552 C572 1.264 . S
O553 Tb508 2.387 . S
O553 C564 1.264 . S
O554 Tb519 2.349 . S
O554 C564 1.243 . S
O555 Tb508 2.428 . S
O555 C572 1.256 . S
O556 Tb508 2.308 . S
O556 C571 1.266 . S
O557 Tb519 2.393 . S
O557 C571 1.248 . S
O558 Tb519 2.465 . S
O558 C583 1.264 . S
O559 Tb519 2.387 . S
O559 C575 1.264 . S
O560 Tb508 2.349 . S
O560 C575 1.243 . S
O561 Tb519 2.428 . S
O561 C583 1.256 . S
O562 Tb519 2.308 . S
O562 C582 1.266 . S
O563 Tb508 2.393 . S
O563 C582 1.248 . S
C564 O553 1.264 . S
C564 O554 1.243 . S
C565 C568 1.399 . S
C565 C570 1.383 . S
C565 C572 1.496 . S
C566 C567 1.399 . S
C566 C570 1.389 . S
C567 C566 1.399 . S
C567 C569 1.380 . S
C567 H584 0.929 . S
C568 C565 1.399 . S
C568 C569 1.392 . S
C568 H585 0.929 . S
C569 C567 1.380 . S
C569 C568 1.392 . S
C569 H586 0.929 . S
C570 C565 1.383 . S
C570 C566 1.389 . S
C570 H587 0.931 . S
C571 O556 1.266 . S
C571 O557 1.248 . S
C572 Tb508 2.802 . S
C572 O552 1.264 . S
C572 O555 1.256 . S
C572 C565 1.496 . S
C573 C540 1.448 . S
C573 H550 0.930 . S
C573 C574 1.328 . S
C574 C545 1.427 . S
C574 H551 0.929 . S
C574 C573 1.328 . S
C575 O559 1.264 . S
C575 O560 1.243 . S
C576 C579 1.399 . S
C576 C580 1.383 . S
C576 C583 1.496 . S
C577 C578 1.399 . S
C577 C580 1.389 . S
C578 C577 1.399 . S
C578 C581 1.380 . S
C578 H588 0.929 . S
C579 C576 1.399 . S
C579 C581 1.392 . S
C579 H589 0.929 . S
C580 C576 1.383 . S
C580 C577 1.389 . S
C580 H590 0.931 . S
C581 C578 1.380 . S
C581 C579 1.392 . S
C581 H591 0.929 . S
C582 O562 1.266 . S
C582 O563 1.248 . S
C583 Tb519 2.802 . S
C583 O558 1.264 . S
C583 O561 1.256 . S
C583 C576 1.496 . S
H584 C567 0.929 . S
H585 C568 0.929 . S
H586 C569 0.929 . S
H587 C570 0.931 . S
H588 C578 0.929 . S
H589 C579 0.929 . S
H590 C580 0.931 . S
H591 C581 0.929 . S
C592 C593 1.349 . S
C592 C594 1.327 . S
C592 H617 0.950 . S
C593 C592 1.349 . S
C593 C609 1.349 . S
C594 C592 1.327 . S
C594 C613 1.429 . S
C594 H618 0.950 . S
C595 C612 1.574 . S
C595 C614 1.368 . S
C595 H619 0.949 . S
H596 C600 0.949 . S
C597 C598 1.349 . S
C597 C599 1.327 . S
C597 H620 0.950 . S
C598 C597 1.349 . S
C598 C610 1.349 . S
C599 C597 1.327 . S
C599 C615 1.429 . S
C599 H621 0.950 . S
C600 H596 0.949 . S
C600 C608 1.574 . S
C600 C616 1.368 . S
H601 C609 0.950 . S
H602 C607 0.950 . S
H603 C608 0.949 1_565 S
H604 C610 0.950 . S
H605 C611 0.950 . S
H606 C612 0.949 . S
C607 H602 0.950 . S
C607 C609 1.327 . S
C607 C613 1.429 . S
C608 C600 1.574 . S
C608 H603 0.949 1_545 S
C608 C614 1.368 . S
C609 C593 1.349 . S
C609 H601 0.950 . S
C609 C607 1.327 . S
C610 C598 1.349 . S
C610 H604 0.950 . S
C610 C611 1.327 . S
C611 H605 0.950 . S
C611 C610 1.327 . S
C611 C615 1.429 . S
C612 C595 1.574 . S
C612 H606 0.949 . S
C612 C616 1.368 . S
C613 C594 1.429 . S
C613 C607 1.429 . S
C613 C614 1.523 1_565 S
C614 C595 1.368 . S
C614 C608 1.368 . S
C614 C613 1.523 1_545 S
C615 C599 1.429 . S
C615 C611 1.429 . S
C615 C616 1.523 . S
C616 C600 1.368 . S
C616 C612 1.368 . S
C616 C615 1.523 . S
H617 C592 0.950 . S
H618 C594 0.950 . S
H619 C595 0.949 . S
H620 C597 0.950 . S
H621 C599 0.950 . S
C622 C623 1.349 . S
C622 C624 1.327 . S
C622 H647 0.950 . S
C623 C622 1.349 . S
C623 C639 1.349 . S
C624 C622 1.327 . S
C624 C643 1.429 . S
C624 H648 0.950 . S
C625 C642 1.574 . S
C625 C644 1.368 . S
C625 H649 0.949 . S
H626 C630 0.949 . S
C627 C628 1.349 . S
C627 C629 1.327 . S
C627 H650 0.950 . S
C628 C627 1.349 . S
C628 C640 1.349 . S
C629 C627 1.327 . S
C629 C645 1.429 . S
C629 H651 0.950 . S
C630 H626 0.949 . S
C630 C638 1.574 . S
C630 C646 1.368 . S
H631 C639 0.950 . S
H632 C637 0.950 . S
H633 C638 0.949 . S
H634 C640 0.950 . S
H635 C641 0.950 . S
H636 C642 0.949 . S
C637 H632 0.950 . S
C637 C639 1.327 . S
C637 C643 1.429 . S
C638 C630 1.574 . S
C638 H633 0.949 . S
C638 C644 1.368 . S
C639 C623 1.349 . S
C639 H631 0.950 . S
C639 C637 1.327 . S
C640 C628 1.349 . S
C640 H634 0.950 . S
C640 C641 1.327 . S
C641 H635 0.950 . S
C641 C640 1.327 . S
C641 C645 1.429 . S
C642 C625 1.574 . S
C642 H636 0.949 . S
C642 C646 1.368 . S
C643 C624 1.429 . S
C643 C637 1.429 . S
C643 C644 1.523 . S
C644 C625 1.368 . S
C644 C638 1.368 . S
C644 C643 1.523 . S
C645 C629 1.429 . S
C645 C641 1.429 . S
C645 C646 1.523 . S
C646 C630 1.368 . S
C646 C642 1.368 . S
C646 C645 1.523 . S
H647 C622 0.950 . S
H648 C624 0.950 . S
H649 C625 0.949 . S
H650 C627 0.950 . S
H651 C629 0.950 . S
C652 C653 1.349 . S
C652 C654 1.327 . S
C652 H677 0.950 . S
C653 C652 1.349 . S
C653 C669 1.349 . S
C654 C652 1.327 . S
C654 C673 1.429 . S
C654 H678 0.950 . S
C655 C672 1.574 . S
C655 C674 1.368 . S
C655 H679 0.949 . S
H656 C660 0.949 . S
C657 C658 1.349 . S
C657 C659 1.327 . S
C657 H680 0.950 . S
C658 C657 1.349 . S
C658 C670 1.349 . S
C659 C657 1.327 . S
C659 C675 1.429 . S
C659 H681 0.950 . S
C660 H656 0.949 . S
C660 C668 1.574 . S
C660 C676 1.368 . S
H661 C669 0.950 . S
H662 C667 0.950 . S
H663 C668 0.949 . S
H664 C670 0.950 . S
H665 C671 0.950 . S
H666 C672 0.949 . S
C667 H662 0.950 . S
C667 C669 1.327 . S
C667 C673 1.429 . S
C668 C660 1.574 . S
C668 H663 0.949 . S
C668 C674 1.368 . S
C669 C653 1.349 . S
C669 H661 0.950 . S
C669 C667 1.327 . S
C670 C658 1.349 . S
C670 H664 0.950 . S
C670 C671 1.327 . S
C671 H665 0.950 . S
C671 C670 1.327 . S
C671 C675 1.429 . S
C672 C655 1.574 . S
C672 H666 0.949 . S
C672 C676 1.368 . S
C673 C654 1.429 . S
C673 C667 1.429 . S
C673 C674 1.523 . S
C674 C655 1.368 . S
C674 C668 1.368 . S
C674 C673 1.523 . S
C675 C659 1.429 . S
C675 C671 1.429 . S
C675 C676 1.523 . S
C676 C660 1.368 . S
C676 C672 1.368 . S
C676 C675 1.523 . S
H677 C652 0.950 . S
H678 C654 0.950 . S
H679 C655 0.949 . S
H680 C657 0.950 . S
H681 C659 0.950 . S
C682 C683 1.349 . S
C682 C684 1.327 . S
C682 H707 0.950 . S
C683 C682 1.349 . S
C683 C699 1.349 . S
C684 C682 1.327 . S
C684 C703 1.429 . S
C684 H708 0.950 . S
C685 C702 1.574 . S
C685 C704 1.368 . S
C685 H709 0.949 . S
H686 C690 0.949 . S
C687 C688 1.349 . S
C687 C689 1.327 . S
C687 H710 0.950 . S
C688 C687 1.349 . S
C688 C700 1.349 . S
C689 C687 1.327 . S
C689 C705 1.429 . S
C689 H711 0.950 . S
C690 H686 0.949 . S
C690 C698 1.574 . S
C690 C706 1.368 . S
H691 C699 0.950 . S
H692 C697 0.950 1_545 S
H693 C698 0.949 1_565 S
H694 C700 0.950 . S
H695 C701 0.950 . S
H696 C702 0.949 . S
C697 H692 0.950 1_565 S
C697 C699 1.327 . S
C697 C703 1.429 . S
C698 C690 1.574 . S
C698 H693 0.949 1_545 S
C698 C704 1.368 . S
C699 C683 1.349 . S
C699 H691 0.950 . S
C699 C697 1.327 . S
C700 C688 1.349 . S
C700 H694 0.950 . S
C700 C701 1.327 . S
C701 H695 0.950 . S
C701 C700 1.327 . S
C701 C705 1.429 . S
C702 C685 1.574 . S
C702 H696 0.949 . S
C702 C706 1.368 . S
C703 C684 1.429 . S
C703 C697 1.429 . S
C703 C704 1.523 1_565 S
C704 C685 1.368 . S
C704 C698 1.368 . S
C704 C703 1.523 1_545 S
C705 C689 1.429 . S
C705 C701 1.429 . S
C705 C706 1.523 . S
C706 C690 1.368 . S
C706 C702 1.368 . S
C706 C705 1.523 . S
H707 C682 0.950 . S
H708 C684 0.950 . S
H709 C685 0.949 . S
H710 C687 0.950 . S
H711 C689 0.950 . S
C712 C713 1.349 . S
C712 C714 1.327 . S
C712 H737 0.950 . S
C713 C712 1.349 . S
C713 C729 1.349 . S
C714 C712 1.327 . S
C714 C733 1.429 . S
C714 H738 0.950 . S
C715 C732 1.574 . S
C715 C734 1.368 . S
C715 H739 0.949 . S
H716 C720 0.949 . S
C717 C718 1.349 . S
C717 C719 1.327 . S
C717 H740 0.950 . S
C718 C717 1.349 . S
C718 C730 1.349 . S
C719 C717 1.327 . S
C719 C735 1.429 . S
C719 H741 0.950 . S
C720 H716 0.949 . S
C720 C728 1.574 . S
C720 C736 1.368 . S
H721 C729 0.950 . S
H722 C727 0.950 . S
H723 C728 0.949 1_545 S
H724 C730 0.950 . S
H725 C731 0.950 . S
H726 C732 0.949 . S
C727 H722 0.950 . S
C727 C729 1.327 . S
C727 C733 1.429 . S
C728 C720 1.574 . S
C728 H723 0.949 1_565 S
C728 C734 1.368 . S
C729 C713 1.349 . S
C729 H721 0.950 . S
C729 C727 1.327 . S
C730 C718 1.349 . S
C730 H724 0.950 . S
C730 C731 1.327 . S
C731 H725 0.950 . S
C731 C730 1.327 . S
C731 C735 1.429 . S
C732 C715 1.574 . S
C732 H726 0.949 . S
C732 C736 1.368 . S
C733 C714 1.429 . S
C733 C727 1.429 . S
C733 C734 1.523 1_545 S
C734 C715 1.368 . S
C734 C728 1.368 . S
C734 C733 1.523 1_565 S
C735 C719 1.429 . S
C735 C731 1.429 . S
C735 C736 1.523 . S
C736 C720 1.368 . S
C736 C732 1.368 . S
C736 C735 1.523 . S
H737 C712 0.950 . S
H738 C714 0.950 . S
H739 C715 0.949 . S
H740 C717 0.950 . S
H741 C719 0.950 . S
C742 C743 1.349 . S
C742 C744 1.327 . S
C742 H767 0.950 . S
C743 C742 1.349 . S
C743 C759 1.349 . S
C744 C742 1.327 . S
C744 C763 1.429 . S
C744 H768 0.950 . S
C745 C762 1.574 . S
C745 C764 1.368 . S
C745 H769 0.949 . S
H746 C750 0.949 . S
C747 C748 1.349 . S
C747 C749 1.327 . S
C747 H770 0.950 . S
C748 C747 1.349 . S
C748 C760 1.349 . S
C749 C747 1.327 . S
C749 C765 1.429 . S
C749 H771 0.950 . S
C750 H746 0.949 . S
C750 C758 1.574 . S
C750 C766 1.368 . S
H751 C759 0.950 . S
H752 C757 0.950 . S
H753 C758 0.949 . S
H754 C760 0.950 . S
H755 C761 0.950 . S
H756 C762 0.949 . S
C757 H752 0.950 . S
C757 C759 1.327 . S
C757 C763 1.429 . S
C758 C750 1.574 . S
C758 H753 0.949 . S
C758 C764 1.368 . S
C759 C743 1.349 . S
C759 H751 0.950 . S
C759 C757 1.327 . S
C760 C748 1.349 . S
C760 H754 0.950 . S
C760 C761 1.327 . S
C761 H755 0.950 . S
C761 C760 1.327 . S
C761 C765 1.429 . S
C762 C745 1.574 . S
C762 H756 0.949 . S
C762 C766 1.368 . S
C763 C744 1.429 . S
C763 C757 1.429 . S
C763 C764 1.523 . S
C764 C745 1.368 . S
C764 C758 1.368 . S
C764 C763 1.523 . S
C765 C749 1.429 . S
C765 C761 1.429 . S
C765 C766 1.523 . S
C766 C750 1.368 . S
C766 C762 1.368 . S
C766 C765 1.523 . S
H767 C742 0.950 . S
H768 C744 0.950 . S
H769 C745 0.949 . S
H770 C747 0.950 . S
H771 C749 0.950 . S
C772 C773 1.349 . S
C772 C774 1.327 . S
C772 H797 0.950 . S
C773 C772 1.349 . S
C773 C789 1.349 . S
C774 C772 1.327 . S
C774 C793 1.429 . S
C774 H798 0.950 . S
C775 C792 1.574 . S
C775 C794 1.368 . S
C775 H799 0.949 . S
H776 C780 0.949 . S
C777 C778 1.349 . S
C777 C779 1.327 . S
C777 H800 0.950 . S
C778 C777 1.349 . S
C778 C790 1.349 . S
C779 C777 1.327 . S
C779 C795 1.429 . S
C779 H801 0.950 . S
C780 H776 0.949 . S
C780 C788 1.574 . S
C780 C796 1.368 . S
H781 C789 0.950 . S
H782 C787 0.950 . S
H783 C788 0.949 . S
H784 C790 0.950 . S
H785 C791 0.950 . S
H786 C792 0.949 . S
C787 H782 0.950 . S
C787 C789 1.327 . S
C787 C793 1.429 . S
C788 C780 1.574 . S
C788 H783 0.949 . S
C788 C794 1.368 . S
C789 C773 1.349 . S
C789 H781 0.950 . S
C789 C787 1.327 . S
C790 C778 1.349 . S
C790 H784 0.950 . S
C790 C791 1.327 . S
C791 H785 0.950 . S
C791 C790 1.327 . S
C791 C795 1.429 . S
C792 C775 1.574 . S
C792 H786 0.949 . S
C792 C796 1.368 . S
C793 C774 1.429 . S
C793 C787 1.429 . S
C793 C794 1.523 . S
C794 C775 1.368 . S
C794 C788 1.368 . S
C794 C793 1.523 . S
C795 C779 1.429 . S
C795 C791 1.429 . S
C795 C796 1.523 . S
C796 C780 1.368 . S
C796 C792 1.368 . S
C796 C795 1.523 . S
H797 C772 0.950 . S
H798 C774 0.950 . S
H799 C775 0.949 . S
H800 C777 0.950 . S
H801 C779 0.950 . S
C802 C803 1.349 . S
C802 C804 1.327 . S
C802 H827 0.950 . S
C803 C802 1.349 . S
C803 C819 1.349 . S
C804 C802 1.327 . S
C804 C823 1.429 . S
C804 H828 0.950 1_545 S
C805 C822 1.574 . S
C805 C824 1.368 . S
C805 H829 0.949 1_565 S
H806 C810 0.949 . S
C807 C808 1.349 . S
C807 C809 1.327 . S
C807 H830 0.950 . S
C808 C807 1.349 . S
C808 C820 1.349 . S
C809 C807 1.327 . S
C809 C825 1.429 . S
C809 H831 0.950 . S
C810 H806 0.949 . S
C810 C818 1.574 . S
C810 C826 1.368 . S
H811 C819 0.950 . S
H812 C817 0.950 . S
H813 C818 0.949 . S
H814 C820 0.950 . S
H815 C821 0.950 . S
H816 C822 0.949 . S
C817 H812 0.950 . S
C817 C819 1.327 . S
C817 C823 1.429 . S
C818 C810 1.574 . S
C818 H813 0.949 . S
C818 C824 1.368 . S
C819 C803 1.349 . S
C819 H811 0.950 . S
C819 C817 1.327 . S
C820 C808 1.349 . S
C820 H814 0.950 . S
C820 C821 1.327 . S
C821 H815 0.950 . S
C821 C820 1.327 . S
C821 C825 1.429 . S
C822 C805 1.574 . S
C822 H816 0.949 . S
C822 C826 1.368 . S
C823 C804 1.429 . S
C823 C817 1.429 . S
C823 C824 1.523 1_545 S
C824 C805 1.368 . S
C824 C818 1.368 . S
C824 C823 1.523 1_565 S
C825 C809 1.429 . S
C825 C821 1.429 . S
C825 C826 1.523 . S
C826 C810 1.368 . S
C826 C822 1.368 . S
C826 C825 1.523 . S
H827 C802 0.950 . S
H828 C804 0.950 1_565 S
H829 C805 0.949 1_545 S
H830 C807 0.950 . S
H831 C809 0.950 . S
C832 C833 1.349 . S
C832 C834 1.327 1_556 S
C832 H857 0.950 . S
C833 C832 1.349 . S
C833 C849 1.349 . S
C834 C832 1.327 1_554 S
C834 C853 1.429 . S
C834 H858 0.950 . S
C835 C852 1.574 . S
C835 C854 1.368 . S
C835 H859 0.949 . S
H836 C840 0.949 . S
C837 C838 1.349 . S
C837 C839 1.327 . S
C837 H860 0.950 . S
C838 C837 1.349 . S
C838 C850 1.349 . S
C839 C837 1.327 . S
C839 C855 1.429 . S
C839 H861 0.950 . S
C840 H836 0.949 . S
C840 C848 1.574 . S
C840 C856 1.368 . S
H841 C849 0.950 . S
H842 C847 0.950 . S
H843 C848 0.949 . S
H844 C850 0.950 . S
H845 C851 0.950 . S
H846 C852 0.949 . S
C847 H842 0.950 . S
C847 C849 1.327 1_554 S
C847 C853 1.429 . S
C848 C840 1.574 . S
C848 H843 0.949 . S
C848 C854 1.368 . S
C849 C833 1.349 . S
C849 H841 0.950 . S
C849 C847 1.327 1_556 S
C850 C838 1.349 . S
C850 H844 0.950 . S
C850 C851 1.327 . S
C851 H845 0.950 . S
C851 C850 1.327 . S
C851 C855 1.429 . S
C852 C835 1.574 . S
C852 H846 0.949 . S
C852 C856 1.368 . S
C853 C834 1.429 . S
C853 C847 1.429 . S
C853 C854 1.523 . S
C854 C835 1.368 . S
C854 C848 1.368 . S
C854 C853 1.523 . S
C855 C839 1.429 . S
C855 C851 1.429 . S
C855 C856 1.523 . S
C856 C840 1.368 . S
C856 C852 1.368 . S
C856 C855 1.523 . S
H857 C832 0.950 . S
H858 C834 0.950 . S
H859 C835 0.949 . S
H860 C837 0.950 . S
H861 C839 0.950 . S
C862 C863 1.349 . S
C862 C864 1.327 . S
C862 H887 0.950 . S
C863 C862 1.349 . S
C863 C879 1.349 . S
C864 C862 1.327 . S
C864 C883 1.429 . S
C864 H888 0.950 . S
C865 C882 1.574 . S
C865 C884 1.368 . S
C865 H889 0.949 . S
H866 C870 0.949 . S
C867 C868 1.349 . S
C867 C869 1.327 . S
C867 H890 0.950 . S
C868 C867 1.349 . S
C868 C880 1.349 . S
C869 C867 1.327 . S
C869 C885 1.429 . S
C869 H891 0.950 . S
C870 H866 0.949 . S
C870 C878 1.574 . S
C870 C886 1.368 . S
H871 C879 0.950 . S
H872 C877 0.950 . S
H873 C878 0.949 . S
H874 C880 0.950 . S
H875 C881 0.950 . S
H876 C882 0.949 . S
C877 H872 0.950 . S
C877 C879 1.327 . S
C877 C883 1.429 . S
C878 C870 1.574 . S
C878 H873 0.949 . S
C878 C884 1.368 . S
C879 C863 1.349 . S
C879 H871 0.950 . S
C879 C877 1.327 . S
C880 C868 1.349 . S
C880 H874 0.950 . S
C880 C881 1.327 . S
C881 H875 0.950 . S
C881 C880 1.327 . S
C881 C885 1.429 . S
C882 C865 1.574 . S
C882 H876 0.949 . S
C882 C886 1.368 . S
C883 C864 1.429 . S
C883 C877 1.429 . S
C883 C884 1.523 . S
C884 C865 1.368 . S
C884 C878 1.368 . S
C884 C883 1.523 . S
C885 C869 1.429 . S
C885 C881 1.429 . S
C885 C886 1.523 . S
C886 C870 1.368 . S
C886 C882 1.368 . S
C886 C885 1.523 . S
H887 C862 0.950 . S
H888 C864 0.950 . S
H889 C865 0.949 . S
H890 C867 0.950 . S
H891 C869 0.950 . S
C892 C893 1.349 . S
C892 C894 1.327 1_554 S
C892 H917 0.950 . S
C893 C892 1.349 . S
C893 C909 1.349 . S
C894 C892 1.327 1_556 S
C894 C913 1.429 . S
C894 H918 0.950 . S
C895 C912 1.574 . S
C895 C914 1.368 . S
C895 H919 0.949 . S
H896 C900 0.949 . S
C897 C898 1.349 . S
C897 C899 1.327 . S
C897 H920 0.950 . S
C898 C897 1.349 . S
C898 C910 1.349 . S
C899 C897 1.327 . S
C899 C915 1.429 . S
C899 H921 0.950 . S
C900 H896 0.949 . S
C900 C908 1.574 . S
C900 C916 1.368 . S
H901 C909 0.950 . S
H902 C907 0.950 . S
H903 C908 0.949 . S
H904 C910 0.950 . S
H905 C911 0.950 . S
H906 C912 0.949 . S
C907 H902 0.950 . S
C907 C909 1.327 1_556 S
C907 C913 1.429 . S
C908 C900 1.574 . S
C908 H903 0.949 . S
C908 C914 1.368 . S
C909 C893 1.349 . S
C909 H901 0.950 . S
C909 C907 1.327 1_554 S
C910 C898 1.349 . S
C910 H904 0.950 . S
C910 C911 1.327 . S
C911 H905 0.950 . S
C911 C910 1.327 . S
C911 C915 1.429 . S
C912 C895 1.574 . S
C912 H906 0.949 . S
C912 C916 1.368 . S
C913 C894 1.429 . S
C913 C907 1.429 . S
C913 C914 1.523 . S
C914 C895 1.368 . S
C914 C908 1.368 . S
C914 C913 1.523 . S
C915 C899 1.429 . S
C915 C911 1.429 . S
C915 C916 1.523 . S
C916 C900 1.368 . S
C916 C912 1.368 . S
C916 C915 1.523 . S
H917 C892 0.950 . S
H918 C894 0.950 . S
H919 C895 0.949 . S
H920 C897 0.950 . S
H921 C899 0.950 . S
C922 C923 1.349 . S
C922 C924 1.327 . S
C922 H947 0.950 . S
C923 C922 1.349 . S
C923 C939 1.349 . S
C924 C922 1.327 . S
C924 C943 1.429 . S
C924 H948 0.950 . S
C925 C942 1.574 . S
C925 C944 1.368 . S
C925 H949 0.949 . S
H926 C930 0.949 . S
C927 C928 1.349 . S
C927 C929 1.327 . S
C927 H950 0.950 . S
C928 C927 1.349 . S
C928 C940 1.349 . S
C929 C927 1.327 . S
C929 C945 1.429 . S
C929 H951 0.950 . S
C930 H926 0.949 . S
C930 C938 1.574 . S
C930 C946 1.368 . S
H931 C939 0.950 . S
H932 C937 0.950 . S
H933 C938 0.949 . S
H934 C940 0.950 . S
H935 C941 0.950 . S
H936 C942 0.949 . S
C937 H932 0.950 . S
C937 C939 1.327 . S
C937 C943 1.429 . S
C938 C930 1.574 . S
C938 H933 0.949 . S
C938 C944 1.368 . S
C939 C923 1.349 . S
C939 H931 0.950 . S
C939 C937 1.327 . S
C940 C928 1.349 . S
C940 H934 0.950 . S
C940 C941 1.327 . S
C941 H935 0.950 . S
C941 C940 1.327 . S
C941 C945 1.429 . S
C942 C925 1.574 . S
C942 H936 0.949 . S
C942 C946 1.368 . S
C943 C924 1.429 . S
C943 C937 1.429 . S
C943 C944 1.523 . S
C944 C925 1.368 . S
C944 C938 1.368 . S
C944 C943 1.523 . S
C945 C929 1.429 . S
C945 C941 1.429 . S
C945 C946 1.523 . S
C946 C930 1.368 . S
C946 C942 1.368 . S
C946 C945 1.523 . S
H947 C922 0.950 . S
H948 C924 0.950 . S
H949 C925 0.949 . S
H950 C927 0.950 . S
H951 C929 0.950 . S
C952 C953 1.349 . S
C952 C954 1.327 1_554 S
C952 H977 0.950 . S
C953 C952 1.349 . S
C953 C969 1.349 . S
C954 C952 1.327 1_556 S
C954 C973 1.429 . S
C954 H978 0.950 . S
C955 C972 1.574 . S
C955 C974 1.368 . S
C955 H979 0.949 . S
H956 C960 0.949 . S
C957 C958 1.349 . S
C957 C959 1.327 . S
C957 H980 0.950 . S
C958 C957 1.349 . S
C958 C970 1.349 . S
C959 C957 1.327 . S
C959 C975 1.429 . S
C959 H981 0.950 . S
C960 H956 0.949 . S
C960 C968 1.574 . S
C960 C976 1.368 . S
H961 C969 0.950 . S
H962 C967 0.950 . S
H963 C968 0.949 . S
H964 C970 0.950 . S
H965 C971 0.950 . S
H966 C972 0.949 . S
C967 H962 0.950 . S
C967 C969 1.327 1_556 S
C967 C973 1.429 . S
C968 C960 1.574 . S
C968 H963 0.949 . S
C968 C974 1.368 . S
C969 C953 1.349 . S
C969 H961 0.950 . S
C969 C967 1.327 1_554 S
C970 C958 1.349 . S
C970 H964 0.950 . S
C970 C971 1.327 . S
C971 H965 0.950 . S
C971 C970 1.327 . S
C971 C975 1.429 . S
C972 C955 1.574 . S
C972 H966 0.949 . S
C972 C976 1.368 . S
C973 C954 1.429 . S
C973 C967 1.429 . S
C973 C974 1.523 . S
C974 C955 1.368 . S
C974 C968 1.368 . S
C974 C973 1.523 . S
C975 C959 1.429 . S
C975 C971 1.429 . S
C975 C976 1.523 . S
C976 C960 1.368 . S
C976 C972 1.368 . S
C976 C975 1.523 . S
H977 C952 0.950 . S
H978 C954 0.950 . S
H979 C955 0.949 . S
H980 C957 0.950 . S
H981 C959 0.950 . S
C982 C983 1.349 . S
C982 C984 1.327 . S
C982 H1007 0.950 . S
C983 C982 1.349 . S
C983 C999 1.349 . S
C984 C982 1.327 . S
C984 C1003 1.429 . S
C984 H1008 0.950 . S
C985 C1002 1.574 . S
C985 C1004 1.368 . S
C985 H1009 0.949 . S
H986 C990 0.949 . S
C987 C988 1.349 . S
C987 C989 1.327 . S
C987 H1010 0.950 . S
C988 C987 1.349 . S
C988 C1000 1.349 . S
C989 C987 1.327 . S
C989 C1005 1.429 . S
C989 H1011 0.950 . S
C990 H986 0.949 . S
C990 C998 1.574 . S
C990 C1006 1.368 . S
H991 C999 0.950 . S
H992 C997 0.950 . S
H993 C998 0.949 . S
H994 C1000 0.950 . S
H995 C1001 0.950 . S
H996 C1002 0.949 . S
C997 H992 0.950 . S
C997 C999 1.327 . S
C997 C1003 1.429 . S
C998 C990 1.574 . S
C998 H993 0.949 . S
C998 C1004 1.368 . S
C999 C983 1.349 . S
C999 H991 0.950 . S
C999 C997 1.327 . S
C1000 C988 1.349 . S
C1000 H994 0.950 . S
C1000 C1001 1.327 . S
C1001 H995 0.950 . S
C1001 C1000 1.327 . S
C1001 C1005 1.429 . S
C1002 C985 1.574 . S
C1002 H996 0.949 . S
C1002 C1006 1.368 . S
C1003 C984 1.429 . S
C1003 C997 1.429 . S
C1003 C1004 1.523 . S
C1004 C985 1.368 . S
C1004 C998 1.368 . S
C1004 C1003 1.523 . S
C1005 C989 1.429 . S
C1005 C1001 1.429 . S
C1005 C1006 1.523 . S
C1006 C990 1.368 . S
C1006 C1002 1.368 . S
C1006 C1005 1.523 . S
H1007 C982 0.950 . S
H1008 C984 0.950 . S
H1009 C985 0.949 . S
H1010 C987 0.950 . S
H1011 C989 0.950 . S
C1012 C1013 1.349 . S
C1012 C1014 1.327 1_556 S
C1012 H1037 0.950 . S
C1013 C1012 1.349 . S
C1013 C1029 1.349 . S
C1014 C1012 1.327 1_554 S
C1014 C1033 1.429 . S
C1014 H1038 0.950 . S
C1015 C1032 1.574 . S
C1015 C1034 1.368 . S
C1015 H1039 0.949 . S
H1016 C1020 0.949 . S
C1017 C1018 1.349 . S
C1017 C1019 1.327 . S
C1017 H1040 0.950 . S
C1018 C1017 1.349 . S
C1018 C1030 1.349 . S
C1019 C1017 1.327 . S
C1019 C1035 1.429 . S
C1019 H1041 0.950 . S
C1020 H1016 0.949 . S
C1020 C1028 1.574 . S
C1020 C1036 1.368 . S
H1021 C1029 0.950 . S
H1022 C1027 0.950 . S
H1023 C1028 0.949 . S
H1024 C1030 0.950 . S
H1025 C1031 0.950 . S
H1026 C1032 0.949 . S
C1027 H1022 0.950 . S
C1027 C1029 1.327 1_554 S
C1027 C1033 1.429 . S
C1028 C1020 1.574 . S
C1028 H1023 0.949 . S
C1028 C1034 1.368 . S
C1029 C1013 1.349 . S
C1029 H1021 0.950 . S
C1029 C1027 1.327 1_556 S
C1030 C1018 1.349 . S
C1030 H1024 0.950 . S
C1030 C1031 1.327 . S
C1031 H1025 0.950 . S
C1031 C1030 1.327 . S
C1031 C1035 1.429 . S
C1032 C1015 1.574 . S
C1032 H1026 0.949 . S
C1032 C1036 1.368 . S
C1033 C1014 1.429 . S
C1033 C1027 1.429 . S
C1033 C1034 1.523 . S
C1034 C1015 1.368 . S
C1034 C1028 1.368 . S
C1034 C1033 1.523 . S
C1035 C1019 1.429 . S
C1035 C1031 1.429 . S
C1035 C1036 1.523 . S
C1036 C1020 1.368 . S
C1036 C1032 1.368 . S
C1036 C1035 1.523 . S
H1037 C1012 0.950 . S
H1038 C1014 0.950 . S
H1039 C1015 0.949 . S
H1040 C1017 0.950 . S
H1041 C1019 0.950 . S
C1042 C1043 1.349 . S
C1042 C1044 1.327 . S
C1042 H1067 0.950 . S
C1043 C1042 1.349 . S
C1043 C1059 1.349 . S
C1044 C1042 1.327 . S
C1044 C1063 1.429 . S
C1044 H1068 0.950 . S
C1045 C1062 1.574 . S
C1045 C1064 1.368 . S
C1045 H1069 0.949 . S
H1046 C1050 0.949 . S
C1047 C1048 1.349 . S
C1047 C1049 1.327 . S
C1047 H1070 0.950 . S
C1048 C1047 1.349 . S
C1048 C1060 1.349 . S
C1049 C1047 1.327 . S
C1049 C1065 1.429 . S
C1049 H1071 0.950 . S
C1050 H1046 0.949 . S
C1050 C1058 1.574 . S
C1050 C1066 1.368 . S
H1051 C1059 0.950 . S
H1052 C1057 0.950 . S
H1053 C1058 0.949 . S
H1054 C1060 0.950 . S
H1055 C1061 0.950 . S
H1056 C1062 0.949 . S
C1057 H1052 0.950 . S
C1057 C1059 1.327 . S
C1057 C1063 1.429 . S
C1058 C1050 1.574 . S
C1058 H1053 0.949 . S
C1058 C1064 1.368 . S
C1059 C1043 1.349 . S
C1059 H1051 0.950 . S
C1059 C1057 1.327 . S
C1060 C1048 1.349 . S
C1060 H1054 0.950 . S
C1060 C1061 1.327 . S
C1061 H1055 0.950 . S
C1061 C1060 1.327 . S
C1061 C1065 1.429 . S
C1062 C1045 1.574 . S
C1062 H1056 0.949 . S
C1062 C1066 1.368 . S
C1063 C1044 1.429 . S
C1063 C1057 1.429 . S
C1063 C1064 1.523 . S
C1064 C1045 1.368 . S
C1064 C1058 1.368 . S
C1064 C1063 1.523 . S
C1065 C1049 1.429 . S
C1065 C1061 1.429 . S
C1065 C1066 1.523 . S
C1066 C1050 1.368 . S
C1066 C1062 1.368 . S
C1066 C1065 1.523 . S
H1067 C1042 0.950 . S
H1068 C1044 0.950 . S
H1069 C1045 0.949 . S
H1070 C1047 0.950 . S
H1071 C1049 0.950 . S
C1072 C1073 1.349 . S
C1072 C1074 1.327 . S
C1072 H1097 0.950 . S
C1073 C1072 1.349 . S
C1073 C1089 1.349 . S
C1074 C1072 1.327 . S
C1074 C1093 1.429 . S
C1074 H1098 0.950 . S
C1075 C1092 1.574 . S
C1075 C1094 1.368 . S
C1075 H1099 0.949 . S
H1076 C1080 0.949 . S
C1077 C1078 1.349 . S
C1077 C1079 1.327 . S
C1077 H1100 0.950 . S
C1078 C1077 1.349 . S
C1078 C1090 1.349 . S
C1079 C1077 1.327 . S
C1079 C1095 1.429 . S
C1079 H1101 0.950 . S
C1080 H1076 0.949 . S
C1080 C1088 1.574 . S
C1080 C1096 1.368 . S
H1081 C1089 0.950 . S
H1082 C1087 0.950 . S
H1083 C1088 0.949 . S
H1084 C1090 0.950 . S
H1085 C1091 0.950 . S
H1086 C1092 0.949 . S
C1087 H1082 0.950 . S
C1087 C1089 1.327 . S
C1087 C1093 1.429 . S
C1088 C1080 1.574 . S
C1088 H1083 0.949 . S
C1088 C1094 1.368 . S
C1089 C1073 1.349 . S
C1089 H1081 0.950 . S
C1089 C1087 1.327 . S
C1090 C1078 1.349 . S
C1090 H1084 0.950 . S
C1090 C1091 1.327 . S
C1091 H1085 0.950 . S
C1091 C1090 1.327 . S
C1091 C1095 1.429 . S
C1092 C1075 1.574 . S
C1092 H1086 0.949 . S
C1092 C1096 1.368 . S
C1093 C1074 1.429 . S
C1093 C1087 1.429 . S
C1093 C1094 1.523 . S
C1094 C1075 1.368 . S
C1094 C1088 1.368 . S
C1094 C1093 1.523 . S
C1095 C1079 1.429 . S
C1095 C1091 1.429 . S
C1095 C1096 1.523 . S
C1096 C1080 1.368 . S
C1096 C1092 1.368 . S
C1096 C1095 1.523 . S
H1097 C1072 0.950 . S
H1098 C1074 0.950 . S
H1099 C1075 0.949 . S
H1100 C1077 0.950 . S
H1101 C1079 0.950 . S
C1102 C1103 1.349 . S
C1102 C1104 1.327 . S
C1102 H1127 0.950 . S
C1103 C1102 1.349 . S
C1103 C1119 1.349 . S
C1104 C1102 1.327 . S
C1104 C1123 1.429 . S
C1104 H1128 0.950 . S
C1105 C1122 1.574 . S
C1105 C1124 1.368 . S
C1105 H1129 0.949 . S
H1106 C1110 0.949 . S
C1107 C1108 1.349 . S
C1107 C1109 1.327 . S
C1107 H1130 0.950 . S
C1108 C1107 1.349 . S
C1108 C1120 1.349 . S
C1109 C1107 1.327 . S
C1109 C1125 1.429 . S
C1109 H1131 0.950 . S
C1110 H1106 0.949 . S
C1110 C1118 1.574 . S
C1110 C1126 1.368 . S
H1111 C1119 0.950 . S
H1112 C1117 0.950 . S
H1113 C1118 0.949 . S
H1114 C1120 0.950 . S
H1115 C1121 0.950 . S
H1116 C1122 0.949 . S
C1117 H1112 0.950 . S
C1117 C1119 1.327 . S
C1117 C1123 1.429 . S
C1118 C1110 1.574 . S
C1118 H1113 0.949 . S
C1118 C1124 1.368 . S
C1119 C1103 1.349 . S
C1119 H1111 0.950 . S
C1119 C1117 1.327 . S
C1120 C1108 1.349 . S
C1120 H1114 0.950 . S
C1120 C1121 1.327 . S
C1121 H1115 0.950 . S
C1121 C1120 1.327 . S
C1121 C1125 1.429 . S
C1122 C1105 1.574 . S
C1122 H1116 0.949 . S
C1122 C1126 1.368 . S
C1123 C1104 1.429 . S
C1123 C1117 1.429 . S
C1123 C1124 1.523 . S
C1124 C1105 1.368 . S
C1124 C1118 1.368 . S
C1124 C1123 1.523 . S
C1125 C1109 1.429 . S
C1125 C1121 1.429 . S
C1125 C1126 1.523 . S
C1126 C1110 1.368 . S
C1126 C1122 1.368 . S
C1126 C1125 1.523 . S
H1127 C1102 0.950 . S
H1128 C1104 0.950 . S
H1129 C1105 0.949 . S
H1130 C1107 0.950 . S
H1131 C1109 0.950 . S
C1132 C1133 1.349 . S
C1132 C1134 1.327 . S
C1132 H1157 0.950 . S
C1133 C1132 1.349 . S
C1133 C1149 1.349 . S
C1134 C1132 1.327 . S
C1134 C1153 1.429 . S
C1134 H1158 0.950 . S
C1135 C1152 1.574 . S
C1135 C1154 1.368 . S
C1135 H1159 0.949 . S
H1136 C1140 0.949 . S
C1137 C1138 1.349 . S
C1137 C1139 1.327 . S
C1137 H1160 0.950 . S
C1138 C1137 1.349 . S
C1138 C1150 1.349 . S
C1139 C1137 1.327 . S
C1139 C1155 1.429 . S
C1139 H1161 0.950 . S
C1140 H1136 0.949 . S
C1140 C1148 1.574 . S
C1140 C1156 1.368 . S
H1141 C1149 0.950 . S
H1142 C1147 0.950 . S
H1143 C1148 0.949 . S
H1144 C1150 0.950 . S
H1145 C1151 0.950 . S
H1146 C1152 0.949 . S
C1147 H1142 0.950 . S
C1147 C1149 1.327 . S
C1147 C1153 1.429 . S
C1148 C1140 1.574 . S
C1148 H1143 0.949 . S
C1148 C1154 1.368 . S
C1149 C1133 1.349 . S
C1149 H1141 0.950 . S
C1149 C1147 1.327 . S
C1150 C1138 1.349 . S
C1150 H1144 0.950 . S
C1150 C1151 1.327 . S
C1151 H1145 0.950 . S
C1151 C1150 1.327 . S
C1151 C1155 1.429 . S
C1152 C1135 1.574 . S
C1152 H1146 0.949 . S
C1152 C1156 1.368 . S
C1153 C1134 1.429 . S
C1153 C1147 1.429 . S
C1153 C1154 1.523 . S
C1154 C1135 1.368 . S
C1154 C1148 1.368 . S
C1154 C1153 1.523 . S
C1155 C1139 1.429 . S
C1155 C1151 1.429 . S
C1155 C1156 1.523 . S
C1156 C1140 1.368 . S
C1156 C1152 1.368 . S
C1156 C1155 1.523 . S
H1157 C1132 0.950 . S
H1158 C1134 0.950 . S
H1159 C1135 0.949 . S
H1160 C1137 0.950 . S
H1161 C1139 0.950 . S
C1162 C1163 1.349 . S
C1162 C1164 1.327 . S
C1162 H1187 0.950 . S
C1163 C1162 1.349 . S
C1163 C1179 1.349 . S
C1164 C1162 1.327 . S
C1164 C1183 1.429 . S
C1164 H1188 0.950 . S
C1165 C1182 1.574 . S
C1165 C1184 1.368 . S
C1165 H1189 0.949 . S
H1166 C1170 0.949 . S
C1167 C1168 1.349 . S
C1167 C1169 1.327 . S
C1167 H1190 0.950 . S
C1168 C1167 1.349 . S
C1168 C1180 1.349 . S
C1169 C1167 1.327 . S
C1169 C1185 1.429 . S
C1169 H1191 0.950 . S
C1170 H1166 0.949 . S
C1170 C1178 1.574 . S
C1170 C1186 1.368 . S
H1171 C1179 0.950 . S
H1172 C1177 0.950 . S
H1173 C1178 0.949 . S
H1174 C1180 0.950 . S
H1175 C1181 0.950 . S
H1176 C1182 0.949 . S
C1177 H1172 0.950 . S
C1177 C1179 1.327 . S
C1177 C1183 1.429 . S
C1178 C1170 1.574 . S
C1178 H1173 0.949 . S
C1178 C1184 1.368 . S
C1179 C1163 1.349 . S
C1179 H1171 0.950 . S
C1179 C1177 1.327 . S
C1180 C1168 1.349 . S
C1180 H1174 0.950 . S
C1180 C1181 1.327 . S
C1181 H1175 0.950 . S
C1181 C1180 1.327 . S
C1181 C1185 1.429 . S
C1182 C1165 1.574 . S
C1182 H1176 0.949 . S
C1182 C1186 1.368 . S
C1183 C1164 1.429 . S
C1183 C1177 1.429 . S
C1183 C1184 1.523 . S
C1184 C1165 1.368 . S
C1184 C1178 1.368 . S
C1184 C1183 1.523 . S
C1185 C1169 1.429 . S
C1185 C1181 1.429 . S
C1185 C1186 1.523 . S
C1186 C1170 1.368 . S
C1186 C1182 1.368 . S
C1186 C1185 1.523 . S
H1187 C1162 0.950 . S
H1188 C1164 0.950 . S
H1189 C1165 0.949 . S
H1190 C1167 0.950 . S
H1191 C1169 0.950 . S
C1192 C1193 1.349 . S
C1192 C1194 1.327 . S
C1192 H1217 0.950 . S
C1193 C1192 1.349 . S
C1193 C1209 1.349 . S
C1194 C1192 1.327 . S
C1194 C1213 1.429 . S
C1194 H1218 0.950 . S
C1195 C1212 1.574 . S
C1195 C1214 1.368 . S
C1195 H1219 0.949 . S
H1196 C1200 0.949 . S
C1197 C1198 1.349 . S
C1197 C1199 1.327 . S
C1197 H1220 0.950 . S
C1198 C1197 1.349 . S
C1198 C1210 1.349 . S
C1199 C1197 1.327 . S
C1199 C1215 1.429 . S
C1199 H1221 0.950 . S
C1200 H1196 0.949 . S
C1200 C1208 1.574 . S
C1200 C1216 1.368 . S
H1201 C1209 0.950 . S
H1202 C1207 0.950 . S
H1203 C1208 0.949 . S
H1204 C1210 0.950 . S
H1205 C1211 0.950 . S
H1206 C1212 0.949 . S
C1207 H1202 0.950 . S
C1207 C1209 1.327 . S
C1207 C1213 1.429 . S
C1208 C1200 1.574 . S
C1208 H1203 0.949 . S
C1208 C1214 1.368 . S
C1209 C1193 1.349 . S
C1209 H1201 0.950 . S
C1209 C1207 1.327 . S
C1210 C1198 1.349 . S
C1210 H1204 0.950 . S
C1210 C1211 1.327 . S
C1211 H1205 0.950 . S
C1211 C1210 1.327 . S
C1211 C1215 1.429 . S
C1212 C1195 1.574 . S
C1212 H1206 0.949 . S
C1212 C1216 1.368 . S
C1213 C1194 1.429 . S
C1213 C1207 1.429 . S
C1213 C1214 1.523 . S
C1214 C1195 1.368 . S
C1214 C1208 1.368 . S
C1214 C1213 1.523 . S
C1215 C1199 1.429 . S
C1215 C1211 1.429 . S
C1215 C1216 1.523 . S
C1216 C1200 1.368 . S
C1216 C1212 1.368 . S
C1216 C1215 1.523 . S
H1217 C1192 0.950 . S
H1218 C1194 0.950 . S
H1219 C1195 0.949 . S
H1220 C1197 0.950 . S
H1221 C1199 0.950 . S
C1222 C1223 1.349 . S
C1222 C1224 1.327 . S
C1222 H1247 0.950 . S
C1223 C1222 1.349 . S
C1223 C1239 1.349 . S
C1224 C1222 1.327 . S
C1224 C1243 1.429 . S
C1224 H1248 0.950 . S
C1225 C1242 1.574 . S
C1225 C1244 1.368 . S
C1225 H1249 0.949 . S
H1226 C1230 0.949 . S
C1227 C1228 1.349 . S
C1227 C1229 1.327 . S
C1227 H1250 0.950 . S
C1228 C1227 1.349 . S
C1228 C1240 1.349 . S
C1229 C1227 1.327 . S
C1229 C1245 1.429 . S
C1229 H1251 0.950 . S
C1230 H1226 0.949 . S
C1230 C1238 1.574 . S
C1230 C1246 1.368 . S
H1231 C1239 0.950 . S
H1232 C1237 0.950 . S
H1233 C1238 0.949 . S
H1234 C1240 0.950 . S
H1235 C1241 0.950 . S
H1236 C1242 0.949 . S
C1237 H1232 0.950 . S
C1237 C1239 1.327 . S
C1237 C1243 1.429 . S
C1238 C1230 1.574 . S
C1238 H1233 0.949 . S
C1238 C1244 1.368 . S
C1239 C1223 1.349 . S
C1239 H1231 0.950 . S
C1239 C1237 1.327 . S
C1240 C1228 1.349 . S
C1240 H1234 0.950 . S
C1240 C1241 1.327 . S
C1241 H1235 0.950 . S
C1241 C1240 1.327 . S
C1241 C1245 1.429 . S
C1242 C1225 1.574 . S
C1242 H1236 0.949 . S
C1242 C1246 1.368 . S
C1243 C1224 1.429 . S
C1243 C1237 1.429 . S
C1243 C1244 1.523 . S
C1244 C1225 1.368 . S
C1244 C1238 1.368 . S
C1244 C1243 1.523 . S
C1245 C1229 1.429 . S
C1245 C1241 1.429 . S
C1245 C1246 1.523 . S
C1246 C1230 1.368 . S
C1246 C1242 1.368 . S
C1246 C1245 1.523 . S
H1247 C1222 0.950 . S
H1248 C1224 0.950 . S
H1249 C1225 0.949 . S
H1250 C1227 0.950 . S
H1251 C1229 0.950 . S
C1252 C1253 1.349 . S
C1252 C1254 1.327 . S
C1252 H1277 0.950 . S
C1253 C1252 1.349 . S
C1253 C1269 1.349 . S
C1254 C1252 1.327 . S
C1254 C1273 1.429 . S
C1254 H1278 0.950 . S
C1255 C1272 1.574 . S
C1255 C1274 1.368 . S
C1255 H1279 0.949 . S
H1256 C1260 0.949 . S
C1257 C1258 1.349 . S
C1257 C1259 1.327 . S
C1257 H1280 0.950 . S
C1258 C1257 1.349 . S
C1258 C1270 1.349 . S
C1259 C1257 1.327 . S
C1259 C1275 1.429 . S
C1259 H1281 0.950 . S
C1260 H1256 0.949 . S
C1260 C1268 1.574 . S
C1260 C1276 1.368 . S
H1261 C1269 0.950 . S
H1262 C1267 0.950 . S
H1263 C1268 0.949 . S
H1264 C1270 0.950 . S
H1265 C1271 0.950 . S
H1266 C1272 0.949 . S
C1267 H1262 0.950 . S
C1267 C1269 1.327 . S
C1267 C1273 1.429 . S
C1268 C1260 1.574 . S
C1268 H1263 0.949 . S
C1268 C1274 1.368 . S
C1269 C1253 1.349 . S
C1269 H1261 0.950 . S
C1269 C1267 1.327 . S
C1270 C1258 1.349 . S
C1270 H1264 0.950 . S
C1270 C1271 1.327 . S
C1271 H1265 0.950 . S
C1271 C1270 1.327 . S
C1271 C1275 1.429 . S
C1272 C1255 1.574 . S
C1272 H1266 0.949 . S
C1272 C1276 1.368 . S
C1273 C1254 1.429 . S
C1273 C1267 1.429 . S
C1273 C1274 1.523 . S
C1274 C1255 1.368 . S
C1274 C1268 1.368 . S
C1274 C1273 1.523 . S
C1275 C1259 1.429 . S
C1275 C1271 1.429 . S
C1275 C1276 1.523 . S
C1276 C1260 1.368 . S
C1276 C1272 1.368 . S
C1276 C1275 1.523 . S
H1277 C1252 0.950 . S
H1278 C1254 0.950 . S
H1279 C1255 0.949 . S
H1280 C1257 0.950 . S
H1281 C1259 0.950 . S
C1282 C1283 1.349 . S
C1282 C1284 1.327 . S
C1282 H1307 0.950 . S
C1283 C1282 1.349 . S
C1283 C1299 1.349 . S
C1284 C1282 1.327 . S
C1284 C1303 1.429 . S
C1284 H1308 0.950 . S
C1285 C1302 1.574 . S
C1285 C1304 1.368 . S
C1285 H1309 0.949 . S
H1286 C1290 0.949 . S
C1287 C1288 1.349 . S
C1287 C1289 1.327 . S
C1287 H1310 0.950 . S
C1288 C1287 1.349 . S
C1288 C1300 1.349 . S
C1289 C1287 1.327 . S
C1289 C1305 1.429 . S
C1289 H1311 0.950 . S
C1290 H1286 0.949 . S
C1290 C1298 1.574 . S
C1290 C1306 1.368 . S
H1291 C1299 0.950 . S
H1292 C1297 0.950 . S
H1293 C1298 0.949 . S
H1294 C1300 0.950 . S
H1295 C1301 0.950 . S
H1296 C1302 0.949 . S
C1297 H1292 0.950 . S
C1297 C1299 1.327 . S
C1297 C1303 1.429 . S
C1298 C1290 1.574 . S
C1298 H1293 0.949 . S
C1298 C1304 1.368 . S
C1299 C1283 1.349 . S
C1299 H1291 0.950 . S
C1299 C1297 1.327 . S
C1300 C1288 1.349 . S
C1300 H1294 0.950 . S
C1300 C1301 1.327 . S
C1301 H1295 0.950 . S
C1301 C1300 1.327 . S
C1301 C1305 1.429 . S
C1302 C1285 1.574 . S
C1302 H1296 0.949 . S
C1302 C1306 1.368 . S
C1303 C1284 1.429 . S
C1303 C1297 1.429 . S
C1303 C1304 1.523 . S
C1304 C1285 1.368 . S
C1304 C1298 1.368 . S
C1304 C1303 1.523 . S
C1305 C1289 1.429 . S
C1305 C1301 1.429 . S
C1305 C1306 1.523 . S
C1306 C1290 1.368 . S
C1306 C1302 1.368 . S
C1306 C1305 1.523 . S
H1307 C1282 0.950 . S
H1308 C1284 0.950 . S
H1309 C1285 0.949 . S
H1310 C1287 0.950 . S
H1311 C1289 0.950 . S
C593 C221 1.468 . S
C598 C330 1.467 . S
C628 C414 1.469 . S
C623 C241 1.445 . S
C658 C407 1.473 . S
C653 C157 1.458 . S
C683 C177 1.432 . S
C688 C323 1.476 . S
C718 C487 1.467 . S
C713 C93 1.438 . S
C748 C571 1.469 . S
C743 C113 1.477 . S
C773 C29 1.422 . S
C778 C564 1.473 . S
C803 C49 1.468 . S
C808 C480 1.476 . S
C838 C314 1.341 . S
C833 C61 1.502 . S
C868 C398 1.346 . S
C863 C17 1.474 . S
C898 C409 1.400 . S
C893 C125 1.524 . S
C928 C325 1.401 . S
C923 C81 1.499 . S
C958 C493 1.341 . S
C953 C189 1.459 . S
C983 C145 1.507 . S
C988 C577 1.346 . S
C1018 C566 1.400 . S
C1013 C253 1.485 . S
C1043 C209 1.528 . S
C1048 C482 1.401 . S
C1078 C312 1.573 . S
C1073 C23 1.527 . S
C1108 C396 1.586 . S
C1103 C55 1.572 . S
C1133 C87 1.521 . S
C1138 C403 1.548 . S
C1168 C319 1.558 . S
C1163 C119 1.558 . S
C1198 C491 1.573 . S
C1193 C151 1.565 . S
C1223 C183 1.529 . S
C1228 C575 1.586 . S
C1253 C215 1.554 . S
C1258 C582 1.548 . S
C1283 C247 1.521 . S
C1288 C498 1.558 . S
