# Generated by pormake.
# Topology ctn, (3,4)-cn, num edge types: 1
# Building blocks:
#     Node 0, Type 0, BuildingBlock: BELTOD_clean_linker_0, # of connection points: 3
#     Node 1, Type 0, BuildingBlock: BELTOD_clean_linker_0, # of connection points: 3
#     Node 2, Type 0, BuildingBlock: BELTOD_clean_linker_0, # of connection points: 3
#     Node 3, Type 0, BuildingBlock: BELTOD_clean_linker_0, # of connection points: 3
#     Node 4, Type 0, BuildingBlock: BELTOD_clean_linker_0, # of connection points: 3
#     Node 5, Type 0, BuildingBlock: BELTOD_clean_linker_0, # of connection points: 3
#     Node 6, Type 0, BuildingBlock: BELTOD_clean_linker_0, # of connection points: 3
#     Node 7, Type 0, BuildingBlock: BELTOD_clean_linker_0, # of connection points: 3
#     Node 8, Type 0, BuildingBlock: BELTOD_clean_linker_0, # of connection points: 3
#     Node 9, Type 0, BuildingBlock: BELTOD_clean_linker_0, # of connection points: 3
#     Node 10, Type 0, BuildingBlock: BELTOD_clean_linker_0, # of connection points: 3
#     Node 11, Type 0, BuildingBlock: BELTOD_clean_linker_0, # of connection points: 3
#     Node 12, Type 0, BuildingBlock: BELTOD_clean_linker_0, # of connection points: 3
#     Node 13, Type 0, BuildingBlock: BELTOD_clean_linker_0, # of connection points: 3
#     Node 14, Type 0, BuildingBlock: BELTOD_clean_linker_0, # of connection points: 3
#     Node 15, Type 0, BuildingBlock: BELTOD_clean_linker_0, # of connection points: 3
#     Node 16, Type 1, BuildingBlock: UXUYUI_clean_sbu_0, # of connection points: 4
#     Node 17, Type 1, BuildingBlock: UXUYUI_clean_sbu_0, # of connection points: 4
#     Node 18, Type 1, BuildingBlock: UXUYUI_clean_sbu_0, # of connection points: 4
#     Node 19, Type 1, BuildingBlock: UXUYUI_clean_sbu_0, # of connection points: 4
#     Node 20, Type 1, BuildingBlock: UXUYUI_clean_sbu_0, # of connection points: 4
#     Node 21, Type 1, BuildingBlock: UXUYUI_clean_sbu_0, # of connection points: 4
#     Node 22, Type 1, BuildingBlock: UXUYUI_clean_sbu_0, # of connection points: 4
#     Node 23, Type 1, BuildingBlock: UXUYUI_clean_sbu_0, # of connection points: 4
#     Node 24, Type 1, BuildingBlock: UXUYUI_clean_sbu_0, # of connection points: 4
#     Node 25, Type 1, BuildingBlock: UXUYUI_clean_sbu_0, # of connection points: 4
#     Node 26, Type 1, BuildingBlock: UXUYUI_clean_sbu_0, # of connection points: 4
#     Node 27, Type 1, BuildingBlock: UXUYUI_clean_sbu_0, # of connection points: 4
#     Edge 28, Type (0, 1), BuildingBlock: TEMPAE_clean_linker_10, # of connection points: 2
#     Edge 29, Type (0, 1), BuildingBlock: TEMPAE_clean_linker_10, # of connection points: 2
#     Edge 30, Type (0, 1), BuildingBlock: TEMPAE_clean_linker_10, # of connection points: 2
#     Edge 31, Type (0, 1), BuildingBlock: TEMPAE_clean_linker_10, # of connection points: 2
#     Edge 32, Type (0, 1), BuildingBlock: TEMPAE_clean_linker_10, # of connection points: 2
#     Edge 33, Type (0, 1), BuildingBlock: TEMPAE_clean_linker_10, # of connection points: 2
#     Edge 34, Type (0, 1), BuildingBlock: TEMPAE_clean_linker_10, # of connection points: 2
#     Edge 35, Type (0, 1), BuildingBlock: TEMPAE_clean_linker_10, # of connection points: 2
#     Edge 36, Type (0, 1), BuildingBlock: TEMPAE_clean_linker_10, # of connection points: 2
#     Edge 37, Type (0, 1), BuildingBlock: TEMPAE_clean_linker_10, # of connection points: 2
#     Edge 38, Type (0, 1), BuildingBlock: TEMPAE_clean_linker_10, # of connection points: 2
#     Edge 39, Type (0, 1), BuildingBlock: TEMPAE_clean_linker_10, # of connection points: 2
#     Edge 40, Type (0, 1), BuildingBlock: TEMPAE_clean_linker_10, # of connection points: 2
#     Edge 41, Type (0, 1), BuildingBlock: TEMPAE_clean_linker_10, # of connection points: 2
#     Edge 42, Type (0, 1), BuildingBlock: TEMPAE_clean_linker_10, # of connection points: 2
#     Edge 43, Type (0, 1), BuildingBlock: TEMPAE_clean_linker_10, # of connection points: 2
#     Edge 44, Type (0, 1), BuildingBlock: TEMPAE_clean_linker_10, # of connection points: 2
#     Edge 45, Type (0, 1), BuildingBlock: TEMPAE_clean_linker_10, # of connection points: 2
#     Edge 46, Type (0, 1), BuildingBlock: TEMPAE_clean_linker_10, # of connection points: 2
#     Edge 47, Type (0, 1), BuildingBlock: TEMPAE_clean_linker_10, # of connection points: 2
#     Edge 48, Type (0, 1), BuildingBlock: TEMPAE_clean_linker_10, # of connection points: 2
#     Edge 49, Type (0, 1), BuildingBlock: TEMPAE_clean_linker_10, # of connection points: 2
#     Edge 50, Type (0, 1), BuildingBlock: TEMPAE_clean_linker_10, # of connection points: 2
#     Edge 51, Type (0, 1), BuildingBlock: TEMPAE_clean_linker_10, # of connection points: 2
#     Edge 52, Type (0, 1), BuildingBlock: TEMPAE_clean_linker_10, # of connection points: 2
#     Edge 53, Type (0, 1), BuildingBlock: TEMPAE_clean_linker_10, # of connection points: 2
#     Edge 54, Type (0, 1), BuildingBlock: TEMPAE_clean_linker_10, # of connection points: 2
#     Edge 55, Type (0, 1), BuildingBlock: TEMPAE_clean_linker_10, # of connection points: 2
#     Edge 56, Type (0, 1), BuildingBlock: TEMPAE_clean_linker_10, # of connection points: 2
#     Edge 57, Type (0, 1), BuildingBlock: TEMPAE_clean_linker_10, # of connection points: 2
#     Edge 58, Type (0, 1), BuildingBlock: TEMPAE_clean_linker_10, # of connection points: 2
#     Edge 59, Type (0, 1), BuildingBlock: TEMPAE_clean_linker_10, # of connection points: 2
#     Edge 60, Type (0, 1), BuildingBlock: TEMPAE_clean_linker_10, # of connection points: 2
#     Edge 61, Type (0, 1), BuildingBlock: TEMPAE_clean_linker_10, # of connection points: 2
#     Edge 62, Type (0, 1), BuildingBlock: TEMPAE_clean_linker_10, # of connection points: 2
#     Edge 63, Type (0, 1), BuildingBlock: TEMPAE_clean_linker_10, # of connection points: 2
#     Edge 64, Type (0, 1), BuildingBlock: TEMPAE_clean_linker_10, # of connection points: 2
#     Edge 65, Type (0, 1), BuildingBlock: TEMPAE_clean_linker_10, # of connection points: 2
#     Edge 66, Type (0, 1), BuildingBlock: TEMPAE_clean_linker_10, # of connection points: 2
#     Edge 67, Type (0, 1), BuildingBlock: TEMPAE_clean_linker_10, # of connection points: 2
#     Edge 68, Type (0, 1), BuildingBlock: TEMPAE_clean_linker_10, # of connection points: 2
#     Edge 69, Type (0, 1), BuildingBlock: TEMPAE_clean_linker_10, # of connection points: 2
#     Edge 70, Type (0, 1), BuildingBlock: TEMPAE_clean_linker_10, # of connection points: 2
#     Edge 71, Type (0, 1), BuildingBlock: TEMPAE_clean_linker_10, # of connection points: 2
#     Edge 72, Type (0, 1), BuildingBlock: TEMPAE_clean_linker_10, # of connection points: 2
#     Edge 73, Type (0, 1), BuildingBlock: TEMPAE_clean_linker_10, # of connection points: 2
#     Edge 74, Type (0, 1), BuildingBlock: TEMPAE_clean_linker_10, # of connection points: 2
#     Edge 75, Type (0, 1), BuildingBlock: TEMPAE_clean_linker_10, # of connection points: 2
# Relax obj value: 0.001
# Max RMSD: 0.018
# Mean RMSD: 0.012
data_MOF--net-ctn--node1-UXUYUI_clean_sbu_0--node2-BELTOD_clean_linker_0--edge1-TEMPAE_clean_linker_10
_symmetry_space_group_name_H-M    P1
_symmetry_Int_Tables_number       1
_symmetry_cell_setting            triclinic
loop_
_symmetry_equiv_pos_as_xyz
'x, y, z'
_cell_length_a     76.326863
_cell_length_b     76.856647
_cell_length_c     76.195918
_cell_angle_alpha  89.351504
_cell_angle_beta   90.106613
_cell_angle_gamma 90.749697
loop_
_atom_site_label
_atom_site_type_symbol
_atom_site_fract_x
_atom_site_fract_y
_atom_site_fract_z
_atom_type_partial_charge
P0 P 0.05693 0.05186 0.0597 0.0
H1 H 0.05675 0.03549 0.09422 0.0
H2 H 0.03343 0.02764 0.11481 0.0
H3 H 0.99496 0.04652 0.07772 0.0
H4 H 0.01836 0.05362 0.05692 0.0
H5 H 0.08309 0.05007 0.03219 0.0
H6 H 0.10105 0.02635 0.02144 0.0
H7 H 0.07249 0.99004 0.05469 0.0
H8 H 0.05459 0.01377 0.06537 0.0
H9 H 0.05569 0.0897 0.05953 0.0
H10 H 0.04143 0.04813 0.02457 0.0
O11 O 0.07216 0.06167 0.07199 0.0
H12 H 0.04634 0.11108 0.03771 0.0
H13 H 0.03153 0.0695 0.0027 0.0
C14 C 0.03932 0.04529 0.07414 0.0
C15 C 0.04328 0.03782 0.0905 0.0
C16 C 0.02992 0.03346 0.1023 0.0
C17 C 0.01229 0.03664 0.09804 0.0
C18 C 0.00836 0.04375 0.0814 0.0
C19 C 0.02176 0.04795 0.06952 0.0
C20 C 0.06745 0.03372 0.04952 0.0
C21 C 0.08042 0.03693 0.03686 0.0
C22 C 0.09067 0.02336 0.0307 0.0
C23 C 0.08824 0.00633 0.03728 0.0
C24 C 0.07478 0.00306 0.04951 0.0
C25 C 0.06448 0.01664 0.05558 0.0
C26 C 0.04959 0.06737 0.0435 0.0
C27 C 0.05051 0.08518 0.04713 0.0
C28 C 0.04498 0.0974 0.03468 0.0
C29 C 0.03819 0.09203 0.01841 0.0
C30 C 0.03694 0.07409 0.01498 0.0
C31 C 0.04255 0.06186 0.02746 0.0
P32 P 0.30695 0.69508 0.19917 0.0
H33 H 0.32091 0.70761 0.16565 0.0
H34 H 0.31242 0.73098 0.14569 0.0
H35 H 0.27191 0.74598 0.1819 0.0
H36 H 0.28022 0.72202 0.20163 0.0
H37 H 0.32322 0.67565 0.22751 0.0
H38 H 0.34323 0.68385 0.25117 0.0
H39 H 0.34084 0.73759 0.2341 0.0
H40 H 0.32051 0.72932 0.21073 0.0
H41 H 0.28201 0.67379 0.18006 0.0
H42 H 0.28887 0.69101 0.23333 0.0
O43 O 0.31887 0.68124 0.18761 0.0
H44 H 0.25698 0.65571 0.18916 0.0
H45 H 0.26384 0.67289 0.24256 0.0
C46 C 0.30102 0.71294 0.18498 0.0
C47 C 0.31018 0.71589 0.1693 0.0
C48 C 0.3054 0.7294 0.15795 0.0
C49 C 0.29146 0.7404 0.16215 0.0
C50 C 0.28253 0.7376 0.17812 0.0
C51 C 0.2873 0.72398 0.18945 0.0
C52 C 0.32031 0.70185 0.21743 0.0
C53 C 0.32685 0.68922 0.22901 0.0
C54 C 0.33839 0.69392 0.24244 0.0
C55 C 0.34374 0.71137 0.24446 0.0
C56 C 0.33685 0.72407 0.23303 0.0
C57 C 0.32525 0.71934 0.21959 0.0
C58 C 0.28749 0.68344 0.20606 0.0
C59 C 0.27802 0.67377 0.1937 0.0
C60 C 0.26366 0.66354 0.1989 0.0
C61 C 0.25851 0.66279 0.21661 0.0
C62 C 0.26766 0.67302 0.22887 0.0
C63 C 0.28198 0.68338 0.22361 0.0
P64 P 0.98034 0.48397 0.02069 0.0
H65 H 0.97182 0.47249 0.9855 0.0
H66 H 0.97111 0.4439 0.97172 0.0
H67 H 0.98429 0.41985 0.02145 0.0
H68 H 0.985 0.44849 0.03515 0.0
H69 H 0.97069 0.51945 0.02829 0.0
H70 H 0.94266 0.53451 0.02875 0.0
H71 H 0.91579 0.48634 0.01642 0.0
H72 H 0.94388 0.47136 0.01599 0.0
H73 H 0.01658 0.47908 0.03105 0.0
H74 H 0.96714 0.48683 0.0569 0.0
O75 O 0.99296 0.49612 0.00741 0.0
H76 H 0.0315 0.4789 0.05945 0.0
H77 H 0.98201 0.48726 0.08534 0.0
C78 C 0.97866 0.46263 0.01126 0.0
C79 C 0.97446 0.46104 0.99344 0.0
C80 C 0.97396 0.44469 0.98562 0.0
C81 C 0.97772 0.42963 0.99549 0.0
C82 C 0.98155 0.43125 0.01347 0.0
C83 C 0.98192 0.44762 0.02132 0.0
C84 C 0.95939 0.49438 0.02189 0.0
C85 C 0.95875 0.51213 0.02576 0.0
C86 C 0.94272 0.52069 0.02612 0.0
C87 C 0.92702 0.51161 0.02255 0.0
C88 C 0.92769 0.49371 0.019 0.0
C89 C 0.94375 0.48514 0.01877 0.0
C90 C 0.99084 0.48331 0.04186 0.0
C91 C 0.00896 0.48086 0.04286 0.0
C92 C 0.01747 0.48085 0.0591 0.0
C93 C 0.00799 0.48329 0.07468 0.0
C94 C 0.9897 0.48526 0.07362 0.0
C95 C 0.98119 0.48518 0.05734 0.0
P96 P 0.69528 0.80504 0.19922 0.0
H97 H 0.71027 0.83573 0.18186 0.0
H98 H 0.73357 0.85614 0.18995 0.0
H99 H 0.74368 0.82576 0.2369 0.0
H100 H 0.71995 0.80557 0.22885 0.0
H101 H 0.6762 0.78003 0.17803 0.0
H102 H 0.68542 0.75674 0.15865 0.0
H103 H 0.73948 0.76744 0.17205 0.0
H104 H 0.73016 0.79073 0.19147 0.0
H105 H 0.67979 0.82423 0.22766 0.0
H106 H 0.685 0.77037 0.21346 0.0
O107 O 0.68112 0.81639 0.18711 0.0
H108 H 0.66119 0.81559 0.25242 0.0
H109 H 0.66642 0.76165 0.2382 0.0
C110 C 0.71317 0.81939 0.20495 0.0
C111 C 0.71748 0.83347 0.19391 0.0
C112 C 0.73093 0.84505 0.19848 0.0
C113 C 0.74047 0.84265 0.21413 0.0
C114 C 0.73641 0.82816 0.22492 0.0
C115 C 0.7229 0.81658 0.22031 0.0
C116 C 0.70247 0.78718 0.18608 0.0
C117 C 0.69003 0.77727 0.17689 0.0
C118 C 0.69531 0.76391 0.16591 0.0
C119 C 0.71318 0.76028 0.16382 0.0
C120 C 0.72563 0.77005 0.1733 0.0
C121 C 0.72031 0.78334 0.18443 0.0
C122 C 0.68373 0.79799 0.21868 0.0
C123 C 0.67715 0.81052 0.23004 0.0
C124 C 0.66657 0.80556 0.24422 0.0
C125 C 0.66228 0.78793 0.24723 0.0
C126 C 0.66934 0.77534 0.2361 0.0
C127 C 0.68001 0.78033 0.22196 0.0
P128 P 0.0572 0.94569 0.44709 0.0
H129 H 0.09509 0.9472 0.45103 0.0
H130 H 0.11527 0.96935 0.46217 0.0
H131 H 0.0714 0.00164 0.47541 0.0
H132 H 0.05122 0.97938 0.46398 0.0
H133 H 0.04918 0.90862 0.44564 0.0
H134 H 0.04066 0.88705 0.46786 0.0
H135 H 0.04218 0.92691 0.50744 0.0
H136 H 0.0502 0.94854 0.48494 0.0
H137 H 0.05299 0.97777 0.42668 0.0
H138 H 0.02071 0.93395 0.44267 0.0
O139 O 0.06823 0.93518 0.43167 0.0
H140 H 0.02893 0.98898 0.40891 0.0
H141 H 0.99689 0.94461 0.42436 0.0
C142 C 0.07172 0.96186 0.45626 0.0
C143 C 0.0898 0.95905 0.45631 0.0
C144 C 0.10133 0.97166 0.46284 0.0
C145 C 0.09495 0.98731 0.4696 0.0
C146 C 0.07673 0.98985 0.47004 0.0
C147 C 0.06519 0.97715 0.46353 0.0
C148 C 0.05068 0.93009 0.46371 0.0
C149 C 0.04773 0.91271 0.45911 0.0
C150 C 0.04292 0.90037 0.47186 0.0
C151 C 0.04096 0.90518 0.4895 0.0
C152 C 0.04351 0.92276 0.49397 0.0
C153 C 0.04824 0.93513 0.48115 0.0
C154 C 0.03854 0.95525 0.43637 0.0
C155 C 0.04061 0.97073 0.42665 0.0
C156 C 0.0269 0.977 0.41629 0.0
C157 C 0.01094 0.96769 0.41513 0.0
C158 C 0.00884 0.95232 0.42516 0.0
C159 C 0.02253 0.94615 0.43564 0.0
P160 P 0.22951 0.73309 0.77035 0.0
H161 H 0.25292 0.75975 0.78453 0.0
H162 H 0.25474 0.77387 0.81298 0.0
H163 H 0.21187 0.74151 0.83188 0.0
H164 H 0.20987 0.72772 0.80307 0.0
H165 H 0.26275 0.72228 0.7553 0.0
H166 H 0.27817 0.69473 0.75541 0.0
H167 H 0.23672 0.67128 0.78661 0.0
H168 H 0.22156 0.6992 0.78682 0.0
H169 H 0.19969 0.7561 0.7729 0.0
H170 H 0.21016 0.7056 0.75151 0.0
O171 O 0.23919 0.74634 0.7557 0.0
H172 H 0.17032 0.7552 0.76022 0.0
H173 H 0.18056 0.70418 0.7395 0.0
C174 C 0.23105 0.74293 0.79162 0.0
C175 C 0.24387 0.75572 0.79477 0.0
C176 C 0.245 0.76368 0.81112 0.0
C177 C 0.23342 0.75886 0.82473 0.0
C178 C 0.22081 0.74571 0.82161 0.0
C179 C 0.21969 0.73777 0.80519 0.0
C180 C 0.24087 0.71269 0.77081 0.0
C181 C 0.25694 0.71123 0.76215 0.0
C182 C 0.26572 0.6954 0.76214 0.0
C183 C 0.25859 0.6807 0.77082 0.0
C184 C 0.24263 0.68235 0.77986 0.0
C185 C 0.23389 0.69826 0.77992 0.0
C186 C 0.207 0.73077 0.76352 0.0
C187 C 0.19548 0.74459 0.76591 0.0
C188 C 0.17864 0.74401 0.75868 0.0
C189 C 0.17299 0.72959 0.74883 0.0
C190 C 0.1845 0.71558 0.74683 0.0
C191 C 0.2014 0.71627 0.75392 0.0
P192 P 0.98427 0.51572 0.48881 0.0
H193 H 0.02011 0.51014 0.47726 0.0
H194 H 0.03405 0.51077 0.44845 0.0
H195 H 0.98498 0.52548 0.42459 0.0
H196 H 0.97098 0.52471 0.45359 0.0
H197 H 0.98579 0.52601 0.52535 0.0
H198 H 0.98489 0.55408 0.53982 0.0
H199 H 0.97792 0.57961 0.48948 0.0
H200 H 0.97942 0.55138 0.47503 0.0
H201 H 0.97263 0.47963 0.49207 0.0
H202 H 0.94902 0.52942 0.48196 0.0
O203 O 0.99669 0.50309 0.5016 0.0
H204 H 0.94378 0.46557 0.49131 0.0
H205 H 0.91997 0.51537 0.48119 0.0
C206 C 0.99444 0.51708 0.46753 0.0
C207 C 0.0123 0.51345 0.46586 0.0
C208 C 0.02026 0.51378 0.44938 0.0
C209 C 0.01055 0.51799 0.43426 0.0
C210 C 0.99277 0.52219 0.43603 0.0
C211 C 0.98475 0.52168 0.45255 0.0
C212 C 0.98305 0.53664 0.4991 0.0
C213 C 0.98416 0.53765 0.5174 0.0
C214 C 0.98345 0.55373 0.52569 0.0
C215 C 0.98136 0.56916 0.51583 0.0
C216 C 0.97984 0.56803 0.49745 0.0
C217 C 0.98064 0.55189 0.48916 0.0
C218 C 0.96292 0.5056 0.48744 0.0
C219 C 0.96122 0.48755 0.48975 0.0
C220 C 0.94471 0.47953 0.48935 0.0
C221 C 0.92959 0.4894 0.48641 0.0
C222 C 0.93139 0.50744 0.48349 0.0
C223 C 0.94795 0.51549 0.48402 0.0
P224 P 0.80593 0.81087 0.80907 0.0
H225 H 0.836 0.8275 0.79216 0.0
H226 H 0.85559 0.8185 0.76878 0.0
H227 H 0.82493 0.77128 0.7625 0.0
H228 H 0.80502 0.78073 0.78559 0.0
H229 H 0.80117 0.8484 0.80987 0.0
H230 H 0.77782 0.86734 0.79968 0.0
H231 H 0.7494 0.82272 0.77983 0.0
H232 H 0.77301 0.80368 0.79018 0.0
H233 H 0.82311 0.77905 0.82007 0.0
H234 H 0.77236 0.80218 0.82651 0.0
O235 O 0.81845 0.82236 0.82282 0.0
H236 H 0.81439 0.75508 0.83966 0.0
H237 H 0.76356 0.77817 0.84606 0.0
C238 C 0.81938 0.80455 0.79091 0.0
C239 C 0.83347 0.81523 0.78572 0.0
C240 C 0.84472 0.81001 0.7724 0.0
C241 C 0.84205 0.79399 0.76398 0.0
C242 C 0.82738 0.78368 0.7687 0.0
C243 C 0.81606 0.78899 0.78199 0.0
C244 C 0.78863 0.8246 0.80112 0.0
C245 C 0.78993 0.84263 0.80337 0.0
C246 C 0.77662 0.85349 0.79739 0.0
C247 C 0.76175 0.84652 0.78897 0.0
C248 C 0.76061 0.82843 0.78645 0.0
C249 C 0.77407 0.81756 0.79232 0.0
C250 C 0.79823 0.79215 0.82139 0.0
C251 C 0.80995 0.77877 0.82537 0.0
C252 C 0.80502 0.76516 0.83668 0.0
C253 C 0.78828 0.76474 0.84434 0.0
C254 C 0.77644 0.77802 0.84012 0.0
C255 C 0.78146 0.79173 0.82889 0.0
P256 P 0.30498 0.30977 0.30934 0.0
H257 H 0.33597 0.32541 0.29308 0.0
H258 H 0.35431 0.31694 0.26851 0.0
H259 H 0.3195 0.27335 0.25853 0.0
H260 H 0.30128 0.28184 0.28342 0.0
H261 H 0.28731 0.33667 0.3288 0.0
H262 H 0.26443 0.35728 0.32109 0.0
H263 H 0.2616 0.33574 0.26898 0.0
H264 H 0.28412 0.31473 0.27705 0.0
H265 H 0.32003 0.27558 0.3158 0.0
H266 H 0.27302 0.30262 0.32987 0.0
O267 O 0.3184 0.32025 0.32306 0.0
H268 H 0.3113 0.25114 0.33467 0.0
H269 H 0.2646 0.27863 0.34938 0.0
C270 C 0.31754 0.30399 0.29032 0.0
C271 C 0.33226 0.31404 0.2856 0.0
C272 C 0.34265 0.30926 0.27144 0.0
C273 C 0.33843 0.29439 0.26161 0.0
C274 C 0.32326 0.2847 0.26602 0.0
C275 C 0.31283 0.28954 0.2802 0.0
C276 C 0.28763 0.32439 0.30342 0.0
C277 C 0.28175 0.33638 0.31572 0.0
C278 C 0.26872 0.34822 0.31125 0.0
C279 C 0.26132 0.34836 0.29432 0.0
C280 C 0.26694 0.33596 0.28215 0.0
C281 C 0.27993 0.32401 0.28671 0.0
C282 C 0.29699 0.29077 0.32105 0.0
C283 C 0.30765 0.27613 0.32269 0.0
C284 C 0.30276 0.26225 0.3337 0.0
C285 C 0.28727 0.26291 0.34365 0.0
C286 C 0.27646 0.27751 0.34172 0.0
C287 C 0.2813 0.29132 0.33056 0.0
P288 P 0.48457 0.98623 0.51707 0.0
H289 H 0.48089 0.97519 0.48096 0.0
H290 H 0.47968 0.9466 0.46718 0.0
H291 H 0.48246 0.92192 0.51831 0.0
H292 H 0.48348 0.9506 0.53204 0.0
H293 H 0.47031 0.01582 0.49755 0.0
H294 H 0.44164 0.02949 0.49735 0.0
H295 H 0.423 0.99177 0.53564 0.0
H296 H 0.45187 0.97797 0.53568 0.0
H297 H 0.5162 0.97009 0.53045 0.0
H298 H 0.47484 0.0016 0.55105 0.0
O299 O 0.49812 0.99818 0.50454 0.0
H300 H 0.53093 0.97062 0.55892 0.0
H301 H 0.48906 0.00159 0.57969 0.0
C302 C 0.48273 0.965 0.50745 0.0
C303 C 0.48119 0.96362 0.4892 0.0
C304 C 0.48039 0.94729 0.48136 0.0
C305 C 0.48112 0.93203 0.49167 0.0
C306 C 0.48214 0.93347 0.51003 0.0
C307 C 0.48275 0.94985 0.51788 0.0
C308 C 0.46327 0.99603 0.51683 0.0
C309 C 0.46009 0.01044 0.5059 0.0
C310 C 0.44365 0.01819 0.50571 0.0
C311 C 0.4301 0.01171 0.5165 0.0
C312 C 0.43326 0.99713 0.52731 0.0
C313 C 0.44969 0.98923 0.52732 0.0
C314 C 0.49421 0.98542 0.53869 0.0
C315 C 0.5101 0.97682 0.54121 0.0
C316 C 0.51847 0.97708 0.55753 0.0
C317 C 0.51115 0.98607 0.57167 0.0
C318 C 0.49516 0.99466 0.56908 0.0
C319 C 0.48686 0.99447 0.5527 0.0
P320 P 0.19493 0.30389 0.69913 0.0
H321 H 0.20862 0.33562 0.68257 0.0
H322 H 0.23091 0.35687 0.6913 0.0
H323 H 0.241 0.32681 0.73843 0.0
H324 H 0.2187 0.30539 0.72943 0.0
H325 H 0.17906 0.27118 0.68815 0.0
H326 H 0.18943 0.24759 0.66976 0.0
H327 H 0.24026 0.27278 0.66635 0.0
H328 H 0.22977 0.29639 0.68462 0.0
H329 H 0.16731 0.3216 0.71756 0.0
H330 H 0.19456 0.273 0.72257 0.0
O331 O 0.18163 0.31383 0.68491 0.0
H332 H 0.14845 0.31329 0.74221 0.0
H333 H 0.17566 0.26454 0.74732 0.0
C334 C 0.21177 0.31915 0.70555 0.0
C335 C 0.21557 0.33362 0.69482 0.0
C336 C 0.22828 0.34579 0.69985 0.0
C337 C 0.23756 0.34365 0.71567 0.0
C338 C 0.23409 0.32881 0.72615 0.0
C339 C 0.2213 0.31663 0.7211 0.0
C340 C 0.2037 0.28539 0.68801 0.0
C341 C 0.19255 0.27142 0.68376 0.0
C342 C 0.19851 0.25794 0.67327 0.0
C343 C 0.21568 0.25831 0.66661 0.0
C344 C 0.22693 0.27218 0.67118 0.0
C345 C 0.22097 0.28564 0.68175 0.0
C346 C 0.18199 0.29773 0.71797 0.0
C347 C 0.16924 0.30913 0.72401 0.0
C348 C 0.15856 0.30442 0.73818 0.0
C349 C 0.1605 0.2882 0.74664 0.0
C350 C 0.1737 0.27701 0.74089 0.0
C351 C 0.18448 0.28182 0.72675 0.0
P352 P 0.80955 0.19671 0.69662 0.0
H353 H 0.82909 0.22379 0.67807 0.0
H354 H 0.82042 0.24746 0.65837 0.0
H355 H 0.76598 0.23331 0.66633 0.0
H356 H 0.77475 0.21023 0.68661 0.0
H357 H 0.83152 0.17703 0.72049 0.0
H358 H 0.85072 0.18535 0.7448 0.0
H359 H 0.8348 0.2388 0.73858 0.0
H360 H 0.81553 0.23037 0.71431 0.0
H361 H 0.78647 0.17462 0.67608 0.0
H362 H 0.79263 0.18804 0.73055 0.0
O363 O 0.82265 0.18514 0.68387 0.0
H364 H 0.76284 0.15426 0.68383 0.0
H365 H 0.76952 0.16716 0.73855 0.0
C366 C 0.80261 0.21517 0.68369 0.0
C367 C 0.81528 0.22595 0.67573 0.0
C368 C 0.8103 0.23938 0.66435 0.0
C369 C 0.79249 0.24218 0.66054 0.0
C370 C 0.77979 0.23164 0.66903 0.0
C371 C 0.78481 0.2183 0.68056 0.0
C372 C 0.82232 0.2031 0.71544 0.0
C373 C 0.83207 0.19052 0.72446 0.0
C374 C 0.84295 0.19527 0.7384 0.0
C375 C 0.84433 0.21275 0.74354 0.0
C376 C 0.83416 0.22527 0.73476 0.0
C377 C 0.82314 0.22046 0.72089 0.0
C378 C 0.79144 0.18266 0.70273 0.0
C379 C 0.78275 0.17313 0.68973 0.0
C380 C 0.76932 0.1614 0.69421 0.0
C381 C 0.7644 0.15886 0.71186 0.0
C382 C 0.77286 0.16884 0.72483 0.0
C383 C 0.78621 0.18071 0.72028 0.0
P384 P 0.55581 0.55527 0.56199 0.0
H385 H 0.55593 0.53141 0.59174 0.0
H386 H 0.53291 0.52076 0.61154 0.0
H387 H 0.49418 0.54724 0.57998 0.0
H388 H 0.51715 0.55735 0.56 0.0
H389 H 0.59382 0.5552 0.55863 0.0
H390 H 0.6145 0.53323 0.54921 0.0
H391 H 0.5714 0.49797 0.53831 0.0
H392 H 0.55067 0.52016 0.54778 0.0
H393 H 0.53865 0.58867 0.56209 0.0
H394 H 0.55546 0.55202 0.52332 0.0
O395 O 0.56677 0.56811 0.57583 0.0
H396 H 0.52904 0.60846 0.53879 0.0
H397 H 0.54582 0.57179 0.49988 0.0
C398 C 0.5383 0.54522 0.57445 0.0
C399 C 0.54243 0.53464 0.58892 0.0
C400 C 0.52927 0.52868 0.6003 0.0
C401 C 0.51171 0.53332 0.59747 0.0
C402 C 0.50754 0.54332 0.58249 0.0
C403 C 0.52073 0.54923 0.57108 0.0
C404 C 0.57076 0.53915 0.55425 0.0
C405 C 0.5888 0.54273 0.55427 0.0
C406 C 0.60061 0.53015 0.54892 0.0
C407 C 0.59459 0.5138 0.54323 0.0
C408 C 0.57643 0.51045 0.54262 0.0
C409 C 0.56459 0.52306 0.54811 0.0
C410 C 0.5479 0.56898 0.54445 0.0
C411 C 0.54017 0.58485 0.54854 0.0
C412 C 0.53457 0.59609 0.53521 0.0
C413 C 0.53668 0.59169 0.51749 0.0
C414 C 0.54417 0.5756 0.51342 0.0
C415 C 0.54965 0.56427 0.52681 0.0
P416 P 0.55519 0.44569 0.94984 0.0
H417 H 0.58631 0.4611 0.9336 0.0
H418 H 0.60687 0.48382 0.94272 0.0
H419 H 0.57717 0.49071 0.99031 0.0
H420 H 0.5564 0.46801 0.9809 0.0
H421 H 0.57244 0.41617 0.96611 0.0
H422 H 0.56437 0.39644 0.99015 0.0
H423 H 0.51732 0.42581 0.9988 0.0
H424 H 0.52544 0.44544 0.97446 0.0
H425 H 0.54662 0.48053 0.93601 0.0
H426 H 0.5225 0.4295 0.93855 0.0
O427 O 0.56548 0.43336 0.93532 0.0
H428 H 0.52247 0.49091 0.91779 0.0
H429 H 0.49843 0.43971 0.9201 0.0
C430 C 0.57007 0.46262 0.95676 0.0
C431 C 0.58425 0.46741 0.94604 0.0
C432 C 0.59604 0.48038 0.9513 0.0
C433 C 0.59379 0.4889 0.96736 0.0
C434 C 0.57925 0.48439 0.97787 0.0
C435 C 0.56745 0.47136 0.97257 0.0
C436 C 0.54932 0.43197 0.96825 0.0
C437 C 0.56038 0.41837 0.97318 0.0
C438 C 0.55582 0.40718 0.98704 0.0
C439 C 0.54015 0.4095 0.99635 0.0
C440 C 0.52934 0.42353 0.99171 0.0
C441 C 0.53396 0.43475 0.97783 0.0
C442 C 0.53622 0.45428 0.93886 0.0
C443 C 0.53599 0.47161 0.93293 0.0
C444 C 0.52223 0.47751 0.92238 0.0
C445 C 0.50853 0.46613 0.91746 0.0
C446 C 0.50862 0.44889 0.92385 0.0
C447 C 0.52239 0.44301 0.93437 0.0
P448 P 0.73247 0.23538 0.26874 0.0
H449 H 0.75668 0.26031 0.28457 0.0
H450 H 0.75747 0.27448 0.31307 0.0
H451 H 0.71046 0.24627 0.32838 0.0
H452 H 0.71006 0.23179 0.29989 0.0
H453 H 0.76644 0.22393 0.25593 0.0
H454 H 0.78135 0.19608 0.25725 0.0
H455 H 0.73793 0.17377 0.28649 0.0
H456 H 0.72292 0.20179 0.28488 0.0
H457 H 0.70191 0.25759 0.27132 0.0
H458 H 0.71484 0.20895 0.24716 0.0
O459 O 0.74311 0.24837 0.25453 0.0
H460 H 0.67293 0.25647 0.25772 0.0
H461 H 0.68573 0.2075 0.23387 0.0
C462 C 0.73307 0.24535 0.28999 0.0
C463 C 0.74652 0.25721 0.29404 0.0
C464 C 0.74691 0.26535 0.31033 0.0
C465 C 0.73388 0.26171 0.32293 0.0
C466 C 0.72072 0.24935 0.319 0.0
C467 C 0.72039 0.24116 0.30268 0.0
C468 C 0.74347 0.21483 0.27009 0.0
C469 C 0.76009 0.21307 0.2626 0.0
C470 C 0.76867 0.19715 0.26349 0.0
C471 C 0.76083 0.1827 0.27197 0.0
C472 C 0.74423 0.1846 0.27968 0.0
C473 C 0.73567 0.20059 0.27884 0.0
C474 C 0.71037 0.23312 0.26068 0.0
C475 C 0.69835 0.24643 0.26346 0.0
C476 C 0.68176 0.24576 0.25568 0.0
C477 C 0.67695 0.23185 0.24476 0.0
C478 C 0.68903 0.21845 0.24211 0.0
C479 C 0.70563 0.21916 0.24989 0.0
P480 P 0.48459 0.0178 0.98557 0.0
H481 H 0.52121 0.02091 0.97566 0.0
H482 H 0.53614 0.02245 0.94736 0.0
H483 H 0.486 0.02158 0.92087 0.0
H484 H 0.47118 0.02074 0.9493 0.0
H485 H 0.4901 0.02762 0.02201 0.0
H486 H 0.48939 0.05541 0.03709 0.0
H487 H 0.47587 0.08123 0.98832 0.0
H488 H 0.47699 0.05325 0.9732 0.0
H489 H 0.47189 0.98724 0.96706 0.0
H490 H 0.45026 0.02611 0.00086 0.0
O491 O 0.4967 0.00428 0.99768 0.0
H492 H 0.44354 0.97212 0.96628 0.0
H493 H 0.42206 0.01081 0.0006 0.0
C494 C 0.49513 0.02022 0.96455 0.0
C495 C 0.51344 0.02112 0.96375 0.0
C496 C 0.52196 0.0219 0.94755 0.0
C497 C 0.51229 0.02181 0.9318 0.0
C498 C 0.49387 0.02169 0.93271 0.0
C499 C 0.48536 0.02103 0.94897 0.0
C500 C 0.48394 0.03846 0.99644 0.0
C501 C 0.48708 0.03927 0.01453 0.0
C502 C 0.4865 0.05516 0.02317 0.0
C503 C 0.48258 0.07057 0.01392 0.0
C504 C 0.47917 0.06965 0.99578 0.0
C505 C 0.47976 0.05368 0.98713 0.0
C506 C 0.46313 0.00795 0.98375 0.0
C507 C 0.46098 0.99262 0.97416 0.0
C508 C 0.4448 0.9839 0.97388 0.0
C509 C 0.43051 0.99022 0.98342 0.0
C510 C 0.43269 0.00572 0.99289 0.0
C511 C 0.44888 0.01447 0.99308 0.0
Li512 Li 0.26661 0.88618 0.9995 0.0
Li513 Li 0.25218 0.86411 0.01838 0.0
Li514 Li 0.24741 0.86457 0.98538 0.0
Li515 Li 0.23379 0.88625 0.0043 0.0
C516 C 0.28654 0.85699 0.99632 0.0
N517 N 0.32158 0.85028 0.99079 0.0
C518 C 0.29739 0.85257 0.01044 0.0
C519 C 0.29345 0.85766 0.97935 0.0
C520 C 0.31509 0.84932 0.00739 0.0
C521 C 0.31121 0.85432 0.97683 0.0
C522 C 0.25422 0.89319 0.03908 0.0
C523 C 0.24145 0.89241 0.06802 0.0
N524 N 0.25638 0.89965 0.07463 0.0
C525 C 0.26936 0.9008 0.04614 0.0
C526 C 0.24008 0.88913 0.05007 0.0
C527 C 0.27023 0.90389 0.06415 0.0
C528 C 0.28797 0.913 0.9844 0.0
N529 N 0.28731 0.90025 0.99692 0.0
C530 C 0.31637 0.90751 0.00638 0.0
C531 C 0.30106 0.89747 0.00792 0.0
C532 C 0.31753 0.92062 0.99343 0.0
C533 C 0.30306 0.92331 0.98235 0.0
H534 H 0.27673 0.91529 0.9761 0.0
H535 H 0.30009 0.88753 0.01803 0.0
C536 C 0.24517 0.83463 0.03986 0.0
N537 N 0.25514 0.84938 0.03853 0.0
C538 C 0.24736 0.82319 0.05406 0.0
C539 C 0.26993 0.84237 0.06534 0.0
C540 C 0.26742 0.85335 0.05086 0.0
C541 C 0.2599 0.827 0.06702 0.0
H542 H 0.23566 0.83165 0.02976 0.0
H543 H 0.27555 0.86486 0.04929 0.0
C544 C 0.24619 0.89421 0.96476 0.0
N545 N 0.24368 0.9015 0.92925 0.0
C546 C 0.23093 0.90148 0.95785 0.0
C547 C 0.26027 0.89092 0.95364 0.0
C548 C 0.22989 0.905 0.93986 0.0
C549 C 0.25873 0.89461 0.93572 0.0
C550 C 0.21271 0.8572 0.00713 0.0
C551 C 0.20183 0.85387 0.99275 0.0
C552 C 0.20566 0.85689 0.02404 0.0
C553 C 0.18397 0.85074 0.9955 0.0
C554 C 0.18774 0.8537 0.02626 0.0
N555 N 0.17734 0.85074 0.01206 0.0
C556 C 0.25435 0.83583 0.9639 0.0
C557 C 0.23258 0.85451 0.95245 0.0
C558 C 0.25291 0.82511 0.94926 0.0
N559 N 0.2444 0.85031 0.96514 0.0
C560 C 0.23078 0.84423 0.93754 0.0
C561 C 0.24109 0.82934 0.93577 0.0
H562 H 0.26347 0.83262 0.97428 0.0
H563 H 0.22446 0.86579 0.95392 0.0
C564 C 0.21457 0.91328 0.01969 0.0
N565 N 0.2138 0.90074 0.00727 0.0
C566 C 0.20039 0.92423 0.0223 0.0
C567 C 0.18495 0.90952 0.99895 0.0
C568 C 0.19942 0.89877 0.99688 0.0
C569 C 0.1853 0.92249 0.01182 0.0
H570 H 0.22626 0.9149 0.02753 0.0
H571 H 0.19928 0.88906 0.98674 0.0
O572 O 0.2692 0.86034 0.99909 0.0
O573 O 0.25322 0.88987 0.02149 0.0
O574 O 0.24736 0.89049 0.98234 0.0
O575 O 0.23022 0.86038 0.00467 0.0
H576 H 0.29226 0.85181 0.02363 0.0
H577 H 0.28519 0.86059 0.96822 0.0
H578 H 0.32366 0.84603 0.01822 0.0
H579 H 0.31674 0.85487 0.96377 0.0
H580 H 0.23062 0.88925 0.07667 0.0
H581 H 0.28034 0.90426 0.03782 0.0
H582 H 0.22816 0.88357 0.04478 0.0
H583 H 0.2819 0.90969 0.0698 0.0
H584 H 0.32724 0.90492 0.01515 0.0
H585 H 0.30329 0.93348 0.97239 0.0
H586 H 0.23933 0.81148 0.05489 0.0
H587 H 0.27997 0.84563 0.07487 0.0
H588 H 0.21999 0.90433 0.96627 0.0
H589 H 0.27229 0.88565 0.9588 0.0
H590 H 0.21812 0.91053 0.93432 0.0
H591 H 0.26951 0.89204 0.92696 0.0
H592 H 0.20707 0.85389 0.97959 0.0
H593 H 0.21394 0.85895 0.03536 0.0
H594 H 0.17537 0.8483 0.98447 0.0
H595 H 0.1821 0.85351 0.03928 0.0
H596 H 0.26116 0.8138 0.94838 0.0
H597 H 0.22129 0.8478 0.9276 0.0
H598 H 0.20123 0.9339 0.0325 0.0
H599 H 0.17376 0.9079 0.99034 0.0
Li600 Li 0.11018 0.50546 0.26936 0.0
Li601 Li 0.13435 0.48741 0.25605 0.0
Li602 Li 0.13316 0.51854 0.25066 0.0
Li603 Li 0.11138 0.49887 0.23815 0.0
C604 C 0.14514 0.51789 0.28345 0.0
N605 N 0.16407 0.54202 0.30253 0.0
C606 C 0.16278 0.51504 0.28729 0.0
C607 C 0.13708 0.53295 0.28937 0.0
C608 C 0.17214 0.52741 0.29695 0.0
C609 C 0.14689 0.54501 0.29898 0.0
C610 C 0.09489 0.47211 0.25253 0.0
C611 C 0.08319 0.44816 0.23579 0.0
N612 N 0.06669 0.45276 0.24038 0.0
C613 C 0.07783 0.47649 0.25722 0.0
C614 C 0.09762 0.45772 0.24186 0.0
C615 C 0.06374 0.46659 0.2509 0.0
C616 C 0.07998 0.5158 0.28822 0.0
N617 N 0.09619 0.50879 0.28963 0.0
C618 C 0.09327 0.50628 0.32077 0.0
C619 C 0.10296 0.50406 0.30545 0.0
C620 C 0.07638 0.51327 0.31974 0.0
C621 C 0.06972 0.51804 0.30319 0.0
H622 H 0.07497 0.51951 0.27545 0.0
H623 H 0.11591 0.49853 0.30616 0.0
C624 C 0.16745 0.47159 0.25865 0.0
N625 N 0.14993 0.46869 0.26043 0.0
C626 C 0.1792 0.45805 0.26137 0.0
C627 C 0.1547 0.43888 0.2681 0.0
C628 C 0.1434 0.45278 0.26512 0.0
C629 C 0.17287 0.44142 0.26617 0.0
H630 H 0.17227 0.48442 0.25499 0.0
H631 H 0.12941 0.45087 0.26652 0.0
C632 C 0.10221 0.53383 0.23716 0.0
N633 N 0.09184 0.55769 0.21194 0.0
C634 C 0.11128 0.53529 0.22127 0.0
C635 C 0.08784 0.54445 0.2402 0.0
C636 C 0.10584 0.54745 0.2087 0.0
C637 C 0.08282 0.55645 0.22729 0.0
C638 C 0.14877 0.49117 0.22372 0.0
C639 C 0.16376 0.49962 0.21719 0.0
C640 C 0.14608 0.47351 0.22032 0.0
C641 C 0.17601 0.49015 0.20777 0.0
C642 C 0.15864 0.46447 0.21087 0.0
N643 N 0.17324 0.47291 0.20486 0.0
C644 C 0.16545 0.53601 0.2476 0.0
C645 C 0.1414 0.55517 0.24721 0.0
C646 C 0.17719 0.54993 0.24549 0.0
N647 N 0.14791 0.53879 0.24806 0.0
C648 C 0.15268 0.5695 0.24498 0.0
C649 C 0.17086 0.56696 0.24388 0.0
H650 H 0.17032 0.52291 0.24892 0.0
H651 H 0.12747 0.55718 0.24821 0.0
C652 C 0.07946 0.49904 0.21907 0.0
N653 N 0.09673 0.49503 0.2181 0.0
C654 C 0.06854 0.49693 0.20449 0.0
C655 C 0.09343 0.48685 0.1881 0.0
C656 C 0.10383 0.4891 0.203 0.0
C657 C 0.07551 0.49079 0.18869 0.0
H658 H 0.07419 0.50403 0.23115 0.0
H659 H 0.11764 0.4864 0.20238 0.0
O660 O 0.13588 0.50619 0.2736 0.0
O661 O 0.10881 0.48191 0.25831 0.0
O662 O 0.10705 0.5218 0.24957 0.0
O663 O 0.13673 0.50021 0.23319 0.0
H664 H 0.16921 0.50346 0.28275 0.0
H665 H 0.12347 0.53541 0.28636 0.0
H666 H 0.18583 0.52543 0.29996 0.0
H667 H 0.14086 0.55678 0.30357 0.0
H668 H 0.08511 0.43705 0.22744 0.0
H669 H 0.07546 0.48754 0.26548 0.0
H670 H 0.1107 0.45394 0.23831 0.0
H671 H 0.05047 0.46993 0.25433 0.0
H672 H 0.0988 0.50228 0.33326 0.0
H673 H 0.05681 0.52359 0.30188 0.0
H674 H 0.19312 0.46063 0.25998 0.0
H675 H 0.14927 0.42625 0.27167 0.0
H676 H 0.1224 0.52716 0.21863 0.0
H677 H 0.08063 0.54343 0.25239 0.0
H678 H 0.11274 0.54873 0.19636 0.0
H679 H 0.07172 0.56477 0.22947 0.0
H680 H 0.16585 0.51339 0.21918 0.0
H681 H 0.13448 0.46681 0.22507 0.0
H682 H 0.1877 0.49653 0.2027 0.0
H683 H 0.15677 0.45075 0.20832 0.0
H684 H 0.19111 0.54737 0.2452 0.0
H685 H 0.14719 0.58238 0.24381 0.0
H686 H 0.05479 0.50003 0.2056 0.0
H687 H 0.09947 0.48246 0.17612 0.0
Li688 Li 0.73553 0.61618 0.00141 0.0
Li689 Li 0.74884 0.63867 0.0199 0.0
Li690 Li 0.75291 0.63905 0.98799 0.0
Li691 Li 0.76714 0.61719 0.00676 0.0
C692 C 0.7132 0.64166 0.00095 0.0
N693 N 0.67702 0.64014 0.00084 0.0
C694 C 0.7039 0.64416 0.01648 0.0
C695 C 0.70412 0.63847 0.98535 0.0
C696 C 0.68561 0.64334 0.01615 0.0
C697 C 0.68582 0.63771 0.98557 0.0
C698 C 0.75409 0.59958 0.0335 0.0
C699 C 0.77418 0.58751 0.05471 0.0
N700 N 0.76768 0.57132 0.05136 0.0
C701 C 0.74756 0.58283 0.0303 0.0
C702 C 0.76744 0.60197 0.04585 0.0
C703 C 0.75462 0.56871 0.03947 0.0
C704 C 0.71387 0.59237 0.98323 0.0
N705 N 0.71572 0.6011 0.99854 0.0
C706 C 0.6893 0.58813 0.00972 0.0
C707 C 0.70389 0.59912 0.01175 0.0
C708 C 0.68696 0.57904 0.99397 0.0
C709 C 0.69952 0.58126 0.98064 0.0
H710 H 0.72363 0.59391 0.97307 0.0
H711 H 0.70579 0.6061 0.02387 0.0
C712 C 0.74201 0.67038 0.03625 0.0
N713 N 0.7453 0.65332 0.03956 0.0
C714 C 0.73939 0.68182 0.05005 0.0
C715 C 0.7432 0.65785 0.07046 0.0
C716 C 0.74588 0.64688 0.05623 0.0
C717 C 0.73988 0.67561 0.06747 0.0
H718 H 0.74147 0.67509 0.02283 0.0
H719 H 0.74826 0.63321 0.05848 0.0
C720 C 0.75962 0.61296 0.96718 0.0
N721 N 0.77023 0.61322 0.93252 0.0
C722 C 0.777 0.60938 0.96293 0.0
C723 C 0.74761 0.61659 0.95379 0.0
C724 C 0.7821 0.60957 0.94533 0.0
C725 C 0.75324 0.6167 0.93636 0.0
C726 C 0.77782 0.65675 0.01456 0.0
C727 C 0.77642 0.67323 0.00677 0.0
C728 C 0.78574 0.65503 0.03103 0.0
C729 C 0.78289 0.68776 0.01567 0.0
C730 C 0.792 0.66988 0.03953 0.0
N731 N 0.79046 0.6858 0.03174 0.0
C732 C 0.74224 0.66392 0.9625 0.0
C733 C 0.77165 0.65477 0.95988 0.0
C734 C 0.7443 0.67527 0.94818 0.0
N735 N 0.75581 0.65395 0.968 0.0
C736 C 0.77423 0.66578 0.94539 0.0
C737 C 0.76047 0.67628 0.93944 0.0
H738 H 0.72987 0.66323 0.96936 0.0
H739 H 0.78233 0.64697 0.96478 0.0
C740 C 0.78618 0.58591 0.00649 0.0
N741 N 0.78749 0.60327 0.00954 0.0
C742 C 0.80082 0.57534 0.00842 0.0
C743 C 0.81798 0.60079 0.01613 0.0
C744 C 0.80297 0.61085 0.01419 0.0
C745 C 0.817 0.58278 0.01325 0.0
H746 H 0.77376 0.58029 0.00249 0.0
H747 H 0.8037 0.62471 0.0163 0.0
O748 O 0.73112 0.64204 0.00107 0.0
O749 O 0.74759 0.61353 0.02443 0.0
O750 O 0.75442 0.61309 0.98435 0.0
O751 O 0.77127 0.64241 0.0062 0.0
H752 H 0.71072 0.64653 0.0287 0.0
H753 H 0.71113 0.63637 0.97324 0.0
H754 H 0.67823 0.64518 0.02808 0.0
H755 H 0.67862 0.63513 0.97362 0.0
H756 H 0.7846 0.58915 0.0642 0.0
H757 H 0.7373 0.58073 0.02073 0.0
H758 H 0.77273 0.61483 0.04839 0.0
H759 H 0.74976 0.55567 0.03707 0.0
H760 H 0.6799 0.58687 0.02031 0.0
H761 H 0.69846 0.57425 0.96843 0.0
H762 H 0.73711 0.69541 0.04708 0.0
H763 H 0.74341 0.65242 0.08363 0.0
H764 H 0.7865 0.60663 0.97311 0.0
H765 H 0.73415 0.61958 0.95685 0.0
H766 H 0.79553 0.60689 0.94186 0.0
H767 H 0.74412 0.61961 0.92588 0.0
H768 H 0.77027 0.67483 0.99407 0.0
H769 H 0.78681 0.64239 0.03731 0.0
H770 H 0.78183 0.7006 0.00984 0.0
H771 H 0.79804 0.66876 0.05234 0.0
H772 H 0.73337 0.68314 0.94397 0.0
H773 H 0.78698 0.6664 0.93918 0.0
H774 H 0.79957 0.56155 0.00583 0.0
H775 H 0.83018 0.60702 0.01996 0.0
Li776 Li 0.86207 0.02068 0.25891 0.0
Li777 Li 0.88399 0.00211 0.27309 0.0
Li778 Li 0.88408 0.00787 0.24059 0.0
Li779 Li 0.86192 0.98824 0.25362 0.0
C780 C 0.88977 0.04157 0.26431 0.0
N781 N 0.89279 0.07628 0.27304 0.0
C782 C 0.89559 0.0463 0.28101 0.0
C783 C 0.88567 0.05451 0.25198 0.0
C784 C 0.897 0.06392 0.28518 0.0
C785 C 0.88722 0.07198 0.25667 0.0
C786 C 0.85225 0.99571 0.292 0.0
C787 C 0.84497 0.97272 0.31267 0.0
N788 N 0.8402 0.98482 0.32457 0.0
C789 C 0.84698 0.00789 0.30435 0.0
C790 C 0.85099 0.97796 0.29611 0.0
C791 C 0.84105 0.00214 0.32078 0.0
C792 C 0.83575 0.04446 0.24917 0.0
N793 N 0.84748 0.04047 0.26199 0.0
C794 C 0.83899 0.06526 0.27849 0.0
C795 C 0.84912 0.05041 0.27657 0.0
C796 C 0.82696 0.0699 0.26532 0.0
C797 C 0.82533 0.05919 0.25056 0.0
H798 H 0.83454 0.03625 0.2378 0.0
H799 H 0.85853 0.04698 0.2866 0.0
C800 C 0.91422 0.99073 0.29056 0.0
N801 N 0.89868 0.99874 0.29319 0.0
C802 C 0.92555 0.98761 0.3046 0.0
C803 C 0.90514 0.00182 0.32375 0.0
C804 C 0.89408 0.00448 0.30934 0.0
C805 C 0.92103 0.99313 0.32147 0.0
H806 H 0.91784 0.98675 0.27751 0.0
H807 H 0.88197 0.01133 0.31103 0.0
C808 C 0.85749 0.00929 0.21878 0.0
N809 N 0.85692 0.01208 0.1826 0.0
C810 C 0.85418 0.9946 0.2086 0.0
C811 C 0.86031 0.02544 0.21058 0.0
C812 C 0.85398 0.99627 0.19032 0.0
C813 C 0.86004 0.02657 0.19227 0.0
C814 C 0.89315 0.96875 0.25569 0.0
C815 C 0.90194 0.9603 0.24222 0.0
C816 C 0.89011 0.96 0.2716 0.0
C817 C 0.90722 0.94311 0.24477 0.0
C818 C 0.89561 0.94284 0.27366 0.0
N819 N 0.90395 0.9348 0.2603 0.0
C820 C 0.90861 0.02605 0.2191 0.0
C821 C 0.89939 0.9987 0.20811 0.0
C822 C 0.91959 0.02874 0.20466 0.0
N823 N 0.89878 0.01123 0.22053 0.0
C824 C 0.91031 0.00078 0.19351 0.0
C825 C 0.92062 0.01597 0.19168 0.0
H826 H 0.90809 0.03571 0.22925 0.0
H827 H 0.8914 0.98705 0.20954 0.0
C828 C 0.8308 0.96842 0.25651 0.0
N829 N 0.84734 0.96825 0.24994 0.0
C830 C 0.81941 0.95431 0.25388 0.0
C831 C 0.84224 0.94013 0.23765 0.0
C832 C 0.85316 0.95454 0.24055 0.0
C833 C 0.82509 0.93992 0.24431 0.0
H834 H 0.82644 0.97958 0.26375 0.0
H835 H 0.86614 0.95492 0.23497 0.0
O836 O 0.88815 0.02437 0.26005 0.0
O837 O 0.85797 0.00115 0.27579 0.0
O838 O 0.85808 0.00785 0.23668 0.0
O839 O 0.88781 0.98556 0.25336 0.0
H840 H 0.89896 0.03648 0.29066 0.0
H841 H 0.88116 0.0511 0.239 0.0
H842 H 0.90142 0.06775 0.29809 0.0
H843 H 0.88395 0.08212 0.24731 0.0
H844 H 0.84401 0.95903 0.31602 0.0
H845 H 0.8476 0.02165 0.30136 0.0
H846 H 0.8544 0.96829 0.28658 0.0
H847 H 0.8371 0.01145 0.3305 0.0
H848 H 0.84085 0.07324 0.28999 0.0
H849 H 0.81603 0.0621 0.24021 0.0
H850 H 0.93785 0.98118 0.30223 0.0
H851 H 0.90123 0.00635 0.33655 0.0
H852 H 0.85193 0.98201 0.21472 0.0
H853 H 0.86281 0.03695 0.21825 0.0
H854 H 0.85154 0.98498 0.18227 0.0
H855 H 0.86233 0.03896 0.18574 0.0
H856 H 0.90462 0.9669 0.2299 0.0
H857 H 0.88386 0.96648 0.28234 0.0
H858 H 0.91394 0.93639 0.23441 0.0
H859 H 0.89332 0.93593 0.28591 0.0
H860 H 0.92752 0.04052 0.20388 0.0
H861 H 0.91063 0.99068 0.18373 0.0
H862 H 0.80632 0.95464 0.25932 0.0
H863 H 0.84703 0.92947 0.22991 0.0
Li864 Li 0.25066 0.13712 0.52249 0.0
Li865 Li 0.23649 0.11524 0.50385 0.0
Li866 Li 0.26932 0.11643 0.50826 0.0
Li867 Li 0.2548 0.13834 0.48972 0.0
C868 C 0.24656 0.10934 0.54302 0.0
N869 N 0.2385 0.10614 0.57825 0.0
C870 C 0.22944 0.10525 0.54825 0.0
C871 C 0.25963 0.11158 0.5557 0.0
C872 C 0.22562 0.10374 0.56613 0.0
C873 C 0.25528 0.10998 0.57345 0.0
C874 C 0.21688 0.14559 0.49717 0.0
C875 C 0.19661 0.14816 0.47297 0.0
N876 N 0.18459 0.15508 0.48394 0.0
C877 C 0.2044 0.15292 0.50816 0.0
C878 C 0.21302 0.14335 0.4794 0.0
C879 C 0.18812 0.15756 0.50124 0.0
C880 C 0.26039 0.16175 0.54839 0.0
N881 N 0.24734 0.1509 0.54289 0.0
C882 C 0.22863 0.16035 0.56594 0.0
C883 C 0.23169 0.14999 0.55136 0.0
C884 C 0.24182 0.17181 0.57185 0.0
C885 C 0.25793 0.17232 0.56296 0.0
H886 H 0.27261 0.16245 0.54129 0.0
H887 H 0.2215 0.1413 0.54669 0.0
C888 C 0.22018 0.08396 0.49422 0.0
N889 N 0.21687 0.09989 0.50093 0.0
C890 C 0.20652 0.07205 0.49146 0.0
C891 C 0.1863 0.09295 0.50301 0.0
C892 C 0.20037 0.10447 0.50555 0.0
C893 C 0.18927 0.07652 0.49577 0.0
H894 H 0.23347 0.08054 0.49096 0.0
H895 H 0.1981 0.117 0.51131 0.0
C896 C 0.28992 0.14486 0.51048 0.0
N897 N 0.32575 0.14948 0.51372 0.0
C898 C 0.29966 0.1519 0.49654 0.0
C899 C 0.29838 0.14038 0.52615 0.0
C900 C 0.31776 0.15409 0.49841 0.0
C901 C 0.31651 0.14274 0.5275 0.0
C902 C 0.25545 0.10752 0.46927 0.0
C903 C 0.271 0.10278 0.46105 0.0
C904 C 0.23963 0.10636 0.46004 0.0
C905 C 0.27055 0.09743 0.44359 0.0
C906 C 0.23971 0.10092 0.44261 0.0
N907 N 0.25504 0.09663 0.4348 0.0
C908 C 0.29004 0.08946 0.52262 0.0
C909 C 0.30366 0.10556 0.49959 0.0
C910 C 0.30476 0.07895 0.52439 0.0
N911 N 0.28978 0.10249 0.5104 0.0
C912 C 0.31869 0.09551 0.50102 0.0
C913 C 0.31937 0.08198 0.51353 0.0
H914 H 0.27877 0.08718 0.53095 0.0
H915 H 0.30304 0.11582 0.4898 0.0
C916 C 0.24799 0.16823 0.46889 0.0
N917 N 0.25741 0.15336 0.46967 0.0
C918 C 0.24978 0.17966 0.45461 0.0
C919 C 0.27134 0.16054 0.4424 0.0
C920 C 0.26903 0.14943 0.45686 0.0
C921 C 0.26164 0.17593 0.44111 0.0
H922 H 0.23913 0.1713 0.47943 0.0
H923 H 0.27687 0.13789 0.45808 0.0
O924 O 0.2505 0.11115 0.52559 0.0
O925 O 0.23285 0.14087 0.50377 0.0
O926 O 0.27221 0.14243 0.50881 0.0
O927 O 0.25567 0.11269 0.48642 0.0
H928 H 0.21919 0.10343 0.53861 0.0
H929 H 0.27297 0.11457 0.55188 0.0
H930 H 0.2124 0.1007 0.57036 0.0
H931 H 0.26524 0.11179 0.58341 0.0
H932 H 0.19347 0.14647 0.45924 0.0
H933 H 0.2072 0.15497 0.52189 0.0
H934 H 0.22268 0.13822 0.47059 0.0
H935 H 0.17831 0.16315 0.50963 0.0
H936 H 0.21608 0.15943 0.57251 0.0
H937 H 0.26835 0.18114 0.56692 0.0
H938 H 0.20948 0.0594 0.48618 0.0
H939 H 0.17322 0.09697 0.50648 0.0
H940 H 0.29332 0.1556 0.48439 0.0
H941 H 0.29104 0.13501 0.5371 0.0
H942 H 0.32547 0.15945 0.48769 0.0
H943 H 0.32323 0.13921 0.53951 0.0
H944 H 0.28333 0.10335 0.46801 0.0
H945 H 0.22738 0.10938 0.46629 0.0
H946 H 0.28252 0.09388 0.43704 0.0
H947 H 0.22756 0.10002 0.43532 0.0
H948 H 0.3048 0.06869 0.53425 0.0
H949 H 0.32957 0.09811 0.49222 0.0
H950 H 0.24192 0.19129 0.45416 0.0
H951 H 0.28096 0.15732 0.43257 0.0
Li952 Li 0.38379 0.50132 0.77343 0.0
Li953 Li 0.36197 0.51978 0.75886 0.0
Li954 Li 0.36171 0.48724 0.75412 0.0
Li955 Li 0.38398 0.50654 0.74082 0.0
C956 C 0.35158 0.49516 0.79209 0.0
N957 N 0.33865 0.48437 0.82435 0.0
C958 C 0.34536 0.50734 0.80398 0.0
C959 C 0.35088 0.47746 0.79649 0.0
C960 C 0.33898 0.50164 0.82025 0.0
C961 C 0.34439 0.47227 0.81289 0.0
C962 C 0.38988 0.54049 0.76433 0.0
C963 C 0.38812 0.57095 0.75664 0.0
N964 N 0.39328 0.57515 0.77317 0.0
C965 C 0.3953 0.5451 0.7812 0.0
C966 C 0.38639 0.55351 0.75189 0.0
C967 C 0.3969 0.56269 0.78543 0.0
C968 C 0.41472 0.49178 0.79052 0.0
N969 N 0.39849 0.49815 0.79352 0.0
C970 C 0.40433 0.49949 0.82434 0.0
C971 C 0.39322 0.50223 0.81 0.0
C972 C 0.42105 0.49254 0.82167 0.0
C973 C 0.42623 0.48878 0.80445 0.0
H974 H 0.41872 0.48897 0.77725 0.0
H975 H 0.38047 0.50772 0.81205 0.0
C976 C 0.33566 0.54362 0.74898 0.0
N977 N 0.34749 0.53969 0.76173 0.0
C978 C 0.3252 0.55833 0.7504 0.0
C979 C 0.33916 0.56459 0.77816 0.0
C980 C 0.34924 0.5497 0.77625 0.0
C981 C 0.32699 0.56911 0.76509 0.0
H982 H 0.33441 0.53539 0.73762 0.0
H983 H 0.35857 0.5462 0.78632 0.0
C984 C 0.39319 0.46782 0.7566 0.0
N985 N 0.40472 0.4342 0.76177 0.0
C986 C 0.40175 0.45917 0.74311 0.0
C987 C 0.39076 0.45945 0.7728 0.0
C988 C 0.4074 0.44215 0.74595 0.0
C989 C 0.39662 0.44244 0.77514 0.0
C990 C 0.35731 0.50807 0.71898 0.0
C991 C 0.35353 0.49348 0.7088 0.0
C992 C 0.36052 0.52415 0.71078 0.0
C993 C 0.35326 0.49518 0.69053 0.0
C994 C 0.36017 0.52531 0.69247 0.0
N995 N 0.35659 0.51092 0.68281 0.0
C996 C 0.33068 0.46723 0.75741 0.0
C997 C 0.353 0.45355 0.74122 0.0
C998 C 0.31938 0.45304 0.75487 0.0
N999 N 0.34716 0.46719 0.75069 0.0
C1000 C 0.34214 0.43909 0.73836 0.0
C1001 C 0.32504 0.43872 0.74518 0.0
H1002 H 0.32627 0.47839 0.76463 0.0
H1003 H 0.36597 0.454 0.7356 0.0
C1004 C 0.40929 0.52378 0.71949 0.0
N1005 N 0.39879 0.50941 0.72079 0.0
C1006 C 0.42043 0.52607 0.70511 0.0
C1007 C 0.40983 0.49867 0.69368 0.0
C1008 C 0.39887 0.49694 0.70828 0.0
C1009 C 0.42085 0.51338 0.69198 0.0
H1010 H 0.40918 0.53339 0.72972 0.0
H1011 H 0.39042 0.48561 0.70965 0.0
O1012 O 0.35779 0.50055 0.77604 0.0
O1013 O 0.38808 0.52333 0.76001 0.0
O1014 O 0.38758 0.4845 0.754 0.0
O1015 O 0.35796 0.5066 0.73687 0.0
H1016 H 0.34557 0.52106 0.80074 0.0
H1017 H 0.35508 0.46778 0.7873 0.0
H1018 H 0.33427 0.51095 0.82962 0.0
H1019 H 0.34383 0.45862 0.81647 0.0
H1020 H 0.38533 0.58115 0.74718 0.0
H1021 H 0.39814 0.53521 0.79096 0.0
H1022 H 0.38224 0.55018 0.73877 0.0
H1023 H 0.401 0.56645 0.79846 0.0
H1024 H 0.3998 0.50256 0.83739 0.0
H1025 H 0.43912 0.48375 0.80174 0.0
H1026 H 0.31606 0.56141 0.73997 0.0
H1027 H 0.3408 0.57242 0.78979 0.0
H1028 H 0.40395 0.4655 0.73055 0.0
H1029 H 0.38467 0.46608 0.78355 0.0
H1030 H 0.41393 0.43527 0.73558 0.0
H1031 H 0.3948 0.43582 0.78763 0.0
H1032 H 0.35096 0.48095 0.71493 0.0
H1033 H 0.36339 0.53558 0.71846 0.0
H1034 H 0.35046 0.48397 0.68248 0.0
H1035 H 0.36275 0.53765 0.68595 0.0
H1036 H 0.30621 0.45347 0.76009 0.0
H1037 H 0.3471 0.42832 0.73088 0.0
H1038 H 0.42891 0.53747 0.70448 0.0
H1039 H 0.40962 0.48865 0.6838 0.0
Li1040 Li 0.76519 0.38678 0.49804 0.0
Li1041 Li 0.75076 0.36499 0.51656 0.0
Li1042 Li 0.74518 0.36519 0.48496 0.0
Li1043 Li 0.73316 0.38791 0.50365 0.0
C1044 C 0.78085 0.35621 0.48634 0.0
N1045 N 0.80728 0.34656 0.46388 0.0
C1046 C 0.79312 0.34392 0.49174 0.0
C1047 C 0.78199 0.36357 0.46952 0.0
C1048 C 0.80641 0.33922 0.48019 0.0
C1049 C 0.79545 0.35852 0.45836 0.0
C1050 C 0.76502 0.39432 0.53337 0.0
C1051 C 0.77528 0.4122 0.55717 0.0
N1052 N 0.7898 0.4022 0.55863 0.0
C1053 C 0.78004 0.38422 0.53511 0.0
C1054 C 0.7626 0.40842 0.54447 0.0
C1055 C 0.79241 0.38842 0.54796 0.0
C1056 C 0.78382 0.41793 0.49039 0.0
N1057 N 0.78577 0.40085 0.4947 0.0
C1058 C 0.81694 0.40426 0.49498 0.0
C1059 C 0.80192 0.39394 0.49715 0.0
C1060 C 0.81537 0.42193 0.49044 0.0
C1061 C 0.79852 0.42878 0.4882 0.0
H1062 H 0.77081 0.42312 0.48872 0.0
H1063 H 0.80318 0.38046 0.50104 0.0
C1064 C 0.75836 0.33334 0.53329 0.0
N1065 N 0.75363 0.35 0.53643 0.0
C1066 C 0.76122 0.32177 0.54724 0.0
C1067 C 0.75422 0.34471 0.56741 0.0
C1068 C 0.75134 0.35579 0.55307 0.0
C1069 C 0.7593 0.32747 0.56458 0.0
H1070 H 0.76007 0.32911 0.51992 0.0
H1071 H 0.74742 0.36906 0.55522 0.0
C1072 C 0.74159 0.39906 0.46611 0.0
N1073 N 0.7326 0.41625 0.4354 0.0
C1074 C 0.72398 0.4019 0.46204 0.0
C1075 C 0.75463 0.40512 0.45463 0.0
C1076 C 0.7197 0.41056 0.44643 0.0
C1077 C 0.74981 0.41373 0.43915 0.0
C1078 C 0.71503 0.35844 0.51629 0.0
C1079 C 0.70331 0.34467 0.51335 0.0
C1080 C 0.71376 0.36809 0.53167 0.0
C1081 C 0.69043 0.34079 0.52586 0.0
C1082 C 0.70071 0.36381 0.54386 0.0
N1083 N 0.68941 0.35036 0.54073 0.0
C1084 C 0.74831 0.33444 0.46553 0.0
C1085 C 0.73209 0.35626 0.4508 0.0
C1086 C 0.74682 0.32351 0.45106 0.0
N1087 N 0.74127 0.35061 0.46503 0.0
C1088 C 0.73019 0.34572 0.43609 0.0
C1089 C 0.73779 0.32917 0.43602 0.0
H1090 H 0.75527 0.3301 0.47711 0.0
H1091 H 0.72634 0.36898 0.45075 0.0
C1092 C 0.71798 0.41982 0.51209 0.0
N1093 N 0.71413 0.40338 0.50683 0.0
C1094 C 0.70457 0.43167 0.51491 0.0
C1095 C 0.68348 0.40943 0.5068 0.0
C1096 C 0.6973 0.39805 0.50403 0.0
C1097 C 0.68703 0.42648 0.51236 0.0
H1098 H 0.7315 0.42369 0.51419 0.0
H1099 H 0.6946 0.38497 0.49961 0.0
O1100 O 0.76782 0.36095 0.49755 0.0
O1101 O 0.75274 0.39057 0.52082 0.0
O1102 O 0.74607 0.39085 0.48147 0.0
O1103 O 0.72776 0.36229 0.50417 0.0
H1104 H 0.79241 0.33812 0.50473 0.0
H1105 H 0.77254 0.37299 0.46511 0.0
H1106 H 0.81602 0.32974 0.4842 0.0
H1107 H 0.79648 0.3641 0.4453 0.0
H1108 H 0.77358 0.42308 0.56586 0.0
H1109 H 0.78213 0.37322 0.52667 0.0
H1110 H 0.75104 0.41637 0.54328 0.0
H1111 H 0.80409 0.38071 0.54945 0.0
H1112 H 0.82967 0.39855 0.49718 0.0
H1113 H 0.79674 0.44233 0.48466 0.0
H1114 H 0.76528 0.30863 0.5445 0.0
H1115 H 0.75242 0.34955 0.58058 0.0
H1116 H 0.71371 0.39723 0.4707 0.0
H1117 H 0.76834 0.40326 0.45764 0.0
H1118 H 0.70612 0.41274 0.44307 0.0
H1119 H 0.75977 0.41845 0.43013 0.0
H1120 H 0.70416 0.33706 0.50152 0.0
H1121 H 0.72271 0.3788 0.53418 0.0
H1122 H 0.68126 0.33017 0.52376 0.0
H1123 H 0.69957 0.37118 0.5558 0.0
H1124 H 0.75265 0.31074 0.45167 0.0
H1125 H 0.72319 0.35064 0.42474 0.0
H1126 H 0.70788 0.44464 0.51936 0.0
H1127 H 0.67016 0.40498 0.50448 0.0
Li1128 Li 0.63499 0.98572 0.75425 0.0
Li1129 Li 0.61364 0.00502 0.76784 0.0
Li1130 Li 0.61336 0.99977 0.73615 0.0
Li1131 Li 0.63656 0.01743 0.74978 0.0
C1132 C 0.6073 0.96595 0.76045 0.0
N1133 N 0.60525 0.93153 0.77118 0.0
C1134 C 0.60325 0.96173 0.77787 0.0
C1135 C 0.61021 0.95267 0.74845 0.0
C1136 C 0.60228 0.94425 0.78304 0.0
C1137 C 0.60916 0.93535 0.75414 0.0
C1138 C 0.65357 0.01154 0.77919 0.0
C1139 C 0.66777 0.03594 0.79319 0.0
N1140 N 0.68336 0.02764 0.79221 0.0
C1141 C 0.66972 0.00323 0.77837 0.0
C1142 C 0.65255 0.028 0.78672 0.0
C1143 C 0.68464 0.01159 0.78502 0.0
C1144 C 0.65884 0.95955 0.74445 0.0
N1145 N 0.64877 0.96541 0.75777 0.0
C1146 C 0.65942 0.94313 0.777 0.0
C1147 C 0.6489 0.95757 0.77385 0.0
C1148 C 0.67013 0.93684 0.76354 0.0
C1149 C 0.66965 0.94522 0.74704 0.0
H1150 H 0.65877 0.96623 0.7319 0.0
H1151 H 0.64097 0.96268 0.78429 0.0
C1152 C 0.5817 0.00615 0.78682 0.0
N1153 N 0.59936 0.00836 0.78804 0.0
C1154 C 0.57107 0.00863 0.80148 0.0
C1155 C 0.59706 0.01522 0.81845 0.0
C1156 C 0.60715 0.01269 0.80345 0.0
C1157 C 0.57873 0.01324 0.8176 0.0
H1158 H 0.57587 0.00247 0.77444 0.0
H1159 H 0.62123 0.01403 0.80416 0.0
C1160 C 0.64008 0.99832 0.71448 0.0
N1161 N 0.64044 0.99786 0.67823 0.0
C1162 C 0.64446 0.0134 0.70495 0.0
C1163 C 0.636 0.98298 0.70558 0.0
C1164 C 0.64456 0.0129 0.68662 0.0
C1165 C 0.6362 0.98303 0.68725 0.0
C1166 C 0.59771 0.03197 0.75395 0.0
C1167 C 0.58096 0.02918 0.74701 0.0
C1168 C 0.60022 0.04423 0.76716 0.0
C1169 C 0.56694 0.03866 0.7535 0.0
C1170 C 0.58585 0.05341 0.77333 0.0
N1171 N 0.56965 0.05046 0.76643 0.0
C1172 C 0.58881 0.98329 0.71338 0.0
C1173 C 0.59931 0.01096 0.70379 0.0
C1174 C 0.5787 0.98159 0.69816 0.0
N1175 N 0.59896 0.99773 0.71579 0.0
C1176 C 0.58957 0.00973 0.68832 0.0
C1177 C 0.57915 0.99485 0.68533 0.0
H1178 H 0.58863 0.97306 0.72321 0.0
H1179 H 0.60729 0.02242 0.7062 0.0
C1180 C 0.66951 0.03346 0.74392 0.0
N1181 N 0.65221 0.0367 0.74627 0.0
C1182 C 0.68143 0.04718 0.74137 0.0
C1183 C 0.65744 0.06731 0.74318 0.0
C1184 C 0.646 0.0532 0.74587 0.0
C1185 C 0.67542 0.06438 0.74094 0.0
H1186 H 0.67403 0.02018 0.74398 0.0
H1187 H 0.63215 0.05539 0.74754 0.0
O1188 O 0.60857 0.98299 0.75519 0.0
O1189 O 0.63887 0.00371 0.77245 0.0
O1190 O 0.63954 0.99864 0.73241 0.0
O1191 O 0.61155 0.0226 0.74799 0.0
H1192 H 0.60102 0.97184 0.78735 0.0
H1193 H 0.61349 0.95572 0.73494 0.0
H1194 H 0.59922 0.94078 0.7965 0.0
H1195 H 0.61151 0.92495 0.74503 0.0
H1196 H 0.6672 0.04873 0.79893 0.0
H1197 H 0.67078 0.99054 0.77251 0.0
H1198 H 0.64018 0.03468 0.78733 0.0
H1199 H 0.69723 0.00535 0.7844 0.0
H1200 H 0.65921 0.93701 0.78987 0.0
H1201 H 0.67791 0.94108 0.73638 0.0
H1202 H 0.55701 0.00708 0.80015 0.0
H1203 H 0.60359 0.01837 0.83065 0.0
H1204 H 0.64757 0.02541 0.71161 0.0
H1205 H 0.63246 0.97123 0.71275 0.0
H1206 H 0.64785 0.02449 0.67907 0.0
H1207 H 0.63294 0.97129 0.68019 0.0
H1208 H 0.57877 0.01968 0.73683 0.0
H1209 H 0.61307 0.04645 0.77276 0.0
H1210 H 0.55388 0.03659 0.7483 0.0
H1211 H 0.58757 0.06285 0.78364 0.0
H1212 H 0.57088 0.96989 0.69631 0.0
H1213 H 0.59007 0.02035 0.67887 0.0
H1214 H 0.69515 0.04435 0.73941 0.0
H1215 H 0.6523 0.08038 0.74297 0.0
Li1216 Li 0.01681 0.25562 0.87255 0.0
Li1217 Li 0.99636 0.26843 0.89362 0.0
Li1218 Li 0.00299 0.23766 0.89563 0.0
Li1219 Li 0.98541 0.25002 0.87145 0.0
C1220 C 0.03168 0.26974 0.90336 0.0
N1221 N 0.05608 0.29477 0.91297 0.0
C1222 C 0.03185 0.28609 0.89508 0.0
C1223 C 0.04391 0.26616 0.91653 0.0
C1224 C 0.04429 0.29856 0.90013 0.0
C1225 C 0.05616 0.27897 0.92119 0.0
C1226 C 0.98888 0.28006 0.8545 0.0
C1227 C 0.96216 0.29196 0.84273 0.0
N1228 N 0.97007 0.29417 0.82687 0.0
C1229 C 0.99681 0.28267 0.83814 0.0
C1230 C 0.97148 0.28496 0.85687 0.0
C1231 C 0.98706 0.28975 0.82432 0.0
C1232 C 0.03486 0.25369 0.84086 0.0
N1233 N 0.03729 0.25777 0.85801 0.0
C1234 C 0.06758 0.26427 0.85267 0.0
C1235 C 0.05339 0.26255 0.86415 0.0
C1236 C 0.06529 0.26079 0.83474 0.0
C1237 C 0.04869 0.25517 0.82894 0.0
H1238 H 0.02207 0.24938 0.83641 0.0
H1239 H 0.05536 0.26507 0.87789 0.0
C1240 C 0.99535 0.28776 0.92506 0.0
N1241 N 0.99228 0.28859 0.90748 0.0
C1242 C 0.99307 0.30242 0.93544 0.0
C1243 C 0.98488 0.31862 0.90938 0.0
C1244 C 0.98719 0.30362 0.89954 0.0
C1245 C 0.98786 0.31815 0.92757 0.0
H1246 H 0.99978 0.27574 0.93098 0.0
H1247 H 0.98517 0.30405 0.88552 0.0
C1248 C 0.01668 0.22023 0.86708 0.0
N1249 N 0.041 0.19465 0.8612 0.0
C1250 C 0.0135 0.20761 0.85437 0.0
C1251 C 0.03225 0.21988 0.87678 0.0
C1252 C 0.02596 0.19477 0.8516 0.0
C1253 C 0.04437 0.20683 0.87362 0.0
C1254 C 0.96989 0.25416 0.91054 0.0
C1255 C 0.97346 0.24811 0.92753 0.0
C1256 C 0.95657 0.26623 0.90788 0.0
C1257 C 0.96385 0.25446 0.94161 0.0
C1258 C 0.94727 0.27229 0.9223 0.0
N1259 N 0.95108 0.26634 0.93873 0.0
C1260 C 0.01519 0.22043 0.92602 0.0
C1261 C 0.00055 0.2021 0.90577 0.0
C1262 C 0.01826 0.20631 0.93724 0.0
N1263 N 0.00649 0.21808 0.91065 0.0
C1264 C 0.00345 0.18757 0.91653 0.0
C1265 C 0.01244 0.18955 0.93253 0.0
H1266 H 0.0196 0.23332 0.92963 0.0
H1267 H 0.9937 0.20062 0.89342 0.0
C1268 C 0.97035 0.24358 0.83832 0.0
N1269 N 0.96663 0.24524 0.85565 0.0
C1270 C 0.9569 0.24063 0.82622 0.0
C1271 C 0.93609 0.24076 0.8501 0.0
C1272 C 0.94994 0.2438 0.86172 0.0
C1273 C 0.93946 0.23917 0.83205 0.0
H1274 H 0.98377 0.24476 0.83389 0.0
H1275 H 0.94738 0.24502 0.8756 0.0
O1276 O 0.01942 0.25739 0.89892 0.0
O1277 O 0.99814 0.27287 0.86812 0.0
O1278 O 0.00461 0.23291 0.86984 0.0
O1279 O 0.97941 0.24834 0.89663 0.0
H1280 H 0.02255 0.28914 0.88483 0.0
H1281 H 0.04398 0.25359 0.92308 0.0
H1282 H 0.04456 0.31124 0.89384 0.0
H1283 H 0.06572 0.27636 0.93135 0.0
H1284 H 0.94862 0.29562 0.84436 0.0
H1285 H 0.01036 0.27939 0.83613 0.0
H1286 H 0.96517 0.28317 0.86945 0.0
H1287 H 0.99302 0.29175 0.81158 0.0
H1288 H 0.08012 0.26865 0.85777 0.0
H1289 H 0.0464 0.25192 0.81533 0.0
H1290 H 0.99576 0.30158 0.94938 0.0
H1291 H 0.98078 0.33046 0.90282 0.0
H1292 H 0.00153 0.20775 0.84673 0.0
H1293 H 0.03498 0.22957 0.88663 0.0
H1294 H 0.02367 0.18491 0.84181 0.0
H1295 H 0.05646 0.20639 0.88102 0.0
H1296 H 0.98363 0.23873 0.92986 0.0
H1297 H 0.9535 0.27096 0.89485 0.0
H1298 H 0.96656 0.24997 0.95483 0.0
H1299 H 0.93703 0.28173 0.92044 0.0
H1300 H 0.02495 0.20854 0.94957 0.0
H1301 H 0.99891 0.1749 0.91225 0.0
H1302 H 0.96012 0.23973 0.81243 0.0
H1303 H 0.92291 0.23944 0.85523 0.0
Li1304 Li 0.51718 0.75474 0.37136 0.0
Li1305 Li 0.49817 0.76888 0.39273 0.0
Li1306 Li 0.50403 0.73763 0.39452 0.0
Li1307 Li 0.48543 0.74972 0.37125 0.0
C1308 C 0.53768 0.76306 0.39741 0.0
N1309 N 0.57185 0.77536 0.39635 0.0
C1310 C 0.54132 0.78071 0.4 0.0
C1311 C 0.55144 0.75164 0.39435 0.0
C1312 C 0.55868 0.78667 0.39942 0.0
C1313 C 0.56861 0.75812 0.39382 0.0
C1314 C 0.49022 0.77814 0.35254 0.0
C1315 C 0.46525 0.79162 0.33883 0.0
N1316 N 0.4726 0.78915 0.32281 0.0
C1317 C 0.49755 0.77578 0.33596 0.0
C1318 C 0.47397 0.78618 0.35402 0.0
C1319 C 0.48843 0.78144 0.32108 0.0
C1320 C 0.5448 0.74449 0.3488 0.0
N1321 N 0.53719 0.75822 0.35673 0.0
C1322 C 0.55785 0.77795 0.3435 0.0
C1323 C 0.54337 0.77473 0.35428 0.0
C1324 C 0.56601 0.76402 0.33512 0.0
C1325 C 0.55934 0.7471 0.33795 0.0
H1326 H 0.53946 0.73153 0.35076 0.0
H1327 H 0.53697 0.78541 0.36067 0.0
C1328 C 0.49685 0.78874 0.42384 0.0
N1329 N 0.49506 0.78949 0.40608 0.0
C1330 C 0.49469 0.80368 0.43385 0.0
C1331 C 0.48955 0.82 0.40707 0.0
C1332 C 0.49159 0.80471 0.3976 0.0
C1333 C 0.49105 0.81958 0.42544 0.0
H1334 H 0.50004 0.77655 0.43021 0.0
H1335 H 0.49055 0.80502 0.38346 0.0
C1336 C 0.50466 0.71481 0.36946 0.0
N1337 N 0.50471 0.67893 0.37215 0.0
C1338 C 0.48918 0.70526 0.36683 0.0
C1339 C 0.52017 0.70611 0.3734 0.0
C1340 C 0.48949 0.68712 0.36823 0.0
C1341 C 0.51992 0.68796 0.37474 0.0
C1342 C 0.47148 0.75536 0.41031 0.0
C1343 C 0.47419 0.74887 0.42729 0.0
C1344 C 0.45928 0.76852 0.40748 0.0
C1345 C 0.46469 0.75573 0.4412 0.0
C1346 C 0.45008 0.77506 0.42174 0.0
N1347 N 0.45295 0.76858 0.43816 0.0
C1348 C 0.52269 0.71659 0.41864 0.0
C1349 C 0.49395 0.70643 0.4123 0.0
C1350 C 0.52554 0.70234 0.42974 0.0
N1351 N 0.50716 0.7183 0.41011 0.0
C1352 C 0.49622 0.69196 0.4233 0.0
C1353 C 0.51221 0.68976 0.43221 0.0
H1354 H 0.53292 0.72627 0.41678 0.0
H1355 H 0.48167 0.70821 0.40545 0.0
C1356 C 0.46933 0.74108 0.33931 0.0
N1357 N 0.46589 0.74553 0.35615 0.0
C1358 C 0.45565 0.73835 0.32744 0.0
C1359 C 0.43506 0.74445 0.35057 0.0
C1360 C 0.44918 0.74713 0.36199 0.0
C1361 C 0.43822 0.74008 0.33301 0.0
H1362 H 0.48276 0.73971 0.33509 0.0
H1363 H 0.4468 0.75054 0.37548 0.0
O1364 O 0.52074 0.75702 0.39756 0.0
O1365 O 0.49873 0.77229 0.36724 0.0
O1366 O 0.50455 0.73259 0.36852 0.0
O1367 O 0.48083 0.74899 0.39656 0.0
H1368 H 0.53086 0.78976 0.40229 0.0
H1369 H 0.54885 0.73798 0.39205 0.0
H1370 H 0.56168 0.80032 0.40134 0.0
H1371 H 0.57936 0.74946 0.39132 0.0
H1372 H 0.45261 0.79774 0.33976 0.0
H1373 H 0.51003 0.76945 0.33455 0.0
H1374 H 0.46805 0.78797 0.36674 0.0
H1375 H 0.4939 0.77962 0.30815 0.0
H1376 H 0.56265 0.79118 0.3418 0.0
H1377 H 0.56507 0.73603 0.33153 0.0
H1378 H 0.49621 0.80288 0.44797 0.0
H1379 H 0.48671 0.832 0.40011 0.0
H1380 H 0.47702 0.71176 0.36392 0.0
H1381 H 0.53221 0.7133 0.37575 0.0
H1382 H 0.4776 0.67957 0.36629 0.0
H1383 H 0.5318 0.68107 0.37793 0.0
H1384 H 0.48364 0.73876 0.42975 0.0
H1385 H 0.45715 0.77382 0.39445 0.0
H1386 H 0.4667 0.75087 0.45442 0.0
H1387 H 0.4407 0.78533 0.41975 0.0
H1388 H 0.53813 0.70109 0.43616 0.0
H1389 H 0.4855 0.68273 0.425 0.0
H1390 H 0.45868 0.73471 0.31411 0.0
H1391 H 0.42184 0.746 0.35538 0.0
Li1392 Li 0.00221 0.76297 0.6167 0.0
Li1393 Li 0.9824 0.75144 0.63949 0.0
Li1394 Li 0.01395 0.74645 0.63981 0.0
Li1395 Li 0.99585 0.73231 0.61662 0.0
C1396 C 0.01114 0.77629 0.65507 0.0
N1397 N 0.03123 0.78969 0.6821 0.0
C1398 C 0.00474 0.77606 0.67225 0.0
C1399 C 0.02765 0.78362 0.65162 0.0
C1400 C 0.01511 0.78283 0.68574 0.0
C1401 C 0.03764 0.79024 0.66547 0.0
C1402 C 0.9699 0.76369 0.60411 0.0
C1403 C 0.95481 0.77332 0.57797 0.0
N1404 N 0.9533 0.78944 0.58494 0.0
C1405 C 0.96805 0.78034 0.61108 0.0
C1406 C 0.96312 0.76012 0.58747 0.0
C1407 C 0.95968 0.79318 0.60116 0.0
C1408 C 0.00511 0.77981 0.58339 0.0
N1409 N 0.00623 0.78236 0.60099 0.0
C1410 C 0.01281 0.81256 0.59635 0.0
C1411 C 0.00981 0.79837 0.60761 0.0
C1412 C 0.01204 0.81026 0.57809 0.0
C1413 C 0.00806 0.7936 0.57166 0.0
H1414 H 0.002 0.76699 0.57846 0.0
H1415 H 0.01019 0.80016 0.62165 0.0
C1416 C 0.96321 0.74914 0.67112 0.0
N1417 N 0.9621 0.75408 0.65396 0.0
C1418 C 0.9491 0.75161 0.68246 0.0
C1419 C 0.93265 0.76345 0.6581 0.0
C1420 C 0.94703 0.76068 0.64723 0.0
C1421 C 0.93367 0.75916 0.67603 0.0
H1422 H 0.97519 0.74354 0.67608 0.0
H1423 H 0.94611 0.76387 0.63346 0.0
C1424 C 0.02923 0.74862 0.60055 0.0
N1425 N 0.04917 0.75896 0.57191 0.0
C1426 C 0.02784 0.73969 0.58472 0.0
C1427 C 0.04102 0.76263 0.60187 0.0
C1428 C 0.03797 0.74515 0.57038 0.0
C1429 C 0.05089 0.76772 0.58723 0.0
C1430 C 0.98304 0.71625 0.6478 0.0
C1431 C 0.9867 0.70524 0.66202 0.0
C1432 C 0.96727 0.71424 0.63863 0.0
C1433 C 0.97453 0.69232 0.66681 0.0
C1434 C 0.95544 0.70116 0.64383 0.0
N1435 N 0.95928 0.69056 0.65768 0.0
C1436 C 0.03041 0.73843 0.67234 0.0
C1437 C 0.04983 0.74572 0.64908 0.0
C1438 C 0.04449 0.73657 0.68397 0.0
N1439 N 0.03333 0.74303 0.6553 0.0
C1440 C 0.06424 0.74419 0.66026 0.0
C1441 C 0.06166 0.73963 0.67797 0.0
H1442 H 0.01713 0.73642 0.67694 0.0
H1443 H 0.05182 0.74918 0.63547 0.0
C1444 C 0.98665 0.71267 0.5865 0.0
N1445 N 0.99267 0.71159 0.60326 0.0
C1446 C 0.98476 0.6977 0.5764 0.0
C1447 C 0.9952 0.68071 0.60105 0.0
C1448 C 0.99704 0.69603 0.6106 0.0
C1449 C 0.98906 0.6814 0.58364 0.0
H1450 H 0.98381 0.72523 0.58079 0.0
H1451 H 0.00205 0.69551 0.62388 0.0
O1452 O 0.00137 0.76926 0.64175 0.0
O1453 O 0.9785 0.75109 0.61349 0.0
O1454 O 0.01927 0.7435 0.6147 0.0
O1455 O 0.99478 0.72905 0.64309 0.0
H1456 H 0.99193 0.7707 0.67517 0.0
H1457 H 0.0328 0.78404 0.63844 0.0
H1458 H 0.01034 0.78262 0.6991 0.0
H1459 H 0.05051 0.79578 0.66298 0.0
H1460 H 0.94955 0.77074 0.56505 0.0
H1461 H 0.9732 0.78336 0.62394 0.0
H1462 H 0.96417 0.74732 0.58192 0.0
H1463 H 0.95829 0.80613 0.60635 0.0
H1464 H 0.01552 0.82523 0.6019 0.0
H1465 H 0.00748 0.79117 0.5577 0.0
H1466 H 0.95047 0.74813 0.6962 0.0
H1467 H 0.92085 0.76893 0.65252 0.0
H1468 H 0.01907 0.72864 0.58349 0.0
H1469 H 0.04233 0.76972 0.61395 0.0
H1470 H 0.03694 0.73839 0.55804 0.0
H1471 H 0.0599 0.77867 0.58804 0.0
H1472 H 0.99883 0.70669 0.66928 0.0
H1473 H 0.96417 0.72268 0.62764 0.0
H1474 H 0.97719 0.68369 0.67778 0.0
H1475 H 0.94319 0.69944 0.63685 0.0
H1476 H 0.04197 0.73311 0.69756 0.0
H1477 H 0.07729 0.74641 0.65506 0.0
H1478 H 0.98036 0.69896 0.56293 0.0
H1479 H 0.99849 0.66845 0.60729 0.0
Li1480 Li 0.50098 0.26329 0.1181 0.0
Li1481 Li 0.48097 0.25056 0.14005 0.0
Li1482 Li 0.51356 0.24574 0.14124 0.0
Li1483 Li 0.49546 0.23085 0.11916 0.0
C1484 C 0.50176 0.28542 0.14457 0.0
N1485 N 0.50432 0.3213 0.1453 0.0
C1486 C 0.48706 0.29531 0.14846 0.0
C1487 C 0.51781 0.29377 0.14126 0.0
C1488 C 0.48861 0.31344 0.14873 0.0
C1489 C 0.51882 0.31193 0.14162 0.0
C1490 C 0.46208 0.24869 0.10766 0.0
C1491 C 0.43592 0.23167 0.10205 0.0
N1492 N 0.42836 0.24588 0.09458 0.0
C1493 C 0.45414 0.26305 0.0997 0.0
C1494 C 0.45297 0.23281 0.10865 0.0
C1495 C 0.43705 0.2614 0.09327 0.0
C1496 C 0.51904 0.28304 0.09224 0.0
N1497 N 0.50473 0.28286 0.10282 0.0
C1498 C 0.4962 0.31078 0.09184 0.0
C1499 C 0.4933 0.29629 0.10274 0.0
C1500 C 0.51093 0.31138 0.08081 0.0
C1501 C 0.52243 0.29724 0.08111 0.0
H1502 H 0.52785 0.27216 0.09243 0.0
H1503 H 0.48195 0.29579 0.1112 0.0
C1504 C 0.46075 0.24789 0.17073 0.0
N1505 N 0.46063 0.25428 0.15402 0.0
C1506 C 0.44665 0.25082 0.18192 0.0
C1507 C 0.43258 0.26697 0.15858 0.0
C1508 C 0.44695 0.26372 0.14783 0.0
C1509 C 0.43235 0.26059 0.17593 0.0
H1510 H 0.4719 0.24063 0.17541 0.0
H1511 H 0.44738 0.26916 0.13472 0.0
C1512 C 0.53519 0.23991 0.11478 0.0
N1513 N 0.57025 0.23143 0.11414 0.0
C1514 C 0.54021 0.22298 0.1108 0.0
C1515 C 0.54801 0.25258 0.11822 0.0
C1516 C 0.558 0.21894 0.11059 0.0
C1517 C 0.56567 0.24801 0.11791 0.0
C1518 C 0.48723 0.21344 0.15159 0.0
C1519 C 0.49807 0.20145 0.16006 0.0
C1520 C 0.46931 0.20983 0.15009 0.0
C1521 C 0.49086 0.18585 0.16649 0.0
C1522 C 0.46258 0.1941 0.15671 0.0
N1523 N 0.47341 0.18251 0.16468 0.0
C1524 C 0.53839 0.25641 0.16678 0.0
C1525 C 0.54227 0.2278 0.15635 0.0
C1526 C 0.5533 0.25503 0.17734 0.0
N1527 N 0.53331 0.24297 0.15643 0.0
C1528 C 0.55729 0.22587 0.16665 0.0
C1529 C 0.56308 0.23965 0.17725 0.0
H1530 H 0.53092 0.26825 0.16679 0.0
H1531 H 0.53794 0.2173 0.14802 0.0
C1532 C 0.48678 0.21213 0.08862 0.0
N1533 N 0.4929 0.21039 0.10531 0.0
C1534 C 0.48507 0.19759 0.07787 0.0
C1535 C 0.49624 0.17977 0.1016 0.0
C1536 C 0.49773 0.19465 0.11187 0.0
C1537 C 0.48987 0.18111 0.08432 0.0
H1538 H 0.48333 0.22486 0.08362 0.0
H1539 H 0.50303 0.19364 0.12497 0.0
O1540 O 0.50043 0.26766 0.14401 0.0
O1541 O 0.47884 0.2501 0.11397 0.0
O1542 O 0.51781 0.24404 0.11533 0.0
O1543 O 0.49412 0.22879 0.14523 0.0
H1544 H 0.47456 0.28907 0.15115 0.0
H1545 H 0.52933 0.28633 0.13831 0.0
H1546 H 0.47731 0.32125 0.15162 0.0
H1547 H 0.53113 0.31856 0.13895 0.0
H1548 H 0.42873 0.21946 0.10277 0.0
H1549 H 0.46104 0.27537 0.09859 0.0
H1550 H 0.45906 0.22141 0.11423 0.0
H1551 H 0.43071 0.27245 0.08721 0.0
H1552 H 0.48688 0.32129 0.09188 0.0
H1553 H 0.53404 0.29722 0.07297 0.0
H1554 H 0.44698 0.24553 0.19515 0.0
H1555 H 0.42201 0.27486 0.15352 0.0
H1556 H 0.53048 0.21304 0.10801 0.0
H1557 H 0.54437 0.26574 0.12125 0.0
H1558 H 0.56206 0.20587 0.10762 0.0
H1559 H 0.57572 0.25765 0.12069 0.0
H1560 H 0.51193 0.20411 0.16156 0.0
H1561 H 0.46061 0.21915 0.14412 0.0
H1562 H 0.49913 0.1764 0.17295 0.0
H1563 H 0.44873 0.19113 0.1556 0.0
H1564 H 0.5571 0.26588 0.18552 0.0
H1565 H 0.5645 0.21385 0.16601 0.0
H1566 H 0.48037 0.19929 0.06455 0.0
H1567 H 0.49999 0.16734 0.10717 0.0
C1568 C 0.21895 0.77275 0.85054 0.0
C1569 C 0.23433 0.76785 0.84193 0.0
C1570 C 0.21966 0.78212 0.86625 0.0
C1571 C 0.23613 0.78678 0.87351 0.0
C1572 C 0.2517 0.78157 0.86509 0.0
C1573 C 0.25061 0.77213 0.84945 0.0
C1574 C 0.20277 0.78739 0.87488 0.0
C1575 C 0.26952 0.78625 0.87242 0.0
C1576 C 0.23878 0.82616 0.90315 0.0
C1577 C 0.2396 0.81839 0.91987 0.0
C1578 C 0.2376 0.81602 0.88798 0.0
C1579 C 0.23713 0.79764 0.88955 0.0
C1580 C 0.23782 0.78971 0.90639 0.0
C1581 C 0.23911 0.80017 0.92135 0.0
C1582 C 0.23704 0.82498 0.87025 0.0
C1583 C 0.23721 0.77016 0.90861 0.0
H1584 H 0.20633 0.76968 0.84474 0.0
H1585 H 0.26255 0.76815 0.84305 0.0
H1586 H 0.20256 0.78295 0.88878 0.0
H1587 H 0.20185 0.80179 0.87485 0.0
H1588 H 0.19105 0.78196 0.8681 0.0
H1589 H 0.28035 0.78079 0.86456 0.0
H1590 H 0.27115 0.80061 0.87274 0.0
H1591 H 0.27069 0.78138 0.88613 0.0
H1592 H 0.23938 0.84022 0.90191 0.0
H1593 H 0.23952 0.7941 0.93425 0.0
H1594 H 0.22496 0.82106 0.86311 0.0
H1595 H 0.24835 0.82092 0.86222 0.0
H1596 H 0.23736 0.83939 0.87129 0.0
H1597 H 0.22504 0.76483 0.90263 0.0
H1598 H 0.23768 0.76603 0.92262 0.0
H1599 H 0.24841 0.76431 0.90165 0.0
C1600 C 0.02934 0.50351 0.41208 0.0
C1601 C 0.01902 0.51768 0.41675 0.0
C1602 C 0.03794 0.50315 0.39583 0.0
C1603 C 0.03634 0.5174 0.38403 0.0
C1604 C 0.02577 0.53168 0.38858 0.0
C1605 C 0.01714 0.5316 0.40487 0.0
C1606 C 0.04888 0.48758 0.39139 0.0
C1607 C 0.0239 0.54718 0.37642 0.0
C1608 C 0.07325 0.5226 0.35094 0.0
C1609 C 0.06575 0.51531 0.33586 0.0
C1610 C 0.06363 0.52386 0.36654 0.0
C1611 C 0.04615 0.51748 0.36715 0.0
C1612 C 0.0384 0.51037 0.35187 0.0
C1613 C 0.04827 0.50947 0.33637 0.0
C1614 C 0.07229 0.53173 0.38248 0.0
C1615 C 0.01988 0.50324 0.35205 0.0
H1616 H 0.03063 0.49263 0.42114 0.0
H1617 H 0.00927 0.54262 0.40851 0.0
H1618 H 0.0444 0.48194 0.37878 0.0
H1619 H 0.06277 0.49166 0.38966 0.0
H1620 H 0.04822 0.47727 0.40172 0.0
H1621 H 0.01485 0.55703 0.3817 0.0
H1622 H 0.03691 0.55345 0.37424 0.0
H1623 H 0.01896 0.54293 0.36344 0.0
H1624 H 0.08669 0.52733 0.35051 0.0
H1625 H 0.04248 0.50368 0.32478 0.0
H1626 H 0.07341 0.52172 0.39301 0.0
H1627 H 0.06414 0.54235 0.38768 0.0
H1628 H 0.08558 0.53704 0.37955 0.0
H1629 H 0.01895 0.49202 0.36131 0.0
H1630 H 0.01551 0.49888 0.33887 0.0
H1631 H 0.01072 0.51325 0.35675 0.0
C1632 C 0.76743 0.74228 0.85674 0.0
C1633 C 0.78362 0.75107 0.8575 0.0
C1634 C 0.76288 0.72955 0.86937 0.0
C1635 C 0.77471 0.72573 0.88319 0.0
C1636 C 0.79106 0.73459 0.884 0.0
C1637 C 0.79535 0.74708 0.8711 0.0
C1638 C 0.74541 0.72021 0.86797 0.0
C1639 C 0.80395 0.73106 0.89864 0.0
C1640 C 0.75783 0.70596 0.92594 0.0
C1641 C 0.7632 0.68866 0.92457 0.0
C1642 C 0.76117 0.71809 0.9124 0.0
C1643 C 0.76994 0.71273 0.89706 0.0
C1644 C 0.77496 0.69515 0.89541 0.0
C1645 C 0.77163 0.68334 0.90924 0.0
C1646 C 0.7558 0.73676 0.91476 0.0
C1647 C 0.78413 0.68888 0.87916 0.0
H1648 H 0.7584 0.74526 0.84617 0.0
H1649 H 0.80777 0.75403 0.87187 0.0
H1650 H 0.7474 0.70595 0.86745 0.0
H1651 H 0.73741 0.72277 0.87978 0.0
H1652 H 0.73792 0.72433 0.85615 0.0
H1653 H 0.81614 0.73901 0.89732 0.0
H1654 H 0.79785 0.7339 0.91148 0.0
H1655 H 0.8075 0.7171 0.89883 0.0
H1656 H 0.75147 0.71016 0.93785 0.0
H1657 H 0.77561 0.66992 0.90808 0.0
H1658 H 0.74747 0.74102 0.9036 0.0
H1659 H 0.76761 0.74533 0.91483 0.0
H1660 H 0.74848 0.73867 0.92716 0.0
H1661 H 0.7764 0.69226 0.86729 0.0
H1662 H 0.78618 0.6746 0.87947 0.0
H1663 H 0.79708 0.69551 0.87787 0.0
C1664 C 0.97924 0.97141 0.40692 0.0
C1665 C 0.99704 0.97326 0.40259 0.0
C1666 C 0.96607 0.97531 0.39464 0.0
C1667 C 0.97081 0.98132 0.37765 0.0
C1668 C 0.98872 0.98376 0.37338 0.0
C1669 C 0.00159 0.97961 0.38584 0.0
C1670 C 0.94711 0.97251 0.39967 0.0
C1671 C 0.99431 0.99024 0.35543 0.0
C1672 C 0.94045 0.97352 0.33895 0.0
C1673 C 0.93299 0.98994 0.3365 0.0
C1674 C 0.95241 0.97044 0.3526 0.0
C1675 C 0.95716 0.98417 0.36398 0.0
C1676 C 0.94944 0.0007 0.36176 0.0
C1677 C 0.93736 0.00337 0.34809 0.0
C1678 C 0.96018 0.95256 0.35466 0.0
C1679 C 0.95432 0.0157 0.37351 0.0
H1680 H 0.97558 0.96676 0.4199 0.0
H1681 H 0.01528 0.98082 0.38221 0.0
H1682 H 0.93962 0.98458 0.39728 0.0
H1683 H 0.94117 0.96223 0.39135 0.0
H1684 H 0.94557 0.96857 0.41366 0.0
H1685 H 0.00868 0.99261 0.3546 0.0
H1686 H 0.99054 0.98054 0.34539 0.0
H1687 H 0.98752 0.00251 0.35207 0.0
H1688 H 0.93692 0.96306 0.33015 0.0
H1689 H 0.93171 0.01612 0.34613 0.0
H1690 H 0.95801 0.94754 0.3682 0.0
H1691 H 0.97454 0.95331 0.35253 0.0
H1692 H 0.95446 0.94309 0.34526 0.0
H1693 H 0.95235 0.01195 0.38747 0.0
H1694 H 0.94652 0.02749 0.3706 0.0
H1695 H 0.96841 0.01903 0.37184 0.0
C1696 C 0.23029 0.24983 0.63863 0.0
C1697 C 0.22137 0.24488 0.65401 0.0
C1698 C 0.23446 0.23755 0.62586 0.0
C1699 C 0.22965 0.21987 0.62854 0.0
C1700 C 0.22115 0.21469 0.64429 0.0
C1701 C 0.21706 0.22727 0.65682 0.0
C1702 C 0.24346 0.24361 0.6092 0.0
C1703 C 0.21595 0.19593 0.6477 0.0
C1704 C 0.22269 0.19255 0.58784 0.0
C1705 C 0.23855 0.18362 0.58677 0.0
C1706 C 0.21958 0.20423 0.60147 0.0
C1707 C 0.23262 0.20701 0.61442 0.0
C1708 C 0.24857 0.19787 0.61356 0.0
C1709 C 0.25137 0.18632 0.59971 0.0
C1710 C 0.20243 0.21381 0.60185 0.0
C1711 C 0.26273 0.20041 0.62719 0.0
H1712 H 0.23345 0.26344 0.63627 0.0
H1713 H 0.21035 0.22334 0.66878 0.0
H1714 H 0.25543 0.23592 0.60695 0.0
H1715 H 0.23463 0.24148 0.59782 0.0
H1716 H 0.24719 0.25762 0.60956 0.0
H1717 H 0.21047 0.19385 0.66107 0.0
H1718 H 0.20597 0.19178 0.63795 0.0
H1719 H 0.22744 0.1874 0.64612 0.0
H1720 H 0.21283 0.19072 0.57775 0.0
H1721 H 0.26358 0.17931 0.59905 0.0
H1722 H 0.20496 0.22804 0.60081 0.0
H1723 H 0.19566 0.21132 0.61451 0.0
H1724 H 0.19352 0.20991 0.591 0.0
H1725 H 0.26731 0.21416 0.62704 0.0
H1726 H 0.27417 0.19192 0.62495 0.0
H1727 H 0.25742 0.19759 0.64048 0.0
C1728 C 0.50171 0.53047 0.62868 0.0
C1729 C 0.49803 0.52879 0.61072 0.0
C1730 C 0.48878 0.5272 0.64139 0.0
C1731 C 0.4717 0.52218 0.63606 0.0
C1732 C 0.46793 0.52019 0.61799 0.0
C1733 C 0.48114 0.52352 0.60552 0.0
C1734 C 0.49333 0.52951 0.66054 0.0
C1735 C 0.44988 0.51479 0.61181 0.0
C1736 C 0.44279 0.50113 0.67113 0.0
C1737 C 0.43305 0.51534 0.67687 0.0
C1738 C 0.45509 0.50305 0.65753 0.0
C1739 C 0.45771 0.51956 0.64947 0.0
C1740 C 0.44758 0.53384 0.65488 0.0
C1741 C 0.4354 0.53156 0.66851 0.0
C1742 C 0.46567 0.48752 0.65217 0.0
C1743 C 0.44991 0.55164 0.64654 0.0
H1744 H 0.51462 0.53483 0.63281 0.0
H1745 H 0.47825 0.52203 0.59169 0.0
H1746 H 0.48532 0.54002 0.66614 0.0
H1747 H 0.49022 0.5174 0.66803 0.0
H1748 H 0.50739 0.53284 0.66254 0.0
H1749 H 0.44922 0.51329 0.59734 0.0
H1750 H 0.44591 0.50228 0.61813 0.0
H1751 H 0.44019 0.52464 0.61576 0.0
H1752 H 0.44118 0.4886 0.67764 0.0
H1753 H 0.42772 0.54252 0.67269 0.0
H1754 H 0.4797 0.48987 0.65529 0.0
H1755 H 0.46469 0.48562 0.63779 0.0
H1756 H 0.46129 0.47535 0.65894 0.0
H1757 H 0.46339 0.55661 0.64906 0.0
H1758 H 0.44044 0.56118 0.65167 0.0
H1759 H 0.44826 0.55082 0.63211 0.0
C1760 C 0.79713 0.25778 0.63179 0.0
C1761 C 0.78728 0.25548 0.64721 0.0
C1762 C 0.79226 0.26992 0.61886 0.0
C1763 C 0.77702 0.27992 0.62124 0.0
C1764 C 0.767 0.27772 0.63675 0.0
C1765 C 0.77229 0.26559 0.64958 0.0
C1766 C 0.80333 0.27192 0.60253 0.0
C1767 C 0.75064 0.2881 0.63972 0.0
C1768 C 0.77334 0.32126 0.5937 0.0
C1769 C 0.76299 0.31557 0.5796 0.0
C1770 C 0.77773 0.30989 0.60753 0.0
C1771 C 0.77151 0.29246 0.60732 0.0
C1772 C 0.76068 0.28677 0.59334 0.0
C1773 C 0.75663 0.29838 0.5796 0.0
C1774 C 0.78944 0.3164 0.6221 0.0
C1775 C 0.75362 0.26834 0.59273 0.0
H1776 H 0.80853 0.24983 0.62964 0.0
H1777 H 0.7647 0.26407 0.66152 0.0
H1778 H 0.79546 0.26845 0.5908 0.0
H1779 H 0.80766 0.28567 0.60084 0.0
H1780 H 0.81511 0.26358 0.60295 0.0
H1781 H 0.74432 0.28489 0.65249 0.0
H1782 H 0.75383 0.30222 0.63934 0.0
H1783 H 0.74106 0.28557 0.62904 0.0
H1784 H 0.77843 0.3345 0.59366 0.0
H1785 H 0.74845 0.294 0.56883 0.0
H1786 H 0.80192 0.30914 0.6221 0.0
H1787 H 0.78314 0.314 0.63502 0.0
H1788 H 0.79252 0.33052 0.62075 0.0
H1789 H 0.76463 0.25913 0.59174 0.0
H1790 H 0.74465 0.26624 0.58144 0.0
H1791 H 0.74647 0.26512 0.60504 0.0
C1792 C 0.52915 0.97235 0.59565 0.0
C1793 C 0.52045 0.98694 0.58886 0.0
C1794 C 0.53851 0.97321 0.61151 0.0
C1795 C 0.53908 0.98899 0.62091 0.0
C1796 C 0.5301 0.00368 0.6143 0.0
C1797 C 0.52098 0.0025 0.59833 0.0
C1798 C 0.54796 0.95728 0.61811 0.0
C1799 C 0.53034 0.02073 0.62397 0.0
C1800 C 0.55133 0.9876 0.6693 0.0
C1801 C 0.56889 0.99318 0.66885 0.0
C1802 C 0.54145 0.98618 0.6538 0.0
C1803 C 0.54939 0.99027 0.63746 0.0
C1804 C 0.56717 0.99575 0.63692 0.0
C1805 C 0.57668 0.99722 0.65263 0.0
C1806 C 0.52248 0.98048 0.65493 0.0
C1807 C 0.57616 1.00005 0.61974 0.0
H1808 H 0.5286 0.9602 0.58858 0.0
H1809 H 0.51455 0.01393 0.59309 0.0
H1810 H 0.56219 0.96018 0.61925 0.0
H1811 H 0.5432 0.9536 0.63141 0.0
H1812 H 0.54611 0.94596 0.60933 0.0
H1813 H 0.52211 0.03071 0.61744 0.0
H1814 H 0.52557 0.0187 0.63759 0.0
H1815 H 0.54397 0.02584 0.62483 0.0
H1816 H 0.54523 0.98463 0.68184 0.0
H1817 H 0.59032 0.00132 0.65222 0.0
H1818 H 0.52028 0.96862 0.64701 0.0
H1819 H 0.51399 0.99078 0.64935 0.0
H1820 H 0.5183 0.97769 0.66864 0.0
H1821 H 0.5755 0.98863 0.61097 0.0
H1822 H 0.59012 0.00388 0.62157 0.0
H1823 H 0.56931 0.01086 0.61297 0.0
C1824 C 0.86828 0.2322 0.75488 0.0
C1825 C 0.85695 0.2179 0.75748 0.0
C1826 C 0.88125 0.23638 0.7673 0.0
C1827 C 0.88284 0.22608 0.78273 0.0
C1828 C 0.87107 0.21195 0.78568 0.0
C1829 C 0.85832 0.20799 0.77298 0.0
C1830 C 0.89362 0.25147 0.76362 0.0
C1831 C 0.8722 0.20078 0.80206 0.0
C1832 C 0.92714 0.22437 0.80544 0.0
C1833 C 0.92491 0.2359 0.8194 0.0
C1834 C 0.91359 0.22116 0.79339 0.0
C1835 C 0.89733 0.22955 0.79538 0.0
C1836 C 0.89493 0.24115 0.80944 0.0
C1837 C 0.90877 0.24423 0.82124 0.0
C1838 C 0.91667 0.20871 0.77854 0.0
C1839 C 0.87777 0.25032 0.81202 0.0
H1840 H 0.86741 0.23978 0.74284 0.0
H1841 H 0.84945 0.19704 0.77513 0.0
H1842 H 0.89366 0.26062 0.77477 0.0
H1843 H 0.90717 0.24662 0.76221 0.0
H1844 H 0.89008 0.25873 0.75146 0.0
H1845 H 0.86148 0.1909 0.80282 0.0
H1846 H 0.88493 0.19397 0.80238 0.0
H1847 H 0.87166 0.20904 0.81389 0.0
H1848 H 0.93945 0.21766 0.80405 0.0
H1849 H 0.90699 0.25335 0.83182 0.0
H1850 H 0.91441 0.21538 0.76576 0.0
H1851 H 0.90723 0.19764 0.77943 0.0
H1852 H 0.93018 0.20349 0.77865 0.0
H1853 H 0.87474 0.25841 0.80028 0.0
H1854 H 0.87795 0.2588 0.82373 0.0
H1855 H 0.86697 0.24061 0.81351 0.0
C1856 C 0.49395 0.90246 0.48816 0.0
C1857 C 0.48141 0.91475 0.48317 0.0
C1858 C 0.49524 0.88656 0.47938 0.0
C1859 C 0.4836 0.8828 0.46539 0.0
C1860 C 0.47059 0.89495 0.46064 0.0
C1861 C 0.46972 0.91083 0.46952 0.0
C1862 C 0.50941 0.87402 0.48472 0.0
C1863 C 0.45779 0.89133 0.44596 0.0
C1864 C 0.49785 0.85107 0.43049 0.0
C1865 C 0.48913 0.83572 0.43574 0.0
C1866 C 0.49626 0.86643 0.4401 0.0
C1867 C 0.48552 0.8665 0.45523 0.0
C1868 C 0.47661 0.85105 0.46057 0.0
C1869 C 0.47862 0.8358 0.45082 0.0
C1870 C 0.50615 0.88257 0.4341 0.0
C1871 C 0.46488 0.85067 0.4765 0.0
H1872 H 0.50313 0.90553 0.49858 0.0
H1873 H 0.45989 0.92023 0.46576 0.0
H1874 H 0.50359 0.86106 0.48786 0.0
H1875 H 0.51861 0.8723 0.47364 0.0
H1876 H 0.51697 0.87859 0.4963 0.0
H1877 H 0.44784 0.90168 0.44454 0.0
H1878 H 0.46495 0.89027 0.43337 0.0
H1879 H 0.45093 0.8787 0.44833 0.0
H1880 H 0.50615 0.85098 0.41896 0.0
H1881 H 0.47173 0.82399 0.45482 0.0
H1882 H 0.51493 0.8872 0.44475 0.0
H1883 H 0.49682 0.89316 0.43115 0.0
H1884 H 0.51416 0.88027 0.42222 0.0
H1885 H 0.47248 0.85441 0.48833 0.0
H1886 H 0.45882 0.83764 0.47886 0.0
H1887 H 0.45429 0.86032 0.47484 0.0
C1888 C 0.14044 0.26626 0.761 0.0
C1889 C 0.14829 0.28286 0.76094 0.0
C1890 C 0.12763 0.26161 0.77348 0.0
C1891 C 0.12263 0.27385 0.78623 0.0
C1892 C 0.13099 0.29039 0.78663 0.0
C1893 C 0.14369 0.29471 0.77396 0.0
C1894 C 0.11897 0.24387 0.77258 0.0
C1895 C 0.12616 0.30374 0.80013 0.0
C1896 C 0.07685 0.271 0.80556 0.0
C1897 C 0.07997 0.26345 0.82211 0.0
C1898 C 0.09058 0.27417 0.79369 0.0
C1899 C 0.10791 0.26979 0.79848 0.0
C1900 C 0.11117 0.262 0.81507 0.0
C1901 C 0.09716 0.25889 0.82667 0.0
C1902 C 0.08656 0.28249 0.7761 0.0
C1903 C 0.12948 0.25715 0.82063 0.0
H1904 H 0.14382 0.25711 0.75087 0.0
H1905 H 0.14991 0.30747 0.77412 0.0
H1906 H 0.11951 0.23725 0.78557 0.0
H1907 H 0.10493 0.24531 0.7691 0.0
H1908 H 0.12521 0.23543 0.7627 0.0
H1909 H 0.13465 0.31557 0.79935 0.0
H1910 H 0.11235 0.30766 0.79817 0.0
H1911 H 0.12717 0.29806 0.81354 0.0
H1912 H 0.06368 0.27483 0.80202 0.0
H1913 H 0.09967 0.25283 0.83932 0.0
H1914 H 0.09144 0.27423 0.76536 0.0
H1915 H 0.09341 0.29527 0.77498 0.0
H1916 H 0.0723 0.28452 0.77414 0.0
H1917 H 0.1352 0.24812 0.811 0.0
H1918 H 0.12977 0.25087 0.83383 0.0
H1919 H 0.138 0.26895 0.82085 0.0
C1920 C 0.54331 0.60795 0.48955 0.0
C1921 C 0.53176 0.60427 0.50343 0.0
C1922 C 0.53962 0.62104 0.47712 0.0
C1923 C 0.52396 0.63061 0.47858 0.0
C1924 C 0.51193 0.62647 0.49217 0.0
C1925 C 0.516 0.61339 0.50445 0.0
C1926 C 0.55281 0.62512 0.46287 0.0
C1927 C 0.49502 0.63625 0.49406 0.0
C1928 C 0.52381 0.6767 0.46013 0.0
C1929 C 0.51497 0.67456 0.44412 0.0
C1930 C 0.52682 0.66251 0.47141 0.0
C1931 C 0.52075 0.64572 0.46666 0.0
C1932 C 0.51169 0.64345 0.4506 0.0
C1933 C 0.50894 0.65789 0.4395 0.0
C1934 C 0.53651 0.66548 0.48844 0.0
C1935 C 0.50501 0.62575 0.4451 0.0
H1936 H 0.55558 0.60107 0.48879 0.0
H1937 H 0.50692 0.61042 0.51503 0.0
H1938 H 0.54636 0.62506 0.44982 0.0
H1939 H 0.55841 0.63836 0.46481 0.0
H1940 H 0.56372 0.61568 0.46278 0.0
H1941 H 0.4865 0.63061 0.50453 0.0
H1942 H 0.49794 0.65003 0.49725 0.0
H1943 H 0.48765 0.63619 0.48149 0.0
H1944 H 0.52826 0.68957 0.46394 0.0
H1945 H 0.50228 0.65608 0.42707 0.0
H1946 H 0.54842 0.65737 0.48894 0.0
H1947 H 0.52812 0.66147 0.49969 0.0
H1948 H 0.54049 0.67932 0.49013 0.0
H1949 H 0.51611 0.61667 0.44395 0.0
H1950 H 0.49794 0.62623 0.43235 0.0
H1951 H 0.49603 0.62029 0.45525 0.0
C1952 C 0.84918 0.77964 0.73536 0.0
C1953 C 0.85485 0.78794 0.75072 0.0
C1954 C 0.86124 0.77408 0.72276 0.0
C1955 C 0.8794 0.77695 0.72554 0.0
C1956 C 0.8852 0.78515 0.74108 0.0
C1957 C 0.87288 0.79047 0.75348 0.0
C1958 C 0.85457 0.76533 0.70637 0.0
C1959 C 0.90445 0.78845 0.74455 0.0
C1960 C 0.91365 0.75121 0.70107 0.0
C1961 C 0.91901 0.76319 0.68807 0.0
C1962 C 0.90038 0.75529 0.71304 0.0
C1963 C 0.8924 0.77181 0.71207 0.0
C1964 C 0.89752 0.78382 0.69877 0.0
C1965 C 0.91073 0.77936 0.68692 0.0
C1966 C 0.89516 0.74208 0.72695 0.0
C1967 C 0.88944 0.80162 0.69738 0.0
H1968 H 0.83527 0.77775 0.73305 0.0
H1969 H 0.87742 0.79654 0.76546 0.0
H1970 H 0.85821 0.77327 0.69465 0.0
H1971 H 0.86079 0.75246 0.70492 0.0
H1972 H 0.84012 0.76345 0.70649 0.0
H1973 H 0.90681 0.79486 0.75735 0.0
H1974 H 0.91162 0.77599 0.74446 0.0
H1975 H 0.91008 0.79684 0.73398 0.0
H1976 H 0.91985 0.73862 0.70188 0.0
H1977 H 0.91496 0.78876 0.67705 0.0
H1978 H 0.8808 0.73969 0.72655 0.0
H1979 H 0.89837 0.74721 0.74014 0.0
H1980 H 0.90191 0.72949 0.72531 0.0
H1981 H 0.87497 0.8004 0.69651 0.0
H1982 H 0.89426 0.80911 0.68576 0.0
H1983 H 0.89253 0.80915 0.70936 0.0
C1984 C 0.04427 0.87537 0.50268 0.0
C1985 C 0.03651 0.89182 0.50312 0.0
C1986 C 0.04005 0.86247 0.51519 0.0
C1987 C 0.02785 0.86611 0.52858 0.0
C1988 C 0.0201 0.88272 0.52926 0.0
C1989 C 0.02449 0.89538 0.51649 0.0
C1990 C 0.04861 0.84491 0.51403 0.0
C1991 C 0.00708 0.88709 0.54338 0.0
C1992 C 0.00551 0.82714 0.55051 0.0
C1993 C 0.01557 0.82507 0.56581 0.0
C1994 C 0.00916 0.84064 0.53845 0.0
C1995 C 0.02316 0.85241 0.54178 0.0
C1996 C 0.03314 0.85062 0.55736 0.0
C1997 C 0.02925 0.83696 0.56916 0.0
C1998 C 0.99821 0.84211 0.52198 0.0
C1999 C 0.04816 0.86293 0.56139 0.0
H2000 H 0.0538 0.87261 0.4926 0.0
H2001 H 0.0183 0.90797 0.51682 0.0
H2002 H 0.05592 0.84208 0.52631 0.0
H2003 H 0.03844 0.83458 0.51259 0.0
H2004 H 0.05781 0.84417 0.50279 0.0
H2005 H 0.00251 0.90072 0.54229 0.0
H2006 H 0.99554 0.87821 0.54258 0.0
H2007 H 0.01306 0.88513 0.55652 0.0
H2008 H 0.99473 0.8182 0.54796 0.0
H2009 H 0.03722 0.83534 0.58084 0.0
H2010 H 0.00663 0.84041 0.51027 0.0
H2011 H 0.99245 0.85526 0.52095 0.0
H2012 H 0.98744 0.83227 0.52161 0.0
H2013 H 0.05851 0.86172 0.55128 0.0
H2014 H 0.05405 0.86032 0.57448 0.0
H2015 H 0.04362 0.87658 0.56094 0.0
C2016 C 0.15394 0.72317 0.72272 0.0
C2017 C 0.15564 0.72969 0.73979 0.0
C2018 C 0.13802 0.72414 0.71355 0.0
C2019 C 0.12343 0.73202 0.72151 0.0
C2020 C 0.1249 0.73833 0.73884 0.0
C2021 C 0.14095 0.73701 0.7478 0.0
C2022 C 0.13697 0.71716 0.69512 0.0
C2023 C 0.10966 0.74689 0.74775 0.0
C2024 C 0.09002 0.75104 0.68996 0.0
C2025 C 0.0769 0.73811 0.68999 0.0
C2026 C 0.10499 0.74943 0.70055 0.0
C2027 C 0.10697 0.73444 0.7113 0.0
C2028 C 0.09359 0.72149 0.71165 0.0
C2029 C 0.07865 0.72353 0.70105 0.0
C2030 C 0.11883 0.76365 0.69996 0.0
C2031 C 0.09531 0.70524 0.72281 0.0
H2032 H 0.16524 0.71776 0.71625 0.0
H2033 H 0.14202 0.74185 0.76107 0.0
H2034 H 0.12571 0.70796 0.69393 0.0
H2035 H 0.13474 0.72801 0.68569 0.0
H2036 H 0.1491 0.71035 0.69126 0.0
H2037 H 0.1127 0.75046 0.76152 0.0
H2038 H 0.10603 0.75885 0.74038 0.0
H2039 H 0.09804 0.73807 0.74772 0.0
H2040 H 0.08858 0.76245 0.6816 0.0
H2041 H 0.06858 0.71345 0.701 0.0
H2042 H 0.13123 0.75842 0.69475 0.0
H2043 H 0.12158 0.76838 0.71341 0.0
H2044 H 0.11488 0.77487 0.69161 0.0
H2045 H 0.10665 0.69762 0.71826 0.0
H2046 H 0.08337 0.69683 0.72229 0.0
H2047 H 0.09788 0.70873 0.73667 0.0
C2048 C 0.97263 0.58804 0.54096 0.0
C2049 C 0.98115 0.5863 0.52477 0.0
C2050 C 0.97334 0.60375 0.55017 0.0
C2051 C 0.98264 0.61817 0.54294 0.0
C2052 C 0.99081 0.6167 0.52636 0.0
C2053 C 0.99003 0.60077 0.51751 0.0
C2054 C 0.96448 0.60478 0.56782 0.0
C2055 C 0.00075 0.63183 0.51817 0.0
C2056 C 0.97335 0.66289 0.56142 0.0
C2057 C 0.98746 0.66527 0.57304 0.0
C2058 C 0.97172 0.64774 0.55137 0.0
C2059 C 0.9844 0.63456 0.55308 0.0
C2060 C 0.99868 0.63687 0.56474 0.0
C2061 C 1.00009 0.65221 0.57449 0.0
C2062 C 0.95636 0.64578 0.539 0.0
C2063 C 0.01246 0.62309 0.567 0.0
H2064 H 0.96545 0.57705 0.54653 0.0
H2065 H 0.99681 0.59953 0.50512 0.0
H2066 H 0.97439 0.60749 0.57813 0.0
H2067 H 0.95507 0.61566 0.56784 0.0
H2068 H 0.95733 0.59256 0.57137 0.0
H2069 H 0.00544 0.62892 0.50474 0.0
H2070 H 0.99231 0.64347 0.51749 0.0
H2071 H 0.01224 0.63523 0.52645 0.0
H2072 H 0.9634 0.67278 0.56034 0.0
H2073 H 0.01122 0.65404 0.58316 0.0
H2074 H 0.94823 0.63433 0.54295 0.0
H2075 H 0.9611 0.64343 0.52548 0.0
H2076 H 0.94794 0.65746 0.53876 0.0
H2077 H 0.00625 0.61069 0.57149 0.0
H2078 H 0.02273 0.62688 0.57662 0.0
H2079 H 0.01883 0.62056 0.55422 0.0
C2080 C 0.76552 0.86289 0.20671 0.0
C2081 C 0.75418 0.85555 0.21933 0.0
C2082 C 0.77762 0.87603 0.21116 0.0
C2083 C 0.77849 0.88192 0.22867 0.0
C2084 C 0.76749 0.8742 0.2416 0.0
C2085 C 0.75543 0.86114 0.23677 0.0
C2086 C 0.78916 0.8839 0.197 0.0
C2087 C 0.76809 0.88009 0.26043 0.0
C2088 C 0.81899 0.90783 0.24227 0.0
C2089 C 0.81305 0.92499 0.24085 0.0
C2090 C 0.80784 0.89365 0.23858 0.0
C2091 C 0.79036 0.89672 0.23326 0.0
C2092 C 0.78425 0.914 0.23193 0.0
C2093 C 0.79566 0.92792 0.23577 0.0
C2094 C 0.81477 0.8754 0.24028 0.0
C2095 C 0.76573 0.91782 0.22619 0.0
H2096 H 0.76485 0.85843 0.19328 0.0
H2097 H 0.7466 0.85569 0.24656 0.0
H2098 H 0.7862 0.89792 0.19533 0.0
H2099 H 0.80314 0.88299 0.20087 0.0
H2100 H 0.78733 0.87741 0.18416 0.0
H2101 H 0.75951 0.87199 0.2691 0.0
H2102 H 0.7817 0.87957 0.26552 0.0
H2103 H 0.76385 0.89381 0.26118 0.0
H2104 H 0.83236 0.90548 0.24639 0.0
H2105 H 0.79105 0.94115 0.23442 0.0
H2106 H 0.81406 0.86884 0.2274 0.0
H2107 H 0.80655 0.86767 0.24957 0.0
H2108 H 0.82856 0.87521 0.24496 0.0
H2109 H 0.76346 0.91278 0.21278 0.0
H2110 H 0.76292 0.93197 0.22616 0.0
H2111 H 0.75625 0.91107 0.23504 0.0
C2112 C 0.78795 0.165 0.27583 0.0
C2113 C 0.7699 0.16569 0.27244 0.0
C2114 C 0.79693 0.14919 0.27532 0.0
C2115 C 0.78764 0.13367 0.27132 0.0
C2116 C 0.76934 0.13421 0.26827 0.0
C2117 C 0.76069 0.15021 0.26888 0.0
C2118 C 0.81642 0.14915 0.27877 0.0
C2119 C 0.75899 0.11794 0.26393 0.0
C2120 C 0.81393 0.09684 0.25211 0.0
C2121 C 0.81643 0.08598 0.26681 0.0
C2122 C 0.80439 0.11227 0.25337 0.0
C2123 C 0.79721 0.11701 0.26972 0.0
C2124 C 0.79955 0.10605 0.28458 0.0
C2125 C 0.80912 0.09067 0.28294 0.0
C2126 C 0.80223 0.12363 0.23723 0.0
C2127 C 0.79206 0.11065 0.30223 0.0
H2128 H 0.7951 0.17687 0.27885 0.0
H2129 H 0.74677 0.15067 0.26608 0.0
H2130 H 0.81948 0.13991 0.2896 0.0
H2131 H 0.82342 0.14468 0.26694 0.0
H2132 H 0.8216 0.16224 0.28228 0.0
H2133 H 0.74473 0.12041 0.26272 0.0
H2134 H 0.76371 0.11256 0.25137 0.0
H2135 H 0.76101 0.10783 0.27422 0.0
H2136 H 0.81974 0.09346 0.23966 0.0
H2137 H 0.81079 0.08223 0.2943 0.0
H2138 H 0.80843 0.13656 0.23944 0.0
H2139 H 0.78811 0.12581 0.23462 0.0
H2140 H 0.80817 0.11784 0.22538 0.0
H2141 H 0.79767 0.12326 0.30663 0.0
H2142 H 0.79478 0.10059 0.31242 0.0
H2143 H 0.77767 0.11225 0.30117 0.0
C2144 C 0.41355 0.96209 0.98566 0.0
C2145 C 0.41361 0.98031 0.98407 0.0
C2146 C 0.39778 0.95255 0.98676 0.0
C2147 C 0.38165 0.96142 0.98638 0.0
C2148 C 0.38158 0.97978 0.98467 0.0
C2149 C 0.39756 0.989 0.9835 0.0
C2150 C 0.3984 0.93298 0.98857 0.0
C2151 C 0.36464 0.98969 0.98421 0.0
C2152 C 0.34066 0.93525 0.9749 0.0
C2153 C 0.33371 0.93145 0.99156 0.0
C2154 C 0.35615 0.94515 0.973 0.0
C2155 C 0.36487 0.95145 0.98811 0.0
C2156 C 0.35779 0.94785 0.00495 0.0
C2157 C 0.34232 0.93788 0.00647 0.0
C2158 C 0.36335 0.94862 0.95483 0.0
C2159 C 0.36663 0.95444 0.02138 0.0
H2160 H 0.42587 0.95528 0.98641 0.0
H2161 H 0.39748 0.00305 0.98206 0.0
H2162 H 0.39238 0.9288 0.0012 0.0
H2163 H 0.39069 0.92681 0.97791 0.0
H2164 H 0.412 0.92802 0.98812 0.0
H2165 H 0.36682 0.00394 0.98265 0.0
H2166 H 0.35631 0.98508 0.97322 0.0
H2167 H 0.35721 0.98723 0.99652 0.0
H2168 H 0.33416 0.93017 0.96334 0.0
H2169 H 0.33688 0.93521 0.01937 0.0
H2170 H 0.37651 0.94278 0.95364 0.0
H2171 H 0.36496 0.96283 0.95254 0.0
H2172 H 0.35475 0.94321 0.9444 0.0
H2173 H 0.38001 0.94904 0.02244 0.0
H2174 H 0.35923 0.95084 0.03345 0.0
H2175 H 0.36806 0.96882 0.0207 0.0
C2176 C 0.23345 0.35715 0.27909 0.0
C2177 C 0.24807 0.36161 0.28939 0.0
C2178 C 0.22082 0.36959 0.27458 0.0
C2179 C 0.2228 0.38687 0.2806 0.0
C2180 C 0.23755 0.39147 0.29092 0.0
C2181 C 0.25002 0.37883 0.29511 0.0
C2182 C 0.20531 0.36422 0.26349 0.0
C2183 C 0.24013 0.40976 0.2976 0.0
C2184 C 0.19926 0.42422 0.25798 0.0
C2185 C 0.18519 0.42691 0.2694 0.0
C2186 C 0.21135 0.41094 0.26122 0.0
C2187 C 0.2094 0.40018 0.27631 0.0
C2188 C 0.19506 0.40266 0.28774 0.0
C2189 C 0.1831 0.41596 0.28412 0.0
C2190 C 0.22637 0.40861 0.24863 0.0
C2191 C 0.19259 0.39154 0.30404 0.0
H2192 H 0.23173 0.34386 0.27476 0.0
H2193 H 0.26142 0.38251 0.30278 0.0
H2194 H 0.193 0.3661 0.2709 0.0
H2195 H 0.20462 0.37255 0.25153 0.0
H2196 H 0.20593 0.3504 0.25944 0.0
H2197 H 0.25228 0.4112 0.30554 0.0
H2198 H 0.2408 0.41909 0.2864 0.0
H2199 H 0.22879 0.41343 0.30579 0.0
H2200 H 0.20079 0.43249 0.24645 0.0
H2201 H 0.17235 0.41809 0.29309 0.0
H2202 H 0.22655 0.395 0.24393 0.0
H2203 H 0.23899 0.41107 0.25547 0.0
H2204 H 0.22558 0.41752 0.23708 0.0
H2205 H 0.19219 0.37757 0.30055 0.0
H2206 H 0.18037 0.39466 0.31118 0.0
H2207 H 0.20388 0.39349 0.31303 0.0
C2208 C 0.10486 0.01854 0.47061 0.0
C2209 C 0.1074 0.0011 0.47551 0.0
C2210 C 0.11734 0.03145 0.47474 0.0
C2211 C 0.13274 0.0268 0.48396 0.0
C2212 C 0.13508 0.00934 0.48949 0.0
C2213 C 0.12238 0.99671 0.48521 0.0
C2214 C 0.11436 0.04994 0.46865 0.0
C2215 C 0.15127 0.00387 0.49944 0.0
C2216 C 0.1739 0.05431 0.47723 0.0
C2217 C 0.17451 0.06409 0.49266 0.0
C2218 C 0.1603 0.04226 0.4742 0.0
C2219 C 0.14691 0.03994 0.48688 0.0
C2220 C 0.1473 0.04991 0.50239 0.0
C2221 C 0.16111 0.06185 0.50511 0.0
C2222 C 0.16033 0.03191 0.45747 0.0
C2223 C 0.13325 0.0478 0.51621 0.0
H2224 H 0.0934 0.022 0.46298 0.0
H2225 H 0.12428 0.9833 0.48928 0.0
H2226 H 0.11591 0.05901 0.47979 0.0
H2227 H 0.12433 0.05369 0.45868 0.0
H2228 H 0.10114 0.05167 0.46281 0.0
H2229 H 0.15061 0.99001 0.5037 0.0
H2230 H 0.16299 0.00581 0.49101 0.0
H2231 H 0.15313 0.01208 0.51119 0.0
H2232 H 0.18403 0.05617 0.46741 0.0
H2233 H 0.16158 0.06922 0.51715 0.0
H2234 H 0.14801 0.03411 0.45007 0.0
H2235 H 0.1609 0.0178 0.46063 0.0
H2236 H 0.17159 0.03541 0.44884 0.0
H2237 H 0.12017 0.05004 0.51031 0.0
H2238 H 0.13516 0.05691 0.52728 0.0
H2239 H 0.13322 0.03428 0.52148 0.0
C2240 C 0.75039 0.12942 0.7081 0.0
C2241 C 0.75088 0.14549 0.71668 0.0
C2242 C 0.73779 0.11663 0.71241 0.0
C2243 C 0.72547 0.11985 0.7258 0.0
C2244 C 0.72592 0.13596 0.73462 0.0
C2245 C 0.73857 0.14862 0.72992 0.0
C2246 C 0.73773 0.09963 0.70265 0.0
C2247 C 0.71304 0.13982 0.74904 0.0
C2248 C 0.68379 0.09224 0.72554 0.0
C2249 C 0.68784 0.07911 0.73776 0.0
C2250 C 0.69578 0.10577 0.72176 0.0
C2251 C 0.71216 0.10626 0.73052 0.0
C2252 C 0.71613 0.09328 0.7432 0.0
C2253 C 0.70396 0.07982 0.74661 0.0
C2254 C 0.69113 0.11926 0.70803 0.0
C2255 C 0.73337 0.09346 0.75296 0.0
H2256 H 0.76003 0.12672 0.69811 0.0
H2257 H 0.7387 0.16104 0.7365 0.0
H2258 H 0.73989 0.08868 0.71197 0.0
H2259 H 0.72476 0.09742 0.69638 0.0
H2260 H 0.74799 0.09931 0.69234 0.0
H2261 H 0.71529 0.15288 0.7548 0.0
H2262 H 0.69947 0.13915 0.74383 0.0
H2263 H 0.71402 0.12987 0.75964 0.0
H2264 H 0.67142 0.09165 0.71855 0.0
H2265 H 0.70704 0.06982 0.75623 0.0
H2266 H 0.70038 0.11854 0.69685 0.0
H2267 H 0.69241 0.13251 0.71355 0.0
H2268 H 0.67758 0.11747 0.70295 0.0
H2269 H 0.74431 0.09186 0.74358 0.0
H2270 H 0.73407 0.08295 0.76305 0.0
H2271 H 0.73539 0.10618 0.75947 0.0
C2272 C 0.40496 0.02483 0.53254 0.0
C2273 C 0.41288 0.02045 0.51663 0.0
C2274 C 0.38931 0.03426 0.53279 0.0
C2275 C 0.38133 0.03924 0.51674 0.0
C2276 C 0.389 0.03437 0.50064 0.0
C2277 C 0.40473 0.02512 0.50079 0.0
C2278 C 0.38162 0.03934 0.5502 0.0
C2279 C 0.38077 0.03923 0.48326 0.0
C2280 C 0.33358 0.05283 0.5162 0.0
C2281 C 0.33518 0.07101 0.51506 0.0
C2282 C 0.34848 0.0423 0.51694 0.0
C2283 C 0.36536 0.05016 0.5167 0.0
C2284 C 0.36704 0.06853 0.5159 0.0
C2285 C 0.35193 0.07872 0.51502 0.0
C2286 C 0.34617 0.02276 0.51761 0.0
C2287 C 0.3848 0.07742 0.51581 0.0
H2288 H 0.41132 0.02138 0.5448 0.0
H2289 H 0.41072 0.02157 0.48847 0.0
H2290 H 0.38168 0.05372 0.55128 0.0
H2291 H 0.36778 0.03485 0.55111 0.0
H2292 H 0.389 0.03382 0.5615 0.0
H2293 H 0.38787 0.03365 0.47196 0.0
H2294 H 0.36694 0.03461 0.48285 0.0
H2295 H 0.38069 0.05359 0.48169 0.0
H2296 H 0.32066 0.04681 0.51607 0.0
H2297 H 0.35322 0.09278 0.51436 0.0
H2298 H 0.35305 0.01731 0.52923 0.0
H2299 H 0.35214 0.01697 0.50581 0.0
H2300 H 0.33216 0.01871 0.51823 0.0
H2301 H 0.39247 0.07327 0.52747 0.0
H2302 H 0.38383 0.09183 0.5158 0.0
H2303 H 0.39224 0.07354 0.50402 0.0
C2304 C 0.60505 0.4906 0.52292 0.0
C2305 C 0.60733 0.50025 0.5383 0.0
C2306 C 0.61739 0.47817 0.51795 0.0
C2307 C 0.63224 0.47522 0.52871 0.0
C2308 C 0.63443 0.48472 0.54439 0.0
C2309 C 0.62198 0.49714 0.54895 0.0
C2310 C 0.61469 0.46838 0.50108 0.0
C2311 C 0.64997 0.48183 0.55632 0.0
C2312 C 0.6577 0.43321 0.5252 0.0
C2313 C 0.67255 0.43874 0.51575 0.0
C2314 C 0.64429 0.44485 0.5292 0.0
C2315 C 0.64572 0.46242 0.52352 0.0
C2316 C 0.66048 0.46797 0.5136 0.0
C2317 C 0.67374 0.45608 0.50989 0.0
C2318 C 0.62882 0.43847 0.53992 0.0
C2319 C 0.66241 0.48655 0.50717 0.0
H2320 H 0.59381 0.49306 0.51458 0.0
H2321 H 0.62365 0.50437 0.56099 0.0
H2322 H 0.62578 0.47111 0.49203 0.0
H2323 H 0.61446 0.45416 0.50376 0.0
H2324 H 0.60229 0.47195 0.49436 0.0
H2325 H 0.64952 0.48999 0.56825 0.0
H2326 H 0.65049 0.46796 0.56045 0.0
H2327 H 0.66229 0.48489 0.54915 0.0
H2328 H 0.65679 0.41986 0.5299 0.0
H2329 H 0.68508 0.46035 0.50237 0.0
H2330 H 0.61641 0.44141 0.53297 0.0
H2331 H 0.62855 0.44537 0.55262 0.0
H2332 H 0.62927 0.42424 0.54262 0.0
H2333 H 0.65068 0.49034 0.49947 0.0
H2334 H 0.67422 0.48856 0.49885 0.0
H2335 H 0.66334 0.49541 0.51854 0.0
C2336 C 0.7301 0.26218 0.35572 0.0
C2337 C 0.73394 0.27104 0.33995 0.0
C2338 C 0.73029 0.2709 0.37183 0.0
C2339 C 0.73445 0.28891 0.37219 0.0
C2340 C 0.73825 0.29793 0.35632 0.0
C2341 C 0.7379 0.28891 0.34042 0.0
C2342 C 0.72616 0.26085 0.38848 0.0
C2343 C 0.74272 0.31714 0.35614 0.0
C2344 C 0.72089 0.31657 0.41079 0.0
C2345 C 0.73665 0.3181 0.42018 0.0
C2346 C 0.71987 0.30676 0.39537 0.0
C2347 C 0.73501 0.29836 0.38914 0.0
C2348 C 0.75088 0.29962 0.39871 0.0
C2349 C 0.7515 0.30944 0.41413 0.0
C2350 C 0.70268 0.30563 0.38559 0.0
C2351 C 0.76733 0.29095 0.39244 0.0
H2352 H 0.7272 0.24834 0.3555 0.0
H2353 H 0.74057 0.29593 0.32828 0.0
H2354 H 0.73758 0.26136 0.3975 0.0
H2355 H 0.71501 0.26687 0.39536 0.0
H2356 H 0.72282 0.24699 0.38593 0.0
H2357 H 0.74538 0.32223 0.34269 0.0
H2358 H 0.73177 0.32457 0.36181 0.0
H2359 H 0.75444 0.31963 0.36442 0.0
H2360 H 0.70932 0.32304 0.41552 0.0
H2361 H 0.76377 0.31074 0.42121 0.0
H2362 H 0.69882 0.2918 0.38372 0.0
H2363 H 0.70414 0.31163 0.37236 0.0
H2364 H 0.69195 0.31228 0.39258 0.0
H2365 H 0.76484 0.27684 0.39051 0.0
H2366 H 0.77841 0.29255 0.40178 0.0
H2367 H 0.77129 0.29657 0.37954 0.0
C2368 C 0.5154 0.03086 0.90007 0.0
C2369 C 0.52146 0.02123 0.91457 0.0
C2370 C 0.52394 0.03019 0.88376 0.0
C2371 C 0.53893 0.01971 0.88193 0.0
C2372 C 0.54511 0.00998 0.8965 0.0
C2373 C 0.53627 0.0108 0.91258 0.0
C2374 C 0.51693 0.04069 0.86849 0.0
C2375 C 0.56107 0.99866 0.8951 0.0
C2376 C 0.55365 0.00426 0.83716 0.0
C2377 C 0.56781 0.01558 0.83356 0.0
C2378 C 0.5438 0.00579 0.8526 0.0
C2379 C 0.54827 0.01887 0.86482 0.0
C2380 C 0.56229 0.03057 0.8611 0.0
C2381 C 0.57183 0.02882 0.8455 0.0
C2382 C 0.5289 0.9931 0.85607 0.0
C2383 C 0.56748 0.04468 0.8738 0.0
H2384 H 0.50409 0.03909 0.90151 0.0
H2385 H 0.54086 0.00304 0.92359 0.0
H2386 H 0.52709 0.05007 0.86378 0.0
H2387 H 0.51371 0.03197 0.8574 0.0
H2388 H 0.505 0.04801 0.872 0.0
H2389 H 0.5643 0.99206 0.90772 0.0
H2390 H 0.55887 0.9886 0.88498 0.0
H2391 H 0.57256 0.00664 0.89089 0.0
H2392 H 0.55055 0.99386 0.82814 0.0
H2393 H 0.58253 0.03783 0.84269 0.0
H2394 H 0.51673 1.00022 0.85905 0.0
H2395 H 0.53198 0.98491 0.86772 0.0
H2396 H 0.52635 0.98443 0.84475 0.0
H2397 H 0.55603 0.05287 0.87679 0.0
H2398 H 0.5782 0.05318 0.86862 0.0
H2399 H 0.57188 0.03871 0.88636 0.0
C2400 C 0.29629 0.24168 0.36714 0.0
C2401 C 0.28298 0.24898 0.35679 0.0
C2402 C 0.29246 0.22922 0.38022 0.0
C2403 C 0.27485 0.22402 0.3832 0.0
C2404 C 0.26135 0.23112 0.37267 0.0
C2405 C 0.26558 0.24346 0.35955 0.0
C2406 C 0.30724 0.2219 0.39112 0.0
C2407 C 0.24241 0.22594 0.37549 0.0
C2408 C 0.26697 0.18203 0.40904 0.0
C2409 C 0.26429 0.18825 0.42607 0.0
C2410 C 0.27017 0.19351 0.3949 0.0
C2411 C 0.27056 0.21167 0.39781 0.0
C2412 C 0.26753 0.21805 0.41488 0.0
C2413 C 0.26452 0.20628 0.4288 0.0
C2414 C 0.27341 0.18621 0.3769 0.0
C2415 C 0.26779 0.23733 0.41852 0.0
H2416 H 0.30973 0.24605 0.36538 0.0
H2417 H 0.25523 0.24884 0.35147 0.0
H2418 H 0.30561 0.22566 0.40503 0.0
H2419 H 0.30693 0.20747 0.39071 0.0
H2420 H 0.32029 0.22659 0.38653 0.0
H2421 H 0.23353 0.23223 0.36582 0.0
H2422 H 0.2408 0.21162 0.37453 0.0
H2423 H 0.23828 0.22962 0.38889 0.0
H2424 H 0.26656 0.16814 0.40674 0.0
H2425 H 0.26274 0.21124 0.44192 0.0
H2426 H 0.28676 0.18998 0.3724 0.0
H2427 H 0.264 0.19175 0.36731 0.0
H2428 H 0.27217 0.1718 0.37672 0.0
H2429 H 0.28103 0.24284 0.41577 0.0
H2430 H 0.26435 0.24021 0.43234 0.0
H2431 H 0.25844 0.24411 0.40971 0.0
C2432 C 0.47728 0.46672 0.90707 0.0
C2433 C 0.49486 0.47179 0.90477 0.0
C2434 C 0.46455 0.47078 0.89439 0.0
C2435 C 0.46954 0.48009 0.87901 0.0
C2436 C 0.48715 0.4857 0.87686 0.0
C2437 C 0.49959 0.48148 0.88975 0.0
C2438 C 0.44588 0.46468 0.89721 0.0
C2439 C 0.49299 0.49562 0.86063 0.0
C2440 C 0.44284 0.4739 0.8374 0.0
C2441 C 0.43306 0.48921 0.83669 0.0
C2442 C 0.45458 0.4707 0.85122 0.0
C2443 C 0.4566 0.48311 0.86469 0.0
C2444 C 0.44659 0.49849 0.8642 0.0
C2445 C 0.43493 0.50136 0.8502 0.0
C2446 C 0.46496 0.4541 0.8513 0.0
C2447 C 0.44841 0.51203 0.87831 0.0
H2448 H 0.4735 0.45943 0.91875 0.0
H2449 H 0.51318 0.48524 0.88774 0.0
H2450 H 0.43681 0.47578 0.89585 0.0
H2451 H 0.44219 0.4551 0.88702 0.0
H2452 H 0.44392 0.45852 0.91033 0.0
H2453 H 0.5069 0.49999 0.86147 0.0
H2454 H 0.49143 0.48725 0.84895 0.0
H2455 H 0.48468 0.50719 0.85852 0.0
H2456 H 0.44125 0.46432 0.82717 0.0
H2457 H 0.42755 0.5133 0.84964 0.0
H2458 H 0.46247 0.44665 0.86363 0.0
H2459 H 0.47918 0.45723 0.85086 0.0
H2460 H 0.46164 0.44565 0.84 0.0
H2461 H 0.44595 0.50603 0.8914 0.0
H2462 H 0.43923 0.52298 0.87636 0.0
H2463 H 0.462 0.51734 0.87842 0.0
C2464 C 0.70997 0.73073 0.15052 0.0
C2465 C 0.71873 0.74686 0.15118 0.0
C2466 C 0.71412 0.71847 0.13771 0.0
C2467 C 0.72725 0.72252 0.12516 0.0
C2468 C 0.73649 0.73858 0.12606 0.0
C2469 C 0.73216 0.75054 0.13911 0.0
C2470 C 0.70412 0.7014 0.13731 0.0
C2471 C 0.75049 0.74343 0.11284 0.0
C2472 C 0.7464 0.68616 0.09796 0.0
C2473 C 0.73668 0.68755 0.08236 0.0
C2474 C 0.74345 0.6974 0.11205 0.0
C2475 C 0.73057 0.71041 0.11045 0.0
C2476 C 0.72074 0.71189 0.09474 0.0
C2477 C 0.72385 0.7004 0.08095 0.0
C2478 C 0.75414 0.69538 0.12862 0.0
C2479 C 0.7069 0.72562 0.0925 0.0
H2480 H 0.69972 0.72775 0.15997 0.0
H2481 H 0.73884 0.76306 0.13945 0.0
H2482 H 0.69626 0.70064 0.12508 0.0
H2483 H 0.71336 0.69037 0.13725 0.0
H2484 H 0.69516 0.69977 0.1487 0.0
H2485 H 0.75718 0.75593 0.116 0.0
H2486 H 0.76045 0.73307 0.11223 0.0
H2487 H 0.74454 0.7446 0.09959 0.0
H2488 H 0.75649 0.67643 0.0991 0.0
H2489 H 0.71604 0.70139 0.06909 0.0
H2490 H 0.74533 0.69311 0.14001 0.0
H2491 H 0.76167 0.70753 0.13116 0.0
H2492 H 0.76345 0.68442 0.12789 0.0
H2493 H 0.6966 0.7238 0.10263 0.0
H2494 H 0.70061 0.72523 0.07935 0.0
H2495 H 0.7128 0.73874 0.09437 0.0
C2496 C 0.00103 0.03666 0.12896 0.0
C2497 C 0.99818 0.03305 0.11115 0.0
C2498 C 0.98795 0.03345 0.14153 0.0
C2499 C 0.97149 0.02666 0.13619 0.0
C2500 C 0.96844 0.02306 0.11825 0.0
C2501 C 0.98185 0.02623 0.10595 0.0
C2502 C 0.99175 0.0374 0.16055 0.0
C2503 C 0.95102 0.0159 0.11205 0.0
C2504 C 0.94381 0.00476 0.1717 0.0
C2505 C 0.93279 0.01831 0.17664 0.0
C2506 C 0.95621 0.00716 0.15827 0.0
C2507 C 0.95749 0.02345 0.14946 0.0
C2508 C 0.94601 0.037 0.15403 0.0
C2509 C 0.93386 0.03429 0.16762 0.0
C2510 C 0.96832 0.99245 0.1539 0.0
C2511 C 0.94683 0.05448 0.14481 0.0
H2512 H 0.01345 0.04226 0.13309 0.0
H2513 H 0.97957 0.0232 0.09227 0.0
H2514 H 0.98256 0.04736 0.16531 0.0
H2515 H 0.98968 0.02553 0.16874 0.0
H2516 H 0.00537 0.04224 0.1626 0.0
H2517 H 0.95067 0.014 0.09763 0.0
H2518 H 0.94818 0.00324 0.11865 0.0
H2519 H 0.94038 0.02489 0.11567 0.0
H2520 H 0.94314 0.99244 0.17875 0.0
H2521 H 0.9252 0.04472 0.17125 0.0
H2522 H 0.98203 0.9963 0.15701 0.0
H2523 H 0.96774 0.98968 0.13966 0.0
H2524 H 0.96503 0.98032 0.16131 0.0
H2525 H 0.95968 0.06088 0.14739 0.0
H2526 H 0.93629 0.06327 0.14917 0.0
H2527 H 0.94572 0.05279 0.1304 0.0
C2528 C 0.26833 0.75771 0.1465 0.0
C2529 C 0.28611 0.75442 0.14966 0.0
C2530 C 0.26316 0.77009 0.13387 0.0
C2531 C 0.27607 0.77929 0.12404 0.0
C2532 C 0.29403 0.77634 0.12746 0.0
C2533 C 0.29882 0.76404 0.14027 0.0
C2534 C 0.24388 0.77298 0.1307 0.0
C2535 C 0.30821 0.78588 0.11726 0.0
C2536 C 0.26464 0.79685 0.0787 0.0
C2537 C 0.26306 0.8147 0.08183 0.0
C2538 C 0.26859 0.78516 0.09238 0.0
C2539 C 0.27088 0.79145 0.10965 0.0
C2540 C 0.26889 0.8094 0.11297 0.0
C2541 C 0.2651 0.82084 0.099 0.0
C2542 C 0.27078 0.76614 0.08827 0.0
C2543 C 0.27101 0.81656 0.13123 0.0
H2544 H 0.2584 0.75024 0.15353 0.0
H2545 H 0.31259 0.76185 0.14286 0.0
H2546 H 0.24089 0.78703 0.13152 0.0
H2547 H 0.24031 0.76872 0.11728 0.0
H2548 H 0.23552 0.76572 0.14028 0.0
H2549 H 0.32156 0.78245 0.12184 0.0
H2550 H 0.30708 0.78273 0.10312 0.0
H2551 H 0.3066 0.80014 0.11845 0.0
H2552 H 0.26328 0.79208 0.06543 0.0
H2553 H 0.2637 0.83461 0.10149 0.0
H2554 H 0.26187 0.75805 0.09657 0.0
H2555 H 0.28438 0.76215 0.09135 0.0
H2556 H 0.26804 0.76326 0.07427 0.0
H2557 H 0.26213 0.80952 0.14047 0.0
H2558 H 0.26818 0.83069 0.13176 0.0
H2559 H 0.2846 0.8145 0.13592 0.0
C2560 C 0.03336 0.49299 0.09329 0.0
C2561 C 0.01723 0.48411 0.09189 0.0
C2562 C 0.04235 0.49384 0.10933 0.0
C2563 C 0.035 0.48573 0.12443 0.0
C2564 C 0.01867 0.47688 0.12319 0.0
C2565 C 0.01 0.47614 0.10692 0.0
C2566 C 0.05974 0.50341 0.11011 0.0
C2567 C 0.01041 0.46812 0.13902 0.0
C2568 C 0.06651 0.47483 0.16148 0.0
C2569 C 0.06437 0.48897 0.17274 0.0
C2570 C 0.05681 0.47344 0.14589 0.0
C2571 C 0.04455 0.48645 0.14147 0.0
C2572 C 0.04198 0.50053 0.15297 0.0
C2573 C 0.05195 0.50165 0.16844 0.0
C2574 C 0.05993 0.45825 0.13395 0.0
C2575 C 0.02899 0.51463 0.14874 0.0
H2576 H 0.0389 0.49947 0.08183 0.0
H2577 H 0.99765 0.46909 0.10593 0.0
H2578 H 0.05906 0.51414 0.11969 0.0
H2579 H 0.07011 0.49445 0.11472 0.0
H2580 H 0.06369 0.50896 0.09717 0.0
H2581 H 0.99749 0.46205 0.13593 0.0
H2582 H 0.0192 0.45791 0.14424 0.0
H2583 H 0.00861 0.47774 0.1496 0.0
H2584 H 0.07586 0.46482 0.16484 0.0
H2585 H 0.05034 0.51273 0.17692 0.0
H2586 H 0.06497 0.46305 0.12111 0.0
H2587 H 0.04744 0.45119 0.1314 0.0
H2588 H 0.06949 0.44893 0.13957 0.0
H2589 H 0.0331 0.52172 0.13664 0.0
H2590 H 0.02782 0.52415 0.15953 0.0
H2591 H 0.01587 0.5088 0.14616 0.0
C2592 C 0.37164 0.70558 0.26078 0.0
C2593 C 0.357 0.71613 0.258 0.0
C2594 C 0.38442 0.70991 0.2733 0.0
C2595 C 0.38259 0.7252 0.28327 0.0
C2596 C 0.36785 0.73591 0.28057 0.0
C2597 C 0.35523 0.73125 0.26796 0.0
C2598 C 0.39998 0.69817 0.27573 0.0
C2599 C 0.36544 0.7523 0.29098 0.0
C2600 C 0.40868 0.72733 0.32576 0.0
C2601 C 0.42349 0.73708 0.32057 0.0
C2602 C 0.39506 0.72371 0.31387 0.0
C2603 C 0.39628 0.73 0.29637 0.0
C2604 C 0.41099 0.74019 0.29116 0.0
C2605 C 0.42442 0.7436 0.30331 0.0
C2606 C 0.37961 0.71275 0.31991 0.0
C2607 C 0.41272 0.74722 0.27265 0.0
H2608 H 0.37328 0.69405 0.25293 0.0
H2609 H 0.34387 0.73937 0.26601 0.0
H2610 H 0.41226 0.70551 0.27279 0.0
H2611 H 0.40078 0.69366 0.28959 0.0
H2612 H 0.3993 0.6866 0.26714 0.0
H2613 H 0.35323 0.75918 0.28735 0.0
H2614 H 0.36505 0.74912 0.30521 0.0
H2615 H 0.37675 0.76129 0.28881 0.0
H2616 H 0.40795 0.72212 0.33902 0.0
H2617 H 0.43569 0.75138 0.29929 0.0
H2618 H 0.37921 0.70037 0.31257 0.0
H2619 H 0.3672 0.7196 0.31709 0.0
H2620 H 0.38019 0.70965 0.33418 0.0
H2621 H 0.41338 0.73628 0.26331 0.0
H2622 H 0.4246 0.75556 0.27091 0.0
H2623 H 0.40104 0.75495 0.2691 0.0
C2624 C 0.99227 0.40115 0.99007 0.0
C2625 C 0.97828 0.41241 0.98684 0.0
C2626 C 0.99362 0.38536 0.98111 0.0
C2627 C 0.9806 0.38066 0.96871 0.0
C2628 C 0.96619 0.39175 0.96575 0.0
C2629 C 0.96524 0.40752 0.97481 0.0
C2630 C 0.00923 0.37394 0.98455 0.0
C2631 C 0.95197 0.38712 0.95276 0.0
C2632 C 0.99292 0.35004 0.9321 0.0
C2633 C 0.98597 0.33411 0.93819 0.0
C2634 C 0.99132 0.36525 0.94195 0.0
C2635 C 0.98246 0.36455 0.95825 0.0
C2636 C 0.9754 0.34851 0.96449 0.0
C2637 C 0.9773 0.33346 0.9544 0.0
C2638 C 0.99918 0.38206 0.93492 0.0
C2639 C 0.96576 0.34728 0.98174 0.0
H2640 H 0.00249 0.40496 0.9992 0.0
H2641 H 0.95429 0.41608 0.97244 0.0
H2642 H 0.00482 0.36059 0.98823 0.0
H2643 H 0.01714 0.37293 0.9724 0.0
H2644 H 0.01779 0.37907 0.99517 0.0
H2645 H 0.94119 0.3967 0.95264 0.0
H2646 H 0.95759 0.38653 0.93936 0.0
H2647 H 0.94638 0.37406 0.9559 0.0
H2648 H 0.99986 0.35056 0.91969 0.0
H2649 H 0.97177 0.3212 0.95909 0.0
H2650 H 0.00888 0.38731 0.94441 0.0
H2651 H 0.9888 0.39193 0.93331 0.0
H2652 H 0.00577 0.38037 0.92208 0.0
H2653 H 0.97445 0.35163 0.99257 0.0
H2654 H 0.96104 0.33384 0.98473 0.0
H2655 H 0.95433 0.35606 0.98148 0.0
C2656 C 0.63588 0.77115 0.25763 0.0
C2657 C 0.64961 0.78289 0.26123 0.0
C2658 C 0.62289 0.76739 0.27017 0.0
C2659 C 0.62367 0.77552 0.28674 0.0
C2660 C 0.63781 0.78695 0.29066 0.0
C2661 C 0.65058 0.79055 0.27783 0.0
C2662 C 0.60798 0.75519 0.26545 0.0
C2663 C 0.63918 0.79575 0.30824 0.0
C2664 C 0.5807 0.78103 0.31095 0.0
C2665 C 0.58105 0.76719 0.3231 0.0
C2666 C 0.59456 0.78396 0.29917 0.0
C2667 C 0.60918 0.7728 0.29956 0.0
C2668 C 0.60972 0.75892 0.31191 0.0
C2669 C 0.59563 0.75625 0.32351 0.0
C2670 C 0.59343 0.79885 0.28613 0.0
C2671 C 0.62514 0.74683 0.31279 0.0
H2672 H 0.63493 0.76536 0.24475 0.0
H2673 H 0.66127 0.79948 0.28074 0.0
H2674 H 0.6067 0.74466 0.27546 0.0
H2675 H 0.59548 0.7624 0.26532 0.0
H2676 H 0.6098 0.7492 0.25239 0.0
H2677 H 0.65156 0.80338 0.30963 0.0
H2678 H 0.628 0.80465 0.30992 0.0
H2679 H 0.63845 0.78592 0.319 0.0
H2680 H 0.56937 0.78939 0.3104 0.0
H2681 H 0.59606 0.74566 0.333 0.0
H2682 H 0.59376 0.79377 0.27256 0.0
H2683 H 0.60491 0.80772 0.28763 0.0
H2684 H 0.5813 0.8065 0.28773 0.0
H2685 H 0.62656 0.74004 0.30012 0.0
H2686 H 0.62374 0.73691 0.32344 0.0
H2687 H 0.63741 0.7544 0.31499 0.0
C2688 C 0.02408 0.12029 0.01016 0.0
C2689 C 0.03279 0.1052 0.00504 0.0
C2690 C 0.02008 0.13346 0.99795 0.0
C2691 C 0.02477 0.13147 0.98013 0.0
C2692 C 0.03302 0.11603 0.97474 0.0
C2693 C 0.03698 0.1031 0.98727 0.0
C2694 C 0.01127 0.14973 0.00423 0.0
C2695 C 0.0381 0.11337 0.95583 0.0
C2696 C 0.0029 0.16127 0.9467 0.0
C2697 C 0.01575 0.17431 0.94426 0.0
C2698 C 0.00576 0.14706 0.95807 0.0
C2699 C 0.02179 0.14593 0.96734 0.0
C2700 C 0.03489 0.15892 0.96481 0.0
C2701 C 0.03175 0.17288 0.95326 0.0
C2702 C 0.99152 0.13341 0.96036 0.0
C2703 C 0.05216 0.1582 0.97448 0.0
H2704 H 0.02048 0.12188 0.02379 0.0
H2705 H 0.04386 0.09158 0.9832 0.0
H2706 H 0.02006 0.16116 0.00202 0.0
H2707 H 0.99911 0.15204 0.99659 0.0
H2708 H 0.00788 0.14898 0.01839 0.0
H2709 H 0.0433 0.10015 0.95355 0.0
H2710 H 0.02662 0.11539 0.94712 0.0
H2711 H 0.04827 0.12311 0.95194 0.0
H2712 H 0.99043 0.16233 0.93998 0.0
H2713 H 0.04189 0.18269 0.95122 0.0
H2714 H 0.98686 0.13325 0.97414 0.0
H2715 H 0.99677 0.12032 0.95765 0.0
H2716 H 0.98014 0.13574 0.95157 0.0
H2717 H 0.04984 0.15848 0.98884 0.0
H2718 H 0.06107 0.16921 0.97086 0.0
H2719 H 0.05885 0.14583 0.97161 0.0
C2720 C 0.35796 0.30101 0.23587 0.0
C2721 C 0.35029 0.28873 0.24736 0.0
C2722 C 0.37045 0.29608 0.22344 0.0
C2723 C 0.37538 0.27842 0.22244 0.0
C2724 C 0.36722 0.26585 0.23354 0.0
C2725 C 0.35478 0.27116 0.24588 0.0
C2726 C 0.37877 0.30986 0.21177 0.0
C2727 C 0.37211 0.2469 0.23286 0.0
C2728 C 0.40022 0.26408 0.18195 0.0
C2729 C 0.41763 0.26466 0.18791 0.0
C2730 C 0.38629 0.26834 0.19307 0.0
C2731 C 0.38986 0.27333 0.21056 0.0
C2732 C 0.40738 0.27381 0.21669 0.0
C2733 C 0.42103 0.26948 0.2053 0.0
C2734 C 0.36778 0.2676 0.18609 0.0
C2735 C 0.41174 0.27913 0.23523 0.0
H2736 H 0.35435 0.31456 0.23675 0.0
H2737 H 0.34905 0.26161 0.25482 0.0
H2738 H 0.39297 0.31099 0.21478 0.0
H2739 H 0.37756 0.30613 0.19779 0.0
H2740 H 0.37276 0.32282 0.21346 0.0
H2741 H 0.3636 0.23858 0.24138 0.0
H2742 H 0.37119 0.24213 0.2192 0.0
H2743 H 0.3859 0.24538 0.23717 0.0
H2744 H 0.39748 0.26017 0.16858 0.0
H2745 H 0.43445 0.27023 0.20994 0.0
H2746 H 0.36181 0.28065 0.18682 0.0
H2747 H 0.35967 0.25862 0.1943 0.0
H2748 H 0.36718 0.26317 0.17227 0.0
H2749 H 0.40737 0.29264 0.23745 0.0
H2750 H 0.426 0.27847 0.23807 0.0
H2751 H 0.40465 0.27059 0.24474 0.0
C2752 C 0.54741 0.39046 0.02224 0.0
C2753 C 0.53491 0.39687 0.01038 0.0
C2754 C 0.54305 0.37734 0.03449 0.0
C2755 C 0.52576 0.37047 0.03493 0.0
C2756 C 0.51291 0.37733 0.02344 0.0
C2757 C 0.51764 0.39044 0.0113 0.0
C2758 C 0.55711 0.37044 0.04658 0.0
C2759 C 0.49432 0.37037 0.02354 0.0
C2760 C 0.52011 0.32406 0.05176 0.0
C2761 C 0.51429 0.32658 0.06898 0.0
C2762 C 0.52372 0.33823 0.04052 0.0
C2763 C 0.52143 0.35539 0.04663 0.0
C2764 C 0.51537 0.35805 0.06393 0.0
C2765 C 0.51188 0.34361 0.07491 0.0
C2766 C 0.5301 0.33484 0.02214 0.0
C2767 C 0.51279 0.37614 0.0709 0.0
H2768 H 0.56071 0.39557 0.0218 0.0
H2769 H 0.50795 0.3952 0.00207 0.0
H2770 H 0.5527 0.37093 0.06042 0.0
H2771 H 0.55961 0.3566 0.04355 0.0
H2772 H 0.56963 0.37788 0.04531 0.0
H2773 H 0.4856 0.37798 0.01473 0.0
H2774 H 0.49415 0.35663 0.01923 0.0
H2775 H 0.4889 0.37056 0.03703 0.0
H2776 H 0.52173 0.31094 0.04699 0.0
H2777 H 0.50757 0.34567 0.08826 0.0
H2778 H 0.54325 0.3409 0.02022 0.0
H2779 H 0.52116 0.34089 0.01241 0.0
H2780 H 0.53097 0.32073 0.01934 0.0
H2781 H 0.52546 0.38338 0.07085 0.0
H2782 H 0.5075 0.37599 0.08447 0.0
H2783 H 0.50367 0.38343 0.06227 0.0
C2784 C 0.65867 0.22699 0.21781 0.0
C2785 C 0.65976 0.23179 0.2355 0.0
C2786 C 0.64274 0.22769 0.20862 0.0
C2787 C 0.6275 0.23339 0.21729 0.0
C2788 C 0.62842 0.23798 0.23522 0.0
C2789 C 0.64453 0.23711 0.24411 0.0
C2790 C 0.64229 0.22268 0.18952 0.0
C2791 C 0.61245 0.24409 0.24492 0.0
C2792 C 0.59124 0.25219 0.18891 0.0
C2793 C 0.57938 0.23813 0.18789 0.0
C2794 C 0.60684 0.25087 0.19859 0.0
C2795 C 0.61074 0.23508 0.20742 0.0
C2796 C 0.5988 0.22087 0.20655 0.0
C2797 C 0.58326 0.22256 0.19681 0.0
C2798 C 0.61925 0.26632 0.19918 0.0
C2799 C 0.6025 0.20383 0.2158 0.0
H2800 H 0.67041 0.22311 0.21098 0.0
H2801 H 0.6452 0.24062 0.25783 0.0
H2802 H 0.63218 0.21242 0.18736 0.0
H2803 H 0.63864 0.2341 0.18133 0.0
H2804 H 0.65512 0.21784 0.1849 0.0
H2805 H 0.61523 0.24667 0.25898 0.0
H2806 H 0.60752 0.25621 0.23871 0.0
H2807 H 0.60179 0.23418 0.2441 0.0
H2808 H 0.58849 0.26417 0.18185 0.0
H2809 H 0.57406 0.21171 0.19628 0.0
H2810 H 0.63204 0.26283 0.19339 0.0
H2811 H 0.62174 0.27005 0.213 0.0
H2812 H 0.61408 0.27779 0.19195 0.0
H2813 H 0.61484 0.19831 0.21075 0.0
H2814 H 0.59177 0.1941 0.21401 0.0
H2815 H 0.60436 0.20601 0.23006 0.0
C2816 C 0.47496 0.08855 0.04003 0.0
C2817 C 0.48233 0.08749 0.02322 0.0
C2818 C 0.47561 0.10412 0.04947 0.0
C2819 C 0.48375 0.11905 0.04191 0.0
C2820 C 0.49079 0.11823 0.02476 0.0
C2821 C 0.49001 0.10246 0.01563 0.0
C2822 C 0.46791 0.10447 0.06771 0.0
C2823 C 0.49953 0.13389 0.01624 0.0
C2824 C 0.47385 0.16288 0.06212 0.0
C2825 C 0.48845 0.16544 0.07307 0.0
C2826 C 0.47225 0.14797 0.05171 0.0
C2827 C 0.48553 0.13529 0.05228 0.0
C2828 C 0.50038 0.13789 0.06315 0.0
C2829 C 0.50167 0.15293 0.07337 0.0
C2830 C 0.45623 0.14567 0.04027 0.0
C2831 C 0.51485 0.12469 0.06411 0.0
H2832 H 0.46873 0.07714 0.04587 0.0
H2833 H 0.49588 0.10172 0.00272 0.0
H2834 H 0.47838 0.10736 0.0774 0.0
H2835 H 0.45813 0.11497 0.0686 0.0
H2836 H 0.46147 0.09192 0.07145 0.0
H2837 H 0.50346 0.1314 0.00247 0.0
H2838 H 0.49059 0.14516 0.01634 0.0
H2839 H 0.51139 0.13764 0.02383 0.0
H2840 H 0.46349 0.17239 0.06194 0.0
H2841 H 0.51314 0.15494 0.08154 0.0
H2842 H 0.44878 0.13386 0.0445 0.0
H2843 H 0.46019 0.14373 0.02644 0.0
H2844 H 0.44739 0.15702 0.04082 0.0
H2845 H 0.5095 0.112 0.06887 0.0
H2846 H 0.52566 0.12879 0.07299 0.0
H2847 H 0.52033 0.12258 0.05084 0.0
C2848 C 0.26696 0.3522 0.72799 0.0
C2849 C 0.25062 0.35704 0.7212 0.0
C2850 C 0.27957 0.36483 0.73265 0.0
C2851 C 0.27569 0.38271 0.73052 0.0
C2852 C 0.25909 0.38765 0.72397 0.0
C2853 C 0.24678 0.37477 0.7194 0.0
C2854 C 0.29714 0.35907 0.73955 0.0
C2855 C 0.2544 0.40657 0.72161 0.0
C2856 C 0.30179 0.41729 0.75493 0.0
C2857 C 0.31299 0.42376 0.74173 0.0
C2858 C 0.28984 0.40367 0.75159 0.0
C2859 C 0.28908 0.39631 0.73465 0.0
C2860 C 0.30059 0.40253 0.72138 0.0
C2861 C 0.31237 0.41618 0.72507 0.0
C2862 C 0.27782 0.39736 0.7661 0.0
C2863 C 0.30017 0.39505 0.70314 0.0
H2864 H 0.27006 0.33852 0.72929 0.0
H2865 H 0.23406 0.3786 0.71444 0.0
H2866 H 0.30765 0.36354 0.73046 0.0
H2867 H 0.29983 0.36508 0.75246 0.0
H2868 H 0.29787 0.3447 0.74105 0.0
H2869 H 0.24079 0.40823 0.71674 0.0
H2870 H 0.25581 0.41346 0.73425 0.0
H2871 H 0.26353 0.41294 0.71214 0.0
H2872 H 0.30237 0.4229 0.76791 0.0
H2873 H 0.3208 0.42124 0.71472 0.0
H2874 H 0.27919 0.38312 0.76811 0.0
H2875 H 0.26399 0.39972 0.76235 0.0
H2876 H 0.28053 0.40396 0.77873 0.0
H2877 H 0.30177 0.38073 0.70379 0.0
H2878 H 0.31058 0.40071 0.69457 0.0
H2879 H 0.28726 0.39757 0.69696 0.0
C2880 C 0.26888 0.65305 0.78529 0.0
C2881 C 0.26781 0.66374 0.77028 0.0
C2882 C 0.27797 0.63728 0.78497 0.0
C2883 C 0.28627 0.6321 0.7693 0.0
C2884 C 0.28507 0.64272 0.75406 0.0
C2885 C 0.27581 0.65835 0.75472 0.0
C2886 C 0.27891 0.62626 0.80147 0.0
C2887 C 0.29372 0.63767 0.73709 0.0
C2888 C 0.32434 0.60079 0.77186 0.0
C2889 C 0.31641 0.58511 0.76664 0.0
C2890 C 0.31464 0.61612 0.77297 0.0
C2891 C 0.29653 0.61577 0.76886 0.0
C2892 C 0.2884 0.59992 0.76382 0.0
C2893 C 0.29845 0.5848 0.76271 0.0
C2894 C 0.32383 0.63279 0.77823 0.0
C2895 C 0.2691 0.59899 0.75949 0.0
H2896 H 0.2629 0.65719 0.79742 0.0
H2897 H 0.27477 0.66635 0.74296 0.0
H2898 H 0.27396 0.61291 0.79884 0.0
H2899 H 0.29275 0.62512 0.80577 0.0
H2900 H 0.2712 0.63177 0.81239 0.0
H2901 H 0.29143 0.6473 0.72637 0.0
H2902 H 0.30805 0.63645 0.73911 0.0
H2903 H 0.28868 0.62479 0.73282 0.0
H2904 H 0.33826 0.60114 0.77472 0.0
H2905 H 0.29222 0.57267 0.75887 0.0
H2906 H 0.31731 0.6384 0.78983 0.0
H2907 H 0.32296 0.64251 0.7674 0.0
H2908 H 0.33788 0.63078 0.78142 0.0
H2909 H 0.26131 0.60369 0.77072 0.0
H2910 H 0.26465 0.58556 0.75632 0.0
H2911 H 0.26624 0.60761 0.7481 0.0
C2912 C 0.89965 0.48432 0.47357 0.0
C2913 C 0.91204 0.48081 0.48671 0.0
C2914 C 0.8833 0.47566 0.47343 0.0
C2915 C 0.87925 0.46334 0.48683 0.0
C2916 C 0.89158 0.46005 0.50033 0.0
C2917 C 0.90783 0.46877 0.50006 0.0
C2918 C 0.87053 0.47942 0.45877 0.0
C2919 C 0.8877 0.44714 0.51495 0.0
C2920 C 0.83211 0.4496 0.4962 0.0
C2921 C 0.83127 0.43314 0.48846 0.0
C2922 C 0.8475 0.4598 0.4954 0.0
C2923 C 0.86236 0.45342 0.48655 0.0
C2924 C 0.86139 0.43705 0.47823 0.0
C2925 C 0.84588 0.42709 0.47934 0.0
C2926 C 0.84806 0.47713 0.50453 0.0
C2927 C 0.87688 0.42986 0.46853 0.0
H2928 H 0.9029 0.49352 0.46316 0.0
H2929 H 0.91728 0.46622 0.51039 0.0
H2930 H 0.86806 0.46743 0.45113 0.0
H2931 H 0.85778 0.48347 0.46424 0.0
H2932 H 0.87542 0.4898 0.44968 0.0
H2933 H 0.89845 0.44654 0.52478 0.0
H2934 H 0.87543 0.45066 0.52175 0.0
H2935 H 0.88567 0.43397 0.50943 0.0
H2936 H 0.8209 0.45427 0.5034 0.0
H2937 H 0.84521 0.41448 0.47312 0.0
H2938 H 0.85248 0.48754 0.49529 0.0
H2939 H 0.85768 0.47668 0.51545 0.0
H2940 H 0.8351 0.48069 0.50993 0.0
H2941 H 0.88163 0.43941 0.45853 0.0
H2942 H 0.87366 0.41742 0.46189 0.0
H2943 H 0.88783 0.42757 0.47784 0.0
C2944 C 0.75137 0.87412 0.77486 0.0
C2945 C 0.74742 0.85822 0.78327 0.0
C2946 C 0.73818 0.88606 0.77081 0.0
C2947 C 0.72059 0.88206 0.77533 0.0
C2948 C 0.71642 0.86579 0.78329 0.0
C2949 C 0.72989 0.85403 0.78712 0.0
C2950 C 0.74317 0.90319 0.76216 0.0
C2951 C 0.69783 0.86107 0.78835 0.0
C2952 C 0.69151 0.921 0.7828 0.0
C2953 C 0.6823 0.92215 0.76687 0.0
C2954 C 0.70364 0.90774 0.78586 0.0
C2955 C 0.7068 0.89537 0.77264 0.0
C2956 C 0.69737 0.89626 0.75665 0.0
C2957 C 0.6852 0.9096 0.75398 0.0
C2958 C 0.71341 0.90723 0.80312 0.0
C2959 C 0.70038 0.88332 0.74224 0.0
H2960 H 0.76487 0.8773 0.77162 0.0
H2961 H 0.72678 0.84182 0.79375 0.0
H2962 H 0.73521 0.90528 0.75014 0.0
H2963 H 0.74036 0.91403 0.77119 0.0
H2964 H 0.75726 0.90387 0.75855 0.0
H2965 H 0.69657 0.84744 0.79324 0.0
H2966 H 0.69333 0.86992 0.79879 0.0
H2967 H 0.68894 0.86281 0.77695 0.0
H2968 H 0.6896 0.93076 0.79274 0.0
H2969 H 0.67797 0.91022 0.74174 0.0
H2970 H 0.72761 0.90945 0.80077 0.0
H2971 H 0.71188 0.89422 0.80942 0.0
H2972 H 0.70877 0.91722 0.81239 0.0
H2973 H 0.71412 0.88441 0.7376 0.0
H2974 H 0.69149 0.88537 0.73087 0.0
H2975 H 0.6984 0.86986 0.74734 0.0
C2976 C 0.62471 0.49957 0.97081 0.0
C2977 C 0.60673 0.50234 0.97303 0.0
C2978 C 0.63714 0.51238 0.97523 0.0
C2979 C 0.63148 0.52839 0.98211 0.0
C2980 C 0.61338 0.53114 0.9848 0.0
C2981 C 0.6012 0.51807 0.98023 0.0
C2982 C 0.65633 0.5089 0.97224 0.0
C2983 C 0.60686 0.54803 0.99212 0.0
C2984 C 0.66645 0.55557 0.005 0.0
C2985 C 0.67178 0.567 0.99147 0.0
C2986 C 0.65292 0.54331 0.00234 0.0
C2987 C 0.64456 0.54242 0.98577 0.0
C2988 C 0.6495 0.55428 0.97226 0.0
C2989 C 0.66302 0.56643 0.97528 0.0
C2990 C 0.648 0.5309 0.01708 0.0
C2991 C 0.64087 0.55381 0.95441 0.0
H2992 H 0.62909 0.48732 0.96555 0.0
H2993 H 0.58732 0.52034 0.98187 0.0
H2994 H 0.66174 0.51841 0.96255 0.0
H2995 H 0.66378 0.51061 0.98464 0.0
H2996 H 0.6586 0.49556 0.96734 0.0
H2997 H 0.59248 0.54777 0.99432 0.0
H2998 H 0.61352 0.5509 0.00473 0.0
H2999 H 0.61009 0.55889 0.98291 0.0
H3000 H 0.67324 0.55583 0.01749 0.0
H3001 H 0.66685 0.57542 0.96488 0.0
H3002 H 0.65149 0.51745 0.01345 0.0
H3003 H 0.63364 0.53102 0.01931 0.0
H3004 H 0.65475 0.53418 0.02957 0.0
H3005 H 0.64364 0.54123 0.94803 0.0
H3006 H 0.64554 0.56454 0.94565 0.0
H3007 H 0.62644 0.5547 0.95577 0.0
C3008 C 0.24664 0.63975 0.23702 0.0
C3009 C 0.2443 0.65059 0.22228 0.0
C3010 C 0.23415 0.62689 0.24151 0.0
C3011 C 0.21891 0.62488 0.23106 0.0
C3012 C 0.21613 0.63625 0.21659 0.0
C3013 C 0.22889 0.64893 0.21235 0.0
C3014 C 0.23763 0.61497 0.25697 0.0
C3015 C 0.19997 0.63464 0.20524 0.0
C3016 C 0.1974 0.58012 0.22933 0.0
C3017 C 0.18314 0.58189 0.24075 0.0
C3018 C 0.20913 0.59398 0.22615 0.0
C3019 C 0.20652 0.61011 0.23448 0.0
C3020 C 0.19214 0.61205 0.24597 0.0
C3021 C 0.18064 0.59791 0.249 0.0
C3022 C 0.22432 0.59137 0.21381 0.0
C3023 C 0.18891 0.62906 0.25506 0.0
H3024 H 0.25861 0.64084 0.24463 0.0
H3025 H 0.22692 0.65743 0.20108 0.0
H3026 H 0.22619 0.6146 0.26593 0.0
H3027 H 0.23961 0.60152 0.25228 0.0
H3028 H 0.24941 0.61907 0.26453 0.0
H3029 H 0.19914 0.64531 0.19532 0.0
H3030 H 0.20006 0.62204 0.19829 0.0
H3031 H 0.18801 0.63475 0.21348 0.0
H3032 H 0.19927 0.56791 0.22265 0.0
H3033 H 0.16979 0.59934 0.258 0.0
H3034 H 0.23687 0.59408 0.22069 0.0
H3035 H 0.22348 0.60066 0.2026 0.0
H3036 H 0.22465 0.57795 0.20859 0.0
H3037 H 0.20035 0.63254 0.26337 0.0
H3038 H 0.17702 0.62852 0.26344 0.0
H3039 H 0.1874 0.63966 0.24518 0.0
C3040 C 0.89832 0.51833 0.00815 0.0
C3041 C 0.91012 0.52098 0.02202 0.0
C3042 C 0.88278 0.52785 0.00689 0.0
C3043 C 0.87891 0.54025 0.01989 0.0
C3044 C 0.89057 0.54269 0.03415 0.0
C3045 C 0.90607 0.53307 0.03501 0.0
C3046 C 0.87073 0.52496 0.99143 0.0
C3047 C 0.88683 0.55566 0.04834 0.0
C3048 C 0.84883 0.57753 0.00779 0.0
C3049 C 0.83284 0.57187 0.01502 0.0
C3050 C 0.8639 0.56733 0.00924 0.0
C3051 C 0.86298 0.55112 0.01823 0.0
C3052 C 0.84688 0.54535 0.02561 0.0
C3053 C 0.83198 0.55576 0.02386 0.0
C3054 C 0.88078 0.57387 0.00106 0.0
C3055 C 0.84542 0.52821 0.03541 0.0
H3056 H 0.90148 0.50915 0.99797 0.0
H3057 H 0.91505 0.53501 0.04587 0.0
H3058 H 0.85732 0.52162 0.99606 0.0
H3059 H 0.86982 0.53713 0.98352 0.0
H3060 H 0.87531 0.5144 0.9828 0.0
H3061 H 0.89684 0.55546 0.05894 0.0
H3062 H 0.88644 0.56898 0.0426 0.0
H3063 H 0.87378 0.55291 0.05423 0.0
H3064 H 0.84951 0.58985 0.00075 0.0
H3065 H 0.81969 0.55142 0.02963 0.0
H3066 H 0.88545 0.5644 0.99129 0.0
H3067 H 0.89109 0.57508 0.01127 0.0
H3068 H 0.87927 0.58672 0.99443 0.0
H3069 H 0.84915 0.51741 0.02669 0.0
H3070 H 0.83197 0.52562 0.04041 0.0
H3071 H 0.85466 0.52812 0.04667 0.0
C3072 C 0.10612 0.99051 0.01505 0.0
C3073 C 0.10063 0.99242 0.03247 0.0
C3074 C 0.11899 0.9784 0.01068 0.0
C3075 C 0.12667 0.9681 0.02409 0.0
C3076 C 0.12083 0.96964 0.04162 0.0
C3077 C 0.10785 0.98174 0.04559 0.0
C3078 C 0.12473 0.97698 0.99181 0.0
C3079 C 0.12878 0.959 0.05632 0.0
C3080 C 0.15288 0.92787 0.01318 0.0
C3081 C 0.17017 0.93426 0.01424 0.0
C3082 C 0.13856 0.9388 0.01596 0.0
C3083 C 0.14158 0.95651 0.02005 0.0
C3084 C 0.15896 0.9631 0.02089 0.0
C3085 C 0.17301 0.95194 0.01789 0.0
C3086 C 0.1202 0.93133 0.01485 0.0
C3087 C 0.16275 0.9819 0.02524 0.0
H3088 H 0.10045 0.99862 0.00484 0.0
H3089 H 0.10385 0.98332 0.05911 0.0
H3090 H 0.13857 0.98138 0.99052 0.0
H3091 H 0.12405 0.96322 0.98759 0.0
H3092 H 0.11657 0.98494 0.98278 0.0
H3093 H 0.12208 0.96101 0.06906 0.0
H3094 H 0.12812 0.94495 0.05317 0.0
H3095 H 0.14282 0.9626 0.05784 0.0
H3096 H 0.15054 0.91421 0.01054 0.0
H3097 H 0.18628 0.9571 0.01837 0.0
H3098 H 0.11224 0.93912 0.00552 0.0
H3099 H 0.11378 0.93201 0.02787 0.0
H3100 H 0.12003 0.91756 0.01055 0.0
H3101 H 0.15611 0.99059 0.01567 0.0
H3102 H 0.177 0.98504 0.02513 0.0
H3103 H 0.15748 0.98486 0.03842 0.0
loop_
_geom_bond_atom_site_label_1
_geom_bond_atom_site_label_2
_geom_bond_distance
_geom_bond_site_symmetry_2
_ccdc_geom_bond_type
P0 O11 1.490 . S
P0 C14 1.812 . S
P0 C20 1.803 . S
P0 C26 1.819 . S
H1 C15 0.941 . S
H2 C16 0.939 . S
H3 C18 0.940 1_655 S
H4 C19 0.940 . S
H5 C21 0.939 . S
H6 C22 0.942 . S
H7 C24 0.996 . S
H8 C25 0.939 . S
H9 C27 0.941 . S
H10 C31 0.939 . S
O11 P0 1.490 . S
H12 C28 0.939 . S
H13 C30 0.940 1_556 S
C14 P0 1.812 . S
C14 C15 1.389 . S
C14 C19 1.391 . S
C15 H1 0.941 . S
C15 C14 1.389 . S
C15 C16 1.397 . S
C16 H2 0.939 . S
C16 C15 1.397 . S
C16 C17 1.378 . S
C17 C16 1.378 . S
C17 C18 1.378 . S
C18 H3 0.940 1_455 S
C18 C17 1.378 . S
C18 C19 1.396 . S
C19 H4 0.940 . S
C19 C14 1.391 . S
C19 C18 1.396 . S
C20 P0 1.803 . S
C20 C21 1.378 . S
C20 C25 1.400 . S
C21 H5 0.939 . S
C21 C20 1.378 . S
C21 C22 1.361 . S
C22 H6 0.942 . S
C22 C21 1.361 . S
C22 C23 1.389 . S
C23 C22 1.389 . S
C23 C24 1.401 1_545 S
C24 H7 0.996 . S
C24 C23 1.401 1_565 S
C24 C25 1.338 1_565 S
C25 H8 0.939 . S
C25 C20 1.400 . S
C25 C24 1.338 1_545 S
C26 P0 1.819 . S
C26 C27 1.391 . S
C26 C31 1.391 . S
C27 H9 0.941 . S
C27 C26 1.391 . S
C27 C28 1.396 . S
C28 H12 0.939 . S
C28 C27 1.396 . S
C28 C29 1.397 . S
C29 C28 1.397 . S
C29 C30 1.385 . S
C30 H13 0.940 1_554 S
C30 C29 1.385 . S
C30 C31 1.388 . S
C31 H10 0.939 . S
C31 C26 1.391 . S
C31 C30 1.388 . S
P32 O43 1.490 . S
P32 C46 1.812 . S
P32 C52 1.803 . S
P32 C58 1.819 . S
H33 C47 0.941 . S
H34 C48 0.939 . S
H35 C50 0.940 . S
H36 C51 0.940 . S
H37 C53 0.939 . S
H38 C54 0.942 . S
H39 C56 0.940 . S
H40 C57 0.939 . S
H41 C59 0.941 . S
H42 C63 0.939 . S
O43 P32 1.490 . S
H44 C60 0.939 . S
H45 C62 0.940 . S
C46 P32 1.812 . S
C46 C47 1.389 . S
C46 C51 1.391 . S
C47 H33 0.941 . S
C47 C46 1.389 . S
C47 C48 1.397 . S
C48 H34 0.939 . S
C48 C47 1.397 . S
C48 C49 1.378 . S
C49 C48 1.378 . S
C49 C50 1.378 . S
C50 H35 0.940 . S
C50 C49 1.378 . S
C50 C51 1.396 . S
C51 H36 0.940 . S
C51 C46 1.391 . S
C51 C50 1.396 . S
C52 P32 1.803 . S
C52 C53 1.378 . S
C52 C57 1.400 . S
C53 H37 0.939 . S
C53 C52 1.378 . S
C53 C54 1.361 . S
C54 H38 0.942 . S
C54 C53 1.361 . S
C54 C55 1.369 . S
C55 C54 1.369 . S
C55 C56 1.404 . S
C56 H39 0.940 . S
C56 C55 1.404 . S
C56 C57 1.389 . S
C57 H40 0.939 . S
C57 C52 1.400 . S
C57 C56 1.389 . S
C58 P32 1.819 . S
C58 C59 1.391 . S
C58 C63 1.391 . S
C59 H41 0.941 . S
C59 C58 1.391 . S
C59 C60 1.396 . S
C60 H44 0.939 . S
C60 C59 1.396 . S
C60 C61 1.397 . S
C61 C60 1.397 . S
C61 C62 1.385 . S
C62 H45 0.940 . S
C62 C61 1.385 . S
C62 C63 1.388 . S
C63 H42 0.939 . S
C63 C58 1.391 . S
C63 C62 1.388 . S
P64 O75 1.490 . S
P64 C78 1.812 . S
P64 C84 1.803 . S
P64 C90 1.819 . S
H65 C79 0.941 . S
H66 C80 0.939 . S
H67 C82 0.940 . S
H68 C83 0.940 . S
H69 C85 0.939 . S
H70 C86 0.942 . S
H71 C88 0.940 . S
H72 C89 0.939 . S
H73 C91 0.941 . S
H74 C95 0.939 . S
O75 P64 1.490 . S
H76 C92 0.939 . S
H77 C94 0.940 . S
C78 P64 1.812 . S
C78 C79 1.389 1_554 S
C78 C83 1.391 . S
C79 H65 0.941 . S
C79 C78 1.389 1_556 S
C79 C80 1.397 . S
C80 H66 0.939 . S
C80 C79 1.397 . S
C80 C81 1.378 . S
C81 C80 1.378 . S
C81 C82 1.378 1_556 S
C82 H67 0.940 . S
C82 C81 1.378 1_554 S
C82 C83 1.396 . S
C83 H68 0.940 . S
C83 C78 1.391 . S
C83 C82 1.396 . S
C84 P64 1.803 . S
C84 C85 1.378 . S
C84 C89 1.400 . S
C85 H69 0.939 . S
C85 C84 1.378 . S
C85 C86 1.361 . S
C86 H70 0.942 . S
C86 C85 1.361 . S
C86 C87 1.369 . S
C87 C86 1.369 . S
C87 C88 1.404 . S
C88 H71 0.940 . S
C88 C87 1.404 . S
C88 C89 1.389 . S
C89 H72 0.939 . S
C89 C84 1.400 . S
C89 C88 1.389 . S
C90 P64 1.819 . S
C90 C91 1.391 1_655 S
C90 C95 1.391 . S
C91 H73 0.941 . S
C91 C90 1.391 1_455 S
C91 C92 1.396 . S
C92 H76 0.939 . S
C92 C91 1.396 . S
C92 C93 1.397 . S
C93 C92 1.397 . S
C93 C94 1.385 1_455 S
C94 H77 0.940 . S
C94 C93 1.385 1_655 S
C94 C95 1.388 . S
C95 H74 0.939 . S
C95 C90 1.391 . S
C95 C94 1.388 . S
P96 O107 1.490 . S
P96 C110 1.812 . S
P96 C116 1.803 . S
P96 C122 1.819 . S
H97 C111 0.941 . S
H98 C112 0.939 . S
H99 C114 0.940 . S
H100 C115 0.940 . S
H101 C117 0.939 . S
H102 C118 0.942 . S
H103 C120 0.940 . S
H104 C121 0.939 . S
H105 C123 0.941 . S
H106 C127 0.939 . S
O107 P96 1.490 . S
H108 C124 0.939 . S
H109 C126 0.940 . S
C110 P96 1.812 . S
C110 C111 1.389 . S
C110 C115 1.391 . S
C111 H97 0.941 . S
C111 C110 1.389 . S
C111 C112 1.397 . S
C112 H98 0.939 . S
C112 C111 1.397 . S
C112 C113 1.378 . S
C113 C112 1.378 . S
C113 C114 1.378 . S
C114 H99 0.940 . S
C114 C113 1.378 . S
C114 C115 1.396 . S
C115 H100 0.940 . S
C115 C110 1.391 . S
C115 C114 1.396 . S
C116 P96 1.803 . S
C116 C117 1.378 . S
C116 C121 1.400 . S
C117 H101 0.939 . S
C117 C116 1.378 . S
C117 C118 1.361 . S
C118 H102 0.942 . S
C118 C117 1.361 . S
C118 C119 1.369 . S
C119 C118 1.369 . S
C119 C120 1.404 . S
C120 H103 0.940 . S
C120 C119 1.404 . S
C120 C121 1.389 . S
C121 H104 0.939 . S
C121 C116 1.400 . S
C121 C120 1.389 . S
C122 P96 1.819 . S
C122 C123 1.391 . S
C122 C127 1.391 . S
C123 H105 0.941 . S
C123 C122 1.391 . S
C123 C124 1.396 . S
C124 H108 0.939 . S
C124 C123 1.396 . S
C124 C125 1.397 . S
C125 C124 1.397 . S
C125 C126 1.385 . S
C126 H109 0.940 . S
C126 C125 1.385 . S
C126 C127 1.388 . S
C127 H106 0.939 . S
C127 C122 1.391 . S
C127 C126 1.388 . S
P128 O139 1.490 . S
P128 C142 1.812 . S
P128 C148 1.803 . S
P128 C154 1.819 . S
H129 C143 0.941 . S
H130 C144 0.939 . S
H131 C146 0.940 . S
H132 C147 0.940 . S
H133 C149 0.939 . S
H134 C150 0.942 . S
H135 C152 0.940 . S
H136 C153 0.939 . S
H137 C155 0.941 . S
H138 C159 0.939 . S
O139 P128 1.490 . S
H140 C156 0.939 . S
H141 C158 0.940 . S
C142 P128 1.812 . S
C142 C143 1.389 . S
C142 C147 1.391 . S
C143 H129 0.941 . S
C143 C142 1.389 . S
C143 C144 1.397 . S
C144 H130 0.939 . S
C144 C143 1.397 . S
C144 C145 1.378 1_565 S
C145 C144 1.378 1_545 S
C145 C146 1.378 . S
C146 H131 0.940 . S
C146 C145 1.378 . S
C146 C147 1.396 1_545 S
C147 H132 0.940 . S
C147 C142 1.391 . S
C147 C146 1.396 1_565 S
C148 P128 1.803 . S
C148 C149 1.378 . S
C148 C153 1.400 . S
C149 H133 0.939 . S
C149 C148 1.378 . S
C149 C150 1.361 . S
C150 H134 0.942 . S
C150 C149 1.361 . S
C150 C151 1.369 . S
C151 C150 1.369 . S
C151 C152 1.404 . S
C152 H135 0.940 . S
C152 C151 1.404 . S
C152 C153 1.389 . S
C153 H136 0.939 . S
C153 C148 1.400 . S
C153 C152 1.389 . S
C154 P128 1.819 . S
C154 C155 1.391 . S
C154 C159 1.391 . S
C155 H137 0.941 . S
C155 C154 1.391 . S
C155 C156 1.396 . S
C156 H140 0.939 . S
C156 C155 1.396 . S
C156 C157 1.397 . S
C157 C156 1.397 . S
C157 C158 1.385 1_455 S
C158 H141 0.940 . S
C158 C157 1.385 1_655 S
C158 C159 1.388 1_655 S
C159 H138 0.939 . S
C159 C154 1.391 . S
C159 C158 1.388 1_455 S
P160 O171 1.490 . S
P160 C174 1.812 . S
P160 C180 1.803 . S
P160 C186 1.819 . S
H161 C175 0.941 . S
H162 C176 0.939 . S
H163 C178 0.940 . S
H164 C179 0.940 . S
H165 C181 0.939 . S
H166 C182 0.942 . S
H167 C184 0.940 . S
H168 C185 0.939 . S
H169 C187 0.941 . S
H170 C191 0.939 . S
O171 P160 1.490 . S
H172 C188 0.939 . S
H173 C190 0.940 . S
C174 P160 1.812 . S
C174 C175 1.389 . S
C174 C179 1.391 . S
C175 H161 0.941 . S
C175 C174 1.389 . S
C175 C176 1.397 . S
C176 H162 0.939 . S
C176 C175 1.397 . S
C176 C177 1.378 . S
C177 C176 1.378 . S
C177 C178 1.378 . S
C178 H163 0.940 . S
C178 C177 1.378 . S
C178 C179 1.396 . S
C179 H164 0.940 . S
C179 C174 1.391 . S
C179 C178 1.396 . S
C180 P160 1.803 . S
C180 C181 1.378 . S
C180 C185 1.400 . S
C181 H165 0.939 . S
C181 C180 1.378 . S
C181 C182 1.361 . S
C182 H166 0.942 . S
C182 C181 1.361 . S
C182 C183 1.369 . S
C183 C182 1.369 . S
C183 C184 1.404 . S
C184 H167 0.940 . S
C184 C183 1.404 . S
C184 C185 1.389 . S
C185 H168 0.939 . S
C185 C180 1.400 . S
C185 C184 1.389 . S
C186 P160 1.819 . S
C186 C187 1.391 . S
C186 C191 1.391 . S
C187 H169 0.941 . S
C187 C186 1.391 . S
C187 C188 1.396 . S
C188 H172 0.939 . S
C188 C187 1.396 . S
C188 C189 1.397 . S
C189 C188 1.397 . S
C189 C190 1.385 . S
C190 H173 0.940 . S
C190 C189 1.385 . S
C190 C191 1.388 . S
C191 H170 0.939 . S
C191 C186 1.391 . S
C191 C190 1.388 . S
P192 O203 1.490 . S
P192 C206 1.812 . S
P192 C212 1.803 . S
P192 C218 1.819 . S
H193 C207 0.941 . S
H194 C208 0.939 . S
H195 C210 0.940 . S
H196 C211 0.940 . S
H197 C213 0.939 . S
H198 C214 0.942 . S
H199 C216 0.940 . S
H200 C217 0.939 . S
H201 C219 0.941 . S
H202 C223 0.939 . S
O203 P192 1.490 . S
H204 C220 0.939 . S
H205 C222 0.940 . S
C206 P192 1.812 . S
C206 C207 1.389 1_655 S
C206 C211 1.391 . S
C207 H193 0.941 . S
C207 C206 1.389 1_455 S
C207 C208 1.397 . S
C208 H194 0.939 . S
C208 C207 1.397 . S
C208 C209 1.378 . S
C209 C208 1.378 . S
C209 C210 1.378 1_455 S
C210 H195 0.940 . S
C210 C209 1.378 1_655 S
C210 C211 1.396 . S
C211 H196 0.940 . S
C211 C206 1.391 . S
C211 C210 1.396 . S
C212 P192 1.803 . S
C212 C213 1.378 . S
C212 C217 1.400 . S
C213 H197 0.939 . S
C213 C212 1.378 . S
C213 C214 1.361 . S
C214 H198 0.942 . S
C214 C213 1.361 . S
C214 C215 1.369 . S
C215 C214 1.369 . S
C215 C216 1.404 . S
C216 H199 0.940 . S
C216 C215 1.404 . S
C216 C217 1.389 . S
C217 H200 0.939 . S
C217 C212 1.400 . S
C217 C216 1.389 . S
C218 P192 1.819 . S
C218 C219 1.391 . S
C218 C223 1.391 . S
C219 H201 0.941 . S
C219 C218 1.391 . S
C219 C220 1.396 . S
C220 H204 0.939 . S
C220 C219 1.396 . S
C220 C221 1.397 . S
C221 C220 1.397 . S
C221 C222 1.385 . S
C222 H205 0.940 . S
C222 C221 1.385 . S
C222 C223 1.388 . S
C223 H202 0.939 . S
C223 C218 1.391 . S
C223 C222 1.388 . S
P224 O235 1.490 . S
P224 C238 1.812 . S
P224 C244 1.803 . S
P224 C250 1.819 . S
H225 C239 0.941 . S
H226 C240 0.939 . S
H227 C242 0.940 . S
H228 C243 0.940 . S
H229 C245 0.939 . S
H230 C246 0.942 . S
H231 C248 0.940 . S
H232 C249 0.939 . S
H233 C251 0.941 . S
H234 C255 0.939 . S
O235 P224 1.490 . S
H236 C252 0.939 . S
H237 C254 0.940 . S
C238 P224 1.812 . S
C238 C239 1.389 . S
C238 C243 1.391 . S
C239 H225 0.941 . S
C239 C238 1.389 . S
C239 C240 1.397 . S
C240 H226 0.939 . S
C240 C239 1.397 . S
C240 C241 1.378 . S
C241 C240 1.378 . S
C241 C242 1.378 . S
C242 H227 0.940 . S
C242 C241 1.378 . S
C242 C243 1.396 . S
C243 H228 0.940 . S
C243 C238 1.391 . S
C243 C242 1.396 . S
C244 P224 1.803 . S
C244 C245 1.378 . S
C244 C249 1.400 . S
C245 H229 0.939 . S
C245 C244 1.378 . S
C245 C246 1.361 . S
C246 H230 0.942 . S
C246 C245 1.361 . S
C246 C247 1.369 . S
C247 C246 1.369 . S
C247 C248 1.404 . S
C248 H231 0.940 . S
C248 C247 1.404 . S
C248 C249 1.389 . S
C249 H232 0.939 . S
C249 C244 1.400 . S
C249 C248 1.389 . S
C250 P224 1.819 . S
C250 C251 1.391 . S
C250 C255 1.391 . S
C251 H233 0.941 . S
C251 C250 1.391 . S
C251 C252 1.396 . S
C252 H236 0.939 . S
C252 C251 1.396 . S
C252 C253 1.397 . S
C253 C252 1.397 . S
C253 C254 1.385 . S
C254 H237 0.940 . S
C254 C253 1.385 . S
C254 C255 1.388 . S
C255 H234 0.939 . S
C255 C250 1.391 . S
C255 C254 1.388 . S
P256 O267 1.490 . S
P256 C270 1.812 . S
P256 C276 1.803 . S
P256 C282 1.819 . S
H257 C271 0.941 . S
H258 C272 0.939 . S
H259 C274 0.940 . S
H260 C275 0.940 . S
H261 C277 0.939 . S
H262 C278 0.942 . S
H263 C280 0.940 . S
H264 C281 0.939 . S
H265 C283 0.941 . S
H266 C287 0.939 . S
O267 P256 1.490 . S
H268 C284 0.939 . S
H269 C286 0.940 . S
C270 P256 1.812 . S
C270 C271 1.389 . S
C270 C275 1.391 . S
C271 H257 0.941 . S
C271 C270 1.389 . S
C271 C272 1.397 . S
C272 H258 0.939 . S
C272 C271 1.397 . S
C272 C273 1.378 . S
C273 C272 1.378 . S
C273 C274 1.378 . S
C274 H259 0.940 . S
C274 C273 1.378 . S
C274 C275 1.396 . S
C275 H260 0.940 . S
C275 C270 1.391 . S
C275 C274 1.396 . S
C276 P256 1.803 . S
C276 C277 1.378 . S
C276 C281 1.400 . S
C277 H261 0.939 . S
C277 C276 1.378 . S
C277 C278 1.361 . S
C278 H262 0.942 . S
C278 C277 1.361 . S
C278 C279 1.369 . S
C279 C278 1.369 . S
C279 C280 1.404 . S
C280 H263 0.940 . S
C280 C279 1.404 . S
C280 C281 1.389 . S
C281 H264 0.939 . S
C281 C276 1.400 . S
C281 C280 1.389 . S
C282 P256 1.819 . S
C282 C283 1.391 . S
C282 C287 1.391 . S
C283 H265 0.941 . S
C283 C282 1.391 . S
C283 C284 1.396 . S
C284 H268 0.939 . S
C284 C283 1.396 . S
C284 C285 1.397 . S
C285 C284 1.397 . S
C285 C286 1.385 . S
C286 H269 0.940 . S
C286 C285 1.385 . S
C286 C287 1.388 . S
C287 H266 0.939 . S
C287 C282 1.391 . S
C287 C286 1.388 . S
P288 O299 1.490 . S
P288 C302 1.812 . S
P288 C308 1.803 . S
P288 C314 1.819 . S
H289 C303 0.941 . S
H290 C304 0.939 . S
H291 C306 0.940 . S
H292 C307 0.940 . S
H293 C309 0.939 . S
H294 C310 0.942 . S
H295 C312 0.940 . S
H296 C313 0.939 . S
H297 C315 0.941 . S
H298 C319 0.939 . S
O299 P288 1.490 . S
H300 C316 0.939 . S
H301 C318 0.940 . S
C302 P288 1.812 . S
C302 C303 1.389 . S
C302 C307 1.391 . S
C303 H289 0.941 . S
C303 C302 1.389 . S
C303 C304 1.397 . S
C304 H290 0.939 . S
C304 C303 1.397 . S
C304 C305 1.378 . S
C305 C304 1.378 . S
C305 C306 1.378 . S
C306 H291 0.940 . S
C306 C305 1.378 . S
C306 C307 1.396 . S
C307 H292 0.940 . S
C307 C302 1.391 . S
C307 C306 1.396 . S
C308 P288 1.803 . S
C308 C309 1.378 1_565 S
C308 C313 1.400 . S
C309 H293 0.939 . S
C309 C308 1.378 1_545 S
C309 C310 1.361 . S
C310 H294 0.942 . S
C310 C309 1.361 . S
C310 C311 1.369 . S
C311 C310 1.369 . S
C311 C312 1.404 1_545 S
C312 H295 0.940 . S
C312 C311 1.404 1_565 S
C312 C313 1.389 . S
C313 H296 0.939 . S
C313 C308 1.400 . S
C313 C312 1.389 . S
C314 P288 1.819 . S
C314 C315 1.391 . S
C314 C319 1.391 . S
C315 H297 0.941 . S
C315 C314 1.391 . S
C315 C316 1.396 . S
C316 H300 0.939 . S
C316 C315 1.396 . S
C316 C317 1.397 . S
C317 C316 1.397 . S
C317 C318 1.385 . S
C318 H301 0.940 . S
C318 C317 1.385 . S
C318 C319 1.388 . S
C319 H298 0.939 . S
C319 C314 1.391 . S
C319 C318 1.388 . S
P320 O331 1.490 . S
P320 C334 1.812 . S
P320 C340 1.803 . S
P320 C346 1.819 . S
H321 C335 0.941 . S
H322 C336 0.939 . S
H323 C338 0.940 . S
H324 C339 0.940 . S
H325 C341 0.939 . S
H326 C342 0.942 . S
H327 C344 0.940 . S
H328 C345 0.939 . S
H329 C347 0.941 . S
H330 C351 0.939 . S
O331 P320 1.490 . S
H332 C348 0.939 . S
H333 C350 0.940 . S
C334 P320 1.812 . S
C334 C335 1.389 . S
C334 C339 1.391 . S
C335 H321 0.941 . S
C335 C334 1.389 . S
C335 C336 1.397 . S
C336 H322 0.939 . S
C336 C335 1.397 . S
C336 C337 1.378 . S
C337 C336 1.378 . S
C337 C338 1.378 . S
C338 H323 0.940 . S
C338 C337 1.378 . S
C338 C339 1.396 . S
C339 H324 0.940 . S
C339 C334 1.391 . S
C339 C338 1.396 . S
C340 P320 1.803 . S
C340 C341 1.378 . S
C340 C345 1.400 . S
C341 H325 0.939 . S
C341 C340 1.378 . S
C341 C342 1.361 . S
C342 H326 0.942 . S
C342 C341 1.361 . S
C342 C343 1.369 . S
C343 C342 1.369 . S
C343 C344 1.404 . S
C344 H327 0.940 . S
C344 C343 1.404 . S
C344 C345 1.389 . S
C345 H328 0.939 . S
C345 C340 1.400 . S
C345 C344 1.389 . S
C346 P320 1.819 . S
C346 C347 1.391 . S
C346 C351 1.391 . S
C347 H329 0.941 . S
C347 C346 1.391 . S
C347 C348 1.396 . S
C348 H332 0.939 . S
C348 C347 1.396 . S
C348 C349 1.397 . S
C349 C348 1.397 . S
C349 C350 1.385 . S
C350 H333 0.940 . S
C350 C349 1.385 . S
C350 C351 1.388 . S
C351 H330 0.939 . S
C351 C346 1.391 . S
C351 C350 1.388 . S
P352 O363 1.490 . S
P352 C366 1.812 . S
P352 C372 1.803 . S
P352 C378 1.819 . S
H353 C367 0.941 . S
H354 C368 0.939 . S
H355 C370 0.940 . S
H356 C371 0.940 . S
H357 C373 0.939 . S
H358 C374 0.942 . S
H359 C376 0.940 . S
H360 C377 0.939 . S
H361 C379 0.941 . S
H362 C383 0.939 . S
O363 P352 1.490 . S
H364 C380 0.939 . S
H365 C382 0.940 . S
C366 P352 1.812 . S
C366 C367 1.389 . S
C366 C371 1.391 . S
C367 H353 0.941 . S
C367 C366 1.389 . S
C367 C368 1.397 . S
C368 H354 0.939 . S
C368 C367 1.397 . S
C368 C369 1.378 . S
C369 C368 1.378 . S
C369 C370 1.378 . S
C370 H355 0.940 . S
C370 C369 1.378 . S
C370 C371 1.396 . S
C371 H356 0.940 . S
C371 C366 1.391 . S
C371 C370 1.396 . S
C372 P352 1.803 . S
C372 C373 1.378 . S
C372 C377 1.400 . S
C373 H357 0.939 . S
C373 C372 1.378 . S
C373 C374 1.361 . S
C374 H358 0.942 . S
C374 C373 1.361 . S
C374 C375 1.369 . S
C375 C374 1.369 . S
C375 C376 1.404 . S
C376 H359 0.940 . S
C376 C375 1.404 . S
C376 C377 1.389 . S
C377 H360 0.939 . S
C377 C372 1.400 . S
C377 C376 1.389 . S
C378 P352 1.819 . S
C378 C379 1.391 . S
C378 C383 1.391 . S
C379 H361 0.941 . S
C379 C378 1.391 . S
C379 C380 1.396 . S
C380 H364 0.939 . S
C380 C379 1.396 . S
C380 C381 1.397 . S
C381 C380 1.397 . S
C381 C382 1.385 . S
C382 H365 0.940 . S
C382 C381 1.385 . S
C382 C383 1.388 . S
C383 H362 0.939 . S
C383 C378 1.391 . S
C383 C382 1.388 . S
P384 O395 1.490 . S
P384 C398 1.812 . S
P384 C404 1.803 . S
P384 C410 1.819 . S
H385 C399 0.941 . S
H386 C400 0.939 . S
H387 C402 0.940 . S
H388 C403 0.940 . S
H389 C405 0.939 . S
H390 C406 0.942 . S
H391 C408 0.940 . S
H392 C409 0.939 . S
H393 C411 0.941 . S
H394 C415 0.939 . S
O395 P384 1.490 . S
H396 C412 0.939 . S
H397 C414 0.940 . S
C398 P384 1.812 . S
C398 C399 1.389 . S
C398 C403 1.391 . S
C399 H385 0.941 . S
C399 C398 1.389 . S
C399 C400 1.397 . S
C400 H386 0.939 . S
C400 C399 1.397 . S
C400 C401 1.378 . S
C401 C400 1.378 . S
C401 C402 1.378 . S
C402 H387 0.940 . S
C402 C401 1.378 . S
C402 C403 1.396 . S
C403 H388 0.940 . S
C403 C398 1.391 . S
C403 C402 1.396 . S
C404 P384 1.803 . S
C404 C405 1.378 . S
C404 C409 1.400 . S
C405 H389 0.939 . S
C405 C404 1.378 . S
C405 C406 1.361 . S
C406 H390 0.942 . S
C406 C405 1.361 . S
C406 C407 1.369 . S
C407 C406 1.369 . S
C407 C408 1.404 . S
C408 H391 0.940 . S
C408 C407 1.404 . S
C408 C409 1.389 . S
C409 H392 0.939 . S
C409 C404 1.400 . S
C409 C408 1.389 . S
C410 P384 1.819 . S
C410 C411 1.391 . S
C410 C415 1.391 . S
C411 H393 0.941 . S
C411 C410 1.391 . S
C411 C412 1.396 . S
C412 H396 0.939 . S
C412 C411 1.396 . S
C412 C413 1.397 . S
C413 C412 1.397 . S
C413 C414 1.385 . S
C414 H397 0.940 . S
C414 C413 1.385 . S
C414 C415 1.388 . S
C415 H394 0.939 . S
C415 C410 1.391 . S
C415 C414 1.388 . S
P416 O427 1.490 . S
P416 C430 1.812 . S
P416 C436 1.803 . S
P416 C442 1.819 . S
H417 C431 0.941 . S
H418 C432 0.939 . S
H419 C434 0.940 . S
H420 C435 0.940 . S
H421 C437 0.939 . S
H422 C438 0.942 . S
H423 C440 0.940 . S
H424 C441 0.939 . S
H425 C443 0.941 . S
H426 C447 0.939 . S
O427 P416 1.490 . S
H428 C444 0.939 . S
H429 C446 0.940 . S
C430 P416 1.812 . S
C430 C431 1.389 . S
C430 C435 1.391 . S
C431 H417 0.941 . S
C431 C430 1.389 . S
C431 C432 1.397 . S
C432 H418 0.939 . S
C432 C431 1.397 . S
C432 C433 1.378 . S
C433 C432 1.378 . S
C433 C434 1.378 . S
C434 H419 0.940 . S
C434 C433 1.378 . S
C434 C435 1.396 . S
C435 H420 0.940 . S
C435 C430 1.391 . S
C435 C434 1.396 . S
C436 P416 1.803 . S
C436 C437 1.378 . S
C436 C441 1.400 . S
C437 H421 0.939 . S
C437 C436 1.378 . S
C437 C438 1.361 . S
C438 H422 0.942 . S
C438 C437 1.361 . S
C438 C439 1.369 1_556 S
C439 C438 1.369 1_554 S
C439 C440 1.404 . S
C440 H423 0.940 . S
C440 C439 1.404 . S
C440 C441 1.389 1_554 S
C441 H424 0.939 . S
C441 C436 1.400 . S
C441 C440 1.389 1_556 S
C442 P416 1.819 . S
C442 C443 1.391 . S
C442 C447 1.391 . S
C443 H425 0.941 . S
C443 C442 1.391 . S
C443 C444 1.396 . S
C444 H428 0.939 . S
C444 C443 1.396 . S
C444 C445 1.397 . S
C445 C444 1.397 . S
C445 C446 1.385 . S
C446 H429 0.940 . S
C446 C445 1.385 . S
C446 C447 1.388 . S
C447 H426 0.939 . S
C447 C442 1.391 . S
C447 C446 1.388 . S
P448 O459 1.490 . S
P448 C462 1.812 . S
P448 C468 1.803 . S
P448 C474 1.819 . S
H449 C463 0.941 . S
H450 C464 0.939 . S
H451 C466 0.940 . S
H452 C467 0.940 . S
H453 C469 0.939 . S
H454 C470 0.942 . S
H455 C472 0.940 . S
H456 C473 0.939 . S
H457 C475 0.941 . S
H458 C479 0.939 . S
O459 P448 1.490 . S
H460 C476 0.939 . S
H461 C478 0.940 . S
C462 P448 1.812 . S
C462 C463 1.389 . S
C462 C467 1.391 . S
C463 H449 0.941 . S
C463 C462 1.389 . S
C463 C464 1.397 . S
C464 H450 0.939 . S
C464 C463 1.397 . S
C464 C465 1.378 . S
C465 C464 1.378 . S
C465 C466 1.378 . S
C466 H451 0.940 . S
C466 C465 1.378 . S
C466 C467 1.396 . S
C467 H452 0.940 . S
C467 C462 1.391 . S
C467 C466 1.396 . S
C468 P448 1.803 . S
C468 C469 1.378 . S
C468 C473 1.400 . S
C469 H453 0.939 . S
C469 C468 1.378 . S
C469 C470 1.361 . S
C470 H454 0.942 . S
C470 C469 1.361 . S
C470 C471 1.369 . S
C471 C470 1.369 . S
C471 C472 1.404 . S
C472 H455 0.940 . S
C472 C471 1.404 . S
C472 C473 1.389 . S
C473 H456 0.939 . S
C473 C468 1.400 . S
C473 C472 1.389 . S
C474 P448 1.819 . S
C474 C475 1.391 . S
C474 C479 1.391 . S
C475 H457 0.941 . S
C475 C474 1.391 . S
C475 C476 1.396 . S
C476 H460 0.939 . S
C476 C475 1.396 . S
C476 C477 1.397 . S
C477 C476 1.397 . S
C477 C478 1.385 . S
C478 H461 0.940 . S
C478 C477 1.385 . S
C478 C479 1.388 . S
C479 H458 0.939 . S
C479 C474 1.391 . S
C479 C478 1.388 . S
P480 O491 1.490 . S
P480 C494 1.812 . S
P480 C500 1.803 . S
P480 C506 1.819 . S
H481 C495 0.941 . S
H482 C496 0.939 . S
H483 C498 0.940 . S
H484 C499 0.940 . S
H485 C501 0.939 . S
H486 C502 0.942 . S
H487 C504 0.940 . S
H488 C505 0.939 . S
H489 C507 0.941 . S
H490 C511 0.939 . S
O491 P480 1.490 . S
H492 C508 0.939 . S
H493 C510 0.940 . S
C494 P480 1.812 . S
C494 C495 1.389 . S
C494 C499 1.391 . S
C495 H481 0.941 . S
C495 C494 1.389 . S
C495 C496 1.397 . S
C496 H482 0.939 . S
C496 C495 1.397 . S
C496 C497 1.378 . S
C497 C496 1.378 . S
C497 C498 1.378 . S
C498 H483 0.940 . S
C498 C497 1.378 . S
C498 C499 1.396 . S
C499 H484 0.940 . S
C499 C494 1.391 . S
C499 C498 1.396 . S
C500 P480 1.803 . S
C500 C501 1.378 1_556 S
C500 C505 1.400 . S
C501 H485 0.939 . S
C501 C500 1.378 1_554 S
C501 C502 1.361 . S
C502 H486 0.942 . S
C502 C501 1.361 . S
C502 C503 1.369 . S
C503 C502 1.369 . S
C503 C504 1.404 1_554 S
C504 H487 0.940 . S
C504 C503 1.404 1_556 S
C504 C505 1.389 . S
C505 H488 0.939 . S
C505 C500 1.400 . S
C505 C504 1.389 . S
C506 P480 1.819 . S
C506 C507 1.391 1_545 S
C506 C511 1.391 . S
C507 H489 0.941 . S
C507 C506 1.391 1_565 S
C507 C508 1.396 . S
C508 H492 0.939 . S
C508 C507 1.396 . S
C508 C509 1.397 . S
C509 C508 1.397 . S
C509 C510 1.385 1_565 S
C510 H493 0.940 . S
C510 C509 1.385 1_545 S
C510 C511 1.388 . S
C511 H490 0.939 . S
C511 C506 1.391 . S
C511 C510 1.388 . S
Li512 N529 1.990 . S
Li512 O572 1.956 . S
Li512 O573 1.970 1_556 S
Li512 O574 1.961 . S
Li513 N537 1.990 . S
Li513 O572 1.970 1_554 S
Li513 O573 1.956 . S
Li513 O575 1.961 . S
Li514 N559 1.990 . S
Li514 O572 1.961 . S
Li514 O574 1.956 . S
Li514 O575 1.970 1_556 S
Li515 N565 1.990 . S
Li515 O573 1.961 . S
Li515 O574 1.970 1_554 S
Li515 O575 1.956 . S
C516 C518 1.348 1_556 S
C516 C519 1.356 . S
C516 O572 1.325 . S
N517 C520 1.314 1_556 S
N517 C521 1.279 . S
C518 C516 1.348 1_554 S
C518 C520 1.353 . S
C518 H576 0.929 . S
C519 C516 1.356 . S
C519 C521 1.358 . S
C519 H577 0.930 . S
C520 N517 1.314 1_554 S
C520 C518 1.353 . S
C520 H578 0.930 . S
C521 N517 1.279 . S
C521 C519 1.358 . S
C521 H579 0.930 . S
C522 C525 1.348 . S
C522 C526 1.356 . S
C522 O573 1.325 . S
C523 N524 1.279 . S
C523 C526 1.358 . S
C523 H580 0.930 . S
N524 C523 1.279 . S
N524 C527 1.314 . S
C525 C522 1.348 . S
C525 C527 1.353 . S
C525 H581 0.929 . S
C526 C522 1.356 . S
C526 C523 1.358 . S
C526 H582 0.930 . S
C527 N524 1.314 . S
C527 C525 1.353 . S
C527 H583 0.930 . S
C528 N529 1.314 . S
C528 C533 1.353 . S
C528 H534 0.930 . S
N529 Li512 1.990 . S
N529 C528 1.314 . S
N529 C531 1.279 . S
C530 C531 1.358 . S
C530 C532 1.356 . S
C530 H584 0.930 . S
C531 N529 1.279 . S
C531 C530 1.358 . S
C531 H535 0.930 . S
C532 C530 1.356 . S
C532 C533 1.348 . S
C533 C528 1.353 . S
C533 C532 1.348 . S
C533 H585 0.929 . S
H534 C528 0.930 . S
H535 C531 0.930 . S
C536 N537 1.314 . S
C536 C538 1.353 . S
C536 H542 0.930 . S
N537 Li513 1.990 . S
N537 C536 1.314 . S
N537 C540 1.279 . S
C538 C536 1.353 . S
C538 C541 1.348 . S
C538 H586 0.929 . S
C539 C540 1.358 . S
C539 C541 1.356 . S
C539 H587 0.930 . S
C540 N537 1.279 . S
C540 C539 1.358 . S
C540 H543 0.930 . S
C541 C538 1.348 . S
C541 C539 1.356 . S
H542 C536 0.930 . S
H543 C540 0.930 . S
C544 C546 1.348 . S
C544 C547 1.356 . S
C544 O574 1.325 . S
N545 C548 1.314 . S
N545 C549 1.279 . S
C546 C544 1.348 . S
C546 C548 1.353 . S
C546 H588 0.929 . S
C547 C544 1.356 . S
C547 C549 1.358 . S
C547 H589 0.930 . S
C548 N545 1.314 . S
C548 C546 1.353 . S
C548 H590 0.930 . S
C549 N545 1.279 . S
C549 C547 1.358 . S
C549 H591 0.930 . S
C550 C551 1.348 1_554 S
C550 C552 1.356 . S
C550 O575 1.325 . S
C551 C550 1.348 1_556 S
C551 C553 1.353 . S
C551 H592 0.929 . S
C552 C550 1.356 . S
C552 C554 1.358 . S
C552 H593 0.930 . S
C553 C551 1.353 . S
C553 N555 1.314 1_556 S
C553 H594 0.930 . S
C554 C552 1.358 . S
C554 N555 1.279 . S
C554 H595 0.930 . S
N555 C553 1.314 1_554 S
N555 C554 1.279 . S
C556 C558 1.353 . S
C556 N559 1.314 . S
C556 H562 0.930 . S
C557 N559 1.279 . S
C557 C560 1.358 . S
C557 H563 0.930 . S
C558 C556 1.353 . S
C558 C561 1.348 . S
C558 H596 0.929 . S
N559 Li514 1.990 . S
N559 C556 1.314 . S
N559 C557 1.279 . S
C560 C557 1.358 . S
C560 C561 1.356 . S
C560 H597 0.930 . S
C561 C558 1.348 . S
C561 C560 1.356 . S
H562 C556 0.930 . S
H563 C557 0.930 . S
C564 N565 1.314 . S
C564 C566 1.353 . S
C564 H570 0.930 . S
N565 Li515 1.990 . S
N565 C564 1.314 . S
N565 C568 1.279 . S
C566 C564 1.353 . S
C566 C569 1.348 . S
C566 H598 0.929 . S
C567 C568 1.358 . S
C567 C569 1.356 . S
C567 H599 0.930 . S
C568 N565 1.279 . S
C568 C567 1.358 . S
C568 H571 0.930 . S
C569 C566 1.348 . S
C569 C567 1.356 . S
H570 C564 0.930 . S
H571 C568 0.930 . S
O572 Li512 1.956 . S
O572 Li513 1.970 1_556 S
O572 Li514 1.961 . S
O572 C516 1.325 . S
O573 Li512 1.970 1_554 S
O573 Li513 1.956 . S
O573 Li515 1.961 . S
O573 C522 1.325 . S
O574 Li512 1.961 . S
O574 Li514 1.956 . S
O574 Li515 1.970 1_556 S
O574 C544 1.325 . S
O575 Li513 1.961 . S
O575 Li514 1.970 1_554 S
O575 Li515 1.956 . S
O575 C550 1.325 . S
H576 C518 0.929 . S
H577 C519 0.930 . S
H578 C520 0.930 . S
H579 C521 0.930 . S
H580 C523 0.930 . S
H581 C525 0.929 . S
H582 C526 0.930 . S
H583 C527 0.930 . S
H584 C530 0.930 . S
H585 C533 0.929 . S
H586 C538 0.929 . S
H587 C539 0.930 . S
H588 C546 0.929 . S
H589 C547 0.930 . S
H590 C548 0.930 . S
H591 C549 0.930 . S
H592 C551 0.929 . S
H593 C552 0.930 . S
H594 C553 0.930 . S
H595 C554 0.930 . S
H596 C558 0.929 . S
H597 C560 0.930 . S
H598 C566 0.929 . S
H599 C567 0.930 . S
Li600 N617 1.990 . S
Li600 O660 1.956 . S
Li600 O661 1.970 . S
Li600 O662 1.961 . S
Li601 N625 1.990 . S
Li601 O660 1.970 . S
Li601 O661 1.956 . S
Li601 O663 1.961 . S
Li602 N647 1.990 . S
Li602 O660 1.961 . S
Li602 O662 1.956 . S
Li602 O663 1.970 . S
Li603 N653 1.990 . S
Li603 O661 1.961 . S
Li603 O662 1.970 . S
Li603 O663 1.956 . S
C604 C606 1.348 . S
C604 C607 1.356 . S
C604 O660 1.325 . S
N605 C608 1.314 . S
N605 C609 1.279 . S
C606 C604 1.348 . S
C606 C608 1.353 . S
C606 H664 0.929 . S
C607 C604 1.356 . S
C607 C609 1.358 . S
C607 H665 0.930 . S
C608 N605 1.314 . S
C608 C606 1.353 . S
C608 H666 0.930 . S
C609 N605 1.279 . S
C609 C607 1.358 . S
C609 H667 0.930 . S
C610 C613 1.348 . S
C610 C614 1.356 . S
C610 O661 1.325 . S
C611 N612 1.279 . S
C611 C614 1.358 . S
C611 H668 0.930 . S
N612 C611 1.279 . S
N612 C615 1.314 . S
C613 C610 1.348 . S
C613 C615 1.353 . S
C613 H669 0.929 . S
C614 C610 1.356 . S
C614 C611 1.358 . S
C614 H670 0.930 . S
C615 N612 1.314 . S
C615 C613 1.353 . S
C615 H671 0.930 . S
C616 N617 1.314 . S
C616 C621 1.353 . S
C616 H622 0.930 . S
N617 Li600 1.990 . S
N617 C616 1.314 . S
N617 C619 1.279 . S
C618 C619 1.358 . S
C618 C620 1.356 . S
C618 H672 0.930 . S
C619 N617 1.279 . S
C619 C618 1.358 . S
C619 H623 0.930 . S
C620 C618 1.356 . S
C620 C621 1.348 . S
C621 C616 1.353 . S
C621 C620 1.348 . S
C621 H673 0.929 . S
H622 C616 0.930 . S
H623 C619 0.930 . S
C624 N625 1.314 . S
C624 C626 1.353 . S
C624 H630 0.930 . S
N625 Li601 1.990 . S
N625 C624 1.314 . S
N625 C628 1.279 . S
C626 C624 1.353 . S
C626 C629 1.348 . S
C626 H674 0.929 . S
C627 C628 1.358 . S
C627 C629 1.356 . S
C627 H675 0.930 . S
C628 N625 1.279 . S
C628 C627 1.358 . S
C628 H631 0.930 . S
C629 C626 1.348 . S
C629 C627 1.356 . S
H630 C624 0.930 . S
H631 C628 0.930 . S
C632 C634 1.348 . S
C632 C635 1.356 . S
C632 O662 1.325 . S
N633 C636 1.314 . S
N633 C637 1.279 . S
C634 C632 1.348 . S
C634 C636 1.353 . S
C634 H676 0.929 . S
C635 C632 1.356 . S
C635 C637 1.358 . S
C635 H677 0.930 . S
C636 N633 1.314 . S
C636 C634 1.353 . S
C636 H678 0.930 . S
C637 N633 1.279 . S
C637 C635 1.358 . S
C637 H679 0.930 . S
C638 C639 1.348 . S
C638 C640 1.356 . S
C638 O663 1.325 . S
C639 C638 1.348 . S
C639 C641 1.353 . S
C639 H680 0.929 . S
C640 C638 1.356 . S
C640 C642 1.358 . S
C640 H681 0.930 . S
C641 C639 1.353 . S
C641 N643 1.314 . S
C641 H682 0.930 . S
C642 C640 1.358 . S
C642 N643 1.279 . S
C642 H683 0.930 . S
N643 C641 1.314 . S
N643 C642 1.279 . S
C644 C646 1.353 . S
C644 N647 1.314 . S
C644 H650 0.930 . S
C645 N647 1.279 . S
C645 C648 1.358 . S
C645 H651 0.930 . S
C646 C644 1.353 . S
C646 C649 1.348 . S
C646 H684 0.929 . S
N647 Li602 1.990 . S
N647 C644 1.314 . S
N647 C645 1.279 . S
C648 C645 1.358 . S
C648 C649 1.356 . S
C648 H685 0.930 . S
C649 C646 1.348 . S
C649 C648 1.356 . S
H650 C644 0.930 . S
H651 C645 0.930 . S
C652 N653 1.314 . S
C652 C654 1.353 . S
C652 H658 0.930 . S
N653 Li603 1.990 . S
N653 C652 1.314 . S
N653 C656 1.279 . S
C654 C652 1.353 . S
C654 C657 1.348 . S
C654 H686 0.929 . S
C655 C656 1.358 . S
C655 C657 1.356 . S
C655 H687 0.930 . S
C656 N653 1.279 . S
C656 C655 1.358 . S
C656 H659 0.930 . S
C657 C654 1.348 . S
C657 C655 1.356 . S
H658 C652 0.930 . S
H659 C656 0.930 . S
O660 Li600 1.956 . S
O660 Li601 1.970 . S
O660 Li602 1.961 . S
O660 C604 1.325 . S
O661 Li600 1.970 . S
O661 Li601 1.956 . S
O661 Li603 1.961 . S
O661 C610 1.325 . S
O662 Li600 1.961 . S
O662 Li602 1.956 . S
O662 Li603 1.970 . S
O662 C632 1.325 . S
O663 Li601 1.961 . S
O663 Li602 1.970 . S
O663 Li603 1.956 . S
O663 C638 1.325 . S
H664 C606 0.929 . S
H665 C607 0.930 . S
H666 C608 0.930 . S
H667 C609 0.930 . S
H668 C611 0.930 . S
H669 C613 0.929 . S
H670 C614 0.930 . S
H671 C615 0.930 . S
H672 C618 0.930 . S
H673 C621 0.929 . S
H674 C626 0.929 . S
H675 C627 0.930 . S
H676 C634 0.929 . S
H677 C635 0.930 . S
H678 C636 0.930 . S
H679 C637 0.930 . S
H680 C639 0.929 . S
H681 C640 0.930 . S
H682 C641 0.930 . S
H683 C642 0.930 . S
H684 C646 0.929 . S
H685 C648 0.930 . S
H686 C654 0.929 . S
H687 C655 0.930 . S
Li688 N705 1.990 . S
Li688 O748 1.956 . S
Li688 O749 1.970 1_556 S
Li688 O750 1.961 . S
Li689 N713 1.990 . S
Li689 O748 1.970 1_554 S
Li689 O749 1.956 . S
Li689 O751 1.961 . S
Li690 N735 1.990 . S
Li690 O748 1.961 . S
Li690 O750 1.956 . S
Li690 O751 1.970 1_556 S
Li691 N741 1.990 . S
Li691 O749 1.961 . S
Li691 O750 1.970 1_554 S
Li691 O751 1.956 . S
C692 C694 1.348 1_556 S
C692 C695 1.356 . S
C692 O748 1.325 . S
N693 C696 1.314 1_556 S
N693 C697 1.279 . S
C694 C692 1.348 1_554 S
C694 C696 1.353 . S
C694 H752 0.929 . S
C695 C692 1.356 . S
C695 C697 1.358 . S
C695 H753 0.930 . S
C696 N693 1.314 1_554 S
C696 C694 1.353 . S
C696 H754 0.930 . S
C697 N693 1.279 . S
C697 C695 1.358 . S
C697 H755 0.930 . S
C698 C701 1.348 . S
C698 C702 1.356 . S
C698 O749 1.325 . S
C699 N700 1.279 . S
C699 C702 1.358 . S
C699 H756 0.930 . S
N700 C699 1.279 . S
N700 C703 1.314 . S
C701 C698 1.348 . S
C701 C703 1.353 . S
C701 H757 0.929 . S
C702 C698 1.356 . S
C702 C699 1.358 . S
C702 H758 0.930 . S
C703 N700 1.314 . S
C703 C701 1.353 . S
C703 H759 0.930 . S
C704 N705 1.314 . S
C704 C709 1.353 . S
C704 H710 0.930 . S
N705 Li688 1.990 . S
N705 C704 1.314 . S
N705 C707 1.279 . S
C706 C707 1.358 . S
C706 C708 1.356 . S
C706 H760 0.930 . S
C707 N705 1.279 . S
C707 C706 1.358 . S
C707 H711 0.930 . S
C708 C706 1.356 . S
C708 C709 1.348 . S
C709 C704 1.353 . S
C709 C708 1.348 . S
C709 H761 0.929 . S
H710 C704 0.930 . S
H711 C707 0.930 . S
C712 N713 1.314 . S
C712 C714 1.353 . S
C712 H718 0.930 . S
N713 Li689 1.990 . S
N713 C712 1.314 . S
N713 C716 1.279 . S
C714 C712 1.353 . S
C714 C717 1.348 . S
C714 H762 0.929 . S
C715 C716 1.358 . S
C715 C717 1.356 . S
C715 H763 0.930 . S
C716 N713 1.279 . S
C716 C715 1.358 . S
C716 H719 0.930 . S
C717 C714 1.348 . S
C717 C715 1.356 . S
H718 C712 0.930 . S
H719 C716 0.930 . S
C720 C722 1.348 . S
C720 C723 1.356 . S
C720 O750 1.325 . S
N721 C724 1.314 . S
N721 C725 1.279 . S
C722 C720 1.348 . S
C722 C724 1.353 . S
C722 H764 0.929 . S
C723 C720 1.356 . S
C723 C725 1.358 . S
C723 H765 0.930 . S
C724 N721 1.314 . S
C724 C722 1.353 . S
C724 H766 0.930 . S
C725 N721 1.279 . S
C725 C723 1.358 . S
C725 H767 0.930 . S
C726 C727 1.348 1_554 S
C726 C728 1.356 . S
C726 O751 1.325 . S
C727 C726 1.348 1_556 S
C727 C729 1.353 . S
C727 H768 0.929 . S
C728 C726 1.356 . S
C728 C730 1.358 . S
C728 H769 0.930 . S
C729 C727 1.353 . S
C729 N731 1.314 1_556 S
C729 H770 0.930 . S
C730 C728 1.358 . S
C730 N731 1.279 . S
C730 H771 0.930 . S
N731 C729 1.314 1_554 S
N731 C730 1.279 . S
C732 C734 1.353 . S
C732 N735 1.314 . S
C732 H738 0.930 . S
C733 N735 1.279 . S
C733 C736 1.358 . S
C733 H739 0.930 . S
C734 C732 1.353 . S
C734 C737 1.348 . S
C734 H772 0.929 . S
N735 Li690 1.990 . S
N735 C732 1.314 . S
N735 C733 1.279 . S
C736 C733 1.358 . S
C736 C737 1.356 . S
C736 H773 0.930 . S
C737 C734 1.348 . S
C737 C736 1.356 . S
H738 C732 0.930 . S
H739 C733 0.930 . S
C740 N741 1.314 . S
C740 C742 1.353 . S
C740 H746 0.930 . S
N741 Li691 1.990 . S
N741 C740 1.314 . S
N741 C744 1.279 . S
C742 C740 1.353 . S
C742 C745 1.348 . S
C742 H774 0.929 . S
C743 C744 1.358 . S
C743 C745 1.356 . S
C743 H775 0.930 . S
C744 N741 1.279 . S
C744 C743 1.358 . S
C744 H747 0.930 . S
C745 C742 1.348 . S
C745 C743 1.356 . S
H746 C740 0.930 . S
H747 C744 0.930 . S
O748 Li688 1.956 . S
O748 Li689 1.970 1_556 S
O748 Li690 1.961 . S
O748 C692 1.325 . S
O749 Li688 1.970 1_554 S
O749 Li689 1.956 . S
O749 Li691 1.961 . S
O749 C698 1.325 . S
O750 Li688 1.961 . S
O750 Li690 1.956 . S
O750 Li691 1.970 1_556 S
O750 C720 1.325 . S
O751 Li689 1.961 . S
O751 Li690 1.970 1_554 S
O751 Li691 1.956 . S
O751 C726 1.325 . S
H752 C694 0.929 . S
H753 C695 0.930 . S
H754 C696 0.930 . S
H755 C697 0.930 . S
H756 C699 0.930 . S
H757 C701 0.929 . S
H758 C702 0.930 . S
H759 C703 0.930 . S
H760 C706 0.930 . S
H761 C709 0.929 . S
H762 C714 0.929 . S
H763 C715 0.930 . S
H764 C722 0.929 . S
H765 C723 0.930 . S
H766 C724 0.930 . S
H767 C725 0.930 . S
H768 C727 0.929 . S
H769 C728 0.930 . S
H770 C729 0.930 . S
H771 C730 0.930 . S
H772 C734 0.929 . S
H773 C736 0.930 . S
H774 C742 0.929 . S
H775 C743 0.930 . S
Li776 N793 1.990 . S
Li776 O836 1.956 . S
Li776 O837 1.971 . S
Li776 O838 1.961 . S
Li777 N801 1.990 . S
Li777 O836 1.974 1_565 S
Li777 O837 1.956 1_565 S
Li777 O839 1.958 . S
Li778 N823 1.990 . S
Li778 O836 1.961 . S
Li778 O838 1.956 . S
Li778 O839 1.970 1_545 S
Li779 N829 1.990 . S
Li779 O837 1.960 1_565 S
Li779 O838 1.970 1_565 S
Li779 O839 1.956 . S
C780 C782 1.348 . S
C780 C783 1.356 . S
C780 O836 1.325 . S
N781 C784 1.314 . S
N781 C785 1.279 . S
C782 C780 1.348 . S
C782 C784 1.353 . S
C782 H840 0.929 . S
C783 C780 1.356 . S
C783 C785 1.358 . S
C783 H841 0.930 . S
C784 N781 1.314 . S
C784 C782 1.353 . S
C784 H842 0.930 . S
C785 N781 1.279 . S
C785 C783 1.358 . S
C785 H843 0.930 . S
C786 C789 1.348 1_565 S
C786 C790 1.356 . S
C786 O837 1.325 1_565 S
C787 N788 1.279 . S
C787 C790 1.358 . S
C787 H844 0.930 . S
N788 C787 1.279 . S
N788 C791 1.314 1_565 S
C789 C786 1.348 1_545 S
C789 C791 1.353 . S
C789 H845 0.929 . S
C790 C786 1.356 . S
C790 C787 1.358 . S
C790 H846 0.930 . S
C791 N788 1.314 1_545 S
C791 C789 1.353 . S
C791 H847 0.930 . S
C792 N793 1.314 . S
C792 C797 1.353 . S
C792 H798 0.930 . S
N793 Li776 1.990 . S
N793 C792 1.314 . S
N793 C795 1.279 . S
C794 C795 1.358 . S
C794 C796 1.356 . S
C794 H848 0.930 . S
C795 N793 1.279 . S
C795 C794 1.358 . S
C795 H799 0.930 . S
C796 C794 1.356 . S
C796 C797 1.348 . S
C797 C792 1.353 . S
C797 C796 1.348 . S
C797 H849 0.929 . S
H798 C792 0.930 . S
H799 C795 0.930 . S
C800 N801 1.314 . S
C800 C802 1.353 . S
C800 H806 0.930 . S
N801 Li777 1.990 . S
N801 C800 1.314 . S
N801 C804 1.279 . S
C802 C800 1.353 . S
C802 C805 1.348 . S
C802 H850 0.929 . S
C803 C804 1.358 . S
C803 C805 1.356 . S
C803 H851 0.930 . S
C804 N801 1.279 . S
C804 C803 1.358 . S
C804 H807 0.932 . S
C805 C802 1.348 . S
C805 C803 1.356 . S
H806 C800 0.930 . S
H807 C804 0.932 . S
C808 C810 1.348 1_545 S
C808 C811 1.356 . S
C808 O838 1.325 . S
N809 C812 1.314 1_545 S
N809 C813 1.279 . S
C810 C808 1.348 1_565 S
C810 C812 1.353 . S
C810 H852 0.929 . S
C811 C808 1.356 . S
C811 C813 1.358 . S
C811 H853 0.930 . S
C812 N809 1.314 1_565 S
C812 C810 1.353 . S
C812 H854 0.930 . S
C813 N809 1.279 . S
C813 C811 1.358 . S
C813 H855 0.930 . S
C814 C815 1.348 . S
C814 C816 1.356 . S
C814 O839 1.325 . S
C815 C814 1.348 . S
C815 C817 1.353 . S
C815 H856 0.929 . S
C816 C814 1.356 . S
C816 C818 1.358 . S
C816 H857 0.930 . S
C817 C815 1.353 . S
C817 N819 1.314 . S
C817 H858 0.930 . S
C818 C816 1.358 . S
C818 N819 1.279 . S
C818 H859 0.930 . S
N819 C817 1.314 . S
N819 C818 1.279 . S
C820 C822 1.353 . S
C820 N823 1.314 . S
C820 H826 0.930 . S
C821 N823 1.279 . S
C821 C824 1.358 . S
C821 H827 0.930 . S
C822 C820 1.353 . S
C822 C825 1.348 . S
C822 H860 0.929 . S
N823 Li778 1.990 . S
N823 C820 1.314 . S
N823 C821 1.279 . S
C824 C821 1.358 . S
C824 C825 1.356 . S
C824 H861 0.930 . S
C825 C822 1.348 . S
C825 C824 1.356 . S
H826 C820 0.930 . S
H827 C821 0.930 . S
C828 N829 1.314 . S
C828 C830 1.353 . S
C828 H834 0.930 . S
N829 Li779 1.990 . S
N829 C828 1.314 . S
N829 C832 1.279 . S
C830 C828 1.353 . S
C830 C833 1.348 . S
C830 H862 0.929 . S
C831 C832 1.358 . S
C831 C833 1.356 . S
C831 H863 0.930 . S
C832 N829 1.279 . S
C832 C831 1.358 . S
C832 H835 0.930 . S
C833 C830 1.348 . S
C833 C831 1.356 . S
H834 C828 0.930 . S
H835 C832 0.930 . S
O836 Li776 1.956 . S
O836 Li777 1.974 1_545 S
O836 Li778 1.961 . S
O836 C780 1.325 . S
O837 Li776 1.971 . S
O837 Li777 1.956 1_545 S
O837 Li779 1.960 1_545 S
O837 C786 1.325 1_545 S
O838 Li776 1.961 . S
O838 Li778 1.956 . S
O838 Li779 1.970 1_545 S
O838 C808 1.325 . S
O839 Li777 1.958 . S
O839 Li778 1.970 1_565 S
O839 Li779 1.956 . S
O839 C814 1.325 . S
H840 C782 0.929 . S
H841 C783 0.930 . S
H842 C784 0.930 . S
H843 C785 0.930 . S
H844 C787 0.930 . S
H845 C789 0.929 . S
H846 C790 0.930 . S
H847 C791 0.930 . S
H848 C794 0.930 . S
H849 C797 0.929 . S
H850 C802 0.929 . S
H851 C803 0.930 . S
H852 C810 0.929 . S
H853 C811 0.930 . S
H854 C812 0.930 . S
H855 C813 0.930 . S
H856 C815 0.929 . S
H857 C816 0.930 . S
H858 C817 0.930 . S
H859 C818 0.930 . S
H860 C822 0.929 . S
H861 C824 0.930 . S
H862 C830 0.929 . S
H863 C831 0.930 . S
Li864 N881 1.990 . S
Li864 O924 1.956 . S
Li864 O925 1.970 . S
Li864 O926 1.961 . S
Li865 N889 1.990 . S
Li865 O924 1.970 . S
Li865 O925 1.956 . S
Li865 O927 1.961 . S
Li866 N911 1.990 . S
Li866 O924 1.961 . S
Li866 O926 1.956 . S
Li866 O927 1.970 . S
Li867 N917 1.990 . S
Li867 O925 1.961 . S
Li867 O926 1.970 . S
Li867 O927 1.956 . S
C868 C870 1.348 . S
C868 C871 1.356 . S
C868 O924 1.325 . S
N869 C872 1.314 . S
N869 C873 1.279 . S
C870 C868 1.348 . S
C870 C872 1.353 . S
C870 H928 0.929 . S
C871 C868 1.356 . S
C871 C873 1.358 . S
C871 H929 0.930 . S
C872 N869 1.314 . S
C872 C870 1.353 . S
C872 H930 0.930 . S
C873 N869 1.279 . S
C873 C871 1.358 . S
C873 H931 0.930 . S
C874 C877 1.348 . S
C874 C878 1.356 . S
C874 O925 1.325 . S
C875 N876 1.279 . S
C875 C878 1.358 . S
C875 H932 0.930 . S
N876 C875 1.279 . S
N876 C879 1.314 . S
C877 C874 1.348 . S
C877 C879 1.353 . S
C877 H933 0.929 . S
C878 C874 1.356 . S
C878 C875 1.358 . S
C878 H934 0.930 . S
C879 N876 1.314 . S
C879 C877 1.353 . S
C879 H935 0.930 . S
C880 N881 1.314 . S
C880 C885 1.353 . S
C880 H886 0.930 . S
N881 Li864 1.990 . S
N881 C880 1.314 . S
N881 C883 1.279 . S
C882 C883 1.358 . S
C882 C884 1.356 . S
C882 H936 0.930 . S
C883 N881 1.279 . S
C883 C882 1.358 . S
C883 H887 0.930 . S
C884 C882 1.356 . S
C884 C885 1.348 . S
C885 C880 1.353 . S
C885 C884 1.348 . S
C885 H937 0.929 . S
H886 C880 0.930 . S
H887 C883 0.930 . S
C888 N889 1.314 . S
C888 C890 1.353 . S
C888 H894 0.930 . S
N889 Li865 1.990 . S
N889 C888 1.314 . S
N889 C892 1.279 . S
C890 C888 1.353 . S
C890 C893 1.348 . S
C890 H938 0.929 . S
C891 C892 1.358 . S
C891 C893 1.356 . S
C891 H939 0.930 . S
C892 N889 1.279 . S
C892 C891 1.358 . S
C892 H895 0.930 . S
C893 C890 1.348 . S
C893 C891 1.356 . S
H894 C888 0.930 . S
H895 C892 0.930 . S
C896 C898 1.348 . S
C896 C899 1.356 . S
C896 O926 1.325 . S
N897 C900 1.314 . S
N897 C901 1.279 . S
C898 C896 1.348 . S
C898 C900 1.353 . S
C898 H940 0.929 . S
C899 C896 1.356 . S
C899 C901 1.358 . S
C899 H941 0.930 . S
C900 N897 1.314 . S
C900 C898 1.353 . S
C900 H942 0.930 . S
C901 N897 1.279 . S
C901 C899 1.358 . S
C901 H943 0.930 . S
C902 C903 1.348 . S
C902 C904 1.356 . S
C902 O927 1.325 . S
C903 C902 1.348 . S
C903 C905 1.353 . S
C903 H944 0.929 . S
C904 C902 1.356 . S
C904 C906 1.358 . S
C904 H945 0.930 . S
C905 C903 1.353 . S
C905 N907 1.314 . S
C905 H946 0.930 . S
C906 C904 1.358 . S
C906 N907 1.279 . S
C906 H947 0.930 . S
N907 C905 1.314 . S
N907 C906 1.279 . S
C908 C910 1.353 . S
C908 N911 1.314 . S
C908 H914 0.930 . S
C909 N911 1.279 . S
C909 C912 1.358 . S
C909 H915 0.930 . S
C910 C908 1.353 . S
C910 C913 1.348 . S
C910 H948 0.929 . S
N911 Li866 1.990 . S
N911 C908 1.314 . S
N911 C909 1.279 . S
C912 C909 1.358 . S
C912 C913 1.356 . S
C912 H949 0.930 . S
C913 C910 1.348 . S
C913 C912 1.356 . S
H914 C908 0.930 . S
H915 C909 0.930 . S
C916 N917 1.314 . S
C916 C918 1.353 . S
C916 H922 0.930 . S
N917 Li867 1.990 . S
N917 C916 1.314 . S
N917 C920 1.279 . S
C918 C916 1.353 . S
C918 C921 1.348 . S
C918 H950 0.929 . S
C919 C920 1.358 . S
C919 C921 1.356 . S
C919 H951 0.930 . S
C920 N917 1.279 . S
C920 C919 1.358 . S
C920 H923 0.930 . S
C921 C918 1.348 . S
C921 C919 1.356 . S
H922 C916 0.930 . S
H923 C920 0.930 . S
O924 Li864 1.956 . S
O924 Li865 1.970 . S
O924 Li866 1.961 . S
O924 C868 1.325 . S
O925 Li864 1.970 . S
O925 Li865 1.956 . S
O925 Li867 1.961 . S
O925 C874 1.325 . S
O926 Li864 1.961 . S
O926 Li866 1.956 . S
O926 Li867 1.970 . S
O926 C896 1.325 . S
O927 Li865 1.961 . S
O927 Li866 1.970 . S
O927 Li867 1.956 . S
O927 C902 1.325 . S
H928 C870 0.929 . S
H929 C871 0.930 . S
H930 C872 0.930 . S
H931 C873 0.930 . S
H932 C875 0.930 . S
H933 C877 0.929 . S
H934 C878 0.930 . S
H935 C879 0.930 . S
H936 C882 0.930 . S
H937 C885 0.929 . S
H938 C890 0.929 . S
H939 C891 0.930 . S
H940 C898 0.929 . S
H941 C899 0.930 . S
H942 C900 0.930 . S
H943 C901 0.930 . S
H944 C903 0.929 . S
H945 C904 0.930 . S
H946 C905 0.930 . S
H947 C906 0.930 . S
H948 C910 0.929 . S
H949 C912 0.930 . S
H950 C918 0.929 . S
H951 C919 0.930 . S
Li952 N969 1.990 . S
Li952 O1012 1.956 . S
Li952 O1013 1.970 . S
Li952 O1014 1.961 . S
Li953 N977 1.990 . S
Li953 O1012 1.970 . S
Li953 O1013 1.956 . S
Li953 O1015 1.961 . S
Li954 N999 1.990 . S
Li954 O1012 1.961 . S
Li954 O1014 1.956 . S
Li954 O1015 1.970 . S
Li955 N1005 1.990 . S
Li955 O1013 1.961 . S
Li955 O1014 1.970 . S
Li955 O1015 1.956 . S
C956 C958 1.348 . S
C956 C959 1.356 . S
C956 O1012 1.325 . S
N957 C960 1.314 . S
N957 C961 1.279 . S
C958 C956 1.348 . S
C958 C960 1.353 . S
C958 H1016 0.929 . S
C959 C956 1.356 . S
C959 C961 1.358 . S
C959 H1017 0.930 . S
C960 N957 1.314 . S
C960 C958 1.353 . S
C960 H1018 0.930 . S
C961 N957 1.279 . S
C961 C959 1.358 . S
C961 H1019 0.930 . S
C962 C965 1.348 . S
C962 C966 1.356 . S
C962 O1013 1.325 . S
C963 N964 1.279 . S
C963 C966 1.358 . S
C963 H1020 0.930 . S
N964 C963 1.279 . S
N964 C967 1.314 . S
C965 C962 1.348 . S
C965 C967 1.353 . S
C965 H1021 0.929 . S
C966 C962 1.356 . S
C966 C963 1.358 . S
C966 H1022 0.930 . S
C967 N964 1.314 . S
C967 C965 1.353 . S
C967 H1023 0.930 . S
C968 N969 1.314 . S
C968 C973 1.353 . S
C968 H974 0.930 . S
N969 Li952 1.990 . S
N969 C968 1.314 . S
N969 C971 1.279 . S
C970 C971 1.358 . S
C970 C972 1.356 . S
C970 H1024 0.930 . S
C971 N969 1.279 . S
C971 C970 1.358 . S
C971 H975 0.930 . S
C972 C970 1.356 . S
C972 C973 1.348 . S
C973 C968 1.353 . S
C973 C972 1.348 . S
C973 H1025 0.929 . S
H974 C968 0.930 . S
H975 C971 0.930 . S
C976 N977 1.314 . S
C976 C978 1.353 . S
C976 H982 0.930 . S
N977 Li953 1.990 . S
N977 C976 1.314 . S
N977 C980 1.279 . S
C978 C976 1.353 . S
C978 C981 1.348 . S
C978 H1026 0.929 . S
C979 C980 1.358 . S
C979 C981 1.356 . S
C979 H1027 0.930 . S
C980 N977 1.279 . S
C980 C979 1.358 . S
C980 H983 0.930 . S
C981 C978 1.348 . S
C981 C979 1.356 . S
H982 C976 0.930 . S
H983 C980 0.930 . S
C984 C986 1.348 . S
C984 C987 1.356 . S
C984 O1014 1.325 . S
N985 C988 1.314 . S
N985 C989 1.279 . S
C986 C984 1.348 . S
C986 C988 1.353 . S
C986 H1028 0.929 . S
C987 C984 1.356 . S
C987 C989 1.358 . S
C987 H1029 0.930 . S
C988 N985 1.314 . S
C988 C986 1.353 . S
C988 H1030 0.930 . S
C989 N985 1.279 . S
C989 C987 1.358 . S
C989 H1031 0.930 . S
C990 C991 1.348 . S
C990 C992 1.356 . S
C990 O1015 1.325 . S
C991 C990 1.348 . S
C991 C993 1.353 . S
C991 H1032 0.929 . S
C992 C990 1.356 . S
C992 C994 1.358 . S
C992 H1033 0.930 . S
C993 C991 1.353 . S
C993 N995 1.314 . S
C993 H1034 0.930 . S
C994 C992 1.358 . S
C994 N995 1.279 . S
C994 H1035 0.930 . S
N995 C993 1.314 . S
N995 C994 1.279 . S
C996 C998 1.353 . S
C996 N999 1.314 . S
C996 H1002 0.930 . S
C997 N999 1.279 . S
C997 C1000 1.358 . S
C997 H1003 0.930 . S
C998 C996 1.353 . S
C998 C1001 1.348 . S
C998 H1036 0.929 . S
N999 Li954 1.990 . S
N999 C996 1.314 . S
N999 C997 1.279 . S
C1000 C997 1.358 . S
C1000 C1001 1.356 . S
C1000 H1037 0.930 . S
C1001 C998 1.348 . S
C1001 C1000 1.356 . S
H1002 C996 0.930 . S
H1003 C997 0.930 . S
C1004 N1005 1.314 . S
C1004 C1006 1.353 . S
C1004 H1010 0.930 . S
N1005 Li955 1.990 . S
N1005 C1004 1.314 . S
N1005 C1008 1.279 . S
C1006 C1004 1.353 . S
C1006 C1009 1.348 . S
C1006 H1038 0.929 . S
C1007 C1008 1.358 . S
C1007 C1009 1.356 . S
C1007 H1039 0.930 . S
C1008 N1005 1.279 . S
C1008 C1007 1.358 . S
C1008 H1011 0.930 . S
C1009 C1006 1.348 . S
C1009 C1007 1.356 . S
H1010 C1004 0.930 . S
H1011 C1008 0.930 . S
O1012 Li952 1.956 . S
O1012 Li953 1.970 . S
O1012 Li954 1.961 . S
O1012 C956 1.325 . S
O1013 Li952 1.970 . S
O1013 Li953 1.956 . S
O1013 Li955 1.961 . S
O1013 C962 1.325 . S
O1014 Li952 1.961 . S
O1014 Li954 1.956 . S
O1014 Li955 1.970 . S
O1014 C984 1.325 . S
O1015 Li953 1.961 . S
O1015 Li954 1.970 . S
O1015 Li955 1.956 . S
O1015 C990 1.325 . S
H1016 C958 0.929 . S
H1017 C959 0.930 . S
H1018 C960 0.930 . S
H1019 C961 0.930 . S
H1020 C963 0.930 . S
H1021 C965 0.929 . S
H1022 C966 0.930 . S
H1023 C967 0.930 . S
H1024 C970 0.930 . S
H1025 C973 0.929 . S
H1026 C978 0.929 . S
H1027 C979 0.930 . S
H1028 C986 0.929 . S
H1029 C987 0.930 . S
H1030 C988 0.930 . S
H1031 C989 0.930 . S
H1032 C991 0.929 . S
H1033 C992 0.930 . S
H1034 C993 0.930 . S
H1035 C994 0.930 . S
H1036 C998 0.929 . S
H1037 C1000 0.930 . S
H1038 C1006 0.929 . S
H1039 C1007 0.930 . S
Li1040 N1057 1.990 . S
Li1040 O1100 1.956 . S
Li1040 O1101 1.970 . S
Li1040 O1102 1.961 . S
Li1041 N1065 1.990 . S
Li1041 O1100 1.970 . S
Li1041 O1101 1.956 . S
Li1041 O1103 1.961 . S
Li1042 N1087 1.990 . S
Li1042 O1100 1.961 . S
Li1042 O1102 1.956 . S
Li1042 O1103 1.970 . S
Li1043 N1093 1.990 . S
Li1043 O1101 1.961 . S
Li1043 O1102 1.970 . S
Li1043 O1103 1.956 . S
C1044 C1046 1.348 . S
C1044 C1047 1.356 . S
C1044 O1100 1.325 . S
N1045 C1048 1.314 . S
N1045 C1049 1.279 . S
C1046 C1044 1.348 . S
C1046 C1048 1.353 . S
C1046 H1104 0.929 . S
C1047 C1044 1.356 . S
C1047 C1049 1.358 . S
C1047 H1105 0.930 . S
C1048 N1045 1.314 . S
C1048 C1046 1.353 . S
C1048 H1106 0.930 . S
C1049 N1045 1.279 . S
C1049 C1047 1.358 . S
C1049 H1107 0.930 . S
C1050 C1053 1.348 . S
C1050 C1054 1.356 . S
C1050 O1101 1.325 . S
C1051 N1052 1.279 . S
C1051 C1054 1.358 . S
C1051 H1108 0.930 . S
N1052 C1051 1.279 . S
N1052 C1055 1.314 . S
C1053 C1050 1.348 . S
C1053 C1055 1.353 . S
C1053 H1109 0.929 . S
C1054 C1050 1.356 . S
C1054 C1051 1.358 . S
C1054 H1110 0.930 . S
C1055 N1052 1.314 . S
C1055 C1053 1.353 . S
C1055 H1111 0.930 . S
C1056 N1057 1.314 . S
C1056 C1061 1.353 . S
C1056 H1062 0.930 . S
N1057 Li1040 1.990 . S
N1057 C1056 1.314 . S
N1057 C1059 1.279 . S
C1058 C1059 1.358 . S
C1058 C1060 1.356 . S
C1058 H1112 0.930 . S
C1059 N1057 1.279 . S
C1059 C1058 1.358 . S
C1059 H1063 0.930 . S
C1060 C1058 1.356 . S
C1060 C1061 1.348 . S
C1061 C1056 1.353 . S
C1061 C1060 1.348 . S
C1061 H1113 0.929 . S
H1062 C1056 0.930 . S
H1063 C1059 0.930 . S
C1064 N1065 1.314 . S
C1064 C1066 1.353 . S
C1064 H1070 0.930 . S
N1065 Li1041 1.990 . S
N1065 C1064 1.314 . S
N1065 C1068 1.279 . S
C1066 C1064 1.353 . S
C1066 C1069 1.348 . S
C1066 H1114 0.929 . S
C1067 C1068 1.358 . S
C1067 C1069 1.356 . S
C1067 H1115 0.930 . S
C1068 N1065 1.279 . S
C1068 C1067 1.358 . S
C1068 H1071 0.930 . S
C1069 C1066 1.348 . S
C1069 C1067 1.356 . S
H1070 C1064 0.930 . S
H1071 C1068 0.930 . S
C1072 C1074 1.348 . S
C1072 C1075 1.356 . S
C1072 O1102 1.325 . S
N1073 C1076 1.314 . S
N1073 C1077 1.279 . S
C1074 C1072 1.348 . S
C1074 C1076 1.353 . S
C1074 H1116 0.929 . S
C1075 C1072 1.356 . S
C1075 C1077 1.358 . S
C1075 H1117 0.930 . S
C1076 N1073 1.314 . S
C1076 C1074 1.353 . S
C1076 H1118 0.930 . S
C1077 N1073 1.279 . S
C1077 C1075 1.358 . S
C1077 H1119 0.930 . S
C1078 C1079 1.348 . S
C1078 C1080 1.356 . S
C1078 O1103 1.325 . S
C1079 C1078 1.348 . S
C1079 C1081 1.353 . S
C1079 H1120 0.929 . S
C1080 C1078 1.356 . S
C1080 C1082 1.358 . S
C1080 H1121 0.930 . S
C1081 C1079 1.353 . S
C1081 N1083 1.314 . S
C1081 H1122 0.930 . S
C1082 C1080 1.358 . S
C1082 N1083 1.279 . S
C1082 H1123 0.930 . S
N1083 C1081 1.314 . S
N1083 C1082 1.279 . S
C1084 C1086 1.353 . S
C1084 N1087 1.314 . S
C1084 H1090 0.930 . S
C1085 N1087 1.279 . S
C1085 C1088 1.358 . S
C1085 H1091 0.930 . S
C1086 C1084 1.353 . S
C1086 C1089 1.348 . S
C1086 H1124 0.929 . S
N1087 Li1042 1.990 . S
N1087 C1084 1.314 . S
N1087 C1085 1.279 . S
C1088 C1085 1.358 . S
C1088 C1089 1.356 . S
C1088 H1125 0.930 . S
C1089 C1086 1.348 . S
C1089 C1088 1.356 . S
H1090 C1084 0.930 . S
H1091 C1085 0.930 . S
C1092 N1093 1.314 . S
C1092 C1094 1.353 . S
C1092 H1098 0.930 . S
N1093 Li1043 1.990 . S
N1093 C1092 1.314 . S
N1093 C1096 1.279 . S
C1094 C1092 1.353 . S
C1094 C1097 1.348 . S
C1094 H1126 0.929 . S
C1095 C1096 1.358 . S
C1095 C1097 1.356 . S
C1095 H1127 0.930 . S
C1096 N1093 1.279 . S
C1096 C1095 1.358 . S
C1096 H1099 0.930 . S
C1097 C1094 1.348 . S
C1097 C1095 1.356 . S
H1098 C1092 0.930 . S
H1099 C1096 0.930 . S
O1100 Li1040 1.956 . S
O1100 Li1041 1.970 . S
O1100 Li1042 1.961 . S
O1100 C1044 1.325 . S
O1101 Li1040 1.970 . S
O1101 Li1041 1.956 . S
O1101 Li1043 1.961 . S
O1101 C1050 1.325 . S
O1102 Li1040 1.961 . S
O1102 Li1042 1.956 . S
O1102 Li1043 1.970 . S
O1102 C1072 1.325 . S
O1103 Li1041 1.961 . S
O1103 Li1042 1.970 . S
O1103 Li1043 1.956 . S
O1103 C1078 1.325 . S
H1104 C1046 0.929 . S
H1105 C1047 0.930 . S
H1106 C1048 0.930 . S
H1107 C1049 0.930 . S
H1108 C1051 0.930 . S
H1109 C1053 0.929 . S
H1110 C1054 0.930 . S
H1111 C1055 0.930 . S
H1112 C1058 0.930 . S
H1113 C1061 0.929 . S
H1114 C1066 0.929 . S
H1115 C1067 0.930 . S
H1116 C1074 0.929 . S
H1117 C1075 0.930 . S
H1118 C1076 0.930 . S
H1119 C1077 0.930 . S
H1120 C1079 0.929 . S
H1121 C1080 0.930 . S
H1122 C1081 0.930 . S
H1123 C1082 0.930 . S
H1124 C1086 0.929 . S
H1125 C1088 0.930 . S
H1126 C1094 0.929 . S
H1127 C1095 0.930 . S
Li1128 N1145 1.990 . S
Li1128 O1188 1.956 . S
Li1128 O1189 1.970 1_565 S
Li1128 O1190 1.960 . S
Li1129 N1153 1.990 . S
Li1129 O1188 1.970 1_545 S
Li1129 O1189 1.956 . S
Li1129 O1191 1.961 . S
Li1130 N1175 1.995 . S
Li1130 O1188 1.977 . S
Li1130 O1190 1.956 . S
Li1130 O1191 1.948 1_565 S
Li1131 N1181 1.990 . S
Li1131 O1189 1.961 . S
Li1131 O1190 1.971 1_545 S
Li1131 O1191 1.956 . S
C1132 C1134 1.348 . S
C1132 C1135 1.356 . S
C1132 O1188 1.325 . S
N1133 C1136 1.314 . S
N1133 C1137 1.279 . S
C1134 C1132 1.348 . S
C1134 C1136 1.353 . S
C1134 H1192 0.929 . S
C1135 C1132 1.356 . S
C1135 C1137 1.358 . S
C1135 H1193 0.930 . S
C1136 N1133 1.314 . S
C1136 C1134 1.353 . S
C1136 H1194 0.930 . S
C1137 N1133 1.279 . S
C1137 C1135 1.358 . S
C1137 H1195 0.930 . S
C1138 C1141 1.348 1_545 S
C1138 C1142 1.356 . S
C1138 O1189 1.325 . S
C1139 N1140 1.279 . S
C1139 C1142 1.358 . S
C1139 H1196 0.930 . S
N1140 C1139 1.279 . S
N1140 C1143 1.314 1_545 S
C1141 C1138 1.348 1_565 S
C1141 C1143 1.353 . S
C1141 H1197 0.929 . S
C1142 C1138 1.356 . S
C1142 C1139 1.358 . S
C1142 H1198 0.930 . S
C1143 N1140 1.314 1_565 S
C1143 C1141 1.353 . S
C1143 H1199 0.930 . S
C1144 N1145 1.314 . S
C1144 C1149 1.353 . S
C1144 H1150 0.930 . S
N1145 Li1128 1.990 . S
N1145 C1144 1.314 . S
N1145 C1147 1.279 . S
C1146 C1147 1.358 . S
C1146 C1148 1.356 . S
C1146 H1200 0.930 . S
C1147 N1145 1.279 . S
C1147 C1146 1.358 . S
C1147 H1151 0.930 . S
C1148 C1146 1.356 . S
C1148 C1149 1.348 . S
C1149 C1144 1.353 . S
C1149 C1148 1.348 . S
C1149 H1201 0.929 . S
H1150 C1144 0.930 . S
H1151 C1147 0.930 . S
C1152 N1153 1.314 . S
C1152 C1154 1.353 . S
C1152 H1158 0.930 . S
N1153 Li1129 1.990 . S
N1153 C1152 1.314 . S
N1153 C1156 1.279 . S
C1154 C1152 1.353 . S
C1154 C1157 1.348 . S
C1154 H1202 0.929 . S
C1155 C1156 1.358 . S
C1155 C1157 1.356 . S
C1155 H1203 0.930 . S
C1156 N1153 1.279 . S
C1156 C1155 1.358 . S
C1156 H1159 0.930 . S
C1157 C1154 1.348 . S
C1157 C1155 1.356 . S
H1158 C1152 0.930 . S
H1159 C1156 0.930 . S
C1160 C1162 1.348 1_565 S
C1160 C1163 1.356 . S
C1160 O1190 1.325 . S
N1161 C1164 1.314 1_565 S
N1161 C1165 1.279 . S
C1162 C1160 1.348 1_545 S
C1162 C1164 1.353 . S
C1162 H1204 0.929 . S
C1163 C1160 1.356 . S
C1163 C1165 1.358 . S
C1163 H1205 0.930 . S
C1164 N1161 1.314 1_545 S
C1164 C1162 1.353 . S
C1164 H1206 0.930 . S
C1165 N1161 1.279 . S
C1165 C1163 1.358 . S
C1165 H1207 0.930 . S
C1166 C1167 1.348 . S
C1166 C1168 1.356 . S
C1166 O1191 1.325 . S
C1167 C1166 1.348 . S
C1167 C1169 1.353 . S
C1167 H1208 0.929 . S
C1168 C1166 1.356 . S
C1168 C1170 1.358 . S
C1168 H1209 0.930 . S
C1169 C1167 1.353 . S
C1169 N1171 1.314 . S
C1169 H1210 0.930 . S
C1170 C1168 1.358 . S
C1170 N1171 1.279 . S
C1170 H1211 0.930 . S
N1171 C1169 1.314 . S
N1171 C1170 1.279 . S
C1172 C1174 1.353 . S
C1172 N1175 1.314 . S
C1172 H1178 0.930 . S
C1173 N1175 1.279 . S
C1173 C1176 1.358 . S
C1173 H1179 0.932 1_565 S
C1174 C1172 1.353 . S
C1174 C1177 1.348 . S
C1174 H1212 0.929 . S
N1175 Li1130 1.995 . S
N1175 C1172 1.314 . S
N1175 C1173 1.279 . S
C1176 C1173 1.358 . S
C1176 C1177 1.356 . S
C1176 H1213 0.930 . S
C1177 C1174 1.348 . S
C1177 C1176 1.356 . S
H1178 C1172 0.930 . S
H1179 C1173 0.932 1_545 S
C1180 N1181 1.314 . S
C1180 C1182 1.353 . S
C1180 H1186 0.930 . S
N1181 Li1131 1.990 . S
N1181 C1180 1.314 . S
N1181 C1184 1.279 . S
C1182 C1180 1.353 . S
C1182 C1185 1.348 . S
C1182 H1214 0.929 . S
C1183 C1184 1.358 . S
C1183 C1185 1.356 . S
C1183 H1215 0.930 . S
C1184 N1181 1.279 . S
C1184 C1183 1.358 . S
C1184 H1187 0.930 . S
C1185 C1182 1.348 . S
C1185 C1183 1.356 . S
H1186 C1180 0.930 . S
H1187 C1184 0.930 . S
O1188 Li1128 1.956 . S
O1188 Li1129 1.970 1_565 S
O1188 Li1130 1.977 . S
O1188 C1132 1.325 . S
O1189 Li1128 1.970 1_545 S
O1189 Li1129 1.956 . S
O1189 Li1131 1.961 . S
O1189 C1138 1.325 . S
O1190 Li1128 1.960 . S
O1190 Li1130 1.956 . S
O1190 Li1131 1.971 1_565 S
O1190 C1160 1.325 . S
O1191 Li1129 1.961 . S
O1191 Li1130 1.948 1_545 S
O1191 Li1131 1.956 . S
O1191 C1166 1.325 . S
H1192 C1134 0.929 . S
H1193 C1135 0.930 . S
H1194 C1136 0.930 . S
H1195 C1137 0.930 . S
H1196 C1139 0.930 . S
H1197 C1141 0.929 . S
H1198 C1142 0.930 . S
H1199 C1143 0.930 . S
H1200 C1146 0.930 . S
H1201 C1149 0.929 . S
H1202 C1154 0.929 . S
H1203 C1155 0.930 . S
H1204 C1162 0.929 . S
H1205 C1163 0.930 . S
H1206 C1164 0.930 . S
H1207 C1165 0.930 . S
H1208 C1167 0.929 . S
H1209 C1168 0.930 . S
H1210 C1169 0.930 . S
H1211 C1170 0.930 . S
H1212 C1174 0.929 . S
H1213 C1176 0.930 . S
H1214 C1182 0.929 . S
H1215 C1183 0.930 . S
Li1216 N1233 1.990 . S
Li1216 O1276 1.956 . S
Li1216 O1277 1.970 . S
Li1216 O1278 1.961 . S
Li1217 N1241 1.990 1_455 S
Li1217 O1276 1.970 . S
Li1217 O1277 1.956 . S
Li1217 O1279 1.961 1_455 S
Li1218 N1263 1.990 . S
Li1218 O1276 1.961 . S
Li1218 O1278 1.956 . S
Li1218 O1279 1.970 1_455 S
Li1219 N1269 1.990 . S
Li1219 O1277 1.961 1_655 S
Li1219 O1278 1.970 1_655 S
Li1219 O1279 1.956 . S
C1220 C1222 1.348 . S
C1220 C1223 1.356 . S
C1220 O1276 1.325 . S
N1221 C1224 1.314 . S
N1221 C1225 1.279 . S
C1222 C1220 1.348 . S
C1222 C1224 1.353 . S
C1222 H1280 0.929 . S
C1223 C1220 1.356 . S
C1223 C1225 1.358 . S
C1223 H1281 0.930 . S
C1224 N1221 1.314 . S
C1224 C1222 1.353 . S
C1224 H1282 0.930 . S
C1225 N1221 1.279 . S
C1225 C1223 1.358 . S
C1225 H1283 0.930 . S
C1226 C1229 1.363 . S
C1226 C1230 1.339 1_455 S
C1226 O1277 1.328 . S
C1227 N1228 1.279 . S
C1227 C1230 1.358 . S
C1227 H1284 0.930 . S
N1228 C1227 1.279 . S
N1228 C1231 1.314 1_655 S
C1229 C1226 1.363 . S
C1229 C1231 1.353 . S
C1229 H1285 0.929 . S
C1230 C1226 1.339 1_655 S
C1230 C1227 1.358 . S
C1230 H1286 0.930 . S
C1231 N1228 1.314 1_455 S
C1231 C1229 1.353 . S
C1231 H1287 0.930 . S
C1232 N1233 1.314 . S
C1232 C1237 1.353 . S
C1232 H1238 0.930 . S
N1233 Li1216 1.990 . S
N1233 C1232 1.314 . S
N1233 C1235 1.279 . S
C1234 C1235 1.358 . S
C1234 C1236 1.356 . S
C1234 H1288 0.930 . S
C1235 N1233 1.279 . S
C1235 C1234 1.358 . S
C1235 H1239 0.930 . S
C1236 C1234 1.356 . S
C1236 C1237 1.348 . S
C1237 C1232 1.353 . S
C1237 C1236 1.348 . S
C1237 H1289 0.929 . S
H1238 C1232 0.930 . S
H1239 C1235 0.930 . S
C1240 N1241 1.314 . S
C1240 C1242 1.353 . S
C1240 H1246 0.930 . S
N1241 Li1217 1.990 1_655 S
N1241 C1240 1.314 . S
N1241 C1244 1.280 . S
C1242 C1240 1.353 . S
C1242 C1245 1.348 . S
C1242 H1290 0.929 . S
C1243 C1244 1.359 . S
C1243 C1245 1.356 . S
C1243 H1291 0.935 . S
C1244 N1241 1.280 . S
C1244 C1243 1.359 . S
C1244 H1247 0.929 1_655 S
C1245 C1242 1.348 . S
C1245 C1243 1.356 . S
H1246 C1240 0.930 . S
H1247 C1244 0.929 1_455 S
C1248 C1250 1.348 1_455 S
C1248 C1251 1.356 . S
C1248 O1278 1.325 . S
N1249 C1252 1.305 1_455 S
N1249 C1253 1.279 . S
C1250 C1248 1.348 1_655 S
C1250 C1252 1.355 . S
C1250 H1292 0.929 . S
C1251 C1248 1.356 . S
C1251 C1253 1.358 . S
C1251 H1293 0.930 . S
C1252 N1249 1.305 1_655 S
C1252 C1250 1.355 . S
C1252 H1294 0.938 . S
C1253 N1249 1.279 . S
C1253 C1251 1.358 . S
C1253 H1295 0.930 . S
C1254 C1255 1.348 . S
C1254 C1256 1.356 . S
C1254 O1279 1.325 . S
C1255 C1254 1.348 . S
C1255 C1257 1.353 . S
C1255 H1296 0.929 . S
C1256 C1254 1.356 . S
C1256 C1258 1.358 . S
C1256 H1297 0.930 . S
C1257 C1255 1.353 . S
C1257 N1259 1.314 . S
C1257 H1298 0.930 . S
C1258 C1256 1.358 . S
C1258 N1259 1.279 . S
C1258 H1299 0.930 . S
N1259 C1257 1.314 . S
N1259 C1258 1.279 . S
C1260 C1262 1.353 . S
C1260 N1263 1.314 . S
C1260 H1266 0.930 . S
C1261 N1263 1.279 . S
C1261 C1264 1.358 . S
C1261 H1267 0.930 . S
C1262 C1260 1.353 . S
C1262 C1265 1.348 . S
C1262 H1300 0.929 . S
N1263 Li1218 1.990 . S
N1263 C1260 1.314 . S
N1263 C1261 1.279 . S
C1264 C1261 1.358 . S
C1264 C1265 1.356 . S
C1264 H1301 0.930 . S
C1265 C1262 1.348 . S
C1265 C1264 1.356 . S
H1266 C1260 0.930 . S
H1267 C1261 0.930 . S
C1268 N1269 1.314 . S
C1268 C1270 1.353 . S
C1268 H1274 0.930 . S
N1269 Li1219 1.990 . S
N1269 C1268 1.314 . S
N1269 C1272 1.279 . S
C1270 C1268 1.353 . S
C1270 C1273 1.348 . S
C1270 H1302 0.929 . S
C1271 C1272 1.358 . S
C1271 C1273 1.356 . S
C1271 H1303 0.930 . S
C1272 N1269 1.279 . S
C1272 C1271 1.358 . S
C1272 H1275 0.930 . S
C1273 C1270 1.348 . S
C1273 C1271 1.356 . S
H1274 C1268 0.930 . S
H1275 C1272 0.930 . S
O1276 Li1216 1.956 . S
O1276 Li1217 1.970 . S
O1276 Li1218 1.961 . S
O1276 C1220 1.325 . S
O1277 Li1216 1.970 . S
O1277 Li1217 1.956 . S
O1277 Li1219 1.961 1_455 S
O1277 C1226 1.328 . S
O1278 Li1216 1.961 . S
O1278 Li1218 1.956 . S
O1278 Li1219 1.970 1_455 S
O1278 C1248 1.325 . S
O1279 Li1217 1.961 1_655 S
O1279 Li1218 1.970 1_655 S
O1279 Li1219 1.956 . S
O1279 C1254 1.325 . S
H1280 C1222 0.929 . S
H1281 C1223 0.930 . S
H1282 C1224 0.930 . S
H1283 C1225 0.930 . S
H1284 C1227 0.930 . S
H1285 C1229 0.929 . S
H1286 C1230 0.930 . S
H1287 C1231 0.930 . S
H1288 C1234 0.930 . S
H1289 C1237 0.929 . S
H1290 C1242 0.929 . S
H1291 C1243 0.935 . S
H1292 C1250 0.929 . S
H1293 C1251 0.930 . S
H1294 C1252 0.938 . S
H1295 C1253 0.930 . S
H1296 C1255 0.929 . S
H1297 C1256 0.930 . S
H1298 C1257 0.930 . S
H1299 C1258 0.930 . S
H1300 C1262 0.929 . S
H1301 C1264 0.930 . S
H1302 C1270 0.929 . S
H1303 C1271 0.930 . S
Li1304 N1321 1.990 . S
Li1304 O1364 1.956 . S
Li1304 O1365 1.970 . S
Li1304 O1366 1.961 . S
Li1305 N1329 1.990 . S
Li1305 O1364 1.970 . S
Li1305 O1365 1.956 . S
Li1305 O1367 1.961 . S
Li1306 N1351 1.990 . S
Li1306 O1364 1.961 . S
Li1306 O1366 1.956 . S
Li1306 O1367 1.970 . S
Li1307 N1357 1.990 . S
Li1307 O1365 1.961 . S
Li1307 O1366 1.970 . S
Li1307 O1367 1.956 . S
C1308 C1310 1.348 . S
C1308 C1311 1.356 . S
C1308 O1364 1.325 . S
N1309 C1312 1.314 . S
N1309 C1313 1.279 . S
C1310 C1308 1.348 . S
C1310 C1312 1.353 . S
C1310 H1368 0.929 . S
C1311 C1308 1.356 . S
C1311 C1313 1.358 . S
C1311 H1369 0.930 . S
C1312 N1309 1.314 . S
C1312 C1310 1.353 . S
C1312 H1370 0.930 . S
C1313 N1309 1.279 . S
C1313 C1311 1.358 . S
C1313 H1371 0.930 . S
C1314 C1317 1.348 . S
C1314 C1318 1.356 . S
C1314 O1365 1.325 . S
C1315 N1316 1.279 . S
C1315 C1318 1.358 . S
C1315 H1372 0.930 . S
N1316 C1315 1.279 . S
N1316 C1319 1.314 . S
C1317 C1314 1.348 . S
C1317 C1319 1.353 . S
C1317 H1373 0.929 . S
C1318 C1314 1.356 . S
C1318 C1315 1.358 . S
C1318 H1374 0.930 . S
C1319 N1316 1.314 . S
C1319 C1317 1.353 . S
C1319 H1375 0.930 . S
C1320 N1321 1.314 . S
C1320 C1325 1.353 . S
C1320 H1326 0.930 . S
N1321 Li1304 1.990 . S
N1321 C1320 1.314 . S
N1321 C1323 1.279 . S
C1322 C1323 1.358 . S
C1322 C1324 1.356 . S
C1322 H1376 0.930 . S
C1323 N1321 1.279 . S
C1323 C1322 1.358 . S
C1323 H1327 0.930 . S
C1324 C1322 1.356 . S
C1324 C1325 1.348 . S
C1325 C1320 1.353 . S
C1325 C1324 1.348 . S
C1325 H1377 0.929 . S
H1326 C1320 0.930 . S
H1327 C1323 0.930 . S
C1328 N1329 1.314 . S
C1328 C1330 1.353 . S
C1328 H1334 0.930 . S
N1329 Li1305 1.990 . S
N1329 C1328 1.314 . S
N1329 C1332 1.279 . S
C1330 C1328 1.353 . S
C1330 C1333 1.348 . S
C1330 H1378 0.929 . S
C1331 C1332 1.358 . S
C1331 C1333 1.356 . S
C1331 H1379 0.930 . S
C1332 N1329 1.279 . S
C1332 C1331 1.358 . S
C1332 H1335 0.930 . S
C1333 C1330 1.348 . S
C1333 C1331 1.356 . S
H1334 C1328 0.930 . S
H1335 C1332 0.930 . S
C1336 C1338 1.348 . S
C1336 C1339 1.356 . S
C1336 O1366 1.325 . S
N1337 C1340 1.314 . S
N1337 C1341 1.279 . S
C1338 C1336 1.348 . S
C1338 C1340 1.353 . S
C1338 H1380 0.929 . S
C1339 C1336 1.356 . S
C1339 C1341 1.358 . S
C1339 H1381 0.930 . S
C1340 N1337 1.314 . S
C1340 C1338 1.353 . S
C1340 H1382 0.930 . S
C1341 N1337 1.279 . S
C1341 C1339 1.358 . S
C1341 H1383 0.930 . S
C1342 C1343 1.348 . S
C1342 C1344 1.356 . S
C1342 O1367 1.325 . S
C1343 C1342 1.348 . S
C1343 C1345 1.353 . S
C1343 H1384 0.929 . S
C1344 C1342 1.356 . S
C1344 C1346 1.358 . S
C1344 H1385 0.930 . S
C1345 C1343 1.353 . S
C1345 N1347 1.314 . S
C1345 H1386 0.930 . S
C1346 C1344 1.358 . S
C1346 N1347 1.279 . S
C1346 H1387 0.930 . S
N1347 C1345 1.314 . S
N1347 C1346 1.279 . S
C1348 C1350 1.353 . S
C1348 N1351 1.314 . S
C1348 H1354 0.930 . S
C1349 N1351 1.279 . S
C1349 C1352 1.358 . S
C1349 H1355 0.930 . S
C1350 C1348 1.353 . S
C1350 C1353 1.348 . S
C1350 H1388 0.929 . S
N1351 Li1306 1.990 . S
N1351 C1348 1.314 . S
N1351 C1349 1.279 . S
C1352 C1349 1.358 . S
C1352 C1353 1.356 . S
C1352 H1389 0.930 . S
C1353 C1350 1.348 . S
C1353 C1352 1.356 . S
H1354 C1348 0.930 . S
H1355 C1349 0.930 . S
C1356 N1357 1.314 . S
C1356 C1358 1.353 . S
C1356 H1362 0.930 . S
N1357 Li1307 1.990 . S
N1357 C1356 1.314 . S
N1357 C1360 1.279 . S
C1358 C1356 1.353 . S
C1358 C1361 1.348 . S
C1358 H1390 0.929 . S
C1359 C1360 1.358 . S
C1359 C1361 1.356 . S
C1359 H1391 0.930 . S
C1360 N1357 1.279 . S
C1360 C1359 1.358 . S
C1360 H1363 0.930 . S
C1361 C1358 1.348 . S
C1361 C1359 1.356 . S
H1362 C1356 0.930 . S
H1363 C1360 0.930 . S
O1364 Li1304 1.956 . S
O1364 Li1305 1.970 . S
O1364 Li1306 1.961 . S
O1364 C1308 1.325 . S
O1365 Li1304 1.970 . S
O1365 Li1305 1.956 . S
O1365 Li1307 1.961 . S
O1365 C1314 1.325 . S
O1366 Li1304 1.961 . S
O1366 Li1306 1.956 . S
O1366 Li1307 1.970 . S
O1366 C1336 1.325 . S
O1367 Li1305 1.961 . S
O1367 Li1306 1.970 . S
O1367 Li1307 1.956 . S
O1367 C1342 1.325 . S
H1368 C1310 0.929 . S
H1369 C1311 0.930 . S
H1370 C1312 0.930 . S
H1371 C1313 0.930 . S
H1372 C1315 0.930 . S
H1373 C1317 0.929 . S
H1374 C1318 0.930 . S
H1375 C1319 0.930 . S
H1376 C1322 0.930 . S
H1377 C1325 0.929 . S
H1378 C1330 0.929 . S
H1379 C1331 0.930 . S
H1380 C1338 0.929 . S
H1381 C1339 0.930 . S
H1382 C1340 0.930 . S
H1383 C1341 0.930 . S
H1384 C1343 0.929 . S
H1385 C1344 0.930 . S
H1386 C1345 0.930 . S
H1387 C1346 0.930 . S
H1388 C1350 0.929 . S
H1389 C1352 0.930 . S
H1390 C1358 0.929 . S
H1391 C1359 0.930 . S
Li1392 N1409 1.990 . S
Li1392 O1452 1.956 . S
Li1392 O1453 1.970 1_455 S
Li1392 O1454 1.961 . S
Li1393 N1417 1.990 . S
Li1393 O1452 1.970 1_655 S
Li1393 O1453 1.956 . S
Li1393 O1455 1.961 . S
Li1394 N1439 1.990 . S
Li1394 O1452 1.961 . S
Li1394 O1454 1.956 . S
Li1394 O1455 1.970 1_455 S
Li1395 N1445 1.990 . S
Li1395 O1453 1.961 . S
Li1395 O1454 1.970 1_655 S
Li1395 O1455 1.956 . S
C1396 C1398 1.348 1_455 S
C1396 C1399 1.356 . S
C1396 O1452 1.325 . S
N1397 C1400 1.314 1_455 S
N1397 C1401 1.279 . S
C1398 C1396 1.348 1_655 S
C1398 C1400 1.353 . S
C1398 H1456 0.929 . S
C1399 C1396 1.356 . S
C1399 C1401 1.358 . S
C1399 H1457 0.930 . S
C1400 N1397 1.314 1_655 S
C1400 C1398 1.353 . S
C1400 H1458 0.930 . S
C1401 N1397 1.279 . S
C1401 C1399 1.358 . S
C1401 H1459 0.930 . S
C1402 C1405 1.348 . S
C1402 C1406 1.356 . S
C1402 O1453 1.325 . S
C1403 N1404 1.279 . S
C1403 C1406 1.358 . S
C1403 H1460 0.930 . S
N1404 C1403 1.279 . S
N1404 C1407 1.314 . S
C1405 C1402 1.348 . S
C1405 C1407 1.353 . S
C1405 H1461 0.929 . S
C1406 C1402 1.356 . S
C1406 C1403 1.358 . S
C1406 H1462 0.930 . S
C1407 N1404 1.314 . S
C1407 C1405 1.353 . S
C1407 H1463 0.930 . S
C1408 N1409 1.314 . S
C1408 C1413 1.353 . S
C1408 H1414 0.930 . S
N1409 Li1392 1.990 . S
N1409 C1408 1.314 . S
N1409 C1411 1.279 . S
C1410 C1411 1.358 . S
C1410 C1412 1.356 . S
C1410 H1464 0.930 . S
C1411 N1409 1.279 . S
C1411 C1410 1.358 . S
C1411 H1415 0.930 . S
C1412 C1410 1.356 . S
C1412 C1413 1.348 . S
C1413 C1408 1.353 . S
C1413 C1412 1.348 . S
C1413 H1465 0.929 . S
H1414 C1408 0.930 . S
H1415 C1411 0.930 . S
C1416 N1417 1.314 . S
C1416 C1418 1.353 . S
C1416 H1422 0.930 . S
N1417 Li1393 1.990 . S
N1417 C1416 1.314 . S
N1417 C1420 1.279 . S
C1418 C1416 1.353 . S
C1418 C1421 1.348 . S
C1418 H1466 0.929 . S
C1419 C1420 1.358 . S
C1419 C1421 1.356 . S
C1419 H1467 0.930 . S
C1420 N1417 1.279 . S
C1420 C1419 1.358 . S
C1420 H1423 0.930 . S
C1421 C1418 1.348 . S
C1421 C1419 1.356 . S
H1422 C1416 0.930 . S
H1423 C1420 0.930 . S
C1424 C1426 1.348 . S
C1424 C1427 1.356 . S
C1424 O1454 1.325 . S
N1425 C1428 1.314 . S
N1425 C1429 1.279 . S
C1426 C1424 1.348 . S
C1426 C1428 1.353 . S
C1426 H1468 0.929 . S
C1427 C1424 1.356 . S
C1427 C1429 1.358 . S
C1427 H1469 0.930 . S
C1428 N1425 1.314 . S
C1428 C1426 1.353 . S
C1428 H1470 0.930 . S
C1429 N1425 1.279 . S
C1429 C1427 1.358 . S
C1429 H1471 0.930 . S
C1430 C1431 1.348 1_655 S
C1430 C1432 1.356 . S
C1430 O1455 1.325 . S
C1431 C1430 1.348 1_455 S
C1431 C1433 1.353 . S
C1431 H1472 0.929 . S
C1432 C1430 1.356 . S
C1432 C1434 1.358 . S
C1432 H1473 0.930 . S
C1433 C1431 1.353 . S
C1433 N1435 1.314 1_455 S
C1433 H1474 0.930 . S
C1434 C1432 1.358 . S
C1434 N1435 1.279 . S
C1434 H1475 0.930 . S
N1435 C1433 1.314 1_655 S
N1435 C1434 1.279 . S
C1436 C1438 1.353 . S
C1436 N1439 1.314 . S
C1436 H1442 0.930 . S
C1437 N1439 1.279 . S
C1437 C1440 1.358 . S
C1437 H1443 0.930 . S
C1438 C1436 1.353 . S
C1438 C1441 1.348 . S
C1438 H1476 0.929 . S
N1439 Li1394 1.990 . S
N1439 C1436 1.314 . S
N1439 C1437 1.279 . S
C1440 C1437 1.358 . S
C1440 C1441 1.356 . S
C1440 H1477 0.930 . S
C1441 C1438 1.348 . S
C1441 C1440 1.356 . S
H1442 C1436 0.930 . S
H1443 C1437 0.930 . S
C1444 N1445 1.314 . S
C1444 C1446 1.353 . S
C1444 H1450 0.930 . S
N1445 Li1395 1.990 . S
N1445 C1444 1.314 . S
N1445 C1448 1.279 . S
C1446 C1444 1.353 . S
C1446 C1449 1.348 . S
C1446 H1478 0.929 . S
C1447 C1448 1.358 . S
C1447 C1449 1.356 . S
C1447 H1479 0.930 . S
C1448 N1445 1.279 . S
C1448 C1447 1.358 . S
C1448 H1451 0.930 . S
C1449 C1446 1.348 . S
C1449 C1447 1.356 . S
H1450 C1444 0.930 . S
H1451 C1448 0.930 . S
O1452 Li1392 1.956 . S
O1452 Li1393 1.970 1_455 S
O1452 Li1394 1.961 . S
O1452 C1396 1.325 . S
O1453 Li1392 1.970 1_655 S
O1453 Li1393 1.956 . S
O1453 Li1395 1.961 . S
O1453 C1402 1.325 . S
O1454 Li1392 1.961 . S
O1454 Li1394 1.956 . S
O1454 Li1395 1.970 1_455 S
O1454 C1424 1.325 . S
O1455 Li1393 1.961 . S
O1455 Li1394 1.970 1_655 S
O1455 Li1395 1.956 . S
O1455 C1430 1.325 . S
H1456 C1398 0.929 . S
H1457 C1399 0.930 . S
H1458 C1400 0.930 . S
H1459 C1401 0.930 . S
H1460 C1403 0.930 . S
H1461 C1405 0.929 . S
H1462 C1406 0.930 . S
H1463 C1407 0.930 . S
H1464 C1410 0.930 . S
H1465 C1413 0.929 . S
H1466 C1418 0.929 . S
H1467 C1419 0.930 . S
H1468 C1426 0.929 . S
H1469 C1427 0.930 . S
H1470 C1428 0.930 . S
H1471 C1429 0.930 . S
H1472 C1431 0.929 . S
H1473 C1432 0.930 . S
H1474 C1433 0.930 . S
H1475 C1434 0.930 . S
H1476 C1438 0.929 . S
H1477 C1440 0.930 . S
H1478 C1446 0.929 . S
H1479 C1447 0.930 . S
Li1480 N1497 1.990 . S
Li1480 O1540 1.956 . S
Li1480 O1541 1.970 . S
Li1480 O1542 1.961 . S
Li1481 N1505 1.990 . S
Li1481 O1540 1.970 . S
Li1481 O1541 1.956 . S
Li1481 O1543 1.961 . S
Li1482 N1527 1.990 . S
Li1482 O1540 1.961 . S
Li1482 O1542 1.956 . S
Li1482 O1543 1.970 . S
Li1483 N1533 1.990 . S
Li1483 O1541 1.961 . S
Li1483 O1542 1.970 . S
Li1483 O1543 1.956 . S
C1484 C1486 1.348 . S
C1484 C1487 1.356 . S
C1484 O1540 1.325 . S
N1485 C1488 1.314 . S
N1485 C1489 1.279 . S
C1486 C1484 1.348 . S
C1486 C1488 1.353 . S
C1486 H1544 0.929 . S
C1487 C1484 1.356 . S
C1487 C1489 1.358 . S
C1487 H1545 0.930 . S
C1488 N1485 1.314 . S
C1488 C1486 1.353 . S
C1488 H1546 0.930 . S
C1489 N1485 1.279 . S
C1489 C1487 1.358 . S
C1489 H1547 0.930 . S
C1490 C1493 1.348 . S
C1490 C1494 1.356 . S
C1490 O1541 1.325 . S
C1491 N1492 1.279 . S
C1491 C1494 1.358 . S
C1491 H1548 0.930 . S
N1492 C1491 1.279 . S
N1492 C1495 1.314 . S
C1493 C1490 1.348 . S
C1493 C1495 1.353 . S
C1493 H1549 0.929 . S
C1494 C1490 1.356 . S
C1494 C1491 1.358 . S
C1494 H1550 0.930 . S
C1495 N1492 1.314 . S
C1495 C1493 1.353 . S
C1495 H1551 0.930 . S
C1496 N1497 1.314 . S
C1496 C1501 1.353 . S
C1496 H1502 0.930 . S
N1497 Li1480 1.990 . S
N1497 C1496 1.314 . S
N1497 C1499 1.279 . S
C1498 C1499 1.358 . S
C1498 C1500 1.356 . S
C1498 H1552 0.930 . S
C1499 N1497 1.279 . S
C1499 C1498 1.358 . S
C1499 H1503 0.930 . S
C1500 C1498 1.356 . S
C1500 C1501 1.348 . S
C1501 C1496 1.353 . S
C1501 C1500 1.348 . S
C1501 H1553 0.929 . S
H1502 C1496 0.930 . S
H1503 C1499 0.930 . S
C1504 N1505 1.314 . S
C1504 C1506 1.353 . S
C1504 H1510 0.930 . S
N1505 Li1481 1.990 . S
N1505 C1504 1.314 . S
N1505 C1508 1.279 . S
C1506 C1504 1.353 . S
C1506 C1509 1.348 . S
C1506 H1554 0.929 . S
C1507 C1508 1.358 . S
C1507 C1509 1.356 . S
C1507 H1555 0.930 . S
C1508 N1505 1.279 . S
C1508 C1507 1.358 . S
C1508 H1511 0.930 . S
C1509 C1506 1.348 . S
C1509 C1507 1.356 . S
H1510 C1504 0.930 . S
H1511 C1508 0.930 . S
C1512 C1514 1.348 . S
C1512 C1515 1.356 . S
C1512 O1542 1.325 . S
N1513 C1516 1.314 . S
N1513 C1517 1.279 . S
C1514 C1512 1.348 . S
C1514 C1516 1.353 . S
C1514 H1556 0.929 . S
C1515 C1512 1.356 . S
C1515 C1517 1.358 . S
C1515 H1557 0.930 . S
C1516 N1513 1.314 . S
C1516 C1514 1.353 . S
C1516 H1558 0.930 . S
C1517 N1513 1.279 . S
C1517 C1515 1.358 . S
C1517 H1559 0.930 . S
C1518 C1519 1.348 . S
C1518 C1520 1.356 . S
C1518 O1543 1.325 . S
C1519 C1518 1.348 . S
C1519 C1521 1.353 . S
C1519 H1560 0.929 . S
C1520 C1518 1.356 . S
C1520 C1522 1.358 . S
C1520 H1561 0.930 . S
C1521 C1519 1.353 . S
C1521 N1523 1.314 . S
C1521 H1562 0.930 . S
C1522 C1520 1.358 . S
C1522 N1523 1.279 . S
C1522 H1563 0.930 . S
N1523 C1521 1.314 . S
N1523 C1522 1.279 . S
C1524 C1526 1.353 . S
C1524 N1527 1.314 . S
C1524 H1530 0.930 . S
C1525 N1527 1.279 . S
C1525 C1528 1.358 . S
C1525 H1531 0.930 . S
C1526 C1524 1.353 . S
C1526 C1529 1.348 . S
C1526 H1564 0.929 . S
N1527 Li1482 1.990 . S
N1527 C1524 1.314 . S
N1527 C1525 1.279 . S
C1528 C1525 1.358 . S
C1528 C1529 1.356 . S
C1528 H1565 0.930 . S
C1529 C1526 1.348 . S
C1529 C1528 1.356 . S
H1530 C1524 0.930 . S
H1531 C1525 0.930 . S
C1532 N1533 1.314 . S
C1532 C1534 1.353 . S
C1532 H1538 0.930 . S
N1533 Li1483 1.990 . S
N1533 C1532 1.314 . S
N1533 C1536 1.279 . S
C1534 C1532 1.353 . S
C1534 C1537 1.348 . S
C1534 H1566 0.929 . S
C1535 C1536 1.358 . S
C1535 C1537 1.356 . S
C1535 H1567 0.930 . S
C1536 N1533 1.279 . S
C1536 C1535 1.358 . S
C1536 H1539 0.930 . S
C1537 C1534 1.348 . S
C1537 C1535 1.356 . S
H1538 C1532 0.930 . S
H1539 C1536 0.930 . S
O1540 Li1480 1.956 . S
O1540 Li1481 1.970 . S
O1540 Li1482 1.961 . S
O1540 C1484 1.325 . S
O1541 Li1480 1.970 . S
O1541 Li1481 1.956 . S
O1541 Li1483 1.961 . S
O1541 C1490 1.325 . S
O1542 Li1480 1.961 . S
O1542 Li1482 1.956 . S
O1542 Li1483 1.970 . S
O1542 C1512 1.325 . S
O1543 Li1481 1.961 . S
O1543 Li1482 1.970 . S
O1543 Li1483 1.956 . S
O1543 C1518 1.325 . S
H1544 C1486 0.929 . S
H1545 C1487 0.930 . S
H1546 C1488 0.930 . S
H1547 C1489 0.930 . S
H1548 C1491 0.930 . S
H1549 C1493 0.929 . S
H1550 C1494 0.930 . S
H1551 C1495 0.930 . S
H1552 C1498 0.930 . S
H1553 C1501 0.929 . S
H1554 C1506 0.929 . S
H1555 C1507 0.930 . S
H1556 C1514 0.929 . S
H1557 C1515 0.930 . S
H1558 C1516 0.930 . S
H1559 C1517 0.930 . S
H1560 C1519 0.929 . S
H1561 C1520 0.930 . S
H1562 C1521 0.930 . S
H1563 C1522 0.930 . S
H1564 C1526 0.929 . S
H1565 C1528 0.930 . S
H1566 C1534 0.929 . S
H1567 C1535 0.930 . S
C1568 C1569 1.391 . S
C1568 C1570 1.394 . S
C1568 H1584 0.931 . S
C1569 C1568 1.391 . S
C1569 C1573 1.376 . S
C1570 C1568 1.394 . S
C1570 C1571 1.369 . S
C1570 C1574 1.531 . S
C1571 C1570 1.369 . S
C1571 C1572 1.410 . S
C1571 C1579 1.503 . S
C1572 C1571 1.410 . S
C1572 C1573 1.392 . S
C1572 C1575 1.511 . S
C1573 C1569 1.376 . S
C1573 C1572 1.392 . S
C1573 H1585 0.929 . S
C1574 C1570 1.531 . S
C1574 H1586 0.960 . S
C1574 H1587 0.962 . S
C1574 H1588 0.960 . S
C1575 C1572 1.511 . S
C1575 H1589 0.961 . S
C1575 H1590 0.961 . S
C1575 H1591 0.961 . S
C1576 C1577 1.370 . S
C1576 C1578 1.363 . S
C1576 H1592 0.931 . S
C1577 C1576 1.370 . S
C1577 C1581 1.408 . S
C1578 C1576 1.363 . S
C1578 C1579 1.370 . S
C1578 C1582 1.524 . S
C1579 C1571 1.503 . S
C1579 C1578 1.370 . S
C1579 C1580 1.403 . S
C1580 C1579 1.403 . S
C1580 C1581 1.404 . S
C1580 C1583 1.539 . S
C1581 C1577 1.408 . S
C1581 C1580 1.404 . S
C1581 H1593 0.930 . S
C1582 C1578 1.524 . S
C1582 H1594 0.956 . S
C1582 H1595 0.961 . S
C1582 H1596 0.961 . S
C1583 C1580 1.539 . S
C1583 H1597 0.958 . S
C1583 H1598 0.961 . S
C1583 H1599 0.960 . S
H1584 C1568 0.931 . S
H1585 C1573 0.929 . S
H1586 C1574 0.960 . S
H1587 C1574 0.962 . S
H1588 C1574 0.960 . S
H1589 C1575 0.961 . S
H1590 C1575 0.961 . S
H1591 C1575 0.961 . S
H1592 C1576 0.931 . S
H1593 C1581 0.930 . S
H1594 C1582 0.956 . S
H1595 C1582 0.961 . S
H1596 C1582 0.961 . S
H1597 C1583 0.958 . S
H1598 C1583 0.961 . S
H1599 C1583 0.960 . S
C1600 C1601 1.391 . S
C1600 C1602 1.394 . S
C1600 H1616 0.931 . S
C1601 C1600 1.391 . S
C1601 C1605 1.376 . S
C1602 C1600 1.394 . S
C1602 C1603 1.369 . S
C1602 C1606 1.531 . S
C1603 C1602 1.369 . S
C1603 C1604 1.410 . S
C1603 C1611 1.503 . S
C1604 C1603 1.410 . S
C1604 C1605 1.392 . S
C1604 C1607 1.511 . S
C1605 C1601 1.376 . S
C1605 C1604 1.392 . S
C1605 H1617 0.929 1_455 S
C1606 C1602 1.531 . S
C1606 H1618 0.960 . S
C1606 H1619 0.962 . S
C1606 H1620 0.960 . S
C1607 C1604 1.511 . S
C1607 H1621 0.961 1_455 S
C1607 H1622 0.961 . S
C1607 H1623 0.961 . S
C1608 C1609 1.370 . S
C1608 C1610 1.363 . S
C1608 H1624 0.931 . S
C1609 C1608 1.370 . S
C1609 C1613 1.408 . S
C1610 C1608 1.363 . S
C1610 C1611 1.370 . S
C1610 C1614 1.524 . S
C1611 C1603 1.503 . S
C1611 C1610 1.370 . S
C1611 C1612 1.403 . S
C1612 C1611 1.403 . S
C1612 C1613 1.404 . S
C1612 C1615 1.539 . S
C1613 C1609 1.408 . S
C1613 C1612 1.404 . S
C1613 H1625 0.930 . S
C1614 C1610 1.524 . S
C1614 H1626 0.956 . S
C1614 H1627 0.961 . S
C1614 H1628 0.961 . S
C1615 C1612 1.539 . S
C1615 H1629 0.958 . S
C1615 H1630 0.961 . S
C1615 H1631 0.960 . S
H1616 C1600 0.931 . S
H1617 C1605 0.929 1_655 S
H1618 C1606 0.960 . S
H1619 C1606 0.962 . S
H1620 C1606 0.960 . S
H1621 C1607 0.961 1_655 S
H1622 C1607 0.961 . S
H1623 C1607 0.961 . S
H1624 C1608 0.931 . S
H1625 C1613 0.930 . S
H1626 C1614 0.956 . S
H1627 C1614 0.961 . S
H1628 C1614 0.961 . S
H1629 C1615 0.958 . S
H1630 C1615 0.961 . S
H1631 C1615 0.960 . S
C1632 C1633 1.391 . S
C1632 C1634 1.394 . S
C1632 H1648 0.931 . S
C1633 C1632 1.391 . S
C1633 C1637 1.376 . S
C1634 C1632 1.394 . S
C1634 C1635 1.369 . S
C1634 C1638 1.531 . S
C1635 C1634 1.369 . S
C1635 C1636 1.410 . S
C1635 C1643 1.503 . S
C1636 C1635 1.410 . S
C1636 C1637 1.392 . S
C1636 C1639 1.511 . S
C1637 C1633 1.376 . S
C1637 C1636 1.392 . S
C1637 H1649 0.929 . S
C1638 C1634 1.531 . S
C1638 H1650 0.960 . S
C1638 H1651 0.962 . S
C1638 H1652 0.960 . S
C1639 C1636 1.511 . S
C1639 H1653 0.961 . S
C1639 H1654 0.961 . S
C1639 H1655 0.961 . S
C1640 C1641 1.370 . S
C1640 C1642 1.363 . S
C1640 H1656 0.931 . S
C1641 C1640 1.370 . S
C1641 C1645 1.408 . S
C1642 C1640 1.363 . S
C1642 C1643 1.370 . S
C1642 C1646 1.524 . S
C1643 C1635 1.503 . S
C1643 C1642 1.370 . S
C1643 C1644 1.403 . S
C1644 C1643 1.403 . S
C1644 C1645 1.404 . S
C1644 C1647 1.539 . S
C1645 C1641 1.408 . S
C1645 C1644 1.404 . S
C1645 H1657 0.930 . S
C1646 C1642 1.524 . S
C1646 H1658 0.956 . S
C1646 H1659 0.961 . S
C1646 H1660 0.961 . S
C1647 C1644 1.539 . S
C1647 H1661 0.958 . S
C1647 H1662 0.961 . S
C1647 H1663 0.960 . S
H1648 C1632 0.931 . S
H1649 C1637 0.929 . S
H1650 C1638 0.960 . S
H1651 C1638 0.962 . S
H1652 C1638 0.960 . S
H1653 C1639 0.961 . S
H1654 C1639 0.961 . S
H1655 C1639 0.961 . S
H1656 C1640 0.931 . S
H1657 C1645 0.930 . S
H1658 C1646 0.956 . S
H1659 C1646 0.961 . S
H1660 C1646 0.961 . S
H1661 C1647 0.958 . S
H1662 C1647 0.961 . S
H1663 C1647 0.960 . S
C1664 C1665 1.391 . S
C1664 C1666 1.394 . S
C1664 H1680 0.931 . S
C1665 C1664 1.391 . S
C1665 C1669 1.376 . S
C1666 C1664 1.394 . S
C1666 C1667 1.369 . S
C1666 C1670 1.531 1_565 S
C1667 C1666 1.369 . S
C1667 C1668 1.410 . S
C1667 C1675 1.503 . S
C1668 C1667 1.410 . S
C1668 C1669 1.392 . S
C1668 C1671 1.511 . S
C1669 C1665 1.376 . S
C1669 C1668 1.392 . S
C1669 H1681 0.929 1_655 S
C1670 C1666 1.531 1_545 S
C1670 H1682 0.960 . S
C1670 H1683 0.962 1_545 S
C1670 H1684 0.960 . S
C1671 C1668 1.511 . S
C1671 H1685 0.961 1_655 S
C1671 H1686 0.961 . S
C1671 H1687 0.960 . S
C1672 C1673 1.370 . S
C1672 C1674 1.363 . S
C1672 H1688 0.931 . S
C1673 C1672 1.370 . S
C1673 C1677 1.408 1_565 S
C1674 C1672 1.363 . S
C1674 C1675 1.370 . S
C1674 C1678 1.524 . S
C1675 C1667 1.503 . S
C1675 C1674 1.370 . S
C1675 C1676 1.403 1_565 S
C1676 C1675 1.403 1_545 S
C1676 C1677 1.404 . S
C1676 C1679 1.539 . S
C1677 C1673 1.408 1_545 S
C1677 C1676 1.404 . S
C1677 H1689 0.930 . S
C1678 C1674 1.524 . S
C1678 H1690 0.956 . S
C1678 H1691 0.961 . S
C1678 H1692 0.961 . S
C1679 C1676 1.539 . S
C1679 H1693 0.958 . S
C1679 H1694 0.961 . S
C1679 H1695 0.960 . S
H1680 C1664 0.931 . S
H1681 C1669 0.929 1_455 S
H1682 C1670 0.960 . S
H1683 C1670 0.962 1_565 S
H1684 C1670 0.960 . S
H1685 C1671 0.961 1_455 S
H1686 C1671 0.961 . S
H1687 C1671 0.960 . S
H1688 C1672 0.931 . S
H1689 C1677 0.930 . S
H1690 C1678 0.956 . S
H1691 C1678 0.961 . S
H1692 C1678 0.961 . S
H1693 C1679 0.958 . S
H1694 C1679 0.961 . S
H1695 C1679 0.960 . S
C1696 C1697 1.391 . S
C1696 C1698 1.394 . S
C1696 H1712 0.931 . S
C1697 C1696 1.391 . S
C1697 C1701 1.376 . S
C1698 C1696 1.394 . S
C1698 C1699 1.369 . S
C1698 C1702 1.531 . S
C1699 C1698 1.369 . S
C1699 C1700 1.410 . S
C1699 C1707 1.503 . S
C1700 C1699 1.410 . S
C1700 C1701 1.392 . S
C1700 C1703 1.511 . S
C1701 C1697 1.376 . S
C1701 C1700 1.392 . S
C1701 H1713 0.929 . S
C1702 C1698 1.531 . S
C1702 H1714 0.960 . S
C1702 H1715 0.962 . S
C1702 H1716 0.960 . S
C1703 C1700 1.511 . S
C1703 H1717 0.961 . S
C1703 H1718 0.961 . S
C1703 H1719 0.961 . S
C1704 C1705 1.370 . S
C1704 C1706 1.363 . S
C1704 H1720 0.931 . S
C1705 C1704 1.370 . S
C1705 C1709 1.408 . S
C1706 C1704 1.363 . S
C1706 C1707 1.370 . S
C1706 C1710 1.524 . S
C1707 C1699 1.503 . S
C1707 C1706 1.370 . S
C1707 C1708 1.403 . S
C1708 C1707 1.403 . S
C1708 C1709 1.404 . S
C1708 C1711 1.539 . S
C1709 C1705 1.408 . S
C1709 C1708 1.404 . S
C1709 H1721 0.930 . S
C1710 C1706 1.524 . S
C1710 H1722 0.956 . S
C1710 H1723 0.961 . S
C1710 H1724 0.961 . S
C1711 C1708 1.539 . S
C1711 H1725 0.958 . S
C1711 H1726 0.961 . S
C1711 H1727 0.960 . S
H1712 C1696 0.931 . S
H1713 C1701 0.929 . S
H1714 C1702 0.960 . S
H1715 C1702 0.962 . S
H1716 C1702 0.960 . S
H1717 C1703 0.961 . S
H1718 C1703 0.961 . S
H1719 C1703 0.961 . S
H1720 C1704 0.931 . S
H1721 C1709 0.930 . S
H1722 C1710 0.956 . S
H1723 C1710 0.961 . S
H1724 C1710 0.961 . S
H1725 C1711 0.958 . S
H1726 C1711 0.961 . S
H1727 C1711 0.960 . S
C1728 C1729 1.391 . S
C1728 C1730 1.394 . S
C1728 H1744 0.931 . S
C1729 C1728 1.391 . S
C1729 C1733 1.376 . S
C1730 C1728 1.394 . S
C1730 C1731 1.369 . S
C1730 C1734 1.531 . S
C1731 C1730 1.369 . S
C1731 C1732 1.410 . S
C1731 C1739 1.503 . S
C1732 C1731 1.410 . S
C1732 C1733 1.392 . S
C1732 C1735 1.511 . S
C1733 C1729 1.376 . S
C1733 C1732 1.392 . S
C1733 H1745 0.929 . S
C1734 C1730 1.531 . S
C1734 H1746 0.960 . S
C1734 H1747 0.962 . S
C1734 H1748 0.960 . S
C1735 C1732 1.511 . S
C1735 H1749 0.961 . S
C1735 H1750 0.961 . S
C1735 H1751 0.961 . S
C1736 C1737 1.370 . S
C1736 C1738 1.363 . S
C1736 H1752 0.931 . S
C1737 C1736 1.370 . S
C1737 C1741 1.408 . S
C1738 C1736 1.363 . S
C1738 C1739 1.370 . S
C1738 C1742 1.524 . S
C1739 C1731 1.503 . S
C1739 C1738 1.370 . S
C1739 C1740 1.403 . S
C1740 C1739 1.403 . S
C1740 C1741 1.404 . S
C1740 C1743 1.539 . S
C1741 C1737 1.408 . S
C1741 C1740 1.404 . S
C1741 H1753 0.930 . S
C1742 C1738 1.524 . S
C1742 H1754 0.956 . S
C1742 H1755 0.961 . S
C1742 H1756 0.961 . S
C1743 C1740 1.539 . S
C1743 H1757 0.958 . S
C1743 H1758 0.961 . S
C1743 H1759 0.960 . S
H1744 C1728 0.931 . S
H1745 C1733 0.929 . S
H1746 C1734 0.960 . S
H1747 C1734 0.962 . S
H1748 C1734 0.960 . S
H1749 C1735 0.961 . S
H1750 C1735 0.961 . S
H1751 C1735 0.961 . S
H1752 C1736 0.931 . S
H1753 C1741 0.930 . S
H1754 C1742 0.956 . S
H1755 C1742 0.961 . S
H1756 C1742 0.961 . S
H1757 C1743 0.958 . S
H1758 C1743 0.961 . S
H1759 C1743 0.960 . S
C1760 C1761 1.391 . S
C1760 C1762 1.394 . S
C1760 H1776 0.931 . S
C1761 C1760 1.391 . S
C1761 C1765 1.376 . S
C1762 C1760 1.394 . S
C1762 C1763 1.369 . S
C1762 C1766 1.531 . S
C1763 C1762 1.369 . S
C1763 C1764 1.410 . S
C1763 C1771 1.503 . S
C1764 C1763 1.410 . S
C1764 C1765 1.392 . S
C1764 C1767 1.511 . S
C1765 C1761 1.376 . S
C1765 C1764 1.392 . S
C1765 H1777 0.929 . S
C1766 C1762 1.531 . S
C1766 H1778 0.960 . S
C1766 H1779 0.962 . S
C1766 H1780 0.960 . S
C1767 C1764 1.511 . S
C1767 H1781 0.961 . S
C1767 H1782 0.961 . S
C1767 H1783 0.961 . S
C1768 C1769 1.370 . S
C1768 C1770 1.363 . S
C1768 H1784 0.931 . S
C1769 C1768 1.370 . S
C1769 C1773 1.408 . S
C1770 C1768 1.363 . S
C1770 C1771 1.370 . S
C1770 C1774 1.524 . S
C1771 C1763 1.503 . S
C1771 C1770 1.370 . S
C1771 C1772 1.403 . S
C1772 C1771 1.403 . S
C1772 C1773 1.404 . S
C1772 C1775 1.539 . S
C1773 C1769 1.408 . S
C1773 C1772 1.404 . S
C1773 H1785 0.930 . S
C1774 C1770 1.524 . S
C1774 H1786 0.956 . S
C1774 H1787 0.961 . S
C1774 H1788 0.961 . S
C1775 C1772 1.539 . S
C1775 H1789 0.958 . S
C1775 H1790 0.961 . S
C1775 H1791 0.960 . S
H1776 C1760 0.931 . S
H1777 C1765 0.929 . S
H1778 C1766 0.960 . S
H1779 C1766 0.962 . S
H1780 C1766 0.960 . S
H1781 C1767 0.961 . S
H1782 C1767 0.961 . S
H1783 C1767 0.961 . S
H1784 C1768 0.931 . S
H1785 C1773 0.930 . S
H1786 C1774 0.956 . S
H1787 C1774 0.961 . S
H1788 C1774 0.961 . S
H1789 C1775 0.958 . S
H1790 C1775 0.961 . S
H1791 C1775 0.960 . S
C1792 C1793 1.391 . S
C1792 C1794 1.394 . S
C1792 H1808 0.931 . S
C1793 C1792 1.391 . S
C1793 C1797 1.376 . S
C1794 C1792 1.394 . S
C1794 C1795 1.369 . S
C1794 C1798 1.531 . S
C1795 C1794 1.369 . S
C1795 C1796 1.375 1_565 S
C1795 C1803 1.503 . S
C1796 C1795 1.375 1_545 S
C1796 C1797 1.388 1_545 S
C1796 C1799 1.551 . S
C1797 C1793 1.376 . S
C1797 C1796 1.388 1_565 S
C1797 H1809 0.929 1_565 S
C1798 C1794 1.531 . S
C1798 H1810 0.960 . S
C1798 H1811 0.962 . S
C1798 H1812 0.960 . S
C1799 C1796 1.551 . S
C1799 H1813 0.961 . S
C1799 H1814 0.961 . S
C1799 H1815 0.961 . S
C1800 C1801 1.370 . S
C1800 C1802 1.363 . S
C1800 H1816 0.931 . S
C1801 C1800 1.370 . S
C1801 C1805 1.408 . S
C1802 C1800 1.363 . S
C1802 C1803 1.370 . S
C1802 C1806 1.524 . S
C1803 C1795 1.503 . S
C1803 C1802 1.370 . S
C1803 C1804 1.403 . S
C1804 C1803 1.403 . S
C1804 C1805 1.404 . S
C1804 C1807 1.539 . S
C1805 C1801 1.408 . S
C1805 C1804 1.404 . S
C1805 H1817 0.930 . S
C1806 C1802 1.524 . S
C1806 H1818 0.956 . S
C1806 H1819 0.961 . S
C1806 H1820 0.961 . S
C1807 C1804 1.539 . S
C1807 H1821 0.958 . S
C1807 H1822 0.961 . S
C1807 H1823 0.960 . S
H1808 C1792 0.931 . S
H1809 C1797 0.929 1_545 S
H1810 C1798 0.960 . S
H1811 C1798 0.962 . S
H1812 C1798 0.960 . S
H1813 C1799 0.961 . S
H1814 C1799 0.961 . S
H1815 C1799 0.961 . S
H1816 C1800 0.931 . S
H1817 C1805 0.930 . S
H1818 C1806 0.956 . S
H1819 C1806 0.961 . S
H1820 C1806 0.961 . S
H1821 C1807 0.958 . S
H1822 C1807 0.961 . S
H1823 C1807 0.960 . S
C1824 C1825 1.391 . S
C1824 C1826 1.394 . S
C1824 H1840 0.931 . S
C1825 C1824 1.391 . S
C1825 C1829 1.376 . S
C1826 C1824 1.394 . S
C1826 C1827 1.369 . S
C1826 C1830 1.531 . S
C1827 C1826 1.369 . S
C1827 C1828 1.410 . S
C1827 C1835 1.503 . S
C1828 C1827 1.410 . S
C1828 C1829 1.392 . S
C1828 C1831 1.511 . S
C1829 C1825 1.376 . S
C1829 C1828 1.392 . S
C1829 H1841 0.929 . S
C1830 C1826 1.531 . S
C1830 H1842 0.960 . S
C1830 H1843 0.962 . S
C1830 H1844 0.960 . S
C1831 C1828 1.511 . S
C1831 H1845 0.961 . S
C1831 H1846 0.961 . S
C1831 H1847 0.961 . S
C1832 C1833 1.370 . S
C1832 C1834 1.363 . S
C1832 H1848 0.931 . S
C1833 C1832 1.370 . S
C1833 C1837 1.408 . S
C1834 C1832 1.363 . S
C1834 C1835 1.370 . S
C1834 C1838 1.524 . S
C1835 C1827 1.503 . S
C1835 C1834 1.370 . S
C1835 C1836 1.403 . S
C1836 C1835 1.403 . S
C1836 C1837 1.404 . S
C1836 C1839 1.539 . S
C1837 C1833 1.408 . S
C1837 C1836 1.404 . S
C1837 H1849 0.930 . S
C1838 C1834 1.524 . S
C1838 H1850 0.956 . S
C1838 H1851 0.961 . S
C1838 H1852 0.961 . S
C1839 C1836 1.539 . S
C1839 H1853 0.958 . S
C1839 H1854 0.961 . S
C1839 H1855 0.960 . S
H1840 C1824 0.931 . S
H1841 C1829 0.929 . S
H1842 C1830 0.960 . S
H1843 C1830 0.962 . S
H1844 C1830 0.960 . S
H1845 C1831 0.961 . S
H1846 C1831 0.961 . S
H1847 C1831 0.961 . S
H1848 C1832 0.931 . S
H1849 C1837 0.930 . S
H1850 C1838 0.956 . S
H1851 C1838 0.961 . S
H1852 C1838 0.961 . S
H1853 C1839 0.958 . S
H1854 C1839 0.961 . S
H1855 C1839 0.960 . S
C1856 C1857 1.391 . S
C1856 C1858 1.394 . S
C1856 H1872 0.931 . S
C1857 C1856 1.391 . S
C1857 C1861 1.376 . S
C1858 C1856 1.394 . S
C1858 C1859 1.369 . S
C1858 C1862 1.531 . S
C1859 C1858 1.369 . S
C1859 C1860 1.410 . S
C1859 C1867 1.503 . S
C1860 C1859 1.410 . S
C1860 C1861 1.392 . S
C1860 C1863 1.511 . S
C1861 C1857 1.376 . S
C1861 C1860 1.392 . S
C1861 H1873 0.929 . S
C1862 C1858 1.531 . S
C1862 H1874 0.960 . S
C1862 H1875 0.962 . S
C1862 H1876 0.960 . S
C1863 C1860 1.511 . S
C1863 H1877 0.961 . S
C1863 H1878 0.961 . S
C1863 H1879 0.961 . S
C1864 C1865 1.370 . S
C1864 C1866 1.363 . S
C1864 H1880 0.931 . S
C1865 C1864 1.370 . S
C1865 C1869 1.408 . S
C1866 C1864 1.363 . S
C1866 C1867 1.370 . S
C1866 C1870 1.524 . S
C1867 C1859 1.503 . S
C1867 C1866 1.370 . S
C1867 C1868 1.403 . S
C1868 C1867 1.403 . S
C1868 C1869 1.404 . S
C1868 C1871 1.539 . S
C1869 C1865 1.408 . S
C1869 C1868 1.404 . S
C1869 H1881 0.930 . S
C1870 C1866 1.524 . S
C1870 H1882 0.956 . S
C1870 H1883 0.961 . S
C1870 H1884 0.961 . S
C1871 C1868 1.539 . S
C1871 H1885 0.958 . S
C1871 H1886 0.961 . S
C1871 H1887 0.960 . S
H1872 C1856 0.931 . S
H1873 C1861 0.929 . S
H1874 C1862 0.960 . S
H1875 C1862 0.962 . S
H1876 C1862 0.960 . S
H1877 C1863 0.961 . S
H1878 C1863 0.961 . S
H1879 C1863 0.961 . S
H1880 C1864 0.931 . S
H1881 C1869 0.930 . S
H1882 C1870 0.956 . S
H1883 C1870 0.961 . S
H1884 C1870 0.961 . S
H1885 C1871 0.958 . S
H1886 C1871 0.961 . S
H1887 C1871 0.960 . S
C1888 C1889 1.391 . S
C1888 C1890 1.394 . S
C1888 H1904 0.931 . S
C1889 C1888 1.391 . S
C1889 C1893 1.376 . S
C1890 C1888 1.394 . S
C1890 C1891 1.369 . S
C1890 C1894 1.531 . S
C1891 C1890 1.369 . S
C1891 C1892 1.410 . S
C1891 C1899 1.503 . S
C1892 C1891 1.410 . S
C1892 C1893 1.392 . S
C1892 C1895 1.511 . S
C1893 C1889 1.376 . S
C1893 C1892 1.392 . S
C1893 H1905 0.929 . S
C1894 C1890 1.531 . S
C1894 H1906 0.960 . S
C1894 H1907 0.962 . S
C1894 H1908 0.960 . S
C1895 C1892 1.511 . S
C1895 H1909 0.961 . S
C1895 H1910 0.961 . S
C1895 H1911 0.961 . S
C1896 C1897 1.370 . S
C1896 C1898 1.363 . S
C1896 H1912 0.931 . S
C1897 C1896 1.370 . S
C1897 C1901 1.408 . S
C1898 C1896 1.363 . S
C1898 C1899 1.370 . S
C1898 C1902 1.524 . S
C1899 C1891 1.503 . S
C1899 C1898 1.370 . S
C1899 C1900 1.403 . S
C1900 C1899 1.403 . S
C1900 C1901 1.404 . S
C1900 C1903 1.539 . S
C1901 C1897 1.408 . S
C1901 C1900 1.404 . S
C1901 H1913 0.930 . S
C1902 C1898 1.524 . S
C1902 H1914 0.956 . S
C1902 H1915 0.961 . S
C1902 H1916 0.961 . S
C1903 C1900 1.539 . S
C1903 H1917 0.958 . S
C1903 H1918 0.961 . S
C1903 H1919 0.960 . S
H1904 C1888 0.931 . S
H1905 C1893 0.929 . S
H1906 C1894 0.960 . S
H1907 C1894 0.962 . S
H1908 C1894 0.960 . S
H1909 C1895 0.961 . S
H1910 C1895 0.961 . S
H1911 C1895 0.961 . S
H1912 C1896 0.931 . S
H1913 C1901 0.930 . S
H1914 C1902 0.956 . S
H1915 C1902 0.961 . S
H1916 C1902 0.961 . S
H1917 C1903 0.958 . S
H1918 C1903 0.961 . S
H1919 C1903 0.960 . S
C1920 C1921 1.391 . S
C1920 C1922 1.394 . S
C1920 H1936 0.931 . S
C1921 C1920 1.391 . S
C1921 C1925 1.376 . S
C1922 C1920 1.394 . S
C1922 C1923 1.369 . S
C1922 C1926 1.531 . S
C1923 C1922 1.369 . S
C1923 C1924 1.410 . S
C1923 C1931 1.503 . S
C1924 C1923 1.410 . S
C1924 C1925 1.392 . S
C1924 C1927 1.511 . S
C1925 C1921 1.376 . S
C1925 C1924 1.392 . S
C1925 H1937 0.929 . S
C1926 C1922 1.531 . S
C1926 H1938 0.960 . S
C1926 H1939 0.962 . S
C1926 H1940 0.960 . S
C1927 C1924 1.511 . S
C1927 H1941 0.961 . S
C1927 H1942 0.961 . S
C1927 H1943 0.961 . S
C1928 C1929 1.370 . S
C1928 C1930 1.363 . S
C1928 H1944 0.931 . S
C1929 C1928 1.370 . S
C1929 C1933 1.408 . S
C1930 C1928 1.363 . S
C1930 C1931 1.370 . S
C1930 C1934 1.524 . S
C1931 C1923 1.503 . S
C1931 C1930 1.370 . S
C1931 C1932 1.403 . S
C1932 C1931 1.403 . S
C1932 C1933 1.404 . S
C1932 C1935 1.539 . S
C1933 C1929 1.408 . S
C1933 C1932 1.404 . S
C1933 H1945 0.930 . S
C1934 C1930 1.524 . S
C1934 H1946 0.956 . S
C1934 H1947 0.961 . S
C1934 H1948 0.961 . S
C1935 C1932 1.539 . S
C1935 H1949 0.958 . S
C1935 H1950 0.961 . S
C1935 H1951 0.960 . S
H1936 C1920 0.931 . S
H1937 C1925 0.929 . S
H1938 C1926 0.960 . S
H1939 C1926 0.962 . S
H1940 C1926 0.960 . S
H1941 C1927 0.961 . S
H1942 C1927 0.961 . S
H1943 C1927 0.961 . S
H1944 C1928 0.931 . S
H1945 C1933 0.930 . S
H1946 C1934 0.956 . S
H1947 C1934 0.961 . S
H1948 C1934 0.961 . S
H1949 C1935 0.958 . S
H1950 C1935 0.961 . S
H1951 C1935 0.960 . S
C1952 C1953 1.391 . S
C1952 C1954 1.394 . S
C1952 H1968 0.931 . S
C1953 C1952 1.391 . S
C1953 C1957 1.376 . S
C1954 C1952 1.394 . S
C1954 C1955 1.369 . S
C1954 C1958 1.531 . S
C1955 C1954 1.369 . S
C1955 C1956 1.410 . S
C1955 C1963 1.503 . S
C1956 C1955 1.410 . S
C1956 C1957 1.392 . S
C1956 C1959 1.511 . S
C1957 C1953 1.376 . S
C1957 C1956 1.392 . S
C1957 H1969 0.929 . S
C1958 C1954 1.531 . S
C1958 H1970 0.960 . S
C1958 H1971 0.962 . S
C1958 H1972 0.960 . S
C1959 C1956 1.511 . S
C1959 H1973 0.961 . S
C1959 H1974 0.961 . S
C1959 H1975 0.961 . S
C1960 C1961 1.370 . S
C1960 C1962 1.363 . S
C1960 H1976 0.931 . S
C1961 C1960 1.370 . S
C1961 C1965 1.408 . S
C1962 C1960 1.363 . S
C1962 C1963 1.370 . S
C1962 C1966 1.524 . S
C1963 C1955 1.503 . S
C1963 C1962 1.370 . S
C1963 C1964 1.403 . S
C1964 C1963 1.403 . S
C1964 C1965 1.404 . S
C1964 C1967 1.539 . S
C1965 C1961 1.408 . S
C1965 C1964 1.404 . S
C1965 H1977 0.930 . S
C1966 C1962 1.524 . S
C1966 H1978 0.956 . S
C1966 H1979 0.961 . S
C1966 H1980 0.961 . S
C1967 C1964 1.539 . S
C1967 H1981 0.958 . S
C1967 H1982 0.961 . S
C1967 H1983 0.960 . S
H1968 C1952 0.931 . S
H1969 C1957 0.929 . S
H1970 C1958 0.960 . S
H1971 C1958 0.962 . S
H1972 C1958 0.960 . S
H1973 C1959 0.961 . S
H1974 C1959 0.961 . S
H1975 C1959 0.961 . S
H1976 C1960 0.931 . S
H1977 C1965 0.930 . S
H1978 C1966 0.956 . S
H1979 C1966 0.961 . S
H1980 C1966 0.961 . S
H1981 C1967 0.958 . S
H1982 C1967 0.961 . S
H1983 C1967 0.960 . S
C1984 C1985 1.391 . S
C1984 C1986 1.394 . S
C1984 H2000 0.931 . S
C1985 C1984 1.391 . S
C1985 C1989 1.376 . S
C1986 C1984 1.394 . S
C1986 C1987 1.369 . S
C1986 C1990 1.531 . S
C1987 C1986 1.369 . S
C1987 C1988 1.410 . S
C1987 C1995 1.503 . S
C1988 C1987 1.410 . S
C1988 C1989 1.392 . S
C1988 C1991 1.511 . S
C1989 C1985 1.376 . S
C1989 C1988 1.392 . S
C1989 H2001 0.929 . S
C1990 C1986 1.531 . S
C1990 H2002 0.960 . S
C1990 H2003 0.962 . S
C1990 H2004 0.960 . S
C1991 C1988 1.511 . S
C1991 H2005 0.961 . S
C1991 H2006 0.961 . S
C1991 H2007 0.961 . S
C1992 C1993 1.419 . S
C1992 C1994 1.373 . S
C1992 H2008 0.874 1_455 S
C1993 C1992 1.419 . S
C1993 C1997 1.408 . S
C1994 C1992 1.373 . S
C1994 C1995 1.370 . S
C1994 C1998 1.524 1_455 S
C1995 C1987 1.503 . S
C1995 C1994 1.370 . S
C1995 C1996 1.403 . S
C1996 C1995 1.403 . S
C1996 C1997 1.404 . S
C1996 C1999 1.539 . S
C1997 C1993 1.408 . S
C1997 C1996 1.404 . S
C1997 H2009 0.930 . S
C1998 C1994 1.524 1_655 S
C1998 H2010 0.956 . S
C1998 H2011 0.961 . S
C1998 H2012 0.961 . S
C1999 C1996 1.539 . S
C1999 H2013 0.958 . S
C1999 H2014 0.961 . S
C1999 H2015 0.960 . S
H2000 C1984 0.931 . S
H2001 C1989 0.929 . S
H2002 C1990 0.960 . S
H2003 C1990 0.962 . S
H2004 C1990 0.960 . S
H2005 C1991 0.961 . S
H2006 C1991 0.961 . S
H2007 C1991 0.961 . S
H2008 C1992 0.874 1_655 S
H2009 C1997 0.930 . S
H2010 C1998 0.956 . S
H2011 C1998 0.961 . S
H2012 C1998 0.961 . S
H2013 C1999 0.958 . S
H2014 C1999 0.961 . S
H2015 C1999 0.960 . S
C2016 C2017 1.391 . S
C2016 C2018 1.394 . S
C2016 H2032 0.931 . S
C2017 C2016 1.391 . S
C2017 C2021 1.376 . S
C2018 C2016 1.394 . S
C2018 C2019 1.369 . S
C2018 C2022 1.531 . S
C2019 C2018 1.369 . S
C2019 C2020 1.410 . S
C2019 C2027 1.503 . S
C2020 C2019 1.410 . S
C2020 C2021 1.392 . S
C2020 C2023 1.511 . S
C2021 C2017 1.376 . S
C2021 C2020 1.392 . S
C2021 H2033 0.929 . S
C2022 C2018 1.531 . S
C2022 H2034 0.960 . S
C2022 H2035 0.962 . S
C2022 H2036 0.960 . S
C2023 C2020 1.511 . S
C2023 H2037 0.961 . S
C2023 H2038 0.961 . S
C2023 H2039 0.961 . S
C2024 C2025 1.370 . S
C2024 C2026 1.363 . S
C2024 H2040 0.931 . S
C2025 C2024 1.370 . S
C2025 C2029 1.408 . S
C2026 C2024 1.363 . S
C2026 C2027 1.370 . S
C2026 C2030 1.524 . S
C2027 C2019 1.503 . S
C2027 C2026 1.370 . S
C2027 C2028 1.403 . S
C2028 C2027 1.403 . S
C2028 C2029 1.404 . S
C2028 C2031 1.539 . S
C2029 C2025 1.408 . S
C2029 C2028 1.404 . S
C2029 H2041 0.930 . S
C2030 C2026 1.524 . S
C2030 H2042 0.956 . S
C2030 H2043 0.961 . S
C2030 H2044 0.961 . S
C2031 C2028 1.539 . S
C2031 H2045 0.958 . S
C2031 H2046 0.961 . S
C2031 H2047 0.960 . S
H2032 C2016 0.931 . S
H2033 C2021 0.929 . S
H2034 C2022 0.960 . S
H2035 C2022 0.962 . S
H2036 C2022 0.960 . S
H2037 C2023 0.961 . S
H2038 C2023 0.961 . S
H2039 C2023 0.961 . S
H2040 C2024 0.931 . S
H2041 C2029 0.930 . S
H2042 C2030 0.956 . S
H2043 C2030 0.961 . S
H2044 C2030 0.961 . S
H2045 C2031 0.958 . S
H2046 C2031 0.961 . S
H2047 C2031 0.960 . S
C2048 C2049 1.391 . S
C2048 C2050 1.394 . S
C2048 H2064 0.931 . S
C2049 C2048 1.391 . S
C2049 C2053 1.376 . S
C2050 C2048 1.394 . S
C2050 C2051 1.369 . S
C2050 C2054 1.531 . S
C2051 C2050 1.369 . S
C2051 C2052 1.410 . S
C2051 C2059 1.503 . S
C2052 C2051 1.410 . S
C2052 C2053 1.392 . S
C2052 C2055 1.511 1_655 S
C2053 C2049 1.376 . S
C2053 C2052 1.392 . S
C2053 H2065 0.929 . S
C2054 C2050 1.531 . S
C2054 H2066 0.960 . S
C2054 H2067 0.962 . S
C2054 H2068 0.960 . S
C2055 C2052 1.511 1_455 S
C2055 H2069 0.961 . S
C2055 H2070 0.943 1_455 S
C2055 H2071 0.961 . S
C2056 C2057 1.370 . S
C2056 C2058 1.363 . S
C2056 H2072 0.931 . S
C2057 C2056 1.370 . S
C2057 C2061 1.408 1_655 S
C2058 C2056 1.363 . S
C2058 C2059 1.370 . S
C2058 C2062 1.524 . S
C2059 C2051 1.503 . S
C2059 C2058 1.370 . S
C2059 C2060 1.403 1_655 S
C2060 C2059 1.403 1_455 S
C2060 C2061 1.404 . S
C2060 C2063 1.539 . S
C2061 C2057 1.408 1_455 S
C2061 C2060 1.404 . S
C2061 H2073 0.930 . S
C2062 C2058 1.524 . S
C2062 H2074 0.956 . S
C2062 H2075 0.961 . S
C2062 H2076 0.961 . S
C2063 C2060 1.539 . S
C2063 H2077 0.958 . S
C2063 H2078 0.961 . S
C2063 H2079 0.960 . S
H2064 C2048 0.931 . S
H2065 C2053 0.929 . S
H2066 C2054 0.960 . S
H2067 C2054 0.962 . S
H2068 C2054 0.960 . S
H2069 C2055 0.961 . S
H2070 C2055 0.943 1_655 S
H2071 C2055 0.961 . S
H2072 C2056 0.931 . S
H2073 C2061 0.930 . S
H2074 C2062 0.956 . S
H2075 C2062 0.961 . S
H2076 C2062 0.961 . S
H2077 C2063 0.958 . S
H2078 C2063 0.961 . S
H2079 C2063 0.960 . S
C2080 C2081 1.391 . S
C2080 C2082 1.394 . S
C2080 H2096 0.931 . S
C2081 C2080 1.391 . S
C2081 C2085 1.376 . S
C2082 C2080 1.394 . S
C2082 C2083 1.369 . S
C2082 C2086 1.531 . S
C2083 C2082 1.369 . S
C2083 C2084 1.410 . S
C2083 C2091 1.503 . S
C2084 C2083 1.410 . S
C2084 C2085 1.392 . S
C2084 C2087 1.511 . S
C2085 C2081 1.376 . S
C2085 C2084 1.392 . S
C2085 H2097 0.929 . S
C2086 C2082 1.531 . S
C2086 H2098 0.960 . S
C2086 H2099 0.962 . S
C2086 H2100 0.960 . S
C2087 C2084 1.511 . S
C2087 H2101 0.961 . S
C2087 H2102 0.961 . S
C2087 H2103 0.961 . S
C2088 C2089 1.370 . S
C2088 C2090 1.363 . S
C2088 H2104 0.931 . S
C2089 C2088 1.370 . S
C2089 C2093 1.408 . S
C2090 C2088 1.363 . S
C2090 C2091 1.370 . S
C2090 C2094 1.524 . S
C2091 C2083 1.503 . S
C2091 C2090 1.370 . S
C2091 C2092 1.403 . S
C2092 C2091 1.403 . S
C2092 C2093 1.404 . S
C2092 C2095 1.539 . S
C2093 C2089 1.408 . S
C2093 C2092 1.404 . S
C2093 H2105 0.930 . S
C2094 C2090 1.524 . S
C2094 H2106 0.956 . S
C2094 H2107 0.961 . S
C2094 H2108 0.961 . S
C2095 C2092 1.539 . S
C2095 H2109 0.958 . S
C2095 H2110 0.961 . S
C2095 H2111 0.960 . S
H2096 C2080 0.931 . S
H2097 C2085 0.929 . S
H2098 C2086 0.960 . S
H2099 C2086 0.962 . S
H2100 C2086 0.960 . S
H2101 C2087 0.961 . S
H2102 C2087 0.961 . S
H2103 C2087 0.961 . S
H2104 C2088 0.931 . S
H2105 C2093 0.930 . S
H2106 C2094 0.956 . S
H2107 C2094 0.961 . S
H2108 C2094 0.961 . S
H2109 C2095 0.958 . S
H2110 C2095 0.961 . S
H2111 C2095 0.960 . S
C2112 C2113 1.391 . S
C2112 C2114 1.394 . S
C2112 H2128 0.931 . S
C2113 C2112 1.391 . S
C2113 C2117 1.376 . S
C2114 C2112 1.394 . S
C2114 C2115 1.369 . S
C2114 C2118 1.531 . S
C2115 C2114 1.369 . S
C2115 C2116 1.410 . S
C2115 C2123 1.503 . S
C2116 C2115 1.410 . S
C2116 C2117 1.392 . S
C2116 C2119 1.511 . S
C2117 C2113 1.376 . S
C2117 C2116 1.392 . S
C2117 H2129 0.929 . S
C2118 C2114 1.531 . S
C2118 H2130 0.960 . S
C2118 H2131 0.962 . S
C2118 H2132 0.960 . S
C2119 C2116 1.511 . S
C2119 H2133 0.961 . S
C2119 H2134 0.961 . S
C2119 H2135 0.961 . S
C2120 C2121 1.370 . S
C2120 C2122 1.363 . S
C2120 H2136 0.931 . S
C2121 C2120 1.370 . S
C2121 C2125 1.408 . S
C2122 C2120 1.363 . S
C2122 C2123 1.370 . S
C2122 C2126 1.524 . S
C2123 C2115 1.503 . S
C2123 C2122 1.370 . S
C2123 C2124 1.403 . S
C2124 C2123 1.403 . S
C2124 C2125 1.404 . S
C2124 C2127 1.539 . S
C2125 C2121 1.408 . S
C2125 C2124 1.404 . S
C2125 H2137 0.930 . S
C2126 C2122 1.524 . S
C2126 H2138 0.956 . S
C2126 H2139 0.961 . S
C2126 H2140 0.961 . S
C2127 C2124 1.539 . S
C2127 H2141 0.958 . S
C2127 H2142 0.961 . S
C2127 H2143 0.960 . S
H2128 C2112 0.931 . S
H2129 C2117 0.929 . S
H2130 C2118 0.960 . S
H2131 C2118 0.962 . S
H2132 C2118 0.960 . S
H2133 C2119 0.961 . S
H2134 C2119 0.961 . S
H2135 C2119 0.961 . S
H2136 C2120 0.931 . S
H2137 C2125 0.930 . S
H2138 C2126 0.956 . S
H2139 C2126 0.961 . S
H2140 C2126 0.961 . S
H2141 C2127 0.958 . S
H2142 C2127 0.961 . S
H2143 C2127 0.960 . S
C2144 C2145 1.391 . S
C2144 C2146 1.394 . S
C2144 H2160 0.931 . S
C2145 C2144 1.391 . S
C2145 C2149 1.376 . S
C2146 C2144 1.394 . S
C2146 C2147 1.369 . S
C2146 C2150 1.531 . S
C2147 C2146 1.369 . S
C2147 C2148 1.410 . S
C2147 C2155 1.503 . S
C2148 C2147 1.410 . S
C2148 C2149 1.392 . S
C2148 C2151 1.511 . S
C2149 C2145 1.376 . S
C2149 C2148 1.392 . S
C2149 H2161 0.929 1_565 S
C2150 C2146 1.531 . S
C2150 H2162 0.960 . S
C2150 H2163 0.962 . S
C2150 H2164 0.960 . S
C2151 C2148 1.511 . S
C2151 H2165 0.961 1_565 S
C2151 H2166 0.961 . S
C2151 H2167 0.961 . S
C2152 C2153 1.370 . S
C2152 C2154 1.363 . S
C2152 H2168 0.931 . S
C2153 C2152 1.370 . S
C2153 C2157 1.408 1_556 S
C2154 C2152 1.363 . S
C2154 C2155 1.370 . S
C2154 C2158 1.524 . S
C2155 C2147 1.503 . S
C2155 C2154 1.370 . S
C2155 C2156 1.403 1_556 S
C2156 C2155 1.403 1_554 S
C2156 C2157 1.404 . S
C2156 C2159 1.539 . S
C2157 C2153 1.408 1_554 S
C2157 C2156 1.404 . S
C2157 H2169 0.930 . S
C2158 C2154 1.524 . S
C2158 H2170 0.956 . S
C2158 H2171 0.961 . S
C2158 H2172 0.961 . S
C2159 C2156 1.539 . S
C2159 H2173 0.958 . S
C2159 H2174 0.961 . S
C2159 H2175 0.960 . S
H2160 C2144 0.931 . S
H2161 C2149 0.929 1_545 S
H2162 C2150 0.960 . S
H2163 C2150 0.962 . S
H2164 C2150 0.960 . S
H2165 C2151 0.961 1_545 S
H2166 C2151 0.961 . S
H2167 C2151 0.961 . S
H2168 C2152 0.931 . S
H2169 C2157 0.930 . S
H2170 C2158 0.956 . S
H2171 C2158 0.961 . S
H2172 C2158 0.961 . S
H2173 C2159 0.958 . S
H2174 C2159 0.961 . S
H2175 C2159 0.960 . S
C2176 C2177 1.391 . S
C2176 C2178 1.394 . S
C2176 H2192 0.931 . S
C2177 C2176 1.391 . S
C2177 C2181 1.376 . S
C2178 C2176 1.394 . S
C2178 C2179 1.369 . S
C2178 C2182 1.531 . S
C2179 C2178 1.369 . S
C2179 C2180 1.410 . S
C2179 C2187 1.503 . S
C2180 C2179 1.410 . S
C2180 C2181 1.392 . S
C2180 C2183 1.511 . S
C2181 C2177 1.376 . S
C2181 C2180 1.392 . S
C2181 H2193 0.929 . S
C2182 C2178 1.531 . S
C2182 H2194 0.960 . S
C2182 H2195 0.962 . S
C2182 H2196 0.960 . S
C2183 C2180 1.511 . S
C2183 H2197 0.961 . S
C2183 H2198 0.961 . S
C2183 H2199 0.961 . S
C2184 C2185 1.370 . S
C2184 C2186 1.363 . S
C2184 H2200 0.931 . S
C2185 C2184 1.370 . S
C2185 C2189 1.408 . S
C2186 C2184 1.363 . S
C2186 C2187 1.370 . S
C2186 C2190 1.524 . S
C2187 C2179 1.503 . S
C2187 C2186 1.370 . S
C2187 C2188 1.403 . S
C2188 C2187 1.403 . S
C2188 C2189 1.404 . S
C2188 C2191 1.539 . S
C2189 C2185 1.408 . S
C2189 C2188 1.404 . S
C2189 H2201 0.930 . S
C2190 C2186 1.524 . S
C2190 H2202 0.956 . S
C2190 H2203 0.961 . S
C2190 H2204 0.961 . S
C2191 C2188 1.539 . S
C2191 H2205 0.958 . S
C2191 H2206 0.961 . S
C2191 H2207 0.960 . S
H2192 C2176 0.931 . S
H2193 C2181 0.929 . S
H2194 C2182 0.960 . S
H2195 C2182 0.962 . S
H2196 C2182 0.960 . S
H2197 C2183 0.961 . S
H2198 C2183 0.961 . S
H2199 C2183 0.961 . S
H2200 C2184 0.931 . S
H2201 C2189 0.930 . S
H2202 C2190 0.956 . S
H2203 C2190 0.961 . S
H2204 C2190 0.961 . S
H2205 C2191 0.958 . S
H2206 C2191 0.961 . S
H2207 C2191 0.960 . S
C2208 C2209 1.391 . S
C2208 C2210 1.394 . S
C2208 H2224 0.931 . S
C2209 C2208 1.391 . S
C2209 C2213 1.376 . S
C2210 C2208 1.394 . S
C2210 C2211 1.369 . S
C2210 C2214 1.531 . S
C2211 C2210 1.369 . S
C2211 C2212 1.410 . S
C2211 C2219 1.503 . S
C2212 C2211 1.410 . S
C2212 C2213 1.392 . S
C2212 C2215 1.511 . S
C2213 C2209 1.376 . S
C2213 C2212 1.392 . S
C2213 H2225 0.929 . S
C2214 C2210 1.531 . S
C2214 H2226 0.960 . S
C2214 H2227 0.962 . S
C2214 H2228 0.960 . S
C2215 C2212 1.511 . S
C2215 H2229 0.961 . S
C2215 H2230 0.961 . S
C2215 H2231 0.961 . S
C2216 C2217 1.370 . S
C2216 C2218 1.363 . S
C2216 H2232 0.931 . S
C2217 C2216 1.370 . S
C2217 C2221 1.408 . S
C2218 C2216 1.363 . S
C2218 C2219 1.370 . S
C2218 C2222 1.524 . S
C2219 C2211 1.503 . S
C2219 C2218 1.370 . S
C2219 C2220 1.403 . S
C2220 C2219 1.403 . S
C2220 C2221 1.404 . S
C2220 C2223 1.539 . S
C2221 C2217 1.408 . S
C2221 C2220 1.404 . S
C2221 H2233 0.930 . S
C2222 C2218 1.524 . S
C2222 H2234 0.956 . S
C2222 H2235 0.961 . S
C2222 H2236 0.961 . S
C2223 C2220 1.539 . S
C2223 H2237 0.958 . S
C2223 H2238 0.961 . S
C2223 H2239 0.960 . S
H2224 C2208 0.931 . S
H2225 C2213 0.929 . S
H2226 C2214 0.960 . S
H2227 C2214 0.962 . S
H2228 C2214 0.960 . S
H2229 C2215 0.961 . S
H2230 C2215 0.961 . S
H2231 C2215 0.961 . S
H2232 C2216 0.931 . S
H2233 C2221 0.930 . S
H2234 C2222 0.956 . S
H2235 C2222 0.961 . S
H2236 C2222 0.961 . S
H2237 C2223 0.958 . S
H2238 C2223 0.961 . S
H2239 C2223 0.960 . S
C2240 C2241 1.391 . S
C2240 C2242 1.394 . S
C2240 H2256 0.931 . S
C2241 C2240 1.391 . S
C2241 C2245 1.376 . S
C2242 C2240 1.394 . S
C2242 C2243 1.369 . S
C2242 C2246 1.531 . S
C2243 C2242 1.369 . S
C2243 C2244 1.410 . S
C2243 C2251 1.503 . S
C2244 C2243 1.410 . S
C2244 C2245 1.392 . S
C2244 C2247 1.511 . S
C2245 C2241 1.376 . S
C2245 C2244 1.392 . S
C2245 H2257 0.929 . S
C2246 C2242 1.531 . S
C2246 H2258 0.960 . S
C2246 H2259 0.962 . S
C2246 H2260 0.960 . S
C2247 C2244 1.511 . S
C2247 H2261 0.961 . S
C2247 H2262 0.961 . S
C2247 H2263 0.961 . S
C2248 C2249 1.370 . S
C2248 C2250 1.363 . S
C2248 H2264 0.931 . S
C2249 C2248 1.370 . S
C2249 C2253 1.408 . S
C2250 C2248 1.363 . S
C2250 C2251 1.370 . S
C2250 C2254 1.524 . S
C2251 C2243 1.503 . S
C2251 C2250 1.370 . S
C2251 C2252 1.403 . S
C2252 C2251 1.403 . S
C2252 C2253 1.404 . S
C2252 C2255 1.539 . S
C2253 C2249 1.408 . S
C2253 C2252 1.404 . S
C2253 H2265 0.930 . S
C2254 C2250 1.524 . S
C2254 H2266 0.956 . S
C2254 H2267 0.961 . S
C2254 H2268 0.961 . S
C2255 C2252 1.539 . S
C2255 H2269 0.958 . S
C2255 H2270 0.961 . S
C2255 H2271 0.960 . S
H2256 C2240 0.931 . S
H2257 C2245 0.929 . S
H2258 C2246 0.960 . S
H2259 C2246 0.962 . S
H2260 C2246 0.960 . S
H2261 C2247 0.961 . S
H2262 C2247 0.961 . S
H2263 C2247 0.961 . S
H2264 C2248 0.931 . S
H2265 C2253 0.930 . S
H2266 C2254 0.956 . S
H2267 C2254 0.961 . S
H2268 C2254 0.961 . S
H2269 C2255 0.958 . S
H2270 C2255 0.961 . S
H2271 C2255 0.960 . S
C2272 C2273 1.391 . S
C2272 C2274 1.394 . S
C2272 H2288 0.931 . S
C2273 C2272 1.391 . S
C2273 C2277 1.376 . S
C2274 C2272 1.394 . S
C2274 C2275 1.369 . S
C2274 C2278 1.531 . S
C2275 C2274 1.369 . S
C2275 C2276 1.410 . S
C2275 C2283 1.503 . S
C2276 C2275 1.410 . S
C2276 C2277 1.392 . S
C2276 C2279 1.511 . S
C2277 C2273 1.376 . S
C2277 C2276 1.392 . S
C2277 H2289 0.929 . S
C2278 C2274 1.531 . S
C2278 H2290 0.960 . S
C2278 H2291 0.962 . S
C2278 H2292 0.960 . S
C2279 C2276 1.511 . S
C2279 H2293 0.961 . S
C2279 H2294 0.961 . S
C2279 H2295 0.961 . S
C2280 C2281 1.370 . S
C2280 C2282 1.363 . S
C2280 H2296 0.931 . S
C2281 C2280 1.370 . S
C2281 C2285 1.408 . S
C2282 C2280 1.363 . S
C2282 C2283 1.370 . S
C2282 C2286 1.524 . S
C2283 C2275 1.503 . S
C2283 C2282 1.370 . S
C2283 C2284 1.403 . S
C2284 C2283 1.403 . S
C2284 C2285 1.404 . S
C2284 C2287 1.539 . S
C2285 C2281 1.408 . S
C2285 C2284 1.404 . S
C2285 H2297 0.930 . S
C2286 C2282 1.524 . S
C2286 H2298 0.956 . S
C2286 H2299 0.961 . S
C2286 H2300 0.961 . S
C2287 C2284 1.539 . S
C2287 H2301 0.958 . S
C2287 H2302 0.961 . S
C2287 H2303 0.960 . S
H2288 C2272 0.931 . S
H2289 C2277 0.929 . S
H2290 C2278 0.960 . S
H2291 C2278 0.962 . S
H2292 C2278 0.960 . S
H2293 C2279 0.961 . S
H2294 C2279 0.961 . S
H2295 C2279 0.961 . S
H2296 C2280 0.931 . S
H2297 C2285 0.930 . S
H2298 C2286 0.956 . S
H2299 C2286 0.961 . S
H2300 C2286 0.961 . S
H2301 C2287 0.958 . S
H2302 C2287 0.961 . S
H2303 C2287 0.960 . S
C2304 C2305 1.391 . S
C2304 C2306 1.394 . S
C2304 H2320 0.931 . S
C2305 C2304 1.391 . S
C2305 C2309 1.376 . S
C2306 C2304 1.394 . S
C2306 C2307 1.369 . S
C2306 C2310 1.531 . S
C2307 C2306 1.369 . S
C2307 C2308 1.410 . S
C2307 C2315 1.503 . S
C2308 C2307 1.410 . S
C2308 C2309 1.392 . S
C2308 C2311 1.511 . S
C2309 C2305 1.376 . S
C2309 C2308 1.392 . S
C2309 H2321 0.929 . S
C2310 C2306 1.531 . S
C2310 H2322 0.960 . S
C2310 H2323 0.962 . S
C2310 H2324 0.960 . S
C2311 C2308 1.511 . S
C2311 H2325 0.961 . S
C2311 H2326 0.961 . S
C2311 H2327 0.961 . S
C2312 C2313 1.370 . S
C2312 C2314 1.363 . S
C2312 H2328 0.931 . S
C2313 C2312 1.370 . S
C2313 C2317 1.408 . S
C2314 C2312 1.363 . S
C2314 C2315 1.370 . S
C2314 C2318 1.524 . S
C2315 C2307 1.503 . S
C2315 C2314 1.370 . S
C2315 C2316 1.403 . S
C2316 C2315 1.403 . S
C2316 C2317 1.404 . S
C2316 C2319 1.539 . S
C2317 C2313 1.408 . S
C2317 C2316 1.404 . S
C2317 H2329 0.930 . S
C2318 C2314 1.524 . S
C2318 H2330 0.956 . S
C2318 H2331 0.961 . S
C2318 H2332 0.961 . S
C2319 C2316 1.539 . S
C2319 H2333 0.958 . S
C2319 H2334 0.961 . S
C2319 H2335 0.960 . S
H2320 C2304 0.931 . S
H2321 C2309 0.929 . S
H2322 C2310 0.960 . S
H2323 C2310 0.962 . S
H2324 C2310 0.960 . S
H2325 C2311 0.961 . S
H2326 C2311 0.961 . S
H2327 C2311 0.961 . S
H2328 C2312 0.931 . S
H2329 C2317 0.930 . S
H2330 C2318 0.956 . S
H2331 C2318 0.961 . S
H2332 C2318 0.961 . S
H2333 C2319 0.958 . S
H2334 C2319 0.961 . S
H2335 C2319 0.960 . S
C2336 C2337 1.391 . S
C2336 C2338 1.394 . S
C2336 H2352 0.931 . S
C2337 C2336 1.391 . S
C2337 C2341 1.376 . S
C2338 C2336 1.394 . S
C2338 C2339 1.369 . S
C2338 C2342 1.531 . S
C2339 C2338 1.369 . S
C2339 C2340 1.410 . S
C2339 C2347 1.503 . S
C2340 C2339 1.410 . S
C2340 C2341 1.392 . S
C2340 C2343 1.511 . S
C2341 C2337 1.376 . S
C2341 C2340 1.392 . S
C2341 H2353 0.929 . S
C2342 C2338 1.531 . S
C2342 H2354 0.960 . S
C2342 H2355 0.962 . S
C2342 H2356 0.960 . S
C2343 C2340 1.511 . S
C2343 H2357 0.961 . S
C2343 H2358 0.961 . S
C2343 H2359 0.961 . S
C2344 C2345 1.370 . S
C2344 C2346 1.363 . S
C2344 H2360 0.931 . S
C2345 C2344 1.370 . S
C2345 C2349 1.408 . S
C2346 C2344 1.363 . S
C2346 C2347 1.370 . S
C2346 C2350 1.524 . S
C2347 C2339 1.503 . S
C2347 C2346 1.370 . S
C2347 C2348 1.403 . S
C2348 C2347 1.403 . S
C2348 C2349 1.404 . S
C2348 C2351 1.539 . S
C2349 C2345 1.408 . S
C2349 C2348 1.404 . S
C2349 H2361 0.930 . S
C2350 C2346 1.524 . S
C2350 H2362 0.956 . S
C2350 H2363 0.961 . S
C2350 H2364 0.961 . S
C2351 C2348 1.539 . S
C2351 H2365 0.958 . S
C2351 H2366 0.961 . S
C2351 H2367 0.960 . S
H2352 C2336 0.931 . S
H2353 C2341 0.929 . S
H2354 C2342 0.960 . S
H2355 C2342 0.962 . S
H2356 C2342 0.960 . S
H2357 C2343 0.961 . S
H2358 C2343 0.961 . S
H2359 C2343 0.961 . S
H2360 C2344 0.931 . S
H2361 C2349 0.930 . S
H2362 C2350 0.956 . S
H2363 C2350 0.961 . S
H2364 C2350 0.961 . S
H2365 C2351 0.958 . S
H2366 C2351 0.961 . S
H2367 C2351 0.960 . S
C2368 C2369 1.391 . S
C2368 C2370 1.394 . S
C2368 H2384 0.931 . S
C2369 C2368 1.391 . S
C2369 C2373 1.376 . S
C2370 C2368 1.394 . S
C2370 C2371 1.369 . S
C2370 C2374 1.531 . S
C2371 C2370 1.369 . S
C2371 C2372 1.410 . S
C2371 C2379 1.503 . S
C2372 C2371 1.410 . S
C2372 C2373 1.392 . S
C2372 C2375 1.511 . S
C2373 C2369 1.376 . S
C2373 C2372 1.392 . S
C2373 H2385 0.929 . S
C2374 C2370 1.531 . S
C2374 H2386 0.960 . S
C2374 H2387 0.962 . S
C2374 H2388 0.960 . S
C2375 C2372 1.511 . S
C2375 H2389 0.961 . S
C2375 H2390 0.961 . S
C2375 H2391 0.961 . S
C2376 C2377 1.370 . S
C2376 C2378 1.363 . S
C2376 H2392 0.931 1_545 S
C2377 C2376 1.370 . S
C2377 C2381 1.408 . S
C2378 C2376 1.363 . S
C2378 C2379 1.370 . S
C2378 C2382 1.524 1_545 S
C2379 C2371 1.503 . S
C2379 C2378 1.370 . S
C2379 C2380 1.403 . S
C2380 C2379 1.403 . S
C2380 C2381 1.404 . S
C2380 C2383 1.539 . S
C2381 C2377 1.408 . S
C2381 C2380 1.404 . S
C2381 H2393 0.930 . S
C2382 C2378 1.524 1_565 S
C2382 H2394 0.956 . S
C2382 H2395 0.961 . S
C2382 H2396 0.961 . S
C2383 C2380 1.539 . S
C2383 H2397 0.958 . S
C2383 H2398 0.961 . S
C2383 H2399 0.960 . S
H2384 C2368 0.931 . S
H2385 C2373 0.929 . S
H2386 C2374 0.960 . S
H2387 C2374 0.962 . S
H2388 C2374 0.960 . S
H2389 C2375 0.961 . S
H2390 C2375 0.961 . S
H2391 C2375 0.961 . S
H2392 C2376 0.931 1_565 S
H2393 C2381 0.930 . S
H2394 C2382 0.956 . S
H2395 C2382 0.961 . S
H2396 C2382 0.961 . S
H2397 C2383 0.958 . S
H2398 C2383 0.961 . S
H2399 C2383 0.960 . S
C2400 C2401 1.391 . S
C2400 C2402 1.394 . S
C2400 H2416 0.931 . S
C2401 C2400 1.391 . S
C2401 C2405 1.376 . S
C2402 C2400 1.394 . S
C2402 C2403 1.369 . S
C2402 C2406 1.531 . S
C2403 C2402 1.369 . S
C2403 C2404 1.410 . S
C2403 C2411 1.503 . S
C2404 C2403 1.410 . S
C2404 C2405 1.392 . S
C2404 C2407 1.511 . S
C2405 C2401 1.376 . S
C2405 C2404 1.392 . S
C2405 H2417 0.929 . S
C2406 C2402 1.531 . S
C2406 H2418 0.960 . S
C2406 H2419 0.962 . S
C2406 H2420 0.960 . S
C2407 C2404 1.511 . S
C2407 H2421 0.961 . S
C2407 H2422 0.961 . S
C2407 H2423 0.961 . S
C2408 C2409 1.370 . S
C2408 C2410 1.363 . S
C2408 H2424 0.931 . S
C2409 C2408 1.370 . S
C2409 C2413 1.408 . S
C2410 C2408 1.363 . S
C2410 C2411 1.370 . S
C2410 C2414 1.524 . S
C2411 C2403 1.503 . S
C2411 C2410 1.370 . S
C2411 C2412 1.403 . S
C2412 C2411 1.403 . S
C2412 C2413 1.404 . S
C2412 C2415 1.539 . S
C2413 C2409 1.408 . S
C2413 C2412 1.404 . S
C2413 H2425 0.930 . S
C2414 C2410 1.524 . S
C2414 H2426 0.956 . S
C2414 H2427 0.961 . S
C2414 H2428 0.961 . S
C2415 C2412 1.539 . S
C2415 H2429 0.958 . S
C2415 H2430 0.961 . S
C2415 H2431 0.960 . S
H2416 C2400 0.931 . S
H2417 C2405 0.929 . S
H2418 C2406 0.960 . S
H2419 C2406 0.962 . S
H2420 C2406 0.960 . S
H2421 C2407 0.961 . S
H2422 C2407 0.961 . S
H2423 C2407 0.961 . S
H2424 C2408 0.931 . S
H2425 C2413 0.930 . S
H2426 C2414 0.956 . S
H2427 C2414 0.961 . S
H2428 C2414 0.961 . S
H2429 C2415 0.958 . S
H2430 C2415 0.961 . S
H2431 C2415 0.960 . S
C2432 C2433 1.391 . S
C2432 C2434 1.394 . S
C2432 H2448 0.931 . S
C2433 C2432 1.391 . S
C2433 C2437 1.376 . S
C2434 C2432 1.394 . S
C2434 C2435 1.369 . S
C2434 C2438 1.531 . S
C2435 C2434 1.369 . S
C2435 C2436 1.410 . S
C2435 C2443 1.503 . S
C2436 C2435 1.410 . S
C2436 C2437 1.392 . S
C2436 C2439 1.511 . S
C2437 C2433 1.376 . S
C2437 C2436 1.392 . S
C2437 H2449 0.929 . S
C2438 C2434 1.531 . S
C2438 H2450 0.960 . S
C2438 H2451 0.962 . S
C2438 H2452 0.960 . S
C2439 C2436 1.511 . S
C2439 H2453 0.961 . S
C2439 H2454 0.961 . S
C2439 H2455 0.961 . S
C2440 C2441 1.370 . S
C2440 C2442 1.363 . S
C2440 H2456 0.931 . S
C2441 C2440 1.370 . S
C2441 C2445 1.408 . S
C2442 C2440 1.363 . S
C2442 C2443 1.370 . S
C2442 C2446 1.524 . S
C2443 C2435 1.503 . S
C2443 C2442 1.370 . S
C2443 C2444 1.403 . S
C2444 C2443 1.403 . S
C2444 C2445 1.404 . S
C2444 C2447 1.539 . S
C2445 C2441 1.408 . S
C2445 C2444 1.404 . S
C2445 H2457 0.930 . S
C2446 C2442 1.524 . S
C2446 H2458 0.956 . S
C2446 H2459 0.961 . S
C2446 H2460 0.961 . S
C2447 C2444 1.539 . S
C2447 H2461 0.958 . S
C2447 H2462 0.961 . S
C2447 H2463 0.960 . S
H2448 C2432 0.931 . S
H2449 C2437 0.929 . S
H2450 C2438 0.960 . S
H2451 C2438 0.962 . S
H2452 C2438 0.960 . S
H2453 C2439 0.961 . S
H2454 C2439 0.961 . S
H2455 C2439 0.961 . S
H2456 C2440 0.931 . S
H2457 C2445 0.930 . S
H2458 C2446 0.956 . S
H2459 C2446 0.961 . S
H2460 C2446 0.961 . S
H2461 C2447 0.958 . S
H2462 C2447 0.961 . S
H2463 C2447 0.960 . S
C2464 C2465 1.391 . S
C2464 C2466 1.394 . S
C2464 H2480 0.931 . S
C2465 C2464 1.391 . S
C2465 C2469 1.376 . S
C2466 C2464 1.394 . S
C2466 C2467 1.369 . S
C2466 C2470 1.531 . S
C2467 C2466 1.369 . S
C2467 C2468 1.410 . S
C2467 C2475 1.503 . S
C2468 C2467 1.410 . S
C2468 C2469 1.392 . S
C2468 C2471 1.511 . S
C2469 C2465 1.376 . S
C2469 C2468 1.392 . S
C2469 H2481 0.929 . S
C2470 C2466 1.531 . S
C2470 H2482 0.960 . S
C2470 H2483 0.962 . S
C2470 H2484 0.960 . S
C2471 C2468 1.511 . S
C2471 H2485 0.961 . S
C2471 H2486 0.961 . S
C2471 H2487 0.961 . S
C2472 C2473 1.370 . S
C2472 C2474 1.363 . S
C2472 H2488 0.931 . S
C2473 C2472 1.370 . S
C2473 C2477 1.408 . S
C2474 C2472 1.363 . S
C2474 C2475 1.370 . S
C2474 C2478 1.524 . S
C2475 C2467 1.503 . S
C2475 C2474 1.370 . S
C2475 C2476 1.403 . S
C2476 C2475 1.403 . S
C2476 C2477 1.404 . S
C2476 C2479 1.539 . S
C2477 C2473 1.408 . S
C2477 C2476 1.404 . S
C2477 H2489 0.930 . S
C2478 C2474 1.524 . S
C2478 H2490 0.956 . S
C2478 H2491 0.961 . S
C2478 H2492 0.961 . S
C2479 C2476 1.539 . S
C2479 H2493 0.958 . S
C2479 H2494 0.961 . S
C2479 H2495 0.960 . S
H2480 C2464 0.931 . S
H2481 C2469 0.929 . S
H2482 C2470 0.960 . S
H2483 C2470 0.962 . S
H2484 C2470 0.960 . S
H2485 C2471 0.961 . S
H2486 C2471 0.961 . S
H2487 C2471 0.961 . S
H2488 C2472 0.931 . S
H2489 C2477 0.930 . S
H2490 C2478 0.956 . S
H2491 C2478 0.961 . S
H2492 C2478 0.961 . S
H2493 C2479 0.958 . S
H2494 C2479 0.961 . S
H2495 C2479 0.960 . S
C2496 C2497 1.391 . S
C2496 C2498 1.394 . S
C2496 H2512 0.931 1_655 S
C2497 C2496 1.391 . S
C2497 C2501 1.376 . S
C2498 C2496 1.394 . S
C2498 C2499 1.369 . S
C2498 C2502 1.531 . S
C2499 C2498 1.369 . S
C2499 C2500 1.410 . S
C2499 C2507 1.503 . S
C2500 C2499 1.410 . S
C2500 C2501 1.392 . S
C2500 C2503 1.511 . S
C2501 C2497 1.376 . S
C2501 C2500 1.392 . S
C2501 H2513 0.929 . S
C2502 C2498 1.531 . S
C2502 H2514 0.960 . S
C2502 H2515 0.962 . S
C2502 H2516 0.960 1_655 S
C2503 C2500 1.511 . S
C2503 H2517 0.961 . S
C2503 H2518 0.961 . S
C2503 H2519 0.961 . S
C2504 C2505 1.370 . S
C2504 C2506 1.363 . S
C2504 H2520 0.931 1_545 S
C2505 C2504 1.370 . S
C2505 C2509 1.408 . S
C2506 C2504 1.363 . S
C2506 C2507 1.370 . S
C2506 C2510 1.524 1_545 S
C2507 C2499 1.503 . S
C2507 C2506 1.370 . S
C2507 C2508 1.403 . S
C2508 C2507 1.403 . S
C2508 C2509 1.404 . S
C2508 C2511 1.539 . S
C2509 C2505 1.408 . S
C2509 C2508 1.404 . S
C2509 H2521 0.930 . S
C2510 C2506 1.524 1_565 S
C2510 H2522 0.956 . S
C2510 H2523 0.961 . S
C2510 H2524 0.961 . S
C2511 C2508 1.539 . S
C2511 H2525 0.958 . S
C2511 H2526 0.961 . S
C2511 H2527 0.960 . S
H2512 C2496 0.931 1_455 S
H2513 C2501 0.929 . S
H2514 C2502 0.960 . S
H2515 C2502 0.962 . S
H2516 C2502 0.960 1_455 S
H2517 C2503 0.961 . S
H2518 C2503 0.961 . S
H2519 C2503 0.961 . S
H2520 C2504 0.931 1_565 S
H2521 C2509 0.930 . S
H2522 C2510 0.956 . S
H2523 C2510 0.961 . S
H2524 C2510 0.961 . S
H2525 C2511 0.958 . S
H2526 C2511 0.961 . S
H2527 C2511 0.960 . S
C2528 C2529 1.391 . S
C2528 C2530 1.394 . S
C2528 H2544 0.931 . S
C2529 C2528 1.391 . S
C2529 C2533 1.376 . S
C2530 C2528 1.394 . S
C2530 C2531 1.369 . S
C2530 C2534 1.531 . S
C2531 C2530 1.369 . S
C2531 C2532 1.410 . S
C2531 C2539 1.503 . S
C2532 C2531 1.410 . S
C2532 C2533 1.392 . S
C2532 C2535 1.511 . S
C2533 C2529 1.376 . S
C2533 C2532 1.392 . S
C2533 H2545 0.929 . S
C2534 C2530 1.531 . S
C2534 H2546 0.960 . S
C2534 H2547 0.962 . S
C2534 H2548 0.960 . S
C2535 C2532 1.511 . S
C2535 H2549 0.961 . S
C2535 H2550 0.961 . S
C2535 H2551 0.961 . S
C2536 C2537 1.370 . S
C2536 C2538 1.363 . S
C2536 H2552 0.931 . S
C2537 C2536 1.370 . S
C2537 C2541 1.408 . S
C2538 C2536 1.363 . S
C2538 C2539 1.370 . S
C2538 C2542 1.524 . S
C2539 C2531 1.503 . S
C2539 C2538 1.370 . S
C2539 C2540 1.403 . S
C2540 C2539 1.403 . S
C2540 C2541 1.404 . S
C2540 C2543 1.539 . S
C2541 C2537 1.408 . S
C2541 C2540 1.404 . S
C2541 H2553 0.930 . S
C2542 C2538 1.524 . S
C2542 H2554 0.956 . S
C2542 H2555 0.961 . S
C2542 H2556 0.961 . S
C2543 C2540 1.539 . S
C2543 H2557 0.958 . S
C2543 H2558 0.961 . S
C2543 H2559 0.960 . S
H2544 C2528 0.931 . S
H2545 C2533 0.929 . S
H2546 C2534 0.960 . S
H2547 C2534 0.962 . S
H2548 C2534 0.960 . S
H2549 C2535 0.961 . S
H2550 C2535 0.961 . S
H2551 C2535 0.961 . S
H2552 C2536 0.931 . S
H2553 C2541 0.930 . S
H2554 C2542 0.956 . S
H2555 C2542 0.961 . S
H2556 C2542 0.961 . S
H2557 C2543 0.958 . S
H2558 C2543 0.961 . S
H2559 C2543 0.960 . S
C2560 C2561 1.391 . S
C2560 C2562 1.394 . S
C2560 H2576 0.931 . S
C2561 C2560 1.391 . S
C2561 C2565 1.376 . S
C2562 C2560 1.394 . S
C2562 C2563 1.369 . S
C2562 C2566 1.531 . S
C2563 C2562 1.369 . S
C2563 C2564 1.410 . S
C2563 C2571 1.503 . S
C2564 C2563 1.410 . S
C2564 C2565 1.392 . S
C2564 C2567 1.511 . S
C2565 C2561 1.376 . S
C2565 C2564 1.392 . S
C2565 H2577 0.929 1_455 S
C2566 C2562 1.531 . S
C2566 H2578 0.960 . S
C2566 H2579 0.962 . S
C2566 H2580 0.960 . S
C2567 C2564 1.511 . S
C2567 H2581 0.999 . S
C2567 H2582 0.961 . S
C2567 H2583 0.961 . S
C2568 C2569 1.370 . S
C2568 C2570 1.363 . S
C2568 H2584 0.931 . S
C2569 C2568 1.370 . S
C2569 C2573 1.408 . S
C2570 C2568 1.363 . S
C2570 C2571 1.370 . S
C2570 C2574 1.524 . S
C2571 C2563 1.503 . S
C2571 C2570 1.370 . S
C2571 C2572 1.403 . S
C2572 C2571 1.403 . S
C2572 C2573 1.404 . S
C2572 C2575 1.539 . S
C2573 C2569 1.408 . S
C2573 C2572 1.404 . S
C2573 H2585 0.930 . S
C2574 C2570 1.524 . S
C2574 H2586 0.956 . S
C2574 H2587 0.961 . S
C2574 H2588 0.961 . S
C2575 C2572 1.539 . S
C2575 H2589 0.958 . S
C2575 H2590 0.961 . S
C2575 H2591 0.960 . S
H2576 C2560 0.931 . S
H2577 C2565 0.929 1_655 S
H2578 C2566 0.960 . S
H2579 C2566 0.962 . S
H2580 C2566 0.960 . S
H2581 C2567 0.999 . S
H2582 C2567 0.961 . S
H2583 C2567 0.961 . S
H2584 C2568 0.931 . S
H2585 C2573 0.930 . S
H2586 C2574 0.956 . S
H2587 C2574 0.961 . S
H2588 C2574 0.961 . S
H2589 C2575 0.958 . S
H2590 C2575 0.961 . S
H2591 C2575 0.960 . S
C2592 C2593 1.391 . S
C2592 C2594 1.394 . S
C2592 H2608 0.931 . S
C2593 C2592 1.391 . S
C2593 C2597 1.376 . S
C2594 C2592 1.394 . S
C2594 C2595 1.369 . S
C2594 C2598 1.531 . S
C2595 C2594 1.369 . S
C2595 C2596 1.410 . S
C2595 C2603 1.503 . S
C2596 C2595 1.410 . S
C2596 C2597 1.392 . S
C2596 C2599 1.511 . S
C2597 C2593 1.376 . S
C2597 C2596 1.392 . S
C2597 H2609 0.929 . S
C2598 C2594 1.531 . S
C2598 H2610 0.960 . S
C2598 H2611 0.962 . S
C2598 H2612 0.960 . S
C2599 C2596 1.511 . S
C2599 H2613 0.961 . S
C2599 H2614 0.961 . S
C2599 H2615 0.961 . S
C2600 C2601 1.370 . S
C2600 C2602 1.363 . S
C2600 H2616 0.931 . S
C2601 C2600 1.370 . S
C2601 C2605 1.408 . S
C2602 C2600 1.363 . S
C2602 C2603 1.370 . S
C2602 C2606 1.524 . S
C2603 C2595 1.503 . S
C2603 C2602 1.370 . S
C2603 C2604 1.403 . S
C2604 C2603 1.403 . S
C2604 C2605 1.404 . S
C2604 C2607 1.539 . S
C2605 C2601 1.408 . S
C2605 C2604 1.404 . S
C2605 H2617 0.930 . S
C2606 C2602 1.524 . S
C2606 H2618 0.956 . S
C2606 H2619 0.961 . S
C2606 H2620 0.961 . S
C2607 C2604 1.539 . S
C2607 H2621 0.958 . S
C2607 H2622 0.961 . S
C2607 H2623 0.960 . S
H2608 C2592 0.931 . S
H2609 C2597 0.929 . S
H2610 C2598 0.960 . S
H2611 C2598 0.962 . S
H2612 C2598 0.960 . S
H2613 C2599 0.961 . S
H2614 C2599 0.961 . S
H2615 C2599 0.961 . S
H2616 C2600 0.931 . S
H2617 C2605 0.930 . S
H2618 C2606 0.956 . S
H2619 C2606 0.961 . S
H2620 C2606 0.961 . S
H2621 C2607 0.958 . S
H2622 C2607 0.961 . S
H2623 C2607 0.960 . S
C2624 C2625 1.391 . S
C2624 C2626 1.394 . S
C2624 H2640 0.931 1_656 S
C2625 C2624 1.391 . S
C2625 C2629 1.376 . S
C2626 C2624 1.394 . S
C2626 C2627 1.369 . S
C2626 C2630 1.531 1_655 S
C2627 C2626 1.369 . S
C2627 C2628 1.410 . S
C2627 C2635 1.503 . S
C2628 C2627 1.410 . S
C2628 C2629 1.392 . S
C2628 C2631 1.511 . S
C2629 C2625 1.376 . S
C2629 C2628 1.392 . S
C2629 H2641 0.929 . S
C2630 C2626 1.531 1_455 S
C2630 H2642 0.960 . S
C2630 H2643 0.962 . S
C2630 H2644 0.944 1_556 S
C2631 C2628 1.511 . S
C2631 H2645 0.961 . S
C2631 H2646 0.961 . S
C2631 H2647 0.961 . S
C2632 C2633 1.373 . S
C2632 C2634 1.364 . S
C2632 H2648 0.927 1_655 S
C2633 C2632 1.373 . S
C2633 C2637 1.408 . S
C2634 C2632 1.364 . S
C2634 C2635 1.370 . S
C2634 C2638 1.524 1_655 S
C2635 C2627 1.503 . S
C2635 C2634 1.370 . S
C2635 C2636 1.403 . S
C2636 C2635 1.403 . S
C2636 C2637 1.404 . S
C2636 C2639 1.539 . S
C2637 C2633 1.408 . S
C2637 C2636 1.404 . S
C2637 H2649 0.930 . S
C2638 C2634 1.524 1_455 S
C2638 H2650 0.956 . S
C2638 H2651 0.961 1_455 S
C2638 H2652 0.961 . S
C2639 C2636 1.539 . S
C2639 H2653 0.958 . S
C2639 H2654 0.961 . S
C2639 H2655 0.960 . S
H2640 C2624 0.931 1_454 S
H2641 C2629 0.929 . S
H2642 C2630 0.960 . S
H2643 C2630 0.962 . S
H2644 C2630 0.944 1_554 S
H2645 C2631 0.961 . S
H2646 C2631 0.961 . S
H2647 C2631 0.961 . S
H2648 C2632 0.927 1_455 S
H2649 C2637 0.930 . S
H2650 C2638 0.956 . S
H2651 C2638 0.961 1_655 S
H2652 C2638 0.961 . S
H2653 C2639 0.958 . S
H2654 C2639 0.961 . S
H2655 C2639 0.960 . S
C2656 C2657 1.391 . S
C2656 C2658 1.394 . S
C2656 H2672 0.931 . S
C2657 C2656 1.391 . S
C2657 C2661 1.376 . S
C2658 C2656 1.394 . S
C2658 C2659 1.369 . S
C2658 C2662 1.531 . S
C2659 C2658 1.369 . S
C2659 C2660 1.410 . S
C2659 C2667 1.503 . S
C2660 C2659 1.410 . S
C2660 C2661 1.392 . S
C2660 C2663 1.511 . S
C2661 C2657 1.376 . S
C2661 C2660 1.392 . S
C2661 H2673 0.929 . S
C2662 C2658 1.531 . S
C2662 H2674 0.960 . S
C2662 H2675 0.962 . S
C2662 H2676 0.960 . S
C2663 C2660 1.511 . S
C2663 H2677 0.961 . S
C2663 H2678 0.961 . S
C2663 H2679 0.961 . S
C2664 C2665 1.370 . S
C2664 C2666 1.363 . S
C2664 H2680 0.931 . S
C2665 C2664 1.370 . S
C2665 C2669 1.408 . S
C2666 C2664 1.363 . S
C2666 C2667 1.370 . S
C2666 C2670 1.524 . S
C2667 C2659 1.503 . S
C2667 C2666 1.370 . S
C2667 C2668 1.403 . S
C2668 C2667 1.403 . S
C2668 C2669 1.404 . S
C2668 C2671 1.539 . S
C2669 C2665 1.408 . S
C2669 C2668 1.404 . S
C2669 H2681 0.930 . S
C2670 C2666 1.524 . S
C2670 H2682 0.956 . S
C2670 H2683 0.961 . S
C2670 H2684 0.961 . S
C2671 C2668 1.539 . S
C2671 H2685 0.958 . S
C2671 H2686 0.961 . S
C2671 H2687 0.960 . S
H2672 C2656 0.931 . S
H2673 C2661 0.929 . S
H2674 C2662 0.960 . S
H2675 C2662 0.962 . S
H2676 C2662 0.960 . S
H2677 C2663 0.961 . S
H2678 C2663 0.961 . S
H2679 C2663 0.961 . S
H2680 C2664 0.931 . S
H2681 C2669 0.930 . S
H2682 C2670 0.956 . S
H2683 C2670 0.961 . S
H2684 C2670 0.961 . S
H2685 C2671 0.958 . S
H2686 C2671 0.961 . S
H2687 C2671 0.960 . S
C2688 C2689 1.376 1_554 S
C2688 C2690 1.376 1_554 S
C2688 H2704 0.963 . S
C2689 C2688 1.376 1_556 S
C2689 C2693 1.376 . S
C2690 C2688 1.376 1_556 S
C2690 C2691 1.369 . S
C2690 C2694 1.560 . S
C2691 C2690 1.369 . S
C2691 C2692 1.410 . S
C2691 C2699 1.503 . S
C2692 C2691 1.410 . S
C2692 C2693 1.392 . S
C2692 C2695 1.511 . S
C2693 C2689 1.376 . S
C2693 C2692 1.392 . S
C2693 H2705 0.929 . S
C2694 C2690 1.560 . S
C2694 H2706 0.987 . S
C2694 H2707 0.977 1_455 S
C2694 H2708 0.895 1_556 S
C2695 C2692 1.511 . S
C2695 H2709 0.961 . S
C2695 H2710 0.961 . S
C2695 H2711 0.961 . S
C2696 C2697 1.370 . S
C2696 C2698 1.363 . S
C2696 H2712 0.931 1_455 S
C2697 C2696 1.370 . S
C2697 C2701 1.408 . S
C2698 C2696 1.363 . S
C2698 C2699 1.370 . S
C2698 C2702 1.524 1_455 S
C2699 C2691 1.503 . S
C2699 C2698 1.370 . S
C2699 C2700 1.403 . S
C2700 C2699 1.403 . S
C2700 C2701 1.404 . S
C2700 C2703 1.539 . S
C2701 C2697 1.408 . S
C2701 C2700 1.404 . S
C2701 H2713 0.930 . S
C2702 C2698 1.524 1_655 S
C2702 H2714 0.956 . S
C2702 H2715 0.961 . S
C2702 H2716 0.961 . S
C2703 C2700 1.539 . S
C2703 H2717 0.958 . S
C2703 H2718 0.961 . S
C2703 H2719 0.960 . S
H2704 C2688 0.963 . S
H2705 C2693 0.929 . S
H2706 C2694 0.987 . S
H2707 C2694 0.977 1_655 S
H2708 C2694 0.895 1_554 S
H2709 C2695 0.961 . S
H2710 C2695 0.961 . S
H2711 C2695 0.961 . S
H2712 C2696 0.931 1_655 S
H2713 C2701 0.930 . S
H2714 C2702 0.956 . S
H2715 C2702 0.961 . S
H2716 C2702 0.961 . S
H2717 C2703 0.958 . S
H2718 C2703 0.961 . S
H2719 C2703 0.960 . S
C2720 C2721 1.391 . S
C2720 C2722 1.394 . S
C2720 H2736 0.931 . S
C2721 C2720 1.391 . S
C2721 C2725 1.376 . S
C2722 C2720 1.394 . S
C2722 C2723 1.369 . S
C2722 C2726 1.531 . S
C2723 C2722 1.369 . S
C2723 C2724 1.410 . S
C2723 C2731 1.503 . S
C2724 C2723 1.410 . S
C2724 C2725 1.392 . S
C2724 C2727 1.511 . S
C2725 C2721 1.376 . S
C2725 C2724 1.392 . S
C2725 H2737 0.929 . S
C2726 C2722 1.531 . S
C2726 H2738 0.960 . S
C2726 H2739 0.962 . S
C2726 H2740 0.960 . S
C2727 C2724 1.511 . S
C2727 H2741 0.961 . S
C2727 H2742 0.961 . S
C2727 H2743 0.961 . S
C2728 C2729 1.370 . S
C2728 C2730 1.363 . S
C2728 H2744 0.931 . S
C2729 C2728 1.370 . S
C2729 C2733 1.408 . S
C2730 C2728 1.363 . S
C2730 C2731 1.370 . S
C2730 C2734 1.524 . S
C2731 C2723 1.503 . S
C2731 C2730 1.370 . S
C2731 C2732 1.403 . S
C2732 C2731 1.403 . S
C2732 C2733 1.404 . S
C2732 C2735 1.539 . S
C2733 C2729 1.408 . S
C2733 C2732 1.404 . S
C2733 H2745 0.930 . S
C2734 C2730 1.524 . S
C2734 H2746 0.956 . S
C2734 H2747 0.961 . S
C2734 H2748 0.961 . S
C2735 C2732 1.539 . S
C2735 H2749 0.958 . S
C2735 H2750 0.961 . S
C2735 H2751 0.960 . S
H2736 C2720 0.931 . S
H2737 C2725 0.929 . S
H2738 C2726 0.960 . S
H2739 C2726 0.962 . S
H2740 C2726 0.960 . S
H2741 C2727 0.961 . S
H2742 C2727 0.961 . S
H2743 C2727 0.961 . S
H2744 C2728 0.931 . S
H2745 C2733 0.930 . S
H2746 C2734 0.956 . S
H2747 C2734 0.961 . S
H2748 C2734 0.961 . S
H2749 C2735 0.958 . S
H2750 C2735 0.961 . S
H2751 C2735 0.960 . S
C2752 C2753 1.391 . S
C2752 C2754 1.394 . S
C2752 H2768 0.931 . S
C2753 C2752 1.391 . S
C2753 C2757 1.376 . S
C2754 C2752 1.394 . S
C2754 C2755 1.369 . S
C2754 C2758 1.531 . S
C2755 C2754 1.369 . S
C2755 C2756 1.410 . S
C2755 C2763 1.503 . S
C2756 C2755 1.410 . S
C2756 C2757 1.392 . S
C2756 C2759 1.511 . S
C2757 C2753 1.376 . S
C2757 C2756 1.392 . S
C2757 H2769 0.929 . S
C2758 C2754 1.531 . S
C2758 H2770 0.960 . S
C2758 H2771 0.962 . S
C2758 H2772 0.960 . S
C2759 C2756 1.511 . S
C2759 H2773 0.961 . S
C2759 H2774 0.961 . S
C2759 H2775 0.961 . S
C2760 C2761 1.370 . S
C2760 C2762 1.363 . S
C2760 H2776 0.931 . S
C2761 C2760 1.370 . S
C2761 C2765 1.408 . S
C2762 C2760 1.363 . S
C2762 C2763 1.370 . S
C2762 C2766 1.524 . S
C2763 C2755 1.503 . S
C2763 C2762 1.370 . S
C2763 C2764 1.403 . S
C2764 C2763 1.403 . S
C2764 C2765 1.404 . S
C2764 C2767 1.539 . S
C2765 C2761 1.408 . S
C2765 C2764 1.404 . S
C2765 H2777 0.930 . S
C2766 C2762 1.524 . S
C2766 H2778 0.956 . S
C2766 H2779 0.961 . S
C2766 H2780 0.961 . S
C2767 C2764 1.539 . S
C2767 H2781 0.958 . S
C2767 H2782 0.961 . S
C2767 H2783 0.960 . S
H2768 C2752 0.931 . S
H2769 C2757 0.929 . S
H2770 C2758 0.960 . S
H2771 C2758 0.962 . S
H2772 C2758 0.960 . S
H2773 C2759 0.961 . S
H2774 C2759 0.961 . S
H2775 C2759 0.961 . S
H2776 C2760 0.931 . S
H2777 C2765 0.930 . S
H2778 C2766 0.956 . S
H2779 C2766 0.961 . S
H2780 C2766 0.961 . S
H2781 C2767 0.958 . S
H2782 C2767 0.961 . S
H2783 C2767 0.960 . S
C2784 C2785 1.391 . S
C2784 C2786 1.394 . S
C2784 H2800 0.931 . S
C2785 C2784 1.391 . S
C2785 C2789 1.376 . S
C2786 C2784 1.394 . S
C2786 C2787 1.369 . S
C2786 C2790 1.531 . S
C2787 C2786 1.369 . S
C2787 C2788 1.410 . S
C2787 C2795 1.503 . S
C2788 C2787 1.410 . S
C2788 C2789 1.392 . S
C2788 C2791 1.511 . S
C2789 C2785 1.376 . S
C2789 C2788 1.392 . S
C2789 H2801 0.929 . S
C2790 C2786 1.531 . S
C2790 H2802 0.960 . S
C2790 H2803 0.962 . S
C2790 H2804 0.960 . S
C2791 C2788 1.511 . S
C2791 H2805 0.961 . S
C2791 H2806 0.961 . S
C2791 H2807 0.961 . S
C2792 C2793 1.370 . S
C2792 C2794 1.363 . S
C2792 H2808 0.931 . S
C2793 C2792 1.370 . S
C2793 C2797 1.408 . S
C2794 C2792 1.363 . S
C2794 C2795 1.370 . S
C2794 C2798 1.524 . S
C2795 C2787 1.503 . S
C2795 C2794 1.370 . S
C2795 C2796 1.403 . S
C2796 C2795 1.403 . S
C2796 C2797 1.404 . S
C2796 C2799 1.539 . S
C2797 C2793 1.408 . S
C2797 C2796 1.404 . S
C2797 H2809 0.930 . S
C2798 C2794 1.524 . S
C2798 H2810 0.956 . S
C2798 H2811 0.961 . S
C2798 H2812 0.961 . S
C2799 C2796 1.539 . S
C2799 H2813 0.958 . S
C2799 H2814 0.961 . S
C2799 H2815 0.960 . S
H2800 C2784 0.931 . S
H2801 C2789 0.929 . S
H2802 C2790 0.960 . S
H2803 C2790 0.962 . S
H2804 C2790 0.960 . S
H2805 C2791 0.961 . S
H2806 C2791 0.961 . S
H2807 C2791 0.961 . S
H2808 C2792 0.931 . S
H2809 C2797 0.930 . S
H2810 C2798 0.956 . S
H2811 C2798 0.961 . S
H2812 C2798 0.961 . S
H2813 C2799 0.958 . S
H2814 C2799 0.961 . S
H2815 C2799 0.960 . S
C2816 C2817 1.391 . S
C2816 C2818 1.394 . S
C2816 H2832 0.931 . S
C2817 C2816 1.391 . S
C2817 C2821 1.376 . S
C2818 C2816 1.394 . S
C2818 C2819 1.369 . S
C2818 C2822 1.531 . S
C2819 C2818 1.369 . S
C2819 C2820 1.410 . S
C2819 C2827 1.503 . S
C2820 C2819 1.410 . S
C2820 C2821 1.392 . S
C2820 C2823 1.511 . S
C2821 C2817 1.376 . S
C2821 C2820 1.392 . S
C2821 H2833 0.880 1_554 S
C2822 C2818 1.531 . S
C2822 H2834 0.960 . S
C2822 H2835 0.962 . S
C2822 H2836 0.960 . S
C2823 C2820 1.511 . S
C2823 H2837 0.961 . S
C2823 H2838 0.961 . S
C2823 H2839 0.961 . S
C2824 C2825 1.370 . S
C2824 C2826 1.363 . S
C2824 H2840 0.931 . S
C2825 C2824 1.370 . S
C2825 C2829 1.408 . S
C2826 C2824 1.363 . S
C2826 C2827 1.370 . S
C2826 C2830 1.524 . S
C2827 C2819 1.503 . S
C2827 C2826 1.370 . S
C2827 C2828 1.403 . S
C2828 C2827 1.403 . S
C2828 C2829 1.404 . S
C2828 C2831 1.539 . S
C2829 C2825 1.408 . S
C2829 C2828 1.404 . S
C2829 H2841 0.930 . S
C2830 C2826 1.524 . S
C2830 H2842 0.956 . S
C2830 H2843 0.961 . S
C2830 H2844 0.961 . S
C2831 C2828 1.539 . S
C2831 H2845 0.958 . S
C2831 H2846 0.961 . S
C2831 H2847 0.960 . S
H2832 C2816 0.931 . S
H2833 C2821 0.880 1_556 S
H2834 C2822 0.960 . S
H2835 C2822 0.962 . S
H2836 C2822 0.960 . S
H2837 C2823 0.961 . S
H2838 C2823 0.961 . S
H2839 C2823 0.961 . S
H2840 C2824 0.931 . S
H2841 C2829 0.930 . S
H2842 C2830 0.956 . S
H2843 C2830 0.961 . S
H2844 C2830 0.961 . S
H2845 C2831 0.958 . S
H2846 C2831 0.961 . S
H2847 C2831 0.960 . S
C2848 C2849 1.391 . S
C2848 C2850 1.394 . S
C2848 H2864 0.931 . S
C2849 C2848 1.391 . S
C2849 C2853 1.376 . S
C2850 C2848 1.394 . S
C2850 C2851 1.369 . S
C2850 C2854 1.531 . S
C2851 C2850 1.369 . S
C2851 C2852 1.410 . S
C2851 C2859 1.503 . S
C2852 C2851 1.410 . S
C2852 C2853 1.392 . S
C2852 C2855 1.511 . S
C2853 C2849 1.376 . S
C2853 C2852 1.392 . S
C2853 H2865 0.929 . S
C2854 C2850 1.531 . S
C2854 H2866 0.960 . S
C2854 H2867 0.962 . S
C2854 H2868 0.960 . S
C2855 C2852 1.511 . S
C2855 H2869 0.961 . S
C2855 H2870 0.961 . S
C2855 H2871 0.961 . S
C2856 C2857 1.370 . S
C2856 C2858 1.363 . S
C2856 H2872 0.931 . S
C2857 C2856 1.370 . S
C2857 C2861 1.408 . S
C2858 C2856 1.363 . S
C2858 C2859 1.370 . S
C2858 C2862 1.524 . S
C2859 C2851 1.503 . S
C2859 C2858 1.370 . S
C2859 C2860 1.403 . S
C2860 C2859 1.403 . S
C2860 C2861 1.404 . S
C2860 C2863 1.539 . S
C2861 C2857 1.408 . S
C2861 C2860 1.404 . S
C2861 H2873 0.930 . S
C2862 C2858 1.524 . S
C2862 H2874 0.956 . S
C2862 H2875 0.961 . S
C2862 H2876 0.961 . S
C2863 C2860 1.539 . S
C2863 H2877 0.958 . S
C2863 H2878 0.961 . S
C2863 H2879 0.960 . S
H2864 C2848 0.931 . S
H2865 C2853 0.929 . S
H2866 C2854 0.960 . S
H2867 C2854 0.962 . S
H2868 C2854 0.960 . S
H2869 C2855 0.961 . S
H2870 C2855 0.961 . S
H2871 C2855 0.961 . S
H2872 C2856 0.931 . S
H2873 C2861 0.930 . S
H2874 C2862 0.956 . S
H2875 C2862 0.961 . S
H2876 C2862 0.961 . S
H2877 C2863 0.958 . S
H2878 C2863 0.961 . S
H2879 C2863 0.960 . S
C2880 C2881 1.391 . S
C2880 C2882 1.394 . S
C2880 H2896 0.931 . S
C2881 C2880 1.391 . S
C2881 C2885 1.376 . S
C2882 C2880 1.394 . S
C2882 C2883 1.369 . S
C2882 C2886 1.531 . S
C2883 C2882 1.369 . S
C2883 C2884 1.410 . S
C2883 C2891 1.503 . S
C2884 C2883 1.410 . S
C2884 C2885 1.392 . S
C2884 C2887 1.511 . S
C2885 C2881 1.376 . S
C2885 C2884 1.392 . S
C2885 H2897 0.929 . S
C2886 C2882 1.531 . S
C2886 H2898 0.960 . S
C2886 H2899 0.962 . S
C2886 H2900 0.960 . S
C2887 C2884 1.511 . S
C2887 H2901 0.961 . S
C2887 H2902 0.961 . S
C2887 H2903 0.961 . S
C2888 C2889 1.370 . S
C2888 C2890 1.363 . S
C2888 H2904 0.931 . S
C2889 C2888 1.370 . S
C2889 C2893 1.408 . S
C2890 C2888 1.363 . S
C2890 C2891 1.370 . S
C2890 C2894 1.524 . S
C2891 C2883 1.503 . S
C2891 C2890 1.370 . S
C2891 C2892 1.403 . S
C2892 C2891 1.403 . S
C2892 C2893 1.404 . S
C2892 C2895 1.539 . S
C2893 C2889 1.408 . S
C2893 C2892 1.404 . S
C2893 H2905 0.930 . S
C2894 C2890 1.524 . S
C2894 H2906 0.956 . S
C2894 H2907 0.961 . S
C2894 H2908 0.961 . S
C2895 C2892 1.539 . S
C2895 H2909 0.958 . S
C2895 H2910 0.961 . S
C2895 H2911 0.960 . S
H2896 C2880 0.931 . S
H2897 C2885 0.929 . S
H2898 C2886 0.960 . S
H2899 C2886 0.962 . S
H2900 C2886 0.960 . S
H2901 C2887 0.961 . S
H2902 C2887 0.961 . S
H2903 C2887 0.961 . S
H2904 C2888 0.931 . S
H2905 C2893 0.930 . S
H2906 C2894 0.956 . S
H2907 C2894 0.961 . S
H2908 C2894 0.961 . S
H2909 C2895 0.958 . S
H2910 C2895 0.961 . S
H2911 C2895 0.960 . S
C2912 C2913 1.391 . S
C2912 C2914 1.394 . S
C2912 H2928 0.931 . S
C2913 C2912 1.391 . S
C2913 C2917 1.376 . S
C2914 C2912 1.394 . S
C2914 C2915 1.369 . S
C2914 C2918 1.531 . S
C2915 C2914 1.369 . S
C2915 C2916 1.410 . S
C2915 C2923 1.503 . S
C2916 C2915 1.410 . S
C2916 C2917 1.392 . S
C2916 C2919 1.511 . S
C2917 C2913 1.376 . S
C2917 C2916 1.392 . S
C2917 H2929 0.929 . S
C2918 C2914 1.531 . S
C2918 H2930 0.960 . S
C2918 H2931 0.962 . S
C2918 H2932 0.960 . S
C2919 C2916 1.511 . S
C2919 H2933 0.961 . S
C2919 H2934 0.961 . S
C2919 H2935 0.961 . S
C2920 C2921 1.370 . S
C2920 C2922 1.363 . S
C2920 H2936 0.931 . S
C2921 C2920 1.370 . S
C2921 C2925 1.408 . S
C2922 C2920 1.363 . S
C2922 C2923 1.370 . S
C2922 C2926 1.524 . S
C2923 C2915 1.503 . S
C2923 C2922 1.370 . S
C2923 C2924 1.403 . S
C2924 C2923 1.403 . S
C2924 C2925 1.404 . S
C2924 C2927 1.539 . S
C2925 C2921 1.408 . S
C2925 C2924 1.404 . S
C2925 H2937 0.930 . S
C2926 C2922 1.524 . S
C2926 H2938 0.956 . S
C2926 H2939 0.961 . S
C2926 H2940 0.961 . S
C2927 C2924 1.539 . S
C2927 H2941 0.958 . S
C2927 H2942 0.961 . S
C2927 H2943 0.960 . S
H2928 C2912 0.931 . S
H2929 C2917 0.929 . S
H2930 C2918 0.960 . S
H2931 C2918 0.962 . S
H2932 C2918 0.960 . S
H2933 C2919 0.961 . S
H2934 C2919 0.961 . S
H2935 C2919 0.961 . S
H2936 C2920 0.931 . S
H2937 C2925 0.930 . S
H2938 C2926 0.956 . S
H2939 C2926 0.961 . S
H2940 C2926 0.961 . S
H2941 C2927 0.958 . S
H2942 C2927 0.961 . S
H2943 C2927 0.960 . S
C2944 C2945 1.391 . S
C2944 C2946 1.394 . S
C2944 H2960 0.931 . S
C2945 C2944 1.391 . S
C2945 C2949 1.376 . S
C2946 C2944 1.394 . S
C2946 C2947 1.369 . S
C2946 C2950 1.531 . S
C2947 C2946 1.369 . S
C2947 C2948 1.410 . S
C2947 C2955 1.503 . S
C2948 C2947 1.410 . S
C2948 C2949 1.392 . S
C2948 C2951 1.511 . S
C2949 C2945 1.376 . S
C2949 C2948 1.392 . S
C2949 H2961 0.929 . S
C2950 C2946 1.531 . S
C2950 H2962 0.960 . S
C2950 H2963 0.962 . S
C2950 H2964 0.960 . S
C2951 C2948 1.511 . S
C2951 H2965 0.961 . S
C2951 H2966 0.961 . S
C2951 H2967 0.961 . S
C2952 C2953 1.370 . S
C2952 C2954 1.363 . S
C2952 H2968 0.931 . S
C2953 C2952 1.370 . S
C2953 C2957 1.408 . S
C2954 C2952 1.363 . S
C2954 C2955 1.370 . S
C2954 C2958 1.524 . S
C2955 C2947 1.503 . S
C2955 C2954 1.370 . S
C2955 C2956 1.403 . S
C2956 C2955 1.403 . S
C2956 C2957 1.404 . S
C2956 C2959 1.539 . S
C2957 C2953 1.408 . S
C2957 C2956 1.404 . S
C2957 H2969 0.930 . S
C2958 C2954 1.524 . S
C2958 H2970 0.956 . S
C2958 H2971 0.961 . S
C2958 H2972 0.961 . S
C2959 C2956 1.539 . S
C2959 H2973 0.958 . S
C2959 H2974 0.961 . S
C2959 H2975 0.960 . S
H2960 C2944 0.931 . S
H2961 C2949 0.929 . S
H2962 C2950 0.960 . S
H2963 C2950 0.962 . S
H2964 C2950 0.960 . S
H2965 C2951 0.961 . S
H2966 C2951 0.961 . S
H2967 C2951 0.961 . S
H2968 C2952 0.931 . S
H2969 C2957 0.930 . S
H2970 C2958 0.956 . S
H2971 C2958 0.961 . S
H2972 C2958 0.961 . S
H2973 C2959 0.958 . S
H2974 C2959 0.961 . S
H2975 C2959 0.960 . S
C2976 C2977 1.391 . S
C2976 C2978 1.394 . S
C2976 H2992 0.931 . S
C2977 C2976 1.391 . S
C2977 C2981 1.376 . S
C2978 C2976 1.394 . S
C2978 C2979 1.369 . S
C2978 C2982 1.531 . S
C2979 C2978 1.369 . S
C2979 C2980 1.410 . S
C2979 C2987 1.503 . S
C2980 C2979 1.410 . S
C2980 C2981 1.392 . S
C2980 C2983 1.511 . S
C2981 C2977 1.376 . S
C2981 C2980 1.392 . S
C2981 H2993 0.929 . S
C2982 C2978 1.531 . S
C2982 H2994 0.960 . S
C2982 H2995 0.962 . S
C2982 H2996 0.960 . S
C2983 C2980 1.511 . S
C2983 H2997 0.961 . S
C2983 H2998 0.961 . S
C2983 H2999 0.961 . S
C2984 C2985 1.370 1_554 S
C2984 C2986 1.375 . S
C2984 H3000 0.931 . S
C2985 C2984 1.370 1_556 S
C2985 C2989 1.408 . S
C2986 C2984 1.375 . S
C2986 C2987 1.309 1_554 S
C2986 C2990 1.577 . S
C2987 C2979 1.503 . S
C2987 C2986 1.309 1_556 S
C2987 C2988 1.403 . S
C2988 C2987 1.403 . S
C2988 C2989 1.404 . S
C2988 C2991 1.539 . S
C2989 C2985 1.408 . S
C2989 C2988 1.404 . S
C2989 H3001 0.930 . S
C2990 C2986 1.577 . S
C2990 H3002 0.956 . S
C2990 H3003 0.961 . S
C2990 H3004 0.961 . S
C2991 C2988 1.539 . S
C2991 H3005 0.958 . S
C2991 H3006 0.961 . S
C2991 H3007 0.960 . S
H2992 C2976 0.931 . S
H2993 C2981 0.929 . S
H2994 C2982 0.960 . S
H2995 C2982 0.962 . S
H2996 C2982 0.960 . S
H2997 C2983 0.961 . S
H2998 C2983 0.961 . S
H2999 C2983 0.961 . S
H3000 C2984 0.931 . S
H3001 C2989 0.930 . S
H3002 C2990 0.956 . S
H3003 C2990 0.961 . S
H3004 C2990 0.961 . S
H3005 C2991 0.958 . S
H3006 C2991 0.961 . S
H3007 C2991 0.960 . S
C3008 C3009 1.391 . S
C3008 C3010 1.394 . S
C3008 H3024 0.931 . S
C3009 C3008 1.391 . S
C3009 C3013 1.376 . S
C3010 C3008 1.394 . S
C3010 C3011 1.369 . S
C3010 C3014 1.531 . S
C3011 C3010 1.369 . S
C3011 C3012 1.410 . S
C3011 C3019 1.503 . S
C3012 C3011 1.410 . S
C3012 C3013 1.392 . S
C3012 C3015 1.511 . S
C3013 C3009 1.376 . S
C3013 C3012 1.392 . S
C3013 H3025 0.929 . S
C3014 C3010 1.531 . S
C3014 H3026 0.960 . S
C3014 H3027 0.962 . S
C3014 H3028 0.960 . S
C3015 C3012 1.511 . S
C3015 H3029 0.961 . S
C3015 H3030 0.961 . S
C3015 H3031 0.961 . S
C3016 C3017 1.370 . S
C3016 C3018 1.363 . S
C3016 H3032 0.931 . S
C3017 C3016 1.370 . S
C3017 C3021 1.408 . S
C3018 C3016 1.363 . S
C3018 C3019 1.370 . S
C3018 C3022 1.524 . S
C3019 C3011 1.503 . S
C3019 C3018 1.370 . S
C3019 C3020 1.403 . S
C3020 C3019 1.403 . S
C3020 C3021 1.404 . S
C3020 C3023 1.539 . S
C3021 C3017 1.408 . S
C3021 C3020 1.404 . S
C3021 H3033 0.930 . S
C3022 C3018 1.524 . S
C3022 H3034 0.956 . S
C3022 H3035 0.961 . S
C3022 H3036 0.961 . S
C3023 C3020 1.539 . S
C3023 H3037 0.958 . S
C3023 H3038 0.961 . S
C3023 H3039 0.960 . S
H3024 C3008 0.931 . S
H3025 C3013 0.929 . S
H3026 C3014 0.960 . S
H3027 C3014 0.962 . S
H3028 C3014 0.960 . S
H3029 C3015 0.961 . S
H3030 C3015 0.961 . S
H3031 C3015 0.961 . S
H3032 C3016 0.931 . S
H3033 C3021 0.930 . S
H3034 C3022 0.956 . S
H3035 C3022 0.961 . S
H3036 C3022 0.961 . S
H3037 C3023 0.958 . S
H3038 C3023 0.961 . S
H3039 C3023 0.960 . S
C3040 C3041 1.391 . S
C3040 C3042 1.394 . S
C3040 H3056 0.931 . S
C3041 C3040 1.391 . S
C3041 C3045 1.376 . S
C3042 C3040 1.394 . S
C3042 C3043 1.369 . S
C3042 C3046 1.531 1_554 S
C3043 C3042 1.369 . S
C3043 C3044 1.410 . S
C3043 C3051 1.503 . S
C3044 C3043 1.410 . S
C3044 C3045 1.392 . S
C3044 C3047 1.511 . S
C3045 C3041 1.376 . S
C3045 C3044 1.392 . S
C3045 H3057 0.929 . S
C3046 C3042 1.531 1_556 S
C3046 H3058 0.960 1_556 S
C3046 H3059 0.962 . S
C3046 H3060 0.960 . S
C3047 C3044 1.511 . S
C3047 H3061 0.961 . S
C3047 H3062 0.961 . S
C3047 H3063 0.961 . S
C3048 C3049 1.370 . S
C3048 C3050 1.363 . S
C3048 H3064 0.931 1_554 S
C3049 C3048 1.370 . S
C3049 C3053 1.408 . S
C3050 C3048 1.363 . S
C3050 C3051 1.370 . S
C3050 C3054 1.524 1_554 S
C3051 C3043 1.503 . S
C3051 C3050 1.370 . S
C3051 C3052 1.403 . S
C3052 C3051 1.403 . S
C3052 C3053 1.404 . S
C3052 C3055 1.539 . S
C3053 C3049 1.408 . S
C3053 C3052 1.404 . S
C3053 H3065 0.930 . S
C3054 C3050 1.524 1_556 S
C3054 H3066 0.956 . S
C3054 H3067 0.961 1_556 S
C3054 H3068 0.961 . S
C3055 C3052 1.539 . S
C3055 H3069 0.958 . S
C3055 H3070 0.961 . S
C3055 H3071 0.960 . S
H3056 C3040 0.931 . S
H3057 C3045 0.929 . S
H3058 C3046 0.960 1_554 S
H3059 C3046 0.962 . S
H3060 C3046 0.960 . S
H3061 C3047 0.961 . S
H3062 C3047 0.961 . S
H3063 C3047 0.961 . S
H3064 C3048 0.931 1_556 S
H3065 C3053 0.930 . S
H3066 C3054 0.956 . S
H3067 C3054 0.961 1_554 S
H3068 C3054 0.961 . S
H3069 C3055 0.958 . S
H3070 C3055 0.961 . S
H3071 C3055 0.960 . S
C3072 C3073 1.391 . S
C3072 C3074 1.394 . S
C3072 H3088 0.931 1_554 S
C3073 C3072 1.391 . S
C3073 C3077 1.376 . S
C3074 C3072 1.394 . S
C3074 C3075 1.369 . S
C3074 C3078 1.531 1_554 S
C3075 C3074 1.369 . S
C3075 C3076 1.410 . S
C3075 C3083 1.503 . S
C3076 C3075 1.410 . S
C3076 C3077 1.392 . S
C3076 C3079 1.511 . S
C3077 C3073 1.376 . S
C3077 C3076 1.392 . S
C3077 H3089 0.929 . S
C3078 C3074 1.531 1_556 S
C3078 H3090 0.960 . S
C3078 H3091 0.962 . S
C3078 H3092 0.960 . S
C3079 C3076 1.511 . S
C3079 H3093 0.961 . S
C3079 H3094 0.961 . S
C3079 H3095 0.961 . S
C3080 C3081 1.370 . S
C3080 C3082 1.363 . S
C3080 H3096 0.931 . S
C3081 C3080 1.370 . S
C3081 C3085 1.408 . S
C3082 C3080 1.363 . S
C3082 C3083 1.370 . S
C3082 C3086 1.524 . S
C3083 C3075 1.503 . S
C3083 C3082 1.370 . S
C3083 C3084 1.403 . S
C3084 C3083 1.403 . S
C3084 C3085 1.404 . S
C3084 C3087 1.539 . S
C3085 C3081 1.408 . S
C3085 C3084 1.404 . S
C3085 H3097 0.930 . S
C3086 C3082 1.524 . S
C3086 H3098 0.956 . S
C3086 H3099 0.961 . S
C3086 H3100 0.961 . S
C3087 C3084 1.539 . S
C3087 H3101 0.958 . S
C3087 H3102 0.961 . S
C3087 H3103 0.960 . S
H3088 C3072 0.931 1_556 S
H3089 C3077 0.929 . S
H3090 C3078 0.960 . S
H3091 C3078 0.962 . S
H3092 C3078 0.960 . S
H3093 C3079 0.961 . S
H3094 C3079 0.961 . S
H3095 C3079 0.961 . S
H3096 C3080 0.931 . S
H3097 C3085 0.930 . S
H3098 C3086 0.956 . S
H3099 C3086 0.961 . S
H3100 C3086 0.961 . S
H3101 C3087 0.958 . S
H3102 C3087 0.961 . S
H3103 C3087 0.960 . S
C1577 C561 1.468 . S
C1569 C177 1.458 . S
C1609 C620 1.536 . S
C1601 C209 1.518 . S
C1633 C253 1.439 . S
C1641 C737 1.465 . S
C1673 C805 1.535 . S
C1665 C157 1.492 1_655 S
C1705 C884 1.524 . S
C1697 C343 1.500 . S
C1737 C1009 1.506 . S
C1729 C401 1.462 . S
C1761 C369 1.481 . S
C1769 C1069 1.526 . S
C1801 C1177 1.513 . S
C1793 C317 1.482 . S
C1825 C375 1.498 . S
C1833 C1273 1.517 . S
C1865 C1333 1.562 . S
C1857 C305 1.559 . S
C1889 C349 1.518 . S
C1897 C1236 1.543 . S
C1929 C1353 1.518 . S
C1921 C413 1.484 . S
C1953 C241 1.447 . S
C1961 C1421 1.481 . S
C1985 C151 1.431 . S
C1993 C1412 1.490 . S
C2017 C189 1.505 . S
C2025 C1441 1.513 . S
C2049 C215 1.479 . S
C2057 C1449 1.514 . S
C2081 C113 1.442 . S
C2089 C833 1.495 . S
C2113 C471 1.476 . S
C2121 C796 1.488 . S
C2153 C532 1.526 . S
C2145 C509 1.489 . S
C2185 C629 1.508 . S
C2177 C279 1.470 . S
C2209 C145 1.460 . S
C2217 C893 1.474 . S
C2249 C1185 1.557 . S
C2241 C381 1.489 . S
C2281 C913 1.536 . S
C2273 C311 1.510 . S
C2313 C1097 1.499 . S
C2305 C407 1.450 . S
C2345 C1089 1.466 . S
C2337 C465 1.435 . S
C2369 C497 1.517 . S
C2377 C1157 1.535 . S
C2401 C285 1.390 . S
C2409 C921 1.467 . S
C2441 C972 1.535 . S
C2433 C445 1.497 . S
C2465 C119 1.455 . S
C2473 C717 1.527 . S
C2505 C825 1.506 . S
C2497 C17 1.460 1_655 S
C2537 C541 1.525 . S
C2529 C49 1.499 . S
C2569 C657 1.516 . S
C2561 C93 1.484 . S
C2593 C55 1.470 . S
C2601 C1361 1.518 . S
C2625 C81 1.560 . S
C2633 C1245 1.562 . S
C2657 C125 1.506 . S
C2665 C1324 1.543 . S
C2689 C29 1.437 1_556 S
C2697 C1265 1.520 . S
C2729 C1509 1.484 . S
C2721 C273 1.413 . S
C2761 C1500 1.489 . S
C2753 C439 1.455 . S
C2793 C1529 1.513 . S
C2785 C477 1.503 . S
C2817 C503 1.480 . S
C2825 C1537 1.514 . S
C2849 C337 1.447 . S
C2857 C1001 1.495 . S
C2889 C981 1.487 . S
C2881 C183 1.483 . S
C2921 C1060 1.525 . S
C2913 C221 1.513 . S
C2953 C1148 1.508 . S
C2945 C247 1.451 . S
C2977 C433 1.422 . S
C2985 C708 1.475 . S
C3017 C649 1.555 . S
C3009 C61 1.529 . S
C3041 C87 1.536 . S
C3049 C745 1.538 . S
C3081 C569 1.499 . S
C3073 C23 1.420 1_565 S
