# Generated by pormake.
# Topology llk, (3,12)-cn, num edge types: 1
# Building blocks:
#     Node 0, Type 0, BuildingBlock: BELTOD_clean_linker_0, # of connection points: 3
#     Node 1, Type 0, BuildingBlock: BELTOD_clean_linker_0, # of connection points: 3
#     Node 2, Type 0, BuildingBlock: BELTOD_clean_linker_0, # of connection points: 3
#     Node 3, Type 0, BuildingBlock: BELTOD_clean_linker_0, # of connection points: 3
#     Node 4, Type 0, BuildingBlock: BELTOD_clean_linker_0, # of connection points: 3
#     Node 5, Type 0, BuildingBlock: BELTOD_clean_linker_0, # of connection points: 3
#     Node 6, Type 0, BuildingBlock: BELTOD_clean_linker_0, # of connection points: 3
#     Node 7, Type 0, BuildingBlock: BELTOD_clean_linker_0, # of connection points: 3
#     Node 8, Type 0, BuildingBlock: BELTOD_clean_linker_0, # of connection points: 3
#     Node 9, Type 0, BuildingBlock: BELTOD_clean_linker_0, # of connection points: 3
#     Node 10, Type 0, BuildingBlock: BELTOD_clean_linker_0, # of connection points: 3
#     Node 11, Type 0, BuildingBlock: BELTOD_clean_linker_0, # of connection points: 3
#     Node 12, Type 0, BuildingBlock: BELTOD_clean_linker_0, # of connection points: 3
#     Node 13, Type 0, BuildingBlock: BELTOD_clean_linker_0, # of connection points: 3
#     Node 14, Type 0, BuildingBlock: BELTOD_clean_linker_0, # of connection points: 3
#     Node 15, Type 0, BuildingBlock: BELTOD_clean_linker_0, # of connection points: 3
#     Node 16, Type 0, BuildingBlock: BELTOD_clean_linker_0, # of connection points: 3
#     Node 17, Type 0, BuildingBlock: BELTOD_clean_linker_0, # of connection points: 3
#     Node 18, Type 0, BuildingBlock: BELTOD_clean_linker_0, # of connection points: 3
#     Node 19, Type 0, BuildingBlock: BELTOD_clean_linker_0, # of connection points: 3
#     Node 20, Type 0, BuildingBlock: BELTOD_clean_linker_0, # of connection points: 3
#     Node 21, Type 0, BuildingBlock: BELTOD_clean_linker_0, # of connection points: 3
#     Node 22, Type 0, BuildingBlock: BELTOD_clean_linker_0, # of connection points: 3
#     Node 23, Type 0, BuildingBlock: BELTOD_clean_linker_0, # of connection points: 3
#     Node 24, Type 1, BuildingBlock: QEWDON_clean_sbu_0, # of connection points: 12
#     Node 25, Type 1, BuildingBlock: QEWDON_clean_sbu_0, # of connection points: 12
#     Node 26, Type 1, BuildingBlock: QEWDON_clean_sbu_0, # of connection points: 12
#     Node 27, Type 1, BuildingBlock: QEWDON_clean_sbu_0, # of connection points: 12
#     Node 28, Type 1, BuildingBlock: QEWDON_clean_sbu_0, # of connection points: 12
#     Node 29, Type 1, BuildingBlock: QEWDON_clean_sbu_0, # of connection points: 12
#     Edge 30, Type (0, 1), BuildingBlock: TEMPAE_clean_linker_10, # of connection points: 2
#     Edge 31, Type (0, 1), BuildingBlock: TEMPAE_clean_linker_10, # of connection points: 2
#     Edge 32, Type (0, 1), BuildingBlock: TEMPAE_clean_linker_10, # of connection points: 2
#     Edge 33, Type (0, 1), BuildingBlock: TEMPAE_clean_linker_10, # of connection points: 2
#     Edge 34, Type (0, 1), BuildingBlock: TEMPAE_clean_linker_10, # of connection points: 2
#     Edge 35, Type (0, 1), BuildingBlock: TEMPAE_clean_linker_10, # of connection points: 2
#     Edge 36, Type (0, 1), BuildingBlock: TEMPAE_clean_linker_10, # of connection points: 2
#     Edge 37, Type (0, 1), BuildingBlock: TEMPAE_clean_linker_10, # of connection points: 2
#     Edge 38, Type (0, 1), BuildingBlock: TEMPAE_clean_linker_10, # of connection points: 2
#     Edge 39, Type (0, 1), BuildingBlock: TEMPAE_clean_linker_10, # of connection points: 2
#     Edge 40, Type (0, 1), BuildingBlock: TEMPAE_clean_linker_10, # of connection points: 2
#     Edge 41, Type (0, 1), BuildingBlock: TEMPAE_clean_linker_10, # of connection points: 2
#     Edge 42, Type (0, 1), BuildingBlock: TEMPAE_clean_linker_10, # of connection points: 2
#     Edge 43, Type (0, 1), BuildingBlock: TEMPAE_clean_linker_10, # of connection points: 2
#     Edge 44, Type (0, 1), BuildingBlock: TEMPAE_clean_linker_10, # of connection points: 2
#     Edge 45, Type (0, 1), BuildingBlock: TEMPAE_clean_linker_10, # of connection points: 2
#     Edge 46, Type (0, 1), BuildingBlock: TEMPAE_clean_linker_10, # of connection points: 2
#     Edge 47, Type (0, 1), BuildingBlock: TEMPAE_clean_linker_10, # of connection points: 2
#     Edge 48, Type (0, 1), BuildingBlock: TEMPAE_clean_linker_10, # of connection points: 2
#     Edge 49, Type (0, 1), BuildingBlock: TEMPAE_clean_linker_10, # of connection points: 2
#     Edge 50, Type (0, 1), BuildingBlock: TEMPAE_clean_linker_10, # of connection points: 2
#     Edge 51, Type (0, 1), BuildingBlock: TEMPAE_clean_linker_10, # of connection points: 2
#     Edge 52, Type (0, 1), BuildingBlock: TEMPAE_clean_linker_10, # of connection points: 2
#     Edge 53, Type (0, 1), BuildingBlock: TEMPAE_clean_linker_10, # of connection points: 2
#     Edge 54, Type (0, 1), BuildingBlock: TEMPAE_clean_linker_10, # of connection points: 2
#     Edge 55, Type (0, 1), BuildingBlock: TEMPAE_clean_linker_10, # of connection points: 2
#     Edge 56, Type (0, 1), BuildingBlock: TEMPAE_clean_linker_10, # of connection points: 2
#     Edge 57, Type (0, 1), BuildingBlock: TEMPAE_clean_linker_10, # of connection points: 2
#     Edge 58, Type (0, 1), BuildingBlock: TEMPAE_clean_linker_10, # of connection points: 2
#     Edge 59, Type (0, 1), BuildingBlock: TEMPAE_clean_linker_10, # of connection points: 2
#     Edge 60, Type (0, 1), BuildingBlock: TEMPAE_clean_linker_10, # of connection points: 2
#     Edge 61, Type (0, 1), BuildingBlock: TEMPAE_clean_linker_10, # of connection points: 2
#     Edge 62, Type (0, 1), BuildingBlock: TEMPAE_clean_linker_10, # of connection points: 2
#     Edge 63, Type (0, 1), BuildingBlock: TEMPAE_clean_linker_10, # of connection points: 2
#     Edge 64, Type (0, 1), BuildingBlock: TEMPAE_clean_linker_10, # of connection points: 2
#     Edge 65, Type (0, 1), BuildingBlock: TEMPAE_clean_linker_10, # of connection points: 2
#     Edge 66, Type (0, 1), BuildingBlock: TEMPAE_clean_linker_10, # of connection points: 2
#     Edge 67, Type (0, 1), BuildingBlock: TEMPAE_clean_linker_10, # of connection points: 2
#     Edge 68, Type (0, 1), BuildingBlock: TEMPAE_clean_linker_10, # of connection points: 2
#     Edge 69, Type (0, 1), BuildingBlock: TEMPAE_clean_linker_10, # of connection points: 2
#     Edge 70, Type (0, 1), BuildingBlock: TEMPAE_clean_linker_10, # of connection points: 2
#     Edge 71, Type (0, 1), BuildingBlock: TEMPAE_clean_linker_10, # of connection points: 2
#     Edge 72, Type (0, 1), BuildingBlock: TEMPAE_clean_linker_10, # of connection points: 2
#     Edge 73, Type (0, 1), BuildingBlock: TEMPAE_clean_linker_10, # of connection points: 2
#     Edge 74, Type (0, 1), BuildingBlock: TEMPAE_clean_linker_10, # of connection points: 2
#     Edge 75, Type (0, 1), BuildingBlock: TEMPAE_clean_linker_10, # of connection points: 2
#     Edge 76, Type (0, 1), BuildingBlock: TEMPAE_clean_linker_10, # of connection points: 2
#     Edge 77, Type (0, 1), BuildingBlock: TEMPAE_clean_linker_10, # of connection points: 2
#     Edge 78, Type (0, 1), BuildingBlock: TEMPAE_clean_linker_10, # of connection points: 2
#     Edge 79, Type (0, 1), BuildingBlock: TEMPAE_clean_linker_10, # of connection points: 2
#     Edge 80, Type (0, 1), BuildingBlock: TEMPAE_clean_linker_10, # of connection points: 2
#     Edge 81, Type (0, 1), BuildingBlock: TEMPAE_clean_linker_10, # of connection points: 2
#     Edge 82, Type (0, 1), BuildingBlock: TEMPAE_clean_linker_10, # of connection points: 2
#     Edge 83, Type (0, 1), BuildingBlock: TEMPAE_clean_linker_10, # of connection points: 2
#     Edge 84, Type (0, 1), BuildingBlock: TEMPAE_clean_linker_10, # of connection points: 2
#     Edge 85, Type (0, 1), BuildingBlock: TEMPAE_clean_linker_10, # of connection points: 2
#     Edge 86, Type (0, 1), BuildingBlock: TEMPAE_clean_linker_10, # of connection points: 2
#     Edge 87, Type (0, 1), BuildingBlock: TEMPAE_clean_linker_10, # of connection points: 2
#     Edge 88, Type (0, 1), BuildingBlock: TEMPAE_clean_linker_10, # of connection points: 2
#     Edge 89, Type (0, 1), BuildingBlock: TEMPAE_clean_linker_10, # of connection points: 2
#     Edge 90, Type (0, 1), BuildingBlock: TEMPAE_clean_linker_10, # of connection points: 2
#     Edge 91, Type (0, 1), BuildingBlock: TEMPAE_clean_linker_10, # of connection points: 2
#     Edge 92, Type (0, 1), BuildingBlock: TEMPAE_clean_linker_10, # of connection points: 2
#     Edge 93, Type (0, 1), BuildingBlock: TEMPAE_clean_linker_10, # of connection points: 2
#     Edge 94, Type (0, 1), BuildingBlock: TEMPAE_clean_linker_10, # of connection points: 2
#     Edge 95, Type (0, 1), BuildingBlock: TEMPAE_clean_linker_10, # of connection points: 2
#     Edge 96, Type (0, 1), BuildingBlock: TEMPAE_clean_linker_10, # of connection points: 2
#     Edge 97, Type (0, 1), BuildingBlock: TEMPAE_clean_linker_10, # of connection points: 2
#     Edge 98, Type (0, 1), BuildingBlock: TEMPAE_clean_linker_10, # of connection points: 2
#     Edge 99, Type (0, 1), BuildingBlock: TEMPAE_clean_linker_10, # of connection points: 2
#     Edge 100, Type (0, 1), BuildingBlock: TEMPAE_clean_linker_10, # of connection points: 2
#     Edge 101, Type (0, 1), BuildingBlock: TEMPAE_clean_linker_10, # of connection points: 2
# Relax obj value: 0.119
# Max RMSD: 0.148
# Mean RMSD: 0.135
data_MOF--net-llk--node1-QEWDON_clean_sbu_0--node2-BELTOD_clean_linker_0--edge1-TEMPAE_clean_linker_10
_symmetry_space_group_name_H-M    P1
_symmetry_Int_Tables_number       1
_symmetry_cell_setting            triclinic
loop_
_symmetry_equiv_pos_as_xyz
'x, y, z'
_cell_length_a     52.034986
_cell_length_b     54.112552
_cell_length_c     52.868544
_cell_angle_alpha  89.983111
_cell_angle_beta   89.971142
_cell_angle_gamma 89.630992
loop_
_atom_site_label
_atom_site_type_symbol
_atom_site_fract_x
_atom_site_fract_y
_atom_site_fract_z
_atom_type_partial_charge
P0 P 0.99174 0.26869 0.27268 0.0
H1 H 0.98346 0.26446 0.21823 0.0
H2 H 0.00038 0.28827 0.18272 0.0
H3 H 0.05604 0.32172 0.23249 0.0
H4 H 0.03939 0.29747 0.26774 0.0
H5 H 0.96204 0.23641 0.30392 0.0
H6 H 0.97243 0.20036 0.32897 0.0
H7 H 0.0491 0.19924 0.29727 0.0
H8 H 0.03854 0.23666 0.27277 0.0
H9 H 0.9623 0.31302 0.28573 0.0
H10 H 0.02804 0.27324 0.31481 0.0
O11 O 0.96089 0.26803 0.26403 0.0
H12 H 0.96504 0.34215 0.32093 0.0
H13 H 0.03117 0.30251 0.34983 0.0
C14 C 0.00986 0.27946 0.24575 0.0
C15 C -0.0002 0.27637 0.22137 0.0
C16 C 0.00932 0.29022 0.2011 0.0
C17 C 0.02917 0.30737 0.20484 0.0
C18 C 0.04073 0.30873 0.22888 0.0
C19 C 0.03117 0.29484 0.24914 0.0
C20 C -0.00074 0.23884 0.28596 0.0
C21 C 0.9809 0.22807 0.30177 0.0
C22 C 0.98692 0.20727 0.31614 0.0
C23 C 0.01157 0.19645 0.31504 0.0
C24 C 0.02995 0.20705 0.29871 0.0
C25 C 0.02388 0.22823 0.2844 0.0
C26 C 0.99458 0.29069 0.298 0.0
C27 C 0.97733 0.31057 0.29968 0.0
C28 C 0.97905 0.32731 0.31971 0.0
C29 C -0.00176 0.32452 0.33826 0.0
C30 C 0.0159 0.30488 0.33611 0.0
C31 C 0.01415 0.28817 0.31606 0.0
P32 P 0.76925 0.01734 0.2394 0.0
H33 H 0.77664 0.02079 0.18469 0.0
H34 H 0.74879 0.03867 0.15258 0.0
H35 H 0.70726 0.07878 0.21045 0.0
H36 H 0.73441 0.05983 0.24261 0.0
H37 H 0.81599 0.99747 0.26169 0.0
H38 H 0.84128 0.01028 0.29805 0.0
H39 H 0.79694 0.07784 0.30297 0.0
H40 H 0.77182 0.06507 0.26618 0.0
H41 H 0.72191 0.99416 0.22257 0.0
H42 H 0.75433 0.01861 0.29333 0.0
O43 O 0.78241 0.99294 0.22493 0.0
H44 H 0.68083 0.98659 0.24373 0.0
H45 H 0.71354 0.01229 0.31409 0.0
C46 C 0.75744 0.03873 0.21607 0.0
C47 C 0.76224 0.03419 0.19042 0.0
C48 C 0.74632 0.04461 0.17199 0.0
C49 C 0.72542 0.05976 0.17903 0.0
C50 C 0.72292 0.06685 0.20449 0.0
C51 C 0.73871 0.05624 0.22291 0.0
C52 C 0.79215 0.03039 0.261 0.0
C53 C 0.81225 0.01545 0.26994 0.0
C54 C 0.82669 0.02278 0.2908 0.0
C55 C 0.82098 0.04503 0.30335 0.0
C56 C 0.80164 0.06056 0.29366 0.0
C57 C 0.78742 0.05335 0.27249 0.0
C58 C 0.74117 0.00713 0.25625 0.0
C59 C 0.72032 0.99754 0.24271 0.0
C60 C 0.69679 0.99348 0.25476 0.0
C61 C 0.69376 0.99899 0.28059 0.0
C62 C 0.71516 0.00749 0.29427 0.0
C63 C 0.73863 0.01138 0.28226 0.0
P64 P 0.05484 0.75944 0.25778 0.0
H65 H 0.06174 0.75661 0.20295 0.0
H66 H 0.04184 0.73065 0.17107 0.0
H67 H 0.98474 0.70774 0.2255 0.0
H68 H 0.00534 0.73339 0.25764 0.0
H69 H 0.08003 0.80493 0.27319 0.0
H70 H 0.06582 0.8398 0.29877 0.0
H71 H 0.9885 0.81108 0.29857 0.0
H72 H 0.00315 0.77573 0.2735 0.0
H73 H 0.05616 0.70525 0.25786 0.0
H74 H 0.0615 0.76395 0.31282 0.0
O75 O 0.08432 0.76434 0.24647 0.0
H76 H 0.05573 0.67485 0.29184 0.0
H77 H 0.06236 0.73361 0.34682 0.0
C78 C 0.03525 0.74675 0.23278 0.0
C79 C 0.04453 0.74656 0.20791 0.0
C80 C 0.03297 0.73173 0.18957 0.0
C81 C 0.0118 0.71679 0.19574 0.0
C82 C 0.00123 0.71869 0.22019 0.0
C83 C 0.01283 0.73359 0.23853 0.0
C84 C 0.04257 0.7879 0.27099 0.0
C85 C 0.05986 0.80643 0.27804 0.0
C86 C 0.05169 0.82643 0.29276 0.0
C87 C 0.026 0.82829 0.30087 0.0
C88 C 0.0085 0.81009 0.29297 0.0
C89 C 0.01676 0.79 0.2783 0.0
C90 C 0.05764 0.73695 0.2828 0.0
C91 C 0.05732 0.71163 0.27723 0.0
C92 C 0.05747 0.6942 0.29672 0.0
C93 C 0.05859 0.70178 0.32215 0.0
C94 C 0.06073 0.72715 0.3275 0.0
C95 C 0.06028 0.74456 0.30801 0.0
P96 P 0.25072 0.93788 0.24249 0.0
H97 H 0.19538 0.92761 0.24311 0.0
H98 H 0.15918 0.95262 0.25842 0.0
H99 H 0.20886 0.01582 0.26456 0.0
H100 H 0.24488 0.99103 0.24859 0.0
H101 H 0.29922 0.91822 0.22424 0.0
H102 H 0.32531 0.92715 0.18695 0.0
H103 H 0.26587 0.97639 0.15936 0.0
H104 H 0.24016 0.96775 0.19696 0.0
H105 H 0.24744 0.92465 0.2958 0.0
H106 H 0.29542 0.97025 0.24869 0.0
O107 O 0.24238 0.90822 0.24438 0.0
H108 H 0.27044 0.93908 0.33339 0.0
H109 H 0.31839 0.9847 0.28602 0.0
C110 C 0.22283 0.95741 0.24519 0.0
C111 C 0.19827 0.94708 0.24672 0.0
C112 C 0.17757 0.9614 0.25527 0.0
C113 C 0.18142 0.98604 0.26257 0.0
C114 C 0.2055 0.99691 0.25878 0.0
C115 C 0.22606 0.98271 0.24987 0.0
C116 C 0.26802 0.94262 0.21352 0.0
C117 C 0.29173 0.93074 0.21 0.0
C118 C 0.30652 0.93572 0.18859 0.0
C119 C 0.29771 0.95258 0.17024 0.0
C120 C 0.27334 0.9636 0.17334 0.0
C121 C 0.25861 0.95865 0.19483 0.0
C122 C 0.27028 0.94571 0.26939 0.0
C123 C 0.26326 0.93737 0.29351 0.0
C124 C 0.27617 0.94588 0.31498 0.0
C125 C 0.29627 0.96298 0.31265 0.0
C126 C 0.30327 0.97123 0.2884 0.0
C127 C 0.29024 0.96284 0.26699 0.0
P128 P 0.94919 0.76572 0.77292 0.0
H129 H 0.94132 0.75847 0.82722 0.0
H130 H 0.9612 0.73017 0.85727 0.0
H131 H 0.01932 0.71147 0.80191 0.0
H132 H -0.00135 0.73935 0.77157 0.0
H133 H 0.92484 0.81443 0.76911 0.0
H134 H 0.93743 0.85223 0.74777 0.0
H135 H 0.01151 0.81946 0.73071 0.0
H136 H -0.00069 0.78243 0.75392 0.0
H137 H 0.93061 0.71538 0.76911 0.0
H138 H 0.96421 0.76898 0.71875 0.0
O139 O 0.9193 0.76925 0.78388 0.0
H140 H 0.93294 0.68428 0.73571 0.0
H141 H 0.96845 0.73787 0.68624 0.0
C142 C 0.96834 0.75088 0.79706 0.0
C143 C 0.9587 0.74877 0.82171 0.0
C144 C 0.97023 0.73258 0.83899 0.0
C145 C 0.99176 0.71822 0.83198 0.0
C146 C 0.00252 0.72187 0.80782 0.0
C147 C 0.99089 0.73805 0.79052 0.0
C148 C 0.96106 0.79547 0.76295 0.0
C149 C 0.94408 0.81562 0.76144 0.0
C150 C 0.95122 0.8372 0.74881 0.0
C151 C 0.97528 0.83886 0.73673 0.0
C152 C 0.99288 0.81914 0.73979 0.0
C153 C 0.98593 0.79781 0.75309 0.0
C154 C 0.94769 0.74441 0.74674 0.0
C155 C 0.93841 0.7205 0.75086 0.0
C156 C 0.94001 0.70266 0.73179 0.0
C157 C 0.95129 0.70835 0.7083 0.0
C158 C 0.95944 0.73273 0.70392 0.0
C159 C 0.95742 0.75061 0.72285 0.0
P160 P 0.28933 0.93394 0.77086 0.0
H161 H 0.28585 0.92414 0.8254 0.0
H162 H 0.3067 0.94479 0.86102 0.0
H163 H 0.3276 0.00523 0.81201 0.0
H164 H 0.30676 0.98459 0.7765 0.0
H165 H 0.26317 0.90927 0.73 0.0
H166 H 0.2346 0.92425 0.69658 0.0
H167 H 0.23042 0.99553 0.73298 0.0
H168 H 0.25935 0.98056 0.76635 0.0
H169 H 0.34226 0.92197 0.78446 0.0
H170 H 0.30217 0.95147 0.71948 0.0
O171 O 0.2846 0.90468 0.77957 0.0
H172 H 0.38351 0.93063 0.76374 0.0
H173 H 0.34278 0.95964 0.69895 0.0
C174 C 0.29477 0.95284 0.79831 0.0
C175 C 0.29397 0.9423 0.82253 0.0
C176 C 0.30593 0.95408 0.84288 0.0
C177 C 0.31905 0.97639 0.8391 0.0
C178 C 0.3178 0.98792 0.81532 0.0
C179 C 0.30566 0.97626 0.7951 0.0
C180 C 0.26324 0.9437 0.75076 0.0
C181 C 0.25562 0.92794 0.73116 0.0
C182 C 0.23959 0.93659 0.71192 0.0
C183 C 0.23064 0.96111 0.71209 0.0
C184 C 0.23714 0.97655 0.73245 0.0
C185 C 0.25359 0.96797 0.75155 0.0
C186 C 0.31905 0.93571 0.75347 0.0
C187 C 0.34228 0.92969 0.76555 0.0
C188 C 0.36578 0.9348 0.75384 0.0
C189 C 0.36628 0.94568 0.72973 0.0
C190 C 0.34297 0.95087 0.71738 0.0
C191 C 0.3196 0.94611 0.72919 0.0
P192 P 0.07391 0.26307 0.74992 0.0
H193 H 0.09046 0.26217 0.80273 0.0
H194 H 0.07675 0.28538 0.83998 0.0
H195 H 0.01578 0.31921 0.79628 0.0
H196 H 0.0293 0.29536 0.75919 0.0
H197 H 0.08453 0.20995 0.7487 0.0
H198 H 0.06486 0.17674 0.72467 0.0
H199 H 0.00246 0.22564 0.7036 0.0
H200 H 0.02254 0.25905 0.72769 0.0
H201 H 0.07933 0.31713 0.74765 0.0
H202 H 0.07426 0.25646 0.69497 0.0
O203 O 0.10393 0.25362 0.75573 0.0
H204 H 0.08155 0.34616 0.71234 0.0
H205 H 0.07581 0.28538 0.65968 0.0
C206 C 0.06114 0.27735 0.77809 0.0
C207 C 0.07395 0.27435 0.80121 0.0
C208 C 0.06618 0.28778 0.82249 0.0
C209 C 0.04541 0.30449 0.82107 0.0
C210 C 0.03178 0.30644 0.79813 0.0
C211 C 0.03952 0.29288 0.77686 0.0
C212 C 0.05514 0.23703 0.73975 0.0
C213 C 0.06621 0.21338 0.73961 0.0
C214 C 0.05484 0.19431 0.72588 0.0
C215 C 0.03223 0.19862 0.71194 0.0
C216 C 0.02005 0.22184 0.71388 0.0
C217 C 0.03138 0.24087 0.72782 0.0
C218 C 0.07557 0.28469 0.72402 0.0
C219 C 0.07824 0.31006 0.72854 0.0
C220 C 0.0795 0.32666 0.70831 0.0
C221 C 0.07847 0.31812 0.68318 0.0
C222 C 0.07666 0.29258 0.67877 0.0
C223 C 0.07546 0.27603 0.699 0.0
P224 P 0.77555 0.11704 0.77121 0.0
H225 H 0.76216 0.12807 0.82384 0.0
H226 H 0.72866 0.11229 0.85201 0.0
H227 H 0.70425 0.06192 0.79345 0.0
H228 H 0.73739 0.07803 0.76538 0.0
H229 H 0.82935 0.13089 0.76605 0.0
H230 H 0.86747 0.10638 0.75553 0.0
H231 H 0.82399 0.03943 0.76545 0.0
H232 H 0.78598 0.06399 0.77643 0.0
H233 H 0.73297 0.14369 0.74785 0.0
H234 H 0.7886 0.08853 0.72512 0.0
O235 O 0.78152 0.14627 0.77921 0.0
H236 H 0.71101 0.13915 0.7072 0.0
H237 H 0.76641 0.08329 0.68522 0.0
C238 C 0.75192 0.10454 0.79241 0.0
C239 C 0.74956 0.11366 0.81711 0.0
C240 C 0.7305 0.10453 0.83321 0.0
C241 C 0.71361 0.08604 0.82485 0.0
C242 C 0.71657 0.07653 0.80027 0.0
C243 C 0.7356 0.08565 0.78424 0.0
C244 C 0.80488 0.09928 0.77217 0.0
C245 C 0.82829 0.11094 0.7671 0.0
C246 C 0.85009 0.09691 0.76115 0.0
C247 C 0.8486 0.07104 0.75968 0.0
C248 C 0.82561 0.05934 0.76659 0.0
C249 C 0.80392 0.07339 0.77292 0.0
C250 C 0.76241 0.11651 0.73964 0.0
C251 C 0.74068 0.13089 0.73401 0.0
C252 C 0.72804 0.12811 0.71085 0.0
C253 C 0.73683 0.1107 0.69299 0.0
C254 C 0.75927 0.09707 0.69835 0.0
C255 C 0.77192 0.09995 0.72143 0.0
P256 P 0.25217 0.26711 0.96007 0.0
H257 H 0.26414 0.21464 0.95367 0.0
H258 H 0.29531 0.18845 0.97513 0.0
H259 H 0.30338 0.24353 0.03376 0.0
H260 H 0.27278 0.2701 0.01155 0.0
H261 H 0.20724 0.27927 0.92985 0.0
H262 H 0.16716 0.3007 0.93944 0.0
H263 H 0.18774 0.30265 0.01852 0.0
H264 H 0.22792 0.28066 0.00883 0.0
H265 H 0.30313 0.27003 0.93845 0.0
H266 H 0.25324 0.3171 0.9827 0.0
O267 O 0.25076 0.25528 0.93094 0.0
H268 H 0.33861 0.29866 0.9452 0.0
H269 H 0.28864 0.34544 0.9899 0.0
C270 C 0.2661 0.24438 0.98093 0.0
C271 C 0.27189 0.22078 0.97158 0.0
C272 C 0.28981 0.20574 0.98397 0.0
C273 C 0.30223 0.21403 0.00602 0.0
C274 C 0.29455 0.23677 0.01658 0.0
C275 C 0.27667 0.25183 0.0041 0.0
C276 C 0.22058 0.2782 0.96863 0.0
C277 C 0.20289 0.28359 0.94939 0.0
C278 C 0.17988 0.29582 0.9549 0.0
C279 C 0.17427 0.30331 0.97974 0.0
C280 C 0.19158 0.29708 -0.0008 0.0
C281 C 0.2145 0.28444 0.99369 0.0
C282 C 0.27544 0.29153 0.95976 0.0
C283 C 0.29962 0.28685 0.94905 0.0
C284 C 0.31996 0.30303 0.95321 0.0
C285 C 0.31647 0.32417 0.96829 0.0
C286 C 0.29188 0.32941 0.97803 0.0
C287 C 0.27155 0.31316 0.97389 0.0
P288 P 0.2226 0.77838 0.99163 0.0
H289 H 0.1664 0.78053 0.98943 0.0
H290 H 0.1354 0.75338 0.00992 0.0
H291 H 0.19374 0.72946 0.06257 0.0
H292 H 0.22455 0.75722 0.04258 0.0
H293 H 0.24419 0.81338 0.95625 0.0
H294 H 0.27139 0.84944 0.96159 0.0
H295 H 0.26399 0.84315 0.04273 0.0
H296 H 0.23606 0.80711 0.03716 0.0
H297 H 0.2205 0.72705 0.97583 0.0
H298 H 0.27503 0.7747 0.01272 0.0
O299 O 0.20977 0.7781 0.96269 0.0
H300 H 0.24923 0.69168 0.9826 0.0
H301 H 0.30351 0.73952 0.01992 0.0
C302 C 0.19796 0.77031 0.01401 0.0
C303 C 0.17219 0.77056 0.00627 0.0
C304 C 0.15442 0.75507 0.01805 0.0
C305 C 0.16238 0.73911 0.03751 0.0
C306 C 0.18721 0.74161 0.04756 0.0
C307 C 0.20482 0.75744 0.03607 0.0
C308 C 0.23784 0.80778 0.9963 0.0
C309 C 0.24779 0.82012 0.9752 0.0
C310 C 0.26357 0.84061 0.97827 0.0
C311 C 0.27006 0.849 0.00258 0.0
C312 C 0.25914 0.83726 0.02376 0.0
C313 C 0.24319 0.81669 0.02062 0.0
C314 C 0.24585 0.75361 0.99321 0.0
C315 C 0.23886 0.72997 0.98497 0.0
C316 C 0.25511 0.70973 0.98918 0.0
C317 C 0.27864 0.71278 0.00183 0.0
C318 C 0.28569 0.7366 0.00981 0.0
C319 C 0.26939 0.7568 0.00564 0.0
P320 P 0.80576 0.27729 0.93452 0.0
H321 H 0.85658 0.29271 0.91761 0.0
H322 H 0.89191 0.3112 0.94072 0.0
H323 H 0.8557 0.2911 0.01135 0.0
H324 H 0.81972 0.27357 0.98791 0.0
H325 H 0.75884 0.25794 0.91393 0.0
H326 H 0.73363 0.22109 0.92283 0.0
H327 H 0.79227 0.19561 0.97461 0.0
H328 H 0.81777 0.23249 0.96521 0.0
H329 H 0.80265 0.33003 0.92304 0.0
H330 H 0.76487 0.27853 0.97272 0.0
O331 O 0.81027 0.28116 0.90352 0.0
H332 H 0.77638 0.36377 0.9403 0.0
H333 H 0.73789 0.31165 0.98917 0.0
C334 C 0.83559 0.28158 0.95102 0.0
C335 C 0.85665 0.29142 0.93804 0.0
C336 C 0.87699 0.30197 0.95136 0.0
C337 C 0.87654 0.30293 0.97795 0.0
C338 C 0.85646 0.29101 0.99088 0.0
C339 C 0.83602 0.28066 0.9775 0.0
C340 C 0.79 0.24809 0.93909 0.0
C341 C 0.76647 0.24426 0.92693 0.0
C342 C 0.75201 0.22328 0.93216 0.0
C343 C 0.76081 0.20565 0.9497 0.0
C344 C 0.78503 0.20891 0.96101 0.0
C345 C 0.79953 0.23006 0.95577 0.0
C346 C 0.78512 0.30166 0.94598 0.0
C347 C 0.78839 0.32593 0.93734 0.0
C348 C 0.77339 0.34519 0.94726 0.0
C349 C 0.75493 0.34048 0.96611 0.0
C350 C 0.75211 0.3161 0.97495 0.0
C351 C 0.76726 0.29697 0.9652 0.0
P352 P 0.78956 0.7686 0.99797 0.0
H353 H 0.8448 0.76517 0.98824 0.0
H354 H 0.8722 0.73057 0.97543 0.0
H355 H 0.80477 0.68691 0.9601 0.0
H356 H 0.77743 0.72156 0.97321 0.0
H357 H 0.78258 0.82197 0.99556 0.0
H358 H 0.74784 0.84628 0.97766 0.0
H359 H 0.72244 0.78263 0.93528 0.0
H360 H 0.75716 0.75814 0.95398 0.0
H361 H 0.79005 0.72302 0.02833 0.0
H362 H 0.73653 0.78214 0.01186 0.0
O363 O 0.80814 0.78568 0.01672 0.0
H364 H 0.75566 0.7 0.0491 0.0
H365 H 0.70221 0.75904 0.03149 0.0
C366 C 0.80912 0.74572 0.98223 0.0
C367 C 0.83588 0.74838 0.98153 0.0
C368 C 0.85154 0.72862 0.974 0.0
C369 C 0.84063 0.70591 0.96706 0.0
C370 C 0.81371 0.7041 0.96565 0.0
C371 C 0.79808 0.72392 0.97306 0.0
C372 C 0.77254 0.78823 0.97611 0.0
C373 C 0.77032 0.81347 0.98155 0.0
C374 C 0.75028 0.82741 0.97122 0.0
C375 C 0.73202 0.81633 0.95527 0.0
C376 C 0.73591 0.79163 0.94782 0.0
C377 C 0.75601 0.77767 0.95823 0.0
C378 C 0.76565 0.75375 0.0174 0.0
C379 C 0.77098 0.7311 0.02921 0.0
C380 C 0.75129 0.71795 0.04107 0.0
C381 C 0.72601 0.7274 0.04148 0.0
C382 C 0.72138 0.75113 0.03159 0.0
C383 C 0.74106 0.76426 0.01991 0.0
P384 P 0.48247 0.78076 0.75605 0.0
H385 H 0.45362 0.78921 0.70935 0.0
H386 H 0.46444 0.81258 0.67149 0.0
H387 H 0.54381 0.81471 0.69535 0.0
H388 H 0.5329 0.79048 0.73285 0.0
H389 H 0.44697 0.74195 0.77094 0.0
H390 H 0.45291 0.70373 0.79383 0.0
H391 H 0.53534 0.71084 0.7865 0.0
H392 H 0.52901 0.7503 0.76437 0.0
H393 H 0.50197 0.8314 0.75155 0.0
H394 H 0.49408 0.77643 0.81016 0.0
O395 O 0.45107 0.78692 0.75822 0.0
H396 H 0.5186 0.86054 0.78223 0.0
H397 H 0.509 0.80613 0.84136 0.0
C398 C 0.49236 0.78855 0.72425 0.0
C399 C 0.47352 0.79396 0.70608 0.0
C400 C 0.47969 0.80764 0.68451 0.0
C401 C 0.50483 0.81631 0.68072 0.0
C402 C 0.52421 0.80849 0.69762 0.0
C403 C 0.51803 0.79451 0.7191 0.0
C404 C 0.48754 0.74908 0.76585 0.0
C405 C 0.46637 0.73513 0.77365 0.0
C406 C 0.46985 0.71297 0.78676 0.0
C407 C 0.49467 0.70395 0.79229 0.0
C408 C 0.51593 0.71729 0.78303 0.0
C409 C 0.51237 0.7397 0.77001 0.0
C410 C 0.49766 0.8013 0.77827 0.0
C411 C 0.5044 0.8253 0.77089 0.0
C412 C 0.51355 0.84218 0.78862 0.0
C413 C 0.51516 0.83578 0.81436 0.0
C414 C 0.50863 0.81159 0.82166 0.0
C415 C 0.49992 0.79456 0.80378 0.0
P416 P 0.30126 0.50644 0.74967 0.0
H417 H 0.31359 0.48846 0.69907 0.0
H418 H 0.29811 0.5026 0.65789 0.0
H419 H 0.27132 0.57056 0.69185 0.0
H420 H 0.28693 0.55637 0.73307 0.0
H421 H 0.32188 0.47952 0.79194 0.0
H422 H 0.36102 0.48297 0.81666 0.0
H423 H 0.3845 0.54529 0.7712 0.0
H424 H 0.34456 0.54181 0.74644 0.0
H425 H 0.24682 0.50062 0.74061 0.0
H426 H 0.29454 0.53565 0.7966 0.0
O427 O 0.29755 0.47615 0.74509 0.0
H428 H 0.20838 0.51313 0.76398 0.0
H429 H 0.25609 0.54848 0.82005 0.0
C430 C 0.30065 0.52108 0.71916 0.0
C431 C 0.30535 0.50683 0.69752 0.0
C432 C 0.29655 0.51492 0.67398 0.0
C433 C 0.28311 0.53743 0.67187 0.0
C434 C 0.28164 0.55314 0.69298 0.0
C435 C 0.29042 0.54498 0.71657 0.0
C436 C 0.33057 0.51013 0.76717 0.0
C437 C 0.33552 0.49381 0.7871 0.0
C438 C 0.35805 0.4957 0.8011 0.0
C439 C 0.37621 0.51405 0.79552 0.0
C440 C 0.37098 0.53083 0.77578 0.0
C441 C 0.34824 0.52885 0.76164 0.0
C442 C 0.27348 0.51683 0.76709 0.0
C443 C 0.24898 0.5111 0.75792 0.0
C444 C 0.22702 0.51848 0.77117 0.0
C445 C 0.22916 0.53179 0.7939 0.0
C446 C 0.25382 0.538 0.80275 0.0
C447 C 0.27582 0.53067 0.78937 0.0
P448 P 0.49315 0.25765 0.75746 0.0
H449 H 0.50725 0.26198 0.70416 0.0
H450 H 0.4986 0.23443 0.66851 0.0
H451 H 0.43999 0.19797 0.71219 0.0
H452 H 0.44778 0.22637 0.74743 0.0
H453 H 0.52368 0.30284 0.75721 0.0
H454 H 0.52062 0.33928 0.78387 0.0
H455 H 0.44386 0.31838 0.80598 0.0
H456 H 0.44663 0.28231 0.77804 0.0
H457 H 0.49392 0.20385 0.76153 0.0
H458 H 0.4821 0.26548 0.81213 0.0
O459 O 0.52486 0.25588 0.75294 0.0
H460 H 0.48762 0.1754 0.79667 0.0
H461 H 0.47419 0.23731 0.84669 0.0
C462 C 0.4787 0.24582 0.72876 0.0
C463 C 0.4917 0.24886 0.70572 0.0
C464 C 0.48681 0.23302 0.68534 0.0
C465 C 0.469 0.21375 0.68781 0.0
C466 C 0.45403 0.21249 0.70991 0.0
C467 C 0.45848 0.22878 0.73005 0.0
C468 C 0.48571 0.28929 0.7663 0.0
C469 C 0.50574 0.30648 0.76695 0.0
C470 C 0.50408 0.32729 0.78251 0.0
C471 C 0.48247 0.33118 0.79805 0.0
C472 C 0.46095 0.31585 0.79456 0.0
C473 C 0.46245 0.29521 0.77844 0.0
C474 C 0.48694 0.23693 0.78359 0.0
C475 C 0.48901 0.21132 0.77992 0.0
C476 C 0.48529 0.19502 0.80006 0.0
C477 C 0.47981 0.20402 0.82444 0.0
C478 C 0.47817 0.2297 0.82814 0.0
C479 C 0.4822 0.24595 0.80806 0.0
P480 P 0.72961 0.47945 0.77331 0.0
H481 H 0.67389 0.47491 0.76612 0.0
H482 H 0.63754 0.49354 0.78865 0.0
H483 H 0.68968 0.54227 0.82763 0.0
H484 H 0.72589 0.52303 0.80579 0.0
H485 H 0.74869 0.46338 0.72399 0.0
H486 H 0.78272 0.47927 0.69697 0.0
H487 H 0.78763 0.54455 0.74363 0.0
H488 H 0.75342 0.52852 0.77068 0.0
H489 H 0.71878 0.46394 0.82531 0.0
H490 H 0.78581 0.48015 0.7803 0.0
O491 O 0.71905 0.4525 0.76219 0.0
H492 H 0.74606 0.45902 0.86271 0.0
H493 H 0.81264 0.47693 0.81736 0.0
C494 C 0.70263 0.49749 0.78437 0.0
C495 C 0.67744 0.48999 0.77908 0.0
C496 C 0.65664 0.50073 0.7919 0.0
C497 C 0.66078 0.51912 0.8102 0.0
C498 C 0.68591 0.52785 0.81395 0.0
C499 C 0.70664 0.51706 0.80121 0.0
C500 C 0.74824 0.49483 0.74927 0.0
C501 C 0.75637 0.48151 0.72795 0.0
C502 C 0.77593 0.49061 0.7125 0.0
C503 C 0.788 0.51309 0.71828 0.0
C504 C 0.77882 0.52708 0.73883 0.0
C505 C 0.75901 0.51807 0.75413 0.0
C506 C 0.75007 0.47313 0.80011 0.0
C507 C 0.73932 0.46648 0.82346 0.0
C508 C 0.75493 0.46384 0.84487 0.0
C509 C 0.7816 0.4678 0.84324 0.0
C510 C 0.7923 0.47339 0.81946 0.0
C511 C 0.77677 0.47568 0.79812 0.0
P512 P 0.4487 0.26559 0.2556 0.0
H513 H 0.42222 0.23938 0.29563 0.0
H514 H 0.43662 0.21041 0.3279 0.0
H515 H 0.51556 0.22523 0.30842 0.0
H516 H 0.50092 0.25448 0.27565 0.0
H517 H 0.43192 0.31747 0.25501 0.0
H518 H 0.44644 0.35209 0.22932 0.0
H519 H 0.51441 0.31061 0.20857 0.0
H520 H 0.49951 0.27579 0.23401 0.0
H521 H 0.45933 0.21204 0.24969 0.0
H522 H 0.44268 0.27467 0.2016 0.0
O523 O 0.41754 0.27186 0.25987 0.0
H524 H 0.46777 0.18671 0.21237 0.0
H525 H 0.45158 0.24936 0.16426 0.0
C526 C 0.46045 0.24956 0.28342 0.0
C527 C 0.44267 0.23705 0.29863 0.0
C528 C 0.45092 0.2202 0.31695 0.0
C529 C 0.47721 0.21534 0.32053 0.0
C530 C 0.49517 0.22869 0.30614 0.0
C531 C 0.48683 0.24551 0.2875 0.0
C532 C 0.46458 0.29391 0.24649 0.0
C533 C 0.45042 0.31607 0.24573 0.0
C534 C 0.45872 0.33593 0.23089 0.0
C535 C 0.48132 0.33396 0.21641 0.0
C536 C 0.49664 0.31256 0.21908 0.0
C537 C 0.48838 0.29276 0.23404 0.0
C538 C 0.45112 0.24551 0.2285 0.0
C539 C 0.45728 0.22037 0.2312 0.0
C540 C 0.46194 0.2058 0.20984 0.0
C541 C 0.46059 0.21622 0.18553 0.0
C542 C 0.45303 0.24102 0.18284 0.0
C543 C 0.44799 0.25545 0.20417 0.0
P544 P 0.72934 0.54901 0.27046 0.0
H545 H 0.67414 0.54095 0.26519 0.0
H546 H 0.64962 0.51457 0.23663 0.0
H547 H 0.7197 0.47803 0.21338 0.0
H548 H 0.74415 0.50398 0.24262 0.0
H549 H 0.72661 0.57354 0.31971 0.0
H550 H 0.75082 0.56655 0.35864 0.0
H551 H 0.78066 0.49819 0.32797 0.0
H552 H 0.75656 0.50539 0.28896 0.0
H553 H 0.74068 0.54791 0.21595 0.0
H554 H 0.78018 0.56786 0.28462 0.0
O555 O 0.7113 0.57456 0.27237 0.0
H556 H 0.78046 0.55211 0.19229 0.0
H557 H 0.81972 0.57381 0.26083 0.0
C558 C 0.71103 0.52501 0.25531 0.0
C559 C 0.68417 0.52674 0.25459 0.0
C560 C 0.67013 0.51149 0.23843 0.0
C561 C 0.68284 0.49444 0.22266 0.0
C562 C 0.7095 0.49109 0.22531 0.0
C563 C 0.72345 0.50602 0.24188 0.0
C564 C 0.73967 0.53988 0.30152 0.0
C565 C 0.73759 0.55659 0.32169 0.0
C566 C 0.75146 0.5526 0.34396 0.0
C567 C 0.76782 0.53197 0.34619 0.0
C568 C 0.76837 0.51437 0.32663 0.0
C569 C 0.75442 0.51834 0.30443 0.0
C570 C 0.75771 0.55623 0.25228 0.0
C571 C 0.75789 0.55332 0.22596 0.0
C572 C 0.78069 0.55616 0.21233 0.0
C573 C 0.80362 0.56287 0.22466 0.0
C574 C 0.80274 0.5678 0.25079 0.0
C575 C 0.78002 0.5645 0.26444 0.0
P576 P 0.59795 0.76993 0.2595 0.0
H577 H 0.6188 0.78909 0.30671 0.0
H578 H 0.60051 0.81529 0.33965 0.0
H579 H 0.52556 0.80835 0.30535 0.0
H580 H 0.54423 0.78228 0.27208 0.0
H581 H 0.6057 0.7161 0.26172 0.0
H582 H 0.58927 0.68258 0.23521 0.0
H583 H 0.53712 0.73389 0.19907 0.0
H584 H 0.55339 0.76725 0.22574 0.0
H585 H 0.58741 0.82379 0.25836 0.0
H586 H 0.615 0.7675 0.20706 0.0
O587 O 0.62755 0.76051 0.26713 0.0
H588 H 0.58494 0.85314 0.22366 0.0
H589 H 0.61291 0.79714 0.17212 0.0
C590 C 0.58283 0.7833 0.28713 0.0
C591 C 0.59828 0.79252 0.30666 0.0
C592 C 0.58777 0.8076 0.32555 0.0
C593 C 0.56155 0.81407 0.32517 0.0
C594 C 0.54588 0.80395 0.3061 0.0
C595 C 0.55645 0.78876 0.28722 0.0
C596 C 0.58098 0.74426 0.24554 0.0
C597 C 0.59026 0.72003 0.24857 0.0
C598 C 0.5809 0.70087 0.23336 0.0
C599 C 0.56225 0.70571 0.21473 0.0
C600 C 0.55181 0.72969 0.21295 0.0
C601 C 0.56094 0.74873 0.22837 0.0
C602 C 0.60081 0.79319 0.23523 0.0
C603 C 0.59331 0.81774 0.23975 0.0
C604 C 0.59213 0.83468 0.21985 0.0
C605 C 0.59849 0.8274 0.19509 0.0
C606 C 0.60754 0.8032 0.19093 0.0
C607 C 0.60882 0.78629 0.21089 0.0
P608 P 0.2955 0.62967 0.2559 0.0
H609 H 0.28156 0.64233 0.30808 0.0
H610 H 0.24866 0.62613 0.3367 0.0
H611 H 0.23221 0.56803 0.28326 0.0
H612 H 0.26521 0.5841 0.25489 0.0
H613 H 0.34147 0.65125 0.23494 0.0
H614 H 0.37858 0.63163 0.21529 0.0
H615 H 0.35717 0.56186 0.2487 0.0
H616 H 0.31966 0.58172 0.26812 0.0
H617 H 0.25299 0.6549 0.23011 0.0
H618 H 0.30403 0.5934 0.2153 0.0
O619 O 0.29656 0.65989 0.26209 0.0
H620 H 0.22943 0.64555 0.19114 0.0
H621 H 0.2806 0.58379 0.17725 0.0
C622 C 0.27558 0.61468 0.27918 0.0
C623 C 0.27122 0.62583 0.30274 0.0
C624 C 0.2524 0.61657 0.31907 0.0
C625 C 0.23755 0.59605 0.31201 0.0
C626 C 0.243 0.58414 0.28898 0.0
C627 C 0.26198 0.59326 0.27281 0.0
C628 C 0.32782 0.61798 0.25303 0.0
C629 C 0.34545 0.63201 0.23914 0.0
C630 C 0.36671 0.6207 0.2278 0.0
C631 C 0.37059 0.59507 0.23003 0.0
C632 C 0.35446 0.58158 0.24632 0.0
C633 C 0.33318 0.59297 0.25774 0.0
C634 C 0.28057 0.6252 0.22551 0.0
C635 C 0.25945 0.63974 0.21829 0.0
C636 C 0.24592 0.63427 0.19613 0.0
C637 C 0.25321 0.61396 0.18102 0.0
C638 C 0.2748 0.59988 0.18807 0.0
C639 C 0.28824 0.60538 0.21008 0.0
P640 P 0.79239 0.77896 0.42714 0.0
H641 H 0.79378 0.72715 0.41084 0.0
H642 H 0.81576 0.691 0.42862 0.0
H643 H 0.83233 0.7324 0.49642 0.0
H644 H 0.81032 0.76848 0.47856 0.0
H645 H 0.75967 0.81111 0.39758 0.0
H646 H 0.72015 0.83345 0.40676 0.0
H647 H 0.71594 0.79757 0.47972 0.0
H648 H 0.75635 0.77562 0.47046 0.0
H649 H 0.84708 0.78266 0.41652 0.0
H650 H 0.7902 0.82393 0.45864 0.0
O651 O 0.79525 0.77423 0.39606 0.0
H652 H 0.8805 0.81093 0.43129 0.0
H653 H 0.82333 0.85198 0.47346 0.0
C654 C 0.80074 0.75062 0.44323 0.0
C655 C 0.80149 0.72826 0.42982 0.0
C656 C 0.81409 0.70757 0.44 0.0
C657 C 0.82623 0.70902 0.4637 0.0
C658 C 0.82359 0.73089 0.4779 0.0
C659 C 0.81082 0.75146 0.46779 0.0
C660 C 0.76063 0.79124 0.43305 0.0
C661 C 0.74995 0.80754 0.41532 0.0
C662 C 0.72722 0.82033 0.42062 0.0
C663 C 0.71457 0.81722 0.44393 0.0
C664 C 0.72517 0.80052 0.46163 0.0
C665 C 0.74811 0.78772 0.45626 0.0
C666 C 0.8161 0.80141 0.43608 0.0
C667 C 0.84173 0.798 0.42863 0.0
C668 C 0.86081 0.81402 0.43723 0.0
C669 C 0.8545 0.83374 0.45343 0.0
C670 C 0.82872 0.83722 0.46064 0.0
C671 C 0.80972 0.82111 0.45217 0.0
P672 P 0.76791 0.26222 0.45735 0.0
H673 H 0.71306 0.26224 0.4459 0.0
H674 H 0.67764 0.23802 0.46268 0.0
H675 H 0.72674 0.21137 0.52284 0.0
H676 H 0.7623 0.23545 0.50561 0.0
H677 H 0.78392 0.30552 0.42877 0.0
H678 H 0.8045 0.34381 0.44098 0.0
H679 H 0.79762 0.32296 0.51973 0.0
H680 H 0.77472 0.28572 0.50719 0.0
H681 H 0.78432 0.21917 0.42785 0.0
H682 H 0.80882 0.25687 0.49547 0.0
O683 O 0.76034 0.26344 0.42668 0.0
H684 H 0.8185 0.18844 0.43386 0.0
H685 H 0.84216 0.22616 0.50196 0.0
C686 C 0.7405 0.25021 0.47412 0.0
C687 C 0.71609 0.25165 0.46303 0.0
C688 C 0.69574 0.23784 0.47278 0.0
C689 C 0.69941 0.2224 0.49393 0.0
C690 C 0.72339 0.22268 0.50625 0.0
C691 C 0.74374 0.23654 0.49645 0.0
C692 C 0.77788 0.29265 0.46706 0.0
C693 C 0.78614 0.3095 0.44871 0.0
C694 C 0.7984 0.33131 0.45577 0.0
C695 C 0.80354 0.33641 0.48139 0.0
C696 C 0.794 0.31997 0.49982 0.0
C697 C 0.78099 0.29847 0.49269 0.0
C698 C 0.7943 0.24073 0.46085 0.0
C699 C 0.79719 0.22105 0.44381 0.0
C700 C 0.8166 0.20336 0.44739 0.0
C701 C 0.83325 0.20494 0.46828 0.0
C702 C 0.83016 0.22469 0.4853 0.0
C703 C 0.81091 0.24235 0.48162 0.0
P704 P 0.27585 0.75491 0.5035 0.0
H705 H 0.33112 0.75107 0.49488 0.0
H706 H 0.36649 0.77847 0.50553 0.0
H707 H 0.31557 0.82119 0.55338 0.0
H708 H 0.28005 0.79395 0.54207 0.0
H709 H 0.26052 0.70603 0.4867 0.0
H710 H 0.2333 0.67498 0.50617 0.0
H711 H 0.23537 0.71492 0.5767 0.0
H712 H 0.26437 0.74545 0.55749 0.0
H713 H 0.26193 0.78861 0.46234 0.0
H714 H 0.23227 0.76998 0.53613 0.0
O715 O 0.28486 0.74552 0.47473 0.0
H716 H 0.22613 0.81768 0.45638 0.0
H717 H 0.19685 0.79861 0.53023 0.0
C718 C 0.30283 0.77073 0.51729 0.0
C719 C 0.32765 0.76602 0.50808 0.0
C720 C 0.34795 0.78171 0.51428 0.0
C721 C 0.34383 0.80235 0.52997 0.0
C722 C 0.3193 0.80582 0.54076 0.0
C723 C 0.29898 0.79012 0.53448 0.0
C724 C 0.26433 0.72825 0.52055 0.0
C725 C 0.25626 0.70763 0.50668 0.0
C726 C 0.24063 0.68984 0.51781 0.0
C727 C 0.23219 0.69268 0.54285 0.0
C728 C 0.24175 0.71233 0.55737 0.0
C729 C 0.25827 0.72972 0.5464 0.0
C730 C 0.24953 0.77645 0.49937 0.0
C731 C 0.2477 0.79055 0.47717 0.0
C732 C 0.22733 0.80724 0.47382 0.0
C733 C 0.20849 0.81012 0.4927 0.0
C734 C 0.21071 0.79634 0.51509 0.0
C735 C 0.2311 0.77984 0.51846 0.0
P736 P 0.26705 0.25347 0.56737 0.0
H737 H 0.32321 0.25006 0.56652 0.0
H738 H 0.35219 0.22208 0.54416 0.0
H739 H 0.28914 0.19753 0.49752 0.0
H740 H 0.26009 0.22542 0.52036 0.0
H741 H 0.25553 0.29835 0.5956 0.0
H742 H 0.23305 0.33646 0.58474 0.0
H743 H 0.22537 0.31104 0.5076 0.0
H744 H 0.249 0.27323 0.51852 0.0
H745 H 0.26681 0.20405 0.58852 0.0
H746 H 0.21158 0.25393 0.55485 0.0
O747 O 0.28184 0.2568 0.59516 0.0
H748 H 0.23481 0.17112 0.58829 0.0
H749 H 0.17985 0.22113 0.55411 0.0
C750 C 0.28942 0.23956 0.5454 0.0
C751 C 0.31573 0.23923 0.55099 0.0
C752 C 0.33236 0.22321 0.53806 0.0
C753 C 0.32294 0.20723 0.51925 0.0
C754 C 0.29693 0.20927 0.51218 0.0
C755 C 0.28034 0.22537 0.52511 0.0
C756 C 0.25431 0.2831 0.55778 0.0
C757 C 0.24957 0.30119 0.57619 0.0
C758 C 0.23633 0.32289 0.57001 0.0
C759 C 0.22707 0.32681 0.54533 0.0
C760 C 0.23245 0.30884 0.52672 0.0
C761 C 0.24598 0.28719 0.53291 0.0
C762 C 0.24165 0.23143 0.57171 0.0
C763 C 0.24765 0.20806 0.58158 0.0
C764 C 0.22942 0.18924 0.58128 0.0
C765 C 0.20486 0.19349 0.57104 0.0
C766 C 0.1985 0.21733 0.56238 0.0
C767 C 0.21678 0.23613 0.56264 0.0
Zn768 Zn 0.96687 0.99327 0.46792 0.0
Zn769 Zn 0.97289 0.05131 0.48276 0.0
O770 O 0.99153 0.01875 0.48193 0.0
H771 H 0.00768 0.01511 0.49018 0.0
C772 C 0.97189 0.95171 0.5423 0.0
O773 O 0.98828 0.96575 0.53012 0.0
Zn774 Zn 0.06885 0.03708 0.54851 0.0
Zn775 Zn 0.05114 0.98049 0.56011 0.0
O776 O 0.03889 0.01379 0.54691 0.0
H777 H 0.02445 0.01601 0.53564 0.0
Zn778 Zn 0.97908 0.99092 0.57829 0.0
O779 O 0.97548 0.01837 0.55241 0.0
Zn780 Zn 0.98161 0.04904 0.57199 0.0
H781 H 0.96651 0.01682 0.5365 0.0
Zn782 Zn 0.05134 0.98438 0.45186 0.0
O783 O 0.06333 0.00919 0.47795 0.0
H784 H 0.07425 0.00494 0.49209 0.0
Zn785 Zn 0.06303 0.04109 0.459 0.0
C786 C 0.07219 0.94178 0.47951 0.0
O787 O 0.06802 0.95633 0.49899 0.0
O788 O 0.93262 0.00906 0.45655 0.0
O789 O 0.93743 0.04853 0.46715 0.0
O790 O 0.08805 0.98164 0.57322 0.0
O791 O 0.09978 0.0204 0.56588 0.0
O792 O 0.9692 0.00246 0.61448 0.0
O793 O 0.97079 0.04315 0.60831 0.0
C794 C 0.01447 0.07265 0.45318 0.0
O795 O 0.05908 0.99686 0.41589 0.0
O796 O 0.07317 0.03508 0.42245 0.0
O797 O 0.02801 0.95903 0.58335 0.0
C798 C 0.92424 0.03124 0.4573 0.0
O799 O 0.98157 0.96559 0.44436 0.0
C800 C 0.03641 0.0706 0.57681 0.0
O801 O 0.96539 0.95764 0.56469 0.0
C802 C 0.1045 0.99887 0.57473 0.0
O803 O 0.06533 0.94894 0.45764 0.0
C804 C 0.95818 0.07711 0.53252 0.0
O805 O 0.99153 0.07569 0.4606 0.0
O806 O 0.02702 0.05417 0.46156 0.0
C807 C 0.96662 0.02455 0.6226 0.0
O808 O 0.05942 0.06682 0.56973 0.0
O809 O 0.01936 0.05583 0.5688 0.0
C810 C 0.08821 0.06419 0.50071 0.0
O811 O 0.96023 0.07636 0.55647 0.0
O812 O 0.97111 0.06156 0.51958 0.0
C813 C 0.06904 0.0168 0.40773 0.0
O814 O 0.08658 0.06509 0.47669 0.0
O815 O 0.07576 0.0474 0.51224 0.0
C816 C 0.02382 0.96635 0.60585 0.0
O817 O 0.03203 0.98828 0.61267 0.0
C818 C 0.97055 0.96232 0.42316 0.0
O819 O 0.95071 0.97633 0.41729 0.0
Zn820 Zn 0.47331 0.05725 0.04968 0.0
Zn821 Zn 0.48285 0.06948 0.99048 0.0
O822 O 0.48877 0.0443 0.01734 0.0
H823 H 0.50045 0.03042 0.0161 0.0
C824 C 0.54334 0.11042 0.05207 0.0
O825 O 0.5344 0.10727 0.02905 0.0
Zn826 Zn 0.55605 0.97301 0.9674 0.0
Zn827 Zn 0.57476 0.96721 0.02491 0.0
O828 O 0.56143 0.99154 -0.00077 0.0
H829 H 0.55201 0.00641 0.00342 0.0
Zn830 Zn 0.58214 0.07613 0.03322 0.0
O831 O 0.55913 0.05731 0.00986 0.0
Zn832 Zn 0.57485 0.05972 0.97578 0.0
H833 H 0.54278 0.05013 0.01418 0.0
Zn834 Zn 0.47492 0.96695 0.04615 0.0
O835 O 0.49245 0.9798 0.01487 0.0
H836 H 0.51004 0.98529 0.01381 0.0
Zn837 Zn 0.46582 0.98262 0.98798 0.0
C838 C 0.5198 0.94062 0.06665 0.0
O839 O 0.52947 0.94636 0.04447 0.0
O840 O 0.45703 0.09175 0.04558 0.0
O841 O 0.46565 0.10029 0.00531 0.0
O842 O 0.58772 0.93504 0.0083 0.0
O843 O 0.57272 0.93894 0.96908 0.0
O844 O 0.61642 0.08649 0.01707 0.0
O845 O 0.61152 0.07353 0.97737 0.0
C846 C 0.45235 0.03332 0.96407 0.0
O847 O 0.43778 0.95576 0.0397 0.0
O848 O 0.43114 0.96942 0.00045 0.0
O849 O 0.59733 0.98298 0.05256 0.0
C850 C 0.45567 0.10618 0.02659 0.0
O851 O 0.45064 0.03255 0.06895 0.0
C852 C 0.58054 0.01378 0.9417 0.0
O853 O 0.56391 0.09935 0.05858 0.0
C854 C 0.58507 0.92675 0.98587 0.0
O855 O 0.49699 0.94738 0.07197 0.0
C856 C 0.52903 0.08509 0.95713 0.0
O857 O 0.45796 0.05613 0.96462 0.0
O858 O 0.46459 0.01884 0.97878 0.0
C859 C 0.62499 0.08382 0.99463 0.0
O860 O 0.5744 0.99122 0.93927 0.0
O861 O 0.57243 0.02536 0.96107 0.0
C862 C 0.50118 0.95881 0.95307 0.0
O863 O 0.55313 0.08235 0.95453 0.0
O864 O 0.51818 0.07478 0.97586 0.0
C865 C 0.4232 0.95871 0.02054 0.0
O866 O 0.47756 0.96126 0.95871 0.0
O867 O 0.51744 0.97193 0.96478 0.0
C868 C 0.59347 0.00545 0.05855 0.0
O869 O 0.57437 0.01761 0.04799 0.0
C870 C 0.43253 0.02226 0.05684 0.0
O871 O 0.42977 0.02706 0.03262 0.0
Zn872 Zn 0.97595 0.47674 0.97191 0.0
Zn873 Zn 0.96548 0.53597 0.97384 0.0
O874 O 0.99336 0.5103 0.97337 0.0
H875 H 0.01053 0.51274 0.97977 0.0
C876 C 0.96219 0.45411 0.04158 0.0
O877 O 0.95826 0.47357 0.02719 0.0
Zn878 Zn 0.07253 0.55234 0.04806 0.0
Zn879 Zn 0.0843 0.49644 0.06744 0.0
O880 O 0.05661 0.51889 0.05201 0.0
H881 H 0.04055 0.51364 0.04465 0.0
Zn882 Zn 0.97772 0.49348 0.07476 0.0
O883 O 0.98325 0.51827 0.04664 0.0
Zn884 Zn 0.9816 0.55097 0.06389 0.0
H885 H 0.99249 0.51477 0.03118 0.0
Zn886 Zn 0.05551 0.49966 0.94667 0.0
O887 O 0.06039 0.52392 0.97584 0.0
H888 H 0.05714 0.52032 0.99345 0.0
Zn889 Zn 0.05265 0.55506 0.9566 0.0
C890 C 0.05825 0.44874 0.97049 0.0
O891 O 0.04296 0.4575 0.98817 0.0
O892 O 0.9368 0.47965 0.96665 0.0
O893 O 0.93106 0.52042 0.96519 0.0
O894 O 0.11876 0.51434 0.07448 0.0
O895 O 0.11019 0.551 0.05732 0.0
O896 O 0.957 0.50842 0.10443 0.0
O897 O 0.9627 0.54862 0.09755 0.0
C898 C -0.00406 0.5691 0.94346 0.0
O899 O 0.07118 0.51374 0.91395 0.0
O900 O 0.07115 0.55389 0.92254 0.0
O901 O 0.07387 0.46651 0.09043 0.0
C902 C 0.92234 0.49848 0.96354 0.0
O903 O 0.99311 0.44988 0.94933 0.0
C904 C 0.03263 0.57716 0.07752 0.0
O905 O 0.97086 0.45724 0.06381 0.0
C906 C 0.12565 0.53611 0.06828 0.0
O907 O 0.06512 0.46274 0.95243 0.0
C908 C 0.95795 0.57119 0.0186 0.0
O909 O 0.97306 0.56276 0.94851 0.0
O910 O 0.01406 0.55681 0.95373 0.0
C911 C 0.95347 0.53096 0.11067 0.0
O912 O 0.05644 0.57628 0.07257 0.0
O913 O 0.01826 0.56145 0.06679 0.0
C914 C 0.07028 0.58445 -0.00041 0.0
O915 O 0.96263 0.57514 0.04184 0.0
O916 O 0.96539 0.5508 0.00895 0.0
C917 C 0.07695 0.53584 0.90801 0.0
O918 O 0.06504 0.58451 0.9761 0.0
O919 O 0.06759 0.56431 0.01186 0.0
C920 C 0.07265 0.44452 0.08198 0.0
O921 O 0.07773 0.44047 0.05797 0.0
C922 C -0.00218 0.42793 0.95664 0.0
O923 O 0.99285 0.42175 0.98016 0.0
Zn924 Zn 0.49421 0.47955 0.99522 0.0
Zn925 Zn 0.48102 0.47756 0.05251 0.0
O926 O 0.48816 0.50236 0.02515 0.0
H927 H 0.49743 0.5176 0.02736 0.0
C928 C 0.51216 0.41736 0.96317 0.0
O929 O 0.50862 0.40372 0.98343 0.0
Zn930 Zn 0.55167 0.56778 0.05712 0.0
Zn931 Zn 0.54755 0.58515 0.00195 0.0
O932 O 0.55191 0.55338 0.02248 0.0
H933 H 0.54565 0.5372 0.01796 0.0
Zn934 Zn 0.54491 0.44419 -0.00059 0.0
O935 O 0.54022 0.47712 0.01688 0.0
Zn936 Zn 0.56674 0.47559 0.04437 0.0
H937 H 0.53638 0.49219 0.0078 0.0
Zn938 Zn 0.46117 0.57258 0.98826 0.0
O939 O 0.48432 0.56883 0.01919 0.0
H940 H 0.50276 0.56681 0.01856 0.0
Zn941 Zn 0.46146 0.56524 0.04983 0.0
C942 C 0.48274 0.58391 0.93672 0.0
O943 O 0.48666 0.55997 0.93554 0.0
O944 O 0.47247 0.44831 -0.0015 0.0
O945 O 0.45946 0.4493 0.03855 0.0
O946 O 0.56681 0.61446 0.01826 0.0
O947 O 0.57139 0.59988 0.05726 0.0
O948 O 0.58256 0.43302 0.00324 0.0
O949 O 0.59987 0.45997 0.0302 0.0
C950 C 0.45875 0.5178 0.08093 0.0
O951 O 0.42417 0.58074 -0.0009 0.0
O952 O 0.42542 0.5784 0.04118 0.0
O953 O 0.55169 0.58156 0.96309 0.0
C954 C 0.45908 0.43957 0.01652 0.0
O955 O 0.49177 0.49479 0.9594 0.0
C956 C 0.57442 0.52144 0.07813 0.0
O957 O 0.52639 0.43634 0.96492 0.0
C958 C 0.57547 0.61654 0.04071 0.0
O959 O 0.47327 0.59316 0.95682 0.0
C960 C 0.53055 0.45314 0.07737 0.0
O961 O 0.4642 0.49486 0.08211 0.0
O962 O 0.46203 0.52904 0.06 0.0
C963 C 0.60199 0.44167 0.01493 0.0
O964 O 0.56917 0.54429 0.08109 0.0
O965 O 0.56851 0.51105 0.0573 0.0
C966 C 0.50036 0.58558 0.08199 0.0
O967 O 0.55448 0.45385 0.07294 0.0
O968 O 0.51601 0.46553 0.06274 0.0
C969 C 0.41341 0.58318 0.02063 0.0
O970 O 0.47616 0.58498 0.07875 0.0
O971 O 0.51433 0.57355 0.06641 0.0
C972 C 0.54537 0.56173 0.95192 0.0
O973 O 0.53482 0.5439 0.96514 0.0
C974 C 0.46869 0.50068 0.95437 0.0
O975 O 0.45126 0.49799 0.97216 0.0
Zn976 Zn 0.95715 0.4968 0.48945 0.0
Zn977 Zn 0.96533 0.55359 0.47987 0.0
O978 O 0.98479 0.52183 0.48049 0.0
H979 H 0.00309 0.51984 0.483 0.0
C980 C 0.92288 0.47333 0.53636 0.0
O981 O 0.91509 0.49648 0.53662 0.0
Zn982 Zn 0.07104 0.56107 0.56484 0.0
Zn983 Zn 0.09009 0.50926 0.55062 0.0
O984 O 0.05794 0.52665 0.5648 0.0
H985 H 0.04029 0.5218 0.56228 0.0
Zn986 Zn 0.96406 0.49503 0.56626 0.0
O987 O 0.97851 0.52449 0.5472 0.0
Zn988 Zn 0.97587 0.55394 0.5702 0.0
H989 H 0.99018 0.52317 0.53304 0.0
Zn990 Zn 0.08183 0.50509 0.47012 0.0
O991 O 0.06461 0.52986 0.49346 0.0
H992 H 0.05622 0.52608 0.5093 0.0
Zn993 Zn 0.06018 0.56083 0.47312 0.0
C994 C 0.11972 0.47669 0.49915 0.0
O995 O 0.12802 0.49911 0.50385 0.0
O996 O 0.92121 0.50871 0.47813 0.0
O997 O 0.92887 0.54778 0.46773 0.0
O998 O 0.12377 0.52905 0.55545 0.0
O999 O 0.10793 0.56101 0.57682 0.0
O1000 O 0.94705 0.50483 0.59985 0.0
O1001 O 0.95546 0.54501 0.60231 0.0
C1002 C 0.00777 0.57852 0.45434 0.0
O1003 O 0.09859 0.52154 0.43911 0.0
O1004 O 0.08032 0.55885 0.43974 0.0
O1005 O 0.09466 0.47326 0.56312 0.0
C1006 C 0.91375 0.52933 0.46898 0.0
O1007 O 0.96465 0.4611 0.47768 0.0
C1008 C 0.0244 0.58228 0.58827 0.0
O1009 O 0.94414 0.46778 0.54683 0.0
C1010 C 0.127 0.54826 0.56897 0.0
O1011 O 0.09987 0.47407 0.48542 0.0
C1012 C 0.95174 0.58083 0.52899 0.0
O1013 O 0.98344 0.57682 0.45585 0.0
O1014 O 0.02164 0.56595 0.46947 0.0
C1015 C 0.94504 0.52551 0.61118 0.0
O1016 O 0.04879 0.5834 0.58655 0.0
O1017 O 0.01279 0.56524 0.57626 0.0
C1018 C 0.08101 0.58893 0.51548 0.0
O1019 O 0.95486 0.58063 0.55281 0.0
O1020 O 0.96456 0.56532 0.51595 0.0
C1021 C 0.09551 0.54301 0.4296 0.0
O1022 O 0.07734 0.58862 0.49178 0.0
O1023 O 0.06999 0.57246 0.52873 0.0
C1024 C 0.08263 0.45443 0.55523 0.0
O1025 O 0.0659 0.45696 0.53679 0.0
C1026 C 0.98734 0.45336 0.47346 0.0
O1027 O 0.00683 0.46777 0.47877 0.0
Zn1028 Zn 0.46381 0.98409 0.46781 0.0
Zn1029 Zn 0.45551 0.04316 0.47201 0.0
O1030 O 0.48286 0.01686 0.46785 0.0
H1031 H 0.50067 0.01834 0.4727 0.0
C1032 C 0.47431 0.93956 0.53452 0.0
O1033 O 0.48364 0.94836 0.51327 0.0
Zn1034 Zn 0.56613 0.06312 0.53462 0.0
Zn1035 Zn 0.57662 0.00755 0.55558 0.0
O1036 O 0.55039 0.02955 0.53825 0.0
H1037 H 0.53615 0.02367 0.52827 0.0
Zn1038 Zn 0.49667 0.98492 0.55944 0.0
O1039 O 0.48495 0.01343 0.53707 0.0
Zn1040 Zn 0.481 0.04259 0.56011 0.0
H1041 H 0.48716 0.01398 0.51895 0.0
Zn1042 Zn 0.55273 0.99422 0.45282 0.0
O1043 O 0.55197 0.02644 0.4731 0.0
H1044 H 0.55278 0.01022 0.46549 0.0
Zn1045 Zn 0.54389 0.0539 0.44848 0.0
C1046 C 0.57345 0.94407 0.46683 0.0
O1047 O 0.54912 0.93838 0.46968 0.0
O1048 O 0.42636 0.98942 0.45714 0.0
O1049 O 0.42134 0.03035 0.45771 0.0
O1050 O 0.60907 0.02671 0.56651 0.0
O1051 O 0.60272 0.06351 0.54852 0.0
O1052 O 0.49654 0.99421 0.59711 0.0
O1053 O 0.47689 0.03088 0.59648 0.0
C1054 C 0.48893 0.07751 0.44559 0.0
O1055 O 0.55398 0.00153 0.41467 0.0
O1056 O 0.55334 0.04265 0.41282 0.0
O1057 O 0.56421 0.97705 0.57668 0.0
C1058 C 0.41273 0.00868 0.45319 0.0
O1059 O 0.48099 0.95259 0.45192 0.0
C1060 C 0.52363 0.08306 0.56401 0.0
O1061 O 0.47784 0.95139 0.55495 0.0
C1062 C 0.61656 0.04862 0.56155 0.0
O1063 O 0.57939 0.96625 0.46148 0.0
C1064 C 0.44335 0.06481 0.5259 0.0
O1065 O 0.46589 0.07379 0.45259 0.0
O1066 O 0.50582 0.06135 0.45144 0.0
C1067 C 0.48551 0.01208 0.60854 0.0
O1068 O 0.5461 0.08753 0.55589 0.0
O1069 O 0.51318 0.06301 0.55682 0.0
C1070 C 0.57157 0.08678 0.48105 0.0
O1071 O 0.45069 0.06313 0.54878 0.0
O1072 O 0.4542 0.05086 0.50961 0.0
C1073 C 0.55561 0.02155 0.40214 0.0
O1074 O 0.56498 0.08363 0.4581 0.0
O1075 O 0.56347 0.07135 0.49734 0.0
C1076 C 0.55131 0.95959 0.56686 0.0
O1077 O 0.54554 0.9607 0.54269 0.0
C1078 C 0.49916 0.95449 0.43596 0.0
O1079 O 0.50778 0.97656 0.43032 0.0
C1080 C 0.1962 0.15056 0.55619 0.0
C1081 C 0.18695 0.17267 0.56674 0.0
C1082 C 0.17932 0.13195 0.54851 0.0
C1083 C 0.15253 0.13553 0.55144 0.0
C1084 C 0.14312 0.15712 0.5635 0.0
C1085 C 0.16046 0.17554 0.5709 0.0
C1086 C 0.19012 0.10912 0.53585 0.0
C1087 C 0.11468 0.16131 0.56744 0.0
C1088 C 0.11184 0.10413 0.50169 0.0
C1089 C 0.10368 0.08281 0.51438 0.0
C1090 C 0.12716 0.12172 0.51381 0.0
C1091 C 0.13448 0.11798 0.53933 0.0
C1092 C 0.12581 0.09685 0.55247 0.0
C1093 C 0.11075 0.07941 0.53971 0.0
C1094 C 0.136 0.14406 0.4991 0.0
C1095 C 0.13305 0.0922 0.57973 0.0
H1096 H 0.21661 0.14832 0.55267 0.0
H1097 H 0.15325 0.19246 0.57937 0.0
H1098 H 0.18201 0.09223 0.54457 0.0
H1099 H 0.18458 0.10908 0.51558 0.0
H1100 H 0.21142 0.10812 0.5371 0.0
H1101 H 0.11072 0.17733 0.58002 0.0
H1102 H 0.10532 0.1648 0.54892 0.0
H1103 H 0.10566 0.14463 0.57571 0.0
H1104 H 0.10639 0.10705 0.48212 0.0
H1105 H 0.10506 0.06289 0.54949 0.0
H1106 H 0.15728 0.14388 0.49763 0.0
H1107 H 0.13038 0.16124 0.50918 0.0
H1108 H 0.12783 0.14468 0.4797 0.0
H1109 H 0.12121 0.07742 0.58839 0.0
H1110 H 0.13079 0.10929 0.59113 0.0
H1111 H 0.15353 0.08649 0.58077 0.0
C1112 C 0.87719 0.19219 0.48287 0.0
C1113 C 0.85307 0.18561 0.47319 0.0
C1114 C 0.89499 0.17413 0.4905 0.0
C1115 C 0.88867 0.14885 0.4881 0.0
C1116 C 0.86504 0.14204 0.47692 0.0
C1117 C 0.84742 0.1605 0.46978 0.0
C1118 C 0.92014 0.18212 0.50206 0.0
C1119 C 0.85783 0.11526 0.47356 0.0
C1120 C 0.94286 0.10208 0.49547 0.0
C1121 C 0.94 0.09481 0.52069 0.0
C1122 C 0.9261 0.11931 0.48433 0.0
C1123 C 0.90599 0.12968 0.49897 0.0
C1124 C 0.90283 0.12233 0.52448 0.0
C1125 C 0.91991 0.10504 0.53505 0.0
C1126 C 0.93064 0.12692 0.45722 0.0
C1127 C 0.88166 0.13303 0.54076 0.0
H1128 H 0.88197 0.21154 0.48498 0.0
H1129 H 0.8288 0.15519 0.46248 0.0
H1130 H 0.92112 0.17588 0.52204 0.0
H1131 H 0.93647 0.17337 0.49188 0.0
H1132 H 0.92259 0.20249 0.50158 0.0
H1133 H 0.84156 0.11304 0.46017 0.0
H1134 H 0.87444 0.10428 0.46656 0.0
H1135 H 0.85211 0.10745 0.49212 0.0
H1136 H 0.95861 0.09484 0.4846 0.0
H1137 H 0.91751 0.09952 0.55462 0.0
H1138 H 0.94139 0.14455 0.45692 0.0
H1139 H 0.91226 0.12997 0.44706 0.0
H1140 H 0.94217 0.11289 0.44678 0.0
H1141 H 0.88389 0.15336 0.54221 0.0
H1142 H 0.88162 0.12512 0.56016 0.0
H1143 H 0.8627 0.12951 0.53193 0.0
C1144 C 0.87067 0.87573 0.46492 0.0
C1145 C 0.87475 0.85012 0.4637 0.0
C1146 C 0.88866 0.89126 0.47646 0.0
C1147 C 0.91123 0.88091 0.48715 0.0
C1148 C 0.91595 0.8552 0.48512 0.0
C1149 C 0.89764 0.84009 0.4734 0.0
C1150 C 0.88318 0.91867 0.47783 0.0
C1151 C 0.93999 0.84359 0.49598 0.0
C1152 C 0.96379 0.92663 0.50334 0.0
C1153 C 0.95861 0.9314 0.52895 0.0
C1154 C 0.94927 0.90942 0.48966 0.0
C1155 C 0.92895 0.89686 0.50186 0.0
C1156 C 0.92439 0.90078 0.52797 0.0
C1157 C 0.93932 0.91795 0.54121 0.0
C1158 C 0.95498 0.90569 0.46192 0.0
C1159 C 0.90301 0.88761 0.54169 0.0
H1160 H 0.85321 0.8836 0.45704 0.0
H1161 H 0.90083 0.82029 0.47263 0.0
H1162 H 0.88125 0.92442 0.49789 0.0
H1163 H 0.89944 0.92913 0.46961 0.0
H1164 H 0.8653 0.92391 0.46763 0.0
H1165 H 0.94159 0.8236 0.49141 0.0
H1166 H 0.95725 0.85315 0.48862 0.0
H1167 H 0.94003 0.84575 0.51685 0.0
H1168 H 0.97872 0.93687 0.4937 0.0
H1169 H 0.93527 0.9214 0.56102 0.0
H1170 H 0.94145 0.91707 0.45055 0.0
H1171 H 0.95249 0.88612 0.45623 0.0
H1172 H 0.97486 0.91139 0.45715 0.0
H1173 H 0.88418 0.89351 0.53381 0.0
H1174 H 0.90305 0.89149 0.56233 0.0
H1175 H 0.90473 0.86736 0.53885 0.0
C1176 C 0.16175 0.82084 0.4961 0.0
C1177 C 0.18681 0.82775 0.48947 0.0
C1178 C 0.14123 0.83771 0.4944 0.0
C1179 C 0.14596 0.86209 0.48602 0.0
C1180 C 0.17115 0.86906 0.47892 0.0
C1181 C 0.19127 0.85176 0.48065 0.0
C1182 C 0.11459 0.82955 0.50186 0.0
C1183 C 0.17695 0.89495 0.47001 0.0
C1184 C 0.09262 0.90372 0.46146 0.0
C1185 C 0.08838 0.91936 0.48224 0.0
C1186 C 0.11057 0.88431 0.46275 0.0
C1187 C 0.12477 0.88062 0.48528 0.0
C1188 C 0.11978 0.89565 0.50666 0.0
C1189 C 0.10152 0.91476 0.50493 0.0
C1190 C 0.11508 0.86844 0.43967 0.0
C1191 C 0.13456 0.8923 0.53102 0.0
H1192 H 0.15819 0.80218 0.50263 0.0
H1193 H 0.21065 0.85724 0.47577 0.0
H1194 H 0.10771 0.84059 0.51822 0.0
H1195 H 0.10096 0.83288 0.48607 0.0
H1196 H 0.11397 0.80966 0.50704 0.0
H1197 H 0.19746 0.89725 0.46471 0.0
H1198 H 0.16485 0.89966 0.4534 0.0
H1199 H 0.17219 0.9084 0.48518 0.0
H1200 H 0.08247 0.90709 0.44389 0.0
H1201 H 0.09835 0.92674 0.52108 0.0
H1202 H 0.11439 0.84857 0.44478 0.0
H1203 H 0.13451 0.8721 0.43193 0.0
H1204 H 0.1007 0.87209 0.42457 0.0
H1205 H 0.13341 0.87284 0.5375 0.0
H1206 H 0.12731 0.90453 0.54635 0.0
H1207 H 0.15515 0.89644 0.52775 0.0
C1208 C 0.46011 0.17801 0.1589 0.0
C1209 C 0.46932 0.20188 0.16331 0.0
C1210 C 0.47014 0.16352 0.13916 0.0
C1211 C 0.49021 0.17302 0.12397 0.0
C1212 C 0.49901 0.19741 0.1279 0.0
C1213 C 0.48831 0.21162 0.14744 0.0
C1214 C 0.45989 0.13779 0.1351 0.0
C1215 C 0.52059 0.20809 0.11231 0.0
C1216 C 0.53755 0.12733 0.09561 0.0
C1217 C 0.52951 0.12639 0.07033 0.0
C1218 C 0.52476 0.1423 0.11325 0.0
C1219 C 0.50347 0.15679 0.1054 0.0
C1220 C 0.49526 0.15603 0.0799 0.0
C1221 C 0.5083 0.14069 0.06265 0.0
C1222 C 0.53415 0.14272 0.14028 0.0
C1223 C 0.47294 0.17165 0.07084 0.0
H1224 H 0.44527 0.1706 0.17109 0.0
H1225 H 0.49561 0.23001 0.15104 0.0
H1226 H 0.45426 0.13528 0.11502 0.0
H1227 H 0.47515 0.12399 0.13931 0.0
H1228 H 0.443 0.13387 0.14728 0.0
H1229 H 0.52361 0.22802 0.11627 0.0
H1230 H 0.53871 0.19796 0.11648 0.0
H1231 H 0.51664 0.2058 0.09183 0.0
H1232 H 0.55387 0.11629 0.10171 0.0
H1233 H 0.50201 0.14011 0.04312 0.0
H1234 H 0.51851 0.13694 0.15323 0.0
H1235 H 0.53962 0.1618 0.14564 0.0
H1236 H 0.55099 0.13034 0.14331 0.0
H1237 H 0.45542 0.16712 0.08182 0.0
H1238 H 0.46896 0.169 0.05039 0.0
H1239 H 0.47697 0.19148 0.07414 0.0
C1240 C 0.85118 0.55452 0.22223 0.0
C1241 C 0.8285 0.56308 0.21062 0.0
C1242 C 0.87409 0.55183 0.20844 0.0
C1243 C 0.87421 0.55718 0.18226 0.0
C1244 C 0.85183 0.56697 0.17068 0.0
C1245 C 0.82937 0.57008 0.18506 0.0
C1246 C 0.89781 0.5421 0.22162 0.0
C1247 C 0.85116 0.57286 0.14277 0.0
C1248 C 0.93507 0.5605 0.14256 0.0
C1249 C 0.93563 0.53685 0.13168 0.0
C1250 C 0.91594 0.56711 0.16013 0.0
C1251 C 0.89659 0.54986 0.16636 0.0
C1252 C 0.89765 0.5257 0.15612 0.0
C1253 C 0.91732 0.51941 0.13916 0.0
C1254 C 0.91594 0.59284 0.17114 0.0
C1255 C 0.87724 0.50681 0.16204 0.0
H1256 H 0.85087 0.54884 0.24188 0.0
H1257 H 0.81225 0.57739 0.17603 0.0
H1258 H 0.90164 0.52281 0.21552 0.0
H1259 H 0.91483 0.55324 0.21638 0.0
H1260 H 0.89569 0.54229 0.24254 0.0
H1261 H 0.83271 0.58159 0.13693 0.0
H1262 H 0.8671 0.58545 0.13776 0.0
H1263 H 0.85391 0.55561 0.13171 0.0
H1264 H 0.94929 0.57402 0.137 0.0
H1265 H 0.91753 0.50114 0.13076 0.0
H1266 H 0.91048 0.59258 0.19143 0.0
H1267 H 0.90164 0.60444 0.16098 0.0
H1268 H 0.93504 0.60171 0.16925 0.0
H1269 H 0.8757 0.50406 0.18277 0.0
H1270 H 0.88126 0.48863 0.15305 0.0
H1271 H 0.85828 0.51361 0.15527 0.0
C1272 C 0.59865 0.86951 0.17516 0.0
C1273 C 0.5931 0.84423 0.17352 0.0
C1274 C 0.5901 0.88611 0.15651 0.0
C1275 C 0.57551 0.87719 0.13588 0.0
C1276 C 0.57115 0.85151 0.13339 0.0
C1277 C 0.58002 0.83534 0.15223 0.0
C1278 C 0.59542 0.91332 0.15964 0.0
C1279 C 0.55562 0.84125 0.11171 0.0
C1280 C 0.52379 0.91848 0.10791 0.0
C1281 C 0.53481 0.92554 0.08483 0.0
C1282 C 0.53713 0.90319 0.12486 0.0
C1283 C 0.56217 0.89477 0.11865 0.0
C1284 C 0.5737 0.90229 0.09567 0.0
C1285 C 0.55986 0.9176 0.07899 0.0
C1286 C 0.52413 0.89557 0.14919 0.0
C1287 C 0.6004 0.89378 0.08847 0.0
H1288 H 0.60906 0.87641 0.19142 0.0
H1289 H 0.57541 0.81587 0.15096 0.0
H1290 H 0.6025 0.92135 0.14165 0.0
H1291 H 0.57733 0.92314 0.16463 0.0
H1292 H 0.60978 0.91688 0.17473 0.0
H1293 H 0.55632 0.82074 0.11103 0.0
H1294 H 0.53526 0.84716 0.11375 0.0
H1295 H 0.56268 0.8486 0.09342 0.0
H1296 H 0.5045 0.9246 0.11263 0.0
H1297 H 0.56856 0.92307 0.06124 0.0
H1298 H 0.53623 0.90066 0.16564 0.0
H1299 H 0.52179 0.87521 0.14957 0.0
H1300 H 0.50491 0.90433 0.15152 0.0
H1301 H 0.61418 0.89825 0.10379 0.0
H1302 H 0.60717 0.9024 0.07061 0.0
H1303 H 0.60067 0.87341 0.08608 0.0
C1304 C 0.2103 0.60522 0.16202 0.0
C1305 C 0.2371 0.60574 0.15949 0.0
C1306 C 0.1949 0.59424 0.14351 0.0
C1307 C 0.2066 0.58333 0.12201 0.0
C1308 C 0.23351 0.58483 0.11868 0.0
C1309 C 0.24846 0.59608 0.13747 0.0
C1310 C 0.16616 0.59339 0.14752 0.0
C1311 C 0.2466 0.57371 0.09583 0.0
C1312 C 0.1648 0.53281 0.09552 0.0
C1313 C 0.15046 0.54594 0.07747 0.0
C1314 C 0.18472 0.54426 0.10888 0.0
C1315 C 0.19047 0.56934 0.10392 0.0
C1316 C 0.17787 0.58187 0.08398 0.0
C1317 C 0.15792 0.57006 0.07101 0.0
C1318 C 0.19807 0.53015 0.12978 0.0
C1319 C 0.1839 0.60843 0.07776 0.0
H1320 H 0.20138 0.61235 0.17908 0.0
H1321 H 0.26915 0.59677 0.13521 0.0
H1322 H 0.15603 0.60116 0.13082 0.0
H1323 H 0.15996 0.57391 0.14965 0.0
H1324 H 0.16 0.60385 0.16458 0.0
H1325 H 0.26712 0.57911 0.09452 0.0
H1326 H 0.24561 0.55326 0.09692 0.0
H1327 H 0.23666 0.57943 0.0782 0.0
H1328 H 0.15939 0.51411 0.10047 0.0
H1329 H 0.14724 0.58029 0.0568 0.0
H1330 H 0.19147 0.5373 0.14837 0.0
H1331 H 0.21916 0.53282 0.12877 0.0
H1332 H 0.19398 0.51004 0.12896 0.0
H1333 H 0.17434 0.62069 0.09175 0.0
H1334 H 0.17701 0.61353 0.0586 0.0
H1335 H 0.20484 0.61194 0.07878 0.0
C1336 C 0.53446 0.8489 0.85591 0.0
C1337 C 0.52082 0.8549 0.83379 0.0
C1338 C 0.53638 0.86585 0.87593 0.0
C1339 C 0.52441 0.88931 0.87371 0.0
C1340 C 0.51239 0.89614 0.85073 0.0
C1341 C 0.51055 0.87881 0.83117 0.0
C1342 C 0.54956 0.85788 0.90005 0.0
C1343 C 0.49971 0.92113 0.84745 0.0
C1344 C 0.49236 0.92012 0.92953 0.0
C1345 C 0.50898 0.93981 0.9345 0.0
C1346 C 0.49802 0.90275 0.91073 0.0
C1347 C 0.52075 0.90527 0.89628 0.0
C1348 C 0.53824 0.92443 0.90195 0.0
C1349 C 0.53209 0.94154 0.92103 0.0
C1350 C 0.47908 0.8823 0.90563 0.0
C1351 C 0.56274 0.92765 0.88708 0.0
H1352 H 0.54295 0.83067 0.85794 0.0
H1353 H 0.4997 0.88366 0.81439 0.0
H1354 H 0.5593 0.87358 0.90941 0.0
H1355 H 0.53495 0.85063 0.91337 0.0
H1356 H 0.56391 0.84299 0.89647 0.0
H1357 H 0.49419 0.92474 0.82749 0.0
H1358 H 0.48212 0.92212 0.8593 0.0
H1359 H 0.51274 0.93603 0.85383 0.0
H1360 H 0.47461 0.91846 0.94014 0.0
H1361 H 0.54486 0.95679 0.92466 0.0
H1362 H 0.48906 0.86412 0.90556 0.0
H1363 H 0.47032 0.88494 0.88668 0.0
H1364 H 0.46341 0.88176 0.9199 0.0
H1365 H 0.5721 0.90954 0.88331 0.0
H1366 H 0.57659 0.93974 0.89711 0.0
H1367 H 0.55816 0.93621 0.86854 0.0
C1368 C 0.18317 0.54604 0.79704 0.0
C1369 C 0.20577 0.53779 0.80894 0.0
C1370 C 0.16025 0.54927 0.81076 0.0
C1371 C 0.1599 0.54395 0.83697 0.0
C1372 C 0.18291 0.53661 0.84926 0.0
C1373 C 0.20554 0.53365 0.83512 0.0
C1374 C 0.13622 0.55743 0.79704 0.0
C1375 C 0.18338 0.53069 0.87718 0.0
C1376 C 0.10671 0.56248 0.88257 0.0
C1377 C 0.09414 0.53984 0.88597 0.0
C1378 C 0.12719 0.56467 0.86535 0.0
C1379 C 0.13524 0.54373 0.85129 0.0
C1380 C 0.12124 0.52146 0.85314 0.0
C1381 C 0.10084 0.51982 0.87037 0.0
C1382 C 0.14133 0.58887 0.86359 0.0
C1383 C 0.12899 0.49873 0.83832 0.0
H1384 H 0.18331 0.54962 0.77686 0.0
H1385 H 0.22282 0.52703 0.84441 0.0
H1386 H 0.12253 0.54183 0.79609 0.0
H1387 H 0.12654 0.57266 0.80746 0.0
H1388 H 0.14035 0.56371 0.77746 0.0
H1389 H 0.20312 0.52682 0.88419 0.0
H1390 H 0.17517 0.54629 0.8882 0.0
H1391 H 0.17131 0.51425 0.88093 0.0
H1392 H 0.10159 0.57814 0.89436 0.0
H1393 H 0.09105 0.50232 0.87257 0.0
H1394 H 0.14554 0.59355 0.84359 0.0
H1395 H 0.15999 0.58719 0.87361 0.0
H1396 H 0.13023 0.60431 0.87224 0.0
H1397 H 0.13152 0.50333 0.81803 0.0
H1398 H 0.11462 0.48372 0.83994 0.0
H1399 H 0.14771 0.49168 0.84543 0.0
C1400 C 0.4668 0.16351 0.84369 0.0
C1401 C 0.47833 0.18677 0.84626 0.0
C1402 C 0.469 0.14566 0.86286 0.0
C1403 C 0.48303 0.15128 0.885 0.0
C1404 C 0.49265 0.17541 0.88864 0.0
C1405 C 0.49037 0.1928 0.86916 0.0
C1406 C 0.45794 0.12029 0.85865 0.0
C1407 C 0.50733 0.18225 0.91223 0.0
C1408 C 0.49035 0.10926 0.94218 0.0
C1409 C 0.51488 0.09937 0.93775 0.0
C1410 C 0.47871 0.12513 0.92443 0.0
C1411 C 0.49208 0.13117 0.90193 0.0
C1412 C 0.51607 0.11986 0.89669 0.0
C1413 C 0.52711 0.10414 0.91462 0.0
C1414 C 0.45295 0.13651 0.93061 0.0
C1415 C 0.53087 0.12542 0.87275 0.0
H1416 H 0.45686 0.15893 0.82632 0.0
H1417 H 0.49946 0.21063 0.87136 0.0
H1418 H 0.47373 0.10709 0.85425 0.0
H1419 H 0.44821 0.11359 0.87601 0.0
H1420 H 0.44402 0.12009 0.84273 0.0
H1421 H 0.51054 0.20249 0.91363 0.0
H1422 H 0.49685 0.17605 0.92935 0.0
H1423 H 0.52632 0.1728 0.91212 0.0
H1424 H 0.4807 0.10547 0.95984 0.0
H1425 H 0.54585 0.0961 0.91073 0.0
H1426 H 0.44155 0.14044 0.91333 0.0
H1427 H 0.45606 0.15424 0.94065 0.0
H1428 H 0.44161 0.12425 0.94318 0.0
H1429 H 0.51849 0.12273 0.85592 0.0
H1430 H 0.54826 0.11355 0.8707 0.0
H1431 H 0.53702 0.14502 0.87287 0.0
C1432 C 0.82384 0.45957 0.86452 0.0
C1433 C 0.79823 0.46767 0.86619 0.0
C1434 C 0.84117 0.4635 0.88434 0.0
C1435 C 0.8325 0.475 0.90686 0.0
C1436 C 0.80617 0.48107 0.90966 0.0
C1437 C 0.78939 0.4777 0.88914 0.0
C1438 C 0.86914 0.45679 0.88048 0.0
C1439 C 0.79596 0.49237 0.93378 0.0
C1440 C 0.88359 0.47202 0.95768 0.0
C1441 C 0.89604 0.49464 0.95389 0.0
C1442 C 0.86125 0.46614 0.94414 0.0
C1443 C 0.85168 0.48303 0.92594 0.0
C1444 C 0.86306 0.50664 0.92351 0.0
C1445 C 0.88492 0.51227 0.9378 0.0
C1446 C 0.84903 0.44122 0.94812 0.0
C1447 C 0.85364 0.52514 0.90416 0.0
H1448 H 0.83068 0.45097 0.84725 0.0
H1449 H 0.76967 0.48406 0.89078 0.0
H1450 H 0.88097 0.47379 0.88097 0.0
H1451 H 0.87596 0.44459 0.89596 0.0
H1452 H 0.87259 0.44728 0.86216 0.0
H1453 H 0.7747 0.49104 0.935 0.0
H1454 H 0.80454 0.48319 0.95058 0.0
H1455 H 0.80121 0.51218 0.93453 0.0
H1456 H 0.89188 0.45852 0.9705 0.0
H1457 H 0.89443 0.52981 0.93484 0.0
H1458 H 0.85509 0.4285 0.93276 0.0
H1459 H 0.82776 0.44272 0.94752 0.0
H1460 H 0.85486 0.43287 0.96646 0.0
H1461 H 0.85748 0.51791 0.88486 0.0
H1462 H 0.86323 0.54333 0.9061 0.0
H1463 H 0.8326 0.52797 0.9059 0.0
C1464 C 0.70329 0.68688 0.04142 0.0
C1465 C 0.70402 0.71164 0.04918 0.0
C1466 C 0.68104 0.67276 0.04442 0.0
C1467 C 0.65884 0.68369 0.05529 0.0
C1468 C 0.6599 0.70815 0.06466 0.0
C1469 C 0.68252 0.72185 0.06152 0.0
C1470 C 0.6808 0.64661 0.0344 0.0
C1471 C 0.63672 0.72035 0.07659 0.0
C1472 C 0.59866 0.6551 0.02857 0.0
C1473 C 0.59321 0.63703 0.04677 0.0
C1474 C 0.61892 0.67171 0.03202 0.0
C1475 C 0.63408 0.6702 0.05421 0.0
C1476 C 0.62733 0.65342 0.07359 0.0
C1477 C 0.60694 0.63701 0.06964 0.0
C1478 C 0.62525 0.68963 0.01105 0.0
C1479 C 0.64278 0.65148 0.09767 0.0
H1480 H 0.71962 0.67887 0.03159 0.0
H1481 H 0.68306 0.74085 0.06796 0.0
H1482 H 0.6732 0.63378 0.04892 0.0
H1483 H 0.66792 0.64558 0.01771 0.0
H1484 H 0.70024 0.64012 0.02865 0.0
H1485 H 0.64183 0.73767 0.08662 0.0
H1486 H 0.62248 0.72492 0.06166 0.0
H1487 H 0.62725 0.70767 0.09015 0.0
H1488 H 0.58794 0.65551 0.01099 0.0
H1489 H 0.60278 0.62325 0.08392 0.0
H1490 H 0.64348 0.68388 0.00179 0.0
H1491 H 0.62812 0.70846 0.01878 0.0
H1492 H 0.60994 0.69046 0.99642 0.0
H1493 H 0.66132 0.64203 0.0936 0.0
H1494 H 0.63254 0.64079 0.11247 0.0
H1495 H 0.64727 0.67008 0.10522 0.0
C1496 C 0.32235 0.69332 0.00317 0.0
C1497 C 0.29577 0.69125 0.00681 0.0
C1498 C 0.33887 0.67323 0.0076 0.0
C1499 C 0.32859 0.65041 0.01582 0.0
C1500 C 0.3018 0.64821 0.01981 0.0
C1501 C 0.28569 0.66867 0.01522 0.0
C1502 C 0.36734 0.67634 0.00306 0.0
C1503 C 0.29018 0.62422 0.02867 0.0
C1504 C 0.37324 0.59755 -0.00069 0.0
C1505 C 0.3879 0.59547 0.02149 0.0
C1506 C 0.35238 0.61401 0.99785 0.0
C1507 C 0.34607 0.62879 0.01907 0.0
C1508 C 0.35926 0.6251 0.04221 0.0
C1509 C 0.38003 0.60841 0.04316 0.0
C1510 C 0.33858 0.61708 0.97291 0.0
C1511 C 0.35297 0.64031 0.06535 0.0
H1512 H 0.33023 0.71059 0.99639 0.0
H1513 H 0.26519 0.66706 0.01842 0.0
H1514 H 0.37824 0.67148 0.02041 0.0
H1515 H 0.3738 0.6636 0.98786 0.0
H1516 H 0.37232 0.69552 0.99749 0.0
H1517 H 0.26913 0.62583 0.03184 0.0
H1518 H 0.29376 0.60955 0.01441 0.0
H1519 H 0.29943 0.61812 0.04653 0.0
H1520 H 0.37896 0.58734 0.98256 0.0
H1521 H 0.39122 0.60692 0.06038 0.0
H1522 H 0.34429 0.63483 0.9641 0.0
H1523 H 0.31747 0.61774 0.97581 0.0
H1524 H 0.3432 0.60188 0.9595 0.0
H1525 H 0.36046 0.6593 0.06278 0.0
H1526 H 0.3617 0.63235 0.08274 0.0
H1527 H 0.33189 0.64182 0.06808 0.0
C1528 C 0.33635 0.36568 0.97507 0.0
C1529 C 0.33868 0.33986 0.97513 0.0
C1530 C 0.35695 0.38065 0.98238 0.0
C1531 C 0.38041 0.36951 0.99 0.0
C1532 C 0.38294 0.34348 0.99001 0.0
C1533 C 0.36203 0.32895 0.98257 0.0
C1534 C 0.35366 0.40839 0.98183 0.0
C1535 C 0.40764 0.33097 0.99806 0.0
C1536 C 0.43903 0.4104 0.98582 0.0
C1537 C 0.441 0.4193 0.01071 0.0
C1538 C 0.41988 0.39361 0.97898 0.0
C1539 C 0.40238 0.38528 0.99754 0.0
C1540 C 0.40498 0.3932 0.02294 0.0
C1541 C 0.42426 0.41017 0.02924 0.0
C1542 C 0.41786 0.38547 0.95171 0.0
C1543 C 0.38677 0.3845 0.04327 0.0
H1544 H 0.31843 0.37418 0.9691 0.0
H1545 H 0.36379 0.30899 0.98306 0.0
H1546 H 0.35718 0.41616 0.00093 0.0
H1547 H 0.36799 0.41665 0.96883 0.0
H1548 H 0.33413 0.41412 0.97556 0.0
H1549 H 0.4064 0.3105 0.99719 0.0
H1550 H 0.42367 0.33704 0.98575 0.0
H1551 H 0.41253 0.33644 0.0177 0.0
H1552 H 0.45193 0.4172 0.97133 0.0
H1553 H 0.4257 0.41682 0.04851 0.0
H1554 H 0.3984 0.38972 0.94424 0.0
H1555 H 0.42068 0.36518 0.95041 0.0
H1556 H 0.43225 0.3946 0.93938 0.0
H1557 H 0.36716 0.39172 0.03935 0.0
H1558 H 0.39265 0.39075 0.06241 0.0
H1559 H 0.38566 0.36404 0.04325 0.0
C1560 C 0.73021 0.36084 0.00133 0.0
C1561 C 0.73778 0.36049 0.97583 0.0
C1562 C 0.71092 0.37705 0.00987 0.0
C1563 C 0.69913 0.39355 0.99258 0.0
C1564 C 0.70825 0.3948 0.96737 0.0
C1565 C 0.72733 0.37814 0.95924 0.0
C1566 C 0.7018 0.37511 0.03691 0.0
C1567 C 0.69644 0.41237 0.94841 0.0
C1568 C 0.62789 0.4057 0.00014 0.0
C1569 C 0.62723 0.42957 0.01051 0.0
C1570 C 0.65117 0.3938 0.9947 0.0
C1571 C 0.67458 0.4061 -0.00053 0.0
C1572 C 0.67421 0.43007 0.01028 0.0
C1573 C 0.65046 0.44151 0.01586 0.0
C1574 C 0.65063 0.36807 0.98356 0.0
C1575 C 0.69881 0.44379 0.0154 0.0
H1576 H 0.73869 0.34776 0.01448 0.0
H1577 H 0.73294 0.37807 0.9395 0.0
H1578 H 0.69918 0.3937 0.04536 0.0
H1579 H 0.68286 0.3658 0.03732 0.0
H1580 H 0.71539 0.36431 0.04884 0.0
H1581 H 0.7084 0.41408 0.93109 0.0
H1582 H 0.6772 0.40553 0.94281 0.0
H1583 H 0.69375 0.43098 0.95683 0.0
H1584 H 0.61007 0.39617 0.99624 0.0
H1585 H 0.65008 0.45995 0.02384 0.0
H1586 H 0.66194 0.35518 0.99557 0.0
H1587 H 0.65961 0.36814 0.96452 0.0
H1588 H 0.63079 0.36081 0.98177 0.0
H1589 H 0.71191 0.43235 0.02717 0.0
H1590 H 0.69532 0.46168 0.02516 0.0
H1591 H 0.70886 0.44746 0.99728 0.0
C1592 C 0.95579 0.69401 0.66319 0.0
C1593 C 0.9565 0.68867 0.6892 0.0
C1594 C 0.9643 0.67668 0.64525 0.0
C1595 C 0.9732 0.65326 0.65345 0.0
C1596 C 0.97229 0.64712 0.67944 0.0
C1597 C 0.96427 0.66496 0.69702 0.0
C1598 C 0.9649 0.68383 0.61765 0.0
C1599 C 0.98099 0.62206 0.68883 0.0
C1600 C 0.98387 0.60081 0.60673 0.0
C1601 C 0.01065 0.60097 0.60394 0.0
C1602 C 0.9712 0.6181 0.62223 0.0
C1603 C 0.98573 0.63601 0.63532 0.0
C1604 C 0.01269 0.63684 0.63198 0.0
C1605 C 0.02479 0.61931 0.61645 0.0
C1606 C 0.9424 0.61657 0.6252 0.0
C1607 C 0.02886 0.65602 0.64517 0.0
H1608 H 0.9492 0.712 0.65684 0.0
H1609 H 0.96522 0.6606 0.71699 0.0
H1610 H 0.98513 0.68478 0.6111 0.0
H1611 H 0.95516 0.66964 0.60602 0.0
H1612 H 0.95553 0.70202 0.61414 0.0
H1613 H 0.97667 0.61934 0.70922 0.0
H1614 H 0.9715 0.60722 0.67785 0.0
H1615 H 0.00202 0.62 0.686 0.0
H1616 H 0.97272 0.58715 0.59704 0.0
H1617 H 0.04549 0.61993 0.61431 0.0
H1618 H 0.93341 0.6352 0.62568 0.0
H1619 H 0.93793 0.60735 0.64341 0.0
H1620 H 0.93349 0.60583 0.60963 0.0
H1621 H 0.02134 0.67482 0.64102 0.0
H1622 H 0.04936 0.65511 0.63935 0.0
H1623 H 0.02778 0.65331 0.66595 0.0
C1624 C 0.40854 0.96754 0.73102 0.0
C1625 C 0.39071 0.95318 0.71773 0.0
C1626 C 0.42946 0.97837 0.71848 0.0
C1627 C 0.43229 0.97486 0.6921 0.0
C1628 C 0.41533 0.95892 0.67904 0.0
C1629 C 0.39479 0.94826 0.69206 0.0
C1630 C 0.44738 0.99472 0.73327 0.0
C1631 C 0.41796 0.95418 0.65097 0.0
C1632 C 0.45656 0.02104 0.64499 0.0
C1633 C 0.47768 0.00803 0.63512 0.0
C1634 C 0.443 0.01183 0.66583 0.0
C1635 C 0.45109 0.98938 0.67718 0.0
C1636 C 0.47462 0.97838 0.66977 0.0
C1637 C 0.48763 0.98776 0.64864 0.0
C1638 C 0.41828 0.02446 0.67359 0.0
C1639 C 0.4846 0.95531 0.68254 0.0
H1640 H 0.40539 0.97141 0.75091 0.0
H1641 H 0.38125 0.93678 0.68191 0.0
H1642 H 0.4672 0.99413 0.72553 0.0
H1643 H 0.44038 0.0141 0.73224 0.0
H1644 H 0.44798 0.98928 0.75353 0.0
H1645 H 0.40364 0.94069 0.64392 0.0
H1646 H 0.41539 0.97175 0.64041 0.0
H1647 H 0.43747 0.94696 0.6466 0.0
H1648 H 0.44902 0.03699 0.63497 0.0
H1649 H 0.50441 0.978 0.64155 0.0
H1650 H 0.41685 0.02562 0.69448 0.0
H1651 H 0.40174 0.01345 0.66676 0.0
H1652 H 0.41664 0.04339 0.6656 0.0
H1653 H 0.48437 0.95769 0.70338 0.0
H1654 H 0.50446 0.9506 0.67642 0.0
H1655 H 0.47189 0.93953 0.67805 0.0
C1656 C 0.09403 0.33059 0.64006 0.0
C1657 C 0.07929 0.3358 0.66167 0.0
C1658 C 0.09535 0.34742 0.61988 0.0
C1659 C 0.08186 0.37017 0.62153 0.0
C1660 C 0.06647 0.37527 0.64304 0.0
C1661 C 0.06535 0.35803 0.6628 0.0
C1662 C 0.1121 0.34099 0.59749 0.0
C1663 C 0.05149 0.39916 0.6454 0.0
C1664 C 0.10358 0.42839 0.58839 0.0
C1665 C 0.08507 0.43083 0.56924 0.0
C1666 C 0.10366 0.40793 0.60466 0.0
C1667 C 0.08479 0.38947 0.60172 0.0
C1668 C 0.06727 0.39089 0.58128 0.0
C1669 C 0.06763 0.41158 0.56522 0.0
C1670 C 0.12307 0.40681 0.62586 0.0
C1671 C 0.04736 0.37114 0.57717 0.0
H1672 H 0.10509 0.31357 0.63911 0.0
H1673 H 0.05349 0.36195 0.6792 0.0
H1674 H 0.10571 0.3503 0.57987 0.0
H1675 H 0.13207 0.34676 0.6016 0.0
H1676 H 0.11245 0.32071 0.59419 0.0
H1677 H 0.03949 0.39978 0.66278 0.0
H1678 H 0.06494 0.41499 0.6458 0.0
H1679 H 0.03879 0.40168 0.62872 0.0
H1680 H 0.1175 0.44293 0.59133 0.0
H1681 H 0.05347 0.41317 0.55026 0.0
H1682 H 0.13172 0.38806 0.62719 0.0
H1683 H 0.11329 0.4107 0.6441 0.0
H1684 H 0.13872 0.42046 0.62329 0.0
H1685 H 0.05668 0.35264 0.57679 0.0
H1686 H 0.03655 0.37388 0.55927 0.0
H1687 H 0.03351 0.37126 0.59314 0.0
C1688 C 0.73371 0.0997 0.64683 0.0
C1689 C 0.72155 0.10511 0.66992 0.0
C1690 C 0.71951 0.0917 0.62579 0.0
C1691 C 0.69257 0.08908 0.62792 0.0
C1692 C 0.68008 0.09562 0.65077 0.0
C1693 C 0.6947 0.10343 0.6715 0.0
C1694 C 0.73333 0.08556 0.60147 0.0
C1695 C 0.65128 0.09359 0.6536 0.0
C1696 C 0.64644 0.08318 0.57276 0.0
C1697 C 0.63996 0.05806 0.5743 0.0
C1698 C 0.66499 0.09338 0.58892 0.0
C1699 C 0.67734 0.07808 0.60699 0.0
C1700 C 0.67256 0.05235 0.60704 0.0
C1701 C 0.65396 0.04266 0.5907 0.0
C1702 C 0.66964 0.12086 0.58777 0.0
C1703 C 0.68571 0.03529 0.62566 0.0
H1704 H 0.75439 0.10139 0.6453 0.0
H1705 H 0.68513 0.10726 0.68929 0.0
H1706 H 0.73101 0.06565 0.59707 0.0
H1707 H 0.72472 0.09617 0.58558 0.0
H1708 H 0.75418 0.08974 0.60246 0.0
H1709 H 0.64439 0.10057 0.67218 0.0
H1710 H 0.64152 0.10421 0.63839 0.0
H1711 H 0.64546 0.07399 0.65166 0.0
H1712 H 0.63609 0.09524 0.5599 0.0
H1713 H 0.64944 0.02316 0.59181 0.0
H1714 H 0.6885 0.12614 0.59581 0.0
H1715 H 0.6543 0.13054 0.59856 0.0
H1716 H 0.66875 0.12751 0.56795 0.0
H1717 H 0.70674 0.03853 0.62576 0.0
H1718 H 0.68222 0.01551 0.62131 0.0
H1719 H 0.67845 0.03918 0.64501 0.0
C1720 C -0.00409 0.36729 0.35609 0.0
C1721 C -0.00048 0.34188 0.35995 0.0
C1722 C -0.0043 0.38381 0.37649 0.0
C1723 C -0.00074 0.37471 0.40137 0.0
C1724 C 0.00359 0.34917 0.40537 0.0
C1725 C 0.00363 0.33303 0.38458 0.0
C1726 C 0.99111 0.41097 0.37145 0.0
C1727 C 0.00751 0.33883 0.43162 0.0
C1728 C 0.0157 0.42425 0.44928 0.0
C1729 C 0.99125 0.43047 0.45859 0.0
C1730 C 0.01889 0.40511 0.43162 0.0
C1731 C -0.0029 0.39196 0.42313 0.0
C1732 C 0.97267 0.39705 0.43375 0.0
C1733 C 0.97005 0.4162 0.45142 0.0
C1734 C 0.0453 0.4 0.42093 0.0
C1735 C 0.949 0.3833 0.42531 0.0
H1736 H 0.99316 0.37427 0.33706 0.0
H1737 H 0.0062 0.31337 0.3877 0.0
H1738 H 0.9731 0.41706 0.38089 0.0
H1739 H 0.00701 0.42203 0.3795 0.0
H1740 H 0.98955 0.41514 0.35093 0.0
H1741 H 0.01259 0.31886 0.43133 0.0
H1742 H 0.02297 0.34902 0.44152 0.0
H1743 H 0.98967 0.3413 0.44286 0.0
H1744 H 0.03222 0.43505 0.45487 0.0
H1745 H 0.95112 0.42068 0.45876 0.0
H1746 H 0.04611 0.40654 0.40105 0.0
H1747 H 0.0494 0.37986 0.42077 0.0
H1748 H 0.06061 0.40945 0.43184 0.0
H1749 H 0.94486 0.38771 0.40522 0.0
H1750 H 0.93183 0.3882 0.43677 0.0
H1751 H 0.95227 0.36307 0.42659 0.0
C1752 C 0.64596 0.00616 0.28048 0.0
C1753 C 0.66817 0.99782 0.29306 0.0
C1754 C 0.6225 0.0088 0.29341 0.0
C1755 C 0.62148 0.00363 0.31961 0.0
C1756 C 0.6434 0.99376 0.332 0.0
C1757 C 0.66632 0.99064 0.31847 0.0
C1758 C 0.5993 0.01839 0.27929 0.0
C1759 C 0.64316 0.98786 0.35995 0.0
C1760 C 0.58111 0.03887 0.36661 0.0
C1761 C 0.56566 0.01987 0.37607 0.0
C1762 C 0.59793 0.03449 0.34636 0.0
C1763 C 0.59873 0.01078 0.335 0.0
C1764 C 0.5806 0.99272 0.3422 0.0
C1765 C 0.56443 0.99738 0.3629 0.0
C1766 C 0.61692 0.05431 0.33925 0.0
C1767 C 0.57996 0.96763 0.32978 0.0
H1768 H 0.64712 0.0118 0.26085 0.0
H1769 H 0.68315 0.98345 0.32812 0.0
H1770 H 0.58152 0.00907 0.28576 0.0
H1771 H 0.59696 0.03845 0.28295 0.0
H1772 H 0.60133 0.0157 0.25855 0.0
H1773 H 0.66167 0.97982 0.36654 0.0
H1774 H 0.63925 0.00496 0.37093 0.0
H1775 H 0.62761 0.97461 0.36431 0.0
H1776 H 0.58201 0.05635 0.37658 0.0
H1777 H 0.55213 0.98277 0.36985 0.0
H1778 H 0.61809 0.05635 0.31842 0.0
H1779 H 0.63632 0.04893 0.34613 0.0
H1780 H 0.61177 0.07253 0.3476 0.0
H1781 H 0.58374 0.96906 0.30917 0.0
H1782 H 0.56115 0.95846 0.33273 0.0
H1783 H 0.59512 0.95566 0.33814 0.0
C1784 C 0.06682 0.65984 0.34116 0.0
C1785 C 0.0557 0.68349 0.34295 0.0
C1786 C 0.06195 0.64173 0.35954 0.0
C1787 C 0.04568 0.64746 0.38022 0.0
C1788 C 0.03537 0.67158 0.38273 0.0
C1789 C 0.04037 0.68924 0.36401 0.0
C1790 C 0.0733 0.6162 0.3562 0.0
C1791 C 0.01813 0.67847 0.40465 0.0
C1792 C 0.00582 0.59802 0.41183 0.0
C1793 C 0.01905 0.59442 0.43463 0.0
C1794 C 0.01494 0.61448 0.3935 0.0
C1795 C 0.03771 0.62788 0.39823 0.0
C1796 C 0.05155 0.6238 0.42092 0.0
C1797 C 0.04197 0.60712 0.43887 0.0
C1798 C -0.00029 0.61815 0.36946 0.0
C1799 C 0.07566 0.63796 0.42702 0.0
H1800 H 0.07902 0.65532 0.32518 0.0
H1801 H 0.03137 0.7073 0.36543 0.0
H1802 H 0.08024 0.60874 0.37451 0.0
H1803 H 0.05821 0.60356 0.34914 0.0
H1804 H 0.08945 0.61607 0.34245 0.0
H1805 H 0.01309 0.69845 0.40475 0.0
H1806 H 9e-05 0.66768 0.40367 0.0
H1807 H 0.02764 0.6738 0.42282 0.0
H1808 H 0.98808 0.58815 0.40844 0.0
H1809 H 0.0518 0.60491 0.45668 0.0
H1810 H 0.01231 0.61555 0.35273 0.0
H1811 H 0.99207 0.63733 0.36874 0.0
H1812 H 0.98332 0.60517 0.36801 0.0
H1813 H 0.08731 0.64138 0.40982 0.0
H1814 H 0.08772 0.62802 0.44112 0.0
H1815 H 0.07024 0.65617 0.43513 0.0
C1816 C 0.29633 0.97948 0.35708 0.0
C1817 C 0.30997 0.97219 0.33539 0.0
C1818 C 0.30925 0.98789 0.37876 0.0
C1819 C 0.33643 0.98877 0.37877 0.0
C1820 C 0.35024 0.98174 0.35678 0.0
C1821 C 0.33684 0.97361 0.33537 0.0
C1822 C 0.29388 0.99546 0.40173 0.0
C1823 C 0.37926 0.98221 0.35604 0.0
C1824 C 0.37825 0.02472 0.42429 0.0
C1825 C 0.38832 0.00549 0.43915 0.0
C1826 C 0.35958 0.01998 0.40572 0.0
C1827 C 0.35085 0.99549 0.40206 0.0
C1828 C 0.35906 0.97657 0.41874 0.0
C1829 C 0.37763 0.98182 0.43711 0.0
C1830 C 0.35095 0.04076 0.38862 0.0
C1831 C 0.35008 0.95025 0.41571 0.0
H1832 H 0.27551 0.97875 0.35705 0.0
H1833 H 0.34748 0.96778 0.31875 0.0
H1834 H 0.29805 0.98265 0.41761 0.0
H1835 H 0.29953 0.01424 0.40797 0.0
H1836 H 0.27286 0.99539 0.39807 0.0
H1837 H 0.38703 0.97695 0.3372 0.0
H1838 H 0.38626 0.00095 0.36083 0.0
H1839 H 0.38715 0.96925 0.37037 0.0
H1840 H 0.38629 0.0431 0.42582 0.0
H1841 H 0.385 0.96691 0.4488 0.0
H1842 H 0.32996 0.03986 0.38512 0.0
H1843 H 0.36076 0.03898 0.37007 0.0
H1844 H 0.3556 0.05915 0.39669 0.0
H1845 H 0.32894 0.94961 0.41324 0.0
H1846 H 0.35545 0.93854 0.43217 0.0
H1847 H 0.35894 0.94212 0.39848 0.0
C1848 C -0.00106 0.15786 0.33827 0.0
C1849 C 0.01792 0.17523 0.33215 0.0
C1850 C 0.00276 0.14036 0.35749 0.0
C1851 C 0.02656 0.13943 0.37044 0.0
C1852 C 0.04658 0.15548 0.36302 0.0
C1853 C 0.04195 0.17342 0.3442 0.0
C1854 C 0.98082 0.12358 0.36471 0.0
C1855 C 0.07254 0.15435 0.37567 0.0
C1856 C 0.01972 0.11537 0.4374 0.0
C1857 C 0.02466 0.09009 0.43425 0.0
C1858 C 0.02204 0.13194 0.41713 0.0
C1859 C 0.02937 0.12299 0.39298 0.0
C1860 C 0.03578 0.09765 0.39002 0.0
C1861 C 0.03331 0.08147 0.41074 0.0
C1862 C 0.01434 0.15862 0.42108 0.0
C1863 C 0.04379 0.08737 0.36465 0.0
H1864 H 0.98063 0.15841 0.32853 0.0
H1865 H 0.05682 0.18664 0.33975 0.0
H1866 H 0.98698 0.10396 0.36346 0.0
H1867 H 0.97507 0.12715 0.3846 0.0
H1868 H 0.96371 0.12628 0.35242 0.0
H1869 H 0.08688 0.16617 0.36598 0.0
H1870 H 0.07076 0.16054 0.3956 0.0
H1871 H 0.0798 0.13502 0.37597 0.0
H1872 H 0.01245 0.12195 0.45544 0.0
H1873 H 0.03592 0.06182 0.40793 0.0
H1874 H -0.00389 0.16245 0.41086 0.0
H1875 H 0.02914 0.17114 0.41324 0.0
H1876 H 0.01145 0.16312 0.44139 0.0
H1877 H 0.03074 0.09385 0.34942 0.0
H1878 H 0.04398 0.06685 0.36449 0.0
H1879 H 0.06333 0.09408 0.36 0.0
C1880 C 0.86007 0.0471 0.33051 0.0
C1881 C 0.83351 0.05041 0.32785 0.0
C1882 C 0.87165 0.04775 0.3544 0.0
C1883 C 0.85623 0.05167 0.37615 0.0
C1884 C 0.82966 0.05664 0.37344 0.0
C1885 C 0.81857 0.05595 0.34924 0.0
C1886 C 0.90018 0.0428 0.35644 0.0
C1887 C 0.81266 0.06111 0.39614 0.0
C1888 C 0.88635 0.01878 0.43157 0.0
C1889 C 0.90131 0.03765 0.44203 0.0
C1890 C 0.86959 0.0236 0.41142 0.0
C1891 C 0.86777 0.04787 0.40155 0.0
C1892 C 0.88054 0.06746 0.41389 0.0
C1893 C 0.89717 0.06213 0.43409 0.0
C1894 C 0.85585 0.00223 0.39914 0.0
C1895 C 0.87874 0.09366 0.40421 0.0
H1896 H 0.87165 0.04311 0.31393 0.0
H1897 H 0.79796 0.05834 0.34724 0.0
H1898 H 0.9095 0.05734 0.36797 0.0
H1899 H 0.9035 0.02486 0.36613 0.0
H1900 H 0.90971 0.04209 0.33764 0.0
H1901 H 0.79365 0.06888 0.39067 0.0
H1902 H 0.80949 0.04337 0.40616 0.0
H1903 H 0.82196 0.0739 0.40969 0.0
H1904 H 0.88908 0.99988 0.4379 0.0
H1905 H 0.90844 0.0769 0.4422 0.0
H1906 H 0.86522 0.99782 0.38081 0.0
H1907 H 0.83553 0.00717 0.39514 0.0
H1908 H 0.85628 0.98538 0.41114 0.0
H1909 H 0.892 0.09585 0.38794 0.0
H1910 H 0.88422 0.10722 0.41895 0.0
H1911 H 0.85903 0.09811 0.39756 0.0
C1912 C 0.00132 0.8432 0.33885 0.0
C1913 C 0.01796 0.84833 0.31862 0.0
C1914 C 0.99421 0.86163 0.35624 0.0
C1915 C 0.00406 0.88581 0.35348 0.0
C1916 C 0.02099 0.89113 0.33325 0.0
C1917 C 0.02764 0.87237 0.31602 0.0
C1918 C 0.97613 0.85523 0.37759 0.0
C1919 C 0.03193 0.91668 0.3297 0.0
C1920 C 0.96587 0.9385 0.38294 0.0
C1921 C 0.97954 0.94294 0.40534 0.0
C1922 C 0.97377 0.92011 0.36587 0.0
C1923 C -0.0041 0.90572 0.37129 0.0
C1924 C 0.00989 0.91015 0.39381 0.0
C1925 C 0.00158 0.92875 0.41054 0.0
C1926 C 0.95828 0.91595 0.34211 0.0
C1927 C 0.03364 0.89526 0.40023 0.0
H1928 H 0.99416 0.8246 0.34138 0.0
H1929 H 0.04029 0.87662 0.30035 0.0
H1930 H 0.98533 0.85926 0.39605 0.0
H1931 H 0.95851 0.86682 0.37637 0.0
H1932 H 0.97044 0.83548 0.3773 0.0
H1933 H 0.04567 0.91756 0.31364 0.0
H1934 H 0.01614 0.93012 0.32622 0.0
H1935 H 0.04196 0.92264 0.34716 0.0
H1936 H 0.94882 0.94935 0.37872 0.0
H1937 H 0.01233 0.93212 0.42775 0.0
H1938 H 0.95088 0.89677 0.34182 0.0
H1939 H 0.9707 0.9182 0.32521 0.0
H1940 H 0.94174 0.92894 0.34052 0.0
H1941 H 0.02925 0.87522 0.39997 0.0
H1942 H 0.04151 0.90008 0.4191 0.0
H1943 H 0.04871 0.89852 0.38577 0.0
C1944 C 0.16948 0.99987 0.30527 0.0
C1945 C 0.16282 0.99784 0.27975 0.0
C1946 C 0.15121 0.00666 0.32337 0.0
C1947 C 0.1258 0.01234 0.31559 0.0
C1948 C 0.11946 0.0121 0.28951 0.0
C1949 C 0.13799 0.00421 0.27185 0.0
C1950 C 0.15872 0.00598 0.351 0.0
C1951 C 0.09293 0.01899 0.28031 0.0
C1952 C 0.07905 0.99562 0.36702 0.0
C1953 C 0.0787 0.01741 0.3814 0.0
C1954 C 0.09272 0.99424 0.34426 0.0
C1955 C 0.10569 0.01541 0.33526 0.0
C1956 C 0.10299 0.03816 0.34819 0.0
C1957 C 0.08996 0.0388 0.37145 0.0
C1958 C 0.09527 0.9695 0.33121 0.0
C1959 C 0.1153 0.06141 0.33829 0.0
H1960 H 0.18869 0.99459 0.31125 0.0
H1961 H 0.13295 0.00254 0.25202 0.0
H1962 H 0.15461 0.02404 0.36006 0.0
H1963 H 0.1472 0.99182 0.36102 0.0
H1964 H 0.17941 0.00155 0.35373 0.0
H1965 H 0.09345 0.0256 0.26042 0.0
H1966 H 0.08042 0.00249 0.281 0.0
H1967 H 0.08408 0.03355 0.29232 0.0
H1968 H 0.07014 0.97903 0.37435 0.0
H1969 H 0.08946 0.05583 0.38224 0.0
H1970 H 0.11547 0.9629 0.33252 0.0
H1971 H 0.09048 0.97125 0.31087 0.0
H1972 H 0.0826 0.95527 0.3397 0.0
H1973 H 0.10817 0.07816 0.34827 0.0
H1974 H 0.11149 0.06345 0.31773 0.0
H1975 H 0.13644 0.06026 0.3408 0.0
C1976 C 0.00634 0.86859 0.71636 0.0
C1977 C 0.98109 0.86004 0.71944 0.0
C1978 C 0.01224 0.88688 0.69842 0.0
C1979 C 0.99235 0.89739 0.68354 0.0
C1980 C 0.96671 0.88969 0.68725 0.0
C1981 C 0.96145 0.87092 0.70482 0.0
C1982 C 0.03989 0.89445 0.69487 0.0
C1983 C 0.94488 0.90087 0.67221 0.0
C1984 C 0.00732 0.9576 0.64947 0.0
C1985 C 0.01317 0.9492 0.625 0.0
C1986 C -0.00016 0.94107 0.66857 0.0
C1987 C -0.00145 0.91547 0.66318 0.0
C1988 C 0.00373 0.90698 0.63834 0.0
C1989 C 0.01076 0.92396 0.61952 0.0
C1990 C 0.99411 0.95094 0.69469 0.0
C1991 C 0.0027 0.87983 0.63183 0.0
H1992 H 0.02165 0.86081 0.7278 0.0
H1993 H 0.94192 0.86432 0.70646 0.0
H1994 H 0.04612 0.89021 0.67526 0.0
H1995 H 0.04181 0.91468 0.69757 0.0
H1996 H 0.05306 0.88486 0.70823 0.0
H1997 H 0.92581 0.89428 0.67872 0.0
H1998 H 0.94525 0.92133 0.67367 0.0
H1999 H 0.94712 0.89611 0.65192 0.0
H2000 H 0.00902 0.97709 0.65385 0.0
H2001 H 0.01526 0.91728 0.60069 0.0
H2002 H 0.00979 0.94547 0.70778 0.0
H2003 H 0.97605 0.94293 0.70214 0.0
H2004 H 0.99238 0.97141 0.69489 0.0
H2005 H 0.01691 0.86948 0.64344 0.0
H2006 H 0.00685 0.87628 0.61153 0.0
H2007 H 0.98345 0.87234 0.63633 0.0
C2008 C 0.22424 0.96737 0.66574 0.0
C2009 C 0.21527 0.97053 0.69055 0.0
C2010 C 0.20912 0.97435 0.64493 0.0
C2011 C 0.18423 0.98424 0.64907 0.0
C2012 C 0.1755 0.98836 0.67415 0.0
C2013 C 0.19126 0.98164 0.69462 0.0
C2014 C 0.21935 0.97015 0.61854 0.0
C2015 C 0.14897 0.9986 0.67936 0.0
C2016 C 0.14418 0.01397 0.5969 0.0
C2017 C 0.12778 0.99448 0.59035 0.0
C2018 C 0.16347 0.01073 0.61527 0.0
C2019 C 0.16622 0.98754 0.62746 0.0
C2020 C 0.15065 0.9675 0.61993 0.0
C2021 C 0.13182 0.97117 0.60137 0.0
C2022 C 0.18009 0.03239 0.6224 0.0
C2023 C 0.15293 0.94245 0.63241 0.0
H2024 H 0.24302 0.9591 0.66263 0.0
H2025 H 0.18435 0.98406 0.71382 0.0
H2026 H 0.20874 0.9548 0.60948 0.0
H2027 H 0.21632 0.98687 0.60673 0.0
H2028 H 0.24015 0.9654 0.61855 0.0
H2029 H 0.14581 0.0024 0.69978 0.0
H2030 H 0.1458 0.01595 0.6686 0.0
H2031 H 0.13432 0.98517 0.67294 0.0
H2032 H 0.14132 0.03203 0.58844 0.0
H2033 H 0.11945 0.95589 0.59635 0.0
H2034 H 0.20063 0.02677 0.62295 0.0
H2035 H 0.17482 0.03889 0.64163 0.0
H2036 H 0.17783 0.04808 0.60902 0.0
H2037 H 0.173 0.93552 0.63123 0.0
H2038 H 0.14008 0.92855 0.62366 0.0
H2039 H 0.14798 0.94406 0.65277 0.0
C2040 C 0.01811 0.18768 0.66811 0.0
C2041 C 0.02376 0.18012 0.69292 0.0
C2042 C 0.01546 0.17036 0.64854 0.0
C2043 C 0.0186 0.14489 0.65388 0.0
C2044 C 0.02212 0.13706 0.67922 0.0
C2045 C 0.0247 0.15478 0.69843 0.0
C2046 C 0.01137 0.17947 0.62184 0.0
C2047 C 0.02515 0.11004 0.68577 0.0
C2048 C 0.0059 0.09565 0.60392 0.0
C2049 C 0.03084 0.09079 0.59507 0.0
C2050 C 0.00136 0.11359 0.62271 0.0
C2051 C 0.0223 0.12694 0.63283 0.0
C2052 C 0.04737 0.12273 0.62329 0.0
C2053 C 0.05129 0.10481 0.60457 0.0
C2054 C 0.97431 0.11779 0.63214 0.0
C2055 C 0.07026 0.13676 0.63326 0.0
H2056 H 0.01752 0.20722 0.6636 0.0
H2057 H 0.02863 0.14881 0.71763 0.0
H2058 H 0.02964 0.17778 0.61112 0.0
H2059 H -0.00317 0.16811 0.61197 0.0
H2060 H 0.00508 0.19913 0.62137 0.0
H2061 H 0.02457 0.1068 0.70651 0.0
H2062 H 0.00981 0.09901 0.6767 0.0
H2063 H 0.04385 0.10313 0.67842 0.0
H2064 H 0.98995 0.08534 0.59643 0.0
H2065 H 0.07066 0.10147 0.59774 0.0
H2066 H 0.95983 0.10878 0.61983 0.0
H2067 H 0.96984 0.13783 0.63325 0.0
H2068 H 0.97248 0.11014 0.65152 0.0
H2069 H 0.0671 0.15692 0.63094 0.0
H2070 H 0.08841 0.13159 0.62345 0.0
H2071 H 0.07264 0.13309 0.65378 0.0
C2072 C 0.86235 0.04398 0.72433 0.0
C2073 C 0.86896 0.05717 0.74614 0.0
C2074 C 0.88128 0.03547 0.7076 0.0
C2075 C 0.9075 0.0398 0.71313 0.0
C2076 C 0.91436 0.05092 0.73638 0.0
C2077 C 0.89494 0.05997 0.75245 0.0
C2078 C 0.87308 0.02377 0.68297 0.0
C2079 C 0.94214 0.05458 0.74351 0.0
C2080 C 0.952 0.00946 0.6652 0.0
C2081 C 0.95559 0.02895 0.64806 0.0
C2082 C 0.93781 0.01298 0.68757 0.0
C2083 C 0.92686 0.03649 0.69271 0.0
C2084 C 0.93173 0.05652 0.67617 0.0
C2085 C 0.94625 0.05255 0.65426 0.0
C2086 C 0.93407 0.99144 0.70531 0.0
C2087 C 0.91999 0.08179 0.68055 0.0
H2088 H 0.84226 0.042 0.71932 0.0
H2089 H 0.90002 0.07002 0.76945 0.0
H2090 H 0.87816 0.03613 0.66699 0.0
H2091 H 0.88337 0.00599 0.68003 0.0
H2092 H 0.85207 0.02028 0.68231 0.0
H2093 H 0.94432 0.05918 0.76387 0.0
H2094 H 0.95354 0.03767 0.73927 0.0
H2095 H 0.95032 0.0699 0.7322 0.0
H2096 H 0.95952 0.99125 0.66075 0.0
H2097 H 0.94895 0.06774 0.64121 0.0
H2098 H 0.9139 0.99036 0.71201 0.0
H2099 H 0.94644 0.99401 0.72219 0.0
H2100 H 0.93928 0.97357 0.69628 0.0
H2101 H 0.89871 0.0805 0.68008 0.0
H2102 H 0.92609 0.09547 0.66611 0.0
H2103 H 0.92544 0.08885 0.69947 0.0
C2104 C 0.33033 0.9427 0.13668 0.0
C2105 C 0.31483 0.96014 0.14919 0.0
C2106 C 0.34885 0.95014 0.11899 0.0
C2107 C 0.35196 0.9756 0.11382 0.0
C2108 C 0.33548 0.99316 0.12543 0.0
C2109 C 0.31715 0.98522 0.14299 0.0
C2110 C 0.36593 0.93084 0.10696 0.0
C2111 C 0.33809 0.02049 0.12028 0.0
C2112 C 0.41674 0.0018 0.09612 0.0
C2113 C 0.41319 0.00745 0.07048 0.0
C2114 C 0.39735 0.99032 0.11015 0.0
C2115 C 0.37384 0.98434 0.09823 0.0
C2116 C 0.37065 0.98881 0.07205 0.0
C2117 C 0.3904 0.00032 0.05845 0.0
C2118 C 0.40157 0.98565 0.13801 0.0
C2119 C 0.34614 0.98198 0.0586 0.0
H2120 H 0.32838 0.92325 0.14114 0.0
H2121 H 0.30545 0.99884 0.15277 0.0
H2122 H 0.36985 0.9354 0.08692 0.0
H2123 H 0.38463 0.93027 0.11702 0.0
H2124 H 0.35727 0.91215 0.10797 0.0
H2125 H 0.32258 0.03154 0.12939 0.0
H2126 H 0.35688 0.02704 0.12751 0.0
H2127 H 0.33768 0.02408 0.09962 0.0
H2128 H 0.43443 0.007 0.10548 0.0
H2129 H 0.38763 0.00438 0.03855 0.0
H2130 H 0.39745 0.96608 0.14264 0.0
H2131 H 0.38812 0.99729 0.14923 0.0
H2132 H 0.42152 0.98987 0.14401 0.0
H2133 H 0.34336 0.96175 0.05992 0.0
H2134 H 0.34635 0.98735 0.03833 0.0
H2135 H 0.3294 0.99097 0.06789 0.0
C2136 C 0.01666 0.33703 0.17037 0.0
C2137 C 0.03607 0.32538 0.18458 0.0
C2138 C 0.02243 0.3556 0.15272 0.0
C2139 C 0.04828 0.3628 0.14911 0.0
C2140 C 0.06805 0.35068 0.16286 0.0
C2141 C 0.06172 0.33218 0.18045 0.0
C2142 C 0.00075 0.36807 0.13852 0.0
C2143 C 0.09588 0.35763 0.15937 0.0
C2144 C 0.0654 0.39933 0.08984 0.0
C2145 C 0.06614 0.42364 0.09908 0.0
C2146 C 0.05966 0.37935 0.10586 0.0
C2147 C 0.0545 0.38374 0.13178 0.0
C2148 C 0.05509 0.40824 0.1412 0.0
C2149 C 0.0609 0.42786 0.12477 0.0
C2150 C 0.0591 0.35354 0.09504 0.0
C2151 C 0.04959 0.41375 0.16868 0.0
H2152 H -0.00326 0.33225 0.17369 0.0
H2153 H 0.07686 0.32313 0.19114 0.0
H2154 H -0.0003 0.38788 0.14386 0.0
H2155 H 0.00436 0.36726 0.11785 0.0
H2156 H 0.98185 0.35947 0.1425 0.0
H2157 H 0.10906 0.34565 0.17054 0.0
H2158 H 0.10127 0.35631 0.1391 0.0
H2159 H 0.09874 0.3771 0.16525 0.0
H2160 H 0.06942 0.39586 0.07006 0.0
H2161 H 0.06139 0.44655 0.13212 0.0
H2162 H 0.03962 0.34563 0.09731 0.0
H2163 H 0.07265 0.34139 0.10552 0.0
H2164 H 0.06426 0.35312 0.07466 0.0
H2165 H 0.03009 0.4072 0.17373 0.0
H2166 H 0.05078 0.43379 0.17303 0.0
H2167 H 0.06347 0.40367 0.18088 0.0
C2168 C 0.70789 0.0667 0.13533 0.0
C2169 C 0.70358 0.06302 0.16125 0.0
C2170 C 0.68827 0.06251 0.11765 0.0
C2171 C 0.66399 0.05431 0.1262 0.0
C2172 C 0.65876 0.05328 0.15242 0.0
C2173 C 0.67862 0.05764 0.16964 0.0
C2174 C 0.69431 0.0645 0.0898 0.0
C2175 C 0.63301 0.04489 0.16233 0.0
C2176 C 0.60848 0.04351 0.08095 0.0
C2177 C 0.61116 0.01812 0.07607 0.0
C2178 C 0.62573 0.05581 0.09692 0.0
C2179 C 0.64601 0.04231 0.10831 0.0
C2180 C 0.64871 0.01666 0.10353 0.0
C2181 C 0.6313 0.00491 0.08744 0.0
C2182 C 0.62239 0.0832 0.10139 0.0
C2183 C 0.66992 0.00151 0.1156 0.0
H2184 H 0.72701 0.07129 0.12877 0.0
H2185 H 0.67505 0.05456 0.18959 0.0
H2186 H 0.69713 0.0457 0.08186 0.0
H2187 H 0.67814 0.07331 0.07944 0.0
H2188 H 0.71206 0.0753 0.08634 0.0
H2189 H 0.63069 0.04895 0.18281 0.0
H2190 H 0.61708 0.05392 0.15182 0.0
H2191 H 0.63124 0.02464 0.15956 0.0
H2192 H 0.59294 0.05382 0.07223 0.0
H2193 H 0.63349 0.98529 0.0838 0.0
H2194 H 0.63833 0.09327 0.09212 0.0
H2195 H 0.62324 0.08748 0.12189 0.0
H2196 H 0.60392 0.09032 0.09371 0.0
H2197 H 0.68892 0.00923 0.11048 0.0
H2198 H 0.66946 0.98181 0.1097 0.0
H2199 H 0.66819 0.00233 0.13651 0.0
C2200 C -0.0009 0.67299 0.18685 0.0
C2201 C 0.00346 0.69704 0.17788 0.0
C2202 C -0.00268 0.6529 0.17012 0.0
C2203 C 0.00021 0.6569 0.14381 0.0
C2204 C 0.00185 0.6814 0.13452 0.0
C2205 C 0.00344 0.70117 0.15166 0.0
C2206 C -0.00478 0.62716 0.18089 0.0
C2207 C 0.00455 0.68656 0.10659 0.0
C2208 C 0.04123 0.61006 0.10899 0.0
C2209 C 0.02312 0.59655 0.09511 0.0
C2210 C 0.03384 0.62951 0.12482 0.0
C2211 C 0.0075 0.63581 0.12709 0.0
C2212 C 0.98892 0.6221 0.11347 0.0
C2213 C -0.00302 0.60264 0.09749 0.0
C2214 C 0.05443 0.64349 0.13894 0.0
C2215 C 0.96069 0.62835 0.11525 0.0
H2216 H -0.00088 0.66945 0.20702 0.0
H2217 H 0.00615 0.71975 0.14451 0.0
H2218 H 0.9829 0.61536 0.16885 0.0
H2219 H 0.01463 0.61855 0.18152 0.0
H2220 H 0.98729 0.62738 0.2004 0.0
H2221 H 0.00072 0.70629 0.10207 0.0
H2222 H 0.02442 0.68196 0.10047 0.0
H2223 H 0.99123 0.6749 0.09547 0.0
H2224 H 0.0615 0.60557 0.10738 0.0
H2225 H 0.98292 0.59264 0.08654 0.0
H2226 H 0.05072 0.64269 0.15959 0.0
H2227 H 0.05408 0.66323 0.13327 0.0
H2228 H 0.07401 0.636 0.13528 0.0
H2229 H 0.95485 0.63105 0.13525 0.0
H2230 H 0.94851 0.61375 0.10674 0.0
H2231 H 0.95689 0.64596 0.10514 0.0
C2232 C 0.32936 0.98869 0.88374 0.0
C2233 C 0.33706 0.98563 0.85853 0.0
C2234 C 0.34697 0.9964 0.90224 0.0
C2235 C 0.37287 0.00075 0.89531 0.0
C2236 C 0.38072 0.9974 0.86991 0.0
C2237 C 0.36268 0.99005 0.85182 0.0
C2238 C 0.33776 0.00031 0.92902 0.0
C2239 C 0.40827 0.00128 0.86187 0.0
C2240 C 0.41659 0.04202 0.93377 0.0
C2241 C 0.4315 0.02468 0.94715 0.0
C2242 C 0.39679 0.03452 0.91757 0.0
C2243 C 0.39193 0.00902 0.91439 0.0
C2244 C 0.4065 0.99143 0.92818 0.0
C2245 C 0.42603 0.99951 0.94444 0.0
C2246 C 0.38135 0.05387 0.90355 0.0
C2247 C 0.40179 0.96405 0.92544 0.0
H2248 H 0.30953 0.98525 0.8889 0.0
H2249 H 0.36877 0.98716 0.83242 0.0
H2250 H 0.35152 0.99224 0.94278 0.0
H2251 H 0.33653 0.02043 0.93292 0.0
H2252 H 0.31852 0.99211 0.93228 0.0
H2253 H 0.41132 0.99738 0.84145 0.0
H2254 H 0.41402 0.02063 0.8657 0.0
H2255 H 0.4212 0.98908 0.87304 0.0
H2256 H 0.42037 0.06159 0.9359 0.0
H2257 H 0.43714 0.98604 0.9547 0.0
H2258 H 0.36052 0.05103 0.90686 0.0
H2259 H 0.38475 0.05207 0.88291 0.0
H2260 H 0.38639 0.07295 0.9094 0.0
H2261 H 0.3815 0.95981 0.93012 0.0
H2262 H 0.4145 0.95281 0.93787 0.0
H2263 H 0.40505 0.95836 0.90552 0.0
C2264 C 0.05859 0.33181 0.85713 0.0
C2265 C 0.03894 0.32075 0.84295 0.0
C2266 C 0.05295 0.34824 0.87695 0.0
C2267 C 0.02701 0.354 0.88262 0.0
C2268 C 0.00707 0.34255 0.86877 0.0
C2269 C 0.01326 0.32604 0.84914 0.0
C2270 C 0.07486 0.36014 0.89105 0.0
C2271 C 0.97917 0.34822 0.87427 0.0
C2272 C 0.01001 0.38438 0.94544 0.0
C2273 C 0.0071 0.40921 0.93828 0.0
C2274 C 0.01669 0.36619 0.9276 0.0
C2275 C 0.02076 0.37304 0.90206 0.0
C2276 C 0.01872 0.39819 0.89493 0.0
C2277 C 0.01191 0.41594 0.9131 0.0
C2278 C 0.01862 0.33959 0.93598 0.0
C2279 C 0.02321 0.4063 0.86796 0.0
H2280 H 0.0785 0.32823 0.85226 0.0
H2281 H -0.00203 0.31735 0.83854 0.0
H2282 H 0.0783 0.37882 0.88312 0.0
H2283 H 0.07032 0.3624 0.91142 0.0
H2284 H 0.09293 0.34923 0.88922 0.0
H2285 H 0.96594 0.3371 0.86243 0.0
H2286 H 0.97487 0.34457 0.89448 0.0
H2287 H 0.97522 0.3681 0.87076 0.0
H2288 H 0.00658 0.37905 0.9649 0.0
H2289 H 0.00994 0.43511 0.90741 0.0
H2290 H 0.03599 0.3306 0.9279 0.0
H2291 H 0.00167 0.32934 0.92895 0.0
H2292 H 0.01919 0.33784 0.95691 0.0
H2293 H 0.04284 0.40086 0.86186 0.0
H2294 H 0.02098 0.42659 0.86552 0.0
H2295 H 0.00945 0.3969 0.8552 0.0
C2296 C 0.69789 0.07157 0.86715 0.0
C2297 C 0.69292 0.07666 0.84161 0.0
C2298 C 0.67868 0.06206 0.88296 0.0
C2299 C 0.65392 0.05741 0.87294 0.0
C2300 C 0.64869 0.0628 0.84727 0.0
C2301 C 0.66823 0.07242 0.83193 0.0
C2302 C 0.68522 0.05633 0.91018 0.0
C2303 C 0.62252 0.0582 0.83597 0.0
C2304 C 0.61453 0.01011 0.90865 0.0
C2305 C 0.59808 0.02519 0.92305 0.0
C2306 C 0.63241 0.02039 0.89188 0.0
C2307 C 0.63375 0.04638 0.88926 0.0
C2308 C 0.61642 0.06165 0.90292 0.0
C2309 C 0.59899 0.05081 0.91978 0.0
C2310 C 0.64998 0.00341 0.87707 0.0
C2311 C 0.61545 0.08935 0.89947 0.0
H2312 H 0.717 0.07451 0.87469 0.0
H2313 H 0.66414 0.07671 0.8123 0.0
H2314 H 0.66921 0.06157 0.92298 0.0
H2315 H 0.68849 0.03616 0.91227 0.0
H2316 H 0.70289 0.066 0.91642 0.0
H2317 H 0.62194 0.06219 0.81536 0.0
H2318 H 0.61687 0.03869 0.83903 0.0
H2319 H 0.60799 0.07002 0.84555 0.0
H2320 H 0.61388 0.99021 0.91093 0.0
H2321 H 0.58597 0.06246 0.9302 0.0
H2322 H 0.6702 0.00642 0.88286 0.0
H2323 H 0.64863 0.00764 0.85657 0.0
H2324 H 0.6453 0.9836 0.87998 0.0
H2325 H 0.6341 0.09707 0.89333 0.0
H2326 H 0.60929 0.09875 0.91716 0.0
H2327 H 0.60096 0.09387 0.88477 0.0
C2328 C 0.00682 0.67444 0.83826 0.0
C2329 C 0.0008 0.69765 0.84868 0.0
C2330 C 0.01085 0.65368 0.85375 0.0
C2331 C 0.00863 0.65605 0.88033 0.0
C2332 C 0.00444 0.67972 0.89105 0.0
C2333 C 0.00065 0.70023 0.87512 0.0
C2334 C 0.01543 0.62883 0.84151 0.0
C2335 C 0.00196 0.6831 0.91929 0.0
C2336 C 0.97889 0.60205 0.91506 0.0
C2337 C 0.0002 0.59082 0.92678 0.0
C2338 C 0.98154 0.62313 0.89997 0.0
C2339 C 0.00617 0.63349 0.89636 0.0
C2340 C 0.02788 0.62226 0.90795 0.0
C2341 C 0.02461 0.60105 0.92308 0.0
C2342 C 0.95785 0.63428 0.88783 0.0
C2343 C 0.05444 0.6328 0.90462 0.0
H2344 H 0.00678 0.67206 0.81791 0.0
H2345 H -0.00345 0.71815 0.88339 0.0
H2346 H 0.03089 0.61851 0.85147 0.0
H2347 H -0.00234 0.61766 0.84281 0.0
H2348 H 0.02074 0.63061 0.82123 0.0
H2349 H 0.00235 0.70289 0.92483 0.0
H2350 H 0.9835 0.67511 0.92578 0.0
H2351 H 0.01764 0.67316 0.92932 0.0
H2352 H 0.95987 0.59441 0.91774 0.0
H2353 H 0.0411 0.59274 0.93221 0.0
H2354 H 0.95969 0.63351 0.86694 0.0
H2355 H 0.95589 0.65402 0.89319 0.0
H2356 H 0.93997 0.62455 0.89338 0.0
H2357 H 0.05894 0.63487 0.88421 0.0
H2358 H 0.06949 0.62104 0.91354 0.0
H2359 H 0.05521 0.65149 0.91319 0.0
C2360 C 0.15583 0.34244 0.99722 0.0
C2361 C 0.15209 0.32009 0.98439 0.0
C2362 C 0.1368 0.36093 0.99721 0.0
C2363 C 0.11337 0.35689 0.98423 0.0
C2364 C 0.10863 0.33349 0.97325 0.0
C2365 C 0.12815 0.31546 0.97324 0.0
C2366 C 0.14262 0.38552 0.00936 0.0
C2367 C 0.08384 0.32779 0.95979 0.0
C2368 C 0.06374 0.40811 0.99308 0.0
C2369 C 0.06943 0.42352 0.97248 0.0
C2370 C 0.07673 0.38545 0.99641 0.0
C2371 C 0.09604 0.37831 0.97897 0.0
C2372 C 0.10052 0.39297 0.95726 0.0
C2373 C 0.08712 0.4153 0.95424 0.0
C2374 C 0.07041 0.36953 0.01895 0.0
C2375 C 0.1205 0.38575 0.93783 0.0
H2376 H 0.17434 0.34617 0.00577 0.0
H2377 H 0.12503 0.29806 0.96357 0.0
H2378 H 0.14496 0.39975 0.99443 0.0
H2379 H 0.12645 0.39148 0.02165 0.0
H2380 H 0.16046 0.38486 0.02088 0.0
H2381 H 0.078 0.30843 0.96353 0.0
H2382 H 0.06793 0.34033 0.96548 0.0
H2383 H 0.0869 0.32954 0.93911 0.0
H2384 H 0.04968 0.41404 0.00699 0.0
H2385 H 0.09129 0.42679 0.93796 0.0
H2386 H 0.08676 0.36963 0.0324 0.0
H2387 H 0.0675 0.3501 0.01291 0.0
H2388 H 0.05287 0.37608 0.02897 0.0
H2389 H 0.13993 0.387 0.94638 0.0
H2390 H 0.11985 0.39781 0.92084 0.0
H2391 H 0.11772 0.36633 0.93175 0.0
C2392 C 0.15943 0.69386 0.03331 0.0
C2393 C 0.14807 0.71595 0.04157 0.0
C2394 C 0.145 0.67229 0.03087 0.0
C2395 C 0.11865 0.67262 0.03759 0.0
C2396 C 0.1076 0.69435 0.04805 0.0
C2397 C 0.12234 0.71605 0.04934 0.0
C2398 C 0.1575 0.65003 0.0186 0.0
C2399 C 0.07989 0.69508 0.05644 0.0
C2400 C 0.07961 0.62951 0.99684 0.0
C2401 C 0.07984 0.60767 0.01122 0.0
C2402 C 0.09101 0.65119 0.0058 0.0
C2403 C 0.10231 0.65138 0.03015 0.0
C2404 C 0.10111 0.62997 0.04547 0.0
C2405 C 0.09042 0.60824 0.03556 0.0
C2406 C 0.09237 0.67338 0.9885 0.0
C2407 C 0.11216 0.62972 0.07185 0.0
H2408 H 0.17921 0.69395 0.02679 0.0
H2409 H 0.11357 0.73321 0.05561 0.0
H2410 H 0.15067 0.63252 0.02703 0.0
H2411 H 0.15236 0.64978 -0.00177 0.0
H2412 H 0.17879 0.65061 0.02012 0.0
H2413 H 0.07575 0.7114 0.06855 0.0
H2414 H 0.0672 0.69601 0.03962 0.0
H2415 H 0.07495 0.67805 0.06704 0.0
H2416 H 0.07138 0.6295 0.97801 0.0
H2417 H 0.09135 0.5916 0.04653 0.0
H2418 H 0.11273 0.67714 0.98364 0.0
H2419 H 0.08465 0.69003 -0.00185 0.0
H2420 H 0.08148 0.67063 0.97065 0.0
H2421 H 0.13279 0.63468 0.07131 0.0
H2422 H 0.1102 0.61143 0.08119 0.0
H2423 H 0.10221 0.64385 0.08358 0.0
C2424 C 0.34724 0.21334 0.02316 0.0
C2425 C 0.32508 0.20041 0.01591 0.0
C2426 C 0.37029 0.20081 0.02867 0.0
C2427 C 0.37133 0.17478 0.02649 0.0
C2428 C 0.34872 0.16154 0.02054 0.0
C2429 C 0.32586 0.1745 0.01551 0.0
C2430 C 0.39385 0.21555 0.03542 0.0
C2431 C 0.34899 0.13373 0.01814 0.0
C2432 C 0.43172 0.14096 0.00594 0.0
C2433 C 0.43821 0.12792 0.02799 0.0
C2434 C 0.41081 0.15744 0.00558 0.0
C2435 C 0.39635 0.16136 0.02794 0.0
C2436 C 0.40436 0.15016 0.05082 0.0
C2437 C 0.42502 0.13335 0.05053 0.0
C2438 C 0.40295 0.16909 0.98078 0.0
C2439 C 0.3901 0.15458 0.07528 0.0
H2440 H 0.34702 0.23337 0.02328 0.0
H2441 H 0.30874 0.16434 0.01042 0.0
H2442 H 0.40431 0.20686 0.05144 0.0
H2443 H 0.40715 0.21591 0.01902 0.0
H2444 H 0.38893 0.23492 0.04055 0.0
H2445 H 0.32951 0.12613 0.01471 0.0
H2446 H 0.36166 0.12818 0.0022 0.0
H2447 H 0.35691 0.12519 0.03557 0.0
H2448 H 0.44193 0.13713 0.9885 0.0
H2449 H 0.43009 0.1237 0.0678 0.0
H2450 H 0.39942 0.18918 0.98317 0.0
H2451 H 0.38474 0.1607 0.97419 0.0
H2452 H 0.41771 0.16644 0.96585 0.0
H2453 H 0.38489 0.17439 0.07741 0.0
H2454 H 0.40164 0.14875 0.09196 0.0
H2455 H 0.372 0.14386 0.07519 0.0
C2456 C 0.91985 0.32269 0.98373 0.0
C2457 C 0.89425 0.31982 0.99157 0.0
C2458 C 0.93496 0.34209 0.99306 0.0
C2459 C 0.92414 0.359 0.01058 0.0
C2460 C 0.89899 0.35512 0.0199 0.0
C2461 C 0.88437 0.33564 0.01027 0.0
C2462 C 0.9617 0.34553 0.98263 0.0
C2463 C 0.8867 0.3727 0.0386 0.0
C2464 C 0.96111 0.40799 0.04655 0.0
C2465 C 0.95497 0.42923 0.0325 0.0
C2466 C 0.95252 0.38459 0.03886 0.0
C2467 C 0.93737 0.38251 0.01674 0.0
C2468 C 0.93231 0.40372 0.00183 0.0
C2469 C 0.94104 0.4268 0.00998 0.0
C2470 C 0.95878 0.36229 0.05491 0.0
C2471 C 0.91645 0.40236 0.97793 0.0
H2472 H 0.92775 0.31038 0.9695 0.0
H2473 H 0.86453 0.33392 0.01622 0.0
H2474 H 0.96105 0.35956 0.96734 0.0
H2475 H 0.97508 0.35225 0.9974 0.0
H2476 H 0.9695 0.32809 0.97452 0.0
H2477 H 0.86814 0.36565 0.04598 0.0
H2478 H 0.89976 0.37602 0.05481 0.0
H2479 H 0.88309 0.39078 0.02928 0.0
H2480 H 0.97216 0.40968 0.06383 0.0
H2481 H 0.93626 0.44305 -0.00101 0.0
H2482 H 0.96613 0.34697 0.04292 0.0
H2483 H 0.94104 0.35567 0.06432 0.0
H2484 H 0.97327 0.36646 0.06971 0.0
H2485 H 0.92268 0.38656 0.96602 0.0
H2486 H 0.91785 0.41952 0.96649 0.0
H2487 H 0.89598 0.39948 0.98297 0.0
C2488 C 0.70671 0.85501 0.94661 0.0
C2489 C 0.70725 0.82933 0.95018 0.0
C2490 C 0.68363 0.8684 0.9485 0.0
C2491 C 0.66044 0.85574 0.95359 0.0
C2492 C 0.66044 0.82962 0.95441 0.0
C2493 C 0.68389 0.81671 0.95293 0.0
C2494 C 0.68447 0.89627 0.94731 0.0
C2495 C 0.63606 0.81536 0.95908 0.0
C2496 C 0.61618 0.89288 0.99587 0.0
C2497 C 0.60014 0.90463 0.9782 0.0
C2498 C 0.63494 0.87581 0.98816 0.0
C2499 C 0.63753 0.87004 0.96214 0.0
C2500 C 0.61995 0.88014 0.94446 0.0
C2501 C 0.60141 0.89736 0.9527 0.0
C2502 C 0.65321 0.86538 0.0077 0.0
C2503 C 0.62154 0.87364 0.91674 0.0
H2504 H 0.72458 0.86483 0.94385 0.0
H2505 H 0.68398 0.79688 0.95582 0.0
H2506 H 0.66925 0.90349 0.93457 0.0
H2507 H 0.6808 0.90398 0.96644 0.0
H2508 H 0.70337 0.90311 0.94059 0.0
H2509 H 0.63811 0.79572 0.95325 0.0
H2510 H 0.63143 0.81581 0.97956 0.0
H2511 H 0.61961 0.82374 0.94877 0.0
H2512 H 0.61514 0.89806 0.01565 0.0
H2513 H 0.58881 0.90603 0.93894 0.0
H2514 H 0.67287 0.87242 0.00412 0.0
H2515 H 0.65407 0.84495 0.00633 0.0
H2516 H 0.64756 0.87047 0.0273 0.0
H2517 H 0.6409 0.87799 0.90922 0.0
H2518 H 0.60698 0.88371 0.90528 0.0
H2519 H 0.61863 0.85349 0.91427 0.0
C2520 C 0.85017 0.66246 0.97952 0.0
C2521 C 0.85706 0.68342 0.96554 0.0
C2522 C 0.8675 0.64285 0.98301 0.0
C2523 C 0.89227 0.64406 0.97198 0.0
C2524 C 0.89854 0.66414 0.95598 0.0
C2525 C 0.88094 0.68379 0.9532 0.0
C2526 C 0.86007 0.62195 0.00044 0.0
C2527 C 0.92442 0.66584 0.94325 0.0
C2528 C 0.94273 0.61455 0.01369 0.0
C2529 C 0.94409 0.59046 0.00396 0.0
C2530 C 0.92696 0.63255 0.00256 0.0
C2531 C 0.91251 0.62653 0.98077 0.0
C2532 C 0.91522 0.60283 0.96971 0.0
C2533 C 0.93057 0.58489 0.98178 0.0
C2534 C 0.92463 0.65757 0.01509 0.0
C2535 C 0.90102 0.59605 0.94586 0.0
H2536 H 0.83189 0.66216 0.98935 0.0
H2537 H 0.88626 0.69984 0.94215 0.0
H2538 H 0.86423 0.60384 0.99147 0.0
H2539 H 0.87164 0.62297 0.01805 0.0
H2540 H 0.83939 0.62262 0.00566 0.0
H2541 H 0.92334 0.67725 0.9258 0.0
H2542 H 0.93824 0.67475 0.9563 0.0
H2543 H 0.93213 0.64729 0.93833 0.0
H2544 H 0.95329 0.61915 0.03071 0.0
H2545 H 0.93103 0.56632 0.97441 0.0
H2546 H 0.90467 0.66039 0.02198 0.0
H2547 H 0.92872 0.67243 0.00125 0.0
H2548 H 0.93795 0.65958 0.03137 0.0
H2549 H 0.88045 0.59296 0.9503 0.0
H2550 H 0.90892 0.57894 0.93712 0.0
H2551 H 0.90203 0.6113 0.93186 0.0
C2552 C 0.28684 0.88765 0.02314 0.0
C2553 C 0.28992 0.86839 0.00562 0.0
C2554 C 0.30614 0.90545 0.02648 0.0
C2555 C 0.32918 0.90364 0.01227 0.0
C2556 C 0.33213 0.88448 0.99426 0.0
C2557 C 0.31251 0.86715 0.99117 0.0
C2558 C 0.302 0.92606 0.04527 0.0
C2559 C 0.35635 0.8819 0.97868 0.0
C2560 C 0.37846 0.95442 0.00339 0.0
C2561 C 0.39746 0.94718 0.02073 0.0
C2562 C 0.3551 0.94162 0.00175 0.0
C2563 C 0.35108 0.92055 0.01717 0.0
C2564 C 0.36981 0.91379 0.03534 0.0
C2565 C 0.39257 0.92739 0.03714 0.0
C2566 C 0.33551 0.95011 0.98256 0.0
C2567 C 0.36661 0.89117 0.05178 0.0
H2568 H 0.26929 0.88885 0.03414 0.0
H2569 H 0.31519 0.85212 0.97785 0.0
H2570 H 0.31596 0.92423 0.06102 0.0
H2571 H 0.30537 0.94416 0.03601 0.0
H2572 H 0.28228 0.92602 0.05332 0.0
H2573 H 0.35553 0.86606 0.96535 0.0
H2574 H 0.35958 0.89904 0.96764 0.0
H2575 H 0.37316 0.87929 0.99133 0.0
H2576 H 0.38197 0.96986 0.99079 0.0
H2577 H 0.40714 0.92164 0.05059 0.0
H2578 H 0.31577 0.94408 0.98736 0.0
H2579 H 0.3407 0.94246 0.96374 0.0
H2580 H 0.33553 0.97058 0.98099 0.0
H2581 H 0.34784 0.89182 0.06171 0.0
H2582 H 0.38213 0.88935 0.06609 0.0
H2583 H 0.36676 0.87436 0.03975 0.0
C2584 C 0.71791 0.18964 0.9625 0.0
C2585 C 0.74386 0.18489 0.95712 0.0
C2586 C 0.70114 0.17051 0.96891 0.0
C2587 C 0.71047 0.14589 0.96996 0.0
C2588 C 0.73675 0.14094 0.9649 0.0
C2589 C 0.75321 0.16056 0.95863 0.0
C2590 C 0.67331 0.17667 0.97435 0.0
C2591 C 0.74733 0.11492 0.96579 0.0
C2592 C 0.66589 0.10458 0.00724 0.0
C2593 C 0.64991 0.09541 0.98805 0.0
C2594 C 0.68703 0.11955 0.00151 0.0
C2595 C 0.69227 0.12561 0.97599 0.0
C2596 C 0.67745 0.11489 0.95646 0.0
C2597 C 0.65649 0.09983 0.96272 0.0
C2598 C 0.70251 0.13037 0.02292 0.0
C2599 C 0.68258 0.12086 0.92902 0.0
H2600 H 0.71071 0.20848 0.96182 0.0
H2601 H 0.77324 0.15683 0.9544 0.0
H2602 H 0.6607 0.16687 0.96079 0.0
H2603 H 0.6681 0.1703 0.99362 0.0
H2604 H 0.66922 0.1968 0.973 0.0
H2605 H 0.76839 0.11427 0.96236 0.0
H2606 H 0.74328 0.10645 0.98447 0.0
H2607 H 0.73768 0.10342 0.9513 0.0
H2608 H 0.66123 0.10098 0.02689 0.0
H2609 H 0.64441 0.09271 0.94779 0.0
H2610 H 0.69742 0.1502 0.02516 0.0
H2611 H 0.72337 0.12928 0.01874 0.0
H2612 H 0.69876 0.12083 0.04115 0.0
H2613 H 0.67092 0.10944 0.91602 0.0
H2614 H 0.70319 0.11795 0.9245 0.0
H2615 H 0.67802 0.1406 0.92538 0.0
C2616 C 0.51759 0.6816 0.82778 0.0
C2617 C 0.4979 0.68216 0.80957 0.0
C2618 C 0.51827 0.66336 0.84678 0.0
C2619 C 0.49844 0.64559 0.84809 0.0
C2620 C 0.47948 0.64509 0.82891 0.0
C2621 C 0.47968 0.66307 0.80973 0.0
C2622 C 0.53935 0.66407 0.86636 0.0
C2623 C 0.45797 0.62649 0.82953 0.0
C2624 C 0.50132 0.59059 0.89335 0.0
C2625 C 0.4878 0.5998 0.91436 0.0
C2626 C 0.50564 0.6054 0.87189 0.0
C2627 C 0.49554 0.62977 0.87109 0.0
C2628 C 0.48177 0.63907 0.89222 0.0
C2629 C 0.47835 0.62411 0.91364 0.0
C2630 C 0.52106 0.59496 0.85016 0.0
C2631 C 0.47014 0.66473 0.89203 0.0
H2632 H 0.53179 0.69614 0.82811 0.0
H2633 H 0.46487 0.66269 0.79534 0.0
H2634 H 0.53151 0.67141 0.88439 0.0
H2635 H 0.54686 0.64519 0.87016 0.0
H2636 H 0.55554 0.67601 0.86037 0.0
H2637 H 0.44532 0.62784 0.81266 0.0
H2638 H 0.46593 0.60747 0.83059 0.0
H2639 H 0.44607 0.62945 0.84671 0.0
H2640 H 0.50859 0.57179 0.89369 0.0
H2641 H 0.4677 0.63134 0.92967 0.0
H2642 H 0.53806 0.60674 0.84658 0.0
H2643 H 0.50938 0.595 0.83263 0.0
H2644 H 0.52773 0.57577 0.8539 0.0
H2645 H 0.4854 0.67869 0.88935 0.0
H2646 H 0.45964 0.66905 0.90981 0.0
H2647 H 0.45657 0.66659 0.87594 0.0
C2648 C 0.41225 0.49431 0.81945 0.0
C2649 C 0.39961 0.51594 0.8115 0.0
C2650 C 0.42958 0.49469 0.83969 0.0
C2651 C 0.43465 0.51735 0.85201 0.0
C2652 C 0.42493 0.53967 0.8417 0.0
C2653 C 0.40721 0.53872 0.82164 0.0
C2654 C 0.44009 0.47049 0.84965 0.0
C2655 C 0.43138 0.56429 0.8534 0.0
C2656 C 0.43459 0.51051 0.92304 0.0
C2657 C 0.46078 0.50779 0.92849 0.0
C2658 C 0.42608 0.51461 0.89831 0.0
C2659 C 0.44427 0.51677 0.87848 0.0
C2660 C 0.47088 0.5157 0.88405 0.0
C2661 C 0.47882 0.51066 0.90896 0.0
C2662 C 0.39746 0.51535 0.89332 0.0
C2663 C 0.49108 0.51887 0.86384 0.0
H2664 H 0.40716 0.47675 0.81099 0.0
H2665 H 0.3979 0.55559 0.8153 0.0
H2666 H 0.46099 0.47194 0.85336 0.0
H2667 H 0.43055 0.46598 0.86786 0.0
H2668 H 0.43685 0.45498 0.83628 0.0
H2669 H 0.42571 0.57994 0.84096 0.0
H2670 H 0.42114 0.56634 0.8717 0.0
H2671 H 0.4523 0.56537 0.85737 0.0
H2672 H 0.4205 0.50846 0.93799 0.0
H2673 H 0.49914 0.50875 0.91305 0.0
H2674 H 0.39213 0.50009 0.88035 0.0
H2675 H 0.39205 0.53298 0.88398 0.0
H2676 H 0.38595 0.51355 0.91092 0.0
H2677 H 0.49661 0.50046 0.8563 0.0
H2678 H 0.50867 0.52742 0.87179 0.0
H2679 H 0.48407 0.53044 0.84791 0.0
C2680 C 0.50695 0.34892 0.83448 0.0
C2681 C 0.4842 0.34836 0.82019 0.0
C2682 C 0.50884 0.36299 0.85666 0.0
C2683 C 0.48743 0.377 0.8651 0.0
C2684 C 0.46458 0.3772 0.85048 0.0
C2685 C 0.46315 0.36273 0.82829 0.0
C2686 C 0.53357 0.36205 0.87162 0.0
C2687 C 0.44144 0.39214 0.85863 0.0
C2688 C 0.48954 0.38629 0.9362 0.0
C2689 C 0.50202 0.40911 0.93825 0.0
C2690 C 0.48295 0.37643 0.91251 0.0
C2691 C 0.48884 0.38974 0.89019 0.0
C2692 C 0.49957 0.41368 0.89222 0.0
C2693 C 0.50616 0.42303 0.91621 0.0
C2694 C 0.47119 0.35102 0.91137 0.0
C2695 C 0.50555 0.42885 0.86902 0.0
H2696 H 0.52316 0.3375 0.82888 0.0
H2697 H 0.44552 0.36253 0.8174 0.0
H2698 H 0.54078 0.38102 0.87494 0.0
H2699 H 0.52999 0.35356 0.89039 0.0
H2700 H 0.54885 0.35121 0.86189 0.0
H2701 H 0.42658 0.39318 0.84358 0.0
H2702 H 0.43274 0.38359 0.87565 0.0
H2703 H 0.44716 0.41118 0.86387 0.0
H2704 H 0.4858 0.37554 0.9531 0.0
H2705 H 0.51539 0.44089 0.91758 0.0
H2706 H 0.48532 0.33777 0.90325 0.0
H2707 H 0.4541 0.35113 0.89885 0.0
H2708 H 0.46534 0.34423 0.93034 0.0
H2709 H 0.52311 0.42136 0.85981 0.0
H2710 H 0.50893 0.44857 0.87378 0.0
H2711 H 0.48967 0.4278 0.85508 0.0
C2712 C 0.61486 0.53221 0.81832 0.0
C2713 C 0.63969 0.52711 0.8274 0.0
C2714 C 0.59481 0.53869 0.83501 0.0
C2715 C 0.59981 0.54008 0.86131 0.0
C2716 C 0.62484 0.53485 0.87048 0.0
C2717 C 0.64437 0.52844 0.85346 0.0
C2718 C 0.56853 0.54441 0.82437 0.0
C2719 C 0.63103 0.53577 0.8984 0.0
C2720 C 0.56467 0.57649 0.91133 0.0
C2721 C 0.55364 0.55735 0.92548 0.0
C2722 C 0.57741 0.57154 0.88848 0.0
C2723 C 0.57936 0.54687 0.87979 0.0
C2724 C 0.56567 0.52801 0.89245 0.0
C2725 C 0.553 0.53347 0.91522 0.0
C2726 C 0.59073 0.59237 0.87492 0.0
C2727 C 0.5664 0.50161 0.88329 0.0
H2728 H 0.61116 0.5313 0.79817 0.0
H2729 H 0.66332 0.52393 0.86069 0.0
H2730 H 0.55308 0.53698 0.83664 0.0
H2731 H 0.56593 0.56474 0.82334 0.0
H2732 H 0.56617 0.53679 0.80501 0.0
H2733 H 0.65143 0.53104 0.9024 0.0
H2734 H 0.62703 0.55455 0.90591 0.0
H2735 H 0.61862 0.52266 0.90887 0.0
H2736 H 0.56456 0.59517 0.91875 0.0
H2737 H 0.5441 0.51864 0.92578 0.0
H2738 H 0.5881 0.59075 0.85417 0.0
H2739 H 0.61167 0.59138 0.87885 0.0
H2740 H 0.58346 0.61073 0.88115 0.0
H2741 H 0.56412 0.50079 0.86244 0.0
H2742 H 0.55111 0.49029 0.8922 0.0
H2743 H 0.58533 0.49325 0.88804 0.0
C2744 C 0.49529 0.34547 0.17254 0.0
C2745 C 0.48749 0.35293 0.19681 0.0
C2746 C 0.50033 0.36281 0.15342 0.0
C2747 C 0.49761 0.38839 0.15857 0.0
C2748 C 0.48949 0.39609 0.18293 0.0
C2749 C 0.48445 0.37829 0.20172 0.0
C2750 C 0.50891 0.35374 0.12773 0.0
C2751 C 0.48653 0.42315 0.18927 0.0
C2752 C 0.53857 0.43012 0.11745 0.0
C2753 C 0.52098 0.43839 0.09909 0.0
C2754 C 0.53098 0.41456 0.13726 0.0
C2755 C 0.50509 0.40691 0.13893 0.0
C2756 C 0.48698 0.41581 0.12095 0.0
C2757 C 0.49513 0.43156 0.10128 0.0
C2758 C 0.55092 0.40581 0.15607 0.0
C2759 C 0.45921 0.40805 0.12202 0.0
H2760 H 0.49711 0.32593 0.16833 0.0
H2761 H 0.47845 0.38424 0.2204 0.0
H2762 H 0.49613 0.36134 0.11281 0.0
H2763 H 0.52862 0.36038 0.12372 0.0
H2764 H 0.50889 0.33325 0.12638 0.0
H2765 H 0.47865 0.42611 0.20857 0.0
H2766 H 0.50547 0.43237 0.18799 0.0
H2767 H 0.47363 0.43233 0.1754 0.0
H2768 H 0.55854 0.43558 0.11617 0.0
H2769 H 0.48144 0.43792 0.08723 0.0
H2770 H 0.55217 0.38533 0.15588 0.0
H2771 H 0.54523 0.41147 0.17546 0.0
H2772 H 0.5703 0.41331 0.15199 0.0
H2773 H 0.45786 0.38783 0.11884 0.0
H2774 H 0.44726 0.41767 0.1076 0.0
H2775 H 0.45111 0.41191 0.14104 0.0
C2776 C 0.67818 0.49123 0.17619 0.0
C2777 C 0.66921 0.48471 0.20025 0.0
C2778 C 0.66217 0.48962 0.15497 0.0
C2779 C 0.63681 0.48069 0.15788 0.0
C2780 C 0.62911 0.47064 0.18141 0.0
C2781 C 0.64518 0.47336 0.20258 0.0
C2782 C 0.67132 0.50039 0.13023 0.0
C2783 C 0.603 0.45917 0.18477 0.0
C2784 C 0.58871 0.52021 0.12285 0.0
C2785 C 0.58691 0.50815 0.09942 0.0
C2786 C 0.60399 0.51078 0.14233 0.0
C2787 C 0.61708 0.48801 0.13888 0.0
C2788 C 0.61354 0.47455 0.11616 0.0
C2789 C 0.59905 0.48513 0.09638 0.0
C2790 C 0.60743 0.52621 0.16596 0.0
C2791 C 0.62585 0.44957 0.11201 0.0
H2792 H 0.69678 0.50001 0.17436 0.0
H2793 H 0.63837 0.46793 0.22114 0.0
H2794 H 0.6677 0.48732 0.11452 0.0
H2795 H 0.66046 0.51766 0.12613 0.0
H2796 H 0.69216 0.50475 0.13057 0.0
H2797 H 0.60307 0.44564 0.20058 0.0
H2798 H 0.58868 0.47378 0.18927 0.0
H2799 H 0.59674 0.44973 0.16719 0.0
H2800 H 0.57915 0.53786 0.12563 0.0
H2801 H 0.59819 0.47579 0.07835 0.0
H2802 H 0.62806 0.53058 0.16866 0.0
H2803 H 0.60096 0.51577 0.18281 0.0
H2804 H 0.59647 0.54388 0.1652 0.0
H2805 H 0.64397 0.45186 0.10122 0.0
H2806 H 0.61306 0.4376 0.10057 0.0
H2807 H 0.63028 0.44004 0.1301 0.0
C2808 C 0.54855 0.66242 0.20384 0.0
C2809 C 0.55498 0.68639 0.19604 0.0
C2810 C 0.54118 0.64434 0.18615 0.0
C2811 C 0.5406 0.65028 0.16003 0.0
C2812 C 0.54791 0.67422 0.15205 0.0
C2813 C 0.55483 0.69198 0.17012 0.0
C2814 C 0.53334 0.61912 0.19546 0.0
C2815 C 0.54791 0.68124 0.12439 0.0
C2816 C 0.53717 0.60022 0.10923 0.0
C2817 C 0.51108 0.60111 0.10263 0.0
C2818 C 0.54707 0.6157 0.12827 0.0
C2819 C 0.53041 0.63229 0.14116 0.0
C2820 C 0.50392 0.63261 0.13517 0.0
C2821 C 0.49462 0.61707 0.11607 0.0
C2822 C 0.57539 0.61456 0.13434 0.0
C2823 C 0.48539 0.6498 0.14854 0.0
H2824 H 0.54867 0.65801 0.22384 0.0
H2825 H 0.56029 0.71032 0.16395 0.0
H2826 H 0.51267 0.61613 0.1914 0.0
H2827 H 0.54427 0.60451 0.18531 0.0
H2828 H 0.53652 0.61686 0.21611 0.0
H2829 H 0.5554 0.70016 0.12118 0.0
H2830 H 0.55982 0.66796 0.11341 0.0
H2831 H 0.52806 0.68033 0.11681 0.0
H2832 H 0.54985 0.58742 0.09962 0.0
H2833 H 0.47434 0.61774 0.11145 0.0
H2834 H 0.57825 0.61126 0.15486 0.0
H2835 H 0.5844 0.63255 0.1298 0.0
H2836 H 0.58551 0.59977 0.12361 0.0
H2837 H 0.48642 0.64687 0.16928 0.0
H2838 H 0.4652 0.64711 0.14235 0.0
H2839 H 0.49078 0.66928 0.14483 0.0
C2840 C 0.41205 0.59216 0.20548 0.0
C2841 C 0.38809 0.58217 0.212 0.0
C2842 C 0.42658 0.58227 0.18539 0.0
C2843 C 0.4168 0.56205 0.17146 0.0
C2844 C 0.39316 0.55131 0.17863 0.0
C2845 C 0.37915 0.56145 0.19879 0.0
C2846 C 0.45188 0.594 0.17845 0.0
C2847 C 0.38196 0.52984 0.16417 0.0
C2848 C 0.43393 0.55153 0.10251 0.0
C2849 C 0.45011 0.53085 0.10405 0.0
C2850 C 0.424 0.56271 0.12442 0.0
C2851 C 0.43032 0.55282 0.14847 0.0
C2852 C 0.44749 0.53251 0.15018 0.0
C2853 C 0.45706 0.52168 0.12794 0.0
C2854 C 0.40569 0.58431 0.12175 0.0
C2855 C 0.45493 0.52158 0.17543 0.0
H2856 H 0.41911 0.6081 0.21567 0.0
H2857 H 0.36044 0.55393 0.20329 0.0
H2858 H 0.46736 0.57981 0.17803 0.0
H2859 H 0.45063 0.60205 0.15919 0.0
H2860 H 0.45742 0.60882 0.19189 0.0
H2861 H 0.36402 0.52283 0.17295 0.0
H2862 H 0.3776 0.53564 0.14449 0.0
H2863 H 0.39607 0.51443 0.16311 0.0
H2864 H 0.42816 0.55837 0.08417 0.0
H2865 H 0.46974 0.50575 0.12926 0.0
H2866 H 0.41133 0.59959 0.13454 0.0
H2867 H 0.38606 0.5785 0.12726 0.0
H2868 H 0.40502 0.59147 0.10208 0.0
H2869 H 0.46127 0.53633 0.18855 0.0
H2870 H 0.47057 0.50761 0.17367 0.0
H2871 H 0.43799 0.51258 0.18412 0.0
C2872 C 0.83366 0.5276 0.71767 0.0
C2873 C 0.81157 0.52047 0.70436 0.0
C2874 C 0.85712 0.53134 0.70509 0.0
C2875 C 0.85849 0.52795 0.67858 0.0
C2876 C 0.83594 0.52196 0.66492 0.0
C2877 C 0.8128 0.51821 0.67798 0.0
C2878 C 0.8807 0.53765 0.72034 0.0
C2879 C 0.83648 0.51846 0.63658 0.0
C2880 C 0.91401 0.54976 0.63771 0.0
C2881 C 0.92673 0.52737 0.63261 0.0
C2882 C 0.89253 0.5506 0.65384 0.0
C2883 C 0.8837 0.52853 0.66521 0.0
C2884 C 0.89768 0.50626 0.66165 0.0
C2885 C 0.91895 0.50594 0.64533 0.0
C2886 C 0.87826 0.57475 0.65722 0.0
C2887 C 0.88918 0.48237 0.67373 0.0
H2888 H 0.83292 0.52909 0.73811 0.0
H2889 H 0.79572 0.51296 0.6676 0.0
H2890 H 0.89404 0.52158 0.72053 0.0
H2891 H 0.89109 0.55333 0.7116 0.0
H2892 H 0.87588 0.54253 0.74021 0.0
H2893 H 0.81697 0.51572 0.62857 0.0
H2894 H 0.8453 0.53472 0.6273 0.0
H2895 H 0.84848 0.50209 0.63181 0.0
H2896 H 0.9197 0.56632 0.62776 0.0
H2897 H 0.92879 0.48858 0.64162 0.0
H2898 H 0.87364 0.57792 0.67744 0.0
H2899 H 0.85979 0.57401 0.64677 0.0
H2900 H 0.88944 0.59071 0.65004 0.0
H2901 H 0.88563 0.48507 0.69424 0.0
H2902 H 0.90361 0.46734 0.6713 0.0
H2903 H 0.87084 0.47635 0.66507 0.0
C2904 C 0.53339 0.83556 0.64759 0.0
C2905 C 0.51014 0.83549 0.66107 0.0
C2906 C 0.53941 0.85492 0.63085 0.0
C2907 C 0.5218 0.87474 0.6275 0.0
C2908 C 0.49799 0.87442 0.64043 0.0
C2909 C 0.49248 0.85489 0.65704 0.0
C2910 C 0.56494 0.85451 0.61729 0.0
C2911 C 0.47867 0.89516 0.63731 0.0
C2912 C 0.54874 0.93724 0.60836 0.0
C2913 C 0.54325 0.93807 0.58239 0.0
C2914 C 0.54177 0.9168 0.62318 0.0
C2915 C 0.52896 0.89661 0.61184 0.0
C2916 C 0.52294 0.89749 0.58572 0.0
C2917 C 0.53026 0.91814 0.5713 0.0
C2918 C 0.54837 0.91673 0.651 0.0
C2919 C 0.50898 0.87653 0.57296 0.0
H2920 H 0.54703 0.82058 0.65031 0.0
H2921 H 0.47465 0.85535 0.66762 0.0
H2922 H 0.56199 0.85672 0.59663 0.0
H2923 H 0.57679 0.87028 0.62374 0.0
H2924 H 0.57583 0.83711 0.62072 0.0
H2925 H 0.46116 0.89241 0.64898 0.0
H2926 H 0.48751 0.91302 0.64262 0.0
H2927 H 0.4729 0.89669 0.61719 0.0
H2928 H 0.55865 0.95255 0.61715 0.0
H2929 H 0.52592 0.91856 0.55126 0.0
H2930 H 0.56253 0.9018 0.65494 0.0
H2931 H 0.53101 0.91284 0.66248 0.0
H2932 H 0.5566 0.93458 0.65732 0.0
H2933 H 0.50492 0.88043 0.55271 0.0
H2934 H 0.49052 0.87292 0.58274 0.0
H2935 H 0.52069 0.85936 0.57423 0.0
C2936 C 0.26423 0.56417 0.63749 0.0
C2937 C 0.26549 0.5415 0.65028 0.0
C2938 C 0.24455 0.56893 0.61984 0.0
C2939 C 0.22545 0.55083 0.61564 0.0
C2940 C 0.22729 0.52763 0.62794 0.0
C2941 C 0.24743 0.52319 0.64483 0.0
C2942 C 0.24398 0.59332 0.60599 0.0
C2943 C 0.20703 0.50798 0.62458 0.0
C2944 C 0.15606 0.56542 0.60179 0.0
C2945 C 0.15303 0.55396 0.57824 0.0
C2946 C 0.18022 0.56657 0.61337 0.0
C2947 C 0.20193 0.55651 0.60077 0.0
C2948 C 0.19939 0.54745 0.5758 0.0
C2949 C 0.17483 0.54582 0.56497 0.0
C2950 C 0.18199 0.5763 0.64008 0.0
C2951 C 0.22229 0.53787 0.56121 0.0
H2952 H 0.27831 0.57828 0.64168 0.0
H2953 H 0.24811 0.50582 0.65505 0.0
H2954 H 0.24779 0.59002 0.58562 0.0
H2955 H 0.22475 0.60218 0.60741 0.0
H2956 H 0.25862 0.60636 0.61328 0.0
H2957 H 0.21143 0.49092 0.6355 0.0
H2958 H 0.18807 0.51522 0.63089 0.0
H2959 H 0.20524 0.50294 0.60434 0.0
H2960 H 0.13927 0.57186 0.61206 0.0
H2961 H 0.17261 0.53743 0.54648 0.0
H2962 H 0.19819 0.58939 0.64191 0.0
H2963 H 0.18574 0.56068 0.65323 0.0
H2964 H 0.16404 0.58582 0.64612 0.0
H2965 H 0.23934 0.54965 0.5645 0.0
H2966 H 0.21832 0.53714 0.54057 0.0
H2967 H 0.22712 0.51891 0.5677 0.0
C2968 C 0.46635 0.19726 0.64336 0.0
C2969 C 0.4693 0.19299 0.66935 0.0
C2970 C 0.47061 0.1782 0.62566 0.0
C2971 C 0.47901 0.15461 0.63411 0.0
C2972 C 0.48087 0.14998 0.66043 0.0
C2973 C 0.47569 0.16913 0.6777 0.0
C2974 C 0.4675 0.18371 0.59785 0.0
C2975 C 0.49034 0.1254 0.67037 0.0
C2976 C 0.48563 0.09903 0.58959 0.0
C2977 C 0.51131 0.101 0.58179 0.0
C2978 C 0.47447 0.11664 0.60604 0.0
C2979 C 0.48965 0.1362 0.61567 0.0
C2980 C 0.51572 0.13793 0.60827 0.0
C2981 C 0.52604 0.12062 0.59129 0.0
C2982 C 0.44642 0.11451 0.61285 0.0
C2983 C 0.53296 0.15793 0.61856 0.0
H2984 H 0.46134 0.21568 0.63686 0.0
H2985 H 0.47829 0.16585 0.69778 0.0
H2986 H 0.4867 0.18512 0.58886 0.0
H2987 H 0.45709 0.1685 0.58829 0.0
H2988 H 0.45693 0.20132 0.59456 0.0
H2989 H 0.48817 0.12388 0.69122 0.0
H2990 H 0.47981 0.10998 0.66135 0.0
H2991 H 0.51098 0.12306 0.66557 0.0
H2992 H 0.47424 0.08383 0.58287 0.0
H2993 H 0.546 0.12234 0.58572 0.0
H2994 H 0.43581 0.13085 0.60549 0.0
H2995 H 0.44393 0.11438 0.63368 0.0
H2996 H 0.43759 0.09755 0.60491 0.0
H2997 H 0.52541 0.17638 0.61308 0.0
H2998 H 0.55302 0.15622 0.61155 0.0
H2999 H 0.53324 0.15717 0.63953 0.0
C3000 C 0.77945 0.53534 0.39221 0.0
C3001 C 0.78672 0.53057 0.36712 0.0
C3002 C 0.79784 0.53561 0.41168 0.0
C3003 C 0.82403 0.53136 0.40576 0.0
C3004 C 0.83138 0.52643 0.38047 0.0
C3005 C 0.81264 0.52603 0.3615 0.0
C3006 C 0.78932 0.54046 0.43852 0.0
C3007 C 0.85912 0.52171 0.37338 0.0
C3008 C 0.87944 0.55323 0.44623 0.0
C3009 C 0.88817 0.53089 0.45675 0.0
C3010 C 0.85753 0.55395 0.43077 0.0
C3011 C 0.84407 0.53182 0.42576 0.0
C3012 C 0.85189 0.50952 0.43752 0.0
C3013 C 0.87367 0.50939 0.45312 0.0
C3014 C 0.84973 0.57807 0.41853 0.0
C3015 C 0.83801 0.48553 0.43274 0.0
H3016 H 0.75939 0.53882 0.39657 0.0
H3017 H 0.81841 0.52282 0.34207 0.0
H3018 H 0.79464 0.5245 0.45067 0.0
H3019 H 0.79936 0.55687 0.44615 0.0
H3020 H 0.76826 0.54361 0.43996 0.0
H3021 H 0.86164 0.51837 0.35279 0.0
H3022 H 0.87105 0.53776 0.37888 0.0
H3023 H 0.86656 0.50537 0.38381 0.0
H3024 H 0.89034 0.56999 0.44919 0.0
H3025 H 0.88007 0.49207 0.46136 0.0
H3026 H 0.82945 0.58253 0.42327 0.0
H3027 H 0.85099 0.57639 0.39765 0.0
H3028 H 0.86202 0.59369 0.4246 0.0
H3029 H 0.8192 0.48595 0.44262 0.0
H3030 H 0.84916 0.46929 0.43958 0.0
H3031 H 0.83417 0.4829 0.41228 0.0
C3032 C 0.53467 0.85163 0.33482 0.0
C3033 C 0.55123 0.83282 0.34333 0.0
C3034 C 0.52625 0.87055 0.35109 0.0
C3035 C 0.53459 0.87079 0.3766 0.0
C3036 C 0.55093 0.85166 0.38549 0.0
C3037 C 0.55904 0.83291 0.36878 0.0
C3038 C 0.50886 0.89062 0.34082 0.0
C3039 C 0.55992 0.85103 0.41264 0.0
C3040 C 0.53228 0.93369 0.40878 0.0
C3041 C 0.50926 0.93238 0.42251 0.0
C3042 C 0.54125 0.91346 0.39455 0.0
C3043 C 0.52661 0.89148 0.39365 0.0
C3044 C 0.5037 0.88981 0.40804 0.0
C3045 C 0.49541 0.91021 0.42245 0.0
C3046 C 0.56616 0.9158 0.38011 0.0
C3047 C 0.48743 0.86683 0.40749 0.0
H3048 H 0.52887 0.85203 0.31513 0.0
H3049 H 0.57158 0.81831 0.37564 0.0
H3050 H 0.4912 0.89209 0.35251 0.0
H3051 H 0.51874 0.9087 0.34183 0.0
H3052 H 0.50319 0.8872 0.32088 0.0
H3053 H 0.57432 0.83617 0.41605 0.0
H3054 H 0.56839 0.86905 0.41801 0.0
H3055 H 0.54328 0.84792 0.42534 0.0
H3056 H 0.54329 0.95061 0.40902 0.0
H3057 H 0.47761 0.90902 0.43302 0.0
H3058 H 0.56251 0.91387 0.35954 0.0
H3059 H 0.57958 0.90073 0.38568 0.0
H3060 H 0.57569 0.93382 0.38349 0.0
H3061 H 0.47968 0.86409 0.38815 0.0
H3062 H 0.47106 0.86787 0.42096 0.0
H3063 H 0.49926 0.85032 0.41213 0.0
C3064 C 0.2185 0.58522 0.35419 0.0
C3065 C 0.21564 0.58788 0.32797 0.0
C3066 C 0.19777 0.57789 0.36944 0.0
C3067 C 0.17349 0.57341 0.35824 0.0
C3068 C 0.17045 0.57624 0.33179 0.0
C3069 C 0.19159 0.5833 0.31696 0.0
C3070 C 0.20187 0.57487 0.39755 0.0
C3071 C 0.14483 0.57195 0.31919 0.0
C3072 C 0.12792 0.533 0.39601 0.0
C3073 C 0.11262 0.55065 0.4085 0.0
C3074 C 0.14722 0.54013 0.37897 0.0
C3075 C 0.15141 0.56554 0.37427 0.0
C3076 C 0.13533 0.58342 0.38594 0.0
C3077 C 0.11607 0.57577 0.40285 0.0
C3078 C 0.1639 0.52047 0.36688 0.0
C3079 C 0.13919 0.61068 0.38132 0.0
H3080 H 0.23707 0.58861 0.36275 0.0
H3081 H 0.18918 0.58569 0.29674 0.0
H3082 H 0.18862 0.58729 0.40808 0.0
H3083 H 0.19738 0.55565 0.40329 0.0
H3084 H 0.2219 0.57906 0.4033 0.0
H3085 H 0.1456 0.57509 0.29843 0.0
H3086 H 0.13841 0.55274 0.3227 0.0
H3087 H 0.13008 0.58448 0.32743 0.0
H3088 H 0.1254 0.51355 0.40016 0.0
H3089 H 0.10449 0.58957 0.41247 0.0
H3090 H 0.18396 0.52231 0.37372 0.0
H3091 H 0.16425 0.52289 0.34605 0.0
H3092 H 0.15716 0.5015 0.37125 0.0
H3093 H 0.15881 0.61611 0.38722 0.0
H3094 H 0.1251 0.62227 0.39177 0.0
H3095 H 0.13745 0.61476 0.36082 0.0
C3096 C 0.50352 0.19925 0.35724 0.0
C3097 C 0.48526 0.19523 0.33818 0.0
C3098 C 0.5089 0.18089 0.37549 0.0
C3099 C 0.49593 0.15792 0.37444 0.0
C3100 C 0.47857 0.1534 0.35435 0.0
C3101 C 0.47339 0.17208 0.33662 0.0
C3102 C 0.52746 0.18652 0.39659 0.0
C3103 C 0.4645 0.12916 0.3522 0.0
C3104 C 0.51402 0.10005 0.41198 0.0
C3105 C 0.49463 0.09991 0.4304 0.0
C3106 C 0.51583 0.1196 0.39441 0.0
C3107 C 0.49801 0.13956 0.39554 0.0
C3108 C 0.47973 0.14031 0.41538 0.0
C3109 C 0.47817 0.12047 0.43239 0.0
C3110 C 0.53564 0.11801 0.37362 0.0
C3111 C 0.46056 0.16128 0.41771 0.0
H3112 H 0.51275 0.2171 0.35851 0.0
H3113 H 0.45959 0.16873 0.32166 0.0
H3114 H 0.51668 0.18879 0.41456 0.0
H3115 H 0.5412 0.17098 0.39926 0.0
H3116 H 0.53844 0.2037 0.39297 0.0
H3117 H 0.45348 0.12771 0.33427 0.0
H3118 H 0.47827 0.11345 0.35325 0.0
H3119 H 0.4509 0.12726 0.36825 0.0
H3120 H 0.52673 0.08423 0.4103 0.0
H3121 H 0.4633 0.12066 0.44678 0.0
H3122 H 0.54528 0.13605 0.37099 0.0
H3123 H 0.52599 0.11337 0.35554 0.0
H3124 H 0.55044 0.10363 0.37755 0.0
H3125 H 0.47044 0.17934 0.41647 0.0
H3126 H 0.44966 0.16056 0.43577 0.0
H3127 H 0.44664 0.16038 0.40184 0.0
C3128 C 0.688 0.84307 0.47397 0.0
C3129 C 0.69132 0.83252 0.4499 0.0
C3130 C 0.66779 0.85982 0.47886 0.0
C3131 C 0.65063 0.86644 0.45915 0.0
C3132 C 0.65324 0.8551 0.43514 0.0
C3133 C 0.67336 0.83819 0.4309 0.0
C3134 C 0.66548 0.87125 0.50481 0.0
C3135 C 0.63559 0.86173 0.41348 0.0
C3136 C 0.58723 0.89978 0.47238 0.0
C3137 C 0.59355 0.92441 0.46691 0.0
C3138 C 0.60573 0.88078 0.4706 0.0
C3139 C 0.63112 0.88647 0.46298 0.0
C3140 C 0.63769 0.91133 0.45784 0.0
C3141 C 0.6189 0.92996 0.45999 0.0
C3142 C 0.59799 0.85453 0.47634 0.0
C3143 C 0.66443 0.9182 0.44936 0.0
H3144 H 0.70181 0.83905 0.48877 0.0
H3145 H 0.67537 0.82981 0.41238 0.0
H3146 H 0.67013 0.8912 0.50373 0.0
H3147 H 0.64547 0.86977 0.51185 0.0
H3148 H 0.67861 0.86237 0.51871 0.0
H3149 H 0.63769 0.8488 0.39728 0.0
H3150 H 0.6153 0.86175 0.41974 0.0
H3151 H 0.64001 0.88068 0.4068 0.0
H3152 H 0.5677 0.89526 0.47771 0.0
H3153 H 0.624 0.94888 0.4556 0.0
H3154 H 0.61056 0.84675 0.49135 0.0
H3155 H 0.60061 0.84286 0.45927 0.0
H3156 H 0.57766 0.85322 0.4826 0.0
H3157 H 0.67881 0.91172 0.4634 0.0
H3158 H 0.66666 0.93845 0.4468 0.0
H3159 H 0.66892 0.90892 0.43116 0.0
C3160 C 0.65318 0.21007 0.49953 0.0
C3161 C 0.67941 0.20397 0.50087 0.0
C3162 C 0.63425 0.1917 0.50097 0.0
C3163 C 0.64173 0.16664 0.50376 0.0
C3164 C 0.66801 0.16066 0.50736 0.0
C3165 C 0.68652 0.17936 0.5058 0.0
C3166 C 0.60641 0.19892 0.49754 0.0
C3167 C 0.67693 0.13423 0.51051 0.0
C3168 C 0.59214 0.1156 0.51253 0.0
C3169 C 0.58912 0.1073 0.48759 0.0
C3170 C 0.60884 0.13521 0.51825 0.0
C3171 C 0.62298 0.14657 0.49853 0.0
C3172 C 0.6199 0.13826 0.47334 0.0
C3173 C 0.60297 0.1189 0.4682 0.0
C3174 C 0.61091 0.144 0.54525 0.0
C3175 C 0.63468 0.14967 0.45171 0.0
H3176 H 0.64747 0.2291 0.49625 0.0
H3177 H 0.70669 0.17432 0.5067 0.0
H3178 H 0.59986 0.19309 0.4785 0.0
H3179 H 0.5942 0.18941 0.51166 0.0
H3180 H 0.60339 0.21919 0.49931 0.0
H3181 H 0.69614 0.13318 0.51961 0.0
H3182 H 0.66313 0.12337 0.52193 0.0
H3183 H 0.67834 0.12543 0.49159 0.0
H3184 H 0.58125 0.10702 0.52753 0.0
H3185 H 0.60085 0.11262 0.44885 0.0
H3186 H 0.60001 0.16156 0.54736 0.0
H3187 H 0.63117 0.14777 0.55034 0.0
H3188 H 0.60292 0.13038 0.55882 0.0
H3189 H 0.6306 0.1698 0.4507 0.0
H3190 H 0.6298 0.14127 0.43317 0.0
H3191 H 0.65563 0.14736 0.45493 0.0
C3192 C 0.86821 0.6946 0.48152 0.0
C3193 C 0.84362 0.68884 0.47248 0.0
C3194 C 0.8854 0.67601 0.48926 0.0
C3195 C 0.87782 0.65095 0.48817 0.0
C3196 C 0.8531 0.64493 0.47883 0.0
C3197 C 0.83632 0.66396 0.471 0.0
C3198 C 0.91168 0.68323 0.49874 0.0
C3199 C 0.84403 0.6185 0.47779 0.0
C3200 C 0.93173 0.60308 0.4919 0.0
C3201 C 0.93212 0.59765 0.51781 0.0
C3202 C 0.91363 0.61977 0.48176 0.0
C3203 C 0.89548 0.63134 0.49795 0.0
C3204 C 0.89531 0.62538 0.52401 0.0
C3205 C 0.91365 0.60876 0.5336 0.0
C3206 C 0.91439 0.62555 0.45384 0.0
C3207 C 0.87607 0.63698 0.5419 0.0
H3208 H 0.87418 0.71374 0.48219 0.0
H3209 H 0.81732 0.6594 0.46409 0.0
H3210 H 0.91393 0.67752 0.51878 0.0
H3211 H 0.92679 0.67351 0.48768 0.0
H3212 H 0.915 0.70345 0.49741 0.0
H3213 H 0.82703 0.6164 0.46529 0.0
H3214 H 0.85951 0.60595 0.47106 0.0
H3215 H 0.83861 0.61245 0.49711 0.0
H3216 H 0.94593 0.59481 0.47963 0.0
H3217 H 0.91356 0.60455 0.55365 0.0
H3218 H 0.92018 0.64507 0.45106 0.0
H3219 H 0.89501 0.62343 0.44542 0.0
H3220 H 0.92811 0.61343 0.44346 0.0
H3221 H 0.87922 0.65722 0.54288 0.0
H3222 H 0.8775 0.62927 0.56133 0.0
H3223 H 0.85626 0.63409 0.5348 0.0
C3224 C 0.35801 0.84653 0.53186 0.0
C3225 C 0.36431 0.82129 0.53311 0.0
C3226 C 0.3771 0.86472 0.53274 0.0
C3227 C 0.40325 0.8576 0.53484 0.0
C3228 C 0.40978 0.83221 0.53655 0.0
C3229 C 0.39025 0.81436 0.53567 0.0
C3230 C 0.36929 0.8916 0.53098 0.0
C3231 C 0.43743 0.82389 0.53886 0.0
C3232 C 0.45126 0.90545 0.51196 0.0
C3233 C 0.45813 0.91706 0.53466 0.0
C3234 C 0.43412 0.88546 0.51182 0.0
C3235 C 0.42362 0.87688 0.53493 0.0
C3236 C 0.43128 0.88791 0.55797 0.0
C3237 C 0.44847 0.90781 0.55756 0.0
C3238 C 0.42655 0.87414 0.48683 0.0
C3239 C 0.42077 0.87917 0.58304 0.0
H3240 H 0.33814 0.85212 0.5294 0.0
H3241 H 0.39531 0.79494 0.53687 0.0
H3242 H 0.37665 0.90188 0.5476 0.0
H3243 H 0.37794 0.90003 0.51386 0.0
H3244 H 0.34811 0.8941 0.53006 0.0
H3245 H 0.43928 0.80352 0.54083 0.0
H3246 H 0.44836 0.82978 0.52189 0.0
H3247 H 0.44654 0.83276 0.55548 0.0
H3248 H 0.45872 0.91237 0.49419 0.0
H3249 H 0.45391 0.91644 0.57525 0.0
H3250 H 0.40592 0.87795 0.48311 0.0
H3251 H 0.42907 0.85378 0.48747 0.0
H3252 H 0.438 0.88154 0.4708 0.0
H3253 H 0.42811 0.89016 0.5992 0.0
H3254 H 0.42605 0.8595 0.58606 0.0
H3255 H 0.39947 0.88037 0.58299 0.0
C3256 C 0.21362 0.36138 0.51617 0.0
C3257 C 0.2111 0.34909 0.53941 0.0
C3258 C 0.19843 0.38221 0.51039 0.0
C3259 C 0.18042 0.39115 0.52834 0.0
C3260 C 0.17798 0.37905 0.55192 0.0
C3261 C 0.19309 0.35805 0.55705 0.0
C3262 C 0.20164 0.39466 0.48503 0.0
C3263 C 0.15914 0.38803 0.57165 0.0
C3264 C 0.15776 0.45773 0.52096 0.0
C3265 C 0.13432 0.45478 0.50824 0.0
C3266 C 0.17274 0.43718 0.52803 0.0
C3267 C 0.16404 0.41308 0.52232 0.0
C3268 C 0.13993 0.40995 0.51038 0.0
C3269 C 0.12538 0.43083 0.50345 0.0
C3270 C 0.19806 0.44128 0.54127 0.0
C3271 C 0.12971 0.38454 0.50449 0.0
H3272 H 0.22766 0.35487 0.50253 0.0
H3273 H 0.19049 0.34844 0.57485 0.0
H3274 H 0.18311 0.3946 0.47465 0.0
H3275 H 0.20716 0.41425 0.48776 0.0
H3276 H 0.21646 0.38543 0.47313 0.0
H3277 H 0.16273 0.37937 0.59036 0.0
H3278 H 0.16014 0.40839 0.57387 0.0
H3279 H 0.13933 0.38352 0.56557 0.0
H3280 H 0.16472 0.47616 0.52499 0.0
H3281 H 0.10713 0.42835 0.49393 0.0
H3282 H 0.21401 0.43399 0.52944 0.0
H3283 H 0.19849 0.43101 0.55944 0.0
H3284 H 0.20163 0.46114 0.54519 0.0
H3285 H 0.14326 0.37461 0.49179 0.0
H3286 H 0.11053 0.38526 0.4953 0.0
H3287 H 0.12817 0.37357 0.52215 0.0
C3288 C 0.32924 0.16239 0.50887 0.0
C3289 C 0.33931 0.18639 0.50993 0.0
C3290 C 0.34537 0.14171 0.50567 0.0
C3291 C 0.37225 0.14506 0.50357 0.0
C3292 C 0.38222 0.16932 0.50208 0.0
C3293 C 0.36565 0.1897 0.50537 0.0
C3294 C 0.33388 0.11621 0.50708 0.0
C3295 C 0.41068 0.17373 0.49928 0.0
C3296 C 0.41379 0.09884 0.53878 0.0
C3297 C 0.42399 0.08411 0.51929 0.0
C3298 C 0.39699 0.11849 0.53374 0.0
C3299 C 0.38994 0.12377 0.50845 0.0
C3300 C 0.39968 0.10878 0.48859 0.0
C3301 C 0.41659 0.08904 0.49427 0.0
C3302 C 0.38707 0.13382 0.55563 0.0
C3303 C 0.39287 0.11391 0.46135 0.0
H3304 H 0.30897 0.15953 0.51246 0.0
H3305 H 0.37352 0.20819 0.50561 0.0
H3306 H 0.34258 0.10387 0.49264 0.0
H3307 H 0.33799 0.10807 0.52594 0.0
H3308 H 0.31271 0.11664 0.50433 0.0
H3309 H 0.41489 0.1932 0.49414 0.0
H3310 H 0.42045 0.16947 0.51743 0.0
H3311 H 0.41901 0.16136 0.48464 0.0
H3312 H 0.41923 0.09529 0.55824 0.0
H3313 H 0.42418 0.07776 0.47912 0.0
H3314 H 0.36575 0.1338 0.55582 0.0
H3315 H 0.39332 0.15327 0.55344 0.0
H3316 H 0.39402 0.12691 0.57421 0.0
H3317 H 0.37201 0.11775 0.4593 0.0
H3318 H 0.39821 0.09824 0.44878 0.0
H3319 H 0.4033 0.13057 0.45485 0.0
C3320 C 0.84033 0.36528 0.47269 0.0
C3321 C 0.82012 0.35782 0.48859 0.0
C3322 C 0.85665 0.38476 0.47939 0.0
C3323 C 0.85332 0.39671 0.50295 0.0
C3324 C 0.83309 0.38936 0.51917 0.0
C3325 C 0.81654 0.37028 0.51166 0.0
C3326 C 0.87768 0.39239 0.46134 0.0
C3327 C 0.82923 0.40134 0.5447 0.0
C3328 C 0.91159 0.42872 0.53095 0.0
C3329 C 0.90588 0.45371 0.52641 0.0
C3330 C 0.89461 0.41002 0.52351 0.0
C3331 C 0.8715 0.41641 0.51088 0.0
C3332 C 0.8659 0.44155 0.50572 0.0
C3333 C 0.88309 0.4599 0.51364 0.0
C3334 C 0.90115 0.38345 0.52963 0.0
C3335 C 0.84157 0.44908 0.49214 0.0
H3336 H 0.8439 0.35557 0.45512 0.0
H3337 H 0.80084 0.36512 0.52398 0.0
H3338 H 0.87579 0.41236 0.45686 0.0
H3339 H 0.89673 0.38964 0.47034 0.0
H3340 H 0.87725 0.38177 0.44337 0.0
H3341 H 0.81265 0.39347 0.55513 0.0
H3342 H 0.8468 0.39887 0.55635 0.0
H3343 H 0.82605 0.4215 0.54242 0.0
H3344 H 0.92909 0.42375 0.54088 0.0
H3345 H 0.87854 0.47916 0.51002 0.0
H3346 H 0.90238 0.37245 0.51197 0.0
H3347 H 0.8857 0.37529 0.54138 0.0
H3348 H 0.91966 0.38161 0.53994 0.0
H3349 H 0.8246 0.44396 0.50364 0.0
H3350 H 0.84007 0.43903 0.47392 0.0
H3351 H 0.8407 0.46927 0.48841 0.0
C3352 C 0.1861 0.68924 0.55428 0.0
C3353 C 0.21014 0.67775 0.5515 0.0
C3354 C 0.16343 0.67529 0.55437 0.0
C3355 C 0.16497 0.64925 0.55204 0.0
C3356 C 0.18941 0.63749 0.55228 0.0
C3357 C 0.21175 0.65192 0.55158 0.0
C3358 C 0.13792 0.68871 0.55381 0.0
C3359 C 0.1919 0.60976 0.55083 0.0
C3360 C 0.10387 0.61025 0.55173 0.0
C3361 C 0.10065 0.60611 0.52575 0.0
C3362 C 0.1248 0.62409 0.56088 0.0
C3363 C 0.14205 0.63509 0.5435 0.0
C3364 C 0.13781 0.63228 0.51721 0.0
C3365 C 0.11743 0.61774 0.50875 0.0
C3366 C 0.12863 0.62663 0.58904 0.0
C3367 C 0.15526 0.64412 0.49785 0.0
H3368 H 0.18488 0.70926 0.55395 0.0
H3369 H 0.23038 0.64305 0.54946 0.0
H3370 H 0.13074 0.6893 0.53406 0.0
H3371 H 0.12339 0.67895 0.56538 0.0
H3372 H 0.13961 0.708 0.56077 0.0
H3373 H 0.21175 0.60332 0.55501 0.0
H3374 H 0.17848 0.60102 0.56437 0.0
H3375 H 0.18663 0.60338 0.53158 0.0
H3376 H 0.09026 0.60251 0.56491 0.0
H3377 H 0.11505 0.61507 0.48856 0.0
H3378 H 0.12542 0.64612 0.59476 0.0
H3379 H 0.14868 0.62169 0.59423 0.0
H3380 H 0.11527 0.61476 0.59996 0.0
H3381 H 0.1568 0.66425 0.50147 0.0
H3382 H 0.14831 0.64144 0.47818 0.0
H3383 H 0.17486 0.63606 0.49933 0.0
loop_
_geom_bond_atom_site_label_1
_geom_bond_atom_site_label_2
_geom_bond_distance
_geom_bond_site_symmetry_2
_ccdc_geom_bond_type
P0 O11 1.490 1_455 S
P0 C14 1.812 . S
P0 C20 1.803 . S
P0 C26 1.819 . S
H1 C15 0.941 1_655 S
H2 C16 0.939 . S
H3 C18 0.940 . S
H4 C19 0.940 . S
H5 C21 0.939 1_655 S
H6 C22 0.940 . S
H7 C24 0.940 . S
H8 C25 0.939 . S
H9 C27 0.941 1_655 S
H10 C31 0.939 . S
O11 P0 1.490 1_655 S
H12 C28 0.939 . S
H13 C30 0.940 . S
C14 P0 1.812 . S
C14 C15 1.389 . S
C14 C19 1.391 . S
C15 H1 0.941 1_455 S
C15 C14 1.389 . S
C15 C16 1.397 . S
C16 H2 0.939 . S
C16 C15 1.397 . S
C16 C17 1.378 . S
C17 C16 1.378 . S
C17 C18 1.378 . S
C18 H3 0.940 . S
C18 C17 1.378 . S
C18 C19 1.396 . S
C19 H4 0.940 . S
C19 C14 1.391 . S
C19 C18 1.396 . S
C20 P0 1.803 . S
C20 C21 1.378 . S
C20 C25 1.400 . S
C21 H5 0.939 1_455 S
C21 C20 1.378 . S
C21 C22 1.361 . S
C22 H6 0.940 . S
C22 C21 1.361 . S
C22 C23 1.369 . S
C23 C22 1.369 . S
C23 C24 1.404 . S
C24 H7 0.940 . S
C24 C23 1.404 . S
C24 C25 1.389 . S
C25 H8 0.939 . S
C25 C20 1.400 . S
C25 C24 1.389 . S
C26 P0 1.819 . S
C26 C27 1.391 . S
C26 C31 1.391 . S
C27 H9 0.941 1_455 S
C27 C26 1.391 . S
C27 C28 1.396 . S
C28 H12 0.939 . S
C28 C27 1.396 . S
C28 C29 1.397 . S
C29 C28 1.397 . S
C29 C30 1.385 . S
C30 H13 0.940 . S
C30 C29 1.385 . S
C30 C31 1.388 . S
C31 H10 0.939 . S
C31 C26 1.391 . S
C31 C30 1.388 . S
P32 O43 1.490 1_545 S
P32 C46 1.812 . S
P32 C52 1.803 . S
P32 C58 1.819 . S
H33 C47 0.941 1_565 S
H34 C48 0.939 . S
H35 C50 0.940 . S
H36 C51 0.940 . S
H37 C53 0.939 1_565 S
H38 C54 0.943 1_565 S
H39 C56 0.940 . S
H40 C57 0.939 . S
H41 C59 0.941 1_565 S
H42 C63 0.939 . S
O43 P32 1.490 1_565 S
H44 C60 0.939 . S
H45 C62 0.940 . S
C46 P32 1.812 . S
C46 C47 1.389 . S
C46 C51 1.391 . S
C47 H33 0.941 1_545 S
C47 C46 1.389 . S
C47 C48 1.397 . S
C48 H34 0.939 . S
C48 C47 1.397 . S
C48 C49 1.378 . S
C49 C48 1.378 . S
C49 C50 1.378 . S
C50 H35 0.940 . S
C50 C49 1.378 . S
C50 C51 1.396 . S
C51 H36 0.940 . S
C51 C46 1.391 . S
C51 C50 1.396 . S
C52 P32 1.803 . S
C52 C53 1.378 . S
C52 C57 1.400 . S
C53 H37 0.939 1_545 S
C53 C52 1.378 . S
C53 C54 1.361 . S
C54 H38 0.943 1_545 S
C54 C53 1.361 . S
C54 C55 1.369 . S
C55 C54 1.369 . S
C55 C56 1.404 . S
C56 H39 0.940 . S
C56 C55 1.404 . S
C56 C57 1.389 . S
C57 H40 0.939 . S
C57 C52 1.400 . S
C57 C56 1.389 . S
C58 P32 1.819 . S
C58 C59 1.391 . S
C58 C63 1.391 . S
C59 H41 0.941 1_545 S
C59 C58 1.391 . S
C59 C60 1.396 . S
C60 H44 0.939 . S
C60 C59 1.396 . S
C60 C61 1.397 . S
C61 C60 1.397 . S
C61 C62 1.385 . S
C62 H45 0.940 . S
C62 C61 1.385 . S
C62 C63 1.388 . S
C63 H42 0.939 . S
C63 C58 1.391 . S
C63 C62 1.388 . S
P64 O75 1.490 . S
P64 C78 1.812 . S
P64 C84 1.803 . S
P64 C90 1.819 . S
H65 C79 0.941 . S
H66 C80 0.939 . S
H67 C82 0.940 1_655 S
H68 C83 0.940 . S
H69 C85 0.939 . S
H70 C86 0.942 . S
H71 C88 0.940 1_655 S
H72 C89 0.939 . S
H73 C91 0.941 . S
H74 C95 0.939 . S
O75 P64 1.490 . S
H76 C92 0.939 . S
H77 C94 0.940 . S
C78 P64 1.812 . S
C78 C79 1.389 . S
C78 C83 1.391 . S
C79 H65 0.941 . S
C79 C78 1.389 . S
C79 C80 1.397 . S
C80 H66 0.939 . S
C80 C79 1.397 . S
C80 C81 1.378 . S
C81 C80 1.378 . S
C81 C82 1.378 . S
C82 H67 0.940 1_455 S
C82 C81 1.378 . S
C82 C83 1.396 . S
C83 H68 0.940 . S
C83 C78 1.391 . S
C83 C82 1.396 . S
C84 P64 1.803 . S
C84 C85 1.378 . S
C84 C89 1.400 . S
C85 H69 0.939 . S
C85 C84 1.378 . S
C85 C86 1.361 . S
C86 H70 0.942 . S
C86 C85 1.361 . S
C86 C87 1.369 . S
C87 C86 1.369 . S
C87 C88 1.404 . S
C88 H71 0.940 1_455 S
C88 C87 1.404 . S
C88 C89 1.389 . S
C89 H72 0.939 . S
C89 C84 1.400 . S
C89 C88 1.389 . S
C90 P64 1.819 . S
C90 C91 1.391 . S
C90 C95 1.391 . S
C91 H73 0.941 . S
C91 C90 1.391 . S
C91 C92 1.396 . S
C92 H76 0.939 . S
C92 C91 1.396 . S
C92 C93 1.397 . S
C93 C92 1.397 . S
C93 C94 1.385 . S
C94 H77 0.940 . S
C94 C93 1.385 . S
C94 C95 1.388 . S
C95 H74 0.939 . S
C95 C90 1.391 . S
C95 C94 1.388 . S
P96 O107 1.490 . S
P96 C110 1.812 . S
P96 C116 1.803 . S
P96 C122 1.819 . S
H97 C111 0.941 . S
H98 C112 0.939 . S
H99 C114 0.940 . S
H100 C115 0.940 . S
H101 C117 0.939 . S
H102 C118 0.942 . S
H103 C120 0.940 . S
H104 C121 0.939 . S
H105 C123 0.941 . S
H106 C127 0.939 1_545 S
O107 P96 1.490 . S
H108 C124 0.939 . S
H109 C126 0.940 . S
C110 P96 1.812 . S
C110 C111 1.389 . S
C110 C115 1.391 1_565 S
C111 H97 0.941 . S
C111 C110 1.389 . S
C111 C112 1.397 . S
C112 H98 0.939 . S
C112 C111 1.397 . S
C112 C113 1.378 . S
C113 C112 1.378 . S
C113 C114 1.378 1_565 S
C114 H99 0.940 . S
C114 C113 1.378 1_545 S
C114 C115 1.396 . S
C115 H100 0.940 . S
C115 C110 1.391 1_545 S
C115 C114 1.396 . S
C116 P96 1.803 . S
C116 C117 1.378 . S
C116 C121 1.400 1_565 S
C117 H101 0.939 . S
C117 C116 1.378 . S
C117 C118 1.361 . S
C118 H102 0.942 . S
C118 C117 1.361 . S
C118 C119 1.369 . S
C119 C118 1.369 . S
C119 C120 1.404 1_565 S
C120 H103 0.940 . S
C120 C119 1.404 1_545 S
C120 C121 1.389 . S
C121 H104 0.939 . S
C121 C116 1.400 1_545 S
C121 C120 1.389 . S
C122 P96 1.819 . S
C122 C123 1.391 . S
C122 C127 1.391 . S
C123 H105 0.941 . S
C123 C122 1.391 . S
C123 C124 1.396 . S
C124 H108 0.939 . S
C124 C123 1.396 . S
C124 C125 1.397 . S
C125 C124 1.397 . S
C125 C126 1.385 1_565 S
C126 H109 0.940 . S
C126 C125 1.385 1_545 S
C126 C127 1.388 1_545 S
C127 H106 0.939 1_565 S
C127 C122 1.391 . S
C127 C126 1.388 1_565 S
P128 O139 1.490 . S
P128 C142 1.812 . S
P128 C148 1.803 . S
P128 C154 1.819 . S
H129 C143 0.941 . S
H130 C144 0.939 . S
H131 C146 0.940 . S
H132 C147 0.953 . S
H133 C149 0.939 . S
H134 C150 0.942 . S
H135 C152 0.940 . S
H136 C153 0.939 . S
H137 C155 0.941 . S
H138 C159 0.924 1_455 S
O139 P128 1.490 . S
H140 C156 0.939 . S
H141 C158 0.940 . S
C142 P128 1.812 . S
C142 C143 1.389 . S
C142 C147 1.371 1_655 S
C143 H129 0.941 . S
C143 C142 1.389 . S
C143 C144 1.397 . S
C144 H130 0.939 . S
C144 C143 1.397 . S
C144 C145 1.378 . S
C145 C144 1.378 . S
C145 C146 1.378 1_655 S
C146 H131 0.940 . S
C146 C145 1.378 1_455 S
C146 C147 1.404 . S
C147 H132 0.953 . S
C147 C142 1.371 1_455 S
C147 C146 1.404 . S
C148 P128 1.803 . S
C148 C149 1.378 . S
C148 C153 1.400 1_655 S
C149 H133 0.939 . S
C149 C148 1.378 . S
C149 C150 1.361 . S
C150 H134 0.942 . S
C150 C149 1.361 . S
C150 C151 1.369 . S
C151 C150 1.369 . S
C151 C152 1.404 1_655 S
C152 H135 0.940 . S
C152 C151 1.404 1_455 S
C152 C153 1.389 . S
C153 H136 0.939 . S
C153 C148 1.400 1_455 S
C153 C152 1.389 . S
C154 P128 1.819 . S
C154 C155 1.391 . S
C154 C159 1.391 . S
C155 H137 0.941 . S
C155 C154 1.391 . S
C155 C156 1.396 . S
C156 H140 0.939 . S
C156 C155 1.396 . S
C156 C157 1.397 . S
C157 C156 1.397 . S
C157 C158 1.385 1_655 S
C158 H141 0.940 . S
C158 C157 1.385 1_455 S
C158 C159 1.388 1_455 S
C159 H138 0.924 1_655 S
C159 C154 1.391 . S
C159 C158 1.388 1_655 S
P160 O171 1.490 . S
P160 C174 1.812 . S
P160 C180 1.803 . S
P160 C186 1.819 . S
H161 C175 0.941 . S
H162 C176 0.939 . S
H163 C178 0.940 . S
H164 C179 0.940 . S
H165 C181 0.939 . S
H166 C182 0.942 . S
H167 C184 0.940 . S
H168 C185 0.939 . S
H169 C187 0.941 . S
H170 C191 0.939 . S
O171 P160 1.490 . S
H172 C188 0.939 . S
H173 C190 0.940 . S
C174 P160 1.812 . S
C174 C175 1.389 . S
C174 C179 1.391 1_565 S
C175 H161 0.941 . S
C175 C174 1.389 . S
C175 C176 1.397 . S
C176 H162 0.939 . S
C176 C175 1.397 . S
C176 C177 1.378 1_565 S
C177 C176 1.378 1_545 S
C177 C178 1.378 . S
C178 H163 0.940 . S
C178 C177 1.378 . S
C178 C179 1.396 . S
C179 H164 0.940 . S
C179 C174 1.391 1_545 S
C179 C178 1.396 . S
C180 P160 1.803 . S
C180 C181 1.378 . S
C180 C185 1.400 1_565 S
C181 H165 0.939 . S
C181 C180 1.378 . S
C181 C182 1.361 . S
C182 H166 0.942 . S
C182 C181 1.361 . S
C182 C183 1.369 1_565 S
C183 C182 1.369 1_545 S
C183 C184 1.404 . S
C184 H167 0.940 . S
C184 C183 1.404 . S
C184 C185 1.389 . S
C185 H168 0.939 . S
C185 C180 1.400 1_545 S
C185 C184 1.389 . S
C186 P160 1.819 . S
C186 C187 1.391 . S
C186 C191 1.391 1_565 S
C187 H169 0.941 . S
C187 C186 1.391 . S
C187 C188 1.396 . S
C188 H172 0.939 . S
C188 C187 1.396 . S
C188 C189 1.397 1_565 S
C189 C188 1.397 1_545 S
C189 C190 1.385 . S
C190 H173 0.940 . S
C190 C189 1.385 . S
C190 C191 1.388 . S
C191 H170 0.939 . S
C191 C186 1.391 1_545 S
C191 C190 1.388 . S
P192 O203 1.490 . S
P192 C206 1.812 . S
P192 C212 1.803 . S
P192 C218 1.819 . S
H193 C207 0.941 . S
H194 C208 0.939 . S
H195 C210 0.940 1_655 S
H196 C211 0.940 . S
H197 C213 0.939 . S
H198 C214 0.942 . S
H199 C216 0.940 1_655 S
H200 C217 0.939 . S
H201 C219 0.941 . S
H202 C223 0.939 . S
O203 P192 1.490 . S
H204 C220 0.939 . S
H205 C222 0.940 . S
C206 P192 1.812 . S
C206 C207 1.389 . S
C206 C211 1.391 . S
C207 H193 0.941 . S
C207 C206 1.389 . S
C207 C208 1.397 . S
C208 H194 0.939 . S
C208 C207 1.397 . S
C208 C209 1.378 . S
C209 C208 1.378 . S
C209 C210 1.378 . S
C210 H195 0.940 1_455 S
C210 C209 1.378 . S
C210 C211 1.396 . S
C211 H196 0.940 . S
C211 C206 1.391 . S
C211 C210 1.396 . S
C212 P192 1.803 . S
C212 C213 1.378 . S
C212 C217 1.400 . S
C213 H197 0.939 . S
C213 C212 1.378 . S
C213 C214 1.361 . S
C214 H198 0.942 . S
C214 C213 1.361 . S
C214 C215 1.369 . S
C215 C214 1.369 . S
C215 C216 1.404 . S
C216 H199 0.940 1_455 S
C216 C215 1.404 . S
C216 C217 1.389 . S
C217 H200 0.939 . S
C217 C212 1.400 . S
C217 C216 1.389 . S
C218 P192 1.819 . S
C218 C219 1.391 . S
C218 C223 1.391 . S
C219 H201 0.941 . S
C219 C218 1.391 . S
C219 C220 1.396 . S
C220 H204 0.939 . S
C220 C219 1.396 . S
C220 C221 1.397 . S
C221 C220 1.397 . S
C221 C222 1.385 . S
C222 H205 0.940 . S
C222 C221 1.385 . S
C222 C223 1.388 . S
C223 H202 0.939 . S
C223 C218 1.391 . S
C223 C222 1.388 . S
P224 O235 1.490 . S
P224 C238 1.812 . S
P224 C244 1.803 . S
P224 C250 1.819 . S
H225 C239 0.941 . S
H226 C240 0.939 . S
H227 C242 0.940 . S
H228 C243 0.940 . S
H229 C245 0.939 . S
H230 C246 0.942 . S
H231 C248 0.940 . S
H232 C249 0.939 . S
H233 C251 0.941 . S
H234 C255 0.939 . S
O235 P224 1.490 . S
H236 C252 0.939 . S
H237 C254 0.940 . S
C238 P224 1.812 . S
C238 C239 1.389 . S
C238 C243 1.391 . S
C239 H225 0.941 . S
C239 C238 1.389 . S
C239 C240 1.397 . S
C240 H226 0.939 . S
C240 C239 1.397 . S
C240 C241 1.378 . S
C241 C240 1.378 . S
C241 C242 1.378 . S
C242 H227 0.940 . S
C242 C241 1.378 . S
C242 C243 1.396 . S
C243 H228 0.940 . S
C243 C238 1.391 . S
C243 C242 1.396 . S
C244 P224 1.803 . S
C244 C245 1.378 . S
C244 C249 1.400 . S
C245 H229 0.939 . S
C245 C244 1.378 . S
C245 C246 1.361 . S
C246 H230 0.942 . S
C246 C245 1.361 . S
C246 C247 1.369 . S
C247 C246 1.369 . S
C247 C248 1.404 . S
C248 H231 0.940 . S
C248 C247 1.404 . S
C248 C249 1.389 . S
C249 H232 0.939 . S
C249 C244 1.400 . S
C249 C248 1.389 . S
C250 P224 1.819 . S
C250 C251 1.391 . S
C250 C255 1.391 . S
C251 H233 0.941 . S
C251 C250 1.391 . S
C251 C252 1.396 . S
C252 H236 0.939 . S
C252 C251 1.396 . S
C252 C253 1.397 . S
C253 C252 1.397 . S
C253 C254 1.385 . S
C254 H237 0.940 . S
C254 C253 1.385 . S
C254 C255 1.388 . S
C255 H234 0.939 . S
C255 C250 1.391 . S
C255 C254 1.388 . S
P256 O267 1.490 . S
P256 C270 1.812 . S
P256 C276 1.803 . S
P256 C282 1.819 . S
H257 C271 0.941 . S
H258 C272 0.939 . S
H259 C274 0.940 . S
H260 C275 0.940 . S
H261 C277 0.939 . S
H262 C278 0.942 . S
H263 C280 0.940 . S
H264 C281 0.939 . S
H265 C283 0.941 . S
H266 C287 0.939 . S
O267 P256 1.490 . S
H268 C284 0.939 . S
H269 C286 0.940 . S
C270 P256 1.812 . S
C270 C271 1.389 . S
C270 C275 1.391 1_556 S
C271 H257 0.941 . S
C271 C270 1.389 . S
C271 C272 1.397 . S
C272 H258 0.939 . S
C272 C271 1.397 . S
C272 C273 1.378 1_556 S
C273 C272 1.378 1_554 S
C273 C274 1.378 . S
C274 H259 0.940 . S
C274 C273 1.378 . S
C274 C275 1.396 . S
C275 H260 0.940 . S
C275 C270 1.391 1_554 S
C275 C274 1.396 . S
C276 P256 1.803 . S
C276 C277 1.378 . S
C276 C281 1.400 1_556 S
C277 H261 0.939 . S
C277 C276 1.378 . S
C277 C278 1.361 . S
C278 H262 0.942 . S
C278 C277 1.361 . S
C278 C279 1.369 1_556 S
C279 C278 1.369 1_554 S
C279 C280 1.404 . S
C280 H263 0.940 . S
C280 C279 1.404 . S
C280 C281 1.389 . S
C281 H264 0.939 . S
C281 C276 1.400 1_554 S
C281 C280 1.389 . S
C282 P256 1.819 . S
C282 C283 1.391 . S
C282 C287 1.391 1_556 S
C283 H265 0.941 . S
C283 C282 1.391 . S
C283 C284 1.396 . S
C284 H268 0.939 . S
C284 C283 1.396 . S
C284 C285 1.397 1_556 S
C285 C284 1.397 1_554 S
C285 C286 1.385 . S
C286 H269 0.940 . S
C286 C285 1.385 . S
C286 C287 1.388 . S
C287 H266 0.939 . S
C287 C282 1.391 1_554 S
C287 C286 1.388 . S
P288 O299 1.490 . S
P288 C302 1.812 . S
P288 C308 1.803 . S
P288 C314 1.819 . S
H289 C303 0.941 . S
H290 C304 0.939 . S
H291 C306 0.940 . S
H292 C307 0.940 . S
H293 C309 0.939 . S
H294 C310 0.942 . S
H295 C312 0.940 . S
H296 C313 0.939 . S
H297 C315 0.941 . S
H298 C319 0.939 . S
O299 P288 1.490 . S
H300 C316 0.939 . S
H301 C318 0.940 . S
C302 P288 1.812 . S
C302 C303 1.389 . S
C302 C307 1.391 1_556 S
C303 H289 0.941 . S
C303 C302 1.389 . S
C303 C304 1.397 . S
C304 H290 0.939 . S
C304 C303 1.397 . S
C304 C305 1.378 1_556 S
C305 C304 1.378 1_554 S
C305 C306 1.378 . S
C306 H291 0.940 . S
C306 C305 1.378 . S
C306 C307 1.396 . S
C307 H292 0.940 . S
C307 C302 1.391 1_554 S
C307 C306 1.396 . S
C308 P288 1.803 . S
C308 C309 1.378 . S
C308 C313 1.400 1_556 S
C309 H293 0.939 . S
C309 C308 1.378 . S
C309 C310 1.361 . S
C310 H294 0.942 . S
C310 C309 1.361 . S
C310 C311 1.369 1_556 S
C311 C310 1.369 1_554 S
C311 C312 1.404 . S
C312 H295 0.940 . S
C312 C311 1.404 . S
C312 C313 1.389 . S
C313 H296 0.939 . S
C313 C308 1.400 1_554 S
C313 C312 1.389 . S
C314 P288 1.819 . S
C314 C315 1.391 . S
C314 C319 1.391 1_556 S
C315 H297 0.941 . S
C315 C314 1.391 . S
C315 C316 1.396 . S
C316 H300 0.939 . S
C316 C315 1.396 . S
C316 C317 1.397 1_556 S
C317 C316 1.397 1_554 S
C317 C318 1.385 . S
C318 H301 0.940 . S
C318 C317 1.385 . S
C318 C319 1.388 . S
C319 H298 0.939 . S
C319 C314 1.391 1_554 S
C319 C318 1.388 . S
P320 O331 1.490 . S
P320 C334 1.812 . S
P320 C340 1.803 . S
P320 C346 1.819 . S
H321 C335 0.941 . S
H322 C336 0.939 . S
H323 C338 0.940 . S
H324 C339 0.940 . S
H325 C341 0.939 . S
H326 C342 0.942 . S
H327 C344 0.940 . S
H328 C345 0.939 . S
H329 C347 0.941 . S
H330 C351 0.939 1_554 S
O331 P320 1.490 . S
H332 C348 0.939 . S
H333 C350 0.940 . S
C334 P320 1.812 . S
C334 C335 1.389 . S
C334 C339 1.391 1_556 S
C335 H321 0.941 . S
C335 C334 1.389 . S
C335 C336 1.397 . S
C336 H322 0.939 . S
C336 C335 1.397 . S
C336 C337 1.378 . S
C337 C336 1.378 . S
C337 C338 1.378 1_556 S
C338 H323 0.940 . S
C338 C337 1.378 1_554 S
C338 C339 1.396 . S
C339 H324 0.940 . S
C339 C334 1.391 1_554 S
C339 C338 1.396 . S
C340 P320 1.803 . S
C340 C341 1.378 . S
C340 C345 1.400 1_556 S
C341 H325 0.939 . S
C341 C340 1.378 . S
C341 C342 1.361 . S
C342 H326 0.942 . S
C342 C341 1.361 . S
C342 C343 1.369 . S
C343 C342 1.369 . S
C343 C344 1.404 1_556 S
C344 H327 0.940 . S
C344 C343 1.404 1_554 S
C344 C345 1.389 . S
C345 H328 0.939 . S
C345 C340 1.400 1_554 S
C345 C344 1.389 . S
C346 P320 1.819 . S
C346 C347 1.391 . S
C346 C351 1.391 . S
C347 H329 0.941 . S
C347 C346 1.391 . S
C347 C348 1.396 . S
C348 H332 0.939 . S
C348 C347 1.396 . S
C348 C349 1.397 . S
C349 C348 1.397 . S
C349 C350 1.385 1_556 S
C350 H333 0.940 . S
C350 C349 1.385 1_554 S
C350 C351 1.388 1_554 S
C351 H330 0.939 1_556 S
C351 C346 1.391 . S
C351 C350 1.388 1_556 S
P352 O363 1.490 . S
P352 C366 1.812 . S
P352 C372 1.803 . S
P352 C378 1.819 . S
H353 C367 0.941 . S
H354 C368 0.939 . S
H355 C370 0.940 . S
H356 C371 0.940 1_556 S
H357 C373 0.939 . S
H358 C374 0.942 . S
H359 C376 0.940 . S
H360 C377 0.939 1_556 S
H361 C379 0.941 . S
H362 C383 0.939 . S
O363 P352 1.490 . S
H364 C380 0.939 . S
H365 C382 0.909 1_556 S
C366 P352 1.812 . S
C366 C367 1.389 . S
C366 C371 1.391 . S
C367 H353 0.941 . S
C367 C366 1.389 . S
C367 C368 1.397 . S
C368 H354 0.939 . S
C368 C367 1.397 . S
C368 C369 1.378 . S
C369 C368 1.378 . S
C369 C370 1.378 1_554 S
C370 H355 0.940 . S
C370 C369 1.378 1_556 S
C370 C371 1.396 1_556 S
C371 H356 0.940 1_554 S
C371 C366 1.391 . S
C371 C370 1.396 1_554 S
C372 P352 1.803 . S
C372 C373 1.378 . S
C372 C377 1.400 . S
C373 H357 0.939 . S
C373 C372 1.378 . S
C373 C374 1.361 . S
C374 H358 0.942 . S
C374 C373 1.361 . S
C374 C375 1.369 . S
C375 C374 1.369 . S
C375 C376 1.404 1_554 S
C376 H359 0.940 . S
C376 C375 1.404 1_556 S
C376 C377 1.389 1_556 S
C377 H360 0.939 1_554 S
C377 C372 1.400 . S
C377 C376 1.389 1_554 S
C378 P352 1.819 . S
C378 C379 1.391 . S
C378 C383 1.391 . S
C379 H361 0.941 . S
C379 C378 1.391 . S
C379 C380 1.396 . S
C380 H364 0.939 . S
C380 C379 1.396 . S
C380 C381 1.397 . S
C381 C380 1.397 . S
C381 C382 1.401 . S
C382 H365 0.909 1_554 S
C382 C381 1.401 . S
C382 C383 1.404 . S
C383 H362 0.939 . S
C383 C378 1.391 . S
C383 C382 1.404 . S
P384 O395 1.490 . S
P384 C398 1.812 . S
P384 C404 1.803 . S
P384 C410 1.819 . S
H385 C399 0.941 . S
H386 C400 0.939 . S
H387 C402 0.940 . S
H388 C403 0.940 . S
H389 C405 0.939 . S
H390 C406 0.942 . S
H391 C408 0.940 . S
H392 C409 0.939 . S
H393 C411 0.941 . S
H394 C415 0.939 . S
O395 P384 1.490 . S
H396 C412 0.939 . S
H397 C414 0.940 . S
C398 P384 1.812 . S
C398 C399 1.389 . S
C398 C403 1.391 . S
C399 H385 0.941 . S
C399 C398 1.389 . S
C399 C400 1.397 . S
C400 H386 0.939 . S
C400 C399 1.397 . S
C400 C401 1.378 . S
C401 C400 1.378 . S
C401 C402 1.378 . S
C402 H387 0.940 . S
C402 C401 1.378 . S
C402 C403 1.396 . S
C403 H388 0.940 . S
C403 C398 1.391 . S
C403 C402 1.396 . S
C404 P384 1.803 . S
C404 C405 1.378 . S
C404 C409 1.400 . S
C405 H389 0.939 . S
C405 C404 1.378 . S
C405 C406 1.361 . S
C406 H390 0.942 . S
C406 C405 1.361 . S
C406 C407 1.369 . S
C407 C406 1.369 . S
C407 C408 1.404 . S
C408 H391 0.940 . S
C408 C407 1.404 . S
C408 C409 1.389 . S
C409 H392 0.939 . S
C409 C404 1.400 . S
C409 C408 1.389 . S
C410 P384 1.819 . S
C410 C411 1.391 . S
C410 C415 1.391 . S
C411 H393 0.941 . S
C411 C410 1.391 . S
C411 C412 1.396 . S
C412 H396 0.939 . S
C412 C411 1.396 . S
C412 C413 1.397 . S
C413 C412 1.397 . S
C413 C414 1.385 . S
C414 H397 0.940 . S
C414 C413 1.385 . S
C414 C415 1.388 . S
C415 H394 0.939 . S
C415 C410 1.391 . S
C415 C414 1.388 . S
P416 O427 1.490 . S
P416 C430 1.812 . S
P416 C436 1.803 . S
P416 C442 1.819 . S
H417 C431 0.941 . S
H418 C432 0.939 . S
H419 C434 0.940 . S
H420 C435 0.940 . S
H421 C437 0.939 . S
H422 C438 0.942 . S
H423 C440 0.940 . S
H424 C441 0.939 . S
H425 C443 0.941 . S
H426 C447 0.939 . S
O427 P416 1.490 . S
H428 C444 0.939 . S
H429 C446 0.940 . S
C430 P416 1.812 . S
C430 C431 1.389 . S
C430 C435 1.391 . S
C431 H417 0.941 . S
C431 C430 1.389 . S
C431 C432 1.397 . S
C432 H418 0.939 . S
C432 C431 1.397 . S
C432 C433 1.378 . S
C433 C432 1.378 . S
C433 C434 1.378 . S
C434 H419 0.940 . S
C434 C433 1.378 . S
C434 C435 1.396 . S
C435 H420 0.940 . S
C435 C430 1.391 . S
C435 C434 1.396 . S
C436 P416 1.803 . S
C436 C437 1.378 . S
C436 C441 1.400 . S
C437 H421 0.939 . S
C437 C436 1.378 . S
C437 C438 1.361 . S
C438 H422 0.942 . S
C438 C437 1.361 . S
C438 C439 1.369 . S
C439 C438 1.369 . S
C439 C440 1.404 . S
C440 H423 0.940 . S
C440 C439 1.404 . S
C440 C441 1.389 . S
C441 H424 0.939 . S
C441 C436 1.400 . S
C441 C440 1.389 . S
C442 P416 1.819 . S
C442 C443 1.391 . S
C442 C447 1.391 . S
C443 H425 0.941 . S
C443 C442 1.391 . S
C443 C444 1.396 . S
C444 H428 0.939 . S
C444 C443 1.396 . S
C444 C445 1.397 . S
C445 C444 1.397 . S
C445 C446 1.385 . S
C446 H429 0.940 . S
C446 C445 1.385 . S
C446 C447 1.388 . S
C447 H426 0.939 . S
C447 C442 1.391 . S
C447 C446 1.388 . S
P448 O459 1.490 . S
P448 C462 1.812 . S
P448 C468 1.803 . S
P448 C474 1.819 . S
H449 C463 0.941 . S
H450 C464 0.939 . S
H451 C466 0.940 . S
H452 C467 0.940 . S
H453 C469 0.939 . S
H454 C470 0.942 . S
H455 C472 0.940 . S
H456 C473 0.939 . S
H457 C475 0.941 . S
H458 C479 0.939 . S
O459 P448 1.490 . S
H460 C476 0.939 . S
H461 C478 0.940 . S
C462 P448 1.812 . S
C462 C463 1.389 . S
C462 C467 1.391 . S
C463 H449 0.941 . S
C463 C462 1.389 . S
C463 C464 1.397 . S
C464 H450 0.939 . S
C464 C463 1.397 . S
C464 C465 1.378 . S
C465 C464 1.378 . S
C465 C466 1.378 . S
C466 H451 0.940 . S
C466 C465 1.378 . S
C466 C467 1.396 . S
C467 H452 0.940 . S
C467 C462 1.391 . S
C467 C466 1.396 . S
C468 P448 1.803 . S
C468 C469 1.378 . S
C468 C473 1.400 . S
C469 H453 0.939 . S
C469 C468 1.378 . S
C469 C470 1.361 . S
C470 H454 0.942 . S
C470 C469 1.361 . S
C470 C471 1.369 . S
C471 C470 1.369 . S
C471 C472 1.404 . S
C472 H455 0.940 . S
C472 C471 1.404 . S
C472 C473 1.389 . S
C473 H456 0.939 . S
C473 C468 1.400 . S
C473 C472 1.389 . S
C474 P448 1.819 . S
C474 C475 1.391 . S
C474 C479 1.391 . S
C475 H457 0.941 . S
C475 C474 1.391 . S
C475 C476 1.396 . S
C476 H460 0.939 . S
C476 C475 1.396 . S
C476 C477 1.397 . S
C477 C476 1.397 . S
C477 C478 1.385 . S
C478 H461 0.940 . S
C478 C477 1.385 . S
C478 C479 1.388 . S
C479 H458 0.939 . S
C479 C474 1.391 . S
C479 C478 1.388 . S
P480 O491 1.490 . S
P480 C494 1.812 . S
P480 C500 1.803 . S
P480 C506 1.819 . S
H481 C495 0.941 . S
H482 C496 0.939 . S
H483 C498 0.940 . S
H484 C499 0.940 . S
H485 C501 0.939 . S
H486 C502 0.942 . S
H487 C504 0.940 . S
H488 C505 0.939 . S
H489 C507 0.941 . S
H490 C511 0.939 . S
O491 P480 1.490 . S
H492 C508 0.939 . S
H493 C510 0.940 . S
C494 P480 1.812 . S
C494 C495 1.389 . S
C494 C499 1.391 . S
C495 H481 0.941 . S
C495 C494 1.389 . S
C495 C496 1.397 . S
C496 H482 0.939 . S
C496 C495 1.397 . S
C496 C497 1.378 . S
C497 C496 1.378 . S
C497 C498 1.378 . S
C498 H483 0.940 . S
C498 C497 1.378 . S
C498 C499 1.396 . S
C499 H484 0.940 . S
C499 C494 1.391 . S
C499 C498 1.396 . S
C500 P480 1.803 . S
C500 C501 1.378 . S
C500 C505 1.400 . S
C501 H485 0.939 . S
C501 C500 1.378 . S
C501 C502 1.361 . S
C502 H486 0.942 . S
C502 C501 1.361 . S
C502 C503 1.369 . S
C503 C502 1.369 . S
C503 C504 1.404 . S
C504 H487 0.940 . S
C504 C503 1.404 . S
C504 C505 1.389 . S
C505 H488 0.939 . S
C505 C500 1.400 . S
C505 C504 1.389 . S
C506 P480 1.819 . S
C506 C507 1.391 . S
C506 C511 1.391 . S
C507 H489 0.941 . S
C507 C506 1.391 . S
C507 C508 1.396 . S
C508 H492 0.939 . S
C508 C507 1.396 . S
C508 C509 1.397 . S
C509 C508 1.397 . S
C509 C510 1.385 . S
C510 H493 0.940 . S
C510 C509 1.385 . S
C510 C511 1.388 . S
C511 H490 0.939 . S
C511 C506 1.391 . S
C511 C510 1.388 . S
P512 O523 1.490 . S
P512 C526 1.812 . S
P512 C532 1.803 . S
P512 C538 1.819 . S
H513 C527 0.941 . S
H514 C528 0.939 . S
H515 C530 0.940 . S
H516 C531 0.940 . S
H517 C533 0.939 . S
H518 C534 0.942 . S
H519 C536 0.940 . S
H520 C537 0.939 . S
H521 C539 0.941 . S
H522 C543 0.939 . S
O523 P512 1.490 . S
H524 C540 0.939 . S
H525 C542 0.940 . S
C526 P512 1.812 . S
C526 C527 1.389 . S
C526 C531 1.391 . S
C527 H513 0.941 . S
C527 C526 1.389 . S
C527 C528 1.397 . S
C528 H514 0.939 . S
C528 C527 1.397 . S
C528 C529 1.378 . S
C529 C528 1.378 . S
C529 C530 1.378 . S
C530 H515 0.940 . S
C530 C529 1.378 . S
C530 C531 1.396 . S
C531 H516 0.940 . S
C531 C526 1.391 . S
C531 C530 1.396 . S
C532 P512 1.803 . S
C532 C533 1.378 . S
C532 C537 1.400 . S
C533 H517 0.939 . S
C533 C532 1.378 . S
C533 C534 1.361 . S
C534 H518 0.942 . S
C534 C533 1.361 . S
C534 C535 1.369 . S
C535 C534 1.369 . S
C535 C536 1.404 . S
C536 H519 0.940 . S
C536 C535 1.404 . S
C536 C537 1.389 . S
C537 H520 0.939 . S
C537 C532 1.400 . S
C537 C536 1.389 . S
C538 P512 1.819 . S
C538 C539 1.391 . S
C538 C543 1.391 . S
C539 H521 0.941 . S
C539 C538 1.391 . S
C539 C540 1.396 . S
C540 H524 0.939 . S
C540 C539 1.396 . S
C540 C541 1.397 . S
C541 C540 1.397 . S
C541 C542 1.385 . S
C542 H525 0.940 . S
C542 C541 1.385 . S
C542 C543 1.388 . S
C543 H522 0.939 . S
C543 C538 1.391 . S
C543 C542 1.388 . S
P544 O555 1.490 . S
P544 C558 1.812 . S
P544 C564 1.803 . S
P544 C570 1.819 . S
H545 C559 0.941 . S
H546 C560 0.939 . S
H547 C562 0.940 . S
H548 C563 0.940 . S
H549 C565 0.939 . S
H550 C566 0.942 . S
H551 C568 0.940 . S
H552 C569 0.939 . S
H553 C571 0.941 . S
H554 C575 0.939 . S
O555 P544 1.490 . S
H556 C572 0.939 . S
H557 C574 0.940 . S
C558 P544 1.812 . S
C558 C559 1.389 . S
C558 C563 1.391 . S
C559 H545 0.941 . S
C559 C558 1.389 . S
C559 C560 1.397 . S
C560 H546 0.939 . S
C560 C559 1.397 . S
C560 C561 1.378 . S
C561 C560 1.378 . S
C561 C562 1.378 . S
C562 H547 0.940 . S
C562 C561 1.378 . S
C562 C563 1.396 . S
C563 H548 0.940 . S
C563 C558 1.391 . S
C563 C562 1.396 . S
C564 P544 1.803 . S
C564 C565 1.378 . S
C564 C569 1.400 . S
C565 H549 0.939 . S
C565 C564 1.378 . S
C565 C566 1.361 . S
C566 H550 0.942 . S
C566 C565 1.361 . S
C566 C567 1.369 . S
C567 C566 1.369 . S
C567 C568 1.404 . S
C568 H551 0.940 . S
C568 C567 1.404 . S
C568 C569 1.389 . S
C569 H552 0.939 . S
C569 C564 1.400 . S
C569 C568 1.389 . S
C570 P544 1.819 . S
C570 C571 1.391 . S
C570 C575 1.391 . S
C571 H553 0.941 . S
C571 C570 1.391 . S
C571 C572 1.396 . S
C572 H556 0.939 . S
C572 C571 1.396 . S
C572 C573 1.397 . S
C573 C572 1.397 . S
C573 C574 1.385 . S
C574 H557 0.940 . S
C574 C573 1.385 . S
C574 C575 1.388 . S
C575 H554 0.939 . S
C575 C570 1.391 . S
C575 C574 1.388 . S
P576 O587 1.490 . S
P576 C590 1.812 . S
P576 C596 1.803 . S
P576 C602 1.819 . S
H577 C591 0.941 . S
H578 C592 0.939 . S
H579 C594 0.940 . S
H580 C595 0.940 . S
H581 C597 0.939 . S
H582 C598 0.942 . S
H583 C600 0.940 . S
H584 C601 0.939 . S
H585 C603 0.941 . S
H586 C607 0.939 . S
O587 P576 1.490 . S
H588 C604 0.939 . S
H589 C606 0.940 . S
C590 P576 1.812 . S
C590 C591 1.389 . S
C590 C595 1.391 . S
C591 H577 0.941 . S
C591 C590 1.389 . S
C591 C592 1.397 . S
C592 H578 0.939 . S
C592 C591 1.397 . S
C592 C593 1.378 . S
C593 C592 1.378 . S
C593 C594 1.378 . S
C594 H579 0.940 . S
C594 C593 1.378 . S
C594 C595 1.396 . S
C595 H580 0.940 . S
C595 C590 1.391 . S
C595 C594 1.396 . S
C596 P576 1.803 . S
C596 C597 1.378 . S
C596 C601 1.400 . S
C597 H581 0.939 . S
C597 C596 1.378 . S
C597 C598 1.361 . S
C598 H582 0.942 . S
C598 C597 1.361 . S
C598 C599 1.369 . S
C599 C598 1.369 . S
C599 C600 1.404 . S
C600 H583 0.940 . S
C600 C599 1.404 . S
C600 C601 1.389 . S
C601 H584 0.939 . S
C601 C596 1.400 . S
C601 C600 1.389 . S
C602 P576 1.819 . S
C602 C603 1.391 . S
C602 C607 1.391 . S
C603 H585 0.941 . S
C603 C602 1.391 . S
C603 C604 1.396 . S
C604 H588 0.939 . S
C604 C603 1.396 . S
C604 C605 1.397 . S
C605 C604 1.397 . S
C605 C606 1.385 . S
C606 H589 0.940 . S
C606 C605 1.385 . S
C606 C607 1.388 . S
C607 H586 0.939 . S
C607 C602 1.391 . S
C607 C606 1.388 . S
P608 O619 1.490 . S
P608 C622 1.812 . S
P608 C628 1.803 . S
P608 C634 1.819 . S
H609 C623 0.941 . S
H610 C624 0.939 . S
H611 C626 0.940 . S
H612 C627 0.940 . S
H613 C629 0.939 . S
H614 C630 0.942 . S
H615 C632 0.940 . S
H616 C633 0.939 . S
H617 C635 0.941 . S
H618 C639 0.939 . S
O619 P608 1.490 . S
H620 C636 0.939 . S
H621 C638 0.940 . S
C622 P608 1.812 . S
C622 C623 1.389 . S
C622 C627 1.391 . S
C623 H609 0.941 . S
C623 C622 1.389 . S
C623 C624 1.397 . S
C624 H610 0.939 . S
C624 C623 1.397 . S
C624 C625 1.378 . S
C625 C624 1.378 . S
C625 C626 1.378 . S
C626 H611 0.940 . S
C626 C625 1.378 . S
C626 C627 1.396 . S
C627 H612 0.940 . S
C627 C622 1.391 . S
C627 C626 1.396 . S
C628 P608 1.803 . S
C628 C629 1.378 . S
C628 C633 1.400 . S
C629 H613 0.939 . S
C629 C628 1.378 . S
C629 C630 1.361 . S
C630 H614 0.942 . S
C630 C629 1.361 . S
C630 C631 1.369 . S
C631 C630 1.369 . S
C631 C632 1.404 . S
C632 H615 0.940 . S
C632 C631 1.404 . S
C632 C633 1.389 . S
C633 H616 0.939 . S
C633 C628 1.400 . S
C633 C632 1.389 . S
C634 P608 1.819 . S
C634 C635 1.391 . S
C634 C639 1.391 . S
C635 H617 0.941 . S
C635 C634 1.391 . S
C635 C636 1.396 . S
C636 H620 0.939 . S
C636 C635 1.396 . S
C636 C637 1.397 . S
C637 C636 1.397 . S
C637 C638 1.385 . S
C638 H621 0.940 . S
C638 C637 1.385 . S
C638 C639 1.388 . S
C639 H618 0.939 . S
C639 C634 1.391 . S
C639 C638 1.388 . S
P640 O651 1.490 . S
P640 C654 1.812 . S
P640 C660 1.803 . S
P640 C666 1.819 . S
H641 C655 0.941 . S
H642 C656 0.939 . S
H643 C658 0.940 . S
H644 C659 0.940 . S
H645 C661 0.939 . S
H646 C662 0.942 . S
H647 C664 0.940 . S
H648 C665 0.939 . S
H649 C667 0.941 . S
H650 C671 0.939 . S
O651 P640 1.490 . S
H652 C668 0.939 . S
H653 C670 0.940 . S
C654 P640 1.812 . S
C654 C655 1.389 . S
C654 C659 1.391 . S
C655 H641 0.941 . S
C655 C654 1.389 . S
C655 C656 1.397 . S
C656 H642 0.939 . S
C656 C655 1.397 . S
C656 C657 1.378 . S
C657 C656 1.378 . S
C657 C658 1.378 . S
C658 H643 0.940 . S
C658 C657 1.378 . S
C658 C659 1.396 . S
C659 H644 0.940 . S
C659 C654 1.391 . S
C659 C658 1.396 . S
C660 P640 1.803 . S
C660 C661 1.378 . S
C660 C665 1.400 . S
C661 H645 0.939 . S
C661 C660 1.378 . S
C661 C662 1.361 . S
C662 H646 0.942 . S
C662 C661 1.361 . S
C662 C663 1.369 . S
C663 C662 1.369 . S
C663 C664 1.404 . S
C664 H647 0.940 . S
C664 C663 1.404 . S
C664 C665 1.389 . S
C665 H648 0.939 . S
C665 C660 1.400 . S
C665 C664 1.389 . S
C666 P640 1.819 . S
C666 C667 1.391 . S
C666 C671 1.391 . S
C667 H649 0.941 . S
C667 C666 1.391 . S
C667 C668 1.396 . S
C668 H652 0.939 . S
C668 C667 1.396 . S
C668 C669 1.397 . S
C669 C668 1.397 . S
C669 C670 1.385 . S
C670 H653 0.940 . S
C670 C669 1.385 . S
C670 C671 1.388 . S
C671 H650 0.939 . S
C671 C666 1.391 . S
C671 C670 1.388 . S
P672 O683 1.490 . S
P672 C686 1.812 . S
P672 C692 1.803 . S
P672 C698 1.819 . S
H673 C687 0.941 . S
H674 C688 0.939 . S
H675 C690 0.940 . S
H676 C691 0.940 . S
H677 C693 0.939 . S
H678 C694 0.942 . S
H679 C696 0.940 . S
H680 C697 0.939 . S
H681 C699 0.941 . S
H682 C703 0.939 . S
O683 P672 1.490 . S
H684 C700 0.939 . S
H685 C702 0.940 . S
C686 P672 1.812 . S
C686 C687 1.389 . S
C686 C691 1.391 . S
C687 H673 0.941 . S
C687 C686 1.389 . S
C687 C688 1.397 . S
C688 H674 0.939 . S
C688 C687 1.397 . S
C688 C689 1.378 . S
C689 C688 1.378 . S
C689 C690 1.378 . S
C690 H675 0.940 . S
C690 C689 1.378 . S
C690 C691 1.396 . S
C691 H676 0.940 . S
C691 C686 1.391 . S
C691 C690 1.396 . S
C692 P672 1.803 . S
C692 C693 1.378 . S
C692 C697 1.400 . S
C693 H677 0.939 . S
C693 C692 1.378 . S
C693 C694 1.361 . S
C694 H678 0.942 . S
C694 C693 1.361 . S
C694 C695 1.369 . S
C695 C694 1.369 . S
C695 C696 1.404 . S
C696 H679 0.940 . S
C696 C695 1.404 . S
C696 C697 1.389 . S
C697 H680 0.939 . S
C697 C692 1.400 . S
C697 C696 1.389 . S
C698 P672 1.819 . S
C698 C699 1.391 . S
C698 C703 1.391 . S
C699 H681 0.941 . S
C699 C698 1.391 . S
C699 C700 1.396 . S
C700 H684 0.939 . S
C700 C699 1.396 . S
C700 C701 1.397 . S
C701 C700 1.397 . S
C701 C702 1.385 . S
C702 H685 0.940 . S
C702 C701 1.385 . S
C702 C703 1.388 . S
C703 H682 0.939 . S
C703 C698 1.391 . S
C703 C702 1.388 . S
P704 O715 1.490 . S
P704 C718 1.812 . S
P704 C724 1.803 . S
P704 C730 1.819 . S
H705 C719 0.941 . S
H706 C720 0.939 . S
H707 C722 0.940 . S
H708 C723 0.940 . S
H709 C725 0.939 . S
H710 C726 0.942 . S
H711 C728 0.940 . S
H712 C729 0.939 . S
H713 C731 0.941 . S
H714 C735 0.939 . S
O715 P704 1.490 . S
H716 C732 0.939 . S
H717 C734 0.940 . S
C718 P704 1.812 . S
C718 C719 1.389 . S
C718 C723 1.391 . S
C719 H705 0.941 . S
C719 C718 1.389 . S
C719 C720 1.397 . S
C720 H706 0.939 . S
C720 C719 1.397 . S
C720 C721 1.378 . S
C721 C720 1.378 . S
C721 C722 1.378 . S
C722 H707 0.940 . S
C722 C721 1.378 . S
C722 C723 1.396 . S
C723 H708 0.940 . S
C723 C718 1.391 . S
C723 C722 1.396 . S
C724 P704 1.803 . S
C724 C725 1.378 . S
C724 C729 1.400 . S
C725 H709 0.939 . S
C725 C724 1.378 . S
C725 C726 1.361 . S
C726 H710 0.942 . S
C726 C725 1.361 . S
C726 C727 1.369 . S
C727 C726 1.369 . S
C727 C728 1.404 . S
C728 H711 0.940 . S
C728 C727 1.404 . S
C728 C729 1.389 . S
C729 H712 0.939 . S
C729 C724 1.400 . S
C729 C728 1.389 . S
C730 P704 1.819 . S
C730 C731 1.391 . S
C730 C735 1.391 . S
C731 H713 0.941 . S
C731 C730 1.391 . S
C731 C732 1.396 . S
C732 H716 0.939 . S
C732 C731 1.396 . S
C732 C733 1.397 . S
C733 C732 1.397 . S
C733 C734 1.385 . S
C734 H717 0.940 . S
C734 C733 1.385 . S
C734 C735 1.388 . S
C735 H714 0.939 . S
C735 C730 1.391 . S
C735 C734 1.388 . S
P736 O747 1.490 . S
P736 C750 1.812 . S
P736 C756 1.803 . S
P736 C762 1.819 . S
H737 C751 0.941 . S
H738 C752 0.939 . S
H739 C754 0.940 . S
H740 C755 0.940 . S
H741 C757 0.939 . S
H742 C758 0.942 . S
H743 C760 0.940 . S
H744 C761 0.939 . S
H745 C763 0.941 . S
H746 C767 0.939 . S
O747 P736 1.490 . S
H748 C764 0.939 . S
H749 C766 0.940 . S
C750 P736 1.812 . S
C750 C751 1.389 . S
C750 C755 1.391 . S
C751 H737 0.941 . S
C751 C750 1.389 . S
C751 C752 1.397 . S
C752 H738 0.939 . S
C752 C751 1.397 . S
C752 C753 1.378 . S
C753 C752 1.378 . S
C753 C754 1.378 . S
C754 H739 0.940 . S
C754 C753 1.378 . S
C754 C755 1.396 . S
C755 H740 0.940 . S
C755 C750 1.391 . S
C755 C754 1.396 . S
C756 P736 1.803 . S
C756 C757 1.378 . S
C756 C761 1.400 . S
C757 H741 0.939 . S
C757 C756 1.378 . S
C757 C758 1.361 . S
C758 H742 0.942 . S
C758 C757 1.361 . S
C758 C759 1.369 . S
C759 C758 1.369 . S
C759 C760 1.404 . S
C760 H743 0.940 . S
C760 C759 1.404 . S
C760 C761 1.389 . S
C761 H744 0.939 . S
C761 C756 1.400 . S
C761 C760 1.389 . S
C762 P736 1.819 . S
C762 C763 1.391 . S
C762 C767 1.391 . S
C763 H745 0.941 . S
C763 C762 1.391 . S
C763 C764 1.396 . S
C764 H748 0.939 . S
C764 C763 1.396 . S
C764 C765 1.397 . S
C765 C764 1.397 . S
C765 C766 1.385 . S
C766 H749 0.940 . S
C766 C765 1.385 . S
C766 C767 1.388 . S
C767 H746 0.939 . S
C767 C762 1.391 . S
C767 C766 1.388 . S
Zn768 O770 1.933 1_665 S
Zn768 O788 1.975 1_565 S
Zn768 O799 1.961 . S
Zn769 O770 1.911 1_655 S
Zn769 O789 1.970 . S
Zn769 O805 1.939 1_655 S
Zn769 O812 1.981 . S
O770 Zn768 1.933 1_445 S
O770 Zn769 1.911 1_455 S
O770 H771 0.841 . S
H771 O770 0.841 . S
C772 O773 1.246 . S
C772 O801 1.276 . S
O773 C772 1.246 . S
Zn774 O776 1.911 . S
Zn774 O791 1.970 . S
Zn774 O808 1.945 . S
Zn774 O815 1.981 . S
Zn775 O776 1.933 1_565 S
Zn775 O790 1.985 . S
Zn775 O797 1.955 . S
O776 Zn774 1.911 . S
O776 Zn775 1.933 1_545 S
O776 H777 0.841 . S
H777 O776 0.841 . S
Zn778 O779 1.933 1_565 S
Zn778 O792 1.985 1_565 S
Zn778 O801 1.955 . S
O779 Zn778 1.933 1_545 S
O779 Zn780 1.911 . S
O779 H781 0.841 . S
Zn780 O779 1.911 . S
Zn780 O793 1.970 . S
Zn780 O809 1.981 1_655 S
Zn780 O811 1.945 . S
H781 O779 0.841 . S
Zn782 O783 1.933 1_565 S
Zn782 O795 1.985 . S
Zn782 O803 1.955 . S
O783 Zn782 1.933 1_545 S
O783 H784 0.841 . S
O783 Zn785 1.911 . S
H784 O783 0.841 . S
Zn785 O783 1.911 . S
Zn785 O796 1.970 . S
Zn785 O806 1.981 . S
Zn785 O814 1.945 . S
C786 O787 1.246 . S
C786 O803 1.276 . S
O787 C786 1.246 . S
O788 Zn768 1.975 1_545 S
O788 C798 1.286 . S
O789 Zn769 1.970 . S
O789 C798 1.263 . S
O790 Zn775 1.985 . S
O790 C802 1.245 1_565 S
O791 Zn774 1.970 . S
O791 C802 1.263 . S
O792 Zn778 1.985 1_545 S
O792 C807 1.245 . S
O793 Zn780 1.970 . S
O793 C807 1.263 . S
C794 O805 1.277 . S
C794 O806 1.245 . S
O795 Zn782 1.985 . S
O795 C813 1.245 1_565 S
O796 Zn785 1.970 . S
O796 C813 1.263 . S
O797 Zn775 1.955 . S
O797 C816 1.276 . S
C798 O788 1.286 . S
C798 O789 1.263 . S
O799 Zn768 1.961 . S
O799 C818 1.252 1_655 S
C800 O808 1.262 . S
C800 O809 1.245 . S
O801 C772 1.276 . S
O801 Zn778 1.955 . S
C802 O790 1.245 1_545 S
C802 O791 1.263 . S
O803 Zn782 1.955 . S
O803 C786 1.276 . S
C804 O811 1.262 . S
C804 O812 1.245 . S
O805 Zn769 1.939 1_455 S
O805 C794 1.277 . S
O806 Zn785 1.981 . S
O806 C794 1.245 . S
C807 O792 1.245 . S
C807 O793 1.263 . S
O808 Zn774 1.945 . S
O808 C800 1.262 . S
O809 Zn780 1.981 1_455 S
O809 C800 1.245 . S
C810 O814 1.262 . S
C810 O815 1.245 . S
O811 Zn780 1.945 . S
O811 C804 1.262 . S
O812 Zn769 1.981 . S
O812 C804 1.245 . S
C813 O795 1.245 1_545 S
C813 O796 1.263 . S
O814 Zn785 1.945 . S
O814 C810 1.262 . S
O815 Zn774 1.981 . S
O815 C810 1.245 . S
C816 O797 1.276 . S
C816 O817 1.246 . S
O817 C816 1.246 . S
C818 O799 1.252 1_455 S
C818 O819 1.246 . S
O819 C818 1.246 . S
Zn820 O822 1.933 . S
Zn820 O840 1.985 . S
Zn820 O851 1.955 . S
Zn821 O822 1.911 1_556 S
Zn821 O841 1.970 . S
Zn821 O857 1.945 . S
Zn821 O864 1.981 . S
O822 Zn820 1.933 . S
O822 Zn821 1.911 1_554 S
O822 H823 0.841 . S
H823 O822 0.841 . S
C824 O825 1.246 . S
C824 O853 1.276 . S
O825 C824 1.246 . S
Zn826 O828 1.910 1_556 S
Zn826 O843 1.970 . S
Zn826 O860 1.945 . S
Zn826 O867 1.981 . S
Zn827 O828 1.932 . S
Zn827 O842 1.985 . S
Zn827 O849 1.954 1_565 S
O828 Zn826 1.910 1_554 S
O828 Zn827 1.932 . S
O828 H829 0.842 1_565 S
H829 O828 0.842 1_545 S
Zn830 O831 1.933 . S
Zn830 O844 1.985 . S
Zn830 O853 1.955 . S
O831 Zn830 1.933 . S
O831 Zn832 1.911 1_554 S
O831 H833 0.841 . S
Zn832 O831 1.911 1_556 S
Zn832 O845 1.970 . S
Zn832 O861 1.981 . S
Zn832 O863 1.945 . S
H833 O831 0.841 . S
Zn834 O835 1.933 . S
Zn834 O847 1.985 . S
Zn834 O855 1.955 . S
O835 Zn834 1.933 . S
O835 H836 0.841 . S
O835 Zn837 1.911 1_554 S
H836 O835 0.841 . S
Zn837 O835 1.911 1_556 S
Zn837 O848 1.970 . S
Zn837 O858 1.981 1_565 S
Zn837 O866 1.945 . S
C838 O839 1.246 . S
C838 O855 1.276 . S
O839 C838 1.246 . S
O840 Zn820 1.985 . S
O840 C850 1.245 . S
O841 Zn821 1.970 . S
O841 C850 1.263 1_556 S
O842 Zn827 1.985 . S
O842 C854 1.245 . S
O843 Zn826 1.970 . S
O843 C854 1.263 1_556 S
O844 Zn830 1.985 . S
O844 C859 1.245 . S
O845 Zn832 1.970 . S
O845 C859 1.263 1_556 S
C846 O857 1.262 . S
C846 O858 1.245 . S
O847 Zn834 1.985 . S
O847 C865 1.245 . S
O848 Zn837 1.970 . S
O848 C865 1.263 1_556 S
O849 Zn827 1.954 1_545 S
O849 C868 1.277 . S
C850 O840 1.245 . S
C850 O841 1.263 1_554 S
O851 Zn820 1.955 . S
O851 C870 1.276 . S
C852 O860 1.262 1_545 S
C852 O861 1.245 . S
O853 C824 1.276 . S
O853 Zn830 1.955 . S
C854 O842 1.245 . S
C854 O843 1.263 1_554 S
O855 Zn834 1.955 . S
O855 C838 1.276 . S
C856 O863 1.262 . S
C856 O864 1.245 . S
O857 Zn821 1.945 . S
O857 C846 1.262 . S
O858 Zn837 1.981 1_545 S
O858 C846 1.245 . S
C859 O844 1.245 . S
C859 O845 1.263 1_554 S
O860 Zn826 1.945 . S
O860 C852 1.262 1_565 S
O861 Zn832 1.981 . S
O861 C852 1.245 . S
C862 O866 1.262 . S
C862 O867 1.245 . S
O863 Zn832 1.945 . S
O863 C856 1.262 . S
O864 Zn821 1.981 . S
O864 C856 1.245 . S
C865 O847 1.245 . S
C865 O848 1.263 1_554 S
O866 Zn837 1.945 . S
O866 C862 1.262 . S
O867 Zn826 1.981 . S
O867 C862 1.245 . S
C868 O849 1.277 . S
C868 O869 1.246 . S
O869 C868 1.246 . S
C870 O851 1.276 . S
C870 O871 1.246 . S
O871 C870 1.246 . S
Zn872 O874 1.933 . S
Zn872 O892 1.985 . S
Zn872 O903 1.949 1_655 S
Zn873 O874 1.911 . S
Zn873 O893 1.970 . S
Zn873 O909 1.945 . S
Zn873 O916 1.981 . S
O874 Zn872 1.933 . S
O874 Zn873 1.911 . S
O874 H875 0.841 1_655 S
H875 O874 0.841 1_455 S
C876 O877 1.246 1_554 S
C876 O905 1.276 . S
O877 C876 1.246 1_556 S
Zn878 O880 1.911 . S
Zn878 O895 1.970 . S
Zn878 O912 1.945 . S
Zn878 O919 1.981 . S
Zn879 O880 1.933 . S
Zn879 O894 1.985 . S
Zn879 O901 1.955 . S
O880 Zn878 1.911 . S
O880 Zn879 1.933 . S
O880 H881 0.841 . S
H881 O880 0.841 . S
Zn882 O883 1.933 . S
Zn882 O896 1.985 . S
Zn882 O905 1.955 . S
O883 Zn882 1.933 . S
O883 Zn884 1.911 . S
O883 H885 0.841 . S
Zn884 O883 1.911 . S
Zn884 O897 1.970 . S
Zn884 O913 1.981 1_655 S
Zn884 O915 1.945 . S
H885 O883 0.841 . S
Zn886 O887 1.933 . S
Zn886 O899 1.985 . S
Zn886 O907 1.955 . S
O887 Zn886 1.933 . S
O887 H888 0.841 1_556 S
O887 Zn889 1.911 . S
H888 O887 0.841 1_554 S
Zn889 O887 1.911 . S
Zn889 O900 1.970 . S
Zn889 O910 1.981 . S
Zn889 O918 1.945 . S
C890 O891 1.246 . S
C890 O907 1.276 1_554 S
O891 C890 1.246 . S
O892 Zn872 1.985 . S
O892 C902 1.245 . S
O893 Zn873 1.970 . S
O893 C902 1.263 . S
O894 Zn879 1.985 . S
O894 C906 1.245 . S
O895 Zn878 1.970 . S
O895 C906 1.263 . S
O896 Zn882 1.985 . S
O896 C911 1.245 . S
O897 Zn884 1.970 . S
O897 C911 1.263 . S
C898 O909 1.262 1_455 S
C898 O910 1.245 . S
O899 Zn886 1.985 . S
O899 C917 1.245 . S
O900 Zn889 1.970 . S
O900 C917 1.263 . S
O901 Zn879 1.955 . S
O901 C920 1.276 . S
C902 O892 1.245 . S
C902 O893 1.263 . S
O903 Zn872 1.949 1_455 S
O903 C922 1.294 . S
C904 O912 1.262 . S
C904 O913 1.245 . S
O905 C876 1.276 . S
O905 Zn882 1.955 . S
C906 O894 1.245 . S
C906 O895 1.263 . S
O907 Zn886 1.955 . S
O907 C890 1.276 1_556 S
C908 O915 1.262 . S
C908 O916 1.245 1_554 S
O909 Zn873 1.945 . S
O909 C898 1.262 1_655 S
O910 Zn889 1.981 . S
O910 C898 1.245 . S
C911 O896 1.245 . S
C911 O897 1.263 . S
O912 Zn878 1.945 . S
O912 C904 1.262 . S
O913 Zn884 1.981 1_455 S
O913 C904 1.245 . S
C914 O918 1.262 1_554 S
C914 O919 1.245 . S
O915 Zn884 1.945 . S
O915 C908 1.262 . S
O916 Zn873 1.981 . S
O916 C908 1.245 1_556 S
C917 O899 1.245 . S
C917 O900 1.263 . S
O918 Zn889 1.945 . S
O918 C914 1.262 1_556 S
O919 Zn878 1.981 . S
O919 C914 1.245 . S
C920 O901 1.276 . S
C920 O921 1.246 . S
O921 C920 1.246 . S
C922 O903 1.294 . S
C922 O923 1.246 . S
O923 C922 1.246 . S
Zn924 O926 1.933 1_556 S
Zn924 O944 1.985 . S
Zn924 O955 1.955 . S
Zn925 O926 1.911 . S
Zn925 O945 1.970 . S
Zn925 O961 1.945 . S
Zn925 O968 1.981 . S
O926 Zn924 1.933 1_554 S
O926 Zn925 1.911 . S
O926 H927 0.841 . S
H927 O926 0.841 . S
C928 O929 1.246 . S
C928 O957 1.276 . S
O929 C928 1.246 . S
Zn930 O932 1.911 . S
Zn930 O947 1.970 . S
Zn930 O964 1.945 . S
Zn930 O971 1.981 . S
Zn931 O932 1.933 1_556 S
Zn931 O946 1.985 . S
Zn931 O953 1.955 . S
O932 Zn930 1.911 . S
O932 Zn931 1.933 1_554 S
O932 H933 0.841 . S
H933 O932 0.841 . S
Zn934 O935 1.933 1_556 S
Zn934 O948 1.985 . S
Zn934 O957 1.955 . S
O935 Zn934 1.933 1_554 S
O935 Zn936 1.911 . S
O935 H937 0.841 . S
Zn936 O935 1.911 . S
Zn936 O949 1.970 . S
Zn936 O965 1.981 . S
Zn936 O967 1.945 . S
H937 O935 0.841 . S
Zn938 O939 1.933 1_556 S
Zn938 O951 1.985 . S
Zn938 O959 1.955 . S
O939 Zn938 1.933 1_554 S
O939 H940 0.841 . S
O939 Zn941 1.911 . S
H940 O939 0.841 . S
Zn941 O939 1.911 . S
Zn941 O952 1.970 . S
Zn941 O962 1.981 . S
Zn941 O970 1.945 . S
C942 O943 1.246 . S
C942 O959 1.276 . S
O943 C942 1.246 . S
O944 Zn924 1.985 . S
O944 C954 1.245 1_556 S
O945 Zn925 1.970 . S
O945 C954 1.263 . S
O946 Zn931 1.985 . S
O946 C958 1.245 1_556 S
O947 Zn930 1.970 . S
O947 C958 1.263 . S
O948 Zn934 1.985 . S
O948 C963 1.245 1_556 S
O949 Zn936 1.970 . S
O949 C963 1.263 . S
C950 O961 1.262 . S
C950 O962 1.245 . S
O951 Zn938 1.985 . S
O951 C969 1.245 1_556 S
O952 Zn941 1.970 . S
O952 C969 1.263 . S
O953 Zn931 1.955 . S
O953 C972 1.276 . S
C954 O944 1.245 1_554 S
C954 O945 1.263 . S
O955 Zn924 1.955 . S
O955 C974 1.276 . S
C956 O964 1.262 . S
C956 O965 1.245 . S
O957 C928 1.276 . S
O957 Zn934 1.955 . S
C958 O946 1.245 1_554 S
C958 O947 1.263 . S
O959 Zn938 1.955 . S
O959 C942 1.276 . S
C960 O967 1.262 . S
C960 O968 1.245 . S
O961 Zn925 1.945 . S
O961 C950 1.262 . S
O962 Zn941 1.981 . S
O962 C950 1.245 . S
C963 O948 1.245 1_554 S
C963 O949 1.263 . S
O964 Zn930 1.945 . S
O964 C956 1.262 . S
O965 Zn936 1.981 . S
O965 C956 1.245 . S
C966 O970 1.262 . S
C966 O971 1.245 . S
O967 Zn936 1.945 . S
O967 C960 1.262 . S
O968 Zn925 1.981 . S
O968 C960 1.245 . S
C969 O951 1.245 1_554 S
C969 O952 1.263 . S
O970 Zn941 1.945 . S
O970 C966 1.262 . S
O971 Zn930 1.981 . S
O971 C966 1.245 . S
C972 O953 1.276 . S
C972 O973 1.246 . S
O973 C972 1.246 . S
C974 O955 1.276 . S
C974 O975 1.246 . S
O975 C974 1.246 . S
Zn976 O978 1.926 1_655 S
Zn976 O996 1.985 . S
Zn976 O1007 1.955 1_655 S
Zn977 O978 1.899 1_655 S
Zn977 O997 1.970 . S
Zn977 O1013 1.945 . S
Zn977 O1020 1.981 . S
O978 Zn976 1.926 1_455 S
O978 Zn977 1.899 1_455 S
O978 H979 0.866 . S
H979 O978 0.866 . S
C980 O981 1.246 . S
C980 O1009 1.276 . S
O981 C980 1.246 . S
Zn982 O984 1.911 . S
Zn982 O999 1.970 . S
Zn982 O1016 1.945 . S
Zn982 O1023 1.981 . S
Zn983 O984 1.933 . S
Zn983 O998 1.985 . S
Zn983 O1005 1.955 . S
O984 Zn982 1.911 . S
O984 Zn983 1.933 . S
O984 H985 0.841 . S
H985 O984 0.841 . S
Zn986 O987 1.933 . S
Zn986 O1000 1.985 . S
Zn986 O1009 1.955 . S
O987 Zn986 1.933 . S
O987 Zn988 1.911 . S
O987 H989 0.841 . S
Zn988 O987 1.911 . S
Zn988 O1001 1.970 . S
Zn988 O1017 1.981 1_655 S
Zn988 O1019 1.945 . S
H989 O987 0.841 . S
Zn990 O991 1.933 . S
Zn990 O1003 1.985 . S
Zn990 O1011 1.955 . S
O991 Zn990 1.933 . S
O991 H992 0.841 . S
O991 Zn993 1.911 . S
H992 O991 0.841 . S
Zn993 O991 1.911 . S
Zn993 O1004 1.970 . S
Zn993 O1014 1.981 . S
Zn993 O1022 1.945 . S
C994 O995 1.246 . S
C994 O1011 1.276 . S
O995 C994 1.246 . S
O996 Zn976 1.985 . S
O996 C1006 1.245 . S
O997 Zn977 1.970 . S
O997 C1006 1.263 . S
O998 Zn983 1.985 . S
O998 C1010 1.245 . S
O999 Zn982 1.970 . S
O999 C1010 1.263 . S
O1000 Zn986 1.985 . S
O1000 C1015 1.245 . S
O1001 Zn988 1.970 . S
O1001 C1015 1.263 . S
C1002 O1013 1.262 1_455 S
C1002 O1014 1.245 . S
O1003 Zn990 1.985 . S
O1003 C1021 1.245 . S
O1004 Zn993 1.970 . S
O1004 C1021 1.263 . S
O1005 Zn983 1.955 . S
O1005 C1024 1.276 . S
C1006 O996 1.245 . S
C1006 O997 1.263 . S
O1007 Zn976 1.955 1_455 S
O1007 C1026 1.276 . S
C1008 O1016 1.262 . S
C1008 O1017 1.245 . S
O1009 C980 1.276 . S
O1009 Zn986 1.955 . S
C1010 O998 1.245 . S
C1010 O999 1.263 . S
O1011 Zn990 1.955 . S
O1011 C994 1.276 . S
C1012 O1019 1.262 . S
C1012 O1020 1.245 . S
O1013 Zn977 1.945 . S
O1013 C1002 1.262 1_655 S
O1014 Zn993 1.981 . S
O1014 C1002 1.245 . S
C1015 O1000 1.245 . S
C1015 O1001 1.263 . S
O1016 Zn982 1.945 . S
O1016 C1008 1.262 . S
O1017 Zn988 1.981 1_455 S
O1017 C1008 1.245 . S
C1018 O1022 1.262 . S
C1018 O1023 1.245 . S
O1019 Zn988 1.945 . S
O1019 C1012 1.262 . S
O1020 Zn977 1.981 . S
O1020 C1012 1.245 . S
C1021 O1003 1.245 . S
C1021 O1004 1.263 . S
O1022 Zn993 1.945 . S
O1022 C1018 1.262 . S
O1023 Zn982 1.981 . S
O1023 C1018 1.245 . S
C1024 O1005 1.276 . S
C1024 O1025 1.246 . S
O1025 C1024 1.246 . S
C1026 O1007 1.276 . S
C1026 O1027 1.246 . S
O1027 C1026 1.246 . S
Zn1028 O1030 1.933 1_565 S
Zn1028 O1048 1.985 . S
Zn1028 O1059 1.955 . S
Zn1029 O1030 1.911 . S
Zn1029 O1049 1.970 . S
Zn1029 O1065 1.945 . S
Zn1029 O1072 1.981 . S
O1030 Zn1028 1.933 1_545 S
O1030 Zn1029 1.911 . S
O1030 H1031 0.841 . S
H1031 O1030 0.841 . S
C1032 O1033 1.246 . S
C1032 O1061 1.276 . S
O1033 C1032 1.246 . S
Zn1034 O1036 1.911 . S
Zn1034 O1051 1.970 . S
Zn1034 O1068 1.945 . S
Zn1034 O1075 1.981 . S
Zn1035 O1036 1.933 1_565 S
Zn1035 O1050 1.985 1_565 S
Zn1035 O1057 1.955 . S
O1036 Zn1034 1.911 . S
O1036 Zn1035 1.933 1_545 S
O1036 H1037 0.841 . S
H1037 O1036 0.841 . S
Zn1038 O1039 1.933 1_565 S
Zn1038 O1052 1.985 . S
Zn1038 O1061 1.955 . S
O1039 Zn1038 1.933 1_545 S
O1039 Zn1040 1.911 . S
O1039 H1041 0.841 . S
Zn1040 O1039 1.911 . S
Zn1040 O1053 1.970 . S
Zn1040 O1069 1.981 . S
Zn1040 O1071 1.945 . S
H1041 O1039 0.841 . S
Zn1042 O1043 1.933 1_565 S
Zn1042 O1055 1.985 1_565 S
Zn1042 O1063 1.955 . S
O1043 Zn1042 1.933 1_545 S
O1043 H1044 0.841 . S
O1043 Zn1045 1.911 . S
H1044 O1043 0.841 . S
Zn1045 O1043 1.911 . S
Zn1045 O1056 1.970 . S
Zn1045 O1066 1.981 . S
Zn1045 O1074 1.945 . S
C1046 O1047 1.246 . S
C1046 O1063 1.276 . S
O1047 C1046 1.246 . S
O1048 Zn1028 1.985 . S
O1048 C1058 1.245 1_565 S
O1049 Zn1029 1.970 . S
O1049 C1058 1.263 . S
O1050 Zn1035 1.985 1_545 S
O1050 C1062 1.245 . S
O1051 Zn1034 1.970 . S
O1051 C1062 1.263 . S
O1052 Zn1038 1.985 . S
O1052 C1067 1.245 1_565 S
O1053 Zn1040 1.970 . S
O1053 C1067 1.263 . S
C1054 O1065 1.262 . S
C1054 O1066 1.245 . S
O1055 Zn1042 1.985 1_545 S
O1055 C1073 1.245 . S
O1056 Zn1045 1.970 . S
O1056 C1073 1.263 . S
O1057 Zn1035 1.955 . S
O1057 C1076 1.276 . S
C1058 O1048 1.245 1_545 S
C1058 O1049 1.263 . S
O1059 Zn1028 1.955 . S
O1059 C1078 1.276 . S
C1060 O1068 1.262 . S
C1060 O1069 1.245 . S
O1061 C1032 1.276 . S
O1061 Zn1038 1.955 . S
C1062 O1050 1.245 . S
C1062 O1051 1.263 . S
O1063 Zn1042 1.955 . S
O1063 C1046 1.276 . S
C1064 O1071 1.262 . S
C1064 O1072 1.245 . S
O1065 Zn1029 1.945 . S
O1065 C1054 1.262 . S
O1066 Zn1045 1.981 . S
O1066 C1054 1.245 . S
C1067 O1052 1.245 1_545 S
C1067 O1053 1.263 . S
O1068 Zn1034 1.945 . S
O1068 C1060 1.262 . S
O1069 Zn1040 1.981 . S
O1069 C1060 1.245 . S
C1070 O1074 1.262 . S
C1070 O1075 1.245 . S
O1071 Zn1040 1.945 . S
O1071 C1064 1.262 . S
O1072 Zn1029 1.981 . S
O1072 C1064 1.245 . S
C1073 O1055 1.245 . S
C1073 O1056 1.263 . S
O1074 Zn1045 1.945 . S
O1074 C1070 1.262 . S
O1075 Zn1034 1.981 . S
O1075 C1070 1.245 . S
C1076 O1057 1.276 . S
C1076 O1077 1.246 . S
O1077 C1076 1.246 . S
C1078 O1059 1.276 . S
C1078 O1079 1.246 . S
O1079 C1078 1.246 . S
C1080 C1081 1.391 . S
C1080 C1082 1.394 . S
C1080 H1096 0.931 . S
C1081 C1080 1.391 . S
C1081 C1085 1.376 . S
C1082 C1080 1.394 . S
C1082 C1083 1.369 . S
C1082 C1086 1.531 . S
C1083 C1082 1.369 . S
C1083 C1084 1.410 . S
C1083 C1091 1.503 . S
C1084 C1083 1.410 . S
C1084 C1085 1.392 . S
C1084 C1087 1.511 . S
C1085 C1081 1.376 . S
C1085 C1084 1.392 . S
C1085 H1097 0.929 . S
C1086 C1082 1.531 . S
C1086 H1098 0.960 . S
C1086 H1099 0.962 . S
C1086 H1100 0.960 . S
C1087 C1084 1.511 . S
C1087 H1101 0.961 . S
C1087 H1102 0.961 . S
C1087 H1103 0.961 . S
C1088 C1089 1.370 . S
C1088 C1090 1.363 . S
C1088 H1104 0.931 . S
C1089 C1088 1.370 . S
C1089 C1093 1.408 . S
C1090 C1088 1.363 . S
C1090 C1091 1.370 . S
C1090 C1094 1.524 . S
C1091 C1083 1.503 . S
C1091 C1090 1.370 . S
C1091 C1092 1.403 . S
C1092 C1091 1.403 . S
C1092 C1093 1.404 . S
C1092 C1095 1.539 . S
C1093 C1089 1.408 . S
C1093 C1092 1.404 . S
C1093 H1105 0.930 . S
C1094 C1090 1.524 . S
C1094 H1106 0.956 . S
C1094 H1107 0.961 . S
C1094 H1108 0.961 . S
C1095 C1092 1.539 . S
C1095 H1109 0.958 . S
C1095 H1110 0.961 . S
C1095 H1111 0.960 . S
H1096 C1080 0.931 . S
H1097 C1085 0.929 . S
H1098 C1086 0.960 . S
H1099 C1086 0.962 . S
H1100 C1086 0.960 . S
H1101 C1087 0.961 . S
H1102 C1087 0.961 . S
H1103 C1087 0.961 . S
H1104 C1088 0.931 . S
H1105 C1093 0.930 . S
H1106 C1094 0.956 . S
H1107 C1094 0.961 . S
H1108 C1094 0.961 . S
H1109 C1095 0.958 . S
H1110 C1095 0.961 . S
H1111 C1095 0.960 . S
C1112 C1113 1.391 . S
C1112 C1114 1.394 . S
C1112 H1128 0.931 . S
C1113 C1112 1.391 . S
C1113 C1117 1.376 . S
C1114 C1112 1.394 . S
C1114 C1115 1.369 . S
C1114 C1118 1.531 . S
C1115 C1114 1.369 . S
C1115 C1116 1.410 . S
C1115 C1123 1.503 . S
C1116 C1115 1.410 . S
C1116 C1117 1.392 . S
C1116 C1119 1.511 . S
C1117 C1113 1.376 . S
C1117 C1116 1.392 . S
C1117 H1129 0.929 . S
C1118 C1114 1.531 . S
C1118 H1130 0.960 . S
C1118 H1131 0.962 . S
C1118 H1132 0.960 . S
C1119 C1116 1.511 . S
C1119 H1133 0.961 . S
C1119 H1134 0.961 . S
C1119 H1135 0.961 . S
C1120 C1121 1.370 . S
C1120 C1122 1.363 . S
C1120 H1136 0.931 . S
C1121 C1120 1.370 . S
C1121 C1125 1.408 . S
C1122 C1120 1.363 . S
C1122 C1123 1.370 . S
C1122 C1126 1.524 . S
C1123 C1115 1.503 . S
C1123 C1122 1.370 . S
C1123 C1124 1.403 . S
C1124 C1123 1.403 . S
C1124 C1125 1.404 . S
C1124 C1127 1.539 . S
C1125 C1121 1.408 . S
C1125 C1124 1.404 . S
C1125 H1137 0.930 . S
C1126 C1122 1.524 . S
C1126 H1138 0.956 . S
C1126 H1139 0.961 . S
C1126 H1140 0.961 . S
C1127 C1124 1.539 . S
C1127 H1141 0.958 . S
C1127 H1142 0.961 . S
C1127 H1143 0.960 . S
H1128 C1112 0.931 . S
H1129 C1117 0.929 . S
H1130 C1118 0.960 . S
H1131 C1118 0.962 . S
H1132 C1118 0.960 . S
H1133 C1119 0.961 . S
H1134 C1119 0.961 . S
H1135 C1119 0.961 . S
H1136 C1120 0.931 . S
H1137 C1125 0.930 . S
H1138 C1126 0.956 . S
H1139 C1126 0.961 . S
H1140 C1126 0.961 . S
H1141 C1127 0.958 . S
H1142 C1127 0.961 . S
H1143 C1127 0.960 . S
C1144 C1145 1.391 . S
C1144 C1146 1.394 . S
C1144 H1160 0.931 . S
C1145 C1144 1.391 . S
C1145 C1149 1.376 . S
C1146 C1144 1.394 . S
C1146 C1147 1.369 . S
C1146 C1150 1.531 . S
C1147 C1146 1.369 . S
C1147 C1148 1.410 . S
C1147 C1155 1.503 . S
C1148 C1147 1.410 . S
C1148 C1149 1.392 . S
C1148 C1151 1.511 . S
C1149 C1145 1.376 . S
C1149 C1148 1.392 . S
C1149 H1161 0.929 . S
C1150 C1146 1.531 . S
C1150 H1162 0.960 . S
C1150 H1163 0.962 . S
C1150 H1164 0.960 . S
C1151 C1148 1.511 . S
C1151 H1165 0.961 . S
C1151 H1166 0.961 . S
C1151 H1167 0.961 . S
C1152 C1153 1.370 . S
C1152 C1154 1.363 . S
C1152 H1168 0.931 . S
C1153 C1152 1.370 . S
C1153 C1157 1.408 . S
C1154 C1152 1.363 . S
C1154 C1155 1.370 . S
C1154 C1158 1.524 . S
C1155 C1147 1.503 . S
C1155 C1154 1.370 . S
C1155 C1156 1.403 . S
C1156 C1155 1.403 . S
C1156 C1157 1.404 . S
C1156 C1159 1.539 . S
C1157 C1153 1.408 . S
C1157 C1156 1.404 . S
C1157 H1169 0.930 . S
C1158 C1154 1.524 . S
C1158 H1170 0.956 . S
C1158 H1171 0.961 . S
C1158 H1172 0.961 . S
C1159 C1156 1.539 . S
C1159 H1173 0.958 . S
C1159 H1174 0.961 . S
C1159 H1175 0.960 . S
H1160 C1144 0.931 . S
H1161 C1149 0.929 . S
H1162 C1150 0.960 . S
H1163 C1150 0.962 . S
H1164 C1150 0.960 . S
H1165 C1151 0.961 . S
H1166 C1151 0.961 . S
H1167 C1151 0.961 . S
H1168 C1152 0.931 . S
H1169 C1157 0.930 . S
H1170 C1158 0.956 . S
H1171 C1158 0.961 . S
H1172 C1158 0.961 . S
H1173 C1159 0.958 . S
H1174 C1159 0.961 . S
H1175 C1159 0.960 . S
C1176 C1177 1.391 . S
C1176 C1178 1.394 . S
C1176 H1192 0.931 . S
C1177 C1176 1.391 . S
C1177 C1181 1.376 . S
C1178 C1176 1.394 . S
C1178 C1179 1.369 . S
C1178 C1182 1.531 . S
C1179 C1178 1.369 . S
C1179 C1180 1.410 . S
C1179 C1187 1.503 . S
C1180 C1179 1.410 . S
C1180 C1181 1.392 . S
C1180 C1183 1.511 . S
C1181 C1177 1.376 . S
C1181 C1180 1.392 . S
C1181 H1193 0.929 . S
C1182 C1178 1.531 . S
C1182 H1194 0.960 . S
C1182 H1195 0.962 . S
C1182 H1196 0.960 . S
C1183 C1180 1.511 . S
C1183 H1197 0.961 . S
C1183 H1198 0.961 . S
C1183 H1199 0.961 . S
C1184 C1185 1.370 . S
C1184 C1186 1.363 . S
C1184 H1200 0.931 . S
C1185 C1184 1.370 . S
C1185 C1189 1.408 . S
C1186 C1184 1.363 . S
C1186 C1187 1.370 . S
C1186 C1190 1.524 . S
C1187 C1179 1.503 . S
C1187 C1186 1.370 . S
C1187 C1188 1.403 . S
C1188 C1187 1.403 . S
C1188 C1189 1.404 . S
C1188 C1191 1.539 . S
C1189 C1185 1.408 . S
C1189 C1188 1.404 . S
C1189 H1201 0.930 . S
C1190 C1186 1.524 . S
C1190 H1202 0.956 . S
C1190 H1203 0.961 . S
C1190 H1204 0.961 . S
C1191 C1188 1.539 . S
C1191 H1205 0.958 . S
C1191 H1206 0.961 . S
C1191 H1207 0.960 . S
H1192 C1176 0.931 . S
H1193 C1181 0.929 . S
H1194 C1182 0.960 . S
H1195 C1182 0.962 . S
H1196 C1182 0.960 . S
H1197 C1183 0.961 . S
H1198 C1183 0.961 . S
H1199 C1183 0.961 . S
H1200 C1184 0.931 . S
H1201 C1189 0.930 . S
H1202 C1190 0.956 . S
H1203 C1190 0.961 . S
H1204 C1190 0.961 . S
H1205 C1191 0.958 . S
H1206 C1191 0.961 . S
H1207 C1191 0.960 . S
C1208 C1209 1.391 . S
C1208 C1210 1.394 . S
C1208 H1224 0.931 . S
C1209 C1208 1.391 . S
C1209 C1213 1.376 . S
C1210 C1208 1.394 . S
C1210 C1211 1.369 . S
C1210 C1214 1.531 . S
C1211 C1210 1.369 . S
C1211 C1212 1.410 . S
C1211 C1219 1.503 . S
C1212 C1211 1.410 . S
C1212 C1213 1.392 . S
C1212 C1215 1.511 . S
C1213 C1209 1.376 . S
C1213 C1212 1.392 . S
C1213 H1225 0.929 . S
C1214 C1210 1.531 . S
C1214 H1226 0.960 . S
C1214 H1227 0.962 . S
C1214 H1228 0.960 . S
C1215 C1212 1.511 . S
C1215 H1229 0.961 . S
C1215 H1230 0.961 . S
C1215 H1231 0.961 . S
C1216 C1217 1.370 . S
C1216 C1218 1.363 . S
C1216 H1232 0.931 . S
C1217 C1216 1.370 . S
C1217 C1221 1.408 . S
C1218 C1216 1.363 . S
C1218 C1219 1.370 . S
C1218 C1222 1.524 . S
C1219 C1211 1.503 . S
C1219 C1218 1.370 . S
C1219 C1220 1.403 . S
C1220 C1219 1.403 . S
C1220 C1221 1.404 . S
C1220 C1223 1.539 . S
C1221 C1217 1.408 . S
C1221 C1220 1.404 . S
C1221 H1233 0.930 . S
C1222 C1218 1.524 . S
C1222 H1234 0.956 . S
C1222 H1235 0.961 . S
C1222 H1236 0.961 . S
C1223 C1220 1.539 . S
C1223 H1237 0.958 . S
C1223 H1238 0.961 . S
C1223 H1239 0.960 . S
H1224 C1208 0.931 . S
H1225 C1213 0.929 . S
H1226 C1214 0.960 . S
H1227 C1214 0.962 . S
H1228 C1214 0.960 . S
H1229 C1215 0.961 . S
H1230 C1215 0.961 . S
H1231 C1215 0.961 . S
H1232 C1216 0.931 . S
H1233 C1221 0.930 . S
H1234 C1222 0.956 . S
H1235 C1222 0.961 . S
H1236 C1222 0.961 . S
H1237 C1223 0.958 . S
H1238 C1223 0.961 . S
H1239 C1223 0.960 . S
C1240 C1241 1.391 . S
C1240 C1242 1.394 . S
C1240 H1256 0.931 . S
C1241 C1240 1.391 . S
C1241 C1245 1.376 . S
C1242 C1240 1.394 . S
C1242 C1243 1.369 . S
C1242 C1246 1.531 . S
C1243 C1242 1.369 . S
C1243 C1244 1.410 . S
C1243 C1251 1.503 . S
C1244 C1243 1.410 . S
C1244 C1245 1.392 . S
C1244 C1247 1.511 . S
C1245 C1241 1.376 . S
C1245 C1244 1.392 . S
C1245 H1257 0.929 . S
C1246 C1242 1.531 . S
C1246 H1258 0.960 . S
C1246 H1259 0.962 . S
C1246 H1260 0.960 . S
C1247 C1244 1.511 . S
C1247 H1261 0.961 . S
C1247 H1262 0.961 . S
C1247 H1263 0.961 . S
C1248 C1249 1.370 . S
C1248 C1250 1.363 . S
C1248 H1264 0.931 . S
C1249 C1248 1.370 . S
C1249 C1253 1.408 . S
C1250 C1248 1.363 . S
C1250 C1251 1.370 . S
C1250 C1254 1.524 . S
C1251 C1243 1.503 . S
C1251 C1250 1.370 . S
C1251 C1252 1.403 . S
C1252 C1251 1.403 . S
C1252 C1253 1.404 . S
C1252 C1255 1.539 . S
C1253 C1249 1.408 . S
C1253 C1252 1.404 . S
C1253 H1265 0.930 . S
C1254 C1250 1.524 . S
C1254 H1266 0.956 . S
C1254 H1267 0.961 . S
C1254 H1268 0.961 . S
C1255 C1252 1.539 . S
C1255 H1269 0.958 . S
C1255 H1270 0.961 . S
C1255 H1271 0.960 . S
H1256 C1240 0.931 . S
H1257 C1245 0.929 . S
H1258 C1246 0.960 . S
H1259 C1246 0.962 . S
H1260 C1246 0.960 . S
H1261 C1247 0.961 . S
H1262 C1247 0.961 . S
H1263 C1247 0.961 . S
H1264 C1248 0.931 . S
H1265 C1253 0.930 . S
H1266 C1254 0.956 . S
H1267 C1254 0.961 . S
H1268 C1254 0.961 . S
H1269 C1255 0.958 . S
H1270 C1255 0.961 . S
H1271 C1255 0.960 . S
C1272 C1273 1.391 . S
C1272 C1274 1.394 . S
C1272 H1288 0.931 . S
C1273 C1272 1.391 . S
C1273 C1277 1.376 . S
C1274 C1272 1.394 . S
C1274 C1275 1.369 . S
C1274 C1278 1.531 . S
C1275 C1274 1.369 . S
C1275 C1276 1.410 . S
C1275 C1283 1.503 . S
C1276 C1275 1.410 . S
C1276 C1277 1.392 . S
C1276 C1279 1.511 . S
C1277 C1273 1.376 . S
C1277 C1276 1.392 . S
C1277 H1289 0.929 . S
C1278 C1274 1.531 . S
C1278 H1290 0.960 . S
C1278 H1291 0.962 . S
C1278 H1292 0.960 . S
C1279 C1276 1.511 . S
C1279 H1293 0.961 . S
C1279 H1294 0.961 . S
C1279 H1295 0.961 . S
C1280 C1281 1.370 . S
C1280 C1282 1.363 . S
C1280 H1296 0.931 . S
C1281 C1280 1.370 . S
C1281 C1285 1.408 . S
C1282 C1280 1.363 . S
C1282 C1283 1.370 . S
C1282 C1286 1.524 . S
C1283 C1275 1.503 . S
C1283 C1282 1.370 . S
C1283 C1284 1.403 . S
C1284 C1283 1.403 . S
C1284 C1285 1.404 . S
C1284 C1287 1.539 . S
C1285 C1281 1.408 . S
C1285 C1284 1.404 . S
C1285 H1297 0.930 . S
C1286 C1282 1.524 . S
C1286 H1298 0.956 . S
C1286 H1299 0.961 . S
C1286 H1300 0.961 . S
C1287 C1284 1.539 . S
C1287 H1301 0.958 . S
C1287 H1302 0.961 . S
C1287 H1303 0.960 . S
H1288 C1272 0.931 . S
H1289 C1277 0.929 . S
H1290 C1278 0.960 . S
H1291 C1278 0.962 . S
H1292 C1278 0.960 . S
H1293 C1279 0.961 . S
H1294 C1279 0.961 . S
H1295 C1279 0.961 . S
H1296 C1280 0.931 . S
H1297 C1285 0.930 . S
H1298 C1286 0.956 . S
H1299 C1286 0.961 . S
H1300 C1286 0.961 . S
H1301 C1287 0.958 . S
H1302 C1287 0.961 . S
H1303 C1287 0.960 . S
C1304 C1305 1.391 . S
C1304 C1306 1.394 . S
C1304 H1320 0.931 . S
C1305 C1304 1.391 . S
C1305 C1309 1.376 . S
C1306 C1304 1.394 . S
C1306 C1307 1.369 . S
C1306 C1310 1.531 . S
C1307 C1306 1.369 . S
C1307 C1308 1.410 . S
C1307 C1315 1.503 . S
C1308 C1307 1.410 . S
C1308 C1309 1.392 . S
C1308 C1311 1.511 . S
C1309 C1305 1.376 . S
C1309 C1308 1.392 . S
C1309 H1321 0.929 . S
C1310 C1306 1.531 . S
C1310 H1322 0.960 . S
C1310 H1323 0.962 . S
C1310 H1324 0.960 . S
C1311 C1308 1.511 . S
C1311 H1325 0.961 . S
C1311 H1326 0.961 . S
C1311 H1327 0.961 . S
C1312 C1313 1.370 . S
C1312 C1314 1.363 . S
C1312 H1328 0.931 . S
C1313 C1312 1.370 . S
C1313 C1317 1.408 . S
C1314 C1312 1.363 . S
C1314 C1315 1.370 . S
C1314 C1318 1.524 . S
C1315 C1307 1.503 . S
C1315 C1314 1.370 . S
C1315 C1316 1.403 . S
C1316 C1315 1.403 . S
C1316 C1317 1.404 . S
C1316 C1319 1.539 . S
C1317 C1313 1.408 . S
C1317 C1316 1.404 . S
C1317 H1329 0.930 . S
C1318 C1314 1.524 . S
C1318 H1330 0.956 . S
C1318 H1331 0.961 . S
C1318 H1332 0.961 . S
C1319 C1316 1.539 . S
C1319 H1333 0.958 . S
C1319 H1334 0.961 . S
C1319 H1335 0.960 . S
H1320 C1304 0.931 . S
H1321 C1309 0.929 . S
H1322 C1310 0.960 . S
H1323 C1310 0.962 . S
H1324 C1310 0.960 . S
H1325 C1311 0.961 . S
H1326 C1311 0.961 . S
H1327 C1311 0.961 . S
H1328 C1312 0.931 . S
H1329 C1317 0.930 . S
H1330 C1318 0.956 . S
H1331 C1318 0.961 . S
H1332 C1318 0.961 . S
H1333 C1319 0.958 . S
H1334 C1319 0.961 . S
H1335 C1319 0.960 . S
C1336 C1337 1.391 . S
C1336 C1338 1.394 . S
C1336 H1352 0.931 . S
C1337 C1336 1.391 . S
C1337 C1341 1.376 . S
C1338 C1336 1.394 . S
C1338 C1339 1.369 . S
C1338 C1342 1.531 . S
C1339 C1338 1.369 . S
C1339 C1340 1.410 . S
C1339 C1347 1.503 . S
C1340 C1339 1.410 . S
C1340 C1341 1.392 . S
C1340 C1343 1.511 . S
C1341 C1337 1.376 . S
C1341 C1340 1.392 . S
C1341 H1353 0.929 . S
C1342 C1338 1.531 . S
C1342 H1354 0.960 . S
C1342 H1355 0.962 . S
C1342 H1356 0.960 . S
C1343 C1340 1.511 . S
C1343 H1357 0.961 . S
C1343 H1358 0.961 . S
C1343 H1359 0.961 . S
C1344 C1345 1.370 . S
C1344 C1346 1.363 . S
C1344 H1360 0.931 . S
C1345 C1344 1.370 . S
C1345 C1349 1.408 . S
C1346 C1344 1.363 . S
C1346 C1347 1.370 . S
C1346 C1350 1.524 . S
C1347 C1339 1.503 . S
C1347 C1346 1.370 . S
C1347 C1348 1.403 . S
C1348 C1347 1.403 . S
C1348 C1349 1.404 . S
C1348 C1351 1.539 . S
C1349 C1345 1.408 . S
C1349 C1348 1.404 . S
C1349 H1361 0.930 . S
C1350 C1346 1.524 . S
C1350 H1362 0.956 . S
C1350 H1363 0.961 . S
C1350 H1364 0.961 . S
C1351 C1348 1.539 . S
C1351 H1365 0.958 . S
C1351 H1366 0.961 . S
C1351 H1367 0.960 . S
H1352 C1336 0.931 . S
H1353 C1341 0.929 . S
H1354 C1342 0.960 . S
H1355 C1342 0.962 . S
H1356 C1342 0.960 . S
H1357 C1343 0.961 . S
H1358 C1343 0.961 . S
H1359 C1343 0.961 . S
H1360 C1344 0.931 . S
H1361 C1349 0.930 . S
H1362 C1350 0.956 . S
H1363 C1350 0.961 . S
H1364 C1350 0.961 . S
H1365 C1351 0.958 . S
H1366 C1351 0.961 . S
H1367 C1351 0.960 . S
C1368 C1369 1.391 . S
C1368 C1370 1.394 . S
C1368 H1384 0.931 . S
C1369 C1368 1.391 . S
C1369 C1373 1.376 . S
C1370 C1368 1.394 . S
C1370 C1371 1.369 . S
C1370 C1374 1.531 . S
C1371 C1370 1.369 . S
C1371 C1372 1.410 . S
C1371 C1379 1.503 . S
C1372 C1371 1.410 . S
C1372 C1373 1.392 . S
C1372 C1375 1.511 . S
C1373 C1369 1.376 . S
C1373 C1372 1.392 . S
C1373 H1385 0.929 . S
C1374 C1370 1.531 . S
C1374 H1386 0.960 . S
C1374 H1387 0.962 . S
C1374 H1388 0.960 . S
C1375 C1372 1.511 . S
C1375 H1389 0.961 . S
C1375 H1390 0.961 . S
C1375 H1391 0.961 . S
C1376 C1377 1.370 . S
C1376 C1378 1.363 . S
C1376 H1392 0.931 . S
C1377 C1376 1.370 . S
C1377 C1381 1.408 . S
C1378 C1376 1.363 . S
C1378 C1379 1.370 . S
C1378 C1382 1.524 . S
C1379 C1371 1.503 . S
C1379 C1378 1.370 . S
C1379 C1380 1.403 . S
C1380 C1379 1.403 . S
C1380 C1381 1.404 . S
C1380 C1383 1.539 . S
C1381 C1377 1.408 . S
C1381 C1380 1.404 . S
C1381 H1393 0.930 . S
C1382 C1378 1.524 . S
C1382 H1394 0.956 . S
C1382 H1395 0.961 . S
C1382 H1396 0.961 . S
C1383 C1380 1.539 . S
C1383 H1397 0.958 . S
C1383 H1398 0.961 . S
C1383 H1399 0.960 . S
H1384 C1368 0.931 . S
H1385 C1373 0.929 . S
H1386 C1374 0.960 . S
H1387 C1374 0.962 . S
H1388 C1374 0.960 . S
H1389 C1375 0.961 . S
H1390 C1375 0.961 . S
H1391 C1375 0.961 . S
H1392 C1376 0.931 . S
H1393 C1381 0.930 . S
H1394 C1382 0.956 . S
H1395 C1382 0.961 . S
H1396 C1382 0.961 . S
H1397 C1383 0.958 . S
H1398 C1383 0.961 . S
H1399 C1383 0.960 . S
C1400 C1401 1.391 . S
C1400 C1402 1.394 . S
C1400 H1416 0.931 . S
C1401 C1400 1.391 . S
C1401 C1405 1.376 . S
C1402 C1400 1.394 . S
C1402 C1403 1.369 . S
C1402 C1406 1.531 . S
C1403 C1402 1.369 . S
C1403 C1404 1.410 . S
C1403 C1411 1.503 . S
C1404 C1403 1.410 . S
C1404 C1405 1.392 . S
C1404 C1407 1.511 . S
C1405 C1401 1.376 . S
C1405 C1404 1.392 . S
C1405 H1417 0.929 . S
C1406 C1402 1.531 . S
C1406 H1418 0.960 . S
C1406 H1419 0.962 . S
C1406 H1420 0.960 . S
C1407 C1404 1.511 . S
C1407 H1421 0.961 . S
C1407 H1422 0.961 . S
C1407 H1423 0.961 . S
C1408 C1409 1.370 . S
C1408 C1410 1.363 . S
C1408 H1424 0.931 . S
C1409 C1408 1.370 . S
C1409 C1413 1.408 . S
C1410 C1408 1.363 . S
C1410 C1411 1.370 . S
C1410 C1414 1.524 . S
C1411 C1403 1.503 . S
C1411 C1410 1.370 . S
C1411 C1412 1.403 . S
C1412 C1411 1.403 . S
C1412 C1413 1.404 . S
C1412 C1415 1.539 . S
C1413 C1409 1.408 . S
C1413 C1412 1.404 . S
C1413 H1425 0.930 . S
C1414 C1410 1.524 . S
C1414 H1426 0.956 . S
C1414 H1427 0.961 . S
C1414 H1428 0.961 . S
C1415 C1412 1.539 . S
C1415 H1429 0.958 . S
C1415 H1430 0.961 . S
C1415 H1431 0.960 . S
H1416 C1400 0.931 . S
H1417 C1405 0.929 . S
H1418 C1406 0.960 . S
H1419 C1406 0.962 . S
H1420 C1406 0.960 . S
H1421 C1407 0.961 . S
H1422 C1407 0.961 . S
H1423 C1407 0.961 . S
H1424 C1408 0.931 . S
H1425 C1413 0.930 . S
H1426 C1414 0.956 . S
H1427 C1414 0.961 . S
H1428 C1414 0.961 . S
H1429 C1415 0.958 . S
H1430 C1415 0.961 . S
H1431 C1415 0.960 . S
C1432 C1433 1.391 . S
C1432 C1434 1.394 . S
C1432 H1448 0.931 . S
C1433 C1432 1.391 . S
C1433 C1437 1.376 . S
C1434 C1432 1.394 . S
C1434 C1435 1.369 . S
C1434 C1438 1.531 . S
C1435 C1434 1.369 . S
C1435 C1436 1.410 . S
C1435 C1443 1.503 . S
C1436 C1435 1.410 . S
C1436 C1437 1.392 . S
C1436 C1439 1.511 . S
C1437 C1433 1.376 . S
C1437 C1436 1.392 . S
C1437 H1449 0.929 . S
C1438 C1434 1.531 . S
C1438 H1450 0.960 . S
C1438 H1451 0.962 . S
C1438 H1452 0.960 . S
C1439 C1436 1.511 . S
C1439 H1453 0.961 . S
C1439 H1454 0.961 . S
C1439 H1455 0.961 . S
C1440 C1441 1.370 . S
C1440 C1442 1.363 . S
C1440 H1456 0.931 . S
C1441 C1440 1.370 . S
C1441 C1445 1.408 . S
C1442 C1440 1.363 . S
C1442 C1443 1.370 . S
C1442 C1446 1.524 . S
C1443 C1435 1.503 . S
C1443 C1442 1.370 . S
C1443 C1444 1.403 . S
C1444 C1443 1.403 . S
C1444 C1445 1.404 . S
C1444 C1447 1.539 . S
C1445 C1441 1.408 . S
C1445 C1444 1.404 . S
C1445 H1457 0.930 . S
C1446 C1442 1.524 . S
C1446 H1458 0.956 . S
C1446 H1459 0.961 . S
C1446 H1460 0.961 . S
C1447 C1444 1.539 . S
C1447 H1461 0.958 . S
C1447 H1462 0.961 . S
C1447 H1463 0.960 . S
H1448 C1432 0.931 . S
H1449 C1437 0.929 . S
H1450 C1438 0.960 . S
H1451 C1438 0.962 . S
H1452 C1438 0.960 . S
H1453 C1439 0.961 . S
H1454 C1439 0.961 . S
H1455 C1439 0.961 . S
H1456 C1440 0.931 . S
H1457 C1445 0.930 . S
H1458 C1446 0.956 . S
H1459 C1446 0.961 . S
H1460 C1446 0.961 . S
H1461 C1447 0.958 . S
H1462 C1447 0.961 . S
H1463 C1447 0.960 . S
C1464 C1465 1.391 . S
C1464 C1466 1.394 . S
C1464 H1480 0.931 . S
C1465 C1464 1.391 . S
C1465 C1469 1.376 1_554 S
C1466 C1464 1.394 . S
C1466 C1467 1.369 . S
C1466 C1470 1.531 . S
C1467 C1466 1.369 . S
C1467 C1468 1.428 . S
C1467 C1475 1.503 . S
C1468 C1467 1.428 . S
C1468 C1469 1.389 1_554 S
C1468 C1471 1.498 1_554 S
C1469 C1465 1.376 1_556 S
C1469 C1468 1.389 1_556 S
C1469 H1481 0.929 . S
C1470 C1466 1.531 . S
C1470 H1482 0.960 . S
C1470 H1483 0.962 . S
C1470 H1484 0.960 . S
C1471 C1468 1.498 1_556 S
C1471 H1485 0.961 . S
C1471 H1486 0.961 . S
C1471 H1487 0.961 1_556 S
C1472 C1473 1.370 1_556 S
C1472 C1474 1.363 . S
C1472 H1488 0.931 . S
C1473 C1472 1.370 1_554 S
C1473 C1477 1.408 . S
C1474 C1472 1.363 . S
C1474 C1475 1.370 1_556 S
C1474 C1478 1.524 . S
C1475 C1467 1.503 . S
C1475 C1474 1.370 1_554 S
C1475 C1476 1.403 . S
C1476 C1475 1.403 . S
C1476 C1477 1.404 . S
C1476 C1479 1.539 . S
C1477 C1473 1.408 . S
C1477 C1476 1.404 . S
C1477 H1489 0.930 . S
C1478 C1474 1.524 . S
C1478 H1490 0.956 . S
C1478 H1491 0.961 . S
C1478 H1492 0.961 . S
C1479 C1476 1.539 . S
C1479 H1493 0.958 . S
C1479 H1494 0.961 . S
C1479 H1495 0.960 . S
H1480 C1464 0.931 . S
H1481 C1469 0.929 . S
H1482 C1470 0.960 . S
H1483 C1470 0.962 . S
H1484 C1470 0.960 . S
H1485 C1471 0.961 . S
H1486 C1471 0.961 . S
H1487 C1471 0.961 1_554 S
H1488 C1472 0.931 . S
H1489 C1477 0.930 . S
H1490 C1478 0.956 . S
H1491 C1478 0.961 . S
H1492 C1478 0.961 . S
H1493 C1479 0.958 . S
H1494 C1479 0.961 . S
H1495 C1479 0.960 . S
C1496 C1497 1.391 . S
C1496 C1498 1.394 . S
C1496 H1512 0.931 . S
C1497 C1496 1.391 . S
C1497 C1501 1.376 . S
C1498 C1496 1.394 . S
C1498 C1499 1.369 . S
C1498 C1502 1.531 . S
C1499 C1498 1.369 . S
C1499 C1500 1.410 . S
C1499 C1507 1.503 . S
C1500 C1499 1.410 . S
C1500 C1501 1.392 . S
C1500 C1503 1.511 . S
C1501 C1497 1.376 . S
C1501 C1500 1.392 . S
C1501 H1513 0.929 . S
C1502 C1498 1.531 . S
C1502 H1514 0.960 . S
C1502 H1515 0.962 . S
C1502 H1516 0.960 . S
C1503 C1500 1.511 . S
C1503 H1517 0.961 1_554 S
C1503 H1518 0.961 1_554 S
C1503 H1519 0.961 . S
C1504 C1505 1.370 1_556 S
C1504 C1506 1.363 . S
C1504 H1520 0.931 . S
C1505 C1504 1.370 1_554 S
C1505 C1509 1.408 . S
C1506 C1504 1.363 . S
C1506 C1507 1.370 1_556 S
C1506 C1510 1.524 . S
C1507 C1499 1.503 . S
C1507 C1506 1.370 1_554 S
C1507 C1508 1.403 . S
C1508 C1507 1.403 . S
C1508 C1509 1.404 . S
C1508 C1511 1.539 . S
C1509 C1505 1.408 . S
C1509 C1508 1.404 . S
C1509 H1521 0.930 . S
C1510 C1506 1.524 . S
C1510 H1522 0.956 . S
C1510 H1523 0.961 . S
C1510 H1524 0.961 . S
C1511 C1508 1.539 . S
C1511 H1525 0.958 . S
C1511 H1526 0.961 . S
C1511 H1527 0.960 . S
H1512 C1496 0.931 . S
H1513 C1501 0.929 . S
H1514 C1502 0.960 . S
H1515 C1502 0.962 . S
H1516 C1502 0.960 . S
H1517 C1503 0.961 1_556 S
H1518 C1503 0.961 1_556 S
H1519 C1503 0.961 . S
H1520 C1504 0.931 . S
H1521 C1509 0.930 . S
H1522 C1510 0.956 . S
H1523 C1510 0.961 . S
H1524 C1510 0.961 . S
H1525 C1511 0.958 . S
H1526 C1511 0.961 . S
H1527 C1511 0.960 . S
C1528 C1529 1.391 . S
C1528 C1530 1.394 . S
C1528 H1544 0.931 . S
C1529 C1528 1.391 . S
C1529 C1533 1.376 . S
C1530 C1528 1.394 . S
C1530 C1531 1.369 . S
C1530 C1534 1.531 . S
C1531 C1530 1.369 . S
C1531 C1532 1.410 . S
C1531 C1539 1.503 . S
C1532 C1531 1.410 . S
C1532 C1533 1.392 . S
C1532 C1535 1.511 . S
C1533 C1529 1.376 . S
C1533 C1532 1.392 . S
C1533 H1545 0.929 . S
C1534 C1530 1.531 . S
C1534 H1546 0.960 . S
C1534 H1547 0.962 . S
C1534 H1548 0.960 . S
C1535 C1532 1.511 . S
C1535 H1549 0.961 1_554 S
C1535 H1550 0.961 . S
C1535 H1551 0.961 . S
C1536 C1537 1.370 1_556 S
C1536 C1538 1.363 . S
C1536 H1552 0.931 . S
C1537 C1536 1.370 1_554 S
C1537 C1541 1.408 . S
C1538 C1536 1.363 . S
C1538 C1539 1.370 1_556 S
C1538 C1542 1.524 . S
C1539 C1531 1.503 . S
C1539 C1538 1.370 1_554 S
C1539 C1540 1.403 . S
C1540 C1539 1.403 . S
C1540 C1541 1.404 . S
C1540 C1543 1.539 . S
C1541 C1537 1.408 . S
C1541 C1540 1.404 . S
C1541 H1553 0.930 . S
C1542 C1538 1.524 . S
C1542 H1554 0.956 . S
C1542 H1555 0.961 . S
C1542 H1556 0.961 . S
C1543 C1540 1.539 . S
C1543 H1557 0.958 . S
C1543 H1558 0.961 . S
C1543 H1559 0.960 . S
H1544 C1528 0.931 . S
H1545 C1533 0.929 . S
H1546 C1534 0.960 . S
H1547 C1534 0.962 . S
H1548 C1534 0.960 . S
H1549 C1535 0.961 1_556 S
H1550 C1535 0.961 . S
H1551 C1535 0.961 . S
H1552 C1536 0.931 . S
H1553 C1541 0.930 . S
H1554 C1542 0.956 . S
H1555 C1542 0.961 . S
H1556 C1542 0.961 . S
H1557 C1543 0.958 . S
H1558 C1543 0.961 . S
H1559 C1543 0.960 . S
C1560 C1561 1.391 . S
C1560 C1562 1.394 . S
C1560 H1576 0.931 . S
C1561 C1560 1.391 . S
C1561 C1565 1.376 1_554 S
C1562 C1560 1.394 . S
C1562 C1563 1.369 . S
C1562 C1566 1.531 . S
C1563 C1562 1.369 . S
C1563 C1564 1.410 1_554 S
C1563 C1571 1.503 . S
C1564 C1563 1.410 1_556 S
C1564 C1565 1.392 . S
C1564 C1567 1.511 . S
C1565 C1561 1.376 1_556 S
C1565 C1564 1.392 . S
C1565 H1577 0.929 . S
C1566 C1562 1.531 . S
C1566 H1578 0.960 . S
C1566 H1579 0.962 . S
C1566 H1580 0.960 . S
C1567 C1564 1.511 . S
C1567 H1581 0.961 . S
C1567 H1582 0.961 . S
C1567 H1583 0.961 . S
C1568 C1569 1.370 . S
C1568 C1570 1.363 . S
C1568 H1584 0.931 . S
C1569 C1568 1.370 . S
C1569 C1573 1.408 . S
C1570 C1568 1.363 . S
C1570 C1571 1.370 . S
C1570 C1574 1.524 . S
C1571 C1563 1.503 . S
C1571 C1570 1.370 . S
C1571 C1572 1.403 . S
C1572 C1571 1.403 . S
C1572 C1573 1.404 . S
C1572 C1575 1.539 . S
C1573 C1569 1.408 . S
C1573 C1572 1.404 . S
C1573 H1585 0.930 . S
C1574 C1570 1.524 . S
C1574 H1586 0.956 . S
C1574 H1587 0.961 1_554 S
C1574 H1588 0.961 . S
C1575 C1572 1.539 . S
C1575 H1589 0.958 . S
C1575 H1590 0.961 1_554 S
C1575 H1591 0.960 1_554 S
H1576 C1560 0.931 . S
H1577 C1565 0.929 . S
H1578 C1566 0.960 . S
H1579 C1566 0.962 . S
H1580 C1566 0.960 . S
H1581 C1567 0.961 . S
H1582 C1567 0.961 . S
H1583 C1567 0.961 . S
H1584 C1568 0.931 . S
H1585 C1573 0.930 . S
H1586 C1574 0.956 . S
H1587 C1574 0.961 1_556 S
H1588 C1574 0.961 . S
H1589 C1575 0.958 . S
H1590 C1575 0.961 1_556 S
H1591 C1575 0.960 1_556 S
C1592 C1593 1.391 1_655 S
C1592 C1594 1.394 . S
C1592 H1608 0.931 . S
C1593 C1592 1.391 1_455 S
C1593 C1597 1.376 . S
C1594 C1592 1.394 . S
C1594 C1595 1.369 1_655 S
C1594 C1598 1.531 . S
C1595 C1594 1.369 1_455 S
C1595 C1596 1.410 . S
C1595 C1603 1.503 . S
C1596 C1595 1.410 . S
C1596 C1597 1.392 . S
C1596 C1599 1.511 . S
C1597 C1593 1.376 . S
C1597 C1596 1.392 . S
C1597 H1609 0.929 . S
C1598 C1594 1.531 . S
C1598 H1610 0.960 . S
C1598 H1611 0.962 . S
C1598 H1612 0.960 . S
C1599 C1596 1.511 . S
C1599 H1613 0.961 . S
C1599 H1614 0.961 . S
C1599 H1615 0.961 . S
C1600 C1601 1.370 1_655 S
C1600 C1602 1.363 . S
C1600 H1616 0.931 . S
C1601 C1600 1.370 1_455 S
C1601 C1605 1.408 . S
C1602 C1600 1.363 . S
C1602 C1603 1.370 1_655 S
C1602 C1606 1.524 . S
C1603 C1595 1.503 . S
C1603 C1602 1.370 1_455 S
C1603 C1604 1.403 . S
C1604 C1603 1.403 . S
C1604 C1605 1.404 . S
C1604 C1607 1.539 . S
C1605 C1601 1.408 . S
C1605 C1604 1.404 . S
C1605 H1617 0.930 . S
C1606 C1602 1.524 . S
C1606 H1618 0.956 . S
C1606 H1619 0.961 . S
C1606 H1620 0.961 . S
C1607 C1604 1.539 . S
C1607 H1621 0.958 . S
C1607 H1622 0.961 . S
C1607 H1623 0.960 . S
H1608 C1592 0.931 . S
H1609 C1597 0.929 . S
H1610 C1598 0.960 . S
H1611 C1598 0.962 . S
H1612 C1598 0.960 . S
H1613 C1599 0.961 . S
H1614 C1599 0.961 . S
H1615 C1599 0.961 . S
H1616 C1600 0.931 . S
H1617 C1605 0.930 . S
H1618 C1606 0.956 . S
H1619 C1606 0.961 . S
H1620 C1606 0.961 . S
H1621 C1607 0.958 . S
H1622 C1607 0.961 . S
H1623 C1607 0.960 . S
C1624 C1625 1.391 1_565 S
C1624 C1626 1.394 . S
C1624 H1640 0.931 . S
C1625 C1624 1.391 1_545 S
C1625 C1629 1.376 . S
C1626 C1624 1.394 . S
C1626 C1627 1.369 1_565 S
C1626 C1630 1.531 . S
C1627 C1626 1.369 1_545 S
C1627 C1628 1.410 . S
C1627 C1635 1.503 . S
C1628 C1627 1.410 . S
C1628 C1629 1.392 . S
C1628 C1631 1.511 . S
C1629 C1625 1.376 . S
C1629 C1628 1.392 . S
C1629 H1641 0.929 . S
C1630 C1626 1.531 . S
C1630 H1642 0.960 . S
C1630 H1643 0.962 1_565 S
C1630 H1644 0.960 . S
C1631 C1628 1.511 . S
C1631 H1645 0.961 . S
C1631 H1646 0.961 . S
C1631 H1647 0.961 . S
C1632 C1633 1.370 . S
C1632 C1634 1.363 . S
C1632 H1648 0.931 . S
C1633 C1632 1.370 . S
C1633 C1637 1.408 1_545 S
C1634 C1632 1.363 . S
C1634 C1635 1.370 . S
C1634 C1638 1.524 . S
C1635 C1627 1.503 . S
C1635 C1634 1.370 . S
C1635 C1636 1.403 1_545 S
C1636 C1635 1.403 1_565 S
C1636 C1637 1.404 . S
C1636 C1639 1.539 . S
C1637 C1633 1.408 1_565 S
C1637 C1636 1.404 . S
C1637 H1649 0.930 . S
C1638 C1634 1.524 . S
C1638 H1650 0.956 . S
C1638 H1651 0.961 . S
C1638 H1652 0.961 . S
C1639 C1636 1.539 . S
C1639 H1653 0.958 . S
C1639 H1654 0.961 . S
C1639 H1655 0.960 . S
H1640 C1624 0.931 . S
H1641 C1629 0.929 . S
H1642 C1630 0.960 . S
H1643 C1630 0.962 1_545 S
H1644 C1630 0.960 . S
H1645 C1631 0.961 . S
H1646 C1631 0.961 . S
H1647 C1631 0.961 . S
H1648 C1632 0.931 . S
H1649 C1637 0.930 . S
H1650 C1638 0.956 . S
H1651 C1638 0.961 . S
H1652 C1638 0.961 . S
H1653 C1639 0.958 . S
H1654 C1639 0.961 . S
H1655 C1639 0.960 . S
C1656 C1657 1.391 . S
C1656 C1658 1.394 . S
C1656 H1672 0.931 . S
C1657 C1656 1.391 . S
C1657 C1661 1.376 . S
C1658 C1656 1.394 . S
C1658 C1659 1.369 . S
C1658 C1662 1.531 . S
C1659 C1658 1.369 . S
C1659 C1660 1.410 . S
C1659 C1667 1.503 . S
C1660 C1659 1.410 . S
C1660 C1661 1.392 . S
C1660 C1663 1.511 . S
C1661 C1657 1.376 . S
C1661 C1660 1.392 . S
C1661 H1673 0.929 . S
C1662 C1658 1.531 . S
C1662 H1674 0.960 . S
C1662 H1675 0.962 . S
C1662 H1676 0.960 . S
C1663 C1660 1.511 . S
C1663 H1677 0.961 . S
C1663 H1678 0.961 . S
C1663 H1679 0.961 1_455 S
C1664 C1665 1.370 . S
C1664 C1666 1.363 . S
C1664 H1680 0.931 . S
C1665 C1664 1.370 . S
C1665 C1669 1.408 1_455 S
C1666 C1664 1.363 . S
C1666 C1667 1.370 . S
C1666 C1670 1.524 . S
C1667 C1659 1.503 . S
C1667 C1666 1.370 . S
C1667 C1668 1.403 1_455 S
C1668 C1667 1.403 1_655 S
C1668 C1669 1.404 . S
C1668 C1671 1.539 . S
C1669 C1665 1.408 1_655 S
C1669 C1668 1.404 . S
C1669 H1681 0.930 . S
C1670 C1666 1.524 . S
C1670 H1682 0.956 . S
C1670 H1683 0.961 . S
C1670 H1684 0.961 . S
C1671 C1668 1.539 . S
C1671 H1685 0.958 . S
C1671 H1686 0.961 . S
C1671 H1687 0.960 . S
H1672 C1656 0.931 . S
H1673 C1661 0.929 . S
H1674 C1662 0.960 . S
H1675 C1662 0.962 . S
H1676 C1662 0.960 . S
H1677 C1663 0.961 . S
H1678 C1663 0.961 . S
H1679 C1663 0.961 1_655 S
H1680 C1664 0.931 . S
H1681 C1669 0.930 . S
H1682 C1670 0.956 . S
H1683 C1670 0.961 . S
H1684 C1670 0.961 . S
H1685 C1671 0.958 . S
H1686 C1671 0.961 . S
H1687 C1671 0.960 . S
C1688 C1689 1.391 . S
C1688 C1690 1.394 . S
C1688 H1704 0.931 . S
C1689 C1688 1.391 . S
C1689 C1693 1.376 . S
C1690 C1688 1.394 . S
C1690 C1691 1.369 . S
C1690 C1694 1.531 . S
C1691 C1690 1.369 . S
C1691 C1692 1.410 . S
C1691 C1699 1.503 . S
C1692 C1691 1.410 . S
C1692 C1693 1.392 . S
C1692 C1695 1.511 . S
C1693 C1689 1.376 . S
C1693 C1692 1.392 . S
C1693 H1705 0.929 . S
C1694 C1690 1.531 . S
C1694 H1706 0.960 . S
C1694 H1707 0.962 . S
C1694 H1708 0.960 . S
C1695 C1692 1.511 . S
C1695 H1709 0.961 . S
C1695 H1710 0.961 . S
C1695 H1711 0.961 1_545 S
C1696 C1697 1.370 . S
C1696 C1698 1.363 . S
C1696 H1712 0.931 . S
C1697 C1696 1.370 . S
C1697 C1701 1.408 . S
C1698 C1696 1.363 . S
C1698 C1699 1.370 . S
C1698 C1702 1.524 . S
C1699 C1691 1.503 . S
C1699 C1698 1.370 . S
C1699 C1700 1.403 . S
C1700 C1699 1.403 . S
C1700 C1701 1.404 . S
C1700 C1703 1.539 1_545 S
C1701 C1697 1.408 . S
C1701 C1700 1.404 . S
C1701 H1713 0.930 1_545 S
C1702 C1698 1.524 . S
C1702 H1714 0.956 . S
C1702 H1715 0.961 . S
C1702 H1716 0.961 . S
C1703 C1700 1.539 1_565 S
C1703 H1717 0.958 . S
C1703 H1718 0.961 . S
C1703 H1719 0.960 . S
H1704 C1688 0.931 . S
H1705 C1693 0.929 . S
H1706 C1694 0.960 . S
H1707 C1694 0.962 . S
H1708 C1694 0.960 . S
H1709 C1695 0.961 . S
H1710 C1695 0.961 . S
H1711 C1695 0.961 1_565 S
H1712 C1696 0.931 . S
H1713 C1701 0.930 1_565 S
H1714 C1702 0.956 . S
H1715 C1702 0.961 . S
H1716 C1702 0.961 . S
H1717 C1703 0.958 . S
H1718 C1703 0.961 . S
H1719 C1703 0.960 . S
C1720 C1721 1.391 . S
C1720 C1722 1.394 . S
C1720 H1736 0.931 . S
C1721 C1720 1.391 . S
C1721 C1725 1.376 . S
C1722 C1720 1.394 . S
C1722 C1723 1.369 . S
C1722 C1726 1.531 . S
C1723 C1722 1.369 . S
C1723 C1724 1.410 . S
C1723 C1731 1.503 . S
C1724 C1723 1.410 . S
C1724 C1725 1.392 . S
C1724 C1727 1.511 . S
C1725 C1721 1.376 . S
C1725 C1724 1.392 . S
C1725 H1737 0.929 . S
C1726 C1722 1.531 . S
C1726 H1738 0.960 . S
C1726 H1739 0.962 . S
C1726 H1740 0.946 1_455 S
C1727 C1724 1.511 . S
C1727 H1741 0.961 . S
C1727 H1742 0.961 . S
C1727 H1743 0.961 . S
C1728 C1729 1.370 . S
C1728 C1730 1.363 . S
C1728 H1744 0.931 . S
C1729 C1728 1.370 . S
C1729 C1733 1.408 . S
C1730 C1728 1.363 . S
C1730 C1731 1.370 . S
C1730 C1734 1.524 . S
C1731 C1723 1.503 . S
C1731 C1730 1.370 . S
C1731 C1732 1.403 . S
C1732 C1731 1.403 . S
C1732 C1733 1.404 . S
C1732 C1735 1.539 1_455 S
C1733 C1729 1.408 . S
C1733 C1732 1.404 . S
C1733 H1745 0.930 1_455 S
C1734 C1730 1.524 . S
C1734 H1746 0.956 . S
C1734 H1747 0.961 . S
C1734 H1748 0.961 . S
C1735 C1732 1.539 1_655 S
C1735 H1749 0.958 . S
C1735 H1750 0.961 . S
C1735 H1751 0.960 . S
H1736 C1720 0.931 . S
H1737 C1725 0.929 . S
H1738 C1726 0.960 . S
H1739 C1726 0.962 . S
H1740 C1726 0.946 1_655 S
H1741 C1727 0.961 . S
H1742 C1727 0.961 . S
H1743 C1727 0.961 . S
H1744 C1728 0.931 . S
H1745 C1733 0.930 1_655 S
H1746 C1734 0.956 . S
H1747 C1734 0.961 . S
H1748 C1734 0.961 . S
H1749 C1735 0.958 . S
H1750 C1735 0.961 . S
H1751 C1735 0.960 . S
C1752 C1753 1.391 . S
C1752 C1754 1.394 . S
C1752 H1768 0.931 . S
C1753 C1752 1.391 . S
C1753 C1757 1.376 . S
C1754 C1752 1.394 . S
C1754 C1755 1.369 . S
C1754 C1758 1.531 . S
C1755 C1754 1.369 . S
C1755 C1756 1.410 . S
C1755 C1763 1.503 . S
C1756 C1755 1.410 . S
C1756 C1757 1.392 . S
C1756 C1759 1.511 . S
C1757 C1753 1.376 . S
C1757 C1756 1.392 . S
C1757 H1769 0.929 . S
C1758 C1754 1.531 . S
C1758 H1770 0.960 . S
C1758 H1771 0.962 . S
C1758 H1772 0.960 . S
C1759 C1756 1.511 . S
C1759 H1773 0.961 . S
C1759 H1774 0.961 . S
C1759 H1775 0.961 . S
C1760 C1761 1.370 . S
C1760 C1762 1.363 . S
C1760 H1776 0.931 . S
C1761 C1760 1.370 . S
C1761 C1765 1.405 . S
C1762 C1760 1.363 . S
C1762 C1763 1.370 . S
C1762 C1766 1.524 . S
C1763 C1755 1.503 . S
C1763 C1762 1.370 . S
C1763 C1764 1.403 . S
C1764 C1763 1.403 . S
C1764 C1765 1.403 . S
C1764 C1767 1.539 1_545 S
C1765 C1761 1.405 . S
C1765 C1764 1.403 . S
C1765 H1777 0.933 1_545 S
C1766 C1762 1.524 . S
C1766 H1778 0.956 . S
C1766 H1779 0.961 . S
C1766 H1780 0.961 . S
C1767 C1764 1.539 1_565 S
C1767 H1781 0.958 . S
C1767 H1782 0.961 . S
C1767 H1783 0.960 . S
H1768 C1752 0.931 . S
H1769 C1757 0.929 . S
H1770 C1758 0.960 . S
H1771 C1758 0.962 . S
H1772 C1758 0.960 . S
H1773 C1759 0.961 . S
H1774 C1759 0.961 . S
H1775 C1759 0.961 . S
H1776 C1760 0.931 . S
H1777 C1765 0.933 1_565 S
H1778 C1766 0.956 . S
H1779 C1766 0.961 . S
H1780 C1766 0.961 . S
H1781 C1767 0.958 . S
H1782 C1767 0.961 . S
H1783 C1767 0.960 . S
C1784 C1785 1.391 . S
C1784 C1786 1.394 . S
C1784 H1800 0.931 . S
C1785 C1784 1.391 . S
C1785 C1789 1.376 . S
C1786 C1784 1.394 . S
C1786 C1787 1.369 . S
C1786 C1790 1.531 . S
C1787 C1786 1.369 . S
C1787 C1788 1.410 . S
C1787 C1795 1.503 . S
C1788 C1787 1.410 . S
C1788 C1789 1.392 . S
C1788 C1791 1.511 1_455 S
C1789 C1785 1.376 . S
C1789 C1788 1.392 . S
C1789 H1801 0.929 1_455 S
C1790 C1786 1.531 . S
C1790 H1802 0.960 . S
C1790 H1803 0.962 . S
C1790 H1804 0.960 . S
C1791 C1788 1.511 1_655 S
C1791 H1805 0.961 . S
C1791 H1806 0.961 . S
C1791 H1807 0.961 . S
C1792 C1793 1.370 . S
C1792 C1794 1.363 . S
C1792 H1808 0.931 . S
C1793 C1792 1.370 . S
C1793 C1797 1.408 . S
C1794 C1792 1.363 . S
C1794 C1795 1.370 . S
C1794 C1798 1.524 . S
C1795 C1787 1.503 . S
C1795 C1794 1.370 . S
C1795 C1796 1.403 . S
C1796 C1795 1.403 . S
C1796 C1797 1.404 . S
C1796 C1799 1.539 . S
C1797 C1793 1.408 . S
C1797 C1796 1.404 . S
C1797 H1809 0.930 . S
C1798 C1794 1.524 . S
C1798 H1810 0.956 . S
C1798 H1811 0.961 1_455 S
C1798 H1812 0.961 . S
C1799 C1796 1.539 . S
C1799 H1813 0.958 . S
C1799 H1814 0.961 . S
C1799 H1815 0.960 . S
H1800 C1784 0.931 . S
H1801 C1789 0.929 1_655 S
H1802 C1790 0.960 . S
H1803 C1790 0.962 . S
H1804 C1790 0.960 . S
H1805 C1791 0.961 . S
H1806 C1791 0.961 . S
H1807 C1791 0.961 . S
H1808 C1792 0.931 . S
H1809 C1797 0.930 . S
H1810 C1798 0.956 . S
H1811 C1798 0.961 1_655 S
H1812 C1798 0.961 . S
H1813 C1799 0.958 . S
H1814 C1799 0.961 . S
H1815 C1799 0.960 . S
C1816 C1817 1.391 . S
C1816 C1818 1.394 . S
C1816 H1832 0.931 . S
C1817 C1816 1.391 . S
C1817 C1821 1.376 1_545 S
C1818 C1816 1.394 . S
C1818 C1819 1.369 . S
C1818 C1822 1.531 . S
C1819 C1818 1.369 . S
C1819 C1820 1.410 1_545 S
C1819 C1827 1.503 . S
C1820 C1819 1.410 1_565 S
C1820 C1821 1.392 . S
C1820 C1823 1.511 . S
C1821 C1817 1.376 1_565 S
C1821 C1820 1.392 . S
C1821 H1833 0.929 . S
C1822 C1818 1.531 . S
C1822 H1834 0.960 . S
C1822 H1835 0.962 . S
C1822 H1836 0.960 . S
C1823 C1820 1.511 . S
C1823 H1837 0.961 . S
C1823 H1838 0.961 . S
C1823 H1839 0.961 . S
C1824 C1825 1.370 . S
C1824 C1826 1.363 . S
C1824 H1840 0.931 . S
C1825 C1824 1.370 . S
C1825 C1829 1.408 1_545 S
C1826 C1824 1.363 . S
C1826 C1827 1.370 . S
C1826 C1830 1.524 . S
C1827 C1819 1.503 . S
C1827 C1826 1.370 . S
C1827 C1828 1.403 1_545 S
C1828 C1827 1.403 1_565 S
C1828 C1829 1.404 . S
C1828 C1831 1.539 . S
C1829 C1825 1.408 1_565 S
C1829 C1828 1.404 . S
C1829 H1841 0.930 . S
C1830 C1826 1.524 . S
C1830 H1842 0.956 . S
C1830 H1843 0.961 . S
C1830 H1844 0.961 . S
C1831 C1828 1.539 . S
C1831 H1845 0.958 . S
C1831 H1846 0.961 . S
C1831 H1847 0.960 . S
H1832 C1816 0.931 . S
H1833 C1821 0.929 . S
H1834 C1822 0.960 . S
H1835 C1822 0.962 . S
H1836 C1822 0.960 . S
H1837 C1823 0.961 . S
H1838 C1823 0.961 . S
H1839 C1823 0.961 . S
H1840 C1824 0.931 . S
H1841 C1829 0.930 . S
H1842 C1830 0.956 . S
H1843 C1830 0.961 . S
H1844 C1830 0.961 . S
H1845 C1831 0.958 . S
H1846 C1831 0.961 . S
H1847 C1831 0.960 . S
C1848 C1849 1.391 . S
C1848 C1850 1.394 . S
C1848 H1864 0.931 . S
C1849 C1848 1.391 . S
C1849 C1853 1.376 . S
C1850 C1848 1.394 . S
C1850 C1851 1.369 . S
C1850 C1854 1.531 1_455 S
C1851 C1850 1.369 . S
C1851 C1852 1.410 . S
C1851 C1859 1.503 . S
C1852 C1851 1.410 . S
C1852 C1853 1.392 . S
C1852 C1855 1.511 . S
C1853 C1849 1.376 . S
C1853 C1852 1.392 . S
C1853 H1865 0.929 . S
C1854 C1850 1.531 1_655 S
C1854 H1866 0.960 . S
C1854 H1867 0.962 . S
C1854 H1868 0.960 . S
C1855 C1852 1.511 . S
C1855 H1869 0.961 . S
C1855 H1870 0.961 . S
C1855 H1871 0.961 . S
C1856 C1857 1.370 . S
C1856 C1858 1.363 . S
C1856 H1872 0.931 . S
C1857 C1856 1.370 . S
C1857 C1861 1.408 . S
C1858 C1856 1.363 . S
C1858 C1859 1.370 . S
C1858 C1862 1.524 . S
C1859 C1851 1.503 . S
C1859 C1858 1.370 . S
C1859 C1860 1.403 . S
C1860 C1859 1.403 . S
C1860 C1861 1.404 . S
C1860 C1863 1.539 . S
C1861 C1857 1.408 . S
C1861 C1860 1.404 . S
C1861 H1873 0.930 . S
C1862 C1858 1.524 . S
C1862 H1874 0.956 . S
C1862 H1875 0.961 . S
C1862 H1876 0.961 . S
C1863 C1860 1.539 . S
C1863 H1877 0.958 . S
C1863 H1878 0.961 . S
C1863 H1879 0.960 . S
H1864 C1848 0.931 . S
H1865 C1853 0.929 . S
H1866 C1854 0.960 . S
H1867 C1854 0.962 . S
H1868 C1854 0.960 . S
H1869 C1855 0.961 . S
H1870 C1855 0.961 . S
H1871 C1855 0.961 . S
H1872 C1856 0.931 . S
H1873 C1861 0.930 . S
H1874 C1862 0.956 . S
H1875 C1862 0.961 . S
H1876 C1862 0.961 . S
H1877 C1863 0.958 . S
H1878 C1863 0.961 . S
H1879 C1863 0.960 . S
C1880 C1881 1.391 . S
C1880 C1882 1.394 . S
C1880 H1896 0.931 . S
C1881 C1880 1.391 . S
C1881 C1885 1.376 . S
C1882 C1880 1.394 . S
C1882 C1883 1.369 . S
C1882 C1886 1.531 . S
C1883 C1882 1.369 . S
C1883 C1884 1.410 . S
C1883 C1891 1.503 . S
C1884 C1883 1.410 . S
C1884 C1885 1.392 . S
C1884 C1887 1.511 . S
C1885 C1881 1.376 . S
C1885 C1884 1.392 . S
C1885 H1897 0.929 . S
C1886 C1882 1.531 . S
C1886 H1898 0.960 . S
C1886 H1899 0.962 1_545 S
C1886 H1900 0.960 1_545 S
C1887 C1884 1.511 . S
C1887 H1901 0.961 . S
C1887 H1902 0.961 . S
C1887 H1903 0.961 . S
C1888 C1889 1.370 . S
C1888 C1890 1.363 . S
C1888 H1904 0.928 . S
C1889 C1888 1.370 . S
C1889 C1893 1.408 . S
C1890 C1888 1.363 . S
C1890 C1891 1.370 . S
C1890 C1894 1.524 . S
C1891 C1883 1.503 . S
C1891 C1890 1.370 . S
C1891 C1892 1.403 . S
C1892 C1891 1.403 . S
C1892 C1893 1.404 . S
C1892 C1895 1.539 . S
C1893 C1889 1.408 . S
C1893 C1892 1.404 . S
C1893 H1905 0.930 . S
C1894 C1890 1.524 . S
C1894 H1906 0.956 1_545 S
C1894 H1907 0.961 . S
C1894 H1908 0.961 1_545 S
C1895 C1892 1.539 . S
C1895 H1909 0.958 . S
C1895 H1910 0.961 . S
C1895 H1911 0.960 . S
H1896 C1880 0.931 . S
H1897 C1885 0.929 . S
H1898 C1886 0.960 . S
H1899 C1886 0.962 1_565 S
H1900 C1886 0.960 1_565 S
H1901 C1887 0.961 . S
H1902 C1887 0.961 . S
H1903 C1887 0.961 . S
H1904 C1888 0.928 . S
H1905 C1893 0.930 . S
H1906 C1894 0.956 1_565 S
H1907 C1894 0.961 . S
H1908 C1894 0.961 1_565 S
H1909 C1895 0.958 . S
H1910 C1895 0.961 . S
H1911 C1895 0.960 . S
C1912 C1913 1.391 . S
C1912 C1914 1.394 . S
C1912 H1928 0.931 1_455 S
C1913 C1912 1.391 . S
C1913 C1917 1.376 . S
C1914 C1912 1.394 . S
C1914 C1915 1.369 . S
C1914 C1918 1.531 1_455 S
C1915 C1914 1.369 . S
C1915 C1916 1.410 . S
C1915 C1923 1.503 . S
C1916 C1915 1.410 . S
C1916 C1917 1.392 . S
C1916 C1919 1.511 . S
C1917 C1913 1.376 . S
C1917 C1916 1.392 . S
C1917 H1929 0.929 . S
C1918 C1914 1.531 1_655 S
C1918 H1930 0.960 . S
C1918 H1931 0.962 . S
C1918 H1932 0.960 . S
C1919 C1916 1.511 . S
C1919 H1933 0.961 . S
C1919 H1934 0.961 . S
C1919 H1935 0.961 . S
C1920 C1921 1.370 . S
C1920 C1922 1.363 . S
C1920 H1936 0.931 . S
C1921 C1920 1.370 . S
C1921 C1925 1.408 . S
C1922 C1920 1.363 . S
C1922 C1923 1.370 . S
C1922 C1926 1.524 . S
C1923 C1915 1.503 . S
C1923 C1922 1.370 . S
C1923 C1924 1.403 . S
C1924 C1923 1.403 . S
C1924 C1925 1.404 . S
C1924 C1927 1.539 . S
C1925 C1921 1.408 . S
C1925 C1924 1.404 . S
C1925 H1937 0.930 . S
C1926 C1922 1.524 . S
C1926 H1938 0.956 . S
C1926 H1939 0.961 . S
C1926 H1940 0.961 . S
C1927 C1924 1.539 . S
C1927 H1941 0.958 . S
C1927 H1942 0.961 . S
C1927 H1943 0.960 . S
H1928 C1912 0.931 1_655 S
H1929 C1917 0.929 . S
H1930 C1918 0.960 . S
H1931 C1918 0.962 . S
H1932 C1918 0.960 . S
H1933 C1919 0.961 . S
H1934 C1919 0.961 . S
H1935 C1919 0.961 . S
H1936 C1920 0.931 . S
H1937 C1925 0.930 . S
H1938 C1926 0.956 . S
H1939 C1926 0.961 . S
H1940 C1926 0.961 . S
H1941 C1927 0.958 . S
H1942 C1927 0.961 . S
H1943 C1927 0.960 . S
C1944 C1945 1.391 . S
C1944 C1946 1.394 . S
C1944 H1960 0.931 . S
C1945 C1944 1.391 . S
C1945 C1949 1.376 1_545 S
C1946 C1944 1.394 . S
C1946 C1947 1.369 . S
C1946 C1950 1.531 . S
C1947 C1946 1.369 . S
C1947 C1948 1.418 . S
C1947 C1955 1.503 . S
C1948 C1947 1.418 . S
C1948 C1949 1.390 1_545 S
C1948 C1951 1.505 1_545 S
C1949 C1945 1.376 1_565 S
C1949 C1948 1.390 1_565 S
C1949 H1961 0.929 . S
C1950 C1946 1.531 . S
C1950 H1962 0.960 . S
C1950 H1963 0.962 . S
C1950 H1964 0.960 . S
C1951 C1948 1.505 1_565 S
C1951 H1965 0.961 . S
C1951 H1966 0.961 . S
C1951 H1967 0.961 1_565 S
C1952 C1953 1.370 1_565 S
C1952 C1954 1.363 . S
C1952 H1968 0.931 . S
C1953 C1952 1.370 1_545 S
C1953 C1957 1.408 . S
C1954 C1952 1.363 . S
C1954 C1955 1.370 1_565 S
C1954 C1958 1.524 . S
C1955 C1947 1.503 . S
C1955 C1954 1.370 1_545 S
C1955 C1956 1.403 . S
C1956 C1955 1.403 . S
C1956 C1957 1.404 . S
C1956 C1959 1.539 . S
C1957 C1953 1.408 . S
C1957 C1956 1.404 . S
C1957 H1969 0.930 . S
C1958 C1954 1.524 . S
C1958 H1970 0.956 . S
C1958 H1971 0.961 . S
C1958 H1972 0.961 . S
C1959 C1956 1.539 . S
C1959 H1973 0.958 . S
C1959 H1974 0.961 . S
C1959 H1975 0.960 . S
H1960 C1944 0.931 . S
H1961 C1949 0.929 . S
H1962 C1950 0.960 . S
H1963 C1950 0.962 . S
H1964 C1950 0.960 . S
H1965 C1951 0.961 . S
H1966 C1951 0.961 . S
H1967 C1951 0.961 1_545 S
H1968 C1952 0.931 . S
H1969 C1957 0.930 . S
H1970 C1958 0.956 . S
H1971 C1958 0.961 . S
H1972 C1958 0.961 . S
H1973 C1959 0.958 . S
H1974 C1959 0.961 . S
H1975 C1959 0.960 . S
C1976 C1977 1.391 . S
C1976 C1978 1.394 . S
C1976 H1992 0.931 . S
C1977 C1976 1.391 . S
C1977 C1981 1.376 1_455 S
C1978 C1976 1.394 . S
C1978 C1979 1.369 . S
C1978 C1982 1.531 . S
C1979 C1978 1.369 . S
C1979 C1980 1.410 1_455 S
C1979 C1987 1.503 . S
C1980 C1979 1.410 1_655 S
C1980 C1981 1.392 . S
C1980 C1983 1.511 . S
C1981 C1977 1.376 1_655 S
C1981 C1980 1.392 . S
C1981 H1993 0.929 . S
C1982 C1978 1.531 . S
C1982 H1994 0.960 . S
C1982 H1995 0.962 . S
C1982 H1996 0.960 . S
C1983 C1980 1.511 . S
C1983 H1997 0.961 . S
C1983 H1998 0.961 . S
C1983 H1999 0.961 . S
C1984 C1985 1.370 1_655 S
C1984 C1986 1.363 . S
C1984 H2000 0.931 . S
C1985 C1984 1.370 1_455 S
C1985 C1989 1.408 . S
C1986 C1984 1.363 . S
C1986 C1987 1.370 1_655 S
C1986 C1990 1.524 . S
C1987 C1979 1.503 . S
C1987 C1986 1.370 1_455 S
C1987 C1988 1.403 . S
C1988 C1987 1.403 . S
C1988 C1989 1.404 . S
C1988 C1991 1.539 . S
C1989 C1985 1.408 . S
C1989 C1988 1.404 . S
C1989 H2001 0.930 . S
C1990 C1986 1.524 . S
C1990 H2002 0.956 . S
C1990 H2003 0.961 . S
C1990 H2004 0.961 . S
C1991 C1988 1.539 . S
C1991 H2005 0.958 . S
C1991 H2006 0.961 . S
C1991 H2007 0.960 . S
H1992 C1976 0.931 . S
H1993 C1981 0.929 . S
H1994 C1982 0.960 . S
H1995 C1982 0.962 . S
H1996 C1982 0.960 . S
H1997 C1983 0.961 . S
H1998 C1983 0.961 . S
H1999 C1983 0.961 . S
H2000 C1984 0.931 . S
H2001 C1989 0.930 . S
H2002 C1990 0.956 . S
H2003 C1990 0.961 . S
H2004 C1990 0.961 . S
H2005 C1991 0.958 . S
H2006 C1991 0.961 . S
H2007 C1991 0.960 . S
C2008 C2009 1.391 1_565 S
C2008 C2010 1.394 . S
C2008 H2024 0.931 . S
C2009 C2008 1.391 1_545 S
C2009 C2013 1.376 . S
C2010 C2008 1.394 . S
C2010 C2011 1.369 1_565 S
C2010 C2014 1.531 . S
C2011 C2010 1.369 1_545 S
C2011 C2012 1.410 . S
C2011 C2019 1.503 . S
C2012 C2011 1.410 . S
C2012 C2013 1.392 . S
C2012 C2015 1.511 . S
C2013 C2009 1.376 . S
C2013 C2012 1.392 . S
C2013 H2025 0.929 . S
C2014 C2010 1.531 . S
C2014 H2026 0.960 . S
C2014 H2027 0.962 . S
C2014 H2028 0.960 . S
C2015 C2012 1.511 . S
C2015 H2029 0.961 . S
C2015 H2030 0.961 . S
C2015 H2031 0.961 . S
C2016 C2017 1.370 . S
C2016 C2018 1.363 . S
C2016 H2032 0.931 . S
C2017 C2016 1.370 . S
C2017 C2021 1.408 . S
C2018 C2016 1.363 . S
C2018 C2019 1.370 . S
C2018 C2022 1.524 . S
C2019 C2011 1.503 . S
C2019 C2018 1.370 . S
C2019 C2020 1.403 . S
C2020 C2019 1.403 . S
C2020 C2021 1.404 . S
C2020 C2023 1.539 1_545 S
C2021 C2017 1.408 . S
C2021 C2020 1.404 . S
C2021 H2033 0.928 1_545 S
C2022 C2018 1.524 . S
C2022 H2034 0.956 . S
C2022 H2035 0.961 . S
C2022 H2036 0.961 . S
C2023 C2020 1.539 1_565 S
C2023 H2037 0.958 . S
C2023 H2038 0.961 . S
C2023 H2039 0.960 . S
H2024 C2008 0.931 . S
H2025 C2013 0.929 . S
H2026 C2014 0.960 . S
H2027 C2014 0.962 . S
H2028 C2014 0.960 . S
H2029 C2015 0.961 . S
H2030 C2015 0.961 . S
H2031 C2015 0.961 . S
H2032 C2016 0.931 . S
H2033 C2021 0.928 1_565 S
H2034 C2022 0.956 . S
H2035 C2022 0.961 . S
H2036 C2022 0.961 . S
H2037 C2023 0.958 . S
H2038 C2023 0.961 . S
H2039 C2023 0.960 . S
C2040 C2041 1.391 . S
C2040 C2042 1.394 . S
C2040 H2056 0.931 . S
C2041 C2040 1.391 . S
C2041 C2045 1.376 . S
C2042 C2040 1.394 . S
C2042 C2043 1.369 . S
C2042 C2046 1.528 1_455 S
C2043 C2042 1.369 . S
C2043 C2044 1.410 . S
C2043 C2051 1.503 . S
C2044 C2043 1.410 . S
C2044 C2045 1.392 . S
C2044 C2047 1.511 . S
C2045 C2041 1.376 . S
C2045 C2044 1.392 . S
C2045 H2057 0.929 . S
C2046 C2042 1.528 1_655 S
C2046 H2058 0.958 1_655 S
C2046 H2059 0.966 . S
C2046 H2060 0.960 1_655 S
C2047 C2044 1.511 . S
C2047 H2061 0.961 . S
C2047 H2062 0.961 . S
C2047 H2063 0.961 . S
C2048 C2049 1.370 . S
C2048 C2050 1.363 . S
C2048 H2064 0.931 1_455 S
C2049 C2048 1.370 . S
C2049 C2053 1.408 . S
C2050 C2048 1.363 . S
C2050 C2051 1.370 . S
C2050 C2054 1.524 1_455 S
C2051 C2043 1.503 . S
C2051 C2050 1.370 . S
C2051 C2052 1.403 . S
C2052 C2051 1.403 . S
C2052 C2053 1.404 . S
C2052 C2055 1.539 . S
C2053 C2049 1.408 . S
C2053 C2052 1.404 . S
C2053 H2065 0.930 . S
C2054 C2050 1.524 1_655 S
C2054 H2066 0.956 . S
C2054 H2067 0.961 . S
C2054 H2068 0.961 . S
C2055 C2052 1.539 . S
C2055 H2069 0.958 . S
C2055 H2070 0.961 . S
C2055 H2071 0.960 . S
H2056 C2040 0.931 . S
H2057 C2045 0.929 . S
H2058 C2046 0.958 1_455 S
H2059 C2046 0.966 . S
H2060 C2046 0.960 1_455 S
H2061 C2047 0.961 . S
H2062 C2047 0.961 . S
H2063 C2047 0.961 . S
H2064 C2048 0.931 1_655 S
H2065 C2053 0.930 . S
H2066 C2054 0.956 . S
H2067 C2054 0.961 . S
H2068 C2054 0.961 . S
H2069 C2055 0.958 . S
H2070 C2055 0.961 . S
H2071 C2055 0.960 . S
C2072 C2073 1.391 . S
C2072 C2074 1.394 . S
C2072 H2088 0.931 . S
C2073 C2072 1.391 . S
C2073 C2077 1.376 . S
C2074 C2072 1.394 . S
C2074 C2075 1.369 . S
C2074 C2078 1.531 . S
C2075 C2074 1.369 . S
C2075 C2076 1.410 . S
C2075 C2083 1.503 . S
C2076 C2075 1.410 . S
C2076 C2077 1.392 . S
C2076 C2079 1.511 . S
C2077 C2073 1.376 . S
C2077 C2076 1.392 . S
C2077 H2089 0.929 . S
C2078 C2074 1.531 . S
C2078 H2090 0.960 . S
C2078 H2091 0.962 . S
C2078 H2092 0.960 . S
C2079 C2076 1.511 . S
C2079 H2093 0.961 . S
C2079 H2094 0.961 . S
C2079 H2095 0.961 . S
C2080 C2081 1.370 . S
C2080 C2082 1.363 . S
C2080 H2096 0.931 1_545 S
C2081 C2080 1.370 . S
C2081 C2085 1.408 . S
C2082 C2080 1.363 . S
C2082 C2083 1.370 . S
C2082 C2086 1.524 1_545 S
C2083 C2075 1.503 . S
C2083 C2082 1.370 . S
C2083 C2084 1.403 . S
C2084 C2083 1.403 . S
C2084 C2085 1.404 . S
C2084 C2087 1.539 . S
C2085 C2081 1.408 . S
C2085 C2084 1.404 . S
C2085 H2097 0.930 . S
C2086 C2082 1.524 1_565 S
C2086 H2098 0.956 . S
C2086 H2099 0.961 . S
C2086 H2100 0.961 . S
C2087 C2084 1.539 . S
C2087 H2101 0.958 . S
C2087 H2102 0.961 . S
C2087 H2103 0.960 . S
H2088 C2072 0.931 . S
H2089 C2077 0.929 . S
H2090 C2078 0.960 . S
H2091 C2078 0.962 . S
H2092 C2078 0.960 . S
H2093 C2079 0.961 . S
H2094 C2079 0.961 . S
H2095 C2079 0.961 . S
H2096 C2080 0.931 1_565 S
H2097 C2085 0.930 . S
H2098 C2086 0.956 . S
H2099 C2086 0.961 . S
H2100 C2086 0.961 . S
H2101 C2087 0.958 . S
H2102 C2087 0.961 . S
H2103 C2087 0.960 . S
C2104 C2105 1.391 1_565 S
C2104 C2106 1.394 . S
C2104 H2120 0.931 . S
C2105 C2104 1.391 1_545 S
C2105 C2109 1.376 . S
C2106 C2104 1.394 . S
C2106 C2107 1.369 1_565 S
C2106 C2110 1.531 . S
C2107 C2106 1.369 1_545 S
C2107 C2108 1.410 . S
C2107 C2115 1.503 . S
C2108 C2107 1.410 . S
C2108 C2109 1.392 . S
C2108 C2111 1.511 . S
C2109 C2105 1.376 . S
C2109 C2108 1.392 . S
C2109 H2121 0.929 . S
C2110 C2106 1.531 . S
C2110 H2122 0.960 . S
C2110 H2123 0.962 . S
C2110 H2124 0.960 . S
C2111 C2108 1.511 . S
C2111 H2125 0.961 . S
C2111 H2126 0.961 . S
C2111 H2127 0.961 . S
C2112 C2113 1.370 . S
C2112 C2114 1.363 . S
C2112 H2128 0.931 . S
C2113 C2112 1.370 . S
C2113 C2117 1.408 . S
C2114 C2112 1.363 . S
C2114 C2115 1.370 . S
C2114 C2118 1.524 . S
C2115 C2107 1.503 . S
C2115 C2114 1.370 . S
C2115 C2116 1.403 . S
C2116 C2115 1.403 . S
C2116 C2117 1.404 . S
C2116 C2119 1.539 . S
C2117 C2113 1.408 . S
C2117 C2116 1.404 . S
C2117 H2129 0.930 . S
C2118 C2114 1.524 . S
C2118 H2130 0.956 1_545 S
C2118 H2131 0.961 . S
C2118 H2132 0.961 . S
C2119 C2116 1.539 . S
C2119 H2133 0.958 1_545 S
C2119 H2134 0.961 . S
C2119 H2135 0.960 . S
H2120 C2104 0.931 . S
H2121 C2109 0.929 . S
H2122 C2110 0.960 . S
H2123 C2110 0.962 . S
H2124 C2110 0.960 . S
H2125 C2111 0.961 . S
H2126 C2111 0.961 . S
H2127 C2111 0.961 . S
H2128 C2112 0.931 . S
H2129 C2117 0.930 . S
H2130 C2118 0.956 1_565 S
H2131 C2118 0.961 . S
H2132 C2118 0.961 . S
H2133 C2119 0.958 1_565 S
H2134 C2119 0.961 . S
H2135 C2119 0.960 . S
C2136 C2137 1.391 . S
C2136 C2138 1.394 . S
C2136 H2152 0.931 1_455 S
C2137 C2136 1.391 . S
C2137 C2141 1.376 . S
C2138 C2136 1.394 . S
C2138 C2139 1.369 . S
C2138 C2142 1.531 1_455 S
C2139 C2138 1.369 . S
C2139 C2140 1.410 . S
C2139 C2147 1.503 . S
C2140 C2139 1.410 . S
C2140 C2141 1.392 . S
C2140 C2143 1.511 . S
C2141 C2137 1.376 . S
C2141 C2140 1.392 . S
C2141 H2153 0.929 . S
C2142 C2138 1.531 1_655 S
C2142 H2154 0.960 . S
C2142 H2155 0.962 . S
C2142 H2156 0.960 . S
C2143 C2140 1.511 . S
C2143 H2157 0.961 . S
C2143 H2158 0.961 . S
C2143 H2159 0.961 . S
C2144 C2145 1.370 . S
C2144 C2146 1.363 . S
C2144 H2160 0.931 . S
C2145 C2144 1.370 . S
C2145 C2149 1.408 . S
C2146 C2144 1.363 . S
C2146 C2147 1.370 . S
C2146 C2150 1.524 . S
C2147 C2139 1.503 . S
C2147 C2146 1.370 . S
C2147 C2148 1.403 . S
C2148 C2147 1.403 . S
C2148 C2149 1.404 . S
C2148 C2151 1.539 . S
C2149 C2145 1.408 . S
C2149 C2148 1.404 . S
C2149 H2161 0.930 . S
C2150 C2146 1.524 . S
C2150 H2162 0.956 . S
C2150 H2163 0.961 . S
C2150 H2164 0.961 . S
C2151 C2148 1.539 . S
C2151 H2165 0.958 . S
C2151 H2166 0.961 . S
C2151 H2167 0.960 . S
H2152 C2136 0.931 1_655 S
H2153 C2141 0.929 . S
H2154 C2142 0.960 . S
H2155 C2142 0.962 . S
H2156 C2142 0.960 . S
H2157 C2143 0.961 . S
H2158 C2143 0.961 . S
H2159 C2143 0.961 . S
H2160 C2144 0.931 . S
H2161 C2149 0.930 . S
H2162 C2150 0.956 . S
H2163 C2150 0.961 . S
H2164 C2150 0.961 . S
H2165 C2151 0.958 . S
H2166 C2151 0.961 . S
H2167 C2151 0.960 . S
C2168 C2169 1.391 . S
C2168 C2170 1.394 . S
C2168 H2184 0.931 . S
C2169 C2168 1.391 . S
C2169 C2173 1.376 . S
C2170 C2168 1.394 . S
C2170 C2171 1.369 . S
C2170 C2174 1.531 . S
C2171 C2170 1.369 . S
C2171 C2172 1.410 . S
C2171 C2179 1.503 . S
C2172 C2171 1.410 . S
C2172 C2173 1.392 . S
C2172 C2175 1.511 . S
C2173 C2169 1.376 . S
C2173 C2172 1.392 . S
C2173 H2185 0.929 . S
C2174 C2170 1.531 . S
C2174 H2186 0.960 . S
C2174 H2187 0.962 . S
C2174 H2188 0.960 . S
C2175 C2172 1.511 . S
C2175 H2189 0.961 . S
C2175 H2190 0.961 . S
C2175 H2191 0.961 1_545 S
C2176 C2177 1.370 . S
C2176 C2178 1.363 . S
C2176 H2192 0.931 . S
C2177 C2176 1.370 . S
C2177 C2181 1.408 . S
C2178 C2176 1.363 . S
C2178 C2179 1.370 . S
C2178 C2182 1.524 . S
C2179 C2171 1.503 . S
C2179 C2178 1.370 . S
C2179 C2180 1.403 . S
C2180 C2179 1.403 . S
C2180 C2181 1.404 . S
C2180 C2183 1.539 1_545 S
C2181 C2177 1.408 . S
C2181 C2180 1.404 . S
C2181 H2193 0.930 1_545 S
C2182 C2178 1.524 . S
C2182 H2194 0.956 . S
C2182 H2195 0.961 . S
C2182 H2196 0.961 . S
C2183 C2180 1.539 1_565 S
C2183 H2197 0.958 . S
C2183 H2198 0.961 . S
C2183 H2199 0.960 . S
H2184 C2168 0.931 . S
H2185 C2173 0.929 . S
H2186 C2174 0.960 . S
H2187 C2174 0.962 . S
H2188 C2174 0.960 . S
H2189 C2175 0.961 . S
H2190 C2175 0.961 . S
H2191 C2175 0.961 1_565 S
H2192 C2176 0.931 . S
H2193 C2181 0.930 1_565 S
H2194 C2182 0.956 . S
H2195 C2182 0.961 . S
H2196 C2182 0.961 . S
H2197 C2183 0.958 . S
H2198 C2183 0.961 . S
H2199 C2183 0.960 . S
C2200 C2201 1.391 . S
C2200 C2202 1.394 . S
C2200 H2216 0.931 . S
C2201 C2200 1.391 . S
C2201 C2205 1.376 . S
C2202 C2200 1.394 . S
C2202 C2203 1.369 . S
C2202 C2206 1.531 1_455 S
C2203 C2202 1.369 . S
C2203 C2204 1.410 . S
C2203 C2211 1.503 . S
C2204 C2203 1.410 . S
C2204 C2205 1.392 . S
C2204 C2207 1.511 . S
C2205 C2201 1.376 . S
C2205 C2204 1.392 . S
C2205 H2217 0.929 . S
C2206 C2202 1.531 1_655 S
C2206 H2218 0.960 . S
C2206 H2219 0.962 1_655 S
C2206 H2220 0.960 . S
C2207 C2204 1.511 . S
C2207 H2221 0.961 . S
C2207 H2222 0.961 . S
C2207 H2223 0.961 . S
C2208 C2209 1.370 . S
C2208 C2210 1.363 . S
C2208 H2224 0.931 . S
C2209 C2208 1.370 . S
C2209 C2213 1.408 1_455 S
C2210 C2208 1.363 . S
C2210 C2211 1.370 . S
C2210 C2214 1.524 . S
C2211 C2203 1.503 . S
C2211 C2210 1.370 . S
C2211 C2212 1.403 1_455 S
C2212 C2211 1.403 1_655 S
C2212 C2213 1.404 . S
C2212 C2215 1.539 . S
C2213 C2209 1.408 1_655 S
C2213 C2212 1.404 . S
C2213 H2225 0.930 . S
C2214 C2210 1.524 . S
C2214 H2226 0.956 . S
C2214 H2227 0.961 . S
C2214 H2228 0.961 . S
C2215 C2212 1.539 . S
C2215 H2229 0.958 . S
C2215 H2230 0.961 . S
C2215 H2231 0.960 . S
H2216 C2200 0.931 . S
H2217 C2205 0.929 . S
H2218 C2206 0.960 . S
H2219 C2206 0.962 1_455 S
H2220 C2206 0.960 . S
H2221 C2207 0.961 . S
H2222 C2207 0.961 . S
H2223 C2207 0.961 . S
H2224 C2208 0.931 . S
H2225 C2213 0.930 . S
H2226 C2214 0.956 . S
H2227 C2214 0.961 . S
H2228 C2214 0.961 . S
H2229 C2215 0.958 . S
H2230 C2215 0.961 . S
H2231 C2215 0.960 . S
C2232 C2233 1.391 . S
C2232 C2234 1.394 . S
C2232 H2248 0.931 . S
C2233 C2232 1.391 . S
C2233 C2237 1.376 1_545 S
C2234 C2232 1.394 . S
C2234 C2235 1.369 . S
C2234 C2238 1.531 . S
C2235 C2234 1.369 . S
C2235 C2236 1.410 1_545 S
C2235 C2243 1.503 . S
C2236 C2235 1.410 1_565 S
C2236 C2237 1.392 . S
C2236 C2239 1.511 . S
C2237 C2233 1.376 1_565 S
C2237 C2236 1.392 . S
C2237 H2249 0.929 . S
C2238 C2234 1.531 . S
C2238 H2250 0.960 . S
C2238 H2251 0.962 . S
C2238 H2252 0.960 . S
C2239 C2236 1.511 . S
C2239 H2253 0.961 . S
C2239 H2254 0.961 . S
C2239 H2255 0.961 . S
C2240 C2241 1.370 . S
C2240 C2242 1.363 . S
C2240 H2256 0.931 . S
C2241 C2240 1.370 . S
C2241 C2245 1.408 1_545 S
C2242 C2240 1.363 . S
C2242 C2243 1.370 . S
C2242 C2246 1.524 . S
C2243 C2235 1.503 . S
C2243 C2242 1.370 . S
C2243 C2244 1.403 1_545 S
C2244 C2243 1.403 1_565 S
C2244 C2245 1.404 . S
C2244 C2247 1.539 . S
C2245 C2241 1.408 1_565 S
C2245 C2244 1.404 . S
C2245 H2257 0.930 . S
C2246 C2242 1.524 . S
C2246 H2258 0.956 . S
C2246 H2259 0.961 . S
C2246 H2260 0.961 . S
C2247 C2244 1.539 . S
C2247 H2261 0.958 . S
C2247 H2262 0.961 . S
C2247 H2263 0.960 . S
H2248 C2232 0.931 . S
H2249 C2237 0.929 . S
H2250 C2238 0.960 . S
H2251 C2238 0.962 . S
H2252 C2238 0.960 . S
H2253 C2239 0.961 . S
H2254 C2239 0.961 . S
H2255 C2239 0.961 . S
H2256 C2240 0.931 . S
H2257 C2245 0.930 . S
H2258 C2246 0.956 . S
H2259 C2246 0.961 . S
H2260 C2246 0.961 . S
H2261 C2247 0.958 . S
H2262 C2247 0.961 . S
H2263 C2247 0.960 . S
C2264 C2265 1.391 . S
C2264 C2266 1.394 . S
C2264 H2280 0.931 . S
C2265 C2264 1.391 . S
C2265 C2269 1.376 . S
C2266 C2264 1.394 . S
C2266 C2267 1.369 . S
C2266 C2270 1.531 . S
C2267 C2266 1.369 . S
C2267 C2268 1.410 . S
C2267 C2275 1.503 . S
C2268 C2267 1.410 . S
C2268 C2269 1.392 . S
C2268 C2271 1.511 1_455 S
C2269 C2265 1.376 . S
C2269 C2268 1.392 . S
C2269 H2281 0.929 1_455 S
C2270 C2266 1.531 . S
C2270 H2282 0.960 . S
C2270 H2283 0.962 . S
C2270 H2284 0.960 . S
C2271 C2268 1.511 1_655 S
C2271 H2285 0.961 . S
C2271 H2286 0.961 . S
C2271 H2287 0.961 . S
C2272 C2273 1.370 . S
C2272 C2274 1.363 . S
C2272 H2288 0.931 . S
C2273 C2272 1.370 . S
C2273 C2277 1.408 . S
C2274 C2272 1.363 . S
C2274 C2275 1.370 . S
C2274 C2278 1.524 . S
C2275 C2267 1.503 . S
C2275 C2274 1.370 . S
C2275 C2276 1.403 . S
C2276 C2275 1.403 . S
C2276 C2277 1.404 . S
C2276 C2279 1.539 . S
C2277 C2273 1.408 . S
C2277 C2276 1.404 . S
C2277 H2289 0.930 . S
C2278 C2274 1.524 . S
C2278 H2290 0.956 . S
C2278 H2291 0.961 . S
C2278 H2292 0.961 . S
C2279 C2276 1.539 . S
C2279 H2293 0.958 . S
C2279 H2294 0.961 1_455 S
C2279 H2295 0.960 . S
H2280 C2264 0.931 . S
H2281 C2269 0.929 1_655 S
H2282 C2270 0.960 . S
H2283 C2270 0.962 . S
H2284 C2270 0.960 . S
H2285 C2271 0.961 . S
H2286 C2271 0.961 . S
H2287 C2271 0.961 . S
H2288 C2272 0.931 . S
H2289 C2277 0.930 . S
H2290 C2278 0.956 . S
H2291 C2278 0.961 . S
H2292 C2278 0.961 . S
H2293 C2279 0.958 . S
H2294 C2279 0.961 1_655 S
H2295 C2279 0.960 . S
C2296 C2297 1.391 . S
C2296 C2298 1.394 . S
C2296 H2312 0.931 . S
C2297 C2296 1.391 . S
C2297 C2301 1.376 . S
C2298 C2296 1.394 . S
C2298 C2299 1.369 . S
C2298 C2302 1.531 . S
C2299 C2298 1.369 . S
C2299 C2300 1.410 . S
C2299 C2307 1.503 . S
C2300 C2299 1.410 . S
C2300 C2301 1.392 . S
C2300 C2303 1.511 . S
C2301 C2297 1.376 . S
C2301 C2300 1.392 . S
C2301 H2313 0.929 . S
C2302 C2298 1.531 . S
C2302 H2314 0.960 . S
C2302 H2315 0.962 . S
C2302 H2316 0.960 . S
C2303 C2300 1.511 . S
C2303 H2317 0.961 . S
C2303 H2318 0.961 . S
C2303 H2319 0.961 . S
C2304 C2305 1.370 . S
C2304 C2306 1.363 . S
C2304 H2320 0.931 1_545 S
C2305 C2304 1.370 . S
C2305 C2309 1.408 . S
C2306 C2304 1.363 . S
C2306 C2307 1.370 . S
C2306 C2310 1.524 1_545 S
C2307 C2299 1.503 . S
C2307 C2306 1.370 . S
C2307 C2308 1.403 . S
C2308 C2307 1.403 . S
C2308 C2309 1.404 . S
C2308 C2311 1.539 . S
C2309 C2305 1.408 . S
C2309 C2308 1.404 . S
C2309 H2321 0.930 . S
C2310 C2306 1.524 1_565 S
C2310 H2322 0.956 . S
C2310 H2323 0.961 . S
C2310 H2324 0.961 . S
C2311 C2308 1.539 . S
C2311 H2325 0.958 . S
C2311 H2326 0.961 . S
C2311 H2327 0.960 . S
H2312 C2296 0.931 . S
H2313 C2301 0.929 . S
H2314 C2302 0.960 . S
H2315 C2302 0.962 . S
H2316 C2302 0.960 . S
H2317 C2303 0.961 . S
H2318 C2303 0.961 . S
H2319 C2303 0.961 . S
H2320 C2304 0.931 1_565 S
H2321 C2309 0.930 . S
H2322 C2310 0.956 . S
H2323 C2310 0.961 . S
H2324 C2310 0.961 . S
H2325 C2311 0.958 . S
H2326 C2311 0.961 . S
H2327 C2311 0.960 . S
C2328 C2329 1.391 1_655 S
C2328 C2330 1.402 . S
C2328 H2344 0.931 . S
C2329 C2328 1.391 1_455 S
C2329 C2333 1.376 . S
C2330 C2328 1.402 . S
C2330 C2331 1.343 1_655 S
C2330 C2334 1.550 . S
C2331 C2330 1.343 1_455 S
C2331 C2332 1.410 . S
C2331 C2339 1.503 . S
C2332 C2331 1.410 . S
C2332 C2333 1.392 . S
C2332 C2335 1.511 . S
C2333 C2329 1.376 . S
C2333 C2332 1.392 . S
C2333 H2345 0.929 . S
C2334 C2330 1.550 . S
C2334 H2346 0.960 . S
C2334 H2347 0.962 . S
C2334 H2348 0.960 . S
C2335 C2332 1.511 . S
C2335 H2349 0.961 . S
C2335 H2350 0.961 . S
C2335 H2351 0.961 . S
C2336 C2337 1.370 . S
C2336 C2338 1.361 1_455 S
C2336 H2352 0.931 1_455 S
C2337 C2336 1.370 . S
C2337 C2341 1.408 . S
C2338 C2336 1.361 1_655 S
C2338 C2339 1.345 1_655 S
C2338 C2342 1.553 . S
C2339 C2331 1.503 . S
C2339 C2338 1.345 1_455 S
C2339 C2340 1.403 . S
C2340 C2339 1.403 . S
C2340 C2341 1.404 . S
C2340 C2343 1.539 . S
C2341 C2337 1.408 . S
C2341 C2340 1.404 . S
C2341 H2353 0.930 . S
C2342 C2338 1.553 . S
C2342 H2354 0.956 . S
C2342 H2355 0.961 . S
C2342 H2356 0.961 . S
C2343 C2340 1.539 . S
C2343 H2357 0.958 . S
C2343 H2358 0.961 . S
C2343 H2359 0.960 . S
H2344 C2328 0.931 . S
H2345 C2333 0.929 . S
H2346 C2334 0.960 . S
H2347 C2334 0.962 . S
H2348 C2334 0.960 . S
H2349 C2335 0.961 . S
H2350 C2335 0.961 . S
H2351 C2335 0.961 . S
H2352 C2336 0.931 1_655 S
H2353 C2341 0.930 . S
H2354 C2342 0.956 . S
H2355 C2342 0.961 . S
H2356 C2342 0.961 . S
H2357 C2343 0.958 . S
H2358 C2343 0.961 . S
H2359 C2343 0.960 . S
C2360 C2361 1.391 . S
C2360 C2362 1.394 . S
C2360 H2376 0.931 . S
C2361 C2360 1.391 . S
C2361 C2365 1.376 1_554 S
C2362 C2360 1.394 . S
C2362 C2363 1.369 . S
C2362 C2366 1.531 . S
C2363 C2362 1.369 . S
C2363 C2364 1.410 1_554 S
C2363 C2371 1.503 . S
C2364 C2363 1.410 1_556 S
C2364 C2365 1.392 . S
C2364 C2367 1.511 . S
C2365 C2361 1.376 1_556 S
C2365 C2364 1.392 . S
C2365 H2377 0.929 . S
C2366 C2362 1.531 . S
C2366 H2378 0.960 . S
C2366 H2379 0.962 . S
C2366 H2380 0.960 . S
C2367 C2364 1.511 . S
C2367 H2381 0.961 . S
C2367 H2382 0.961 . S
C2367 H2383 0.961 . S
C2368 C2369 1.370 . S
C2368 C2370 1.363 . S
C2368 H2384 0.931 . S
C2369 C2368 1.370 . S
C2369 C2373 1.408 . S
C2370 C2368 1.363 . S
C2370 C2371 1.370 . S
C2370 C2374 1.524 . S
C2371 C2363 1.503 . S
C2371 C2370 1.370 . S
C2371 C2372 1.403 . S
C2372 C2371 1.403 . S
C2372 C2373 1.404 . S
C2372 C2375 1.539 . S
C2373 C2369 1.408 . S
C2373 C2372 1.404 . S
C2373 H2385 0.930 . S
C2374 C2370 1.524 . S
C2374 H2386 0.956 . S
C2374 H2387 0.961 . S
C2374 H2388 0.961 . S
C2375 C2372 1.539 . S
C2375 H2389 0.958 . S
C2375 H2390 0.961 . S
C2375 H2391 0.960 . S
H2376 C2360 0.931 . S
H2377 C2365 0.929 . S
H2378 C2366 0.960 . S
H2379 C2366 0.962 . S
H2380 C2366 0.960 . S
H2381 C2367 0.961 . S
H2382 C2367 0.961 . S
H2383 C2367 0.961 . S
H2384 C2368 0.931 . S
H2385 C2373 0.930 . S
H2386 C2374 0.956 . S
H2387 C2374 0.961 . S
H2388 C2374 0.961 . S
H2389 C2375 0.958 . S
H2390 C2375 0.961 . S
H2391 C2375 0.960 . S
C2392 C2393 1.391 . S
C2392 C2394 1.394 . S
C2392 H2408 0.931 . S
C2393 C2392 1.391 . S
C2393 C2397 1.376 . S
C2394 C2392 1.394 . S
C2394 C2395 1.369 . S
C2394 C2398 1.531 . S
C2395 C2394 1.369 . S
C2395 C2396 1.410 . S
C2395 C2403 1.503 . S
C2396 C2395 1.410 . S
C2396 C2397 1.392 . S
C2396 C2399 1.511 . S
C2397 C2393 1.376 . S
C2397 C2396 1.392 . S
C2397 H2409 0.929 . S
C2398 C2394 1.531 . S
C2398 H2410 0.960 . S
C2398 H2411 0.962 . S
C2398 H2412 0.960 . S
C2399 C2396 1.511 . S
C2399 H2413 0.961 . S
C2399 H2414 0.961 . S
C2399 H2415 0.961 . S
C2400 C2401 1.370 1_556 S
C2400 C2402 1.363 . S
C2400 H2416 0.931 . S
C2401 C2400 1.370 1_554 S
C2401 C2405 1.408 . S
C2402 C2400 1.363 . S
C2402 C2403 1.370 1_556 S
C2402 C2406 1.524 . S
C2403 C2395 1.503 . S
C2403 C2402 1.370 1_554 S
C2403 C2404 1.403 . S
C2404 C2403 1.403 . S
C2404 C2405 1.404 . S
C2404 C2407 1.539 . S
C2405 C2401 1.408 . S
C2405 C2404 1.404 . S
C2405 H2417 0.930 . S
C2406 C2402 1.524 . S
C2406 H2418 0.956 . S
C2406 H2419 0.961 . S
C2406 H2420 0.961 . S
C2407 C2404 1.539 . S
C2407 H2421 0.958 . S
C2407 H2422 0.961 . S
C2407 H2423 0.960 . S
H2408 C2392 0.931 . S
H2409 C2397 0.929 . S
H2410 C2398 0.960 . S
H2411 C2398 0.962 . S
H2412 C2398 0.960 . S
H2413 C2399 0.961 . S
H2414 C2399 0.961 . S
H2415 C2399 0.961 . S
H2416 C2400 0.931 . S
H2417 C2405 0.930 . S
H2418 C2406 0.956 . S
H2419 C2406 0.961 . S
H2420 C2406 0.961 . S
H2421 C2407 0.958 . S
H2422 C2407 0.961 . S
H2423 C2407 0.960 . S
C2424 C2425 1.391 . S
C2424 C2426 1.394 . S
C2424 H2440 0.931 . S
C2425 C2424 1.391 . S
C2425 C2429 1.376 . S
C2426 C2424 1.394 . S
C2426 C2427 1.369 . S
C2426 C2430 1.531 . S
C2427 C2426 1.369 . S
C2427 C2428 1.410 . S
C2427 C2435 1.503 . S
C2428 C2427 1.410 . S
C2428 C2429 1.392 . S
C2428 C2431 1.511 . S
C2429 C2425 1.376 . S
C2429 C2428 1.392 . S
C2429 H2441 0.929 . S
C2430 C2426 1.531 . S
C2430 H2442 0.960 . S
C2430 H2443 0.962 1_554 S
C2430 H2444 0.960 . S
C2431 C2428 1.511 . S
C2431 H2445 0.961 . S
C2431 H2446 0.961 . S
C2431 H2447 0.961 . S
C2432 C2433 1.370 1_556 S
C2432 C2434 1.363 . S
C2432 H2448 0.931 . S
C2433 C2432 1.370 1_554 S
C2433 C2437 1.408 . S
C2434 C2432 1.363 . S
C2434 C2435 1.370 1_556 S
C2434 C2438 1.524 . S
C2435 C2427 1.503 . S
C2435 C2434 1.370 1_554 S
C2435 C2436 1.403 . S
C2436 C2435 1.403 . S
C2436 C2437 1.404 . S
C2436 C2439 1.539 . S
C2437 C2433 1.408 . S
C2437 C2436 1.404 . S
C2437 H2449 0.930 . S
C2438 C2434 1.524 . S
C2438 H2450 0.956 . S
C2438 H2451 0.961 . S
C2438 H2452 0.961 . S
C2439 C2436 1.539 . S
C2439 H2453 0.958 . S
C2439 H2454 0.961 . S
C2439 H2455 0.960 . S
H2440 C2424 0.931 . S
H2441 C2429 0.929 . S
H2442 C2430 0.960 . S
H2443 C2430 0.962 1_556 S
H2444 C2430 0.960 . S
H2445 C2431 0.961 . S
H2446 C2431 0.961 . S
H2447 C2431 0.961 . S
H2448 C2432 0.931 . S
H2449 C2437 0.930 . S
H2450 C2438 0.956 . S
H2451 C2438 0.961 . S
H2452 C2438 0.961 . S
H2453 C2439 0.958 . S
H2454 C2439 0.961 . S
H2455 C2439 0.960 . S
C2456 C2457 1.390 . S
C2456 C2458 1.394 . S
C2456 H2472 0.931 . S
C2457 C2456 1.390 . S
C2457 C2461 1.377 1_556 S
C2458 C2456 1.394 . S
C2458 C2459 1.369 . S
C2458 C2462 1.531 . S
C2459 C2458 1.369 . S
C2459 C2460 1.410 1_556 S
C2459 C2467 1.503 . S
C2460 C2459 1.410 1_554 S
C2460 C2461 1.392 . S
C2460 C2463 1.511 . S
C2461 C2457 1.377 1_554 S
C2461 C2460 1.392 . S
C2461 H2473 0.929 . S
C2462 C2458 1.531 . S
C2462 H2474 0.960 . S
C2462 H2475 0.962 . S
C2462 H2476 0.960 . S
C2463 C2460 1.511 . S
C2463 H2477 0.961 . S
C2463 H2478 0.961 . S
C2463 H2479 0.961 . S
C2464 C2465 1.370 . S
C2464 C2466 1.363 . S
C2464 H2480 0.931 . S
C2465 C2464 1.370 . S
C2465 C2469 1.408 1_554 S
C2466 C2464 1.363 . S
C2466 C2467 1.370 1_554 S
C2466 C2470 1.524 . S
C2467 C2459 1.503 . S
C2467 C2466 1.370 1_556 S
C2467 C2468 1.403 . S
C2468 C2467 1.403 . S
C2468 C2469 1.404 . S
C2468 C2471 1.539 . S
C2469 C2465 1.408 1_556 S
C2469 C2468 1.404 . S
C2469 H2481 0.930 . S
C2470 C2466 1.524 . S
C2470 H2482 0.956 . S
C2470 H2483 0.961 . S
C2470 H2484 0.961 . S
C2471 C2468 1.539 . S
C2471 H2485 0.958 . S
C2471 H2486 0.961 . S
C2471 H2487 0.960 . S
H2472 C2456 0.931 . S
H2473 C2461 0.929 . S
H2474 C2462 0.960 . S
H2475 C2462 0.962 . S
H2476 C2462 0.960 . S
H2477 C2463 0.961 . S
H2478 C2463 0.961 . S
H2479 C2463 0.961 . S
H2480 C2464 0.931 . S
H2481 C2469 0.930 . S
H2482 C2470 0.956 . S
H2483 C2470 0.961 . S
H2484 C2470 0.961 . S
H2485 C2471 0.958 . S
H2486 C2471 0.961 . S
H2487 C2471 0.960 . S
C2488 C2489 1.391 1_556 S
C2488 C2490 1.394 . S
C2488 H2504 0.931 . S
C2489 C2488 1.391 1_554 S
C2489 C2493 1.376 . S
C2490 C2488 1.394 . S
C2490 C2491 1.369 1_556 S
C2490 C2494 1.531 . S
C2491 C2490 1.369 1_554 S
C2491 C2492 1.410 . S
C2491 C2499 1.503 . S
C2492 C2491 1.410 . S
C2492 C2493 1.392 . S
C2492 C2495 1.511 . S
C2493 C2489 1.376 . S
C2493 C2492 1.392 . S
C2493 H2505 0.929 . S
C2494 C2490 1.531 . S
C2494 H2506 0.960 . S
C2494 H2507 0.962 . S
C2494 H2508 0.960 . S
C2495 C2492 1.511 . S
C2495 H2509 0.961 . S
C2495 H2510 0.961 . S
C2495 H2511 0.961 . S
C2496 C2497 1.370 . S
C2496 C2498 1.363 . S
C2496 H2512 0.931 . S
C2497 C2496 1.370 . S
C2497 C2501 1.403 1_554 S
C2498 C2496 1.363 . S
C2498 C2499 1.370 . S
C2498 C2502 1.524 . S
C2499 C2491 1.503 . S
C2499 C2498 1.370 . S
C2499 C2500 1.403 1_554 S
C2500 C2499 1.403 1_556 S
C2500 C2501 1.405 . S
C2500 C2503 1.539 . S
C2501 C2497 1.403 1_556 S
C2501 C2500 1.405 . S
C2501 H2513 0.934 . S
C2502 C2498 1.524 . S
C2502 H2514 0.956 . S
C2502 H2515 0.961 . S
C2502 H2516 0.961 . S
C2503 C2500 1.539 . S
C2503 H2517 0.958 . S
C2503 H2518 0.961 . S
C2503 H2519 0.960 . S
H2504 C2488 0.931 . S
H2505 C2493 0.929 . S
H2506 C2494 0.960 . S
H2507 C2494 0.962 . S
H2508 C2494 0.960 . S
H2509 C2495 0.961 . S
H2510 C2495 0.961 . S
H2511 C2495 0.961 . S
H2512 C2496 0.931 . S
H2513 C2501 0.934 . S
H2514 C2502 0.956 . S
H2515 C2502 0.961 . S
H2516 C2502 0.961 . S
H2517 C2503 0.958 . S
H2518 C2503 0.961 . S
H2519 C2503 0.960 . S
C2520 C2521 1.391 1_556 S
C2520 C2522 1.394 . S
C2520 H2536 0.931 . S
C2521 C2520 1.391 1_554 S
C2521 C2525 1.376 . S
C2522 C2520 1.394 . S
C2522 C2523 1.369 . S
C2522 C2526 1.531 . S
C2523 C2522 1.369 . S
C2523 C2524 1.407 1_556 S
C2523 C2531 1.503 1_556 S
C2524 C2523 1.407 1_554 S
C2524 C2525 1.395 . S
C2524 C2527 1.513 . S
C2525 C2521 1.376 . S
C2525 C2524 1.395 . S
C2525 H2537 0.929 . S
C2526 C2522 1.531 . S
C2526 H2538 0.960 . S
C2526 H2539 0.962 1_556 S
C2526 H2540 0.960 . S
C2527 C2524 1.513 . S
C2527 H2541 0.961 . S
C2527 H2542 0.961 . S
C2527 H2543 0.961 1_554 S
C2528 C2529 1.370 . S
C2528 C2530 1.363 . S
C2528 H2544 0.931 . S
C2529 C2528 1.370 . S
C2529 C2533 1.408 1_554 S
C2530 C2528 1.363 . S
C2530 C2531 1.377 . S
C2530 C2534 1.524 . S
C2531 C2523 1.503 1_554 S
C2531 C2530 1.377 . S
C2531 C2532 1.397 1_554 S
C2532 C2531 1.397 1_556 S
C2532 C2533 1.404 . S
C2532 C2535 1.539 . S
C2533 C2529 1.408 1_556 S
C2533 C2532 1.404 . S
C2533 H2545 0.930 . S
C2534 C2530 1.524 . S
C2534 H2546 0.956 . S
C2534 H2547 0.961 . S
C2534 H2548 0.961 . S
C2535 C2532 1.539 . S
C2535 H2549 0.958 . S
C2535 H2550 0.961 . S
C2535 H2551 0.960 . S
H2536 C2520 0.931 . S
H2537 C2525 0.929 . S
H2538 C2526 0.960 . S
H2539 C2526 0.962 1_554 S
H2540 C2526 0.960 . S
H2541 C2527 0.961 . S
H2542 C2527 0.961 . S
H2543 C2527 0.961 1_556 S
H2544 C2528 0.931 . S
H2545 C2533 0.930 . S
H2546 C2534 0.956 . S
H2547 C2534 0.961 . S
H2548 C2534 0.961 . S
H2549 C2535 0.958 . S
H2550 C2535 0.961 . S
H2551 C2535 0.960 . S
C2552 C2553 1.391 . S
C2552 C2554 1.394 . S
C2552 H2568 0.931 . S
C2553 C2552 1.391 . S
C2553 C2557 1.376 1_554 S
C2554 C2552 1.394 . S
C2554 C2555 1.369 . S
C2554 C2558 1.531 . S
C2555 C2554 1.369 . S
C2555 C2556 1.410 1_554 S
C2555 C2563 1.503 . S
C2556 C2555 1.410 1_556 S
C2556 C2557 1.392 . S
C2556 C2559 1.511 . S
C2557 C2553 1.376 1_556 S
C2557 C2556 1.392 . S
C2557 H2569 0.929 . S
C2558 C2554 1.531 . S
C2558 H2570 0.960 . S
C2558 H2571 0.962 . S
C2558 H2572 0.960 . S
C2559 C2556 1.511 . S
C2559 H2573 0.961 . S
C2559 H2574 0.961 . S
C2559 H2575 0.961 . S
C2560 C2561 1.370 . S
C2560 C2562 1.363 . S
C2560 H2576 0.931 1_554 S
C2561 C2560 1.370 . S
C2561 C2565 1.408 . S
C2562 C2560 1.363 . S
C2562 C2563 1.370 . S
C2562 C2566 1.524 1_554 S
C2563 C2555 1.503 . S
C2563 C2562 1.370 . S
C2563 C2564 1.403 . S
C2564 C2563 1.403 . S
C2564 C2565 1.404 . S
C2564 C2567 1.539 . S
C2565 C2561 1.408 . S
C2565 C2564 1.404 . S
C2565 H2577 0.930 . S
C2566 C2562 1.524 1_556 S
C2566 H2578 0.956 1_556 S
C2566 H2579 0.961 . S
C2566 H2580 0.961 . S
C2567 C2564 1.539 . S
C2567 H2581 0.958 . S
C2567 H2582 0.961 . S
C2567 H2583 0.960 . S
H2568 C2552 0.931 . S
H2569 C2557 0.929 . S
H2570 C2558 0.960 . S
H2571 C2558 0.962 . S
H2572 C2558 0.960 . S
H2573 C2559 0.961 . S
H2574 C2559 0.961 . S
H2575 C2559 0.961 . S
H2576 C2560 0.931 1_556 S
H2577 C2565 0.930 . S
H2578 C2566 0.956 1_554 S
H2579 C2566 0.961 . S
H2580 C2566 0.961 . S
H2581 C2567 0.958 . S
H2582 C2567 0.961 . S
H2583 C2567 0.960 . S
C2584 C2585 1.373 1_556 S
C2584 C2586 1.394 . S
C2584 H2600 0.931 . S
C2585 C2584 1.373 1_554 S
C2585 C2589 1.393 . S
C2586 C2584 1.394 . S
C2586 C2587 1.377 . S
C2586 C2590 1.531 . S
C2587 C2586 1.377 . S
C2587 C2588 1.401 1_556 S
C2587 C2595 1.502 1_556 S
C2588 C2587 1.401 1_554 S
C2588 C2589 1.392 . S
C2588 C2591 1.511 . S
C2589 C2585 1.393 . S
C2589 C2588 1.392 . S
C2589 H2601 0.929 . S
C2590 C2586 1.531 . S
C2590 H2602 0.960 . S
C2590 H2603 0.962 . S
C2590 H2604 0.960 . S
C2591 C2588 1.511 . S
C2591 H2605 0.961 . S
C2591 H2606 0.961 . S
C2591 H2607 0.961 . S
C2592 C2593 1.370 . S
C2592 C2594 1.363 . S
C2592 H2608 0.931 . S
C2593 C2592 1.370 . S
C2593 C2597 1.408 1_554 S
C2594 C2592 1.363 . S
C2594 C2595 1.370 . S
C2594 C2598 1.524 . S
C2595 C2587 1.502 1_554 S
C2595 C2594 1.370 . S
C2595 C2596 1.403 1_554 S
C2596 C2595 1.403 1_556 S
C2596 C2597 1.404 . S
C2596 C2599 1.539 . S
C2597 C2593 1.408 1_556 S
C2597 C2596 1.404 . S
C2597 H2609 0.930 . S
C2598 C2594 1.524 . S
C2598 H2610 0.956 . S
C2598 H2611 0.961 . S
C2598 H2612 0.961 . S
C2599 C2596 1.539 . S
C2599 H2613 0.958 . S
C2599 H2614 0.961 . S
C2599 H2615 0.960 . S
H2600 C2584 0.931 . S
H2601 C2589 0.929 . S
H2602 C2590 0.960 . S
H2603 C2590 0.962 . S
H2604 C2590 0.960 . S
H2605 C2591 0.961 . S
H2606 C2591 0.961 . S
H2607 C2591 0.961 . S
H2608 C2592 0.931 . S
H2609 C2597 0.930 . S
H2610 C2598 0.956 . S
H2611 C2598 0.961 . S
H2612 C2598 0.961 . S
H2613 C2599 0.958 . S
H2614 C2599 0.961 . S
H2615 C2599 0.960 . S
C2616 C2617 1.391 . S
C2616 C2618 1.394 . S
C2616 H2632 0.931 . S
C2617 C2616 1.391 . S
C2617 C2621 1.376 . S
C2618 C2616 1.394 . S
C2618 C2619 1.369 . S
C2618 C2622 1.531 . S
C2619 C2618 1.369 . S
C2619 C2620 1.410 . S
C2619 C2627 1.503 . S
C2620 C2619 1.410 . S
C2620 C2621 1.392 . S
C2620 C2623 1.511 . S
C2621 C2617 1.376 . S
C2621 C2620 1.392 . S
C2621 H2633 0.929 . S
C2622 C2618 1.531 . S
C2622 H2634 0.960 . S
C2622 H2635 0.962 . S
C2622 H2636 0.960 . S
C2623 C2620 1.511 . S
C2623 H2637 0.961 . S
C2623 H2638 0.961 . S
C2623 H2639 0.961 . S
C2624 C2625 1.370 . S
C2624 C2626 1.363 . S
C2624 H2640 0.931 . S
C2625 C2624 1.370 . S
C2625 C2629 1.408 . S
C2626 C2624 1.363 . S
C2626 C2627 1.370 . S
C2626 C2630 1.524 . S
C2627 C2619 1.503 . S
C2627 C2626 1.370 . S
C2627 C2628 1.403 . S
C2628 C2627 1.403 . S
C2628 C2629 1.404 . S
C2628 C2631 1.539 . S
C2629 C2625 1.408 . S
C2629 C2628 1.404 . S
C2629 H2641 0.930 . S
C2630 C2626 1.524 . S
C2630 H2642 0.956 . S
C2630 H2643 0.961 . S
C2630 H2644 0.961 . S
C2631 C2628 1.539 . S
C2631 H2645 0.958 . S
C2631 H2646 0.961 . S
C2631 H2647 0.960 . S
H2632 C2616 0.931 . S
H2633 C2621 0.929 . S
H2634 C2622 0.960 . S
H2635 C2622 0.962 . S
H2636 C2622 0.960 . S
H2637 C2623 0.961 . S
H2638 C2623 0.961 . S
H2639 C2623 0.961 . S
H2640 C2624 0.931 . S
H2641 C2629 0.930 . S
H2642 C2630 0.956 . S
H2643 C2630 0.961 . S
H2644 C2630 0.961 . S
H2645 C2631 0.958 . S
H2646 C2631 0.961 . S
H2647 C2631 0.960 . S
C2648 C2649 1.391 . S
C2648 C2650 1.394 . S
C2648 H2664 0.931 . S
C2649 C2648 1.391 . S
C2649 C2653 1.376 . S
C2650 C2648 1.394 . S
C2650 C2651 1.369 . S
C2650 C2654 1.531 . S
C2651 C2650 1.369 . S
C2651 C2652 1.410 . S
C2651 C2659 1.503 . S
C2652 C2651 1.410 . S
C2652 C2653 1.392 . S
C2652 C2655 1.511 . S
C2653 C2649 1.376 . S
C2653 C2652 1.392 . S
C2653 H2665 0.929 . S
C2654 C2650 1.531 . S
C2654 H2666 0.960 . S
C2654 H2667 0.962 . S
C2654 H2668 0.960 . S
C2655 C2652 1.511 . S
C2655 H2669 0.961 . S
C2655 H2670 0.961 . S
C2655 H2671 0.961 . S
C2656 C2657 1.370 . S
C2656 C2658 1.363 . S
C2656 H2672 0.931 . S
C2657 C2656 1.370 . S
C2657 C2661 1.408 . S
C2658 C2656 1.363 . S
C2658 C2659 1.370 . S
C2658 C2662 1.524 . S
C2659 C2651 1.503 . S
C2659 C2658 1.370 . S
C2659 C2660 1.403 . S
C2660 C2659 1.403 . S
C2660 C2661 1.404 . S
C2660 C2663 1.539 . S
C2661 C2657 1.408 . S
C2661 C2660 1.404 . S
C2661 H2673 0.930 . S
C2662 C2658 1.524 . S
C2662 H2674 0.956 . S
C2662 H2675 0.961 . S
C2662 H2676 0.961 . S
C2663 C2660 1.539 . S
C2663 H2677 0.958 . S
C2663 H2678 0.961 . S
C2663 H2679 0.960 . S
H2664 C2648 0.931 . S
H2665 C2653 0.929 . S
H2666 C2654 0.960 . S
H2667 C2654 0.962 . S
H2668 C2654 0.960 . S
H2669 C2655 0.961 . S
H2670 C2655 0.961 . S
H2671 C2655 0.961 . S
H2672 C2656 0.931 . S
H2673 C2661 0.930 . S
H2674 C2662 0.956 . S
H2675 C2662 0.961 . S
H2676 C2662 0.961 . S
H2677 C2663 0.958 . S
H2678 C2663 0.961 . S
H2679 C2663 0.960 . S
C2680 C2681 1.391 . S
C2680 C2682 1.394 . S
C2680 H2696 0.931 . S
C2681 C2680 1.391 . S
C2681 C2685 1.376 . S
C2682 C2680 1.394 . S
C2682 C2683 1.369 . S
C2682 C2686 1.531 . S
C2683 C2682 1.369 . S
C2683 C2684 1.410 . S
C2683 C2691 1.503 . S
C2684 C2683 1.410 . S
C2684 C2685 1.392 . S
C2684 C2687 1.511 . S
C2685 C2681 1.376 . S
C2685 C2684 1.392 . S
C2685 H2697 0.929 . S
C2686 C2682 1.531 . S
C2686 H2698 0.960 . S
C2686 H2699 0.962 . S
C2686 H2700 0.960 . S
C2687 C2684 1.511 . S
C2687 H2701 0.961 . S
C2687 H2702 0.961 . S
C2687 H2703 0.961 . S
C2688 C2689 1.370 . S
C2688 C2690 1.363 . S
C2688 H2704 0.931 . S
C2689 C2688 1.370 . S
C2689 C2693 1.408 . S
C2690 C2688 1.363 . S
C2690 C2691 1.370 . S
C2690 C2694 1.524 . S
C2691 C2683 1.503 . S
C2691 C2690 1.370 . S
C2691 C2692 1.403 . S
C2692 C2691 1.403 . S
C2692 C2693 1.404 . S
C2692 C2695 1.539 . S
C2693 C2689 1.408 . S
C2693 C2692 1.404 . S
C2693 H2705 0.930 . S
C2694 C2690 1.524 . S
C2694 H2706 0.956 . S
C2694 H2707 0.961 . S
C2694 H2708 0.961 . S
C2695 C2692 1.539 . S
C2695 H2709 0.958 . S
C2695 H2710 0.961 . S
C2695 H2711 0.960 . S
H2696 C2680 0.931 . S
H2697 C2685 0.929 . S
H2698 C2686 0.960 . S
H2699 C2686 0.962 . S
H2700 C2686 0.960 . S
H2701 C2687 0.961 . S
H2702 C2687 0.961 . S
H2703 C2687 0.961 . S
H2704 C2688 0.931 . S
H2705 C2693 0.930 . S
H2706 C2694 0.956 . S
H2707 C2694 0.961 . S
H2708 C2694 0.961 . S
H2709 C2695 0.958 . S
H2710 C2695 0.961 . S
H2711 C2695 0.960 . S
C2712 C2713 1.391 . S
C2712 C2714 1.394 . S
C2712 H2728 0.931 . S
C2713 C2712 1.391 . S
C2713 C2717 1.376 . S
C2714 C2712 1.394 . S
C2714 C2715 1.369 . S
C2714 C2718 1.531 . S
C2715 C2714 1.369 . S
C2715 C2716 1.410 . S
C2715 C2723 1.503 . S
C2716 C2715 1.410 . S
C2716 C2717 1.392 . S
C2716 C2719 1.511 . S
C2717 C2713 1.376 . S
C2717 C2716 1.392 . S
C2717 H2729 0.929 . S
C2718 C2714 1.531 . S
C2718 H2730 0.960 . S
C2718 H2731 0.962 . S
C2718 H2732 0.960 . S
C2719 C2716 1.511 . S
C2719 H2733 0.961 . S
C2719 H2734 0.961 . S
C2719 H2735 0.961 . S
C2720 C2721 1.370 . S
C2720 C2722 1.363 . S
C2720 H2736 0.931 . S
C2721 C2720 1.370 . S
C2721 C2725 1.408 . S
C2722 C2720 1.363 . S
C2722 C2723 1.370 . S
C2722 C2726 1.524 . S
C2723 C2715 1.503 . S
C2723 C2722 1.370 . S
C2723 C2724 1.403 . S
C2724 C2723 1.403 . S
C2724 C2725 1.404 . S
C2724 C2727 1.539 . S
C2725 C2721 1.408 . S
C2725 C2724 1.404 . S
C2725 H2737 0.930 . S
C2726 C2722 1.524 . S
C2726 H2738 0.956 . S
C2726 H2739 0.961 . S
C2726 H2740 0.961 . S
C2727 C2724 1.539 . S
C2727 H2741 0.958 . S
C2727 H2742 0.961 . S
C2727 H2743 0.960 . S
H2728 C2712 0.931 . S
H2729 C2717 0.929 . S
H2730 C2718 0.960 . S
H2731 C2718 0.962 . S
H2732 C2718 0.960 . S
H2733 C2719 0.961 . S
H2734 C2719 0.961 . S
H2735 C2719 0.961 . S
H2736 C2720 0.931 . S
H2737 C2725 0.930 . S
H2738 C2726 0.956 . S
H2739 C2726 0.961 . S
H2740 C2726 0.961 . S
H2741 C2727 0.958 . S
H2742 C2727 0.961 . S
H2743 C2727 0.960 . S
C2744 C2745 1.391 . S
C2744 C2746 1.394 . S
C2744 H2760 0.931 . S
C2745 C2744 1.391 . S
C2745 C2749 1.376 . S
C2746 C2744 1.394 . S
C2746 C2747 1.369 . S
C2746 C2750 1.531 . S
C2747 C2746 1.369 . S
C2747 C2748 1.410 . S
C2747 C2755 1.503 . S
C2748 C2747 1.410 . S
C2748 C2749 1.392 . S
C2748 C2751 1.511 . S
C2749 C2745 1.376 . S
C2749 C2748 1.392 . S
C2749 H2761 0.929 . S
C2750 C2746 1.531 . S
C2750 H2762 0.960 . S
C2750 H2763 0.962 . S
C2750 H2764 0.960 . S
C2751 C2748 1.511 . S
C2751 H2765 0.961 . S
C2751 H2766 0.961 . S
C2751 H2767 0.961 . S
C2752 C2753 1.370 . S
C2752 C2754 1.363 . S
C2752 H2768 0.931 . S
C2753 C2752 1.370 . S
C2753 C2757 1.408 . S
C2754 C2752 1.363 . S
C2754 C2755 1.370 . S
C2754 C2758 1.524 . S
C2755 C2747 1.503 . S
C2755 C2754 1.370 . S
C2755 C2756 1.403 . S
C2756 C2755 1.403 . S
C2756 C2757 1.404 . S
C2756 C2759 1.539 . S
C2757 C2753 1.408 . S
C2757 C2756 1.404 . S
C2757 H2769 0.930 . S
C2758 C2754 1.524 . S
C2758 H2770 0.956 . S
C2758 H2771 0.961 . S
C2758 H2772 0.961 . S
C2759 C2756 1.539 . S
C2759 H2773 0.958 . S
C2759 H2774 0.961 . S
C2759 H2775 0.960 . S
H2760 C2744 0.931 . S
H2761 C2749 0.929 . S
H2762 C2750 0.960 . S
H2763 C2750 0.962 . S
H2764 C2750 0.960 . S
H2765 C2751 0.961 . S
H2766 C2751 0.961 . S
H2767 C2751 0.961 . S
H2768 C2752 0.931 . S
H2769 C2757 0.930 . S
H2770 C2758 0.956 . S
H2771 C2758 0.961 . S
H2772 C2758 0.961 . S
H2773 C2759 0.958 . S
H2774 C2759 0.961 . S
H2775 C2759 0.960 . S
C2776 C2777 1.391 . S
C2776 C2778 1.394 . S
C2776 H2792 0.931 . S
C2777 C2776 1.391 . S
C2777 C2781 1.376 . S
C2778 C2776 1.394 . S
C2778 C2779 1.369 . S
C2778 C2782 1.531 . S
C2779 C2778 1.369 . S
C2779 C2780 1.410 . S
C2779 C2787 1.503 . S
C2780 C2779 1.410 . S
C2780 C2781 1.392 . S
C2780 C2783 1.511 . S
C2781 C2777 1.376 . S
C2781 C2780 1.392 . S
C2781 H2793 0.929 . S
C2782 C2778 1.531 . S
C2782 H2794 0.960 . S
C2782 H2795 0.962 . S
C2782 H2796 0.960 . S
C2783 C2780 1.511 . S
C2783 H2797 0.961 . S
C2783 H2798 0.961 . S
C2783 H2799 0.961 . S
C2784 C2785 1.370 . S
C2784 C2786 1.363 . S
C2784 H2800 0.931 . S
C2785 C2784 1.370 . S
C2785 C2789 1.408 . S
C2786 C2784 1.363 . S
C2786 C2787 1.370 . S
C2786 C2790 1.524 . S
C2787 C2779 1.503 . S
C2787 C2786 1.370 . S
C2787 C2788 1.403 . S
C2788 C2787 1.403 . S
C2788 C2789 1.404 . S
C2788 C2791 1.539 . S
C2789 C2785 1.408 . S
C2789 C2788 1.404 . S
C2789 H2801 0.930 . S
C2790 C2786 1.524 . S
C2790 H2802 0.956 . S
C2790 H2803 0.961 . S
C2790 H2804 0.961 . S
C2791 C2788 1.539 . S
C2791 H2805 0.958 . S
C2791 H2806 0.961 . S
C2791 H2807 0.960 . S
H2792 C2776 0.931 . S
H2793 C2781 0.929 . S
H2794 C2782 0.960 . S
H2795 C2782 0.962 . S
H2796 C2782 0.960 . S
H2797 C2783 0.961 . S
H2798 C2783 0.961 . S
H2799 C2783 0.961 . S
H2800 C2784 0.931 . S
H2801 C2789 0.930 . S
H2802 C2790 0.956 . S
H2803 C2790 0.961 . S
H2804 C2790 0.961 . S
H2805 C2791 0.958 . S
H2806 C2791 0.961 . S
H2807 C2791 0.960 . S
C2808 C2809 1.391 . S
C2808 C2810 1.394 . S
C2808 H2824 0.931 . S
C2809 C2808 1.391 . S
C2809 C2813 1.376 . S
C2810 C2808 1.394 . S
C2810 C2811 1.369 . S
C2810 C2814 1.531 . S
C2811 C2810 1.369 . S
C2811 C2812 1.410 . S
C2811 C2819 1.503 . S
C2812 C2811 1.410 . S
C2812 C2813 1.392 . S
C2812 C2815 1.511 . S
C2813 C2809 1.376 . S
C2813 C2812 1.392 . S
C2813 H2825 0.929 . S
C2814 C2810 1.531 . S
C2814 H2826 0.960 . S
C2814 H2827 0.962 . S
C2814 H2828 0.960 . S
C2815 C2812 1.511 . S
C2815 H2829 0.961 . S
C2815 H2830 0.961 . S
C2815 H2831 0.961 . S
C2816 C2817 1.370 . S
C2816 C2818 1.363 . S
C2816 H2832 0.931 . S
C2817 C2816 1.370 . S
C2817 C2821 1.408 . S
C2818 C2816 1.363 . S
C2818 C2819 1.370 . S
C2818 C2822 1.524 . S
C2819 C2811 1.503 . S
C2819 C2818 1.370 . S
C2819 C2820 1.403 . S
C2820 C2819 1.403 . S
C2820 C2821 1.404 . S
C2820 C2823 1.539 . S
C2821 C2817 1.408 . S
C2821 C2820 1.404 . S
C2821 H2833 0.930 . S
C2822 C2818 1.524 . S
C2822 H2834 0.956 . S
C2822 H2835 0.961 . S
C2822 H2836 0.961 . S
C2823 C2820 1.539 . S
C2823 H2837 0.958 . S
C2823 H2838 0.961 . S
C2823 H2839 0.960 . S
H2824 C2808 0.931 . S
H2825 C2813 0.929 . S
H2826 C2814 0.960 . S
H2827 C2814 0.962 . S
H2828 C2814 0.960 . S
H2829 C2815 0.961 . S
H2830 C2815 0.961 . S
H2831 C2815 0.961 . S
H2832 C2816 0.931 . S
H2833 C2821 0.930 . S
H2834 C2822 0.956 . S
H2835 C2822 0.961 . S
H2836 C2822 0.961 . S
H2837 C2823 0.958 . S
H2838 C2823 0.961 . S
H2839 C2823 0.960 . S
C2840 C2841 1.391 . S
C2840 C2842 1.394 . S
C2840 H2856 0.931 . S
C2841 C2840 1.391 . S
C2841 C2845 1.376 . S
C2842 C2840 1.394 . S
C2842 C2843 1.369 . S
C2842 C2846 1.531 . S
C2843 C2842 1.369 . S
C2843 C2844 1.410 . S
C2843 C2851 1.503 . S
C2844 C2843 1.410 . S
C2844 C2845 1.392 . S
C2844 C2847 1.511 . S
C2845 C2841 1.376 . S
C2845 C2844 1.392 . S
C2845 H2857 0.929 . S
C2846 C2842 1.531 . S
C2846 H2858 0.960 . S
C2846 H2859 0.962 . S
C2846 H2860 0.960 . S
C2847 C2844 1.511 . S
C2847 H2861 0.961 . S
C2847 H2862 0.961 . S
C2847 H2863 0.961 . S
C2848 C2849 1.370 . S
C2848 C2850 1.363 . S
C2848 H2864 0.931 . S
C2849 C2848 1.370 . S
C2849 C2853 1.408 . S
C2850 C2848 1.363 . S
C2850 C2851 1.370 . S
C2850 C2854 1.524 . S
C2851 C2843 1.503 . S
C2851 C2850 1.370 . S
C2851 C2852 1.403 . S
C2852 C2851 1.403 . S
C2852 C2853 1.404 . S
C2852 C2855 1.539 . S
C2853 C2849 1.408 . S
C2853 C2852 1.404 . S
C2853 H2865 0.930 . S
C2854 C2850 1.524 . S
C2854 H2866 0.956 . S
C2854 H2867 0.961 . S
C2854 H2868 0.961 . S
C2855 C2852 1.539 . S
C2855 H2869 0.958 . S
C2855 H2870 0.961 . S
C2855 H2871 0.960 . S
H2856 C2840 0.931 . S
H2857 C2845 0.929 . S
H2858 C2846 0.960 . S
H2859 C2846 0.962 . S
H2860 C2846 0.960 . S
H2861 C2847 0.961 . S
H2862 C2847 0.961 . S
H2863 C2847 0.961 . S
H2864 C2848 0.931 . S
H2865 C2853 0.930 . S
H2866 C2854 0.956 . S
H2867 C2854 0.961 . S
H2868 C2854 0.961 . S
H2869 C2855 0.958 . S
H2870 C2855 0.961 . S
H2871 C2855 0.960 . S
C2872 C2873 1.391 . S
C2872 C2874 1.394 . S
C2872 H2888 0.931 . S
C2873 C2872 1.391 . S
C2873 C2877 1.376 . S
C2874 C2872 1.394 . S
C2874 C2875 1.369 . S
C2874 C2878 1.531 . S
C2875 C2874 1.369 . S
C2875 C2876 1.410 . S
C2875 C2883 1.503 . S
C2876 C2875 1.410 . S
C2876 C2877 1.392 . S
C2876 C2879 1.511 . S
C2877 C2873 1.376 . S
C2877 C2876 1.392 . S
C2877 H2889 0.929 . S
C2878 C2874 1.531 . S
C2878 H2890 0.960 . S
C2878 H2891 0.962 . S
C2878 H2892 0.960 . S
C2879 C2876 1.511 . S
C2879 H2893 0.961 . S
C2879 H2894 0.961 . S
C2879 H2895 0.961 . S
C2880 C2881 1.370 . S
C2880 C2882 1.363 . S
C2880 H2896 0.931 . S
C2881 C2880 1.370 . S
C2881 C2885 1.408 . S
C2882 C2880 1.363 . S
C2882 C2883 1.370 . S
C2882 C2886 1.524 . S
C2883 C2875 1.503 . S
C2883 C2882 1.370 . S
C2883 C2884 1.403 . S
C2884 C2883 1.403 . S
C2884 C2885 1.404 . S
C2884 C2887 1.539 . S
C2885 C2881 1.408 . S
C2885 C2884 1.404 . S
C2885 H2897 0.930 . S
C2886 C2882 1.524 . S
C2886 H2898 0.956 . S
C2886 H2899 0.961 . S
C2886 H2900 0.961 . S
C2887 C2884 1.539 . S
C2887 H2901 0.958 . S
C2887 H2902 0.961 . S
C2887 H2903 0.960 . S
H2888 C2872 0.931 . S
H2889 C2877 0.929 . S
H2890 C2878 0.960 . S
H2891 C2878 0.962 . S
H2892 C2878 0.960 . S
H2893 C2879 0.961 . S
H2894 C2879 0.961 . S
H2895 C2879 0.961 . S
H2896 C2880 0.931 . S
H2897 C2885 0.930 . S
H2898 C2886 0.956 . S
H2899 C2886 0.961 . S
H2900 C2886 0.961 . S
H2901 C2887 0.958 . S
H2902 C2887 0.961 . S
H2903 C2887 0.960 . S
C2904 C2905 1.391 . S
C2904 C2906 1.394 . S
C2904 H2920 0.931 . S
C2905 C2904 1.391 . S
C2905 C2909 1.376 . S
C2906 C2904 1.394 . S
C2906 C2907 1.369 . S
C2906 C2910 1.531 . S
C2907 C2906 1.369 . S
C2907 C2908 1.410 . S
C2907 C2915 1.503 . S
C2908 C2907 1.410 . S
C2908 C2909 1.392 . S
C2908 C2911 1.511 . S
C2909 C2905 1.376 . S
C2909 C2908 1.392 . S
C2909 H2921 0.929 . S
C2910 C2906 1.531 . S
C2910 H2922 0.960 . S
C2910 H2923 0.962 . S
C2910 H2924 0.960 . S
C2911 C2908 1.511 . S
C2911 H2925 0.961 . S
C2911 H2926 0.961 . S
C2911 H2927 0.961 . S
C2912 C2913 1.370 . S
C2912 C2914 1.363 . S
C2912 H2928 0.931 . S
C2913 C2912 1.370 . S
C2913 C2917 1.408 . S
C2914 C2912 1.363 . S
C2914 C2915 1.370 . S
C2914 C2918 1.524 . S
C2915 C2907 1.503 . S
C2915 C2914 1.370 . S
C2915 C2916 1.403 . S
C2916 C2915 1.403 . S
C2916 C2917 1.404 . S
C2916 C2919 1.539 . S
C2917 C2913 1.408 . S
C2917 C2916 1.404 . S
C2917 H2929 0.930 . S
C2918 C2914 1.524 . S
C2918 H2930 0.956 . S
C2918 H2931 0.961 . S
C2918 H2932 0.961 . S
C2919 C2916 1.539 . S
C2919 H2933 0.958 . S
C2919 H2934 0.961 . S
C2919 H2935 0.960 . S
H2920 C2904 0.931 . S
H2921 C2909 0.929 . S
H2922 C2910 0.960 . S
H2923 C2910 0.962 . S
H2924 C2910 0.960 . S
H2925 C2911 0.961 . S
H2926 C2911 0.961 . S
H2927 C2911 0.961 . S
H2928 C2912 0.931 . S
H2929 C2917 0.930 . S
H2930 C2918 0.956 . S
H2931 C2918 0.961 . S
H2932 C2918 0.961 . S
H2933 C2919 0.958 . S
H2934 C2919 0.961 . S
H2935 C2919 0.960 . S
C2936 C2937 1.391 . S
C2936 C2938 1.394 . S
C2936 H2952 0.931 . S
C2937 C2936 1.391 . S
C2937 C2941 1.376 . S
C2938 C2936 1.394 . S
C2938 C2939 1.369 . S
C2938 C2942 1.531 . S
C2939 C2938 1.369 . S
C2939 C2940 1.410 . S
C2939 C2947 1.503 . S
C2940 C2939 1.410 . S
C2940 C2941 1.392 . S
C2940 C2943 1.511 . S
C2941 C2937 1.376 . S
C2941 C2940 1.392 . S
C2941 H2953 0.929 . S
C2942 C2938 1.531 . S
C2942 H2954 0.960 . S
C2942 H2955 0.962 . S
C2942 H2956 0.960 . S
C2943 C2940 1.511 . S
C2943 H2957 0.961 . S
C2943 H2958 0.961 . S
C2943 H2959 0.961 . S
C2944 C2945 1.370 . S
C2944 C2946 1.363 . S
C2944 H2960 0.931 . S
C2945 C2944 1.370 . S
C2945 C2949 1.408 . S
C2946 C2944 1.363 . S
C2946 C2947 1.370 . S
C2946 C2950 1.524 . S
C2947 C2939 1.503 . S
C2947 C2946 1.370 . S
C2947 C2948 1.403 . S
C2948 C2947 1.403 . S
C2948 C2949 1.404 . S
C2948 C2951 1.539 . S
C2949 C2945 1.408 . S
C2949 C2948 1.404 . S
C2949 H2961 0.930 . S
C2950 C2946 1.524 . S
C2950 H2962 0.956 . S
C2950 H2963 0.961 . S
C2950 H2964 0.961 . S
C2951 C2948 1.539 . S
C2951 H2965 0.958 . S
C2951 H2966 0.961 . S
C2951 H2967 0.960 . S
H2952 C2936 0.931 . S
H2953 C2941 0.929 . S
H2954 C2942 0.960 . S
H2955 C2942 0.962 . S
H2956 C2942 0.960 . S
H2957 C2943 0.961 . S
H2958 C2943 0.961 . S
H2959 C2943 0.961 . S
H2960 C2944 0.931 . S
H2961 C2949 0.930 . S
H2962 C2950 0.956 . S
H2963 C2950 0.961 . S
H2964 C2950 0.961 . S
H2965 C2951 0.958 . S
H2966 C2951 0.961 . S
H2967 C2951 0.960 . S
C2968 C2969 1.391 . S
C2968 C2970 1.394 . S
C2968 H2984 0.931 . S
C2969 C2968 1.391 . S
C2969 C2973 1.376 . S
C2970 C2968 1.394 . S
C2970 C2971 1.369 . S
C2970 C2974 1.531 . S
C2971 C2970 1.369 . S
C2971 C2972 1.410 . S
C2971 C2979 1.503 . S
C2972 C2971 1.410 . S
C2972 C2973 1.392 . S
C2972 C2975 1.511 . S
C2973 C2969 1.376 . S
C2973 C2972 1.392 . S
C2973 H2985 0.929 . S
C2974 C2970 1.531 . S
C2974 H2986 0.960 . S
C2974 H2987 0.962 . S
C2974 H2988 0.960 . S
C2975 C2972 1.511 . S
C2975 H2989 0.961 . S
C2975 H2990 0.961 . S
C2975 H2991 0.961 . S
C2976 C2977 1.370 . S
C2976 C2978 1.363 . S
C2976 H2992 0.931 . S
C2977 C2976 1.370 . S
C2977 C2981 1.408 . S
C2978 C2976 1.363 . S
C2978 C2979 1.370 . S
C2978 C2982 1.524 . S
C2979 C2971 1.503 . S
C2979 C2978 1.370 . S
C2979 C2980 1.403 . S
C2980 C2979 1.403 . S
C2980 C2981 1.404 . S
C2980 C2983 1.539 . S
C2981 C2977 1.408 . S
C2981 C2980 1.404 . S
C2981 H2993 0.930 . S
C2982 C2978 1.524 . S
C2982 H2994 0.956 . S
C2982 H2995 0.961 . S
C2982 H2996 0.961 . S
C2983 C2980 1.539 . S
C2983 H2997 0.958 . S
C2983 H2998 0.961 . S
C2983 H2999 0.960 . S
H2984 C2968 0.931 . S
H2985 C2973 0.929 . S
H2986 C2974 0.960 . S
H2987 C2974 0.962 . S
H2988 C2974 0.960 . S
H2989 C2975 0.961 . S
H2990 C2975 0.961 . S
H2991 C2975 0.961 . S
H2992 C2976 0.931 . S
H2993 C2981 0.930 . S
H2994 C2982 0.956 . S
H2995 C2982 0.961 . S
H2996 C2982 0.961 . S
H2997 C2983 0.958 . S
H2998 C2983 0.961 . S
H2999 C2983 0.960 . S
C3000 C3001 1.391 . S
C3000 C3002 1.394 . S
C3000 H3016 0.931 . S
C3001 C3000 1.391 . S
C3001 C3005 1.376 . S
C3002 C3000 1.394 . S
C3002 C3003 1.369 . S
C3002 C3006 1.531 . S
C3003 C3002 1.369 . S
C3003 C3004 1.410 . S
C3003 C3011 1.503 . S
C3004 C3003 1.410 . S
C3004 C3005 1.392 . S
C3004 C3007 1.511 . S
C3005 C3001 1.376 . S
C3005 C3004 1.392 . S
C3005 H3017 0.929 . S
C3006 C3002 1.531 . S
C3006 H3018 0.960 . S
C3006 H3019 0.962 . S
C3006 H3020 0.960 . S
C3007 C3004 1.511 . S
C3007 H3021 0.961 . S
C3007 H3022 0.961 . S
C3007 H3023 0.961 . S
C3008 C3009 1.370 . S
C3008 C3010 1.363 . S
C3008 H3024 0.931 . S
C3009 C3008 1.370 . S
C3009 C3013 1.408 . S
C3010 C3008 1.363 . S
C3010 C3011 1.370 . S
C3010 C3014 1.524 . S
C3011 C3003 1.503 . S
C3011 C3010 1.370 . S
C3011 C3012 1.403 . S
C3012 C3011 1.403 . S
C3012 C3013 1.404 . S
C3012 C3015 1.539 . S
C3013 C3009 1.408 . S
C3013 C3012 1.404 . S
C3013 H3025 0.930 . S
C3014 C3010 1.524 . S
C3014 H3026 0.956 . S
C3014 H3027 0.961 . S
C3014 H3028 0.961 . S
C3015 C3012 1.539 . S
C3015 H3029 0.958 . S
C3015 H3030 0.961 . S
C3015 H3031 0.960 . S
H3016 C3000 0.931 . S
H3017 C3005 0.929 . S
H3018 C3006 0.960 . S
H3019 C3006 0.962 . S
H3020 C3006 0.960 . S
H3021 C3007 0.961 . S
H3022 C3007 0.961 . S
H3023 C3007 0.961 . S
H3024 C3008 0.931 . S
H3025 C3013 0.930 . S
H3026 C3014 0.956 . S
H3027 C3014 0.961 . S
H3028 C3014 0.961 . S
H3029 C3015 0.958 . S
H3030 C3015 0.961 . S
H3031 C3015 0.960 . S
C3032 C3033 1.391 . S
C3032 C3034 1.394 . S
C3032 H3048 0.931 . S
C3033 C3032 1.391 . S
C3033 C3037 1.376 . S
C3034 C3032 1.394 . S
C3034 C3035 1.369 . S
C3034 C3038 1.531 . S
C3035 C3034 1.369 . S
C3035 C3036 1.410 . S
C3035 C3043 1.503 . S
C3036 C3035 1.410 . S
C3036 C3037 1.392 . S
C3036 C3039 1.511 . S
C3037 C3033 1.376 . S
C3037 C3036 1.392 . S
C3037 H3049 0.929 . S
C3038 C3034 1.531 . S
C3038 H3050 0.960 . S
C3038 H3051 0.962 . S
C3038 H3052 0.960 . S
C3039 C3036 1.511 . S
C3039 H3053 0.961 . S
C3039 H3054 0.961 . S
C3039 H3055 0.961 . S
C3040 C3041 1.370 . S
C3040 C3042 1.363 . S
C3040 H3056 0.931 . S
C3041 C3040 1.370 . S
C3041 C3045 1.408 . S
C3042 C3040 1.363 . S
C3042 C3043 1.370 . S
C3042 C3046 1.524 . S
C3043 C3035 1.503 . S
C3043 C3042 1.370 . S
C3043 C3044 1.403 . S
C3044 C3043 1.403 . S
C3044 C3045 1.404 . S
C3044 C3047 1.539 . S
C3045 C3041 1.408 . S
C3045 C3044 1.404 . S
C3045 H3057 0.930 . S
C3046 C3042 1.524 . S
C3046 H3058 0.956 . S
C3046 H3059 0.961 . S
C3046 H3060 0.961 . S
C3047 C3044 1.539 . S
C3047 H3061 0.958 . S
C3047 H3062 0.961 . S
C3047 H3063 0.960 . S
H3048 C3032 0.931 . S
H3049 C3037 0.929 . S
H3050 C3038 0.960 . S
H3051 C3038 0.962 . S
H3052 C3038 0.960 . S
H3053 C3039 0.961 . S
H3054 C3039 0.961 . S
H3055 C3039 0.961 . S
H3056 C3040 0.931 . S
H3057 C3045 0.930 . S
H3058 C3046 0.956 . S
H3059 C3046 0.961 . S
H3060 C3046 0.961 . S
H3061 C3047 0.958 . S
H3062 C3047 0.961 . S
H3063 C3047 0.960 . S
C3064 C3065 1.391 . S
C3064 C3066 1.394 . S
C3064 H3080 0.931 . S
C3065 C3064 1.391 . S
C3065 C3069 1.376 . S
C3066 C3064 1.394 . S
C3066 C3067 1.369 . S
C3066 C3070 1.531 . S
C3067 C3066 1.369 . S
C3067 C3068 1.410 . S
C3067 C3075 1.503 . S
C3068 C3067 1.410 . S
C3068 C3069 1.392 . S
C3068 C3071 1.511 . S
C3069 C3065 1.376 . S
C3069 C3068 1.392 . S
C3069 H3081 0.929 . S
C3070 C3066 1.531 . S
C3070 H3082 0.960 . S
C3070 H3083 0.962 . S
C3070 H3084 0.960 . S
C3071 C3068 1.511 . S
C3071 H3085 0.961 . S
C3071 H3086 0.961 . S
C3071 H3087 0.961 . S
C3072 C3073 1.370 . S
C3072 C3074 1.363 . S
C3072 H3088 0.931 . S
C3073 C3072 1.370 . S
C3073 C3077 1.408 . S
C3074 C3072 1.363 . S
C3074 C3075 1.370 . S
C3074 C3078 1.524 . S
C3075 C3067 1.503 . S
C3075 C3074 1.370 . S
C3075 C3076 1.403 . S
C3076 C3075 1.403 . S
C3076 C3077 1.404 . S
C3076 C3079 1.539 . S
C3077 C3073 1.408 . S
C3077 C3076 1.404 . S
C3077 H3089 0.930 . S
C3078 C3074 1.524 . S
C3078 H3090 0.956 . S
C3078 H3091 0.961 . S
C3078 H3092 0.961 . S
C3079 C3076 1.539 . S
C3079 H3093 0.958 . S
C3079 H3094 0.961 . S
C3079 H3095 0.960 . S
H3080 C3064 0.931 . S
H3081 C3069 0.929 . S
H3082 C3070 0.960 . S
H3083 C3070 0.962 . S
H3084 C3070 0.960 . S
H3085 C3071 0.961 . S
H3086 C3071 0.961 . S
H3087 C3071 0.961 . S
H3088 C3072 0.931 . S
H3089 C3077 0.930 . S
H3090 C3078 0.956 . S
H3091 C3078 0.961 . S
H3092 C3078 0.961 . S
H3093 C3079 0.958 . S
H3094 C3079 0.961 . S
H3095 C3079 0.960 . S
C3096 C3097 1.391 . S
C3096 C3098 1.394 . S
C3096 H3112 0.931 . S
C3097 C3096 1.391 . S
C3097 C3101 1.376 . S
C3098 C3096 1.394 . S
C3098 C3099 1.369 . S
C3098 C3102 1.531 . S
C3099 C3098 1.369 . S
C3099 C3100 1.410 . S
C3099 C3107 1.503 . S
C3100 C3099 1.410 . S
C3100 C3101 1.392 . S
C3100 C3103 1.511 . S
C3101 C3097 1.376 . S
C3101 C3100 1.392 . S
C3101 H3113 0.929 . S
C3102 C3098 1.531 . S
C3102 H3114 0.960 . S
C3102 H3115 0.962 . S
C3102 H3116 0.960 . S
C3103 C3100 1.511 . S
C3103 H3117 0.961 . S
C3103 H3118 0.961 . S
C3103 H3119 0.961 . S
C3104 C3105 1.370 . S
C3104 C3106 1.363 . S
C3104 H3120 0.931 . S
C3105 C3104 1.370 . S
C3105 C3109 1.408 . S
C3106 C3104 1.363 . S
C3106 C3107 1.370 . S
C3106 C3110 1.524 . S
C3107 C3099 1.503 . S
C3107 C3106 1.370 . S
C3107 C3108 1.403 . S
C3108 C3107 1.403 . S
C3108 C3109 1.404 . S
C3108 C3111 1.539 . S
C3109 C3105 1.408 . S
C3109 C3108 1.404 . S
C3109 H3121 0.930 . S
C3110 C3106 1.524 . S
C3110 H3122 0.956 . S
C3110 H3123 0.961 . S
C3110 H3124 0.961 . S
C3111 C3108 1.539 . S
C3111 H3125 0.958 . S
C3111 H3126 0.961 . S
C3111 H3127 0.960 . S
H3112 C3096 0.931 . S
H3113 C3101 0.929 . S
H3114 C3102 0.960 . S
H3115 C3102 0.962 . S
H3116 C3102 0.960 . S
H3117 C3103 0.961 . S
H3118 C3103 0.961 . S
H3119 C3103 0.961 . S
H3120 C3104 0.931 . S
H3121 C3109 0.930 . S
H3122 C3110 0.956 . S
H3123 C3110 0.961 . S
H3124 C3110 0.961 . S
H3125 C3111 0.958 . S
H3126 C3111 0.961 . S
H3127 C3111 0.960 . S
C3128 C3129 1.391 . S
C3128 C3130 1.394 . S
C3128 H3144 0.931 . S
C3129 C3128 1.391 . S
C3129 C3133 1.376 . S
C3130 C3128 1.394 . S
C3130 C3131 1.369 . S
C3130 C3134 1.531 . S
C3131 C3130 1.369 . S
C3131 C3132 1.410 . S
C3131 C3139 1.503 . S
C3132 C3131 1.410 . S
C3132 C3133 1.392 . S
C3132 C3135 1.511 . S
C3133 C3129 1.376 . S
C3133 C3132 1.392 . S
C3133 H3145 0.929 . S
C3134 C3130 1.531 . S
C3134 H3146 0.960 . S
C3134 H3147 0.962 . S
C3134 H3148 0.960 . S
C3135 C3132 1.511 . S
C3135 H3149 0.961 . S
C3135 H3150 0.961 . S
C3135 H3151 0.961 . S
C3136 C3137 1.370 . S
C3136 C3138 1.363 . S
C3136 H3152 0.931 . S
C3137 C3136 1.370 . S
C3137 C3141 1.408 . S
C3138 C3136 1.363 . S
C3138 C3139 1.370 . S
C3138 C3142 1.524 . S
C3139 C3131 1.503 . S
C3139 C3138 1.370 . S
C3139 C3140 1.403 . S
C3140 C3139 1.403 . S
C3140 C3141 1.404 . S
C3140 C3143 1.539 . S
C3141 C3137 1.408 . S
C3141 C3140 1.404 . S
C3141 H3153 0.930 . S
C3142 C3138 1.524 . S
C3142 H3154 0.956 . S
C3142 H3155 0.961 . S
C3142 H3156 0.961 . S
C3143 C3140 1.539 . S
C3143 H3157 0.958 . S
C3143 H3158 0.961 . S
C3143 H3159 0.960 . S
H3144 C3128 0.931 . S
H3145 C3133 0.929 . S
H3146 C3134 0.960 . S
H3147 C3134 0.962 . S
H3148 C3134 0.960 . S
H3149 C3135 0.961 . S
H3150 C3135 0.961 . S
H3151 C3135 0.961 . S
H3152 C3136 0.931 . S
H3153 C3141 0.930 . S
H3154 C3142 0.956 . S
H3155 C3142 0.961 . S
H3156 C3142 0.961 . S
H3157 C3143 0.958 . S
H3158 C3143 0.961 . S
H3159 C3143 0.960 . S
C3160 C3161 1.391 . S
C3160 C3162 1.394 . S
C3160 H3176 0.931 . S
C3161 C3160 1.391 . S
C3161 C3165 1.376 . S
C3162 C3160 1.394 . S
C3162 C3163 1.369 . S
C3162 C3166 1.531 . S
C3163 C3162 1.369 . S
C3163 C3164 1.410 . S
C3163 C3171 1.503 . S
C3164 C3163 1.410 . S
C3164 C3165 1.392 . S
C3164 C3167 1.511 . S
C3165 C3161 1.376 . S
C3165 C3164 1.392 . S
C3165 H3177 0.929 . S
C3166 C3162 1.531 . S
C3166 H3178 0.960 . S
C3166 H3179 0.962 . S
C3166 H3180 0.960 . S
C3167 C3164 1.511 . S
C3167 H3181 0.961 . S
C3167 H3182 0.961 . S
C3167 H3183 0.961 . S
C3168 C3169 1.370 . S
C3168 C3170 1.363 . S
C3168 H3184 0.931 . S
C3169 C3168 1.370 . S
C3169 C3173 1.408 . S
C3170 C3168 1.363 . S
C3170 C3171 1.370 . S
C3170 C3174 1.524 . S
C3171 C3163 1.503 . S
C3171 C3170 1.370 . S
C3171 C3172 1.403 . S
C3172 C3171 1.403 . S
C3172 C3173 1.404 . S
C3172 C3175 1.539 . S
C3173 C3169 1.408 . S
C3173 C3172 1.404 . S
C3173 H3185 0.930 . S
C3174 C3170 1.524 . S
C3174 H3186 0.956 . S
C3174 H3187 0.961 . S
C3174 H3188 0.961 . S
C3175 C3172 1.539 . S
C3175 H3189 0.958 . S
C3175 H3190 0.961 . S
C3175 H3191 0.960 . S
H3176 C3160 0.931 . S
H3177 C3165 0.929 . S
H3178 C3166 0.960 . S
H3179 C3166 0.962 . S
H3180 C3166 0.960 . S
H3181 C3167 0.961 . S
H3182 C3167 0.961 . S
H3183 C3167 0.961 . S
H3184 C3168 0.931 . S
H3185 C3173 0.930 . S
H3186 C3174 0.956 . S
H3187 C3174 0.961 . S
H3188 C3174 0.961 . S
H3189 C3175 0.958 . S
H3190 C3175 0.961 . S
H3191 C3175 0.960 . S
C3192 C3193 1.391 . S
C3192 C3194 1.394 . S
C3192 H3208 0.931 . S
C3193 C3192 1.391 . S
C3193 C3197 1.376 . S
C3194 C3192 1.394 . S
C3194 C3195 1.369 . S
C3194 C3198 1.531 . S
C3195 C3194 1.369 . S
C3195 C3196 1.410 . S
C3195 C3203 1.503 . S
C3196 C3195 1.410 . S
C3196 C3197 1.392 . S
C3196 C3199 1.511 . S
C3197 C3193 1.376 . S
C3197 C3196 1.392 . S
C3197 H3209 0.929 . S
C3198 C3194 1.531 . S
C3198 H3210 0.960 . S
C3198 H3211 0.962 . S
C3198 H3212 0.960 . S
C3199 C3196 1.511 . S
C3199 H3213 0.961 . S
C3199 H3214 0.961 . S
C3199 H3215 0.961 . S
C3200 C3201 1.370 . S
C3200 C3202 1.363 . S
C3200 H3216 0.931 . S
C3201 C3200 1.370 . S
C3201 C3205 1.408 . S
C3202 C3200 1.363 . S
C3202 C3203 1.370 . S
C3202 C3206 1.524 . S
C3203 C3195 1.503 . S
C3203 C3202 1.370 . S
C3203 C3204 1.403 . S
C3204 C3203 1.403 . S
C3204 C3205 1.404 . S
C3204 C3207 1.539 . S
C3205 C3201 1.408 . S
C3205 C3204 1.404 . S
C3205 H3217 0.930 . S
C3206 C3202 1.524 . S
C3206 H3218 0.956 . S
C3206 H3219 0.961 . S
C3206 H3220 0.961 . S
C3207 C3204 1.539 . S
C3207 H3221 0.958 . S
C3207 H3222 0.961 . S
C3207 H3223 0.960 . S
H3208 C3192 0.931 . S
H3209 C3197 0.929 . S
H3210 C3198 0.960 . S
H3211 C3198 0.962 . S
H3212 C3198 0.960 . S
H3213 C3199 0.961 . S
H3214 C3199 0.961 . S
H3215 C3199 0.961 . S
H3216 C3200 0.931 . S
H3217 C3205 0.930 . S
H3218 C3206 0.956 . S
H3219 C3206 0.961 . S
H3220 C3206 0.961 . S
H3221 C3207 0.958 . S
H3222 C3207 0.961 . S
H3223 C3207 0.960 . S
C3224 C3225 1.391 . S
C3224 C3226 1.394 . S
C3224 H3240 0.931 . S
C3225 C3224 1.391 . S
C3225 C3229 1.376 . S
C3226 C3224 1.394 . S
C3226 C3227 1.369 . S
C3226 C3230 1.531 . S
C3227 C3226 1.369 . S
C3227 C3228 1.410 . S
C3227 C3235 1.503 . S
C3228 C3227 1.410 . S
C3228 C3229 1.392 . S
C3228 C3231 1.511 . S
C3229 C3225 1.376 . S
C3229 C3228 1.392 . S
C3229 H3241 0.929 . S
C3230 C3226 1.531 . S
C3230 H3242 0.960 . S
C3230 H3243 0.962 . S
C3230 H3244 0.960 . S
C3231 C3228 1.511 . S
C3231 H3245 0.961 . S
C3231 H3246 0.961 . S
C3231 H3247 0.961 . S
C3232 C3233 1.370 . S
C3232 C3234 1.363 . S
C3232 H3248 0.931 . S
C3233 C3232 1.370 . S
C3233 C3237 1.408 . S
C3234 C3232 1.363 . S
C3234 C3235 1.370 . S
C3234 C3238 1.524 . S
C3235 C3227 1.503 . S
C3235 C3234 1.370 . S
C3235 C3236 1.403 . S
C3236 C3235 1.403 . S
C3236 C3237 1.404 . S
C3236 C3239 1.539 . S
C3237 C3233 1.408 . S
C3237 C3236 1.404 . S
C3237 H3249 0.930 . S
C3238 C3234 1.524 . S
C3238 H3250 0.956 . S
C3238 H3251 0.961 . S
C3238 H3252 0.961 . S
C3239 C3236 1.539 . S
C3239 H3253 0.958 . S
C3239 H3254 0.961 . S
C3239 H3255 0.960 . S
H3240 C3224 0.931 . S
H3241 C3229 0.929 . S
H3242 C3230 0.960 . S
H3243 C3230 0.962 . S
H3244 C3230 0.960 . S
H3245 C3231 0.961 . S
H3246 C3231 0.961 . S
H3247 C3231 0.961 . S
H3248 C3232 0.931 . S
H3249 C3237 0.930 . S
H3250 C3238 0.956 . S
H3251 C3238 0.961 . S
H3252 C3238 0.961 . S
H3253 C3239 0.958 . S
H3254 C3239 0.961 . S
H3255 C3239 0.960 . S
C3256 C3257 1.391 . S
C3256 C3258 1.394 . S
C3256 H3272 0.931 . S
C3257 C3256 1.391 . S
C3257 C3261 1.376 . S
C3258 C3256 1.394 . S
C3258 C3259 1.369 . S
C3258 C3262 1.531 . S
C3259 C3258 1.369 . S
C3259 C3260 1.410 . S
C3259 C3267 1.503 . S
C3260 C3259 1.410 . S
C3260 C3261 1.392 . S
C3260 C3263 1.511 . S
C3261 C3257 1.376 . S
C3261 C3260 1.392 . S
C3261 H3273 0.929 . S
C3262 C3258 1.531 . S
C3262 H3274 0.960 . S
C3262 H3275 0.962 . S
C3262 H3276 0.960 . S
C3263 C3260 1.511 . S
C3263 H3277 0.961 . S
C3263 H3278 0.961 . S
C3263 H3279 0.961 . S
C3264 C3265 1.370 . S
C3264 C3266 1.363 . S
C3264 H3280 0.931 . S
C3265 C3264 1.370 . S
C3265 C3269 1.408 . S
C3266 C3264 1.363 . S
C3266 C3267 1.370 . S
C3266 C3270 1.524 . S
C3267 C3259 1.503 . S
C3267 C3266 1.370 . S
C3267 C3268 1.403 . S
C3268 C3267 1.403 . S
C3268 C3269 1.404 . S
C3268 C3271 1.539 . S
C3269 C3265 1.408 . S
C3269 C3268 1.404 . S
C3269 H3281 0.930 . S
C3270 C3266 1.524 . S
C3270 H3282 0.956 . S
C3270 H3283 0.961 . S
C3270 H3284 0.961 . S
C3271 C3268 1.539 . S
C3271 H3285 0.958 . S
C3271 H3286 0.961 . S
C3271 H3287 0.960 . S
H3272 C3256 0.931 . S
H3273 C3261 0.929 . S
H3274 C3262 0.960 . S
H3275 C3262 0.962 . S
H3276 C3262 0.960 . S
H3277 C3263 0.961 . S
H3278 C3263 0.961 . S
H3279 C3263 0.961 . S
H3280 C3264 0.931 . S
H3281 C3269 0.930 . S
H3282 C3270 0.956 . S
H3283 C3270 0.961 . S
H3284 C3270 0.961 . S
H3285 C3271 0.958 . S
H3286 C3271 0.961 . S
H3287 C3271 0.960 . S
C3288 C3289 1.391 . S
C3288 C3290 1.394 . S
C3288 H3304 0.931 . S
C3289 C3288 1.391 . S
C3289 C3293 1.376 . S
C3290 C3288 1.394 . S
C3290 C3291 1.369 . S
C3290 C3294 1.531 . S
C3291 C3290 1.369 . S
C3291 C3292 1.410 . S
C3291 C3299 1.503 . S
C3292 C3291 1.410 . S
C3292 C3293 1.392 . S
C3292 C3295 1.511 . S
C3293 C3289 1.376 . S
C3293 C3292 1.392 . S
C3293 H3305 0.929 . S
C3294 C3290 1.531 . S
C3294 H3306 0.960 . S
C3294 H3307 0.962 . S
C3294 H3308 0.960 . S
C3295 C3292 1.511 . S
C3295 H3309 0.961 . S
C3295 H3310 0.961 . S
C3295 H3311 0.961 . S
C3296 C3297 1.370 . S
C3296 C3298 1.363 . S
C3296 H3312 0.931 . S
C3297 C3296 1.370 . S
C3297 C3301 1.408 . S
C3298 C3296 1.363 . S
C3298 C3299 1.370 . S
C3298 C3302 1.524 . S
C3299 C3291 1.503 . S
C3299 C3298 1.370 . S
C3299 C3300 1.403 . S
C3300 C3299 1.403 . S
C3300 C3301 1.404 . S
C3300 C3303 1.539 . S
C3301 C3297 1.408 . S
C3301 C3300 1.404 . S
C3301 H3313 0.930 . S
C3302 C3298 1.524 . S
C3302 H3314 0.956 . S
C3302 H3315 0.961 . S
C3302 H3316 0.961 . S
C3303 C3300 1.539 . S
C3303 H3317 0.958 . S
C3303 H3318 0.961 . S
C3303 H3319 0.960 . S
H3304 C3288 0.931 . S
H3305 C3293 0.929 . S
H3306 C3294 0.960 . S
H3307 C3294 0.962 . S
H3308 C3294 0.960 . S
H3309 C3295 0.961 . S
H3310 C3295 0.961 . S
H3311 C3295 0.961 . S
H3312 C3296 0.931 . S
H3313 C3301 0.930 . S
H3314 C3302 0.956 . S
H3315 C3302 0.961 . S
H3316 C3302 0.961 . S
H3317 C3303 0.958 . S
H3318 C3303 0.961 . S
H3319 C3303 0.960 . S
C3320 C3321 1.391 . S
C3320 C3322 1.394 . S
C3320 H3336 0.931 . S
C3321 C3320 1.391 . S
C3321 C3325 1.376 . S
C3322 C3320 1.394 . S
C3322 C3323 1.369 . S
C3322 C3326 1.531 . S
C3323 C3322 1.369 . S
C3323 C3324 1.410 . S
C3323 C3331 1.503 . S
C3324 C3323 1.410 . S
C3324 C3325 1.392 . S
C3324 C3327 1.511 . S
C3325 C3321 1.376 . S
C3325 C3324 1.392 . S
C3325 H3337 0.929 . S
C3326 C3322 1.531 . S
C3326 H3338 0.960 . S
C3326 H3339 0.962 . S
C3326 H3340 0.960 . S
C3327 C3324 1.511 . S
C3327 H3341 0.961 . S
C3327 H3342 0.961 . S
C3327 H3343 0.961 . S
C3328 C3329 1.370 . S
C3328 C3330 1.363 . S
C3328 H3344 0.931 . S
C3329 C3328 1.370 . S
C3329 C3333 1.408 . S
C3330 C3328 1.363 . S
C3330 C3331 1.370 . S
C3330 C3334 1.524 . S
C3331 C3323 1.503 . S
C3331 C3330 1.370 . S
C3331 C3332 1.403 . S
C3332 C3331 1.403 . S
C3332 C3333 1.404 . S
C3332 C3335 1.539 . S
C3333 C3329 1.408 . S
C3333 C3332 1.404 . S
C3333 H3345 0.930 . S
C3334 C3330 1.524 . S
C3334 H3346 0.956 . S
C3334 H3347 0.961 . S
C3334 H3348 0.961 . S
C3335 C3332 1.539 . S
C3335 H3349 0.958 . S
C3335 H3350 0.961 . S
C3335 H3351 0.960 . S
H3336 C3320 0.931 . S
H3337 C3325 0.929 . S
H3338 C3326 0.960 . S
H3339 C3326 0.962 . S
H3340 C3326 0.960 . S
H3341 C3327 0.961 . S
H3342 C3327 0.961 . S
H3343 C3327 0.961 . S
H3344 C3328 0.931 . S
H3345 C3333 0.930 . S
H3346 C3334 0.956 . S
H3347 C3334 0.961 . S
H3348 C3334 0.961 . S
H3349 C3335 0.958 . S
H3350 C3335 0.961 . S
H3351 C3335 0.960 . S
C3352 C3353 1.391 . S
C3352 C3354 1.394 . S
C3352 H3368 0.931 . S
C3353 C3352 1.391 . S
C3353 C3357 1.376 . S
C3354 C3352 1.394 . S
C3354 C3355 1.369 . S
C3354 C3358 1.531 . S
C3355 C3354 1.369 . S
C3355 C3356 1.410 . S
C3355 C3363 1.503 . S
C3356 C3355 1.410 . S
C3356 C3357 1.392 . S
C3356 C3359 1.511 . S
C3357 C3353 1.376 . S
C3357 C3356 1.392 . S
C3357 H3369 0.929 . S
C3358 C3354 1.531 . S
C3358 H3370 0.960 . S
C3358 H3371 0.962 . S
C3358 H3372 0.960 . S
C3359 C3356 1.511 . S
C3359 H3373 0.961 . S
C3359 H3374 0.961 . S
C3359 H3375 0.961 . S
C3360 C3361 1.370 . S
C3360 C3362 1.363 . S
C3360 H3376 0.931 . S
C3361 C3360 1.370 . S
C3361 C3365 1.408 . S
C3362 C3360 1.363 . S
C3362 C3363 1.370 . S
C3362 C3366 1.524 . S
C3363 C3355 1.503 . S
C3363 C3362 1.370 . S
C3363 C3364 1.403 . S
C3364 C3363 1.403 . S
C3364 C3365 1.404 . S
C3364 C3367 1.539 . S
C3365 C3361 1.408 . S
C3365 C3364 1.404 . S
C3365 H3377 0.930 . S
C3366 C3362 1.524 . S
C3366 H3378 0.956 . S
C3366 H3379 0.961 . S
C3366 H3380 0.961 . S
C3367 C3364 1.539 . S
C3367 H3381 0.958 . S
C3367 H3382 0.961 . S
C3367 H3383 0.960 . S
H3368 C3352 0.931 . S
H3369 C3357 0.929 . S
H3370 C3358 0.960 . S
H3371 C3358 0.962 . S
H3372 C3358 0.960 . S
H3373 C3359 0.961 . S
H3374 C3359 0.961 . S
H3375 C3359 0.961 . S
H3376 C3360 0.931 . S
H3377 C3365 0.930 . S
H3378 C3366 0.956 . S
H3379 C3366 0.961 . S
H3380 C3366 0.961 . S
H3381 C3367 0.958 . S
H3382 C3367 0.961 . S
H3383 C3367 0.960 . S
C1089 C810 1.083 . S
C1081 C765 1.054 . S
C1113 C701 1.153 . S
C1121 C804 1.078 . S
C1153 C772 1.208 . S
C1145 C669 1.282 . S
C1177 C733 1.289 . S
C1185 C786 1.224 . S
C1217 C824 1.611 . S
C1209 C541 1.684 . S
C1249 C911 1.117 . S
C1241 C573 1.144 . S
C1273 C605 1.762 . S
C1281 C838 1.687 . S
C1313 C906 0.835 . S
C1305 C637 0.787 . S
C1337 C413 1.738 . S
C1345 C862 1.700 . S
C1377 C917 1.209 . S
C1369 C445 1.175 . S
C1401 C477 1.630 . S
C1409 C856 1.634 . S
C1433 C509 0.876 . S
C1441 C902 0.847 . S
C1473 C958 0.867 . S
C1465 C381 0.806 . S
C1497 C317 1.288 . S
C1505 C969 1.275 . S
C1529 C285 0.978 . S
C1537 C954 0.948 . S
C1569 C963 1.306 . S
C1561 C349 1.300 1_554 S
C1593 C157 1.224 1_455 S
C1601 C1008 1.180 . S
C1625 C189 0.328 . S
C1633 C1067 0.392 . S
C1657 C221 1.386 . S
C1665 C1024 1.315 . S
C1689 C253 0.827 . S
C1697 C1062 0.809 . S
C1729 C1026 1.332 . S
C1721 C29 1.347 . S
C1761 C1073 0.408 . S
C1753 C61 0.356 . S
C1785 C93 1.168 . S
C1793 C1002 1.172 . S
C1825 C1058 0.766 . S
C1817 C125 0.728 1_545 S
C1857 C794 1.734 . S
C1849 C23 1.773 . S
C1881 C55 1.491 . S
C1889 C798 1.497 . S
C1913 C87 1.743 . S
C1921 C818 1.757 . S
C1945 C113 1.219 1_545 S
C1953 C813 1.240 . S
C1977 C151 1.790 1_455 S
C1985 C816 1.781 . S
C2017 C802 1.454 . S
C2009 C183 1.462 . S
C2041 C215 1.711 . S
C2049 C800 1.713 . S
C2081 C807 1.226 . S
C2073 C247 1.144 . S
C2113 C870 1.711 . S
C2105 C119 1.787 1_545 S
C2137 C17 1.996 . S
C2145 C920 2.034 . S
C2177 C868 1.386 . S
C2169 C49 1.411 . S
C2209 C904 1.944 . S
C2201 C81 1.954 . S
C2233 C177 1.361 . S
C2241 C846 1.338 . S
C2273 C922 2.000 . S
C2265 C209 1.985 . S
C2305 C852 1.700 . S
C2297 C241 1.692 . S
C2337 C898 1.965 . S
C2329 C145 1.963 1_455 S
C2369 C890 1.767 . S
C2361 C279 1.669 . S
C2393 C305 1.593 . S
C2401 C914 1.652 . S
C2433 C850 1.452 . S
C2425 C273 1.429 . S
C2465 C876 1.673 . S
C2457 C337 1.567 . S
C2489 C375 1.317 . S
C2497 C854 1.409 . S
C2521 C369 1.669 . S
C2529 C908 1.722 . S
C2561 C865 1.738 . S
C2553 C311 1.597 . S
C2593 C859 1.788 . S
C2585 C343 1.667 1_554 S
C2625 C942 2.151 . S
C2617 C407 2.065 . S
C2657 C974 1.805 . S
C2649 C439 1.735 . S
C2681 C471 2.043 . S
C2689 C928 2.134 . S
C2721 C972 1.429 . S
C2713 C497 1.367 . S
C2753 C960 2.104 . S
C2745 C535 2.019 . S
C2777 C561 1.670 . S
C2785 C956 1.726 . S
C2809 C599 2.144 . S
C2817 C966 2.186 . S
C2849 C950 1.364 . S
C2841 C631 1.343 . S
C2881 C1015 1.640 . S
C2873 C503 1.570 . S
C2905 C401 1.784 . S
C2913 C1076 1.863 . S
C2945 C1010 1.399 . S
C2937 C433 1.315 . S
C2977 C1060 1.825 . S
C2969 C465 1.715 . S
C3009 C1006 1.319 . S
C3001 C567 1.214 . S
C3033 C593 1.737 . S
C3041 C1078 1.778 . S
C3073 C1021 1.583 . S
C3065 C625 1.557 . S
C3105 C1054 1.713 . S
C3097 C529 1.709 . S
C3137 C1046 1.879 . S
C3129 C663 1.834 . S
C3161 C689 1.933 . S
C3169 C1070 1.929 . S
C3201 C1012 1.609 . S
C3193 C657 1.669 . S
C3225 C721 2.014 . S
C3233 C1032 1.994 . S
C3265 C994 1.646 . S
C3257 C759 1.702 . S
C3297 C1064 1.811 . S
C3289 C753 1.795 . S
C3329 C980 1.651 . S
C3321 C695 1.656 . S
C3353 C727 1.597 . S
C3361 C1018 1.583 . S
