# Generated by pormake.
# Topology zzz, (3,6)-cn, num edge types: 1
# Building blocks:
#     Node 0, Type 0, BuildingBlock: BETDIP_clean_linker_0, # of connection points: 3
#     Node 1, Type 0, BuildingBlock: BETDIP_clean_linker_0, # of connection points: 3
#     Node 2, Type 0, BuildingBlock: BETDIP_clean_linker_0, # of connection points: 3
#     Node 3, Type 0, BuildingBlock: BETDIP_clean_linker_0, # of connection points: 3
#     Node 4, Type 0, BuildingBlock: BETDIP_clean_linker_0, # of connection points: 3
#     Node 5, Type 0, BuildingBlock: BETDIP_clean_linker_0, # of connection points: 3
#     Node 6, Type 0, BuildingBlock: BETDIP_clean_linker_0, # of connection points: 3
#     Node 7, Type 0, BuildingBlock: BETDIP_clean_linker_0, # of connection points: 3
#     Node 8, Type 1, BuildingBlock: CUKXOW_clean_sbu_0, # of connection points: 6
#     Node 9, Type 1, BuildingBlock: CUKXOW_clean_sbu_0, # of connection points: 6
#     Node 10, Type 1, BuildingBlock: CUKXOW_clean_sbu_0, # of connection points: 6
#     Node 11, Type 1, BuildingBlock: CUKXOW_clean_sbu_0, # of connection points: 6
#     Edge 12, Type (0, 1), BuildingBlock: OJICUG_clean_linker_0, # of connection points: 2
#     Edge 13, Type (0, 1), BuildingBlock: OJICUG_clean_linker_0, # of connection points: 2
#     Edge 14, Type (0, 1), BuildingBlock: OJICUG_clean_linker_0, # of connection points: 2
#     Edge 15, Type (0, 1), BuildingBlock: OJICUG_clean_linker_0, # of connection points: 2
#     Edge 16, Type (0, 1), BuildingBlock: OJICUG_clean_linker_0, # of connection points: 2
#     Edge 17, Type (0, 1), BuildingBlock: OJICUG_clean_linker_0, # of connection points: 2
#     Edge 18, Type (0, 1), BuildingBlock: OJICUG_clean_linker_0, # of connection points: 2
#     Edge 19, Type (0, 1), BuildingBlock: OJICUG_clean_linker_0, # of connection points: 2
#     Edge 20, Type (0, 1), BuildingBlock: OJICUG_clean_linker_0, # of connection points: 2
#     Edge 21, Type (0, 1), BuildingBlock: OJICUG_clean_linker_0, # of connection points: 2
#     Edge 22, Type (0, 1), BuildingBlock: OJICUG_clean_linker_0, # of connection points: 2
#     Edge 23, Type (0, 1), BuildingBlock: OJICUG_clean_linker_0, # of connection points: 2
#     Edge 24, Type (0, 1), BuildingBlock: OJICUG_clean_linker_0, # of connection points: 2
#     Edge 25, Type (0, 1), BuildingBlock: OJICUG_clean_linker_0, # of connection points: 2
#     Edge 26, Type (0, 1), BuildingBlock: OJICUG_clean_linker_0, # of connection points: 2
#     Edge 27, Type (0, 1), BuildingBlock: OJICUG_clean_linker_0, # of connection points: 2
#     Edge 28, Type (0, 1), BuildingBlock: OJICUG_clean_linker_0, # of connection points: 2
#     Edge 29, Type (0, 1), BuildingBlock: OJICUG_clean_linker_0, # of connection points: 2
#     Edge 30, Type (0, 1), BuildingBlock: OJICUG_clean_linker_0, # of connection points: 2
#     Edge 31, Type (0, 1), BuildingBlock: OJICUG_clean_linker_0, # of connection points: 2
#     Edge 32, Type (0, 1), BuildingBlock: OJICUG_clean_linker_0, # of connection points: 2
#     Edge 33, Type (0, 1), BuildingBlock: OJICUG_clean_linker_0, # of connection points: 2
#     Edge 34, Type (0, 1), BuildingBlock: OJICUG_clean_linker_0, # of connection points: 2
#     Edge 35, Type (0, 1), BuildingBlock: OJICUG_clean_linker_0, # of connection points: 2
# Relax obj value: 0.058
# Max RMSD: 0.117
# Mean RMSD: 0.078
data_MOF--net-zzz--node1-CUKXOW_clean_sbu_0--node2-BETDIP_clean_linker_0--edge1-OJICUG_clean_linker_0
_symmetry_space_group_name_H-M    P1
_symmetry_Int_Tables_number       1
_symmetry_cell_setting            triclinic
loop_
_symmetry_equiv_pos_as_xyz
'x, y, z'
_cell_length_a     36.539754
_cell_length_b     38.95014
_cell_length_c     12.018407
_cell_angle_alpha  94.127112
_cell_angle_beta   86.435818
_cell_angle_gamma 94.067383
loop_
_atom_site_label
_atom_site_type_symbol
_atom_site_fract_x
_atom_site_fract_y
_atom_site_fract_z
_atom_type_partial_charge
H0 H 0.7512 0.50749 0.30032 0.0
H1 H 0.80209 0.50745 0.96483 0.0
H2 H 0.86864 0.51406 0.24709 0.0
H3 H 0.7505 0.53454 0.93769 0.0
C4 C 0.72895 0.51929 -0.01825 0.0
C5 C 0.77547 0.50845 0.24378 0.0
C6 C 0.81055 0.51125 0.28642 0.0
C7 C 0.77194 0.50783 0.12729 0.0
C8 C 0.80402 0.50895 0.05455 0.0
C9 C 0.83892 0.51206 0.09826 0.0
C10 C 0.84164 0.5127 0.21327 0.0
N11 N 0.73613 0.50631 0.08545 0.0
H12 H 0.99822 0.76556 0.18726 0.0
H13 H 0.03342 0.79164 0.85148 0.0
H14 H 0.01465 0.87148 0.10952 0.0
H15 H 0.99597 0.73791 0.81854 0.0
C16 C 1.00752 0.72284 0.8788 0.0
C17 C 1.00572 0.78466 0.12714 0.0
C18 C 1.00452 0.81974 0.15971 0.0
C19 C 0.01546 0.77419 0.0155 0.0
C20 C 0.02537 0.79928 0.93742 0.0
C21 C 0.02582 0.83446 0.97283 0.0
C22 C 0.01506 0.84422 0.08301 0.0
N23 N 0.01584 0.73834 -0.01451 0.0
H24 H 0.75248 0.01728 0.29671 0.0
H25 H 0.72261 0.01443 0.95335 0.0
H26 H 0.63969 0.02086 0.22087 0.0
H27 H 0.77254 0.98034 0.93286 0.0
C28 C 0.79208 0.9963 -0.01801 0.0
C29 C 0.73185 0.01712 0.23564 0.0
C30 C 0.69476 0.01922 0.27085 0.0
C31 C 0.74219 0.01457 0.1207 0.0
C32 C 0.71502 0.015 0.04193 0.0
C33 C 0.67785 0.01669 0.07796 0.0
C34 C 0.66826 0.01868 0.19209 0.0
N35 N 0.77996 0.01243 0.08631 0.0
H36 H 0.55369 0.75666 0.28566 0.0
H37 H 0.51511 0.72002 0.9627 0.0
H38 H 0.50541 0.65355 0.23318 0.0
H39 H 0.55822 0.76162 0.90672 0.0
C40 C 0.5531 0.78275 0.9685 0.0
C41 C 0.54007 0.73683 0.23198 0.0
C42 C 0.52924 0.70461 0.27218 0.0
C43 C 0.53465 0.74294 0.12057 0.0
C44 C 0.51874 0.71621 0.04952 0.0
C45 C 0.5077 0.68403 0.09066 0.0
C46 C 0.51216 0.67892 0.20247 0.0
N47 N 0.5455 0.77604 0.08256 0.0
H48 H 0.27842 0.49737 0.14201 0.0
H49 H 0.23004 0.50362 0.48023 0.0
H50 H 0.16133 0.49424 0.20143 0.0
H51 H 0.28788 0.54454 0.48535 0.0
C52 C 0.30505 0.52407 0.45223 0.0
C53 C 0.25446 0.49771 0.19979 0.0
C54 C 0.21918 0.49522 0.15913 0.0
C55 C 0.25866 0.50131 0.31601 0.0
C56 C 0.22716 0.5016 0.3908 0.0
C57 C 0.1919 0.49782 0.34907 0.0
C58 C 0.18852 0.49549 0.23399 0.0
N59 N 0.29463 0.50324 0.35584 0.0
H60 H 0.03366 0.25028 0.23633 0.0
H61 H 0.99824 0.22338 0.57115 0.0
H62 H 0.01175 0.14425 0.30742 0.0
H63 H 0.03694 0.27582 0.6068 0.0
C64 C 0.02571 0.29153 0.54773 0.0
C65 C 0.02517 0.23105 0.29526 0.0
C66 C 0.02432 0.19603 0.2604 0.0
C67 C 0.01621 0.24123 0.40766 0.0
C68 C 1.00541 0.21597 0.4844 0.0
C69 C 1.00296 0.18094 0.44684 0.0
C70 C 0.01261 0.17143 0.33561 0.0
N71 N 0.01747 0.27701 0.4398 0.0
H72 H 0.27684 0.00568 0.12019 0.0
H73 H 0.30677 0.0081 0.4633 0.0
H74 H 0.39009 0.00666 0.1962 0.0
H75 H 0.25564 0.04032 0.48533 0.0
C76 C 0.23657 0.02391 0.43584 0.0
C77 C 0.29753 0.00655 0.1813 0.0
C78 C 0.33481 0.00632 0.14622 0.0
C79 C 0.28711 0.00814 0.29619 0.0
C80 C 0.3144 0.00841 0.37487 0.0
C81 C 0.35172 0.00845 0.33907 0.0
C82 C 0.3614 0.00762 0.22503 0.0
N83 N 0.24917 0.00863 0.33073 0.0
H84 H 0.47897 0.27269 0.14428 0.0
H85 H 0.51651 0.30951 0.46843 0.0
H86 H 0.5257 0.37627 0.19867 0.0
H87 H 0.47497 0.2668 0.52376 0.0
C88 C 0.47979 0.24593 0.46076 0.0
C89 C 0.49218 0.29264 0.19849 0.0
C90 C 0.5026 0.32501 0.15882 0.0
C91 C 0.4975 0.28649 0.30993 0.0
C92 C 0.51291 0.31335 0.38161 0.0
C93 C 0.52361 0.34568 0.34091 0.0
C94 C 0.5192 0.35082 0.2291 0.0
N95 N 0.48712 0.25317 0.34703 0.0
Tb96 Tb 1.00197 0.98136 0.61659 0.0
C97 C 0.08562 0.01209 0.613 0.0
Tb98 Tb 0.02715 0.03423 0.80459 0.0
O99 O 0.97466 0.02099 0.53633 0.0
O100 O 0.01932 0.03389 0.63354 0.0
O101 O 0.06159 0.98754 0.57344 0.0
C102 C 0.03542 0.09506 0.91809 0.0
O103 O 0.07623 0.03587 0.69256 0.0
C104 C 0.03474 0.96929 0.83492 0.0
C105 C 0.94343 0.00396 0.80752 0.0
O106 O 0.05513 0.06903 0.92803 0.0
O107 O 0.01025 0.08625 0.84836 0.0
O108 O 0.05442 0.9944 0.88444 0.0
O109 O 0.00971 0.98178 0.78758 0.0
O110 O 0.96759 0.02837 0.84706 0.0
O111 O 0.95269 0.98004 0.72819 0.0
C112 C 0.99353 0.92055 0.50314 0.0
O113 O 0.974 0.94667 0.49297 0.0
O114 O 0.01865 0.92923 0.57318 0.0
C115 C 0.99421 0.04617 0.5859 0.0
Tb116 Tb 0.50931 0.05077 0.67967 0.0
C117 C 0.5827 0.0173 0.59703 0.0
Tb118 Tb 0.52054 0.97588 0.73879 0.0
O119 O 0.55511 0.07175 0.77705 0.0
O120 O 0.52596 0.02612 0.81787 0.0
O121 O 0.55924 0.04056 0.57828 0.0
C122 C 0.54034 0.91763 0.81409 0.0
O123 O 0.57435 0.99161 0.66292 0.0
C124 C 0.47566 0.98101 0.58039 0.0
C125 C 0.44702 0.00923 0.82063 0.0
O126 O 0.53982 0.92394 0.7096 0.0
O127 O 0.53004 0.94428 0.87624 0.0
O128 O 0.47498 0.95468 0.64077 0.0
O129 O 0.50386 1.00051 0.6008 0.0
O130 O 0.47045 0.98595 0.83941 0.0
O131 O 0.45542 0.03499 0.75504 0.0
C132 C 0.48985 0.10954 0.60695 0.0
O133 O 0.49035 0.10276 0.71101 0.0
O134 O 0.4999 0.08301 0.54362 0.0
C135 C 0.55424 0.04552 0.83788 0.0
Tb136 Tb 0.5317 0.5441 0.64268 0.0
C137 C 0.44705 0.51704 0.63306 0.0
Tb138 Tb 0.50004 0.48571 0.79027 0.0
O139 O 0.55815 0.50668 0.52173 0.0
O140 O 0.51179 0.49242 0.62023 0.0
O141 O 0.47253 0.54253 0.61507 0.0
C142 C 0.48954 0.42232 0.86066 0.0
O143 O 0.45381 0.48931 0.68508 0.0
C144 C 0.49449 0.54893 0.87626 0.0
C145 C 0.58481 0.51385 0.80268 0.0
O146 O 0.46868 0.44755 0.88993 0.0
O147 O 0.51666 0.43319 0.79483 0.0
O148 O 0.4728 0.52315 0.90915 0.0
O149 O 0.51975 0.53734 0.81261 0.0
O150 O 0.559 0.48894 0.82569 0.0
O151 O 0.57827 0.54043 0.74486 0.0
C152 C 0.54246 0.60736 0.57082 0.0
O153 O 0.56316 0.582 0.54203 0.0
O154 O 0.51535 0.59669 0.63691 0.0
C155 C 0.53676 0.48086 0.55549 0.0
Tb156 Tb 0.98174 0.50714 0.64837 0.0
C157 C 0.01933 0.43787 0.65447 0.0
Tb158 Tb 0.04914 0.50609 0.79544 0.0
O159 O 0.0174 0.49889 0.4956 0.0
O160 O 0.03783 0.52344 0.64063 0.0
O161 O 0.9888 0.45222 0.63366 0.0
C162 C 0.11691 0.49919 0.85801 0.0
O163 O 0.04732 0.45518 0.7038 0.0
C164 C 0.98413 0.50218 0.89924 0.0
C165 C 0.01212 0.57564 0.78679 0.0
O166 O 0.08796 0.47944 0.88406 0.0
O167 O 0.10747 0.52375 0.80054 0.0
O168 O 0.01354 0.51466 0.94806 0.0
O169 O 0.99312 0.48985 0.8033 0.0
O170 O 0.04256 0.56117 0.8081 0.0
O171 O 0.98391 0.55831 0.73843 0.0
C172 C 0.91325 0.51185 0.58772 0.0
O173 O 0.94142 0.5325 0.56094 0.0
O174 O 0.9239 0.48783 0.64507 0.0
C175 C 0.04683 0.51131 0.54453 0.0
C176 C 0.17149 0.99782 0.42346 0.0
C177 C 0.19761 0.02037 0.47732 0.0
H178 H 0.11533 0.97722 0.42438 0.0
C179 C 0.18667 0.03982 0.57473 0.0
H180 H 0.17926 0.98236 0.34832 0.0
C181 C 0.15035 0.03707 0.61769 0.0
C182 C 0.124 0.01455 0.56471 0.0
H183 H 0.2063 0.05729 0.61805 0.0
H184 H 0.14311 0.05253 0.69334 0.0
C185 C 0.13494 0.99481 0.46716 0.0
C186 C 0.48576 0.18238 0.41775 0.0
C187 C 0.4793 0.21028 0.49571 0.0
H188 H 0.4938 0.12831 0.39226 0.0
C189 C 0.47381 0.20427 0.60944 0.0
H190 H 0.48996 0.18618 0.32938 0.0
C191 C 0.47597 0.17117 0.64526 0.0
C192 C 0.48364 0.14352 0.56782 0.0
H193 H 0.46871 0.22535 0.67104 0.0
H194 H 0.47259 0.16741 0.73384 0.0
C195 C 0.48787 0.14924 0.45361 0.0
C196 C 0.35957 0.5517 0.54703 0.0
C197 C 0.34156 0.52201 0.49717 0.0
H198 H 0.40771 0.5735 0.62658 0.0
C199 C 0.35836 0.49056 0.49257 0.0
H200 H 0.34709 0.57621 0.55167 0.0
C201 C 0.39242 0.48878 0.53862 0.0
C202 C 0.41075 0.51864 0.58668 0.0
H203 H 0.34487 0.46726 0.45526 0.0
H204 H 0.40473 0.46419 0.53495 0.0
C205 C 0.39418 0.55016 0.58958 0.0
C206 C 1.00272 0.34865 0.51324 0.0
C207 C 0.02433 0.32905 0.57384 0.0
H208 H 0.98403 0.39852 0.49193 0.0
C209 C 0.04477 0.34551 0.6597 0.0
H210 H 0.98655 0.33656 0.44682 0.0
C211 C 0.04389 0.3811 0.68409 0.0
C212 C 0.02183 0.40065 0.62471 0.0
H213 H 0.06165 0.33088 0.70738 0.0
H214 H 0.05987 0.39316 0.75104 0.0
C215 C 1.00121 0.38408 0.5392 0.0
C216 C 0.85766 0.02075 -0.00568 0.0
C217 C 0.83116 0.99845 0.94127 0.0
H218 H 0.91414 0.04022 -0.00658 0.0
C219 C 0.84187 0.97805 0.8456 0.0
H220 H 0.85011 0.03692 0.06809 0.0
C221 C 0.87832 0.97973 0.80342 0.0
C222 C 0.905 0.00213 0.85542 0.0
H223 H 0.82193 0.96072 0.80302 0.0
H224 H 0.88542 0.96364 0.72902 0.0
C225 C 0.89429 0.02269 0.9514 0.0
C226 C 0.54608 0.84625 0.00769 0.0
C227 C 0.55294 0.81807 0.93131 0.0
H228 H 0.53705 0.90016 0.02997 0.0
C229 C 0.55812 0.82343 0.81704 0.0
H230 H 0.5421 0.84294 0.09642 0.0
C231 C 0.55523 0.85616 0.77915 0.0
C232 C 0.54716 0.88406 0.85507 0.0
H233 H 0.56351 0.80211 0.75664 0.0
H234 H 0.55839 0.85941 0.69023 0.0
C235 C 0.54324 0.87901 0.96978 0.0
C236 C 0.68566 0.53586 0.84699 0.0
C237 C 0.69178 0.51664 0.93754 0.0
H238 H 0.64741 0.55006 0.73403 0.0
C239 C 0.6626 0.49548 -0.01728 0.0
H240 H 0.7077 0.55224 0.81018 0.0
C241 C 0.62782 0.49387 0.93801 0.0
C242 C 0.62162 0.51375 0.8485 0.0
H243 H 0.6666 0.4802 0.05222 0.0
H244 H 0.60572 0.47756 0.97467 0.0
C245 C 0.65104 0.53462 0.80348 0.0
C246 C 0.0302 0.666 0.91865 0.0
C247 C 1.00861 0.68514 0.85644 0.0
H248 H 0.04843 0.61626 0.94476 0.0
C249 C 0.98771 0.66801 0.77277 0.0
H250 H 0.0467 0.67861 -0.01653 0.0
C251 C 0.9881 0.63224 0.75216 0.0
C252 C 0.01012 0.61311 0.81316 0.0
H253 H 0.97082 0.68225 0.72392 0.0
H254 H 0.97178 0.6197 0.68677 0.0
C255 C 0.03124 0.63035 0.89641 0.0
C256 C 0.96305 0.12966 0.49563 0.0
C257 C 0.99353 0.1525 0.51993 0.0
H258 H 0.93957 0.07759 0.4965 0.0
C259 C 0.0213 0.14139 0.58124 0.0
H260 H 0.94175 0.13756 0.446 0.0
C261 C 0.02053 0.10699 0.60749 0.0
C262 C 0.99177 0.08332 0.57383 0.0
H263 H 0.04549 0.15825 0.5981 0.0
H264 H 0.04377 0.09845 0.64722 0.0
C265 C 0.9622 0.09525 0.5223 0.0
C266 C 0.3781 0.98078 0.4944 0.0
C267 C 0.38125 0.00612 0.4166 0.0
H268 H 0.4059 0.95282 0.60655 0.0
C269 C 0.4152 0.02507 0.39956 0.0
H270 H 0.35247 0.96552 0.50825 0.0
C271 C 0.446 0.01715 0.4533 0.0
C272 C 0.4432 0.99068 0.52661 0.0
H273 H 0.41837 0.04488 0.34019 0.0
H274 H 0.47223 0.03066 0.43381 0.0
C275 C 0.40885 0.97311 0.54891 0.0
C276 C 0.56278 0.39948 0.38739 0.0
C277 C 0.53272 0.37647 0.41563 0.0
H278 H 0.58778 0.45091 0.41024 0.0
C279 C 0.50631 0.38707 0.49803 0.0
H280 H 0.58319 0.39194 0.32264 0.0
C281 C 0.50832 0.42086 0.54504 0.0
C282 C 0.53727 0.44446 0.51281 0.0
H283 H 0.48243 0.37016 0.51914 0.0
H284 H 0.48611 0.42892 0.60263 0.0
C285 C 0.56515 0.43323 0.43619 0.0
C286 C 0.12881 0.47236 0.39354 0.0
C287 C 0.15741 0.4972 0.42044 0.0
H288 H 0.07108 0.45809 0.40883 0.0
C289 C 0.14986 0.52503 0.49701 0.0
H290 H 0.13402 0.45051 0.33505 0.0
C291 C 0.11378 0.52921 0.53949 0.0
C292 C 0.08492 0.50582 0.50493 0.0
H293 H 0.17127 0.5447 0.51797 0.0
H294 H 0.10815 0.55159 0.59509 0.0
C295 C 0.0928 0.4769 0.43414 0.0
C296 C 0.06587 0.88544 0.92273 0.0
C297 C 0.03522 0.86275 0.89913 0.0
H298 H 0.08956 0.93745 0.92197 0.0
C299 C 1.00723 0.87412 0.83924 0.0
H300 H 0.08731 0.87738 0.9715 0.0
C301 C 1.00805 0.90858 0.81353 0.0
C302 C 0.03705 0.93208 0.84647 0.0
H303 H 0.98287 0.8574 0.82313 0.0
H304 H 0.9847 0.91729 0.77481 0.0
C305 C 0.06676 0.91992 0.8967 0.0
C306 C 0.65197 0.04425 0.92154 0.0
C307 C 0.64839 0.01924 0.00044 0.0
H308 H 0.62454 0.07239 0.80884 0.0
C309 C 0.6141 1.00105 0.01909 0.0
H310 H 0.6779 0.05892 0.90651 0.0
C311 C 0.5834 0.00944 0.96592 0.0
C312 C 0.58662 0.03558 0.89138 0.0
H313 H 0.61062 0.98155 0.0795 0.0
H314 H 0.55693 0.99658 -0.01317 0.0
C315 C 0.62128 0.05237 0.86746 0.0
C316 C 0.46839 0.63031 0.04411 0.0
C317 C 0.4985 0.65327 0.01602 0.0
H318 H 0.4433 0.57891 0.02096 0.0
C319 C 0.52492 0.64266 0.93368 0.0
H320 H 0.44798 0.63787 0.10882 0.0
C321 C 0.5229 0.60888 0.88668 0.0
C322 C 0.49389 0.58532 0.9187 0.0
H323 H 0.54885 0.65952 0.91269 0.0
H324 H 0.54516 0.60079 0.82932 0.0
C325 C 0.46597 0.59657 -0.00486 0.0
C326 C 0.88138 0.48676 0.94803 0.0
C327 C 0.87363 0.51361 0.02822 0.0
H328 H 0.92325 0.46167 0.84618 0.0
C329 C 0.90199 0.53831 0.05817 0.0
H330 H 0.86015 0.46717 0.9249 0.0
C331 C 0.93797 0.53472 0.01564 0.0
C332 C 0.94605 0.50681 0.94054 0.0
H333 H 0.89661 0.55935 0.11969 0.0
H334 H 0.95952 0.55343 0.04282 0.0
C335 C 0.91744 0.48344 0.90427 0.0
C336 C 0.06644 0.16334 0.13406 0.0
C337 C 0.03548 0.18297 0.14688 0.0
H338 H 0.09027 0.11902 0.05146 0.0
C339 C 1.00868 0.17819 0.06776 0.0
H340 H 0.08712 0.16642 0.1955 0.0
C341 C 0.01034 0.15098 -0.01423 0.0
C342 C 0.03862 0.12827 -0.01644 0.0
H343 H 0.98433 0.19272 0.07753 0.0
H344 H 0.98779 0.14587 0.93121 0.0
C345 C 0.06785 0.13586 0.05329 0.0
C346 C 0.36031 0.03525 -0.0192 0.0
C347 C 0.34856 0.00427 0.02874 0.0
H348 H 0.40146 0.0612 0.8765 0.0
C349 C 0.36435 0.97368 -0.01198 0.0
H350 H 0.34891 0.05921 0.01255 0.0
C351 C 0.39526 0.97495 0.91391 0.0
C352 C 0.41013 0.00672 0.87762 0.0
H353 H 0.35598 0.9496 0.02513 0.0
H354 H 0.409 0.95147 0.89148 0.0
C355 C 0.39089 0.03645 0.90491 0.0
C356 C 0.45934 0.35289 0.05303 0.0
C357 C 0.4918 0.33557 0.05153 0.0
H358 H 0.43338 0.39508 -0.00655 0.0
C359 C 0.51943 0.34146 0.96756 0.0
H360 H 0.43797 0.34903 0.11849 0.0
C361 C 0.51685 0.3678 0.89614 0.0
C362 C 0.48688 0.38869 0.90957 0.0
H363 H 0.54491 0.32876 0.96637 0.0
H364 H 0.54002 0.37404 0.83875 0.0
C365 C 0.45701 0.37962 -0.01702 0.0
C366 C 0.19246 0.46259 -0.00073 0.0
C367 C 0.21138 0.49313 0.04004 0.0
H368 H 0.14591 0.44094 0.9123 0.0
C369 C 0.20565 0.5242 -0.00689 0.0
H370 H 0.19624 0.43839 0.03485 0.0
C371 C 0.17681 0.52569 0.92244 0.0
C372 C 0.15354 0.49614 0.89928 0.0
H373 H 0.21963 0.54813 0.02409 0.0
H374 H 0.17021 0.55055 0.89708 0.0
C375 C 0.16308 0.4642 0.93135 0.0
C376 C 0.02004 0.83745 0.35264 0.0
C377 C 0.99336 0.83296 0.2731 0.0
H378 H 0.0409 0.86947 0.48992 0.0
C379 C 0.96249 0.85272 0.28596 0.0
H380 H 0.0443 0.8228 0.34295 0.0
C381 C 0.9611 0.88006 0.3672 0.0
C382 C 0.99026 0.8874 0.43734 0.0
H383 H 0.94186 0.84982 0.22433 0.0
H384 H 0.93876 0.897 0.36909 0.0
C385 C 0.01841 0.86455 0.43506 0.0
C386 C 0.66522 0.05237 0.42797 0.0
C387 C 0.68106 0.0217 0.38838 0.0
H388 H 0.62055 0.07483 0.52366 0.0
C389 C 0.66943 0.99093 0.4377 0.0
H390 H 0.67353 0.07631 0.38986 0.0
C391 C 0.63886 0.98995 0.51366 0.0
C392 C 0.61953 0.01969 0.53971 0.0
H393 H 0.68089 0.9669 0.40695 0.0
H394 H 0.62838 0.9653 0.54315 0.0
C395 C 0.63433 0.05132 0.50216 0.0
C396 C 0.5128 0.68829 0.46377 0.0
C397 C 0.54025 0.69395 0.37909 0.0
H398 H 0.49235 0.65596 0.59339 0.0
C399 C 0.57258 0.67639 0.37683 0.0
H400 H 0.48743 0.70117 0.46556 0.0
C401 C 0.57492 0.6497 0.44704 0.0
C402 C 0.54521 0.6409 0.52133 0.0
H403 H 0.59379 0.68006 0.31081 0.0
H404 H 0.59842 0.63407 0.4361 0.0
C405 C 0.5154 0.66199 0.53533 0.0
C406 C 0.83484 0.54459 0.44845 0.0
C407 C 0.81784 0.51327 0.40596 0.0
H408 H 0.88038 0.56846 0.53588 0.0
C409 C 0.8257 0.48255 0.45131 0.0
H410 H 0.8294 0.56859 0.41419 0.0
C411 C 0.85481 0.48248 0.52185 0.0
C412 C 0.87631 0.5131 0.54632 0.0
H413 H 0.81325 0.45805 0.41912 0.0
H414 H 0.86306 0.45803 0.54601 0.0
C415 C 0.86462 0.54443 0.51583 0.0
loop_
_geom_bond_atom_site_label_1
_geom_bond_atom_site_label_2
_geom_bond_distance
_geom_bond_site_symmetry_2
_ccdc_geom_bond_type
H0 C5 0.930 . S
H1 C8 0.930 . S
H2 C10 0.930 . S
H3 C4 1.016 . S
C4 H3 1.016 . S
C4 N11 1.286 1_556 S
C5 H0 0.930 . S
C5 C6 1.397 . S
C5 C7 1.361 . S
C6 C5 1.397 . S
C6 C10 1.390 . S
C7 C5 1.361 . S
C7 C8 1.393 1_554 S
C7 N11 1.413 . S
C8 H1 0.930 . S
C8 C7 1.393 1_556 S
C8 C9 1.399 . S
C9 C8 1.399 . S
C9 C10 1.381 1_556 S
C10 H2 0.930 . S
C10 C6 1.390 . S
C10 C9 1.381 1_554 S
N11 C4 1.286 1_554 S
N11 C7 1.413 . S
H12 C17 0.930 . S
H13 C20 0.930 . S
H14 C22 0.930 . S
H15 C16 1.016 . S
C16 H15 1.016 . S
C16 N23 1.286 1_556 S
C17 H12 0.930 . S
C17 C18 1.397 . S
C17 C19 1.361 . S
C18 C17 1.397 . S
C18 C22 1.390 . S
C19 C17 1.361 . S
C19 C20 1.393 1_554 S
C19 N23 1.413 . S
C20 H13 0.930 . S
C20 C19 1.393 1_556 S
C20 C21 1.399 . S
C21 C20 1.399 . S
C21 C22 1.381 1_556 S
C22 H14 0.930 . S
C22 C18 1.390 . S
C22 C21 1.381 1_554 S
N23 C16 1.286 1_554 S
N23 C19 1.413 . S
H24 C29 0.930 . S
H25 C32 0.930 1_556 S
H26 C34 0.930 . S
H27 C28 1.016 1_556 S
C28 H27 1.016 1_554 S
C28 N35 1.286 . S
C29 H24 0.930 . S
C29 C30 1.397 . S
C29 C31 1.361 . S
C30 C29 1.397 . S
C30 C34 1.390 . S
C31 C29 1.361 . S
C31 C32 1.393 . S
C31 N35 1.413 . S
C32 H25 0.930 1_554 S
C32 C31 1.393 . S
C32 C33 1.399 . S
C33 C32 1.399 . S
C33 C34 1.381 . S
C34 H26 0.930 . S
C34 C30 1.390 . S
C34 C33 1.381 . S
N35 C28 1.286 . S
N35 C31 1.413 . S
H36 C41 0.930 . S
H37 C44 0.930 1_556 S
H38 C46 0.930 . S
H39 C40 1.016 1_556 S
C40 H39 1.016 1_554 S
C40 N47 1.286 . S
C41 H36 0.930 . S
C41 C42 1.397 . S
C41 C43 1.361 . S
C42 C41 1.397 . S
C42 C46 1.390 . S
C43 C41 1.361 . S
C43 C44 1.393 . S
C43 N47 1.413 . S
C44 H37 0.930 1_554 S
C44 C43 1.393 . S
C44 C45 1.399 . S
C45 C44 1.399 . S
C45 C46 1.381 . S
C46 H38 0.930 . S
C46 C42 1.390 . S
C46 C45 1.381 . S
N47 C40 1.286 . S
N47 C43 1.413 . S
H48 C53 0.930 . S
H49 C56 0.930 . S
H50 C58 0.930 . S
H51 C52 1.016 . S
C52 H51 1.016 . S
C52 N59 1.286 . S
C53 H48 0.930 . S
C53 C54 1.397 . S
C53 C55 1.361 . S
C54 C53 1.397 . S
C54 C58 1.390 . S
C55 C53 1.361 . S
C55 C56 1.393 . S
C55 N59 1.413 . S
C56 H49 0.930 . S
C56 C55 1.393 . S
C56 C57 1.399 . S
C57 C56 1.399 . S
C57 C58 1.381 . S
C58 H50 0.930 . S
C58 C54 1.390 . S
C58 C57 1.381 . S
N59 C52 1.286 . S
N59 C55 1.413 . S
H60 C65 0.930 . S
H61 C68 0.930 . S
H62 C70 0.930 . S
H63 C64 1.016 . S
C64 H63 1.016 . S
C64 N71 1.286 . S
C65 H60 0.930 . S
C65 C66 1.397 . S
C65 C67 1.361 . S
C66 C65 1.397 . S
C66 C70 1.390 . S
C67 C65 1.361 . S
C67 C68 1.393 . S
C67 N71 1.413 . S
C68 H61 0.930 . S
C68 C67 1.393 . S
C68 C69 1.399 . S
C69 C68 1.399 . S
C69 C70 1.381 . S
C70 H62 0.930 . S
C70 C66 1.390 . S
C70 C69 1.381 . S
N71 C64 1.286 . S
N71 C67 1.413 . S
H72 C77 0.930 . S
H73 C80 0.930 . S
H74 C82 0.930 . S
H75 C76 1.016 . S
C76 H75 1.016 . S
C76 N83 1.286 . S
C77 H72 0.930 . S
C77 C78 1.397 . S
C77 C79 1.361 . S
C78 C77 1.397 . S
C78 C82 1.390 . S
C79 C77 1.361 . S
C79 C80 1.393 . S
C79 N83 1.413 . S
C80 H73 0.930 . S
C80 C79 1.393 . S
C80 C81 1.399 . S
C81 C80 1.399 . S
C81 C82 1.381 . S
C82 H74 0.930 . S
C82 C78 1.390 . S
C82 C81 1.381 . S
N83 C76 1.286 . S
N83 C79 1.413 . S
H84 C89 0.930 . S
H85 C92 0.930 . S
H86 C94 0.930 . S
H87 C88 1.016 . S
C88 H87 1.016 . S
C88 N95 1.286 . S
C89 H84 0.930 . S
C89 C90 1.397 . S
C89 C91 1.361 . S
C90 C89 1.397 . S
C90 C94 1.390 . S
C91 C89 1.361 . S
C91 C92 1.393 . S
C91 N95 1.413 . S
C92 H85 0.930 . S
C92 C91 1.393 . S
C92 C93 1.399 . S
C93 C92 1.399 . S
C93 C94 1.381 . S
C94 H86 0.930 . S
C94 C90 1.390 . S
C94 C93 1.381 . S
N95 C88 1.286 . S
N95 C91 1.413 . S
Tb96 O99 2.453 1_565 S
Tb96 O100 2.596 1_665 S
Tb96 O101 2.374 1_665 S
Tb96 O109 2.340 1_655 S
Tb96 O111 2.353 1_565 S
Tb96 O113 2.427 . S
Tb96 O114 2.513 1_655 S
C97 O101 1.251 . S
C97 O103 1.263 . S
Tb98 O100 2.343 . S
Tb98 O103 2.353 . S
Tb98 O106 2.427 . S
Tb98 O107 2.513 1_455 S
Tb98 O108 2.453 1_545 S
Tb98 O109 2.599 1_545 S
Tb98 O110 2.374 1_455 S
O99 Tb96 2.453 1_545 S
O99 C115 1.245 1_655 S
O100 Tb96 2.596 1_445 S
O100 Tb98 2.343 . S
O100 C115 1.259 . S
O101 Tb96 2.374 1_445 S
O101 C97 1.251 . S
C102 O106 1.275 . S
C102 O107 1.246 1_455 S
O103 C97 1.263 . S
O103 Tb98 2.353 . S
C104 O108 1.245 . S
C104 O109 1.261 . S
C105 O110 1.250 . S
C105 O111 1.263 . S
O106 Tb98 2.427 . S
O106 C102 1.275 . S
O107 Tb98 2.513 1_655 S
O107 C102 1.246 1_655 S
O108 Tb98 2.453 1_565 S
O108 C104 1.245 . S
O109 Tb96 2.340 1_455 S
O109 Tb98 2.599 1_565 S
O109 C104 1.261 . S
O110 Tb98 2.374 1_655 S
O110 C105 1.250 . S
O111 Tb96 2.353 1_545 S
O111 C105 1.263 . S
C112 O113 1.275 . S
C112 O114 1.246 1_655 S
O113 Tb96 2.427 . S
O113 C112 1.275 . S
O114 Tb96 2.513 1_455 S
O114 C112 1.246 1_455 S
C115 O99 1.245 1_455 S
C115 O100 1.259 . S
Tb116 O119 2.453 . S
Tb116 O120 2.596 1_545 S
Tb116 O121 2.374 . S
Tb116 O129 2.343 . S
Tb116 O131 2.353 . S
Tb116 O133 2.427 . S
Tb116 O134 2.513 . S
C117 O121 1.230 1_565 S
C117 O123 1.279 . S
Tb118 O120 2.343 . S
Tb118 O123 2.353 . S
Tb118 O126 2.427 . S
Tb118 O127 2.513 . S
Tb118 O128 2.453 . S
Tb118 O129 2.596 1_565 S
Tb118 O130 2.374 . S
O119 Tb116 2.453 . S
O119 C135 1.245 . S
O120 Tb116 2.596 1_565 S
O120 Tb118 2.343 . S
O120 C135 1.259 1_565 S
O121 Tb116 2.374 . S
O121 C117 1.230 1_545 S
C122 O126 1.275 . S
C122 O127 1.246 . S
O123 C117 1.279 . S
O123 Tb118 2.353 . S
C124 O128 1.245 1_545 S
C124 O129 1.259 . S
C125 O130 1.250 1_545 S
C125 O131 1.263 . S
O126 Tb118 2.427 . S
O126 C122 1.275 . S
O127 Tb118 2.513 . S
O127 C122 1.246 . S
O128 Tb118 2.453 . S
O128 C124 1.245 1_565 S
O129 Tb116 2.343 . S
O129 Tb118 2.596 1_545 S
O129 C124 1.259 . S
O130 Tb118 2.374 . S
O130 C125 1.250 1_565 S
O131 Tb116 2.353 . S
O131 C125 1.263 . S
C132 O133 1.275 . S
C132 O134 1.246 . S
O133 Tb116 2.427 . S
O133 C132 1.275 . S
O134 Tb116 2.513 . S
O134 C132 1.246 . S
C135 O119 1.245 . S
C135 O120 1.259 1_545 S
Tb136 O139 2.453 . S
Tb136 O140 2.596 . S
Tb136 O141 2.374 . S
Tb136 O149 2.343 . S
Tb136 O151 2.353 . S
Tb136 O153 2.427 . S
Tb136 O154 2.513 . S
C137 O141 1.251 . S
C137 O143 1.263 . S
Tb138 O140 2.343 . S
Tb138 O143 2.353 . S
Tb138 O146 2.427 . S
Tb138 O147 2.513 . S
Tb138 O148 2.453 . S
Tb138 O149 2.596 . S
Tb138 O150 2.374 . S
O139 Tb136 2.453 . S
O139 C155 1.245 . S
O140 Tb136 2.596 . S
O140 Tb138 2.343 . S
O140 C155 1.259 . S
O141 Tb136 2.374 . S
O141 C137 1.251 . S
C142 O146 1.275 . S
C142 O147 1.246 . S
O143 C137 1.263 . S
O143 Tb138 2.353 . S
C144 O148 1.245 . S
C144 O149 1.259 . S
C145 O150 1.250 . S
C145 O151 1.263 . S
O146 Tb138 2.427 . S
O146 C142 1.275 . S
O147 Tb138 2.513 . S
O147 C142 1.246 . S
O148 Tb138 2.453 . S
O148 C144 1.245 . S
O149 Tb136 2.343 . S
O149 Tb138 2.596 . S
O149 C144 1.259 . S
O150 Tb138 2.374 . S
O150 C145 1.250 . S
O151 Tb136 2.353 . S
O151 C145 1.263 . S
C152 O153 1.275 . S
C152 O154 1.246 . S
O153 Tb136 2.427 . S
O153 C152 1.275 . S
O154 Tb136 2.513 . S
O154 C152 1.246 . S
C155 O139 1.245 . S
C155 O140 1.259 . S
Tb156 O159 2.453 1_655 S
Tb156 O160 2.596 1_655 S
Tb156 O161 2.374 1_655 S
Tb156 O169 2.343 . S
Tb156 O171 2.353 1_655 S
Tb156 O173 2.427 . S
Tb156 O174 2.513 . S
C157 O161 1.251 . S
C157 O163 1.263 . S
Tb158 O160 2.343 . S
Tb158 O163 2.353 . S
Tb158 O166 2.427 . S
Tb158 O167 2.513 . S
Tb158 O168 2.453 1_455 S
Tb158 O169 2.596 1_455 S
Tb158 O170 2.374 . S
O159 Tb156 2.453 1_455 S
O159 C175 1.245 . S
O160 Tb156 2.596 1_455 S
O160 Tb158 2.343 . S
O160 C175 1.259 . S
O161 Tb156 2.374 1_455 S
O161 C157 1.251 . S
C162 O166 1.275 . S
C162 O167 1.246 . S
O163 C157 1.263 . S
O163 Tb158 2.353 . S
C164 O168 1.245 . S
C164 O169 1.259 . S
C165 O170 1.258 . S
C165 O171 1.263 . S
O166 Tb158 2.427 . S
O166 C162 1.275 . S
O167 Tb158 2.513 . S
O167 C162 1.246 . S
O168 Tb158 2.453 1_655 S
O168 C164 1.245 . S
O169 Tb156 2.343 . S
O169 Tb158 2.596 1_655 S
O169 C164 1.259 . S
O170 Tb158 2.374 . S
O170 C165 1.258 . S
O171 Tb156 2.353 1_455 S
O171 C165 1.263 . S
C172 O173 1.275 . S
C172 O174 1.246 . S
O173 Tb156 2.427 . S
O173 C172 1.275 . S
O174 Tb156 2.513 . S
O174 C172 1.246 . S
C175 O159 1.245 . S
C175 O160 1.259 . S
C176 C177 1.387 . S
C176 H180 0.950 1_545 S
C176 C185 1.397 . S
C177 C176 1.387 . S
C177 C179 1.387 . S
H178 C185 0.925 1_565 S
C179 C177 1.387 . S
C179 C181 1.390 . S
C179 H183 0.950 . S
H180 C176 0.950 1_565 S
C181 C179 1.390 . S
C181 C182 1.387 . S
C181 H184 0.950 . S
C182 C181 1.387 . S
C182 C185 1.406 . S
H183 C179 0.950 . S
H184 C181 0.950 . S
C185 C176 1.397 . S
C185 H178 0.925 1_545 S
C185 C182 1.406 . S
C186 C187 1.387 . S
C186 H190 0.950 . S
C186 C195 1.390 . S
C187 C186 1.387 . S
C187 C189 1.387 . S
H188 C195 0.950 . S
C189 C187 1.387 . S
C189 C191 1.390 . S
C189 H193 0.950 . S
H190 C186 0.950 . S
C191 C189 1.390 . S
C191 C192 1.387 . S
C191 H194 0.950 . S
C192 C191 1.387 . S
C192 C195 1.387 . S
H193 C189 0.950 . S
H194 C191 0.950 . S
C195 C186 1.390 . S
C195 H188 0.950 . S
C195 C192 1.387 . S
C196 C197 1.387 . S
C196 H200 0.950 . S
C196 C205 1.390 . S
C197 C196 1.387 . S
C197 C199 1.387 . S
H198 C205 0.950 . S
C199 C197 1.387 . S
C199 C201 1.390 . S
C199 H203 0.950 . S
H200 C196 0.950 . S
C201 C199 1.390 . S
C201 C202 1.387 . S
C201 H204 0.950 . S
C202 C201 1.387 . S
C202 C205 1.387 . S
H203 C199 0.950 . S
H204 C201 0.950 . S
C205 C196 1.390 . S
C205 H198 0.950 . S
C205 C202 1.387 . S
C206 C207 1.387 . S
C206 H210 0.950 . S
C206 C215 1.390 . S
C207 C206 1.387 . S
C207 C209 1.387 . S
H208 C215 0.950 . S
C209 C207 1.387 . S
C209 C211 1.390 . S
C209 H213 0.950 . S
H210 C206 0.950 . S
C211 C209 1.390 . S
C211 C212 1.387 . S
C211 H214 0.950 . S
C212 C211 1.387 . S
C212 C215 1.387 . S
H213 C209 0.950 . S
H214 C211 0.950 . S
C215 C206 1.390 . S
C215 H208 0.950 . S
C215 C212 1.387 . S
C216 C217 1.387 1_545 S
C216 H220 0.950 1_556 S
C216 C225 1.390 . S
C217 C216 1.387 1_565 S
C217 C219 1.387 . S
H218 C225 0.950 . S
C219 C217 1.387 . S
C219 C221 1.390 . S
C219 H223 0.950 . S
H220 C216 0.950 1_554 S
C221 C219 1.390 . S
C221 C222 1.387 . S
C221 H224 0.950 . S
C222 C221 1.387 . S
C222 C225 1.387 1_565 S
H223 C219 0.950 . S
H224 C221 0.950 . S
C225 C216 1.390 . S
C225 H218 0.950 . S
C225 C222 1.387 1_545 S
C226 C227 1.387 1_554 S
C226 H230 0.950 . S
C226 C235 1.390 1_554 S
C227 C226 1.387 1_556 S
C227 C229 1.387 . S
H228 C235 0.950 . S
C229 C227 1.387 . S
C229 C231 1.390 . S
C229 H233 0.950 . S
H230 C226 0.950 . S
C231 C229 1.390 . S
C231 C232 1.387 . S
C231 H234 0.950 . S
C232 C231 1.387 . S
C232 C235 1.387 . S
H233 C229 0.950 . S
H234 C231 0.950 . S
C235 C226 1.390 1_556 S
C235 H228 0.950 . S
C235 C232 1.387 . S
C236 C237 1.387 . S
C236 H240 0.950 . S
C236 C245 1.390 . S
C237 C236 1.387 . S
C237 C239 1.387 . S
H238 C245 0.950 . S
C239 C237 1.387 . S
C239 C241 1.390 . S
C239 H243 0.950 . S
H240 C236 0.950 . S
C241 C239 1.390 . S
C241 C242 1.387 . S
C241 H244 0.950 . S
C242 C241 1.387 . S
C242 C245 1.387 . S
H243 C239 0.950 . S
H244 C241 0.950 . S
C245 C236 1.390 . S
C245 H238 0.950 . S
C245 C242 1.387 . S
C246 C247 1.387 . S
C246 H250 0.950 . S
C246 C255 1.390 . S
C247 C246 1.387 . S
C247 C249 1.387 . S
H248 C255 0.950 . S
C249 C247 1.387 . S
C249 C251 1.390 1_655 S
C249 H253 0.950 1_655 S
H250 C246 0.950 . S
C251 C249 1.390 1_455 S
C251 C252 1.387 1_455 S
C251 H254 0.950 . S
C252 C251 1.387 1_655 S
C252 C255 1.387 . S
H253 C249 0.950 1_455 S
H254 C251 0.950 . S
C255 C246 1.390 . S
C255 H248 0.950 . S
C255 C252 1.387 . S
C256 C257 1.387 . S
C256 H260 0.950 . S
C256 C265 1.390 . S
C257 C256 1.387 . S
C257 C259 1.387 . S
H258 C265 0.950 . S
C259 C257 1.387 . S
C259 C261 1.390 . S
C259 H263 0.950 . S
H260 C256 0.950 . S
C261 C259 1.390 . S
C261 C262 1.387 . S
C261 H264 0.950 . S
C262 C261 1.387 . S
C262 C265 1.387 . S
H263 C259 0.950 . S
H264 C261 0.950 . S
C265 C256 1.390 . S
C265 H258 0.950 . S
C265 C262 1.387 . S
C266 C267 1.387 . S
C266 H270 0.950 . S
C266 C275 1.390 . S
C267 C266 1.387 . S
C267 C269 1.387 . S
H268 C275 0.950 1_565 S
C269 C267 1.387 . S
C269 C271 1.390 . S
C269 H273 0.950 . S
H270 C266 0.950 . S
C271 C269 1.390 . S
C271 C272 1.387 . S
C271 H274 0.950 . S
C272 C271 1.387 . S
C272 C275 1.387 . S
H273 C269 0.950 . S
H274 C271 0.950 . S
C275 C266 1.390 . S
C275 H268 0.950 1_545 S
C275 C272 1.387 . S
C276 C277 1.387 . S
C276 H280 0.950 . S
C276 C285 1.390 . S
C277 C276 1.387 . S
C277 C279 1.387 . S
H278 C285 0.950 . S
C279 C277 1.387 . S
C279 C281 1.390 . S
C279 H283 0.950 . S
H280 C276 0.950 . S
C281 C279 1.390 . S
C281 C282 1.387 . S
C281 H284 0.950 . S
C282 C281 1.387 . S
C282 C285 1.387 . S
H283 C279 0.950 . S
H284 C281 0.950 . S
C285 C276 1.390 . S
C285 H278 0.950 . S
C285 C282 1.387 . S
C286 C287 1.387 . S
C286 H290 0.950 . S
C286 C295 1.390 . S
C287 C286 1.387 . S
C287 C289 1.387 . S
H288 C295 0.950 . S
C289 C287 1.387 . S
C289 C291 1.390 . S
C289 H293 0.950 . S
H290 C286 0.950 . S
C291 C289 1.390 . S
C291 C292 1.387 . S
C291 H294 0.950 . S
C292 C291 1.387 . S
C292 C295 1.387 . S
H293 C289 0.950 . S
H294 C291 0.950 . S
C295 C286 1.390 . S
C295 H288 0.950 . S
C295 C292 1.387 . S
C296 C297 1.387 . S
C296 H300 0.950 1_556 S
C296 C305 1.390 1_655 S
C297 C296 1.387 . S
C297 C299 1.387 . S
H298 C305 0.950 . S
C299 C297 1.387 . S
C299 C301 1.390 . S
C299 H303 0.950 . S
H300 C296 0.950 1_554 S
C301 C299 1.390 . S
C301 C302 1.387 . S
C301 H304 0.950 . S
C302 C301 1.387 . S
C302 C305 1.387 1_655 S
H303 C299 0.950 . S
H304 C301 0.950 . S
C305 C296 1.390 1_455 S
C305 H298 0.950 . S
C305 C302 1.387 1_455 S
C306 C307 1.385 1_544 S
C306 H310 0.951 . S
C306 C315 1.391 1_554 S
C307 C306 1.385 1_566 S
C307 C309 1.387 . S
H308 C315 0.950 1_554 S
C309 C307 1.387 . S
C309 C311 1.390 . S
C309 H313 0.950 . S
H310 C306 0.951 . S
C311 C309 1.390 . S
C311 C312 1.387 . S
C311 H314 0.950 . S
C312 C311 1.387 . S
C312 C315 1.387 1_565 S
H313 C309 0.950 . S
H314 C311 0.950 . S
C315 C306 1.391 1_556 S
C315 H308 0.950 1_556 S
C315 C312 1.387 1_545 S
C316 C317 1.387 1_554 S
C316 H320 0.950 . S
C316 C325 1.390 1_554 S
C317 C316 1.387 1_556 S
C317 C319 1.387 . S
H318 C325 0.950 1_554 S
C319 C317 1.387 . S
C319 C321 1.390 . S
C319 H323 0.950 . S
H320 C316 0.950 . S
C321 C319 1.390 . S
C321 C322 1.387 . S
C321 H324 0.950 . S
C322 C321 1.387 . S
C322 C325 1.387 . S
H323 C319 0.950 . S
H324 C321 0.950 . S
C325 C316 1.390 1_556 S
C325 H318 0.950 1_556 S
C325 C322 1.387 . S
C326 C327 1.387 . S
C326 H330 0.950 . S
C326 C335 1.390 . S
C327 C326 1.387 . S
C327 C329 1.387 . S
H328 C335 0.950 . S
C329 C327 1.387 . S
C329 C331 1.390 . S
C329 H333 0.950 . S
H330 C326 0.950 . S
C331 C329 1.390 . S
C331 C332 1.387 . S
C331 H334 0.950 . S
C332 C331 1.387 . S
C332 C335 1.387 . S
H333 C329 0.950 . S
H334 C331 0.950 . S
C335 C326 1.390 . S
C335 H328 0.950 . S
C335 C332 1.387 . S
C336 C337 1.387 . S
C336 H340 0.950 . S
C336 C345 1.390 . S
C337 C336 1.387 . S
C337 C339 1.387 . S
H338 C345 0.950 1_556 S
C339 C337 1.387 . S
C339 C341 1.390 . S
C339 H343 0.950 . S
H340 C336 0.950 . S
C341 C339 1.390 . S
C341 C342 1.387 . S
C341 H344 0.950 . S
C342 C341 1.387 . S
C342 C345 1.387 . S
H343 C339 0.950 . S
H344 C341 0.950 . S
C345 C336 1.390 . S
C345 H338 0.950 1_554 S
C345 C342 1.387 . S
C346 C347 1.387 . S
C346 H350 0.950 1_554 S
C346 C355 1.390 1_554 S
C347 C346 1.387 . S
C347 C349 1.387 . S
H348 C355 0.950 . S
C349 C347 1.387 . S
C349 C351 1.390 . S
C349 H353 0.950 . S
H350 C346 0.950 1_556 S
C351 C349 1.390 . S
C351 C352 1.390 . S
C351 H354 0.950 . S
C352 C351 1.390 . S
C352 C355 1.386 1_554 S
H353 C349 0.950 . S
H354 C351 0.950 . S
C355 C346 1.390 1_556 S
C355 H348 0.950 . S
C355 C352 1.386 1_556 S
C356 C357 1.387 . S
C356 H360 0.950 . S
C356 C365 1.390 . S
C357 C356 1.387 . S
C357 C359 1.387 . S
H358 C365 0.950 . S
C359 C357 1.387 . S
C359 C361 1.390 1_554 S
C359 H363 0.950 . S
H360 C356 0.950 . S
C361 C359 1.390 1_556 S
C361 C362 1.387 1_556 S
C361 H364 0.950 . S
C362 C361 1.387 1_554 S
C362 C365 1.387 . S
H363 C359 0.950 . S
H364 C361 0.950 . S
C365 C356 1.390 . S
C365 H358 0.950 . S
C365 C362 1.387 . S
C366 C367 1.387 . S
C366 H370 0.950 . S
C366 C375 1.390 . S
C367 C366 1.387 . S
C367 C369 1.387 . S
H368 C375 0.950 1_556 S
C369 C367 1.387 . S
C369 C371 1.390 . S
C369 H373 0.950 . S
H370 C366 0.950 . S
C371 C369 1.390 . S
C371 C372 1.387 . S
C371 H374 0.950 . S
C372 C371 1.387 . S
C372 C375 1.387 . S
H373 C369 0.950 . S
H374 C371 0.950 . S
C375 C366 1.390 . S
C375 H368 0.950 1_554 S
C375 C372 1.387 . S
C376 C377 1.387 . S
C376 H380 0.950 . S
C376 C385 1.390 . S
C377 C376 1.387 . S
C377 C379 1.387 . S
H378 C385 0.950 . S
C379 C377 1.387 . S
C379 C381 1.390 . S
C379 H383 0.950 . S
H380 C376 0.950 . S
C381 C379 1.390 . S
C381 C382 1.387 . S
C381 H384 0.950 . S
C382 C381 1.387 . S
C382 C385 1.387 . S
H383 C379 0.950 . S
H384 C381 0.950 . S
C385 C376 1.390 . S
C385 H378 0.950 . S
C385 C382 1.387 . S
C386 C387 1.387 1_545 S
C386 H390 0.950 . S
C386 C395 1.390 . S
C387 C386 1.387 1_565 S
C387 C389 1.387 . S
H388 C395 0.950 . S
C389 C387 1.387 . S
C389 C391 1.390 . S
C389 H393 0.950 . S
H390 C386 0.950 . S
C391 C389 1.390 . S
C391 C392 1.387 . S
C391 H394 0.950 . S
C392 C391 1.387 . S
C392 C395 1.387 1_565 S
H393 C389 0.950 . S
H394 C391 0.950 . S
C395 C386 1.390 . S
C395 H388 0.950 . S
C395 C392 1.387 1_545 S
C396 C397 1.387 . S
C396 H400 0.950 . S
C396 C405 1.390 . S
C397 C396 1.387 . S
C397 C399 1.387 . S
H398 C405 0.950 . S
C399 C397 1.387 . S
C399 C401 1.390 . S
C399 H403 0.950 . S
H400 C396 0.950 . S
C401 C399 1.390 . S
C401 C402 1.387 . S
C401 H404 0.950 . S
C402 C401 1.387 . S
C402 C405 1.387 . S
H403 C399 0.950 . S
H404 C401 0.950 . S
C405 C396 1.390 . S
C405 H398 0.950 . S
C405 C402 1.387 . S
C406 C407 1.387 . S
C406 H410 0.950 . S
C406 C415 1.390 . S
C407 C406 1.387 . S
C407 C409 1.387 . S
H408 C415 0.950 . S
C409 C407 1.387 . S
C409 C411 1.390 . S
C409 H413 0.950 . S
H410 C406 0.950 . S
C411 C409 1.390 . S
C411 C412 1.387 . S
C411 H414 0.950 . S
C412 C411 1.387 . S
C412 C415 1.387 . S
H413 C409 0.950 . S
H414 C411 0.950 . S
C415 C406 1.390 . S
C415 H408 0.950 . S
C415 C412 1.387 . S
C177 C76 1.553 . S
C182 C97 1.603 . S
C192 C132 1.612 . S
C187 C88 1.525 . S
C202 C137 1.386 . S
C197 C52 1.350 . S
C212 C157 1.546 . S
C207 C64 1.507 . S
C222 C105 1.602 1_565 S
C217 C28 1.563 1_556 S
C227 C40 1.542 1_556 S
C232 C122 1.612 . S
C237 C4 1.356 . S
C242 C145 1.386 . S
C247 C16 1.520 . S
C252 C165 1.538 1_655 S
C262 C115 1.423 . S
C257 C69 1.367 . S
C272 C124 1.197 . S
C267 C81 1.168 . S
C282 C155 1.456 . S
C277 C93 1.403 . S
C287 C57 1.109 . S
C292 C175 1.123 . S
C297 C21 1.354 . S
C302 C104 1.424 1_655 S
C312 C135 1.196 1_565 S
C307 C33 1.159 1_556 S
C322 C144 1.456 . S
C317 C45 1.387 1_556 S
C327 C9 1.105 . S
C332 C164 1.124 . S
C337 C66 1.472 . S
C342 C102 1.476 1_554 S
C347 C78 1.510 . S
C352 C125 1.571 1_554 S
C362 C142 1.574 1_554 S
C357 C90 1.533 . S
C372 C162 1.565 1_554 S
C367 C54 1.543 . S
C377 C18 1.459 . S
C382 C112 1.476 . S
C392 C117 1.577 . S
C387 C30 1.495 . S
C402 C152 1.574 . S
C397 C42 1.511 . S
C407 C6 1.536 . S
C412 C172 1.566 . S
