# Generated by pormake.
# Topology pyr, (3,6)-cn, num edge types: 1
# Building blocks:
#     Node 0, Type 0, BuildingBlock: BELTOD_clean_linker_0, # of connection points: 3
#     Node 1, Type 0, BuildingBlock: BELTOD_clean_linker_0, # of connection points: 3
#     Node 2, Type 0, BuildingBlock: BELTOD_clean_linker_0, # of connection points: 3
#     Node 3, Type 0, BuildingBlock: BELTOD_clean_linker_0, # of connection points: 3
#     Node 4, Type 0, BuildingBlock: BELTOD_clean_linker_0, # of connection points: 3
#     Node 5, Type 0, BuildingBlock: BELTOD_clean_linker_0, # of connection points: 3
#     Node 6, Type 0, BuildingBlock: BELTOD_clean_linker_0, # of connection points: 3
#     Node 7, Type 0, BuildingBlock: BELTOD_clean_linker_0, # of connection points: 3
#     Node 8, Type 1, BuildingBlock: LEVNOQ01_clean_sbu_1, # of connection points: 6
#     Node 9, Type 1, BuildingBlock: LEVNOQ01_clean_sbu_1, # of connection points: 6
#     Node 10, Type 1, BuildingBlock: LEVNOQ01_clean_sbu_1, # of connection points: 6
#     Node 11, Type 1, BuildingBlock: LEVNOQ01_clean_sbu_1, # of connection points: 6
#     Edge 12, Type (0, 1), BuildingBlock: XUDNAN_clean_linker_2, # of connection points: 2
#     Edge 13, Type (0, 1), BuildingBlock: XUDNAN_clean_linker_2, # of connection points: 2
#     Edge 14, Type (0, 1), BuildingBlock: XUDNAN_clean_linker_2, # of connection points: 2
#     Edge 15, Type (0, 1), BuildingBlock: XUDNAN_clean_linker_2, # of connection points: 2
#     Edge 16, Type (0, 1), BuildingBlock: XUDNAN_clean_linker_2, # of connection points: 2
#     Edge 17, Type (0, 1), BuildingBlock: XUDNAN_clean_linker_2, # of connection points: 2
#     Edge 18, Type (0, 1), BuildingBlock: XUDNAN_clean_linker_2, # of connection points: 2
#     Edge 19, Type (0, 1), BuildingBlock: XUDNAN_clean_linker_2, # of connection points: 2
#     Edge 20, Type (0, 1), BuildingBlock: XUDNAN_clean_linker_2, # of connection points: 2
#     Edge 21, Type (0, 1), BuildingBlock: XUDNAN_clean_linker_2, # of connection points: 2
#     Edge 22, Type (0, 1), BuildingBlock: XUDNAN_clean_linker_2, # of connection points: 2
#     Edge 23, Type (0, 1), BuildingBlock: XUDNAN_clean_linker_2, # of connection points: 2
#     Edge 24, Type (0, 1), BuildingBlock: XUDNAN_clean_linker_2, # of connection points: 2
#     Edge 25, Type (0, 1), BuildingBlock: XUDNAN_clean_linker_2, # of connection points: 2
#     Edge 26, Type (0, 1), BuildingBlock: XUDNAN_clean_linker_2, # of connection points: 2
#     Edge 27, Type (0, 1), BuildingBlock: XUDNAN_clean_linker_2, # of connection points: 2
#     Edge 28, Type (0, 1), BuildingBlock: XUDNAN_clean_linker_2, # of connection points: 2
#     Edge 29, Type (0, 1), BuildingBlock: XUDNAN_clean_linker_2, # of connection points: 2
#     Edge 30, Type (0, 1), BuildingBlock: XUDNAN_clean_linker_2, # of connection points: 2
#     Edge 31, Type (0, 1), BuildingBlock: XUDNAN_clean_linker_2, # of connection points: 2
#     Edge 32, Type (0, 1), BuildingBlock: XUDNAN_clean_linker_2, # of connection points: 2
#     Edge 33, Type (0, 1), BuildingBlock: XUDNAN_clean_linker_2, # of connection points: 2
#     Edge 34, Type (0, 1), BuildingBlock: XUDNAN_clean_linker_2, # of connection points: 2
#     Edge 35, Type (0, 1), BuildingBlock: XUDNAN_clean_linker_2, # of connection points: 2
# Relax obj value: 0.036
# Max RMSD: 0.108
# Mean RMSD: 0.051
data_MOF--net-pry--node1-LEVNOQ01_clean_sbu_1--node2-BELTOD_clean_linker_0--edge1-XUDNAN_clean_linker_2
_symmetry_space_group_name_H-M    P1
_symmetry_Int_Tables_number       1
_symmetry_cell_setting            triclinic
loop_
_symmetry_equiv_pos_as_xyz
'x, y, z'
_cell_length_a     42.678546
_cell_length_b     41.538365
_cell_length_c     40.729902
_cell_angle_alpha  92.603866
_cell_angle_beta   91.371737
_cell_angle_gamma 93.046777
loop_
_atom_site_label
_atom_site_type_symbol
_atom_site_fract_x
_atom_site_fract_y
_atom_site_fract_z
_atom_type_partial_charge
P0 P 0.16481 0.16766 0.15859 0.0
H1 H 0.21715 0.17868 0.11556 0.0
H2 H 0.2521 0.14297 0.08746 0.0
H3 H 0.19585 0.06025 0.11737 0.0
H4 H 0.1612 0.09658 0.14637 0.0
H5 H 0.10755 0.19821 0.17835 0.0
H6 H 0.07495 0.23641 0.15174 0.0
H7 H 0.12853 0.22643 0.06366 0.0
H8 H 0.16081 0.18759 0.09023 0.0
H9 H 0.19012 0.15975 0.22446 0.0
H10 H 0.10478 0.13102 0.16965 0.0
O11 O 0.19076 0.19636 0.17368 0.0
H12 H 0.16826 0.13717 0.27364 0.0
H13 H 0.08236 0.10849 0.21931 0.0
C14 C 0.18673 0.14038 0.13334 0.0
C15 C 0.21203 0.15287 0.11573 0.0
C16 C 0.23196 0.13228 0.0994 0.0
C17 C 0.22699 0.09852 0.10009 0.0
C18 C 0.20071 0.08605 0.11667 0.0
C19 C 0.18071 0.10682 0.1331 0.0
C20 C 0.1361 0.18906 0.13604 0.0
C21 C 0.11157 0.20313 0.15288 0.0
C22 C 0.09302 0.22523 0.13768 0.0
C23 C 0.09911 0.23443 0.10555 0.0
C24 C 0.1233 0.21987 0.08846 0.0
C25 C 0.14159 0.19739 0.10356 0.0
C26 C 0.14875 0.14792 0.19362 0.0
C27 C 0.16657 0.14864 0.22301 0.0
C28 C 0.15397 0.1358 0.25123 0.0
C29 C 0.1233 0.12162 0.25065 0.0
C30 C 0.10601 0.11937 0.22064 0.0
C31 C 0.11871 0.13236 0.19229 0.0
P32 P 0.3848 0.89544 0.58921 0.0
H33 H 0.43566 0.93991 0.6162 0.0
H34 H 0.44778 0.96345 0.67146 0.0
H35 H 0.36703 0.91075 0.70808 0.0
H36 H 0.35453 0.88773 0.65246 0.0
H37 H 0.39135 0.85325 0.53119 0.0
H38 H 0.40816 0.79809 0.52352 0.0
H39 H 0.40954 0.7889 0.62878 0.0
H40 H 0.39362 0.84414 0.63627 0.0
H41 H 0.35907 0.9528 0.56457 0.0
H42 H 0.32335 0.85959 0.59362 0.0
O43 O 0.40824 0.91433 0.56312 0.0
H44 H 0.30563 0.96983 0.55759 0.0
H45 H 0.26926 0.87674 0.5867 0.0
C46 C 0.39423 0.91195 0.63022 0.0
C47 C 0.42045 0.93345 0.63601 0.0
C48 C 0.42729 0.94706 0.66757 0.0
C49 C 0.40828 0.93901 0.69398 0.0
C50 C 0.38213 0.91728 0.68816 0.0
C51 C 0.37499 0.90412 0.65645 0.0
C52 C 0.39161 0.85304 0.58427 0.0
C53 C 0.39489 0.83918 0.55259 0.0
C54 C 0.40438 0.80758 0.54823 0.0
C55 C 0.41063 0.78921 0.57556 0.0
C56 C 0.4056 0.80264 0.60723 0.0
C57 C 0.39622 0.83427 0.61155 0.0
C58 C 0.34515 0.90481 0.57913 0.0
C59 C 0.33967 0.93571 0.56871 0.0
C60 C 0.30912 0.94548 0.56486 0.0
C61 C 0.28334 0.9246 0.57162 0.0
C62 C 0.28874 0.89313 0.58094 0.0
C63 C 0.31955 0.88338 0.58497 0.0
P64 P 0.66589 0.34635 0.83489 0.0
H65 H 0.68603 0.32562 0.89894 0.0
H66 H 0.7172 0.35385 0.94321 0.0
H67 H 0.70735 0.44396 0.89656 0.0
H68 H 0.67557 0.41575 0.85218 0.0
H69 H 0.67422 0.28084 0.80854 0.0
H70 H 0.65412 0.22785 0.82509 0.0
H71 H 0.59615 0.27389 0.8966 0.0
H72 H 0.61705 0.32707 0.88077 0.0
H73 H 0.68076 0.39008 0.78311 0.0
H74 H 0.59777 0.35434 0.83112 0.0
O75 O 0.69859 0.33946 0.81464 0.0
H76 H 0.64853 0.42146 0.74754 0.0
H77 H 0.5653 0.38516 0.79518 0.0
C78 C 0.67813 0.36856 0.87234 0.0
C79 C 0.68898 0.35167 0.89897 0.0
C80 C 0.70672 0.36781 0.92441 0.0
C81 C 0.71428 0.40103 0.92334 0.0
C82 C 0.70116 0.41846 0.89822 0.0
C83 C 0.68324 0.40225 0.87273 0.0
C84 C 0.6473 0.30786 0.84363 0.0
C85 C 0.65704 0.27964 0.82763 0.0
C86 C 0.64562 0.2494 0.83704 0.0
C87 C 0.6238 0.24703 0.8621 0.0
C88 C 0.61289 0.27529 0.87707 0.0
C89 C 0.62473 0.30556 0.868 0.0
C90 C 0.64158 0.36935 0.80926 0.0
C91 C 0.65555 0.38874 0.78579 0.0
C92 C 0.63712 0.40662 0.76542 0.0
C93 C 0.60437 0.40558 0.76837 0.0
C94 C 0.59051 0.38663 0.79246 0.0
C95 C 0.60902 0.36877 0.81287 0.0
P96 P 0.84014 0.64 0.37968 0.0
H97 H 0.89165 0.68332 0.36208 0.0
H98 H 0.92789 0.71961 0.39462 0.0
H99 H 0.89609 0.67602 0.48328 0.0
H100 H 0.85846 0.64134 0.45055 0.0
H101 H 0.80923 0.62057 0.31735 0.0
H102 H 0.8267 0.59328 0.26749 0.0
H103 H 0.91507 0.57684 0.31654 0.0
H104 H 0.8976 0.60553 0.36614 0.0
H105 H 0.77399 0.64596 0.39344 0.0
H106 H 0.84699 0.58309 0.4192 0.0
O107 O 0.82081 0.66996 0.36412 0.0
H108 H 0.73742 0.61632 0.42681 0.0
H109 H 0.81066 0.55395 0.45467 0.0
C110 C 0.87237 0.65949 0.40369 0.0
C111 C 0.89302 0.68107 0.38846 0.0
C112 C 0.91398 0.70175 0.40727 0.0
C113 C 0.91502 0.70105 0.44187 0.0
C114 C 0.89565 0.67777 0.45683 0.0
C115 C 0.87428 0.65747 0.43797 0.0
C116 C 0.8524 0.61571 0.3451 0.0
C117 C 0.83232 0.61094 0.31741 0.0
C118 C 0.84228 0.59498 0.28894 0.0
C119 C 0.87247 0.58302 0.2877 0.0
C120 C 0.89193 0.58634 0.31629 0.0
C121 C 0.88195 0.60258 0.34477 0.0
C122 C 0.81332 0.61694 0.40409 0.0
C123 C 0.78231 0.62592 0.40664 0.0
C124 C 0.76141 0.6091 0.42625 0.0
C125 C 0.77113 0.58308 0.44423 0.0
C126 C 0.80227 0.57381 0.44122 0.0
C127 C 0.82311 0.59046 0.42105 0.0
P128 P 0.87827 0.88587 0.90365 0.0
H129 H 0.84033 0.8846 0.96225 0.0
H130 H 0.79136 0.90922 0.97655 0.0
H131 H 0.78183 0.94094 0.87736 0.0
H132 H 0.83109 0.91713 0.86364 0.0
H133 H 0.93138 0.85835 0.93704 0.0
H134 H 0.94363 0.80288 0.94801 0.0
H135 H 0.85268 0.76896 0.90793 0.0
H136 H 0.84022 0.82467 0.89764 0.0
H137 H 0.91133 0.93586 0.86763 0.0
H138 H 0.86387 0.84304 0.84468 0.0
O139 O 0.90297 0.9115 0.92548 0.0
H140 H 0.92302 0.94109 0.80978 0.0
H141 H 0.87516 0.8483 0.78645 0.0
C142 C 0.83924 0.89856 0.9118 0.0
C143 C 0.82738 0.89637 0.94345 0.0
C144 C 0.79934 0.91053 0.95158 0.0
C145 C 0.78262 0.92735 0.92819 0.0
C146 C 0.79428 0.92875 0.89621 0.0
C147 C 0.82236 0.91467 0.88817 0.0
C148 C 0.88482 0.84567 0.91657 0.0
C149 C 0.91371 0.83911 0.93137 0.0
C150 C 0.9207 0.80739 0.93778 0.0
C151 C 0.89914 0.78162 0.92882 0.0
C152 C 0.86976 0.78839 0.91505 0.0
C153 C 0.86261 0.82017 0.90914 0.0
C154 C 0.88729 0.88877 0.8607 0.0
C155 C 0.90356 0.91646 0.85019 0.0
C156 C 0.90999 0.91956 0.81696 0.0
C157 C 0.90004 0.89509 0.79339 0.0
C158 C 0.88356 0.86737 0.80399 0.0
C159 C 0.87705 0.86436 0.83733 0.0
P160 P 0.67092 0.1711 0.36846 0.0
H161 H 0.67456 0.23403 0.40305 0.0
H162 H 0.63519 0.26633 0.42882 0.0
H163 H 0.56695 0.18572 0.41546 0.0
H164 H 0.60652 0.15389 0.38853 0.0
H165 H 0.73809 0.16357 0.36432 0.0
H166 H 0.77467 0.13173 0.39401 0.0
H167 H 0.69955 0.09734 0.45483 0.0
H168 H 0.66276 0.12957 0.4247 0.0
H169 H 0.63686 0.18625 0.30943 0.0
H170 H 0.65976 0.10019 0.35812 0.0
O171 O 0.69196 0.19923 0.34927 0.0
H172 H 0.6108 0.15339 0.26472 0.0
H173 H 0.63288 0.06693 0.31374 0.0
C174 C 0.64326 0.19187 0.39326 0.0
C175 C 0.65123 0.22317 0.40604 0.0
C176 C 0.62865 0.24155 0.42108 0.0
C177 C 0.59765 0.22882 0.42401 0.0
C178 C 0.59037 0.19656 0.41304 0.0
C179 C 0.61302 0.17823 0.3978 0.0
C180 C 0.6978 0.14926 0.3926 0.0
C181 C 0.7295 0.14964 0.38438 0.0
C182 C 0.75049 0.13151 0.40152 0.0
C183 C 0.74011 0.11223 0.427 0.0
C184 C 0.70825 0.11197 0.43531 0.0
C185 C 0.68725 0.13043 0.41825 0.0
C186 C 0.6506 0.14572 0.33685 0.0
C187 C 0.63609 0.16021 0.31056 0.0
C188 C 0.62093 0.14133 0.28513 0.0
C189 C 0.61964 0.10742 0.28559 0.0
C190 C 0.63377 0.09293 0.31238 0.0
C191 C 0.64904 0.11196 0.33788 0.0
P192 P 0.37744 0.61919 0.13316 0.0
H193 H 0.36313 0.59816 0.0652 0.0
H194 H 0.31345 0.58674 0.03415 0.0
H195 H 0.26227 0.60335 0.12277 0.0
H196 H 0.31193 0.61474 0.15392 0.0
H197 H 0.43671 0.65658 0.12983 0.0
H198 H 0.44973 0.71332 0.12028 0.0
H199 H 0.351 0.73137 0.1153 0.0
H200 H 0.33811 0.67453 0.12523 0.0
H201 H 0.39458 0.56489 0.17119 0.0
H202 H 0.35823 0.65863 0.19026 0.0
O203 O 0.40585 0.59802 0.11677 0.0
H204 H 0.39939 0.55763 0.23004 0.0
H205 H 0.36233 0.6513 0.24946 0.0
C206 C 0.34116 0.60668 0.11193 0.0
C207 C 0.34126 0.5987 0.0781 0.0
C208 C 0.31302 0.59228 0.06038 0.0
C209 C 0.28441 0.59401 0.07632 0.0
C210 C 0.28426 0.6016 0.11024 0.0
C211 C 0.31253 0.60799 0.12797 0.0
C212 C 0.38649 0.66122 0.12723 0.0
C213 C 0.41787 0.67273 0.12666 0.0
C214 C 0.42526 0.70514 0.12129 0.0
C215 C 0.40134 0.72667 0.11672 0.0
C216 C 0.36988 0.71535 0.11884 0.0
C217 C 0.36252 0.68281 0.12411 0.0
C218 C 0.37666 0.61252 0.17642 0.0
C219 C 0.3872 0.58374 0.18808 0.0
C220 C 0.38966 0.57953 0.22181 0.0
C221 C 0.38127 0.60395 0.24454 0.0
C222 C 0.36934 0.63223 0.23263 0.0
C223 C 0.36694 0.63641 0.1988 0.0
P224 P 0.15355 0.37082 0.62182 0.0
H225 H 0.16337 0.32269 0.56998 0.0
H226 H 0.12926 0.28051 0.54215 0.0
H227 H 0.05041 0.31414 0.59602 0.0
H228 H 0.0848 0.3566 0.62379 0.0
H229 H 0.1915 0.43008 0.63781 0.0
H230 H 0.2252 0.46289 0.60287 0.0
H231 H 0.18179 0.41386 0.51656 0.0
H232 H 0.14747 0.38206 0.55111 0.0
H233 H 0.16321 0.348 0.68732 0.0
H234 H 0.10977 0.42034 0.64258 0.0
O235 O 0.18559 0.35084 0.62973 0.0
H236 H 0.14287 0.36267 0.74052 0.0
H237 H 0.08745 0.43421 0.69614 0.0
C238 C 0.12675 0.34248 0.59927 0.0
C239 C 0.13865 0.32128 0.5755 0.0
C240 C 0.11904 0.29738 0.55933 0.0
C241 C 0.08714 0.294 0.56687 0.0
C242 C 0.07496 0.3161 0.58984 0.0
C243 C 0.09461 0.34033 0.60577 0.0
C244 C 0.16698 0.40349 0.59721 0.0
C245 C 0.18802 0.42759 0.61136 0.0
C246 C 0.20731 0.44627 0.59142 0.0
C247 C 0.20598 0.44071 0.55715 0.0
C248 C 0.18303 0.41863 0.54295 0.0
C249 C 0.16348 0.40034 0.56283 0.0
C250 C 0.13837 0.38339 0.66104 0.0
C251 C 0.14701 0.36716 0.68895 0.0
C252 C 0.1349 0.37531 0.71948 0.0
C253 C 0.11312 0.39942 0.72285 0.0
C254 C 0.10442 0.41576 0.69467 0.0
C255 C 0.11701 0.4078 0.66399 0.0
O256 O 0.96605 0.00646 0.58949 0.0
Mg257 Mg 0.00661 0.01989 0.56562 0.0
O258 O 0.97677 0.96591 0.55694 0.0
Mg259 Mg -0.00147 0.99265 0.50983 0.0
O260 O 0.00448 0.04932 0.52712 0.0
O261 O 0.01373 0.06634 0.57974 0.0
O262 O 0.02011 0.0157 0.46235 0.0
O263 O 0.94651 0.00492 0.49629 0.0
Mg264 Mg 0.97501 0.95893 0.4479 0.0
O265 O 0.99354 0.93876 0.48896 0.0
O266 O 0.00463 0.98604 0.41822 0.0
O267 O 0.9289 0.97297 0.45427 0.0
O268 O 0.97953 0.91114 0.44165 0.0
C269 C 0.06388 0.98593 0.55297 0.0
C270 C 0.96308 0.97675 0.58243 0.0
C271 C 0.00972 0.07271 0.54937 0.0
C272 C 0.02056 0.00995 0.43124 0.0
C273 C 0.92433 -0.00554 0.47636 0.0
C274 C 0.98947 0.91149 0.47184 0.0
O275 O 0.04938 -0.00099 0.57629 0.0
O276 O 0.05048 0.98164 0.52467 0.0
O277 O 0.43314 0.06426 0.01611 0.0
Mg278 Mg 0.48067 0.07652 0.02472 0.0
O279 O 0.44255 0.01232 0.01461 0.0
Mg280 Mg 0.49661 0.00623 0.00148 0.0
O281 O 0.50736 0.05883 0.98825 0.0
O282 O 0.50114 0.11148 -0.00279 0.0
O283 O 0.55202 0.0025 0.98955 0.0
O284 O 0.47825 0.00013 0.94568 0.0
Mg285 Mg 0.511 0.95152 0.97619 0.0
O286 O 0.48351 0.95144 0.01723 0.0
O287 O 0.55877 0.9509 0.98245 0.0
O288 O 0.49279 0.95269 0.92869 0.0
O289 O 0.49714 0.90762 0.98772 0.0
C290 C 0.51308 0.04006 0.07779 0.0
C291 C 0.42333 0.03503 0.01641 0.0
C292 C 0.51353 0.08842 0.98066 0.0
C293 C 0.57037 0.97928 0.98563 0.0
C294 C 0.47922 0.97804 0.923 0.0
C295 C 0.48322 0.92009 0.01244 0.0
O296 O 0.50088 0.06614 0.07057 0.0
O297 O 0.5138 0.01632 0.05664 0.0
O298 O 0.44391 0.54891 0.53321 0.0
Mg299 Mg 0.45401 0.49945 0.5408 0.0
O300 O 0.49091 0.55452 0.51316 0.0
Mg301 Mg 0.4922 0.4998 0.50103 0.0
O302 O 0.49655 0.48898 0.55927 0.0
O303 O 0.45388 0.49638 0.58948 0.0
O304 O 0.49429 0.44364 0.48964 0.0
O305 O 0.54721 0.50499 0.5072 0.0
Mg306 Mg 0.5257 0.48161 0.43045 0.0
O307 O 0.49303 0.5109 0.44752 0.0
O308 O 0.50774 0.43429 0.43762 0.0
O309 O 0.56736 0.49495 0.45785 0.0
O310 O 0.50558 0.50985 0.39528 0.0
C311 C 0.41693 0.47482 0.49624 0.0
C312 C 0.4664 0.56705 0.52385 0.0
C313 C 0.48295 0.48988 0.58764 0.0
C314 C 0.49863 0.42428 0.46497 0.0
C315 C 0.57064 0.50245 0.48837 0.0
C316 C 0.48845 0.52084 0.4184 0.0
O317 O 0.42466 0.46021 0.52125 0.0
O318 O 0.43655 0.49619 0.48641 0.0
O319 O 0.04623 0.46312 0.05489 0.0
Mg320 Mg 0.03002 0.51109 0.05718 0.0
O321 O 0.00738 0.45194 0.01948 0.0
Mg322 Mg -0.00155 0.50438 0.00452 0.0
O323 O 0.98295 0.52041 0.05936 0.0
O324 O 0.01621 0.51937 0.10302 0.0
O325 O 0.98752 0.55711 0.98832 0.0
O326 O 0.94326 0.48824 0.0046 0.0
Mg327 Mg 0.97102 0.49292 0.95254 0.0
O328 O 0.01715 0.48601 0.95127 0.0
O329 O 0.95215 0.53853 0.9515 0.0
O330 O 0.94331 0.45271 0.964 0.0
O331 O 0.98545 0.48534 0.90627 0.0
C332 C 0.06967 0.54225 0.02016 0.0
C333 C 0.0291 0.44247 0.03803 0.0
C334 C 0.98873 0.52394 0.09102 0.0
C335 C 0.96608 0.56229 0.9671 0.0
C336 C 0.92945 0.46447 0.98822 0.0
C337 C 0.01253 0.48154 0.91961 0.0
O338 O 0.06084 0.55006 0.04841 0.0
O339 O 0.05309 0.52122 0.00271 0.0
H340 H 0.08766 0.06541 0.25981 0.0
H341 H 0.12747 0.15221 0.31165 0.0
H342 H 0.10637 0.13311 0.36362 0.0
H343 H 0.01598 0.05903 0.30531 0.0
H344 H 0.01512 0.0156 0.30542 0.0
H345 H 0.03323 0.03627 0.27227 0.0
H346 H 0.08477 0.00781 0.28337 0.0
H347 H 0.06685 0.98722 0.31668 0.0
H348 H 0.10291 0.01137 0.3239 0.0
H349 H 0.08139 0.10401 0.41055 0.0
H350 H 0.0532 0.06775 0.44791 0.0
H351 H 0.0293 0.00064 0.36516 0.0
C352 C 0.09169 0.08053 0.28202 0.0
C353 C 0.10943 0.11024 0.28162 0.0
C354 C 0.11441 0.12913 0.31138 0.0
C355 C 0.10238 0.11856 0.34104 0.0
C356 C 0.08535 0.08901 0.34068 0.0
C357 C 0.07992 0.0703 0.31193 0.0
C358 C 0.0611 0.03936 0.31832 0.0
C359 C 0.02948 0.03748 0.2992 0.0
C360 C 0.08005 0.00969 0.31008 0.0
C361 C 0.05662 0.04374 0.35503 0.0
C362 C 0.07087 0.07244 0.36756 0.0
C363 C 0.07005 0.08149 0.40097 0.0
C364 C 0.05401 0.06074 0.42204 0.0
C365 C 0.03885 0.0314 0.40959 0.0
C366 C 0.04048 0.02292 0.3756 0.0
H367 H 0.41335 0.90595 0.74999 0.0
H368 H 0.42217 0.00233 0.71357 0.0
H369 H 0.43732 0.02431 0.76968 0.0
H370 H 0.38317 0.92744 0.83061 0.0
H371 H 0.40554 0.89817 0.8509 0.0
H372 H 0.39287 0.89082 0.80858 0.0
H373 H 0.45044 0.88328 0.7921 0.0
H374 H 0.46323 0.89048 0.83432 0.0
H375 H 0.48008 0.91476 0.80297 0.0
H376 H 0.45281 0.03522 0.83059 0.0
H377 H 0.47168 0.03302 0.88865 0.0
H378 H 0.45449 0.92908 0.88291 0.0
C379 C 0.41792 0.93175 0.75397 0.0
C380 C 0.41625 0.95253 0.72765 0.0
C381 C 0.42326 0.98605 0.73355 0.0
C382 C 0.43171 -0.00127 0.76532 0.0
C383 C 0.43325 0.97751 0.79081 0.0
C384 C 0.42677 0.94468 0.78532 0.0
C385 C 0.4323 0.92658 0.81608 0.0
C386 C 0.40164 0.90977 0.82719 0.0
C387 C 0.45804 0.90236 0.81106 0.0
C388 C 0.44319 0.95423 0.83972 0.0
C389 C 0.44317 0.98356 0.82503 0.0
C390 C 0.45283 0.01237 0.84232 0.0
C391 C 0.46336 0.01097 0.87526 0.0
C392 C 0.46461 0.9809 0.8901 0.0
C393 C 0.45392 0.95241 0.87213 0.0
H394 H 0.61009 0.4116 0.70187 0.0
H395 H 0.55408 0.44063 0.78465 0.0
H396 H 0.51956 0.46871 0.74732 0.0
H397 H 0.60315 0.48675 0.6571 0.0
H398 H 0.60107 0.46546 0.61748 0.0
H399 H 0.62302 0.44981 0.65102 0.0
H400 H 0.59038 0.39543 0.64363 0.0
H401 H 0.56829 0.41093 0.61021 0.0
H402 H 0.54817 0.39521 0.64496 0.0
H403 H 0.48944 0.49009 0.70164 0.0
H404 H 0.46429 0.50357 0.64966 0.0
H405 H 0.53985 0.4617 0.59544 0.0
C406 C 0.59095 0.42444 0.71223 0.0
C407 C 0.58472 0.42393 0.74618 0.0
C408 C 0.55905 0.44041 0.7587 0.0
C409 C 0.53951 0.45666 0.73775 0.0
C410 C 0.5461 0.45638 0.70442 0.0
C411 C 0.57122 0.44086 0.69166 0.0
C412 C 0.572 0.44292 0.65458 0.0
C413 C 0.60157 0.4624 0.64445 0.0
C414 C 0.56955 0.40911 0.63734 0.0
C415 C 0.54273 0.46109 0.64843 0.0
C416 C 0.5285 0.46891 0.67767 0.0
C417 C 0.50048 0.4844 0.6786 0.0
C418 C 0.48632 0.4918 0.64884 0.0
C419 C 0.50007 0.48361 0.61843 0.0
C420 C 0.52895 0.46849 0.61828 0.0
H421 H 0.93198 0.58994 0.26381 0.0
H422 H 0.83953 0.54528 0.2395 0.0
H423 H 0.85796 0.52761 0.18488 0.0
H424 H 0.94916 0.61831 0.18567 0.0
H425 H 0.98999 0.60928 0.18772 0.0
H426 H 0.96958 0.61824 0.22494 0.0
H427 H 0.98464 0.56384 0.24806 0.0
H428 H 0.00562 0.55502 0.21118 0.0
H429 H 0.97533 0.52683 0.22415 0.0
H430 H 0.88676 0.51669 0.13119 0.0
H431 H 0.92499 0.50833 0.08684 0.0
H432 H -0.00201 0.55815 0.14871 0.0
C433 C 0.91564 0.57591 0.2474 0.0
C434 C 0.88417 0.56929 0.25608 0.0
C435 C 0.8636 0.55127 0.23333 0.0
C436 C 0.87387 0.541 0.20223 0.0
C437 C 0.90486 0.54866 0.19428 0.0
C438 C 0.92553 0.56525 0.2165 0.0
C439 C 0.95778 0.57003 0.20244 0.0
C440 C 0.96716 0.60611 0.20005 0.0
C441 C 0.98228 0.55289 0.22265 0.0
C442 C 0.95206 0.5537 0.16876 0.0
C443 C 0.92139 0.54172 0.16419 0.0
C444 C 0.91088 0.52589 0.1346 0.0
C445 C 0.93259 0.52149 0.10946 0.0
C446 C 0.96434 0.53258 0.11444 0.0
C447 C 0.97385 0.5493 0.14426 0.0
H448 H 0.25984 0.10638 0.04341 0.0
H449 H 0.24833 0.04239 0.12403 0.0
H450 H 0.29232 0.01136 0.10386 0.0
H451 H 0.28771 0.04569 0.9814 0.0
H452 H 0.31537 0.075 0.96552 0.0
H453 H 0.27897 0.0877 0.98208 0.0
H454 H 0.30977 0.12855 0.02251 0.0
H455 H 0.34606 0.11619 0.00595 0.0
H456 H 0.33969 0.11438 0.04944 0.0
H457 H 0.34311 0.99241 0.07964 0.0
H458 H 0.39625 0.99042 0.05648 0.0
H459 H 0.3751 0.06809 0.99352 0.0
C460 C 0.26614 0.08552 0.05659 0.0
C461 C 0.25038 0.07691 0.08532 0.0
C462 C 0.25949 0.04926 0.10161 0.0
C463 C 0.2846 0.03147 0.09036 0.0
C464 C 0.30032 0.04138 0.06259 0.0
C465 C 0.29125 0.06775 0.04588 0.0
C466 C 0.31401 0.07604 0.01922 0.0
C467 C 0.29806 0.07078 0.98503 0.0
C468 C 0.32822 0.11082 0.02464 0.0
C469 C 0.33825 0.05137 0.02463 0.0
C470 C 0.32963 0.03091 0.04909 0.0
C471 C 0.34976 0.00789 0.06002 0.0
C472 C 0.37984 0.00672 0.04658 0.0
C473 C 0.38961 0.02886 0.02299 0.0
C474 C 0.36803 0.05052 0.01115 0.0
H475 H 0.2281 0.89895 0.54115 0.0
H476 H 0.26703 0.97901 0.60416 0.0
H477 H 0.21529 0.00243 0.60558 0.0
H478 H 0.17673 0.94596 0.49309 0.0
H479 H 0.14495 0.91554 0.48971 0.0
H480 H 0.18483 0.90386 0.49415 0.0
H481 H 0.16998 0.87211 0.5453 0.0
H482 H 0.13002 0.88362 0.54094 0.0
H483 H 0.15157 0.89245 0.57917 0.0
H484 H 0.16067 0.01692 0.60168 0.0
H485 H 0.10464 0.02364 0.59075 0.0
H486 H 0.09913 0.93639 0.52751 0.0
C487 C 0.22551 0.92128 0.55534 0.0
C488 C 0.25155 0.93731 0.57248 0.0
C489 C 0.24746 0.96658 0.59063 0.0
C490 C 0.21816 0.97999 0.59169 0.0
C491 C 0.19309 0.96395 0.57433 0.0
C492 C 0.19626 0.93535 0.55636 0.0
C493 C 0.16523 0.9238 0.53944 0.0
C494 C 0.16812 0.92221 0.50186 0.0
C495 C 0.15351 0.89105 0.55197 0.0
C496 C 0.14434 0.95051 0.5507 0.0
C497 C 0.16108 0.97309 0.57112 0.0
C498 C 0.14727 -0.00049 0.58567 0.0
C499 C 0.11538 0.00302 0.57937 0.0
C500 C 0.09756 0.98055 0.55832 0.0
C501 C 0.11229 0.95404 0.54349 0.0
H502 H 0.77243 0.38449 0.91209 0.0
H503 H 0.71973 0.44818 0.97404 0.0
H504 H 0.76959 0.46916 0.0027 0.0
H505 H 0.82999 0.36341 0.97035 0.0
H506 H 0.86118 0.36449 0.94127 0.0
H507 H 0.82137 0.35472 0.9272 0.0
H508 H 0.82483 0.40125 0.88672 0.0
H509 H 0.86481 0.41078 0.90025 0.0
H510 H 0.83659 0.44152 0.90219 0.0
H511 H 0.82769 0.48419 0.02218 0.0
H512 H 0.8857 0.49334 0.02773 0.0
H513 H 0.89648 0.41675 0.95349 0.0
C514 C 0.77137 0.40255 0.93204 0.0
C515 C 0.74258 0.4144 0.9415 0.0
C516 C 0.74184 0.4387 0.9669 0.0
C517 C 0.76994 0.45058 0.98322 0.0
C518 C 0.79818 0.43795 0.97343 0.0
C519 C 0.79882 0.41462 0.94815 0.0
C520 C 0.83167 0.40598 0.94037 0.0
C521 C 0.83631 0.37002 0.94511 0.0
C522 C 0.83995 0.41545 0.90533 0.0
C523 C 0.84976 0.42721 0.96592 0.0
C524 C 0.83044 0.44595 0.98464 0.0
C525 C 0.84289 0.4693 0.00787 0.0
C526 C 0.87583 0.47419 0.01105 0.0
C527 C 0.89565 0.45564 0.99119 0.0
C528 C 0.88216 0.43117 0.96937 0.0
H529 H 0.72328 0.60745 0.48008 0.0
H530 H 0.76594 0.51774 0.45334 0.0
H531 H 0.72254 0.48743 0.47872 0.0
H532 H 0.68121 0.579 0.55653 0.0
H533 H 0.64753 0.60122 0.54602 0.0
H534 H 0.68637 0.61641 0.53606 0.0
H535 H 0.66872 0.61897 0.47492 0.0
H536 H 0.63006 0.60407 0.48473 0.0
H537 H 0.65154 0.58308 0.45356 0.0
H538 H 0.67017 0.46646 0.49389 0.0
H539 H 0.61266 0.45685 0.49326 0.0
H540 H 0.60147 0.55932 0.5075 0.0
C541 C 0.72391 0.58145 0.48018 0.0
C542 C 0.74816 0.56509 0.46459 0.0
C543 C 0.74809 0.53104 0.46558 0.0
C544 C 0.72343 0.51354 0.48001 0.0
C545 C 0.69903 0.53037 0.49355 0.0
C546 C 0.69916 0.56366 0.49387 0.0
C547 C 0.66777 0.57571 0.50412 0.0
C548 C 0.67091 0.59418 0.53768 0.0
C549 C 0.65371 0.59664 0.47775 0.0
C550 C 0.64904 0.54394 0.50666 0.0
C551 C 0.66794 0.51808 0.50193 0.0
C552 C 0.65536 0.48641 0.49869 0.0
C553 C 0.62268 0.48112 0.49848 0.0
C554 C 0.60299 0.50734 0.5013 0.0
C555 C 0.61627 0.53893 0.50684 0.0
H556 H 0.1235 0.28707 0.0746 0.0
H557 H 0.03565 0.24201 0.10515 0.0
H558 H 0.00738 0.28829 0.08566 0.0
H559 H 0.1094 0.36509 0.10115 0.0
H560 H 0.12756 0.38474 0.06733 0.0
H561 H 0.14019 0.34619 0.07909 0.0
H562 H 0.12883 0.3226 0.01974 0.0
H563 H 0.11621 0.36122 0.00776 0.0
H564 H 0.09043 0.32562 0.00112 0.0
H565 H 0.98898 0.3408 0.06494 0.0
H566 H 0.9828 0.39734 0.05001 0.0
H567 H 0.08313 0.4098 0.03721 0.0
C568 C 0.09821 0.28657 0.07638 0.0
C569 C 0.08171 0.26074 0.09104 0.0
C570 C 0.04873 0.26146 0.09388 0.0
C571 C 0.03246 0.28757 0.08271 0.0
C572 C 0.04949 0.31287 0.06881 0.0
C573 C 0.08167 0.31262 0.0657 0.0
C574 C 0.09479 0.34398 0.05249 0.0
C575 C 0.11942 0.361 0.07647 0.0
C576 C 0.10837 0.33799 0.01825 0.0
C577 C 0.06526 0.36257 0.05029 0.0
C578 C 0.0392 0.34378 0.05865 0.0
C579 C 0.00922 0.35566 0.05826 0.0
C580 C 0.0059 0.38771 0.04966 0.0
C581 C 0.03249 0.40774 0.04256 0.0
C582 C 0.06246 0.39489 0.04261 0.0
H583 H 0.56454 0.21925 0.86089 0.0
H584 H 0.66043 0.2042 0.89088 0.0
H585 H 0.64298 0.15321 0.91586 0.0
H586 H 0.52875 0.19598 0.92943 0.0
H587 H 0.4947 0.17542 0.90945 0.0
H588 H 0.51576 0.20696 0.88918 0.0
H589 H 0.52286 0.16749 0.83899 0.0
H590 H 0.50214 0.13557 0.85958 0.0
H591 H 0.54102 0.1299 0.84484 0.0
H592 H 0.61401 0.10898 0.94484 0.0
H593 H 0.57583 0.07819 0.97791 0.0
H594 H 0.49933 0.12128 0.92764 0.0
C595 C 0.58183 0.20465 0.872 0.0
C596 C 0.61373 0.21519 0.87389 0.0
C597 C 0.63589 0.19602 0.88891 0.0
C598 C 0.62622 0.16704 0.90297 0.0
C599 C 0.59442 0.15729 0.90101 0.0
C600 C 0.5726 0.17541 0.88557 0.0
C601 C 0.53956 0.16139 0.88947 0.0
C602 C 0.51849 0.18642 0.90536 0.0
C603 C 0.52557 0.14778 0.85624 0.0
C604 C 0.54591 0.13442 0.91204 0.0
C605 C 0.57775 0.13154 0.91745 0.0
C606 C 0.58908 0.11035 0.94004 0.0
C607 C 0.56732 0.09274 0.95852 0.0
C608 C 0.53488 0.09698 0.95449 0.0
C609 C 0.52408 0.11708 0.93024 0.0
H610 H 0.97156 0.73178 0.42771 0.0
H611 H 0.89919 0.73034 0.50075 0.0
H612 H 0.92357 0.77981 0.52763 0.0
H613 H 0.03712 0.77645 0.48122 0.0
H614 H 0.04931 0.79931 0.44674 0.0
H615 H 0.0336 0.75828 0.44016 0.0
H616 H 0.99157 0.77726 0.39929 0.0
H617 H 0.00739 0.81791 0.4055 0.0
H618 H 0.96642 0.8086 0.41259 0.0
H619 H 0.9468 0.83548 0.53843 0.0
H620 H 0.9624 0.89213 0.52788 0.0
H621 H 0.01756 0.85993 0.44633 0.0
C622 C 0.96128 0.74133 0.44989 0.0
C623 C 0.93343 0.72682 0.46199 0.0
C624 C 0.9209 0.74026 0.49119 0.0
C625 C 0.93464 0.76858 0.50674 0.0
C626 C 0.96103 0.78331 0.49301 0.0
C627 C 0.97431 0.76997 0.46522 0.0
C628 C -0.0016 0.79334 0.45131 0.0
C629 C 0.03157 0.78111 0.4551 0.0
C630 C 0.99043 0.79965 0.41508 0.0
C631 C -0.00545 0.82285 0.47376 0.0
C632 C 0.97403 0.81621 0.49868 0.0
C633 C 0.96364 0.84074 0.5197 0.0
C634 C 0.97285 0.87291 0.51381 0.0
C635 C 0.99163 0.88009 0.48674 0.0
C636 C 0.00394 0.85475 0.46776 0.0
H637 H 0.39442 0.7404 0.52896 0.0
H638 H 0.45787 0.76541 0.61223 0.0
H639 H 0.48138 0.71271 0.60504 0.0
H640 H 0.37977 0.65813 0.54534 0.0
H641 H 0.3793 0.6438 0.50286 0.0
H642 H 0.36858 0.68423 0.51336 0.0
H643 H 0.41094 0.70671 0.47465 0.0
H644 H 0.42199 0.66628 0.46425 0.0
H645 H 0.45109 0.69627 0.48035 0.0
H646 H 0.4984 0.65774 0.58889 0.0
H647 H 0.50357 0.60124 0.56864 0.0
H648 H 0.42774 0.61041 0.49762 0.0
C649 C 0.41345 0.73489 0.5455 0.0
C650 C 0.42422 0.75707 0.57124 0.0
C651 C 0.4489 0.74871 0.59262 0.0
C652 C 0.46266 0.71897 0.58852 0.0
C653 C 0.45159 0.69777 0.56286 0.0
C654 C 0.4274 0.70518 0.54185 0.0
C655 C 0.41908 0.67742 0.51713 0.0
C656 C 0.38464 0.66517 0.51987 0.0
C657 C 0.42619 0.68726 0.48201 0.0
C658 C 0.44154 0.65284 0.52841 0.0
C659 C 0.46072 0.66549 0.5542 0.0
C660 C 0.48359 0.6476 0.56866 0.0
C661 C 0.4865 0.61569 0.55692 0.0
C662 C 0.46622 0.6019 0.53154 0.0
C663 C 0.44362 0.6207 0.51692 0.0
H664 H 0.89581 0.94958 0.75851 0.0
H665 H 0.91949 0.84945 0.74812 0.0
H666 H 0.93317 0.85726 0.69013 0.0
H667 H 0.86297 0.95626 0.67586 0.0
H668 H 0.87927 -0.00309 0.67274 0.0
H669 H 0.86899 0.98238 0.71229 0.0
H670 H 0.92565 -0.00294 0.73457 0.0
H671 H 0.93599 0.01183 0.69523 0.0
H672 H 0.95834 0.98113 0.71313 0.0
H673 H 0.94902 0.87833 0.63393 0.0
H674 H 0.96555 0.91048 0.5868 0.0
H675 H 0.92969 -0.00435 0.63512 0.0
C676 C 0.90376 0.9292 0.74408 0.0
C677 C 0.90662 0.89891 0.75795 0.0
C678 C 0.91679 0.87282 0.73797 0.0
C679 C 0.92469 0.87706 0.70501 0.0
C680 C 0.92199 0.90745 0.69227 0.0
C681 C 0.9116 0.93298 0.7113 0.0
C682 C 0.91214 0.96364 0.69272 0.0
C683 C 0.87886 0.97548 0.68813 0.0
C684 C 0.93435 0.98995 0.70993 0.0
C685 C 0.92495 0.95166 0.66039 0.0
C686 C 0.93045 0.91919 0.66031 0.0
C687 C 0.94432 0.90366 0.63361 0.0
C688 C 0.95347 0.92204 0.60681 0.0
C689 C 0.9487 0.95554 0.60702 0.0
C690 C 0.93347 0.97005 0.6339 0.0
H691 H 0.5655 0.11923 0.25171 0.0
H692 H 0.63903 0.05121 0.25585 0.0
H693 H 0.61578 0.02167 0.20625 0.0
H694 H 0.50187 0.06223 0.21931 0.0
H695 H 0.48603 0.09181 0.19344 0.0
H696 H 0.50591 0.10449 0.23176 0.0
H697 H 0.54388 0.14263 0.20082 0.0
H698 H 0.52412 0.13013 0.16253 0.0
H699 H 0.56584 0.12632 0.16725 0.0
H700 H 0.58714 0.00306 0.15213 0.0
H701 H 0.55708 -0.00143 0.09905 0.0
H702 H 0.50382 0.07984 0.13112 0.0
C703 C 0.57663 0.09795 0.24245 0.0
C704 C 0.60413 0.08759 0.25777 0.0
C705 C 0.6177 0.0594 0.24488 0.0
C706 C 0.6047 0.04251 0.21662 0.0
C707 C 0.578 0.05395 0.20166 0.0
C708 C 0.5641 0.08099 0.21432 0.0
C709 C 0.53718 0.0901 0.19248 0.0
C710 C 0.5059 0.08696 0.21032 0.0
C711 C 0.54313 0.1243 0.18003 0.0
C712 C 0.53863 0.06461 0.16497 0.0
C713 C 0.56195 0.04359 0.17075 0.0
C714 C 0.56856 0.01917 0.14759 0.0
C715 C 0.55134 0.01672 0.11755 0.0
C716 C 0.52812 0.03884 0.11089 0.0
C717 C 0.52137 0.06248 0.13538 0.0
H718 H 0.37207 0.54982 0.27963 0.0
H719 H 0.40585 0.65014 0.28962 0.0
H720 H 0.42539 0.64167 0.34583 0.0
H721 H 0.35555 0.53792 0.37043 0.0
H722 H 0.37011 0.49798 0.36725 0.0
H723 H 0.35029 0.51399 0.33246 0.0
H724 H 0.39834 0.50341 0.29645 0.0
H725 H 0.41796 0.48721 0.33084 0.0
H726 H 0.43656 0.52019 0.31 0.0
H727 H 0.45238 0.61978 0.39422 0.0
H728 H 0.4859 0.58608 0.4275 0.0
H729 H 0.43567 0.50007 0.38615 0.0
C730 C 0.38271 0.57025 0.29406 0.0
C731 C 0.3873 0.60063 0.28027 0.0
C732 C 0.40149 0.62676 0.29984 0.0
C733 C 0.41268 0.62216 0.33187 0.0
C734 C 0.40918 0.59141 0.34417 0.0
C735 C 0.39423 0.56593 0.32587 0.0
C736 C 0.39823 0.53421 0.34185 0.0
C737 C 0.36666 0.52021 0.35371 0.0
C738 C 0.41371 0.50988 0.31841 0.0
C739 C 0.41978 0.54539 0.37061 0.0
C740 C 0.42499 0.57861 0.37232 0.0
C741 C 0.44767 0.59391 0.39388 0.0
C742 C 0.46651 0.57469 0.41284 0.0
C743 C 0.46253 0.54075 0.40976 0.0
C744 C 0.43808 0.5261 0.38964 0.0
H745 H 0.09656 0.45859 0.74951 0.0
H746 H 0.09803 0.35703 0.7706 0.0
H747 H 0.07972 0.36929 0.82626 0.0
H748 H 0.11922 0.49169 0.83102 0.0
H749 H 0.09249 0.5238 0.82996 0.0
H750 H 0.10844 0.508 0.79233 0.0
H751 H 0.05232 0.49549 0.76766 0.0
H752 H 0.03629 0.51193 0.80487 0.0
H753 H 0.02446 0.47145 0.79005 0.0
H754 H 0.0618 0.39218 0.87999 0.0
H755 H 0.03523 0.42248 0.92401 0.0
H756 H 0.03982 0.50768 0.86648 0.0
C757 C 0.09292 0.43884 0.76568 0.0
C758 C 0.09972 0.40692 0.75569 0.0
C759 C 0.0943 0.3819 0.77784 0.0
C760 C 0.08376 0.38857 0.8096 0.0
C761 C 0.07821 0.42034 0.8189 0.0
C762 C 0.08185 0.44496 0.79738 0.0
C763 C 0.07171 0.47654 0.81275 0.0
C764 C 0.09963 0.50148 0.81674 0.0
C765 C 0.04457 0.4896 0.79264 0.0
C766 C 0.06109 0.46557 0.8459 0.0
C767 C 0.06602 0.43327 0.84932 0.0
C768 C 0.05794 0.41753 0.87769 0.0
C769 C 0.04324 0.43495 0.9027 0.0
C770 C 0.0362 0.46741 0.89871 0.0
C771 C 0.04571 0.48305 0.87027 0.0
H772 H 0.73557 0.90585 0.96812 0.0
H773 H 0.7633 0.98598 0.90851 0.0
H774 H 0.71426 0.01208 0.92213 0.0
H775 H 0.65611 0.90131 0.94596 0.0
H776 H 0.64277 0.89148 0.98614 0.0
H777 H 0.68113 0.8809 0.97361 0.0
H778 H 0.70577 0.91233 0.02522 0.0
H779 H 0.66738 0.92332 0.0377 0.0
H780 H 0.69792 0.95422 0.03262 0.0
H781 H 0.65953 0.02774 0.93981 0.0
H782 H 0.60388 0.02853 0.95633 0.0
H783 H 0.61398 0.93908 0.00527 0.0
C784 C 0.73175 0.9292 0.95843 0.0
C785 C 0.75347 0.94375 0.93721 0.0
C786 C 0.74694 0.97402 0.92449 0.0
C787 C 0.71926 0.98927 0.93239 0.0
C788 C 0.69834 0.97416 0.95333 0.0
C789 C 0.70436 0.94476 0.96614 0.0
C790 C 0.67742 0.93243 0.98639 0.0
C791 C 0.66354 0.89961 0.97215 0.0
C792 C 0.68775 0.93047 0.02263 0.0
C793 C 0.65483 0.95889 0.98212 0.0
C794 C 0.66734 0.98313 0.96347 0.0
C795 C 0.64971 0.00909 0.95483 0.0
C796 C 0.61821 0.00957 0.96455 0.0
C797 C 0.60476 0.98406 0.98231 0.0
C798 C 0.62375 0.9591 0.99196 0.0
H799 H 0.80116 0.12704 0.4479 0.0
H800 H 0.72938 0.04888 0.44089 0.0
H801 H 0.76795 0.01136 0.4603 0.0
H802 H 0.86133 0.08393 0.41671 0.0
H803 H 0.89207 0.10252 0.44342 0.0
H804 H 0.85795 0.1243 0.43398 0.0
H805 H 0.84766 0.13279 0.49612 0.0
H806 H 0.88191 0.11106 0.50578 0.0
H807 H 0.84431 0.09834 0.52143 0.0
H808 H 0.81556 0.98089 0.4709 0.0
H809 H 0.86861 0.96008 0.47565 0.0
H810 H 0.90968 0.05785 0.47873 0.0
C811 C 0.79343 0.10216 0.45111 0.0
C812 C 0.76219 0.09091 0.44302 0.0
C813 C 0.753 0.05817 0.44744 0.0
C814 C 0.7748 0.03664 0.45835 0.0
C815 C 0.80559 0.04832 0.46523 0.0
C816 C 0.81484 0.08042 0.46226 0.0
C817 C 0.84986 0.08628 0.46898 0.0
C818 C 0.86625 0.10005 0.43898 0.0
C819 C 0.85631 0.10843 0.49992 0.0
C820 C 0.85908 0.05221 0.4747 0.0
C821 C 0.83311 0.03073 0.47264 0.0
C822 C 0.83596 -0.00248 0.4735 0.0
C823 C 0.86611 0.98592 0.4761 0.0
C824 C 0.89295 0.00746 0.47824 0.0
C825 C 0.88937 0.04103 0.47822 0.0
H826 H 0.24777 0.53881 0.06434 0.0
H827 H 0.25405 0.64097 0.04711 0.0
H828 H 0.20149 0.6362 0.01965 0.0
H829 H 0.20121 0.51272 0.98646 0.0
H830 H 0.17841 0.48252 0.00732 0.0
H831 H 0.21854 0.49277 0.02026 0.0
H832 H 0.20071 0.50562 0.07962 0.0
H833 H 0.16076 0.49512 0.0669 0.0
H834 H 0.17095 0.53428 0.0863 0.0
H835 H 0.14577 0.62248 0.00347 0.0
H836 H 0.09054 0.60092 0.00076 0.0
H837 H 0.12051 0.50703 0.02568 0.0
C838 C 0.23825 0.55984 0.05386 0.0
C839 C 0.25466 0.59017 0.05729 0.0
C840 C 0.24164 0.61753 0.04421 0.0
C841 C 0.21199 0.61497 0.02849 0.0
C842 C 0.19599 0.58477 0.02578 0.0
C843 C 0.20873 0.5576 0.03791 0.0
C844 C 0.18537 0.52881 0.03505 0.0
C845 C 0.19656 0.50266 0.01082 0.0
C846 C 0.17907 0.51519 0.06898 0.0
C847 C 0.15695 0.54444 0.02122 0.0
C848 C 0.16374 0.5766 0.01542 0.0
C849 C 0.14035 0.5971 0.00676 0.0
C850 C 0.10912 0.58471 0.00509 0.0
C851 C 0.10176 0.55215 0.01172 0.0
C852 C 0.12596 0.53159 0.01891 0.0
H853 H 0.24971 0.40421 0.53061 0.0
H854 H 0.22291 0.50299 0.54181 0.0
H855 H 0.27132 0.52136 0.51375 0.0
H856 H 0.32602 0.42094 0.55391 0.0
H857 H 0.34206 0.39063 0.52707 0.0
H858 H 0.30241 0.38532 0.54031 0.0
H859 H 0.28291 0.37889 0.47943 0.0
H860 H 0.3227 0.38465 0.466 0.0
H861 H 0.29287 0.41013 0.45157 0.0
H862 H 0.32553 0.52905 0.49056 0.0
H863 H 0.38283 0.52684 0.48417 0.0
H864 H 0.37526 0.4232 0.49247 0.0
C865 C 0.25357 0.42957 0.52595 0.0
C866 C 0.23242 0.45221 0.5373 0.0
C867 C 0.23868 0.48536 0.53248 0.0
C868 C 0.26596 0.49587 0.51644 0.0
C869 C 0.28672 0.47287 0.50579 0.0
C870 C 0.28089 0.44039 0.51076 0.0
C871 C 0.30897 0.42108 0.5026 0.0
C872 C 0.32054 0.4035 0.53276 0.0
C873 C 0.3014 0.39728 0.47314 0.0
C874 C 0.33213 0.44786 0.49359 0.0
C875 C 0.31857 0.47742 0.49432 0.0
C876 C 0.3362 0.50598 0.48939 0.0
C877 C 0.36873 0.50449 0.48547 0.0
C878 C 0.38324 0.47476 0.48749 0.0
C879 C 0.36451 0.44607 0.49014 0.0
H880 H 0.92559 0.75042 0.98088 0.0
H881 H 0.89477 0.73665 0.87863 0.0
H882 H 0.91175 0.68094 0.87773 0.0
H883 H 0.99416 0.70188 0.97584 0.0
H884 H 0.98871 0.68438 0.01513 0.0
H885 H 0.97522 0.72396 0.0082 0.0
H886 H 0.91923 0.70518 0.02476 0.0
H887 H 0.93259 0.66563 0.03195 0.0
H888 H 0.89995 0.67008 0.00392 0.0
H889 H 0.93111 0.62801 0.88673 0.0
H890 H 0.94867 0.57697 0.90616 0.0
H891 H 0.96691 0.62138 0.0039 0.0
C892 C 0.92253 0.73555 0.95838 0.0
C893 C 0.90867 0.74776 0.92979 0.0
C894 C 0.90488 0.72766 0.90085 0.0
C895 C 0.9147 0.69608 0.90003 0.0
C896 C 0.92817 0.68474 0.92844 0.0
C897 C 0.93188 0.70352 0.95724 0.0
C898 C 0.94587 0.68427 0.9845 0.0
C899 C 0.9779 0.69954 0.99663 0.0
C900 C 0.92305 0.68111 0.01297 0.0
C901 C 0.94936 0.65183 0.96634 0.0
C902 C 0.93913 0.65312 0.93397 0.0
C903 C 0.93912 0.62661 0.91201 0.0
C904 C 0.9491 0.59764 0.92342 0.0
C905 C 0.95898 0.59498 0.95664 0.0
C906 C 0.95971 0.6227 0.97835 0.0
H907 H 0.44248 0.74475 0.07061 0.0
H908 H 0.37773 0.78359 0.14052 0.0
H909 H 0.39188 0.83897 0.12309 0.0
H910 H 0.50279 0.80765 0.08066 0.0
H911 H 0.51188 0.80611 0.03764 0.0
H912 H 0.49652 0.77038 0.05638 0.0
H913 H 0.45105 0.76452 0.01266 0.0
H914 H 0.46629 0.80022 0.99381 0.0
H915 H 0.4263 0.7978 0.00713 0.0
H916 H 0.41457 0.89105 0.09646 0.0
H917 H 0.44136 0.93222 0.06259 0.0
H918 H 0.49003 0.85599 0.0123 0.0
C919 C 0.43156 0.7649 0.08265 0.0
C920 C 0.40938 0.76003 0.10719 0.0
C921 C 0.39489 0.78694 0.12164 0.0
C922 C 0.40286 0.81841 0.11199 0.0
C923 C 0.42514 0.82235 0.08774 0.0
C924 C 0.43907 0.7961 0.07328 0.0
C925 C 0.46157 0.80596 0.04722 0.0
C926 C 0.49517 0.797 0.05603 0.0
C927 C 0.45063 0.79126 0.01321 0.0
C928 C 0.45854 0.84194 0.04938 0.0
C929 C 0.43752 0.85134 0.0727 0.0
C930 C 0.43111 0.88384 0.07816 0.0
C931 C 0.44644 0.90706 0.05896 0.0
C932 C 0.46771 0.8974 0.03472 0.0
C933 C 0.47381 0.86443 0.03042 0.0
H934 H 0.04944 0.25409 0.60153 0.0
H935 H 0.08342 0.26774 0.50347 0.0
H936 H 0.05908 0.21433 0.48498 0.0
H937 H 0.06813 0.17633 0.60476 0.0
H938 H 0.03503 0.16286 0.62818 0.0
H939 H 0.04901 0.20442 0.63161 0.0
H940 H 0.99366 0.22224 0.6152 0.0
H941 H 0.97938 0.18056 0.61197 0.0
H942 H 0.9747 0.20587 0.57759 0.0
H943 H 0.03776 0.15563 0.47982 0.0
H944 H 0.02328 0.09817 0.48941 0.0
H945 H 0.00406 0.12455 0.59086 0.0
C946 C 0.05057 0.24651 0.57581 0.0
C947 C 0.06792 0.26521 0.55383 0.0
C948 C 0.07006 0.25379 0.52067 0.0
C949 C 0.05618 0.22358 0.50993 0.0
C950 C 0.04014 0.20516 0.53262 0.0
C951 C 0.03714 0.21643 0.56485 0.0
C952 C 0.02263 0.19072 0.58565 0.0
C953 C 0.04504 0.18315 0.6142 0.0
C954 C 0.99069 0.20044 0.59834 0.0
C955 C 0.01883 0.16289 0.56047 0.0
C956 C 0.02851 0.17158 0.52983 0.0
C957 C 0.02958 0.14876 0.50359 0.0
C958 C 0.02132 0.1162 0.50918 0.0
C959 C 0.01268 0.10694 0.54086 0.0
C960 C 0.01051 0.13086 0.56631 0.0
H961 H 0.60207 0.27727 0.47284 0.0
H962 H 0.53709 0.22986 0.40009 0.0
H963 H 0.4984 0.27005 0.41308 0.0
H964 H 0.54146 0.307 0.53144 0.0
H965 H 0.56388 0.34459 0.5399 0.0
H966 H 0.58371 0.30814 0.53051 0.0
H967 H 0.61235 0.33583 0.48303 0.0
H968 H 0.59289 0.37224 0.49247 0.0
H969 H 0.58955 0.35377 0.45154 0.0
H970 H 0.47168 0.32078 0.4248 0.0
H971 H 0.4599 0.37807 0.43401 0.0
H972 H 0.54082 0.39295 0.49992 0.0
C973 C 0.57943 0.27487 0.46015 0.0
C974 C 0.57267 0.25009 0.43561 0.0
C975 C 0.54273 0.24802 0.41954 0.0
C976 C 0.52053 0.27088 0.4267 0.0
C977 C 0.52838 0.29559 0.45023 0.0
C978 C 0.55705 0.29759 0.46692 0.0
C979 C 0.56133 0.32867 0.48792 0.0
C980 C 0.56266 0.32167 0.52462 0.0
C981 C 0.59075 0.3488 0.47813 0.0
C982 C 0.53139 0.3447 0.47896 0.0
C983 C 0.51238 0.3249 0.45769 0.0
C984 C 0.48572 0.33606 0.44236 0.0
C985 C 0.47903 0.36854 0.44786 0.0
C986 C 0.49872 0.38931 0.46873 0.0
C987 C 0.52452 0.37696 0.48533 0.0
loop_
_geom_bond_atom_site_label_1
_geom_bond_atom_site_label_2
_geom_bond_distance
_geom_bond_site_symmetry_2
_ccdc_geom_bond_type
P0 O11 1.490 . S
P0 C14 1.812 . S
P0 C20 1.803 . S
P0 C26 1.819 . S
H1 C15 0.941 . S
H2 C16 0.939 . S
H3 C18 0.940 . S
H4 C19 0.940 . S
H5 C21 0.939 . S
H6 C22 0.942 . S
H7 C24 0.940 . S
H8 C25 0.939 . S
H9 C27 0.941 . S
H10 C31 0.939 . S
O11 P0 1.490 . S
H12 C28 0.939 . S
H13 C30 0.940 . S
C14 P0 1.812 . S
C14 C15 1.389 . S
C14 C19 1.391 . S
C15 H1 0.941 . S
C15 C14 1.389 . S
C15 C16 1.397 . S
C16 H2 0.939 . S
C16 C15 1.397 . S
C16 C17 1.378 . S
C17 C16 1.378 . S
C17 C18 1.378 . S
C18 H3 0.940 . S
C18 C17 1.378 . S
C18 C19 1.396 . S
C19 H4 0.940 . S
C19 C14 1.391 . S
C19 C18 1.396 . S
C20 P0 1.803 . S
C20 C21 1.378 . S
C20 C25 1.400 . S
C21 H5 0.939 . S
C21 C20 1.378 . S
C21 C22 1.361 . S
C22 H6 0.942 . S
C22 C21 1.361 . S
C22 C23 1.369 . S
C23 C22 1.369 . S
C23 C24 1.404 . S
C24 H7 0.940 . S
C24 C23 1.404 . S
C24 C25 1.389 . S
C25 H8 0.939 . S
C25 C20 1.400 . S
C25 C24 1.389 . S
C26 P0 1.819 . S
C26 C27 1.391 . S
C26 C31 1.391 . S
C27 H9 0.941 . S
C27 C26 1.391 . S
C27 C28 1.396 . S
C28 H12 0.939 . S
C28 C27 1.396 . S
C28 C29 1.397 . S
C29 C28 1.397 . S
C29 C30 1.385 . S
C30 H13 0.940 . S
C30 C29 1.385 . S
C30 C31 1.388 . S
C31 H10 0.939 . S
C31 C26 1.391 . S
C31 C30 1.388 . S
P32 O43 1.490 . S
P32 C46 1.812 . S
P32 C52 1.803 . S
P32 C58 1.819 . S
H33 C47 0.941 . S
H34 C48 0.939 . S
H35 C50 0.940 . S
H36 C51 0.940 . S
H37 C53 0.939 . S
H38 C54 0.942 . S
H39 C56 0.940 . S
H40 C57 0.939 . S
H41 C59 0.941 . S
H42 C63 0.939 . S
O43 P32 1.490 . S
H44 C60 0.939 . S
H45 C62 0.940 . S
C46 P32 1.812 . S
C46 C47 1.389 . S
C46 C51 1.391 . S
C47 H33 0.941 . S
C47 C46 1.389 . S
C47 C48 1.397 . S
C48 H34 0.939 . S
C48 C47 1.397 . S
C48 C49 1.378 . S
C49 C48 1.378 . S
C49 C50 1.378 . S
C50 H35 0.940 . S
C50 C49 1.378 . S
C50 C51 1.396 . S
C51 H36 0.940 . S
C51 C46 1.391 . S
C51 C50 1.396 . S
C52 P32 1.803 . S
C52 C53 1.378 . S
C52 C57 1.400 . S
C53 H37 0.939 . S
C53 C52 1.378 . S
C53 C54 1.361 . S
C54 H38 0.942 . S
C54 C53 1.361 . S
C54 C55 1.369 . S
C55 C54 1.369 . S
C55 C56 1.404 . S
C56 H39 0.940 . S
C56 C55 1.404 . S
C56 C57 1.389 . S
C57 H40 0.939 . S
C57 C52 1.400 . S
C57 C56 1.389 . S
C58 P32 1.819 . S
C58 C59 1.391 . S
C58 C63 1.391 . S
C59 H41 0.941 . S
C59 C58 1.391 . S
C59 C60 1.396 . S
C60 H44 0.939 . S
C60 C59 1.396 . S
C60 C61 1.397 . S
C61 C60 1.397 . S
C61 C62 1.385 . S
C62 H45 0.940 . S
C62 C61 1.385 . S
C62 C63 1.388 . S
C63 H42 0.939 . S
C63 C58 1.391 . S
C63 C62 1.388 . S
P64 O75 1.490 . S
P64 C78 1.812 . S
P64 C84 1.803 . S
P64 C90 1.819 . S
H65 C79 0.941 . S
H66 C80 0.939 . S
H67 C82 0.940 . S
H68 C83 0.940 . S
H69 C85 0.939 . S
H70 C86 0.942 . S
H71 C88 0.940 . S
H72 C89 0.939 . S
H73 C91 0.941 . S
H74 C95 0.939 . S
O75 P64 1.490 . S
H76 C92 0.939 . S
H77 C94 0.940 . S
C78 P64 1.812 . S
C78 C79 1.389 . S
C78 C83 1.391 . S
C79 H65 0.941 . S
C79 C78 1.389 . S
C79 C80 1.397 . S
C80 H66 0.939 . S
C80 C79 1.397 . S
C80 C81 1.378 . S
C81 C80 1.378 . S
C81 C82 1.378 . S
C82 H67 0.940 . S
C82 C81 1.378 . S
C82 C83 1.396 . S
C83 H68 0.940 . S
C83 C78 1.391 . S
C83 C82 1.396 . S
C84 P64 1.803 . S
C84 C85 1.378 . S
C84 C89 1.400 . S
C85 H69 0.939 . S
C85 C84 1.378 . S
C85 C86 1.361 . S
C86 H70 0.942 . S
C86 C85 1.361 . S
C86 C87 1.369 . S
C87 C86 1.369 . S
C87 C88 1.404 . S
C88 H71 0.940 . S
C88 C87 1.404 . S
C88 C89 1.389 . S
C89 H72 0.939 . S
C89 C84 1.400 . S
C89 C88 1.389 . S
C90 P64 1.819 . S
C90 C91 1.391 . S
C90 C95 1.391 . S
C91 H73 0.941 . S
C91 C90 1.391 . S
C91 C92 1.396 . S
C92 H76 0.939 . S
C92 C91 1.396 . S
C92 C93 1.397 . S
C93 C92 1.397 . S
C93 C94 1.385 . S
C94 H77 0.940 . S
C94 C93 1.385 . S
C94 C95 1.388 . S
C95 H74 0.939 . S
C95 C90 1.391 . S
C95 C94 1.388 . S
P96 O107 1.490 . S
P96 C110 1.812 . S
P96 C116 1.803 . S
P96 C122 1.819 . S
H97 C111 0.941 . S
H98 C112 0.939 . S
H99 C114 0.940 . S
H100 C115 0.940 . S
H101 C117 0.939 . S
H102 C118 0.942 . S
H103 C120 0.940 . S
H104 C121 0.939 . S
H105 C123 0.941 . S
H106 C127 0.939 . S
O107 P96 1.490 . S
H108 C124 0.939 . S
H109 C126 0.940 . S
C110 P96 1.812 . S
C110 C111 1.389 . S
C110 C115 1.391 . S
C111 H97 0.941 . S
C111 C110 1.389 . S
C111 C112 1.397 . S
C112 H98 0.939 . S
C112 C111 1.397 . S
C112 C113 1.378 . S
C113 C112 1.378 . S
C113 C114 1.378 . S
C114 H99 0.940 . S
C114 C113 1.378 . S
C114 C115 1.396 . S
C115 H100 0.940 . S
C115 C110 1.391 . S
C115 C114 1.396 . S
C116 P96 1.803 . S
C116 C117 1.378 . S
C116 C121 1.400 . S
C117 H101 0.939 . S
C117 C116 1.378 . S
C117 C118 1.361 . S
C118 H102 0.942 . S
C118 C117 1.361 . S
C118 C119 1.369 . S
C119 C118 1.369 . S
C119 C120 1.404 . S
C120 H103 0.940 . S
C120 C119 1.404 . S
C120 C121 1.389 . S
C121 H104 0.939 . S
C121 C116 1.400 . S
C121 C120 1.389 . S
C122 P96 1.819 . S
C122 C123 1.391 . S
C122 C127 1.391 . S
C123 H105 0.941 . S
C123 C122 1.391 . S
C123 C124 1.396 . S
C124 H108 0.939 . S
C124 C123 1.396 . S
C124 C125 1.397 . S
C125 C124 1.397 . S
C125 C126 1.385 . S
C126 H109 0.940 . S
C126 C125 1.385 . S
C126 C127 1.388 . S
C127 H106 0.939 . S
C127 C122 1.391 . S
C127 C126 1.388 . S
P128 O139 1.490 . S
P128 C142 1.812 . S
P128 C148 1.803 . S
P128 C154 1.819 . S
H129 C143 0.941 . S
H130 C144 0.939 . S
H131 C146 0.940 . S
H132 C147 0.940 . S
H133 C149 0.939 . S
H134 C150 0.942 . S
H135 C152 0.940 . S
H136 C153 0.939 . S
H137 C155 0.941 . S
H138 C159 0.939 . S
O139 P128 1.490 . S
H140 C156 0.939 . S
H141 C158 0.940 . S
C142 P128 1.812 . S
C142 C143 1.389 . S
C142 C147 1.391 . S
C143 H129 0.941 . S
C143 C142 1.389 . S
C143 C144 1.397 . S
C144 H130 0.939 . S
C144 C143 1.397 . S
C144 C145 1.378 . S
C145 C144 1.378 . S
C145 C146 1.378 . S
C146 H131 0.940 . S
C146 C145 1.378 . S
C146 C147 1.396 . S
C147 H132 0.940 . S
C147 C142 1.391 . S
C147 C146 1.396 . S
C148 P128 1.803 . S
C148 C149 1.378 . S
C148 C153 1.400 . S
C149 H133 0.939 . S
C149 C148 1.378 . S
C149 C150 1.361 . S
C150 H134 0.942 . S
C150 C149 1.361 . S
C150 C151 1.369 . S
C151 C150 1.369 . S
C151 C152 1.404 . S
C152 H135 0.940 . S
C152 C151 1.404 . S
C152 C153 1.389 . S
C153 H136 0.939 . S
C153 C148 1.400 . S
C153 C152 1.389 . S
C154 P128 1.819 . S
C154 C155 1.391 . S
C154 C159 1.391 . S
C155 H137 0.941 . S
C155 C154 1.391 . S
C155 C156 1.396 . S
C156 H140 0.939 . S
C156 C155 1.396 . S
C156 C157 1.397 . S
C157 C156 1.397 . S
C157 C158 1.385 . S
C158 H141 0.940 . S
C158 C157 1.385 . S
C158 C159 1.388 . S
C159 H138 0.939 . S
C159 C154 1.391 . S
C159 C158 1.388 . S
P160 O171 1.490 . S
P160 C174 1.812 . S
P160 C180 1.803 . S
P160 C186 1.819 . S
H161 C175 0.941 . S
H162 C176 0.939 . S
H163 C178 0.940 . S
H164 C179 0.940 . S
H165 C181 0.939 . S
H166 C182 0.942 . S
H167 C184 0.940 . S
H168 C185 0.939 . S
H169 C187 0.941 . S
H170 C191 0.939 . S
O171 P160 1.490 . S
H172 C188 0.939 . S
H173 C190 0.940 . S
C174 P160 1.812 . S
C174 C175 1.389 . S
C174 C179 1.391 . S
C175 H161 0.941 . S
C175 C174 1.389 . S
C175 C176 1.397 . S
C176 H162 0.939 . S
C176 C175 1.397 . S
C176 C177 1.378 . S
C177 C176 1.378 . S
C177 C178 1.378 . S
C178 H163 0.940 . S
C178 C177 1.378 . S
C178 C179 1.396 . S
C179 H164 0.940 . S
C179 C174 1.391 . S
C179 C178 1.396 . S
C180 P160 1.803 . S
C180 C181 1.378 . S
C180 C185 1.400 . S
C181 H165 0.939 . S
C181 C180 1.378 . S
C181 C182 1.361 . S
C182 H166 0.942 . S
C182 C181 1.361 . S
C182 C183 1.369 . S
C183 C182 1.369 . S
C183 C184 1.404 . S
C184 H167 0.940 . S
C184 C183 1.404 . S
C184 C185 1.389 . S
C185 H168 0.939 . S
C185 C180 1.400 . S
C185 C184 1.389 . S
C186 P160 1.819 . S
C186 C187 1.391 . S
C186 C191 1.391 . S
C187 H169 0.941 . S
C187 C186 1.391 . S
C187 C188 1.396 . S
C188 H172 0.939 . S
C188 C187 1.396 . S
C188 C189 1.397 . S
C189 C188 1.397 . S
C189 C190 1.385 . S
C190 H173 0.940 . S
C190 C189 1.385 . S
C190 C191 1.388 . S
C191 H170 0.939 . S
C191 C186 1.391 . S
C191 C190 1.388 . S
P192 O203 1.490 . S
P192 C206 1.812 . S
P192 C212 1.803 . S
P192 C218 1.819 . S
H193 C207 0.941 . S
H194 C208 0.939 . S
H195 C210 0.940 . S
H196 C211 0.940 . S
H197 C213 0.939 . S
H198 C214 0.942 . S
H199 C216 0.940 . S
H200 C217 0.939 . S
H201 C219 0.941 . S
H202 C223 0.939 . S
O203 P192 1.490 . S
H204 C220 0.939 . S
H205 C222 0.940 . S
C206 P192 1.812 . S
C206 C207 1.389 . S
C206 C211 1.391 . S
C207 H193 0.941 . S
C207 C206 1.389 . S
C207 C208 1.397 . S
C208 H194 0.939 . S
C208 C207 1.397 . S
C208 C209 1.378 . S
C209 C208 1.378 . S
C209 C210 1.378 . S
C210 H195 0.940 . S
C210 C209 1.378 . S
C210 C211 1.396 . S
C211 H196 0.940 . S
C211 C206 1.391 . S
C211 C210 1.396 . S
C212 P192 1.803 . S
C212 C213 1.378 . S
C212 C217 1.400 . S
C213 H197 0.939 . S
C213 C212 1.378 . S
C213 C214 1.361 . S
C214 H198 0.942 . S
C214 C213 1.361 . S
C214 C215 1.369 . S
C215 C214 1.369 . S
C215 C216 1.404 . S
C216 H199 0.940 . S
C216 C215 1.404 . S
C216 C217 1.389 . S
C217 H200 0.939 . S
C217 C212 1.400 . S
C217 C216 1.389 . S
C218 P192 1.819 . S
C218 C219 1.391 . S
C218 C223 1.391 . S
C219 H201 0.941 . S
C219 C218 1.391 . S
C219 C220 1.396 . S
C220 H204 0.939 . S
C220 C219 1.396 . S
C220 C221 1.397 . S
C221 C220 1.397 . S
C221 C222 1.385 . S
C222 H205 0.940 . S
C222 C221 1.385 . S
C222 C223 1.388 . S
C223 H202 0.939 . S
C223 C218 1.391 . S
C223 C222 1.388 . S
P224 O235 1.490 . S
P224 C238 1.812 . S
P224 C244 1.803 . S
P224 C250 1.819 . S
H225 C239 0.941 . S
H226 C240 0.939 . S
H227 C242 0.940 . S
H228 C243 0.940 . S
H229 C245 0.939 . S
H230 C246 0.942 . S
H231 C248 0.940 . S
H232 C249 0.939 . S
H233 C251 0.941 . S
H234 C255 0.939 . S
O235 P224 1.490 . S
H236 C252 0.939 . S
H237 C254 0.940 . S
C238 P224 1.812 . S
C238 C239 1.389 . S
C238 C243 1.391 . S
C239 H225 0.941 . S
C239 C238 1.389 . S
C239 C240 1.397 . S
C240 H226 0.939 . S
C240 C239 1.397 . S
C240 C241 1.378 . S
C241 C240 1.378 . S
C241 C242 1.378 . S
C242 H227 0.940 . S
C242 C241 1.378 . S
C242 C243 1.396 . S
C243 H228 0.940 . S
C243 C238 1.391 . S
C243 C242 1.396 . S
C244 P224 1.803 . S
C244 C245 1.378 . S
C244 C249 1.400 . S
C245 H229 0.939 . S
C245 C244 1.378 . S
C245 C246 1.361 . S
C246 H230 0.942 . S
C246 C245 1.361 . S
C246 C247 1.369 . S
C247 C246 1.369 . S
C247 C248 1.404 . S
C248 H231 0.940 . S
C248 C247 1.404 . S
C248 C249 1.389 . S
C249 H232 0.939 . S
C249 C244 1.400 . S
C249 C248 1.389 . S
C250 P224 1.819 . S
C250 C251 1.391 . S
C250 C255 1.391 . S
C251 H233 0.941 . S
C251 C250 1.391 . S
C251 C252 1.396 . S
C252 H236 0.939 . S
C252 C251 1.396 . S
C252 C253 1.397 . S
C253 C252 1.397 . S
C253 C254 1.385 . S
C254 H237 0.940 . S
C254 C253 1.385 . S
C254 C255 1.388 . S
C255 H234 0.939 . S
C255 C250 1.391 . S
C255 C254 1.388 . S
O256 Mg257 1.990 . S
O256 C270 1.253 1_445 S
Mg257 O256 1.990 . S
Mg257 O260 2.180 . S
Mg257 O261 2.117 . S
Mg257 O275 2.030 1_545 S
O258 Mg259 2.072 1_665 S
O258 C270 1.260 . S
Mg259 O258 2.072 1_445 S
Mg259 O260 2.099 . S
Mg259 O262 2.079 . S
Mg259 O263 2.072 1_455 S
Mg259 O265 2.099 1_445 S
Mg259 O276 2.079 1_545 S
O260 Mg257 2.180 . S
O260 Mg259 2.099 . S
O260 C271 1.279 . S
O261 Mg257 2.117 . S
O261 C271 1.250 . S
O262 Mg259 2.079 . S
O262 C272 1.264 . S
O263 Mg259 2.072 1_655 S
O263 C273 1.260 . S
Mg264 O265 2.180 . S
Mg264 O266 2.030 1_565 S
Mg264 O267 1.990 1_565 S
Mg264 O268 2.117 . S
O265 Mg259 2.099 1_665 S
O265 Mg264 2.180 . S
O265 C274 1.279 . S
O266 Mg264 2.030 1_545 S
O266 C272 1.248 1_655 S
O267 Mg264 1.990 1_545 S
O267 C273 1.253 . S
O268 Mg264 2.117 . S
O268 C274 1.250 . S
C269 O275 1.248 . S
C269 O276 1.264 . S
C270 O256 1.253 1_665 S
C270 O258 1.260 . S
C271 O260 1.279 . S
C271 O261 1.250 . S
C272 O262 1.264 . S
C272 O266 1.248 1_455 S
C273 O263 1.260 . S
C273 O267 1.253 . S
C274 O265 1.279 . S
C274 O268 1.250 . S
O275 Mg257 2.030 1_565 S
O275 C269 1.248 . S
O276 Mg259 2.079 1_565 S
O276 C269 1.264 . S
O277 Mg278 1.990 . S
O277 C291 1.253 . S
Mg278 O277 1.990 . S
Mg278 O281 2.180 . S
Mg278 O282 2.117 1_554 S
Mg278 O296 2.030 . S
O279 Mg280 2.072 . S
O279 C291 1.260 . S
Mg280 O279 2.072 . S
Mg280 O281 2.099 . S
Mg280 O283 2.079 1_554 S
Mg280 O284 2.072 1_554 S
Mg280 O286 2.099 1_545 S
Mg280 O297 2.079 . S
O281 Mg278 2.180 . S
O281 Mg280 2.099 . S
O281 C292 1.279 1_554 S
O282 Mg278 2.117 1_556 S
O282 C292 1.250 . S
O283 Mg280 2.079 1_556 S
O283 C293 1.264 1_545 S
O284 Mg280 2.072 1_556 S
O284 C294 1.260 1_545 S
Mg285 O286 2.180 1_556 S
Mg285 O287 2.030 . S
Mg285 O288 1.990 . S
Mg285 O289 2.117 1_556 S
O286 Mg280 2.099 1_565 S
O286 Mg285 2.180 1_554 S
O286 C295 1.279 . S
O287 Mg285 2.030 . S
O287 C293 1.248 . S
O288 Mg285 1.990 . S
O288 C294 1.253 . S
O289 Mg285 2.117 1_554 S
O289 C295 1.250 . S
C290 O296 1.248 . S
C290 O297 1.264 . S
C291 O277 1.253 . S
C291 O279 1.260 . S
C292 O281 1.279 1_556 S
C292 O282 1.250 . S
C293 O283 1.264 1_565 S
C293 O287 1.248 . S
C294 O284 1.260 1_565 S
C294 O288 1.253 . S
C295 O286 1.279 . S
C295 O289 1.250 . S
O296 Mg278 2.030 . S
O296 C290 1.248 . S
O297 Mg280 2.079 . S
O297 C290 1.264 . S
O298 Mg299 1.990 . S
O298 C312 1.253 . S
Mg299 O298 1.990 . S
Mg299 O302 2.180 . S
Mg299 O303 2.117 . S
Mg299 O317 2.030 . S
O300 Mg301 2.072 . S
O300 C312 1.260 . S
Mg301 O300 2.072 . S
Mg301 O302 2.099 . S
Mg301 O304 2.079 . S
Mg301 O305 2.072 . S
Mg301 O307 2.099 . S
Mg301 O318 2.079 . S
O302 Mg299 2.180 . S
O302 Mg301 2.099 . S
O302 C313 1.279 . S
O303 Mg299 2.117 . S
O303 C313 1.250 . S
O304 Mg301 2.079 . S
O304 C314 1.264 . S
O305 Mg301 2.072 . S
O305 C315 1.260 . S
Mg306 O307 2.180 . S
Mg306 O308 2.030 . S
Mg306 O309 1.990 . S
Mg306 O310 2.117 . S
O307 Mg301 2.099 . S
O307 Mg306 2.180 . S
O307 C316 1.279 . S
O308 Mg306 2.030 . S
O308 C314 1.248 . S
O309 Mg306 1.990 . S
O309 C315 1.253 . S
O310 Mg306 2.117 . S
O310 C316 1.250 . S
C311 O317 1.248 . S
C311 O318 1.264 . S
C312 O298 1.253 . S
C312 O300 1.260 . S
C313 O302 1.279 . S
C313 O303 1.250 . S
C314 O304 1.264 . S
C314 O308 1.248 . S
C315 O305 1.260 . S
C315 O309 1.253 . S
C316 O307 1.279 . S
C316 O310 1.250 . S
O317 Mg299 2.030 . S
O317 C311 1.248 . S
O318 Mg301 2.079 . S
O318 C311 1.264 . S
O319 Mg320 1.990 . S
O319 C333 1.253 . S
Mg320 O319 1.990 . S
Mg320 O323 2.180 1_455 S
Mg320 O324 2.117 1_455 S
Mg320 O338 2.030 . S
O321 Mg322 2.072 . S
O321 C333 1.260 . S
Mg322 O321 2.072 . S
Mg322 O323 2.099 1_455 S
Mg322 O325 2.079 1_454 S
Mg322 O326 2.072 1_455 S
Mg322 O328 2.099 1_554 S
Mg322 O339 2.079 . S
O323 Mg320 2.180 1_655 S
O323 Mg322 2.099 1_655 S
O323 C334 1.279 . S
O324 Mg320 2.117 1_655 S
O324 C334 1.250 . S
O325 Mg322 2.079 1_656 S
O325 C335 1.264 . S
O326 Mg322 2.072 1_655 S
O326 C336 1.260 1_554 S
Mg327 O328 2.180 1_655 S
Mg327 O329 2.030 . S
Mg327 O330 1.990 . S
Mg327 O331 2.117 . S
O328 Mg322 2.099 1_556 S
O328 Mg327 2.180 1_455 S
O328 C337 1.279 . S
O329 Mg327 2.030 . S
O329 C335 1.248 . S
O330 Mg327 1.990 . S
O330 C336 1.253 . S
O331 Mg327 2.117 . S
O331 C337 1.250 1_655 S
C332 O338 1.248 . S
C332 O339 1.264 . S
C333 O319 1.253 . S
C333 O321 1.260 . S
C334 O323 1.279 . S
C334 O324 1.250 . S
C335 O325 1.264 . S
C335 O329 1.248 . S
C336 O326 1.260 1_556 S
C336 O330 1.253 . S
C337 O328 1.279 . S
C337 O331 1.250 1_455 S
O338 Mg320 2.030 . S
O338 C332 1.248 . S
O339 Mg322 2.079 . S
O339 C332 1.264 . S
H340 C352 0.930 . S
H341 C354 0.930 . S
H342 C355 0.930 . S
H343 C359 0.959 . S
H344 C359 0.959 1_565 S
H345 C359 0.961 . S
H346 C360 0.960 . S
H347 C360 0.961 . S
H348 C360 0.959 1_545 S
H349 C363 0.929 . S
H350 C364 0.931 . S
H351 C366 0.930 . S
C352 H340 0.930 . S
C352 C353 1.399 . S
C352 C357 1.399 . S
C353 C352 1.399 . S
C353 C354 1.376 . S
C354 H341 0.930 . S
C354 C353 1.376 . S
C354 C355 1.388 . S
C355 H342 0.930 . S
C355 C354 1.388 . S
C355 C356 1.390 . S
C356 C355 1.390 . S
C356 C357 1.394 . S
C356 C362 1.465 . S
C357 C352 1.399 . S
C357 C356 1.394 . S
C357 C358 1.516 . S
C358 C357 1.516 . S
C358 C359 1.502 . S
C358 C360 1.561 1_545 S
C358 C361 1.526 . S
C359 H343 0.959 . S
C359 H344 0.959 1_545 S
C359 H345 0.961 . S
C359 C358 1.502 . S
C360 H346 0.960 . S
C360 H347 0.961 . S
C360 H348 0.959 1_565 S
C360 C358 1.561 1_565 S
C361 C358 1.526 . S
C361 C362 1.396 . S
C361 C366 1.390 . S
C362 C356 1.465 . S
C362 C361 1.396 . S
C362 C363 1.399 . S
C363 H349 0.929 . S
C363 C362 1.399 . S
C363 C364 1.385 . S
C364 H350 0.931 . S
C364 C363 1.385 . S
C364 C365 1.389 . S
C365 C364 1.389 . S
C365 C366 1.387 . S
C366 H351 0.930 . S
C366 C361 1.390 . S
C366 C365 1.387 . S
H367 C379 0.930 . S
H368 C381 0.930 . S
H369 C382 0.930 1_545 S
H370 C386 0.959 . S
H371 C386 0.959 . S
H372 C386 0.961 . S
H373 C387 0.960 . S
H374 C387 0.961 . S
H375 C387 0.959 . S
H376 C390 0.929 . S
H377 C391 0.931 . S
H378 C393 0.930 . S
C379 H367 0.930 . S
C379 C380 1.399 . S
C379 C384 1.399 . S
C380 C379 1.399 . S
C380 C381 1.376 . S
C381 H368 0.930 . S
C381 C380 1.376 . S
C381 C382 1.388 . S
C382 H369 0.930 1_565 S
C382 C381 1.388 . S
C382 C383 1.390 . S
C383 C382 1.390 . S
C383 C384 1.394 . S
C383 C389 1.465 . S
C384 C379 1.399 . S
C384 C383 1.394 . S
C384 C385 1.516 . S
C385 C384 1.516 . S
C385 C386 1.502 . S
C385 C387 1.561 . S
C385 C388 1.526 . S
C386 H370 0.959 . S
C386 H371 0.959 . S
C386 H372 0.961 . S
C386 C385 1.502 . S
C387 H373 0.960 . S
C387 H374 0.961 . S
C387 H375 0.959 . S
C387 C385 1.561 . S
C388 C385 1.526 . S
C388 C389 1.396 . S
C388 C393 1.390 . S
C389 C383 1.465 . S
C389 C388 1.396 . S
C389 C390 1.399 1_565 S
C390 H376 0.929 . S
C390 C389 1.399 1_545 S
C390 C391 1.385 . S
C391 H377 0.931 . S
C391 C390 1.385 . S
C391 C392 1.389 1_545 S
C392 C391 1.389 1_565 S
C392 C393 1.387 . S
C393 H378 0.930 . S
C393 C388 1.390 . S
C393 C392 1.387 . S
H394 C406 0.930 . S
H395 C408 0.930 . S
H396 C409 0.930 . S
H397 C413 0.959 . S
H398 C413 0.959 . S
H399 C413 0.961 . S
H400 C414 0.960 . S
H401 C414 0.961 . S
H402 C414 0.959 . S
H403 C417 0.929 . S
H404 C418 0.931 . S
H405 C420 0.930 . S
C406 H394 0.930 . S
C406 C407 1.399 . S
C406 C411 1.399 . S
C407 C406 1.399 . S
C407 C408 1.376 . S
C408 H395 0.930 . S
C408 C407 1.376 . S
C408 C409 1.388 . S
C409 H396 0.930 . S
C409 C408 1.388 . S
C409 C410 1.390 . S
C410 C409 1.390 . S
C410 C411 1.394 . S
C410 C416 1.465 . S
C411 C406 1.399 . S
C411 C410 1.394 . S
C411 C412 1.516 . S
C412 C411 1.516 . S
C412 C413 1.502 . S
C412 C414 1.561 . S
C412 C415 1.526 . S
C413 H397 0.959 . S
C413 H398 0.959 . S
C413 H399 0.961 . S
C413 C412 1.502 . S
C414 H400 0.960 . S
C414 H401 0.961 . S
C414 H402 0.959 . S
C414 C412 1.561 . S
C415 C412 1.526 . S
C415 C416 1.396 . S
C415 C420 1.390 . S
C416 C410 1.465 . S
C416 C415 1.396 . S
C416 C417 1.399 . S
C417 H403 0.929 . S
C417 C416 1.399 . S
C417 C418 1.385 . S
C418 H404 0.931 . S
C418 C417 1.385 . S
C418 C419 1.389 . S
C419 C418 1.389 . S
C419 C420 1.387 . S
C420 H405 0.930 . S
C420 C415 1.390 . S
C420 C419 1.387 . S
H421 C433 0.930 . S
H422 C435 0.930 . S
H423 C436 0.930 . S
H424 C440 0.959 . S
H425 C440 0.959 . S
H426 C440 0.961 . S
H427 C441 0.960 . S
H428 C441 0.961 . S
H429 C441 0.959 . S
H430 C444 0.929 . S
H431 C445 0.931 . S
H432 C447 0.930 . S
C433 H421 0.930 . S
C433 C434 1.399 . S
C433 C438 1.399 . S
C434 C433 1.399 . S
C434 C435 1.376 . S
C435 H422 0.930 . S
C435 C434 1.376 . S
C435 C436 1.388 . S
C436 H423 0.930 . S
C436 C435 1.388 . S
C436 C437 1.390 . S
C437 C436 1.390 . S
C437 C438 1.394 . S
C437 C443 1.465 . S
C438 C433 1.399 . S
C438 C437 1.394 . S
C438 C439 1.516 . S
C439 C438 1.516 . S
C439 C440 1.502 . S
C439 C441 1.561 1_655 S
C439 C442 1.526 . S
C440 H424 0.959 . S
C440 H425 0.959 . S
C440 H426 0.961 . S
C440 C439 1.502 . S
C441 H427 0.960 . S
C441 H428 0.961 . S
C441 H429 0.959 . S
C441 C439 1.561 1_455 S
C442 C439 1.526 . S
C442 C443 1.396 . S
C442 C447 1.390 . S
C443 C437 1.465 . S
C443 C442 1.396 . S
C443 C444 1.399 . S
C444 H430 0.929 . S
C444 C443 1.399 . S
C444 C445 1.385 . S
C445 H431 0.931 . S
C445 C444 1.385 . S
C445 C446 1.389 . S
C446 C445 1.389 . S
C446 C447 1.387 . S
C447 H432 0.930 . S
C447 C442 1.390 . S
C447 C446 1.387 . S
H448 C460 0.930 . S
H449 C462 0.930 . S
H450 C463 0.930 . S
H451 C467 0.955 1_554 S
H452 C467 0.969 . S
H453 C467 0.965 . S
H454 C468 0.960 . S
H455 C468 0.961 1_556 S
H456 C468 0.959 . S
H457 C471 0.929 . S
H458 C472 0.931 . S
H459 C474 0.930 . S
C460 H448 0.930 . S
C460 C461 1.399 . S
C460 C465 1.399 . S
C461 C460 1.399 . S
C461 C462 1.376 . S
C462 H449 0.930 . S
C462 C461 1.376 . S
C462 C463 1.388 . S
C463 H450 0.930 . S
C463 C462 1.388 . S
C463 C464 1.390 . S
C464 C463 1.390 . S
C464 C465 1.394 . S
C464 C470 1.465 . S
C465 C460 1.399 . S
C465 C464 1.394 . S
C465 C466 1.516 . S
C466 C465 1.516 . S
C466 C467 1.492 1_554 S
C466 C468 1.561 . S
C466 C469 1.526 . S
C467 H451 0.955 1_556 S
C467 H452 0.969 . S
C467 H453 0.965 . S
C467 C466 1.492 1_556 S
C468 H454 0.960 . S
C468 H455 0.961 1_554 S
C468 H456 0.959 . S
C468 C466 1.561 . S
C469 C466 1.526 . S
C469 C470 1.396 . S
C469 C474 1.390 . S
C470 C464 1.465 . S
C470 C469 1.396 . S
C470 C471 1.399 . S
C471 H457 0.929 . S
C471 C470 1.399 . S
C471 C472 1.385 . S
C472 H458 0.931 . S
C472 C471 1.385 . S
C472 C473 1.389 . S
C473 C472 1.389 . S
C473 C474 1.387 . S
C474 H459 0.930 . S
C474 C469 1.390 . S
C474 C473 1.387 . S
H475 C487 0.930 . S
H476 C489 0.930 . S
H477 C490 0.930 . S
H478 C494 0.959 . S
H479 C494 0.959 . S
H480 C494 0.961 . S
H481 C495 0.960 . S
H482 C495 0.961 . S
H483 C495 0.959 . S
H484 C498 0.929 1_545 S
H485 C499 0.931 1_545 S
H486 C501 0.930 . S
C487 H475 0.930 . S
C487 C488 1.399 . S
C487 C492 1.399 . S
C488 C487 1.399 . S
C488 C489 1.376 . S
C489 H476 0.930 . S
C489 C488 1.376 . S
C489 C490 1.388 . S
C490 H477 0.930 . S
C490 C489 1.388 . S
C490 C491 1.390 . S
C491 C490 1.390 . S
C491 C492 1.394 . S
C491 C497 1.465 . S
C492 C487 1.399 . S
C492 C491 1.394 . S
C492 C493 1.516 . S
C493 C492 1.516 . S
C493 C494 1.502 . S
C493 C495 1.561 . S
C493 C496 1.526 . S
C494 H478 0.959 . S
C494 H479 0.959 . S
C494 H480 0.961 . S
C494 C493 1.502 . S
C495 H481 0.960 . S
C495 H482 0.961 . S
C495 H483 0.959 . S
C495 C493 1.561 . S
C496 C493 1.526 . S
C496 C497 1.396 . S
C496 C501 1.390 . S
C497 C491 1.465 . S
C497 C496 1.396 . S
C497 C498 1.399 . S
C498 H484 0.929 1_565 S
C498 C497 1.399 . S
C498 C499 1.385 . S
C499 H485 0.931 1_565 S
C499 C498 1.385 . S
C499 C500 1.389 . S
C500 C499 1.389 . S
C500 C501 1.387 . S
C501 H486 0.930 . S
C501 C496 1.390 . S
C501 C500 1.387 . S
H502 C514 0.930 . S
H503 C516 0.930 . S
H504 C517 0.930 . S
H505 C521 0.959 . S
H506 C521 0.959 . S
H507 C521 0.961 . S
H508 C522 0.960 . S
H509 C522 0.961 . S
H510 C522 0.959 . S
H511 C525 0.929 . S
H512 C526 0.931 1_554 S
H513 C528 0.930 . S
C514 H502 0.930 . S
C514 C515 1.399 . S
C514 C519 1.399 . S
C515 C514 1.399 . S
C515 C516 1.376 . S
C516 H503 0.930 . S
C516 C515 1.376 . S
C516 C517 1.388 . S
C517 H504 0.930 . S
C517 C516 1.388 . S
C517 C518 1.390 . S
C518 C517 1.390 . S
C518 C519 1.394 . S
C518 C524 1.465 . S
C519 C514 1.399 . S
C519 C518 1.394 . S
C519 C520 1.516 . S
C520 C519 1.516 . S
C520 C521 1.502 . S
C520 C522 1.561 . S
C520 C523 1.526 . S
C521 H505 0.959 . S
C521 H506 0.959 . S
C521 H507 0.961 . S
C521 C520 1.502 . S
C522 H508 0.960 . S
C522 H509 0.961 . S
C522 H510 0.959 . S
C522 C520 1.561 . S
C523 C520 1.526 . S
C523 C524 1.396 . S
C523 C528 1.390 . S
C524 C518 1.465 . S
C524 C523 1.396 . S
C524 C525 1.399 . S
C525 H511 0.929 . S
C525 C524 1.399 . S
C525 C526 1.385 . S
C526 H512 0.931 1_556 S
C526 C525 1.385 . S
C526 C527 1.389 . S
C527 C526 1.389 . S
C527 C528 1.387 . S
C528 H513 0.930 . S
C528 C523 1.390 . S
C528 C527 1.387 . S
H529 C541 0.930 . S
H530 C543 0.930 . S
H531 C544 0.930 . S
H532 C548 0.959 . S
H533 C548 0.959 . S
H534 C548 0.961 . S
H535 C549 0.960 . S
H536 C549 0.961 . S
H537 C549 0.959 . S
H538 C552 0.929 . S
H539 C553 0.931 . S
H540 C555 0.930 . S
C541 H529 0.930 . S
C541 C542 1.399 . S
C541 C546 1.399 . S
C542 C541 1.399 . S
C542 C543 1.376 . S
C543 H530 0.930 . S
C543 C542 1.376 . S
C543 C544 1.388 . S
C544 H531 0.930 . S
C544 C543 1.388 . S
C544 C545 1.390 . S
C545 C544 1.390 . S
C545 C546 1.394 . S
C545 C551 1.465 . S
C546 C541 1.399 . S
C546 C545 1.394 . S
C546 C547 1.516 . S
C547 C546 1.516 . S
C547 C548 1.502 . S
C547 C549 1.561 . S
C547 C550 1.526 . S
C548 H532 0.959 . S
C548 H533 0.959 . S
C548 H534 0.961 . S
C548 C547 1.502 . S
C549 H535 0.960 . S
C549 H536 0.961 . S
C549 H537 0.959 . S
C549 C547 1.561 . S
C550 C547 1.526 . S
C550 C551 1.396 . S
C550 C555 1.390 . S
C551 C545 1.465 . S
C551 C550 1.396 . S
C551 C552 1.399 . S
C552 H538 0.929 . S
C552 C551 1.399 . S
C552 C553 1.385 . S
C553 H539 0.931 . S
C553 C552 1.385 . S
C553 C554 1.389 . S
C554 C553 1.389 . S
C554 C555 1.387 . S
C555 H540 0.930 . S
C555 C550 1.390 . S
C555 C554 1.387 . S
H556 C568 0.930 . S
H557 C570 0.930 . S
H558 C571 0.930 . S
H559 C575 0.959 . S
H560 C575 0.959 1_556 S
H561 C575 0.961 . S
H562 C576 0.960 . S
H563 C576 0.961 . S
H564 C576 0.954 1_554 S
H565 C579 0.929 . S
H566 C580 0.931 . S
H567 C582 0.932 . S
C568 H556 0.930 . S
C568 C569 1.399 . S
C568 C573 1.399 . S
C569 C568 1.399 . S
C569 C570 1.376 . S
C570 H557 0.930 . S
C570 C569 1.376 . S
C570 C571 1.388 . S
C571 H558 0.930 . S
C571 C570 1.388 . S
C571 C572 1.390 . S
C572 C571 1.390 . S
C572 C573 1.394 . S
C572 C578 1.465 . S
C573 C568 1.399 . S
C573 C572 1.394 . S
C573 C574 1.516 . S
C574 C573 1.516 . S
C574 C575 1.502 . S
C574 C576 1.561 1_554 S
C574 C577 1.526 . S
C575 H559 0.959 . S
C575 H560 0.959 1_554 S
C575 H561 0.961 . S
C575 C574 1.502 . S
C576 H562 0.960 . S
C576 H563 0.961 . S
C576 H564 0.954 1_556 S
C576 C574 1.561 1_556 S
C577 C574 1.526 . S
C577 C578 1.396 . S
C577 C582 1.390 . S
C578 C572 1.465 . S
C578 C577 1.396 . S
C578 C579 1.399 . S
C579 H565 0.929 . S
C579 C578 1.399 . S
C579 C580 1.385 . S
C580 H566 0.931 . S
C580 C579 1.385 . S
C580 C581 1.389 . S
C581 C580 1.389 . S
C581 C582 1.387 . S
C582 H567 0.932 . S
C582 C577 1.390 . S
C582 C581 1.387 . S
H583 C595 0.930 . S
H584 C597 0.930 . S
H585 C598 0.930 . S
H586 C602 0.959 . S
H587 C602 0.959 . S
H588 C602 0.961 . S
H589 C603 0.960 . S
H590 C603 0.961 . S
H591 C603 0.959 . S
H592 C606 0.929 1_554 S
H593 C607 0.931 1_554 S
H594 C609 0.930 . S
C595 H583 0.930 . S
C595 C596 1.399 . S
C595 C600 1.399 . S
C596 C595 1.399 . S
C596 C597 1.376 . S
C597 H584 0.930 . S
C597 C596 1.376 . S
C597 C598 1.388 . S
C598 H585 0.930 . S
C598 C597 1.388 . S
C598 C599 1.390 . S
C599 C598 1.390 . S
C599 C600 1.394 . S
C599 C605 1.465 . S
C600 C595 1.399 . S
C600 C599 1.394 . S
C600 C601 1.516 . S
C601 C600 1.516 . S
C601 C602 1.502 . S
C601 C603 1.561 . S
C601 C604 1.526 . S
C602 H586 0.959 . S
C602 H587 0.959 . S
C602 H588 0.961 . S
C602 C601 1.502 . S
C603 H589 0.960 . S
C603 H590 0.961 . S
C603 H591 0.959 . S
C603 C601 1.561 . S
C604 C601 1.526 . S
C604 C605 1.396 . S
C604 C609 1.390 . S
C605 C599 1.465 . S
C605 C604 1.396 . S
C605 C606 1.399 . S
C606 H592 0.929 1_556 S
C606 C605 1.399 . S
C606 C607 1.385 . S
C607 H593 0.931 1_556 S
C607 C606 1.385 . S
C607 C608 1.389 . S
C608 C607 1.389 . S
C608 C609 1.387 . S
C609 H594 0.930 . S
C609 C604 1.390 . S
C609 C608 1.387 . S
H610 C622 0.930 . S
H611 C624 0.930 . S
H612 C625 0.930 . S
H613 C629 0.959 . S
H614 C629 0.959 . S
H615 C629 0.961 . S
H616 C630 0.960 . S
H617 C630 0.961 1_455 S
H618 C630 0.959 . S
H619 C633 0.929 . S
H620 C634 0.931 . S
H621 C636 0.930 1_455 S
C622 H610 0.930 . S
C622 C623 1.399 . S
C622 C627 1.399 . S
C623 C622 1.399 . S
C623 C624 1.376 . S
C624 H611 0.930 . S
C624 C623 1.376 . S
C624 C625 1.388 . S
C625 H612 0.930 . S
C625 C624 1.388 . S
C625 C626 1.390 . S
C626 C625 1.390 . S
C626 C627 1.394 . S
C626 C632 1.465 . S
C627 C622 1.399 . S
C627 C626 1.394 . S
C627 C628 1.516 . S
C628 C627 1.516 . S
C628 C629 1.502 1_655 S
C628 C630 1.561 . S
C628 C631 1.526 . S
C629 H613 0.959 . S
C629 H614 0.959 . S
C629 H615 0.961 . S
C629 C628 1.502 1_455 S
C630 H616 0.960 . S
C630 H617 0.961 1_655 S
C630 H618 0.959 . S
C630 C628 1.561 . S
C631 C628 1.526 . S
C631 C632 1.396 . S
C631 C636 1.390 . S
C632 C626 1.465 . S
C632 C631 1.396 . S
C632 C633 1.399 . S
C633 H619 0.929 . S
C633 C632 1.399 . S
C633 C634 1.385 . S
C634 H620 0.931 . S
C634 C633 1.385 . S
C634 C635 1.389 . S
C635 C634 1.389 . S
C635 C636 1.387 . S
C636 H621 0.930 1_655 S
C636 C631 1.390 . S
C636 C635 1.387 . S
H637 C649 0.930 . S
H638 C651 0.930 . S
H639 C652 0.930 . S
H640 C656 0.959 . S
H641 C656 0.959 . S
H642 C656 0.961 . S
H643 C657 0.960 . S
H644 C657 0.961 . S
H645 C657 0.959 . S
H646 C660 0.929 . S
H647 C661 0.931 . S
H648 C663 0.930 . S
C649 H637 0.930 . S
C649 C650 1.399 . S
C649 C654 1.399 . S
C650 C649 1.399 . S
C650 C651 1.376 . S
C651 H638 0.930 . S
C651 C650 1.376 . S
C651 C652 1.388 . S
C652 H639 0.930 . S
C652 C651 1.388 . S
C652 C653 1.390 . S
C653 C652 1.390 . S
C653 C654 1.394 . S
C653 C659 1.465 . S
C654 C649 1.399 . S
C654 C653 1.394 . S
C654 C655 1.516 . S
C655 C654 1.516 . S
C655 C656 1.502 . S
C655 C657 1.561 . S
C655 C658 1.526 . S
C656 H640 0.959 . S
C656 H641 0.959 . S
C656 H642 0.961 . S
C656 C655 1.502 . S
C657 H643 0.960 . S
C657 H644 0.961 . S
C657 H645 0.959 . S
C657 C655 1.561 . S
C658 C655 1.526 . S
C658 C659 1.396 . S
C658 C663 1.390 . S
C659 C653 1.465 . S
C659 C658 1.396 . S
C659 C660 1.399 . S
C660 H646 0.929 . S
C660 C659 1.399 . S
C660 C661 1.385 . S
C661 H647 0.931 . S
C661 C660 1.385 . S
C661 C662 1.389 . S
C662 C661 1.389 . S
C662 C663 1.387 . S
C663 H648 0.930 . S
C663 C658 1.390 . S
C663 C662 1.387 . S
H664 C676 0.930 . S
H665 C678 0.930 . S
H666 C679 0.930 . S
H667 C683 0.959 1_565 S
H668 C683 0.959 . S
H669 C683 0.961 . S
H670 C684 0.960 . S
H671 C684 0.961 . S
H672 C684 0.959 1_565 S
H673 C687 0.929 . S
H674 C688 0.931 . S
H675 C690 0.930 1_545 S
C676 H664 0.930 . S
C676 C677 1.399 . S
C676 C681 1.399 . S
C677 C676 1.399 . S
C677 C678 1.376 . S
C678 H665 0.930 . S
C678 C677 1.376 . S
C678 C679 1.388 . S
C679 H666 0.930 . S
C679 C678 1.388 . S
C679 C680 1.390 . S
C680 C679 1.390 . S
C680 C681 1.394 . S
C680 C686 1.465 . S
C681 C676 1.399 . S
C681 C680 1.394 . S
C681 C682 1.516 . S
C682 C681 1.516 . S
C682 C683 1.502 1_565 S
C682 C684 1.561 1_565 S
C682 C685 1.526 . S
C683 H667 0.959 1_545 S
C683 H668 0.959 . S
C683 H669 0.961 . S
C683 C682 1.502 1_545 S
C684 H670 0.960 . S
C684 H671 0.961 . S
C684 H672 0.959 1_545 S
C684 C682 1.561 1_545 S
C685 C682 1.526 . S
C685 C686 1.396 . S
C685 C690 1.390 . S
C686 C680 1.465 . S
C686 C685 1.396 . S
C686 C687 1.399 . S
C687 H673 0.929 . S
C687 C686 1.399 . S
C687 C688 1.385 . S
C688 H674 0.931 . S
C688 C687 1.385 . S
C688 C689 1.389 . S
C689 C688 1.389 . S
C689 C690 1.387 . S
C690 H675 0.930 1_565 S
C690 C685 1.390 . S
C690 C689 1.387 . S
H691 C703 0.930 . S
H692 C705 0.930 . S
H693 C706 0.930 . S
H694 C710 0.959 . S
H695 C710 0.959 . S
H696 C710 0.961 . S
H697 C711 0.960 . S
H698 C711 0.961 . S
H699 C711 0.959 . S
H700 C714 0.929 . S
H701 C715 0.931 . S
H702 C717 0.930 . S
C703 H691 0.930 . S
C703 C704 1.399 . S
C703 C708 1.399 . S
C704 C703 1.399 . S
C704 C705 1.376 . S
C705 H692 0.930 . S
C705 C704 1.376 . S
C705 C706 1.388 . S
C706 H693 0.930 . S
C706 C705 1.388 . S
C706 C707 1.390 . S
C707 C706 1.390 . S
C707 C708 1.394 . S
C707 C713 1.465 . S
C708 C703 1.399 . S
C708 C707 1.394 . S
C708 C709 1.516 . S
C709 C708 1.516 . S
C709 C710 1.502 . S
C709 C711 1.561 . S
C709 C712 1.526 . S
C710 H694 0.959 . S
C710 H695 0.959 . S
C710 H696 0.961 . S
C710 C709 1.502 . S
C711 H697 0.960 . S
C711 H698 0.961 . S
C711 H699 0.959 . S
C711 C709 1.561 . S
C712 C709 1.526 . S
C712 C713 1.396 . S
C712 C717 1.390 . S
C713 C707 1.465 . S
C713 C712 1.396 . S
C713 C714 1.399 . S
C714 H700 0.929 . S
C714 C713 1.399 . S
C714 C715 1.385 . S
C715 H701 0.931 . S
C715 C714 1.385 . S
C715 C716 1.389 . S
C716 C715 1.389 . S
C716 C717 1.387 . S
C717 H702 0.930 . S
C717 C712 1.390 . S
C717 C716 1.387 . S
H718 C730 0.930 . S
H719 C732 0.930 . S
H720 C733 0.930 . S
H721 C737 0.959 . S
H722 C737 0.959 . S
H723 C737 0.961 . S
H724 C738 0.960 . S
H725 C738 0.961 . S
H726 C738 0.959 . S
H727 C741 0.929 . S
H728 C742 0.931 . S
H729 C744 0.930 . S
C730 H718 0.930 . S
C730 C731 1.399 . S
C730 C735 1.399 . S
C731 C730 1.399 . S
C731 C732 1.376 . S
C732 H719 0.930 . S
C732 C731 1.376 . S
C732 C733 1.388 . S
C733 H720 0.930 . S
C733 C732 1.388 . S
C733 C734 1.390 . S
C734 C733 1.390 . S
C734 C735 1.394 . S
C734 C740 1.465 . S
C735 C730 1.399 . S
C735 C734 1.394 . S
C735 C736 1.516 . S
C736 C735 1.516 . S
C736 C737 1.502 . S
C736 C738 1.561 . S
C736 C739 1.526 . S
C737 H721 0.959 . S
C737 H722 0.959 . S
C737 H723 0.961 . S
C737 C736 1.502 . S
C738 H724 0.960 . S
C738 H725 0.961 . S
C738 H726 0.959 . S
C738 C736 1.561 . S
C739 C736 1.526 . S
C739 C740 1.396 . S
C739 C744 1.390 . S
C740 C734 1.465 . S
C740 C739 1.396 . S
C740 C741 1.399 . S
C741 H727 0.929 . S
C741 C740 1.399 . S
C741 C742 1.385 . S
C742 H728 0.931 . S
C742 C741 1.385 . S
C742 C743 1.389 . S
C743 C742 1.389 . S
C743 C744 1.387 . S
C744 H729 0.930 . S
C744 C739 1.390 . S
C744 C743 1.387 . S
H745 C757 0.930 . S
H746 C759 0.930 . S
H747 C760 0.930 . S
H748 C764 0.959 . S
H749 C764 0.959 . S
H750 C764 0.961 . S
H751 C765 0.960 . S
H752 C765 0.961 . S
H753 C765 0.959 . S
H754 C768 0.929 . S
H755 C769 0.931 . S
H756 C771 0.930 . S
C757 H745 0.930 . S
C757 C758 1.399 . S
C757 C762 1.399 . S
C758 C757 1.399 . S
C758 C759 1.376 . S
C759 H746 0.930 . S
C759 C758 1.376 . S
C759 C760 1.388 . S
C760 H747 0.930 . S
C760 C759 1.388 . S
C760 C761 1.390 . S
C761 C760 1.390 . S
C761 C762 1.394 . S
C761 C767 1.465 . S
C762 C757 1.399 . S
C762 C761 1.394 . S
C762 C763 1.516 . S
C763 C762 1.516 . S
C763 C764 1.502 . S
C763 C765 1.561 . S
C763 C766 1.526 . S
C764 H748 0.959 . S
C764 H749 0.959 . S
C764 H750 0.961 . S
C764 C763 1.502 . S
C765 H751 0.960 . S
C765 H752 0.961 . S
C765 H753 0.959 . S
C765 C763 1.561 . S
C766 C763 1.526 . S
C766 C767 1.396 . S
C766 C771 1.390 . S
C767 C761 1.465 . S
C767 C766 1.396 . S
C767 C768 1.399 . S
C768 H754 0.929 . S
C768 C767 1.399 . S
C768 C769 1.385 . S
C769 H755 0.931 . S
C769 C768 1.385 . S
C769 C770 1.389 . S
C770 C769 1.389 . S
C770 C771 1.387 . S
C771 H756 0.930 . S
C771 C766 1.390 . S
C771 C770 1.387 . S
H772 C784 0.930 . S
H773 C786 0.930 . S
H774 C787 0.930 . S
H775 C791 0.959 . S
H776 C791 0.959 . S
H777 C791 0.961 . S
H778 C792 0.960 . S
H779 C792 0.961 . S
H780 C792 0.959 . S
H781 C795 0.929 1_545 S
H782 C796 0.956 . S
H783 C798 0.930 . S
C784 H772 0.930 . S
C784 C785 1.399 . S
C784 C789 1.399 . S
C785 C784 1.399 . S
C785 C786 1.376 . S
C786 H773 0.930 . S
C786 C785 1.376 . S
C786 C787 1.388 . S
C787 H774 0.930 . S
C787 C786 1.388 . S
C787 C788 1.390 . S
C788 C787 1.390 . S
C788 C789 1.394 . S
C788 C794 1.465 . S
C789 C784 1.399 . S
C789 C788 1.394 . S
C789 C790 1.516 . S
C790 C789 1.516 . S
C790 C791 1.502 . S
C790 C792 1.561 1_556 S
C790 C793 1.526 . S
C791 H775 0.959 . S
C791 H776 0.959 . S
C791 H777 0.961 . S
C791 C790 1.502 . S
C792 H778 0.960 . S
C792 H779 0.961 . S
C792 H780 0.959 . S
C792 C790 1.561 1_554 S
C793 C790 1.526 . S
C793 C794 1.396 . S
C793 C798 1.390 . S
C794 C788 1.465 . S
C794 C793 1.396 . S
C794 C795 1.399 . S
C795 H781 0.929 1_565 S
C795 C794 1.399 . S
C795 C796 1.380 1_565 S
C796 H782 0.956 . S
C796 C795 1.380 1_545 S
C796 C797 1.370 1_545 S
C797 C796 1.370 1_565 S
C797 C798 1.387 . S
C798 H783 0.930 . S
C798 C793 1.390 . S
C798 C797 1.387 . S
H799 C811 0.930 . S
H800 C813 0.930 . S
H801 C814 0.930 . S
H802 C818 0.959 . S
H803 C818 0.959 . S
H804 C818 0.961 . S
H805 C819 0.960 . S
H806 C819 0.961 . S
H807 C819 0.959 . S
H808 C822 0.929 1_565 S
H809 C823 0.931 1_565 S
H810 C825 0.930 . S
C811 H799 0.930 . S
C811 C812 1.399 . S
C811 C816 1.399 . S
C812 C811 1.399 . S
C812 C813 1.376 . S
C813 H800 0.930 . S
C813 C812 1.376 . S
C813 C814 1.388 . S
C814 H801 0.930 . S
C814 C813 1.388 . S
C814 C815 1.390 . S
C815 C814 1.390 . S
C815 C816 1.394 . S
C815 C821 1.465 . S
C816 C811 1.399 . S
C816 C815 1.394 . S
C816 C817 1.516 . S
C817 C816 1.516 . S
C817 C818 1.502 . S
C817 C819 1.561 . S
C817 C820 1.526 . S
C818 H802 0.959 . S
C818 H803 0.959 . S
C818 H804 0.961 . S
C818 C817 1.502 . S
C819 H805 0.960 . S
C819 H806 0.961 . S
C819 H807 0.959 . S
C819 C817 1.561 . S
C820 C817 1.526 . S
C820 C821 1.396 . S
C820 C825 1.390 . S
C821 C815 1.465 . S
C821 C820 1.396 . S
C821 C822 1.399 . S
C822 H808 0.929 1_545 S
C822 C821 1.399 . S
C822 C823 1.385 . S
C823 H809 0.931 1_545 S
C823 C822 1.385 . S
C823 C824 1.389 . S
C824 C823 1.389 . S
C824 C825 1.387 . S
C825 H810 0.930 . S
C825 C820 1.390 . S
C825 C824 1.387 . S
H826 C838 0.930 . S
H827 C840 0.930 . S
H828 C841 0.930 . S
H829 C845 0.959 . S
H830 C845 0.959 . S
H831 C845 0.961 . S
H832 C846 0.960 . S
H833 C846 0.961 . S
H834 C846 0.959 . S
H835 C849 0.929 . S
H836 C850 0.931 . S
H837 C852 0.930 . S
C838 H826 0.930 . S
C838 C839 1.399 . S
C838 C843 1.399 . S
C839 C838 1.399 . S
C839 C840 1.376 . S
C840 H827 0.930 . S
C840 C839 1.376 . S
C840 C841 1.388 . S
C841 H828 0.930 . S
C841 C840 1.388 . S
C841 C842 1.390 . S
C842 C841 1.390 . S
C842 C843 1.394 . S
C842 C848 1.465 . S
C843 C838 1.399 . S
C843 C842 1.394 . S
C843 C844 1.516 . S
C844 C843 1.516 . S
C844 C845 1.502 . S
C844 C846 1.561 . S
C844 C847 1.526 . S
C845 H829 0.959 . S
C845 H830 0.959 . S
C845 H831 0.961 . S
C845 C844 1.502 . S
C846 H832 0.960 . S
C846 H833 0.961 . S
C846 H834 0.959 . S
C846 C844 1.561 . S
C847 C844 1.526 . S
C847 C848 1.396 . S
C847 C852 1.390 . S
C848 C842 1.465 . S
C848 C847 1.396 . S
C848 C849 1.399 . S
C849 H835 0.929 . S
C849 C848 1.399 . S
C849 C850 1.385 . S
C850 H836 0.931 . S
C850 C849 1.385 . S
C850 C851 1.389 . S
C851 C850 1.389 . S
C851 C852 1.387 . S
C852 H837 0.930 . S
C852 C847 1.390 . S
C852 C851 1.387 . S
H853 C865 0.930 . S
H854 C867 0.930 . S
H855 C868 0.930 . S
H856 C872 0.959 . S
H857 C872 0.959 . S
H858 C872 0.961 . S
H859 C873 0.960 . S
H860 C873 0.961 . S
H861 C873 0.959 . S
H862 C876 0.929 . S
H863 C877 0.931 . S
H864 C879 0.930 . S
C865 H853 0.930 . S
C865 C866 1.399 . S
C865 C870 1.399 . S
C866 C865 1.399 . S
C866 C867 1.376 . S
C867 H854 0.930 . S
C867 C866 1.376 . S
C867 C868 1.388 . S
C868 H855 0.930 . S
C868 C867 1.388 . S
C868 C869 1.390 . S
C869 C868 1.390 . S
C869 C870 1.394 . S
C869 C875 1.465 . S
C870 C865 1.399 . S
C870 C869 1.394 . S
C870 C871 1.516 . S
C871 C870 1.516 . S
C871 C872 1.502 . S
C871 C873 1.561 . S
C871 C874 1.526 . S
C872 H856 0.959 . S
C872 H857 0.959 . S
C872 H858 0.961 . S
C872 C871 1.502 . S
C873 H859 0.960 . S
C873 H860 0.961 . S
C873 H861 0.959 . S
C873 C871 1.561 . S
C874 C871 1.526 . S
C874 C875 1.396 . S
C874 C879 1.390 . S
C875 C869 1.465 . S
C875 C874 1.396 . S
C875 C876 1.399 . S
C876 H862 0.929 . S
C876 C875 1.399 . S
C876 C877 1.385 . S
C877 H863 0.931 . S
C877 C876 1.385 . S
C877 C878 1.389 . S
C878 C877 1.389 . S
C878 C879 1.387 . S
C879 H864 0.930 . S
C879 C874 1.390 . S
C879 C878 1.387 . S
H880 C892 0.930 . S
H881 C894 0.930 . S
H882 C895 0.930 . S
H883 C899 0.959 . S
H884 C899 0.959 . S
H885 C899 0.961 . S
H886 C900 0.960 . S
H887 C900 0.961 . S
H888 C900 0.944 1_556 S
H889 C903 0.929 . S
H890 C904 0.931 . S
H891 C906 0.930 1_554 S
C892 H880 0.930 . S
C892 C893 1.399 . S
C892 C897 1.399 . S
C893 C892 1.399 . S
C893 C894 1.376 . S
C894 H881 0.930 . S
C894 C893 1.376 . S
C894 C895 1.388 . S
C895 H882 0.930 . S
C895 C894 1.388 . S
C895 C896 1.390 . S
C896 C895 1.390 . S
C896 C897 1.394 . S
C896 C902 1.465 . S
C897 C892 1.399 . S
C897 C896 1.394 . S
C897 C898 1.516 . S
C898 C897 1.516 . S
C898 C899 1.502 1_556 S
C898 C900 1.561 1_556 S
C898 C901 1.526 . S
C899 H883 0.959 . S
C899 H884 0.959 . S
C899 H885 0.961 . S
C899 C898 1.502 1_554 S
C900 H886 0.960 . S
C900 H887 0.961 . S
C900 H888 0.944 1_554 S
C900 C898 1.561 1_554 S
C901 C898 1.526 . S
C901 C902 1.396 . S
C901 C906 1.390 . S
C902 C896 1.465 . S
C902 C901 1.396 . S
C902 C903 1.399 . S
C903 H889 0.929 . S
C903 C902 1.399 . S
C903 C904 1.385 . S
C904 H890 0.931 . S
C904 C903 1.385 . S
C904 C905 1.389 . S
C905 C904 1.389 . S
C905 C906 1.387 . S
C906 H891 0.930 1_556 S
C906 C901 1.390 . S
C906 C905 1.387 . S
H907 C919 0.930 . S
H908 C921 0.930 . S
H909 C922 0.930 . S
H910 C926 0.959 . S
H911 C926 0.959 . S
H912 C926 0.961 . S
H913 C927 0.960 . S
H914 C927 0.961 1_556 S
H915 C927 0.959 . S
H916 C930 0.929 . S
H917 C931 0.931 . S
H918 C933 0.930 . S
C919 H907 0.930 . S
C919 C920 1.399 . S
C919 C924 1.399 . S
C920 C919 1.399 . S
C920 C921 1.376 . S
C921 H908 0.930 . S
C921 C920 1.376 . S
C921 C922 1.388 . S
C922 H909 0.930 . S
C922 C921 1.388 . S
C922 C923 1.390 . S
C923 C922 1.390 . S
C923 C924 1.394 . S
C923 C929 1.465 . S
C924 C919 1.399 . S
C924 C923 1.394 . S
C924 C925 1.516 . S
C925 C924 1.516 . S
C925 C926 1.502 . S
C925 C927 1.561 . S
C925 C928 1.526 . S
C926 H910 0.959 . S
C926 H911 0.959 . S
C926 H912 0.961 . S
C926 C925 1.502 . S
C927 H913 0.960 . S
C927 H914 0.961 1_554 S
C927 H915 0.959 . S
C927 C925 1.561 . S
C928 C925 1.526 . S
C928 C929 1.396 . S
C928 C933 1.390 . S
C929 C923 1.465 . S
C929 C928 1.396 . S
C929 C930 1.399 . S
C930 H916 0.929 . S
C930 C929 1.399 . S
C930 C931 1.385 . S
C931 H917 0.931 . S
C931 C930 1.385 . S
C931 C932 1.389 . S
C932 C931 1.389 . S
C932 C933 1.387 . S
C933 H918 0.930 . S
C933 C928 1.390 . S
C933 C932 1.387 . S
H934 C946 0.930 . S
H935 C948 0.930 . S
H936 C949 0.930 . S
H937 C953 0.959 . S
H938 C953 0.959 . S
H939 C953 0.961 . S
H940 C954 0.960 . S
H941 C954 0.961 . S
H942 C954 0.959 . S
H943 C957 0.929 . S
H944 C958 0.931 . S
H945 C960 0.930 . S
C946 H934 0.930 . S
C946 C947 1.399 . S
C946 C951 1.399 . S
C947 C946 1.399 . S
C947 C948 1.376 . S
C948 H935 0.930 . S
C948 C947 1.376 . S
C948 C949 1.388 . S
C949 H936 0.930 . S
C949 C948 1.388 . S
C949 C950 1.390 . S
C950 C949 1.390 . S
C950 C951 1.394 . S
C950 C956 1.465 . S
C951 C946 1.399 . S
C951 C950 1.394 . S
C951 C952 1.516 . S
C952 C951 1.516 . S
C952 C953 1.502 . S
C952 C954 1.561 . S
C952 C955 1.526 . S
C953 H937 0.959 . S
C953 H938 0.959 . S
C953 H939 0.961 . S
C953 C952 1.502 . S
C954 H940 0.960 . S
C954 H941 0.961 . S
C954 H942 0.959 . S
C954 C952 1.561 . S
C955 C952 1.526 . S
C955 C956 1.396 . S
C955 C960 1.390 . S
C956 C950 1.465 . S
C956 C955 1.396 . S
C956 C957 1.399 . S
C957 H943 0.929 . S
C957 C956 1.399 . S
C957 C958 1.385 . S
C958 H944 0.931 . S
C958 C957 1.385 . S
C958 C959 1.389 . S
C959 C958 1.389 . S
C959 C960 1.387 . S
C960 H945 0.930 . S
C960 C955 1.390 . S
C960 C959 1.387 . S
H961 C973 0.930 . S
H962 C975 0.930 . S
H963 C976 0.930 . S
H964 C980 0.959 . S
H965 C980 0.959 . S
H966 C980 0.961 . S
H967 C981 0.960 . S
H968 C981 0.961 . S
H969 C981 0.959 . S
H970 C984 0.929 . S
H971 C985 0.931 . S
H972 C987 0.930 . S
C973 H961 0.930 . S
C973 C974 1.399 . S
C973 C978 1.399 . S
C974 C973 1.399 . S
C974 C975 1.376 . S
C975 H962 0.930 . S
C975 C974 1.376 . S
C975 C976 1.388 . S
C976 H963 0.930 . S
C976 C975 1.388 . S
C976 C977 1.390 . S
C977 C976 1.390 . S
C977 C978 1.394 . S
C977 C983 1.465 . S
C978 C973 1.399 . S
C978 C977 1.394 . S
C978 C979 1.516 . S
C979 C978 1.516 . S
C979 C980 1.502 . S
C979 C981 1.561 . S
C979 C982 1.526 . S
C980 H964 0.959 . S
C980 H965 0.959 . S
C980 H966 0.961 . S
C980 C979 1.502 . S
C981 H967 0.960 . S
C981 H968 0.961 . S
C981 H969 0.959 . S
C981 C979 1.561 . S
C982 C979 1.526 . S
C982 C983 1.396 . S
C982 C987 1.390 . S
C983 C977 1.465 . S
C983 C982 1.396 . S
C983 C984 1.399 . S
C984 H970 0.929 . S
C984 C983 1.399 . S
C984 C985 1.385 . S
C985 H971 0.931 . S
C985 C984 1.385 . S
C985 C986 1.389 . S
C986 C985 1.389 . S
C986 C987 1.387 . S
C987 H972 0.930 . S
C987 C982 1.390 . S
C987 C986 1.387 . S
C353 C29 1.532 . S
C365 C272 1.622 . S
C380 C49 1.442 . S
C392 C294 1.439 . S
C419 C313 1.164 . S
C407 C93 1.422 . S
C434 C119 1.667 . S
C446 C334 1.443 . S
C473 C291 1.730 . S
C461 C17 1.680 . S
C500 C269 1.638 . S
C488 C61 1.733 . S
C527 C336 1.311 . S
C515 C81 1.349 . S
C554 C315 1.415 . S
C542 C125 1.393 . S
C569 C23 1.637 . S
C581 C333 1.606 . S
C608 C292 1.237 . S
C596 C87 1.502 . S
C623 C113 1.563 . S
C635 C274 1.481 . S
C650 C55 1.496 . S
C662 C312 1.454 . S
C689 C270 1.565 . S
C677 C157 1.589 . S
C704 C189 1.256 . S
C716 C290 1.325 . S
C731 C221 1.498 . S
C743 C316 1.285 . S
C758 C253 1.617 . S
C770 C337 1.384 . S
C785 C145 1.749 . S
C797 C293 1.731 . S
C824 C273 1.614 . S
C812 C183 1.682 . S
C851 C332 1.240 . S
C839 C209 1.283 . S
C878 C311 1.460 . S
C866 C247 1.501 . S
C893 C151 1.547 . S
C905 C335 1.467 . S
C932 C295 1.312 . S
C920 C215 1.496 . S
C959 C271 1.401 . S
C947 C241 1.469 . S
C974 C177 1.373 . S
C986 C314 1.410 . S
