# Generated by pormake.
# Topology zzz, (3,6)-cn, num edge types: 1
# Building blocks:
#     Node 0, Type 0, BuildingBlock: BETDAH_clean_linker_0, # of connection points: 3
#     Node 1, Type 0, BuildingBlock: BETDAH_clean_linker_0, # of connection points: 3
#     Node 2, Type 0, BuildingBlock: BETDAH_clean_linker_0, # of connection points: 3
#     Node 3, Type 0, BuildingBlock: BETDAH_clean_linker_0, # of connection points: 3
#     Node 4, Type 0, BuildingBlock: BETDAH_clean_linker_0, # of connection points: 3
#     Node 5, Type 0, BuildingBlock: BETDAH_clean_linker_0, # of connection points: 3
#     Node 6, Type 0, BuildingBlock: BETDAH_clean_linker_0, # of connection points: 3
#     Node 7, Type 0, BuildingBlock: BETDAH_clean_linker_0, # of connection points: 3
#     Node 8, Type 1, BuildingBlock: HISSIN_clean_sbu_0, # of connection points: 6
#     Node 9, Type 1, BuildingBlock: HISSIN_clean_sbu_0, # of connection points: 6
#     Node 10, Type 1, BuildingBlock: HISSIN_clean_sbu_0, # of connection points: 6
#     Node 11, Type 1, BuildingBlock: HISSIN_clean_sbu_0, # of connection points: 6
#     Edge 12, Type (0, 1), BuildingBlock: MIFKUJ_clean_linker_0, # of connection points: 2
#     Edge 13, Type (0, 1), BuildingBlock: MIFKUJ_clean_linker_0, # of connection points: 2
#     Edge 14, Type (0, 1), BuildingBlock: MIFKUJ_clean_linker_0, # of connection points: 2
#     Edge 15, Type (0, 1), BuildingBlock: MIFKUJ_clean_linker_0, # of connection points: 2
#     Edge 16, Type (0, 1), BuildingBlock: MIFKUJ_clean_linker_0, # of connection points: 2
#     Edge 17, Type (0, 1), BuildingBlock: MIFKUJ_clean_linker_0, # of connection points: 2
#     Edge 18, Type (0, 1), BuildingBlock: MIFKUJ_clean_linker_0, # of connection points: 2
#     Edge 19, Type (0, 1), BuildingBlock: MIFKUJ_clean_linker_0, # of connection points: 2
#     Edge 20, Type (0, 1), BuildingBlock: MIFKUJ_clean_linker_0, # of connection points: 2
#     Edge 21, Type (0, 1), BuildingBlock: MIFKUJ_clean_linker_0, # of connection points: 2
#     Edge 22, Type (0, 1), BuildingBlock: MIFKUJ_clean_linker_0, # of connection points: 2
#     Edge 23, Type (0, 1), BuildingBlock: MIFKUJ_clean_linker_0, # of connection points: 2
#     Edge 24, Type (0, 1), BuildingBlock: MIFKUJ_clean_linker_0, # of connection points: 2
#     Edge 25, Type (0, 1), BuildingBlock: MIFKUJ_clean_linker_0, # of connection points: 2
#     Edge 26, Type (0, 1), BuildingBlock: MIFKUJ_clean_linker_0, # of connection points: 2
#     Edge 27, Type (0, 1), BuildingBlock: MIFKUJ_clean_linker_0, # of connection points: 2
#     Edge 28, Type (0, 1), BuildingBlock: MIFKUJ_clean_linker_0, # of connection points: 2
#     Edge 29, Type (0, 1), BuildingBlock: MIFKUJ_clean_linker_0, # of connection points: 2
#     Edge 30, Type (0, 1), BuildingBlock: MIFKUJ_clean_linker_0, # of connection points: 2
#     Edge 31, Type (0, 1), BuildingBlock: MIFKUJ_clean_linker_0, # of connection points: 2
#     Edge 32, Type (0, 1), BuildingBlock: MIFKUJ_clean_linker_0, # of connection points: 2
#     Edge 33, Type (0, 1), BuildingBlock: MIFKUJ_clean_linker_0, # of connection points: 2
#     Edge 34, Type (0, 1), BuildingBlock: MIFKUJ_clean_linker_0, # of connection points: 2
#     Edge 35, Type (0, 1), BuildingBlock: MIFKUJ_clean_linker_0, # of connection points: 2
# Relax obj value: 0.219
# Max RMSD: 0.169
# Mean RMSD: 0.092
data_MOF--net-zzz--node1-HISSIN_clean_sbu_0--node2-BETDAH_clean_linker_0--edge1-MIFKUJ_clean_linker_0
_symmetry_space_group_name_H-M    P1
_symmetry_Int_Tables_number       1
_symmetry_cell_setting            triclinic
loop_
_symmetry_equiv_pos_as_xyz
'x, y, z'
_cell_length_a     65.429653
_cell_length_b     65.486122
_cell_length_c     21.24125
_cell_angle_alpha  90.031489
_cell_angle_beta   92.196202
_cell_angle_gamma 90.434288
loop_
_atom_site_label
_atom_site_type_symbol
_atom_site_fract_x
_atom_site_fract_y
_atom_site_fract_z
_atom_type_partial_charge
H0 H 0.80079 0.54183 0.2403 0.0
H1 H 0.73822 0.54361 0.17457 0.0
H2 H 0.75343 0.54712 0.37425 0.0
C3 C 0.78473 0.54324 0.25053 0.0
C4 C 0.77898 0.54431 0.31318 0.0
C5 C 0.77009 0.5431 0.20091 0.0
C6 C 0.74934 0.54424 0.21356 0.0
C7 C 0.74311 0.54611 0.27608 0.0
C8 C 0.75808 0.54619 0.32594 0.0
N9 N 0.72201 0.54745 0.28988 0.0
C10 C 0.70617 0.54675 0.24387 0.0
H11 H 0.98511 0.80274 0.20204 0.0
H12 H 0.9898 0.74006 0.14748 0.0
H13 H 1.00636 0.75824 0.33797 0.0
C14 C 0.98806 0.78701 0.21494 0.0
C15 C 0.99472 0.78254 0.27713 0.0
C16 C 0.98628 0.77183 0.16815 0.0
C17 C 0.99143 0.75173 0.18347 0.0
C18 C 0.99918 0.74665 0.24385 0.0
C19 C 1.00067 0.76213 0.291 0.0
N20 N 1.00581 0.72624 0.25703 0.0
C21 C 1.00646 0.71071 0.21126 0.0
H22 H 0.71345 0.99545 0.13587 0.0
H23 H 0.77517 0.99973 0.0781 0.0
H24 H 0.76167 0.0118 0.27181 0.0
C25 C 0.72942 0.99832 0.14849 0.0
C26 C 0.73527 1.00403 0.2107 0.0
C27 C 0.7437 0.99713 0.10098 0.0
C28 C 0.76442 1.00063 0.11548 0.0
C29 C 0.77124 1.00564 0.17688 0.0
C30 C 0.75655 0.00735 0.22466 0.0
N31 N 0.79257 0.0096 0.19055 0.0
C32 C 0.80806 0.00901 0.14601 0.0
H33 H 0.5083 0.72918 0.17612 0.0
H34 H 0.51503 0.79131 0.11812 0.0
H35 H 0.52851 0.77478 0.31191 0.0
C36 C 0.51223 0.74484 0.18838 0.0
C37 C 0.51814 0.74989 0.25083 0.0
C38 C 0.51101 0.75975 0.14113 0.0
C39 C 0.51613 0.78001 0.15529 0.0
C40 C 0.52283 0.78558 0.2166 0.0
C41 C 0.52377 0.77044 0.26433 0.0
N42 N 0.52852 0.8062 0.2312 0.0
C43 C 0.52838 0.82212 0.18705 0.0
H44 H 0.22835 0.50997 0.11092 0.0
H45 H 0.29133 0.50999 0.17424 0.0
H46 H 0.2744 0.49062 0.98497 0.0
C47 C 0.2442 0.50668 0.10195 0.0
C48 C 0.24935 0.49951 0.04243 0.0
C49 C 0.25924 0.51054 0.14932 0.0
C50 C 0.27983 0.50704 0.13731 0.0
C51 C 0.28543 0.49966 0.07814 0.0
C52 C 0.27012 0.49619 0.03064 0.0
N53 N 0.30621 0.49557 0.06515 0.0
C54 C 0.32241 0.49716 0.10967 0.0
H55 H 0.05807 0.23533 0.09031 0.0
H56 H 0.04341 0.29438 0.16067 0.0
H57 H 0.02085 0.27575 0.97554 0.0
C58 C 0.05114 0.2501 0.08227 0.0
C59 C 0.03979 0.25358 0.02596 0.0
C60 C 0.05204 0.26454 0.13105 0.0
C61 C 0.04263 0.28345 0.12237 0.0
C62 C 0.03157 0.2879 0.0662 0.0
C63 C 0.02985 0.27269 0.01831 0.0
N64 N 0.02157 0.30716 0.05831 0.0
C65 C 0.02208 0.32279 0.10384 0.0
H66 H 0.31358 0.99624 0.14755 0.0
H67 H 0.25405 1.00595 0.21842 0.0
H68 H 0.27081 0.03475 0.04504 0.0
C69 C 0.29854 1.0029 0.14134 0.0
C70 C 0.29411 0.01521 0.08831 0.0
C71 C 0.28416 0.99929 0.18765 0.0
C72 C 0.26511 0.00887 0.18286 0.0
C73 C 0.26016 0.02195 0.13232 0.0
C74 C 0.27473 0.02502 0.08481 0.0
N75 N 0.24067 0.03189 0.12823 0.0
C76 C 0.22519 0.03011 0.17246 0.0
H77 H 0.53677 0.30962 0.08682 0.0
H78 H 0.52969 0.25003 0.16876 0.0
H79 H 0.49312 0.26734 1.00414 0.0
C80 C 0.52983 0.29451 0.0859 0.0
C81 C 0.51473 0.29012 0.0395 0.0
C82 C 0.53538 0.28016 0.13253 0.0
C83 C 0.52554 0.26102 0.1325 0.0
C84 C 0.51027 0.25618 0.08625 0.0
C85 C 0.50497 0.27085 0.0396 0.0
N86 N 0.49981 0.23696 0.08609 0.0
C87 C 0.50284 0.22155 0.13117 0.0
Eu88 Eu 1.00246 0.0264 0.60696 0.0
Eu89 Eu 0.03153 0.00801 0.71802 0.0
C90 C 0.02347 0.05564 0.71471 0.0
C91 C 0.99193 0.06937 0.50913 0.0
C92 C 0.00961 0.07581 0.54328 0.0
C93 C 0.99204 0.10135 0.4516 0.0
C94 C 0.0186 0.09456 0.53145 0.0
C95 C 0.98297 0.0823 0.46356 0.0
C96 C 0.01014 0.10738 0.48491 0.0
C97 C 0.98389 0.04896 0.52281 0.0
O98 O 0.99976 0.01111 0.75817 0.0
O99 O 0.97907 0.01157 0.66894 0.0
C100 C 0.98138 0.01002 0.73061 0.0
O101 O 1.00262 0.99308 0.57812 0.0
O102 O 0.03946 1.00679 0.8188 0.0
O103 O 0.05561 0.98787 0.75406 0.0
O104 O 0.01907 0.97965 0.66627 0.0
C105 C 0.00969 0.97731 0.61052 0.0
O106 O 0.03503 0.03146 0.57354 0.0
O107 O 0.05426 0.01164 0.64136 0.0
O108 O 0.03808 0.04215 0.72252 0.0
O109 O 0.99595 0.03408 0.50805 0.0
O110 O 0.97746 0.04692 0.57976 0.0
O111 O 1.00655 0.05047 0.68355 0.0
C112 C 0.04484 0.97229 0.84506 0.0
C113 C 0.0239 0.96819 0.8511 0.0
C114 C 0.05232 0.93698 0.87022 0.0
C115 C 0.01718 0.94853 0.86442 0.0
C116 C 0.05906 0.95674 0.85679 0.0
C117 C 0.03127 0.93258 0.87176 0.0
C118 C 0.0511 0.99089 0.81249 0.0
C119 C 0.05247 0.0226 0.58982 0.0
H120 H 0.01674 0.06615 0.57878 0.0
H121 H 0.98532 0.11105 0.41523 0.0
H122 H 0.03237 0.09894 0.55829 0.0
H123 H 0.96929 0.07759 0.43691 0.0
H124 H 0.01256 0.97983 0.84108 0.0
H125 H 0.06352 0.925 0.87683 0.0
H126 H 1.00087 0.9456 0.86477 0.0
H127 H 0.07525 0.95956 0.85148 0.0
Eu128 Eu 0.52466 0.03536 0.69685 0.0
Eu129 Eu 0.50405 1.0029 0.59813 0.0
C130 C 0.51992 0.98809 0.73558 0.0
C131 C 0.56542 0.07013 0.75602 0.0
C132 C 0.57973 0.06983 0.8068 0.0
C133 C 0.59321 0.07202 0.68341 0.0
C134 C 0.60061 0.06922 0.79563 0.0
C135 C 0.57233 0.07262 0.69448 0.0
C136 C 0.60732 0.06881 0.73356 0.0
C137 C 0.54453 0.06254 0.76534 0.0
O138 O 0.47704 0.01586 0.65079 0.0
O139 O 0.49368 0.02955 0.73845 0.0
C140 C 0.47671 0.0233 0.70868 0.0
O141 O 0.50679 0.05356 0.62327 0.0
O142 O 0.5017 0.97176 0.56156 0.0
O143 O 0.48273 0.99565 0.52011 0.0
O144 O 0.50973 0.03157 0.54152 0.0
C145 C 0.5072 0.05019 0.56248 0.0
O146 O 0.54888 0.03057 0.62411 0.0
O147 O 0.53822 1.00007 0.58139 0.0
O148 O 0.50535 0.98669 0.69172 0.0
O149 O 0.53078 0.06727 0.72198 0.0
O150 O 0.54349 0.0433 0.78054 0.0
O151 O 0.53221 1.00408 0.73804 0.0
C152 C 0.46803 0.96299 0.52919 0.0
C153 C 0.45237 0.96878 0.56856 0.0
C154 C 0.44787 0.93348 0.49515 0.0
C155 C 0.43423 0.95752 0.5692 0.0
C156 C 0.46598 0.94495 0.49405 0.0
C157 C 0.43145 0.94006 0.53091 0.0
C158 C 0.48619 0.97605 0.52359 0.0
C159 C 0.55228 0.01448 0.58893 0.0
H160 H 0.57474 0.06784 0.85449 0.0
H161 H 0.5982 0.07203 0.63538 0.0
H162 H 0.61127 0.06665 0.83509 0.0
H163 H 0.56163 0.07294 0.65429 0.0
H164 H 0.45381 0.98252 0.59688 0.0
H165 H 0.44645 0.91992 0.46608 0.0
H166 H 0.42197 0.96332 0.59684 0.0
H167 H 0.47812 0.94007 0.46431 0.0
Eu168 Eu 0.49918 0.53171 0.71423 0.0
Eu169 Eu 0.53441 0.51581 0.62229 0.0
C170 C 0.54561 0.53131 0.76101 0.0
C171 C 0.46022 0.56677 0.7728 0.0
C172 C 0.46369 0.5783 0.71846 0.0
C173 C 0.44498 0.5963 0.82056 0.0
C174 C 0.45888 0.59898 0.71662 0.0
C175 C 0.45008 0.5756 0.82277 0.0
C176 C 0.45032 0.6083 0.76879 0.0
C177 C 0.47063 0.54721 0.78122 0.0
O178 O 0.52853 0.48876 0.6859 0.0
O179 O 0.49757 0.49733 0.72586 0.0
C180 C 0.51216 0.48398 0.71712 0.0
O181 O 0.48529 0.53079 0.61586 0.0
O182 O 0.56644 0.50797 0.6132 0.0
O183 O 0.54571 0.5059 0.53169 0.0
O184 O 0.50427 0.50499 0.5772 0.0
C185 C 0.48766 0.51615 0.57484 0.0
O186 O 0.51257 0.56066 0.67221 0.0
O187 O 0.52684 0.54727 0.5844 0.0
O188 O 0.54966 0.53408 0.70163 0.0
O189 O 0.46698 0.53365 0.73705 0.0
O190 O 0.4901 0.54897 0.796 0.0
O191 O 0.5272 0.52567 0.77621 0.0
C192 C 0.57076 0.48056 0.54394 0.0
C193 C 0.56742 0.46512 0.58829 0.0
C194 C 0.58429 0.45535 0.47332 0.0
C195 C 0.57205 0.44488 0.57473 0.0
C196 C 0.57958 0.47564 0.48692 0.0
C197 C 0.5801 0.43972 0.51652 0.0
C198 C 0.56378 0.50143 0.55552 0.0
C199 C 0.5201 0.563 0.61594 0.0
H200 H 0.4716 0.57171 0.67952 0.0
H201 H 0.43866 0.60331 0.86166 0.0
H202 H 0.46328 0.60803 0.67657 0.0
H203 H 0.44747 0.56693 0.86518 0.0
H204 H 0.56072 0.46864 0.63277 0.0
H205 H 0.59022 0.45179 0.42772 0.0
H206 H 0.5688 0.43318 0.60907 0.0
H207 H 0.5822 0.48737 0.45212 0.0
Eu208 Eu 0.02795 0.5362 0.59692 0.0
Eu209 Eu 0.00947 0.50423 0.69736 0.0
C210 C 0.05842 0.51181 0.69405 0.0
C211 C 0.0656 0.56906 0.51211 0.0
C212 C 0.08125 0.56205 0.55333 0.0
C213 C 0.09092 0.58575 0.44913 0.0
C214 C 0.10168 0.5662 0.54126 0.0
C215 C 0.07047 0.58138 0.46095 0.0
C216 C 0.10681 0.57759 0.48787 0.0
C217 C 0.04457 0.56173 0.51881 0.0
O218 O 1.00225 0.53614 0.73217 0.0
O219 O 0.03012 0.55169 0.69281 0.0
C220 C 0.01549 0.55134 0.73348 0.0
O221 O 0.99382 0.54156 0.58836 0.0
O222 O 1.00296 0.49607 0.79432 0.0
O223 O 0.99366 0.47574 0.71793 0.0
O224 O 0.98311 0.51114 0.62951 0.0
C225 C 0.97936 0.52795 0.59762 0.0
O226 O 0.01924 0.50736 0.54187 0.0
O227 O 0.02328 0.48455 0.62236 0.0
O228 O 0.04278 0.50691 0.72822 0.0
O229 O 0.04181 0.54235 0.50726 0.0
O230 O 0.03553 0.56746 0.56942 0.0
O231 O 0.05589 0.5202 0.6381 0.0
C232 C 0.97069 0.48046 0.79948 0.0
C233 C 0.95413 0.48495 0.7578 0.0
C234 C 0.94776 0.48096 0.88652 0.0
C235 C 0.93459 0.48761 0.78035 0.0
C236 C 0.96731 0.47816 0.86382 0.0
C237 C 0.93129 0.48607 0.8451 0.0
C238 C 0.99169 0.48038 0.7771 0.0
C239 C 0.02181 0.48846 0.56165 0.0
H240 H 0.07768 0.55258 0.59323 0.0
H241 H 0.0943 0.5949 0.40833 0.0
H242 H 0.11342 0.55946 0.57178 0.0
H243 H 0.05853 0.58697 0.42882 0.0
H244 H 0.95638 0.48708 0.708 0.0
H245 H 0.94559 0.47951 0.93662 0.0
H246 H 0.92227 0.49176 0.74742 0.0
H247 H 0.97991 0.47484 0.89673 0.0
H248 H 0.18623 0.04251 0.14802 0.0
H249 H 0.15738 0.04167 0.21856 0.0
H250 H 0.19638 0.01541 0.36492 0.0
H251 H 0.22519 0.01601 0.29369 0.0
H252 H 0.16039 0.99669 0.36416 0.0
H253 H 0.18075 0.06724 0.3648 0.0
H254 H 0.18889 0.10067 0.31819 0.0
H255 H 0.12815 0.10396 0.23499 0.0
H256 H 0.11973 0.07041 0.28043 0.0
H257 H 0.09213 0.00997 0.61358 0.0
H258 H 0.1212 0.01186 0.545 0.0
H259 H 0.08331 0.04104 0.40156 0.0
H260 H 0.05425 0.03978 0.47105 0.0
H261 H 0.11889 0.05831 0.4009 0.0
H262 H 0.09841 0.98791 0.39793 0.0
H263 H 0.08987 0.95441 0.44344 0.0
H264 H 0.15028 0.95058 0.5288 0.0
H265 H 0.15909 0.98419 0.48447 0.0
C266 C 0.18864 0.03656 0.19529 0.0
C267 C 0.20802 0.02937 0.21523 0.0
C268 C 0.17211 0.03619 0.23596 0.0
C269 C 0.17449 0.02875 0.29811 0.0
C270 C 0.19391 0.02129 0.31763 0.0
C271 C 0.21046 0.02168 0.27685 0.0
C272 C 0.1568 0.02857 0.34221 0.0
C273 C 0.15155 0.01029 0.37275 0.0
C274 C 0.14464 0.04605 0.35287 0.0
C275 C 0.14968 0.06621 0.3255 0.0
C276 C 0.16918 0.07502 0.33616 0.0
C277 C 0.17384 0.094 0.31002 0.0
C278 C 0.15907 0.10441 0.27351 0.0
C279 C 0.13959 0.09587 0.2632 0.0
C280 C 0.13486 0.07688 0.28917 0.0
C281 C 0.0899 0.01687 0.56754 0.0
C282 C 0.07059 0.02462 0.54824 0.0
C283 C 0.10664 0.0178 0.52781 0.0
C284 C 0.10466 0.02618 0.46676 0.0
C285 C 0.0855 0.03438 0.44795 0.0
C286 C 0.06876 0.03362 0.48796 0.0
C287 C 0.12244 0.02642 0.42289 0.0
C288 C 0.12772 0.0447 0.39235 0.0
C289 C 0.13456 0.00891 0.41195 0.0
C290 C 0.12934 0.98866 0.43838 0.0
C291 C 0.10983 0.97998 0.42675 0.0
C292 C 0.10494 0.96097 0.45229 0.0
C293 C 0.11951 0.9504 0.48912 0.0
C294 C 0.139 0.9588 0.50034 0.0
C295 C 0.14396 0.97782 0.47497 0.0
H296 H 0.1157 0.93569 0.50887 0.0
H297 H 0.1627 0.1191 0.25333 0.0
H298 H 0.50306 0.18145 0.10205 0.0
H299 H 0.50423 0.15243 0.17513 0.0
H300 H 0.50714 0.19415 0.33257 0.0
H301 H 0.50629 0.22321 0.25901 0.0
H302 H 0.53252 0.16298 0.35529 0.0
H303 H 0.46227 0.16887 0.28651 0.0
H304 H 0.4331 0.17114 0.20986 0.0
H305 H 0.44775 0.11229 0.13541 0.0
H306 H 0.47719 0.10979 0.21109 0.0
H307 H 0.50556 0.09109 0.59016 0.0
H308 H 0.50508 0.11994 0.51711 0.0
H309 H 0.50557 0.0783 0.35994 0.0
H310 H 0.50593 0.04929 0.43281 0.0
H311 H 0.47865 0.10934 0.33754 0.0
H312 H 0.54845 0.10316 0.41104 0.0
H313 H 0.57633 0.10073 0.4921 0.0
H314 H 0.56196 0.16044 0.56026 0.0
H315 H 0.53361 0.16303 0.48075 0.0
C316 C 0.50407 0.18437 0.15229 0.0
C317 C 0.50456 0.2045 0.17503 0.0
C318 C 0.50462 0.16778 0.19413 0.0
C319 C 0.50547 0.17095 0.25977 0.0
C320 C 0.50644 0.19119 0.28236 0.0
C321 C 0.50592 0.2078 0.24038 0.0
C322 C 0.50504 0.15321 0.30453 0.0
C323 C 0.52058 0.15141 0.35181 0.0
C324 C 0.48972 0.13776 0.29971 0.0
C325 C 0.47206 0.13924 0.25403 0.0
C326 C 0.45937 0.15649 0.25344 0.0
C327 C 0.44277 0.1578 0.21023 0.0
C328 C 0.43861 0.14189 0.16768 0.0
C329 C 0.45102 0.12461 0.16834 0.0
C330 C 0.46765 0.12323 0.2114 0.0
C331 C 0.50544 0.08799 0.54006 0.0
C332 C 0.5058 0.06775 0.5176 0.0
C333 C 0.50528 0.10458 0.49823 0.0
C334 C 0.50553 0.10141 0.43278 0.0
C335 C 0.50541 0.08122 0.41012 0.0
C336 C 0.50565 0.0646 0.45197 0.0
C337 C 0.50611 0.11912 0.38814 0.0
C338 C 0.49061 0.1209 0.34091 0.0
C339 C 0.52142 0.13456 0.39322 0.0
C340 C 0.53875 0.13321 0.44024 0.0
C341 C 0.55112 0.11572 0.44358 0.0
C342 C 0.56702 0.11431 0.48924 0.0
C343 C 0.57091 0.13041 0.53127 0.0
C344 C 0.55892 0.14797 0.52769 0.0
C345 C 0.54292 0.14941 0.48237 0.0
H346 H 0.58322 0.12929 0.56657 0.0
H347 H 0.42574 0.14293 0.13429 0.0
H348 H 0.35713 0.4752 0.10958 0.0
H349 H 0.38634 0.47745 0.1855 0.0
H350 H 0.35525 0.52417 0.28764 0.0
H351 H 0.32628 0.52217 0.21086 0.0
H352 H 0.39415 0.53452 0.27592 0.0
H353 H 0.35867 0.4739 0.34069 0.0
H354 H 0.34295 0.43978 0.32667 0.0
H355 H 0.40069 0.41544 0.27465 0.0
H356 H 0.4167 0.4495 0.28758 0.0
H357 H 0.4507 0.53503 0.56336 0.0
H358 H 0.42404 0.53063 0.48144 0.0
H359 H 0.46058 0.48568 0.39017 0.0
H360 H 0.48747 0.48977 0.47332 0.0
H361 H 0.4208 0.4738 0.39103 0.0
H362 H 0.45667 0.53428 0.332 0.0
H363 H 0.47233 0.56833 0.34842 0.0
H364 H 0.41378 0.593 0.39042 0.0
H365 H 0.39781 0.55901 0.37518 0.0
C366 C 0.35661 0.48591 0.14839 0.0
C367 C 0.33954 0.49845 0.15485 0.0
C368 C 0.37323 0.48713 0.1919 0.0
C369 C 0.37296 0.50081 0.24297 0.0
C370 C 0.35586 0.51348 0.24885 0.0
C371 C 0.33928 0.51228 0.2052 0.0
C372 C 0.39055 0.50215 0.28983 0.0
C373 C 0.3998 0.52127 0.30155 0.0
C374 C 0.39841 0.48478 0.32213 0.0
C375 C 0.38882 0.4643 0.31444 0.0
C376 C 0.36798 0.46131 0.32577 0.0
C377 C 0.35902 0.44197 0.31812 0.0
C378 C 0.3708 0.42546 0.29961 0.0
C379 C 0.39157 0.42825 0.28889 0.0
C380 C 0.4006 0.44756 0.29641 0.0
C381 C 0.45319 0.52418 0.52598 0.0
C382 C 0.47138 0.51286 0.52486 0.0
C383 C 0.43788 0.52174 0.47887 0.0
C384 C 0.44039 0.5081 0.42882 0.0
C385 C 0.45832 0.4964 0.42809 0.0
C386 C 0.4737 0.49878 0.47559 0.0
C387 C 0.42419 0.50622 0.37766 0.0
C388 C 0.41522 0.48702 0.36506 0.0
C389 C 0.41656 0.52351 0.34452 0.0
C390 C 0.42607 0.54405 0.35289 0.0
C391 C 0.44715 0.54693 0.34511 0.0
C392 C 0.45608 0.56623 0.35417 0.0
C393 C 0.44406 0.58281 0.37057 0.0
C394 C 0.42307 0.58014 0.37775 0.0
C395 C 0.41407 0.56086 0.36884 0.0
H396 H 0.45101 0.59773 0.37761 0.0
H397 H 0.36384 0.4105 0.29371 0.0
H398 H 0.02286 0.31926 0.23147 0.0
H399 H 0.02325 0.34696 0.30961 0.0
H400 H 0.02203 0.39136 0.15955 0.0
H401 H 0.02202 0.36359 0.08163 0.0
H402 H 0.04795 0.40395 0.24916 0.0
H403 H 0.97878 0.37914 0.24736 0.0
H404 H 0.95129 0.3534 0.25518 0.0
H405 H 0.97168 0.33975 0.44496 0.0
H406 H 0.99947 0.36524 0.43799 0.0
H407 H 0.02093 0.49061 0.43197 0.0
H408 H 0.02136 0.46256 0.35586 0.0
H409 H 0.02455 0.41909 0.50812 0.0
H410 H 0.02395 0.44708 0.58456 0.0
H411 H 0.9979 0.40586 0.41853 0.0
H412 H 0.0668 0.43102 0.42062 0.0
H413 H 0.09412 0.45694 0.4129 0.0
H414 H 0.07408 0.47005 0.22243 0.0
H415 H 0.04645 0.44439 0.22931 0.0
C416 C 0.02268 0.33495 0.2153 0.0
C417 C 0.02236 0.33928 0.1505 0.0
C418 C 0.02279 0.35084 0.26003 0.0
C419 C 0.02239 0.37148 0.24103 0.0
C420 C 0.02232 0.3757 0.17597 0.0
C421 C 0.02224 0.35981 0.1313 0.0
C422 C 0.02219 0.38861 0.28861 0.0
C423 C 0.03679 0.40444 0.28558 0.0
C424 C 1.00802 0.38927 0.33758 0.0
C425 C 0.99133 0.37394 0.34191 0.0
C426 C 0.9775 0.37053 0.29059 0.0
C427 C 0.96185 0.35601 0.2949 0.0
C428 C 0.95978 0.3449 0.35047 0.0
C429 C 0.97332 0.34834 0.40191 0.0
C430 C 0.98902 0.36283 0.39782 0.0
C431 C 0.02179 0.47511 0.44949 0.0
C432 C 0.02249 0.47127 0.51484 0.0
C433 C 0.02212 0.45899 0.40567 0.0
C434 C 0.02321 0.43851 0.42573 0.0
C435 C 0.02373 0.43464 0.49096 0.0
C436 C 0.02347 0.45075 0.53483 0.0
C437 C 0.02361 0.4212 0.37891 0.0
C438 C 0.00905 0.40534 0.3821 0.0
C439 C 0.0378 0.42052 0.33006 0.0
C440 C 0.05442 0.43593 0.32571 0.0
C441 C 0.06811 0.43954 0.37726 0.0
C442 C 0.08367 0.45417 0.373 0.0
C443 C 0.0858 0.46517 0.31727 0.0
C444 C 0.0724 0.46153 0.26561 0.0
C445 C 0.05679 0.44694 0.26964 0.0
H446 H 0.09786 0.47649 0.31407 0.0
H447 H 0.94764 0.33367 0.35372 0.0
H448 H 0.80593 0.01155 0.01742 0.0
H449 H 0.83442 0.01139 0.94524 0.0
H450 H 0.87719 1.00562 0.10368 0.0
H451 H 0.84868 1.00603 0.17567 0.0
H452 H 0.89211 0.0321 0.02419 0.0
H453 H 0.86353 0.96458 0.99973 0.0
H454 H 0.83622 0.93913 0.97742 0.0
H455 H 0.8264 0.96381 0.79156 0.0
H456 H 0.85348 0.98958 0.81307 0.0
H457 H 0.98048 1.0056 0.85943 0.0
H458 H 0.95096 1.00498 0.92636 0.0
H459 H 0.91056 0.01065 0.76238 0.0
H460 H 0.94017 0.01096 0.69473 0.0
H461 H 0.89384 0.98487 0.84195 0.0
H462 H 0.9224 0.05188 0.86437 0.0
H463 H 0.94943 0.0777 0.88538 0.0
H464 H 0.9588 0.05476 0.07352 0.0
H465 H 0.93202 0.02859 0.05334 0.0
C466 C 0.82141 0.01016 0.03678 0.0
C467 C 0.82501 0.00869 0.10234 0.0
C468 C 0.83778 0.00998 0.99534 0.0
C469 C 0.85824 0.00822 0.01826 0.0
C470 C 0.86173 1.00696 0.08409 0.0
C471 C 0.84537 1.00713 0.12543 0.0
C472 C 0.87597 0.00793 0.97424 0.0
C473 C 0.89253 0.02153 0.98493 0.0
C474 C 0.87661 0.99465 0.92136 0.0
C475 C 0.86039 0.97913 0.90825 0.0
C476 C 0.85544 0.96467 0.95427 0.0
C477 C 0.84002 0.95017 0.94174 0.0
C478 C 0.82954 0.94989 0.88317 0.0
C479 C 0.83451 0.96407 0.83694 0.0
C480 C 0.8499 0.97861 0.84926 0.0
C481 C 0.96535 1.00664 0.8372 0.0
C482 C 0.96294 0.00843 0.77112 0.0
C483 C 0.94835 1.00641 0.87591 0.0
C484 C 0.92826 0.00816 0.85021 0.0
C485 C 0.92575 0.00937 0.78406 0.0
C486 C 0.9428 0.00957 0.74517 0.0
C487 C 0.91005 0.0089 0.89231 0.0
C488 C 0.89341 0.99543 0.88121 0.0
C489 C 0.90928 0.02237 0.94469 0.0
C490 C 0.92533 0.03814 0.95713 0.0
C491 C 0.93032 0.05224 0.91008 0.0
C492 C 0.94559 0.06696 0.92186 0.0
C493 C 0.95586 0.06784 0.98069 0.0
C494 C 0.95085 0.05404 0.02794 0.0
C495 C 0.93562 0.03927 0.01637 0.0
H496 H 0.96767 0.07925 0.98972 0.0
H497 H 0.81761 0.93865 0.87357 0.0
H498 H 0.55596 0.85303 0.18097 0.0
H499 H 0.55588 0.88137 0.10521 0.0
H500 H 0.50044 0.85738 0.01579 0.0
H501 H 0.50076 0.82889 0.09114 0.0
H502 H 0.52592 0.86924 0.9286 0.0
H503 H 0.50091 0.8999 0.11616 0.0
H504 H 0.50185 0.90945 0.22856 0.0
H505 H 0.55765 0.94305 0.20506 0.0
H506 H 0.55718 0.93348 0.09263 0.0
H507 H 0.49475 0.95496 0.74928 0.0
H508 H 0.49757 0.92747 0.82612 0.0
H509 H 0.55253 0.95505 0.90731 0.0
H510 H 0.54953 0.9831 0.83078 0.0
H511 H 0.52922 0.9415 0.99865 0.0
H512 H 0.55371 0.91188 0.81043 0.0
H513 H 0.55272 0.90256 0.69785 0.0
H514 H 0.4982 0.86701 0.72244 0.0
H515 H 0.4987 0.87634 0.83504 0.0
C516 C 0.54378 0.85387 0.14507 0.0
C517 C 0.52834 0.83887 0.14186 0.0
C518 C 0.54366 0.87013 0.10193 0.0
C519 C 0.528 0.87181 0.05488 0.0
C520 C 0.51269 0.85657 0.05145 0.0
C521 C 0.51283 0.8403 0.09461 0.0
C522 C 0.52761 0.88928 0.00902 0.0
C523 C 0.52638 0.88503 0.9441 0.0
C524 C 0.52882 0.91 0.02861 0.0
C525 C 0.52912 0.91579 0.09614 0.0
C526 C 0.51347 0.90919 0.13507 0.0
C527 C 0.5139 0.91463 0.19876 0.0
C528 C 0.52983 0.9268 0.22397 0.0
C529 C 0.54534 0.9336 0.18549 0.0
C530 C 0.54499 0.92818 0.12177 0.0
C531 C 0.50752 0.95526 0.78323 0.0
C532 C 0.522 0.97131 0.78322 0.0
C533 C 0.50916 0.93937 0.82723 0.0
C534 C 0.52548 0.93882 0.87221 0.0
C535 C 0.53983 0.95498 0.87307 0.0
C536 C 0.53814 0.97101 0.82907 0.0
C537 C 0.52733 0.92146 0.91826 0.0
C538 C 0.52884 0.92572 0.98316 0.0
C539 C 0.52642 0.90073 0.89868 0.0
C540 C 0.52616 0.89495 0.83108 0.0
C541 C 0.54143 0.90218 0.79175 0.0
C542 C 0.54097 0.89689 0.72794 0.0
C543 C 0.52538 0.88424 0.70298 0.0
C544 C 0.51025 0.87682 0.74183 0.0
C545 C 0.51063 0.88209 0.80567 0.0
H546 H 0.52505 0.88016 0.65357 0.0
H547 H 0.53014 0.931 0.27329 0.0
H548 H 0.70804 0.55896 0.12261 0.0
H549 H 0.68079 0.55668 0.04035 0.0
H550 H 0.6402 0.53057 0.17468 0.0
H551 H 0.66776 0.53233 0.25649 0.0
H552 H 0.63619 0.51049 0.06761 0.0
H553 H 0.63659 0.58141 0.12417 0.0
H554 H 0.65175 0.61556 0.1432 0.0
H555 H 0.66918 0.61867 0.95059 0.0
H556 H 0.65436 0.58442 0.9306 0.0
H557 H 0.54349 0.52352 0.88735 0.0
H558 H 0.57077 0.52666 0.96875 0.0
H559 H 0.61223 0.54807 0.82986 0.0
H560 H 0.58498 0.54505 0.74802 0.0
H561 H 0.61578 0.57057 0.93833 0.0
H562 H 0.61491 0.49962 0.88215 0.0
H563 H 0.59915 0.46573 0.86337 0.0
H564 H 0.58206 0.46293 0.05635 0.0
H565 H 0.59745 0.49696 0.07606 0.0
C566 C 0.6933 0.55271 0.13438 0.0
C567 C 0.6899 0.54581 0.19562 0.0
C568 C 0.67767 0.55153 0.08749 0.0
C569 C 0.65826 0.54369 0.10125 0.0
C570 C 0.65498 0.5367 0.16271 0.0
C571 C 0.67067 0.53777 0.20949 0.0
C572 C 0.64148 0.54255 0.05153 0.0
C573 C 0.63155 0.52372 0.04004 0.0
C574 C 0.63565 0.55965 0.01423 0.0
C575 C 0.64454 0.58026 0.02607 0.0
C576 C 0.64379 0.58931 0.086 0.0
C577 C 0.6523 0.6087 0.09693 0.0
C578 C 0.66147 0.61925 0.04818 0.0
C579 C 0.6621 0.61047 0.98833 0.0
C580 C 0.65363 0.59108 0.97716 0.0
C581 C 0.55837 0.52898 0.874 0.0
C582 C 0.56201 0.53398 0.81094 0.0
C583 C 0.57401 0.53068 0.92066 0.0
C584 C 0.59366 0.53739 0.90543 0.0
C585 C 0.59723 0.54282 0.8428 0.0
C586 C 0.58162 0.54104 0.796 0.0
C587 C 0.61049 0.53857 0.95475 0.0
C588 C 0.62043 0.55737 0.96604 0.0
C589 C 0.61629 0.52148 0.992 0.0
C590 C 0.60716 0.50094 0.98041 0.0
C591 C 0.60765 0.49185 0.92046 0.0
C592 C 0.59881 0.4726 0.90967 0.0
C593 C 0.58956 0.46221 0.95859 0.0
C594 C 0.5892 0.47101 0.01847 0.0
C595 C 0.59799 0.49028 0.0295 0.0
H596 H 0.58272 0.44731 0.95014 0.0
H597 H 0.66805 0.63426 0.05674 0.0
H598 H 0.03691 0.70369 0.13078 0.0
H599 H 0.0382 0.67701 0.04967 0.0
H600 H 0.9787 0.65519 0.10064 0.0
H601 H 0.97765 0.68173 0.18245 0.0
H602 H 1.00255 0.62353 0.0821 0.0
H603 H 0.98675 0.68414 0.9643 0.0
H604 H 0.9918 0.71973 0.9299 0.0
H605 H 0.05015 0.70412 0.85829 0.0
H606 H 0.04562 0.66851 0.89327 0.0
H607 H 0.98491 0.55826 0.81654 0.0
H608 H 0.98281 0.58537 0.89525 0.0
H609 H 0.041 0.6094 0.84015 0.0
H610 H 0.04283 0.58268 0.75995 0.0
H611 H 0.01746 0.64011 0.86071 0.0
H612 H 0.03381 0.57988 0.98101 0.0
H613 H 0.02913 0.54438 0.01679 0.0
H614 H 0.97003 0.55935 0.08409 0.0
H615 H 0.97425 0.59489 0.04801 0.0
C616 C 0.02413 0.69318 0.12457 0.0
C617 C 1.00718 0.69479 0.16288 0.0
C618 C 0.0248 0.67795 0.07786 0.0
C619 C 1.00843 0.66403 0.06786 0.0
C620 C 0.99156 0.66561 0.10687 0.0
C621 C 0.99092 0.68084 0.15361 0.0
C622 C 0.00894 0.64781 0.01733 0.0
C623 C 1.00553 0.62726 0.03354 0.0
C624 C 0.01328 0.65234 0.95381 0.0
C625 C 0.01592 0.67369 0.93196 0.0
C626 C 1.00072 0.68832 0.9416 0.0
C627 C 1.00348 0.7085 0.92197 0.0
C628 C 0.0213 0.71419 0.89206 0.0
C629 C 0.03637 0.6997 0.88155 0.0
C630 C 0.03371 0.67951 0.90125 0.0
C631 C 0.99729 0.56929 0.82104 0.0
C632 C 0.0141 0.56808 0.78166 0.0
C633 C 0.99614 0.58482 0.86662 0.0
C634 C 0.01192 0.59947 0.87518 0.0
C635 C 0.02857 0.59842 0.83519 0.0
C636 C 0.02964 0.58301 0.7892 0.0
C637 C 0.01112 0.61578 0.92547 0.0
C638 C 0.01447 0.63637 0.90923 0.0
C639 C 1.00676 0.61129 0.98904 0.0
C640 C 1.00427 0.58999 0.01128 0.0
C641 C 0.01977 0.57556 1.00311 0.0
C642 C 0.0172 0.55544 0.02349 0.0
C643 C 0.99927 0.5496 0.05255 0.0
C644 C 0.9839 0.56389 0.0615 0.0
C645 C 0.98638 0.58403 0.04116 0.0
H646 H 0.99731 0.53401 0.06825 0.0
H647 H 0.02341 0.72982 0.87692 0.0
H648 H 0.08838 0.2465 0.16592 0.0
H649 H 0.09381 0.22492 0.25911 0.0
H650 H 0.03629 0.24503 0.32938 0.0
H651 H 0.03129 0.26707 0.23829 0.0
H652 H 0.05929 0.23135 0.42443 0.0
H653 H 0.03706 0.20679 0.21554 0.0
H654 H 0.04073 0.20136 0.1016 0.0
H655 H 0.09698 0.16946 0.13888 0.0
H656 H 0.09368 0.17483 0.25321 0.0
H657 H 0.99462 0.1459 0.47408 0.0
H658 H 0.01312 0.17708 0.44533 0.0
H659 H 0.06881 0.14264 0.43374 0.0
H660 H 0.05041 0.11152 0.46174 0.0
H661 H 0.05707 0.16277 0.32481 0.0
H662 H 0.0696 0.18014 0.54294 0.0
H663 H 0.06087 0.18584 0.65362 0.0
H664 H 0.01623 0.23024 0.59483 0.0
H665 H 0.02494 0.22517 0.48395 0.0
C666 C 0.07746 0.24703 0.20295 0.0
C667 C 0.05921 0.25801 0.19452 0.0
C668 C 0.08054 0.23471 0.25605 0.0
C669 C 0.06507 0.23282 0.29981 0.0
C670 C 0.04834 0.2461 0.29593 0.0
C671 C 0.04547 0.2587 0.24362 0.0
C672 C 0.06349 0.21429 0.33915 0.0
C673 C 0.05905 0.2163 0.40303 0.0
C674 C 0.06319 0.19463 0.31118 0.0
C675 C 0.06529 0.19145 0.24265 0.0
C676 C 0.05026 0.1987 0.19935 0.0
C677 C 0.05224 0.19558 0.13478 0.0
C678 C 0.0691 0.18513 0.11298 0.0
C679 C 0.08396 0.17763 0.15581 0.0
C680 C 0.08205 0.18069 0.2205 0.0
C681 C 0.01082 0.1451 0.46579 0.0
C682 C 0.02109 0.1264 0.46955 0.0
C683 C 0.02144 0.1629 0.45054 0.0
C684 C 0.04239 0.16214 0.43854 0.0
C685 C 0.05272 0.14354 0.44377 0.0
C686 C 0.04217 0.12581 0.45927 0.0
C687 C 0.05243 0.17985 0.4097 0.0
C688 C 0.05825 0.17765 0.34734 0.0
C689 C 0.05332 0.19927 0.43863 0.0
C690 C 0.04786 0.2022 0.50513 0.0
C691 C 0.05784 0.19103 0.55359 0.0
C692 C 0.05293 0.19418 0.61635 0.0
C693 C 0.03789 0.20822 0.63118 0.0
C694 C 0.02785 0.21933 0.58329 0.0
C695 C 0.03287 0.21644 0.52052 0.0
H696 H 0.03408 0.21055 0.67979 0.0
H697 H 0.07061 0.18279 0.06292 0.0
H698 H 0.30419 0.96296 0.18427 0.0
H699 H 0.31761 0.94318 0.27285 0.0
H700 H 0.28849 0.98376 0.40167 0.0
H701 H 0.27601 1.00448 0.31263 0.0
H702 H 0.32566 0.98102 0.43547 0.0
H703 H 0.27637 0.93048 0.39465 0.0
H704 H 0.25333 0.90714 0.33418 0.0
H705 H 0.30505 0.87507 0.26612 0.0
H706 H 0.32844 0.89839 0.32527 0.0
H707 H 0.40139 0.93504 0.61699 0.0
H708 H 0.36473 0.93312 0.59102 0.0
H709 H 0.37754 0.92236 0.39634 0.0
H710 H 0.41386 0.92518 0.421 0.0
H711 H 0.33771 0.9063 0.43616 0.0
H712 H 0.38159 0.96978 0.43932 0.0
H713 H 0.4053 0.99276 0.49912 0.0
H714 H 0.36122 0.9996 0.64212 0.0
H715 H 0.33747 0.9762 0.58383 0.0
C716 C 0.3005 0.96763 0.23141 0.0
C717 C 0.2894 0.98554 0.24141 0.0
C718 C 0.30783 0.95601 0.2822 0.0
C719 C 0.30388 0.96176 0.34427 0.0
C720 C 0.29166 0.97893 0.35427 0.0
C721 C 0.28449 0.99074 0.30329 0.0
C722 C 0.31549 0.95192 0.39739 0.0
C723 C 0.32757 0.96459 0.43736 0.0
C724 C 0.31813 0.93046 0.40044 0.0
C725 C 0.30419 0.91623 0.36464 0.0
C726 C 0.28286 0.91852 0.36656 0.0
C727 C 0.26973 0.90528 0.3325 0.0
C728 C 0.27772 0.88963 0.29637 0.0
C729 C 0.29888 0.88718 0.29426 0.0
C730 C 0.31209 0.90038 0.32822 0.0
C731 C 0.39642 0.93165 0.56904 0.0
C732 C 0.4106 0.93111 0.52085 0.0
C733 C 0.37545 0.93025 0.55448 0.0
C734 C 0.36849 0.92801 0.4916 0.0
C735 C 0.38263 0.92411 0.44522 0.0
C736 C 0.40354 0.92578 0.45957 0.0
C737 C 0.34814 0.93555 0.47066 0.0
C738 C 0.33469 0.92255 0.43662 0.0
C739 C 0.34394 0.95668 0.47352 0.0
C740 C 0.35788 0.97118 0.5076 0.0
C741 C 0.37702 0.97615 0.48364 0.0
C742 C 0.39047 0.98918 0.51733 0.0
C743 C 0.38482 0.99753 0.5746 0.0
C744 C 0.36564 0.99297 0.59806 0.0
C745 C 0.35219 0.97982 0.56477 0.0
H746 H 0.39526 0.0076 0.60064 0.0
H747 H 0.26753 0.8794 0.27001 0.0
H748 H 0.53197 0.27357 0.25891 0.0
H749 H 0.549 0.29353 0.34298 0.0
H750 H 0.58761 0.32191 0.20781 0.0
H751 H 0.57124 0.30147 0.12374 0.0
H752 H 0.59362 0.3108 0.38674 0.0
H753 H 0.56756 0.37156 0.21328 0.0
H754 H 0.54464 0.37607 0.11949 0.0
H755 H 0.50388 0.33021 0.18816 0.0
H756 H 0.52607 0.3262 0.28382 0.0
H757 H 0.61155 0.42124 0.45696 0.0
H758 H 0.61115 0.38687 0.41039 0.0
H759 H 0.55192 0.37537 0.48561 0.0
H760 H 0.55216 0.40944 0.53218 0.0
H761 H 0.55816 0.37631 0.34207 0.0
H762 H 0.58084 0.34733 0.54226 0.0
H763 H 0.60466 0.34372 0.63428 0.0
H764 H 0.65271 0.32683 0.51279 0.0
H765 H 0.62923 0.33066 0.41988 0.0
C766 C 0.54484 0.28319 0.2475 0.0
C767 C 0.54986 0.28646 0.18449 0.0
C768 C 0.55462 0.29454 0.29575 0.0
C769 C 0.56927 0.30936 0.28116 0.0
C770 C 0.57627 0.31055 0.21974 0.0
C771 C 0.5667 0.29906 0.17171 0.0
C772 C 0.57274 0.32687 0.3239 0.0
C773 C 0.58595 0.32516 0.37718 0.0
C774 C 0.56261 0.34551 0.31114 0.0
C775 C 0.5487 0.34828 0.25501 0.0
C776 C 0.55366 0.36252 0.20846 0.0
C777 C 0.54076 0.36503 0.15508 0.0
C778 C 0.52291 0.35328 0.14753 0.0
C779 C 0.51777 0.33922 0.19387 0.0
C780 C 0.53048 0.33686 0.24778 0.0
C781 C 0.59869 0.41117 0.46472 0.0
C782 C 0.58184 0.41803 0.49787 0.0
C783 C 0.59857 0.39155 0.43867 0.0
C784 C 0.58158 0.37867 0.44518 0.0
C785 C 0.56527 0.38507 0.481 0.0
C786 C 0.56546 0.40452 0.50756 0.0
C787 C 0.57897 0.36035 0.40539 0.0
C788 C 0.5659 0.362 0.35196 0.0
C789 C 0.58924 0.34183 0.4183 0.0
C790 C 0.60334 0.33953 0.47406 0.0
C791 C 0.59655 0.34309 0.53508 0.0
C792 C 0.60997 0.34094 0.58743 0.0
C793 C 0.6302 0.33512 0.57938 0.0
C794 C 0.63704 0.33137 0.51895 0.0
C795 C 0.62368 0.33351 0.46644 0.0
H796 H 0.64057 0.33345 0.61996 0.0
H797 H 0.51301 0.35517 0.106 0.0
H798 H 0.27418 0.54461 0.21011 0.0
H799 H 0.25884 0.5622 0.2987 0.0
H800 H 0.21445 0.51341 0.31138 0.0
H801 H 0.22984 0.49585 0.22412 0.0
H802 H 0.22163 0.57678 0.29096 0.0
H803 H 0.19577 0.50883 0.4509 0.0
H804 H 0.21088 0.4777 0.49746 0.0
H805 H 0.27108 0.50326 0.48193 0.0
H806 H 0.25636 0.53472 0.4362 0.0
H807 H 0.1209 0.57481 0.36904 0.0
H808 H 0.15601 0.57159 0.3382 0.0
H809 H 0.17722 0.57852 0.53188 0.0
H810 H 0.14178 0.58221 0.56344 0.0
H811 H 0.1929 0.54531 0.48094 0.0
H812 H 0.19082 0.61454 0.42535 0.0
H813 H 0.1767 0.64651 0.38132 0.0
H814 H 0.17509 0.62043 0.19569 0.0
H815 H 0.1889 0.5882 0.2386 0.0
C816 C 0.26159 0.53739 0.23343 0.0
C817 C 0.25304 0.519 0.2102 0.0
C818 C 0.2528 0.54746 0.28376 0.0
C819 C 0.23555 0.5391 0.31195 0.0
C820 C 0.22796 0.52002 0.29133 0.0
C821 C 0.23663 0.51007 0.24105 0.0
C822 C 0.22331 0.55137 0.35528 0.0
C823 C 0.21563 0.57011 0.33324 0.0
C824 C 0.216 0.54303 0.41167 0.0
C825 C 0.22493 0.52419 0.43999 0.0
C826 C 0.21222 0.50793 0.4579 0.0
C827 C 0.22073 0.49018 0.48403 0.0
C828 C 0.24192 0.4885 0.49261 0.0
C829 C 0.25467 0.50457 0.47515 0.0
C830 C 0.24625 0.52235 0.44903 0.0
C831 C 0.13297 0.57641 0.40507 0.0
C832 C 0.12843 0.5788 0.46881 0.0
C833 C 0.15313 0.57452 0.38727 0.0
C834 C 0.1693 0.57502 0.43263 0.0
C835 C 0.16497 0.57816 0.49609 0.0
C836 C 0.14472 0.58015 0.51402 0.0
C837 C 0.19017 0.56978 0.41351 0.0
C838 C 0.19944 0.55237 0.44009 0.0
C839 C 0.19914 0.57949 0.36179 0.0
C840 C 0.19093 0.59891 0.33533 0.0
C841 C 0.18737 0.61557 0.37517 0.0
C842 C 0.17942 0.63376 0.35039 0.0
C843 C 0.17501 0.6355 0.28575 0.0
C844 C 0.17855 0.61907 0.24574 0.0
C845 C 0.18649 0.60085 0.27027 0.0
H846 H 0.16884 0.64959 0.26667 0.0
H847 H 0.24847 0.47474 0.51281 0.0
H848 H 0.95863 0.80017 0.12416 0.0
H849 H 0.95982 0.81763 0.02392 0.0
H850 H 1.00251 0.77309 0.95865 0.0
H851 H 1.0028 0.75661 0.06095 0.0
H852 H 0.02036 0.80695 0.96686 0.0
H853 H 0.95858 0.78855 0.86414 0.0
H854 H 0.92205 0.77971 0.84892 0.0
H855 H 0.90557 0.84022 0.9047 0.0
H856 H 0.94194 0.84939 0.9213 0.0
H857 H 0.04565 0.89913 0.81136 0.0
H858 H 0.03321 0.86394 0.81778 0.0
H859 H 0.98707 0.88297 0.94475 0.0
H860 H 0.99971 0.91806 0.93986 0.0
H861 H 0.97204 0.85433 0.85822 0.0
H862 H 0.03171 0.86416 1.00347 0.0
H863 H 0.06786 0.87317 0.02756 0.0
H864 H 0.0869 0.82791 0.89612 0.0
H865 H 0.0508 0.81878 0.8709 0.0
C866 C 0.96795 0.79382 0.08803 0.0
C867 C 0.98134 0.77762 0.10172 0.0
C868 C 0.96824 0.80355 0.0298 0.0
C869 C 0.98157 0.79691 0.98378 0.0
C870 C 0.9923 0.77864 0.99372 0.0
C871 C 0.99242 0.7692 0.05256 0.0
C872 C 0.98879 0.81194 0.93733 0.0
C873 C 0.00978 0.81675 0.9407 0.0
C874 C 0.97513 0.825 0.9037 0.0
C875 C 0.9531 0.81967 0.89382 0.0
C876 C 0.94719 0.79997 0.87349 0.0
C877 C 0.92648 0.7949 0.86459 0.0
C878 C 0.9115 0.8094 0.87577 0.0
C879 C 0.91719 0.82902 0.89587 0.0
C880 C 0.93787 0.83418 0.90485 0.0
C881 C 0.03296 0.89577 0.84107 0.0
C882 C 0.02384 0.91127 0.87593 0.0
C883 C 0.02569 0.87574 0.84387 0.0
C884 C 0.00914 0.87094 0.88133 0.0
C885 C 0.99966 0.88646 0.91478 0.0
C886 C 1.00699 0.90645 0.91232 0.0
C887 C 1.00306 0.84953 0.89201 0.0
C888 C 0.98251 0.84375 0.88148 0.0
C889 C 0.017 0.83553 0.91966 0.0
C890 C 0.03864 0.841 0.9347 0.0
C891 C 0.04362 0.85625 0.97943 0.0
C892 C 0.06408 0.86135 0.99333 0.0
C893 C 0.07967 0.85118 0.9632 0.0
C894 C 0.07482 0.83582 0.91926 0.0
C895 C 0.05437 0.83067 0.90515 0.0
H896 H 0.0955 0.85514 0.97403 0.0
H897 H 0.89548 0.80544 0.86887 0.0
H898 H 0.75195 0.02247 1.00453 0.0
H899 H 0.73407 0.02391 0.90193 0.0
H900 H 0.70192 0.96801 0.94364 0.0
H901 H 0.71917 0.96713 0.04823 0.0
H902 H 0.724 1.00469 0.79412 0.0
H903 H 0.65303 0.97402 0.90947 0.0
H904 H 0.63979 0.96746 0.01501 0.0
H905 H 0.67557 0.0176 0.09077 0.0
H906 H 0.68893 0.02446 0.98573 0.0
H907 H 0.61316 0.03325 0.6738 0.0
H908 H 0.64253 0.01095 0.69116 0.0
H909 H 0.67525 0.05983 0.7876 0.0
H910 H 0.64546 0.08198 0.77259 0.0
H911 H 0.65124 0.01477 0.84301 0.0
H912 H 0.72862 0.03848 0.73455 0.0
H913 H 0.74112 0.04808 0.63048 0.0
H914 H 0.69067 0.01606 0.53936 0.0
H915 H 0.67807 1.00596 0.64272 0.0
C916 C 0.7415 0.01017 0.99106 0.0
C917 C 0.73654 0.99493 0.0345 0.0
C918 C 0.7314 0.01091 0.93214 0.0
C919 C 0.71632 0.99632 0.91562 0.0
C920 C 0.71323 0.97965 0.95599 0.0
C921 C 0.72299 0.97918 0.01568 0.0
C922 C 0.7012 1.00121 0.86416 0.0
C923 C 0.70803 1.0067 0.80437 0.0
C924 C 0.68024 1.00341 0.87701 0.0
C925 C 0.67214 0.99955 0.94012 0.0
C926 C 0.65804 0.98362 0.94874 0.0
C927 C 0.65054 0.97985 0.00844 0.0
C928 C 0.65693 0.99203 0.05967 0.0
C929 C 0.67074 0.0081 0.05121 0.0
C930 C 0.67827 0.01193 0.99164 0.0
C931 C 0.62706 0.03962 0.69535 0.0
C932 C 0.62715 0.05929 0.72197 0.0
C933 C 0.64383 0.02684 0.70514 0.0
C934 C 0.66105 0.03382 0.74014 0.0
C935 C 0.66217 0.05433 0.75946 0.0
C936 C 0.64518 0.06696 0.75117 0.0
C937 C 0.67419 0.01904 0.77424 0.0
C938 C 0.66697 0.01186 0.83137 0.0
C939 C 0.69466 0.01563 0.75893 0.0
C940 C 0.70227 0.02165 0.6966 0.0
C941 C 0.72022 0.03342 0.69236 0.0
C942 C 0.72733 0.03895 0.63344 0.0
C943 C 0.71666 0.03274 0.57836 0.0
C944 C 0.69887 0.02095 0.58206 0.0
C945 C 0.69171 0.01537 0.64083 0.0
H946 H 0.7222 0.03703 0.53282 0.0
H947 H 0.65113 0.98908 0.10586 0.0
H948 H 0.47659 0.77274 0.0782 0.0
H949 H 0.46082 0.75759 0.982 0.0
H950 H 0.51312 0.71849 0.9655 0.0
H951 H 0.52862 0.73326 0.06205 0.0
H952 H 0.49384 0.73221 0.84494 0.0
H953 H 0.47859 0.70124 0.0508 0.0
H954 H 0.46552 0.70403 0.15786 0.0
H955 H 0.4078 0.72506 0.08073 0.0
H956 H 0.42072 0.72273 0.97319 0.0
H957 H 0.4845 0.63098 0.76781 0.0
H958 H 0.4889 0.66609 0.80146 0.0
H959 H 0.42355 0.67153 0.81854 0.0
H960 H 0.41941 0.63531 0.78972 0.0
H961 H 0.44006 0.68478 0.91695 0.0
H962 H 0.4542 0.70012 0.70574 0.0
H963 H 0.46919 0.69373 0.6031 0.0
H964 H 0.52954 0.70159 0.68651 0.0
H965 H 0.515 0.70735 0.79014 0.0
C966 C 0.48491 0.76136 0.05269 0.0
C967 C 0.50364 0.75393 0.07724 0.0
C968 C 0.47597 0.75282 0.99785 0.0
C969 C 0.48585 0.73697 0.96688 0.0
C970 C 0.50539 0.73085 0.98848 0.0
C971 C 0.51414 0.73913 0.04375 0.0
C972 C 0.47457 0.72389 0.92061 0.0
C973 C 0.48185 0.72196 0.85974 0.0
C974 C 0.45855 0.71103 0.93987 0.0
C975 C 0.45067 0.71206 1.00423 0.0
C976 C 0.46316 0.70659 0.05678 0.0
C977 C 0.45578 0.70808 0.1175 0.0
C978 C 0.43585 0.71477 0.12611 0.0
C979 C 0.42325 0.71993 0.07398 0.0
C980 C 0.43059 0.71854 0.01317 0.0
C981 C 0.47101 0.63985 0.777 0.0
C982 C 0.45161 0.63062 0.77581 0.0
C983 C 0.47349 0.66009 0.79562 0.0
C984 C 0.45651 0.67185 0.81102 0.0
C985 C 0.43688 0.66288 0.80644 0.0
C986 C 0.43448 0.64228 0.78979 0.0
C987 C 0.45991 0.69217 0.84108 0.0
C988 C 0.45121 0.69553 0.8996 0.0
C989 C 0.47461 0.70631 0.81921 0.0
C990 C 0.48343 0.70423 0.75597 0.0
C991 C 0.47067 0.70054 0.70227 0.0
C992 C 0.47911 0.69695 0.64385 0.0
C993 C 0.50032 0.69729 0.63825 0.0
C994 C 0.51312 0.70137 0.69093 0.0
C995 C 0.50477 0.70482 0.74955 0.0
H996 H 0.50689 0.69432 0.59325 0.0
H997 H 0.43016 0.71591 0.17314 0.0
H998 H 0.76255 0.51011 0.12653 0.0
H999 H 0.78338 0.49953 0.0388 0.0
H1000 H 0.81488 0.55764 0.04614 0.0
H1001 H 0.79434 0.56807 0.13429 0.0
H1002 H 0.81189 0.53936 0.92164 0.0
H1003 H 0.83392 0.52602 0.13845 0.0
H1004 H 0.82961 0.51285 0.2458 0.0
H1005 H 0.81772 0.45277 0.17113 0.0
H1006 H 0.82217 0.46569 0.06316 0.0
H1007 H 0.9236 0.51014 0.94577 0.0
H1008 H 0.89029 0.51976 0.98449 0.0
H1009 H 0.86003 0.48418 0.83725 0.0
H1010 H 0.89343 0.47398 0.79893 0.0
H1011 H 0.85874 0.48801 0.01896 0.0
H1012 H 0.82104 0.5185 0.79523 0.0
H1013 H 0.82732 0.53947 0.70109 0.0
H1014 H 0.87442 0.57278 0.80438 0.0
H1015 H 0.86866 0.5517 0.89854 0.0
C1016 C 0.77323 0.52093 0.10719 0.0
C1017 C 0.77702 0.53981 0.13675 0.0
C1018 C 0.7851 0.51489 0.05732 0.0
C1019 C 0.8007 0.52778 0.03659 0.0
C1020 C 0.8028 0.54758 0.06128 0.0
C1021 C 0.79114 0.5535 0.11161 0.0
C1022 C 0.81755 0.51936 1.00071 0.0
C1023 C 0.82187 0.52776 0.94201 0.0
C1024 C 0.83089 0.50474 0.02848 0.0
C1025 C 0.82816 0.49685 0.09296 0.0
C1026 C 0.8303 0.51003 0.14504 0.0
C1027 C 0.82784 0.50262 0.20594 0.0
C1028 C 0.82323 0.482 0.21534 0.0
C1029 C 0.82123 0.46875 0.16378 0.0
C1030 C 0.82378 0.4761 0.10273 0.0
C1031 C 0.90987 0.50415 0.92205 0.0
C1032 C 0.91109 0.49119 0.86963 0.0
C1033 C 0.8909 0.50986 0.94371 0.0
C1034 C 0.87284 0.50286 0.91305 0.0
C1035 C 0.87389 0.48992 0.8608 0.0
C1036 C 0.89292 0.48405 0.83928 0.0
C1037 C 0.85302 0.50785 0.93949 0.0
C1038 C 0.84826 0.49887 0.99696 0.0
C1039 C 0.83963 0.5223 0.91133 0.0
C1040 C 0.8446 0.53342 0.85336 0.0
C1041 C 0.8329 0.53013 0.79742 0.0
C1042 C 0.83631 0.54208 0.74422 0.0
C1043 C 0.85118 0.55752 0.74686 0.0
C1044 C 0.86287 0.56086 0.80246 0.0
C1045 C 0.8597 0.54877 0.85549 0.0
H1046 H 0.85376 0.56679 0.70571 0.0
H1047 H 0.8213 0.47629 0.26255 0.0
H1048 H 1.00472 0.23795 0.96607 0.0
H1049 H 1.00107 0.20579 0.90668 0.0
H1050 H 0.06622 0.1968 0.9251 0.0
H1051 H 0.06993 0.22896 0.98282 0.0
H1052 H 0.05338 0.18428 0.81187 0.0
H1053 H 0.03131 0.17116 0.02372 0.0
H1054 H 0.01036 0.17639 0.11667 0.0
H1055 H 0.95566 0.16565 1.00306 0.0
H1056 H 0.97628 0.1604 0.90955 0.0
H1057 H 0.05773 0.07555 0.76614 0.0
H1058 H 0.05986 0.11011 0.81144 0.0
H1059 H 0.9952 0.11782 0.77387 0.0
H1060 H 0.99301 0.08361 0.72806 0.0
H1061 H 1.00649 0.13136 0.89248 0.0
H1062 H 0.02777 0.14179 0.68331 0.0
H1063 H 0.04793 0.1353 0.59005 0.0
H1064 H 0.10318 0.15086 0.69533 0.0
H1065 H 0.08332 0.15721 0.78983 0.0
C1066 C 0.01831 0.22939 0.95603 0.0
C1067 C 0.03762 0.23619 0.97946 0.0
C1068 C 0.0162 0.21077 0.92276 0.0
C1069 C 0.03333 0.19841 0.91204 0.0
C1070 C 0.05269 0.20578 0.93256 0.0
C1071 C 0.05479 0.22429 0.96577 0.0
C1072 C 0.03122 0.17758 0.88165 0.0
C1073 C 0.04327 0.1727 0.83017 0.0
C1074 C 0.01771 0.16232 0.90374 0.0
C1075 C 1.00531 0.16567 0.95964 0.0
C1076 C 0.01481 0.17011 0.01858 0.0
C1077 C 1.00301 0.17303 0.07132 0.0
C1078 C 0.98171 0.17148 0.06566 0.0
C1079 C 0.97216 0.16691 0.00733 0.0
C1080 C 0.98389 0.16392 0.95449 0.0
C1081 C 0.04396 0.08459 0.76749 0.0
C1082 C 0.02521 0.07663 0.74321 0.0
C1083 C 0.0452 0.10444 0.79329 0.0
C1084 C 0.02769 0.1168 0.79613 0.0
C1085 C 0.00896 0.10874 0.77257 0.0
C1086 C 1.00776 0.08909 0.74605 0.0
C1087 C 0.02882 0.13804 0.8235 0.0
C1088 C 0.01658 0.14298 0.87425 0.0
C1089 C 0.04206 0.15334 0.80055 0.0
C1090 C 0.05408 0.14975 0.74386 0.0
C1091 C 0.04424 0.14364 0.6868 0.0
C1092 C 0.05561 0.13999 0.63367 0.0
C1093 C 0.07684 0.14254 0.63676 0.0
C1094 C 0.08673 0.14882 0.69305 0.0
C1095 C 0.07543 0.15248 0.74643 0.0
H1096 H 0.0856 0.13977 0.59544 0.0
H1097 H 0.97261 0.17375 0.10654 0.0
H1098 H 0.32039 0.98573 0.04777 0.0
H1099 H 0.34948 0.98922 0.98168 0.0
H1100 H 0.33301 0.05167 0.94182 0.0
H1101 H 0.30458 0.04874 0.01372 0.0
H1102 H 0.35798 0.9931 0.87393 0.0
H1103 H 0.37374 0.08001 0.89523 0.0
H1104 H 0.36973 0.10815 0.97103 0.0
H1105 H 0.37074 0.06524 0.12388 0.0
H1106 H 0.37499 0.03689 0.04907 0.0
H1107 H 0.43746 0.01396 0.6629 0.0
H1108 H 0.40548 0.01442 0.71915 0.0
H1109 H 0.43851 0.03425 0.88804 0.0
H1110 H 0.47035 0.03441 0.83162 0.0
H1111 H 0.40489 0.0528 0.88783 0.0
H1112 H 0.42059 0.98324 0.86137 0.0
H1113 H 0.42912 0.95122 0.80771 0.0
H1114 H 0.37246 0.9536 0.69914 0.0
H1115 H 0.36361 0.98573 0.75216 0.0
C1116 C 0.32299 1.00045 0.02616 0.0
C1117 C 0.31016 0.01714 0.03855 0.0
C1118 C 0.33971 1.00233 0.987 0.0
C1119 C 0.3442 0.02086 0.95677 0.0
C1120 C 0.33064 0.03729 0.96565 0.0
C1121 C 0.31402 0.03552 0.00627 0.0
C1122 C 0.3631 0.0226 0.91719 0.0
C1123 C 0.36806 1.0063 0.87709 0.0
C1124 C 0.37699 0.03942 0.92119 0.0
C1125 C 0.3744 0.05634 0.96646 0.0
C1126 C 0.37312 0.07661 0.94502 0.0
C1127 C 0.37081 0.09258 0.9878 0.0
C1128 C 0.3699 0.08848 0.0522 0.0
C1129 C 0.37136 0.06839 0.07397 0.0
C1130 C 0.3737 0.05236 0.0314 0.0
C1131 C 0.43798 0.01854 0.71194 0.0
C1132 C 0.45676 0.02413 0.74228 0.0
C1133 C 0.41955 0.01868 0.74446 0.0
C1134 C 0.41924 0.02412 0.80878 0.0
C1135 C 0.43797 0.03003 0.8387 0.0
C1136 C 0.45635 0.03004 0.80614 0.0
C1137 C 0.39968 0.02329 0.84517 0.0
C1138 C 0.39463 0.03974 0.8844 0.0
C1139 C 0.38623 1.00615 0.84296 0.0
C1140 C 0.39157 0.98705 0.81001 0.0
C1141 C 0.41004 0.97706 0.82558 0.0
C1142 C 0.41491 0.95885 0.79548 0.0
C1143 C 0.40135 0.95039 0.75009 0.0
C1144 C 0.38295 0.96018 0.73436 0.0
C1145 C 0.37799 0.97838 0.76445 0.0
H1146 H 0.40508 0.93615 0.7276 0.0
H1147 H 0.3681 0.10087 0.08523 0.0
H1148 H 0.53142 0.29752 0.92608 0.0
H1149 H 0.52866 0.32901 0.86358 0.0
H1150 H 0.48471 0.35234 0.99108 0.0
H1151 H 0.48738 0.32075 0.05308 0.0
H1152 H 0.47496 0.36361 0.86894 0.0
H1153 H 0.53467 0.36391 0.00782 0.0
H1154 H 0.56723 0.35035 0.05214 0.0
H1155 H 0.59403 0.35608 0.8716 0.0
H1156 H 0.56146 0.36916 0.82586 0.0
H1157 H 0.48535 0.47002 0.80457 0.0
H1158 H 0.48377 0.43616 0.85277 0.0
H1159 H 0.53337 0.4163 0.74016 0.0
H1160 H 0.5354 0.45025 0.69328 0.0
H1161 H 0.53985 0.40254 0.85219 0.0
H1162 H 0.48108 0.40142 0.71119 0.0
H1163 H 0.44852 0.41367 0.66322 0.0
H1164 H 0.4203 0.40884 0.84187 0.0
H1165 H 0.45278 0.3968 0.89111 0.0
C1166 C 0.52064 0.30909 0.9393 0.0
C1167 C 0.50926 0.30652 0.99352 0.0
C1168 C 0.51924 0.3272 0.90405 0.0
C1169 C 0.50665 0.34328 0.92286 0.0
C1170 C 0.49447 0.34023 0.97525 0.0
C1171 C 0.49589 0.32211 0.01049 0.0
C1172 C 0.50732 0.36372 0.89109 0.0
C1173 C 0.48912 0.3722 0.86579 0.0
C1174 C 0.52584 0.37488 0.8856 0.0
C1175 C 0.54555 0.36733 0.91332 0.0
C1176 C 0.54746 0.36215 0.97753 0.0
C1177 C 0.56591 0.35455 1.00289 0.0
C1178 C 0.58267 0.35236 0.96471 0.0
C1179 C 0.58102 0.35777 0.9011 0.0
C1180 C 0.56256 0.36525 0.87542 0.0
C1181 C 0.49586 0.45843 0.7897 0.0
C1182 C 0.5105 0.46301 0.74478 0.0
C1183 C 0.49488 0.43895 0.81722 0.0
C1184 C 0.50826 0.42334 0.79982 0.0
C1185 C 0.52284 0.42791 0.75478 0.0
C1186 C 0.52396 0.44743 0.72775 0.0
C1187 C 0.50748 0.40249 0.82945 0.0
C1188 C 0.52567 0.39395 0.85478 0.0
C1189 C 0.48898 0.39121 0.83441 0.0
C1190 C 0.46942 0.3984 0.80495 0.0
C1191 C 0.46797 0.40311 0.74035 0.0
C1192 C 0.44952 0.40999 0.71291 0.0
C1193 C 0.43237 0.41208 0.74951 0.0
C1194 C 0.43361 0.40724 0.8136 0.0
C1195 C 0.45203 0.40037 0.84128 0.0
H1196 H 0.4181 0.41741 0.72818 0.0
H1197 H 0.59695 0.34649 0.98444 0.0
H1198 H 0.24769 0.51223 0.91884 0.0
H1199 H 0.21776 0.51149 0.84533 0.0
H1200 H 0.18317 0.47944 0.9837 0.0
H1201 H 0.21303 0.47966 0.0561 0.0
H1202 H 0.17299 0.46525 0.87025 0.0
H1203 H 0.18092 0.53207 0.96541 0.0
H1204 H 0.19917 0.56425 0.99154 0.0
H1205 H 0.2036 0.57766 0.79463 0.0
H1206 H 0.1856 0.5454 0.76735 0.0
H1207 H 0.06994 0.4928 0.80468 0.0
H1208 H 0.10448 0.48816 0.84975 0.0
H1209 H 0.12951 0.51807 0.68885 0.0
H1210 H 0.09496 0.52275 0.64315 0.0
H1211 H 0.14667 0.53261 0.79938 0.0
H1212 H 0.13438 0.46723 0.70574 0.0
H1213 H 0.11524 0.43538 0.68221 0.0
H1214 H 0.11821 0.41941 0.87836 0.0
H1215 H 0.13713 0.45132 0.90322 0.0
C1216 C 0.23385 0.50459 0.93285 0.0
C1217 C 0.23267 0.4962 0.99355 0.0
C1218 C 0.21667 0.50436 0.89108 0.0
C1219 C 0.198 0.49577 0.90934 0.0
C1220 C 0.19728 0.48627 0.96844 0.0
C1221 C 0.21436 0.4865 0.00999 0.0
C1222 C 0.17883 0.49766 0.8693 0.0
C1223 C 0.16722 0.48 0.85499 0.0
C1224 C 0.17139 0.51683 0.84803 0.0
C1225 C 0.18215 0.53622 0.86435 0.0
C1226 C 0.18593 0.54181 0.9277 0.0
C1227 C 0.1962 0.56007 0.94272 0.0
C1228 C 0.2026 0.57296 0.89478 0.0
C1229 C 0.19868 0.56764 0.83171 0.0
C1230 C 0.18844 0.54938 0.81644 0.0
C1231 C 0.08275 0.4983 0.77851 0.0
C1232 C 0.07956 0.5082 0.72018 0.0
C1233 C 0.10255 0.49555 0.80433 0.0
C1234 C 0.11967 0.50261 0.77254 0.0
C1235 C 0.11657 0.51247 0.71427 0.0
C1236 C 0.09676 0.5151 0.68816 0.0
C1237 C 0.14068 0.50025 0.80137 0.0
C1238 C 0.1526 0.51783 0.8137 0.0
C1239 C 0.14833 0.48102 0.82115 0.0
C1240 C 0.13704 0.46175 0.80639 0.0
C1241 C 0.13082 0.457 0.74393 0.0
C1242 C 0.12003 0.43893 0.73034 0.0
C1243 C 0.11548 0.4254 0.77878 0.0
C1244 C 0.12174 0.42991 0.84089 0.0
C1245 C 0.13252 0.44798 0.85475 0.0
H1246 H 0.10712 0.41141 0.76816 0.0
H1247 H 0.21055 0.58709 0.90649 0.0
H1248 H 0.96738 0.81372 0.29016 0.0
H1249 H 0.9713 0.84494 0.35203 0.0
H1250 H 0.02765 0.82255 0.4363 0.0
H1251 H 0.02435 0.79128 0.37171 0.0
H1252 H 0.99603 0.84425 0.52229 0.0
H1253 H 0.03535 0.85367 0.33537 0.0
H1254 H 0.03985 0.85259 0.22068 0.0
H1255 H 0.99008 0.89432 0.19154 0.0
H1256 H 0.98507 0.89538 0.30605 0.0
H1257 H 0.02683 0.94124 0.6537 0.0
H1258 H 0.02505 0.90743 0.60469 0.0
H1259 H 0.98586 0.93121 0.45469 0.0
H1260 H 0.98815 0.96518 0.50243 0.0
H1261 H 0.01048 0.90753 0.40326 0.0
H1262 H 0.97014 0.89986 0.58214 0.0
H1263 H 0.96107 0.9002 0.69361 0.0
H1264 H 1.00605 0.85433 0.73589 0.0
H1265 H 0.01615 0.85445 0.62535 0.0
C1266 C 0.98071 0.81528 0.32166 0.0
C1267 C 0.99576 0.79988 0.32449 0.0
C1268 C 0.98284 0.83323 0.35745 0.0
C1269 C 0.99987 0.83637 0.39856 0.0
C1270 C 0.01436 0.82059 0.40486 0.0
C1271 C 0.01239 0.8026 0.36805 0.0
C1272 C 1.00274 0.8566 0.43175 0.0
C1273 C 0.99964 0.85806 0.4967 0.0
C1274 C 1.00651 0.87483 0.39803 0.0
C1275 C 0.00972 0.87446 0.32926 0.0
C1276 C 0.02525 0.86248 0.30448 0.0
C1277 C 0.02792 0.8619 0.2395 0.0
C1278 C 0.01523 0.87334 0.19882 0.0
C1279 C 0.99989 0.88544 0.22309 0.0
C1280 C 0.99714 0.88606 0.28803 0.0
C1281 C 0.0177 0.93932 0.61046 0.0
C1282 C 1.00758 0.95618 0.58247 0.0
C1283 C 0.01662 0.9198 0.58236 0.0
C1284 C 1.00511 0.91633 0.52578 0.0
C1285 C 0.99493 0.93317 0.49804 0.0
C1286 C 0.99616 0.95272 0.52577 0.0
C1287 C 1.00395 0.89545 0.49481 0.0
C1288 C 1.00716 0.89383 0.42974 0.0
C1289 C 0.99981 0.87713 0.5284 0.0
C1290 C 0.99417 0.87744 0.59547 0.0
C1291 C 0.9784 0.89013 0.61539 0.0
C1292 C 0.97309 0.89027 0.6785 0.0
C1293 C 0.98315 0.87749 0.72199 0.0
C1294 C 0.9985 0.86448 0.70242 0.0
C1295 C 1.00408 0.86449 0.63955 0.0
H1296 H 0.97895 0.87761 0.77072 0.0
H1297 H 0.01731 0.87285 0.14853 0.0
H1298 H 0.73541 0.99575 0.34032 0.0
H1299 H 0.70689 0.99862 0.41189 0.0
H1300 H 0.6683 0.02127 0.25868 0.0
H1301 H 0.69685 0.02015 0.18965 0.0
H1302 H 0.65727 0.04004 0.35031 0.0
H1303 H 0.66883 0.96754 0.32556 0.0
H1304 H 0.68902 0.93589 0.33253 0.0
H1305 H 0.69853 0.94464 0.53193 0.0
H1306 H 0.67856 0.97645 0.52599 0.0
H1307 H 0.56678 0.98323 0.51431 0.0
H1308 H 0.59885 0.98217 0.45793 0.0
H1309 H 0.61562 0.04141 0.53271 0.0
H1310 H 0.58338 0.04277 0.58664 0.0
H1311 H 0.63826 0.9818 0.48555 0.0
H1312 H 0.64455 0.06817 0.43352 0.0
H1313 H 0.62218 0.09794 0.41518 0.0
H1314 H 0.57314 0.05826 0.35114 0.0
H1315 H 0.59528 0.0283 0.36835 0.0
C1316 C 0.72095 1.00162 0.32208 0.0
C1317 C 0.71861 1.00715 0.25796 0.0
C1318 C 0.70439 1.00298 0.36307 0.0
C1319 C 0.68483 0.00963 0.34116 0.0
C1320 C 0.68286 0.01589 0.27786 0.0
C1321 C 0.69936 0.0149 0.23757 0.0
C1322 C 0.66628 0.01011 0.38252 0.0
C1323 C 0.65332 0.02724 0.37996 0.0
C1324 C 0.66048 0.99355 0.42154 0.0
C1325 C 0.6724 0.97445 0.4252 0.0
C1326 C 0.67533 0.96275 0.3708 0.0
C1327 C 0.68672 0.94479 0.37458 0.0
C1328 C 0.6951 0.93829 0.43261 0.0
C1329 C 0.69206 0.94971 0.48701 0.0
C1330 C 0.6807 0.9677 0.48347 0.0
C1331 C 0.57726 0.99606 0.51878 0.0
C1332 C 0.57227 0.01313 0.55558 0.0
C1333 C 0.59578 0.9954 0.48656 0.0
C1334 C 0.6099 0.01181 0.48975 0.0
C1335 C 0.60509 0.02863 0.52771 0.0
C1336 C 0.58658 0.02934 0.55939 0.0
C1337 C 0.62929 0.0116 0.4525 0.0
C1338 C 0.64237 0.9946 0.45611 0.0
C1339 C 0.63498 0.02808 0.41318 0.0
C1340 C 0.62153 0.046 0.40277 0.0
C1341 C 0.62901 0.06582 0.41537 0.0
C1342 C 0.61638 0.08272 0.40518 0.0
C1343 C 0.59627 0.07999 0.38199 0.0
C1344 C 0.58872 0.06035 0.36915 0.0
C1345 C 0.6013 0.0434 0.37919 0.0
H1346 H 0.58655 0.09309 0.37379 0.0
H1347 H 0.70392 0.92438 0.43543 0.0
H1348 H 0.48992 0.71912 0.26384 0.0
H1349 H 0.49132 0.69004 0.33486 0.0
H1350 H 0.54677 0.71403 0.4239 0.0
H1351 H 0.54604 0.74291 0.34998 0.0
H1352 H 0.55124 0.6751 0.40822 0.0
H1353 H 0.49878 0.71504 0.4907 0.0
H1354 H 0.46698 0.73482 0.49287 0.0
H1355 H 0.43193 0.68125 0.44175 0.0
H1356 H 0.46355 0.66117 0.43803 0.0
H1357 H 0.50849 0.59998 0.66574 0.0
H1358 H 0.50913 0.63374 0.61585 0.0
H1359 H 0.53245 0.60684 0.44799 0.0
H1360 H 0.5324 0.57334 0.49794 0.0
H1361 H 0.49055 0.65047 0.51966 0.0
H1362 H 0.56219 0.63882 0.37002 0.0
H1363 H 0.59506 0.62061 0.37756 0.0
H1364 H 0.59343 0.62124 0.57945 0.0
H1365 H 0.56069 0.63969 0.57315 0.0
C1366 C 0.50254 0.71829 0.29824 0.0
C1367 C 0.51802 0.73343 0.30031 0.0
C1368 C 0.50317 0.70164 0.33963 0.0
C1369 C 0.51904 0.69971 0.38566 0.0
C1370 C 0.53432 0.71503 0.389 0.0
C1371 C 0.53378 0.73171 0.34704 0.0
C1372 C 0.51991 0.68137 0.42839 0.0
C1373 C 0.53793 0.66981 0.43259 0.0
C1374 C 0.50277 0.67448 0.46187 0.0
C1375 C 0.48364 0.68658 0.46368 0.0
C1376 C 0.48434 0.70748 0.4792 0.0
C1377 C 0.46632 0.71876 0.48083 0.0
C1378 C 0.44745 0.70931 0.46735 0.0
C1379 C 0.44656 0.68855 0.45221 0.0
C1380 C 0.46454 0.6772 0.45041 0.0
C1381 C 0.51395 0.60126 0.6184 0.0
C1382 C 0.52063 0.5838 0.58639 0.0
C1383 C 0.51422 0.62064 0.58969 0.0
C1384 C 0.52119 0.62313 0.5282 0.0
C1385 C 0.52751 0.60564 0.49592 0.0
C1386 C 0.52737 0.58634 0.52464 0.0
C1387 C 0.52158 0.64381 0.4971 0.0
C1388 C 0.50383 0.65582 0.49529 0.0
C1389 C 0.53907 0.65135 0.46678 0.0
C1390 C 0.5589 0.6405 0.47104 0.0
C1391 C 0.5689 0.63517 0.41602 0.0
C1392 C 0.58749 0.62478 0.42008 0.0
C1393 C 0.5963 0.61973 0.47894 0.0
C1394 C 0.58656 0.62511 0.53388 0.0
C1395 C 0.56797 0.63551 0.53009 0.0
H1396 H 0.61068 0.61167 0.48197 0.0
H1397 H 0.43351 0.71806 0.46873 0.0
H1398 H 0.79157 0.57239 0.40315 0.0
H1399 H 0.8245 0.57215 0.4638 0.0
H1400 H 0.83703 0.51228 0.39093 0.0
H1401 H 0.80413 0.51224 0.3323 0.0
H1402 H 0.84668 0.53955 0.55247 0.0
H1403 H 0.8838 0.52148 0.31898 0.0
H1404 H 0.87715 0.5264 0.20483 0.0
H1405 H 0.84333 0.58079 0.24142 0.0
H1406 H 0.85016 0.57644 0.35557 0.0
H1407 H 0.94653 0.50195 0.60215 0.0
H1408 H 0.91171 0.50729 0.56137 0.0
H1409 H 0.92888 0.56666 0.49243 0.0
H1410 H 0.96409 0.56136 0.53282 0.0
H1411 H 0.90393 0.54532 0.40626 0.0
H1412 H 0.90349 0.56278 0.62599 0.0
H1413 H 0.91227 0.55527 0.73746 0.0
H1414 H 0.87304 0.5024 0.72878 0.0
H1415 H 0.86448 0.50926 0.61708 0.0
C1416 C 0.801 0.55888 0.40239 0.0
C1417 C 0.79538 0.54235 0.36305 0.0
C1418 C 0.81983 0.55879 0.43664 0.0
C1419 C 0.83329 0.54229 0.43122 0.0
C1420 C 0.82694 0.5252 0.39561 0.0
C1421 C 0.80814 0.52518 0.36223 0.0
C1422 C 0.85483 0.54358 0.45602 0.0
C1423 C 0.8592 0.54102 0.52069 0.0
C1424 C 0.87117 0.54555 0.41455 0.0
C1425 C 0.86737 0.54854 0.34585 0.0
C1426 C 0.87506 0.53456 0.30262 0.0
C1427 C 0.87128 0.53726 0.23792 0.0
C1428 C 0.85985 0.55392 0.21592 0.0
C1429 C 0.85217 0.56789 0.25854 0.0
C1430 C 0.85598 0.56531 0.32323 0.0
C1431 C 0.94302 0.5162 0.57847 0.0
C1432 C 0.9582 0.53131 0.57143 0.0
C1433 C 0.92301 0.51923 0.55512 0.0
C1434 C 0.91754 0.5375 0.52455 0.0
C1435 C 0.9327 0.55246 0.51604 0.0
C1436 C 0.95282 0.54943 0.5394 0.0
C1437 C 0.89589 0.54096 0.5027 0.0
C1438 C 0.89147 0.54426 0.43837 0.0
C1439 C 0.87954 0.53972 0.54455 0.0
C1440 C 0.88345 0.53646 0.61303 0.0
C1441 C 0.89679 0.54951 0.64788 0.0
C1442 C 0.90186 0.54529 0.711 0.0
C1443 C 0.89344 0.52823 0.74006 0.0
C1444 C 0.87977 0.51547 0.70622 0.0
C1445 C 0.87476 0.51955 0.64298 0.0
H1446 H 0.89725 0.52517 0.78908 0.0
H1447 H 0.85696 0.556 0.16583 0.0
loop_
_geom_bond_atom_site_label_1
_geom_bond_atom_site_label_2
_geom_bond_distance
_geom_bond_site_symmetry_2
_ccdc_geom_bond_type
H0 C3 0.929 . S
H1 C6 0.929 . S
H2 C8 0.930 . S
C3 H0 0.929 . S
C3 C4 1.398 . S
C3 C5 1.396 . S
C4 C3 1.398 . S
C4 C8 1.407 . S
C5 C3 1.396 . S
C5 C6 1.394 . S
C6 H1 0.929 . S
C6 C5 1.394 . S
C6 C7 1.382 . S
C7 C6 1.382 . S
C7 C8 1.392 . S
C7 N9 1.420 . S
C8 H2 0.930 . S
C8 C4 1.407 . S
C8 C7 1.392 . S
N9 C7 1.420 . S
N9 C10 1.244 . S
C10 N9 1.244 . S
H11 C14 0.929 . S
H12 C17 0.929 . S
H13 C19 0.930 . S
C14 H11 0.929 . S
C14 C15 1.398 . S
C14 C16 1.396 . S
C15 C14 1.398 . S
C15 C19 1.407 . S
C16 C14 1.396 . S
C16 C17 1.394 . S
C17 H12 0.929 . S
C17 C16 1.394 . S
C17 C18 1.382 . S
C18 C17 1.382 . S
C18 C19 1.392 . S
C18 N20 1.420 . S
C19 H13 0.930 . S
C19 C15 1.407 . S
C19 C18 1.392 . S
N20 C18 1.420 . S
N20 C21 1.244 . S
C21 N20 1.244 . S
H22 C25 0.929 . S
H23 C28 0.929 . S
H24 C30 0.930 . S
C25 H22 0.929 . S
C25 C26 1.398 . S
C25 C27 1.396 . S
C26 C25 1.398 . S
C26 C30 1.407 . S
C27 C25 1.396 . S
C27 C28 1.394 . S
C28 H23 0.929 . S
C28 C27 1.394 . S
C28 C29 1.382 . S
C29 C28 1.382 . S
C29 C30 1.392 . S
C29 N31 1.420 . S
C30 H24 0.930 . S
C30 C26 1.407 . S
C30 C29 1.392 . S
N31 C29 1.420 . S
N31 C32 1.244 . S
C32 N31 1.244 . S
H33 C36 0.929 . S
H34 C39 0.929 . S
H35 C41 0.930 . S
C36 H33 0.929 . S
C36 C37 1.398 . S
C36 C38 1.396 . S
C37 C36 1.398 . S
C37 C41 1.407 . S
C38 C36 1.396 . S
C38 C39 1.394 . S
C39 H34 0.929 . S
C39 C38 1.394 . S
C39 C40 1.382 . S
C40 C39 1.382 . S
C40 C41 1.392 . S
C40 N42 1.420 . S
C41 H35 0.930 . S
C41 C37 1.407 . S
C41 C40 1.392 . S
N42 C40 1.420 . S
N42 C43 1.244 . S
C43 N42 1.244 . S
H44 C47 0.929 . S
H45 C50 0.929 . S
H46 C52 0.930 1_556 S
C47 H44 0.929 . S
C47 C48 1.398 . S
C47 C49 1.396 . S
C48 C47 1.398 . S
C48 C52 1.407 . S
C49 C47 1.396 . S
C49 C50 1.394 . S
C50 H45 0.929 . S
C50 C49 1.394 . S
C50 C51 1.382 . S
C51 C50 1.382 . S
C51 C52 1.392 . S
C51 N53 1.420 . S
C52 H46 0.930 1_554 S
C52 C48 1.407 . S
C52 C51 1.392 . S
N53 C51 1.420 . S
N53 C54 1.244 . S
C54 N53 1.244 . S
H55 C58 0.929 . S
H56 C61 0.929 . S
H57 C63 0.930 . S
C58 H55 0.929 . S
C58 C59 1.398 1_554 S
C58 C60 1.396 . S
C59 C58 1.398 1_556 S
C59 C63 1.407 . S
C60 C58 1.396 . S
C60 C61 1.394 . S
C61 H56 0.929 . S
C61 C60 1.394 . S
C61 C62 1.382 . S
C62 C61 1.382 . S
C62 C63 1.392 1_554 S
C62 N64 1.420 . S
C63 H57 0.930 . S
C63 C59 1.407 . S
C63 C62 1.392 1_556 S
N64 C62 1.420 . S
N64 C65 1.244 . S
C65 N64 1.244 . S
H66 C69 0.929 . S
H67 C72 0.929 . S
H68 C74 0.930 . S
C69 H66 0.929 . S
C69 C70 1.398 . S
C69 C71 1.396 1_556 S
C70 C69 1.398 . S
C70 C74 1.407 . S
C71 C69 1.396 1_554 S
C71 C72 1.394 . S
C72 H67 0.929 . S
C72 C71 1.394 . S
C72 C73 1.382 . S
C73 C72 1.382 . S
C73 C74 1.392 1_554 S
C73 N75 1.420 . S
C74 H68 0.930 . S
C74 C70 1.407 . S
C74 C73 1.392 1_556 S
N75 C73 1.420 . S
N75 C76 1.244 . S
C76 N75 1.244 . S
H77 C80 0.929 . S
H78 C83 0.929 . S
H79 C85 0.930 1_556 S
C80 H77 0.929 . S
C80 C81 1.398 1_554 S
C80 C82 1.396 . S
C81 C80 1.398 1_556 S
C81 C85 1.407 1_556 S
C82 C80 1.396 . S
C82 C83 1.394 . S
C83 H78 0.929 . S
C83 C82 1.394 . S
C83 C84 1.382 . S
C84 C83 1.382 . S
C84 C85 1.392 . S
C84 N86 1.420 . S
C85 H79 0.930 1_554 S
C85 C81 1.407 1_554 S
C85 C84 1.392 . S
N86 C84 1.420 . S
N86 C87 1.244 . S
C87 N86 1.244 . S
Eu88 C97 2.828 . S
Eu88 O99 2.392 . S
Eu88 O101 2.418 1_545 S
Eu88 O106 2.373 1_655 S
Eu88 O109 2.488 . S
Eu88 O110 2.471 1_655 S
Eu88 O111 2.349 1_655 S
Eu89 O98 2.371 1_465 S
Eu89 O102 2.488 . S
Eu89 O103 2.471 . S
Eu89 O104 2.349 . S
Eu89 O107 2.392 1_565 S
Eu89 O108 2.418 1_565 S
Eu89 C118 2.828 . S
C90 O108 1.244 . S
C90 O111 1.265 . S
C91 C92 1.379 . S
C91 C95 1.373 1_455 S
C91 C97 1.505 1_455 S
C92 C91 1.379 . S
C92 C94 1.369 . S
C92 H120 0.930 . S
C93 C95 1.383 . S
C93 C96 1.382 1_655 S
C93 H121 0.930 . S
C94 C92 1.369 . S
C94 C96 1.392 . S
C94 H122 0.930 . S
C95 C91 1.373 1_655 S
C95 C93 1.383 . S
C95 H123 0.931 . S
C96 C93 1.382 1_455 S
C96 C94 1.392 . S
C97 Eu88 2.828 . S
C97 C91 1.505 1_655 S
C97 O109 1.249 . S
C97 O110 1.244 1_655 S
O98 Eu89 2.371 1_645 S
O98 C100 1.261 . S
O99 Eu88 2.392 . S
O99 C100 1.242 . S
C100 O98 1.261 . S
C100 O99 1.242 . S
O101 Eu88 2.418 1_565 S
O101 C105 1.244 . S
O102 Eu89 2.488 . S
O102 C118 1.249 . S
O103 Eu89 2.471 . S
O103 C118 1.244 . S
O104 Eu89 2.349 . S
O104 C105 1.265 1_455 S
C105 O101 1.244 . S
C105 O104 1.265 1_655 S
O106 Eu88 2.373 1_455 S
O106 C119 1.258 . S
O107 Eu89 2.392 1_545 S
O107 C119 1.242 . S
O108 Eu89 2.418 1_545 S
O108 C90 1.244 . S
O109 Eu88 2.488 . S
O109 C97 1.249 . S
O110 Eu88 2.471 1_455 S
O110 C97 1.244 1_455 S
O111 Eu88 2.349 1_455 S
O111 C90 1.265 . S
C112 C113 1.379 . S
C112 C116 1.373 . S
C112 C118 1.505 . S
C113 C112 1.379 . S
C113 C115 1.369 1_455 S
C113 H124 0.930 1_455 S
C114 C116 1.383 . S
C114 C117 1.382 . S
C114 H125 0.930 1_556 S
C115 C113 1.369 1_655 S
C115 C117 1.392 1_655 S
C115 H126 0.930 . S
C116 C112 1.373 . S
C116 C114 1.383 . S
C116 H127 0.931 . S
C117 C114 1.382 . S
C117 C115 1.392 1_455 S
C118 Eu89 2.828 . S
C118 O102 1.249 . S
C118 O103 1.244 . S
C118 C112 1.505 . S
C119 O106 1.258 . S
C119 O107 1.242 . S
H120 C92 0.930 . S
H121 C93 0.930 . S
H122 C94 0.930 . S
H123 C95 0.931 . S
H124 C113 0.930 1_655 S
H125 C114 0.930 1_554 S
H126 C115 0.930 . S
H127 C116 0.931 . S
Eu128 C137 2.828 . S
Eu128 O139 2.392 . S
Eu128 O141 2.418 . S
Eu128 O146 2.373 . S
Eu128 O149 2.488 . S
Eu128 O150 2.471 . S
Eu128 O151 2.349 1_545 S
Eu129 O138 2.373 1_565 S
Eu129 O142 2.488 . S
Eu129 O143 2.471 1_565 S
Eu129 O144 2.349 1_565 S
Eu129 O147 2.392 . S
Eu129 O148 2.418 . S
Eu129 C158 2.828 . S
C130 O148 1.244 . S
C130 O151 1.265 . S
C131 C132 1.379 . S
C131 C135 1.373 . S
C131 C137 1.505 . S
C132 C131 1.379 . S
C132 C134 1.369 . S
C132 H160 0.930 1_545 S
C133 C135 1.383 . S
C133 C136 1.382 . S
C133 H161 0.930 . S
C134 C132 1.369 . S
C134 C136 1.392 . S
C134 H162 0.930 1_545 S
C135 C131 1.373 . S
C135 C133 1.383 . S
C135 H163 0.931 . S
C136 C133 1.382 . S
C136 C134 1.392 . S
C137 Eu128 2.828 . S
C137 C131 1.505 . S
C137 O149 1.249 . S
C137 O150 1.244 . S
O138 Eu129 2.373 1_545 S
O138 C140 1.258 . S
O139 Eu128 2.392 . S
O139 C140 1.242 . S
C140 O138 1.258 . S
C140 O139 1.242 . S
O141 Eu128 2.418 . S
O141 C145 1.244 . S
O142 Eu129 2.488 . S
O142 C158 1.249 . S
O143 Eu129 2.471 1_545 S
O143 C158 1.244 1_545 S
O144 Eu129 2.349 1_545 S
O144 C145 1.265 . S
C145 O141 1.244 . S
C145 O144 1.265 . S
O146 Eu128 2.373 . S
O146 C159 1.229 1_545 S
O147 Eu129 2.392 . S
O147 C159 1.260 . S
O148 Eu129 2.418 . S
O148 C130 1.244 . S
O149 Eu128 2.488 . S
O149 C137 1.249 . S
O150 Eu128 2.471 . S
O150 C137 1.244 . S
O151 Eu128 2.349 1_565 S
O151 C130 1.265 . S
C152 C153 1.381 1_565 S
C152 C156 1.371 . S
C152 C158 1.505 . S
C153 C152 1.381 1_545 S
C153 C155 1.369 . S
C153 H164 0.930 . S
C154 C156 1.383 . S
C154 C157 1.382 1_565 S
C154 H165 0.930 . S
C155 C153 1.369 . S
C155 C157 1.392 . S
C155 H166 0.930 . S
C156 C152 1.371 . S
C156 C154 1.383 . S
C156 H167 0.931 . S
C157 C154 1.382 1_545 S
C157 C155 1.392 . S
C158 Eu129 2.828 . S
C158 O142 1.249 . S
C158 O143 1.244 1_565 S
C158 C152 1.505 . S
C159 O146 1.229 1_565 S
C159 O147 1.260 . S
H160 C132 0.930 1_565 S
H161 C133 0.930 . S
H162 C134 0.930 1_565 S
H163 C135 0.931 . S
H164 C153 0.930 . S
H165 C154 0.930 . S
H166 C155 0.930 . S
H167 C156 0.931 . S
Eu168 C177 2.828 . S
Eu168 O179 2.392 . S
Eu168 O181 2.418 . S
Eu168 O186 2.373 . S
Eu168 O189 2.488 . S
Eu168 O190 2.471 . S
Eu168 O191 2.349 . S
Eu169 O178 2.373 . S
Eu169 O182 2.488 . S
Eu169 O183 2.471 . S
Eu169 O184 2.349 . S
Eu169 O187 2.392 . S
Eu169 O188 2.418 . S
Eu169 C198 2.828 . S
C170 O188 1.244 . S
C170 O191 1.265 . S
C171 C172 1.379 . S
C171 C175 1.373 . S
C171 C177 1.505 . S
C172 C171 1.379 . S
C172 C174 1.369 . S
C172 H200 0.930 . S
C173 C175 1.383 . S
C173 C176 1.382 . S
C173 H201 0.930 . S
C174 C172 1.369 . S
C174 C176 1.392 . S
C174 H202 0.930 . S
C175 C171 1.373 . S
C175 C173 1.383 . S
C175 H203 0.931 . S
C176 C173 1.382 . S
C176 C174 1.392 . S
C177 Eu168 2.828 . S
C177 C171 1.505 . S
C177 O189 1.249 . S
C177 O190 1.244 . S
O178 Eu169 2.373 . S
O178 C180 1.258 . S
O179 Eu168 2.392 . S
O179 C180 1.242 . S
C180 O178 1.258 . S
C180 O179 1.242 . S
O181 Eu168 2.418 . S
O181 C185 1.244 . S
O182 Eu169 2.488 . S
O182 C198 1.249 . S
O183 Eu169 2.471 . S
O183 C198 1.244 . S
O184 Eu169 2.349 . S
O184 C185 1.265 . S
C185 O181 1.244 . S
C185 O184 1.265 . S
O186 Eu168 2.373 . S
O186 C199 1.258 . S
O187 Eu169 2.392 . S
O187 C199 1.242 . S
O188 Eu169 2.418 . S
O188 C170 1.244 . S
O189 Eu168 2.488 . S
O189 C177 1.249 . S
O190 Eu168 2.471 . S
O190 C177 1.244 . S
O191 Eu168 2.349 . S
O191 C170 1.265 . S
C192 C193 1.379 . S
C192 C196 1.373 . S
C192 C198 1.505 . S
C193 C192 1.379 . S
C193 C195 1.369 . S
C193 H204 0.930 . S
C194 C196 1.383 . S
C194 C197 1.382 . S
C194 H205 0.930 . S
C195 C193 1.369 . S
C195 C197 1.392 . S
C195 H206 0.930 . S
C196 C192 1.373 . S
C196 C194 1.383 . S
C196 H207 0.931 . S
C197 C194 1.382 . S
C197 C195 1.392 . S
C198 Eu169 2.828 . S
C198 O182 1.249 . S
C198 O183 1.244 . S
C198 C192 1.505 . S
C199 O186 1.258 . S
C199 O187 1.242 . S
H200 C172 0.930 . S
H201 C173 0.930 . S
H202 C174 0.930 . S
H203 C175 0.931 . S
H204 C193 0.930 . S
H205 C194 0.930 . S
H206 C195 0.930 . S
H207 C196 0.931 . S
Eu208 C217 2.828 . S
Eu208 O219 2.392 . S
Eu208 O221 2.418 1_455 S
Eu208 O226 2.373 . S
Eu208 O229 2.488 . S
Eu208 O230 2.471 . S
Eu208 O231 2.349 . S
Eu209 O218 2.373 . S
Eu209 O222 2.488 . S
Eu209 O223 2.471 . S
Eu209 O224 2.349 . S
Eu209 O227 2.392 1_655 S
Eu209 O228 2.418 1_655 S
Eu209 C238 2.828 . S
C210 O228 1.244 . S
C210 O231 1.265 . S
C211 C212 1.379 . S
C211 C215 1.373 . S
C211 C217 1.505 . S
C212 C211 1.379 . S
C212 C214 1.369 . S
C212 H240 0.930 . S
C213 C215 1.383 . S
C213 C216 1.382 . S
C213 H241 0.930 . S
C214 C212 1.369 . S
C214 C216 1.392 . S
C214 H242 0.930 . S
C215 C211 1.373 . S
C215 C213 1.383 . S
C215 H243 0.931 . S
C216 C213 1.382 . S
C216 C214 1.392 . S
C217 Eu208 2.828 . S
C217 C211 1.505 . S
C217 O229 1.249 . S
C217 O230 1.244 . S
O218 Eu209 2.373 . S
O218 C220 1.258 1_655 S
O219 Eu208 2.392 . S
O219 C220 1.242 . S
C220 O218 1.258 1_455 S
C220 O219 1.242 . S
O221 Eu208 2.418 1_655 S
O221 C225 1.244 . S
O222 Eu209 2.488 . S
O222 C238 1.249 . S
O223 Eu209 2.471 . S
O223 C238 1.244 . S
O224 Eu209 2.349 . S
O224 C225 1.265 . S
C225 O221 1.244 . S
C225 O224 1.265 . S
O226 Eu208 2.373 . S
O226 C239 1.258 . S
O227 Eu209 2.392 1_455 S
O227 C239 1.242 . S
O228 Eu209 2.418 1_455 S
O228 C210 1.244 . S
O229 Eu208 2.488 . S
O229 C217 1.249 . S
O230 Eu208 2.471 . S
O230 C217 1.244 . S
O231 Eu208 2.349 . S
O231 C210 1.265 . S
C232 C233 1.379 . S
C232 C236 1.373 . S
C232 C238 1.505 . S
C233 C232 1.379 . S
C233 C235 1.369 . S
C233 H244 0.930 . S
C234 C236 1.383 . S
C234 C237 1.382 . S
C234 H245 0.930 . S
C235 C233 1.369 . S
C235 C237 1.392 . S
C235 H246 0.930 . S
C236 C232 1.373 . S
C236 C234 1.383 . S
C236 H247 0.931 . S
C237 C234 1.382 . S
C237 C235 1.392 . S
C238 Eu209 2.828 . S
C238 O222 1.249 . S
C238 O223 1.244 . S
C238 C232 1.505 . S
C239 O226 1.258 . S
C239 O227 1.242 . S
H240 C212 0.930 . S
H241 C213 0.930 . S
H242 C214 0.930 . S
H243 C215 0.931 . S
H244 C233 0.930 . S
H245 C234 0.930 . S
H246 C235 0.930 . S
H247 C236 0.931 . S
H248 C266 0.951 . S
H249 C268 0.951 . S
H250 C270 0.950 . S
H251 C271 0.950 . S
H252 C273 0.950 . S
H253 C276 0.950 . S
H254 C277 0.950 . S
H255 C279 0.950 . S
H256 C280 0.950 . S
H257 C281 0.951 . S
H258 C283 0.951 . S
H259 C285 0.950 . S
H260 C286 0.950 . S
H261 C288 0.950 . S
H262 C291 0.950 . S
H263 C292 0.950 . S
H264 C294 0.950 . S
H265 C295 0.965 . S
C266 H248 0.951 . S
C266 C267 1.366 . S
C266 C268 1.388 . S
C267 C266 1.366 . S
C267 C271 1.385 . S
C268 H249 0.951 . S
C268 C266 1.388 . S
C268 C269 1.366 . S
C269 C268 1.366 . S
C269 C270 1.414 . S
C269 C272 1.499 . S
C270 H250 0.950 . S
C270 C269 1.414 . S
C270 C271 1.374 . S
C271 H251 0.950 . S
C271 C267 1.385 . S
C271 C270 1.374 . S
C272 C269 1.499 . S
C272 C273 1.373 . S
C272 C274 1.389 . S
C273 H252 0.950 . S
C273 C272 1.373 . S
C273 C289 1.377 . S
C274 C272 1.389 . S
C274 C275 1.524 . S
C274 C288 1.377 . S
C275 C274 1.524 . S
C275 C276 1.397 . S
C275 C280 1.363 . S
C276 H253 0.950 . S
C276 C275 1.397 . S
C276 C277 1.334 . S
C277 H254 0.950 . S
C277 C276 1.334 . S
C277 C278 1.287 . S
C278 C277 1.287 . S
C278 C279 1.524 . S
C278 H297 0.913 . S
C279 H255 0.950 . S
C279 C278 1.524 . S
C279 C280 1.415 . S
C280 H256 0.950 . S
C280 C275 1.363 . S
C280 C279 1.415 . S
C281 H257 0.951 . S
C281 C282 1.366 . S
C281 C283 1.388 . S
C282 C281 1.366 . S
C282 C286 1.385 . S
C283 H258 0.951 . S
C283 C281 1.388 . S
C283 C284 1.366 . S
C284 C283 1.366 . S
C284 C285 1.414 . S
C284 C287 1.499 . S
C285 H259 0.950 . S
C285 C284 1.414 . S
C285 C286 1.374 . S
C286 H260 0.950 . S
C286 C282 1.385 . S
C286 C285 1.374 . S
C287 C284 1.499 . S
C287 C288 1.373 . S
C287 C289 1.389 . S
C288 H261 0.950 . S
C288 C274 1.377 . S
C288 C287 1.373 . S
C289 C273 1.377 . S
C289 C287 1.389 . S
C289 C290 1.524 1_545 S
C290 C289 1.524 1_565 S
C290 C291 1.397 . S
C290 C295 1.363 . S
C291 H262 0.950 . S
C291 C290 1.397 . S
C291 C292 1.334 . S
C292 H263 0.950 . S
C292 C291 1.334 . S
C292 C293 1.287 . S
C293 C292 1.287 . S
C293 C294 1.524 . S
C293 H296 0.999 . S
C294 H264 0.950 . S
C294 C293 1.524 . S
C294 C295 1.415 . S
C295 H265 0.965 . S
C295 C290 1.363 . S
C295 C294 1.415 . S
H296 C293 0.999 . S
H297 C278 0.913 . S
H298 C316 0.951 . S
H299 C318 0.951 . S
H300 C320 0.950 . S
H301 C321 0.950 . S
H302 C323 0.950 . S
H303 C326 0.950 . S
H304 C327 0.950 . S
H305 C329 0.950 . S
H306 C330 0.950 . S
H307 C331 0.951 . S
H308 C333 0.951 . S
H309 C335 0.950 . S
H310 C336 0.950 . S
H311 C338 0.950 . S
H312 C341 0.950 . S
H313 C342 0.950 . S
H314 C344 0.950 . S
H315 C345 0.950 . S
C316 H298 0.951 . S
C316 C317 1.366 . S
C316 C318 1.388 . S
C317 C316 1.366 . S
C317 C321 1.385 . S
C318 H299 0.951 . S
C318 C316 1.388 . S
C318 C319 1.366 . S
C319 C318 1.366 . S
C319 C320 1.414 . S
C319 C322 1.499 . S
C320 H300 0.950 . S
C320 C319 1.414 . S
C320 C321 1.374 . S
C321 H301 0.950 . S
C321 C317 1.385 . S
C321 C320 1.374 . S
C322 C319 1.499 . S
C322 C323 1.373 . S
C322 C324 1.389 . S
C323 H302 0.950 . S
C323 C322 1.373 . S
C323 C339 1.377 . S
C324 C322 1.389 . S
C324 C325 1.524 . S
C324 C338 1.377 . S
C325 C324 1.524 . S
C325 C326 1.397 . S
C325 C330 1.363 . S
C326 H303 0.950 . S
C326 C325 1.397 . S
C326 C327 1.334 . S
C327 H304 0.950 . S
C327 C326 1.334 . S
C327 C328 1.287 . S
C328 C327 1.287 . S
C328 C329 1.524 . S
C328 H347 0.913 . S
C329 H305 0.950 . S
C329 C328 1.524 . S
C329 C330 1.415 . S
C330 H306 0.950 . S
C330 C325 1.363 . S
C330 C329 1.415 . S
C331 H307 0.951 . S
C331 C332 1.366 . S
C331 C333 1.388 . S
C332 C331 1.366 . S
C332 C336 1.385 . S
C333 H308 0.951 . S
C333 C331 1.388 . S
C333 C334 1.366 . S
C334 C333 1.366 . S
C334 C335 1.414 . S
C334 C337 1.499 . S
C335 H309 0.950 . S
C335 C334 1.414 . S
C335 C336 1.374 . S
C336 H310 0.950 . S
C336 C332 1.385 . S
C336 C335 1.374 . S
C337 C334 1.499 . S
C337 C338 1.373 . S
C337 C339 1.389 . S
C338 H311 0.950 . S
C338 C324 1.377 . S
C338 C337 1.373 . S
C339 C323 1.377 . S
C339 C337 1.389 . S
C339 C340 1.524 . S
C340 C339 1.524 . S
C340 C341 1.397 . S
C340 C345 1.363 . S
C341 H312 0.950 . S
C341 C340 1.397 . S
C341 C342 1.334 . S
C342 H313 0.950 . S
C342 C341 1.334 . S
C342 C343 1.287 . S
C343 C342 1.287 . S
C343 C344 1.524 . S
C343 H346 0.999 . S
C344 H314 0.950 . S
C344 C343 1.524 . S
C344 C345 1.415 . S
C345 H315 0.950 . S
C345 C340 1.363 . S
C345 C344 1.415 . S
H346 C343 0.999 . S
H347 C328 0.913 . S
H348 C366 0.951 . S
H349 C368 0.951 . S
H350 C370 0.950 . S
H351 C371 0.950 . S
H352 C373 0.950 . S
H353 C376 0.950 . S
H354 C377 0.950 . S
H355 C379 0.950 . S
H356 C380 0.950 . S
H357 C381 0.951 . S
H358 C383 0.951 . S
H359 C385 0.950 . S
H360 C386 0.950 . S
H361 C388 0.950 . S
H362 C391 0.950 . S
H363 C392 0.950 . S
H364 C394 0.950 . S
H365 C395 0.950 . S
C366 H348 0.951 . S
C366 C367 1.366 . S
C366 C368 1.388 . S
C367 C366 1.366 . S
C367 C371 1.385 . S
C368 H349 0.951 . S
C368 C366 1.388 . S
C368 C369 1.366 . S
C369 C368 1.366 . S
C369 C370 1.414 . S
C369 C372 1.499 . S
C370 H350 0.950 . S
C370 C369 1.414 . S
C370 C371 1.374 . S
C371 H351 0.950 . S
C371 C367 1.385 . S
C371 C370 1.374 . S
C372 C369 1.499 . S
C372 C373 1.373 . S
C372 C374 1.389 . S
C373 H352 0.950 . S
C373 C372 1.373 . S
C373 C389 1.377 . S
C374 C372 1.389 . S
C374 C375 1.524 . S
C374 C388 1.377 . S
C375 C374 1.524 . S
C375 C376 1.397 . S
C375 C380 1.363 . S
C376 H353 0.950 . S
C376 C375 1.397 . S
C376 C377 1.334 . S
C377 H354 0.950 . S
C377 C376 1.334 . S
C377 C378 1.287 . S
C378 C377 1.287 . S
C378 C379 1.524 . S
C378 H397 0.913 . S
C379 H355 0.950 . S
C379 C378 1.524 . S
C379 C380 1.415 . S
C380 H356 0.950 . S
C380 C375 1.363 . S
C380 C379 1.415 . S
C381 H357 0.951 . S
C381 C382 1.366 . S
C381 C383 1.388 . S
C382 C381 1.366 . S
C382 C386 1.385 . S
C383 H358 0.951 . S
C383 C381 1.388 . S
C383 C384 1.366 . S
C384 C383 1.366 . S
C384 C385 1.414 . S
C384 C387 1.499 . S
C385 H359 0.950 . S
C385 C384 1.414 . S
C385 C386 1.374 . S
C386 H360 0.950 . S
C386 C382 1.385 . S
C386 C385 1.374 . S
C387 C384 1.499 . S
C387 C388 1.373 . S
C387 C389 1.389 . S
C388 H361 0.950 . S
C388 C374 1.377 . S
C388 C387 1.373 . S
C389 C373 1.377 . S
C389 C387 1.389 . S
C389 C390 1.524 . S
C390 C389 1.524 . S
C390 C391 1.397 . S
C390 C395 1.363 . S
C391 H362 0.950 . S
C391 C390 1.397 . S
C391 C392 1.334 . S
C392 H363 0.950 . S
C392 C391 1.334 . S
C392 C393 1.287 . S
C393 C392 1.287 . S
C393 C394 1.524 . S
C393 H396 0.999 . S
C394 H364 0.950 . S
C394 C393 1.524 . S
C394 C395 1.415 . S
C395 H365 0.950 . S
C395 C390 1.363 . S
C395 C394 1.415 . S
H396 C393 0.999 . S
H397 C378 0.913 . S
H398 C416 0.951 . S
H399 C418 0.951 . S
H400 C420 0.950 . S
H401 C421 0.950 . S
H402 C423 0.950 . S
H403 C426 0.991 . S
H404 C427 0.950 . S
H405 C429 0.950 . S
H406 C430 0.950 . S
H407 C431 0.951 . S
H408 C433 0.951 . S
H409 C435 0.950 . S
H410 C436 0.954 1_655 S
H411 C438 0.950 . S
H412 C441 0.950 . S
H413 C442 0.950 . S
H414 C444 0.950 . S
H415 C445 0.950 . S
C416 H398 0.951 . S
C416 C417 1.366 . S
C416 C418 1.388 . S
C417 C416 1.366 . S
C417 C421 1.385 . S
C418 H399 0.951 . S
C418 C416 1.388 . S
C418 C419 1.366 . S
C419 C418 1.366 . S
C419 C420 1.414 . S
C419 C422 1.499 . S
C420 H400 0.950 . S
C420 C419 1.414 . S
C420 C421 1.374 . S
C421 H401 0.950 . S
C421 C417 1.385 . S
C421 C420 1.374 . S
C422 C419 1.499 . S
C422 C423 1.373 . S
C422 C424 1.389 . S
C423 H402 0.950 . S
C423 C422 1.373 . S
C423 C439 1.377 . S
C424 C422 1.389 . S
C424 C425 1.522 . S
C424 C438 1.377 . S
C425 C424 1.522 . S
C425 C426 1.393 . S
C425 C430 1.366 1_455 S
C426 H403 0.991 . S
C426 C425 1.393 . S
C426 C427 1.299 1_455 S
C427 H404 0.950 . S
C427 C426 1.299 1_655 S
C427 C428 1.287 . S
C428 C427 1.287 . S
C428 C429 1.524 . S
C428 H447 0.913 . S
C429 H405 0.950 . S
C429 C428 1.524 . S
C429 C430 1.415 . S
C430 H406 0.950 . S
C430 C425 1.366 1_655 S
C430 C429 1.415 . S
C431 H407 0.951 . S
C431 C432 1.366 . S
C431 C433 1.388 . S
C432 C431 1.366 . S
C432 C436 1.385 . S
C433 H408 0.951 . S
C433 C431 1.388 . S
C433 C434 1.366 . S
C434 C433 1.366 . S
C434 C435 1.414 . S
C434 C437 1.499 . S
C435 H409 0.950 . S
C435 C434 1.414 . S
C435 C436 1.374 . S
C436 H410 0.954 1_455 S
C436 C432 1.385 . S
C436 C435 1.374 . S
C437 C434 1.499 . S
C437 C438 1.373 . S
C437 C439 1.389 . S
C438 H411 0.950 . S
C438 C424 1.377 . S
C438 C437 1.373 . S
C439 C423 1.377 . S
C439 C437 1.389 . S
C439 C440 1.524 . S
C440 C439 1.524 . S
C440 C441 1.397 . S
C440 C445 1.363 . S
C441 H412 0.950 . S
C441 C440 1.397 . S
C441 C442 1.334 . S
C442 H413 0.950 . S
C442 C441 1.334 . S
C442 C443 1.287 . S
C443 C442 1.287 . S
C443 C444 1.524 . S
C443 H446 0.999 . S
C444 H414 0.950 . S
C444 C443 1.524 . S
C444 C445 1.415 . S
C445 H415 0.950 . S
C445 C440 1.363 . S
C445 C444 1.415 . S
H446 C443 0.999 . S
H447 C428 0.913 . S
H448 C466 0.951 . S
H449 C468 0.951 . S
H450 C470 0.950 . S
H451 C471 0.950 . S
H452 C473 0.950 . S
H453 C476 0.950 . S
H454 C477 0.950 . S
H455 C479 0.950 . S
H456 C480 0.950 . S
H457 C481 0.951 . S
H458 C483 0.951 . S
H459 C485 0.950 . S
H460 C486 0.950 . S
H461 C488 0.950 . S
H462 C491 0.950 . S
H463 C492 0.950 . S
H464 C494 0.950 1_554 S
H465 C495 0.950 . S
C466 H448 0.951 . S
C466 C467 1.366 . S
C466 C468 1.388 . S
C467 C466 1.366 . S
C467 C471 1.385 . S
C468 H449 0.951 . S
C468 C466 1.388 . S
C468 C469 1.366 . S
C469 C468 1.366 . S
C469 C470 1.414 . S
C469 C472 1.499 . S
C470 H450 0.950 . S
C470 C469 1.414 . S
C470 C471 1.374 . S
C471 H451 0.950 . S
C471 C467 1.385 . S
C471 C470 1.374 . S
C472 C469 1.499 . S
C472 C473 1.373 1_565 S
C472 C474 1.389 . S
C473 H452 0.950 . S
C473 C472 1.373 1_545 S
C473 C489 1.377 1_554 S
C474 C472 1.389 . S
C474 C475 1.524 . S
C474 C488 1.377 1_554 S
C475 C474 1.524 . S
C475 C476 1.397 . S
C475 C480 1.363 1_554 S
C476 H453 0.950 . S
C476 C475 1.397 . S
C476 C477 1.334 . S
C477 H454 0.950 . S
C477 C476 1.334 . S
C477 C478 1.287 . S
C478 C477 1.287 . S
C478 C479 1.524 1_554 S
C478 H497 0.913 . S
C479 H455 0.950 . S
C479 C478 1.524 1_556 S
C479 C480 1.415 . S
C480 H456 0.950 . S
C480 C475 1.363 1_556 S
C480 C479 1.415 . S
C481 H457 0.951 . S
C481 C482 1.345 1_545 S
C481 C483 1.388 . S
C482 C481 1.345 1_565 S
C482 C486 1.412 . S
C483 H458 0.951 . S
C483 C481 1.388 . S
C483 C484 1.366 1_545 S
C484 C483 1.366 1_565 S
C484 C485 1.414 . S
C484 C487 1.499 . S
C485 H459 0.950 . S
C485 C484 1.414 . S
C485 C486 1.374 . S
C486 H460 0.950 . S
C486 C482 1.412 . S
C486 C485 1.374 . S
C487 C484 1.499 . S
C487 C488 1.373 . S
C487 C489 1.389 1_565 S
C488 H461 0.950 . S
C488 C474 1.377 1_556 S
C488 C487 1.373 . S
C489 C473 1.377 1_556 S
C489 C487 1.389 1_545 S
C489 C490 1.524 . S
C490 C489 1.524 . S
C490 C491 1.397 . S
C490 C495 1.363 1_556 S
C491 H462 0.950 . S
C491 C490 1.397 . S
C491 C492 1.334 . S
C492 H463 0.950 . S
C492 C491 1.334 . S
C492 C493 1.287 . S
C493 C492 1.287 . S
C493 C494 1.524 . S
C493 H496 0.999 . S
C494 H464 0.950 1_556 S
C494 C493 1.524 . S
C494 C495 1.415 1_556 S
C495 H465 0.950 . S
C495 C490 1.363 1_554 S
C495 C494 1.415 1_554 S
H496 C493 0.999 . S
H497 C478 0.913 . S
H498 C516 0.951 . S
H499 C518 0.951 . S
H500 C520 0.950 . S
H501 C521 0.950 . S
H502 C523 0.950 . S
H503 C526 0.950 . S
H504 C527 0.950 . S
H505 C529 0.950 . S
H506 C530 0.950 . S
H507 C531 0.951 . S
H508 C533 0.951 . S
H509 C535 0.950 . S
H510 C536 0.950 . S
H511 C538 0.950 . S
H512 C541 0.950 . S
H513 C542 0.950 . S
H514 C544 0.950 . S
H515 C545 0.950 . S
C516 H498 0.951 . S
C516 C517 1.366 . S
C516 C518 1.388 . S
C517 C516 1.366 . S
C517 C521 1.385 . S
C518 H499 0.951 . S
C518 C516 1.388 . S
C518 C519 1.366 . S
C519 C518 1.366 . S
C519 C520 1.414 . S
C519 C522 1.499 . S
C520 H500 0.950 . S
C520 C519 1.414 . S
C520 C521 1.374 . S
C521 H501 0.950 . S
C521 C517 1.385 . S
C521 C520 1.374 . S
C522 C519 1.499 . S
C522 C523 1.373 1_554 S
C522 C524 1.389 . S
C523 H502 0.950 . S
C523 C522 1.373 1_556 S
C523 C539 1.377 . S
C524 C522 1.389 . S
C524 C525 1.524 . S
C524 C538 1.377 1_554 S
C525 C524 1.524 . S
C525 C526 1.397 . S
C525 C530 1.363 . S
C526 H503 0.950 . S
C526 C525 1.397 . S
C526 C527 1.334 . S
C527 H504 0.950 . S
C527 C526 1.334 . S
C527 C528 1.287 . S
C528 C527 1.287 . S
C528 C529 1.524 . S
C528 H547 0.913 . S
C529 H505 0.950 . S
C529 C528 1.524 . S
C529 C530 1.415 . S
C530 H506 0.950 . S
C530 C525 1.363 . S
C530 C529 1.415 . S
C531 H507 0.951 . S
C531 C532 1.366 . S
C531 C533 1.388 . S
C532 C531 1.366 . S
C532 C536 1.385 . S
C533 H508 0.951 . S
C533 C531 1.388 . S
C533 C534 1.366 . S
C534 C533 1.366 . S
C534 C535 1.414 . S
C534 C537 1.499 . S
C535 H509 0.950 . S
C535 C534 1.414 . S
C535 C536 1.374 . S
C536 H510 0.950 . S
C536 C532 1.385 . S
C536 C535 1.374 . S
C537 C534 1.499 . S
C537 C538 1.373 . S
C537 C539 1.389 . S
C538 H511 0.950 . S
C538 C524 1.377 1_556 S
C538 C537 1.373 . S
C539 C523 1.377 . S
C539 C537 1.389 . S
C539 C540 1.524 . S
C540 C539 1.524 . S
C540 C541 1.397 . S
C540 C545 1.363 . S
C541 H512 0.950 . S
C541 C540 1.397 . S
C541 C542 1.334 . S
C542 H513 0.950 . S
C542 C541 1.334 . S
C542 C543 1.287 . S
C543 C542 1.287 . S
C543 C544 1.524 . S
C543 H546 0.999 . S
C544 H514 0.950 . S
C544 C543 1.524 . S
C544 C545 1.415 . S
C545 H515 0.950 . S
C545 C540 1.363 . S
C545 C544 1.415 . S
H546 C543 0.999 . S
H547 C528 0.913 . S
H548 C566 0.951 . S
H549 C568 0.951 . S
H550 C570 0.950 . S
H551 C571 0.950 . S
H552 C573 0.950 . S
H553 C576 0.950 . S
H554 C577 0.950 . S
H555 C579 0.950 . S
H556 C580 0.950 1_556 S
H557 C581 0.951 . S
H558 C583 0.951 . S
H559 C585 0.950 . S
H560 C586 0.950 . S
H561 C588 0.950 . S
H562 C591 0.950 . S
H563 C592 0.950 . S
H564 C594 0.950 . S
H565 C595 0.950 . S
C566 H548 0.951 . S
C566 C567 1.366 . S
C566 C568 1.388 . S
C567 C566 1.366 . S
C567 C571 1.385 . S
C568 H549 0.951 . S
C568 C566 1.388 . S
C568 C569 1.366 . S
C569 C568 1.366 . S
C569 C570 1.414 . S
C569 C572 1.499 1_554 S
C570 H550 0.950 . S
C570 C569 1.414 . S
C570 C571 1.374 . S
C571 H551 0.950 . S
C571 C567 1.385 . S
C571 C570 1.374 . S
C572 C569 1.499 1_556 S
C572 C573 1.373 . S
C572 C574 1.389 . S
C573 H552 0.950 . S
C573 C572 1.373 . S
C573 C589 1.377 . S
C574 C572 1.389 . S
C574 C575 1.524 1_556 S
C574 C588 1.377 . S
C575 C574 1.524 1_554 S
C575 C576 1.397 . S
C575 C580 1.363 . S
C576 H553 0.950 . S
C576 C575 1.397 . S
C576 C577 1.334 . S
C577 H554 0.950 . S
C577 C576 1.334 . S
C577 C578 1.287 . S
C578 C577 1.287 . S
C578 C579 1.524 . S
C578 H597 0.913 . S
C579 H555 0.950 . S
C579 C578 1.524 . S
C579 C580 1.415 . S
C580 H556 0.950 1_554 S
C580 C575 1.363 . S
C580 C579 1.415 . S
C581 H557 0.951 . S
C581 C582 1.366 . S
C581 C583 1.388 . S
C582 C581 1.366 . S
C582 C586 1.385 . S
C583 H558 0.951 . S
C583 C581 1.388 . S
C583 C584 1.366 . S
C584 C583 1.366 . S
C584 C585 1.414 . S
C584 C587 1.499 . S
C585 H559 0.950 . S
C585 C584 1.414 . S
C585 C586 1.374 . S
C586 H560 0.950 . S
C586 C582 1.385 . S
C586 C585 1.374 . S
C587 C584 1.499 . S
C587 C588 1.373 . S
C587 C589 1.389 . S
C588 H561 0.950 . S
C588 C574 1.377 . S
C588 C587 1.373 . S
C589 C573 1.377 . S
C589 C587 1.389 . S
C589 C590 1.524 . S
C590 C589 1.524 . S
C590 C591 1.397 . S
C590 C595 1.363 . S
C591 H562 0.950 . S
C591 C590 1.397 . S
C591 C592 1.334 . S
C592 H563 0.950 . S
C592 C591 1.334 . S
C592 C593 1.287 . S
C593 C592 1.287 . S
C593 C594 1.524 . S
C593 H596 0.999 . S
C594 H564 0.950 . S
C594 C593 1.524 . S
C594 C595 1.415 . S
C595 H565 0.950 . S
C595 C590 1.363 . S
C595 C594 1.415 . S
H596 C593 0.999 . S
H597 C578 0.913 . S
H598 C616 0.951 . S
H599 C618 0.951 1_455 S
H600 C620 0.950 . S
H601 C621 0.950 . S
H602 C623 0.950 . S
H603 C626 0.950 1_655 S
H604 C627 0.950 . S
H605 C629 0.951 . S
H606 C630 0.949 1_554 S
H607 C631 0.951 . S
H608 C633 0.951 . S
H609 C635 0.950 . S
H610 C636 0.950 . S
H611 C638 0.931 1_455 S
H612 C641 0.950 . S
H613 C642 0.950 . S
H614 C644 0.950 . S
H615 C645 0.950 . S
C616 H598 0.951 . S
C616 C617 1.366 . S
C616 C618 1.388 . S
C617 C616 1.366 . S
C617 C621 1.385 . S
C618 H599 0.951 1_655 S
C618 C616 1.388 . S
C618 C619 1.366 . S
C619 C618 1.366 . S
C619 C620 1.414 . S
C619 C622 1.499 . S
C620 H600 0.950 . S
C620 C619 1.414 . S
C620 C621 1.374 . S
C621 H601 0.950 . S
C621 C617 1.385 . S
C621 C620 1.374 . S
C622 C619 1.499 . S
C622 C623 1.373 . S
C622 C624 1.389 1_554 S
C623 H602 0.950 . S
C623 C622 1.373 . S
C623 C639 1.377 1_554 S
C624 C622 1.389 1_556 S
C624 C625 1.524 1_655 S
C624 C638 1.381 . S
C625 C624 1.524 1_455 S
C625 C626 1.397 . S
C625 C630 1.364 . S
C626 H603 0.950 1_455 S
C626 C625 1.397 . S
C626 C627 1.334 . S
C627 H604 0.950 . S
C627 C626 1.334 . S
C627 C628 1.287 . S
C628 C627 1.287 . S
C628 C629 1.522 1_556 S
C628 H647 0.913 . S
C629 H605 0.951 . S
C629 C628 1.522 1_554 S
C629 C630 1.416 1_554 S
C630 H606 0.949 1_556 S
C630 C625 1.364 . S
C630 C629 1.416 1_556 S
C631 H607 0.951 . S
C631 C632 1.366 . S
C631 C633 1.388 . S
C632 C631 1.366 . S
C632 C636 1.385 1_655 S
C633 H608 0.951 . S
C633 C631 1.388 . S
C633 C634 1.366 . S
C634 C633 1.366 . S
C634 C635 1.414 1_655 S
C634 C637 1.499 . S
C635 H609 0.950 . S
C635 C634 1.414 1_455 S
C635 C636 1.374 . S
C636 H610 0.950 . S
C636 C632 1.385 1_455 S
C636 C635 1.374 . S
C637 C634 1.499 . S
C637 C638 1.387 . S
C637 C639 1.389 . S
C638 H611 0.931 1_655 S
C638 C624 1.381 . S
C638 C637 1.387 . S
C639 C623 1.377 1_556 S
C639 C637 1.389 . S
C639 C640 1.524 . S
C640 C639 1.524 . S
C640 C641 1.397 . S
C640 C645 1.363 . S
C641 H612 0.950 . S
C641 C640 1.397 . S
C641 C642 1.334 . S
C642 H613 0.950 . S
C642 C641 1.334 . S
C642 C643 1.287 . S
C643 C642 1.287 . S
C643 C644 1.524 . S
C643 H646 0.999 . S
C644 H614 0.950 . S
C644 C643 1.524 . S
C644 C645 1.415 . S
C645 H615 0.950 . S
C645 C640 1.363 . S
C645 C644 1.415 . S
H646 C643 0.999 . S
H647 C628 0.913 . S
H648 C666 0.951 . S
H649 C668 0.951 . S
H650 C670 0.950 . S
H651 C671 0.950 . S
H652 C673 0.950 . S
H653 C676 0.950 . S
H654 C677 0.950 1_556 S
H655 C679 0.950 . S
H656 C680 0.950 . S
H657 C681 0.951 . S
H658 C683 0.922 1_655 S
H659 C685 0.950 . S
H660 C686 0.950 . S
H661 C688 0.950 . S
H662 C691 0.950 . S
H663 C692 0.942 1_455 S
H664 C694 0.950 . S
H665 C695 0.950 . S
C666 H648 0.951 . S
C666 C667 1.366 . S
C666 C668 1.388 . S
C667 C666 1.366 . S
C667 C671 1.385 . S
C668 H649 0.951 . S
C668 C666 1.388 . S
C668 C669 1.366 . S
C669 C668 1.366 . S
C669 C670 1.414 . S
C669 C672 1.499 . S
C670 H650 0.950 . S
C670 C669 1.414 . S
C670 C671 1.374 . S
C671 H651 0.950 . S
C671 C667 1.385 . S
C671 C670 1.374 . S
C672 C669 1.499 . S
C672 C673 1.373 . S
C672 C674 1.389 . S
C673 H652 0.950 . S
C673 C672 1.373 . S
C673 C689 1.377 . S
C674 C672 1.389 . S
C674 C675 1.524 . S
C674 C688 1.377 . S
C675 C674 1.524 . S
C675 C676 1.397 . S
C675 C680 1.363 . S
C676 H653 0.950 . S
C676 C675 1.397 . S
C676 C677 1.334 . S
C677 H654 0.950 1_554 S
C677 C676 1.334 . S
C677 C678 1.287 . S
C678 C677 1.287 . S
C678 C679 1.524 . S
C678 H697 0.913 1_554 S
C679 H655 0.950 . S
C679 C678 1.524 . S
C679 C680 1.415 . S
C680 H656 0.950 . S
C680 C675 1.363 . S
C680 C679 1.415 . S
C681 H657 0.951 . S
C681 C682 1.366 1_655 S
C681 C683 1.376 1_655 S
C682 C681 1.366 1_455 S
C682 C686 1.385 . S
C683 H658 0.922 1_455 S
C683 C681 1.376 1_455 S
C683 C684 1.407 . S
C684 C683 1.407 . S
C684 C685 1.414 . S
C684 C687 1.499 . S
C685 H659 0.950 . S
C685 C684 1.414 . S
C685 C686 1.374 . S
C686 H660 0.950 . S
C686 C682 1.385 . S
C686 C685 1.374 . S
C687 C684 1.499 . S
C687 C688 1.373 . S
C687 C689 1.389 . S
C688 H661 0.950 . S
C688 C674 1.377 . S
C688 C687 1.373 . S
C689 C673 1.377 . S
C689 C687 1.389 . S
C689 C690 1.524 . S
C690 C689 1.524 . S
C690 C691 1.397 . S
C690 C695 1.363 1_455 S
C691 H662 0.950 . S
C691 C690 1.397 . S
C691 C692 1.310 1_455 S
C692 H663 0.942 1_655 S
C692 C691 1.310 1_655 S
C692 C693 1.321 . S
C693 C692 1.321 . S
C693 C694 1.524 . S
C693 H696 0.999 . S
C694 H664 0.950 . S
C694 C693 1.524 . S
C694 C695 1.415 . S
C695 H665 0.950 . S
C695 C690 1.363 1_655 S
C695 C694 1.415 . S
H696 C693 0.999 . S
H697 C678 0.913 1_556 S
H698 C716 0.951 . S
H699 C718 0.951 . S
H700 C720 0.950 . S
H701 C721 0.950 . S
H702 C723 0.950 . S
H703 C726 0.950 1_545 S
H704 C727 0.950 . S
H705 C729 0.950 . S
H706 C730 0.950 . S
H707 C731 0.951 . S
H708 C733 0.951 . S
H709 C735 0.950 1_565 S
H710 C736 0.950 . S
H711 C738 0.950 1_565 S
H712 C741 0.950 . S
H713 C742 0.950 . S
H714 C744 0.950 . S
H715 C745 0.950 . S
C716 H698 0.951 . S
C716 C717 1.366 . S
C716 C718 1.388 . S
C717 C716 1.366 . S
C717 C721 1.385 . S
C718 H699 0.951 . S
C718 C716 1.388 . S
C718 C719 1.366 . S
C719 C718 1.366 . S
C719 C720 1.414 . S
C719 C722 1.499 . S
C720 H700 0.950 . S
C720 C719 1.414 . S
C720 C721 1.374 . S
C721 H701 0.950 . S
C721 C717 1.385 . S
C721 C720 1.374 . S
C722 C719 1.499 . S
C722 C723 1.373 . S
C722 C724 1.389 . S
C723 H702 0.950 . S
C723 C722 1.373 . S
C723 C739 1.377 . S
C724 C722 1.389 . S
C724 C725 1.524 1_545 S
C724 C738 1.377 . S
C725 C724 1.524 1_565 S
C725 C726 1.397 . S
C725 C730 1.363 . S
C726 H703 0.950 1_565 S
C726 C725 1.397 . S
C726 C727 1.334 . S
C727 H704 0.950 . S
C727 C726 1.334 . S
C727 C728 1.287 . S
C728 C727 1.287 . S
C728 C729 1.524 . S
C728 H747 0.913 . S
C729 H705 0.950 . S
C729 C728 1.524 . S
C729 C730 1.415 . S
C730 H706 0.950 . S
C730 C725 1.363 . S
C730 C729 1.415 . S
C731 H707 0.951 . S
C731 C732 1.366 . S
C731 C733 1.388 . S
C732 C731 1.366 . S
C732 C736 1.385 1_545 S
C733 H708 0.951 . S
C733 C731 1.388 . S
C733 C734 1.366 . S
C734 C733 1.366 . S
C734 C735 1.414 . S
C734 C737 1.499 . S
C735 H709 0.950 1_545 S
C735 C734 1.414 . S
C735 C736 1.374 1_545 S
C736 H710 0.950 . S
C736 C732 1.385 1_565 S
C736 C735 1.374 1_565 S
C737 C734 1.499 . S
C737 C738 1.373 . S
C737 C739 1.389 . S
C738 H711 0.950 1_545 S
C738 C724 1.377 . S
C738 C737 1.373 . S
C739 C723 1.377 . S
C739 C737 1.389 . S
C739 C740 1.524 . S
C740 C739 1.524 . S
C740 C741 1.397 . S
C740 C745 1.363 . S
C741 H712 0.950 . S
C741 C740 1.397 . S
C741 C742 1.334 . S
C742 H713 0.950 . S
C742 C741 1.334 . S
C742 C743 1.287 . S
C743 C742 1.287 . S
C743 C744 1.524 . S
C743 H746 0.999 . S
C744 H714 0.950 . S
C744 C743 1.524 . S
C744 C745 1.415 . S
C745 H715 0.950 . S
C745 C740 1.363 . S
C745 C744 1.415 . S
H746 C743 0.999 . S
H747 C728 0.913 . S
H748 C766 0.951 . S
H749 C768 0.951 . S
H750 C770 0.950 . S
H751 C771 0.950 . S
H752 C773 0.950 . S
H753 C776 0.950 . S
H754 C777 0.950 . S
H755 C779 0.950 . S
H756 C780 0.950 . S
H757 C781 0.951 . S
H758 C783 0.951 . S
H759 C785 0.950 . S
H760 C786 0.950 . S
H761 C788 0.950 . S
H762 C791 0.950 . S
H763 C792 0.950 . S
H764 C794 0.950 . S
H765 C795 0.950 . S
C766 H748 0.951 . S
C766 C767 1.366 . S
C766 C768 1.388 . S
C767 C766 1.366 . S
C767 C771 1.385 . S
C768 H749 0.951 . S
C768 C766 1.388 . S
C768 C769 1.366 . S
C769 C768 1.366 . S
C769 C770 1.414 . S
C769 C772 1.499 . S
C770 H750 0.950 . S
C770 C769 1.414 . S
C770 C771 1.374 . S
C771 H751 0.950 . S
C771 C767 1.385 . S
C771 C770 1.374 . S
C772 C769 1.499 . S
C772 C773 1.373 . S
C772 C774 1.389 . S
C773 H752 0.950 . S
C773 C772 1.373 . S
C773 C789 1.377 . S
C774 C772 1.389 . S
C774 C775 1.524 . S
C774 C788 1.377 . S
C775 C774 1.524 . S
C775 C776 1.397 . S
C775 C780 1.363 . S
C776 H753 0.950 . S
C776 C775 1.397 . S
C776 C777 1.334 . S
C777 H754 0.950 . S
C777 C776 1.334 . S
C777 C778 1.287 . S
C778 C777 1.287 . S
C778 C779 1.524 . S
C778 H797 0.913 1_554 S
C779 H755 0.950 . S
C779 C778 1.524 . S
C779 C780 1.415 . S
C780 H756 0.950 . S
C780 C775 1.363 . S
C780 C779 1.415 . S
C781 H757 0.951 . S
C781 C782 1.366 . S
C781 C783 1.388 . S
C782 C781 1.366 . S
C782 C786 1.385 . S
C783 H758 0.951 . S
C783 C781 1.388 . S
C783 C784 1.366 . S
C784 C783 1.366 . S
C784 C785 1.414 . S
C784 C787 1.499 . S
C785 H759 0.950 . S
C785 C784 1.414 . S
C785 C786 1.374 . S
C786 H760 0.950 . S
C786 C782 1.385 . S
C786 C785 1.374 . S
C787 C784 1.499 . S
C787 C788 1.373 . S
C787 C789 1.389 . S
C788 H761 0.950 . S
C788 C774 1.377 . S
C788 C787 1.373 . S
C789 C773 1.377 . S
C789 C787 1.389 . S
C789 C790 1.524 . S
C790 C789 1.524 . S
C790 C791 1.397 . S
C790 C795 1.363 . S
C791 H762 0.950 . S
C791 C790 1.397 . S
C791 C792 1.334 . S
C792 H763 0.950 . S
C792 C791 1.334 . S
C792 C793 1.287 . S
C793 C792 1.287 . S
C793 C794 1.524 . S
C793 H796 0.999 . S
C794 H764 0.950 . S
C794 C793 1.524 . S
C794 C795 1.415 . S
C795 H765 0.950 . S
C795 C790 1.363 . S
C795 C794 1.415 . S
H796 C793 0.999 . S
H797 C778 0.913 1_556 S
H798 C816 0.951 . S
H799 C818 0.951 . S
H800 C820 0.950 . S
H801 C821 0.950 . S
H802 C823 0.950 . S
H803 C826 0.950 . S
H804 C827 0.950 . S
H805 C829 0.950 . S
H806 C830 0.950 . S
H807 C831 0.951 . S
H808 C833 0.951 . S
H809 C835 0.950 . S
H810 C836 0.950 . S
H811 C838 0.950 . S
H812 C841 0.950 . S
H813 C842 0.950 . S
H814 C844 0.950 . S
H815 C845 0.950 . S
C816 H798 0.951 . S
C816 C817 1.366 . S
C816 C818 1.388 . S
C817 C816 1.366 . S
C817 C821 1.385 . S
C818 H799 0.951 . S
C818 C816 1.388 . S
C818 C819 1.366 . S
C819 C818 1.366 . S
C819 C820 1.414 . S
C819 C822 1.499 . S
C820 H800 0.950 . S
C820 C819 1.414 . S
C820 C821 1.374 . S
C821 H801 0.950 . S
C821 C817 1.385 . S
C821 C820 1.374 . S
C822 C819 1.499 . S
C822 C823 1.373 . S
C822 C824 1.389 . S
C823 H802 0.950 . S
C823 C822 1.373 . S
C823 C839 1.377 . S
C824 C822 1.389 . S
C824 C825 1.524 . S
C824 C838 1.377 . S
C825 C824 1.524 . S
C825 C826 1.397 . S
C825 C830 1.363 . S
C826 H803 0.950 . S
C826 C825 1.397 . S
C826 C827 1.334 . S
C827 H804 0.950 . S
C827 C826 1.334 . S
C827 C828 1.287 . S
C828 C827 1.287 . S
C828 C829 1.524 . S
C828 H847 0.913 . S
C829 H805 0.950 . S
C829 C828 1.524 . S
C829 C830 1.415 . S
C830 H806 0.950 . S
C830 C825 1.363 . S
C830 C829 1.415 . S
C831 H807 0.951 . S
C831 C832 1.366 . S
C831 C833 1.388 . S
C832 C831 1.366 . S
C832 C836 1.385 . S
C833 H808 0.951 . S
C833 C831 1.388 . S
C833 C834 1.366 . S
C834 C833 1.366 . S
C834 C835 1.414 . S
C834 C837 1.499 . S
C835 H809 0.950 . S
C835 C834 1.414 . S
C835 C836 1.374 . S
C836 H810 0.950 . S
C836 C832 1.385 . S
C836 C835 1.374 . S
C837 C834 1.499 . S
C837 C838 1.373 . S
C837 C839 1.389 . S
C838 H811 0.950 . S
C838 C824 1.377 . S
C838 C837 1.373 . S
C839 C823 1.377 . S
C839 C837 1.389 . S
C839 C840 1.524 . S
C840 C839 1.524 . S
C840 C841 1.397 . S
C840 C845 1.363 . S
C841 H812 0.950 . S
C841 C840 1.397 . S
C841 C842 1.334 . S
C842 H813 0.950 . S
C842 C841 1.334 . S
C842 C843 1.287 . S
C843 C842 1.287 . S
C843 C844 1.524 . S
C843 H846 0.999 . S
C844 H814 0.950 . S
C844 C843 1.524 . S
C844 C845 1.415 . S
C845 H815 0.950 . S
C845 C840 1.363 . S
C845 C844 1.415 . S
H846 C843 0.999 . S
H847 C828 0.913 . S
H848 C866 0.951 . S
H849 C868 0.951 . S
H850 C870 0.916 1_455 S
H851 C871 0.950 . S
H852 C873 0.950 1_455 S
H853 C876 0.950 . S
H854 C877 0.950 . S
H855 C879 0.950 . S
H856 C880 0.950 . S
H857 C881 0.951 . S
H858 C883 0.951 . S
H859 C885 0.950 . S
H860 C886 0.950 . S
H861 C888 0.950 . S
H862 C891 0.950 . S
H863 C892 0.950 . S
H864 C894 0.950 . S
H865 C895 0.950 . S
C866 H848 0.951 . S
C866 C867 1.366 . S
C866 C868 1.388 . S
C867 C866 1.366 . S
C867 C871 1.385 . S
C868 H849 0.951 . S
C868 C866 1.388 . S
C868 C869 1.366 . S
C869 C868 1.366 . S
C869 C870 1.414 . S
C869 C872 1.499 . S
C870 H850 0.916 1_655 S
C870 C869 1.414 . S
C870 C871 1.374 . S
C871 H851 0.950 . S
C871 C867 1.385 . S
C871 C870 1.374 . S
C872 C869 1.499 . S
C872 C873 1.373 . S
C872 C874 1.389 . S
C873 H852 0.950 1_655 S
C873 C872 1.373 . S
C873 C889 1.377 1_655 S
C874 C872 1.389 . S
C874 C875 1.524 . S
C874 C888 1.377 . S
C875 C874 1.524 . S
C875 C876 1.397 . S
C875 C880 1.363 . S
C876 H853 0.950 . S
C876 C875 1.397 . S
C876 C877 1.334 1_554 S
C877 H854 0.950 . S
C877 C876 1.334 1_556 S
C877 C878 1.287 . S
C878 C877 1.287 . S
C878 C879 1.524 . S
C878 H897 0.913 . S
C879 H855 0.950 . S
C879 C878 1.524 . S
C879 C880 1.415 1_556 S
C880 H856 0.950 . S
C880 C875 1.363 . S
C880 C879 1.415 1_554 S
C881 H857 0.951 . S
C881 C882 1.366 . S
C881 C883 1.388 1_556 S
C882 C881 1.366 . S
C882 C886 1.385 1_455 S
C883 H858 0.951 . S
C883 C881 1.388 1_554 S
C883 C884 1.366 1_455 S
C884 C883 1.366 1_655 S
C884 C885 1.414 . S
C884 C887 1.499 . S
C885 H859 0.950 . S
C885 C884 1.414 . S
C885 C886 1.374 1_554 S
C886 H860 0.950 . S
C886 C882 1.385 1_655 S
C886 C885 1.374 1_556 S
C887 C884 1.499 . S
C887 C888 1.373 . S
C887 C889 1.389 1_655 S
C888 H861 0.950 . S
C888 C874 1.377 . S
C888 C887 1.373 . S
C889 C873 1.377 1_455 S
C889 C887 1.389 1_455 S
C889 C890 1.524 . S
C890 C889 1.524 . S
C890 C891 1.397 . S
C890 C895 1.363 . S
C891 H862 0.950 . S
C891 C890 1.397 . S
C891 C892 1.334 . S
C892 H863 0.950 . S
C892 C891 1.334 . S
C892 C893 1.287 . S
C893 C892 1.287 . S
C893 C894 1.524 . S
C893 H896 0.999 . S
C894 H864 0.950 . S
C894 C893 1.524 . S
C894 C895 1.415 . S
C895 H865 0.950 . S
C895 C890 1.363 . S
C895 C894 1.415 . S
H896 C893 0.999 . S
H897 C878 0.913 . S
H898 C916 0.951 . S
H899 C918 0.951 . S
H900 C920 0.950 . S
H901 C921 0.950 . S
H902 C923 0.950 . S
H903 C926 0.950 . S
H904 C927 0.950 . S
H905 C929 0.950 . S
H906 C930 0.950 . S
H907 C931 0.951 . S
H908 C933 0.951 . S
H909 C935 0.950 1_554 S
H910 C936 0.950 . S
H911 C938 0.950 . S
H912 C941 0.950 1_554 S
H913 C942 0.950 . S
H914 C944 0.950 . S
H915 C945 0.950 . S
C916 H898 0.951 . S
C916 C917 1.366 . S
C916 C918 1.388 . S
C917 C916 1.366 . S
C917 C921 1.385 . S
C918 H899 0.951 . S
C918 C916 1.388 . S
C918 C919 1.366 . S
C919 C918 1.366 . S
C919 C920 1.414 . S
C919 C922 1.499 . S
C920 H900 0.950 . S
C920 C919 1.414 . S
C920 C921 1.374 . S
C921 H901 0.950 . S
C921 C917 1.385 . S
C921 C920 1.374 . S
C922 C919 1.499 . S
C922 C923 1.373 1_565 S
C922 C924 1.389 . S
C923 H902 0.950 . S
C923 C922 1.373 1_545 S
C923 C939 1.377 . S
C924 C922 1.389 . S
C924 C925 1.524 . S
C924 C938 1.377 . S
C925 C924 1.524 . S
C925 C926 1.397 . S
C925 C930 1.363 . S
C926 H903 0.950 . S
C926 C925 1.397 . S
C926 C927 1.334 . S
C927 H904 0.950 . S
C927 C926 1.334 . S
C927 C928 1.287 . S
C928 C927 1.287 . S
C928 C929 1.524 . S
C928 H947 0.913 . S
C929 H905 0.950 . S
C929 C928 1.524 . S
C929 C930 1.415 . S
C930 H906 0.950 . S
C930 C925 1.363 . S
C930 C929 1.415 . S
C931 H907 0.951 . S
C931 C932 1.366 . S
C931 C933 1.388 . S
C932 C931 1.366 . S
C932 C936 1.385 . S
C933 H908 0.951 . S
C933 C931 1.388 . S
C933 C934 1.366 . S
C934 C933 1.366 . S
C934 C935 1.414 . S
C934 C937 1.499 1_556 S
C935 H909 0.950 1_556 S
C935 C934 1.414 . S
C935 C936 1.374 . S
C936 H910 0.950 . S
C936 C932 1.385 . S
C936 C935 1.374 . S
C937 C934 1.499 1_554 S
C937 C938 1.373 1_545 S
C937 C939 1.389 . S
C938 H911 0.950 . S
C938 C924 1.377 . S
C938 C937 1.373 1_565 S
C939 C923 1.377 . S
C939 C937 1.389 . S
C939 C940 1.524 1_554 S
C940 C939 1.524 1_556 S
C940 C941 1.397 . S
C940 C945 1.363 . S
C941 H912 0.950 1_556 S
C941 C940 1.397 . S
C941 C942 1.334 . S
C942 H913 0.950 . S
C942 C941 1.334 . S
C942 C943 1.287 . S
C943 C942 1.287 . S
C943 C944 1.524 . S
C943 H946 0.999 . S
C944 H914 0.950 . S
C944 C943 1.524 . S
C944 C945 1.415 . S
C945 H915 0.950 . S
C945 C940 1.363 . S
C945 C944 1.415 . S
H946 C943 0.999 . S
H947 C928 0.913 . S
H948 C966 0.951 . S
H949 C968 0.951 . S
H950 C970 0.950 . S
H951 C971 0.950 . S
H952 C973 0.950 1_556 S
H953 C976 0.950 . S
H954 C977 0.950 . S
H955 C979 0.950 . S
H956 C980 0.950 . S
H957 C981 0.951 . S
H958 C983 0.951 . S
H959 C985 0.950 . S
H960 C986 0.950 . S
H961 C988 0.950 . S
H962 C991 0.950 . S
H963 C992 0.950 . S
H964 C994 0.950 . S
H965 C995 0.950 . S
C966 H948 0.951 . S
C966 C967 1.366 . S
C966 C968 1.388 . S
C967 C966 1.366 . S
C967 C971 1.385 . S
C968 H949 0.951 . S
C968 C966 1.388 . S
C968 C969 1.366 . S
C969 C968 1.366 . S
C969 C970 1.414 . S
C969 C972 1.499 . S
C970 H950 0.950 . S
C970 C969 1.414 . S
C970 C971 1.374 . S
C971 H951 0.950 . S
C971 C967 1.385 . S
C971 C970 1.374 . S
C972 C969 1.499 . S
C972 C973 1.373 . S
C972 C974 1.389 . S
C973 H952 0.950 1_554 S
C973 C972 1.373 . S
C973 C989 1.377 1_554 S
C974 C972 1.389 . S
C974 C975 1.524 . S
C974 C988 1.377 . S
C975 C974 1.524 . S
C975 C976 1.397 . S
C975 C980 1.363 . S
C976 H953 0.950 . S
C976 C975 1.397 . S
C976 C977 1.334 . S
C977 H954 0.950 . S
C977 C976 1.334 . S
C977 C978 1.287 . S
C978 C977 1.287 . S
C978 C979 1.524 . S
C978 H997 0.913 . S
C979 H955 0.950 . S
C979 C978 1.524 . S
C979 C980 1.415 . S
C980 H956 0.950 . S
C980 C975 1.363 . S
C980 C979 1.415 . S
C981 H957 0.951 . S
C981 C982 1.366 . S
C981 C983 1.388 . S
C982 C981 1.366 . S
C982 C986 1.385 . S
C983 H958 0.951 . S
C983 C981 1.388 . S
C983 C984 1.366 . S
C984 C983 1.366 . S
C984 C985 1.414 . S
C984 C987 1.499 . S
C985 H959 0.950 . S
C985 C984 1.414 . S
C985 C986 1.374 . S
C986 H960 0.950 . S
C986 C982 1.385 . S
C986 C985 1.374 . S
C987 C984 1.499 . S
C987 C988 1.373 1_556 S
C987 C989 1.389 . S
C988 H961 0.950 . S
C988 C974 1.377 . S
C988 C987 1.373 1_554 S
C989 C973 1.377 1_556 S
C989 C987 1.389 . S
C989 C990 1.524 . S
C990 C989 1.524 . S
C990 C991 1.397 . S
C990 C995 1.363 . S
C991 H962 0.950 . S
C991 C990 1.397 . S
C991 C992 1.334 . S
C992 H963 0.950 . S
C992 C991 1.334 . S
C992 C993 1.287 . S
C993 C992 1.287 . S
C993 C994 1.524 . S
C993 H996 0.999 . S
C994 H964 0.950 . S
C994 C993 1.524 . S
C994 C995 1.415 . S
C995 H965 0.950 . S
C995 C990 1.363 . S
C995 C994 1.415 . S
H996 C993 0.999 . S
H997 C978 0.913 . S
H998 C1016 0.951 . S
H999 C1018 0.951 . S
H1000 C1020 0.950 . S
H1001 C1021 0.950 . S
H1002 C1023 0.950 . S
H1003 C1026 0.950 . S
H1004 C1027 0.950 . S
H1005 C1029 0.950 . S
H1006 C1030 0.950 . S
H1007 C1031 0.951 . S
H1008 C1033 0.951 . S
H1009 C1035 0.950 . S
H1010 C1036 0.950 . S
H1011 C1038 0.950 1_556 S
H1012 C1041 0.950 1_556 S
H1013 C1042 0.950 1_556 S
H1014 C1044 0.950 . S
H1015 C1045 0.950 . S
C1016 H998 0.951 . S
C1016 C1017 1.366 . S
C1016 C1018 1.388 . S
C1017 C1016 1.366 . S
C1017 C1021 1.385 . S
C1018 H999 0.951 . S
C1018 C1016 1.388 . S
C1018 C1019 1.366 . S
C1019 C1018 1.366 . S
C1019 C1020 1.414 . S
C1019 C1022 1.499 . S
C1020 H1000 0.950 . S
C1020 C1019 1.414 . S
C1020 C1021 1.374 . S
C1021 H1001 0.950 . S
C1021 C1017 1.385 . S
C1021 C1020 1.374 . S
C1022 C1019 1.499 . S
C1022 C1023 1.373 . S
C1022 C1024 1.389 . S
C1023 H1002 0.950 . S
C1023 C1022 1.373 . S
C1023 C1039 1.377 . S
C1024 C1022 1.389 . S
C1024 C1025 1.524 . S
C1024 C1038 1.377 . S
C1025 C1024 1.524 . S
C1025 C1026 1.397 . S
C1025 C1030 1.363 1_554 S
C1026 H1003 0.950 . S
C1026 C1025 1.397 . S
C1026 C1027 1.334 . S
C1027 H1004 0.950 . S
C1027 C1026 1.334 . S
C1027 C1028 1.287 . S
C1028 C1027 1.287 . S
C1028 C1029 1.524 1_554 S
C1028 H1047 0.913 . S
C1029 H1005 0.950 . S
C1029 C1028 1.524 1_556 S
C1029 C1030 1.415 . S
C1030 H1006 0.950 . S
C1030 C1025 1.363 1_556 S
C1030 C1029 1.415 . S
C1031 H1007 0.951 . S
C1031 C1032 1.366 1_554 S
C1031 C1033 1.388 . S
C1032 C1031 1.366 1_556 S
C1032 C1036 1.385 . S
C1033 H1008 0.951 . S
C1033 C1031 1.388 . S
C1033 C1034 1.366 1_554 S
C1034 C1033 1.366 1_556 S
C1034 C1035 1.414 . S
C1034 C1037 1.499 1_556 S
C1035 H1009 0.950 . S
C1035 C1034 1.414 . S
C1035 C1036 1.374 . S
C1036 H1010 0.950 . S
C1036 C1032 1.385 . S
C1036 C1035 1.374 . S
C1037 C1034 1.499 1_554 S
C1037 C1038 1.373 . S
C1037 C1039 1.389 . S
C1038 H1011 0.950 1_554 S
C1038 C1024 1.377 . S
C1038 C1037 1.373 . S
C1039 C1023 1.377 . S
C1039 C1037 1.389 . S
C1039 C1040 1.524 . S
C1040 C1039 1.524 . S
C1040 C1041 1.397 . S
C1040 C1045 1.363 . S
C1041 H1012 0.950 1_554 S
C1041 C1040 1.397 . S
C1041 C1042 1.334 . S
C1042 H1013 0.950 1_554 S
C1042 C1041 1.334 . S
C1042 C1043 1.287 . S
C1043 C1042 1.287 . S
C1043 C1044 1.524 . S
C1043 H1046 0.999 . S
C1044 H1014 0.950 . S
C1044 C1043 1.524 . S
C1044 C1045 1.415 . S
C1045 H1015 0.950 . S
C1045 C1040 1.363 . S
C1045 C1044 1.415 . S
H1046 C1043 0.999 . S
H1047 C1028 0.913 . S
H1048 C1066 0.951 . S
H1049 C1068 0.951 . S
H1050 C1070 0.950 . S
H1051 C1071 0.950 . S
H1052 C1073 0.950 . S
H1053 C1076 0.950 . S
H1054 C1077 0.940 1_455 S
H1055 C1079 0.950 . S
H1056 C1080 0.950 . S
H1057 C1081 0.951 . S
H1058 C1083 0.951 . S
H1059 C1085 0.950 . S
H1060 C1086 0.950 1_655 S
H1061 C1088 0.950 . S
H1062 C1091 0.950 . S
H1063 C1092 0.950 . S
H1064 C1094 0.950 . S
H1065 C1095 0.950 . S
C1066 H1048 0.951 . S
C1066 C1067 1.366 . S
C1066 C1068 1.388 . S
C1067 C1066 1.366 . S
C1067 C1071 1.385 . S
C1068 H1049 0.951 . S
C1068 C1066 1.388 . S
C1068 C1069 1.366 . S
C1069 C1068 1.366 . S
C1069 C1070 1.414 . S
C1069 C1072 1.499 . S
C1070 H1050 0.950 . S
C1070 C1069 1.414 . S
C1070 C1071 1.374 . S
C1071 H1051 0.950 . S
C1071 C1067 1.385 . S
C1071 C1070 1.374 . S
C1072 C1069 1.499 . S
C1072 C1073 1.373 . S
C1072 C1074 1.389 . S
C1073 H1052 0.950 . S
C1073 C1072 1.373 . S
C1073 C1089 1.377 . S
C1074 C1072 1.389 . S
C1074 C1075 1.524 . S
C1074 C1088 1.377 . S
C1075 C1074 1.524 . S
C1075 C1076 1.397 . S
C1075 C1080 1.363 1_455 S
C1076 H1053 0.950 . S
C1076 C1075 1.397 . S
C1076 C1077 1.304 1_456 S
C1077 H1054 0.940 1_655 S
C1077 C1076 1.304 1_654 S
C1077 C1078 1.329 1_554 S
C1078 C1077 1.329 1_556 S
C1078 C1079 1.524 . S
C1078 H1097 0.913 1_556 S
C1079 H1055 0.950 . S
C1079 C1078 1.524 . S
C1079 C1080 1.415 . S
C1080 H1056 0.950 . S
C1080 C1075 1.363 1_655 S
C1080 C1079 1.415 . S
C1081 H1057 0.951 . S
C1081 C1082 1.366 . S
C1081 C1083 1.388 . S
C1082 C1081 1.366 . S
C1082 C1086 1.385 . S
C1083 H1058 0.951 . S
C1083 C1081 1.388 . S
C1083 C1084 1.366 . S
C1084 C1083 1.366 . S
C1084 C1085 1.414 . S
C1084 C1087 1.499 . S
C1085 H1059 0.950 . S
C1085 C1084 1.414 . S
C1085 C1086 1.374 . S
C1086 H1060 0.950 1_455 S
C1086 C1082 1.385 . S
C1086 C1085 1.374 . S
C1087 C1084 1.499 . S
C1087 C1088 1.373 . S
C1087 C1089 1.389 . S
C1088 H1061 0.950 . S
C1088 C1074 1.377 . S
C1088 C1087 1.373 . S
C1089 C1073 1.377 . S
C1089 C1087 1.389 . S
C1089 C1090 1.524 . S
C1090 C1089 1.524 . S
C1090 C1091 1.397 . S
C1090 C1095 1.363 . S
C1091 H1062 0.950 . S
C1091 C1090 1.397 . S
C1091 C1092 1.334 . S
C1092 H1063 0.950 . S
C1092 C1091 1.334 . S
C1092 C1093 1.287 . S
C1093 C1092 1.287 . S
C1093 C1094 1.524 . S
C1093 H1096 0.999 . S
C1094 H1064 0.950 . S
C1094 C1093 1.524 . S
C1094 C1095 1.415 . S
C1095 H1065 0.950 . S
C1095 C1090 1.363 . S
C1095 C1094 1.415 . S
H1096 C1093 0.999 . S
H1097 C1078 0.913 1_554 S
H1098 C1116 0.951 . S
H1099 C1118 0.951 . S
H1100 C1120 0.950 . S
H1101 C1121 0.950 . S
H1102 C1123 0.950 . S
H1103 C1126 0.950 . S
H1104 C1127 0.950 . S
H1105 C1129 0.950 1_554 S
H1106 C1130 0.950 . S
H1107 C1131 0.951 . S
H1108 C1133 0.951 . S
H1109 C1135 0.950 . S
H1110 C1136 0.950 . S
H1111 C1138 0.950 . S
H1112 C1141 0.950 . S
H1113 C1142 0.950 . S
H1114 C1144 0.950 . S
H1115 C1145 0.950 1_545 S
C1116 H1098 0.951 . S
C1116 C1117 1.366 . S
C1116 C1118 1.388 . S
C1117 C1116 1.366 . S
C1117 C1121 1.385 . S
C1118 H1099 0.951 . S
C1118 C1116 1.388 . S
C1118 C1119 1.366 . S
C1119 C1118 1.366 . S
C1119 C1120 1.414 . S
C1119 C1122 1.499 . S
C1120 H1100 0.950 . S
C1120 C1119 1.414 . S
C1120 C1121 1.374 . S
C1121 H1101 0.950 . S
C1121 C1117 1.385 . S
C1121 C1120 1.374 . S
C1122 C1119 1.499 . S
C1122 C1123 1.373 . S
C1122 C1124 1.389 . S
C1123 H1102 0.950 . S
C1123 C1122 1.373 . S
C1123 C1139 1.377 . S
C1124 C1122 1.389 . S
C1124 C1125 1.524 . S
C1124 C1138 1.377 . S
C1125 C1124 1.524 . S
C1125 C1126 1.397 . S
C1125 C1130 1.363 . S
C1126 H1103 0.950 . S
C1126 C1125 1.397 . S
C1126 C1127 1.334 . S
C1127 H1104 0.950 . S
C1127 C1126 1.334 . S
C1127 C1128 1.287 . S
C1128 C1127 1.287 . S
C1128 C1129 1.524 . S
C1128 H1147 0.913 . S
C1129 H1105 0.950 1_556 S
C1129 C1128 1.524 . S
C1129 C1130 1.415 . S
C1130 H1106 0.950 . S
C1130 C1125 1.363 . S
C1130 C1129 1.415 . S
C1131 H1107 0.951 . S
C1131 C1132 1.366 . S
C1131 C1133 1.388 . S
C1132 C1131 1.366 . S
C1132 C1136 1.385 . S
C1133 H1108 0.951 . S
C1133 C1131 1.388 . S
C1133 C1134 1.366 . S
C1134 C1133 1.366 . S
C1134 C1135 1.414 . S
C1134 C1137 1.499 . S
C1135 H1109 0.950 . S
C1135 C1134 1.414 . S
C1135 C1136 1.374 . S
C1136 H1110 0.950 . S
C1136 C1132 1.385 . S
C1136 C1135 1.374 . S
C1137 C1134 1.499 . S
C1137 C1138 1.373 . S
C1137 C1139 1.389 . S
C1138 H1111 0.950 . S
C1138 C1124 1.377 . S
C1138 C1137 1.373 . S
C1139 C1123 1.377 . S
C1139 C1137 1.389 . S
C1139 C1140 1.524 . S
C1140 C1139 1.524 . S
C1140 C1141 1.397 1_545 S
C1140 C1145 1.363 1_545 S
C1141 H1112 0.950 . S
C1141 C1140 1.397 1_565 S
C1141 C1142 1.334 . S
C1142 H1113 0.950 . S
C1142 C1141 1.334 . S
C1142 C1143 1.287 . S
C1143 C1142 1.287 . S
C1143 C1144 1.524 . S
C1143 H1146 0.999 . S
C1144 H1114 0.950 . S
C1144 C1143 1.524 . S
C1144 C1145 1.415 . S
C1145 H1115 0.950 1_565 S
C1145 C1140 1.363 1_565 S
C1145 C1144 1.415 . S
H1146 C1143 0.999 . S
H1147 C1128 0.913 . S
H1148 C1166 0.951 . S
H1149 C1168 0.951 . S
H1150 C1170 0.950 . S
H1151 C1171 0.950 . S
H1152 C1173 0.950 . S
H1153 C1176 0.950 . S
H1154 C1177 0.950 . S
H1155 C1179 0.950 . S
H1156 C1180 0.950 . S
H1157 C1181 0.951 . S
H1158 C1183 0.951 . S
H1159 C1185 0.950 . S
H1160 C1186 0.950 . S
H1161 C1188 0.950 . S
H1162 C1191 0.950 . S
H1163 C1192 0.950 . S
H1164 C1194 0.950 . S
H1165 C1195 0.950 . S
C1166 H1148 0.951 . S
C1166 C1167 1.366 . S
C1166 C1168 1.388 . S
C1167 C1166 1.366 . S
C1167 C1171 1.385 . S
C1168 H1149 0.951 . S
C1168 C1166 1.388 . S
C1168 C1169 1.366 . S
C1169 C1168 1.366 . S
C1169 C1170 1.414 . S
C1169 C1172 1.499 . S
C1170 H1150 0.950 . S
C1170 C1169 1.414 . S
C1170 C1171 1.374 . S
C1171 H1151 0.950 . S
C1171 C1167 1.385 . S
C1171 C1170 1.374 . S
C1172 C1169 1.499 . S
C1172 C1173 1.373 . S
C1172 C1174 1.389 . S
C1173 H1152 0.950 . S
C1173 C1172 1.373 . S
C1173 C1189 1.377 . S
C1174 C1172 1.389 . S
C1174 C1175 1.524 . S
C1174 C1188 1.377 . S
C1175 C1174 1.524 . S
C1175 C1176 1.397 . S
C1175 C1180 1.363 . S
C1176 H1153 0.950 . S
C1176 C1175 1.397 . S
C1176 C1177 1.334 . S
C1177 H1154 0.950 . S
C1177 C1176 1.334 . S
C1177 C1178 1.287 . S
C1178 C1177 1.287 . S
C1178 C1179 1.524 . S
C1178 H1197 0.913 . S
C1179 H1155 0.950 . S
C1179 C1178 1.524 . S
C1179 C1180 1.415 . S
C1180 H1156 0.950 . S
C1180 C1175 1.363 . S
C1180 C1179 1.415 . S
C1181 H1157 0.951 . S
C1181 C1182 1.366 . S
C1181 C1183 1.388 . S
C1182 C1181 1.366 . S
C1182 C1186 1.385 . S
C1183 H1158 0.951 . S
C1183 C1181 1.388 . S
C1183 C1184 1.366 . S
C1184 C1183 1.366 . S
C1184 C1185 1.414 . S
C1184 C1187 1.499 . S
C1185 H1159 0.950 . S
C1185 C1184 1.414 . S
C1185 C1186 1.374 . S
C1186 H1160 0.950 . S
C1186 C1182 1.385 . S
C1186 C1185 1.374 . S
C1187 C1184 1.499 . S
C1187 C1188 1.373 . S
C1187 C1189 1.389 . S
C1188 H1161 0.950 . S
C1188 C1174 1.377 . S
C1188 C1187 1.373 . S
C1189 C1173 1.377 . S
C1189 C1187 1.389 . S
C1189 C1190 1.524 . S
C1190 C1189 1.524 . S
C1190 C1191 1.397 . S
C1190 C1195 1.363 . S
C1191 H1162 0.950 . S
C1191 C1190 1.397 . S
C1191 C1192 1.334 . S
C1192 H1163 0.950 . S
C1192 C1191 1.334 . S
C1192 C1193 1.287 . S
C1193 C1192 1.287 . S
C1193 C1194 1.524 . S
C1193 H1196 0.999 . S
C1194 H1164 0.950 . S
C1194 C1193 1.524 . S
C1194 C1195 1.415 . S
C1195 H1165 0.950 . S
C1195 C1190 1.363 . S
C1195 C1194 1.415 . S
H1196 C1193 0.999 . S
H1197 C1178 0.913 . S
H1198 C1216 0.951 . S
H1199 C1218 0.951 . S
H1200 C1220 0.950 1_554 S
H1201 C1221 0.951 1_554 S
H1202 C1223 0.950 . S
H1203 C1226 0.950 . S
H1204 C1227 0.950 . S
H1205 C1229 0.950 . S
H1206 C1230 0.950 . S
H1207 C1231 0.951 . S
H1208 C1233 0.951 . S
H1209 C1235 0.950 . S
H1210 C1236 0.950 . S
H1211 C1238 0.950 . S
H1212 C1241 0.950 . S
H1213 C1242 0.950 . S
H1214 C1244 0.933 1_554 S
H1215 C1245 0.950 . S
C1216 H1198 0.951 . S
C1216 C1217 1.366 . S
C1216 C1218 1.388 . S
C1217 C1216 1.366 . S
C1217 C1221 1.384 . S
C1218 H1199 0.951 . S
C1218 C1216 1.388 . S
C1218 C1219 1.366 . S
C1219 C1218 1.366 . S
C1219 C1220 1.414 . S
C1219 C1222 1.499 . S
C1220 H1200 0.950 1_556 S
C1220 C1219 1.414 . S
C1220 C1221 1.373 . S
C1221 H1201 0.951 1_556 S
C1221 C1217 1.384 . S
C1221 C1220 1.373 . S
C1222 C1219 1.499 . S
C1222 C1223 1.373 . S
C1222 C1224 1.389 . S
C1223 H1202 0.950 . S
C1223 C1222 1.373 . S
C1223 C1239 1.377 . S
C1224 C1222 1.389 . S
C1224 C1225 1.524 . S
C1224 C1238 1.377 . S
C1225 C1224 1.524 . S
C1225 C1226 1.397 . S
C1225 C1230 1.363 . S
C1226 H1203 0.950 . S
C1226 C1225 1.397 . S
C1226 C1227 1.334 . S
C1227 H1204 0.950 . S
C1227 C1226 1.334 . S
C1227 C1228 1.287 . S
C1228 C1227 1.287 . S
C1228 C1229 1.524 . S
C1228 H1247 0.913 . S
C1229 H1205 0.950 . S
C1229 C1228 1.524 . S
C1229 C1230 1.415 . S
C1230 H1206 0.950 . S
C1230 C1225 1.363 . S
C1230 C1229 1.415 . S
C1231 H1207 0.951 . S
C1231 C1232 1.366 . S
C1231 C1233 1.388 . S
C1232 C1231 1.366 . S
C1232 C1236 1.385 . S
C1233 H1208 0.951 . S
C1233 C1231 1.388 . S
C1233 C1234 1.366 . S
C1234 C1233 1.366 . S
C1234 C1235 1.414 . S
C1234 C1237 1.499 . S
C1235 H1209 0.950 . S
C1235 C1234 1.414 . S
C1235 C1236 1.374 . S
C1236 H1210 0.950 . S
C1236 C1232 1.385 . S
C1236 C1235 1.374 . S
C1237 C1234 1.499 . S
C1237 C1238 1.373 . S
C1237 C1239 1.389 . S
C1238 H1211 0.950 . S
C1238 C1224 1.377 . S
C1238 C1237 1.373 . S
C1239 C1223 1.377 . S
C1239 C1237 1.389 . S
C1239 C1240 1.524 . S
C1240 C1239 1.524 . S
C1240 C1241 1.397 . S
C1240 C1245 1.363 . S
C1241 H1212 0.950 . S
C1241 C1240 1.397 . S
C1241 C1242 1.334 . S
C1242 H1213 0.950 . S
C1242 C1241 1.334 . S
C1242 C1243 1.287 . S
C1243 C1242 1.287 . S
C1243 C1244 1.524 . S
C1243 H1246 0.999 . S
C1244 H1214 0.933 1_556 S
C1244 C1243 1.524 . S
C1244 C1245 1.415 . S
C1245 H1215 0.950 . S
C1245 C1240 1.363 . S
C1245 C1244 1.415 . S
H1246 C1243 0.999 . S
H1247 C1228 0.913 . S
H1248 C1266 0.951 . S
H1249 C1268 0.951 . S
H1250 C1270 0.950 1_455 S
H1251 C1271 0.950 . S
H1252 C1273 0.950 . S
H1253 C1276 0.950 . S
H1254 C1277 0.950 . S
H1255 C1279 0.950 . S
H1256 C1280 0.950 . S
H1257 C1281 0.951 . S
H1258 C1283 0.951 . S
H1259 C1285 0.950 . S
H1260 C1286 0.950 . S
H1261 C1288 0.950 . S
H1262 C1291 0.950 . S
H1263 C1292 0.950 . S
H1264 C1294 0.950 . S
H1265 C1295 0.950 . S
C1266 H1248 0.951 . S
C1266 C1267 1.366 . S
C1266 C1268 1.388 . S
C1267 C1266 1.366 . S
C1267 C1271 1.385 . S
C1268 H1249 0.951 . S
C1268 C1266 1.388 . S
C1268 C1269 1.366 . S
C1269 C1268 1.366 . S
C1269 C1270 1.414 . S
C1269 C1272 1.499 . S
C1270 H1250 0.950 1_655 S
C1270 C1269 1.414 . S
C1270 C1271 1.374 . S
C1271 H1251 0.950 . S
C1271 C1267 1.385 . S
C1271 C1270 1.374 . S
C1272 C1269 1.499 . S
C1272 C1273 1.373 . S
C1272 C1274 1.389 . S
C1273 H1252 0.950 . S
C1273 C1272 1.373 . S
C1273 C1289 1.377 . S
C1274 C1272 1.389 . S
C1274 C1275 1.524 . S
C1274 C1288 1.377 . S
C1275 C1274 1.524 . S
C1275 C1276 1.397 . S
C1275 C1280 1.363 . S
C1276 H1253 0.950 . S
C1276 C1275 1.397 . S
C1276 C1277 1.334 . S
C1277 H1254 0.950 . S
C1277 C1276 1.334 . S
C1277 C1278 1.287 . S
C1278 C1277 1.287 . S
C1278 C1279 1.524 . S
C1278 H1297 0.913 . S
C1279 H1255 0.950 . S
C1279 C1278 1.524 . S
C1279 C1280 1.415 . S
C1280 H1256 0.950 . S
C1280 C1275 1.363 . S
C1280 C1279 1.415 . S
C1281 H1257 0.951 . S
C1281 C1282 1.366 1_455 S
C1281 C1283 1.388 . S
C1282 C1281 1.366 1_655 S
C1282 C1286 1.385 . S
C1283 H1258 0.951 . S
C1283 C1281 1.388 . S
C1283 C1284 1.366 1_455 S
C1284 C1283 1.366 1_655 S
C1284 C1285 1.414 . S
C1284 C1287 1.499 . S
C1285 H1259 0.950 . S
C1285 C1284 1.414 . S
C1285 C1286 1.374 . S
C1286 H1260 0.950 . S
C1286 C1282 1.385 . S
C1286 C1285 1.374 . S
C1287 C1284 1.499 . S
C1287 C1288 1.373 . S
C1287 C1289 1.389 . S
C1288 H1261 0.950 . S
C1288 C1274 1.377 . S
C1288 C1287 1.373 . S
C1289 C1273 1.377 . S
C1289 C1287 1.389 . S
C1289 C1290 1.524 1_655 S
C1290 C1289 1.524 1_455 S
C1290 C1291 1.397 1_455 S
C1290 C1295 1.363 . S
C1291 H1262 0.950 . S
C1291 C1290 1.397 1_655 S
C1291 C1292 1.334 1_655 S
C1292 H1263 0.950 . S
C1292 C1291 1.334 1_455 S
C1292 C1293 1.287 . S
C1293 C1292 1.287 . S
C1293 C1294 1.524 . S
C1293 H1296 0.999 . S
C1294 H1264 0.950 . S
C1294 C1293 1.524 . S
C1294 C1295 1.415 . S
C1295 H1265 0.950 . S
C1295 C1290 1.363 . S
C1295 C1294 1.415 . S
H1296 C1293 0.999 . S
H1297 C1278 0.913 . S
H1298 C1316 0.951 . S
H1299 C1318 0.951 . S
H1300 C1320 0.950 . S
H1301 C1321 0.950 . S
H1302 C1323 0.950 . S
H1303 C1326 0.950 . S
H1304 C1327 0.950 . S
H1305 C1329 0.950 . S
H1306 C1330 0.950 . S
H1307 C1331 0.951 . S
H1308 C1333 0.951 . S
H1309 C1335 0.950 . S
H1310 C1336 0.936 1_545 S
H1311 C1338 0.950 . S
H1312 C1341 0.950 . S
H1313 C1342 0.950 . S
H1314 C1344 0.950 . S
H1315 C1345 0.950 1_565 S
C1316 H1298 0.951 . S
C1316 C1317 1.366 . S
C1316 C1318 1.388 . S
C1317 C1316 1.366 . S
C1317 C1321 1.385 . S
C1318 H1299 0.951 . S
C1318 C1316 1.388 . S
C1318 C1319 1.366 . S
C1319 C1318 1.366 . S
C1319 C1320 1.414 . S
C1319 C1322 1.499 . S
C1320 H1300 0.950 . S
C1320 C1319 1.414 . S
C1320 C1321 1.374 . S
C1321 H1301 0.950 . S
C1321 C1317 1.385 . S
C1321 C1320 1.374 . S
C1322 C1319 1.499 . S
C1322 C1323 1.373 . S
C1322 C1324 1.389 . S
C1323 H1302 0.950 . S
C1323 C1322 1.373 . S
C1323 C1339 1.377 . S
C1324 C1322 1.389 . S
C1324 C1325 1.524 . S
C1324 C1338 1.377 . S
C1325 C1324 1.524 . S
C1325 C1326 1.397 . S
C1325 C1330 1.363 . S
C1326 H1303 0.950 . S
C1326 C1325 1.397 . S
C1326 C1327 1.334 . S
C1327 H1304 0.950 . S
C1327 C1326 1.334 . S
C1327 C1328 1.287 . S
C1328 C1327 1.287 . S
C1328 C1329 1.524 . S
C1328 H1347 0.913 . S
C1329 H1305 0.950 . S
C1329 C1328 1.524 . S
C1329 C1330 1.415 . S
C1330 H1306 0.950 . S
C1330 C1325 1.363 . S
C1330 C1329 1.415 . S
C1331 H1307 0.951 . S
C1331 C1332 1.366 . S
C1331 C1333 1.388 . S
C1332 C1331 1.366 . S
C1332 C1336 1.385 . S
C1333 H1308 0.951 . S
C1333 C1331 1.388 . S
C1333 C1334 1.366 . S
C1334 C1333 1.366 . S
C1334 C1335 1.414 . S
C1334 C1337 1.499 . S
C1335 H1309 0.950 . S
C1335 C1334 1.414 . S
C1335 C1336 1.374 . S
C1336 H1310 0.936 1_565 S
C1336 C1332 1.385 . S
C1336 C1335 1.374 . S
C1337 C1334 1.499 . S
C1337 C1338 1.373 . S
C1337 C1339 1.389 . S
C1338 H1311 0.950 . S
C1338 C1324 1.377 . S
C1338 C1337 1.373 . S
C1339 C1323 1.377 . S
C1339 C1337 1.389 . S
C1339 C1340 1.524 1_565 S
C1340 C1339 1.524 1_545 S
C1340 C1341 1.397 . S
C1340 C1345 1.363 . S
C1341 H1312 0.950 . S
C1341 C1340 1.397 . S
C1341 C1342 1.334 . S
C1342 H1313 0.950 . S
C1342 C1341 1.334 . S
C1342 C1343 1.287 . S
C1343 C1342 1.287 . S
C1343 C1344 1.524 . S
C1343 H1346 0.999 . S
C1344 H1314 0.950 . S
C1344 C1343 1.524 . S
C1344 C1345 1.415 . S
C1345 H1315 0.950 1_545 S
C1345 C1340 1.363 . S
C1345 C1344 1.415 . S
H1346 C1343 0.999 . S
H1347 C1328 0.913 . S
H1348 C1366 0.951 . S
H1349 C1368 0.951 . S
H1350 C1370 0.950 . S
H1351 C1371 0.950 . S
H1352 C1373 0.950 . S
H1353 C1376 0.950 . S
H1354 C1377 0.950 . S
H1355 C1379 0.950 . S
H1356 C1380 0.950 . S
H1357 C1381 0.951 . S
H1358 C1383 0.951 . S
H1359 C1385 0.950 . S
H1360 C1386 0.950 . S
H1361 C1388 0.950 . S
H1362 C1391 0.950 . S
H1363 C1392 0.950 . S
H1364 C1394 0.950 . S
H1365 C1395 0.950 . S
C1366 H1348 0.951 . S
C1366 C1367 1.366 . S
C1366 C1368 1.388 . S
C1367 C1366 1.366 . S
C1367 C1371 1.385 . S
C1368 H1349 0.951 . S
C1368 C1366 1.388 . S
C1368 C1369 1.366 . S
C1369 C1368 1.366 . S
C1369 C1370 1.414 . S
C1369 C1372 1.499 . S
C1370 H1350 0.950 . S
C1370 C1369 1.414 . S
C1370 C1371 1.374 . S
C1371 H1351 0.950 . S
C1371 C1367 1.385 . S
C1371 C1370 1.374 . S
C1372 C1369 1.499 . S
C1372 C1373 1.373 . S
C1372 C1374 1.389 . S
C1373 H1352 0.950 . S
C1373 C1372 1.373 . S
C1373 C1389 1.377 . S
C1374 C1372 1.389 . S
C1374 C1375 1.524 . S
C1374 C1388 1.377 . S
C1375 C1374 1.524 . S
C1375 C1376 1.397 . S
C1375 C1380 1.363 . S
C1376 H1353 0.950 . S
C1376 C1375 1.397 . S
C1376 C1377 1.334 . S
C1377 H1354 0.950 . S
C1377 C1376 1.334 . S
C1377 C1378 1.287 . S
C1378 C1377 1.287 . S
C1378 C1379 1.524 . S
C1378 H1397 0.913 . S
C1379 H1355 0.950 . S
C1379 C1378 1.524 . S
C1379 C1380 1.415 . S
C1380 H1356 0.950 . S
C1380 C1375 1.363 . S
C1380 C1379 1.415 . S
C1381 H1357 0.951 . S
C1381 C1382 1.366 . S
C1381 C1383 1.388 . S
C1382 C1381 1.366 . S
C1382 C1386 1.385 . S
C1383 H1358 0.951 . S
C1383 C1381 1.388 . S
C1383 C1384 1.366 . S
C1384 C1383 1.366 . S
C1384 C1385 1.414 . S
C1384 C1387 1.499 . S
C1385 H1359 0.950 . S
C1385 C1384 1.414 . S
C1385 C1386 1.374 . S
C1386 H1360 0.950 . S
C1386 C1382 1.385 . S
C1386 C1385 1.374 . S
C1387 C1384 1.499 . S
C1387 C1388 1.373 . S
C1387 C1389 1.389 . S
C1388 H1361 0.950 . S
C1388 C1374 1.377 . S
C1388 C1387 1.373 . S
C1389 C1373 1.377 . S
C1389 C1387 1.389 . S
C1389 C1390 1.524 . S
C1390 C1389 1.524 . S
C1390 C1391 1.397 . S
C1390 C1395 1.363 . S
C1391 H1362 0.950 . S
C1391 C1390 1.397 . S
C1391 C1392 1.334 . S
C1392 H1363 0.950 . S
C1392 C1391 1.334 . S
C1392 C1393 1.287 . S
C1393 C1392 1.287 . S
C1393 C1394 1.524 . S
C1393 H1396 0.999 . S
C1394 H1364 0.950 . S
C1394 C1393 1.524 . S
C1394 C1395 1.415 . S
C1395 H1365 0.950 . S
C1395 C1390 1.363 . S
C1395 C1394 1.415 . S
H1396 C1393 0.999 . S
H1397 C1378 0.913 . S
H1398 C1416 0.951 . S
H1399 C1418 0.951 . S
H1400 C1420 0.950 . S
H1401 C1421 0.950 . S
H1402 C1423 0.950 . S
H1403 C1426 0.950 . S
H1404 C1427 0.950 . S
H1405 C1429 0.950 . S
H1406 C1430 0.950 . S
H1407 C1431 0.951 . S
H1408 C1433 0.951 . S
H1409 C1435 0.950 . S
H1410 C1436 0.950 . S
H1411 C1438 0.950 . S
H1412 C1441 0.950 . S
H1413 C1442 0.950 . S
H1414 C1444 0.950 . S
H1415 C1445 0.950 . S
C1416 H1398 0.951 . S
C1416 C1417 1.366 . S
C1416 C1418 1.388 . S
C1417 C1416 1.366 . S
C1417 C1421 1.385 . S
C1418 H1399 0.951 . S
C1418 C1416 1.388 . S
C1418 C1419 1.366 . S
C1419 C1418 1.366 . S
C1419 C1420 1.414 . S
C1419 C1422 1.499 . S
C1420 H1400 0.950 . S
C1420 C1419 1.414 . S
C1420 C1421 1.374 . S
C1421 H1401 0.950 . S
C1421 C1417 1.385 . S
C1421 C1420 1.374 . S
C1422 C1419 1.499 . S
C1422 C1423 1.373 . S
C1422 C1424 1.389 . S
C1423 H1402 0.950 . S
C1423 C1422 1.373 . S
C1423 C1439 1.377 . S
C1424 C1422 1.389 . S
C1424 C1425 1.524 . S
C1424 C1438 1.377 . S
C1425 C1424 1.524 . S
C1425 C1426 1.397 . S
C1425 C1430 1.363 . S
C1426 H1403 0.950 . S
C1426 C1425 1.397 . S
C1426 C1427 1.334 . S
C1427 H1404 0.950 . S
C1427 C1426 1.334 . S
C1427 C1428 1.287 . S
C1428 C1427 1.287 . S
C1428 C1429 1.524 . S
C1428 H1447 0.913 . S
C1429 H1405 0.950 . S
C1429 C1428 1.524 . S
C1429 C1430 1.415 . S
C1430 H1406 0.950 . S
C1430 C1425 1.363 . S
C1430 C1429 1.415 . S
C1431 H1407 0.951 . S
C1431 C1432 1.366 . S
C1431 C1433 1.388 . S
C1432 C1431 1.366 . S
C1432 C1436 1.385 . S
C1433 H1408 0.951 . S
C1433 C1431 1.388 . S
C1433 C1434 1.366 . S
C1434 C1433 1.366 . S
C1434 C1435 1.414 . S
C1434 C1437 1.499 . S
C1435 H1409 0.950 . S
C1435 C1434 1.414 . S
C1435 C1436 1.374 . S
C1436 H1410 0.950 . S
C1436 C1432 1.385 . S
C1436 C1435 1.374 . S
C1437 C1434 1.499 . S
C1437 C1438 1.373 . S
C1437 C1439 1.389 . S
C1438 H1411 0.950 . S
C1438 C1424 1.377 . S
C1438 C1437 1.373 . S
C1439 C1423 1.377 . S
C1439 C1437 1.389 . S
C1439 C1440 1.524 . S
C1440 C1439 1.524 . S
C1440 C1441 1.397 . S
C1440 C1445 1.363 . S
C1441 H1412 0.950 . S
C1441 C1440 1.397 . S
C1441 C1442 1.334 . S
C1442 H1413 0.950 . S
C1442 C1441 1.334 . S
C1442 C1443 1.287 . S
C1443 C1442 1.287 . S
C1443 C1444 1.524 . S
C1443 H1446 0.999 . S
C1444 H1414 0.950 . S
C1444 C1443 1.524 . S
C1444 C1445 1.415 . S
C1445 H1415 0.950 . S
C1445 C1440 1.363 . S
C1445 C1444 1.415 . S
H1446 C1443 0.999 . S
H1447 C1428 0.913 . S
C267 C76 2.134 . S
C282 C119 2.273 . S
C332 C145 1.675 . S
C317 C87 1.575 . S
C382 C185 1.824 . S
C367 C54 1.734 . S
C432 C239 2.364 . S
C417 C65 2.241 . S
C482 C100 2.266 1_565 S
C467 C32 2.139 . S
C517 C43 1.571 . S
C532 C130 1.675 . S
C567 C10 1.739 . S
C582 C170 1.824 . S
C617 C21 2.248 . S
C632 C220 2.364 1_655 S
C682 C96 0.291 . S
C667 C60 0.372 . S
C732 C157 0.541 . S
C717 C71 0.541 . S
C782 C197 0.426 . S
C767 C82 0.429 . S
C817 C49 0.356 . S
C832 C216 0.222 . S
C867 C16 0.387 . S
C882 C117 0.288 . S
C932 C136 0.540 . S
C917 C27 0.546 . S
C982 C176 0.426 . S
C967 C38 0.430 . S
C1017 C5 0.378 . S
C1032 C237 0.222 . S
C1067 C59 1.762 . S
C1082 C90 1.926 . S
C1117 C70 2.372 . S
C1132 C140 2.556 . S
C1182 C180 2.300 . S
C1167 C81 2.134 . S
C1232 C210 1.671 . S
C1217 C48 1.541 1_556 S
C1267 C15 1.753 . S
C1282 C105 1.926 . S
C1332 C159 2.564 . S
C1317 C26 2.366 . S
C1382 C199 2.300 . S
C1367 C37 2.142 . S
C1417 C4 1.535 . S
C1432 C225 1.670 . S
