# Generated by pormake.
# Topology pyr, (3,6)-cn, num edge types: 1
# Building blocks:
#     Node 0, Type 0, BuildingBlock: QEWDON_clean_linker_0, # of connection points: 3
#     Node 1, Type 0, BuildingBlock: QEWDON_clean_linker_0, # of connection points: 3
#     Node 2, Type 0, BuildingBlock: QEWDON_clean_linker_0, # of connection points: 3
#     Node 3, Type 0, BuildingBlock: QEWDON_clean_linker_0, # of connection points: 3
#     Node 4, Type 0, BuildingBlock: QEWDON_clean_linker_0, # of connection points: 3
#     Node 5, Type 0, BuildingBlock: QEWDON_clean_linker_0, # of connection points: 3
#     Node 6, Type 0, BuildingBlock: QEWDON_clean_linker_0, # of connection points: 3
#     Node 7, Type 0, BuildingBlock: QEWDON_clean_linker_0, # of connection points: 3
#     Node 8, Type 1, BuildingBlock: MIDCAF_clean_sbu_0, # of connection points: 6
#     Node 9, Type 1, BuildingBlock: MIDCAF_clean_sbu_0, # of connection points: 6
#     Node 10, Type 1, BuildingBlock: MIDCAF_clean_sbu_0, # of connection points: 6
#     Node 11, Type 1, BuildingBlock: MIDCAF_clean_sbu_0, # of connection points: 6
#     Edge 12, Type (0, 1), BuildingBlock: XIVTED_clean_linker_0, # of connection points: 2
#     Edge 13, Type (0, 1), BuildingBlock: XIVTED_clean_linker_0, # of connection points: 2
#     Edge 14, Type (0, 1), BuildingBlock: XIVTED_clean_linker_0, # of connection points: 2
#     Edge 15, Type (0, 1), BuildingBlock: XIVTED_clean_linker_0, # of connection points: 2
#     Edge 16, Type (0, 1), BuildingBlock: XIVTED_clean_linker_0, # of connection points: 2
#     Edge 17, Type (0, 1), BuildingBlock: XIVTED_clean_linker_0, # of connection points: 2
#     Edge 18, Type (0, 1), BuildingBlock: XIVTED_clean_linker_0, # of connection points: 2
#     Edge 19, Type (0, 1), BuildingBlock: XIVTED_clean_linker_0, # of connection points: 2
#     Edge 20, Type (0, 1), BuildingBlock: XIVTED_clean_linker_0, # of connection points: 2
#     Edge 21, Type (0, 1), BuildingBlock: XIVTED_clean_linker_0, # of connection points: 2
#     Edge 22, Type (0, 1), BuildingBlock: XIVTED_clean_linker_0, # of connection points: 2
#     Edge 23, Type (0, 1), BuildingBlock: XIVTED_clean_linker_0, # of connection points: 2
#     Edge 24, Type (0, 1), BuildingBlock: XIVTED_clean_linker_0, # of connection points: 2
#     Edge 25, Type (0, 1), BuildingBlock: XIVTED_clean_linker_0, # of connection points: 2
#     Edge 26, Type (0, 1), BuildingBlock: XIVTED_clean_linker_0, # of connection points: 2
#     Edge 27, Type (0, 1), BuildingBlock: XIVTED_clean_linker_0, # of connection points: 2
#     Edge 28, Type (0, 1), BuildingBlock: XIVTED_clean_linker_0, # of connection points: 2
#     Edge 29, Type (0, 1), BuildingBlock: XIVTED_clean_linker_0, # of connection points: 2
#     Edge 30, Type (0, 1), BuildingBlock: XIVTED_clean_linker_0, # of connection points: 2
#     Edge 31, Type (0, 1), BuildingBlock: XIVTED_clean_linker_0, # of connection points: 2
#     Edge 32, Type (0, 1), BuildingBlock: XIVTED_clean_linker_0, # of connection points: 2
#     Edge 33, Type (0, 1), BuildingBlock: XIVTED_clean_linker_0, # of connection points: 2
#     Edge 34, Type (0, 1), BuildingBlock: XIVTED_clean_linker_0, # of connection points: 2
#     Edge 35, Type (0, 1), BuildingBlock: XIVTED_clean_linker_0, # of connection points: 2
# Relax obj value: 0.146
# Max RMSD: 0.265
# Mean RMSD: 0.191
data_MOF--net-pry--node1-MIDCAF_clean_sbu_0--node2-QEWDON_clean_linker_0--edge1-XIVTED_clean_linker_0
_symmetry_space_group_name_H-M    P1
_symmetry_Int_Tables_number       1
_symmetry_cell_setting            triclinic
loop_
_symmetry_equiv_pos_as_xyz
'x, y, z'
_cell_length_a     35.243833
_cell_length_b     35.570176
_cell_length_c     37.960998
_cell_angle_alpha  90.281425
_cell_angle_beta   90.460171
_cell_angle_gamma 99.883433
loop_
_atom_site_label
_atom_site_type_symbol
_atom_site_fract_x
_atom_site_fract_y
_atom_site_fract_z
_atom_type_partial_charge
H0 H 0.31625 0.29597 0.22734 0.0
C1 C 0.29909 0.28319 0.24913 0.0
C2 C 0.3047 0.2476 0.26232 0.0
C3 C 0.27209 0.30326 0.26415 0.0
H4 H 0.28601 0.20476 0.3013 0.0
C5 C 0.28186 0.23194 0.29066 0.0
C6 C 0.25442 0.2514 0.30615 0.0
C7 C 0.24943 0.28701 0.29234 0.0
C8 C 0.27265 0.34358 0.2537 0.0
H9 H 0.22967 0.30311 0.30474 0.0
C10 C 0.24091 0.35602 0.23717 0.0
C11 C 0.24433 0.39405 0.22503 0.0
C12 C 0.30693 0.36969 0.25903 0.0
H13 H 0.33156 0.36081 0.27174 0.0
C14 C 0.30997 0.40733 0.24797 0.0
H15 H 0.21449 0.33598 0.23258 0.0
C16 C 0.27909 0.4194 0.23095 0.0
H17 H 0.28235 0.44883 0.22251 0.0
H18 H 0.33654 0.42717 0.25233 0.0
H19 H 0.28293 0.86944 0.8615 0.0
C20 C 0.29965 0.8546 0.84406 0.0
C21 C 0.33777 0.85143 0.85313 0.0
C22 C 0.28227 0.83847 0.81288 0.0
H23 H 0.38682 0.82647 0.83785 0.0
C24 C 0.35783 0.82995 0.83079 0.0
C25 C 0.34061 0.81271 0.79952 0.0
C26 C 0.30296 0.81805 0.79051 0.0
C27 C 0.24142 0.84117 0.80549 0.0
H28 H 0.28928 0.8057 0.76648 0.0
C29 C 0.2304 0.85995 0.77537 0.0
C30 C 0.19194 0.86569 0.7712 0.0
C31 C 0.21344 0.82693 0.83042 0.0
H32 H 0.22127 0.81236 0.85369 0.0
C33 C 0.17528 0.83165 0.82583 0.0
H34 H 0.25188 0.87155 0.75626 0.0
C35 C 0.16461 0.85117 0.79663 0.0
H36 H 0.13486 0.85489 0.79385 0.0
H37 H 0.15398 0.82058 0.84523 0.0
H38 H 0.72626 0.37589 0.87 0.0
C39 C 0.72807 0.34714 0.87832 0.0
C40 C 0.76108 0.33991 0.89659 0.0
C41 C 0.69631 0.31789 0.87289 0.0
H42 H 0.78622 0.29719 0.92466 0.0
C43 C 0.76209 0.30273 0.90881 0.0
C44 C 0.7308 0.27317 0.90286 0.0
C45 C 0.69861 0.28092 0.88412 0.0
C46 C 0.65876 0.32627 0.85997 0.0
H47 H 0.67378 0.25854 0.88054 0.0
C48 C 0.65617 0.34892 0.83005 0.0
C49 C 0.62002 0.35595 0.81811 0.0
C50 C 0.62491 0.31133 0.87818 0.0
H51 H 0.62604 0.29452 0.90177 0.0
C52 C 0.58923 0.31832 0.86656 0.0
H53 H 0.68205 0.36034 0.81577 0.0
C54 C 0.5867 0.34041 0.83676 0.0
H55 H 0.55864 0.34602 0.82879 0.0
H56 H 0.56345 0.30682 0.8809 0.0
H57 H 0.8015 0.84479 0.31119 0.0
C58 C 0.77922 0.82896 0.32743 0.0
C59 C 0.7772 0.83785 0.36353 0.0
C60 C 0.75257 0.79933 0.31199 0.0
H61 H 0.74567 0.82246 0.41152 0.0
C62 C 0.74843 0.81597 0.38384 0.0
C63 C 0.72303 0.78514 0.36922 0.0
C64 C 0.72442 0.77754 0.33306 0.0
C65 C 0.75435 0.79056 0.27392 0.0
H66 H 0.7048 0.7537 0.32163 0.0
C67 C 0.78812 0.78144 0.25902 0.0
C68 C 0.78905 0.77129 0.22306 0.0
C69 C 0.72166 0.79028 0.25254 0.0
H70 H 0.6954 0.79722 0.2635 0.0
C71 C 0.72262 0.7812 0.21682 0.0
H72 H 0.81331 0.78155 0.27561 0.0
C73 C 0.75591 0.77161 0.20217 0.0
H74 H 0.7552 0.76334 0.17465 0.0
H75 H 0.69725 0.78101 0.20052 0.0
H76 H 0.86624 0.87636 0.92267 0.0
C77 C 0.88556 0.88661 0.90139 0.0
C78 C 0.92316 0.87805 0.90099 0.0
C79 C 0.87219 0.90715 0.87382 0.0
H80 H 0.97684 0.88538 0.87213 0.0
C81 C 0.94794 0.89192 0.87311 0.0
C82 C 0.93467 0.91239 0.84531 0.0
C83 C 0.89683 0.91965 0.84585 0.0
C84 C 0.83173 0.91356 0.87269 0.0
H85 H 0.88655 0.93537 0.82438 0.0
C86 C 0.81566 0.93102 0.90103 0.0
C87 C 0.77749 0.93813 0.89888 0.0
C88 C 0.80919 0.90267 0.84248 0.0
H89 H 0.82085 0.88898 0.82048 0.0
C90 C 0.77129 0.90891 0.8405 0.0
H91 H 0.83325 0.94007 0.92409 0.0
C92 C 0.7555 0.92646 0.86839 0.0
H93 H 0.72581 0.93047 0.86617 0.0
H94 H 0.75404 0.90008 0.81723 0.0
H95 H 0.69509 0.17646 0.513 0.0
C96 C 0.68325 0.17517 0.48651 0.0
C97 C 0.70261 0.16003 0.45898 0.0
C98 C 0.64829 0.18815 0.48074 0.0
H99 H 0.69994 0.14526 0.4037 0.0
C100 C 0.68572 0.15733 0.42512 0.0
C101 C 0.65023 0.16966 0.41878 0.0
C102 C 0.63196 0.1855 0.44676 0.0
C103 C 0.62851 0.20243 0.51123 0.0
H104 H 0.60474 0.19506 0.44229 0.0
C105 C 0.61789 0.23895 0.51131 0.0
C106 C 0.60342 0.25339 0.54226 0.0
C107 C 0.62284 0.18006 0.54179 0.0
H108 H 0.63046 0.15182 0.54233 0.0
C109 C 0.60777 0.19395 0.57206 0.0
H110 H 0.62241 0.25662 0.48803 0.0
C111 C 0.59847 0.23046 0.57247 0.0
H112 H 0.58696 0.2407 0.59638 0.0
H113 H 0.60365 0.17647 0.59545 0.0
H114 H 0.47493 0.67667 0.18389 0.0
C115 C 0.44812 0.66101 0.17329 0.0
C116 C 0.42323 0.6803 0.15412 0.0
C117 C 0.43847 0.6216 0.17918 0.0
H118 H 0.36863 0.6746 0.12701 0.0
C119 C 0.38865 0.65967 0.14073 0.0
C120 C 0.37826 0.62046 0.1472 0.0
C121 C 0.40334 0.60141 0.16625 0.0
C122 C 0.46351 0.60227 0.20156 0.0
H123 H 0.39504 0.57127 0.17185 0.0
C124 C 0.47197 0.61525 0.23614 0.0
C125 C 0.49318 0.59559 0.25903 0.0
C126 C 0.47757 0.57012 0.18925 0.0
H127 H 0.47124 0.55967 0.16262 0.0
C128 C 0.50005 0.55134 0.21131 0.0
H129 H 0.4609 0.64007 0.24549 0.0
C130 C 0.50767 0.56378 0.24605 0.0
H131 H 0.52371 0.54766 0.26303 0.0
H132 H 0.5109 0.52655 0.2017 0.0
H133 H 0.12835 0.46854 0.70009 0.0
C134 C 0.12559 0.45295 0.67537 0.0
C135 C 0.15507 0.46144 0.6505 0.0
C136 C 0.09364 0.42381 0.66882 0.0
H137 H 0.17763 0.44426 0.60141 0.0
C138 C 0.15373 0.43942 0.61959 0.0
C139 C 0.12292 0.40968 0.61303 0.0
C140 C 0.09225 0.40333 0.63685 0.0
C141 C 0.06354 0.41258 0.69628 0.0
H142 H 0.06825 0.3807 0.6312 0.0
C143 C 0.05476 0.43936 0.72108 0.0
C144 C 0.02956 0.42805 0.74922 0.0
C145 C 0.0448 0.37435 0.69922 0.0
H146 H 0.05137 0.35227 0.68176 0.0
C147 C 0.01811 0.36348 0.72578 0.0
H148 H 0.06798 0.46905 0.71898 0.0
C149 C 0.01071 0.38998 0.75082 0.0
H150 H 0.99155 0.38019 0.77229 0.0
H151 H 1.00413 0.33399 0.72772 0.0
Zn152 Zn 0.01059 0.11139 0.59262 0.0
Zn153 Zn 0.0658 0.01981 0.50439 0.0
Zn154 Zn 0.03249 0.06648 0.54578 0.0
C155 C 0.10231 0.09416 0.48989 0.0
C156 C 0.98595 0.01333 0.48643 0.0
O157 O 0.03483 0.04348 0.6012 0.0
O158 O 0.01583 0.08527 0.63748 0.0
C159 C 0.06572 0.15702 0.55426 0.0
O160 O 0.07777 0.10163 0.51287 0.0
O161 O 0.10412 0.05999 0.48202 0.0
O162 O 0.01654 1.0014 0.47827 0.0
O163 O 0.98592 0.03778 0.51153 0.0
O164 O 0.04673 0.15859 0.58207 0.0
O165 O 0.06338 0.12547 0.53694 0.0
O166 O 0.97081 0.06561 0.53167 0.0
O167 O 0.95788 0.10642 0.57201 0.0
C168 C 0.94716 0.08504 0.5458 0.0
O169 O 0.05962 0.0263 0.579 0.0
O170 O 0.08446 0.98864 0.54237 0.0
C171 C 0.0265 0.0536 0.63263 0.0
C172 C 0.07883 0.99898 0.5735 0.0
Zn173 Zn 0.49554 0.08277 0.0653 0.0
Zn174 Zn 0.57517 0.01327 0.14811 0.0
Zn175 Zn 0.53237 0.04305 0.10774 0.0
C176 C 0.61686 0.02326 0.08848 0.0
C177 C 0.50745 0.96049 0.13641 0.0
O178 O 0.50603 0.08503 0.14018 0.0
O179 O 0.47551 0.115 0.10087 0.0
C180 C 0.57107 0.09569 0.04319 0.0
O181 O 0.5899 0.04309 0.08321 0.0
O182 O 0.61664 0.00363 0.11607 0.0
O183 O 0.5337 0.96973 0.15926 0.0
O184 O 0.50389 0.98314 0.1107 0.0
O185 O 0.53947 0.10602 0.03574 0.0
O186 O 0.57316 0.07192 0.06838 0.0
O187 O 0.4876 0.99985 0.08102 0.0
O188 O 0.46093 0.03748 0.04567 0.0
C189 C 0.46349 0.00438 0.05624 0.0
O190 O 0.53507 0.07258 0.16062 0.0
O191 O 0.5874 0.05488 0.18282 0.0
C192 C 0.48438 0.1098 0.13254 0.0
C193 C 0.56173 0.07548 0.18453 0.0
Zn194 Zn 0.55785 0.62529 0.63189 0.0
Zn195 Zn 0.44821 0.54534 0.5639 0.0
Zn196 Zn 0.50111 0.58464 0.59749 0.0
C197 C 0.49974 0.49658 0.57637 0.0
C198 C 0.47861 0.59779 0.51683 0.0
O199 O 0.47426 0.62022 0.63619 0.0
O200 O 0.52608 0.65774 0.65719 0.0
C201 C 0.55969 0.55 0.64927 0.0
O202 O 0.51304 0.52454 0.59737 0.0
O203 O 0.47153 0.4993 0.55646 0.0
O204 O 0.44592 0.57805 0.52218 0.0
O205 O 0.50456 0.60154 0.54131 0.0
O206 O 0.57535 0.58336 0.65811 0.0
O207 O 0.5329 0.54493 0.62547 0.0
O208 O 0.53645 0.62258 0.55932 0.0
O209 O 0.5882 0.64656 0.59064 0.0
C210 C 0.57044 0.64279 0.56148 0.0
O211 O 0.44532 0.59136 0.62248 0.0
O212 O 0.40685 0.54224 0.59823 0.0
C213 C 0.48982 0.64866 0.65579 0.0
C214 C 0.41241 0.56902 0.62048 0.0
Zn215 Zn 0.07279 0.63505 0.02112 0.0
Zn216 Zn 0.97657 0.54806 0.09644 0.0
Zn217 Zn 0.02184 0.58929 0.05321 0.0
C218 C 0.04635 0.52791 0.11078 0.0
C219 C 0.9524 0.52714 0.02679 0.0
O220 O 0.00678 0.64885 0.0525 0.0
O221 O 0.05522 0.684 0.02482 0.0
C222 C 0.11546 0.60264 0.06651 0.0
O223 O 0.0554 0.55622 0.08936 0.0
O224 O 0.01147 0.51628 0.11805 0.0
O225 O 0.94035 0.52538 0.0581 0.0
O226 O 0.98494 0.54778 0.01921 0.0
O227 O 0.12071 0.62924 0.04439 0.0
O228 O 0.08113 0.58472 0.0728 0.0
O229 O 0.0143 0.56881 0.99819 0.0
O230 O 0.06321 0.60811 0.97547 0.0
C231 C 0.03575 0.58046 0.97177 0.0
O232 O 0.98826 0.62773 0.08165 0.0
O233 O 0.96341 0.59054 0.12511 0.0
C234 C 0.02271 0.68108 0.03908 0.0
C235 C 0.96951 0.62294 0.11081 0.0
H236 H 0.17812 0.25119 0.32306 0.0
H237 H 0.17711 0.09651 0.47272 0.0
H238 H 0.28111 0.21449 0.36208 0.0
H239 H 0.08406 0.16003 0.4618 0.0
H240 H 0.21541 0.14028 0.43215 0.0
H241 H 0.14256 0.21935 0.37315 0.0
C242 C 0.19339 0.23681 0.34224 0.0
C243 C 0.23261 0.23493 0.33777 0.0
C244 C 0.18687 0.14518 0.43896 0.0
C245 C 0.19195 0.19817 0.39495 0.0
C246 C 0.16504 0.1202 0.4622 0.0
C247 C 0.12749 0.1248 0.47073 0.0
C248 C 0.17077 0.17455 0.42324 0.0
C249 C 0.11311 0.15583 0.45619 0.0
C250 C 0.17302 0.21861 0.3708 0.0
C251 C 0.25071 0.21577 0.36359 0.0
N252 N 0.13454 0.17921 0.43263 0.0
N253 N 0.23022 0.19788 0.39068 0.0
H254 H 0.32691 0.91982 0.8819 0.0
H255 H 0.4898 0.94283 0.02747 0.0
H256 H 0.39097 0.82822 0.89936 0.0
H257 H 0.38892 0.99558 0.03517 0.0
H258 H 0.45772 0.90083 0.9804 0.0
H259 H 0.35376 0.95003 0.93611 0.0
C260 C 0.34625 0.90563 0.89721 0.0
C261 C 0.35596 0.8708 0.88588 0.0
C262 C 0.44225 0.92086 0.99313 0.0
C263 C 0.38811 0.90651 0.9482 0.0
C264 C 0.46028 0.94436 0.0204 0.0
C265 C 0.44157 0.97202 0.03592 0.0
C266 C 0.4058 0.92597 0.9807 0.0
C267 C 0.40415 0.97428 0.02428 0.0
C268 C 0.36177 0.92316 0.92826 0.0
C269 C 0.38266 0.85508 0.90661 0.0
N270 N 0.38777 0.95202 0.99715 0.0
N271 N 0.39795 0.87314 0.93665 0.0
H272 H 0.66702 0.42263 0.80008 0.0
H273 H 0.51922 0.47735 0.65704 0.0
H274 H 0.56511 0.34549 0.76572 0.0
H275 H 0.62741 0.54883 0.68386 0.0
H276 H 0.53809 0.42618 0.69249 0.0
H277 H 0.65614 0.46654 0.75334 0.0
C278 C 0.64271 0.41462 0.78235 0.0
C279 C 0.61664 0.38056 0.78716 0.0
C280 C 0.55788 0.45292 0.69029 0.0
C281 C 0.60355 0.43106 0.73397 0.0
C282 C 0.54716 0.48207 0.66995 0.0
C283 C 0.57176 0.51738 0.66754 0.0
C284 C 0.59322 0.45938 0.70869 0.0
C285 C 0.60742 0.52213 0.6852 0.0
C286 C 0.63634 0.43983 0.75577 0.0
C287 C 0.58543 0.37187 0.76352 0.0
N288 N 0.61694 0.4936 0.70523 0.0
N289 N 0.57952 0.39714 0.73821 0.0
H290 H 0.81981 0.78473 0.15682 0.0
H291 H 0.96482 0.63649 0.18083 0.0
H292 H 0.83629 0.72671 0.25396 0.0
H293 H 0.93434 0.67762 0.07989 0.0
H294 H 0.92744 0.67949 0.20957 0.0
H295 H 0.87053 0.75543 0.12991 0.0
C296 C 0.83418 0.76603 0.17261 0.0
C297 C 0.82325 0.75786 0.20768 0.0
C298 C 0.92946 0.67974 0.18112 0.0
C299 C 0.8818 0.72459 0.17701 0.0
C300 C 0.95091 0.6553 0.16471 0.0
C301 C 0.95305 0.6539 0.12784 0.0
C302 C 0.90948 0.70274 0.16054 0.0
C303 C 0.93438 0.6787 0.10825 0.0
C304 C 0.86329 0.74947 0.15722 0.0
C305 C 0.8437 0.73414 0.22697 0.0
N306 N 0.91298 0.70184 0.12479 0.0
N307 N 0.87167 0.71814 0.21131 0.0
H308 H 0.37582 0.27964 0.23632 0.0
H309 H 0.44763 0.08292 0.19321 0.0
H310 H 0.30494 0.16997 0.25512 0.0
H311 H 0.48061 0.18525 0.13261 0.0
H312 H 0.4063 0.11681 0.22952 0.0
H313 H 0.42451 0.24714 0.21042 0.0
C314 C 0.37017 0.24879 0.23491 0.0
C315 C 0.3355 0.22777 0.24758 0.0
C316 C 0.42321 0.13193 0.20867 0.0
C317 C 0.39246 0.19026 0.21902 0.0
C318 C 0.44709 0.1128 0.1883 0.0
C319 C 0.4675 0.13141 0.15997 0.0
C320 C 0.42051 0.17005 0.20099 0.0
C321 C 0.46531 0.16993 0.15425 0.0
C322 C 0.39834 0.23026 0.22042 0.0
C323 C 0.33107 0.18763 0.24605 0.0
N324 N 0.44222 0.18794 0.17448 0.0
N325 N 0.35912 0.17024 0.23201 0.0
H326 H 0.20039 0.85392 0.70037 0.0
H327 H 0.10005 0.0282 0.63928 0.0
H328 H 0.15501 0.92693 0.77416 0.0
H329 H 0.0996 0.92826 0.57446 0.0
H330 H 0.12882 0.99685 0.68744 0.0
H331 H 0.17372 0.88705 0.65166 0.0
C332 C 0.18528 0.87724 0.70623 0.0
C333 C 0.17975 0.88768 0.74124 0.0
C334 C 0.12214 0.98169 0.66275 0.0
C335 C 0.14934 0.92559 0.68598 0.0
C336 C 0.10511 0.99933 0.63543 0.0
C337 C 0.09588 0.98029 0.60323 0.0
C338 C 0.13127 0.94517 0.65747 0.0
C339 C 0.10562 0.94382 0.59901 0.0
C340 C 0.16982 0.89589 0.67854 0.0
C341 C 0.15967 0.91789 0.74749 0.0
N342 N 0.12283 0.92748 0.62576 0.0
N343 N 0.14528 0.93583 0.72018 0.0
H344 H 0.83943 0.34141 0.89763 0.0
H345 H 0.87899 0.53327 0.01132 0.0
H346 H 0.75354 0.41092 0.92064 0.0
H347 H 0.9692 0.47179 0.98197 0.0
H348 H 0.83428 0.49193 0.97253 0.0
H349 H 0.88891 0.39137 0.92285 0.0
C350 C 0.83104 0.36733 0.90762 0.0
C351 C 0.79219 0.37183 0.90717 0.0
C352 C 0.86393 0.48765 0.97405 0.0
C353 C 0.8486 0.42903 0.93608 0.0
C354 C 0.88941 0.5113 0.99613 0.0
C355 C 0.92766 0.50591 0.99948 0.0
C356 C 0.87659 0.45773 0.95575 0.0
C357 C 0.93986 0.4769 0.9797 0.0
C358 C 0.85931 0.39588 0.92188 0.0
C359 C 0.78306 0.40621 0.92006 0.0
N360 N 0.91424 0.45354 0.95887 0.0
N361 N 0.81094 0.43322 0.93428 0.0
H362 H 0.64402 0.76288 0.36696 0.0
H363 H 0.64538 0.64525 0.5464 0.0
H364 H 0.74575 0.7487 0.42567 0.0
H365 H 0.54183 0.6788 0.5055 0.0
H366 H 0.68078 0.67505 0.4962 0.0
H367 H 0.6042 0.7241 0.41133 0.0
C368 C 0.65786 0.75123 0.38895 0.0
C369 C 0.69806 0.75917 0.39304 0.0
C370 C 0.65027 0.67582 0.49792 0.0
C371 C 0.65325 0.71518 0.44333 0.0
C372 C 0.63008 0.65885 0.52664 0.0
C373 C 0.59066 0.65945 0.5299 0.0
C374 C 0.63109 0.69404 0.47226 0.0
C375 C 0.57215 0.67729 0.50352 0.0
C376 C 0.63525 0.72938 0.41426 0.0
C377 C 0.71479 0.74358 0.42187 0.0
N378 N 0.59259 0.6941 0.47572 0.0
N379 N 0.69236 0.72248 0.44587 0.0
H380 H 0.16795 0.38758 0.24311 0.0
H381 H 0.11378 0.5142 0.08151 0.0
H382 H 0.24893 0.43375 0.16336 0.0
H383 H 0.04469 0.49299 0.17475 0.0
H384 H 0.16114 0.47936 0.10787 0.0
H385 H 0.11892 0.41887 0.21443 0.0
C386 C 0.17521 0.40378 0.21929 0.0
C387 C 0.21262 0.40823 0.20574 0.0
C388 C 0.13573 0.48251 0.12267 0.0
C389 C 0.15692 0.44435 0.17293 0.0
C390 C 0.109 0.50292 0.10782 0.0
C391 C 0.07598 0.50778 0.12647 0.0
C392 C 0.1289 0.46592 0.15611 0.0
C393 C 0.0701 0.4905 0.15966 0.0
C394 C 0.14738 0.42193 0.20311 0.0
C395 C 0.22056 0.42988 0.17493 0.0
N396 N 0.09625 0.47043 0.17342 0.0
N397 N 0.19307 0.44714 0.15966 0.0
H398 H 0.7064 0.20144 0.87615 0.0
H399 H 0.64501 0.12033 0.0664 0.0
H400 H 0.74538 0.26118 0.97242 0.0
H401 H 0.57434 0.10471 0.9725 0.0
H402 H 0.69885 0.15359 0.03104 0.0
H403 H 0.67749 0.14626 0.91084 0.0
C404 C 0.7101 0.2024 0.90452 0.0
C405 C 0.72733 0.23624 0.92152 0.0
C406 C 0.67176 0.14205 0.01822 0.0
C407 C 0.69425 0.17357 0.96116 0.0
C408 C 0.64117 0.12328 0.03827 0.0
C409 C 0.6052 0.1107 0.02227 0.0
C410 C 0.66627 0.14723 0.98199 0.0
C411 C 0.60149 0.1148 0.98582 0.0
C412 C 0.69349 0.17102 0.92426 0.0
C413 C 0.73195 0.23579 0.9583 0.0
N414 N 0.6316 0.13289 0.96692 0.0
N415 N 0.71459 0.20523 0.97705 0.0
H416 H 0.81435 0.90572 0.33488 0.0
H417 H 0.91476 0.98866 0.51403 0.0
H418 H 0.80562 0.84105 0.4316 0.0
H419 H 0.97679 1.00018 0.41616 0.0
H420 H 0.85959 0.95019 0.48309 0.0
H421 H 0.86151 0.95503 0.36401 0.0
C422 C 0.82204 0.90171 0.36209 0.0
C423 C 0.8055 0.86886 0.38063 0.0
C424 C 0.88509 0.96188 0.4684 0.0
C425 C 0.85799 0.92617 0.41431 0.0
C426 C 0.9163 0.9839 0.4859 0.0
C427 C 0.95023 0.99714 0.46754 0.0
C428 C 0.88776 0.95399 0.43229 0.0
C429 C 0.95109 0.99009 0.43117 0.0
C430 C 0.84863 0.93013 0.37871 0.0
C431 C 0.81636 0.86605 0.41621 0.0
N432 N 0.92029 0.96886 0.41466 0.0
N433 N 0.84168 0.89436 0.43186 0.0
H434 H 0.31083 0.74717 0.76222 0.0
H435 H 0.51585 0.70173 0.70639 0.0
H436 H 0.4183 0.82221 0.78481 0.0
H437 H 0.41128 0.64974 0.65323 0.0
H438 H 0.47939 0.74145 0.74001 0.0
H439 H 0.34575 0.70731 0.72638 0.0
C440 C 0.34166 0.75562 0.75949 0.0
C441 C 0.36147 0.7884 0.77684 0.0
C442 C 0.46427 0.72124 0.72111 0.0
C443 C 0.40176 0.74194 0.73633 0.0
C444 C 0.48507 0.69834 0.70184 0.0
C445 C 0.46657 0.67167 0.67705 0.0
C446 C 0.42436 0.71756 0.716 0.0
C447 C 0.42659 0.66897 0.67258 0.0
C448 C 0.36158 0.73258 0.73913 0.0
C449 C 0.40164 0.79702 0.7727 0.0
N450 N 0.40676 0.6915 0.69193 0.0
N451 N 0.42035 0.77391 0.75311 0.0
H452 H 0.99967 0.96685 0.84463 0.0
H453 H 0.00649 0.97554 0.63344 0.0
H454 H 0.92414 0.88978 0.77681 0.0
H455 H 0.04332 0.07273 0.70127 0.0
H456 H 0.99283 0.93532 0.68591 0.0
H457 H 0.0321 0.9972 0.79223 0.0
C458 C 0.99067 0.95573 0.81871 0.0
C459 C 0.95927 0.92591 0.81486 0.0
C460 C 1.00457 0.96533 0.68922 0.0
C461 C 0.99588 0.96031 0.75506 0.0
C462 C 0.01258 0.9882 0.65933 0.0
C463 C 0.0257 0.02755 0.66308 0.0
C464 C 0.01013 0.98192 0.72299 0.0
C465 C 0.03288 0.04256 0.69725 0.0
C466 C 0.00893 0.97314 0.78888 0.0
C467 C 0.94827 0.91277 0.78074 0.0
N468 N 0.02479 0.01982 0.72585 0.0
N469 N 0.96639 0.93016 0.75214 0.0
H470 H 0.57461 0.14153 0.40188 0.0
H471 H 0.61819 0.1356 0.19576 0.0
H472 H 0.68382 0.18596 0.3545 0.0
H473 H 0.51418 0.07491 0.24145 0.0
H474 H 0.63576 0.16692 0.25237 0.0
H475 H 0.54646 0.12811 0.34284 0.0
C476 C 0.59254 0.14899 0.37906 0.0
C477 C 0.63179 0.16457 0.38318 0.0
C478 C 0.60863 0.14745 0.25001 0.0
C479 C 0.59971 0.14927 0.31554 0.0
C480 C 0.59836 0.12998 0.21754 0.0
C481 C 0.56457 0.10299 0.21397 0.0
C482 C 0.5853 0.13729 0.27946 0.0
C483 C 0.54023 0.09601 0.24311 0.0
C484 C 0.57646 0.14118 0.34538 0.0
C485 C 0.65364 0.17337 0.35265 0.0
N486 N 0.55138 0.11259 0.27489 0.0
N487 N 0.63739 0.16545 0.32026 0.0
H488 H 0.55542 0.59557 0.30367 0.0
H489 H 0.43284 0.63031 0.47287 0.0
H490 H 0.43928 0.61933 0.30124 0.0
H491 H 0.54357 0.59472 0.47917 0.0
H492 H 0.44157 0.6401 0.40965 0.0
H493 H 0.55761 0.607 0.36745 0.0
C494 C 0.53053 0.60346 0.31642 0.0
C495 C 0.49703 0.60623 0.29697 0.0
C496 C 0.46436 0.63081 0.42486 0.0
C497 C 0.49953 0.61972 0.36974 0.0
C498 C 0.45941 0.62543 0.46093 0.0
C499 C 0.48758 0.61184 0.48103 0.0
C500 C 0.49735 0.62168 0.40865 0.0
C501 C 0.52138 0.6056 0.46445 0.0
C502 C 0.53191 0.61022 0.35277 0.0
C503 C 0.46593 0.61725 0.31485 0.0
N504 N 0.52515 0.61006 0.42902 0.0
N505 N 0.46786 0.62325 0.35015 0.0
H506 H 0.96558 0.43583 0.78864 0.0
H507 H 0.09214 0.57792 0.92472 0.0
H508 H 0.08693 0.48039 0.7784 0.0
H509 H 0.97071 0.53886 0.93993 0.0
H510 H 0.08811 0.54481 0.86874 0.0
H511 H 0.96433 0.47508 0.84187 0.0
C512 C 0.99184 0.45403 0.79734 0.0
C513 C 0.02644 0.45473 0.77891 0.0
C514 C 0.06218 0.54315 0.88418 0.0
C515 C 0.02508 0.49964 0.83953 0.0
C516 C 0.06444 0.5622 0.91627 0.0
C517 C 0.03179 0.56037 0.93746 0.0
C518 C 0.02696 0.52182 0.87285 0.0
C519 C 0.99677 0.53964 0.92499 0.0
C520 C 0.99104 0.47647 0.82764 0.0
C521 C 0.05942 0.47921 0.7912 0.0
N522 N 0.99523 0.52088 0.89345 0.0
N523 N 0.05791 0.5004 0.82072 0.0
H524 H 0.78582 0.92953 0.97054 0.0
H525 H 0.61137 0.03459 0.0174 0.0
H526 H 0.72939 0.99096 0.89397 0.0
H527 H 0.68701 1.00117 0.09677 0.0
H528 H 0.65584 0.02126 0.97203 0.0
H529 H 0.75184 0.95718 0.01743 0.0
C530 C 0.76672 0.94918 0.96356 0.0
C531 C 0.76007 0.95739 0.92811 0.0
C532 C 0.66315 0.0175 0.9994 0.0
C533 C 0.7206 0.9887 0.98169 0.0
C534 C 0.63796 0.02573 0.02541 0.0
C535 C 0.64583 0.01993 0.06105 0.0
C536 C 0.69602 1.00231 0.00896 0.0
C537 C 0.67985 0.00624 0.06962 0.0
C538 C 0.74718 0.96485 0.99037 0.0
C539 C 0.73469 0.9829 0.92078 0.0
N540 N 0.70347 0.99752 0.04377 0.0
N541 N 0.71563 0.99727 0.94724 0.0
H542 H 0.73068 0.09782 0.43088 0.0
H543 H 0.88641 0.10301 0.58115 0.0
H544 H 0.76051 0.19171 0.50421 0.0
H545 H 0.91875 0.07032 0.47745 0.0
H546 H 0.82714 0.11849 0.55659 0.0
H547 H 0.78947 0.07389 0.44909 0.0
C548 C 0.74955 0.11366 0.45046 0.0
C549 C 0.7399 0.14657 0.46651 0.0
C550 C 0.84695 0.10746 0.53924 0.0
C551 C 0.80627 0.11858 0.48794 0.0
C552 C 0.88078 0.09841 0.55321 0.0
C553 C 0.90798 0.08574 0.53129 0.0
C554 C 0.83964 0.1036 0.503 0.0
C555 C 0.89858 0.07989 0.49533 0.0
C556 C 0.78294 0.09979 0.46089 0.0
C557 C 0.76563 0.16557 0.49188 0.0
N558 N 0.86517 0.0892 0.48212 0.0
N559 N 0.79709 0.15102 0.50211 0.0
H560 H 0.32134 0.5828 0.18892 0.0
H561 H 0.13359 0.59299 0.13617 0.0
H562 H 0.34715 0.6154 0.08143 0.0
H563 H 0.17505 0.58502 0.03041 0.0
H564 H 0.19652 0.58309 0.15897 0.0
H565 H 0.25315 0.56425 0.1725 0.0
C566 C 0.31263 0.58521 0.1617 0.0
C567 C 0.33951 0.60105 0.13647 0.0
C568 C 0.1916 0.58227 0.13081 0.0
C569 C 0.26196 0.58131 0.11775 0.0
C570 C 0.15575 0.5882 0.1179 0.0
C571 C 0.14969 0.59025 0.08152 0.0
C572 C 0.22119 0.57861 0.1069 0.0
C573 C 0.179 0.58408 0.0587 0.0
C574 C 0.27368 0.57521 0.15245 0.0
C575 C 0.32709 0.6037 0.10165 0.0
N576 N 0.21359 0.57902 0.07175 0.0
N577 N 0.28917 0.59429 0.0934 0.0
H578 H 0.20398 0.46718 0.70735 0.0
H579 H 0.35959 0.61276 0.60393 0.0
H580 H 0.18433 0.52179 0.6094 0.0
H581 H 0.38784 0.53383 0.68141 0.0
H582 H 0.29219 0.59857 0.62198 0.0
H583 H 0.26723 0.50861 0.71255 0.0
C584 C 0.2126 0.48863 0.68748 0.0
C585 C 0.18935 0.49089 0.65767 0.0
C586 C 0.31331 0.58538 0.63599 0.0
C587 C 0.26116 0.53815 0.66342 0.0
C588 C 0.35184 0.59393 0.62605 0.0
C589 C 0.37911 0.57462 0.64147 0.0
C590 C 0.30205 0.55674 0.661 0.0
C591 C 0.36757 0.54959 0.66925 0.0
C592 C 0.24864 0.51214 0.69039 0.0
C593 C 0.20176 0.51893 0.63253 0.0
N594 N 0.32966 0.5407 0.67769 0.0
N595 N 0.237 0.5412 0.63578 0.0
H596 H 0.9926 0.88505 0.93635 0.0
H597 H 0.94814 0.67646 0.01724 0.0
H598 H 0.88158 0.81229 0.92766 0.0
H599 H 0.05038 0.7573 0.04282 0.0
H600 H 0.92045 0.72768 0.98953 0.0
H601 H 0.01276 0.84028 0.97858 0.0
C602 C 0.97242 0.85976 0.94342 0.0
C603 C 0.93537 0.85245 0.92831 0.0
C604 C 0.94852 0.73453 1.00204 0.0
C605 C 0.95821 0.80096 0.97674 0.0
C606 C 0.96405 0.70535 0.01844 0.0
C607 C 1.00126 0.71279 0.03308 0.0
C608 C 0.9708 0.77122 0.99945 0.0
C609 C 0.02136 0.75047 0.03228 0.0
C610 C 0.98383 0.83432 0.96774 0.0
C611 C 0.91029 0.81935 0.93883 0.0
N612 N 0.00615 0.77811 0.0153 0.0
N613 N 0.92227 0.79473 0.96205 0.0
H614 H 0.41636 0.72281 0.09497 0.0
H615 H 0.48664 0.92072 0.19582 0.0
H616 H 0.44831 0.73334 0.20499 0.0
H617 H 0.47711 0.91219 0.08281 0.0
H618 H 0.46094 0.85284 0.2001 0.0
H619 H 0.42886 0.79263 0.0903 0.0
C620 C 0.42597 0.73985 0.11812 0.0
C621 C 0.43172 0.72233 0.15034 0.0
C622 C 0.46392 0.86581 0.1743 0.0
C623 C 0.44559 0.80189 0.14529 0.0
C624 C 0.47837 0.90462 0.17185 0.0
C625 C 0.48408 0.92202 0.1388 0.0
C626 C 0.4554 0.84403 0.14344 0.0
C627 C 0.47271 0.89994 0.10866 0.0
C628 C 0.43306 0.7796 0.11543 0.0
C629 C 0.44421 0.74564 0.1795 0.0
N630 N 0.45935 0.86185 0.11162 0.0
N631 N 0.4507 0.78418 0.17627 0.0
H632 H 0.18348 0.3736 0.59943 0.0
H633 H 0.04141 0.20473 0.50746 0.0
H634 H 0.06776 0.37893 0.56462 0.0
H635 H 0.1375 0.19139 0.57413 0.0
H636 H 0.06559 0.27352 0.50488 0.0
H637 H 0.1806 0.31364 0.56698 0.0
C638 C 0.15798 0.3629 0.58387 0.0
C639 C 0.12548 0.38081 0.58524 0.0
C640 C 0.08222 0.25537 0.51895 0.0
C641 C 0.12189 0.31207 0.54856 0.0
C642 C 0.06864 0.21616 0.52013 0.0
C643 C 0.08762 0.19277 0.54106 0.0
C644 C 0.11469 0.27101 0.53918 0.0
C645 C 0.12227 0.20873 0.55763 0.0
C646 C 0.15629 0.32854 0.56555 0.0
C647 C 0.09313 0.36555 0.56477 0.0
N648 N 0.1344 0.24709 0.55689 0.0
N649 N 0.09187 0.33164 0.54778 0.0
H650 H 0.55487 0.28408 0.49857 0.0
H651 H 0.57197 0.48465 0.59837 0.0
H652 H 0.62781 0.31018 0.59022 0.0
H653 H 0.46859 0.42924 0.54513 0.0
H654 H 0.6003 0.42683 0.58912 0.0
H655 H 0.53153 0.34474 0.50678 0.0
C656 C 0.56643 0.30292 0.52002 0.0
C657 C 0.59311 0.29212 0.54383 0.0
C658 C 0.57132 0.42745 0.57973 0.0
C659 C 0.56662 0.3613 0.55347 0.0
C660 C 0.55493 0.4602 0.58547 0.0
C661 C 0.51742 0.46161 0.5734 0.0
C662 C 0.55048 0.39643 0.56081 0.0
C663 C 0.49747 0.42956 0.5552 0.0
C664 C 0.5529 0.33729 0.5249 0.0
C665 C 0.60698 0.31743 0.57143 0.0
N666 N 0.51427 0.39854 0.5493 0.0
N667 N 0.5936 0.35087 0.57553 0.0
loop_
_geom_bond_atom_site_label_1
_geom_bond_atom_site_label_2
_geom_bond_distance
_geom_bond_site_symmetry_2
_ccdc_geom_bond_type
H0 C1 0.949 . S
C1 H0 0.949 . S
C1 C2 1.395 . S
C1 C3 1.391 . S
C2 C1 1.395 . S
C2 C5 1.390 . S
C3 C1 1.391 . S
C3 C7 1.387 . S
C3 C8 1.491 . S
H4 C5 0.950 . S
C5 C2 1.390 . S
C5 H4 0.950 . S
C5 C6 1.378 . S
C6 C5 1.378 . S
C6 C7 1.409 . S
C7 C3 1.387 . S
C7 C6 1.409 . S
C7 H9 0.951 . S
C8 C3 1.491 . S
C8 C10 1.382 . S
C8 C12 1.404 . S
H9 C7 0.951 . S
C10 C8 1.382 . S
C10 C11 1.390 . S
C10 H15 0.949 . S
C11 C10 1.390 . S
C11 C16 1.399 . S
C12 C8 1.404 . S
C12 H13 0.950 . S
C12 C14 1.375 . S
H13 C12 0.950 . S
C14 C12 1.375 . S
C14 C16 1.382 . S
C14 H18 0.950 . S
H15 C10 0.949 . S
C16 C11 1.399 . S
C16 C14 1.382 . S
C16 H17 0.952 . S
H17 C16 0.952 . S
H18 C14 0.950 . S
H19 C20 0.949 . S
C20 H19 0.949 . S
C20 C21 1.395 . S
C20 C22 1.391 . S
C21 C20 1.395 . S
C21 C24 1.390 . S
C22 C20 1.391 . S
C22 C26 1.387 . S
C22 C27 1.491 . S
H23 C24 0.950 . S
C24 C21 1.390 . S
C24 H23 0.950 . S
C24 C25 1.378 . S
C25 C24 1.378 . S
C25 C26 1.409 . S
C26 C22 1.387 . S
C26 C25 1.409 . S
C26 H28 0.951 . S
C27 C22 1.491 . S
C27 C29 1.382 . S
C27 C31 1.404 . S
H28 C26 0.951 . S
C29 C27 1.382 . S
C29 C30 1.390 . S
C29 H34 0.949 . S
C30 C29 1.390 . S
C30 C35 1.399 . S
C31 C27 1.404 . S
C31 H32 0.950 . S
C31 C33 1.375 . S
H32 C31 0.950 . S
C33 C31 1.375 . S
C33 C35 1.382 . S
C33 H37 0.950 . S
H34 C29 0.949 . S
C35 C30 1.399 . S
C35 C33 1.382 . S
C35 H36 0.952 . S
H36 C35 0.952 . S
H37 C33 0.950 . S
H38 C39 0.949 . S
C39 H38 0.949 . S
C39 C40 1.395 . S
C39 C41 1.391 . S
C40 C39 1.395 . S
C40 C43 1.390 . S
C41 C39 1.391 . S
C41 C45 1.387 . S
C41 C46 1.491 . S
H42 C43 0.950 . S
C43 C40 1.390 . S
C43 H42 0.950 . S
C43 C44 1.378 . S
C44 C43 1.378 . S
C44 C45 1.409 . S
C45 C41 1.387 . S
C45 C44 1.409 . S
C45 H47 0.951 . S
C46 C41 1.491 . S
C46 C48 1.382 . S
C46 C50 1.404 . S
H47 C45 0.951 . S
C48 C46 1.382 . S
C48 C49 1.390 . S
C48 H53 0.949 . S
C49 C48 1.390 . S
C49 C54 1.399 . S
C50 C46 1.404 . S
C50 H51 0.950 . S
C50 C52 1.375 . S
H51 C50 0.950 . S
C52 C50 1.375 . S
C52 C54 1.382 . S
C52 H56 0.950 . S
H53 C48 0.949 . S
C54 C49 1.399 . S
C54 C52 1.382 . S
C54 H55 0.952 . S
H55 C54 0.952 . S
H56 C52 0.950 . S
H57 C58 0.949 . S
C58 H57 0.949 . S
C58 C59 1.395 . S
C58 C60 1.391 . S
C59 C58 1.395 . S
C59 C62 1.390 . S
C60 C58 1.391 . S
C60 C64 1.387 . S
C60 C65 1.491 . S
H61 C62 0.950 . S
C62 C59 1.390 . S
C62 H61 0.950 . S
C62 C63 1.378 . S
C63 C62 1.378 . S
C63 C64 1.409 . S
C64 C60 1.387 . S
C64 C63 1.409 . S
C64 H66 0.951 . S
C65 C60 1.491 . S
C65 C67 1.382 . S
C65 C69 1.404 . S
H66 C64 0.951 . S
C67 C65 1.382 . S
C67 C68 1.390 . S
C67 H72 0.949 . S
C68 C67 1.390 . S
C68 C73 1.399 . S
C69 C65 1.404 . S
C69 H70 0.950 . S
C69 C71 1.375 . S
H70 C69 0.950 . S
C71 C69 1.375 . S
C71 C73 1.382 . S
C71 H75 0.950 . S
H72 C67 0.949 . S
C73 C68 1.399 . S
C73 C71 1.382 . S
C73 H74 0.952 . S
H74 C73 0.952 . S
H75 C71 0.950 . S
H76 C77 0.949 . S
C77 H76 0.949 . S
C77 C78 1.395 . S
C77 C79 1.391 . S
C78 C77 1.395 . S
C78 C81 1.390 . S
C79 C77 1.391 . S
C79 C83 1.387 1_565 S
C79 C84 1.491 1_565 S
H80 C81 0.950 1_455 S
C81 C78 1.390 . S
C81 H80 0.950 1_655 S
C81 C82 1.378 . S
C82 C81 1.378 . S
C82 C83 1.409 1_565 S
C83 C79 1.387 1_545 S
C83 C82 1.409 1_545 S
C83 H85 0.951 . S
C84 C79 1.491 1_545 S
C84 C86 1.382 . S
C84 C88 1.404 . S
H85 C83 0.951 . S
C86 C84 1.382 . S
C86 C87 1.390 1_556 S
C86 H91 0.949 1_556 S
C87 C86 1.390 1_554 S
C87 C92 1.399 1_554 S
C88 C84 1.404 . S
C88 H89 0.950 . S
C88 C90 1.375 . S
H89 C88 0.950 . S
C90 C88 1.375 . S
C90 C92 1.382 . S
C90 H94 0.950 . S
H91 C86 0.949 1_554 S
C92 C87 1.399 1_556 S
C92 C90 1.382 . S
C92 H93 0.952 . S
H93 C92 0.952 . S
H94 C90 0.950 . S
H95 C96 0.949 . S
C96 H95 0.949 . S
C96 C97 1.395 . S
C96 C98 1.391 . S
C97 C96 1.395 . S
C97 C100 1.390 . S
C98 C96 1.391 . S
C98 C102 1.387 . S
C98 C103 1.491 . S
H99 C100 0.950 . S
C100 C97 1.390 . S
C100 H99 0.950 . S
C100 C101 1.378 . S
C101 C100 1.378 . S
C101 C102 1.409 . S
C102 C98 1.387 . S
C102 C101 1.409 . S
C102 H104 0.951 . S
C103 C98 1.491 . S
C103 C105 1.382 . S
C103 C107 1.404 . S
H104 C102 0.951 . S
C105 C103 1.382 . S
C105 C106 1.390 . S
C105 H110 0.949 . S
C106 C105 1.390 . S
C106 C111 1.399 . S
C107 C103 1.404 . S
C107 H108 0.950 . S
C107 C109 1.375 . S
H108 C107 0.950 . S
C109 C107 1.375 . S
C109 C111 1.382 . S
C109 H113 0.950 . S
H110 C105 0.949 . S
C111 C106 1.399 . S
C111 C109 1.382 . S
C111 H112 0.952 . S
H112 C111 0.952 . S
H113 C109 0.950 . S
H114 C115 0.949 . S
C115 H114 0.949 . S
C115 C116 1.395 . S
C115 C117 1.391 . S
C116 C115 1.395 . S
C116 C119 1.390 . S
C117 C115 1.391 . S
C117 C121 1.387 . S
C117 C122 1.491 . S
H118 C119 0.950 . S
C119 C116 1.390 . S
C119 H118 0.950 . S
C119 C120 1.378 . S
C120 C119 1.378 . S
C120 C121 1.409 . S
C121 C117 1.387 . S
C121 C120 1.409 . S
C121 H123 0.951 . S
C122 C117 1.491 . S
C122 C124 1.382 . S
C122 C126 1.404 . S
H123 C121 0.951 . S
C124 C122 1.382 . S
C124 C125 1.390 . S
C124 H129 0.949 . S
C125 C124 1.390 . S
C125 C130 1.399 . S
C126 C122 1.404 . S
C126 H127 0.950 . S
C126 C128 1.375 . S
H127 C126 0.950 . S
C128 C126 1.375 . S
C128 C130 1.382 . S
C128 H132 0.950 . S
H129 C124 0.949 . S
C130 C125 1.399 . S
C130 C128 1.382 . S
C130 H131 0.952 . S
H131 C130 0.952 . S
H132 C128 0.950 . S
H133 C134 0.949 . S
C134 H133 0.949 . S
C134 C135 1.395 . S
C134 C136 1.391 . S
C135 C134 1.395 . S
C135 C138 1.390 . S
C136 C134 1.391 . S
C136 C140 1.387 . S
C136 C141 1.491 . S
H137 C138 0.950 . S
C138 C135 1.390 . S
C138 H137 0.950 . S
C138 C139 1.378 . S
C139 C138 1.378 . S
C139 C140 1.409 . S
C140 C136 1.387 . S
C140 C139 1.409 . S
C140 H142 0.951 . S
C141 C136 1.491 . S
C141 C143 1.382 . S
C141 C145 1.404 . S
H142 C140 0.951 . S
C143 C141 1.382 . S
C143 C144 1.390 . S
C143 H148 0.949 . S
C144 C143 1.390 . S
C144 C149 1.399 . S
C145 C141 1.404 . S
C145 H146 0.950 . S
C145 C147 1.375 . S
H146 C145 0.950 . S
C147 C145 1.375 . S
C147 C149 1.382 . S
C147 H151 0.950 . S
H148 C143 0.949 . S
C149 C144 1.399 . S
C149 C147 1.382 . S
C149 H150 0.952 . S
H150 C149 0.952 . S
H151 C147 0.950 . S
Zn152 O158 1.920 . S
Zn152 O164 1.898 . S
Zn152 O167 1.905 . S
Zn153 O161 1.906 . S
Zn153 O162 1.898 1_545 S
Zn153 O170 1.919 1_545 S
Zn154 O157 2.080 1_455 S
Zn154 O160 2.114 . S
Zn154 O163 2.120 1_445 S
Zn154 O165 2.120 . S
Zn154 O166 2.114 1_455 S
Zn154 O169 2.080 . S
C155 O160 1.166 . S
C155 O161 1.182 . S
C156 O162 1.167 1_655 S
C156 O163 1.299 . S
O157 Zn154 2.080 1_655 S
O157 C171 1.305 . S
O158 Zn152 1.920 . S
O158 C171 1.234 . S
C159 O164 1.167 1_455 S
C159 O165 1.299 . S
O160 Zn154 2.114 . S
O160 C155 1.166 . S
O161 Zn153 1.906 . S
O161 C155 1.182 . S
O162 Zn153 1.898 1_565 S
O162 C156 1.167 1_455 S
O163 Zn154 2.120 1_665 S
O163 C156 1.299 . S
O164 Zn152 1.898 . S
O164 C159 1.167 1_655 S
O165 Zn154 2.120 . S
O165 C159 1.299 . S
O166 Zn154 2.114 1_655 S
O166 C168 1.166 . S
O167 Zn152 1.905 . S
O167 C168 1.182 . S
C168 O166 1.166 . S
C168 O167 1.182 . S
O169 Zn154 2.080 . S
O169 C172 1.305 . S
O170 Zn153 1.919 1_565 S
O170 C172 1.234 1_565 S
C171 O157 1.305 . S
C171 O158 1.234 . S
C172 O169 1.305 . S
C172 O170 1.234 1_545 S
Zn173 O179 1.920 . S
Zn173 O185 1.898 . S
Zn173 O188 1.905 . S
Zn174 O182 1.905 1_565 S
Zn174 O183 1.898 . S
Zn174 O191 1.920 1_565 S
Zn175 O178 2.080 . S
Zn175 O181 2.114 . S
Zn175 O184 2.120 1_545 S
Zn175 O186 2.120 . S
Zn175 O187 2.114 . S
Zn175 O190 2.080 . S
C176 O181 1.166 . S
C176 O182 1.182 . S
C177 O183 1.167 . S
C177 O184 1.299 . S
O178 Zn175 2.080 . S
O178 C192 1.305 . S
O179 Zn173 1.920 . S
O179 C192 1.234 . S
C180 O185 1.167 . S
C180 O186 1.299 . S
O181 Zn175 2.114 . S
O181 C176 1.166 . S
O182 Zn174 1.905 1_545 S
O182 C176 1.182 . S
O183 Zn174 1.898 . S
O183 C177 1.167 . S
O184 Zn175 2.120 1_565 S
O184 C177 1.299 . S
O185 Zn173 1.898 . S
O185 C180 1.167 . S
O186 Zn175 2.120 . S
O186 C180 1.299 . S
O187 Zn175 2.114 . S
O187 C189 1.166 . S
O188 Zn173 1.905 . S
O188 C189 1.182 . S
C189 O187 1.166 . S
C189 O188 1.182 . S
O190 Zn175 2.080 . S
O190 C193 1.305 . S
O191 Zn174 1.920 1_545 S
O191 C193 1.234 . S
C192 O178 1.305 . S
C192 O179 1.234 . S
C193 O190 1.305 . S
C193 O191 1.234 . S
Zn194 O200 1.920 . S
Zn194 O206 1.898 . S
Zn194 O209 1.905 . S
Zn195 O203 1.905 . S
Zn195 O204 1.898 . S
Zn195 O212 1.920 . S
Zn196 O199 2.080 . S
Zn196 O202 2.114 . S
Zn196 O205 2.120 . S
Zn196 O207 2.120 . S
Zn196 O208 2.114 . S
Zn196 O211 2.080 . S
C197 O202 1.166 . S
C197 O203 1.182 . S
C198 O204 1.167 . S
C198 O205 1.299 . S
O199 Zn196 2.080 . S
O199 C213 1.305 . S
O200 Zn194 1.920 . S
O200 C213 1.234 . S
C201 O206 1.167 . S
C201 O207 1.299 . S
O202 Zn196 2.114 . S
O202 C197 1.166 . S
O203 Zn195 1.905 . S
O203 C197 1.182 . S
O204 Zn195 1.898 . S
O204 C198 1.167 . S
O205 Zn196 2.120 . S
O205 C198 1.299 . S
O206 Zn194 1.898 . S
O206 C201 1.167 . S
O207 Zn196 2.120 . S
O207 C201 1.299 . S
O208 Zn196 2.114 . S
O208 C210 1.166 . S
O209 Zn194 1.905 . S
O209 C210 1.182 . S
C210 O208 1.166 . S
C210 O209 1.182 . S
O211 Zn196 2.080 . S
O211 C214 1.305 . S
O212 Zn195 1.920 . S
O212 C214 1.234 . S
C213 O199 1.305 . S
C213 O200 1.234 . S
C214 O211 1.305 . S
C214 O212 1.234 . S
Zn215 O221 1.920 . S
Zn215 O227 1.898 1_556 S
Zn215 O230 1.905 . S
Zn216 O224 1.905 1_655 S
Zn216 O225 1.898 . S
Zn216 O233 1.920 . S
Zn217 O220 2.080 . S
Zn217 O223 2.114 . S
Zn217 O226 2.120 1_455 S
Zn217 O228 2.120 . S
Zn217 O229 2.114 1_554 S
Zn217 O232 2.080 . S
C218 O223 1.166 . S
C218 O224 1.182 . S
C219 O225 1.167 . S
C219 O226 1.299 . S
O220 Zn217 2.080 . S
O220 C234 1.306 . S
O221 Zn215 1.920 . S
O221 C234 1.222 1_556 S
C222 O227 1.167 . S
C222 O228 1.299 . S
O223 Zn217 2.114 . S
O223 C218 1.166 . S
O224 Zn216 1.905 1_455 S
O224 C218 1.182 . S
O225 Zn216 1.898 . S
O225 C219 1.167 . S
O226 Zn217 2.120 1_655 S
O226 C219 1.299 . S
O227 Zn215 1.898 1_554 S
O227 C222 1.167 . S
O228 Zn217 2.120 . S
O228 C222 1.299 . S
O229 Zn217 2.114 1_556 S
O229 C231 1.166 . S
O230 Zn215 1.905 . S
O230 C231 1.182 . S
C231 O229 1.166 . S
C231 O230 1.182 . S
O232 Zn217 2.080 . S
O232 C235 1.305 1_455 S
O233 Zn216 1.920 . S
O233 C235 1.234 . S
C234 O220 1.306 . S
C234 O221 1.222 1_554 S
C235 O232 1.305 1_655 S
C235 O233 1.234 . S
H236 C242 0.930 . S
H237 C246 0.930 . S
H238 C251 0.929 . S
H239 C249 0.929 . S
H240 C244 0.929 . S
H241 C250 0.929 . S
C242 H236 0.930 . S
C242 C243 1.367 . S
C242 C250 1.378 . S
C243 C242 1.367 . S
C243 C251 1.433 . S
C244 H240 0.929 . S
C244 C246 1.378 . S
C244 C248 1.350 . S
C245 C248 1.463 . S
C245 C250 1.350 . S
C245 N253 1.427 . S
C246 H237 0.930 . S
C246 C244 1.378 . S
C246 C247 1.367 . S
C247 C246 1.367 . S
C247 C249 1.433 . S
C248 C244 1.350 . S
C248 C245 1.463 . S
C248 N252 1.427 . S
C249 H239 0.929 . S
C249 C247 1.433 . S
C249 N252 1.384 . S
C250 H241 0.929 . S
C250 C242 1.378 . S
C250 C245 1.350 . S
C251 H238 0.929 . S
C251 C243 1.433 . S
C251 N253 1.384 . S
N252 C248 1.427 . S
N252 C249 1.384 . S
N253 C245 1.427 . S
N253 C251 1.384 . S
H254 C260 0.930 . S
H255 C264 0.930 1_554 S
H256 C269 0.929 . S
H257 C267 0.929 . S
H258 C262 0.929 . S
H259 C268 0.929 . S
C260 H254 0.930 . S
C260 C261 1.367 . S
C260 C268 1.378 . S
C261 C260 1.367 . S
C261 C269 1.433 . S
C262 H258 0.929 . S
C262 C264 1.378 . S
C262 C266 1.350 . S
C263 C266 1.463 . S
C263 C268 1.350 . S
C263 N271 1.427 . S
C264 H255 0.930 1_556 S
C264 C262 1.378 . S
C264 C265 1.367 . S
C265 C264 1.367 . S
C265 C267 1.433 1_565 S
C266 C262 1.350 . S
C266 C263 1.463 . S
C266 N270 1.427 . S
C267 H257 0.929 . S
C267 C265 1.433 1_545 S
C267 N270 1.384 1_545 S
C268 H259 0.929 . S
C268 C260 1.378 . S
C268 C263 1.350 . S
C269 H256 0.929 . S
C269 C261 1.433 . S
C269 N271 1.384 . S
N270 C266 1.427 . S
N270 C267 1.384 1_565 S
N271 C263 1.427 . S
N271 C269 1.384 . S
H272 C278 0.930 . S
H273 C282 0.930 . S
H274 C287 0.929 . S
H275 C285 0.929 . S
H276 C280 0.929 . S
H277 C286 0.929 . S
C278 H272 0.930 . S
C278 C279 1.367 . S
C278 C286 1.378 . S
C279 C278 1.367 . S
C279 C287 1.433 . S
C280 H276 0.929 . S
C280 C282 1.378 . S
C280 C284 1.350 . S
C281 C284 1.463 . S
C281 C286 1.350 . S
C281 N289 1.427 . S
C282 H273 0.930 . S
C282 C280 1.378 . S
C282 C283 1.367 . S
C283 C282 1.367 . S
C283 C285 1.433 . S
C284 C280 1.350 . S
C284 C281 1.463 . S
C284 N288 1.427 . S
C285 H275 0.929 . S
C285 C283 1.433 . S
C285 N288 1.384 . S
C286 H277 0.929 . S
C286 C278 1.378 . S
C286 C281 1.350 . S
C287 H274 0.929 . S
C287 C279 1.433 . S
C287 N289 1.384 . S
N288 C284 1.427 . S
N288 C285 1.384 . S
N289 C281 1.427 . S
N289 C287 1.384 . S
H290 C296 0.930 . S
H291 C300 0.930 . S
H292 C305 0.929 . S
H293 C303 0.929 . S
H294 C298 0.929 . S
H295 C304 0.929 . S
C296 H290 0.930 . S
C296 C297 1.367 . S
C296 C304 1.378 . S
C297 C296 1.367 . S
C297 C305 1.433 . S
C298 H294 0.929 . S
C298 C300 1.378 . S
C298 C302 1.350 . S
C299 C302 1.463 . S
C299 C304 1.350 . S
C299 N307 1.427 . S
C300 H291 0.930 . S
C300 C298 1.378 . S
C300 C301 1.367 . S
C301 C300 1.367 . S
C301 C303 1.433 . S
C302 C298 1.350 . S
C302 C299 1.463 . S
C302 N306 1.427 . S
C303 H293 0.929 . S
C303 C301 1.433 . S
C303 N306 1.384 . S
C304 H295 0.929 . S
C304 C296 1.378 . S
C304 C299 1.350 . S
C305 H292 0.929 . S
C305 C297 1.433 . S
C305 N307 1.384 . S
N306 C302 1.427 . S
N306 C303 1.384 . S
N307 C299 1.427 . S
N307 C305 1.384 . S
H308 C314 0.930 . S
H309 C318 0.930 . S
H310 C323 0.929 . S
H311 C321 0.929 . S
H312 C316 0.929 . S
H313 C322 0.929 . S
C314 H308 0.930 . S
C314 C315 1.367 . S
C314 C322 1.378 . S
C315 C314 1.367 . S
C315 C323 1.433 . S
C316 H312 0.929 . S
C316 C318 1.378 . S
C316 C320 1.350 . S
C317 C320 1.463 . S
C317 C322 1.350 . S
C317 N325 1.427 . S
C318 H309 0.930 . S
C318 C316 1.378 . S
C318 C319 1.367 . S
C319 C318 1.367 . S
C319 C321 1.433 . S
C320 C316 1.350 . S
C320 C317 1.463 . S
C320 N324 1.427 . S
C321 H311 0.929 . S
C321 C319 1.433 . S
C321 N324 1.384 . S
C322 H313 0.929 . S
C322 C314 1.378 . S
C322 C317 1.350 . S
C323 H310 0.929 . S
C323 C315 1.433 . S
C323 N325 1.384 . S
N324 C320 1.427 . S
N324 C321 1.384 . S
N325 C317 1.427 . S
N325 C323 1.384 . S
H326 C332 0.930 . S
H327 C336 0.930 . S
H328 C341 0.929 . S
H329 C339 0.929 . S
H330 C334 0.929 . S
H331 C340 0.929 . S
C332 H326 0.930 . S
C332 C333 1.367 . S
C332 C340 1.378 . S
C333 C332 1.367 . S
C333 C341 1.433 . S
C334 H330 0.929 . S
C334 C336 1.378 . S
C334 C338 1.350 1_545 S
C335 C338 1.463 . S
C335 C340 1.350 . S
C335 N343 1.427 . S
C336 H327 0.930 . S
C336 C334 1.378 . S
C336 C337 1.367 . S
C337 C336 1.367 . S
C337 C339 1.433 1_545 S
C338 C334 1.350 1_565 S
C338 C335 1.463 . S
C338 N342 1.427 . S
C339 H329 0.929 . S
C339 C337 1.433 1_565 S
C339 N342 1.384 . S
C340 H331 0.929 . S
C340 C332 1.378 . S
C340 C335 1.350 . S
C341 H328 0.929 . S
C341 C333 1.433 . S
C341 N343 1.384 . S
N342 C338 1.427 . S
N342 C339 1.384 . S
N343 C335 1.427 . S
N343 C341 1.384 . S
H344 C350 0.930 . S
H345 C354 0.930 . S
H346 C359 0.929 . S
H347 C357 0.929 . S
H348 C352 0.929 . S
H349 C358 0.929 . S
C350 H344 0.930 . S
C350 C351 1.367 . S
C350 C358 1.378 . S
C351 C350 1.367 . S
C351 C359 1.433 . S
C352 H348 0.929 . S
C352 C354 1.378 . S
C352 C356 1.350 . S
C353 C356 1.463 . S
C353 C358 1.350 . S
C353 N361 1.427 . S
C354 H345 0.930 . S
C354 C352 1.378 . S
C354 C355 1.367 . S
C355 C354 1.367 . S
C355 C357 1.433 . S
C356 C352 1.350 . S
C356 C353 1.463 . S
C356 N360 1.427 . S
C357 H347 0.929 . S
C357 C355 1.433 . S
C357 N360 1.384 . S
C358 H349 0.929 . S
C358 C350 1.378 . S
C358 C353 1.350 . S
C359 H346 0.929 . S
C359 C351 1.433 . S
C359 N361 1.384 . S
N360 C356 1.427 . S
N360 C357 1.384 . S
N361 C353 1.427 . S
N361 C359 1.384 . S
H362 C368 0.930 . S
H363 C372 0.930 . S
H364 C377 0.929 . S
H365 C375 0.929 . S
H366 C370 0.929 . S
H367 C376 0.929 . S
C368 H362 0.930 . S
C368 C369 1.367 . S
C368 C376 1.378 . S
C369 C368 1.367 . S
C369 C377 1.433 . S
C370 H366 0.929 . S
C370 C372 1.378 . S
C370 C374 1.350 . S
C371 C374 1.463 . S
C371 C376 1.350 . S
C371 N379 1.427 . S
C372 H363 0.930 . S
C372 C370 1.378 . S
C372 C373 1.367 . S
C373 C372 1.367 . S
C373 C375 1.433 . S
C374 C370 1.350 . S
C374 C371 1.463 . S
C374 N378 1.427 . S
C375 H365 0.929 . S
C375 C373 1.433 . S
C375 N378 1.384 . S
C376 H367 0.929 . S
C376 C368 1.378 . S
C376 C371 1.350 . S
C377 H364 0.929 . S
C377 C369 1.433 . S
C377 N379 1.384 . S
N378 C374 1.427 . S
N378 C375 1.384 . S
N379 C371 1.427 . S
N379 C377 1.384 . S
H380 C386 0.930 . S
H381 C390 0.930 . S
H382 C395 0.929 . S
H383 C393 0.929 . S
H384 C388 0.929 . S
H385 C394 0.929 . S
C386 H380 0.930 . S
C386 C387 1.367 . S
C386 C394 1.378 . S
C387 C386 1.367 . S
C387 C395 1.433 . S
C388 H384 0.929 . S
C388 C390 1.378 . S
C388 C392 1.350 . S
C389 C392 1.463 . S
C389 C394 1.350 . S
C389 N397 1.427 . S
C390 H381 0.930 . S
C390 C388 1.378 . S
C390 C391 1.367 . S
C391 C390 1.367 . S
C391 C393 1.433 . S
C392 C388 1.350 . S
C392 C389 1.463 . S
C392 N396 1.427 . S
C393 H383 0.929 . S
C393 C391 1.433 . S
C393 N396 1.384 . S
C394 H385 0.929 . S
C394 C386 1.378 . S
C394 C389 1.350 . S
C395 H382 0.929 . S
C395 C387 1.433 . S
C395 N397 1.384 . S
N396 C392 1.427 . S
N396 C393 1.384 . S
N397 C389 1.427 . S
N397 C395 1.384 . S
H398 C404 0.930 . S
H399 C408 0.930 . S
H400 C413 0.929 1_554 S
H401 C411 0.929 . S
H402 C406 0.929 . S
H403 C412 0.929 . S
C404 H398 0.930 . S
C404 C405 1.367 . S
C404 C412 1.378 . S
C405 C404 1.367 . S
C405 C413 1.433 . S
C406 H402 0.929 . S
C406 C408 1.378 . S
C406 C410 1.350 . S
C407 C410 1.463 1_556 S
C407 C412 1.350 . S
C407 N415 1.427 1_556 S
C408 H399 0.930 . S
C408 C406 1.378 . S
C408 C409 1.367 . S
C409 C408 1.367 . S
C409 C411 1.433 1_554 S
C410 C406 1.350 . S
C410 C407 1.463 1_554 S
C410 N414 1.427 1_554 S
C411 H401 0.929 . S
C411 C409 1.433 1_556 S
C411 N414 1.384 . S
C412 H403 0.929 . S
C412 C404 1.378 . S
C412 C407 1.350 . S
C413 H400 0.929 1_556 S
C413 C405 1.433 . S
C413 N415 1.384 1_556 S
N414 C410 1.427 1_556 S
N414 C411 1.384 . S
N415 C407 1.427 1_554 S
N415 C413 1.384 1_554 S
H416 C422 0.930 . S
H417 C426 0.930 . S
H418 C431 0.929 . S
H419 C429 0.929 . S
H420 C424 0.929 . S
H421 C430 0.929 . S
C422 H416 0.930 . S
C422 C423 1.367 . S
C422 C430 1.378 . S
C423 C422 1.367 . S
C423 C431 1.433 . S
C424 H420 0.929 . S
C424 C426 1.378 . S
C424 C428 1.350 . S
C425 C428 1.463 . S
C425 C430 1.350 . S
C425 N433 1.427 . S
C426 H417 0.930 . S
C426 C424 1.378 . S
C426 C427 1.367 . S
C427 C426 1.367 . S
C427 C429 1.433 . S
C428 C424 1.350 . S
C428 C425 1.463 . S
C428 N432 1.427 . S
C429 H419 0.929 . S
C429 C427 1.433 . S
C429 N432 1.384 . S
C430 H421 0.929 . S
C430 C422 1.378 . S
C430 C425 1.350 . S
C431 H418 0.929 . S
C431 C423 1.433 . S
C431 N433 1.384 . S
N432 C428 1.427 . S
N432 C429 1.384 . S
N433 C425 1.427 . S
N433 C431 1.384 . S
H434 C440 0.930 . S
H435 C444 0.930 . S
H436 C449 0.929 . S
H437 C447 0.929 . S
H438 C442 0.929 . S
H439 C448 0.929 . S
C440 H434 0.930 . S
C440 C441 1.367 . S
C440 C448 1.378 . S
C441 C440 1.367 . S
C441 C449 1.433 . S
C442 H438 0.929 . S
C442 C444 1.378 . S
C442 C446 1.350 . S
C443 C446 1.463 . S
C443 C448 1.350 . S
C443 N451 1.427 . S
C444 H435 0.930 . S
C444 C442 1.378 . S
C444 C445 1.367 . S
C445 C444 1.367 . S
C445 C447 1.433 . S
C446 C442 1.350 . S
C446 C443 1.463 . S
C446 N450 1.427 . S
C447 H437 0.929 . S
C447 C445 1.433 . S
C447 N450 1.384 . S
C448 H439 0.929 . S
C448 C440 1.378 . S
C448 C443 1.350 . S
C449 H436 0.929 . S
C449 C441 1.433 . S
C449 N451 1.384 . S
N450 C446 1.427 . S
N450 C447 1.384 . S
N451 C443 1.427 . S
N451 C449 1.384 . S
H452 C458 0.930 . S
H453 C462 0.930 . S
H454 C467 0.929 . S
H455 C465 0.929 . S
H456 C460 0.929 . S
H457 C466 0.929 . S
C458 H452 0.930 . S
C458 C459 1.367 1_455 S
C458 C466 1.378 . S
C459 C458 1.367 1_655 S
C459 C467 1.433 1_545 S
C460 H456 0.929 . S
C460 C462 1.378 . S
C460 C464 1.350 1_565 S
C461 C464 1.463 . S
C461 C466 1.350 1_655 S
C461 N469 1.427 1_545 S
C462 H453 0.930 . S
C462 C460 1.378 . S
C462 C463 1.367 1_565 S
C463 C462 1.367 1_545 S
C463 C465 1.433 1_655 S
C464 C460 1.350 1_545 S
C464 C461 1.463 . S
C464 N468 1.427 1_655 S
C465 H455 0.929 . S
C465 C463 1.433 1_455 S
C465 N468 1.384 . S
C466 H457 0.929 . S
C466 C458 1.378 . S
C466 C461 1.350 1_455 S
C467 H454 0.929 . S
C467 C459 1.433 1_565 S
C467 N469 1.384 . S
N468 C464 1.427 1_455 S
N468 C465 1.384 . S
N469 C461 1.427 1_565 S
N469 C467 1.384 . S
H470 C476 0.930 . S
H471 C480 0.930 . S
H472 C485 0.929 . S
H473 C483 0.929 . S
H474 C478 0.929 . S
H475 C484 0.929 . S
C476 H470 0.930 . S
C476 C477 1.367 . S
C476 C484 1.378 . S
C477 C476 1.367 . S
C477 C485 1.433 . S
C478 H474 0.929 . S
C478 C480 1.378 . S
C478 C482 1.350 . S
C479 C482 1.463 . S
C479 C484 1.350 . S
C479 N487 1.427 . S
C480 H471 0.930 . S
C480 C478 1.378 . S
C480 C481 1.367 . S
C481 C480 1.367 . S
C481 C483 1.433 . S
C482 C478 1.350 . S
C482 C479 1.463 . S
C482 N486 1.427 . S
C483 H473 0.929 . S
C483 C481 1.433 . S
C483 N486 1.384 . S
C484 H475 0.929 . S
C484 C476 1.378 . S
C484 C479 1.350 . S
C485 H472 0.929 . S
C485 C477 1.433 . S
C485 N487 1.384 . S
N486 C482 1.427 . S
N486 C483 1.384 . S
N487 C479 1.427 . S
N487 C485 1.384 . S
H488 C494 0.930 . S
H489 C498 0.930 . S
H490 C503 0.929 . S
H491 C501 0.929 . S
H492 C496 0.929 . S
H493 C502 0.929 . S
C494 H488 0.930 . S
C494 C495 1.367 . S
C494 C502 1.378 . S
C495 C494 1.367 . S
C495 C503 1.433 . S
C496 H492 0.929 . S
C496 C498 1.378 . S
C496 C500 1.350 . S
C497 C500 1.463 . S
C497 C502 1.350 . S
C497 N505 1.427 . S
C498 H489 0.930 . S
C498 C496 1.378 . S
C498 C499 1.367 . S
C499 C498 1.367 . S
C499 C501 1.433 . S
C500 C496 1.350 . S
C500 C497 1.463 . S
C500 N504 1.427 . S
C501 H491 0.929 . S
C501 C499 1.433 . S
C501 N504 1.384 . S
C502 H493 0.929 . S
C502 C494 1.378 . S
C502 C497 1.350 . S
C503 H490 0.929 . S
C503 C495 1.433 . S
C503 N505 1.384 . S
N504 C500 1.427 . S
N504 C501 1.384 . S
N505 C497 1.427 . S
N505 C503 1.384 . S
H506 C512 0.930 . S
H507 C516 0.930 . S
H508 C521 0.929 . S
H509 C519 0.929 . S
H510 C514 0.929 . S
H511 C520 0.929 . S
C512 H506 0.930 . S
C512 C513 1.367 . S
C512 C520 1.378 . S
C513 C512 1.367 . S
C513 C521 1.433 . S
C514 H510 0.929 . S
C514 C516 1.378 . S
C514 C518 1.350 . S
C515 C518 1.463 . S
C515 C520 1.350 . S
C515 N523 1.427 . S
C516 H507 0.930 . S
C516 C514 1.378 . S
C516 C517 1.367 . S
C517 C516 1.367 . S
C517 C519 1.433 . S
C518 C514 1.350 . S
C518 C515 1.463 . S
C518 N522 1.427 . S
C519 H509 0.929 . S
C519 C517 1.433 . S
C519 N522 1.384 . S
C520 H511 0.929 . S
C520 C512 1.378 . S
C520 C515 1.350 . S
C521 H508 0.929 . S
C521 C513 1.433 . S
C521 N523 1.384 . S
N522 C518 1.427 . S
N522 C519 1.384 . S
N523 C515 1.427 . S
N523 C521 1.384 . S
H524 C530 0.930 . S
H525 C534 0.930 . S
H526 C539 0.929 . S
H527 C537 0.929 . S
H528 C532 0.929 . S
H529 C538 0.929 . S
C530 H524 0.930 . S
C530 C531 1.367 1_565 S
C530 C538 1.378 . S
C531 C530 1.367 1_545 S
C531 C539 1.433 . S
C532 H528 0.929 . S
C532 C534 1.378 . S
C532 C536 1.350 . S
C533 C536 1.463 . S
C533 C538 1.350 1_545 S
C533 N541 1.427 . S
C534 H525 0.930 . S
C534 C532 1.378 . S
C534 C535 1.367 . S
C535 C534 1.367 . S
C535 C537 1.433 1_545 S
C536 C532 1.350 . S
C536 C533 1.463 . S
C536 N540 1.427 1_545 S
C537 H527 0.929 . S
C537 C535 1.433 1_565 S
C537 N540 1.384 . S
C538 H529 0.929 . S
C538 C530 1.378 . S
C538 C533 1.350 1_565 S
C539 H526 0.929 . S
C539 C531 1.433 . S
C539 N541 1.384 . S
N540 C536 1.427 1_565 S
N540 C537 1.384 . S
N541 C533 1.427 . S
N541 C539 1.384 . S
H542 C548 0.930 . S
H543 C552 0.930 . S
H544 C557 0.929 . S
H545 C555 0.929 . S
H546 C550 0.929 . S
H547 C556 0.929 . S
C548 H542 0.930 . S
C548 C549 1.367 . S
C548 C556 1.378 . S
C549 C548 1.367 . S
C549 C557 1.433 . S
C550 H546 0.929 . S
C550 C552 1.378 . S
C550 C554 1.350 . S
C551 C554 1.463 . S
C551 C556 1.350 . S
C551 N559 1.427 . S
C552 H543 0.930 . S
C552 C550 1.378 . S
C552 C553 1.367 . S
C553 C552 1.367 . S
C553 C555 1.433 . S
C554 C550 1.350 . S
C554 C551 1.463 . S
C554 N558 1.427 . S
C555 H545 0.929 . S
C555 C553 1.433 . S
C555 N558 1.384 . S
C556 H547 0.929 . S
C556 C548 1.378 . S
C556 C551 1.350 . S
C557 H544 0.929 . S
C557 C549 1.433 . S
C557 N559 1.384 . S
N558 C554 1.427 . S
N558 C555 1.384 . S
N559 C551 1.427 . S
N559 C557 1.384 . S
H560 C566 0.930 . S
H561 C570 0.930 . S
H562 C575 0.929 . S
H563 C573 0.929 . S
H564 C568 0.929 . S
H565 C574 0.929 . S
C566 H560 0.930 . S
C566 C567 1.367 . S
C566 C574 1.378 . S
C567 C566 1.367 . S
C567 C575 1.433 . S
C568 H564 0.929 . S
C568 C570 1.378 . S
C568 C572 1.350 . S
C569 C572 1.463 . S
C569 C574 1.350 . S
C569 N577 1.427 . S
C570 H561 0.930 . S
C570 C568 1.378 . S
C570 C571 1.367 . S
C571 C570 1.367 . S
C571 C573 1.433 . S
C572 C568 1.350 . S
C572 C569 1.463 . S
C572 N576 1.427 . S
C573 H563 0.929 . S
C573 C571 1.433 . S
C573 N576 1.384 . S
C574 H565 0.929 . S
C574 C566 1.378 . S
C574 C569 1.350 . S
C575 H562 0.929 . S
C575 C567 1.433 . S
C575 N577 1.384 . S
N576 C572 1.427 . S
N576 C573 1.384 . S
N577 C569 1.427 . S
N577 C575 1.384 . S
H578 C584 0.930 . S
H579 C588 0.930 . S
H580 C593 0.929 . S
H581 C591 0.929 . S
H582 C586 0.929 . S
H583 C592 0.929 . S
C584 H578 0.930 . S
C584 C585 1.367 . S
C584 C592 1.378 . S
C585 C584 1.367 . S
C585 C593 1.433 . S
C586 H582 0.929 . S
C586 C588 1.378 . S
C586 C590 1.350 . S
C587 C590 1.463 . S
C587 C592 1.350 . S
C587 N595 1.427 . S
C588 H579 0.930 . S
C588 C586 1.378 . S
C588 C589 1.367 . S
C589 C588 1.367 . S
C589 C591 1.433 . S
C590 C586 1.350 . S
C590 C587 1.463 . S
C590 N594 1.427 . S
C591 H581 0.929 . S
C591 C589 1.433 . S
C591 N594 1.384 . S
C592 H583 0.929 . S
C592 C584 1.378 . S
C592 C587 1.350 . S
C593 H580 0.929 . S
C593 C585 1.433 . S
C593 N595 1.384 . S
N594 C590 1.427 . S
N594 C591 1.384 . S
N595 C587 1.427 . S
N595 C593 1.384 . S
H596 C602 0.930 . S
H597 C606 0.930 . S
H598 C611 0.929 . S
H599 C609 0.929 . S
H600 C604 0.916 1_655 S
H601 C610 0.929 . S
C602 H596 0.930 . S
C602 C603 1.367 1_454 S
C602 C610 1.378 . S
C603 C602 1.367 1_656 S
C603 C611 1.433 . S
C604 H600 0.916 1_455 S
C604 C606 1.389 . S
C604 C608 1.352 . S
C605 C608 1.463 . S
C605 C610 1.350 1_556 S
C605 N613 1.427 1_455 S
C606 H597 0.930 . S
C606 C604 1.389 . S
C606 C607 1.367 1_556 S
C607 C606 1.367 1_554 S
C607 C609 1.433 . S
C608 C604 1.352 . S
C608 C605 1.463 . S
C608 N612 1.427 1_556 S
C609 H599 0.929 . S
C609 C607 1.433 . S
C609 N612 1.384 . S
C610 H601 0.929 . S
C610 C602 1.378 . S
C610 C605 1.350 1_554 S
C611 H598 0.929 . S
C611 C603 1.433 . S
C611 N613 1.384 . S
N612 C608 1.427 1_554 S
N612 C609 1.384 . S
N613 C605 1.427 1_655 S
N613 C611 1.384 . S
H614 C620 0.930 . S
H615 C624 0.930 . S
H616 C629 0.929 . S
H617 C627 0.929 . S
H618 C622 0.929 . S
H619 C628 0.929 . S
C620 H614 0.930 . S
C620 C621 1.367 . S
C620 C628 1.378 . S
C621 C620 1.367 . S
C621 C629 1.433 . S
C622 H618 0.929 . S
C622 C624 1.378 . S
C622 C626 1.350 . S
C623 C626 1.463 . S
C623 C628 1.350 . S
C623 N631 1.427 . S
C624 H615 0.930 . S
C624 C622 1.378 . S
C624 C625 1.367 . S
C625 C624 1.367 . S
C625 C627 1.433 . S
C626 C622 1.350 . S
C626 C623 1.463 . S
C626 N630 1.427 . S
C627 H617 0.929 . S
C627 C625 1.433 . S
C627 N630 1.384 . S
C628 H619 0.929 . S
C628 C620 1.378 . S
C628 C623 1.350 . S
C629 H616 0.929 . S
C629 C621 1.433 . S
C629 N631 1.384 . S
N630 C626 1.427 . S
N630 C627 1.384 . S
N631 C623 1.427 . S
N631 C629 1.384 . S
H632 C638 0.930 . S
H633 C642 0.930 . S
H634 C647 0.929 . S
H635 C645 0.929 . S
H636 C640 0.929 . S
H637 C646 0.929 . S
C638 H632 0.930 . S
C638 C639 1.367 . S
C638 C646 1.378 . S
C639 C638 1.367 . S
C639 C647 1.433 . S
C640 H636 0.929 . S
C640 C642 1.378 . S
C640 C644 1.350 . S
C641 C644 1.463 . S
C641 C646 1.350 . S
C641 N649 1.427 . S
C642 H633 0.930 . S
C642 C640 1.378 . S
C642 C643 1.367 . S
C643 C642 1.367 . S
C643 C645 1.433 . S
C644 C640 1.350 . S
C644 C641 1.463 . S
C644 N648 1.427 . S
C645 H635 0.929 . S
C645 C643 1.433 . S
C645 N648 1.384 . S
C646 H637 0.929 . S
C646 C638 1.378 . S
C646 C641 1.350 . S
C647 H634 0.929 . S
C647 C639 1.433 . S
C647 N649 1.384 . S
N648 C644 1.427 . S
N648 C645 1.384 . S
N649 C641 1.427 . S
N649 C647 1.384 . S
H650 C656 0.930 . S
H651 C660 0.930 . S
H652 C665 0.929 . S
H653 C663 0.929 . S
H654 C658 0.929 . S
H655 C664 0.929 . S
C656 H650 0.930 . S
C656 C657 1.367 . S
C656 C664 1.378 . S
C657 C656 1.367 . S
C657 C665 1.433 . S
C658 H654 0.929 . S
C658 C660 1.378 . S
C658 C662 1.350 . S
C659 C662 1.463 . S
C659 C664 1.350 . S
C659 N667 1.427 . S
C660 H651 0.930 . S
C660 C658 1.378 . S
C660 C661 1.367 . S
C661 C660 1.367 . S
C661 C663 1.433 . S
C662 C658 1.350 . S
C662 C659 1.463 . S
C662 N666 1.427 . S
C663 H653 0.929 . S
C663 C661 1.433 . S
C663 N666 1.384 . S
C664 H655 0.929 . S
C664 C656 1.378 . S
C664 C659 1.350 . S
C665 H652 0.929 . S
C665 C657 1.433 . S
C665 N667 1.384 . S
N666 C662 1.427 . S
N666 C663 1.384 . S
N667 C659 1.427 . S
N667 C665 1.384 . S
C243 C6 1.820 . S
C247 C155 1.673 . S
C261 C21 2.053 . S
C265 C189 1.898 1_566 S
C283 C201 0.923 . S
C279 C49 0.897 . S
C297 C68 1.217 . S
C301 C235 1.183 . S
C319 C192 2.087 . S
C315 C2 2.249 . S
C337 C172 1.241 . S
C333 C30 1.160 . S
C355 C219 1.224 1_556 S
C351 C40 1.363 . S
C373 C210 1.322 . S
C369 C63 1.380 . S
C387 C11 1.449 . S
C391 C218 1.534 . S
C409 C180 1.562 . S
C405 C44 1.678 . S
C423 C59 1.164 . S
C427 C156 1.075 . S
C441 C25 1.804 . S
C445 C213 1.703 . S
C463 C171 1.981 . S
C459 C82 2.079 1_545 S
C477 C101 1.841 . S
C481 C193 1.703 . S
C495 C125 1.450 . S
C499 C198 1.357 . S
C513 C144 1.083 . S
C517 C231 1.174 . S
C531 C87 1.263 . S
C535 C176 1.397 . S
C553 C168 2.066 . S
C549 C97 2.221 . S
C571 C222 1.400 . S
C567 C120 1.428 . S
C589 C214 1.334 . S
C585 C135 1.447 . S
C603 C78 1.914 . S
C607 C234 1.822 . S
C625 C177 1.198 . S
C621 C116 1.289 . S
C643 C159 1.631 . S
C639 C139 1.733 . S
C657 C106 1.514 . S
C661 C197 1.523 . S
