# Generated by pormake.
# Topology pyr, (3,6)-cn, num edge types: 1
# Building blocks:
#     Node 0, Type 0, BuildingBlock: ESEHIV_clean_linker_0, # of connection points: 3
#     Node 1, Type 0, BuildingBlock: ESEHIV_clean_linker_0, # of connection points: 3
#     Node 2, Type 0, BuildingBlock: ESEHIV_clean_linker_0, # of connection points: 3
#     Node 3, Type 0, BuildingBlock: ESEHIV_clean_linker_0, # of connection points: 3
#     Node 4, Type 0, BuildingBlock: ESEHIV_clean_linker_0, # of connection points: 3
#     Node 5, Type 0, BuildingBlock: ESEHIV_clean_linker_0, # of connection points: 3
#     Node 6, Type 0, BuildingBlock: ESEHIV_clean_linker_0, # of connection points: 3
#     Node 7, Type 0, BuildingBlock: ESEHIV_clean_linker_0, # of connection points: 3
#     Node 8, Type 1, BuildingBlock: JUFBIX_clean_sbu_0, # of connection points: 6
#     Node 9, Type 1, BuildingBlock: JUFBIX_clean_sbu_0, # of connection points: 6
#     Node 10, Type 1, BuildingBlock: JUFBIX_clean_sbu_0, # of connection points: 6
#     Node 11, Type 1, BuildingBlock: JUFBIX_clean_sbu_0, # of connection points: 6
#     Edge 12, Type (0, 1), BuildingBlock: UVAHIK_clean_linker_0, # of connection points: 2
#     Edge 13, Type (0, 1), BuildingBlock: UVAHIK_clean_linker_0, # of connection points: 2
#     Edge 14, Type (0, 1), BuildingBlock: UVAHIK_clean_linker_0, # of connection points: 2
#     Edge 15, Type (0, 1), BuildingBlock: UVAHIK_clean_linker_0, # of connection points: 2
#     Edge 16, Type (0, 1), BuildingBlock: UVAHIK_clean_linker_0, # of connection points: 2
#     Edge 17, Type (0, 1), BuildingBlock: UVAHIK_clean_linker_0, # of connection points: 2
#     Edge 18, Type (0, 1), BuildingBlock: UVAHIK_clean_linker_0, # of connection points: 2
#     Edge 19, Type (0, 1), BuildingBlock: UVAHIK_clean_linker_0, # of connection points: 2
#     Edge 20, Type (0, 1), BuildingBlock: UVAHIK_clean_linker_0, # of connection points: 2
#     Edge 21, Type (0, 1), BuildingBlock: UVAHIK_clean_linker_0, # of connection points: 2
#     Edge 22, Type (0, 1), BuildingBlock: UVAHIK_clean_linker_0, # of connection points: 2
#     Edge 23, Type (0, 1), BuildingBlock: UVAHIK_clean_linker_0, # of connection points: 2
#     Edge 24, Type (0, 1), BuildingBlock: UVAHIK_clean_linker_0, # of connection points: 2
#     Edge 25, Type (0, 1), BuildingBlock: UVAHIK_clean_linker_0, # of connection points: 2
#     Edge 26, Type (0, 1), BuildingBlock: UVAHIK_clean_linker_0, # of connection points: 2
#     Edge 27, Type (0, 1), BuildingBlock: UVAHIK_clean_linker_0, # of connection points: 2
#     Edge 28, Type (0, 1), BuildingBlock: UVAHIK_clean_linker_0, # of connection points: 2
#     Edge 29, Type (0, 1), BuildingBlock: UVAHIK_clean_linker_0, # of connection points: 2
#     Edge 30, Type (0, 1), BuildingBlock: UVAHIK_clean_linker_0, # of connection points: 2
#     Edge 31, Type (0, 1), BuildingBlock: UVAHIK_clean_linker_0, # of connection points: 2
#     Edge 32, Type (0, 1), BuildingBlock: UVAHIK_clean_linker_0, # of connection points: 2
#     Edge 33, Type (0, 1), BuildingBlock: UVAHIK_clean_linker_0, # of connection points: 2
#     Edge 34, Type (0, 1), BuildingBlock: UVAHIK_clean_linker_0, # of connection points: 2
#     Edge 35, Type (0, 1), BuildingBlock: UVAHIK_clean_linker_0, # of connection points: 2
# Relax obj value: 0.046
# Max RMSD: 0.093
# Mean RMSD: 0.031
data_MOF--net-pyr--node1-JUFBIX_clean_sbu_0--node2-ESEHIV_clean_linker_0--edge1-UVAHIK_clean_linker_0
_symmetry_space_group_name_H-M    P1
_symmetry_Int_Tables_number       1
_symmetry_cell_setting            triclinic
loop_
_symmetry_equiv_pos_as_xyz
'x, y, z'
_cell_length_a     46.454778
_cell_length_b     44.22025
_cell_length_c     46.311556
_cell_angle_alpha  84.788701
_cell_angle_beta   89.597361
_cell_angle_gamma 91.438084
loop_
_atom_site_label
_atom_site_type_symbol
_atom_site_fract_x
_atom_site_fract_y
_atom_site_fract_z
_atom_type_partial_charge
H0 H 0.1451 0.1836 0.19325 0.0
H1 H 0.21408 0.12014 0.2008 0.0
H2 H 0.21139 0.18776 0.12787 0.0
C3 C 0.16482 0.1749 0.18497 0.0
C4 C 0.17688 0.18877 0.15901 0.0
C5 C 0.17807 0.15015 0.20039 0.0
C6 C 0.20343 0.13886 0.18893 0.0
C7 C 0.21578 0.15229 0.16279 0.0
C8 C 0.2024 0.17744 0.14819 0.0
H9 H 0.40499 0.93304 0.63281 0.0
H10 H 0.46936 0.8645 0.63382 0.0
H11 H 0.39285 0.85676 0.583 0.0
C12 C 0.41327 0.91257 0.62498 0.0
C13 C 0.39638 0.89674 0.60609 0.0
C14 C 0.43976 0.90132 0.63511 0.0
C15 C 0.44935 0.87388 0.62571 0.0
C16 C 0.43236 0.85755 0.60715 0.0
C17 C 0.40623 0.86948 0.59698 0.0
H18 H 0.71158 0.32539 0.88773 0.0
H19 H 0.71778 0.39528 0.81701 0.0
H20 H 0.64368 0.33466 0.82537 0.0
C21 C 0.70254 0.33692 0.86837 0.0
C22 C 0.67618 0.32646 0.8578 0.0
C23 C 0.71735 0.36216 0.85412 0.0
C24 C 0.70579 0.37663 0.82866 0.0
C25 C 0.67941 0.36657 0.81772 0.0
C26 C 0.66459 0.34183 0.83284 0.0
H27 H 0.91116 0.65101 0.45885 0.0
H28 H 0.97827 0.65054 0.39426 0.0
H29 H 0.90882 0.58442 0.39675 0.0
C30 C 0.92117 0.64046 0.44122 0.0
C31 C 0.90713 0.61589 0.42954 0.0
C32 C 0.94682 0.65314 0.42846 0.0
C33 C 0.95874 0.64055 0.4044 0.0
C34 C 0.9453 0.61555 0.39304 0.0
C35 C 0.91978 0.60315 0.40601 0.0
H36 H 0.80749 0.88878 0.8259 0.0
H37 H 0.87655 0.82571 0.83075 0.0
H38 H 0.81156 0.82024 0.89778 0.0
C39 C 0.81837 0.86991 0.83725 0.0
C40 C 0.80683 0.85632 0.86367 0.0
C41 C 0.84323 0.85863 0.82486 0.0
C42 C 0.85675 0.83366 0.83955 0.0
C43 C 0.84552 0.81938 0.86581 0.0
C44 C 0.82049 0.83096 0.87762 0.0
H45 H 0.55402 0.15644 0.38949 0.0
H46 H 0.61165 0.0817 0.39316 0.0
H47 H 0.62914 0.15705 0.44332 0.0
C48 C 0.57285 0.14524 0.39854 0.0
C49 C 0.59026 0.15974 0.41809 0.0
C50 C 0.58042 0.11703 0.3895 0.0
C51 C 0.60533 0.10313 0.40061 0.0
C52 C 0.62315 0.11748 0.41985 0.0
C53 C 0.61526 0.1456 0.42881 0.0
H54 H 0.31338 0.68426 0.13797 0.0
H55 H 0.30814 0.6123 0.20698 0.0
H56 H 0.37748 0.67861 0.20471 0.0
C57 C 0.32223 0.67278 0.15746 0.0
C58 C 0.34726 0.68468 0.16958 0.0
C59 C 0.308 0.64665 0.17071 0.0
C60 C 0.31893 0.63247 0.1966 0.0
C61 C 0.34375 0.64422 0.20918 0.0
C62 C 0.35781 0.67018 0.19548 0.0
H63 H 0.05138 0.35866 0.63214 0.0
H64 H 0.10775 0.36131 0.55787 0.0
H65 H 0.12126 0.42438 0.6222 0.0
C66 C 0.06952 0.36895 0.6197 0.0
C67 C 0.08494 0.3934 0.62999 0.0
C68 C 0.07756 0.3573 0.59371 0.0
C69 C 0.10104 0.3707 0.57759 0.0
C70 C 0.11681 0.39514 0.58762 0.0
C71 C 0.10839 0.40651 0.61366 0.0
Co72 Co 0.98898 0.00794 0.50039 0.0
C73 C 0.01428 0.951 0.50154 0.0
Co74 Co 0.02952 0.00378 0.52457 0.0
C75 C 0.93024 0.02134 0.48467 0.0
C76 C 0.95235 0.99806 0.45292 0.0
N77 N 0.95584 0.00947 0.47871 0.0
N78 N 0.91083 0.01778 0.46355 0.0
C79 C 0.92476 1.00306 0.44359 0.0
H80 H 0.92611 0.03256 0.50403 0.0
H81 H 0.96878 0.98661 0.44172 0.0
C82 C 1.00418 0.06069 0.52347 0.0
N83 N 0.06265 1.00219 0.54623 0.0
C84 C 0.08781 0.9892 0.54068 0.0
C85 C 0.06642 0.01385 0.57188 0.0
N86 N 0.10714 0.99219 0.56195 0.0
C87 C 0.09371 0.00778 0.58158 0.0
C88 C 0.03816 0.02398 0.4666 0.0
O89 O 0.98487 0.04906 0.50832 0.0
O90 O 0.02518 0.04475 0.53251 0.0
O91 O 0.05138 0.01723 0.4902 0.0
O92 O 0.01085 0.0214 0.46649 0.0
O93 O 0.03353 0.96263 0.51675 0.0
H94 H 0.05028 0.02589 0.58289 0.0
H95 H 0.09159 0.97728 0.52166 0.0
O96 O 0.99336 0.96698 0.49235 0.0
O97 O 0.96713 0.99436 0.53478 0.0
O98 O 1.00769 0.99044 0.55847 0.0
C99 C 0.9804 0.9877 0.55838 0.0
H100 H 0.91563 0.99582 0.42385 0.0
H101 H 0.10296 0.01456 0.60145 0.0
Co102 Co 0.50001 1.0029 0.99359 0.0
C103 C 0.49109 0.95456 0.03521 0.0
Co104 Co 0.52404 0.00782 0.03383 0.0
C105 C 0.4909 0.99756 0.93281 0.0
C106 C 0.45102 0.99818 0.95615 0.0
N107 N 0.47986 0.9991 0.95966 0.0
N108 N 0.47016 0.99595 0.91282 0.0
C109 C 0.445 0.99646 0.92728 0.0
H110 H 0.51372 0.99804 0.92782 0.0
H111 H 0.4353 0.99864 0.97343 0.0
C112 C 0.5329 0.05619 0.99216 0.0
N113 N 0.54411 0.01199 0.06752 0.0
C114 C 0.53341 0.01021 0.09478 0.0
C115 C 0.5722 0.01954 0.07002 0.0
N116 N 0.55361 0.01668 0.11426 0.0
C117 C 0.57812 0.02243 0.09871 0.0
C118 C 0.55493 0.9788 0.99301 0.0
O119 O 0.51575 0.04083 0.97758 0.0
O120 O 0.53934 0.04593 0.01775 0.0
O121 O 0.55604 0.98793 0.01824 0.0
O122 O 0.53202 0.98275 0.97845 0.0
O123 O 0.50848 0.96975 0.04972 0.0
H124 H 0.58719 0.02364 0.05202 0.0
H125 H 0.51105 0.00474 0.10008 0.0
O126 O 0.48443 0.96495 0.00969 0.0
O127 O 0.4682 0.02309 1.00927 0.0
O128 O 0.49203 0.02768 0.04924 0.0
C129 C 0.46921 0.03188 0.03463 0.0
H130 H 0.42387 0.99502 0.91771 0.0
H131 H 0.5986 0.02954 0.1072 0.0
Co132 Co 0.53138 0.51805 0.50458 0.0
C133 C 0.48371 0.52232 0.46812 0.0
Co134 Co 0.49107 0.49804 0.52443 0.0
C135 C 0.59203 0.53014 0.49223 0.0
C136 C 0.56489 0.56151 0.46812 0.0
N137 N 0.56414 0.53692 0.48766 0.0
N138 N 0.61002 0.54941 0.47612 0.0
C139 C 0.59303 0.5691 0.46086 0.0
H140 H 0.59903 0.51135 0.5069 0.0
H141 H 0.54617 0.57343 0.45991 0.0
C142 C 0.53867 0.49357 0.56084 0.0
N143 N 0.45825 0.47891 0.5411 0.0
C144 C 0.43031 0.48524 0.53617 0.0
C145 C 0.4576 0.45257 0.55828 0.0
N146 N 0.41235 0.46361 0.54923 0.0
C147 C 0.42948 0.44314 0.5633 0.0
C148 C 0.52432 0.45804 0.49568 0.0
O149 O 0.55173 0.50801 0.53947 0.0
O150 O 0.51205 0.48693 0.55873 0.0
O151 O 0.50103 0.46108 0.50955 0.0
O152 O 0.54165 0.48067 0.49097 0.0
O153 O 0.47049 0.50924 0.49005 0.0
H154 H 0.4764 0.44026 0.56563 0.0
H155 H 0.4233 0.5044 0.52198 0.0
O156 O 0.51058 0.52788 0.46974 0.0
O157 O 0.52101 0.55514 0.51835 0.0
O158 O 0.48138 0.53532 0.53908 0.0
C159 C 0.49838 0.55811 0.53327 0.0
H160 H 0.60049 0.58803 0.44599 0.0
H161 H 0.42223 0.4224 0.57574 0.0
Co162 Co 0.02528 0.50448 0.99161 0.0
C163 C 0.97129 0.47753 0.98832 0.0
Co164 Co 1.00046 0.50399 0.03247 0.0
C165 C 0.04461 0.48893 0.9354 0.0
C166 C 0.06364 0.53065 0.94701 0.0
N167 N 0.04593 0.50736 0.95708 0.0
N168 N 0.0605 0.5 0.91209 0.0
C169 C 0.07265 0.52618 0.91945 0.0
H170 H 0.03114 0.46855 0.93617 0.0
H171 H 0.06887 0.55023 0.95855 0.0
C172 C 0.05449 0.53088 0.03575 0.0
N173 N 0.97986 0.50114 0.06706 0.0
C174 C 0.98199 0.51906 0.08909 0.0
C175 C 0.96178 0.47812 0.077 0.0
N176 N 0.96632 0.50789 0.1125 0.0
C177 C 0.95341 0.48223 0.10485 0.0
C178 C 0.03521 0.45333 0.02833 0.0
O179 O 0.05615 0.52454 1.00961 0.0
O180 O 0.0315 0.52398 0.05008 0.0
O181 O 0.0173 0.46591 0.04403 0.0
O182 O 0.04189 0.46622 1.00339 0.0
O183 O 0.96958 0.48397 0.01444 0.0
H184 H 0.95598 0.45887 0.06523 0.0
H185 H 0.99599 0.53904 0.08854 0.0
O186 O 0.99429 0.4844 0.974 0.0
O187 O 1.00841 0.54258 0.98007 0.0
O188 O 0.98385 0.54225 0.02073 0.0
C189 C 0.99052 0.55517 0.9958 0.0
H190 H 0.0866 0.54138 0.90571 0.0
H191 H 0.93946 0.46705 0.11861 0.0
C192 C 0.15394 0.15521 0.24858 0.0
C193 C 0.16554 0.13654 0.22862 0.0
C194 C 0.14147 0.14263 0.27469 0.0
C195 C 0.1378 0.07295 0.32592 0.0
H196 H 0.06684 0.10725 0.35099 0.0
C197 C 0.08417 0.0386 0.43884 0.0
C198 C 0.05395 0.03541 0.43956 0.0
C199 C 0.09864 0.05024 0.41335 0.0
C200 C 0.08656 0.09724 0.34426 0.0
H201 H 0.17324 0.08977 0.22087 0.0
H202 H 0.15157 0.06782 0.26651 0.0
H203 H 0.0903 0.12846 0.30624 0.0
H204 H 0.01538 0.04151 0.41372 0.0
H205 H 0.04049 0.06153 0.36956 0.0
H206 H 0.1337 0.0414 0.36386 0.0
C207 C 0.15236 0.09229 0.26201 0.0
C208 C 0.10022 0.10966 0.31872 0.0
C209 C 0.1648 0.1049 0.2358 0.0
C210 C 0.03864 0.04378 0.41409 0.0
C211 C 0.05305 0.05546 0.38873 0.0
C212 C 0.12417 0.06059 0.35161 0.0
C213 C 0.1403 0.11099 0.2817 0.0
C214 C 0.126 0.09768 0.30913 0.0
C215 C 0.08322 0.05909 0.38803 0.0
C216 C 0.09827 0.07249 0.36104 0.0
H217 H 0.15467 0.17969 0.24416 0.0
H218 H 0.13293 0.15779 0.28954 0.0
H219 H 0.15775 0.0633 0.31935 0.0
H220 H 0.09665 0.03237 0.45804 0.0
H221 H 0.12187 0.05291 0.41366 0.0
C222 C 0.45479 0.94821 0.65866 0.0
C223 C 0.45511 0.91642 0.65824 0.0
C224 C 0.46337 0.96186 0.68333 0.0
C225 C 0.50161 0.95446 0.7517 0.0
H226 H 0.43364 0.98746 0.78487 0.0
C227 C 0.49285 0.97117 0.8734 0.0
C228 C 0.47401 0.99272 0.88254 0.0
C229 C 0.49481 0.96619 0.8441 0.0
C230 C 0.45319 0.97922 0.77583 0.0
H231 H 0.46721 0.87444 0.68271 0.0
H232 H 0.48328 0.8986 0.7252 0.0
H233 H 0.43215 0.9721 0.73597 0.0
H234 H 0.44383 0.0273 0.86861 0.0
H235 H 0.44845 0.02025 0.81718 0.0
H236 H 0.52295 0.96195 0.79125 0.0
C237 C 0.47601 0.91275 0.70647 0.0
C238 C 0.45218 0.97024 0.74777 0.0
C239 C 0.46688 0.89897 0.68202 0.0
C240 C 0.45817 0.01026 0.86191 0.0
C241 C 0.46073 0.00596 0.83251 0.0
C242 C 0.5029 0.96418 0.7796 0.0
C243 C 0.47317 0.94409 0.70772 0.0
C244 C 0.47615 0.95724 0.73572 0.0
C245 C 0.47849 0.98326 0.82322 0.0
C246 C 0.47845 0.97604 0.79235 0.0
H247 H 0.44655 0.96243 0.64046 0.0
H248 H 0.46119 0.98615 0.68385 0.0
H249 H 0.52035 0.94447 0.74272 0.0
H250 H 0.50511 0.9573 0.88913 0.0
H251 H 0.50833 0.94814 0.83813 0.0
C252 C 0.67064 0.41293 0.78318 0.0
C253 C 0.66739 0.38141 0.79035 0.0
C254 C 0.65898 0.42665 0.7576 0.0
C255 C 0.62781 0.40797 0.68683 0.0
H256 H 0.59575 0.48815 0.68658 0.0
C257 C 0.54352 0.45874 0.60596 0.0
C258 C 0.55443 0.48332 0.58737 0.0
C259 C 0.559 0.44783 0.63028 0.0
C260 C 0.60484 0.46584 0.68642 0.0
H261 H 0.64978 0.33962 0.77552 0.0
H262 H 0.62801 0.36356 0.73234 0.0
H263 H 0.61955 0.46578 0.73005 0.0
H264 H 0.58972 0.51625 0.58003 0.0
H265 H 0.61638 0.49763 0.62344 0.0
H266 H 0.6115 0.40765 0.64363 0.0
C267 C 0.64023 0.37776 0.74593 0.0
C268 C 0.61865 0.45304 0.71118 0.0
C269 C 0.65229 0.36402 0.77116 0.0
C270 C 0.58084 0.49724 0.59397 0.0
C271 C 0.59603 0.48671 0.61872 0.0
C272 C 0.6135 0.42053 0.66236 0.0
C273 C 0.64343 0.40926 0.7387 0.0
C274 C 0.6301 0.42376 0.71184 0.0
C275 C 0.58533 0.46172 0.63679 0.0
C276 C 0.6018 0.44943 0.66207 0.0
H277 H 0.68185 0.42718 0.7975 0.0
H278 H 0.66229 0.45089 0.75266 0.0
H279 H 0.63695 0.38577 0.68609 0.0
H280 H 0.52333 0.44744 0.60134 0.0
H281 H 0.55045 0.42851 0.64403 0.0
C282 C 0.95575 0.57288 0.36283 0.0
C283 C 0.95572 0.60421 0.36578 0.0
C284 C 0.9607 0.56226 0.33582 0.0
C285 C 0.98693 0.58379 0.26094 0.0
H286 H 0.93078 0.52255 0.24174 0.0
C287 C 0.97103 0.55003 0.14398 0.0
C288 C 0.96619 0.51901 0.14079 0.0
C289 C 0.97145 0.56059 0.17155 0.0
C290 C 0.94688 0.53935 0.24684 0.0
H291 H 0.96234 0.64896 0.34306 0.0
H292 H 0.97111 0.63037 0.29583 0.0
H293 H 0.93057 0.54001 0.29 0.0
H294 H 0.9588 0.47468 0.16413 0.0
H295 H 0.95959 0.49298 0.212 0.0
H296 H 1.00313 0.58314 0.21757 0.0
C297 C 0.96747 0.61402 0.31445 0.0
C298 C 0.94679 0.54932 0.27454 0.0
C299 C 0.96251 0.62467 0.34151 0.0
C300 C 0.96194 0.49879 0.16574 0.0
C301 C 0.96246 0.50929 0.19323 0.0
C302 C 0.98709 0.57371 0.23316 0.0
C303 C 0.96572 0.58274 0.31118 0.0
C304 C 0.96682 0.57161 0.28193 0.0
C305 C 0.96711 0.54032 0.19648 0.0
C306 C 0.96705 0.55134 0.22583 0.0
H307 H 0.95099 0.5566 0.38127 0.0
H308 H 0.95982 0.53799 0.33407 0.0
H309 H 1.00272 0.60089 0.26608 0.0
H310 H 0.97413 0.56619 0.12516 0.0
H311 H 0.97471 0.58469 0.17329 0.0
C312 C 0.24622 0.10854 0.15083 0.0
C313 C 0.24253 0.14005 0.15061 0.0
C314 C 0.27092 0.0971 0.13863 0.0
C315 C 0.34624 0.11804 0.11615 0.0
H316 H 0.33847 0.04913 0.07039 0.0
C317 C 0.44488 0.05526 0.07561 0.0
C318 C 0.44378 0.04571 0.04746 0.0
C319 C 0.42061 0.06719 0.08814 0.0
C320 C 0.34103 0.06852 0.08293 0.0
H321 H 0.26244 0.18417 0.13784 0.0
H322 H 0.30526 0.16426 0.11629 0.0
H323 H 0.29582 0.06906 0.09227 0.0
H324 H 0.41618 0.04151 0.01038 0.0
H325 H 0.37396 0.06247 0.03215 0.0
H326 H 0.3914 0.11777 0.10645 0.0
C327 C 0.28912 0.14835 0.12605 0.0
C328 C 0.31658 0.07974 0.09579 0.0
C329 C 0.26438 0.15979 0.13814 0.0
C330 C 0.41783 0.04861 0.0321 0.0
C331 C 0.39353 0.06044 0.04468 0.0
C332 C 0.37071 0.10674 0.10338 0.0
C333 C 0.29268 0.11685 0.12598 0.0
C334 C 0.31883 0.10468 0.11254 0.0
C335 C 0.39453 0.06978 0.07292 0.0
C336 C 0.36845 0.08186 0.08654 0.0
H337 H 0.22975 0.09266 0.16001 0.0
H338 H 0.27304 0.07272 0.13927 0.0
H339 H 0.34887 0.13708 0.12911 0.0
H340 H 0.46445 0.05325 0.08815 0.0
H341 H 0.42212 0.0738 0.11004 0.0
C342 C 0.34826 0.91456 0.62044 0.0
C343 C 0.36702 0.90683 0.59853 0.0
C344 C 0.31998 0.92222 0.61399 0.0
C345 C 0.27252 0.95086 0.55594 0.0
H346 H 0.21248 0.91464 0.60758 0.0
C347 C 0.15142 0.97531 0.53875 0.0
C348 C 0.13582 0.98057 0.56387 0.0
C349 C 0.17938 0.96435 0.54082 0.0
C350 C 0.229 0.92512 0.59307 0.0
H351 H 0.37116 0.90152 0.55264 0.0
H352 H 0.3214 0.91526 0.54124 0.0
H353 H 0.26219 0.89981 0.6151 0.0
H354 H 0.13725 0.97785 0.61085 0.0
H355 H 0.186 0.95962 0.61441 0.0
H356 H 0.23936 0.97681 0.53438 0.0
C357 C 0.32873 0.91532 0.56339 0.0
C358 C 0.25743 0.91658 0.59736 0.0
C359 C 0.35706 0.90736 0.56991 0.0
C360 C 0.14873 0.97445 0.59105 0.0
C361 C 0.17658 0.96356 0.59311 0.0
C362 C 0.24401 0.95957 0.55174 0.0
C363 C 0.30986 0.92244 0.58547 0.0
C364 C 0.27952 0.92978 0.57919 0.0
C365 C 0.19224 0.95835 0.56806 0.0
C366 C 0.22204 0.94721 0.57063 0.0
H367 H 0.35524 0.91394 0.64275 0.0
H368 H 0.30597 0.92796 0.63136 0.0
H369 H 0.2892 0.96145 0.5417 0.0
H370 H 0.14222 0.98005 0.51748 0.0
H371 H 0.19085 0.96039 0.52113 0.0
C372 C 0.76575 0.35325 0.87688 0.0
C373 C 0.74477 0.37356 0.86603 0.0
C374 C 0.79099 0.36399 0.88916 0.0
C375 C 0.8201 0.42969 0.92399 0.0
H376 H 0.89414 0.39497 0.90971 0.0
C377 C 0.92046 0.4572 0.99001 0.0
C378 C 0.94636 0.46336 0.97448 0.0
C379 C 0.89639 0.44535 0.97656 0.0
C380 C 0.87364 0.40501 0.91378 0.0
H381 H 0.73398 0.42109 0.85937 0.0
H382 H 0.7782 0.43987 0.88043 0.0
H383 H 0.8513 0.37679 0.88557 0.0
H384 H 0.96748 0.46131 0.93278 0.0
H385 H 0.92538 0.44074 0.90929 0.0
H386 H 0.8424 0.45817 0.95186 0.0
C387 C 0.775 0.41561 0.87969 0.0
C388 C 0.84907 0.3944 0.90017 0.0
C389 C 0.74981 0.40487 0.86735 0.0
C390 C 0.94785 0.45681 0.94537 0.0
C391 C 0.92376 0.44489 0.93193 0.0
C392 C 0.84461 0.44021 0.93765 0.0
C393 C 0.79578 0.39528 0.89095 0.0
C394 C 0.82202 0.40665 0.90512 0.0
C395 C 0.89767 0.43934 0.9473 0.0
C396 C 0.87167 0.42797 0.93274 0.0
H397 H 0.76265 0.32901 0.87589 0.0
H398 H 0.80647 0.34772 0.89782 0.0
H399 H 0.79954 0.43937 0.92852 0.0
H400 H 0.91861 0.46184 0.0125 0.0
H401 H 0.87675 0.44088 0.98913 0.0
C402 C 0.8705 0.5997 0.46882 0.0
C403 C 0.87773 0.60553 0.43928 0.0
C404 C 0.84272 0.58898 0.47723 0.0
C405 C 0.77833 0.5516 0.44765 0.0
H406 H 0.73575 0.58732 0.50776 0.0
C407 C 0.65579 0.55737 0.44929 0.0
C408 C 0.64094 0.54963 0.4755 0.0
C409 C 0.68579 0.55917 0.44862 0.0
C410 C 0.74758 0.57676 0.49129 0.0
H411 H 0.86119 0.60645 0.39554 0.0
H412 H 0.8132 0.58813 0.41003 0.0
H413 H 0.78693 0.60055 0.49997 0.0
H414 H 0.64562 0.53764 0.52157 0.0
H415 H 0.69854 0.54145 0.52053 0.0
H416 H 0.73872 0.52906 0.43799 0.0
C417 C 0.82901 0.59073 0.42676 0.0
C418 C 0.77684 0.58429 0.48684 0.0
C419 C 0.85654 0.60132 0.41844 0.0
C420 C 0.65667 0.54341 0.50108 0.0
C421 C 0.6868 0.54578 0.50051 0.0
C422 C 0.74915 0.54433 0.45192 0.0
C423 C 0.82181 0.58402 0.45619 0.0
C424 C 0.79225 0.57256 0.4643 0.0
C425 C 0.70158 0.55371 0.47424 0.0
C426 C 0.73331 0.55754 0.47317 0.0
H427 H 0.88643 0.60286 0.48532 0.0
H428 H 0.83777 0.5841 0.50009 0.0
H429 H 0.78978 0.54156 0.43061 0.0
H430 H 0.64413 0.56207 0.42929 0.0
H431 H 0.69665 0.56563 0.42812 0.0
C432 C 0.13325 0.21437 0.1374 0.0
C433 C 0.16288 0.21531 0.14335 0.0
C434 C 0.11999 0.23956 0.12313 0.0
C435 C 0.12607 0.32219 0.11162 0.0
H436 H 0.07497 0.31449 0.04662 0.0
C437 C 0.04847 0.41621 0.06989 0.0
C438 C 0.04919 0.42496 0.03991 0.0
C439 C 0.06277 0.39043 0.08137 0.0
C440 C 0.08927 0.31697 0.06468 0.0
H441 H 0.20182 0.2434 0.13911 0.0
H442 H 0.17851 0.2877 0.11472 0.0
H443 H 0.09936 0.26964 0.06872 0.0
H444 H 0.06503 0.413 0.99841 0.0
H445 H 0.08943 0.36728 0.01851 0.0
H446 H 0.11551 0.36931 0.10807 0.0
C447 C 0.16563 0.26735 0.12088 0.0
C448 C 0.10307 0.29131 0.07742 0.0
C449 C 0.17898 0.24198 0.13468 0.0
C450 C 0.06408 0.40689 0.02159 0.0
C451 C 0.07797 0.3807 0.03307 0.0
C452 C 0.11187 0.34769 0.09926 0.0
C453 C 0.13598 0.26643 0.11497 0.0
C454 C 0.12164 0.29367 0.10103 0.0
C455 C 0.07774 0.37243 0.06313 0.0
C456 C 0.0933 0.34537 0.07567 0.0
H457 H 0.12035 0.19406 0.14369 0.0
H458 H 0.09709 0.23825 0.11903 0.0
H459 H 0.1401 0.32467 0.12989 0.0
H460 H 0.0373 0.42963 0.08466 0.0
H461 H 0.062 0.38447 0.10458 0.0
C462 C 0.66006 0.29389 0.9028 0.0
C463 C 0.66092 0.29917 0.87239 0.0
C464 C 0.64591 0.26801 0.91627 0.0
C465 C 0.61846 0.19139 0.90138 0.0
H466 H 0.57498 0.19587 0.97259 0.0
C467 C 0.54314 0.09377 0.94936 0.0
C468 C 0.54598 0.08514 0.97915 0.0
C469 C 0.55668 0.12036 0.93676 0.0
C470 C 0.58722 0.19428 0.95281 0.0
H471 H 0.64772 0.28109 0.83236 0.0
H472 H 0.62217 0.23685 0.85576 0.0
H473 H 0.59963 0.24139 0.94974 0.0
H474 H 0.56472 0.09798 0.01919 0.0
H475 H 0.58813 0.14462 0.99714 0.0
H476 H 0.60561 0.14438 0.90425 0.0
C477 C 0.63287 0.25234 0.86927 0.0
C478 C 0.60143 0.2203 0.93976 0.0
C479 C 0.64718 0.27802 0.85583 0.0
C480 C 0.56214 0.10399 0.99617 0.0
C481 C 0.57544 0.13076 0.9836 0.0
C482 C 0.60404 0.16549 0.91427 0.0
C483 C 0.63215 0.24689 0.89966 0.0
C484 C 0.61722 0.2192 0.91384 0.0
C485 C 0.57309 0.13903 0.95371 0.0
C486 C 0.58825 0.16666 0.94009 0.0
H487 H 0.67012 0.30985 0.91625 0.0
H488 H 0.64608 0.26441 0.93971 0.0
H489 H 0.63089 0.18949 0.88178 0.0
H490 H 0.53084 0.07974 0.93564 0.0
H491 H 0.55426 0.12636 0.91372 0.0
C492 C 0.96535 0.6841 0.46758 0.0
C493 C 0.9596 0.68143 0.43819 0.0
C494 C 0.97701 0.71123 0.47643 0.0
C495 C 0.01188 0.78511 0.44694 0.0
H496 H 0.98338 0.81355 0.51831 0.0
C497 C 1.0029 0.91026 0.46946 0.0
C498 C 0.01538 0.91907 0.49502 0.0
C499 C 1.00179 0.87978 0.46397 0.0
C500 C 0.99185 0.80562 0.49857 0.0
H501 H 0.96082 0.70503 0.39511 0.0
H502 H 0.97996 0.7525 0.41044 0.0
H503 H 0.96986 0.76257 0.50615 0.0
H504 H 0.03675 0.90314 0.53478 0.0
H505 H 0.03374 0.84923 0.52557 0.0
H506 H 0.03212 0.82919 0.43857 0.0
C507 C 0.97673 0.73351 0.42669 0.0
C508 C 0.98422 0.77638 0.49158 0.0
C509 C 0.96554 0.70633 0.41785 0.0
C510 C 0.02717 0.89689 0.51483 0.0
C511 C 0.02538 0.86618 0.50967 0.0
C512 C 0.019 0.81449 0.45367 0.0
C513 C 0.9827 0.73638 0.45608 0.0
C514 C 0.99357 0.76599 0.46531 0.0
C515 C 0.01255 0.85746 0.48424 0.0
C516 C 1.0086 0.82514 0.47925 0.0
H517 H 0.96103 0.66511 0.48363 0.0
H518 H 0.98162 0.71242 0.49918 0.0
H519 H 0.02021 0.77768 0.42694 0.0
H520 H 0.99371 0.92695 0.45382 0.0
H521 H 0.99161 0.87349 0.44432 0.0
C522 C 0.4196 0.80286 0.60346 0.0
C523 C 0.44034 0.82666 0.60064 0.0
C524 C 0.42677 0.7736 0.59762 0.0
C525 C 0.47795 0.73221 0.5568 0.0
H526 H 0.45089 0.66243 0.60747 0.0
C527 C 0.51319 0.61156 0.53997 0.0
C528 C 0.49217 0.58805 0.54328 0.0
C529 C 0.50742 0.64029 0.54832 0.0
C530 C 0.45832 0.68166 0.59294 0.0
H531 H 0.48488 0.83851 0.58977 0.0
H532 H 0.49751 0.78708 0.57948 0.0
H533 H 0.44027 0.71357 0.61963 0.0
H534 H 0.4487 0.57612 0.55831 0.0
H535 H 0.43836 0.62668 0.57249 0.0
H536 H 0.49559 0.70045 0.52984 0.0
C537 C 0.47565 0.79124 0.58605 0.0
C538 C 0.45232 0.71092 0.59995 0.0
C539 C 0.46851 0.82056 0.59209 0.0
C540 C 0.46534 0.59378 0.55555 0.0
C541 C 0.45949 0.62268 0.56379 0.0
C542 C 0.48383 0.70297 0.54972 0.0
C543 C 0.45482 0.76748 0.58876 0.0
C544 C 0.46203 0.73648 0.5819 0.0
C545 C 0.48041 0.64632 0.56002 0.0
C546 C 0.47408 0.67735 0.5677 0.0
H547 H 0.39783 0.8068 0.61047 0.0
H548 H 0.4102 0.75583 0.59964 0.0
H549 H 0.4853 0.75147 0.54225 0.0
H550 H 0.5342 0.60784 0.53084 0.0
H551 H 0.52421 0.65779 0.54567 0.0
C552 C 0.85593 0.90432 0.78973 0.0
C553 C 0.85511 0.87261 0.79648 0.0
C554 C 0.86796 0.91723 0.76344 0.0
C555 C 0.91921 0.90049 0.70579 0.0
H556 H 0.88552 0.9694 0.66182 0.0
C557 C 0.98015 0.96757 0.61078 0.0
C558 C 0.96471 0.97612 0.58543 0.0
C559 C 0.96588 0.95563 0.63612 0.0
C560 C 0.8951 0.95004 0.67374 0.0
H561 H 0.86535 0.82969 0.78008 0.0
H562 H 0.88641 0.85214 0.73458 0.0
H563 H 0.86186 0.947 0.70638 0.0
H564 H 0.92192 0.97923 0.56717 0.0
H565 H 0.89693 0.95829 0.61158 0.0
H566 H 0.95227 0.90326 0.67319 0.0
C567 C 0.87823 0.86709 0.74981 0.0
C568 C 0.88169 0.93738 0.69945 0.0
C569 C 0.86616 0.8542 0.77599 0.0
C570 C 0.9345 0.97287 0.58627 0.0
C571 C 0.92016 0.961 0.61177 0.0
C572 C 0.93265 0.91321 0.68025 0.0
C573 C 0.87954 0.89879 0.74326 0.0
C574 C 0.89358 0.91241 0.71581 0.0
C575 C 0.93573 0.95194 0.63695 0.0
C576 C 0.92086 0.93821 0.6639 0.0
H577 H 0.84791 0.91924 0.80506 0.0
H578 H 0.86887 0.94174 0.75927 0.0
H579 H 0.92918 0.8815 0.71793 0.0
H580 H 1.00342 0.96986 0.61105 0.0
H581 H 0.97855 0.94941 0.65519 0.0
C582 C 0.55923 0.12175 0.33994 0.0
C583 C 0.5648 0.10369 0.36571 0.0
C584 C 0.5498 0.10841 0.3154 0.0
C585 C 0.55567 0.03594 0.28351 0.0
H586 H 0.51132 0.07755 0.22216 0.0
C587 C 0.52221 0.02678 0.15557 0.0
C588 C 0.5494 0.01989 0.1447 0.0
C589 C 0.51872 0.0323 0.18461 0.0
C590 C 0.52334 0.06526 0.2392 0.0
H591 H 0.5626 0.05792 0.38683 0.0
H592 H 0.54554 0.03457 0.34406 0.0
H593 H 0.51185 0.09624 0.27002 0.0
H594 H 0.59389 0.01198 0.15629 0.0
H595 H 0.58807 0.02248 0.20653 0.0
H596 H 0.56727 0.00506 0.2527 0.0
C597 C 0.54916 0.05896 0.34258 0.0
C598 C 0.5239 0.07621 0.26656 0.0
C599 C 0.55879 0.0723 0.36709 0.0
C600 C 0.57277 0.01765 0.1638 0.0
C601 C 0.56931 0.02325 0.19277 0.0
C602 C 0.55497 0.0249 0.25622 0.0
C603 C 0.54558 0.07673 0.31615 0.0
C604 C 0.5408 0.06224 0.28878 0.0
C605 C 0.54234 0.0311 0.20343 0.0
C606 C 0.53955 0.04 0.23349 0.0
H607 H 0.56401 0.14596 0.33813 0.0
H608 H 0.54764 0.12279 0.29537 0.0
H609 H 0.56913 0.02471 0.29998 0.0
H610 H 0.50375 0.02894 0.1415 0.0
H611 H 0.49759 0.03796 0.1922 0.0
C612 C 0.36337 0.64696 0.2591 0.0
C613 C 0.3553 0.6294 0.23653 0.0
C614 C 0.37528 0.63333 0.28449 0.0
C615 C 0.41606 0.56746 0.31201 0.0
H616 H 0.39235 0.58978 0.38754 0.0
C617 C 0.48295 0.54267 0.41587 0.0
C618 C 0.46792 0.53169 0.44128 0.0
C619 C 0.46802 0.55242 0.39077 0.0
C620 C 0.39904 0.58315 0.36661 0.0
H621 H 0.35322 0.58384 0.22284 0.0
H622 H 0.37429 0.55993 0.2673 0.0
H623 H 0.36763 0.6108 0.34411 0.0
H624 H 0.42544 0.52213 0.46023 0.0
H625 H 0.39941 0.53946 0.41641 0.0
H626 H 0.44774 0.54013 0.3345 0.0
C627 C 0.37134 0.58425 0.26528 0.0
C628 C 0.38506 0.59536 0.34177 0.0
C629 C 0.3591 0.59786 0.23998 0.0
C630 C 0.43765 0.53045 0.441 0.0
C631 C 0.42273 0.5405 0.41597 0.0
C632 C 0.43026 0.55551 0.33684 0.0
C633 C 0.37964 0.60188 0.28774 0.0
C634 C 0.39353 0.58778 0.3142 0.0
C635 C 0.43777 0.55169 0.39064 0.0
C636 C 0.42199 0.56336 0.36438 0.0
H637 H 0.36048 0.6713 0.25708 0.0
H638 H 0.38169 0.64751 0.30133 0.0
H639 H 0.42319 0.5614 0.29102 0.0
H640 H 0.50627 0.54392 0.41538 0.0
H641 H 0.48017 0.5612 0.37164 0.0
C642 C 0.07217 0.38237 0.68268 0.0
C643 C 0.07817 0.40369 0.65885 0.0
C644 C 0.06782 0.39187 0.71029 0.0
C645 C 0.05116 0.45909 0.74892 0.0
H646 H 0.08903 0.41466 0.81338 0.0
C647 C 0.06654 0.50777 0.85889 0.0
C648 C 0.06175 0.48812 0.88416 0.0
C649 C 0.06697 0.49651 0.83172 0.0
C650 C 0.07801 0.42706 0.79568 0.0
H651 H 0.08349 0.45172 0.64519 0.0
H652 H 0.07643 0.46829 0.69348 0.0
H653 H 0.09195 0.39685 0.76516 0.0
H654 H 0.05403 0.44115 0.90068 0.0
H655 H 0.05457 0.42145 0.85306 0.0
H656 H 0.03759 0.48955 0.77939 0.0
C657 C 0.07479 0.44424 0.69077 0.0
C658 C 0.07965 0.41685 0.76805 0.0
C659 C 0.07912 0.43474 0.66315 0.0
C660 C 0.05755 0.45689 0.88162 0.0
C661 C 0.0581 0.44558 0.85438 0.0
C662 C 0.04958 0.46932 0.77652 0.0
C663 C 0.06941 0.42288 0.71471 0.0
C664 C 0.06645 0.43291 0.74431 0.0
C665 C 0.06268 0.46533 0.82914 0.0
C666 C 0.06322 0.45358 0.80014 0.0
H667 H 0.07163 0.35825 0.68018 0.0
H668 H 0.0634 0.37487 0.72822 0.0
H669 H 0.04035 0.47167 0.73118 0.0
H670 H 0.06946 0.53198 0.85998 0.0
H671 H 0.0709 0.51226 0.8127 0.0
C672 C 0.77698 0.90009 0.87669 0.0
C673 C 0.78049 0.86857 0.87668 0.0
C674 C 0.75251 0.9116 0.88927 0.0
C675 C 0.67731 0.8909 0.91237 0.0
H676 H 0.68557 0.96034 0.95736 0.0
C677 C 0.57905 0.95462 0.95239 0.0
C678 C 0.5803 0.96474 0.98031 0.0
C679 C 0.60324 0.94237 0.94 0.0
C680 C 0.68286 0.94079 0.94505 0.0
H681 H 0.76053 0.82451 0.88958 0.0
H682 H 0.71813 0.84453 0.91184 0.0
H683 H 0.72802 0.93997 0.93556 0.0
H684 H 0.60808 0.9696 0.01714 0.0
H685 H 0.65013 0.94804 0.99564 0.0
H686 H 0.63219 0.89146 0.92222 0.0
C687 C 0.73423 0.8604 0.90194 0.0
C688 C 0.70721 0.92932 0.93224 0.0
C689 C 0.75874 0.84889 0.88944 0.0
C690 C 0.60631 0.96206 0.99559 0.0
C691 C 0.63052 0.94989 0.98316 0.0
C692 C 0.65294 0.90244 0.92511 0.0
C693 C 0.7308 0.89192 0.90211 0.0
C694 C 0.70479 0.9042 0.91572 0.0
C695 C 0.62937 0.93999 0.95514 0.0
C696 C 0.65537 0.92754 0.94165 0.0
H697 H 0.79337 0.91594 0.8673 0.0
H698 H 0.7505 0.93599 0.88868 0.0
H699 H 0.67453 0.87173 0.89958 0.0
H700 H 0.55943 0.95642 0.93992 0.0
H701 H 0.6016 0.93533 0.91826 0.0
C702 C 0.66125 0.10409 0.45685 0.0
C703 C 0.65133 0.10452 0.42822 0.0
C704 C 0.68834 0.09267 0.46414 0.0
C705 C 0.74509 0.04456 0.43736 0.0
H706 H 0.7962 0.08922 0.48506 0.0
C707 C 0.867 0.03083 0.43573 0.0
C708 C 0.88134 0.02726 0.46241 0.0
C709 C 0.8382 0.03884 0.43452 0.0
C710 C 0.782 0.07631 0.47204 0.0
H711 H 0.6623 0.09417 0.38465 0.0
H712 H 0.70929 0.07445 0.39724 0.0
H713 H 0.74659 0.10537 0.47775 0.0
H714 H 0.87644 0.02985 0.50879 0.0
H715 H 0.82609 0.04453 0.50647 0.0
H716 H 0.7807 0.01613 0.43088 0.0
C717 C 0.69598 0.08212 0.41429 0.0
C718 C 0.75361 0.08549 0.4679 0.0
C719 C 0.66901 0.09343 0.40705 0.0
C720 C 0.86623 0.03264 0.48783 0.0
C721 C 0.83737 0.04095 0.48657 0.0
C722 C 0.77342 0.03555 0.44134 0.0
C723 C 0.70597 0.08156 0.44289 0.0
C724 C 0.73506 0.07008 0.44999 0.0
C725 C 0.82303 0.04374 0.45991 0.0
C726 C 0.79232 0.05171 0.4582 0.0
H727 H 0.64801 0.11241 0.47362 0.0
H728 H 0.69538 0.09235 0.48641 0.0
H729 H 0.73114 0.03179 0.42399 0.0
H730 H 0.87801 0.02764 0.41562 0.0
H731 H 0.82782 0.04146 0.4136 0.0
C732 C 0.28062 0.63223 0.12733 0.0
C733 C 0.28172 0.63431 0.15741 0.0
C734 C 0.25581 0.62112 0.11463 0.0
C735 C 0.17767 0.60962 0.12629 0.0
H736 H 0.18457 0.55392 0.06674 0.0
C737 C 0.07907 0.54858 0.07946 0.0
C738 C 0.0795 0.54481 0.04964 0.0
C739 C 0.10337 0.56008 0.09286 0.0
C740 C 0.18226 0.56977 0.08306 0.0
H741 H 0.25758 0.62647 0.19774 0.0
H742 H 0.21423 0.60675 0.17555 0.0
H743 H 0.22774 0.57232 0.08981 0.0
H744 H 0.10551 0.55097 0.01036 0.0
H745 H 0.14763 0.5715 0.03358 0.0
H746 H 0.13217 0.60723 0.11939 0.0
C747 C 0.23255 0.61392 0.1618 0.0
C748 C 0.20702 0.58026 0.09633 0.0
C749 C 0.25746 0.62491 0.17453 0.0
C750 C 0.10452 0.55341 0.03341 0.0
C751 C 0.12875 0.56498 0.04677 0.0
C752 C 0.15287 0.5992 0.11294 0.0
C753 C 0.23146 0.61191 0.13169 0.0
C754 C 0.20502 0.60037 0.11803 0.0
C755 C 0.12861 0.56813 0.07672 0.0
C756 C 0.15488 0.57922 0.09108 0.0
H757 H 0.29906 0.63904 0.11359 0.0
H758 H 0.25556 0.62012 0.09135 0.0
H759 H 0.17545 0.6254 0.14269 0.0
H760 H 0.06015 0.54209 0.09261 0.0
H761 H 0.10259 0.56192 0.116 0.0
C762 C 0.15098 0.4379 0.57002 0.0
C763 C 0.144 0.40665 0.57304 0.0
C764 C 0.17835 0.44831 0.56032 0.0
C765 C 0.24651 0.42406 0.52718 0.0
H766 H 0.28201 0.48271 0.57418 0.0
C767 C 0.36811 0.43221 0.546 0.0
C768 C 0.38159 0.46098 0.54626 0.0
C769 C 0.33828 0.42934 0.5437 0.0
C770 C 0.2723 0.46675 0.56048 0.0
H771 H 0.15992 0.36191 0.56726 0.0
H772 H 0.20756 0.3799 0.55061 0.0
H773 H 0.23063 0.47094 0.57934 0.0
H774 H 0.37446 0.50934 0.5439 0.0
H775 H 0.3219 0.50431 0.54024 0.0
H776 H 0.28859 0.41889 0.50937 0.0
C777 C 0.19184 0.39653 0.55521 0.0
C778 C 0.2428 0.46002 0.56337 0.0
C779 C 0.16447 0.38616 0.56479 0.0
C780 C 0.3646 0.48692 0.5437 0.0
C781 C 0.3346 0.48402 0.54174 0.0
C782 C 0.27603 0.43065 0.52444 0.0
C783 C 0.19937 0.42766 0.55354 0.0
C784 C 0.22969 0.438 0.5473 0.0
C785 C 0.32116 0.45516 0.54182 0.0
C786 C 0.28934 0.45148 0.54161 0.0
H787 H 0.13549 0.45425 0.57591 0.0
H788 H 0.18325 0.47247 0.55879 0.0
H789 H 0.23701 0.40745 0.51404 0.0
H790 H 0.38067 0.41185 0.54748 0.0
H791 H 0.32854 0.40678 0.54415 0.0
C792 C 0.86127 0.78793 0.91118 0.0
C793 C 0.86003 0.79243 0.88069 0.0
C794 C 0.87531 0.76291 0.9249 0.0
C795 C 0.93192 0.70876 0.9129 0.0
H796 H 0.89573 0.65786 0.97618 0.0
C797 C 0.97958 0.59406 0.95483 0.0
C798 C 0.97671 0.58373 0.98435 0.0
C799 C 0.96572 0.62014 0.94342 0.0
C800 C 0.90645 0.67208 0.95889 0.0
H801 H 0.87208 0.77313 0.84097 0.0
H802 H 0.89721 0.73029 0.86489 0.0
H803 H 0.87082 0.70212 0.9543 0.0
H804 H 0.95727 0.59314 0.02515 0.0
H805 H 0.93382 0.6393 1.00548 0.0
H806 H 0.96776 0.67944 0.91765 0.0
C807 C 0.88744 0.74629 0.87812 0.0
C808 C 0.89205 0.69741 0.94627 0.0
C809 C 0.8731 0.77101 0.86442 0.0
C810 C 0.95987 0.60042 1.00229 0.0
C811 C 0.94623 0.6268 0.99091 0.0
C812 C 0.94647 0.68375 0.92573 0.0
C813 C 0.8888 0.74197 0.90851 0.0
C814 C 0.90448 0.71581 0.92288 0.0
C815 C 0.94884 0.63699 0.96124 0.0
C816 C 0.93383 0.66472 0.94868 0.0
H817 H 0.85191 0.80405 0.92454 0.0
H818 H 0.87618 0.76032 0.94836 0.0
H819 H 0.94228 0.7228 0.89523 0.0
H820 H 0.99214 0.58165 0.94028 0.0
H821 H 0.96785 0.62668 0.92039 0.0
C822 C 0.37494 0.73406 0.17175 0.0
C823 C 0.36245 0.71212 0.15519 0.0
C824 C 0.3896 0.75955 0.15827 0.0
C825 C 0.39487 0.8082 0.09016 0.0
H826 H 0.46974 0.83197 0.11837 0.0
C827 C 0.46264 0.90632 0.03104 0.0
C828 C 0.47802 0.92562 0.04823 0.0
C829 C 0.44948 0.87946 0.04355 0.0
C830 C 0.44869 0.82592 0.11043 0.0
H831 H 0.35588 0.69984 0.11132 0.0
H832 H 0.38084 0.7448 0.08785 0.0
H833 H 0.44448 0.78706 0.1415 0.0
H834 H 0.49167 0.93191 0.09202 0.0
H835 H 0.46809 0.8856 0.11395 0.0
H836 H 0.39857 0.84735 0.0596 0.0
C837 C 0.37917 0.74217 0.11129 0.0
C838 C 0.43429 0.80012 0.12365 0.0
C839 C 0.36478 0.71649 0.12477 0.0
C840 C 0.48014 0.91741 0.07814 0.0
C841 C 0.46673 0.89073 0.0907 0.0
C842 C 0.40911 0.83418 0.07713 0.0
C843 C 0.39182 0.76388 0.12792 0.0
C844 C 0.40723 0.79104 0.11367 0.0
C845 C 0.45112 0.87145 0.07359 0.0
C846 C 0.43621 0.84342 0.08712 0.0
H847 H 0.37313 0.73177 0.19518 0.0
H848 H 0.39881 0.77616 0.1716 0.0
H849 H 0.37387 0.80189 0.08225 0.0
H850 H 0.46078 0.91192 1.00788 0.0
H851 H 0.43811 0.86493 0.0296 0.0
C852 C 0.0539 0.32746 0.5563 0.0
C853 C 0.06307 0.3294 0.58491 0.0
C854 C 0.04106 0.30057 0.54817 0.0
C855 C 0.0092 0.22596 0.57942 0.0
H856 H 0.03121 0.19899 0.5052 0.0
C857 C 0.01613 0.10136 0.55545 0.0
C858 C 1.00301 0.09257 0.5302 0.0
C859 C 0.01718 0.13179 0.56109 0.0
C860 C 0.0245 0.2065 0.52577 0.0
H861 H 0.06652 0.30476 0.62731 0.0
H862 H 0.04515 0.25779 0.61312 0.0
H863 H 0.0455 0.24993 0.51683 0.0
H864 H 0.98037 0.10848 0.49119 0.0
H865 H 0.9832 0.1623 0.50067 0.0
H866 H 0.98996 0.18158 0.58896 0.0
C867 C 0.04673 0.27716 0.59706 0.0
C868 C 0.03259 0.23571 0.53246 0.0
C869 C 0.05917 0.30406 0.60522 0.0
C870 C 0.99047 0.11471 0.51089 0.0
C871 C 0.99216 0.14538 0.51622 0.0
C872 C 1.00158 0.19663 0.57291 0.0
C873 C 0.03751 0.27497 0.56842 0.0
C874 C 0.0257 0.24554 0.5597 0.0
C875 C 1.00568 0.15411 0.5413 0.0
C876 C 0.00971 0.18646 0.5463 0.0
H877 H 0.05655 0.34678 0.54028 0.0
H878 H 0.03394 0.29988 0.52602 0.0
H879 H 1.00279 0.23298 0.60026 0.0
H880 H 0.02588 0.0847 0.57072 0.0
H881 H 0.02794 0.13804 0.58045 0.0
C882 C 0.55538 0.19772 0.43338 0.0
C883 C 0.58352 0.19063 0.42563 0.0
C884 C 0.5491 0.22703 0.44009 0.0
C885 C 0.58381 0.29766 0.4619 0.0
H886 H 0.51184 0.33355 0.43673 0.0
C887 C 0.55848 0.42314 0.47408 0.0
C888 C 0.53116 0.42827 0.48564 0.0
C889 C 0.56507 0.39458 0.46556 0.0
C890 C 0.53194 0.32372 0.44403 0.0
H891 H 0.62699 0.20873 0.41806 0.0
H892 H 0.61603 0.25992 0.42941 0.0
H893 H 0.52293 0.28264 0.42436 0.0
H894 H 0.48921 0.40763 0.49691 0.0
H895 H 0.50073 0.35791 0.48195 0.0
H896 H 0.59284 0.3389 0.48139 0.0
C897 C 0.59892 0.24274 0.43103 0.0
C898 C 0.53826 0.29454 0.43705 0.0
C899 C 0.60522 0.21342 0.42452 0.0
C900 C 0.51046 0.40442 0.48809 0.0
C901 C 0.51698 0.37598 0.47937 0.0
C902 C 0.57756 0.32691 0.46871 0.0
C903 C 0.57081 0.2499 0.43896 0.0
C904 C 0.56421 0.28109 0.44604 0.0
C905 C 0.54439 0.37071 0.46821 0.0
C906 C 0.5515 0.34016 0.45999 0.0
H907 H 0.53831 0.1805 0.43459 0.0
H908 H 0.52731 0.23166 0.44653 0.0
H909 H 0.60378 0.28781 0.46955 0.0
H910 H 0.57488 0.44107 0.47192 0.0
H911 H 0.5863 0.39118 0.45679 0.0
loop_
_geom_bond_atom_site_label_1
_geom_bond_atom_site_label_2
_geom_bond_distance
_geom_bond_site_symmetry_2
_ccdc_geom_bond_type
H0 C3 0.931 . S
H1 C6 0.928 . S
H2 C8 0.930 . S
C3 H0 0.931 . S
C3 C4 1.413 . S
C3 C5 1.360 . S
C4 C3 1.413 . S
C4 C8 1.429 . S
C5 C3 1.360 . S
C5 C6 1.372 . S
C6 H1 0.928 . S
C6 C5 1.372 . S
C6 C7 1.404 . S
C7 C6 1.404 . S
C7 C8 1.391 . S
C8 H2 0.930 . S
C8 C4 1.429 . S
C8 C7 1.391 . S
H9 C12 0.931 . S
H10 C15 0.928 . S
H11 C17 0.930 . S
C12 H9 0.931 . S
C12 C13 1.413 . S
C12 C14 1.360 . S
C13 C12 1.413 . S
C13 C17 1.429 . S
C14 C12 1.360 . S
C14 C15 1.372 . S
C15 H10 0.928 . S
C15 C14 1.372 . S
C15 C16 1.404 . S
C16 C15 1.404 . S
C16 C17 1.391 . S
C17 H11 0.930 . S
C17 C13 1.429 . S
C17 C16 1.391 . S
H18 C21 0.931 . S
H19 C24 0.928 . S
H20 C26 0.930 . S
C21 H18 0.931 . S
C21 C22 1.413 . S
C21 C23 1.360 . S
C22 C21 1.413 . S
C22 C26 1.429 . S
C23 C21 1.360 . S
C23 C24 1.372 . S
C24 H19 0.928 . S
C24 C23 1.372 . S
C24 C25 1.404 . S
C25 C24 1.404 . S
C25 C26 1.391 . S
C26 H20 0.930 . S
C26 C22 1.429 . S
C26 C25 1.391 . S
H27 C30 0.931 . S
H28 C33 0.928 . S
H29 C35 0.930 . S
C30 H27 0.931 . S
C30 C31 1.413 . S
C30 C32 1.360 . S
C31 C30 1.413 . S
C31 C35 1.429 . S
C32 C30 1.360 . S
C32 C33 1.372 . S
C33 H28 0.928 . S
C33 C32 1.372 . S
C33 C34 1.404 . S
C34 C33 1.404 . S
C34 C35 1.391 . S
C35 H29 0.930 . S
C35 C31 1.429 . S
C35 C34 1.391 . S
H36 C39 0.931 . S
H37 C42 0.928 . S
H38 C44 0.930 . S
C39 H36 0.931 . S
C39 C40 1.413 . S
C39 C41 1.360 . S
C40 C39 1.413 . S
C40 C44 1.429 . S
C41 C39 1.360 . S
C41 C42 1.372 . S
C42 H37 0.928 . S
C42 C41 1.372 . S
C42 C43 1.404 . S
C43 C42 1.404 . S
C43 C44 1.391 . S
C44 H38 0.930 . S
C44 C40 1.429 . S
C44 C43 1.391 . S
H45 C48 0.931 . S
H46 C51 0.928 . S
H47 C53 0.930 . S
C48 H45 0.931 . S
C48 C49 1.413 . S
C48 C50 1.360 . S
C49 C48 1.413 . S
C49 C53 1.429 . S
C50 C48 1.360 . S
C50 C51 1.372 . S
C51 H46 0.928 . S
C51 C50 1.372 . S
C51 C52 1.404 . S
C52 C51 1.404 . S
C52 C53 1.391 . S
C53 H47 0.930 . S
C53 C49 1.429 . S
C53 C52 1.391 . S
H54 C57 0.931 . S
H55 C60 0.928 . S
H56 C62 0.930 . S
C57 H54 0.931 . S
C57 C58 1.413 . S
C57 C59 1.360 . S
C58 C57 1.413 . S
C58 C62 1.429 . S
C59 C57 1.360 . S
C59 C60 1.372 . S
C60 H55 0.928 . S
C60 C59 1.372 . S
C60 C61 1.404 . S
C61 C60 1.404 . S
C61 C62 1.391 . S
C62 H56 0.930 . S
C62 C58 1.429 . S
C62 C61 1.391 . S
H63 C66 0.931 . S
H64 C69 0.928 . S
H65 C71 0.930 . S
C66 H63 0.931 . S
C66 C67 1.413 . S
C66 C68 1.360 . S
C67 C66 1.413 . S
C67 C71 1.429 . S
C68 C66 1.360 . S
C68 C69 1.372 . S
C69 H64 0.928 . S
C69 C68 1.372 . S
C69 C70 1.404 . S
C70 C69 1.404 . S
C70 C71 1.391 . S
C71 H65 0.930 . S
C71 C67 1.429 . S
C71 C70 1.391 . S
Co72 N77 2.057 . S
Co72 O89 2.021 . S
Co72 O92 2.062 . S
Co72 O96 2.117 1_545 S
Co72 O97 2.020 1_545 S
C73 O93 1.259 1_655 S
C73 O96 1.258 . S
Co74 N83 2.057 . S
Co74 O90 2.117 1_565 S
Co74 O91 2.020 1_565 S
Co74 O93 2.021 . S
Co74 O98 2.062 . S
C75 N77 1.316 . S
C75 N78 1.347 . S
C75 H80 0.931 . S
C76 N77 1.375 1_565 S
C76 C79 1.350 1_565 S
C76 H81 0.930 . S
N77 Co72 2.057 . S
N77 C75 1.316 . S
N77 C76 1.375 1_545 S
N78 C75 1.347 . S
N78 C79 1.373 . S
C79 C76 1.350 1_545 S
C79 N78 1.373 . S
C79 H100 0.928 1_545 S
H80 C75 0.931 . S
H81 C76 0.930 . S
C82 O89 1.259 1_455 S
C82 O90 1.258 . S
N83 Co74 2.057 . S
N83 C84 1.316 . S
N83 C85 1.375 1_565 S
C84 N83 1.316 . S
C84 N86 1.347 . S
C84 H95 0.931 . S
C85 N83 1.375 1_545 S
C85 C87 1.350 1_545 S
C85 H94 0.930 . S
N86 C84 1.347 . S
N86 C87 1.373 . S
C87 C85 1.350 1_565 S
C87 N86 1.373 . S
C87 H101 0.931 1_565 S
C88 O91 1.256 . S
C88 O92 1.255 1_455 S
O89 Co72 2.021 . S
O89 C82 1.259 1_655 S
O90 Co74 2.117 1_545 S
O90 C82 1.258 . S
O91 Co74 2.020 1_545 S
O91 C88 1.256 . S
O92 Co72 2.062 . S
O92 C88 1.255 1_655 S
O93 C73 1.259 1_455 S
O93 Co74 2.021 . S
H94 C85 0.930 . S
H95 C84 0.931 . S
O96 Co72 2.117 1_565 S
O96 C73 1.258 . S
O97 Co72 2.020 1_565 S
O97 C99 1.256 . S
O98 Co74 2.062 . S
O98 C99 1.255 1_455 S
C99 O97 1.256 . S
C99 O98 1.255 1_655 S
H100 C79 0.928 1_565 S
H101 C87 0.931 1_545 S
Co102 N107 2.057 . S
Co102 O119 2.021 1_565 S
Co102 O122 2.062 . S
Co102 O126 2.114 1_556 S
Co102 O127 2.020 1_565 S
C103 O123 1.259 . S
C103 O126 1.263 . S
Co104 N113 2.057 . S
Co104 O120 2.117 . S
Co104 O121 2.020 1_545 S
Co104 O123 2.021 1_545 S
Co104 O128 2.062 . S
C105 N107 1.316 . S
C105 N108 1.347 . S
C105 H110 0.931 1_565 S
C106 N107 1.375 . S
C106 C109 1.350 . S
C106 H111 0.930 . S
N107 Co102 2.057 . S
N107 C105 1.316 . S
N107 C106 1.375 . S
N108 C105 1.347 . S
N108 C109 1.373 . S
C109 C106 1.350 . S
C109 N108 1.373 . S
C109 H130 0.931 . S
H110 C105 0.931 1_545 S
H111 C106 0.930 . S
C112 O119 1.259 . S
C112 O120 1.258 1_556 S
N113 Co104 2.057 . S
N113 C114 1.316 . S
N113 C115 1.375 . S
C114 N113 1.316 . S
C114 N116 1.347 . S
C114 H125 0.931 1_545 S
C115 N113 1.375 . S
C115 C117 1.350 . S
C115 H124 0.930 . S
N116 C114 1.347 . S
N116 C117 1.373 . S
C117 C115 1.350 . S
C117 N116 1.373 . S
C117 H131 0.931 . S
C118 O121 1.256 1_556 S
C118 O122 1.255 . S
O119 Co102 2.021 1_545 S
O119 C112 1.259 . S
O120 Co104 2.117 . S
O120 C112 1.258 1_554 S
O121 Co104 2.020 1_565 S
O121 C118 1.256 1_554 S
O122 Co102 2.062 . S
O122 C118 1.255 . S
O123 C103 1.259 . S
O123 Co104 2.021 1_565 S
H124 C115 0.930 . S
H125 C114 0.931 1_565 S
O126 Co102 2.114 1_554 S
O126 C103 1.263 . S
O127 Co102 2.020 1_545 S
O127 C129 1.256 1_556 S
O128 Co104 2.062 . S
O128 C129 1.255 . S
C129 O127 1.256 1_554 S
C129 O128 1.255 . S
H130 C109 0.931 . S
H131 C117 0.931 . S
Co132 N137 2.057 . S
Co132 O149 2.021 . S
Co132 O152 2.062 . S
Co132 O156 2.117 . S
Co132 O157 2.020 . S
C133 O153 1.259 . S
C133 O156 1.258 . S
Co134 N143 2.057 . S
Co134 O150 2.117 . S
Co134 O151 2.020 . S
Co134 O153 2.021 . S
Co134 O158 2.062 . S
C135 N137 1.316 . S
C135 N138 1.347 . S
C135 H140 0.931 . S
C136 N137 1.375 . S
C136 C139 1.350 . S
C136 H141 0.930 . S
N137 Co132 2.057 . S
N137 C135 1.316 . S
N137 C136 1.375 . S
N138 C135 1.347 . S
N138 C139 1.373 . S
C139 C136 1.350 . S
C139 N138 1.373 . S
C139 H160 0.931 . S
H140 C135 0.931 . S
H141 C136 0.930 . S
C142 O149 1.259 . S
C142 O150 1.258 . S
N143 Co134 2.057 . S
N143 C144 1.316 . S
N143 C145 1.375 . S
C144 N143 1.316 . S
C144 N146 1.347 . S
C144 H155 0.931 . S
C145 N143 1.375 . S
C145 C147 1.350 . S
C145 H154 0.930 . S
N146 C144 1.347 . S
N146 C147 1.373 . S
C147 C145 1.350 . S
C147 N146 1.373 . S
C147 H161 0.931 . S
C148 O151 1.256 . S
C148 O152 1.255 . S
O149 Co132 2.021 . S
O149 C142 1.259 . S
O150 Co134 2.117 . S
O150 C142 1.258 . S
O151 Co134 2.020 . S
O151 C148 1.256 . S
O152 Co132 2.062 . S
O152 C148 1.255 . S
O153 C133 1.259 . S
O153 Co134 2.021 . S
H154 C145 0.930 . S
H155 C144 0.931 . S
O156 Co132 2.117 . S
O156 C133 1.258 . S
O157 Co132 2.020 . S
O157 C159 1.256 . S
O158 Co134 2.062 . S
O158 C159 1.255 . S
C159 O157 1.256 . S
C159 O158 1.255 . S
H160 C139 0.931 . S
H161 C147 0.931 . S
Co162 N167 2.057 . S
Co162 O179 2.021 . S
Co162 O182 2.062 . S
Co162 O186 2.117 1_455 S
Co162 O187 2.007 1_455 S
C163 O183 1.259 1_556 S
C163 O186 1.258 . S
Co164 N173 2.057 . S
Co164 O180 2.117 1_655 S
Co164 O181 2.020 1_655 S
Co164 O183 2.021 . S
Co164 O188 2.062 . S
C165 N167 1.316 . S
C165 N168 1.347 . S
C165 H170 0.931 . S
C166 N167 1.375 1_655 S
C166 C169 1.350 1_655 S
C166 H171 0.930 . S
N167 Co162 2.057 . S
N167 C165 1.316 . S
N167 C166 1.375 1_455 S
N168 C165 1.347 . S
N168 C169 1.373 . S
C169 C166 1.350 1_455 S
C169 N168 1.373 . S
C169 H190 0.931 1_455 S
H170 C165 0.931 . S
H171 C166 0.930 . S
C172 O179 1.259 1_554 S
C172 O180 1.258 . S
N173 Co164 2.057 . S
N173 C174 1.316 . S
N173 C175 1.375 1_655 S
C174 N173 1.316 . S
C174 N176 1.347 . S
C174 H185 0.931 . S
C175 N173 1.375 1_455 S
C175 C177 1.350 1_455 S
C175 H184 0.930 . S
N176 C174 1.347 . S
N176 C177 1.373 . S
C177 C175 1.350 1_655 S
C177 N176 1.373 . S
C177 H191 0.931 1_655 S
C178 O181 1.256 . S
C178 O182 1.255 1_554 S
O179 Co162 2.021 . S
O179 C172 1.259 1_556 S
O180 Co164 2.117 1_455 S
O180 C172 1.258 . S
O181 Co164 2.020 1_455 S
O181 C178 1.256 . S
O182 Co162 2.062 . S
O182 C178 1.255 1_556 S
O183 C163 1.259 1_554 S
O183 Co164 2.021 . S
H184 C175 0.930 . S
H185 C174 0.931 . S
O186 Co162 2.117 1_655 S
O186 C163 1.258 . S
O187 Co162 2.007 1_655 S
O187 C189 1.273 . S
O188 Co164 2.062 . S
O188 C189 1.255 1_554 S
C189 O187 1.273 . S
C189 O188 1.255 1_556 S
H190 C169 0.931 1_655 S
H191 C177 0.931 1_455 S
C192 C193 1.349 . S
C192 C194 1.327 . S
C192 H217 0.950 . S
C193 C192 1.349 . S
C193 C209 1.349 . S
C194 C192 1.327 . S
C194 C213 1.429 . S
C194 H218 0.950 . S
C195 C212 1.574 . S
C195 C214 1.368 . S
C195 H219 0.949 . S
H196 C200 0.949 . S
C197 C198 1.349 . S
C197 C199 1.327 . S
C197 H220 0.950 1_545 S
C198 C197 1.349 . S
C198 C210 1.349 . S
C199 C197 1.327 . S
C199 C215 1.429 . S
C199 H221 0.950 . S
C200 H196 0.949 . S
C200 C208 1.574 . S
C200 C216 1.368 . S
H201 C209 0.950 . S
H202 C207 0.950 . S
H203 C208 0.949 . S
H204 C210 0.950 . S
H205 C211 0.950 . S
H206 C212 0.949 . S
C207 H202 0.950 . S
C207 C209 1.327 . S
C207 C213 1.429 . S
C208 C200 1.574 . S
C208 H203 0.949 . S
C208 C214 1.368 . S
C209 C193 1.349 . S
C209 H201 0.950 . S
C209 C207 1.327 . S
C210 C198 1.349 . S
C210 H204 0.950 . S
C210 C211 1.327 . S
C211 H205 0.950 . S
C211 C210 1.327 . S
C211 C215 1.429 . S
C212 C195 1.574 . S
C212 H206 0.949 . S
C212 C216 1.368 . S
C213 C194 1.429 . S
C213 C207 1.429 . S
C213 C214 1.523 . S
C214 C195 1.368 . S
C214 C208 1.368 . S
C214 C213 1.523 . S
C215 C199 1.429 . S
C215 C211 1.429 . S
C215 C216 1.523 . S
C216 C200 1.368 . S
C216 C212 1.368 . S
C216 C215 1.523 . S
H217 C192 0.950 . S
H218 C194 0.950 . S
H219 C195 0.949 . S
H220 C197 0.950 1_565 S
H221 C199 0.950 . S
C222 C223 1.349 . S
C222 C224 1.327 . S
C222 H247 0.950 . S
C223 C222 1.349 . S
C223 C239 1.349 . S
C224 C222 1.327 . S
C224 C243 1.429 . S
C224 H248 0.950 . S
C225 C242 1.574 . S
C225 C244 1.368 . S
C225 H249 0.949 . S
H226 C230 0.949 . S
C227 C228 1.349 . S
C227 C229 1.327 . S
C227 H250 0.950 . S
C228 C227 1.349 . S
C228 C240 1.349 . S
C229 C227 1.327 . S
C229 C245 1.429 . S
C229 H251 0.950 . S
C230 H226 0.949 . S
C230 C238 1.574 . S
C230 C246 1.368 . S
H231 C239 0.950 . S
H232 C237 0.950 . S
H233 C238 0.949 . S
H234 C240 0.950 . S
H235 C241 0.950 . S
H236 C242 0.949 . S
C237 H232 0.950 . S
C237 C239 1.327 . S
C237 C243 1.429 . S
C238 C230 1.574 . S
C238 H233 0.949 . S
C238 C244 1.368 . S
C239 C223 1.349 . S
C239 H231 0.950 . S
C239 C237 1.327 . S
C240 C228 1.349 . S
C240 H234 0.950 . S
C240 C241 1.327 . S
C241 H235 0.950 . S
C241 C240 1.327 . S
C241 C245 1.429 . S
C242 C225 1.574 . S
C242 H236 0.949 . S
C242 C246 1.368 . S
C243 C224 1.429 . S
C243 C237 1.429 . S
C243 C244 1.523 . S
C244 C225 1.368 . S
C244 C238 1.368 . S
C244 C243 1.523 . S
C245 C229 1.429 . S
C245 C241 1.429 . S
C245 C246 1.523 . S
C246 C230 1.368 . S
C246 C242 1.368 . S
C246 C245 1.523 . S
H247 C222 0.950 . S
H248 C224 0.950 . S
H249 C225 0.949 . S
H250 C227 0.950 . S
H251 C229 0.950 . S
C252 C253 1.349 . S
C252 C254 1.327 . S
C252 H277 0.950 . S
C253 C252 1.349 . S
C253 C269 1.349 . S
C254 C252 1.327 . S
C254 C273 1.429 . S
C254 H278 0.950 . S
C255 C272 1.574 . S
C255 C274 1.368 . S
C255 H279 0.949 . S
H256 C260 0.949 . S
C257 C258 1.349 . S
C257 C259 1.327 . S
C257 H280 0.950 . S
C258 C257 1.349 . S
C258 C270 1.349 . S
C259 C257 1.327 . S
C259 C275 1.429 . S
C259 H281 0.950 . S
C260 H256 0.949 . S
C260 C268 1.574 . S
C260 C276 1.368 . S
H261 C269 0.950 . S
H262 C267 0.950 . S
H263 C268 0.949 . S
H264 C270 0.950 . S
H265 C271 0.950 . S
H266 C272 0.949 . S
C267 H262 0.950 . S
C267 C269 1.327 . S
C267 C273 1.429 . S
C268 C260 1.574 . S
C268 H263 0.949 . S
C268 C274 1.368 . S
C269 C253 1.349 . S
C269 H261 0.950 . S
C269 C267 1.327 . S
C270 C258 1.349 . S
C270 H264 0.950 . S
C270 C271 1.327 . S
C271 H265 0.950 . S
C271 C270 1.327 . S
C271 C275 1.429 . S
C272 C255 1.574 . S
C272 H266 0.949 . S
C272 C276 1.368 . S
C273 C254 1.429 . S
C273 C267 1.429 . S
C273 C274 1.523 . S
C274 C255 1.368 . S
C274 C268 1.368 . S
C274 C273 1.523 . S
C275 C259 1.429 . S
C275 C271 1.429 . S
C275 C276 1.523 . S
C276 C260 1.368 . S
C276 C272 1.368 . S
C276 C275 1.523 . S
H277 C252 0.950 . S
H278 C254 0.950 . S
H279 C255 0.949 . S
H280 C257 0.950 . S
H281 C259 0.950 . S
C282 C283 1.349 . S
C282 C284 1.327 . S
C282 H307 0.950 . S
C283 C282 1.349 . S
C283 C299 1.349 . S
C284 C282 1.327 . S
C284 C303 1.429 . S
C284 H308 0.950 . S
C285 C302 1.574 . S
C285 C304 1.368 . S
C285 H309 0.949 . S
H286 C290 0.949 . S
C287 C288 1.349 . S
C287 C289 1.327 . S
C287 H310 0.950 . S
C288 C287 1.349 . S
C288 C300 1.349 . S
C289 C287 1.327 . S
C289 C305 1.429 . S
C289 H311 0.950 . S
C290 H286 0.949 . S
C290 C298 1.574 . S
C290 C306 1.368 . S
H291 C299 0.950 . S
H292 C297 0.950 . S
H293 C298 0.949 . S
H294 C300 0.950 . S
H295 C301 0.950 . S
H296 C302 0.949 . S
C297 H292 0.950 . S
C297 C299 1.327 . S
C297 C303 1.429 . S
C298 C290 1.574 . S
C298 H293 0.949 . S
C298 C304 1.368 . S
C299 C283 1.349 . S
C299 H291 0.950 . S
C299 C297 1.327 . S
C300 C288 1.349 . S
C300 H294 0.950 . S
C300 C301 1.327 . S
C301 H295 0.950 . S
C301 C300 1.327 . S
C301 C305 1.429 . S
C302 C285 1.574 . S
C302 H296 0.949 . S
C302 C306 1.368 . S
C303 C284 1.429 . S
C303 C297 1.429 . S
C303 C304 1.523 . S
C304 C285 1.368 . S
C304 C298 1.368 . S
C304 C303 1.523 . S
C305 C289 1.429 . S
C305 C301 1.429 . S
C305 C306 1.523 . S
C306 C290 1.368 . S
C306 C302 1.368 . S
C306 C305 1.523 . S
H307 C282 0.950 . S
H308 C284 0.950 . S
H309 C285 0.949 . S
H310 C287 0.950 . S
H311 C289 0.950 . S
C312 C313 1.349 . S
C312 C314 1.327 . S
C312 H337 0.950 . S
C313 C312 1.349 . S
C313 C329 1.349 . S
C314 C312 1.327 . S
C314 C333 1.429 . S
C314 H338 0.950 . S
C315 C332 1.574 . S
C315 C334 1.368 . S
C315 H339 0.949 . S
H316 C320 0.949 . S
C317 C318 1.349 . S
C317 C319 1.327 . S
C317 H340 0.950 . S
C318 C317 1.349 . S
C318 C330 1.349 . S
C319 C317 1.327 . S
C319 C335 1.429 . S
C319 H341 0.950 . S
C320 H316 0.949 . S
C320 C328 1.574 . S
C320 C336 1.368 . S
H321 C329 0.950 . S
H322 C327 0.950 . S
H323 C328 0.949 . S
H324 C330 0.950 1_565 S
H325 C331 0.950 . S
H326 C332 0.949 . S
C327 H322 0.950 . S
C327 C329 1.327 . S
C327 C333 1.429 . S
C328 C320 1.574 . S
C328 H323 0.949 . S
C328 C334 1.368 . S
C329 C313 1.349 . S
C329 H321 0.950 . S
C329 C327 1.327 . S
C330 C318 1.349 . S
C330 H324 0.950 1_545 S
C330 C331 1.327 . S
C331 H325 0.950 . S
C331 C330 1.327 . S
C331 C335 1.429 . S
C332 C315 1.574 . S
C332 H326 0.949 . S
C332 C336 1.368 . S
C333 C314 1.429 . S
C333 C327 1.429 . S
C333 C334 1.523 . S
C334 C315 1.368 . S
C334 C328 1.368 . S
C334 C333 1.523 . S
C335 C319 1.429 . S
C335 C331 1.429 . S
C335 C336 1.523 . S
C336 C320 1.368 . S
C336 C332 1.368 . S
C336 C335 1.523 . S
H337 C312 0.950 . S
H338 C314 0.950 . S
H339 C315 0.949 . S
H340 C317 0.950 . S
H341 C319 0.950 . S
C342 C343 1.349 . S
C342 C344 1.327 . S
C342 H367 0.950 . S
C343 C342 1.349 . S
C343 C359 1.349 . S
C344 C342 1.327 . S
C344 C363 1.429 . S
C344 H368 0.950 . S
C345 C362 1.574 . S
C345 C364 1.368 . S
C345 H369 0.949 . S
H346 C350 0.949 . S
C347 C348 1.349 . S
C347 C349 1.327 . S
C347 H370 0.950 . S
C348 C347 1.349 . S
C348 C360 1.349 . S
C349 C347 1.327 . S
C349 C365 1.429 . S
C349 H371 0.950 . S
C350 H346 0.949 . S
C350 C358 1.574 . S
C350 C366 1.368 . S
H351 C359 0.950 . S
H352 C357 0.950 . S
H353 C358 0.949 . S
H354 C360 0.950 . S
H355 C361 0.950 . S
H356 C362 0.949 . S
C357 H352 0.950 . S
C357 C359 1.327 . S
C357 C363 1.429 . S
C358 C350 1.574 . S
C358 H353 0.949 . S
C358 C364 1.368 . S
C359 C343 1.349 . S
C359 H351 0.950 . S
C359 C357 1.327 . S
C360 C348 1.349 . S
C360 H354 0.950 . S
C360 C361 1.327 . S
C361 H355 0.950 . S
C361 C360 1.327 . S
C361 C365 1.429 . S
C362 C345 1.574 . S
C362 H356 0.949 . S
C362 C366 1.368 . S
C363 C344 1.429 . S
C363 C357 1.429 . S
C363 C364 1.523 . S
C364 C345 1.368 . S
C364 C358 1.368 . S
C364 C363 1.523 . S
C365 C349 1.429 . S
C365 C361 1.429 . S
C365 C366 1.523 . S
C366 C350 1.368 . S
C366 C362 1.368 . S
C366 C365 1.523 . S
H367 C342 0.950 . S
H368 C344 0.950 . S
H369 C345 0.949 . S
H370 C347 0.950 . S
H371 C349 0.950 . S
C372 C373 1.349 . S
C372 C374 1.327 . S
C372 H397 0.950 . S
C373 C372 1.349 . S
C373 C389 1.349 . S
C374 C372 1.327 . S
C374 C393 1.429 . S
C374 H398 0.950 . S
C375 C392 1.574 . S
C375 C394 1.368 . S
C375 H399 0.949 . S
H376 C380 0.949 . S
C377 C378 1.349 . S
C377 C379 1.327 . S
C377 H400 0.950 . S
C378 C377 1.349 . S
C378 C390 1.349 . S
C379 C377 1.327 . S
C379 C395 1.429 . S
C379 H401 0.950 . S
C380 H376 0.949 . S
C380 C388 1.574 . S
C380 C396 1.368 . S
H381 C389 0.950 . S
H382 C387 0.950 . S
H383 C388 0.949 . S
H384 C390 0.950 . S
H385 C391 0.950 . S
H386 C392 0.949 . S
C387 H382 0.950 . S
C387 C389 1.327 . S
C387 C393 1.429 . S
C388 C380 1.574 . S
C388 H383 0.949 . S
C388 C394 1.368 . S
C389 C373 1.349 . S
C389 H381 0.950 . S
C389 C387 1.327 . S
C390 C378 1.349 . S
C390 H384 0.950 . S
C390 C391 1.327 . S
C391 H385 0.950 . S
C391 C390 1.327 . S
C391 C395 1.429 . S
C392 C375 1.574 . S
C392 H386 0.949 . S
C392 C396 1.368 . S
C393 C374 1.429 . S
C393 C387 1.429 . S
C393 C394 1.523 . S
C394 C375 1.368 . S
C394 C388 1.368 . S
C394 C393 1.523 . S
C395 C379 1.429 . S
C395 C391 1.429 . S
C395 C396 1.523 . S
C396 C380 1.368 . S
C396 C392 1.368 . S
C396 C395 1.523 . S
H397 C372 0.950 . S
H398 C374 0.950 . S
H399 C375 0.949 . S
H400 C377 0.950 . S
H401 C379 0.950 . S
C402 C403 1.349 . S
C402 C404 1.327 . S
C402 H427 0.950 . S
C403 C402 1.349 . S
C403 C419 1.349 . S
C404 C402 1.327 . S
C404 C423 1.429 . S
C404 H428 0.950 . S
C405 C422 1.574 . S
C405 C424 1.368 . S
C405 H429 0.949 . S
H406 C410 0.949 . S
C407 C408 1.349 . S
C407 C409 1.327 . S
C407 H430 0.950 . S
C408 C407 1.349 . S
C408 C420 1.349 . S
C409 C407 1.327 . S
C409 C425 1.429 . S
C409 H431 0.950 . S
C410 H406 0.949 . S
C410 C418 1.574 . S
C410 C426 1.368 . S
H411 C419 0.950 . S
H412 C417 0.950 . S
H413 C418 0.949 . S
H414 C420 0.950 . S
H415 C421 0.950 . S
H416 C422 0.949 . S
C417 H412 0.950 . S
C417 C419 1.327 . S
C417 C423 1.429 . S
C418 C410 1.574 . S
C418 H413 0.949 . S
C418 C424 1.368 . S
C419 C403 1.349 . S
C419 H411 0.950 . S
C419 C417 1.327 . S
C420 C408 1.349 . S
C420 H414 0.950 . S
C420 C421 1.327 . S
C421 H415 0.950 . S
C421 C420 1.327 . S
C421 C425 1.429 . S
C422 C405 1.574 . S
C422 H416 0.949 . S
C422 C426 1.368 . S
C423 C404 1.429 . S
C423 C417 1.429 . S
C423 C424 1.523 . S
C424 C405 1.368 . S
C424 C418 1.368 . S
C424 C423 1.523 . S
C425 C409 1.429 . S
C425 C421 1.429 . S
C425 C426 1.523 . S
C426 C410 1.368 . S
C426 C422 1.368 . S
C426 C425 1.523 . S
H427 C402 0.950 . S
H428 C404 0.950 . S
H429 C405 0.949 . S
H430 C407 0.950 . S
H431 C409 0.950 . S
C432 C433 1.349 . S
C432 C434 1.327 . S
C432 H457 0.950 . S
C433 C432 1.349 . S
C433 C449 1.349 . S
C434 C432 1.327 . S
C434 C453 1.429 . S
C434 H458 0.950 . S
C435 C452 1.574 . S
C435 C454 1.368 . S
C435 H459 0.949 . S
H436 C440 0.949 . S
C437 C438 1.349 . S
C437 C439 1.327 . S
C437 H460 0.950 . S
C438 C437 1.349 . S
C438 C450 1.349 . S
C439 C437 1.327 . S
C439 C455 1.429 . S
C439 H461 0.950 . S
C440 H436 0.949 . S
C440 C448 1.574 . S
C440 C456 1.368 . S
H441 C449 0.950 . S
H442 C447 0.950 . S
H443 C448 0.949 . S
H444 C450 0.950 1_655 S
H445 C451 0.950 . S
H446 C452 0.949 . S
C447 H442 0.950 . S
C447 C449 1.327 . S
C447 C453 1.429 . S
C448 C440 1.574 . S
C448 H443 0.949 . S
C448 C454 1.368 . S
C449 C433 1.349 . S
C449 H441 0.950 . S
C449 C447 1.327 . S
C450 C438 1.349 . S
C450 H444 0.950 1_455 S
C450 C451 1.327 . S
C451 H445 0.950 . S
C451 C450 1.327 . S
C451 C455 1.429 . S
C452 C435 1.574 . S
C452 H446 0.949 . S
C452 C456 1.368 . S
C453 C434 1.429 . S
C453 C447 1.429 . S
C453 C454 1.523 . S
C454 C435 1.368 . S
C454 C448 1.368 . S
C454 C453 1.523 . S
C455 C439 1.429 . S
C455 C451 1.429 . S
C455 C456 1.523 . S
C456 C440 1.368 . S
C456 C452 1.368 . S
C456 C455 1.523 . S
H457 C432 0.950 . S
H458 C434 0.950 . S
H459 C435 0.949 . S
H460 C437 0.950 . S
H461 C439 0.950 . S
C462 C463 1.349 . S
C462 C464 1.327 . S
C462 H487 0.950 . S
C463 C462 1.349 . S
C463 C479 1.349 . S
C464 C462 1.327 . S
C464 C483 1.429 . S
C464 H488 0.950 . S
C465 C482 1.574 . S
C465 C484 1.368 . S
C465 H489 0.949 . S
H466 C470 0.949 . S
C467 C468 1.349 . S
C467 C469 1.327 . S
C467 H490 0.950 . S
C468 C467 1.349 . S
C468 C480 1.349 . S
C469 C467 1.327 . S
C469 C485 1.429 . S
C469 H491 0.950 . S
C470 H466 0.949 . S
C470 C478 1.574 . S
C470 C486 1.368 . S
H471 C479 0.950 . S
H472 C477 0.950 . S
H473 C478 0.949 . S
H474 C480 0.954 . S
H475 C481 0.950 . S
H476 C482 0.949 . S
C477 H472 0.950 . S
C477 C479 1.327 . S
C477 C483 1.429 . S
C478 C470 1.574 . S
C478 H473 0.949 . S
C478 C484 1.368 . S
C479 C463 1.349 . S
C479 H471 0.950 . S
C479 C477 1.327 . S
C480 C468 1.349 . S
C480 H474 0.954 . S
C480 C481 1.327 . S
C481 H475 0.950 . S
C481 C480 1.327 . S
C481 C485 1.429 . S
C482 C465 1.574 . S
C482 H476 0.949 . S
C482 C486 1.368 . S
C483 C464 1.429 . S
C483 C477 1.429 . S
C483 C484 1.523 . S
C484 C465 1.368 . S
C484 C478 1.368 . S
C484 C483 1.523 . S
C485 C469 1.429 . S
C485 C481 1.429 . S
C485 C486 1.523 . S
C486 C470 1.368 . S
C486 C482 1.368 . S
C486 C485 1.523 . S
H487 C462 0.950 . S
H488 C464 0.950 . S
H489 C465 0.949 . S
H490 C467 0.950 . S
H491 C469 0.950 . S
C492 C493 1.349 . S
C492 C494 1.327 . S
C492 H517 0.950 . S
C493 C492 1.349 . S
C493 C509 1.349 . S
C494 C492 1.327 . S
C494 C513 1.429 . S
C494 H518 0.950 . S
C495 C512 1.574 . S
C495 C514 1.368 . S
C495 H519 0.949 . S
H496 C500 0.949 . S
C497 C498 1.349 . S
C497 C499 1.327 . S
C497 H520 0.950 . S
C498 C497 1.349 . S
C498 C510 1.349 . S
C499 C497 1.327 . S
C499 C515 1.429 . S
C499 H521 0.950 . S
C500 H496 0.949 . S
C500 C508 1.574 . S
C500 C516 1.368 . S
H501 C509 0.950 . S
H502 C507 0.950 . S
H503 C508 0.949 . S
H504 C510 0.950 . S
H505 C511 0.950 . S
H506 C512 0.949 . S
C507 H502 0.950 . S
C507 C509 1.327 . S
C507 C513 1.429 . S
C508 C500 1.574 . S
C508 H503 0.949 . S
C508 C514 1.368 . S
C509 C493 1.349 . S
C509 H501 0.950 . S
C509 C507 1.327 . S
C510 C498 1.349 . S
C510 H504 0.950 . S
C510 C511 1.327 . S
C511 H505 0.950 . S
C511 C510 1.327 . S
C511 C515 1.429 . S
C512 C495 1.574 . S
C512 H506 0.949 . S
C512 C516 1.368 . S
C513 C494 1.429 . S
C513 C507 1.429 . S
C513 C514 1.523 . S
C514 C495 1.368 . S
C514 C508 1.368 . S
C514 C513 1.523 . S
C515 C499 1.429 . S
C515 C511 1.429 . S
C515 C516 1.523 . S
C516 C500 1.368 . S
C516 C512 1.368 . S
C516 C515 1.523 . S
H517 C492 0.950 . S
H518 C494 0.950 . S
H519 C495 0.949 . S
H520 C497 0.950 . S
H521 C499 0.950 . S
C522 C523 1.349 . S
C522 C524 1.327 . S
C522 H547 0.950 . S
C523 C522 1.349 . S
C523 C539 1.349 . S
C524 C522 1.327 . S
C524 C543 1.429 . S
C524 H548 0.950 . S
C525 C542 1.574 . S
C525 C544 1.368 . S
C525 H549 0.949 . S
H526 C530 0.949 . S
C527 C528 1.349 . S
C527 C529 1.327 . S
C527 H550 0.950 . S
C528 C527 1.349 . S
C528 C540 1.349 . S
C529 C527 1.327 . S
C529 C545 1.429 . S
C529 H551 0.950 . S
C530 H526 0.949 . S
C530 C538 1.574 . S
C530 C546 1.368 . S
H531 C539 0.950 . S
H532 C537 0.950 . S
H533 C538 0.949 . S
H534 C540 0.950 . S
H535 C541 0.950 . S
H536 C542 0.949 . S
C537 H532 0.950 . S
C537 C539 1.327 . S
C537 C543 1.429 . S
C538 C530 1.574 . S
C538 H533 0.949 . S
C538 C544 1.368 . S
C539 C523 1.349 . S
C539 H531 0.950 . S
C539 C537 1.327 . S
C540 C528 1.349 . S
C540 H534 0.950 . S
C540 C541 1.327 . S
C541 H535 0.950 . S
C541 C540 1.327 . S
C541 C545 1.429 . S
C542 C525 1.574 . S
C542 H536 0.949 . S
C542 C546 1.368 . S
C543 C524 1.429 . S
C543 C537 1.429 . S
C543 C544 1.523 . S
C544 C525 1.368 . S
C544 C538 1.368 . S
C544 C543 1.523 . S
C545 C529 1.429 . S
C545 C541 1.429 . S
C545 C546 1.523 . S
C546 C530 1.368 . S
C546 C542 1.368 . S
C546 C545 1.523 . S
H547 C522 0.950 . S
H548 C524 0.950 . S
H549 C525 0.949 . S
H550 C527 0.950 . S
H551 C529 0.950 . S
C552 C553 1.349 . S
C552 C554 1.327 . S
C552 H577 0.950 . S
C553 C552 1.349 . S
C553 C569 1.349 . S
C554 C552 1.327 . S
C554 C573 1.429 . S
C554 H578 0.950 . S
C555 C572 1.574 . S
C555 C574 1.368 . S
C555 H579 0.949 . S
H556 C560 0.949 . S
C557 C558 1.349 . S
C557 C559 1.327 . S
C557 H580 0.950 . S
C558 C557 1.349 . S
C558 C570 1.349 . S
C559 C557 1.327 . S
C559 C575 1.429 . S
C559 H581 0.950 . S
C560 H556 0.949 . S
C560 C568 1.574 . S
C560 C576 1.368 . S
H561 C569 0.950 . S
H562 C567 0.950 . S
H563 C568 0.949 . S
H564 C570 0.950 1_545 S
H565 C571 0.967 . S
H566 C572 0.949 . S
C567 H562 0.950 . S
C567 C569 1.327 . S
C567 C573 1.429 . S
C568 C560 1.574 . S
C568 H563 0.949 . S
C568 C574 1.368 . S
C569 C553 1.349 . S
C569 H561 0.950 . S
C569 C567 1.327 . S
C570 C558 1.349 . S
C570 H564 0.950 1_565 S
C570 C571 1.327 . S
C571 H565 0.967 . S
C571 C570 1.327 . S
C571 C575 1.429 . S
C572 C555 1.574 . S
C572 H566 0.949 . S
C572 C576 1.368 . S
C573 C554 1.429 . S
C573 C567 1.429 . S
C573 C574 1.523 . S
C574 C555 1.368 . S
C574 C568 1.368 . S
C574 C573 1.523 . S
C575 C559 1.429 . S
C575 C571 1.429 . S
C575 C576 1.523 . S
C576 C560 1.368 . S
C576 C572 1.368 . S
C576 C575 1.523 . S
H577 C552 0.950 . S
H578 C554 0.950 . S
H579 C555 0.949 . S
H580 C557 0.950 . S
H581 C559 0.950 . S
C582 C583 1.349 . S
C582 C584 1.327 . S
C582 H607 0.950 . S
C583 C582 1.349 . S
C583 C599 1.349 . S
C584 C582 1.327 . S
C584 C603 1.429 . S
C584 H608 0.950 . S
C585 C602 1.574 . S
C585 C604 1.368 . S
C585 H609 0.949 . S
H586 C590 0.949 . S
C587 C588 1.349 . S
C587 C589 1.327 . S
C587 H610 0.950 . S
C588 C587 1.349 . S
C588 C600 1.349 . S
C589 C587 1.327 . S
C589 C605 1.429 . S
C589 H611 0.950 . S
C590 H586 0.949 . S
C590 C598 1.574 . S
C590 C606 1.368 . S
H591 C599 0.950 . S
H592 C597 0.950 . S
H593 C598 0.949 . S
H594 C600 0.950 . S
H595 C601 0.950 . S
H596 C602 0.949 . S
C597 H592 0.950 . S
C597 C599 1.327 . S
C597 C603 1.429 . S
C598 C590 1.574 . S
C598 H593 0.949 . S
C598 C604 1.368 . S
C599 C583 1.349 . S
C599 H591 0.950 . S
C599 C597 1.327 . S
C600 C588 1.349 . S
C600 H594 0.950 . S
C600 C601 1.327 . S
C601 H595 0.950 . S
C601 C600 1.327 . S
C601 C605 1.429 . S
C602 C585 1.574 . S
C602 H596 0.949 . S
C602 C606 1.368 . S
C603 C584 1.429 . S
C603 C597 1.429 . S
C603 C604 1.523 . S
C604 C585 1.368 . S
C604 C598 1.368 . S
C604 C603 1.523 . S
C605 C589 1.429 . S
C605 C601 1.429 . S
C605 C606 1.523 . S
C606 C590 1.368 . S
C606 C602 1.368 . S
C606 C605 1.523 . S
H607 C582 0.950 . S
H608 C584 0.950 . S
H609 C585 0.949 . S
H610 C587 0.950 . S
H611 C589 0.950 . S
C612 C613 1.349 . S
C612 C614 1.327 . S
C612 H637 0.950 . S
C613 C612 1.349 . S
C613 C629 1.349 . S
C614 C612 1.327 . S
C614 C633 1.429 . S
C614 H638 0.950 . S
C615 C632 1.574 . S
C615 C634 1.368 . S
C615 H639 0.949 . S
H616 C620 0.949 . S
C617 C618 1.349 . S
C617 C619 1.327 . S
C617 H640 0.950 . S
C618 C617 1.349 . S
C618 C630 1.349 . S
C619 C617 1.327 . S
C619 C635 1.429 . S
C619 H641 0.950 . S
C620 H616 0.949 . S
C620 C628 1.574 . S
C620 C636 1.368 . S
H621 C629 0.950 . S
H622 C627 0.950 . S
H623 C628 0.949 . S
H624 C630 0.950 . S
H625 C631 0.950 . S
H626 C632 0.949 . S
C627 H622 0.950 . S
C627 C629 1.327 . S
C627 C633 1.429 . S
C628 C620 1.574 . S
C628 H623 0.949 . S
C628 C634 1.368 . S
C629 C613 1.349 . S
C629 H621 0.950 . S
C629 C627 1.327 . S
C630 C618 1.349 . S
C630 H624 0.950 . S
C630 C631 1.327 . S
C631 H625 0.950 . S
C631 C630 1.327 . S
C631 C635 1.429 . S
C632 C615 1.574 . S
C632 H626 0.949 . S
C632 C636 1.368 . S
C633 C614 1.429 . S
C633 C627 1.429 . S
C633 C634 1.523 . S
C634 C615 1.368 . S
C634 C628 1.368 . S
C634 C633 1.523 . S
C635 C619 1.429 . S
C635 C631 1.429 . S
C635 C636 1.523 . S
C636 C620 1.368 . S
C636 C632 1.368 . S
C636 C635 1.523 . S
H637 C612 0.950 . S
H638 C614 0.950 . S
H639 C615 0.949 . S
H640 C617 0.950 . S
H641 C619 0.950 . S
C642 C643 1.349 . S
C642 C644 1.327 . S
C642 H667 0.950 . S
C643 C642 1.349 . S
C643 C659 1.349 . S
C644 C642 1.327 . S
C644 C663 1.429 . S
C644 H668 0.950 . S
C645 C662 1.574 . S
C645 C664 1.368 . S
C645 H669 0.949 . S
H646 C650 0.949 . S
C647 C648 1.349 . S
C647 C649 1.327 . S
C647 H670 0.950 . S
C648 C647 1.349 . S
C648 C660 1.349 . S
C649 C647 1.327 . S
C649 C665 1.429 . S
C649 H671 0.950 . S
C650 H646 0.949 . S
C650 C658 1.574 . S
C650 C666 1.368 . S
H651 C659 0.950 . S
H652 C657 0.950 . S
H653 C658 0.949 . S
H654 C660 0.950 . S
H655 C661 0.950 . S
H656 C662 0.949 . S
C657 H652 0.950 . S
C657 C659 1.327 . S
C657 C663 1.429 . S
C658 C650 1.574 . S
C658 H653 0.949 . S
C658 C664 1.368 . S
C659 C643 1.349 . S
C659 H651 0.950 . S
C659 C657 1.327 . S
C660 C648 1.349 . S
C660 H654 0.950 . S
C660 C661 1.327 . S
C661 H655 0.950 . S
C661 C660 1.327 . S
C661 C665 1.429 . S
C662 C645 1.574 . S
C662 H656 0.949 . S
C662 C666 1.368 . S
C663 C644 1.429 . S
C663 C657 1.429 . S
C663 C664 1.523 . S
C664 C645 1.368 . S
C664 C658 1.368 . S
C664 C663 1.523 . S
C665 C649 1.429 . S
C665 C661 1.429 . S
C665 C666 1.523 . S
C666 C650 1.368 . S
C666 C662 1.368 . S
C666 C665 1.523 . S
H667 C642 0.950 . S
H668 C644 0.950 . S
H669 C645 0.949 . S
H670 C647 0.950 . S
H671 C649 0.950 . S
C672 C673 1.349 . S
C672 C674 1.327 . S
C672 H697 0.950 . S
C673 C672 1.349 . S
C673 C689 1.349 . S
C674 C672 1.327 . S
C674 C693 1.429 . S
C674 H698 0.950 . S
C675 C692 1.574 . S
C675 C694 1.368 . S
C675 H699 0.949 . S
H676 C680 0.949 . S
C677 C678 1.349 . S
C677 C679 1.327 . S
C677 H700 0.950 . S
C678 C677 1.349 . S
C678 C690 1.349 . S
C679 C677 1.327 . S
C679 C695 1.429 . S
C679 H701 0.950 . S
C680 H676 0.949 . S
C680 C688 1.574 . S
C680 C696 1.368 . S
H681 C689 0.950 . S
H682 C687 0.950 . S
H683 C688 0.949 . S
H684 C690 0.950 1_545 S
H685 C691 0.950 . S
H686 C692 0.949 . S
C687 H682 0.950 . S
C687 C689 1.327 . S
C687 C693 1.429 . S
C688 C680 1.574 . S
C688 H683 0.949 . S
C688 C694 1.368 . S
C689 C673 1.349 . S
C689 H681 0.950 . S
C689 C687 1.327 . S
C690 C678 1.349 . S
C690 H684 0.950 1_565 S
C690 C691 1.327 . S
C691 H685 0.950 . S
C691 C690 1.327 . S
C691 C695 1.429 . S
C692 C675 1.574 . S
C692 H686 0.949 . S
C692 C696 1.368 . S
C693 C674 1.429 . S
C693 C687 1.429 . S
C693 C694 1.523 . S
C694 C675 1.368 . S
C694 C688 1.368 . S
C694 C693 1.523 . S
C695 C679 1.429 . S
C695 C691 1.429 . S
C695 C696 1.523 . S
C696 C680 1.368 . S
C696 C692 1.368 . S
C696 C695 1.523 . S
H697 C672 0.950 . S
H698 C674 0.950 . S
H699 C675 0.949 . S
H700 C677 0.950 . S
H701 C679 0.950 . S
C702 C703 1.349 . S
C702 C704 1.327 . S
C702 H727 0.950 . S
C703 C702 1.349 . S
C703 C719 1.349 . S
C704 C702 1.327 . S
C704 C723 1.429 . S
C704 H728 0.950 . S
C705 C722 1.574 . S
C705 C724 1.368 . S
C705 H729 0.949 . S
H706 C710 0.949 . S
C707 C708 1.349 . S
C707 C709 1.327 . S
C707 H730 0.950 . S
C708 C707 1.349 . S
C708 C720 1.349 . S
C709 C707 1.327 . S
C709 C725 1.429 . S
C709 H731 0.950 . S
C710 H706 0.949 . S
C710 C718 1.574 . S
C710 C726 1.368 . S
H711 C719 0.950 . S
H712 C717 0.950 . S
H713 C718 0.949 . S
H714 C720 0.950 . S
H715 C721 0.950 . S
H716 C722 0.949 . S
C717 H712 0.950 . S
C717 C719 1.327 . S
C717 C723 1.429 . S
C718 C710 1.574 . S
C718 H713 0.949 . S
C718 C724 1.368 . S
C719 C703 1.349 . S
C719 H711 0.950 . S
C719 C717 1.327 . S
C720 C708 1.349 . S
C720 H714 0.950 . S
C720 C721 1.327 . S
C721 H715 0.950 . S
C721 C720 1.327 . S
C721 C725 1.429 . S
C722 C705 1.574 . S
C722 H716 0.949 . S
C722 C726 1.368 . S
C723 C704 1.429 . S
C723 C717 1.429 . S
C723 C724 1.523 . S
C724 C705 1.368 . S
C724 C718 1.368 . S
C724 C723 1.523 . S
C725 C709 1.429 . S
C725 C721 1.429 . S
C725 C726 1.523 . S
C726 C710 1.368 . S
C726 C722 1.368 . S
C726 C725 1.523 . S
H727 C702 0.950 . S
H728 C704 0.950 . S
H729 C705 0.949 . S
H730 C707 0.950 . S
H731 C709 0.950 . S
C732 C733 1.349 . S
C732 C734 1.327 . S
C732 H757 0.950 . S
C733 C732 1.349 . S
C733 C749 1.349 . S
C734 C732 1.327 . S
C734 C753 1.429 . S
C734 H758 0.950 . S
C735 C752 1.574 . S
C735 C754 1.368 . S
C735 H759 0.949 . S
H736 C740 0.949 . S
C737 C738 1.349 . S
C737 C739 1.327 . S
C737 H760 0.950 . S
C738 C737 1.349 . S
C738 C750 1.349 . S
C739 C737 1.327 . S
C739 C755 1.429 . S
C739 H761 0.950 . S
C740 H736 0.949 . S
C740 C748 1.574 . S
C740 C756 1.368 . S
H741 C749 0.950 . S
H742 C747 0.950 . S
H743 C748 0.949 . S
H744 C750 0.950 . S
H745 C751 0.950 . S
H746 C752 0.949 . S
C747 H742 0.950 . S
C747 C749 1.327 . S
C747 C753 1.429 . S
C748 C740 1.574 . S
C748 H743 0.949 . S
C748 C754 1.368 . S
C749 C733 1.349 . S
C749 H741 0.950 . S
C749 C747 1.327 . S
C750 C738 1.349 . S
C750 H744 0.950 . S
C750 C751 1.327 . S
C751 H745 0.950 . S
C751 C750 1.327 . S
C751 C755 1.429 . S
C752 C735 1.574 . S
C752 H746 0.949 . S
C752 C756 1.368 . S
C753 C734 1.429 . S
C753 C747 1.429 . S
C753 C754 1.523 . S
C754 C735 1.368 . S
C754 C748 1.368 . S
C754 C753 1.523 . S
C755 C739 1.429 . S
C755 C751 1.429 . S
C755 C756 1.523 . S
C756 C740 1.368 . S
C756 C752 1.368 . S
C756 C755 1.523 . S
H757 C732 0.950 . S
H758 C734 0.950 . S
H759 C735 0.949 . S
H760 C737 0.950 . S
H761 C739 0.950 . S
C762 C763 1.349 . S
C762 C764 1.327 . S
C762 H787 0.950 . S
C763 C762 1.349 . S
C763 C779 1.349 . S
C764 C762 1.327 . S
C764 C783 1.429 . S
C764 H788 0.950 . S
C765 C782 1.574 . S
C765 C784 1.368 . S
C765 H789 0.949 . S
H766 C770 0.949 . S
C767 C768 1.349 . S
C767 C769 1.327 . S
C767 H790 0.950 . S
C768 C767 1.349 . S
C768 C780 1.349 . S
C769 C767 1.327 . S
C769 C785 1.429 . S
C769 H791 0.950 . S
C770 H766 0.949 . S
C770 C778 1.574 . S
C770 C786 1.368 . S
H771 C779 0.950 . S
H772 C777 0.950 . S
H773 C778 0.949 . S
H774 C780 0.950 . S
H775 C781 0.950 . S
H776 C782 0.949 . S
C777 H772 0.950 . S
C777 C779 1.327 . S
C777 C783 1.429 . S
C778 C770 1.574 . S
C778 H773 0.949 . S
C778 C784 1.368 . S
C779 C763 1.349 . S
C779 H771 0.950 . S
C779 C777 1.327 . S
C780 C768 1.349 . S
C780 H774 0.950 . S
C780 C781 1.327 . S
C781 H775 0.950 . S
C781 C780 1.327 . S
C781 C785 1.429 . S
C782 C765 1.574 . S
C782 H776 0.949 . S
C782 C786 1.368 . S
C783 C764 1.429 . S
C783 C777 1.429 . S
C783 C784 1.523 . S
C784 C765 1.368 . S
C784 C778 1.368 . S
C784 C783 1.523 . S
C785 C769 1.429 . S
C785 C781 1.429 . S
C785 C786 1.523 . S
C786 C770 1.368 . S
C786 C782 1.368 . S
C786 C785 1.523 . S
H787 C762 0.950 . S
H788 C764 0.950 . S
H789 C765 0.949 . S
H790 C767 0.950 . S
H791 C769 0.950 . S
C792 C793 1.349 . S
C792 C794 1.327 . S
C792 H817 0.950 . S
C793 C792 1.349 . S
C793 C809 1.349 . S
C794 C792 1.327 . S
C794 C813 1.429 . S
C794 H818 0.950 . S
C795 C812 1.574 . S
C795 C814 1.368 . S
C795 H819 0.949 . S
H796 C800 0.949 . S
C797 C798 1.349 . S
C797 C799 1.327 . S
C797 H820 0.928 1_655 S
C798 C797 1.349 . S
C798 C810 1.349 . S
C799 C797 1.327 . S
C799 C815 1.429 . S
C799 H821 0.950 . S
C800 H796 0.949 . S
C800 C808 1.574 . S
C800 C816 1.368 . S
H801 C809 0.950 . S
H802 C807 0.950 . S
H803 C808 0.949 . S
H804 C810 0.950 1_554 S
H805 C811 0.950 . S
H806 C812 0.949 . S
C807 H802 0.950 . S
C807 C809 1.327 . S
C807 C813 1.429 . S
C808 C800 1.574 . S
C808 H803 0.949 . S
C808 C814 1.368 . S
C809 C793 1.349 . S
C809 H801 0.950 . S
C809 C807 1.327 . S
C810 C798 1.349 . S
C810 H804 0.950 1_556 S
C810 C811 1.327 . S
C811 H805 0.950 . S
C811 C810 1.327 . S
C811 C815 1.429 . S
C812 C795 1.574 . S
C812 H806 0.949 . S
C812 C816 1.368 . S
C813 C794 1.429 . S
C813 C807 1.429 . S
C813 C814 1.523 . S
C814 C795 1.368 . S
C814 C808 1.368 . S
C814 C813 1.523 . S
C815 C799 1.429 . S
C815 C811 1.429 . S
C815 C816 1.523 . S
C816 C800 1.368 . S
C816 C812 1.368 . S
C816 C815 1.523 . S
H817 C792 0.950 . S
H818 C794 0.950 . S
H819 C795 0.949 . S
H820 C797 0.928 1_455 S
H821 C799 0.950 . S
C822 C823 1.349 . S
C822 C824 1.327 . S
C822 H847 0.950 . S
C823 C822 1.349 . S
C823 C839 1.349 . S
C824 C822 1.327 . S
C824 C843 1.429 . S
C824 H848 0.950 . S
C825 C842 1.574 . S
C825 C844 1.368 . S
C825 H849 0.949 . S
H826 C830 0.949 . S
C827 C828 1.349 . S
C827 C829 1.327 . S
C827 H850 0.947 1_554 S
C828 C827 1.349 . S
C828 C840 1.349 . S
C829 C827 1.327 . S
C829 C845 1.429 . S
C829 H851 0.950 . S
C830 H826 0.949 . S
C830 C838 1.574 . S
C830 C846 1.368 . S
H831 C839 0.950 . S
H832 C837 0.950 . S
H833 C838 0.949 . S
H834 C840 0.950 . S
H835 C841 0.950 . S
H836 C842 0.949 . S
C837 H832 0.950 . S
C837 C839 1.327 . S
C837 C843 1.429 . S
C838 C830 1.574 . S
C838 H833 0.949 . S
C838 C844 1.368 . S
C839 C823 1.349 . S
C839 H831 0.950 . S
C839 C837 1.327 . S
C840 C828 1.349 . S
C840 H834 0.950 . S
C840 C841 1.327 . S
C841 H835 0.950 . S
C841 C840 1.327 . S
C841 C845 1.429 . S
C842 C825 1.574 . S
C842 H836 0.949 . S
C842 C846 1.368 . S
C843 C824 1.429 . S
C843 C837 1.429 . S
C843 C844 1.523 . S
C844 C825 1.368 . S
C844 C838 1.368 . S
C844 C843 1.523 . S
C845 C829 1.429 . S
C845 C841 1.429 . S
C845 C846 1.523 . S
C846 C830 1.368 . S
C846 C842 1.368 . S
C846 C845 1.523 . S
H847 C822 0.950 . S
H848 C824 0.950 . S
H849 C825 0.949 . S
H850 C827 0.947 1_556 S
H851 C829 0.950 . S
C852 C853 1.349 . S
C852 C854 1.327 . S
C852 H877 0.950 . S
C853 C852 1.349 . S
C853 C869 1.349 . S
C854 C852 1.327 . S
C854 C873 1.429 . S
C854 H878 0.950 . S
C855 C872 1.574 . S
C855 C874 1.368 . S
C855 H879 0.949 . S
H856 C860 0.949 . S
C857 C858 1.349 . S
C857 C859 1.327 . S
C857 H880 0.950 1_455 S
C858 C857 1.349 . S
C858 C870 1.349 . S
C859 C857 1.327 . S
C859 C875 1.429 . S
C859 H881 0.950 . S
C860 H856 0.949 . S
C860 C868 1.574 . S
C860 C876 1.368 . S
H861 C869 0.950 . S
H862 C867 0.950 . S
H863 C868 0.949 . S
H864 C870 0.950 . S
H865 C871 0.950 . S
H866 C872 0.949 . S
C867 H862 0.950 . S
C867 C869 1.327 . S
C867 C873 1.429 . S
C868 C860 1.574 . S
C868 H863 0.949 . S
C868 C874 1.368 . S
C869 C853 1.349 . S
C869 H861 0.950 . S
C869 C867 1.327 . S
C870 C858 1.349 . S
C870 H864 0.950 . S
C870 C871 1.327 . S
C871 H865 0.950 . S
C871 C870 1.327 . S
C871 C875 1.429 . S
C872 C855 1.574 . S
C872 H866 0.949 . S
C872 C876 1.368 . S
C873 C854 1.429 . S
C873 C867 1.429 . S
C873 C874 1.523 . S
C874 C855 1.368 . S
C874 C868 1.368 . S
C874 C873 1.523 . S
C875 C859 1.429 . S
C875 C871 1.429 . S
C875 C876 1.523 . S
C876 C860 1.368 . S
C876 C872 1.368 . S
C876 C875 1.523 . S
H877 C852 0.950 . S
H878 C854 0.950 . S
H879 C855 0.949 . S
H880 C857 0.950 1_655 S
H881 C859 0.950 . S
C882 C883 1.349 . S
C882 C884 1.327 . S
C882 H907 0.950 . S
C883 C882 1.349 . S
C883 C899 1.349 . S
C884 C882 1.327 . S
C884 C903 1.429 . S
C884 H908 0.950 . S
C885 C902 1.574 . S
C885 C904 1.368 . S
C885 H909 0.949 . S
H886 C890 0.949 . S
C887 C888 1.349 . S
C887 C889 1.327 . S
C887 H910 0.950 . S
C888 C887 1.349 . S
C888 C900 1.349 . S
C889 C887 1.327 . S
C889 C905 1.429 . S
C889 H911 0.950 . S
C890 H886 0.949 . S
C890 C898 1.574 . S
C890 C906 1.368 . S
H891 C899 0.950 . S
H892 C897 0.950 . S
H893 C898 0.949 . S
H894 C900 0.950 . S
H895 C901 0.950 . S
H896 C902 0.949 . S
C897 H892 0.950 . S
C897 C899 1.327 . S
C897 C903 1.429 . S
C898 C890 1.574 . S
C898 H893 0.949 . S
C898 C904 1.368 . S
C899 C883 1.349 . S
C899 H891 0.950 . S
C899 C897 1.327 . S
C900 C888 1.349 . S
C900 H894 0.950 . S
C900 C901 1.327 . S
C901 H895 0.950 . S
C901 C900 1.327 . S
C901 C905 1.429 . S
C902 C885 1.574 . S
C902 H896 0.949 . S
C902 C906 1.368 . S
C903 C884 1.429 . S
C903 C897 1.429 . S
C903 C904 1.523 . S
C904 C885 1.368 . S
C904 C898 1.368 . S
C904 C903 1.523 . S
C905 C889 1.429 . S
C905 C901 1.429 . S
C905 C906 1.523 . S
C906 C890 1.368 . S
C906 C902 1.368 . S
C906 C905 1.523 . S
H907 C882 0.950 . S
H908 C884 0.950 . S
H909 C885 0.949 . S
H910 C887 0.950 . S
H911 C889 0.950 . S
C193 C5 2.120 . S
C198 C88 2.131 . S
C223 C14 1.067 . S
C228 N108 1.043 . S
C258 C142 1.941 . S
C253 C25 1.937 . S
C283 C34 1.218 . S
C288 N176 1.176 . S
C318 C129 2.285 . S
C313 C7 2.274 . S
C348 N86 1.111 . S
C343 C13 1.142 . S
C378 C163 1.951 . S
C373 C23 1.946 . S
C408 N138 0.945 . S
C403 C31 0.954 . S
C433 C4 1.781 . S
C438 C178 1.790 . S
C468 C112 1.660 . S
C463 C22 1.652 . S
C493 C32 1.378 . S
C498 C73 1.389 . S
C523 C16 1.378 . S
C528 C159 1.385 . S
C558 C99 2.114 . S
C553 C41 2.102 . S
C583 C50 1.075 . S
C588 N116 1.050 . S
C613 C61 1.928 . S
C618 C133 1.935 . S
C643 C67 1.229 . S
C648 N168 1.188 . S
C673 C40 2.294 . S
C678 C118 2.304 . S
C708 N78 1.091 . S
C703 C52 1.120 . S
C738 C172 1.955 . S
C733 C59 1.945 . S
C768 N146 0.941 . S
C763 C70 0.950 . S
C793 C43 1.777 . S
C798 C189 1.788 . S
C828 C103 1.668 . S
C823 C58 1.658 . S
C858 C82 1.375 . S
C853 C68 1.363 . S
C883 C49 1.389 . S
C888 C148 1.396 . S
