# Generated by pormake.
# Topology wbl, (4,4)-cn, num edge types: 1
# Building blocks:
#     Node 0, Type 0, BuildingBlock: MUDLON_clean_linker_0, # of connection points: 4
#     Node 1, Type 0, BuildingBlock: MUDLON_clean_linker_0, # of connection points: 4
#     Node 2, Type 0, BuildingBlock: MUDLON_clean_linker_0, # of connection points: 4
#     Node 3, Type 0, BuildingBlock: MUDLON_clean_linker_0, # of connection points: 4
#     Node 4, Type 0, BuildingBlock: MUDLON_clean_linker_0, # of connection points: 4
#     Node 5, Type 0, BuildingBlock: MUDLON_clean_linker_0, # of connection points: 4
#     Node 6, Type 0, BuildingBlock: MUDLON_clean_linker_0, # of connection points: 4
#     Node 7, Type 0, BuildingBlock: MUDLON_clean_linker_0, # of connection points: 4
#     Node 8, Type 1, BuildingBlock: QUQFOY_clean_sbu_1, # of connection points: 4
#     Node 9, Type 1, BuildingBlock: QUQFOY_clean_sbu_1, # of connection points: 4
#     Node 10, Type 1, BuildingBlock: QUQFOY_clean_sbu_1, # of connection points: 4
#     Node 11, Type 1, BuildingBlock: QUQFOY_clean_sbu_1, # of connection points: 4
#     Node 12, Type 1, BuildingBlock: QUQFOY_clean_sbu_1, # of connection points: 4
#     Node 13, Type 1, BuildingBlock: QUQFOY_clean_sbu_1, # of connection points: 4
#     Node 14, Type 1, BuildingBlock: QUQFOY_clean_sbu_1, # of connection points: 4
#     Node 15, Type 1, BuildingBlock: QUQFOY_clean_sbu_1, # of connection points: 4
#     Edge 16, Type (0, 1), BuildingBlock: OJICUG_clean_linker_0, # of connection points: 2
#     Edge 17, Type (0, 1), BuildingBlock: OJICUG_clean_linker_0, # of connection points: 2
#     Edge 18, Type (0, 1), BuildingBlock: OJICUG_clean_linker_0, # of connection points: 2
#     Edge 19, Type (0, 1), BuildingBlock: OJICUG_clean_linker_0, # of connection points: 2
#     Edge 20, Type (0, 1), BuildingBlock: OJICUG_clean_linker_0, # of connection points: 2
#     Edge 21, Type (0, 1), BuildingBlock: OJICUG_clean_linker_0, # of connection points: 2
#     Edge 22, Type (0, 1), BuildingBlock: OJICUG_clean_linker_0, # of connection points: 2
#     Edge 23, Type (0, 1), BuildingBlock: OJICUG_clean_linker_0, # of connection points: 2
#     Edge 24, Type (0, 1), BuildingBlock: OJICUG_clean_linker_0, # of connection points: 2
#     Edge 25, Type (0, 1), BuildingBlock: OJICUG_clean_linker_0, # of connection points: 2
#     Edge 26, Type (0, 1), BuildingBlock: OJICUG_clean_linker_0, # of connection points: 2
#     Edge 27, Type (0, 1), BuildingBlock: OJICUG_clean_linker_0, # of connection points: 2
#     Edge 28, Type (0, 1), BuildingBlock: OJICUG_clean_linker_0, # of connection points: 2
#     Edge 29, Type (0, 1), BuildingBlock: OJICUG_clean_linker_0, # of connection points: 2
#     Edge 30, Type (0, 1), BuildingBlock: OJICUG_clean_linker_0, # of connection points: 2
#     Edge 31, Type (0, 1), BuildingBlock: OJICUG_clean_linker_0, # of connection points: 2
#     Edge 32, Type (0, 1), BuildingBlock: OJICUG_clean_linker_0, # of connection points: 2
#     Edge 33, Type (0, 1), BuildingBlock: OJICUG_clean_linker_0, # of connection points: 2
#     Edge 34, Type (0, 1), BuildingBlock: OJICUG_clean_linker_0, # of connection points: 2
#     Edge 35, Type (0, 1), BuildingBlock: OJICUG_clean_linker_0, # of connection points: 2
#     Edge 36, Type (0, 1), BuildingBlock: OJICUG_clean_linker_0, # of connection points: 2
#     Edge 37, Type (0, 1), BuildingBlock: OJICUG_clean_linker_0, # of connection points: 2
#     Edge 38, Type (0, 1), BuildingBlock: OJICUG_clean_linker_0, # of connection points: 2
#     Edge 39, Type (0, 1), BuildingBlock: OJICUG_clean_linker_0, # of connection points: 2
#     Edge 40, Type (0, 1), BuildingBlock: OJICUG_clean_linker_0, # of connection points: 2
#     Edge 41, Type (0, 1), BuildingBlock: OJICUG_clean_linker_0, # of connection points: 2
#     Edge 42, Type (0, 1), BuildingBlock: OJICUG_clean_linker_0, # of connection points: 2
#     Edge 43, Type (0, 1), BuildingBlock: OJICUG_clean_linker_0, # of connection points: 2
#     Edge 44, Type (0, 1), BuildingBlock: OJICUG_clean_linker_0, # of connection points: 2
#     Edge 45, Type (0, 1), BuildingBlock: OJICUG_clean_linker_0, # of connection points: 2
#     Edge 46, Type (0, 1), BuildingBlock: OJICUG_clean_linker_0, # of connection points: 2
#     Edge 47, Type (0, 1), BuildingBlock: OJICUG_clean_linker_0, # of connection points: 2
# Relax obj value: 0.139
# Max RMSD: 0.212
# Mean RMSD: 0.165
data_MOF--net-wbl--node1-QUQFOY_clean_sbu_1--node2-MUDLON_clean_linker_0--edge1-OJICUG_clean_linker_0
_symmetry_space_group_name_H-M    P1
_symmetry_Int_Tables_number       1
_symmetry_cell_setting            triclinic
loop_
_symmetry_equiv_pos_as_xyz
'x, y, z'
_cell_length_a     43.158117
_cell_length_b     43.191566
_cell_length_c     63.108869
_cell_angle_alpha  93.605254
_cell_angle_beta   93.613683
_cell_angle_gamma 90.230031
loop_
_atom_site_label
_atom_site_type_symbol
_atom_site_fract_x
_atom_site_fract_y
_atom_site_fract_z
_atom_type_partial_charge
H0 H 0.22304 0.00505 0.35261 0.0
N1 N 0.17203 0.99529 0.32464 0.0
H2 H 0.22873 0.98957 0.38906 0.0
H3 H 0.12996 0.96743 0.34611 0.0
H4 H 0.1354 0.95231 0.38306 0.0
H5 H 0.16856 0.9432 0.30023 0.0
H6 H 0.21106 0.91692 0.28289 0.0
H7 H 0.22783 0.02224 0.31788 0.0
H8 H 0.27126 0.99541 0.30187 0.0
H9 H 0.19096 0.05165 0.34364 0.0
H10 H 0.12305 0.00656 0.29896 0.0
H11 H 0.15923 0.09827 0.34527 0.0
H12 H 0.09197 0.05372 0.29943 0.0
H13 H 0.02253 0.22662 0.36918 0.0
H14 H 0.0041 0.23179 0.40488 0.0
H15 H 0.02599 0.1355 0.41317 0.0
H16 H 0.04203 0.12995 0.37712 0.0
H17 H 0.98514 0.1378 0.35241 0.0
H18 H 0.93413 0.14128 0.33473 0.0
H19 H 0.96535 0.21933 0.3016 0.0
H20 H 0.01769 0.2131 0.31778 0.0
H21 H 0.09597 0.18214 0.34128 0.0
H22 H 0.13349 0.14245 0.33049 0.0
H23 H 0.06047 0.0732 0.32662 0.0
N24 N 0.03588 0.17439 0.34729 0.0
H25 H 0.02382 0.1121 0.33673 0.0
C26 C 0.17612 0.98684 0.3464 0.0
C27 C 0.20385 0.99327 0.35889 0.0
C28 C 0.2071 0.98449 0.37982 0.0
C29 C 0.18257 0.96962 0.38881 0.0
C30 C 0.15462 0.96387 0.37652 0.0
C31 C 0.15153 0.9723 0.35546 0.0
C32 C 0.19528 0.98419 0.31074 0.0
C33 C 0.19068 0.95506 0.29999 0.0
C34 C 0.2151 0.94001 0.2903 0.0
C35 C 0.24489 0.9536 0.29156 0.0
C36 C 0.2487 0.98415 0.30062 0.0
C37 C 0.22395 0.99946 0.30998 0.0
C38 C 0.15882 0.02533 0.32157 0.0
C39 C 0.1697 0.05211 0.33365 0.0
C40 C 0.15156 0.07891 0.33445 0.0
C41 C 0.12257 0.07947 0.32293 0.0
C42 C 0.11367 0.05376 0.30904 0.0
C43 C 0.13153 0.02691 0.30852 0.0
C44 C 0.03334 0.17797 0.3701 0.0
C45 C 0.02399 0.20682 0.37891 0.0
C46 C 0.01351 0.20973 0.39943 0.0
C47 C 0.01279 0.18386 0.41188 0.0
C48 C 0.0251 0.15569 0.40382 0.0
C49 C 0.03481 0.15259 0.3831 0.0
C50 C 0.00573 0.17461 0.33589 0.0
C51 C 0.98145 0.15487 0.3407 0.0
C52 C 0.95181 0.15749 0.33092 0.0
C53 C 0.9451 0.18088 0.3168 0.0
C54 C 0.96948 0.2006 0.31201 0.0
C55 C 0.99949 0.19724 0.32131 0.0
C56 C 0.05687 0.15061 0.33976 0.0
C57 C 0.08811 0.15842 0.33779 0.0
C58 C 0.1095 0.13571 0.3317 0.0
C59 C 0.09998 0.10463 0.32745 0.0
C60 C 0.06859 0.09698 0.32915 0.0
C61 C 0.04735 0.11954 0.33516 0.0
H62 H 0.0074 0.47352 0.62924 0.0
N63 N 0.97318 0.49018 0.5956 0.0
H64 H 0.99143 0.46997 0.66552 0.0
H65 H 0.91643 0.50593 0.60969 0.0
H66 H 0.90009 0.5025 0.64601 0.0
H67 H 0.91695 0.4886 0.57324 0.0
H68 H 0.89454 0.44391 0.55165 0.0
H69 H 0.0022 0.43879 0.58365 0.0
H70 H 0.9802 0.39401 0.56216 0.0
H71 H 0.03177 0.50571 0.59184 0.0
H72 H 0.93836 0.53967 0.58428 0.0
H73 H 0.05216 0.55666 0.58499 0.0
H74 H 0.95834 0.59078 0.57679 0.0
H75 H 0.06701 0.74127 0.62181 0.0
H76 H 0.0963 0.74331 0.65649 0.0
H77 H 0.13351 0.65258 0.64119 0.0
H78 H 0.10484 0.65092 0.60646 0.0
H79 H 0.046 0.74428 0.57059 0.0
H80 H 0.07523 0.77709 0.54883 0.0
H81 H 0.1536 0.7154 0.55463 0.0
H82 H 0.12442 0.68346 0.57714 0.0
H83 H 0.08446 0.64641 0.56542 0.0
H84 H 0.05824 0.59622 0.56061 0.0
H85 H 0.98469 0.63177 0.59851 0.0
N86 N 0.06662 0.69626 0.59117 0.0
H87 H 0.01066 0.68226 0.60265 0.0
C88 C 0.96315 0.48977 0.61686 0.0
C89 C 0.98404 0.4801 0.6329 0.0
C90 C 0.9749 0.4783 0.6536 0.0
C91 C 0.9445 0.48611 0.65866 0.0
C92 C 0.92359 0.49617 0.64256 0.0
C93 C 0.9329 0.49817 0.62181 0.0
C94 C 0.96112 0.46667 0.58019 0.0
C95 C 0.931 0.46824 0.57057 0.0
C96 C 0.91826 0.4427 0.55824 0.0
C97 C 0.93554 0.41537 0.55528 0.0
C98 C 0.96638 0.4148 0.56387 0.0
C99 C 0.97896 0.44022 0.57625 0.0
C100 C 0.98375 0.5191 0.58862 0.0
C101 C 0.01571 0.52411 0.58815 0.0
C102 C 0.02723 0.55319 0.58408 0.0
C103 C 0.00688 0.5779 0.58035 0.0
C104 C 0.97464 0.57234 0.57983 0.0
C105 C 0.96315 0.54313 0.58398 0.0
C106 C 0.08343 0.69598 0.61164 0.0
C107 C 0.0814 0.72182 0.62602 0.0
C108 C 0.09814 0.72296 0.64571 0.0
C109 C 0.11701 0.69803 0.65145 0.0
C110 C 0.11882 0.67192 0.63719 0.0
C111 C 0.10245 0.671 0.61733 0.0
C112 C 0.08283 0.71148 0.57541 0.0
C113 C 0.06922 0.73752 0.56673 0.0
C114 C 0.08602 0.75616 0.55421 0.0
C115 C 0.11692 0.74898 0.54994 0.0
C116 C 0.13005 0.72188 0.5578 0.0
C117 C 0.11323 0.70335 0.5705 0.0
C118 C 0.0495 0.66822 0.58453 0.0
C119 C 0.06231 0.6438 0.5722 0.0
C120 C 0.04736 0.61492 0.56959 0.0
C121 C 0.01954 0.60981 0.5794 0.0
C122 C 0.00587 0.63488 0.59053 0.0
C123 C 0.02072 0.66375 0.593 0.0
H124 H 0.66473 0.46287 0.86245 0.0
N125 N 0.61702 0.43645 0.83647 0.0
H126 H 0.67444 0.45687 0.90033 0.0
H127 H 0.58668 0.39987 0.86077 0.0
H128 H 0.59695 0.39316 0.89903 0.0
H129 H 0.62895 0.38215 0.81678 0.0
H130 H 0.67473 0.36784 0.79743 0.0
H131 H 0.66238 0.47661 0.82531 0.0
H132 H 0.70825 0.46244 0.80689 0.0
H133 H 0.62907 0.4979 0.84886 0.0
H134 H 0.56125 0.43545 0.81601 0.0
H135 H 0.59384 0.54093 0.84467 0.0
H136 H 0.52529 0.47897 0.812 0.0
H137 H 0.50467 0.66052 0.86308 0.0
H138 H 0.49191 0.67727 0.89946 0.0
H139 H 0.42072 0.60649 0.8968 0.0
H140 H 0.43235 0.59093 0.86028 0.0
H141 H 0.4286 0.57926 0.81906 0.0
H142 H 0.3811 0.59632 0.80078 0.0
H143 H 0.41631 0.69058 0.80595 0.0
H144 H 0.46445 0.67287 0.82325 0.0
H145 H 0.53136 0.617 0.82142 0.0
H146 H 0.56658 0.57288 0.81726 0.0
H147 H 0.49669 0.51243 0.83869 0.0
N148 N 0.47586 0.61739 0.8371 0.0
H149 H 0.46199 0.55618 0.84291 0.0
C150 C 0.62461 0.43202 0.8587 0.0
C151 C 0.6496 0.44773 0.87014 0.0
C152 C 0.65517 0.44431 0.89188 0.0
C153 C 0.63625 0.42479 0.90262 0.0
C154 C 0.61186 0.40835 0.89111 0.0
C155 C 0.60598 0.41218 0.86935 0.0
C156 C 0.64208 0.43029 0.8227 0.0
C157 C 0.6459 0.39988 0.81422 0.0
C158 C 0.67218 0.39173 0.80331 0.0
C159 C 0.69541 0.4139 0.80077 0.0
C160 C 0.69075 0.44478 0.8083 0.0
C161 C 0.66439 0.45292 0.8191 0.0
C162 C 0.59799 0.46316 0.83252 0.0
C163 C 0.60691 0.49336 0.84032 0.0
C164 C 0.58665 0.51817 0.8379 0.0
C165 C 0.55685 0.51335 0.82795 0.0
C166 C 0.54812 0.48333 0.81979 0.0
C167 C 0.56861 0.45854 0.82198 0.0
C168 C 0.47007 0.62408 0.85914 0.0
C169 C 0.48665 0.64838 0.8705 0.0
C170 C 0.47927 0.65798 0.89112 0.0
C171 C 0.45551 0.64296 0.9008 0.0
C172 C 0.43942 0.61808 0.88968 0.0
C173 C 0.44631 0.60897 0.86889 0.0
C174 C 0.45034 0.62487 0.82254 0.0
C175 C 0.42664 0.6034 0.81574 0.0
C176 C 0.39914 0.61333 0.80547 0.0
C177 C 0.3945 0.64496 0.80215 0.0
C178 C 0.419 0.666 0.80793 0.0
C179 C 0.4466 0.65596 0.81788 0.0
C180 C 0.494 0.59014 0.83237 0.0
C181 C 0.5235 0.5941 0.82482 0.0
C182 C 0.54358 0.56896 0.82256 0.0
C183 C 0.53436 0.53923 0.82767 0.0
C184 C 0.50429 0.53498 0.83436 0.0
C185 C 0.48436 0.56019 0.83684 0.0
H186 H 0.53676 0.92569 0.13282 0.0
N187 N 0.50174 0.96551 0.10884 0.0
H188 H 0.53072 0.91537 0.16948 0.0
H189 H 0.46568 0.99546 0.13591 0.0
H190 H 0.45965 0.9853 0.17331 0.0
H191 H 0.44577 0.95226 0.09079 0.0
H192 H 0.42826 0.90396 0.07159 0.0
H193 H 0.53889 0.917 0.09678 0.0
H194 H 0.52131 0.86752 0.07971 0.0
H195 H 0.5649 0.96312 0.1184 0.0
H196 H 0.49361 0.00996 0.08198 0.0
H197 H 0.60402 0.99671 0.10602 0.0
H198 H 0.53314 0.04304 0.06849 0.0
H199 H 0.72888 0.10658 0.09248 0.0
H200 H 0.74952 0.11926 0.12922 0.0
H201 H 0.65665 0.13846 0.14785 0.0
H202 H 0.63636 0.12663 0.11142 0.0
H203 H 0.63905 0.16368 0.08297 0.0
H204 H 0.64864 0.21103 0.06537 0.0
H205 H 0.71417 0.16261 0.02667 0.0
H206 H 0.70361 0.1146 0.04392 0.0
H207 H 0.67367 0.04741 0.07334 0.0
H208 H 0.63213 0.00993 0.07708 0.0
H209 H 0.56626 0.08497 0.0804 0.0
N210 N 0.67005 0.10862 0.07723 0.0
H211 H 0.60731 0.12169 0.07547 0.0
C212 C 0.50172 0.96166 0.13143 0.0
C213 C 0.52031 0.93943 0.14142 0.0
C214 C 0.51689 0.93354 0.16262 0.0
C215 C 0.49472 0.94953 0.1744 0.0
C216 C 0.47678 0.97242 0.16463 0.0
C217 C 0.48035 0.97842 0.14336 0.0
C218 C 0.49332 0.938 0.09563 0.0
C219 C 0.46237 0.93394 0.088 0.0
C220 C 0.45239 0.90606 0.07732 0.0
C221 C 0.47309 0.88119 0.07452 0.0
C222 C 0.50455 0.88593 0.0814 0.0
C223 C 0.51466 0.91421 0.09153 0.0
C224 C 0.52599 0.9844 0.10147 0.0
C225 C 0.55752 0.98049 0.10765 0.0
C226 C 0.58012 0.99959 0.10023 0.0
C227 C 0.57188 0.02269 0.08618 0.0
C228 C 0.54038 0.02589 0.07954 0.0
C229 C 0.51775 0.00697 0.08717 0.0
C230 C 0.68115 0.11525 0.09912 0.0
C231 C 0.71305 0.11337 0.10456 0.0
C232 C 0.72474 0.12061 0.12545 0.0
C233 C 0.70458 0.12951 0.14134 0.0
C234 C 0.67261 0.13112 0.13597 0.0
C235 C 0.661 0.12439 0.11504 0.0
C236 C 0.67024 0.1352 0.06448 0.0
C237 C 0.65434 0.16264 0.07003 0.0
C238 C 0.65998 0.18989 0.06001 0.0
C239 C 0.68212 0.19046 0.04465 0.0
C240 C 0.69694 0.16276 0.03843 0.0
C241 C 0.69083 0.13536 0.04817 0.0
C242 C 0.64396 0.08741 0.07435 0.0
C243 C 0.65005 0.05556 0.07416 0.0
C244 C 0.62633 0.03426 0.07664 0.0
C245 C 0.5959 0.04444 0.07963 0.0
C246 C 0.58934 0.07616 0.07812 0.0
C247 C 0.61305 0.0974 0.07536 0.0
H248 H 0.15516 0.64121 0.93488 0.0
N249 N 0.1105 0.67318 0.95589 0.0
H250 H 0.16682 0.64489 0.89781 0.0
H251 H 0.08069 0.70652 0.92695 0.0
H252 H 0.09281 0.71091 0.88969 0.0
H253 H 0.14176 0.72639 0.96043 0.0
H254 H 0.19248 0.73655 0.9783 0.0
H255 H 0.14227 0.63422 0.98331 0.0
H256 H 0.19161 0.64504 0.00255 0.0
H257 H 0.11736 0.61035 0.94774 0.0
H258 H 0.05774 0.67968 0.97537 0.0
H259 H 0.08143 0.5698 0.95542 0.0
H260 H 0.02139 0.63868 0.98338 0.0
H261 H 0.99544 0.45637 0.94399 0.0
H262 H 0.98106 0.44011 0.90665 0.0
H263 H 0.90484 0.50449 0.9068 0.0
H264 H 0.91851 0.51974 0.94423 0.0
H265 H 0.92124 0.53445 0.98561 0.0
H266 H 0.87639 0.51651 0.00298 0.0
H267 H 0.9124 0.42314 -0.00066 0.0
H268 H 0.95794 0.44176 0.98299 0.0
H269 H 0.02471 0.5001 0.98516 0.0
H270 H 0.06061 0.54427 0.98572 0.0
H271 H 0.98582 0.60114 0.96179 0.0
N272 N 0.96666 0.49717 0.96892 0.0
H273 H 0.95029 0.55729 0.96139 0.0
C274 C 0.1166 0.67326 0.93362 0.0
C275 C 0.14085 0.65585 0.92504 0.0
C276 C 0.14761 0.65809 0.90384 0.0
C277 C 0.13064 0.67811 0.89085 0.0
C278 C 0.10631 0.69537 0.89938 0.0
C279 C 0.09926 0.69278 0.92055 0.0
C280 C 0.13801 0.67948 0.96996 0.0
C281 C 0.1524 0.70862 0.96978 0.0
C282 C 0.18146 0.71446 0.98026 0.0
C283 C 0.19668 0.69151 0.99185 0.0
C284 C 0.18124 0.66301 0.99329 0.0
C285 C 0.15251 0.65687 0.98229 0.0
C286 C 0.0902 0.64832 0.96089 0.0
C287 C 0.09657 0.61697 0.95548 0.0
C288 C 0.07611 0.59363 0.96016 0.0
C289 C 0.04867 0.60101 0.97016 0.0
C290 C 0.04234 0.6323 0.97564 0.0
C291 C 0.06303 0.65568 0.97112 0.0
C292 C 0.95841 0.48946 0.94677 0.0
C293 C 0.97578 0.46704 0.93588 0.0
C294 C 0.96753 0.45779 0.91469 0.0
C295 C 0.94198 0.47124 0.90397 0.0
C296 C 0.92486 0.49413 0.91472 0.0
C297 C 0.93277 0.50293 0.93606 0.0
C298 C 0.94317 0.48937 0.98298 0.0
C299 C 0.92005 0.51034 0.98907 0.0
C300 C 0.89406 0.49988 0.99882 0.0
C301 C 0.89034 0.4682 0.00229 0.0
C302 C 0.91442 0.44772 0.99723 0.0
C303 C 0.94054 0.45829 0.98782 0.0
C304 C 0.98483 0.52517 0.97333 0.0
C305 C 0.01593 0.52237 0.98066 0.0
C306 C 0.03642 0.54751 0.98076 0.0
C307 C 0.02608 0.57606 0.97355 0.0
C308 C 0.99443 0.5795 0.96758 0.0
C309 C 0.974 0.55427 0.96736 0.0
H310 H 0.61614 0.40503 0.19222 0.0
N311 N 0.63119 0.45825 0.21691 0.0
H312 H 0.62886 0.39345 0.15555 0.0
H313 H 0.65809 0.49575 0.19157 0.0
H314 H 0.67071 0.48426 0.15449 0.0
H315 H 0.68702 0.46271 0.23674 0.0
H316 H 0.71572 0.42162 0.25408 0.0
H317 H 0.60543 0.40427 0.22923 0.0
H318 H 0.63418 0.36263 0.24543 0.0
H319 H 0.57338 0.43249 0.20697 0.0
H320 H 0.62173 0.51416 0.23471 0.0
H321 H 0.52413 0.45952 0.20858 0.0
H322 H 0.57269 0.542 0.23553 0.0
H323 H 0.38838 0.58578 0.18101 0.0
H324 H 0.38093 0.59916 0.14382 0.0
H325 H 0.4801 0.61229 0.14198 0.0
H326 H 0.48731 0.59743 0.17832 0.0
H327 H 0.48928 0.62772 0.20936 0.0
H328 H 0.48777 0.67957 0.22635 0.0
H329 H 0.39614 0.66057 0.24674 0.0
H330 H 0.39714 0.60904 0.22825 0.0
H331 H 0.45658 0.53235 0.1821 0.0
H332 H 0.50006 0.49836 0.18883 0.0
H333 H 0.52254 0.54916 0.24902 0.0
N334 N 0.44164 0.58499 0.20499 0.0
H335 H 0.47973 0.5839 0.24207 0.0
C336 C 0.63662 0.45126 0.19481 0.0
C337 C 0.62799 0.42257 0.18424 0.0
C338 C 0.63528 0.41591 0.16322 0.0
C339 C 0.65093 0.43788 0.15225 0.0
C340 C 0.65848 0.46697 0.16255 0.0
C341 C 0.65146 0.4735 0.18369 0.0
C342 C 0.64434 0.43652 0.23134 0.0
C343 C 0.67512 0.44126 0.23928 0.0
C344 C 0.69153 0.41762 0.24897 0.0
C345 C 0.67752 0.38849 0.25065 0.0
C346 C 0.64576 0.38473 0.24443 0.0
C347 C 0.62925 0.40859 0.23496 0.0
C348 C 0.60135 0.47135 0.22088 0.0
C349 C 0.57341 0.45601 0.21389 0.0
C350 C 0.54518 0.4717 0.21456 0.0
C351 C 0.54438 0.50312 0.22193 0.0
C352 C 0.57225 0.51776 0.22998 0.0
C353 C 0.60037 0.50195 0.22948 0.0
C354 C 0.43824 0.59068 0.18256 0.0
C355 C 0.40844 0.59111 0.17238 0.0
C356 C 0.40425 0.599 0.15121 0.0
C357 C 0.4299 0.60685 0.13984 0.0
C358 C 0.4598 0.60589 0.15001 0.0
C359 C 0.46396 0.59781 0.17103 0.0
C360 C 0.443 0.61451 0.21725 0.0
C361 C 0.46873 0.63469 0.21731 0.0
C362 C 0.46802 0.66434 0.22739 0.0
C363 C 0.44176 0.6745 0.2379 0.0
C364 C 0.41652 0.65384 0.23846 0.0
C365 C 0.41712 0.62425 0.22812 0.0
C366 C 0.46616 0.56303 0.21041 0.0
C367 C 0.47109 0.53678 0.19662 0.0
C368 C 0.49576 0.51678 0.2007 0.0
C369 C 0.51549 0.52155 0.2192 0.0
C370 C 0.50861 0.5456 0.23417 0.0
C371 C 0.48404 0.56579 0.23001 0.0
H372 H 0.43662 0.97647 0.44749 0.0
N373 N 0.48772 0.97224 0.47533 0.0
H374 H 0.42913 0.95111 0.41212 0.0
H375 H 0.52627 0.93354 0.45584 0.0
H376 H 0.51881 0.9078 0.42001 0.0
H377 H 0.48212 0.9266 0.50092 0.0
H378 H 0.4356 0.91195 0.5182 0.0
H379 H 0.43706 0.00985 0.48126 0.0
H380 H 0.39016 0.99486 0.49768 0.0
H381 H 0.46879 0.02321 0.45403 0.0
H382 H 0.54216 0.98761 0.49498 0.0
H383 H 0.50162 0.06697 0.44718 0.0
H384 H 0.57509 0.0319 0.48857 0.0
H385 H 0.63089 0.19491 0.41872 0.0
H386 H 0.64813 0.20001 0.38312 0.0
H387 H 0.64346 0.10025 0.37159 0.0
H388 H 0.62824 0.0954 0.40762 0.0
H389 H 0.67798 0.10863 0.43524 0.0
H390 H 0.72769 0.11845 0.4546 0.0
H391 H 0.68971 0.19981 0.48683 0.0
H392 H 0.63905 0.18781 0.4687 0.0
H393 H 0.56635 0.15193 0.44765 0.0
H394 H 0.53022 0.11417 0.46034 0.0
H395 H 0.60132 0.04421 0.4572 0.0
N396 N 0.62519 0.14323 0.43862 0.0
H397 H 0.63688 0.08158 0.44491 0.0
C398 C 0.482 0.9566 0.45454 0.0
C399 C 0.45462 0.96129 0.44189 0.0
C400 C 0.45028 0.94669 0.42158 0.0
C401 C 0.47328 0.92729 0.41335 0.0
C402 C 0.50073 0.92272 0.42593 0.0
C403 C 0.50496 0.9372 0.44637 0.0
C404 C 0.4631 0.969 0.48953 0.0
C405 C 0.46248 0.94212 0.50083 0.0
C406 C 0.43574 0.93365 0.51049 0.0
C407 C 0.40885 0.95184 0.5089 0.0
C408 C 0.41042 0.98029 0.49926 0.0
C409 C 0.43735 0.98887 0.48972 0.0
C410 C 0.50308 0.00192 0.47507 0.0
C411 C 0.49156 0.02529 0.46217 0.0
C412 C 0.51046 0.05041 0.4582 0.0
C413 C 0.5412 0.05267 0.46702 0.0
C414 C 0.55175 0.03051 0.48116 0.0
C415 C 0.53287 0.00542 0.48509 0.0
C416 C 0.62827 0.14494 0.41604 0.0
C417 C 0.63293 0.17421 0.4083 0.0
C418 C 0.64272 0.17704 0.38783 0.0
C419 C 0.64768 0.15052 0.37439 0.0
C420 C 0.64075 0.12121 0.38162 0.0
C421 C 0.63154 0.11839 0.40229 0.0
C422 C 0.65441 0.14709 0.45096 0.0
C423 C 0.67994 0.12788 0.44707 0.0
C424 C 0.70875 0.13402 0.45786 0.0
C425 C 0.7131 0.16014 0.47226 0.0
C426 C 0.68735 0.17913 0.47624 0.0
C427 C 0.65832 0.17246 0.46581 0.0
C428 C 0.60441 0.11992 0.44535 0.0
C429 C 0.57403 0.12841 0.44972 0.0
C430 C 0.55346 0.10683 0.45696 0.0
C431 C 0.56299 0.07625 0.46004 0.0
C432 C 0.59341 0.06775 0.45552 0.0
C433 C 0.61386 0.08925 0.44828 0.0
H434 H 0.18323 0.95954 0.68787 0.0
N435 N 0.12729 0.97555 0.70438 0.0
H436 H 0.19368 0.95356 0.65054 0.0
H437 H 0.08835 0.98343 0.67095 0.0
H438 H 0.09926 0.98032 0.63353 0.0
H439 H 0.18345 0.98366 0.72663 0.0
H440 H 0.20937 0.94598 0.74928 0.0
H441 H 0.10428 0.92252 0.71548 0.0
H442 H 0.12969 0.88487 0.73797 0.0
H443 H 0.08127 0.9953 0.72768 0.0
H444 H 0.16191 0.02688 0.69817 0.0
H445 H 0.06438 0.04886 0.73367 0.0
H446 H 0.14412 0.08016 0.70233 0.0
H447 H 0.9857 0.17288 0.69143 0.0
H448 H 0.95351 0.17053 0.65836 0.0
H449 H 0.03471 0.18536 0.62349 0.0
H450 H 0.06715 0.18726 0.65692 0.0
H451 H 0.05839 0.24519 0.69646 0.0
H452 H 0.03153 0.28613 0.71624 0.0
H453 H 0.98475 0.21685 0.74942 0.0
H454 H 0.01119 0.17607 0.72918 0.0
H455 H 0.01727 0.13057 0.70201 0.0
H456 H 0.04044 0.08186 0.71061 0.0
H457 H 0.13063 0.12659 0.71984 0.0
N458 N 0.04845 0.18473 0.69618 0.0
H459 H 0.10706 0.17537 0.70962 0.0
C460 C 0.13458 0.97122 0.68233 0.0
C461 C 0.16453 0.96354 0.67618 0.0
C462 C 0.17068 0.96065 0.65464 0.0
C463 C 0.14736 0.9663 0.63872 0.0
C464 C 0.1177 0.97484 0.64507 0.0
C465 C 0.11138 0.97684 0.66653 0.0
C466 C 0.14208 0.95553 0.71928 0.0
C467 C 0.17153 0.96231 0.72934 0.0
C468 C 0.18625 0.94081 0.74224 0.0
C469 C 0.17153 0.91249 0.74548 0.0
C470 C 0.14147 0.90663 0.73612 0.0
C471 C 0.12701 0.92793 0.72312 0.0
C472 C 0.12225 0.00714 0.71201 0.0
C473 C 0.09557 0.01394 0.72283 0.0
C474 C 0.08579 0.04455 0.72595 0.0
C475 C 0.10219 0.06892 0.71777 0.0
C476 C 0.13071 0.06221 0.70883 0.0
C477 C 0.14088 0.03161 0.70625 0.0
C478 C 0.02903 0.18054 0.67669 0.0
C479 C 0.99679 0.17532 0.67674 0.0
C480 C 0.9783 0.17406 0.65778 0.0
C481 C 0.99152 0.17801 0.63834 0.0
C482 C 0.02387 0.18197 0.6382 0.0
C483 C 0.04241 0.18324 0.65724 0.0
C484 C 0.03693 0.20765 0.71127 0.0
C485 C 0.04295 0.23894 0.70841 0.0
C486 C 0.02755 0.26227 0.71975 0.0
C487 C 0.00577 0.25475 0.73431 0.0
C488 C 0.00103 0.22338 0.73808 0.0
C489 C 0.01644 0.2 0.72666 0.0
C490 C 0.06062 0.15662 0.70458 0.0
C491 C 0.04198 0.13015 0.70593 0.0
C492 C 0.05537 0.10213 0.71125 0.0
C493 C 0.08764 0.09995 0.71578 0.0
C494 C 0.10586 0.12709 0.71596 0.0
C495 C 0.09244 0.15507 0.71029 0.0
O496 O 0.40055 0.70898 0.98577 0.0
Cd497 Cd 0.38 0.72253 0.01363 0.0
Cd498 Cd 0.42808 0.69348 0.03058 0.0
O499 O 0.43116 0.67428 0.00017 0.0
O500 O 0.33782 0.73727 0.00489 0.0
O501 O 0.34605 0.69505 0.02259 0.0
C502 C 0.3268 0.71366 0.0135 0.0
C503 C 0.4241 0.6623 0.05895 0.0
C504 C 0.4195 0.68666 0.98381 0.0
C505 C 0.42745 0.76129 0.03932 0.0
O506 O 0.44516 0.73795 0.03778 0.0
O507 O 0.39909 0.75895 0.03276 0.0
O508 O 0.45011 0.66566 0.05029 0.0
O509 O 0.39993 0.67616 0.05107 0.0
O510 O 0.42373 0.86797 0.32037 0.0
Cd511 Cd 0.40454 0.85804 0.28987 0.0
Cd512 Cd 0.46408 0.86549 0.28151 0.0
O513 O 0.47087 0.88147 0.31286 0.0
O514 O 0.3594 0.85816 0.29432 0.0
O515 O 0.38153 0.89263 0.27561 0.0
C516 C 0.35692 0.88257 0.28366 0.0
C517 C 0.47266 0.89696 0.25392 0.0
C518 C 0.45058 0.87859 0.32635 0.0
C519 C 0.4373 0.80242 0.27134 0.0
O520 O 0.46228 0.81821 0.27441 0.0
O521 O 0.41136 0.81484 0.27498 0.0
O522 O 0.49545 0.88407 0.26422 0.0
O523 O 0.44488 0.89257 0.25977 0.0
O524 O 0.21714 0.90781 0.47834 0.0
Cd525 Cd 0.23256 0.89302 0.50783 0.0
Cd526 Cd 0.17934 0.91844 0.51672 0.0
O527 O 0.18119 0.9403 0.48894 0.0
O528 O 0.27663 0.88188 0.504 0.0
O529 O 0.263 0.92184 0.52493 0.0
C530 C 0.2847 0.90593 0.51627 0.0
C531 C 0.17187 0.94244 0.54991 0.0
C532 C 0.19766 0.92906 0.47439 0.0
C533 C 0.1826 0.85055 0.51819 0.0
O534 O 0.16496 0.87305 0.51398 0.0
O535 O 0.2119 0.85443 0.51955 0.0
O536 O 0.14934 0.93899 0.53549 0.0
O537 O 0.19943 0.9344 0.54487 0.0
O538 O 0.20883 0.72892 0.73532 0.0
Cd539 Cd 0.23216 0.74522 0.76314 0.0
Cd540 Cd 0.20392 0.69383 0.77726 0.0
O541 O 0.18097 0.69173 0.74742 0.0
O542 O 0.245 0.78753 0.75637 0.0
O543 O 0.21047 0.77894 0.77982 0.0
C544 C 0.22484 0.79837 0.76905 0.0
C545 C 0.1763 0.69091 0.80769 0.0
C546 C 0.18786 0.70814 0.73233 0.0
C547 C 0.27402 0.6956 0.77875 0.0
O548 O 0.24953 0.6797 0.78039 0.0
O549 O 0.27229 0.72333 0.77316 0.0
O550 O 0.18114 0.66661 0.79543 0.0
O551 O 0.18628 0.71734 0.80221 0.0
O552 O 0.89932 0.21999 0.56112 0.0
Cd553 Cd 0.87783 0.24003 0.53557 0.0
Cd554 Cd 0.90538 0.19251 0.51308 0.0
O555 O 0.92417 0.18359 0.54308 0.0
O556 O 0.86785 0.2828 0.54616 0.0
O557 O 0.90183 0.27241 0.52186 0.0
C558 C 0.88809 0.29263 0.53392 0.0
C559 C 0.93942 0.19087 0.48579 0.0
C560 C 0.91824 0.19756 0.56068 0.0
C561 C 0.83501 0.19697 0.5093 0.0
O562 O 0.8592 0.18253 0.5039 0.0
O563 O 0.8372 0.22096 0.52199 0.0
O564 O 0.9288 0.16589 0.49293 0.0
O565 O 0.93088 0.21718 0.49434 0.0
O566 O 0.89433 0.40109 0.8139 0.0
Cd567 Cd 0.87533 0.38356 0.78482 0.0
Cd568 Cd 0.91618 0.42277 0.77188 0.0
O569 O 0.91439 0.44322 0.80217 0.0
O570 O 0.83531 0.36456 0.79137 0.0
O571 O 0.83824 0.40555 0.7722 0.0
C572 C 0.82138 0.38626 0.78144 0.0
C573 C 0.91733 0.45196 0.74208 0.0
C574 C 0.90719 0.42755 0.81753 0.0
C575 C 0.92884 0.35463 0.76578 0.0
O576 O 0.9404 0.3818 0.76842 0.0
O577 O 0.90041 0.35013 0.76888 0.0
O578 O 0.94044 0.45181 0.75603 0.0
O579 O 0.89249 0.43689 0.74571 0.0
O580 O 0.7144 0.3858 0.06699 0.0
Cd581 Cd 0.73274 0.3674 0.03966 0.0
Cd582 Cd 0.70375 0.41636 0.02342 0.0
O583 O 0.68471 0.42138 0.05265 0.0
O584 O 0.74455 0.32427 0.04598 0.0
O585 O 0.70636 0.335 0.02256 0.0
C586 C 0.72198 0.31463 0.03283 0.0
C587 C 0.6742 0.41646 0.99125 0.0
C588 C 0.6941 0.40689 0.06874 0.0
C589 C 0.77335 0.41577 0.02377 0.0
O590 O 0.74868 0.43145 0.02143 0.0
O591 O 0.77216 0.38823 0.02974 0.0
O592 O 0.67923 0.44156 0.00318 0.0
O593 O 0.68443 0.3907 0.99828 0.0
O594 O 0.75832 0.20136 0.22845 0.0
Cd595 Cd 0.76977 0.22709 0.25621 0.0
Cd596 Cd 0.75209 0.17482 0.27421 0.0
O597 O 0.73992 0.16032 0.24277 0.0
O598 O 0.7699 0.27083 0.24837 0.0
O599 O 0.73683 0.25265 0.27006 0.0
C600 C 0.7466 0.27553 0.25996 0.0
C601 C 0.71705 0.16671 0.3001 0.0
C602 C 0.74561 0.1747 0.22644 0.0
C603 C 0.81916 0.19655 0.28182 0.0
O604 O 0.79855 0.17654 0.28501 0.0
O605 O 0.81255 0.21944 0.27077 0.0
O606 O 0.73328 0.14436 0.29218 0.0
O607 O 0.7201 0.19383 0.29288 0.0
C608 C 0.27375 0.90354 0.29215 0.0
C609 C 0.27235 0.93445 0.28635 0.0
H610 H 0.30119 0.86301 0.29554 0.0
C611 C 0.29835 0.94724 0.27759 0.0
H612 H 0.25451 0.89298 0.29932 0.0
C613 C 0.32554 0.92989 0.27558 0.0
C614 C 0.32721 0.89954 0.28241 0.0
H615 H 0.29797 0.97087 0.27278 0.0
H616 H 0.34559 0.94068 0.26952 0.0
C617 C 0.30074 0.88634 0.29016 0.0
C618 C 0.16702 0.77765 0.54602 0.0
C619 C 0.13586 0.77127 0.539 0.0
H620 H 0.20653 0.80761 0.54466 0.0
C621 C 0.12203 0.7887 0.52292 0.0
H622 H 0.1784 0.76493 0.55851 0.0
C623 C 0.13796 0.81348 0.51535 0.0
C624 C 0.16832 0.82106 0.52337 0.0
H625 H 0.09841 0.78394 0.5167 0.0
H626 H 0.12609 0.82739 0.5037 0.0
C627 C 0.18317 0.8022 0.53815 0.0
C628 C 0.3362 0.64305 0.8011 0.0
C629 C 0.3635 0.65646 0.79454 0.0
H630 H 0.2867 0.64478 0.80122 0.0
C631 C 0.36088 0.68224 0.78198 0.0
H632 H 0.33719 0.62361 0.81115 0.0
C633 C 0.33184 0.69489 0.77675 0.0
C634 C 0.30471 0.68174 0.78366 0.0
H635 H 0.38129 0.69288 0.77631 0.0
H636 H 0.33065 0.71498 0.7673 0.0
C637 C 0.30717 0.65539 0.79559 0.0
C638 C 0.48084 0.83013 0.05367 0.0
C639 C 0.4616 0.85023 0.06534 0.0
H640 H 0.48528 0.78592 0.03665 0.0
C641 C 0.43127 0.84018 0.06862 0.0
H642 H 0.5041 0.83704 0.05043 0.0
C643 C 0.42028 0.81135 0.06008 0.0
C644 C 0.43959 0.79139 0.04862 0.0
H645 H 0.41595 0.85432 0.07804 0.0
H646 H 0.39675 0.80443 0.06276 0.0
C647 C 0.47006 0.80084 0.04565 0.0
C648 C 0.25043 0.67169 0.00143 0.0
C649 C 0.22934 0.69655 0.00081 0.0
H650 H 0.29781 0.65765 0.00648 0.0
C651 C 0.24056 0.72665 0.00705 0.0
H652 H 0.24308 0.64822 0.99649 0.0
C653 C 0.27219 0.73203 0.01198 0.0
C654 C 0.29318 0.70736 0.01158 0.0
H655 H 0.22511 0.74632 0.00755 0.0
H656 H 0.28036 0.75563 0.01568 0.0
C657 C 0.28195 0.67703 0.00704 0.0
C658 C 0.46723 0.72197 0.25688 0.0
C659 C 0.44035 0.70688 0.24744 0.0
H660 H 0.48741 0.76394 0.27165 0.0
C661 C 0.41234 0.72345 0.24642 0.0
H662 H 0.48909 0.70985 0.25836 0.0
C663 C 0.4113 0.7543 0.25444 0.0
C664 C 0.43831 0.7695 0.26339 0.0
H665 H 0.39129 0.7129 0.23894 0.0
H666 H 0.38941 0.76645 0.25319 0.0
C667 C 0.46626 0.75298 0.2646 0.0
C668 C 0.35571 0.95845 0.52329 0.0
C669 C 0.37839 0.93919 0.51442 0.0
H670 H 0.30825 0.96288 0.53128 0.0
C671 C 0.37068 0.90797 0.50867 0.0
H672 H 0.36096 0.98252 0.52806 0.0
C673 C 0.34067 0.89678 0.51054 0.0
C674 C 0.31754 0.91644 0.51826 0.0
H675 H 0.38732 0.8925 0.50151 0.0
H676 H 0.33528 0.873 0.50502 0.0
C677 C 0.32559 0.94714 0.52529 0.0
C678 C 0.17299 0.86831 0.7696 0.0
C679 C 0.1884 0.88742 0.75631 0.0
H680 H 0.17288 0.82518 0.78459 0.0
C681 C 0.21857 0.87957 0.75088 0.0
H682 H 0.1499 0.87404 0.77432 0.0
C683 C 0.23174 0.85165 0.75679 0.0
C684 C 0.21506 0.83109 0.76831 0.0
H685 H 0.23104 0.89372 0.74062 0.0
H686 H 0.2541 0.84522 0.75104 0.0
C687 C 0.18626 0.84043 0.77562 0.0
C688 C 0.73985 0.37683 0.79866 0.0
C689 C 0.72577 0.40443 0.79248 0.0
H690 H 0.78082 0.34926 0.79974 0.0
C691 C 0.74232 0.42413 0.7802 0.0
H692 H 0.72805 0.36123 0.80832 0.0
C693 C 0.7729 0.41734 0.7754 0.0
C694 C 0.78753 0.39071 0.7828 0.0
H695 H 0.73199 0.44532 0.77486 0.0
H696 H 0.78549 0.43368 0.76677 0.0
C697 C 0.7703 0.37003 0.79384 0.0
C698 C 0.72436 0.22866 0.04015 0.0
C699 C 0.69271 0.22061 0.03756 0.0
H700 H 0.75843 0.26491 0.04066 0.0
C701 C 0.67128 0.24286 0.03069 0.0
H702 H 0.74134 0.21206 0.04563 0.0
C703 C 0.68117 0.27304 0.02747 0.0
C704 C 0.71253 0.28161 0.03157 0.0
H705 H 0.64676 0.23719 0.02859 0.0
H706 H 0.664 0.29012 0.02311 0.0
C707 C 0.73412 0.25893 0.03739 0.0
C708 C 0.90687 0.19694 0.28758 0.0
C709 C 0.91267 0.18514 0.30774 0.0
H710 H 0.87271 0.21028 0.26377 0.0
C711 C 0.88705 0.17754 0.3193 0.0
H712 H 0.92573 0.20253 0.27793 0.0
C713 C 0.85671 0.18088 0.31075 0.0
C714 C 0.85118 0.19291 0.29078 0.0
H715 H 0.89022 0.16933 0.33513 0.0
H716 H 0.83754 0.17465 0.31997 0.0
C717 C 0.87646 0.2012 0.27934 0.0
C718 C 0.93677 0.36533 0.53272 0.0
C719 C 0.92057 0.38625 0.54587 0.0
H720 H 0.9389 0.31921 0.51825 0.0
C721 C 0.89149 0.37735 0.5524 0.0
H722 H 0.95907 0.37169 0.52725 0.0
C723 C 0.88 0.34739 0.54729 0.0
C724 C 0.89726 0.32573 0.53547 0.0
H725 H 0.87853 0.39279 0.56268 0.0
H726 H 0.8583 0.34075 0.55355 0.0
C727 C 0.92515 0.33534 0.52748 0.0
C728 C 0.74814 0.18354 0.5027 0.0
C729 C 0.74458 0.16833 0.48228 0.0
H730 H 0.77945 0.20474 0.52713 0.0
C731 C 0.77141 0.16185 0.47121 0.0
H732 H 0.72827 0.18837 0.51198 0.0
C733 C 0.80082 0.17038 0.48024 0.0
C734 C 0.80411 0.1863 0.50033 0.0
H735 H 0.7698 0.15089 0.45527 0.0
H736 H 0.82092 0.16539 0.47119 0.0
C737 C 0.77752 0.19274 0.5115 0.0
C738 C 0.95447 0.2748 0.74573 0.0
C739 C 0.98651 0.27947 0.74417 0.0
H740 H 0.91109 0.29481 0.75372 0.0
C741 C 0.99953 0.30866 0.7507 0.0
H742 H 0.9436 0.25274 0.74055 0.0
C743 C 0.98083 0.33287 0.75795 0.0
C744 C 0.94868 0.32844 0.75897 0.0
H745 H 0.02418 0.31291 0.75 0.0
H746 H 0.99161 0.35518 0.76258 0.0
C747 C 0.93577 0.299 0.75311 0.0
C748 C 0.83208 0.46878 0.0021 0.0
C749 C 0.86049 0.45602 0.00929 0.0
H750 H 0.78254 0.46619 0.00104 0.0
C751 C 0.85989 0.43026 0.0219 0.0
H752 H 0.83143 0.48812 0.99197 0.0
C753 C 0.83165 0.41713 0.02665 0.0
C754 C 0.80338 0.42975 0.01919 0.0
H755 H 0.88123 0.42007 0.02803 0.0
H756 H 0.83197 0.39714 0.0362 0.0
C757 C 0.80393 0.45597 0.00712 0.0
C758 C 0.68529 0.3373 0.2675 0.0
C759 C 0.6968 0.3612 0.25592 0.0
H760 H 0.69217 0.29145 0.27811 0.0
C761 C 0.72602 0.35751 0.24745 0.0
H762 H 0.66301 0.33952 0.27441 0.0
C763 C 0.74268 0.3302 0.24965 0.0
C764 C 0.73057 0.30576 0.26032 0.0
H765 H 0.73546 0.37508 0.23811 0.0
H766 H 0.76461 0.32788 0.24226 0.0
C767 C 0.70206 0.30985 0.26972 0.0
C768 C 0.213 0.94326 0.4174 0.0
C769 C 0.18644 0.95968 0.41084 0.0
H770 H 0.23725 0.92056 0.44256 0.0
C771 C 0.16372 0.9664 0.42541 0.0
H772 H 0.23076 0.9376 0.40643 0.0
C773 C 0.16754 0.95693 0.44619 0.0
C774 C 0.19395 0.94013 0.45268 0.0
H775 H 0.14313 0.97923 0.42076 0.0
H776 H 0.14963 0.96238 0.45708 0.0
C777 C 0.21662 0.93341 0.43805 0.0
C778 C 0.1348 0.67576 0.68588 0.0
C779 C 0.13559 0.69988 0.67198 0.0
H780 H 0.15053 0.65952 0.71613 0.0
C781 C 0.15417 0.72612 0.67781 0.0
H782 H 0.12054 0.65532 0.68171 0.0
C783 C 0.17155 0.72836 0.69722 0.0
C784 C 0.1704 0.70458 0.7114 0.0
H785 H 0.15538 0.74488 0.66726 0.0
H786 H 0.18549 0.74905 0.70126 0.0
C787 C 0.15186 0.67821 0.70555 0.0
C788 C 0.43631 0.6847 0.92565 0.0
C789 C 0.44652 0.65412 0.92209 0.0
H790 H 0.41913 0.71883 0.94798 0.0
C791 C 0.44756 0.63417 0.93881 0.0
H792 H 0.43516 0.70035 0.91287 0.0
C793 C 0.43896 0.64483 0.95895 0.0
C794 C 0.42845 0.67537 0.96252 0.0
H795 H 0.45535 0.61048 0.93633 0.0
H796 H 0.4402 0.62908 0.97167 0.0
C797 C 0.427 0.69515 0.94565 0.0
C798 C 0.4586 0.93675 0.20239 0.0
C799 C 0.48906 0.94045 0.19618 0.0
H800 H 0.42948 0.92019 0.22559 0.0
C801 C 0.51401 0.93262 0.21019 0.0
H802 H 0.43885 0.9423 0.19191 0.0
C803 C 0.50864 0.9197 0.22938 0.0
C804 C 0.47819 0.91443 0.23505 0.0
H805 H 0.53776 0.9357 0.20606 0.0
H806 H 0.52842 0.91298 0.23945 0.0
C807 C 0.45322 0.9239 0.22165 0.0
C808 C 0.14354 0.71119 0.86121 0.0
C809 C 0.1393 0.68161 0.86873 0.0
H810 H 0.15874 0.73744 0.83598 0.0
C811 C 0.14521 0.6553 0.85543 0.0
H812 H 0.13934 0.73188 0.87119 0.0
C813 C 0.15607 0.65844 0.83529 0.0
C814 C 0.1616 0.68799 0.82806 0.0
H815 H 0.14185 0.63222 0.86074 0.0
H816 H 0.16102 0.63762 0.82565 0.0
C817 C 0.15477 0.71436 0.8411 0.0
C818 C 0.40099 0.63713 0.11213 0.0
C819 C 0.42576 0.6176 0.11788 0.0
H820 H 0.38082 0.66634 0.0888 0.0
C821 C 0.44799 0.61041 0.10298 0.0
H822 H 0.38358 0.64341 0.12322 0.0
C823 C 0.44671 0.62405 0.08348 0.0
C824 C 0.42286 0.64474 0.07822 0.0
H825 H 0.46691 0.59482 0.10659 0.0
H826 H 0.46485 0.61891 0.07271 0.0
C827 C 0.39945 0.6504 0.09242 0.0
C828 C 0.49223 0.91299 0.37724 0.0
C829 C 0.46858 0.91251 0.39154 0.0
H830 H 0.50514 0.90272 0.34535 0.0
C831 C 0.43971 0.89916 0.38456 0.0
H832 H 0.51466 0.92332 0.38217 0.0
C833 C 0.43424 0.88743 0.36355 0.0
C834 C 0.45748 0.88887 0.34899 0.0
H835 H 0.4212 0.89807 0.39531 0.0
H836 H 0.41151 0.8778 0.35865 0.0
C837 C 0.48672 0.90134 0.35614 0.0
C838 C 0.12975 0.95231 0.60047 0.0
C839 C 0.15355 0.96245 0.61564 0.0
H840 H 0.11676 0.9389 0.56797 0.0
C841 C 0.18331 0.96796 0.60853 0.0
H842 H 0.10672 0.94701 0.60514 0.0
C843 C 0.18928 0.96231 0.58706 0.0
C844 C 0.16545 0.95181 0.57214 0.0
H845 H 0.20215 0.97645 0.61951 0.0
H846 H 0.21257 0.9659 0.58218 0.0
C847 C 0.13554 0.94746 0.57902 0.0
C848 C 0.64568 0.39298 0.93437 0.0
C849 C 0.64211 0.42211 0.92581 0.0
H850 H 0.65874 0.36822 0.96194 0.0
C851 C 0.64606 0.44902 0.93939 0.0
H852 H 0.64278 0.37189 0.92419 0.0
C853 C 0.65477 0.44698 0.96092 0.0
C854 C 0.66012 0.41796 0.96933 0.0
H855 H 0.64305 0.47175 0.93322 0.0
H856 H 0.65854 0.46829 0.97076 0.0
C857 C 0.65482 0.39092 0.95594 0.0
C858 C 0.74091 0.16088 0.16657 0.0
C859 C 0.71684 0.13885 0.16323 0.0
H860 H 0.76872 0.18959 0.18921 0.0
C861 C 0.70341 0.1273 0.18088 0.0
H862 H 0.75147 0.17031 0.15322 0.0
C863 C 0.71348 0.13808 0.20154 0.0
C864 C 0.73675 0.16103 0.20485 0.0
H865 H 0.68489 0.11017 0.17867 0.0
H866 H 0.70237 0.1292 0.21486 0.0
C867 C 0.75061 0.17203 0.18716 0.0
C868 C 0.99553 0.21288 0.44517 0.0
C869 C 0.99629 0.18533 0.43201 0.0
H870 H 0.97675 0.23642 0.47242 0.0
C871 C 0.97905 0.15953 0.43737 0.0
H872 H 0.00881 0.23311 0.4418 0.0
C873 C 0.96134 0.16128 0.45512 0.0
C874 C 0.95983 0.18903 0.46781 0.0
H875 H 0.97821 0.13813 0.42745 0.0
H876 H 0.948 0.14107 0.45848 0.0
C877 C 0.97727 0.21479 0.46279 0.0
C878 C 0.90645 0.46736 0.6837 0.0
C879 C 0.93468 0.48224 0.68049 0.0
H880 H 0.87857 0.44628 0.70587 0.0
C881 C 0.95485 0.49086 0.69824 0.0
H882 H 0.89046 0.46035 0.67032 0.0
C883 C 0.94809 0.48278 0.71852 0.0
C884 C 0.92098 0.46592 0.72154 0.0
H885 H 0.97646 0.50291 0.69633 0.0
H886 H 0.96487 0.48857 0.73168 0.0
C887 C 0.89965 0.45927 0.70406 0.0
C888 C 0.65804 0.1795 0.34187 0.0
C889 C 0.6628 0.15333 0.35391 0.0
H890 H 0.67152 0.20442 0.3155 0.0
C891 C 0.68416 0.13085 0.3471 0.0
H892 H 0.64139 0.19705 0.3463 0.0
C893 C 0.70082 0.13479 0.32919 0.0
C894 C 0.69702 0.16154 0.31777 0.0
H895 H 0.68912 0.11071 0.35606 0.0
H896 H 0.71761 0.11733 0.32479 0.0
C897 C 0.67516 0.18368 0.32411 0.0
C898 C 0.94432 0.19835 0.619 0.0
C899 C 0.97136 0.18037 0.6186 0.0
H900 H 0.90627 0.21764 0.60113 0.0
C901 C 0.9796 0.16617 0.59912 0.0
H902 H 0.93752 0.2099 0.63371 0.0
C903 C 0.96159 0.17059 0.58035 0.0
C904 C 0.93519 0.18956 0.58068 0.0
H905 H 0.00017 0.15195 0.59838 0.0
H906 H 0.96895 0.15999 0.5655 0.0
C907 C 0.92648 0.20293 0.60028 0.0
C908 C 0.92683 0.4288 0.87674 0.0
C909 C 0.93252 0.46045 0.88187 0.0
H910 H 0.91383 0.39369 0.85239 0.0
C911 C 0.92916 0.48152 0.86584 0.0
H912 H 0.92906 0.4122 0.88891 0.0
C913 C 0.92088 0.47093 0.84484 0.0
C914 C 0.91517 0.4392 0.83969 0.0
H915 H 0.93349 0.50606 0.86951 0.0
H916 H 0.91884 0.48754 0.83268 0.0
C917 C 0.91795 0.4183 0.85589 0.0
C918 C 0.65605 0.45027 0.11425 0.0
C919 C 0.66081 0.42977 0.13056 0.0
H920 H 0.66244 0.45893 0.08172 0.0
C921 C 0.67586 0.40154 0.12623 0.0
H922 H 0.64436 0.47212 0.11717 0.0
C923 C 0.6864 0.39411 0.10611 0.0
C924 C 0.68183 0.4146 0.08977 0.0
H925 H 0.68011 0.38544 0.13856 0.0
H926 H 0.69824 0.37228 0.10339 0.0
C927 C 0.66625 0.44264 0.09397 0.0
loop_
_geom_bond_atom_site_label_1
_geom_bond_atom_site_label_2
_geom_bond_distance
_geom_bond_site_symmetry_2
_ccdc_geom_bond_type
H0 C27 0.929 . S
N1 C26 1.433 . S
N1 C32 1.435 . S
N1 C38 1.423 . S
H2 C28 0.930 . S
H3 C31 0.931 . S
H4 C30 0.929 . S
H5 C33 0.930 . S
H6 C34 0.932 . S
H7 C37 0.929 . S
H8 C36 0.931 . S
H9 C39 0.929 . S
H10 C43 0.932 . S
H11 C40 0.931 . S
H12 C42 0.929 1_565 S
H13 C45 0.929 . S
H14 C46 0.930 . S
H15 C48 0.929 . S
H16 C49 0.931 . S
H17 C51 0.930 . S
H18 C52 0.932 . S
H19 C54 0.931 . S
H20 C55 0.929 1_455 S
H21 C57 0.929 . S
H22 C58 0.931 . S
H23 C60 0.929 . S
N24 C44 1.433 . S
N24 C50 1.435 . S
N24 C56 1.423 1_655 S
H25 C61 0.932 . S
C26 N1 1.433 . S
C26 C27 1.363 . S
C26 C31 1.370 . S
C27 H0 0.929 . S
C27 C26 1.363 . S
C27 C28 1.385 . S
C28 H2 0.930 . S
C28 C27 1.385 . S
C28 C29 1.357 . S
C29 C28 1.357 . S
C29 C30 1.406 . S
C30 H4 0.929 . S
C30 C29 1.406 . S
C30 C31 1.391 . S
C31 H3 0.931 . S
C31 C26 1.370 . S
C31 C30 1.391 . S
C32 N1 1.435 . S
C32 C33 1.358 . S
C32 C37 1.371 . S
C33 H5 0.930 . S
C33 C32 1.358 . S
C33 C34 1.405 . S
C34 H6 0.932 . S
C34 C33 1.405 . S
C34 C35 1.383 . S
C35 C34 1.383 . S
C35 C36 1.393 . S
C36 H8 0.931 . S
C36 C35 1.393 . S
C36 C37 1.382 . S
C37 H7 0.929 . S
C37 C32 1.371 . S
C37 C36 1.382 . S
C38 N1 1.423 . S
C38 C39 1.362 1_565 S
C38 C43 1.388 . S
C39 H9 0.929 . S
C39 C38 1.362 1_545 S
C39 C40 1.376 . S
C40 H11 0.931 . S
C40 C39 1.376 . S
C40 C41 1.396 . S
C41 C40 1.396 . S
C41 C42 1.348 . S
C41 C59 1.472 . S
C42 H12 0.929 1_545 S
C42 C41 1.348 . S
C42 C43 1.443 1_545 S
C43 H10 0.932 . S
C43 C38 1.388 . S
C43 C42 1.443 1_565 S
C44 N24 1.433 . S
C44 C45 1.363 . S
C44 C49 1.370 . S
C45 H13 0.929 . S
C45 C44 1.363 . S
C45 C46 1.385 . S
C46 H14 0.930 . S
C46 C45 1.385 . S
C46 C47 1.357 . S
C47 C46 1.357 . S
C47 C48 1.406 . S
C48 H15 0.929 . S
C48 C47 1.406 . S
C48 C49 1.391 . S
C49 H16 0.931 . S
C49 C44 1.370 . S
C49 C48 1.391 . S
C50 N24 1.435 . S
C50 C51 1.358 . S
C50 C55 1.371 . S
C51 H17 0.930 . S
C51 C50 1.358 . S
C51 C52 1.405 . S
C52 H18 0.932 . S
C52 C51 1.405 . S
C52 C53 1.383 . S
C53 C52 1.383 . S
C53 C54 1.393 . S
C54 H19 0.931 . S
C54 C53 1.393 . S
C54 C55 1.382 . S
C55 H20 0.929 1_655 S
C55 C50 1.371 . S
C55 C54 1.382 . S
C56 N24 1.423 1_455 S
C56 C57 1.362 . S
C56 C61 1.388 . S
C57 H21 0.929 . S
C57 C56 1.362 . S
C57 C58 1.376 . S
C58 H22 0.931 . S
C58 C57 1.376 . S
C58 C59 1.396 . S
C59 C41 1.472 . S
C59 C58 1.396 . S
C59 C60 1.348 . S
C60 H23 0.929 . S
C60 C59 1.348 . S
C60 C61 1.443 . S
C61 H25 0.932 . S
C61 C56 1.388 . S
C61 C60 1.443 . S
H62 C89 0.929 . S
N63 C88 1.433 . S
N63 C94 1.435 . S
N63 C100 1.423 1_655 S
H64 C90 0.930 . S
H65 C93 0.931 . S
H66 C92 0.929 . S
H67 C95 0.930 . S
H68 C96 0.932 . S
H69 C99 0.929 1_455 S
H70 C98 0.931 . S
H71 C101 0.929 . S
H72 C105 0.932 1_655 S
H73 C102 0.931 . S
H74 C104 0.929 . S
H75 C107 0.929 . S
H76 C108 0.930 . S
H77 C110 0.929 . S
H78 C111 0.931 . S
H79 C113 0.930 . S
H80 C114 0.932 . S
H81 C116 0.931 . S
H82 C117 0.929 . S
H83 C119 0.929 . S
H84 C120 0.931 . S
H85 C122 0.929 . S
N86 C106 1.433 . S
N86 C112 1.435 . S
N86 C118 1.423 . S
H87 C123 0.932 . S
C88 N63 1.433 . S
C88 C89 1.363 . S
C88 C93 1.370 . S
C89 H62 0.929 . S
C89 C88 1.363 . S
C89 C90 1.385 . S
C90 H64 0.930 . S
C90 C89 1.385 . S
C90 C91 1.357 . S
C91 C90 1.357 . S
C91 C92 1.406 . S
C92 H66 0.929 . S
C92 C91 1.406 . S
C92 C93 1.391 . S
C93 H65 0.931 . S
C93 C88 1.370 . S
C93 C92 1.391 . S
C94 N63 1.435 . S
C94 C95 1.358 . S
C94 C99 1.371 . S
C95 H67 0.930 . S
C95 C94 1.358 . S
C95 C96 1.405 . S
C96 H68 0.932 . S
C96 C95 1.405 . S
C96 C97 1.383 . S
C97 C96 1.383 . S
C97 C98 1.393 . S
C98 H70 0.931 . S
C98 C97 1.393 . S
C98 C99 1.382 . S
C99 H69 0.929 1_655 S
C99 C94 1.371 . S
C99 C98 1.382 . S
C100 N63 1.423 1_455 S
C100 C101 1.362 . S
C100 C105 1.388 . S
C101 H71 0.929 . S
C101 C100 1.362 . S
C101 C102 1.376 . S
C102 H73 0.931 . S
C102 C101 1.376 . S
C102 C103 1.396 . S
C103 C102 1.396 . S
C103 C104 1.348 . S
C103 C121 1.472 . S
C104 H74 0.929 . S
C104 C103 1.348 . S
C104 C105 1.443 . S
C105 H72 0.932 1_455 S
C105 C100 1.388 . S
C105 C104 1.443 . S
C106 N86 1.433 . S
C106 C107 1.363 . S
C106 C111 1.370 . S
C107 H75 0.929 . S
C107 C106 1.363 . S
C107 C108 1.385 . S
C108 H76 0.930 . S
C108 C107 1.385 . S
C108 C109 1.357 . S
C109 C108 1.357 . S
C109 C110 1.406 . S
C110 H77 0.929 . S
C110 C109 1.406 . S
C110 C111 1.391 . S
C111 H78 0.931 . S
C111 C106 1.370 . S
C111 C110 1.391 . S
C112 N86 1.435 . S
C112 C113 1.358 . S
C112 C117 1.371 . S
C113 H79 0.930 . S
C113 C112 1.358 . S
C113 C114 1.405 . S
C114 H80 0.932 . S
C114 C113 1.405 . S
C114 C115 1.383 . S
C115 C114 1.383 . S
C115 C116 1.393 . S
C116 H81 0.931 . S
C116 C115 1.393 . S
C116 C117 1.382 . S
C117 H82 0.929 . S
C117 C112 1.371 . S
C117 C116 1.382 . S
C118 N86 1.423 . S
C118 C119 1.362 . S
C118 C123 1.388 . S
C119 H83 0.929 . S
C119 C118 1.362 . S
C119 C120 1.376 . S
C120 H84 0.931 . S
C120 C119 1.376 . S
C120 C121 1.396 . S
C121 C103 1.472 . S
C121 C120 1.396 . S
C121 C122 1.348 . S
C122 H85 0.929 . S
C122 C121 1.348 . S
C122 C123 1.443 . S
C123 H87 0.932 . S
C123 C118 1.388 . S
C123 C122 1.443 . S
H124 C151 0.929 . S
N125 C150 1.433 . S
N125 C156 1.435 . S
N125 C162 1.423 . S
H126 C152 0.930 . S
H127 C155 0.931 . S
H128 C154 0.929 . S
H129 C157 0.930 . S
H130 C158 0.932 . S
H131 C161 0.929 . S
H132 C160 0.931 . S
H133 C163 0.929 . S
H134 C167 0.932 . S
H135 C164 0.931 . S
H136 C166 0.929 . S
H137 C169 0.929 . S
H138 C170 0.930 . S
H139 C172 0.929 . S
H140 C173 0.931 . S
H141 C175 0.930 . S
H142 C176 0.932 . S
H143 C178 0.931 . S
H144 C179 0.929 . S
H145 C181 0.929 . S
H146 C182 0.931 . S
H147 C184 0.929 . S
N148 C168 1.433 . S
N148 C174 1.435 . S
N148 C180 1.423 . S
H149 C185 0.932 . S
C150 N125 1.433 . S
C150 C151 1.363 . S
C150 C155 1.370 . S
C151 H124 0.929 . S
C151 C150 1.363 . S
C151 C152 1.385 . S
C152 H126 0.930 . S
C152 C151 1.385 . S
C152 C153 1.357 . S
C153 C152 1.357 . S
C153 C154 1.406 . S
C154 H128 0.929 . S
C154 C153 1.406 . S
C154 C155 1.391 . S
C155 H127 0.931 . S
C155 C150 1.370 . S
C155 C154 1.391 . S
C156 N125 1.435 . S
C156 C157 1.358 . S
C156 C161 1.371 . S
C157 H129 0.930 . S
C157 C156 1.358 . S
C157 C158 1.405 . S
C158 H130 0.932 . S
C158 C157 1.405 . S
C158 C159 1.383 . S
C159 C158 1.383 . S
C159 C160 1.393 . S
C160 H132 0.931 . S
C160 C159 1.393 . S
C160 C161 1.382 . S
C161 H131 0.929 . S
C161 C156 1.371 . S
C161 C160 1.382 . S
C162 N125 1.423 . S
C162 C163 1.362 . S
C162 C167 1.388 . S
C163 H133 0.929 . S
C163 C162 1.362 . S
C163 C164 1.376 . S
C164 H135 0.931 . S
C164 C163 1.376 . S
C164 C165 1.396 . S
C165 C164 1.396 . S
C165 C166 1.348 . S
C165 C183 1.472 . S
C166 H136 0.929 . S
C166 C165 1.348 . S
C166 C167 1.443 . S
C167 H134 0.932 . S
C167 C162 1.388 . S
C167 C166 1.443 . S
C168 N148 1.433 . S
C168 C169 1.363 . S
C168 C173 1.370 . S
C169 H137 0.929 . S
C169 C168 1.363 . S
C169 C170 1.385 . S
C170 H138 0.930 . S
C170 C169 1.385 . S
C170 C171 1.357 . S
C171 C170 1.357 . S
C171 C172 1.406 . S
C172 H139 0.929 . S
C172 C171 1.406 . S
C172 C173 1.391 . S
C173 H140 0.931 . S
C173 C168 1.370 . S
C173 C172 1.391 . S
C174 N148 1.435 . S
C174 C175 1.358 . S
C174 C179 1.371 . S
C175 H141 0.930 . S
C175 C174 1.358 . S
C175 C176 1.405 . S
C176 H142 0.932 . S
C176 C175 1.405 . S
C176 C177 1.383 . S
C177 C176 1.383 . S
C177 C178 1.393 . S
C178 H143 0.931 . S
C178 C177 1.393 . S
C178 C179 1.382 . S
C179 H144 0.929 . S
C179 C174 1.371 . S
C179 C178 1.382 . S
C180 N148 1.423 . S
C180 C181 1.362 . S
C180 C185 1.388 . S
C181 H145 0.929 . S
C181 C180 1.362 . S
C181 C182 1.376 . S
C182 H146 0.931 . S
C182 C181 1.376 . S
C182 C183 1.396 . S
C183 C165 1.472 . S
C183 C182 1.396 . S
C183 C184 1.348 . S
C184 H147 0.929 . S
C184 C183 1.348 . S
C184 C185 1.443 . S
C185 H149 0.932 . S
C185 C180 1.388 . S
C185 C184 1.443 . S
H186 C213 0.929 . S
N187 C212 1.433 . S
N187 C218 1.435 . S
N187 C224 1.423 . S
H188 C214 0.930 . S
H189 C217 0.931 . S
H190 C216 0.929 . S
H191 C219 0.930 . S
H192 C220 0.932 . S
H193 C223 0.929 . S
H194 C222 0.931 . S
H195 C225 0.929 . S
H196 C229 0.932 . S
H197 C226 0.931 . S
H198 C228 0.929 . S
H199 C231 0.929 . S
H200 C232 0.930 . S
H201 C234 0.929 . S
H202 C235 0.931 . S
H203 C237 0.930 . S
H204 C238 0.932 . S
H205 C240 0.931 . S
H206 C241 0.929 . S
H207 C243 0.929 . S
H208 C244 0.931 1_565 S
H209 C246 0.929 . S
N210 C230 1.433 . S
N210 C236 1.435 . S
N210 C242 1.423 . S
H211 C247 0.932 . S
C212 N187 1.433 . S
C212 C213 1.363 . S
C212 C217 1.370 . S
C213 H186 0.929 . S
C213 C212 1.363 . S
C213 C214 1.385 . S
C214 H188 0.930 . S
C214 C213 1.385 . S
C214 C215 1.357 . S
C215 C214 1.357 . S
C215 C216 1.406 . S
C216 H190 0.929 . S
C216 C215 1.406 . S
C216 C217 1.391 . S
C217 H189 0.931 . S
C217 C212 1.370 . S
C217 C216 1.391 . S
C218 N187 1.435 . S
C218 C219 1.358 . S
C218 C223 1.371 . S
C219 H191 0.930 . S
C219 C218 1.358 . S
C219 C220 1.405 . S
C220 H192 0.932 . S
C220 C219 1.405 . S
C220 C221 1.383 . S
C221 C220 1.383 . S
C221 C222 1.393 . S
C222 H194 0.931 . S
C222 C221 1.393 . S
C222 C223 1.382 . S
C223 H193 0.929 . S
C223 C218 1.371 . S
C223 C222 1.382 . S
C224 N187 1.423 . S
C224 C225 1.362 . S
C224 C229 1.388 . S
C225 H195 0.929 . S
C225 C224 1.362 . S
C225 C226 1.376 . S
C226 H197 0.931 . S
C226 C225 1.376 . S
C226 C227 1.396 . S
C227 C226 1.396 . S
C227 C228 1.348 . S
C227 C245 1.467 1_565 S
C228 H198 0.929 . S
C228 C227 1.348 . S
C228 C229 1.443 . S
C229 H196 0.932 . S
C229 C224 1.388 . S
C229 C228 1.443 . S
C230 N210 1.433 . S
C230 C231 1.363 . S
C230 C235 1.370 . S
C231 H199 0.929 . S
C231 C230 1.363 . S
C231 C232 1.385 . S
C232 H200 0.930 . S
C232 C231 1.385 . S
C232 C233 1.357 . S
C233 C232 1.357 . S
C233 C234 1.406 . S
C234 H201 0.929 . S
C234 C233 1.406 . S
C234 C235 1.391 . S
C235 H202 0.931 . S
C235 C230 1.370 . S
C235 C234 1.391 . S
C236 N210 1.435 . S
C236 C237 1.358 . S
C236 C241 1.371 . S
C237 H203 0.930 . S
C237 C236 1.358 . S
C237 C238 1.405 . S
C238 H204 0.932 . S
C238 C237 1.405 . S
C238 C239 1.383 . S
C239 C238 1.383 . S
C239 C240 1.393 . S
C240 H205 0.931 . S
C240 C239 1.393 . S
C240 C241 1.382 . S
C241 H206 0.929 . S
C241 C236 1.371 . S
C241 C240 1.382 . S
C242 N210 1.423 . S
C242 C243 1.362 . S
C242 C247 1.388 . S
C243 H207 0.929 . S
C243 C242 1.362 . S
C243 C244 1.376 . S
C244 H208 0.931 1_545 S
C244 C243 1.376 . S
C244 C245 1.396 . S
C245 C227 1.467 1_545 S
C245 C244 1.396 . S
C245 C246 1.353 . S
C246 H209 0.929 . S
C246 C245 1.353 . S
C246 C247 1.443 . S
C247 H211 0.932 . S
C247 C242 1.388 . S
C247 C246 1.443 . S
H248 C275 0.929 . S
N249 C274 1.433 . S
N249 C280 1.435 . S
N249 C286 1.423 . S
H250 C276 0.930 . S
H251 C279 0.931 . S
H252 C278 0.929 . S
H253 C281 0.930 . S
H254 C282 0.932 . S
H255 C285 0.929 . S
H256 C284 0.931 . S
H257 C287 0.929 . S
H258 C291 0.932 . S
H259 C288 0.931 . S
H260 C290 0.929 . S
H261 C293 0.929 . S
H262 C294 0.930 . S
H263 C296 0.929 . S
H264 C297 0.931 . S
H265 C299 0.930 . S
H266 C300 0.932 . S
H267 C302 0.896 1_554 S
H268 C303 0.929 . S
H269 C305 0.929 . S
H270 C306 0.931 1_455 S
H271 C308 0.929 . S
N272 C292 1.433 . S
N272 C298 1.435 . S
N272 C304 1.423 . S
H273 C309 0.932 . S
C274 N249 1.433 . S
C274 C275 1.363 . S
C274 C279 1.370 . S
C275 H248 0.929 . S
C275 C274 1.363 . S
C275 C276 1.385 . S
C276 H250 0.930 . S
C276 C275 1.385 . S
C276 C277 1.357 . S
C277 C276 1.357 . S
C277 C278 1.406 . S
C278 H252 0.929 . S
C278 C277 1.406 . S
C278 C279 1.391 . S
C279 H251 0.931 . S
C279 C274 1.370 . S
C279 C278 1.391 . S
C280 N249 1.435 . S
C280 C281 1.358 . S
C280 C285 1.371 1_556 S
C281 H253 0.930 . S
C281 C280 1.358 . S
C281 C282 1.405 1_556 S
C282 H254 0.932 . S
C282 C281 1.405 1_554 S
C282 C283 1.383 . S
C283 C282 1.383 . S
C283 C284 1.393 . S
C284 H256 0.931 . S
C284 C283 1.393 . S
C284 C285 1.382 . S
C285 H255 0.929 . S
C285 C280 1.371 1_554 S
C285 C284 1.382 . S
C286 N249 1.423 . S
C286 C287 1.362 . S
C286 C291 1.388 . S
C287 H257 0.929 . S
C287 C286 1.362 . S
C287 C288 1.376 . S
C288 H259 0.931 . S
C288 C287 1.376 . S
C288 C289 1.396 . S
C289 C288 1.396 . S
C289 C290 1.348 . S
C289 C307 1.472 . S
C290 H260 0.929 . S
C290 C289 1.348 . S
C290 C291 1.443 . S
C291 H258 0.932 . S
C291 C286 1.388 . S
C291 C290 1.443 . S
C292 N272 1.433 . S
C292 C293 1.363 . S
C292 C297 1.370 . S
C293 H261 0.929 . S
C293 C292 1.363 . S
C293 C294 1.385 . S
C294 H262 0.930 . S
C294 C293 1.385 . S
C294 C295 1.357 . S
C295 C294 1.357 . S
C295 C296 1.406 . S
C296 H263 0.929 . S
C296 C295 1.406 . S
C296 C297 1.391 . S
C297 H264 0.931 . S
C297 C292 1.370 . S
C297 C296 1.391 . S
C298 N272 1.435 . S
C298 C299 1.358 . S
C298 C303 1.371 . S
C299 H265 0.930 . S
C299 C298 1.358 . S
C299 C300 1.405 . S
C300 H266 0.932 . S
C300 C299 1.405 . S
C300 C301 1.414 . S
C301 C300 1.414 . S
C301 C302 1.392 . S
C302 H267 0.896 1_556 S
C302 C301 1.392 . S
C302 C303 1.421 . S
C303 H268 0.929 . S
C303 C298 1.371 . S
C303 C302 1.421 . S
C304 N272 1.423 . S
C304 C305 1.362 . S
C304 C309 1.388 . S
C305 H269 0.929 . S
C305 C304 1.362 . S
C305 C306 1.376 . S
C306 H270 0.931 1_655 S
C306 C305 1.376 . S
C306 C307 1.396 1_655 S
C307 C289 1.472 . S
C307 C306 1.396 1_455 S
C307 C308 1.348 1_455 S
C308 H271 0.929 . S
C308 C307 1.348 1_655 S
C308 C309 1.443 . S
C309 H273 0.932 . S
C309 C304 1.388 . S
C309 C308 1.443 . S
H310 C337 0.929 . S
N311 C336 1.433 . S
N311 C342 1.435 . S
N311 C348 1.423 . S
H312 C338 0.930 . S
H313 C341 0.931 . S
H314 C340 0.929 . S
H315 C343 0.930 . S
H316 C344 0.932 . S
H317 C347 0.929 . S
H318 C346 0.931 . S
H319 C349 0.929 . S
H320 C353 0.932 . S
H321 C350 0.931 . S
H322 C352 0.929 . S
H323 C355 0.929 . S
H324 C356 0.930 . S
H325 C358 0.929 . S
H326 C359 0.931 . S
H327 C361 0.930 . S
H328 C362 0.932 . S
H329 C364 0.931 . S
H330 C365 0.929 . S
H331 C367 0.929 . S
H332 C368 0.931 . S
H333 C370 0.929 . S
N334 C354 1.433 . S
N334 C360 1.435 . S
N334 C366 1.423 . S
H335 C371 0.932 . S
C336 N311 1.433 . S
C336 C337 1.363 . S
C336 C341 1.370 . S
C337 H310 0.929 . S
C337 C336 1.363 . S
C337 C338 1.385 . S
C338 H312 0.930 . S
C338 C337 1.385 . S
C338 C339 1.357 . S
C339 C338 1.357 . S
C339 C340 1.406 . S
C340 H314 0.929 . S
C340 C339 1.406 . S
C340 C341 1.391 . S
C341 H313 0.931 . S
C341 C336 1.370 . S
C341 C340 1.391 . S
C342 N311 1.435 . S
C342 C343 1.358 . S
C342 C347 1.371 . S
C343 H315 0.930 . S
C343 C342 1.358 . S
C343 C344 1.405 . S
C344 H316 0.932 . S
C344 C343 1.405 . S
C344 C345 1.383 . S
C345 C344 1.383 . S
C345 C346 1.393 . S
C346 H318 0.931 . S
C346 C345 1.393 . S
C346 C347 1.382 . S
C347 H317 0.929 . S
C347 C342 1.371 . S
C347 C346 1.382 . S
C348 N311 1.423 . S
C348 C349 1.362 . S
C348 C353 1.388 . S
C349 H319 0.929 . S
C349 C348 1.362 . S
C349 C350 1.376 . S
C350 H321 0.931 . S
C350 C349 1.376 . S
C350 C351 1.396 . S
C351 C350 1.396 . S
C351 C352 1.348 . S
C351 C369 1.472 . S
C352 H322 0.929 . S
C352 C351 1.348 . S
C352 C353 1.443 . S
C353 H320 0.932 . S
C353 C348 1.388 . S
C353 C352 1.443 . S
C354 N334 1.433 . S
C354 C355 1.363 . S
C354 C359 1.370 . S
C355 H323 0.929 . S
C355 C354 1.363 . S
C355 C356 1.385 . S
C356 H324 0.930 . S
C356 C355 1.385 . S
C356 C357 1.357 . S
C357 C356 1.357 . S
C357 C358 1.406 . S
C358 H325 0.929 . S
C358 C357 1.406 . S
C358 C359 1.391 . S
C359 H326 0.931 . S
C359 C354 1.370 . S
C359 C358 1.391 . S
C360 N334 1.435 . S
C360 C361 1.358 . S
C360 C365 1.371 . S
C361 H327 0.930 . S
C361 C360 1.358 . S
C361 C362 1.405 . S
C362 H328 0.932 . S
C362 C361 1.405 . S
C362 C363 1.383 . S
C363 C362 1.383 . S
C363 C364 1.393 . S
C364 H329 0.931 . S
C364 C363 1.393 . S
C364 C365 1.382 . S
C365 H330 0.929 . S
C365 C360 1.371 . S
C365 C364 1.382 . S
C366 N334 1.423 . S
C366 C367 1.362 . S
C366 C371 1.388 . S
C367 H331 0.929 . S
C367 C366 1.362 . S
C367 C368 1.376 . S
C368 H332 0.931 . S
C368 C367 1.376 . S
C368 C369 1.396 . S
C369 C351 1.472 . S
C369 C368 1.396 . S
C369 C370 1.348 . S
C370 H333 0.929 . S
C370 C369 1.348 . S
C370 C371 1.443 . S
C371 H335 0.932 . S
C371 C366 1.388 . S
C371 C370 1.443 . S
H372 C399 0.929 . S
N373 C398 1.433 . S
N373 C404 1.435 . S
N373 C410 1.423 . S
H374 C400 0.930 . S
H375 C403 0.931 . S
H376 C402 0.929 . S
H377 C405 0.930 . S
H378 C406 0.932 . S
H379 C409 0.929 . S
H380 C408 0.931 . S
H381 C411 0.929 . S
H382 C415 0.932 . S
H383 C412 0.931 . S
H384 C414 0.929 . S
H385 C417 0.929 . S
H386 C418 0.930 . S
H387 C420 0.929 . S
H388 C421 0.931 . S
H389 C423 0.930 . S
H390 C424 0.932 . S
H391 C426 0.931 . S
H392 C427 0.929 . S
H393 C429 0.929 . S
H394 C430 0.931 . S
H395 C432 0.929 . S
N396 C416 1.433 . S
N396 C422 1.435 . S
N396 C428 1.423 . S
H397 C433 0.932 . S
C398 N373 1.433 . S
C398 C399 1.363 . S
C398 C403 1.370 . S
C399 H372 0.929 . S
C399 C398 1.363 . S
C399 C400 1.385 . S
C400 H374 0.930 . S
C400 C399 1.385 . S
C400 C401 1.357 . S
C401 C400 1.357 . S
C401 C402 1.406 . S
C402 H376 0.929 . S
C402 C401 1.406 . S
C402 C403 1.391 . S
C403 H375 0.931 . S
C403 C398 1.370 . S
C403 C402 1.391 . S
C404 N373 1.435 . S
C404 C405 1.358 . S
C404 C409 1.371 . S
C405 H377 0.930 . S
C405 C404 1.358 . S
C405 C406 1.405 . S
C406 H378 0.932 . S
C406 C405 1.405 . S
C406 C407 1.383 . S
C407 C406 1.383 . S
C407 C408 1.393 . S
C408 H380 0.931 . S
C408 C407 1.393 . S
C408 C409 1.382 . S
C409 H379 0.929 . S
C409 C404 1.371 . S
C409 C408 1.382 . S
C410 N373 1.423 . S
C410 C411 1.362 1_565 S
C410 C415 1.388 . S
C411 H381 0.929 . S
C411 C410 1.362 1_545 S
C411 C412 1.376 . S
C412 H383 0.931 . S
C412 C411 1.376 . S
C412 C413 1.396 . S
C413 C412 1.396 . S
C413 C414 1.348 . S
C413 C431 1.472 . S
C414 H384 0.929 . S
C414 C413 1.348 . S
C414 C415 1.443 1_545 S
C415 H382 0.932 . S
C415 C410 1.388 . S
C415 C414 1.443 1_565 S
C416 N396 1.433 . S
C416 C417 1.363 . S
C416 C421 1.370 . S
C417 H385 0.929 . S
C417 C416 1.363 . S
C417 C418 1.385 . S
C418 H386 0.930 . S
C418 C417 1.385 . S
C418 C419 1.357 . S
C419 C418 1.357 . S
C419 C420 1.406 . S
C420 H387 0.929 . S
C420 C419 1.406 . S
C420 C421 1.391 . S
C421 H388 0.931 . S
C421 C416 1.370 . S
C421 C420 1.391 . S
C422 N396 1.435 . S
C422 C423 1.358 . S
C422 C427 1.371 . S
C423 H389 0.930 . S
C423 C422 1.358 . S
C423 C424 1.405 . S
C424 H390 0.932 . S
C424 C423 1.405 . S
C424 C425 1.383 . S
C425 C424 1.383 . S
C425 C426 1.393 . S
C426 H391 0.931 . S
C426 C425 1.393 . S
C426 C427 1.382 . S
C427 H392 0.929 . S
C427 C422 1.371 . S
C427 C426 1.382 . S
C428 N396 1.423 . S
C428 C429 1.362 . S
C428 C433 1.388 . S
C429 H393 0.929 . S
C429 C428 1.362 . S
C429 C430 1.376 . S
C430 H394 0.931 . S
C430 C429 1.376 . S
C430 C431 1.396 . S
C431 C413 1.472 . S
C431 C430 1.396 . S
C431 C432 1.348 . S
C432 H395 0.929 . S
C432 C431 1.348 . S
C432 C433 1.443 . S
C433 H397 0.932 . S
C433 C428 1.388 . S
C433 C432 1.443 . S
H434 C461 0.929 . S
N435 C460 1.433 . S
N435 C466 1.435 . S
N435 C472 1.423 . S
H436 C462 0.930 . S
H437 C465 0.931 . S
H438 C464 0.929 . S
H439 C467 0.930 . S
H440 C468 0.932 1_565 S
H441 C471 0.929 . S
H442 C470 0.934 . S
H443 C473 0.929 . S
H444 C477 0.932 . S
H445 C474 0.931 . S
H446 C476 0.929 . S
H447 C479 0.929 . S
H448 C480 0.930 . S
H449 C482 0.929 . S
H450 C483 0.931 . S
H451 C485 0.930 . S
H452 C486 0.932 . S
H453 C488 0.931 . S
H454 C489 0.929 . S
H455 C491 0.929 1_655 S
H456 C492 0.931 . S
H457 C494 0.929 . S
N458 C478 1.433 . S
N458 C484 1.435 . S
N458 C490 1.423 1_655 S
H459 C495 0.932 . S
C460 N435 1.433 . S
C460 C461 1.363 1_545 S
C460 C465 1.370 . S
C461 H434 0.929 . S
C461 C460 1.363 1_565 S
C461 C462 1.385 . S
C462 H436 0.930 . S
C462 C461 1.385 . S
C462 C463 1.357 1_565 S
C463 C462 1.357 1_545 S
C463 C464 1.406 . S
C464 H438 0.929 . S
C464 C463 1.406 . S
C464 C465 1.391 . S
C465 H437 0.931 . S
C465 C460 1.370 . S
C465 C464 1.391 . S
C466 N435 1.435 . S
C466 C467 1.358 . S
C466 C471 1.371 . S
C467 H439 0.930 . S
C467 C466 1.358 . S
C467 C468 1.405 . S
C468 H440 0.932 1_545 S
C468 C467 1.405 . S
C468 C469 1.383 1_545 S
C469 C468 1.383 1_565 S
C469 C470 1.395 . S
C470 H442 0.934 . S
C470 C469 1.395 . S
C470 C471 1.378 1_565 S
C471 H441 0.929 . S
C471 C466 1.371 . S
C471 C470 1.378 1_545 S
C472 N435 1.423 . S
C472 C473 1.362 . S
C472 C477 1.388 . S
C473 H443 0.929 . S
C473 C472 1.362 . S
C473 C474 1.376 . S
C474 H445 0.931 . S
C474 C473 1.376 . S
C474 C475 1.396 . S
C475 C474 1.396 . S
C475 C476 1.348 . S
C475 C493 1.472 . S
C476 H446 0.929 . S
C476 C475 1.348 . S
C476 C477 1.443 . S
C477 H444 0.932 . S
C477 C472 1.388 . S
C477 C476 1.443 . S
C478 N458 1.433 . S
C478 C479 1.363 . S
C478 C483 1.370 1_655 S
C479 H447 0.929 . S
C479 C478 1.363 . S
C479 C480 1.385 . S
C480 H448 0.930 . S
C480 C479 1.385 . S
C480 C481 1.357 . S
C481 C480 1.357 . S
C481 C482 1.406 1_655 S
C482 H449 0.929 . S
C482 C481 1.406 1_455 S
C482 C483 1.391 . S
C483 H450 0.931 . S
C483 C478 1.370 1_455 S
C483 C482 1.391 . S
C484 N458 1.435 . S
C484 C485 1.358 . S
C484 C489 1.371 . S
C485 H451 0.930 . S
C485 C484 1.358 . S
C485 C486 1.405 . S
C486 H452 0.932 . S
C486 C485 1.405 . S
C486 C487 1.383 . S
C487 C486 1.383 . S
C487 C488 1.393 . S
C488 H453 0.931 . S
C488 C487 1.393 . S
C488 C489 1.382 . S
C489 H454 0.929 . S
C489 C484 1.371 . S
C489 C488 1.382 . S
C490 N458 1.423 1_455 S
C490 C491 1.362 . S
C490 C495 1.388 . S
C491 H455 0.929 1_455 S
C491 C490 1.362 . S
C491 C492 1.376 . S
C492 H456 0.931 . S
C492 C491 1.376 . S
C492 C493 1.396 . S
C493 C475 1.472 . S
C493 C492 1.396 . S
C493 C494 1.348 . S
C494 H457 0.929 . S
C494 C493 1.348 . S
C494 C495 1.443 . S
C495 H459 0.932 . S
C495 C490 1.388 . S
C495 C494 1.443 . S
O496 Cd497 2.223 . S
O496 C504 1.315 . S
Cd497 O496 2.223 . S
Cd497 O500 2.297 . S
Cd497 O501 2.439 . S
Cd497 O507 2.240 . S
Cd498 O499 2.240 . S
Cd498 O506 2.223 . S
Cd498 O508 2.297 . S
Cd498 O509 2.439 . S
O499 Cd498 2.240 . S
O499 C504 1.279 . S
O500 Cd497 2.297 . S
O500 C502 1.247 . S
O501 Cd497 2.439 . S
O501 C502 1.208 . S
C502 O500 1.247 . S
C502 O501 1.208 . S
C503 O508 1.247 . S
C503 O509 1.208 . S
C504 O496 1.315 . S
C504 O499 1.279 . S
C505 O506 1.315 . S
C505 O507 1.279 . S
O506 Cd498 2.223 . S
O506 C505 1.315 . S
O507 Cd497 2.240 . S
O507 C505 1.279 . S
O508 Cd498 2.297 . S
O508 C503 1.247 . S
O509 Cd498 2.439 . S
O509 C503 1.208 . S
O510 Cd511 2.223 . S
O510 C518 1.315 . S
Cd511 O510 2.223 . S
Cd511 O514 2.297 . S
Cd511 O515 2.439 . S
Cd511 O521 2.240 . S
Cd512 O513 2.240 . S
Cd512 O520 2.223 . S
Cd512 O522 2.297 . S
Cd512 O523 2.439 . S
O513 Cd512 2.240 . S
O513 C518 1.279 . S
O514 Cd511 2.297 . S
O514 C516 1.247 . S
O515 Cd511 2.439 . S
O515 C516 1.208 . S
C516 O514 1.247 . S
C516 O515 1.208 . S
C517 O522 1.247 . S
C517 O523 1.208 . S
C518 O510 1.315 . S
C518 O513 1.279 . S
C519 O520 1.315 . S
C519 O521 1.279 . S
O520 Cd512 2.223 . S
O520 C519 1.315 . S
O521 Cd511 2.240 . S
O521 C519 1.279 . S
O522 Cd512 2.297 . S
O522 C517 1.247 . S
O523 Cd512 2.439 . S
O523 C517 1.208 . S
O524 Cd525 2.223 . S
O524 C532 1.315 . S
Cd525 O524 2.223 . S
Cd525 O528 2.297 . S
Cd525 O529 2.439 . S
Cd525 O535 2.240 . S
Cd526 O527 2.240 . S
Cd526 O534 2.223 . S
Cd526 O536 2.297 . S
Cd526 O537 2.439 . S
O527 Cd526 2.240 . S
O527 C532 1.279 . S
O528 Cd525 2.297 . S
O528 C530 1.247 . S
O529 Cd525 2.439 . S
O529 C530 1.208 . S
C530 O528 1.247 . S
C530 O529 1.208 . S
C531 O536 1.247 . S
C531 O537 1.208 . S
C532 O524 1.315 . S
C532 O527 1.279 . S
C533 O534 1.315 . S
C533 O535 1.279 . S
O534 Cd526 2.223 . S
O534 C533 1.315 . S
O535 Cd525 2.240 . S
O535 C533 1.279 . S
O536 Cd526 2.297 . S
O536 C531 1.247 . S
O537 Cd526 2.439 . S
O537 C531 1.208 . S
O538 Cd539 2.223 . S
O538 C546 1.315 . S
Cd539 O538 2.223 . S
Cd539 O542 2.297 . S
Cd539 O543 2.439 . S
Cd539 O549 2.240 . S
Cd540 O541 2.240 . S
Cd540 O548 2.223 . S
Cd540 O550 2.297 . S
Cd540 O551 2.439 . S
O541 Cd540 2.240 . S
O541 C546 1.279 . S
O542 Cd539 2.297 . S
O542 C544 1.247 . S
O543 Cd539 2.439 . S
O543 C544 1.208 . S
C544 O542 1.247 . S
C544 O543 1.208 . S
C545 O550 1.247 . S
C545 O551 1.208 . S
C546 O538 1.315 . S
C546 O541 1.279 . S
C547 O548 1.315 . S
C547 O549 1.279 . S
O548 Cd540 2.223 . S
O548 C547 1.315 . S
O549 Cd539 2.240 . S
O549 C547 1.279 . S
O550 Cd540 2.297 . S
O550 C545 1.247 . S
O551 Cd540 2.439 . S
O551 C545 1.208 . S
O552 Cd553 2.223 . S
O552 C560 1.315 . S
Cd553 O552 2.223 . S
Cd553 O556 2.297 . S
Cd553 O557 2.439 . S
Cd553 O563 2.240 . S
Cd554 O555 2.240 . S
Cd554 O562 2.223 . S
Cd554 O564 2.297 . S
Cd554 O565 2.439 . S
O555 Cd554 2.240 . S
O555 C560 1.279 . S
O556 Cd553 2.297 . S
O556 C558 1.247 . S
O557 Cd553 2.439 . S
O557 C558 1.208 . S
C558 O556 1.247 . S
C558 O557 1.208 . S
C559 O564 1.247 . S
C559 O565 1.208 . S
C560 O552 1.315 . S
C560 O555 1.279 . S
C561 O562 1.315 . S
C561 O563 1.279 . S
O562 Cd554 2.223 . S
O562 C561 1.315 . S
O563 Cd553 2.240 . S
O563 C561 1.279 . S
O564 Cd554 2.297 . S
O564 C559 1.247 . S
O565 Cd554 2.439 . S
O565 C559 1.208 . S
O566 Cd567 2.223 . S
O566 C574 1.315 . S
Cd567 O566 2.223 . S
Cd567 O570 2.297 . S
Cd567 O571 2.439 . S
Cd567 O577 2.240 . S
Cd568 O569 2.240 . S
Cd568 O576 2.223 . S
Cd568 O578 2.297 . S
Cd568 O579 2.439 . S
O569 Cd568 2.240 . S
O569 C574 1.279 . S
O570 Cd567 2.297 . S
O570 C572 1.247 . S
O571 Cd567 2.439 . S
O571 C572 1.208 . S
C572 O570 1.247 . S
C572 O571 1.208 . S
C573 O578 1.247 . S
C573 O579 1.208 . S
C574 O566 1.315 . S
C574 O569 1.279 . S
C575 O576 1.315 . S
C575 O577 1.279 . S
O576 Cd568 2.223 . S
O576 C575 1.315 . S
O577 Cd567 2.240 . S
O577 C575 1.279 . S
O578 Cd568 2.297 . S
O578 C573 1.247 . S
O579 Cd568 2.439 . S
O579 C573 1.208 . S
O580 Cd581 2.223 . S
O580 C588 1.315 . S
Cd581 O580 2.223 . S
Cd581 O584 2.297 . S
Cd581 O585 2.439 . S
Cd581 O591 2.240 1_554 S
Cd582 O583 2.240 1_556 S
Cd582 O590 2.223 1_556 S
Cd582 O592 2.297 . S
Cd582 O593 2.439 . S
O583 Cd582 2.240 1_554 S
O583 C588 1.279 . S
O584 Cd581 2.297 . S
O584 C586 1.247 . S
O585 Cd581 2.439 . S
O585 C586 1.208 . S
C586 O584 1.247 . S
C586 O585 1.208 . S
C587 O592 1.247 . S
C587 O593 1.208 . S
C588 O580 1.315 . S
C588 O583 1.279 . S
C589 O590 1.313 1_556 S
C589 O591 1.279 . S
O590 Cd582 2.223 1_554 S
O590 C589 1.313 1_554 S
O591 Cd581 2.240 1_556 S
O591 C589 1.279 . S
O592 Cd582 2.297 . S
O592 C587 1.247 . S
O593 Cd582 2.439 . S
O593 C587 1.208 . S
O594 Cd595 2.223 . S
O594 C602 1.315 . S
Cd595 O594 2.223 . S
Cd595 O598 2.297 . S
Cd595 O599 2.439 . S
Cd595 O605 2.240 . S
Cd596 O597 2.240 . S
Cd596 O604 2.223 . S
Cd596 O606 2.297 . S
Cd596 O607 2.439 . S
O597 Cd596 2.240 . S
O597 C602 1.279 . S
O598 Cd595 2.297 . S
O598 C600 1.247 . S
O599 Cd595 2.439 . S
O599 C600 1.208 . S
C600 O598 1.247 . S
C600 O599 1.208 . S
C601 O606 1.247 . S
C601 O607 1.208 . S
C602 O594 1.315 . S
C602 O597 1.279 . S
C603 O604 1.315 . S
C603 O605 1.279 . S
O604 Cd596 2.223 . S
O604 C603 1.315 . S
O605 Cd595 2.240 . S
O605 C603 1.279 . S
O606 Cd596 2.297 . S
O606 C601 1.247 . S
O607 Cd596 2.439 . S
O607 C601 1.208 . S
C608 C609 1.387 . S
C608 H612 0.950 . S
C608 C617 1.390 . S
C609 C608 1.387 . S
C609 C611 1.387 . S
H610 C617 0.950 . S
C611 C609 1.387 . S
C611 C613 1.390 . S
C611 H615 0.950 . S
H612 C608 0.950 . S
C613 C611 1.390 . S
C613 C614 1.387 . S
C613 H616 0.950 . S
C614 C613 1.387 . S
C614 C617 1.387 . S
H615 C611 0.950 . S
H616 C613 0.950 . S
C617 C608 1.390 . S
C617 H610 0.950 . S
C617 C614 1.387 . S
C618 C619 1.387 . S
C618 H622 0.950 . S
C618 C627 1.390 . S
C619 C618 1.387 . S
C619 C621 1.387 . S
H620 C627 0.950 . S
C621 C619 1.387 . S
C621 C623 1.390 . S
C621 H625 0.950 . S
H622 C618 0.950 . S
C623 C621 1.390 . S
C623 C624 1.387 . S
C623 H626 0.950 . S
C624 C623 1.387 . S
C624 C627 1.387 . S
H625 C621 0.950 . S
H626 C623 0.950 . S
C627 C618 1.390 . S
C627 H620 0.950 . S
C627 C624 1.387 . S
C628 C629 1.387 . S
C628 H632 0.950 . S
C628 C637 1.390 . S
C629 C628 1.387 . S
C629 C631 1.387 . S
H630 C637 0.950 . S
C631 C629 1.387 . S
C631 C633 1.390 . S
C631 H635 0.950 . S
H632 C628 0.950 . S
C633 C631 1.390 . S
C633 C634 1.387 . S
C633 H636 0.950 . S
C634 C633 1.387 . S
C634 C637 1.387 . S
H635 C631 0.950 . S
H636 C633 0.950 . S
C637 C628 1.390 . S
C637 H630 0.950 . S
C637 C634 1.387 . S
C638 C639 1.387 . S
C638 H642 0.950 1_554 S
C638 C647 1.390 . S
C639 C638 1.387 . S
C639 C641 1.387 . S
H640 C647 0.950 . S
C641 C639 1.387 . S
C641 C643 1.390 . S
C641 H645 0.950 . S
H642 C638 0.950 1_556 S
C643 C641 1.390 . S
C643 C644 1.387 . S
C643 H646 0.950 . S
C644 C643 1.387 . S
C644 C647 1.387 . S
H645 C641 0.950 . S
H646 C643 0.950 . S
C647 C638 1.390 . S
C647 H640 0.950 . S
C647 C644 1.387 . S
C648 C649 1.387 . S
C648 H652 0.950 . S
C648 C657 1.390 . S
C649 C648 1.387 . S
C649 C651 1.387 . S
H650 C657 0.950 . S
C651 C649 1.387 . S
C651 C653 1.390 . S
C651 H655 0.950 . S
H652 C648 0.950 . S
C653 C651 1.390 . S
C653 C654 1.387 . S
C653 H656 0.950 . S
C654 C653 1.387 . S
C654 C657 1.387 . S
H655 C651 0.950 . S
H656 C653 0.950 . S
C657 C648 1.390 . S
C657 H650 0.950 . S
C657 C654 1.387 . S
C658 C659 1.387 . S
C658 H662 0.950 . S
C658 C667 1.390 . S
C659 C658 1.387 . S
C659 C661 1.387 . S
H660 C667 0.950 . S
C661 C659 1.387 . S
C661 C663 1.390 . S
C661 H665 0.950 . S
H662 C658 0.950 . S
C663 C661 1.390 . S
C663 C664 1.387 . S
C663 H666 0.950 . S
C664 C663 1.387 . S
C664 C667 1.387 . S
H665 C661 0.950 . S
H666 C663 0.950 . S
C667 C658 1.390 . S
C667 H660 0.950 . S
C667 C664 1.387 . S
C668 C669 1.387 . S
C668 H672 0.950 . S
C668 C677 1.390 . S
C669 C668 1.387 . S
C669 C671 1.387 . S
H670 C677 0.950 . S
C671 C669 1.387 . S
C671 C673 1.390 . S
C671 H675 0.950 . S
H672 C668 0.950 . S
C673 C671 1.390 . S
C673 C674 1.387 . S
C673 H676 0.950 . S
C674 C673 1.387 . S
C674 C677 1.387 . S
H675 C671 0.950 . S
H676 C673 0.950 . S
C677 C668 1.390 . S
C677 H670 0.950 . S
C677 C674 1.387 . S
C678 C679 1.387 . S
C678 H682 0.950 . S
C678 C687 1.390 . S
C679 C678 1.387 . S
C679 C681 1.387 . S
H680 C687 0.950 . S
C681 C679 1.387 . S
C681 C683 1.390 . S
C681 H685 0.950 . S
H682 C678 0.950 . S
C683 C681 1.390 . S
C683 C684 1.387 . S
C683 H686 0.950 . S
C684 C683 1.387 . S
C684 C687 1.387 . S
H685 C681 0.950 . S
H686 C683 0.950 . S
C687 C678 1.390 . S
C687 H680 0.950 . S
C687 C684 1.387 . S
C688 C689 1.387 . S
C688 H692 0.950 . S
C688 C697 1.390 . S
C689 C688 1.387 . S
C689 C691 1.387 . S
H690 C697 0.950 . S
C691 C689 1.387 . S
C691 C693 1.390 . S
C691 H695 0.950 . S
H692 C688 0.950 . S
C693 C691 1.390 . S
C693 C694 1.387 . S
C693 H696 0.950 . S
C694 C693 1.387 . S
C694 C697 1.387 . S
H695 C691 0.950 . S
H696 C693 0.950 . S
C697 C688 1.390 . S
C697 H690 0.950 . S
C697 C694 1.387 . S
C698 C699 1.363 1_556 S
C698 H702 0.972 . S
C698 C707 1.388 . S
C699 C698 1.363 1_554 S
C699 C701 1.387 . S
H700 C707 0.994 . S
C701 C699 1.387 . S
C701 C703 1.390 . S
C701 H705 0.950 . S
H702 C698 0.972 . S
C703 C701 1.390 . S
C703 C704 1.387 . S
C703 H706 0.950 . S
C704 C703 1.387 . S
C704 C707 1.349 1_554 S
H705 C701 0.950 . S
H706 C703 0.950 . S
C707 C698 1.388 . S
C707 H700 0.994 . S
C707 C704 1.349 1_556 S
C708 C709 1.387 . S
C708 H712 0.950 . S
C708 C717 1.390 . S
C709 C708 1.387 . S
C709 C711 1.387 . S
H710 C717 0.950 . S
C711 C709 1.387 . S
C711 C713 1.390 . S
C711 H715 0.950 . S
H712 C708 0.950 . S
C713 C711 1.390 . S
C713 C714 1.387 . S
C713 H716 0.950 . S
C714 C713 1.387 . S
C714 C717 1.387 . S
H715 C711 0.950 . S
H716 C713 0.950 . S
C717 C708 1.390 . S
C717 H710 0.950 . S
C717 C714 1.387 . S
C718 C719 1.387 . S
C718 H722 0.950 . S
C718 C727 1.390 . S
C719 C718 1.387 . S
C719 C721 1.387 . S
H720 C727 0.950 . S
C721 C719 1.387 . S
C721 C723 1.390 . S
C721 H725 0.950 . S
H722 C718 0.950 . S
C723 C721 1.390 . S
C723 C724 1.387 . S
C723 H726 0.950 . S
C724 C723 1.387 . S
C724 C727 1.387 . S
H725 C721 0.950 . S
H726 C723 0.950 . S
C727 C718 1.390 . S
C727 H720 0.950 . S
C727 C724 1.387 . S
C728 C729 1.387 . S
C728 H732 0.950 . S
C728 C737 1.390 . S
C729 C728 1.387 . S
C729 C731 1.387 . S
H730 C737 0.950 . S
C731 C729 1.387 . S
C731 C733 1.390 . S
C731 H735 0.950 . S
H732 C728 0.950 . S
C733 C731 1.390 . S
C733 C734 1.387 . S
C733 H736 0.950 . S
C734 C733 1.387 . S
C734 C737 1.387 . S
H735 C731 0.950 . S
H736 C733 0.950 . S
C737 C728 1.390 . S
C737 H730 0.950 . S
C737 C734 1.387 . S
C738 C739 1.387 . S
C738 H742 0.950 . S
C738 C747 1.390 . S
C739 C738 1.387 . S
C739 C741 1.387 . S
H740 C747 0.950 . S
C741 C739 1.387 . S
C741 C743 1.390 . S
C741 H745 0.950 . S
H742 C738 0.950 . S
C743 C741 1.390 . S
C743 C744 1.387 . S
C743 H746 0.950 . S
C744 C743 1.387 . S
C744 C747 1.387 . S
H745 C741 0.950 . S
H746 C743 0.950 . S
C747 C738 1.390 . S
C747 H740 0.950 . S
C747 C744 1.387 . S
C748 C749 1.387 1_556 S
C748 H752 0.950 . S
C748 C757 1.390 . S
C749 C748 1.387 1_554 S
C749 C751 1.387 . S
H750 C757 0.950 . S
C751 C749 1.387 . S
C751 C753 1.390 . S
C751 H755 0.950 . S
H752 C748 0.950 . S
C753 C751 1.390 . S
C753 C754 1.353 1_554 S
C753 H756 0.950 . S
C754 C753 1.353 1_556 S
C754 C757 1.420 . S
H755 C751 0.950 . S
H756 C753 0.950 . S
C757 C748 1.390 . S
C757 H750 0.950 . S
C757 C754 1.420 . S
C758 C759 1.387 . S
C758 H762 0.950 . S
C758 C767 1.390 . S
C759 C758 1.387 . S
C759 C761 1.387 . S
H760 C767 0.950 . S
C761 C759 1.387 . S
C761 C763 1.390 . S
C761 H765 0.950 . S
H762 C758 0.950 . S
C763 C761 1.390 . S
C763 C764 1.387 . S
C763 H766 0.950 . S
C764 C763 1.387 . S
C764 C767 1.387 . S
H765 C761 0.950 . S
H766 C763 0.950 . S
C767 C758 1.390 . S
C767 H760 0.950 . S
C767 C764 1.387 . S
C768 C769 1.387 . S
C768 H772 0.950 . S
C768 C777 1.390 . S
C769 C768 1.387 . S
C769 C771 1.387 . S
H770 C777 0.950 . S
C771 C769 1.387 . S
C771 C773 1.390 . S
C771 H775 0.950 . S
H772 C768 0.950 . S
C773 C771 1.390 . S
C773 C774 1.387 . S
C773 H776 0.950 . S
C774 C773 1.387 . S
C774 C777 1.387 . S
H775 C771 0.950 . S
H776 C773 0.950 . S
C777 C768 1.390 . S
C777 H770 0.950 . S
C777 C774 1.387 . S
C778 C779 1.387 . S
C778 H782 0.950 . S
C778 C787 1.390 . S
C779 C778 1.387 . S
C779 C781 1.387 . S
H780 C787 0.950 . S
C781 C779 1.387 . S
C781 C783 1.390 . S
C781 H785 0.950 . S
H782 C778 0.950 . S
C783 C781 1.390 . S
C783 C784 1.387 . S
C783 H786 0.950 . S
C784 C783 1.387 . S
C784 C787 1.387 . S
H785 C781 0.950 . S
H786 C783 0.950 . S
C787 C778 1.390 . S
C787 H780 0.950 . S
C787 C784 1.387 . S
C788 C789 1.387 . S
C788 H792 0.950 . S
C788 C797 1.390 . S
C789 C788 1.387 . S
C789 C791 1.387 . S
H790 C797 0.950 . S
C791 C789 1.387 . S
C791 C793 1.390 . S
C791 H795 0.950 . S
H792 C788 0.950 . S
C793 C791 1.390 . S
C793 C794 1.387 . S
C793 H796 0.950 . S
C794 C793 1.387 . S
C794 C797 1.387 . S
H795 C791 0.950 . S
H796 C793 0.950 . S
C797 C788 1.390 . S
C797 H790 0.950 . S
C797 C794 1.387 . S
C798 C799 1.387 . S
C798 H802 0.950 . S
C798 C807 1.390 . S
C799 C798 1.387 . S
C799 C801 1.387 . S
H800 C807 0.950 . S
C801 C799 1.387 . S
C801 C803 1.390 . S
C801 H805 0.950 . S
H802 C798 0.950 . S
C803 C801 1.390 . S
C803 C804 1.387 . S
C803 H806 0.950 . S
C804 C803 1.387 . S
C804 C807 1.387 . S
H805 C801 0.950 . S
H806 C803 0.950 . S
C807 C798 1.390 . S
C807 H800 0.950 . S
C807 C804 1.387 . S
C808 C809 1.387 . S
C808 H812 0.950 . S
C808 C817 1.390 . S
C809 C808 1.387 . S
C809 C811 1.387 . S
H810 C817 0.950 . S
C811 C809 1.387 . S
C811 C813 1.390 . S
C811 H815 0.950 . S
H812 C808 0.950 . S
C813 C811 1.390 . S
C813 C814 1.387 . S
C813 H816 0.950 . S
C814 C813 1.387 . S
C814 C817 1.387 . S
H815 C811 0.950 . S
H816 C813 0.950 . S
C817 C808 1.390 . S
C817 H810 0.950 . S
C817 C814 1.387 . S
C818 C819 1.387 . S
C818 H822 0.950 . S
C818 C827 1.390 . S
C819 C818 1.387 . S
C819 C821 1.387 . S
H820 C827 0.950 . S
C821 C819 1.387 . S
C821 C823 1.390 . S
C821 H825 0.950 . S
H822 C818 0.950 . S
C823 C821 1.390 . S
C823 C824 1.387 . S
C823 H826 0.950 . S
C824 C823 1.387 . S
C824 C827 1.387 . S
H825 C821 0.950 . S
H826 C823 0.950 . S
C827 C818 1.390 . S
C827 H820 0.950 . S
C827 C824 1.387 . S
C828 C829 1.387 . S
C828 H832 0.950 . S
C828 C837 1.390 . S
C829 C828 1.387 . S
C829 C831 1.387 . S
H830 C837 0.950 . S
C831 C829 1.387 . S
C831 C833 1.390 . S
C831 H835 0.950 . S
H832 C828 0.950 . S
C833 C831 1.390 . S
C833 C834 1.387 . S
C833 H836 0.950 . S
C834 C833 1.387 . S
C834 C837 1.387 . S
H835 C831 0.950 . S
H836 C833 0.950 . S
C837 C828 1.390 . S
C837 H830 0.950 . S
C837 C834 1.387 . S
C838 C839 1.387 . S
C838 H842 0.950 1_565 S
C838 C847 1.390 . S
C839 C838 1.387 . S
C839 C841 1.387 . S
H840 C847 0.950 . S
C841 C839 1.387 . S
C841 C843 1.390 . S
C841 H845 0.950 . S
H842 C838 0.950 1_545 S
C843 C841 1.390 . S
C843 C844 1.387 . S
C843 H846 0.950 . S
C844 C843 1.387 . S
C844 C847 1.387 . S
H845 C841 0.950 . S
H846 C843 0.950 . S
C847 C838 1.390 . S
C847 H840 0.950 . S
C847 C844 1.387 . S
C848 C849 1.387 . S
C848 H852 0.950 . S
C848 C857 1.390 . S
C849 C848 1.387 . S
C849 C851 1.387 . S
H850 C857 0.950 . S
C851 C849 1.387 . S
C851 C853 1.390 . S
C851 H855 0.950 . S
H852 C848 0.950 . S
C853 C851 1.390 . S
C853 C854 1.387 . S
C853 H856 0.950 . S
C854 C853 1.387 . S
C854 C857 1.387 . S
H855 C851 0.950 . S
H856 C853 0.950 . S
C857 C848 1.390 . S
C857 H850 0.950 . S
C857 C854 1.387 . S
C858 C859 1.387 . S
C858 H862 0.950 . S
C858 C867 1.390 . S
C859 C858 1.387 . S
C859 C861 1.387 . S
H860 C867 0.950 . S
C861 C859 1.387 . S
C861 C863 1.390 . S
C861 H865 0.950 . S
H862 C858 0.950 . S
C863 C861 1.390 . S
C863 C864 1.387 . S
C863 H866 0.950 . S
C864 C863 1.387 . S
C864 C867 1.387 . S
H865 C861 0.950 . S
H866 C863 0.950 . S
C867 C858 1.390 . S
C867 H860 0.950 . S
C867 C864 1.387 . S
C868 C869 1.387 . S
C868 H872 0.950 . S
C868 C877 1.390 . S
C869 C868 1.387 . S
C869 C871 1.387 . S
H870 C877 0.950 . S
C871 C869 1.387 . S
C871 C873 1.390 . S
C871 H875 0.950 . S
H872 C868 0.950 . S
C873 C871 1.390 . S
C873 C874 1.387 . S
C873 H876 0.950 . S
C874 C873 1.387 . S
C874 C877 1.387 . S
H875 C871 0.950 . S
H876 C873 0.950 . S
C877 C868 1.390 . S
C877 H870 0.950 . S
C877 C874 1.387 . S
C878 C879 1.387 . S
C878 H882 0.950 . S
C878 C887 1.390 . S
C879 C878 1.387 . S
C879 C881 1.387 . S
H880 C887 0.950 . S
C881 C879 1.387 . S
C881 C883 1.390 . S
C881 H885 0.950 . S
H882 C878 0.950 . S
C883 C881 1.390 . S
C883 C884 1.387 . S
C883 H886 0.950 . S
C884 C883 1.387 . S
C884 C887 1.387 . S
H885 C881 0.950 . S
H886 C883 0.950 . S
C887 C878 1.390 . S
C887 H880 0.950 . S
C887 C884 1.387 . S
C888 C889 1.387 . S
C888 H892 0.950 . S
C888 C897 1.390 . S
C889 C888 1.387 . S
C889 C891 1.387 . S
H890 C897 0.950 . S
C891 C889 1.387 . S
C891 C893 1.390 . S
C891 H895 0.950 . S
H892 C888 0.950 . S
C893 C891 1.390 . S
C893 C894 1.387 . S
C893 H896 0.950 . S
C894 C893 1.387 . S
C894 C897 1.387 . S
H895 C891 0.950 . S
H896 C893 0.950 . S
C897 C888 1.390 . S
C897 H890 0.950 . S
C897 C894 1.387 . S
C898 C899 1.387 . S
C898 H902 0.950 . S
C898 C907 1.390 . S
C899 C898 1.387 . S
C899 C901 1.387 . S
H900 C907 0.950 . S
C901 C899 1.387 . S
C901 C903 1.390 . S
C901 H905 0.950 . S
H902 C898 0.950 . S
C903 C901 1.390 . S
C903 C904 1.387 . S
C903 H906 0.950 . S
C904 C903 1.387 . S
C904 C907 1.387 . S
H905 C901 0.950 . S
H906 C903 0.950 . S
C907 C898 1.390 . S
C907 H900 0.950 . S
C907 C904 1.387 . S
C908 C909 1.387 . S
C908 H912 0.950 . S
C908 C917 1.390 . S
C909 C908 1.387 . S
C909 C911 1.387 . S
H910 C917 0.950 . S
C911 C909 1.387 . S
C911 C913 1.390 . S
C911 H915 0.950 . S
H912 C908 0.950 . S
C913 C911 1.390 . S
C913 C914 1.387 . S
C913 H916 0.950 . S
C914 C913 1.387 . S
C914 C917 1.387 . S
H915 C911 0.950 . S
H916 C913 0.950 . S
C917 C908 1.390 . S
C917 H910 0.950 . S
C917 C914 1.387 . S
C918 C919 1.387 . S
C918 H922 0.950 . S
C918 C927 1.390 . S
C919 C918 1.387 . S
C919 C921 1.387 . S
H920 C927 0.950 . S
C921 C919 1.387 . S
C921 C923 1.390 . S
C921 H925 0.950 . S
H922 C918 0.950 . S
C923 C921 1.390 . S
C923 C924 1.387 . S
C923 H926 0.950 . S
C924 C923 1.387 . S
C924 C927 1.387 . S
H925 C921 0.950 . S
H926 C923 0.950 . S
C927 C918 1.390 . S
C927 H920 0.950 . S
C927 C924 1.387 . S
C614 C516 1.566 . S
C609 C35 1.384 . S
C624 C533 1.519 . S
C619 C115 1.374 . S
C634 C547 1.646 . S
C629 C177 1.466 . S
C639 C221 1.378 . S
C644 C505 1.591 . S
C649 C283 1.436 . S
C654 C502 1.701 . S
C659 C363 1.309 . S
C664 C519 1.534 . S
C674 C530 1.762 . S
C669 C407 1.580 . S
C684 C544 1.709 . S
C679 C469 1.478 . S
C689 C159 1.477 . S
C694 C572 1.707 . S
C704 C586 1.761 . S
C699 C239 1.626 . S
C709 C53 1.309 . S
C714 C603 1.534 . S
C724 C558 1.703 . S
C719 C97 1.435 . S
C729 C425 1.363 . S
C734 C561 1.592 . S
C739 C487 1.464 . S
C744 C575 1.646 . S
C754 C589 1.520 . S
C749 C301 1.359 1_554 S
C759 C345 1.385 . S
C764 C600 1.568 . S
C774 C532 2.135 . S
C769 C29 2.171 . S
C784 C546 2.277 . S
C779 C109 2.215 . S
C789 C171 2.131 . S
C794 C504 2.205 1_556 S
C799 C215 2.028 . S
C804 C517 1.927 . S
C809 C277 1.782 . S
C814 C545 1.677 . S
C824 C503 1.714 . S
C819 C357 1.771 . S
C834 C518 2.032 . S
C829 C401 2.054 . S
C844 C531 1.782 . S
C839 C463 1.874 1_565 S
C854 C587 1.782 . S
C849 C153 1.875 . S
C864 C602 2.031 . S
C859 C233 2.048 . S
C869 C47 1.772 . S
C874 C559 1.716 . S
C884 C573 1.678 . S
C879 C91 1.782 . S
C894 C601 1.929 . S
C889 C419 1.928 . S
C899 C481 2.130 . S
C904 C560 2.205 . S
C914 C574 2.275 . S
C909 C295 2.213 . S
C924 C588 2.136 . S
C919 C339 2.172 . S
