# Generated by pormake.
# Topology zzz, (3,6)-cn, num edge types: 1
# Building blocks:
#     Node 0, Type 0, BuildingBlock: BETDIP_clean_linker_0, # of connection points: 3
#     Node 1, Type 0, BuildingBlock: BETDIP_clean_linker_0, # of connection points: 3
#     Node 2, Type 0, BuildingBlock: BETDIP_clean_linker_0, # of connection points: 3
#     Node 3, Type 0, BuildingBlock: BETDIP_clean_linker_0, # of connection points: 3
#     Node 4, Type 0, BuildingBlock: BETDIP_clean_linker_0, # of connection points: 3
#     Node 5, Type 0, BuildingBlock: BETDIP_clean_linker_0, # of connection points: 3
#     Node 6, Type 0, BuildingBlock: BETDIP_clean_linker_0, # of connection points: 3
#     Node 7, Type 0, BuildingBlock: BETDIP_clean_linker_0, # of connection points: 3
#     Node 8, Type 1, BuildingBlock: HISSIN_clean_sbu_0, # of connection points: 6
#     Node 9, Type 1, BuildingBlock: HISSIN_clean_sbu_0, # of connection points: 6
#     Node 10, Type 1, BuildingBlock: HISSIN_clean_sbu_0, # of connection points: 6
#     Node 11, Type 1, BuildingBlock: HISSIN_clean_sbu_0, # of connection points: 6
#     Edge 12, Type (0, 1), BuildingBlock: AJUNOK_clean_linker_0, # of connection points: 2
#     Edge 13, Type (0, 1), BuildingBlock: AJUNOK_clean_linker_0, # of connection points: 2
#     Edge 14, Type (0, 1), BuildingBlock: AJUNOK_clean_linker_0, # of connection points: 2
#     Edge 15, Type (0, 1), BuildingBlock: AJUNOK_clean_linker_0, # of connection points: 2
#     Edge 16, Type (0, 1), BuildingBlock: AJUNOK_clean_linker_0, # of connection points: 2
#     Edge 17, Type (0, 1), BuildingBlock: AJUNOK_clean_linker_0, # of connection points: 2
#     Edge 18, Type (0, 1), BuildingBlock: AJUNOK_clean_linker_0, # of connection points: 2
#     Edge 19, Type (0, 1), BuildingBlock: AJUNOK_clean_linker_0, # of connection points: 2
#     Edge 20, Type (0, 1), BuildingBlock: AJUNOK_clean_linker_0, # of connection points: 2
#     Edge 21, Type (0, 1), BuildingBlock: AJUNOK_clean_linker_0, # of connection points: 2
#     Edge 22, Type (0, 1), BuildingBlock: AJUNOK_clean_linker_0, # of connection points: 2
#     Edge 23, Type (0, 1), BuildingBlock: AJUNOK_clean_linker_0, # of connection points: 2
#     Edge 24, Type (0, 1), BuildingBlock: AJUNOK_clean_linker_0, # of connection points: 2
#     Edge 25, Type (0, 1), BuildingBlock: AJUNOK_clean_linker_0, # of connection points: 2
#     Edge 26, Type (0, 1), BuildingBlock: AJUNOK_clean_linker_0, # of connection points: 2
#     Edge 27, Type (0, 1), BuildingBlock: AJUNOK_clean_linker_0, # of connection points: 2
#     Edge 28, Type (0, 1), BuildingBlock: AJUNOK_clean_linker_0, # of connection points: 2
#     Edge 29, Type (0, 1), BuildingBlock: AJUNOK_clean_linker_0, # of connection points: 2
#     Edge 30, Type (0, 1), BuildingBlock: AJUNOK_clean_linker_0, # of connection points: 2
#     Edge 31, Type (0, 1), BuildingBlock: AJUNOK_clean_linker_0, # of connection points: 2
#     Edge 32, Type (0, 1), BuildingBlock: AJUNOK_clean_linker_0, # of connection points: 2
#     Edge 33, Type (0, 1), BuildingBlock: AJUNOK_clean_linker_0, # of connection points: 2
#     Edge 34, Type (0, 1), BuildingBlock: AJUNOK_clean_linker_0, # of connection points: 2
#     Edge 35, Type (0, 1), BuildingBlock: AJUNOK_clean_linker_0, # of connection points: 2
# Relax obj value: 0.360
# Max RMSD: 0.208
# Mean RMSD: 0.100
data_MOF--net-zzz--node1-HISSIN_clean_sbu_0--node2-BETDIP_clean_linker_0--edge1-AJUNOK_clean_linker_0
_symmetry_space_group_name_H-M    P1
_symmetry_Int_Tables_number       1
_symmetry_cell_setting            triclinic
loop_
_symmetry_equiv_pos_as_xyz
'x, y, z'
_cell_length_a     36.315186
_cell_length_b     36.499645
_cell_length_c     11.914671
_cell_angle_alpha  90.020261
_cell_angle_beta   91.517348
_cell_angle_gamma 90.784768
loop_
_atom_site_label
_atom_site_type_symbol
_atom_site_fract_x
_atom_site_fract_y
_atom_site_fract_z
_atom_type_partial_charge
H0 H 0.77692 0.57183 0.58218 0.0
H1 H 0.73595 0.58155 0.23979 0.0
H2 H 0.85206 0.58106 0.30975 0.0
H3 H 0.68558 0.62485 0.41749 0.0
C4 C 0.68503 0.59594 0.39566 0.0
C5 C 0.78201 0.57566 0.49383 0.0
C6 C 0.81914 0.57868 0.45635 0.0
C7 C 0.75149 0.57824 0.41485 0.0
C8 C 0.75855 0.58181 0.30107 0.0
C9 C 0.79433 0.58166 0.26384 0.0
C10 C 0.82423 0.58164 0.34082 0.0
N11 N 0.71377 0.57398 0.44538 0.0
H12 H 1.03239 0.79228 0.47591 0.0
H13 H 0.11302 0.75433 0.24417 0.0
H14 H 0.13161 0.8551 0.42067 0.0
H15 H 0.04238 0.76101 0.14406 0.0
C16 C 0.03999 0.73624 0.19425 0.0
C17 C 0.05889 0.79546 0.4373 0.0
C18 C 0.08222 0.82606 0.46654 0.0
C19 C 0.06988 0.76959 0.35479 0.0
C20 C 0.1044 0.77391 0.30627 0.0
C21 C 0.12659 0.80457 0.32976 0.0
C22 C 0.11529 0.83023 0.40881 0.0
N23 N 0.04611 0.74059 0.31314 0.0
H24 H 0.80236 0.04792 0.48809 0.0
H25 H 0.84659 0.95858 0.29891 0.0
H26 H 0.73773 0.95059 0.42703 0.0
H27 H 0.90392 0.98647 0.40467 0.0
C28 C 0.89726 1.00893 0.34817 0.0
C29 C 0.80017 1.02008 0.45704 0.0
C30 C 0.76714 0.99899 0.47479 0.0
C31 C 0.83001 1.00477 0.39595 0.0
C32 C 0.82535 0.96945 0.35116 0.0
C33 C 0.79057 0.95251 0.34688 0.0
C34 C 0.764 0.96474 0.42209 0.0
N35 N 0.86191 1.02581 0.36228 0.0
H36 H 0.5631 0.78244 0.4823 0.0
H37 H 0.47616 0.82789 0.27483 0.0
H38 H 0.45749 0.72815 0.45564 0.0
H39 H 0.54047 0.80916 0.15257 0.0
C40 C 0.54774 0.83435 0.1972 0.0
C41 C 0.53479 0.78164 0.45145 0.0
C42 C 0.51023 0.75371 0.48888 0.0
C43 C 0.52251 0.80788 0.37062 0.0
C44 C 0.48561 0.8071 0.33321 0.0
C45 C 0.46207 0.77817 0.36143 0.0
C46 C 0.47477 0.75186 0.43874 0.0
N47 N 0.5471 0.83308 0.31752 0.0
H48 H 0.28126 0.51156 0.11406 0.0
H49 H 0.32931 0.60086 0.307 0.0
H50 H 0.23443 0.61896 0.09275 0.0
H51 H 0.38622 0.55201 0.20677 0.0
C52 C 0.37408 0.539 0.27883 0.0
C53 C 0.28217 0.54039 0.13546 0.0
C54 C 0.25577 0.56459 0.08606 0.0
C55 C 0.31001 0.55391 0.21231 0.0
C56 C 0.30991 0.59104 0.2427 0.0
C57 C 0.28212 0.61434 0.20292 0.0
C58 C 0.2566 0.60133 0.12105 0.0
N59 N 0.33548 0.53017 0.26989 0.0
H60 H 0.08158 0.28479 0.11109 0.0
H61 H 0.99589 0.31845 0.33115 0.0
H62 H 0.98457 0.21737 0.14888 0.0
H63 H 1.022 0.38001 0.19645 0.0
C64 C 0.04387 0.37426 0.25769 0.0
C65 C 0.05457 0.28042 0.14541 0.0
C66 C 1.03363 0.24844 0.11522 0.0
C67 C 0.04002 0.30692 0.21962 0.0
C68 C 1.00583 0.2999 0.26798 0.0
C69 C 0.98604 0.26756 0.24386 0.0
C70 C 0.99938 0.24297 0.16455 0.0
N71 N 0.06061 0.33894 0.25461 0.0
H72 H 0.31678 0.07295 0.13823 0.0
H73 H 0.2648 0.9826 0.30892 0.0
H74 H 0.36052 0.96434 0.11358 0.0
H75 H 0.21001 0.03716 0.19892 0.0
C76 C 0.22187 0.0467 0.27835 0.0
C77 C 0.31497 0.04392 0.15621 0.0
C78 C 0.34094 1.01951 0.10891 0.0
C79 C 0.28619 0.03022 0.2257 0.0
C80 C 0.285 0.99273 0.25065 0.0
C81 C 0.3123 0.96913 0.21397 0.0
C82 C 0.33892 0.98242 0.13997 0.0
N83 N 0.26097 0.05369 0.282 0.0
H84 H 0.51239 0.29689 0.15238 0.0
H85 H 0.60896 0.2651 0.34435 0.0
H86 H 0.6022 0.37298 0.19932 0.0
H87 H 0.58381 0.20498 0.2455 0.0
C88 C 0.56075 0.20972 0.29975 0.0
C89 C 0.53988 0.30302 0.18512 0.0
C90 C 0.55681 0.33728 0.16098 0.0
C91 C 0.55882 0.27674 0.25233 0.0
C92 C 0.59444 0.28533 0.29481 0.0
C93 C 0.61009 0.3204 0.28033 0.0
C94 C 0.59119 0.34553 0.21087 0.0
N95 N 0.54113 0.24332 0.28663 0.0
Eu96 Eu 1.02614 0.0437 0.72259 0.0
Eu97 Eu 0.09275 1.02555 0.9023 0.0
C98 C 0.06053 0.1092 0.88693 0.0
C99 C 0.94976 0.0898 0.54922 0.0
C100 C 0.94067 0.1155 0.63132 0.0
C101 C 0.92842 0.13124 0.404 0.0
C102 C 0.92694 0.14972 0.5991 0.0
C103 C 0.9419 0.09726 0.43626 0.0
C104 C 0.92282 0.15874 0.4845 0.0
C105 C 0.97377 0.05884 0.5756 0.0
O106 O 0.03979 1.01475 0.99874 0.0
O107 O 0.99625 0.04316 0.88898 0.0
C108 C 1.00619 1.02772 0.98468 0.0
O109 O 1.03128 0.98157 0.7074 0.0
O110 O 0.11007 0.99901 0.05773 0.0
O111 O 0.15005 0.02995 0.9641 0.0
O112 O 0.08758 0.97403 0.79481 0.0
C113 C 0.06034 0.96132 0.7299 0.0
O114 O 0.07804 0.04314 0.61707 0.0
O115 O 0.12485 0.04356 0.74965 0.0
O116 O 0.08036 0.08482 0.94188 0.0
O117 O 1.00861 0.06536 0.56034 0.0
O118 O 0.96811 0.04065 0.66782 0.0
O119 O 0.0407 0.10011 0.79625 0.0
C120 C 0.17057 0.97853 0.07004 0.0
C121 C 0.17638 0.96731 0.18112 0.0
C122 C 0.19965 0.92308 1.00594 0.0
C123 C 0.19148 0.9333 0.20442 0.0
C124 C 0.18423 0.95732 0.98247 0.0
C125 C 0.20017 0.90937 0.11648 0.0
C126 C 0.14459 1.0083 0.04905 0.0
C127 C 0.1135 0.04553 0.64404 0.0
H128 H 0.94691 0.11032 0.71927 0.0
H129 H 0.92677 0.13709 0.31497 0.0
H130 H 0.9229 0.17024 0.66313 0.0
H131 H 0.94974 0.07826 0.37181 0.0
H132 H 0.16593 0.98323 0.24979 0.0
H133 H 0.20734 0.90581 0.93673 0.0
H134 H 0.19158 0.92412 0.29085 0.0
H135 H 0.18023 0.96572 0.89585 0.0
Eu136 Eu 0.56612 0.04862 0.85367 0.0
Eu137 Eu 0.53254 0.99898 0.65766 0.0
C138 C 0.54957 0.96383 0.90102 0.0
C139 C 0.64214 0.04883 0.03066 0.0
C140 C 0.63477 1.01137 1.0138 0.0
C141 C 0.70601 0.03362 0.07022 0.0
C142 C 0.66194 0.98541 1.02349 0.0
C143 C 0.67848 0.0601 0.05522 0.0
C144 C 0.69753 0.99581 0.05727 0.0
C145 C 0.61231 0.07436 1.00077 0.0
O146 O 0.48352 1.01066 0.77147 0.0
O147 O 0.50524 0.05709 0.88743 0.0
C148 C 0.47796 0.03532 0.85119 0.0
O149 O 0.55234 0.09228 0.7232 0.0
O150 O 0.53551 0.94743 0.56478 0.0
O151 O 0.49336 0.98702 0.52128 0.0
O152 O 0.53504 0.05495 0.575 0.0
C153 C 0.54265 0.08771 0.61662 0.0
O154 O 0.61308 1.01683 0.77363 0.0
O155 O 0.58973 1.01477 0.59827 0.0
O156 O 0.55268 0.95905 0.79238 0.0
O157 O 0.61276 0.08522 0.8966 0.0
O158 O 0.57935 0.06344 0.0288 0.0
O159 O 0.54595 0.997 0.94017 0.0
C160 C 0.47953 0.9254 0.48075 0.0
C161 C 0.47153 0.91544 0.36957 0.0
C162 C 0.42391 0.89396 0.53833 0.0
C163 C 0.4384 0.89769 0.34156 0.0
C164 C 0.45694 0.91249 0.56617 0.0
C165 C 0.4125 0.88982 0.42478 0.0
C166 C 0.50678 0.95474 0.50117 0.0
C167 C 0.61883 1.01591 0.66555 0.0
H168 H 0.60789 1.00186 0.98951 0.0
H169 H 0.73345 0.04264 0.0963 0.0
H170 H 0.65469 0.95706 1.00616 0.0
H171 H 0.6854 0.08892 0.06434 0.0
H172 H 0.48884 0.92499 0.30263 0.0
H173 H 0.40529 0.88721 0.60501 0.0
H174 H 0.43145 0.89514 0.25308 0.0
H175 H 0.46309 0.91959 0.65303 0.0
Eu176 Eu 0.49463 0.55687 0.9204 0.0
Eu177 Eu 0.56356 0.5372 0.7655 0.0
C178 C 0.57752 0.56092 1.02538 0.0
C179 C 0.41875 0.60826 0.07347 0.0
C180 C 0.42316 0.61944 0.18551 0.0
C181 C 0.38328 0.66327 0.03431 0.0
C182 C 0.409 0.65257 0.22076 0.0
C183 C 0.39731 0.62972 0.99906 0.0
C184 C 0.39038 0.67574 0.14446 0.0
C185 C 0.43709 0.57461 0.03607 0.0
O186 O 0.54371 0.48117 0.82859 0.0
O187 O 0.50978 0.49969 0.97756 0.0
C188 C 0.52661 0.47376 0.92271 0.0
O189 O 0.46978 0.52668 0.76899 0.0
O190 O 0.62308 0.53807 0.73917 0.0
O191 O 0.58575 0.51561 0.61183 0.0
O192 O 0.51373 0.54284 0.64579 0.0
C193 C 0.47954 0.53269 0.66521 0.0
O194 O 0.50251 0.60751 0.81287 0.0
O195 O 0.56049 0.59932 0.74706 0.0
O196 O 0.58642 0.53806 0.9456 0.0
O197 O 0.43584 0.56753 0.92901 0.0
O198 O 0.46935 0.56766 0.08129 0.0
O199 O 0.54588 0.57826 1.01761 0.0
C200 C 0.6424 0.48704 0.63555 0.0
C201 C 0.62938 0.45419 0.68057 0.0
C202 C 0.68853 0.45343 0.53555 0.0
C203 C 0.64355 0.42102 0.64574 0.0
C204 C 0.6733 0.48679 0.56772 0.0
C205 C 0.67201 0.41989 0.56728 0.0
C206 C 0.62005 0.51997 0.645 0.0
C207 C 0.53129 0.61989 0.75878 0.0
H208 H 0.43905 0.60334 0.24518 0.0
H209 H 0.36882 0.68038 0.97391 0.0
H210 H 0.41548 0.66136 0.30596 0.0
H211 H 0.39268 0.62145 0.91248 0.0
H212 H 0.60577 0.45397 0.73417 0.0
H213 H 0.71114 0.45406 0.47814 0.0
H214 H 0.629 0.39666 0.67164 0.0
H215 H 0.68406 0.51209 0.53362 0.0
Eu216 Eu 0.05773 0.58352 0.63688 0.0
Eu217 Eu 1.02964 0.52532 0.81095 0.0
C218 C 0.11715 0.54627 0.82083 0.0
C219 C 0.10795 0.65659 0.46235 0.0
C220 C 0.13238 0.6686 0.54823 0.0
C221 C 0.14979 0.67956 0.32356 0.0
C222 C 0.16633 0.68447 0.5213 0.0
C223 C 0.11576 0.6644 0.35061 0.0
C224 C 0.17666 0.68725 0.40833 0.0
C225 C 0.07752 0.63107 0.4849 0.0
O226 O 1.02136 0.58228 0.89003 0.0
O227 O 0.06747 0.61201 0.80241 0.0
C228 C 0.04501 0.60999 0.88625 0.0
O229 O 0.99496 0.5911 0.639 0.0
O230 O 1.01394 0.51056 0.98089 0.0
O231 O 0.9999 0.47404 0.84387 0.0
O232 O 0.98362 0.53196 0.6776 0.0
C233 C 0.97138 0.56349 0.64123 0.0
O234 O 0.04924 0.52921 0.5432 0.0
O235 O 0.05935 0.48979 0.68782 0.0
O236 O 0.08978 0.52788 0.86609 0.0
O237 O 0.08577 0.59638 0.48222 0.0
O238 O 0.05626 0.63893 0.56777 0.0
O239 O 0.1115 0.56711 0.73064 0.0
C240 C 0.95256 0.49452 0.95204 0.0
C241 C 0.94156 0.52637 0.89597 0.0
C242 C 0.89041 0.48639 1.01553 0.0
C243 C 0.90532 0.53697 0.8926 0.0
C244 C 0.92664 0.47372 1.00969 0.0
C245 C 0.87972 0.5188 0.95855 0.0
C246 C 0.99131 0.48502 0.94373 0.0
C247 C 0.05711 0.496 0.57935 0.0
H248 H 0.12653 0.66311 0.63538 0.0
H249 H 0.15628 0.68082 0.23552 0.0
H250 H 0.18598 0.69078 0.58873 0.0
H251 H 0.097 0.65555 0.28339 0.0
H252 H 0.96144 0.54421 0.85819 0.0
H253 H 0.87179 0.47217 0.07054 0.0
H254 H 0.89827 0.56169 0.84705 0.0
H255 H 0.93472 0.44913 0.05429 0.0
C256 C 0.20633 0.04625 0.48804 0.0
C257 C 0.1957 0.05153 0.37446 0.0
C258 C 0.17997 0.04518 0.57448 0.0
C259 C 0.14167 0.04924 0.55183 0.0
H260 H 0.23498 0.04147 0.50992 0.0
H261 H 0.18975 0.0401 0.65968 0.0
S262 S 0.09994 0.06716 0.26887 0.0
N263 N 0.14437 0.06356 0.24596 0.0
N264 N 0.09553 0.06116 0.40515 0.0
C265 C 0.13111 0.05581 0.43869 0.0
C266 C 0.15785 0.05704 0.35147 0.0
C267 C 0.5555 0.14305 0.34722 0.0
C268 C 0.55073 0.17971 0.3799 0.0
C269 C 0.55132 0.1138 0.42314 0.0
C270 C 0.54337 0.11975 0.53697 0.0
H271 H 0.56317 0.13689 0.26206 0.0
H272 H 0.55587 0.08627 0.39294 0.0
S273 S 0.52872 0.21087 0.66648 0.0
N274 N 0.53711 0.22045 0.53392 0.0
N275 N 0.53056 0.16579 0.67786 0.0
C276 C 0.53831 0.1564 0.57085 0.0
C277 C 0.54162 0.18623 0.49223 0.0
C278 C 0.4376 0.53382 0.36549 0.0
C279 C 0.39916 0.53241 0.37985 0.0
C280 C 0.46299 0.53283 0.45711 0.0
C281 C 0.45144 0.53021 0.56895 0.0
H282 H 0.44833 0.5365 0.28197 0.0
H283 H 0.49208 0.53481 0.43966 0.0
S284 S 0.35358 0.5246 0.654 0.0
N285 N 0.35073 0.52738 0.51563 0.0
N286 N 0.39802 0.52518 0.68774 0.0
C287 C 0.41292 0.52759 0.58464 0.0
C288 C 0.38698 0.52871 0.49054 0.0
C289 C 0.05664 0.39815 0.45569 0.0
C290 C 0.05452 0.40428 0.33895 0.0
C291 C 0.05886 0.42771 0.53299 0.0
C292 C 0.0593 0.46467 0.49681 0.0
H293 H 0.0545 0.37045 0.48773 0.0
H294 H 0.05883 0.42149 0.62184 0.0
S295 S 0.06006 0.49483 0.19914 0.0
N296 N 0.05638 0.44977 0.19113 0.0
N297 N 0.06175 0.50479 0.33423 0.0
C298 C 0.05949 0.47076 0.37989 0.0
C299 C 0.05673 0.44079 0.30182 0.0
C300 C 0.91574 0.03352 0.15342 0.0
C301 C 0.925 1.01719 0.2576 0.0
C302 C 0.94187 0.03702 0.06655 0.0
C303 C 0.97866 1.02458 0.07941 0.0
H304 H 0.88788 0.04275 0.13752 0.0
H305 H 0.93289 0.04927 0.98789 0.0
S306 S 1.01773 0.98276 0.34077 0.0
N307 N 0.97433 0.99031 0.37007 0.0
N308 N 1.02275 0.99726 0.2108 0.0
C309 C 0.98829 1.0093 0.18503 0.0
C310 C 0.96176 1.00551 0.27242 0.0
C311 C 0.54353 0.86533 1.01027 0.0
C312 C 0.55014 0.86852 0.12717 0.0
C313 C 0.5438 0.89599 0.93861 0.0
C314 C 0.55038 0.93164 0.98012 0.0
H315 H 0.53766 0.83869 0.97335 0.0
H316 H 0.53818 0.89164 0.8498 0.0
S317 S 0.57214 0.95516 0.27897 0.0
N318 N 0.56575 0.91025 0.28039 0.0
N319 N 0.56541 0.96802 0.14719 0.0
C320 C 0.55759 0.93529 0.09713 0.0
C321 C 0.55772 0.9038 0.17011 0.0
C322 C 0.62956 0.60893 0.27134 0.0
C323 C 0.6569 0.58385 0.30625 0.0
C324 C 0.60375 0.60101 0.18344 0.0
C325 C 0.60417 0.56771 0.12369 0.0
H326 H 0.62828 0.63545 0.3119 0.0
H327 H 0.58386 0.6217 0.16031 0.0
S328 S 0.66802 0.49093 0.1861 0.0
N329 N 0.681 0.52293 0.27754 0.0
N330 N 0.63346 0.50826 0.11136 0.0
C331 C 0.63088 0.54189 0.1592 0.0
C332 C 0.65688 0.54981 0.25038 0.0
C333 C 1.02131 0.67039 0.14185 0.0
C334 C 0.04488 0.70113 0.13045 0.0
C335 C 1.02178 0.64065 0.06468 0.0
C336 C 0.04596 0.64036 0.97326 0.0
H337 H 1.00124 0.67005 0.20748 0.0
H338 H 1.00241 0.61817 0.07526 0.0
S339 S 0.11572 0.71322 0.91424 0.0
N340 N 0.09442 0.72831 1.02532 0.0
N341 N 0.09616 0.67326 0.88369 0.0
C342 C 0.07078 0.67042 0.96525 0.0
C343 C 0.06996 0.70049 0.04263 0.0
C344 C 0.96773 0.24869 0.43353 0.0
C345 C 0.95738 0.25411 0.32032 0.0
C346 C 0.9513 0.22081 0.49611 0.0
C347 C 0.924 0.19762 0.4471 0.0
H348 H 0.99203 0.26233 0.4691 0.0
H349 H 0.96393 0.21428 0.57687 0.0
S350 S 0.87744 0.2111 0.16996 0.0
N351 N 0.91136 0.24176 0.17323 0.0
N352 N 0.87942 0.18997 0.29257 0.0
C353 C 0.9084 0.20802 0.34269 0.0
C354 C 0.92551 0.2361 0.27838 0.0
C355 C 0.32499 0.93764 0.39418 0.0
C356 C 0.32011 0.93485 0.27697 0.0
C357 C 0.35066 0.91585 0.45136 0.0
C358 C 0.37247 0.89103 0.39235 0.0
H359 H 0.31357 0.96038 0.43951 0.0
H360 H 0.35748 0.92337 0.53735 0.0
S361 S 0.35413 0.85973 0.10009 0.0
N362 N 0.32755 0.89577 0.1142 0.0
N363 N 0.37506 0.85371 0.22347 0.0
C364 C 0.36025 0.88138 0.28294 0.0
C365 C 0.33447 0.90397 0.224 0.0
C366 C 0.66418 0.36314 0.30857 0.0
C367 C 0.64253 0.33401 0.34983 0.0
C368 C 0.68005 0.38925 0.38168 0.0
C369 C 0.67655 0.38585 0.4988 0.0
H370 H 0.6646 0.36874 0.21933 0.0
H371 H 0.69054 0.41419 0.34451 0.0
S372 S 0.64431 0.30266 0.64723 0.0
N373 N 0.63168 0.29586 0.5147 0.0
N374 N 0.66692 0.34219 0.64982 0.0
C375 C 0.66503 0.35143 0.53929 0.0
C376 C 0.64652 0.32599 0.46545 0.0
C377 C 0.26629 0.64183 0.38454 0.0
C378 C 0.27211 0.64705 0.26935 0.0
C379 C 0.23877 0.66093 0.43859 0.0
C380 C 0.21631 0.68585 0.37893 0.0
H381 H 0.27867 0.61901 0.42894 0.0
H382 H 0.23163 0.65159 0.52156 0.0
S383 S 0.23408 0.72226 0.0949 0.0
N384 N 0.2632 0.68811 0.11073 0.0
N385 N 0.21184 0.72491 0.21381 0.0
C386 C 0.22822 0.69753 0.27312 0.0
C387 C 0.25608 0.67777 0.21758 0.0
C388 C 0.18999 0.82971 0.30241 0.0
C389 C 0.15706 0.81498 0.25546 0.0
C390 C 0.21034 0.8561 0.24396 0.0
C391 C 0.19731 0.86933 0.13927 0.0
H392 H 0.19733 0.82446 0.38961 0.0
H393 H 0.23261 0.87042 0.28857 0.0
S394 S 0.12057 0.82888 0.96575 0.0
N395 N 0.11899 0.807 0.08651 0.0
N396 N 0.15631 0.85708 0.97816 0.0
C397 C 0.16921 0.84892 0.08307 0.0
C398 C 0.14894 0.82171 0.14169 0.0
C399 C 0.78832 0.95551 0.14052 0.0
C400 C 0.77737 0.9361 0.23722 0.0
C401 C 0.7618 0.97278 0.07268 0.0
C402 C 0.72424 0.96745 0.09284 0.0
H403 H 0.81663 0.9643 0.13061 0.0
H404 H 0.77072 0.99302 1.01232 0.0
S405 S 0.68521 0.8953 0.27768 0.0
N406 N 0.73005 0.89473 0.30464 0.0
N407 N 0.6789 0.92713 0.18091 0.0
C408 C 0.71422 0.93819 0.16412 0.0
C409 C 0.74176 0.92074 0.23163 0.0
C410 C 0.39856 0.75115 0.34473 0.0
C411 C 0.42788 0.76988 0.29365 0.0
C412 C 0.37852 0.7239 0.28576 0.0
C413 C 0.38756 0.71503 0.17494 0.0
H414 H 0.39515 0.75322 0.43459 0.0
H415 H 0.36084 0.70566 0.33262 0.0
S416 S 0.44652 0.77053 0.98909 0.0
N417 N 0.45358 0.78829 0.11509 0.0
N418 N 0.41558 0.73752 1.0048 0.0
C419 C 0.40902 0.74051 0.11608 0.0
C420 C 0.4296 0.76802 0.17593 0.0
C421 C 0.82837 0.59373 0.09287 0.0
C422 C 0.80128 0.57321 0.14633 0.0
C423 C 0.8511 0.57689 1.01705 0.0
C424 C 0.8468 0.53917 0.99174 0.0
H425 H 0.8357 0.62102 0.12255 0.0
H426 H 0.87501 0.59251 0.9918 0.0
S427 S 0.76912 0.47916 0.07348 0.0
N428 N 0.76369 0.51747 0.14461 0.0
N429 N 0.80573 0.48607 0.99644 0.0
C430 C 0.81476 0.52106 1.02615 0.0
C431 C 0.79185 0.53818 0.10482 0.0
C432 C 1.02477 0.20567 0.94959 0.0
C433 C 0.04694 0.2179 0.04179 0.0
C434 C 1.03055 0.17166 0.89652 0.0
C435 C 0.05848 0.14769 0.934 0.0
H436 H 1.00146 0.22182 0.92168 0.0
H437 H 1.01166 0.16337 0.82903 0.0
S438 S 0.1258 0.16765 0.16806 0.0
N439 N 0.09918 0.20399 0.1643 0.0
N440 N 0.11031 0.14048 0.06593 0.0
C441 C 0.08198 0.16046 1.02293 0.0
C442 C 0.07619 0.19531 0.07623 0.0
C443 C 0.4024 0.05239 0.07074 0.0
C444 C 0.3722 0.03055 0.03232 0.0
C445 C 0.43564 0.05518 1.01 0.0
C446 C 0.44062 0.03606 0.90783 0.0
H447 H 0.40114 0.06589 0.15152 0.0
H448 H 0.45821 0.07127 0.04627 0.0
S449 S 0.36873 0.9774 0.76595 0.0
N450 N 0.34899 0.99132 0.8814 0.0
N451 N 0.41027 0.99637 0.76863 0.0
C452 C 0.40984 1.01549 0.86651 0.0
C453 C 0.37619 1.01278 0.92803 0.0
C454 C 0.5244 0.39746 0.14482 0.0
C455 C 0.53951 0.367 0.09106 0.0
C456 C 0.5187 0.43093 0.08802 0.0
C457 C 0.52841 0.43596 0.97476 0.0
H458 H 0.51904 0.39612 0.23376 0.0
H459 H 0.50831 0.45365 0.13573 0.0
S460 S 0.56595 0.36337 0.7929 0.0
N461 N 0.56192 0.34321 0.91614 0.0
N462 N 0.55109 0.4056 0.80882 0.0
C463 C 0.54181 0.40498 0.91845 0.0
C464 C 0.54741 0.37079 0.97659 0.0
C465 C 0.21664 0.57399 0.90913 0.0
C466 C 0.22431 0.55309 1.00678 0.0
C467 C 0.18306 0.57035 0.84688 0.0
C468 C 0.15493 0.54573 0.87916 0.0
H469 H 0.23628 0.59476 0.88325 0.0
H470 H 0.17857 0.58826 0.7756 0.0
S471 S 0.16183 0.48244 0.12407 0.0
N472 N 0.20137 0.50536 0.12886 0.0
N473 N 0.13877 0.49804 1.0131 0.0
C474 C 0.16303 0.5233 0.97365 0.0
C475 C 0.19741 0.527 0.03677 0.0
C476 C 0.04009 0.87565 0.54339 0.0
C477 C 0.07327 0.85593 0.5503 0.0
C478 C 0.03547 0.90876 0.60432 0.0
C479 C 0.06382 0.92389 0.67503 0.0
H480 H 1.01825 0.86657 0.48591 0.0
H481 H 1.00985 0.92328 0.59252 0.0
S482 S 0.15595 0.88249 0.72391 0.0
N483 N 0.13416 0.85335 0.63898 0.0
N484 N 0.1263 0.91521 0.74799 0.0
C485 C 0.09658 0.90356 0.68532 0.0
C486 C 0.101 0.86985 0.62488 0.0
C487 C 0.7257 1.00883 0.64386 0.0
C488 C 0.73191 1.01254 0.52755 0.0
C489 C 0.68966 1.01086 0.6887 0.0
C490 C 0.65773 1.01568 0.61924 0.0
H491 H 0.74862 1.00257 0.70023 0.0
H492 H 0.68675 1.00728 0.77826 0.0
S493 S 0.65844 1.02696 0.31011 0.0
N494 N 0.70234 1.02194 0.3454 0.0
N495 N 0.63582 1.02521 0.42785 0.0
C496 C 0.66386 1.02022 0.50365 0.0
C497 C 0.70035 1.01872 0.45861 0.0
C498 C 0.55142 0.70205 0.56289 0.0
C499 C 0.52009 0.72415 0.57347 0.0
C500 C 0.5559 0.66937 0.62639 0.0
C501 C 0.52914 0.65713 0.70284 0.0
H502 H 0.57161 0.7089 0.50073 0.0
H503 H 0.57976 0.65276 0.61153 0.0
S504 S 0.44316 0.70632 0.76658 0.0
N505 N 0.46346 0.73266 0.67374 0.0
N506 N 0.47095 0.67157 0.788 0.0
C507 C 0.49864 0.68005 0.71756 0.0
C508 C 0.49444 0.71334 0.65465 0.0
C509 C 0.87997 0.60567 0.52958 0.0
C510 C 0.85415 0.57623 0.52872 0.0
C511 C 0.91708 0.60161 0.56767 0.0
C512 C 0.93093 0.56761 0.60504 0.0
H513 H 0.87175 0.63193 0.49561 0.0
H514 H 0.93535 0.62527 0.56451 0.0
S515 S 0.87491 0.48149 0.62064 0.0
N516 N 0.8454 0.5119 0.57111 0.0
N517 N 0.91449 0.50374 0.63982 0.0
C518 C 0.90513 0.53803 0.60649 0.0
C519 C 0.86716 0.54244 0.56935 0.0
loop_
_geom_bond_atom_site_label_1
_geom_bond_atom_site_label_2
_geom_bond_distance
_geom_bond_site_symmetry_2
_ccdc_geom_bond_type
H0 C5 0.930 . S
H1 C8 0.930 . S
H2 C10 0.930 . S
H3 C4 1.016 . S
C4 H3 1.016 . S
C4 N11 1.286 . S
C5 H0 0.930 . S
C5 C6 1.397 . S
C5 C7 1.361 . S
C6 C5 1.397 . S
C6 C10 1.390 . S
C7 C5 1.361 . S
C7 C8 1.393 . S
C7 N11 1.413 . S
C8 H1 0.930 . S
C8 C7 1.393 . S
C8 C9 1.399 . S
C9 C8 1.399 . S
C9 C10 1.381 . S
C10 H2 0.930 . S
C10 C6 1.390 . S
C10 C9 1.381 . S
N11 C4 1.286 . S
N11 C7 1.413 . S
H12 C17 0.930 . S
H13 C20 0.930 . S
H14 C22 0.930 . S
H15 C16 1.016 . S
C16 H15 1.016 . S
C16 N23 1.286 . S
C17 H12 0.930 . S
C17 C18 1.397 . S
C17 C19 1.361 . S
C18 C17 1.397 . S
C18 C22 1.390 . S
C19 C17 1.361 . S
C19 C20 1.393 . S
C19 N23 1.413 . S
C20 H13 0.930 . S
C20 C19 1.393 . S
C20 C21 1.399 . S
C21 C20 1.399 . S
C21 C22 1.381 . S
C22 H14 0.930 . S
C22 C18 1.390 . S
C22 C21 1.381 . S
N23 C16 1.286 . S
N23 C19 1.413 . S
H24 C29 0.930 . S
H25 C32 0.930 . S
H26 C34 0.930 . S
H27 C28 1.016 . S
C28 H27 1.016 . S
C28 N35 1.289 . S
C29 H24 0.930 . S
C29 C30 1.397 . S
C29 C31 1.361 . S
C30 C29 1.397 . S
C30 C34 1.390 . S
C31 C29 1.361 . S
C31 C32 1.393 . S
C31 N35 1.413 . S
C32 H25 0.930 . S
C32 C31 1.393 . S
C32 C33 1.399 . S
C33 C32 1.399 . S
C33 C34 1.381 . S
C34 H26 0.930 . S
C34 C30 1.390 . S
C34 C33 1.381 . S
N35 C28 1.289 . S
N35 C31 1.413 . S
H36 C41 0.930 . S
H37 C44 0.930 . S
H38 C46 0.930 . S
H39 C40 1.016 . S
C40 H39 1.016 . S
C40 N47 1.286 . S
C41 H36 0.930 . S
C41 C42 1.397 . S
C41 C43 1.361 . S
C42 C41 1.397 . S
C42 C46 1.390 . S
C43 C41 1.361 . S
C43 C44 1.393 . S
C43 N47 1.413 . S
C44 H37 0.930 . S
C44 C43 1.393 . S
C44 C45 1.399 . S
C45 C44 1.399 . S
C45 C46 1.381 . S
C46 H38 0.930 . S
C46 C42 1.390 . S
C46 C45 1.381 . S
N47 C40 1.286 . S
N47 C43 1.413 . S
H48 C53 0.930 . S
H49 C56 0.930 . S
H50 C58 0.930 . S
H51 C52 1.016 . S
C52 H51 1.016 . S
C52 N59 1.286 . S
C53 H48 0.930 . S
C53 C54 1.397 . S
C53 C55 1.361 1_556 S
C54 C53 1.397 . S
C54 C58 1.390 1_556 S
C55 C53 1.361 1_554 S
C55 C56 1.393 . S
C55 N59 1.413 . S
C56 H49 0.930 . S
C56 C55 1.393 . S
C56 C57 1.399 . S
C57 C56 1.399 . S
C57 C58 1.381 . S
C58 H50 0.930 . S
C58 C54 1.390 1_554 S
C58 C57 1.381 . S
N59 C52 1.286 . S
N59 C55 1.413 . S
H60 C65 0.930 . S
H61 C68 0.930 . S
H62 C70 0.930 . S
H63 C64 1.016 . S
C64 H63 1.016 . S
C64 N71 1.286 . S
C65 H60 0.930 . S
C65 C66 1.397 . S
C65 C67 1.361 1_556 S
C66 C65 1.397 . S
C66 C70 1.390 1_556 S
C67 C65 1.361 1_554 S
C67 C68 1.393 . S
C67 N71 1.413 . S
C68 H61 0.930 . S
C68 C67 1.393 . S
C68 C69 1.399 . S
C69 C68 1.399 . S
C69 C70 1.381 . S
C70 H62 0.930 . S
C70 C66 1.390 1_554 S
C70 C69 1.381 . S
N71 C64 1.286 . S
N71 C67 1.413 . S
H72 C77 0.930 . S
H73 C80 0.930 . S
H74 C82 0.931 . S
H75 C76 1.016 . S
C76 H75 1.016 . S
C76 N83 1.286 . S
C77 H72 0.930 . S
C77 C78 1.397 . S
C77 C79 1.361 1_556 S
C78 C77 1.397 . S
C78 C82 1.393 . S
C79 C77 1.361 1_554 S
C79 C80 1.393 . S
C79 N83 1.413 . S
C80 H73 0.930 . S
C80 C79 1.393 . S
C80 C81 1.399 . S
C81 C80 1.399 . S
C81 C82 1.377 1_554 S
C82 H74 0.931 . S
C82 C78 1.393 . S
C82 C81 1.377 1_556 S
N83 C76 1.286 . S
N83 C79 1.413 . S
H84 C89 0.930 . S
H85 C92 0.930 . S
H86 C94 0.930 . S
H87 C88 1.016 . S
C88 H87 1.016 . S
C88 N95 1.286 . S
C89 H84 0.930 . S
C89 C90 1.397 . S
C89 C91 1.361 1_556 S
C90 C89 1.397 . S
C90 C94 1.390 1_556 S
C91 C89 1.361 1_554 S
C91 C92 1.393 . S
C91 N95 1.413 . S
C92 H85 0.930 . S
C92 C91 1.393 . S
C92 C93 1.399 . S
C93 C92 1.399 . S
C93 C94 1.381 . S
C94 H86 0.930 . S
C94 C90 1.390 1_554 S
C94 C93 1.381 . S
N95 C88 1.286 . S
N95 C91 1.413 . S
Eu96 C105 2.828 . S
Eu96 O107 2.392 . S
Eu96 O109 2.418 1_545 S
Eu96 O114 2.373 1_655 S
Eu96 O117 2.488 . S
Eu96 O118 2.471 . S
Eu96 O119 2.349 1_655 S
Eu97 O106 2.373 1_455 S
Eu97 O110 2.488 1_556 S
Eu97 O111 2.471 . S
Eu97 O112 2.349 . S
Eu97 O115 2.392 1_565 S
Eu97 O116 2.418 1_565 S
Eu97 C126 2.828 1_556 S
C98 O116 1.244 . S
C98 O119 1.265 . S
C99 C100 1.379 1_655 S
C99 C103 1.373 . S
C99 C105 1.505 . S
C100 C99 1.379 1_455 S
C100 C102 1.369 . S
C100 H128 0.930 . S
C101 C103 1.383 . S
C101 C104 1.382 . S
C101 H129 0.930 . S
C102 C100 1.369 . S
C102 C104 1.392 1_455 S
C102 H130 0.930 . S
C103 C99 1.373 . S
C103 C101 1.383 . S
C103 H131 0.931 . S
C104 C101 1.382 . S
C104 C102 1.392 1_655 S
C105 Eu96 2.828 . S
C105 C99 1.505 . S
C105 O117 1.249 . S
C105 O118 1.244 . S
O106 Eu97 2.373 1_655 S
O106 C108 1.257 1_565 S
O107 Eu96 2.392 . S
O107 C108 1.243 . S
C108 O106 1.257 1_545 S
C108 O107 1.243 . S
O109 Eu96 2.418 1_565 S
O109 C113 1.244 . S
O110 Eu97 2.488 1_554 S
O110 C126 1.249 . S
O111 Eu97 2.471 . S
O111 C126 1.244 1_556 S
O112 Eu97 2.349 . S
O112 C113 1.265 1_455 S
C113 O109 1.244 . S
C113 O112 1.265 1_655 S
O114 Eu96 2.373 1_455 S
O114 C127 1.258 . S
O115 Eu97 2.392 1_545 S
O115 C127 1.242 . S
O116 Eu97 2.418 1_545 S
O116 C98 1.244 . S
O117 Eu96 2.488 . S
O117 C105 1.249 . S
O118 Eu96 2.471 . S
O118 C105 1.244 . S
O119 Eu96 2.349 1_455 S
O119 C98 1.265 . S
C120 C121 1.379 . S
C120 C124 1.373 . S
C120 C126 1.505 . S
C121 C120 1.379 . S
C121 C123 1.369 . S
C121 H132 0.931 1_455 S
C122 C124 1.383 . S
C122 C125 1.382 . S
C122 H133 0.930 . S
C123 C121 1.369 . S
C123 C125 1.392 . S
C123 H134 0.930 1_455 S
C124 C120 1.373 . S
C124 C122 1.383 . S
C124 H135 0.931 . S
C125 C122 1.382 . S
C125 C123 1.392 . S
C126 Eu97 2.828 1_554 S
C126 O110 1.249 . S
C126 O111 1.244 1_554 S
C126 C120 1.505 . S
C127 O114 1.258 . S
C127 O115 1.242 . S
H128 C100 0.930 . S
H129 C101 0.930 . S
H130 C102 0.930 . S
H131 C103 0.931 . S
H132 C121 0.931 1_655 S
H133 C122 0.930 . S
H134 C123 0.930 1_655 S
H135 C124 0.931 . S
Eu136 C145 2.828 . S
Eu136 O147 2.392 . S
Eu136 O149 2.418 . S
Eu136 O154 2.373 . S
Eu136 O157 2.488 . S
Eu136 O158 2.477 . S
Eu136 O159 2.349 1_545 S
Eu137 O146 2.373 1_565 S
Eu137 O150 2.488 . S
Eu137 O151 2.471 1_565 S
Eu137 O152 2.349 1_565 S
Eu137 O155 2.392 . S
Eu137 O156 2.418 . S
Eu137 C166 2.828 . S
C138 O156 1.244 . S
C138 O159 1.265 . S
C139 C140 1.379 . S
C139 C143 1.373 . S
C139 C145 1.505 1_554 S
C140 C139 1.379 . S
C140 C142 1.369 . S
C140 H168 0.930 1_545 S
C141 C143 1.383 . S
C141 C144 1.382 . S
C141 H169 0.930 . S
C142 C140 1.369 . S
C142 C144 1.392 . S
C142 H170 0.930 1_545 S
C143 C139 1.373 . S
C143 C141 1.383 . S
C143 H171 0.931 . S
C144 C141 1.382 . S
C144 C142 1.392 . S
C145 Eu136 2.828 . S
C145 C139 1.505 1_556 S
C145 O157 1.249 . S
C145 O158 1.246 . S
O146 Eu137 2.373 1_545 S
O146 C148 1.258 . S
O147 Eu136 2.392 . S
O147 C148 1.242 . S
C148 O146 1.258 . S
C148 O147 1.242 . S
O149 Eu136 2.418 . S
O149 C153 1.244 . S
O150 Eu137 2.488 . S
O150 C166 1.249 . S
O151 Eu137 2.471 1_545 S
O151 C166 1.244 1_545 S
O152 Eu137 2.349 1_545 S
O152 C153 1.265 . S
C153 O149 1.244 . S
C153 O152 1.265 . S
O154 Eu136 2.373 . S
O154 C167 1.258 1_545 S
O155 Eu137 2.392 . S
O155 C167 1.242 . S
O156 Eu137 2.418 . S
O156 C138 1.244 . S
O157 Eu136 2.488 . S
O157 C145 1.249 . S
O158 Eu136 2.477 . S
O158 C145 1.246 . S
O159 Eu136 2.349 1_565 S
O159 C138 1.265 . S
C160 C161 1.379 1_565 S
C160 C164 1.373 . S
C160 C166 1.505 . S
C161 C160 1.379 1_545 S
C161 C163 1.369 . S
C161 H172 0.930 . S
C162 C164 1.383 . S
C162 C165 1.382 . S
C162 H173 0.930 . S
C163 C161 1.369 . S
C163 C165 1.392 1_545 S
C163 H174 0.930 . S
C164 C160 1.373 . S
C164 C162 1.383 . S
C164 H175 0.931 . S
C165 C162 1.382 . S
C165 C163 1.392 1_565 S
C166 Eu137 2.828 . S
C166 O150 1.249 . S
C166 O151 1.244 1_565 S
C166 C160 1.505 . S
C167 O154 1.258 1_565 S
C167 O155 1.242 . S
H168 C140 0.930 1_565 S
H169 C141 0.930 . S
H170 C142 0.930 1_565 S
H171 C143 0.931 . S
H172 C161 0.930 . S
H173 C162 0.930 . S
H174 C163 0.930 . S
H175 C164 0.931 . S
Eu176 C185 2.828 . S
Eu176 O187 2.392 . S
Eu176 O189 2.418 . S
Eu176 O194 2.373 . S
Eu176 O197 2.488 . S
Eu176 O198 2.471 . S
Eu176 O199 2.349 . S
Eu177 O186 2.373 . S
Eu177 O190 2.488 . S
Eu177 O191 2.471 . S
Eu177 O192 2.349 . S
Eu177 O195 2.392 . S
Eu177 O196 2.418 . S
Eu177 C206 2.828 . S
C178 O196 1.244 . S
C178 O199 1.265 . S
C179 C180 1.379 . S
C179 C183 1.373 . S
C179 C185 1.505 1_554 S
C180 C179 1.379 . S
C180 C182 1.369 . S
C180 H208 0.930 . S
C181 C183 1.383 . S
C181 C184 1.382 . S
C181 H209 0.930 . S
C182 C180 1.369 . S
C182 C184 1.392 . S
C182 H210 0.930 . S
C183 C179 1.373 . S
C183 C181 1.383 . S
C183 H211 0.931 . S
C184 C181 1.382 . S
C184 C182 1.392 . S
C185 Eu176 2.828 . S
C185 C179 1.505 1_556 S
C185 O197 1.249 . S
C185 O198 1.244 . S
O186 Eu177 2.373 . S
O186 C188 1.258 . S
O187 Eu176 2.392 . S
O187 C188 1.242 . S
C188 O186 1.258 . S
C188 O187 1.242 . S
O189 Eu176 2.418 . S
O189 C193 1.244 . S
O190 Eu177 2.488 . S
O190 C206 1.249 . S
O191 Eu177 2.471 . S
O191 C206 1.244 . S
O192 Eu177 2.349 . S
O192 C193 1.265 . S
C193 O189 1.244 . S
C193 O192 1.265 . S
O194 Eu176 2.373 . S
O194 C207 1.258 . S
O195 Eu177 2.392 . S
O195 C207 1.242 . S
O196 Eu177 2.418 . S
O196 C178 1.244 . S
O197 Eu176 2.488 . S
O197 C185 1.249 . S
O198 Eu176 2.471 . S
O198 C185 1.244 . S
O199 Eu176 2.349 . S
O199 C178 1.265 . S
C200 C201 1.379 . S
C200 C204 1.373 . S
C200 C206 1.505 . S
C201 C200 1.379 . S
C201 C203 1.369 . S
C201 H212 0.930 . S
C202 C204 1.383 . S
C202 C205 1.382 . S
C202 H213 0.930 . S
C203 C201 1.369 . S
C203 C205 1.392 . S
C203 H214 0.930 . S
C204 C200 1.373 . S
C204 C202 1.383 . S
C204 H215 0.931 . S
C205 C202 1.382 . S
C205 C203 1.392 . S
C206 Eu177 2.828 . S
C206 O190 1.249 . S
C206 O191 1.244 . S
C206 C200 1.505 . S
C207 O194 1.258 . S
C207 O195 1.242 . S
H208 C180 0.930 . S
H209 C181 0.930 . S
H210 C182 0.930 . S
H211 C183 0.931 . S
H212 C201 0.930 . S
H213 C202 0.930 . S
H214 C203 0.930 . S
H215 C204 0.931 . S
Eu216 C225 2.828 . S
Eu216 O227 2.392 . S
Eu216 O229 2.418 1_455 S
Eu216 O234 2.373 . S
Eu216 O237 2.488 . S
Eu216 O238 2.471 . S
Eu216 O239 2.349 . S
Eu217 O226 2.373 . S
Eu217 O230 2.488 1_556 S
Eu217 O231 2.471 . S
Eu217 O232 2.349 . S
Eu217 O235 2.392 1_655 S
Eu217 O236 2.418 1_655 S
Eu217 C246 2.828 1_556 S
C218 O236 1.244 . S
C218 O239 1.265 . S
C219 C220 1.379 . S
C219 C223 1.373 . S
C219 C225 1.505 . S
C220 C219 1.379 . S
C220 C222 1.369 . S
C220 H248 0.930 . S
C221 C223 1.383 . S
C221 C224 1.382 . S
C221 H249 0.930 . S
C222 C220 1.369 . S
C222 C224 1.392 . S
C222 H250 0.930 . S
C223 C219 1.373 . S
C223 C221 1.383 . S
C223 H251 0.931 . S
C224 C221 1.382 . S
C224 C222 1.392 . S
C225 Eu216 2.828 . S
C225 C219 1.505 . S
C225 O237 1.249 . S
C225 O238 1.244 . S
O226 Eu217 2.373 . S
O226 C228 1.260 . S
O227 Eu216 2.392 . S
O227 C228 1.236 1_455 S
C228 O226 1.260 . S
C228 O227 1.236 1_655 S
O229 Eu216 2.418 1_655 S
O229 C233 1.244 . S
O230 Eu217 2.488 1_554 S
O230 C246 1.249 . S
O231 Eu217 2.471 . S
O231 C246 1.244 1_556 S
O232 Eu217 2.349 . S
O232 C233 1.265 . S
C233 O229 1.244 . S
C233 O232 1.265 . S
O234 Eu216 2.373 . S
O234 C247 1.258 . S
O235 Eu217 2.392 1_455 S
O235 C247 1.242 . S
O236 Eu217 2.418 1_455 S
O236 C218 1.244 . S
O237 Eu216 2.488 . S
O237 C225 1.249 . S
O238 Eu216 2.471 . S
O238 C225 1.244 . S
O239 Eu216 2.349 . S
O239 C218 1.265 . S
C240 C241 1.379 . S
C240 C244 1.373 . S
C240 C246 1.505 . S
C241 C240 1.379 . S
C241 C243 1.369 . S
C241 H252 0.930 . S
C242 C244 1.383 . S
C242 C245 1.382 . S
C242 H253 0.930 . S
C243 C241 1.369 . S
C243 C245 1.392 . S
C243 H254 0.930 . S
C244 C240 1.373 . S
C244 C242 1.383 . S
C244 H255 0.931 . S
C245 C242 1.382 . S
C245 C243 1.392 . S
C246 Eu217 2.828 1_554 S
C246 O230 1.249 . S
C246 O231 1.244 1_554 S
C246 C240 1.505 . S
C247 O234 1.258 . S
C247 O235 1.242 . S
H248 C220 0.930 . S
H249 C221 0.930 . S
H250 C222 0.930 . S
H251 C223 0.931 . S
H252 C241 0.930 . S
H253 C242 0.930 . S
H254 C243 0.930 . S
H255 C244 0.931 . S
C256 C257 1.369 . S
C256 C258 1.419 . S
C256 H260 0.930 1_545 S
C257 C256 1.369 . S
C257 C266 1.429 . S
C258 C256 1.419 . S
C258 C259 1.363 . S
C258 H261 0.929 1_545 S
C259 C258 1.363 . S
C259 C265 1.428 . S
H260 C256 0.930 1_565 S
H261 C258 0.929 1_565 S
S262 N263 1.613 . S
S262 N264 1.610 . S
N263 S262 1.613 . S
N263 C266 1.350 . S
N264 S262 1.610 . S
N264 C265 1.351 . S
C265 C259 1.428 . S
C265 N264 1.351 . S
C265 C266 1.434 . S
C266 C257 1.429 . S
C266 N263 1.350 . S
C266 C265 1.434 . S
C267 C268 1.369 . S
C267 C269 1.419 . S
C267 H271 0.930 . S
C268 C267 1.369 . S
C268 C277 1.429 . S
C269 C267 1.419 . S
C269 C270 1.363 . S
C269 H272 0.929 . S
C270 C269 1.363 . S
C270 C276 1.428 . S
H271 C267 0.930 . S
H272 C269 0.929 . S
S273 N274 1.613 . S
S273 N275 1.610 . S
N274 S273 1.613 . S
N274 C277 1.350 . S
N275 S273 1.610 . S
N275 C276 1.351 . S
C276 C270 1.428 . S
C276 N275 1.351 . S
C276 C277 1.434 . S
C277 C268 1.429 . S
C277 N274 1.350 . S
C277 C276 1.434 . S
C278 C279 1.369 . S
C278 C280 1.419 . S
C278 H282 0.930 . S
C279 C278 1.369 . S
C279 C288 1.429 . S
C280 C278 1.419 . S
C280 C281 1.363 . S
C280 H283 0.929 . S
C281 C280 1.363 . S
C281 C287 1.428 . S
H282 C278 0.930 . S
H283 C280 0.929 . S
S284 N285 1.613 . S
S284 N286 1.610 . S
N285 S284 1.613 . S
N285 C288 1.350 . S
N286 S284 1.610 . S
N286 C287 1.351 . S
C287 C281 1.428 . S
C287 N286 1.351 . S
C287 C288 1.434 . S
C288 C279 1.429 . S
C288 N285 1.350 . S
C288 C287 1.434 . S
C289 C290 1.369 . S
C289 C291 1.419 . S
C289 H293 0.930 . S
C290 C289 1.369 . S
C290 C299 1.429 . S
C291 C289 1.419 . S
C291 C292 1.363 . S
C291 H294 0.929 . S
C292 C291 1.363 . S
C292 C298 1.428 . S
H293 C289 0.930 . S
H294 C291 0.929 . S
S295 N296 1.613 . S
S295 N297 1.610 . S
N296 S295 1.613 . S
N296 C299 1.350 1_655 S
N297 S295 1.610 . S
N297 C298 1.351 1_655 S
C298 C292 1.428 . S
C298 N297 1.351 1_455 S
C298 C299 1.434 . S
C299 C290 1.429 . S
C299 N296 1.350 1_455 S
C299 C298 1.434 . S
C300 C301 1.369 . S
C300 C302 1.419 . S
C300 H304 0.930 . S
C301 C300 1.369 . S
C301 C310 1.429 1_565 S
C302 C300 1.419 . S
C302 C303 1.363 . S
C302 H305 0.929 . S
C303 C302 1.363 . S
C303 C309 1.428 1_565 S
H304 C300 0.930 . S
H305 C302 0.929 . S
S306 N307 1.613 . S
S306 N308 1.610 . S
N307 S306 1.613 . S
N307 C310 1.350 . S
N308 S306 1.610 . S
N308 C309 1.351 . S
C309 C303 1.428 1_545 S
C309 N308 1.351 . S
C309 C310 1.434 . S
C310 C301 1.429 1_545 S
C310 N307 1.350 . S
C310 C309 1.434 . S
C311 C312 1.369 . S
C311 C313 1.419 . S
C311 H315 0.930 . S
C312 C311 1.369 . S
C312 C321 1.429 . S
C313 C311 1.419 . S
C313 C314 1.363 . S
C313 H316 0.929 1_554 S
C314 C313 1.363 . S
C314 C320 1.428 . S
H315 C311 0.930 . S
H316 C313 0.929 1_556 S
S317 N318 1.636 . S
S317 N319 1.620 . S
N318 S317 1.636 . S
N318 C321 1.350 . S
N319 S317 1.620 . S
N319 C320 1.351 . S
C320 C314 1.428 . S
C320 N319 1.351 . S
C320 C321 1.434 . S
C321 C312 1.429 . S
C321 N318 1.350 . S
C321 C320 1.434 . S
C322 C323 1.369 . S
C322 C324 1.419 . S
C322 H326 0.930 . S
C323 C322 1.369 . S
C323 C332 1.429 . S
C324 C322 1.419 . S
C324 C325 1.363 . S
C324 H327 0.929 . S
C325 C324 1.363 . S
C325 C331 1.428 . S
H326 C322 0.930 . S
H327 C324 0.929 . S
S328 N329 1.613 . S
S328 N330 1.610 . S
N329 S328 1.613 . S
N329 C332 1.350 . S
N330 S328 1.610 . S
N330 C331 1.351 . S
C331 C325 1.428 . S
C331 N330 1.351 . S
C331 C332 1.434 . S
C332 C323 1.429 . S
C332 N329 1.350 . S
C332 C331 1.434 . S
C333 C334 1.369 1_455 S
C333 C335 1.419 . S
C333 H337 0.930 . S
C334 C333 1.369 1_655 S
C334 C343 1.429 . S
C335 C333 1.419 . S
C335 C336 1.363 1_455 S
C335 H338 0.929 . S
C336 C335 1.363 1_655 S
C336 C342 1.428 . S
H337 C333 0.930 . S
H338 C335 0.929 . S
S339 N340 1.613 . S
S339 N341 1.610 1_554 S
N340 S339 1.613 . S
N340 C343 1.350 . S
N341 S339 1.610 1_556 S
N341 C342 1.351 1_556 S
C342 C336 1.428 . S
C342 N341 1.351 1_554 S
C342 C343 1.434 . S
C343 C334 1.429 . S
C343 N340 1.350 . S
C343 C342 1.434 . S
C344 C345 1.369 . S
C344 C346 1.419 . S
C344 H348 0.930 . S
C345 C344 1.369 . S
C345 C354 1.429 . S
C346 C344 1.419 . S
C346 C347 1.363 . S
C346 H349 0.929 . S
C347 C346 1.363 . S
C347 C353 1.428 1_455 S
H348 C344 0.930 . S
H349 C346 0.929 . S
S350 N351 1.613 . S
S350 N352 1.610 . S
N351 S350 1.613 . S
N351 C354 1.350 1_655 S
N352 S350 1.610 . S
N352 C353 1.351 . S
C353 C347 1.428 1_655 S
C353 N352 1.351 . S
C353 C354 1.434 1_655 S
C354 C345 1.429 . S
C354 N351 1.350 1_455 S
C354 C353 1.434 1_455 S
C355 C356 1.369 . S
C355 C357 1.419 . S
C355 H359 0.930 . S
C356 C355 1.369 . S
C356 C365 1.429 1_545 S
C357 C355 1.419 . S
C357 C358 1.363 1_545 S
C357 H360 0.929 . S
C358 C357 1.363 1_565 S
C358 C364 1.428 . S
H359 C355 0.930 . S
H360 C357 0.929 . S
S361 N362 1.613 . S
S361 N363 1.610 . S
N362 S361 1.613 . S
N362 C365 1.350 . S
N363 S361 1.610 . S
N363 C364 1.351 . S
C364 C358 1.428 . S
C364 N363 1.351 . S
C364 C365 1.434 . S
C365 C356 1.429 1_565 S
C365 N362 1.350 . S
C365 C364 1.434 . S
C366 C367 1.369 . S
C366 C368 1.419 . S
C366 H370 0.930 . S
C367 C366 1.369 . S
C367 C376 1.429 . S
C368 C366 1.419 . S
C368 C369 1.363 . S
C368 H371 0.929 . S
C369 C368 1.363 . S
C369 C375 1.428 . S
H370 C366 0.930 . S
H371 C368 0.929 . S
S372 N373 1.613 . S
S372 N374 1.610 . S
N373 S372 1.613 . S
N373 C376 1.350 . S
N374 S372 1.610 . S
N374 C375 1.351 . S
C375 C369 1.428 . S
C375 N374 1.351 . S
C375 C376 1.434 . S
C376 C367 1.429 . S
C376 N373 1.350 . S
C376 C375 1.434 . S
C377 C378 1.369 . S
C377 C379 1.419 . S
C377 H381 0.930 . S
C378 C377 1.369 . S
C378 C387 1.429 . S
C379 C377 1.419 . S
C379 C380 1.363 . S
C379 H382 0.929 . S
C380 C379 1.363 . S
C380 C386 1.428 . S
H381 C377 0.930 . S
H382 C379 0.929 . S
S383 N384 1.613 1_556 S
S383 N385 1.610 1_556 S
N384 S383 1.613 1_554 S
N384 C387 1.350 . S
N385 S383 1.610 1_554 S
N385 C386 1.351 . S
C386 C380 1.428 . S
C386 N385 1.351 . S
C386 C387 1.434 . S
C387 C378 1.429 . S
C387 N384 1.350 . S
C387 C386 1.434 . S
C388 C389 1.369 . S
C388 C390 1.419 1_655 S
C388 H392 0.930 . S
C389 C388 1.369 . S
C389 C398 1.429 . S
C390 C388 1.419 1_455 S
C390 C391 1.363 . S
C390 H393 0.929 . S
C391 C390 1.363 . S
C391 C397 1.428 . S
H392 C388 0.930 . S
H393 C390 0.929 . S
S394 N395 1.613 . S
S394 N396 1.610 1_655 S
N395 S394 1.613 . S
N395 C398 1.350 . S
N396 S394 1.610 1_455 S
N396 C397 1.351 . S
C397 C391 1.428 . S
C397 N396 1.351 . S
C397 C398 1.434 1_455 S
C398 C389 1.429 . S
C398 N395 1.350 . S
C398 C397 1.434 1_655 S
C399 C400 1.369 1_545 S
C399 C401 1.419 . S
C399 H403 0.930 . S
C400 C399 1.369 1_565 S
C400 C409 1.429 . S
C401 C399 1.419 . S
C401 C402 1.363 . S
C401 H404 0.929 . S
C402 C401 1.363 . S
C402 C408 1.428 . S
H403 C399 0.930 . S
H404 C401 0.929 . S
S405 N406 1.613 . S
S405 N407 1.610 . S
N406 S405 1.613 . S
N406 C409 1.350 . S
N407 S405 1.610 . S
N407 C408 1.351 1_565 S
C408 C402 1.428 . S
C408 N407 1.351 1_545 S
C408 C409 1.434 1_545 S
C409 C400 1.429 . S
C409 N406 1.350 . S
C409 C408 1.434 1_565 S
C410 C411 1.369 . S
C410 C412 1.419 . S
C410 H414 0.930 . S
C411 C410 1.369 . S
C411 C420 1.429 . S
C412 C410 1.419 . S
C412 C413 1.363 . S
C412 H415 0.929 . S
C413 C412 1.363 . S
C413 C419 1.428 . S
H414 C410 0.930 . S
H415 C412 0.929 . S
S416 N417 1.613 . S
S416 N418 1.610 . S
N417 S416 1.613 . S
N417 C420 1.350 . S
N418 S416 1.610 . S
N418 C419 1.351 . S
C419 C413 1.428 . S
C419 N418 1.351 . S
C419 C420 1.434 . S
C420 C411 1.429 . S
C420 N417 1.350 . S
C420 C419 1.434 . S
C421 C422 1.369 . S
C421 C423 1.419 . S
C421 H425 0.930 . S
C422 C421 1.369 . S
C422 C431 1.429 . S
C423 C421 1.419 . S
C423 C424 1.363 . S
C423 H426 0.929 . S
C424 C423 1.363 . S
C424 C430 1.428 . S
H425 C421 0.930 . S
H426 C423 0.929 . S
S427 N428 1.613 . S
S427 N429 1.610 . S
N428 S427 1.613 . S
N428 C431 1.350 . S
N429 S427 1.610 . S
N429 C430 1.351 . S
C430 C424 1.428 . S
C430 N429 1.351 . S
C430 C431 1.434 . S
C431 C422 1.429 . S
C431 N428 1.350 . S
C431 C430 1.434 . S
C432 C433 1.369 . S
C432 C434 1.419 . S
C432 H436 0.930 . S
C433 C432 1.369 . S
C433 C442 1.429 . S
C434 C432 1.419 . S
C434 C435 1.363 . S
C434 H437 0.929 . S
C435 C434 1.363 . S
C435 C441 1.428 . S
H436 C432 0.930 . S
H437 C434 0.929 . S
S438 N439 1.613 . S
S438 N440 1.610 . S
N439 S438 1.613 . S
N439 C442 1.350 1_554 S
N440 S438 1.610 . S
N440 C441 1.351 1_554 S
C441 C435 1.428 . S
C441 N440 1.351 1_556 S
C441 C442 1.434 . S
C442 C433 1.429 . S
C442 N439 1.350 1_556 S
C442 C441 1.434 . S
C443 C444 1.369 . S
C443 C445 1.419 . S
C443 H447 0.930 . S
C444 C443 1.369 . S
C444 C453 1.429 . S
C445 C443 1.419 . S
C445 C446 1.363 . S
C445 H448 0.929 . S
C446 C445 1.363 . S
C446 C452 1.428 . S
H447 C443 0.930 . S
H448 C445 0.929 . S
S449 N450 1.613 1_554 S
S449 N451 1.610 1_554 S
N450 S449 1.613 1_556 S
N450 C453 1.350 1_565 S
N451 S449 1.610 1_556 S
N451 C452 1.351 1_565 S
C452 C446 1.428 . S
C452 N451 1.351 1_545 S
C452 C453 1.434 . S
C453 C444 1.429 . S
C453 N450 1.350 1_545 S
C453 C452 1.434 . S
C454 C455 1.369 . S
C454 C456 1.419 . S
C454 H458 0.930 1_556 S
C455 C454 1.369 . S
C455 C464 1.429 . S
C456 C454 1.419 . S
C456 C457 1.363 . S
C456 H459 0.929 1_556 S
C457 C456 1.363 . S
C457 C463 1.428 . S
H458 C454 0.930 1_554 S
H459 C456 0.929 1_554 S
S460 N461 1.613 . S
S460 N462 1.610 . S
N461 S460 1.613 . S
N461 C464 1.350 . S
N462 S460 1.610 . S
N462 C463 1.351 . S
C463 C457 1.428 . S
C463 N462 1.351 . S
C463 C464 1.434 . S
C464 C455 1.429 . S
C464 N461 1.350 . S
C464 C463 1.434 . S
C465 C466 1.369 . S
C465 C467 1.419 . S
C465 H469 0.930 . S
C466 C465 1.369 . S
C466 C475 1.428 1_556 S
C467 C465 1.419 . S
C467 C468 1.363 . S
C467 H470 0.929 . S
C468 C467 1.363 . S
C468 C474 1.428 . S
H469 C465 0.930 . S
H470 C467 0.929 . S
S471 N472 1.613 . S
S471 N473 1.610 . S
N472 S471 1.613 . S
N472 C475 1.350 . S
N473 S471 1.610 . S
N473 C474 1.351 1_554 S
C474 C468 1.428 . S
C474 N473 1.351 1_556 S
C474 C475 1.434 1_556 S
C475 C466 1.428 1_554 S
C475 N472 1.350 . S
C475 C474 1.434 1_554 S
C476 C477 1.369 . S
C476 C478 1.419 . S
C476 H480 0.930 . S
C477 C476 1.369 . S
C477 C486 1.429 1_655 S
C478 C476 1.419 . S
C478 C479 1.363 . S
C478 H481 0.929 . S
C479 C478 1.363 . S
C479 C485 1.428 1_655 S
H480 C476 0.930 . S
H481 C478 0.929 . S
S482 N483 1.613 . S
S482 N484 1.610 . S
N483 S482 1.613 . S
N483 C486 1.350 . S
N484 S482 1.610 . S
N484 C485 1.351 . S
C485 C479 1.428 1_455 S
C485 N484 1.351 . S
C485 C486 1.434 . S
C486 C477 1.429 1_455 S
C486 N483 1.350 . S
C486 C485 1.434 . S
C487 C488 1.369 . S
C487 C489 1.419 . S
C487 H491 0.930 . S
C488 C487 1.369 . S
C488 C497 1.429 . S
C489 C487 1.419 . S
C489 C490 1.363 . S
C489 H492 0.929 . S
C490 C489 1.363 . S
C490 C496 1.428 . S
H491 C487 0.930 . S
H492 C489 0.929 . S
S493 N494 1.613 . S
S493 N495 1.610 . S
N494 S493 1.613 . S
N494 C497 1.350 . S
N495 S493 1.610 . S
N495 C496 1.351 . S
C496 C490 1.428 . S
C496 N495 1.351 . S
C496 C497 1.434 . S
C497 C488 1.429 . S
C497 N494 1.350 . S
C497 C496 1.434 . S
C498 C499 1.369 . S
C498 C500 1.419 . S
C498 H502 0.930 . S
C499 C498 1.369 . S
C499 C508 1.429 . S
C500 C498 1.419 . S
C500 C501 1.363 . S
C500 H503 0.929 . S
C501 C500 1.363 . S
C501 C507 1.428 . S
H502 C498 0.930 . S
H503 C500 0.929 . S
S504 N505 1.613 . S
S504 N506 1.610 . S
N505 S504 1.613 . S
N505 C508 1.350 . S
N506 S504 1.610 . S
N506 C507 1.351 . S
C507 C501 1.428 . S
C507 N506 1.351 . S
C507 C508 1.434 . S
C508 C499 1.429 . S
C508 N505 1.350 . S
C508 C507 1.434 . S
C509 C510 1.369 . S
C509 C511 1.419 . S
C509 H513 0.930 . S
C510 C509 1.369 . S
C510 C519 1.429 . S
C511 C509 1.419 . S
C511 C512 1.363 . S
C511 H514 0.929 . S
C512 C511 1.363 . S
C512 C518 1.428 . S
H513 C509 0.930 . S
H514 C511 0.929 . S
S515 N516 1.613 . S
S515 N517 1.610 . S
N516 S515 1.613 . S
N516 C519 1.350 . S
N517 S515 1.610 . S
N517 C518 1.351 . S
C518 C512 1.428 . S
C518 N517 1.351 . S
C518 C519 1.434 . S
C519 C510 1.429 . S
C519 N516 1.350 . S
C519 C518 1.434 . S
C257 C76 2.197 . S
C259 C127 2.478 . S
C270 C153 2.205 . S
C268 C88 1.889 . S
C281 C193 2.198 . S
C279 C52 1.918 . S
C292 C247 2.467 . S
C290 C64 2.217 . S
C303 C108 2.476 1_564 S
C301 C28 2.203 . S
C312 C40 1.895 . S
C314 C138 2.204 1_554 S
C323 C4 1.924 . S
C325 C178 2.197 1_554 S
C334 C16 2.218 . S
C336 C228 2.474 1_554 S
C347 C104 0.867 1_455 S
C345 C69 0.870 . S
C358 C165 0.912 . S
C356 C81 0.914 . S
C369 C205 0.759 . S
C367 C93 0.762 . S
C378 C57 0.769 . S
C380 C224 0.788 . S
C389 C21 0.866 . S
C391 C125 0.864 . S
C402 C144 0.897 . S
C400 C33 0.922 . S
C413 C184 0.751 . S
C411 C45 0.765 . S
C422 C9 0.783 . S
C424 C245 0.775 . S
C433 C66 2.077 . S
C435 C98 2.413 . S
C444 C78 2.439 . S
C446 C148 2.723 . S
C457 C188 2.548 . S
C455 C90 2.284 . S
C468 C218 2.216 . S
C466 C54 1.905 . S
C477 C18 2.075 . S
C479 C113 2.413 . S
C490 C167 2.723 . S
C488 C30 2.439 . S
C501 C207 2.549 . S
C499 C42 2.303 . S
C510 C6 1.904 . S
C512 C233 2.216 . S
