# Generated by pormake.
# Topology ssc, (4,4)-cn, num edge types: 1
# Building blocks:
#     Node 0, Type 0, BuildingBlock: ESEHIV_clean_sbu_0, # of connection points: 4
#     Node 1, Type 0, BuildingBlock: ESEHIV_clean_sbu_0, # of connection points: 4
#     Node 2, Type 0, BuildingBlock: ESEHIV_clean_sbu_0, # of connection points: 4
#     Node 3, Type 0, BuildingBlock: ESEHIV_clean_sbu_0, # of connection points: 4
#     Node 4, Type 0, BuildingBlock: ESEHIV_clean_sbu_0, # of connection points: 4
#     Node 5, Type 0, BuildingBlock: ESEHIV_clean_sbu_0, # of connection points: 4
#     Node 6, Type 0, BuildingBlock: ESEHIV_clean_sbu_0, # of connection points: 4
#     Node 7, Type 0, BuildingBlock: ESEHIV_clean_sbu_0, # of connection points: 4
#     Node 8, Type 0, BuildingBlock: ESEHIV_clean_sbu_0, # of connection points: 4
#     Node 9, Type 0, BuildingBlock: ESEHIV_clean_sbu_0, # of connection points: 4
#     Node 10, Type 0, BuildingBlock: ESEHIV_clean_sbu_0, # of connection points: 4
#     Node 11, Type 0, BuildingBlock: ESEHIV_clean_sbu_0, # of connection points: 4
#     Node 12, Type 1, BuildingBlock: GIZVER_clean_linker_0, # of connection points: 4
#     Node 13, Type 1, BuildingBlock: GIZVER_clean_linker_0, # of connection points: 4
#     Node 14, Type 1, BuildingBlock: GIZVER_clean_linker_0, # of connection points: 4
#     Node 15, Type 1, BuildingBlock: GIZVER_clean_linker_0, # of connection points: 4
#     Node 16, Type 1, BuildingBlock: GIZVER_clean_linker_0, # of connection points: 4
#     Node 17, Type 1, BuildingBlock: GIZVER_clean_linker_0, # of connection points: 4
#     Node 18, Type 1, BuildingBlock: GIZVER_clean_linker_0, # of connection points: 4
#     Node 19, Type 1, BuildingBlock: GIZVER_clean_linker_0, # of connection points: 4
#     Node 20, Type 1, BuildingBlock: GIZVER_clean_linker_0, # of connection points: 4
#     Node 21, Type 1, BuildingBlock: GIZVER_clean_linker_0, # of connection points: 4
#     Node 22, Type 1, BuildingBlock: GIZVER_clean_linker_0, # of connection points: 4
#     Node 23, Type 1, BuildingBlock: GIZVER_clean_linker_0, # of connection points: 4
#     Edge 24, Type (0, 1), BuildingBlock: OJICUG_clean_linker_0, # of connection points: 2
#     Edge 25, Type (0, 1), BuildingBlock: OJICUG_clean_linker_0, # of connection points: 2
#     Edge 26, Type (0, 1), BuildingBlock: OJICUG_clean_linker_0, # of connection points: 2
#     Edge 27, Type (0, 1), BuildingBlock: OJICUG_clean_linker_0, # of connection points: 2
#     Edge 28, Type (0, 1), BuildingBlock: OJICUG_clean_linker_0, # of connection points: 2
#     Edge 29, Type (0, 1), BuildingBlock: OJICUG_clean_linker_0, # of connection points: 2
#     Edge 30, Type (0, 1), BuildingBlock: OJICUG_clean_linker_0, # of connection points: 2
#     Edge 31, Type (0, 1), BuildingBlock: OJICUG_clean_linker_0, # of connection points: 2
#     Edge 32, Type (0, 1), BuildingBlock: OJICUG_clean_linker_0, # of connection points: 2
#     Edge 33, Type (0, 1), BuildingBlock: OJICUG_clean_linker_0, # of connection points: 2
#     Edge 34, Type (0, 1), BuildingBlock: OJICUG_clean_linker_0, # of connection points: 2
#     Edge 35, Type (0, 1), BuildingBlock: OJICUG_clean_linker_0, # of connection points: 2
#     Edge 36, Type (0, 1), BuildingBlock: OJICUG_clean_linker_0, # of connection points: 2
#     Edge 37, Type (0, 1), BuildingBlock: OJICUG_clean_linker_0, # of connection points: 2
#     Edge 38, Type (0, 1), BuildingBlock: OJICUG_clean_linker_0, # of connection points: 2
#     Edge 39, Type (0, 1), BuildingBlock: OJICUG_clean_linker_0, # of connection points: 2
#     Edge 40, Type (0, 1), BuildingBlock: OJICUG_clean_linker_0, # of connection points: 2
#     Edge 41, Type (0, 1), BuildingBlock: OJICUG_clean_linker_0, # of connection points: 2
#     Edge 42, Type (0, 1), BuildingBlock: OJICUG_clean_linker_0, # of connection points: 2
#     Edge 43, Type (0, 1), BuildingBlock: OJICUG_clean_linker_0, # of connection points: 2
#     Edge 44, Type (0, 1), BuildingBlock: OJICUG_clean_linker_0, # of connection points: 2
#     Edge 45, Type (0, 1), BuildingBlock: OJICUG_clean_linker_0, # of connection points: 2
#     Edge 46, Type (0, 1), BuildingBlock: OJICUG_clean_linker_0, # of connection points: 2
#     Edge 47, Type (0, 1), BuildingBlock: OJICUG_clean_linker_0, # of connection points: 2
#     Edge 48, Type (0, 1), BuildingBlock: OJICUG_clean_linker_0, # of connection points: 2
#     Edge 49, Type (0, 1), BuildingBlock: OJICUG_clean_linker_0, # of connection points: 2
#     Edge 50, Type (0, 1), BuildingBlock: OJICUG_clean_linker_0, # of connection points: 2
#     Edge 51, Type (0, 1), BuildingBlock: OJICUG_clean_linker_0, # of connection points: 2
#     Edge 52, Type (0, 1), BuildingBlock: OJICUG_clean_linker_0, # of connection points: 2
#     Edge 53, Type (0, 1), BuildingBlock: OJICUG_clean_linker_0, # of connection points: 2
#     Edge 54, Type (0, 1), BuildingBlock: OJICUG_clean_linker_0, # of connection points: 2
#     Edge 55, Type (0, 1), BuildingBlock: OJICUG_clean_linker_0, # of connection points: 2
#     Edge 56, Type (0, 1), BuildingBlock: OJICUG_clean_linker_0, # of connection points: 2
#     Edge 57, Type (0, 1), BuildingBlock: OJICUG_clean_linker_0, # of connection points: 2
#     Edge 58, Type (0, 1), BuildingBlock: OJICUG_clean_linker_0, # of connection points: 2
#     Edge 59, Type (0, 1), BuildingBlock: OJICUG_clean_linker_0, # of connection points: 2
#     Edge 60, Type (0, 1), BuildingBlock: OJICUG_clean_linker_0, # of connection points: 2
#     Edge 61, Type (0, 1), BuildingBlock: OJICUG_clean_linker_0, # of connection points: 2
#     Edge 62, Type (0, 1), BuildingBlock: OJICUG_clean_linker_0, # of connection points: 2
#     Edge 63, Type (0, 1), BuildingBlock: OJICUG_clean_linker_0, # of connection points: 2
#     Edge 64, Type (0, 1), BuildingBlock: OJICUG_clean_linker_0, # of connection points: 2
#     Edge 65, Type (0, 1), BuildingBlock: OJICUG_clean_linker_0, # of connection points: 2
#     Edge 66, Type (0, 1), BuildingBlock: OJICUG_clean_linker_0, # of connection points: 2
#     Edge 67, Type (0, 1), BuildingBlock: OJICUG_clean_linker_0, # of connection points: 2
#     Edge 68, Type (0, 1), BuildingBlock: OJICUG_clean_linker_0, # of connection points: 2
#     Edge 69, Type (0, 1), BuildingBlock: OJICUG_clean_linker_0, # of connection points: 2
#     Edge 70, Type (0, 1), BuildingBlock: OJICUG_clean_linker_0, # of connection points: 2
#     Edge 71, Type (0, 1), BuildingBlock: OJICUG_clean_linker_0, # of connection points: 2
# Relax obj value: 0.047
# Max RMSD: 0.294
# Mean RMSD: 0.196
data_MOF--net-ssc--node1-ESEHIV_clean_sbu_0--node2-GIZVER_clean_linker_0--edge1-OJICUG_clean_linker_0
_symmetry_space_group_name_H-M    P1
_symmetry_Int_Tables_number       1
_symmetry_cell_setting            triclinic
loop_
_symmetry_equiv_pos_as_xyz
'x, y, z'
_cell_length_a     25.137233
_cell_length_b     25.232856
_cell_length_c     25.014874
_cell_angle_alpha  90.333282
_cell_angle_beta   94.327283
_cell_angle_gamma 99.032957
loop_
_atom_site_label
_atom_site_type_symbol
_atom_site_fract_x
_atom_site_fract_y
_atom_site_fract_z
_atom_type_partial_charge
Cu0 Cu 0.99592 0.23225 0.12175 0.0
N1 N 0.93131 0.20095 0.14897 0.0
N2 N 0.86631 0.17552 0.20424 0.0
C3 C 0.91201 0.20999 0.19651 0.0
C4 C 0.85693 0.14368 0.15988 0.0
C5 C 0.89659 0.15984 0.12576 0.0
O6 O 0.05099 0.24662 0.1821 0.0
C7 C 0.04855 0.18696 0.03637 0.0
O8 O 0.08593 0.22974 0.04142 0.0
H9 H 0.93246 0.23948 0.2258 0.0
H10 H 0.90103 0.14156 0.08746 0.0
N11 N 0.98417 0.29613 0.08772 0.0
N12 N 0.9802 0.36016 0.02628 0.0
C13 C 0.99187 0.31045 0.0366 0.0
C14 C 0.96652 0.33798 0.11032 0.0
C15 C 0.96417 0.37748 0.07268 0.0
C16 C 0.09265 0.2826 0.18175 0.0
O17 O 0.10146 0.30955 0.13765 0.0
H18 H 0.00768 0.28581 0.00807 0.0
H19 H 0.95659 0.33983 0.15156 0.0
O20 O 0.01122 0.18079 0.06854 0.0
H21 H 0.82408 0.11058 0.15276 0.0
H22 H 0.95205 0.41616 0.07911 0.0
Cu23 Cu 0.04302 0.7536 0.3707 0.0
N24 N 0.05514 0.823 0.40091 0.0
N25 N 0.04181 0.88742 0.4585 0.0
C26 C 0.05277 0.83687 0.45277 0.0
C27 C 0.03975 0.9066 0.4082 0.0
C28 C 0.04732 0.86676 0.37305 0.0
O29 O 0.02934 0.70251 0.42791 0.0
C30 C 0.97778 0.73129 0.26997 0.0
O31 O 0.01078 0.69838 0.25768 0.0
H32 H 0.05419 0.80885 0.48512 0.0
H33 H 0.04062 0.86718 0.32989 0.0
N34 N 0.10438 0.73702 0.34002 0.0
N35 N 0.16321 0.721 0.28076 0.0
C36 C 0.12335 0.74918 0.29172 0.0
C37 C 0.13306 0.70023 0.36033 0.0
C38 C 0.16861 0.68991 0.32407 0.0
C39 C 0.99917 0.70551 0.46611 0.0
O40 O 0.96571 0.7407 0.46417 0.0
H41 H 0.1057 0.77549 0.26407 0.0
H42 H 0.12623 0.67977 0.39765 0.0
O43 O 0.98285 0.7531 0.31654 0.0
H44 H 0.02723 0.94429 0.39674 0.0
H45 H 0.19397 0.65916 0.32849 0.0
Cu46 Cu 0.5286 0.76632 0.61853 0.0
N47 N 0.50612 0.82425 0.58235 0.0
N48 N 0.49627 0.8799 0.51453 0.0
C49 C 0.52001 0.83863 0.53307 0.0
C50 C 0.46612 0.8923 0.55375 0.0
C51 C 0.47188 0.85737 0.59556 0.0
O52 O 0.55282 0.72506 0.56187 0.0
C53 C 0.60013 0.76423 0.71393 0.0
O54 O 0.57742 0.7139 0.71714 0.0
H55 H 0.54794 0.81971 0.51146 0.0
H56 H 0.45249 0.85611 0.63279 0.0
N57 N 0.46803 0.72611 0.64624 0.0
N58 N 0.40266 0.69516 0.69944 0.0
C59 C 0.44791 0.73118 0.69417 0.0
C60 C 0.43418 0.68607 0.62018 0.0
C61 C 0.3944 0.6665 0.65295 0.0
C62 C 0.55193 0.67465 0.56255 0.0
O63 O 0.54565 0.6496 0.60807 0.0
H64 H 0.46667 0.76009 0.72474 0.0
H65 H 0.43805 0.67214 0.5799 0.0
O66 O 0.58548 0.79205 0.67464 0.0
H67 H 0.44198 0.92425 0.55234 0.0
H68 H 0.36142 0.63419 0.64274 0.0
Cu69 Cu 0.55158 0.2631 0.88394 0.0
N70 N 0.57012 0.32819 0.92228 0.0
N71 N 0.56254 0.38719 0.98728 0.0
C72 C 0.56548 0.33566 0.97507 0.0
C73 C 0.56897 0.4137 0.94097 0.0
C74 C 0.57357 0.37729 0.90096 0.0
O75 O 0.51311 0.21123 0.9291 0.0
C76 C 0.49704 0.24259 0.77881 0.0
O77 O 0.51699 0.1975 0.77865 0.0
H78 H 0.55838 0.30324 0.00292 0.0
H79 H 0.57388 0.38522 0.85852 0.0
N80 N 0.61311 0.23437 0.86957 0.0
N81 N 0.67258 0.19742 0.8252 0.0
C82 C 0.63621 0.23188 0.82298 0.0
C83 C 0.63575 0.20084 0.90248 0.0
C84 C 0.67189 0.17764 0.8752 0.0
C85 C 0.48242 0.22123 0.96475 0.0
O86 O 0.46078 0.26537 0.96197 0.0
H87 H 0.62324 0.25142 0.78704 0.0
H88 H 0.624 0.19118 0.94244 0.0
O89 O 0.50722 0.27425 0.81938 0.0
H90 H 0.56608 0.45556 0.93566 0.0
H91 H 0.69436 0.1471 0.89063 0.0
Cu92 Cu 0.14441 0.05965 0.27445 0.0
N93 N 0.11838 0.08163 0.33759 0.0
N94 N 0.06565 0.09248 0.40348 0.0
C95 C 0.06795 0.07208 0.35372 0.0
C96 C 0.11661 0.11514 0.41935 0.0
C97 C 0.14907 0.10779 0.37897 0.0
O98 O 0.09188 0.05199 0.21197 0.0
C99 C 0.2169 0.1565 0.27433 0.0
O100 O 0.17402 0.17889 0.2807 0.0
H101 H 0.03366 0.0511 0.32925 0.0
H102 H 0.19231 0.12025 0.37992 0.0
N103 N 0.16377 0.99278 0.28773 0.0
N104 N 0.21293 0.92677 0.29862 0.0
C105 C 0.21386 0.97993 0.29179 0.0
C106 C 0.13 0.9466 0.29249 0.0
C107 C 0.16018 0.90568 0.29908 0.0
C108 C 0.05072 0.07541 0.20347 0.0
O109 O 0.0418 0.11202 0.23778 0.0
H110 H 0.24998 0.00846 0.28666 0.0
H111 H 0.08648 0.94306 0.28924 0.0
O112 O 0.21068 0.10664 0.26333 0.0
H113 H 0.12962 0.13514 0.45755 0.0
H114 H 0.1445 0.86353 0.30206 0.0
Cu115 Cu 0.2463 0.89334 0.56147 0.0
N116 N 0.23436 0.84901 0.4999 0.0
N117 N 0.24268 0.78482 0.4404 0.0
C118 C 0.25214 0.802 0.49196 0.0
C119 C 0.21745 0.82203 0.41505 0.0
C120 C 0.21211 0.86138 0.45186 0.0
O121 O 0.2596 0.8511 0.62392 0.0
C122 C 0.31626 0.9905 0.5842 0.0
O123 O 0.28959 0.9907 0.62729 0.0
H124 H 0.27432 0.78223 0.52238 0.0
H125 H 0.19537 0.89774 0.4437 0.0
N126 N 0.18373 0.92157 0.57372 0.0
N127 N 0.12794 0.97874 0.59342 0.0
C128 C 0.17339 0.97244 0.56986 0.0
C129 C 0.14341 0.8949 0.59996 0.0
C130 C 0.10938 0.92988 0.6125 0.0
C131 C 0.2977 0.82403 0.63334 0.0
O132 O 0.3366 0.8269 0.60074 0.0
H133 H 0.20062 0.00486 0.5537 0.0
H134 H 0.14086 0.85355 0.61207 0.0
O135 O 0.30524 0.95075 0.5517 0.0
H136 H 0.2054 0.82159 0.37261 0.0
H137 H 0.07467 0.92016 0.63566 0.0
Cu138 Cu 0.37168 0.08532 0.77186 0.0
N139 N 0.41281 0.08041 0.83632 0.0
N140 N 0.48055 0.06196 0.89287 0.0
C141 C 0.46427 0.0712 0.84149 0.0
C142 C 0.43731 0.06555 0.92093 0.0
C143 C 0.39577 0.07727 0.88602 0.0
O144 O 0.41595 0.07923 0.71349 0.0
C145 C 0.26782 0.03095 0.73654 0.0
O146 O 0.26285 0.07468 0.7097 0.0
H147 H 0.48807 0.0681 0.80765 0.0
H148 H 0.35526 0.08085 0.89577 0.0
N149 N 0.34701 0.15072 0.76569 0.0
N150 N 0.29597 0.21515 0.77208 0.0
C151 C 0.31531 0.17377 0.79697 0.0
C152 C 0.34697 0.17751 0.7196 0.0
C153 C 0.31536 0.21666 0.72318 0.0
C154 C 0.42585 0.03474 0.69595 0.0
O155 O 0.40523 0.98983 0.71811 0.0
H156 H 0.30301 0.15758 0.83488 0.0
H157 H 0.36454 0.16593 0.68409 0.0
O158 O 0.31106 0.028 0.76549 0.0
H159 H 0.43525 0.05897 0.96343 0.0
H160 H 0.30305 0.24072 0.69018 0.0
Cu161 Cu 0.27778 0.15209 0.04549 0.0
N162 N 0.28861 0.1935 0.98496 0.0
N163 N 0.27818 0.26153 0.93059 0.0
C164 C 0.2573 0.22986 0.96957 0.0
C165 C 0.32487 0.24446 0.92102 0.0
C166 C 0.33121 0.20221 0.9548 0.0
O167 O 0.27299 0.20457 0.10147 0.0
C168 C 0.20154 0.0581 0.06017 0.0
O169 O 0.23476 0.0499 0.10131 0.0
H170 H 0.22115 0.23472 0.98879 0.0
H171 H 0.36526 0.18073 0.95852 0.0
N172 N 0.33683 0.11633 0.0598 0.0
N173 N 0.3887 0.05181 0.06541 0.0
C174 C 0.34342 0.06732 0.04206 0.0
C175 C 0.37939 0.13253 0.09493 0.0
C176 C 0.41065 0.09257 0.09925 0.0
C177 C 0.2852 0.20041 0.1513 0.0
O178 O 0.29677 0.15466 0.16984 0.0
H179 H 0.31435 0.04272 0.01451 0.0
H180 H 0.38575 0.16966 0.11797 0.0
O181 O 0.21185 0.10054 0.03303 0.0
H182 H 0.3524 0.26138 0.89208 0.0
H183 H 0.44444 0.09174 0.12843 0.0
Cu184 Cu 0.76646 0.42135 0.04163 0.0
N185 N 0.75129 0.38029 0.97822 0.0
N186 N 0.75899 0.3184 0.91616 0.0
C187 C 0.77166 0.33554 0.96731 0.0
C188 C 0.72899 0.35353 0.89379 0.0
C189 C 0.72414 0.39167 0.93231 0.0
O190 O 0.77006 0.37406 0.1019 0.0
C191 C 0.84277 0.5153 0.0612 0.0
O192 O 0.81115 0.52649 0.09775 0.0
H193 H 0.79772 0.31728 0.99528 0.0
H194 H 0.70394 0.4263 0.92671 0.0
N195 N 0.71073 0.45957 0.05344 0.0
N196 N 0.65875 0.52305 0.0597 0.0
C197 C 0.69857 0.50639 0.03367 0.0
C198 C 0.67836 0.44714 0.09329 0.0
C199 C 0.64675 0.48618 0.09751 0.0
C200 C 0.80301 0.34154 0.11261 0.0
O201 O 0.8439 0.34049 0.08326 0.0
H202 H 0.71955 0.52853 0.00252 0.0
H203 H 0.67948 0.41309 0.11916 0.0
O204 O 0.83223 0.47054 0.03604 0.0
H205 H 0.71274 0.35232 0.85246 0.0
H206 H 0.61869 0.48869 0.12784 0.0
Cu207 Cu 0.8866 0.53427 0.27772 0.0
N208 N 0.93303 0.54399 0.33995 0.0
N209 N 0.00647 0.5441 0.39623 0.0
C210 C 0.98627 0.54141 0.34451 0.0
C211 C 0.96425 0.54883 0.42516 0.0
C212 C 0.91911 0.54923 0.39034 0.0
O213 O 0.92756 0.52825 0.21601 0.0
C214 C 0.78964 0.46439 0.25227 0.0
O215 O 0.78505 0.49693 0.21197 0.0
H216 H 0.009 0.53425 0.31086 0.0
H217 H 0.87848 0.55083 0.40103 0.0
N218 N 0.85282 0.59438 0.26728 0.0
N219 N 0.79618 0.65421 0.26875 0.0
C220 C 0.81185 0.61031 0.29198 0.0
C221 C 0.86252 0.62853 0.22694 0.0
C222 C 0.8276 0.66511 0.22753 0.0
C223 C 0.95558 0.49212 0.20575 0.0
O224 O 0.95713 0.4516 0.23826 0.0
H225 H 0.79299 0.58936 0.32499 0.0
H226 H 0.89153 0.62552 0.19769 0.0
O227 O 0.83201 0.47223 0.28426 0.0
H228 H 0.96556 0.54993 0.46839 0.0
H229 H 0.82352 0.6956 0.19793 0.0
Cu230 Cu 0.75839 0.70487 0.51981 0.0
N231 N 0.78437 0.74388 0.4617 0.0
N232 N 0.80524 0.81477 0.40977 0.0
C233 C 0.78209 0.79618 0.45437 0.0
C234 C 0.82286 0.77217 0.38813 0.0
C235 C 0.81039 0.72852 0.4206 0.0
O236 O 0.73995 0.75769 0.56934 0.0
C237 C 0.68404 0.61147 0.52829 0.0
O238 O 0.70803 0.61266 0.57688 0.0
H239 H 0.76161 0.8196 0.48018 0.0
H240 H 0.819 0.68835 0.41433 0.0
N241 N 0.8137 0.66997 0.54817 0.0
N242 N 0.86721 0.60719 0.55824 0.0
C243 C 0.82611 0.62403 0.52854 0.0
C244 C 0.84832 0.68342 0.59135 0.0
C245 C 0.88105 0.64467 0.59788 0.0
C246 C 0.73836 0.75596 0.62004 0.0
O247 O 0.74524 0.71169 0.64514 0.0
H248 H 0.80483 0.60345 0.4933 0.0
H249 H 0.84922 0.71846 0.61671 0.0
O250 O 0.69746 0.65023 0.49715 0.0
H251 H 0.84213 0.77215 0.35097 0.0
H252 H 0.91167 0.64389 0.63042 0.0
Cu253 Cu 0.65428 0.52757 0.75402 0.0
N254 N 0.62853 0.538 0.82068 0.0
N255 N 0.57681 0.55094 0.88686 0.0
C256 C 0.57778 0.53215 0.83622 0.0
C257 C 0.62883 0.56836 0.90381 0.0
C258 C 0.66052 0.56006 0.86314 0.0
O259 O 0.59881 0.52351 0.69479 0.0
C260 C 0.7505 0.59237 0.71666 0.0
O261 O 0.75131 0.55603 0.67904 0.0
H262 H 0.5422 0.51704 0.81022 0.0
H263 H 0.70388 0.57138 0.86357 0.0
N264 N 0.67969 0.4617 0.75444 0.0
N265 N 0.73018 0.39761 0.7425 0.0
C266 C 0.73 0.45079 0.74951 0.0
C267 C 0.64735 0.41382 0.75157 0.0
C268 C 0.67817 0.37436 0.74381 0.0
C269 C 0.55653 0.5456 0.68893 0.0
O270 O 0.5467 0.57957 0.72549 0.0
H271 H 0.76521 0.48126 0.74767 0.0
H272 H 0.60384 0.40837 0.75215 0.0
O273 O 0.71238 0.58704 0.74781 0.0
H274 H 0.64287 0.58731 0.94218 0.0
H275 H 0.66305 0.33216 0.73738 0.0
H276 H 0.08647 0.32803 0.70282 0.0
H277 H 0.03149 0.21027 0.57728 0.0
H278 H 0.10892 0.16383 0.72317 0.0
H279 H 0.07369 0.35232 0.60791 0.0
H280 H 0.04198 0.30405 0.55832 0.0
H281 H 0.95576 0.29063 0.67 0.0
H282 H 0.85425 0.3993 0.60333 0.0
H283 H 0.01009 0.40007 0.54553 0.0
C284 C 0.07821 0.28641 0.68941 0.0
C285 C 0.09978 0.24727 0.72035 0.0
C286 C 0.05173 0.27313 0.63817 0.0
C287 C 0.04738 0.21995 0.61815 0.0
C288 C 0.06711 0.18029 0.64963 0.0
C289 C 0.0905 0.19401 0.70118 0.0
C290 C 0.0405 0.31771 0.60048 0.0
C291 C 0.98748 0.33897 0.60396 0.0
C292 C 0.94846 0.32045 0.64055 0.0
C293 C 0.9001 0.34228 0.63954 0.0
C294 C 0.89053 0.381 0.60198 0.0
C295 C 0.93034 0.40334 0.56955 0.0
C296 C 0.97858 0.38195 0.57007 0.0
H297 H 0.10136 0.81051 0.79237 0.0
H298 H 0.07461 0.82119 0.9599 0.0
H299 H 0.11431 0.96428 0.86962 0.0
H300 H 0.09463 0.73183 0.843 0.0
H301 H 0.10464 0.73912 0.91428 0.0
H302 H 0.99597 0.73793 0.79968 0.0
H303 H 0.87427 0.6512 0.89177 0.0
H304 H 0.03491 0.69767 0.96412 0.0
C305 C 0.09618 0.8344 0.82722 0.0
C306 C 0.10716 0.8904 0.825 0.0
C307 C 0.08346 0.80916 0.8755 0.0
C308 C 0.08133 0.84061 0.92192 0.0
C309 C 0.09117 0.89702 0.91981 0.0
C310 C 0.1022 0.92113 0.87063 0.0
C311 C 0.07904 0.74905 0.87863 0.0
C312 C 0.0213 0.72342 0.88242 0.0
C313 C 0.98352 0.72117 0.8374 0.0
C314 C 0.93002 0.69605 0.84107 0.0
C315 C 0.91481 0.67311 0.88953 0.0
C316 C 0.95253 0.67314 0.93346 0.0
C317 C 0.00557 0.69876 0.93023 0.0
H318 H 0.50218 0.70362 0.09845 0.0
H319 H 0.54967 0.74289 0.26482 0.0
H320 H 0.66763 0.7126 0.15864 0.0
H321 H 0.43486 0.70169 0.16056 0.0
H322 H 0.45454 0.70721 0.23072 0.0
H323 H 0.47149 0.80508 0.11413 0.0
H324 H 0.38252 0.9139 0.18774 0.0
H325 H 0.40243 0.76671 0.26497 0.0
C326 C 0.53387 0.71456 0.13023 0.0
C327 C 0.58688 0.70664 0.12208 0.0
C328 C 0.5202 0.72943 0.18129 0.0
C329 C 0.56044 0.73656 0.22439 0.0
C330 C 0.61392 0.7317 0.21547 0.0
C331 C 0.627 0.72027 0.16372 0.0
C332 C 0.46133 0.72702 0.19162 0.0
C333 C 0.44358 0.78159 0.19207 0.0
C334 C 0.45071 0.81611 0.1479 0.0
C335 C 0.42849 0.8638 0.14664 0.0
C336 C 0.40061 0.87748 0.18953 0.0
C337 C 0.39025 0.84252 0.23155 0.0
C338 C 0.41189 0.79461 0.2331 0.0
H339 H 0.60002 0.27948 0.35693 0.0
H340 H 0.5497 0.36246 0.49073 0.0
H341 H 0.62189 0.45094 0.36134 0.0
H342 H 0.5739 0.23018 0.43339 0.0
H343 H 0.57263 0.26715 0.49452 0.0
H344 H 0.47117 0.27123 0.37489 0.0
H345 H 0.3452 0.17165 0.45057 0.0
H346 H 0.50671 0.19428 0.52411 0.0
C347 C 0.5924 0.31626 0.37539 0.0
C348 C 0.6109 0.36554 0.35231 0.0
C349 C 0.56811 0.31473 0.42445 0.0
C350 C 0.56436 0.36335 0.45104 0.0
C351 C 0.58355 0.41293 0.42821 0.0
C352 C 0.60383 0.41315 0.37763 0.0
C353 C 0.55486 0.26172 0.45235 0.0
C354 C 0.49502 0.24087 0.45285 0.0
C355 C 0.45784 0.24861 0.40942 0.0
C356 C 0.40364 0.22433 0.40941 0.0
C357 C 0.38657 0.19246 0.45221 0.0
C358 C 0.42361 0.18038 0.49268 0.0
C359 C 0.4777 0.2049 0.49336 0.0
H360 H 0.53984 0.06523 0.16359 0.0
H361 H 0.70634 0.10629 0.22161 0.0
H362 H 0.61919 0.22795 0.15825 0.0
H363 H 0.58783 0.99553 0.18656 0.0
H364 H 0.65823 0.0121 0.17858 0.0
H365 H 0.55503 0.00456 0.28129 0.0
H366 H 0.66156 0.94856 0.40223 0.0
H367 H 0.7202 0.99709 0.25023 0.0
C368 C 0.57442 0.09548 0.17493 0.0
C369 C 0.5737 0.14866 0.15922 0.0
C370 C 0.6219 0.07993 0.19851 0.0
C371 C 0.66843 0.11869 0.20796 0.0
C372 C 0.66695 0.17257 0.19527 0.0
C373 C 0.61878 0.18748 0.17293 0.0
C374 C 0.62563 0.02108 0.20329 0.0
C375 C 0.63728 0.00576 0.26053 0.0
C376 C 0.59533 0.99805 0.29531 0.0
C377 C 0.60462 0.97828 0.34677 0.0
C378 C 0.65602 0.96719 0.36364 0.0
C379 C 0.69795 0.97322 0.32907 0.0
C380 C 0.68852 0.99343 0.2777 0.0
H381 H 0.30519 0.28008 0.58356 0.0
H382 H 0.33105 0.44131 0.52339 0.0
H383 H 0.46179 0.37405 0.60374 0.0
H384 H 0.23614 0.30578 0.52264 0.0
H385 H 0.23203 0.36386 0.56028 0.0
H386 H 0.23975 0.30875 0.42294 0.0
H387 H 0.1648 0.43416 0.34951 0.0
H388 H 0.21568 0.44539 0.51741 0.0
C389 C 0.33247 0.3158 0.57386 0.0
C390 C 0.38634 0.32256 0.59534 0.0
C391 C 0.31267 0.35696 0.54366 0.0
C392 C 0.34695 0.40696 0.54006 0.0
C393 C 0.4013 0.41301 0.56131 0.0
C394 C 0.42089 0.36904 0.58483 0.0
C395 C 0.25247 0.34938 0.5264 0.0
C396 C 0.23524 0.37663 0.47519 0.0
C397 C 0.22863 0.34842 0.42537 0.0
C398 C 0.20397 0.36989 0.37968 0.0
C399 C 0.1868 0.41965 0.38398 0.0
C400 C 0.18962 0.44664 0.43341 0.0
C401 C 0.2151 0.42566 0.47872 0.0
H402 H 0.96214 0.05401 0.62551 0.0
H403 H 0.82452 0.01704 0.7186 0.0
H404 H 0.87247 0.89478 0.62175 0.0
H405 H 0.94289 0.1224 0.6808 0.0
H406 H 0.87164 0.11742 0.67104 0.0
H407 H 0.97631 0.07979 0.77774 0.0
H408 H 0.90916 0.15935 0.90236 0.0
H409 H 0.83513 0.15496 0.74208 0.0
C410 C 0.93161 0.02453 0.64076 0.0
C411 C 0.92521 0.97088 0.62213 0.0
C412 C 0.89741 0.04127 0.67775 0.0
C413 C 0.8532 0.00428 0.69298 0.0
C414 C 0.84506 0.95133 0.67281 0.0
C415 C 0.88115 0.93527 0.63833 0.0
C416 C 0.90438 0.10028 0.69397 0.0
C417 C 0.90292 0.11174 0.7536 0.0
C418 C 0.94436 0.09975 0.79099 0.0
C419 C 0.94556 0.11619 0.84504 0.0
C420 C 0.90586 0.14443 0.86126 0.0
C421 C 0.86583 0.15872 0.82497 0.0
C422 C 0.86463 0.14234 0.77096 0.0
H423 H 0.2662 0.64068 0.04784 0.0
H424 H 0.13962 0.50399 0.01648 0.0
H425 H 0.11907 0.62808 0.1265 0.0
H426 H 0.24893 0.50952 0.00254 0.0
H427 H 0.20881 0.53044 0.9487 0.0
H428 H 0.23898 0.61925 0.9029 0.0
H429 H 0.41103 0.65934 0.90154 0.0
H430 H 0.34338 0.53991 0.00855 0.0
C431 C 0.2257 0.6201 0.05242 0.0
C432 C 0.19374 0.64096 0.08875 0.0
C433 C 0.20512 0.57161 0.02365 0.0
C434 C 0.15438 0.54285 0.03531 0.0
C435 C 0.1232 0.56379 0.0719 0.0
C436 C 0.14245 0.61328 0.09646 0.0
C437 C 0.23673 0.5461 0.98382 0.0
C438 C 0.28551 0.58129 0.96376 0.0
C439 C 0.27901 0.61682 0.92111 0.0
C440 C 0.32463 0.64525 0.89885 0.0
C441 C 0.37609 0.63981 0.92097 0.0
C442 C 0.38317 0.59996 0.958 0.0
C443 C 0.33797 0.57177 0.98075 0.0
H444 H 0.78605 0.80435 0.09226 0.0
H445 H 0.82076 0.97107 0.04993 0.0
H446 H 0.94583 0.89071 0.12291 0.0
H447 H 0.71464 0.84398 0.05425 0.0
H448 H 0.72386 0.90994 0.08146 0.0
H449 H 0.74117 0.8377 0.95093 0.0
H450 H 0.64749 0.9391 0.8594 0.0
H451 H 0.68525 0.97028 0.02734 0.0
C452 C 0.81499 0.84015 0.08666 0.0
C453 C 0.8685 0.8421 0.10799 0.0
C454 C 0.79763 0.88581 0.06267 0.0
C455 C 0.83468 0.93436 0.06292 0.0
C456 C 0.88879 0.93601 0.08373 0.0
C457 C 0.90532 0.88901 0.10378 0.0
C458 C 0.73737 0.88506 0.04983 0.0
C459 C 0.72012 0.90482 0.99477 0.0
C460 C 0.72236 0.8735 0.94806 0.0
C461 C 0.697 0.88642 0.89854 0.0
C462 C 0.67001 0.93104 0.89638 0.0
C463 C 0.66501 0.96104 0.94238 0.0
C464 C 0.69076 0.94828 0.99135 0.0
H465 H 0.46916 0.53249 0.16777 0.0
H466 H 0.33879 0.45669 0.25764 0.0
H467 H 0.43636 0.36146 0.17642 0.0
H468 H 0.41601 0.58811 0.20811 0.0
H469 H 0.34815 0.5546 0.20874 0.0
H470 H 0.46928 0.55527 0.31125 0.0
H471 H 0.3957 0.6367 0.43023 0.0
H472 H 0.31492 0.60686 0.27351 0.0
C473 C 0.44745 0.4969 0.18495 0.0
C474 C 0.45862 0.44616 0.16997 0.0
C475 C 0.40599 0.50152 0.21926 0.0
C476 C 0.374 0.45412 0.23586 0.0
C477 C 0.38572 0.40341 0.22116 0.0
C478 C 0.4294 0.40043 0.19046 0.0
C479 C 0.38955 0.55626 0.22851 0.0
C480 C 0.38956 0.57389 0.28684 0.0
C481 C 0.43495 0.57219 0.32347 0.0
C482 C 0.43647 0.59435 0.3754 0.0
C483 C 0.3932 0.61808 0.39065 0.0
C484 C 0.34965 0.62337 0.35443 0.0
C485 C 0.34786 0.60132 0.30235 0.0
H486 H 0.77238 0.09903 0.59582 0.0
H487 H 0.62061 0.0202 0.51743 0.0
H488 H 0.6236 0.10037 0.66883 0.0
H489 H 0.74685 0.004 0.52033 0.0
H490 H 0.69812 0.02157 0.47155 0.0
H491 H 0.71799 0.10147 0.4163 0.0
H492 H 0.88478 0.17159 0.41573 0.0
H493 H 0.83593 0.05465 0.53265 0.0
C494 C 0.72883 0.08858 0.59411 0.0
C495 C 0.70082 0.10334 0.6369 0.0
C496 C 0.69975 0.05929 0.54972 0.0
C497 C 0.6432 0.04426 0.54994 0.0
C498 C 0.61609 0.05965 0.59274 0.0
C499 C 0.64501 0.08901 0.63543 0.0
C500 C 0.72803 0.03847 0.50472 0.0
C501 C 0.77073 0.07966 0.48243 0.0
C502 C 0.75847 0.10847 0.43593 0.0
C503 C 0.79986 0.14198 0.41177 0.0
C504 C 0.85235 0.14864 0.43623 0.0
C505 C 0.86597 0.11491 0.47732 0.0
C506 C 0.82508 0.08199 0.50187 0.0
H507 H 0.05131 0.54329 0.66388 0.0
H508 H 0.20771 0.58384 0.74872 0.0
H509 H 0.13264 0.7054 0.6671 0.0
H510 H 0.09118 0.47338 0.70215 0.0
H511 H 0.16273 0.48807 0.70211 0.0
H512 H 0.0515 0.49805 0.7954 0.0
H513 H 0.13678 0.42957 0.92574 0.0
H514 H 0.20511 0.44874 0.77403 0.0
C515 C 0.0841 0.57329 0.67995 0.0
C516 C 0.08646 0.62649 0.66301 0.0
C517 C 0.12649 0.55773 0.71331 0.0
C518 C 0.1723 0.59627 0.72828 0.0
C519 C 0.1739 0.64991 0.71255 0.0
C520 C 0.12958 0.66495 0.68251 0.0
C521 C 0.12765 0.49853 0.72218 0.0
C522 C 0.132 0.48335 0.78065 0.0
C523 C 0.08802 0.48486 0.81248 0.0
C524 C 0.08996 0.4652 0.86495 0.0
C525 C 0.1363 0.44618 0.88573 0.0
C526 C 0.17562 0.43605 0.85216 0.0
C527 C 0.17505 0.45712 0.80041 0.0
C528 C 0.99227 0.36617 0.92895 0.0
C529 C 0.99209 0.39141 0.97912 0.0
H530 H 0.02086 0.37259 0.85038 0.0
C531 C 0.01034 0.44697 0.98381 0.0
H532 H 0.9774 0.32368 0.92356 0.0
C533 C 0.03549 0.47505 0.94205 0.0
C534 C 0.04135 0.44821 0.89416 0.0
H535 H 0.0095 0.46764 0.02138 0.0
H536 H 0.05533 0.51604 0.9493 0.0
C537 C 0.01604 0.39455 0.88662 0.0
C538 C 0.90601 0.78592 0.24103 0.0
C539 C 0.94145 0.75093 0.22751 0.0
H540 H 0.85301 0.84018 0.21285 0.0
C541 C 0.94577 0.73977 0.17286 0.0
H542 H 0.90202 0.79589 0.2825 0.0
C543 C 0.91799 0.76589 0.13285 0.0
C544 C 0.88433 0.80235 0.1468 0.0
H545 H 0.973 0.71336 0.16096 0.0
H546 H 0.92534 0.76018 0.09128 0.0
C547 C 0.8775 0.81097 0.20113 0.0
C548 C 0.54877 0.6696 0.46196 0.0
C549 C 0.53843 0.64449 0.51101 0.0
H550 H 0.52561 0.67051 0.37764 0.0
C551 C 0.50488 0.59452 0.51017 0.0
H552 H 0.57404 0.7085 0.46124 0.0
C553 C 0.47863 0.57196 0.46234 0.0
C554 C 0.48409 0.59997 0.41436 0.0
H555 H 0.49339 0.57626 0.5471 0.0
H556 H 0.44827 0.53653 0.46415 0.0
C557 C 0.52184 0.64738 0.41391 0.0
C558 C 0.70497 0.20997 0.73463 0.0
C559 C 0.69882 0.17893 0.78076 0.0
H560 H 0.71636 0.21054 0.65077 0.0
C561 C 0.71427 0.12766 0.78055 0.0
H562 H 0.69491 0.2499 0.73407 0.0
C563 C 0.72763 0.10534 0.73299 0.0
C564 C 0.72565 0.13389 0.68503 0.0
H565 H 0.71141 0.10275 0.81548 0.0
H566 H 0.73201 0.06329 0.73216 0.0
C567 C 0.71905 0.18798 0.68734 0.0
C568 C 0.00198 0.70065 0.56663 0.0
C569 C 0.01224 0.67905 0.51714 0.0
H570 H 0.01802 0.70108 0.65238 0.0
C571 C 0.04253 0.63679 0.51713 0.0
H572 H 0.97976 0.73401 0.56807 0.0
C573 C 0.06255 0.61676 0.56513 0.0
C574 C 0.05437 0.63984 0.61439 0.0
H575 H 0.05298 0.62085 0.47986 0.0
H576 H 0.08745 0.58547 0.56359 0.0
C577 C 0.02377 0.68188 0.61486 0.0
C578 C 0.63996 0.76633 0.80969 0.0
C579 C 0.63673 0.79069 0.75924 0.0
H580 H 0.66257 0.7776 0.894 0.0
C581 C 0.6646 0.84297 0.75406 0.0
H582 H 0.61939 0.72588 0.81508 0.0
C583 C 0.69093 0.87184 0.79892 0.0
C584 C 0.68867 0.84981 0.85048 0.0
H585 H 0.66363 0.86278 0.7158 0.0
H586 H 0.70908 0.91322 0.79397 0.0
C587 C 0.6654 0.79573 0.85497 0.0
C588 C 0.55295 0.38549 0.08505 0.0
C589 C 0.5402 0.4055 0.03421 0.0
H590 H 0.53969 0.3856 0.16878 0.0
C591 C 0.50183 0.44048 0.02915 0.0
H592 H 0.58113 0.35722 0.08988 0.0
C593 C 0.47761 0.4562 0.07394 0.0
C594 C 0.49196 0.43798 0.12507 0.0
H595 H 0.48914 0.45427 0.99024 0.0
H596 H 0.44667 0.48155 0.06835 0.0
C597 C 0.52965 0.40212 0.13013 0.0
C598 C 0.81118 0.11918 0.26682 0.0
C599 C 0.83724 0.16985 0.25212 0.0
H600 H 0.77614 0.07142 0.32934 0.0
C601 C 0.83748 0.21397 0.28681 0.0
H602 H 0.8102 0.08426 0.24125 0.0
C603 C 0.81694 0.20655 0.33727 0.0
C604 C 0.79583 0.15483 0.35396 0.0
H605 H 0.85607 0.25372 0.27609 0.0
H606 H 0.82241 0.24025 0.36524 0.0
C607 C 0.79047 0.11186 0.31704 0.0
C608 C 0.01462 0.13535 0.46763 0.0
C609 C 0.01821 0.0927 0.43223 0.0
H610 H 0.96187 0.17563 0.51125 0.0
C611 C 0.97337 0.05215 0.42257 0.0
H612 H 0.04816 0.16768 0.47516 0.0
C613 C 0.92524 0.05539 0.44561 0.0
C614 C 0.92028 0.10046 0.47689 0.0
H615 H 0.97496 0.0186 0.39596 0.0
H616 H 0.89023 0.02547 0.43433 0.0
C617 C 0.96572 0.13955 0.48921 0.0
C618 C 0.28735 0.72615 0.64729 0.0
C619 C 0.28641 0.77756 0.66831 0.0
H620 H 0.2529 0.64309 0.64778 0.0
C621 C 0.26014 0.7828 0.71522 0.0
H622 H 0.30626 0.72115 0.61046 0.0
C623 C 0.22953 0.73799 0.73675 0.0
C624 C 0.22492 0.68751 0.71142 0.0
H625 H 0.25864 0.82219 0.73176 0.0
H626 H 0.20423 0.74392 0.76878 0.0
C627 C 0.25686 0.68137 0.66878 0.0
C628 C 0.53401 0.01276 0.9574 0.0
C629 C 0.53093 0.04493 0.9118 0.0
H630 H 0.57979 0.96188 0.00381 0.0
C631 C 0.577 0.05713 0.88285 0.0
H632 H 0.4994 0.00237 0.98052 0.0
C633 C 0.6231 0.0339 0.89623 0.0
C634 C 0.62444 0.9982 0.93906 0.0
H635 H 0.57673 0.08291 0.84844 0.0
H636 H 0.65654 0.04112 0.871 0.0
C637 C 0.58034 0.98976 0.97101 0.0
C638 C 0.34703 0.25639 0.21945 0.0
C639 C 0.30056 0.25036 0.18384 0.0
H640 H 0.40773 0.31062 0.26503 0.0
C641 C 0.27514 0.2953 0.17281 0.0
H642 H 0.36908 0.22326 0.22657 0.0
C643 C 0.29871 0.34616 0.19318 0.0
C644 C 0.34777 0.35266 0.22512 0.0
H645 H 0.23957 0.29188 0.14494 0.0
H646 H 0.28202 0.38098 0.1788 0.0
C647 C 0.36926 0.30665 0.24148 0.0
C648 C 0.02134 0.02331 0.11787 0.0
C649 C 0.00824 0.0533 0.16114 0.0
H650 H 0.99238 0.96411 0.05637 0.0
C651 C 0.95345 0.05465 0.16803 0.0
H652 H 0.06317 0.02194 0.11109 0.0
C653 C 0.91276 0.02163 0.1364 0.0
C654 C 0.92625 0.98679 0.09735 0.0
H655 H 0.94203 0.07728 0.20108 0.0
H656 H 0.87132 0.01894 0.14665 0.0
C657 C 0.98074 0.99069 0.08604 0.0
C658 C 0.26262 0.69176 0.44111 0.0
C659 C 0.26382 0.74148 0.41594 0.0
H660 H 0.28716 0.61396 0.43983 0.0
C661 C 0.28825 0.74931 0.3674 0.0
H662 H 0.24408 0.68479 0.47866 0.0
C663 C 0.31215 0.7089 0.34485 0.0
C664 C 0.31222 0.65963 0.37047 0.0
H665 H 0.29086 0.78774 0.34841 0.0
H666 H 0.33288 0.71705 0.30875 0.0
C667 C 0.28654 0.65116 0.41855 0.0
C668 C 0.48265 0.08243 0.62852 0.0
C669 C 0.46612 0.03508 0.65602 0.0
H670 H 0.54231 0.12556 0.58192 0.0
C671 C 0.49289 0.99088 0.64963 0.0
H672 H 0.46285 0.11717 0.63269 0.0
C673 C 0.53888 0.99597 0.62067 0.0
C674 C 0.55783 0.04498 0.59718 0.0
H675 H 0.48124 0.95403 0.67071 0.0
H676 H 0.56266 0.96365 0.62138 0.0
C677 C 0.52749 0.08697 0.59852 0.0
C678 C 0.19802 0.30101 0.90247 0.0
C679 C 0.2543 0.30461 0.90614 0.0
H680 H 0.12978 0.33813 0.87989 0.0
C681 C 0.28581 0.35107 0.88748 0.0
H682 H 0.17259 0.2653 0.91486 0.0
C683 C 0.26097 0.39418 0.86796 0.0
C684 C 0.20454 0.39069 0.86664 0.0
H685 H 0.32941 0.35479 0.8898 0.0
H686 H 0.28565 0.43053 0.85573 0.0
C687 C 0.17352 0.34284 0.88222 0.0
C688 C 0.45793 0.99328 0.0826 0.0
C689 C 0.40477 0.99931 0.06487 0.0
H690 H 0.50892 0.94217 0.12124 0.0
C691 C 0.36607 0.95292 0.05597 0.0
H692 H 0.48919 0.02776 0.08734 0.0
C693 C 0.37813 0.9032 0.07317 0.0
C694 C 0.42851 0.89963 0.10038 0.0
H695 H 0.32491 0.95566 0.04166 0.0
H696 H 0.34551 0.86951 0.07289 0.0
C697 C 0.46977 0.94384 0.10055 0.0
C698 C 0.91807 0.54457 0.00389 0.0
C699 C 0.88158 0.55811 0.03953 0.0
H700 H 0.97127 0.57205 0.94352 0.0
C701 C 0.87699 0.61241 0.04736 0.0
H702 H 0.92225 0.50309 0.99709 0.0
C703 C 0.90431 0.65173 0.01582 0.0
C704 C 0.93772 0.63725 0.97765 0.0
H705 H 0.84898 0.62399 0.07442 0.0
H706 H 0.89638 0.69258 0.01843 0.0
C707 C 0.94631 0.58394 0.97352 0.0
C708 C 0.70087 0.65044 0.28969 0.0
C709 C 0.75065 0.68029 0.27839 0.0
H710 H 0.61478 0.64625 0.28092 0.0
C711 C 0.75275 0.7347 0.26614 0.0
H712 H 0.69799 0.60839 0.29941 0.0
C713 C 0.70556 0.75704 0.2577 0.0
C714 C 0.65518 0.72435 0.25886 0.0
H715 H 0.79063 0.75835 0.2575 0.0
H716 H 0.70828 0.79686 0.24109 0.0
C717 C 0.65319 0.67251 0.28002 0.0
C718 C 0.61853 0.5612 0.45813 0.0
C719 C 0.64939 0.56172 0.5073 0.0
H720 H 0.56907 0.51375 0.39652 0.0
C721 C 0.65109 0.51303 0.53389 0.0
H722 H 0.6176 0.59776 0.43597 0.0
C723 C 0.62467 0.46455 0.51054 0.0
C724 C 0.59567 0.46379 0.46023 0.0
H725 H 0.67504 0.51189 0.57161 0.0
H726 H 0.63023 0.42747 0.53021 0.0
C727 C 0.59086 0.51298 0.4355 0.0
C728 C 0.31018 0.9208 0.31303 0.0
C729 C 0.25753 0.89805 0.29374 0.0
H730 H 0.39504 0.91902 0.3099 0.0
C731 C 0.24993 0.8501 0.2635 0.0
H732 H 0.31703 0.95774 0.33654 0.0
C733 C 0.29421 0.82771 0.2489 0.0
C734 C 0.34692 0.85258 0.26484 0.0
H735 H 0.20997 0.8326 0.24731 0.0
H736 H 0.28754 0.79385 0.22109 0.0
C737 C 0.35463 0.89825 0.2986 0.0
C738 C 0.11846 0.07286 0.57006 0.0
C739 C 0.10753 0.02817 0.60325 0.0
H740 H 0.11247 0.15611 0.55768 0.0
C741 C 0.07697 0.03284 0.64732 0.0
H742 H 0.14118 0.07043 0.53532 0.0
C743 C 0.06123 0.08152 0.66024 0.0
C744 C 0.07312 0.12661 0.62813 0.0
H745 H 0.0667 0.9995 0.6734 0.0
H746 H 0.04042 0.08427 0.69631 0.0
C747 C 0.1011 0.12157 0.58221 0.0
C748 C 0.74844 0.3881 0.30664 0.0
C749 C 0.7424 0.42613 0.2667 0.0
H750 H 0.70919 0.33532 0.36323 0.0
C751 C 0.69018 0.43109 0.24509 0.0
H752 H 0.7882 0.38256 0.32327 0.0
C753 C 0.64489 0.40361 0.26776 0.0
C754 C 0.65132 0.37067 0.31211 0.0
H755 H 0.68422 0.45984 0.21414 0.0
H756 H 0.60534 0.41291 0.25482 0.0
C757 C 0.70315 0.3601 0.32874 0.0
C758 C 0.851 0.6193 0.72566 0.0
C759 C 0.79934 0.6315 0.73299 0.0
H760 H 0.93484 0.63253 0.75401 0.0
C761 C 0.79476 0.67556 0.76602 0.0
H762 H 0.85573 0.58533 0.70077 0.0
C763 C 0.83993 0.70248 0.79633 0.0
C764 C 0.89042 0.68585 0.79402 0.0
H765 H 0.75549 0.6862 0.77207 0.0
H766 H 0.83438 0.73255 0.82563 0.0
C767 C 0.89638 0.64647 0.75596 0.0
C768 C 0.51401 0.87774 0.41952 0.0
C769 C 0.50725 0.90744 0.46545 0.0
H770 H 0.54896 0.87835 0.34407 0.0
C771 C 0.52096 0.96361 0.46532 0.0
H772 H 0.50303 0.83447 0.41848 0.0
C773 C 0.5481 0.98874 0.42301 0.0
C774 C 0.55993 0.95795 0.37983 0.0
H775 H 0.51559 0.98729 0.50009 0.0
H776 H 0.56382 0.03124 0.42622 0.0
C777 C 0.53985 0.90285 0.37688 0.0
C778 C 0.4677 0.23626 0.68026 0.0
C779 C 0.46403 0.25786 0.73162 0.0
H780 H 0.44531 0.24 0.59587 0.0
C781 C 0.42995 0.29627 0.73744 0.0
H782 H 0.49463 0.20754 0.67445 0.0
C783 C 0.40055 0.31307 0.69293 0.0
C784 C 0.40453 0.29205 0.64153 0.0
H785 H 0.42634 0.31382 0.77637 0.0
H786 H 0.37629 0.34436 0.69827 0.0
C787 C 0.43884 0.25398 0.63542 0.0
C788 C 0.058 0.1777 0.93788 0.0
C789 C 0.03989 0.15474 0.98565 0.0
H790 H 0.04149 0.18117 0.85287 0.0
C791 C 0.00365 0.10612 0.98236 0.0
H792 H 0.08575 0.21518 0.93891 0.0
C793 C 0.98002 0.08541 0.93257 0.0
C794 C 0.99121 0.1138 0.88547 0.0
H795 H 0.98929 0.08715 0.01841 0.0
H796 H 0.94703 0.05206 0.9318 0.0
C797 C 0.03354 0.15749 0.88815 0.0
C798 C 0.16882 0.74078 0.1835 0.0
C799 C 0.18767 0.71663 0.23038 0.0
H800 H 0.16152 0.73878 0.0977 0.0
C801 C 0.2275 0.68355 0.22567 0.0
H802 H 0.13967 0.76789 0.18478 0.0
C803 C 0.24124 0.66822 0.17537 0.0
C804 C 0.21401 0.68415 0.12875 0.0
H805 H 0.24474 0.66526 0.26022 0.0
H806 H 0.26595 0.63681 0.17334 0.0
C807 C 0.18279 0.72543 0.13315 0.0
C808 C 0.48631 0.22213 0.06541 0.0
C809 C 0.49015 0.19502 0.0168 0.0
H810 H 0.51023 0.22852 0.14996 0.0
C811 C 0.51416 0.14845 0.01806 0.0
H812 H 0.4691 0.25887 0.06571 0.0
C813 C 0.53719 0.13126 0.06563 0.0
C814 C 0.53668 0.16003 0.11361 0.0
H815 H 0.52 0.12814 0.98144 0.0
H816 H 0.55947 0.09791 0.06396 0.0
C817 C 0.51004 0.20504 0.11354 0.0
C818 C 0.11537 0.27432 0.28126 0.0
C819 C 0.12751 0.29836 0.23203 0.0
H820 H 0.13178 0.27712 0.36695 0.0
C821 C 0.17096 0.34093 0.23195 0.0
H822 H 0.08208 0.24159 0.28297 0.0
C823 C 0.19978 0.36068 0.27991 0.0
C824 C 0.18585 0.3385 0.3293 0.0
H825 H 0.18119 0.36082 0.19502 0.0
H826 H 0.23082 0.39562 0.27878 0.0
C827 C 0.14428 0.29416 0.32938 0.0
C828 C 0.01717 0.96484 0.50742 0.0
C829 C 0.01994 0.90972 0.50408 0.0
H830 H 0.98453 0.02751 0.5452 0.0
C831 C 0.99637 0.87626 0.54345 0.0
H832 H 0.03744 0.99204 0.47957 0.0
C833 C 0.96864 0.89688 0.58311 0.0
C834 C 0.9616 0.95132 0.58377 0.0
H835 H 0.99788 0.83371 0.54318 0.0
H836 H 0.95206 0.86941 0.61288 0.0
C837 C 0.98758 0.98527 0.54595 0.0
C838 C 0.34011 0.63659 0.75413 0.0
C839 C 0.37138 0.68682 0.74578 0.0
H840 H 0.29655 0.58546 0.80927 0.0
C841 C 0.37339 0.7277 0.78475 0.0
H842 H 0.33725 0.60407 0.72519 0.0
C843 C 0.34958 0.71684 0.83318 0.0
C844 C 0.32294 0.66504 0.84335 0.0
H845 H 0.39571 0.76728 0.77909 0.0
H846 H 0.35671 0.74725 0.86477 0.0
C847 C 0.31559 0.62611 0.80205 0.0
C848 C 0.48173 0.52133 0.90564 0.0
C849 C 0.52993 0.55781 0.9143 0.0
H850 H 0.39717 0.50453 0.91696 0.0
C851 C 0.53071 0.60317 0.94741 0.0
H852 H 0.48012 0.48588 0.8806 0.0
C853 C 0.48344 0.61365 0.96852 0.0
C854 C 0.43459 0.57873 0.9573 0.0
H855 H 0.56703 0.63245 0.95415 0.0
H856 H 0.48402 0.65132 0.98976 0.0
C857 C 0.43465 0.5313 0.92759 0.0
C858 C 0.75505 0.30512 0.19052 0.0
C859 C 0.78501 0.29633 0.1472 0.0
H860 H 0.69485 0.27137 0.24217 0.0
C861 C 0.78522 0.2436 0.12935 0.0
H862 H 0.75357 0.34551 0.20364 0.0
C863 C 0.75075 0.20119 0.15034 0.0
C864 C 0.7169 0.21089 0.19026 0.0
H865 H 0.80714 0.23583 0.09522 0.0
H866 H 0.74641 0.16184 0.13147 0.0
C867 C 0.72153 0.26273 0.21232 0.0
C868 C 0.1038 0.54768 0.3859 0.0
C869 C 0.05886 0.53271 0.41571 0.0
H870 H 0.18336 0.53432 0.3706 0.0
C871 C 0.06445 0.50088 0.46113 0.0
H872 H 0.101 0.57333 0.35159 0.0
C873 C 0.11152 0.47844 0.47204 0.0
C874 C 0.15375 0.48776 0.4378 0.0
H875 H 0.03069 0.48914 0.48521 0.0
H876 H 0.11215 0.44913 0.50347 0.0
C877 C 0.15111 0.52588 0.39722 0.0
C878 C 0.73025 0.85315 0.62384 0.0
C879 C 0.74544 0.80786 0.64972 0.0
H880 H 0.74888 0.93817 0.61474 0.0
C881 C 0.77916 0.81547 0.69746 0.0
H882 H 0.70359 0.84852 0.58744 0.0
C883 C 0.80499 0.86706 0.71317 0.0
C884 C 0.79711 0.91133 0.68139 0.0
H885 H 0.79129 0.78147 0.71857 0.0
H886 H 0.83712 0.87112 0.74503 0.0
C887 C 0.75552 0.90471 0.64004 0.0
C888 C 0.53035 0.49704 0.60166 0.0
C889 C 0.51545 0.52617 0.64451 0.0
H890 H 0.50422 0.44287 0.5356 0.0
C891 C 0.4605 0.53022 0.64731 0.0
H892 H 0.57205 0.49294 0.59879 0.0
C893 C 0.42102 0.49966 0.61204 0.0
C894 C 0.43617 0.4655 0.57315 0.0
H895 H 0.44768 0.55269 0.67969 0.0
H896 H 0.3789 0.49758 0.61969 0.0
C897 C 0.49133 0.46888 0.56501 0.0
C898 C 0.79431 0.27971 0.83753 0.0
C899 C 0.77954 0.27537 0.8905 0.0
H900 H 0.83392 0.24688 0.77496 0.0
C901 C 0.78842 0.22976 0.91948 0.0
H902 H 0.78798 0.31453 0.81483 0.0
C903 C 0.81222 0.18982 0.89627 0.0
C904 C 0.8302 0.19558 0.8443 0.0
H905 H 0.77661 0.22486 0.96012 0.0
H906 H 0.81822 0.15509 0.91987 0.0
C907 C 0.82013 0.24068 0.81476 0.0
C908 C 0.98816 0.544 0.12702 0.0
C909 C 0.99227 0.50115 0.16185 0.0
H910 H 0.02581 0.59583 0.06889 0.0
C911 C 0.03513 0.47184 0.15786 0.0
H912 H 0.9561 0.56777 0.12934 0.0
C913 C 0.07547 0.48819 0.12287 0.0
C914 C 0.07325 0.53388 0.09142 0.0
H915 H 0.03943 0.43856 0.18414 0.0
H916 H 0.11057 0.46809 0.12388 0.0
C917 C 0.0279 0.55991 0.09199 0.0
C918 C 0.78779 0.86853 0.33005 0.0
C919 C 0.79964 0.86551 0.3856 0.0
H920 H 0.74477 0.90579 0.26754 0.0
C921 C 0.79448 0.90966 0.41811 0.0
H922 H 0.79421 0.83681 0.3036 0.0
C923 C 0.76859 0.95077 0.39705 0.0
C924 C 0.74619 0.94757 0.34379 0.0
H925 H 0.80574 0.90984 0.46077 0.0
H926 H 0.76061 0.98163 0.42379 0.0
C927 C 0.76027 0.90883 0.30922 0.0
C928 C 0.9367 0.54981 0.58138 0.0
C929 C 0.88917 0.55801 0.55149 0.0
H930 H 0.9897 0.49454 0.60603 0.0
C931 C 0.86196 0.51584 0.51764 0.0
H932 H 0.95794 0.58003 0.60896 0.0
C933 C 0.87975 0.46591 0.51721 0.0
C934 C 0.92561 0.45751 0.54976 0.0
H935 H 0.82497 0.51981 0.49415 0.0
H936 H 0.85513 0.43262 0.49512 0.0
C937 C 0.95541 0.50075 0.57942 0.0
C938 C 0.34225 0.09021 0.58601 0.0
C939 C 0.3512 0.03957 0.5684 0.0
H940 H 0.35804 0.17532 0.57489 0.0
C941 C 0.38971 0.03661 0.53106 0.0
H942 H 0.31208 0.09366 0.61397 0.0
C943 C 0.41741 0.08341 0.51036 0.0
C944 C 0.40637 0.13384 0.52594 0.0
H945 H 0.39711 0.99814 0.5165 0.0
H946 H 0.44505 0.08012 0.47972 0.0
C947 C 0.36885 0.13698 0.56413 0.0
C948 C 0.20799 0.21124 0.81032 0.0
C949 C 0.25073 0.24032 0.78465 0.0
H950 H 0.12273 0.19532 0.81416 0.0
C951 C 0.24233 0.28818 0.75909 0.0
H952 H 0.21323 0.17529 0.83213 0.0
C953 C 0.18987 0.29891 0.74758 0.0
C954 C 0.14575 0.26164 0.76174 0.0
H955 H 0.2753 0.313 0.74131 0.0
H956 H 0.18415 0.33067 0.71982 0.0
C957 C 0.15579 0.22323 0.80039 0.0
C958 C 0.16878 0.96009 0.04402 0.0
C959 C 0.16048 0.01358 0.03748 0.0
H960 H 0.15223 0.88004 0.01149 0.0
C961 C 0.11797 0.0244 1.00165 0.0
H962 H 0.20105 0.95046 0.07164 0.0
C963 C 0.08876 0.98365 0.96831 0.0
C964 C 0.10283 0.93176 0.96898 0.0
H965 H 0.11007 0.0651 0.99651 0.0
H966 H 0.05924 0.99411 0.93799 0.0
C967 C 0.14036 0.91949 0.00978 0.0
C968 C 0.7652 0.33076 0.68789 0.0
C969 C 0.77444 0.37256 0.72648 0.0
H970 H 0.80003 0.28406 0.63225 0.0
C971 C 0.82786 0.39191 0.7461 0.0
H972 H 0.72466 0.31599 0.67098 0.0
C973 C 0.87117 0.37274 0.72445 0.0
C974 C 0.86179 0.33508 0.68174 0.0
H975 H 0.83613 0.42365 0.77629 0.0
H976 H 0.91189 0.39242 0.73624 0.0
C977 C 0.80841 0.31171 0.66625 0.0
C978 C 0.5822 0.57083 0.06554 0.0
C979 C 0.63616 0.57193 0.05488 0.0
H980 H 0.52278 0.61309 0.0931 0.0
C981 C 0.66881 0.62185 0.04982 0.0
H982 H 0.55658 0.5332 0.06922 0.0
C983 C 0.64921 0.6692 0.0625 0.0
C984 C 0.59741 0.66669 0.08178 0.0
H985 H 0.71068 0.62395 0.0413 0.0
H986 H 0.67681 0.70684 0.0638 0.0
C987 C 0.56278 0.61733 0.0787 0.0
C988 C 0.1694 0.00334 0.74339 0.0
C989 C 0.22086 0.98908 0.74089 0.0
H990 H 0.09064 0.98123 0.77133 0.0
C991 C 0.22861 0.93634 0.75209 0.0
H992 H 0.16259 0.04389 0.7349 0.0
C993 C 0.18735 0.90036 0.7722 0.0
C994 C 0.13824 0.91711 0.78215 0.0
H995 H 0.26796 0.92443 0.7497 0.0
H996 H 0.19637 0.86196 0.78617 0.0
C997 C 0.12822 0.96748 0.76403 0.0
C998 C 0.27627 0.23181 0.32576 0.0
C999 C 0.27064 0.18296 0.29693 0.0
H1000 H 0.325 0.28482 0.38413 0.0
C1001 C 0.31508 0.15532 0.29725 0.0
H1002 H 0.24281 0.25372 0.32662 0.0
C1003 C 0.36257 0.17414 0.32862 0.0
C1004 C 0.36612 0.22018 0.36115 0.0
H1005 H 0.31225 0.11749 0.2757 0.0
H1006 H 0.39452 0.14978 0.33156 0.0
C1007 C 0.3235 0.25004 0.35814 0.0
loop_
_geom_bond_atom_site_label_1
_geom_bond_atom_site_label_2
_geom_bond_distance
_geom_bond_site_symmetry_2
_ccdc_geom_bond_type
Cu0 N1 1.996 1_455 S
Cu0 O6 1.976 . S
Cu0 N11 1.988 . S
Cu0 O20 1.957 1_455 S
N1 Cu0 1.996 1_655 S
N1 C3 1.263 . S
N1 C5 1.389 . S
N2 C3 1.358 . S
N2 C4 1.400 . S
C3 N1 1.263 . S
C3 N2 1.358 . S
C3 H9 0.930 . S
C4 N2 1.400 . S
C4 C5 1.351 . S
C4 H21 0.930 . S
C5 N1 1.389 . S
C5 C4 1.351 . S
C5 H10 0.930 . S
O6 Cu0 1.976 . S
O6 C16 1.282 . S
C7 O8 1.261 1_655 S
C7 O20 1.251 . S
O8 C7 1.261 1_455 S
H9 C3 0.930 . S
H10 C5 0.930 . S
N11 Cu0 1.988 . S
N11 C13 1.335 . S
N11 C14 1.390 . S
N12 C13 1.345 . S
N12 C15 1.336 . S
C13 N11 1.335 . S
C13 N12 1.345 . S
C13 H18 0.930 . S
C14 N11 1.390 . S
C14 C15 1.346 . S
C14 H19 0.930 . S
C15 N12 1.336 . S
C15 C14 1.346 . S
C15 H22 0.929 . S
C16 O6 1.282 . S
C16 O17 1.216 . S
O17 C16 1.216 . S
H18 C13 0.930 . S
H19 C14 0.930 . S
O20 Cu0 1.957 1_655 S
O20 C7 1.251 . S
H21 C4 0.930 . S
H22 C15 0.929 . S
Cu23 N24 1.999 1_455 S
Cu23 O29 1.974 . S
Cu23 N34 1.985 . S
Cu23 O43 1.959 1_455 S
N24 Cu23 1.999 1_655 S
N24 C26 1.263 . S
N24 C28 1.389 . S
N25 C26 1.358 . S
N25 C27 1.400 . S
C26 N24 1.263 . S
C26 N25 1.358 . S
C26 H32 0.930 . S
C27 N25 1.400 . S
C27 C28 1.351 . S
C27 H44 0.930 . S
C28 N24 1.389 . S
C28 C27 1.351 . S
C28 H33 0.930 . S
O29 Cu23 1.974 . S
O29 C39 1.282 . S
C30 O31 1.261 . S
C30 O43 1.251 . S
O31 C30 1.261 . S
H32 C26 0.930 . S
H33 C28 0.930 . S
N34 Cu23 1.985 . S
N34 C36 1.335 . S
N34 C37 1.390 . S
N35 C36 1.345 . S
N35 C38 1.336 . S
C36 N34 1.335 . S
C36 N35 1.345 . S
C36 H41 0.930 . S
C37 N34 1.390 . S
C37 C38 1.346 . S
C37 H42 0.930 . S
C38 N35 1.336 . S
C38 C37 1.346 . S
C38 H45 0.929 . S
C39 O29 1.282 . S
C39 O40 1.205 1_455 S
O40 C39 1.205 1_655 S
H41 C36 0.930 . S
H42 C37 0.930 . S
O43 Cu23 1.959 1_655 S
O43 C30 1.251 . S
H44 C27 0.930 . S
H45 C38 0.929 . S
Cu46 N47 1.999 . S
Cu46 O52 1.974 . S
Cu46 N57 1.985 . S
Cu46 O66 1.959 . S
N47 Cu46 1.999 . S
N47 C49 1.263 . S
N47 C51 1.389 . S
N48 C49 1.358 . S
N48 C50 1.400 . S
C49 N47 1.263 . S
C49 N48 1.358 . S
C49 H55 0.930 . S
C50 N48 1.400 . S
C50 C51 1.351 . S
C50 H67 0.930 . S
C51 N47 1.389 . S
C51 C50 1.351 . S
C51 H56 0.930 . S
O52 Cu46 1.974 . S
O52 C62 1.282 . S
C53 O54 1.261 . S
C53 O66 1.251 . S
O54 C53 1.261 . S
H55 C49 0.930 . S
H56 C51 0.930 . S
N57 Cu46 1.985 . S
N57 C59 1.335 . S
N57 C60 1.390 . S
N58 C59 1.345 . S
N58 C61 1.336 . S
C59 N57 1.335 . S
C59 N58 1.345 . S
C59 H64 0.930 . S
C60 N57 1.390 . S
C60 C61 1.346 . S
C60 H65 0.930 . S
C61 N58 1.336 . S
C61 C60 1.346 . S
C61 H68 0.929 . S
C62 O52 1.282 . S
C62 O63 1.216 . S
O63 C62 1.216 . S
H64 C59 0.930 . S
H65 C60 0.930 . S
O66 Cu46 1.959 . S
O66 C53 1.251 . S
H67 C50 0.930 . S
H68 C61 0.929 . S
Cu69 N70 1.999 . S
Cu69 O75 1.974 . S
Cu69 N80 1.985 . S
Cu69 O89 1.959 . S
N70 Cu69 1.999 . S
N70 C72 1.263 . S
N70 C74 1.389 . S
N71 C72 1.358 1_554 S
N71 C73 1.400 1_554 S
C72 N70 1.263 . S
C72 N71 1.358 1_556 S
C72 H78 0.930 1_556 S
C73 N71 1.400 1_556 S
C73 C74 1.351 . S
C73 H90 0.930 . S
C74 N70 1.389 . S
C74 C73 1.351 . S
C74 H79 0.930 . S
O75 Cu69 1.974 . S
O75 C85 1.282 . S
C76 O77 1.261 . S
C76 O89 1.251 . S
O77 C76 1.261 . S
H78 C72 0.930 1_554 S
H79 C74 0.930 . S
N80 Cu69 1.985 . S
N80 C82 1.335 . S
N80 C83 1.390 . S
N81 C82 1.345 . S
N81 C84 1.336 . S
C82 N80 1.335 . S
C82 N81 1.345 . S
C82 H87 0.930 . S
C83 N80 1.390 . S
C83 C84 1.346 . S
C83 H88 0.930 . S
C84 N81 1.336 . S
C84 C83 1.346 . S
C84 H91 0.929 . S
C85 O75 1.282 . S
C85 O86 1.216 . S
O86 C85 1.216 . S
H87 C82 0.930 . S
H88 C83 0.930 . S
O89 Cu69 1.959 . S
O89 C76 1.251 . S
H90 C73 0.930 . S
H91 C84 0.929 . S
Cu92 N93 1.999 1_565 S
Cu92 O98 1.974 . S
Cu92 N103 1.985 . S
Cu92 O112 1.959 1_565 S
N93 Cu92 1.999 1_545 S
N93 C95 1.263 . S
N93 C97 1.389 . S
N94 C95 1.358 . S
N94 C96 1.400 . S
C95 N93 1.263 . S
C95 N94 1.358 . S
C95 H101 0.930 . S
C96 N94 1.400 . S
C96 C97 1.351 . S
C96 H113 0.930 . S
C97 N93 1.389 . S
C97 C96 1.351 . S
C97 H102 0.930 . S
O98 Cu92 1.974 . S
O98 C108 1.282 . S
C99 O100 1.261 . S
C99 O112 1.251 . S
O100 C99 1.261 . S
H101 C95 0.930 . S
H102 C97 0.930 . S
N103 Cu92 1.985 . S
N103 C105 1.335 . S
N103 C106 1.390 . S
N104 C105 1.345 . S
N104 C107 1.336 . S
C105 N103 1.335 . S
C105 N104 1.345 . S
C105 H110 0.930 . S
C106 N103 1.390 . S
C106 C107 1.346 . S
C106 H111 0.930 . S
C107 N104 1.336 . S
C107 C106 1.346 . S
C107 H114 0.929 . S
C108 O98 1.282 . S
C108 O109 1.216 . S
O109 C108 1.216 . S
H110 C105 0.930 . S
H111 C106 0.930 . S
O112 Cu92 1.959 1_545 S
O112 C99 1.251 . S
H113 C96 0.930 . S
H114 C107 0.929 . S
Cu115 N116 1.999 . S
Cu115 O121 1.974 . S
Cu115 N126 1.985 . S
Cu115 O135 1.959 . S
N116 Cu115 1.999 . S
N116 C118 1.263 . S
N116 C120 1.389 . S
N117 C118 1.358 . S
N117 C119 1.400 . S
C118 N116 1.263 . S
C118 N117 1.358 . S
C118 H124 0.930 . S
C119 N117 1.400 . S
C119 C120 1.351 . S
C119 H136 0.930 . S
C120 N116 1.389 . S
C120 C119 1.351 . S
C120 H125 0.930 . S
O121 Cu115 1.974 . S
O121 C131 1.282 . S
C122 O123 1.261 1_545 S
C122 O135 1.251 1_545 S
O123 C122 1.261 1_565 S
H124 C118 0.930 . S
H125 C120 0.930 . S
N126 Cu115 1.985 . S
N126 C128 1.335 1_565 S
N126 C129 1.390 . S
N127 C128 1.345 . S
N127 C130 1.336 . S
C128 N126 1.335 1_545 S
C128 N127 1.345 . S
C128 H133 0.930 . S
C129 N126 1.390 . S
C129 C130 1.346 1_565 S
C129 H134 0.930 . S
C130 N127 1.336 . S
C130 C129 1.346 1_545 S
C130 H137 0.929 . S
C131 O121 1.282 . S
C131 O132 1.216 . S
O132 C131 1.216 . S
H133 C128 0.930 . S
H134 C129 0.930 . S
O135 Cu115 1.959 . S
O135 C122 1.251 1_565 S
H136 C119 0.930 . S
H137 C130 0.929 . S
Cu138 N139 1.999 . S
Cu138 O144 1.974 . S
Cu138 N149 1.985 . S
Cu138 O158 1.959 . S
N139 Cu138 1.999 . S
N139 C141 1.263 1_545 S
N139 C143 1.389 1_545 S
N140 C141 1.358 . S
N140 C142 1.400 . S
C141 N139 1.263 1_565 S
C141 N140 1.358 . S
C141 H147 0.930 . S
C142 N140 1.400 . S
C142 C143 1.351 . S
C142 H159 0.930 . S
C143 N139 1.389 1_565 S
C143 C142 1.351 . S
C143 H148 0.930 . S
O144 Cu138 1.974 . S
O144 C154 1.282 . S
C145 O146 1.261 . S
C145 O158 1.251 1_565 S
O146 C145 1.261 . S
H147 C141 0.930 . S
H148 C143 0.930 . S
N149 Cu138 1.985 . S
N149 C151 1.335 . S
N149 C152 1.390 . S
N150 C151 1.345 . S
N150 C153 1.336 . S
C151 N149 1.335 . S
C151 N150 1.345 . S
C151 H156 0.930 . S
C152 N149 1.390 . S
C152 C153 1.346 . S
C152 H157 0.930 . S
C153 N150 1.336 . S
C153 C152 1.346 . S
C153 H160 0.929 . S
C154 O144 1.282 . S
C154 O155 1.216 . S
O155 C154 1.216 . S
H156 C151 0.930 . S
H157 C152 0.930 . S
O158 Cu138 1.959 . S
O158 C145 1.251 1_545 S
H159 C142 0.930 . S
H160 C153 0.929 . S
Cu161 N162 1.999 . S
Cu161 O167 1.974 1_556 S
Cu161 N172 1.985 1_556 S
Cu161 O181 1.959 . S
N162 Cu161 1.999 . S
N162 C164 1.263 . S
N162 C166 1.389 . S
N163 C164 1.358 . S
N163 C165 1.400 . S
C164 N162 1.263 . S
C164 N163 1.358 . S
C164 H170 0.930 . S
C165 N163 1.400 . S
C165 C166 1.351 . S
C165 H182 0.930 . S
C166 N162 1.389 . S
C166 C165 1.351 . S
C166 H171 0.930 . S
O167 Cu161 1.974 1_554 S
O167 C177 1.282 . S
C168 O169 1.261 1_556 S
C168 O181 1.251 . S
O169 C168 1.261 1_554 S
H170 C164 0.930 . S
H171 C166 0.930 . S
N172 Cu161 1.985 1_554 S
N172 C174 1.335 . S
N172 C175 1.390 . S
N173 C174 1.345 . S
N173 C176 1.336 . S
C174 N172 1.335 . S
C174 N173 1.345 . S
C174 H179 0.930 1_554 S
C175 N172 1.390 . S
C175 C176 1.346 . S
C175 H180 0.930 . S
C176 N173 1.336 . S
C176 C175 1.346 . S
C176 H183 0.929 . S
C177 O167 1.282 . S
C177 O178 1.216 . S
O178 C177 1.216 . S
H179 C174 0.930 1_556 S
H180 C175 0.930 . S
O181 Cu161 1.959 . S
O181 C168 1.251 . S
H182 C165 0.930 . S
H183 C176 0.929 . S
Cu184 N185 1.999 . S
Cu184 O190 1.974 1_556 S
Cu184 N195 1.985 1_556 S
Cu184 O204 1.959 . S
N185 Cu184 1.999 . S
N185 C187 1.263 . S
N185 C189 1.389 . S
N186 C187 1.358 . S
N186 C188 1.400 . S
C187 N185 1.263 . S
C187 N186 1.358 . S
C187 H193 0.930 . S
C188 N186 1.400 . S
C188 C189 1.351 . S
C188 H205 0.930 . S
C189 N185 1.389 . S
C189 C188 1.351 . S
C189 H194 0.930 . S
O190 Cu184 1.974 1_554 S
O190 C200 1.282 . S
C191 O192 1.261 1_556 S
C191 O204 1.251 . S
O192 C191 1.261 1_554 S
H193 C187 0.930 . S
H194 C189 0.930 . S
N195 Cu184 1.985 1_554 S
N195 C197 1.335 . S
N195 C198 1.390 . S
N196 C197 1.345 . S
N196 C199 1.336 . S
C197 N195 1.335 . S
C197 N196 1.345 . S
C197 H202 0.930 1_554 S
C198 N195 1.390 . S
C198 C199 1.346 . S
C198 H203 0.930 . S
C199 N196 1.336 . S
C199 C198 1.346 . S
C199 H206 0.929 . S
C200 O190 1.282 . S
C200 O201 1.216 . S
O201 C200 1.216 . S
H202 C197 0.930 1_556 S
H203 C198 0.930 . S
O204 Cu184 1.959 . S
O204 C191 1.251 . S
H205 C188 0.930 . S
H206 C199 0.929 . S
Cu207 N208 1.999 . S
Cu207 O213 1.974 . S
Cu207 N218 1.985 . S
Cu207 O227 1.959 . S
N208 Cu207 1.999 . S
N208 C210 1.263 . S
N208 C212 1.389 . S
N209 C210 1.358 1_455 S
N209 C211 1.400 1_455 S
C210 N208 1.263 . S
C210 N209 1.358 1_655 S
C210 H216 0.930 . S
C211 N209 1.400 1_655 S
C211 C212 1.351 . S
C211 H228 0.930 . S
C212 N208 1.389 . S
C212 C211 1.351 . S
C212 H217 0.930 . S
O213 Cu207 1.974 . S
O213 C223 1.282 . S
C214 O215 1.261 . S
C214 O227 1.251 . S
O215 C214 1.261 . S
H216 C210 0.930 . S
H217 C212 0.930 . S
N218 Cu207 1.985 . S
N218 C220 1.335 . S
N218 C221 1.390 . S
N219 C220 1.345 . S
N219 C222 1.336 . S
C220 N218 1.335 . S
C220 N219 1.345 . S
C220 H225 0.930 . S
C221 N218 1.390 . S
C221 C222 1.346 . S
C221 H226 0.930 . S
C222 N219 1.336 . S
C222 C221 1.346 . S
C222 H229 0.929 . S
C223 O213 1.282 . S
C223 O224 1.216 . S
O224 C223 1.216 . S
H225 C220 0.930 . S
H226 C221 0.930 . S
O227 Cu207 1.959 . S
O227 C214 1.251 . S
H228 C211 0.930 . S
H229 C222 0.929 . S
Cu230 N231 1.999 . S
Cu230 O236 1.974 . S
Cu230 N241 1.985 . S
Cu230 O250 1.959 . S
N231 Cu230 1.999 . S
N231 C233 1.263 . S
N231 C235 1.389 . S
N232 C233 1.358 . S
N232 C234 1.400 . S
C233 N231 1.263 . S
C233 N232 1.358 . S
C233 H239 0.930 . S
C234 N232 1.400 . S
C234 C235 1.351 . S
C234 H251 0.930 . S
C235 N231 1.389 . S
C235 C234 1.351 . S
C235 H240 0.930 . S
O236 Cu230 1.974 . S
O236 C246 1.282 . S
C237 O238 1.261 . S
C237 O250 1.251 . S
O238 C237 1.261 . S
H239 C233 0.930 . S
H240 C235 0.930 . S
N241 Cu230 1.985 . S
N241 C243 1.335 . S
N241 C244 1.390 . S
N242 C243 1.345 . S
N242 C245 1.336 . S
C243 N241 1.335 . S
C243 N242 1.345 . S
C243 H248 0.930 . S
C244 N241 1.390 . S
C244 C245 1.346 . S
C244 H249 0.930 . S
C245 N242 1.336 . S
C245 C244 1.346 . S
C245 H252 0.929 . S
C246 O236 1.282 . S
C246 O247 1.216 . S
O247 C246 1.216 . S
H248 C243 0.930 . S
H249 C244 0.930 . S
O250 Cu230 1.959 . S
O250 C237 1.251 . S
H251 C234 0.930 . S
H252 C245 0.929 . S
Cu253 N254 1.999 . S
Cu253 O259 1.974 . S
Cu253 N264 1.985 . S
Cu253 O273 1.959 . S
N254 Cu253 1.999 . S
N254 C256 1.263 . S
N254 C258 1.389 . S
N255 C256 1.358 . S
N255 C257 1.400 . S
C256 N254 1.263 . S
C256 N255 1.358 . S
C256 H262 0.930 . S
C257 N255 1.400 . S
C257 C258 1.351 . S
C257 H274 0.930 . S
C258 N254 1.389 . S
C258 C257 1.351 . S
C258 H263 0.930 . S
O259 Cu253 1.974 . S
O259 C269 1.282 . S
C260 O261 1.261 . S
C260 O273 1.251 . S
O261 C260 1.261 . S
H262 C256 0.930 . S
H263 C258 0.930 . S
N264 Cu253 1.985 . S
N264 C266 1.335 . S
N264 C267 1.390 . S
N265 C266 1.345 . S
N265 C268 1.336 . S
C266 N264 1.335 . S
C266 N265 1.345 . S
C266 H271 0.930 . S
C267 N264 1.390 . S
C267 C268 1.346 . S
C267 H272 0.930 . S
C268 N265 1.336 . S
C268 C267 1.346 . S
C268 H275 0.929 . S
C269 O259 1.282 . S
C269 O270 1.216 . S
O270 C269 1.216 . S
H271 C266 0.930 . S
H272 C267 0.930 . S
O273 Cu253 1.959 . S
O273 C260 1.251 . S
H274 C257 0.930 . S
H275 C268 0.929 . S
H276 C284 0.930 . S
H277 C287 0.930 . S
H278 C289 0.930 . S
H279 C290 0.970 . S
H280 C290 0.970 . S
H281 C292 0.930 . S
H282 C294 0.930 . S
H283 C296 0.930 . S
C284 H276 0.930 . S
C284 C285 1.382 . S
C284 C286 1.426 . S
C285 C284 1.382 . S
C285 C289 1.389 . S
C286 C284 1.426 . S
C286 C287 1.375 . S
C286 C290 1.532 . S
C287 H277 0.930 . S
C287 C286 1.375 . S
C287 C288 1.416 . S
C288 C287 1.416 . S
C288 C289 1.371 . S
C289 H278 0.930 . S
C289 C285 1.389 . S
C289 C288 1.371 . S
C290 H279 0.970 . S
C290 H280 0.970 . S
C290 C286 1.532 . S
C290 C291 1.499 . S
C291 C290 1.499 . S
C291 C292 1.370 . S
C291 C296 1.415 . S
C292 H281 0.930 . S
C292 C291 1.370 . S
C292 C293 1.407 1_455 S
C293 C292 1.407 1_655 S
C293 C294 1.365 . S
C294 H282 0.930 . S
C294 C293 1.365 . S
C294 C295 1.393 . S
C295 C294 1.393 . S
C295 C296 1.387 1_655 S
C296 H283 0.930 . S
C296 C291 1.415 . S
C296 C295 1.387 1_455 S
H297 C305 0.930 . S
H298 C308 0.930 . S
H299 C310 0.930 . S
H300 C311 0.970 . S
H301 C311 0.970 . S
H302 C313 0.930 . S
H303 C315 0.930 . S
H304 C317 0.930 . S
C305 H297 0.930 . S
C305 C306 1.382 . S
C305 C307 1.426 . S
C306 C305 1.382 . S
C306 C310 1.389 . S
C307 C305 1.426 . S
C307 C308 1.375 . S
C307 C311 1.532 . S
C308 H298 0.930 . S
C308 C307 1.375 . S
C308 C309 1.416 . S
C309 C308 1.416 . S
C309 C310 1.371 . S
C310 H299 0.930 . S
C310 C306 1.389 . S
C310 C309 1.371 . S
C311 H300 0.970 . S
C311 H301 0.970 . S
C311 C307 1.532 . S
C311 C312 1.499 . S
C312 C311 1.499 . S
C312 C313 1.370 1_455 S
C312 C317 1.415 1_455 S
C313 H302 0.930 . S
C313 C312 1.370 1_655 S
C313 C314 1.407 . S
C314 C313 1.407 . S
C314 C315 1.365 . S
C315 H303 0.930 . S
C315 C314 1.365 . S
C315 C316 1.393 . S
C316 C315 1.393 . S
C316 C317 1.387 . S
C317 H304 0.930 . S
C317 C312 1.415 1_655 S
C317 C316 1.387 . S
H318 C326 0.930 . S
H319 C329 0.930 . S
H320 C331 0.930 . S
H321 C332 0.970 . S
H322 C332 0.970 . S
H323 C334 0.930 . S
H324 C336 0.930 . S
H325 C338 0.930 . S
C326 H318 0.930 . S
C326 C327 1.382 . S
C326 C328 1.426 . S
C327 C326 1.382 . S
C327 C331 1.389 . S
C328 C326 1.426 . S
C328 C329 1.375 . S
C328 C332 1.532 . S
C329 H319 0.930 . S
C329 C328 1.375 . S
C329 C330 1.416 . S
C330 C329 1.416 . S
C330 C331 1.371 . S
C331 H320 0.930 . S
C331 C327 1.389 . S
C331 C330 1.371 . S
C332 H321 0.970 . S
C332 H322 0.970 . S
C332 C328 1.532 . S
C332 C333 1.499 . S
C333 C332 1.499 . S
C333 C334 1.370 . S
C333 C338 1.415 . S
C334 H323 0.930 . S
C334 C333 1.370 . S
C334 C335 1.407 . S
C335 C334 1.407 . S
C335 C336 1.365 . S
C336 H324 0.930 . S
C336 C335 1.365 . S
C336 C337 1.393 . S
C337 C336 1.393 . S
C337 C338 1.387 . S
C338 H325 0.930 . S
C338 C333 1.415 . S
C338 C337 1.387 . S
H339 C347 0.930 . S
H340 C350 0.930 . S
H341 C352 0.930 . S
H342 C353 0.970 . S
H343 C353 0.970 . S
H344 C355 0.930 . S
H345 C357 0.930 . S
H346 C359 0.930 . S
C347 H339 0.930 . S
C347 C348 1.382 . S
C347 C349 1.426 . S
C348 C347 1.382 . S
C348 C352 1.389 . S
C349 C347 1.426 . S
C349 C350 1.375 . S
C349 C353 1.532 . S
C350 H340 0.930 . S
C350 C349 1.375 . S
C350 C351 1.416 . S
C351 C350 1.416 . S
C351 C352 1.371 . S
C352 H341 0.930 . S
C352 C348 1.389 . S
C352 C351 1.371 . S
C353 H342 0.970 . S
C353 H343 0.970 . S
C353 C349 1.532 . S
C353 C354 1.499 . S
C354 C353 1.499 . S
C354 C355 1.370 . S
C354 C359 1.415 . S
C355 H344 0.930 . S
C355 C354 1.370 . S
C355 C356 1.407 . S
C356 C355 1.407 . S
C356 C357 1.365 . S
C357 H345 0.930 . S
C357 C356 1.365 . S
C357 C358 1.393 . S
C358 C357 1.393 . S
C358 C359 1.387 . S
C359 H346 0.930 . S
C359 C354 1.415 . S
C359 C358 1.387 . S
H360 C368 0.930 . S
H361 C371 0.930 . S
H362 C373 0.930 . S
H363 C374 0.970 1_565 S
H364 C374 0.970 . S
H365 C376 0.928 1_545 S
H366 C378 0.930 . S
H367 C380 0.929 . S
C368 H360 0.930 . S
C368 C369 1.382 . S
C368 C370 1.426 . S
C369 C368 1.382 . S
C369 C373 1.389 . S
C370 C368 1.426 . S
C370 C371 1.375 . S
C370 C374 1.532 . S
C371 H361 0.930 . S
C371 C370 1.375 . S
C371 C372 1.416 . S
C372 C371 1.416 . S
C372 C373 1.371 . S
C373 H362 0.930 . S
C373 C369 1.389 . S
C373 C372 1.371 . S
C374 H363 0.970 1_545 S
C374 H364 0.970 . S
C374 C370 1.532 . S
C374 C375 1.499 . S
C375 C374 1.499 . S
C375 C376 1.371 1_545 S
C375 C380 1.417 . S
C376 H365 0.928 1_565 S
C376 C375 1.371 1_565 S
C376 C377 1.409 . S
C377 C376 1.409 . S
C377 C378 1.365 . S
C378 H366 0.930 . S
C378 C377 1.365 . S
C378 C379 1.393 . S
C379 C378 1.393 . S
C379 C380 1.386 1_565 S
C380 H367 0.929 . S
C380 C375 1.417 . S
C380 C379 1.386 1_545 S
H381 C389 0.930 . S
H382 C392 0.930 . S
H383 C394 0.930 . S
H384 C395 0.970 . S
H385 C395 0.970 . S
H386 C397 0.930 . S
H387 C399 0.930 . S
H388 C401 0.930 . S
C389 H381 0.930 . S
C389 C390 1.382 . S
C389 C391 1.426 . S
C390 C389 1.382 . S
C390 C394 1.389 . S
C391 C389 1.426 . S
C391 C392 1.375 . S
C391 C395 1.532 . S
C392 H382 0.930 . S
C392 C391 1.375 . S
C392 C393 1.416 . S
C393 C392 1.416 . S
C393 C394 1.371 . S
C394 H383 0.930 . S
C394 C390 1.389 . S
C394 C393 1.371 . S
C395 H384 0.970 . S
C395 H385 0.970 . S
C395 C391 1.532 . S
C395 C396 1.499 . S
C396 C395 1.499 . S
C396 C397 1.370 . S
C396 C401 1.415 . S
C397 H386 0.930 . S
C397 C396 1.370 . S
C397 C398 1.407 . S
C398 C397 1.407 . S
C398 C399 1.365 . S
C399 H387 0.930 . S
C399 C398 1.365 . S
C399 C400 1.393 . S
C400 C399 1.393 . S
C400 C401 1.387 . S
C401 H388 0.930 . S
C401 C396 1.415 . S
C401 C400 1.387 . S
H402 C410 0.930 . S
H403 C413 0.930 . S
H404 C415 0.930 . S
H405 C416 0.970 . S
H406 C416 0.970 . S
H407 C418 0.930 . S
H408 C420 0.930 . S
H409 C422 0.930 . S
C410 H402 0.930 . S
C410 C411 1.382 1_545 S
C410 C412 1.426 . S
C411 C410 1.382 1_565 S
C411 C415 1.389 . S
C412 C410 1.426 . S
C412 C413 1.375 . S
C412 C416 1.532 . S
C413 H403 0.930 . S
C413 C412 1.375 . S
C413 C414 1.416 1_545 S
C414 C413 1.416 1_565 S
C414 C415 1.371 . S
C415 H404 0.930 . S
C415 C411 1.389 . S
C415 C414 1.371 . S
C416 H405 0.970 . S
C416 H406 0.970 . S
C416 C412 1.532 . S
C416 C417 1.499 . S
C417 C416 1.499 . S
C417 C418 1.370 . S
C417 C422 1.415 . S
C418 H407 0.930 . S
C418 C417 1.370 . S
C418 C419 1.407 . S
C419 C418 1.407 . S
C419 C420 1.365 . S
C420 H408 0.930 . S
C420 C419 1.365 . S
C420 C421 1.393 . S
C421 C420 1.393 . S
C421 C422 1.387 . S
C422 H409 0.930 . S
C422 C417 1.415 . S
C422 C421 1.387 . S
H423 C431 0.930 . S
H424 C434 0.930 . S
H425 C436 0.930 . S
H426 C437 0.970 . S
H427 C437 0.970 . S
H428 C439 0.930 1_554 S
H429 C441 0.930 . S
H430 C443 0.930 . S
C431 H423 0.930 . S
C431 C432 1.382 . S
C431 C433 1.426 . S
C432 C431 1.382 . S
C432 C436 1.389 . S
C433 C431 1.426 . S
C433 C434 1.375 . S
C433 C437 1.532 . S
C434 H424 0.930 . S
C434 C433 1.375 . S
C434 C435 1.416 . S
C435 C434 1.416 . S
C435 C436 1.371 . S
C436 H425 0.930 . S
C436 C432 1.389 . S
C436 C435 1.371 . S
C437 H426 0.970 . S
C437 H427 0.970 . S
C437 C433 1.532 . S
C437 C438 1.499 . S
C438 C437 1.499 . S
C438 C439 1.370 1_554 S
C438 C443 1.415 . S
C439 H428 0.930 1_556 S
C439 C438 1.370 1_556 S
C439 C440 1.407 . S
C440 C439 1.407 . S
C440 C441 1.365 . S
C441 H429 0.930 . S
C441 C440 1.365 . S
C441 C442 1.393 . S
C442 C441 1.393 . S
C442 C443 1.387 1_556 S
C443 H430 0.930 . S
C443 C438 1.415 . S
C443 C442 1.387 1_554 S
H444 C452 0.930 . S
H445 C455 0.930 . S
H446 C457 0.930 . S
H447 C458 0.970 . S
H448 C458 0.970 . S
H449 C460 0.930 . S
H450 C462 0.930 . S
H451 C464 0.930 1_554 S
C452 H444 0.930 . S
C452 C453 1.382 . S
C452 C454 1.426 . S
C453 C452 1.382 . S
C453 C457 1.389 . S
C454 C452 1.426 . S
C454 C455 1.375 . S
C454 C458 1.532 . S
C455 H445 0.930 . S
C455 C454 1.375 . S
C455 C456 1.416 . S
C456 C455 1.416 . S
C456 C457 1.371 . S
C457 H446 0.930 . S
C457 C453 1.389 . S
C457 C456 1.371 . S
C458 H447 0.970 . S
C458 H448 0.970 . S
C458 C454 1.532 . S
C458 C459 1.499 . S
C459 C458 1.499 . S
C459 C460 1.370 1_554 S
C459 C464 1.415 1_554 S
C460 H449 0.930 . S
C460 C459 1.370 1_556 S
C460 C461 1.407 . S
C461 C460 1.407 . S
C461 C462 1.365 . S
C462 H450 0.930 . S
C462 C461 1.365 . S
C462 C463 1.393 . S
C463 C462 1.393 . S
C463 C464 1.387 . S
C464 H451 0.930 1_556 S
C464 C459 1.415 1_556 S
C464 C463 1.387 . S
H465 C473 0.930 . S
H466 C476 0.930 . S
H467 C478 0.930 . S
H468 C479 0.970 . S
H469 C479 0.970 . S
H470 C481 0.930 . S
H471 C483 0.930 . S
H472 C485 0.930 . S
C473 H465 0.930 . S
C473 C474 1.382 . S
C473 C475 1.426 . S
C474 C473 1.382 . S
C474 C478 1.389 . S
C475 C473 1.426 . S
C475 C476 1.375 . S
C475 C479 1.532 . S
C476 H466 0.930 . S
C476 C475 1.375 . S
C476 C477 1.416 . S
C477 C476 1.416 . S
C477 C478 1.371 . S
C478 H467 0.930 . S
C478 C474 1.389 . S
C478 C477 1.371 . S
C479 H468 0.970 . S
C479 H469 0.970 . S
C479 C475 1.532 . S
C479 C480 1.499 . S
C480 C479 1.499 . S
C480 C481 1.370 . S
C480 C485 1.415 . S
C481 H470 0.930 . S
C481 C480 1.370 . S
C481 C482 1.407 . S
C482 C481 1.407 . S
C482 C483 1.365 . S
C483 H471 0.930 . S
C483 C482 1.365 . S
C483 C484 1.393 . S
C484 C483 1.393 . S
C484 C485 1.387 . S
C485 H472 0.930 . S
C485 C480 1.415 . S
C485 C484 1.387 . S
H486 C494 0.930 . S
H487 C497 0.930 . S
H488 C499 0.930 . S
H489 C500 0.970 . S
H490 C500 0.970 . S
H491 C502 0.930 . S
H492 C504 0.930 . S
H493 C506 0.930 . S
C494 H486 0.930 . S
C494 C495 1.382 . S
C494 C496 1.426 . S
C495 C494 1.382 . S
C495 C499 1.389 . S
C496 C494 1.426 . S
C496 C497 1.375 . S
C496 C500 1.532 . S
C497 H487 0.930 . S
C497 C496 1.375 . S
C497 C498 1.416 . S
C498 C497 1.416 . S
C498 C499 1.371 . S
C499 H488 0.930 . S
C499 C495 1.389 . S
C499 C498 1.371 . S
C500 H489 0.970 . S
C500 H490 0.970 . S
C500 C496 1.532 . S
C500 C501 1.499 . S
C501 C500 1.499 . S
C501 C502 1.370 . S
C501 C506 1.415 . S
C502 H491 0.930 . S
C502 C501 1.370 . S
C502 C503 1.407 . S
C503 C502 1.407 . S
C503 C504 1.365 . S
C504 H492 0.930 . S
C504 C503 1.365 . S
C504 C505 1.393 . S
C505 C504 1.393 . S
C505 C506 1.387 . S
C506 H493 0.930 . S
C506 C501 1.415 . S
C506 C505 1.387 . S
H507 C515 0.930 . S
H508 C518 0.930 . S
H509 C520 0.930 . S
H510 C521 0.970 . S
H511 C521 0.970 . S
H512 C523 0.930 . S
H513 C525 0.930 . S
H514 C527 0.930 . S
C515 H507 0.930 . S
C515 C516 1.382 . S
C515 C517 1.426 . S
C516 C515 1.382 . S
C516 C520 1.389 . S
C517 C515 1.426 . S
C517 C518 1.375 . S
C517 C521 1.532 . S
C518 H508 0.930 . S
C518 C517 1.375 . S
C518 C519 1.416 . S
C519 C518 1.416 . S
C519 C520 1.371 . S
C520 H509 0.930 . S
C520 C516 1.389 . S
C520 C519 1.371 . S
C521 H510 0.970 . S
C521 H511 0.970 . S
C521 C517 1.532 . S
C521 C522 1.499 . S
C522 C521 1.499 . S
C522 C523 1.370 . S
C522 C527 1.415 . S
C523 H512 0.930 . S
C523 C522 1.370 . S
C523 C524 1.407 . S
C524 C523 1.407 . S
C524 C525 1.365 . S
C525 H513 0.930 . S
C525 C524 1.365 . S
C525 C526 1.393 . S
C526 C525 1.393 . S
C526 C527 1.387 . S
C527 H514 0.930 . S
C527 C522 1.415 . S
C527 C526 1.387 . S
C528 C529 1.387 . S
C528 H532 0.950 . S
C528 C537 1.390 . S
C529 C528 1.387 . S
C529 C531 1.387 . S
H530 C537 0.950 . S
C531 C529 1.387 . S
C531 C533 1.390 . S
C531 H535 0.950 . S
H532 C528 0.950 . S
C533 C531 1.390 . S
C533 C534 1.387 . S
C533 H536 0.950 . S
C534 C533 1.387 . S
C534 C537 1.387 . S
H535 C531 0.950 . S
H536 C533 0.950 . S
C537 C528 1.390 . S
C537 H530 0.950 . S
C537 C534 1.387 . S
C538 C539 1.387 . S
C538 H542 0.950 . S
C538 C547 1.390 . S
C539 C538 1.387 . S
C539 C541 1.387 . S
H540 C547 0.950 . S
C541 C539 1.387 . S
C541 C543 1.390 . S
C541 H545 0.950 . S
H542 C538 0.950 . S
C543 C541 1.390 . S
C543 C544 1.387 . S
C543 H546 0.950 . S
C544 C543 1.387 . S
C544 C547 1.387 . S
H545 C541 0.950 . S
H546 C543 0.950 . S
C547 C538 1.390 . S
C547 H540 0.950 . S
C547 C544 1.387 . S
C548 C549 1.387 . S
C548 H552 0.950 . S
C548 C557 1.390 . S
C549 C548 1.387 . S
C549 C551 1.387 . S
H550 C557 0.950 . S
C551 C549 1.387 . S
C551 C553 1.390 . S
C551 H555 0.950 . S
H552 C548 0.950 . S
C553 C551 1.390 . S
C553 C554 1.387 . S
C553 H556 0.950 . S
C554 C553 1.387 . S
C554 C557 1.387 . S
H555 C551 0.950 . S
H556 C553 0.950 . S
C557 C548 1.390 . S
C557 H550 0.950 . S
C557 C554 1.387 . S
C558 C559 1.387 . S
C558 H562 0.950 . S
C558 C567 1.390 . S
C559 C558 1.387 . S
C559 C561 1.387 . S
H560 C567 0.950 . S
C561 C559 1.387 . S
C561 C563 1.390 . S
C561 H565 0.950 . S
H562 C558 0.950 . S
C563 C561 1.390 . S
C563 C564 1.387 . S
C563 H566 0.950 . S
C564 C563 1.387 . S
C564 C567 1.387 . S
H565 C561 0.950 . S
H566 C563 0.950 . S
C567 C558 1.390 . S
C567 H560 0.950 . S
C567 C564 1.387 . S
C568 C569 1.387 . S
C568 H572 0.950 1_455 S
C568 C577 1.390 . S
C569 C568 1.387 . S
C569 C571 1.387 . S
H570 C577 0.950 1_655 S
C571 C569 1.387 . S
C571 C573 1.390 . S
C571 H575 0.950 . S
H572 C568 0.950 1_655 S
C573 C571 1.390 . S
C573 C574 1.387 . S
C573 H576 0.950 . S
C574 C573 1.387 . S
C574 C577 1.387 . S
H575 C571 0.950 . S
H576 C573 0.950 . S
C577 C568 1.390 . S
C577 H570 0.950 1_455 S
C577 C574 1.387 . S
C578 C579 1.387 . S
C578 H582 0.950 . S
C578 C587 1.390 . S
C579 C578 1.387 . S
C579 C581 1.387 . S
H580 C587 0.950 . S
C581 C579 1.387 . S
C581 C583 1.390 . S
C581 H585 0.950 . S
H582 C578 0.950 . S
C583 C581 1.390 . S
C583 C584 1.387 . S
C583 H586 0.950 . S
C584 C583 1.387 . S
C584 C587 1.387 . S
H585 C581 0.950 . S
H586 C583 0.950 . S
C587 C578 1.390 . S
C587 H580 0.950 . S
C587 C584 1.387 . S
C588 C589 1.387 . S
C588 H592 0.950 . S
C588 C597 1.390 . S
C589 C588 1.387 . S
C589 C591 1.387 . S
H590 C597 0.950 . S
C591 C589 1.387 . S
C591 C593 1.390 . S
C591 H595 0.950 . S
H592 C588 0.950 . S
C593 C591 1.390 . S
C593 C594 1.387 . S
C593 H596 0.950 . S
C594 C593 1.387 . S
C594 C597 1.387 . S
H595 C591 0.950 . S
H596 C593 0.950 . S
C597 C588 1.390 . S
C597 H590 0.950 . S
C597 C594 1.387 . S
C598 C599 1.387 . S
C598 H602 0.950 . S
C598 C607 1.390 . S
C599 C598 1.387 . S
C599 C601 1.387 . S
H600 C607 0.950 . S
C601 C599 1.387 . S
C601 C603 1.390 . S
C601 H605 0.950 . S
H602 C598 0.950 . S
C603 C601 1.390 . S
C603 C604 1.387 . S
C603 H606 0.950 . S
C604 C603 1.387 . S
C604 C607 1.387 . S
H605 C601 0.950 . S
H606 C603 0.950 . S
C607 C598 1.390 . S
C607 H600 0.950 . S
C607 C604 1.387 . S
C608 C609 1.387 . S
C608 H612 0.950 . S
C608 C617 1.390 . S
C609 C608 1.387 . S
C609 C611 1.387 1_545 S
H610 C617 0.950 . S
C611 C609 1.387 1_565 S
C611 C613 1.390 . S
C611 H615 0.950 . S
H612 C608 0.950 . S
C613 C611 1.390 . S
C613 C614 1.387 1_565 S
C613 H616 0.950 . S
C614 C613 1.387 1_545 S
C614 C617 1.387 . S
H615 C611 0.950 . S
H616 C613 0.950 . S
C617 C608 1.390 . S
C617 H610 0.950 . S
C617 C614 1.387 . S
C618 C619 1.387 . S
C618 H622 0.950 . S
C618 C627 1.390 . S
C619 C618 1.387 . S
C619 C621 1.387 . S
H620 C627 0.950 . S
C621 C619 1.387 . S
C621 C623 1.390 . S
C621 H625 0.950 . S
H622 C618 0.950 . S
C623 C621 1.390 . S
C623 C624 1.387 . S
C623 H626 0.950 . S
C624 C623 1.387 . S
C624 C627 1.387 . S
H625 C621 0.950 . S
H626 C623 0.950 . S
C627 C618 1.390 . S
C627 H620 0.950 . S
C627 C624 1.387 . S
C628 C629 1.387 . S
C628 H632 0.950 . S
C628 C637 1.390 . S
C629 C628 1.387 . S
C629 C631 1.387 . S
H630 C637 0.950 . S
C631 C629 1.387 . S
C631 C633 1.390 . S
C631 H635 0.950 1_565 S
H632 C628 0.950 . S
C633 C631 1.390 . S
C633 C634 1.387 . S
C633 H636 0.950 1_565 S
C634 C633 1.387 . S
C634 C637 1.387 . S
H635 C631 0.950 1_545 S
H636 C633 0.950 1_545 S
C637 C628 1.390 . S
C637 H630 0.950 . S
C637 C634 1.387 . S
C638 C639 1.387 . S
C638 H642 0.950 . S
C638 C647 1.390 . S
C639 C638 1.387 . S
C639 C641 1.387 . S
H640 C647 0.950 . S
C641 C639 1.387 . S
C641 C643 1.390 . S
C641 H645 0.950 . S
H642 C638 0.950 . S
C643 C641 1.390 . S
C643 C644 1.387 . S
C643 H646 0.950 . S
C644 C643 1.387 . S
C644 C647 1.387 . S
H645 C641 0.950 . S
H646 C643 0.950 . S
C647 C638 1.390 . S
C647 H640 0.950 . S
C647 C644 1.387 . S
C648 C649 1.387 1_655 S
C648 H652 0.950 1_665 S
C648 C657 1.390 . S
C649 C648 1.387 1_455 S
C649 C651 1.387 1_455 S
H650 C657 0.950 1_545 S
C651 C649 1.387 1_655 S
C651 C653 1.390 . S
C651 H655 0.950 . S
H652 C648 0.950 1_445 S
C653 C651 1.390 . S
C653 C654 1.387 . S
C653 H656 0.950 . S
C654 C653 1.387 . S
C654 C657 1.387 . S
H655 C651 0.950 . S
H656 C653 0.950 . S
C657 C648 1.390 . S
C657 H650 0.950 1_565 S
C657 C654 1.387 . S
C658 C659 1.387 . S
C658 H662 0.950 . S
C658 C667 1.390 . S
C659 C658 1.387 . S
C659 C661 1.387 . S
H660 C667 0.950 . S
C661 C659 1.387 . S
C661 C663 1.390 . S
C661 H665 0.950 . S
H662 C658 0.950 . S
C663 C661 1.390 . S
C663 C664 1.387 . S
C663 H666 0.950 . S
C664 C663 1.387 . S
C664 C667 1.387 . S
H665 C661 0.950 . S
H666 C663 0.950 . S
C667 C658 1.390 . S
C667 H660 0.950 . S
C667 C664 1.387 . S
C668 C669 1.387 . S
C668 H672 0.950 . S
C668 C677 1.390 . S
C669 C668 1.387 . S
C669 C671 1.387 . S
H670 C677 0.950 . S
C671 C669 1.387 . S
C671 C673 1.390 1_545 S
C671 H675 0.950 1_545 S
H672 C668 0.950 . S
C673 C671 1.390 1_565 S
C673 C674 1.387 1_565 S
C673 H676 0.950 . S
C674 C673 1.387 1_545 S
C674 C677 1.387 . S
H675 C671 0.950 1_565 S
H676 C673 0.950 . S
C677 C668 1.390 . S
C677 H670 0.950 . S
C677 C674 1.387 . S
C678 C679 1.387 . S
C678 H682 0.950 . S
C678 C687 1.390 . S
C679 C678 1.387 . S
C679 C681 1.387 . S
H680 C687 0.950 . S
C681 C679 1.387 . S
C681 C683 1.390 . S
C681 H685 0.950 . S
H682 C678 0.950 . S
C683 C681 1.390 . S
C683 C684 1.387 . S
C683 H686 0.950 . S
C684 C683 1.387 . S
C684 C687 1.387 . S
H685 C681 0.950 . S
H686 C683 0.950 . S
C687 C678 1.390 . S
C687 H680 0.950 . S
C687 C684 1.387 . S
C688 C689 1.387 1_565 S
C688 H692 0.950 1_564 S
C688 C697 1.390 . S
C689 C688 1.387 1_545 S
C689 C691 1.387 1_545 S
H690 C697 0.950 1_556 S
C691 C689 1.387 1_565 S
C691 C693 1.390 . S
C691 H695 0.950 1_565 S
H692 C688 0.950 1_546 S
C693 C691 1.390 . S
C693 C694 1.387 . S
C693 H696 0.950 . S
C694 C693 1.387 . S
C694 C697 1.387 . S
H695 C691 0.950 1_545 S
H696 C693 0.950 . S
C697 C688 1.390 . S
C697 H690 0.950 1_554 S
C697 C694 1.387 . S
C698 C699 1.387 . S
C698 H702 0.950 . S
C698 C707 1.390 . S
C699 C698 1.387 . S
C699 C701 1.387 1_556 S
H700 C707 0.950 . S
C701 C699 1.387 1_554 S
C701 C703 1.390 . S
C701 H705 0.950 . S
H702 C698 0.950 . S
C703 C701 1.390 . S
C703 C704 1.387 1_554 S
C703 H706 0.950 . S
C704 C703 1.387 1_556 S
C704 C707 1.387 . S
H705 C701 0.950 . S
H706 C703 0.950 . S
C707 C698 1.390 . S
C707 H700 0.950 . S
C707 C704 1.387 . S
C708 C709 1.387 . S
C708 H712 0.950 . S
C708 C717 1.390 . S
C709 C708 1.387 . S
C709 C711 1.387 . S
H710 C717 0.950 . S
C711 C709 1.387 . S
C711 C713 1.390 . S
C711 H715 0.950 . S
H712 C708 0.950 . S
C713 C711 1.390 . S
C713 C714 1.387 . S
C713 H716 0.950 . S
C714 C713 1.387 . S
C714 C717 1.387 . S
H715 C711 0.950 . S
H716 C713 0.950 . S
C717 C708 1.390 . S
C717 H710 0.950 . S
C717 C714 1.387 . S
C718 C719 1.387 . S
C718 H722 0.950 . S
C718 C727 1.390 . S
C719 C718 1.387 . S
C719 C721 1.387 . S
H720 C727 0.950 . S
C721 C719 1.387 . S
C721 C723 1.390 . S
C721 H725 0.950 . S
H722 C718 0.950 . S
C723 C721 1.390 . S
C723 C724 1.387 . S
C723 H726 0.950 . S
C724 C723 1.387 . S
C724 C727 1.387 . S
H725 C721 0.950 . S
H726 C723 0.950 . S
C727 C718 1.390 . S
C727 H720 0.950 . S
C727 C724 1.387 . S
C728 C729 1.387 . S
C728 H732 0.950 . S
C728 C737 1.390 . S
C729 C728 1.387 . S
C729 C731 1.387 . S
H730 C737 0.950 . S
C731 C729 1.387 . S
C731 C733 1.390 . S
C731 H735 0.950 . S
H732 C728 0.950 . S
C733 C731 1.390 . S
C733 C734 1.387 . S
C733 H736 0.950 . S
C734 C733 1.387 . S
C734 C737 1.387 . S
H735 C731 0.950 . S
H736 C733 0.950 . S
C737 C728 1.390 . S
C737 H730 0.950 . S
C737 C734 1.387 . S
C738 C739 1.387 . S
C738 H742 0.950 . S
C738 C747 1.390 . S
C739 C738 1.387 . S
C739 C741 1.387 . S
H740 C747 0.950 . S
C741 C739 1.387 . S
C741 C743 1.390 . S
C741 H745 0.950 . S
H742 C738 0.950 . S
C743 C741 1.390 . S
C743 C744 1.387 . S
C743 H746 0.950 . S
C744 C743 1.387 . S
C744 C747 1.387 . S
H745 C741 0.950 . S
H746 C743 0.950 . S
C747 C738 1.390 . S
C747 H740 0.950 . S
C747 C744 1.387 . S
C748 C749 1.387 . S
C748 H752 0.950 . S
C748 C757 1.390 . S
C749 C748 1.387 . S
C749 C751 1.387 . S
H750 C757 0.950 . S
C751 C749 1.387 . S
C751 C753 1.390 . S
C751 H755 0.950 . S
H752 C748 0.950 . S
C753 C751 1.390 . S
C753 C754 1.387 . S
C753 H756 0.950 . S
C754 C753 1.387 . S
C754 C757 1.387 . S
H755 C751 0.950 . S
H756 C753 0.950 . S
C757 C748 1.390 . S
C757 H750 0.950 . S
C757 C754 1.387 . S
C758 C759 1.387 . S
C758 H762 0.950 . S
C758 C767 1.390 . S
C759 C758 1.387 . S
C759 C761 1.387 . S
H760 C767 0.950 . S
C761 C759 1.387 . S
C761 C763 1.390 . S
C761 H765 0.950 . S
H762 C758 0.950 . S
C763 C761 1.390 . S
C763 C764 1.387 . S
C763 H766 0.950 . S
C764 C763 1.387 . S
C764 C767 1.387 . S
H765 C761 0.950 . S
H766 C763 0.950 . S
C767 C758 1.390 . S
C767 H760 0.950 . S
C767 C764 1.387 . S
C768 C769 1.387 . S
C768 H772 0.950 . S
C768 C777 1.390 . S
C769 C768 1.387 . S
C769 C771 1.387 . S
H770 C777 0.950 . S
C771 C769 1.387 . S
C771 C773 1.390 . S
C771 H775 0.950 . S
H772 C768 0.950 . S
C773 C771 1.390 . S
C773 C774 1.387 . S
C773 H776 0.950 1_565 S
C774 C773 1.387 . S
C774 C777 1.387 . S
H775 C771 0.950 . S
H776 C773 0.950 1_545 S
C777 C768 1.390 . S
C777 H770 0.950 . S
C777 C774 1.387 . S
C778 C779 1.387 . S
C778 H782 0.950 . S
C778 C787 1.390 . S
C779 C778 1.387 . S
C779 C781 1.387 . S
H780 C787 0.950 . S
C781 C779 1.387 . S
C781 C783 1.390 . S
C781 H785 0.950 . S
H782 C778 0.950 . S
C783 C781 1.390 . S
C783 C784 1.387 . S
C783 H786 0.950 . S
C784 C783 1.387 . S
C784 C787 1.387 . S
H785 C781 0.950 . S
H786 C783 0.950 . S
C787 C778 1.390 . S
C787 H780 0.950 . S
C787 C784 1.387 . S
C788 C789 1.387 1_456 S
C788 H792 0.950 . S
C788 C797 1.390 . S
C789 C788 1.387 1_654 S
C789 C791 1.387 1_554 S
H790 C797 0.950 . S
C791 C789 1.387 1_556 S
C791 C793 1.390 . S
C791 H795 0.950 1_556 S
H792 C788 0.950 . S
C793 C791 1.390 . S
C793 C794 1.387 . S
C793 H796 0.950 . S
C794 C793 1.387 . S
C794 C797 1.387 1_655 S
H795 C791 0.950 1_554 S
H796 C793 0.950 . S
C797 C788 1.390 . S
C797 H790 0.950 . S
C797 C794 1.387 1_455 S
C798 C799 1.387 . S
C798 H802 0.950 . S
C798 C807 1.390 . S
C799 C798 1.387 . S
C799 C801 1.387 . S
H800 C807 0.950 . S
C801 C799 1.387 . S
C801 C803 1.390 . S
C801 H805 0.950 . S
H802 C798 0.950 . S
C803 C801 1.390 . S
C803 C804 1.387 . S
C803 H806 0.950 . S
C804 C803 1.387 . S
C804 C807 1.387 . S
H805 C801 0.950 . S
H806 C803 0.950 . S
C807 C798 1.390 . S
C807 H800 0.950 . S
C807 C804 1.387 . S
C808 C809 1.387 . S
C808 H812 0.950 . S
C808 C817 1.390 . S
C809 C808 1.387 . S
C809 C811 1.387 . S
H810 C817 0.950 . S
C811 C809 1.387 . S
C811 C813 1.390 . S
C811 H815 0.950 . S
H812 C808 0.950 . S
C813 C811 1.390 . S
C813 C814 1.387 . S
C813 H816 0.950 . S
C814 C813 1.387 . S
C814 C817 1.387 . S
H815 C811 0.950 . S
H816 C813 0.950 . S
C817 C808 1.390 . S
C817 H810 0.950 . S
C817 C814 1.387 . S
C818 C819 1.387 . S
C818 H822 0.950 . S
C818 C827 1.390 . S
C819 C818 1.387 . S
C819 C821 1.387 . S
H820 C827 0.950 . S
C821 C819 1.387 . S
C821 C823 1.390 . S
C821 H825 0.950 . S
H822 C818 0.950 . S
C823 C821 1.390 . S
C823 C824 1.387 . S
C823 H826 0.950 . S
C824 C823 1.387 . S
C824 C827 1.387 . S
H825 C821 0.950 . S
H826 C823 0.950 . S
C827 C818 1.390 . S
C827 H820 0.950 . S
C827 C824 1.387 . S
C828 C829 1.387 . S
C828 H832 0.950 . S
C828 C837 1.390 . S
C829 C828 1.387 . S
C829 C831 1.387 1_655 S
H830 C837 0.950 . S
C831 C829 1.387 1_455 S
C831 C833 1.390 . S
C831 H835 0.950 . S
H832 C828 0.950 . S
C833 C831 1.390 . S
C833 C834 1.387 1_455 S
C833 H836 0.950 . S
C834 C833 1.387 1_655 S
C834 C837 1.387 . S
H835 C831 0.950 . S
H836 C833 0.950 . S
C837 C828 1.390 . S
C837 H830 0.950 . S
C837 C834 1.387 . S
C838 C839 1.387 . S
C838 H842 0.950 . S
C838 C847 1.390 . S
C839 C838 1.387 . S
C839 C841 1.387 . S
H840 C847 0.950 . S
C841 C839 1.387 . S
C841 C843 1.390 . S
C841 H845 0.950 . S
H842 C838 0.950 . S
C843 C841 1.390 . S
C843 C844 1.387 . S
C843 H846 0.950 . S
C844 C843 1.387 . S
C844 C847 1.387 . S
H845 C841 0.950 . S
H846 C843 0.950 . S
C847 C838 1.390 . S
C847 H840 0.950 . S
C847 C844 1.387 . S
C848 C849 1.387 . S
C848 H852 0.950 . S
C848 C857 1.390 . S
C849 C848 1.387 . S
C849 C851 1.387 . S
H850 C857 0.950 . S
C851 C849 1.387 . S
C851 C853 1.390 . S
C851 H855 0.950 . S
H852 C848 0.950 . S
C853 C851 1.390 . S
C853 C854 1.387 . S
C853 H856 0.950 . S
C854 C853 1.387 . S
C854 C857 1.387 . S
H855 C851 0.950 . S
H856 C853 0.950 . S
C857 C848 1.390 . S
C857 H850 0.950 . S
C857 C854 1.387 . S
C858 C859 1.387 . S
C858 H862 0.950 . S
C858 C867 1.390 . S
C859 C858 1.387 . S
C859 C861 1.387 . S
H860 C867 0.950 . S
C861 C859 1.387 . S
C861 C863 1.390 . S
C861 H865 0.950 . S
H862 C858 0.950 . S
C863 C861 1.390 . S
C863 C864 1.387 . S
C863 H866 0.950 . S
C864 C863 1.387 . S
C864 C867 1.387 . S
H865 C861 0.950 . S
H866 C863 0.950 . S
C867 C858 1.390 . S
C867 H860 0.950 . S
C867 C864 1.387 . S
C868 C869 1.387 . S
C868 H872 0.950 . S
C868 C877 1.390 . S
C869 C868 1.387 . S
C869 C871 1.387 . S
H870 C877 0.950 . S
C871 C869 1.387 . S
C871 C873 1.390 . S
C871 H875 0.950 . S
H872 C868 0.950 . S
C873 C871 1.390 . S
C873 C874 1.387 . S
C873 H876 0.950 . S
C874 C873 1.387 . S
C874 C877 1.387 . S
H875 C871 0.950 . S
H876 C873 0.950 . S
C877 C868 1.390 . S
C877 H870 0.950 . S
C877 C874 1.387 . S
C878 C879 1.387 . S
C878 H882 0.950 . S
C878 C887 1.390 . S
C879 C878 1.387 . S
C879 C881 1.387 . S
H880 C887 0.950 . S
C881 C879 1.387 . S
C881 C883 1.390 . S
C881 H885 0.950 . S
H882 C878 0.950 . S
C883 C881 1.390 . S
C883 C884 1.387 . S
C883 H886 0.950 . S
C884 C883 1.387 . S
C884 C887 1.387 . S
H885 C881 0.950 . S
H886 C883 0.950 . S
C887 C878 1.390 . S
C887 H880 0.950 . S
C887 C884 1.387 . S
C888 C889 1.387 . S
C888 H892 0.950 . S
C888 C897 1.390 . S
C889 C888 1.387 . S
C889 C891 1.387 . S
H890 C897 0.950 . S
C891 C889 1.387 . S
C891 C893 1.390 . S
C891 H895 0.950 . S
H892 C888 0.950 . S
C893 C891 1.390 . S
C893 C894 1.387 . S
C893 H896 0.950 . S
C894 C893 1.387 . S
C894 C897 1.387 . S
H895 C891 0.950 . S
H896 C893 0.950 . S
C897 C888 1.390 . S
C897 H890 0.950 . S
C897 C894 1.387 . S
C898 C899 1.387 . S
C898 H902 0.950 . S
C898 C907 1.390 . S
C899 C898 1.387 . S
C899 C901 1.387 . S
H900 C907 0.950 . S
C901 C899 1.387 . S
C901 C903 1.390 . S
C901 H905 0.950 . S
H902 C898 0.950 . S
C903 C901 1.390 . S
C903 C904 1.387 . S
C903 H906 0.950 . S
C904 C903 1.387 . S
C904 C907 1.387 . S
H905 C901 0.950 . S
H906 C903 0.950 . S
C907 C898 1.390 . S
C907 H900 0.950 . S
C907 C904 1.387 . S
C908 C909 1.387 . S
C908 H912 0.950 . S
C908 C917 1.390 . S
C909 C908 1.387 . S
C909 C911 1.387 . S
H910 C917 0.950 . S
C911 C909 1.387 . S
C911 C913 1.390 . S
C911 H915 0.950 . S
H912 C908 0.950 . S
C913 C911 1.390 . S
C913 C914 1.387 . S
C913 H916 0.950 . S
C914 C913 1.387 . S
C914 C917 1.387 . S
H915 C911 0.950 . S
H916 C913 0.950 . S
C917 C908 1.390 . S
C917 H910 0.950 . S
C917 C914 1.387 . S
C918 C919 1.387 . S
C918 H922 0.950 . S
C918 C927 1.390 . S
C919 C918 1.387 . S
C919 C921 1.387 . S
H920 C927 0.950 . S
C921 C919 1.387 . S
C921 C923 1.390 . S
C921 H925 0.950 . S
H922 C918 0.950 . S
C923 C921 1.390 . S
C923 C924 1.387 . S
C923 H926 0.950 . S
C924 C923 1.387 . S
C924 C927 1.387 . S
H925 C921 0.950 . S
H926 C923 0.950 . S
C927 C918 1.390 . S
C927 H920 0.950 . S
C927 C924 1.387 . S
C928 C929 1.387 . S
C928 H932 0.950 . S
C928 C937 1.390 . S
C929 C928 1.387 . S
C929 C931 1.387 . S
H930 C937 0.950 . S
C931 C929 1.387 . S
C931 C933 1.390 . S
C931 H935 0.950 . S
H932 C928 0.950 . S
C933 C931 1.390 . S
C933 C934 1.387 . S
C933 H936 0.950 . S
C934 C933 1.387 . S
C934 C937 1.387 . S
H935 C931 0.950 . S
H936 C933 0.950 . S
C937 C928 1.390 . S
C937 H930 0.950 . S
C937 C934 1.387 . S
C938 C939 1.387 . S
C938 H942 0.950 . S
C938 C947 1.390 . S
C939 C938 1.387 . S
C939 C941 1.387 . S
H940 C947 0.950 . S
C941 C939 1.387 . S
C941 C943 1.390 . S
C941 H945 0.950 . S
H942 C938 0.950 . S
C943 C941 1.390 . S
C943 C944 1.387 . S
C943 H946 0.950 . S
C944 C943 1.387 . S
C944 C947 1.387 . S
H945 C941 0.950 . S
H946 C943 0.950 . S
C947 C938 1.390 . S
C947 H940 0.950 . S
C947 C944 1.387 . S
C948 C949 1.387 . S
C948 H952 0.950 . S
C948 C957 1.390 . S
C949 C948 1.387 . S
C949 C951 1.387 . S
H950 C957 0.950 . S
C951 C949 1.387 . S
C951 C953 1.390 . S
C951 H955 0.950 . S
H952 C948 0.950 . S
C953 C951 1.390 . S
C953 C954 1.387 . S
C953 H956 0.950 . S
C954 C953 1.387 . S
C954 C957 1.387 . S
H955 C951 0.950 . S
H956 C953 0.950 . S
C957 C948 1.390 . S
C957 H950 0.950 . S
C957 C954 1.387 . S
C958 C959 1.387 1_554 S
C958 H962 0.950 . S
C958 C967 1.390 1_545 S
C959 C958 1.387 1_556 S
C959 C961 1.387 . S
H960 C967 0.950 . S
C961 C959 1.387 . S
C961 C963 1.390 1_545 S
C961 H965 0.950 . S
H962 C958 0.950 . S
C963 C961 1.390 1_565 S
C963 C964 1.387 . S
C963 H966 0.950 . S
C964 C963 1.387 . S
C964 C967 1.387 1_556 S
H965 C961 0.950 . S
H966 C963 0.950 . S
C967 C958 1.390 1_565 S
C967 H960 0.950 . S
C967 C964 1.387 1_554 S
C968 C969 1.387 . S
C968 H972 0.950 . S
C968 C977 1.390 . S
C969 C968 1.387 . S
C969 C971 1.387 . S
H970 C977 0.950 . S
C971 C969 1.387 . S
C971 C973 1.390 . S
C971 H975 0.950 . S
H972 C968 0.950 . S
C973 C971 1.390 . S
C973 C974 1.387 . S
C973 H976 0.950 . S
C974 C973 1.387 . S
C974 C977 1.387 . S
H975 C971 0.950 . S
H976 C973 0.950 . S
C977 C968 1.390 . S
C977 H970 0.950 . S
C977 C974 1.387 . S
C978 C979 1.387 . S
C978 H982 0.950 . S
C978 C987 1.390 . S
C979 C978 1.387 . S
C979 C981 1.387 . S
H980 C987 0.950 . S
C981 C979 1.387 . S
C981 C983 1.390 . S
C981 H985 0.950 1_554 S
H982 C978 0.950 . S
C983 C981 1.390 . S
C983 C984 1.387 . S
C983 H986 0.950 1_554 S
C984 C983 1.387 . S
C984 C987 1.387 . S
H985 C981 0.950 1_556 S
H986 C983 0.950 1_556 S
C987 C978 1.390 . S
C987 H980 0.950 . S
C987 C984 1.387 . S
C988 C989 1.387 . S
C988 H992 0.950 . S
C988 C997 1.390 . S
C989 C988 1.387 . S
C989 C991 1.387 . S
H990 C997 0.950 . S
C991 C989 1.387 . S
C991 C993 1.390 . S
C991 H995 0.950 . S
H992 C988 0.950 . S
C993 C991 1.390 . S
C993 C994 1.387 . S
C993 H996 0.950 . S
C994 C993 1.387 . S
C994 C997 1.387 . S
H995 C991 0.950 . S
H996 C993 0.950 . S
C997 C988 1.390 . S
C997 H990 0.950 . S
C997 C994 1.387 . S
C998 C999 1.387 . S
C998 H1002 0.950 . S
C998 C1007 1.390 . S
C999 C998 1.387 . S
C999 C1001 1.387 . S
H1000 C1007 0.950 . S
C1001 C999 1.387 . S
C1001 C1003 1.390 . S
C1001 H1005 0.950 . S
H1002 C998 0.950 . S
C1003 C1001 1.390 . S
C1003 C1004 1.387 . S
C1003 H1006 0.950 . S
C1004 C1003 1.387 . S
C1004 C1007 1.387 . S
H1005 C1001 0.950 . S
H1006 C1003 0.950 . S
C1007 C998 1.390 . S
C1007 H1000 0.950 . S
C1007 C1004 1.387 . S
C534 C524 1.291 . S
C529 N12 1.540 1_556 S
C539 C30 1.605 . S
C544 C453 1.225 . S
C549 C62 1.426 . S
C554 C482 1.292 . S
C564 C495 1.194 . S
C559 N81 1.485 . S
C569 C39 1.469 . S
C574 C516 1.181 . S
C584 C461 1.325 . S
C579 C53 1.570 . S
C594 C474 1.185 . S
C589 N71 1.471 . S
C604 C503 1.277 . S
C599 N2 1.375 . S
C609 N94 1.536 1_655 S
C614 C505 1.257 . S
C624 C519 1.278 . S
C619 C131 1.469 . S
C634 C463 1.244 . S
C629 N140 1.407 . S
C644 C477 1.252 . S
C639 C177 1.462 . S
C649 C108 1.414 . S
C654 C456 1.270 . S
C659 N117 1.440 . S
C664 C484 1.259 . S
C669 C154 1.487 . S
C674 C498 1.239 . S
C684 C526 1.239 . S
C679 N163 1.482 . S
C694 C335 1.271 . S
C689 N173 1.467 . S
C704 C316 1.209 . S
C699 C191 1.526 . S
C714 C330 1.232 . S
C709 N219 1.511 . S
C724 C351 1.318 . S
C719 C237 1.500 . S
C729 N104 1.499 . S
C734 C337 1.235 . S
C739 N127 1.500 . S
C744 C288 1.269 . S
C749 C214 1.535 . S
C754 C348 1.258 . S
C759 C260 1.567 . S
C764 C314 1.304 . S
C774 C377 1.301 . S
C769 N48 1.457 . S
C784 C390 1.199 . S
C779 C76 1.575 . S
C789 C7 1.469 . S
C794 C419 1.297 . S
C799 N35 1.453 . S
C804 C432 1.174 . S
C814 C369 1.202 . S
C809 C85 1.499 1_554 S
C824 C398 1.315 . S
C819 C16 1.516 . S
C829 N25 1.501 . S
C834 C411 1.211 . S
C844 C440 1.272 . S
C839 N58 1.449 . S
C849 N255 1.536 . S
C854 C442 1.264 . S
C859 C200 1.446 . S
C864 C372 1.256 . S
C874 C400 1.256 . S
C869 N209 1.411 . S
C879 C246 1.435 . S
C884 C414 1.231 . S
C894 C393 1.289 . S
C889 C269 1.438 . S
C899 N186 1.438 . S
C904 C421 1.251 . S
C914 C435 1.258 . S
C909 C223 1.510 1_455 S
C924 C379 1.229 . S
C919 N232 1.481 . S
C934 C295 1.252 . S
C929 N242 1.461 . S
C944 C358 1.232 . S
C939 C122 1.561 . S
C949 N150 1.513 . S
C954 C285 1.211 . S
C964 C309 1.346 . S
C959 C168 1.528 . S
C974 C293 1.310 . S
C969 N265 1.483 . S
C979 N196 1.522 . S
C984 C327 1.167 . S
C989 C145 1.499 . S
C994 C306 1.228 . S
C999 C99 1.540 . S
C1004 C356 1.277 . S
