# Generated by pormake.
# Topology zzz, (3,6)-cn, num edge types: 1
# Building blocks:
#     Node 0, Type 0, BuildingBlock: BELTOD_clean_linker_0, # of connection points: 3
#     Node 1, Type 0, BuildingBlock: BELTOD_clean_linker_0, # of connection points: 3
#     Node 2, Type 0, BuildingBlock: BELTOD_clean_linker_0, # of connection points: 3
#     Node 3, Type 0, BuildingBlock: BELTOD_clean_linker_0, # of connection points: 3
#     Node 4, Type 0, BuildingBlock: BELTOD_clean_linker_0, # of connection points: 3
#     Node 5, Type 0, BuildingBlock: BELTOD_clean_linker_0, # of connection points: 3
#     Node 6, Type 0, BuildingBlock: BELTOD_clean_linker_0, # of connection points: 3
#     Node 7, Type 0, BuildingBlock: BELTOD_clean_linker_0, # of connection points: 3
#     Node 8, Type 1, BuildingBlock: BETDAH_clean_sbu_0, # of connection points: 6
#     Node 9, Type 1, BuildingBlock: BETDAH_clean_sbu_0, # of connection points: 6
#     Node 10, Type 1, BuildingBlock: BETDAH_clean_sbu_0, # of connection points: 6
#     Node 11, Type 1, BuildingBlock: BETDAH_clean_sbu_0, # of connection points: 6
#     Edge 12, Type (0, 1), BuildingBlock: AJUNOK_clean_linker_0, # of connection points: 2
#     Edge 13, Type (0, 1), BuildingBlock: AJUNOK_clean_linker_0, # of connection points: 2
#     Edge 14, Type (0, 1), BuildingBlock: AJUNOK_clean_linker_0, # of connection points: 2
#     Edge 15, Type (0, 1), BuildingBlock: AJUNOK_clean_linker_0, # of connection points: 2
#     Edge 16, Type (0, 1), BuildingBlock: AJUNOK_clean_linker_0, # of connection points: 2
#     Edge 17, Type (0, 1), BuildingBlock: AJUNOK_clean_linker_0, # of connection points: 2
#     Edge 18, Type (0, 1), BuildingBlock: AJUNOK_clean_linker_0, # of connection points: 2
#     Edge 19, Type (0, 1), BuildingBlock: AJUNOK_clean_linker_0, # of connection points: 2
#     Edge 20, Type (0, 1), BuildingBlock: AJUNOK_clean_linker_0, # of connection points: 2
#     Edge 21, Type (0, 1), BuildingBlock: AJUNOK_clean_linker_0, # of connection points: 2
#     Edge 22, Type (0, 1), BuildingBlock: AJUNOK_clean_linker_0, # of connection points: 2
#     Edge 23, Type (0, 1), BuildingBlock: AJUNOK_clean_linker_0, # of connection points: 2
#     Edge 24, Type (0, 1), BuildingBlock: AJUNOK_clean_linker_0, # of connection points: 2
#     Edge 25, Type (0, 1), BuildingBlock: AJUNOK_clean_linker_0, # of connection points: 2
#     Edge 26, Type (0, 1), BuildingBlock: AJUNOK_clean_linker_0, # of connection points: 2
#     Edge 27, Type (0, 1), BuildingBlock: AJUNOK_clean_linker_0, # of connection points: 2
#     Edge 28, Type (0, 1), BuildingBlock: AJUNOK_clean_linker_0, # of connection points: 2
#     Edge 29, Type (0, 1), BuildingBlock: AJUNOK_clean_linker_0, # of connection points: 2
#     Edge 30, Type (0, 1), BuildingBlock: AJUNOK_clean_linker_0, # of connection points: 2
#     Edge 31, Type (0, 1), BuildingBlock: AJUNOK_clean_linker_0, # of connection points: 2
#     Edge 32, Type (0, 1), BuildingBlock: AJUNOK_clean_linker_0, # of connection points: 2
#     Edge 33, Type (0, 1), BuildingBlock: AJUNOK_clean_linker_0, # of connection points: 2
#     Edge 34, Type (0, 1), BuildingBlock: AJUNOK_clean_linker_0, # of connection points: 2
#     Edge 35, Type (0, 1), BuildingBlock: AJUNOK_clean_linker_0, # of connection points: 2
# Relax obj value: 0.497
# Max RMSD: 0.251
# Mean RMSD: 0.247
data_MOF--net-zzz--node1-BETDAH_clean_sbu_0--node2-BELTOD_clean_linker_0--edge1-AJUNOK_clean_linker_0
_symmetry_space_group_name_H-M    P1
_symmetry_Int_Tables_number       1
_symmetry_cell_setting            triclinic
loop_
_symmetry_equiv_pos_as_xyz
'x, y, z'
_cell_length_a     42.680079
_cell_length_b     42.605114
_cell_length_c     13.190465
_cell_angle_alpha  89.516166
_cell_angle_beta   89.626299
_cell_angle_gamma 90.044671
loop_
_atom_site_label
_atom_site_type_symbol
_atom_site_fract_x
_atom_site_fract_y
_atom_site_fract_z
_atom_type_partial_charge
P0 P 0.72458 0.48128 0.45421 0.0
H1 H 0.74582 0.50482 0.65122 0.0
H2 H 0.79843 0.51546 0.71362 0.0
H3 H 0.83433 0.51271 0.40734 0.0
H4 H 0.78134 0.50323 0.34472 0.0
H5 H 0.65938 0.466 0.42171 0.0
H6 H 0.62249 0.47785 0.28683 0.0
H7 H 0.68964 0.54075 0.14849 0.0
H8 H 0.72731 0.52814 0.28389 0.0
H9 H 0.755 0.42703 0.54581 0.0
H10 H 0.73543 0.46151 0.24443 0.0
O11 O 0.70503 0.47025 0.55861 0.0
H12 H 0.79817 0.39565 0.47854 0.0
H13 H 0.77887 0.4315 0.17813 0.0
C14 C 0.75919 0.50323 0.49275 0.0
C15 C 0.76466 0.5077 0.59662 0.0
C16 C 0.79506 0.51314 0.63273 0.0
C17 C 0.82096 0.51389 0.56605 0.0
C18 C 0.81508 0.51212 0.46121 0.0
C19 C 0.78456 0.50697 0.42504 0.0
C20 C 0.69599 0.49679 0.36507 0.0
C21 C 0.666 0.48317 0.36448 0.0
C22 C 0.64468 0.49007 0.28732 0.0
C23 C 0.6526 0.51082 0.20798 0.0
C24 C 0.68258 0.52489 0.20905 0.0
C25 C 0.70408 0.51794 0.28689 0.0
C26 C 0.7422 0.44692 0.40045 0.0
C27 C 0.75888 0.42662 0.4646 0.0
C28 C 0.78383 0.40901 0.4263 0.0
C29 C 0.79258 0.41207 0.32381 0.0
C30 C 0.77287 0.42875 0.25763 0.0
C31 C 0.74784 0.44608 0.29578 0.0
P32 P 0.0444 0.72786 0.42899 0.0
H33 H 0.05024 0.75819 0.62405 0.0
H34 H 0.03889 0.81066 0.6814 0.0
H35 H 0.98389 0.82731 0.4124 0.0
H36 H 0.99807 0.77516 0.35073 0.0
H37 H 0.04402 0.6592 0.4279 0.0
H38 H 0.03092 0.62065 0.30099 0.0
H39 H 0.99491 0.69454 0.1081 0.0
H40 H 1.00531 0.7327 0.24045 0.0
H41 H 0.10232 0.75432 0.50646 0.0
H42 H 0.05815 0.74484 0.21498 0.0
O43 O 0.05872 0.70724 0.52642 0.0
H44 H 0.13393 0.79766 0.43929 0.0
H45 H 0.08843 0.78824 0.14975 0.0
C46 C 0.02453 0.76187 0.48342 0.0
C47 C 0.035 0.77263 0.5779 0.0
C48 C 0.02853 0.80313 0.61098 0.0
C49 C 0.01089 0.82415 0.55146 0.0
C50 C 0.99861 0.81264 0.45941 0.0
C51 C 1.00593 0.78219 0.42488 0.0
C52 C 0.02597 0.69934 0.34481 0.0
C53 C 0.03228 0.66724 0.36005 0.0
C54 C 0.02517 0.645 0.28594 0.0
C55 C 0.01216 0.65409 0.19237 0.0
C56 C 1.00433 0.68611 0.17919 0.0
C57 C 0.01058 0.70828 0.25522 0.0
C58 C 0.07718 0.74661 0.3668 0.0
C59 C 0.10029 0.76052 0.427 0.0
C60 C 0.11819 0.7855 0.38888 0.0
C61 C 0.11282 0.79702 0.29046 0.0
C62 C 0.09298 0.7801 0.22628 0.0
C63 C 0.07524 0.75516 0.26428 0.0
P64 P 0.80015 0.05504 0.45273 0.0
H65 H 0.77268 0.06032 0.65481 0.0
H66 H 0.721 0.04892 0.7195 0.0
H67 H 0.70205 0.99294 0.45516 0.0
H68 H 0.75336 1.00766 0.38524 0.0
H69 H 0.8622 0.07654 0.39727 0.0
H70 H 0.8997 0.06066 0.26889 0.0
H71 H 0.84596 0.97626 0.21845 0.0
H72 H 0.80705 0.99372 0.34344 0.0
H73 H 0.75093 0.10075 0.48661 0.0
H74 H 0.80435 0.06696 0.23064 0.0
O75 O 0.81759 0.07714 0.53976 0.0
H76 H 0.71387 0.12517 0.37177 0.0
H77 H 0.76873 0.09348 0.11579 0.0
C78 C 0.76792 0.03412 0.51582 0.0
C79 C 0.75809 0.04457 0.61176 0.0
C80 C 0.72803 0.03779 0.64962 0.0
C81 C 0.70677 0.01934 0.5945 0.0
C82 C 0.71734 1.00735 0.50051 0.0
C83 C 0.74725 0.01506 0.46109 0.0
C84 C 0.83164 0.03634 0.38121 0.0
C85 C 0.85869 0.0542 0.36044 0.0
C86 C 0.88032 0.04504 0.28611 0.0
C87 C 0.87578 0.01749 0.22997 0.0
C88 C 0.84979 0.99833 0.25635 0.0
C89 C 0.82767 1.00794 0.32976 0.0
C90 C 0.78003 0.08134 0.36783 0.0
C91 C 0.75544 0.09964 0.40584 0.0
C92 C 0.73445 0.1141 0.33976 0.0
C93 C 0.73826 0.11121 0.23427 0.0
C94 C 0.76496 0.09578 0.19669 0.0
C95 C 0.78546 0.08059 0.26283 0.0
P96 P 0.47056 0.8015 0.48425 0.0
H97 H 0.4678 0.77593 0.69003 0.0
H98 H 0.47889 0.72401 0.75527 0.0
H99 H 0.53139 0.70323 0.48302 0.0
H100 H 0.518 0.75514 0.41462 0.0
H101 H 0.44152 0.85656 0.40038 0.0
H102 H 0.45708 0.8967 0.27845 0.0
H103 H 0.54911 0.85511 0.25799 0.0
H104 H 0.53283 0.81414 0.38116 0.0
H105 H 0.4157 0.76384 0.53467 0.0
H106 H 0.47182 0.78515 0.26955 0.0
O107 O 0.44863 0.8194 0.57163 0.0
H108 H 0.39615 0.71647 0.45254 0.0
H109 H 0.45185 0.73833 0.18729 0.0
C110 C 0.4927 0.77037 0.54778 0.0
C111 C 0.48292 0.76094 0.64551 0.0
C112 C 0.48936 0.73074 0.68343 0.0
C113 C 0.50641 0.70884 0.62574 0.0
C114 C 0.51801 0.71906 0.53022 0.0
C115 C 0.51103 0.74925 0.49153 0.0
C116 C 0.48618 0.83269 0.40267 0.0
C117 C 0.46539 0.85644 0.37206 0.0
C118 C 0.47442 0.87964 0.30204 0.0
C119 C 0.50468 0.8799 0.2593 0.0
C120 C 0.52567 0.85593 0.28977 0.0
C121 C 0.5165 0.83252 0.36072 0.0
C122 C 0.44512 0.77808 0.40815 0.0
C123 C 0.42236 0.75941 0.45671 0.0
C124 C 0.41122 0.73235 0.40998 0.0
C125 C 0.42284 0.72388 0.31448 0.0
C126 C 0.44263 0.7446 0.26113 0.0
C127 C 0.45392 0.77146 0.30806 0.0
P128 P 0.29735 0.45794 0.11174 0.0
H129 H 0.27699 0.45532 0.90132 0.0
H130 H 0.22788 0.47089 0.82532 0.0
H131 H 0.20809 0.52975 0.08276 0.0
H132 H 0.25701 0.51235 0.16156 0.0
H133 H 0.32879 0.42654 0.27704 0.0
H134 H 0.36813 0.44161 0.39941 0.0
H135 H 0.37234 0.5342 0.2636 0.0
H136 H 0.33138 0.519 0.14314 0.0
H137 H 0.25447 0.40822 0.05122 0.0
H138 H 0.27304 0.46278 0.31814 0.0
O139 O 0.31612 0.43352 0.03398 0.0
H140 H 0.20153 0.39725 0.11459 0.0
H141 H 0.22124 0.45155 0.38181 0.0
C142 C 0.27153 0.48308 0.03695 0.0
C143 C 0.26302 0.47283 0.93977 0.0
C144 C 0.23447 0.48179 0.89582 0.0
C145 C 0.2135 0.50178 0.94693 0.0
C146 C 0.22327 0.5141 0.04084 0.0
C147 C 0.25177 0.50474 0.08541 0.0
C148 C 0.32626 0.47185 0.20244 0.0
C149 C 0.33779 0.45031 0.27419 0.0
C150 C 0.36079 0.4589 0.34382 0.0
C151 C 0.37375 0.48928 0.34307 0.0
C152 C 0.36269 0.51079 0.26901 0.0
C153 C 0.33921 0.50215 0.19937 0.0
C154 C 0.2679 0.43612 0.18021 0.0
C155 C 0.24798 0.41611 0.12632 0.0
C156 C 0.21767 0.40995 0.16227 0.0
C157 C 0.20718 0.4235 0.25306 0.0
C158 C 0.22867 0.44011 0.31268 0.0
C159 C 0.25863 0.44661 0.27609 0.0
P160 P 0.06685 0.30005 0.09277 0.0
H161 H 0.06246 0.28291 0.87668 0.0
H162 H 0.04514 0.23389 0.79887 0.0
H163 H 0.99989 0.20671 0.07874 0.0
H164 H 0.01621 0.25623 0.15577 0.0
H165 H 0.10247 0.35293 0.16474 0.0
H166 H 0.09253 0.39315 0.29128 0.0
H167 H 0.99606 0.36358 0.31269 0.0
H168 H 1.00633 0.3225 0.18546 0.0
H169 H 0.1093 0.24711 0.07227 0.0
H170 H 0.05744 0.29188 0.31281 0.0
O171 O 0.0958 0.31098 0.01443 0.0
H172 H 0.10622 0.19733 0.16428 0.0
H173 H 0.05358 0.24261 0.40235 0.0
C174 C 0.04069 0.27385 0.02284 0.0
C175 C 0.04741 0.26734 0.92032 0.0
C176 C 0.03775 0.239 0.8757 0.0
C177 C 0.0214 0.21622 0.93277 0.0
C178 C 0.01244 0.22377 0.0326 0.0
C179 C 0.02152 0.2524 0.07648 0.0
C180 C 0.05503 0.3349 0.16322 0.0
C181 C 0.07883 0.35556 0.19378 0.0
C182 C 0.07325 0.37847 0.26725 0.0
C183 C 0.04356 0.3816 0.31245 0.0
C184 C 0.01915 0.36196 0.27862 0.0
C185 C 0.02491 0.33858 0.20532 0.0
C186 C 0.08287 0.27306 0.18404 0.0
C187 C 0.09906 0.2468 0.14765 0.0
C188 C 0.0971 0.21825 0.20002 0.0
C189 C 0.07884 0.21591 0.28885 0.0
C190 C 0.0678 0.24353 0.33409 0.0
C191 C 0.06985 0.272 0.28191 0.0
P192 P 0.22885 0.06622 0.12471 0.0
H193 H 0.25991 0.09525 0.948 0.0
H194 H 0.30914 0.08076 0.8672 0.0
H195 H 0.30053 0.98711 0.99006 0.0
H196 H 0.25086 1.0017 0.07141 0.0
H197 H 0.18602 0.10709 0.22989 0.0
H198 H 0.13991 0.09768 0.33182 0.0
H199 H 0.1345 1.0031 0.21788 0.0
H200 H 0.18229 0.01265 0.11599 0.0
H201 H 0.28986 0.08431 0.19801 0.0
H202 H 0.22005 0.01407 0.27133 0.0
O203 O 0.23437 0.10502 0.11937 0.0
H204 H 0.32992 0.0512 0.2749 0.0
H205 H 0.26004 0.98106 0.34628 0.0
C206 C 0.25123 0.04989 0.01798 0.0
C207 C 0.26754 0.07111 0.95445 0.0
C208 C 0.29624 0.06291 0.909 0.0
C209 C 0.30944 0.03297 0.92381 0.0
C210 C 0.29129 1.01044 0.97684 0.0
C211 C 0.26247 0.01875 0.02282 0.0
C212 C 0.18799 0.06073 0.16379 0.0
C213 C 0.17459 0.08453 0.22315 0.0
C214 C 0.14791 0.07905 0.28267 0.0
C215 C 0.13349 0.0494 0.28581 0.0
C216 C 0.14536 0.02605 0.22008 0.0
C217 C 0.1724 0.03165 0.1598 0.0
C218 C 0.25196 0.05166 0.22763 0.0
C219 C 0.28278 0.06262 0.23502 0.0
C220 C 0.30572 0.04348 0.27717 0.0
C221 C 0.2979 0.01328 0.31231 0.0
C222 C 0.26648 1.00413 0.31787 0.0
C223 C 0.24354 0.02327 0.27549 0.0
P224 P 0.45777 0.21854 0.09455 0.0
H225 H 0.43131 0.25387 0.92517 0.0
H226 H 0.44357 0.30501 0.858 0.0
H227 H 0.53449 0.301 0.99893 0.0
H228 H 0.52071 0.24983 0.07394 0.0
H229 H 0.42529 0.15953 0.13528 0.0
H230 H 0.43562 0.11691 0.2524 0.0
H231 H 0.53016 0.15016 0.29045 0.0
H232 H 0.52046 0.1921 0.16439 0.0
H233 H 0.41142 0.26526 0.15555 0.0
H234 H 0.50032 0.23069 0.26271 0.0
O235 O 0.42126 0.21215 0.05469 0.0
H236 H 0.42138 0.31514 0.23871 0.0
H237 H 0.5117 0.28012 0.33412 0.0
C238 C 0.47516 0.24681 1.004 0.0
C239 C 0.45456 0.26297 0.93887 0.0
C240 C 0.46175 0.29287 0.89936 0.0
C241 C 0.49041 0.30782 0.92057 0.0
C242 C 0.51206 0.29074 0.98049 0.0
C243 C 0.5045 0.26084 0.0219 0.0
C244 C 0.47163 0.18034 0.14256 0.0
C245 C 0.44875 0.15745 0.16506 0.0
C246 C 0.45452 0.13301 0.23408 0.0
C247 C 0.48318 0.13093 0.2855 0.0
C248 C 0.50748 0.15146 0.25438 0.0
C249 C 0.50187 0.17565 0.18234 0.0
C250 C 0.45521 0.24405 0.20155 0.0
C251 C 0.43229 0.26761 0.20109 0.0
C252 C 0.43831 0.29638 0.24697 0.0
C253 C 0.46759 0.30197 0.29164 0.0
C254 C 0.48854 0.27685 0.30314 0.0
C255 C 0.48201 0.24798 0.26066 0.0
Ho256 Ho 0.02871 0.01393 0.81878 0.0
Ho257 Ho 0.97737 0.02568 0.68305 0.0
C258 C 1.002 0.95558 0.69032 0.0
C259 C 0.06898 0.99803 0.9565 0.0
C260 C 0.08067 0.97076 0.01407 0.0
C261 C 0.06056 0.95245 0.07496 0.0
C262 C 0.07237 0.92721 0.13063 0.0
C263 C 0.10442 0.9198 0.12638 0.0
C264 C 0.12457 0.9381 0.06585 0.0
C265 C 0.1128 0.96361 0.01079 0.0
C266 C 0.04761 0.03605 0.63185 0.0
C267 C 1.00833 0.08479 0.8007 0.0
C268 C 0.94241 0.04704 0.53977 0.0
C269 C 0.95238 0.07087 0.46432 0.0
C270 C 0.97426 0.06277 0.38842 0.0
C271 C 0.99422 0.08553 0.34736 0.0
C272 C 0.99231 0.11651 0.38129 0.0
C273 C 0.9674 0.12543 0.44453 0.0
C274 C 0.94731 0.10275 0.48521 0.0
C275 C 0.95646 1.00506 0.86793 0.0
O276 O 0.01478 0.96384 0.7775 0.0
O277 O 0.98882 0.97696 0.63195 0.0
O278 O 0.07547 0.99888 0.85976 0.0
O279 O 0.04057 1.00767 0.97651 0.0
O280 O 0.05939 0.04446 0.71752 0.0
O281 O 0.02686 0.01571 0.65003 0.0
O282 O 0.99485 0.07555 0.71566 0.0
O283 O 0.02013 0.0637 0.86293 0.0
O284 O 0.94041 0.05691 0.63308 0.0
O285 O 0.95687 0.02014 0.53464 0.0
O286 O 0.94521 0.99684 0.78131 0.0
O287 O 0.97865 0.02431 0.85208 0.0
H288 H 0.0357 0.95743 0.07917 0.0
H289 H 0.05628 0.91292 0.17505 0.0
H290 H 0.14931 0.9326 0.06104 0.0
H291 H 0.12876 0.97769 0.96516 0.0
H292 H 0.97829 0.03848 0.36857 0.0
H293 H 0.01288 0.07842 0.29641 0.0
H294 H 0.96491 0.1496 0.46802 0.0
H295 H 0.93014 0.1098 0.54143 0.0
Ho296 Ho 0.51311 0.03582 0.84636 0.0
Ho297 Ho 0.50541 0.98325 0.72363 0.0
C298 C 0.57428 1.00977 0.72569 0.0
C299 C 0.52984 0.07791 0.97592 0.0
C300 C 0.55916 0.0947 0.99364 0.0
C301 C 0.56549 0.10631 0.09026 0.0
C302 C 0.59533 0.11761 0.11271 0.0
C303 C 0.61918 0.11728 0.03863 0.0
C304 C 0.61211 0.10746 0.94 0.0
C305 C 0.58228 0.09623 0.91763 0.0
C306 C 0.4939 0.05313 0.65644 0.0
C307 C 0.44369 0.0137 0.82789 0.0
C308 C 0.48775 0.93959 0.60182 0.0
C309 C 0.46219 0.93967 0.52886 0.0
C310 C 0.45658 0.96685 0.47131 0.0
C311 C 0.42919 0.9698 0.41655 0.0
C312 C 0.40666 0.94589 0.41957 0.0
C313 C 0.41242 0.91826 0.47483 0.0
C314 C 0.44031 0.91507 0.52887 0.0
C315 C 0.52361 0.96617 0.91415 0.0
O316 O 0.56407 0.02517 0.80594 0.0
O317 O 0.55443 0.9937 0.67069 0.0
O318 O 0.51577 0.08445 0.89103 0.0
O319 O 0.53083 0.04779 0.9944 0.0
O320 O 0.48317 0.06426 0.74066 0.0
O321 O 0.51448 0.0326 0.67637 0.0
O322 O 0.45469 1.00027 0.74449 0.0
O323 O 0.46361 0.02569 0.89265 0.0
O324 O 0.47868 0.94105 0.69607 0.0
O325 O 0.51085 0.95875 0.58185 0.0
O326 O 0.53569 0.95575 0.83106 0.0
O327 O 0.50324 0.98664 0.89191 0.0
H328 H 0.54792 0.10497 0.14976 0.0
H329 H 0.60033 0.12435 0.18994 0.0
H330 H 0.63017 0.10682 0.88191 0.0
H331 H 0.57775 0.08731 0.84246 0.0
H332 H 0.47258 0.98661 0.47247 0.0
H333 H 0.42469 0.99178 0.3773 0.0
H334 H 0.39487 0.89992 0.47965 0.0
H335 H 0.44403 0.89424 0.57493 0.0
Ho336 Ho 0.48731 0.51401 0.86589 0.0
Ho337 Ho 0.53238 0.50316 0.68933 0.0
C338 C 0.51151 0.57477 0.74739 0.0
C339 C 0.45476 0.51603 0.03204 0.0
C340 C 0.43637 0.54027 0.08297 0.0
C341 C 0.42204 0.56431 0.02651 0.0
C342 C 0.4124 0.59178 0.07432 0.0
C343 C 0.41744 0.59556 0.17843 0.0
C344 C 0.42909 0.57037 0.23616 0.0
C345 C 0.43843 0.54278 0.18859 0.0
C346 C 0.46063 0.51379 0.67864 0.0
C347 C 0.50805 0.44235 0.81341 0.0
C348 C 0.55405 0.49756 0.50769 0.0
C349 C 0.54471 0.47798 0.42226 0.0
C350 C 0.51337 0.47732 0.39026 0.0
C351 C 0.502 0.4511 0.33999 0.0
C352 C 0.52198 0.42568 0.32151 0.0
C353 C 0.55428 0.42892 0.33705 0.0
C354 C 0.56558 0.4549 0.38845 0.0
C355 C 0.56797 0.51352 0.85828 0.0
O356 O 0.50125 0.56453 0.83685 0.0
O357 O 0.52086 0.55496 0.67659 0.0
O358 O 0.44379 0.50509 0.94705 0.0
O359 O 0.48463 0.52227 0.02639 0.0
O360 O 0.45319 0.5329 0.75085 0.0
O361 O 0.48166 0.49519 0.71011 0.0
O362 O 0.51856 0.45259 0.72409 0.0
O363 O 0.49867 0.46221 0.88394 0.0
O364 O 0.5649 0.48172 0.58552 0.0
O365 O 0.53454 0.5198 0.53429 0.0
O366 O 0.57889 0.50799 0.76878 0.0
O367 O 0.5384 0.51338 0.8524 0.0
H368 H 0.42062 0.56293 0.94468 0.0
H369 H 0.40385 0.61115 0.02853 0.0
H370 H 0.4333 0.57302 0.31657 0.0
H371 H 0.44958 0.52449 0.23311 0.0
H372 H 0.49696 0.49533 0.41303 0.0
H373 H 0.47706 0.44916 0.32674 0.0
H374 H 0.57009 0.40966 0.32119 0.0
H375 H 0.58981 0.45506 0.4123 0.0
Ho376 Ho 0.01129 0.49192 0.84278 0.0
Ho377 Ho 0.02358 0.53596 0.67645 0.0
C378 C 0.95205 0.51595 0.70596 0.0
C379 C 0.99379 0.46145 1.00416 0.0
C380 C 0.96558 0.44581 0.04387 0.0
C381 C 0.93573 0.45806 0.02408 0.0
C382 C 0.90932 0.44455 0.06928 0.0
C383 C 0.91243 0.41888 0.1357 0.0
C384 C 0.94213 0.40603 0.15355 0.0
C385 C 0.96858 0.41924 0.10666 0.0
C386 C 0.02891 0.46363 0.66626 0.0
C387 C 0.08173 0.51082 0.81259 0.0
C388 C 0.0446 0.55799 0.50707 0.0
C389 C 0.06453 0.54028 0.43538 0.0
C390 C 0.05097 0.51813 0.36972 0.0
C391 C 0.06914 0.49409 0.32818 0.0
C392 C 0.10102 0.49222 0.35117 0.0
C393 C 0.11519 0.51628 0.40655 0.0
C394 C 0.09715 0.54019 0.4481 0.0
C395 C 1.0077 0.56571 0.85152 0.0
O396 O 0.96131 0.50187 0.79074 0.0
O397 O 0.97253 0.52956 0.64475 0.0
O398 O 1.00756 0.44816 0.9271 0.0
O399 O 0.99236 0.49201 0.99471 0.0
O400 O 0.03851 0.4552 0.75538 0.0
O401 O 0.01015 0.48626 0.67578 0.0
O402 O 0.07256 0.51792 0.71916 0.0
O403 O 0.06047 0.50453 0.88252 0.0
O404 O 0.05727 0.56481 0.59423 0.0
O405 O 0.01618 0.54726 0.51835 0.0
O406 O 1.00007 0.57535 0.76151 0.0
O407 O 0.02524 0.54199 0.84305 0.0
H408 H 0.93293 0.47865 0.97643 0.0
H409 H 0.88657 0.45503 0.05607 0.0
H410 H 0.94491 0.38643 0.20557 0.0
H411 H 0.99148 0.40944 0.12219 0.0
H412 H 0.02597 0.51795 0.35652 0.0
H413 H 0.05805 0.47609 0.28328 0.0
H414 H 0.14011 0.51568 0.42162 0.0
H415 H 0.10843 0.55715 0.49655 0.0
C416 C 0.0859 0.06647 0.3881 0.0
C417 C 0.10828 0.04307 0.36441 0.0
C418 C 0.06569 0.06365 0.47277 0.0
C419 C 0.06646 0.03709 0.53645 0.0
H420 H 0.08458 0.0877 0.34257 0.0
H421 H 0.04984 0.08273 0.48993 0.0
S422 S 0.11933 0.96871 0.50934 0.0
N423 N 0.12918 0.99206 0.41372 0.0
N424 N 0.09043 0.98654 0.56949 0.0
C425 C 0.08755 0.01296 0.51193 0.0
C426 C 0.10849 0.01592 0.42665 0.0
C427 C 0.51132 0.0893 0.39277 0.0
C428 C 0.48583 0.10997 0.3781 0.0
C429 C 0.51345 0.06991 0.48055 0.0
C430 C 0.49044 0.07078 0.55797 0.0
H431 H 0.5297 0.08804 0.33596 0.0
H432 H 0.53365 0.05476 0.48895 0.0
S433 S 0.4193 0.12092 0.55781 0.0
N434 N 0.43736 0.13002 0.45056 0.0
N435 N 0.44124 0.09387 0.61254 0.0
C436 C 0.46486 0.09113 0.5435 0.0
C437 C 0.46261 0.11062 0.45474 0.0
C438 C 0.42102 0.47547 0.45101 0.0
C439 C 0.39821 0.49774 0.4209 0.0
C440 C 0.44183 0.48112 0.53159 0.0
C441 C 0.44099 0.50939 0.5859 0.0
H442 H 0.42255 0.45309 0.41303 0.0
H443 H 0.45815 0.46281 0.55309 0.0
S444 S 0.38803 0.57672 0.53406 0.0
N445 N 0.37752 0.55006 0.45078 0.0
N446 N 0.41701 0.5609 0.5991 0.0
C447 C 0.41941 0.53244 0.55397 0.0
C448 C 0.39807 0.52664 0.47231 0.0
C449 C 0.05902 0.40061 0.48556 0.0
C450 C 0.03934 0.40337 0.4005 0.0
C451 C 0.05559 0.42029 0.57021 0.0
C452 C 0.0327 0.44408 0.57311 0.0
H453 H 0.07701 0.38269 0.48738 0.0
H454 H 0.07108 0.41681 0.63406 0.0
S455 S 0.97673 0.46279 0.36686 0.0
N456 N 0.99696 0.43271 0.32313 0.0
N457 N 0.99083 0.47005 0.48062 0.0
C458 C 0.01338 0.44766 0.48746 0.0
C459 C 0.01657 0.42723 0.40186 0.0
C460 C 0.92919 0.01791 0.14224 0.0
C461 C 0.89683 1.01061 0.14008 0.0
C462 C 0.94851 0.01526 0.05535 0.0
C463 C 0.93657 1.00473 0.96234 0.0
H464 H 0.93969 0.02629 0.21142 0.0
H465 H 0.97292 0.022 0.06074 0.0
S466 S 0.8538 0.98216 0.91433 0.0
N467 N 0.85401 0.9926 0.03443 0.0
N468 N 0.8903 0.98606 0.87437 0.0
C469 C 0.90459 0.99624 0.95988 0.0
C470 C 0.8848 0.99951 0.04762 0.0
C471 C 0.52823 0.89393 0.088 0.0
C472 C 0.51299 0.90358 0.1776 0.0
C473 C 0.53276 0.91464 1.00524 0.0
C474 C 0.52206 0.94599 1.00765 0.0
H475 H 0.5356 0.86976 0.07984 0.0
H476 H 0.5437 0.90555 0.93727 0.0
S477 S 0.48513 0.98472 0.22829 0.0
N478 N 0.49066 0.94815 0.26697 0.0
N479 N 0.49834 0.98645 0.11057 0.0
C480 C 0.5082 0.95642 0.09806 0.0
C481 C 0.50386 0.93545 0.1829 0.0
C482 C 0.6417 0.5118 0.02044 0.0
C483 C 0.6306 0.51511 0.12041 0.0
C484 C 0.62116 0.51206 0.93746 0.0
C485 C 0.58847 0.51572 0.94994 0.0
H486 H 0.6664 0.5078 1.00622 0.0
H487 H 0.6311 0.50863 0.8626 0.0
S488 S 0.54768 0.52891 0.19495 0.0
N489 N 0.58483 0.52471 0.22653 0.0
N490 N 0.54652 0.52522 0.07048 0.0
C491 C 0.57719 0.52031 0.04904 0.0
C492 C 0.59812 0.51996 0.13403 0.0
C493 C 0.03258 0.60745 0.09342 0.0
C494 C 1.0092 0.63058 0.10762 0.0
C495 C 0.03139 0.58591 0.01303 0.0
C496 C 1.00708 0.58678 0.94156 0.0
H497 H 0.0526 0.60636 0.14331 0.0
H498 H 0.05027 0.56911 1.00502 0.0
S499 S 0.93838 0.64 0.94748 0.0
N500 N 0.95932 0.65062 0.04632 0.0
N501 N 0.95808 0.61128 0.89312 0.0
C502 C 0.98324 0.60915 0.95538 0.0
C503 C 0.98407 0.63074 0.03847 0.0
C504 C 0.04759 0.16978 0.23702 0.0
C505 C 0.06305 0.18595 0.31488 0.0
C506 C 0.02551 0.14641 0.2586 0.0
C507 C 0.01783 0.13879 0.35913 0.0
H508 H 0.05087 0.17684 0.15896 0.0
H509 H 0.0132 0.13548 0.19654 0.0
S510 S 0.05484 0.17036 0.59059 0.0
N511 N 0.07178 0.18986 0.49625 0.0
N512 N 0.02976 0.14608 0.53744 0.0
C513 C 0.03446 0.15318 0.43785 0.0
C514 C 0.05722 0.17675 0.41566 0.0
C515 C 0.32457 0.97501 0.42624 0.0
C516 C 0.32277 0.99033 0.3319 0.0
C517 C 0.35069 0.95669 0.4503 0.0
C518 C 0.37547 0.95334 0.38057 0.0
H519 H 0.30678 0.97888 0.48377 0.0
H520 H 0.35277 0.94746 0.52663 0.0
S521 S 0.37835 0.98296 0.11616 0.0
N522 N 0.34505 0.99662 0.16257 0.0
N523 N 0.39438 0.96233 0.20882 0.0
C524 C 0.37225 0.96572 0.28252 0.0
C525 C 0.34582 0.98436 0.25802 0.0
C526 C 0.47289 0.35759 0.2327 0.0
C527 C 0.47888 0.33443 0.30733 0.0
C528 C 0.48711 0.38713 0.2365 0.0
C529 C 0.50837 0.39415 0.31347 0.0
H530 H 0.45802 0.35256 0.16862 0.0
H531 H 0.48196 0.40434 0.17801 0.0
S532 S 0.53155 0.34269 0.52864 0.0
N533 N 0.50629 0.32161 0.46379 0.0
N534 N 0.53412 0.37659 0.46783 0.0
C535 C 0.51429 0.37157 0.38924 0.0
C536 C 0.49928 0.34185 0.38694 0.0
C537 C 0.15547 0.44319 0.1958 0.0
C538 C 0.17331 0.42848 0.27229 0.0
C539 C 0.12911 0.46123 0.22045 0.0
C540 C 0.12007 0.46499 0.32186 0.0
H541 H 0.16394 0.44396 0.11821 0.0
H542 H 0.11779 0.47482 0.16147 0.0
S543 S 0.15298 0.42397 0.54546 0.0
N544 N 0.17546 0.41288 0.44979 0.0
N545 N 0.1263 0.44752 0.49613 0.0
C546 C 0.13478 0.44677 0.39669 0.0
C547 C 0.16131 0.42816 0.3717 0.0
C548 C 0.13133 0.83641 0.16194 0.0
C549 C 0.12109 0.82969 0.26144 0.0
C550 C 0.12872 0.86675 0.12101 0.0
C551 C 0.11571 0.8912 0.17836 0.0
H552 H 0.13897 0.8176 0.11286 0.0
H553 H 0.13436 0.87042 0.04158 0.0
S554 S 0.09139 0.88747 0.44813 0.0
N555 N 0.10171 0.8512 0.42058 0.0
N556 N 0.09738 0.9082 0.34346 0.0
C557 C 0.10867 0.88562 0.28091 0.0
C558 C 0.11133 0.85483 0.32272 0.0
C559 C 0.70228 0.09497 0.09679 0.0
C560 C 0.71154 0.11808 0.16617 0.0
C561 C 0.67322 0.09645 0.04923 0.0
C562 C 0.65217 0.12095 0.06964 0.0
H563 H 0.71641 0.0742 0.08486 0.0
H564 H 0.66627 0.07693 1.0023 0.0
S565 S 0.66753 0.19054 0.22833 0.0
N566 N 0.69941 0.16885 0.23989 0.0
N567 N 0.64411 0.17114 0.1517 0.0
C568 C 0.66208 0.14559 0.13178 0.0
C569 C 0.69193 0.14428 0.17967 0.0
C570 C 0.39193 0.67722 0.25674 0.0
C571 C 0.42075 0.69099 0.28195 0.0
C572 C 0.39057 0.64584 0.22487 0.0
C573 C 0.41787 0.62744 0.22037 0.0
H574 H 0.37058 0.69092 0.25983 0.0
H575 H 0.36822 0.63598 0.20309 0.0
S576 S 0.4987 0.65264 0.28094 0.0
N577 N 0.47687 0.68389 0.30235 0.0
N578 N 0.47426 0.62512 0.24325 0.0
C579 C 0.4466 0.6409 0.24737 0.0
C580 C 0.44804 0.67267 0.27822 0.0
C581 C 0.83013 0.3922 0.19279 0.0
C582 C 0.82496 0.4049 0.28972 0.0
C583 C 0.85958 0.39433 0.14559 0.0
C584 C 0.88485 0.40863 0.19471 0.0
H585 H 0.81073 0.38271 0.15023 0.0
H586 H 0.8621 0.38659 0.06793 0.0
S587 S 0.88464 0.44341 0.45088 0.0
N588 N 0.84843 0.43085 0.43485 0.0
N589 N 0.90384 0.43362 0.34682 0.0
C590 C 0.88079 0.41904 0.29436 0.0
C591 C 0.8508 0.41736 0.34201 0.0
C592 C 0.03557 0.15899 0.93674 0.0
C593 C 0.01762 0.18333 0.8941 0.0
C594 C 0.03245 0.12767 0.90521 0.0
C595 C 0.01146 0.11897 0.82797 0.0
H596 H 0.05262 0.16423 0.99432 0.0
H597 H 0.0469 0.11012 0.94193 0.0
S598 S 0.9598 0.17421 0.68781 0.0
N599 N 0.97872 0.19692 0.76794 0.0
N600 N 0.97281 0.13816 0.70776 0.0
C601 C 0.99384 0.1433 0.78258 0.0
C602 C 0.99698 0.17536 0.81549 0.0
C603 C 0.36652 0.04863 0.92509 0.0
C604 C 0.3433 0.0271 0.89507 0.0
C605 C 0.39852 0.04395 0.90277 0.0
C606 C 0.4091 0.0178 0.84736 0.0
H607 H 0.35999 0.06914 0.96831 0.0
H608 H 0.41515 0.06125 0.92898 0.0
S609 S 0.35831 0.954 0.75135 0.0
N610 N 0.33352 0.97808 0.80789 0.0
N611 N 0.39346 0.96978 0.76362 0.0
C612 C 0.38621 0.99614 0.81588 0.0
C613 C 0.3535 1.00059 0.84054 0.0
C614 C 0.5116 0.36287 0.95338 0.0
C615 C 0.49647 0.34172 0.88747 0.0
C616 C 0.5156 0.39501 0.92845 0.0
C617 C 0.50527 0.40772 0.83542 0.0
H618 H 0.51958 0.35483 0.0269 0.0
H619 H 0.52677 0.41014 0.98307 0.0
S620 S 0.46184 0.36435 0.63848 0.0
N621 N 0.47 0.33728 0.72469 0.0
N622 N 0.47748 0.39724 0.67995 0.0
C623 C 0.49012 0.38719 0.76874 0.0
C624 C 0.48571 0.35448 0.79419 0.0
C625 C 0.15508 0.50583 0.97807 0.0
C626 C 0.18041 0.50661 0.9089 0.0
C627 C 0.12376 0.50743 0.94572 0.0
C628 C 0.11578 0.51003 0.84228 0.0
H629 H 0.15939 0.50314 0.05831 0.0
H630 H 0.10553 0.50643 1.0033 0.0
S631 S 0.17289 0.51531 0.62917 0.0
N632 N 0.19504 0.51208 0.73089 0.0
N633 N 0.13628 0.51456 0.6705 0.0
C634 C 0.14077 0.51162 0.77195 0.0
C635 C 0.17288 0.50998 0.80503 0.0
C636 C 1.00433 0.8655 0.68872 0.0
C637 C 1.00693 0.85796 0.58457 0.0
C638 C 1.00305 0.89685 0.72259 0.0
C639 C 1.00361 0.92231 0.65401 0.0
H640 H 1.00322 0.84699 0.74534 0.0
H641 H 1.0012 0.90113 0.80324 0.0
S642 S 0.01162 0.91658 0.37406 0.0
N643 N 0.01149 0.87973 0.41373 0.0
N644 N 1.00772 0.93802 0.47696 0.0
C645 C 1.00592 0.91533 0.54986 0.0
C646 C 1.00781 0.88346 0.51534 0.0
C647 C 0.64829 0.01458 0.5603 0.0
C648 C 0.67315 0.01496 0.63067 0.0
C649 C 0.61666 0.0124 0.59157 0.0
C650 C 0.60812 0.01129 0.69486 0.0
H651 H 0.65309 0.01675 0.47988 0.0
H652 H 0.59865 0.01244 0.53406 0.0
S653 S 0.66318 1.0085 0.91099 0.0
N654 N 0.6862 1.01088 0.81011 0.0
N655 N 0.62698 1.00906 0.86766 0.0
C656 C 0.63244 0.01132 0.76626 0.0
C657 C 0.66475 0.01259 0.73461 0.0
C658 C 0.50662 0.65044 0.58914 0.0
C659 C 0.50933 0.67486 0.66021 0.0
C660 C 0.50758 0.61856 0.61829 0.0
C661 C 0.51078 0.60917 0.72054 0.0
H662 H 0.50294 0.65589 0.5099 0.0
H663 H 0.50512 0.60106 0.55975 0.0
S664 S 0.5206 0.66299 0.93776 0.0
N665 N 0.5173 0.68672 0.83872 0.0
N666 N 0.5176 0.62701 0.89319 0.0
C667 C 0.51359 0.63311 0.79286 0.0
C668 C 0.51322 0.66574 0.76295 0.0
C669 C 0.87657 0.53478 0.56113 0.0
C670 C 0.85397 0.51479 0.60565 0.0
C671 C 0.90782 0.53526 0.59512 0.0
C672 C 0.91815 0.51567 0.6752 0.0
H673 H 0.87004 0.55037 0.4995 0.0
H674 H 0.92405 0.55117 0.5577 0.0
S675 S 0.86891 0.457 0.81239 0.0
N676 N 0.84469 0.47359 0.73099 0.0
N677 N 0.90303 0.47455 0.79465 0.0
C678 C 0.89581 0.49536 0.71984 0.0
C679 C 0.86395 0.4949 0.68525 0.0
loop_
_geom_bond_atom_site_label_1
_geom_bond_atom_site_label_2
_geom_bond_distance
_geom_bond_site_symmetry_2
_ccdc_geom_bond_type
P0 O11 1.490 . S
P0 C14 1.812 . S
P0 C20 1.803 . S
P0 C26 1.819 . S
H1 C15 0.941 . S
H2 C16 0.939 . S
H3 C18 0.940 . S
H4 C19 0.940 . S
H5 C21 0.939 . S
H6 C22 0.942 . S
H7 C24 0.940 . S
H8 C25 0.939 . S
H9 C27 0.941 . S
H10 C31 0.939 . S
O11 P0 1.490 . S
H12 C28 0.939 . S
H13 C30 0.940 . S
C14 P0 1.812 . S
C14 C15 1.389 . S
C14 C19 1.391 . S
C15 H1 0.941 . S
C15 C14 1.389 . S
C15 C16 1.397 . S
C16 H2 0.939 . S
C16 C15 1.397 . S
C16 C17 1.378 . S
C17 C16 1.378 . S
C17 C18 1.378 . S
C18 H3 0.940 . S
C18 C17 1.378 . S
C18 C19 1.396 . S
C19 H4 0.940 . S
C19 C14 1.391 . S
C19 C18 1.396 . S
C20 P0 1.803 . S
C20 C21 1.378 . S
C20 C25 1.400 . S
C21 H5 0.939 . S
C21 C20 1.378 . S
C21 C22 1.361 . S
C22 H6 0.942 . S
C22 C21 1.361 . S
C22 C23 1.369 . S
C23 C22 1.369 . S
C23 C24 1.404 . S
C24 H7 0.940 . S
C24 C23 1.404 . S
C24 C25 1.389 . S
C25 H8 0.939 . S
C25 C20 1.400 . S
C25 C24 1.389 . S
C26 P0 1.819 . S
C26 C27 1.391 . S
C26 C31 1.391 . S
C27 H9 0.941 . S
C27 C26 1.391 . S
C27 C28 1.396 . S
C28 H12 0.939 . S
C28 C27 1.396 . S
C28 C29 1.397 . S
C29 C28 1.397 . S
C29 C30 1.385 . S
C30 H13 0.940 . S
C30 C29 1.385 . S
C30 C31 1.388 . S
C31 H10 0.939 . S
C31 C26 1.391 . S
C31 C30 1.388 . S
P32 O43 1.490 . S
P32 C46 1.812 . S
P32 C52 1.803 . S
P32 C58 1.819 . S
H33 C47 0.941 . S
H34 C48 0.939 . S
H35 C50 0.940 . S
H36 C51 0.950 . S
H37 C53 0.939 . S
H38 C54 0.942 . S
H39 C56 0.940 . S
H40 C57 0.959 . S
H41 C59 0.941 . S
H42 C63 0.929 1_655 S
O43 P32 1.490 . S
H44 C60 0.939 . S
H45 C62 0.940 . S
C46 P32 1.812 . S
C46 C47 1.389 . S
C46 C51 1.375 1_455 S
C47 H33 0.941 . S
C47 C46 1.389 . S
C47 C48 1.397 . S
C48 H34 0.939 . S
C48 C47 1.397 . S
C48 C49 1.378 . S
C49 C48 1.378 . S
C49 C50 1.378 1_455 S
C50 H35 0.940 . S
C50 C49 1.378 1_655 S
C50 C51 1.403 . S
C51 H36 0.950 . S
C51 C46 1.375 1_655 S
C51 C50 1.403 . S
C52 P32 1.803 . S
C52 C53 1.378 . S
C52 C57 1.368 1_455 S
C53 H37 0.939 . S
C53 C52 1.378 . S
C53 C54 1.361 . S
C54 H38 0.942 . S
C54 C53 1.361 . S
C54 C55 1.369 . S
C55 C54 1.369 . S
C55 C56 1.404 1_455 S
C56 H39 0.940 . S
C56 C55 1.404 1_655 S
C56 C57 1.402 . S
C57 H40 0.959 . S
C57 C52 1.368 1_655 S
C57 C56 1.402 . S
C58 P32 1.819 . S
C58 C59 1.391 . S
C58 C63 1.391 . S
C59 H41 0.941 . S
C59 C58 1.391 . S
C59 C60 1.396 . S
C60 H44 0.939 . S
C60 C59 1.396 . S
C60 C61 1.397 . S
C61 C60 1.397 . S
C61 C62 1.385 1_455 S
C62 H45 0.940 . S
C62 C61 1.385 1_655 S
C62 C63 1.388 1_655 S
C63 H42 0.929 1_455 S
C63 C58 1.391 . S
C63 C62 1.388 1_455 S
P64 O75 1.490 . S
P64 C78 1.812 . S
P64 C84 1.803 . S
P64 C90 1.819 . S
H65 C79 0.941 . S
H66 C80 0.939 . S
H67 C82 0.940 . S
H68 C83 0.950 . S
H69 C85 0.939 . S
H70 C86 0.942 . S
H71 C88 0.940 . S
H72 C89 0.959 . S
H73 C91 0.941 . S
H74 C95 0.929 1_565 S
O75 P64 1.490 . S
H76 C92 0.939 . S
H77 C94 0.940 . S
C78 P64 1.812 . S
C78 C79 1.389 . S
C78 C83 1.375 1_545 S
C79 H65 0.941 . S
C79 C78 1.389 . S
C79 C80 1.397 . S
C80 H66 0.939 . S
C80 C79 1.397 . S
C80 C81 1.378 . S
C81 C80 1.378 . S
C81 C82 1.378 1_545 S
C82 H67 0.940 . S
C82 C81 1.378 1_565 S
C82 C83 1.402 . S
C83 H68 0.950 . S
C83 C78 1.375 1_565 S
C83 C82 1.402 . S
C84 P64 1.803 . S
C84 C85 1.378 . S
C84 C89 1.368 1_545 S
C85 H69 0.939 . S
C85 C84 1.378 . S
C85 C86 1.361 . S
C86 H70 0.942 . S
C86 C85 1.361 . S
C86 C87 1.369 . S
C87 C86 1.369 . S
C87 C88 1.404 1_545 S
C88 H71 0.940 . S
C88 C87 1.404 1_565 S
C88 C89 1.402 . S
C89 H72 0.959 . S
C89 C84 1.368 1_565 S
C89 C88 1.402 . S
C90 P64 1.819 . S
C90 C91 1.391 . S
C90 C95 1.391 . S
C91 H73 0.941 . S
C91 C90 1.391 . S
C91 C92 1.396 . S
C92 H76 0.939 . S
C92 C91 1.396 . S
C92 C93 1.397 . S
C93 C92 1.397 . S
C93 C94 1.385 1_545 S
C94 H77 0.940 . S
C94 C93 1.385 1_565 S
C94 C95 1.388 1_565 S
C95 H74 0.929 1_545 S
C95 C90 1.391 . S
C95 C94 1.388 1_545 S
P96 O107 1.490 . S
P96 C110 1.812 . S
P96 C116 1.803 . S
P96 C122 1.819 . S
H97 C111 0.941 . S
H98 C112 0.939 . S
H99 C114 0.940 . S
H100 C115 0.940 . S
H101 C117 0.939 . S
H102 C118 0.942 . S
H103 C120 0.940 . S
H104 C121 0.939 . S
H105 C123 0.941 . S
H106 C127 0.939 . S
O107 P96 1.490 . S
H108 C124 0.939 . S
H109 C126 0.940 . S
C110 P96 1.812 . S
C110 C111 1.389 . S
C110 C115 1.391 . S
C111 H97 0.941 . S
C111 C110 1.389 . S
C111 C112 1.397 . S
C112 H98 0.939 . S
C112 C111 1.397 . S
C112 C113 1.378 . S
C113 C112 1.378 . S
C113 C114 1.378 . S
C114 H99 0.940 . S
C114 C113 1.378 . S
C114 C115 1.396 . S
C115 H100 0.940 . S
C115 C110 1.391 . S
C115 C114 1.396 . S
C116 P96 1.803 . S
C116 C117 1.378 . S
C116 C121 1.400 . S
C117 H101 0.939 . S
C117 C116 1.378 . S
C117 C118 1.361 . S
C118 H102 0.942 . S
C118 C117 1.361 . S
C118 C119 1.369 . S
C119 C118 1.369 . S
C119 C120 1.404 . S
C120 H103 0.940 . S
C120 C119 1.404 . S
C120 C121 1.389 . S
C121 H104 0.939 . S
C121 C116 1.400 . S
C121 C120 1.389 . S
C122 P96 1.819 . S
C122 C123 1.391 . S
C122 C127 1.391 . S
C123 H105 0.941 . S
C123 C122 1.391 . S
C123 C124 1.396 . S
C124 H108 0.939 . S
C124 C123 1.396 . S
C124 C125 1.397 . S
C125 C124 1.397 . S
C125 C126 1.385 . S
C126 H109 0.940 . S
C126 C125 1.385 . S
C126 C127 1.388 . S
C127 H106 0.939 . S
C127 C122 1.391 . S
C127 C126 1.388 . S
P128 O139 1.490 . S
P128 C142 1.812 1_554 S
P128 C148 1.803 . S
P128 C154 1.819 . S
H129 C143 0.941 . S
H130 C144 0.939 . S
H131 C146 0.940 . S
H132 C147 0.940 . S
H133 C149 0.939 . S
H134 C150 0.942 . S
H135 C152 0.940 . S
H136 C153 0.939 . S
H137 C155 0.941 . S
H138 C159 0.939 . S
O139 P128 1.490 . S
H140 C156 0.939 . S
H141 C158 0.940 . S
C142 P128 1.812 1_556 S
C142 C143 1.389 . S
C142 C147 1.391 . S
C143 H129 0.941 . S
C143 C142 1.389 . S
C143 C144 1.397 . S
C144 H130 0.939 . S
C144 C143 1.397 . S
C144 C145 1.378 . S
C145 C144 1.378 . S
C145 C146 1.378 . S
C146 H131 0.940 . S
C146 C145 1.378 . S
C146 C147 1.396 . S
C147 H132 0.940 . S
C147 C142 1.391 . S
C147 C146 1.396 . S
C148 P128 1.803 . S
C148 C149 1.378 . S
C148 C153 1.400 . S
C149 H133 0.939 . S
C149 C148 1.378 . S
C149 C150 1.361 . S
C150 H134 0.942 . S
C150 C149 1.361 . S
C150 C151 1.369 . S
C151 C150 1.369 . S
C151 C152 1.404 . S
C152 H135 0.940 . S
C152 C151 1.404 . S
C152 C153 1.389 . S
C153 H136 0.939 . S
C153 C148 1.400 . S
C153 C152 1.389 . S
C154 P128 1.819 . S
C154 C155 1.391 . S
C154 C159 1.391 . S
C155 H137 0.941 . S
C155 C154 1.391 . S
C155 C156 1.396 . S
C156 H140 0.939 . S
C156 C155 1.396 . S
C156 C157 1.397 . S
C157 C156 1.397 . S
C157 C158 1.385 . S
C158 H141 0.940 . S
C158 C157 1.385 . S
C158 C159 1.388 . S
C159 H138 0.939 . S
C159 C154 1.391 . S
C159 C158 1.388 . S
P160 O171 1.490 . S
P160 C174 1.812 1_554 S
P160 C180 1.803 . S
P160 C186 1.819 . S
H161 C175 0.941 . S
H162 C176 0.939 . S
H163 C178 0.940 . S
H164 C179 0.945 . S
H165 C181 0.939 . S
H166 C182 0.942 . S
H167 C184 0.940 . S
H168 C185 0.954 . S
H169 C187 0.941 . S
H170 C191 0.932 1_655 S
O171 P160 1.490 . S
H172 C188 0.939 . S
H173 C190 0.940 . S
C174 P160 1.812 1_556 S
C174 C175 1.389 . S
C174 C179 1.383 1_455 S
C175 H161 0.941 . S
C175 C174 1.389 . S
C175 C176 1.397 . S
C176 H162 0.939 . S
C176 C175 1.397 . S
C176 C177 1.378 . S
C177 C176 1.378 . S
C177 C178 1.378 1_455 S
C178 H163 0.940 . S
C178 C177 1.378 1_655 S
C178 C179 1.400 . S
C179 H164 0.945 . S
C179 C174 1.383 1_655 S
C179 C178 1.400 . S
C180 P160 1.803 . S
C180 C181 1.378 . S
C180 C185 1.376 1_455 S
C181 H165 0.939 . S
C181 C180 1.378 . S
C181 C182 1.361 . S
C182 H166 0.942 . S
C182 C181 1.361 . S
C182 C183 1.369 . S
C183 C182 1.369 . S
C183 C184 1.404 1_455 S
C184 H167 0.940 . S
C184 C183 1.404 1_655 S
C184 C185 1.399 . S
C185 H168 0.954 . S
C185 C180 1.376 1_655 S
C185 C184 1.399 . S
C186 P160 1.819 . S
C186 C187 1.391 . S
C186 C191 1.391 . S
C187 H169 0.941 . S
C187 C186 1.391 . S
C187 C188 1.396 . S
C188 H172 0.939 . S
C188 C187 1.396 . S
C188 C189 1.397 . S
C189 C188 1.397 . S
C189 C190 1.385 1_455 S
C190 H173 0.940 . S
C190 C189 1.385 1_655 S
C190 C191 1.388 1_655 S
C191 H170 0.932 1_455 S
C191 C186 1.391 . S
C191 C190 1.388 1_455 S
P192 O203 1.490 . S
P192 C206 1.812 1_554 S
P192 C212 1.803 . S
P192 C218 1.819 . S
H193 C207 0.941 . S
H194 C208 0.939 . S
H195 C210 0.940 . S
H196 C211 0.945 . S
H197 C213 0.939 . S
H198 C214 0.942 . S
H199 C216 0.940 . S
H200 C217 0.954 . S
H201 C219 0.941 . S
H202 C223 0.932 1_565 S
O203 P192 1.490 . S
H204 C220 0.939 . S
H205 C222 0.940 . S
C206 P192 1.812 1_556 S
C206 C207 1.389 . S
C206 C211 1.383 1_545 S
C207 H193 0.941 . S
C207 C206 1.389 . S
C207 C208 1.397 . S
C208 H194 0.939 . S
C208 C207 1.397 . S
C208 C209 1.378 . S
C209 C208 1.378 . S
C209 C210 1.378 1_545 S
C210 H195 0.940 . S
C210 C209 1.378 1_565 S
C210 C211 1.400 . S
C211 H196 0.945 . S
C211 C206 1.383 1_565 S
C211 C210 1.400 . S
C212 P192 1.803 . S
C212 C213 1.378 . S
C212 C217 1.376 1_545 S
C213 H197 0.939 . S
C213 C212 1.378 . S
C213 C214 1.361 . S
C214 H198 0.942 . S
C214 C213 1.361 . S
C214 C215 1.369 . S
C215 C214 1.369 . S
C215 C216 1.404 1_545 S
C216 H199 0.940 . S
C216 C215 1.404 1_565 S
C216 C217 1.398 . S
C217 H200 0.954 . S
C217 C212 1.376 1_565 S
C217 C216 1.398 . S
C218 P192 1.819 . S
C218 C219 1.391 . S
C218 C223 1.391 . S
C219 H201 0.941 . S
C219 C218 1.391 . S
C219 C220 1.396 . S
C220 H204 0.939 . S
C220 C219 1.396 . S
C220 C221 1.397 . S
C221 C220 1.397 . S
C221 C222 1.385 1_545 S
C222 H205 0.940 . S
C222 C221 1.385 1_565 S
C222 C223 1.388 1_565 S
C223 H202 0.932 1_545 S
C223 C218 1.391 . S
C223 C222 1.388 1_545 S
P224 O235 1.490 . S
P224 C238 1.812 1_554 S
P224 C244 1.803 . S
P224 C250 1.819 . S
H225 C239 0.941 . S
H226 C240 0.939 . S
H227 C242 0.940 . S
H228 C243 0.940 . S
H229 C245 0.939 . S
H230 C246 0.942 . S
H231 C248 0.940 . S
H232 C249 0.942 . S
H233 C251 0.941 . S
H234 C255 0.939 . S
O235 P224 1.490 . S
H236 C252 0.939 . S
H237 C254 0.940 . S
C238 P224 1.812 1_556 S
C238 C239 1.389 . S
C238 C243 1.391 . S
C239 H225 0.941 . S
C239 C238 1.389 . S
C239 C240 1.397 . S
C240 H226 0.939 . S
C240 C239 1.397 . S
C240 C241 1.378 . S
C241 C240 1.378 . S
C241 C242 1.378 . S
C242 H227 0.940 . S
C242 C241 1.378 . S
C242 C243 1.396 . S
C243 H228 0.940 . S
C243 C238 1.391 . S
C243 C242 1.396 . S
C244 P224 1.803 . S
C244 C245 1.378 . S
C244 C249 1.400 . S
C245 H229 0.939 . S
C245 C244 1.378 . S
C245 C246 1.361 . S
C246 H230 0.942 . S
C246 C245 1.361 . S
C246 C247 1.369 . S
C247 C246 1.369 . S
C247 C248 1.404 . S
C248 H231 0.940 . S
C248 C247 1.404 . S
C248 C249 1.389 . S
C249 H232 0.942 . S
C249 C244 1.400 . S
C249 C248 1.389 . S
C250 P224 1.819 . S
C250 C251 1.391 . S
C250 C255 1.391 . S
C251 H233 0.941 . S
C251 C250 1.391 . S
C251 C252 1.396 . S
C252 H236 0.939 . S
C252 C251 1.396 . S
C252 C253 1.397 . S
C253 C252 1.397 . S
C253 C254 1.385 . S
C254 H237 0.940 . S
C254 C253 1.385 . S
C254 C255 1.388 . S
C255 H234 0.939 . S
C255 C250 1.391 . S
C255 C254 1.388 . S
Ho256 C259 2.811 . S
Ho256 O276 2.322 . S
Ho256 O278 2.378 . S
Ho256 O279 2.524 . S
Ho256 O280 2.381 . S
Ho256 O281 2.669 1_565 S
Ho256 O283 2.346 1_565 S
Ho256 O287 2.305 1_455 S
Ho257 C268 2.811 . S
Ho257 O277 2.346 1_545 S
Ho257 O281 2.305 1_655 S
Ho257 O282 2.322 . S
Ho257 O284 2.378 . S
Ho257 O285 2.524 . S
Ho257 O286 2.381 . S
Ho257 O287 2.669 1_545 S
C258 O276 1.259 1_655 S
C258 O277 1.268 . S
C259 Ho256 2.811 . S
C259 C260 1.488 1_556 S
C259 O278 1.215 . S
C259 O279 1.289 . S
C260 C259 1.488 1_554 S
C260 C261 1.348 . S
C260 C265 1.413 . S
C261 C260 1.348 . S
C261 C262 1.442 . S
C261 H288 0.930 1_455 S
C262 C261 1.442 . S
C262 C263 1.381 . S
C262 H289 0.931 . S
C263 C262 1.381 . S
C263 C264 1.321 . S
C264 C263 1.321 . S
C264 C265 1.403 . S
C264 H290 0.934 . S
C265 C260 1.413 . S
C265 C264 1.403 . S
C265 H291 0.930 1_554 S
C266 O280 1.275 . S
C266 O281 1.256 1_565 S
C267 O282 1.259 1_455 S
C267 O283 1.268 . S
C268 Ho257 2.811 . S
C268 C269 1.488 . S
C268 O284 1.215 . S
C268 O285 1.289 . S
C269 C268 1.488 . S
C269 C270 1.348 . S
C269 C274 1.413 . S
C270 C269 1.348 . S
C270 C271 1.442 . S
C270 H292 0.930 1_655 S
C271 C270 1.442 . S
C271 C272 1.381 . S
C271 H293 0.931 . S
C272 C271 1.381 . S
C272 C273 1.321 . S
C273 C272 1.321 . S
C273 C274 1.403 . S
C273 H294 0.934 . S
C274 C269 1.413 . S
C274 C273 1.403 . S
C274 H295 0.930 . S
C275 O286 1.275 . S
C275 O287 1.256 1_545 S
O276 Ho256 2.322 . S
O276 C258 1.259 1_455 S
O277 Ho257 2.346 1_565 S
O277 C258 1.268 . S
O278 Ho256 2.378 . S
O278 C259 1.215 . S
O279 Ho256 2.524 . S
O279 C259 1.289 . S
O280 Ho256 2.381 . S
O280 C266 1.275 . S
O281 Ho256 2.669 1_545 S
O281 Ho257 2.305 1_455 S
O281 C266 1.256 1_545 S
O282 Ho257 2.322 . S
O282 C267 1.259 1_655 S
O283 Ho256 2.346 1_545 S
O283 C267 1.268 . S
O284 Ho257 2.378 . S
O284 C268 1.215 . S
O285 Ho257 2.524 . S
O285 C268 1.289 . S
O286 Ho257 2.381 . S
O286 C275 1.275 . S
O287 Ho256 2.305 1_655 S
O287 Ho257 2.669 1_565 S
O287 C275 1.256 1_565 S
H288 C261 0.930 1_655 S
H289 C262 0.931 . S
H290 C264 0.934 . S
H291 C265 0.930 1_556 S
H292 C270 0.930 1_455 S
H293 C271 0.931 . S
H294 C273 0.934 . S
H295 C274 0.930 . S
Ho296 C299 2.811 . S
Ho296 O316 2.322 . S
Ho296 O318 2.378 . S
Ho296 O319 2.524 . S
Ho296 O320 2.381 . S
Ho296 O321 2.669 . S
Ho296 O323 2.346 . S
Ho296 O327 2.305 1_545 S
Ho297 C308 2.811 . S
Ho297 O317 2.346 . S
Ho297 O321 2.305 1_565 S
Ho297 O322 2.322 . S
Ho297 O324 2.378 . S
Ho297 O325 2.524 . S
Ho297 O326 2.381 . S
Ho297 O327 2.669 . S
C298 O316 1.259 1_565 S
C298 O317 1.268 . S
C299 Ho296 2.811 . S
C299 C300 1.488 1_556 S
C299 O318 1.215 . S
C299 O319 1.289 . S
C300 C299 1.488 1_554 S
C300 C301 1.348 . S
C300 C305 1.413 . S
C301 C300 1.348 . S
C301 C302 1.442 . S
C301 H328 0.930 1_545 S
C302 C301 1.442 . S
C302 C303 1.381 . S
C302 H329 0.931 . S
C303 C302 1.381 . S
C303 C304 1.321 . S
C304 C303 1.321 . S
C304 C305 1.403 . S
C304 H330 0.934 . S
C305 C300 1.413 . S
C305 C304 1.403 . S
C305 H331 0.930 1_554 S
C306 O320 1.275 . S
C306 O321 1.256 . S
C307 O322 1.259 1_545 S
C307 O323 1.268 . S
C308 Ho297 2.811 . S
C308 C309 1.488 . S
C308 O324 1.215 . S
C308 O325 1.289 . S
C309 C308 1.488 . S
C309 C310 1.348 . S
C309 C314 1.413 . S
C310 C309 1.348 . S
C310 C311 1.442 . S
C310 H332 0.930 1_565 S
C311 C310 1.442 . S
C311 C312 1.381 . S
C311 H333 0.931 . S
C312 C311 1.381 . S
C312 C313 1.321 . S
C313 C312 1.321 . S
C313 C314 1.403 . S
C313 H334 0.934 . S
C314 C309 1.413 . S
C314 C313 1.403 . S
C314 H335 0.930 . S
C315 O326 1.275 . S
C315 O327 1.256 . S
O316 Ho296 2.322 . S
O316 C298 1.259 1_545 S
O317 Ho297 2.346 . S
O317 C298 1.268 . S
O318 Ho296 2.378 . S
O318 C299 1.215 . S
O319 Ho296 2.524 . S
O319 C299 1.289 . S
O320 Ho296 2.381 . S
O320 C306 1.275 . S
O321 Ho296 2.669 . S
O321 Ho297 2.305 1_545 S
O321 C306 1.256 . S
O322 Ho297 2.322 . S
O322 C307 1.259 1_565 S
O323 Ho296 2.346 . S
O323 C307 1.268 . S
O324 Ho297 2.378 . S
O324 C308 1.215 . S
O325 Ho297 2.524 . S
O325 C308 1.289 . S
O326 Ho297 2.381 . S
O326 C315 1.275 . S
O327 Ho296 2.305 1_565 S
O327 Ho297 2.669 . S
O327 C315 1.256 . S
H328 C301 0.930 1_565 S
H329 C302 0.931 . S
H330 C304 0.934 . S
H331 C305 0.930 1_556 S
H332 C310 0.930 1_545 S
H333 C311 0.931 . S
H334 C313 0.934 . S
H335 C314 0.930 . S
Ho336 C339 2.811 . S
Ho336 O356 2.322 . S
Ho336 O358 2.378 . S
Ho336 O359 2.524 . S
Ho336 O360 2.381 . S
Ho336 O361 2.669 . S
Ho336 O363 2.346 . S
Ho336 O367 2.305 . S
Ho337 C348 2.811 . S
Ho337 O357 2.346 . S
Ho337 O361 2.305 . S
Ho337 O362 2.322 . S
Ho337 O364 2.378 . S
Ho337 O365 2.524 . S
Ho337 O366 2.381 . S
Ho337 O367 2.669 . S
C338 O356 1.259 . S
C338 O357 1.268 . S
C339 Ho336 2.811 . S
C339 C340 1.488 1_556 S
C339 O358 1.215 . S
C339 O359 1.289 . S
C340 C339 1.488 1_554 S
C340 C341 1.348 . S
C340 C345 1.413 . S
C341 C340 1.348 . S
C341 C342 1.442 . S
C341 H368 0.930 . S
C342 C341 1.442 . S
C342 C343 1.381 . S
C342 H369 0.931 . S
C343 C342 1.381 . S
C343 C344 1.321 . S
C344 C343 1.321 . S
C344 C345 1.403 . S
C344 H370 0.934 . S
C345 C340 1.413 . S
C345 C344 1.403 . S
C345 H371 0.930 1_554 S
C346 O360 1.275 . S
C346 O361 1.256 . S
C347 O362 1.259 . S
C347 O363 1.268 . S
C348 Ho337 2.811 . S
C348 C349 1.488 . S
C348 O364 1.215 . S
C348 O365 1.289 . S
C349 C348 1.488 . S
C349 C350 1.348 . S
C349 C354 1.413 . S
C350 C349 1.348 . S
C350 C351 1.442 . S
C350 H372 0.930 . S
C351 C350 1.442 . S
C351 C352 1.381 . S
C351 H373 0.931 . S
C352 C351 1.381 . S
C352 C353 1.321 . S
C353 C352 1.321 . S
C353 C354 1.403 . S
C353 H374 0.934 . S
C354 C349 1.413 . S
C354 C353 1.403 . S
C354 H375 0.930 . S
C355 O366 1.275 . S
C355 O367 1.256 . S
O356 Ho336 2.322 . S
O356 C338 1.259 . S
O357 Ho337 2.346 . S
O357 C338 1.268 . S
O358 Ho336 2.378 . S
O358 C339 1.215 . S
O359 Ho336 2.524 . S
O359 C339 1.289 . S
O360 Ho336 2.381 . S
O360 C346 1.275 . S
O361 Ho336 2.669 . S
O361 Ho337 2.305 . S
O361 C346 1.256 . S
O362 Ho337 2.322 . S
O362 C347 1.259 . S
O363 Ho336 2.346 . S
O363 C347 1.268 . S
O364 Ho337 2.378 . S
O364 C348 1.215 . S
O365 Ho337 2.524 . S
O365 C348 1.289 . S
O366 Ho337 2.381 . S
O366 C355 1.275 . S
O367 Ho336 2.305 . S
O367 Ho337 2.669 . S
O367 C355 1.256 . S
H368 C341 0.930 . S
H369 C342 0.931 . S
H370 C344 0.934 . S
H371 C345 0.930 1_556 S
H372 C350 0.930 . S
H373 C351 0.931 . S
H374 C353 0.934 . S
H375 C354 0.930 . S
Ho376 C379 2.811 . S
Ho376 O396 2.322 . S
Ho376 O398 2.378 . S
Ho376 O399 2.524 . S
Ho376 O400 2.381 . S
Ho376 O401 2.669 1_655 S
Ho376 O403 2.346 1_655 S
Ho376 O407 2.305 . S
Ho377 C388 2.811 . S
Ho377 O397 2.346 1_455 S
Ho377 O401 2.305 . S
Ho377 O402 2.322 . S
Ho377 O404 2.378 . S
Ho377 O405 2.524 . S
Ho377 O406 2.381 . S
Ho377 O407 2.669 1_455 S
C378 O396 1.259 . S
C378 O397 1.268 . S
C379 Ho376 2.811 . S
C379 C380 1.488 1_556 S
C379 O398 1.215 . S
C379 O399 1.289 . S
C380 C379 1.488 1_554 S
C380 C381 1.348 . S
C380 C385 1.413 . S
C381 C380 1.348 . S
C381 C382 1.442 . S
C381 H408 0.930 . S
C382 C381 1.442 . S
C382 C383 1.381 . S
C382 H409 0.931 . S
C383 C382 1.381 . S
C383 C384 1.321 . S
C384 C383 1.321 . S
C384 C385 1.403 . S
C384 H410 0.934 . S
C385 C380 1.413 . S
C385 C384 1.403 . S
C385 H411 0.930 1_554 S
C386 O400 1.280 . S
C386 O401 1.253 1_655 S
C387 O402 1.259 . S
C387 O403 1.268 . S
C388 Ho377 2.811 . S
C388 C389 1.488 . S
C388 O404 1.215 . S
C388 O405 1.289 . S
C389 C388 1.488 . S
C389 C390 1.348 . S
C389 C394 1.413 . S
C390 C389 1.348 . S
C390 C391 1.442 . S
C390 H412 0.930 . S
C391 C390 1.442 . S
C391 C392 1.381 . S
C391 H413 0.931 . S
C392 C391 1.381 . S
C392 C393 1.321 . S
C393 C392 1.321 . S
C393 C394 1.403 . S
C393 H414 0.934 . S
C394 C389 1.413 . S
C394 C393 1.403 . S
C394 H415 0.930 . S
C395 O406 1.284 . S
C395 O407 1.251 1_455 S
O396 Ho376 2.322 . S
O396 C378 1.259 . S
O397 Ho377 2.346 1_655 S
O397 C378 1.268 . S
O398 Ho376 2.378 . S
O398 C379 1.215 . S
O399 Ho376 2.524 . S
O399 C379 1.289 . S
O400 Ho376 2.381 . S
O400 C386 1.280 . S
O401 Ho376 2.669 1_455 S
O401 Ho377 2.305 . S
O401 C386 1.253 1_455 S
O402 Ho377 2.322 . S
O402 C387 1.259 . S
O403 Ho376 2.346 1_455 S
O403 C387 1.268 . S
O404 Ho377 2.378 . S
O404 C388 1.215 . S
O405 Ho377 2.524 . S
O405 C388 1.289 . S
O406 Ho377 2.381 . S
O406 C395 1.284 . S
O407 Ho376 2.305 . S
O407 Ho377 2.669 1_655 S
O407 C395 1.251 1_655 S
H408 C381 0.930 . S
H409 C382 0.931 . S
H410 C384 0.934 . S
H411 C385 0.930 1_556 S
H412 C390 0.930 . S
H413 C391 0.931 . S
H414 C393 0.934 . S
H415 C394 0.930 . S
C416 C417 1.371 . S
C416 C418 1.419 . S
C416 H420 0.930 . S
C417 C416 1.371 . S
C417 C426 1.427 1_545 S
C418 C416 1.419 . S
C418 C419 1.373 . S
C418 H421 0.929 . S
C419 C418 1.373 . S
C419 C425 1.418 1_545 S
H420 C416 0.930 . S
H421 C418 0.929 . S
S422 N423 1.613 . S
S422 N424 1.610 . S
N423 S422 1.613 . S
N423 C426 1.350 . S
N424 S422 1.610 . S
N424 C425 1.351 . S
C425 C419 1.418 1_565 S
C425 N424 1.351 . S
C425 C426 1.434 . S
C426 C417 1.427 1_565 S
C426 N423 1.350 . S
C426 C425 1.434 . S
C427 C428 1.369 . S
C427 C429 1.419 . S
C427 H431 0.930 . S
C428 C427 1.369 . S
C428 C437 1.429 . S
C429 C427 1.419 . S
C429 C430 1.363 . S
C429 H432 0.929 . S
C430 C429 1.363 . S
C430 C436 1.428 . S
H431 C427 0.930 . S
H432 C429 0.929 . S
S433 N434 1.613 . S
S433 N435 1.610 . S
N434 S433 1.613 . S
N434 C437 1.350 . S
N435 S433 1.610 . S
N435 C436 1.351 . S
C436 C430 1.428 . S
C436 N435 1.351 . S
C436 C437 1.434 . S
C437 C428 1.429 . S
C437 N434 1.350 . S
C437 C436 1.434 . S
C438 C439 1.369 . S
C438 C440 1.419 . S
C438 H442 0.930 . S
C439 C438 1.369 . S
C439 C448 1.429 . S
C440 C438 1.419 . S
C440 C441 1.363 . S
C440 H443 0.929 . S
C441 C440 1.363 . S
C441 C447 1.428 . S
H442 C438 0.930 . S
H443 C440 0.929 . S
S444 N445 1.613 . S
S444 N446 1.610 . S
N445 S444 1.613 . S
N445 C448 1.350 . S
N446 S444 1.610 . S
N446 C447 1.351 . S
C447 C441 1.428 . S
C447 N446 1.351 . S
C447 C448 1.434 . S
C448 C439 1.429 . S
C448 N445 1.350 . S
C448 C447 1.434 . S
C449 C450 1.369 1_655 S
C449 C451 1.419 . S
C449 H453 0.930 . S
C450 C449 1.369 1_455 S
C450 C459 1.429 . S
C451 C449 1.419 . S
C451 C452 1.363 1_655 S
C451 H454 0.929 . S
C452 C451 1.363 1_455 S
C452 C458 1.428 . S
H453 C449 0.930 . S
H454 C451 0.929 . S
S455 N456 1.613 . S
S455 N457 1.610 . S
N456 S455 1.613 . S
N456 C459 1.350 . S
N457 S455 1.610 . S
N457 C458 1.351 . S
C458 C452 1.428 . S
C458 N457 1.351 . S
C458 C459 1.434 . S
C459 C450 1.429 . S
C459 N456 1.350 . S
C459 C458 1.434 . S
C460 C461 1.349 1_545 S
C460 C462 1.419 . S
C460 H464 0.930 . S
C461 C460 1.349 1_565 S
C461 C470 1.450 . S
C462 C460 1.419 . S
C462 C463 1.363 1_545 S
C462 H465 0.929 . S
C463 C462 1.363 1_565 S
C463 C469 1.428 . S
H464 C460 0.930 . S
H465 C462 0.929 . S
S466 N467 1.613 . S
S466 N468 1.610 . S
N467 S466 1.613 . S
N467 C470 1.350 . S
N468 S466 1.610 . S
N468 C469 1.351 . S
C469 C463 1.428 . S
C469 N468 1.351 . S
C469 C470 1.434 . S
C470 C461 1.450 . S
C470 N467 1.350 . S
C470 C469 1.434 . S
C471 C472 1.369 . S
C471 C473 1.419 . S
C471 H475 0.930 . S
C472 C471 1.369 . S
C472 C481 1.429 . S
C473 C471 1.419 . S
C473 C474 1.363 . S
C473 H476 0.929 . S
C474 C473 1.363 . S
C474 C480 1.428 . S
H475 C471 0.930 . S
H476 C473 0.929 . S
S477 N478 1.613 . S
S477 N479 1.610 . S
N478 S477 1.613 . S
N478 C481 1.350 . S
N479 S477 1.610 . S
N479 C480 1.351 . S
C480 C474 1.428 . S
C480 N479 1.351 . S
C480 C481 1.434 . S
C481 C472 1.429 . S
C481 N478 1.350 . S
C481 C480 1.434 . S
C482 C483 1.369 . S
C482 C484 1.419 . S
C482 H486 0.930 . S
C483 C482 1.369 . S
C483 C492 1.429 . S
C484 C482 1.419 . S
C484 C485 1.363 . S
C484 H487 0.929 . S
C485 C484 1.363 . S
C485 C491 1.428 . S
H486 C482 0.930 . S
H487 C484 0.929 . S
S488 N489 1.613 . S
S488 N490 1.610 . S
N489 S488 1.613 . S
N489 C492 1.350 . S
N490 S488 1.610 . S
N490 C491 1.351 . S
C491 C485 1.428 . S
C491 N490 1.351 . S
C491 C492 1.434 . S
C492 C483 1.429 . S
C492 N489 1.350 . S
C492 C491 1.434 . S
C493 C494 1.369 1_455 S
C493 C495 1.419 . S
C493 H497 0.930 . S
C494 C493 1.369 1_655 S
C494 C503 1.429 . S
C495 C493 1.419 . S
C495 C496 1.363 1_455 S
C495 H498 0.929 . S
C496 C495 1.363 1_655 S
C496 C502 1.428 . S
H497 C493 0.930 . S
H498 C495 0.929 . S
S499 N500 1.613 . S
S499 N501 1.610 . S
N500 S499 1.613 . S
N500 C503 1.350 . S
N501 S499 1.610 . S
N501 C502 1.351 . S
C502 C496 1.428 . S
C502 N501 1.351 . S
C502 C503 1.434 . S
C503 C494 1.429 . S
C503 N500 1.350 . S
C503 C502 1.434 . S
C504 C505 1.369 . S
C504 C506 1.419 . S
C504 H508 0.930 1_655 S
C505 C504 1.369 . S
C505 C514 1.429 . S
C506 C504 1.419 . S
C506 C507 1.363 . S
C506 H509 0.929 . S
C507 C506 1.363 . S
C507 C513 1.428 . S
H508 C504 0.930 1_455 S
H509 C506 0.929 . S
S510 N511 1.613 . S
S510 N512 1.610 . S
N511 S510 1.613 . S
N511 C514 1.350 . S
N512 S510 1.610 . S
N512 C513 1.351 . S
C513 C507 1.428 . S
C513 N512 1.351 . S
C513 C514 1.434 . S
C514 C505 1.429 . S
C514 N511 1.350 . S
C514 C513 1.434 . S
C515 C516 1.369 . S
C515 C517 1.419 . S
C515 H519 0.930 . S
C516 C515 1.369 . S
C516 C525 1.429 . S
C517 C515 1.419 . S
C517 C518 1.363 . S
C517 H520 0.929 . S
C518 C517 1.363 . S
C518 C524 1.428 . S
H519 C515 0.930 . S
H520 C517 0.929 . S
S521 N522 1.613 . S
S521 N523 1.610 . S
N522 S521 1.613 . S
N522 C525 1.350 . S
N523 S521 1.610 . S
N523 C524 1.351 . S
C524 C518 1.428 . S
C524 N523 1.351 . S
C524 C525 1.434 . S
C525 C516 1.429 . S
C525 N522 1.350 . S
C525 C524 1.434 . S
C526 C527 1.369 . S
C526 C528 1.419 . S
C526 H530 0.930 . S
C527 C526 1.369 . S
C527 C536 1.429 . S
C528 C526 1.419 . S
C528 C529 1.363 . S
C528 H531 0.929 . S
C529 C528 1.363 . S
C529 C535 1.428 . S
H530 C526 0.930 . S
H531 C528 0.929 . S
S532 N533 1.613 . S
S532 N534 1.610 . S
N533 S532 1.613 . S
N533 C536 1.350 . S
N534 S532 1.610 . S
N534 C535 1.351 . S
C535 C529 1.428 . S
C535 N534 1.351 . S
C535 C536 1.434 . S
C536 C527 1.429 . S
C536 N533 1.350 . S
C536 C535 1.434 . S
C537 C538 1.369 . S
C537 C539 1.419 . S
C537 H541 0.930 . S
C538 C537 1.369 . S
C538 C547 1.429 . S
C539 C537 1.419 . S
C539 C540 1.363 . S
C539 H542 0.929 . S
C540 C539 1.363 . S
C540 C546 1.428 . S
H541 C537 0.930 . S
H542 C539 0.929 . S
S543 N544 1.613 . S
S543 N545 1.610 . S
N544 S543 1.613 . S
N544 C547 1.350 . S
N545 S543 1.610 . S
N545 C546 1.351 . S
C546 C540 1.428 . S
C546 N545 1.351 . S
C546 C547 1.434 . S
C547 C538 1.429 . S
C547 N544 1.350 . S
C547 C546 1.434 . S
C548 C549 1.369 . S
C548 C550 1.419 . S
C548 H552 0.930 1_455 S
C549 C548 1.369 . S
C549 C558 1.429 . S
C550 C548 1.419 . S
C550 C551 1.363 . S
C550 H553 0.929 . S
C551 C550 1.363 . S
C551 C557 1.428 . S
H552 C548 0.930 1_655 S
H553 C550 0.929 . S
S554 N555 1.613 . S
S554 N556 1.610 . S
N555 S554 1.613 . S
N555 C558 1.350 . S
N556 S554 1.610 . S
N556 C557 1.351 . S
C557 C551 1.428 . S
C557 N556 1.351 . S
C557 C558 1.434 . S
C558 C549 1.429 . S
C558 N555 1.350 . S
C558 C557 1.434 . S
C559 C560 1.369 1_565 S
C559 C561 1.419 1_565 S
C559 H563 0.930 . S
C560 C559 1.369 1_545 S
C560 C569 1.429 . S
C561 C559 1.419 1_545 S
C561 C562 1.363 . S
C561 H564 0.929 . S
C562 C561 1.363 . S
C562 C568 1.428 . S
H563 C559 0.930 . S
H564 C561 0.929 . S
S565 N566 1.613 . S
S565 N567 1.610 . S
N566 S565 1.613 . S
N566 C569 1.350 . S
N567 S565 1.610 . S
N567 C568 1.351 . S
C568 C562 1.428 . S
C568 N567 1.351 . S
C568 C569 1.434 . S
C569 C560 1.429 . S
C569 N566 1.350 . S
C569 C568 1.434 . S
C570 C571 1.369 . S
C570 C572 1.419 . S
C570 H574 0.930 . S
C571 C570 1.369 . S
C571 C580 1.429 . S
C572 C570 1.419 . S
C572 C573 1.363 . S
C572 H575 0.929 . S
C573 C572 1.363 . S
C573 C579 1.428 . S
H574 C570 0.930 . S
H575 C572 0.929 . S
S576 N577 1.613 . S
S576 N578 1.610 . S
N577 S576 1.613 . S
N577 C580 1.350 . S
N578 S576 1.610 . S
N578 C579 1.351 . S
C579 C573 1.428 . S
C579 N578 1.351 . S
C579 C580 1.434 . S
C580 C571 1.429 . S
C580 N577 1.350 . S
C580 C579 1.434 . S
C581 C582 1.369 . S
C581 C583 1.419 . S
C581 H585 0.930 . S
C582 C581 1.369 . S
C582 C591 1.429 . S
C583 C581 1.419 . S
C583 C584 1.363 . S
C583 H586 0.929 . S
C584 C583 1.363 . S
C584 C590 1.428 . S
H585 C581 0.930 . S
H586 C583 0.929 . S
S587 N588 1.613 . S
S587 N589 1.610 . S
N588 S587 1.613 . S
N588 C591 1.350 . S
N589 S587 1.610 . S
N589 C590 1.351 . S
C590 C584 1.428 . S
C590 N589 1.351 . S
C590 C591 1.434 . S
C591 C582 1.429 . S
C591 N588 1.350 . S
C591 C590 1.434 . S
C592 C593 1.369 . S
C592 C594 1.419 . S
C592 H596 0.930 . S
C593 C592 1.369 . S
C593 C602 1.429 1_455 S
C594 C592 1.419 . S
C594 C595 1.363 . S
C594 H597 0.929 . S
C595 C594 1.363 . S
C595 C601 1.428 1_455 S
H596 C592 0.930 . S
H597 C594 0.929 . S
S598 N599 1.613 . S
S598 N600 1.610 . S
N599 S598 1.613 . S
N599 C602 1.350 . S
N600 S598 1.610 . S
N600 C601 1.351 . S
C601 C595 1.428 1_655 S
C601 N600 1.351 . S
C601 C602 1.434 . S
C602 C593 1.429 1_655 S
C602 N599 1.350 . S
C602 C601 1.434 . S
C603 C604 1.369 . S
C603 C605 1.419 . S
C603 H607 0.930 . S
C604 C603 1.369 . S
C604 C613 1.429 1_545 S
C605 C603 1.419 . S
C605 C606 1.363 . S
C605 H608 0.929 . S
C606 C605 1.363 . S
C606 C612 1.428 1_545 S
H607 C603 0.930 . S
H608 C605 0.929 . S
S609 N610 1.613 . S
S609 N611 1.610 . S
N610 S609 1.613 . S
N610 C613 1.350 . S
N611 S609 1.610 . S
N611 C612 1.351 . S
C612 C606 1.428 1_565 S
C612 N611 1.351 . S
C612 C613 1.434 . S
C613 C604 1.429 1_565 S
C613 N610 1.350 . S
C613 C612 1.434 . S
C614 C615 1.369 . S
C614 C616 1.419 . S
C614 H618 0.930 . S
C615 C614 1.369 . S
C615 C624 1.429 . S
C616 C614 1.419 . S
C616 C617 1.363 . S
C616 H619 0.929 . S
C617 C616 1.363 . S
C617 C623 1.428 . S
H618 C614 0.930 . S
H619 C616 0.929 . S
S620 N621 1.613 . S
S620 N622 1.610 . S
N621 S620 1.613 . S
N621 C624 1.350 . S
N622 S620 1.610 . S
N622 C623 1.351 . S
C623 C617 1.428 . S
C623 N622 1.351 . S
C623 C624 1.434 . S
C624 C615 1.429 . S
C624 N621 1.350 . S
C624 C623 1.434 . S
C625 C626 1.369 . S
C625 C627 1.419 . S
C625 H629 0.930 . S
C626 C625 1.369 . S
C626 C635 1.429 . S
C627 C625 1.419 . S
C627 C628 1.363 . S
C627 H630 0.929 . S
C628 C627 1.363 . S
C628 C634 1.428 . S
H629 C625 0.930 . S
H630 C627 0.929 . S
S631 N632 1.613 . S
S631 N633 1.610 . S
N632 S631 1.613 . S
N632 C635 1.350 . S
N633 S631 1.610 . S
N633 C634 1.351 . S
C634 C628 1.428 . S
C634 N633 1.351 . S
C634 C635 1.434 . S
C635 C626 1.429 . S
C635 N632 1.350 . S
C635 C634 1.434 . S
C636 C637 1.369 1_455 S
C636 C638 1.419 . S
C636 H640 0.930 . S
C637 C636 1.369 1_655 S
C637 C646 1.429 . S
C638 C636 1.419 . S
C638 C639 1.363 1_455 S
C638 H641 0.929 . S
C639 C638 1.363 1_655 S
C639 C645 1.428 . S
H640 C636 0.930 . S
H641 C638 0.929 . S
S642 N643 1.613 . S
S642 N644 1.610 . S
N643 S642 1.613 . S
N643 C646 1.350 . S
N644 S642 1.610 . S
N644 C645 1.351 . S
C645 C639 1.428 . S
C645 N644 1.351 . S
C645 C646 1.434 . S
C646 C637 1.429 . S
C646 N643 1.350 . S
C646 C645 1.434 . S
C647 C648 1.369 . S
C647 C649 1.419 . S
C647 H651 0.930 . S
C648 C647 1.369 . S
C648 C657 1.429 . S
C649 C647 1.419 . S
C649 C650 1.363 . S
C649 H652 0.929 . S
C650 C649 1.363 . S
C650 C656 1.428 . S
H651 C647 0.930 . S
H652 C649 0.929 . S
S653 N654 1.613 1_554 S
S653 N655 1.610 1_554 S
N654 S653 1.613 1_556 S
N654 C657 1.350 . S
N655 S653 1.610 1_556 S
N655 C656 1.351 . S
C656 C650 1.428 . S
C656 N655 1.351 . S
C656 C657 1.434 . S
C657 C648 1.429 . S
C657 N654 1.350 . S
C657 C656 1.434 . S
C658 C659 1.369 . S
C658 C660 1.419 . S
C658 H662 0.930 . S
C659 C658 1.369 . S
C659 C668 1.429 . S
C660 C658 1.419 . S
C660 C661 1.363 . S
C660 H663 0.929 . S
C661 C660 1.363 . S
C661 C667 1.428 . S
H662 C658 0.930 . S
H663 C660 0.929 . S
S664 N665 1.613 . S
S664 N666 1.610 . S
N665 S664 1.613 . S
N665 C668 1.350 . S
N666 S664 1.610 . S
N666 C667 1.351 . S
C667 C661 1.428 . S
C667 N666 1.351 . S
C667 C668 1.434 . S
C668 C659 1.429 . S
C668 N665 1.350 . S
C668 C667 1.434 . S
C669 C670 1.369 . S
C669 C671 1.419 . S
C669 H673 0.930 . S
C670 C669 1.369 . S
C670 C679 1.429 . S
C671 C669 1.419 . S
C671 C672 1.363 . S
C671 H674 0.929 . S
C672 C671 1.363 . S
C672 C678 1.428 . S
H673 C669 0.930 . S
H674 C671 0.929 . S
S675 N676 1.613 . S
S675 N677 1.610 . S
N676 S675 1.613 . S
N676 C679 1.350 . S
N677 S675 1.610 . S
N677 C678 1.351 . S
C678 C672 1.428 . S
C678 N677 1.351 . S
C678 C679 1.434 . S
C679 C670 1.429 . S
C679 N676 1.350 . S
C679 C678 1.434 . S
C417 C215 2.297 . S
C419 C266 2.577 1_545 S
C430 C306 2.596 . S
C428 C247 2.296 . S
C441 C346 2.601 . S
C439 C151 2.305 . S
C452 C386 2.583 1_455 S
C450 C183 2.307 . S
C463 C275 2.580 1_564 S
C461 C87 2.302 1_565 S
C472 C119 2.341 . S
C474 C315 2.595 1_554 S
C483 C23 2.348 . S
C485 C355 2.599 1_554 S
C494 C55 2.317 1_655 S
C496 C395 2.584 1_654 S
C507 C272 0.819 . S
C505 C189 0.853 1_655 S
C518 C312 0.815 . S
C516 C221 0.840 1_565 S
C529 C352 0.786 . S
C527 C253 0.814 . S
C538 C157 0.822 . S
C540 C392 0.779 . S
C549 C61 0.785 . S
C551 C263 0.821 . S
C562 C303 0.820 . S
C560 C93 0.773 . S
C573 C343 0.778 . S
C571 C125 0.792 . S
C582 C29 0.792 . S
C584 C383 0.785 . S
C593 C177 2.836 . S
C595 C267 3.268 . S
C604 C209 2.806 . S
C606 C307 3.240 . S
C617 C347 3.231 . S
C615 C241 2.790 . S
C628 C387 3.263 . S
C626 C145 2.816 . S
C637 C49 2.878 1_655 S
C639 C258 3.277 . S
C650 C298 3.241 . S
C648 C81 2.854 1_565 S
C661 C338 3.233 . S
C659 C113 2.858 . S
C670 C17 2.885 . S
C672 C378 3.267 . S
