# Generated by pormake.
# Topology zzz, (3,6)-cn, num edge types: 1
# Building blocks:
#     Node 0, Type 0, BuildingBlock: CUQRIR_clean_linker_1, # of connection points: 3
#     Node 1, Type 0, BuildingBlock: CUQRIR_clean_linker_1, # of connection points: 3
#     Node 2, Type 0, BuildingBlock: CUQRIR_clean_linker_1, # of connection points: 3
#     Node 3, Type 0, BuildingBlock: CUQRIR_clean_linker_1, # of connection points: 3
#     Node 4, Type 0, BuildingBlock: CUQRIR_clean_linker_1, # of connection points: 3
#     Node 5, Type 0, BuildingBlock: CUQRIR_clean_linker_1, # of connection points: 3
#     Node 6, Type 0, BuildingBlock: CUQRIR_clean_linker_1, # of connection points: 3
#     Node 7, Type 0, BuildingBlock: CUQRIR_clean_linker_1, # of connection points: 3
#     Node 8, Type 1, BuildingBlock: CUKXOW_clean_sbu_0, # of connection points: 6
#     Node 9, Type 1, BuildingBlock: CUKXOW_clean_sbu_0, # of connection points: 6
#     Node 10, Type 1, BuildingBlock: CUKXOW_clean_sbu_0, # of connection points: 6
#     Node 11, Type 1, BuildingBlock: CUKXOW_clean_sbu_0, # of connection points: 6
#     Edge 12, Type (0, 1), BuildingBlock: UVAHIK_clean_linker_0, # of connection points: 2
#     Edge 13, Type (0, 1), BuildingBlock: UVAHIK_clean_linker_0, # of connection points: 2
#     Edge 14, Type (0, 1), BuildingBlock: UVAHIK_clean_linker_0, # of connection points: 2
#     Edge 15, Type (0, 1), BuildingBlock: UVAHIK_clean_linker_0, # of connection points: 2
#     Edge 16, Type (0, 1), BuildingBlock: UVAHIK_clean_linker_0, # of connection points: 2
#     Edge 17, Type (0, 1), BuildingBlock: UVAHIK_clean_linker_0, # of connection points: 2
#     Edge 18, Type (0, 1), BuildingBlock: UVAHIK_clean_linker_0, # of connection points: 2
#     Edge 19, Type (0, 1), BuildingBlock: UVAHIK_clean_linker_0, # of connection points: 2
#     Edge 20, Type (0, 1), BuildingBlock: UVAHIK_clean_linker_0, # of connection points: 2
#     Edge 21, Type (0, 1), BuildingBlock: UVAHIK_clean_linker_0, # of connection points: 2
#     Edge 22, Type (0, 1), BuildingBlock: UVAHIK_clean_linker_0, # of connection points: 2
#     Edge 23, Type (0, 1), BuildingBlock: UVAHIK_clean_linker_0, # of connection points: 2
#     Edge 24, Type (0, 1), BuildingBlock: UVAHIK_clean_linker_0, # of connection points: 2
#     Edge 25, Type (0, 1), BuildingBlock: UVAHIK_clean_linker_0, # of connection points: 2
#     Edge 26, Type (0, 1), BuildingBlock: UVAHIK_clean_linker_0, # of connection points: 2
#     Edge 27, Type (0, 1), BuildingBlock: UVAHIK_clean_linker_0, # of connection points: 2
#     Edge 28, Type (0, 1), BuildingBlock: UVAHIK_clean_linker_0, # of connection points: 2
#     Edge 29, Type (0, 1), BuildingBlock: UVAHIK_clean_linker_0, # of connection points: 2
#     Edge 30, Type (0, 1), BuildingBlock: UVAHIK_clean_linker_0, # of connection points: 2
#     Edge 31, Type (0, 1), BuildingBlock: UVAHIK_clean_linker_0, # of connection points: 2
#     Edge 32, Type (0, 1), BuildingBlock: UVAHIK_clean_linker_0, # of connection points: 2
#     Edge 33, Type (0, 1), BuildingBlock: UVAHIK_clean_linker_0, # of connection points: 2
#     Edge 34, Type (0, 1), BuildingBlock: UVAHIK_clean_linker_0, # of connection points: 2
#     Edge 35, Type (0, 1), BuildingBlock: UVAHIK_clean_linker_0, # of connection points: 2
# Relax obj value: 0.069
# Max RMSD: 0.108
# Mean RMSD: 0.085
data_MOF--net-zzz--node1-CUKXOW_clean_sbu_0--node2-CUQRIR_clean_linker_1--edge1-UVAHIK_clean_linker_0
_symmetry_space_group_name_H-M    P1
_symmetry_Int_Tables_number       1
_symmetry_cell_setting            triclinic
loop_
_symmetry_equiv_pos_as_xyz
'x, y, z'
_cell_length_a     62.502331
_cell_length_b     64.542911
_cell_length_c     18.392594
_cell_angle_alpha  92.963242
_cell_angle_beta   86.89387
_cell_angle_gamma 93.647691
loop_
_atom_site_label
_atom_site_type_symbol
_atom_site_fract_x
_atom_site_fract_y
_atom_site_fract_z
_atom_type_partial_charge
C0 C 0.74523 0.53423 0.15301 0.0
N1 N 0.76679 0.53413 0.14222 0.0
N2 N 0.73602 0.53708 0.0896 0.0
C3 C 0.73309 0.52935 0.22343 0.0
C4 C 0.75278 0.53859 0.03991 0.0
N5 N 0.77147 0.53659 0.07173 0.0
C6 C 0.7506 0.54039 0.95932 0.0
H7 H 0.73435 0.51269 0.2336 0.0
H8 H 0.71591 0.53262 0.22179 0.0
H9 H 0.74027 0.53863 0.26938 0.0
H10 H 0.73936 0.55243 0.9496 0.0
H11 H 0.7439 0.52535 0.93566 0.0
H12 H 0.76623 0.54461 0.93076 0.0
C13 C 0.94184 0.75502 0.06793 0.0
N14 N 0.94296 0.77583 0.06053 0.0
N15 N 0.94447 0.7449 0.00207 0.0
C16 C 0.94004 0.74461 0.13937 0.0
C17 C 0.94715 0.76029 0.95449 0.0
N18 N 0.94625 0.77906 0.98993 0.0
C19 C 0.95328 0.75708 0.87463 0.0
H20 H 0.95635 0.74138 0.15507 0.0
H21 H 0.93052 0.72956 0.13413 0.0
H22 H 0.93245 0.75464 0.18294 0.0
H23 H 0.9492 0.74085 0.85479 0.0
H24 H 0.97082 0.76056 0.8658 0.0
H25 H 0.94494 0.76786 0.84239 0.0
C26 C 0.74605 0.95904 0.13012 0.0
N27 N 0.72473 0.96037 0.12521 0.0
N28 N 0.75583 0.95706 0.06279 0.0
C29 C 0.75748 0.96154 0.20004 0.0
C30 C 0.73962 0.95741 0.01691 0.0
N31 N 0.7207 0.95954 0.05495 0.0
C32 C 0.74262 0.95746 0.93515 0.0
H33 H 0.75947 0.97833 0.21618 0.0
H34 H 0.77355 0.9551 0.19347 0.0
H35 H 0.74782 0.9537 0.24421 0.0
H36 H 0.75334 0.94519 0.91467 0.0
H37 H 0.75035 0.97265 0.91955 0.0
H38 H 0.72713 0.95475 0.90846 0.0
C39 C 0.56758 0.7584 0.14391 0.0
N40 N 0.5656 0.73747 0.13381 0.0
N41 N 0.5652 0.76756 0.08046 0.0
C42 C 0.57198 0.76991 0.2151 0.0
C43 C 0.56139 0.75146 0.03174 0.0
N44 N 0.56175 0.73319 0.06414 0.0
C45 C 0.55503 0.7537 0.95483 0.0
H46 H 0.55651 0.7724 0.24574 0.0
H47 H 0.58032 0.78532 0.20576 0.0
H48 H 0.58183 0.76077 0.24859 0.0
H49 H 0.56979 0.75531 0.91875 0.0
H50 H 0.54595 0.76779 0.95097 0.0
H51 H 0.54511 0.73994 0.93482 0.0
C52 C 0.26399 0.48327 0.18959 0.0
N53 N 0.24238 0.48386 0.19422 0.0
N54 N 0.27193 0.48679 0.25639 0.0
C55 C 0.2772 0.47857 0.12078 0.0
C56 C 0.25446 0.48975 0.30156 0.0
N57 N 0.23646 0.48787 0.26376 0.0
C58 C 0.25526 0.49625 0.38124 0.0
H59 H 0.29217 0.47134 0.13289 0.0
H60 H 0.28164 0.49333 0.09378 0.0
H61 H 0.26789 0.46812 0.08261 0.0
H62 H 0.24193 0.50624 0.39874 0.0
H63 H 0.27074 0.50481 0.39299 0.0
H64 H 0.25367 0.48215 0.41365 0.0
C65 C 0.06645 0.25601 0.25328 0.0
N66 N 0.06529 0.23546 0.26448 0.0
N67 N 0.06572 0.26716 0.31759 0.0
C68 C 0.06639 0.26512 0.1798 0.0
C69 C 0.06366 0.25259 0.36828 0.0
N70 N 0.06334 0.23329 0.33599 0.0
C71 C 0.0594 0.25726 0.44855 0.0
H72 H 0.07522 0.25539 0.13822 0.0
H73 H 0.07371 0.28125 0.18147 0.0
H74 H 0.04956 0.26544 0.16374 0.0
H75 H 0.0701 0.27057 0.46764 0.0
H76 H 0.06189 0.2436 0.48065 0.0
H77 H 0.04258 0.26167 0.4583 0.0
C78 C 0.26284 0.05718 0.20651 0.0
N79 N 0.28422 0.05626 0.21113 0.0
N80 N 0.25283 0.05601 0.2735 0.0
C81 C 0.25179 0.05875 0.13673 0.0
C82 C 0.26895 0.05404 0.31864 0.0
N83 N 0.28804 0.05427 0.28058 0.0
C84 C 0.2657 0.04943 0.39803 0.0
H85 H 0.23615 0.06587 0.14711 0.0
H86 H 0.24888 0.04292 0.11141 0.0
H87 H 0.26211 0.06804 0.09786 0.0
H88 H 0.25167 0.03822 0.40644 0.0
H89 H 0.2623 0.06403 0.42986 0.0
H90 H 0.28007 0.04307 0.41928 0.0
C91 C 0.44171 0.25444 0.19172 0.0
N92 N 0.44427 0.27537 0.19968 0.0
N93 N 0.44446 0.24569 0.25583 0.0
C94 C 0.43618 0.24269 0.12199 0.0
C95 C 0.44903 0.26213 0.30257 0.0
N96 N 0.44874 0.28012 0.26844 0.0
C97 C 0.45615 0.26055 0.37895 0.0
H98 H 0.42596 0.25186 0.0899 0.0
H99 H 0.42776 0.22743 0.13312 0.0
H100 H 0.4512 0.24 0.08885 0.0
H101 H 0.46527 0.24651 0.38314 0.0
H102 H 0.44176 0.25937 0.41688 0.0
H103 H 0.46632 0.27443 0.39638 0.0
Tb104 Tb 0.9967 0.99208 0.59497 0.0
C105 C 0.04561 0.00834 0.604 0.0
Tb106 Tb 0.0107 0.01955 0.72813 0.0
O107 O 0.9836 0.01848 0.54474 0.0
O108 O 0.00811 0.02307 0.61611 0.0
O109 O 0.03172 0.99411 0.5754 0.0
C110 C 0.01659 0.05181 0.82254 0.0
O111 O 0.03982 0.02186 0.65742 0.0
C112 C 0.01243 0.97935 0.74013 0.0
C113 C 0.96158 0.00378 0.71736 0.0
O114 O 0.02821 0.03578 0.81611 0.0
O115 O 0.00152 0.04954 0.77648 0.0
O116 O 0.02391 0.99311 0.77766 0.0
O117 O -0.00083 0.98866 0.70727 0.0
O118 O 0.97562 0.01764 0.74712 0.0
O119 O 0.96717 0.99046 0.66316 0.0
C120 C 0.99037 0.95921 0.5035 0.0
O121 O 0.98109 0.97659 0.50153 0.0
O122 O 0.00344 0.96047 0.5562 0.0
C123 C 0.99492 0.0323 0.58264 0.0
Tb124 Tb 0.5055 0.02946 0.64637 0.0
C125 C 0.53357 0.99598 0.55629 0.0
Tb126 Tb 0.5023 0.98338 0.68971 0.0
O127 O 0.5269 0.03889 0.73548 0.0
O128 O 0.52505 0.00878 0.69035 0.0
O129 O 0.52573 0.01476 0.55922 0.0
C130 C 0.50878 0.95126 0.76901 0.0
O131 O 0.52818 0.98203 0.60592 0.0
C132 C 0.4761 0.99286 0.59209 0.0
C133 C 0.47361 0.01639 0.77799 0.0
O134 O 0.49921 0.94996 0.70766 0.0
O135 O 0.51432 0.97053 0.78567 0.0
O136 O 0.48182 0.97397 0.59834 0.0
O137 O 0.48282 0.00406 0.64473 0.0
O138 O 0.4816 0.99772 0.77596 0.0
O139 O 0.47886 0.03019 0.72778 0.0
C140 C 0.49998 0.06237 0.56964 0.0
O141 O 0.50396 0.06306 0.63838 0.0
O142 O 0.49947 0.04326 0.54408 0.0
C143 C 0.53232 0.01996 0.74204 0.0
Tb144 Tb 0.51684 0.52154 0.61052 0.0
C145 C 0.46573 0.5128 0.62459 0.0
Tb146 Tb 0.49652 0.49132 0.72354 0.0
O147 O 0.52731 0.49569 0.53723 0.0
O148 O 0.50074 0.49201 0.60917 0.0
O149 O 0.48244 0.52449 0.59836 0.0
C150 C 0.48428 0.45705 0.79384 0.0
O151 O 0.46765 0.49787 0.67058 0.0
C152 C 0.49953 0.53068 0.76563 0.0
C153 C 0.54716 0.49979 0.70867 0.0
O154 O 0.48629 0.45831 0.72373 0.0
O155 O 0.48918 0.47515 0.8248 0.0
O156 O 0.48472 0.51758 0.79173 0.0
O157 O 0.51256 0.52098 0.72461 0.0
O158 O 0.53092 0.48633 0.72621 0.0
O159 O 0.54448 0.5166 0.67225 0.0
C160 C 0.52823 0.5565 0.54354 0.0
O161 O 0.53581 0.53851 0.52661 0.0
O162 O 0.51414 0.55475 0.59764 0.0
C163 C 0.51311 0.48241 0.56543 0.0
Tb164 Tb 0.98468 0.50471 0.62188 0.0
C165 C 0.0089 0.46429 0.61877 0.0
Tb166 Tb 0.02132 0.50183 0.72757 0.0
O167 O 0.00665 0.50845 0.52537 0.0
O168 O 0.01695 0.51602 0.62913 0.0
O169 O 0.98965 0.4716 0.61496 0.0
C170 C 0.05782 0.49695 0.79099 0.0
O171 O 0.02463 0.47504 0.65188 0.0
C172 C 0.98224 0.49567 0.78407 0.0
C173 C 0.99769 0.54339 0.72908 0.0
O174 O 0.04107 0.484 0.79256 0.0
O175 O 0.05399 0.51286 0.7543 0.0
O176 O -0.0015 0.50246 0.82145 0.0
O177 O 0.98892 0.49043 0.72037 0.0
O178 O 0.01496 0.53438 0.74828 0.0
O179 O 0.98362 0.53443 0.68369 0.0
C180 C 0.94675 0.5061 0.56311 0.0
O181 O 0.95165 0.51463 0.62594 0.0
O182 O 0.96315 0.49695 0.53366 0.0
C183 C 0.02326 0.51304 0.56363 0.0
C184 C 0.2181 0.03655 0.25938 0.0
C185 C 0.23027 0.05319 0.29169 0.0
C186 C 0.19692 0.03198 0.28445 0.0
C187 C 0.15174 0.05303 0.39803 0.0
H188 H 0.13679 0.995 0.43325 0.0
C189 C 0.08118 0.02807 0.59199 0.0
C190 C 0.06719 0.01151 0.56795 0.0
C191 C 0.10059 0.03267 0.55361 0.0
C192 C 0.14064 0.01122 0.4229 0.0
H193 H 0.23008 0.07857 0.37284 0.0
H194 H 0.1931 0.07056 0.41785 0.0
H195 H 0.17103 0.00482 0.3704 0.0
H196 H 0.06305 0.98627 0.48626 0.0
H197 H 0.09715 0.99432 0.41936 0.0
H198 H 0.12155 0.05946 0.45207 0.0
C199 C 0.19968 0.06116 0.37259 0.0
C200 C 0.1602 0.01685 0.38669 0.0
C201 C 0.22082 0.0657 0.34737 0.0
C202 C 0.07345 -0.00085 0.5062 0.0
C203 C 0.09297 0.00373 0.46791 0.0
C204 C 0.13224 0.0474 0.43442 0.0
C205 C 0.18764 0.04397 0.34242 0.0
C206 C 0.16608 0.03785 0.37478 0.0
C207 C 0.10651 0.02079 0.49052 0.0
C208 C 0.12665 0.02649 0.44818 0.0
H209 H 0.22528 0.02657 0.21696 0.0
H210 H 0.18798 0.01879 0.25957 0.0
H211 H 0.15566 0.06929 0.3886 0.0
H212 H 0.07697 0.03786 0.63957 0.0
H213 H 0.11093 0.04565 0.57313 0.0
C214 C 0.45888 0.2114 0.22686 0.0
C215 C 0.44535 0.22408 0.27008 0.0
C216 C 0.46249 0.19147 0.24791 0.0
C217 C 0.44484 0.15202 0.38561 0.0
H218 H 0.50407 0.13733 0.35782 0.0
C219 C 0.48777 0.09827 0.56602 0.0
C220 C 0.49438 0.08006 0.5288 0.0
C221 C 0.4807 0.11439 0.52742 0.0
C222 C 0.48745 0.14122 0.3653 0.0
H223 H 0.42391 0.22566 0.36603 0.0
H224 H 0.43095 0.19146 0.40545 0.0
H225 H 0.49262 0.1677 0.30046 0.0
H226 H 0.49929 0.06443 0.4226 0.0
H227 H 0.48775 0.09318 0.35472 0.0
H228 H 0.44033 0.12614 0.45472 0.0
C229 C 0.43848 0.19642 0.35434 0.0
C230 C 0.48077 0.15848 0.33197 0.0
C231 C 0.43457 0.21614 0.33239 0.0
C232 C 0.49432 0.07839 0.45237 0.0
C233 C 0.48772 0.09472 0.41367 0.0
C234 C 0.45169 0.13504 0.4202 0.0
C235 C 0.45296 0.18401 0.31344 0.0
C236 C 0.45942 0.16431 0.34244 0.0
C237 C 0.4806 0.11267 0.45109 0.0
C238 C 0.47308 0.1297 0.41084 0.0
H239 H 0.46748 0.21728 0.17881 0.0
H240 H 0.47332 0.18221 0.21396 0.0
H241 H 0.42819 0.15567 0.39372 0.0
H242 H 0.48753 0.09982 0.62499 0.0
H243 H 0.47535 0.12822 0.55706 0.0
C244 C 0.29958 0.47451 0.32977 0.0
C245 C 0.29378 0.4875 0.27646 0.0
C246 C 0.31973 0.47733 0.35872 0.0
C247 C 0.3614 0.51836 0.39281 0.0
H248 H 0.39238 0.47262 0.45398 0.0
C249 C 0.44276 0.52722 0.5343 0.0
C250 C 0.44487 0.51391 0.59134 0.0
C251 C 0.42448 0.52533 0.49339 0.0
C252 C 0.38379 0.48554 0.43766 0.0
H253 H 0.30431 0.51289 0.20857 0.0
H254 H 0.34006 0.5178 0.25854 0.0
H255 H 0.36167 0.46544 0.37847 0.0
H256 H 0.42867 0.48933 0.65386 0.0
H257 H 0.39685 0.48621 0.58282 0.0
H258 H 0.38356 0.53843 0.45267 0.0
C259 C 0.32895 0.50558 0.27857 0.0
C260 C 0.36629 0.48144 0.39424 0.0
C261 C 0.30871 0.50268 0.24948 0.0
C262 C 0.42771 0.49969 0.60984 0.0
C263 C 0.40953 0.49777 0.56883 0.0
C264 C 0.37903 0.52248 0.43605 0.0
C265 C 0.33444 0.49323 0.33474 0.0
C266 C 0.35464 0.49777 0.37259 0.0
C267 C 0.40808 0.51007 0.50876 0.0
C268 C 0.39007 0.50606 0.46009 0.0
H269 H 0.28811 0.46277 0.35104 0.0
H270 H 0.32335 0.46771 0.40247 0.0
H271 H 0.35258 0.53126 0.37772 0.0
H272 H 0.45563 0.53842 0.5188 0.0
H273 H 0.4237 0.53506 0.44746 0.0
C274 C 0.07518 0.30229 0.36769 0.0
C275 C 0.06111 0.28855 0.32951 0.0
C276 C 0.06938 0.32241 0.38766 0.0
C277 C 0.0214 0.35106 0.43024 0.0
H278 H 0.06177 0.39922 0.43032 0.0
C279 C -0.0016 0.43295 0.53919 0.0
C280 C 0.01353 0.44402 0.58245 0.0
C281 C 0.00359 0.41447 0.50117 0.0
C282 C 0.05036 0.38587 0.43099 0.0
H283 H 0.03045 0.28467 0.28012 0.0
H284 H 0.02023 0.32006 0.31408 0.0
H285 H 0.07254 0.36631 0.37289 0.0
H286 H 0.0458 0.44416 0.62094 0.0
H287 H 0.05462 0.41193 0.55587 0.0
H288 H -0.00061 0.37046 0.48991 0.0
C289 C 0.03566 0.31534 0.32911 0.0
C290 C 0.05651 0.36708 0.39801 0.0
C291 C 0.04152 0.29526 0.30908 0.0
C292 C 0.03377 0.43609 0.58789 0.0
C293 C 0.03893 0.41768 0.55003 0.0
C294 C 0.01525 0.36985 0.46336 0.0
C295 C 0.04935 0.32898 0.36988 0.0
C296 C 0.04222 0.3494 0.39835 0.0
C297 C 0.024 0.40679 0.50569 0.0
C298 C 0.02981 0.38734 0.46523 0.0
H299 H 0.0903 0.29718 0.38396 0.0
H300 H 0.08017 0.33249 0.41974 0.0
H301 H 0.01013 0.33762 0.43218 0.0
H302 H 0.9827 0.43871 0.5336 0.0
H303 H 0.99179 0.40643 0.46712 0.0
C304 C 0.78913 0.97937 0.06163 0.0
C305 C 0.77826 0.9603 0.04317 0.0
C306 C 0.80985 0.98402 0.03238 0.0
C307 C 0.84229 0.97267 0.86817 0.0
H308 H 0.8903 0.99748 0.97374 0.0
C309 C 0.92655 0.98334 0.73199 0.0
C310 C 0.93983 0.00084 0.75229 0.0
C311 C 0.90682 0.97923 0.76887 0.0
C312 C 0.87693 0.99089 0.94334 0.0
H313 H 0.78053 0.93067 0.98414 0.0
H314 H 0.81682 0.93884 0.93156 0.0
H315 H 0.85653 0.98765 0.04025 0.0
H316 H 0.94246 0.02814 0.82588 0.0
H317 H 0.90755 0.02126 0.8892 0.0
H318 H 0.86221 0.97629 0.77119 0.0
C319 C 0.80932 0.95022 0.96829 0.0
C320 C 0.8577 0.98513 0.98152 0.0
C321 C 0.7887 0.94551 0.99823 0.0
C322 C 0.93263 0.01449 0.80909 0.0
C323 C 0.91272 0.01046 0.84574 0.0
C324 C 0.86135 0.97864 0.82998 0.0
C325 C 0.81983 0.96973 0.98363 0.0
C326 C 0.84032 0.97576 0.94425 0.0
C327 C 0.8997 0.99264 0.82652 0.0
C328 C 0.879 0.98759 0.86711 0.0
H329 H 0.78114 0.99103 0.09561 0.0
H330 H 0.81758 -0.00079 0.04468 0.0
H331 H 0.82893 0.96591 0.83801 0.0
H332 H 0.93162 0.97237 0.68888 0.0
H333 H 0.89743 0.96517 0.75338 0.0
C334 C 0.57556 0.79898 0.01423 0.0
C335 C 0.56294 0.7891 0.06909 0.0
C336 C 0.57078 0.8186 0.99341 0.0
C337 C 0.52435 0.84932 0.98359 0.0
H338 H 0.56644 0.8931 0.92722 0.0
C339 C 0.50641 0.91336 0.79197 0.0
C340 C 0.5141 0.93369 0.81105 0.0
C341 C 0.51225 0.89671 0.83077 0.0
C342 C 0.55448 0.88108 0.94333 0.0
H343 H 0.53614 0.79191 0.14744 0.0
H344 H 0.52774 0.82644 0.11165 0.0
H345 H 0.57792 0.86301 0.98701 0.0
H346 H 0.5338 0.95273 0.88521 0.0
H347 H 0.54405 0.92363 0.95279 0.0
H348 H 0.50097 0.86719 0.93893 0.0
C349 C 0.54127 0.81904 0.08452 0.0
C350 C 0.56108 0.86384 0.97711 0.0
C351 C 0.54617 0.79947 0.10557 0.0
C352 C 0.5276 0.93716 0.86962 0.0
C353 C 0.53357 0.92053 0.90797 0.0
C354 C 0.51779 0.86647 0.94932 0.0
C355 C 0.55317 0.82853 0.02685 0.0
C356 C 0.5461 0.8477 0.99701 0.0
C357 C 0.52601 0.90013 0.88882 0.0
C358 C 0.53282 0.88242 0.92821 0.0
H359 H 0.58846 0.79105 0.98536 0.0
H360 H 0.58012 0.82544 0.94841 0.0
H361 H 0.51248 0.837 0.99746 0.0
H362 H 0.49605 0.91031 0.74681 0.0
H363 H 0.50637 0.88111 0.81433 0.0
C364 C 0.7048 0.51231 0.07851 0.0
C365 C 0.71406 0.53258 0.07254 0.0
C366 C 0.68554 0.50644 0.04585 0.0
C367 C 0.66109 0.51556 0.88349 0.0
H368 H 0.60609 0.49479 0.96702 0.0
C369 C 0.58485 0.5131 0.72651 0.0
C370 C 0.56808 0.49811 0.74083 0.0
C371 C 0.60332 0.51402 0.76571 0.0
C372 C 0.62149 0.5001 0.94263 0.0
H373 H 0.71006 0.56302 0.03372 0.0
H374 H 0.67651 0.55266 0.97449 0.0
H375 H 0.63585 0.50382 0.04646 0.0
H376 H 0.55821 0.47134 0.80407 0.0
H377 H 0.59092 0.47263 0.87148 0.0
H378 H 0.64726 0.51159 0.7798 0.0
C379 C 0.68409 0.54139 0.00462 0.0
C380 C 0.63838 0.50543 0.98824 0.0
C381 C 0.70312 0.54731 0.0383 0.0
C382 C 0.5708 0.48317 0.79202 0.0
C383 C 0.58944 0.48402 0.83113 0.0
C384 C 0.64442 0.50989 0.83786 0.0
C385 C 0.6756 0.52075 0.00614 0.0
C386 C 0.65805 0.51372 0.95898 0.0
C387 C 0.60566 0.49982 0.81973 0.0
C388 C 0.62422 0.50268 0.86702 0.0
H389 H 0.71323 0.50072 0.1041 0.0
H390 H 0.67923 0.49043 0.04726 0.0
H391 H 0.67636 0.52154 0.85988 0.0
H392 H 0.58336 0.52482 0.6873 0.0
H393 H 0.6153 0.52658 0.75599 0.0
C394 C 0.97174 0.72045 0.96384 0.0
C395 C 0.95062 0.72399 0.98851 0.0
C396 C 0.97742 0.70046 0.94254 0.0
C397 C 0.96371 0.64526 0.95729 0.0
H398 H 0.98925 0.64031 0.76045 0.0
C399 C 0.00145 0.57109 0.82833 0.0
C400 C 0.99352 0.56425 0.76062 0.0
C401 C 0.99633 0.5904 0.86009 0.0
C402 C 0.98216 0.64151 0.81547 0.0
H403 H 0.91909 0.70978 0.01422 0.0
H404 H 0.92913 0.67426 0.97802 0.0
H405 H 0.98004 0.67439 0.8125 0.0
H406 H 0.97432 0.57224 0.67253 0.0
H407 H 0.96591 0.60623 0.72721 0.0
H408 H 0.96603 0.61227 0.96009 0.0
C409 C 0.9412 0.68703 0.97482 0.0
C410 C 0.977 0.66094 0.84531 0.0
C411 C 0.93546 0.70718 0.99536 0.0
C412 C 0.98066 0.57714 0.72475 0.0
C413 C 0.97588 0.59656 0.75585 0.0
C414 C 0.96922 0.6258 0.92778 0.0
C415 C 0.96211 0.68365 0.94653 0.0
C416 C 0.96768 0.66297 0.9163 0.0
C417 C 0.98356 0.60327 0.82393 0.0
C418 C 0.97835 0.6238 0.85647 0.0
H419 H 0.98363 0.73333 0.95913 0.0
H420 H 0.99369 0.69816 0.92165 0.0
H421 H 0.95656 0.64652 0.01221 0.0
H422 H 0.01121 0.56136 0.85748 0.0
H423 H 0.0025 0.59537 0.91252 0.0
C424 C 0.03517 0.21203 0.40091 0.0
C425 C 0.05605 0.2143 0.36933 0.0
C426 C 0.0275 0.19315 0.42912 0.0
C427 C 0.01062 0.14857 0.4455 0.0
H428 H 0.04951 0.1143 0.53499 0.0
C429 C 0.98874 0.0625 0.50793 0.0
C430 C -0.00196 0.05449 0.5674 0.0
C431 C 0.9943 0.08288 0.48821 0.0
C432 C 0.03827 0.12376 0.5113 0.0
H433 H 0.08542 0.19912 0.3427 0.0
H434 H 0.07189 0.16568 0.38862 0.0
H435 H 0.06241 0.1482 0.49499 0.0
H436 H 0.01965 0.06163 0.6547 0.0
H437 H 0.02821 0.09735 0.62373 0.0
H438 H 0.98625 0.12438 0.46458 0.0
C439 C 0.0615 0.17853 0.39369 0.0
C440 C 0.04582 0.14313 0.48703 0.0
C441 C 0.06923 0.19753 0.36657 0.0
C442 C 0.01209 0.06744 0.60894 0.0
C443 C 0.01729 0.08785 0.59031 0.0
C444 C 0.00297 0.12928 0.47078 0.0
C445 C 0.0405 0.17606 0.42521 0.0
C446 C 0.03217 0.15572 0.45321 0.0
C447 C 0.00902 0.09567 0.52835 0.0
C448 C 0.01674 0.11657 0.50367 0.0
H449 H 0.02475 0.22484 0.40276 0.0
H450 H 0.0114 0.19198 0.454 0.0
H451 H -0.00031 0.1577 0.41885 0.0
H452 H 0.97795 0.05277 0.47474 0.0
H453 H 0.98775 0.08826 0.43977 0.0
C454 C 0.32048 0.06144 0.34994 0.0
C455 C 0.30789 0.04797 0.30537 0.0
C456 C 0.34009 0.05534 0.37204 0.0
C457 C 0.36903 0.00867 0.39874 0.0
H458 H 0.41893 0.04751 0.40379 0.0
C459 C 0.45007 0.98493 0.49404 0.0
C460 C 0.4596 -0.0009 0.54485 0.0
C461 C 0.43308 0.99071 0.45442 0.0
C462 C 0.40511 0.0365 0.40282 0.0
H463 H 0.30524 0.01782 0.249 0.0
H464 H 0.33964 0.00704 0.28678 0.0
H465 H 0.38574 0.05816 0.35678 0.0
H466 H 0.45927 0.03047 0.59313 0.0
H467 H 0.42988 0.04051 0.52443 0.0
H468 H 0.38818 0.98716 0.44625 0.0
C469 C 0.33448 0.02222 0.30525 0.0
C470 C 0.38611 0.04263 0.37614 0.0
C471 C 0.31494 0.02835 0.2833 0.0
C472 C 0.45237 0.01927 0.55377 0.0
C473 C 0.43555 0.02507 0.51414 0.0
C474 C 0.38801 0.00255 0.42551 0.0
C475 C 0.34727 0.03563 0.34995 0.0
C476 C 0.36778 0.02886 0.37477 0.0
C477 C 0.42546 0.01077 0.46488 0.0
C478 C 0.40616 0.0165 0.42888 0.0
H479 H 0.31513 0.07664 0.36716 0.0
H480 H 0.34948 0.0659 0.40724 0.0
H481 H 0.3551 0.99778 0.39911 0.0
H482 H 0.45539 0.96929 0.48618 0.0
H483 H 0.42573 0.97942 0.4163 0.0
C484 C 0.47444 0.31051 0.26816 0.0
C485 C 0.45558 0.30044 0.29685 0.0
C486 C 0.48147 0.33005 0.29678 0.0
C487 C 0.47522 0.36503 0.46154 0.0
H488 H 0.50066 0.40702 0.33433 0.0
C489 C 0.48811 0.45103 0.55395 0.0
C490 C 0.50805 0.46117 0.53553 0.0
C491 C 0.48287 0.43105 0.52547 0.0
C492 C 0.49382 0.39534 0.3705 0.0
H493 H 0.42906 0.30244 0.37644 0.0
H494 H 0.44095 0.33697 0.42621 0.0
H495 H 0.48846 0.37303 0.28229 0.0
H496 H 0.53796 0.45873 0.47147 0.0
H497 H 0.52861 0.42363 0.42019 0.0
H498 H 0.4801 0.38759 0.54945 0.0
C499 C 0.45062 0.32972 0.3826 0.0
C500 C 0.48684 0.37587 0.34081 0.0
C501 C 0.4437 0.3101 0.35413 0.0
C502 C 0.52255 0.45114 0.48688 0.0
C503 C 0.51719 0.43115 0.45751 0.0
C504 C 0.48202 0.38453 0.49106 0.0
C505 C 0.46968 0.33988 0.35456 0.0
C506 C 0.47735 0.36052 0.38597 0.0
C507 C 0.49732 0.42092 0.47691 0.0
C508 C 0.49127 0.3999 0.44579 0.0
H509 H 0.48388 0.30304 0.22444 0.0
H510 H 0.49637 0.33725 0.27462 0.0
H511 H 0.46842 0.35344 0.4981 0.0
H512 H 0.47631 0.45866 0.58935 0.0
H513 H 0.46727 0.4237 0.54018 0.0
C514 C 0.20249 0.50516 0.26031 0.0
C515 C 0.21493 0.49102 0.29196 0.0
C516 C 0.18166 0.50833 0.28804 0.0
C517 C 0.14833 0.50729 0.45424 0.0
H518 H 0.09977 0.50003 0.33092 0.0
C519 C 0.06155 0.50562 0.57464 0.0
C520 C 0.04562 0.5132 0.53441 0.0
C521 C 0.08238 0.50415 0.54452 0.0
C522 C 0.11315 0.50256 0.36595 0.0
H523 H 0.21558 0.46904 0.37648 0.0
H524 H 0.1793 0.47523 0.42738 0.0
H525 H 0.13588 0.49504 0.27844 0.0
H526 H 0.03875 0.52536 0.43133 0.0
H527 H 0.07544 0.52379 0.37925 0.0
H528 H 0.126 0.51541 0.54137 0.0
C529 C 0.18564 0.48367 0.38073 0.0
C530 C 0.13379 0.49954 0.33584 0.0
C531 C 0.20629 0.48018 0.35197 0.0
C532 C 0.05087 0.51954 0.46357 0.0
C533 C 0.07183 0.51845 0.43364 0.0
C534 C 0.12779 0.5107 0.48411 0.0
C535 C 0.17318 0.49777 0.34893 0.0
C536 C 0.15147 0.50164 0.37999 0.0
C537 C 0.08782 0.51049 0.47348 0.0
C538 C 0.10987 0.50811 0.4406 0.0
H539 H 0.20902 0.51394 0.2148 0.0
H540 H 0.17236 0.51938 0.26306 0.0
H541 H 0.16183 0.50925 0.48904 0.0
H542 H 0.05773 0.49983 0.6279 0.0
H543 H 0.094 0.49738 0.57627 0.0
C544 C 0.9741 0.80754 0.98301 0.0
C545 C 0.95442 0.79839 0.96092 0.0
C546 C 0.98221 0.82632 0.95535 0.0
C547 C 0.97908 0.85966 0.80111 0.0
H548 H 0.00079 0.90343 0.93502 0.0
C549 C 0.99265 0.94488 0.72472 0.0
C550 C 0.00963 0.95713 0.75486 0.0
C551 C 0.98825 0.92446 0.74471 0.0
C552 C 0.99519 0.89125 0.89665 0.0
H553 H 0.92773 0.80117 0.89313 0.0
H554 H 0.94196 0.83421 0.8435 0.0
H555 H 0.98794 0.86993 0.98113 0.0
H556 H 0.03599 0.95747 0.82671 0.0
H557 H 0.0285 0.9215 0.86118 0.0
H558 H 0.98622 0.88099 0.71662 0.0
C559 C 0.95117 0.82683 0.882 0.0
C560 C 0.98773 0.8721 0.92316 0.0
C561 C 0.94299 0.80809 0.91027 0.0
C562 C 0.02273 0.94834 0.80303 0.0
C563 C 0.01835 0.92783 0.82302 0.0
C564 C 0.98665 0.87879 0.77449 0.0
C565 C 0.97084 0.83615 0.9045 0.0
C566 C 0.97939 0.8562 0.87578 0.0
C567 C 0.00078 0.91582 0.79521 0.0
C568 C 0.99455 0.89489 0.82211 0.0
H569 H 0.98319 0.80003 0.02146 0.0
H570 H 0.99751 0.83302 0.97302 0.0
H571 H 0.97304 0.84755 0.76323 0.0
H572 H 0.98221 0.9513 0.68771 0.0
H573 H 0.97444 0.91577 0.72293 0.0
C574 C 0.68158 0.95307 0.04892 0.0
C575 C 0.70059 0.96428 0.02715 0.0
C576 C 0.66173 0.95919 0.02922 0.0
C577 C 0.63609 0.00416 0.95807 0.0
H578 H 0.59187 0.96211 0.90516 0.0
C579 C 0.55606 0.02609 0.84762 0.0
C580 C 0.54904 0.01355 0.788 0.0
C581 C 0.57259 0.01992 0.88864 0.0
C582 C 0.60408 0.97408 0.91948 0.0
H583 H 0.71401 0.99066 0.96871 0.0
H584 H 0.67961 0.00063 0.92964 0.0
H585 H 0.62516 0.95164 0.95002 0.0
H586 H 0.55373 0.98484 0.7241 0.0
H587 H 0.58258 0.97439 0.79366 0.0
H588 H 0.61556 0.02649 0.92281 0.0
C589 C 0.67978 0.98746 0.96371 0.0
C590 C 0.6231 0.96807 0.94622 0.0
C591 C 0.69954 0.98152 0.98454 0.0
C592 C 0.55861 0.99473 0.7704 0.0
C593 C 0.57511 0.98864 0.81078 0.0
C594 C 0.61718 0.01014 0.93032 0.0
C595 C 0.66058 0.97652 0.98646 0.0
C596 C 0.63956 0.98301 0.96431 0.0
C597 C 0.58244 0.00118 0.87018 0.0
C598 C 0.60116 0.99513 0.90903 0.0
H599 H 0.68211 0.93984 0.0825 0.0
H600 H 0.64732 0.95056 0.04865 0.0
H601 H 0.64816 0.01614 0.97327 0.0
H602 H 0.54886 0.04066 0.86226 0.0
H603 H 0.57771 0.02986 0.9345 0.0
C604 C 0.56616 0.70411 0.97379 0.0
C605 C 0.55479 0.7131 0.03373 0.0
C606 C 0.55916 0.68468 0.94384 0.0
C607 C 0.52485 0.63753 0.98628 0.0
H608 H 0.52792 0.6276 0.77631 0.0
C609 C 0.48976 0.56159 0.84545 0.0
C610 C 0.5036 0.55239 0.79234 0.0
C611 C 0.49461 0.58181 0.87352 0.0
C612 C 0.52704 0.63014 0.83505 0.0
H613 H 0.52728 0.70949 0.10924 0.0
H614 H 0.51477 0.67555 0.0569 0.0
H615 H 0.5396 0.66164 0.8289 0.0
H616 H 0.53323 0.557 0.72662 0.0
H617 H 0.5415 0.59224 0.77462 0.0
H618 H 0.51228 0.60598 0.99221 0.0
C619 C 0.52929 0.68317 0.03358 0.0
C620 C 0.53382 0.64959 0.86521 0.0
C621 C 0.53635 0.70255 0.06345 0.0
C622 C 0.52212 0.5638 0.76684 0.0
C623 C 0.52685 0.58401 0.79427 0.0
C624 C 0.51796 0.61811 0.95607 0.0
C625 C 0.54059 0.67401 0.9733 0.0
C626 C 0.53297 0.65346 0.9412 0.0
C627 C 0.51328 0.59315 0.84841 0.0
C628 C 0.51918 0.61416 0.88019 0.0
H629 H 0.58047 0.71212 0.9506 0.0
H630 H 0.56841 0.67792 0.89813 0.0
H631 H 0.52425 0.63991 0.04506 0.0
H632 H 0.4754 0.55307 0.86604 0.0
H633 H 0.4838 0.58856 0.9149 0.0
C634 C 0.79416 0.51779 0.9805 0.0
C635 C 0.79205 0.53359 0.03518 0.0
C636 C 0.81418 0.5142 0.94673 0.0
C637 C 0.8695 0.53802 0.91987 0.0
H638 H 0.88364 0.48091 0.87555 0.0
C639 C 0.95579 0.51349 0.86644 0.0
C640 C 0.95991 0.49963 0.80676 0.0
C641 C 0.93482 0.51807 0.88757 0.0
C642 C 0.87979 0.49693 0.8867 0.0
H643 H 0.80895 0.55771 0.09917 0.0
H644 H 0.84434 0.5511 0.04204 0.0
H645 H 0.84803 0.48816 0.92749 0.0
H646 H 0.94556 0.47954 0.7224 0.0
H647 H 0.9085 0.48727 0.76054 0.0
H648 H 0.90163 0.54663 0.88145 0.0
C649 C 0.83044 0.54189 0.02328 0.0
C650 C 0.85939 0.50113 0.91638 0.0
C651 C 0.81031 0.54562 0.05642 0.0
C652 C 0.9427 0.49025 0.76872 0.0
C653 C 0.9216 0.49464 0.79051 0.0
C654 C 0.88996 0.53379 0.89093 0.0
C655 C 0.83262 0.52611 0.96802 0.0
C656 C 0.85406 0.52172 0.93393 0.0
C657 C 0.91752 0.50867 0.85 0.0
C658 C 0.89534 0.5132 0.87478 0.0
H659 H 0.78028 0.50805 0.96457 0.0
H660 H 0.81518 0.50208 0.90393 0.0
H661 H 0.86581 0.55406 0.93129 0.0
H662 H 0.96881 0.52103 0.89645 0.0
H663 H 0.9321 0.52874 0.93411 0.0
C664 C 0.04096 0.21593 0.18205 0.0
C665 C 0.06124 0.21898 0.21087 0.0
C666 C 0.03617 0.19854 0.13618 0.0
C667 C 0.06117 0.15592 0.02468 0.0
H668 H 0.00481 0.12787 0.0534 0.0
C669 C 0.04001 0.07303 0.90701 0.0
C670 C 0.02093 0.07048 0.86982 0.0
C671 C 0.0448 0.0914 0.948 0.0
C672 C 0.02054 0.13564 0.0445 0.0
H673 H 0.09268 0.2072 0.21386 0.0
H674 H 0.08433 0.17629 0.13534 0.0
H675 H 0.01372 0.16001 0.12378 0.0
H676 H 0.9917 0.08472 0.84698 0.0
H677 H -8e-05 0.11675 0.91979 0.0
H678 H 0.06807 0.13114 0.94665 0.0
C679 C 0.07215 0.18737 0.14663 0.0
C680 C 0.02563 0.15411 0.08444 0.0
C681 C 0.07694 0.2049 0.19185 0.0
C682 C 0.00649 0.08633 0.87541 0.0
C683 C 0.01116 0.1046 0.91709 0.0
C684 C 0.05614 0.13733 0.98534 0.0
C685 C 0.05158 0.18382 0.11907 0.0
C686 C 0.04601 0.16448 0.07502 0.0
C687 C 0.03047 0.10738 0.95308 0.0
C688 C 0.03579 0.12703 0.99494 0.0
H689 H 0.02871 0.22675 0.19674 0.0
H690 H 0.02032 0.19651 0.11486 0.0
H691 H 0.07688 0.16366 0.01519 0.0
H692 H 0.0514 0.06101 0.90335 0.0
H693 H 0.05969 0.0931 0.97585 0.0
C694 C 0.31707 0.07061 0.14973 0.0
C695 C 0.3003 0.05522 0.15279 0.0
C696 C 0.33533 0.0676 0.10443 0.0
C697 C 0.35848 0.03225 0.95727 0.0
H698 H 0.41207 0.05234 0.0409 0.0
C699 C 0.4414 0.00459 0.85451 0.0
C700 C 0.45565 0.02081 0.83039 0.0
C701 C 0.42258 0.00902 0.89516 0.0
C702 C 0.39719 0.04671 0.01705 0.0
H703 H 0.28876 0.02497 0.111 0.0
H704 H 0.32093 0.01912 0.03305 0.0
H705 H 0.37811 0.06021 0.10448 0.0
H706 H 0.46208 0.05424 0.8327 0.0
H707 H 0.42947 0.06192 0.90633 0.0
H708 H 0.37791 0.018 0.87142 0.0
C709 C 0.31992 0.03388 0.06343 0.0
C710 C 0.37771 0.05137 0.05286 0.0
C711 C 0.30146 0.03715 0.10773 0.0
C712 C 0.45133 0.04147 0.85065 0.0
C713 C 0.43275 0.04586 0.89266 0.0
C714 C 0.378 0.02724 0.92229 0.0
C715 C 0.33737 0.04883 0.06283 0.0
C716 C 0.35807 0.0443 0.02327 0.0
C717 C 0.41801 0.0297 0.91363 0.0
C718 C 0.39746 0.03449 0.95187 0.0
H719 H 0.31636 0.08455 0.18498 0.0
H720 H 0.34814 0.07971 0.10398 0.0
H721 H 0.34375 0.02679 0.93221 0.0
H722 H 0.44427 0.98854 0.83911 0.0
H723 H 0.41143 0.99634 0.91128 0.0
C724 C 0.45963 0.29141 0.0888 0.0
C725 C 0.4436 0.29032 0.14489 0.0
C726 C 0.46163 0.30847 0.04452 0.0
C727 C 0.44729 0.36341 0.04933 0.0
H728 H 0.4711 0.3607 0.85039 0.0
C729 C 0.48007 0.43709 0.90688 0.0
C730 C 0.47783 0.43793 0.83171 0.0
C731 C 0.4745 0.41871 0.94219 0.0
C732 C 0.46414 0.36177 0.90556 0.0
H733 H 0.41646 0.30512 0.19721 0.0
H734 H 0.41902 0.33446 0.11761 0.0
H735 H 0.4623 0.32873 0.91276 0.0
H736 H 0.46771 0.42053 0.73435 0.0
H737 H 0.45716 0.38868 0.79618 0.0
H738 H 0.44839 0.39635 0.04145 0.0
C739 C 0.43057 0.32265 0.10883 0.0
C740 C 0.45937 0.34339 0.94176 0.0
C741 C 0.42884 0.30578 0.15371 0.0
C742 C 0.46967 0.42022 0.79246 0.0
C743 C 0.46379 0.40193 0.82787 0.0
C744 C 0.45176 0.38174 0.01283 0.0
C745 C 0.44743 0.32459 0.0552 0.0
C746 C 0.45111 0.34397 0.01445 0.0
C747 C 0.46626 0.40087 0.90318 0.0
C748 C 0.46053 0.38122 0.94078 0.0
H749 H 0.47137 0.27973 0.08243 0.0
H750 H 0.47499 0.30949 0.00462 0.0
H751 H 0.4413 0.3646 0.10564 0.0
H752 H 0.48648 0.45054 0.9382 0.0
H753 H 0.47704 0.41843 -0.00012 0.0
C754 C 0.22817 0.49435 0.08071 0.0
C755 C 0.22789 0.48034 0.13642 0.0
C756 C 0.21127 0.4936 0.03369 0.0
C757 C 0.15401 0.47697 0.03641 0.0
H758 H 0.15837 0.49145 0.8339 0.0
C759 C 0.07983 0.47627 0.86541 0.0
C760 C 0.07813 0.4937 0.82414 0.0
C761 C 0.09897 0.47314 0.89771 0.0
C762 C 0.15696 0.48748 0.89054 0.0
H763 H 0.21117 0.45367 0.18422 0.0
H764 H 0.18187 0.45175 0.10074 0.0
H765 H 0.19106 0.48744 0.89799 0.0
H766 H 0.09502 0.52134 0.7826 0.0
H767 H 0.12861 0.51594 0.8396 0.0
H768 H 0.12002 0.47717 0.02941 0.0
C769 C 0.1947 0.4637 0.09423 0.0
C770 C 0.17564 0.48518 0.92717 0.0
C771 C 0.21147 0.46461 0.14142 0.0
C772 C 0.09596 0.50782 0.81454 0.0
C773 C 0.11518 0.50464 0.84661 0.0
C774 C 0.13542 0.47917 -0.0002 0.0
C775 C 0.19397 0.47869 0.0417 0.0
C776 C 0.17435 0.47996 0.00063 0.0
C777 C 0.11679 0.48736 0.88906 0.0
C778 C 0.13668 0.48453 0.92664 0.0
H779 H 0.24068 0.50671 0.07693 0.0
H780 H 0.21114 0.50546 0.9942 0.0
H781 H 0.15243 0.4735 0.09351 0.0
H782 H 0.06633 0.46508 0.87317 0.0
H783 H 0.09984 0.45957 0.92943 0.0
C784 C 0.95955 0.79245 0.1691 0.0
C785 C 0.94391 0.79204 0.11709 0.0
C786 C 0.96294 0.80999 0.21575 0.0
C787 C 0.95764 0.86609 0.22041 0.0
H788 H 0.96911 0.86402 0.42489 0.0
C789 C 0.9695 0.94015 0.40663 0.0
C790 C 0.98539 0.94036 0.4577 0.0
C791 C 0.96387 0.92189 0.36624 0.0
C792 C 0.96618 0.86483 0.36764 0.0
H793 H 0.91919 0.80901 0.07374 0.0
H794 H 0.92494 0.83978 0.15563 0.0
H795 H 0.95927 0.83193 0.35513 0.0
H796 H 0.0081 0.9219 0.50628 0.0
H797 H -0.00141 0.89006 0.43468 0.0
H798 H 0.96487 0.89887 0.23227 0.0
C799 C 0.93465 0.82664 0.16029 0.0
C800 C 0.96046 0.84647 0.32785 0.0
C801 C 0.93121 0.80907 0.11402 0.0
C802 C 0.99578 0.92212 0.46712 0.0
C803 C 0.9902 0.90387 0.42662 0.0
C804 C 0.96342 0.88442 0.26006 0.0
C805 C 0.95087 0.82746 0.21053 0.0
C806 C 0.95615 0.84692 0.25384 0.0
C807 C 0.97406 0.9035 0.37609 0.0
C808 C 0.9678 0.884 0.33409 0.0
H809 H 0.96993 0.7797 0.17082 0.0
H810 H 0.97574 0.81028 0.25326 0.0
H811 H 0.95481 0.86687 0.16304 0.0
H812 H 0.96116 0.95401 0.39875 0.0
H813 H 0.9512 0.92209 0.3284 0.0
C814 C 0.7 0.9504 0.22711 0.0
C815 C 0.70948 0.9658 0.18291 0.0
C816 C 0.6817 0.95435 0.27139 0.0
C817 C 0.63588 0.98718 0.27664 0.0
H818 H 0.62394 0.96658 0.46982 0.0
C819 C 0.56126 0.00739 0.46048 0.0
C820 C 0.55157 0.99162 0.50334 0.0
C821 C 0.58026 0.00413 0.41903 0.0
C822 C 0.62695 0.97221 0.41552 0.0
H823 H 0.70856 0.99753 0.15211 0.0
H824 H 0.67673 0.00479 0.23069 0.0
H825 H 0.65897 0.96202 0.40801 0.0
H826 H 0.55349 0.95963 0.53247 0.0
H827 H 0.58639 0.95394 0.45948 0.0
H828 H 0.60384 0.99729 0.28398 0.0
C829 C 0.68311 0.98957 0.23062 0.0
C830 C 0.64703 0.96966 0.38032 0.0
C831 C 0.70138 0.98558 0.18657 0.0
C832 C 0.56063 0.9722 0.50071 0.0
C833 C 0.57959 0.96896 0.45932 0.0
C834 C 0.6158 0.98973 0.31184 0.0
C835 C 0.67268 0.97379 0.27171 0.0
C836 C 0.6517 0.97711 0.31052 0.0
C837 C 0.5899 0.98505 0.41956 0.0
C838 C 0.6111 0.98221 0.38155 0.0
H839 H 0.70598 0.93497 0.22367 0.0
H840 H 0.67394 0.94184 0.30205 0.0
H841 H 0.63886 0.99272 0.22219 0.0
H842 H 0.55471 0.02254 0.46122 0.0
H843 H 0.58787 0.01686 0.38908 0.0
C844 C 0.57994 0.70558 0.17293 0.0
C845 C 0.56657 0.72209 0.18715 0.0
C846 C 0.57842 0.68867 0.21755 0.0
C847 C 0.55685 0.66995 0.3952 0.0
H848 H 0.55312 0.61643 0.28909 0.0
C849 C 0.5247 0.59432 0.52921 0.0
C850 C 0.53454 0.57591 0.50722 0.0
C851 C 0.53034 0.61267 0.49386 0.0
C852 C 0.55447 0.63119 0.31975 0.0
H853 H 0.54163 0.73443 0.25973 0.0
H854 H 0.53899 0.70488 0.33895 0.0
H855 H 0.56058 0.64791 0.22274 0.0
H856 H 0.55828 0.56221 0.43255 0.0
H857 H 0.5684 0.59432 0.37125 0.0
H858 H 0.55054 0.65316 0.49227 0.0
C859 C 0.55082 0.70506 0.29371 0.0
C860 C 0.55875 0.64926 0.28167 0.0
C861 C 0.55235 0.72198 0.24878 0.0
C862 C 0.55035 0.57619 0.45014 0.0
C863 C 0.55605 0.59455 0.4149 0.0
C864 C 0.55264 0.65183 0.43342 0.0
C865 C 0.56344 0.68797 0.27733 0.0
C866 C 0.5599 0.66884 0.31888 0.0
C867 C 0.54599 0.61298 0.43593 0.0
C868 C 0.55128 0.63225 0.39605 0.0
H869 H 0.59102 0.70549 0.12556 0.0
H870 H 0.58858 0.67589 0.20419 0.0
H871 H 0.55782 0.68481 0.42536 0.0
H872 H 0.51247 0.59449 0.57324 0.0
H873 H 0.52208 0.62649 0.51084 0.0
C874 C 0.78604 0.54294 0.25387 0.0
C875 C 0.78181 0.5292 0.19416 0.0
C876 C 0.80227 0.53925 0.30011 0.0
C877 C 0.85316 0.51503 0.29514 0.0
H878 H 0.84741 0.51885 0.50635 0.0
C879 C 0.92209 0.49476 0.4655 0.0
C880 C 0.92624 0.50723 0.52842 0.0
C881 C 0.90332 0.49649 0.42929 0.0
C882 C 0.84935 0.51798 0.44744 0.0
H883 H 0.79019 0.50056 0.13685 0.0
H884 H 0.81896 0.49418 0.2168 0.0
H885 H 0.81631 0.5237 0.43512 0.0
H886 H 0.91399 0.53093 0.6043 0.0
H887 H 0.88134 0.53456 0.53958 0.0
H888 H 0.88617 0.51002 0.30641 0.0
C889 C 0.80982 0.50781 0.22794 0.0
C890 C 0.83153 0.52067 0.4068 0.0
C891 C 0.79345 0.51138 0.18243 0.0
C892 C 0.91109 0.52115 0.55574 0.0
C893 C 0.89236 0.52311 0.51887 0.0
C894 C 0.87098 0.5126 0.33553 0.0
C895 C 0.81461 0.52188 0.28651 0.0
C896 C 0.83327 0.51906 0.33031 0.0
C897 C 0.88841 0.511 0.45455 0.0
C898 C 0.8693 0.51386 0.41221 0.0
H899 H 0.77729 0.55687 0.26299 0.0
H900 H 0.80577 0.55041 0.34456 0.0
H901 H 0.85503 0.51413 0.23616 0.0
H902 H 0.93345 0.48373 0.44384 0.0
H903 H 0.90057 0.48652 0.38112 0.0
loop_
_geom_bond_atom_site_label_1
_geom_bond_atom_site_label_2
_geom_bond_distance
_geom_bond_site_symmetry_2
_ccdc_geom_bond_type
C0 N1 1.317 . S
C0 N2 1.348 . S
C0 C3 1.485 . S
N1 C0 1.317 . S
N1 N5 1.370 . S
N2 C0 1.348 . S
N2 C4 1.346 1_554 S
C3 C0 1.485 . S
C3 H7 0.960 . S
C3 H8 0.961 . S
C3 H9 0.960 . S
C4 N2 1.346 1_556 S
C4 N5 1.307 1_556 S
C4 C6 1.486 . S
N5 N1 1.370 . S
N5 C4 1.307 1_554 S
C6 C4 1.486 . S
C6 H10 0.960 . S
C6 H11 0.960 . S
C6 H12 0.959 . S
H7 C3 0.960 . S
H8 C3 0.961 . S
H9 C3 0.960 . S
H10 C6 0.960 . S
H11 C6 0.960 . S
H12 C6 0.959 . S
C13 N14 1.317 . S
C13 N15 1.348 1_554 S
C13 C16 1.485 . S
N14 C13 1.317 . S
N14 N18 1.370 1_554 S
N15 C13 1.348 1_556 S
N15 C17 1.346 . S
C16 C13 1.485 . S
C16 H20 0.960 . S
C16 H21 0.961 . S
C16 H22 0.960 . S
C17 N15 1.346 . S
C17 N18 1.307 . S
C17 C19 1.486 . S
N18 N14 1.370 1_556 S
N18 C17 1.307 . S
C19 C17 1.486 . S
C19 H23 0.960 . S
C19 H24 0.960 . S
C19 H25 0.959 . S
H20 C16 0.960 . S
H21 C16 0.961 . S
H22 C16 0.960 . S
H23 C19 0.960 . S
H24 C19 0.960 . S
H25 C19 0.959 . S
C26 N27 1.317 . S
C26 N28 1.348 . S
C26 C29 1.485 . S
N27 C26 1.317 . S
N27 N31 1.370 . S
N28 C26 1.348 . S
N28 C30 1.346 1_554 S
C29 C26 1.485 . S
C29 H33 0.960 . S
C29 H34 0.961 . S
C29 H35 0.960 . S
C30 N28 1.346 1_556 S
C30 N31 1.307 1_556 S
C30 C32 1.486 . S
N31 N27 1.370 . S
N31 C30 1.307 1_554 S
C32 C30 1.486 . S
C32 H36 0.960 . S
C32 H37 0.960 . S
C32 H38 0.959 . S
H33 C29 0.960 . S
H34 C29 0.961 . S
H35 C29 0.960 . S
H36 C32 0.960 . S
H37 C32 0.960 . S
H38 C32 0.959 . S
C39 N40 1.317 . S
C39 N41 1.348 . S
C39 C42 1.485 . S
N40 C39 1.317 . S
N40 N44 1.370 . S
N41 C39 1.348 . S
N41 C43 1.346 . S
C42 C39 1.485 . S
C42 H46 0.960 . S
C42 H47 0.961 . S
C42 H48 0.960 . S
C43 N41 1.346 . S
C43 N44 1.307 . S
C43 C45 1.486 1_554 S
N44 N40 1.370 . S
N44 C43 1.307 . S
C45 C43 1.486 1_556 S
C45 H49 0.960 . S
C45 H50 0.960 . S
C45 H51 0.959 . S
H46 C42 0.960 . S
H47 C42 0.961 . S
H48 C42 0.960 . S
H49 C45 0.960 . S
H50 C45 0.960 . S
H51 C45 0.959 . S
C52 N53 1.317 . S
C52 N54 1.348 . S
C52 C55 1.485 . S
N53 C52 1.317 . S
N53 N57 1.370 . S
N54 C52 1.348 . S
N54 C56 1.346 . S
C55 C52 1.485 . S
C55 H59 0.960 . S
C55 H60 0.961 . S
C55 H61 0.960 . S
C56 N54 1.346 . S
C56 N57 1.307 . S
C56 C58 1.486 . S
N57 N53 1.370 . S
N57 C56 1.307 . S
C58 C56 1.486 . S
C58 H62 0.960 . S
C58 H63 0.960 . S
C58 H64 0.959 . S
H59 C55 0.960 . S
H60 C55 0.961 . S
H61 C55 0.960 . S
H62 C58 0.960 . S
H63 C58 0.960 . S
H64 C58 0.959 . S
C65 N66 1.317 . S
C65 N67 1.348 . S
C65 C68 1.485 . S
N66 C65 1.317 . S
N66 N70 1.370 . S
N67 C65 1.348 . S
N67 C69 1.346 . S
C68 C65 1.485 . S
C68 H72 0.960 . S
C68 H73 0.961 . S
C68 H74 0.960 . S
C69 N67 1.346 . S
C69 N70 1.307 . S
C69 C71 1.486 . S
N70 N66 1.370 . S
N70 C69 1.307 . S
C71 C69 1.486 . S
C71 H75 0.960 . S
C71 H76 0.960 . S
C71 H77 0.959 . S
H72 C68 0.960 . S
H73 C68 0.961 . S
H74 C68 0.960 . S
H75 C71 0.960 . S
H76 C71 0.960 . S
H77 C71 0.959 . S
C78 N79 1.317 . S
C78 N80 1.348 . S
C78 C81 1.485 . S
N79 C78 1.317 . S
N79 N83 1.370 . S
N80 C78 1.348 . S
N80 C82 1.346 . S
C81 C78 1.485 . S
C81 H85 0.960 . S
C81 H86 0.961 . S
C81 H87 0.960 . S
C82 N80 1.346 . S
C82 N83 1.307 . S
C82 C84 1.486 . S
N83 N79 1.370 . S
N83 C82 1.307 . S
C84 C82 1.486 . S
C84 H88 0.960 . S
C84 H89 0.960 . S
C84 H90 0.959 . S
H85 C81 0.960 . S
H86 C81 0.961 . S
H87 C81 0.960 . S
H88 C84 0.960 . S
H89 C84 0.960 . S
H90 C84 0.959 . S
C91 N92 1.317 . S
C91 N93 1.348 . S
C91 C94 1.485 . S
N92 C91 1.317 . S
N92 N96 1.370 . S
N93 C91 1.348 . S
N93 C95 1.346 . S
C94 C91 1.485 . S
C94 H98 0.960 . S
C94 H99 0.961 . S
C94 H100 0.960 . S
C95 N93 1.346 . S
C95 N96 1.307 . S
C95 C97 1.486 . S
N96 N92 1.370 . S
N96 C95 1.307 . S
C97 C95 1.486 . S
C97 H101 0.960 . S
C97 H102 0.960 . S
C97 H103 0.959 . S
H98 C94 0.960 . S
H99 C94 0.961 . S
H100 C94 0.960 . S
H101 C97 0.960 . S
H102 C97 0.960 . S
H103 C97 0.959 . S
Tb104 O107 2.442 1_565 S
Tb104 O108 2.588 1_665 S
Tb104 O109 2.374 1_665 S
Tb104 O117 2.348 1_655 S
Tb104 O119 2.352 1_565 S
Tb104 O121 2.436 . S
Tb104 O122 2.523 1_655 S
C105 O109 1.251 . S
C105 O111 1.263 . S
Tb106 O108 2.343 . S
Tb106 O111 2.353 . S
Tb106 O114 2.427 . S
Tb106 O115 2.513 . S
Tb106 O116 2.453 1_545 S
Tb106 O117 2.596 1_545 S
Tb106 O118 2.374 1_455 S
O107 Tb104 2.442 1_545 S
O107 C123 1.245 1_655 S
O108 Tb104 2.588 1_445 S
O108 Tb106 2.343 . S
O108 C123 1.259 . S
O109 Tb104 2.374 1_445 S
O109 C105 1.251 . S
C110 O114 1.275 . S
C110 O115 1.246 . S
O111 C105 1.263 . S
O111 Tb106 2.353 . S
C112 O116 1.245 . S
C112 O117 1.259 . S
C113 O118 1.250 . S
C113 O119 1.263 . S
O114 Tb106 2.427 . S
O114 C110 1.275 . S
O115 Tb106 2.513 . S
O115 C110 1.246 . S
O116 Tb106 2.453 1_565 S
O116 C112 1.245 . S
O117 Tb104 2.348 1_455 S
O117 Tb106 2.596 1_565 S
O117 C112 1.259 . S
O118 Tb106 2.374 1_655 S
O118 C113 1.250 . S
O119 Tb104 2.352 1_545 S
O119 C113 1.263 . S
C120 O121 1.275 . S
C120 O122 1.246 1_655 S
O121 Tb104 2.436 . S
O121 C120 1.275 . S
O122 Tb104 2.523 1_455 S
O122 C120 1.246 1_455 S
C123 O107 1.245 1_455 S
C123 O108 1.259 . S
Tb124 O127 2.453 . S
Tb124 O128 2.601 . S
Tb124 O129 2.374 . S
Tb124 O137 2.343 . S
Tb124 O139 2.353 . S
Tb124 O141 2.427 . S
Tb124 O142 2.513 . S
C125 O129 1.293 . S
C125 O131 1.230 1_545 S
Tb126 O128 2.340 1_565 S
Tb126 O131 2.353 . S
Tb126 O134 2.427 . S
Tb126 O135 2.513 . S
Tb126 O136 2.453 . S
Tb126 O137 2.596 1_565 S
Tb126 O138 2.374 . S
O127 Tb124 2.453 . S
O127 C143 1.245 . S
O128 Tb124 2.601 . S
O128 Tb126 2.340 1_545 S
O128 C143 1.261 . S
O129 Tb124 2.374 . S
O129 C125 1.293 . S
C130 O134 1.275 . S
C130 O135 1.246 . S
O131 C125 1.230 1_565 S
O131 Tb126 2.353 . S
C132 O136 1.245 1_545 S
C132 O137 1.259 . S
C133 O138 1.250 1_545 S
C133 O139 1.263 . S
O134 Tb126 2.427 . S
O134 C130 1.275 . S
O135 Tb126 2.513 . S
O135 C130 1.246 . S
O136 Tb126 2.453 . S
O136 C132 1.245 1_565 S
O137 Tb124 2.343 . S
O137 Tb126 2.596 1_545 S
O137 C132 1.259 . S
O138 Tb126 2.374 . S
O138 C133 1.250 1_565 S
O139 Tb124 2.353 . S
O139 C133 1.263 . S
C140 O141 1.275 . S
C140 O142 1.246 . S
O141 Tb124 2.427 . S
O141 C140 1.275 . S
O142 Tb124 2.513 . S
O142 C140 1.246 . S
C143 O127 1.245 . S
C143 O128 1.261 . S
Tb144 O147 2.453 . S
Tb144 O148 2.596 . S
Tb144 O149 2.374 . S
Tb144 O157 2.343 . S
Tb144 O159 2.353 . S
Tb144 O161 2.427 . S
Tb144 O162 2.513 . S
C145 O149 1.251 . S
C145 O151 1.263 . S
Tb146 O148 2.343 . S
Tb146 O151 2.353 . S
Tb146 O154 2.427 . S
Tb146 O155 2.513 . S
Tb146 O156 2.453 . S
Tb146 O157 2.596 . S
Tb146 O158 2.374 . S
O147 Tb144 2.453 . S
O147 C163 1.245 . S
O148 Tb144 2.596 . S
O148 Tb146 2.343 . S
O148 C163 1.259 . S
O149 Tb144 2.374 . S
O149 C145 1.251 . S
C150 O154 1.275 . S
C150 O155 1.246 . S
O151 C145 1.263 . S
O151 Tb146 2.353 . S
C152 O156 1.245 . S
C152 O157 1.259 . S
C153 O158 1.250 . S
C153 O159 1.263 . S
O154 Tb146 2.427 . S
O154 C150 1.275 . S
O155 Tb146 2.513 . S
O155 C150 1.246 . S
O156 Tb146 2.453 . S
O156 C152 1.245 . S
O157 Tb144 2.343 . S
O157 Tb146 2.596 . S
O157 C152 1.259 . S
O158 Tb146 2.374 . S
O158 C153 1.250 . S
O159 Tb144 2.353 . S
O159 C153 1.263 . S
C160 O161 1.275 . S
C160 O162 1.246 . S
O161 Tb144 2.427 . S
O161 C160 1.275 . S
O162 Tb144 2.513 . S
O162 C160 1.246 . S
C163 O147 1.245 . S
C163 O148 1.259 . S
Tb164 O167 2.426 1_655 S
Tb164 O168 2.574 1_655 S
Tb164 O169 2.370 1_655 S
Tb164 O177 2.354 . S
Tb164 O179 2.351 1_655 S
Tb164 O181 2.451 . S
Tb164 O182 2.537 . S
C165 O169 1.251 . S
C165 O171 1.263 . S
Tb166 O168 2.343 . S
Tb166 O171 2.353 . S
Tb166 O174 2.427 . S
Tb166 O175 2.513 . S
Tb166 O176 2.453 1_455 S
Tb166 O177 2.596 1_455 S
Tb166 O178 2.374 . S
O167 Tb164 2.426 1_455 S
O167 C183 1.245 . S
O168 Tb164 2.574 1_455 S
O168 Tb166 2.343 . S
O168 C183 1.259 . S
O169 Tb164 2.370 1_455 S
O169 C165 1.251 . S
C170 O174 1.275 . S
C170 O175 1.246 . S
O171 C165 1.263 . S
O171 Tb166 2.353 . S
C172 O176 1.245 . S
C172 O177 1.259 . S
C173 O178 1.250 . S
C173 O179 1.263 . S
O174 Tb166 2.427 . S
O174 C170 1.275 . S
O175 Tb166 2.513 . S
O175 C170 1.246 . S
O176 Tb166 2.453 1_655 S
O176 C172 1.245 . S
O177 Tb164 2.354 . S
O177 Tb166 2.596 1_655 S
O177 C172 1.259 . S
O178 Tb166 2.374 . S
O178 C173 1.250 . S
O179 Tb164 2.351 1_455 S
O179 C173 1.263 . S
C180 O181 1.275 . S
C180 O182 1.246 . S
O181 Tb164 2.451 . S
O181 C180 1.275 . S
O182 Tb164 2.537 . S
O182 C180 1.246 . S
C183 O167 1.245 . S
C183 O168 1.259 . S
C184 C185 1.349 . S
C184 C186 1.327 . S
C184 H209 0.950 . S
C185 C184 1.349 . S
C185 C201 1.349 . S
C186 C184 1.327 . S
C186 C205 1.429 . S
C186 H210 0.950 . S
C187 C204 1.574 . S
C187 C206 1.368 . S
C187 H211 0.949 . S
H188 C192 0.949 1_565 S
C189 C190 1.349 . S
C189 C191 1.327 . S
C189 H212 0.950 . S
C190 C189 1.349 . S
C190 C202 1.349 . S
C191 C189 1.327 . S
C191 C207 1.429 . S
C191 H213 0.950 . S
C192 H188 0.949 1_545 S
C192 C200 1.574 . S
C192 C208 1.368 . S
H193 C201 0.950 . S
H194 C199 0.950 . S
H195 C200 0.949 . S
H196 C202 0.950 1_565 S
H197 C203 0.950 1_565 S
H198 C204 0.949 . S
C199 H194 0.950 . S
C199 C201 1.327 . S
C199 C205 1.429 . S
C200 C192 1.574 . S
C200 H195 0.949 . S
C200 C206 1.368 . S
C201 C185 1.349 . S
C201 H193 0.950 . S
C201 C199 1.327 . S
C202 C190 1.349 . S
C202 H196 0.950 1_545 S
C202 C203 1.327 . S
C203 H197 0.950 1_545 S
C203 C202 1.327 . S
C203 C207 1.429 . S
C204 C187 1.574 . S
C204 H198 0.949 . S
C204 C208 1.368 . S
C205 C186 1.429 . S
C205 C199 1.429 . S
C205 C206 1.523 . S
C206 C187 1.368 . S
C206 C200 1.368 . S
C206 C205 1.523 . S
C207 C191 1.429 . S
C207 C203 1.429 . S
C207 C208 1.523 . S
C208 C192 1.368 . S
C208 C204 1.368 . S
C208 C207 1.523 . S
H209 C184 0.950 . S
H210 C186 0.950 . S
H211 C187 0.949 . S
H212 C189 0.950 . S
H213 C191 0.950 . S
C214 C215 1.349 . S
C214 C216 1.327 . S
C214 H239 0.950 . S
C215 C214 1.349 . S
C215 C231 1.349 . S
C216 C214 1.327 . S
C216 C235 1.429 . S
C216 H240 0.950 . S
C217 C234 1.574 . S
C217 C236 1.368 . S
C217 H241 0.949 . S
H218 C222 0.949 . S
C219 C220 1.349 . S
C219 C221 1.327 . S
C219 H242 0.950 . S
C220 C219 1.349 . S
C220 C232 1.349 . S
C221 C219 1.327 . S
C221 C237 1.429 . S
C221 H243 0.950 . S
C222 H218 0.949 . S
C222 C230 1.574 . S
C222 C238 1.368 . S
H223 C231 0.950 . S
H224 C229 0.950 . S
H225 C230 0.949 . S
H226 C232 0.950 . S
H227 C233 0.950 . S
H228 C234 0.949 . S
C229 H224 0.950 . S
C229 C231 1.327 . S
C229 C235 1.429 . S
C230 C222 1.574 . S
C230 H225 0.949 . S
C230 C236 1.368 . S
C231 C215 1.349 . S
C231 H223 0.950 . S
C231 C229 1.327 . S
C232 C220 1.349 . S
C232 H226 0.950 . S
C232 C233 1.327 . S
C233 H227 0.950 . S
C233 C232 1.327 . S
C233 C237 1.429 . S
C234 C217 1.574 . S
C234 H228 0.949 . S
C234 C238 1.368 . S
C235 C216 1.429 . S
C235 C229 1.429 . S
C235 C236 1.523 . S
C236 C217 1.368 . S
C236 C230 1.368 . S
C236 C235 1.523 . S
C237 C221 1.429 . S
C237 C233 1.429 . S
C237 C238 1.523 . S
C238 C222 1.368 . S
C238 C234 1.368 . S
C238 C237 1.523 . S
H239 C214 0.950 . S
H240 C216 0.950 . S
H241 C217 0.949 . S
H242 C219 0.950 . S
H243 C221 0.950 . S
C244 C245 1.349 . S
C244 C246 1.327 . S
C244 H269 0.950 . S
C245 C244 1.349 . S
C245 C261 1.349 . S
C246 C244 1.327 . S
C246 C265 1.429 . S
C246 H270 0.950 . S
C247 C264 1.574 . S
C247 C266 1.368 . S
C247 H271 0.949 . S
H248 C252 0.949 . S
C249 C250 1.349 . S
C249 C251 1.327 . S
C249 H272 0.950 . S
C250 C249 1.349 . S
C250 C262 1.349 . S
C251 C249 1.327 . S
C251 C267 1.429 . S
C251 H273 0.950 . S
C252 H248 0.949 . S
C252 C260 1.574 . S
C252 C268 1.368 . S
H253 C261 0.950 . S
H254 C259 0.950 . S
H255 C260 0.949 . S
H256 C262 0.950 . S
H257 C263 0.950 . S
H258 C264 0.949 . S
C259 H254 0.950 . S
C259 C261 1.327 . S
C259 C265 1.429 . S
C260 C252 1.574 . S
C260 H255 0.949 . S
C260 C266 1.368 . S
C261 C245 1.349 . S
C261 H253 0.950 . S
C261 C259 1.327 . S
C262 C250 1.349 . S
C262 H256 0.950 . S
C262 C263 1.327 . S
C263 H257 0.950 . S
C263 C262 1.327 . S
C263 C267 1.429 . S
C264 C247 1.574 . S
C264 H258 0.949 . S
C264 C268 1.368 . S
C265 C246 1.429 . S
C265 C259 1.429 . S
C265 C266 1.523 . S
C266 C247 1.368 . S
C266 C260 1.368 . S
C266 C265 1.523 . S
C267 C251 1.429 . S
C267 C263 1.429 . S
C267 C268 1.523 . S
C268 C252 1.368 . S
C268 C264 1.368 . S
C268 C267 1.523 . S
H269 C244 0.950 . S
H270 C246 0.950 . S
H271 C247 0.949 . S
H272 C249 0.950 . S
H273 C251 0.950 . S
C274 C275 1.349 . S
C274 C276 1.327 . S
C274 H299 0.950 . S
C275 C274 1.349 . S
C275 C291 1.349 . S
C276 C274 1.327 . S
C276 C295 1.429 . S
C276 H300 0.950 . S
C277 C294 1.574 . S
C277 C296 1.368 . S
C277 H301 0.949 . S
H278 C282 0.949 . S
C279 C280 1.349 . S
C279 C281 1.327 . S
C279 H302 0.950 1_455 S
C280 C279 1.349 . S
C280 C292 1.349 . S
C281 C279 1.327 . S
C281 C297 1.429 . S
C281 H303 0.950 1_455 S
C282 H278 0.949 . S
C282 C290 1.574 . S
C282 C298 1.368 . S
H283 C291 0.950 . S
H284 C289 0.950 . S
H285 C290 0.949 . S
H286 C292 0.950 . S
H287 C293 0.950 . S
H288 C294 0.949 . S
C289 H284 0.950 . S
C289 C291 1.327 . S
C289 C295 1.429 . S
C290 C282 1.574 . S
C290 H285 0.949 . S
C290 C296 1.368 . S
C291 C275 1.349 . S
C291 H283 0.950 . S
C291 C289 1.327 . S
C292 C280 1.349 . S
C292 H286 0.950 . S
C292 C293 1.327 . S
C293 H287 0.950 . S
C293 C292 1.327 . S
C293 C297 1.429 . S
C294 C277 1.574 . S
C294 H288 0.949 . S
C294 C298 1.368 . S
C295 C276 1.429 . S
C295 C289 1.429 . S
C295 C296 1.523 . S
C296 C277 1.368 . S
C296 C290 1.368 . S
C296 C295 1.523 . S
C297 C281 1.429 . S
C297 C293 1.429 . S
C297 C298 1.523 . S
C298 C282 1.368 . S
C298 C294 1.368 . S
C298 C297 1.523 . S
H299 C274 0.950 . S
H300 C276 0.950 . S
H301 C277 0.949 . S
H302 C279 0.950 1_655 S
H303 C281 0.950 1_655 S
C304 C305 1.349 1_554 S
C304 C306 1.327 1_554 S
C304 H329 0.950 . S
C305 C304 1.349 1_556 S
C305 C321 1.349 . S
C306 C304 1.327 1_556 S
C306 C325 1.429 . S
C306 H330 0.950 1_556 S
C307 C324 1.574 . S
C307 C326 1.368 . S
C307 H331 0.949 . S
H308 C312 0.949 1_545 S
C309 C310 1.349 . S
C309 C311 1.327 . S
C309 H332 0.950 . S
C310 C309 1.349 . S
C310 C322 1.349 1_565 S
C311 C309 1.327 . S
C311 C327 1.429 . S
C311 H333 0.950 . S
C312 H308 0.949 1_565 S
C312 C320 1.574 . S
C312 C328 1.368 . S
H313 C321 0.950 . S
H314 C319 0.950 . S
H315 C320 0.951 . S
H316 C322 0.950 . S
H317 C323 0.950 . S
H318 C324 0.949 . S
C319 H314 0.950 . S
C319 C321 1.327 . S
C319 C325 1.429 . S
C320 C312 1.574 . S
C320 H315 0.951 . S
C320 C326 1.368 . S
C321 C305 1.349 . S
C321 H313 0.950 . S
C321 C319 1.327 . S
C322 C310 1.349 1_545 S
C322 H316 0.950 . S
C322 C323 1.327 . S
C323 H317 0.950 . S
C323 C322 1.327 . S
C323 C327 1.429 1_545 S
C324 C307 1.574 . S
C324 H318 0.949 . S
C324 C328 1.368 . S
C325 C306 1.429 . S
C325 C319 1.429 . S
C325 C326 1.523 . S
C326 C307 1.368 . S
C326 C320 1.368 . S
C326 C325 1.523 . S
C327 C311 1.429 . S
C327 C323 1.429 1_565 S
C327 C328 1.523 . S
C328 C312 1.368 . S
C328 C324 1.368 . S
C328 C327 1.523 . S
H329 C304 0.950 . S
H330 C306 0.950 1_554 S
H331 C307 0.949 . S
H332 C309 0.950 . S
H333 C311 0.950 . S
C334 C335 1.349 . S
C334 C336 1.327 . S
C334 H359 0.950 . S
C335 C334 1.349 . S
C335 C351 1.349 1_554 S
C336 C334 1.327 . S
C336 C355 1.429 1_554 S
C336 H360 0.950 . S
C337 C354 1.574 . S
C337 C356 1.368 . S
C337 H361 0.949 . S
H338 C342 0.949 . S
C339 C340 1.349 . S
C339 C341 1.327 . S
C339 H362 0.950 . S
C340 C339 1.349 . S
C340 C352 1.349 . S
C341 C339 1.327 . S
C341 C357 1.429 . S
C341 H363 0.950 . S
C342 H338 0.949 . S
C342 C350 1.574 . S
C342 C358 1.368 . S
H343 C351 0.950 . S
H344 C349 0.950 . S
H345 C350 0.949 . S
H346 C352 0.950 . S
H347 C353 0.950 . S
H348 C354 0.949 . S
C349 H344 0.950 . S
C349 C351 1.327 . S
C349 C355 1.429 . S
C350 C342 1.574 . S
C350 H345 0.949 . S
C350 C356 1.368 . S
C351 C335 1.349 1_556 S
C351 H343 0.950 . S
C351 C349 1.327 . S
C352 C340 1.349 . S
C352 H346 0.950 . S
C352 C353 1.327 . S
C353 H347 0.950 . S
C353 C352 1.327 . S
C353 C357 1.429 . S
C354 C337 1.574 . S
C354 H348 0.949 . S
C354 C358 1.368 . S
C355 C336 1.429 1_556 S
C355 C349 1.429 . S
C355 C356 1.523 . S
C356 C337 1.368 . S
C356 C350 1.368 . S
C356 C355 1.523 . S
C357 C341 1.429 . S
C357 C353 1.429 . S
C357 C358 1.523 . S
C358 C342 1.368 . S
C358 C354 1.368 . S
C358 C357 1.523 . S
H359 C334 0.950 . S
H360 C336 0.950 . S
H361 C337 0.949 . S
H362 C339 0.950 . S
H363 C341 0.950 . S
C364 C365 1.349 . S
C364 C366 1.327 . S
C364 H389 0.950 . S
C365 C364 1.349 . S
C365 C381 1.349 1_554 S
C366 C364 1.327 . S
C366 C385 1.429 1_554 S
C366 H390 0.950 . S
C367 C384 1.574 . S
C367 C386 1.368 . S
C367 H391 0.949 . S
H368 C372 0.949 . S
C369 C370 1.349 . S
C369 C371 1.327 . S
C369 H392 0.950 . S
C370 C369 1.349 . S
C370 C382 1.349 . S
C371 C369 1.327 . S
C371 C387 1.429 . S
C371 H393 0.950 . S
C372 H368 0.949 . S
C372 C380 1.574 . S
C372 C388 1.368 . S
H373 C381 0.950 . S
H374 C379 0.950 . S
H375 C380 0.949 1_554 S
H376 C382 0.950 . S
H377 C383 0.950 . S
H378 C384 0.949 . S
C379 H374 0.950 . S
C379 C381 1.327 . S
C379 C385 1.429 . S
C380 C372 1.574 . S
C380 H375 0.949 1_556 S
C380 C386 1.368 . S
C381 C365 1.349 1_556 S
C381 H373 0.950 . S
C381 C379 1.327 . S
C382 C370 1.349 . S
C382 H376 0.950 . S
C382 C383 1.327 . S
C383 H377 0.950 . S
C383 C382 1.327 . S
C383 C387 1.429 . S
C384 C367 1.574 . S
C384 H378 0.949 . S
C384 C388 1.368 . S
C385 C366 1.429 1_556 S
C385 C379 1.429 . S
C385 C386 1.523 . S
C386 C367 1.368 . S
C386 C380 1.368 . S
C386 C385 1.523 . S
C387 C371 1.429 . S
C387 C383 1.429 . S
C387 C388 1.523 . S
C388 C372 1.368 . S
C388 C384 1.368 . S
C388 C387 1.523 . S
H389 C364 0.950 . S
H390 C366 0.950 . S
H391 C367 0.949 . S
H392 C369 0.950 . S
H393 C371 0.950 . S
C394 C395 1.349 . S
C394 C396 1.327 . S
C394 H419 0.950 . S
C395 C394 1.349 . S
C395 C411 1.349 . S
C396 C394 1.327 . S
C396 C415 1.429 . S
C396 H420 0.950 . S
C397 C414 1.574 . S
C397 C416 1.368 . S
C397 H421 0.949 . S
H398 C402 0.949 1_455 S
C399 C400 1.349 . S
C399 C401 1.327 . S
C399 H422 0.950 . S
C400 C399 1.349 . S
C400 C412 1.349 1_655 S
C401 C399 1.327 . S
C401 C417 1.429 . S
C401 H423 0.950 . S
C402 H398 0.949 1_655 S
C402 C410 1.574 . S
C402 C418 1.368 . S
H403 C411 0.950 1_554 S
H404 C409 0.950 . S
H405 C410 0.949 . S
H406 C412 0.950 . S
H407 C413 0.950 . S
H408 C414 0.949 . S
C409 H404 0.950 . S
C409 C411 1.327 . S
C409 C415 1.429 . S
C410 C402 1.574 . S
C410 H405 0.949 . S
C410 C416 1.368 . S
C411 C395 1.349 . S
C411 H403 0.950 1_556 S
C411 C409 1.327 . S
C412 C400 1.349 1_455 S
C412 H406 0.950 . S
C412 C413 1.327 . S
C413 H407 0.950 . S
C413 C412 1.327 . S
C413 C417 1.429 1_455 S
C414 C397 1.574 . S
C414 H408 0.949 . S
C414 C418 1.368 . S
C415 C396 1.429 . S
C415 C409 1.429 . S
C415 C416 1.523 . S
C416 C397 1.368 . S
C416 C410 1.368 . S
C416 C415 1.523 . S
C417 C401 1.429 . S
C417 C413 1.429 1_655 S
C417 C418 1.523 . S
C418 C402 1.368 . S
C418 C414 1.368 . S
C418 C417 1.523 . S
H419 C394 0.950 . S
H420 C396 0.950 . S
H421 C397 0.949 . S
H422 C399 0.950 . S
H423 C401 0.950 . S
C424 C425 1.349 . S
C424 C426 1.327 . S
C424 H449 0.950 . S
C425 C424 1.349 . S
C425 C441 1.349 . S
C426 C424 1.327 . S
C426 C445 1.429 . S
C426 H450 0.950 . S
C427 C444 1.574 . S
C427 C446 1.368 . S
C427 H451 0.949 . S
H428 C432 0.949 . S
C429 C430 1.349 . S
C429 C431 1.327 . S
C429 H452 0.950 . S
C430 C429 1.349 . S
C430 C442 1.349 . S
C431 C429 1.327 . S
C431 C447 1.429 . S
C431 H453 0.950 . S
C432 H428 0.949 . S
C432 C440 1.574 . S
C432 C448 1.368 . S
H433 C441 0.950 . S
H434 C439 0.950 . S
H435 C440 0.949 . S
H436 C442 0.950 . S
H437 C443 0.950 . S
H438 C444 0.949 . S
C439 H434 0.950 . S
C439 C441 1.327 . S
C439 C445 1.429 . S
C440 C432 1.574 . S
C440 H435 0.949 . S
C440 C446 1.368 . S
C441 C425 1.349 . S
C441 H433 0.950 . S
C441 C439 1.327 . S
C442 C430 1.349 . S
C442 H436 0.950 . S
C442 C443 1.327 . S
C443 H437 0.950 . S
C443 C442 1.327 . S
C443 C447 1.429 . S
C444 C427 1.574 . S
C444 H438 0.949 . S
C444 C448 1.368 . S
C445 C426 1.429 . S
C445 C439 1.429 . S
C445 C446 1.523 . S
C446 C427 1.368 . S
C446 C440 1.368 . S
C446 C445 1.523 . S
C447 C431 1.429 . S
C447 C443 1.429 . S
C447 C448 1.523 . S
C448 C432 1.368 . S
C448 C444 1.368 . S
C448 C447 1.523 . S
H449 C424 0.950 . S
H450 C426 0.950 . S
H451 C427 0.949 . S
H452 C429 0.950 . S
H453 C431 0.950 . S
C454 C455 1.349 . S
C454 C456 1.327 . S
C454 H479 0.950 . S
C455 C454 1.349 . S
C455 C471 1.349 . S
C456 C454 1.327 . S
C456 C475 1.429 . S
C456 H480 0.950 . S
C457 C474 1.574 . S
C457 C476 1.368 . S
C457 H481 0.949 . S
H458 C462 0.949 . S
C459 C460 1.343 1_565 S
C459 C461 1.325 1_565 S
C459 H482 0.958 . S
C460 C459 1.343 1_545 S
C460 C472 1.349 . S
C461 C459 1.325 1_545 S
C461 C477 1.429 . S
C461 H483 0.950 1_545 S
C462 H458 0.949 . S
C462 C470 1.574 . S
C462 C478 1.368 . S
H463 C471 0.950 . S
H464 C469 0.950 . S
H465 C470 0.949 . S
H466 C472 0.950 . S
H467 C473 0.950 . S
H468 C474 0.949 1_565 S
C469 H464 0.950 . S
C469 C471 1.327 . S
C469 C475 1.429 . S
C470 C462 1.574 . S
C470 H465 0.949 . S
C470 C476 1.368 . S
C471 C455 1.349 . S
C471 H463 0.950 . S
C471 C469 1.327 . S
C472 C460 1.349 . S
C472 H466 0.950 . S
C472 C473 1.327 . S
C473 H467 0.950 . S
C473 C472 1.327 . S
C473 C477 1.429 . S
C474 C457 1.574 . S
C474 H468 0.949 1_545 S
C474 C478 1.368 . S
C475 C456 1.429 . S
C475 C469 1.429 . S
C475 C476 1.523 . S
C476 C457 1.368 . S
C476 C470 1.368 . S
C476 C475 1.523 . S
C477 C461 1.429 . S
C477 C473 1.429 . S
C477 C478 1.523 . S
C478 C462 1.368 . S
C478 C474 1.368 . S
C478 C477 1.523 . S
H479 C454 0.950 . S
H480 C456 0.950 . S
H481 C457 0.949 . S
H482 C459 0.958 . S
H483 C461 0.950 1_565 S
C484 C485 1.349 . S
C484 C486 1.327 . S
C484 H509 0.950 . S
C485 C484 1.349 . S
C485 C501 1.349 . S
C486 C484 1.327 . S
C486 C505 1.429 . S
C486 H510 0.950 . S
C487 C504 1.574 . S
C487 C506 1.368 . S
C487 H511 0.949 . S
H488 C492 0.949 . S
C489 C490 1.349 . S
C489 C491 1.327 . S
C489 H512 0.950 . S
C490 C489 1.349 . S
C490 C502 1.349 . S
C491 C489 1.327 . S
C491 C507 1.429 . S
C491 H513 0.950 . S
C492 H488 0.949 . S
C492 C500 1.574 . S
C492 C508 1.368 . S
H493 C501 0.950 . S
H494 C499 0.950 . S
H495 C500 0.949 . S
H496 C502 0.950 . S
H497 C503 0.950 . S
H498 C504 0.949 . S
C499 H494 0.950 . S
C499 C501 1.327 . S
C499 C505 1.429 . S
C500 C492 1.574 . S
C500 H495 0.949 . S
C500 C506 1.368 . S
C501 C485 1.349 . S
C501 H493 0.950 . S
C501 C499 1.327 . S
C502 C490 1.349 . S
C502 H496 0.950 . S
C502 C503 1.327 . S
C503 H497 0.950 . S
C503 C502 1.327 . S
C503 C507 1.429 . S
C504 C487 1.574 . S
C504 H498 0.949 . S
C504 C508 1.368 . S
C505 C486 1.429 . S
C505 C499 1.429 . S
C505 C506 1.523 . S
C506 C487 1.368 . S
C506 C500 1.368 . S
C506 C505 1.523 . S
C507 C491 1.429 . S
C507 C503 1.429 . S
C507 C508 1.523 . S
C508 C492 1.368 . S
C508 C504 1.368 . S
C508 C507 1.523 . S
H509 C484 0.950 . S
H510 C486 0.950 . S
H511 C487 0.949 . S
H512 C489 0.950 . S
H513 C491 0.950 . S
C514 C515 1.349 . S
C514 C516 1.327 . S
C514 H539 0.950 . S
C515 C514 1.349 . S
C515 C531 1.349 . S
C516 C514 1.327 . S
C516 C535 1.429 . S
C516 H540 0.950 . S
C517 C534 1.574 . S
C517 C536 1.368 . S
C517 H541 0.949 . S
H518 C522 0.949 . S
C519 C520 1.349 . S
C519 C521 1.327 . S
C519 H542 0.950 . S
C520 C519 1.349 . S
C520 C532 1.349 . S
C521 C519 1.327 . S
C521 C537 1.429 . S
C521 H543 0.950 . S
C522 H518 0.949 . S
C522 C530 1.574 . S
C522 C538 1.368 . S
H523 C531 0.950 . S
H524 C529 0.950 . S
H525 C530 0.949 . S
H526 C532 0.950 . S
H527 C533 0.950 . S
H528 C534 0.949 . S
C529 H524 0.950 . S
C529 C531 1.327 . S
C529 C535 1.429 . S
C530 C522 1.574 . S
C530 H525 0.949 . S
C530 C536 1.368 . S
C531 C515 1.349 . S
C531 H523 0.950 . S
C531 C529 1.327 . S
C532 C520 1.349 . S
C532 H526 0.950 . S
C532 C533 1.327 . S
C533 H527 0.950 . S
C533 C532 1.327 . S
C533 C537 1.429 . S
C534 C517 1.574 . S
C534 H528 0.949 . S
C534 C538 1.368 . S
C535 C516 1.429 . S
C535 C529 1.429 . S
C535 C536 1.523 . S
C536 C517 1.368 . S
C536 C530 1.368 . S
C536 C535 1.523 . S
C537 C521 1.429 . S
C537 C533 1.429 . S
C537 C538 1.523 . S
C538 C522 1.368 . S
C538 C534 1.368 . S
C538 C537 1.523 . S
H539 C514 0.950 . S
H540 C516 0.950 . S
H541 C517 0.949 . S
H542 C519 0.950 . S
H543 C521 0.950 . S
C544 C545 1.349 . S
C544 C546 1.327 . S
C544 H569 0.950 . S
C545 C544 1.349 . S
C545 C561 1.349 . S
C546 C544 1.327 . S
C546 C565 1.429 . S
C546 H570 0.950 1_655 S
C547 C564 1.574 . S
C547 C566 1.368 . S
C547 H571 0.949 . S
H548 C552 0.949 . S
C549 C550 1.370 . S
C549 C551 1.327 . S
C549 H572 0.950 . S
C550 C549 1.370 . S
C550 C562 1.331 1_655 S
C551 C549 1.327 . S
C551 C567 1.429 . S
C551 H573 0.950 . S
C552 H548 0.949 . S
C552 C560 1.574 1_455 S
C552 C568 1.368 1_455 S
H553 C561 0.950 . S
H554 C559 0.950 . S
H555 C560 0.949 1_455 S
H556 C562 0.950 . S
H557 C563 0.950 . S
H558 C564 0.949 . S
C559 H554 0.950 . S
C559 C561 1.327 . S
C559 C565 1.429 . S
C560 C552 1.574 1_655 S
C560 H555 0.949 1_655 S
C560 C566 1.368 . S
C561 C545 1.349 . S
C561 H553 0.950 . S
C561 C559 1.327 . S
C562 C550 1.331 1_455 S
C562 H556 0.950 . S
C562 C563 1.327 . S
C563 H557 0.950 . S
C563 C562 1.327 . S
C563 C567 1.429 1_455 S
C564 C547 1.574 . S
C564 H558 0.949 . S
C564 C568 1.368 . S
C565 C546 1.429 . S
C565 C559 1.429 . S
C565 C566 1.523 . S
C566 C547 1.368 . S
C566 C560 1.368 . S
C566 C565 1.523 . S
C567 C551 1.429 . S
C567 C563 1.429 1_655 S
C567 C568 1.523 . S
C568 C552 1.368 1_655 S
C568 C564 1.368 . S
C568 C567 1.523 . S
H569 C544 0.950 . S
H570 C546 0.950 1_455 S
H571 C547 0.949 . S
H572 C549 0.950 . S
H573 C551 0.950 . S
C574 C575 1.349 . S
C574 C576 1.327 . S
C574 H599 0.950 . S
C575 C574 1.349 . S
C575 C591 1.349 . S
C576 C574 1.327 . S
C576 C595 1.429 . S
C576 H600 0.950 . S
C577 C594 1.574 1_565 S
C577 C596 1.368 . S
C577 H601 0.949 1_565 S
H578 C582 0.949 . S
C579 C580 1.357 . S
C579 C581 1.327 . S
C579 H602 0.950 . S
C580 C579 1.357 . S
C580 C592 1.338 1_545 S
C581 C579 1.327 . S
C581 C597 1.429 1_545 S
C581 H603 0.950 . S
C582 H578 0.949 . S
C582 C590 1.574 . S
C582 C598 1.368 . S
H583 C591 0.950 1_554 S
H584 C589 0.950 1_545 S
H585 C590 0.949 . S
H586 C592 0.950 . S
H587 C593 0.950 . S
H588 C594 0.949 . S
C589 H584 0.950 1_565 S
C589 C591 1.327 . S
C589 C595 1.429 . S
C590 C582 1.574 . S
C590 H585 0.949 . S
C590 C596 1.368 . S
C591 C575 1.349 . S
C591 H583 0.950 1_556 S
C591 C589 1.327 . S
C592 C580 1.338 1_565 S
C592 H586 0.950 . S
C592 C593 1.327 . S
C593 H587 0.950 . S
C593 C592 1.327 . S
C593 C597 1.429 . S
C594 C577 1.574 1_545 S
C594 H588 0.949 . S
C594 C598 1.368 1_545 S
C595 C576 1.429 . S
C595 C589 1.429 . S
C595 C596 1.523 . S
C596 C577 1.368 . S
C596 C590 1.368 . S
C596 C595 1.523 . S
C597 C581 1.429 1_565 S
C597 C593 1.429 . S
C597 C598 1.523 . S
C598 C582 1.368 . S
C598 C594 1.368 1_565 S
C598 C597 1.523 . S
H599 C574 0.950 . S
H600 C576 0.950 . S
H601 C577 0.949 1_545 S
H602 C579 0.950 . S
H603 C581 0.950 . S
C604 C605 1.349 1_556 S
C604 C606 1.327 . S
C604 H629 0.950 . S
C605 C604 1.349 1_554 S
C605 C621 1.349 . S
C606 C604 1.327 . S
C606 C625 1.429 . S
C606 H630 0.950 . S
C607 C624 1.574 . S
C607 C626 1.368 . S
C607 H631 0.949 . S
H608 C612 0.949 . S
C609 C610 1.349 . S
C609 C611 1.327 . S
C609 H632 0.950 . S
C610 C609 1.349 . S
C610 C622 1.349 . S
C611 C609 1.327 . S
C611 C627 1.429 . S
C611 H633 0.950 . S
C612 H608 0.949 . S
C612 C620 1.574 . S
C612 C628 1.368 . S
H613 C621 0.950 . S
H614 C619 0.950 . S
H615 C620 0.949 . S
H616 C622 0.950 . S
H617 C623 0.950 . S
H618 C624 0.949 . S
C619 H614 0.950 . S
C619 C621 1.327 . S
C619 C625 1.429 1_554 S
C620 C612 1.574 . S
C620 H615 0.949 . S
C620 C626 1.368 . S
C621 C605 1.349 . S
C621 H613 0.950 . S
C621 C619 1.327 . S
C622 C610 1.349 . S
C622 H616 0.950 . S
C622 C623 1.327 . S
C623 H617 0.950 . S
C623 C622 1.327 . S
C623 C627 1.429 . S
C624 C607 1.574 . S
C624 H618 0.949 . S
C624 C628 1.368 . S
C625 C606 1.429 . S
C625 C619 1.429 1_556 S
C625 C626 1.523 . S
C626 C607 1.368 . S
C626 C620 1.368 . S
C626 C625 1.523 . S
C627 C611 1.429 . S
C627 C623 1.429 . S
C627 C628 1.523 . S
C628 C612 1.368 . S
C628 C624 1.368 . S
C628 C627 1.523 . S
H629 C604 0.950 . S
H630 C606 0.950 . S
H631 C607 0.949 . S
H632 C609 0.950 . S
H633 C611 0.950 . S
C634 C635 1.349 . S
C634 C636 1.327 . S
C634 H659 0.950 . S
C635 C634 1.349 . S
C635 C651 1.349 . S
C636 C634 1.327 . S
C636 C655 1.429 . S
C636 H660 0.950 . S
C637 C654 1.574 . S
C637 C656 1.368 . S
C637 H661 0.949 . S
H638 C642 0.949 . S
C639 C640 1.349 . S
C639 C641 1.327 . S
C639 H662 0.950 . S
C640 C639 1.349 . S
C640 C652 1.349 . S
C641 C639 1.327 . S
C641 C657 1.429 . S
C641 H663 0.950 . S
C642 H638 0.949 . S
C642 C650 1.574 . S
C642 C658 1.368 . S
H643 C651 0.950 1_554 S
H644 C649 0.950 . S
H645 C650 0.949 . S
H646 C652 0.950 . S
H647 C653 0.950 . S
H648 C654 0.949 . S
C649 H644 0.950 . S
C649 C651 1.327 . S
C649 C655 1.429 . S
C650 C642 1.574 . S
C650 H645 0.949 . S
C650 C656 1.368 . S
C651 C635 1.349 . S
C651 H643 0.950 1_556 S
C651 C649 1.327 . S
C652 C640 1.349 . S
C652 H646 0.950 . S
C652 C653 1.327 . S
C653 H647 0.950 . S
C653 C652 1.327 . S
C653 C657 1.429 . S
C654 C637 1.574 . S
C654 H648 0.949 . S
C654 C658 1.368 . S
C655 C636 1.429 . S
C655 C649 1.429 . S
C655 C656 1.523 . S
C656 C637 1.368 . S
C656 C650 1.368 . S
C656 C655 1.523 . S
C657 C641 1.429 . S
C657 C653 1.429 . S
C657 C658 1.523 . S
C658 C642 1.368 . S
C658 C654 1.368 . S
C658 C657 1.523 . S
H659 C634 0.950 . S
H660 C636 0.950 . S
H661 C637 0.949 . S
H662 C639 0.950 . S
H663 C641 0.950 . S
C664 C665 1.349 . S
C664 C666 1.327 . S
C664 H689 0.950 . S
C665 C664 1.349 . S
C665 C681 1.349 . S
C666 C664 1.327 . S
C666 C685 1.429 . S
C666 H690 0.950 . S
C667 C684 1.574 1_554 S
C667 C686 1.368 . S
C667 H691 0.949 . S
H668 C672 0.949 . S
C669 C670 1.349 . S
C669 C671 1.327 . S
C669 H692 0.950 . S
C670 C669 1.349 . S
C670 C682 1.349 . S
C671 C669 1.327 . S
C671 C687 1.429 . S
C671 H693 0.950 . S
C672 H668 0.949 . S
C672 C680 1.574 . S
C672 C688 1.368 1_554 S
H673 C681 0.950 . S
H674 C679 0.950 . S
H675 C680 0.949 . S
H676 C682 0.950 . S
H677 C683 0.950 1_554 S
H678 C684 0.949 . S
C679 H674 0.950 . S
C679 C681 1.327 . S
C679 C685 1.429 . S
C680 C672 1.574 . S
C680 H675 0.949 . S
C680 C686 1.368 . S
C681 C665 1.349 . S
C681 H673 0.950 . S
C681 C679 1.327 . S
C682 C670 1.349 . S
C682 H676 0.950 . S
C682 C683 1.327 . S
C683 H677 0.950 1_556 S
C683 C682 1.327 . S
C683 C687 1.429 . S
C684 C667 1.574 1_556 S
C684 H678 0.949 . S
C684 C688 1.368 . S
C685 C666 1.429 . S
C685 C679 1.429 . S
C685 C686 1.523 . S
C686 C667 1.368 . S
C686 C680 1.368 . S
C686 C685 1.523 . S
C687 C671 1.429 . S
C687 C683 1.429 . S
C687 C688 1.523 . S
C688 C672 1.368 1_556 S
C688 C684 1.368 . S
C688 C687 1.523 . S
H689 C664 0.950 . S
H690 C666 0.950 . S
H691 C667 0.949 . S
H692 C669 0.950 . S
H693 C671 0.950 . S
C694 C695 1.349 . S
C694 C696 1.327 . S
C694 H719 0.950 . S
C695 C694 1.349 . S
C695 C711 1.349 . S
C696 C694 1.327 . S
C696 C715 1.429 . S
C696 H720 0.950 . S
C697 C714 1.574 1_554 S
C697 C716 1.368 . S
C697 H721 0.949 . S
H698 C702 0.949 1_556 S
C699 C700 1.349 . S
C699 C701 1.327 . S
C699 H722 0.950 1_545 S
C700 C699 1.349 . S
C700 C712 1.349 . S
C701 C699 1.327 . S
C701 C717 1.429 . S
C701 H723 0.950 1_545 S
C702 H698 0.949 1_554 S
C702 C710 1.574 . S
C702 C718 1.368 1_554 S
H703 C711 0.950 . S
H704 C709 0.950 . S
H705 C710 0.949 . S
H706 C712 0.950 . S
H707 C713 0.950 . S
H708 C714 0.949 . S
C709 H704 0.950 . S
C709 C711 1.327 . S
C709 C715 1.429 . S
C710 C702 1.574 . S
C710 H705 0.949 . S
C710 C716 1.368 . S
C711 C695 1.349 . S
C711 H703 0.950 . S
C711 C709 1.327 . S
C712 C700 1.349 . S
C712 H706 0.950 . S
C712 C713 1.327 . S
C713 H707 0.950 . S
C713 C712 1.327 . S
C713 C717 1.429 . S
C714 C697 1.574 1_556 S
C714 H708 0.949 . S
C714 C718 1.368 . S
C715 C696 1.429 . S
C715 C709 1.429 . S
C715 C716 1.523 . S
C716 C697 1.368 . S
C716 C710 1.368 . S
C716 C715 1.523 . S
C717 C701 1.429 . S
C717 C713 1.429 . S
C717 C718 1.523 . S
C718 C702 1.368 1_556 S
C718 C714 1.368 . S
C718 C717 1.523 . S
H719 C694 0.950 . S
H720 C696 0.950 . S
H721 C697 0.949 . S
H722 C699 0.950 1_565 S
H723 C701 0.950 1_565 S
C724 C725 1.349 . S
C724 C726 1.327 . S
C724 H749 0.950 . S
C725 C724 1.349 . S
C725 C741 1.349 . S
C726 C724 1.327 . S
C726 C745 1.429 . S
C726 H750 0.950 . S
C727 C744 1.574 . S
C727 C746 1.368 . S
C727 H751 0.949 . S
H728 C732 0.949 . S
C729 C730 1.349 . S
C729 C731 1.327 . S
C729 H752 0.950 . S
C730 C729 1.349 . S
C730 C742 1.349 . S
C731 C729 1.327 . S
C731 C747 1.429 . S
C731 H753 0.950 . S
C732 H728 0.949 . S
C732 C740 1.574 . S
C732 C748 1.368 . S
H733 C741 0.950 . S
H734 C739 0.950 . S
H735 C740 0.949 . S
H736 C742 0.950 . S
H737 C743 0.950 . S
H738 C744 0.949 . S
C739 H734 0.950 . S
C739 C741 1.327 . S
C739 C745 1.429 . S
C740 C732 1.574 . S
C740 H735 0.949 . S
C740 C746 1.368 1_556 S
C741 C725 1.349 . S
C741 H733 0.950 . S
C741 C739 1.327 . S
C742 C730 1.349 . S
C742 H736 0.950 . S
C742 C743 1.327 . S
C743 H737 0.950 . S
C743 C742 1.327 . S
C743 C747 1.429 . S
C744 C727 1.574 . S
C744 H738 0.949 . S
C744 C748 1.368 1_554 S
C745 C726 1.429 . S
C745 C739 1.429 . S
C745 C746 1.523 . S
C746 C727 1.368 . S
C746 C740 1.368 1_554 S
C746 C745 1.523 . S
C747 C731 1.429 . S
C747 C743 1.429 . S
C747 C748 1.523 . S
C748 C732 1.368 . S
C748 C744 1.368 1_556 S
C748 C747 1.523 . S
H749 C724 0.950 . S
H750 C726 0.950 . S
H751 C727 0.949 . S
H752 C729 0.950 . S
H753 C731 0.950 . S
C754 C755 1.349 . S
C754 C756 1.327 . S
C754 H779 0.950 . S
C755 C754 1.349 . S
C755 C771 1.349 . S
C756 C754 1.327 . S
C756 C775 1.429 . S
C756 H780 0.950 . S
C757 C774 1.574 . S
C757 C776 1.368 . S
C757 H781 0.949 . S
H758 C762 0.949 . S
C759 C760 1.349 . S
C759 C761 1.327 . S
C759 H782 0.950 . S
C760 C759 1.349 . S
C760 C772 1.349 . S
C761 C759 1.327 . S
C761 C777 1.429 . S
C761 H783 0.950 . S
C762 H758 0.949 . S
C762 C770 1.574 1_556 S
C762 C778 1.368 . S
H763 C771 0.950 . S
H764 C769 0.950 . S
H765 C770 0.949 1_556 S
H766 C772 0.950 . S
H767 C773 0.950 . S
H768 C774 0.949 . S
C769 H764 0.950 . S
C769 C771 1.327 . S
C769 C775 1.429 . S
C770 C762 1.574 1_554 S
C770 H765 0.949 1_554 S
C770 C776 1.368 . S
C771 C755 1.349 . S
C771 H763 0.950 . S
C771 C769 1.327 . S
C772 C760 1.349 . S
C772 H766 0.950 . S
C772 C773 1.327 . S
C773 H767 0.950 . S
C773 C772 1.327 . S
C773 C777 1.429 . S
C774 C757 1.574 . S
C774 H768 0.949 . S
C774 C778 1.368 1_554 S
C775 C756 1.429 . S
C775 C769 1.429 . S
C775 C776 1.523 . S
C776 C757 1.368 . S
C776 C770 1.368 . S
C776 C775 1.523 . S
C777 C761 1.429 . S
C777 C773 1.429 . S
C777 C778 1.523 . S
C778 C762 1.368 . S
C778 C774 1.368 1_556 S
C778 C777 1.523 . S
H779 C754 0.950 . S
H780 C756 0.950 . S
H781 C757 0.949 . S
H782 C759 0.950 . S
H783 C761 0.950 . S
C784 C785 1.349 . S
C784 C786 1.327 . S
C784 H809 0.950 . S
C785 C784 1.349 . S
C785 C801 1.349 . S
C786 C784 1.327 . S
C786 C805 1.429 . S
C786 H810 0.950 . S
C787 C804 1.574 . S
C787 C806 1.368 . S
C787 H811 0.949 . S
H788 C792 0.949 . S
C789 C790 1.349 . S
C789 C791 1.327 . S
C789 H812 0.950 . S
C790 C789 1.349 . S
C790 C802 1.349 . S
C791 C789 1.327 . S
C791 C807 1.429 . S
C791 H813 0.950 . S
C792 H788 0.949 . S
C792 C800 1.574 . S
C792 C808 1.368 . S
H793 C801 0.950 . S
H794 C799 0.950 . S
H795 C800 0.949 . S
H796 C802 0.950 . S
H797 C803 0.950 . S
H798 C804 0.949 . S
C799 H794 0.950 . S
C799 C801 1.327 . S
C799 C805 1.429 . S
C800 C792 1.574 . S
C800 H795 0.949 . S
C800 C806 1.368 . S
C801 C785 1.349 . S
C801 H793 0.950 . S
C801 C799 1.327 . S
C802 C790 1.349 . S
C802 H796 0.950 . S
C802 C803 1.327 . S
C803 H797 0.950 . S
C803 C802 1.327 . S
C803 C807 1.429 . S
C804 C787 1.574 . S
C804 H798 0.949 . S
C804 C808 1.368 . S
C805 C786 1.429 . S
C805 C799 1.429 . S
C805 C806 1.523 . S
C806 C787 1.368 . S
C806 C800 1.368 . S
C806 C805 1.523 . S
C807 C791 1.429 . S
C807 C803 1.429 . S
C807 C808 1.523 . S
C808 C792 1.368 . S
C808 C804 1.368 . S
C808 C807 1.523 . S
H809 C784 0.950 . S
H810 C786 0.950 . S
H811 C787 0.949 . S
H812 C789 0.950 . S
H813 C791 0.950 . S
C814 C815 1.349 . S
C814 C816 1.327 . S
C814 H839 0.950 . S
C815 C814 1.349 . S
C815 C831 1.349 . S
C816 C814 1.327 . S
C816 C835 1.429 . S
C816 H840 0.950 . S
C817 C834 1.574 . S
C817 C836 1.368 . S
C817 H841 0.926 1_565 S
H818 C822 0.949 . S
C819 C820 1.349 1_545 S
C819 C821 1.327 . S
C819 H842 0.950 . S
C820 C819 1.349 1_565 S
C820 C832 1.349 . S
C821 C819 1.327 . S
C821 C837 1.429 1_545 S
C821 H843 0.950 . S
C822 H818 0.949 . S
C822 C830 1.574 . S
C822 C838 1.368 . S
H823 C831 0.950 . S
H824 C829 0.950 . S
H825 C830 0.949 . S
H826 C832 0.950 . S
H827 C833 0.950 . S
H828 C834 0.949 1_545 S
C829 H824 0.950 . S
C829 C831 1.327 . S
C829 C835 1.429 . S
C830 C822 1.574 . S
C830 H825 0.949 . S
C830 C836 1.368 . S
C831 C815 1.349 . S
C831 H823 0.950 . S
C831 C829 1.327 . S
C832 C820 1.349 . S
C832 H826 0.950 . S
C832 C833 1.327 . S
C833 H827 0.950 . S
C833 C832 1.327 . S
C833 C837 1.429 . S
C834 C817 1.574 . S
C834 H828 0.949 1_565 S
C834 C838 1.368 . S
C835 C816 1.429 . S
C835 C829 1.429 . S
C835 C836 1.523 . S
C836 C817 1.368 . S
C836 C830 1.368 . S
C836 C835 1.523 . S
C837 C821 1.429 1_565 S
C837 C833 1.429 . S
C837 C838 1.523 . S
C838 C822 1.368 . S
C838 C834 1.368 . S
C838 C837 1.523 . S
H839 C814 0.950 . S
H840 C816 0.950 . S
H841 C817 0.926 1_545 S
H842 C819 0.950 . S
H843 C821 0.950 . S
C844 C845 1.349 . S
C844 C846 1.327 . S
C844 H869 0.950 . S
C845 C844 1.349 . S
C845 C861 1.349 . S
C846 C844 1.327 . S
C846 C865 1.429 . S
C846 H870 0.950 . S
C847 C864 1.574 . S
C847 C866 1.368 . S
C847 H871 0.949 . S
H848 C852 0.949 . S
C849 C850 1.349 . S
C849 C851 1.327 . S
C849 H872 0.950 . S
C850 C849 1.349 . S
C850 C862 1.349 . S
C851 C849 1.327 . S
C851 C867 1.429 . S
C851 H873 0.950 . S
C852 H848 0.949 . S
C852 C860 1.574 . S
C852 C868 1.368 . S
H853 C861 0.950 . S
H854 C859 0.950 . S
H855 C860 0.949 . S
H856 C862 0.950 . S
H857 C863 0.950 . S
H858 C864 0.949 . S
C859 H854 0.950 . S
C859 C861 1.327 . S
C859 C865 1.429 . S
C860 C852 1.574 . S
C860 H855 0.949 . S
C860 C866 1.368 . S
C861 C845 1.349 . S
C861 H853 0.950 . S
C861 C859 1.327 . S
C862 C850 1.349 . S
C862 H856 0.950 . S
C862 C863 1.327 . S
C863 H857 0.950 . S
C863 C862 1.327 . S
C863 C867 1.429 . S
C864 C847 1.574 . S
C864 H858 0.949 . S
C864 C868 1.368 . S
C865 C846 1.429 . S
C865 C859 1.429 . S
C865 C866 1.523 . S
C866 C847 1.368 . S
C866 C860 1.368 . S
C866 C865 1.523 . S
C867 C851 1.429 . S
C867 C863 1.429 . S
C867 C868 1.523 . S
C868 C852 1.368 . S
C868 C864 1.368 . S
C868 C867 1.523 . S
H869 C844 0.950 . S
H870 C846 0.950 . S
H871 C847 0.949 . S
H872 C849 0.950 . S
H873 C851 0.950 . S
C874 C875 1.349 . S
C874 C876 1.327 . S
C874 H899 0.950 . S
C875 C874 1.349 . S
C875 C891 1.349 . S
C876 C874 1.327 . S
C876 C895 1.429 . S
C876 H900 0.950 . S
C877 C894 1.574 . S
C877 C896 1.368 . S
C877 H901 0.949 . S
H878 C882 0.949 . S
C879 C880 1.349 . S
C879 C881 1.327 . S
C879 H902 0.950 . S
C880 C879 1.349 . S
C880 C892 1.349 . S
C881 C879 1.327 . S
C881 C897 1.429 . S
C881 H903 0.950 . S
C882 H878 0.949 . S
C882 C890 1.574 . S
C882 C898 1.368 . S
H883 C891 0.950 . S
H884 C889 0.950 . S
H885 C890 0.949 . S
H886 C892 0.950 . S
H887 C893 0.950 . S
H888 C894 0.949 . S
C889 H884 0.950 . S
C889 C891 1.327 . S
C889 C895 1.429 . S
C890 C882 1.574 . S
C890 H885 0.949 . S
C890 C896 1.368 . S
C891 C875 1.349 . S
C891 H883 0.950 . S
C891 C889 1.327 . S
C892 C880 1.349 . S
C892 H886 0.950 . S
C892 C893 1.327 . S
C893 H887 0.950 . S
C893 C892 1.327 . S
C893 C897 1.429 . S
C894 C877 1.574 . S
C894 H888 0.949 . S
C894 C898 1.368 . S
C895 C876 1.429 . S
C895 C889 1.429 . S
C895 C896 1.523 . S
C896 C877 1.368 . S
C896 C890 1.368 . S
C896 C895 1.523 . S
C897 C881 1.429 . S
C897 C893 1.429 . S
C897 C898 1.523 . S
C898 C882 1.368 . S
C898 C894 1.368 . S
C898 C897 1.523 . S
H899 C874 0.950 . S
H900 C876 0.950 . S
H901 C877 0.949 . S
H902 C879 0.950 . S
H903 C881 0.950 . S
C185 N80 1.605 . S
C190 C105 1.615 . S
C220 C140 1.597 . S
C215 N93 1.582 . S
C250 C145 1.315 . S
C245 N54 1.311 . S
C280 C165 1.410 . S
C275 N67 1.401 . S
C310 C113 1.615 1_565 S
C305 N28 1.613 1_556 S
C335 N41 1.593 . S
C340 C130 1.597 . S
C365 N2 1.314 . S
C370 C153 1.315 . S
C395 N15 1.409 . S
C400 C173 1.410 1_655 S
C430 C123 1.053 . S
C425 N70 1.079 . S
C460 C132 0.769 . S
C455 N83 0.771 . S
C490 C163 1.137 . S
C485 N96 1.155 . S
C515 N57 0.832 . S
C520 C183 0.822 . S
C545 N18 1.081 . S
C550 C112 1.047 1_655 S
C580 C143 0.777 . S
C575 N31 0.771 1_556 S
C610 C152 1.137 . S
C605 N44 1.158 . S
C635 N5 0.833 1_556 S
C640 C172 0.822 . S
C665 N66 1.468 . S
C670 C110 1.455 . S
C695 N79 1.428 . S
C700 C133 1.445 . S
C730 C150 1.552 . S
C725 N92 1.551 . S
C760 C170 1.584 . S
C755 N53 1.601 . S
C785 N14 1.479 . S
C790 C120 1.455 . S
C820 C125 1.436 1_565 S
C815 N27 1.441 . S
C850 C160 1.552 . S
C845 N40 1.568 . S
C875 N1 1.606 . S
C880 C180 1.584 . S
