# Generated by pormake.
# Topology anh, (6,3)-cn, num edge types: 1
# Building blocks:
#     Node 0, Type 0, BuildingBlock: BETDIP_clean_sbu_0, # of connection points: 6
#     Node 1, Type 0, BuildingBlock: BETDIP_clean_sbu_0, # of connection points: 6
#     Node 2, Type 0, BuildingBlock: BETDIP_clean_sbu_0, # of connection points: 6
#     Node 3, Type 1, BuildingBlock: MIDCAF_clean_linker_0, # of connection points: 3
#     Node 4, Type 1, BuildingBlock: MIDCAF_clean_linker_0, # of connection points: 3
#     Node 5, Type 1, BuildingBlock: MIDCAF_clean_linker_0, # of connection points: 3
#     Node 6, Type 1, BuildingBlock: MIDCAF_clean_linker_0, # of connection points: 3
#     Node 7, Type 1, BuildingBlock: MIDCAF_clean_linker_0, # of connection points: 3
#     Node 8, Type 1, BuildingBlock: MIDCAF_clean_linker_0, # of connection points: 3
#     Edge 9, Type (0, 1), BuildingBlock: UVAHIK_clean_linker_0, # of connection points: 2
#     Edge 10, Type (0, 1), BuildingBlock: UVAHIK_clean_linker_0, # of connection points: 2
#     Edge 11, Type (0, 1), BuildingBlock: UVAHIK_clean_linker_0, # of connection points: 2
#     Edge 12, Type (0, 1), BuildingBlock: UVAHIK_clean_linker_0, # of connection points: 2
#     Edge 13, Type (0, 1), BuildingBlock: UVAHIK_clean_linker_0, # of connection points: 2
#     Edge 14, Type (0, 1), BuildingBlock: UVAHIK_clean_linker_0, # of connection points: 2
#     Edge 15, Type (0, 1), BuildingBlock: UVAHIK_clean_linker_0, # of connection points: 2
#     Edge 16, Type (0, 1), BuildingBlock: UVAHIK_clean_linker_0, # of connection points: 2
#     Edge 17, Type (0, 1), BuildingBlock: UVAHIK_clean_linker_0, # of connection points: 2
#     Edge 18, Type (0, 1), BuildingBlock: UVAHIK_clean_linker_0, # of connection points: 2
#     Edge 19, Type (0, 1), BuildingBlock: UVAHIK_clean_linker_0, # of connection points: 2
#     Edge 20, Type (0, 1), BuildingBlock: UVAHIK_clean_linker_0, # of connection points: 2
#     Edge 21, Type (0, 1), BuildingBlock: UVAHIK_clean_linker_0, # of connection points: 2
#     Edge 22, Type (0, 1), BuildingBlock: UVAHIK_clean_linker_0, # of connection points: 2
#     Edge 23, Type (0, 1), BuildingBlock: UVAHIK_clean_linker_0, # of connection points: 2
#     Edge 24, Type (0, 1), BuildingBlock: UVAHIK_clean_linker_0, # of connection points: 2
#     Edge 25, Type (0, 1), BuildingBlock: UVAHIK_clean_linker_0, # of connection points: 2
#     Edge 26, Type (0, 1), BuildingBlock: UVAHIK_clean_linker_0, # of connection points: 2
# Relax obj value: 0.208
# Max RMSD: 0.179
# Mean RMSD: 0.150
data_MOF--net-anh--node1-BETDIP_clean_sbu_0--node2-MIDCAF_clean_linker_0--edge1-UVAHIK_clean_linker_0
_symmetry_space_group_name_H-M    P1
_symmetry_Int_Tables_number       1
_symmetry_cell_setting            triclinic
loop_
_symmetry_equiv_pos_as_xyz
'x, y, z'
_cell_length_a     45.015065
_cell_length_b     44.980268
_cell_length_c     81.334589
_cell_angle_alpha  90.425001
_cell_angle_beta   89.674884
_cell_angle_gamma 119.96824
loop_
_atom_site_label
_atom_site_type_symbol
_atom_site_fract_x
_atom_site_fract_y
_atom_site_fract_z
_atom_type_partial_charge
Tb0 Tb 0.11229 0.59662 0.17102 0.0
Tb1 Tb 0.07584 0.5226 0.16187 0.0
C2 C 0.15255 0.65278 0.18442 0.0
C3 C 0.1904 0.6725 0.18493 0.0
C4 C 0.20919 0.66024 0.19348 0.0
C5 C 0.24494 0.67739 0.19245 0.0
C6 C 0.26254 0.70697 0.18279 0.0
C7 C 0.24384 0.71963 0.17455 0.0
C8 C 0.20815 0.70267 0.17568 0.0
C9 C 0.10213 0.58361 0.13945 0.0
C10 C 0.15527 0.55672 0.16459 0.0
C11 C 1.03445 0.46702 0.14829 0.0
C12 C 0.99735 0.45254 0.14596 0.0
C13 C 0.98188 0.43719 0.13096 0.0
C14 C 0.94754 0.42743 0.12805 0.0
C15 C 0.92837 0.43324 0.14006 0.0
C16 C 0.9439 0.44812 0.15516 0.0
C17 C 0.97799 0.45773 0.15806 0.0
C18 C 0.08582 0.53529 0.19362 0.0
C19 C 1.03391 0.56364 0.16614 0.0
O20 O 0.13752 0.6236 0.19237 0.0
O21 O 0.13895 0.65032 0.16993 0.0
O22 O 0.11041 0.56835 0.14971 0.0
O23 O 0.1012 0.609 0.14656 0.0
O24 O 0.15405 0.58348 0.171 0.0
O25 O 0.12733 0.53018 0.1584 0.0
O26 O 1.05359 0.49523 0.14011 0.0
O27 O 1.04474 0.46913 0.16351 0.0
O28 O 0.07748 0.55089 0.18349 0.0
O29 O 0.08664 0.51009 0.1862 0.0
O30 O 1.03601 0.53772 0.15946 0.0
O31 O 1.0605 0.58864 0.17396 0.0
H32 H 0.19634 0.63698 0.20069 0.0
H33 H 0.25877 0.6671 0.19892 0.0
H34 H 0.25685 0.74281 0.16729 0.0
H35 H 0.19434 0.71276 0.16903 0.0
H36 H 0.99658 0.43354 0.12137 0.0
H37 H 0.93626 0.41609 0.11629 0.0
H38 H 0.92969 0.45235 0.16479 0.0
H39 H 0.98941 0.46997 0.16967 0.0
Tb40 Tb 0.61115 0.05773 0.50471 0.0
Tb41 Tb 0.57141 0.09242 0.49635 0.0
C42 C 0.62817 1.01898 0.5185 0.0
C43 C 0.61197 0.9814 0.51852 0.0
C44 C 0.61197 0.9644 0.53288 0.0
C45 C 0.59585 0.9286 0.53309 0.0
C46 C 0.57971 0.90934 0.5189 0.0
C47 C 0.57933 0.92642 0.5046 0.0
C48 C 0.59508 0.96214 0.50444 0.0
C49 C 0.60919 0.06919 0.47338 0.0
C50 C 0.52836 1.01255 0.49817 0.0
C51 C 0.55492 0.13233 0.48331 0.0
C52 C 0.57722 0.16846 0.47833 0.0
C53 C 0.60084 0.17712 0.46528 0.0
C54 C 0.62696 0.21111 0.4631 0.0
C55 C 0.63006 0.23677 0.47403 0.0
C56 C 0.60487 0.22856 0.48618 0.0
C57 C 0.57856 0.19478 0.48823 0.0
C58 C 0.57407 0.08088 0.52781 0.0
C59 C 0.65425 0.13657 0.50012 0.0
O60 O 0.61069 1.03128 0.52594 0.0
O61 O 0.64099 1.03401 0.50441 0.0
O62 O 0.58515 0.05998 0.48357 0.0
O63 O 0.63523 0.06959 0.48034 0.0
O64 O 0.55713 1.01417 0.5035 0.0
O65 O 0.52821 1.04054 0.49333 0.0
O66 O 0.55849 0.10925 0.47501 0.0
O67 O 0.55305 0.1268 0.49917 0.0
O68 O 0.59826 0.0909 0.51759 0.0
O69 O 0.54731 0.07863 0.52067 0.0
O70 O 0.62579 0.13354 0.49364 0.0
O71 O 0.65368 0.11026 0.50764 0.0
H72 H 0.6245 0.97883 0.5439 0.0
H73 H 0.59674 0.916 0.54423 0.0
H74 H 0.56681 0.9121 0.49355 0.0
H75 H 0.59411 0.9747 0.49331 0.0
H76 H 0.60047 0.15749 0.45734 0.0
H77 H 0.64606 0.21687 0.45362 0.0
H78 H 0.60638 0.24811 0.49455 0.0
H79 H 0.56053 0.18893 0.49825 0.0
Tb80 Tb 0.58439 0.56732 0.83702 0.0
Tb81 Tb 0.65906 0.60588 0.82978 0.0
C82 C 0.5269 0.55032 0.84918 0.0
C83 C 0.50473 0.56522 0.84704 0.0
C84 C 0.47858 0.55826 0.85838 0.0
C85 C 0.45676 0.57156 0.85596 0.0
C86 C 0.46078 0.59192 0.84214 0.0
C87 C 0.48766 0.59958 0.83106 0.0
C88 C 0.50954 0.58644 0.83352 0.0
C89 C 0.60017 0.57052 0.80575 0.0
C90 C 0.6237 0.65011 0.83081 0.0
C91 C 0.71622 0.61952 0.81854 0.0
C92 C 0.73068 0.5964 0.8187 0.0
C93 C 0.73604 0.58361 0.80384 0.0
C94 C 0.74175 0.55572 0.80385 0.0
C95 C 0.742 0.54014 0.81873 0.0
C96 C 0.73868 0.55428 0.83359 0.0
C97 C 0.73306 0.58204 0.8336 0.0
C98 C 0.64278 0.60177 0.8612 0.0
C99 C 0.61894 0.52302 0.83317 0.0
O100 O 0.55577 0.56984 0.85689 0.0
O101 O 0.5311 0.53596 0.83599 0.0
O102 O 0.61451 0.59402 0.81626 0.0
O103 O 0.5739 0.54448 0.81234 0.0
O104 O 0.59661 0.62192 0.83665 0.0
O105 O 0.65106 0.64918 0.82539 0.0
O106 O 0.68905 0.60895 0.8093 0.0
O107 O 0.71245 0.63078 0.83286 0.0
O108 O 0.62874 0.5782 0.85065 0.0
O109 O 0.66836 0.62829 0.85448 0.0
O110 O 0.64513 0.55136 0.82709 0.0
O111 O 0.59321 0.52415 0.84055 0.0
H112 H 0.47469 0.54209 0.86891 0.0
H113 H 0.43598 0.56491 0.8646 0.0
H114 H 0.49148 0.6154 0.82039 0.0
H115 H 0.52987 0.59235 0.82472 0.0
H116 H 0.73389 0.59393 0.7922 0.0
H117 H 0.74424 0.54531 0.79221 0.0
H118 H 0.7395 0.54326 0.84526 0.0
H119 H 0.72881 0.591 0.84529 0.0
C120 C 0.56989 1.00365 0.22331 0.0
C121 C 0.55531 0.99346 0.20758 0.0
C122 C 0.55137 1.01711 0.19794 0.0
C123 C 0.56031 0.04953 0.20415 0.0
H124 H 0.5706 0.14374 0.19195 0.0
H125 H 0.58902 0.19055 0.17247 0.0
H126 H 0.64131 0.26373 0.21157 0.0
H127 H 0.62206 0.21695 0.23114 0.0
H128 H 0.62042 0.18536 0.26922 0.0
H129 H 0.62308 0.18982 0.29937 0.0
H130 H 0.55723 0.08005 0.30281 0.0
H131 H 0.55485 0.07544 0.27299 0.0
H132 H 0.58871 1.04256 0.24194 0.0
H133 H 0.57393 0.98637 0.23095 0.0
H134 H 0.53975 1.01006 0.18587 0.0
H135 H 0.55589 0.06668 0.1966 0.0
N136 N 0.58329 0.11776 0.21757 0.0
N137 N 0.59141 0.15253 0.24072 0.0
N138 N 0.58097 0.09629 0.24392 0.0
C139 C 0.58935 0.14817 0.2241 0.0
C140 C 0.5868 0.12641 0.25069 0.0
C141 C 0.57939 0.09184 0.22739 0.0
C142 C 0.59555 0.17663 0.21302 0.0
C143 C 0.58551 0.16985 0.19645 0.0
C144 C 0.59602 0.19667 0.18528 0.0
C145 C 0.6171 0.23084 0.1904 0.0
C146 C 0.62487 0.23773 0.20722 0.0
C147 C 0.61406 0.21087 0.21844 0.0
C148 C 0.58755 0.13004 0.26877 0.0
C149 C 0.60636 0.16229 0.27646 0.0
C150 C 0.608 0.16484 0.29365 0.0
C151 C 0.5902 0.13529 0.30334 0.0
C152 C 0.57087 0.10326 0.29561 0.0
C153 C 0.56975 0.10063 0.27854 0.0
C154 C 0.57297 0.05886 0.22023 0.0
C155 C 0.57837 1.03588 0.22961 0.0
C156 C 0.7818 0.55375 0.54554 0.0
C157 C 0.77152 0.54585 0.52903 0.0
C158 C 0.74791 0.55468 0.52278 0.0
C159 C 0.73363 0.56937 0.53295 0.0
H160 H 0.66237 0.60049 0.5325 0.0
H161 H 0.62138 0.61574 0.52158 0.0
H162 H 0.60607 0.64415 0.57044 0.0
H163 H 0.64607 0.62829 0.58138 0.0
H164 H 0.6985 0.63653 0.60968 0.0
H165 H 0.69819 0.63301 0.63948 0.0
H166 H 0.73331 0.55967 0.63618 0.0
H167 H 0.73367 0.56316 0.60611 0.0
H168 H 0.77507 0.57305 0.56855 0.0
H169 H 0.80031 0.54775 0.5507 0.0
H170 H 0.73893 0.54854 0.51021 0.0
H171 H 0.71465 0.57467 0.52777 0.0
N172 N 0.70116 0.59542 0.55453 0.0
N173 N 0.68907 0.60723 0.58099 0.0
N174 N 0.7293 0.58913 0.57734 0.0
C175 C 0.68343 0.60529 0.56456 0.0
C176 C 0.71185 0.59922 0.58749 0.0
C177 C 0.72428 0.58748 0.56079 0.0
C178 C 0.65779 0.6134 0.55781 0.0
C179 C 0.65006 0.60975 0.54093 0.0
C180 C 0.62656 0.61848 0.53465 0.0
C181 C 0.61033 0.63105 0.54513 0.0
C182 C 0.61752 0.63391 0.56204 0.0
C183 C 0.64087 0.62514 0.5683 0.0
C184 C 0.71586 0.59992 0.60554 0.0
C185 C 0.70658 0.61994 0.61527 0.0
C186 C 0.70666 0.61815 0.63237 0.0
C187 C 0.7157 0.59604 0.64014 0.0
C188 C 0.72608 0.5768 0.63047 0.0
C189 C 0.72646 0.57895 0.61329 0.0
C190 C 0.74238 0.57542 0.54969 0.0
C191 C 0.76733 0.56828 0.55578 0.0
C192 C 0.89814 0.38235 0.88472 0.0
C193 C 0.8985 0.37539 0.86783 0.0
C194 C 0.92888 0.37941 0.86081 0.0
C195 C 0.95893 0.39305 0.87006 0.0
H196 H 1.05722 0.47981 0.86188 0.0
H197 H 0.1095 0.51782 0.84674 0.0
H198 H 0.16963 0.52738 0.88981 0.0
H199 H 0.1176 0.49074 0.905 0.0
H200 H 0.07918 0.46902 0.93948 0.0
H201 H 0.08417 0.48448 0.96836 0.0
H202 H 0.97626 0.45217 0.97003 0.0
H203 H 0.97101 0.43578 0.94097 0.0
H204 H 0.92743 0.40261 0.90674 0.0
H205 H 0.87531 0.37989 0.89052 0.0
H206 H 0.92986 0.37361 0.84794 0.0
H207 H 0.9823 0.39741 0.86405 0.0
N208 N 1.02148 0.44061 0.88656 0.0
N209 N 1.05235 0.46349 0.91084 0.0
N210 N 0.99294 0.42603 0.91204 0.0
C211 C 1.0517 0.46104 0.89422 0.0
C212 C 1.02322 0.44615 0.91985 0.0
C213 C 0.99205 0.42275 0.89536 0.0
C214 C 0.08328 0.48231 0.88465 0.0
C215 C 0.08166 0.49002 0.86807 0.0
C216 C 0.11162 0.51183 0.8594 0.0
C217 C 0.14381 0.52607 0.86709 0.0
C218 C 0.14529 0.51778 0.8836 0.0
C219 C 0.11542 0.4964 0.89229 0.0
C220 C 1.02477 0.45154 0.93787 0.0
C221 C 1.05639 0.46493 0.94599 0.0
C222 C 1.05932 0.47401 0.96255 0.0
C223 C 1.03078 0.47025 0.97142 0.0
C224 C 0.99873 0.45536 0.96354 0.0
C225 C 0.99573 0.446 0.9469 0.0
C226 C 0.95916 0.4026 0.88658 0.0
C227 C 0.92814 0.39566 0.89402 0.0
C228 C 0.20837 0.67876 0.45122 0.0
C229 C 0.21352 0.68623 0.4681 0.0
C230 C 0.18735 0.66372 0.47898 0.0
C231 C 0.15737 0.63434 0.47304 0.0
H232 H 1.03217 0.53826 0.47808 0.0
H233 H 0.979 0.4876 0.48772 0.0
H234 H 0.99144 0.42559 0.45059 0.0
H235 H 1.04332 0.47553 0.44099 0.0
H236 H 1.05243 0.51204 0.40442 0.0
H237 H 1.05104 0.50947 0.37445 0.0
H238 H 0.12952 0.61625 0.37241 0.0
H239 H 0.13098 0.61902 0.40239 0.0
H240 H 0.17671 0.6459 0.43217 0.0
H241 H 0.22721 0.69554 0.44233 0.0
H242 H 0.19027 0.66848 0.4921 0.0
H243 H 0.13803 0.61754 0.48173 0.0
N244 N 0.09638 0.56982 0.45787 0.0
N245 N 1.06907 0.54116 0.43327 0.0
N246 N 0.11907 0.59436 0.43204 0.0
C247 C 0.06999 0.54194 0.44999 0.0
C248 C 0.0932 0.56722 0.4242 0.0
C249 C 0.12145 0.59626 0.44874 0.0
C250 C 1.04211 0.51118 0.45868 0.0
C251 C 1.02388 0.5136 0.47227 0.0
C252 C 0.99322 0.48449 0.47773 0.0
C253 C 0.9801 0.45232 0.46971 0.0
C254 C 0.99975 0.44984 0.45682 0.0
C255 C 1.02994 0.47862 0.4514 0.0
C256 C 0.09186 0.56574 0.4059 0.0
C257 C 1.06936 0.53505 0.39762 0.0
C258 C 1.06868 0.53349 0.38042 0.0
C259 C 0.09021 0.56263 0.37103 0.0
C260 C 0.1124 0.59342 0.37927 0.0
C261 C 0.11335 0.59491 0.39648 0.0
C262 C 0.1526 0.62698 0.45605 0.0
C263 C 0.17876 0.64997 0.44535 0.0
C264 C 0.58132 0.1725 0.79224 0.0
C265 C 0.60708 0.19555 0.80301 0.0
C266 C 0.63031 0.18582 0.80919 0.0
C267 C 0.62893 0.15506 0.80395 0.0
H268 H 0.62007 1.04044 0.81449 0.0
H269 H 0.62025 0.98906 0.82482 0.0
H270 H 0.59427 0.94397 0.77629 0.0
H271 H 0.59333 0.99355 0.76627 0.0
H272 H 0.58242 1.02534 0.73667 0.0
H273 H 0.57901 1.02516 0.70688 0.0
H274 H 0.62299 0.13544 0.70749 0.0
H275 H 0.62451 0.13516 0.73742 0.0
H276 H 0.56087 0.12617 0.77804 0.0
H277 H 0.56221 0.17811 0.78754 0.0
H278 H 0.6506 0.20271 0.81748 0.0
H279 H 0.64827 0.14931 0.80819 0.0
N280 N 0.60766 0.07875 0.79132 0.0
N281 N 0.60596 0.05391 0.76549 0.0
N282 N 0.60548 0.10545 0.76679 0.0
C283 C 0.60716 0.05262 0.78216 0.0
C284 C 0.60534 0.08005 0.7577 0.0
C285 C 0.60658 0.10526 0.7835 0.0
C286 C 0.60671 1.02165 0.78949 0.0
C287 C 0.61415 1.01941 0.80611 0.0
C288 C 0.61446 0.98995 0.81199 0.0
C289 C 0.60694 0.96186 0.80147 0.0
C290 C 0.59948 0.96438 0.78496 0.0
C291 C 0.5993 0.99344 0.77914 0.0
C292 C 0.60372 0.08027 0.73946 0.0
C293 C 0.59135 0.04957 0.73045 0.0
C294 C 0.58964 0.04953 0.71327 0.0
C295 C 0.60087 0.08031 0.70456 0.0
C296 C 0.61346 0.11108 0.71365 0.0
C297 C 0.61457 0.111 0.73086 0.0
C298 C 0.60436 0.13338 0.79237 0.0
C299 C 0.58021 0.14226 0.78693 0.0
C300 C 0.71967 0.59191 0.12258 0.0
C301 C 0.7187 0.57498 0.13721 0.0
C302 C 0.68722 0.55845 0.14592 0.0
C303 C 0.65769 0.55849 0.13996 0.0
H304 H 0.54695 0.55467 0.14815 0.0
H305 H 0.49548 0.555 0.15861 0.0
H306 H 0.48102 0.58727 0.11093 0.0
H307 H 0.5315 0.58771 0.10083 0.0
H308 H 0.55079 0.56124 0.06978 0.0
H309 H 0.55243 0.56203 0.03988 0.0
H310 H 0.65501 0.57713 0.0409 0.0
H311 H 0.6531 0.57546 0.0708 0.0
H312 H 0.69263 0.60456 0.1051 0.0
H313 H 0.74287 0.6045 0.11527 0.0
H314 H 0.68532 0.5453 0.15731 0.0
H315 H 0.6338 0.54481 0.1467 0.0
N316 N 0.60029 0.57069 0.12483 0.0
N317 N 0.57466 0.5683 0.09927 0.0
N318 N 0.62732 0.57029 0.09992 0.0
C319 C 0.57365 0.56947 0.11598 0.0
C320 C 0.60109 0.56858 0.09113 0.0
C321 C 0.62751 0.57129 0.11665 0.0
C322 C 0.54378 0.57105 0.12358 0.0
C323 C 0.53293 0.56218 0.14001 0.0
C324 C 0.50318 0.56212 0.14595 0.0
C325 C 0.48382 0.5714 0.13569 0.0
C326 C 0.49517 0.58059 0.11941 0.0
C327 C 0.52436 0.58047 0.11353 0.0
C328 C 0.60183 0.56833 0.07281 0.0
C329 C 0.5737 0.56463 0.06367 0.0
C330 C 0.57471 0.56529 0.04647 0.0
C331 C 0.6039 0.56977 0.03789 0.0
C332 C 0.63191 0.57316 0.04703 0.0
C333 C 0.63087 0.5724 0.06424 0.0
C334 C 0.6588 0.57465 0.12502 0.0
C335 C 0.69046 0.59172 0.11664 0.0
C336 C 0.19221 0.53215 0.15462 0.0
C337 C 0.18918 0.55775 0.1633 0.0
C338 C 0.2241 0.53365 0.15293 0.0
C339 C 0.31932 0.59449 0.15662 0.0
H340 H 0.32375 0.51083 0.15313 0.0
C341 C 0.44415 0.59636 0.13569 0.0
C342 C 0.45172 0.57135 0.14142 0.0
C343 C 0.41298 0.59492 0.13954 0.0
C344 C 0.32327 0.53458 0.15426 0.0
H345 H 0.21804 0.60488 0.17722 0.0
H346 H 0.27312 0.60717 0.17464 0.0
H347 H 0.26875 0.50763 0.15781 0.0
H348 H 0.43185 0.52556 0.15631 0.0
H349 H 0.37792 0.52349 0.16341 0.0
H350 H 0.3739 0.62148 0.15351 0.0
C351 C 0.25101 0.58614 0.16878 0.0
C352 C 0.29136 0.53273 0.15671 0.0
C353 C 0.21913 0.58471 0.17039 0.0
C354 C 0.42727 0.54542 0.15167 0.0
C355 C 0.39595 0.54399 0.15556 0.0
C356 C 0.35121 0.59634 0.15423 0.0
C357 C 0.25422 0.56072 0.15993 0.0
C358 C 0.28866 0.56265 0.15781 0.0
C359 C 0.38802 0.56852 0.1494 0.0
C360 C 0.35386 0.56643 0.15284 0.0
H361 H 0.16995 0.51104 0.14888 0.0
H362 H 0.22512 0.51379 0.14579 0.0
H363 H 0.31879 0.61827 0.15719 0.0
H364 H 0.46229 0.61715 0.128 0.0
H365 H 0.4082 0.6142 0.13433 0.0
C366 C 0.68772 0.19895 0.49154 0.0
C367 C 0.68734 0.17016 0.49848 0.0
C368 C 0.71858 0.23006 0.48929 0.0
C369 C 0.81182 0.27852 0.50188 0.0
H370 H 0.82044 0.33355 0.46381 0.0
C371 C 0.93387 0.41347 0.49033 0.0
C372 C 0.94561 0.42165 0.47398 0.0
C373 C 0.90215 0.38392 0.494 0.0
C374 C 0.81878 0.31854 0.47448 0.0
H375 H 0.71998 0.15232 0.50868 0.0
H376 H 0.77366 0.20624 0.50472 0.0
H377 H 0.76722 0.28031 0.46861 0.0
H378 H 0.93167 0.40507 0.44867 0.0
H379 H 0.87752 0.35406 0.45499 0.0
H380 H 0.86391 0.31653 0.50744 0.0
C381 C 0.74995 0.20501 0.50113 0.0
C382 C 0.78778 0.28792 0.47739 0.0
C383 C 0.71899 0.17379 0.50335 0.0
C384 C 0.92415 0.39964 0.46145 0.0
C385 C 0.89256 0.37035 0.46509 0.0
C386 C 0.84289 0.30923 0.49896 0.0
C387 C 0.7504 0.23375 0.49396 0.0
C388 C 0.78367 0.2671 0.49109 0.0
C389 C 0.88093 0.36174 0.48142 0.0
C390 C 0.84709 0.32968 0.48511 0.0
H391 H 0.66403 0.19751 0.48778 0.0
H392 H 0.71735 0.25135 0.48395 0.0
H393 H 0.80989 0.26384 0.51272 0.0
H394 H 0.94947 0.42954 0.50036 0.0
H395 H 0.89417 0.37862 0.50673 0.0
C396 C 0.59426 0.685 0.8357 0.0
C397 C 0.62219 0.68264 0.82933 0.0
C398 C 0.59255 0.71525 0.83405 0.0
C399 C 0.64609 0.80931 0.82338 0.0
H400 H 0.55728 0.80207 0.81802 0.0
C401 C 0.6319 0.93151 0.8181 0.0
C402 C 0.60695 0.92994 0.80718 0.0
C403 C 0.6334 0.90176 0.82204 0.0
C404 C 0.58244 0.80481 0.81935 0.0
H405 H 0.6702 0.71088 0.81608 0.0
H406 H 0.66692 0.76296 0.81286 0.0
H407 H 0.56093 0.75047 0.82169 0.0
H408 H 0.56288 0.89477 0.79259 0.0
H409 H 0.56602 0.84388 0.79898 0.0
H410 H 0.66764 0.86361 0.82038 0.0
C411 C 0.64655 0.74177 0.81951 0.0
C412 C 0.58451 0.77494 0.82173 0.0
C413 C 0.64836 0.71159 0.82127 0.0
C414 C 0.58292 0.89745 0.80081 0.0
C415 C 0.58445 0.86788 0.80469 0.0
C416 C 0.64402 0.8392 0.82091 0.0
C417 C 0.61859 0.74423 0.82585 0.0
C418 C 0.61639 0.77652 0.8237 0.0
C419 C 0.60991 0.8694 0.81524 0.0
C420 C 0.61216 0.83754 0.81872 0.0
H421 H 0.5736 0.66343 0.84205 0.0
H422 H 0.57081 0.71591 0.83939 0.0
H423 H 0.67117 0.81208 0.8251 0.0
H424 H 0.65097 0.9559 0.82324 0.0
H425 H 0.65312 0.90424 0.83042 0.0
C426 C 0.97634 0.54372 0.15271 0.0
C427 C 1.00109 0.56452 0.16445 0.0
C428 C 0.94592 0.54492 0.15072 0.0
C429 C 0.90469 0.59799 0.16095 0.0
H430 H 0.82183 0.51585 0.14728 0.0
C431 C 0.78339 0.60265 0.14019 0.0
C432 C 0.75037 0.57417 0.14276 0.0
C433 C 0.81316 0.60125 0.14384 0.0
C434 C 0.8445 0.53906 0.15128 0.0
H435 H 1.01251 0.60273 0.18344 0.0
H436 H 0.95907 0.60384 0.18048 0.0
H437 H 0.87412 0.51372 0.15185 0.0
H438 H 0.72361 0.52193 0.15175 0.0
H439 H 0.77534 0.51975 0.15854 0.0
H440 H 0.87492 0.62316 0.1608 0.0
C441 C 0.96348 0.58716 0.17242 0.0
C442 C 0.87492 0.53795 0.15368 0.0
C443 C 0.99423 0.58638 0.17423 0.0
C444 C 0.74834 0.54453 0.14964 0.0
C445 C 0.77824 0.54313 0.15333 0.0
C446 C 0.87427 0.59908 0.1586 0.0
C447 C 0.93868 0.56645 0.16061 0.0
C448 C 0.90573 0.56745 0.15845 0.0
C449 C 0.81129 0.57138 0.15033 0.0
C450 C 0.84358 0.56972 0.15358 0.0
H451 H 0.98072 0.52686 0.14476 0.0
H452 H 0.92837 0.52938 0.14112 0.0
H453 H 0.92761 0.62147 0.16445 0.0
H454 H 0.78639 0.62622 0.13517 0.0
H455 H 0.83774 0.62355 0.14112 0.0
C456 C 0.49455 0.9477 0.50179 0.0
C457 C 0.49596 0.97828 0.49671 0.0
C458 C 0.46425 0.91568 0.50009 0.0
C459 C 0.36899 0.8754 0.49244 0.0
H460 H 0.37541 0.79467 0.48198 0.0
C461 C 0.24626 0.73939 0.48635 0.0
C462 C 0.2462 0.7175 0.47385 0.0
C463 C 0.27653 0.7702 0.49041 0.0
C464 C 0.37291 0.81688 0.48479 0.0
H465 H 0.46586 0.99842 0.48576 0.0
H466 H 0.41377 0.94315 0.48257 0.0
H467 H 0.42748 0.84962 0.48599 0.0
H468 H 0.27911 0.71072 0.45647 0.0
H469 H 0.33095 0.7639 0.46322 0.0
H470 H 0.31441 0.84283 0.49069 0.0
C471 C 0.43579 0.94372 0.48819 0.0
C472 C 0.40306 0.8486 0.48733 0.0
C473 C 0.46599 0.97568 0.48993 0.0
C474 C 0.27769 0.72693 0.46599 0.0
C475 C 0.30781 0.75753 0.47004 0.0
C476 C 0.33882 0.84367 0.48987 0.0
C477 C 0.43425 0.91302 0.49322 0.0
C478 C 0.40176 0.87861 0.49107 0.0
C479 C 0.30785 0.78005 0.48219 0.0
C480 C 0.34016 0.8138 0.48584 0.0
H481 H 0.51691 0.94843 0.50711 0.0
H482 H 0.46436 0.893 0.50437 0.0
H483 H 0.36647 0.89748 0.49555 0.0
H484 H 0.22268 0.73328 0.49268 0.0
H485 H 0.27529 0.78634 0.50001 0.0
C486 C 0.5944 0.45943 0.83909 0.0
C487 C 0.61868 0.48964 0.8311 0.0
C488 C 0.59418 0.42822 0.83667 0.0
C489 C 0.62687 0.38496 0.80773 0.0
H490 H 0.59968 0.31821 0.84268 0.0
C491 C 0.60246 0.24747 0.79487 0.0
C492 C 0.61021 0.22998 0.80692 0.0
C493 C 0.60447 0.27907 0.79827 0.0
C494 C 0.6077 0.3366 0.83278 0.0
H495 H 0.66163 0.51007 0.81412 0.0
H496 H 0.66107 0.45637 0.80983 0.0
H497 H 0.60149 0.37263 0.84778 0.0
H498 H 0.62674 0.23331 0.83218 0.0
H499 H 0.631 0.2888 0.83802 0.0
H500 H 0.63402 0.34955 0.79286 0.0
C501 C 0.64205 0.4564 0.818 0.0
C502 C 0.60827 0.36785 0.83565 0.0
C503 C 0.64256 0.48757 0.82058 0.0
C504 C 0.62063 0.24576 0.8225 0.0
C505 C 0.6227 0.27758 0.82592 0.0
C506 C 0.62642 0.35387 0.80489 0.0
C507 C 0.61801 0.42608 0.82604 0.0
C508 C 0.61768 0.39259 0.82314 0.0
C509 C 0.61461 0.29483 0.81384 0.0
C510 C 0.61652 0.32889 0.81729 0.0
H511 H 0.57545 0.45983 0.8472 0.0
H512 H 0.57478 0.40559 0.84291 0.0
H513 H 0.63392 0.40277 0.79762 0.0
H514 H 0.59501 0.2369 0.7826 0.0
H515 H 0.59752 0.2909 0.78862 0.0
C516 C 0.54383 0.85142 0.53156 0.0
C517 C 0.56522 0.87174 0.51876 0.0
C518 C 0.53347 0.81655 0.53233 0.0
C519 C 0.53677 0.74537 0.50945 0.0
H520 H 0.54932 0.72028 0.55328 0.0
C521 C 0.59857 0.66453 0.52425 0.0
C522 C 0.58845 0.64419 0.53847 0.0
C523 C 0.58224 0.68273 0.51983 0.0
C524 C 0.54483 0.72635 0.54101 0.0
H525 H 0.59143 0.87149 0.4964 0.0
H526 H 0.57465 0.81121 0.49802 0.0
H527 H 0.54546 0.77153 0.54952 0.0
H528 H 0.55078 0.62396 0.55813 0.0
H529 H 0.52274 0.65642 0.55057 0.0
H530 H 0.53898 0.70125 0.50095 0.0
C531 C 0.56485 0.82161 0.50724 0.0
C532 C 0.54255 0.75584 0.53882 0.0
C533 C 0.57474 0.8563 0.50634 0.0
C534 C 0.55973 0.64011 0.54734 0.0
C535 C 0.54355 0.6585 0.54297 0.0
C536 C 0.5395 0.71602 0.51164 0.0
C537 C 0.54485 0.80147 0.52049 0.0
C538 C 0.53983 0.76649 0.52296 0.0
C539 C 0.55559 0.68107 0.52958 0.0
C540 C 0.54479 0.70696 0.52739 0.0
H541 H 0.53574 0.8627 0.54114 0.0
H542 H 0.51746 0.80169 0.54251 0.0
H543 H 0.53382 0.75232 0.4971 0.0
H544 H 0.62071 0.66845 0.5172 0.0
H545 H 0.59231 0.70018 0.50952 0.0
C546 C 0.72293 0.48132 0.82942 0.0
C547 C 0.74433 0.50843 0.81894 0.0
C548 C 0.72654 0.45241 0.83068 0.0
C549 C 0.76092 0.41428 0.8425 0.0
H550 H 0.80177 0.3836 0.80925 0.0
C551 C 0.87577 0.38743 0.84231 0.0
C552 C 0.86928 0.36961 0.85724 0.0
C553 C 0.84961 0.38943 0.83423 0.0
C554 C 0.78997 0.39155 0.81863 0.0
H555 H 0.78553 0.526 0.80111 0.0
H556 H 0.79339 0.47646 0.80401 0.0
H557 H 0.77477 0.41679 0.80114 0.0
H558 H 0.82933 0.33628 0.87424 0.0
H559 H 0.78353 0.34002 0.86013 0.0
H560 H 0.77756 0.39087 0.86007 0.0
C561 C 0.77284 0.47683 0.81081 0.0
C562 C 0.77469 0.41071 0.814 0.0
C563 C 0.76861 0.50544 0.80925 0.0
C564 C 0.8353 0.35088 0.86297 0.0
C565 C 0.80907 0.35292 0.85486 0.0
C566 C 0.77599 0.39507 0.84708 0.0
C567 C 0.75247 0.4504 0.82191 0.0
C568 C 0.76143 0.42367 0.826 0.0
C569 C 0.81637 0.37375 0.84091 0.0
C570 C 0.79216 0.38491 0.83532 0.0
H571 H 0.70363 0.48269 0.83688 0.0
H572 H 0.70982 0.4322 0.83902 0.0
H573 H 0.75136 0.42403 0.85214 0.0
H574 H 0.90162 0.40243 0.83757 0.0
H575 H 0.85629 0.40596 0.8236 0.0
C576 C 0.31686 0.73726 0.16641 0.0
C577 C 0.3004 0.72533 0.18164 0.0
C578 C 0.35246 0.75808 0.1656 0.0
C579 C 0.43257 0.79529 0.19083 0.0
H580 H 0.4557 0.87733 0.16602 0.0
C581 C 0.52258 0.9304 0.21323 0.0
C582 C 0.54052 0.95726 0.20201 0.0
C583 C 0.50287 0.89666 0.20771 0.0
C584 C 0.4502 0.85435 0.17267 0.0
H585 H 0.30826 0.72419 0.20783 0.0
H586 H 0.37014 0.76121 0.20653 0.0
H587 H 0.40091 0.82599 0.1616 0.0
H588 H 0.55467 0.96909 0.17634 0.0
H589 H 0.51935 0.91001 0.16665 0.0
H590 H 0.48111 0.82492 0.2028 0.0
C591 C 0.35586 0.75399 0.19513 0.0
C592 C 0.41863 0.82476 0.17013 0.0
C593 C 0.32031 0.73293 0.19592 0.0
C594 C 0.54049 0.94913 0.18526 0.0
C595 C 0.52048 0.9153 0.17972 0.0
C596 C 0.46414 0.82502 0.19343 0.0
C597 C 0.37226 0.76767 0.18002 0.0
C598 C 0.40874 0.79543 0.17977 0.0
C599 C 0.50039 0.88897 0.19083 0.0
C600 C 0.47249 0.85531 0.18494 0.0
H601 H 0.30209 0.73117 0.15518 0.0
H602 H 0.36434 0.76768 0.15373 0.0
H603 H 0.42605 0.77283 0.19817 0.0
H604 H 0.52159 0.93559 0.22618 0.0
H605 H 0.48735 0.87708 0.21658 0.0
C606 C 0.67286 0.29065 0.45953 0.0
C607 C 0.66104 0.27118 0.47397 0.0
C608 C 0.7007 0.32424 0.46012 0.0
C609 C 0.77067 0.38724 0.48731 0.0
H610 H 0.74052 0.44984 0.47299 0.0
C611 C 0.78604 0.52908 0.50182 0.0
C612 C 0.78158 0.52457 0.51894 0.0
C613 C 0.78733 0.50417 0.49193 0.0
C614 C 0.75021 0.43318 0.47666 0.0
H615 H 0.67053 0.27014 0.49998 0.0
H616 H 0.71874 0.32835 0.50107 0.0
H617 H 0.71179 0.39136 0.46267 0.0
H618 H 0.7782 0.49181 0.53917 0.0
H619 H 0.78062 0.44886 0.5221 0.0
H620 H 0.8074 0.42848 0.50229 0.0
C621 C 0.70673 0.31807 0.48929 0.0
C622 C 0.73364 0.39951 0.47072 0.0
C623 C 0.67871 0.28493 0.48874 0.0
C624 C 0.78192 0.49638 0.52607 0.0
C625 C 0.78337 0.47163 0.51622 0.0
C626 C 0.78729 0.42096 0.49324 0.0
C627 C 0.71747 0.33847 0.4751 0.0
C628 C 0.74224 0.37566 0.47682 0.0
C629 C 0.78438 0.47438 0.49899 0.0
C630 C 0.77571 0.44359 0.48879 0.0
H631 H 0.65972 0.28043 0.44797 0.0
H632 H 0.70845 0.33944 0.44901 0.0
H633 H 0.77829 0.36951 0.49193 0.0
H634 H 0.7867 0.55095 0.49597 0.0
H635 H 0.78865 0.50726 0.47871 0.0
C636 C 0.42328 0.61531 0.85135 0.0
C637 C 0.43529 0.60266 0.83868 0.0
C638 C 0.39537 0.62014 0.8487 0.0
C639 C 0.31712 0.57807 0.82595 0.0
H640 H 0.29969 0.64561 0.84682 0.0
C641 C 0.18006 0.54078 0.84152 0.0
C642 C 0.17605 0.54826 0.85792 0.0
C643 C 0.21218 0.558 0.8339 0.0
C644 C 0.30409 0.62652 0.84089 0.0
H645 H 0.4291 0.58733 0.81302 0.0
H646 H 0.38007 0.59547 0.80845 0.0
H647 H 0.35867 0.65778 0.84335 0.0
H648 H 0.20176 0.58257 0.87845 0.0
H649 H 0.25782 0.6108 0.8657 0.0
H650 H 0.26304 0.54544 0.82477 0.0
C651 C 0.39232 0.60174 0.82039 0.0
C652 C 0.33787 0.63363 0.83882 0.0
C653 C 0.42042 0.59719 0.823 0.0
C654 C 0.20418 0.57534 0.86599 0.0
C655 C 0.23635 0.5921 0.8585 0.0
C656 C 0.28344 0.57074 0.82823 0.0
C657 C 0.37881 0.6121 0.83337 0.0
C658 C 0.34456 0.60885 0.83194 0.0
C659 C 0.2411 0.58263 0.84261 0.0
C660 C 0.27641 0.59422 0.83643 0.0
H661 H 0.43458 0.62012 0.8635 0.0
H662 H 0.38531 0.62786 0.85899 0.0
H663 H 0.32146 0.55832 0.82074 0.0
H664 H 0.15894 0.52023 0.83486 0.0
H665 H 0.21466 0.55067 0.82148 0.0
C666 C 0.86902 0.39101 0.13042 0.0
C667 C 0.89198 0.42315 0.13729 0.0
C668 C 0.83382 0.37924 0.13039 0.0
C669 C 0.77333 0.3882 0.15652 0.0
H670 H 0.70695 0.3204 0.12661 0.0
C671 C 0.6425 0.29212 0.18116 0.0
C672 C 0.63538 0.25839 0.17809 0.0
C673 C 0.66628 0.31918 0.17143 0.0
C674 C 0.7251 0.33952 0.13504 0.0
H675 H 0.89643 0.46945 0.148 0.0
H676 H 0.83508 0.44906 0.14781 0.0
H677 H 0.76619 0.35692 0.11756 0.0
H678 H 0.64554 0.22637 0.16156 0.0
H679 H 0.68683 0.27305 0.1449 0.0
H680 H 0.7334 0.36935 0.17441 0.0
C681 C 0.84419 0.43271 0.14275 0.0
C682 C 0.75899 0.3604 0.12985 0.0
C683 C 0.8793 0.44436 0.14288 0.0
C684 C 0.6501 0.25194 0.16422 0.0
C685 C 0.67388 0.2789 0.15457 0.0
C686 C 0.7396 0.36725 0.16173 0.0
C687 C 0.82095 0.39946 0.13715 0.0
C688 C 0.7838 0.38378 0.14082 0.0
C689 C 0.68354 0.31302 0.15853 0.0
C690 C 0.71552 0.34141 0.15135 0.0
H691 H 0.87797 0.37402 0.12609 0.0
H692 H 0.8166 0.35332 0.12615 0.0
H693 H 0.79178 0.40575 0.16536 0.0
H694 H 0.63104 0.2978 0.19158 0.0
H695 H 0.67264 0.34512 0.1746 0.0
C696 C 0.10303 0.5503 0.11513 0.0
C697 C 0.09379 0.57312 0.12215 0.0
C698 C 0.09472 0.53957 0.09885 0.0
C699 C 1.03591 0.5292 0.06546 0.0
H700 H 0.10646 0.52951 0.03774 0.0
C701 C 1.01087 0.46442 0.00086 0.0
C702 C 1.03516 0.48314 0.98861 0.0
C703 C 1.01634 0.47616 0.01717 0.0
C704 C 0.08653 0.52944 0.0453 0.0
H705 H 1.06854 0.60259 0.11783 0.0
H706 H 1.05389 0.58375 0.08915 0.0
H707 H 0.11958 0.54894 0.06619 0.0
H708 H 0.08315 0.5299 0.98371 0.0
H709 H 0.09284 0.54997 0.01207 0.0
H710 H 1.00287 0.50963 0.04445 0.0
C711 C 1.06744 0.57408 0.09632 0.0
C712 C 0.09397 0.54029 0.06162 0.0
C713 C 0.07604 0.58506 0.11263 0.0
C714 C 1.06439 0.51435 0.99292 0.0
C715 C 0.06991 0.52595 0.00915 0.0
C716 C 1.02835 0.51802 0.04912 0.0
C717 C 0.07687 0.55135 0.08926 0.0
C718 C 1.06876 0.54028 0.07187 0.0
C719 C 1.04624 0.50676 0.02149 0.0
C720 C 1.05367 0.51817 0.03887 0.0
H721 H 0.11674 0.54072 0.12224 0.0
H722 H 0.102 0.52177 0.09378 0.0
H723 H 1.01594 0.5287 0.07315 0.0
H724 H 0.98816 0.44022 0.99795 0.0
H725 H 0.99776 0.46078 0.02647 0.0
C726 C 0.5763 0.06985 0.44907 0.0
C727 C 0.60794 0.07894 0.4563 0.0
C728 C 0.57484 0.07936 0.43295 0.0
C729 C 0.62572 0.13983 0.40023 0.0
H730 H 0.55769 0.06993 0.37162 0.0
C731 C 0.62454 0.15282 0.3293 0.0
C732 C 0.59249 0.13702 0.32148 0.0
C733 C 0.62668 0.14949 0.34628 0.0
C734 C 0.57645 0.08999 0.37949 0.0
H735 H 0.66292 0.10517 0.45254 0.0
H736 H 0.66043 0.12168 0.42415 0.0
H737 H 0.56118 0.05638 0.40014 0.0
H738 H 0.53756 0.10771 0.32525 0.0
H739 H 0.54112 0.10268 0.35491 0.0
H740 H 0.641 0.17344 0.37947 0.0
C741 C 0.63678 0.10747 0.43102 0.0
C742 C 0.57851 0.08214 0.39583 0.0
C743 C 0.6382 0.09778 0.44717 0.0
C744 C 0.56259 0.11972 0.331 0.0
C745 C 0.56468 0.11668 0.34795 0.0
C746 C 0.62355 0.14777 0.38383 0.0
C747 C 0.60504 0.09814 0.42373 0.0
C748 C 0.60313 0.10693 0.40639 0.0
C749 C 0.59675 0.13051 0.35571 0.0
C750 C 0.59882 0.12291 0.37328 0.0
H751 H 0.55259 0.05519 0.45586 0.0
H752 H 0.55005 0.0721 0.42771 0.0
H753 H 0.64476 0.15952 0.40815 0.0
H754 H 0.64797 0.1661 0.32218 0.0
H755 H 0.65178 0.1603 0.35185 0.0
C756 C 0.60245 0.54062 0.78025 0.0
C757 C 0.61355 0.57119 0.78914 0.0
C758 C 0.61625 0.54116 0.76474 0.0
C759 C 0.69038 0.59575 0.73774 0.0
H760 H 0.62968 0.53871 0.70295 0.0
C761 C 0.72241 0.6199 0.66867 0.0
C762 C 0.71154 0.59138 0.65819 0.0
C763 C 0.71403 0.6154 0.68537 0.0
C764 C 0.64709 0.55437 0.7126 0.0
H765 H 0.6471 0.62631 0.78885 0.0
H766 H 0.67068 0.6275 0.76163 0.0
H767 H 0.60707 0.53488 0.7306 0.0
H768 H 0.68458 0.53579 0.65706 0.0
H769 H 0.67003 0.52791 0.68631 0.0
H770 H 0.73015 0.61599 0.71952 0.0
C771 C 0.652 0.60296 0.76673 0.0
C772 C 0.63413 0.55219 0.72846 0.0
C773 C 0.63832 0.60236 0.78225 0.0
C774 C 0.6935 0.55825 0.66488 0.0
C775 C 0.68488 0.55373 0.68157 0.0
C776 C 0.70329 0.59807 0.72185 0.0
C777 C 0.64123 0.57236 0.7578 0.0
C778 C 0.65552 0.57318 0.74118 0.0
C779 C 0.69439 0.58227 0.6919 0.0
C780 C 0.68168 0.57769 0.70908 0.0
H781 H 0.58353 0.51621 0.78539 0.0
H782 H 0.60766 0.51709 0.75829 0.0
H783 H 0.70771 0.61178 0.74733 0.0
H784 H 0.73654 0.64573 0.66385 0.0
H785 H 0.72154 0.63789 0.69299 0.0
C786 C 0.54834 0.06315 0.55586 0.0
C787 C 0.57756 0.07851 0.54575 0.0
C788 C 0.55162 0.06209 0.57293 0.0
C789 C 0.60945 0.1081 0.60676 0.0
H790 H 0.55679 1.02407 0.63147 0.0
C791 C 0.59298 0.10376 0.67776 0.0
C792 C 0.59934 0.0802 0.68616 0.0
C793 C 0.59139 0.1035 0.66057 0.0
C794 C 0.5717 0.04769 0.62471 0.0
H795 H 0.63309 0.10451 0.54547 0.0
H796 H 0.63884 0.10344 0.57538 0.0
H797 H 0.55188 1.02305 0.60143 0.0
H798 H 0.60969 1.03826 0.68262 0.0
H799 H 0.6054 1.03701 0.65275 0.0
H800 H 0.62867 0.13289 0.63006 0.0
C801 C 0.61343 0.09205 0.57008 0.0
C802 C 0.56876 0.04714 0.60756 0.0
C803 C 0.61013 0.09253 0.55299 0.0
C804 C 0.60395 0.05633 0.67676 0.0
C805 C 0.60173 0.05569 0.65959 0.0
C806 C 0.61187 0.10878 0.62393 0.0
C807 C 0.58421 0.07693 0.58023 0.0
C808 C 0.58766 0.07732 0.59841 0.0
C809 C 0.59551 0.07931 0.65131 0.0
C810 C 0.59307 0.07857 0.63308 0.0
H811 H 0.52294 0.05209 0.55058 0.0
H812 H 0.52868 0.05042 0.58046 0.0
H813 H 0.62414 0.13178 0.60002 0.0
H814 H 0.58859 0.12212 0.68444 0.0
H815 H 0.58622 0.12179 0.6545 0.0
C816 C 0.60988 0.56665 0.88562 0.0
C817 C 0.63578 0.59776 0.87909 0.0
C818 C 0.60428 0.56279 0.90264 0.0
C819 C 0.62234 0.613 0.94157 0.0
H820 H 0.60295 0.52749 0.96195 0.0
C821 C 0.5912 0.58846 0.01093 0.0
C822 C 0.60533 0.57143 0.01954 0.0
C823 C 0.59307 0.59059 0.99376 0.0
C824 C 0.60857 0.55164 0.95649 0.0
H825 H 0.67593 0.64926 0.8852 0.0
H826 H 0.66661 0.6425 0.9148 0.0
H827 H 0.60995 0.53362 0.9322 0.0
H828 H 0.632 0.54272 0.01661 0.0
H829 H 0.63606 0.54723 0.98676 0.0
H830 H 0.62205 0.63143 0.96586 0.0
C831 C 0.65019 0.62116 0.90686 0.0
C832 C 0.61214 0.555 0.93937 0.0
C833 C 0.65571 0.625 0.88987 0.0
C834 C 0.62118 0.55639 0.01046 0.0
C835 C 0.62311 0.55859 0.99328 0.0
C836 C 0.61882 0.60966 0.95867 0.0
C837 C 0.62449 0.58997 0.9135 0.0
C838 C 0.6193 0.58582 0.93168 0.0
C839 C 0.6092 0.57585 0.98469 0.0
C840 C 0.61207 0.579 0.96639 0.0
H841 H 0.59407 0.54522 0.87758 0.0
H842 H 0.58397 0.53856 0.90727 0.0
H843 H 0.6274 0.63697 0.93611 0.0
H844 H 0.57912 0.60069 0.01748 0.0
H845 H 0.58169 0.60373 0.98759 0.0
C846 C 0.08323 0.56619 0.21901 0.0
C847 C 0.08751 0.54017 0.21169 0.0
C848 C 0.08392 0.56984 0.23617 0.0
C849 C 1.06963 0.52057 0.27425 0.0
H850 H 0.12157 0.60945 0.29543 0.0
C851 C 0.08921 0.53284 0.34458 0.0
C852 C 0.08979 0.56079 0.35272 0.0
C853 C 0.08898 0.53107 0.32739 0.0
C854 C 0.10649 0.58446 0.28975 0.0
H855 H 0.09616 0.4978 0.21656 0.0
H856 H 0.09701 0.50391 0.24642 0.0
H857 H 0.12089 0.60533 0.26546 0.0
H858 H 0.09017 0.60866 0.34912 0.0
H859 H 0.08899 0.6053 0.31915 0.0
H860 H 1.05465 0.49959 0.29837 0.0
C861 C 0.093 0.52143 0.23895 0.0
C862 C 0.1062 0.58212 0.27254 0.0
C863 C 0.09267 0.51803 0.22184 0.0
C864 C 0.0901 0.58695 0.34323 0.0
C865 C 0.08954 0.58505 0.32602 0.0
C866 C 1.06963 0.5229 0.29141 0.0
C867 C 0.08846 0.54725 0.24634 0.0
C868 C 0.08801 0.5501 0.2646 0.0
C869 C 0.08897 0.55706 0.31783 0.0
C870 C 0.0883 0.55484 0.29945 0.0
H871 H 0.079 0.5835 0.21149 0.0
H872 H 0.08012 0.58984 0.24148 0.0
H873 H 1.05488 0.49556 0.26851 0.0
H874 H 0.08952 0.51253 0.35151 0.0
H875 H 0.0893 0.50948 0.32161 0.0
loop_
_geom_bond_atom_site_label_1
_geom_bond_atom_site_label_2
_geom_bond_distance
_geom_bond_site_symmetry_2
_ccdc_geom_bond_type
Tb0 C2 2.809 . S
Tb0 O20 2.484 . S
Tb0 O21 2.440 . S
Tb0 O22 2.658 . S
Tb0 O23 2.409 . S
Tb0 O24 2.378 . S
Tb0 O28 2.325 . S
Tb0 O31 2.341 1_455 S
Tb1 C11 2.809 1_455 S
Tb1 O22 2.325 . S
Tb1 O25 2.341 . S
Tb1 O26 2.484 1_455 S
Tb1 O27 2.440 1_455 S
Tb1 O28 2.658 . S
Tb1 O29 2.409 . S
Tb1 O30 2.378 1_455 S
C2 Tb0 2.809 . S
C2 C3 1.514 . S
C2 O20 1.248 . S
C2 O21 1.266 . S
C3 C2 1.514 . S
C3 C4 1.359 . S
C3 C8 1.348 . S
C4 C3 1.359 . S
C4 C5 1.380 . S
C4 H32 0.929 . S
C5 C4 1.380 . S
C5 C6 1.347 . S
C5 H33 0.931 . S
C6 C5 1.347 . S
C6 C7 1.369 . S
C7 C6 1.369 . S
C7 C8 1.408 . S
C7 H34 0.930 . S
C8 C3 1.348 . S
C8 C7 1.408 . S
C8 H35 0.930 . S
C9 O22 1.281 . S
C9 O23 1.254 . S
C10 O24 1.236 . S
C10 O25 1.266 . S
C11 Tb1 2.809 1_655 S
C11 C12 1.514 . S
C11 O26 1.248 . S
C11 O27 1.266 . S
C12 C11 1.514 . S
C12 C13 1.359 . S
C12 C17 1.348 . S
C13 C12 1.359 . S
C13 C14 1.380 . S
C13 H36 0.929 . S
C14 C13 1.380 . S
C14 C15 1.347 . S
C14 H37 0.931 . S
C15 C14 1.347 . S
C15 C16 1.369 . S
C16 C15 1.369 . S
C16 C17 1.408 . S
C16 H38 0.930 . S
C17 C12 1.348 . S
C17 C16 1.408 . S
C17 H39 0.930 . S
C18 O28 1.281 . S
C18 O29 1.254 . S
C19 O30 1.236 . S
C19 O31 1.266 . S
O20 Tb0 2.484 . S
O20 C2 1.248 . S
O21 Tb0 2.440 . S
O21 C2 1.266 . S
O22 Tb0 2.658 . S
O22 Tb1 2.325 . S
O22 C9 1.281 . S
O23 Tb0 2.409 . S
O23 C9 1.254 . S
O24 Tb0 2.378 . S
O24 C10 1.236 . S
O25 Tb1 2.341 . S
O25 C10 1.266 . S
O26 Tb1 2.484 1_655 S
O26 C11 1.248 . S
O27 Tb1 2.440 1_655 S
O27 C11 1.266 . S
O28 Tb0 2.325 . S
O28 Tb1 2.658 . S
O28 C18 1.281 . S
O29 Tb1 2.409 . S
O29 C18 1.254 . S
O30 Tb1 2.378 1_655 S
O30 C19 1.236 . S
O31 Tb0 2.341 1_655 S
O31 C19 1.266 . S
H32 C4 0.929 . S
H33 C5 0.931 . S
H34 C7 0.930 . S
H35 C8 0.930 . S
H36 C13 0.929 . S
H37 C14 0.931 . S
H38 C16 0.930 . S
H39 C17 0.930 . S
Tb40 C42 2.809 1_545 S
Tb40 O60 2.484 1_545 S
Tb40 O61 2.440 1_545 S
Tb40 O62 2.658 . S
Tb40 O63 2.409 . S
Tb40 O64 2.378 1_545 S
Tb40 O68 2.325 . S
Tb40 O71 2.341 . S
Tb41 C51 2.809 . S
Tb41 O62 2.325 . S
Tb41 O65 2.341 1_545 S
Tb41 O66 2.484 . S
Tb41 O67 2.440 . S
Tb41 O68 2.658 . S
Tb41 O69 2.409 . S
Tb41 O70 2.378 . S
C42 Tb40 2.809 1_565 S
C42 C43 1.514 . S
C42 O60 1.248 . S
C42 O61 1.266 . S
C43 C42 1.514 . S
C43 C44 1.359 . S
C43 C48 1.348 . S
C44 C43 1.359 . S
C44 C45 1.380 . S
C44 H72 0.929 . S
C45 C44 1.380 . S
C45 C46 1.347 . S
C45 H73 0.931 . S
C46 C45 1.347 . S
C46 C47 1.369 . S
C47 C46 1.369 . S
C47 C48 1.408 . S
C47 H74 0.930 . S
C48 C43 1.348 . S
C48 C47 1.408 . S
C48 H75 0.930 . S
C49 O62 1.281 . S
C49 O63 1.254 . S
C50 O64 1.236 . S
C50 O65 1.266 . S
C51 Tb41 2.809 . S
C51 C52 1.514 . S
C51 O66 1.248 . S
C51 O67 1.266 . S
C52 C51 1.514 . S
C52 C53 1.359 . S
C52 C57 1.348 . S
C53 C52 1.359 . S
C53 C54 1.380 . S
C53 H76 0.929 . S
C54 C53 1.380 . S
C54 C55 1.347 . S
C54 H77 0.931 . S
C55 C54 1.347 . S
C55 C56 1.369 . S
C56 C55 1.369 . S
C56 C57 1.408 . S
C56 H78 0.930 . S
C57 C52 1.348 . S
C57 C56 1.408 . S
C57 H79 0.930 . S
C58 O68 1.281 . S
C58 O69 1.254 . S
C59 O70 1.236 . S
C59 O71 1.266 . S
O60 Tb40 2.484 1_565 S
O60 C42 1.248 . S
O61 Tb40 2.440 1_565 S
O61 C42 1.266 . S
O62 Tb40 2.658 . S
O62 Tb41 2.325 . S
O62 C49 1.281 . S
O63 Tb40 2.409 . S
O63 C49 1.254 . S
O64 Tb40 2.378 1_565 S
O64 C50 1.236 . S
O65 Tb41 2.341 1_565 S
O65 C50 1.266 . S
O66 Tb41 2.484 . S
O66 C51 1.248 . S
O67 Tb41 2.440 . S
O67 C51 1.266 . S
O68 Tb40 2.325 . S
O68 Tb41 2.658 . S
O68 C58 1.281 . S
O69 Tb41 2.409 . S
O69 C58 1.254 . S
O70 Tb41 2.378 . S
O70 C59 1.236 . S
O71 Tb40 2.341 . S
O71 C59 1.266 . S
H72 C44 0.929 . S
H73 C45 0.931 . S
H74 C47 0.930 . S
H75 C48 0.930 . S
H76 C53 0.929 . S
H77 C54 0.931 . S
H78 C56 0.930 . S
H79 C57 0.930 . S
Tb80 C82 2.809 . S
Tb80 O100 2.484 . S
Tb80 O101 2.440 . S
Tb80 O102 2.658 . S
Tb80 O103 2.409 . S
Tb80 O104 2.378 . S
Tb80 O108 2.325 . S
Tb80 O111 2.341 . S
Tb81 C91 2.809 . S
Tb81 O102 2.325 . S
Tb81 O105 2.341 . S
Tb81 O106 2.484 . S
Tb81 O107 2.440 . S
Tb81 O108 2.658 . S
Tb81 O109 2.409 . S
Tb81 O110 2.378 . S
C82 Tb80 2.809 . S
C82 C83 1.514 . S
C82 O100 1.248 . S
C82 O101 1.266 . S
C83 C82 1.514 . S
C83 C84 1.359 . S
C83 C88 1.348 . S
C84 C83 1.359 . S
C84 C85 1.380 . S
C84 H112 0.929 . S
C85 C84 1.380 . S
C85 C86 1.347 . S
C85 H113 0.931 . S
C86 C85 1.347 . S
C86 C87 1.369 . S
C87 C86 1.369 . S
C87 C88 1.408 . S
C87 H114 0.930 . S
C88 C83 1.348 . S
C88 C87 1.408 . S
C88 H115 0.930 . S
C89 O102 1.281 . S
C89 O103 1.254 . S
C90 O104 1.236 . S
C90 O105 1.266 . S
C91 Tb81 2.809 . S
C91 C92 1.514 . S
C91 O106 1.248 . S
C91 O107 1.266 . S
C92 C91 1.514 . S
C92 C93 1.359 . S
C92 C97 1.348 . S
C93 C92 1.359 . S
C93 C94 1.380 . S
C93 H116 0.929 . S
C94 C93 1.380 . S
C94 C95 1.347 . S
C94 H117 0.931 . S
C95 C94 1.347 . S
C95 C96 1.369 . S
C96 C95 1.369 . S
C96 C97 1.408 . S
C96 H118 0.930 . S
C97 C92 1.348 . S
C97 C96 1.408 . S
C97 H119 0.930 . S
C98 O108 1.281 . S
C98 O109 1.254 . S
C99 O110 1.236 . S
C99 O111 1.266 . S
O100 Tb80 2.484 . S
O100 C82 1.248 . S
O101 Tb80 2.440 . S
O101 C82 1.266 . S
O102 Tb80 2.658 . S
O102 Tb81 2.325 . S
O102 C89 1.281 . S
O103 Tb80 2.409 . S
O103 C89 1.254 . S
O104 Tb80 2.378 . S
O104 C90 1.236 . S
O105 Tb81 2.341 . S
O105 C90 1.266 . S
O106 Tb81 2.484 . S
O106 C91 1.248 . S
O107 Tb81 2.440 . S
O107 C91 1.266 . S
O108 Tb80 2.325 . S
O108 Tb81 2.658 . S
O108 C98 1.281 . S
O109 Tb81 2.409 . S
O109 C98 1.254 . S
O110 Tb81 2.378 . S
O110 C99 1.236 . S
O111 Tb80 2.341 . S
O111 C99 1.266 . S
H112 C84 0.929 . S
H113 C85 0.931 . S
H114 C87 0.930 . S
H115 C88 0.930 . S
H116 C93 0.929 . S
H117 C94 0.931 . S
H118 C96 0.930 . S
H119 C97 0.930 . S
C120 C121 1.384 . S
C120 H133 0.947 . S
C120 C155 1.382 . S
C121 C120 1.384 . S
C121 C122 1.378 . S
C122 C121 1.378 . S
C122 C123 1.378 . S
C122 H134 0.952 . S
C123 C122 1.378 . S
C123 H135 0.950 1_565 S
C123 C154 1.383 . S
H124 C143 0.947 . S
H125 C144 0.946 . S
H126 C146 0.953 . S
H127 C147 0.945 . S
H128 C149 0.952 . S
H129 C150 0.949 . S
H130 C152 0.950 1_565 S
H131 C153 0.948 1_565 S
H132 C155 0.951 . S
H133 C120 0.947 . S
H134 C122 0.952 . S
H135 C123 0.950 1_545 S
N136 C139 1.382 . S
N136 C141 1.363 . S
N137 C139 1.371 . S
N137 C140 1.372 . S
N138 C140 1.361 . S
N138 C141 1.377 . S
C139 N136 1.382 . S
C139 N137 1.371 . S
C139 C142 1.480 . S
C140 N137 1.372 . S
C140 N138 1.361 . S
C140 C148 1.457 . S
C141 N136 1.363 . S
C141 N138 1.377 . S
C141 C154 1.479 1_545 S
C142 C139 1.480 . S
C142 C143 1.383 . S
C142 C147 1.385 . S
C143 H124 0.947 . S
C143 C142 1.383 . S
C143 C144 1.388 . S
C144 H125 0.946 . S
C144 C143 1.388 . S
C144 C145 1.384 . S
C145 C144 1.384 . S
C145 C146 1.377 . S
C146 H126 0.953 . S
C146 C145 1.377 . S
C146 C147 1.369 . S
C147 H127 0.945 . S
C147 C142 1.385 . S
C147 C146 1.369 . S
C148 C140 1.457 . S
C148 C149 1.372 . S
C148 C153 1.364 . S
C149 H128 0.952 . S
C149 C148 1.372 . S
C149 C150 1.389 . S
C150 H129 0.949 . S
C150 C149 1.389 . S
C150 C151 1.387 . S
C151 C150 1.387 . S
C151 C152 1.372 . S
C152 H130 0.950 1_545 S
C152 C151 1.372 . S
C152 C153 1.379 . S
C153 H131 0.948 1_545 S
C153 C148 1.364 . S
C153 C152 1.379 . S
C154 C123 1.383 . S
C154 C141 1.479 1_565 S
C154 C155 1.398 . S
C155 C120 1.382 . S
C155 H132 0.951 . S
C155 C154 1.398 . S
C156 C157 1.384 . S
C156 H169 0.947 . S
C156 C191 1.382 . S
C157 C156 1.384 . S
C157 C158 1.378 . S
C158 C157 1.378 . S
C158 C159 1.378 . S
C158 H170 0.952 . S
C159 C158 1.378 . S
C159 H171 0.950 . S
C159 C190 1.383 . S
H160 C179 0.947 . S
H161 C180 0.946 . S
H162 C182 0.953 . S
H163 C183 0.945 . S
H164 C185 0.952 . S
H165 C186 0.949 . S
H166 C188 0.950 . S
H167 C189 0.948 . S
H168 C191 0.951 . S
H169 C156 0.947 . S
H170 C158 0.952 . S
H171 C159 0.950 . S
N172 C175 1.382 . S
N172 C177 1.363 . S
N173 C175 1.371 . S
N173 C176 1.372 . S
N174 C176 1.361 . S
N174 C177 1.377 . S
C175 N172 1.382 . S
C175 N173 1.371 . S
C175 C178 1.480 . S
C176 N173 1.372 . S
C176 N174 1.361 . S
C176 C184 1.457 . S
C177 N172 1.363 . S
C177 N174 1.377 . S
C177 C190 1.479 . S
C178 C175 1.480 . S
C178 C179 1.383 . S
C178 C183 1.385 . S
C179 H160 0.947 . S
C179 C178 1.383 . S
C179 C180 1.388 . S
C180 H161 0.946 . S
C180 C179 1.388 . S
C180 C181 1.384 . S
C181 C180 1.384 . S
C181 C182 1.377 . S
C182 H162 0.953 . S
C182 C181 1.377 . S
C182 C183 1.369 . S
C183 H163 0.945 . S
C183 C178 1.385 . S
C183 C182 1.369 . S
C184 C176 1.457 . S
C184 C185 1.372 . S
C184 C189 1.364 . S
C185 H164 0.952 . S
C185 C184 1.372 . S
C185 C186 1.389 . S
C186 H165 0.949 . S
C186 C185 1.389 . S
C186 C187 1.387 . S
C187 C186 1.387 . S
C187 C188 1.372 . S
C188 H166 0.950 . S
C188 C187 1.372 . S
C188 C189 1.379 . S
C189 H167 0.948 . S
C189 C184 1.364 . S
C189 C188 1.379 . S
C190 C159 1.383 . S
C190 C177 1.479 . S
C190 C191 1.398 . S
C191 C156 1.382 . S
C191 H168 0.951 . S
C191 C190 1.398 . S
C192 C193 1.384 . S
C192 H205 0.947 . S
C192 C227 1.382 . S
C193 C192 1.384 . S
C193 C194 1.378 . S
C194 C193 1.378 . S
C194 C195 1.378 . S
C194 H206 0.952 . S
C195 C194 1.378 . S
C195 H207 0.950 . S
C195 C226 1.383 . S
H196 C215 0.947 . S
H197 C216 0.946 . S
H198 C218 0.953 . S
H199 C219 0.945 . S
H200 C221 0.952 . S
H201 C222 0.949 . S
H202 C224 0.950 . S
H203 C225 0.948 . S
H204 C227 0.951 . S
H205 C192 0.947 . S
H206 C194 0.952 . S
H207 C195 0.950 . S
N208 C211 1.382 . S
N208 C213 1.363 1_455 S
N209 C211 1.371 . S
N209 C212 1.372 . S
N210 C212 1.361 1_655 S
N210 C213 1.377 . S
C211 N208 1.382 . S
C211 N209 1.371 . S
C211 C214 1.480 . S
C212 N209 1.372 . S
C212 N210 1.361 1_455 S
C212 C220 1.457 . S
C213 N208 1.363 1_655 S
C213 N210 1.377 . S
C213 C226 1.479 . S
C214 C211 1.480 . S
C214 C215 1.383 . S
C214 C219 1.385 . S
C215 H196 0.947 . S
C215 C214 1.383 . S
C215 C216 1.388 . S
C216 H197 0.946 . S
C216 C215 1.388 . S
C216 C217 1.384 . S
C217 C216 1.384 . S
C217 C218 1.377 . S
C218 H198 0.953 . S
C218 C217 1.377 . S
C218 C219 1.369 . S
C219 H199 0.945 . S
C219 C214 1.385 . S
C219 C218 1.369 . S
C220 C212 1.457 . S
C220 C221 1.372 . S
C220 C225 1.364 1_455 S
C221 H200 0.952 . S
C221 C220 1.372 . S
C221 C222 1.389 . S
C222 H201 0.949 . S
C222 C221 1.389 . S
C222 C223 1.387 . S
C223 C222 1.387 . S
C223 C224 1.372 1_455 S
C224 H202 0.950 . S
C224 C223 1.372 1_655 S
C224 C225 1.379 . S
C225 H203 0.948 . S
C225 C220 1.364 1_655 S
C225 C224 1.379 . S
C226 C195 1.383 . S
C226 C213 1.479 . S
C226 C227 1.398 . S
C227 C192 1.382 . S
C227 H204 0.951 . S
C227 C226 1.398 . S
C228 C229 1.384 . S
C228 H241 0.947 . S
C228 C263 1.382 . S
C229 C228 1.384 . S
C229 C230 1.378 . S
C230 C229 1.378 . S
C230 C231 1.378 . S
C230 H242 0.952 . S
C231 C230 1.378 . S
C231 H243 0.950 . S
C231 C262 1.383 . S
H232 C251 0.947 . S
H233 C252 0.946 . S
H234 C254 0.953 . S
H235 C255 0.945 . S
H236 C257 0.952 . S
H237 C258 0.949 . S
H238 C260 0.950 . S
H239 C261 0.948 . S
H240 C263 0.951 . S
H241 C228 0.947 . S
H242 C230 0.952 . S
H243 C231 0.950 . S
N244 C247 1.382 . S
N244 C249 1.363 . S
N245 C247 1.371 . S
N245 C248 1.372 . S
N246 C248 1.361 . S
N246 C249 1.377 . S
C247 N244 1.382 . S
C247 N245 1.371 . S
C247 C250 1.480 . S
C248 N245 1.372 . S
C248 N246 1.361 . S
C248 C256 1.457 . S
C249 N244 1.363 . S
C249 N246 1.377 . S
C249 C262 1.479 . S
C250 C247 1.480 . S
C250 C251 1.383 . S
C250 C255 1.385 1_455 S
C251 H232 0.947 . S
C251 C250 1.383 . S
C251 C252 1.388 1_455 S
C252 H233 0.946 . S
C252 C251 1.388 1_655 S
C252 C253 1.384 . S
C253 C252 1.384 . S
C253 C254 1.377 . S
C254 H234 0.953 . S
C254 C253 1.377 . S
C254 C255 1.369 . S
C255 H235 0.945 . S
C255 C250 1.385 1_655 S
C255 C254 1.369 . S
C256 C248 1.457 . S
C256 C257 1.372 . S
C256 C261 1.364 . S
C257 H236 0.952 . S
C257 C256 1.372 . S
C257 C258 1.389 . S
C258 H237 0.949 . S
C258 C257 1.389 . S
C258 C259 1.387 . S
C259 C258 1.387 . S
C259 C260 1.372 . S
C260 H238 0.950 . S
C260 C259 1.372 . S
C260 C261 1.379 . S
C261 H239 0.948 . S
C261 C256 1.364 . S
C261 C260 1.379 . S
C262 C231 1.383 . S
C262 C249 1.479 . S
C262 C263 1.398 . S
C263 C228 1.382 . S
C263 H240 0.951 . S
C263 C262 1.398 . S
C264 C265 1.384 . S
C264 H277 0.947 . S
C264 C299 1.382 . S
C265 C264 1.384 . S
C265 C266 1.378 . S
C266 C265 1.378 . S
C266 C267 1.378 . S
C266 H278 0.952 . S
C267 C266 1.378 . S
C267 H279 0.950 . S
C267 C298 1.383 . S
H268 C287 0.947 . S
H269 C288 0.946 . S
H270 C290 0.953 . S
H271 C291 0.945 . S
H272 C293 0.952 . S
H273 C294 0.949 . S
H274 C296 0.950 . S
H275 C297 0.948 . S
H276 C299 0.951 . S
H277 C264 0.947 . S
H278 C266 0.952 . S
H279 C267 0.950 . S
N280 C283 1.382 1_545 S
N280 C285 1.363 . S
N281 C283 1.371 . S
N281 C284 1.372 1_565 S
N282 C284 1.361 . S
N282 C285 1.377 . S
C283 N280 1.382 1_565 S
C283 N281 1.371 . S
C283 C286 1.480 . S
C284 N281 1.372 1_545 S
C284 N282 1.361 . S
C284 C292 1.457 . S
C285 N280 1.363 . S
C285 N282 1.377 . S
C285 C298 1.479 . S
C286 C283 1.480 . S
C286 C287 1.383 . S
C286 C291 1.385 . S
C287 H268 0.947 . S
C287 C286 1.383 . S
C287 C288 1.388 . S
C288 H269 0.946 . S
C288 C287 1.388 . S
C288 C289 1.384 . S
C289 C288 1.384 . S
C289 C290 1.377 . S
C290 H270 0.953 . S
C290 C289 1.377 . S
C290 C291 1.369 . S
C291 H271 0.945 . S
C291 C286 1.385 . S
C291 C290 1.369 . S
C292 C284 1.457 . S
C292 C293 1.372 1_545 S
C292 C297 1.364 . S
C293 H272 0.952 . S
C293 C292 1.372 1_565 S
C293 C294 1.389 . S
C294 H273 0.949 . S
C294 C293 1.389 . S
C294 C295 1.387 1_565 S
C295 C294 1.387 1_545 S
C295 C296 1.372 . S
C296 H274 0.950 . S
C296 C295 1.372 . S
C296 C297 1.379 . S
C297 H275 0.948 . S
C297 C292 1.364 . S
C297 C296 1.379 . S
C298 C267 1.383 . S
C298 C285 1.479 . S
C298 C299 1.398 . S
C299 C264 1.382 . S
C299 H276 0.951 . S
C299 C298 1.398 . S
C300 C301 1.384 . S
C300 H313 0.947 . S
C300 C335 1.382 . S
C301 C300 1.384 . S
C301 C302 1.378 . S
C302 C301 1.378 . S
C302 C303 1.378 . S
C302 H314 0.952 . S
C303 C302 1.378 . S
C303 H315 0.950 . S
C303 C334 1.383 . S
H304 C323 0.947 . S
H305 C324 0.946 . S
H306 C326 0.953 . S
H307 C327 0.945 . S
H308 C329 0.952 . S
H309 C330 0.949 . S
H310 C332 0.950 . S
H311 C333 0.948 . S
H312 C335 0.951 . S
H313 C300 0.947 . S
H314 C302 0.952 . S
H315 C303 0.950 . S
N316 C319 1.382 . S
N316 C321 1.363 . S
N317 C319 1.371 . S
N317 C320 1.372 . S
N318 C320 1.361 . S
N318 C321 1.377 . S
C319 N316 1.382 . S
C319 N317 1.371 . S
C319 C322 1.480 . S
C320 N317 1.372 . S
C320 N318 1.361 . S
C320 C328 1.457 . S
C321 N316 1.363 . S
C321 N318 1.377 . S
C321 C334 1.479 . S
C322 C319 1.480 . S
C322 C323 1.383 . S
C322 C327 1.385 . S
C323 H304 0.947 . S
C323 C322 1.383 . S
C323 C324 1.388 . S
C324 H305 0.946 . S
C324 C323 1.388 . S
C324 C325 1.384 . S
C325 C324 1.384 . S
C325 C326 1.377 . S
C326 H306 0.953 . S
C326 C325 1.377 . S
C326 C327 1.369 . S
C327 H307 0.945 . S
C327 C322 1.385 . S
C327 C326 1.369 . S
C328 C320 1.457 . S
C328 C329 1.372 . S
C328 C333 1.364 . S
C329 H308 0.952 . S
C329 C328 1.372 . S
C329 C330 1.389 . S
C330 H309 0.949 . S
C330 C329 1.389 . S
C330 C331 1.387 . S
C331 C330 1.387 . S
C331 C332 1.372 . S
C332 H310 0.950 . S
C332 C331 1.372 . S
C332 C333 1.379 . S
C333 H311 0.948 . S
C333 C328 1.364 . S
C333 C332 1.379 . S
C334 C303 1.383 . S
C334 C321 1.479 . S
C334 C335 1.398 . S
C335 C300 1.382 . S
C335 H312 0.951 . S
C335 C334 1.398 . S
C336 C337 1.349 . S
C336 C338 1.327 . S
C336 H361 0.950 . S
C337 C336 1.349 . S
C337 C353 1.349 . S
C338 C336 1.327 . S
C338 C357 1.429 . S
C338 H362 0.950 . S
C339 C356 1.574 . S
C339 C358 1.368 . S
C339 H363 0.949 . S
H340 C344 0.949 . S
C341 C342 1.349 . S
C341 C343 1.327 . S
C341 H364 0.950 . S
C342 C341 1.349 . S
C342 C354 1.349 . S
C343 C341 1.327 . S
C343 C359 1.429 . S
C343 H365 0.950 . S
C344 H340 0.949 . S
C344 C352 1.574 . S
C344 C360 1.368 . S
H345 C353 0.950 . S
H346 C351 0.950 . S
H347 C352 0.949 . S
H348 C354 0.950 . S
H349 C355 0.950 . S
H350 C356 0.949 . S
C351 H346 0.950 . S
C351 C353 1.327 . S
C351 C357 1.429 . S
C352 C344 1.574 . S
C352 H347 0.949 . S
C352 C358 1.368 . S
C353 C337 1.349 . S
C353 H345 0.950 . S
C353 C351 1.327 . S
C354 C342 1.349 . S
C354 H348 0.950 . S
C354 C355 1.327 . S
C355 H349 0.950 . S
C355 C354 1.327 . S
C355 C359 1.429 . S
C356 C339 1.574 . S
C356 H350 0.949 . S
C356 C360 1.368 . S
C357 C338 1.429 . S
C357 C351 1.429 . S
C357 C358 1.523 . S
C358 C339 1.368 . S
C358 C352 1.368 . S
C358 C357 1.523 . S
C359 C343 1.429 . S
C359 C355 1.429 . S
C359 C360 1.523 . S
C360 C344 1.368 . S
C360 C356 1.368 . S
C360 C359 1.523 . S
H361 C336 0.950 . S
H362 C338 0.950 . S
H363 C339 0.949 . S
H364 C341 0.950 . S
H365 C343 0.950 . S
C366 C367 1.349 . S
C366 C368 1.327 . S
C366 H391 0.950 . S
C367 C366 1.349 . S
C367 C383 1.349 . S
C368 C366 1.327 . S
C368 C387 1.429 . S
C368 H392 0.950 . S
C369 C386 1.574 . S
C369 C388 1.368 . S
C369 H393 0.949 . S
H370 C374 0.949 . S
C371 C372 1.349 . S
C371 C373 1.327 . S
C371 H394 0.950 . S
C372 C371 1.349 . S
C372 C384 1.349 . S
C373 C371 1.327 . S
C373 C389 1.429 . S
C373 H395 0.950 . S
C374 H370 0.949 . S
C374 C382 1.574 . S
C374 C390 1.368 . S
H375 C383 0.950 . S
H376 C381 0.950 . S
H377 C382 0.949 . S
H378 C384 0.950 . S
H379 C385 0.950 . S
H380 C386 0.949 . S
C381 H376 0.950 . S
C381 C383 1.327 . S
C381 C387 1.429 . S
C382 C374 1.574 . S
C382 H377 0.949 . S
C382 C388 1.368 . S
C383 C367 1.349 . S
C383 H375 0.950 . S
C383 C381 1.327 . S
C384 C372 1.349 . S
C384 H378 0.950 . S
C384 C385 1.327 . S
C385 H379 0.950 . S
C385 C384 1.327 . S
C385 C389 1.429 . S
C386 C369 1.574 . S
C386 H380 0.949 . S
C386 C390 1.368 . S
C387 C368 1.429 . S
C387 C381 1.429 . S
C387 C388 1.523 . S
C388 C369 1.368 . S
C388 C382 1.368 . S
C388 C387 1.523 . S
C389 C373 1.429 . S
C389 C385 1.429 . S
C389 C390 1.523 . S
C390 C374 1.368 . S
C390 C386 1.368 . S
C390 C389 1.523 . S
H391 C366 0.950 . S
H392 C368 0.950 . S
H393 C369 0.949 . S
H394 C371 0.950 . S
H395 C373 0.950 . S
C396 C397 1.349 . S
C396 C398 1.327 . S
C396 H421 0.950 . S
C397 C396 1.349 . S
C397 C413 1.349 . S
C398 C396 1.327 . S
C398 C417 1.429 . S
C398 H422 0.950 . S
C399 C416 1.574 . S
C399 C418 1.368 . S
C399 H423 0.949 . S
H400 C404 0.949 . S
C401 C402 1.349 . S
C401 C403 1.327 . S
C401 H424 0.950 . S
C402 C401 1.349 . S
C402 C414 1.349 . S
C403 C401 1.327 . S
C403 C419 1.429 . S
C403 H425 0.950 . S
C404 H400 0.949 . S
C404 C412 1.574 . S
C404 C420 1.368 . S
H405 C413 0.950 . S
H406 C411 0.950 . S
H407 C412 0.949 . S
H408 C414 0.950 . S
H409 C415 0.950 . S
H410 C416 0.949 . S
C411 H406 0.950 . S
C411 C413 1.327 . S
C411 C417 1.429 . S
C412 C404 1.574 . S
C412 H407 0.949 . S
C412 C418 1.368 . S
C413 C397 1.349 . S
C413 H405 0.950 . S
C413 C411 1.327 . S
C414 C402 1.349 . S
C414 H408 0.950 . S
C414 C415 1.327 . S
C415 H409 0.950 . S
C415 C414 1.327 . S
C415 C419 1.429 . S
C416 C399 1.574 . S
C416 H410 0.949 . S
C416 C420 1.368 . S
C417 C398 1.429 . S
C417 C411 1.429 . S
C417 C418 1.523 . S
C418 C399 1.368 . S
C418 C412 1.368 . S
C418 C417 1.523 . S
C419 C403 1.429 . S
C419 C415 1.429 . S
C419 C420 1.523 . S
C420 C404 1.368 . S
C420 C416 1.368 . S
C420 C419 1.523 . S
H421 C396 0.950 . S
H422 C398 0.950 . S
H423 C399 0.949 . S
H424 C401 0.950 . S
H425 C403 0.950 . S
C426 C427 1.349 . S
C426 C428 1.327 . S
C426 H451 0.950 . S
C427 C426 1.349 . S
C427 C443 1.349 . S
C428 C426 1.327 . S
C428 C447 1.429 . S
C428 H452 0.950 . S
C429 C446 1.574 . S
C429 C448 1.368 . S
C429 H453 0.949 . S
H430 C434 0.949 . S
C431 C432 1.349 . S
C431 C433 1.327 . S
C431 H454 0.950 . S
C432 C431 1.349 . S
C432 C444 1.349 . S
C433 C431 1.327 . S
C433 C449 1.429 . S
C433 H455 0.950 . S
C434 H430 0.949 . S
C434 C442 1.574 . S
C434 C450 1.368 . S
H435 C443 0.950 . S
H436 C441 0.950 . S
H437 C442 0.949 . S
H438 C444 0.950 . S
H439 C445 0.950 . S
H440 C446 0.949 . S
C441 H436 0.950 . S
C441 C443 1.327 . S
C441 C447 1.429 . S
C442 C434 1.574 . S
C442 H437 0.949 . S
C442 C448 1.368 . S
C443 C427 1.349 . S
C443 H435 0.950 . S
C443 C441 1.327 . S
C444 C432 1.349 . S
C444 H438 0.950 . S
C444 C445 1.327 . S
C445 H439 0.950 . S
C445 C444 1.327 . S
C445 C449 1.429 . S
C446 C429 1.574 . S
C446 H440 0.949 . S
C446 C450 1.368 . S
C447 C428 1.429 . S
C447 C441 1.429 . S
C447 C448 1.523 . S
C448 C429 1.368 . S
C448 C442 1.368 . S
C448 C447 1.523 . S
C449 C433 1.429 . S
C449 C445 1.429 . S
C449 C450 1.523 . S
C450 C434 1.368 . S
C450 C446 1.368 . S
C450 C449 1.523 . S
H451 C426 0.950 . S
H452 C428 0.950 . S
H453 C429 0.949 . S
H454 C431 0.950 . S
H455 C433 0.950 . S
C456 C457 1.349 . S
C456 C458 1.327 . S
C456 H481 0.950 . S
C457 C456 1.349 . S
C457 C473 1.349 . S
C458 C456 1.327 . S
C458 C477 1.429 . S
C458 H482 0.950 . S
C459 C476 1.574 . S
C459 C478 1.368 . S
C459 H483 0.949 . S
H460 C464 0.949 . S
C461 C462 1.349 . S
C461 C463 1.327 . S
C461 H484 0.950 . S
C462 C461 1.349 . S
C462 C474 1.349 . S
C463 C461 1.327 . S
C463 C479 1.429 . S
C463 H485 0.950 . S
C464 H460 0.949 . S
C464 C472 1.574 . S
C464 C480 1.368 . S
H465 C473 0.950 . S
H466 C471 0.950 . S
H467 C472 0.949 . S
H468 C474 0.950 . S
H469 C475 0.950 . S
H470 C476 0.949 . S
C471 H466 0.950 . S
C471 C473 1.327 . S
C471 C477 1.429 . S
C472 C464 1.574 . S
C472 H467 0.949 . S
C472 C478 1.368 . S
C473 C457 1.349 . S
C473 H465 0.950 . S
C473 C471 1.327 . S
C474 C462 1.349 . S
C474 H468 0.950 . S
C474 C475 1.327 . S
C475 H469 0.950 . S
C475 C474 1.327 . S
C475 C479 1.429 . S
C476 C459 1.574 . S
C476 H470 0.949 . S
C476 C480 1.368 . S
C477 C458 1.429 . S
C477 C471 1.429 . S
C477 C478 1.523 . S
C478 C459 1.368 . S
C478 C472 1.368 . S
C478 C477 1.523 . S
C479 C463 1.429 . S
C479 C475 1.429 . S
C479 C480 1.523 . S
C480 C464 1.368 . S
C480 C476 1.368 . S
C480 C479 1.523 . S
H481 C456 0.950 . S
H482 C458 0.950 . S
H483 C459 0.949 . S
H484 C461 0.950 . S
H485 C463 0.950 . S
C486 C487 1.349 . S
C486 C488 1.327 . S
C486 H511 0.950 . S
C487 C486 1.349 . S
C487 C503 1.349 . S
C488 C486 1.327 . S
C488 C507 1.429 . S
C488 H512 0.950 . S
C489 C506 1.574 . S
C489 C508 1.368 . S
C489 H513 0.949 . S
H490 C494 0.949 . S
C491 C492 1.349 . S
C491 C493 1.327 . S
C491 H514 0.950 . S
C492 C491 1.349 . S
C492 C504 1.349 . S
C493 C491 1.327 . S
C493 C509 1.429 . S
C493 H515 0.950 . S
C494 H490 0.949 . S
C494 C502 1.574 . S
C494 C510 1.368 . S
H495 C503 0.950 . S
H496 C501 0.950 . S
H497 C502 0.949 . S
H498 C504 0.950 . S
H499 C505 0.950 . S
H500 C506 0.949 . S
C501 H496 0.950 . S
C501 C503 1.327 . S
C501 C507 1.429 . S
C502 C494 1.574 . S
C502 H497 0.949 . S
C502 C508 1.368 . S
C503 C487 1.349 . S
C503 H495 0.950 . S
C503 C501 1.327 . S
C504 C492 1.349 . S
C504 H498 0.950 . S
C504 C505 1.327 . S
C505 H499 0.950 . S
C505 C504 1.327 . S
C505 C509 1.429 . S
C506 C489 1.574 . S
C506 H500 0.949 . S
C506 C510 1.368 . S
C507 C488 1.429 . S
C507 C501 1.429 . S
C507 C508 1.523 . S
C508 C489 1.368 . S
C508 C502 1.368 . S
C508 C507 1.523 . S
C509 C493 1.429 . S
C509 C505 1.429 . S
C509 C510 1.523 . S
C510 C494 1.368 . S
C510 C506 1.368 . S
C510 C509 1.523 . S
H511 C486 0.950 . S
H512 C488 0.950 . S
H513 C489 0.949 . S
H514 C491 0.950 . S
H515 C493 0.950 . S
C516 C517 1.349 . S
C516 C518 1.327 . S
C516 H541 0.950 . S
C517 C516 1.349 . S
C517 C533 1.349 . S
C518 C516 1.327 . S
C518 C537 1.429 . S
C518 H542 0.950 . S
C519 C536 1.574 . S
C519 C538 1.368 . S
C519 H543 0.949 . S
H520 C524 0.949 . S
C521 C522 1.349 . S
C521 C523 1.327 . S
C521 H544 0.950 . S
C522 C521 1.349 . S
C522 C534 1.349 . S
C523 C521 1.327 . S
C523 C539 1.429 . S
C523 H545 0.950 . S
C524 H520 0.949 . S
C524 C532 1.574 . S
C524 C540 1.368 . S
H525 C533 0.950 . S
H526 C531 0.950 . S
H527 C532 0.949 . S
H528 C534 0.950 . S
H529 C535 0.950 . S
H530 C536 0.949 . S
C531 H526 0.950 . S
C531 C533 1.327 . S
C531 C537 1.429 . S
C532 C524 1.574 . S
C532 H527 0.949 . S
C532 C538 1.368 . S
C533 C517 1.349 . S
C533 H525 0.950 . S
C533 C531 1.327 . S
C534 C522 1.349 . S
C534 H528 0.950 . S
C534 C535 1.327 . S
C535 H529 0.950 . S
C535 C534 1.327 . S
C535 C539 1.429 . S
C536 C519 1.574 . S
C536 H530 0.949 . S
C536 C540 1.368 . S
C537 C518 1.429 . S
C537 C531 1.429 . S
C537 C538 1.523 . S
C538 C519 1.368 . S
C538 C532 1.368 . S
C538 C537 1.523 . S
C539 C523 1.429 . S
C539 C535 1.429 . S
C539 C540 1.523 . S
C540 C524 1.368 . S
C540 C536 1.368 . S
C540 C539 1.523 . S
H541 C516 0.950 . S
H542 C518 0.950 . S
H543 C519 0.949 . S
H544 C521 0.950 . S
H545 C523 0.950 . S
C546 C547 1.349 . S
C546 C548 1.327 . S
C546 H571 0.950 . S
C547 C546 1.349 . S
C547 C563 1.349 . S
C548 C546 1.327 . S
C548 C567 1.429 . S
C548 H572 0.950 . S
C549 C566 1.574 . S
C549 C568 1.368 . S
C549 H573 0.949 . S
H550 C554 0.949 . S
C551 C552 1.349 . S
C551 C553 1.327 . S
C551 H574 0.950 . S
C552 C551 1.349 . S
C552 C564 1.349 . S
C553 C551 1.327 . S
C553 C569 1.429 . S
C553 H575 0.950 . S
C554 H550 0.949 . S
C554 C562 1.574 . S
C554 C570 1.368 . S
H555 C563 0.950 . S
H556 C561 0.950 . S
H557 C562 0.949 . S
H558 C564 0.950 . S
H559 C565 0.950 . S
H560 C566 0.949 . S
C561 H556 0.950 . S
C561 C563 1.327 . S
C561 C567 1.429 . S
C562 C554 1.574 . S
C562 H557 0.949 . S
C562 C568 1.368 . S
C563 C547 1.349 . S
C563 H555 0.950 . S
C563 C561 1.327 . S
C564 C552 1.349 . S
C564 H558 0.950 . S
C564 C565 1.327 . S
C565 H559 0.950 . S
C565 C564 1.327 . S
C565 C569 1.429 . S
C566 C549 1.574 . S
C566 H560 0.949 . S
C566 C570 1.368 . S
C567 C548 1.429 . S
C567 C561 1.429 . S
C567 C568 1.523 . S
C568 C549 1.368 . S
C568 C562 1.368 . S
C568 C567 1.523 . S
C569 C553 1.429 . S
C569 C565 1.429 . S
C569 C570 1.523 . S
C570 C554 1.368 . S
C570 C566 1.368 . S
C570 C569 1.523 . S
H571 C546 0.950 . S
H572 C548 0.950 . S
H573 C549 0.949 . S
H574 C551 0.950 . S
H575 C553 0.950 . S
C576 C577 1.349 . S
C576 C578 1.327 . S
C576 H601 0.950 . S
C577 C576 1.349 . S
C577 C593 1.349 . S
C578 C576 1.327 . S
C578 C597 1.429 . S
C578 H602 0.950 . S
C579 C596 1.574 . S
C579 C598 1.368 . S
C579 H603 0.949 . S
H580 C584 0.949 . S
C581 C582 1.349 . S
C581 C583 1.327 . S
C581 H604 0.950 . S
C582 C581 1.349 . S
C582 C594 1.349 . S
C583 C581 1.327 . S
C583 C599 1.429 . S
C583 H605 0.950 . S
C584 H580 0.949 . S
C584 C592 1.574 . S
C584 C600 1.368 . S
H585 C593 0.950 . S
H586 C591 0.950 . S
H587 C592 0.949 . S
H588 C594 0.950 . S
H589 C595 0.950 . S
H590 C596 0.949 . S
C591 H586 0.950 . S
C591 C593 1.327 . S
C591 C597 1.429 . S
C592 C584 1.574 . S
C592 H587 0.949 . S
C592 C598 1.368 . S
C593 C577 1.349 . S
C593 H585 0.950 . S
C593 C591 1.327 . S
C594 C582 1.349 . S
C594 H588 0.950 . S
C594 C595 1.327 . S
C595 H589 0.950 . S
C595 C594 1.327 . S
C595 C599 1.429 . S
C596 C579 1.574 . S
C596 H590 0.949 . S
C596 C600 1.368 . S
C597 C578 1.429 . S
C597 C591 1.429 . S
C597 C598 1.523 . S
C598 C579 1.368 . S
C598 C592 1.368 . S
C598 C597 1.523 . S
C599 C583 1.429 . S
C599 C595 1.429 . S
C599 C600 1.523 . S
C600 C584 1.368 . S
C600 C596 1.368 . S
C600 C599 1.523 . S
H601 C576 0.950 . S
H602 C578 0.950 . S
H603 C579 0.949 . S
H604 C581 0.950 . S
H605 C583 0.950 . S
C606 C607 1.349 . S
C606 C608 1.327 . S
C606 H631 0.950 . S
C607 C606 1.349 . S
C607 C623 1.349 . S
C608 C606 1.327 . S
C608 C627 1.429 . S
C608 H632 0.950 . S
C609 C626 1.574 . S
C609 C628 1.368 . S
C609 H633 0.949 . S
H610 C614 0.949 . S
C611 C612 1.349 . S
C611 C613 1.327 . S
C611 H634 0.950 . S
C612 C611 1.349 . S
C612 C624 1.349 . S
C613 C611 1.327 . S
C613 C629 1.429 . S
C613 H635 0.950 . S
C614 H610 0.949 . S
C614 C622 1.574 . S
C614 C630 1.368 . S
H615 C623 0.950 . S
H616 C621 0.950 . S
H617 C622 0.949 . S
H618 C624 0.950 . S
H619 C625 0.950 . S
H620 C626 0.949 . S
C621 H616 0.950 . S
C621 C623 1.327 . S
C621 C627 1.429 . S
C622 C614 1.574 . S
C622 H617 0.949 . S
C622 C628 1.368 . S
C623 C607 1.349 . S
C623 H615 0.950 . S
C623 C621 1.327 . S
C624 C612 1.349 . S
C624 H618 0.950 . S
C624 C625 1.327 . S
C625 H619 0.950 . S
C625 C624 1.327 . S
C625 C629 1.429 . S
C626 C609 1.574 . S
C626 H620 0.949 . S
C626 C630 1.368 . S
C627 C608 1.429 . S
C627 C621 1.429 . S
C627 C628 1.523 . S
C628 C609 1.368 . S
C628 C622 1.368 . S
C628 C627 1.523 . S
C629 C613 1.429 . S
C629 C625 1.429 . S
C629 C630 1.523 . S
C630 C614 1.368 . S
C630 C626 1.368 . S
C630 C629 1.523 . S
H631 C606 0.950 . S
H632 C608 0.950 . S
H633 C609 0.949 . S
H634 C611 0.950 . S
H635 C613 0.950 . S
C636 C637 1.349 . S
C636 C638 1.327 . S
C636 H661 0.950 . S
C637 C636 1.349 . S
C637 C653 1.349 . S
C638 C636 1.327 . S
C638 C657 1.429 . S
C638 H662 0.950 . S
C639 C656 1.574 . S
C639 C658 1.368 . S
C639 H663 0.949 . S
H640 C644 0.949 . S
C641 C642 1.349 . S
C641 C643 1.327 . S
C641 H664 0.950 . S
C642 C641 1.349 . S
C642 C654 1.349 . S
C643 C641 1.327 . S
C643 C659 1.429 . S
C643 H665 0.950 . S
C644 H640 0.949 . S
C644 C652 1.574 . S
C644 C660 1.368 . S
H645 C653 0.950 . S
H646 C651 0.950 . S
H647 C652 0.949 . S
H648 C654 0.950 . S
H649 C655 0.950 . S
H650 C656 0.949 . S
C651 H646 0.950 . S
C651 C653 1.327 . S
C651 C657 1.429 . S
C652 C644 1.574 . S
C652 H647 0.949 . S
C652 C658 1.368 . S
C653 C637 1.349 . S
C653 H645 0.950 . S
C653 C651 1.327 . S
C654 C642 1.349 . S
C654 H648 0.950 . S
C654 C655 1.327 . S
C655 H649 0.950 . S
C655 C654 1.327 . S
C655 C659 1.429 . S
C656 C639 1.574 . S
C656 H650 0.949 . S
C656 C660 1.368 . S
C657 C638 1.429 . S
C657 C651 1.429 . S
C657 C658 1.523 . S
C658 C639 1.368 . S
C658 C652 1.368 . S
C658 C657 1.523 . S
C659 C643 1.429 . S
C659 C655 1.429 . S
C659 C660 1.523 . S
C660 C644 1.368 . S
C660 C656 1.368 . S
C660 C659 1.523 . S
H661 C636 0.950 . S
H662 C638 0.950 . S
H663 C639 0.949 . S
H664 C641 0.950 . S
H665 C643 0.950 . S
C666 C667 1.349 . S
C666 C668 1.327 . S
C666 H691 0.950 . S
C667 C666 1.349 . S
C667 C683 1.349 . S
C668 C666 1.327 . S
C668 C687 1.429 . S
C668 H692 0.950 . S
C669 C686 1.574 . S
C669 C688 1.368 . S
C669 H693 0.949 . S
H670 C674 0.949 . S
C671 C672 1.349 . S
C671 C673 1.327 . S
C671 H694 0.950 . S
C672 C671 1.349 . S
C672 C684 1.349 . S
C673 C671 1.327 . S
C673 C689 1.429 . S
C673 H695 0.950 . S
C674 H670 0.949 . S
C674 C682 1.574 . S
C674 C690 1.368 . S
H675 C683 0.950 . S
H676 C681 0.950 . S
H677 C682 0.949 . S
H678 C684 0.950 . S
H679 C685 0.950 . S
H680 C686 0.949 . S
C681 H676 0.950 . S
C681 C683 1.327 . S
C681 C687 1.429 . S
C682 C674 1.574 . S
C682 H677 0.949 . S
C682 C688 1.368 . S
C683 C667 1.349 . S
C683 H675 0.950 . S
C683 C681 1.327 . S
C684 C672 1.349 . S
C684 H678 0.950 . S
C684 C685 1.327 . S
C685 H679 0.950 . S
C685 C684 1.327 . S
C685 C689 1.429 . S
C686 C669 1.574 . S
C686 H680 0.949 . S
C686 C690 1.368 . S
C687 C668 1.429 . S
C687 C681 1.429 . S
C687 C688 1.523 . S
C688 C669 1.368 . S
C688 C682 1.368 . S
C688 C687 1.523 . S
C689 C673 1.429 . S
C689 C685 1.429 . S
C689 C690 1.523 . S
C690 C674 1.368 . S
C690 C686 1.368 . S
C690 C689 1.523 . S
H691 C666 0.950 . S
H692 C668 0.950 . S
H693 C669 0.949 . S
H694 C671 0.950 . S
H695 C673 0.950 . S
C696 C697 1.349 . S
C696 C698 1.327 . S
C696 H721 0.950 . S
C697 C696 1.349 . S
C697 C713 1.349 1_455 S
C698 C696 1.327 . S
C698 C717 1.429 . S
C698 H722 0.950 . S
C699 C716 1.574 . S
C699 C718 1.368 1_655 S
C699 H723 0.949 . S
H700 C704 0.949 . S
C701 C702 1.349 1_655 S
C701 C703 1.327 1_556 S
C701 H724 0.950 . S
C702 C701 1.349 1_455 S
C702 C714 1.349 . S
C703 C701 1.327 1_554 S
C703 C719 1.429 1_655 S
C703 H725 0.950 . S
C704 H700 0.949 . S
C704 C712 1.574 . S
C704 C720 1.368 . S
H705 C713 0.950 . S
H706 C711 0.950 . S
H707 C712 0.949 . S
H708 C714 0.950 . S
H709 C715 0.950 . S
H710 C716 0.949 . S
C711 H706 0.950 . S
C711 C713 1.327 . S
C711 C717 1.429 1_655 S
C712 C704 1.574 . S
C712 H707 0.949 . S
C712 C718 1.368 . S
C713 C697 1.349 1_655 S
C713 H705 0.950 . S
C713 C711 1.327 . S
C714 C702 1.349 . S
C714 H708 0.950 . S
C714 C715 1.327 1_556 S
C715 H709 0.950 . S
C715 C714 1.327 1_554 S
C715 C719 1.429 . S
C716 C699 1.574 . S
C716 H710 0.949 . S
C716 C720 1.368 1_655 S
C717 C698 1.429 . S
C717 C711 1.429 1_455 S
C717 C718 1.523 . S
C718 C699 1.368 1_455 S
C718 C712 1.368 . S
C718 C717 1.523 . S
C719 C703 1.429 1_455 S
C719 C715 1.429 . S
C719 C720 1.523 . S
C720 C704 1.368 . S
C720 C716 1.368 1_455 S
C720 C719 1.523 . S
H721 C696 0.950 . S
H722 C698 0.950 . S
H723 C699 0.949 . S
H724 C701 0.950 . S
H725 C703 0.950 . S
C726 C727 1.349 . S
C726 C728 1.327 . S
C726 H751 0.950 1_545 S
C727 C726 1.349 . S
C727 C743 1.349 . S
C728 C726 1.327 . S
C728 C747 1.429 . S
C728 H752 0.950 1_545 S
C729 C746 1.574 . S
C729 C748 1.368 . S
C729 H753 0.949 . S
H730 C734 0.949 1_565 S
C731 C732 1.349 . S
C731 C733 1.327 . S
C731 H754 0.950 . S
C732 C731 1.349 . S
C732 C744 1.349 . S
C733 C731 1.327 . S
C733 C749 1.429 . S
C733 H755 0.950 . S
C734 H730 0.949 1_545 S
C734 C742 1.574 . S
C734 C750 1.368 . S
H735 C743 0.950 . S
H736 C741 0.950 . S
H737 C742 0.949 1_565 S
H738 C744 0.950 . S
H739 C745 0.943 1_565 S
H740 C746 0.949 . S
C741 H736 0.950 . S
C741 C743 1.327 . S
C741 C747 1.429 . S
C742 C734 1.574 . S
C742 H737 0.949 1_545 S
C742 C748 1.368 . S
C743 C727 1.349 . S
C743 H735 0.950 . S
C743 C741 1.327 . S
C744 C732 1.349 . S
C744 H738 0.950 . S
C744 C745 1.327 . S
C745 H739 0.943 1_545 S
C745 C744 1.327 . S
C745 C749 1.429 . S
C746 C729 1.574 . S
C746 H740 0.949 . S
C746 C750 1.368 . S
C747 C728 1.429 . S
C747 C741 1.429 . S
C747 C748 1.523 . S
C748 C729 1.368 . S
C748 C742 1.368 . S
C748 C747 1.523 . S
C749 C733 1.429 . S
C749 C745 1.429 . S
C749 C750 1.523 . S
C750 C734 1.368 . S
C750 C746 1.368 . S
C750 C749 1.523 . S
H751 C726 0.950 1_565 S
H752 C728 0.950 1_565 S
H753 C729 0.949 . S
H754 C731 0.950 . S
H755 C733 0.950 . S
C756 C757 1.349 . S
C756 C758 1.327 . S
C756 H781 0.950 . S
C757 C756 1.349 . S
C757 C773 1.349 . S
C758 C756 1.327 . S
C758 C777 1.429 . S
C758 H782 0.950 . S
C759 C776 1.574 . S
C759 C778 1.368 . S
C759 H783 0.949 . S
H760 C764 0.949 . S
C761 C762 1.349 . S
C761 C763 1.327 . S
C761 H784 0.950 . S
C762 C761 1.349 . S
C762 C774 1.349 . S
C763 C761 1.327 . S
C763 C779 1.429 . S
C763 H785 0.950 . S
C764 H760 0.949 . S
C764 C772 1.574 . S
C764 C780 1.368 . S
H765 C773 0.950 . S
H766 C771 0.950 . S
H767 C772 0.949 . S
H768 C774 0.950 . S
H769 C775 0.950 . S
H770 C776 0.949 . S
C771 H766 0.950 . S
C771 C773 1.327 . S
C771 C777 1.429 . S
C772 C764 1.574 . S
C772 H767 0.949 . S
C772 C778 1.368 . S
C773 C757 1.349 . S
C773 H765 0.950 . S
C773 C771 1.327 . S
C774 C762 1.349 . S
C774 H768 0.950 . S
C774 C775 1.327 . S
C775 H769 0.950 . S
C775 C774 1.327 . S
C775 C779 1.429 . S
C776 C759 1.574 . S
C776 H770 0.949 . S
C776 C780 1.368 . S
C777 C758 1.429 . S
C777 C771 1.429 . S
C777 C778 1.523 . S
C778 C759 1.368 . S
C778 C772 1.368 . S
C778 C777 1.523 . S
C779 C763 1.429 . S
C779 C775 1.429 . S
C779 C780 1.523 . S
C780 C764 1.368 . S
C780 C776 1.368 . S
C780 C779 1.523 . S
H781 C756 0.950 . S
H782 C758 0.950 . S
H783 C759 0.949 . S
H784 C761 0.950 . S
H785 C763 0.950 . S
C786 C787 1.328 1_565 S
C786 C788 1.328 . S
C786 H811 0.970 . S
C787 C786 1.328 1_545 S
C787 C803 1.349 . S
C788 C786 1.328 . S
C788 C807 1.429 1_565 S
C788 H812 0.950 . S
C789 C806 1.574 . S
C789 C808 1.368 . S
C789 H813 0.949 . S
H790 C794 0.949 . S
C791 C792 1.349 . S
C791 C793 1.327 . S
C791 H814 0.950 . S
C792 C791 1.349 . S
C792 C804 1.349 1_545 S
C793 C791 1.327 . S
C793 C809 1.429 . S
C793 H815 0.950 . S
C794 H790 0.949 . S
C794 C802 1.574 . S
C794 C810 1.368 1_565 S
H795 C803 0.950 . S
H796 C801 0.950 . S
H797 C802 0.949 . S
H798 C804 0.950 . S
H799 C805 0.950 . S
H800 C806 0.949 . S
C801 H796 0.950 . S
C801 C803 1.327 . S
C801 C807 1.429 . S
C802 C794 1.574 . S
C802 H797 0.949 . S
C802 C808 1.368 1_565 S
C803 C787 1.349 . S
C803 H795 0.950 . S
C803 C801 1.327 . S
C804 C792 1.349 1_565 S
C804 H798 0.950 . S
C804 C805 1.327 . S
C805 H799 0.950 . S
C805 C804 1.327 . S
C805 C809 1.429 1_565 S
C806 C789 1.574 . S
C806 H800 0.949 . S
C806 C810 1.368 . S
C807 C788 1.429 1_545 S
C807 C801 1.429 . S
C807 C808 1.523 . S
C808 C789 1.368 . S
C808 C802 1.368 1_545 S
C808 C807 1.523 . S
C809 C793 1.429 . S
C809 C805 1.429 1_545 S
C809 C810 1.523 . S
C810 C794 1.368 1_545 S
C810 C806 1.368 . S
C810 C809 1.523 . S
H811 C786 0.970 . S
H812 C788 0.950 . S
H813 C789 0.949 . S
H814 C791 0.950 . S
H815 C793 0.950 . S
C816 C817 1.349 . S
C816 C818 1.327 . S
C816 H841 0.950 . S
C817 C816 1.349 . S
C817 C833 1.349 . S
C818 C816 1.327 . S
C818 C837 1.429 . S
C818 H842 0.950 . S
C819 C836 1.574 . S
C819 C838 1.368 . S
C819 H843 0.949 . S
H820 C824 0.949 . S
C821 C822 1.349 . S
C821 C823 1.327 1_554 S
C821 H844 0.950 . S
C822 C821 1.349 . S
C822 C834 1.349 . S
C823 C821 1.327 1_556 S
C823 C839 1.429 . S
C823 H845 0.950 . S
C824 H820 0.949 . S
C824 C832 1.574 . S
C824 C840 1.368 . S
H825 C833 0.950 . S
H826 C831 0.950 . S
H827 C832 0.949 . S
H828 C834 0.950 . S
H829 C835 0.950 . S
H830 C836 0.949 . S
C831 H826 0.950 . S
C831 C833 1.327 . S
C831 C837 1.429 . S
C832 C824 1.574 . S
C832 H827 0.949 . S
C832 C838 1.368 . S
C833 C817 1.349 . S
C833 H825 0.950 . S
C833 C831 1.327 . S
C834 C822 1.349 . S
C834 H828 0.950 . S
C834 C835 1.327 1_554 S
C835 H829 0.950 . S
C835 C834 1.327 1_556 S
C835 C839 1.429 . S
C836 C819 1.574 . S
C836 H830 0.949 . S
C836 C840 1.368 . S
C837 C818 1.429 . S
C837 C831 1.429 . S
C837 C838 1.523 . S
C838 C819 1.368 . S
C838 C832 1.368 . S
C838 C837 1.523 . S
C839 C823 1.429 . S
C839 C835 1.429 . S
C839 C840 1.523 . S
C840 C824 1.368 . S
C840 C836 1.368 . S
C840 C839 1.523 . S
H841 C816 0.950 . S
H842 C818 0.950 . S
H843 C819 0.949 . S
H844 C821 0.950 . S
H845 C823 0.950 . S
C846 C847 1.349 . S
C846 C848 1.327 . S
C846 H871 0.950 . S
C847 C846 1.349 . S
C847 C863 1.349 . S
C848 C846 1.327 . S
C848 C867 1.429 . S
C848 H872 0.950 . S
C849 C866 1.574 . S
C849 C868 1.368 . S
C849 H873 0.949 . S
H850 C854 0.949 . S
C851 C852 1.349 . S
C851 C853 1.327 . S
C851 H874 0.950 . S
C852 C851 1.349 . S
C852 C864 1.349 . S
C853 C851 1.327 . S
C853 C869 1.429 . S
C853 H875 0.950 . S
C854 H850 0.949 . S
C854 C862 1.574 . S
C854 C870 1.368 . S
H855 C863 0.950 . S
H856 C861 0.950 . S
H857 C862 0.949 . S
H858 C864 0.950 . S
H859 C865 0.950 . S
H860 C866 0.949 . S
C861 H856 0.950 . S
C861 C863 1.327 . S
C861 C867 1.429 . S
C862 C854 1.574 . S
C862 H857 0.949 . S
C862 C868 1.368 . S
C863 C847 1.349 . S
C863 H855 0.950 . S
C863 C861 1.327 . S
C864 C852 1.349 . S
C864 H858 0.950 . S
C864 C865 1.327 . S
C865 H859 0.950 . S
C865 C864 1.327 . S
C865 C869 1.429 . S
C866 C849 1.574 . S
C866 H860 0.949 . S
C866 C870 1.368 . S
C867 C848 1.429 . S
C867 C861 1.429 . S
C867 C868 1.523 . S
C868 C849 1.368 . S
C868 C862 1.368 . S
C868 C867 1.523 . S
C869 C853 1.429 . S
C869 C865 1.429 . S
C869 C870 1.523 . S
C870 C854 1.368 . S
C870 C866 1.368 . S
C870 C869 1.523 . S
H871 C846 0.950 . S
H872 C848 0.950 . S
H873 C849 0.949 . S
H874 C851 0.950 . S
H875 C853 0.950 . S
C337 C10 2.944 . S
C342 C325 2.899 . S
C367 C59 3.038 . S
C372 C253 2.967 . S
C397 C90 2.944 . S
C402 C289 2.899 . S
C427 C19 3.035 . S
C432 C301 3.002 . S
C462 C229 2.929 . S
C457 C50 2.942 . S
C492 C265 3.001 . S
C487 C99 3.034 . S
C517 C46 0.350 . S
C522 C181 0.361 . S
C547 C95 0.307 . S
C552 C193 0.229 . S
C577 C6 0.345 . S
C582 C121 0.348 . S
C612 C157 0.229 . S
C607 C55 0.306 . S
C642 C217 0.360 . S
C637 C86 0.348 . S
C667 C15 0.309 . S
C672 C145 0.301 . S
C702 C223 1.101 . S
C697 C9 1.077 . S
C727 C49 1.076 . S
C732 C151 1.096 . S
C757 C89 1.077 . S
C762 C187 1.101 . S
C792 C295 1.774 . S
C787 C58 1.699 . S
C822 C331 1.774 . S
C817 C98 1.699 . S
C847 C18 1.699 . S
C852 C259 1.775 . S
