# Generated by pormake.
# Topology apo, (3,6)-cn, num edge types: 1
# Building blocks:
#     Node 0, Type 0, BuildingBlock: PAMTOO_clean_linker_0, # of connection points: 3
#     Node 1, Type 0, BuildingBlock: PAMTOO_clean_linker_0, # of connection points: 3
#     Node 2, Type 0, BuildingBlock: PAMTOO_clean_linker_0, # of connection points: 3
#     Node 3, Type 0, BuildingBlock: PAMTOO_clean_linker_0, # of connection points: 3
#     Node 4, Type 0, BuildingBlock: PAMTOO_clean_linker_0, # of connection points: 3
#     Node 5, Type 0, BuildingBlock: PAMTOO_clean_linker_0, # of connection points: 3
#     Node 6, Type 0, BuildingBlock: PAMTOO_clean_linker_0, # of connection points: 3
#     Node 7, Type 0, BuildingBlock: PAMTOO_clean_linker_0, # of connection points: 3
#     Node 8, Type 1, BuildingBlock: KUMJIN_clean_sbu_1, # of connection points: 6
#     Node 9, Type 1, BuildingBlock: KUMJIN_clean_sbu_1, # of connection points: 6
#     Node 10, Type 1, BuildingBlock: KUMJIN_clean_sbu_1, # of connection points: 6
#     Node 11, Type 1, BuildingBlock: KUMJIN_clean_sbu_1, # of connection points: 6
#     Edge 12, Type (0, 1), BuildingBlock: OJICUG_clean_linker_0, # of connection points: 2
#     Edge 13, Type (0, 1), BuildingBlock: OJICUG_clean_linker_0, # of connection points: 2
#     Edge 14, Type (0, 1), BuildingBlock: OJICUG_clean_linker_0, # of connection points: 2
#     Edge 15, Type (0, 1), BuildingBlock: OJICUG_clean_linker_0, # of connection points: 2
#     Edge 16, Type (0, 1), BuildingBlock: OJICUG_clean_linker_0, # of connection points: 2
#     Edge 17, Type (0, 1), BuildingBlock: OJICUG_clean_linker_0, # of connection points: 2
#     Edge 18, Type (0, 1), BuildingBlock: OJICUG_clean_linker_0, # of connection points: 2
#     Edge 19, Type (0, 1), BuildingBlock: OJICUG_clean_linker_0, # of connection points: 2
#     Edge 20, Type (0, 1), BuildingBlock: OJICUG_clean_linker_0, # of connection points: 2
#     Edge 21, Type (0, 1), BuildingBlock: OJICUG_clean_linker_0, # of connection points: 2
#     Edge 22, Type (0, 1), BuildingBlock: OJICUG_clean_linker_0, # of connection points: 2
#     Edge 23, Type (0, 1), BuildingBlock: OJICUG_clean_linker_0, # of connection points: 2
#     Edge 24, Type (0, 1), BuildingBlock: OJICUG_clean_linker_0, # of connection points: 2
#     Edge 25, Type (0, 1), BuildingBlock: OJICUG_clean_linker_0, # of connection points: 2
#     Edge 26, Type (0, 1), BuildingBlock: OJICUG_clean_linker_0, # of connection points: 2
#     Edge 27, Type (0, 1), BuildingBlock: OJICUG_clean_linker_0, # of connection points: 2
#     Edge 28, Type (0, 1), BuildingBlock: OJICUG_clean_linker_0, # of connection points: 2
#     Edge 29, Type (0, 1), BuildingBlock: OJICUG_clean_linker_0, # of connection points: 2
#     Edge 30, Type (0, 1), BuildingBlock: OJICUG_clean_linker_0, # of connection points: 2
#     Edge 31, Type (0, 1), BuildingBlock: OJICUG_clean_linker_0, # of connection points: 2
#     Edge 32, Type (0, 1), BuildingBlock: OJICUG_clean_linker_0, # of connection points: 2
#     Edge 33, Type (0, 1), BuildingBlock: OJICUG_clean_linker_0, # of connection points: 2
#     Edge 34, Type (0, 1), BuildingBlock: OJICUG_clean_linker_0, # of connection points: 2
#     Edge 35, Type (0, 1), BuildingBlock: OJICUG_clean_linker_0, # of connection points: 2
# Relax obj value: 0.038
# Max RMSD: 0.245
# Mean RMSD: 0.174
data_MOF--net-apo--node1-KUMJIN_clean_sbu_1--node2-PAMTOO_clean_linker_0--edge1-OJICUG_clean_linker_0
_symmetry_space_group_name_H-M    P1
_symmetry_Int_Tables_number       1
_symmetry_cell_setting            triclinic
loop_
_symmetry_equiv_pos_as_xyz
'x, y, z'
_cell_length_a     20.338655
_cell_length_b     30.656237
_cell_length_c     39.174273
_cell_angle_alpha  90.107376
_cell_angle_beta   90.266998
_cell_angle_gamma 90.291091
loop_
_atom_site_label
_atom_site_type_symbol
_atom_site_fract_x
_atom_site_fract_y
_atom_site_fract_z
_atom_type_partial_charge
H0 H 0.39605 0.46015 0.42414 0.0
H1 H 0.29978 0.38723 0.3446 0.0
H2 H 0.28523 0.34381 0.4484 0.0
H3 H 0.28615 0.26959 0.40232 0.0
C4 C 0.27769 0.28732 0.37799 0.0
O5 O 0.2508 0.32762 0.38513 0.0
H6 H 0.32583 0.29157 0.36489 0.0
C7 C 0.36674 0.43214 0.41646 0.0
C8 C 0.34314 0.4027 0.44108 0.0
C9 C 0.35154 0.4267 0.38182 0.0
C10 C 0.31169 0.39172 0.37138 0.0
C11 C 0.28809 0.36187 0.39546 0.0
C12 C 0.3034 0.36747 0.4302 0.0
H13 H 0.19035 0.02675 0.93056 0.0
H14 H 0.29581 0.14764 0.94639 0.0
H15 H 0.24193 0.10788 0.84496 0.0
H16 H 0.38359 0.13836 0.85996 0.0
C17 C 0.37007 0.16801 0.87478 0.0
O18 O 0.30337 0.16741 0.88148 0.0
H19 H 0.3979 0.16719 0.89927 0.0
C20 C 0.21403 0.05573 0.9205 0.0
C21 C 0.21241 0.06356 0.88508 0.0
C22 C 0.24306 0.08618 0.9431 0.0
C23 C 0.27228 0.12412 0.92958 0.0
C24 C 0.27303 0.13149 0.89424 0.0
C25 C 0.24225 0.10157 0.87218 0.0
H26 H 0.8758 0.06209 0.60123 0.0
H27 H 0.78997 0.12743 0.6877 0.0
H28 H 0.77246 0.18325 0.5881 0.0
H29 H 0.79797 0.24951 0.6453 0.0
C30 C 0.77726 0.22956 0.66641 0.0
O31 O 0.74615 0.19322 0.65303 0.0
H32 H 0.81875 0.21964 0.68331 0.0
C33 C 0.84787 0.0888 0.6119 0.0
C34 C 0.82475 0.12183 0.59005 0.0
C35 C 0.83595 0.09022 0.64729 0.0
C36 C 0.80126 0.1258 0.66073 0.0
C37 C 0.77989 0.15954 0.63951 0.0
C38 C 0.79139 0.15756 0.6043 0.0
H39 H 0.6782 0.45735 0.09617 0.0
H40 H 0.7993 0.34278 0.09297 0.0
H41 H 0.75745 0.40204 0.18911 0.0
H42 H 0.89111 0.37245 0.18123 0.0
C43 C 0.88242 0.3426 0.16559 0.0
O44 O 0.81609 0.33788 0.15899 0.0
H45 H 0.90962 0.34639 0.14118 0.0
C46 C 0.70756 0.43333 0.10944 0.0
C47 C 0.71246 0.43416 0.14548 0.0
C48 C 0.73885 0.40058 0.09024 0.0
C49 C 0.77478 0.36819 0.10728 0.0
C50 C 0.78103 0.36902 0.14281 0.0
C51 C 0.75048 0.40185 0.1617 0.0
H52 H 0.63073 0.54642 0.60293 0.0
H53 H 0.75815 0.657 0.58417 0.0
H54 H 0.71942 0.61614 0.6868 0.0
H55 H 0.70882 0.71456 0.66568 0.0
C56 C 0.75753 0.71569 0.65279 0.0
O57 O 0.78076 0.67366 0.64874 0.0
H58 H 0.75089 0.73079 0.62724 0.0
C59 C 0.66185 0.57281 0.61205 0.0
C60 C 0.67167 0.5778 0.64743 0.0
C61 C 0.69258 0.60122 0.58858 0.0
C62 C 0.73269 0.63523 0.60145 0.0
C63 C 0.74173 0.64093 0.63676 0.0
C64 C 0.71142 0.61208 0.65961 0.0
H65 H 0.90412 0.94558 0.1035 0.0
H66 H 0.81172 0.89853 0.19549 0.0
H67 H 0.78058 0.83081 0.10155 0.0
H68 H 0.66701 0.83836 0.14268 0.0
C69 C 0.68858 0.83535 0.16871 0.0
O70 O 0.75603 0.83143 0.16657 0.0
H71 H 0.67667 0.86522 0.1836 0.0
C72 C 0.87244 0.92252 0.11647 0.0
C73 C 0.84356 0.88798 0.09777 0.0
C74 C 0.86194 0.92671 0.15193 0.0
C75 C 0.82192 0.89577 0.16846 0.0
C76 C 0.79359 0.86123 0.15025 0.0
C77 C 0.8044 0.85734 0.1152 0.0
H78 H 0.16378 0.9562 0.43031 0.0
H79 H 0.27096 0.8369 0.44486 0.0
H80 H 0.24897 0.88872 0.34433 0.0
H81 H 0.22373 0.7923 0.35437 0.0
C82 C 0.26686 0.78609 0.37126 0.0
O83 O 0.29639 0.825 0.38047 0.0
H84 H 0.24886 0.76912 0.39453 0.0
C85 C 0.19193 0.92951 0.4198 0.0
C86 C 0.20287 0.92708 0.38417 0.0
C87 C 0.21611 0.89716 0.44208 0.0
C88 C 0.25084 0.86182 0.4283 0.0
C89 C 0.26161 0.85876 0.39317 0.0
C90 C 0.23819 0.89127 0.37129 0.0
H91 H 0.3507 0.55152 0.92738 0.0
H92 H 0.26604 0.61173 0.83805 0.0
H93 H 0.23714 0.66908 0.9365 0.0
H94 H 0.12042 0.66719 0.89004 0.0
C95 C 0.14635 0.67122 0.86527 0.0
O96 O 0.21295 0.6761 0.87108 0.0
H97 H 0.13686 0.6414 0.84971 0.0
C98 C 0.32162 0.57699 0.91566 0.0
C99 C 0.29501 0.60994 0.93643 0.0
C100 C 0.31178 0.57703 0.88001 0.0
C101 C 0.27555 0.61116 0.86528 0.0
C102 C 0.24907 0.64418 0.88563 0.0
C103 C 0.25906 0.64372 0.92103 0.0
Eu104 Eu 0.10389 0.11882 0.22358 0.0
C105 C 0.82763 0.09779 0.26769 0.0
N106 N 0.86516 0.13444 0.27126 0.0
C107 C 0.78119 0.17654 0.24363 0.0
C108 C 0.7668 0.09882 0.25026 0.0
C109 C 0.84066 0.17395 0.26156 0.0
C110 C 0.74472 0.13868 0.23733 0.0
C111 C 0.80883 0.02164 0.28197 0.0
C112 C 0.84799 0.05964 0.28343 0.0
C113 C 0.74981 0.02203 0.26325 0.0
C114 C 0.72887 0.06052 0.24741 0.0
Eu115 Eu 0.96742 0.12555 0.3001 0.0
N116 N 0.90596 0.06 0.30082 0.0
C117 C 0.82969 0.98466 0.29989 0.0
C118 C 0.92503 0.02489 0.31978 0.0
C119 C 0.88756 0.9865 0.31927 0.0
H120 H 0.86591 0.2038 0.26816 0.0
H121 H 0.90343 0.95834 0.33368 0.0
H122 H 0.22807 0.06303 0.25763 0.0
H123 H 0.10766 0.27901 0.16181 0.0
H124 H 0.97005 0.02641 0.33454 0.0
H125 H 0.80091 0.95482 0.29944 0.0
H126 H 0.06454 0.20556 0.17422 0.0
H127 H 0.76296 0.20788 0.23526 0.0
H128 H 0.71932 0.99302 0.26149 0.0
H129 H 0.68236 0.06064 0.2338 0.0
H130 H 0.3438 0.07537 0.27501 0.0
H131 H 0.69827 0.14087 0.2238 0.0
H132 H 0.21708 0.30117 0.18385 0.0
N133 N 0.21482 0.12781 0.23984 0.0
C134 C 0.24303 0.16716 0.23347 0.0
C135 C 0.31588 0.10154 0.26355 0.0
C136 C 0.30877 0.17573 0.24297 0.0
C137 C 0.25036 0.09469 0.25384 0.0
C138 C 0.34507 0.14237 0.25839 0.0
N139 N 0.14376 0.18846 0.20696 0.0
C140 C 0.11008 0.21585 0.18586 0.0
C141 C 0.2342 0.23961 0.20934 0.0
C142 C 0.20601 0.19867 0.21705 0.0
C143 C 0.19724 0.26938 0.19031 0.0
C144 C 0.13537 0.25709 0.17796 0.0
H145 H 0.39576 0.14763 0.26604 0.0
H146 H 0.3864 0.22442 0.24398 0.0
H147 H 0.32117 0.28034 0.2144 0.0
O148 O 0.12745 0.11884 0.16927 0.0
O149 O 0.13671 0.14589 0.27516 0.0
O150 O 0.04465 0.1794 0.29709 0.0
O151 O 0.1305 0.05825 0.19724 0.0
O152 O 0.00995 0.15796 0.21518 0.0
O153 O 0.98111 0.18646 0.26756 0.0
O154 O 0.97663 0.11692 0.35561 0.0
O155 O 0.97505 0.06717 0.26428 0.0
O156 O 0.9966 0.10378 0.21594 0.0
O157 O 0.90286 0.15973 0.33541 0.0
O158 O 0.06291 0.09166 0.31318 0.0
O159 O 0.10318 0.06213 0.2623 0.0
C160 C 0.10893 0.17556 0.29459 0.0
C161 C 0.19681 0.06436 0.14688 0.0
C162 C 0.24633 0.05774 0.0901 0.0
C163 C 0.30103 0.03737 0.10516 0.0
C164 C 0.2522 0.04434 0.16131 0.0
C165 C 0.30396 0.03098 0.14048 0.0
C166 C 0.19443 0.0713 0.11131 0.0
C167 C 0.9859 0.18962 0.23412 0.0
C168 C 0.14005 0.0774 0.16792 0.0
C169 C 0.33616 0.21704 0.23658 0.0
C170 C 0.29893 0.24893 0.21983 0.0
C171 C 0.97188 0.06977 0.23103 0.0
C172 C 0.87564 0.12087 0.38526 0.0
C173 C 0.83394 0.10547 0.44253 0.0
C174 C 0.78035 0.0831 0.42772 0.0
C175 C 0.82106 0.09891 0.37125 0.0
C176 C 0.88171 0.12439 0.42101 0.0
C177 C 0.77405 0.07996 0.39236 0.0
C178 C 0.0972 0.06244 0.29611 0.0
C179 C 0.92541 0.14051 0.36256 0.0
H180 H 0.34199 0.02689 0.08965 0.0
H181 H 0.25537 0.03882 0.18857 0.0
H182 H 0.34655 0.01551 0.15175 0.0
H183 H 0.15149 0.08652 0.10006 0.0
H184 H 0.74241 0.06874 0.4435 0.0
H185 H 0.81423 0.09682 0.34397 0.0
H186 H 0.92353 0.1415 0.43198 0.0
H187 H 0.7322 0.06311 0.38126 0.0
Eu188 Eu 0.44101 0.37859 0.73404 0.0
C189 C 0.68553 0.46893 0.79437 0.0
N190 N 0.67573 0.42551 0.78945 0.0
C191 C 0.78115 0.41941 0.76282 0.0
C192 C 0.74295 0.4897 0.78246 0.0
C193 C 0.72309 0.40033 0.77481 0.0
C194 C 0.79084 0.46438 0.76633 0.0
C195 C 0.64692 0.53738 0.81761 0.0
C196 C 0.63779 0.4924 0.81145 0.0
C197 C 0.70297 0.55862 0.80479 0.0
C198 C 0.7509 0.53483 0.78726 0.0
Eu199 Eu 0.5763 0.39554 0.80999 0.0
N200 N 0.58429 0.47082 0.82367 0.0
C201 C 0.60057 0.55931 0.83749 0.0
C202 C 0.54279 0.49114 0.84576 0.0
C203 C 0.549 0.53585 0.85222 0.0
H204 H 0.71583 0.36557 0.77233 0.0
H205 H 0.51474 0.552 0.86906 0.0
H206 H 0.31672 0.44497 0.7606 0.0
H207 H 0.42238 0.20684 0.69996 0.0
H208 H 0.50574 0.47271 0.85911 0.0
H209 H 0.60574 0.59385 0.84282 0.0
H210 H 0.47108 0.28129 0.70045 0.0
H211 H 0.81829 0.39947 0.75086 0.0
H212 H 0.71048 0.59324 0.80898 0.0
H213 H 0.7944 0.55149 0.77802 0.0
H214 H 0.21112 0.43789 0.79036 0.0
H215 H 0.83572 0.4791 0.75688 0.0
H216 H 0.31976 0.19211 0.73181 0.0
N217 N 0.33466 0.3765 0.75916 0.0
C218 C 0.30719 0.3362 0.76268 0.0
C219 C 0.23817 0.40896 0.78329 0.0
C220 C 0.24538 0.33065 0.77834 0.0
C221 C 0.29902 0.4128 0.76707 0.0
C222 C 0.21183 0.36765 0.78962 0.0
N223 N 0.39694 0.30737 0.7324 0.0
C224 C 0.42595 0.27484 0.71409 0.0
C225 C 0.3095 0.25891 0.74906 0.0
C226 C 0.33863 0.30071 0.74827 0.0
C227 C 0.34066 0.22469 0.73187 0.0
C228 C 0.39859 0.23287 0.71383 0.0
H229 H 0.16427 0.36479 0.80179 0.0
H230 H 0.17073 0.28373 0.79322 0.0
H231 H 0.22697 0.22088 0.76757 0.0
O232 O 0.46461 0.37332 0.67992 0.0
O233 O 0.46634 0.32254 0.76982 0.0
O234 O 0.48286 0.35693 0.82077 0.0
O235 O 0.36845 0.39506 0.69479 0.0
O236 O 0.54525 0.35582 0.72345 0.0
O237 O 0.59396 0.33688 0.77539 0.0
O238 O 0.59385 0.40177 0.86461 0.0
O239 O 0.59428 0.42412 0.75671 0.0
O240 O 0.49228 0.44445 0.73783 0.0
O241 O 0.64309 0.35088 0.83691 0.0
O242 O 0.46951 0.41334 0.81922 0.0
O243 O 0.43299 0.43917 0.76753 0.0
C244 C 0.46234 0.32305 0.8032 0.0
C245 C 0.41095 0.42154 0.64289 0.0
C246 C 0.40298 0.4411 0.58279 0.0
C247 C 0.4247 0.4835 0.59092 0.0
C248 C 0.4313 0.46415 0.65071 0.0
C249 C 0.4383 0.49498 0.62477 0.0
C250 C 0.39604 0.41023 0.60901 0.0
C251 C 0.5892 0.33422 0.7417 0.0
C252 C 0.40819 0.38805 0.6695 0.0
C253 C 0.2178 0.28865 0.78092 0.0
C254 C 0.24973 0.25287 0.76624 0.0
C255 C 0.55632 0.45001 0.73865 0.0
C256 C 0.69609 0.38118 0.88637 0.0
C257 C 0.74491 0.39654 0.94235 0.0
C258 C 0.80282 0.41041 0.92612 0.0
C259 C 0.75451 0.39485 0.8707 0.0
C260 C 0.69186 0.38159 0.92223 0.0
C261 C 0.80765 0.40919 0.89055 0.0
C262 C 0.43387 0.4404 0.80109 0.0
C263 C 0.63672 0.37069 0.8662 0.0
H264 H 0.43041 0.50784 0.57112 0.0
H265 H 0.44206 0.47329 0.67679 0.0
H266 H 0.45454 0.52776 0.63089 0.0
H267 H 0.38062 0.37718 0.60295 0.0
H268 H 0.84453 0.42186 0.94099 0.0
H269 H 0.75882 0.39513 0.84323 0.0
H270 H 0.64641 0.37173 0.93443 0.0
H271 H 0.85249 0.41989 0.87829 0.0
Eu272 Eu 0.06927 0.88833 0.72928 0.0
C273 C 0.7716 0.88889 0.78279 0.0
N274 N 0.8179 0.92079 0.78604 0.0
C275 C 0.73744 0.97535 0.77346 0.0
C276 C 0.706 0.89916 0.77441 0.0
C277 C 0.80179 0.96362 0.78199 0.0
C278 C 0.68937 0.94299 0.76953 0.0
C279 C 0.74275 0.81196 0.78533 0.0
C280 C 0.78977 0.84574 0.78802 0.0
C281 C 0.67747 0.82206 0.77675 0.0
C282 C 0.65917 0.86552 0.77126 0.0
Eu283 Eu 0.92535 0.89761 0.79934 0.0
N284 N 0.85375 0.83682 0.7955 0.0
C285 C 0.76282 0.76902 0.79135 0.0
C286 C 0.87305 0.79528 0.8027 0.0
C287 C 0.82811 0.76072 0.80034 0.0
H288 H 0.83845 0.98883 0.78574 0.0
H289 H 0.84381 0.72771 0.80556 0.0
H290 H 0.18671 0.82912 0.76667 0.0
H291 H 0.07404 0.05974 0.68951 0.0
H292 H 0.92305 0.78865 0.81013 0.0
H293 H 0.72819 0.74214 0.78948 0.0
H294 H 0.03386 0.98397 0.68955 0.0
H295 H 0.72489 0.00934 0.7701 0.0
H296 H 0.64071 0.79652 0.77439 0.0
H297 H 0.60857 0.87279 0.76475 0.0
H298 H 0.29581 0.84068 0.79363 0.0
H299 H 0.63951 0.9522 0.76301 0.0
H300 H 0.17602 0.07902 0.72086 0.0
N301 N 0.17456 0.89587 0.75399 0.0
C302 C 0.20111 0.93672 0.75401 0.0
C303 C 0.26957 0.86795 0.78267 0.0
C304 C 0.26287 0.94484 0.76926 0.0
C305 C 0.20792 0.86147 0.76749 0.0
C306 C 0.29701 0.90983 0.78374 0.0
N307 N 0.10568 0.96175 0.72497 0.0
C308 C 0.07532 0.99248 0.70541 0.0
C309 C 0.19199 0.01319 0.73892 0.0
C310 C 0.1654 0.9706 0.73942 0.0
C311 C 0.15723 0.04591 0.72187 0.0
C312 C 0.09939 0.03525 0.70438 0.0
H313 H 0.3446 0.91476 0.79572 0.0
H314 H 0.33544 0.99446 0.78164 0.0
H315 H 0.27375 0.05419 0.75482 0.0
O316 O 0.07039 0.89445 0.67368 0.0
O317 O 0.08918 0.91062 0.78446 0.0
O318 O 0.99986 0.95218 0.79584 0.0
O319 O 0.14091 0.85278 0.69831 0.0
O320 O 0.97329 0.92215 0.71544 0.0
O321 O 0.94394 0.95582 0.7654 0.0
O322 O 0.95061 0.88391 0.85263 0.0
O323 O 0.89958 0.86141 0.75007 0.0
O324 O 0.99396 0.83331 0.72548 0.0
O325 O 0.87225 0.92873 0.84122 0.0
O326 O 0.00831 0.84951 0.80989 0.0
O327 O 0.05841 0.82619 0.75965 0.0
C328 C 0.0628 0.9448 0.79912 0.0
C329 C 0.17382 0.88914 0.64744 0.0
C330 C 0.21305 0.90769 0.59013 0.0
C331 C 0.26748 0.92899 0.60508 0.0
C332 C 0.22886 0.91036 0.66158 0.0
C333 C 0.27528 0.93014 0.64049 0.0
C334 C 0.1663 0.88765 0.61164 0.0
C335 C 0.94148 0.95278 0.732 0.0
C336 C 0.12236 0.87051 0.66967 0.0
C337 C 0.28828 0.98751 0.7698 0.0
C338 C 0.25298 0.02156 0.75466 0.0
C339 C 0.92963 0.83432 0.72922 0.0
C340 C 0.86193 0.88621 0.89123 0.0
C341 C 0.83786 0.87006 0.951 0.0
C342 C 0.78611 0.84263 0.94031 0.0
C343 C 0.80934 0.85916 0.88137 0.0
C344 C 0.87569 0.89205 0.92625 0.0
C345 C 0.77183 0.83745 0.90573 0.0
C346 C 0.04422 0.82162 0.7923 0.0
C347 C 0.90312 0.90742 0.86507 0.0
H348 H 0.30474 0.94417 0.58933 0.0
H349 H 0.236 0.91178 0.68889 0.0
H350 H 0.31756 0.94644 0.65165 0.0
H351 H 0.12357 0.87161 0.60061 0.0
H352 H 0.75592 0.8257 0.95882 0.0
H353 H 0.79704 0.85478 0.85487 0.0
H354 H 0.91607 0.91301 0.93416 0.0
H355 H 0.73146 0.8166 0.89776 0.0
Eu356 Eu 0.43735 0.62031 0.22607 0.0
C357 C 0.70514 0.68778 0.27696 0.0
N358 N 0.68781 0.64526 0.27237 0.0
C359 C 0.78713 0.63198 0.24153 0.0
C360 C 0.764 0.70433 0.26305 0.0
C361 C 0.72798 0.6171 0.25546 0.0
C362 C 0.80508 0.67582 0.24518 0.0
C363 C 0.67916 0.75946 0.29935 0.0
C364 C 0.66259 0.71508 0.2946 0.0
C365 C 0.73718 0.77622 0.285 0.0
C366 C 0.77948 0.74874 0.26693 0.0
Eu367 Eu 0.58663 0.62315 0.29591 0.0
N368 N 0.60603 0.69816 0.30777 0.0
C369 C 0.63768 0.7855 0.31906 0.0
C370 C 0.56913 0.72247 0.32968 0.0
C371 C 0.5832 0.76668 0.33488 0.0
H372 H 0.71398 0.58323 0.25258 0.0
H373 H 0.55271 0.78599 0.35162 0.0
H374 H 0.31779 0.68529 0.25459 0.0
H375 H 0.43274 0.44505 0.19871 0.0
H376 H 0.52984 0.7079 0.3441 0.0
H377 H 0.6487 0.8197 0.32333 0.0
H378 H 0.47944 0.51909 0.19916 0.0
H379 H 0.8187 0.60971 0.22787 0.0
H380 H 0.75024 0.81031 0.28812 0.0
H381 H 0.82417 0.76214 0.25614 0.0
H382 H 0.20396 0.67879 0.27591 0.0
H383 H 0.85067 0.68732 0.23409 0.0
H384 H 0.32035 0.43213 0.22044 0.0
N385 N 0.32823 0.6174 0.24594 0.0
C386 C 0.29865 0.5775 0.24567 0.0
C387 C 0.23018 0.65001 0.2677 0.0
C388 C 0.23341 0.57232 0.25704 0.0
C389 C 0.29488 0.65357 0.2561 0.0
C390 C 0.19938 0.60918 0.26833 0.0
N391 N 0.39731 0.54764 0.22373 0.0
C392 C 0.4318 0.51385 0.21013 0.0
C393 C 0.3046 0.49992 0.23353 0.0
C394 C 0.33398 0.54168 0.23404 0.0
C395 C 0.34117 0.46472 0.22126 0.0
C396 C 0.40477 0.47183 0.20918 0.0
H397 H 0.1492 0.60654 0.27729 0.0
H398 H 0.15431 0.52603 0.26556 0.0
H399 H 0.21656 0.46271 0.24499 0.0
O400 O 0.44149 0.6122 0.17045 0.0
O401 O 0.42197 0.58454 0.27652 0.0
O402 O 0.52521 0.56178 0.29217 0.0
O403 O 0.37084 0.65609 0.19241 0.0
O404 O 0.5356 0.59052 0.21051 0.0
O405 O 0.58566 0.56486 0.26001 0.0
O406 O 0.59463 0.61991 0.35271 0.0
O407 O 0.59993 0.65315 0.24313 0.0
O408 O 0.4992 0.68181 0.23016 0.0
O409 O 0.66625 0.5879 0.32011 0.0
O410 O 0.48526 0.64828 0.31155 0.0
O411 O 0.44324 0.67812 0.26193 0.0
C412 C 0.46105 0.55854 0.29376 0.0
C413 C 0.33932 0.61908 0.1417 0.0
C414 C 0.29889 0.60224 0.08417 0.0
C415 C 0.24251 0.58311 0.09855 0.0
C416 C 0.28186 0.6005 0.15523 0.0
C417 C 0.23407 0.58245 0.13381 0.0
C418 C 0.34736 0.6203 0.10598 0.0
C419 C 0.57704 0.56458 0.2266 0.0
C420 C 0.3908 0.63699 0.16465 0.0
C421 C 0.20432 0.53067 0.25681 0.0
C422 C 0.23979 0.4946 0.2451 0.0
C423 C 0.56362 0.68386 0.22962 0.0
C424 C 0.6854 0.57945 0.38086 0.0
C425 C 0.70497 0.57055 0.44247 0.0
C426 C 0.75856 0.54343 0.43492 0.0
C427 C 0.7394 0.55214 0.37453 0.0
C428 C 0.66857 0.58903 0.41516 0.0
C429 C 0.77556 0.53446 0.4013 0.0
C430 C 0.44557 0.67545 0.29545 0.0
C431 C 0.64768 0.59636 0.35106 0.0
H432 H 0.20419 0.5694 0.08243 0.0
H433 H 0.27339 0.6002 0.18231 0.0
H434 H 0.19007 0.56815 0.1446 0.0
H435 H 0.39133 0.63483 0.09525 0.0
H436 H 0.78805 0.52942 0.45518 0.0
H437 H 0.75386 0.54413 0.34869 0.0
H438 H 0.6271 0.60994 0.42056 0.0
H439 H 0.81704 0.51357 0.39596 0.0
C440 C 0.17578 0.00572 0.37154 0.0
C441 C 0.17851 0.96203 0.36058 0.0
H442 H 0.14855 0.07133 0.35973 0.0
C443 C 0.15779 0.95226 0.32693 0.0
H444 H 0.19287 0.01508 0.39673 0.0
C445 C 0.13407 0.98508 0.30523 0.0
C446 C 0.12939 0.02824 0.31688 0.0
H447 H 0.15815 0.91904 0.31753 0.0
H448 H 0.11695 0.97638 0.27988 0.0
C449 C 0.15101 0.03821 0.35013 0.0
C450 C 0.34047 0.49814 0.87065 0.0
C451 C 0.33865 0.54125 0.85839 0.0
H452 H 0.3716 0.43241 0.8619 0.0
C453 C 0.36357 0.54985 0.82556 0.0
H454 H 0.32017 0.48992 0.89533 0.0
C455 C 0.39141 0.51648 0.80604 0.0
C456 C 0.39591 0.47408 0.81919 0.0
H457 H 0.36367 0.58263 0.81534 0.0
H458 H 0.41234 0.52431 0.7814 0.0
C459 C 0.36916 0.46502 0.85137 0.0
C460 C 0.57761 0.55061 0.68285 0.0
C461 C 0.64259 0.54601 0.6716 0.0
H462 H 0.49994 0.52454 0.71373 0.0
C463 C 0.67971 0.51048 0.68318 0.0
H464 H 0.54822 0.57791 0.67432 0.0
C465 C 0.6519 0.47955 0.70519 0.0
C466 C 0.58657 0.48373 0.71633 0.0
H467 H 0.72996 0.50631 0.67477 0.0
H468 H 0.68116 0.45185 0.71286 0.0
C469 C 0.55001 0.51993 0.7052 0.0
C470 C 0.89759 1.00534 0.15768 0.0
C471 C 0.89206 0.96331 0.17183 0.0
H472 H 0.92719 0.07187 0.16532 0.0
C473 C 0.91439 0.95669 0.2055 0.0
H474 H 0.88008 0.01192 0.13207 0.0
C475 C 0.94041 0.99122 0.22467 0.0
C476 C 0.94533 0.03313 0.21056 0.0
H477 H 0.9123 0.92468 0.21709 0.0
H478 H 0.9573 0.98494 0.25043 0.0
C479 C 0.92425 0.0398 0.17679 0.0
C480 C 0.85963 0.01101 0.65853 0.0
C481 C 0.85935 0.05452 0.67004 0.0
H482 H 0.88561 0.94481 0.66923 0.0
C483 C 0.88254 0.06363 0.70326 0.0
H484 H 0.84067 1.00246 0.63351 0.0
C485 C 0.90665 0.03025 0.72406 0.0
C486 C 0.90902 0.98722 0.7119 0.0
H487 H 0.88397 0.09674 0.71291 0.0
H488 H 0.92593 0.03843 0.74911 0.0
C489 C 0.88473 0.97784 0.67911 0.0
C490 C 0.65555 0.4585 0.19951 0.0
C491 C 0.67791 0.46811 0.16629 0.0
H492 H 0.60763 0.48158 0.24466 0.0
C493 C 0.66693 0.51039 0.15342 0.0
H494 H 0.66093 0.42621 0.21024 0.0
C495 C 0.63408 0.54171 0.17297 0.0
C496 C 0.613 0.53195 0.20617 0.0
H497 H 0.68424 0.51967 0.12838 0.0
H498 H 0.62601 0.57383 0.16229 0.0
C499 C 0.62447 0.49019 0.21934 0.0
C500 C 0.33706 0.48784 0.34059 0.0
C501 C 0.37837 0.4579 0.3569 0.0
H502 H 0.331 0.54449 0.30914 0.0
C503 C 0.44643 0.46034 0.35179 0.0
H504 H 0.28445 0.48687 0.34477 0.0
C505 C 0.47305 0.49248 0.33071 0.0
C506 C 0.43211 0.52331 0.31482 0.0
H507 H 0.47905 0.43764 0.36448 0.0
H508 H 0.52588 0.49353 0.32738 0.0
C509 C 0.3638 0.52065 0.32007 0.0
C510 C 0.19275 0.98863 0.86042 0.0
C511 C 0.1767 0.03317 0.86178 0.0
H512 H 0.17015 0.92576 0.83878 0.0
C513 C 0.12466 0.04851 0.84147 0.0
H514 H 0.23291 0.97606 0.87569 0.0
C515 C 0.08796 0.01972 0.82107 0.0
C516 C 0.10353 0.97514 0.8199 0.0
H517 H 0.11127 0.08266 0.84207 0.0
H518 H 0.04741 0.03237 0.80611 0.0
C519 C 0.15702 0.95996 0.83929 0.0
C520 C 0.22526 0.11227 1.00342 0.0
C521 C 0.24254 0.0786 0.98074 0.0
H522 H 0.21226 0.132 0.05556 0.0
C523 C 0.2598 0.03778 0.99433 0.0
H524 H 0.21119 0.14399 0.99377 0.0
C525 C 0.26088 0.03103 0.02972 0.0
C526 C 0.24372 0.06472 0.0524 0.0
H527 H 0.27366 0.01124 0.97759 0.0
H528 H 0.2748 0.99928 0.03936 0.0
C529 C 0.22535 0.10531 0.0388 0.0
C530 C 0.31358 0.40061 0.5036 0.0
C531 C 0.35977 0.40956 0.47785 0.0
H532 H 0.29128 0.40349 0.55708 0.0
C533 C 0.42137 0.42708 0.4874 0.0
H534 H 0.26544 0.38761 0.49729 0.0
C535 C 0.43532 0.43712 0.52145 0.0
C536 C 0.38866 0.429 0.54691 0.0
H537 H 0.459 0.43329 0.46854 0.0
H538 H 0.48279 0.45113 0.52793 0.0
C539 C 0.32812 0.40994 0.53782 0.0
C540 C 0.71833 0.3623 0.0344 0.0
C541 C 0.73574 0.40046 0.05232 0.0
H542 H 0.70672 0.33138 0.9855 0.0
C543 C 0.75385 0.43779 0.03379 0.0
H544 H 0.70404 0.3331 0.04808 0.0
C545 C 0.75647 0.43657 0.99808 0.0
C546 C 0.73978 0.39826 0.98017 0.0
H547 H 0.76792 0.46752 0.04697 0.0
H548 H 0.77169 0.46559 0.98443 0.0
C549 C 0.71966 0.36135 0.99866 0.0
C550 C 0.84804 0.15375 0.53184 0.0
C551 C 0.8323 0.11753 0.55234 0.0
H552 H 0.86173 0.17828 0.48103 0.0
C553 C 0.82141 0.07696 0.53642 0.0
H554 H 0.85735 0.18536 0.54332 0.0
C555 C 0.82432 0.07291 0.50095 0.0
C556 C 0.83822 0.10928 0.48036 0.0
H557 H 0.80854 0.04845 0.55129 0.0
H558 H 0.81458 0.0413 0.48954 0.0
C559 C 0.85129 0.14961 0.49622 0.0
C560 C 0.85697 0.8429 0.04456 0.0
C561 C 0.85205 0.88421 0.06004 0.0
H562 H 0.85691 0.80624 0.99796 0.0
C563 C 0.85049 0.92139 0.03894 0.0
H564 H 0.86009 0.81363 0.05989 0.0
C565 C 0.84997 0.91707 1.00328 0.0
C566 C 0.85044 0.87554 0.9881 0.0
H567 H 0.84629 0.9537 0.0499 0.0
H568 H 0.8455 0.94603 0.98766 0.0
C569 C 0.85569 0.83863 1.00907 0.0
C570 C 0.68685 0.5511 0.53752 0.0
C571 C 0.68643 0.59376 0.55082 0.0
H572 H 0.69129 0.51053 0.49307 0.0
C573 C 0.68399 0.62889 0.52759 0.0
H574 H 0.6893 0.52315 0.55432 0.0
C575 C 0.68537 0.62151 0.49214 0.0
C576 C 0.68962 0.57888 0.47914 0.0
H577 H 0.68249 0.66219 0.5368 0.0
H578 H 0.68659 0.6492 0.47502 0.0
C579 C 0.68836 0.54382 0.50227 0.0
C580 C 0.31668 0.64507 0.99374 0.0
C581 C 0.30176 0.60765 0.97426 0.0
H582 H 0.32872 0.67252 0.0439 0.0
C583 C 0.29068 0.56798 0.99127 0.0
H584 H 0.326 0.67602 0.98133 0.0
C585 C 0.29216 0.56604 0.02689 0.0
C586 C 0.3053 0.60362 0.04641 0.0
H587 H 0.27858 0.53864 0.97708 0.0
H588 H 0.28177 0.5352 0.03926 0.0
C589 C 0.3189 0.643 0.02948 0.0
C590 C 0.19227 0.86408 0.49968 0.0
C591 C 0.20806 0.90091 0.47984 0.0
H592 H 0.18089 0.83738 0.54992 0.0
C593 C 0.2205 0.94071 0.4966 0.0
H594 H 0.18176 0.83302 0.48756 0.0
C595 C 0.22004 0.94317 0.53231 0.0
C596 C 0.20659 0.90599 0.55218 0.0
H597 H 0.23318 0.96963 0.48217 0.0
H598 H 0.23136 0.97411 0.54442 0.0
C599 C 0.19121 0.86664 0.53541 0.0
C600 C 0.16565 0.26903 0.35157 0.0
C601 C 0.23304 0.25998 0.35548 0.0
H602 H 0.0739 0.24993 0.3288 0.0
C603 C 0.25876 0.22271 0.33965 0.0
H604 H 0.14378 0.29696 0.36398 0.0
C605 C 0.21851 0.19538 0.31996 0.0
C606 C 0.1515 0.20478 0.31541 0.0
H607 H 0.31014 0.21442 0.34287 0.0
H608 H 0.23978 0.16641 0.30889 0.0
C609 C 0.12545 0.24188 0.33154 0.0
C610 C 0.38708 0.24993 0.87124 0.0
C611 C 0.38955 0.20875 0.85546 0.0
H612 H 0.4082 0.31848 0.86715 0.0
C613 C 0.41502 0.20567 0.82228 0.0
H614 H 0.36804 0.2531 0.8969 0.0
C615 C 0.43872 0.24276 0.80551 0.0
C616 C 0.43677 0.28396 0.82126 0.0
H617 H 0.41808 0.17435 0.80956 0.0
H618 H 0.46001 0.23895 0.78045 0.0
C619 C 0.41053 0.28719 0.85433 0.0
C620 C 0.68322 0.28245 0.66882 0.0
C621 C 0.72855 0.25624 0.68621 0.0
H622 H 0.60402 0.32759 0.67254 0.0
C623 C 0.72665 0.25452 0.72204 0.0
H624 H 0.6833 0.2838 0.64118 0.0
C625 C 0.68126 0.27961 0.74021 0.0
C626 C 0.6365 0.30656 0.72283 0.0
H627 H 0.7606 0.23399 0.73598 0.0
H628 H 0.68141 0.27792 0.76782 0.0
C629 C 0.63777 0.30738 0.68688 0.0
C630 C 0.91066 0.26271 0.16662 0.0
C631 C 0.90745 0.30279 0.18386 0.0
H632 H 0.93733 0.19529 0.16912 0.0
C633 C 0.92798 0.30515 0.21811 0.0
H634 H 0.8945 0.26012 0.1403 0.0
C635 C 0.95286 0.26824 0.23456 0.0
C636 C 0.95751 0.22832 0.21708 0.0
H637 H 0.92549 0.33565 0.23202 0.0
H638 H 0.9694 0.27112 0.2608 0.0
C639 C 0.93528 0.22578 0.18309 0.0
C640 C 0.77875 0.7827 0.68812 0.0
C641 C 0.80379 0.74441 0.67354 0.0
H642 H 0.79849 0.84127 0.71584 0.0
C643 C 0.87179 0.7364 0.67625 0.0
H644 H 0.72703 0.79043 0.68562 0.0
C645 C 0.91313 0.76548 0.69421 0.0
C646 C 0.88746 0.80341 0.70936 0.0
H647 H 0.89306 0.70779 0.66452 0.0
H648 H 0.96503 0.75816 0.69634 0.0
C649 C 0.81987 0.81179 0.70561 0.0
C650 C 0.68758 0.75452 0.18347 0.0
C651 C 0.65832 0.79592 0.18565 0.0
H652 H 0.68046 0.68657 0.19594 0.0
C653 C 0.59691 0.79978 0.2016 0.0
H654 H 0.73405 0.7502 0.17055 0.0
C655 C 0.56591 0.76326 0.21569 0.0
C656 C 0.59583 0.72216 0.21412 0.0
H657 H 0.57271 0.83113 0.203 0.0
H658 H 0.51885 0.76727 0.22813 0.0
C659 C 0.65687 0.71807 0.19788 0.0
C660 C 0.33358 0.76913 0.31899 0.0
C661 C 0.31525 0.7581 0.35235 0.0
H662 H 0.38974 0.75189 0.27497 0.0
C663 C 0.34245 0.72084 0.36761 0.0
H664 H 0.31377 0.79802 0.30691 0.0
C665 C 0.38568 0.69425 0.34935 0.0
C666 C 0.40256 0.70457 0.31556 0.0
H667 H 0.32953 0.71194 0.39348 0.0
H668 H 0.40489 0.66523 0.36147 0.0
C669 C 0.37687 0.74268 0.30078 0.0
C670 C 0.08676 0.74325 0.86391 0.0
C671 C 0.12053 0.71035 0.84643 0.0
H672 H 0.0358 0.80384 0.86063 0.0
C673 C 0.13062 0.71458 0.81116 0.0
H674 H 0.07906 0.74093 0.89119 0.0
C675 C 0.10599 0.75067 0.79349 0.0
C676 C 0.07107 0.78337 0.81083 0.0
H677 H 0.15719 0.68973 0.79726 0.0
H678 H 0.11413 0.75277 0.76624 0.0
C679 C 0.06203 0.77926 0.84631 0.0
loop_
_geom_bond_atom_site_label_1
_geom_bond_atom_site_label_2
_geom_bond_distance
_geom_bond_site_symmetry_2
_ccdc_geom_bond_type
H0 C7 0.929 . S
H1 C10 0.930 . S
H2 C12 0.929 . S
H3 C4 0.969 . S
C4 H3 0.969 . S
C4 O5 1.550 . S
C4 H6 0.973 . S
O5 C4 1.550 . S
O5 C11 1.412 . S
H6 C4 0.973 . S
C7 H0 0.929 . S
C7 C8 1.400 . S
C7 C9 1.364 . S
C8 C7 1.400 . S
C8 C12 1.377 . S
C9 C7 1.364 . S
C9 C10 1.374 . S
C10 H1 0.930 . S
C10 C9 1.374 . S
C10 C11 1.383 . S
C11 O5 1.412 . S
C11 C10 1.383 . S
C11 C12 1.394 . S
C12 H2 0.929 . S
C12 C8 1.377 . S
C12 C11 1.394 . S
H13 C20 0.929 . S
H14 C23 0.930 . S
H15 C25 0.929 . S
H16 C17 0.969 . S
C17 H16 0.969 . S
C17 O18 1.550 . S
C17 H19 0.973 . S
O18 C17 1.550 . S
O18 C24 1.412 . S
H19 C17 0.973 . S
C20 H13 0.929 . S
C20 C21 1.400 . S
C20 C22 1.364 . S
C21 C20 1.400 . S
C21 C25 1.377 . S
C22 C20 1.364 . S
C22 C23 1.374 . S
C23 H14 0.930 . S
C23 C22 1.374 . S
C23 C24 1.383 . S
C24 O18 1.412 . S
C24 C23 1.383 . S
C24 C25 1.394 . S
C25 H15 0.929 . S
C25 C21 1.377 . S
C25 C24 1.394 . S
H26 C33 0.929 . S
H27 C36 0.930 . S
H28 C38 0.929 . S
H29 C30 0.969 . S
C30 H29 0.969 . S
C30 O31 1.550 . S
C30 H32 0.973 . S
O31 C30 1.550 . S
O31 C37 1.412 . S
H32 C30 0.973 . S
C33 H26 0.929 . S
C33 C34 1.400 . S
C33 C35 1.364 . S
C34 C33 1.400 . S
C34 C38 1.377 . S
C35 C33 1.364 . S
C35 C36 1.374 . S
C36 H27 0.930 . S
C36 C35 1.374 . S
C36 C37 1.383 . S
C37 O31 1.412 . S
C37 C36 1.383 . S
C37 C38 1.394 . S
C38 H28 0.929 . S
C38 C34 1.377 . S
C38 C37 1.394 . S
H39 C46 0.929 . S
H40 C49 0.930 . S
H41 C51 0.929 . S
H42 C43 0.969 . S
C43 H42 0.969 . S
C43 O44 1.550 . S
C43 H45 0.973 . S
O44 C43 1.550 . S
O44 C50 1.412 . S
H45 C43 0.973 . S
C46 H39 0.929 . S
C46 C47 1.400 . S
C46 C48 1.364 . S
C47 C46 1.400 . S
C47 C51 1.377 . S
C48 C46 1.364 . S
C48 C49 1.374 . S
C49 H40 0.930 . S
C49 C48 1.374 . S
C49 C50 1.383 . S
C50 O44 1.412 . S
C50 C49 1.383 . S
C50 C51 1.394 . S
C51 H41 0.929 . S
C51 C47 1.377 . S
C51 C50 1.394 . S
H52 C59 0.929 . S
H53 C62 0.930 . S
H54 C64 0.929 . S
H55 C56 0.969 . S
C56 H55 0.969 . S
C56 O57 1.550 . S
C56 H58 0.973 . S
O57 C56 1.550 . S
O57 C63 1.412 . S
H58 C56 0.973 . S
C59 H52 0.929 . S
C59 C60 1.400 . S
C59 C61 1.364 . S
C60 C59 1.400 . S
C60 C64 1.377 . S
C61 C59 1.364 . S
C61 C62 1.374 . S
C62 H53 0.930 . S
C62 C61 1.374 . S
C62 C63 1.383 . S
C63 O57 1.412 . S
C63 C62 1.383 . S
C63 C64 1.394 . S
C64 H54 0.929 . S
C64 C60 1.377 . S
C64 C63 1.394 . S
H65 C72 0.929 . S
H66 C75 0.930 . S
H67 C77 0.929 . S
H68 C69 0.969 . S
C69 H68 0.969 . S
C69 O70 1.550 . S
C69 H71 0.973 . S
O70 C69 1.550 . S
O70 C76 1.412 . S
H71 C69 0.973 . S
C72 H65 0.929 . S
C72 C73 1.400 . S
C72 C74 1.364 . S
C73 C72 1.400 . S
C73 C77 1.377 . S
C74 C72 1.364 . S
C74 C75 1.374 . S
C75 H66 0.930 . S
C75 C74 1.374 . S
C75 C76 1.383 . S
C76 O70 1.412 . S
C76 C75 1.383 . S
C76 C77 1.394 . S
C77 H67 0.929 . S
C77 C73 1.377 . S
C77 C76 1.394 . S
H78 C85 0.929 . S
H79 C88 0.930 . S
H80 C90 0.929 . S
H81 C82 0.969 . S
C82 H81 0.969 . S
C82 O83 1.550 . S
C82 H84 0.973 . S
O83 C82 1.550 . S
O83 C89 1.412 . S
H84 C82 0.973 . S
C85 H78 0.929 . S
C85 C86 1.400 . S
C85 C87 1.364 . S
C86 C85 1.400 . S
C86 C90 1.377 . S
C87 C85 1.364 . S
C87 C88 1.374 . S
C88 H79 0.930 . S
C88 C87 1.374 . S
C88 C89 1.383 . S
C89 O83 1.412 . S
C89 C88 1.383 . S
C89 C90 1.394 . S
C90 H80 0.929 . S
C90 C86 1.377 . S
C90 C89 1.394 . S
H91 C98 0.929 . S
H92 C101 0.930 . S
H93 C103 0.929 . S
H94 C95 0.969 . S
C95 H94 0.969 . S
C95 O96 1.550 . S
C95 H97 0.973 . S
O96 C95 1.550 . S
O96 C102 1.412 . S
H97 C95 0.973 . S
C98 H91 0.929 . S
C98 C99 1.400 . S
C98 C100 1.364 . S
C99 C98 1.400 . S
C99 C103 1.377 . S
C100 C98 1.364 . S
C100 C101 1.374 . S
C101 H92 0.930 . S
C101 C100 1.374 . S
C101 C102 1.383 . S
C102 O96 1.412 . S
C102 C101 1.383 . S
C102 C103 1.394 . S
C103 H93 0.929 . S
C103 C99 1.377 . S
C103 C102 1.394 . S
Eu104 N133 2.600 . S
Eu104 N139 2.562 . S
Eu104 O148 2.462 . S
Eu104 O149 2.373 . S
Eu104 O151 2.432 . S
Eu104 O152 2.291 . S
Eu104 O156 2.335 . S
Eu104 O159 2.372 . S
Eu104 C168 2.787 . S
C105 N106 1.365 . S
C105 C108 1.405 . S
C105 C112 1.448 . S
N106 C105 1.365 . S
N106 C109 1.319 . S
N106 Eu115 2.600 . S
C107 C109 1.397 . S
C107 C110 1.367 . S
C107 H127 0.931 . S
C108 C105 1.405 . S
C108 C110 1.403 . S
C108 C114 1.439 . S
C109 N106 1.319 . S
C109 C107 1.397 . S
C109 H120 0.930 . S
C110 C107 1.367 . S
C110 C108 1.403 . S
C110 H131 0.929 . S
C111 C112 1.430 1_565 S
C111 C113 1.387 . S
C111 C117 1.404 . S
C112 C105 1.448 . S
C112 C111 1.430 1_545 S
C112 N116 1.351 . S
C113 C111 1.387 . S
C113 C114 1.374 1_565 S
C113 H128 0.931 . S
C114 C108 1.439 . S
C114 C113 1.374 1_545 S
C114 H129 0.931 . S
Eu115 N106 2.600 . S
Eu115 N116 2.562 . S
Eu115 O150 2.335 1_655 S
Eu115 O153 2.372 . S
Eu115 O154 2.462 . S
Eu115 O155 2.373 . S
Eu115 O157 2.432 . S
Eu115 O158 2.291 1_655 S
Eu115 C179 2.787 . S
N116 C112 1.351 . S
N116 Eu115 2.562 . S
N116 C118 1.325 1_545 S
C117 C111 1.404 . S
C117 C119 1.366 . S
C117 H125 0.930 . S
C118 N116 1.325 1_565 S
C118 C119 1.416 . S
C118 H124 0.929 . S
C119 C117 1.366 . S
C119 C118 1.416 . S
C119 H121 0.930 . S
H120 C109 0.930 . S
H121 C119 0.930 . S
H122 C137 0.930 . S
H123 C144 0.930 . S
H124 C118 0.929 . S
H125 C117 0.930 . S
H126 C140 0.929 . S
H127 C107 0.931 . S
H128 C113 0.931 . S
H129 C114 0.931 . S
H130 C135 0.931 . S
H131 C110 0.929 . S
H132 C143 0.930 . S
N133 Eu104 2.600 . S
N133 C134 1.365 . S
N133 C137 1.319 . S
C134 N133 1.365 . S
C134 C136 1.405 . S
C134 C142 1.448 . S
C135 H130 0.931 . S
C135 C137 1.397 . S
C135 C138 1.367 . S
C136 C134 1.405 . S
C136 C138 1.403 . S
C136 C169 1.439 . S
C137 H122 0.930 . S
C137 N133 1.319 . S
C137 C135 1.397 . S
C138 C135 1.367 . S
C138 C136 1.403 . S
C138 H145 0.929 . S
N139 Eu104 2.562 . S
N139 C140 1.325 . S
N139 C142 1.351 . S
C140 H126 0.929 . S
C140 N139 1.325 . S
C140 C144 1.416 . S
C141 C142 1.430 . S
C141 C143 1.404 . S
C141 C170 1.387 . S
C142 C134 1.448 . S
C142 N139 1.351 . S
C142 C141 1.430 . S
C143 H132 0.930 . S
C143 C141 1.404 . S
C143 C144 1.366 . S
C144 H123 0.930 . S
C144 C140 1.416 . S
C144 C143 1.366 . S
H145 C138 0.929 . S
H146 C169 0.931 . S
H147 C170 0.931 . S
O148 Eu104 2.462 . S
O148 C168 1.252 . S
O149 Eu104 2.373 . S
O149 C160 1.249 . S
O150 Eu115 2.335 1_455 S
O150 C160 1.264 . S
O151 Eu104 2.432 . S
O151 C168 1.268 . S
O152 Eu104 2.291 . S
O152 C167 1.255 1_455 S
O153 Eu115 2.372 . S
O153 C167 1.257 . S
O154 Eu115 2.462 . S
O154 C179 1.252 . S
O155 Eu115 2.373 . S
O155 C171 1.249 . S
O156 Eu104 2.335 . S
O156 C171 1.264 1_455 S
O157 Eu115 2.432 . S
O157 C179 1.268 . S
O158 Eu115 2.291 1_455 S
O158 C178 1.255 . S
O159 Eu104 2.372 . S
O159 C178 1.257 . S
C160 O149 1.249 . S
C160 O150 1.264 . S
C161 C164 1.382 . S
C161 C166 1.390 . S
C161 C168 1.506 . S
C162 C163 1.398 . S
C162 C166 1.392 . S
C163 C162 1.398 . S
C163 C165 1.372 . S
C163 H180 0.931 . S
C164 C161 1.382 . S
C164 C165 1.390 . S
C164 H181 0.931 . S
C165 C163 1.372 . S
C165 C164 1.390 . S
C165 H182 0.929 . S
C166 C161 1.390 . S
C166 C162 1.392 . S
C166 H183 0.930 . S
C167 O152 1.255 1_655 S
C167 O153 1.257 . S
C168 Eu104 2.787 . S
C168 O148 1.252 . S
C168 O151 1.268 . S
C168 C161 1.506 . S
C169 C136 1.439 . S
C169 H146 0.931 . S
C169 C170 1.374 . S
C170 C141 1.387 . S
C170 H147 0.931 . S
C170 C169 1.374 . S
C171 O155 1.249 . S
C171 O156 1.264 1_655 S
C172 C175 1.382 . S
C172 C176 1.390 . S
C172 C179 1.506 . S
C173 C174 1.398 . S
C173 C176 1.392 . S
C174 C173 1.398 . S
C174 C177 1.372 . S
C174 H184 0.931 . S
C175 C172 1.382 . S
C175 C177 1.390 . S
C175 H185 0.931 . S
C176 C172 1.390 . S
C176 C173 1.392 . S
C176 H186 0.930 . S
C177 C174 1.372 . S
C177 C175 1.390 . S
C177 H187 0.929 . S
C178 O158 1.255 . S
C178 O159 1.257 . S
C179 Eu115 2.787 . S
C179 O154 1.252 . S
C179 O157 1.268 . S
C179 C172 1.506 . S
H180 C163 0.931 . S
H181 C164 0.931 . S
H182 C165 0.929 . S
H183 C166 0.930 . S
H184 C174 0.931 . S
H185 C175 0.931 . S
H186 C176 0.930 . S
H187 C177 0.929 . S
Eu188 N217 2.600 . S
Eu188 N223 2.562 . S
Eu188 O232 2.462 . S
Eu188 O233 2.373 . S
Eu188 O235 2.432 . S
Eu188 O236 2.291 . S
Eu188 O240 2.335 . S
Eu188 O243 2.372 . S
Eu188 C252 2.787 . S
C189 N190 1.365 . S
C189 C192 1.405 . S
C189 C196 1.448 . S
N190 C189 1.365 . S
N190 C193 1.319 . S
N190 Eu199 2.600 . S
C191 C193 1.397 . S
C191 C194 1.367 . S
C191 H211 0.931 . S
C192 C189 1.405 . S
C192 C194 1.403 . S
C192 C198 1.439 . S
C193 N190 1.319 . S
C193 C191 1.397 . S
C193 H204 0.930 . S
C194 C191 1.367 . S
C194 C192 1.403 . S
C194 H215 0.929 . S
C195 C196 1.430 . S
C195 C197 1.387 . S
C195 C201 1.404 . S
C196 C189 1.448 . S
C196 C195 1.430 . S
C196 N200 1.351 . S
C197 C195 1.387 . S
C197 C198 1.374 . S
C197 H212 0.931 . S
C198 C192 1.439 . S
C198 C197 1.374 . S
C198 H213 0.931 . S
Eu199 N190 2.600 . S
Eu199 N200 2.562 . S
Eu199 O234 2.335 . S
Eu199 O237 2.372 . S
Eu199 O238 2.462 . S
Eu199 O239 2.373 . S
Eu199 O241 2.432 . S
Eu199 O242 2.291 . S
Eu199 C263 2.787 . S
N200 C196 1.351 . S
N200 Eu199 2.562 . S
N200 C202 1.325 . S
C201 C195 1.404 . S
C201 C203 1.366 . S
C201 H209 0.930 . S
C202 N200 1.325 . S
C202 C203 1.416 . S
C202 H208 0.929 . S
C203 C201 1.366 . S
C203 C202 1.416 . S
C203 H205 0.930 . S
H204 C193 0.930 . S
H205 C203 0.930 . S
H206 C221 0.930 . S
H207 C228 0.930 . S
H208 C202 0.929 . S
H209 C201 0.930 . S
H210 C224 0.929 . S
H211 C191 0.931 . S
H212 C197 0.931 . S
H213 C198 0.931 . S
H214 C219 0.931 . S
H215 C194 0.929 . S
H216 C227 0.930 . S
N217 Eu188 2.600 . S
N217 C218 1.365 . S
N217 C221 1.319 . S
C218 N217 1.365 . S
C218 C220 1.405 . S
C218 C226 1.448 . S
C219 H214 0.931 . S
C219 C221 1.397 . S
C219 C222 1.367 . S
C220 C218 1.405 . S
C220 C222 1.403 . S
C220 C253 1.439 . S
C221 H206 0.930 . S
C221 N217 1.319 . S
C221 C219 1.397 . S
C222 C219 1.367 . S
C222 C220 1.403 . S
C222 H229 0.929 . S
N223 Eu188 2.562 . S
N223 C224 1.325 . S
N223 C226 1.351 . S
C224 H210 0.929 . S
C224 N223 1.325 . S
C224 C228 1.416 . S
C225 C226 1.430 . S
C225 C227 1.404 . S
C225 C254 1.387 . S
C226 C218 1.448 . S
C226 N223 1.351 . S
C226 C225 1.430 . S
C227 H216 0.930 . S
C227 C225 1.404 . S
C227 C228 1.366 . S
C228 H207 0.930 . S
C228 C224 1.416 . S
C228 C227 1.366 . S
H229 C222 0.929 . S
H230 C253 0.931 . S
H231 C254 0.931 . S
O232 Eu188 2.462 . S
O232 C252 1.252 . S
O233 Eu188 2.373 . S
O233 C244 1.249 . S
O234 Eu199 2.335 . S
O234 C244 1.264 . S
O235 Eu188 2.432 . S
O235 C252 1.268 . S
O236 Eu188 2.291 . S
O236 C251 1.255 . S
O237 Eu199 2.372 . S
O237 C251 1.257 . S
O238 Eu199 2.462 . S
O238 C263 1.252 . S
O239 Eu199 2.373 . S
O239 C255 1.249 . S
O240 Eu188 2.335 . S
O240 C255 1.264 . S
O241 Eu199 2.432 . S
O241 C263 1.268 . S
O242 Eu199 2.291 . S
O242 C262 1.255 . S
O243 Eu188 2.372 . S
O243 C262 1.257 . S
C244 O233 1.249 . S
C244 O234 1.264 . S
C245 C248 1.382 . S
C245 C250 1.390 . S
C245 C252 1.506 . S
C246 C247 1.398 . S
C246 C250 1.392 . S
C247 C246 1.398 . S
C247 C249 1.372 . S
C247 H264 0.931 . S
C248 C245 1.382 . S
C248 C249 1.390 . S
C248 H265 0.931 . S
C249 C247 1.372 . S
C249 C248 1.390 . S
C249 H266 0.929 . S
C250 C245 1.390 . S
C250 C246 1.392 . S
C250 H267 0.930 . S
C251 O236 1.255 . S
C251 O237 1.257 . S
C252 Eu188 2.787 . S
C252 O232 1.252 . S
C252 O235 1.268 . S
C252 C245 1.506 . S
C253 C220 1.439 . S
C253 H230 0.931 . S
C253 C254 1.374 . S
C254 C225 1.387 . S
C254 H231 0.931 . S
C254 C253 1.374 . S
C255 O239 1.249 . S
C255 O240 1.264 . S
C256 C259 1.382 . S
C256 C260 1.390 . S
C256 C263 1.506 . S
C257 C258 1.398 . S
C257 C260 1.392 . S
C258 C257 1.398 . S
C258 C261 1.372 . S
C258 H268 0.931 . S
C259 C256 1.382 . S
C259 C261 1.390 . S
C259 H269 0.931 . S
C260 C256 1.390 . S
C260 C257 1.392 . S
C260 H270 0.930 . S
C261 C258 1.372 . S
C261 C259 1.390 . S
C261 H271 0.929 . S
C262 O242 1.255 . S
C262 O243 1.257 . S
C263 Eu199 2.787 . S
C263 O238 1.252 . S
C263 O241 1.268 . S
C263 C256 1.506 . S
H264 C247 0.931 . S
H265 C248 0.931 . S
H266 C249 0.929 . S
H267 C250 0.930 . S
H268 C258 0.931 . S
H269 C259 0.931 . S
H270 C260 0.930 . S
H271 C261 0.929 . S
Eu272 N301 2.600 . S
Eu272 N307 2.562 . S
Eu272 O316 2.462 . S
Eu272 O317 2.373 . S
Eu272 O319 2.432 . S
Eu272 O320 2.291 . S
Eu272 O324 2.335 . S
Eu272 O327 2.372 . S
Eu272 C336 2.787 . S
C273 N274 1.365 . S
C273 C276 1.405 . S
C273 C280 1.448 . S
N274 C273 1.365 . S
N274 C277 1.319 . S
N274 Eu283 2.600 . S
C275 C277 1.397 . S
C275 C278 1.367 . S
C275 H295 0.931 . S
C276 C273 1.405 . S
C276 C278 1.403 . S
C276 C282 1.439 . S
C277 N274 1.319 . S
C277 C275 1.397 . S
C277 H288 0.930 . S
C278 C275 1.367 . S
C278 C276 1.403 . S
C278 H299 0.929 . S
C279 C280 1.430 . S
C279 C281 1.387 . S
C279 C285 1.404 . S
C280 C273 1.448 . S
C280 C279 1.430 . S
C280 N284 1.351 . S
C281 C279 1.387 . S
C281 C282 1.374 . S
C281 H296 0.931 . S
C282 C276 1.439 . S
C282 C281 1.374 . S
C282 H297 0.931 . S
Eu283 N274 2.600 . S
Eu283 N284 2.562 . S
Eu283 O318 2.335 1_655 S
Eu283 O321 2.372 . S
Eu283 O322 2.462 . S
Eu283 O323 2.373 . S
Eu283 O325 2.432 . S
Eu283 O326 2.291 1_655 S
Eu283 C347 2.787 . S
N284 C280 1.351 . S
N284 Eu283 2.562 . S
N284 C286 1.325 . S
C285 C279 1.404 . S
C285 C287 1.366 . S
C285 H293 0.930 . S
C286 N284 1.325 . S
C286 C287 1.416 . S
C286 H292 0.929 . S
C287 C285 1.366 . S
C287 C286 1.416 . S
C287 H289 0.930 . S
H288 C277 0.930 . S
H289 C287 0.930 . S
H290 C305 0.930 . S
H291 C312 0.930 . S
H292 C286 0.929 . S
H293 C285 0.930 . S
H294 C308 0.929 . S
H295 C275 0.931 . S
H296 C281 0.931 . S
H297 C282 0.931 . S
H298 C303 0.931 . S
H299 C278 0.929 . S
H300 C311 0.930 . S
N301 Eu272 2.600 . S
N301 C302 1.365 . S
N301 C305 1.319 . S
C302 N301 1.365 . S
C302 C304 1.405 . S
C302 C310 1.448 . S
C303 H298 0.931 . S
C303 C305 1.397 . S
C303 C306 1.367 . S
C304 C302 1.405 . S
C304 C306 1.403 . S
C304 C337 1.439 . S
C305 H290 0.930 . S
C305 N301 1.319 . S
C305 C303 1.397 . S
C306 C303 1.367 . S
C306 C304 1.403 . S
C306 H313 0.929 . S
N307 Eu272 2.562 . S
N307 C308 1.325 1_565 S
N307 C310 1.351 . S
C308 H294 0.929 . S
C308 N307 1.325 1_545 S
C308 C312 1.416 . S
C309 C310 1.430 1_545 S
C309 C311 1.404 . S
C309 C338 1.387 . S
C310 C302 1.448 . S
C310 N307 1.351 . S
C310 C309 1.430 1_565 S
C311 H300 0.930 . S
C311 C309 1.404 . S
C311 C312 1.366 . S
C312 H291 0.930 . S
C312 C308 1.416 . S
C312 C311 1.366 . S
H313 C306 0.929 . S
H314 C337 0.931 . S
H315 C338 0.931 . S
O316 Eu272 2.462 . S
O316 C336 1.252 . S
O317 Eu272 2.373 . S
O317 C328 1.249 . S
O318 Eu283 2.335 1_455 S
O318 C328 1.264 . S
O319 Eu272 2.432 . S
O319 C336 1.268 . S
O320 Eu272 2.291 . S
O320 C335 1.255 1_455 S
O321 Eu283 2.372 . S
O321 C335 1.257 . S
O322 Eu283 2.462 . S
O322 C347 1.252 . S
O323 Eu283 2.373 . S
O323 C339 1.249 . S
O324 Eu272 2.335 . S
O324 C339 1.264 1_455 S
O325 Eu283 2.432 . S
O325 C347 1.268 . S
O326 Eu283 2.291 1_455 S
O326 C346 1.255 . S
O327 Eu272 2.372 . S
O327 C346 1.257 . S
C328 O317 1.249 . S
C328 O318 1.264 . S
C329 C332 1.382 . S
C329 C334 1.390 . S
C329 C336 1.506 . S
C330 C331 1.398 . S
C330 C334 1.392 . S
C331 C330 1.398 . S
C331 C333 1.372 . S
C331 H348 0.931 . S
C332 C329 1.382 . S
C332 C333 1.390 . S
C332 H349 0.931 . S
C333 C331 1.372 . S
C333 C332 1.390 . S
C333 H350 0.929 . S
C334 C329 1.390 . S
C334 C330 1.392 . S
C334 H351 0.930 . S
C335 O320 1.255 1_655 S
C335 O321 1.257 . S
C336 Eu272 2.787 . S
C336 O316 1.252 . S
C336 O319 1.268 . S
C336 C329 1.506 . S
C337 C304 1.439 . S
C337 H314 0.931 . S
C337 C338 1.374 1_565 S
C338 C309 1.387 . S
C338 H315 0.931 . S
C338 C337 1.374 1_545 S
C339 O323 1.249 . S
C339 O324 1.264 1_655 S
C340 C343 1.382 . S
C340 C344 1.390 . S
C340 C347 1.506 . S
C341 C342 1.398 . S
C341 C344 1.392 . S
C342 C341 1.398 . S
C342 C345 1.372 . S
C342 H352 0.931 . S
C343 C340 1.382 . S
C343 C345 1.390 . S
C343 H353 0.931 . S
C344 C340 1.390 . S
C344 C341 1.392 . S
C344 H354 0.930 . S
C345 C342 1.372 . S
C345 C343 1.390 . S
C345 H355 0.929 . S
C346 O326 1.255 . S
C346 O327 1.257 . S
C347 Eu283 2.787 . S
C347 O322 1.252 . S
C347 O325 1.268 . S
C347 C340 1.506 . S
H348 C331 0.931 . S
H349 C332 0.931 . S
H350 C333 0.929 . S
H351 C334 0.930 . S
H352 C342 0.931 . S
H353 C343 0.931 . S
H354 C344 0.930 . S
H355 C345 0.929 . S
Eu356 N385 2.600 . S
Eu356 N391 2.562 . S
Eu356 O400 2.462 . S
Eu356 O401 2.373 . S
Eu356 O403 2.432 . S
Eu356 O404 2.291 . S
Eu356 O408 2.335 . S
Eu356 O411 2.372 . S
Eu356 C420 2.787 . S
C357 N358 1.365 . S
C357 C360 1.405 . S
C357 C364 1.448 . S
N358 C357 1.365 . S
N358 C361 1.319 . S
N358 Eu367 2.600 . S
C359 C361 1.397 . S
C359 C362 1.367 . S
C359 H379 0.931 . S
C360 C357 1.405 . S
C360 C362 1.403 . S
C360 C366 1.439 . S
C361 N358 1.319 . S
C361 C359 1.397 . S
C361 H372 0.930 . S
C362 C359 1.367 . S
C362 C360 1.403 . S
C362 H383 0.929 . S
C363 C364 1.430 . S
C363 C365 1.387 . S
C363 C369 1.404 . S
C364 C357 1.448 . S
C364 C363 1.430 . S
C364 N368 1.351 . S
C365 C363 1.387 . S
C365 C366 1.374 . S
C365 H380 0.931 . S
C366 C360 1.439 . S
C366 C365 1.374 . S
C366 H381 0.931 . S
Eu367 N358 2.600 . S
Eu367 N368 2.562 . S
Eu367 O402 2.335 . S
Eu367 O405 2.372 . S
Eu367 O406 2.462 . S
Eu367 O407 2.373 . S
Eu367 O409 2.432 . S
Eu367 O410 2.291 . S
Eu367 C431 2.787 . S
N368 C364 1.351 . S
N368 Eu367 2.562 . S
N368 C370 1.325 . S
C369 C363 1.404 . S
C369 C371 1.366 . S
C369 H377 0.930 . S
C370 N368 1.325 . S
C370 C371 1.416 . S
C370 H376 0.929 . S
C371 C369 1.366 . S
C371 C370 1.416 . S
C371 H373 0.930 . S
H372 C361 0.930 . S
H373 C371 0.930 . S
H374 C389 0.930 . S
H375 C396 0.930 . S
H376 C370 0.929 . S
H377 C369 0.930 . S
H378 C392 0.929 . S
H379 C359 0.931 . S
H380 C365 0.931 . S
H381 C366 0.931 . S
H382 C387 0.931 . S
H383 C362 0.929 . S
H384 C395 0.930 . S
N385 Eu356 2.600 . S
N385 C386 1.365 . S
N385 C389 1.319 . S
C386 N385 1.365 . S
C386 C388 1.405 . S
C386 C394 1.448 . S
C387 H382 0.931 . S
C387 C389 1.397 . S
C387 C390 1.367 . S
C388 C386 1.405 . S
C388 C390 1.403 . S
C388 C421 1.439 . S
C389 H374 0.930 . S
C389 N385 1.319 . S
C389 C387 1.397 . S
C390 C387 1.367 . S
C390 C388 1.403 . S
C390 H397 0.929 . S
N391 Eu356 2.562 . S
N391 C392 1.325 . S
N391 C394 1.351 . S
C392 H378 0.929 . S
C392 N391 1.325 . S
C392 C396 1.416 . S
C393 C394 1.430 . S
C393 C395 1.404 . S
C393 C422 1.387 . S
C394 C386 1.448 . S
C394 N391 1.351 . S
C394 C393 1.430 . S
C395 H384 0.930 . S
C395 C393 1.404 . S
C395 C396 1.366 . S
C396 H375 0.930 . S
C396 C392 1.416 . S
C396 C395 1.366 . S
H397 C390 0.929 . S
H398 C421 0.931 . S
H399 C422 0.931 . S
O400 Eu356 2.462 . S
O400 C420 1.252 . S
O401 Eu356 2.373 . S
O401 C412 1.249 . S
O402 Eu367 2.335 . S
O402 C412 1.264 . S
O403 Eu356 2.432 . S
O403 C420 1.268 . S
O404 Eu356 2.291 . S
O404 C419 1.255 . S
O405 Eu367 2.372 . S
O405 C419 1.257 . S
O406 Eu367 2.462 . S
O406 C431 1.252 . S
O407 Eu367 2.373 . S
O407 C423 1.249 . S
O408 Eu356 2.335 . S
O408 C423 1.264 . S
O409 Eu367 2.432 . S
O409 C431 1.268 . S
O410 Eu367 2.291 . S
O410 C430 1.255 . S
O411 Eu356 2.372 . S
O411 C430 1.257 . S
C412 O401 1.249 . S
C412 O402 1.264 . S
C413 C416 1.382 . S
C413 C418 1.390 . S
C413 C420 1.506 . S
C414 C415 1.398 . S
C414 C418 1.392 . S
C415 C414 1.398 . S
C415 C417 1.372 . S
C415 H432 0.931 . S
C416 C413 1.382 . S
C416 C417 1.390 . S
C416 H433 0.931 . S
C417 C415 1.372 . S
C417 C416 1.390 . S
C417 H434 0.929 . S
C418 C413 1.390 . S
C418 C414 1.392 . S
C418 H435 0.930 . S
C419 O404 1.255 . S
C419 O405 1.257 . S
C420 Eu356 2.787 . S
C420 O400 1.252 . S
C420 O403 1.268 . S
C420 C413 1.506 . S
C421 C388 1.439 . S
C421 H398 0.931 . S
C421 C422 1.374 . S
C422 C393 1.387 . S
C422 H399 0.931 . S
C422 C421 1.374 . S
C423 O407 1.249 . S
C423 O408 1.264 . S
C424 C427 1.382 . S
C424 C428 1.390 . S
C424 C431 1.506 . S
C425 C426 1.398 . S
C425 C428 1.392 . S
C426 C425 1.398 . S
C426 C429 1.372 . S
C426 H436 0.931 . S
C427 C424 1.382 . S
C427 C429 1.390 . S
C427 H437 0.931 . S
C428 C424 1.390 . S
C428 C425 1.392 . S
C428 H438 0.930 . S
C429 C426 1.372 . S
C429 C427 1.390 . S
C429 H439 0.929 . S
C430 O410 1.255 . S
C430 O411 1.257 . S
C431 Eu367 2.787 . S
C431 O406 1.252 . S
C431 O409 1.268 . S
C431 C424 1.506 . S
H432 C415 0.931 . S
H433 C416 0.931 . S
H434 C417 0.929 . S
H435 C418 0.930 . S
H436 C426 0.931 . S
H437 C427 0.931 . S
H438 C428 0.930 . S
H439 C429 0.929 . S
C440 C441 1.387 . S
C440 H444 0.950 1_565 S
C440 C449 1.390 1_565 S
C441 C440 1.387 . S
C441 C443 1.387 . S
H442 C449 0.950 . S
C443 C441 1.387 . S
C443 C445 1.390 . S
C443 H447 0.950 . S
H444 C440 0.950 1_545 S
C445 C443 1.390 . S
C445 C446 1.387 1_565 S
C445 H448 0.950 . S
C446 C445 1.387 1_545 S
C446 C449 1.387 . S
H447 C443 0.950 . S
H448 C445 0.950 . S
C449 C440 1.390 1_545 S
C449 H442 0.950 . S
C449 C446 1.387 . S
C450 C451 1.387 . S
C450 H454 0.950 . S
C450 C459 1.390 . S
C451 C450 1.387 . S
C451 C453 1.387 . S
H452 C459 0.950 . S
C453 C451 1.387 . S
C453 C455 1.390 . S
C453 H457 0.950 . S
H454 C450 0.950 . S
C455 C453 1.390 . S
C455 C456 1.387 . S
C455 H458 0.950 . S
C456 C455 1.387 . S
C456 C459 1.387 . S
H457 C453 0.950 . S
H458 C455 0.950 . S
C459 C450 1.390 . S
C459 H452 0.950 . S
C459 C456 1.387 . S
C460 C461 1.387 . S
C460 H464 0.950 . S
C460 C469 1.390 . S
C461 C460 1.387 . S
C461 C463 1.387 . S
H462 C469 0.950 . S
C463 C461 1.387 . S
C463 C465 1.390 . S
C463 H467 0.950 . S
H464 C460 0.950 . S
C465 C463 1.390 . S
C465 C466 1.387 . S
C465 H468 0.950 . S
C466 C465 1.387 . S
C466 C469 1.387 . S
H467 C463 0.950 . S
H468 C465 0.950 . S
C469 C460 1.390 . S
C469 H462 0.950 . S
C469 C466 1.387 . S
C470 C471 1.387 . S
C470 H474 0.950 . S
C470 C479 1.390 1_565 S
C471 C470 1.387 . S
C471 C473 1.387 . S
H472 C479 0.950 . S
C473 C471 1.387 . S
C473 C475 1.390 . S
C473 H477 0.950 . S
H474 C470 0.950 . S
C475 C473 1.390 . S
C475 C476 1.387 1_565 S
C475 H478 0.950 . S
C476 C475 1.387 1_545 S
C476 C479 1.387 . S
H477 C473 0.950 . S
H478 C475 0.950 . S
C479 C470 1.390 1_545 S
C479 H472 0.950 . S
C479 C476 1.387 . S
C480 C481 1.387 . S
C480 H484 0.950 . S
C480 C489 1.390 1_545 S
C481 C480 1.387 . S
C481 C483 1.387 . S
H482 C489 0.950 . S
C483 C481 1.387 . S
C483 C485 1.390 . S
C483 H487 0.950 . S
H484 C480 0.950 . S
C485 C483 1.390 . S
C485 C486 1.387 1_545 S
C485 H488 0.950 . S
C486 C485 1.387 1_565 S
C486 C489 1.387 . S
H487 C483 0.950 . S
H488 C485 0.950 . S
C489 C480 1.390 1_565 S
C489 H482 0.950 . S
C489 C486 1.387 . S
C490 C491 1.387 . S
C490 H494 0.950 . S
C490 C499 1.390 . S
C491 C490 1.387 . S
C491 C493 1.387 . S
H492 C499 0.950 . S
C493 C491 1.387 . S
C493 C495 1.390 . S
C493 H497 0.950 . S
H494 C490 0.950 . S
C495 C493 1.390 . S
C495 C496 1.387 . S
C495 H498 0.950 . S
C496 C495 1.387 . S
C496 C499 1.387 . S
H497 C493 0.950 . S
H498 C495 0.950 . S
C499 C490 1.390 . S
C499 H492 0.950 . S
C499 C496 1.387 . S
C500 C501 1.387 . S
C500 H504 0.950 . S
C500 C509 1.390 . S
C501 C500 1.387 . S
C501 C503 1.387 . S
H502 C509 0.950 . S
C503 C501 1.387 . S
C503 C505 1.390 . S
C503 H507 0.950 . S
H504 C500 0.950 . S
C505 C503 1.390 . S
C505 C506 1.387 . S
C505 H508 0.950 . S
C506 C505 1.387 . S
C506 C509 1.387 . S
H507 C503 0.950 . S
H508 C505 0.950 . S
C509 C500 1.390 . S
C509 H502 0.950 . S
C509 C506 1.387 . S
C510 C511 1.387 . S
C510 H514 0.950 1_545 S
C510 C519 1.390 1_545 S
C511 C510 1.387 . S
C511 C513 1.387 . S
H512 C519 0.950 . S
C513 C511 1.387 . S
C513 C515 1.390 . S
C513 H517 0.950 . S
H514 C510 0.950 1_565 S
C515 C513 1.390 . S
C515 C516 1.387 1_545 S
C515 H518 0.950 . S
C516 C515 1.387 1_565 S
C516 C519 1.387 . S
H517 C513 0.950 . S
H518 C515 0.950 . S
C519 C510 1.390 1_565 S
C519 H512 0.950 . S
C519 C516 1.387 . S
C520 C521 1.387 . S
C520 H524 0.950 . S
C520 C529 1.390 1_556 S
C521 C520 1.387 . S
C521 C523 1.387 . S
H522 C529 0.950 . S
C523 C521 1.387 . S
C523 C525 1.390 1_556 S
C523 H527 0.950 . S
H524 C520 0.950 . S
C525 C523 1.390 1_554 S
C525 C526 1.387 . S
C525 H528 0.950 . S
C526 C525 1.387 . S
C526 C529 1.387 . S
H527 C523 0.950 . S
H528 C525 0.950 . S
C529 C520 1.390 1_554 S
C529 H522 0.950 . S
C529 C526 1.387 . S
C530 C531 1.387 . S
C530 H534 0.950 . S
C530 C539 1.390 . S
C531 C530 1.387 . S
C531 C533 1.387 . S
H532 C539 0.950 . S
C533 C531 1.387 . S
C533 C535 1.390 . S
C533 H537 0.950 . S
H534 C530 0.950 . S
C535 C533 1.390 . S
C535 C536 1.387 . S
C535 H538 0.950 . S
C536 C535 1.387 . S
C536 C539 1.387 . S
H537 C533 0.950 . S
H538 C535 0.950 . S
C539 C530 1.390 . S
C539 H532 0.950 . S
C539 C536 1.387 . S
C540 C541 1.387 . S
C540 H544 0.950 . S
C540 C549 1.390 1_554 S
C541 C540 1.387 . S
C541 C543 1.387 . S
H542 C549 0.950 . S
C543 C541 1.387 . S
C543 C545 1.390 . S
C543 H547 0.950 . S
H544 C540 0.950 . S
C545 C543 1.390 . S
C545 C546 1.387 1_554 S
C545 H548 0.950 . S
C546 C545 1.387 1_556 S
C546 C549 1.387 . S
H547 C543 0.950 . S
H548 C545 0.950 . S
C549 C540 1.390 1_556 S
C549 H542 0.950 . S
C549 C546 1.387 . S
C550 C551 1.387 . S
C550 H554 0.950 . S
C550 C559 1.390 . S
C551 C550 1.387 . S
C551 C553 1.387 . S
H552 C559 0.950 . S
C553 C551 1.387 . S
C553 C555 1.390 . S
C553 H557 0.950 . S
H554 C550 0.950 . S
C555 C553 1.390 . S
C555 C556 1.387 . S
C555 H558 0.950 . S
C556 C555 1.387 . S
C556 C559 1.387 . S
H557 C553 0.950 . S
H558 C555 0.950 . S
C559 C550 1.390 . S
C559 H552 0.950 . S
C559 C556 1.387 . S
C560 C561 1.387 . S
C560 H564 0.950 . S
C560 C569 1.390 1_554 S
C561 C560 1.387 . S
C561 C563 1.387 . S
H562 C569 0.950 . S
C563 C561 1.387 . S
C563 C565 1.390 1_554 S
C563 H567 0.950 . S
H564 C560 0.950 . S
C565 C563 1.390 1_556 S
C565 C566 1.387 . S
C565 H568 0.950 . S
C566 C565 1.387 . S
C566 C569 1.387 . S
H567 C563 0.950 . S
H568 C565 0.950 . S
C569 C560 1.390 1_556 S
C569 H562 0.950 . S
C569 C566 1.387 . S
C570 C571 1.387 . S
C570 H574 0.950 . S
C570 C579 1.390 . S
C571 C570 1.387 . S
C571 C573 1.387 . S
H572 C579 0.950 . S
C573 C571 1.387 . S
C573 C575 1.390 . S
C573 H577 0.950 . S
H574 C570 0.950 . S
C575 C573 1.390 . S
C575 C576 1.387 . S
C575 H578 0.950 . S
C576 C575 1.387 . S
C576 C579 1.387 . S
H577 C573 0.950 . S
H578 C575 0.950 . S
C579 C570 1.390 . S
C579 H572 0.950 . S
C579 C576 1.387 . S
C580 C581 1.387 . S
C580 H584 0.950 . S
C580 C589 1.390 1_556 S
C581 C580 1.387 . S
C581 C583 1.387 . S
H582 C589 0.950 . S
C583 C581 1.387 . S
C583 C585 1.390 1_556 S
C583 H587 0.950 . S
H584 C580 0.950 . S
C585 C583 1.390 1_554 S
C585 C586 1.387 . S
C585 H588 0.950 . S
C586 C585 1.387 . S
C586 C589 1.387 . S
H587 C583 0.950 . S
H588 C585 0.950 . S
C589 C580 1.390 1_554 S
C589 H582 0.950 . S
C589 C586 1.387 . S
C590 C591 1.387 . S
C590 H594 0.950 . S
C590 C599 1.390 . S
C591 C590 1.387 . S
C591 C593 1.387 . S
H592 C599 0.950 . S
C593 C591 1.387 . S
C593 C595 1.390 . S
C593 H597 0.950 . S
H594 C590 0.950 . S
C595 C593 1.390 . S
C595 C596 1.387 . S
C595 H598 0.950 . S
C596 C595 1.387 . S
C596 C599 1.387 . S
H597 C593 0.950 . S
H598 C595 0.950 . S
C599 C590 1.390 . S
C599 H592 0.950 . S
C599 C596 1.387 . S
C600 C601 1.387 . S
C600 H604 0.950 . S
C600 C609 1.390 . S
C601 C600 1.387 . S
C601 C603 1.387 . S
H602 C609 0.950 . S
C603 C601 1.387 . S
C603 C605 1.390 . S
C603 H607 0.950 . S
H604 C600 0.950 . S
C605 C603 1.390 . S
C605 C606 1.387 . S
C605 H608 0.950 . S
C606 C605 1.387 . S
C606 C609 1.387 . S
H607 C603 0.950 . S
H608 C605 0.950 . S
C609 C600 1.390 . S
C609 H602 0.950 . S
C609 C606 1.387 . S
C610 C611 1.387 . S
C610 H614 0.950 . S
C610 C619 1.390 . S
C611 C610 1.387 . S
C611 C613 1.387 . S
H612 C619 0.950 . S
C613 C611 1.387 . S
C613 C615 1.390 . S
C613 H617 0.950 . S
H614 C610 0.950 . S
C615 C613 1.390 . S
C615 C616 1.387 . S
C615 H618 0.950 . S
C616 C615 1.387 . S
C616 C619 1.387 . S
H617 C613 0.950 . S
H618 C615 0.950 . S
C619 C610 1.390 . S
C619 H612 0.950 . S
C619 C616 1.387 . S
C620 C621 1.387 . S
C620 H624 0.950 . S
C620 C629 1.390 . S
C621 C620 1.387 . S
C621 C623 1.387 . S
H622 C629 0.950 . S
C623 C621 1.387 . S
C623 C625 1.390 . S
C623 H627 0.950 . S
H624 C620 0.950 . S
C625 C623 1.390 . S
C625 C626 1.387 . S
C625 H628 0.950 . S
C626 C625 1.387 . S
C626 C629 1.387 . S
H627 C623 0.950 . S
H628 C625 0.950 . S
C629 C620 1.390 . S
C629 H622 0.950 . S
C629 C626 1.387 . S
C630 C631 1.387 . S
C630 H634 0.950 . S
C630 C639 1.390 . S
C631 C630 1.387 . S
C631 C633 1.387 . S
H632 C639 0.950 . S
C633 C631 1.387 . S
C633 C635 1.390 . S
C633 H637 0.950 . S
H634 C630 0.950 . S
C635 C633 1.390 . S
C635 C636 1.387 . S
C635 H638 0.950 1_655 S
C636 C635 1.387 . S
C636 C639 1.387 . S
H637 C633 0.950 . S
H638 C635 0.950 1_455 S
C639 C630 1.390 . S
C639 H632 0.950 . S
C639 C636 1.387 . S
C640 C641 1.387 . S
C640 H644 0.950 . S
C640 C649 1.390 . S
C641 C640 1.387 . S
C641 C643 1.387 . S
H642 C649 0.950 . S
C643 C641 1.387 . S
C643 C645 1.390 . S
C643 H647 0.950 . S
H644 C640 0.950 . S
C645 C643 1.390 . S
C645 C646 1.387 . S
C645 H648 0.950 1_655 S
C646 C645 1.387 . S
C646 C649 1.387 . S
H647 C643 0.950 . S
H648 C645 0.950 1_455 S
C649 C640 1.390 . S
C649 H642 0.950 . S
C649 C646 1.387 . S
C650 C651 1.387 . S
C650 H654 0.950 . S
C650 C659 1.390 . S
C651 C650 1.387 . S
C651 C653 1.387 . S
H652 C659 0.950 . S
C653 C651 1.387 . S
C653 C655 1.390 . S
C653 H657 0.950 . S
H654 C650 0.950 . S
C655 C653 1.390 . S
C655 C656 1.387 . S
C655 H658 0.950 . S
C656 C655 1.387 . S
C656 C659 1.387 . S
H657 C653 0.950 . S
H658 C655 0.950 . S
C659 C650 1.390 . S
C659 H652 0.950 . S
C659 C656 1.387 . S
C660 C661 1.387 . S
C660 H664 0.950 . S
C660 C669 1.390 . S
C661 C660 1.387 . S
C661 C663 1.387 . S
H662 C669 0.950 . S
C663 C661 1.387 . S
C663 C665 1.390 . S
C663 H667 0.950 . S
H664 C660 0.950 . S
C665 C663 1.390 . S
C665 C666 1.387 . S
C665 H668 0.950 . S
C666 C665 1.387 . S
C666 C669 1.387 . S
H667 C663 0.950 . S
H668 C665 0.950 . S
C669 C660 1.390 . S
C669 H662 0.950 . S
C669 C666 1.387 . S
C670 C671 1.387 . S
C670 H674 0.950 . S
C670 C679 1.390 . S
C671 C670 1.387 . S
C671 C673 1.387 . S
H672 C679 0.950 . S
C673 C671 1.387 . S
C673 C675 1.390 . S
C673 H677 0.950 . S
H674 C670 0.950 . S
C675 C673 1.390 . S
C675 C676 1.387 . S
C675 H678 0.950 . S
C676 C675 1.387 . S
C676 C679 1.387 . S
H677 C673 0.950 . S
H678 C675 0.950 . S
C679 C670 1.390 . S
C679 H672 0.950 . S
C679 C676 1.387 . S
C441 C86 1.630 . S
C446 C178 1.628 . S
C456 C262 1.670 . S
C451 C100 1.685 . S
C466 C255 1.621 . S
C461 C60 1.628 . S
C471 C74 1.679 . S
C476 C171 1.678 . S
C486 C335 1.670 . S
C481 C35 1.684 . S
C496 C419 1.628 . S
C491 C47 1.633 . S
C501 C9 1.679 . S
C506 C412 1.678 . S
C511 C21 1.632 . S
C516 C328 1.621 . S
C526 C162 1.435 . S
C521 C22 1.585 . S
C536 C246 1.419 . S
C531 C8 1.579 . S
C546 C257 1.355 . S
C541 C48 1.583 . S
C556 C173 1.362 . S
C551 C34 1.580 . S
C566 C341 1.414 . S
C561 C73 1.581 . S
C571 C61 1.583 . S
C576 C425 1.435 . S
C586 C414 1.359 . S
C581 C99 1.582 . S
C591 C87 1.580 . S
C596 C330 1.353 . S
C606 C160 1.574 . S
C601 C4 1.483 . S
C616 C244 1.495 . S
C611 C17 1.482 . S
C621 C30 1.483 . S
C626 C251 1.546 . S
C636 C167 1.470 . S
C631 C43 1.475 . S
C646 C339 1.495 . S
C641 C56 1.445 . S
C651 C69 1.518 . S
C656 C423 1.574 . S
C661 C82 1.443 . S
C666 C430 1.468 . S
C671 C95 1.514 . S
C676 C346 1.545 . S
