# Generated by pormake.
# Topology ssb, (4,4)-cn, num edge types: 1
# Building blocks:
#     Node 0, Type 0, BuildingBlock: MIFKUJ_clean_linker_1, # of connection points: 4
#     Node 1, Type 0, BuildingBlock: MIFKUJ_clean_linker_1, # of connection points: 4
#     Node 2, Type 0, BuildingBlock: MIFKUJ_clean_linker_1, # of connection points: 4
#     Node 3, Type 0, BuildingBlock: MIFKUJ_clean_linker_1, # of connection points: 4
#     Node 4, Type 0, BuildingBlock: MIFKUJ_clean_linker_1, # of connection points: 4
#     Node 5, Type 0, BuildingBlock: MIFKUJ_clean_linker_1, # of connection points: 4
#     Node 6, Type 0, BuildingBlock: MIFKUJ_clean_linker_1, # of connection points: 4
#     Node 7, Type 0, BuildingBlock: MIFKUJ_clean_linker_1, # of connection points: 4
#     Node 8, Type 1, BuildingBlock: KOZSID_clean_sbu_0, # of connection points: 4
#     Node 9, Type 1, BuildingBlock: KOZSID_clean_sbu_0, # of connection points: 4
#     Node 10, Type 1, BuildingBlock: KOZSID_clean_sbu_0, # of connection points: 4
#     Node 11, Type 1, BuildingBlock: KOZSID_clean_sbu_0, # of connection points: 4
#     Node 12, Type 1, BuildingBlock: KOZSID_clean_sbu_0, # of connection points: 4
#     Node 13, Type 1, BuildingBlock: KOZSID_clean_sbu_0, # of connection points: 4
#     Node 14, Type 1, BuildingBlock: KOZSID_clean_sbu_0, # of connection points: 4
#     Node 15, Type 1, BuildingBlock: KOZSID_clean_sbu_0, # of connection points: 4
#     Edge 16, Type (0, 1), BuildingBlock: KIFKEQ_clean_linker_1, # of connection points: 2
#     Edge 17, Type (0, 1), BuildingBlock: KIFKEQ_clean_linker_1, # of connection points: 2
#     Edge 18, Type (0, 1), BuildingBlock: KIFKEQ_clean_linker_1, # of connection points: 2
#     Edge 19, Type (0, 1), BuildingBlock: KIFKEQ_clean_linker_1, # of connection points: 2
#     Edge 20, Type (0, 1), BuildingBlock: KIFKEQ_clean_linker_1, # of connection points: 2
#     Edge 21, Type (0, 1), BuildingBlock: KIFKEQ_clean_linker_1, # of connection points: 2
#     Edge 22, Type (0, 1), BuildingBlock: KIFKEQ_clean_linker_1, # of connection points: 2
#     Edge 23, Type (0, 1), BuildingBlock: KIFKEQ_clean_linker_1, # of connection points: 2
#     Edge 24, Type (0, 1), BuildingBlock: KIFKEQ_clean_linker_1, # of connection points: 2
#     Edge 25, Type (0, 1), BuildingBlock: KIFKEQ_clean_linker_1, # of connection points: 2
#     Edge 26, Type (0, 1), BuildingBlock: KIFKEQ_clean_linker_1, # of connection points: 2
#     Edge 27, Type (0, 1), BuildingBlock: KIFKEQ_clean_linker_1, # of connection points: 2
#     Edge 28, Type (0, 1), BuildingBlock: KIFKEQ_clean_linker_1, # of connection points: 2
#     Edge 29, Type (0, 1), BuildingBlock: KIFKEQ_clean_linker_1, # of connection points: 2
#     Edge 30, Type (0, 1), BuildingBlock: KIFKEQ_clean_linker_1, # of connection points: 2
#     Edge 31, Type (0, 1), BuildingBlock: KIFKEQ_clean_linker_1, # of connection points: 2
#     Edge 32, Type (0, 1), BuildingBlock: KIFKEQ_clean_linker_1, # of connection points: 2
#     Edge 33, Type (0, 1), BuildingBlock: KIFKEQ_clean_linker_1, # of connection points: 2
#     Edge 34, Type (0, 1), BuildingBlock: KIFKEQ_clean_linker_1, # of connection points: 2
#     Edge 35, Type (0, 1), BuildingBlock: KIFKEQ_clean_linker_1, # of connection points: 2
#     Edge 36, Type (0, 1), BuildingBlock: KIFKEQ_clean_linker_1, # of connection points: 2
#     Edge 37, Type (0, 1), BuildingBlock: KIFKEQ_clean_linker_1, # of connection points: 2
#     Edge 38, Type (0, 1), BuildingBlock: KIFKEQ_clean_linker_1, # of connection points: 2
#     Edge 39, Type (0, 1), BuildingBlock: KIFKEQ_clean_linker_1, # of connection points: 2
#     Edge 40, Type (0, 1), BuildingBlock: KIFKEQ_clean_linker_1, # of connection points: 2
#     Edge 41, Type (0, 1), BuildingBlock: KIFKEQ_clean_linker_1, # of connection points: 2
#     Edge 42, Type (0, 1), BuildingBlock: KIFKEQ_clean_linker_1, # of connection points: 2
#     Edge 43, Type (0, 1), BuildingBlock: KIFKEQ_clean_linker_1, # of connection points: 2
#     Edge 44, Type (0, 1), BuildingBlock: KIFKEQ_clean_linker_1, # of connection points: 2
#     Edge 45, Type (0, 1), BuildingBlock: KIFKEQ_clean_linker_1, # of connection points: 2
#     Edge 46, Type (0, 1), BuildingBlock: KIFKEQ_clean_linker_1, # of connection points: 2
#     Edge 47, Type (0, 1), BuildingBlock: KIFKEQ_clean_linker_1, # of connection points: 2
# Relax obj value: 0.002
# Max RMSD: 0.021
# Mean RMSD: 0.013
data_MOF--net-ssb--node1-KOZSID_clean_sbu_0--node2-MIFKUJ_clean_linker_1--edge1-KIFKEQ_clean_linker_1
_symmetry_space_group_name_H-M    P1
_symmetry_Int_Tables_number       1
_symmetry_cell_setting            triclinic
loop_
_symmetry_equiv_pos_as_xyz
'x, y, z'
_cell_length_a     64.28559
_cell_length_b     64.067964
_cell_length_c     47.339364
_cell_angle_alpha  92.108355
_cell_angle_beta   94.227104
_cell_angle_gamma 89.994369
loop_
_atom_site_label
_atom_site_type_symbol
_atom_site_fract_x
_atom_site_fract_y
_atom_site_fract_z
_atom_type_partial_charge
H0 H 0.2827 0.22342 0.21411 0.0
H1 H 0.31258 0.22491 0.18486 0.0
H2 H 0.33404 0.28122 0.23095 0.0
H3 H 0.3042 0.27962 0.26012 0.0
H4 H 0.2826 0.22061 0.27295 0.0
H5 H 0.25765 0.26723 0.20013 0.0
H6 H 0.2583 0.29706 0.16963 0.0
H7 H 0.26236 0.33877 0.24375 0.0
H8 H 0.26094 0.30878 0.27395 0.0
H9 H 0.23088 0.27714 0.33472 0.0
H10 H 0.20086 0.27694 0.36359 0.0
H11 H 0.18047 0.21826 0.3228 0.0
H12 H 0.2103 0.21879 0.29355 0.0
H13 H 0.23159 0.27845 0.27797 0.0
H14 H 0.25273 0.23075 0.35069 0.0
H15 H 0.25174 0.20032 0.38022 0.0
H16 H 0.2564 0.1597 0.30617 0.0
H17 H 0.25707 0.19018 0.27665 0.0
C18 C 0.29118 0.25146 0.23914 0.0
C19 C 0.29385 0.23607 0.21787 0.0
C20 C 0.31084 0.23701 0.2011 0.0
C21 C 0.32562 0.25319 0.20562 0.0
C22 C 0.32298 0.26849 0.22712 0.0
C23 C 0.30589 0.26766 0.24366 0.0
C24 C 0.27317 0.25051 0.25692 0.0
C25 C 0.27119 0.23304 0.27385 0.0
C26 C 0.25873 0.26716 0.25825 0.0
C27 C 0.25938 0.28558 0.23952 0.0
C28 C 0.25878 0.2828 0.20986 0.0
C29 C 0.25926 0.30002 0.19234 0.0
C30 C 0.26046 0.32065 0.20391 0.0
C31 C 0.26106 0.32333 0.23371 0.0
C32 C 0.26038 0.30609 0.25119 0.0
C33 C 0.22293 0.24791 0.31212 0.0
C34 C 0.21994 0.26423 0.33201 0.0
C35 C 0.20286 0.26401 0.34864 0.0
C36 C 0.18829 0.24756 0.34555 0.0
C37 C 0.1913 0.23125 0.32554 0.0
C38 C 0.20844 0.23144 0.30898 0.0
C39 C 0.24088 0.24847 0.29413 0.0
C40 C 0.24291 0.26593 0.27713 0.0
C41 C 0.25531 0.23171 0.29273 0.0
C42 C 0.25465 0.21301 0.31111 0.0
C43 C 0.25321 0.21533 0.34062 0.0
C44 C 0.25269 0.1978 0.35761 0.0
C45 C 0.25393 0.17737 0.34574 0.0
C46 C 0.25563 0.17509 0.31626 0.0
C47 C 0.25597 0.19261 0.29925 0.0
H48 H 0.69967 0.25762 0.26864 0.0
H49 H 0.66663 0.25873 0.23962 0.0
H50 H 0.70043 0.26117 0.16419 0.0
H51 H 0.73338 0.26016 0.19335 0.0
H52 H 0.73068 0.22952 0.26947 0.0
H53 H 0.72467 0.30294 0.25429 0.0
H54 H 0.71911 0.33383 0.22572 0.0
H55 H 0.77237 0.31672 0.17928 0.0
H56 H 0.7776 0.28571 0.20754 0.0
H57 H 0.81705 0.25491 0.26775 0.0
H58 H 0.84956 0.25416 0.29812 0.0
H59 H 0.81401 0.25247 0.37202 0.0
H60 H 0.78168 0.25383 0.34165 0.0
H61 H 0.78563 0.28351 0.26542 0.0
H62 H 0.79125 0.20968 0.28141 0.0
H63 H 0.79535 0.17827 0.30936 0.0
H64 H 0.7422 0.19682 0.35513 0.0
H65 H 0.73834 0.2282 0.32743 0.0
C66 C 0.719 0.25901 0.23321 0.0
C67 C 0.69995 0.25837 0.24584 0.0
C68 C 0.68108 0.25894 0.22921 0.0
C69 C 0.68089 0.26007 0.19957 0.0
C70 C 0.70002 0.26064 0.18698 0.0
C71 C 0.71888 0.26004 0.20362 0.0
C72 C 0.739 0.25822 0.25095 0.0
C73 C 0.74256 0.24149 0.26881 0.0
C74 C 0.75476 0.27347 0.24978 0.0
C75 C 0.75144 0.29208 0.23276 0.0
C76 C 0.73503 0.30582 0.2378 0.0
C77 C 0.73195 0.32346 0.22165 0.0
C78 C 0.74525 0.32752 0.20028 0.0
C79 C 0.76172 0.31374 0.19537 0.0
C80 C 0.76483 0.29618 0.21159 0.0
C81 C 0.79695 0.25424 0.3024 0.0
C82 C 0.8163 0.25444 0.2905 0.0
C83 C 0.83485 0.25384 0.30787 0.0
C84 C 0.83438 0.25321 0.33749 0.0
C85 C 0.81494 0.25315 0.34932 0.0
C86 C 0.79643 0.25372 0.33196 0.0
C87 C 0.77725 0.25483 0.28401 0.0
C88 C 0.77376 0.27152 0.26602 0.0
C89 C 0.76149 0.2396 0.28516 0.0
C90 C 0.76455 0.22117 0.30257 0.0
C91 C 0.78066 0.20702 0.2977 0.0
C92 C 0.78292 0.18911 0.31349 0.0
C93 C 0.76914 0.18526 0.33437 0.0
C94 C 0.75319 0.19961 0.3394 0.0
C95 C 0.75087 0.21741 0.3235 0.0
H96 H 0.71822 0.78224 0.20482 0.0
H97 H 0.68627 0.78054 0.17354 0.0
H98 H 0.67135 0.72087 0.20681 0.0
H99 H 0.70301 0.72304 0.2388 0.0
H100 H 0.72267 0.78417 0.261 0.0
H101 H 0.74149 0.73571 0.1868 0.0
H102 H 0.73969 0.70445 0.15559 0.0
H103 H 0.75069 0.6661 0.22838 0.0
H104 H 0.75135 0.69734 0.2595 0.0
H105 H 0.78158 0.73085 0.32226 0.0
H106 H 0.81425 0.73244 0.35207 0.0
H107 H 0.82837 0.79208 0.31809 0.0
H108 H 0.79598 0.79003 0.28757 0.0
H109 H 0.77647 0.72878 0.26624 0.0
H110 H 0.75792 0.77706 0.34047 0.0
H111 H 0.75938 0.80824 0.37191 0.0
H112 H 0.74895 0.84687 0.29939 0.0
H113 H 0.74766 0.81565 0.26805 0.0
C114 C 0.7131 0.7527 0.224 0.0
C115 C 0.70806 0.76879 0.20538 0.0
C116 C 0.68986 0.76771 0.18733 0.0
C117 C 0.67627 0.75053 0.18758 0.0
C118 C 0.68138 0.7344 0.20625 0.0
C119 C 0.69958 0.73552 0.22435 0.0
C120 C 0.73216 0.75432 0.24367 0.0
C121 C 0.73463 0.77222 0.26195 0.0
C122 C 0.74737 0.73826 0.2452 0.0
C123 C 0.74623 0.71909 0.22577 0.0
C124 C 0.74317 0.72057 0.19615 0.0
C125 C 0.74244 0.70257 0.17819 0.0
C126 C 0.74501 0.68249 0.18923 0.0
C127 C 0.74825 0.68111 0.21889 0.0
C128 C 0.74886 0.69909 0.23683 0.0
C129 C 0.78625 0.76038 0.30282 0.0
C130 C 0.7917 0.7443 0.32129 0.0
C131 C 0.81031 0.74531 0.33849 0.0
C132 C 0.82393 0.76241 0.33751 0.0
C133 C 0.81834 0.7786 0.31916 0.0
C134 C 0.79972 0.77756 0.30192 0.0
C135 C 0.767 0.75863 0.28355 0.0
C136 C 0.7645 0.74071 0.26533 0.0
C137 C 0.75176 0.77466 0.28211 0.0
C138 C 0.75293 0.79379 0.30162 0.0
C139 C 0.75623 0.79222 0.33121 0.0
C140 C 0.75704 0.81017 0.34927 0.0
C141 C 0.75431 0.83025 0.33836 0.0
C142 C 0.75087 0.83176 0.30875 0.0
C143 C 0.75018 0.81383 0.2907 0.0
H144 H 0.22311 0.73218 0.30423 0.0
H145 H 0.19418 0.73334 0.33511 0.0
H146 H 0.1657 0.7829 0.2864 0.0
H147 H 0.19448 0.78142 0.25531 0.0
H148 H 0.2241 0.7232 0.24845 0.0
H149 H 0.24759 0.77958 0.31054 0.0
H150 H 0.24835 0.8128 0.33784 0.0
H151 H 0.22965 0.84521 0.26174 0.0
H152 H 0.22919 0.81184 0.23427 0.0
H153 H 0.27004 0.77752 0.17846 0.0
H154 H 0.30088 0.77666 0.15109 0.0
H155 H 0.32644 0.72673 0.20175 0.0
H156 H 0.29566 0.72773 0.22911 0.0
H157 H 0.26611 0.78617 0.23296 0.0
H158 H 0.25024 0.72693 0.17071 0.0
H159 H 0.25628 0.69317 0.14712 0.0
H160 H 0.26383 0.66465 0.22861 0.0
H161 H 0.25773 0.69853 0.2521 0.0
C162 C 0.21103 0.75678 0.27754 0.0
C163 C 0.2106 0.74326 0.30016 0.0
C164 C 0.19415 0.74405 0.31793 0.0
C165 C 0.17766 0.75824 0.31323 0.0
C166 C 0.17807 0.77168 0.29044 0.0
C167 C 0.19459 0.77097 0.2728 0.0
C168 C 0.22856 0.75594 0.25875 0.0
C169 C 0.2334 0.73694 0.24526 0.0
C170 C 0.24045 0.77381 0.25396 0.0
C171 C 0.23824 0.79341 0.27054 0.0
C172 C 0.2433 0.79379 0.29985 0.0
C173 C 0.24385 0.81268 0.31532 0.0
C174 C 0.23915 0.83135 0.30168 0.0
C175 C 0.23324 0.83089 0.27255 0.0
C176 C 0.23301 0.81197 0.25695 0.0
C177 C 0.28035 0.75251 0.20562 0.0
C178 C 0.28229 0.76638 0.18367 0.0
C179 C 0.29996 0.76592 0.1681 0.0
C180 C 0.31612 0.75158 0.17418 0.0
C181 C 0.31415 0.73772 0.1962 0.0
C182 C 0.29652 0.73827 0.21186 0.0
C183 C 0.26176 0.75341 0.22259 0.0
C184 C 0.25665 0.77247 0.23571 0.0
C185 C 0.24981 0.73548 0.2273 0.0
C186 C 0.25369 0.71517 0.2131 0.0
C187 C 0.25341 0.71344 0.18347 0.0
C188 C 0.25692 0.69419 0.17006 0.0
C189 C 0.26062 0.67637 0.1861 0.0
C190 C 0.26087 0.67814 0.21578 0.0
C191 C 0.2574 0.69742 0.22918 0.0
H192 H 0.19733 0.76957 0.75201 0.0
H193 H 0.16495 0.76988 0.7215 0.0
H194 H 0.20057 0.76646 0.64754 0.0
H195 H 0.23288 0.7656 0.67819 0.0
H196 H 0.22544 0.7391 0.75619 0.0
H197 H 0.22504 0.81107 0.7307 0.0
H198 H 0.22369 0.84115 0.70031 0.0
H199 H 0.28071 0.82075 0.66519 0.0
H200 H 0.2816 0.79035 0.69501 0.0
H201 H 0.31362 0.75464 0.75298 0.0
H202 H 0.34613 0.75157 0.78276 0.0
H203 H 0.31155 0.75689 0.85762 0.0
H204 H 0.27912 0.75972 0.82769 0.0
H205 H 0.2859 0.78627 0.74982 0.0
H206 H 0.28562 0.71379 0.77505 0.0
H207 H 0.28669 0.68392 0.80573 0.0
H208 H 0.23119 0.70646 0.843 0.0
H209 H 0.23009 0.73611 0.81193 0.0
C210 C 0.21753 0.76771 0.71741 0.0
C211 C 0.19816 0.76899 0.72922 0.0
C212 C 0.17967 0.76931 0.71175 0.0
C213 C 0.18018 0.76819 0.68208 0.0
C214 C 0.19964 0.76714 0.6703 0.0
C215 C 0.21812 0.76686 0.68779 0.0
C216 C 0.23702 0.76602 0.73603 0.0
C217 C 0.23858 0.74959 0.75517 0.0
C218 C 0.25426 0.77958 0.73393 0.0
C219 C 0.25329 0.79808 0.71511 0.0
C220 C 0.23714 0.81287 0.71623 0.0
C221 C 0.23652 0.83031 0.69897 0.0
C222 C 0.25208 0.83358 0.68007 0.0
C223 C 0.26826 0.81876 0.67906 0.0
C224 C 0.26889 0.80136 0.69637 0.0
C225 C 0.29393 0.75722 0.78809 0.0
C226 C 0.31307 0.75513 0.77582 0.0
C227 C 0.33164 0.75346 0.79288 0.0
C228 C 0.33146 0.75396 0.8226 0.0
C229 C 0.31223 0.75609 0.83482 0.0
C230 C 0.29367 0.75776 0.81773 0.0
C231 C 0.2743 0.75933 0.7699 0.0
C232 C 0.27273 0.77581 0.75084 0.0
C233 C 0.25702 0.74586 0.77211 0.0
C234 C 0.25788 0.72752 0.79117 0.0
C235 C 0.27376 0.71245 0.78999 0.0
C236 C 0.27437 0.69528 0.80772 0.0
C237 C 0.25905 0.69255 0.82715 0.0
C238 C 0.24312 0.70766 0.82816 0.0
C239 C 0.24251 0.72479 0.8104 0.0
H240 H 0.30629 0.26109 0.78633 0.0
H241 H 0.33929 0.26218 0.81545 0.0
H242 H 0.30557 0.26177 0.8911 0.0
H243 H 0.27256 0.26014 0.86176 0.0
H244 H 0.27698 0.23169 0.78141 0.0
H245 H 0.28115 0.30312 0.80961 0.0
H246 H 0.28371 0.33485 0.83989 0.0
H247 H 0.22673 0.31814 0.8766 0.0
H248 H 0.2245 0.28602 0.84683 0.0
H249 H 0.18939 0.25277 0.78373 0.0
H250 H 0.15745 0.25111 0.75224 0.0
H251 H 0.19431 0.25375 0.67967 0.0
H252 H 0.2261 0.25518 0.71124 0.0
H253 H 0.21948 0.28243 0.7914 0.0
H254 H 0.21744 0.20922 0.76404 0.0
H255 H 0.21691 0.17732 0.73396 0.0
H256 H 0.27019 0.1998 0.69321 0.0
H257 H 0.27083 0.23141 0.72369 0.0
C258 C 0.28695 0.26063 0.82186 0.0
C259 C 0.306 0.26123 0.8092 0.0
C260 C 0.32485 0.26203 0.82588 0.0
C261 C 0.32505 0.26211 0.8556 0.0
C262 C 0.30594 0.26155 0.86826 0.0
C263 C 0.28707 0.2608 0.85154 0.0
C264 C 0.26705 0.25926 0.80386 0.0
C265 C 0.26453 0.24296 0.78344 0.0
C266 C 0.25055 0.27358 0.80685 0.0
C267 C 0.25277 0.2921 0.82628 0.0
C268 C 0.26949 0.306 0.82467 0.0
C269 C 0.27092 0.32411 0.84189 0.0
C270 C 0.25543 0.32878 0.8605 0.0
C271 C 0.2388 0.31482 0.86228 0.0
C272 C 0.23752 0.29656 0.84533 0.0
C273 C 0.21014 0.25384 0.74984 0.0
C274 C 0.19055 0.25299 0.76103 0.0
C275 C 0.17231 0.25212 0.74299 0.0
C276 C 0.1733 0.25222 0.7134 0.0
C277 C 0.19297 0.25324 0.70231 0.0
C278 C 0.21118 0.2541 0.72034 0.0
C279 C 0.2295 0.25488 0.76898 0.0
C280 C 0.23191 0.2711 0.7896 0.0
C281 C 0.24601 0.24062 0.76609 0.0
C282 C 0.2442 0.22253 0.746 0.0
C283 C 0.22877 0.20735 0.7483 0.0
C284 C 0.22848 0.1892 0.73112 0.0
C285 C 0.24365 0.18603 0.7115 0.0
C286 C 0.25857 0.20167 0.70856 0.0
C287 C 0.2589 0.21974 0.72579 0.0
H288 H 0.72457 0.22924 0.82329 0.0
H289 H 0.69508 0.23043 0.85304 0.0
H290 H 0.6744 0.28795 0.81523 0.0
H291 H 0.7041 0.28676 0.78578 0.0
H292 H 0.72528 0.22661 0.76668 0.0
H293 H 0.74685 0.27638 0.84188 0.0
H294 H 0.74591 0.30775 0.87277 0.0
H295 H 0.74946 0.34614 0.8002 0.0
H296 H 0.75015 0.31473 0.76936 0.0
H297 H 0.77736 0.28156 0.70819 0.0
H298 H 0.80744 0.28055 0.6795 0.0
H299 H 0.828 0.2234 0.71847 0.0
H300 H 0.79765 0.22436 0.74672 0.0
H301 H 0.77636 0.28441 0.7649 0.0
H302 H 0.75514 0.23483 0.68973 0.0
H303 H 0.75614 0.20359 0.65865 0.0
H304 H 0.75188 0.16491 0.73079 0.0
H305 H 0.75113 0.19621 0.76185 0.0
C306 C 0.71666 0.25799 0.80247 0.0
C307 C 0.71367 0.2421 0.8214 0.0
C308 C 0.69674 0.24277 0.83833 0.0
C309 C 0.68232 0.25928 0.83655 0.0
C310 C 0.68535 0.27517 0.81748 0.0
C311 C 0.70231 0.27449 0.80057 0.0
C312 C 0.73457 0.25702 0.78434 0.0
C313 C 0.73667 0.2391 0.76651 0.0
C314 C 0.74901 0.27375 0.78382 0.0
C315 C 0.74828 0.29297 0.803 0.0
C316 C 0.74712 0.29152 0.83246 0.0
C317 C 0.74661 0.30956 0.85021 0.0
C318 C 0.74757 0.32964 0.83912 0.0
C319 C 0.74893 0.33104 0.80967 0.0
C320 C 0.74928 0.313 0.79192 0.0
C321 C 0.78515 0.25296 0.72944 0.0
C322 C 0.78834 0.26879 0.71049 0.0
C323 C 0.80562 0.26824 0.6942 0.0
C324 C 0.82021 0.25191 0.69668 0.0
C325 C 0.81694 0.23604 0.71567 0.0
C326 C 0.79961 0.23658 0.73191 0.0
C327 C 0.76709 0.254 0.74727 0.0
C328 C 0.76497 0.27193 0.76505 0.0
C329 C 0.75262 0.23729 0.74771 0.0
C330 C 0.75336 0.21811 0.72844 0.0
C331 C 0.75474 0.21966 0.69903 0.0
C332 C 0.75527 0.20168 0.68116 0.0
C333 C 0.75414 0.18157 0.69206 0.0
C334 C 0.75255 0.18005 0.72145 0.0
C335 C 0.75217 0.19803 0.73934 0.0
H336 H 0.78169 0.73018 0.69975 0.0
H337 H 0.81105 0.73112 0.66978 0.0
H338 H 0.83611 0.78485 0.7187 0.0
H339 H 0.80677 0.7838 0.74859 0.0
H340 H 0.7797 0.72387 0.75394 0.0
H341 H 0.75496 0.77861 0.69421 0.0
H342 H 0.75427 0.81143 0.6692 0.0
H343 H 0.77159 0.84527 0.74802 0.0
H344 H 0.77201 0.81236 0.77311 0.0
H345 H 0.7347 0.77778 0.82895 0.0
H346 H 0.70442 0.77698 0.85745 0.0
H347 H 0.67781 0.7267 0.8031 0.0
H348 H 0.70794 0.7278 0.77449 0.0
H349 H 0.73609 0.78603 0.77285 0.0
H350 H 0.76072 0.73075 0.83227 0.0
H351 H 0.75898 0.69799 0.8571 0.0
H352 H 0.74038 0.6652 0.77792 0.0
H353 H 0.74246 0.69806 0.75298 0.0
C354 C 0.79184 0.75705 0.72626 0.0
C355 C 0.79351 0.74216 0.70403 0.0
C356 C 0.81035 0.74268 0.68696 0.0
C357 C 0.82593 0.75809 0.6918 0.0
C358 C 0.82422 0.77299 0.71408 0.0
C359 C 0.80742 0.77241 0.7312 0.0
C360 C 0.77416 0.75616 0.74479 0.0
C361 C 0.77 0.73741 0.75763 0.0
C362 C 0.76178 0.77382 0.75057 0.0
C363 C 0.7636 0.79322 0.73536 0.0
C364 C 0.7589 0.79307 0.70599 0.0
C365 C 0.7584 0.81173 0.69183 0.0
C366 C 0.7628 0.83068 0.70687 0.0
C367 C 0.76825 0.83074 0.73611 0.0
C368 C 0.76843 0.81208 0.75037 0.0
C369 C 0.72367 0.75275 0.79973 0.0
C370 C 0.72236 0.76656 0.82325 0.0
C371 C 0.70512 0.76599 0.8396 0.0
C372 C 0.68872 0.75177 0.83253 0.0
C373 C 0.6901 0.73795 0.80896 0.0
C374 C 0.7074 0.73843 0.79276 0.0
C375 C 0.74166 0.75377 0.78183 0.0
C376 C 0.74586 0.77253 0.76916 0.0
C377 C 0.754 0.73612 0.77608 0.0
C378 C 0.75168 0.71665 0.79093 0.0
C379 C 0.75613 0.71652 0.82033 0.0
C380 C 0.75521 0.6979 0.8344 0.0
C381 C 0.74962 0.67928 0.81924 0.0
C382 C 0.74465 0.67949 0.7899 0.0
C383 C 0.7459 0.6981 0.77573 0.0
C384 C 0.03507 0.26985 0.56952 0.0
C385 C 0.0421 0.2891 0.58081 0.0
C386 C 0.03152 0.30391 0.56559 0.0
C387 C 0.0187 0.29291 0.54597 0.0
N388 N 0.02021 0.27194 0.54796 0.0
Co389 Co 0.00513 0.25005 0.52282 0.0
N390 N 0.99033 0.27185 0.49955 0.0
C391 C 0.99214 0.29284 0.50327 0.0
C392 C 0.9794 0.30378 0.48465 0.0
C393 C 0.96855 0.28892 0.46828 0.0
C394 C 0.97536 0.26971 0.47792 0.0
N395 N 0.99033 0.22816 0.49738 0.0
C396 C 0.97559 0.23022 0.47567 0.0
C397 C 0.96912 0.21099 0.46372 0.0
C398 C 0.97998 0.19619 0.47864 0.0
C399 C 0.99241 0.20719 0.49872 0.0
N400 N 0.01963 0.22824 0.54643 0.0
C401 C 0.01734 0.20727 0.5432 0.0
C402 C 0.02957 0.19632 0.56241 0.0
C403 C 0.04049 0.21116 0.57875 0.0
C404 C 0.03426 0.23037 0.56848 0.0
N405 N 0.98165 0.25024 0.54797 0.0
C406 C 0.94709 0.25053 0.5815 0.0
C407 C 0.95504 0.2318 0.5708 0.0
C408 C 0.9722 0.23201 0.55435 0.0
C409 C 0.95697 0.26911 0.57548 0.0
C410 C 0.97405 0.26861 0.55879 0.0
N411 N 0.02859 0.24983 0.49765 0.0
C412 C 0.05473 0.23095 0.47275 0.0
C413 C 0.06284 0.24952 0.46345 0.0
C414 C 0.05333 0.26825 0.47141 0.0
C415 C 0.03642 0.26804 0.48835 0.0
C416 C 0.03775 0.23145 0.48957 0.0
H417 H 0.03 0.28284 0.49373 0.0
H418 H 0.03247 0.21676 0.49598 0.0
H419 H 0.97744 0.21719 0.5469 0.0
H420 H 0.98067 0.28332 0.55469 0.0
C421 C 0.00548 0.30179 0.525 0.0
C422 C 0.04345 0.25009 0.57945 0.0
C423 C 0.96655 0.24993 0.46658 0.0
C424 C 0.00483 0.1983 0.52056 0.0
H425 H 0.05388 0.2921 0.59802 0.0
H426 H 0.03323 0.32069 0.56819 0.0
H427 H 0.97788 0.32056 0.4835 0.0
H428 H 0.95669 0.29187 0.45147 0.0
H429 H 0.95741 0.20798 0.44643 0.0
H430 H 0.97849 0.1794 0.47577 0.0
H431 H 0.03086 0.17954 0.56381 0.0
H432 H 0.0521 0.20818 0.59586 0.0
H433 H 0.94814 0.21696 0.57525 0.0
H434 H 0.95131 0.28406 0.58309 0.0
H435 H 0.06165 0.21602 0.46754 0.0
H436 H 0.05878 0.28306 0.46443 0.0
C437 C 0.73623 0.04109 0.55017 0.0
C438 C 0.71687 0.04906 0.55599 0.0
C439 C 0.70229 0.03678 0.54098 0.0
C440 C 0.71349 0.02205 0.52689 0.0
N441 N 0.73439 0.02413 0.53195 0.0
Co442 Co 0.75631 0.00573 0.51582 0.0
N443 N 0.7348 0.98818 0.49276 0.0
C444 C 0.71388 0.99098 0.49138 0.0
C445 C 0.703 0.97665 0.47389 0.0
C446 C 0.7178 0.96389 0.46338 0.0
C447 C 0.73699 0.97121 0.47506 0.0
N448 N 0.77819 0.987 0.50025 0.0
C449 C 0.77633 0.96979 0.48247 0.0
C450 C 0.79566 0.96127 0.47768 0.0
C451 C 0.81022 0.97332 0.49309 0.0
C452 C 0.79905 0.9885 0.50637 0.0
N453 N 0.77784 0.02365 0.53827 0.0
C454 C 0.79879 0.02134 0.53883 0.0
C455 C 0.80968 0.03618 0.55547 0.0
C456 C 0.79484 0.04885 0.56608 0.0
C457 C 0.77565 0.04099 0.55529 0.0
N458 N 0.75485 0.98715 0.548 0.0
C459 C 0.75333 0.95779 0.59016 0.0
C460 C 0.77216 0.9671 0.58492 0.0
C461 C 0.77257 0.98162 0.56382 0.0
C462 C 0.73512 0.96407 0.57506 0.0
C463 C 0.73621 0.97885 0.55441 0.0
N464 N 0.75781 0.02433 0.4837 0.0
C465 C 0.77823 0.04532 0.45474 0.0
C466 C 0.76021 0.05484 0.44316 0.0
C467 C 0.74091 0.04784 0.45073 0.0
C468 C 0.74008 0.03265 0.47088 0.0
C469 C 0.77666 0.03008 0.47467 0.0
H470 H 0.72495 0.02831 0.47622 0.0
H471 H 0.79095 0.02366 0.48306 0.0
H472 H 0.78747 0.98774 0.56031 0.0
H473 H 0.72182 0.98298 0.54359 0.0
C474 C 0.70488 0.00666 0.50781 0.0
C475 C 0.75585 0.05051 0.56207 0.0
C476 C 0.75673 0.96108 0.46926 0.0
C477 C 0.80772 0.00473 0.52403 0.0
H478 H 0.71363 0.0625 0.56948 0.0
H479 H 0.68551 0.03857 0.54013 0.0
H480 H 0.68626 0.97543 0.46963 0.0
H481 H 0.71477 0.95053 0.44902 0.0
H482 H 0.79892 0.94778 0.4643 0.0
H483 H 0.82698 0.97133 0.49433 0.0
H484 H 0.82643 0.03757 0.55949 0.0
H485 H 0.7978 0.06235 0.58024 0.0
H486 H 0.78664 0.96256 0.59618 0.0
H487 H 0.72016 0.95736 0.57887 0.0
H488 H 0.79355 0.05022 0.44948 0.0
H489 H 0.72649 0.0544 0.44169 0.0
C490 C 0.03517 0.78138 0.55077 0.0
C491 C 0.04185 0.80069 0.56231 0.0
C492 C 0.03017 0.81538 0.54835 0.0
C493 C 0.01707 0.80427 0.5292 0.0
N494 N 0.01953 0.78333 0.53024 0.0
Co495 Co 0.00386 0.76134 0.50595 0.0
N496 N 0.9879 0.78304 0.48391 0.0
C497 C 0.99035 0.80401 0.48667 0.0
C498 C 0.97711 0.81488 0.4686 0.0
C499 C 0.9653 0.8 0.45362 0.0
C500 C 0.97199 0.78084 0.4636 0.0
N501 N 0.98775 0.73937 0.48214 0.0
C502 C 0.97147 0.74135 0.46251 0.0
C503 C 0.96384 0.72203 0.45229 0.0
C504 C 0.97561 0.70731 0.46607 0.0
C505 C 0.98961 0.71841 0.48395 0.0
N506 N 0.02022 0.73965 0.52756 0.0
C507 C 0.01868 0.71866 0.52363 0.0
C508 C 0.0326 0.70782 0.54079 0.0
C509 C 0.04395 0.72276 0.55636 0.0
C510 C 0.03624 0.74191 0.54773 0.0
N511 N 0.98194 0.76114 0.53348 0.0
C512 C 0.94894 0.7606 0.56967 0.0
C513 C 0.9587 0.74213 0.5613 0.0
C514 C 0.97504 0.74276 0.54344 0.0
C515 C 0.95634 0.7794 0.56011 0.0
C516 C 0.97271 0.77931 0.54223 0.0
N517 N 0.02578 0.76152 0.47836 0.0
C518 C 0.04829 0.74292 0.44726 0.0
C519 C 0.05815 0.76146 0.44112 0.0
C520 C 0.05133 0.78007 0.45364 0.0
C521 C 0.0352 0.77976 0.47188 0.0
C522 C 0.03235 0.74329 0.46582 0.0
H523 H 0.03072 0.79449 0.4806 0.0
H524 H 0.02578 0.72858 0.46989 0.0
H525 H 0.98171 0.72813 0.53781 0.0
H526 H 0.97743 0.79413 0.53543 0.0
C527 C 0.00371 0.81306 0.50829 0.0
C528 C 0.045 0.76179 0.55884 0.0
C529 C 0.9621 0.76111 0.45403 0.0
C530 C 0.00422 0.70963 0.50333 0.0
H531 H 0.05427 0.80384 0.57861 0.0
H532 H 0.03155 0.83218 0.55114 0.0
H533 H 0.9757 0.83165 0.4672 0.0
H534 H 0.95281 0.80291 0.43766 0.0
H535 H 0.95082 0.71885 0.43694 0.0
H536 H 0.97383 0.69051 0.46382 0.0
H537 H 0.03448 0.69106 0.54158 0.0
H538 H 0.05666 0.71991 0.57203 0.0
H539 H 0.95382 0.72718 0.56855 0.0
H540 H 0.94923 0.79414 0.56582 0.0
H541 H 0.05315 0.72807 0.43829 0.0
H542 H 0.05829 0.79489 0.44922 0.0
C543 C 0.27052 0.97087 0.54985 0.0
C544 C 0.28974 0.96316 0.55994 0.0
C545 C 0.30459 0.97535 0.54956 0.0
C546 C 0.29372 0.98974 0.53368 0.0
N547 N 0.27275 0.98751 0.53321 0.0
Co548 Co 0.25126 0.00534 0.51246 0.0
N549 N 0.27324 0.02305 0.49674 0.0
C550 C 0.29414 0.02064 0.50092 0.0
C551 C 0.30539 0.03495 0.48751 0.0
C552 C 0.29085 0.04729 0.4739 0.0
C553 C 0.27145 0.03977 0.47977 0.0
N554 N 0.22978 0.02344 0.4922 0.0
C555 C 0.23203 0.04041 0.47617 0.0
C556 C 0.21285 0.04846 0.46661 0.0
C557 C 0.19797 0.0363 0.47701 0.0
C558 C 0.20882 0.02154 0.49228 0.0
N559 N 0.2293 0.98738 0.52775 0.0
C560 C 0.20841 0.98939 0.52281 0.0
C561 C 0.19715 0.9748 0.53572 0.0
C562 C 0.21167 0.96264 0.54967 0.0
C563 C 0.23109 0.97047 0.54441 0.0
N564 N 0.25109 0.02442 0.54616 0.0
C565 C 0.25072 0.05519 0.58977 0.0
C566 C 0.23213 0.04647 0.57764 0.0
C567 C 0.23269 0.03109 0.55617 0.0
C568 C 0.26952 0.04736 0.58094 0.0
C569 C 0.26935 0.03208 0.55927 0.0
N570 N 0.2514 0.9863 0.47868 0.0
C571 C 0.23278 0.96627 0.44071 0.0
C572 C 0.25131 0.95712 0.43314 0.0
C573 C 0.26997 0.96333 0.44787 0.0
C574 C 0.26968 0.97799 0.47027 0.0
C575 C 0.23318 0.98069 0.46347 0.0
H576 H 0.2844 0.98207 0.48065 0.0
H577 H 0.21849 0.98673 0.46864 0.0
H578 H 0.21801 0.02527 0.54754 0.0
H579 H 0.28416 0.02707 0.55311 0.0
C580 C 0.30272 0.00515 0.51826 0.0
C581 C 0.25069 0.96145 0.55617 0.0
C582 C 0.25187 0.04937 0.46912 0.0
C583 C 0.19981 0.00547 0.50651 0.0
H584 H 0.29274 0.94994 0.57321 0.0
H585 H 0.32135 0.97377 0.55293 0.0
H586 H 0.32218 0.03639 0.48784 0.0
H587 H 0.29415 0.06047 0.46126 0.0
H588 H 0.20992 0.06173 0.45339 0.0
H589 H 0.18122 0.03797 0.47374 0.0
H590 H 0.18035 0.97327 0.5352 0.0
H591 H 0.20833 0.94954 0.56241 0.0
H592 H 0.21715 0.05203 0.5838 0.0
H593 H 0.28435 0.05329 0.59029 0.0
H594 H 0.21795 0.96174 0.42985 0.0
H595 H 0.28472 0.95673 0.44234 0.0
C596 C 0.53369 0.76984 0.05172 0.0
C597 C 0.54084 0.78913 0.06275 0.0
C598 C 0.52993 0.8039 0.04789 0.0
C599 C 0.51687 0.79287 0.02862 0.0
N600 N 0.51851 0.7719 0.03053 0.0
Co601 Co 0.50357 0.75001 0.00522 0.0
N602 N 0.48855 0.7718 0.98215 0.0
C603 C 0.49021 0.79278 0.98601 0.0
C604 C 0.47728 0.8037 0.9676 0.0
C605 C 0.46644 0.78882 0.95125 0.0
C606 C 0.47343 0.76962 0.96073 0.0
N607 N 0.48895 0.72812 0.9796 0.0
C608 C 0.47412 0.73016 0.958 0.0
C609 C 0.46779 0.71091 0.94593 0.0
C610 C 0.47882 0.69615 0.96067 0.0
C611 C 0.49121 0.70716 0.98079 0.0
N612 N 0.51825 0.72821 0.02862 0.0
C613 C 0.51595 0.70724 0.02543 0.0
C614 C 0.52826 0.6963 0.04455 0.0
C615 C 0.5393 0.71114 0.06072 0.0
C616 C 0.53313 0.73034 0.05034 0.0
N617 N 0.48007 0.74992 0.03034 0.0
C618 C 0.44516 0.74995 0.06332 0.0
C619 C 0.45348 0.73126 0.05297 0.0
C620 C 0.47076 0.7316 0.03673 0.0
C621 C 0.45492 0.7686 0.05728 0.0
C622 C 0.4722 0.76822 0.04099 0.0
N623 N 0.52706 0.7501 0.98009 0.0
C624 C 0.55403 0.73169 0.95623 0.0
C625 C 0.56176 0.75038 0.94684 0.0
C626 C 0.55161 0.76889 0.95398 0.0
C627 C 0.5345 0.76842 0.97055 0.0
C628 C 0.53674 0.73189 0.97251 0.0
H629 H 0.52772 0.78311 0.97561 0.0
H630 H 0.53161 0.71711 0.97886 0.0
H631 H 0.47619 0.71683 0.02938 0.0
H632 H 0.47875 0.78298 0.03699 0.0
C633 C 0.50356 0.80173 0.00773 0.0
C634 C 0.54257 0.75005 0.06097 0.0
C635 C 0.46471 0.74982 0.94935 0.0
C636 C 0.50358 0.69828 0.00266 0.0
H637 H 0.55305 0.79225 0.07934 0.0
H638 H 0.53171 0.82068 0.05032 0.0
H639 H 0.47562 0.82048 0.96658 0.0
H640 H 0.45447 0.79173 0.93457 0.0
H641 H 0.45598 0.70785 0.92877 0.0
H642 H 0.47741 0.67936 0.95775 0.0
H643 H 0.52958 0.67952 0.04594 0.0
H644 H 0.55098 0.70818 0.07775 0.0
H645 H 0.44677 0.71635 0.05746 0.0
H646 H 0.44901 0.78353 0.06453 0.0
H647 H 0.56117 0.71689 0.95087 0.0
H648 H 0.55712 0.7838 0.94737 0.0
C649 C 0.24426 0.53352 0.06194 0.0
C650 C 0.22552 0.53982 0.07227 0.0
C651 C 0.21008 0.53043 0.05499 0.0
C652 C 0.22027 0.51899 0.03527 0.0
N653 N 0.2413 0.52034 0.03904 0.0
Co654 Co 0.26226 0.50651 0.01532 0.0
N655 N 0.23955 0.49344 0.98918 0.0
C656 C 0.21872 0.49591 0.99031 0.0
C657 C 0.20709 0.48423 0.97011 0.0
C658 C 0.22131 0.47338 0.95546 0.0
C659 C 0.24088 0.47919 0.96759 0.0
N660 N 0.2832 0.49257 0.99174 0.0
C661 C 0.28023 0.47852 0.96983 0.0
C662 C 0.29893 0.47221 0.95939 0.0
C663 C 0.31438 0.48232 0.97581 0.0
C664 C 0.30422 0.49419 0.99514 0.0
N665 N 0.28498 0.51961 0.04137 0.0
C666 C 0.30583 0.51767 0.03969 0.0
C667 C 0.31746 0.5288 0.06049 0.0
C668 C 0.30322 0.53863 0.07625 0.0
C669 C 0.28367 0.53286 0.06405 0.0
N670 N 0.26232 0.4815 0.03964 0.0
C671 C 0.26227 0.44628 0.07492 0.0
C672 C 0.28092 0.45552 0.06792 0.0
C673 C 0.2806 0.47277 0.05034 0.0
C674 C 0.24366 0.45507 0.06344 0.0
C675 C 0.24403 0.47245 0.04622 0.0
N676 N 0.26215 0.53159 0.99095 0.0
C677 C 0.28055 0.55757 0.96588 0.0
C678 C 0.26183 0.56678 0.95564 0.0
C679 C 0.24331 0.55805 0.96379 0.0
C680 C 0.24382 0.54078 0.98129 0.0
C681 C 0.28035 0.54022 0.98323 0.0
H682 H 0.22911 0.5352 0.98678 0.0
H683 H 0.29518 0.53404 0.99009 0.0
H684 H 0.29538 0.47886 0.04575 0.0
H685 H 0.22926 0.47828 0.0384 0.0
C686 C 0.21054 0.50768 0.01225 0.0
C687 C 0.26439 0.54137 0.07368 0.0
C688 C 0.2602 0.46958 0.95962 0.0
C689 C 0.31398 0.50583 0.01781 0.0
H690 H 0.22328 0.55043 0.09011 0.0
H691 H 0.19341 0.53211 0.05629 0.0
H692 H 0.19027 0.48304 0.96718 0.0
H693 H 0.21758 0.46196 0.93846 0.0
H694 H 0.30113 0.46096 0.94224 0.0
H695 H 0.33104 0.48067 0.97443 0.0
H696 H 0.33429 0.52994 0.06349 0.0
H697 H 0.30679 0.54919 0.09433 0.0
H698 H 0.29587 0.44975 0.07625 0.0
H699 H 0.22869 0.44848 0.06735 0.0
H700 H 0.2954 0.56346 0.96018 0.0
H701 H 0.22835 0.56469 0.95705 0.0
C702 C 0.47345 0.28024 0.98077 0.0
C703 C 0.46672 0.29948 0.97115 0.0
C704 C 0.47843 0.31426 0.98652 0.0
C705 C 0.4916 0.30325 0.00452 0.0
N706 N 0.48918 0.28229 1.00136 0.0
Co707 Co 0.50484 0.26039 0.02345 0.0
N708 N 0.52024 0.28217 0.04836 0.0
C709 C 0.51766 0.30311 0.0478 0.0
C710 C 0.53053 0.31405 0.06744 0.0
C711 C 0.54217 0.29923 0.08123 0.0
C712 C 0.53572 0.28005 0.06908 0.0
N713 N 0.521 0.2385 0.04494 0.0
C714 C 0.53682 0.2406 0.06542 0.0
C715 C 0.54453 0.22136 0.07375 0.0
C716 C 0.53336 0.20655 0.0577 0.0
C717 C 0.51957 0.21754 0.04054 0.0
N718 N 0.48891 0.23862 0.99914 0.0
C719 C 0.4907 0.21763 1.00063 0.0
C720 C 0.47686 0.20671 0.98227 0.0
C721 C 0.46525 0.22159 0.96856 0.0
C722 C 0.47276 0.24079 0.97941 0.0
N723 N 0.52707 0.26083 0.99636 0.0
C724 C 0.55993 0.26124 0.95993 0.0
C725 C 0.55003 0.24259 0.96555 0.0
C726 C 0.5338 0.24274 0.98365 0.0
C727 C 0.55288 0.27972 0.97254 0.0
C728 C 0.53654 0.27917 0.99043 0.0
N729 N 0.48261 0.25994 0.05049 0.0
C730 C 0.4599 0.24073 0.07885 0.0
C731 C 0.44928 0.25896 0.086 0.0
C732 C 0.4559 0.27775 0.07558 0.0
C733 C 0.47257 0.27792 0.05822 0.0
C734 C 0.47631 0.24155 0.06113 0.0
H735 H 0.47691 0.29277 0.05113 0.0
H736 H 0.48345 0.22704 0.05603 0.0
H737 H 0.52713 0.22797 0.98727 0.0
H738 H 0.53196 0.29381 0.99932 0.0
C739 C 0.50458 0.3121 0.02673 0.0
C740 C 0.46353 0.26059 0.97106 0.0
C741 C 0.5455 0.26039 0.07693 0.0
C742 C 0.50519 0.20868 0.01999 0.0
H743 H 0.4542 0.30252 0.95529 0.0
H744 H 0.47691 0.33105 0.98553 0.0
H745 H 0.53182 0.33083 0.07065 0.0
H746 H 0.55441 0.30222 0.09785 0.0
H747 H 0.55713 0.21838 0.08953 0.0
H748 H 0.53527 0.18978 0.05819 0.0
H749 H 0.47513 0.18994 0.97959 0.0
H750 H 0.45245 0.21868 0.95273 0.0
H751 H 0.55504 0.22781 0.95652 0.0
H752 H 0.55982 0.29462 0.96852 0.0
H753 H 0.45524 0.22577 0.08631 0.0
H754 H 0.44833 0.29233 0.08092 0.0
C755 C 0.72479 0.54148 0.04799 0.0
C756 C 0.70537 0.54951 0.05344 0.0
C757 C 0.69087 0.53717 0.03838 0.0
C758 C 0.70216 0.52231 0.02467 0.0
N759 N 0.72304 0.52429 0.03016 0.0
Co760 Co 0.74508 0.50607 0.01399 0.0
N761 N 0.72367 0.48809 0.99143 0.0
C762 C 0.7027 0.49028 0.99079 0.0
C763 C 0.69192 0.47551 0.97391 0.0
C764 C 0.70685 0.46301 0.96319 0.0
C765 C 0.72598 0.4709 0.9742 0.0
N766 N 0.76714 0.48798 0.99761 0.0
C767 C 0.7654 0.47095 0.97951 0.0
C768 C 0.78481 0.46305 0.97379 0.0
C769 C 0.79932 0.47541 0.98878 0.0
C770 C 0.78803 0.49012 0.00278 0.0
N771 N 0.7665 0.52391 0.03679 0.0
C772 C 0.78747 0.52156 0.03768 0.0
C773 C 0.79825 0.53616 0.05484 0.0
C774 C 0.78334 0.54867 0.06556 0.0
C775 C 0.76419 0.54094 0.05435 0.0
N776 N 0.74408 0.48722 0.04594 0.0
C777 C 0.74292 0.45614 0.08591 0.0
C778 C 0.76188 0.46448 0.07914 0.0
C779 C 0.76209 0.47991 0.05929 0.0
C780 C 0.72449 0.46462 0.0739 0.0
C781 C 0.72543 0.48018 0.05423 0.0
N782 N 0.74607 0.52489 0.98198 0.0
C783 C 0.76572 0.54739 0.95406 0.0
C784 C 0.74739 0.5545 0.94013 0.0
C785 C 0.72844 0.5459 0.94635 0.0
C786 C 0.72814 0.53122 0.96731 0.0
C787 C 0.76472 0.53253 0.97458 0.0
H788 H 0.7132 0.52561 0.97165 0.0
H789 H 0.77921 0.52779 0.98446 0.0
H790 H 0.77703 0.48526 0.0546 0.0
H791 H 0.7109 0.4858 0.04546 0.0
C792 C 0.69362 0.50636 0.00644 0.0
C793 C 0.74435 0.55072 0.06047 0.0
C794 C 0.74584 0.46141 0.96762 0.0
C795 C 0.79657 0.50579 0.0215 0.0
H796 H 0.70203 0.56292 0.06691 0.0
H797 H 0.67409 0.53888 0.03747 0.0
H798 H 0.67518 0.47395 0.96996 0.0
H799 H 0.704 0.44955 0.94893 0.0
H800 H 0.78812 0.4496 0.96037 0.0
H801 H 0.81611 0.47374 0.98962 0.0
H802 H 0.81499 0.53768 0.05881 0.0
H803 H 0.78626 0.56214 0.07978 0.0
H804 H 0.77655 0.45878 0.0886 0.0
H805 H 0.70941 0.4587 0.07865 0.0
H806 H 0.78077 0.5535 0.94942 0.0
H807 H 0.71387 0.55107 0.93592 0.0
H808 H 0.14784 0.23761 0.32815 0.0
H809 H 0.18712 0.25762 0.40212 0.0
H810 H 0.11757 0.23826 0.3563 0.0
H811 H 0.15692 0.25802 0.43041 0.0
H812 H 0.09559 0.27716 0.46616 0.0
H813 H 0.12544 0.27689 0.43734 0.0
H814 H 0.10205 0.22052 0.39308 0.0
H815 H 0.07165 0.22142 0.42085 0.0
C816 C 0.15005 0.24193 0.35051 0.0
C817 C 0.1699 0.24757 0.36288 0.0
C818 C 0.13269 0.24228 0.36668 0.0
C819 C 0.13475 0.24821 0.39567 0.0
C820 C 0.15465 0.25374 0.40806 0.0
C821 C 0.17199 0.25347 0.39185 0.0
C822 C 0.09665 0.26486 0.45002 0.0
C823 C 0.08114 0.24933 0.44585 0.0
C824 C 0.11394 0.26454 0.43373 0.0
C825 C 0.11624 0.24864 0.4129 0.0
C826 C 0.10072 0.23313 0.4087 0.0
C827 C 0.08338 0.2335 0.42491 0.0
H828 H 0.77349 0.14559 0.31303 0.0
H829 H 0.76796 0.18145 0.39118 0.0
H830 H 0.77205 0.11327 0.33861 0.0
H831 H 0.7668 0.14923 0.41684 0.0
H832 H 0.73744 0.0905 0.44539 0.0
H833 H 0.741 0.12159 0.41835 0.0
H834 H 0.7907 0.09223 0.3748 0.0
H835 H 0.78645 0.06055 0.40102 0.0
C836 C 0.77238 0.14652 0.33576 0.0
C837 C 0.77066 0.16591 0.35019 0.0
C838 C 0.77155 0.12806 0.35037 0.0
C839 C 0.76904 0.12879 0.37961 0.0
C840 C 0.76826 0.14824 0.39418 0.0
C841 C 0.769 0.16664 0.37957 0.0
C842 C 0.74884 0.09048 0.42964 0.0
C843 C 0.76162 0.07307 0.42523 0.0
C844 C 0.75112 0.10842 0.4145 0.0
C845 C 0.76633 0.10939 0.39478 0.0
C846 C 0.77883 0.09185 0.38986 0.0
C847 C 0.7765 0.07382 0.40499 0.0
H848 H 0.86206 0.77492 0.32201 0.0
H849 H 0.83155 0.75112 0.39256 0.0
H850 H 0.8953 0.7752 0.35034 0.0
H851 H 0.86493 0.75056 0.42048 0.0
H852 H 0.92453 0.77267 0.47186 0.0
H853 H 0.89099 0.77381 0.44386 0.0
H854 H 0.92083 0.75086 0.36993 0.0
H855 H 0.95438 0.75033 0.39804 0.0
C856 C 0.86241 0.76984 0.34361 0.0
C857 C 0.84412 0.76301 0.35502 0.0
C858 C 0.88153 0.76975 0.35973 0.0
C859 C 0.88281 0.76282 0.38765 0.0
C860 C 0.86448 0.75618 0.39914 0.0
C861 C 0.84537 0.75628 0.38303 0.0
C862 C 0.92376 0.76789 0.44961 0.0
C863 C 0.9418 0.7613 0.43698 0.0
C864 C 0.90463 0.76842 0.43362 0.0
C865 C 0.9032 0.76238 0.40465 0.0
C866 C 0.92141 0.75585 0.39208 0.0
C867 C 0.94055 0.75536 0.40811 0.0
H868 H 0.21006 0.86166 0.30809 0.0
H869 H 0.27414 0.84568 0.33094 0.0
H870 H 0.2139 0.89349 0.3382 0.0
H871 H 0.27846 0.87783 0.35987 0.0
H872 H 0.26988 0.91943 0.43785 0.0
H873 H 0.26744 0.89008 0.40383 0.0
H874 H 0.2297 0.92718 0.34524 0.0
H875 H 0.23159 0.95641 0.38006 0.0
C876 C 0.22503 0.86524 0.31924 0.0
C877 C 0.24174 0.85131 0.31771 0.0
C878 C 0.22731 0.88346 0.33629 0.0
C879 C 0.24645 0.88808 0.35164 0.0
C880 C 0.26339 0.87448 0.34889 0.0
C881 C 0.26098 0.85616 0.33229 0.0
C882 C 0.26131 0.92136 0.41753 0.0
C883 C 0.25099 0.9401 0.41141 0.0
C884 C 0.25995 0.90459 0.39798 0.0
C885 C 0.24847 0.90633 0.37173 0.0
C886 C 0.23844 0.92528 0.36541 0.0
C887 C 0.23959 0.942 0.3852 0.0
H888 H 0.1449 0.79147 0.68766 0.0
H889 H 0.17082 0.74322 0.63474 0.0
H890 H 0.11228 0.78971 0.65789 0.0
H891 H 0.13819 0.74134 0.60508 0.0
H892 H 0.08423 0.75927 0.54167 0.0
H893 H 0.11716 0.76113 0.5712 0.0
H894 H 0.08274 0.76674 0.64623 0.0
H895 H 0.04993 0.76534 0.61635 0.0
C896 C 0.14358 0.7804 0.66977 0.0
C897 C 0.16047 0.76751 0.66356 0.0
C898 C 0.12487 0.77935 0.65273 0.0
C899 C 0.12258 0.76535 0.62911 0.0
C900 C 0.13952 0.75253 0.62284 0.0
C901 C 0.15824 0.75361 0.63984 0.0
C902 C 0.08388 0.76084 0.5645 0.0
C903 C 0.0648 0.76217 0.57695 0.0
C904 C 0.10264 0.76181 0.58142 0.0
C905 C 0.10261 0.76411 0.61111 0.0
C906 C 0.08334 0.76528 0.62344 0.0
C907 C 0.0646 0.76433 0.60648 0.0
H908 H 0.21125 0.16352 0.68495 0.0
H909 H 0.27829 0.16337 0.70154 0.0
H910 H 0.21328 0.13065 0.65742 0.0
H911 H 0.28028 0.13075 0.67386 0.0
H912 H 0.27533 0.0898 0.59153 0.0
H913 H 0.27366 0.1207 0.62262 0.0
H914 H 0.22334 0.09292 0.66401 0.0
H915 H 0.22519 0.06167 0.6331 0.0
C916 C 0.22636 0.15638 0.68288 0.0
C917 C 0.24463 0.16607 0.6951 0.0
C918 C 0.22751 0.1376 0.66722 0.0
C919 C 0.24694 0.12829 0.66352 0.0
C920 C 0.26515 0.13781 0.6761 0.0
C921 C 0.264 0.1565 0.6918 0.0
C922 C 0.2642 0.09006 0.60764 0.0
C923 C 0.25046 0.07327 0.60999 0.0
C924 C 0.2632 0.10778 0.62534 0.0
C925 C 0.24837 0.10912 0.64564 0.0
C926 C 0.23476 0.0923 0.64828 0.0
C927 C 0.23583 0.07447 0.63064 0.0
H928 H 0.84448 0.28503 0.68413 0.0
H929 H 0.83838 0.21814 0.67102 0.0
H930 H 0.87467 0.2847 0.65599 0.0
H931 H 0.86926 0.21767 0.64411 0.0
H932 H 0.91136 0.22734 0.57192 0.0
H933 H 0.88087 0.22765 0.5996 0.0
H934 H 0.91045 0.27423 0.65755 0.0
H935 H 0.94084 0.27407 0.62961 0.0
C936 C 0.84954 0.27024 0.67522 0.0
C937 C 0.8389 0.25162 0.6798 0.0
C938 C 0.86707 0.27002 0.65938 0.0
C939 C 0.87449 0.25116 0.64779 0.0
C940 C 0.86387 0.23252 0.65243 0.0
C941 C 0.8463 0.23276 0.66819 0.0
C942 C 0.91142 0.23753 0.5907 0.0
C943 C 0.92855 0.25067 0.59856 0.0
C944 C 0.89393 0.23769 0.60661 0.0
C945 C 0.89316 0.25095 0.63087 0.0
C946 C 0.91034 0.26406 0.63875 0.0
C947 C 0.92779 0.26396 0.62276 0.0
H948 H 0.72876 0.84408 0.67595 0.0
H949 H 0.79174 0.86148 0.70525 0.0
H950 H 0.72492 0.87632 0.65039 0.0
H951 H 0.78844 0.89339 0.67855 0.0
H952 H 0.77107 0.95647 0.64419 0.0
H953 H 0.77222 0.92662 0.67498 0.0
H954 H 0.73706 0.88999 0.60923 0.0
H955 H 0.73528 0.91998 0.57925 0.0
C956 C 0.74181 0.85485 0.67667 0.0
C957 C 0.76058 0.85042 0.6922 0.0
C958 C 0.73968 0.87323 0.66201 0.0
C959 C 0.75644 0.88733 0.6622 0.0
C960 C 0.77513 0.883 0.67827 0.0
C961 C 0.77712 0.86473 0.69336 0.0
C962 C 0.76343 0.94204 0.63663 0.0
C963 C 0.75296 0.94044 0.60958 0.0
C964 C 0.76418 0.92495 0.6541 0.0
C965 C 0.75472 0.90593 0.64457 0.0
C966 C 0.7441 0.90452 0.61751 0.0
C967 C 0.74312 0.92165 0.60028 0.0
H968 H 0.84851 0.72493 0.67256 0.0
H969 H 0.84436 0.79215 0.67055 0.0
H970 H 0.87822 0.72554 0.64345 0.0
H971 H 0.87402 0.79278 0.64132 0.0
H972 H 0.94076 0.78754 0.61387 0.0
H973 H 0.91124 0.78695 0.64336 0.0
H974 H 0.88686 0.73228 0.59592 0.0
H975 H 0.9164 0.73283 0.56655 0.0
C976 C 0.85381 0.73983 0.66567 0.0
C977 C 0.84402 0.75849 0.67388 0.0
C978 C 0.87085 0.74019 0.64896 0.0
C979 C 0.87854 0.75921 0.63999 0.0
C980 C 0.86874 0.77787 0.6482 0.0
C981 C 0.85171 0.77751 0.66495 0.0
C982 C 0.92903 0.77547 0.60961 0.0
C983 C 0.931 0.76021 0.58786 0.0
C984 C 0.91208 0.77514 0.62651 0.0
C985 C 0.89664 0.75956 0.62206 0.0
C986 C 0.89862 0.74431 0.60029 0.0
C987 C 0.91558 0.74462 0.58343 0.0
H988 H 0.24026 0.87398 0.69345 0.0
H989 H 0.26273 0.83612 0.62484 0.0
H990 H 0.23933 0.90433 0.66379 0.0
H991 H 0.26251 0.86664 0.59551 0.0
H992 H 0.2402 0.92105 0.54013 0.0
H993 H 0.2401 0.8904 0.56965 0.0
H994 H 0.26116 0.92901 0.64293 0.0
H995 H 0.26082 0.95958 0.61326 0.0
C996 C 0.24495 0.87204 0.67202 0.0
C997 C 0.25155 0.85238 0.66174 0.0
C998 C 0.24466 0.88961 0.65502 0.0
C999 C 0.25087 0.88816 0.62707 0.0
C1000 C 0.25738 0.86848 0.61674 0.0
C1001 C 0.25775 0.85093 0.63378 0.0
C1002 C 0.24473 0.9229 0.56258 0.0
C1003 C 0.25049 0.94269 0.5744 0.0
C1004 C 0.24483 0.90532 0.57954 0.0
C1005 C 0.25065 0.90703 0.60887 0.0
C1006 C 0.25632 0.92697 0.62061 0.0
C1007 C 0.25626 0.94452 0.60361 0.0
H1008 H 0.16639 0.23015 0.66293 0.0
H1009 H 0.13635 0.2725 0.7202 0.0
H1010 H 0.13493 0.22942 0.63084 0.0
H1011 H 0.10484 0.27164 0.68815 0.0
H1012 H 0.04529 0.24786 0.63685 0.0
H1013 H 0.0766 0.24792 0.66979 0.0
H1014 H 0.11508 0.25275 0.59915 0.0
H1015 H 0.08369 0.25238 0.56647 0.0
C1016 C 0.15313 0.23941 0.6686 0.0
C1017 C 0.15393 0.25142 0.69413 0.0
C1018 C 0.13509 0.23898 0.6502 0.0
C1019 C 0.11739 0.2505 0.65691 0.0
C1020 C 0.11811 0.26237 0.68255 0.0
C1021 C 0.13617 0.26284 0.70092 0.0
C1022 C 0.06051 0.24889 0.62859 0.0
C1023 C 0.06231 0.25005 0.59938 0.0
C1024 C 0.07839 0.24904 0.64732 0.0
C1025 C 0.09834 0.25031 0.63707 0.0
C1026 C 0.09998 0.25147 0.60769 0.0
C1027 C 0.0821 0.25137 0.58902 0.0
H1028 H 0.77778 0.17384 0.64653 0.0
H1029 H 0.73116 0.1454 0.6939 0.0
H1030 H 0.77839 0.14258 0.61566 0.0
H1031 H 0.73147 0.11427 0.66282 0.0
H1032 H 0.75041 0.05309 0.61881 0.0
H1033 H 0.75039 0.08436 0.65016 0.0
H1034 H 0.76022 0.12265 0.57898 0.0
H1035 H 0.76089 0.09114 0.54814 0.0
C1036 C 0.76748 0.16101 0.65024 0.0
C1037 C 0.75444 0.1623 0.67289 0.0
C1038 C 0.76779 0.14299 0.63241 0.0
C1039 C 0.75498 0.12564 0.63649 0.0
C1040 C 0.74189 0.12699 0.65912 0.0
C1041 C 0.74167 0.14497 0.67704 0.0
C1042 C 0.75259 0.06825 0.61003 0.0
C1043 C 0.75566 0.06974 0.58113 0.0
C1044 C 0.75244 0.08625 0.62791 0.0
C1045 C 0.75526 0.10629 0.61733 0.0
C1046 C 0.75831 0.10762 0.58822 0.0
C1047 C 0.75855 0.08959 0.5704 0.0
H1048 H 0.8697 0.23052 0.32929 0.0
H1049 H 0.84355 0.2749 0.3877 0.0
H1050 H 0.90175 0.22943 0.36023 0.0
H1051 H 0.87556 0.27386 0.41855 0.0
H1052 H 0.92666 0.24985 0.48128 0.0
H1053 H 0.89467 0.25031 0.44984 0.0
H1054 H 0.93169 0.25091 0.37722 0.0
H1055 H 0.96359 0.25002 0.40897 0.0
C1056 C 0.87086 0.24019 0.3486 0.0
C1057 C 0.85404 0.25274 0.35607 0.0
C1058 C 0.88923 0.23956 0.36633 0.0
C1059 C 0.8912 0.2515 0.39193 0.0
C1060 C 0.87442 0.26417 0.39926 0.0
C1061 C 0.85607 0.26478 0.38156 0.0
C1062 C 0.92779 0.25001 0.45857 0.0
C1063 C 0.94734 0.24988 0.44731 0.0
C1064 C 0.90958 0.25041 0.44058 0.0
C1065 C 0.91062 0.25072 0.411 0.0
C1066 C 0.93033 0.25044 0.39985 0.0
C1067 C 0.94855 0.25004 0.4179 0.0
H1068 H 0.7801 0.83893 0.38655 0.0
H1069 H 0.72969 0.86538 0.33426 0.0
H1070 H 0.78105 0.87015 0.41767 0.0
H1071 H 0.73043 0.89647 0.36548 0.0
H1072 H 0.74924 0.95834 0.4116 0.0
H1073 H 0.7491 0.92715 0.38012 0.0
H1074 H 0.7637 0.88922 0.45257 0.0
H1075 H 0.76437 0.92066 0.48366 0.0
C1076 C 0.76906 0.8513 0.38178 0.0
C1077 C 0.75485 0.84948 0.35769 0.0
C1078 C 0.76958 0.8693 0.39974 0.0
C1079 C 0.75584 0.88609 0.39431 0.0
C1080 C 0.74158 0.8842 0.37025 0.0
C1081 C 0.74112 0.86624 0.35225 0.0
C1082 C 0.75247 0.94329 0.42065 0.0
C1083 C 0.75684 0.9419 0.45002 0.0
C1084 C 0.75225 0.92533 0.40267 0.0
C1085 C 0.75633 0.90541 0.41358 0.0
C1086 C 0.76078 0.90417 0.44313 0.0
C1087 C 0.76105 0.92217 0.46106 0.0
H1088 H 0.13592 0.76089 0.29768 0.0
H1089 H 0.17961 0.75716 0.37111 0.0
H1090 H 0.10702 0.76211 0.32842 0.0
H1091 H 0.15068 0.75795 0.40181 0.0
H1092 H 0.095 0.78303 0.44847 0.0
H1093 H 0.12372 0.78259 0.41742 0.0
H1094 H 0.08957 0.73876 0.36 0.0
H1095 H 0.06068 0.73953 0.39076 0.0
C1096 C 0.13935 0.7604 0.32039 0.0
C1097 C 0.16006 0.75895 0.33196 0.0
C1098 C 0.12279 0.7609 0.33798 0.0
C1099 C 0.12655 0.76011 0.36755 0.0
C1100 C 0.14727 0.75877 0.37913 0.0
C1101 C 0.16383 0.75811 0.36153 0.0
C1102 C 0.09355 0.77345 0.42909 0.0
C1103 C 0.07555 0.76134 0.42206 0.0
C1104 C 0.11008 0.77304 0.41145 0.0
C1105 C 0.10893 0.76062 0.38626 0.0
C1106 C 0.09087 0.74862 0.37913 0.0
C1107 C 0.0744 0.74891 0.39688 0.0
H1108 H 0.27695 0.14117 0.34221 0.0
H1109 H 0.23022 0.17073 0.39086 0.0
H1110 H 0.27661 0.11085 0.37171 0.0
H1111 H 0.22951 0.14025 0.42009 0.0
H1112 H 0.24611 0.09037 0.48491 0.0
H1113 H 0.24692 0.12111 0.45577 0.0
H1114 H 0.25831 0.08113 0.38298 0.0
H1115 H 0.25821 0.05066 0.41269 0.0
C1116 C 0.2664 0.14115 0.35901 0.0
C1117 C 0.25361 0.15858 0.36397 0.0
C1118 C 0.26615 0.12363 0.37602 0.0
C1119 C 0.253 0.12279 0.39854 0.0
C1120 C 0.24018 0.14024 0.40343 0.0
C1121 C 0.24053 0.15783 0.38653 0.0
C1122 C 0.24882 0.08828 0.46267 0.0
C1123 C 0.25214 0.06817 0.45106 0.0
C1124 C 0.24914 0.10588 0.4458 0.0
C1125 C 0.25267 0.10389 0.41672 0.0
C1126 C 0.2559 0.08358 0.40524 0.0
C1127 C 0.2557 0.06601 0.42219 0.0
H1128 H 0.68766 0.75367 0.89027 0.0
H1129 H 0.64768 0.74944 0.81286 0.0
H1130 H 0.657 0.75357 0.91789 0.0
H1131 H 0.61706 0.74896 0.84046 0.0
H1132 H 0.56747 0.77246 0.89959 0.0
H1133 H 0.59823 0.77298 0.87221 0.0
H1134 H 0.62879 0.72903 0.92842 0.0
H1135 H 0.59817 0.72878 0.95608 0.0
C1136 C 0.67233 0.75276 0.87917 0.0
C1137 C 0.6701 0.75155 0.84939 0.0
C1138 C 0.65478 0.75251 0.89498 0.0
C1139 C 0.6346 0.75124 0.88136 0.0
C1140 C 0.63238 0.75013 0.85158 0.0
C1141 C 0.64993 0.75019 0.83578 0.0
C1142 C 0.58081 0.76301 0.90618 0.0
C1143 C 0.58038 0.75056 0.92999 0.0
C1144 C 0.59835 0.76317 0.89036 0.0
C1145 C 0.61594 0.75104 0.89814 0.0
C1146 C 0.61555 0.73868 0.92203 0.0
C1147 C 0.59794 0.73837 0.93769 0.0
H1148 H 0.29331 0.67247 0.85241 0.0
H1149 H 0.22598 0.67025 0.84515 0.0
H1150 H 0.2941 0.64227 0.88222 0.0
H1151 H 0.22675 0.64084 0.87623 0.0
H1152 H 0.23422 0.57523 0.91013 0.0
H1153 H 0.23372 0.60497 0.87952 0.0
H1154 H 0.2883 0.6303 0.92749 0.0
H1155 H 0.2889 0.60038 0.95789 0.0
C1156 C 0.27862 0.6656 0.85708 0.0
C1157 C 0.25957 0.67404 0.84607 0.0
C1158 C 0.27907 0.64834 0.87464 0.0
C1159 C 0.26049 0.63887 0.88194 0.0
C1160 C 0.24146 0.64734 0.87097 0.0
C1161 C 0.24101 0.66455 0.85334 0.0
C1162 C 0.24605 0.5872 0.91436 0.0
C1163 C 0.26159 0.58522 0.93671 0.0
C1164 C 0.24575 0.60439 0.89672 0.0
C1165 C 0.26094 0.62032 0.9008 0.0
C1166 C 0.2765 0.61832 0.92315 0.0
C1167 C 0.27684 0.60107 0.94074 0.0
H1168 H 0.33585 0.23924 0.9021 0.0
H1169 H 0.35979 0.28555 0.84882 0.0
H1170 H 0.36926 0.23885 0.93005 0.0
H1171 H 0.39317 0.28526 0.87684 0.0
H1172 H 0.45666 0.26225 0.91385 0.0
H1173 H 0.42298 0.26267 0.88601 0.0
H1174 H 0.39127 0.26025 0.96329 0.0
H1175 H 0.42507 0.25939 0.99076 0.0
C1176 C 0.34817 0.24952 0.89657 0.0
C1177 C 0.34517 0.2624 0.87322 0.0
C1178 C 0.36733 0.2493 0.91258 0.0
C1179 C 0.38393 0.26198 0.90565 0.0
C1180 C 0.38084 0.27502 0.88246 0.0
C1181 C 0.3617 0.27521 0.86643 0.0
C1182 C 0.4424 0.26178 0.92466 0.0
C1183 C 0.4432 0.26078 0.95421 0.0
C1184 C 0.42316 0.26215 0.90887 0.0
C1185 C 0.40441 0.26154 0.92243 0.0
C1186 C 0.40538 0.26048 0.95215 0.0
C1187 C 0.42464 0.2601 0.96789 0.0
H1188 H 0.77038 0.36583 0.83666 0.0
H1189 H 0.72423 0.33749 0.88492 0.0
H1190 H 0.77011 0.39714 0.86742 0.0
H1191 H 0.72367 0.36892 0.91548 0.0
H1192 H 0.74133 0.42087 0.9822 0.0
H1193 H 0.74203 0.38917 0.95175 0.0
H1194 H 0.75101 0.42701 0.87985 0.0
H1195 H 0.75095 0.45848 0.91081 0.0
C1196 C 0.75998 0.36632 0.85366 0.0
C1197 C 0.74732 0.34898 0.85814 0.0
C1198 C 0.75979 0.38439 0.87138 0.0
C1199 C 0.74684 0.38583 0.89416 0.0
C1200 C 0.73416 0.36846 0.8986 0.0
C1201 C 0.73444 0.35034 0.88095 0.0
C1202 C 0.74349 0.42228 0.95988 0.0
C1203 C 0.74613 0.44206 0.94883 0.0
C1204 C 0.74375 0.40413 0.94229 0.0
C1205 C 0.74657 0.40528 0.91308 0.0
C1206 C 0.74915 0.42527 0.90218 0.0
C1207 C 0.74897 0.44338 0.91984 0.0
H1208 H 0.64567 0.23701 0.20517 0.0
H1209 H 0.67071 0.28396 0.15381 0.0
H1210 H 0.6129 0.23734 0.17579 0.0
H1211 H 0.63793 0.28428 0.12442 0.0
H1212 H 0.5848 0.26203 0.06008 0.0
H1213 H 0.61762 0.26204 0.08988 0.0
H1214 H 0.5829 0.25957 0.16453 0.0
H1215 H 0.55019 0.25917 0.13438 0.0
C1216 C 0.64411 0.24756 0.18778 0.0
C1217 C 0.66082 0.26045 0.18184 0.0
C1218 C 0.62532 0.24775 0.17094 0.0
C1219 C 0.62279 0.26083 0.14774 0.0
C1220 C 0.63947 0.27378 0.14186 0.0
C1221 C 0.65826 0.2736 0.1587 0.0
C1222 C 0.58436 0.2615 0.08288 0.0
C1223 C 0.56523 0.26059 0.09516 0.0
C1224 C 0.60305 0.26163 0.09995 0.0
C1225 C 0.60289 0.26084 0.12961 0.0
C1226 C 0.58358 0.25994 0.14177 0.0
C1227 C 0.5649 0.25983 0.12465 0.0
H1228 H 0.75951 0.67738 0.13585 0.0
H1229 H 0.7294 0.64337 0.19866 0.0
H1230 H 0.75897 0.64603 0.10505 0.0
H1231 H 0.72917 0.61199 0.16798 0.0
H1232 H 0.75192 0.55412 0.11809 0.0
H1233 H 0.75199 0.58573 0.14892 0.0
H1234 H 0.73602 0.62257 0.07586 0.0
H1235 H 0.73624 0.59085 0.04523 0.0
C1236 C 0.75257 0.66334 0.1431 0.0
C1237 C 0.74452 0.66316 0.17 0.0
C1238 C 0.7523 0.64525 0.12533 0.0
C1239 C 0.74407 0.6263 0.13389 0.0
C1240 C 0.73597 0.62611 0.16074 0.0
C1241 C 0.73614 0.64422 0.17844 0.0
C1242 C 0.74841 0.56901 0.10875 0.0
C1243 C 0.74409 0.57007 0.07932 0.0
C1244 C 0.74833 0.58714 0.12638 0.0
C1245 C 0.744 0.60686 0.11502 0.0
C1246 C 0.73967 0.6078 0.08544 0.0
C1247 C 0.73966 0.58963 0.06786 0.0
H1248 H 0.33814 0.78495 0.15736 0.0
H1249 H 0.337 0.71749 0.15415 0.0
H1250 H 0.36911 0.78444 0.1305 0.0
H1251 H 0.36836 0.71698 0.12805 0.0
H1252 H 0.41039 0.72508 0.05464 0.0
H1253 H 0.37945 0.72535 0.08145 0.0
H1254 H 0.4061 0.77535 0.1362 0.0
H1255 H 0.43714 0.77499 0.10956 0.0
C1256 C 0.34447 0.77 0.15085 0.0
C1257 C 0.33506 0.75126 0.15787 0.0
C1258 C 0.36236 0.76972 0.13574 0.0
C1259 C 0.37125 0.75067 0.12715 0.0
C1260 C 0.36181 0.73192 0.1341 0.0
C1261 C 0.34396 0.73221 0.14932 0.0
C1262 C 0.40979 0.73597 0.0726 0.0
C1263 C 0.42632 0.75 0.07992 0.0
C1264 C 0.39201 0.73614 0.08796 0.0
C1265 C 0.39027 0.75038 0.11097 0.0
C1266 C 0.40679 0.76439 0.11833 0.0
C1267 C 0.4246 0.76418 0.10302 0.0
H1268 H 0.27767 0.32351 0.15219 0.0
H1269 H 0.24438 0.36034 0.21235 0.0
H1270 H 0.27751 0.35292 0.12129 0.0
H1271 H 0.24568 0.39022 0.18251 0.0
H1272 H 0.23308 0.43582 0.11228 0.0
H1273 H 0.23239 0.40578 0.14188 0.0
H1274 H 0.29134 0.38519 0.1126 0.0
H1275 H 0.29121 0.41436 0.08128 0.0
C1276 C 0.27029 0.33783 0.15899 0.0
C1277 C 0.26096 0.33919 0.18505 0.0
C1278 C 0.27052 0.35498 0.1413 0.0
C1279 C 0.26162 0.3743 0.14908 0.0
C1280 C 0.25245 0.3757 0.17526 0.0
C1281 C 0.25202 0.35848 0.19279 0.0
C1282 C 0.24578 0.42477 0.11164 0.0
C1283 C 0.26216 0.42781 0.09394 0.0
C1284 C 0.24556 0.40755 0.12919 0.0
C1285 C 0.26184 0.39276 0.13006 0.0
C1286 C 0.27829 0.39587 0.11249 0.0
C1287 C 0.27839 0.41298 0.09469 0.0
H1288 H 0.32581 0.24832 0.14804 0.0
H1289 H 0.36648 0.26002 0.22368 0.0
H1290 H 0.3558 0.24974 0.11921 0.0
H1291 H 0.39645 0.26158 0.19484 0.0
H1292 H 0.44628 0.2383 0.13507 0.0
H1293 H 0.41634 0.23686 0.16399 0.0
H1294 H 0.38165 0.27677 0.10607 0.0
H1295 H 0.41153 0.27809 0.07705 0.0
C1296 C 0.34117 0.25113 0.15848 0.0
C1297 C 0.34381 0.25406 0.1881 0.0
C1298 C 0.3583 0.25211 0.14198 0.0
C1299 C 0.37846 0.25578 0.15478 0.0
C1300 C 0.38111 0.25858 0.18441 0.0
C1301 C 0.36396 0.25785 0.20088 0.0
C1302 C 0.43223 0.2467 0.1285 0.0
C1303 C 0.43124 0.25832 0.10383 0.0
C1304 C 0.41516 0.24601 0.14515 0.0
C1305 C 0.39666 0.2567 0.13728 0.0
C1306 C 0.39565 0.26825 0.11254 0.0
C1307 C 0.4128 0.26915 0.09609 0.0
H1308 H 0.74568 0.32996 0.14315 0.0
H1309 H 0.73838 0.36732 0.21962 0.0
H1310 H 0.74364 0.36138 0.11559 0.0
H1311 H 0.73655 0.39885 0.19208 0.0
H1312 H 0.71686 0.44863 0.12769 0.0
H1313 H 0.71532 0.4171 0.15508 0.0
H1314 H 0.76682 0.39107 0.11183 0.0
H1315 H 0.76777 0.42196 0.08377 0.0
C1316 C 0.74363 0.34492 0.154 0.0
C1317 C 0.74236 0.34632 0.18346 0.0
C1318 C 0.74249 0.36287 0.13829 0.0
C1319 C 0.74016 0.38254 0.15179 0.0
C1320 C 0.73817 0.38386 0.18113 0.0
C1321 C 0.73924 0.36586 0.19686 0.0
C1322 C 0.72775 0.43608 0.12401 0.0
C1323 C 0.74248 0.43775 0.10371 0.0
C1324 C 0.72697 0.41816 0.13978 0.0
C1325 C 0.74086 0.40163 0.13541 0.0
C1326 C 0.7557 0.40343 0.11532 0.0
C1327 C 0.75646 0.42126 0.09958 0.0
H1328 H 0.67061 0.7616 0.13222 0.0
H1329 H 0.63754 0.7376 0.20036 0.0
H1330 H 0.63827 0.76155 0.10198 0.0
H1331 H 0.60534 0.7367 0.1697 0.0
H1332 H 0.54772 0.76064 0.11733 0.0
H1333 H 0.58014 0.76046 0.14798 0.0
H1334 H 0.61347 0.73786 0.07694 0.0
H1335 H 0.58107 0.73865 0.0464 0.0
C1336 C 0.65645 0.75628 0.14074 0.0
C1337 C 0.65668 0.74966 0.16876 0.0
C1338 C 0.63793 0.75602 0.12329 0.0
C1339 C 0.61919 0.74912 0.1334 0.0
C1340 C 0.61945 0.74234 0.16134 0.0
C1341 C 0.63797 0.7426 0.1788 0.0
C1342 C 0.56207 0.75573 0.10845 0.0
C1343 C 0.56213 0.74982 0.07966 0.0
C1344 C 0.58057 0.75545 0.12593 0.0
C1345 C 0.59943 0.74916 0.11491 0.0
C1346 C 0.59931 0.74308 0.08603 0.0
C1347 C 0.58082 0.7434 0.06858 0.0
H1348 H 0.24304 0.63926 0.19772 0.0
H1349 H 0.28446 0.66737 0.142 0.0
H1350 H 0.24555 0.60595 0.1716 0.0
H1351 H 0.28698 0.63404 0.11587 0.0
H1352 H 0.26154 0.58058 0.05538 0.0
H1353 H 0.26235 0.61311 0.08416 0.0
H1354 H 0.27017 0.57769 0.16026 0.0
H1355 H 0.26897 0.54514 0.13111 0.0
C1356 C 0.25297 0.6382 0.1802 0.0
C1357 C 0.26347 0.65587 0.17173 0.0
C1358 C 0.2544 0.61916 0.16528 0.0
C1359 C 0.26635 0.6175 0.14165 0.0
C1360 C 0.27738 0.63501 0.13374 0.0
C1361 C 0.27594 0.65404 0.14865 0.0
C1362 C 0.26346 0.57993 0.07827 0.0
C1363 C 0.26518 0.56072 0.09134 0.0
C1364 C 0.26409 0.59841 0.09469 0.0
C1365 C 0.26644 0.59787 0.12441 0.0
C1366 C 0.26821 0.5785 0.1374 0.0
C1367 C 0.2676 0.55999 0.1209 0.0
H1368 H 0.33882 0.73233 0.87119 0.0
H1369 H 0.36892 0.77261 0.81527 0.0
H1370 H 0.37109 0.73078 0.90156 0.0
H1371 H 0.40119 0.77093 0.84553 0.0
H1372 H 0.461 0.74615 0.89177 0.0
H1373 H 0.42879 0.74639 0.86056 0.0
H1374 H 0.39284 0.75391 0.93392 0.0
H1375 H 0.42511 0.75335 0.96485 0.0
C1376 C 0.35228 0.74095 0.86545 0.0
C1377 C 0.35126 0.75262 0.8408 0.0
C1378 C 0.37077 0.74005 0.88285 0.0
C1379 C 0.38871 0.75075 0.87597 0.0
C1380 C 0.38775 0.76226 0.85121 0.0
C1381 C 0.36924 0.76321 0.83385 0.0
C1382 C 0.44613 0.74778 0.901 0.0
C1383 C 0.44529 0.74968 0.93047 0.0
C1384 C 0.42775 0.74804 0.88327 0.0
C1385 C 0.40825 0.75016 0.89477 0.0
C1386 C 0.40757 0.75197 0.92441 0.0
C1387 C 0.42595 0.75178 0.94209 0.0
H1388 H 0.28814 0.34582 0.89323 0.0
H1389 H 0.22405 0.35686 0.86361 0.0
H1390 H 0.28952 0.38018 0.91776 0.0
H1391 H 0.22542 0.39114 0.88812 0.0
H1392 H 0.24756 0.45982 0.90464 0.0
H1393 H 0.24626 0.42498 0.88125 0.0
H1394 H 0.27123 0.39829 0.9591 0.0
H1395 H 0.27214 0.43311 0.98248 0.0
C1396 C 0.27437 0.35559 0.89213 0.0
C1397 C 0.25599 0.34882 0.87669 0.0
C1398 C 0.27513 0.37511 0.90619 0.0
C1399 C 0.25759 0.38819 0.90461 0.0
C1400 C 0.23917 0.38133 0.88938 0.0
C1401 C 0.23833 0.36173 0.87564 0.0
C1402 C 0.25261 0.44641 0.91661 0.0
C1403 C 0.25968 0.4488 0.94523 0.0
C1404 C 0.25187 0.42661 0.90338 0.0
C1405 C 0.25856 0.40909 0.91853 0.0
C1406 C 0.26608 0.41162 0.94704 0.0
C1407 C 0.26655 0.43139 0.96035 0.0
H1408 H 0.6656 0.29321 0.86372 0.0
H1409 H 0.65779 0.22656 0.84971 0.0
H1410 H 0.63567 0.29405 0.89249 0.0
H1411 H 0.62852 0.22724 0.87954 0.0
H1412 H 0.56376 0.2389 0.91011 0.0
H1413 H 0.59296 0.23873 0.88006 0.0
H1414 H 0.62549 0.28355 0.93782 0.0
H1415 H 0.59621 0.28381 0.96773 0.0
C1416 C 0.65749 0.27873 0.86672 0.0
C1417 C 0.66414 0.25982 0.85435 0.0
C1418 C 0.64047 0.27917 0.88353 0.0
C1419 C 0.62966 0.26071 0.88841 0.0
C1420 C 0.6363 0.24181 0.87599 0.0
C1421 C 0.65329 0.24137 0.85916 0.0
C1422 C 0.5772 0.24863 0.91647 0.0
C1423 C 0.57763 0.26137 0.94134 0.0
C1424 C 0.59397 0.24852 0.89925 0.0
C1425 C 0.61163 0.2611 0.9065 0.0
C1426 C 0.61202 0.27391 0.93132 0.0
C1427 C 0.59522 0.27406 0.9485 0.0
H1428 H 0.71773 0.65155 0.8207 0.0
H1429 H 0.78181 0.663 0.85095 0.0
H1430 H 0.71728 0.6203 0.84881 0.0
H1431 H 0.78188 0.63137 0.87793 0.0
H1432 H 0.767 0.59154 0.95047 0.0
H1433 H 0.76754 0.62088 0.91949 0.0
H1434 H 0.73 0.58561 0.85474 0.0
H1435 H 0.72884 0.55645 0.88656 0.0
C1436 C 0.73179 0.64708 0.83304 0.0
C1437 C 0.74973 0.65959 0.8341 0.0
C1438 C 0.73161 0.6292 0.84898 0.0
C1439 C 0.74949 0.62347 0.86583 0.0
C1440 C 0.76769 0.63563 0.86576 0.0
C1441 C 0.76773 0.65364 0.85025 0.0
C1442 C 0.75902 0.59006 0.92951 0.0
C1443 C 0.74802 0.5718 0.92068 0.0
C1444 C 0.75939 0.60679 0.9117 0.0
C1445 C 0.749 0.6055 0.8845 0.0
C1446 C 0.73799 0.58715 0.87566 0.0
C1447 C 0.73739 0.57046 0.89373 0.0
loop_
_geom_bond_atom_site_label_1
_geom_bond_atom_site_label_2
_geom_bond_distance
_geom_bond_site_symmetry_2
_ccdc_geom_bond_type
H0 C19 0.949 . S
H1 C20 0.950 . S
H2 C22 0.950 . S
H3 C23 0.950 . S
H4 C25 0.950 . S
H5 C28 0.950 . S
H6 C29 0.950 . S
H7 C31 0.951 . S
H8 C32 0.949 . S
H9 C34 0.949 . S
H10 C35 0.950 . S
H11 C37 0.950 . S
H12 C38 0.950 . S
H13 C40 0.950 . S
H14 C43 0.950 . S
H15 C44 0.950 . S
H16 C46 0.951 . S
H17 C47 0.949 . S
C18 C19 1.376 . S
C18 C23 1.386 . S
C18 C24 1.483 . S
C19 H0 0.949 . S
C19 C18 1.376 . S
C19 C20 1.397 . S
C20 H1 0.950 . S
C20 C19 1.397 . S
C20 C21 1.391 . S
C21 C20 1.391 . S
C21 C22 1.405 . S
C22 H2 0.950 . S
C22 C21 1.405 . S
C22 C23 1.367 . S
C23 H3 0.950 . S
C23 C18 1.386 . S
C23 C22 1.367 . S
C24 C18 1.483 . S
C24 C25 1.382 . S
C24 C26 1.403 . S
C25 H4 0.950 . S
C25 C24 1.382 . S
C25 C41 1.411 . S
C26 C24 1.403 . S
C26 C27 1.489 . S
C26 C40 1.411 . S
C27 C26 1.489 . S
C27 C28 1.383 . S
C27 C32 1.382 . S
C28 H5 0.950 . S
C28 C27 1.383 . S
C28 C29 1.395 . S
C29 H6 0.950 . S
C29 C28 1.395 . S
C29 C30 1.288 . S
C30 C29 1.288 . S
C30 C31 1.392 . S
C31 H7 0.951 . S
C31 C30 1.392 . S
C31 C32 1.392 . S
C32 H8 0.949 . S
C32 C27 1.382 . S
C32 C31 1.392 . S
C33 C34 1.376 . S
C33 C38 1.386 . S
C33 C39 1.483 . S
C34 H9 0.949 . S
C34 C33 1.376 . S
C34 C35 1.397 . S
C35 H10 0.950 . S
C35 C34 1.397 . S
C35 C36 1.391 . S
C36 C35 1.391 . S
C36 C37 1.405 . S
C37 H11 0.950 . S
C37 C36 1.405 . S
C37 C38 1.367 . S
C38 H12 0.950 . S
C38 C33 1.386 . S
C38 C37 1.367 . S
C39 C33 1.483 . S
C39 C40 1.382 . S
C39 C41 1.403 . S
C40 H13 0.950 . S
C40 C26 1.411 . S
C40 C39 1.382 . S
C41 C25 1.411 . S
C41 C39 1.403 . S
C41 C42 1.489 . S
C42 C41 1.489 . S
C42 C43 1.383 . S
C42 C47 1.382 . S
C43 H14 0.950 . S
C43 C42 1.383 . S
C43 C44 1.395 . S
C44 H15 0.950 . S
C44 C43 1.395 . S
C44 C45 1.288 . S
C45 C44 1.288 . S
C45 C46 1.392 . S
C46 H16 0.951 . S
C46 C45 1.392 . S
C46 C47 1.392 . S
C47 H17 0.949 . S
C47 C42 1.382 . S
C47 C46 1.392 . S
H48 C67 0.949 . S
H49 C68 0.950 . S
H50 C70 0.950 . S
H51 C71 0.950 . S
H52 C73 0.950 . S
H53 C76 0.950 . S
H54 C77 0.950 . S
H55 C79 0.951 . S
H56 C80 0.949 . S
H57 C82 0.949 . S
H58 C83 0.950 . S
H59 C85 0.950 . S
H60 C86 0.950 . S
H61 C88 0.950 . S
H62 C91 0.950 . S
H63 C92 0.950 . S
H64 C94 0.951 . S
H65 C95 0.949 . S
C66 C67 1.376 . S
C66 C71 1.386 . S
C66 C72 1.483 . S
C67 H48 0.949 . S
C67 C66 1.376 . S
C67 C68 1.397 . S
C68 H49 0.950 . S
C68 C67 1.397 . S
C68 C69 1.391 . S
C69 C68 1.391 . S
C69 C70 1.405 . S
C70 H50 0.950 . S
C70 C69 1.405 . S
C70 C71 1.367 . S
C71 H51 0.950 . S
C71 C66 1.386 . S
C71 C70 1.367 . S
C72 C66 1.483 . S
C72 C73 1.382 . S
C72 C74 1.403 . S
C73 H52 0.950 . S
C73 C72 1.382 . S
C73 C89 1.411 . S
C74 C72 1.403 . S
C74 C75 1.489 . S
C74 C88 1.411 . S
C75 C74 1.489 . S
C75 C76 1.383 . S
C75 C80 1.382 . S
C76 H53 0.950 . S
C76 C75 1.383 . S
C76 C77 1.395 . S
C77 H54 0.950 . S
C77 C76 1.395 . S
C77 C78 1.288 . S
C78 C77 1.288 . S
C78 C79 1.392 . S
C79 H55 0.951 . S
C79 C78 1.392 . S
C79 C80 1.392 . S
C80 H56 0.949 . S
C80 C75 1.382 . S
C80 C79 1.392 . S
C81 C82 1.376 . S
C81 C86 1.386 . S
C81 C87 1.483 . S
C82 H57 0.949 . S
C82 C81 1.376 . S
C82 C83 1.397 . S
C83 H58 0.950 . S
C83 C82 1.397 . S
C83 C84 1.391 . S
C84 C83 1.391 . S
C84 C85 1.405 . S
C85 H59 0.950 . S
C85 C84 1.405 . S
C85 C86 1.367 . S
C86 H60 0.950 . S
C86 C81 1.386 . S
C86 C85 1.367 . S
C87 C81 1.483 . S
C87 C88 1.382 . S
C87 C89 1.403 . S
C88 H61 0.950 . S
C88 C74 1.411 . S
C88 C87 1.382 . S
C89 C73 1.411 . S
C89 C87 1.403 . S
C89 C90 1.489 . S
C90 C89 1.489 . S
C90 C91 1.383 . S
C90 C95 1.382 . S
C91 H62 0.950 . S
C91 C90 1.383 . S
C91 C92 1.395 . S
C92 H63 0.950 . S
C92 C91 1.395 . S
C92 C93 1.288 . S
C93 C92 1.288 . S
C93 C94 1.392 . S
C94 H64 0.951 . S
C94 C93 1.392 . S
C94 C95 1.392 . S
C95 H65 0.949 . S
C95 C90 1.382 . S
C95 C94 1.392 . S
H96 C115 0.949 . S
H97 C116 0.950 . S
H98 C118 0.950 . S
H99 C119 0.950 . S
H100 C121 0.950 . S
H101 C124 0.950 . S
H102 C125 0.950 . S
H103 C127 0.951 . S
H104 C128 0.949 . S
H105 C130 0.949 . S
H106 C131 0.950 . S
H107 C133 0.950 . S
H108 C134 0.950 . S
H109 C136 0.950 . S
H110 C139 0.950 . S
H111 C140 0.950 . S
H112 C142 0.951 . S
H113 C143 0.949 . S
C114 C115 1.376 . S
C114 C119 1.386 . S
C114 C120 1.483 . S
C115 H96 0.949 . S
C115 C114 1.376 . S
C115 C116 1.397 . S
C116 H97 0.950 . S
C116 C115 1.397 . S
C116 C117 1.391 . S
C117 C116 1.391 . S
C117 C118 1.405 . S
C118 H98 0.950 . S
C118 C117 1.405 . S
C118 C119 1.367 . S
C119 H99 0.950 . S
C119 C114 1.386 . S
C119 C118 1.367 . S
C120 C114 1.483 . S
C120 C121 1.382 . S
C120 C122 1.403 . S
C121 H100 0.950 . S
C121 C120 1.382 . S
C121 C137 1.411 . S
C122 C120 1.403 . S
C122 C123 1.489 . S
C122 C136 1.411 . S
C123 C122 1.489 . S
C123 C124 1.383 . S
C123 C128 1.382 . S
C124 H101 0.950 . S
C124 C123 1.383 . S
C124 C125 1.395 . S
C125 H102 0.950 . S
C125 C124 1.395 . S
C125 C126 1.288 . S
C126 C125 1.288 . S
C126 C127 1.392 . S
C127 H103 0.951 . S
C127 C126 1.392 . S
C127 C128 1.392 . S
C128 H104 0.949 . S
C128 C123 1.382 . S
C128 C127 1.392 . S
C129 C130 1.376 . S
C129 C134 1.386 . S
C129 C135 1.483 . S
C130 H105 0.949 . S
C130 C129 1.376 . S
C130 C131 1.397 . S
C131 H106 0.950 . S
C131 C130 1.397 . S
C131 C132 1.391 . S
C132 C131 1.391 . S
C132 C133 1.405 . S
C133 H107 0.950 . S
C133 C132 1.405 . S
C133 C134 1.367 . S
C134 H108 0.950 . S
C134 C129 1.386 . S
C134 C133 1.367 . S
C135 C129 1.483 . S
C135 C136 1.382 . S
C135 C137 1.403 . S
C136 H109 0.950 . S
C136 C122 1.411 . S
C136 C135 1.382 . S
C137 C121 1.411 . S
C137 C135 1.403 . S
C137 C138 1.489 . S
C138 C137 1.489 . S
C138 C139 1.383 . S
C138 C143 1.382 . S
C139 H110 0.950 . S
C139 C138 1.383 . S
C139 C140 1.395 . S
C140 H111 0.950 . S
C140 C139 1.395 . S
C140 C141 1.288 . S
C141 C140 1.288 . S
C141 C142 1.392 . S
C142 H112 0.951 . S
C142 C141 1.392 . S
C142 C143 1.392 . S
C143 H113 0.949 . S
C143 C138 1.382 . S
C143 C142 1.392 . S
H144 C163 0.949 . S
H145 C164 0.950 . S
H146 C166 0.950 . S
H147 C167 0.950 . S
H148 C169 0.950 . S
H149 C172 0.950 . S
H150 C173 0.950 . S
H151 C175 0.951 . S
H152 C176 0.949 . S
H153 C178 0.949 . S
H154 C179 0.950 . S
H155 C181 0.950 . S
H156 C182 0.950 . S
H157 C184 0.950 . S
H158 C187 0.950 . S
H159 C188 0.950 . S
H160 C190 0.951 . S
H161 C191 0.949 . S
C162 C163 1.376 . S
C162 C167 1.386 . S
C162 C168 1.483 . S
C163 H144 0.949 . S
C163 C162 1.376 . S
C163 C164 1.397 . S
C164 H145 0.950 . S
C164 C163 1.397 . S
C164 C165 1.391 . S
C165 C164 1.391 . S
C165 C166 1.405 . S
C166 H146 0.950 . S
C166 C165 1.405 . S
C166 C167 1.367 . S
C167 H147 0.950 . S
C167 C162 1.386 . S
C167 C166 1.367 . S
C168 C162 1.483 . S
C168 C169 1.382 . S
C168 C170 1.403 . S
C169 H148 0.950 . S
C169 C168 1.382 . S
C169 C185 1.411 . S
C170 C168 1.403 . S
C170 C171 1.489 . S
C170 C184 1.411 . S
C171 C170 1.489 . S
C171 C172 1.383 . S
C171 C176 1.382 . S
C172 H149 0.950 . S
C172 C171 1.383 . S
C172 C173 1.395 . S
C173 H150 0.950 . S
C173 C172 1.395 . S
C173 C174 1.288 . S
C174 C173 1.288 . S
C174 C175 1.392 . S
C175 H151 0.951 . S
C175 C174 1.392 . S
C175 C176 1.392 . S
C176 H152 0.949 . S
C176 C171 1.382 . S
C176 C175 1.392 . S
C177 C178 1.376 . S
C177 C182 1.386 . S
C177 C183 1.483 . S
C178 H153 0.949 . S
C178 C177 1.376 . S
C178 C179 1.397 . S
C179 H154 0.950 . S
C179 C178 1.397 . S
C179 C180 1.391 . S
C180 C179 1.391 . S
C180 C181 1.405 . S
C181 H155 0.950 . S
C181 C180 1.405 . S
C181 C182 1.367 . S
C182 H156 0.950 . S
C182 C177 1.386 . S
C182 C181 1.367 . S
C183 C177 1.483 . S
C183 C184 1.382 . S
C183 C185 1.403 . S
C184 H157 0.950 . S
C184 C170 1.411 . S
C184 C183 1.382 . S
C185 C169 1.411 . S
C185 C183 1.403 . S
C185 C186 1.489 . S
C186 C185 1.489 . S
C186 C187 1.383 . S
C186 C191 1.382 . S
C187 H158 0.950 . S
C187 C186 1.383 . S
C187 C188 1.395 . S
C188 H159 0.950 . S
C188 C187 1.395 . S
C188 C189 1.288 . S
C189 C188 1.288 . S
C189 C190 1.392 . S
C190 H160 0.951 . S
C190 C189 1.392 . S
C190 C191 1.392 . S
C191 H161 0.949 . S
C191 C186 1.382 . S
C191 C190 1.392 . S
H192 C211 0.949 . S
H193 C212 0.950 . S
H194 C214 0.950 . S
H195 C215 0.950 . S
H196 C217 0.950 . S
H197 C220 0.950 . S
H198 C221 0.950 . S
H199 C223 0.951 . S
H200 C224 0.949 . S
H201 C226 0.949 . S
H202 C227 0.950 . S
H203 C229 0.950 . S
H204 C230 0.950 . S
H205 C232 0.950 . S
H206 C235 0.950 . S
H207 C236 0.950 . S
H208 C238 0.951 . S
H209 C239 0.949 . S
C210 C211 1.376 . S
C210 C215 1.386 . S
C210 C216 1.483 . S
C211 H192 0.949 . S
C211 C210 1.376 . S
C211 C212 1.397 . S
C212 H193 0.950 . S
C212 C211 1.397 . S
C212 C213 1.391 . S
C213 C212 1.391 . S
C213 C214 1.405 . S
C214 H194 0.950 . S
C214 C213 1.405 . S
C214 C215 1.367 . S
C215 H195 0.950 . S
C215 C210 1.386 . S
C215 C214 1.367 . S
C216 C210 1.483 . S
C216 C217 1.382 . S
C216 C218 1.403 . S
C217 H196 0.950 . S
C217 C216 1.382 . S
C217 C233 1.411 . S
C218 C216 1.403 . S
C218 C219 1.489 . S
C218 C232 1.411 . S
C219 C218 1.489 . S
C219 C220 1.383 . S
C219 C224 1.382 . S
C220 H197 0.950 . S
C220 C219 1.383 . S
C220 C221 1.395 . S
C221 H198 0.950 . S
C221 C220 1.395 . S
C221 C222 1.288 . S
C222 C221 1.288 . S
C222 C223 1.392 . S
C223 H199 0.951 . S
C223 C222 1.392 . S
C223 C224 1.392 . S
C224 H200 0.949 . S
C224 C219 1.382 . S
C224 C223 1.392 . S
C225 C226 1.376 . S
C225 C230 1.386 . S
C225 C231 1.483 . S
C226 H201 0.949 . S
C226 C225 1.376 . S
C226 C227 1.397 . S
C227 H202 0.950 . S
C227 C226 1.397 . S
C227 C228 1.391 . S
C228 C227 1.391 . S
C228 C229 1.405 . S
C229 H203 0.950 . S
C229 C228 1.405 . S
C229 C230 1.367 . S
C230 H204 0.950 . S
C230 C225 1.386 . S
C230 C229 1.367 . S
C231 C225 1.483 . S
C231 C232 1.382 . S
C231 C233 1.403 . S
C232 H205 0.950 . S
C232 C218 1.411 . S
C232 C231 1.382 . S
C233 C217 1.411 . S
C233 C231 1.403 . S
C233 C234 1.489 . S
C234 C233 1.489 . S
C234 C235 1.383 . S
C234 C239 1.382 . S
C235 H206 0.950 . S
C235 C234 1.383 . S
C235 C236 1.395 . S
C236 H207 0.950 . S
C236 C235 1.395 . S
C236 C237 1.288 . S
C237 C236 1.288 . S
C237 C238 1.392 . S
C238 H208 0.951 . S
C238 C237 1.392 . S
C238 C239 1.392 . S
C239 H209 0.949 . S
C239 C234 1.382 . S
C239 C238 1.392 . S
H240 C259 0.949 . S
H241 C260 0.950 . S
H242 C262 0.950 . S
H243 C263 0.950 . S
H244 C265 0.950 . S
H245 C268 0.950 . S
H246 C269 0.950 . S
H247 C271 0.951 . S
H248 C272 0.949 . S
H249 C274 0.949 . S
H250 C275 0.950 . S
H251 C277 0.950 . S
H252 C278 0.950 . S
H253 C280 0.950 . S
H254 C283 0.950 . S
H255 C284 0.950 . S
H256 C286 0.951 . S
H257 C287 0.949 . S
C258 C259 1.376 . S
C258 C263 1.386 . S
C258 C264 1.483 . S
C259 H240 0.949 . S
C259 C258 1.376 . S
C259 C260 1.397 . S
C260 H241 0.950 . S
C260 C259 1.397 . S
C260 C261 1.391 . S
C261 C260 1.391 . S
C261 C262 1.405 . S
C262 H242 0.950 . S
C262 C261 1.405 . S
C262 C263 1.367 . S
C263 H243 0.950 . S
C263 C258 1.386 . S
C263 C262 1.367 . S
C264 C258 1.483 . S
C264 C265 1.382 . S
C264 C266 1.403 . S
C265 H244 0.950 . S
C265 C264 1.382 . S
C265 C281 1.411 . S
C266 C264 1.403 . S
C266 C267 1.489 . S
C266 C280 1.411 . S
C267 C266 1.489 . S
C267 C268 1.383 . S
C267 C272 1.382 . S
C268 H245 0.950 . S
C268 C267 1.383 . S
C268 C269 1.395 . S
C269 H246 0.950 . S
C269 C268 1.395 . S
C269 C270 1.288 . S
C270 C269 1.288 . S
C270 C271 1.392 . S
C271 H247 0.951 . S
C271 C270 1.392 . S
C271 C272 1.392 . S
C272 H248 0.949 . S
C272 C267 1.382 . S
C272 C271 1.392 . S
C273 C274 1.376 . S
C273 C278 1.386 . S
C273 C279 1.483 . S
C274 H249 0.949 . S
C274 C273 1.376 . S
C274 C275 1.397 . S
C275 H250 0.950 . S
C275 C274 1.397 . S
C275 C276 1.391 . S
C276 C275 1.391 . S
C276 C277 1.405 . S
C277 H251 0.950 . S
C277 C276 1.405 . S
C277 C278 1.367 . S
C278 H252 0.950 . S
C278 C273 1.386 . S
C278 C277 1.367 . S
C279 C273 1.483 . S
C279 C280 1.382 . S
C279 C281 1.403 . S
C280 H253 0.950 . S
C280 C266 1.411 . S
C280 C279 1.382 . S
C281 C265 1.411 . S
C281 C279 1.403 . S
C281 C282 1.489 . S
C282 C281 1.489 . S
C282 C283 1.383 . S
C282 C287 1.382 . S
C283 H254 0.950 . S
C283 C282 1.383 . S
C283 C284 1.395 . S
C284 H255 0.950 . S
C284 C283 1.395 . S
C284 C285 1.288 . S
C285 C284 1.288 . S
C285 C286 1.392 . S
C286 H256 0.951 . S
C286 C285 1.392 . S
C286 C287 1.392 . S
C287 H257 0.949 . S
C287 C282 1.382 . S
C287 C286 1.392 . S
H288 C307 0.949 . S
H289 C308 0.950 . S
H290 C310 0.950 . S
H291 C311 0.950 . S
H292 C313 0.950 . S
H293 C316 0.950 . S
H294 C317 0.950 . S
H295 C319 0.951 . S
H296 C320 0.949 . S
H297 C322 0.949 . S
H298 C323 0.950 . S
H299 C325 0.950 . S
H300 C326 0.950 . S
H301 C328 0.950 . S
H302 C331 0.950 . S
H303 C332 0.950 . S
H304 C334 0.951 . S
H305 C335 0.949 . S
C306 C307 1.376 . S
C306 C311 1.386 . S
C306 C312 1.483 . S
C307 H288 0.949 . S
C307 C306 1.376 . S
C307 C308 1.397 . S
C308 H289 0.950 . S
C308 C307 1.397 . S
C308 C309 1.391 . S
C309 C308 1.391 . S
C309 C310 1.405 . S
C310 H290 0.950 . S
C310 C309 1.405 . S
C310 C311 1.367 . S
C311 H291 0.950 . S
C311 C306 1.386 . S
C311 C310 1.367 . S
C312 C306 1.483 . S
C312 C313 1.382 . S
C312 C314 1.403 . S
C313 H292 0.950 . S
C313 C312 1.382 . S
C313 C329 1.411 . S
C314 C312 1.403 . S
C314 C315 1.489 . S
C314 C328 1.411 . S
C315 C314 1.489 . S
C315 C316 1.383 . S
C315 C320 1.382 . S
C316 H293 0.950 . S
C316 C315 1.383 . S
C316 C317 1.395 . S
C317 H294 0.950 . S
C317 C316 1.395 . S
C317 C318 1.288 . S
C318 C317 1.288 . S
C318 C319 1.392 . S
C319 H295 0.951 . S
C319 C318 1.392 . S
C319 C320 1.392 . S
C320 H296 0.949 . S
C320 C315 1.382 . S
C320 C319 1.392 . S
C321 C322 1.376 . S
C321 C326 1.386 . S
C321 C327 1.483 . S
C322 H297 0.949 . S
C322 C321 1.376 . S
C322 C323 1.397 . S
C323 H298 0.950 . S
C323 C322 1.397 . S
C323 C324 1.391 . S
C324 C323 1.391 . S
C324 C325 1.405 . S
C325 H299 0.950 . S
C325 C324 1.405 . S
C325 C326 1.367 . S
C326 H300 0.950 . S
C326 C321 1.386 . S
C326 C325 1.367 . S
C327 C321 1.483 . S
C327 C328 1.382 . S
C327 C329 1.403 . S
C328 H301 0.950 . S
C328 C314 1.411 . S
C328 C327 1.382 . S
C329 C313 1.411 . S
C329 C327 1.403 . S
C329 C330 1.489 . S
C330 C329 1.489 . S
C330 C331 1.383 . S
C330 C335 1.382 . S
C331 H302 0.950 . S
C331 C330 1.383 . S
C331 C332 1.395 . S
C332 H303 0.950 . S
C332 C331 1.395 . S
C332 C333 1.288 . S
C333 C332 1.288 . S
C333 C334 1.392 . S
C334 H304 0.951 . S
C334 C333 1.392 . S
C334 C335 1.392 . S
C335 H305 0.949 . S
C335 C330 1.382 . S
C335 C334 1.392 . S
H336 C355 0.949 . S
H337 C356 0.950 . S
H338 C358 0.950 . S
H339 C359 0.950 . S
H340 C361 0.950 . S
H341 C364 0.950 . S
H342 C365 0.950 . S
H343 C367 0.951 . S
H344 C368 0.949 . S
H345 C370 0.949 . S
H346 C371 0.950 . S
H347 C373 0.950 . S
H348 C374 0.950 . S
H349 C376 0.950 . S
H350 C379 0.950 . S
H351 C380 0.950 . S
H352 C382 0.951 . S
H353 C383 0.949 . S
C354 C355 1.376 . S
C354 C359 1.386 . S
C354 C360 1.483 . S
C355 H336 0.949 . S
C355 C354 1.376 . S
C355 C356 1.397 . S
C356 H337 0.950 . S
C356 C355 1.397 . S
C356 C357 1.391 . S
C357 C356 1.391 . S
C357 C358 1.405 . S
C358 H338 0.950 . S
C358 C357 1.405 . S
C358 C359 1.367 . S
C359 H339 0.950 . S
C359 C354 1.386 . S
C359 C358 1.367 . S
C360 C354 1.483 . S
C360 C361 1.382 . S
C360 C362 1.403 . S
C361 H340 0.950 . S
C361 C360 1.382 . S
C361 C377 1.411 . S
C362 C360 1.403 . S
C362 C363 1.489 . S
C362 C376 1.411 . S
C363 C362 1.489 . S
C363 C364 1.383 . S
C363 C368 1.382 . S
C364 H341 0.950 . S
C364 C363 1.383 . S
C364 C365 1.395 . S
C365 H342 0.950 . S
C365 C364 1.395 . S
C365 C366 1.288 . S
C366 C365 1.288 . S
C366 C367 1.392 . S
C367 H343 0.951 . S
C367 C366 1.392 . S
C367 C368 1.392 . S
C368 H344 0.949 . S
C368 C363 1.382 . S
C368 C367 1.392 . S
C369 C370 1.376 . S
C369 C374 1.386 . S
C369 C375 1.483 . S
C370 H345 0.949 . S
C370 C369 1.376 . S
C370 C371 1.397 . S
C371 H346 0.950 . S
C371 C370 1.397 . S
C371 C372 1.391 . S
C372 C371 1.391 . S
C372 C373 1.405 . S
C373 H347 0.950 . S
C373 C372 1.405 . S
C373 C374 1.367 . S
C374 H348 0.950 . S
C374 C369 1.386 . S
C374 C373 1.367 . S
C375 C369 1.483 . S
C375 C376 1.382 . S
C375 C377 1.403 . S
C376 H349 0.950 . S
C376 C362 1.411 . S
C376 C375 1.382 . S
C377 C361 1.411 . S
C377 C375 1.403 . S
C377 C378 1.489 . S
C378 C377 1.489 . S
C378 C379 1.383 . S
C378 C383 1.382 . S
C379 H350 0.950 . S
C379 C378 1.383 . S
C379 C380 1.395 . S
C380 H351 0.950 . S
C380 C379 1.395 . S
C380 C381 1.288 . S
C381 C380 1.288 . S
C381 C382 1.392 . S
C382 H352 0.951 . S
C382 C381 1.392 . S
C382 C383 1.392 . S
C383 H353 0.949 . S
C383 C378 1.382 . S
C383 C382 1.392 . S
C384 C385 1.443 . S
C384 N388 1.376 . S
C384 C422 1.389 . S
C385 C384 1.443 . S
C385 C386 1.340 . S
C385 H425 0.951 . S
C386 C385 1.340 . S
C386 C387 1.439 . S
C386 H426 0.950 . S
C387 C386 1.439 . S
C387 N388 1.374 . S
C387 C421 1.395 . S
N388 C384 1.376 . S
N388 C387 1.374 . S
N388 Co389 2.008 . S
Co389 N388 2.008 . S
Co389 N390 1.995 1_455 S
Co389 N395 2.008 1_455 S
Co389 N400 1.995 . S
Co389 N405 2.282 1_455 S
Co389 N411 2.282 . S
N390 Co389 1.995 1_655 S
N390 C391 1.376 . S
N390 C394 1.383 . S
C391 N390 1.376 . S
C391 C392 1.446 . S
C391 C421 1.391 1_655 S
C392 C391 1.446 . S
C392 C393 1.339 . S
C392 H427 0.949 . S
C393 C392 1.339 . S
C393 C394 1.439 . S
C393 H428 0.950 . S
C394 N390 1.383 . S
C394 C393 1.439 . S
C394 C423 1.392 . S
N395 Co389 2.008 1_655 S
N395 C396 1.376 . S
N395 C399 1.374 . S
C396 N395 1.376 . S
C396 C397 1.443 . S
C396 C423 1.389 . S
C397 C396 1.443 . S
C397 C398 1.340 . S
C397 H429 0.951 . S
C398 C397 1.340 . S
C398 C399 1.439 . S
C398 H430 0.950 . S
C399 N395 1.374 . S
C399 C398 1.439 . S
C399 C424 1.404 . S
N400 Co389 1.995 . S
N400 C401 1.376 . S
N400 C404 1.383 . S
C401 N400 1.376 . S
C401 C402 1.446 . S
C401 C424 1.381 1_455 S
C402 C401 1.446 . S
C402 C403 1.339 . S
C402 H431 0.949 . S
C403 C402 1.339 . S
C403 C404 1.439 . S
C403 H432 0.950 . S
C404 N400 1.383 . S
C404 C403 1.439 . S
C404 C422 1.392 . S
N405 Co389 2.282 1_655 S
N405 C408 1.332 . S
N405 C410 1.332 . S
C406 C407 1.386 . S
C406 C409 1.388 . S
C407 C406 1.386 . S
C407 C408 1.382 . S
C407 H433 0.950 . S
C408 N405 1.332 . S
C408 C407 1.382 . S
C408 H419 0.952 . S
C409 C406 1.388 . S
C409 C410 1.382 . S
C409 H434 0.950 . S
C410 N405 1.332 . S
C410 C409 1.382 . S
C410 H420 0.948 . S
N411 Co389 2.282 . S
N411 C415 1.332 . S
N411 C416 1.332 . S
C412 C413 1.388 . S
C412 C416 1.382 . S
C412 H435 0.950 . S
C413 C412 1.388 . S
C413 C414 1.386 . S
C414 C413 1.386 . S
C414 C415 1.382 . S
C414 H436 0.950 . S
C415 N411 1.332 . S
C415 C414 1.382 . S
C415 H417 0.952 . S
C416 N411 1.332 . S
C416 C412 1.382 . S
C416 H418 0.948 . S
H417 C415 0.952 . S
H418 C416 0.948 . S
H419 C408 0.952 . S
H420 C410 0.948 . S
C421 C387 1.395 . S
C421 C391 1.391 1_455 S
C422 C384 1.389 . S
C422 C404 1.392 . S
C423 C394 1.392 . S
C423 C396 1.389 . S
C424 C399 1.404 . S
C424 C401 1.381 1_655 S
H425 C385 0.951 . S
H426 C386 0.950 . S
H427 C392 0.949 . S
H428 C393 0.950 . S
H429 C397 0.951 . S
H430 C398 0.950 . S
H431 C402 0.949 . S
H432 C403 0.950 . S
H433 C407 0.950 . S
H434 C409 0.950 . S
H435 C412 0.950 . S
H436 C414 0.950 . S
C437 C438 1.443 . S
C437 N441 1.376 . S
C437 C475 1.389 . S
C438 C437 1.443 . S
C438 C439 1.340 . S
C438 H478 0.951 . S
C439 C438 1.340 . S
C439 C440 1.439 . S
C439 H479 0.950 . S
C440 C439 1.439 . S
C440 N441 1.374 . S
C440 C474 1.395 . S
N441 C437 1.376 . S
N441 C440 1.374 . S
N441 Co442 2.008 . S
Co442 N441 2.008 . S
Co442 N443 1.995 1_545 S
Co442 N448 2.008 1_545 S
Co442 N453 1.995 . S
Co442 N458 2.282 1_545 S
Co442 N464 2.282 . S
N443 Co442 1.995 1_565 S
N443 C444 1.376 . S
N443 C447 1.383 . S
C444 N443 1.376 . S
C444 C445 1.446 . S
C444 C474 1.391 1_565 S
C445 C444 1.446 . S
C445 C446 1.339 . S
C445 H480 0.949 . S
C446 C445 1.339 . S
C446 C447 1.439 . S
C446 H481 0.950 . S
C447 N443 1.383 . S
C447 C446 1.439 . S
C447 C476 1.392 . S
N448 Co442 2.008 1_565 S
N448 C449 1.376 . S
N448 C452 1.374 . S
C449 N448 1.376 . S
C449 C450 1.443 . S
C449 C476 1.389 . S
C450 C449 1.443 . S
C450 C451 1.340 . S
C450 H482 0.951 . S
C451 C450 1.340 . S
C451 C452 1.439 . S
C451 H483 0.950 . S
C452 N448 1.374 . S
C452 C451 1.439 . S
C452 C477 1.391 . S
N453 Co442 1.995 . S
N453 C454 1.376 . S
N453 C457 1.383 . S
C454 N453 1.376 . S
C454 C455 1.446 . S
C454 C477 1.395 1_545 S
C455 C454 1.446 . S
C455 C456 1.339 . S
C455 H484 0.949 . S
C456 C455 1.339 . S
C456 C457 1.439 . S
C456 H485 0.950 . S
C457 N453 1.383 . S
C457 C456 1.439 . S
C457 C475 1.392 . S
N458 Co442 2.282 1_565 S
N458 C461 1.332 . S
N458 C463 1.332 . S
C459 C460 1.386 . S
C459 C462 1.388 . S
C460 C459 1.386 . S
C460 C461 1.382 . S
C460 H486 0.950 . S
C461 N458 1.332 . S
C461 C460 1.382 . S
C461 H472 0.952 . S
C462 C459 1.388 . S
C462 C463 1.382 . S
C462 H487 0.950 . S
C463 N458 1.332 . S
C463 C462 1.382 . S
C463 H473 0.948 . S
N464 Co442 2.282 . S
N464 C468 1.332 . S
N464 C469 1.332 . S
C465 C466 1.388 . S
C465 C469 1.382 . S
C465 H488 0.950 . S
C466 C465 1.388 . S
C466 C467 1.386 . S
C467 C466 1.386 . S
C467 C468 1.382 . S
C467 H489 0.950 . S
C468 N464 1.332 . S
C468 C467 1.382 . S
C468 H470 0.952 . S
C469 N464 1.332 . S
C469 C465 1.382 . S
C469 H471 0.948 . S
H470 C468 0.952 . S
H471 C469 0.948 . S
H472 C461 0.952 . S
H473 C463 0.948 . S
C474 C440 1.395 . S
C474 C444 1.391 1_545 S
C475 C437 1.389 . S
C475 C457 1.392 . S
C476 C447 1.392 . S
C476 C449 1.389 . S
C477 C452 1.391 . S
C477 C454 1.395 1_565 S
H478 C438 0.951 . S
H479 C439 0.950 . S
H480 C445 0.949 . S
H481 C446 0.950 . S
H482 C450 0.951 . S
H483 C451 0.950 . S
H484 C455 0.949 . S
H485 C456 0.950 . S
H486 C460 0.950 . S
H487 C462 0.950 . S
H488 C465 0.950 . S
H489 C467 0.950 . S
C490 C491 1.443 . S
C490 N494 1.376 . S
C490 C528 1.389 . S
C491 C490 1.443 . S
C491 C492 1.340 . S
C491 H531 0.951 . S
C492 C491 1.340 . S
C492 C493 1.439 . S
C492 H532 0.950 . S
C493 C492 1.439 . S
C493 N494 1.374 . S
C493 C527 1.395 . S
N494 C490 1.376 . S
N494 C493 1.374 . S
N494 Co495 2.008 . S
Co495 N494 2.008 . S
Co495 N496 1.995 1_455 S
Co495 N501 2.008 1_455 S
Co495 N506 1.995 . S
Co495 N511 2.282 1_455 S
Co495 N517 2.282 . S
N496 Co495 1.995 1_655 S
N496 C497 1.376 . S
N496 C500 1.383 . S
C497 N496 1.376 . S
C497 C498 1.446 . S
C497 C527 1.391 1_655 S
C498 C497 1.446 . S
C498 C499 1.339 . S
C498 H533 0.949 . S
C499 C498 1.339 . S
C499 C500 1.439 . S
C499 H534 0.950 . S
C500 N496 1.383 . S
C500 C499 1.439 . S
C500 C529 1.392 . S
N501 Co495 2.008 1_655 S
N501 C502 1.376 . S
N501 C505 1.374 . S
C502 N501 1.376 . S
C502 C503 1.443 . S
C502 C529 1.389 . S
C503 C502 1.443 . S
C503 C504 1.340 . S
C503 H535 0.951 . S
C504 C503 1.340 . S
C504 C505 1.439 . S
C504 H536 0.950 . S
C505 N501 1.374 . S
C505 C504 1.439 . S
C505 C530 1.395 . S
N506 Co495 1.995 . S
N506 C507 1.376 . S
N506 C510 1.383 . S
C507 N506 1.376 . S
C507 C508 1.446 . S
C507 C530 1.391 1_455 S
C508 C507 1.446 . S
C508 C509 1.339 . S
C508 H537 0.949 . S
C509 C508 1.339 . S
C509 C510 1.439 . S
C509 H538 0.950 . S
C510 N506 1.383 . S
C510 C509 1.439 . S
C510 C528 1.392 . S
N511 Co495 2.282 1_655 S
N511 C514 1.332 . S
N511 C516 1.332 . S
C512 C513 1.386 . S
C512 C515 1.388 . S
C513 C512 1.386 . S
C513 C514 1.382 . S
C513 H539 0.950 . S
C514 N511 1.332 . S
C514 C513 1.382 . S
C514 H525 0.952 . S
C515 C512 1.388 . S
C515 C516 1.382 . S
C515 H540 0.950 . S
C516 N511 1.332 . S
C516 C515 1.382 . S
C516 H526 0.948 . S
N517 Co495 2.282 . S
N517 C521 1.332 . S
N517 C522 1.332 . S
C518 C519 1.388 . S
C518 C522 1.382 . S
C518 H541 0.950 . S
C519 C518 1.388 . S
C519 C520 1.386 . S
C520 C519 1.386 . S
C520 C521 1.382 . S
C520 H542 0.950 . S
C521 N517 1.332 . S
C521 C520 1.382 . S
C521 H523 0.952 . S
C522 N517 1.332 . S
C522 C518 1.382 . S
C522 H524 0.948 . S
H523 C521 0.952 . S
H524 C522 0.948 . S
H525 C514 0.952 . S
H526 C516 0.948 . S
C527 C493 1.395 . S
C527 C497 1.391 1_455 S
C528 C490 1.389 . S
C528 C510 1.392 . S
C529 C500 1.392 . S
C529 C502 1.389 . S
C530 C505 1.395 . S
C530 C507 1.391 1_655 S
H531 C491 0.951 . S
H532 C492 0.950 . S
H533 C498 0.949 . S
H534 C499 0.950 . S
H535 C503 0.951 . S
H536 C504 0.950 . S
H537 C508 0.949 . S
H538 C509 0.950 . S
H539 C513 0.950 . S
H540 C515 0.950 . S
H541 C518 0.950 . S
H542 C520 0.950 . S
C543 C544 1.443 . S
C543 N547 1.376 . S
C543 C581 1.389 . S
C544 C543 1.443 . S
C544 C545 1.340 . S
C544 H584 0.951 . S
C545 C544 1.340 . S
C545 C546 1.439 . S
C545 H585 0.950 . S
C546 C545 1.439 . S
C546 N547 1.374 . S
C546 C580 1.411 . S
N547 C543 1.376 . S
N547 C546 1.374 . S
N547 Co548 2.008 1_565 S
Co548 N547 2.008 1_545 S
Co548 N549 1.995 . S
Co548 N554 2.008 . S
Co548 N559 1.995 1_545 S
Co548 N564 2.282 . S
Co548 N570 2.282 1_545 S
N549 Co548 1.995 . S
N549 C550 1.376 . S
N549 C553 1.383 . S
C550 N549 1.376 . S
C550 C551 1.446 . S
C550 C580 1.374 1_545 S
C551 C550 1.446 . S
C551 C552 1.339 . S
C551 H586 0.949 . S
C552 C551 1.339 . S
C552 C553 1.439 . S
C552 H587 0.950 . S
C553 N549 1.383 . S
C553 C552 1.439 . S
C553 C582 1.392 . S
N554 Co548 2.008 . S
N554 C555 1.376 . S
N554 C558 1.374 . S
C555 N554 1.376 . S
C555 C556 1.443 . S
C555 C582 1.389 . S
C556 C555 1.443 . S
C556 C557 1.340 . S
C556 H588 0.951 . S
C557 C556 1.340 . S
C557 C558 1.439 . S
C557 H589 0.950 . S
C558 N554 1.374 . S
C558 C557 1.439 . S
C558 C583 1.395 . S
N559 Co548 1.995 1_565 S
N559 C560 1.376 . S
N559 C563 1.383 . S
C560 N559 1.376 . S
C560 C561 1.446 . S
C560 C583 1.391 1_565 S
C561 C560 1.446 . S
C561 C562 1.339 . S
C561 H590 0.949 . S
C562 C561 1.339 . S
C562 C563 1.439 . S
C562 H591 0.950 . S
C563 N559 1.383 . S
C563 C562 1.439 . S
C563 C581 1.392 . S
N564 Co548 2.282 . S
N564 C567 1.332 . S
N564 C569 1.332 . S
C565 C566 1.386 . S
C565 C568 1.388 . S
C566 C565 1.386 . S
C566 C567 1.382 . S
C566 H592 0.950 . S
C567 N564 1.332 . S
C567 C566 1.382 . S
C567 H578 0.952 . S
C568 C565 1.388 . S
C568 C569 1.382 . S
C568 H593 0.950 . S
C569 N564 1.332 . S
C569 C568 1.382 . S
C569 H579 0.948 . S
N570 Co548 2.282 1_565 S
N570 C574 1.332 . S
N570 C575 1.332 . S
C571 C572 1.388 . S
C571 C575 1.382 . S
C571 H594 0.950 . S
C572 C571 1.388 . S
C572 C573 1.386 . S
C573 C572 1.386 . S
C573 C574 1.382 . S
C573 H595 0.950 . S
C574 N570 1.332 . S
C574 C573 1.382 . S
C574 H576 0.952 . S
C575 N570 1.332 . S
C575 C571 1.382 . S
C575 H577 0.948 . S
H576 C574 0.952 . S
H577 C575 0.948 . S
H578 C567 0.952 . S
H579 C569 0.948 . S
C580 C546 1.411 . S
C580 C550 1.374 1_565 S
C581 C543 1.389 . S
C581 C563 1.392 . S
C582 C553 1.392 . S
C582 C555 1.389 . S
C583 C558 1.395 . S
C583 C560 1.391 1_545 S
H584 C544 0.951 . S
H585 C545 0.950 . S
H586 C551 0.949 . S
H587 C552 0.950 . S
H588 C556 0.951 . S
H589 C557 0.950 . S
H590 C561 0.949 . S
H591 C562 0.950 . S
H592 C566 0.950 . S
H593 C568 0.950 . S
H594 C571 0.950 . S
H595 C573 0.950 . S
C596 C597 1.443 . S
C596 N600 1.376 . S
C596 C634 1.389 . S
C597 C596 1.443 . S
C597 C598 1.340 . S
C597 H637 0.951 . S
C598 C597 1.340 . S
C598 C599 1.439 . S
C598 H638 0.950 . S
C599 C598 1.439 . S
C599 N600 1.374 . S
C599 C633 1.395 1_554 S
N600 C596 1.376 . S
N600 C599 1.374 . S
N600 Co601 2.014 . S
Co601 N600 2.014 . S
Co601 N602 1.988 1_554 S
Co601 N607 2.002 1_554 S
Co601 N612 2.002 . S
Co601 N617 2.293 . S
Co601 N623 2.272 1_554 S
N602 Co601 1.988 1_556 S
N602 C603 1.376 . S
N602 C606 1.383 . S
C603 N602 1.376 . S
C603 C604 1.446 . S
C603 C633 1.391 . S
C604 C603 1.446 . S
C604 C605 1.339 . S
C604 H639 0.949 . S
C605 C604 1.339 . S
C605 C606 1.439 . S
C605 H640 0.950 . S
C606 N602 1.383 . S
C606 C605 1.439 . S
C606 C635 1.392 . S
N607 Co601 2.002 1_556 S
N607 C608 1.376 . S
N607 C611 1.374 . S
C608 N607 1.376 . S
C608 C609 1.443 . S
C608 C635 1.389 . S
C609 C608 1.443 . S
C609 C610 1.340 . S
C609 H641 0.951 . S
C610 C609 1.340 . S
C610 C611 1.439 . S
C610 H642 0.950 . S
C611 N607 1.374 . S
C611 C610 1.439 . S
C611 C636 1.395 1_556 S
N612 Co601 2.002 . S
N612 C613 1.376 . S
N612 C616 1.383 . S
C613 N612 1.376 . S
C613 C614 1.446 . S
C613 C636 1.391 . S
C614 C613 1.446 . S
C614 C615 1.339 . S
C614 H643 0.949 . S
C615 C614 1.339 . S
C615 C616 1.439 . S
C615 H644 0.950 . S
C616 N612 1.383 . S
C616 C615 1.439 . S
C616 C634 1.392 . S
N617 Co601 2.293 . S
N617 C620 1.332 . S
N617 C622 1.332 . S
C618 C619 1.386 . S
C618 C621 1.388 . S
C619 C618 1.386 . S
C619 C620 1.382 . S
C619 H645 0.950 . S
C620 N617 1.332 . S
C620 C619 1.382 . S
C620 H631 0.952 . S
C621 C618 1.388 . S
C621 C622 1.382 . S
C621 H646 0.950 . S
C622 N617 1.332 . S
C622 C621 1.382 . S
C622 H632 0.948 . S
N623 Co601 2.272 1_556 S
N623 C627 1.332 . S
N623 C628 1.332 . S
C624 C625 1.388 . S
C624 C628 1.382 . S
C624 H647 0.950 . S
C625 C624 1.388 . S
C625 C626 1.386 . S
C626 C625 1.386 . S
C626 C627 1.382 . S
C626 H648 0.950 . S
C627 N623 1.332 . S
C627 C626 1.382 . S
C627 H629 0.952 . S
C628 N623 1.332 . S
C628 C624 1.382 . S
C628 H630 0.948 . S
H629 C627 0.952 . S
H630 C628 0.948 . S
H631 C620 0.952 . S
H632 C622 0.948 . S
C633 C599 1.395 1_556 S
C633 C603 1.391 . S
C634 C596 1.389 . S
C634 C616 1.392 . S
C635 C606 1.392 . S
C635 C608 1.389 . S
C636 C611 1.395 1_554 S
C636 C613 1.391 . S
H637 C597 0.951 . S
H638 C598 0.950 . S
H639 C604 0.949 . S
H640 C605 0.950 . S
H641 C609 0.951 . S
H642 C610 0.950 . S
H643 C614 0.949 . S
H644 C615 0.950 . S
H645 C619 0.950 . S
H646 C621 0.950 . S
H647 C624 0.950 . S
H648 C626 0.950 . S
C649 C650 1.443 . S
C649 N653 1.376 . S
C649 C687 1.389 . S
C650 C649 1.443 . S
C650 C651 1.340 . S
C650 H690 0.951 . S
C651 C650 1.340 . S
C651 C652 1.439 . S
C651 H691 0.950 . S
C652 C651 1.439 . S
C652 N653 1.374 . S
C652 C686 1.395 . S
N653 C649 1.376 . S
N653 C652 1.374 . S
N653 Co654 2.008 . S
Co654 N653 2.008 . S
Co654 N655 1.995 1_554 S
Co654 N660 2.020 . S
Co654 N665 1.995 . S
Co654 N670 2.282 . S
Co654 N676 2.282 1_554 S
N655 Co654 1.995 1_556 S
N655 C656 1.376 . S
N655 C659 1.383 . S
C656 N655 1.376 . S
C656 C657 1.446 . S
C656 C686 1.391 1_556 S
C657 C656 1.446 . S
C657 C658 1.339 . S
C657 H692 0.949 . S
C658 C657 1.339 . S
C658 C659 1.439 . S
C658 H693 0.950 . S
C659 N655 1.383 . S
C659 C658 1.439 . S
C659 C688 1.392 . S
N660 Co654 2.020 . S
N660 C661 1.361 1_554 S
N660 C664 1.380 . S
C661 N660 1.361 1_556 S
C661 C662 1.443 . S
C661 C688 1.389 . S
C662 C661 1.443 . S
C662 C663 1.340 . S
C662 H694 0.951 . S
C663 C662 1.340 . S
C663 C664 1.439 1_556 S
C663 H695 0.950 . S
C664 N660 1.380 . S
C664 C663 1.439 1_554 S
C664 C689 1.395 . S
N665 Co654 1.995 . S
N665 C666 1.376 . S
N665 C669 1.383 . S
C666 N665 1.376 . S
C666 C667 1.446 . S
C666 C689 1.391 . S
C667 C666 1.446 . S
C667 C668 1.339 . S
C667 H696 0.949 . S
C668 C667 1.339 . S
C668 C669 1.439 . S
C668 H697 0.950 . S
C669 N665 1.383 . S
C669 C668 1.439 . S
C669 C687 1.392 . S
N670 Co654 2.282 . S
N670 C673 1.332 . S
N670 C675 1.332 . S
C671 C672 1.386 . S
C671 C674 1.388 . S
C672 C671 1.386 . S
C672 C673 1.382 . S
C672 H698 0.950 . S
C673 N670 1.332 . S
C673 C672 1.382 . S
C673 H684 0.952 . S
C674 C671 1.388 . S
C674 C675 1.382 . S
C674 H699 0.950 . S
C675 N670 1.332 . S
C675 C674 1.382 . S
C675 H685 0.948 . S
N676 Co654 2.282 1_556 S
N676 C680 1.332 . S
N676 C681 1.332 . S
C677 C678 1.388 . S
C677 C681 1.382 . S
C677 H700 0.950 . S
C678 C677 1.388 . S
C678 C679 1.386 . S
C679 C678 1.386 . S
C679 C680 1.382 . S
C679 H701 0.950 . S
C680 N676 1.332 . S
C680 C679 1.382 . S
C680 H682 0.952 . S
C681 N676 1.332 . S
C681 C677 1.382 . S
C681 H683 0.948 . S
H682 C680 0.952 . S
H683 C681 0.948 . S
H684 C673 0.952 . S
H685 C675 0.948 . S
C686 C652 1.395 . S
C686 C656 1.391 1_554 S
C687 C649 1.389 . S
C687 C669 1.392 . S
C688 C659 1.392 . S
C688 C661 1.389 . S
C689 C664 1.395 . S
C689 C666 1.391 . S
H690 C650 0.951 . S
H691 C651 0.950 . S
H692 C657 0.949 . S
H693 C658 0.950 . S
H694 C662 0.951 . S
H695 C663 0.950 . S
H696 C667 0.949 . S
H697 C668 0.950 . S
H698 C672 0.950 . S
H699 C674 0.950 . S
H700 C677 0.950 . S
H701 C679 0.950 . S
C702 C703 1.443 . S
C702 N706 1.376 1_556 S
C702 C740 1.389 . S
C703 C702 1.443 . S
C703 C704 1.340 1_556 S
C703 H743 0.951 . S
C704 C703 1.340 1_554 S
C704 C705 1.439 . S
C704 H744 0.950 . S
C705 C704 1.439 . S
C705 N706 1.374 . S
C705 C739 1.395 . S
N706 C702 1.376 1_554 S
N706 C705 1.374 . S
N706 Co707 2.008 . S
Co707 N706 2.008 . S
Co707 N708 1.995 . S
Co707 N713 2.008 . S
Co707 N718 2.010 . S
Co707 N723 2.282 1_554 S
Co707 N729 2.282 . S
N708 Co707 1.995 . S
N708 C709 1.376 . S
N708 C712 1.383 . S
C709 N708 1.376 . S
C709 C710 1.446 . S
C709 C739 1.391 . S
C710 C709 1.446 . S
C710 C711 1.339 . S
C710 H745 0.949 . S
C711 C710 1.339 . S
C711 C712 1.439 . S
C711 H746 0.950 . S
C712 N708 1.383 . S
C712 C711 1.439 . S
C712 C741 1.392 . S
N713 Co707 2.008 . S
N713 C714 1.376 . S
N713 C717 1.374 . S
C714 N713 1.376 . S
C714 C715 1.443 . S
C714 C741 1.389 . S
C715 C714 1.443 . S
C715 C716 1.340 . S
C715 H747 0.951 . S
C716 C715 1.340 . S
C716 C717 1.439 . S
C716 H748 0.950 . S
C717 N713 1.374 . S
C717 C716 1.439 . S
C717 C742 1.395 . S
N718 Co707 2.010 . S
N718 C719 1.376 1_554 S
N718 C722 1.367 1_554 S
C719 N718 1.376 1_556 S
C719 C720 1.452 . S
C719 C742 1.386 1_556 S
C720 C719 1.452 . S
C720 C721 1.339 . S
C720 H749 0.949 . S
C721 C720 1.339 . S
C721 C722 1.439 . S
C721 H750 0.950 . S
C722 N718 1.367 1_556 S
C722 C721 1.439 . S
C722 C740 1.392 . S
N723 Co707 2.282 1_556 S
N723 C726 1.332 . S
N723 C728 1.332 . S
C724 C725 1.386 . S
C724 C727 1.388 . S
C725 C724 1.386 . S
C725 C726 1.382 . S
C725 H751 0.950 . S
C726 N723 1.332 . S
C726 C725 1.382 . S
C726 H737 0.952 . S
C727 C724 1.388 . S
C727 C728 1.382 . S
C727 H752 0.950 . S
C728 N723 1.332 . S
C728 C727 1.382 . S
C728 H738 0.952 . S
N729 Co707 2.282 . S
N729 C733 1.332 . S
N729 C734 1.332 . S
C730 C731 1.388 . S
C730 C734 1.382 . S
C730 H753 0.950 . S
C731 C730 1.388 . S
C731 C732 1.386 . S
C732 C731 1.386 . S
C732 C733 1.382 . S
C732 H754 0.950 . S
C733 N729 1.332 . S
C733 C732 1.382 . S
C733 H735 0.952 . S
C734 N729 1.332 . S
C734 C730 1.382 . S
C734 H736 0.948 . S
H735 C733 0.952 . S
H736 C734 0.948 . S
H737 C726 0.952 . S
H738 C728 0.952 . S
C739 C705 1.395 . S
C739 C709 1.391 . S
C740 C702 1.389 . S
C740 C722 1.392 . S
C741 C712 1.392 . S
C741 C714 1.389 . S
C742 C717 1.395 . S
C742 C719 1.386 1_554 S
H743 C703 0.951 . S
H744 C704 0.950 . S
H745 C710 0.949 . S
H746 C711 0.950 . S
H747 C715 0.951 . S
H748 C716 0.950 . S
H749 C720 0.949 . S
H750 C721 0.950 . S
H751 C725 0.950 . S
H752 C727 0.950 . S
H753 C730 0.950 . S
H754 C732 0.950 . S
C755 C756 1.443 . S
C755 N759 1.376 . S
C755 C793 1.389 . S
C756 C755 1.443 . S
C756 C757 1.340 . S
C756 H796 0.951 . S
C757 C756 1.340 . S
C757 C758 1.439 . S
C757 H797 0.950 . S
C758 C757 1.439 . S
C758 N759 1.374 . S
C758 C792 1.395 1_554 S
N759 C755 1.376 . S
N759 C758 1.374 . S
N759 Co760 2.008 . S
Co760 N759 2.008 . S
Co760 N761 1.995 1_554 S
Co760 N766 2.008 1_554 S
Co760 N771 1.995 . S
Co760 N776 2.282 . S
Co760 N782 2.282 1_554 S
N761 Co760 1.995 1_556 S
N761 C762 1.376 . S
N761 C765 1.383 . S
C762 N761 1.376 . S
C762 C763 1.446 . S
C762 C792 1.391 . S
C763 C762 1.446 . S
C763 C764 1.339 . S
C763 H798 0.949 . S
C764 C763 1.339 . S
C764 C765 1.439 . S
C764 H799 0.950 . S
C765 N761 1.383 . S
C765 C764 1.439 . S
C765 C794 1.392 . S
N766 Co760 2.008 1_556 S
N766 C767 1.376 . S
N766 C770 1.374 1_556 S
C767 N766 1.376 . S
C767 C768 1.443 . S
C767 C794 1.389 . S
C768 C767 1.443 . S
C768 C769 1.340 . S
C768 H800 0.951 . S
C769 C768 1.340 . S
C769 C770 1.439 1_556 S
C769 H801 0.950 . S
C770 N766 1.374 1_554 S
C770 C769 1.439 1_554 S
C770 C795 1.395 . S
N771 Co760 1.995 . S
N771 C772 1.376 . S
N771 C775 1.383 . S
C772 N771 1.376 . S
C772 C773 1.446 . S
C772 C795 1.391 . S
C773 C772 1.446 . S
C773 C774 1.339 . S
C773 H802 0.949 . S
C774 C773 1.339 . S
C774 C775 1.439 . S
C774 H803 0.950 . S
C775 N771 1.383 . S
C775 C774 1.439 . S
C775 C793 1.392 . S
N776 Co760 2.282 . S
N776 C779 1.332 . S
N776 C781 1.332 . S
C777 C778 1.386 . S
C777 C780 1.388 . S
C778 C777 1.386 . S
C778 C779 1.382 . S
C778 H804 0.950 . S
C779 N776 1.332 . S
C779 C778 1.382 . S
C779 H790 0.952 . S
C780 C777 1.388 . S
C780 C781 1.382 . S
C780 H805 0.950 . S
C781 N776 1.332 . S
C781 C780 1.382 . S
C781 H791 0.948 . S
N782 Co760 2.282 1_556 S
N782 C786 1.332 . S
N782 C787 1.332 . S
C783 C784 1.388 . S
C783 C787 1.382 . S
C783 H806 0.950 . S
C784 C783 1.388 . S
C784 C785 1.386 . S
C785 C784 1.386 . S
C785 C786 1.382 . S
C785 H807 0.950 . S
C786 N782 1.332 . S
C786 C785 1.382 . S
C786 H788 0.952 . S
C787 N782 1.332 . S
C787 C783 1.382 . S
C787 H789 0.948 . S
H788 C786 0.952 . S
H789 C787 0.948 . S
H790 C779 0.952 . S
H791 C781 0.948 . S
C792 C758 1.395 1_556 S
C792 C762 1.391 . S
C793 C755 1.389 . S
C793 C775 1.392 . S
C794 C765 1.392 . S
C794 C767 1.389 . S
C795 C770 1.395 . S
C795 C772 1.391 . S
H796 C756 0.951 . S
H797 C757 0.950 . S
H798 C763 0.949 . S
H799 C764 0.950 . S
H800 C768 0.951 . S
H801 C769 0.950 . S
H802 C773 0.949 . S
H803 C774 0.950 . S
H804 C778 0.950 . S
H805 C780 0.950 . S
H806 C783 0.950 . S
H807 C785 0.950 . S
H808 C816 0.950 . S
H809 C821 0.950 . S
H810 C818 0.950 . S
H811 C820 0.950 . S
H812 C822 0.950 . S
H813 C824 0.950 . S
H814 C826 0.950 . S
H815 C827 0.950 . S
C816 H808 0.950 . S
C816 C817 1.386 . S
C816 C818 1.391 . S
C817 C816 1.386 . S
C817 C821 1.393 . S
C818 H810 0.950 . S
C818 C816 1.391 . S
C818 C819 1.400 . S
C819 C818 1.400 . S
C819 C820 1.398 . S
C819 C825 1.491 . S
C820 H811 0.950 . S
C820 C819 1.398 . S
C820 C821 1.391 . S
C821 H809 0.950 . S
C821 C817 1.393 . S
C821 C820 1.391 . S
C822 H812 0.950 . S
C822 C823 1.386 . S
C822 C824 1.391 . S
C823 C822 1.386 . S
C823 C827 1.393 . S
C824 H813 0.950 . S
C824 C822 1.391 . S
C824 C825 1.400 . S
C825 C819 1.491 . S
C825 C824 1.400 . S
C825 C826 1.398 . S
C826 H814 0.950 . S
C826 C825 1.398 . S
C826 C827 1.391 . S
C827 H815 0.950 . S
C827 C823 1.393 . S
C827 C826 1.391 . S
H828 C836 0.950 . S
H829 C841 0.950 . S
H830 C838 0.950 . S
H831 C840 0.950 . S
H832 C842 0.950 . S
H833 C844 0.950 . S
H834 C846 0.950 . S
H835 C847 0.950 . S
C836 H828 0.950 . S
C836 C837 1.386 . S
C836 C838 1.391 . S
C837 C836 1.386 . S
C837 C841 1.393 . S
C838 H830 0.950 . S
C838 C836 1.391 . S
C838 C839 1.400 . S
C839 C838 1.400 . S
C839 C840 1.398 . S
C839 C845 1.491 . S
C840 H831 0.950 . S
C840 C839 1.398 . S
C840 C841 1.391 . S
C841 H829 0.950 . S
C841 C837 1.393 . S
C841 C840 1.391 . S
C842 H832 0.950 . S
C842 C843 1.386 . S
C842 C844 1.391 . S
C843 C842 1.386 . S
C843 C847 1.393 . S
C844 H833 0.950 . S
C844 C842 1.391 . S
C844 C845 1.400 . S
C845 C839 1.491 . S
C845 C844 1.400 . S
C845 C846 1.398 . S
C846 H834 0.950 . S
C846 C845 1.398 . S
C846 C847 1.391 . S
C847 H835 0.950 . S
C847 C843 1.393 . S
C847 C846 1.391 . S
H848 C856 0.950 . S
H849 C861 0.950 . S
H850 C858 0.950 . S
H851 C860 0.950 . S
H852 C862 0.950 . S
H853 C864 0.950 . S
H854 C866 0.950 . S
H855 C867 0.950 . S
C856 H848 0.950 . S
C856 C857 1.386 . S
C856 C858 1.391 . S
C857 C856 1.386 . S
C857 C861 1.393 . S
C858 H850 0.950 . S
C858 C856 1.391 . S
C858 C859 1.400 . S
C859 C858 1.400 . S
C859 C860 1.398 . S
C859 C865 1.491 . S
C860 H851 0.950 . S
C860 C859 1.398 . S
C860 C861 1.391 . S
C861 H849 0.950 . S
C861 C857 1.393 . S
C861 C860 1.391 . S
C862 H852 0.950 . S
C862 C863 1.386 . S
C862 C864 1.391 . S
C863 C862 1.386 . S
C863 C867 1.393 . S
C864 H853 0.950 . S
C864 C862 1.391 . S
C864 C865 1.400 . S
C865 C859 1.491 . S
C865 C864 1.400 . S
C865 C866 1.398 . S
C866 H854 0.950 . S
C866 C865 1.398 . S
C866 C867 1.391 . S
C867 H855 0.950 . S
C867 C863 1.393 . S
C867 C866 1.391 . S
H868 C876 0.950 . S
H869 C881 0.950 . S
H870 C878 0.950 . S
H871 C880 0.950 . S
H872 C882 0.950 . S
H873 C884 0.950 . S
H874 C886 0.950 . S
H875 C887 0.950 . S
C876 H868 0.950 . S
C876 C877 1.386 . S
C876 C878 1.391 . S
C877 C876 1.386 . S
C877 C881 1.393 . S
C878 H870 0.950 . S
C878 C876 1.391 . S
C878 C879 1.400 . S
C879 C878 1.400 . S
C879 C880 1.398 . S
C879 C885 1.491 . S
C880 H871 0.950 . S
C880 C879 1.398 . S
C880 C881 1.391 . S
C881 H869 0.950 . S
C881 C877 1.393 . S
C881 C880 1.391 . S
C882 H872 0.950 . S
C882 C883 1.386 . S
C882 C884 1.391 . S
C883 C882 1.386 . S
C883 C887 1.393 . S
C884 H873 0.950 . S
C884 C882 1.391 . S
C884 C885 1.400 . S
C885 C879 1.491 . S
C885 C884 1.400 . S
C885 C886 1.398 . S
C886 H874 0.950 . S
C886 C885 1.398 . S
C886 C887 1.391 . S
C887 H875 0.950 . S
C887 C883 1.393 . S
C887 C886 1.391 . S
H888 C896 0.950 . S
H889 C901 0.950 . S
H890 C898 0.950 . S
H891 C900 0.950 . S
H892 C902 0.950 . S
H893 C904 0.950 . S
H894 C906 0.950 . S
H895 C907 0.950 . S
C896 H888 0.950 . S
C896 C897 1.386 . S
C896 C898 1.391 . S
C897 C896 1.386 . S
C897 C901 1.393 . S
C898 H890 0.950 . S
C898 C896 1.391 . S
C898 C899 1.400 . S
C899 C898 1.400 . S
C899 C900 1.398 . S
C899 C905 1.491 . S
C900 H891 0.950 . S
C900 C899 1.398 . S
C900 C901 1.391 . S
C901 H889 0.950 . S
C901 C897 1.393 . S
C901 C900 1.391 . S
C902 H892 0.950 . S
C902 C903 1.386 . S
C902 C904 1.391 . S
C903 C902 1.386 . S
C903 C907 1.393 . S
C904 H893 0.950 . S
C904 C902 1.391 . S
C904 C905 1.400 . S
C905 C899 1.491 . S
C905 C904 1.400 . S
C905 C906 1.398 . S
C906 H894 0.950 . S
C906 C905 1.398 . S
C906 C907 1.391 . S
C907 H895 0.950 . S
C907 C903 1.393 . S
C907 C906 1.391 . S
H908 C916 0.950 . S
H909 C921 0.950 . S
H910 C918 0.950 . S
H911 C920 0.950 . S
H912 C922 0.950 . S
H913 C924 0.950 . S
H914 C926 0.950 . S
H915 C927 0.950 . S
C916 H908 0.950 . S
C916 C917 1.386 . S
C916 C918 1.391 . S
C917 C916 1.386 . S
C917 C921 1.393 . S
C918 H910 0.950 . S
C918 C916 1.391 . S
C918 C919 1.400 . S
C919 C918 1.400 . S
C919 C920 1.398 . S
C919 C925 1.491 . S
C920 H911 0.950 . S
C920 C919 1.398 . S
C920 C921 1.391 . S
C921 H909 0.950 . S
C921 C917 1.393 . S
C921 C920 1.391 . S
C922 H912 0.950 . S
C922 C923 1.386 . S
C922 C924 1.391 . S
C923 C922 1.386 . S
C923 C927 1.393 . S
C924 H913 0.950 . S
C924 C922 1.391 . S
C924 C925 1.400 . S
C925 C919 1.491 . S
C925 C924 1.400 . S
C925 C926 1.398 . S
C926 H914 0.950 . S
C926 C925 1.398 . S
C926 C927 1.391 . S
C927 H915 0.950 . S
C927 C923 1.393 . S
C927 C926 1.391 . S
H928 C936 0.950 . S
H929 C941 0.950 . S
H930 C938 0.950 . S
H931 C940 0.950 . S
H932 C942 0.950 . S
H933 C944 0.950 . S
H934 C946 0.950 . S
H935 C947 0.950 . S
C936 H928 0.950 . S
C936 C937 1.386 . S
C936 C938 1.391 . S
C937 C936 1.386 . S
C937 C941 1.393 . S
C938 H930 0.950 . S
C938 C936 1.391 . S
C938 C939 1.400 . S
C939 C938 1.400 . S
C939 C940 1.398 . S
C939 C945 1.491 . S
C940 H931 0.950 . S
C940 C939 1.398 . S
C940 C941 1.391 . S
C941 H929 0.950 . S
C941 C937 1.393 . S
C941 C940 1.391 . S
C942 H932 0.950 . S
C942 C943 1.386 . S
C942 C944 1.391 . S
C943 C942 1.386 . S
C943 C947 1.393 . S
C944 H933 0.950 . S
C944 C942 1.391 . S
C944 C945 1.400 . S
C945 C939 1.491 . S
C945 C944 1.400 . S
C945 C946 1.398 . S
C946 H934 0.950 . S
C946 C945 1.398 . S
C946 C947 1.391 . S
C947 H935 0.950 . S
C947 C943 1.393 . S
C947 C946 1.391 . S
H948 C956 0.950 . S
H949 C961 0.950 . S
H950 C958 0.950 . S
H951 C960 0.950 . S
H952 C962 0.950 . S
H953 C964 0.950 . S
H954 C966 0.950 . S
H955 C967 0.950 . S
C956 H948 0.950 . S
C956 C957 1.386 . S
C956 C958 1.391 . S
C957 C956 1.386 . S
C957 C961 1.393 . S
C958 H950 0.950 . S
C958 C956 1.391 . S
C958 C959 1.400 . S
C959 C958 1.400 . S
C959 C960 1.398 . S
C959 C965 1.491 . S
C960 H951 0.950 . S
C960 C959 1.398 . S
C960 C961 1.391 . S
C961 H949 0.950 . S
C961 C957 1.393 . S
C961 C960 1.391 . S
C962 H952 0.950 . S
C962 C963 1.386 . S
C962 C964 1.391 . S
C963 C962 1.386 . S
C963 C967 1.393 . S
C964 H953 0.950 . S
C964 C962 1.391 . S
C964 C965 1.400 . S
C965 C959 1.491 . S
C965 C964 1.400 . S
C965 C966 1.398 . S
C966 H954 0.950 . S
C966 C965 1.398 . S
C966 C967 1.391 . S
C967 H955 0.950 . S
C967 C963 1.393 . S
C967 C966 1.391 . S
H968 C976 0.950 . S
H969 C981 0.950 . S
H970 C978 0.950 . S
H971 C980 0.950 . S
H972 C982 0.950 . S
H973 C984 0.950 . S
H974 C986 0.950 . S
H975 C987 0.950 . S
C976 H968 0.950 . S
C976 C977 1.386 . S
C976 C978 1.391 . S
C977 C976 1.386 . S
C977 C981 1.393 . S
C978 H970 0.950 . S
C978 C976 1.391 . S
C978 C979 1.400 . S
C979 C978 1.400 . S
C979 C980 1.398 . S
C979 C985 1.491 . S
C980 H971 0.950 . S
C980 C979 1.398 . S
C980 C981 1.391 . S
C981 H969 0.950 . S
C981 C977 1.393 . S
C981 C980 1.391 . S
C982 H972 0.950 . S
C982 C983 1.386 . S
C982 C984 1.391 . S
C983 C982 1.386 . S
C983 C987 1.393 . S
C984 H973 0.950 . S
C984 C982 1.391 . S
C984 C985 1.400 . S
C985 C979 1.491 . S
C985 C984 1.400 . S
C985 C986 1.398 . S
C986 H974 0.950 . S
C986 C985 1.398 . S
C986 C987 1.391 . S
C987 H975 0.950 . S
C987 C983 1.393 . S
C987 C986 1.391 . S
H988 C996 0.950 . S
H989 C1001 0.950 . S
H990 C998 0.950 . S
H991 C1000 0.950 . S
H992 C1002 0.950 . S
H993 C1004 0.950 . S
H994 C1006 0.950 . S
H995 C1007 0.950 . S
C996 H988 0.950 . S
C996 C997 1.386 . S
C996 C998 1.391 . S
C997 C996 1.386 . S
C997 C1001 1.393 . S
C998 H990 0.950 . S
C998 C996 1.391 . S
C998 C999 1.400 . S
C999 C998 1.400 . S
C999 C1000 1.398 . S
C999 C1005 1.491 . S
C1000 H991 0.950 . S
C1000 C999 1.398 . S
C1000 C1001 1.391 . S
C1001 H989 0.950 . S
C1001 C997 1.393 . S
C1001 C1000 1.391 . S
C1002 H992 0.950 . S
C1002 C1003 1.386 . S
C1002 C1004 1.391 . S
C1003 C1002 1.386 . S
C1003 C1007 1.393 . S
C1004 H993 0.950 . S
C1004 C1002 1.391 . S
C1004 C1005 1.400 . S
C1005 C999 1.491 . S
C1005 C1004 1.400 . S
C1005 C1006 1.398 . S
C1006 H994 0.950 . S
C1006 C1005 1.398 . S
C1006 C1007 1.391 . S
C1007 H995 0.950 . S
C1007 C1003 1.393 . S
C1007 C1006 1.391 . S
H1008 C1016 0.950 . S
H1009 C1021 0.950 . S
H1010 C1018 0.950 . S
H1011 C1020 0.950 . S
H1012 C1022 0.950 . S
H1013 C1024 0.950 . S
H1014 C1026 0.950 . S
H1015 C1027 0.950 . S
C1016 H1008 0.950 . S
C1016 C1017 1.386 . S
C1016 C1018 1.391 . S
C1017 C1016 1.386 . S
C1017 C1021 1.393 . S
C1018 H1010 0.950 . S
C1018 C1016 1.391 . S
C1018 C1019 1.400 . S
C1019 C1018 1.400 . S
C1019 C1020 1.398 . S
C1019 C1025 1.491 . S
C1020 H1011 0.950 . S
C1020 C1019 1.398 . S
C1020 C1021 1.391 . S
C1021 H1009 0.950 . S
C1021 C1017 1.393 . S
C1021 C1020 1.391 . S
C1022 H1012 0.950 . S
C1022 C1023 1.386 . S
C1022 C1024 1.391 . S
C1023 C1022 1.386 . S
C1023 C1027 1.393 . S
C1024 H1013 0.950 . S
C1024 C1022 1.391 . S
C1024 C1025 1.400 . S
C1025 C1019 1.491 . S
C1025 C1024 1.400 . S
C1025 C1026 1.398 . S
C1026 H1014 0.950 . S
C1026 C1025 1.398 . S
C1026 C1027 1.391 . S
C1027 H1015 0.950 . S
C1027 C1023 1.393 . S
C1027 C1026 1.391 . S
H1028 C1036 0.950 . S
H1029 C1041 0.950 . S
H1030 C1038 0.950 . S
H1031 C1040 0.950 . S
H1032 C1042 0.950 . S
H1033 C1044 0.950 . S
H1034 C1046 0.950 . S
H1035 C1047 0.950 . S
C1036 H1028 0.950 . S
C1036 C1037 1.386 . S
C1036 C1038 1.391 . S
C1037 C1036 1.386 . S
C1037 C1041 1.393 . S
C1038 H1030 0.950 . S
C1038 C1036 1.391 . S
C1038 C1039 1.400 . S
C1039 C1038 1.400 . S
C1039 C1040 1.398 . S
C1039 C1045 1.491 . S
C1040 H1031 0.950 . S
C1040 C1039 1.398 . S
C1040 C1041 1.391 . S
C1041 H1029 0.950 . S
C1041 C1037 1.393 . S
C1041 C1040 1.391 . S
C1042 H1032 0.950 . S
C1042 C1043 1.386 . S
C1042 C1044 1.391 . S
C1043 C1042 1.386 . S
C1043 C1047 1.393 . S
C1044 H1033 0.950 . S
C1044 C1042 1.391 . S
C1044 C1045 1.400 . S
C1045 C1039 1.491 . S
C1045 C1044 1.400 . S
C1045 C1046 1.398 . S
C1046 H1034 0.950 . S
C1046 C1045 1.398 . S
C1046 C1047 1.391 . S
C1047 H1035 0.950 . S
C1047 C1043 1.393 . S
C1047 C1046 1.391 . S
H1048 C1056 0.950 . S
H1049 C1061 0.950 . S
H1050 C1058 0.950 . S
H1051 C1060 0.950 . S
H1052 C1062 0.950 . S
H1053 C1064 0.950 . S
H1054 C1066 0.950 . S
H1055 C1067 0.950 . S
C1056 H1048 0.950 . S
C1056 C1057 1.386 . S
C1056 C1058 1.391 . S
C1057 C1056 1.386 . S
C1057 C1061 1.393 . S
C1058 H1050 0.950 . S
C1058 C1056 1.391 . S
C1058 C1059 1.400 . S
C1059 C1058 1.400 . S
C1059 C1060 1.398 . S
C1059 C1065 1.491 . S
C1060 H1051 0.950 . S
C1060 C1059 1.398 . S
C1060 C1061 1.391 . S
C1061 H1049 0.950 . S
C1061 C1057 1.393 . S
C1061 C1060 1.391 . S
C1062 H1052 0.950 . S
C1062 C1063 1.386 . S
C1062 C1064 1.391 . S
C1063 C1062 1.386 . S
C1063 C1067 1.393 . S
C1064 H1053 0.950 . S
C1064 C1062 1.391 . S
C1064 C1065 1.400 . S
C1065 C1059 1.491 . S
C1065 C1064 1.400 . S
C1065 C1066 1.398 . S
C1066 H1054 0.950 . S
C1066 C1065 1.398 . S
C1066 C1067 1.391 . S
C1067 H1055 0.950 . S
C1067 C1063 1.393 . S
C1067 C1066 1.391 . S
H1068 C1076 0.950 . S
H1069 C1081 0.950 . S
H1070 C1078 0.950 . S
H1071 C1080 0.950 . S
H1072 C1082 0.950 . S
H1073 C1084 0.950 . S
H1074 C1086 0.950 . S
H1075 C1087 0.950 . S
C1076 H1068 0.950 . S
C1076 C1077 1.386 . S
C1076 C1078 1.391 . S
C1077 C1076 1.386 . S
C1077 C1081 1.393 . S
C1078 H1070 0.950 . S
C1078 C1076 1.391 . S
C1078 C1079 1.400 . S
C1079 C1078 1.400 . S
C1079 C1080 1.398 . S
C1079 C1085 1.491 . S
C1080 H1071 0.950 . S
C1080 C1079 1.398 . S
C1080 C1081 1.391 . S
C1081 H1069 0.950 . S
C1081 C1077 1.393 . S
C1081 C1080 1.391 . S
C1082 H1072 0.950 . S
C1082 C1083 1.386 . S
C1082 C1084 1.391 . S
C1083 C1082 1.386 . S
C1083 C1087 1.393 . S
C1084 H1073 0.950 . S
C1084 C1082 1.391 . S
C1084 C1085 1.400 . S
C1085 C1079 1.491 . S
C1085 C1084 1.400 . S
C1085 C1086 1.398 . S
C1086 H1074 0.950 . S
C1086 C1085 1.398 . S
C1086 C1087 1.391 . S
C1087 H1075 0.950 . S
C1087 C1083 1.393 . S
C1087 C1086 1.391 . S
H1088 C1096 0.950 . S
H1089 C1101 0.950 . S
H1090 C1098 0.950 . S
H1091 C1100 0.950 . S
H1092 C1102 0.950 . S
H1093 C1104 0.950 . S
H1094 C1106 0.950 . S
H1095 C1107 0.950 . S
C1096 H1088 0.950 . S
C1096 C1097 1.386 . S
C1096 C1098 1.391 . S
C1097 C1096 1.386 . S
C1097 C1101 1.393 . S
C1098 H1090 0.950 . S
C1098 C1096 1.391 . S
C1098 C1099 1.400 . S
C1099 C1098 1.400 . S
C1099 C1100 1.398 . S
C1099 C1105 1.491 . S
C1100 H1091 0.950 . S
C1100 C1099 1.398 . S
C1100 C1101 1.391 . S
C1101 H1089 0.950 . S
C1101 C1097 1.393 . S
C1101 C1100 1.391 . S
C1102 H1092 0.950 . S
C1102 C1103 1.386 . S
C1102 C1104 1.391 . S
C1103 C1102 1.386 . S
C1103 C1107 1.393 . S
C1104 H1093 0.950 . S
C1104 C1102 1.391 . S
C1104 C1105 1.400 . S
C1105 C1099 1.491 . S
C1105 C1104 1.400 . S
C1105 C1106 1.398 . S
C1106 H1094 0.950 . S
C1106 C1105 1.398 . S
C1106 C1107 1.391 . S
C1107 H1095 0.950 . S
C1107 C1103 1.393 . S
C1107 C1106 1.391 . S
H1108 C1116 0.950 . S
H1109 C1121 0.950 . S
H1110 C1118 0.950 . S
H1111 C1120 0.950 . S
H1112 C1122 0.950 . S
H1113 C1124 0.950 . S
H1114 C1126 0.950 . S
H1115 C1127 0.950 . S
C1116 H1108 0.950 . S
C1116 C1117 1.386 . S
C1116 C1118 1.391 . S
C1117 C1116 1.386 . S
C1117 C1121 1.393 . S
C1118 H1110 0.950 . S
C1118 C1116 1.391 . S
C1118 C1119 1.400 . S
C1119 C1118 1.400 . S
C1119 C1120 1.398 . S
C1119 C1125 1.491 . S
C1120 H1111 0.950 . S
C1120 C1119 1.398 . S
C1120 C1121 1.391 . S
C1121 H1109 0.950 . S
C1121 C1117 1.393 . S
C1121 C1120 1.391 . S
C1122 H1112 0.950 . S
C1122 C1123 1.386 . S
C1122 C1124 1.391 . S
C1123 C1122 1.386 . S
C1123 C1127 1.393 . S
C1124 H1113 0.950 . S
C1124 C1122 1.391 . S
C1124 C1125 1.400 . S
C1125 C1119 1.491 . S
C1125 C1124 1.400 . S
C1125 C1126 1.398 . S
C1126 H1114 0.950 . S
C1126 C1125 1.398 . S
C1126 C1127 1.391 . S
C1127 H1115 0.950 . S
C1127 C1123 1.393 . S
C1127 C1126 1.391 . S
H1128 C1136 0.950 . S
H1129 C1141 0.950 . S
H1130 C1138 0.950 . S
H1131 C1140 0.950 . S
H1132 C1142 0.950 . S
H1133 C1144 0.950 . S
H1134 C1146 0.950 . S
H1135 C1147 0.950 . S
C1136 H1128 0.950 . S
C1136 C1137 1.386 . S
C1136 C1138 1.391 . S
C1137 C1136 1.386 . S
C1137 C1141 1.393 . S
C1138 H1130 0.950 . S
C1138 C1136 1.391 . S
C1138 C1139 1.400 . S
C1139 C1138 1.400 . S
C1139 C1140 1.398 . S
C1139 C1145 1.491 . S
C1140 H1131 0.950 . S
C1140 C1139 1.398 . S
C1140 C1141 1.391 . S
C1141 H1129 0.950 . S
C1141 C1137 1.393 . S
C1141 C1140 1.391 . S
C1142 H1132 0.950 . S
C1142 C1143 1.386 . S
C1142 C1144 1.391 . S
C1143 C1142 1.386 . S
C1143 C1147 1.393 . S
C1144 H1133 0.950 . S
C1144 C1142 1.391 . S
C1144 C1145 1.400 . S
C1145 C1139 1.491 . S
C1145 C1144 1.400 . S
C1145 C1146 1.398 . S
C1146 H1134 0.950 . S
C1146 C1145 1.398 . S
C1146 C1147 1.391 . S
C1147 H1135 0.950 . S
C1147 C1143 1.393 . S
C1147 C1146 1.391 . S
H1148 C1156 0.950 . S
H1149 C1161 0.950 . S
H1150 C1158 0.950 . S
H1151 C1160 0.950 . S
H1152 C1162 0.950 . S
H1153 C1164 0.950 . S
H1154 C1166 0.950 . S
H1155 C1167 0.950 . S
C1156 H1148 0.950 . S
C1156 C1157 1.386 . S
C1156 C1158 1.391 . S
C1157 C1156 1.386 . S
C1157 C1161 1.393 . S
C1158 H1150 0.950 . S
C1158 C1156 1.391 . S
C1158 C1159 1.400 . S
C1159 C1158 1.400 . S
C1159 C1160 1.398 . S
C1159 C1165 1.491 . S
C1160 H1151 0.950 . S
C1160 C1159 1.398 . S
C1160 C1161 1.391 . S
C1161 H1149 0.950 . S
C1161 C1157 1.393 . S
C1161 C1160 1.391 . S
C1162 H1152 0.950 . S
C1162 C1163 1.386 . S
C1162 C1164 1.391 . S
C1163 C1162 1.386 . S
C1163 C1167 1.393 . S
C1164 H1153 0.950 . S
C1164 C1162 1.391 . S
C1164 C1165 1.400 . S
C1165 C1159 1.491 . S
C1165 C1164 1.400 . S
C1165 C1166 1.398 . S
C1166 H1154 0.950 . S
C1166 C1165 1.398 . S
C1166 C1167 1.391 . S
C1167 H1155 0.950 . S
C1167 C1163 1.393 . S
C1167 C1166 1.391 . S
H1168 C1176 0.950 . S
H1169 C1181 0.950 . S
H1170 C1178 0.950 . S
H1171 C1180 0.950 . S
H1172 C1182 0.950 . S
H1173 C1184 0.950 . S
H1174 C1186 0.950 . S
H1175 C1187 0.950 . S
C1176 H1168 0.950 . S
C1176 C1177 1.386 . S
C1176 C1178 1.391 . S
C1177 C1176 1.386 . S
C1177 C1181 1.393 . S
C1178 H1170 0.950 . S
C1178 C1176 1.391 . S
C1178 C1179 1.400 . S
C1179 C1178 1.400 . S
C1179 C1180 1.398 . S
C1179 C1185 1.491 . S
C1180 H1171 0.950 . S
C1180 C1179 1.398 . S
C1180 C1181 1.391 . S
C1181 H1169 0.950 . S
C1181 C1177 1.393 . S
C1181 C1180 1.391 . S
C1182 H1172 0.950 . S
C1182 C1183 1.386 . S
C1182 C1184 1.391 . S
C1183 C1182 1.386 . S
C1183 C1187 1.393 . S
C1184 H1173 0.950 . S
C1184 C1182 1.391 . S
C1184 C1185 1.400 . S
C1185 C1179 1.491 . S
C1185 C1184 1.400 . S
C1185 C1186 1.398 . S
C1186 H1174 0.950 . S
C1186 C1185 1.398 . S
C1186 C1187 1.391 . S
C1187 H1175 0.950 . S
C1187 C1183 1.393 . S
C1187 C1186 1.391 . S
H1188 C1196 0.950 . S
H1189 C1201 0.950 . S
H1190 C1198 0.950 . S
H1191 C1200 0.950 . S
H1192 C1202 0.950 . S
H1193 C1204 0.950 . S
H1194 C1206 0.950 . S
H1195 C1207 0.950 . S
C1196 H1188 0.950 . S
C1196 C1197 1.386 . S
C1196 C1198 1.391 . S
C1197 C1196 1.386 . S
C1197 C1201 1.393 . S
C1198 H1190 0.950 . S
C1198 C1196 1.391 . S
C1198 C1199 1.400 . S
C1199 C1198 1.400 . S
C1199 C1200 1.398 . S
C1199 C1205 1.491 . S
C1200 H1191 0.950 . S
C1200 C1199 1.398 . S
C1200 C1201 1.391 . S
C1201 H1189 0.950 . S
C1201 C1197 1.393 . S
C1201 C1200 1.391 . S
C1202 H1192 0.950 . S
C1202 C1203 1.386 . S
C1202 C1204 1.391 . S
C1203 C1202 1.386 . S
C1203 C1207 1.393 . S
C1204 H1193 0.950 . S
C1204 C1202 1.391 . S
C1204 C1205 1.400 . S
C1205 C1199 1.491 . S
C1205 C1204 1.400 . S
C1205 C1206 1.398 . S
C1206 H1194 0.950 . S
C1206 C1205 1.398 . S
C1206 C1207 1.391 . S
C1207 H1195 0.950 . S
C1207 C1203 1.393 . S
C1207 C1206 1.391 . S
H1208 C1216 0.950 . S
H1209 C1221 0.950 . S
H1210 C1218 0.950 . S
H1211 C1220 0.950 . S
H1212 C1222 0.950 . S
H1213 C1224 0.950 . S
H1214 C1226 0.950 . S
H1215 C1227 0.950 . S
C1216 H1208 0.950 . S
C1216 C1217 1.386 . S
C1216 C1218 1.391 . S
C1217 C1216 1.386 . S
C1217 C1221 1.393 . S
C1218 H1210 0.950 . S
C1218 C1216 1.391 . S
C1218 C1219 1.400 . S
C1219 C1218 1.400 . S
C1219 C1220 1.398 . S
C1219 C1225 1.491 . S
C1220 H1211 0.950 . S
C1220 C1219 1.398 . S
C1220 C1221 1.391 . S
C1221 H1209 0.950 . S
C1221 C1217 1.393 . S
C1221 C1220 1.391 . S
C1222 H1212 0.950 . S
C1222 C1223 1.386 . S
C1222 C1224 1.391 . S
C1223 C1222 1.386 . S
C1223 C1227 1.393 . S
C1224 H1213 0.950 . S
C1224 C1222 1.391 . S
C1224 C1225 1.400 . S
C1225 C1219 1.491 . S
C1225 C1224 1.400 . S
C1225 C1226 1.398 . S
C1226 H1214 0.950 . S
C1226 C1225 1.398 . S
C1226 C1227 1.391 . S
C1227 H1215 0.950 . S
C1227 C1223 1.393 . S
C1227 C1226 1.391 . S
H1228 C1236 0.950 . S
H1229 C1241 0.950 . S
H1230 C1238 0.950 . S
H1231 C1240 0.950 . S
H1232 C1242 0.950 . S
H1233 C1244 0.950 . S
H1234 C1246 0.950 . S
H1235 C1247 0.950 . S
C1236 H1228 0.950 . S
C1236 C1237 1.386 . S
C1236 C1238 1.391 . S
C1237 C1236 1.386 . S
C1237 C1241 1.393 . S
C1238 H1230 0.950 . S
C1238 C1236 1.391 . S
C1238 C1239 1.400 . S
C1239 C1238 1.400 . S
C1239 C1240 1.398 . S
C1239 C1245 1.491 . S
C1240 H1231 0.950 . S
C1240 C1239 1.398 . S
C1240 C1241 1.391 . S
C1241 H1229 0.950 . S
C1241 C1237 1.393 . S
C1241 C1240 1.391 . S
C1242 H1232 0.950 . S
C1242 C1243 1.386 . S
C1242 C1244 1.391 . S
C1243 C1242 1.386 . S
C1243 C1247 1.393 . S
C1244 H1233 0.950 . S
C1244 C1242 1.391 . S
C1244 C1245 1.400 . S
C1245 C1239 1.491 . S
C1245 C1244 1.400 . S
C1245 C1246 1.398 . S
C1246 H1234 0.950 . S
C1246 C1245 1.398 . S
C1246 C1247 1.391 . S
C1247 H1235 0.950 . S
C1247 C1243 1.393 . S
C1247 C1246 1.391 . S
H1248 C1256 0.950 . S
H1249 C1261 0.950 . S
H1250 C1258 0.950 . S
H1251 C1260 0.950 . S
H1252 C1262 0.950 . S
H1253 C1264 0.950 . S
H1254 C1266 0.950 . S
H1255 C1267 0.950 . S
C1256 H1248 0.950 . S
C1256 C1257 1.386 . S
C1256 C1258 1.391 . S
C1257 C1256 1.386 . S
C1257 C1261 1.393 . S
C1258 H1250 0.950 . S
C1258 C1256 1.391 . S
C1258 C1259 1.400 . S
C1259 C1258 1.400 . S
C1259 C1260 1.398 . S
C1259 C1265 1.491 . S
C1260 H1251 0.950 . S
C1260 C1259 1.398 . S
C1260 C1261 1.391 . S
C1261 H1249 0.950 . S
C1261 C1257 1.393 . S
C1261 C1260 1.391 . S
C1262 H1252 0.950 . S
C1262 C1263 1.386 . S
C1262 C1264 1.391 . S
C1263 C1262 1.386 . S
C1263 C1267 1.393 . S
C1264 H1253 0.950 . S
C1264 C1262 1.391 . S
C1264 C1265 1.400 . S
C1265 C1259 1.491 . S
C1265 C1264 1.400 . S
C1265 C1266 1.398 . S
C1266 H1254 0.950 . S
C1266 C1265 1.398 . S
C1266 C1267 1.391 . S
C1267 H1255 0.950 . S
C1267 C1263 1.393 . S
C1267 C1266 1.391 . S
H1268 C1276 0.950 . S
H1269 C1281 0.950 . S
H1270 C1278 0.950 . S
H1271 C1280 0.950 . S
H1272 C1282 0.950 . S
H1273 C1284 0.950 . S
H1274 C1286 0.950 . S
H1275 C1287 0.950 . S
C1276 H1268 0.950 . S
C1276 C1277 1.386 . S
C1276 C1278 1.391 . S
C1277 C1276 1.386 . S
C1277 C1281 1.393 . S
C1278 H1270 0.950 . S
C1278 C1276 1.391 . S
C1278 C1279 1.400 . S
C1279 C1278 1.400 . S
C1279 C1280 1.398 . S
C1279 C1285 1.491 . S
C1280 H1271 0.950 . S
C1280 C1279 1.398 . S
C1280 C1281 1.391 . S
C1281 H1269 0.950 . S
C1281 C1277 1.393 . S
C1281 C1280 1.391 . S
C1282 H1272 0.950 . S
C1282 C1283 1.386 . S
C1282 C1284 1.391 . S
C1283 C1282 1.386 . S
C1283 C1287 1.393 . S
C1284 H1273 0.950 . S
C1284 C1282 1.391 . S
C1284 C1285 1.400 . S
C1285 C1279 1.491 . S
C1285 C1284 1.400 . S
C1285 C1286 1.398 . S
C1286 H1274 0.950 . S
C1286 C1285 1.398 . S
C1286 C1287 1.391 . S
C1287 H1275 0.950 . S
C1287 C1283 1.393 . S
C1287 C1286 1.391 . S
H1288 C1296 0.950 . S
H1289 C1301 0.950 . S
H1290 C1298 0.950 . S
H1291 C1300 0.950 . S
H1292 C1302 0.950 . S
H1293 C1304 0.950 . S
H1294 C1306 0.950 . S
H1295 C1307 0.950 . S
C1296 H1288 0.950 . S
C1296 C1297 1.386 . S
C1296 C1298 1.391 . S
C1297 C1296 1.386 . S
C1297 C1301 1.393 . S
C1298 H1290 0.950 . S
C1298 C1296 1.391 . S
C1298 C1299 1.400 . S
C1299 C1298 1.400 . S
C1299 C1300 1.398 . S
C1299 C1305 1.491 . S
C1300 H1291 0.950 . S
C1300 C1299 1.398 . S
C1300 C1301 1.391 . S
C1301 H1289 0.950 . S
C1301 C1297 1.393 . S
C1301 C1300 1.391 . S
C1302 H1292 0.950 . S
C1302 C1303 1.386 . S
C1302 C1304 1.391 . S
C1303 C1302 1.386 . S
C1303 C1307 1.393 . S
C1304 H1293 0.950 . S
C1304 C1302 1.391 . S
C1304 C1305 1.400 . S
C1305 C1299 1.491 . S
C1305 C1304 1.400 . S
C1305 C1306 1.398 . S
C1306 H1294 0.950 . S
C1306 C1305 1.398 . S
C1306 C1307 1.391 . S
C1307 H1295 0.950 . S
C1307 C1303 1.393 . S
C1307 C1306 1.391 . S
H1308 C1316 0.950 . S
H1309 C1321 0.950 . S
H1310 C1318 0.950 . S
H1311 C1320 0.950 . S
H1312 C1322 0.950 . S
H1313 C1324 0.950 . S
H1314 C1326 0.950 . S
H1315 C1327 0.950 . S
C1316 H1308 0.950 . S
C1316 C1317 1.386 . S
C1316 C1318 1.391 . S
C1317 C1316 1.386 . S
C1317 C1321 1.393 . S
C1318 H1310 0.950 . S
C1318 C1316 1.391 . S
C1318 C1319 1.400 . S
C1319 C1318 1.400 . S
C1319 C1320 1.398 . S
C1319 C1325 1.491 . S
C1320 H1311 0.950 . S
C1320 C1319 1.398 . S
C1320 C1321 1.391 . S
C1321 H1309 0.950 . S
C1321 C1317 1.393 . S
C1321 C1320 1.391 . S
C1322 H1312 0.950 . S
C1322 C1323 1.386 . S
C1322 C1324 1.391 . S
C1323 C1322 1.386 . S
C1323 C1327 1.393 . S
C1324 H1313 0.950 . S
C1324 C1322 1.391 . S
C1324 C1325 1.400 . S
C1325 C1319 1.491 . S
C1325 C1324 1.400 . S
C1325 C1326 1.398 . S
C1326 H1314 0.950 . S
C1326 C1325 1.398 . S
C1326 C1327 1.391 . S
C1327 H1315 0.950 . S
C1327 C1323 1.393 . S
C1327 C1326 1.391 . S
H1328 C1336 0.950 . S
H1329 C1341 0.950 . S
H1330 C1338 0.950 . S
H1331 C1340 0.950 . S
H1332 C1342 0.950 . S
H1333 C1344 0.950 . S
H1334 C1346 0.950 . S
H1335 C1347 0.950 . S
C1336 H1328 0.950 . S
C1336 C1337 1.386 . S
C1336 C1338 1.391 . S
C1337 C1336 1.386 . S
C1337 C1341 1.393 . S
C1338 H1330 0.950 . S
C1338 C1336 1.391 . S
C1338 C1339 1.400 . S
C1339 C1338 1.400 . S
C1339 C1340 1.398 . S
C1339 C1345 1.491 . S
C1340 H1331 0.950 . S
C1340 C1339 1.398 . S
C1340 C1341 1.391 . S
C1341 H1329 0.950 . S
C1341 C1337 1.393 . S
C1341 C1340 1.391 . S
C1342 H1332 0.950 . S
C1342 C1343 1.386 . S
C1342 C1344 1.391 . S
C1343 C1342 1.386 . S
C1343 C1347 1.393 . S
C1344 H1333 0.950 . S
C1344 C1342 1.391 . S
C1344 C1345 1.400 . S
C1345 C1339 1.491 . S
C1345 C1344 1.400 . S
C1345 C1346 1.398 . S
C1346 H1334 0.950 . S
C1346 C1345 1.398 . S
C1346 C1347 1.391 . S
C1347 H1335 0.950 . S
C1347 C1343 1.393 . S
C1347 C1346 1.391 . S
H1348 C1356 0.950 . S
H1349 C1361 0.950 . S
H1350 C1358 0.950 . S
H1351 C1360 0.950 . S
H1352 C1362 0.950 . S
H1353 C1364 0.950 . S
H1354 C1366 0.950 . S
H1355 C1367 0.950 . S
C1356 H1348 0.950 . S
C1356 C1357 1.386 . S
C1356 C1358 1.391 . S
C1357 C1356 1.386 . S
C1357 C1361 1.393 . S
C1358 H1350 0.950 . S
C1358 C1356 1.391 . S
C1358 C1359 1.400 . S
C1359 C1358 1.400 . S
C1359 C1360 1.398 . S
C1359 C1365 1.491 . S
C1360 H1351 0.950 . S
C1360 C1359 1.398 . S
C1360 C1361 1.391 . S
C1361 H1349 0.950 . S
C1361 C1357 1.393 . S
C1361 C1360 1.391 . S
C1362 H1352 0.950 . S
C1362 C1363 1.386 . S
C1362 C1364 1.391 . S
C1363 C1362 1.386 . S
C1363 C1367 1.393 . S
C1364 H1353 0.950 . S
C1364 C1362 1.391 . S
C1364 C1365 1.400 . S
C1365 C1359 1.491 . S
C1365 C1364 1.400 . S
C1365 C1366 1.398 . S
C1366 H1354 0.950 . S
C1366 C1365 1.398 . S
C1366 C1367 1.391 . S
C1367 H1355 0.950 . S
C1367 C1363 1.393 . S
C1367 C1366 1.391 . S
H1368 C1376 0.950 . S
H1369 C1381 0.950 . S
H1370 C1378 0.950 . S
H1371 C1380 0.950 . S
H1372 C1382 0.950 . S
H1373 C1384 0.950 . S
H1374 C1386 0.950 . S
H1375 C1387 0.950 . S
C1376 H1368 0.950 . S
C1376 C1377 1.386 . S
C1376 C1378 1.391 . S
C1377 C1376 1.386 . S
C1377 C1381 1.393 . S
C1378 H1370 0.950 . S
C1378 C1376 1.391 . S
C1378 C1379 1.400 . S
C1379 C1378 1.400 . S
C1379 C1380 1.398 . S
C1379 C1385 1.491 . S
C1380 H1371 0.950 . S
C1380 C1379 1.398 . S
C1380 C1381 1.391 . S
C1381 H1369 0.950 . S
C1381 C1377 1.393 . S
C1381 C1380 1.391 . S
C1382 H1372 0.950 . S
C1382 C1383 1.386 . S
C1382 C1384 1.391 . S
C1383 C1382 1.386 . S
C1383 C1387 1.393 . S
C1384 H1373 0.950 . S
C1384 C1382 1.391 . S
C1384 C1385 1.400 . S
C1385 C1379 1.491 . S
C1385 C1384 1.400 . S
C1385 C1386 1.398 . S
C1386 H1374 0.950 . S
C1386 C1385 1.398 . S
C1386 C1387 1.391 . S
C1387 H1375 0.950 . S
C1387 C1383 1.393 . S
C1387 C1386 1.391 . S
H1388 C1396 0.950 . S
H1389 C1401 0.950 . S
H1390 C1398 0.950 . S
H1391 C1400 0.950 . S
H1392 C1402 0.950 . S
H1393 C1404 0.950 . S
H1394 C1406 0.950 . S
H1395 C1407 0.950 . S
C1396 H1388 0.950 . S
C1396 C1397 1.386 . S
C1396 C1398 1.391 . S
C1397 C1396 1.386 . S
C1397 C1401 1.393 . S
C1398 H1390 0.950 . S
C1398 C1396 1.391 . S
C1398 C1399 1.400 . S
C1399 C1398 1.400 . S
C1399 C1400 1.398 . S
C1399 C1405 1.491 . S
C1400 H1391 0.950 . S
C1400 C1399 1.398 . S
C1400 C1401 1.391 . S
C1401 H1389 0.950 . S
C1401 C1397 1.393 . S
C1401 C1400 1.391 . S
C1402 H1392 0.950 . S
C1402 C1403 1.386 . S
C1402 C1404 1.391 . S
C1403 C1402 1.386 . S
C1403 C1407 1.393 . S
C1404 H1393 0.950 . S
C1404 C1402 1.391 . S
C1404 C1405 1.400 . S
C1405 C1399 1.491 . S
C1405 C1404 1.400 . S
C1405 C1406 1.398 . S
C1406 H1394 0.950 . S
C1406 C1405 1.398 . S
C1406 C1407 1.391 . S
C1407 H1395 0.950 . S
C1407 C1403 1.393 . S
C1407 C1406 1.391 . S
H1408 C1416 0.950 . S
H1409 C1421 0.950 . S
H1410 C1418 0.950 . S
H1411 C1420 0.950 . S
H1412 C1422 0.950 . S
H1413 C1424 0.950 . S
H1414 C1426 0.950 . S
H1415 C1427 0.950 . S
C1416 H1408 0.950 . S
C1416 C1417 1.386 . S
C1416 C1418 1.391 . S
C1417 C1416 1.386 . S
C1417 C1421 1.393 . S
C1418 H1410 0.950 . S
C1418 C1416 1.391 . S
C1418 C1419 1.400 . S
C1419 C1418 1.400 . S
C1419 C1420 1.398 . S
C1419 C1425 1.491 . S
C1420 H1411 0.950 . S
C1420 C1419 1.398 . S
C1420 C1421 1.391 . S
C1421 H1409 0.950 . S
C1421 C1417 1.393 . S
C1421 C1420 1.391 . S
C1422 H1412 0.950 . S
C1422 C1423 1.386 . S
C1422 C1424 1.391 . S
C1423 C1422 1.386 . S
C1423 C1427 1.393 . S
C1424 H1413 0.950 . S
C1424 C1422 1.391 . S
C1424 C1425 1.400 . S
C1425 C1419 1.491 . S
C1425 C1424 1.400 . S
C1425 C1426 1.398 . S
C1426 H1414 0.950 . S
C1426 C1425 1.398 . S
C1426 C1427 1.391 . S
C1427 H1415 0.950 . S
C1427 C1423 1.393 . S
C1427 C1426 1.391 . S
H1428 C1436 0.950 . S
H1429 C1441 0.950 . S
H1430 C1438 0.950 . S
H1431 C1440 0.950 . S
H1432 C1442 0.950 . S
H1433 C1444 0.950 . S
H1434 C1446 0.950 . S
H1435 C1447 0.950 . S
C1436 H1428 0.950 . S
C1436 C1437 1.386 . S
C1436 C1438 1.391 . S
C1437 C1436 1.386 . S
C1437 C1441 1.393 . S
C1438 H1430 0.950 . S
C1438 C1436 1.391 . S
C1438 C1439 1.400 . S
C1439 C1438 1.400 . S
C1439 C1440 1.398 . S
C1439 C1445 1.491 . S
C1440 H1431 0.950 . S
C1440 C1439 1.398 . S
C1440 C1441 1.391 . S
C1441 H1429 0.950 . S
C1441 C1437 1.393 . S
C1441 C1440 1.391 . S
C1442 H1432 0.950 . S
C1442 C1443 1.386 . S
C1442 C1444 1.391 . S
C1443 C1442 1.386 . S
C1443 C1447 1.393 . S
C1444 H1433 0.950 . S
C1444 C1442 1.391 . S
C1444 C1445 1.400 . S
C1445 C1439 1.491 . S
C1445 C1444 1.400 . S
C1445 C1446 1.398 . S
C1446 H1434 0.950 . S
C1446 C1445 1.398 . S
C1446 C1447 1.391 . S
C1447 H1435 0.950 . S
C1447 C1443 1.393 . S
C1447 C1446 1.391 . S
C823 C413 1.457 . S
C817 C36 1.455 . S
C843 C466 1.285 . S
C837 C93 1.280 . S
C863 C529 1.528 . S
C857 C132 1.528 . S
C883 C572 1.252 . S
C877 C174 1.252 . S
C897 C213 1.524 . S
C903 C528 1.524 . S
C923 C565 1.311 . S
C917 C285 1.302 . S
C943 C406 1.462 . S
C937 C324 1.461 . S
C963 C459 1.225 . S
C957 C366 1.218 . S
C983 C512 1.483 . S
C977 C357 1.477 . S
C1003 C581 1.793 . S
C997 C222 1.789 . S
C1023 C422 1.555 . S
C1017 C276 1.553 . S
C1043 C475 1.719 . S
C1037 C333 1.711 . S
C1063 C423 1.546 . S
C1057 C84 1.547 . S
C1083 C476 1.786 . S
C1077 C141 1.775 . S
C1103 C519 1.494 . S
C1097 C165 1.491 . S
C1123 C582 1.730 . S
C1117 C45 1.723 . S
C1143 C625 1.431 . S
C1137 C372 1.431 . S
C1157 C237 1.658 . S
C1163 C678 1.670 . S
C1177 C261 1.551 . S
C1183 C740 1.555 . S
C1197 C318 1.659 . S
C1203 C794 1.668 . S
C1217 C69 1.487 . S
C1223 C741 1.492 . S
C1237 C126 1.726 . S
C1243 C793 1.734 . S
C1257 C180 1.486 . S
C1263 C618 1.486 . S
C1283 C671 1.613 . S
C1277 C30 1.613 . S
C1303 C731 1.457 . S
C1297 C21 1.453 . S
C1317 C78 1.336 . S
C1323 C777 1.336 . S
C1337 C117 1.577 . S
C1343 C634 1.578 . S
C1357 C189 1.320 . S
C1363 C687 1.325 . S
C1383 C635 1.516 . S
C1377 C228 1.511 . S
C1403 C688 1.391 . S
C1397 C270 1.392 . S
C1417 C309 1.513 . S
C1423 C724 1.515 . S
C1443 C784 1.281 . S
C1437 C381 1.276 . S
