# Generated by pormake.
# Topology ptr, (4,4)-cn, num edge types: 1
# Building blocks:
#     Node 0, Type 0, BuildingBlock: QUQFOY_clean_sbu_1, # of connection points: 4
#     Node 1, Type 0, BuildingBlock: QUQFOY_clean_sbu_1, # of connection points: 4
#     Node 2, Type 0, BuildingBlock: QUQFOY_clean_sbu_1, # of connection points: 4
#     Node 3, Type 0, BuildingBlock: QUQFOY_clean_sbu_1, # of connection points: 4
#     Node 4, Type 0, BuildingBlock: QUQFOY_clean_sbu_1, # of connection points: 4
#     Node 5, Type 0, BuildingBlock: QUQFOY_clean_sbu_1, # of connection points: 4
#     Node 6, Type 0, BuildingBlock: QUQFOY_clean_sbu_1, # of connection points: 4
#     Node 7, Type 0, BuildingBlock: QUQFOY_clean_sbu_1, # of connection points: 4
#     Node 8, Type 0, BuildingBlock: QUQFOY_clean_sbu_1, # of connection points: 4
#     Node 9, Type 0, BuildingBlock: QUQFOY_clean_sbu_1, # of connection points: 4
#     Node 10, Type 0, BuildingBlock: QUQFOY_clean_sbu_1, # of connection points: 4
#     Node 11, Type 0, BuildingBlock: QUQFOY_clean_sbu_1, # of connection points: 4
#     Node 12, Type 0, BuildingBlock: QUQFOY_clean_sbu_1, # of connection points: 4
#     Node 13, Type 0, BuildingBlock: QUQFOY_clean_sbu_1, # of connection points: 4
#     Node 14, Type 0, BuildingBlock: QUQFOY_clean_sbu_1, # of connection points: 4
#     Node 15, Type 0, BuildingBlock: QUQFOY_clean_sbu_1, # of connection points: 4
#     Node 16, Type 0, BuildingBlock: QUQFOY_clean_sbu_1, # of connection points: 4
#     Node 17, Type 0, BuildingBlock: QUQFOY_clean_sbu_1, # of connection points: 4
#     Node 18, Type 1, BuildingBlock: NAWXER_clean_linker_0, # of connection points: 4
#     Node 19, Type 1, BuildingBlock: NAWXER_clean_linker_0, # of connection points: 4
#     Node 20, Type 1, BuildingBlock: NAWXER_clean_linker_0, # of connection points: 4
#     Node 21, Type 1, BuildingBlock: NAWXER_clean_linker_0, # of connection points: 4
#     Node 22, Type 1, BuildingBlock: NAWXER_clean_linker_0, # of connection points: 4
#     Node 23, Type 1, BuildingBlock: NAWXER_clean_linker_0, # of connection points: 4
#     Node 24, Type 1, BuildingBlock: NAWXER_clean_linker_0, # of connection points: 4
#     Node 25, Type 1, BuildingBlock: NAWXER_clean_linker_0, # of connection points: 4
#     Node 26, Type 1, BuildingBlock: NAWXER_clean_linker_0, # of connection points: 4
#     Node 27, Type 1, BuildingBlock: NAWXER_clean_linker_0, # of connection points: 4
#     Node 28, Type 1, BuildingBlock: NAWXER_clean_linker_0, # of connection points: 4
#     Node 29, Type 1, BuildingBlock: NAWXER_clean_linker_0, # of connection points: 4
#     Node 30, Type 1, BuildingBlock: NAWXER_clean_linker_0, # of connection points: 4
#     Node 31, Type 1, BuildingBlock: NAWXER_clean_linker_0, # of connection points: 4
#     Node 32, Type 1, BuildingBlock: NAWXER_clean_linker_0, # of connection points: 4
#     Node 33, Type 1, BuildingBlock: NAWXER_clean_linker_0, # of connection points: 4
#     Node 34, Type 1, BuildingBlock: NAWXER_clean_linker_0, # of connection points: 4
#     Node 35, Type 1, BuildingBlock: NAWXER_clean_linker_0, # of connection points: 4
#     Edge 36, Type (0, 1), BuildingBlock: KIFKEQ_clean_linker_1, # of connection points: 2
#     Edge 37, Type (0, 1), BuildingBlock: KIFKEQ_clean_linker_1, # of connection points: 2
#     Edge 38, Type (0, 1), BuildingBlock: KIFKEQ_clean_linker_1, # of connection points: 2
#     Edge 39, Type (0, 1), BuildingBlock: KIFKEQ_clean_linker_1, # of connection points: 2
#     Edge 40, Type (0, 1), BuildingBlock: KIFKEQ_clean_linker_1, # of connection points: 2
#     Edge 41, Type (0, 1), BuildingBlock: KIFKEQ_clean_linker_1, # of connection points: 2
#     Edge 42, Type (0, 1), BuildingBlock: KIFKEQ_clean_linker_1, # of connection points: 2
#     Edge 43, Type (0, 1), BuildingBlock: KIFKEQ_clean_linker_1, # of connection points: 2
#     Edge 44, Type (0, 1), BuildingBlock: KIFKEQ_clean_linker_1, # of connection points: 2
#     Edge 45, Type (0, 1), BuildingBlock: KIFKEQ_clean_linker_1, # of connection points: 2
#     Edge 46, Type (0, 1), BuildingBlock: KIFKEQ_clean_linker_1, # of connection points: 2
#     Edge 47, Type (0, 1), BuildingBlock: KIFKEQ_clean_linker_1, # of connection points: 2
#     Edge 48, Type (0, 1), BuildingBlock: KIFKEQ_clean_linker_1, # of connection points: 2
#     Edge 49, Type (0, 1), BuildingBlock: KIFKEQ_clean_linker_1, # of connection points: 2
#     Edge 50, Type (0, 1), BuildingBlock: KIFKEQ_clean_linker_1, # of connection points: 2
#     Edge 51, Type (0, 1), BuildingBlock: KIFKEQ_clean_linker_1, # of connection points: 2
#     Edge 52, Type (0, 1), BuildingBlock: KIFKEQ_clean_linker_1, # of connection points: 2
#     Edge 53, Type (0, 1), BuildingBlock: KIFKEQ_clean_linker_1, # of connection points: 2
#     Edge 54, Type (0, 1), BuildingBlock: KIFKEQ_clean_linker_1, # of connection points: 2
#     Edge 55, Type (0, 1), BuildingBlock: KIFKEQ_clean_linker_1, # of connection points: 2
#     Edge 56, Type (0, 1), BuildingBlock: KIFKEQ_clean_linker_1, # of connection points: 2
#     Edge 57, Type (0, 1), BuildingBlock: KIFKEQ_clean_linker_1, # of connection points: 2
#     Edge 58, Type (0, 1), BuildingBlock: KIFKEQ_clean_linker_1, # of connection points: 2
#     Edge 59, Type (0, 1), BuildingBlock: KIFKEQ_clean_linker_1, # of connection points: 2
#     Edge 60, Type (0, 1), BuildingBlock: KIFKEQ_clean_linker_1, # of connection points: 2
#     Edge 61, Type (0, 1), BuildingBlock: KIFKEQ_clean_linker_1, # of connection points: 2
#     Edge 62, Type (0, 1), BuildingBlock: KIFKEQ_clean_linker_1, # of connection points: 2
#     Edge 63, Type (0, 1), BuildingBlock: KIFKEQ_clean_linker_1, # of connection points: 2
#     Edge 64, Type (0, 1), BuildingBlock: KIFKEQ_clean_linker_1, # of connection points: 2
#     Edge 65, Type (0, 1), BuildingBlock: KIFKEQ_clean_linker_1, # of connection points: 2
#     Edge 66, Type (0, 1), BuildingBlock: KIFKEQ_clean_linker_1, # of connection points: 2
#     Edge 67, Type (0, 1), BuildingBlock: KIFKEQ_clean_linker_1, # of connection points: 2
#     Edge 68, Type (0, 1), BuildingBlock: KIFKEQ_clean_linker_1, # of connection points: 2
#     Edge 69, Type (0, 1), BuildingBlock: KIFKEQ_clean_linker_1, # of connection points: 2
#     Edge 70, Type (0, 1), BuildingBlock: KIFKEQ_clean_linker_1, # of connection points: 2
#     Edge 71, Type (0, 1), BuildingBlock: KIFKEQ_clean_linker_1, # of connection points: 2
#     Edge 72, Type (0, 1), BuildingBlock: KIFKEQ_clean_linker_1, # of connection points: 2
#     Edge 73, Type (0, 1), BuildingBlock: KIFKEQ_clean_linker_1, # of connection points: 2
#     Edge 74, Type (0, 1), BuildingBlock: KIFKEQ_clean_linker_1, # of connection points: 2
#     Edge 75, Type (0, 1), BuildingBlock: KIFKEQ_clean_linker_1, # of connection points: 2
#     Edge 76, Type (0, 1), BuildingBlock: KIFKEQ_clean_linker_1, # of connection points: 2
#     Edge 77, Type (0, 1), BuildingBlock: KIFKEQ_clean_linker_1, # of connection points: 2
#     Edge 78, Type (0, 1), BuildingBlock: KIFKEQ_clean_linker_1, # of connection points: 2
#     Edge 79, Type (0, 1), BuildingBlock: KIFKEQ_clean_linker_1, # of connection points: 2
#     Edge 80, Type (0, 1), BuildingBlock: KIFKEQ_clean_linker_1, # of connection points: 2
#     Edge 81, Type (0, 1), BuildingBlock: KIFKEQ_clean_linker_1, # of connection points: 2
#     Edge 82, Type (0, 1), BuildingBlock: KIFKEQ_clean_linker_1, # of connection points: 2
#     Edge 83, Type (0, 1), BuildingBlock: KIFKEQ_clean_linker_1, # of connection points: 2
#     Edge 84, Type (0, 1), BuildingBlock: KIFKEQ_clean_linker_1, # of connection points: 2
#     Edge 85, Type (0, 1), BuildingBlock: KIFKEQ_clean_linker_1, # of connection points: 2
#     Edge 86, Type (0, 1), BuildingBlock: KIFKEQ_clean_linker_1, # of connection points: 2
#     Edge 87, Type (0, 1), BuildingBlock: KIFKEQ_clean_linker_1, # of connection points: 2
#     Edge 88, Type (0, 1), BuildingBlock: KIFKEQ_clean_linker_1, # of connection points: 2
#     Edge 89, Type (0, 1), BuildingBlock: KIFKEQ_clean_linker_1, # of connection points: 2
#     Edge 90, Type (0, 1), BuildingBlock: KIFKEQ_clean_linker_1, # of connection points: 2
#     Edge 91, Type (0, 1), BuildingBlock: KIFKEQ_clean_linker_1, # of connection points: 2
#     Edge 92, Type (0, 1), BuildingBlock: KIFKEQ_clean_linker_1, # of connection points: 2
#     Edge 93, Type (0, 1), BuildingBlock: KIFKEQ_clean_linker_1, # of connection points: 2
#     Edge 94, Type (0, 1), BuildingBlock: KIFKEQ_clean_linker_1, # of connection points: 2
#     Edge 95, Type (0, 1), BuildingBlock: KIFKEQ_clean_linker_1, # of connection points: 2
#     Edge 96, Type (0, 1), BuildingBlock: KIFKEQ_clean_linker_1, # of connection points: 2
#     Edge 97, Type (0, 1), BuildingBlock: KIFKEQ_clean_linker_1, # of connection points: 2
#     Edge 98, Type (0, 1), BuildingBlock: KIFKEQ_clean_linker_1, # of connection points: 2
#     Edge 99, Type (0, 1), BuildingBlock: KIFKEQ_clean_linker_1, # of connection points: 2
#     Edge 100, Type (0, 1), BuildingBlock: KIFKEQ_clean_linker_1, # of connection points: 2
#     Edge 101, Type (0, 1), BuildingBlock: KIFKEQ_clean_linker_1, # of connection points: 2
#     Edge 102, Type (0, 1), BuildingBlock: KIFKEQ_clean_linker_1, # of connection points: 2
#     Edge 103, Type (0, 1), BuildingBlock: KIFKEQ_clean_linker_1, # of connection points: 2
#     Edge 104, Type (0, 1), BuildingBlock: KIFKEQ_clean_linker_1, # of connection points: 2
#     Edge 105, Type (0, 1), BuildingBlock: KIFKEQ_clean_linker_1, # of connection points: 2
#     Edge 106, Type (0, 1), BuildingBlock: KIFKEQ_clean_linker_1, # of connection points: 2
#     Edge 107, Type (0, 1), BuildingBlock: KIFKEQ_clean_linker_1, # of connection points: 2
# Relax obj value: 0.008
# Max RMSD: 0.056
# Mean RMSD: 0.039
data_MOF--net-ptr--node1-QUQFOY_clean_sbu_1--node2-NAWXER_clean_linker_0--edge1-KIFKEQ_clean_linker_1
_symmetry_space_group_name_H-M    P1
_symmetry_Int_Tables_number       1
_symmetry_cell_setting            triclinic
loop_
_symmetry_equiv_pos_as_xyz
'x, y, z'
_cell_length_a     90.392865
_cell_length_b     90.392651
_cell_length_c     66.231095
_cell_angle_alpha  90.100313
_cell_angle_beta   89.831405
_cell_angle_gamma 119.91041
loop_
_atom_site_label
_atom_site_type_symbol
_atom_site_fract_x
_atom_site_fract_y
_atom_site_fract_z
_atom_type_partial_charge
O0 O 0.01829 0.38246 0.04222 0.0
Cd1 Cd 0.02441 0.37176 0.01849 0.0
Cd2 Cd 0.99063 0.35489 0.01319 0.0
O3 O 0.99047 0.36505 0.04131 0.0
O4 O 0.04758 0.37531 0.0244 0.0
O5 O 0.02426 0.34984 0.02409 0.0
C6 C 0.04049 0.35906 0.02717 0.0
C7 C 0.97316 0.32595 1.00599 0.0
C8 C 1.00355 0.37716 0.04976 0.0
C9 C 0.01207 0.38001 0.98093 0.0
O10 O 0.99721 0.37067 0.98822 0.0
O11 O 0.02507 0.38145 0.99007 0.0
O12 O 0.96697 0.33602 0.00783 0.0
O13 O 0.98929 0.33218 0.00915 0.0
O14 O 0.62354 0.63546 0.04404 0.0
Cd15 Cd 0.63499 0.65195 0.02005 0.0
Cd16 Cd 0.65043 0.63382 0.01652 0.0
O17 O 0.64173 0.62599 0.04568 0.0
O18 O 0.63129 0.67164 0.02514 0.0
O19 O 0.65675 0.67375 0.02609 0.0
C20 C 0.64745 0.6808 0.02851 0.0
C21 C 0.67888 0.64472 0.00691 0.0
C22 C 0.62919 0.62688 0.05307 0.0
C23 C 0.62519 0.62922 0.98449 0.0
O24 O 0.63289 0.62262 0.99353 0.0
O25 O 0.62599 0.64275 0.99135 0.0
O26 O 0.66908 0.62869 0.01068 0.0
O27 O 0.6727 0.65477 0.00953 0.0
O28 O 0.38176 0.00918 0.98667 0.0
Cd29 Cd 0.37412 0.01802 0.01104 0.0
Cd30 Cd 0.35727 0.98381 0.0203 0.0
O31 O 0.3666 0.98149 0.99257 0.0
O32 O 0.38026 0.04168 1.00319 0.0
O33 O 0.35358 0.02093 0.00709 0.0
C34 C 0.36418 0.03656 1.00219 0.0
C35 C 0.32902 0.96539 0.03001 0.0
C36 C 0.37696 0.99389 0.98154 0.0
C37 C 0.38431 0.00797 0.04943 0.0
O38 O 0.37398 0.99268 0.04426 0.0
O39 O 0.38594 0.02033 0.03863 0.0
O40 O 0.34009 0.96038 0.02917 0.0
O41 O 0.33376 0.98078 0.02422 0.0
O42 O 0.99846 0.62859 0.98723 0.0
Cd43 Cd 0.98985 0.63609 0.01191 0.0
Cd44 Cd 0.02353 0.6541 0.02056 0.0
O45 O 0.02604 0.64475 0.99294 0.0
O46 O 0.96622 0.63063 1.0049 0.0
O47 O 0.9876 0.65703 0.0087 0.0
C48 C 0.97179 0.64682 1.00416 0.0
C49 C 0.03952 0.68308 0.02835 0.0
C50 C 0.01385 0.63396 0.98203 0.0
C51 C 1.00111 0.62686 0.05022 0.0
O52 O 0.01621 0.63789 0.04505 0.0
O53 O 0.98847 0.62444 0.0394 0.0
O54 O 0.04646 0.67362 0.02739 0.0
O55 O 0.02348 0.67619 0.02412 0.0
O56 O 0.38666 0.37307 0.99285 0.0
Cd57 Cd 0.37615 0.35528 0.01555 0.0
Cd58 Cd 0.35771 0.37098 0.02202 0.0
O59 O 0.36841 0.38253 0.99451 0.0
O60 O 0.38042 0.3364 0.00814 0.0
O61 O 0.35455 0.33332 0.00954 0.0
C62 C 0.36418 0.32684 1.00567 0.0
C63 C 0.32916 0.36218 0.02944 0.0
C64 C 0.38099 0.3824 0.98599 0.0
C65 C 0.38299 0.37384 0.05423 0.0
O66 O 0.37297 0.37874 0.04752 0.0
O67 O 0.38563 0.36339 0.04418 0.0
O68 O 0.34066 0.37808 0.02866 0.0
O69 O 0.33368 0.35108 0.0249 0.0
O70 O 0.62118 0.98644 0.04036 0.0
Cd71 Cd 0.63231 0.98042 0.017 0.0
Cd72 Cd 0.65094 0.01437 0.01305 0.0
O73 O 0.64031 0.01387 0.04115 0.0
O74 O 0.62918 0.95738 0.02268 0.0
O75 O 0.65438 0.98109 0.02304 0.0
C76 C 0.64542 0.96478 0.02581 0.0
C77 C 0.67982 0.03303 0.00626 0.0
C78 C 0.62728 1.001 0.04867 0.0
C79 C 0.62618 0.99433 0.97958 0.0
O80 O 0.63579 0.0088 0.98763 0.0
O81 O 0.62371 0.98075 0.98827 0.0
O82 O 0.66921 0.0385 0.00869 0.0
O83 O 0.67421 0.01693 0.00876 0.0
O84 O 0.68131 0.71664 0.37875 0.0
Cd85 Cd 0.69041 0.70831 0.35539 0.0
Cd86 Cd 0.65637 0.69178 0.34465 0.0
O87 O 0.65383 0.70195 0.3717 0.0
O88 O 0.71363 0.7139 0.3643 0.0
O89 O 0.69253 0.68741 0.36024 0.0
C90 C 0.70812 0.69775 0.36553 0.0
C91 C 0.63662 0.66361 0.33589 0.0
C92 C 0.66596 0.71227 0.38304 0.0
C93 C 0.682 0.71812 0.31571 0.0
O94 O 0.66648 0.70786 0.32012 0.0
O95 O 0.69385 0.71996 0.32754 0.0
O96 O 0.63273 0.67552 0.3356 0.0
O97 O 0.65169 0.66754 0.34204 0.0
O98 O 0.2922 0.96677 0.37764 0.0
Cd99 Cd 0.30089 0.98418 0.35437 0.0
Cd100 Cd 0.31741 0.96635 0.34532 0.0
O101 O 0.30795 0.95467 0.3731 0.0
O102 O 0.29433 1.0011 0.36352 0.0
O103 O 0.32117 0.0077 0.35905 0.0
C104 C 0.31033 0.01228 0.36464 0.0
C105 C 0.34554 0.97573 0.33542 0.0
C106 C 0.29688 0.95631 0.38327 0.0
C107 C 0.2909 0.96473 0.31581 0.0
O108 O 0.30075 0.95921 0.3212 0.0
O109 O 0.2895 0.97563 0.32656 0.0
O110 O 0.33425 0.95973 0.33591 0.0
O111 O 0.34112 0.98651 0.34171 0.0
O112 O 0.04976 0.34888 0.32598 0.0
Cd113 Cd 0.03802 0.35388 0.34971 0.0
Cd114 Cd 0.0205 0.32023 0.3511 0.0
O115 O 0.03069 0.32163 0.32264 0.0
O116 O 0.04229 0.37758 0.34545 0.0
O117 O 0.01672 0.35458 0.34302 0.0
C118 C 0.02628 0.37093 0.34132 0.0
C119 C 0.99143 0.30401 0.35845 0.0
C120 C 0.04395 0.33491 0.3163 0.0
C121 C 0.04481 0.33831 0.38515 0.0
O122 O 0.03638 0.32444 0.37541 0.0
O123 O 0.04573 0.35197 0.37858 0.0
O124 O 1.00046 0.29686 0.35487 0.0
O125 O 0.99876 0.32042 0.35683 0.0
O126 O 0.66173 0.95659 0.32337 0.0
Cd127 Cd 0.65316 0.96527 0.34687 0.0
Cd128 Cd 0.68748 0.98311 0.35459 0.0
O129 O 0.68945 0.97375 0.32663 0.0
O130 O 0.6298 0.9593 0.338 0.0
O131 O 0.65054 0.98593 0.34245 0.0
C132 C 0.63509 0.97541 0.33683 0.0
C133 C 0.70654 0.01145 0.36356 0.0
C134 C 0.67685 0.96207 0.31702 0.0
C135 C 0.66391 0.95632 0.38503 0.0
O136 O 0.679 0.96657 0.37897 0.0
O137 O 0.65113 0.95431 0.37485 0.0
O138 O 0.71121 1.00012 0.36264 0.0
O139 O 0.69106 0.00687 0.35845 0.0
O140 O 0.05052 0.70645 0.3227 0.0
Cd141 Cd 0.04125 0.68953 0.3466 0.0
Cd142 Cd 0.02307 0.70538 0.35176 0.0
O143 O 0.03143 0.71479 0.32303 0.0
O144 O 0.04874 0.67284 0.33963 0.0
O145 O 0.02158 0.66582 0.34138 0.0
C146 C 0.0329 0.66149 0.33731 0.0
C147 C 0.99449 0.6937 0.36109 0.0
C148 C 0.04407 0.71471 0.31471 0.0
C149 C 0.04934 0.71102 0.38329 0.0
O150 O 0.04009 0.71634 0.37528 0.0
O151 O 0.05048 0.69887 0.37517 0.0
O152 O 0.00415 0.70987 0.35821 0.0
O153 O 1.0009 0.68393 0.35779 0.0
O154 O 0.29177 0.32678 0.37657 0.0
Cd155 Cd 0.30279 0.32107 0.35266 0.0
Cd156 Cd 0.31996 0.35493 0.35028 0.0
O157 O 0.31041 0.3542 0.37896 0.0
O158 O 0.29641 0.29693 0.35807 0.0
O159 O 0.32311 0.31816 0.35842 0.0
C160 C 0.31233 0.30218 0.3613 0.0
C161 C 0.34885 0.37138 0.34218 0.0
C162 C 0.29751 0.34089 0.38586 0.0
C163 C 0.29524 0.33577 0.31689 0.0
O164 O 0.30363 0.34989 0.32619 0.0
O165 O 0.29454 0.32234 0.32391 0.0
O166 O 0.33962 0.37833 0.34564 0.0
O167 O 0.34183 0.35503 0.34432 0.0
O168 O 0.34504 0.04717 0.71293 0.0
Cd169 Cd 0.35338 0.03916 0.68834 0.0
Cd170 Cd 0.31922 0.0206 0.68188 0.0
O171 O 0.31742 0.02928 0.71014 0.0
O172 O 0.37748 0.04662 0.69555 0.0
O173 O 0.35772 0.01948 0.69219 0.0
C174 C 0.3732 0.03075 0.69684 0.0
C175 C 0.30195 0.99192 0.67303 0.0
C176 C 0.32993 0.04108 0.71969 0.0
C177 C 0.34049 0.04787 0.65138 0.0
O178 O 0.32571 0.0376 0.6583 0.0
O179 O 0.35372 0.04964 0.66033 0.0
O180 O 0.29575 1.00192 0.67544 0.0
O181 O 0.31805 0.99807 0.67634 0.0
O182 O 0.95436 0.29704 0.71118 0.0
Cd183 Cd 0.96399 0.3149 0.68826 0.0
Cd184 Cd 0.9825 0.29905 0.68201 0.0
O185 O 0.9734 0.28859 0.71028 0.0
O186 O 0.95683 0.33162 0.69639 0.0
O187 O 0.98389 0.33832 0.69414 0.0
C188 C 0.97274 0.34277 0.69868 0.0
C189 C 0.01082 0.3084 0.67268 0.0
C190 C 0.96062 0.2884 0.71862 0.0
C191 C 0.95633 0.29501 0.65051 0.0
O192 O 0.96575 0.28966 0.65795 0.0
O193 O 0.95481 0.30664 0.65946 0.0
O194 O 0.99976 0.29242 0.67453 0.0
O195 O 0.00603 0.3193 0.67715 0.0
O196 O 0.71764 0.67796 0.65459 0.0
Cd197 Cd 0.71059 0.68784 0.67839 0.0
Cd198 Cd 0.69182 0.6539 0.68814 0.0
O199 O 0.70061 0.65055 0.66053 0.0
O200 O 0.71684 0.71111 0.66875 0.0
O201 O 0.6902 0.69105 0.67494 0.0
C202 C 0.70079 0.70622 0.66846 0.0
C203 C 0.66337 0.63608 0.69768 0.0
C204 C 0.71178 0.66246 0.64959 0.0
C205 C 0.71967 0.6775 0.7171 0.0
O206 O 0.70861 0.66238 0.71209 0.0
O207 O 0.72225 0.69008 0.70606 0.0
O208 O 0.67401 0.63055 0.69651 0.0
O209 O 0.6687 0.65175 0.69262 0.0
O210 O 0.3283 0.29319 0.65539 0.0
Cd211 Cd 0.32003 0.30086 0.68042 0.0
Cd212 Cd 0.35407 0.31758 0.68774 0.0
O213 O 0.35606 0.30988 0.65905 0.0
O214 O 0.29619 0.29413 0.67289 0.0
O215 O 0.31632 0.32101 0.67714 0.0
C216 C 0.30084 0.31011 0.67203 0.0
C217 C 0.37175 0.34573 0.69822 0.0
C218 C 0.34343 0.29887 0.6489 0.0
C219 C 0.33148 0.28978 0.71677 0.0
O220 O 0.3465 0.29948 0.71016 0.0
O221 O 0.31872 0.28932 0.70805 0.0
O222 O 0.37757 0.33545 0.69542 0.0
O223 O 0.35582 0.34019 0.69439 0.0
O224 O 0.7217 0.04089 0.65863 0.0
Cd225 Cd 0.71138 0.02394 0.68223 0.0
Cd226 Cd 0.69435 0.04131 0.68805 0.0
O227 O 0.70451 0.05162 0.65993 0.0
O228 O 0.71641 0.0054 0.67567 0.0
O229 O 0.6902 1.00142 0.67659 0.0
C230 C 0.70026 0.99539 0.67307 0.0
C231 C 0.66596 0.0326 0.69609 0.0
C232 C 0.71648 0.05045 0.65129 0.0
C233 C 0.71972 0.04421 0.71999 0.0
O234 O 0.71031 0.04971 0.71291 0.0
O235 O 0.72127 0.03277 0.71061 0.0
O236 O 0.67737 0.04851 0.6947 0.0
O237 O 0.67047 0.02145 0.69185 0.0
O238 O 0.95654 0.65931 0.71092 0.0
Cd239 Cd 0.96694 0.65171 0.68825 0.0
Cd240 Cd 0.98354 0.68565 0.68018 0.0
O241 O 0.9738 0.6871 0.70817 0.0
O242 O 0.96229 0.62851 0.69612 0.0
O243 O 0.98833 0.6509 0.69444 0.0
C244 C 0.9785 0.63491 0.69853 0.0
C245 C 0.0118 0.70478 0.6709 0.0
C246 C 0.96179 0.67438 0.71732 0.0
C247 C 0.95778 0.66161 0.64962 0.0
O248 O 0.96701 0.67686 0.6558 0.0
O249 O 0.95681 0.64924 0.65978 0.0
O250 O 1.00045 0.70942 0.67197 0.0
O251 O 0.00734 0.68936 0.67622 0.0
C252 C 0.2231 0.34559 0.11742 0.0
C253 C 0.2207 0.33271 0.10372 0.0
C254 C 0.20992 0.34338 0.13033 0.0
C255 C 0.19401 0.32833 0.12963 0.0
C256 C 0.20487 0.31751 0.10322 0.0
C257 C 0.19153 0.31544 0.11589 0.0
C258 C 0.1798 0.32665 0.14236 0.0
C259 C 0.21331 0.31816 0.18628 0.0
C260 C 0.22131 0.33126 0.20066 0.0
C261 C 0.20071 0.31762 0.17355 0.0
C262 C 0.19578 0.33006 0.17517 0.0
C263 C 0.21665 0.34393 0.20184 0.0
C264 C 0.20389 0.34323 0.18937 0.0
C265 C 0.18119 0.32865 0.1635 0.0
C266 C 0.11254 0.31556 0.19145 0.0
C267 C 0.1179 0.32881 0.20575 0.0
C268 C 0.12418 0.3153 0.17762 0.0
C269 C 0.14137 0.32828 0.17787 0.0
C270 C 0.13505 0.34198 0.20548 0.0
C271 C 0.14666 0.34161 0.19187 0.0
C272 C 0.15431 0.32764 0.16472 0.0
C273 C 0.12113 0.33811 0.12365 0.0
C274 C 0.11439 0.32734 0.10682 0.0
C275 C 0.13348 0.33753 0.1357 0.0
C276 C 0.13896 0.32573 0.1316 0.0
C277 C 0.12003 0.31575 0.10245 0.0
C278 C 0.13216 0.31492 0.11476 0.0
C279 C 0.15288 0.3257 0.14347 0.0
H280 H 0.23521 0.35739 0.11814 0.0
H281 H 0.21202 0.3536 0.14058 0.0
H282 H 0.20272 0.30744 0.0927 0.0
H283 H 0.17929 0.3038 0.11501 0.0
H284 H 0.21668 0.30825 0.18506 0.0
H285 H 0.19441 0.30717 0.16295 0.0
H286 H 0.22245 0.35405 0.21294 0.0
H287 H 0.20018 0.35287 0.19098 0.0
H288 H 0.09949 0.30513 0.19133 0.0
H289 H 0.11988 0.30474 0.16714 0.0
H290 H 0.13959 0.35261 0.21588 0.0
H291 H 0.15985 0.35178 0.1923 0.0
H292 H 0.11729 0.34745 0.12706 0.0
H293 H 0.1391 0.3467 0.14782 0.0
H294 H 0.11507 0.30736 0.08949 0.0
H295 H 0.13635 0.30592 0.11101 0.0
N296 N 0.16569 0.32519 0.13315 0.0
N297 N 0.16843 0.32911 0.17381 0.0
C298 C 0.67225 0.88733 0.12207 0.0
C299 C 0.68154 0.89328 0.10401 0.0
C300 C 0.67413 0.87579 0.1343 0.0
C301 C 0.68576 0.87036 0.12907 0.0
C302 C 0.69285 0.88755 0.09847 0.0
C303 C 0.69497 0.87623 0.11091 0.0
C304 C 0.68747 0.85764 0.14155 0.0
C305 C 0.70136 0.90134 0.18636 0.0
C306 C 0.6883 0.89684 0.2007 0.0
C307 C 0.70119 0.88891 0.1735 0.0
C308 C 0.68813 0.87181 0.17514 0.0
C309 C 0.67517 0.87977 0.20205 0.0
C310 C 0.67521 0.86735 0.18958 0.0
C311 C 0.68821 0.85821 0.16285 0.0
C312 C 0.7015 0.80104 0.18534 0.0
C313 C 0.69255 0.79675 0.20374 0.0
C314 C 0.70023 0.81237 0.17196 0.0
C315 C 0.68953 0.81911 0.17652 0.0
C316 C 0.68199 0.80357 0.20831 0.0
C317 C 0.68046 0.81456 0.19484 0.0
C318 C 0.68859 0.83196 0.16344 0.0
C319 C 0.67177 0.78579 0.12392 0.0
C320 C 0.68084 0.78862 0.10573 0.0
C321 C 0.6739 0.79953 0.13577 0.0
C322 C 0.68557 0.8164 0.13003 0.0
C323 C 0.69219 0.80548 0.09972 0.0
C324 C 0.69454 0.81922 0.11176 0.0
C325 C 0.68758 0.83117 0.14208 0.0
H326 H 0.66312 0.8912 0.12644 0.0
H327 H 0.66611 0.87082 0.14754 0.0
H328 H 0.70013 0.8919 0.08458 0.0
H329 H 0.7038 0.87203 0.10633 0.0
H330 H 0.71163 0.91443 0.18511 0.0
H331 H 0.71138 0.89254 0.1626 0.0
H332 H 0.66507 0.87597 0.21314 0.0
H333 H 0.66511 0.85421 0.19117 0.0
H334 H 0.70984 0.79604 0.1816 0.0
H335 H 0.70786 0.81608 0.15832 0.0
H336 H 0.67486 0.80035 0.22235 0.0
H337 H 0.67221 0.81962 0.19885 0.0
H338 H 0.66266 0.77293 0.1287 0.0
H339 H 0.6662 0.79693 0.14927 0.0
H340 H 0.69932 0.80802 0.08575 0.0
H341 H 0.7034 0.83209 0.1068 0.0
N342 N 0.68726 0.84416 0.13204 0.0
N343 N 0.68872 0.84539 0.17284 0.0
C344 C 0.11868 0.78745 0.12141 0.0
C345 C 0.1125 0.79118 0.10387 0.0
C346 C 0.1306 0.80058 0.13361 0.0
C347 C 0.13615 0.81775 0.12894 0.0
C348 C 0.1184 0.80831 0.09878 0.0
C349 C 0.13009 0.82148 0.11125 0.0
C350 C 0.14915 0.83184 0.14153 0.0
C351 C 0.10562 0.80101 0.18586 0.0
C352 C 0.11019 0.7923 0.19985 0.0
C353 C 0.11806 0.81364 0.1734 0.0
C354 C 0.13522 0.81788 0.17504 0.0
C355 C 0.12735 0.79651 0.20128 0.0
C356 C 0.13975 0.8093 0.18917 0.0
C357 C 0.1488 0.83166 0.16287 0.0
C358 C 0.20857 0.90063 0.18559 0.0
C359 C 0.21227 0.89552 0.20401 0.0
C360 C 0.19684 0.88844 0.17217 0.0
C361 C 0.18903 0.87091 0.17669 0.0
C362 C 0.20448 0.87806 0.20852 0.0
C363 C 0.19306 0.86591 0.195 0.0
C364 C 0.17557 0.85765 0.16364 0.0
C365 C 0.22148 0.88231 0.12301 0.0
C366 C 0.22028 0.89236 0.10756 0.0
C367 C 0.20718 0.87128 0.13443 0.0
C368 C 0.19129 0.86992 0.13063 0.0
C369 C 0.20425 0.89086 0.10374 0.0
C370 C 0.18987 0.8796 0.11503 0.0
C371 C 0.17608 0.85775 0.1423 0.0
H372 H 0.11466 0.77436 0.12538 0.0
H373 H 0.13573 0.79724 0.14644 0.0
H374 H 0.1139 0.8115 0.08524 0.0
H375 H 0.1344 0.83459 0.10707 0.0
H376 H 0.09247 0.798 0.18456 0.0
H377 H 0.11435 0.82028 0.16274 0.0
H378 H 0.13123 0.79014 0.21212 0.0
H379 H 0.15294 0.81246 0.19075 0.0
H380 H 0.2143 0.91405 0.18191 0.0
H381 H 0.19355 0.89281 0.15862 0.0
H382 H 0.20723 0.87381 0.22258 0.0
H383 H 0.18721 0.85254 0.199 0.0
H384 H 0.23341 0.88268 0.12608 0.0
H385 H 0.20847 0.86359 0.14607 0.0
H386 H 0.20281 0.89848 0.09216 0.0
H387 H 0.17767 0.87861 0.11176 0.0
N388 N 0.16279 0.84496 0.13208 0.0
N389 N 0.16197 0.84453 0.17298 0.0
C390 C 0.33186 0.11842 0.84517 0.0
C391 C 0.31744 0.10853 0.83304 0.0
C392 C 0.33221 0.1306 0.85849 0.0
C393 C 0.31817 0.13318 0.85999 0.0
C394 C 0.30327 0.11096 0.83493 0.0
C395 C 0.30372 0.12328 0.84811 0.0
C396 C 0.31909 0.14718 0.87254 0.0
C397 C 0.31817 0.10838 0.91605 0.0
C398 C 0.33328 0.11454 0.92733 0.0
C399 C 0.315 0.11961 0.90479 0.0
C400 C 0.32686 0.13719 0.90467 0.0
C401 C 0.345 0.13216 0.92734 0.0
C402 C 0.34175 0.14337 0.91626 0.0
C403 C 0.32371 0.14937 0.89311 0.0
C404 C 0.315 0.20887 0.91826 0.0
C405 C 0.32938 0.21742 0.93085 0.0
C406 C 0.31287 0.19526 0.90606 0.0
C407 C 0.32514 0.19005 0.90609 0.0
C408 C 0.34153 0.21202 0.93091 0.0
C409 C 0.33937 0.19843 0.9188 0.0
C410 C 0.32311 0.17552 0.89362 0.0
C411 C 0.33041 0.21616 0.84871 0.0
C412 C 0.31869 0.21106 0.83265 0.0
C413 C 0.33033 0.20415 0.86205 0.0
C414 C 0.31805 0.18676 0.86027 0.0
C415 C 0.30636 0.19364 0.83096 0.0
C416 C 0.30603 0.18169 0.84462 0.0
C417 C 0.31886 0.17354 0.87284 0.0
H418 H 0.34316 0.11722 0.84387 0.0
H419 H 0.34369 0.13841 0.86712 0.0
H420 H 0.29185 0.10343 0.82611 0.0
H421 H 0.29279 0.12515 0.84895 0.0
H422 H 0.30892 0.09487 0.91573 0.0
H423 H 0.30323 0.11457 0.89632 0.0
H424 H 0.35663 0.13732 0.9361 0.0
H425 H 0.351 0.15689 0.91655 0.0
H426 H 0.30527 0.21252 0.91804 0.0
H427 H 0.30157 0.18873 0.89676 0.0
H428 H 0.3529 0.21845 0.94012 0.0
H429 H 0.34899 0.19462 0.91913 0.0
H430 H 0.33996 0.22943 0.85082 0.0
H431 H 0.3403 0.2085 0.87328 0.0
H432 H 0.29732 0.18903 0.81863 0.0
H433 H 0.2966 0.16835 0.8426 0.0
N434 N 0.31685 0.15932 0.86326 0.0
N435 N 0.32553 0.16345 0.90281 0.0
C436 C 0.90093 0.20722 0.92167 0.0
C437 C 0.8955 0.21588 0.93476 0.0
C438 C 0.88916 0.19374 0.90961 0.0
C439 C 0.87175 0.18875 0.91032 0.0
C440 C 0.87801 0.21066 0.93553 0.0
C441 C 0.86628 0.19718 0.92357 0.0
C442 C 0.85898 0.17445 0.89789 0.0
C443 C 0.89152 0.21562 0.85297 0.0
C444 C 0.89787 0.21063 0.83643 0.0
C445 C 0.87984 0.20351 0.86644 0.0
C446 C 0.87467 0.18612 0.86423 0.0
C447 C 0.89276 0.19322 0.83436 0.0
C448 C 0.88136 0.18117 0.8481 0.0
C449 C 0.86081 0.17281 0.87688 0.0
C450 C 0.79187 0.11943 0.85023 0.0
C451 C 0.79607 0.11015 0.83658 0.0
C452 C 0.80401 0.13085 0.86383 0.0
C453 C 0.82059 0.1332 0.86406 0.0
C454 C 0.81255 0.11223 0.83716 0.0
C455 C 0.82474 0.12379 0.85064 0.0
C456 C 0.83406 0.14669 0.87669 0.0
C457 C 0.79688 0.10711 0.92002 0.0
C458 C 0.78851 0.11317 0.93264 0.0
C459 C 0.81104 0.11849 0.9085 0.0
C460 C 0.81707 0.13613 0.90942 0.0
C461 C 0.79475 0.13084 0.93372 0.0
C462 C 0.80894 0.14219 0.92234 0.0
C463 C 0.83214 0.14847 0.89756 0.0
H464 H 0.91425 0.21071 0.92091 0.0
H465 H 0.89364 0.18716 0.89985 0.0
H466 H 0.87336 0.21718 0.94513 0.0
H467 H 0.85291 0.19352 0.92443 0.0
H468 H 0.89527 0.22889 0.85534 0.0
H469 H 0.87443 0.20777 0.87812 0.0
H470 H 0.897 0.18872 0.82166 0.0
H471 H 0.87739 0.16783 0.84577 0.0
H472 H 0.77926 0.11805 0.85017 0.0
H473 H 0.80061 0.13826 0.87369 0.0
H474 H 0.81621 0.10542 0.82666 0.0
H475 H 0.83752 0.12558 0.85037 0.0
H476 H 0.79235 0.09356 0.91884 0.0
H477 H 0.81732 0.11352 0.899 0.0
H478 H 0.78874 0.13592 0.94352 0.0
H479 H 0.81347 0.15575 0.92347 0.0
N480 N 0.84466 0.16229 0.90729 0.0
N481 N 0.84831 0.15888 0.86724 0.0
C482 C 0.79595 0.69047 0.91834 0.0
C483 C 0.78758 0.67615 0.93109 0.0
C484 C 0.8099 0.69297 0.90654 0.0
C485 C 0.81571 0.68117 0.90716 0.0
C486 C 0.7935 0.66441 0.93166 0.0
C487 C 0.80747 0.66697 0.91996 0.0
C488 C 0.8308 0.6838 0.89532 0.0
C489 C 0.79126 0.67454 0.84768 0.0
C490 C 0.7961 0.68793 0.83376 0.0
C491 C 0.80304 0.67479 0.86151 0.0
C492 C 0.81988 0.6885 0.8618 0.0
C493 C 0.81285 0.70183 0.8344 0.0
C494 C 0.82465 0.70203 0.84818 0.0
C495 C 0.83302 0.68792 0.87456 0.0
C496 C 0.89098 0.67677 0.85093 0.0
C497 C 0.89734 0.68823 0.83456 0.0
C498 C 0.87908 0.67693 0.86434 0.0
C499 C 0.87374 0.68904 0.8623 0.0
C500 C 0.89203 0.7004 0.83264 0.0
C501 C 0.88046 0.70082 0.84636 0.0
C502 C 0.85968 0.68826 0.87489 0.0
C503 C 0.89918 0.69318 0.92019 0.0
C504 C 0.89365 0.67875 0.93267 0.0
C505 C 0.88755 0.6951 0.90813 0.0
C506 C 0.87017 0.68261 0.90825 0.0
C507 C 0.87619 0.66639 0.93284 0.0
C508 C 0.86459 0.66838 0.92091 0.0
C509 C 0.85756 0.68439 0.89578 0.0
H510 H 0.79194 0.69992 0.91774 0.0
H511 H 0.81632 0.70428 0.89719 0.0
H512 H 0.78724 0.6531 0.94101 0.0
H513 H 0.81174 0.65771 0.92075 0.0
H514 H 0.77842 0.66369 0.84763 0.0
H515 H 0.79913 0.66397 0.87146 0.0
H516 H 0.81704 0.71223 0.82373 0.0
H517 H 0.83764 0.71263 0.84793 0.0
H518 H 0.89487 0.66735 0.85322 0.0
H519 H 0.87366 0.66714 0.87583 0.0
H520 H 0.89625 0.70923 0.82008 0.0
H521 H 0.87637 0.71012 0.84414 0.0
H522 H 0.91246 0.70309 0.9199 0.0
H523 H 0.8921 0.7064 0.89882 0.0
H524 H 0.87146 0.65497 0.94195 0.0
H525 H 0.85124 0.65861 0.9213 0.0
N526 N 0.84315 0.68219 0.90505 0.0
N527 N 0.84737 0.69 0.86525 0.0
C528 C 0.77704 0.64874 0.45248 0.0
C529 C 0.78338 0.66418 0.44181 0.0
C530 C 0.78808 0.64526 0.46365 0.0
C531 C 0.80565 0.65713 0.4643 0.0
C532 C 0.80099 0.67592 0.44231 0.0
C533 C 0.81201 0.67237 0.45331 0.0
C534 C 0.81765 0.65366 0.47575 0.0
C535 C 0.78588 0.66044 0.52361 0.0
C536 C 0.77618 0.646 0.53581 0.0
C537 C 0.79812 0.66097 0.51024 0.0
C538 C 0.8009 0.64705 0.50866 0.0
C539 C 0.77884 0.63198 0.53395 0.0
C540 C 0.79117 0.63257 0.52064 0.0
C541 C 0.81501 0.64822 0.49608 0.0
C542 C 0.88294 0.66092 0.52262 0.0
C543 C 0.87845 0.64666 0.53503 0.0
C544 C 0.87111 0.66113 0.50926 0.0
C545 C 0.85451 0.64709 0.50798 0.0
C546 C 0.8619 0.63244 0.53331 0.0
C547 C 0.85002 0.63274 0.52008 0.0
C548 C 0.84137 0.64808 0.4957 0.0
C549 C 0.87804 0.6464 0.45077 0.0
C550 C 0.88655 0.66099 0.43848 0.0
C551 C 0.86431 0.64394 0.46296 0.0
C552 C 0.85891 0.65607 0.46322 0.0
C553 C 0.88107 0.67308 0.43881 0.0
C554 C 0.86735 0.67058 0.45093 0.0
C555 C 0.84393 0.65336 0.47531 0.0
H556 H 0.76353 0.63947 0.4524 0.0
H557 H 0.78292 0.63324 0.47165 0.0
H558 H 0.80629 0.6878 0.43401 0.0
H559 H 0.82552 0.68164 0.45342 0.0
H560 H 0.7845 0.67163 0.52492 0.0
H561 H 0.80584 0.67252 0.50165 0.0
H562 H 0.7715 0.62058 0.54292 0.0
H563 H 0.79321 0.62175 0.5198 0.0
H564 H 0.89539 0.67225 0.52378 0.0
H565 H 0.87474 0.67256 0.5005 0.0
H566 H 0.85803 0.62112 0.54236 0.0
H567 H 0.83724 0.62182 0.51944 0.0
H568 H 0.88174 0.63671 0.45066 0.0
H569 H 0.85772 0.63238 0.47185 0.0
H570 H 0.88749 0.6846 0.42982 0.0
H571 H 0.86339 0.68009 0.45082 0.0
N572 N 0.83201 0.65604 0.4662 0.0
N573 N 0.82696 0.64559 0.50523 0.0
C574 C 0.33067 0.2153 0.45435 0.0
C575 C 0.3428 0.2257 0.43979 0.0
C576 C 0.33326 0.20401 0.46615 0.0
C577 C 0.34795 0.20268 0.46356 0.0
C578 C 0.35748 0.2242 0.43715 0.0
C579 C 0.35992 0.21265 0.44878 0.0
C580 C 0.35034 0.19036 0.4758 0.0
C581 C 0.36003 0.23367 0.51824 0.0
C582 C 0.35067 0.22878 0.53633 0.0
C583 C 0.35968 0.22128 0.50516 0.0
C584 C 0.34951 0.20379 0.50969 0.0
C585 C 0.34051 0.21138 0.54082 0.0
C586 C 0.33986 0.19904 0.52762 0.0
C587 C 0.34985 0.19029 0.49716 0.0
C588 C 0.36055 0.13313 0.52349 0.0
C589 C 0.34747 0.12575 0.5381 0.0
C590 C 0.36089 0.14491 0.50947 0.0
C591 C 0.34825 0.14961 0.50994 0.0
C592 C 0.33441 0.12994 0.53772 0.0
C593 C 0.33494 0.14188 0.52401 0.0
C594 C 0.34956 0.16372 0.49739 0.0
C595 C 0.33066 0.11955 0.4542 0.0
C596 C 0.34288 0.12139 0.43977 0.0
C597 C 0.3334 0.13328 0.46643 0.0
C598 C 0.34835 0.14915 0.46434 0.0
C599 C 0.35801 0.13718 0.43794 0.0
C600 C 0.36061 0.15105 0.44997 0.0
C601 C 0.35041 0.16395 0.47614 0.0
H602 H 0.31895 0.21562 0.45649 0.0
H603 H 0.32365 0.19613 0.47715 0.0
H604 H 0.36721 0.23207 0.42629 0.0
H605 H 0.37129 0.2117 0.44646 0.0
H606 H 0.36812 0.24705 0.51462 0.0
H607 H 0.3678 0.22546 0.49193 0.0
H608 H 0.33313 0.20733 0.55467 0.0
H609 H 0.33197 0.18571 0.53162 0.0
H610 H 0.37088 0.13033 0.52337 0.0
H611 H 0.37141 0.1509 0.49887 0.0
H612 H 0.32383 0.12418 0.54825 0.0
H613 H 0.32501 0.14527 0.52456 0.0
H614 H 0.31892 0.10749 0.45593 0.0
H615 H 0.32363 0.13161 0.47718 0.0
H616 H 0.36757 0.1389 0.42684 0.0
H617 H 0.37214 0.16325 0.44801 0.0
N618 N 0.35074 0.17725 0.4661 0.0
N619 N 0.34939 0.1769 0.507 0.0
C620 C 0.79471 0.1196 0.45034 0.0
C621 C 0.78413 0.12137 0.43622 0.0
C622 C 0.80561 0.1333 0.4626 0.0
C623 C 0.80627 0.14909 0.46085 0.0
C624 C 0.78458 0.13709 0.43467 0.0
C625 C 0.79577 0.15094 0.44672 0.0
C626 C 0.81871 0.16381 0.47294 0.0
C627 C 0.77722 0.1318 0.51856 0.0
C628 C 0.78254 0.12396 0.53287 0.0
C629 C 0.78905 0.14408 0.50529 0.0
C630 C 0.8064 0.14888 0.50639 0.0
C631 C 0.79982 0.12847 0.53352 0.0
C632 C 0.81166 0.14095 0.52056 0.0
C633 C 0.81936 0.16318 0.49417 0.0
C634 C 0.87369 0.23301 0.51923 0.0
C635 C 0.8827 0.22861 0.53296 0.0
C636 C 0.86168 0.22069 0.50616 0.0
C637 C 0.85835 0.20377 0.5069 0.0
C638 C 0.87949 0.21172 0.53341 0.0
C639 C 0.86729 0.19939 0.52068 0.0
C640 C 0.84492 0.19024 0.49433 0.0
C641 C 0.88856 0.2224 0.4529 0.0
C642 C 0.88461 0.22886 0.43575 0.0
C643 C 0.87559 0.21016 0.46504 0.0
C644 C 0.85835 0.2045 0.46072 0.0
C645 C 0.86741 0.22294 0.43108 0.0
C646 C 0.8544 0.2109 0.44348 0.0
C647 C 0.84443 0.1909 0.473 0.0
H648 H 0.79455 0.10758 0.45187 0.0
H649 H 0.81381 0.13166 0.47317 0.0
H650 H 0.7766 0.13877 0.42381 0.0
H651 H 0.79622 0.16308 0.44503 0.0
H652 H 0.76397 0.12853 0.51778 0.0
H653 H 0.78477 0.15024 0.49467 0.0
H654 H 0.80429 0.12276 0.54455 0.0
H655 H 0.825 0.14458 0.52176 0.0
H656 H 0.87594 0.24595 0.51865 0.0
H657 H 0.85474 0.22426 0.49581 0.0
H658 H 0.8861 0.20795 0.54402 0.0
H659 H 0.86482 0.18638 0.52159 0.0
H660 H 0.90171 0.22643 0.45656 0.0
H661 H 0.87912 0.20481 0.47747 0.0
H662 H 0.86403 0.22767 0.41787 0.0
H663 H 0.84123 0.20654 0.43956 0.0
N664 N 0.83124 0.17766 0.46315 0.0
N665 N 0.83243 0.17637 0.50401 0.0
C666 C 0.98647 0.54483 0.17959 0.0
C667 C 0.9957 0.54883 0.16139 0.0
C668 C 0.98681 0.53303 0.19303 0.0
C669 C 0.99679 0.52542 0.18877 0.0
C670 C 0.00571 0.54131 0.15719 0.0
C671 C 0.00629 0.52981 0.17074 0.0
C672 C 0.99626 0.51169 0.20165 0.0
C673 C 0.01589 0.55616 0.24498 0.0
C674 C 1.00389 0.55421 0.25979 0.0
C675 C 0.01305 0.54244 0.23263 0.0
C676 C 0.99826 0.52648 0.23504 0.0
C677 C 0.98896 0.53831 0.26199 0.0
C678 C 0.98629 0.52447 0.2499 0.0
C679 C 0.99588 0.51167 0.223 0.0
C680 C 0.0079 0.45357 0.24389 0.0
C681 C 0.99778 0.44747 0.26136 0.0
C682 C 0.00697 0.46559 0.23153 0.0
C683 C 0.99547 0.47138 0.23598 0.0
C684 C 0.98659 0.45354 0.26614 0.0
C685 C 0.98543 0.46534 0.25354 0.0
C686 C 0.99483 0.48468 0.22344 0.0
C687 C 0.98202 0.44168 0.17833 0.0
C688 C 0.9953 0.44609 0.16433 0.0
C689 C 0.98212 0.45412 0.19109 0.0
C690 C 0.99537 0.47116 0.18976 0.0
C691 C 0.0086 0.46311 0.16325 0.0
C692 C 0.00852 0.47554 0.17567 0.0
C693 C 0.99532 0.48478 0.2021 0.0
H694 H 0.9785 0.55031 0.18303 0.0
H695 H 0.97877 0.52946 0.20632 0.0
H696 H 0.01303 0.54428 0.14332 0.0
H697 H 0.01403 0.52412 0.16694 0.0
H698 H 0.02748 0.56831 0.24298 0.0
H699 H 0.02257 0.54419 0.22146 0.0
H700 H 0.97959 0.53649 0.2734 0.0
H701 H 0.97488 0.51221 0.25211 0.0
H702 H 0.01694 0.44943 0.24012 0.0
H703 H 0.0156 0.47065 0.21881 0.0
H704 H 0.97869 0.44908 0.27956 0.0
H705 H 0.97668 0.4698 0.25755 0.0
H706 H 0.97162 0.42864 0.17941 0.0
H707 H 0.97174 0.45054 0.2017 0.0
H708 H 0.01886 0.46688 0.15241 0.0
H709 H 0.01878 0.48864 0.1743 0.0
N710 N 0.99604 0.49824 0.19216 0.0
N711 N 0.99505 0.49813 0.23302 0.0
C712 C 0.46494 0.44138 0.18395 0.0
C713 C 0.45875 0.44622 0.16719 0.0
C714 C 0.47724 0.45376 0.19672 0.0
C715 C 0.48334 0.4712 0.19322 0.0
C716 C 0.46522 0.46372 0.16355 0.0
C717 C 0.47731 0.476 0.1764 0.0
C718 C 0.49666 0.48474 0.20608 0.0
C719 C 0.45203 0.45407 0.24717 0.0
C720 C 0.45553 0.44736 0.26445 0.0
C721 C 0.46532 0.46608 0.23516 0.0
C722 C 0.4824 0.47122 0.23976 0.0
C723 C 0.47259 0.45283 0.26942 0.0
C724 C 0.48589 0.46463 0.25716 0.0
C725 C 0.49668 0.48439 0.22749 0.0
C726 C 0.54696 0.55557 0.25002 0.0
C727 C 0.55728 0.55368 0.26442 0.0
C728 C 0.536 0.54186 0.2378 0.0
C729 C 0.53504 0.52595 0.23986 0.0
C730 C 0.5565 0.53782 0.2663 0.0
C731 C 0.54527 0.52398 0.25428 0.0
C732 C 0.52265 0.51126 0.22771 0.0
C733 C 0.56493 0.54387 0.18332 0.0
C734 C 0.55972 0.55155 0.16865 0.0
C735 C 0.55292 0.53128 0.19616 0.0
C736 C 0.5355 0.52602 0.19432 0.0
C737 C 0.54233 0.54649 0.16717 0.0
C738 C 0.53033 0.53373 0.17973 0.0
C739 C 0.52242 0.51171 0.20645 0.0
H740 H 0.46025 0.42804 0.18726 0.0
H741 H 0.48204 0.44968 0.20922 0.0
H742 H 0.46118 0.46801 0.15053 0.0
H743 H 0.48197 0.48936 0.17314 0.0
H744 H 0.439 0.45036 0.24326 0.0
H745 H 0.46221 0.47153 0.22245 0.0
H746 H 0.47563 0.4479 0.2827 0.0
H747 H 0.49894 0.4686 0.26127 0.0
H748 H 0.54738 0.56768 0.24821 0.0
H749 H 0.52801 0.54359 0.22699 0.0
H750 H 0.56427 0.53604 0.27738 0.0
H751 H 0.54459 0.51175 0.2562 0.0
H752 H 0.57826 0.54755 0.18476 0.0
H753 H 0.55716 0.52532 0.20712 0.0
H754 H 0.53793 0.55204 0.15584 0.0
H755 H 0.51694 0.52977 0.17796 0.0
N756 N 0.50948 0.49847 0.19652 0.0
N757 N 0.50981 0.49763 0.23742 0.0
C758 C 0.46173 0.02206 0.24572 0.0
C759 C 0.45504 0.00966 0.26101 0.0
C760 C 0.47582 0.02443 0.23431 0.0
C761 C 0.48305 0.01397 0.23744 0.0
C762 C 0.46269 0.99972 0.26474 0.0
C763 C 0.47649 1.0018 0.25304 0.0
C764 C 0.49778 0.01584 0.22532 0.0
C765 C 0.45809 0.00626 0.17693 0.0
C766 C 0.46312 0.02019 0.16372 0.0
C767 C 0.4697 0.00596 0.19064 0.0
C768 C 0.48656 0.01958 0.19144 0.0
C769 C 0.47995 0.03396 0.16497 0.0
C770 C 0.49156 0.03357 0.17852 0.0
C771 C 0.49948 0.01872 0.20424 0.0
C772 C 0.55478 0.00364 0.18079 0.0
C773 C 0.56178 0.015 0.16439 0.0
C774 C 0.54327 0.00469 0.19407 0.0
C775 C 0.5389 0.0175 0.19171 0.0
C776 C 0.55729 0.02774 0.16206 0.0
C777 C 0.54604 0.02898 0.17556 0.0
C778 C 0.52558 0.01798 0.20445 0.0
C779 C 0.56634 0.02258 0.24692 0.0
C780 C 0.56063 0.01033 0.2624 0.0
C781 C 0.55464 0.02467 0.23523 0.0
C782 C 0.53697 0.01408 0.23829 0.0
C783 C 0.54305 1.00034 0.2661 0.0
C784 C 0.53135 1.00216 0.25414 0.0
C785 C 0.52418 0.01555 0.22565 0.0
H786 H 0.45618 0.03004 0.24277 0.0
H787 H 0.48105 0.03452 0.22317 0.0
H788 H 0.45772 0.99003 0.27641 0.0
H789 H 0.4819 0.99369 0.25602 0.0
H790 H 0.44536 0.99529 0.1762 0.0
H791 H 0.46567 0.99487 0.20017 0.0
H792 H 0.48423 0.04503 0.15534 0.0
H793 H 0.50454 0.04417 0.17882 0.0
H794 H 0.55801 0.99376 0.18329 0.0
H795 H 0.53751 0.99523 0.2059 0.0
H796 H 0.56199 0.03648 0.14941 0.0
H797 H 0.54265 0.03877 0.17312 0.0
H798 H 0.57987 0.03059 0.24397 0.0
H799 H 0.55943 0.0345 0.22376 0.0
H800 H 0.53832 0.99077 0.27791 0.0
H801 H 0.51783 0.99398 0.25705 0.0
N802 N 0.51025 0.01441 0.23509 0.0
N803 N 0.51328 0.01968 0.19476 0.0
C804 C 0.5576 0.01349 0.78337 0.0
C805 C 0.55603 1.00152 0.76875 0.0
C806 C 0.54374 0.01036 0.79565 0.0
C807 C 0.52802 0.99529 0.79336 0.0
C808 C 0.54033 0.98634 0.7666 0.0
C809 C 0.52634 0.98337 0.77863 0.0
C810 C 0.51319 0.99241 0.80573 0.0
C811 C 0.548 0.9839 0.84739 0.0
C812 C 0.55284 0.99386 0.86511 0.0
C813 C 0.53537 0.98341 0.83471 0.0
C814 C 0.52751 0.99308 0.83931 0.0
C815 C 0.54486 0.00343 0.86964 0.0
C816 C 0.53242 0.00306 0.85692 0.0
C817 C 0.51331 0.99209 0.82705 0.0
C818 C 0.44274 0.97919 0.84983 0.0
C819 C 0.44749 0.9878 0.86843 0.0
C820 C 0.45523 0.98036 0.83628 0.0
C821 C 0.47269 0.99057 0.84087 0.0
C822 C 0.46488 0.99802 0.87296 0.0
C823 C 0.47731 0.99944 0.85933 0.0
C824 C 0.48634 0.99108 0.82778 0.0
C825 C 0.4612 0.01147 0.78617 0.0
C826 C 0.45161 1.00001 0.77075 0.0
C827 C 0.47211 0.00845 0.79816 0.0
C828 C 0.47378 0.99402 0.79479 0.0
C829 C 0.45306 0.9854 0.7676 0.0
C830 C 0.46427 0.98257 0.77934 0.0
C831 C 0.48634 0.9916 0.80645 0.0
H832 H 0.5696 0.02525 0.78536 0.0
H833 H 0.54523 0.01982 0.80676 0.0
H834 H 0.5388 0.97698 0.75535 0.0
H835 H 0.51425 0.97173 0.77655 0.0
H836 H 0.55388 0.97641 0.84335 0.0
H837 H 0.53149 0.97513 0.82163 0.0
H838 H 0.54788 0.01092 0.88335 0.0
H839 H 0.52647 0.0105 0.86101 0.0
H840 H 0.42939 0.97109 0.84612 0.0
H841 H 0.45117 0.97282 0.8226 0.0
H842 H 0.46886 0.0049 0.88713 0.0
H843 H 0.49062 0.00736 0.86338 0.0
H844 H 0.46026 0.02279 0.78891 0.0
H845 H 0.47954 0.01759 0.80979 0.0
H846 H 0.44587 0.97645 0.75571 0.0
H847 H 0.46553 0.97146 0.77639 0.0
N848 N 0.4997 0.99212 0.79625 0.0
N849 N 0.49986 0.99138 0.8371 0.0
C850 C 1.00134 0.55307 0.79342 0.0
C851 C 0.01022 0.55898 0.77508 0.0
C852 C 1.00315 0.5412 0.8051 0.0
C853 C 0.01432 0.53542 0.79901 0.0
C854 C 0.02103 0.55287 0.76871 0.0
C855 C 0.02307 0.54122 0.78058 0.0
C856 C 0.01602 0.52245 0.81093 0.0
C857 C 0.0317 0.56729 0.85346 0.0
C858 C 0.02303 0.56309 0.87205 0.0
C859 C 0.03011 0.55439 0.84033 0.0
C860 C 0.01932 0.53709 0.8453 0.0
C861 C 0.01252 0.54586 0.87713 0.0
C862 C 0.01063 0.53303 0.86388 0.0
C863 C 0.01765 0.52296 0.83222 0.0
C864 C 0.02474 0.46119 0.85146 0.0
C865 C 0.01661 0.45773 0.87036 0.0
C866 C 0.02438 0.47328 0.83856 0.0
C867 C 0.01542 0.48171 0.84411 0.0
C868 C 0.00767 0.4661 0.87588 0.0
C869 C 0.00702 0.47788 0.86288 0.0
C870 C 0.01582 0.4956 0.83168 0.0
C871 C 0.99276 0.45035 0.78934 0.0
C872 C 0.00417 0.45177 0.77399 0.0
C873 C 0.99624 0.46441 0.80142 0.0
C874 C 0.01109 0.48017 0.79819 0.0
C875 C 0.01909 0.46753 0.77088 0.0
C876 C 0.02239 0.48169 0.78271 0.0
C877 C 0.01444 0.49521 0.81043 0.0
H878 H 0.99264 0.55729 0.79847 0.0
H879 H 0.99563 0.5364 0.81875 0.0
H880 H 0.02799 0.55719 0.7546 0.0
H881 H 0.03153 0.53675 0.77536 0.0
H882 H 0.04002 0.58053 0.84934 0.0
H883 H 0.03747 0.55796 0.82648 0.0
H884 H 0.00563 0.54231 0.89133 0.0
H885 H 1.00233 0.51984 0.86823 0.0
H886 H 0.03189 0.45502 0.84702 0.0
H887 H 0.0316 0.47641 0.82463 0.0
H888 H 1.00123 0.46358 0.89036 0.0
H889 H 1.00009 0.4842 0.86766 0.0
H890 H 0.9812 0.43831 0.79205 0.0
H891 H 0.98726 0.46303 0.81314 0.0
H892 H 0.028 0.46895 0.75905 0.0
H893 H 0.03384 0.49381 0.77991 0.0
N894 N 0.01466 0.50865 0.8009 0.0
N895 N 0.0174 0.50948 0.84158 0.0
C896 C 0.54585 0.56561 0.78563 0.0
C897 C 0.55484 0.55962 0.77402 0.0
C898 C 0.53158 0.55423 0.79702 0.0
C899 C 0.52607 0.53668 0.79692 0.0
C900 C 0.54904 0.54201 0.77367 0.0
C901 C 0.53475 0.53067 0.78488 0.0
C902 C 0.51111 0.52432 0.80886 0.0
C903 C 0.55101 0.55673 0.85532 0.0
C904 C 0.54539 0.56341 0.87078 0.0
C905 C 0.53937 0.54498 0.84152 0.0
C906 C 0.52197 0.5401 0.84253 0.0
C907 C 0.52807 0.55867 0.87171 0.0
C908 C 0.5165 0.54719 0.8577 0.0
C909 C 0.50903 0.52616 0.82972 0.0
C910 C 0.45254 0.45666 0.85371 0.0
C911 C 0.44573 0.46152 0.8699 0.0
C912 C 0.46425 0.46884 0.84032 0.0
C913 C 0.46895 0.48613 0.84221 0.0
C914 C 0.45044 0.47885 0.87171 0.0
C915 C 0.46185 0.49095 0.85802 0.0
C916 C 0.48271 0.49954 0.82954 0.0
C917 C 0.44341 0.46328 0.78537 0.0
C918 C 0.4494 0.45449 0.77337 0.0
C919 C 0.45481 0.47748 0.79677 0.0
C920 C 0.47238 0.48312 0.79636 0.0
C921 C 0.46704 0.46048 0.7726 0.0
C922 C 0.4784 0.4747 0.78386 0.0
C923 C 0.48472 0.49783 0.80862 0.0
H924 H 0.55004 0.57911 0.78619 0.0
H925 H 0.52487 0.55912 0.8059 0.0
H926 H 0.55554 0.53698 0.76463 0.0
H927 H 0.53063 0.51718 0.7844 0.0
H928 H 0.56426 0.55995 0.85453 0.0
H929 H 0.54393 0.5392 0.83066 0.0
H930 H 0.52342 0.56364 0.88351 0.0
H931 H 0.50314 0.5435 0.85902 0.0
H932 H 0.44912 0.44346 0.85153 0.0
H933 H 0.47002 0.4647 0.82894 0.0
H934 H 0.44586 0.48326 0.88415 0.0
H935 H 0.46547 0.50422 0.86011 0.0
H936 H 0.42989 0.45895 0.78626 0.0
H937 H 0.44991 0.48399 0.806 0.0
H938 H 0.47207 0.45416 0.76324 0.0
H939 H 0.49191 0.47893 0.78312 0.0
N940 N 0.4989 0.51021 0.79922 0.0
N941 N 0.49488 0.51372 0.8391 0.0
C942 C 0.66493 0.7858 0.51123 0.0
C943 C 0.65088 0.77673 0.4983 0.0
C944 C 0.66513 0.79754 0.52517 0.0
C945 C 0.65125 0.80039 0.52656 0.0
C946 C 0.63687 0.77942 0.50004 0.0
C947 C 0.63713 0.79123 0.51389 0.0
C948 C 0.65211 0.81411 0.53959 0.0
C949 C 0.65142 0.77426 0.58082 0.0
C950 C 0.66455 0.7803 0.59521 0.0
C951 C 0.64853 0.78571 0.56964 0.0
C952 C 0.65915 0.80345 0.57208 0.0
C953 C 0.67472 0.79795 0.59822 0.0
C954 C 0.6721 0.80939 0.58673 0.0
C955 C 0.65658 0.81601 0.56029 0.0
C956 C 0.65214 0.87839 0.58459 0.0
C957 C 0.66702 0.88671 0.59636 0.0
C958 C 0.64879 0.86409 0.57298 0.0
C959 C 0.66028 0.85787 0.57294 0.0
C960 C 0.67831 0.88025 0.59654 0.0
C961 C 0.67491 0.86593 0.58507 0.0
C962 C 0.65706 0.84274 0.56083 0.0
C963 C 0.66677 0.88298 0.51397 0.0
C964 C 0.65317 0.87873 0.50058 0.0
C965 C 0.66629 0.87087 0.52745 0.0
C966 C 0.65216 0.85426 0.52791 0.0
C967 C 0.63886 0.86223 0.50141 0.0
C968 C 0.63843 0.85008 0.51482 0.0
C969 C 0.65251 0.84076 0.54021 0.0
H970 H 0.67608 0.78434 0.51008 0.0
H971 H 0.67636 0.8048 0.53439 0.0
H972 H 0.62574 0.77251 0.49055 0.0
H973 H 0.62635 0.79335 0.51459 0.0
H974 H 0.64326 0.76068 0.57844 0.0
H975 H 0.6379 0.78062 0.55925 0.0
H976 H 0.68496 0.80292 0.60919 0.0
H977 H 0.68038 0.82295 0.58917 0.0
H978 H 0.64322 0.88309 0.58412 0.0
H979 H 0.63721 0.85786 0.56411 0.0
H980 H 0.68975 0.88621 0.60569 0.0
H981 H 0.68387 0.86127 0.58546 0.0
H982 H 0.67794 0.89561 0.51376 0.0
H983 H 0.67726 0.87432 0.53697 0.0
H984 H 0.62828 0.85849 0.49112 0.0
H985 H 0.62751 0.83728 0.5147 0.0
N986 N 0.65013 0.82649 0.53049 0.0
N987 N 0.65893 0.83032 0.56998 0.0
C988 C 0.13171 0.77379 0.51436 0.0
C989 C 0.12389 0.77891 0.49979 0.0
C990 C 0.1442 0.78584 0.52722 0.0
C991 C 0.14922 0.8032 0.52544 0.0
C992 C 0.12868 0.79624 0.49841 0.0
C993 C 0.14136 0.80829 0.51096 0.0
C994 C 0.16347 0.81634 0.5375 0.0
C995 C 0.1189 0.79169 0.57968 0.0
C996 C 0.12024 0.78098 0.5941 0.0
C997 C 0.133 0.803 0.56817 0.0
C998 C 0.14887 0.80402 0.57087 0.0
C999 C 0.13627 0.78219 0.5969 0.0
C1000 C 0.15048 0.79373 0.58552 0.0
C1001 C 0.16377 0.81629 0.55879 0.0
C1002 C 0.21942 0.88734 0.57713 0.0
C1003 C 0.22621 0.88463 0.59492 0.0
C1004 C 0.20815 0.87362 0.56515 0.0
C1005 C 0.20371 0.85683 0.57027 0.0
C1006 C 0.22178 0.86781 0.60006 0.0
C1007 C 0.21059 0.85406 0.5879 0.0
C1008 C 0.19071 0.84216 0.55838 0.0
C1009 C 0.23361 0.87075 0.51275 0.0
C1010 C 0.2293 0.87936 0.49835 0.0
C1011 C 0.22111 0.85885 0.52581 0.0
C1012 C 0.20411 0.85521 0.52432 0.0
C1013 C 0.21234 0.87582 0.4971 0.0
C1014 C 0.19983 0.8637 0.50977 0.0
C1015 C 0.19045 0.84197 0.53702 0.0
H1016 H 0.12823 0.7605 0.51569 0.0
H1017 H 0.15028 0.78169 0.53812 0.0
H1018 H 0.123 0.80055 0.48717 0.0
H1019 H 0.14514 0.82164 0.50927 0.0
H1020 H 0.10699 0.79158 0.57743 0.0
H1021 H 0.13156 0.81114 0.55732 0.0
H1022 H 0.13782 0.7741 0.6077 0.0
H1023 H 0.16266 0.79443 0.58792 0.0
H1024 H 0.22265 0.90009 0.57252 0.0
H1025 H 0.20253 0.8762 0.55218 0.0
H1026 H 0.22656 0.86521 0.61379 0.0
H1027 H 0.20713 0.84121 0.5924 0.0
H1028 H 0.24662 0.87328 0.51392 0.0
H1029 H 0.22462 0.85227 0.53677 0.0
H1030 H 0.2087 0.8822 0.48599 0.0
H1031 H 0.18678 0.86099 0.5083 0.0
N1032 N 0.17679 0.82916 0.52746 0.0
N1033 N 0.17739 0.82919 0.56846 0.0
C1034 C 0.23008 0.35756 0.51462 0.0
C1035 C 0.22552 0.34463 0.50012 0.0
C1036 C 0.21767 0.35755 0.52735 0.0
C1037 C 0.20048 0.34472 0.52558 0.0
C1038 C 0.20837 0.33167 0.49865 0.0
C1039 C 0.19596 0.33182 0.51111 0.0
C1040 C 0.18698 0.34518 0.5378 0.0
C1041 C 0.21403 0.32854 0.58029 0.0
C1042 C 0.22438 0.34099 0.59453 0.0
C1043 C 0.20229 0.33055 0.56871 0.0
C1044 C 0.20049 0.34499 0.57111 0.0
C1045 C 0.2224 0.35539 0.59707 0.0
C1046 C 0.21044 0.35729 0.58558 0.0
C1047 C 0.18762 0.34663 0.55905 0.0
C1048 C 0.11698 0.32671 0.58228 0.0
C1049 C 0.11899 0.33937 0.59612 0.0
C1050 C 0.13048 0.32917 0.56978 0.0
C1051 C 0.14632 0.34427 0.57101 0.0
C1052 C 0.13473 0.35464 0.59708 0.0
C1053 C 0.14839 0.35697 0.5848 0.0
C1054 C 0.16093 0.34609 0.55896 0.0
C1055 C 0.12865 0.35448 0.5125 0.0
C1056 C 0.12129 0.34138 0.49795 0.0
C1057 C 0.14079 0.35512 0.52614 0.0
C1058 C 0.14586 0.34276 0.52539 0.0
C1059 C 0.12592 0.32864 0.49796 0.0
C1060 C 0.13819 0.32945 0.51133 0.0
C1061 C 0.16021 0.34437 0.53774 0.0
H1062 H 0.24321 0.36769 0.51605 0.0
H1063 H 0.22141 0.36778 0.5382 0.0
H1064 H 0.20447 0.32167 0.48745 0.0
H1065 H 0.18277 0.32187 0.5094 0.0
H1066 H 0.21472 0.31701 0.57829 0.0
H1067 H 0.19438 0.32063 0.55806 0.0
H1068 H 0.23019 0.36529 0.60778 0.0
H1069 H 0.20911 0.36844 0.58779 0.0
H1070 H 0.10495 0.31485 0.58122 0.0
H1071 H 0.12869 0.31907 0.55949 0.0
H1072 H 0.13659 0.36454 0.60772 0.0
H1073 H 0.16056 0.36863 0.58611 0.0
H1074 H 0.12556 0.36461 0.51287 0.0
H1075 H 0.14674 0.36567 0.53668 0.0
H1076 H 0.12022 0.31809 0.48741 0.0
H1077 H 0.14187 0.31973 0.51055 0.0
N1078 N 0.17326 0.344 0.52801 0.0
N1079 N 0.1746 0.34712 0.56887 0.0
H1080 H 0.97509 0.3671 0.07352 0.0
H1081 H 0.02791 0.40646 0.06742 0.0
H1082 H 0.97234 0.38163 0.10323 0.0
H1083 H 0.02503 0.42123 0.09638 0.0
H1084 H 0.02093 0.4392 0.15741 0.0
H1085 H 0.0222 0.42062 0.13158 0.0
H1086 H 0.97098 0.40629 0.11283 0.0
H1087 H 0.96958 0.42439 0.13934 0.0
C1088 C 0.9861 0.37885 0.07849 0.0
C1089 C 1.00173 0.38558 0.06809 0.0
C1090 C 0.98451 0.38723 0.09547 0.0
C1091 C 0.99847 0.40261 0.10234 0.0
C1092 C 0.01408 0.40924 0.09191 0.0
C1093 C 0.01571 0.40081 0.07513 0.0
C1094 C 0.00989 0.43188 0.1479 0.0
C1095 C 0.99521 0.43329 0.15025 0.0
C1096 C 0.01063 0.42132 0.13299 0.0
C1097 C 0.99681 0.41214 0.11981 0.0
C1098 C 0.98183 0.41302 0.12276 0.0
C1099 C 0.98101 0.42342 0.13791 0.0
H1100 H 0.59871 0.62097 0.06847 0.0
H1101 H 0.64 0.61102 0.07973 0.0
H1102 H 0.58349 0.6039 0.09761 0.0
H1103 H 0.62505 0.59444 0.1096 0.0
H1104 H 0.58337 0.54883 0.1457 0.0
H1105 H 0.60136 0.56805 0.11906 0.0
H1106 H 0.58227 0.60232 0.13284 0.0
H1107 H 0.56381 0.58266 0.15884 0.0
C1108 C 0.60469 0.61535 0.07737 0.0
C1109 C 0.62057 0.61733 0.0717 0.0
C1110 C 0.59598 0.60562 0.09424 0.0
C1111 C 0.60301 0.59776 0.10612 0.0
C1112 C 0.6191 0.60006 0.10068 0.0
C1113 C 0.62774 0.60966 0.08361 0.0
C1114 C 0.58323 0.5606 0.14316 0.0
C1115 C 0.57212 0.56421 0.1542 0.0
C1116 C 0.59358 0.57167 0.12792 0.0
C1117 C 0.5932 0.58673 0.12356 0.0
C1118 C 0.58262 0.59066 0.13535 0.0
C1119 C 0.57211 0.57947 0.15036 0.0
H1120 H 0.41287 0.03767 0.06083 0.0
H1121 H 0.37981 0.98541 0.0794 0.0
H1122 H 0.43152 0.04195 0.08961 0.0
H1123 H 0.39841 0.98972 0.10801 0.0
H1124 H 0.4706 0.03212 0.12483 0.0
H1125 H 0.45107 0.03074 0.09875 0.0
H1126 H 0.4089 0.00588 0.14046 0.0
H1127 H 0.42851 0.00765 0.16689 0.0
C1128 C 0.40948 0.02716 0.07115 0.0
C1129 C 0.39491 0.01117 0.06774 0.0
C1130 C 0.4202 0.02959 0.08756 0.0
C1131 C 0.41645 0.01615 0.10103 0.0
C1132 C 0.40157 1.00036 0.09801 0.0
C1133 C 0.39097 0.99788 0.08152 0.0
C1134 C 0.45724 0.02669 0.12867 0.0
C1135 C 0.45119 0.02 0.14806 0.0
C1136 C 0.44603 0.02588 0.11365 0.0
C1137 C 0.42845 0.0182 0.11754 0.0
C1138 C 0.42237 0.01172 0.13696 0.0
C1139 C 0.43361 0.01267 0.15207 0.0
H1140 H 0.37894 0.96546 0.9718 0.0
H1141 H 0.39161 0.01532 0.94955 0.0
H1142 H 0.39375 0.96175 0.94289 0.0
H1143 H 0.40617 0.01149 0.92065 0.0
H1144 H 0.42047 0.99304 0.86309 0.0
H1145 H 0.40076 0.99249 0.88911 0.0
H1146 H 0.42578 0.97771 0.93359 0.0
H1147 H 0.44549 0.97846 0.90774 0.0
C1148 C 0.38463 0.97549 0.96059 0.0
C1149 C 0.38422 0.99074 0.96304 0.0
C1150 C 0.39314 0.97339 0.94411 0.0
C1151 C 0.40112 0.98635 0.92957 0.0
C1152 C 0.40002 1.00124 0.93153 0.0
C1153 C 0.39178 0.00347 0.94816 0.0
C1154 C 0.42155 0.98946 0.87839 0.0
C1155 C 0.43452 0.9859 0.88349 0.0
C1156 C 0.41036 0.98921 0.89325 0.0
C1157 C 0.41176 0.98505 0.91334 0.0
C1158 C 0.4243 0.98081 0.9182 0.0
C1159 C 0.43564 0.98136 0.90347 0.0
H1160 H 0.0409 0.40842 0.96769 0.0
H1161 H 0.98802 0.37446 0.95244 0.0
H1162 H 0.04351 0.42677 0.93921 0.0
H1163 H 0.99078 0.39272 0.92381 0.0
H1164 H 0.00761 0.42433 0.86451 0.0
H1165 H 0.00776 0.40443 0.88969 0.0
H1166 H 0.02882 0.44504 0.93375 0.0
H1167 H 0.02837 0.46472 0.90879 0.0
C1168 C 0.02993 0.40471 0.95807 0.0
C1169 C 0.01422 0.39005 0.9624 0.0
C1170 C 0.03142 0.41525 0.94183 0.0
C1171 C 0.01733 0.41116 0.92938 0.0
C1172 C 1.00186 0.39609 0.93311 0.0
C1173 C 1.00027 0.38571 0.94955 0.0
C1174 C 0.01241 0.42896 0.87953 0.0
C1175 C 0.01791 0.44597 0.88482 0.0
C1176 C 0.01244 0.41762 0.8939 0.0
C1177 C 0.01834 0.42324 0.91361 0.0
C1178 C 0.02436 0.44041 0.91862 0.0
C1179 C 0.02401 0.45163 0.90442 0.0
H1180 H 0.61389 0.64264 0.95517 0.0
H1181 H 0.61211 0.59594 0.97365 0.0
H1182 H 0.59498 0.62745 0.9267 0.0
H1183 H 0.593 0.58085 0.9456 0.0
H1184 H 0.54112 0.55837 0.91125 0.0
H1185 H 0.56113 0.57506 0.93805 0.0
H1186 H 0.59643 0.60942 0.89352 0.0
H1187 H 0.57647 0.59245 0.86653 0.0
C1188 C 0.60952 0.62919 0.95313 0.0
C1189 C 0.61448 0.62049 0.96667 0.0
C1190 C 0.59878 0.62055 0.93684 0.0
C1191 C 0.59253 0.60301 0.9341 0.0
C1192 C 0.5976 0.59437 0.94749 0.0
C1193 C 0.60859 0.60304 0.96348 0.0
C1194 C 0.55309 0.56956 0.90721 0.0
C1195 C 0.55727 0.57417 0.88687 0.0
C1196 C 0.56455 0.57903 0.92249 0.0
C1197 C 0.58027 0.59347 0.91778 0.0
C1198 C 0.58433 0.59836 0.89749 0.0
C1199 C 0.57299 0.58865 0.88211 0.0
H1200 H 0.99259 0.61796 0.95028 0.0
H1201 H 0.04316 0.63358 0.9726 0.0
H1202 H 0.99733 0.60351 0.92192 0.0
H1203 H 0.04777 0.61889 0.94428 0.0
H1204 H 0.03286 0.56655 0.91126 0.0
H1205 H 0.03289 0.58653 0.93623 0.0
H1206 H 0.01675 0.60931 0.89036 0.0
H1207 H 0.01698 0.58938 0.86525 0.0
C1208 C 0.00478 0.61847 0.94901 0.0
C1209 C 0.01746 0.62681 0.96375 0.0
C1210 C 0.00753 0.6103 0.93269 0.0
C1211 C 0.0229 0.61006 0.93095 0.0
C1212 C 0.03578 0.61883 0.94533 0.0
C1213 C 0.03315 0.62728 0.96148 0.0
C1214 C 0.02959 0.57602 0.90649 0.0
C1215 C 0.02488 0.57646 0.88641 0.0
C1216 C 0.02969 0.58749 0.92071 0.0
C1217 C 0.0248 0.59944 0.91521 0.0
C1218 C 0.02052 0.60019 0.89498 0.0
C1219 C 0.02073 0.58889 0.88064 0.0
H1220 H 0.36813 0.39651 0.95954 0.0
H1221 H 0.41331 0.39351 0.97272 0.0
H1222 H 0.38248 0.41448 0.93028 0.0
H1223 H 0.42796 0.41213 0.94445 0.0
H1224 H 0.44714 0.43357 0.8837 0.0
H1225 H 0.43019 0.41365 0.90984 0.0
H1226 H 0.40342 0.44154 0.91957 0.0
H1227 H 0.41925 0.46054 0.89191 0.0
C1228 C 0.38117 0.39981 0.95626 0.0
C1229 C 0.38954 0.3935 0.96835 0.0
C1230 C 0.38946 0.4102 0.93956 0.0
C1231 C 0.40642 0.41476 0.93478 0.0
C1232 C 0.41478 0.40858 0.94716 0.0
C1233 C 0.40641 0.39797 0.96356 0.0
C1234 C 0.43734 0.43527 0.89094 0.0
C1235 C 0.4347 0.44882 0.88552 0.0
C1236 C 0.4278 0.42397 0.90635 0.0
C1237 C 0.41556 0.42606 0.91721 0.0
C1238 C 0.41262 0.43937 0.91155 0.0
C1239 C 0.42196 0.45051 0.89582 0.0
H1240 H 0.63537 0.01923 0.95121 0.0
H1241 H 0.59676 0.96743 0.96497 0.0
H1242 H 0.61962 0.01872 0.92126 0.0
H1243 H 0.58043 0.96714 0.93563 0.0
H1244 H 0.55771 0.9671 0.87546 0.0
H1245 H 0.57721 0.96685 0.90054 0.0
H1246 H 0.59544 0.02014 0.91321 0.0
H1247 H 0.57703 0.0207 0.88713 0.0
C1248 C 0.62348 0.00772 0.94782 0.0
C1249 C 0.61724 0.99342 0.96052 0.0
C1250 C 0.61435 0.00745 0.9307 0.0
C1251 C 0.59856 0.99298 0.92606 0.0
C1252 C 0.59262 0.97846 0.93848 0.0
C1253 C 0.60193 0.97864 0.95541 0.0
C1254 C 0.56618 0.97887 0.88324 0.0
C1255 C 0.56563 0.99389 0.87932 0.0
C1256 C 0.57721 0.97866 0.8979 0.0
C1257 C 0.58787 0.99342 0.90916 0.0
C1258 C 0.58764 0.00854 0.90478 0.0
C1259 C 0.57681 0.0088 0.88998 0.0
H1260 H 0.5949 0.97947 0.06175 0.0
H1261 H 0.6402 0.02703 0.0764 0.0
H1262 H 0.58014 0.98302 0.09034 0.0
H1263 H 0.62574 0.03021 0.10585 0.0
H1264 H 0.58883 0.04015 0.14304 0.0
H1265 H 0.60491 0.03673 0.11584 0.0
H1266 H 0.57727 0.9821 0.12508 0.0
H1267 H 0.56013 0.9854 0.15092 0.0
C1268 C 0.60181 0.99058 0.0713 0.0
C1269 C 0.61872 0.00298 0.06676 0.0
C1270 C 0.59337 0.99257 0.08787 0.0
C1271 C 0.6017 0.00688 0.10063 0.0
C1272 C 0.61876 0.01916 0.09625 0.0
C1273 C 0.62712 0.0173 0.07942 0.0
C1274 C 0.586 0.02737 0.13913 0.0
C1275 C 0.57294 0.01306 0.14916 0.0
C1276 C 0.59548 0.02542 0.12368 0.0
C1277 C 0.59239 0.00911 0.11801 0.0
C1278 C 0.57982 0.99486 0.12862 0.0
C1279 C 0.57014 0.99679 0.14381 0.0
H1280 H 0.9734 0.59588 0.0595 0.0
H1281 H 0.02292 0.63368 0.08182 0.0
H1282 H 0.97043 0.5771 0.08768 0.0
H1283 H 0.01981 0.61498 0.11007 0.0
H1284 H 1.00092 0.58106 0.16726 0.0
H1285 H 1.00065 0.60053 0.1416 0.0
H1286 H 0.98733 0.56167 0.09611 0.0
H1287 H 0.98781 0.54239 0.1216 0.0
C1288 C 0.98352 0.6003 0.07057 0.0
C1289 C 0.99844 0.61622 0.06835 0.0
C1290 C 0.98185 0.58952 0.08663 0.0
C1291 C 0.99491 0.59459 0.101 0.0
C1292 C 0.00949 0.61081 0.09929 0.0
C1293 C 0.0113 0.62145 0.08305 0.0
C1294 C 0.99779 0.57669 0.1518 0.0
C1295 C 0.99449 0.5603 0.14634 0.0
C1296 C 0.9977 0.58781 0.13715 0.0
C1297 C 0.99394 0.58258 0.1169 0.0
C1298 C 0.99012 0.56599 0.11162 0.0
C1299 C 0.99052 0.55502 0.12616 0.0
H1300 H 0.37347 0.38697 0.08543 0.0
H1301 H 0.41366 0.37759 0.06589 0.0
H1302 H 0.39001 0.40179 0.11516 0.0
H1303 H 0.43074 0.39329 0.095 0.0
H1304 H 0.45585 0.41587 0.15437 0.0
H1305 H 0.43586 0.39582 0.12982 0.0
H1306 H 0.41342 0.42801 0.12268 0.0
H1307 H 0.43235 0.44716 0.14825 0.0
C1308 C 0.38587 0.38808 0.08753 0.0
C1309 C 0.39233 0.38124 0.07326 0.0
C1310 C 0.39544 0.3967 0.10451 0.0
C1311 C 0.41191 0.39907 0.10742 0.0
C1312 C 0.41807 0.39161 0.09348 0.0
C1313 C 0.40832 0.38267 0.07669 0.0
C1314 C 0.44637 0.41845 0.14791 0.0
C1315 C 0.44588 0.43328 0.15321 0.0
C1316 C 0.43504 0.40705 0.13357 0.0
C1317 C 0.42303 0.41026 0.12403 0.0
C1318 C 0.42227 0.42486 0.12979 0.0
C1319 C 0.4334 0.43609 0.14428 0.0
H1320 H 0.63599 0.7111 0.39357 0.0
H1321 H 0.68795 0.73045 0.41341 0.0
H1322 H 0.63091 0.72495 0.42241 0.0
H1323 H 0.68287 0.74427 0.44203 0.0
H1324 H 0.66382 0.75498 0.50088 0.0
H1325 H 0.66627 0.73783 0.47397 0.0
H1326 H 0.64109 0.75509 0.43282 0.0
H1327 H 0.63893 0.7725 0.45949 0.0
C1328 C 0.64628 0.71818 0.40414 0.0
C1329 C 0.6624 0.71973 0.40111 0.0
C1330 C 0.64339 0.72618 0.42059 0.0
C1331 C 0.6565 0.73572 0.43448 0.0
C1332 C 0.67246 0.73687 0.43173 0.0
C1333 C 0.67539 0.72903 0.41522 0.0
C1334 C 0.65884 0.75517 0.48609 0.0
C1335 C 0.65125 0.76522 0.48239 0.0
C1336 C 0.66021 0.7453 0.47069 0.0
C1337 C 0.6539 0.74513 0.45127 0.0
C1338 C 0.64586 0.75476 0.4477 0.0
C1339 C 0.64461 0.76473 0.46304 0.0
H1340 H 0.30628 0.93599 0.40435 0.0
H1341 H 0.26889 0.95247 0.40328 0.0
H1342 H 0.29228 0.91852 0.43416 0.0
H1343 H 0.25464 0.9347 0.43217 0.0
H1344 H 0.23795 0.91245 0.49286 0.0
H1345 H 0.2565 0.93204 0.46689 0.0
H1346 H 0.26728 0.8933 0.44493 0.0
H1347 H 0.24933 0.87407 0.47175 0.0
C1348 C 0.29508 0.93587 0.41043 0.0
C1349 C 0.28878 0.94571 0.40146 0.0
C1350 C 0.287 0.92579 0.42746 0.0
C1351 C 0.27237 0.92526 0.43578 0.0
C1352 C 0.26611 0.93508 0.42665 0.0
C1353 C 0.27425 0.94522 0.40987 0.0
C1354 C 0.24454 0.90829 0.48265 0.0
C1355 C 0.24218 0.89178 0.48417 0.0
C1356 C 0.25505 0.91942 0.46763 0.0
C1357 C 0.26317 0.91418 0.45345 0.0
C1358 C 0.26138 0.89786 0.4556 0.0
C1359 C 0.25106 0.88681 0.47091 0.0
H1360 H 0.04963 0.31274 0.39939 0.0
H1361 H 0.06196 0.36457 0.4122 0.0
H1362 H 0.0674 0.31377 0.42749 0.0
H1363 H 0.07975 0.36546 0.44057 0.0
H1364 H 0.09676 0.35097 0.50157 0.0
H1365 H 0.07753 0.3506 0.47533 0.0
H1366 H 0.09969 0.33107 0.4326 0.0
H1367 H 0.11925 0.33202 0.45828 0.0
C1368 C 0.05598 0.32431 0.40831 0.0
C1369 C 0.05445 0.33863 0.40342 0.0
C1370 C 0.06623 0.3249 0.42437 0.0
C1371 C 0.07506 0.33974 0.4361 0.0
C1372 C 0.07303 0.35385 0.4318 0.0
C1373 C 0.06291 0.35334 0.41551 0.0
C1374 C 0.09768 0.34678 0.48653 0.0
C1375 C 0.10947 0.34132 0.48219 0.0
C1376 C 0.08662 0.34653 0.47154 0.0
C1377 C 0.087 0.34062 0.45201 0.0
C1378 C 0.09888 0.33537 0.44763 0.0
C1379 C 0.11004 0.33583 0.46245 0.0
H1380 H 0.03458 0.30814 0.28995 0.0
H1381 H 0.07485 0.35965 0.30221 0.0
H1382 H 0.05159 0.30619 0.26227 0.0
H1383 H 0.09168 0.35761 0.27476 0.0
H1384 H 0.12483 0.33834 0.24534 0.0
H1385 H 0.10608 0.33982 0.2706 0.0
H1386 H 0.06484 0.31997 0.22757 0.0
H1387 H 0.08382 0.31896 0.2018 0.0
C1388 C 0.04695 0.31908 0.28666 0.0
C1389 C 0.05339 0.33401 0.29841 0.0
C1390 C 0.05664 0.31797 0.27077 0.0
C1391 C 0.07301 0.33169 0.26652 0.0
C1392 C 0.0792 0.34675 0.27788 0.0
C1393 C 0.06949 0.34793 0.29356 0.0
C1394 C 0.11186 0.33451 0.24106 0.0
C1395 C 0.10597 0.32879 0.22136 0.0
C1396 C 0.10109 0.3353 0.25561 0.0
C1397 C 0.08406 0.33019 0.25099 0.0
C1398 C 0.07791 0.32395 0.23154 0.0
C1399 C 0.08878 0.32333 0.21683 0.0
H1400 H 0.66182 0.7121 0.28267 0.0
H1401 H 0.71123 0.74806 0.30705 0.0
H1402 H 0.66703 0.73096 0.25393 0.0
H1403 H 0.71633 0.76703 0.27831 0.0
H1404 H 0.70138 0.8034 0.24323 0.0
H1405 H 0.70127 0.78383 0.26872 0.0
H1406 H 0.68696 0.7448 0.2232 0.0
H1407 H 0.68728 0.76457 0.19757 0.0
C1408 C 0.67388 0.72393 0.28177 0.0
C1409 C 0.68606 0.72865 0.29722 0.0
C1410 C 0.6769 0.73467 0.26523 0.0
C1411 C 0.69206 0.75047 0.26394 0.0
C1412 C 0.7045 0.75494 0.27901 0.0
C1413 C 0.7016 0.74406 0.2954 0.0
C1414 C 0.69846 0.79072 0.23866 0.0
C1415 C 0.69426 0.78543 0.21851 0.0
C1416 C 0.6985 0.77957 0.25318 0.0
C1417 C 0.6941 0.7628 0.24793 0.0
C1418 C 0.69036 0.75765 0.22765 0.0
C1419 C 0.69061 0.76894 0.21301 0.0
H1420 H 0.29663 0.94888 0.28416 0.0
H1421 H 0.2613 0.96434 0.30603 0.0
H1422 H 0.27789 0.93457 0.25553 0.0
H1423 H 0.24244 0.94978 0.27744 0.0
H1424 H 0.20556 0.89807 0.24345 0.0
H1425 H 0.22518 0.91745 0.26896 0.0
H1426 H 0.26481 0.94074 0.22382 0.0
H1427 H 0.245 0.92141 0.19815 0.0
C1428 C 0.28495 0.94938 0.28274 0.0
C1429 C 0.28039 0.95765 0.29742 0.0
C1430 C 0.27429 0.94128 0.26628 0.0
C1431 C 0.25871 0.94104 0.26433 0.0
C1432 C 0.25436 0.94973 0.27866 0.0
C1433 C 0.26518 0.9581 0.29496 0.0
C1434 C 0.21841 0.90746 0.23897 0.0
C1435 C 0.22384 0.90823 0.21891 0.0
C1436 C 0.22958 0.91862 0.2535 0.0
C1437 C 0.24649 0.93058 0.24834 0.0
C1438 C 0.25184 0.9316 0.22817 0.0
C1439 C 0.24053 0.92062 0.21352 0.0
H1440 H 0.70644 0.97281 0.29509 0.0
H1441 H 0.65329 0.93364 0.2973 0.0
H1442 H 0.71033 0.95949 0.26486 0.0
H1443 H 0.65726 0.92009 0.26792 0.0
H1444 H 0.66314 0.90448 0.20666 0.0
H1445 H 0.66146 0.92249 0.23294 0.0
H1446 H 0.71167 0.93501 0.25387 0.0
H1447 H 0.71353 0.91754 0.2268 0.0
C1448 C 0.69561 0.96136 0.28917 0.0
C1449 C 0.67955 0.95434 0.2986 0.0
C1450 C 0.69785 0.95367 0.2719 0.0
C1451 C 0.68409 0.93875 0.26377 0.0
C1452 C 0.66808 0.93179 0.27332 0.0
C1453 C 0.66582 0.93952 0.29037 0.0
C1454 C 0.6739 0.91134 0.2167 0.0
C1455 C 0.68841 0.90958 0.21484 0.0
C1456 C 0.67292 0.92155 0.23189 0.0
C1457 C 0.68629 0.92997 0.24587 0.0
C1458 C 0.70117 0.92884 0.24334 0.0
C1459 C 0.70225 0.91881 0.22789 0.0
H1460 H 0.07347 0.72052 0.29629 0.0
H1461 H 0.03238 0.73166 0.29098 0.0
H1462 H 0.08727 0.73802 0.26696 0.0
H1463 H 0.04598 0.74882 0.26092 0.0
H1464 H 0.08781 0.79533 0.22489 0.0
H1465 H 0.07009 0.77542 0.25127 0.0
H1466 H 0.08594 0.73977 0.23165 0.0
H1467 H 0.10411 0.76001 0.20595 0.0
C1468 C 0.06723 0.72652 0.28869 0.0
C1469 C 0.05182 0.7247 0.29606 0.0
C1470 C 0.07511 0.73648 0.27169 0.0
C1471 C 0.06773 0.7448 0.2614 0.0
C1472 C 0.05214 0.74277 0.26857 0.0
C1473 C 0.0443 0.73286 0.28575 0.0
C1474 C 0.08723 0.7831 0.22608 0.0
C1475 C 0.09742 0.77924 0.21358 0.0
C1476 C 0.07705 0.77165 0.24115 0.0
C1477 C 0.07676 0.75605 0.24385 0.0
C1478 C 0.08619 0.75184 0.23042 0.0
C1479 C 0.09651 0.76336 0.21559 0.0
H1480 H 0.2895 0.36049 0.30176 0.0
H1481 H 0.27948 0.30929 0.28992 0.0
H1482 H 0.27279 0.35897 0.27245 0.0
H1483 H 0.26323 0.30798 0.25993 0.0
H1484 H 0.21804 0.30476 0.22363 0.0
H1485 H 0.23691 0.30565 0.25043 0.0
H1486 H 0.27179 0.3588 0.23705 0.0
H1487 H 0.25253 0.35795 0.21079 0.0
C1488 C 0.28392 0.34897 0.29272 0.0
C1489 C 0.2858 0.33499 0.29826 0.0
C1490 C 0.27441 0.34814 0.27575 0.0
C1491 C 0.26665 0.33337 0.26367 0.0
C1492 C 0.2688 0.31948 0.269 0.0
C1493 C 0.2782 0.32026 0.28615 0.0
C1494 C 0.22987 0.31654 0.22626 0.0
C1495 C 0.23377 0.33132 0.21524 0.0
C1496 C 0.24074 0.31707 0.2416 0.0
C1497 C 0.25585 0.33235 0.24612 0.0
C1498 C 0.26008 0.34692 0.23439 0.0
C1499 C 0.24911 0.34643 0.21924 0.0
H1500 H 0.30747 0.36764 0.41241 0.0
H1501 H 0.26711 0.31606 0.40091 0.0
H1502 H 0.29195 0.36895 0.44201 0.0
H1503 H 0.25141 0.31757 0.42976 0.0
H1504 H 0.23113 0.31845 0.49079 0.0
H1505 H 0.25028 0.31797 0.46513 0.0
H1506 H 0.26742 0.37079 0.45098 0.0
H1507 H 0.24869 0.37132 0.47725 0.0
C1508 C 0.29531 0.3566 0.41618 0.0
C1509 C 0.28856 0.34175 0.40427 0.0
C1510 C 0.28635 0.35737 0.43309 0.0
C1511 C 0.27039 0.34335 0.43839 0.0
C1512 C 0.26379 0.3285 0.4265 0.0
C1513 C 0.27278 0.32768 0.40978 0.0
C1514 C 0.23914 0.32998 0.4823 0.0
C1515 C 0.23836 0.34488 0.4859 0.0
C1516 C 0.25005 0.32971 0.4675 0.0
C1517 C 0.26027 0.34427 0.4557 0.0
C1518 C 0.25991 0.35937 0.45986 0.0
C1519 C 0.24914 0.35969 0.47488 0.0
H1520 H 0.635 0.92747 0.39769 0.0
H1521 H 0.68732 0.9622 0.41435 0.0
H1522 H 0.63208 0.90937 0.42648 0.0
H1523 H 0.68426 0.94455 0.44346 0.0
H1524 H 0.68047 0.89874 0.47658 0.0
H1525 H 0.68243 0.91803 0.44988 0.0
H1526 H 0.63066 0.90607 0.46235 0.0
H1527 H 0.62862 0.88637 0.4889 0.0
C1528 C 0.64578 0.93139 0.40768 0.0
C1529 C 0.66144 0.94618 0.4036 0.0
C1530 C 0.6441 0.92105 0.42426 0.0
C1531 C 0.65799 0.92536 0.43723 0.0
C1532 C 0.67341 0.94056 0.43356 0.0
C1533 C 0.67514 0.95077 0.41691 0.0
C1534 C 0.66957 0.90039 0.47381 0.0
C1535 C 0.65442 0.89108 0.48493 0.0
C1536 C 0.6707 0.9115 0.45849 0.0
C1537 C 0.65674 0.91374 0.45396 0.0
C1538 C 0.6416 0.90453 0.46522 0.0
C1539 C 0.64043 0.89327 0.48048 0.0
H1540 H 0.05491 0.74102 0.3997 0.0
H1541 H 0.06605 0.70025 0.40871 0.0
H1542 H 0.07184 0.75573 0.42905 0.0
H1543 H 0.08251 0.71468 0.43882 0.0
H1544 H 0.12743 0.75619 0.47603 0.0
H1545 H 0.10854 0.73853 0.44901 0.0
H1546 H 0.07307 0.7558 0.46428 0.0
H1547 H 0.09239 0.77398 0.49063 0.0
C1548 C 0.06079 0.73506 0.40813 0.0
C1549 C 0.05914 0.71946 0.4018 0.0
C1550 C 0.07043 0.74346 0.42514 0.0
C1551 C 0.07853 0.7364 0.4365 0.0
C1552 C 0.07667 0.72064 0.43033 0.0
C1553 C 0.06715 0.71231 0.41312 0.0
C1554 C 0.11546 0.75598 0.47373 0.0
C1555 C 0.1114 0.76652 0.48527 0.0
C1556 C 0.10459 0.74583 0.45828 0.0
C1557 C 0.08931 0.74584 0.45421 0.0
C1558 C 0.08491 0.75578 0.46655 0.0
C1559 C 0.0959 0.76611 0.48176 0.0
H1560 H 0.35342 0.06159 0.74766 0.0
H1561 H 0.29973 0.03764 0.73335 0.0
H1562 H 0.34907 0.07598 0.77633 0.0
H1563 H 0.29544 0.05215 0.76206 0.0
H1564 H 0.3035 0.10165 0.79506 0.0
H1565 H 0.30514 0.08322 0.76939 0.0
H1566 H 0.33393 0.07003 0.81013 0.0
H1567 H 0.33184 0.08803 0.8362 0.0
C1568 C 0.34066 0.05926 0.75074 0.0
C1569 C 0.32694 0.04853 0.73814 0.0
C1570 C 0.33816 0.06744 0.76724 0.0
C1571 C 0.32193 0.06524 0.77138 0.0
C1572 C 0.30812 0.05419 0.75911 0.0
C1573 C 0.31057 0.04582 0.74275 0.0
C1574 C 0.30984 0.09454 0.79881 0.0
C1575 C 0.31757 0.09642 0.81778 0.0
C1576 C 0.31081 0.084 0.78402 0.0
C1577 C 0.31969 0.07522 0.78774 0.0
C1578 C 0.32716 0.0768 0.80678 0.0
C1579 C 0.32602 0.08719 0.82167 0.0
H1580 H 0.97403 0.27475 0.74497 0.0
H1581 H 0.92864 0.27769 0.73297 0.0
H1582 H 0.96027 0.25721 0.77471 0.0
H1583 H 0.91461 0.25956 0.7618 0.0
H1584 H 0.89667 0.23881 0.82314 0.0
H1585 H 0.91325 0.25854 0.79662 0.0
H1586 H 0.9393 0.23011 0.78574 0.0
H1587 H 0.92381 0.21124 0.81367 0.0
C1588 C 0.96109 0.27156 0.74862 0.0
C1589 C 0.95247 0.2777 0.73668 0.0
C1590 C 0.95313 0.26141 0.76561 0.0
C1591 C 0.93629 0.25696 0.77086 0.0
C1592 C 0.92771 0.26302 0.75869 0.0
C1593 C 0.93573 0.27336 0.74198 0.0
C1594 C 0.90624 0.23695 0.81555 0.0
C1595 C 0.90877 0.22328 0.8207 0.0
C1596 C 0.91557 0.24815 0.79995 0.0
C1597 C 0.92748 0.24584 0.78866 0.0
C1598 C 0.93035 0.23243 0.79409 0.0
C1599 C 0.92121 0.22138 0.80998 0.0
H1600 H 0.71289 0.65496 0.74778 0.0
H1601 H 0.74962 0.70594 0.72831 0.0
H1602 H 0.73044 0.65811 0.77695 0.0
H1603 H 0.76759 0.70892 0.75727 0.0
H1604 H 0.79006 0.71319 0.82042 0.0
H1605 H 0.77089 0.71142 0.79335 0.0
H1606 H 0.75641 0.65861 0.78353 0.0
H1607 H 0.77522 0.66034 0.81068 0.0
C1608 C 0.72474 0.66686 0.74972 0.0
C1609 C 0.72991 0.68015 0.7356 0.0
C1610 C 0.73489 0.66864 0.76642 0.0
C1611 C 0.75059 0.68367 0.76937 0.0
C1612 C 0.75552 0.6972 0.75559 0.0
C1613 C 0.74526 0.69548 0.73892 0.0
C1614 C 0.78273 0.70122 0.81246 0.0
C1615 C 0.78406 0.68687 0.81779 0.0
C1616 C 0.77179 0.70021 0.79691 0.0
C1617 C 0.76201 0.68485 0.78626 0.0
C1618 C 0.76341 0.67055 0.79166 0.0
C1619 C 0.77423 0.67153 0.80724 0.0
H1620 H 0.70858 0.6317 0.63859 0.0
H1621 H 0.73071 0.68419 0.61936 0.0
H1622 H 0.72201 0.62593 0.60982 0.0
H1623 H 0.74408 0.67842 0.59079 0.0
H1624 H 0.75486 0.65936 0.53234 0.0
H1625 H 0.73727 0.66188 0.55863 0.0
H1626 H 0.75233 0.63511 0.60024 0.0
H1627 H 0.77021 0.6329 0.57421 0.0
C1628 C 0.71614 0.64195 0.62813 0.0
C1629 C 0.71865 0.65843 0.63134 0.0
C1630 C 0.7239 0.63866 0.61173 0.0
C1631 C 0.73412 0.65173 0.59807 0.0
C1632 C 0.73614 0.66804 0.60092 0.0
C1633 C 0.72856 0.67137 0.6174 0.0
C1634 C 0.75446 0.65402 0.54709 0.0
C1635 C 0.7641 0.64604 0.55115 0.0
C1636 C 0.74432 0.65542 0.56212 0.0
C1637 C 0.74347 0.64875 0.58152 0.0
C1638 C 0.75256 0.64019 0.58538 0.0
C1639 C 0.7628 0.63891 0.5704 0.0
H1640 H 0.36883 0.06709 0.62771 0.0
H1641 H 0.31571 0.05258 0.63455 0.0
H1642 H 0.37133 0.08569 0.59935 0.0
H1643 H 0.31837 0.07122 0.60663 0.0
H1644 H 0.33779 0.12406 0.57762 0.0
H1645 H 0.3365 0.10461 0.60372 0.0
H1646 H 0.3573 0.08278 0.56233 0.0
H1647 H 0.35793 0.1018 0.53558 0.0
C1648 C 0.3577 0.06779 0.62313 0.0
C1649 C 0.34209 0.0584 0.63346 0.0
C1650 C 0.35913 0.07836 0.60687 0.0
C1651 C 0.34507 0.07994 0.60094 0.0
C1652 C 0.32944 0.07033 0.61102 0.0
C1653 C 0.32793 0.05961 0.62697 0.0
C1654 C 0.34184 0.11496 0.57382 0.0
C1655 C 0.34764 0.11434 0.55426 0.0
C1656 C 0.34121 0.10391 0.58889 0.0
C1657 C 0.34666 0.09212 0.58497 0.0
C1658 C 0.35307 0.0918 0.56572 0.0
C1659 C 0.35346 0.10274 0.55045 0.0
H1660 H 0.93797 0.30528 0.62712 0.0
H1661 H 0.9528 0.26674 0.63137 0.0
H1662 H 0.92163 0.29153 0.59666 0.0
H1663 H 0.93608 0.25273 0.60166 0.0
H1664 H 0.91541 0.23627 0.53998 0.0
H1665 H 0.9345 0.25443 0.5665 0.0
H1666 H 0.89622 0.26678 0.58599 0.0
H1667 H 0.87748 0.24912 0.5588 0.0
C1668 C 0.93774 0.29388 0.62158 0.0
C1669 C 0.94672 0.28713 0.63169 0.0
C1670 C 0.9283 0.28594 0.60417 0.0
C1671 C 0.92753 0.27101 0.59657 0.0
C1672 C 0.93663 0.26439 0.6067 0.0
C1673 C 0.94615 0.27239 0.62392 0.0
C1674 C 0.91122 0.24308 0.5498 0.0
C1675 C 0.89496 0.24123 0.54747 0.0
C1676 C 0.92209 0.25339 0.5651 0.0
C1677 C 0.91683 0.26187 0.57869 0.0
C1678 C 0.9008 0.26059 0.57575 0.0
C1679 C 0.89002 0.25044 0.56022 0.0
H1680 H 0.37258 0.29926 0.63688 0.0
H1681 H 0.32066 0.28213 0.6186 0.0
H1682 H 0.37615 0.2845 0.6079 0.0
H1683 H 0.32439 0.26763 0.58949 0.0
H1684 H 0.34313 0.25423 0.53063 0.0
H1685 H 0.34289 0.2738 0.55633 0.0
H1686 H 0.36097 0.25168 0.60077 0.0
H1687 H 0.36086 0.23201 0.57529 0.0
C1688 C 0.36204 0.29262 0.62649 0.0
C1689 C 0.34629 0.29174 0.63011 0.0
C1690 C 0.36408 0.28414 0.60997 0.0
C1691 C 0.35053 0.27491 0.59653 0.0
C1692 C 0.33507 0.27475 0.59955 0.0
C1693 C 0.33292 0.28296 0.61628 0.0
C1694 C 0.34722 0.25376 0.54586 0.0
C1695 C 0.35195 0.24164 0.5511 0.0
C1696 C 0.34703 0.26486 0.56052 0.0
C1697 C 0.35195 0.26424 0.58048 0.0
C1698 C 0.35727 0.25253 0.58546 0.0
C1699 C 0.35712 0.24123 0.57095 0.0
H1700 H 0.70566 0.06766 0.62669 0.0
H1701 H 0.74619 0.05594 0.63411 0.0
H1702 H 0.71968 0.08404 0.59629 0.0
H1703 H 0.76048 0.07276 0.6045 0.0
H1704 H 0.77731 0.09238 0.54226 0.0
H1705 H 0.75963 0.07353 0.56928 0.0
H1706 H 0.74356 0.10982 0.58521 0.0
H1707 H 0.76073 0.12824 0.55752 0.0
C1708 C 0.71759 0.06863 0.62189 0.0
C1709 C 0.72477 0.06044 0.6328 0.0
C1710 C 0.72568 0.07809 0.60451 0.0
C1711 C 0.74121 0.0797 0.59778 0.0
C1712 C 0.74835 0.07151 0.60883 0.0
C1713 C 0.74019 0.06194 0.62599 0.0
C1714 C 0.76982 0.09618 0.55142 0.0
C1715 C 0.77043 0.11177 0.54789 0.0
C1716 C 0.75977 0.08546 0.56702 0.0
C1717 C 0.75033 0.09023 0.57974 0.0
C1718 C 0.75049 0.10559 0.57567 0.0
C1719 C 0.76036 0.1162 0.55983 0.0
H1720 H 0.96076 0.68457 0.62081 0.0
H1721 H 0.93123 0.63115 0.63657 0.0
H1722 H 0.94219 0.67961 0.5919 0.0
H1723 H 0.91263 0.62625 0.60762 0.0
H1724 H 0.91334 0.66115 0.53206 0.0
H1725 H 0.93331 0.66387 0.55851 0.0
H1726 H 0.89118 0.63555 0.59937 0.0
H1727 H 0.87123 0.63327 0.57332 0.0
C1728 C 0.95041 0.67174 0.61801 0.0
C1729 C 0.94743 0.65828 0.63108 0.0
C1730 C 0.93984 0.66889 0.60137 0.0
C1731 C 0.92593 0.65255 0.59755 0.0
C1732 C 0.92318 0.639 0.6103 0.0
C1733 C 0.93388 0.6418 0.62682 0.0
C1734 C 0.9083 0.65555 0.54669 0.0
C1735 C 0.89062 0.64705 0.5505 0.0
C1736 C 0.91976 0.65707 0.56181 0.0
C1737 C 0.9138 0.64993 0.581 0.0
C1738 C 0.89614 0.64098 0.58464 0.0
C1739 C 0.88469 0.63963 0.56963 0.0
H1740 H 0.97431 0.7019 0.74302 0.0
H1741 H 0.93006 0.65263 0.73173 0.0
H1742 H 0.96016 0.70549 0.77259 0.0
H1743 H 0.91556 0.65652 0.76028 0.0
H1744 H 0.897 0.65921 0.82124 0.0
H1745 H 0.91398 0.65649 0.79488 0.0
H1746 H 0.93879 0.71081 0.7839 0.0
H1747 H 0.923 0.71381 0.8118 0.0
C1748 C 0.96151 0.69191 0.74678 0.0
C1749 C 0.95336 0.67693 0.73513 0.0
C1750 C 0.95332 0.69398 0.76367 0.0
C1751 C 0.93667 0.68125 0.76907 0.0
C1752 C 0.92852 0.66642 0.75711 0.0
C1753 C 0.9368 0.66422 0.74055 0.0
C1754 C 0.90639 0.67071 0.81369 0.0
C1755 C 0.90847 0.68676 0.81883 0.0
C1756 C 0.91595 0.66908 0.79814 0.0
C1757 C 0.92762 0.68336 0.78683 0.0
C1758 C 0.93003 0.69948 0.79225 0.0
C1759 C 0.9207 0.70117 0.80812 0.0
H1760 H 0.30431 0.27495 0.74306 0.0
H1761 H 0.35311 0.27922 0.72994 0.0
H1762 H 0.30097 0.25699 0.77223 0.0
H1763 H 0.34944 0.26063 0.75808 0.0
H1764 H 0.34762 0.2394 0.81871 0.0
H1765 H 0.35008 0.25911 0.79263 0.0
H1766 H 0.29556 0.23017 0.78307 0.0
H1767 H 0.29285 0.21135 0.81073 0.0
C1768 C 0.31425 0.27193 0.74633 0.0
C1769 C 0.32903 0.27862 0.7343 0.0
C1770 C 0.31231 0.26154 0.76298 0.0
C1771 C 0.32499 0.25737 0.76776 0.0
C1772 C 0.3396 0.26389 0.75539 0.0
C1773 C 0.34167 0.27449 0.73907 0.0
C1774 C 0.33603 0.23741 0.81153 0.0
C1775 C 0.32001 0.22361 0.81701 0.0
C1776 C 0.3375 0.2486 0.79614 0.0
C1777 C 0.32307 0.24616 0.78533 0.0
C1778 C 0.30699 0.2326 0.79105 0.0
C1779 C 0.30547 0.22157 0.80677 0.0
H1780 H 0.71392 0.06262 0.7484 0.0
H1781 H 0.74768 0.04317 0.73395 0.0
H1782 H 0.73105 0.07697 0.77793 0.0
H1783 H 0.76533 0.05815 0.76303 0.0
H1784 H 0.78777 0.07774 0.82523 0.0
H1785 H 0.76811 0.06028 0.79859 0.0
H1786 H 0.75751 0.10093 0.78543 0.0
H1787 H 0.77665 0.11798 0.81238 0.0
C1788 C 0.72503 0.06142 0.75153 0.0
C1789 C 0.7295 0.05184 0.73875 0.0
C1790 C 0.73495 0.06976 0.76841 0.0
C1791 C 0.74976 0.06896 0.77281 0.0
C1792 C 0.75394 0.05895 0.76031 0.0
C1793 C 0.74386 0.0504 0.74355 0.0
C1794 C 0.78114 0.08285 0.81665 0.0
C1795 C 0.78367 0.09918 0.82095 0.0
C1796 C 0.76993 0.07289 0.80133 0.0
C1797 C 0.76115 0.07913 0.78979 0.0
C1798 C 0.7637 0.09548 0.79422 0.0
C1799 C 0.77473 0.10532 0.80966 0.0
H1800 H 0.02868 0.32883 0.04726 0.0
H1801 H 0.07502 0.37266 0.026 0.0
H1802 H 0.04566 0.3187 0.06508 0.0
H1803 H 0.09191 0.36237 0.0435 0.0
H1804 H 0.11627 0.3314 0.06591 0.0
H1805 H 0.09751 0.33674 0.04418 0.0
H1806 H 0.06626 0.3322 0.0958 0.0
H1807 H 0.08511 0.32708 0.11754 0.0
C1808 C 0.04246 0.33609 0.04603 0.0
C1809 C 0.05053 0.35157 0.03531 0.0
C1810 C 0.05216 0.33035 0.05631 0.0
C1811 C 0.07008 0.33979 0.0557 0.0
C1812 C 0.07811 0.35478 0.04411 0.0
C1813 C 0.06844 0.3607 0.03416 0.0
C1814 C 0.10523 0.33129 0.07252 0.0
C1815 C 0.10213 0.32888 0.09339 0.0
C1816 C 0.09458 0.33442 0.06012 0.0
C1817 C 0.08045 0.33486 0.06833 0.0
C1818 C 0.07697 0.33177 0.08907 0.0
C1819 C 0.0878 0.32896 0.10151 0.0
H1820 H 0.63336 0.70134 0.02724 0.0
H1821 H 0.67761 0.69966 0.04855 0.0
H1822 H 0.64333 0.72862 0.04441 0.0
H1823 H 0.68746 0.7269 0.06597 0.0
H1824 H 0.68097 0.75971 0.11724 0.0
H1825 H 0.6749 0.73493 0.0964 0.0
H1826 H 0.66814 0.75968 0.04441 0.0
H1827 H 0.67432 0.78453 0.06525 0.0
C1828 C 0.64534 0.70692 0.03535 0.0
C1829 C 0.65468 0.69834 0.03658 0.0
C1830 C 0.65107 0.72256 0.04513 0.0
C1831 C 0.66611 0.72982 0.05661 0.0
C1832 C 0.67575 0.72152 0.05733 0.0
C1833 C 0.67017 0.706 0.04725 0.0
C1834 C 0.67828 0.75987 0.10133 0.0
C1835 C 0.67807 0.774 0.09286 0.0
C1836 C 0.67496 0.74577 0.08938 0.0
C1837 C 0.67108 0.7454 0.06879 0.0
C1838 C 0.67105 0.75962 0.06026 0.0
C1839 C 0.67466 0.77384 0.07214 0.0
H1840 H 0.30083 0.96949 0.02951 0.0
H1841 H 0.31879 0.93618 0.05128 0.0
H1842 H 0.27368 0.95209 0.04741 0.0
H1843 H 0.29199 0.91923 0.06932 0.0
H1844 H 0.25348 0.9111 0.12036 0.0
H1845 H 0.27888 0.92835 0.1001 0.0
H1846 H 0.24769 0.91858 0.04716 0.0
H1847 H 0.22213 0.90045 0.06711 0.0
C1848 C 0.29894 0.95841 0.03793 0.0
C1849 C 0.31197 0.95423 0.039 0.0
C1850 C 0.28343 0.94848 0.04812 0.0
C1851 C 0.28088 0.93446 0.05985 0.0
C1852 C 0.29373 0.93008 0.06052 0.0
C1853 C 0.30904 0.93976 0.05009 0.0
C1854 C 0.25193 0.91237 0.10437 0.0
C1855 C 0.23566 0.90409 0.0954 0.0
C1856 C 0.26651 0.92238 0.09282 0.0
C1857 C 0.2652 0.92467 0.07209 0.0
C1858 C 0.24899 0.91704 0.06316 0.0
C1859 C 0.23437 0.90673 0.07465 0.0
H1860 H 0.38276 0.07109 0.99829 0.0
H1861 H 0.33254 0.02803 0.98765 0.0
H1862 H 0.37453 0.0898 0.98155 0.0
H1863 H 0.32442 0.04668 0.97013 0.0
H1864 H 0.31175 0.08829 0.95223 0.0
H1865 H 0.31836 0.0696 0.97221 0.0
H1866 H 0.36967 0.09524 0.94806 0.0
H1867 H 0.36314 0.11406 0.92862 0.0
C1868 C 0.36991 0.06563 0.99243 0.0
C1869 C 0.35833 0.04806 0.99419 0.0
C1870 C 0.36522 0.07634 0.98265 0.0
C1871 C 0.3489 0.06974 0.9741 0.0
C1872 C 0.33707 0.05225 0.9766 0.0
C1873 C 0.34172 0.04154 0.98662 0.0
C1874 C 0.32441 0.08984 0.95117 0.0
C1875 C 0.33697 0.10272 0.93898 0.0
C1876 C 0.32821 0.07912 0.9626 0.0
C1877 C 0.34462 0.08098 0.96196 0.0
C1878 C 0.35704 0.09369 0.94941 0.0
C1879 C 0.35329 0.10445 0.93816 0.0
H1880 H 0.98315 0.30397 0.99115 0.0
H1881 H 0.93842 0.30792 1.00442 0.0
H1882 H 0.96504 0.276 0.97566 0.0
H1883 H 0.92043 0.2801 0.98901 0.0
H1884 H 0.89148 0.22377 0.97366 0.0
H1885 H 0.91071 0.24908 0.99306 0.0
H1886 H 0.94709 0.2663 0.94403 0.0
H1887 H 0.92773 0.24119 0.92436 0.0
C1888 C 0.96945 0.29876 0.99106 0.0
C1889 C 0.96221 0.30817 0.99895 0.0
C1890 C 0.95911 0.28282 0.98206 0.0
C1891 C 0.94133 0.27589 0.98105 0.0
C1892 C 0.93407 0.28501 0.98971 0.0
C1893 C 0.9444 0.301 0.99846 0.0
C1894 C 0.90355 0.23296 0.96695 0.0
C1895 C 0.90793 0.2305 0.94731 0.0
C1896 C 0.91459 0.24742 0.97812 0.0
C1897 C 0.93037 0.25971 0.97004 0.0
C1898 C 0.93509 0.25696 0.95076 0.0
C1899 C 0.92398 0.24254 0.93949 0.0
H1900 H 0.7002 0.67589 0.98986 0.0
H1901 H 0.69661 0.62765 1.00447 0.0
H1902 H 0.72744 0.68496 0.97278 0.0
H1903 H 0.72371 0.63668 0.98741 0.0
H1904 H 0.76157 0.68221 0.92112 0.0
H1905 H 0.73657 0.67628 0.94127 0.0
H1906 H 0.75467 0.65758 0.98971 0.0
H1907 H 0.77984 0.66379 0.9698 0.0
C1908 C 0.70532 0.66732 0.98966 0.0
C1909 C 0.69622 0.65104 0.99849 0.0
C1910 C 0.72085 0.67246 0.97975 0.0
C1911 C 0.7277 0.66151 0.97867 0.0
C1912 C 0.71887 0.64548 0.98812 0.0
C1913 C 0.70329 0.64028 0.99783 0.0
C1914 C 0.7604 0.67711 0.9362 0.0
C1915 C 0.7727 0.67336 0.94373 0.0
C1916 C 0.74604 0.67371 0.94775 0.0
C1917 C 0.7436 0.66639 0.96705 0.0
C1918 C 0.75606 0.66299 0.97477 0.0
C1919 C 0.77046 0.66649 0.96329 0.0
H1920 H 0.98112 0.679 0.99083 0.0
H1921 H 0.93716 0.62915 1.00067 0.0
H1922 H 0.96276 0.6885 0.97519 0.0
H1923 H 0.91891 0.63865 0.98517 0.0
H1924 H 0.88893 0.6654 0.9709 0.0
H1925 H 0.9081 0.65919 0.99021 0.0
H1926 H 0.94569 0.68079 0.94264 0.0
H1927 H 0.92637 0.68661 0.92298 0.0
C1928 C 0.96753 0.67016 0.98995 0.0
C1929 C 0.96059 0.65331 0.99693 0.0
C1930 C 0.95705 0.67557 0.98087 0.0
C1931 C 0.93941 0.6643 0.9789 0.0
C1932 C 0.93242 0.64767 0.98662 0.0
C1933 C 0.9429 0.64221 0.99543 0.0
C1934 C 0.90123 0.66877 0.96446 0.0
C1935 C 0.90598 0.67634 0.94523 0.0
C1936 C 0.91225 0.66528 0.9756 0.0
C1937 C 0.92837 0.66945 0.96791 0.0
C1938 C 0.93341 0.6776 0.94906 0.0
C1939 C 0.92233 0.68096 0.93781 0.0
H1940 H 0.33225 0.306 0.99016 0.0
H1941 H 0.38029 0.3083 1.00226 0.0
H1942 H 0.32186 0.27832 0.97357 0.0
H1943 H 0.36995 0.28081 0.98575 0.0
H1944 H 0.3417 0.22482 0.96949 0.0
H1945 H 0.34838 0.25008 0.9894 0.0
H1946 H 0.3293 0.26835 0.94154 0.0
H1947 H 0.32287 0.2432 0.92139 0.0
C1948 C 0.3405 0.30051 0.98952 0.0
C1949 C 0.3571 0.30935 0.99748 0.0
C1950 C 0.33459 0.28473 0.97991 0.0
C1951 C 0.3451 0.27741 0.97832 0.0
C1952 C 0.36148 0.28602 0.9869 0.0
C1953 C 0.36743 0.30182 0.99628 0.0
C1954 C 0.33896 0.23423 0.96315 0.0
C1955 C 0.33194 0.23206 0.9437 0.0
C1956 C 0.34273 0.24867 0.97461 0.0
C1957 C 0.33947 0.26126 0.96699 0.0
C1958 C 0.33181 0.25879 0.94791 0.0
C1959 C 0.32812 0.24437 0.93637 0.0
H1960 H 0.6967 0.06778 0.00635 0.0
H1961 H 0.70247 0.02479 0.98932 0.0
H1962 H 0.7238 0.08709 0.99022 0.0
H1963 H 0.72937 0.04409 0.97246 0.0
H1964 H 0.78364 0.08559 0.95508 0.0
H1965 H 0.75859 0.06638 0.97517 0.0
H1966 H 0.73367 0.09434 0.95653 0.0
H1967 H 0.75875 0.11361 0.93693 0.0
C1968 C 0.70383 0.06246 0.99928 0.0
C1969 C 0.69738 0.04475 0.999 0.0
C1970 C 0.71932 0.07353 0.98985 0.0
C1971 C 0.72866 0.06716 0.97966 0.0
C1972 C 0.72259 0.04948 0.98022 0.0
C1973 C 0.70714 0.03839 0.98987 0.0
C1974 C 0.77276 0.08755 0.95527 0.0
C1975 C 0.7732 0.10117 0.94453 0.0
C1976 C 0.7584 0.07654 0.96676 0.0
C1977 C 0.74412 0.07887 0.96767 0.0
C1978 C 0.74456 0.09239 0.95667 0.0
C1979 C 0.75892 0.10342 0.94533 0.0
H1980 H 0.67609 0.97708 0.04501 0.0
H1981 H 0.63207 0.93025 0.02536 0.0
H1982 H 0.68694 0.96055 0.06239 0.0
H1983 H 0.64304 0.9138 0.0425 0.0
H1984 H 0.675 0.89013 0.06351 0.0
H1985 H 0.66832 0.90818 0.04222 0.0
H1986 H 0.67532 0.94068 0.09339 0.0
H1987 H 0.68187 0.92259 0.11466 0.0
C1988 C 0.6689 0.96329 0.04407 0.0
C1989 C 0.65319 0.95496 0.0339 0.0
C1990 C 0.67507 0.95384 0.05412 0.0
C1991 C 0.66579 0.93591 0.05385 0.0
C1992 C 0.65051 0.92761 0.04284 0.0
C1993 C 0.64421 0.93703 0.0331 0.0
C1994 C 0.67533 0.90127 0.0701 0.0
C1995 C 0.67889 0.90496 0.09073 0.0
C1996 C 0.67143 0.91153 0.05797 0.0
C1997 C 0.67132 0.92582 0.06616 0.0
C1998 C 0.67546 0.92983 0.08663 0.0
C1999 C 0.67908 0.91943 0.09882 0.0
H2000 H 0.07407 0.70352 0.0282 0.0
H2001 H 0.0275 0.70263 0.04538 0.0
H2002 H 0.09076 0.73137 0.0443 0.0
H2003 H 0.04428 0.73045 0.06183 0.0
H2004 H 0.08261 0.76309 0.11469 0.0
H2005 H 0.06399 0.7385 0.09362 0.0
H2006 H 0.09681 0.76275 0.04231 0.0
H2007 H 0.11533 0.78749 0.06338 0.0
C2008 C 0.06741 0.7094 0.03516 0.0
C2009 C 0.04949 0.70088 0.0356 0.0
C2010 C 0.07697 0.72537 0.04429 0.0
C2011 C 0.0688 0.73301 0.05436 0.0
C2012 C 0.05088 0.72478 0.05422 0.0
C2013 C 0.0413 0.70893 0.04473 0.0
C2014 C 0.08569 0.76323 0.09884 0.0
C2015 C 0.1004 0.77712 0.09064 0.0
C2016 C 0.075 0.74925 0.08677 0.0
C2017 C 0.07898 0.74876 0.06635 0.0
C2018 C 0.09348 0.76283 0.05802 0.0
C2019 C 0.10401 0.77697 0.07002 0.0
H2020 H 0.301 0.32997 0.03118 0.0
H2021 H 0.31814 0.38278 0.04513 0.0
H2022 H 0.27324 0.32174 0.04635 0.0
H2023 H 0.291 0.37462 0.06098 0.0
H2024 H 0.23773 0.35901 0.07761 0.0
H2025 H 0.26218 0.36497 0.05646 0.0
H2026 H 0.26023 0.31893 0.07823 0.0
H2027 H 0.23512 0.31263 0.09856 0.0
C2028 C 0.29881 0.33982 0.03737 0.0
C2029 C 0.31178 0.35703 0.03691 0.0
C2030 C 0.28295 0.3351 0.04623 0.0
C2031 C 0.27977 0.34748 0.05497 0.0
C2032 C 0.29271 0.3647 0.05408 0.0
C2033 C 0.30841 0.36941 0.04506 0.0
C2034 C 0.24247 0.35011 0.07766 0.0
C2035 C 0.23469 0.33545 0.0898 0.0
C2036 C 0.25655 0.35355 0.06565 0.0
C2037 C 0.26346 0.3426 0.06582 0.0
C2038 C 0.25523 0.32759 0.0775 0.0
C2039 C 0.24091 0.324 0.08925 0.0
H2040 H 0.69868 0.66576 0.37978 0.0
H2041 H 0.7425 0.71585 0.37084 0.0
H2042 H 0.71656 0.65694 0.39784 0.0
H2043 H 0.76043 0.70694 0.38816 0.0
H2044 H 0.7829 0.69406 0.44155 0.0
H2045 H 0.76464 0.70122 0.42196 0.0
H2046 H 0.73946 0.65062 0.39593 0.0
H2047 H 0.75762 0.64336 0.41602 0.0
C2048 C 0.71218 0.67478 0.38134 0.0
C2049 C 0.71915 0.69154 0.37406 0.0
C2050 C 0.72245 0.66972 0.39165 0.0
C2051 C 0.73991 0.68131 0.39476 0.0
C2052 C 0.74696 0.69781 0.38656 0.0
C2053 C 0.7367 0.70289 0.37646 0.0
C2054 C 0.77352 0.68449 0.43158 0.0
C2055 C 0.77178 0.66819 0.43023 0.0
C2056 C 0.76307 0.6886 0.42026 0.0
C2057 C 0.75069 0.67658 0.40712 0.0
C2058 C 0.74876 0.66016 0.40599 0.0
C2059 C 0.75917 0.65599 0.41748 0.0
H2060 H 0.3426 0.04035 0.36561 0.0
H2061 H 0.29048 0.02276 0.38362 0.0
H2062 H 0.35139 0.06795 0.38153 0.0
H2063 H 0.29923 0.04973 0.4002 0.0
H2064 H 0.31518 0.10335 0.41598 0.0
H2065 H 0.3083 0.07843 0.39536 0.0
H2066 H 0.35563 0.08134 0.41346 0.0
H2067 H 0.3628 0.10691 0.43329 0.0
C2068 C 0.33303 0.04238 0.37293 0.0
C2069 C 0.31584 0.02939 0.37325 0.0
C2070 C 0.33808 0.05816 0.3822 0.0
C2071 C 0.32605 0.06119 0.39217 0.0
C2072 C 0.30885 0.04813 0.39231 0.0
C2073 C 0.30381 0.03253 0.38288 0.0
C2074 C 0.32414 0.09869 0.41539 0.0
C2075 C 0.33943 0.10691 0.42633 0.0
C2076 C 0.32018 0.08434 0.40367 0.0
C2077 C 0.33125 0.0776 0.40293 0.0
C2078 C 0.34684 0.08619 0.41346 0.0
C2079 C 0.35094 0.10079 0.42492 0.0
H2080 H 0.97248 0.31538 0.37838 0.0
H2081 H 0.97053 0.2695 0.35611 0.0
H2082 H 0.94503 0.29807 0.39538 0.0
H2083 H 0.94303 0.25226 0.37289 0.0
H2084 H 0.88756 0.22712 0.39488 0.0
H2085 H 0.9119 0.24616 0.37353 0.0
H2086 H 0.93734 0.27738 0.42549 0.0
H2087 H 0.91312 0.25831 0.4468 0.0
C2088 C 0.96603 0.30164 0.37675 0.0
C2089 C 0.9737 0.29379 0.366 0.0
C2090 C 0.95038 0.29174 0.38657 0.0
C2091 C 0.94196 0.27383 0.38552 0.0
C2092 C 0.94918 0.26604 0.37385 0.0
C2093 C 0.96495 0.27591 0.36431 0.0
C2094 C 0.89825 0.23821 0.40163 0.0
C2095 C 0.89851 0.24124 0.42248 0.0
C2096 C 0.91219 0.24902 0.38946 0.0
C2097 C 0.92648 0.26324 0.39786 0.0
C2098 C 0.92642 0.26662 0.41857 0.0
C2099 C 0.91264 0.25565 0.43078 0.0
H2100 H 0.04096 0.40563 0.34293 0.0
H2101 H 0.99659 0.3604 0.32055 0.0
H2102 H 0.03188 0.42345 0.32527 0.0
H2103 H 0.98765 0.37829 0.30267 0.0
H2104 H 0.99677 0.41783 0.25074 0.0
H2105 H 1.00145 0.39866 0.27241 0.0
H2106 H 0.0075 0.43054 0.3239 0.0
H2107 H 1.00266 0.44967 0.30219 0.0
C2108 C 0.02914 0.39949 0.3345 0.0
C2109 C 0.01953 0.38161 0.33308 0.0
C2110 C 0.02391 0.4097 0.32445 0.0
C2111 C 0.00912 0.40224 0.3125 0.0
C2112 C 0.99918 0.38436 0.31166 0.0
C2113 C 0.00425 0.37414 0.32199 0.0
C2114 C 0.99895 0.42064 0.26672 0.0
C2115 C 0.99939 0.43523 0.2748 0.0
C2116 C 1.00151 0.40962 0.27914 0.0
C2117 C 0.00483 0.41312 0.29984 0.0
C2118 C 0.00501 0.42758 0.30799 0.0
C2119 C 1.00215 0.43845 0.29561 0.0
H2120 H 0.63928 0.63459 0.33681 0.0
H2121 H 0.60648 0.65373 0.31696 0.0
H2122 H 0.61966 0.60678 0.32198 0.0
H2123 H 0.58743 0.62648 0.3015 0.0
H2124 H 0.54841 0.57295 0.28741 0.0
H2125 H 0.56698 0.59809 0.30737 0.0
H2126 H 0.61038 0.59287 0.29028 0.0
H2127 H 0.59146 0.56716 0.27107 0.0
C2128 C 0.62787 0.63285 0.32934 0.0
C2129 C 0.62442 0.64636 0.32813 0.0
C2130 C 0.61668 0.61695 0.3207 0.0
C2131 C 0.60188 0.61428 0.31051 0.0
C2132 C 0.59844 0.62783 0.30956 0.0
C2133 C 0.60948 0.64358 0.31835 0.0
C2134 C 0.56191 0.57715 0.28808 0.0
C2135 C 0.56855 0.56825 0.27758 0.0
C2136 C 0.5726 0.59162 0.29942 0.0
C2137 C 0.59029 0.59776 0.30025 0.0
C2138 C 0.59683 0.58848 0.29021 0.0
C2139 C 0.58604 0.5738 0.2791 0.0
H2140 H 0.35436 0.95758 0.31036 0.0
H2141 H 0.37491 0.00677 0.33939 0.0
H2142 H 0.38142 0.96732 0.29276 0.0
H2143 H 0.40231 0.0163 0.32206 0.0
H2144 H 0.45148 0.0096 0.30198 0.0
H2145 H 0.42546 1.00259 0.32116 0.0
H2146 H 0.39811 0.99513 0.26537 0.0
H2147 H 0.42417 1.00258 0.2462 0.0
C2148 C 0.36473 0.97039 0.31322 0.0
C2149 C 0.36251 0.98141 0.32629 0.0
C2150 C 0.38016 0.97596 0.30304 0.0
C2151 C 0.39382 0.99254 0.30604 0.0
C2152 C 0.39189 0.00345 0.31955 0.0
C2153 C 0.37626 0.998 0.32943 0.0
C2154 C 0.43994 0.00666 0.29388 0.0
C2155 C 0.43977 0.00663 0.27265 0.0
C2156 C 0.42514 0.00274 0.30481 0.0
C2157 C 0.40988 0.99833 0.29467 0.0
C2158 C 0.40977 0.9985 0.27347 0.0
C2159 C 0.42464 0.00281 0.26255 0.0
H2160 H 0.607 0.95717 0.31356 0.0
H2161 H 0.63851 0.00736 0.33914 0.0
H2162 H 0.59006 0.96735 0.29604 0.0
H2163 H 0.62103 0.01736 0.32189 0.0
H2164 H 0.56353 0.00985 0.30343 0.0
H2165 H 0.58239 0.00276 0.32271 0.0
H2166 H 0.60347 0.99639 0.26706 0.0
H2167 H 0.585 0.00389 0.24778 0.0
C2168 C 0.61017 0.97031 0.31569 0.0
C2169 C 0.6241 0.98147 0.32776 0.0
C2170 C 0.60051 0.97612 0.30558 0.0
C2171 C 0.60435 0.99309 0.30764 0.0
C2172 C 0.6179 0.0042 0.32014 0.0
C2173 C 0.62785 0.99847 0.32996 0.0
C2174 C 0.57238 0.00715 0.29538 0.0
C2175 C 0.57287 0.00742 0.27415 0.0
C2176 C 0.58315 0.00319 0.30637 0.0
C2177 C 0.59431 0.99909 0.29628 0.0
C2178 C 0.59498 0.99959 0.2751 0.0
C2179 C 0.58449 0.00391 0.26413 0.0
H2180 H 0.05395 0.65204 0.31928 0.0
H2181 H 1.00113 0.63284 0.33527 0.0
H2182 H 0.04633 0.62564 0.3019 0.0
H2183 H 0.99346 0.60577 0.31872 0.0
H2184 H 0.98356 0.56812 0.26652 0.0
H2185 H 0.99006 0.5932 0.28689 0.0
H2186 H 0.03794 0.59713 0.30461 0.0
H2187 H 0.03173 0.57274 0.28329 0.0
C2188 C 0.0407 0.642 0.31946 0.0
C2189 C 0.02814 0.64456 0.32867 0.0
C2190 C 0.03631 0.62672 0.30955 0.0
C2191 C 0.01924 0.61339 0.30885 0.0
C2192 C 0.0067 0.61579 0.3186 0.0
C2193 C 0.01109 0.63126 0.32827 0.0
C2194 C 0.99542 0.57439 0.27487 0.0
C2195 C 0.00724 0.56868 0.2732 0.0
C2196 C 0.99914 0.5887 0.28668 0.0
C2197 C 0.01463 0.59741 0.29737 0.0
C2198 C 0.0261 0.59114 0.29622 0.0
C2199 C 0.02253 0.57709 0.2841 0.0
H2200 H 0.36946 0.4059 0.34454 0.0
H2201 H 0.36772 0.36037 0.32136 0.0
H2202 H 0.39671 0.42344 0.32739 0.0
H2203 H 0.39492 0.378 0.30394 0.0
H2204 H 0.42669 0.41837 0.25294 0.0
H2205 H 0.40238 0.39913 0.27407 0.0
H2206 H 0.42791 0.4296 0.32647 0.0
H2207 H 0.45233 0.44878 0.30533 0.0
C2208 C 0.37503 0.39963 0.33604 0.0
C2209 C 0.36643 0.38176 0.33425 0.0
C2210 C 0.39065 0.40968 0.32628 0.0
C2211 C 0.39786 0.40208 0.31425 0.0
C2212 C 0.38958 0.38418 0.31302 0.0
C2213 C 0.37408 0.3741 0.32309 0.0
C2214 C 0.42714 0.42085 0.269 0.0
C2215 C 0.44135 0.43507 0.27751 0.0
C2216 C 0.41332 0.40978 0.28111 0.0
C2217 C 0.41329 0.41288 0.30191 0.0
C2218 C 0.42761 0.42695 0.31047 0.0
C2219 C 0.44158 0.43785 0.29842 0.0
H2220 H 0.34479 0.30705 0.3648 0.0
H2221 H 0.29191 0.27096 0.37795 0.0
H2222 H 0.35333 0.2887 0.38271 0.0
H2223 H 0.30053 0.25307 0.39612 0.0
H2224 H 0.32735 0.24397 0.45131 0.0
H2225 H 0.32054 0.2619 0.43048 0.0
H2226 H 0.34576 0.25417 0.37961 0.0
H2227 H 0.3518 0.23526 0.40001 0.0
C2228 C 0.33501 0.29515 0.37128 0.0
C2229 C 0.31768 0.29047 0.36997 0.0
C2230 C 0.3399 0.28469 0.38149 0.0
C2231 C 0.32757 0.26959 0.39087 0.0
C2232 C 0.31027 0.26471 0.3891 0.0
C2233 C 0.30536 0.27494 0.3786 0.0
C2234 C 0.33128 0.2458 0.43563 0.0
C2235 C 0.33992 0.23784 0.42737 0.0
C2236 C 0.32748 0.25622 0.42377 0.0
C2237 C 0.33256 0.2593 0.40347 0.0
C2238 C 0.34178 0.252 0.39528 0.0
C2239 C 0.3453 0.24125 0.40705 0.0
H2240 H 0.70242 0.03962 0.36434 0.0
H2241 H 0.73733 0.02224 0.38126 0.0
H2242 H 0.72151 0.06746 0.37948 0.0
H2243 H 0.75586 0.04947 0.39708 0.0
H2244 H 0.79356 0.10321 0.41202 0.0
H2245 H 0.77531 0.07813 0.3918 0.0
H2246 H 0.73113 0.08116 0.4111 0.0
H2247 H 0.74972 0.10686 0.43052 0.0
C2248 C 0.71418 0.04176 0.37123 0.0
C2249 C 0.71838 0.02874 0.37152 0.0
C2250 C 0.72507 0.05767 0.38007 0.0
C2251 C 0.74032 0.06083 0.38954 0.0
C2252 C 0.74449 0.04777 0.38958 0.0
C2253 C 0.73375 0.03202 0.38058 0.0
C2254 C 0.77995 0.09855 0.41176 0.0
C2255 C 0.773 0.10684 0.42293 0.0
C2256 C 0.76944 0.08411 0.40028 0.0
C2257 C 0.75164 0.07735 0.4 0.0
C2258 C 0.74477 0.08603 0.41073 0.0
C2259 C 0.75537 0.1007 0.42196 0.0
H2260 H 0.97638 0.71028 0.36421 0.0
H2261 H 0.97336 0.662 0.3771 0.0
H2262 H 0.94927 0.70067 0.38139 0.0
H2263 H 0.94603 0.65232 0.39429 0.0
H2264 H 0.89369 0.67368 0.39995 0.0
H2265 H 0.91846 0.67984 0.37926 0.0
H2266 H 0.93701 0.66031 0.42631 0.0
H2267 H 0.91235 0.65434 0.44719 0.0
C2268 C 0.9698 0.69751 0.37047 0.0
C2269 C 0.97705 0.68692 0.36935 0.0
C2270 C 0.95421 0.69197 0.38025 0.0
C2271 C 0.94553 0.67576 0.38927 0.0
C2272 C 0.95251 0.66495 0.38765 0.0
C2273 C 0.96808 0.67044 0.37767 0.0
C2274 C 0.90308 0.67076 0.40595 0.0
C2275 C 0.9011 0.66368 0.42535 0.0
C2276 C 0.91723 0.67423 0.39404 0.0
C2277 C 0.92972 0.67063 0.40117 0.0
C2278 C 0.9275 0.66304 0.42028 0.0
C2279 C 0.91336 0.65964 0.43225 0.0
H2280 H 0.37057 0.9991 0.69679 0.0
H2281 H 0.40326 0.05126 0.71574 0.0
H2282 H 0.39004 0.99108 0.7124 0.0
H2283 H 0.42208 0.04324 0.73217 0.0
H2284 H 0.46075 0.02865 0.74884 0.0
H2285 H 0.44256 0.03538 0.72835 0.0
H2286 H 0.39898 0.98647 0.74375 0.0
H2287 H 0.41759 0.9795 0.76329 0.0
C2288 C 0.38193 0.00885 0.70424 0.0
C2289 C 0.3854 0.02583 0.70494 0.0
C2290 C 0.39303 0.00424 0.71337 0.0
C2291 C 0.40773 0.01647 0.72365 0.0
C2292 C 0.41119 0.03347 0.72407 0.0
C2293 C 0.40028 0.0381 0.71471 0.0
C2294 C 0.44728 0.01934 0.74768 0.0
C2295 C 0.44051 0.00363 0.75771 0.0
C2296 C 0.43679 0.0232 0.73605 0.0
C2297 C 0.41915 0.0116 0.73452 0.0
C2298 C 0.41248 0.99568 0.74428 0.0
C2299 C 0.4231 0.99169 0.75561 0.0
H2300 H 0.9523 0.35222 0.71825 0.0
H2301 H 0.00454 0.37143 0.69957 0.0
H2302 H 0.96041 0.37888 0.73532 0.0
H2303 H 0.01265 0.39873 0.71579 0.0
H2304 H 0.02432 0.43776 0.76671 0.0
H2305 H 0.01715 0.41208 0.74723 0.0
H2306 H 0.96844 0.40727 0.73187 0.0
H2307 H 0.97536 0.43231 0.75231 0.0
C2308 C 0.96551 0.3623 0.71745 0.0
C2309 C 0.97778 0.3597 0.70753 0.0
C2310 C 0.97018 0.37773 0.72717 0.0
C2311 C 0.98722 0.39115 0.72695 0.0
C2312 C 0.99946 0.38865 0.71661 0.0
C2313 C 0.9948 0.37304 0.70714 0.0
C2314 C 0.01212 0.43117 0.75907 0.0
C2315 C 1.00031 0.43686 0.76113 0.0
C2316 C 0.00802 0.41651 0.74777 0.0
C2317 C 0.99212 0.40739 0.73799 0.0
C2318 C 0.9806 0.41358 0.73956 0.0
C2319 C 0.98458 0.42801 0.75117 0.0
H2320 H 0.64096 0.6455 0.71276 0.0
H2321 H 0.64677 0.60157 0.7017 0.0
H2322 H 0.61425 0.6274 0.73082 0.0
H2323 H 0.61994 0.58346 0.71898 0.0
H2324 H 0.58516 0.56011 0.77266 0.0
H2325 H 0.61041 0.57873 0.75296 0.0
H2326 H 0.58493 0.60466 0.72922 0.0
H2327 H 0.55966 0.58611 0.74946 0.0
C2328 C 0.63635 0.63193 0.71383 0.0
C2329 C 0.64605 0.62499 0.70599 0.0
C2330 C 0.62103 0.62154 0.72415 0.0
C2331 C 0.61506 0.60399 0.72669 0.0
C2332 C 0.62437 0.59698 0.71785 0.0
C2333 C 0.6397 0.60735 0.70776 0.0
C2334 C 0.58492 0.56974 0.76317 0.0
C2335 C 0.57038 0.57155 0.76248 0.0
C2336 C 0.59938 0.58039 0.75178 0.0
C2337 C 0.59967 0.59307 0.73921 0.0
C2338 C 0.58522 0.59511 0.73881 0.0
C2339 C 0.57074 0.58449 0.75038 0.0
H2340 H 0.66966 0.70432 0.67317 0.0
H2341 H 0.71832 0.73289 0.6429 0.0
H2342 H 0.6596 0.72184 0.65613 0.0
H2343 H 0.70805 0.74985 0.62558 0.0
H2344 H 0.67092 0.75602 0.58015 0.0
H2345 H 0.67899 0.73777 0.59902 0.0
H2346 H 0.67382 0.75921 0.65502 0.0
H2347 H 0.66622 0.77786 0.63613 0.0
C2348 C 0.6782 0.71435 0.66298 0.0
C2349 C 0.6948 0.71727 0.65943 0.0
C2350 C 0.67245 0.72432 0.65328 0.0
C2351 C 0.68307 0.73705 0.63952 0.0
C2352 C 0.69964 0.74004 0.63608 0.0
C2353 C 0.70551 0.73038 0.64609 0.0
C2354 C 0.67134 0.75668 0.59649 0.0
C2355 C 0.66799 0.76832 0.60673 0.0
C2356 C 0.67598 0.74632 0.60723 0.0
C2357 C 0.67696 0.74713 0.6284 0.0
C2358 C 0.67304 0.75833 0.6387 0.0
C2359 C 0.66878 0.76899 0.62793 0.0
H2360 H 0.31179 0.97124 0.65402 0.0
H2361 H 0.26732 0.97312 0.6743 0.0
H2362 H 0.29339 0.9443 0.63672 0.0
H2363 H 0.24894 0.94594 0.65788 0.0
H2364 H 0.22277 0.91228 0.60396 0.0
H2365 H 0.24119 0.93685 0.62442 0.0
H2366 H 0.27258 0.91453 0.63818 0.0
H2367 H 0.25459 0.89023 0.61649 0.0
C2368 C 0.29807 0.96569 0.65518 0.0
C2369 C 0.291 0.97438 0.6653 0.0
C2370 C 0.2875 0.9502 0.64531 0.0
C2371 C 0.26964 0.94303 0.64557 0.0
C2372 C 0.26263 0.95129 0.65681 0.0
C2373 C 0.27317 0.96683 0.66639 0.0
C2374 C 0.23371 0.91265 0.6111 0.0
C2375 C 0.23726 0.8993 0.60833 0.0
C2376 C 0.24415 0.92666 0.62319 0.0
C2377 C 0.25836 0.9277 0.63315 0.0
C2378 C 0.26183 0.91425 0.63063 0.0
C2379 C 0.2514 0.90022 0.61836 0.0
H2380 H 0.02172 0.28809 0.65583 0.0
H2381 H 0.03857 0.3408 0.66991 0.0
H2382 H 0.04853 0.29651 0.63899 0.0
H2383 H 0.06605 0.34931 0.65377 0.0
H2384 H 0.10411 0.35904 0.60144 0.0
H2385 H 0.0789 0.35233 0.62181 0.0
H2386 H 0.07739 0.30632 0.64288 0.0
H2387 H 0.10191 0.31269 0.62169 0.0
C2388 C 0.03132 0.3015 0.65569 0.0
C2389 C 0.02798 0.31377 0.66424 0.0
C2390 C 0.04684 0.30635 0.6461 0.0
C2391 C 0.05964 0.32363 0.64502 0.0
C2392 C 0.05645 0.33592 0.65402 0.0
C2393 C 0.04075 0.33104 0.66344 0.0
C2394 C 0.09837 0.34757 0.61057 0.0
C2395 C 0.10476 0.33626 0.60985 0.0
C2396 C 0.08399 0.34374 0.62235 0.0
C2397 C 0.07588 0.32864 0.63389 0.0
C2398 C 0.08291 0.3178 0.6338 0.0
C2399 C 0.09704 0.32147 0.62176 0.0
H2400 H 0.30483 0.34237 0.67119 0.0
H2401 H 0.27056 0.2902 0.65322 0.0
H2402 H 0.28673 0.35134 0.65348 0.0
H2403 H 0.25291 0.29925 0.63537 0.0
H2404 H 0.24377 0.327 0.58241 0.0
H2405 H 0.26189 0.32029 0.60301 0.0
H2406 H 0.25263 0.34363 0.65469 0.0
H2407 H 0.23365 0.34968 0.63437 0.0
C2408 C 0.29338 0.33282 0.6637 0.0
C2409 C 0.28917 0.31559 0.66356 0.0
C2410 C 0.28305 0.33796 0.65361 0.0
C2411 C 0.26857 0.32599 0.64294 0.0
C2412 C 0.26411 0.30874 0.64335 0.0
C2413 C 0.2742 0.30357 0.65367 0.0
C2414 C 0.24537 0.33059 0.5982 0.0
C2415 C 0.23691 0.33862 0.60675 0.0
C2416 C 0.25587 0.32684 0.60994 0.0
C2417 C 0.25849 0.33132 0.63043 0.0
C2418 C 0.2508 0.34009 0.63888 0.0
C2419 C 0.24001 0.3436 0.62719 0.0
H2420 H 0.66889 0.97394 0.65656 0.0
H2421 H 0.7173 0.97771 0.67052 0.0
H2422 H 0.66013 0.94717 0.63864 0.0
H2423 H 0.70839 0.95081 0.65328 0.0
H2424 H 0.69755 0.91621 0.59918 0.0
H2425 H 0.70452 0.94144 0.61914 0.0
H2426 H 0.65247 0.91753 0.64074 0.0
H2427 H 0.64545 0.89228 0.62035 0.0
C2428 C 0.67752 0.96888 0.65616 0.0
C2429 C 0.69385 0.97802 0.66479 0.0
C2430 C 0.67249 0.95351 0.64592 0.0
C2431 C 0.68366 0.94694 0.64422 0.0
C2432 C 0.69963 0.9557 0.6538 0.0
C2433 C 0.70469 0.97107 0.66385 0.0
C2434 C 0.68762 0.91628 0.60829 0.0
C2435 C 0.67099 0.9022 0.60829 0.0
C2436 C 0.69161 0.93074 0.61982 0.0
C2437 C 0.67911 0.93148 0.63179 0.0
C2438 C 0.66239 0.91746 0.63159 0.0
C2439 C 0.65836 0.90299 0.61992 0.0
H2440 H 0.04026 0.70109 0.67031 0.0
H2441 H 0.02183 0.73471 0.65127 0.0
H2442 H 0.06735 0.71927 0.65266 0.0
H2443 H 0.04859 0.75248 0.6335 0.0
H2444 H 0.08689 0.76295 0.58168 0.0
H2445 H 0.06167 0.745 0.60184 0.0
H2446 H 0.09332 0.75233 0.65372 0.0
H2447 H 0.11875 0.77113 0.63387 0.0
C2448 C 0.04203 0.71241 0.66256 0.0
C2449 C 0.02887 0.71643 0.66216 0.0
C2450 C 0.05752 0.72279 0.65251 0.0
C2451 C 0.05994 0.73716 0.64159 0.0
C2452 C 0.04697 0.74138 0.64164 0.0
C2453 C 0.03168 0.73123 0.65193 0.0
C2454 C 0.08859 0.761 0.59743 0.0
C2455 C 0.10496 0.76881 0.60614 0.0
C2456 C 0.07409 0.75059 0.60893 0.0
C2457 C 0.07556 0.74741 0.62935 0.0
C2458 C 0.09188 0.75456 0.63797 0.0
C2459 C 0.10643 0.76526 0.62653 0.0
H2460 H 0.009 0.64567 0.71764 0.0
H2461 H 0.9631 0.60023 0.69881 0.0
H2462 H 0.01846 0.62792 0.73503 0.0
H2463 H 0.97267 0.58258 0.71587 0.0
H2464 H 1.00289 0.55641 0.73485 0.0
H2465 H 0.99704 0.57545 0.71436 0.0
H2466 H 0.0061 0.60782 0.76624 0.0
H2467 H 0.01182 0.58871 0.78676 0.0
C2468 C 1.00109 0.63191 0.71691 0.0
C2469 C 0.98529 0.62433 0.70693 0.0
C2470 C 0.00645 0.62178 0.72695 0.0
C2471 C 0.99627 0.60389 0.72682 0.0
C2472 C 0.98083 0.59633 0.7161 0.0
C2473 C 0.97533 0.60644 0.70641 0.0
C2474 C 1.00382 0.5677 0.74178 0.0
C2475 C 0.00775 0.57108 0.76239 0.0
C2476 C 1.0004 0.57853 0.73011 0.0
C2477 C 1.00115 0.5931 0.73873 0.0
C2478 C 0.00559 0.59676 0.75918 0.0
C2479 C 0.00872 0.58577 0.77094 0.0
H2480 H 0.40637 0.36259 0.70092 0.0
H2481 H 0.36244 0.36767 0.71502 0.0
H2482 H 0.42477 0.38942 0.71798 0.0
H2483 H 0.38085 0.39439 0.7328 0.0
H2484 H 0.42216 0.44927 0.74999 0.0
H2485 H 0.40327 0.42385 0.73027 0.0
H2486 H 0.43052 0.39907 0.75194 0.0
H2487 H 0.44946 0.42446 0.77117 0.0
C2488 C 0.40064 0.36948 0.70763 0.0
C2489 C 0.38293 0.36294 0.70675 0.0
C2490 C 0.41118 0.38482 0.71757 0.0
C2491 C 0.40429 0.39395 0.72712 0.0
C2492 C 0.38662 0.38775 0.72555 0.0
C2493 C 0.37605 0.37242 0.7154 0.0
C2494 C 0.42401 0.43833 0.75057 0.0
C2495 C 0.4374 0.43892 0.76196 0.0
C2496 C 0.41319 0.42376 0.73929 0.0
C2497 C 0.41548 0.40945 0.73929 0.0
C2498 C 0.42865 0.40999 0.7511 0.0
C2499 C 0.43949 0.42453 0.76221 0.0
H2500 H 0.65555 0.05309 0.71357 0.0
H2501 H 0.63743 1.00066 0.69669 0.0
H2502 H 0.62843 0.04491 0.72952 0.0
H2503 H 0.60969 0.99245 0.71184 0.0
H2504 H 0.57034 0.98147 0.76259 0.0
H2505 H 0.59605 0.98845 0.7432 0.0
H2506 H 0.59991 0.03625 0.72519 0.0
H2507 H 0.57483 0.02954 0.7455 0.0
C2508 C 0.64561 0.03982 0.71289 0.0
C2509 C 0.64867 0.02753 0.70386 0.0
C2510 C 0.62992 0.03511 0.72197 0.0
C2511 C 0.61669 0.01798 0.72201 0.0
C2512 C 0.61961 0.00572 0.71244 0.0
C2513 C 0.63547 0.01043 0.70358 0.0
C2514 C 0.57671 0.9934 0.75435 0.0
C2515 C 0.57077 0.00506 0.75568 0.0
C2516 C 0.59138 0.99739 0.74311 0.0
C2517 C 0.60027 0.01302 0.73268 0.0
C2518 C 0.59377 0.02431 0.73341 0.0
C2519 C 0.57933 0.02045 0.74495 0.0
loop_
_geom_bond_atom_site_label_1
_geom_bond_atom_site_label_2
_geom_bond_distance
_geom_bond_site_symmetry_2
_ccdc_geom_bond_type
O0 Cd1 2.223 . S
O0 C8 1.315 . S
Cd1 O0 2.223 . S
Cd1 O4 2.297 . S
Cd1 O5 2.439 . S
Cd1 O11 2.240 1_554 S
Cd2 O3 2.240 . S
Cd2 O10 2.223 1_554 S
Cd2 O12 2.297 1_554 S
Cd2 O13 2.439 1_554 S
O3 Cd2 2.240 . S
O3 C8 1.279 1_655 S
O4 Cd1 2.297 . S
O4 C6 1.247 . S
O5 Cd1 2.439 . S
O5 C6 1.208 . S
C6 O4 1.247 . S
C6 O5 1.208 . S
C7 O12 1.247 . S
C7 O13 1.208 . S
C8 O0 1.315 . S
C8 O3 1.279 1_455 S
C9 O10 1.373 . S
C9 O11 1.225 1_655 S
O10 Cd2 2.223 1_556 S
O10 C9 1.373 . S
O11 Cd1 2.240 1_556 S
O11 C9 1.225 1_455 S
O12 Cd2 2.297 1_556 S
O12 C7 1.247 . S
O13 Cd2 2.439 1_556 S
O13 C7 1.208 . S
O14 Cd15 2.223 . S
O14 C22 1.315 . S
Cd15 O14 2.223 . S
Cd15 O18 2.297 . S
Cd15 O19 2.439 . S
Cd15 O25 2.240 1_554 S
Cd16 O17 2.240 . S
Cd16 O24 2.223 1_554 S
Cd16 O26 2.297 1_554 S
Cd16 O27 2.439 1_554 S
O17 Cd16 2.240 . S
O17 C22 1.279 . S
O18 Cd15 2.297 . S
O18 C20 1.247 . S
O19 Cd15 2.439 . S
O19 C20 1.208 . S
C20 O18 1.247 . S
C20 O19 1.208 . S
C21 O26 1.247 . S
C21 O27 1.208 . S
C22 O14 1.315 . S
C22 O17 1.279 . S
C23 O24 1.315 . S
C23 O25 1.279 . S
O24 Cd16 2.223 1_556 S
O24 C23 1.315 . S
O25 Cd15 2.240 1_556 S
O25 C23 1.279 . S
O26 Cd16 2.297 1_556 S
O26 C21 1.247 . S
O27 Cd16 2.439 1_556 S
O27 C21 1.208 . S
O28 Cd29 2.223 1_556 S
O28 C36 1.315 . S
Cd29 O28 2.223 1_554 S
Cd29 O32 2.297 1_554 S
Cd29 O33 2.439 1_554 S
Cd29 O39 2.240 . S
Cd30 O31 2.240 1_554 S
Cd30 O38 2.223 . S
Cd30 O40 2.297 . S
Cd30 O41 2.439 . S
O31 Cd30 2.240 1_556 S
O31 C36 1.279 1_565 S
O32 Cd29 2.297 1_556 S
O32 C34 1.247 . S
O33 Cd29 2.439 1_556 S
O33 C34 1.208 . S
C34 O32 1.247 . S
C34 O33 1.208 . S
C35 O40 1.247 . S
C35 O41 1.208 . S
C36 O28 1.315 . S
C36 O31 1.279 1_545 S
C37 O38 1.362 . S
C37 O39 1.234 1_565 S
O38 Cd30 2.223 . S
O38 C37 1.362 . S
O39 Cd29 2.240 . S
O39 C37 1.234 1_545 S
O40 Cd30 2.297 . S
O40 C35 1.247 . S
O41 Cd30 2.439 . S
O41 C35 1.208 . S
O42 Cd43 2.223 1_556 S
O42 C50 1.315 . S
Cd43 O42 2.223 1_554 S
Cd43 O46 2.297 1_554 S
Cd43 O47 2.439 1_554 S
Cd43 O53 2.240 . S
Cd44 O45 2.240 1_554 S
Cd44 O52 2.223 . S
Cd44 O54 2.297 . S
Cd44 O55 2.439 . S
O45 Cd44 2.240 1_556 S
O45 C50 1.279 1_455 S
O46 Cd43 2.297 1_556 S
O46 C48 1.247 . S
O47 Cd43 2.439 1_556 S
O47 C48 1.208 . S
C48 O46 1.247 . S
C48 O47 1.208 . S
C49 O54 1.247 . S
C49 O55 1.208 . S
C50 O42 1.315 . S
C50 O45 1.279 1_655 S
C51 O52 1.315 . S
C51 O53 1.279 1_455 S
O52 Cd44 2.223 . S
O52 C51 1.315 . S
O53 Cd43 2.240 . S
O53 C51 1.279 1_655 S
O54 Cd44 2.297 . S
O54 C49 1.247 . S
O55 Cd44 2.439 . S
O55 C49 1.208 . S
O56 Cd57 2.223 1_556 S
O56 C64 1.315 . S
Cd57 O56 2.223 1_554 S
Cd57 O60 2.297 1_554 S
Cd57 O61 2.439 1_554 S
Cd57 O67 2.240 . S
Cd58 O59 2.240 1_554 S
Cd58 O66 2.223 . S
Cd58 O68 2.297 . S
Cd58 O69 2.439 . S
O59 Cd58 2.240 1_556 S
O59 C64 1.279 . S
O60 Cd57 2.297 1_556 S
O60 C62 1.247 . S
O61 Cd57 2.439 1_556 S
O61 C62 1.208 . S
C62 O60 1.247 . S
C62 O61 1.208 . S
C63 O68 1.247 . S
C63 O69 1.208 . S
C64 O56 1.315 . S
C64 O59 1.279 . S
C65 O66 1.315 . S
C65 O67 1.279 . S
O66 Cd58 2.223 . S
O66 C65 1.315 . S
O67 Cd57 2.240 . S
O67 C65 1.279 . S
O68 Cd58 2.297 . S
O68 C63 1.247 . S
O69 Cd58 2.439 . S
O69 C63 1.208 . S
O70 Cd71 2.223 . S
O70 C78 1.315 . S
Cd71 O70 2.223 . S
Cd71 O74 2.297 . S
Cd71 O75 2.439 . S
Cd71 O81 2.240 1_554 S
Cd72 O73 2.240 . S
Cd72 O80 2.223 1_554 S
Cd72 O82 2.297 1_554 S
Cd72 O83 2.439 1_554 S
O73 Cd72 2.240 . S
O73 C78 1.279 1_545 S
O74 Cd71 2.297 . S
O74 C76 1.247 . S
O75 Cd71 2.439 . S
O75 C76 1.208 . S
C76 O74 1.247 . S
C76 O75 1.208 . S
C77 O82 1.247 . S
C77 O83 1.208 . S
C78 O70 1.315 . S
C78 O73 1.279 1_565 S
C79 O80 1.315 . S
C79 O81 1.279 1_545 S
O80 Cd72 2.223 1_556 S
O80 C79 1.315 . S
O81 Cd71 2.240 1_556 S
O81 C79 1.279 1_565 S
O82 Cd72 2.297 1_556 S
O82 C77 1.247 . S
O83 Cd72 2.439 1_556 S
O83 C77 1.208 . S
O84 Cd85 2.223 . S
O84 C92 1.315 . S
Cd85 O84 2.223 . S
Cd85 O88 2.297 . S
Cd85 O89 2.439 . S
Cd85 O95 2.240 . S
Cd86 O87 2.240 . S
Cd86 O94 2.223 . S
Cd86 O96 2.297 . S
Cd86 O97 2.439 . S
O87 Cd86 2.240 . S
O87 C92 1.279 . S
O88 Cd85 2.297 . S
O88 C90 1.247 . S
O89 Cd85 2.439 . S
O89 C90 1.208 . S
C90 O88 1.247 . S
C90 O89 1.208 . S
C91 O96 1.247 . S
C91 O97 1.208 . S
C92 O84 1.315 . S
C92 O87 1.279 . S
C93 O94 1.315 . S
C93 O95 1.279 . S
O94 Cd86 2.223 . S
O94 C93 1.315 . S
O95 Cd85 2.240 . S
O95 C93 1.279 . S
O96 Cd86 2.297 . S
O96 C91 1.247 . S
O97 Cd86 2.439 . S
O97 C91 1.208 . S
O98 Cd99 2.223 . S
O98 C106 1.315 . S
Cd99 O98 2.223 . S
Cd99 O102 2.297 1_565 S
Cd99 O103 2.439 1_565 S
Cd99 O109 2.240 . S
Cd100 O101 2.240 . S
Cd100 O108 2.223 . S
Cd100 O110 2.297 . S
Cd100 O111 2.439 . S
O101 Cd100 2.240 . S
O101 C106 1.279 . S
O102 Cd99 2.297 1_545 S
O102 C104 1.247 . S
O103 Cd99 2.439 1_545 S
O103 C104 1.208 . S
C104 O102 1.247 . S
C104 O103 1.208 . S
C105 O110 1.247 . S
C105 O111 1.208 . S
C106 O98 1.315 . S
C106 O101 1.279 . S
C107 O108 1.315 . S
C107 O109 1.279 . S
O108 Cd100 2.223 . S
O108 C107 1.315 . S
O109 Cd99 2.240 . S
O109 C107 1.279 . S
O110 Cd100 2.297 . S
O110 C105 1.247 . S
O111 Cd100 2.439 . S
O111 C105 1.208 . S
O112 Cd113 2.223 . S
O112 C120 1.315 . S
Cd113 O112 2.223 . S
Cd113 O116 2.297 . S
Cd113 O117 2.439 . S
Cd113 O123 2.240 . S
Cd114 O115 2.240 . S
Cd114 O122 2.223 . S
Cd114 O124 2.297 1_455 S
Cd114 O125 2.439 1_455 S
O115 Cd114 2.240 . S
O115 C120 1.279 . S
O116 Cd113 2.297 . S
O116 C118 1.247 . S
O117 Cd113 2.439 . S
O117 C118 1.208 . S
C118 O116 1.247 . S
C118 O117 1.208 . S
C119 O124 1.247 . S
C119 O125 1.208 . S
C120 O112 1.315 . S
C120 O115 1.279 . S
C121 O122 1.315 . S
C121 O123 1.279 . S
O122 Cd114 2.223 . S
O122 C121 1.315 . S
O123 Cd113 2.240 . S
O123 C121 1.279 . S
O124 Cd114 2.297 1_655 S
O124 C119 1.247 . S
O125 Cd114 2.439 1_655 S
O125 C119 1.208 . S
O126 Cd127 2.223 . S
O126 C134 1.315 . S
Cd127 O126 2.223 . S
Cd127 O130 2.297 . S
Cd127 O131 2.439 . S
Cd127 O137 2.240 . S
Cd128 O129 2.240 . S
Cd128 O136 2.223 . S
Cd128 O138 2.297 1_565 S
Cd128 O139 2.439 1_565 S
O129 Cd128 2.240 . S
O129 C134 1.279 . S
O130 Cd127 2.297 . S
O130 C132 1.247 . S
O131 Cd127 2.439 . S
O131 C132 1.208 . S
C132 O130 1.247 . S
C132 O131 1.208 . S
C133 O138 1.247 . S
C133 O139 1.208 . S
C134 O126 1.315 . S
C134 O129 1.279 . S
C135 O136 1.315 . S
C135 O137 1.279 . S
O136 Cd128 2.223 . S
O136 C135 1.315 . S
O137 Cd127 2.240 . S
O137 C135 1.279 . S
O138 Cd128 2.297 1_545 S
O138 C133 1.247 . S
O139 Cd128 2.439 1_545 S
O139 C133 1.208 . S
O140 Cd141 2.223 . S
O140 C148 1.315 . S
Cd141 O140 2.223 . S
Cd141 O144 2.297 . S
Cd141 O145 2.439 . S
Cd141 O151 2.240 . S
Cd142 O143 2.240 . S
Cd142 O150 2.223 . S
Cd142 O152 2.297 1_455 S
Cd142 O153 2.439 1_455 S
O143 Cd142 2.240 . S
O143 C148 1.279 . S
O144 Cd141 2.297 . S
O144 C146 1.247 . S
O145 Cd141 2.439 . S
O145 C146 1.208 . S
C146 O144 1.247 . S
C146 O145 1.208 . S
C147 O152 1.247 . S
C147 O153 1.208 . S
C148 O140 1.315 . S
C148 O143 1.279 . S
C149 O150 1.315 . S
C149 O151 1.279 . S
O150 Cd142 2.223 . S
O150 C149 1.315 . S
O151 Cd141 2.240 . S
O151 C149 1.279 . S
O152 Cd142 2.297 1_655 S
O152 C147 1.247 . S
O153 Cd142 2.439 1_655 S
O153 C147 1.208 . S
O154 Cd155 2.223 . S
O154 C162 1.315 . S
Cd155 O154 2.223 . S
Cd155 O158 2.297 . S
Cd155 O159 2.439 . S
Cd155 O165 2.240 . S
Cd156 O157 2.240 . S
Cd156 O164 2.223 . S
Cd156 O166 2.297 . S
Cd156 O167 2.439 . S
O157 Cd156 2.240 . S
O157 C162 1.279 . S
O158 Cd155 2.297 . S
O158 C160 1.247 . S
O159 Cd155 2.439 . S
O159 C160 1.208 . S
C160 O158 1.247 . S
C160 O159 1.208 . S
C161 O166 1.247 . S
C161 O167 1.208 . S
C162 O154 1.315 . S
C162 O157 1.279 . S
C163 O164 1.315 . S
C163 O165 1.279 . S
O164 Cd156 2.223 . S
O164 C163 1.315 . S
O165 Cd155 2.240 . S
O165 C163 1.279 . S
O166 Cd156 2.297 . S
O166 C161 1.247 . S
O167 Cd156 2.439 . S
O167 C161 1.208 . S
O168 Cd169 2.223 . S
O168 C176 1.315 . S
Cd169 O168 2.223 . S
Cd169 O172 2.297 . S
Cd169 O173 2.439 . S
Cd169 O179 2.240 . S
Cd170 O171 2.240 . S
Cd170 O178 2.223 . S
Cd170 O180 2.297 1_545 S
Cd170 O181 2.439 1_545 S
O171 Cd170 2.240 . S
O171 C176 1.279 . S
O172 Cd169 2.297 . S
O172 C174 1.247 . S
O173 Cd169 2.439 . S
O173 C174 1.208 . S
C174 O172 1.247 . S
C174 O173 1.208 . S
C175 O180 1.247 . S
C175 O181 1.208 . S
C176 O168 1.315 . S
C176 O171 1.279 . S
C177 O178 1.315 . S
C177 O179 1.279 . S
O178 Cd170 2.223 . S
O178 C177 1.315 . S
O179 Cd169 2.240 . S
O179 C177 1.279 . S
O180 Cd170 2.297 1_565 S
O180 C175 1.247 . S
O181 Cd170 2.439 1_565 S
O181 C175 1.208 . S
O182 Cd183 2.223 . S
O182 C190 1.315 . S
Cd183 O182 2.223 . S
Cd183 O186 2.297 . S
Cd183 O187 2.439 . S
Cd183 O193 2.240 . S
Cd184 O185 2.240 . S
Cd184 O192 2.223 . S
Cd184 O194 2.297 1_655 S
Cd184 O195 2.439 1_655 S
O185 Cd184 2.240 . S
O185 C190 1.279 . S
O186 Cd183 2.297 . S
O186 C188 1.247 . S
O187 Cd183 2.439 . S
O187 C188 1.208 . S
C188 O186 1.247 . S
C188 O187 1.208 . S
C189 O194 1.247 . S
C189 O195 1.208 . S
C190 O182 1.315 . S
C190 O185 1.279 . S
C191 O192 1.315 . S
C191 O193 1.279 . S
O192 Cd184 2.223 . S
O192 C191 1.315 . S
O193 Cd183 2.240 . S
O193 C191 1.279 . S
O194 Cd184 2.297 1_455 S
O194 C189 1.247 . S
O195 Cd184 2.439 1_455 S
O195 C189 1.208 . S
O196 Cd197 2.223 . S
O196 C204 1.315 . S
Cd197 O196 2.223 . S
Cd197 O200 2.297 . S
Cd197 O201 2.439 . S
Cd197 O207 2.240 . S
Cd198 O199 2.240 . S
Cd198 O206 2.223 . S
Cd198 O208 2.297 . S
Cd198 O209 2.439 . S
O199 Cd198 2.240 . S
O199 C204 1.279 . S
O200 Cd197 2.297 . S
O200 C202 1.247 . S
O201 Cd197 2.439 . S
O201 C202 1.208 . S
C202 O200 1.247 . S
C202 O201 1.208 . S
C203 O208 1.247 . S
C203 O209 1.208 . S
C204 O196 1.315 . S
C204 O199 1.279 . S
C205 O206 1.315 . S
C205 O207 1.279 . S
O206 Cd198 2.223 . S
O206 C205 1.315 . S
O207 Cd197 2.240 . S
O207 C205 1.279 . S
O208 Cd198 2.297 . S
O208 C203 1.247 . S
O209 Cd198 2.439 . S
O209 C203 1.208 . S
O210 Cd211 2.223 . S
O210 C218 1.315 . S
Cd211 O210 2.223 . S
Cd211 O214 2.297 . S
Cd211 O215 2.439 . S
Cd211 O221 2.240 . S
Cd212 O213 2.240 . S
Cd212 O220 2.223 . S
Cd212 O222 2.297 . S
Cd212 O223 2.439 . S
O213 Cd212 2.240 . S
O213 C218 1.279 . S
O214 Cd211 2.297 . S
O214 C216 1.247 . S
O215 Cd211 2.439 . S
O215 C216 1.208 . S
C216 O214 1.247 . S
C216 O215 1.208 . S
C217 O222 1.247 . S
C217 O223 1.208 . S
C218 O210 1.315 . S
C218 O213 1.279 . S
C219 O220 1.315 . S
C219 O221 1.279 . S
O220 Cd212 2.223 . S
O220 C219 1.315 . S
O221 Cd211 2.240 . S
O221 C219 1.279 . S
O222 Cd212 2.297 . S
O222 C217 1.247 . S
O223 Cd212 2.439 . S
O223 C217 1.208 . S
O224 Cd225 2.223 . S
O224 C232 1.315 . S
Cd225 O224 2.223 . S
Cd225 O228 2.297 1_545 S
Cd225 O229 2.439 1_545 S
Cd225 O235 2.240 . S
Cd226 O227 2.240 . S
Cd226 O234 2.223 . S
Cd226 O236 2.297 . S
Cd226 O237 2.439 . S
O227 Cd226 2.240 . S
O227 C232 1.279 . S
O228 Cd225 2.297 1_565 S
O228 C230 1.247 . S
O229 Cd225 2.439 1_565 S
O229 C230 1.208 . S
C230 O228 1.247 . S
C230 O229 1.208 . S
C231 O236 1.247 . S
C231 O237 1.208 . S
C232 O224 1.315 . S
C232 O227 1.279 . S
C233 O234 1.315 . S
C233 O235 1.279 . S
O234 Cd226 2.223 . S
O234 C233 1.315 . S
O235 Cd225 2.240 . S
O235 C233 1.279 . S
O236 Cd226 2.297 . S
O236 C231 1.247 . S
O237 Cd226 2.439 . S
O237 C231 1.208 . S
O238 Cd239 2.223 . S
O238 C246 1.315 . S
Cd239 O238 2.223 . S
Cd239 O242 2.297 . S
Cd239 O243 2.439 . S
Cd239 O249 2.240 . S
Cd240 O241 2.240 . S
Cd240 O248 2.223 . S
Cd240 O250 2.297 1_655 S
Cd240 O251 2.439 1_655 S
O241 Cd240 2.240 . S
O241 C246 1.279 . S
O242 Cd239 2.297 . S
O242 C244 1.247 . S
O243 Cd239 2.439 . S
O243 C244 1.208 . S
C244 O242 1.247 . S
C244 O243 1.208 . S
C245 O250 1.247 . S
C245 O251 1.208 . S
C246 O238 1.315 . S
C246 O241 1.279 . S
C247 O248 1.315 . S
C247 O249 1.279 . S
O248 Cd240 2.223 . S
O248 C247 1.315 . S
O249 Cd239 2.240 . S
O249 C247 1.279 . S
O250 Cd240 2.297 1_455 S
O250 C245 1.247 . S
O251 Cd240 2.439 1_455 S
O251 C245 1.208 . S
C252 C253 1.384 . S
C252 C254 1.384 . S
C252 H280 0.931 . S
C253 C252 1.384 . S
C253 C256 1.382 . S
C254 C252 1.384 . S
C254 C255 1.381 . S
C254 H281 0.930 . S
C255 C254 1.381 . S
C255 C257 1.381 . S
C255 C258 1.487 . S
C256 C253 1.382 . S
C256 C257 1.387 . S
C256 H282 0.930 . S
C257 C255 1.381 . S
C257 C256 1.387 . S
C257 H283 0.931 . S
C258 C255 1.487 . S
C258 C265 1.399 . S
C258 N296 1.343 . S
C259 C260 1.384 . S
C259 C261 1.384 . S
C259 H284 0.931 . S
C260 C259 1.384 . S
C260 C263 1.382 . S
C261 C259 1.384 . S
C261 C262 1.381 . S
C261 H285 0.930 . S
C262 C261 1.381 . S
C262 C264 1.381 . S
C262 C265 1.487 . S
C263 C260 1.382 . S
C263 C264 1.387 . S
C263 H286 0.930 . S
C264 C262 1.381 . S
C264 C263 1.387 . S
C264 H287 0.931 . S
C265 C258 1.399 . S
C265 C262 1.487 . S
C265 N297 1.343 . S
C266 C267 1.384 . S
C266 C268 1.384 . S
C266 H288 0.931 . S
C267 C266 1.384 . S
C267 C270 1.382 . S
C268 C266 1.384 . S
C268 C269 1.381 . S
C268 H289 0.930 . S
C269 C268 1.381 . S
C269 C271 1.381 . S
C269 C272 1.487 . S
C270 C267 1.382 . S
C270 C271 1.387 . S
C270 H290 0.930 . S
C271 C269 1.381 . S
C271 C270 1.387 . S
C271 H291 0.931 . S
C272 C269 1.487 . S
C272 C279 1.399 . S
C272 N297 1.343 . S
C273 C274 1.384 . S
C273 C275 1.384 . S
C273 H292 0.931 . S
C274 C273 1.384 . S
C274 C277 1.382 . S
C275 C273 1.384 . S
C275 C276 1.381 . S
C275 H293 0.930 . S
C276 C275 1.381 . S
C276 C278 1.381 . S
C276 C279 1.487 . S
C277 C274 1.382 . S
C277 C278 1.387 . S
C277 H294 0.930 . S
C278 C276 1.381 . S
C278 C277 1.387 . S
C278 H295 0.931 . S
C279 C272 1.399 . S
C279 C276 1.487 . S
C279 N296 1.343 . S
H280 C252 0.931 . S
H281 C254 0.930 . S
H282 C256 0.930 . S
H283 C257 0.931 . S
H284 C259 0.931 . S
H285 C261 0.930 . S
H286 C263 0.930 . S
H287 C264 0.931 . S
H288 C266 0.931 . S
H289 C268 0.930 . S
H290 C270 0.930 . S
H291 C271 0.931 . S
H292 C273 0.931 . S
H293 C275 0.930 . S
H294 C277 0.930 . S
H295 C278 0.931 . S
N296 C258 1.343 . S
N296 C279 1.343 . S
N297 C265 1.343 . S
N297 C272 1.343 . S
C298 C299 1.384 . S
C298 C300 1.384 . S
C298 H326 0.931 . S
C299 C298 1.384 . S
C299 C302 1.382 . S
C300 C298 1.384 . S
C300 C301 1.381 . S
C300 H327 0.930 . S
C301 C300 1.381 . S
C301 C303 1.381 . S
C301 C304 1.487 . S
C302 C299 1.382 . S
C302 C303 1.387 . S
C302 H328 0.930 . S
C303 C301 1.381 . S
C303 C302 1.387 . S
C303 H329 0.931 . S
C304 C301 1.487 . S
C304 C311 1.399 . S
C304 N342 1.343 . S
C305 C306 1.384 . S
C305 C307 1.384 . S
C305 H330 0.931 . S
C306 C305 1.384 . S
C306 C309 1.382 . S
C307 C305 1.384 . S
C307 C308 1.381 . S
C307 H331 0.930 . S
C308 C307 1.381 . S
C308 C310 1.381 . S
C308 C311 1.487 . S
C309 C306 1.382 . S
C309 C310 1.387 . S
C309 H332 0.930 . S
C310 C308 1.381 . S
C310 C309 1.387 . S
C310 H333 0.931 . S
C311 C304 1.399 . S
C311 C308 1.487 . S
C311 N343 1.343 . S
C312 C313 1.384 . S
C312 C314 1.384 . S
C312 H334 0.931 . S
C313 C312 1.384 . S
C313 C316 1.382 . S
C314 C312 1.384 . S
C314 C315 1.381 . S
C314 H335 0.930 . S
C315 C314 1.381 . S
C315 C317 1.381 . S
C315 C318 1.487 . S
C316 C313 1.382 . S
C316 C317 1.387 . S
C316 H336 0.930 . S
C317 C315 1.381 . S
C317 C316 1.387 . S
C317 H337 0.931 . S
C318 C315 1.487 . S
C318 C325 1.399 . S
C318 N343 1.343 . S
C319 C320 1.384 . S
C319 C321 1.384 . S
C319 H338 0.931 . S
C320 C319 1.384 . S
C320 C323 1.382 . S
C321 C319 1.384 . S
C321 C322 1.381 . S
C321 H339 0.930 . S
C322 C321 1.381 . S
C322 C324 1.381 . S
C322 C325 1.487 . S
C323 C320 1.382 . S
C323 C324 1.387 . S
C323 H340 0.930 . S
C324 C322 1.381 . S
C324 C323 1.387 . S
C324 H341 0.931 . S
C325 C318 1.399 . S
C325 C322 1.487 . S
C325 N342 1.343 . S
H326 C298 0.931 . S
H327 C300 0.930 . S
H328 C302 0.930 . S
H329 C303 0.931 . S
H330 C305 0.931 . S
H331 C307 0.930 . S
H332 C309 0.930 . S
H333 C310 0.931 . S
H334 C312 0.931 . S
H335 C314 0.930 . S
H336 C316 0.930 . S
H337 C317 0.931 . S
H338 C319 0.931 . S
H339 C321 0.930 . S
H340 C323 0.930 . S
H341 C324 0.931 . S
N342 C304 1.343 . S
N342 C325 1.343 . S
N343 C311 1.343 . S
N343 C318 1.343 . S
C344 C345 1.384 . S
C344 C346 1.384 . S
C344 H372 0.931 . S
C345 C344 1.384 . S
C345 C348 1.382 . S
C346 C344 1.384 . S
C346 C347 1.381 . S
C346 H373 0.930 . S
C347 C346 1.381 . S
C347 C349 1.381 . S
C347 C350 1.487 . S
C348 C345 1.382 . S
C348 C349 1.387 . S
C348 H374 0.930 . S
C349 C347 1.381 . S
C349 C348 1.387 . S
C349 H375 0.931 . S
C350 C347 1.487 . S
C350 C357 1.399 . S
C350 N388 1.343 . S
C351 C352 1.384 . S
C351 C353 1.384 . S
C351 H376 0.931 . S
C352 C351 1.384 . S
C352 C355 1.382 . S
C353 C351 1.384 . S
C353 C354 1.381 . S
C353 H377 0.930 . S
C354 C353 1.381 . S
C354 C356 1.381 . S
C354 C357 1.487 . S
C355 C352 1.382 . S
C355 C356 1.387 . S
C355 H378 0.930 . S
C356 C354 1.381 . S
C356 C355 1.387 . S
C356 H379 0.931 . S
C357 C350 1.399 . S
C357 C354 1.487 . S
C357 N389 1.343 . S
C358 C359 1.384 . S
C358 C360 1.384 . S
C358 H380 0.931 . S
C359 C358 1.384 . S
C359 C362 1.382 . S
C360 C358 1.384 . S
C360 C361 1.381 . S
C360 H381 0.930 . S
C361 C360 1.381 . S
C361 C363 1.381 . S
C361 C364 1.487 . S
C362 C359 1.382 . S
C362 C363 1.387 . S
C362 H382 0.930 . S
C363 C361 1.381 . S
C363 C362 1.387 . S
C363 H383 0.931 . S
C364 C361 1.487 . S
C364 C371 1.399 . S
C364 N389 1.343 . S
C365 C366 1.384 . S
C365 C367 1.384 . S
C365 H384 0.931 . S
C366 C365 1.384 . S
C366 C369 1.382 . S
C367 C365 1.384 . S
C367 C368 1.381 . S
C367 H385 0.930 . S
C368 C367 1.381 . S
C368 C370 1.381 . S
C368 C371 1.487 . S
C369 C366 1.382 . S
C369 C370 1.387 . S
C369 H386 0.930 . S
C370 C368 1.381 . S
C370 C369 1.387 . S
C370 H387 0.931 . S
C371 C364 1.399 . S
C371 C368 1.487 . S
C371 N388 1.343 . S
H372 C344 0.931 . S
H373 C346 0.930 . S
H374 C348 0.930 . S
H375 C349 0.931 . S
H376 C351 0.931 . S
H377 C353 0.930 . S
H378 C355 0.930 . S
H379 C356 0.931 . S
H380 C358 0.931 . S
H381 C360 0.930 . S
H382 C362 0.930 . S
H383 C363 0.931 . S
H384 C365 0.931 . S
H385 C367 0.930 . S
H386 C369 0.930 . S
H387 C370 0.931 . S
N388 C350 1.343 . S
N388 C371 1.343 . S
N389 C357 1.343 . S
N389 C364 1.343 . S
C390 C391 1.384 . S
C390 C392 1.384 . S
C390 H418 0.931 . S
C391 C390 1.384 . S
C391 C394 1.382 . S
C392 C390 1.384 . S
C392 C393 1.381 . S
C392 H419 0.930 . S
C393 C392 1.381 . S
C393 C395 1.381 . S
C393 C396 1.487 . S
C394 C391 1.382 . S
C394 C395 1.387 . S
C394 H420 0.930 . S
C395 C393 1.381 . S
C395 C394 1.387 . S
C395 H421 0.931 . S
C396 C393 1.487 . S
C396 C403 1.399 . S
C396 N434 1.343 . S
C397 C398 1.384 . S
C397 C399 1.384 . S
C397 H422 0.931 . S
C398 C397 1.384 . S
C398 C401 1.382 . S
C399 C397 1.384 . S
C399 C400 1.381 . S
C399 H423 0.930 . S
C400 C399 1.381 . S
C400 C402 1.381 . S
C400 C403 1.487 . S
C401 C398 1.382 . S
C401 C402 1.387 . S
C401 H424 0.930 . S
C402 C400 1.381 . S
C402 C401 1.387 . S
C402 H425 0.931 . S
C403 C396 1.399 . S
C403 C400 1.487 . S
C403 N435 1.343 . S
C404 C405 1.384 . S
C404 C406 1.384 . S
C404 H426 0.931 . S
C405 C404 1.384 . S
C405 C408 1.382 . S
C406 C404 1.384 . S
C406 C407 1.381 . S
C406 H427 0.930 . S
C407 C406 1.381 . S
C407 C409 1.381 . S
C407 C410 1.487 . S
C408 C405 1.382 . S
C408 C409 1.387 . S
C408 H428 0.930 . S
C409 C407 1.381 . S
C409 C408 1.387 . S
C409 H429 0.931 . S
C410 C407 1.487 . S
C410 C417 1.399 . S
C410 N435 1.343 . S
C411 C412 1.384 . S
C411 C413 1.384 . S
C411 H430 0.931 . S
C412 C411 1.384 . S
C412 C415 1.382 . S
C413 C411 1.384 . S
C413 C414 1.381 . S
C413 H431 0.930 . S
C414 C413 1.381 . S
C414 C416 1.381 . S
C414 C417 1.487 . S
C415 C412 1.382 . S
C415 C416 1.387 . S
C415 H432 0.930 . S
C416 C414 1.381 . S
C416 C415 1.387 . S
C416 H433 0.931 . S
C417 C410 1.399 . S
C417 C414 1.487 . S
C417 N434 1.343 . S
H418 C390 0.931 . S
H419 C392 0.930 . S
H420 C394 0.930 . S
H421 C395 0.931 . S
H422 C397 0.931 . S
H423 C399 0.930 . S
H424 C401 0.930 . S
H425 C402 0.931 . S
H426 C404 0.931 . S
H427 C406 0.930 . S
H428 C408 0.930 . S
H429 C409 0.931 . S
H430 C411 0.931 . S
H431 C413 0.930 . S
H432 C415 0.930 . S
H433 C416 0.931 . S
N434 C396 1.343 . S
N434 C417 1.343 . S
N435 C403 1.343 . S
N435 C410 1.343 . S
C436 C437 1.384 . S
C436 C438 1.384 . S
C436 H464 0.931 . S
C437 C436 1.384 . S
C437 C440 1.382 . S
C438 C436 1.384 . S
C438 C439 1.381 . S
C438 H465 0.930 . S
C439 C438 1.381 . S
C439 C441 1.381 . S
C439 C442 1.487 . S
C440 C437 1.382 . S
C440 C441 1.387 . S
C440 H466 0.930 . S
C441 C439 1.381 . S
C441 C440 1.387 . S
C441 H467 0.931 . S
C442 C439 1.487 . S
C442 C449 1.399 . S
C442 N480 1.343 . S
C443 C444 1.384 . S
C443 C445 1.384 . S
C443 H468 0.931 . S
C444 C443 1.384 . S
C444 C447 1.382 . S
C445 C443 1.384 . S
C445 C446 1.381 . S
C445 H469 0.930 . S
C446 C445 1.381 . S
C446 C448 1.381 . S
C446 C449 1.487 . S
C447 C444 1.382 . S
C447 C448 1.387 . S
C447 H470 0.930 . S
C448 C446 1.381 . S
C448 C447 1.387 . S
C448 H471 0.931 . S
C449 C442 1.399 . S
C449 C446 1.487 . S
C449 N481 1.343 . S
C450 C451 1.384 . S
C450 C452 1.384 . S
C450 H472 0.931 . S
C451 C450 1.384 . S
C451 C454 1.382 . S
C452 C450 1.384 . S
C452 C453 1.381 . S
C452 H473 0.930 . S
C453 C452 1.381 . S
C453 C455 1.381 . S
C453 C456 1.487 . S
C454 C451 1.382 . S
C454 C455 1.387 . S
C454 H474 0.930 . S
C455 C453 1.381 . S
C455 C454 1.387 . S
C455 H475 0.931 . S
C456 C453 1.487 . S
C456 C463 1.399 . S
C456 N481 1.343 . S
C457 C458 1.384 . S
C457 C459 1.384 . S
C457 H476 0.931 . S
C458 C457 1.384 . S
C458 C461 1.382 . S
C459 C457 1.384 . S
C459 C460 1.381 . S
C459 H477 0.930 . S
C460 C459 1.381 . S
C460 C462 1.381 . S
C460 C463 1.487 . S
C461 C458 1.382 . S
C461 C462 1.387 . S
C461 H478 0.930 . S
C462 C460 1.381 . S
C462 C461 1.387 . S
C462 H479 0.931 . S
C463 C456 1.399 . S
C463 C460 1.487 . S
C463 N480 1.343 . S
H464 C436 0.931 . S
H465 C438 0.930 . S
H466 C440 0.930 . S
H467 C441 0.931 . S
H468 C443 0.931 . S
H469 C445 0.930 . S
H470 C447 0.930 . S
H471 C448 0.931 . S
H472 C450 0.931 . S
H473 C452 0.930 . S
H474 C454 0.930 . S
H475 C455 0.931 . S
H476 C457 0.931 . S
H477 C459 0.930 . S
H478 C461 0.930 . S
H479 C462 0.931 . S
N480 C442 1.343 . S
N480 C463 1.343 . S
N481 C449 1.343 . S
N481 C456 1.343 . S
C482 C483 1.384 . S
C482 C484 1.384 . S
C482 H510 0.931 . S
C483 C482 1.384 . S
C483 C486 1.382 . S
C484 C482 1.384 . S
C484 C485 1.381 . S
C484 H511 0.930 . S
C485 C484 1.381 . S
C485 C487 1.381 . S
C485 C488 1.487 . S
C486 C483 1.382 . S
C486 C487 1.387 . S
C486 H512 0.930 . S
C487 C485 1.381 . S
C487 C486 1.387 . S
C487 H513 0.931 . S
C488 C485 1.487 . S
C488 C495 1.399 . S
C488 N526 1.343 . S
C489 C490 1.384 . S
C489 C491 1.384 . S
C489 H514 0.931 . S
C490 C489 1.384 . S
C490 C493 1.382 . S
C491 C489 1.384 . S
C491 C492 1.381 . S
C491 H515 0.930 . S
C492 C491 1.381 . S
C492 C494 1.381 . S
C492 C495 1.487 . S
C493 C490 1.382 . S
C493 C494 1.387 . S
C493 H516 0.930 . S
C494 C492 1.381 . S
C494 C493 1.387 . S
C494 H517 0.931 . S
C495 C488 1.399 . S
C495 C492 1.487 . S
C495 N527 1.343 . S
C496 C497 1.384 . S
C496 C498 1.384 . S
C496 H518 0.931 . S
C497 C496 1.384 . S
C497 C500 1.382 . S
C498 C496 1.384 . S
C498 C499 1.381 . S
C498 H519 0.930 . S
C499 C498 1.381 . S
C499 C501 1.381 . S
C499 C502 1.487 . S
C500 C497 1.382 . S
C500 C501 1.387 . S
C500 H520 0.930 . S
C501 C499 1.381 . S
C501 C500 1.387 . S
C501 H521 0.931 . S
C502 C499 1.487 . S
C502 C509 1.399 . S
C502 N527 1.343 . S
C503 C504 1.384 . S
C503 C505 1.384 . S
C503 H522 0.931 . S
C504 C503 1.384 . S
C504 C507 1.382 . S
C505 C503 1.384 . S
C505 C506 1.381 . S
C505 H523 0.930 . S
C506 C505 1.381 . S
C506 C508 1.381 . S
C506 C509 1.487 . S
C507 C504 1.382 . S
C507 C508 1.387 . S
C507 H524 0.930 . S
C508 C506 1.381 . S
C508 C507 1.387 . S
C508 H525 0.931 . S
C509 C502 1.399 . S
C509 C506 1.487 . S
C509 N526 1.343 . S
H510 C482 0.931 . S
H511 C484 0.930 . S
H512 C486 0.930 . S
H513 C487 0.931 . S
H514 C489 0.931 . S
H515 C491 0.930 . S
H516 C493 0.930 . S
H517 C494 0.931 . S
H518 C496 0.931 . S
H519 C498 0.930 . S
H520 C500 0.930 . S
H521 C501 0.931 . S
H522 C503 0.931 . S
H523 C505 0.930 . S
H524 C507 0.930 . S
H525 C508 0.931 . S
N526 C488 1.343 . S
N526 C509 1.343 . S
N527 C495 1.343 . S
N527 C502 1.343 . S
C528 C529 1.384 . S
C528 C530 1.384 . S
C528 H556 0.931 . S
C529 C528 1.384 . S
C529 C532 1.382 . S
C530 C528 1.384 . S
C530 C531 1.381 . S
C530 H557 0.930 . S
C531 C530 1.381 . S
C531 C533 1.381 . S
C531 C534 1.487 . S
C532 C529 1.382 . S
C532 C533 1.387 . S
C532 H558 0.930 . S
C533 C531 1.381 . S
C533 C532 1.387 . S
C533 H559 0.931 . S
C534 C531 1.487 . S
C534 C541 1.399 . S
C534 N572 1.343 . S
C535 C536 1.384 . S
C535 C537 1.384 . S
C535 H560 0.931 . S
C536 C535 1.384 . S
C536 C539 1.382 . S
C537 C535 1.384 . S
C537 C538 1.381 . S
C537 H561 0.930 . S
C538 C537 1.381 . S
C538 C540 1.381 . S
C538 C541 1.487 . S
C539 C536 1.382 . S
C539 C540 1.387 . S
C539 H562 0.930 . S
C540 C538 1.381 . S
C540 C539 1.387 . S
C540 H563 0.931 . S
C541 C534 1.399 . S
C541 C538 1.487 . S
C541 N573 1.343 . S
C542 C543 1.384 . S
C542 C544 1.384 . S
C542 H564 0.931 . S
C543 C542 1.384 . S
C543 C546 1.382 . S
C544 C542 1.384 . S
C544 C545 1.381 . S
C544 H565 0.930 . S
C545 C544 1.381 . S
C545 C547 1.381 . S
C545 C548 1.487 . S
C546 C543 1.382 . S
C546 C547 1.387 . S
C546 H566 0.930 . S
C547 C545 1.381 . S
C547 C546 1.387 . S
C547 H567 0.931 . S
C548 C545 1.487 . S
C548 C555 1.399 . S
C548 N573 1.343 . S
C549 C550 1.384 . S
C549 C551 1.384 . S
C549 H568 0.931 . S
C550 C549 1.384 . S
C550 C553 1.382 . S
C551 C549 1.384 . S
C551 C552 1.381 . S
C551 H569 0.930 . S
C552 C551 1.381 . S
C552 C554 1.381 . S
C552 C555 1.487 . S
C553 C550 1.382 . S
C553 C554 1.387 . S
C553 H570 0.930 . S
C554 C552 1.381 . S
C554 C553 1.387 . S
C554 H571 0.931 . S
C555 C548 1.399 . S
C555 C552 1.487 . S
C555 N572 1.343 . S
H556 C528 0.931 . S
H557 C530 0.930 . S
H558 C532 0.930 . S
H559 C533 0.931 . S
H560 C535 0.931 . S
H561 C537 0.930 . S
H562 C539 0.930 . S
H563 C540 0.931 . S
H564 C542 0.931 . S
H565 C544 0.930 . S
H566 C546 0.930 . S
H567 C547 0.931 . S
H568 C549 0.931 . S
H569 C551 0.930 . S
H570 C553 0.930 . S
H571 C554 0.931 . S
N572 C534 1.343 . S
N572 C555 1.343 . S
N573 C541 1.343 . S
N573 C548 1.343 . S
C574 C575 1.384 . S
C574 C576 1.384 . S
C574 H602 0.931 . S
C575 C574 1.384 . S
C575 C578 1.382 . S
C576 C574 1.384 . S
C576 C577 1.381 . S
C576 H603 0.930 . S
C577 C576 1.381 . S
C577 C579 1.381 . S
C577 C580 1.487 . S
C578 C575 1.382 . S
C578 C579 1.387 . S
C578 H604 0.930 . S
C579 C577 1.381 . S
C579 C578 1.387 . S
C579 H605 0.931 . S
C580 C577 1.487 . S
C580 C587 1.399 . S
C580 N618 1.343 . S
C581 C582 1.384 . S
C581 C583 1.384 . S
C581 H606 0.931 . S
C582 C581 1.384 . S
C582 C585 1.382 . S
C583 C581 1.384 . S
C583 C584 1.381 . S
C583 H607 0.930 . S
C584 C583 1.381 . S
C584 C586 1.381 . S
C584 C587 1.487 . S
C585 C582 1.382 . S
C585 C586 1.387 . S
C585 H608 0.930 . S
C586 C584 1.381 . S
C586 C585 1.387 . S
C586 H609 0.931 . S
C587 C580 1.399 . S
C587 C584 1.487 . S
C587 N619 1.343 . S
C588 C589 1.384 . S
C588 C590 1.384 . S
C588 H610 0.931 . S
C589 C588 1.384 . S
C589 C592 1.382 . S
C590 C588 1.384 . S
C590 C591 1.381 . S
C590 H611 0.930 . S
C591 C590 1.381 . S
C591 C593 1.381 . S
C591 C594 1.487 . S
C592 C589 1.382 . S
C592 C593 1.387 . S
C592 H612 0.930 . S
C593 C591 1.381 . S
C593 C592 1.387 . S
C593 H613 0.931 . S
C594 C591 1.487 . S
C594 C601 1.399 . S
C594 N619 1.343 . S
C595 C596 1.384 . S
C595 C597 1.384 . S
C595 H614 0.931 . S
C596 C595 1.384 . S
C596 C599 1.382 . S
C597 C595 1.384 . S
C597 C598 1.381 . S
C597 H615 0.930 . S
C598 C597 1.381 . S
C598 C600 1.381 . S
C598 C601 1.487 . S
C599 C596 1.382 . S
C599 C600 1.387 . S
C599 H616 0.930 . S
C600 C598 1.381 . S
C600 C599 1.387 . S
C600 H617 0.931 . S
C601 C594 1.399 . S
C601 C598 1.487 . S
C601 N618 1.343 . S
H602 C574 0.931 . S
H603 C576 0.930 . S
H604 C578 0.930 . S
H605 C579 0.931 . S
H606 C581 0.931 . S
H607 C583 0.930 . S
H608 C585 0.930 . S
H609 C586 0.931 . S
H610 C588 0.931 . S
H611 C590 0.930 . S
H612 C592 0.930 . S
H613 C593 0.931 . S
H614 C595 0.931 . S
H615 C597 0.930 . S
H616 C599 0.930 . S
H617 C600 0.931 . S
N618 C580 1.343 . S
N618 C601 1.343 . S
N619 C587 1.343 . S
N619 C594 1.343 . S
C620 C621 1.384 . S
C620 C622 1.384 . S
C620 H648 0.931 . S
C621 C620 1.384 . S
C621 C624 1.382 . S
C622 C620 1.384 . S
C622 C623 1.381 . S
C622 H649 0.930 . S
C623 C622 1.381 . S
C623 C625 1.381 . S
C623 C626 1.487 . S
C624 C621 1.382 . S
C624 C625 1.387 . S
C624 H650 0.930 . S
C625 C623 1.381 . S
C625 C624 1.387 . S
C625 H651 0.931 . S
C626 C623 1.487 . S
C626 C633 1.399 . S
C626 N664 1.343 . S
C627 C628 1.384 . S
C627 C629 1.384 . S
C627 H652 0.931 . S
C628 C627 1.384 . S
C628 C631 1.382 . S
C629 C627 1.384 . S
C629 C630 1.381 . S
C629 H653 0.930 . S
C630 C629 1.381 . S
C630 C632 1.381 . S
C630 C633 1.487 . S
C631 C628 1.382 . S
C631 C632 1.387 . S
C631 H654 0.930 . S
C632 C630 1.381 . S
C632 C631 1.387 . S
C632 H655 0.931 . S
C633 C626 1.399 . S
C633 C630 1.487 . S
C633 N665 1.343 . S
C634 C635 1.384 . S
C634 C636 1.384 . S
C634 H656 0.931 . S
C635 C634 1.384 . S
C635 C638 1.382 . S
C636 C634 1.384 . S
C636 C637 1.381 . S
C636 H657 0.930 . S
C637 C636 1.381 . S
C637 C639 1.381 . S
C637 C640 1.487 . S
C638 C635 1.382 . S
C638 C639 1.387 . S
C638 H658 0.930 . S
C639 C637 1.381 . S
C639 C638 1.387 . S
C639 H659 0.931 . S
C640 C637 1.487 . S
C640 C647 1.399 . S
C640 N665 1.343 . S
C641 C642 1.384 . S
C641 C643 1.384 . S
C641 H660 0.931 . S
C642 C641 1.384 . S
C642 C645 1.382 . S
C643 C641 1.384 . S
C643 C644 1.381 . S
C643 H661 0.930 . S
C644 C643 1.381 . S
C644 C646 1.381 . S
C644 C647 1.487 . S
C645 C642 1.382 . S
C645 C646 1.387 . S
C645 H662 0.930 . S
C646 C644 1.381 . S
C646 C645 1.387 . S
C646 H663 0.931 . S
C647 C640 1.399 . S
C647 C644 1.487 . S
C647 N664 1.343 . S
H648 C620 0.931 . S
H649 C622 0.930 . S
H650 C624 0.930 . S
H651 C625 0.931 . S
H652 C627 0.931 . S
H653 C629 0.930 . S
H654 C631 0.930 . S
H655 C632 0.931 . S
H656 C634 0.931 . S
H657 C636 0.930 . S
H658 C638 0.930 . S
H659 C639 0.931 . S
H660 C641 0.931 . S
H661 C643 0.930 . S
H662 C645 0.930 . S
H663 C646 0.931 . S
N664 C626 1.343 . S
N664 C647 1.343 . S
N665 C633 1.343 . S
N665 C640 1.343 . S
C666 C667 1.384 . S
C666 C668 1.384 . S
C666 H694 0.931 . S
C667 C666 1.384 . S
C667 C670 1.382 1_655 S
C668 C666 1.384 . S
C668 C669 1.390 1_655 S
C668 H695 0.930 . S
C669 C668 1.390 1_455 S
C669 C671 1.377 . S
C669 C672 1.474 . S
C670 C667 1.382 1_455 S
C670 C671 1.387 . S
C670 H696 0.930 . S
C671 C669 1.377 . S
C671 C670 1.387 . S
C671 H697 0.931 . S
C672 C669 1.474 . S
C672 C679 1.399 1_455 S
C672 N710 1.354 . S
C673 C674 1.384 . S
C673 C675 1.384 . S
C673 H698 0.931 . S
C674 C673 1.384 . S
C674 C677 1.382 1_455 S
C675 C673 1.384 . S
C675 C676 1.381 . S
C675 H699 0.930 . S
C676 C675 1.381 . S
C676 C678 1.381 1_455 S
C676 C679 1.491 1_455 S
C677 C674 1.382 1_655 S
C677 C678 1.387 . S
C677 H700 0.930 . S
C678 C676 1.381 1_655 S
C678 C677 1.387 . S
C678 H701 0.931 . S
C679 C672 1.399 1_655 S
C679 C676 1.491 1_655 S
C679 N711 1.367 . S
C680 C681 1.384 . S
C680 C682 1.384 . S
C680 H702 0.931 . S
C681 C680 1.384 . S
C681 C684 1.382 1_455 S
C682 C680 1.384 . S
C682 C683 1.390 . S
C682 H703 0.930 . S
C683 C682 1.390 . S
C683 C685 1.377 1_455 S
C683 C686 1.481 1_455 S
C684 C681 1.382 1_655 S
C684 C685 1.387 . S
C684 H704 0.930 . S
C685 C683 1.377 1_655 S
C685 C684 1.387 . S
C685 H705 0.931 . S
C686 C683 1.481 1_655 S
C686 C693 1.399 1_655 S
C686 N711 1.316 . S
C687 C688 1.384 . S
C687 C689 1.384 . S
C687 H706 0.931 . S
C688 C687 1.384 . S
C688 C691 1.382 1_655 S
C689 C687 1.384 . S
C689 C690 1.381 1_655 S
C689 H707 0.930 . S
C690 C689 1.381 1_455 S
C690 C692 1.381 . S
C690 C693 1.498 . S
C691 C688 1.382 1_455 S
C691 C692 1.387 . S
C691 H708 0.930 . S
C692 C690 1.381 . S
C692 C691 1.387 . S
C692 H709 0.931 . S
C693 C686 1.399 1_455 S
C693 C690 1.498 . S
C693 N710 1.332 . S
H694 C666 0.931 . S
H695 C668 0.930 . S
H696 C670 0.930 . S
H697 C671 0.931 . S
H698 C673 0.931 . S
H699 C675 0.930 . S
H700 C677 0.930 . S
H701 C678 0.931 . S
H702 C680 0.931 . S
H703 C682 0.930 . S
H704 C684 0.930 . S
H705 C685 0.931 . S
H706 C687 0.931 . S
H707 C689 0.930 . S
H708 C691 0.930 . S
H709 C692 0.931 . S
N710 C672 1.354 . S
N710 C693 1.332 . S
N711 C679 1.367 . S
N711 C686 1.316 . S
C712 C713 1.384 . S
C712 C714 1.384 . S
C712 H740 0.931 . S
C713 C712 1.384 . S
C713 C716 1.382 . S
C714 C712 1.384 . S
C714 C715 1.381 . S
C714 H741 0.930 . S
C715 C714 1.381 . S
C715 C717 1.381 . S
C715 C718 1.487 . S
C716 C713 1.382 . S
C716 C717 1.387 . S
C716 H742 0.930 . S
C717 C715 1.381 . S
C717 C716 1.387 . S
C717 H743 0.931 . S
C718 C715 1.487 . S
C718 C725 1.399 . S
C718 N756 1.343 . S
C719 C720 1.384 . S
C719 C721 1.384 . S
C719 H744 0.931 . S
C720 C719 1.384 . S
C720 C723 1.382 . S
C721 C719 1.384 . S
C721 C722 1.381 . S
C721 H745 0.930 . S
C722 C721 1.381 . S
C722 C724 1.381 . S
C722 C725 1.487 . S
C723 C720 1.382 . S
C723 C724 1.387 . S
C723 H746 0.930 . S
C724 C722 1.381 . S
C724 C723 1.387 . S
C724 H747 0.931 . S
C725 C718 1.399 . S
C725 C722 1.487 . S
C725 N757 1.343 . S
C726 C727 1.384 . S
C726 C728 1.384 . S
C726 H748 0.931 . S
C727 C726 1.384 . S
C727 C730 1.382 . S
C728 C726 1.384 . S
C728 C729 1.381 . S
C728 H749 0.930 . S
C729 C728 1.381 . S
C729 C731 1.381 . S
C729 C732 1.487 . S
C730 C727 1.382 . S
C730 C731 1.387 . S
C730 H750 0.930 . S
C731 C729 1.381 . S
C731 C730 1.387 . S
C731 H751 0.931 . S
C732 C729 1.487 . S
C732 C739 1.399 . S
C732 N757 1.343 . S
C733 C734 1.384 . S
C733 C735 1.384 . S
C733 H752 0.931 . S
C734 C733 1.384 . S
C734 C737 1.382 . S
C735 C733 1.384 . S
C735 C736 1.381 . S
C735 H753 0.930 . S
C736 C735 1.381 . S
C736 C738 1.381 . S
C736 C739 1.487 . S
C737 C734 1.382 . S
C737 C738 1.387 . S
C737 H754 0.930 . S
C738 C736 1.381 . S
C738 C737 1.387 . S
C738 H755 0.931 . S
C739 C732 1.399 . S
C739 C736 1.487 . S
C739 N756 1.343 . S
H740 C712 0.931 . S
H741 C714 0.930 . S
H742 C716 0.930 . S
H743 C717 0.931 . S
H744 C719 0.931 . S
H745 C721 0.930 . S
H746 C723 0.930 . S
H747 C724 0.931 . S
H748 C726 0.931 . S
H749 C728 0.930 . S
H750 C730 0.930 . S
H751 C731 0.931 . S
H752 C733 0.931 . S
H753 C735 0.930 . S
H754 C737 0.930 . S
H755 C738 0.931 . S
N756 C718 1.343 . S
N756 C739 1.343 . S
N757 C725 1.343 . S
N757 C732 1.343 . S
C758 C759 1.384 1_545 S
C758 C760 1.384 . S
C758 H786 0.931 . S
C759 C758 1.384 1_565 S
C759 C762 1.382 . S
C760 C758 1.384 . S
C760 C761 1.381 1_545 S
C760 H787 0.930 . S
C761 C760 1.381 1_565 S
C761 C763 1.381 . S
C761 C764 1.487 . S
C762 C759 1.382 . S
C762 C763 1.387 . S
C762 H788 0.930 . S
C763 C761 1.381 . S
C763 C762 1.387 . S
C763 H789 0.931 . S
C764 C761 1.487 . S
C764 C771 1.399 1_565 S
C764 N802 1.343 . S
C765 C766 1.384 1_565 S
C765 C767 1.384 . S
C765 H790 0.931 . S
C766 C765 1.384 1_545 S
C766 C769 1.382 . S
C767 C765 1.384 . S
C767 C768 1.381 1_565 S
C767 H791 0.930 . S
C768 C767 1.381 1_545 S
C768 C770 1.381 . S
C768 C771 1.487 . S
C769 C766 1.382 . S
C769 C770 1.387 . S
C769 H792 0.930 . S
C770 C768 1.381 . S
C770 C769 1.387 . S
C770 H793 0.931 . S
C771 C764 1.399 1_545 S
C771 C768 1.487 . S
C771 N803 1.343 . S
C772 C773 1.384 1_565 S
C772 C774 1.384 . S
C772 H794 0.931 . S
C773 C772 1.384 1_545 S
C773 C776 1.382 . S
C774 C772 1.384 . S
C774 C775 1.381 1_565 S
C774 H795 0.930 . S
C775 C774 1.381 1_545 S
C775 C777 1.381 . S
C775 C778 1.487 . S
C776 C773 1.382 . S
C776 C777 1.387 . S
C776 H796 0.930 . S
C777 C775 1.381 . S
C777 C776 1.387 . S
C777 H797 0.931 . S
C778 C775 1.487 . S
C778 C785 1.399 1_545 S
C778 N803 1.343 . S
C779 C780 1.384 1_545 S
C779 C781 1.384 . S
C779 H798 0.931 . S
C780 C779 1.384 1_565 S
C780 C783 1.382 . S
C781 C779 1.384 . S
C781 C782 1.381 1_545 S
C781 H799 0.930 . S
C782 C781 1.381 1_565 S
C782 C784 1.381 . S
C782 C785 1.487 . S
C783 C780 1.382 . S
C783 C784 1.387 . S
C783 H800 0.930 . S
C784 C782 1.381 . S
C784 C783 1.387 . S
C784 H801 0.931 . S
C785 C778 1.399 1_565 S
C785 C782 1.487 . S
C785 N802 1.343 . S
H786 C758 0.931 . S
H787 C760 0.930 . S
H788 C762 0.930 . S
H789 C763 0.931 . S
H790 C765 0.931 . S
H791 C767 0.930 . S
H792 C769 0.930 . S
H793 C770 0.931 . S
H794 C772 0.931 . S
H795 C774 0.930 . S
H796 C776 0.930 . S
H797 C777 0.931 . S
H798 C779 0.931 . S
H799 C781 0.930 . S
H800 C783 0.930 . S
H801 C784 0.931 . S
N802 C764 1.343 . S
N802 C785 1.343 . S
N803 C771 1.343 . S
N803 C778 1.343 . S
C804 C805 1.384 . S
C804 C806 1.384 . S
C804 H832 0.931 . S
C805 C804 1.384 . S
C805 C808 1.382 1_545 S
C806 C804 1.384 . S
C806 C807 1.381 . S
C806 H833 0.930 . S
C807 C806 1.381 . S
C807 C809 1.381 1_545 S
C807 C810 1.491 1_545 S
C808 C805 1.382 1_565 S
C808 C809 1.387 . S
C808 H834 0.930 . S
C809 C807 1.381 1_565 S
C809 C808 1.387 . S
C809 H835 0.931 . S
C810 C807 1.491 1_565 S
C810 C817 1.399 1_565 S
C810 N848 1.367 . S
C811 C812 1.384 . S
C811 C813 1.384 . S
C811 H836 0.931 . S
C812 C811 1.384 . S
C812 C815 1.382 1_565 S
C813 C811 1.384 . S
C813 C814 1.373 . S
C813 H837 0.930 . S
C814 C813 1.373 . S
C814 C816 1.386 1_565 S
C814 C817 1.481 1_565 S
C815 C812 1.382 1_545 S
C815 C816 1.387 . S
C815 H838 0.930 . S
C816 C814 1.386 1_545 S
C816 C815 1.387 . S
C816 H839 0.931 . S
C817 C810 1.399 1_545 S
C817 C814 1.481 1_545 S
C817 N849 1.354 . S
C818 C819 1.384 . S
C818 C820 1.384 . S
C818 H840 0.931 . S
C819 C818 1.384 . S
C819 C822 1.382 1_565 S
C820 C818 1.384 . S
C820 C821 1.381 1_565 S
C820 H841 0.930 . S
C821 C820 1.381 1_545 S
C821 C823 1.381 . S
C821 C824 1.498 . S
C822 C819 1.382 1_545 S
C822 C823 1.387 . S
C822 H842 0.930 . S
C823 C821 1.381 . S
C823 C822 1.387 . S
C823 H843 0.931 . S
C824 C821 1.498 . S
C824 C831 1.399 1_545 S
C824 N849 1.332 . S
C825 C826 1.384 . S
C825 C827 1.384 . S
C825 H844 0.931 . S
C826 C825 1.384 . S
C826 C829 1.382 1_545 S
C827 C825 1.384 . S
C827 C828 1.390 . S
C827 H845 0.930 . S
C828 C827 1.390 . S
C828 C830 1.377 1_545 S
C828 C831 1.481 1_545 S
C829 C826 1.382 1_565 S
C829 C830 1.387 . S
C829 H846 0.930 . S
C830 C828 1.377 1_565 S
C830 C829 1.387 . S
C830 H847 0.931 . S
C831 C824 1.399 1_565 S
C831 C828 1.481 1_565 S
C831 N848 1.316 . S
H832 C804 0.931 . S
H833 C806 0.930 . S
H834 C808 0.930 . S
H835 C809 0.931 . S
H836 C811 0.931 . S
H837 C813 0.930 . S
H838 C815 0.930 . S
H839 C816 0.931 . S
H840 C818 0.931 . S
H841 C820 0.930 . S
H842 C822 0.930 . S
H843 C823 0.931 . S
H844 C825 0.931 . S
H845 C827 0.930 . S
H846 C829 0.930 . S
H847 C830 0.931 . S
N848 C810 1.367 . S
N848 C831 1.316 . S
N849 C817 1.354 . S
N849 C824 1.332 . S
C850 C851 1.384 . S
C850 C852 1.384 . S
C850 H878 0.931 . S
C851 C850 1.384 . S
C851 C854 1.382 1_655 S
C852 C850 1.384 . S
C852 C853 1.393 . S
C852 H879 0.930 . S
C853 C852 1.393 . S
C853 C855 1.375 1_655 S
C853 C856 1.480 1_655 S
C854 C851 1.382 1_455 S
C854 C855 1.387 . S
C854 H880 0.930 . S
C855 C853 1.375 1_455 S
C855 C854 1.387 . S
C855 H881 0.931 . S
C856 C853 1.480 1_455 S
C856 C863 1.399 1_455 S
C856 N894 1.317 . S
C857 C858 1.384 . S
C857 C859 1.384 . S
C857 H882 0.931 . S
C858 C857 1.384 . S
C858 C861 1.382 1_455 S
C859 C857 1.384 . S
C859 C860 1.382 1_455 S
C859 H883 0.930 . S
C860 C859 1.382 1_655 S
C860 C862 1.379 . S
C860 C863 1.499 . S
C861 C858 1.382 1_655 S
C861 C862 1.387 . S
C861 H884 0.930 . S
C862 C860 1.379 . S
C862 C861 1.387 . S
C862 H885 0.931 . S
C863 C856 1.399 1_655 S
C863 C860 1.499 . S
C863 N895 1.366 . S
C864 C865 1.384 . S
C864 C866 1.384 . S
C864 H886 0.931 . S
C865 C864 1.384 . S
C865 C868 1.382 1_455 S
C866 C864 1.384 . S
C866 C867 1.376 . S
C866 H887 0.930 . S
C867 C866 1.376 . S
C867 C869 1.384 1_455 S
C867 C870 1.480 1_455 S
C868 C865 1.382 1_655 S
C868 C869 1.387 . S
C868 H888 0.930 . S
C869 C867 1.384 1_655 S
C869 C868 1.387 . S
C869 H889 0.931 . S
C870 C867 1.480 1_655 S
C870 C877 1.399 1_655 S
C870 N895 1.317 . S
C871 C872 1.384 . S
C871 C873 1.384 . S
C871 H890 0.931 . S
C872 C871 1.384 . S
C872 C875 1.382 1_655 S
C873 C871 1.384 . S
C873 C874 1.382 . S
C873 H891 0.930 . S
C874 C873 1.382 . S
C874 C876 1.379 1_655 S
C874 C877 1.492 1_655 S
C875 C872 1.382 1_455 S
C875 C876 1.387 . S
C875 H892 0.930 . S
C876 C874 1.379 1_455 S
C876 C875 1.387 . S
C876 H893 0.931 . S
C877 C870 1.399 1_455 S
C877 C874 1.492 1_455 S
C877 N894 1.366 . S
H878 C850 0.931 . S
H879 C852 0.930 . S
H880 C854 0.930 . S
H881 C855 0.931 . S
H882 C857 0.931 . S
H883 C859 0.930 . S
H884 C861 0.930 . S
H885 C862 0.931 . S
H886 C864 0.931 . S
H887 C866 0.930 . S
H888 C868 0.930 . S
H889 C869 0.931 . S
H890 C871 0.931 . S
H891 C873 0.930 . S
H892 C875 0.930 . S
H893 C876 0.931 . S
N894 C856 1.317 . S
N894 C877 1.366 . S
N895 C863 1.366 . S
N895 C870 1.317 . S
C896 C897 1.384 . S
C896 C898 1.384 . S
C896 H924 0.931 . S
C897 C896 1.384 . S
C897 C900 1.382 . S
C898 C896 1.384 . S
C898 C899 1.381 . S
C898 H925 0.930 . S
C899 C898 1.381 . S
C899 C901 1.381 . S
C899 C902 1.487 . S
C900 C897 1.382 . S
C900 C901 1.387 . S
C900 H926 0.930 . S
C901 C899 1.381 . S
C901 C900 1.387 . S
C901 H927 0.931 . S
C902 C899 1.487 . S
C902 C909 1.399 . S
C902 N940 1.343 . S
C903 C904 1.384 . S
C903 C905 1.384 . S
C903 H928 0.931 . S
C904 C903 1.384 . S
C904 C907 1.382 . S
C905 C903 1.384 . S
C905 C906 1.381 . S
C905 H929 0.930 . S
C906 C905 1.381 . S
C906 C908 1.381 . S
C906 C909 1.487 . S
C907 C904 1.382 . S
C907 C908 1.387 . S
C907 H930 0.930 . S
C908 C906 1.381 . S
C908 C907 1.387 . S
C908 H931 0.931 . S
C909 C902 1.399 . S
C909 C906 1.487 . S
C909 N941 1.343 . S
C910 C911 1.384 . S
C910 C912 1.384 . S
C910 H932 0.931 . S
C911 C910 1.384 . S
C911 C914 1.382 . S
C912 C910 1.384 . S
C912 C913 1.381 . S
C912 H933 0.930 . S
C913 C912 1.381 . S
C913 C915 1.381 . S
C913 C916 1.487 . S
C914 C911 1.382 . S
C914 C915 1.387 . S
C914 H934 0.930 . S
C915 C913 1.381 . S
C915 C914 1.387 . S
C915 H935 0.931 . S
C916 C913 1.487 . S
C916 C923 1.399 . S
C916 N941 1.343 . S
C917 C918 1.384 . S
C917 C919 1.384 . S
C917 H936 0.931 . S
C918 C917 1.384 . S
C918 C921 1.382 . S
C919 C917 1.384 . S
C919 C920 1.381 . S
C919 H937 0.930 . S
C920 C919 1.381 . S
C920 C922 1.381 . S
C920 C923 1.487 . S
C921 C918 1.382 . S
C921 C922 1.387 . S
C921 H938 0.930 . S
C922 C920 1.381 . S
C922 C921 1.387 . S
C922 H939 0.931 . S
C923 C916 1.399 . S
C923 C920 1.487 . S
C923 N940 1.343 . S
H924 C896 0.931 . S
H925 C898 0.930 . S
H926 C900 0.930 . S
H927 C901 0.931 . S
H928 C903 0.931 . S
H929 C905 0.930 . S
H930 C907 0.930 . S
H931 C908 0.931 . S
H932 C910 0.931 . S
H933 C912 0.930 . S
H934 C914 0.930 . S
H935 C915 0.931 . S
H936 C917 0.931 . S
H937 C919 0.930 . S
H938 C921 0.930 . S
H939 C922 0.931 . S
N940 C902 1.343 . S
N940 C923 1.343 . S
N941 C909 1.343 . S
N941 C916 1.343 . S
C942 C943 1.384 . S
C942 C944 1.384 . S
C942 H970 0.931 . S
C943 C942 1.384 . S
C943 C946 1.382 . S
C944 C942 1.384 . S
C944 C945 1.381 . S
C944 H971 0.930 . S
C945 C944 1.381 . S
C945 C947 1.381 . S
C945 C948 1.487 . S
C946 C943 1.382 . S
C946 C947 1.387 . S
C946 H972 0.930 . S
C947 C945 1.381 . S
C947 C946 1.387 . S
C947 H973 0.931 . S
C948 C945 1.487 . S
C948 C955 1.399 . S
C948 N986 1.343 . S
C949 C950 1.384 . S
C949 C951 1.384 . S
C949 H974 0.931 . S
C950 C949 1.384 . S
C950 C953 1.382 . S
C951 C949 1.384 . S
C951 C952 1.381 . S
C951 H975 0.930 . S
C952 C951 1.381 . S
C952 C954 1.381 . S
C952 C955 1.487 . S
C953 C950 1.382 . S
C953 C954 1.387 . S
C953 H976 0.930 . S
C954 C952 1.381 . S
C954 C953 1.387 . S
C954 H977 0.931 . S
C955 C948 1.399 . S
C955 C952 1.487 . S
C955 N987 1.343 . S
C956 C957 1.384 . S
C956 C958 1.384 . S
C956 H978 0.931 . S
C957 C956 1.384 . S
C957 C960 1.382 . S
C958 C956 1.384 . S
C958 C959 1.381 . S
C958 H979 0.930 . S
C959 C958 1.381 . S
C959 C961 1.381 . S
C959 C962 1.487 . S
C960 C957 1.382 . S
C960 C961 1.387 . S
C960 H980 0.930 . S
C961 C959 1.381 . S
C961 C960 1.387 . S
C961 H981 0.931 . S
C962 C959 1.487 . S
C962 C969 1.399 . S
C962 N987 1.343 . S
C963 C964 1.384 . S
C963 C965 1.384 . S
C963 H982 0.931 . S
C964 C963 1.384 . S
C964 C967 1.382 . S
C965 C963 1.384 . S
C965 C966 1.381 . S
C965 H983 0.930 . S
C966 C965 1.381 . S
C966 C968 1.381 . S
C966 C969 1.487 . S
C967 C964 1.382 . S
C967 C968 1.387 . S
C967 H984 0.930 . S
C968 C966 1.381 . S
C968 C967 1.387 . S
C968 H985 0.931 . S
C969 C962 1.399 . S
C969 C966 1.487 . S
C969 N986 1.343 . S
H970 C942 0.931 . S
H971 C944 0.930 . S
H972 C946 0.930 . S
H973 C947 0.931 . S
H974 C949 0.931 . S
H975 C951 0.930 . S
H976 C953 0.930 . S
H977 C954 0.931 . S
H978 C956 0.931 . S
H979 C958 0.930 . S
H980 C960 0.930 . S
H981 C961 0.931 . S
H982 C963 0.931 . S
H983 C965 0.930 . S
H984 C967 0.930 . S
H985 C968 0.931 . S
N986 C948 1.343 . S
N986 C969 1.343 . S
N987 C955 1.343 . S
N987 C962 1.343 . S
C988 C989 1.384 . S
C988 C990 1.384 . S
C988 H1016 0.931 . S
C989 C988 1.384 . S
C989 C992 1.382 . S
C990 C988 1.384 . S
C990 C991 1.381 . S
C990 H1017 0.930 . S
C991 C990 1.381 . S
C991 C993 1.381 . S
C991 C994 1.487 . S
C992 C989 1.382 . S
C992 C993 1.387 . S
C992 H1018 0.930 . S
C993 C991 1.381 . S
C993 C992 1.387 . S
C993 H1019 0.931 . S
C994 C991 1.487 . S
C994 C1001 1.399 . S
C994 N1032 1.343 . S
C995 C996 1.384 . S
C995 C997 1.384 . S
C995 H1020 0.931 . S
C996 C995 1.384 . S
C996 C999 1.382 . S
C997 C995 1.384 . S
C997 C998 1.381 . S
C997 H1021 0.930 . S
C998 C997 1.381 . S
C998 C1000 1.381 . S
C998 C1001 1.487 . S
C999 C996 1.382 . S
C999 C1000 1.387 . S
C999 H1022 0.930 . S
C1000 C998 1.381 . S
C1000 C999 1.387 . S
C1000 H1023 0.931 . S
C1001 C994 1.399 . S
C1001 C998 1.487 . S
C1001 N1033 1.343 . S
C1002 C1003 1.384 . S
C1002 C1004 1.384 . S
C1002 H1024 0.931 . S
C1003 C1002 1.384 . S
C1003 C1006 1.382 . S
C1004 C1002 1.384 . S
C1004 C1005 1.381 . S
C1004 H1025 0.930 . S
C1005 C1004 1.381 . S
C1005 C1007 1.381 . S
C1005 C1008 1.487 . S
C1006 C1003 1.382 . S
C1006 C1007 1.387 . S
C1006 H1026 0.930 . S
C1007 C1005 1.381 . S
C1007 C1006 1.387 . S
C1007 H1027 0.931 . S
C1008 C1005 1.487 . S
C1008 C1015 1.399 . S
C1008 N1033 1.343 . S
C1009 C1010 1.384 . S
C1009 C1011 1.384 . S
C1009 H1028 0.931 . S
C1010 C1009 1.384 . S
C1010 C1013 1.382 . S
C1011 C1009 1.384 . S
C1011 C1012 1.381 . S
C1011 H1029 0.930 . S
C1012 C1011 1.381 . S
C1012 C1014 1.381 . S
C1012 C1015 1.487 . S
C1013 C1010 1.382 . S
C1013 C1014 1.387 . S
C1013 H1030 0.930 . S
C1014 C1012 1.381 . S
C1014 C1013 1.387 . S
C1014 H1031 0.931 . S
C1015 C1008 1.399 . S
C1015 C1012 1.487 . S
C1015 N1032 1.343 . S
H1016 C988 0.931 . S
H1017 C990 0.930 . S
H1018 C992 0.930 . S
H1019 C993 0.931 . S
H1020 C995 0.931 . S
H1021 C997 0.930 . S
H1022 C999 0.930 . S
H1023 C1000 0.931 . S
H1024 C1002 0.931 . S
H1025 C1004 0.930 . S
H1026 C1006 0.930 . S
H1027 C1007 0.931 . S
H1028 C1009 0.931 . S
H1029 C1011 0.930 . S
H1030 C1013 0.930 . S
H1031 C1014 0.931 . S
N1032 C994 1.343 . S
N1032 C1015 1.343 . S
N1033 C1001 1.343 . S
N1033 C1008 1.343 . S
C1034 C1035 1.384 . S
C1034 C1036 1.384 . S
C1034 H1062 0.931 . S
C1035 C1034 1.384 . S
C1035 C1038 1.382 . S
C1036 C1034 1.384 . S
C1036 C1037 1.381 . S
C1036 H1063 0.930 . S
C1037 C1036 1.381 . S
C1037 C1039 1.381 . S
C1037 C1040 1.487 . S
C1038 C1035 1.382 . S
C1038 C1039 1.387 . S
C1038 H1064 0.930 . S
C1039 C1037 1.381 . S
C1039 C1038 1.387 . S
C1039 H1065 0.931 . S
C1040 C1037 1.487 . S
C1040 C1047 1.399 . S
C1040 N1078 1.343 . S
C1041 C1042 1.384 . S
C1041 C1043 1.384 . S
C1041 H1066 0.931 . S
C1042 C1041 1.384 . S
C1042 C1045 1.382 . S
C1043 C1041 1.384 . S
C1043 C1044 1.381 . S
C1043 H1067 0.930 . S
C1044 C1043 1.381 . S
C1044 C1046 1.381 . S
C1044 C1047 1.487 . S
C1045 C1042 1.382 . S
C1045 C1046 1.387 . S
C1045 H1068 0.930 . S
C1046 C1044 1.381 . S
C1046 C1045 1.387 . S
C1046 H1069 0.931 . S
C1047 C1040 1.399 . S
C1047 C1044 1.487 . S
C1047 N1079 1.343 . S
C1048 C1049 1.384 . S
C1048 C1050 1.384 . S
C1048 H1070 0.931 . S
C1049 C1048 1.384 . S
C1049 C1052 1.382 . S
C1050 C1048 1.384 . S
C1050 C1051 1.381 . S
C1050 H1071 0.930 . S
C1051 C1050 1.381 . S
C1051 C1053 1.381 . S
C1051 C1054 1.487 . S
C1052 C1049 1.382 . S
C1052 C1053 1.387 . S
C1052 H1072 0.930 . S
C1053 C1051 1.381 . S
C1053 C1052 1.387 . S
C1053 H1073 0.931 . S
C1054 C1051 1.487 . S
C1054 C1061 1.399 . S
C1054 N1079 1.343 . S
C1055 C1056 1.384 . S
C1055 C1057 1.384 . S
C1055 H1074 0.931 . S
C1056 C1055 1.384 . S
C1056 C1059 1.382 . S
C1057 C1055 1.384 . S
C1057 C1058 1.381 . S
C1057 H1075 0.930 . S
C1058 C1057 1.381 . S
C1058 C1060 1.381 . S
C1058 C1061 1.487 . S
C1059 C1056 1.382 . S
C1059 C1060 1.387 . S
C1059 H1076 0.930 . S
C1060 C1058 1.381 . S
C1060 C1059 1.387 . S
C1060 H1077 0.931 . S
C1061 C1054 1.399 . S
C1061 C1058 1.487 . S
C1061 N1078 1.343 . S
H1062 C1034 0.931 . S
H1063 C1036 0.930 . S
H1064 C1038 0.930 . S
H1065 C1039 0.931 . S
H1066 C1041 0.931 . S
H1067 C1043 0.930 . S
H1068 C1045 0.930 . S
H1069 C1046 0.931 . S
H1070 C1048 0.931 . S
H1071 C1050 0.930 . S
H1072 C1052 0.930 . S
H1073 C1053 0.931 . S
H1074 C1055 0.931 . S
H1075 C1057 0.930 . S
H1076 C1059 0.930 . S
H1077 C1060 0.931 . S
N1078 C1040 1.343 . S
N1078 C1061 1.343 . S
N1079 C1047 1.343 . S
N1079 C1054 1.343 . S
H1080 C1088 0.950 . S
H1081 C1093 0.950 . S
H1082 C1090 0.950 . S
H1083 C1092 0.950 . S
H1084 C1094 0.950 . S
H1085 C1096 0.950 . S
H1086 C1098 0.950 . S
H1087 C1099 0.950 . S
C1088 H1080 0.950 . S
C1088 C1089 1.425 . S
C1088 C1090 1.391 . S
C1089 C1088 1.425 . S
C1089 C1093 1.372 1_655 S
C1090 H1082 0.950 . S
C1090 C1088 1.391 . S
C1090 C1091 1.400 . S
C1091 C1090 1.400 . S
C1091 C1092 1.398 1_655 S
C1091 C1097 1.491 . S
C1092 H1083 0.950 . S
C1092 C1091 1.398 1_455 S
C1092 C1093 1.391 . S
C1093 H1081 0.950 . S
C1093 C1089 1.372 1_455 S
C1093 C1092 1.391 . S
C1094 H1084 0.950 . S
C1094 C1095 1.386 1_455 S
C1094 C1096 1.391 . S
C1095 C1094 1.386 1_655 S
C1095 C1099 1.393 . S
C1096 H1085 0.950 . S
C1096 C1094 1.391 . S
C1096 C1097 1.400 1_455 S
C1097 C1091 1.491 . S
C1097 C1096 1.400 1_655 S
C1097 C1098 1.398 . S
C1098 H1086 0.950 . S
C1098 C1097 1.398 . S
C1098 C1099 1.391 . S
C1099 H1087 0.950 . S
C1099 C1095 1.393 . S
C1099 C1098 1.391 . S
H1100 C1108 0.950 . S
H1101 C1113 0.950 . S
H1102 C1110 0.950 . S
H1103 C1112 0.950 . S
H1104 C1114 0.950 . S
H1105 C1116 0.950 . S
H1106 C1118 0.950 . S
H1107 C1119 0.950 . S
C1108 H1100 0.950 . S
C1108 C1109 1.386 . S
C1108 C1110 1.391 . S
C1109 C1108 1.386 . S
C1109 C1113 1.393 . S
C1110 H1102 0.950 . S
C1110 C1108 1.391 . S
C1110 C1111 1.400 . S
C1111 C1110 1.400 . S
C1111 C1112 1.398 . S
C1111 C1117 1.491 . S
C1112 H1103 0.950 . S
C1112 C1111 1.398 . S
C1112 C1113 1.391 . S
C1113 H1101 0.950 . S
C1113 C1109 1.393 . S
C1113 C1112 1.391 . S
C1114 H1104 0.950 . S
C1114 C1115 1.386 . S
C1114 C1116 1.391 . S
C1115 C1114 1.386 . S
C1115 C1119 1.393 . S
C1116 H1105 0.950 . S
C1116 C1114 1.391 . S
C1116 C1117 1.400 . S
C1117 C1111 1.491 . S
C1117 C1116 1.400 . S
C1117 C1118 1.398 . S
C1118 H1106 0.950 . S
C1118 C1117 1.398 . S
C1118 C1119 1.391 . S
C1119 H1107 0.950 . S
C1119 C1115 1.393 . S
C1119 C1118 1.391 . S
H1120 C1128 0.950 . S
H1121 C1133 0.940 1_565 S
H1122 C1130 0.950 . S
H1123 C1132 0.937 1_565 S
H1124 C1134 0.989 . S
H1125 C1136 0.957 . S
H1126 C1138 0.950 . S
H1127 C1139 0.950 . S
C1128 H1120 0.950 . S
C1128 C1129 1.386 . S
C1128 C1130 1.391 . S
C1129 C1128 1.386 . S
C1129 C1133 1.415 . S
C1130 H1122 0.950 . S
C1130 C1128 1.391 . S
C1130 C1131 1.400 . S
C1131 C1130 1.400 . S
C1131 C1132 1.403 . S
C1131 C1137 1.491 . S
C1132 H1123 0.937 1_545 S
C1132 C1131 1.403 . S
C1132 C1133 1.384 . S
C1133 H1121 0.940 1_545 S
C1133 C1129 1.415 . S
C1133 C1132 1.384 . S
C1134 H1124 0.989 . S
C1134 C1135 1.386 . S
C1134 C1136 1.391 . S
C1135 C1134 1.386 . S
C1135 C1139 1.393 . S
C1136 H1125 0.957 . S
C1136 C1134 1.391 . S
C1136 C1137 1.400 . S
C1137 C1131 1.491 . S
C1137 C1136 1.400 . S
C1137 C1138 1.398 . S
C1138 H1126 0.950 . S
C1138 C1137 1.398 . S
C1138 C1139 1.391 . S
C1139 H1127 0.950 . S
C1139 C1135 1.393 . S
C1139 C1138 1.391 . S
H1140 C1148 0.950 . S
H1141 C1153 0.964 . S
H1142 C1150 0.950 . S
H1143 C1152 0.945 1_545 S
H1144 C1154 0.957 . S
H1145 C1156 0.978 . S
H1146 C1158 0.950 . S
H1147 C1159 0.950 . S
C1148 H1140 0.950 . S
C1148 C1149 1.386 . S
C1148 C1150 1.391 . S
C1149 C1148 1.386 . S
C1149 C1153 1.389 1_565 S
C1150 H1142 0.950 . S
C1150 C1148 1.391 . S
C1150 C1151 1.400 . S
C1151 C1150 1.400 . S
C1151 C1152 1.397 . S
C1151 C1157 1.491 . S
C1152 H1143 0.945 1_565 S
C1152 C1151 1.397 . S
C1152 C1153 1.381 1_565 S
C1153 H1141 0.964 . S
C1153 C1149 1.389 1_545 S
C1153 C1152 1.381 1_545 S
C1154 H1144 0.957 . S
C1154 C1155 1.364 1_545 S
C1154 C1156 1.388 . S
C1155 C1154 1.364 1_565 S
C1155 C1159 1.393 . S
C1156 H1145 0.978 . S
C1156 C1154 1.388 . S
C1156 C1157 1.393 1_545 S
C1157 C1151 1.491 . S
C1157 C1156 1.393 1_565 S
C1157 C1158 1.398 . S
C1158 H1146 0.950 . S
C1158 C1157 1.398 . S
C1158 C1159 1.391 . S
C1159 H1147 0.950 . S
C1159 C1155 1.393 . S
C1159 C1158 1.391 . S
H1160 C1168 0.950 . S
H1161 C1173 0.950 . S
H1162 C1170 0.950 . S
H1163 C1172 0.950 . S
H1164 C1174 0.950 . S
H1165 C1176 0.950 . S
H1166 C1178 0.950 . S
H1167 C1179 0.950 . S
C1168 H1160 0.950 . S
C1168 C1169 1.386 . S
C1168 C1170 1.391 . S
C1169 C1168 1.386 . S
C1169 C1173 1.393 1_455 S
C1170 H1162 0.950 . S
C1170 C1168 1.391 . S
C1170 C1171 1.400 . S
C1171 C1170 1.400 . S
C1171 C1172 1.398 1_455 S
C1171 C1177 1.491 . S
C1172 H1163 0.950 . S
C1172 C1171 1.398 1_655 S
C1172 C1173 1.391 . S
C1173 H1161 0.950 . S
C1173 C1169 1.393 1_655 S
C1173 C1172 1.391 . S
C1174 H1164 0.950 . S
C1174 C1175 1.386 1_655 S
C1174 C1176 1.391 . S
C1175 C1174 1.386 1_455 S
C1175 C1179 1.393 . S
C1176 H1165 0.950 . S
C1176 C1174 1.391 . S
C1176 C1177 1.400 1_655 S
C1177 C1171 1.491 . S
C1177 C1176 1.400 1_455 S
C1177 C1178 1.398 . S
C1178 H1166 0.950 . S
C1178 C1177 1.398 . S
C1178 C1179 1.391 . S
C1179 H1167 0.950 . S
C1179 C1175 1.393 . S
C1179 C1178 1.391 . S
H1180 C1188 0.950 . S
H1181 C1193 0.950 . S
H1182 C1190 0.950 . S
H1183 C1192 0.950 . S
H1184 C1194 0.950 . S
H1185 C1196 0.950 . S
H1186 C1198 0.950 . S
H1187 C1199 0.950 . S
C1188 H1180 0.950 . S
C1188 C1189 1.386 . S
C1188 C1190 1.391 . S
C1189 C1188 1.386 . S
C1189 C1193 1.393 . S
C1190 H1182 0.950 . S
C1190 C1188 1.391 . S
C1190 C1191 1.400 . S
C1191 C1190 1.400 . S
C1191 C1192 1.398 . S
C1191 C1197 1.491 . S
C1192 H1183 0.950 . S
C1192 C1191 1.398 . S
C1192 C1193 1.391 . S
C1193 H1181 0.950 . S
C1193 C1189 1.393 . S
C1193 C1192 1.391 . S
C1194 H1184 0.950 . S
C1194 C1195 1.386 . S
C1194 C1196 1.391 . S
C1195 C1194 1.386 . S
C1195 C1199 1.393 . S
C1196 H1185 0.950 . S
C1196 C1194 1.391 . S
C1196 C1197 1.400 . S
C1197 C1191 1.491 . S
C1197 C1196 1.400 . S
C1197 C1198 1.398 . S
C1198 H1186 0.950 . S
C1198 C1197 1.398 . S
C1198 C1199 1.391 . S
C1199 H1187 0.950 . S
C1199 C1195 1.393 . S
C1199 C1198 1.391 . S
H1200 C1208 0.950 . S
H1201 C1213 0.950 . S
H1202 C1210 0.950 . S
H1203 C1212 0.950 . S
H1204 C1214 0.950 . S
H1205 C1216 0.950 . S
H1206 C1218 0.950 . S
H1207 C1219 0.950 . S
C1208 H1200 0.950 . S
C1208 C1209 1.386 1_655 S
C1208 C1210 1.391 . S
C1209 C1208 1.386 1_455 S
C1209 C1213 1.393 . S
C1210 H1202 0.950 . S
C1210 C1208 1.391 . S
C1210 C1211 1.400 1_655 S
C1211 C1210 1.400 1_455 S
C1211 C1212 1.398 . S
C1211 C1217 1.491 . S
C1212 H1203 0.950 . S
C1212 C1211 1.398 . S
C1212 C1213 1.391 . S
C1213 H1201 0.950 . S
C1213 C1209 1.393 . S
C1213 C1212 1.391 . S
C1214 H1204 0.950 . S
C1214 C1215 1.386 . S
C1214 C1216 1.391 . S
C1215 C1214 1.386 . S
C1215 C1219 1.393 1_455 S
C1216 H1205 0.950 . S
C1216 C1214 1.391 . S
C1216 C1217 1.400 . S
C1217 C1211 1.491 . S
C1217 C1216 1.400 . S
C1217 C1218 1.398 1_455 S
C1218 H1206 0.950 . S
C1218 C1217 1.398 1_655 S
C1218 C1219 1.391 . S
C1219 H1207 0.950 . S
C1219 C1215 1.393 1_655 S
C1219 C1218 1.391 . S
H1220 C1228 0.950 . S
H1221 C1233 0.950 . S
H1222 C1230 0.950 . S
H1223 C1232 0.950 . S
H1224 C1234 0.950 . S
H1225 C1236 0.950 . S
H1226 C1238 0.950 . S
H1227 C1239 0.950 . S
C1228 H1220 0.950 . S
C1228 C1229 1.386 . S
C1228 C1230 1.391 . S
C1229 C1228 1.386 . S
C1229 C1233 1.393 . S
C1230 H1222 0.950 . S
C1230 C1228 1.391 . S
C1230 C1231 1.400 . S
C1231 C1230 1.400 . S
C1231 C1232 1.398 . S
C1231 C1237 1.491 . S
C1232 H1223 0.950 . S
C1232 C1231 1.398 . S
C1232 C1233 1.391 . S
C1233 H1221 0.950 . S
C1233 C1229 1.393 . S
C1233 C1232 1.391 . S
C1234 H1224 0.950 . S
C1234 C1235 1.386 . S
C1234 C1236 1.391 . S
C1235 C1234 1.386 . S
C1235 C1239 1.393 . S
C1236 H1225 0.950 . S
C1236 C1234 1.391 . S
C1236 C1237 1.400 . S
C1237 C1231 1.491 . S
C1237 C1236 1.400 . S
C1237 C1238 1.398 . S
C1238 H1226 0.950 . S
C1238 C1237 1.398 . S
C1238 C1239 1.391 . S
C1239 H1227 0.950 . S
C1239 C1235 1.393 . S
C1239 C1238 1.391 . S
H1240 C1248 0.950 . S
H1241 C1253 0.950 . S
H1242 C1250 0.950 . S
H1243 C1252 0.950 . S
H1244 C1254 0.950 . S
H1245 C1256 0.950 . S
H1246 C1258 0.950 . S
H1247 C1259 0.950 . S
C1248 H1240 0.950 . S
C1248 C1249 1.386 1_545 S
C1248 C1250 1.391 . S
C1249 C1248 1.386 1_565 S
C1249 C1253 1.393 . S
C1250 H1242 0.950 . S
C1250 C1248 1.391 . S
C1250 C1251 1.400 1_545 S
C1251 C1250 1.400 1_565 S
C1251 C1252 1.398 . S
C1251 C1257 1.491 . S
C1252 H1243 0.950 . S
C1252 C1251 1.398 . S
C1252 C1253 1.391 . S
C1253 H1241 0.950 . S
C1253 C1249 1.393 . S
C1253 C1252 1.391 . S
C1254 H1244 0.950 . S
C1254 C1255 1.386 . S
C1254 C1256 1.391 . S
C1255 C1254 1.386 . S
C1255 C1259 1.393 1_565 S
C1256 H1245 0.950 . S
C1256 C1254 1.391 . S
C1256 C1257 1.400 . S
C1257 C1251 1.491 . S
C1257 C1256 1.400 . S
C1257 C1258 1.398 1_565 S
C1258 H1246 0.950 . S
C1258 C1257 1.398 1_545 S
C1258 C1259 1.391 . S
C1259 H1247 0.950 . S
C1259 C1255 1.393 1_545 S
C1259 C1258 1.391 . S
H1260 C1268 0.950 . S
H1261 C1273 0.950 . S
H1262 C1270 0.950 . S
H1263 C1272 0.950 . S
H1264 C1274 0.950 . S
H1265 C1276 0.950 . S
H1266 C1278 0.950 . S
H1267 C1279 0.950 . S
C1268 H1260 0.950 . S
C1268 C1269 1.386 1_565 S
C1268 C1270 1.391 . S
C1269 C1268 1.386 1_545 S
C1269 C1273 1.393 . S
C1270 H1262 0.950 . S
C1270 C1268 1.391 . S
C1270 C1271 1.400 1_565 S
C1271 C1270 1.400 1_545 S
C1271 C1272 1.398 . S
C1271 C1277 1.491 . S
C1272 H1263 0.950 . S
C1272 C1271 1.398 . S
C1272 C1273 1.391 . S
C1273 H1261 0.950 . S
C1273 C1269 1.393 . S
C1273 C1272 1.391 . S
C1274 H1264 0.950 . S
C1274 C1275 1.386 . S
C1274 C1276 1.391 . S
C1275 C1274 1.386 . S
C1275 C1279 1.393 1_545 S
C1276 H1265 0.950 . S
C1276 C1274 1.391 . S
C1276 C1277 1.400 . S
C1277 C1271 1.491 . S
C1277 C1276 1.400 . S
C1277 C1278 1.398 1_545 S
C1278 H1266 0.950 . S
C1278 C1277 1.398 1_565 S
C1278 C1279 1.391 . S
C1279 H1267 0.950 . S
C1279 C1275 1.393 1_565 S
C1279 C1278 1.391 . S
H1280 C1288 0.950 . S
H1281 C1293 0.950 . S
H1282 C1290 0.950 . S
H1283 C1292 0.950 . S
H1284 C1294 0.950 . S
H1285 C1296 0.950 . S
H1286 C1298 0.950 . S
H1287 C1299 0.950 . S
C1288 H1280 0.950 . S
C1288 C1289 1.386 . S
C1288 C1290 1.391 . S
C1289 C1288 1.386 . S
C1289 C1293 1.393 1_655 S
C1290 H1282 0.950 . S
C1290 C1288 1.391 . S
C1290 C1291 1.400 . S
C1291 C1290 1.400 . S
C1291 C1292 1.398 1_655 S
C1291 C1297 1.491 . S
C1292 H1283 0.950 . S
C1292 C1291 1.398 1_455 S
C1292 C1293 1.391 . S
C1293 H1281 0.950 . S
C1293 C1289 1.393 1_455 S
C1293 C1292 1.391 . S
C1294 H1284 0.950 . S
C1294 C1295 1.386 1_455 S
C1294 C1296 1.391 . S
C1295 C1294 1.386 1_655 S
C1295 C1299 1.393 . S
C1296 H1285 0.950 . S
C1296 C1294 1.391 . S
C1296 C1297 1.400 1_455 S
C1297 C1291 1.491 . S
C1297 C1296 1.400 1_655 S
C1297 C1298 1.398 . S
C1298 H1286 0.950 . S
C1298 C1297 1.398 . S
C1298 C1299 1.391 . S
C1299 H1287 0.950 . S
C1299 C1295 1.393 . S
C1299 C1298 1.391 . S
H1300 C1308 0.950 . S
H1301 C1313 0.950 . S
H1302 C1310 0.950 . S
H1303 C1312 0.950 . S
H1304 C1314 0.950 . S
H1305 C1316 0.950 . S
H1306 C1318 0.950 . S
H1307 C1319 0.950 . S
C1308 H1300 0.950 . S
C1308 C1309 1.386 . S
C1308 C1310 1.391 . S
C1309 C1308 1.386 . S
C1309 C1313 1.393 . S
C1310 H1302 0.950 . S
C1310 C1308 1.391 . S
C1310 C1311 1.400 . S
C1311 C1310 1.400 . S
C1311 C1312 1.398 . S
C1311 C1317 1.491 . S
C1312 H1303 0.950 . S
C1312 C1311 1.398 . S
C1312 C1313 1.391 . S
C1313 H1301 0.950 . S
C1313 C1309 1.393 . S
C1313 C1312 1.391 . S
C1314 H1304 0.950 . S
C1314 C1315 1.386 . S
C1314 C1316 1.391 . S
C1315 C1314 1.386 . S
C1315 C1319 1.393 . S
C1316 H1305 0.950 . S
C1316 C1314 1.391 . S
C1316 C1317 1.400 . S
C1317 C1311 1.491 . S
C1317 C1316 1.400 . S
C1317 C1318 1.398 . S
C1318 H1306 0.950 . S
C1318 C1317 1.398 . S
C1318 C1319 1.391 . S
C1319 H1307 0.950 . S
C1319 C1315 1.393 . S
C1319 C1318 1.391 . S
H1320 C1328 0.950 . S
H1321 C1333 0.950 . S
H1322 C1330 0.950 . S
H1323 C1332 0.950 . S
H1324 C1334 0.950 . S
H1325 C1336 0.950 . S
H1326 C1338 0.950 . S
H1327 C1339 0.950 . S
C1328 H1320 0.950 . S
C1328 C1329 1.386 . S
C1328 C1330 1.391 . S
C1329 C1328 1.386 . S
C1329 C1333 1.393 . S
C1330 H1322 0.950 . S
C1330 C1328 1.391 . S
C1330 C1331 1.400 . S
C1331 C1330 1.400 . S
C1331 C1332 1.398 . S
C1331 C1337 1.491 . S
C1332 H1323 0.950 . S
C1332 C1331 1.398 . S
C1332 C1333 1.391 . S
C1333 H1321 0.950 . S
C1333 C1329 1.393 . S
C1333 C1332 1.391 . S
C1334 H1324 0.950 . S
C1334 C1335 1.386 . S
C1334 C1336 1.391 . S
C1335 C1334 1.386 . S
C1335 C1339 1.393 . S
C1336 H1325 0.950 . S
C1336 C1334 1.391 . S
C1336 C1337 1.400 . S
C1337 C1331 1.491 . S
C1337 C1336 1.400 . S
C1337 C1338 1.398 . S
C1338 H1326 0.950 . S
C1338 C1337 1.398 . S
C1338 C1339 1.391 . S
C1339 H1327 0.950 . S
C1339 C1335 1.393 . S
C1339 C1338 1.391 . S
H1340 C1348 0.950 . S
H1341 C1353 0.950 . S
H1342 C1350 0.950 . S
H1343 C1352 0.950 . S
H1344 C1354 0.950 . S
H1345 C1356 0.950 . S
H1346 C1358 0.950 . S
H1347 C1359 0.950 . S
C1348 H1340 0.950 . S
C1348 C1349 1.386 . S
C1348 C1350 1.391 . S
C1349 C1348 1.386 . S
C1349 C1353 1.393 . S
C1350 H1342 0.950 . S
C1350 C1348 1.391 . S
C1350 C1351 1.400 . S
C1351 C1350 1.400 . S
C1351 C1352 1.398 . S
C1351 C1357 1.491 . S
C1352 H1343 0.950 . S
C1352 C1351 1.398 . S
C1352 C1353 1.391 . S
C1353 H1341 0.950 . S
C1353 C1349 1.393 . S
C1353 C1352 1.391 . S
C1354 H1344 0.950 . S
C1354 C1355 1.386 . S
C1354 C1356 1.391 . S
C1355 C1354 1.386 . S
C1355 C1359 1.393 . S
C1356 H1345 0.950 . S
C1356 C1354 1.391 . S
C1356 C1357 1.400 . S
C1357 C1351 1.491 . S
C1357 C1356 1.400 . S
C1357 C1358 1.398 . S
C1358 H1346 0.950 . S
C1358 C1357 1.398 . S
C1358 C1359 1.391 . S
C1359 H1347 0.950 . S
C1359 C1355 1.393 . S
C1359 C1358 1.391 . S
H1360 C1368 0.950 . S
H1361 C1373 0.950 . S
H1362 C1370 0.950 . S
H1363 C1372 0.950 . S
H1364 C1374 0.950 . S
H1365 C1376 0.950 . S
H1366 C1378 0.950 . S
H1367 C1379 0.950 . S
C1368 H1360 0.950 . S
C1368 C1369 1.386 . S
C1368 C1370 1.391 . S
C1369 C1368 1.386 . S
C1369 C1373 1.393 . S
C1370 H1362 0.950 . S
C1370 C1368 1.391 . S
C1370 C1371 1.400 . S
C1371 C1370 1.400 . S
C1371 C1372 1.398 . S
C1371 C1377 1.491 . S
C1372 H1363 0.950 . S
C1372 C1371 1.398 . S
C1372 C1373 1.391 . S
C1373 H1361 0.950 . S
C1373 C1369 1.393 . S
C1373 C1372 1.391 . S
C1374 H1364 0.950 . S
C1374 C1375 1.386 . S
C1374 C1376 1.391 . S
C1375 C1374 1.386 . S
C1375 C1379 1.393 . S
C1376 H1365 0.950 . S
C1376 C1374 1.391 . S
C1376 C1377 1.400 . S
C1377 C1371 1.491 . S
C1377 C1376 1.400 . S
C1377 C1378 1.398 . S
C1378 H1366 0.950 . S
C1378 C1377 1.398 . S
C1378 C1379 1.391 . S
C1379 H1367 0.950 . S
C1379 C1375 1.393 . S
C1379 C1378 1.391 . S
H1380 C1388 0.950 . S
H1381 C1393 0.950 . S
H1382 C1390 0.950 . S
H1383 C1392 0.950 . S
H1384 C1394 0.950 . S
H1385 C1396 0.950 . S
H1386 C1398 0.950 . S
H1387 C1399 0.950 . S
C1388 H1380 0.950 . S
C1388 C1389 1.386 . S
C1388 C1390 1.391 . S
C1389 C1388 1.386 . S
C1389 C1393 1.393 . S
C1390 H1382 0.950 . S
C1390 C1388 1.391 . S
C1390 C1391 1.400 . S
C1391 C1390 1.400 . S
C1391 C1392 1.398 . S
C1391 C1397 1.491 . S
C1392 H1383 0.950 . S
C1392 C1391 1.398 . S
C1392 C1393 1.391 . S
C1393 H1381 0.950 . S
C1393 C1389 1.393 . S
C1393 C1392 1.391 . S
C1394 H1384 0.950 . S
C1394 C1395 1.386 . S
C1394 C1396 1.391 . S
C1395 C1394 1.386 . S
C1395 C1399 1.393 . S
C1396 H1385 0.950 . S
C1396 C1394 1.391 . S
C1396 C1397 1.400 . S
C1397 C1391 1.491 . S
C1397 C1396 1.400 . S
C1397 C1398 1.398 . S
C1398 H1386 0.950 . S
C1398 C1397 1.398 . S
C1398 C1399 1.391 . S
C1399 H1387 0.950 . S
C1399 C1395 1.393 . S
C1399 C1398 1.391 . S
H1400 C1408 0.950 . S
H1401 C1413 0.950 . S
H1402 C1410 0.950 . S
H1403 C1412 0.950 . S
H1404 C1414 0.950 . S
H1405 C1416 0.950 . S
H1406 C1418 0.950 . S
H1407 C1419 0.950 . S
C1408 H1400 0.950 . S
C1408 C1409 1.386 . S
C1408 C1410 1.391 . S
C1409 C1408 1.386 . S
C1409 C1413 1.393 . S
C1410 H1402 0.950 . S
C1410 C1408 1.391 . S
C1410 C1411 1.400 . S
C1411 C1410 1.400 . S
C1411 C1412 1.398 . S
C1411 C1417 1.491 . S
C1412 H1403 0.950 . S
C1412 C1411 1.398 . S
C1412 C1413 1.391 . S
C1413 H1401 0.950 . S
C1413 C1409 1.393 . S
C1413 C1412 1.391 . S
C1414 H1404 0.950 . S
C1414 C1415 1.386 . S
C1414 C1416 1.391 . S
C1415 C1414 1.386 . S
C1415 C1419 1.393 . S
C1416 H1405 0.950 . S
C1416 C1414 1.391 . S
C1416 C1417 1.400 . S
C1417 C1411 1.491 . S
C1417 C1416 1.400 . S
C1417 C1418 1.398 . S
C1418 H1406 0.950 . S
C1418 C1417 1.398 . S
C1418 C1419 1.391 . S
C1419 H1407 0.950 . S
C1419 C1415 1.393 . S
C1419 C1418 1.391 . S
H1420 C1428 0.950 . S
H1421 C1433 0.950 . S
H1422 C1430 0.950 . S
H1423 C1432 0.950 . S
H1424 C1434 0.950 . S
H1425 C1436 0.950 . S
H1426 C1438 0.950 . S
H1427 C1439 0.950 . S
C1428 H1420 0.950 . S
C1428 C1429 1.386 . S
C1428 C1430 1.391 . S
C1429 C1428 1.386 . S
C1429 C1433 1.393 . S
C1430 H1422 0.950 . S
C1430 C1428 1.391 . S
C1430 C1431 1.400 . S
C1431 C1430 1.400 . S
C1431 C1432 1.398 . S
C1431 C1437 1.491 . S
C1432 H1423 0.950 . S
C1432 C1431 1.398 . S
C1432 C1433 1.391 . S
C1433 H1421 0.950 . S
C1433 C1429 1.393 . S
C1433 C1432 1.391 . S
C1434 H1424 0.950 . S
C1434 C1435 1.386 . S
C1434 C1436 1.391 . S
C1435 C1434 1.386 . S
C1435 C1439 1.393 . S
C1436 H1425 0.950 . S
C1436 C1434 1.391 . S
C1436 C1437 1.400 . S
C1437 C1431 1.491 . S
C1437 C1436 1.400 . S
C1437 C1438 1.398 . S
C1438 H1426 0.950 . S
C1438 C1437 1.398 . S
C1438 C1439 1.391 . S
C1439 H1427 0.950 . S
C1439 C1435 1.393 . S
C1439 C1438 1.391 . S
H1440 C1448 0.950 . S
H1441 C1453 0.950 . S
H1442 C1450 0.950 . S
H1443 C1452 0.950 . S
H1444 C1454 0.950 . S
H1445 C1456 0.950 . S
H1446 C1458 0.950 . S
H1447 C1459 0.950 . S
C1448 H1440 0.950 . S
C1448 C1449 1.386 . S
C1448 C1450 1.391 . S
C1449 C1448 1.386 . S
C1449 C1453 1.393 . S
C1450 H1442 0.950 . S
C1450 C1448 1.391 . S
C1450 C1451 1.400 . S
C1451 C1450 1.400 . S
C1451 C1452 1.398 . S
C1451 C1457 1.491 . S
C1452 H1443 0.950 . S
C1452 C1451 1.398 . S
C1452 C1453 1.391 . S
C1453 H1441 0.950 . S
C1453 C1449 1.393 . S
C1453 C1452 1.391 . S
C1454 H1444 0.950 . S
C1454 C1455 1.386 . S
C1454 C1456 1.391 . S
C1455 C1454 1.386 . S
C1455 C1459 1.393 . S
C1456 H1445 0.950 . S
C1456 C1454 1.391 . S
C1456 C1457 1.400 . S
C1457 C1451 1.491 . S
C1457 C1456 1.400 . S
C1457 C1458 1.398 . S
C1458 H1446 0.950 . S
C1458 C1457 1.398 . S
C1458 C1459 1.391 . S
C1459 H1447 0.950 . S
C1459 C1455 1.393 . S
C1459 C1458 1.391 . S
H1460 C1468 0.950 . S
H1461 C1473 0.950 . S
H1462 C1470 0.950 . S
H1463 C1472 0.950 . S
H1464 C1474 0.950 . S
H1465 C1476 0.950 . S
H1466 C1478 0.950 . S
H1467 C1479 0.950 . S
C1468 H1460 0.950 . S
C1468 C1469 1.386 . S
C1468 C1470 1.391 . S
C1469 C1468 1.386 . S
C1469 C1473 1.393 . S
C1470 H1462 0.950 . S
C1470 C1468 1.391 . S
C1470 C1471 1.400 . S
C1471 C1470 1.400 . S
C1471 C1472 1.398 . S
C1471 C1477 1.491 . S
C1472 H1463 0.950 . S
C1472 C1471 1.398 . S
C1472 C1473 1.391 . S
C1473 H1461 0.950 . S
C1473 C1469 1.393 . S
C1473 C1472 1.391 . S
C1474 H1464 0.950 . S
C1474 C1475 1.386 . S
C1474 C1476 1.391 . S
C1475 C1474 1.386 . S
C1475 C1479 1.393 . S
C1476 H1465 0.950 . S
C1476 C1474 1.391 . S
C1476 C1477 1.400 . S
C1477 C1471 1.491 . S
C1477 C1476 1.400 . S
C1477 C1478 1.398 . S
C1478 H1466 0.950 . S
C1478 C1477 1.398 . S
C1478 C1479 1.391 . S
C1479 H1467 0.950 . S
C1479 C1475 1.393 . S
C1479 C1478 1.391 . S
H1480 C1488 0.950 . S
H1481 C1493 0.950 . S
H1482 C1490 0.950 . S
H1483 C1492 0.950 . S
H1484 C1494 0.950 . S
H1485 C1496 0.950 . S
H1486 C1498 0.950 . S
H1487 C1499 0.950 . S
C1488 H1480 0.950 . S
C1488 C1489 1.386 . S
C1488 C1490 1.391 . S
C1489 C1488 1.386 . S
C1489 C1493 1.393 . S
C1490 H1482 0.950 . S
C1490 C1488 1.391 . S
C1490 C1491 1.400 . S
C1491 C1490 1.400 . S
C1491 C1492 1.398 . S
C1491 C1497 1.491 . S
C1492 H1483 0.950 . S
C1492 C1491 1.398 . S
C1492 C1493 1.391 . S
C1493 H1481 0.950 . S
C1493 C1489 1.393 . S
C1493 C1492 1.391 . S
C1494 H1484 0.950 . S
C1494 C1495 1.386 . S
C1494 C1496 1.391 . S
C1495 C1494 1.386 . S
C1495 C1499 1.393 . S
C1496 H1485 0.950 . S
C1496 C1494 1.391 . S
C1496 C1497 1.400 . S
C1497 C1491 1.491 . S
C1497 C1496 1.400 . S
C1497 C1498 1.398 . S
C1498 H1486 0.950 . S
C1498 C1497 1.398 . S
C1498 C1499 1.391 . S
C1499 H1487 0.950 . S
C1499 C1495 1.393 . S
C1499 C1498 1.391 . S
H1500 C1508 0.950 . S
H1501 C1513 0.950 . S
H1502 C1510 0.950 . S
H1503 C1512 0.950 . S
H1504 C1514 0.950 . S
H1505 C1516 0.950 . S
H1506 C1518 0.950 . S
H1507 C1519 0.950 . S
C1508 H1500 0.950 . S
C1508 C1509 1.386 . S
C1508 C1510 1.391 . S
C1509 C1508 1.386 . S
C1509 C1513 1.393 . S
C1510 H1502 0.950 . S
C1510 C1508 1.391 . S
C1510 C1511 1.400 . S
C1511 C1510 1.400 . S
C1511 C1512 1.398 . S
C1511 C1517 1.491 . S
C1512 H1503 0.950 . S
C1512 C1511 1.398 . S
C1512 C1513 1.391 . S
C1513 H1501 0.950 . S
C1513 C1509 1.393 . S
C1513 C1512 1.391 . S
C1514 H1504 0.950 . S
C1514 C1515 1.386 . S
C1514 C1516 1.391 . S
C1515 C1514 1.386 . S
C1515 C1519 1.393 . S
C1516 H1505 0.950 . S
C1516 C1514 1.391 . S
C1516 C1517 1.400 . S
C1517 C1511 1.491 . S
C1517 C1516 1.400 . S
C1517 C1518 1.398 . S
C1518 H1506 0.950 . S
C1518 C1517 1.398 . S
C1518 C1519 1.391 . S
C1519 H1507 0.950 . S
C1519 C1515 1.393 . S
C1519 C1518 1.391 . S
H1520 C1528 0.950 . S
H1521 C1533 0.950 . S
H1522 C1530 0.950 . S
H1523 C1532 0.950 . S
H1524 C1534 0.950 . S
H1525 C1536 0.950 . S
H1526 C1538 0.950 . S
H1527 C1539 0.950 . S
C1528 H1520 0.950 . S
C1528 C1529 1.386 . S
C1528 C1530 1.391 . S
C1529 C1528 1.386 . S
C1529 C1533 1.393 . S
C1530 H1522 0.950 . S
C1530 C1528 1.391 . S
C1530 C1531 1.400 . S
C1531 C1530 1.400 . S
C1531 C1532 1.398 . S
C1531 C1537 1.491 . S
C1532 H1523 0.950 . S
C1532 C1531 1.398 . S
C1532 C1533 1.391 . S
C1533 H1521 0.950 . S
C1533 C1529 1.393 . S
C1533 C1532 1.391 . S
C1534 H1524 0.950 . S
C1534 C1535 1.386 . S
C1534 C1536 1.391 . S
C1535 C1534 1.386 . S
C1535 C1539 1.393 . S
C1536 H1525 0.950 . S
C1536 C1534 1.391 . S
C1536 C1537 1.400 . S
C1537 C1531 1.491 . S
C1537 C1536 1.400 . S
C1537 C1538 1.398 . S
C1538 H1526 0.950 . S
C1538 C1537 1.398 . S
C1538 C1539 1.391 . S
C1539 H1527 0.950 . S
C1539 C1535 1.393 . S
C1539 C1538 1.391 . S
H1540 C1548 0.950 . S
H1541 C1553 0.950 . S
H1542 C1550 0.950 . S
H1543 C1552 0.950 . S
H1544 C1554 0.950 . S
H1545 C1556 0.950 . S
H1546 C1558 0.950 . S
H1547 C1559 0.950 . S
C1548 H1540 0.950 . S
C1548 C1549 1.386 . S
C1548 C1550 1.391 . S
C1549 C1548 1.386 . S
C1549 C1553 1.393 . S
C1550 H1542 0.950 . S
C1550 C1548 1.391 . S
C1550 C1551 1.400 . S
C1551 C1550 1.400 . S
C1551 C1552 1.398 . S
C1551 C1557 1.491 . S
C1552 H1543 0.950 . S
C1552 C1551 1.398 . S
C1552 C1553 1.391 . S
C1553 H1541 0.950 . S
C1553 C1549 1.393 . S
C1553 C1552 1.391 . S
C1554 H1544 0.950 . S
C1554 C1555 1.386 . S
C1554 C1556 1.391 . S
C1555 C1554 1.386 . S
C1555 C1559 1.393 . S
C1556 H1545 0.950 . S
C1556 C1554 1.391 . S
C1556 C1557 1.400 . S
C1557 C1551 1.491 . S
C1557 C1556 1.400 . S
C1557 C1558 1.398 . S
C1558 H1546 0.950 . S
C1558 C1557 1.398 . S
C1558 C1559 1.391 . S
C1559 H1547 0.950 . S
C1559 C1555 1.393 . S
C1559 C1558 1.391 . S
H1560 C1568 0.950 . S
H1561 C1573 0.950 . S
H1562 C1570 0.950 . S
H1563 C1572 0.950 . S
H1564 C1574 0.950 . S
H1565 C1576 0.950 . S
H1566 C1578 0.950 . S
H1567 C1579 0.950 . S
C1568 H1560 0.950 . S
C1568 C1569 1.386 . S
C1568 C1570 1.391 . S
C1569 C1568 1.386 . S
C1569 C1573 1.393 . S
C1570 H1562 0.950 . S
C1570 C1568 1.391 . S
C1570 C1571 1.400 . S
C1571 C1570 1.400 . S
C1571 C1572 1.398 . S
C1571 C1577 1.491 . S
C1572 H1563 0.950 . S
C1572 C1571 1.398 . S
C1572 C1573 1.391 . S
C1573 H1561 0.950 . S
C1573 C1569 1.393 . S
C1573 C1572 1.391 . S
C1574 H1564 0.950 . S
C1574 C1575 1.386 . S
C1574 C1576 1.391 . S
C1575 C1574 1.386 . S
C1575 C1579 1.393 . S
C1576 H1565 0.950 . S
C1576 C1574 1.391 . S
C1576 C1577 1.400 . S
C1577 C1571 1.491 . S
C1577 C1576 1.400 . S
C1577 C1578 1.398 . S
C1578 H1566 0.950 . S
C1578 C1577 1.398 . S
C1578 C1579 1.391 . S
C1579 H1567 0.950 . S
C1579 C1575 1.393 . S
C1579 C1578 1.391 . S
H1580 C1588 0.950 . S
H1581 C1593 0.950 . S
H1582 C1590 0.950 . S
H1583 C1592 0.950 . S
H1584 C1594 0.950 . S
H1585 C1596 0.950 . S
H1586 C1598 0.950 . S
H1587 C1599 0.950 . S
C1588 H1580 0.950 . S
C1588 C1589 1.386 . S
C1588 C1590 1.391 . S
C1589 C1588 1.386 . S
C1589 C1593 1.393 . S
C1590 H1582 0.950 . S
C1590 C1588 1.391 . S
C1590 C1591 1.400 . S
C1591 C1590 1.400 . S
C1591 C1592 1.398 . S
C1591 C1597 1.491 . S
C1592 H1583 0.950 . S
C1592 C1591 1.398 . S
C1592 C1593 1.391 . S
C1593 H1581 0.950 . S
C1593 C1589 1.393 . S
C1593 C1592 1.391 . S
C1594 H1584 0.950 . S
C1594 C1595 1.386 . S
C1594 C1596 1.391 . S
C1595 C1594 1.386 . S
C1595 C1599 1.393 . S
C1596 H1585 0.950 . S
C1596 C1594 1.391 . S
C1596 C1597 1.400 . S
C1597 C1591 1.491 . S
C1597 C1596 1.400 . S
C1597 C1598 1.398 . S
C1598 H1586 0.950 . S
C1598 C1597 1.398 . S
C1598 C1599 1.391 . S
C1599 H1587 0.950 . S
C1599 C1595 1.393 . S
C1599 C1598 1.391 . S
H1600 C1608 0.950 . S
H1601 C1613 0.950 . S
H1602 C1610 0.950 . S
H1603 C1612 0.950 . S
H1604 C1614 0.950 . S
H1605 C1616 0.950 . S
H1606 C1618 0.950 . S
H1607 C1619 0.950 . S
C1608 H1600 0.950 . S
C1608 C1609 1.386 . S
C1608 C1610 1.391 . S
C1609 C1608 1.386 . S
C1609 C1613 1.393 . S
C1610 H1602 0.950 . S
C1610 C1608 1.391 . S
C1610 C1611 1.400 . S
C1611 C1610 1.400 . S
C1611 C1612 1.398 . S
C1611 C1617 1.491 . S
C1612 H1603 0.950 . S
C1612 C1611 1.398 . S
C1612 C1613 1.391 . S
C1613 H1601 0.950 . S
C1613 C1609 1.393 . S
C1613 C1612 1.391 . S
C1614 H1604 0.950 . S
C1614 C1615 1.386 . S
C1614 C1616 1.391 . S
C1615 C1614 1.386 . S
C1615 C1619 1.393 . S
C1616 H1605 0.950 . S
C1616 C1614 1.391 . S
C1616 C1617 1.400 . S
C1617 C1611 1.491 . S
C1617 C1616 1.400 . S
C1617 C1618 1.398 . S
C1618 H1606 0.950 . S
C1618 C1617 1.398 . S
C1618 C1619 1.391 . S
C1619 H1607 0.950 . S
C1619 C1615 1.393 . S
C1619 C1618 1.391 . S
H1620 C1628 0.950 . S
H1621 C1633 0.950 . S
H1622 C1630 0.950 . S
H1623 C1632 0.950 . S
H1624 C1634 0.950 . S
H1625 C1636 0.950 . S
H1626 C1638 0.950 . S
H1627 C1639 0.950 . S
C1628 H1620 0.950 . S
C1628 C1629 1.386 . S
C1628 C1630 1.391 . S
C1629 C1628 1.386 . S
C1629 C1633 1.393 . S
C1630 H1622 0.950 . S
C1630 C1628 1.391 . S
C1630 C1631 1.400 . S
C1631 C1630 1.400 . S
C1631 C1632 1.398 . S
C1631 C1637 1.491 . S
C1632 H1623 0.950 . S
C1632 C1631 1.398 . S
C1632 C1633 1.391 . S
C1633 H1621 0.950 . S
C1633 C1629 1.393 . S
C1633 C1632 1.391 . S
C1634 H1624 0.950 . S
C1634 C1635 1.386 . S
C1634 C1636 1.391 . S
C1635 C1634 1.386 . S
C1635 C1639 1.393 . S
C1636 H1625 0.950 . S
C1636 C1634 1.391 . S
C1636 C1637 1.400 . S
C1637 C1631 1.491 . S
C1637 C1636 1.400 . S
C1637 C1638 1.398 . S
C1638 H1626 0.950 . S
C1638 C1637 1.398 . S
C1638 C1639 1.391 . S
C1639 H1627 0.950 . S
C1639 C1635 1.393 . S
C1639 C1638 1.391 . S
H1640 C1648 0.950 . S
H1641 C1653 0.950 . S
H1642 C1650 0.950 . S
H1643 C1652 0.950 . S
H1644 C1654 0.950 . S
H1645 C1656 0.950 . S
H1646 C1658 0.950 . S
H1647 C1659 0.950 . S
C1648 H1640 0.950 . S
C1648 C1649 1.386 . S
C1648 C1650 1.391 . S
C1649 C1648 1.386 . S
C1649 C1653 1.393 . S
C1650 H1642 0.950 . S
C1650 C1648 1.391 . S
C1650 C1651 1.400 . S
C1651 C1650 1.400 . S
C1651 C1652 1.398 . S
C1651 C1657 1.491 . S
C1652 H1643 0.950 . S
C1652 C1651 1.398 . S
C1652 C1653 1.391 . S
C1653 H1641 0.950 . S
C1653 C1649 1.393 . S
C1653 C1652 1.391 . S
C1654 H1644 0.950 . S
C1654 C1655 1.386 . S
C1654 C1656 1.391 . S
C1655 C1654 1.386 . S
C1655 C1659 1.393 . S
C1656 H1645 0.950 . S
C1656 C1654 1.391 . S
C1656 C1657 1.400 . S
C1657 C1651 1.491 . S
C1657 C1656 1.400 . S
C1657 C1658 1.398 . S
C1658 H1646 0.950 . S
C1658 C1657 1.398 . S
C1658 C1659 1.391 . S
C1659 H1647 0.950 . S
C1659 C1655 1.393 . S
C1659 C1658 1.391 . S
H1660 C1668 0.950 . S
H1661 C1673 0.950 . S
H1662 C1670 0.950 . S
H1663 C1672 0.950 . S
H1664 C1674 0.950 . S
H1665 C1676 0.950 . S
H1666 C1678 0.950 . S
H1667 C1679 0.950 . S
C1668 H1660 0.950 . S
C1668 C1669 1.386 . S
C1668 C1670 1.391 . S
C1669 C1668 1.386 . S
C1669 C1673 1.393 . S
C1670 H1662 0.950 . S
C1670 C1668 1.391 . S
C1670 C1671 1.400 . S
C1671 C1670 1.400 . S
C1671 C1672 1.398 . S
C1671 C1677 1.491 . S
C1672 H1663 0.950 . S
C1672 C1671 1.398 . S
C1672 C1673 1.391 . S
C1673 H1661 0.950 . S
C1673 C1669 1.393 . S
C1673 C1672 1.391 . S
C1674 H1664 0.950 . S
C1674 C1675 1.386 . S
C1674 C1676 1.391 . S
C1675 C1674 1.386 . S
C1675 C1679 1.393 . S
C1676 H1665 0.950 . S
C1676 C1674 1.391 . S
C1676 C1677 1.400 . S
C1677 C1671 1.491 . S
C1677 C1676 1.400 . S
C1677 C1678 1.398 . S
C1678 H1666 0.950 . S
C1678 C1677 1.398 . S
C1678 C1679 1.391 . S
C1679 H1667 0.950 . S
C1679 C1675 1.393 . S
C1679 C1678 1.391 . S
H1680 C1688 0.950 . S
H1681 C1693 0.950 . S
H1682 C1690 0.950 . S
H1683 C1692 0.950 . S
H1684 C1694 0.950 . S
H1685 C1696 0.950 . S
H1686 C1698 0.950 . S
H1687 C1699 0.950 . S
C1688 H1680 0.950 . S
C1688 C1689 1.386 . S
C1688 C1690 1.391 . S
C1689 C1688 1.386 . S
C1689 C1693 1.393 . S
C1690 H1682 0.950 . S
C1690 C1688 1.391 . S
C1690 C1691 1.400 . S
C1691 C1690 1.400 . S
C1691 C1692 1.398 . S
C1691 C1697 1.491 . S
C1692 H1683 0.950 . S
C1692 C1691 1.398 . S
C1692 C1693 1.391 . S
C1693 H1681 0.950 . S
C1693 C1689 1.393 . S
C1693 C1692 1.391 . S
C1694 H1684 0.950 . S
C1694 C1695 1.386 . S
C1694 C1696 1.391 . S
C1695 C1694 1.386 . S
C1695 C1699 1.393 . S
C1696 H1685 0.950 . S
C1696 C1694 1.391 . S
C1696 C1697 1.400 . S
C1697 C1691 1.491 . S
C1697 C1696 1.400 . S
C1697 C1698 1.398 . S
C1698 H1686 0.950 . S
C1698 C1697 1.398 . S
C1698 C1699 1.391 . S
C1699 H1687 0.950 . S
C1699 C1695 1.393 . S
C1699 C1698 1.391 . S
H1700 C1708 0.950 . S
H1701 C1713 0.950 . S
H1702 C1710 0.950 . S
H1703 C1712 0.950 . S
H1704 C1714 0.950 . S
H1705 C1716 0.950 . S
H1706 C1718 0.950 . S
H1707 C1719 0.950 . S
C1708 H1700 0.950 . S
C1708 C1709 1.386 . S
C1708 C1710 1.391 . S
C1709 C1708 1.386 . S
C1709 C1713 1.393 . S
C1710 H1702 0.950 . S
C1710 C1708 1.391 . S
C1710 C1711 1.400 . S
C1711 C1710 1.400 . S
C1711 C1712 1.398 . S
C1711 C1717 1.491 . S
C1712 H1703 0.950 . S
C1712 C1711 1.398 . S
C1712 C1713 1.391 . S
C1713 H1701 0.950 . S
C1713 C1709 1.393 . S
C1713 C1712 1.391 . S
C1714 H1704 0.950 . S
C1714 C1715 1.386 . S
C1714 C1716 1.391 . S
C1715 C1714 1.386 . S
C1715 C1719 1.393 . S
C1716 H1705 0.950 . S
C1716 C1714 1.391 . S
C1716 C1717 1.400 . S
C1717 C1711 1.491 . S
C1717 C1716 1.400 . S
C1717 C1718 1.398 . S
C1718 H1706 0.950 . S
C1718 C1717 1.398 . S
C1718 C1719 1.391 . S
C1719 H1707 0.950 . S
C1719 C1715 1.393 . S
C1719 C1718 1.391 . S
H1720 C1728 0.950 . S
H1721 C1733 0.950 . S
H1722 C1730 0.950 . S
H1723 C1732 0.950 . S
H1724 C1734 0.950 . S
H1725 C1736 0.950 . S
H1726 C1738 0.950 . S
H1727 C1739 0.950 . S
C1728 H1720 0.950 . S
C1728 C1729 1.386 . S
C1728 C1730 1.391 . S
C1729 C1728 1.386 . S
C1729 C1733 1.393 . S
C1730 H1722 0.950 . S
C1730 C1728 1.391 . S
C1730 C1731 1.400 . S
C1731 C1730 1.400 . S
C1731 C1732 1.398 . S
C1731 C1737 1.491 . S
C1732 H1723 0.950 . S
C1732 C1731 1.398 . S
C1732 C1733 1.391 . S
C1733 H1721 0.950 . S
C1733 C1729 1.393 . S
C1733 C1732 1.391 . S
C1734 H1724 0.950 . S
C1734 C1735 1.386 . S
C1734 C1736 1.391 . S
C1735 C1734 1.386 . S
C1735 C1739 1.393 . S
C1736 H1725 0.950 . S
C1736 C1734 1.391 . S
C1736 C1737 1.400 . S
C1737 C1731 1.491 . S
C1737 C1736 1.400 . S
C1737 C1738 1.398 . S
C1738 H1726 0.950 . S
C1738 C1737 1.398 . S
C1738 C1739 1.391 . S
C1739 H1727 0.950 . S
C1739 C1735 1.393 . S
C1739 C1738 1.391 . S
H1740 C1748 0.950 . S
H1741 C1753 0.950 . S
H1742 C1750 0.950 . S
H1743 C1752 0.950 . S
H1744 C1754 0.950 . S
H1745 C1756 0.950 . S
H1746 C1758 0.950 . S
H1747 C1759 0.950 . S
C1748 H1740 0.950 . S
C1748 C1749 1.386 . S
C1748 C1750 1.391 . S
C1749 C1748 1.386 . S
C1749 C1753 1.393 . S
C1750 H1742 0.950 . S
C1750 C1748 1.391 . S
C1750 C1751 1.400 . S
C1751 C1750 1.400 . S
C1751 C1752 1.398 . S
C1751 C1757 1.491 . S
C1752 H1743 0.950 . S
C1752 C1751 1.398 . S
C1752 C1753 1.391 . S
C1753 H1741 0.950 . S
C1753 C1749 1.393 . S
C1753 C1752 1.391 . S
C1754 H1744 0.950 . S
C1754 C1755 1.386 . S
C1754 C1756 1.391 . S
C1755 C1754 1.386 . S
C1755 C1759 1.393 . S
C1756 H1745 0.950 . S
C1756 C1754 1.391 . S
C1756 C1757 1.400 . S
C1757 C1751 1.491 . S
C1757 C1756 1.400 . S
C1757 C1758 1.398 . S
C1758 H1746 0.950 . S
C1758 C1757 1.398 . S
C1758 C1759 1.391 . S
C1759 H1747 0.950 . S
C1759 C1755 1.393 . S
C1759 C1758 1.391 . S
H1760 C1768 0.950 . S
H1761 C1773 0.950 . S
H1762 C1770 0.950 . S
H1763 C1772 0.950 . S
H1764 C1774 0.950 . S
H1765 C1776 0.950 . S
H1766 C1778 0.950 . S
H1767 C1779 0.950 . S
C1768 H1760 0.950 . S
C1768 C1769 1.386 . S
C1768 C1770 1.391 . S
C1769 C1768 1.386 . S
C1769 C1773 1.393 . S
C1770 H1762 0.950 . S
C1770 C1768 1.391 . S
C1770 C1771 1.400 . S
C1771 C1770 1.400 . S
C1771 C1772 1.398 . S
C1771 C1777 1.491 . S
C1772 H1763 0.950 . S
C1772 C1771 1.398 . S
C1772 C1773 1.391 . S
C1773 H1761 0.950 . S
C1773 C1769 1.393 . S
C1773 C1772 1.391 . S
C1774 H1764 0.950 . S
C1774 C1775 1.386 . S
C1774 C1776 1.391 . S
C1775 C1774 1.386 . S
C1775 C1779 1.393 . S
C1776 H1765 0.950 . S
C1776 C1774 1.391 . S
C1776 C1777 1.400 . S
C1777 C1771 1.491 . S
C1777 C1776 1.400 . S
C1777 C1778 1.398 . S
C1778 H1766 0.950 . S
C1778 C1777 1.398 . S
C1778 C1779 1.391 . S
C1779 H1767 0.950 . S
C1779 C1775 1.393 . S
C1779 C1778 1.391 . S
H1780 C1788 0.950 . S
H1781 C1793 0.950 . S
H1782 C1790 0.950 . S
H1783 C1792 0.950 . S
H1784 C1794 0.950 . S
H1785 C1796 0.950 . S
H1786 C1798 0.950 . S
H1787 C1799 0.950 . S
C1788 H1780 0.950 . S
C1788 C1789 1.386 . S
C1788 C1790 1.391 . S
C1789 C1788 1.386 . S
C1789 C1793 1.393 . S
C1790 H1782 0.950 . S
C1790 C1788 1.391 . S
C1790 C1791 1.400 . S
C1791 C1790 1.400 . S
C1791 C1792 1.398 . S
C1791 C1797 1.491 . S
C1792 H1783 0.950 . S
C1792 C1791 1.398 . S
C1792 C1793 1.391 . S
C1793 H1781 0.950 . S
C1793 C1789 1.393 . S
C1793 C1792 1.391 . S
C1794 H1784 0.950 . S
C1794 C1795 1.386 . S
C1794 C1796 1.391 . S
C1795 C1794 1.386 . S
C1795 C1799 1.393 . S
C1796 H1785 0.950 . S
C1796 C1794 1.391 . S
C1796 C1797 1.400 . S
C1797 C1791 1.491 . S
C1797 C1796 1.400 . S
C1797 C1798 1.398 . S
C1798 H1786 0.950 . S
C1798 C1797 1.398 . S
C1798 C1799 1.391 . S
C1799 H1787 0.950 . S
C1799 C1795 1.393 . S
C1799 C1798 1.391 . S
H1800 C1808 0.950 . S
H1801 C1813 0.950 . S
H1802 C1810 0.950 . S
H1803 C1812 0.950 . S
H1804 C1814 0.950 . S
H1805 C1816 0.950 . S
H1806 C1818 0.950 . S
H1807 C1819 0.950 . S
C1808 H1800 0.950 . S
C1808 C1809 1.386 . S
C1808 C1810 1.391 . S
C1809 C1808 1.386 . S
C1809 C1813 1.393 . S
C1810 H1802 0.950 . S
C1810 C1808 1.391 . S
C1810 C1811 1.400 . S
C1811 C1810 1.400 . S
C1811 C1812 1.398 . S
C1811 C1817 1.491 . S
C1812 H1803 0.950 . S
C1812 C1811 1.398 . S
C1812 C1813 1.391 . S
C1813 H1801 0.950 . S
C1813 C1809 1.393 . S
C1813 C1812 1.391 . S
C1814 H1804 0.950 . S
C1814 C1815 1.386 . S
C1814 C1816 1.391 . S
C1815 C1814 1.386 . S
C1815 C1819 1.393 . S
C1816 H1805 0.950 . S
C1816 C1814 1.391 . S
C1816 C1817 1.400 . S
C1817 C1811 1.491 . S
C1817 C1816 1.400 . S
C1817 C1818 1.398 . S
C1818 H1806 0.950 . S
C1818 C1817 1.398 . S
C1818 C1819 1.391 . S
C1819 H1807 0.950 . S
C1819 C1815 1.393 . S
C1819 C1818 1.391 . S
H1820 C1828 0.950 . S
H1821 C1833 0.950 . S
H1822 C1830 0.950 . S
H1823 C1832 0.950 . S
H1824 C1834 0.950 . S
H1825 C1836 0.950 . S
H1826 C1838 0.950 . S
H1827 C1839 0.950 . S
C1828 H1820 0.950 . S
C1828 C1829 1.386 . S
C1828 C1830 1.391 . S
C1829 C1828 1.386 . S
C1829 C1833 1.393 . S
C1830 H1822 0.950 . S
C1830 C1828 1.391 . S
C1830 C1831 1.400 . S
C1831 C1830 1.400 . S
C1831 C1832 1.398 . S
C1831 C1837 1.491 . S
C1832 H1823 0.950 . S
C1832 C1831 1.398 . S
C1832 C1833 1.391 . S
C1833 H1821 0.950 . S
C1833 C1829 1.393 . S
C1833 C1832 1.391 . S
C1834 H1824 0.950 . S
C1834 C1835 1.386 . S
C1834 C1836 1.391 . S
C1835 C1834 1.386 . S
C1835 C1839 1.393 . S
C1836 H1825 0.950 . S
C1836 C1834 1.391 . S
C1836 C1837 1.400 . S
C1837 C1831 1.491 . S
C1837 C1836 1.400 . S
C1837 C1838 1.398 . S
C1838 H1826 0.950 . S
C1838 C1837 1.398 . S
C1838 C1839 1.391 . S
C1839 H1827 0.950 . S
C1839 C1835 1.393 . S
C1839 C1838 1.391 . S
H1840 C1848 0.950 . S
H1841 C1853 0.950 . S
H1842 C1850 0.950 . S
H1843 C1852 0.950 . S
H1844 C1854 0.950 . S
H1845 C1856 0.950 . S
H1846 C1858 0.950 . S
H1847 C1859 0.950 . S
C1848 H1840 0.950 . S
C1848 C1849 1.386 . S
C1848 C1850 1.391 . S
C1849 C1848 1.386 . S
C1849 C1853 1.393 . S
C1850 H1842 0.950 . S
C1850 C1848 1.391 . S
C1850 C1851 1.400 . S
C1851 C1850 1.400 . S
C1851 C1852 1.398 . S
C1851 C1857 1.491 . S
C1852 H1843 0.950 . S
C1852 C1851 1.398 . S
C1852 C1853 1.391 . S
C1853 H1841 0.950 . S
C1853 C1849 1.393 . S
C1853 C1852 1.391 . S
C1854 H1844 0.950 . S
C1854 C1855 1.386 . S
C1854 C1856 1.391 . S
C1855 C1854 1.386 . S
C1855 C1859 1.393 . S
C1856 H1845 0.950 . S
C1856 C1854 1.391 . S
C1856 C1857 1.400 . S
C1857 C1851 1.491 . S
C1857 C1856 1.400 . S
C1857 C1858 1.398 . S
C1858 H1846 0.950 . S
C1858 C1857 1.398 . S
C1858 C1859 1.391 . S
C1859 H1847 0.950 . S
C1859 C1855 1.393 . S
C1859 C1858 1.391 . S
H1860 C1868 0.950 . S
H1861 C1873 0.950 . S
H1862 C1870 0.950 . S
H1863 C1872 0.950 . S
H1864 C1874 0.950 . S
H1865 C1876 0.950 . S
H1866 C1878 0.950 . S
H1867 C1879 0.950 . S
C1868 H1860 0.950 . S
C1868 C1869 1.386 . S
C1868 C1870 1.391 . S
C1869 C1868 1.386 . S
C1869 C1873 1.393 . S
C1870 H1862 0.950 . S
C1870 C1868 1.391 . S
C1870 C1871 1.400 . S
C1871 C1870 1.400 . S
C1871 C1872 1.398 . S
C1871 C1877 1.491 . S
C1872 H1863 0.950 . S
C1872 C1871 1.398 . S
C1872 C1873 1.391 . S
C1873 H1861 0.950 . S
C1873 C1869 1.393 . S
C1873 C1872 1.391 . S
C1874 H1864 0.950 . S
C1874 C1875 1.386 . S
C1874 C1876 1.391 . S
C1875 C1874 1.386 . S
C1875 C1879 1.393 . S
C1876 H1865 0.950 . S
C1876 C1874 1.391 . S
C1876 C1877 1.400 . S
C1877 C1871 1.491 . S
C1877 C1876 1.400 . S
C1877 C1878 1.398 . S
C1878 H1866 0.950 . S
C1878 C1877 1.398 . S
C1878 C1879 1.391 . S
C1879 H1867 0.950 . S
C1879 C1875 1.393 . S
C1879 C1878 1.391 . S
H1880 C1888 0.950 . S
H1881 C1893 0.950 . S
H1882 C1890 0.950 . S
H1883 C1892 0.950 . S
H1884 C1894 0.950 . S
H1885 C1896 0.950 . S
H1886 C1898 0.950 . S
H1887 C1899 0.950 . S
C1888 H1880 0.950 . S
C1888 C1889 1.386 . S
C1888 C1890 1.391 . S
C1889 C1888 1.386 . S
C1889 C1893 1.393 . S
C1890 H1882 0.950 . S
C1890 C1888 1.391 . S
C1890 C1891 1.400 . S
C1891 C1890 1.400 . S
C1891 C1892 1.398 . S
C1891 C1897 1.491 . S
C1892 H1883 0.950 . S
C1892 C1891 1.398 . S
C1892 C1893 1.391 . S
C1893 H1881 0.950 . S
C1893 C1889 1.393 . S
C1893 C1892 1.391 . S
C1894 H1884 0.950 . S
C1894 C1895 1.386 . S
C1894 C1896 1.391 . S
C1895 C1894 1.386 . S
C1895 C1899 1.393 . S
C1896 H1885 0.950 . S
C1896 C1894 1.391 . S
C1896 C1897 1.400 . S
C1897 C1891 1.491 . S
C1897 C1896 1.400 . S
C1897 C1898 1.398 . S
C1898 H1886 0.950 . S
C1898 C1897 1.398 . S
C1898 C1899 1.391 . S
C1899 H1887 0.950 . S
C1899 C1895 1.393 . S
C1899 C1898 1.391 . S
H1900 C1908 0.950 . S
H1901 C1913 0.950 . S
H1902 C1910 0.950 . S
H1903 C1912 0.950 . S
H1904 C1914 0.950 . S
H1905 C1916 0.950 . S
H1906 C1918 0.950 . S
H1907 C1919 0.950 . S
C1908 H1900 0.950 . S
C1908 C1909 1.386 . S
C1908 C1910 1.391 . S
C1909 C1908 1.386 . S
C1909 C1913 1.393 . S
C1910 H1902 0.950 . S
C1910 C1908 1.391 . S
C1910 C1911 1.400 . S
C1911 C1910 1.400 . S
C1911 C1912 1.398 . S
C1911 C1917 1.491 . S
C1912 H1903 0.950 . S
C1912 C1911 1.398 . S
C1912 C1913 1.391 . S
C1913 H1901 0.950 . S
C1913 C1909 1.393 . S
C1913 C1912 1.391 . S
C1914 H1904 0.950 . S
C1914 C1915 1.386 . S
C1914 C1916 1.391 . S
C1915 C1914 1.386 . S
C1915 C1919 1.393 . S
C1916 H1905 0.950 . S
C1916 C1914 1.391 . S
C1916 C1917 1.400 . S
C1917 C1911 1.491 . S
C1917 C1916 1.400 . S
C1917 C1918 1.398 . S
C1918 H1906 0.950 . S
C1918 C1917 1.398 . S
C1918 C1919 1.391 . S
C1919 H1907 0.950 . S
C1919 C1915 1.393 . S
C1919 C1918 1.391 . S
H1920 C1928 0.950 . S
H1921 C1933 0.950 . S
H1922 C1930 0.950 . S
H1923 C1932 0.950 . S
H1924 C1934 0.950 . S
H1925 C1936 0.950 . S
H1926 C1938 0.950 . S
H1927 C1939 0.950 . S
C1928 H1920 0.950 . S
C1928 C1929 1.386 . S
C1928 C1930 1.391 . S
C1929 C1928 1.386 . S
C1929 C1933 1.393 . S
C1930 H1922 0.950 . S
C1930 C1928 1.391 . S
C1930 C1931 1.400 . S
C1931 C1930 1.400 . S
C1931 C1932 1.398 . S
C1931 C1937 1.491 . S
C1932 H1923 0.950 . S
C1932 C1931 1.398 . S
C1932 C1933 1.391 . S
C1933 H1921 0.950 . S
C1933 C1929 1.393 . S
C1933 C1932 1.391 . S
C1934 H1924 0.950 . S
C1934 C1935 1.386 . S
C1934 C1936 1.391 . S
C1935 C1934 1.386 . S
C1935 C1939 1.393 . S
C1936 H1925 0.950 . S
C1936 C1934 1.391 . S
C1936 C1937 1.400 . S
C1937 C1931 1.491 . S
C1937 C1936 1.400 . S
C1937 C1938 1.398 . S
C1938 H1926 0.950 . S
C1938 C1937 1.398 . S
C1938 C1939 1.391 . S
C1939 H1927 0.950 . S
C1939 C1935 1.393 . S
C1939 C1938 1.391 . S
H1940 C1948 0.950 . S
H1941 C1953 0.950 . S
H1942 C1950 0.950 . S
H1943 C1952 0.950 . S
H1944 C1954 0.950 . S
H1945 C1956 0.950 . S
H1946 C1958 0.950 . S
H1947 C1959 0.950 . S
C1948 H1940 0.950 . S
C1948 C1949 1.386 . S
C1948 C1950 1.391 . S
C1949 C1948 1.386 . S
C1949 C1953 1.393 . S
C1950 H1942 0.950 . S
C1950 C1948 1.391 . S
C1950 C1951 1.400 . S
C1951 C1950 1.400 . S
C1951 C1952 1.398 . S
C1951 C1957 1.491 . S
C1952 H1943 0.950 . S
C1952 C1951 1.398 . S
C1952 C1953 1.391 . S
C1953 H1941 0.950 . S
C1953 C1949 1.393 . S
C1953 C1952 1.391 . S
C1954 H1944 0.950 . S
C1954 C1955 1.386 . S
C1954 C1956 1.391 . S
C1955 C1954 1.386 . S
C1955 C1959 1.393 . S
C1956 H1945 0.950 . S
C1956 C1954 1.391 . S
C1956 C1957 1.400 . S
C1957 C1951 1.491 . S
C1957 C1956 1.400 . S
C1957 C1958 1.398 . S
C1958 H1946 0.950 . S
C1958 C1957 1.398 . S
C1958 C1959 1.391 . S
C1959 H1947 0.950 . S
C1959 C1955 1.393 . S
C1959 C1958 1.391 . S
H1960 C1968 0.950 . S
H1961 C1973 0.950 . S
H1962 C1970 0.950 . S
H1963 C1972 0.950 . S
H1964 C1974 0.950 . S
H1965 C1976 0.950 . S
H1966 C1978 0.950 . S
H1967 C1979 0.950 . S
C1968 H1960 0.950 . S
C1968 C1969 1.386 . S
C1968 C1970 1.391 . S
C1969 C1968 1.386 . S
C1969 C1973 1.393 . S
C1970 H1962 0.950 . S
C1970 C1968 1.391 . S
C1970 C1971 1.400 . S
C1971 C1970 1.400 . S
C1971 C1972 1.398 . S
C1971 C1977 1.491 . S
C1972 H1963 0.950 . S
C1972 C1971 1.398 . S
C1972 C1973 1.391 . S
C1973 H1961 0.950 . S
C1973 C1969 1.393 . S
C1973 C1972 1.391 . S
C1974 H1964 0.950 . S
C1974 C1975 1.386 . S
C1974 C1976 1.391 . S
C1975 C1974 1.386 . S
C1975 C1979 1.393 . S
C1976 H1965 0.950 . S
C1976 C1974 1.391 . S
C1976 C1977 1.400 . S
C1977 C1971 1.491 . S
C1977 C1976 1.400 . S
C1977 C1978 1.398 . S
C1978 H1966 0.950 . S
C1978 C1977 1.398 . S
C1978 C1979 1.391 . S
C1979 H1967 0.950 . S
C1979 C1975 1.393 . S
C1979 C1978 1.391 . S
H1980 C1988 0.950 . S
H1981 C1993 0.950 . S
H1982 C1990 0.950 . S
H1983 C1992 0.950 . S
H1984 C1994 0.950 . S
H1985 C1996 0.950 . S
H1986 C1998 0.950 . S
H1987 C1999 0.950 . S
C1988 H1980 0.950 . S
C1988 C1989 1.386 . S
C1988 C1990 1.391 . S
C1989 C1988 1.386 . S
C1989 C1993 1.393 . S
C1990 H1982 0.950 . S
C1990 C1988 1.391 . S
C1990 C1991 1.400 . S
C1991 C1990 1.400 . S
C1991 C1992 1.398 . S
C1991 C1997 1.491 . S
C1992 H1983 0.950 . S
C1992 C1991 1.398 . S
C1992 C1993 1.391 . S
C1993 H1981 0.950 . S
C1993 C1989 1.393 . S
C1993 C1992 1.391 . S
C1994 H1984 0.950 . S
C1994 C1995 1.386 . S
C1994 C1996 1.391 . S
C1995 C1994 1.386 . S
C1995 C1999 1.393 . S
C1996 H1985 0.950 . S
C1996 C1994 1.391 . S
C1996 C1997 1.400 . S
C1997 C1991 1.491 . S
C1997 C1996 1.400 . S
C1997 C1998 1.398 . S
C1998 H1986 0.950 . S
C1998 C1997 1.398 . S
C1998 C1999 1.391 . S
C1999 H1987 0.950 . S
C1999 C1995 1.393 . S
C1999 C1998 1.391 . S
H2000 C2008 0.950 . S
H2001 C2013 0.950 . S
H2002 C2010 0.950 . S
H2003 C2012 0.950 . S
H2004 C2014 0.950 . S
H2005 C2016 0.950 . S
H2006 C2018 0.950 . S
H2007 C2019 0.950 . S
C2008 H2000 0.950 . S
C2008 C2009 1.386 . S
C2008 C2010 1.391 . S
C2009 C2008 1.386 . S
C2009 C2013 1.393 . S
C2010 H2002 0.950 . S
C2010 C2008 1.391 . S
C2010 C2011 1.400 . S
C2011 C2010 1.400 . S
C2011 C2012 1.398 . S
C2011 C2017 1.491 . S
C2012 H2003 0.950 . S
C2012 C2011 1.398 . S
C2012 C2013 1.391 . S
C2013 H2001 0.950 . S
C2013 C2009 1.393 . S
C2013 C2012 1.391 . S
C2014 H2004 0.950 . S
C2014 C2015 1.386 . S
C2014 C2016 1.391 . S
C2015 C2014 1.386 . S
C2015 C2019 1.393 . S
C2016 H2005 0.950 . S
C2016 C2014 1.391 . S
C2016 C2017 1.400 . S
C2017 C2011 1.491 . S
C2017 C2016 1.400 . S
C2017 C2018 1.398 . S
C2018 H2006 0.950 . S
C2018 C2017 1.398 . S
C2018 C2019 1.391 . S
C2019 H2007 0.950 . S
C2019 C2015 1.393 . S
C2019 C2018 1.391 . S
H2020 C2028 0.950 . S
H2021 C2033 0.950 . S
H2022 C2030 0.950 . S
H2023 C2032 0.950 . S
H2024 C2034 0.950 . S
H2025 C2036 0.950 . S
H2026 C2038 0.950 . S
H2027 C2039 0.950 . S
C2028 H2020 0.950 . S
C2028 C2029 1.386 . S
C2028 C2030 1.391 . S
C2029 C2028 1.386 . S
C2029 C2033 1.393 . S
C2030 H2022 0.950 . S
C2030 C2028 1.391 . S
C2030 C2031 1.400 . S
C2031 C2030 1.400 . S
C2031 C2032 1.398 . S
C2031 C2037 1.491 . S
C2032 H2023 0.950 . S
C2032 C2031 1.398 . S
C2032 C2033 1.391 . S
C2033 H2021 0.950 . S
C2033 C2029 1.393 . S
C2033 C2032 1.391 . S
C2034 H2024 0.950 . S
C2034 C2035 1.386 . S
C2034 C2036 1.391 . S
C2035 C2034 1.386 . S
C2035 C2039 1.393 . S
C2036 H2025 0.950 . S
C2036 C2034 1.391 . S
C2036 C2037 1.400 . S
C2037 C2031 1.491 . S
C2037 C2036 1.400 . S
C2037 C2038 1.398 . S
C2038 H2026 0.950 . S
C2038 C2037 1.398 . S
C2038 C2039 1.391 . S
C2039 H2027 0.950 . S
C2039 C2035 1.393 . S
C2039 C2038 1.391 . S
H2040 C2048 0.950 . S
H2041 C2053 0.950 . S
H2042 C2050 0.950 . S
H2043 C2052 0.950 . S
H2044 C2054 0.950 . S
H2045 C2056 0.950 . S
H2046 C2058 0.950 . S
H2047 C2059 0.950 . S
C2048 H2040 0.950 . S
C2048 C2049 1.386 . S
C2048 C2050 1.391 . S
C2049 C2048 1.386 . S
C2049 C2053 1.393 . S
C2050 H2042 0.950 . S
C2050 C2048 1.391 . S
C2050 C2051 1.400 . S
C2051 C2050 1.400 . S
C2051 C2052 1.398 . S
C2051 C2057 1.491 . S
C2052 H2043 0.950 . S
C2052 C2051 1.398 . S
C2052 C2053 1.391 . S
C2053 H2041 0.950 . S
C2053 C2049 1.393 . S
C2053 C2052 1.391 . S
C2054 H2044 0.950 . S
C2054 C2055 1.386 . S
C2054 C2056 1.391 . S
C2055 C2054 1.386 . S
C2055 C2059 1.393 . S
C2056 H2045 0.950 . S
C2056 C2054 1.391 . S
C2056 C2057 1.400 . S
C2057 C2051 1.491 . S
C2057 C2056 1.400 . S
C2057 C2058 1.398 . S
C2058 H2046 0.950 . S
C2058 C2057 1.398 . S
C2058 C2059 1.391 . S
C2059 H2047 0.950 . S
C2059 C2055 1.393 . S
C2059 C2058 1.391 . S
H2060 C2068 0.950 . S
H2061 C2073 0.950 . S
H2062 C2070 0.950 . S
H2063 C2072 0.950 . S
H2064 C2074 0.950 . S
H2065 C2076 0.950 . S
H2066 C2078 0.950 . S
H2067 C2079 0.950 . S
C2068 H2060 0.950 . S
C2068 C2069 1.386 . S
C2068 C2070 1.391 . S
C2069 C2068 1.386 . S
C2069 C2073 1.393 . S
C2070 H2062 0.950 . S
C2070 C2068 1.391 . S
C2070 C2071 1.400 . S
C2071 C2070 1.400 . S
C2071 C2072 1.398 . S
C2071 C2077 1.491 . S
C2072 H2063 0.950 . S
C2072 C2071 1.398 . S
C2072 C2073 1.391 . S
C2073 H2061 0.950 . S
C2073 C2069 1.393 . S
C2073 C2072 1.391 . S
C2074 H2064 0.950 . S
C2074 C2075 1.386 . S
C2074 C2076 1.391 . S
C2075 C2074 1.386 . S
C2075 C2079 1.393 . S
C2076 H2065 0.950 . S
C2076 C2074 1.391 . S
C2076 C2077 1.400 . S
C2077 C2071 1.491 . S
C2077 C2076 1.400 . S
C2077 C2078 1.398 . S
C2078 H2066 0.950 . S
C2078 C2077 1.398 . S
C2078 C2079 1.391 . S
C2079 H2067 0.950 . S
C2079 C2075 1.393 . S
C2079 C2078 1.391 . S
H2080 C2088 0.950 . S
H2081 C2093 0.950 . S
H2082 C2090 0.950 . S
H2083 C2092 0.950 . S
H2084 C2094 0.950 . S
H2085 C2096 0.950 . S
H2086 C2098 0.950 . S
H2087 C2099 0.950 . S
C2088 H2080 0.950 . S
C2088 C2089 1.386 . S
C2088 C2090 1.391 . S
C2089 C2088 1.386 . S
C2089 C2093 1.393 . S
C2090 H2082 0.950 . S
C2090 C2088 1.391 . S
C2090 C2091 1.400 . S
C2091 C2090 1.400 . S
C2091 C2092 1.398 . S
C2091 C2097 1.491 . S
C2092 H2083 0.950 . S
C2092 C2091 1.398 . S
C2092 C2093 1.391 . S
C2093 H2081 0.950 . S
C2093 C2089 1.393 . S
C2093 C2092 1.391 . S
C2094 H2084 0.950 . S
C2094 C2095 1.386 . S
C2094 C2096 1.391 . S
C2095 C2094 1.386 . S
C2095 C2099 1.393 . S
C2096 H2085 0.950 . S
C2096 C2094 1.391 . S
C2096 C2097 1.400 . S
C2097 C2091 1.491 . S
C2097 C2096 1.400 . S
C2097 C2098 1.398 . S
C2098 H2086 0.950 . S
C2098 C2097 1.398 . S
C2098 C2099 1.391 . S
C2099 H2087 0.950 . S
C2099 C2095 1.393 . S
C2099 C2098 1.391 . S
H2100 C2108 0.950 . S
H2101 C2113 0.951 . S
H2102 C2110 0.950 . S
H2103 C2112 0.950 . S
H2104 C2114 0.950 . S
H2105 C2116 0.950 . S
H2106 C2118 0.950 . S
H2107 C2119 0.950 . S
C2108 H2100 0.950 . S
C2108 C2109 1.386 . S
C2108 C2110 1.391 . S
C2109 C2108 1.386 . S
C2109 C2113 1.365 1_455 S
C2110 H2102 0.950 . S
C2110 C2108 1.391 . S
C2110 C2111 1.400 . S
C2111 C2110 1.400 . S
C2111 C2112 1.398 1_455 S
C2111 C2117 1.491 . S
C2112 H2103 0.950 . S
C2112 C2111 1.398 1_655 S
C2112 C2113 1.421 . S
C2113 H2101 0.951 . S
C2113 C2109 1.365 1_655 S
C2113 C2112 1.421 . S
C2114 H2104 0.950 . S
C2114 C2115 1.386 1_655 S
C2114 C2116 1.391 . S
C2115 C2114 1.386 1_455 S
C2115 C2119 1.393 . S
C2116 H2105 0.950 . S
C2116 C2114 1.391 . S
C2116 C2117 1.400 1_655 S
C2117 C2111 1.491 . S
C2117 C2116 1.400 1_455 S
C2117 C2118 1.398 . S
C2118 H2106 0.950 . S
C2118 C2117 1.398 . S
C2118 C2119 1.391 . S
C2119 H2107 0.950 . S
C2119 C2115 1.393 . S
C2119 C2118 1.391 . S
H2120 C2128 0.950 . S
H2121 C2133 0.950 . S
H2122 C2130 0.950 . S
H2123 C2132 0.950 . S
H2124 C2134 0.950 . S
H2125 C2136 0.950 . S
H2126 C2138 0.950 . S
H2127 C2139 0.950 . S
C2128 H2120 0.950 . S
C2128 C2129 1.386 . S
C2128 C2130 1.391 . S
C2129 C2128 1.386 . S
C2129 C2133 1.393 . S
C2130 H2122 0.950 . S
C2130 C2128 1.391 . S
C2130 C2131 1.400 . S
C2131 C2130 1.400 . S
C2131 C2132 1.398 . S
C2131 C2137 1.491 . S
C2132 H2123 0.950 . S
C2132 C2131 1.398 . S
C2132 C2133 1.391 . S
C2133 H2121 0.950 . S
C2133 C2129 1.393 . S
C2133 C2132 1.391 . S
C2134 H2124 0.950 . S
C2134 C2135 1.386 . S
C2134 C2136 1.391 . S
C2135 C2134 1.386 . S
C2135 C2139 1.393 . S
C2136 H2125 0.950 . S
C2136 C2134 1.391 . S
C2136 C2137 1.400 . S
C2137 C2131 1.491 . S
C2137 C2136 1.400 . S
C2137 C2138 1.398 . S
C2138 H2126 0.950 . S
C2138 C2137 1.398 . S
C2138 C2139 1.391 . S
C2139 H2127 0.950 . S
C2139 C2135 1.393 . S
C2139 C2138 1.391 . S
H2140 C2148 0.950 . S
H2141 C2153 0.952 1_545 S
H2142 C2150 0.950 . S
H2143 C2152 0.947 . S
H2144 C2154 0.950 . S
H2145 C2156 0.950 . S
H2146 C2158 0.950 . S
H2147 C2159 0.950 . S
C2148 H2140 0.950 . S
C2148 C2149 1.386 . S
C2148 C2150 1.391 . S
C2149 C2148 1.386 . S
C2149 C2153 1.394 . S
C2150 H2142 0.950 . S
C2150 C2148 1.391 . S
C2150 C2151 1.400 . S
C2151 C2150 1.400 . S
C2151 C2152 1.379 1_565 S
C2151 C2157 1.491 . S
C2152 H2143 0.947 . S
C2152 C2151 1.379 1_545 S
C2152 C2153 1.414 1_545 S
C2153 H2141 0.952 1_565 S
C2153 C2149 1.394 . S
C2153 C2152 1.414 1_565 S
C2154 H2144 0.950 . S
C2154 C2155 1.386 1_545 S
C2154 C2156 1.391 . S
C2155 C2154 1.386 1_565 S
C2155 C2159 1.393 . S
C2156 H2145 0.950 . S
C2156 C2154 1.391 . S
C2156 C2157 1.400 1_545 S
C2157 C2151 1.491 . S
C2157 C2156 1.400 1_565 S
C2157 C2158 1.398 . S
C2158 H2146 0.950 . S
C2158 C2157 1.398 . S
C2158 C2159 1.391 . S
C2159 H2147 0.950 . S
C2159 C2155 1.393 . S
C2159 C2158 1.391 . S
H2160 C2168 0.950 . S
H2161 C2173 0.950 . S
H2162 C2170 0.950 . S
H2163 C2172 0.950 . S
H2164 C2174 0.950 . S
H2165 C2176 0.950 . S
H2166 C2178 0.950 . S
H2167 C2179 0.950 . S
C2168 H2160 0.950 . S
C2168 C2169 1.386 . S
C2168 C2170 1.391 . S
C2169 C2168 1.386 . S
C2169 C2173 1.393 . S
C2170 H2162 0.950 . S
C2170 C2168 1.391 . S
C2170 C2171 1.400 . S
C2171 C2170 1.400 . S
C2171 C2172 1.398 . S
C2171 C2177 1.491 . S
C2172 H2163 0.950 . S
C2172 C2171 1.398 . S
C2172 C2173 1.391 . S
C2173 H2161 0.950 . S
C2173 C2169 1.393 . S
C2173 C2172 1.391 . S
C2174 H2164 0.950 . S
C2174 C2175 1.386 . S
C2174 C2176 1.391 . S
C2175 C2174 1.386 . S
C2175 C2179 1.393 . S
C2176 H2165 0.950 . S
C2176 C2174 1.391 . S
C2176 C2177 1.400 . S
C2177 C2171 1.491 . S
C2177 C2176 1.400 . S
C2177 C2178 1.398 . S
C2178 H2166 0.950 . S
C2178 C2177 1.398 . S
C2178 C2179 1.391 . S
C2179 H2167 0.950 . S
C2179 C2175 1.393 . S
C2179 C2178 1.391 . S
H2180 C2188 0.950 . S
H2181 C2193 0.950 . S
H2182 C2190 0.950 . S
H2183 C2192 0.950 . S
H2184 C2194 0.950 . S
H2185 C2196 0.950 . S
H2186 C2198 0.950 . S
H2187 C2199 0.950 . S
C2188 H2180 0.950 . S
C2188 C2189 1.386 . S
C2188 C2190 1.391 . S
C2189 C2188 1.386 . S
C2189 C2193 1.393 1_455 S
C2190 H2182 0.950 . S
C2190 C2188 1.391 . S
C2190 C2191 1.400 . S
C2191 C2190 1.400 . S
C2191 C2192 1.398 1_455 S
C2191 C2197 1.491 . S
C2192 H2183 0.950 . S
C2192 C2191 1.398 1_655 S
C2192 C2193 1.391 . S
C2193 H2181 0.950 . S
C2193 C2189 1.393 1_655 S
C2193 C2192 1.391 . S
C2194 H2184 0.950 . S
C2194 C2195 1.386 1_655 S
C2194 C2196 1.391 . S
C2195 C2194 1.386 1_455 S
C2195 C2199 1.393 . S
C2196 H2185 0.950 . S
C2196 C2194 1.391 . S
C2196 C2197 1.400 1_655 S
C2197 C2191 1.491 . S
C2197 C2196 1.400 1_455 S
C2197 C2198 1.398 . S
C2198 H2186 0.950 . S
C2198 C2197 1.398 . S
C2198 C2199 1.391 . S
C2199 H2187 0.950 . S
C2199 C2195 1.393 . S
C2199 C2198 1.391 . S
H2200 C2208 0.950 . S
H2201 C2213 0.950 . S
H2202 C2210 0.950 . S
H2203 C2212 0.950 . S
H2204 C2214 0.950 . S
H2205 C2216 0.950 . S
H2206 C2218 0.950 . S
H2207 C2219 0.950 . S
C2208 H2200 0.950 . S
C2208 C2209 1.386 . S
C2208 C2210 1.391 . S
C2209 C2208 1.386 . S
C2209 C2213 1.393 . S
C2210 H2202 0.950 . S
C2210 C2208 1.391 . S
C2210 C2211 1.400 . S
C2211 C2210 1.400 . S
C2211 C2212 1.398 . S
C2211 C2217 1.491 . S
C2212 H2203 0.950 . S
C2212 C2211 1.398 . S
C2212 C2213 1.391 . S
C2213 H2201 0.950 . S
C2213 C2209 1.393 . S
C2213 C2212 1.391 . S
C2214 H2204 0.950 . S
C2214 C2215 1.386 . S
C2214 C2216 1.391 . S
C2215 C2214 1.386 . S
C2215 C2219 1.393 . S
C2216 H2205 0.950 . S
C2216 C2214 1.391 . S
C2216 C2217 1.400 . S
C2217 C2211 1.491 . S
C2217 C2216 1.400 . S
C2217 C2218 1.398 . S
C2218 H2206 0.950 . S
C2218 C2217 1.398 . S
C2218 C2219 1.391 . S
C2219 H2207 0.950 . S
C2219 C2215 1.393 . S
C2219 C2218 1.391 . S
H2220 C2228 0.950 . S
H2221 C2233 0.950 . S
H2222 C2230 0.950 . S
H2223 C2232 0.950 . S
H2224 C2234 0.950 . S
H2225 C2236 0.950 . S
H2226 C2238 0.950 . S
H2227 C2239 0.950 . S
C2228 H2220 0.950 . S
C2228 C2229 1.386 . S
C2228 C2230 1.391 . S
C2229 C2228 1.386 . S
C2229 C2233 1.393 . S
C2230 H2222 0.950 . S
C2230 C2228 1.391 . S
C2230 C2231 1.400 . S
C2231 C2230 1.400 . S
C2231 C2232 1.398 . S
C2231 C2237 1.491 . S
C2232 H2223 0.950 . S
C2232 C2231 1.398 . S
C2232 C2233 1.391 . S
C2233 H2221 0.950 . S
C2233 C2229 1.393 . S
C2233 C2232 1.391 . S
C2234 H2224 0.950 . S
C2234 C2235 1.386 . S
C2234 C2236 1.391 . S
C2235 C2234 1.386 . S
C2235 C2239 1.393 . S
C2236 H2225 0.950 . S
C2236 C2234 1.391 . S
C2236 C2237 1.400 . S
C2237 C2231 1.491 . S
C2237 C2236 1.400 . S
C2237 C2238 1.398 . S
C2238 H2226 0.950 . S
C2238 C2237 1.398 . S
C2238 C2239 1.391 . S
C2239 H2227 0.950 . S
C2239 C2235 1.393 . S
C2239 C2238 1.391 . S
H2240 C2248 0.950 . S
H2241 C2253 0.950 . S
H2242 C2250 0.950 . S
H2243 C2252 0.950 . S
H2244 C2254 0.950 . S
H2245 C2256 0.950 . S
H2246 C2258 0.950 . S
H2247 C2259 0.950 . S
C2248 H2240 0.950 . S
C2248 C2249 1.386 . S
C2248 C2250 1.391 . S
C2249 C2248 1.386 . S
C2249 C2253 1.393 . S
C2250 H2242 0.950 . S
C2250 C2248 1.391 . S
C2250 C2251 1.400 . S
C2251 C2250 1.400 . S
C2251 C2252 1.398 . S
C2251 C2257 1.491 . S
C2252 H2243 0.950 . S
C2252 C2251 1.398 . S
C2252 C2253 1.391 . S
C2253 H2241 0.950 . S
C2253 C2249 1.393 . S
C2253 C2252 1.391 . S
C2254 H2244 0.950 . S
C2254 C2255 1.386 . S
C2254 C2256 1.391 . S
C2255 C2254 1.386 . S
C2255 C2259 1.393 . S
C2256 H2245 0.950 . S
C2256 C2254 1.391 . S
C2256 C2257 1.400 . S
C2257 C2251 1.491 . S
C2257 C2256 1.400 . S
C2257 C2258 1.398 . S
C2258 H2246 0.950 . S
C2258 C2257 1.398 . S
C2258 C2259 1.391 . S
C2259 H2247 0.950 . S
C2259 C2255 1.393 . S
C2259 C2258 1.391 . S
H2260 C2268 0.950 . S
H2261 C2273 0.950 . S
H2262 C2270 0.950 . S
H2263 C2272 0.950 . S
H2264 C2274 0.950 . S
H2265 C2276 0.950 . S
H2266 C2278 0.950 . S
H2267 C2279 0.950 . S
C2268 H2260 0.950 . S
C2268 C2269 1.386 . S
C2268 C2270 1.391 . S
C2269 C2268 1.386 . S
C2269 C2273 1.393 . S
C2270 H2262 0.950 . S
C2270 C2268 1.391 . S
C2270 C2271 1.400 . S
C2271 C2270 1.400 . S
C2271 C2272 1.398 . S
C2271 C2277 1.491 . S
C2272 H2263 0.950 . S
C2272 C2271 1.398 . S
C2272 C2273 1.391 . S
C2273 H2261 0.950 . S
C2273 C2269 1.393 . S
C2273 C2272 1.391 . S
C2274 H2264 0.950 . S
C2274 C2275 1.386 . S
C2274 C2276 1.391 . S
C2275 C2274 1.386 . S
C2275 C2279 1.393 . S
C2276 H2265 0.950 . S
C2276 C2274 1.391 . S
C2276 C2277 1.400 . S
C2277 C2271 1.491 . S
C2277 C2276 1.400 . S
C2277 C2278 1.398 . S
C2278 H2266 0.950 . S
C2278 C2277 1.398 . S
C2278 C2279 1.391 . S
C2279 H2267 0.950 . S
C2279 C2275 1.393 . S
C2279 C2278 1.391 . S
H2280 C2288 0.950 . S
H2281 C2293 0.950 . S
H2282 C2290 0.950 . S
H2283 C2292 0.950 . S
H2284 C2294 0.950 . S
H2285 C2296 0.950 . S
H2286 C2298 0.950 . S
H2287 C2299 0.950 . S
C2288 H2280 0.950 . S
C2288 C2289 1.386 1_565 S
C2288 C2290 1.391 . S
C2289 C2288 1.386 1_545 S
C2289 C2293 1.393 . S
C2290 H2282 0.950 . S
C2290 C2288 1.391 . S
C2290 C2291 1.400 1_565 S
C2291 C2290 1.400 1_545 S
C2291 C2292 1.398 . S
C2291 C2297 1.491 . S
C2292 H2283 0.950 . S
C2292 C2291 1.398 . S
C2292 C2293 1.391 . S
C2293 H2281 0.950 . S
C2293 C2289 1.393 . S
C2293 C2292 1.391 . S
C2294 H2284 0.950 . S
C2294 C2295 1.386 . S
C2294 C2296 1.391 . S
C2295 C2294 1.386 . S
C2295 C2299 1.393 1_545 S
C2296 H2285 0.950 . S
C2296 C2294 1.391 . S
C2296 C2297 1.400 . S
C2297 C2291 1.491 . S
C2297 C2296 1.400 . S
C2297 C2298 1.398 1_545 S
C2298 H2286 0.950 . S
C2298 C2297 1.398 1_565 S
C2298 C2299 1.391 . S
C2299 H2287 0.950 . S
C2299 C2295 1.393 1_565 S
C2299 C2298 1.391 . S
H2300 C2308 0.950 . S
H2301 C2313 0.950 . S
H2302 C2310 0.950 . S
H2303 C2312 0.950 . S
H2304 C2314 0.950 . S
H2305 C2316 0.950 . S
H2306 C2318 0.950 . S
H2307 C2319 0.950 . S
C2308 H2300 0.950 . S
C2308 C2309 1.386 . S
C2308 C2310 1.391 . S
C2309 C2308 1.386 . S
C2309 C2313 1.393 1_655 S
C2310 H2302 0.950 . S
C2310 C2308 1.391 . S
C2310 C2311 1.400 . S
C2311 C2310 1.400 . S
C2311 C2312 1.398 1_655 S
C2311 C2317 1.491 . S
C2312 H2303 0.950 . S
C2312 C2311 1.398 1_455 S
C2312 C2313 1.391 . S
C2313 H2301 0.950 . S
C2313 C2309 1.393 1_455 S
C2313 C2312 1.391 . S
C2314 H2304 0.950 . S
C2314 C2315 1.386 1_455 S
C2314 C2316 1.391 . S
C2315 C2314 1.386 1_655 S
C2315 C2319 1.393 . S
C2316 H2305 0.950 . S
C2316 C2314 1.391 . S
C2316 C2317 1.400 1_455 S
C2317 C2311 1.491 . S
C2317 C2316 1.400 1_655 S
C2317 C2318 1.398 . S
C2318 H2306 0.950 . S
C2318 C2317 1.398 . S
C2318 C2319 1.391 . S
C2319 H2307 0.950 . S
C2319 C2315 1.393 . S
C2319 C2318 1.391 . S
H2320 C2328 0.950 . S
H2321 C2333 0.950 . S
H2322 C2330 0.950 . S
H2323 C2332 0.950 . S
H2324 C2334 0.950 . S
H2325 C2336 0.950 . S
H2326 C2338 0.950 . S
H2327 C2339 0.950 . S
C2328 H2320 0.950 . S
C2328 C2329 1.386 . S
C2328 C2330 1.391 . S
C2329 C2328 1.386 . S
C2329 C2333 1.393 . S
C2330 H2322 0.950 . S
C2330 C2328 1.391 . S
C2330 C2331 1.400 . S
C2331 C2330 1.400 . S
C2331 C2332 1.398 . S
C2331 C2337 1.491 . S
C2332 H2323 0.950 . S
C2332 C2331 1.398 . S
C2332 C2333 1.391 . S
C2333 H2321 0.950 . S
C2333 C2329 1.393 . S
C2333 C2332 1.391 . S
C2334 H2324 0.950 . S
C2334 C2335 1.386 . S
C2334 C2336 1.391 . S
C2335 C2334 1.386 . S
C2335 C2339 1.393 . S
C2336 H2325 0.950 . S
C2336 C2334 1.391 . S
C2336 C2337 1.400 . S
C2337 C2331 1.491 . S
C2337 C2336 1.400 . S
C2337 C2338 1.398 . S
C2338 H2326 0.950 . S
C2338 C2337 1.398 . S
C2338 C2339 1.391 . S
C2339 H2327 0.950 . S
C2339 C2335 1.393 . S
C2339 C2338 1.391 . S
H2340 C2348 0.950 . S
H2341 C2353 0.950 . S
H2342 C2350 0.950 . S
H2343 C2352 0.950 . S
H2344 C2354 0.950 . S
H2345 C2356 0.950 . S
H2346 C2358 0.950 . S
H2347 C2359 0.950 . S
C2348 H2340 0.950 . S
C2348 C2349 1.386 . S
C2348 C2350 1.391 . S
C2349 C2348 1.386 . S
C2349 C2353 1.393 . S
C2350 H2342 0.950 . S
C2350 C2348 1.391 . S
C2350 C2351 1.400 . S
C2351 C2350 1.400 . S
C2351 C2352 1.398 . S
C2351 C2357 1.491 . S
C2352 H2343 0.950 . S
C2352 C2351 1.398 . S
C2352 C2353 1.391 . S
C2353 H2341 0.950 . S
C2353 C2349 1.393 . S
C2353 C2352 1.391 . S
C2354 H2344 0.950 . S
C2354 C2355 1.386 . S
C2354 C2356 1.391 . S
C2355 C2354 1.386 . S
C2355 C2359 1.393 . S
C2356 H2345 0.950 . S
C2356 C2354 1.391 . S
C2356 C2357 1.400 . S
C2357 C2351 1.491 . S
C2357 C2356 1.400 . S
C2357 C2358 1.398 . S
C2358 H2346 0.950 . S
C2358 C2357 1.398 . S
C2358 C2359 1.391 . S
C2359 H2347 0.950 . S
C2359 C2355 1.393 . S
C2359 C2358 1.391 . S
H2360 C2368 0.950 . S
H2361 C2373 0.950 . S
H2362 C2370 0.950 . S
H2363 C2372 0.950 . S
H2364 C2374 0.950 . S
H2365 C2376 0.950 . S
H2366 C2378 0.950 . S
H2367 C2379 0.950 . S
C2368 H2360 0.950 . S
C2368 C2369 1.386 . S
C2368 C2370 1.391 . S
C2369 C2368 1.386 . S
C2369 C2373 1.393 . S
C2370 H2362 0.950 . S
C2370 C2368 1.391 . S
C2370 C2371 1.400 . S
C2371 C2370 1.400 . S
C2371 C2372 1.398 . S
C2371 C2377 1.491 . S
C2372 H2363 0.950 . S
C2372 C2371 1.398 . S
C2372 C2373 1.391 . S
C2373 H2361 0.950 . S
C2373 C2369 1.393 . S
C2373 C2372 1.391 . S
C2374 H2364 0.950 . S
C2374 C2375 1.386 . S
C2374 C2376 1.391 . S
C2375 C2374 1.386 . S
C2375 C2379 1.393 . S
C2376 H2365 0.950 . S
C2376 C2374 1.391 . S
C2376 C2377 1.400 . S
C2377 C2371 1.491 . S
C2377 C2376 1.400 . S
C2377 C2378 1.398 . S
C2378 H2366 0.950 . S
C2378 C2377 1.398 . S
C2378 C2379 1.391 . S
C2379 H2367 0.950 . S
C2379 C2375 1.393 . S
C2379 C2378 1.391 . S
H2380 C2388 0.950 . S
H2381 C2393 0.950 . S
H2382 C2390 0.950 . S
H2383 C2392 0.950 . S
H2384 C2394 0.950 . S
H2385 C2396 0.950 . S
H2386 C2398 0.950 . S
H2387 C2399 0.950 . S
C2388 H2380 0.950 . S
C2388 C2389 1.386 . S
C2388 C2390 1.391 . S
C2389 C2388 1.386 . S
C2389 C2393 1.393 . S
C2390 H2382 0.950 . S
C2390 C2388 1.391 . S
C2390 C2391 1.400 . S
C2391 C2390 1.400 . S
C2391 C2392 1.398 . S
C2391 C2397 1.491 . S
C2392 H2383 0.950 . S
C2392 C2391 1.398 . S
C2392 C2393 1.391 . S
C2393 H2381 0.950 . S
C2393 C2389 1.393 . S
C2393 C2392 1.391 . S
C2394 H2384 0.950 . S
C2394 C2395 1.386 . S
C2394 C2396 1.391 . S
C2395 C2394 1.386 . S
C2395 C2399 1.393 . S
C2396 H2385 0.950 . S
C2396 C2394 1.391 . S
C2396 C2397 1.400 . S
C2397 C2391 1.491 . S
C2397 C2396 1.400 . S
C2397 C2398 1.398 . S
C2398 H2386 0.950 . S
C2398 C2397 1.398 . S
C2398 C2399 1.391 . S
C2399 H2387 0.950 . S
C2399 C2395 1.393 . S
C2399 C2398 1.391 . S
H2400 C2408 0.950 . S
H2401 C2413 0.950 . S
H2402 C2410 0.950 . S
H2403 C2412 0.950 . S
H2404 C2414 0.950 . S
H2405 C2416 0.950 . S
H2406 C2418 0.950 . S
H2407 C2419 0.950 . S
C2408 H2400 0.950 . S
C2408 C2409 1.386 . S
C2408 C2410 1.391 . S
C2409 C2408 1.386 . S
C2409 C2413 1.393 . S
C2410 H2402 0.950 . S
C2410 C2408 1.391 . S
C2410 C2411 1.400 . S
C2411 C2410 1.400 . S
C2411 C2412 1.398 . S
C2411 C2417 1.491 . S
C2412 H2403 0.950 . S
C2412 C2411 1.398 . S
C2412 C2413 1.391 . S
C2413 H2401 0.950 . S
C2413 C2409 1.393 . S
C2413 C2412 1.391 . S
C2414 H2404 0.950 . S
C2414 C2415 1.386 . S
C2414 C2416 1.391 . S
C2415 C2414 1.386 . S
C2415 C2419 1.393 . S
C2416 H2405 0.950 . S
C2416 C2414 1.391 . S
C2416 C2417 1.400 . S
C2417 C2411 1.491 . S
C2417 C2416 1.400 . S
C2417 C2418 1.398 . S
C2418 H2406 0.950 . S
C2418 C2417 1.398 . S
C2418 C2419 1.391 . S
C2419 H2407 0.950 . S
C2419 C2415 1.393 . S
C2419 C2418 1.391 . S
H2420 C2428 0.950 . S
H2421 C2433 0.950 . S
H2422 C2430 0.950 . S
H2423 C2432 0.950 . S
H2424 C2434 0.950 . S
H2425 C2436 0.950 . S
H2426 C2438 0.950 . S
H2427 C2439 0.950 . S
C2428 H2420 0.950 . S
C2428 C2429 1.386 . S
C2428 C2430 1.391 . S
C2429 C2428 1.386 . S
C2429 C2433 1.393 . S
C2430 H2422 0.950 . S
C2430 C2428 1.391 . S
C2430 C2431 1.400 . S
C2431 C2430 1.400 . S
C2431 C2432 1.398 . S
C2431 C2437 1.491 . S
C2432 H2423 0.950 . S
C2432 C2431 1.398 . S
C2432 C2433 1.391 . S
C2433 H2421 0.950 . S
C2433 C2429 1.393 . S
C2433 C2432 1.391 . S
C2434 H2424 0.950 . S
C2434 C2435 1.386 . S
C2434 C2436 1.391 . S
C2435 C2434 1.386 . S
C2435 C2439 1.393 . S
C2436 H2425 0.950 . S
C2436 C2434 1.391 . S
C2436 C2437 1.400 . S
C2437 C2431 1.491 . S
C2437 C2436 1.400 . S
C2437 C2438 1.398 . S
C2438 H2426 0.950 . S
C2438 C2437 1.398 . S
C2438 C2439 1.391 . S
C2439 H2427 0.950 . S
C2439 C2435 1.393 . S
C2439 C2438 1.391 . S
H2440 C2448 0.950 . S
H2441 C2453 0.950 . S
H2442 C2450 0.950 . S
H2443 C2452 0.950 . S
H2444 C2454 0.950 . S
H2445 C2456 0.950 . S
H2446 C2458 0.950 . S
H2447 C2459 0.950 . S
C2448 H2440 0.950 . S
C2448 C2449 1.386 . S
C2448 C2450 1.391 . S
C2449 C2448 1.386 . S
C2449 C2453 1.393 . S
C2450 H2442 0.950 . S
C2450 C2448 1.391 . S
C2450 C2451 1.400 . S
C2451 C2450 1.400 . S
C2451 C2452 1.398 . S
C2451 C2457 1.491 . S
C2452 H2443 0.950 . S
C2452 C2451 1.398 . S
C2452 C2453 1.391 . S
C2453 H2441 0.950 . S
C2453 C2449 1.393 . S
C2453 C2452 1.391 . S
C2454 H2444 0.950 . S
C2454 C2455 1.386 . S
C2454 C2456 1.391 . S
C2455 C2454 1.386 . S
C2455 C2459 1.393 . S
C2456 H2445 0.950 . S
C2456 C2454 1.391 . S
C2456 C2457 1.400 . S
C2457 C2451 1.491 . S
C2457 C2456 1.400 . S
C2457 C2458 1.398 . S
C2458 H2446 0.950 . S
C2458 C2457 1.398 . S
C2458 C2459 1.391 . S
C2459 H2447 0.950 . S
C2459 C2455 1.393 . S
C2459 C2458 1.391 . S
H2460 C2468 0.950 . S
H2461 C2473 0.950 . S
H2462 C2470 0.950 . S
H2463 C2472 0.950 . S
H2464 C2474 0.950 . S
H2465 C2476 0.950 . S
H2466 C2478 0.950 . S
H2467 C2479 0.950 . S
C2468 H2460 0.950 . S
C2468 C2469 1.386 1_455 S
C2468 C2470 1.391 . S
C2469 C2468 1.386 1_655 S
C2469 C2473 1.393 . S
C2470 H2462 0.950 . S
C2470 C2468 1.391 . S
C2470 C2471 1.400 1_455 S
C2471 C2470 1.400 1_655 S
C2471 C2472 1.398 . S
C2471 C2477 1.491 . S
C2472 H2463 0.950 . S
C2472 C2471 1.398 . S
C2472 C2473 1.391 . S
C2473 H2461 0.950 . S
C2473 C2469 1.393 . S
C2473 C2472 1.391 . S
C2474 H2464 0.950 . S
C2474 C2475 1.386 . S
C2474 C2476 1.391 . S
C2475 C2474 1.386 . S
C2475 C2479 1.393 1_655 S
C2476 H2465 0.950 . S
C2476 C2474 1.391 . S
C2476 C2477 1.400 . S
C2477 C2471 1.491 . S
C2477 C2476 1.400 . S
C2477 C2478 1.398 1_655 S
C2478 H2466 0.950 . S
C2478 C2477 1.398 1_455 S
C2478 C2479 1.391 . S
C2479 H2467 0.950 . S
C2479 C2475 1.393 1_455 S
C2479 C2478 1.391 . S
H2480 C2488 0.950 . S
H2481 C2493 0.950 . S
H2482 C2490 0.950 . S
H2483 C2492 0.950 . S
H2484 C2494 0.950 . S
H2485 C2496 0.950 . S
H2486 C2498 0.950 . S
H2487 C2499 0.950 . S
C2488 H2480 0.950 . S
C2488 C2489 1.386 . S
C2488 C2490 1.391 . S
C2489 C2488 1.386 . S
C2489 C2493 1.393 . S
C2490 H2482 0.950 . S
C2490 C2488 1.391 . S
C2490 C2491 1.400 . S
C2491 C2490 1.400 . S
C2491 C2492 1.398 . S
C2491 C2497 1.491 . S
C2492 H2483 0.950 . S
C2492 C2491 1.398 . S
C2492 C2493 1.391 . S
C2493 H2481 0.950 . S
C2493 C2489 1.393 . S
C2493 C2492 1.391 . S
C2494 H2484 0.950 . S
C2494 C2495 1.386 . S
C2494 C2496 1.391 . S
C2495 C2494 1.386 . S
C2495 C2499 1.393 . S
C2496 H2485 0.950 . S
C2496 C2494 1.391 . S
C2496 C2497 1.400 . S
C2497 C2491 1.491 . S
C2497 C2496 1.400 . S
C2497 C2498 1.398 . S
C2498 H2486 0.950 . S
C2498 C2497 1.398 . S
C2498 C2499 1.391 . S
C2499 H2487 0.950 . S
C2499 C2495 1.393 . S
C2499 C2498 1.391 . S
H2500 C2508 0.950 . S
H2501 C2513 0.950 . S
H2502 C2510 0.950 . S
H2503 C2512 0.950 . S
H2504 C2514 0.950 . S
H2505 C2516 0.950 . S
H2506 C2518 0.950 . S
H2507 C2519 0.950 . S
C2508 H2500 0.950 . S
C2508 C2509 1.386 . S
C2508 C2510 1.391 . S
C2509 C2508 1.386 . S
C2509 C2513 1.393 1_545 S
C2510 H2502 0.950 . S
C2510 C2508 1.391 . S
C2510 C2511 1.400 . S
C2511 C2510 1.400 . S
C2511 C2512 1.398 1_545 S
C2511 C2517 1.491 . S
C2512 H2503 0.950 . S
C2512 C2511 1.398 1_565 S
C2512 C2513 1.391 . S
C2513 H2501 0.950 . S
C2513 C2509 1.393 1_565 S
C2513 C2512 1.391 . S
C2514 H2504 0.950 . S
C2514 C2515 1.386 1_565 S
C2514 C2516 1.391 . S
C2515 C2514 1.386 1_545 S
C2515 C2519 1.393 . S
C2516 H2505 0.950 . S
C2516 C2514 1.391 . S
C2516 C2517 1.400 1_565 S
C2517 C2511 1.491 . S
C2517 C2516 1.400 1_545 S
C2517 C2518 1.398 . S
C2518 H2506 0.950 . S
C2518 C2517 1.398 . S
C2518 C2519 1.391 . S
C2519 H2507 0.950 . S
C2519 C2515 1.393 . S
C2519 C2518 1.391 . S
C1089 C8 1.428 1_655 S
C1095 C688 1.478 . S
C1109 C22 1.560 . S
C1115 C734 1.557 . S
C1135 C766 1.487 . S
C1129 C37 1.462 1_545 S
C1149 C36 1.463 1_565 S
C1155 C819 1.475 . S
C1169 C9 1.477 1_455 S
C1175 C865 1.489 . S
C1189 C23 1.552 . S
C1195 C904 1.570 . S
C1209 C50 1.454 1_455 S
C1215 C858 1.467 . S
C1235 C911 1.565 . S
C1229 C64 1.558 . S
C1255 C812 1.492 . S
C1249 C79 1.472 1_565 S
C1269 C78 1.441 1_545 S
C1275 C773 1.470 . S
C1295 C667 1.495 . S
C1289 C51 1.456 1_655 S
C1309 C65 1.559 . S
C1315 C713 1.554 . S
C1329 C92 1.616 . S
C1335 C943 1.613 . S
C1349 C106 1.617 . S
C1355 C1010 1.615 . S
C1375 C1056 1.575 . S
C1369 C121 1.590 . S
C1389 C120 1.532 . S
C1395 C267 1.544 . S
C1409 C93 1.569 . S
C1415 C313 1.576 . S
C1429 C107 1.575 . S
C1435 C359 1.583 . S
C1449 C134 1.536 . S
C1455 C306 1.537 . S
C1469 C148 1.579 . S
C1475 C352 1.581 . S
C1495 C260 1.574 . S
C1489 C163 1.568 . S
C1515 C1035 1.611 . S
C1509 C162 1.615 . S
C1535 C964 1.587 . S
C1529 C135 1.582 . S
C1555 C989 1.616 . S
C1549 C149 1.617 . S
C1569 C176 1.534 . S
C1575 C391 1.548 . S
C1589 C190 1.577 . S
C1595 C444 1.586 . S
C1609 C205 1.572 . S
C1615 C490 1.580 . S
C1629 C204 1.614 . S
C1635 C536 1.615 . S
C1655 C589 1.588 . S
C1649 C177 1.580 . S
C1675 C635 1.615 . S
C1669 C191 1.617 . S
C1695 C582 1.618 . S
C1689 C218 1.608 . S
C1715 C628 1.617 . S
C1709 C232 1.621 . S
C1729 C247 1.577 . S
C1735 C543 1.589 . S
C1755 C497 1.543 . S
C1749 C246 1.538 . S
C1769 C219 1.574 . S
C1775 C412 1.579 . S
C1795 C451 1.584 . S
C1789 C233 1.585 . S
C1815 C274 1.557 . S
C1809 C6 1.553 . S
C1829 C20 1.491 . S
C1835 C320 1.515 . S
C1855 C366 1.567 . S
C1849 C35 1.547 . S
C1875 C398 1.557 . S
C1869 C34 1.550 . S
C1895 C437 1.550 . S
C1889 C7 1.556 . S
C1915 C483 1.508 . S
C1909 C21 1.487 . S
C1929 C48 1.549 . S
C1935 C504 1.571 . S
C1949 C62 1.490 . S
C1955 C405 1.509 . S
C1969 C77 1.554 . S
C1975 C458 1.544 . S
C1989 C76 1.549 . S
C1995 C299 1.576 . S
C2015 C345 1.556 . S
C2009 C49 1.555 . S
C2029 C63 1.500 . S
C2035 C253 1.512 . S
C2055 C529 1.536 . S
C2049 C90 1.516 . S
C2069 C104 1.566 . S
C2075 C596 1.592 . S
C2089 C119 1.580 . S
C2095 C642 1.591 . S
C2115 C681 1.485 . S
C2109 C118 1.433 . S
C2129 C91 1.529 . S
C2135 C727 1.549 . S
C2149 C105 1.457 . S
C2155 C759 1.487 . S
C2169 C132 1.429 . S
C2175 C780 1.478 . S
C2189 C146 1.442 . S
C2195 C674 1.487 . S
C2215 C720 1.551 . S
C2209 C161 1.543 . S
C2229 C160 1.537 . S
C2235 C575 1.544 . S
C2249 C133 1.571 . S
C2255 C621 1.598 . S
C2275 C550 1.589 . S
C2269 C147 1.561 . S
C2295 C826 1.481 . S
C2289 C174 1.434 . S
C2309 C188 1.451 . S
C2315 C872 1.491 . S
C2329 C203 1.525 . S
C2335 C897 1.546 . S
C2355 C950 1.538 . S
C2349 C202 1.515 . S
C2375 C1003 1.592 . S
C2369 C175 1.571 . S
C2389 C189 1.579 . S
C2395 C1049 1.596 . S
C2409 C216 1.535 . S
C2415 C1042 1.547 . S
C2429 C230 1.569 . S
C2435 C957 1.591 . S
C2455 C996 1.593 . S
C2449 C245 1.579 . S
C2475 C851 1.481 . S
C2469 C244 1.428 . S
C2495 C918 1.541 . S
C2489 C217 1.537 . S
C2509 C231 1.441 . S
C2515 C805 1.488 . S
