# Generated by pormake.
# Topology nom, (4,4)-cn, num edge types: 1
# Building blocks:
#     Node 0, Type 0, BuildingBlock: KUFVIS_clean_linker_0, # of connection points: 4
#     Node 1, Type 0, BuildingBlock: KUFVIS_clean_linker_0, # of connection points: 4
#     Node 2, Type 0, BuildingBlock: KUFVIS_clean_linker_0, # of connection points: 4
#     Node 3, Type 0, BuildingBlock: KUFVIS_clean_linker_0, # of connection points: 4
#     Node 4, Type 0, BuildingBlock: KUFVIS_clean_linker_0, # of connection points: 4
#     Node 5, Type 0, BuildingBlock: KUFVIS_clean_linker_0, # of connection points: 4
#     Node 6, Type 1, BuildingBlock: GALJAG_clean_sbu_0, # of connection points: 4
#     Node 7, Type 1, BuildingBlock: GALJAG_clean_sbu_0, # of connection points: 4
#     Node 8, Type 1, BuildingBlock: GALJAG_clean_sbu_0, # of connection points: 4
#     Node 9, Type 1, BuildingBlock: GALJAG_clean_sbu_0, # of connection points: 4
#     Node 10, Type 1, BuildingBlock: GALJAG_clean_sbu_0, # of connection points: 4
#     Node 11, Type 1, BuildingBlock: GALJAG_clean_sbu_0, # of connection points: 4
#     Edge 12, Type (0, 1), BuildingBlock: XIVTED_clean_linker_0, # of connection points: 2
#     Edge 13, Type (0, 1), BuildingBlock: XIVTED_clean_linker_0, # of connection points: 2
#     Edge 14, Type (0, 1), BuildingBlock: XIVTED_clean_linker_0, # of connection points: 2
#     Edge 15, Type (0, 1), BuildingBlock: XIVTED_clean_linker_0, # of connection points: 2
#     Edge 16, Type (0, 1), BuildingBlock: XIVTED_clean_linker_0, # of connection points: 2
#     Edge 17, Type (0, 1), BuildingBlock: XIVTED_clean_linker_0, # of connection points: 2
#     Edge 18, Type (0, 1), BuildingBlock: XIVTED_clean_linker_0, # of connection points: 2
#     Edge 19, Type (0, 1), BuildingBlock: XIVTED_clean_linker_0, # of connection points: 2
#     Edge 20, Type (0, 1), BuildingBlock: XIVTED_clean_linker_0, # of connection points: 2
#     Edge 21, Type (0, 1), BuildingBlock: XIVTED_clean_linker_0, # of connection points: 2
#     Edge 22, Type (0, 1), BuildingBlock: XIVTED_clean_linker_0, # of connection points: 2
#     Edge 23, Type (0, 1), BuildingBlock: XIVTED_clean_linker_0, # of connection points: 2
#     Edge 24, Type (0, 1), BuildingBlock: XIVTED_clean_linker_0, # of connection points: 2
#     Edge 25, Type (0, 1), BuildingBlock: XIVTED_clean_linker_0, # of connection points: 2
#     Edge 26, Type (0, 1), BuildingBlock: XIVTED_clean_linker_0, # of connection points: 2
#     Edge 27, Type (0, 1), BuildingBlock: XIVTED_clean_linker_0, # of connection points: 2
#     Edge 28, Type (0, 1), BuildingBlock: XIVTED_clean_linker_0, # of connection points: 2
#     Edge 29, Type (0, 1), BuildingBlock: XIVTED_clean_linker_0, # of connection points: 2
#     Edge 30, Type (0, 1), BuildingBlock: XIVTED_clean_linker_0, # of connection points: 2
#     Edge 31, Type (0, 1), BuildingBlock: XIVTED_clean_linker_0, # of connection points: 2
#     Edge 32, Type (0, 1), BuildingBlock: XIVTED_clean_linker_0, # of connection points: 2
#     Edge 33, Type (0, 1), BuildingBlock: XIVTED_clean_linker_0, # of connection points: 2
#     Edge 34, Type (0, 1), BuildingBlock: XIVTED_clean_linker_0, # of connection points: 2
#     Edge 35, Type (0, 1), BuildingBlock: XIVTED_clean_linker_0, # of connection points: 2
# Relax obj value: 0.012
# Max RMSD: 0.070
# Mean RMSD: 0.062
data_MOF--net-nom--node1-GALJAG_clean_sbu_0--node2-KUFVIS_clean_linker_0--edge1-XIVTED_clean_linker_0
_symmetry_space_group_name_H-M    P1
_symmetry_Int_Tables_number       1
_symmetry_cell_setting            triclinic
loop_
_symmetry_equiv_pos_as_xyz
'x, y, z'
_cell_length_a     45.506882
_cell_length_b     45.490272
_cell_length_c     48.834801
_cell_angle_alpha  90.025616
_cell_angle_beta   89.902084
_cell_angle_gamma 120.03114
loop_
_atom_site_label
_atom_site_type_symbol
_atom_site_fract_x
_atom_site_fract_y
_atom_site_fract_z
_atom_type_partial_charge
H0 H 0.14284 0.59796 0.33118 0.0
H1 H 0.06476 0.58253 0.27449 0.0
H2 H 0.03924 0.54461 0.35771 0.0
H3 H 0.99295 0.54935 0.34917 0.0
H4 H 0.91306 0.49232 0.29203 0.0
H5 H 1.01615 0.53325 0.26618 0.0
C6 C 0.11608 0.5876 0.32674 0.0
C7 C 0.09209 0.57153 0.34747 0.0
C8 C 0.10631 0.59133 0.3005 0.0
C9 C 0.07185 0.57892 0.29483 0.0
C10 C 0.04684 0.56134 0.31521 0.0
C11 C 0.05755 0.5583 0.3417 0.0
C12 C 1.00976 0.54423 0.30848 0.0
C13 C 0.98527 0.53908 0.32876 0.0
C14 C 0.95047 0.51984 0.32284 0.0
C15 C 0.94001 0.50678 0.29657 0.0
C16 C 0.96357 0.51206 0.27608 0.0
C17 C 0.99833 0.53071 0.282 0.0
H18 H 0.55976 0.13677 0.50192 0.0
H19 H 0.50079 0.06031 0.44276 0.0
H20 H 0.51433 0.03218 0.52472 0.0
H21 H 0.46466 0.98453 0.51491 0.0
H22 H 0.44881 0.90907 0.45511 0.0
H23 H 0.50438 0.01387 0.43242 0.0
C24 C 0.54431 0.11011 0.49662 0.0
C25 C 0.53766 0.08536 0.51634 0.0
C26 C 0.53133 0.10119 0.47017 0.0
C27 C 0.51093 0.06678 0.4633 0.0
C28 C 0.5046 0.04108 0.48274 0.0
C29 C 0.51789 0.05095 0.50947 0.0
C30 C 0.48676 1.00434 0.47474 0.0
C31 C 0.46837 0.97835 0.49425 0.0
C32 C 0.45541 0.94409 0.48728 0.0
C33 C 0.45944 0.93561 0.46063 0.0
C34 C 0.47634 0.96061 0.44082 0.0
C35 C 0.49007 0.99487 0.44782 0.0
H36 H 0.55855 0.43895 0.62712 0.0
H37 H 0.49781 0.4562 0.68476 0.0
H38 H 0.51336 0.49771 0.60259 0.0
H39 H 0.46236 0.49372 0.61123 0.0
H40 H 0.44281 0.5524 0.66931 0.0
H41 H 0.50109 0.50679 0.69412 0.0
C42 C 0.54303 0.45022 0.63194 0.0
C43 C 0.53687 0.46823 0.61182 0.0
C44 C 0.52934 0.44614 0.65817 0.0
C45 C 0.50858 0.45992 0.66441 0.0
C46 C 0.50258 0.47905 0.64455 0.0
C47 C 0.5167 0.48263 0.61809 0.0
C48 C 0.48387 0.49729 0.6518 0.0
C49 C 0.46531 0.5038 0.63176 0.0
C50 C 0.45112 0.52417 0.63806 0.0
C51 C 0.45427 0.53705 0.66448 0.0
C52 C 0.4717 0.53035 0.68477 0.0
C53 C 0.48646 0.51052 0.67846 0.0
H54 H 0.14111 0.55395 0.79031 0.0
H55 H 0.06317 0.49498 0.84858 0.0
H56 H 0.03707 0.50908 0.76611 0.0
H57 H 0.98955 0.45855 0.77556 0.0
H58 H 0.91231 0.44162 0.83393 0.0
H59 H 0.01656 0.49943 0.85781 0.0
C60 C 0.11432 0.5387 0.79528 0.0
C61 C 0.09009 0.53231 0.77516 0.0
C62 C 0.10474 0.52561 0.82167 0.0
C63 C 0.07019 0.50526 0.82809 0.0
C64 C 0.04502 0.49912 0.80826 0.0
C65 C 0.05552 0.51257 0.78162 0.0
C66 C 1.00814 0.48109 0.81576 0.0
C67 C 0.98275 0.46224 0.79602 0.0
C68 C 0.9483 0.44872 0.8025 0.0
C69 C 0.93903 0.45274 0.82888 0.0
C70 C 0.96346 0.47042 0.8489 0.0
C71 C 0.99793 0.48459 0.84237 0.0
H72 H 0.49378 0.90772 0.00384 0.0
H73 H 0.55579 0.98345 0.94502 0.0
H74 H 0.54062 0.01266 0.02607 0.0
H75 H 0.59272 0.05876 0.01674 0.0
H76 H 0.61127 0.13533 0.95724 0.0
H77 H 0.55223 0.0307 0.9345 0.0
C78 C 0.50974 0.93431 -0.00149 0.0
C79 C 0.51621 0.95928 0.018 0.0
C80 C 0.52364 0.94287 0.97225 0.0
C81 C 0.54495 0.97715 0.96539 0.0
C82 C 0.55132 1.00304 0.98461 0.0
C83 C 0.53699 0.99357 0.01109 0.0
C84 C 0.57038 0.0397 0.97658 0.0
C85 C 0.58949 0.06533 -0.00391 0.0
C86 C 0.6037 0.09974 -0.01085 0.0
C87 C 0.59998 0.10867 0.9626 0.0
C88 C 0.58202 0.08393 0.94286 0.0
C89 C 0.5673 0.04953 0.94976 0.0
H90 H 0.50709 0.61675 0.12524 0.0
H91 H 0.5639 0.59466 0.18335 0.0
H92 H 0.5374 0.54426 0.10448 0.0
H93 H 0.58997 0.5479 0.11185 0.0
H94 H 0.60529 0.48758 0.17123 0.0
H95 H 0.55305 0.54006 0.19493 0.0
C96 C 0.51985 0.60283 0.1307 0.0
C97 C 0.52062 0.57998 0.11202 0.0
C98 C 0.53532 0.60818 0.1563 0.0
C99 C 0.55183 0.59022 0.16349 0.0
C100 C 0.55321 0.56712 0.14478 0.0
C101 C 0.53756 0.56242 0.11893 0.0
C102 C 0.56947 0.54677 0.15242 0.0
C103 C 0.58662 0.53816 0.13254 0.0
C104 C 0.59894 0.5163 0.13926 0.0
C105 C 0.59507 0.50389 0.16594 0.0
C106 C 0.57906 0.51272 0.18608 0.0
C107 C 0.56636 0.53423 0.17937 0.0
In108 In 0.64977 0.40367 0.3982 0.0
O109 O 0.70531 0.44581 0.40272 0.0
O110 O 0.69513 0.40198 0.37993 0.0
C111 C 0.6274 0.42161 0.44293 0.0
C112 C 0.63185 0.42645 0.35382 0.0
C113 C 0.62151 0.33599 0.40664 0.0
O114 O 0.65667 0.42514 0.44158 0.0
O115 O 0.60924 0.40825 0.42212 0.0
O116 O 0.60722 0.34854 0.39263 0.0
O117 O 0.64974 0.35752 0.41668 0.0
C118 C 0.71719 0.43047 0.38921 0.0
O119 O 0.62736 0.3968 0.35528 0.0
O120 O 0.64634 0.44487 0.37429 0.0
In121 In 0.26882 0.64224 0.56186 0.0
O122 O 0.28121 0.59946 0.55703 0.0
O123 O 0.31481 0.6424 0.58069 0.0
C124 C 0.22828 0.62469 0.51739 0.0
C125 C 0.22799 0.62032 0.60632 0.0
C126 C 0.31025 0.70946 0.55261 0.0
O127 O 0.25317 0.61979 0.51893 0.0
O128 O 0.22447 0.63927 0.53788 0.0
O129 O 0.28384 0.69816 0.56713 0.0
O130 O 0.31545 0.68694 0.5425 0.0
C131 C 0.30805 0.61398 0.57101 0.0
O132 O 0.25356 0.64973 0.60479 0.0
O133 O 0.22361 0.60178 0.58582 0.0
In134 In 0.64684 0.26183 0.73005 0.0
O135 O 0.7026 0.27702 0.7236 0.0
O136 O 0.69181 0.30789 0.74958 0.0
C137 C 0.62337 0.22085 0.68586 0.0
C138 C 0.62996 0.22053 0.77402 0.0
C139 C 0.61973 0.30221 0.72172 0.0
O140 O 0.65313 0.24587 0.68707 0.0
O141 O 0.60524 0.21716 0.70651 0.0
O142 O 0.60523 0.27567 0.73614 0.0
O143 O 0.64748 0.30803 0.71122 0.0
C144 C 0.71414 0.30301 0.73862 0.0
O145 O 0.62435 0.24499 0.77288 0.0
O146 O 0.64492 0.21757 0.7534 0.0
In147 In 0.40465 0.64019 0.89901 0.0
O148 O 0.34886 0.59859 0.90354 0.0
O149 O 0.35999 0.64201 0.87973 0.0
C150 C 0.42626 0.62117 0.94348 0.0
C151 C 0.42284 0.61812 0.85429 0.0
C152 C 0.43222 0.70759 0.90843 0.0
O153 O 0.39731 0.61842 0.9423 0.0
O154 O 0.44447 0.63422 0.92259 0.0
O155 O 0.44726 0.69561 0.89465 0.0
O156 O 0.4037 0.68564 0.91778 0.0
C157 C 0.33754 0.61388 0.88934 0.0
O158 O 0.42814 0.64803 0.85638 0.0
O159 O 0.40757 0.59917 0.87437 0.0
In160 In 0.78563 0.40231 0.06248 0.0
O161 O 0.80079 0.39476 0.1053 0.0
O162 O 0.82997 0.44321 0.08687 0.0
C163 C 0.74608 0.33497 0.0528 0.0
C164 C 0.74409 0.42785 0.07209 0.0
C165 C 0.82666 0.42164 0.01813 0.0
O166 O 0.7727 0.34695 0.06704 0.0
O167 O 0.7398 0.35693 0.04306 0.0
O168 O 0.80136 0.42587 0.01984 0.0
O169 O 0.83068 0.40692 0.03839 0.0
C170 C 0.8258 0.42445 0.10717 0.0
O171 O 0.77071 0.44337 0.05785 0.0
O172 O 0.7388 0.3999 0.08176 0.0
In173 In 0.40569 0.78048 0.2291 0.0
O174 O 0.42361 0.7439 0.24327 0.0
O175 O 0.43619 0.76382 0.20288 0.0
C176 C 0.42471 0.82051 0.27412 0.0
C177 C 0.42572 0.82405 0.18664 0.0
C178 C 0.3377 0.73652 0.23176 0.0
O179 O 0.43992 0.80527 0.26629 0.0
O180 O 0.39929 0.81458 0.25992 0.0
O181 O 0.35021 0.76706 0.22461 0.0
O182 O 0.35938 0.72795 0.23744 0.0
C183 C 0.43851 0.74536 0.22104 0.0
O184 O 0.39962 0.79488 0.18562 0.0
O185 O 0.44201 0.83086 0.20881 0.0
H186 H 0.14524 0.56768 0.27892 0.0
H187 H 0.28665 0.75151 0.22702 0.0
H188 H 0.12994 0.65371 0.27683 0.0
H189 H 0.30458 0.66857 0.24317 0.0
H190 H 0.22603 0.71352 0.23591 0.0
H191 H 0.19957 0.60122 0.2554 0.0
C192 C 0.15297 0.5934 0.27266 0.0
C193 C 0.13323 0.60804 0.27964 0.0
C194 C 0.24319 0.70358 0.23722 0.0
C195 C 0.19582 0.647 0.25364 0.0
C196 C 0.27778 0.72522 0.23215 0.0
C197 C 0.30072 0.71324 0.23466 0.0
C198 C 0.23147 0.66968 0.24472 0.0
C199 C 0.28784 0.67894 0.24125 0.0
C200 C 0.18411 0.61266 0.25952 0.0
C201 C 0.14442 0.64154 0.27152 0.0
N202 N 0.25414 0.65845 0.24621 0.0
N203 N 0.1753 0.66014 0.25927 0.0
H204 H 0.59345 0.13992 0.44801 0.0
H205 H 0.55603 0.28525 0.39732 0.0
H206 H 0.49304 0.12701 0.44937 0.0
H207 H 0.65345 0.30267 0.42496 0.0
H208 H 0.53209 0.22415 0.40569 0.0
H209 H 0.61502 0.19583 0.42705 0.0
C210 C 0.57578 0.1485 0.44295 0.0
C211 C 0.54146 0.12894 0.45017 0.0
C212 C 0.55874 0.2414 0.40971 0.0
C213 C 0.56602 0.19323 0.42713 0.0
C214 C 0.5724 0.27619 0.40498 0.0
C215 C 0.6067 0.29903 0.41072 0.0
C216 C 0.57972 0.22943 0.41979 0.0
C217 C 0.62681 0.28599 0.42053 0.0
C218 C 0.58813 0.18053 0.43135 0.0
C219 C 0.51961 0.14131 0.44375 0.0
N220 N 0.61304 0.2521 0.42473 0.0
N221 N 0.53234 0.17297 0.43285 0.0
H222 H 0.47516 0.5862 0.61557 0.0
H223 H 0.29327 0.54836 0.56233 0.0
H224 H 0.38754 0.48576 0.61637 0.0
H225 H 0.37321 0.64616 0.58958 0.0
H226 H 0.33029 0.52449 0.57146 0.0
H227 H 0.44136 0.60767 0.5936 0.0
C228 C 0.44902 0.5685 0.61017 0.0
C229 C 0.43404 0.53421 0.61752 0.0
C230 C 0.33971 0.5512 0.57523 0.0
C231 C 0.39491 0.55865 0.59334 0.0
C232 C 0.31866 0.56482 0.57006 0.0
C233 C 0.33013 0.59921 0.57548 0.0
C234 C 0.37258 0.5723 0.58543 0.0
C235 C 0.36323 0.61945 0.58539 0.0
C236 C 0.42963 0.58079 0.598 0.0
C237 C 0.39997 0.51231 0.61066 0.0
N238 N 0.38326 0.6057 0.59003 0.0
N239 N 0.38131 0.52498 0.59921 0.0
H240 H 0.92537 0.3861 0.77932 0.0
H241 H 0.74474 0.36739 0.75869 0.0
H242 H 0.90736 0.47041 0.78212 0.0
H243 H 0.76693 0.2917 0.72788 0.0
H244 H 0.80515 0.40541 0.7667 0.0
H245 H 0.86926 0.35123 0.7581 0.0
C246 C 0.9101 0.39755 0.77448 0.0
C247 C 0.92081 0.43106 0.78231 0.0
C248 C 0.79695 0.38061 0.75796 0.0
C249 C 0.85658 0.39137 0.7592 0.0
C250 C 0.7624 0.3588 0.75358 0.0
C251 C 0.75084 0.3263 0.7428 0.0
C252 C 0.8202 0.36969 0.752 0.0
C253 C 0.77487 0.31658 0.73631 0.0
C254 C 0.87801 0.37763 0.76266 0.0
C255 C 0.89991 0.44465 0.77624 0.0
N256 N 0.80845 0.33805 0.74134 0.0
N257 N 0.86859 0.42462 0.76548 0.0
H258 H 0.56292 0.91852 0.9506 0.0
H259 H 0.39884 0.73943 0.92671 0.0
H260 H 0.46123 0.90233 0.9513 0.0
H261 H 0.49762 0.75939 0.90016 0.0
H262 H 0.42226 0.79994 0.93504 0.0
H263 H 0.54124 0.8621 0.92974 0.0
C264 C 0.53627 0.90355 0.9454 0.0
C265 C 0.51375 0.9149 0.95249 0.0
C266 C 0.43886 0.79124 0.92718 0.0
C267 C 0.48868 0.85033 0.92977 0.0
C268 C 0.42551 0.75662 0.92261 0.0
C269 C 0.44637 0.74438 0.91292 0.0
C270 C 0.47353 0.81389 0.92248 0.0
C271 C 0.48071 0.76784 0.90773 0.0
C272 C 0.52384 0.87129 0.93379 0.0
C273 C 0.47933 0.89439 0.94598 0.0
N274 N 0.49336 0.8015 0.91288 0.0
N275 N 0.46778 0.86293 0.9354 0.0
H276 H 0.65945 0.5552 0.11264 0.0
H277 H 0.67982 0.39326 0.09241 0.0
H278 H 0.57782 0.45219 0.12228 0.0
H279 H 0.7548 0.492 0.06244 0.0
H280 H 0.64156 0.41504 0.10154 0.0
H281 H 0.69384 0.53373 0.09082 0.0
C282 C 0.64842 0.52817 0.10926 0.0
C283 C 0.61589 0.50535 0.1192 0.0
C284 C 0.66626 0.43199 0.09276 0.0
C285 C 0.6551 0.48063 0.09527 0.0
C286 C 0.68821 0.41958 0.08771 0.0
C287 C 0.72061 0.44093 0.07687 0.0
C288 C 0.67688 0.46623 0.08735 0.0
C289 C 0.73003 0.47474 0.07093 0.0
C290 C 0.6681 0.51589 0.09709 0.0
C291 C 0.60285 0.47053 0.11485 0.0
N292 N 0.7084 0.4865 0.07654 0.0
N293 N 0.62264 0.45923 0.1036 0.0
H294 H 0.39394 0.92154 0.51259 0.0
H295 H 0.37444 0.73968 0.53202 0.0
H296 H 0.47671 0.90165 0.50503 0.0
H297 H 0.29928 0.76259 0.5629 0.0
H298 H 0.41246 0.79994 0.52328 0.0
H299 H 0.35938 0.86532 0.53387 0.0
C300 C 0.40515 0.90579 0.51634 0.0
C301 C 0.4381 0.91604 0.50716 0.0
C302 C 0.38778 0.79194 0.53218 0.0
C303 C 0.39872 0.8517 0.53042 0.0
C304 C 0.36596 0.75746 0.537 0.0
C305 C 0.33359 0.74612 0.548 0.0
C306 C 0.37703 0.81537 0.53798 0.0
C307 C 0.32404 0.77033 0.55429 0.0
C308 C 0.38539 0.87363 0.52819 0.0
C309 C 0.45137 0.89456 0.51191 0.0
N310 N 0.34553 0.80384 0.54889 0.0
N311 N 0.4315 0.86324 0.52281 0.0
H312 H 0.48974 0.38255 0.67971 0.0
H313 H 0.65311 0.36735 0.70323 0.0
H314 H 0.59119 0.46854 0.68039 0.0
H315 H 0.55477 0.28914 0.73126 0.0
H316 H 0.62986 0.40468 0.69544 0.0
H317 H 0.51122 0.3479 0.70094 0.0
C318 C 0.51626 0.39438 0.68535 0.0
C319 C 0.53879 0.42835 0.67853 0.0
C320 C 0.61334 0.37947 0.70353 0.0
C321 C 0.56368 0.38894 0.70159 0.0
C322 C 0.62658 0.35806 0.70778 0.0
C323 C 0.60577 0.32506 0.71771 0.0
C324 C 0.57882 0.36764 0.70875 0.0
C325 C 0.57163 0.31443 0.72349 0.0
C326 C 0.52859 0.3746 0.69716 0.0
C327 C 0.57307 0.44243 0.68555 0.0
N328 N 0.55906 0.33552 0.71859 0.0
N329 N 0.58457 0.42255 0.69626 0.0
H330 H 0.12733 0.48575 0.84493 0.0
H331 H 0.3071 0.6482 0.87023 0.0
H332 H 0.14546 0.58813 0.84242 0.0
H333 H 0.28476 0.54901 0.89774 0.0
H334 H 0.24695 0.62574 0.8611 0.0
H335 H 0.18294 0.50678 0.86697 0.0
C336 C 0.14253 0.51244 0.84998 0.0
C337 C 0.13199 0.53532 0.84205 0.0
C338 C 0.25504 0.60885 0.86935 0.0
C339 C 0.19567 0.55965 0.86612 0.0
C340 C 0.28946 0.62165 0.87438 0.0
C341 C 0.30093 0.60037 0.88455 0.0
C342 C 0.23183 0.57431 0.87406 0.0
C343 C 0.27691 0.56622 0.8898 0.0
C344 C 0.17434 0.5245 0.86227 0.0
C345 C 0.15278 0.56976 0.8484 0.0
N346 N 0.24347 0.55409 0.88417 0.0
N347 N 0.18382 0.58095 0.85965 0.0
H348 H 0.66693 0.12418 0.01137 0.0
H349 H 0.68123 0.30302 0.03375 0.0
H350 H 0.5811 0.13979 0.00989 0.0
H351 H 0.75953 0.28329 0.0619 0.0
H352 H 0.64428 0.24242 0.02561 0.0
H353 H 0.7012 0.18063 0.03227 0.0
C354 C 0.65505 0.13901 0.01645 0.0
C355 C 0.62124 0.12749 0.00914 0.0
C356 C 0.66943 0.25121 0.03378 0.0
C357 C 0.66023 0.19212 0.03184 0.0
C358 C 0.69063 0.28587 0.03823 0.0
C359 C 0.72354 0.29818 0.04832 0.0
C360 C 0.68136 0.22861 0.039 0.0
C361 C 0.73431 0.27477 0.05401 0.0
C362 C 0.67462 0.1713 0.02806 0.0
C363 C 0.60709 0.14785 0.01543 0.0
N364 N 0.7134 0.24108 0.04896 0.0
N365 N 0.62677 0.17937 0.026 0.0
H366 H 0.56577 0.67625 0.14998 0.0
H367 H 0.43694 0.69368 0.25138 0.0
H368 H 0.49689 0.5947 0.20262 0.0
H369 H 0.48412 0.75667 0.18055 0.0
H370 H 0.46797 0.66337 0.24187 0.0
H371 H 0.54717 0.71319 0.17064 0.0
C372 C 0.54761 0.66659 0.16666 0.0
C373 C 0.53293 0.63258 0.17479 0.0
C374 C 0.47167 0.68402 0.2286 0.0
C375 C 0.51051 0.67413 0.19778 0.0
C376 C 0.45399 0.70126 0.23397 0.0
C377 C 0.45772 0.72746 0.21653 0.0
C378 C 0.49358 0.69349 0.20591 0.0
C379 C 0.48019 0.73638 0.19434 0.0
C380 C 0.53664 0.68747 0.17818 0.0
C381 C 0.50902 0.62095 0.19609 0.0
N382 N 0.4972 0.71944 0.18967 0.0
N383 N 0.49811 0.64158 0.20663 0.0
H384 H 0.92658 0.55984 0.34351 0.0
H385 H 0.74898 0.39651 0.37209 0.0
H386 H 0.91189 0.45876 0.34671 0.0
H387 H 0.76902 0.49602 0.39647 0.0
H388 H 0.80947 0.41977 0.3636 0.0
H389 H 0.87081 0.53876 0.36538 0.0
C390 C 0.91215 0.53352 0.34986 0.0
C391 C 0.92375 0.51097 0.34363 0.0
C392 C 0.80078 0.43655 0.37104 0.0
C393 C 0.85975 0.48646 0.36737 0.0
C394 C 0.76618 0.42329 0.3757 0.0
C395 C 0.75397 0.44442 0.3848 0.0
C396 C 0.82341 0.47138 0.37502 0.0
C397 C 0.77744 0.47889 0.38937 0.0
C398 C 0.88023 0.5214 0.36202 0.0
C399 C 0.90383 0.47691 0.35148 0.0
N400 N 0.81104 0.49144 0.3841 0.0
N401 N 0.87259 0.46557 0.36252 0.0
H402 H 0.13354 0.54691 0.36137 0.0
H403 H 0.17327 0.6328 0.50953 0.0
H404 H 0.07929 0.59327 0.39587 0.0
H405 H 0.22931 0.5898 0.47223 0.0
H406 H 0.13437 0.61318 0.47051 0.0
H407 H 0.16338 0.55542 0.40472 0.0
C408 C 0.12751 0.55832 0.37835 0.0
C409 C 0.10421 0.56968 0.37511 0.0
C410 C 0.15508 0.60791 0.47093 0.0
C411 C 0.13869 0.58019 0.42457 0.0
C412 C 0.17737 0.61922 0.49312 0.0
C413 C 0.20472 0.61316 0.49396 0.0
C414 C 0.1602 0.59041 0.44945 0.0
C415 C 0.20872 0.59525 0.47229 0.0
C416 C 0.14464 0.56335 0.40303 0.0
C417 C 0.09707 0.58414 0.39767 0.0
N418 N 0.18678 0.58461 0.45089 0.0
N419 N 0.11466 0.58946 0.4214 0.0
H420 H 0.60393 0.12568 0.52974 0.0
H421 H 0.56017 0.16563 0.6787 0.0
H422 H 0.50373 0.07184 0.56508 0.0
H423 H 0.65871 0.22141 0.64044 0.0
H424 H 0.54032 0.12635 0.63989 0.0
H425 H 0.62612 0.15494 0.57322 0.0
C426 C 0.58678 0.11955 0.54697 0.0
C427 C 0.55201 0.09659 0.54396 0.0
C428 C 0.56633 0.14708 0.64006 0.0
C429 C 0.5769 0.1305 0.59349 0.0
C430 C 0.57763 0.16958 0.66213 0.0
C431 C 0.61104 0.19699 0.66261 0.0
C432 C 0.58863 0.15204 0.61835 0.0
C433 C 0.63267 0.20079 0.64076 0.0
C434 C 0.59936 0.13638 0.5717 0.0
C435 C 0.53074 0.08937 0.56674 0.0
N436 N 0.62104 0.17865 0.61947 0.0
N437 N 0.54345 0.10671 0.59053 0.0
H438 H 0.45335 0.4966 0.73374 0.0
H439 H 0.45862 0.65502 0.80978 0.0
H440 H 0.49395 0.59618 0.69812 0.0
H441 H 0.41413 0.5549 0.84534 0.0
H442 H 0.47764 0.63523 0.77077 0.0
H443 H 0.44599 0.51904 0.77737 0.0
C444 C 0.46146 0.52334 0.73536 0.0
C445 C 0.47393 0.54457 0.71239 0.0
C446 C 0.46383 0.61757 0.78714 0.0
C447 C 0.46509 0.57022 0.76172 0.0
C448 C 0.45285 0.62885 0.80935 0.0
C449 C 0.4345 0.60647 0.83065 0.0
C450 C 0.4563 0.58362 0.78616 0.0
C451 C 0.42799 0.57291 0.82921 0.0
C452 C 0.45698 0.53609 0.76011 0.0
C453 C 0.48386 0.57897 0.71536 0.0
N454 N 0.43873 0.56243 0.80724 0.0
N455 N 0.47889 0.59064 0.73947 0.0
H456 H 0.97919 0.45273 0.89797 0.0
H457 H 0.82514 0.45681 0.97337 0.0
H458 H 0.92037 0.49329 0.86223 0.0
H459 H 0.88218 0.41448 0.00976 0.0
H460 H 0.86423 0.47622 0.93452 0.0
H461 H 0.94955 0.44577 0.94163 0.0
C462 C 0.96065 0.46096 0.89957 0.0
C463 C 0.95187 0.47325 0.87655 0.0
C464 C 0.86834 0.46283 0.95105 0.0
C465 C 0.91751 0.46482 0.92592 0.0
C466 C 0.84592 0.45162 0.97317 0.0
C467 C 0.85025 0.43373 -0.00536 0.0
C468 C 0.89522 0.45597 0.95032 0.0
C469 C 0.87779 0.42797 -0.00652 0.0
C470 C 0.94352 0.4567 0.92435 0.0
C471 C 0.92752 0.48333 0.87951 0.0
N472 N 0.89913 0.43888 0.97159 0.0
N473 N 0.91091 0.47852 0.90364 0.0
H474 H 0.54784 0.97677 0.06786 0.0
H475 H 0.39147 0.8183 0.13933 0.0
H476 H 0.44982 0.91635 0.03021 0.0
H477 H 0.48471 0.88482 0.18174 0.0
H478 H 0.411 0.85744 0.10058 0.0
H479 H 0.52371 0.94814 0.1116 0.0
C480 C 0.52106 0.95811 0.06903 0.0
C481 C 0.50083 0.94847 0.04546 0.0
C482 C 0.42714 0.86368 0.11842 0.0
C483 C 0.47329 0.91527 0.09493 0.0
C484 C 0.41603 0.84123 0.14049 0.0
C485 C 0.43667 0.84819 0.16359 0.0
C486 C 0.4593 0.89314 0.11934 0.0
C487 C 0.46812 0.87842 0.16417 0.0
C488 C 0.50734 0.94159 0.09388 0.0
C489 C 0.46633 0.92406 0.04791 0.0
N490 N 0.47866 0.89965 0.14223 0.0
N491 N 0.45377 0.90796 0.07209 0.0
H492 H 0.6017 0.54845 0.23388 0.0
H493 H 0.59513 0.38972 0.30969 0.0
H494 H 0.55263 0.44682 0.20123 0.0
H495 H 0.64053 0.48977 0.34542 0.0
H496 H 0.57488 0.40947 0.27159 0.0
H497 H 0.61014 0.52662 0.27738 0.0
C498 C 0.59188 0.52143 0.2362 0.0
C499 C 0.57674 0.49937 0.21403 0.0
C500 C 0.58915 0.42713 0.28779 0.0
C501 C 0.58692 0.47439 0.26313 0.0
C502 C 0.60087 0.41588 0.30947 0.0
C503 C 0.61979 0.43824 0.33057 0.0
C504 C 0.59657 0.46107 0.2871 0.0
C505 C 0.62622 0.47178 0.32942 0.0
C506 C 0.59698 0.50901 0.26086 0.0
C507 C 0.56472 0.46463 0.21785 0.0
N508 N 0.61481 0.48227 0.30794 0.0
N509 N 0.57045 0.45328 0.24179 0.0
H510 H 0.45066 0.97133 0.39396 0.0
H511 H 0.47608 0.83435 0.31002 0.0
H512 H 0.50534 0.92374 0.42486 0.0
H513 H 0.40118 0.86256 0.28987 0.0
H514 H 0.49579 0.87533 0.34769 0.0
H515 H 0.44236 0.94114 0.3504 0.0
C516 C 0.46176 0.95529 0.39119 0.0
C517 C 0.47858 0.94979 0.41282 0.0
C518 C 0.47512 0.87262 0.33495 0.0
C519 C 0.46874 0.91488 0.36369 0.0
C520 C 0.4638 0.84917 0.31354 0.0
C521 C 0.43672 0.84482 0.29706 0.0
C522 C 0.45938 0.89197 0.33975 0.0
C523 C 0.4219 0.86488 0.30232 0.0
C524 C 0.45671 0.9378 0.36655 0.0
C525 C 0.49214 0.92845 0.40855 0.0
N526 N 0.43338 0.88756 0.32326 0.0
N527 N 0.48666 0.9115 0.38453 0.0
H528 H 0.50453 0.45172 0.56228 0.0
H529 H 0.66303 0.45443 0.48878 0.0
H530 H 0.60296 0.49041 0.59939 0.0
H531 H 0.56508 0.41555 0.45051 0.0
H532 H 0.64288 0.47321 0.52771 0.0
H533 H 0.52792 0.44515 0.51886 0.0
C534 C 0.53125 0.45961 0.56103 0.0
C535 C 0.55183 0.47126 0.58436 0.0
C536 C 0.62579 0.4607 0.51076 0.0
C537 C 0.57854 0.46325 0.53527 0.0
C538 C 0.63726 0.44985 0.4886 0.0
C539 C 0.61558 0.43314 0.46655 0.0
C540 C 0.59232 0.45467 0.51095 0.0
C541 C 0.58254 0.42812 0.46723 0.0
C542 C 0.54452 0.45558 0.53639 0.0
C543 C 0.58621 0.48092 0.58186 0.0
N544 N 0.57183 0.43867 0.48916 0.0
N545 N 0.59839 0.47633 0.55786 0.0
H546 H 0.07453 0.49895 0.72603 0.0
H547 H 0.23 0.65677 0.65143 0.0
H548 H 0.13375 0.59822 0.76205 0.0
H549 H 0.17206 0.55779 0.61439 0.0
H550 H 0.19082 0.63711 0.69021 0.0
H551 H 0.10464 0.5216 0.68252 0.0
C552 C 0.09326 0.52569 0.72451 0.0
C553 C 0.10201 0.54674 0.74756 0.0
C554 C 0.18654 0.61968 0.67357 0.0
C555 C 0.13688 0.57263 0.69838 0.0
C556 C 0.20901 0.63088 0.65148 0.0
C557 C 0.20444 0.60877 0.62983 0.0
C558 C 0.15935 0.58606 0.67408 0.0
C559 C 0.17663 0.57558 0.63081 0.0
C560 C 0.11066 0.53855 0.69982 0.0
C561 C 0.12661 0.58113 0.74473 0.0
N562 N 0.15523 0.56514 0.65266 0.0
N563 N 0.14345 0.59291 0.7207 0.0
H564 H 0.55475 0.12305 0.92954 0.0
H565 H 0.63982 0.16645 0.78103 0.0
H566 H 0.60366 0.07176 0.89417 0.0
H567 H 0.59426 0.21954 0.81933 0.0
H568 H 0.62104 0.12685 0.81965 0.0
H569 H 0.5615 0.15256 0.88622 0.0
C570 C 0.56625 0.11751 0.91233 0.0
C571 C 0.57883 0.09519 0.91527 0.0
C572 C 0.61501 0.14706 0.81953 0.0
C573 C 0.58753 0.12942 0.86593 0.0
C574 C 0.62584 0.16975 0.79757 0.0
C575 C 0.61885 0.1965 0.79716 0.0
C576 C 0.59705 0.15117 0.84119 0.0
C577 C 0.60044 0.19946 0.81896 0.0
C578 C 0.57034 0.1345 0.88768 0.0
C579 C 0.59356 0.08877 0.89253 0.0
N580 N 0.59031 0.17715 0.84014 0.0
N581 N 0.598 0.10625 0.86884 0.0
H582 H 0.54793 0.58704 0.06084 0.0
H583 H 0.39149 0.59163 -0.00941 0.0
H584 H 0.45542 0.56398 0.10283 0.0
H585 H 0.48711 0.6237 0.94994 0.0
H586 H 0.41162 0.57349 0.0299 0.0
H587 H 0.52276 0.59142 0.01768 0.0
C588 C 0.52203 0.58209 0.06078 0.0
C589 C 0.50375 0.57548 0.08529 0.0
C590 C 0.42817 0.58435 0.01233 0.0
C591 C 0.47509 0.58097 0.03646 0.0
C592 C 0.41671 0.5948 -0.01006 0.0
C593 C 0.43781 0.60952 0.96715 0.0
C594 C 0.46101 0.5887 0.01195 0.0
C595 C 0.47014 0.61274 0.96725 0.0
C596 C 0.50778 0.58488 0.03627 0.0
C597 C 0.47041 0.5695 0.0843 0.0
N598 N 0.48085 0.6026 -0.01061 0.0
N599 N 0.45727 0.57274 0.06035 0.0
H600 H 0.97982 0.54481 0.22664 0.0
H601 H 0.82329 0.38788 0.15228 0.0
H602 H 0.91757 0.44659 0.26369 0.0
H603 H 0.88148 0.48708 0.11554 0.0
H604 H 0.86198 0.40741 0.19125 0.0
H605 H 0.94949 0.52228 0.18327 0.0
C606 C 0.96031 0.51831 0.22539 0.0
C607 C 0.95085 0.49754 0.24867 0.0
C608 C 0.8664 0.42492 0.17464 0.0
C609 C 0.91581 0.47182 0.19964 0.0
C610 C 0.84423 0.41379 0.15244 0.0
C611 C 0.84902 0.436 0.13082 0.0
C612 C 0.89355 0.45855 0.17528 0.0
C613 C 0.87674 0.46922 0.13194 0.0
C614 C 0.94281 0.50554 0.20079 0.0
C615 C 0.92527 0.46347 0.24619 0.0
N616 N 0.89789 0.47957 0.1539 0.0
N617 N 0.90841 0.45177 0.22221 0.0
loop_
_geom_bond_atom_site_label_1
_geom_bond_atom_site_label_2
_geom_bond_distance
_geom_bond_site_symmetry_2
_ccdc_geom_bond_type
H0 C6 0.930 . S
H1 C9 0.931 . S
H2 C11 0.931 . S
H3 C13 0.930 . S
H4 C15 0.930 . S
H5 C17 0.931 1_455 S
C6 H0 0.930 . S
C6 C7 1.380 . S
C6 C8 1.394 . S
C7 C6 1.380 . S
C7 C11 1.382 . S
C8 C6 1.394 . S
C8 C9 1.400 . S
C9 H1 0.931 . S
C9 C8 1.400 . S
C9 C10 1.375 . S
C10 C9 1.375 . S
C10 C11 1.415 . S
C10 C12 1.501 1_455 S
C11 H2 0.931 . S
C11 C7 1.382 . S
C11 C10 1.415 . S
C12 C10 1.501 1_655 S
C12 C13 1.384 . S
C12 C17 1.408 . S
C13 H3 0.930 . S
C13 C12 1.384 . S
C13 C14 1.389 . S
C14 C13 1.389 . S
C14 C15 1.405 . S
C15 H4 0.930 . S
C15 C14 1.405 . S
C15 C16 1.364 . S
C16 C15 1.364 . S
C16 C17 1.400 . S
C17 H5 0.931 1_655 S
C17 C12 1.408 . S
C17 C16 1.400 . S
H18 C24 0.930 . S
H19 C27 0.931 . S
H20 C29 0.931 . S
H21 C31 0.930 . S
H22 C33 0.930 . S
H23 C35 0.931 1_545 S
C24 H18 0.930 . S
C24 C25 1.380 . S
C24 C26 1.394 . S
C25 C24 1.380 . S
C25 C29 1.382 . S
C26 C24 1.394 . S
C26 C27 1.400 . S
C27 H19 0.931 . S
C27 C26 1.400 . S
C27 C28 1.375 . S
C28 C27 1.375 . S
C28 C29 1.415 . S
C28 C30 1.501 1_545 S
C29 H20 0.931 . S
C29 C25 1.382 . S
C29 C28 1.415 . S
C30 C28 1.501 1_565 S
C30 C31 1.384 . S
C30 C35 1.408 . S
C31 H21 0.930 . S
C31 C30 1.384 . S
C31 C32 1.389 . S
C32 C31 1.389 . S
C32 C33 1.405 . S
C33 H22 0.930 . S
C33 C32 1.405 . S
C33 C34 1.364 . S
C34 C33 1.364 . S
C34 C35 1.400 . S
C35 H23 0.931 1_565 S
C35 C30 1.408 . S
C35 C34 1.400 . S
H36 C42 0.930 . S
H37 C45 0.931 . S
H38 C47 0.931 . S
H39 C49 0.930 . S
H40 C51 0.930 . S
H41 C53 0.931 . S
C42 H36 0.930 . S
C42 C43 1.380 . S
C42 C44 1.394 . S
C43 C42 1.380 . S
C43 C47 1.382 . S
C44 C42 1.394 . S
C44 C45 1.400 . S
C45 H37 0.931 . S
C45 C44 1.400 . S
C45 C46 1.375 . S
C46 C45 1.375 . S
C46 C47 1.415 . S
C46 C48 1.501 . S
C47 H38 0.931 . S
C47 C43 1.382 . S
C47 C46 1.415 . S
C48 C46 1.501 . S
C48 C49 1.384 . S
C48 C53 1.408 . S
C49 H39 0.930 . S
C49 C48 1.384 . S
C49 C50 1.389 . S
C50 C49 1.389 . S
C50 C51 1.405 . S
C51 H40 0.930 . S
C51 C50 1.405 . S
C51 C52 1.364 . S
C52 C51 1.364 . S
C52 C53 1.400 . S
C53 H41 0.931 . S
C53 C48 1.408 . S
C53 C52 1.400 . S
H54 C60 0.930 . S
H55 C63 0.931 . S
H56 C65 0.931 . S
H57 C67 0.930 . S
H58 C69 0.930 . S
H59 C71 0.931 1_455 S
C60 H54 0.930 . S
C60 C61 1.380 . S
C60 C62 1.394 . S
C61 C60 1.380 . S
C61 C65 1.382 . S
C62 C60 1.394 . S
C62 C63 1.400 . S
C63 H55 0.931 . S
C63 C62 1.400 . S
C63 C64 1.375 . S
C64 C63 1.375 . S
C64 C65 1.415 . S
C64 C66 1.501 1_455 S
C65 H56 0.931 . S
C65 C61 1.382 . S
C65 C64 1.415 . S
C66 C64 1.501 1_655 S
C66 C67 1.384 . S
C66 C71 1.408 . S
C67 H57 0.930 . S
C67 C66 1.384 . S
C67 C68 1.389 . S
C68 C67 1.389 . S
C68 C69 1.405 . S
C69 H58 0.930 . S
C69 C68 1.405 . S
C69 C70 1.364 . S
C70 C69 1.364 . S
C70 C71 1.400 . S
C71 H59 0.931 1_655 S
C71 C66 1.408 . S
C71 C70 1.400 . S
H72 C78 0.930 . S
H73 C81 0.931 . S
H74 C83 0.931 1_545 S
H75 C85 0.930 . S
H76 C87 0.930 . S
H77 C89 0.931 . S
C78 H72 0.930 . S
C78 C79 1.380 . S
C78 C80 1.394 1_554 S
C79 C78 1.380 . S
C79 C83 1.382 . S
C80 C78 1.394 1_556 S
C80 C81 1.400 . S
C81 H73 0.931 . S
C81 C80 1.400 . S
C81 C82 1.375 . S
C82 C81 1.375 . S
C82 C83 1.415 1_556 S
C82 C84 1.501 1_565 S
C83 H74 0.931 1_565 S
C83 C79 1.382 . S
C83 C82 1.415 1_554 S
C84 C82 1.501 1_545 S
C84 C85 1.384 1_556 S
C84 C89 1.408 . S
C85 H75 0.930 . S
C85 C84 1.384 1_554 S
C85 C86 1.389 1_554 S
C86 C85 1.389 1_556 S
C86 C87 1.405 . S
C87 H76 0.930 . S
C87 C86 1.405 . S
C87 C88 1.364 . S
C88 C87 1.364 . S
C88 C89 1.400 . S
C89 H77 0.931 . S
C89 C84 1.408 . S
C89 C88 1.400 . S
H90 C96 0.930 . S
H91 C99 0.931 . S
H92 C101 0.931 . S
H93 C103 0.930 . S
H94 C105 0.930 . S
H95 C107 0.931 . S
C96 H90 0.930 . S
C96 C97 1.380 . S
C96 C98 1.394 . S
C97 C96 1.380 . S
C97 C101 1.382 . S
C98 C96 1.394 . S
C98 C99 1.400 . S
C99 H91 0.931 . S
C99 C98 1.400 . S
C99 C100 1.375 . S
C100 C99 1.375 . S
C100 C101 1.415 . S
C100 C102 1.501 . S
C101 H92 0.931 . S
C101 C97 1.382 . S
C101 C100 1.415 . S
C102 C100 1.501 . S
C102 C103 1.384 . S
C102 C107 1.408 . S
C103 H93 0.930 . S
C103 C102 1.384 . S
C103 C104 1.389 . S
C104 C103 1.389 . S
C104 C105 1.405 . S
C105 H94 0.930 . S
C105 C104 1.405 . S
C105 C106 1.364 . S
C106 C105 1.364 . S
C106 C107 1.400 . S
C107 H95 0.931 . S
C107 C102 1.408 . S
C107 C106 1.400 . S
In108 O109 2.294 . S
In108 O110 2.326 . S
In108 O114 2.266 . S
In108 O115 2.326 . S
In108 O116 2.266 . S
In108 O117 2.326 . S
In108 O119 2.294 . S
In108 O120 2.326 . S
O109 In108 2.294 . S
O109 C118 1.240 . S
O110 In108 2.326 . S
O110 C118 1.252 . S
C111 O114 1.252 . S
C111 O115 1.260 . S
C112 O119 1.240 . S
C112 O120 1.252 . S
C113 O116 1.252 . S
C113 O117 1.260 . S
O114 In108 2.266 . S
O114 C111 1.252 . S
O115 In108 2.326 . S
O115 C111 1.260 . S
O116 In108 2.266 . S
O116 C113 1.252 . S
O117 In108 2.326 . S
O117 C113 1.260 . S
C118 O109 1.240 . S
C118 O110 1.252 . S
O119 In108 2.294 . S
O119 C112 1.240 . S
O120 In108 2.326 . S
O120 C112 1.252 . S
In121 O122 2.294 . S
In121 O123 2.326 . S
In121 O127 2.266 . S
In121 O128 2.326 . S
In121 O129 2.266 . S
In121 O130 2.326 . S
In121 O132 2.294 . S
In121 O133 2.326 . S
O122 In121 2.294 . S
O122 C131 1.240 . S
O123 In121 2.326 . S
O123 C131 1.252 . S
C124 O127 1.252 . S
C124 O128 1.260 . S
C125 O132 1.240 . S
C125 O133 1.252 . S
C126 O129 1.252 . S
C126 O130 1.260 . S
O127 In121 2.266 . S
O127 C124 1.252 . S
O128 In121 2.326 . S
O128 C124 1.260 . S
O129 In121 2.266 . S
O129 C126 1.252 . S
O130 In121 2.326 . S
O130 C126 1.260 . S
C131 O122 1.240 . S
C131 O123 1.252 . S
O132 In121 2.294 . S
O132 C125 1.240 . S
O133 In121 2.326 . S
O133 C125 1.252 . S
In134 O135 2.294 . S
In134 O136 2.326 . S
In134 O140 2.266 . S
In134 O141 2.326 . S
In134 O142 2.266 . S
In134 O143 2.326 . S
In134 O145 2.294 . S
In134 O146 2.326 . S
O135 In134 2.294 . S
O135 C144 1.240 . S
O136 In134 2.326 . S
O136 C144 1.252 . S
C137 O140 1.252 . S
C137 O141 1.260 . S
C138 O145 1.240 . S
C138 O146 1.252 . S
C139 O142 1.252 . S
C139 O143 1.260 . S
O140 In134 2.266 . S
O140 C137 1.252 . S
O141 In134 2.326 . S
O141 C137 1.260 . S
O142 In134 2.266 . S
O142 C139 1.252 . S
O143 In134 2.326 . S
O143 C139 1.260 . S
C144 O135 1.240 . S
C144 O136 1.252 . S
O145 In134 2.294 . S
O145 C138 1.240 . S
O146 In134 2.326 . S
O146 C138 1.252 . S
In147 O148 2.294 . S
In147 O149 2.326 . S
In147 O153 2.266 . S
In147 O154 2.326 . S
In147 O155 2.266 . S
In147 O156 2.326 . S
In147 O158 2.294 . S
In147 O159 2.326 . S
O148 In147 2.294 . S
O148 C157 1.240 . S
O149 In147 2.326 . S
O149 C157 1.252 . S
C150 O153 1.252 . S
C150 O154 1.260 . S
C151 O158 1.240 . S
C151 O159 1.252 . S
C152 O155 1.252 . S
C152 O156 1.260 . S
O153 In147 2.266 . S
O153 C150 1.252 . S
O154 In147 2.326 . S
O154 C150 1.260 . S
O155 In147 2.266 . S
O155 C152 1.252 . S
O156 In147 2.326 . S
O156 C152 1.260 . S
C157 O148 1.240 . S
C157 O149 1.252 . S
O158 In147 2.294 . S
O158 C151 1.240 . S
O159 In147 2.326 . S
O159 C151 1.252 . S
In160 O161 2.294 . S
In160 O162 2.326 . S
In160 O166 2.266 . S
In160 O167 2.326 . S
In160 O168 2.266 . S
In160 O169 2.326 . S
In160 O171 2.294 . S
In160 O172 2.326 . S
O161 In160 2.294 . S
O161 C170 1.240 . S
O162 In160 2.326 . S
O162 C170 1.252 . S
C163 O166 1.252 . S
C163 O167 1.260 . S
C164 O171 1.240 . S
C164 O172 1.252 . S
C165 O168 1.252 . S
C165 O169 1.260 . S
O166 In160 2.266 . S
O166 C163 1.252 . S
O167 In160 2.326 . S
O167 C163 1.260 . S
O168 In160 2.266 . S
O168 C165 1.252 . S
O169 In160 2.326 . S
O169 C165 1.260 . S
C170 O161 1.240 . S
C170 O162 1.252 . S
O171 In160 2.294 . S
O171 C164 1.240 . S
O172 In160 2.326 . S
O172 C164 1.252 . S
In173 O174 2.294 . S
In173 O175 2.326 . S
In173 O179 2.266 . S
In173 O180 2.326 . S
In173 O181 2.266 . S
In173 O182 2.326 . S
In173 O184 2.294 . S
In173 O185 2.326 . S
O174 In173 2.294 . S
O174 C183 1.240 . S
O175 In173 2.326 . S
O175 C183 1.252 . S
C176 O179 1.252 . S
C176 O180 1.260 . S
C177 O184 1.240 . S
C177 O185 1.252 . S
C178 O181 1.252 . S
C178 O182 1.260 . S
O179 In173 2.266 . S
O179 C176 1.252 . S
O180 In173 2.326 . S
O180 C176 1.260 . S
O181 In173 2.266 . S
O181 C178 1.252 . S
O182 In173 2.326 . S
O182 C178 1.260 . S
C183 O174 1.240 . S
C183 O175 1.252 . S
O184 In173 2.294 . S
O184 C177 1.240 . S
O185 In173 2.326 . S
O185 C177 1.252 . S
H186 C192 0.930 . S
H187 C196 0.930 . S
H188 C201 0.929 . S
H189 C199 0.929 . S
H190 C194 0.929 . S
H191 C200 0.929 . S
C192 H186 0.930 . S
C192 C193 1.367 . S
C192 C200 1.378 . S
C193 C192 1.367 . S
C193 C201 1.433 . S
C194 H190 0.929 . S
C194 C196 1.378 . S
C194 C198 1.350 . S
C195 C198 1.463 . S
C195 C200 1.350 . S
C195 N203 1.427 . S
C196 H187 0.930 . S
C196 C194 1.378 . S
C196 C197 1.367 . S
C197 C196 1.367 . S
C197 C199 1.433 . S
C198 C194 1.350 . S
C198 C195 1.463 . S
C198 N202 1.427 . S
C199 H189 0.929 . S
C199 C197 1.433 . S
C199 N202 1.384 . S
C200 H191 0.929 . S
C200 C192 1.378 . S
C200 C195 1.350 . S
C201 H188 0.929 . S
C201 C193 1.433 . S
C201 N203 1.384 . S
N202 C198 1.427 . S
N202 C199 1.384 . S
N203 C195 1.427 . S
N203 C201 1.384 . S
H204 C210 0.930 . S
H205 C214 0.930 . S
H206 C219 0.929 . S
H207 C217 0.929 . S
H208 C212 0.929 . S
H209 C218 0.929 . S
C210 H204 0.930 . S
C210 C211 1.367 . S
C210 C218 1.378 . S
C211 C210 1.367 . S
C211 C219 1.433 . S
C212 H208 0.929 . S
C212 C214 1.378 . S
C212 C216 1.350 . S
C213 C216 1.463 . S
C213 C218 1.350 . S
C213 N221 1.427 . S
C214 H205 0.930 . S
C214 C212 1.378 . S
C214 C215 1.367 . S
C215 C214 1.367 . S
C215 C217 1.433 . S
C216 C212 1.350 . S
C216 C213 1.463 . S
C216 N220 1.427 . S
C217 H207 0.929 . S
C217 C215 1.433 . S
C217 N220 1.384 . S
C218 H209 0.929 . S
C218 C210 1.378 . S
C218 C213 1.350 . S
C219 H206 0.929 . S
C219 C211 1.433 . S
C219 N221 1.384 . S
N220 C216 1.427 . S
N220 C217 1.384 . S
N221 C213 1.427 . S
N221 C219 1.384 . S
H222 C228 0.930 . S
H223 C232 0.930 . S
H224 C237 0.929 . S
H225 C235 0.929 . S
H226 C230 0.929 . S
H227 C236 0.929 . S
C228 H222 0.930 . S
C228 C229 1.367 . S
C228 C236 1.378 . S
C229 C228 1.367 . S
C229 C237 1.433 . S
C230 H226 0.929 . S
C230 C232 1.378 . S
C230 C234 1.350 . S
C231 C234 1.463 . S
C231 C236 1.350 . S
C231 N239 1.427 . S
C232 H223 0.930 . S
C232 C230 1.378 . S
C232 C233 1.367 . S
C233 C232 1.367 . S
C233 C235 1.433 . S
C234 C230 1.350 . S
C234 C231 1.463 . S
C234 N238 1.427 . S
C235 H225 0.929 . S
C235 C233 1.433 . S
C235 N238 1.384 . S
C236 H227 0.929 . S
C236 C228 1.378 . S
C236 C231 1.350 . S
C237 H224 0.929 . S
C237 C229 1.433 . S
C237 N239 1.384 . S
N238 C234 1.427 . S
N238 C235 1.384 . S
N239 C231 1.427 . S
N239 C237 1.384 . S
H240 C246 0.930 . S
H241 C250 0.930 . S
H242 C255 0.929 . S
H243 C253 0.929 . S
H244 C248 0.929 . S
H245 C254 0.929 . S
C246 H240 0.930 . S
C246 C247 1.367 . S
C246 C254 1.378 . S
C247 C246 1.367 . S
C247 C255 1.433 . S
C248 H244 0.929 . S
C248 C250 1.378 . S
C248 C252 1.350 . S
C249 C252 1.463 . S
C249 C254 1.350 . S
C249 N257 1.427 . S
C250 H241 0.930 . S
C250 C248 1.378 . S
C250 C251 1.367 . S
C251 C250 1.367 . S
C251 C253 1.433 . S
C252 C248 1.350 . S
C252 C249 1.463 . S
C252 N256 1.427 . S
C253 H243 0.929 . S
C253 C251 1.433 . S
C253 N256 1.384 . S
C254 H245 0.929 . S
C254 C246 1.378 . S
C254 C249 1.350 . S
C255 H242 0.929 . S
C255 C247 1.433 . S
C255 N257 1.384 . S
N256 C252 1.427 . S
N256 C253 1.384 . S
N257 C249 1.427 . S
N257 C255 1.384 . S
H258 C264 0.930 . S
H259 C268 0.930 . S
H260 C273 0.929 . S
H261 C271 0.929 . S
H262 C266 0.929 . S
H263 C272 0.929 . S
C264 H258 0.930 . S
C264 C265 1.367 . S
C264 C272 1.378 . S
C265 C264 1.367 . S
C265 C273 1.433 . S
C266 H262 0.929 . S
C266 C268 1.378 . S
C266 C270 1.350 . S
C267 C270 1.463 . S
C267 C272 1.350 . S
C267 N275 1.427 . S
C268 H259 0.930 . S
C268 C266 1.378 . S
C268 C269 1.367 . S
C269 C268 1.367 . S
C269 C271 1.433 . S
C270 C266 1.350 . S
C270 C267 1.463 . S
C270 N274 1.427 . S
C271 H261 0.929 . S
C271 C269 1.433 . S
C271 N274 1.384 . S
C272 H263 0.929 . S
C272 C264 1.378 . S
C272 C267 1.350 . S
C273 H260 0.929 . S
C273 C265 1.433 . S
C273 N275 1.384 . S
N274 C270 1.427 . S
N274 C271 1.384 . S
N275 C267 1.427 . S
N275 C273 1.384 . S
H276 C282 0.930 . S
H277 C286 0.930 . S
H278 C291 0.929 . S
H279 C289 0.929 . S
H280 C284 0.929 . S
H281 C290 0.929 . S
C282 H276 0.930 . S
C282 C283 1.367 . S
C282 C290 1.378 . S
C283 C282 1.367 . S
C283 C291 1.433 . S
C284 H280 0.929 . S
C284 C286 1.378 . S
C284 C288 1.350 . S
C285 C288 1.463 . S
C285 C290 1.350 . S
C285 N293 1.427 . S
C286 H277 0.930 . S
C286 C284 1.378 . S
C286 C287 1.367 . S
C287 C286 1.367 . S
C287 C289 1.433 . S
C288 C284 1.350 . S
C288 C285 1.463 . S
C288 N292 1.427 . S
C289 H279 0.929 . S
C289 C287 1.433 . S
C289 N292 1.384 . S
C290 H281 0.929 . S
C290 C282 1.378 . S
C290 C285 1.350 . S
C291 H278 0.929 . S
C291 C283 1.433 . S
C291 N293 1.384 . S
N292 C288 1.427 . S
N292 C289 1.384 . S
N293 C285 1.427 . S
N293 C291 1.384 . S
H294 C300 0.930 . S
H295 C304 0.930 . S
H296 C309 0.929 . S
H297 C307 0.929 . S
H298 C302 0.929 . S
H299 C308 0.929 . S
C300 H294 0.930 . S
C300 C301 1.367 . S
C300 C308 1.378 . S
C301 C300 1.367 . S
C301 C309 1.433 . S
C302 H298 0.929 . S
C302 C304 1.378 . S
C302 C306 1.350 . S
C303 C306 1.463 . S
C303 C308 1.350 . S
C303 N311 1.427 . S
C304 H295 0.930 . S
C304 C302 1.378 . S
C304 C305 1.367 . S
C305 C304 1.367 . S
C305 C307 1.433 . S
C306 C302 1.350 . S
C306 C303 1.463 . S
C306 N310 1.427 . S
C307 H297 0.929 . S
C307 C305 1.433 . S
C307 N310 1.384 . S
C308 H299 0.929 . S
C308 C300 1.378 . S
C308 C303 1.350 . S
C309 H296 0.929 . S
C309 C301 1.433 . S
C309 N311 1.384 . S
N310 C306 1.427 . S
N310 C307 1.384 . S
N311 C303 1.427 . S
N311 C309 1.384 . S
H312 C318 0.930 . S
H313 C322 0.930 . S
H314 C327 0.929 . S
H315 C325 0.929 . S
H316 C320 0.929 . S
H317 C326 0.929 . S
C318 H312 0.930 . S
C318 C319 1.367 . S
C318 C326 1.378 . S
C319 C318 1.367 . S
C319 C327 1.433 . S
C320 H316 0.929 . S
C320 C322 1.378 . S
C320 C324 1.350 . S
C321 C324 1.463 . S
C321 C326 1.350 . S
C321 N329 1.427 . S
C322 H313 0.930 . S
C322 C320 1.378 . S
C322 C323 1.367 . S
C323 C322 1.367 . S
C323 C325 1.433 . S
C324 C320 1.350 . S
C324 C321 1.463 . S
C324 N328 1.427 . S
C325 H315 0.929 . S
C325 C323 1.433 . S
C325 N328 1.384 . S
C326 H317 0.929 . S
C326 C318 1.378 . S
C326 C321 1.350 . S
C327 H314 0.929 . S
C327 C319 1.433 . S
C327 N329 1.384 . S
N328 C324 1.427 . S
N328 C325 1.384 . S
N329 C321 1.427 . S
N329 C327 1.384 . S
H330 C336 0.930 . S
H331 C340 0.930 . S
H332 C345 0.929 . S
H333 C343 0.929 . S
H334 C338 0.929 . S
H335 C344 0.929 . S
C336 H330 0.930 . S
C336 C337 1.367 . S
C336 C344 1.378 . S
C337 C336 1.367 . S
C337 C345 1.433 . S
C338 H334 0.929 . S
C338 C340 1.378 . S
C338 C342 1.350 . S
C339 C342 1.463 . S
C339 C344 1.350 . S
C339 N347 1.427 . S
C340 H331 0.930 . S
C340 C338 1.378 . S
C340 C341 1.367 . S
C341 C340 1.367 . S
C341 C343 1.433 . S
C342 C338 1.350 . S
C342 C339 1.463 . S
C342 N346 1.427 . S
C343 H333 0.929 . S
C343 C341 1.433 . S
C343 N346 1.384 . S
C344 H335 0.929 . S
C344 C336 1.378 . S
C344 C339 1.350 . S
C345 H332 0.929 . S
C345 C337 1.433 . S
C345 N347 1.384 . S
N346 C342 1.427 . S
N346 C343 1.384 . S
N347 C339 1.427 . S
N347 C345 1.384 . S
H348 C354 0.914 1_556 S
H349 C358 0.930 . S
H350 C363 0.929 . S
H351 C361 0.929 . S
H352 C356 0.929 . S
H353 C362 0.929 . S
C354 H348 0.914 1_554 S
C354 C355 1.367 . S
C354 C362 1.378 . S
C355 C354 1.367 . S
C355 C363 1.433 . S
C356 H352 0.929 . S
C356 C358 1.378 . S
C356 C360 1.350 . S
C357 C360 1.463 . S
C357 C362 1.350 . S
C357 N365 1.427 . S
C358 H349 0.930 . S
C358 C356 1.378 . S
C358 C359 1.367 . S
C359 C358 1.367 . S
C359 C361 1.433 . S
C360 C356 1.350 . S
C360 C357 1.463 . S
C360 N364 1.427 . S
C361 H351 0.929 . S
C361 C359 1.433 . S
C361 N364 1.384 . S
C362 H353 0.929 . S
C362 C354 1.378 . S
C362 C357 1.350 . S
C363 H350 0.929 . S
C363 C355 1.433 . S
C363 N365 1.384 . S
N364 C360 1.427 . S
N364 C361 1.384 . S
N365 C357 1.427 . S
N365 C363 1.384 . S
H366 C372 0.930 . S
H367 C376 0.930 . S
H368 C381 0.929 . S
H369 C379 0.929 . S
H370 C374 0.929 . S
H371 C380 0.929 . S
C372 H366 0.930 . S
C372 C373 1.367 . S
C372 C380 1.378 . S
C373 C372 1.367 . S
C373 C381 1.433 . S
C374 H370 0.929 . S
C374 C376 1.378 . S
C374 C378 1.350 . S
C375 C378 1.463 . S
C375 C380 1.350 . S
C375 N383 1.427 . S
C376 H367 0.930 . S
C376 C374 1.378 . S
C376 C377 1.367 . S
C377 C376 1.367 . S
C377 C379 1.433 . S
C378 C374 1.350 . S
C378 C375 1.463 . S
C378 N382 1.427 . S
C379 H369 0.929 . S
C379 C377 1.433 . S
C379 N382 1.384 . S
C380 H371 0.929 . S
C380 C372 1.378 . S
C380 C375 1.350 . S
C381 H368 0.929 . S
C381 C373 1.433 . S
C381 N383 1.384 . S
N382 C378 1.427 . S
N382 C379 1.384 . S
N383 C375 1.427 . S
N383 C381 1.384 . S
H384 C390 0.930 . S
H385 C394 0.930 . S
H386 C399 0.929 . S
H387 C397 0.929 . S
H388 C392 0.929 . S
H389 C398 0.929 . S
C390 H384 0.930 . S
C390 C391 1.367 . S
C390 C398 1.378 . S
C391 C390 1.367 . S
C391 C399 1.433 . S
C392 H388 0.929 . S
C392 C394 1.378 . S
C392 C396 1.350 . S
C393 C396 1.463 . S
C393 C398 1.350 . S
C393 N401 1.427 . S
C394 H385 0.930 . S
C394 C392 1.378 . S
C394 C395 1.367 . S
C395 C394 1.367 . S
C395 C397 1.433 . S
C396 C392 1.350 . S
C396 C393 1.463 . S
C396 N400 1.427 . S
C397 H387 0.929 . S
C397 C395 1.433 . S
C397 N400 1.384 . S
C398 H389 0.929 . S
C398 C390 1.378 . S
C398 C393 1.350 . S
C399 H386 0.929 . S
C399 C391 1.433 . S
C399 N401 1.384 . S
N400 C396 1.427 . S
N400 C397 1.384 . S
N401 C393 1.427 . S
N401 C399 1.384 . S
H402 C408 0.930 . S
H403 C412 0.930 . S
H404 C417 0.929 . S
H405 C415 0.929 . S
H406 C410 0.929 . S
H407 C416 0.929 . S
C408 H402 0.930 . S
C408 C409 1.367 . S
C408 C416 1.378 . S
C409 C408 1.367 . S
C409 C417 1.433 . S
C410 H406 0.929 . S
C410 C412 1.378 . S
C410 C414 1.350 . S
C411 C414 1.463 . S
C411 C416 1.350 . S
C411 N419 1.427 . S
C412 H403 0.930 . S
C412 C410 1.378 . S
C412 C413 1.367 . S
C413 C412 1.367 . S
C413 C415 1.433 . S
C414 C410 1.350 . S
C414 C411 1.463 . S
C414 N418 1.427 . S
C415 H405 0.929 . S
C415 C413 1.433 . S
C415 N418 1.384 . S
C416 H407 0.929 . S
C416 C408 1.378 . S
C416 C411 1.350 . S
C417 H404 0.929 . S
C417 C409 1.433 . S
C417 N419 1.384 . S
N418 C414 1.427 . S
N418 C415 1.384 . S
N419 C411 1.427 . S
N419 C417 1.384 . S
H420 C426 0.930 . S
H421 C430 0.930 . S
H422 C435 0.929 . S
H423 C433 0.929 . S
H424 C428 0.929 . S
H425 C434 0.929 . S
C426 H420 0.930 . S
C426 C427 1.367 . S
C426 C434 1.378 . S
C427 C426 1.367 . S
C427 C435 1.433 . S
C428 H424 0.929 . S
C428 C430 1.378 . S
C428 C432 1.350 . S
C429 C432 1.463 . S
C429 C434 1.350 . S
C429 N437 1.427 . S
C430 H421 0.930 . S
C430 C428 1.378 . S
C430 C431 1.367 . S
C431 C430 1.367 . S
C431 C433 1.433 . S
C432 C428 1.350 . S
C432 C429 1.463 . S
C432 N436 1.427 . S
C433 H423 0.929 . S
C433 C431 1.433 . S
C433 N436 1.384 . S
C434 H425 0.929 . S
C434 C426 1.378 . S
C434 C429 1.350 . S
C435 H422 0.929 . S
C435 C427 1.433 . S
C435 N437 1.384 . S
N436 C432 1.427 . S
N436 C433 1.384 . S
N437 C429 1.427 . S
N437 C435 1.384 . S
H438 C444 0.930 . S
H439 C448 0.930 . S
H440 C453 0.929 . S
H441 C451 0.929 . S
H442 C446 0.929 . S
H443 C452 0.929 . S
C444 H438 0.930 . S
C444 C445 1.367 . S
C444 C452 1.378 . S
C445 C444 1.367 . S
C445 C453 1.433 . S
C446 H442 0.929 . S
C446 C448 1.378 . S
C446 C450 1.350 . S
C447 C450 1.463 . S
C447 C452 1.350 . S
C447 N455 1.427 . S
C448 H439 0.930 . S
C448 C446 1.378 . S
C448 C449 1.367 . S
C449 C448 1.367 . S
C449 C451 1.433 . S
C450 C446 1.350 . S
C450 C447 1.463 . S
C450 N454 1.427 . S
C451 H441 0.929 . S
C451 C449 1.433 . S
C451 N454 1.384 . S
C452 H443 0.929 . S
C452 C444 1.378 . S
C452 C447 1.350 . S
C453 H440 0.929 . S
C453 C445 1.433 . S
C453 N455 1.384 . S
N454 C450 1.427 . S
N454 C451 1.384 . S
N455 C447 1.427 . S
N455 C453 1.384 . S
H456 C462 0.930 . S
H457 C466 0.930 . S
H458 C471 0.929 . S
H459 C469 0.929 . S
H460 C464 0.929 . S
H461 C470 0.929 . S
C462 H456 0.930 . S
C462 C463 1.367 . S
C462 C470 1.378 . S
C463 C462 1.367 . S
C463 C471 1.433 . S
C464 H460 0.929 . S
C464 C466 1.378 . S
C464 C468 1.350 . S
C465 C468 1.463 . S
C465 C470 1.350 . S
C465 N473 1.427 . S
C466 H457 0.930 . S
C466 C464 1.378 . S
C466 C467 1.367 1_556 S
C467 C466 1.367 1_554 S
C467 C469 1.433 . S
C468 C464 1.350 . S
C468 C465 1.463 . S
C468 N472 1.427 . S
C469 H459 0.929 . S
C469 C467 1.433 . S
C469 N472 1.384 1_554 S
C470 H461 0.929 . S
C470 C462 1.378 . S
C470 C465 1.350 . S
C471 H458 0.929 . S
C471 C463 1.433 . S
C471 N473 1.384 . S
N472 C468 1.427 . S
N472 C469 1.384 1_556 S
N473 C465 1.427 . S
N473 C471 1.384 . S
H474 C480 0.930 . S
H475 C484 0.930 . S
H476 C489 0.929 . S
H477 C487 0.929 . S
H478 C482 0.929 . S
H479 C488 0.929 . S
C480 H474 0.930 . S
C480 C481 1.367 . S
C480 C488 1.378 . S
C481 C480 1.367 . S
C481 C489 1.433 . S
C482 H478 0.929 . S
C482 C484 1.378 . S
C482 C486 1.350 . S
C483 C486 1.463 . S
C483 C488 1.350 . S
C483 N491 1.427 . S
C484 H475 0.930 . S
C484 C482 1.378 . S
C484 C485 1.367 . S
C485 C484 1.367 . S
C485 C487 1.433 . S
C486 C482 1.350 . S
C486 C483 1.463 . S
C486 N490 1.427 . S
C487 H477 0.929 . S
C487 C485 1.433 . S
C487 N490 1.384 . S
C488 H479 0.929 . S
C488 C480 1.378 . S
C488 C483 1.350 . S
C489 H476 0.929 . S
C489 C481 1.433 . S
C489 N491 1.384 . S
N490 C486 1.427 . S
N490 C487 1.384 . S
N491 C483 1.427 . S
N491 C489 1.384 . S
H492 C498 0.930 . S
H493 C502 0.930 . S
H494 C507 0.929 . S
H495 C505 0.929 . S
H496 C500 0.929 . S
H497 C506 0.929 . S
C498 H492 0.930 . S
C498 C499 1.367 . S
C498 C506 1.378 . S
C499 C498 1.367 . S
C499 C507 1.433 . S
C500 H496 0.929 . S
C500 C502 1.378 . S
C500 C504 1.350 . S
C501 C504 1.463 . S
C501 C506 1.350 . S
C501 N509 1.427 . S
C502 H493 0.930 . S
C502 C500 1.378 . S
C502 C503 1.367 . S
C503 C502 1.367 . S
C503 C505 1.433 . S
C504 C500 1.350 . S
C504 C501 1.463 . S
C504 N508 1.427 . S
C505 H495 0.929 . S
C505 C503 1.433 . S
C505 N508 1.384 . S
C506 H497 0.929 . S
C506 C498 1.378 . S
C506 C501 1.350 . S
C507 H494 0.929 . S
C507 C499 1.433 . S
C507 N509 1.384 . S
N508 C504 1.427 . S
N508 C505 1.384 . S
N509 C501 1.427 . S
N509 C507 1.384 . S
H510 C516 0.930 . S
H511 C520 0.930 . S
H512 C525 0.929 . S
H513 C523 0.929 . S
H514 C518 0.929 . S
H515 C524 0.929 . S
C516 H510 0.930 . S
C516 C517 1.367 . S
C516 C524 1.378 . S
C517 C516 1.367 . S
C517 C525 1.433 . S
C518 H514 0.929 . S
C518 C520 1.378 . S
C518 C522 1.350 . S
C519 C522 1.463 . S
C519 C524 1.350 . S
C519 N527 1.427 . S
C520 H511 0.930 . S
C520 C518 1.378 . S
C520 C521 1.367 . S
C521 C520 1.367 . S
C521 C523 1.433 . S
C522 C518 1.350 . S
C522 C519 1.463 . S
C522 N526 1.427 . S
C523 H513 0.929 . S
C523 C521 1.433 . S
C523 N526 1.384 . S
C524 H515 0.929 . S
C524 C516 1.378 . S
C524 C519 1.350 . S
C525 H512 0.929 . S
C525 C517 1.433 . S
C525 N527 1.384 . S
N526 C522 1.427 . S
N526 C523 1.384 . S
N527 C519 1.427 . S
N527 C525 1.384 . S
H528 C534 0.930 . S
H529 C538 0.930 . S
H530 C543 0.929 . S
H531 C541 0.929 . S
H532 C536 0.929 . S
H533 C542 0.929 . S
C534 H528 0.930 . S
C534 C535 1.367 . S
C534 C542 1.378 . S
C535 C534 1.367 . S
C535 C543 1.433 . S
C536 H532 0.929 . S
C536 C538 1.378 . S
C536 C540 1.350 . S
C537 C540 1.463 . S
C537 C542 1.350 . S
C537 N545 1.427 . S
C538 H529 0.930 . S
C538 C536 1.378 . S
C538 C539 1.367 . S
C539 C538 1.367 . S
C539 C541 1.433 . S
C540 C536 1.350 . S
C540 C537 1.463 . S
C540 N544 1.427 . S
C541 H531 0.929 . S
C541 C539 1.433 . S
C541 N544 1.384 . S
C542 H533 0.929 . S
C542 C534 1.378 . S
C542 C537 1.350 . S
C543 H530 0.929 . S
C543 C535 1.433 . S
C543 N545 1.384 . S
N544 C540 1.427 . S
N544 C541 1.384 . S
N545 C537 1.427 . S
N545 C543 1.384 . S
H546 C552 0.930 . S
H547 C556 0.930 . S
H548 C561 0.929 . S
H549 C559 0.929 . S
H550 C554 0.929 . S
H551 C560 0.929 . S
C552 H546 0.930 . S
C552 C553 1.367 . S
C552 C560 1.378 . S
C553 C552 1.367 . S
C553 C561 1.433 . S
C554 H550 0.929 . S
C554 C556 1.378 . S
C554 C558 1.350 . S
C555 C558 1.463 . S
C555 C560 1.350 . S
C555 N563 1.427 . S
C556 H547 0.930 . S
C556 C554 1.378 . S
C556 C557 1.367 . S
C557 C556 1.367 . S
C557 C559 1.433 . S
C558 C554 1.350 . S
C558 C555 1.463 . S
C558 N562 1.427 . S
C559 H549 0.929 . S
C559 C557 1.433 . S
C559 N562 1.384 . S
C560 H551 0.929 . S
C560 C552 1.378 . S
C560 C555 1.350 . S
C561 H548 0.929 . S
C561 C553 1.433 . S
C561 N563 1.384 . S
N562 C558 1.427 . S
N562 C559 1.384 . S
N563 C555 1.427 . S
N563 C561 1.384 . S
H564 C570 0.930 . S
H565 C574 0.930 . S
H566 C579 0.929 . S
H567 C577 0.929 . S
H568 C572 0.929 . S
H569 C578 0.929 . S
C570 H564 0.930 . S
C570 C571 1.367 . S
C570 C578 1.378 . S
C571 C570 1.367 . S
C571 C579 1.433 . S
C572 H568 0.929 . S
C572 C574 1.378 . S
C572 C576 1.350 . S
C573 C576 1.463 . S
C573 C578 1.350 . S
C573 N581 1.427 . S
C574 H565 0.930 . S
C574 C572 1.378 . S
C574 C575 1.367 . S
C575 C574 1.367 . S
C575 C577 1.433 . S
C576 C572 1.350 . S
C576 C573 1.463 . S
C576 N580 1.427 . S
C577 H567 0.929 . S
C577 C575 1.433 . S
C577 N580 1.384 . S
C578 H569 0.929 . S
C578 C570 1.378 . S
C578 C573 1.350 . S
C579 H566 0.929 . S
C579 C571 1.433 . S
C579 N581 1.384 . S
N580 C576 1.427 . S
N580 C577 1.384 . S
N581 C573 1.427 . S
N581 C579 1.384 . S
H582 C588 0.930 . S
H583 C592 0.930 . S
H584 C597 0.929 . S
H585 C595 0.929 . S
H586 C590 0.929 . S
H587 C596 0.929 . S
C588 H582 0.930 . S
C588 C589 1.367 . S
C588 C596 1.378 . S
C589 C588 1.367 . S
C589 C597 1.433 . S
C590 H586 0.929 . S
C590 C592 1.378 1_554 S
C590 C594 1.350 . S
C591 C594 1.463 . S
C591 C596 1.350 . S
C591 N599 1.427 . S
C592 H583 0.930 . S
C592 C590 1.378 1_556 S
C592 C593 1.367 . S
C593 C592 1.367 . S
C593 C595 1.433 . S
C594 C590 1.350 . S
C594 C591 1.463 . S
C594 N598 1.423 1_554 S
C595 H585 0.929 . S
C595 C593 1.433 . S
C595 N598 1.388 . S
C596 H587 0.929 . S
C596 C588 1.378 . S
C596 C591 1.350 . S
C597 H584 0.929 . S
C597 C589 1.433 . S
C597 N599 1.384 . S
N598 C594 1.423 1_556 S
N598 C595 1.388 . S
N599 C591 1.427 . S
N599 C597 1.384 . S
H600 C606 0.930 . S
H601 C610 0.930 . S
H602 C615 0.929 . S
H603 C613 0.929 . S
H604 C608 0.929 . S
H605 C614 0.929 . S
C606 H600 0.930 . S
C606 C607 1.367 . S
C606 C614 1.378 . S
C607 C606 1.367 . S
C607 C615 1.433 . S
C608 H604 0.929 . S
C608 C610 1.378 . S
C608 C612 1.350 . S
C609 C612 1.463 . S
C609 C614 1.350 . S
C609 N617 1.427 . S
C610 H601 0.930 . S
C610 C608 1.378 . S
C610 C611 1.367 . S
C611 C610 1.367 . S
C611 C613 1.433 . S
C612 C608 1.350 . S
C612 C609 1.463 . S
C612 N616 1.427 . S
C613 H603 0.929 . S
C613 C611 1.433 . S
C613 N616 1.384 . S
C614 H605 0.929 . S
C614 C606 1.378 . S
C614 C609 1.350 . S
C615 H602 0.929 . S
C615 C607 1.433 . S
C615 N617 1.384 . S
N616 C612 1.427 . S
N616 C613 1.384 . S
N617 C609 1.427 . S
N617 C615 1.384 . S
C197 C178 1.601 . S
C193 C8 1.558 . S
C211 C26 1.560 . S
C215 C113 1.607 . S
C229 C50 1.565 . S
C233 C131 1.608 . S
C247 C68 1.553 . S
C251 C144 1.597 . S
C269 C152 1.607 . S
C265 C80 1.568 . S
C283 C104 1.565 . S
C287 C164 1.604 . S
C301 C32 1.572 . S
C305 C126 1.616 . S
C319 C44 1.568 . S
C323 C139 1.604 . S
C337 C62 1.561 . S
C341 C157 1.600 . S
C359 C163 1.611 . S
C355 C86 1.563 1_554 S
C377 C183 1.595 . S
C373 C98 1.550 . S
C395 C118 1.605 . S
C391 C14 1.562 . S
C409 C7 1.537 . S
C413 C124 1.586 . S
C427 C25 1.532 . S
C431 C137 1.586 . S
C449 C151 1.582 . S
C445 C52 1.533 . S
C463 C70 1.553 . S
C467 C165 1.592 . S
C485 C177 1.579 . S
C481 C79 1.527 . S
C503 C112 1.581 . S
C499 C106 1.543 . S
C521 C176 1.585 . S
C517 C34 1.537 . S
C535 C43 1.539 . S
C539 C111 1.585 . S
C557 C125 1.585 . S
C553 C61 1.535 . S
C571 C88 1.536 . S
C575 C138 1.578 . S
C589 C97 1.543 . S
C593 C150 1.588 . S
C607 C16 1.542 . S
C611 C170 1.586 . S
