# Generated by pormake.
# Topology zzz, (3,6)-cn, num edge types: 1
# Building blocks:
#     Node 0, Type 0, BuildingBlock: MIDCAF_clean_linker_0, # of connection points: 3
#     Node 1, Type 0, BuildingBlock: MIDCAF_clean_linker_0, # of connection points: 3
#     Node 2, Type 0, BuildingBlock: MIDCAF_clean_linker_0, # of connection points: 3
#     Node 3, Type 0, BuildingBlock: MIDCAF_clean_linker_0, # of connection points: 3
#     Node 4, Type 0, BuildingBlock: MIDCAF_clean_linker_0, # of connection points: 3
#     Node 5, Type 0, BuildingBlock: MIDCAF_clean_linker_0, # of connection points: 3
#     Node 6, Type 0, BuildingBlock: MIDCAF_clean_linker_0, # of connection points: 3
#     Node 7, Type 0, BuildingBlock: MIDCAF_clean_linker_0, # of connection points: 3
#     Node 8, Type 1, BuildingBlock: NUHQIS_clean_sbu_0, # of connection points: 6
#     Node 9, Type 1, BuildingBlock: NUHQIS_clean_sbu_0, # of connection points: 6
#     Node 10, Type 1, BuildingBlock: NUHQIS_clean_sbu_0, # of connection points: 6
#     Node 11, Type 1, BuildingBlock: NUHQIS_clean_sbu_0, # of connection points: 6
#     Edge 12, Type (0, 1), BuildingBlock: OJICUG_clean_linker_0, # of connection points: 2
#     Edge 13, Type (0, 1), BuildingBlock: OJICUG_clean_linker_0, # of connection points: 2
#     Edge 14, Type (0, 1), BuildingBlock: OJICUG_clean_linker_0, # of connection points: 2
#     Edge 15, Type (0, 1), BuildingBlock: OJICUG_clean_linker_0, # of connection points: 2
#     Edge 16, Type (0, 1), BuildingBlock: OJICUG_clean_linker_0, # of connection points: 2
#     Edge 17, Type (0, 1), BuildingBlock: OJICUG_clean_linker_0, # of connection points: 2
#     Edge 18, Type (0, 1), BuildingBlock: OJICUG_clean_linker_0, # of connection points: 2
#     Edge 19, Type (0, 1), BuildingBlock: OJICUG_clean_linker_0, # of connection points: 2
#     Edge 20, Type (0, 1), BuildingBlock: OJICUG_clean_linker_0, # of connection points: 2
#     Edge 21, Type (0, 1), BuildingBlock: OJICUG_clean_linker_0, # of connection points: 2
#     Edge 22, Type (0, 1), BuildingBlock: OJICUG_clean_linker_0, # of connection points: 2
#     Edge 23, Type (0, 1), BuildingBlock: OJICUG_clean_linker_0, # of connection points: 2
#     Edge 24, Type (0, 1), BuildingBlock: OJICUG_clean_linker_0, # of connection points: 2
#     Edge 25, Type (0, 1), BuildingBlock: OJICUG_clean_linker_0, # of connection points: 2
#     Edge 26, Type (0, 1), BuildingBlock: OJICUG_clean_linker_0, # of connection points: 2
#     Edge 27, Type (0, 1), BuildingBlock: OJICUG_clean_linker_0, # of connection points: 2
#     Edge 28, Type (0, 1), BuildingBlock: OJICUG_clean_linker_0, # of connection points: 2
#     Edge 29, Type (0, 1), BuildingBlock: OJICUG_clean_linker_0, # of connection points: 2
#     Edge 30, Type (0, 1), BuildingBlock: OJICUG_clean_linker_0, # of connection points: 2
#     Edge 31, Type (0, 1), BuildingBlock: OJICUG_clean_linker_0, # of connection points: 2
#     Edge 32, Type (0, 1), BuildingBlock: OJICUG_clean_linker_0, # of connection points: 2
#     Edge 33, Type (0, 1), BuildingBlock: OJICUG_clean_linker_0, # of connection points: 2
#     Edge 34, Type (0, 1), BuildingBlock: OJICUG_clean_linker_0, # of connection points: 2
#     Edge 35, Type (0, 1), BuildingBlock: OJICUG_clean_linker_0, # of connection points: 2
# Relax obj value: 0.480
# Max RMSD: 0.251
# Mean RMSD: 0.235
data_MOF--net-zzz--node1-NUHQIS_clean_sbu_0--node2-MIDCAF_clean_linker_0--edge1-OJICUG_clean_linker_0
_symmetry_space_group_name_H-M    P1
_symmetry_Int_Tables_number       1
_symmetry_cell_setting            triclinic
loop_
_symmetry_equiv_pos_as_xyz
'x, y, z'
_cell_length_a     45.819569
_cell_length_b     45.757408
_cell_length_c     14.903627
_cell_angle_alpha  89.63998
_cell_angle_beta   90.069066
_cell_angle_gamma 89.904092
loop_
_atom_site_label
_atom_site_type_symbol
_atom_site_fract_x
_atom_site_fract_y
_atom_site_fract_z
_atom_type_partial_charge
C0 C 0.83114 0.51835 0.50714 0.0
C1 C 0.84416 0.49838 0.56808 0.0
C2 C 0.83007 0.47147 0.58255 0.0
C3 C 0.80531 0.46385 0.53289 0.0
H4 H 0.72518 0.52642 0.22602 0.0
H5 H 0.68322 0.54277 0.13488 0.0
H6 H 0.64002 0.46071 0.18813 0.0
H7 H 0.68163 0.44462 0.27739 0.0
H8 H 0.75274 0.41014 0.12994 0.0
H9 H 0.78556 0.38193 0.03539 0.0
H10 H 0.84315 0.36865 0.26213 0.0
H11 H 0.80998 0.39543 0.35643 0.0
H12 H 0.79794 0.52564 0.40666 0.0
H13 H 0.84098 0.5395 0.49502 0.0
H14 H 0.83929 0.45531 0.62779 0.0
H15 H 0.79636 0.4421 0.54165 0.0
N16 N 0.74991 0.48451 0.36363 0.0
N17 N 0.74236 0.44505 0.2648 0.0
N18 N 0.78179 0.44416 0.36372 0.0
C19 C 0.7336 0.47126 0.29806 0.0
C20 C 0.7665 0.43143 0.29694 0.0
C21 C 0.77394 0.47037 0.39786 0.0
C22 C 0.70656 0.48436 0.25966 0.0
C23 C 0.70631 0.51234 0.22011 0.0
C24 C 0.68243 0.5215 0.167 0.0
C25 C 0.65815 0.50305 0.15374 0.0
C26 C 0.65803 0.4757 0.19732 0.0
C27 C 0.68194 0.46643 0.24868 0.0
C28 C 0.77948 0.40617 0.2497 0.0
C29 C 0.77178 0.4001 0.16042 0.0
C30 C 0.79072 0.38403 0.10599 0.0
C31 C 0.81772 0.37413 0.13984 0.0
C32 C 0.82285 0.37616 0.23271 0.0
C33 C 0.80386 0.39195 0.28707 0.0
C34 C 0.7936 0.48285 0.46742 0.0
C35 C 0.8061 0.51068 0.45744 0.0
C36 C 0.01269 0.82418 0.47569 0.0
C37 C 0.03182 0.83723 0.53826 0.0
C38 C 0.05818 0.8227 0.5577 0.0
C39 C 0.06616 0.79737 0.51147 0.0
H40 H 1.00787 0.71428 0.20791 0.0
H41 H 0.99329 0.67165 0.11831 0.0
H42 H 0.07489 0.62932 0.18439 0.0
H43 H 0.08932 0.67176 0.27146 0.0
H44 H 0.12186 0.74367 0.11224 0.0
H45 H 0.14849 0.77701 0.01422 0.0
H46 H 0.16137 0.83557 0.23732 0.0
H47 H 0.13606 0.80193 0.33501 0.0
H48 H 1.00649 0.79035 0.37736 0.0
H49 H 0.99198 0.83438 0.45969 0.0
H50 H 0.07374 0.83193 0.60429 0.0
H51 H 0.08757 0.78807 0.52387 0.0
N52 N 0.04798 0.74056 0.34676 0.0
N53 N 0.08804 0.73278 0.25003 0.0
N54 N 0.08747 0.77334 0.34386 0.0
C55 C 0.06196 0.72379 0.28377 0.0
C56 C 0.10086 0.7576 0.27938 0.0
C57 C 0.06133 0.76529 0.37827 0.0
C58 C 0.04959 0.6962 0.24771 0.0
C59 C 0.02219 0.69545 0.20527 0.0
C60 C 0.01406 0.67118 0.15302 0.0
C61 C 0.03296 0.64698 0.14352 0.0
C62 C 0.0596 0.64728 0.1905 0.0
C63 C 0.06788 0.67163 0.24084 0.0
C64 C 0.1257 0.77084 0.23046 0.0
C65 C 0.13152 0.76303 0.14117 0.0
C66 C 0.14667 0.78228 0.08474 0.0
C67 C 0.15595 0.80965 0.11667 0.0
C68 C 0.15431 0.81497 0.20942 0.0
C69 C 0.1394 0.7957 0.26575 0.0
C70 C 0.04804 0.7855 0.44468 0.0
C71 C 0.0207 0.79857 0.42951 0.0
C72 C 0.70866 1.00108 0.45443 0.0
C73 C 0.69277 0.02128 0.50689 0.0
C74 C 0.70295 0.05026 0.50975 0.0
C75 C 0.727 0.05912 0.45897 0.0
H76 H 0.81384 0.99871 0.16125 0.0
H77 H 0.85712 0.985 0.07341 0.0
H78 H 0.89955 0.06488 0.15401 0.0
H79 H 0.85648 0.07834 0.24036 0.0
H80 H 0.78388 0.1092 0.05941 0.0
H81 H 0.7515 0.13653 0.95963 0.0
H82 H 0.69346 0.15284 0.18246 0.0
H83 H 0.72612 0.12678 0.28157 0.0
H84 H 0.74366 0.99449 0.35962 0.0
H85 H 0.70188 0.97847 0.45111 0.0
H86 H 0.69141 0.0668 0.54738 0.0
H87 H 0.7331 0.08199 0.4602 0.0
N88 N 0.7871 0.03846 0.30561 0.0
N89 N 0.79489 0.07729 0.20304 0.0
N90 N 0.75371 0.07741 0.29463 0.0
C91 C 0.804 0.05179 0.24121 0.0
C92 C 0.76972 0.09018 0.22919 0.0
C93 C 0.76191 0.05184 0.33355 0.0
C94 C 0.83198 0.03938 0.20867 0.0
C95 C 0.83286 0.01273 0.16247 0.0
C96 C 0.8575 1.00515 0.11111 0.0
C97 C 0.88187 0.02392 0.10578 0.0
C98 C 0.88146 0.0497 0.15681 0.0
C99 C 0.85677 0.05742 0.20669 0.0
C100 C 0.75687 0.11477 0.17756 0.0
C101 C 0.76483 0.11973 0.0877 0.0
C102 C 0.74616 0.13529 0.03032 0.0
C103 C 0.7192 0.14588 0.06189 0.0
C104 C 0.71377 0.14484 0.15479 0.0
C105 C 0.73244 0.12948 0.21198 0.0
C106 C 0.74184 0.03949 0.40279 0.0
C107 C 0.73298 1.01009 0.40302 0.0
C108 C 0.38345 0.70934 0.2601 0.0
C109 C 0.37774 0.71574 0.16927 0.0
C110 C 0.38409 0.74398 0.13691 0.0
C111 C 0.40041 0.76332 0.18908 0.0
H112 H 0.44157 0.84586 0.22701 0.0
H113 H 0.45599 0.88443 0.12488 0.0
H114 H 0.54641 0.86081 0.16043 0.0
H115 H 0.53182 0.82125 0.26498 0.0
H116 H 0.4563 0.74394 0.56126 0.0
H117 H 0.47172 0.70121 0.64548 0.0
H118 H 0.54977 0.69595 0.48367 0.0
H119 H 0.5333 0.73865 0.39666 0.0
H120 H 0.40611 0.72171 0.37902 0.0
H121 H 0.37869 0.68801 0.28819 0.0
H122 H 0.37916 0.74996 0.06808 0.0
H123 H 0.40762 0.7836 0.15876 0.0
N124 N 0.44796 0.79306 0.27695 0.0
N125 N 0.49053 0.78796 0.36489 0.0
N126 N 0.45161 0.75463 0.37914 0.0
C127 C 0.47464 0.80321 0.30162 0.0
C128 C 0.47844 0.76373 0.40513 0.0
C129 C 0.43629 0.76887 0.31486 0.0
C130 C 0.48546 0.82997 0.25382 0.0
C131 C 0.46466 0.84888 0.21467 0.0
C132 C 0.4729 0.87111 0.15562 0.0
C133 C 0.50227 0.8754 0.13301 0.0
C134 C 0.52355 0.85798 0.17643 0.0
C135 C 0.5152 0.83539 0.2364 0.0
C136 C 0.49365 0.74494 0.47259 0.0
C137 C 0.4773 0.73431 0.54564 0.0
C138 C 0.48623 0.70956 0.59419 0.0
C139 C 0.51193 0.69444 0.57144 0.0
C140 C 0.52953 0.70647 0.50249 0.0
C141 C 0.52046 0.73141 0.45354 0.0
C142 C 0.41042 0.75468 0.27452 0.0
C143 C 0.39958 0.72867 0.31226 0.0
C144 C 0.20349 0.55155 0.98477 0.0
C145 C 0.19339 0.52258 0.97974 0.0
C146 C 0.20938 0.50078 0.02642 0.0
C147 C 0.23388 0.50809 0.07947 0.0
H148 H 0.31823 0.4912 0.33196 0.0
H149 H 0.36263 0.48048 0.41988 0.0
H150 H 0.40205 0.55959 0.31874 0.0
H151 H 0.3581 0.57004 0.23154 0.0
H152 H 0.25455 0.63643 0.22036 0.0
H153 H 0.22345 0.66885 0.30685 0.0
H154 H 0.23088 0.60936 0.53386 0.0
H155 H 0.2642 0.57963 0.44987 0.0
H156 H 0.23376 0.58156 0.04218 0.0
H157 H 0.19185 0.56918 0.95172 0.0
H158 H 0.2026 0.47816 0.02368 0.0
H159 H 0.24475 0.49113 0.11803 0.0
N160 N 0.28877 0.53286 0.18118 0.0
N161 N 0.29752 0.56791 0.2938 0.0
N162 N 0.25596 0.57181 0.20397 0.0
C163 C 0.30612 0.54374 0.24845 0.0
C164 C 0.27266 0.58207 0.2715 0.0
C165 C 0.26348 0.54733 0.15848 0.0
C166 C 0.3349 0.53122 0.27369 0.0
C167 C 0.33698 0.50542 0.32515 0.0
C168 C 0.3623 0.49946 0.3761 0.0
C169 C 0.38571 0.51942 0.37722 0.0
C170 C 0.38435 0.54392 0.32003 0.0
C171 C 0.35931 0.54972 0.26913 0.0
C172 C 0.26114 0.60543 0.32842 0.0
C173 C 0.25025 0.63124 0.29014 0.0
C174 C 0.23197 0.64952 0.33978 0.0
C175 C 0.22273 0.64127 0.42671 0.0
C176 C 0.23668 0.61699 0.46753 0.0
C177 C 0.25592 0.59951 0.41908 0.0
C178 C 0.24278 0.53737 0.08745 0.0
C179 C 0.22767 0.55874 0.03741 0.0
C180 C 0.98217 0.20076 0.93246 0.0
C181 C 1.01007 0.18795 0.93835 0.0
C182 C 0.03088 0.20167 0.99431 0.0
C183 C 0.02338 0.22631 0.04625 0.0
H184 H 0.98921 0.35438 0.16896 0.0
H185 H 1.00141 0.39549 0.26707 0.0
H186 H 0.03007 0.33458 0.47155 0.0
H187 H 0.01733 0.29384 0.37378 0.0
H188 H 0.9237 0.28084 0.38247 0.0
H189 H 0.89281 0.24896 0.47282 0.0
H190 H 0.87683 0.19539 0.23979 0.0
H191 H 0.90604 0.22787 0.14977 0.0
H192 H 0.95261 0.23329 0.97986 0.0
H193 H 0.96517 0.19102 0.89207 0.0
H194 H 0.05277 0.19293 1.00001 0.0
H195 H 0.0393 0.23519 0.09239 0.0
N196 N 0.99928 0.28052 0.15006 0.0
N197 N 0.96047 0.28974 0.25048 0.0
N198 N 0.9566 0.25213 0.14644 0.0
C199 C 0.98725 0.29683 0.21779 0.0
C200 C 0.94492 0.2675 0.21478 0.0
C201 C 0.98348 0.25811 0.11336 0.0
C202 C 1.003 0.32093 0.2629 0.0
C203 C 0.99923 0.34994 0.2335 0.0
C204 C 1.00604 0.37348 0.29018 0.0
C205 C 0.01642 0.3685 0.37814 0.0
C206 C 0.0217 0.33938 0.40508 0.0
C207 C 0.01491 0.31596 0.34847 0.0
C208 C 0.91851 0.256 0.25998 0.0
C209 C 0.91253 0.26297 0.34982 0.0
C210 C 0.89493 0.24451 0.40185 0.0
C211 C 0.88351 0.21862 0.36511 0.0
C212 C 0.88551 0.2147 0.27171 0.0
C213 C 0.90272 0.23328 0.21969 0.0
C214 C 0.99489 0.23778 0.04351 0.0
C215 C 0.97482 0.22518 0.98363 0.0
C216 C 0.32844 0.9722 0.89508 0.0
C217 C 0.34324 0.9987 0.90927 0.0
C218 C 0.33073 0.01889 0.96958 0.0
C219 C 0.30534 0.01187 0.01854 0.0
H220 H 0.17553 0.9789 0.13372 0.0
H221 H 0.13443 0.99204 0.23112 0.0
H222 H 0.19525 0.02033 0.43436 0.0
H223 H 0.23594 1.00656 0.33747 0.0
H224 H 0.2488 0.91324 0.34924 0.0
H225 H 0.28067 0.88333 0.44317 0.0
H226 H 0.33663 0.86794 0.21476 0.0
H227 H 0.30428 0.89634 0.12104 0.0
H228 H 0.29379 0.94374 0.93554 0.0
H229 H 0.33728 0.95589 0.85031 0.0
H230 H 0.34118 0.03971 0.98154 0.0
H231 H 0.29748 0.027 0.06866 0.0
N232 N 0.24909 0.98838 0.11403 0.0
N233 N 0.24036 0.94977 0.21644 0.0
N234 N 0.27796 0.94587 0.11184 0.0
C235 C 0.23294 0.9764 0.18242 0.0
C236 C 0.26279 0.93429 0.18124 0.0
C237 C 0.27158 0.97263 0.07763 0.0
C238 C 0.20889 0.9923 0.22734 0.0
C239 C 0.17995 0.98895 0.19789 0.0
C240 C 0.15643 0.99635 0.2541 0.0
C241 C 0.16138 1.00693 0.34151 0.0
C242 C 0.19047 0.0118 0.36835 0.0
C243 C 0.21386 1.00439 0.31228 0.0
C244 C 0.27479 0.90833 0.2286 0.0
C245 C 0.26724 0.90244 0.3183 0.0
C246 C 0.28566 0.88539 0.3724 0.0
C247 C 0.31204 0.87432 0.33786 0.0
C248 C 0.31683 0.87632 0.24477 0.0
C249 C 0.29832 0.89304 0.19069 0.0
C250 C 0.29201 0.98444 1.00868 0.0
C251 C 0.30335 0.96519 0.94416 0.0
C252 C 0.44021 0.32592 0.36767 0.0
C253 C 0.4551 0.31849 0.44725 0.0
C254 C 0.45824 0.28875 0.4696 0.0
C255 C 0.45324 0.26747 0.40464 0.0
H256 H 0.53529 0.212 0.29023 0.0
H257 H 0.5462 0.16825 0.37948 0.0
H258 H 0.47603 0.12263 0.2473 0.0
H259 H 0.46537 0.16651 0.15821 0.0
H260 H 0.44488 0.28903 0.98182 0.0
H261 H 0.45349 0.33447 0.89992 0.0
H262 H 0.54396 0.3322 0.98112 0.0
H263 H 0.53521 0.28609 0.06152 0.0
H264 H 0.42737 0.31165 0.23759 0.0
H265 H 0.43657 0.34852 0.34879 0.0
H266 H 0.46836 0.28225 0.53237 0.0
H267 H 0.46004 0.24526 0.41919 0.0
N268 N 0.46856 0.23275 0.25281 0.0
N269 N 0.49399 0.2366 0.11563 0.0
N270 N 0.46292 0.27436 0.16371 0.0
C271 C 0.48662 0.22083 0.19096 0.0
C272 C 0.4813 0.26341 0.10124 0.0
C273 C 0.45663 0.25951 0.24001 0.0
C274 C 0.50004 0.19242 0.21532 0.0
C275 C 0.5232 0.19214 0.27718 0.0
C276 C 0.52902 0.16722 0.32966 0.0
C277 C 0.51172 0.14193 0.32186 0.0
C278 C 0.48996 0.14154 0.25494 0.0
C279 C 0.48402 0.1666 0.20295 0.0
C280 C 0.48945 0.28362 0.0269 0.0
C281 C 0.46691 0.29755 0.97878 0.0
C282 C 0.47177 0.32399 0.93326 0.0
C283 C 0.49928 0.33762 0.9354 0.0
C284 C 0.52248 0.32246 0.97753 0.0
C285 C 0.51759 0.29578 0.02293 0.0
C286 C 0.44508 0.27598 0.31728 0.0
C287 C 0.435 0.30464 0.30315 0.0
Tb288 Tb 0.04414 1.00652 0.80096 0.0
Eu289 Eu 0.99656 0.02276 0.64265 0.0
C290 C 0.06542 0.01588 0.59908 0.0
C291 C 0.02208 0.07234 0.7763 0.0
C292 C 0.10332 0.96956 0.92746 0.0
C293 C 0.12676 0.92617 0.86831 0.0
C294 C 0.10925 0.95089 0.85542 0.0
C295 C 0.11641 0.9643 1.01087 0.0
C296 C 0.13378 0.93954 0.02397 0.0
C297 C 0.13833 0.91963 0.95366 0.0
C298 C 0.08154 0.99288 0.91856 0.0
O299 O 1.00404 0.01712 0.87333 0.0
O300 O 0.97068 1.0074 0.7633 0.0
O301 O 0.01085 0.9768 0.61303 0.0
O302 O 0.0284 0.96395 0.75225 0.0
C303 C 0.97707 0.0119 0.84801 0.0
O304 O 0.95454 0.01433 0.57836 0.0
O305 O 0.98268 0.04844 0.5268 0.0
O306 O 0.04088 0.02924 0.57804 0.0
O307 O 0.06873 1.00225 0.67636 0.0
O308 O 0.04343 0.05447 0.79934 0.0
O309 O 1.00023 0.06374 0.7257 0.0
C310 C 0.01975 0.95687 0.67064 0.0
O311 O 0.08611 0.01198 0.85489 0.0
O312 O 0.05444 0.98424 0.92029 0.0
C313 C 0.93248 0.05702 0.52005 0.0
C314 C 0.895 0.1056 0.50608 0.0
C315 C 0.90569 0.09652 0.59034 0.0
C316 C 0.92444 0.07248 0.59719 0.0
C317 C 0.91978 0.06427 0.43742 0.0
C318 C 0.90111 0.08833 0.43042 0.0
C319 C 0.95695 0.03637 0.523 0.0
H320 H 0.13004 0.91142 0.81264 0.0
H321 H 0.09931 0.95472 0.79038 0.0
H322 H 0.11199 0.97853 0.06711 0.0
H323 H 0.14187 0.93499 0.09093 0.0
H324 H 0.90116 0.10916 0.64994 0.0
H325 H 0.93408 0.06709 0.66166 0.0
H326 H 0.92583 0.05256 0.37723 0.0
H327 H 0.89363 0.09484 0.3643 0.0
Tb328 Tb 0.52741 0.02761 0.79102 0.0
Eu329 Eu 0.51146 0.97873 0.63743 0.0
C330 C 0.51741 0.04689 0.58576 0.0
C331 C 0.46172 1.00683 0.76546 0.0
C332 C 0.5608 0.091 0.90297 0.0
C333 C 0.60076 0.1165 0.83004 0.0
C334 C 0.57703 0.0974 0.82554 0.0
C335 C 0.5669 0.10568 0.98281 0.0
C336 C 0.59059 0.12476 0.98743 0.0
C337 C 0.60866 0.12928 0.9122 0.0
C338 C 0.54049 0.06629 0.90421 0.0
O339 O 0.53441 0.98521 0.85838 0.0
O340 O 0.50516 0.95655 0.77107 0.0
O341 O 0.56086 0.98064 0.6408 0.0
O342 O 0.56723 0.02471 0.71125 0.0
C343 C 0.51955 0.96096 0.84584 0.0
O344 O 0.51658 0.93411 0.58904 0.0
O345 O 0.48994 0.96503 0.51428 0.0
O346 O 0.52016 0.01984 0.55819 0.0
O347 O 0.5152 0.05324 0.67167 0.0
O348 O 0.48238 0.01548 0.8206 0.0
O349 O 0.46789 0.99655 0.68524 0.0
C350 C 0.57741 1.00287 0.66354 0.0
O351 O 0.51808 0.06812 0.85065 0.0
O352 O 0.55293 0.04071 0.90022 0.0
C353 C 0.4747 0.91624 0.51567 0.0
C354 C 0.42353 0.88316 0.49273 0.0
C355 C 0.43158 0.89313 0.57839 0.0
C356 C 0.4569 0.90971 0.58968 0.0
C357 C 0.46797 0.90454 0.43167 0.0
C358 C 0.44257 0.88819 0.42021 0.0
C359 C 0.49817 0.93784 0.52305 0.0
H360 H 0.61405 0.11975 0.77077 0.0
H361 H 0.57249 0.08625 0.76313 0.0
H362 H 0.55456 0.10091 0.04315 0.0
H363 H 0.59616 0.13389 0.05208 0.0
H364 H 0.41746 0.88952 0.63562 0.0
H365 H 0.46179 0.91866 0.65514 0.0
H366 H 0.48142 0.90951 0.37378 0.0
H367 H 0.43669 0.88157 0.35308 0.0
Tb368 Tb 0.49707 0.52611 0.84502 0.0
Eu369 Eu 0.54504 0.50845 0.69594 0.0
C370 C 0.47764 0.51438 0.64839 0.0
C371 C 0.51373 0.45922 0.81723 0.0
C372 C 0.43669 0.56136 0.97224 0.0
C373 C 0.40947 0.60306 0.91519 0.0
C374 C 0.42851 0.57965 0.90062 0.0
C375 C 0.42458 0.5657 0.0572 0.0
C376 C 0.40577 0.58916 0.07201 0.0
C377 C 0.39864 0.60867 1.00181 0.0
C378 C 0.45904 0.53876 0.96091 0.0
O379 O 0.5372 0.51429 0.91717 0.0
O380 O 0.57039 0.52773 0.81113 0.0
O381 O 0.53714 0.55618 0.66755 0.0
O382 O 0.51167 0.56908 0.79468 0.0
C383 C 0.56402 0.52158 0.89498 0.0
O384 O 0.5863 0.48762 0.65966 0.0
O385 O 0.55895 0.5064 0.55613 0.0
O386 O 0.50014 0.49672 0.64192 0.0
O387 O 0.47612 0.53284 0.71519 0.0
O388 O 0.49314 0.47843 0.83493 0.0
O389 O 0.53779 0.46717 0.77649 0.0
C390 C 0.52483 0.57604 0.71853 0.0
O391 O 0.45477 0.52047 0.89557 0.0
O392 O 0.48603 0.54774 0.96411 0.0
C393 C 0.57357 0.45762 0.53748 0.0
C394 C 0.5393 0.40752 0.51289 0.0
C395 C 0.5382 0.43049 0.45008 0.0
C396 C 0.55552 0.45521 0.46154 0.0
C397 C 0.57778 0.43276 0.59239 0.0
C398 C 0.56061 0.40793 0.58044 0.0
C399 C 0.57901 0.48697 0.57493 0.0
H400 H 0.40425 0.6175 0.85958 0.0
H401 H 0.43762 0.57645 0.83433 0.0
H402 H 0.43069 0.5517 0.11311 0.0
H403 H 0.39847 0.59309 0.13992 0.0
H404 H 0.52263 0.43012 0.39535 0.0
H405 H 0.5522 0.47372 0.41698 0.0
H406 H 0.59189 0.43357 0.65068 0.0
H407 H 0.56227 0.39017 0.62862 0.0
Tb408 Tb 0.01327 0.48525 0.83747 0.0
Eu409 Eu 0.02839 0.53329 0.67961 0.0
C410 C 0.023 0.46433 0.63634 0.0
C411 C 0.07858 0.50866 0.81339 0.0
C412 C 0.97782 0.42478 0.96134 0.0
C413 C 0.93539 0.40061 0.89873 0.0
C414 C 0.95991 0.41838 0.88765 0.0
C415 C 0.97209 0.4118 0.04468 0.0
C416 C 0.94752 0.39415 0.05599 0.0
C417 C 0.92825 0.38926 0.98392 0.0
C418 C 1.00066 0.44706 0.954 0.0
O419 O 0.02327 0.52531 0.9107 0.0
O420 O 0.01381 0.55918 0.80071 0.0
O421 O 0.98281 0.5183 0.65012 0.0
O422 O 0.9703 0.50063 0.78925 0.0
C423 C 0.01828 0.55246 0.88549 0.0
O424 O 0.01847 0.5749 0.61362 0.0
O425 O 0.05326 0.54744 0.56298 0.0
O426 O 0.03629 0.48898 0.61646 0.0
O427 O 1.00899 0.46092 0.71259 0.0
O428 O 0.0612 0.48686 0.83584 0.0
O429 O 0.06945 0.53051 0.76291 0.0
C430 C 0.96304 0.50939 0.70757 0.0
O431 O 0.01985 0.44317 0.8907 0.0
O432 O 0.99142 0.47402 0.95638 0.0
C433 C 0.05947 0.59791 0.54792 0.0
C434 C 0.10616 0.6374 0.52756 0.0
C435 C 0.0944 0.63155 0.61317 0.0
C436 C 0.07143 0.61166 0.62335 0.0
C437 C 0.06912 0.60575 0.46227 0.0
C438 C 0.09225 0.62518 0.45203 0.0
C439 C 0.04007 0.57266 0.55716 0.0
H440 H 0.92117 0.39704 0.84175 0.0
H441 H 0.96411 0.42823 0.82262 0.0
H442 H 0.98574 0.41656 0.10218 0.0
H443 H 0.94253 0.3862 0.12282 0.0
H444 H 0.10395 0.64096 0.67279 0.0
H445 H 0.06411 0.60587 0.69023 0.0
H446 H 0.06013 0.59527 0.40337 0.0
H447 H 0.10062 0.62848 0.3849 0.0
C448 C 0.14029 1.00139 0.49705 0.0
C449 C 0.13677 1.01048 0.40722 0.0
H450 H 0.12103 0.9959 0.62673 0.0
C451 C 0.10944 0.02194 0.38117 0.0
H452 H 0.16071 0.99194 0.51966 0.0
C453 C 0.0864 0.02425 0.44328 0.0
C454 C 0.08997 0.01484 0.53288 0.0
H455 H 0.10588 0.02927 0.3128 0.0
H456 H 0.06569 0.03305 0.42069 0.0
C457 C 0.11731 1.00347 0.55866 0.0
C458 C 0.51225 0.08794 0.3619 0.0
C459 C 0.51448 0.11733 0.3885 0.0
H460 H 0.51165 0.04285 0.40229 0.0
C461 C 0.51799 0.12319 0.48061 0.0
H462 H 0.50966 0.08254 0.2917 0.0
C463 C 0.5189 0.10045 0.54422 0.0
C464 C 0.51656 0.07108 0.51774 0.0
H465 H 0.51932 0.1455 0.50406 0.0
H466 H 0.52142 0.10597 0.61438 0.0
C467 C 0.51347 0.06515 0.42551 0.0
C468 C 0.41508 0.54125 0.50177 0.0
C469 C 0.40953 0.51726 0.44577 0.0
H470 H 0.44034 0.55897 0.6092 0.0
C471 C 0.42661 0.49188 0.45698 0.0
H472 H 0.40216 0.56102 0.49557 0.0
C473 C 0.44908 0.49085 0.52172 0.0
C474 C 0.45436 0.5149 0.57816 0.0
H475 H 0.42284 0.47304 0.41492 0.0
H476 H 0.46206 0.47115 0.52836 0.0
C477 C 0.43692 0.54 0.56738 0.0
C478 C 0.03045 0.42064 0.41876 0.0
C479 C 0.01934 0.39309 0.44413 0.0
H480 H 0.04076 0.46451 0.45891 0.0
C481 C 1.00998 0.38932 0.53345 0.0
H482 H 0.03797 0.4244 0.35081 0.0
C483 C 0.01147 0.41227 0.59518 0.0
C484 C 0.02252 0.43982 0.57007 0.0
H485 H 1.00078 0.36872 0.55552 0.0
H486 H 1.00371 0.40836 0.66282 0.0
C487 C 0.03219 0.44363 0.48101 0.0
C488 C 0.90129 1.00837 0.95448 0.0
C489 C 0.90665 0.01812 0.04242 0.0
H490 H 0.91894 0.99892 0.82457 0.0
C491 C 0.93568 0.02436 0.06684 0.0
H492 H 0.87925 1.00371 0.93265 0.0
C493 C 0.95853 0.02162 1.0047 0.0
C494 C 0.95304 0.01275 0.91594 0.0
H495 H 0.94075 0.03168 0.13404 0.0
H496 H 0.98045 0.02709 0.02593 0.0
C497 C 0.92412 1.00583 0.8921 0.0
C498 C 0.49425 0.89401 0.97668 0.0
C499 C 0.50946 0.89619 0.05831 0.0
H500 H 0.48559 0.91208 0.84703 0.0
C501 C 0.52953 0.91922 0.06847 0.0
H502 H 0.47881 0.87643 0.96627 0.0
C503 C 0.53331 0.94019 0.99952 0.0
C504 C 0.51741 0.93829 0.91858 0.0
H505 H 0.54149 0.92156 0.13071 0.0
H506 H 0.54835 0.95807 1.01014 0.0
C507 C 0.49822 0.91456 0.908 0.0
C508 C 0.60458 0.50443 0.11284 0.0
C509 C 0.63372 0.51105 0.09088 0.0
H510 H 0.56 0.5028 0.06969 0.0
C511 C 0.63943 0.52312 1.00551 0.0
H512 H 0.59924 0.49541 0.17814 0.0
C513 C 0.61682 0.52727 0.94271 0.0
C514 C 0.58782 0.51971 0.9638 0.0
H515 H 0.66159 0.52825 0.98577 0.0
H516 H 0.62223 0.53579 0.87685 0.0
C517 C 0.58199 0.50878 0.05048 0.0
C518 C 0.03281 0.59325 0.10387 0.0
C519 C 0.02627 0.62241 0.08041 0.0
H520 H 0.0352 0.54856 0.06216 0.0
C521 C 0.01547 0.62805 0.99348 0.0
H522 H 0.04095 0.58798 0.1703 0.0
C523 C 0.01232 0.60538 0.93093 0.0
C524 C 0.01959 0.57633 0.95374 0.0
H525 H 0.0105 0.65021 0.9725 0.0
H526 H 1.00467 0.61077 0.86405 0.0
C527 C 0.0294 0.57057 0.0417 0.0
C528 C 0.85886 0.17013 0.39323 0.0
C529 C 0.87708 0.19281 0.42354 0.0
H530 H 0.84995 0.12413 0.39655 0.0
C531 C 0.89496 0.18739 0.49873 0.0
H532 H 0.844 0.17369 0.33767 0.0
C533 C 0.89803 0.15916 0.53308 0.0
C534 C 0.88337 0.13567 0.493 0.0
H535 H 0.90938 0.20402 0.52478 0.0
H536 H 0.91451 0.15543 0.58408 0.0
C537 C 0.86219 0.14171 0.42709 0.0
C538 C 0.34201 0.88611 0.47289 0.0
C539 C 0.33724 0.86796 0.39838 0.0
H540 H 0.37314 0.90504 0.56129 0.0
C541 C 0.35992 0.84916 0.37134 0.0
H542 H 0.32533 0.90103 0.49606 0.0
C543 C 0.38782 0.85176 0.40877 0.0
C544 C 0.39336 0.87291 0.47469 0.0
H545 H 0.35682 0.83424 0.31605 0.0
H546 H 0.40549 0.83885 0.38133 0.0
C547 C 0.36974 0.88852 0.51062 0.0
C548 C 0.46622 0.37015 0.4914 0.0
C549 C 0.47451 0.34059 0.48871 0.0
H550 H 0.48048 0.41457 0.50016 0.0
C551 C 0.50389 0.3332 0.50619 0.0
H552 H 0.44376 0.37657 0.47973 0.0
C553 C 0.52483 0.35492 0.5178 0.0
C554 C 0.51687 0.38441 0.51153 0.0
H555 H 0.51131 0.31075 0.50351 0.0
H556 H 0.54749 0.34866 0.52605 0.0
C557 C 0.48725 0.39187 0.50211 0.0
C558 C 0.17286 0.66429 0.40846 0.0
C559 C 0.19484 0.65303 0.4655 0.0
H560 H 0.12727 0.67056 0.38663 0.0
C561 C 0.18711 0.64694 0.55523 0.0
H562 H 0.17724 0.67061 0.33988 0.0
C563 C 0.15777 0.6451 0.58006 0.0
C564 C 0.13562 0.6509 0.51688 0.0
H565 H 0.20335 0.64062 0.60438 0.0
H566 H 0.1528 0.63614 0.64562 0.0
C567 C 0.14366 0.66381 0.43482 0.0
C568 C 0.14032 0.83805 0.98139 0.0
C569 C 0.15977 0.83485 0.054 0.0
H570 H 0.11831 0.86741 0.89291 0.0
C571 C 0.17737 0.85881 0.07747 0.0
H572 H 0.12621 0.82031 0.96118 0.0
C573 C 0.17257 0.88627 0.0382 0.0
C574 C 0.15029 0.89012 0.97415 0.0
H575 H 0.19315 0.85695 0.1314 0.0
H576 H 0.18478 0.90484 0.06269 0.0
C577 C 0.13565 0.86535 0.94197 0.0
C578 C 0.67085 0.169 0.02269 0.0
C579 C 0.69419 0.15051 0.99931 0.0
H580 H 0.62489 0.17714 1.01185 0.0
C581 C 0.69018 0.13083 0.92814 0.0
H582 H 0.67338 0.18505 0.0752 0.0
C583 C 0.66254 0.1265 0.89151 0.0
C584 C 0.63829 0.14171 0.92526 0.0
H585 H 0.70746 0.11616 0.90772 0.0
H586 H 0.65979 0.1088 0.84434 0.0
C587 C 0.64306 0.16449 0.98638 0.0
C588 C 0.35794 0.66595 0.13262 0.0
C589 C 0.37333 0.69112 0.10597 0.0
H590 H 0.35335 0.61961 0.11858 0.0
C591 C 0.3909 0.68971 0.02871 0.0
H592 H 0.34362 0.66644 0.19036 0.0
C593 C 0.39652 0.66298 0.98792 0.0
C594 C 0.38463 0.63709 0.02327 0.0
H595 H 0.4032 0.70851 1.00581 0.0
H596 H 0.41277 0.66238 0.93525 0.0
C597 C 0.36359 0.6391 0.09168 0.0
C598 C 0.86654 0.35138 0.10493 0.0
C599 C 0.84295 0.36927 0.07866 0.0
H600 H 0.91251 0.3433 0.09418 0.0
C601 C 0.84669 0.38814 1.00465 0.0
H602 H 0.86425 0.33596 0.15988 0.0
C603 C 0.87419 0.3922 0.96688 0.0
C604 C 0.89862 0.37749 1.00215 0.0
H605 H 0.82926 0.40241 0.9821 0.0
H606 H 0.87667 0.40925 0.91674 0.0
C607 C 0.89421 0.35559 0.06735 0.0
C608 C 1.00187 0.15246 0.81 0.0
C609 C 0.0162 0.15946 0.89104 0.0
H610 H 0.99223 0.11995 0.71124 0.0
C611 C 0.03446 0.13792 0.92966 0.0
H612 H 0.98826 0.16842 0.77605 0.0
C613 C 0.03731 0.11011 0.89063 0.0
C614 C 0.0217 0.10281 0.81245 0.0
H615 H 0.04567 0.142 0.99229 0.0
H616 H 0.05084 0.09393 0.92398 0.0
C617 C 1.00431 0.12456 0.77205 0.0
C618 C 0.39542 0.01659 0.91758 0.0
C619 C 0.37278 1.00367 0.86774 0.0
H620 H 0.44072 0.02772 0.92512 0.0
C621 C 0.37945 0.99335 0.78109 0.0
H622 H 0.39148 0.02442 0.9849 0.0
C623 C 0.408 0.99501 0.74676 0.0
C624 C 0.43078 1.00704 0.79804 0.0
H625 H 0.36266 0.98357 0.73992 0.0
H626 H 0.41229 0.98626 0.68072 0.0
C627 C 0.4239 0.01823 0.88337 0.0
C628 C 0.52851 0.37772 0.85751 0.0
C629 C 0.50286 0.36847 0.90121 0.0
H630 H 0.55201 0.41315 0.79627 0.0
C631 C 0.4807 0.38939 0.91523 0.0
H632 H 0.54599 0.36234 0.84478 0.0
C633 C 0.48412 0.41854 0.88733 0.0
C634 C 0.50981 0.42786 0.84435 0.0
H635 H 0.46082 0.38346 0.95003 0.0
H636 H 0.46663 0.43387 0.90052 0.0
C637 C 0.5319 0.40694 0.82927 0.0
C638 C 0.15728 0.53239 0.85374 0.0
C639 C 0.16534 0.51608 0.93055 0.0
H640 H 0.12411 0.54297 0.75729 0.0
C641 C 0.1452 0.49539 0.96369 0.0
H642 H 0.17223 0.54802 0.82429 0.0
C643 C 0.11752 0.49211 0.92377 0.0
C644 C 0.10905 0.50958 0.84995 0.0
H645 H 0.15026 0.48255 0.02297 0.0
H646 H 0.10234 0.47667 0.95311 0.0
C647 C 0.12958 0.52937 0.81465 0.0
C648 C 0.03524 0.87462 0.66383 0.0
C649 C 0.02599 0.86709 0.57656 0.0
H650 H 0.04059 0.90839 0.76211 0.0
C651 C 0.01328 0.8892 0.52314 0.0
H652 H 0.04484 0.85828 0.70771 0.0
C653 C 0.01072 0.91793 0.55462 0.0
C654 C 0.02076 0.92565 0.64072 0.0
H655 H 1.00629 0.88465 0.45524 0.0
H656 H 1.00138 0.93427 0.5102 0.0
C657 C 0.03268 0.90344 0.69541 0.0
C658 C 0.64477 0.99341 0.51533 0.0
C659 C 0.66465 0.01331 0.55355 0.0
H660 H 0.60197 0.9743 0.51994 0.0
C661 C 0.65616 0.02758 0.63309 0.0
H662 H 0.65011 0.98215 0.45383 0.0
C663 C 0.62826 0.02356 0.66975 0.0
C664 C 0.60805 1.00463 0.62944 0.0
H665 H 0.67088 0.04244 0.66658 0.0
H666 H 0.62239 0.03571 0.72926 0.0
C667 C 0.61696 0.989 0.55306 0.0
C668 C 0.53107 0.64242 0.56275 0.0
C669 C 0.51848 0.66502 0.61361 0.0
H670 H 0.54307 0.59727 0.5553 0.0
C671 C 0.5099 0.65831 0.70243 0.0
H672 H 0.53757 0.64621 0.49388 0.0
C673 C 0.5126 0.62979 0.7375 0.0
C674 C 0.52429 0.60708 0.68533 0.0
H675 H 0.50062 0.67501 0.74492 0.0
H676 H 0.50502 0.62548 0.80509 0.0
C677 C 0.53401 0.61403 0.59806 0.0
C678 C 0.89569 0.51778 0.55873 0.0
C679 C 0.87368 0.50395 0.60913 0.0
H680 H 0.94051 0.53034 0.5496 0.0
C681 C 0.88109 0.49329 0.69541 0.0
H682 H 0.89126 0.52586 0.49166 0.0
C683 C 0.90976 0.49561 0.72879 0.0
C684 C 0.93189 0.50862 0.6768 0.0
H685 H 0.86479 0.48276 0.73698 0.0
H686 H 0.9147 0.4866 0.79446 0.0
C687 C 0.92424 0.52006 0.59191 0.0
loop_
_geom_bond_atom_site_label_1
_geom_bond_atom_site_label_2
_geom_bond_distance
_geom_bond_site_symmetry_2
_ccdc_geom_bond_type
C0 C1 1.384 . S
C0 H13 0.947 . S
C0 C35 1.382 . S
C1 C0 1.384 . S
C1 C2 1.378 . S
C2 C1 1.378 . S
C2 C3 1.378 . S
C2 H14 0.952 . S
C3 C2 1.378 . S
C3 H15 0.950 . S
C3 C34 1.383 . S
H4 C23 0.947 . S
H5 C24 0.946 . S
H6 C26 0.953 . S
H7 C27 0.945 . S
H8 C29 0.952 . S
H9 C30 0.949 . S
H10 C32 0.950 . S
H11 C33 0.948 . S
H12 C35 0.951 . S
H13 C0 0.947 . S
H14 C2 0.952 . S
H15 C3 0.950 . S
N16 C19 1.382 . S
N16 C21 1.363 . S
N17 C19 1.371 . S
N17 C20 1.372 . S
N18 C20 1.361 . S
N18 C21 1.377 . S
C19 N16 1.382 . S
C19 N17 1.371 . S
C19 C22 1.480 . S
C20 N17 1.372 . S
C20 N18 1.361 . S
C20 C28 1.457 . S
C21 N16 1.363 . S
C21 N18 1.377 . S
C21 C34 1.479 . S
C22 C19 1.480 . S
C22 C23 1.383 . S
C22 C27 1.385 . S
C23 H4 0.947 . S
C23 C22 1.383 . S
C23 C24 1.388 . S
C24 H5 0.946 . S
C24 C23 1.388 . S
C24 C25 1.384 . S
C25 C24 1.384 . S
C25 C26 1.377 . S
C26 H6 0.953 . S
C26 C25 1.377 . S
C26 C27 1.369 . S
C27 H7 0.945 . S
C27 C22 1.385 . S
C27 C26 1.369 . S
C28 C20 1.457 . S
C28 C29 1.372 . S
C28 C33 1.364 . S
C29 H8 0.952 . S
C29 C28 1.372 . S
C29 C30 1.389 . S
C30 H9 0.949 . S
C30 C29 1.389 . S
C30 C31 1.387 . S
C31 C30 1.387 . S
C31 C32 1.372 . S
C32 H10 0.950 . S
C32 C31 1.372 . S
C32 C33 1.379 . S
C33 H11 0.948 . S
C33 C28 1.364 . S
C33 C32 1.379 . S
C34 C3 1.383 . S
C34 C21 1.479 . S
C34 C35 1.398 . S
C35 C0 1.382 . S
C35 H12 0.951 . S
C35 C34 1.398 . S
C36 C37 1.384 1_655 S
C36 H49 0.948 . S
C36 C71 1.382 1_655 S
C37 C36 1.384 1_455 S
C37 C38 1.378 . S
C38 C37 1.378 . S
C38 C39 1.378 . S
C38 H50 0.952 . S
C39 C38 1.378 . S
C39 H51 0.950 . S
C39 C70 1.383 . S
H40 C59 0.947 . S
H41 C60 0.952 . S
H42 C62 0.953 . S
H43 C63 0.945 . S
H44 C65 0.949 1_655 S
H45 C66 0.949 . S
H46 C68 0.950 . S
H47 C69 0.948 . S
H48 C71 0.951 1_655 S
H49 C36 0.948 . S
H50 C38 0.952 . S
H51 C39 0.950 . S
N52 C55 1.382 . S
N52 C57 1.363 . S
N53 C55 1.371 . S
N53 C56 1.372 . S
N54 C56 1.361 . S
N54 C57 1.377 . S
C55 N52 1.382 . S
C55 N53 1.371 . S
C55 C58 1.480 . S
C56 N53 1.372 . S
C56 N54 1.361 . S
C56 C64 1.457 . S
C57 N52 1.363 . S
C57 N54 1.377 . S
C57 C70 1.479 . S
C58 C55 1.480 . S
C58 C59 1.383 . S
C58 C63 1.385 . S
C59 H40 0.947 . S
C59 C58 1.383 . S
C59 C60 1.386 1_455 S
C60 H41 0.952 . S
C60 C59 1.386 1_655 S
C60 C61 1.381 1_655 S
C61 C60 1.381 1_455 S
C61 C62 1.377 . S
C62 H42 0.953 . S
C62 C61 1.377 . S
C62 C63 1.369 . S
C63 H43 0.945 . S
C63 C58 1.385 . S
C63 C62 1.369 . S
C64 C56 1.457 . S
C64 C65 1.377 . S
C64 C69 1.364 . S
C65 H44 0.949 1_455 S
C65 C64 1.377 . S
C65 C66 1.387 1_455 S
C66 H45 0.949 . S
C66 C65 1.387 1_655 S
C66 C67 1.387 1_655 S
C67 C66 1.387 1_455 S
C67 C68 1.372 . S
C68 H46 0.950 . S
C68 C67 1.372 . S
C68 C69 1.379 . S
C69 H47 0.948 . S
C69 C64 1.364 . S
C69 C68 1.379 . S
C70 C39 1.383 . S
C70 C57 1.479 . S
C70 C71 1.398 . S
C71 C36 1.382 1_455 S
C71 H48 0.951 1_455 S
C71 C70 1.398 . S
C72 C73 1.384 1_565 S
C72 H85 0.948 . S
C72 C107 1.382 1_565 S
C73 C72 1.384 1_545 S
C73 C74 1.378 . S
C74 C73 1.378 . S
C74 C75 1.378 . S
C74 H86 0.952 . S
C75 C74 1.378 . S
C75 H87 0.950 . S
C75 C106 1.383 . S
H76 C95 0.947 . S
H77 C96 0.952 . S
H78 C98 0.953 . S
H79 C99 0.945 . S
H80 C101 0.949 1_565 S
H81 C102 0.949 . S
H82 C104 0.950 . S
H83 C105 0.948 . S
H84 C107 0.951 1_565 S
H85 C72 0.948 . S
H86 C74 0.952 . S
H87 C75 0.950 . S
N88 C91 1.382 . S
N88 C93 1.363 . S
N89 C91 1.371 . S
N89 C92 1.372 . S
N90 C92 1.361 . S
N90 C93 1.377 . S
C91 N88 1.382 . S
C91 N89 1.371 . S
C91 C94 1.480 . S
C92 N89 1.372 . S
C92 N90 1.361 . S
C92 C100 1.457 . S
C93 N88 1.363 . S
C93 N90 1.377 . S
C93 C106 1.479 . S
C94 C91 1.480 . S
C94 C95 1.383 . S
C94 C99 1.385 . S
C95 H76 0.947 . S
C95 C94 1.383 . S
C95 C96 1.386 1_545 S
C96 H77 0.952 . S
C96 C95 1.386 1_565 S
C96 C97 1.382 1_565 S
C97 C96 1.382 1_545 S
C97 C98 1.377 . S
C98 H78 0.953 . S
C98 C97 1.377 . S
C98 C99 1.369 . S
C99 H79 0.945 . S
C99 C94 1.385 . S
C99 C98 1.369 . S
C100 C92 1.457 . S
C100 C101 1.377 . S
C100 C105 1.364 . S
C101 H80 0.949 1_545 S
C101 C100 1.377 . S
C101 C102 1.387 1_545 S
C102 H81 0.949 . S
C102 C101 1.387 1_565 S
C102 C103 1.387 1_565 S
C103 C102 1.387 1_545 S
C103 C104 1.372 . S
C104 H82 0.950 . S
C104 C103 1.372 . S
C104 C105 1.379 . S
C105 H83 0.948 . S
C105 C100 1.364 . S
C105 C104 1.379 . S
C106 C75 1.383 . S
C106 C93 1.479 . S
C106 C107 1.398 . S
C107 C72 1.382 1_545 S
C107 H84 0.951 1_545 S
C107 C106 1.398 . S
C108 C109 1.384 . S
C108 H121 0.947 . S
C108 C143 1.382 . S
C109 C108 1.384 . S
C109 C110 1.378 . S
C110 C109 1.378 . S
C110 C111 1.378 . S
C110 H122 0.952 . S
C111 C110 1.378 . S
C111 H123 0.950 . S
C111 C142 1.383 . S
H112 C131 0.947 . S
H113 C132 0.946 . S
H114 C134 0.953 . S
H115 C135 0.945 . S
H116 C137 0.952 . S
H117 C138 0.949 . S
H118 C140 0.950 . S
H119 C141 0.948 . S
H120 C143 0.951 . S
H121 C108 0.947 . S
H122 C110 0.952 . S
H123 C111 0.950 . S
N124 C127 1.382 . S
N124 C129 1.363 . S
N125 C127 1.371 . S
N125 C128 1.372 . S
N126 C128 1.361 . S
N126 C129 1.377 . S
C127 N124 1.382 . S
C127 N125 1.371 . S
C127 C130 1.480 . S
C128 N125 1.372 . S
C128 N126 1.361 . S
C128 C136 1.457 . S
C129 N124 1.363 . S
C129 N126 1.377 . S
C129 C142 1.479 . S
C130 C127 1.480 . S
C130 C131 1.383 . S
C130 C135 1.385 . S
C131 H112 0.947 . S
C131 C130 1.383 . S
C131 C132 1.388 . S
C132 H113 0.946 . S
C132 C131 1.388 . S
C132 C133 1.384 . S
C133 C132 1.384 . S
C133 C134 1.377 . S
C134 H114 0.953 . S
C134 C133 1.377 . S
C134 C135 1.369 . S
C135 H115 0.945 . S
C135 C130 1.385 . S
C135 C134 1.369 . S
C136 C128 1.457 . S
C136 C137 1.372 . S
C136 C141 1.364 . S
C137 H116 0.952 . S
C137 C136 1.372 . S
C137 C138 1.389 . S
C138 H117 0.949 . S
C138 C137 1.389 . S
C138 C139 1.387 . S
C139 C138 1.387 . S
C139 C140 1.372 . S
C140 H118 0.950 . S
C140 C139 1.372 . S
C140 C141 1.379 . S
C141 H119 0.948 . S
C141 C136 1.364 . S
C141 C140 1.379 . S
C142 C111 1.383 . S
C142 C129 1.479 . S
C142 C143 1.398 . S
C143 C108 1.382 . S
C143 H120 0.951 . S
C143 C142 1.398 . S
C144 C145 1.384 . S
C144 H157 0.947 . S
C144 C179 1.382 . S
C145 C144 1.384 . S
C145 C146 1.378 . S
C146 C145 1.378 . S
C146 C147 1.378 . S
C146 H158 0.952 . S
C147 C146 1.378 . S
C147 H159 0.950 . S
C147 C178 1.383 . S
H148 C167 0.947 1_556 S
H149 C168 0.946 . S
H150 C170 0.953 . S
H151 C171 0.945 . S
H152 C173 0.952 . S
H153 C174 0.949 . S
H154 C176 0.950 . S
H155 C177 0.948 . S
H156 C179 0.951 . S
H157 C144 0.947 . S
H158 C146 0.952 . S
H159 C147 0.950 . S
N160 C163 1.382 1_556 S
N160 C165 1.363 . S
N161 C163 1.371 . S
N161 C164 1.372 . S
N162 C164 1.361 . S
N162 C165 1.377 1_554 S
C163 N160 1.382 1_554 S
C163 N161 1.371 . S
C163 C166 1.480 . S
C164 N161 1.372 . S
C164 N162 1.361 . S
C164 C172 1.457 . S
C165 N160 1.363 . S
C165 N162 1.377 1_556 S
C165 C178 1.479 . S
C166 C163 1.480 . S
C166 C167 1.383 . S
C166 C171 1.385 . S
C167 H148 0.947 1_554 S
C167 C166 1.383 . S
C167 C168 1.388 . S
C168 H149 0.946 . S
C168 C167 1.388 . S
C168 C169 1.384 . S
C169 C168 1.384 . S
C169 C170 1.377 . S
C170 H150 0.953 . S
C170 C169 1.377 . S
C170 C171 1.369 . S
C171 H151 0.945 . S
C171 C166 1.385 . S
C171 C170 1.369 . S
C172 C164 1.457 . S
C172 C173 1.372 . S
C172 C177 1.364 . S
C173 H152 0.952 . S
C173 C172 1.372 . S
C173 C174 1.389 . S
C174 H153 0.949 . S
C174 C173 1.389 . S
C174 C175 1.387 . S
C175 C174 1.387 . S
C175 C176 1.372 . S
C176 H154 0.950 . S
C176 C175 1.372 . S
C176 C177 1.379 . S
C177 H155 0.948 . S
C177 C172 1.364 . S
C177 C176 1.379 . S
C178 C147 1.383 . S
C178 C165 1.479 . S
C178 C179 1.398 . S
C179 C144 1.382 . S
C179 H156 0.951 . S
C179 C178 1.398 . S
C180 C181 1.384 1_655 S
C180 H193 0.947 . S
C180 C215 1.382 1_655 S
C181 C180 1.384 1_455 S
C181 C182 1.378 . S
C182 C181 1.378 . S
C182 C183 1.378 . S
C182 H194 0.952 . S
C183 C182 1.378 . S
C183 H195 0.950 . S
C183 C214 1.383 . S
H184 C203 0.947 1_556 S
H185 C204 0.950 . S
H186 C206 0.953 . S
H187 C207 0.945 . S
H188 C209 0.947 1_655 S
H189 C210 0.954 . S
H190 C212 0.950 . S
H191 C213 0.948 . S
H192 C215 0.950 1_655 S
H193 C180 0.947 . S
H194 C182 0.952 . S
H195 C183 0.950 . S
N196 C199 1.382 1_556 S
N196 C201 1.363 . S
N197 C199 1.371 . S
N197 C200 1.372 . S
N198 C200 1.361 . S
N198 C201 1.377 1_554 S
C199 N196 1.382 1_554 S
C199 N197 1.371 . S
C199 C202 1.480 . S
C200 N197 1.372 . S
C200 N198 1.361 . S
C200 C208 1.457 . S
C201 N196 1.363 . S
C201 N198 1.377 1_556 S
C201 C214 1.479 . S
C202 C199 1.480 . S
C202 C203 1.383 . S
C202 C207 1.385 . S
C203 H184 0.947 1_554 S
C203 C202 1.383 . S
C203 C204 1.387 1_455 S
C204 H185 0.950 . S
C204 C203 1.387 1_655 S
C204 C205 1.382 1_655 S
C205 C204 1.382 1_455 S
C205 C206 1.377 . S
C206 H186 0.953 . S
C206 C205 1.377 . S
C206 C207 1.369 . S
C207 H187 0.945 . S
C207 C202 1.385 . S
C207 C206 1.369 . S
C208 C200 1.457 . S
C208 C209 1.379 . S
C208 C213 1.364 . S
C209 H188 0.947 1_455 S
C209 C208 1.379 . S
C209 C210 1.387 1_455 S
C210 H189 0.954 . S
C210 C209 1.387 1_655 S
C210 C211 1.383 1_655 S
C211 C210 1.383 1_455 S
C211 C212 1.372 . S
C212 H190 0.950 . S
C212 C211 1.372 . S
C212 C213 1.379 . S
C213 H191 0.948 . S
C213 C208 1.364 . S
C213 C212 1.379 . S
C214 C183 1.383 . S
C214 C201 1.479 . S
C214 C215 1.399 . S
C215 C180 1.382 1_455 S
C215 H192 0.950 1_455 S
C215 C214 1.399 . S
C216 C217 1.384 1_565 S
C216 H229 0.947 . S
C216 C251 1.382 1_565 S
C217 C216 1.384 1_545 S
C217 C218 1.378 . S
C218 C217 1.378 . S
C218 C219 1.378 . S
C218 H230 0.952 . S
C219 C218 1.378 . S
C219 H231 0.950 . S
C219 C250 1.383 . S
H220 C239 0.947 1_556 S
H221 C240 0.950 . S
H222 C242 0.953 . S
H223 C243 0.945 . S
H224 C245 0.948 1_565 S
H225 C246 0.954 . S
H226 C248 0.950 . S
H227 C249 0.948 . S
H228 C251 0.950 1_565 S
H229 C216 0.947 . S
H230 C218 0.952 . S
H231 C219 0.950 . S
N232 C235 1.382 1_556 S
N232 C237 1.363 . S
N233 C235 1.371 . S
N233 C236 1.372 . S
N234 C236 1.361 . S
N234 C237 1.377 1_554 S
C235 N232 1.382 1_554 S
C235 N233 1.371 . S
C235 C238 1.480 . S
C236 N233 1.372 . S
C236 N234 1.361 . S
C236 C244 1.457 . S
C237 N232 1.363 . S
C237 N234 1.377 1_556 S
C237 C250 1.479 . S
C238 C235 1.480 . S
C238 C239 1.383 . S
C238 C243 1.385 . S
C239 H220 0.947 1_554 S
C239 C238 1.383 . S
C239 C240 1.387 1_545 S
C240 H221 0.950 . S
C240 C239 1.387 1_565 S
C240 C241 1.382 1_565 S
C241 C240 1.382 1_545 S
C241 C242 1.377 . S
C242 H222 0.953 . S
C242 C241 1.377 . S
C242 C243 1.369 . S
C243 H223 0.945 . S
C243 C238 1.385 . S
C243 C242 1.369 . S
C244 C236 1.457 . S
C244 C245 1.379 . S
C244 C249 1.364 . S
C245 H224 0.948 1_545 S
C245 C244 1.379 . S
C245 C246 1.387 1_545 S
C246 H225 0.954 . S
C246 C245 1.387 1_565 S
C246 C247 1.384 1_565 S
C247 C246 1.384 1_545 S
C247 C248 1.372 . S
C248 H226 0.950 . S
C248 C247 1.372 . S
C248 C249 1.379 . S
C249 H227 0.948 . S
C249 C244 1.364 . S
C249 C248 1.379 . S
C250 C219 1.383 . S
C250 C237 1.479 . S
C250 C251 1.399 . S
C251 C216 1.382 1_545 S
C251 H228 0.950 1_545 S
C251 C250 1.399 . S
C252 C253 1.384 . S
C252 H265 0.947 . S
C252 C287 1.382 . S
C253 C252 1.384 . S
C253 C254 1.378 . S
C254 C253 1.378 . S
C254 C255 1.378 . S
C254 H266 0.952 . S
C255 C254 1.378 . S
C255 H267 0.950 . S
C255 C286 1.383 . S
H256 C275 0.947 . S
H257 C276 0.946 . S
H258 C278 0.953 1_556 S
H259 C279 0.945 1_556 S
H260 C281 0.952 . S
H261 C282 0.949 . S
H262 C284 0.950 . S
H263 C285 0.948 . S
H264 C287 0.951 . S
H265 C252 0.947 . S
H266 C254 0.952 . S
H267 C255 0.950 . S
N268 C271 1.382 . S
N268 C273 1.363 . S
N269 C271 1.371 1_556 S
N269 C272 1.372 . S
N270 C272 1.361 1_554 S
N270 C273 1.377 . S
C271 N268 1.382 . S
C271 N269 1.371 1_554 S
C271 C274 1.480 . S
C272 N269 1.372 . S
C272 N270 1.361 1_556 S
C272 C280 1.457 . S
C273 N268 1.363 . S
C273 N270 1.377 . S
C273 C286 1.479 . S
C274 C271 1.480 . S
C274 C275 1.383 . S
C274 C279 1.385 . S
C275 H256 0.947 . S
C275 C274 1.383 . S
C275 C276 1.388 . S
C276 H257 0.946 . S
C276 C275 1.388 . S
C276 C277 1.384 . S
C277 C276 1.384 . S
C277 C278 1.377 . S
C278 H258 0.953 1_554 S
C278 C277 1.377 . S
C278 C279 1.369 . S
C279 H259 0.945 1_554 S
C279 C274 1.385 . S
C279 C278 1.369 . S
C280 C272 1.457 . S
C280 C281 1.372 . S
C280 C285 1.364 . S
C281 H260 0.952 . S
C281 C280 1.372 . S
C281 C282 1.389 . S
C282 H261 0.949 . S
C282 C281 1.389 . S
C282 C283 1.387 . S
C283 C282 1.387 . S
C283 C284 1.372 . S
C284 H262 0.950 . S
C284 C283 1.372 . S
C284 C285 1.379 . S
C285 H263 0.948 . S
C285 C280 1.364 . S
C285 C284 1.379 . S
C286 C255 1.383 . S
C286 C273 1.479 . S
C286 C287 1.398 . S
C287 C252 1.382 . S
C287 H264 0.951 . S
C287 C286 1.398 . S
Tb288 C298 2.825 . S
Tb288 O299 2.347 1_455 S
Tb288 O302 2.366 . S
Tb288 O307 2.418 . S
Tb288 O308 2.384 1_565 S
Tb288 O311 2.479 . S
Tb288 O312 2.471 . S
Eu289 O300 2.418 . S
Eu289 O301 2.384 1_545 S
Eu289 O304 2.479 . S
Eu289 O305 2.471 . S
Eu289 O306 2.347 1_655 S
Eu289 O309 2.366 . S
Eu289 C319 2.825 . S
C290 O306 1.259 1_565 S
C290 O307 1.265 . S
C291 O308 1.255 . S
C291 O309 1.265 1_455 S
C292 C294 1.380 . S
C292 C295 1.374 . S
C292 C298 1.507 . S
C293 C294 1.384 1_554 S
C293 C297 1.387 . S
C293 H320 0.930 . S
C294 C292 1.380 . S
C294 C293 1.384 1_556 S
C294 H321 0.931 . S
C295 C292 1.374 . S
C295 C296 1.390 1_556 S
C295 H322 0.930 1_455 S
C296 C295 1.390 1_554 S
C296 C297 1.391 . S
C296 H323 0.896 1_455 S
C297 C293 1.387 . S
C297 C296 1.391 . S
C298 Tb288 2.825 . S
C298 C292 1.507 . S
C298 O311 1.238 . S
C298 O312 1.247 . S
O299 Tb288 2.347 1_655 S
O299 C303 1.259 1_565 S
O300 Eu289 2.418 . S
O300 C303 1.265 . S
O301 Eu289 2.384 1_565 S
O301 C310 1.255 . S
O302 Tb288 2.366 . S
O302 C310 1.265 1_455 S
C303 O299 1.259 1_545 S
C303 O300 1.265 . S
O304 Eu289 2.479 . S
O304 C319 1.238 . S
O305 Eu289 2.471 . S
O305 C319 1.247 . S
O306 Eu289 2.347 1_455 S
O306 C290 1.259 1_545 S
O307 Tb288 2.418 . S
O307 C290 1.265 . S
O308 Tb288 2.384 1_545 S
O308 C291 1.255 . S
O309 Eu289 2.366 . S
O309 C291 1.265 1_655 S
C310 O301 1.255 . S
C310 O302 1.265 1_655 S
O311 Tb288 2.479 . S
O311 C298 1.238 . S
O312 Tb288 2.471 . S
O312 C298 1.247 . S
C313 C316 1.380 . S
C313 C317 1.374 . S
C313 C319 1.507 . S
C314 C315 1.387 . S
C314 C318 1.391 . S
C315 C314 1.387 . S
C315 C316 1.384 . S
C315 H324 0.930 . S
C316 C313 1.380 . S
C316 C315 1.384 . S
C316 H325 0.931 . S
C317 C313 1.374 . S
C317 C318 1.390 . S
C317 H326 0.930 1_655 S
C318 C314 1.391 . S
C318 C317 1.390 . S
C318 H327 0.930 1_655 S
C319 Eu289 2.825 . S
C319 O304 1.238 . S
C319 O305 1.247 . S
C319 C313 1.507 . S
H320 C293 0.930 . S
H321 C294 0.931 . S
H322 C295 0.930 1_655 S
H323 C296 0.896 1_655 S
H324 C315 0.930 . S
H325 C316 0.931 . S
H326 C317 0.930 1_455 S
H327 C318 0.930 1_455 S
Tb328 C338 2.825 . S
Tb328 O339 2.347 1_545 S
Tb328 O342 2.366 . S
Tb328 O347 2.418 . S
Tb328 O348 2.384 . S
Tb328 O351 2.479 . S
Tb328 O352 2.471 . S
Eu329 O340 2.418 . S
Eu329 O341 2.384 . S
Eu329 O344 2.479 . S
Eu329 O345 2.471 . S
Eu329 O346 2.347 1_565 S
Eu329 O349 2.366 . S
Eu329 C359 2.825 . S
C330 O346 1.259 . S
C330 O347 1.265 . S
C331 O348 1.255 . S
C331 O349 1.265 1_545 S
C332 C334 1.380 . S
C332 C335 1.374 . S
C332 C338 1.507 . S
C333 C334 1.384 1_554 S
C333 C337 1.387 . S
C333 H360 0.930 . S
C334 C332 1.380 . S
C334 C333 1.384 1_556 S
C334 H361 0.931 . S
C335 C332 1.374 . S
C335 C336 1.390 1_556 S
C335 H362 0.930 1_545 S
C336 C335 1.390 1_554 S
C336 C337 1.391 . S
C336 H363 0.930 1_545 S
C337 C333 1.387 . S
C337 C336 1.391 . S
C338 Tb328 2.825 . S
C338 C332 1.507 . S
C338 O351 1.238 . S
C338 O352 1.247 . S
O339 Tb328 2.347 1_565 S
O339 C343 1.259 . S
O340 Eu329 2.418 . S
O340 C343 1.265 . S
O341 Eu329 2.384 . S
O341 C350 1.255 . S
O342 Tb328 2.366 . S
O342 C350 1.265 1_545 S
C343 O339 1.259 . S
C343 O340 1.265 . S
O344 Eu329 2.479 . S
O344 C359 1.238 . S
O345 Eu329 2.471 . S
O345 C359 1.247 . S
O346 Eu329 2.347 1_545 S
O346 C330 1.259 . S
O347 Tb328 2.418 . S
O347 C330 1.265 . S
O348 Tb328 2.384 . S
O348 C331 1.255 . S
O349 Eu329 2.366 . S
O349 C331 1.265 1_565 S
C350 O341 1.255 . S
C350 O342 1.265 1_565 S
O351 Tb328 2.479 . S
O351 C338 1.238 . S
O352 Tb328 2.471 . S
O352 C338 1.247 . S
C353 C356 1.380 . S
C353 C357 1.374 . S
C353 C359 1.507 . S
C354 C355 1.387 . S
C354 C358 1.391 . S
C355 C354 1.387 . S
C355 C356 1.384 . S
C355 H364 0.930 . S
C356 C353 1.380 . S
C356 C355 1.384 . S
C356 H365 0.931 . S
C357 C353 1.374 . S
C357 C358 1.390 . S
C357 H366 0.930 1_565 S
C358 C354 1.391 . S
C358 C357 1.390 . S
C358 H367 0.930 1_565 S
C359 Eu329 2.825 . S
C359 O344 1.238 . S
C359 O345 1.247 . S
C359 C353 1.507 . S
H360 C333 0.930 . S
H361 C334 0.931 . S
H362 C335 0.930 1_565 S
H363 C336 0.930 1_565 S
H364 C355 0.930 . S
H365 C356 0.931 . S
H366 C357 0.930 1_545 S
H367 C358 0.930 1_545 S
Tb368 C378 2.825 . S
Tb368 O379 2.347 . S
Tb368 O382 2.366 . S
Tb368 O387 2.418 . S
Tb368 O388 2.384 . S
Tb368 O391 2.479 . S
Tb368 O392 2.471 . S
Eu369 O380 2.418 . S
Eu369 O381 2.384 . S
Eu369 O384 2.479 . S
Eu369 O385 2.471 . S
Eu369 O386 2.347 . S
Eu369 O389 2.366 . S
Eu369 C399 2.825 . S
C370 O386 1.259 . S
C370 O387 1.265 . S
C371 O388 1.255 . S
C371 O389 1.265 . S
C372 C374 1.380 . S
C372 C375 1.374 . S
C372 C378 1.507 . S
C373 C374 1.384 1_554 S
C373 C377 1.387 . S
C373 H400 0.930 . S
C374 C372 1.380 . S
C374 C373 1.384 1_556 S
C374 H401 0.931 . S
C375 C372 1.374 . S
C375 C376 1.390 1_556 S
C375 H402 0.930 . S
C376 C375 1.390 1_554 S
C376 C377 1.391 . S
C376 H403 0.930 . S
C377 C373 1.387 . S
C377 C376 1.391 . S
C378 Tb368 2.825 . S
C378 C372 1.507 . S
C378 O391 1.238 . S
C378 O392 1.247 . S
O379 Tb368 2.347 . S
O379 C383 1.259 . S
O380 Eu369 2.418 . S
O380 C383 1.265 . S
O381 Eu369 2.384 . S
O381 C390 1.255 . S
O382 Tb368 2.366 . S
O382 C390 1.265 . S
C383 O379 1.259 . S
C383 O380 1.265 . S
O384 Eu369 2.479 . S
O384 C399 1.238 . S
O385 Eu369 2.471 . S
O385 C399 1.247 . S
O386 Eu369 2.347 . S
O386 C370 1.259 . S
O387 Tb368 2.418 . S
O387 C370 1.265 . S
O388 Tb368 2.384 . S
O388 C371 1.255 . S
O389 Eu369 2.366 . S
O389 C371 1.265 . S
C390 O381 1.255 . S
C390 O382 1.265 . S
O391 Tb368 2.479 . S
O391 C378 1.238 . S
O392 Tb368 2.471 . S
O392 C378 1.247 . S
C393 C396 1.380 . S
C393 C397 1.374 . S
C393 C399 1.507 . S
C394 C395 1.387 . S
C394 C398 1.391 . S
C395 C394 1.387 . S
C395 C396 1.384 . S
C395 H404 0.930 . S
C396 C393 1.380 . S
C396 C395 1.384 . S
C396 H405 0.931 . S
C397 C393 1.374 . S
C397 C398 1.390 . S
C397 H406 0.930 . S
C398 C394 1.391 . S
C398 C397 1.390 . S
C398 H407 0.930 . S
C399 Eu369 2.825 . S
C399 O384 1.238 . S
C399 O385 1.247 . S
C399 C393 1.507 . S
H400 C373 0.930 . S
H401 C374 0.931 . S
H402 C375 0.930 . S
H403 C376 0.930 . S
H404 C395 0.930 . S
H405 C396 0.931 . S
H406 C397 0.930 . S
H407 C398 0.930 . S
Tb408 C418 2.825 . S
Tb408 O419 2.347 . S
Tb408 O422 2.366 . S
Tb408 O427 2.418 . S
Tb408 O428 2.384 1_655 S
Tb408 O431 2.479 . S
Tb408 O432 2.471 . S
Eu409 O420 2.418 . S
Eu409 O421 2.384 1_455 S
Eu409 O424 2.479 . S
Eu409 O425 2.471 . S
Eu409 O426 2.347 . S
Eu409 O429 2.366 . S
Eu409 C439 2.825 . S
C410 O426 1.259 1_655 S
C410 O427 1.265 . S
C411 O428 1.255 . S
C411 O429 1.265 . S
C412 C414 1.380 . S
C412 C415 1.374 . S
C412 C418 1.507 . S
C413 C414 1.384 1_554 S
C413 C417 1.387 . S
C413 H440 0.930 . S
C414 C412 1.380 . S
C414 C413 1.384 1_556 S
C414 H441 0.931 . S
C415 C412 1.374 . S
C415 C416 1.390 1_556 S
C415 H442 0.930 . S
C416 C415 1.390 1_554 S
C416 C417 1.391 . S
C416 H443 0.930 . S
C417 C413 1.387 . S
C417 C416 1.391 . S
C418 Tb408 2.825 . S
C418 C412 1.507 . S
C418 O431 1.238 . S
C418 O432 1.247 . S
O419 Tb408 2.347 . S
O419 C423 1.259 1_655 S
O420 Eu409 2.418 . S
O420 C423 1.265 . S
O421 Eu409 2.384 1_655 S
O421 C430 1.255 . S
O422 Tb408 2.366 . S
O422 C430 1.265 . S
C423 O419 1.259 1_455 S
C423 O420 1.265 . S
O424 Eu409 2.479 . S
O424 C439 1.238 . S
O425 Eu409 2.471 . S
O425 C439 1.247 . S
O426 Eu409 2.347 . S
O426 C410 1.259 1_455 S
O427 Tb408 2.418 . S
O427 C410 1.265 . S
O428 Tb408 2.384 1_455 S
O428 C411 1.255 . S
O429 Eu409 2.366 . S
O429 C411 1.265 . S
C430 O421 1.255 . S
C430 O422 1.265 . S
O431 Tb408 2.479 . S
O431 C418 1.238 . S
O432 Tb408 2.471 . S
O432 C418 1.247 . S
C433 C436 1.380 . S
C433 C437 1.374 . S
C433 C439 1.507 . S
C434 C435 1.387 . S
C434 C438 1.391 . S
C435 C434 1.387 . S
C435 C436 1.384 . S
C435 H444 0.930 . S
C436 C433 1.380 . S
C436 C435 1.384 . S
C436 H445 0.931 . S
C437 C433 1.374 . S
C437 C438 1.390 . S
C437 H446 0.930 . S
C438 C434 1.391 . S
C438 C437 1.390 . S
C438 H447 0.930 . S
C439 Eu409 2.825 . S
C439 O424 1.238 . S
C439 O425 1.247 . S
C439 C433 1.507 . S
H440 C413 0.930 . S
H441 C414 0.931 . S
H442 C415 0.930 . S
H443 C416 0.930 . S
H444 C435 0.930 . S
H445 C436 0.931 . S
H446 C437 0.930 . S
H447 C438 0.930 . S
C448 C449 1.387 . S
C448 H452 0.950 . S
C448 C457 1.390 . S
C449 C448 1.387 . S
C449 C451 1.388 1_545 S
H450 C457 0.950 . S
C451 C449 1.388 1_565 S
C451 C453 1.390 . S
C451 H455 0.950 . S
H452 C448 0.950 . S
C453 C451 1.390 . S
C453 C454 1.387 1_565 S
C453 H456 0.950 . S
C454 C453 1.387 1_545 S
C454 C457 1.388 . S
H455 C451 0.950 . S
H456 C453 0.950 . S
C457 C448 1.390 . S
C457 H450 0.950 . S
C457 C454 1.388 . S
C458 C459 1.387 . S
C458 H462 0.950 . S
C458 C467 1.390 . S
C459 C458 1.387 . S
C459 C461 1.387 . S
H460 C467 0.950 . S
C461 C459 1.387 . S
C461 C463 1.390 . S
C461 H465 0.950 . S
H462 C458 0.950 . S
C463 C461 1.390 . S
C463 C464 1.387 . S
C463 H466 0.950 . S
C464 C463 1.387 . S
C464 C467 1.387 . S
H465 C461 0.950 . S
H466 C463 0.950 . S
C467 C458 1.390 . S
C467 H460 0.950 . S
C467 C464 1.387 . S
C468 C469 1.387 . S
C468 H472 0.950 . S
C468 C477 1.390 . S
C469 C468 1.387 . S
C469 C471 1.387 . S
H470 C477 0.950 . S
C471 C469 1.387 . S
C471 C473 1.390 . S
C471 H475 0.950 . S
H472 C468 0.950 . S
C473 C471 1.390 . S
C473 C474 1.387 . S
C473 H476 0.950 . S
C474 C473 1.387 . S
C474 C477 1.387 . S
H475 C471 0.950 . S
H476 C473 0.950 . S
C477 C468 1.390 . S
C477 H470 0.950 . S
C477 C474 1.387 . S
C478 C479 1.369 1_655 S
C478 H482 0.950 . S
C478 C487 1.390 . S
C479 C478 1.369 1_455 S
C479 C481 1.406 . S
H480 C487 0.950 . S
C481 C479 1.406 . S
C481 C483 1.390 . S
C481 H485 0.950 . S
H482 C478 0.950 . S
C483 C481 1.390 . S
C483 C484 1.387 . S
C483 H486 0.950 . S
C484 C483 1.387 . S
C484 C487 1.387 1_455 S
H485 C481 0.950 . S
H486 C483 0.950 . S
C487 C478 1.390 . S
C487 H480 0.950 . S
C487 C484 1.387 1_655 S
C488 C489 1.387 1_565 S
C488 H492 0.950 . S
C488 C497 1.390 . S
C489 C488 1.387 1_545 S
C489 C491 1.388 . S
H490 C497 0.950 . S
C491 C489 1.388 . S
C491 C493 1.390 . S
C491 H495 0.950 . S
H492 C488 0.950 . S
C493 C491 1.390 . S
C493 C494 1.387 1_554 S
C493 H496 0.950 . S
C494 C493 1.387 1_556 S
C494 C497 1.388 1_546 S
H495 C491 0.950 . S
H496 C493 0.950 . S
C497 C488 1.390 . S
C497 H490 0.950 . S
C497 C494 1.388 1_564 S
C498 C499 1.387 . S
C498 H502 0.950 . S
C498 C507 1.390 . S
C499 C498 1.387 . S
C499 C501 1.387 . S
H500 C507 0.957 . S
C501 C499 1.387 . S
C501 C503 1.390 . S
C501 H505 0.950 . S
H502 C498 0.950 . S
C503 C501 1.390 . S
C503 C504 1.387 . S
C503 H506 0.950 . S
C504 C503 1.387 . S
C504 C507 1.387 . S
H505 C501 0.950 . S
H506 C503 0.950 . S
C507 C498 1.390 . S
C507 H500 0.957 . S
C507 C504 1.387 . S
C508 C509 1.387 . S
C508 H512 0.950 . S
C508 C517 1.390 . S
C509 C508 1.387 . S
C509 C511 1.387 . S
H510 C517 0.955 . S
C511 C509 1.387 . S
C511 C513 1.390 . S
C511 H515 0.950 . S
H512 C508 0.950 . S
C513 C511 1.390 . S
C513 C514 1.390 . S
C513 H516 0.950 . S
C514 C513 1.390 . S
C514 C517 1.389 . S
H515 C511 0.950 . S
H516 C513 0.950 . S
C517 C508 1.390 . S
C517 H510 0.955 . S
C517 C514 1.389 . S
C518 C519 1.369 1_455 S
C518 H522 0.950 . S
C518 C527 1.390 . S
C519 C518 1.369 1_655 S
C519 C521 1.406 . S
H520 C527 0.950 . S
C521 C519 1.406 . S
C521 C523 1.390 . S
C521 H525 0.950 . S
H522 C518 0.950 . S
C523 C521 1.390 . S
C523 C524 1.387 1_554 S
C523 H526 0.950 . S
C524 C523 1.387 1_556 S
C524 C527 1.387 1_656 S
H525 C521 0.950 . S
H526 C523 0.950 . S
C527 C518 1.390 . S
C527 H520 0.950 . S
C527 C524 1.387 1_454 S
C528 C529 1.389 1_655 S
C528 H532 0.950 . S
C528 C537 1.390 . S
C529 C528 1.389 1_455 S
C529 C531 1.389 1_455 S
H530 C537 0.950 . S
C531 C529 1.389 1_655 S
C531 C533 1.390 . S
C531 H535 0.962 . S
H532 C528 0.950 . S
C533 C531 1.390 . S
C533 C534 1.387 . S
C533 H536 0.950 . S
C534 C533 1.387 . S
C534 C537 1.387 . S
H535 C531 0.962 . S
H536 C533 0.950 . S
C537 C528 1.390 . S
C537 H530 0.950 . S
C537 C534 1.387 . S
C538 C539 1.386 1_565 S
C538 H542 0.950 1_565 S
C538 C547 1.390 . S
C539 C538 1.386 1_545 S
C539 C541 1.383 1_545 S
H540 C547 0.950 . S
C541 C539 1.383 1_565 S
C541 C543 1.390 . S
C541 H545 0.950 . S
H542 C538 0.950 1_545 S
C543 C541 1.390 . S
C543 C544 1.387 . S
C543 H546 0.950 . S
C544 C543 1.387 . S
C544 C547 1.387 . S
H545 C541 0.950 . S
H546 C543 0.950 . S
C547 C538 1.390 . S
C547 H540 0.950 . S
C547 C544 1.387 . S
C548 C549 1.387 . S
C548 H552 0.950 . S
C548 C557 1.390 . S
C549 C548 1.387 . S
C549 C551 1.387 . S
H550 C557 0.950 . S
C551 C549 1.387 . S
C551 C553 1.390 . S
C551 H555 0.950 . S
H552 C548 0.950 . S
C553 C551 1.390 . S
C553 C554 1.387 . S
C553 H556 0.950 . S
C554 C553 1.387 . S
C554 C557 1.387 . S
H555 C551 0.950 . S
H556 C553 0.950 . S
C557 C548 1.390 . S
C557 H550 0.950 . S
C557 C554 1.387 . S
C558 C559 1.387 . S
C558 H562 0.950 . S
C558 C567 1.390 . S
C559 C558 1.387 . S
C559 C561 1.387 . S
H560 C567 0.950 . S
C561 C559 1.387 . S
C561 C563 1.390 . S
C561 H565 0.950 . S
H562 C558 0.950 . S
C563 C561 1.390 . S
C563 C564 1.387 . S
C563 H566 0.950 . S
C564 C563 1.387 . S
C564 C567 1.387 . S
H565 C561 0.950 . S
H566 C563 0.950 . S
C567 C558 1.390 . S
C567 H560 0.950 . S
C567 C564 1.387 . S
C568 C569 1.387 . S
C568 H572 0.969 1_554 S
C568 C577 1.372 1_655 S
C569 C568 1.387 . S
C569 C571 1.390 1_655 S
H570 C577 0.950 1_556 S
C571 C569 1.390 1_455 S
C571 C573 1.390 . S
C571 H575 0.950 . S
H572 C568 0.969 1_556 S
C573 C571 1.390 . S
C573 C574 1.387 . S
C573 H576 0.950 . S
C574 C573 1.387 . S
C574 C577 1.387 . S
H575 C571 0.950 . S
H576 C573 0.950 . S
C577 C568 1.372 1_455 S
C577 H570 0.950 1_554 S
C577 C574 1.387 . S
C578 C579 1.388 1_545 S
C578 H582 0.950 . S
C578 C587 1.390 . S
C579 C578 1.388 1_565 S
C579 C581 1.388 1_565 S
H580 C587 0.950 . S
C581 C579 1.388 1_545 S
C581 C583 1.390 . S
C581 H585 0.950 1_544 S
H582 C578 0.950 . S
C583 C581 1.390 . S
C583 C584 1.387 . S
C583 H586 0.950 1_554 S
C584 C583 1.387 . S
C584 C587 1.387 . S
H585 C581 0.950 1_566 S
H586 C583 0.950 1_556 S
C587 C578 1.390 . S
C587 H580 0.950 . S
C587 C584 1.387 . S
C588 C589 1.387 . S
C588 H592 0.950 . S
C588 C597 1.390 . S
C589 C588 1.387 . S
C589 C591 1.387 . S
H590 C597 0.950 . S
C591 C589 1.387 . S
C591 C593 1.390 . S
C591 H595 0.950 1_554 S
H592 C588 0.950 . S
C593 C591 1.390 . S
C593 C594 1.387 . S
C593 H596 0.950 1_554 S
C594 C593 1.387 . S
C594 C597 1.387 . S
H595 C591 0.950 1_556 S
H596 C593 0.950 1_556 S
C597 C588 1.390 . S
C597 H590 0.950 . S
C597 C594 1.387 . S
C598 C599 1.387 . S
C598 H602 0.950 . S
C598 C607 1.390 . S
C599 C598 1.387 . S
C599 C601 1.387 . S
H600 C607 0.950 . S
C601 C599 1.387 . S
C601 C603 1.390 . S
C601 H605 0.950 1_554 S
H602 C598 0.950 . S
C603 C601 1.390 . S
C603 C604 1.387 . S
C603 H606 0.950 1_554 S
C604 C603 1.387 . S
C604 C607 1.387 . S
H605 C601 0.950 1_556 S
H606 C603 0.950 1_556 S
C607 C598 1.390 . S
C607 H600 0.950 . S
C607 C604 1.387 . S
C608 C609 1.387 1_655 S
C608 H612 0.950 . S
C608 C617 1.390 . S
C609 C608 1.387 1_455 S
C609 C611 1.387 . S
H610 C617 0.950 . S
C611 C609 1.387 . S
C611 C613 1.390 . S
C611 H615 0.950 . S
H612 C608 0.950 . S
C613 C611 1.390 . S
C613 C614 1.387 . S
C613 H616 0.950 . S
C614 C613 1.387 . S
C614 C617 1.387 1_455 S
H615 C611 0.950 . S
H616 C613 0.950 . S
C617 C608 1.390 . S
C617 H610 0.950 . S
C617 C614 1.387 1_655 S
C618 C619 1.387 . S
C618 H622 0.950 . S
C618 C627 1.390 . S
C619 C618 1.387 . S
C619 C621 1.387 1_545 S
H620 C627 0.950 . S
C621 C619 1.387 1_565 S
C621 C623 1.390 . S
C621 H625 0.950 . S
H622 C618 0.950 . S
C623 C621 1.390 . S
C623 C624 1.387 1_565 S
C623 H626 0.950 . S
C624 C623 1.387 1_545 S
C624 C627 1.387 . S
H625 C621 0.950 . S
H626 C623 0.950 . S
C627 C618 1.390 . S
C627 H620 0.950 . S
C627 C624 1.387 . S
C628 C629 1.387 . S
C628 H632 0.950 . S
C628 C637 1.390 . S
C629 C628 1.387 . S
C629 C631 1.387 . S
H630 C637 0.950 . S
C631 C629 1.387 . S
C631 C633 1.390 . S
C631 H635 0.950 . S
H632 C628 0.950 . S
C633 C631 1.390 . S
C633 C634 1.387 . S
C633 H636 0.950 . S
C634 C633 1.387 . S
C634 C637 1.387 . S
H635 C631 0.950 . S
H636 C633 0.950 . S
C637 C628 1.390 . S
C637 H630 0.950 . S
C637 C634 1.387 . S
C638 C639 1.387 . S
C638 H642 0.950 . S
C638 C647 1.390 . S
C639 C638 1.387 . S
C639 C641 1.387 . S
H640 C647 0.950 . S
C641 C639 1.387 . S
C641 C643 1.390 . S
C641 H645 0.950 . S
H642 C638 0.950 . S
C643 C641 1.390 . S
C643 C644 1.387 . S
C643 H646 0.950 . S
C644 C643 1.387 . S
C644 C647 1.387 . S
H645 C641 0.950 . S
H646 C643 0.950 . S
C647 C638 1.390 . S
C647 H640 0.950 . S
C647 C644 1.387 . S
C648 C649 1.387 1_455 S
C648 H652 0.950 . S
C648 C657 1.390 . S
C649 C648 1.387 1_655 S
C649 C651 1.387 . S
H650 C657 0.950 . S
C651 C649 1.387 . S
C651 C653 1.390 . S
C651 H655 0.950 . S
H652 C648 0.950 . S
C653 C651 1.390 . S
C653 C654 1.387 . S
C653 H656 0.950 . S
C654 C653 1.387 . S
C654 C657 1.387 1_655 S
H655 C651 0.950 . S
H656 C653 0.950 . S
C657 C648 1.390 . S
C657 H650 0.950 . S
C657 C654 1.387 1_455 S
C658 C659 1.387 . S
C658 H662 0.950 . S
C658 C667 1.390 . S
C659 C658 1.387 . S
C659 C661 1.387 1_565 S
H660 C667 0.950 . S
C661 C659 1.387 1_545 S
C661 C663 1.390 . S
C661 H665 0.950 . S
H662 C658 0.950 . S
C663 C661 1.390 . S
C663 C664 1.387 1_545 S
C663 H666 0.950 . S
C664 C663 1.387 1_565 S
C664 C667 1.387 . S
H665 C661 0.950 . S
H666 C663 0.950 . S
C667 C658 1.390 . S
C667 H660 0.950 . S
C667 C664 1.387 . S
C668 C669 1.387 . S
C668 H672 0.950 . S
C668 C677 1.390 . S
C669 C668 1.387 . S
C669 C671 1.387 . S
H670 C677 0.950 . S
C671 C669 1.387 . S
C671 C673 1.390 . S
C671 H675 0.950 . S
H672 C668 0.950 . S
C673 C671 1.390 . S
C673 C674 1.387 . S
C673 H676 0.950 . S
C674 C673 1.387 . S
C674 C677 1.387 . S
H675 C671 0.950 . S
H676 C673 0.950 . S
C677 C668 1.390 . S
C677 H670 0.950 . S
C677 C674 1.387 . S
C678 C679 1.387 . S
C678 H682 0.950 . S
C678 C687 1.390 . S
C679 C678 1.387 . S
C679 C681 1.387 . S
H680 C687 0.950 . S
C681 C679 1.387 . S
C681 C683 1.390 . S
C681 H685 0.950 . S
H682 C678 0.950 . S
C683 C681 1.390 . S
C683 C684 1.387 . S
C683 H686 0.950 . S
C684 C683 1.387 . S
C684 C687 1.387 . S
H685 C681 0.950 . S
H686 C683 0.950 . S
C687 C678 1.390 . S
C687 H680 0.950 . S
C687 C684 1.387 . S
C449 C241 2.459 . S
C454 C290 2.841 1_545 S
C464 C330 2.883 . S
C459 C277 2.592 . S
C474 C370 2.866 . S
C469 C169 2.482 . S
C484 C410 2.856 1_455 S
C479 C205 2.478 . S
C494 C303 2.843 . S
C489 C97 2.464 . S
C499 C133 2.578 . S
C504 C343 2.884 1_554 S
C509 C25 2.499 . S
C514 C383 2.862 1_554 S
C519 C61 2.475 1_655 S
C524 C423 2.855 1_655 S
C534 C314 0.746 . S
C529 C211 0.744 . S
C544 C354 0.749 . S
C539 C247 0.748 . S
C554 C394 0.694 . S
C549 C253 0.698 . S
C559 C175 0.703 . S
C564 C434 0.701 . S
C569 C67 0.749 1_655 S
C574 C297 0.751 . S
C584 C337 0.749 . S
C579 C103 0.748 1_565 S
C594 C377 0.703 . S
C589 C109 0.696 . S
C599 C31 0.718 . S
C604 C417 0.716 . S
C609 C181 3.224 . S
C614 C291 3.692 . S
C619 C217 3.179 . S
C624 C331 3.655 . S
C634 C371 3.654 . S
C629 C283 3.109 . S
C644 C411 3.680 . S
C639 C145 3.195 . S
C649 C37 3.237 1_655 S
C654 C310 3.702 . S
C664 C350 3.654 . S
C659 C73 3.187 1_565 S
C674 C390 3.655 . S
C669 C139 3.084 . S
C679 C1 3.220 . S
C684 C430 3.684 . S
