# Generated by pormake.
# Topology zzz, (3,6)-cn, num edge types: 1
# Building blocks:
#     Node 0, Type 0, BuildingBlock: KAKCAD_clean_linker_0, # of connection points: 3
#     Node 1, Type 0, BuildingBlock: KAKCAD_clean_linker_0, # of connection points: 3
#     Node 2, Type 0, BuildingBlock: KAKCAD_clean_linker_0, # of connection points: 3
#     Node 3, Type 0, BuildingBlock: KAKCAD_clean_linker_0, # of connection points: 3
#     Node 4, Type 0, BuildingBlock: KAKCAD_clean_linker_0, # of connection points: 3
#     Node 5, Type 0, BuildingBlock: KAKCAD_clean_linker_0, # of connection points: 3
#     Node 6, Type 0, BuildingBlock: KAKCAD_clean_linker_0, # of connection points: 3
#     Node 7, Type 0, BuildingBlock: KAKCAD_clean_linker_0, # of connection points: 3
#     Node 8, Type 1, BuildingBlock: HISSIN_clean_sbu_0, # of connection points: 6
#     Node 9, Type 1, BuildingBlock: HISSIN_clean_sbu_0, # of connection points: 6
#     Node 10, Type 1, BuildingBlock: HISSIN_clean_sbu_0, # of connection points: 6
#     Node 11, Type 1, BuildingBlock: HISSIN_clean_sbu_0, # of connection points: 6
#     Edge 12, Type (0, 1), BuildingBlock: EZIPEK_clean_linker_0, # of connection points: 2
#     Edge 13, Type (0, 1), BuildingBlock: EZIPEK_clean_linker_0, # of connection points: 2
#     Edge 14, Type (0, 1), BuildingBlock: EZIPEK_clean_linker_0, # of connection points: 2
#     Edge 15, Type (0, 1), BuildingBlock: EZIPEK_clean_linker_0, # of connection points: 2
#     Edge 16, Type (0, 1), BuildingBlock: EZIPEK_clean_linker_0, # of connection points: 2
#     Edge 17, Type (0, 1), BuildingBlock: EZIPEK_clean_linker_0, # of connection points: 2
#     Edge 18, Type (0, 1), BuildingBlock: EZIPEK_clean_linker_0, # of connection points: 2
#     Edge 19, Type (0, 1), BuildingBlock: EZIPEK_clean_linker_0, # of connection points: 2
#     Edge 20, Type (0, 1), BuildingBlock: EZIPEK_clean_linker_0, # of connection points: 2
#     Edge 21, Type (0, 1), BuildingBlock: EZIPEK_clean_linker_0, # of connection points: 2
#     Edge 22, Type (0, 1), BuildingBlock: EZIPEK_clean_linker_0, # of connection points: 2
#     Edge 23, Type (0, 1), BuildingBlock: EZIPEK_clean_linker_0, # of connection points: 2
#     Edge 24, Type (0, 1), BuildingBlock: EZIPEK_clean_linker_0, # of connection points: 2
#     Edge 25, Type (0, 1), BuildingBlock: EZIPEK_clean_linker_0, # of connection points: 2
#     Edge 26, Type (0, 1), BuildingBlock: EZIPEK_clean_linker_0, # of connection points: 2
#     Edge 27, Type (0, 1), BuildingBlock: EZIPEK_clean_linker_0, # of connection points: 2
#     Edge 28, Type (0, 1), BuildingBlock: EZIPEK_clean_linker_0, # of connection points: 2
#     Edge 29, Type (0, 1), BuildingBlock: EZIPEK_clean_linker_0, # of connection points: 2
#     Edge 30, Type (0, 1), BuildingBlock: EZIPEK_clean_linker_0, # of connection points: 2
#     Edge 31, Type (0, 1), BuildingBlock: EZIPEK_clean_linker_0, # of connection points: 2
#     Edge 32, Type (0, 1), BuildingBlock: EZIPEK_clean_linker_0, # of connection points: 2
#     Edge 33, Type (0, 1), BuildingBlock: EZIPEK_clean_linker_0, # of connection points: 2
#     Edge 34, Type (0, 1), BuildingBlock: EZIPEK_clean_linker_0, # of connection points: 2
#     Edge 35, Type (0, 1), BuildingBlock: EZIPEK_clean_linker_0, # of connection points: 2
# Relax obj value: 0.448
# Max RMSD: 0.239
# Mean RMSD: 0.194
data_MOF--net-zzz--node1-HISSIN_clean_sbu_0--node2-KAKCAD_clean_linker_0--edge1-EZIPEK_clean_linker_0
_symmetry_space_group_name_H-M    P1
_symmetry_Int_Tables_number       1
_symmetry_cell_setting            triclinic
loop_
_symmetry_equiv_pos_as_xyz
'x, y, z'
_cell_length_a     43.706049
_cell_length_b     43.665718
_cell_length_c     16.796864
_cell_angle_alpha  89.871893
_cell_angle_beta   91.588146
_cell_angle_gamma 91.230142
loop_
_atom_site_label
_atom_site_type_symbol
_atom_site_fract_x
_atom_site_fract_y
_atom_site_fract_z
_atom_type_partial_charge
C0 C 0.77918 0.46554 1.00726 0.0
C1 C 0.80608 0.44941 1.02187 0.0
C2 C 0.76435 0.47893 0.07059 0.0
C3 C 0.7751 0.47472 0.15001 0.0
C4 C 0.79908 0.45416 0.16392 0.0
C5 C 0.81484 0.44221 0.10043 0.0
C6 C 0.76399 0.49427 0.21599 0.0
C7 C 0.73513 0.50747 0.21042 0.0
C8 C 0.7266 0.53043 0.26306 0.0
C9 C 0.74664 0.53872 0.3279 0.0
C10 C 0.7749 0.52351 0.33897 0.0
C11 C 0.78346 0.50238 0.28098 0.0
C12 C 0.797 0.52885 0.40806 0.0
C13 C 0.81019 0.55792 0.42466 0.0
C14 C 0.80938 0.5033 0.44814 0.0
C15 C 0.83545 0.50627 0.49831 0.0
C16 C 0.84985 0.53493 0.51086 0.0
C17 C 0.69751 0.54606 0.2412 0.0
C18 C 0.69888 0.57197 0.19128 0.0
C19 C 0.66983 0.52896 0.24277 0.0
C20 C 0.64545 0.53553 0.18962 0.0
C21 C 0.64814 0.55946 0.13398 0.0
C22 C 0.67442 0.57862 0.13819 0.0
C23 C 0.83632 0.56094 0.47576 0.0
H24 H 0.77176 0.47071 0.94672 0.0
H25 H 0.74605 0.49438 0.05581 0.0
H26 H 0.80698 0.44859 0.2237 0.0
H27 H 0.83505 0.42885 0.11273 0.0
H28 H 0.71928 0.50089 0.16244 0.0
H29 H 0.80623 0.49318 0.28571 0.0
H30 H 0.74018 0.55623 0.3694 0.0
H31 H 0.80159 0.57799 0.3942 0.0
H32 H 0.79985 0.48056 0.43685 0.0
H33 H 0.84525 0.48588 0.5245 0.0
H34 H 0.72012 0.58502 0.18681 0.0
H35 H 0.66833 0.5084 0.27885 0.0
H36 H 0.84702 0.58333 0.48426 0.0
H37 H 0.6772 0.59701 0.09545 0.0
H38 H 0.62558 0.52028 0.18723 0.0
C39 C 0.95764 0.85549 0.11478 0.0
C40 C 0.98331 0.85445 0.06678 0.0
C41 C 0.94761 0.82883 0.15299 0.0
C42 C 0.9641 0.8017 0.14504 0.0
C43 C 0.98487 0.79968 0.08277 0.0
C44 C 0.99472 0.82617 0.04436 0.0
C45 C 0.96977 0.7821 0.21582 0.0
C46 C 0.97762 0.75156 0.20625 0.0
C47 C 0.99583 0.73657 0.26354 0.0
C48 C 1.00491 0.75242 0.33504 0.0
C49 C 0.9943 0.78262 0.34868 0.0
C50 C 0.9767 0.79662 0.28851 0.0
C51 C 1.00287 0.8028 0.41889 0.0
C52 C 0.97937 0.81843 0.45677 0.0
C53 C 0.03315 0.81377 0.43177 0.0
C54 C 0.03934 0.84077 0.4764 0.0
C55 C 1.01534 0.85794 0.50751 0.0
C56 C 1.00724 0.70611 0.23825 0.0
C57 C 0.98685 0.68067 0.2361 0.0
C58 C 0.03309 0.70528 0.19008 0.0
C59 C 0.03729 0.68077 0.13734 0.0
C60 C 1.01573 0.65641 0.13129 0.0
C61 C 0.99117 0.65603 0.18384 0.0
C62 C 0.98542 0.84566 0.49926 0.0
H63 H 0.94811 0.87726 0.13075 0.0
H64 H 0.93066 0.83068 0.1985 0.0
H65 H 0.99749 0.77901 0.0731 0.0
H66 H 1.01403 0.82507 1.00542 0.0
H67 H 0.97221 0.74034 0.14982 0.0
H68 H 0.97129 0.82058 0.29545 0.0
H69 H 0.01989 0.74161 0.37858 0.0
H70 H 0.95573 0.81101 0.44735 0.0
H71 H 0.05176 0.80291 0.40223 0.0
H72 H 0.06272 0.84935 0.48217 0.0
H73 H 0.96614 0.68103 0.27001 0.0
H74 H 0.04859 0.72494 0.18787 0.0
H75 H 0.96637 0.85801 0.52244 0.0
H76 H 0.97418 0.63762 0.18066 0.0
H77 H 0.05641 0.68178 0.09767 0.0
C78 C 0.70587 0.98595 0.03103 0.0
C79 C 0.68119 0.97333 0.07233 0.0
C80 C 0.73568 0.97952 0.05544 0.0
C81 C 0.7409 0.96106 0.1228 0.0
C82 C 0.71629 0.9435 0.15265 0.0
C83 C 0.68629 0.94984 0.12779 0.0
C84 C 0.76667 0.97043 0.17693 0.0
C85 C 0.7956 0.97738 0.14738 0.0
C86 C 0.81666 0.99684 0.18902 0.0
C87 C 0.80722 1.01035 0.26175 0.0
C88 C 0.7782 1.00212 0.29348 0.0
C89 C 0.75922 0.98128 0.2518 0.0
C90 C 0.76325 0.01676 0.36265 0.0
C91 C 0.75791 0.99883 0.43108 0.0
C92 C 0.74333 0.04114 0.34664 0.0
C93 C 0.71736 0.04556 0.39286 0.0
C94 C 0.71069 0.02591 0.45692 0.0
C95 C 0.84677 1.00369 0.14953 0.0
C96 C 0.86129 0.98002 0.10867 0.0
C97 C 0.85886 0.03369 0.14126 0.0
C98 C 0.8835 0.03986 0.09016 0.0
C99 C 0.89633 0.01628 0.04505 0.0
C100 C 0.88519 0.98623 0.05665 0.0
C101 C 0.73204 1.00338 0.47765 0.0
H102 H 0.70218 1.00345 0.98614 0.0
H103 H 0.75408 0.99299 0.02996 0.0
H104 H 0.71986 0.92854 0.20346 0.0
H105 H 0.66731 0.93925 0.15842 0.0
H106 H 0.80072 0.96935 0.08828 0.0
H107 H 0.73645 0.97664 0.27382 0.0
H108 H 0.822 0.02687 0.29274 0.0
H109 H 0.77194 0.97915 0.44359 0.0
H110 H 0.74587 0.05461 0.2929 0.0
H111 H 0.70128 0.063 0.37504 0.0
H112 H 0.85322 0.9565 0.11427 0.0
H113 H 0.84837 0.05258 0.17107 0.0
H114 H 0.72749 0.98776 0.5263 0.0
H115 H 0.89462 0.96746 1.02391 0.0
H116 H 0.89177 0.06325 0.08346 0.0
C117 C 0.51574 0.74844 0.51443 0.0
C118 C 0.53346 0.72357 0.4921 0.0
C119 C 0.51163 0.77354 0.4629 0.0
C120 C 0.52515 0.7745 0.38764 0.0
C121 C 0.54476 0.75065 0.36805 0.0
C122 C 0.5489 0.72548 0.41972 0.0
C123 C 0.51042 0.79302 0.32254 0.0
C124 C 0.52531 0.81651 0.27798 0.0
C125 C 0.51 0.8299 0.21078 0.0
C126 C 0.48036 0.81906 0.18924 0.0
C127 C 0.46608 0.79538 0.23145 0.0
C128 C 0.48076 0.78339 0.29909 0.0
C129 C 0.43981 0.77793 0.19562 0.0
C130 C 0.44261 0.76632 0.1184 0.0
C131 C 0.41586 0.76684 0.24291 0.0
C132 C 0.39728 0.74217 0.21655 0.0
C133 C 0.40324 0.72794 0.14395 0.0
C134 C 0.52422 0.85348 0.15697 0.0
C135 C 0.53346 0.88276 0.18463 0.0
C136 C 0.52317 0.84847 0.07399 0.0
C137 C 0.52905 0.87232 1.02018 0.0
C138 C 0.53648 0.90202 0.04734 0.0
C139 C 0.53966 0.90676 0.13035 0.0
C140 C 0.42459 0.74139 0.09303 0.0
H141 H 0.5035 0.74756 0.56961 0.0
H142 H 0.49567 0.79099 0.47892 0.0
H143 H 0.55469 0.75008 0.3097 0.0
H144 H 0.56259 0.70657 0.40084 0.0
H145 H 0.54858 0.82359 0.29383 0.0
H146 H 0.47015 0.76418 0.32976 0.0
H147 H 0.46874 0.82814 0.13668 0.0
H148 H 0.4609 0.77427 0.08076 0.0
H149 H 0.41318 0.77561 0.30253 0.0
H150 H 0.38044 0.73235 0.25587 0.0
H151 H 0.53415 0.88757 0.24788 0.0
H152 H 0.51618 0.82624 0.05043 0.0
H153 H 0.42917 0.73098 0.03618 0.0
H154 H 0.54558 0.92937 0.15308 0.0
H155 H 0.52665 0.86782 0.95689 0.0
C156 C 0.27167 0.51928 0.42826 0.0
C157 C 0.23987 0.51532 0.4247 0.0
C158 C 0.28917 0.50669 0.3692 0.0
C159 C 0.27505 0.48941 0.3068 0.0
C160 C 0.24384 0.48129 0.31214 0.0
C161 C 0.22623 0.49456 0.37029 0.0
C162 C 0.29106 0.48628 0.23028 0.0
C163 C 0.32299 0.48566 0.2305 0.0
C164 C 0.33932 0.49445 0.16342 0.0
C165 C 0.32303 0.50057 0.09081 0.0
C166 C 0.29054 0.49724 0.08723 0.0
C167 C 0.27511 0.49074 0.15762 0.0
C168 C 0.27088 0.50236 1.01412 0.0
C169 C 0.26268 0.53206 0.99156 0.0
C170 C 0.25321 0.47784 0.98252 0.0
C171 C 0.22835 0.48276 0.92946 0.0
C172 C 0.22036 0.51249 0.90267 0.0
C173 C 0.37259 0.50095 0.17928 0.0
C174 C 0.38135 0.53025 0.20783 0.0
C175 C 0.39174 0.47629 0.19839 0.0
C176 C 0.41705 0.4802 0.25119 0.0
C177 C 0.4236 0.50882 0.28683 0.0
C178 C 0.40649 0.53412 0.26126 0.0
C179 C 0.23763 0.53706 0.93866 0.0
H180 H 0.28243 0.53508 0.47065 0.0
H181 H 0.31306 0.51365 0.36815 0.0
H182 H 0.23246 0.46703 0.26724 0.0
H183 H 0.20162 0.49089 0.36811 0.0
H184 H 0.33549 0.48121 0.28588 0.0
H185 H 0.25033 0.49141 0.15605 0.0
H186 H 0.33528 0.50778 0.03861 0.0
H187 H 0.27421 0.5516 1.01959 0.0
H188 H 0.25741 0.45473 1.00312 0.0
H189 H 0.21445 0.46284 0.91379 0.0
H190 H 0.36669 0.54954 0.19623 0.0
H191 H 0.38518 0.45332 0.17944 0.0
H192 H 0.23124 0.56056 0.93161 0.0
H193 H 0.41107 0.55646 0.28744 0.0
H194 H 0.42991 0.46034 0.26953 0.0
C195 C 0.10221 0.2226 0.31804 0.0
C196 C 0.1125 0.19996 0.2669 0.0
C197 C 0.10695 0.25337 0.29937 0.0
C198 C 0.12139 0.26143 0.22828 0.0
C199 C 0.13849 0.23894 0.19018 0.0
C200 C 0.13341 0.20797 0.20822 0.0
C201 C 0.10713 0.28615 0.17982 0.0
C202 C 0.09722 0.31297 0.21581 0.0
C203 C 0.07303 0.32994 0.1821 0.0
C204 C 0.05883 0.31951 0.10918 0.0
C205 C 0.07002 0.2932 0.07024 0.0
C206 C 0.09486 0.27801 0.10479 0.0
C207 C 0.0545 0.27641 1.00195 0.0
C208 C 0.03136 0.25453 1.01866 0.0
C209 C 0.07049 0.2729 0.9308 0.0
C210 C 0.06523 0.24715 0.88143 0.0
C211 C 0.0439 0.22407 0.90189 0.0
C212 C 0.0616 0.35601 0.23082 0.0
C213 C 0.05347 0.35056 0.31037 0.0
C214 C 0.06393 0.38667 0.20493 0.0
C215 C 0.05948 0.41111 0.25828 0.0
C216 C 0.05269 0.40542 0.33873 0.0
C217 C 0.04905 0.37482 0.36331 0.0
C218 C 0.02614 0.22873 0.96938 0.0
H219 H 0.08677 0.21664 0.36532 0.0
H220 H 0.09439 0.27004 0.33231 0.0
H221 H 0.15098 0.2447 0.13717 0.0
H222 H 0.14221 0.19062 0.16953 0.0
H223 H 0.10686 0.31936 0.27377 0.0
H224 H 0.10176 0.25688 0.07727 0.0
H225 H 0.0389 0.33094 0.08489 0.0
H226 H 0.01947 0.25569 0.07428 0.0
H227 H 0.08922 0.28856 0.91746 0.0
H228 H 0.07939 0.2442 0.83021 0.0
H229 H 0.05172 0.3273 0.33265 0.0
H230 H 0.07066 0.39174 0.14467 0.0
H231 H 1.00966 0.21131 0.98706 0.0
H232 H 0.04362 0.36964 0.42449 0.0
H233 H 0.06223 0.43446 0.2374 0.0
C234 C 0.30278 0.95059 0.43513 0.0
C235 C 0.32846 0.9331 0.42059 0.0
C236 C 0.29075 0.96953 0.37569 0.0
C237 C 0.30264 0.96974 0.29817 0.0
C238 C 0.32676 0.94994 0.28247 0.0
C239 C 0.33986 0.93228 0.34336 0.0
C240 C 0.29032 0.991 0.23535 0.0
C241 C 0.26034 1.00135 0.2396 0.0
C242 C 0.24872 0.02366 0.18771 0.0
C243 C 0.26713 0.03411 0.12395 0.0
C244 C 0.29716 0.02252 0.11523 0.0
C245 C 0.30848 1.00186 0.1729 0.0
C246 C 0.31787 0.0307 0.04752 0.0
C247 C 0.31046 0.02166 0.96868 0.0
C248 C 0.34796 0.04179 0.06407 0.0
C249 C 0.37016 0.04272 1.00487 0.0
C250 C 0.36317 0.03235 0.92717 0.0
C251 C 0.21791 0.03562 0.20845 0.0
C252 C 0.19355 1.01437 0.2187 0.0
C253 C 0.21559 0.06465 0.244 0.0
C254 C 0.19097 0.07118 0.29367 0.0
C255 C 0.16854 0.04852 0.31088 0.0
C256 C 0.16955 0.02053 0.2698 0.0
C257 C 0.33284 0.02238 0.90934 0.0
H258 H 0.29343 0.95123 0.49417 0.0
H259 H 0.27286 0.98475 0.39245 0.0
H260 H 0.33601 0.94824 0.22364 0.0
H261 H 0.35943 0.91846 0.33057 0.0
H262 H 0.24563 0.99249 0.2854 0.0
H263 H 0.33179 0.99432 0.16853 0.0
H264 H 0.25833 0.05091 0.08221 0.0
H265 H 0.28785 1.01233 0.95399 0.0
H266 H 0.35471 0.0485 0.12418 0.0
H267 H 0.39324 0.05051 1.02062 0.0
H268 H 0.19473 0.99163 0.19342 0.0
H269 H 0.23413 0.08135 0.23909 0.0
H270 H 0.32673 1.01419 0.85009 0.0
H271 H 0.15261 1.00265 0.28072 0.0
H272 H 0.19064 0.09317 0.32328 0.0
C273 C 0.49111 0.34117 0.88211 0.0
C274 C 0.51921 0.35756 0.88471 0.0
C275 C 0.48687 0.31457 0.92863 0.0
C276 C 0.5107 0.30346 0.97826 0.0
C277 C 0.53951 0.31853 0.97541 0.0
C278 C 0.5437 0.34524 0.92945 0.0
C279 C 0.50273 0.28631 0.05247 0.0
C280 C 0.50346 0.25396 0.06318 0.0
C281 C 0.49613 0.24091 0.13846 0.0
C282 C 0.48892 0.26042 0.20115 0.0
C283 C 0.49049 0.29223 0.19262 0.0
C284 C 0.49627 0.30474 0.11758 0.0
C285 C 0.49312 0.31236 0.26362 0.0
C286 C 0.51097 0.30296 0.33005 0.0
C287 C 0.48488 0.34326 0.2577 0.0
C288 C 0.49918 0.36504 0.30733 0.0
C289 C 0.52063 0.35589 0.3658 0.0
C290 C 0.49839 0.2077 0.15976 0.0
C291 C 0.4726 0.19239 0.1898 0.0
C292 C 0.52709 0.19511 0.17653 0.0
C293 C 0.52991 0.16829 0.22289 0.0
C294 C 0.50401 0.15188 0.25205 0.0
C295 C 0.47537 0.16576 0.2363 0.0
C296 C 0.52434 0.32466 0.38142 0.0
H297 H 0.47176 0.35022 0.84872 0.0
H298 H 0.46412 0.30437 0.93158 0.0
H299 H 0.55802 0.31141 1.01503 0.0
H300 H 0.56553 0.35744 0.9331 0.0
H301 H 0.50976 0.23935 1.01456 0.0
H302 H 0.49813 0.32939 0.11033 0.0
H303 H 0.48417 0.25067 0.25907 0.0
H304 H 0.5177 0.2794 0.33751 0.0
H305 H 0.47013 0.35106 0.20926 0.0
H306 H 0.49555 0.3891 0.29542 0.0
H307 H 0.45029 0.20262 0.18317 0.0
H308 H 0.54767 0.20752 0.15983 0.0
H309 H 0.54031 0.31724 0.42769 0.0
H310 H 0.45472 0.15793 0.2641 0.0
H311 H 0.55295 0.16224 0.23996 0.0
Eu312 Eu 1.00771 0.05411 0.62141 0.0
Eu313 Eu 0.06138 0.03545 0.74708 0.0
C314 C 0.03906 0.10432 0.73978 0.0
C315 C 0.97901 0.08556 0.43146 0.0
C316 C 0.97893 0.11747 0.42052 0.0
C317 C 1.01573 0.08161 0.32597 0.0
C318 C 0.9993 0.13141 0.3685 0.0
C319 C 0.9956 0.06759 0.3788 0.0
C320 C 0.0194 0.11353 0.32578 0.0
C321 C 0.97017 0.07305 0.50959 0.0
O322 O 0.0182 0.03645 0.82069 0.0
O323 O 0.98033 0.03417 0.72289 0.0
C324 C 0.98907 0.03326 0.79863 0.0
O325 O 0.01951 1.0054 0.58849 0.0
O326 O 0.08874 0.04692 0.85408 0.0
O327 O 0.09805 1.00581 0.78901 0.0
O328 O 0.03937 0.98975 0.70878 0.0
C329 C 0.02835 0.98336 0.63675 0.0
O330 O 0.05215 0.06612 0.55894 0.0
O331 O 0.08565 0.03628 0.62969 0.0
O332 O 0.06354 0.0874 0.73897 0.0
O333 O 0.97513 0.0441 0.52281 0.0
O334 O 0.97935 0.08987 0.56998 0.0
O335 O 1.01296 0.09333 0.71035 0.0
C336 C 0.09649 1.00152 0.92725 0.0
C337 C 0.07163 1.00806 0.9755 0.0
C338 C 0.09535 0.94911 0.97492 0.0
C339 C 0.05717 0.98462 1.01725 0.0
C340 C 0.10986 0.9726 0.93278 0.0
C341 C 0.0675 0.95466 1.01126 0.0
C342 C 0.10187 0.02042 0.85628 0.0
C343 C 0.07858 0.05224 0.56571 0.0
H344 H 0.96606 0.13185 0.45941 0.0
H345 H 0.03057 0.06762 0.29145 0.0
H346 H 1.00161 0.15617 0.368 0.0
H347 H 0.99565 0.04288 0.38429 0.0
H348 H 0.06104 0.03026 0.97367 0.0
H349 H 0.10371 0.92601 0.9709 0.0
H350 H 0.0361 0.98927 0.04698 0.0
H351 H 0.12914 0.96716 0.89657 0.0
Eu352 Eu 0.5385 0.0605 0.70853 0.0
Eu353 Eu 0.5197 1.0 0.60316 0.0
C354 C 0.53669 0.99226 0.78939 0.0
C355 C 0.56175 0.09859 0.89244 0.0
C356 C 0.59135 0.10591 0.92204 0.0
C357 C 0.55849 0.05655 0.98686 0.0
C358 C 0.60547 0.08661 0.97761 0.0
C359 C 0.54433 0.07591 0.93159 0.0
C360 C 0.58985 0.06026 1.00408 0.0
C361 C 0.55519 0.10384 0.80718 0.0
O362 O 0.47414 1.01335 0.65684 0.0
O363 O 0.49176 0.04699 0.75351 0.0
C364 C 0.46976 0.02971 0.72154 0.0
O365 O 0.51854 0.08105 0.59444 0.0
O366 O 0.52789 0.95226 0.57415 0.0
O367 O 0.49397 0.97763 0.506 0.0
O368 O 0.52286 0.03902 0.51361 0.0
C369 C 0.5187 0.06853 0.52319 0.0
O370 O 0.57894 0.05406 0.62834 0.0
O371 O 0.5717 1.00323 0.59928 0.0
O372 O 0.52001 0.98203 0.72892 0.0
O373 O 0.5742 0.09004 0.76156 0.0
O374 O 0.52685 0.09979 0.78212 0.0
O375 O 0.55047 0.01937 0.78725 0.0
C376 C 0.48218 0.92628 0.53315 0.0
C377 C 0.46279 0.91824 0.46868 0.0
C378 C 0.4482 0.89907 0.62248 0.0
C379 C 0.43514 0.90291 0.48181 0.0
C380 C 0.47568 0.91508 0.60958 0.0
C381 C 0.42657 0.89522 0.55975 0.0
C382 C 0.50521 0.95076 0.52204 0.0
C383 C 0.58904 0.02824 0.59998 0.0
H384 H 0.60516 0.12333 0.89308 0.0
H385 H 0.54612 0.03646 1.00772 0.0
H386 H 0.62972 0.08984 0.99108 0.0
H387 H 0.52128 0.07001 0.91087 0.0
H388 H 0.46753 0.92649 0.40928 0.0
H389 H 0.44288 0.89213 0.68246 0.0
H390 H 0.41907 0.90023 0.43191 0.0
H391 H 0.49058 0.92069 0.66032 0.0
Eu392 Eu 0.50045 0.55038 0.75706 0.0
Eu393 Eu 0.56571 0.53981 0.66982 0.0
C394 C 0.56576 0.55993 0.85247 0.0
C395 C 0.43395 0.57924 0.88106 0.0
C396 C 0.44919 0.60647 0.90397 0.0
C397 C 0.39074 0.59268 0.96103 0.0
C398 C 0.43525 0.62674 0.95486 0.0
C399 C 0.40473 0.57235 0.90982 0.0
C400 C 0.40597 0.62002 0.98343 0.0
C401 C 0.4482 0.55801 0.82677 0.0
O402 O 0.55518 0.49441 0.73247 0.0
O403 O 0.50365 0.49873 0.75144 0.0
C404 C 0.52862 0.48246 0.7532 0.0
O405 O 0.48708 0.54126 0.62795 0.0
O406 O 0.61375 0.5271 0.67955 0.0
O407 O 0.59515 0.54338 0.56741 0.0
O408 O 0.53068 0.51985 0.58091 0.0
C409 C 0.50173 0.52719 0.57191 0.0
O410 O 0.51719 0.5986 0.72435 0.0
O411 O 0.55079 0.58636 0.62701 0.0
O412 O 0.57819 0.56523 0.78346 0.0
O413 O 0.45446 0.56876 0.75657 0.0
O414 O 0.47039 0.54185 0.85681 0.0
O415 O 0.53707 0.55049 0.85645 0.0
C416 C 0.62539 0.50008 0.56314 0.0
C417 C 0.62542 0.49946 0.47942 0.0
C418 C 0.61342 0.44572 0.565 0.0
C419 C 0.61632 0.47273 0.43907 0.0
C420 C 0.62256 0.47229 0.60521 0.0
C421 C 0.60767 0.44673 0.48276 0.0
C422 C 0.61737 0.5287 0.60282 0.0
C423 C 0.53371 0.60627 0.66243 0.0
H424 H 0.47179 0.61201 0.88236 0.0
H425 H 0.36824 0.58716 0.98314 0.0
H426 H 0.4473 0.64775 0.97214 0.0
H427 H 0.39276 0.5513 0.89259 0.0
H428 H 0.62801 0.5205 0.44571 0.0
H429 H 0.60722 0.42552 0.59906 0.0
H430 H 0.61225 0.47355 0.37519 0.0
H431 H 0.62312 0.47177 0.66972 0.0
Eu432 Eu 0.04065 0.56304 0.67992 0.0
Eu433 Eu 0.02427 0.50179 0.7852 0.0
C434 C 0.09529 0.52502 0.77641 0.0
C435 C 0.09283 0.61583 0.57986 0.0
C436 C 0.11771 0.61913 0.63475 0.0
C437 C 0.1274 0.59751 0.48139 0.0
C438 C 0.14662 0.60924 0.61487 0.0
C439 C 0.09857 0.60756 0.501 0.0
C440 C 0.15079 0.59629 0.53997 0.0
C441 C 0.06151 0.61182 0.60933 0.0
O442 O 0.02994 0.54019 0.87609 0.0
O443 O 0.02079 0.58079 0.79378 0.0
C444 C 0.02413 0.56934 0.8657 0.0
O445 O 0.99048 0.55797 0.64993 0.0
O446 O 1.00182 0.48208 0.88772 0.0
O447 O 0.02438 0.45231 0.80611 0.0
O448 O 0.97898 0.51429 0.72173 0.0
C449 C 0.97112 0.53634 0.67155 0.0
O450 O 0.04409 0.52475 0.58857 0.0
O451 O 0.0363 0.48179 0.66616 0.0
O452 O 0.07529 0.50662 0.8103 0.0
O453 O 0.04454 0.59098 0.57262 0.0
O454 O 0.0595 0.60959 0.68646 0.0
O455 O 0.08694 0.54564 0.72324 0.0
C456 C 0.97757 0.43551 0.85988 0.0
C457 C 0.95907 0.43663 0.7901 0.0
C458 C 0.93396 0.41791 0.93394 0.0
C459 C 0.92766 0.43029 0.79365 0.0
C460 C 0.96532 0.42398 0.93023 0.0
C461 C 0.91478 0.42342 0.86733 0.0
C462 C 1.00592 0.45392 0.8655 0.0
C463 C 0.04193 0.49474 0.59723 0.0
H464 H 0.11424 0.62611 0.69563 0.0
H465 H 0.13067 0.58814 0.42261 0.0
H466 H 0.16481 0.60895 0.66 0.0
H467 H 0.08003 0.6054 0.45705 0.0
H468 H 0.96816 0.44571 0.73528 0.0
H469 H 0.92427 0.41256 0.99115 0.0
H470 H 0.91308 0.43476 0.74191 0.0
H471 H 0.97926 0.42309 0.98452 0.0
C472 C 0.1134 0.04851 0.35696 0.0
C473 C 0.14519 0.05275 0.37512 0.0
C474 C 0.13217 0.06275 0.51501 0.0
C475 C 0.1011 0.05398 0.49894 0.0
N476 N 0.06395 0.03214 0.40504 0.0
N477 N 0.18493 0.05755 0.47778 0.0
C478 C 0.09217 0.04521 0.41989 0.0
C479 C 0.15462 0.05833 0.45588 0.0
N480 N 0.10327 0.04833 0.27932 0.0
N481 N 0.14029 0.07606 0.58622 0.0
H482 H 0.20211 0.05282 0.43811 0.0
H483 H 0.19269 0.05831 0.53698 0.0
H484 H 0.1245 0.08043 0.63001 0.0
H485 H 0.16196 0.08568 0.59817 0.0
H486 H 0.08014 0.04789 0.26254 0.0
H487 H 0.11789 0.05182 0.23195 0.0
H488 H 0.05774 0.02193 0.35078 0.0
H489 H 0.04783 0.02879 0.44891 0.0
C490 C 0.48141 0.10936 0.344 0.0
C491 C 0.50713 0.12372 0.30785 0.0
C492 C 0.54044 0.09598 0.40338 0.0
C493 C 0.51474 0.08805 0.44996 0.0
N494 N 0.45993 0.08722 0.46305 0.0
N495 N 0.55714 0.10786 0.27075 0.0
C496 C 0.48498 0.09483 0.41988 0.0
C497 C 0.53597 0.11086 0.3282 0.0
N498 N 0.45521 0.10422 0.29967 0.0
N499 N 0.56929 0.0897 0.43099 0.0
H500 H 0.5519 0.11277 0.2111 0.0
H501 H 0.57754 0.09624 0.27969 0.0
H502 H 0.57355 0.07865 0.48507 0.0
H503 H 0.58892 0.09772 0.40307 0.0
H504 H 0.43661 0.09142 0.32013 0.0
H505 H 0.45429 0.10858 0.23849 0.0
H506 H 0.43798 0.09432 0.44691 0.0
H507 H 0.46145 0.07585 0.51769 0.0
C508 C 0.43735 0.498 0.43183 0.0
C509 C 0.44538 0.51153 0.35784 0.0
C510 C 0.4916 0.53462 0.42334 0.0
C511 C 0.48434 0.51959 0.49592 0.0
N512 N 0.45439 0.48117 0.56325 0.0
N513 N 0.483 0.53809 0.27985 0.0
C514 C 0.45845 0.49949 0.49816 0.0
C515 C 0.47343 0.52843 0.35265 0.0
N516 N 0.40886 0.48507 0.44033 0.0
N517 N 0.51495 0.55593 0.42264 0.0
H518 H 0.47025 0.53403 0.22734 0.0
H519 H 0.5046 0.54774 0.27056 0.0
H520 H 0.52887 0.56092 0.47256 0.0
H521 H 0.51915 0.57028 0.37439 0.0
H522 H 0.40053 0.47794 0.49499 0.0
H523 H 0.39233 0.48406 0.39438 0.0
H524 H 0.43783 0.4637 0.56522 0.0
H525 H 0.46963 0.48133 0.61218 0.0
C526 C 0.07611 0.44729 0.42915 0.0
C527 C 0.04971 0.43102 0.39859 0.0
C528 C 0.01832 0.45688 0.49739 0.0
C529 C 0.04443 0.47415 0.52574 0.0
N530 N 0.09737 0.48904 0.51085 0.0
N531 N 0.99485 0.42518 0.39259 0.0
C532 C 0.07301 0.47051 0.48864 0.0
C533 C 0.02059 0.43729 0.42965 0.0
N534 N 0.10441 0.43941 0.40441 0.0
N535 N 0.9913 0.45872 0.53608 0.0
H536 H 0.99563 0.41103 0.34275 0.0
H537 H 0.97273 0.43133 0.40628 0.0
H538 H 0.98801 0.47378 0.58296 0.0
H539 H 0.97263 0.44398 0.52516 0.0
H540 H 0.12483 0.44767 0.43047 0.0
H541 H 0.10766 0.42275 0.36126 0.0
H542 H 0.11781 0.49013 0.4805 0.0
H543 H 0.09649 0.50498 0.5568 0.0
C544 C 0.91515 0.04182 0.91716 0.0
C545 C 0.92078 0.02244 0.98413 0.0
C546 C 0.96911 1.00734 0.92372 0.0
C547 C 0.9653 0.02938 0.86201 0.0
N548 N 0.9372 0.07285 0.81254 0.0
N549 N 0.95728 0.99222 0.05857 0.0
C550 C 0.93901 0.04813 0.8623 0.0
C551 C 0.94904 1.00686 0.98954 0.0
N552 N 0.8866 0.05314 0.90322 0.0
N553 N 0.99082 0.98557 0.9178 0.0
H554 H 0.94389 0.99234 0.10901 0.0
H555 H 0.97878 0.98282 0.06841 0.0
H556 H 1.00537 0.98427 0.86983 0.0
H557 H 0.9919 0.96687 0.95621 0.0
H558 H 0.88047 0.06469 0.85101 0.0
H559 H 0.86818 0.0483 0.93961 0.0
H560 H 0.92006 0.08899 0.81596 0.0
H561 H 0.95448 0.07911 0.77382 0.0
C562 C 0.51656 0.95094 0.98298 0.0
C563 C 0.53917 0.92794 0.98784 0.0
C564 C 0.56116 0.94807 0.86365 0.0
C565 C 0.53974 0.97209 0.86168 0.0
N566 N 0.50045 0.99955 0.92707 0.0
N567 N 0.58654 0.9084 0.94116 0.0
C568 C 0.51867 0.97458 0.92414 0.0
C569 C 0.56257 0.92773 0.93059 0.0
N570 N 0.49185 0.94914 0.03109 0.0
N571 N 0.57957 0.94409 0.80022 0.0
H572 H 0.58861 0.89384 0.99026 0.0
H573 H 0.60562 0.90864 0.90546 0.0
H574 H 0.5802 0.95927 0.75219 0.0
H575 H 0.59296 0.92491 0.79306 0.0
H576 H 0.4728 0.9629 1.02396 0.0
H577 H 0.48899 0.9321 0.07391 0.0
H578 H 0.48688 1.00449 0.97519 0.0
H579 H 0.50105 0.0169 0.8845 0.0
C580 C 0.63266 0.54165 0.99584 0.0
C581 C 0.62671 0.56041 0.0624 0.0
C582 C 0.58128 0.58048 0.99025 0.0
C583 C 0.58616 0.56008 0.92611 0.0
N584 N 0.61258 0.51628 0.87706 0.0
N585 N 0.59356 0.59506 0.12773 0.0
C586 C 0.61085 0.53939 0.93141 0.0
C587 C 0.60044 0.57909 0.06096 0.0
N588 N 0.65955 0.52623 0.99336 0.0
N589 N 0.55902 0.60186 0.98244 0.0
H590 H 0.60751 0.59508 0.17915 0.0
H591 H 0.57318 0.60659 0.13422 0.0
H592 H 0.54464 0.60332 0.932 0.0
H593 H 0.55613 0.61946 1.02304 0.0
H594 H 0.66694 0.51536 0.94244 0.0
H595 H 0.67582 0.52632 0.03996 0.0
H596 H 0.62785 0.49837 0.88273 0.0
H597 H 0.59668 0.51311 0.83046 0.0
C598 C 0.04146 0.61163 0.06458 0.0
C599 C 1.01737 0.63299 0.06527 0.0
C600 C 0.99533 0.60906 0.94275 0.0
C601 C 0.02129 0.59018 0.93675 0.0
N602 N 0.07189 0.57759 0.98646 0.0
N603 N 0.97443 0.65561 0.99537 0.0
C604 C 0.04507 0.59245 0.99647 0.0
C605 C 0.99511 0.63263 1.00171 0.0
N606 N 0.06055 0.60909 0.12993 0.0
N607 N 0.97021 0.60376 0.89406 0.0
H608 H 0.97375 0.67362 0.03589 0.0
H609 H 0.95991 0.65844 0.94578 0.0
H610 H 0.969 0.5862 0.85203 0.0
H611 H 0.94945 0.6146 0.90107 0.0
H612 H 0.07645 0.59178 0.13679 0.0
H613 H 0.05858 0.62261 0.18059 0.0
H614 H 0.09126 0.58112 1.02309 0.0
H615 H 0.0759 0.56388 0.93732 0.0
C616 C 0.06873 0.16809 0.21091 0.0
C617 C 0.09487 0.17066 0.2633 0.0
C618 C 0.07411 0.13042 0.34769 0.0
C619 C 0.04774 0.12821 0.29628 0.0
N620 N 0.02411 0.13775 0.16813 0.0
N621 N 0.12682 0.14824 0.3651 0.0
C622 C 0.04666 0.14444 0.22366 0.0
C623 C 0.09915 0.14941 0.32564 0.0
N624 N 0.06356 0.18973 0.15351 0.0
N625 N 0.07421 0.11652 0.42055 0.0
H626 H 0.14529 0.16238 0.34958 0.0
H627 H 0.13218 0.13137 0.4069 0.0
H628 H 0.05618 0.10262 0.43946 0.0
H629 H 0.09118 0.12056 0.46428 0.0
H630 H 0.0429 0.19128 0.12144 0.0
H631 H 0.0791 0.20735 0.14094 0.0
H632 H 0.02372 0.14698 0.11085 0.0
H633 H 1.0075 0.12064 0.17719 0.0
C634 C 0.35016 0.88528 0.48067 0.0
C635 C 0.34514 0.91727 0.4864 0.0
C636 C 0.38 0.91905 0.60185 0.0
C637 C 0.39328 0.89204 0.57477 0.0
N638 N 0.38628 0.84442 0.50682 0.0
N639 N 0.35662 0.96532 0.55564 0.0
C640 C 0.37584 0.87289 0.52249 0.0
C641 C 0.35963 0.93435 0.54954 0.0
N642 N 0.33115 0.86744 0.43362 0.0
N643 N 0.38849 0.93096 0.67419 0.0
H644 H 0.34371 0.97836 0.5158 0.0
H645 H 0.36944 0.97854 0.5966 0.0
H646 H 0.40268 0.91915 0.71391 0.0
H647 H 0.37838 0.95022 0.69787 0.0
H648 H 0.33271 0.84373 0.43006 0.0
H649 H 0.31216 0.87637 0.40329 0.0
H650 H 0.3769 0.83005 0.46275 0.0
H651 H 0.40531 0.83591 0.53803 0.0
C652 C 0.53283 0.40488 0.43889 0.0
C653 C 0.54299 0.37865 0.39932 0.0
C654 C 0.59631 0.39681 0.41434 0.0
C655 C 0.58578 0.42416 0.44775 0.0
N656 N 0.54384 0.4574 0.47612 0.0
N657 N 0.58225 0.35204 0.33423 0.0
C658 C 0.55395 0.42923 0.45497 0.0
C659 C 0.5744 0.37528 0.38315 0.0
N660 N 0.50338 0.40599 0.46392 0.0
N661 N 0.62696 0.39131 0.41384 0.0
H662 H 0.60419 0.34889 0.31324 0.0
H663 H 0.60419 0.34889 0.31324 0.0
H664 H 0.64352 0.40736 0.4334 0.0
H665 H 0.63587 0.37016 0.39945 0.0
H666 H 0.49553 0.42333 0.50013 0.0
H667 H 0.48763 0.38793 0.45516 0.0
H668 H 0.52082 0.46313 0.47366 0.0
H669 H 0.5585 0.47584 0.49025 0.0
C670 C 0.21845 0.56772 0.43301 0.0
C671 C 0.22061 0.53756 0.46466 0.0
C672 C 0.1792 0.54732 0.5549 0.0
C673 C 0.17778 0.57775 0.52477 0.0
N674 N 0.20075 0.61931 0.45197 0.0
N675 N 0.20844 0.50085 0.56665 0.0
C676 C 0.19916 0.58876 0.46962 0.0
C677 C 0.20279 0.52812 0.52957 0.0
N678 N 0.23319 0.57568 0.36492 0.0
N679 N 0.15701 0.53616 0.60362 0.0
H680 H 0.2255 0.48623 0.54859 0.0
H681 H 0.19815 0.49405 0.61918 0.0
H682 H 0.13927 0.54936 0.62394 0.0
H683 H 0.15485 0.51314 0.61927 0.0
H684 H 0.22952 0.59617 0.33461 0.0
H685 H 0.24703 0.56087 0.33424 0.0
H686 H 0.21788 0.62918 0.41777 0.0
H687 H 0.18668 0.63522 0.47821 0.0
C688 C 1.00475 0.89455 0.97756 0.0
C689 C 1.00266 0.88205 0.05475 0.0
C690 C 0.04165 0.91875 0.10563 0.0
C691 C 0.04591 0.92908 0.02683 0.0
N692 N 0.03432 0.92466 0.88541 0.0
N693 N 0.02264 0.87819 0.19032 0.0
C694 C 0.02837 0.91625 0.962 0.0
C695 C 0.02191 0.89314 0.11862 0.0
N696 N 0.98352 0.88631 0.91983 0.0
N697 N 0.05639 0.93343 0.16794 0.0
H698 H 1.00886 0.85911 0.20282 0.0
H699 H 0.03878 0.88308 0.23551 0.0
H700 H 0.07218 0.95137 0.16022 0.0
H701 H 0.05139 0.92925 0.2273 0.0
H702 H 0.98169 0.89726 0.86491 0.0
H703 H 0.96584 0.87042 0.92964 0.0
H704 H 0.02556 0.91265 0.83612 0.0
H705 H 0.04952 0.94235 0.87062 0.0
C706 C 0.64286 1.00984 0.12425 0.0
C707 C 0.65144 0.98872 0.06473 0.0
C708 C 0.617 1.01262 0.96798 0.0
C709 C 0.60789 0.03331 0.02781 0.0
N710 N 0.60583 0.04672 0.16624 0.0
N711 N 0.64147 0.96479 0.93803 0.0
C712 C 0.61853 0.03006 0.10739 0.0
C713 C 0.63625 0.98814 0.98957 0.0
N714 N 0.65955 1.01257 0.19398 0.0
N715 N 0.60916 0.01769 0.88979 0.0
H716 H 0.65539 0.94646 0.95363 0.0
H717 H 0.63013 0.96217 0.88317 0.0
H718 H 0.59626 0.03622 0.87077 0.0
H719 H 0.61766 1.00521 0.84286 0.0
H720 H 0.65671 0.03029 0.23436 0.0
H721 H 0.67785 0.99863 0.20914 0.0
H722 H 0.61076 0.04323 0.2266 0.0
H723 H 0.58825 0.06205 0.15474 0.0
C724 C 0.40503 0.67085 0.15903 0.0
C725 C 0.39112 0.69689 0.12342 0.0
C726 C 0.37525 0.66667 1.00667 0.0
C727 C 0.39232 0.64204 0.03818 0.0
N728 N 0.41276 0.61596 0.15297 0.0
N729 N 0.35446 0.71705 0.02947 0.0
C730 C 0.4032 0.64249 0.11804 0.0
C731 C 0.37288 0.69366 0.05292 0.0
N732 N 0.42232 0.67378 0.22774 0.0
N733 N 0.36323 0.66489 0.93087 0.0
H734 H 0.35285 0.73693 0.06347 0.0
H735 H 0.33905 0.71572 0.98115 0.0
H736 H 0.36392 0.6449 0.89711 0.0
H737 H 0.35349 0.68328 0.90073 0.0
H738 H 0.43627 0.6566 0.25034 0.0
H739 H 0.42396 0.69388 0.26083 0.0
H740 H 0.41871 0.6141 0.21323 0.0
H741 H 0.41176 0.59507 0.12278 0.0
C742 C 0.83377 0.41303 0.93532 0.0
C743 C 0.82786 0.44361 0.95772 0.0
C744 C 0.87551 0.46165 0.89906 0.0
C745 C 0.88254 0.43078 0.88181 0.0
N746 N 0.8664 0.3783 0.86461 0.0
N747 N 0.83828 0.49792 0.94056 0.0
C748 C 0.86079 0.40684 0.89323 0.0
C749 C 0.84691 0.46821 0.9318 0.0
N750 N 0.81406 0.39002 0.95725 0.0
N751 N 0.89724 0.48445 0.89106 0.0
H752 H 0.81878 0.50437 0.96968 0.0
H753 H 0.84922 0.51633 0.91293 0.0
H754 H 0.91839 0.48128 0.8657 0.0
H755 H 0.89527 0.50634 0.91453 0.0
H756 H 0.81832 0.36683 0.95068 0.0
H757 H 0.79335 0.39435 0.98421 0.0
H758 H 0.85081 0.35999 0.86606 0.0
H759 H 0.88615 0.37364 0.83362 0.0
C760 C 0.03003 0.19083 0.78014 0.0
C761 C 0.04279 0.1936 0.85875 0.0
C762 C 0.05009 0.13768 0.86154 0.0
C763 C 0.0403 0.13524 0.78026 0.0
N764 N 0.02522 0.16073 0.6584 0.0
N765 N 0.07156 0.17026 0.96646 0.0
C766 C 0.03136 0.16219 0.73854 0.0
C767 C 0.05471 0.16716 0.89711 0.0
N768 N 1.01591 0.21535 0.74586 0.0
N769 N 0.05347 0.11179 0.9065 0.0
H770 H 0.07648 0.19147 0.99272 0.0
H771 H 0.0833 0.15227 0.99326 0.0
H772 H 0.04885 0.08989 0.88413 0.0
H773 H 0.05746 0.11222 0.96794 0.0
H774 H 1.00329 0.21406 0.69245 0.0
H775 H 1.01474 0.23652 0.77417 0.0
H776 H 0.02169 0.17997 0.62287 0.0
H777 H 0.02633 0.14046 0.62596 0.0
C778 C 0.39572 0.05631 0.81862 0.0
C779 C 0.38819 0.03048 0.86655 0.0
C780 C 0.42965 1.00183 0.80418 0.0
C781 C 0.43936 0.02873 0.76292 0.0
N782 N 0.43198 0.08195 0.73177 0.0
N783 N 0.39937 0.97923 0.90974 0.0
C784 C 0.42234 0.05603 0.77031 0.0
C785 C 0.40541 1.00332 0.86 0.0
N786 N 0.37701 0.081 0.81837 0.0
N787 N 0.4436 0.97472 0.79019 0.0
H788 H 0.38133 0.979 0.94913 0.0
H789 H 0.4133 0.9603 0.91612 0.0
H790 H 0.46163 0.97271 0.75154 0.0
H791 H 0.43587 0.95367 0.81172 0.0
H792 H 0.37901 0.09941 0.77931 0.0
H793 H 0.35783 0.08211 0.85379 0.0
H794 H 0.42342 0.1036 0.74198 0.0
H795 H 0.44963 0.08205 0.6912 0.0
C796 C 0.51277 0.415 0.89532 0.0
C797 C 0.52184 0.38944 0.84985 0.0
C798 C 0.53445 0.4246 0.73907 0.0
C799 C 0.52698 0.45027 0.7863 0.0
N800 N 0.51514 0.47004 0.91554 0.0
N801 N 0.545 0.37008 0.73241 0.0
C802 C 0.51768 0.44545 0.86602 0.0
C803 C 0.53383 0.39435 0.77285 0.0
N804 N 0.49908 0.41019 0.96666 0.0
N805 N 0.54097 0.429 0.6608 0.0
H806 H 0.54388 0.34768 0.75407 0.0
H807 H 0.55717 0.37225 0.68023 0.0
H808 H 0.5417 0.45065 0.63458 0.0
H809 H 0.54349 0.41124 0.62051 0.0
H810 H 0.48837 0.42733 0.99785 0.0
H811 H 0.49643 0.38857 0.99239 0.0
H812 H 0.51193 0.46809 0.97653 0.0
H813 H 0.5192 0.49257 0.89744 0.0
C814 C 0.17617 0.49229 0.80846 0.0
C815 C 0.19182 0.51723 0.84752 0.0
C816 C 0.14671 0.5488 0.82057 0.0
C817 C 0.12891 0.52238 0.79783 0.0
N818 N 0.12816 0.46883 0.76155 0.0
N819 N 0.19752 0.57093 0.81765 0.0
C820 C 0.14408 0.49404 0.78928 0.0
C821 C 0.17891 0.54641 0.83381 0.0
N822 N 0.19293 0.46932 0.77781 0.0
N823 N 0.13313 0.57628 0.83166 0.0
H824 H 0.22076 0.56819 0.80741 0.0
H825 H 0.18917 0.59224 0.8007 0.0
H826 H 0.10962 0.57934 0.82498 0.0
H827 H 0.14519 0.59531 0.85463 0.0
H828 H 0.18365 0.45186 0.7419 0.0
H829 H 0.21684 0.47039 0.77906 0.0
H830 H 0.13691 0.44683 0.76408 0.0
H831 H 0.10576 0.46966 0.73874 0.0
C832 C 0.03428 0.91378 0.49829 0.0
C833 C 0.02075 0.88962 0.5435 0.0
C834 C 1.0101 0.92753 0.64815 0.0
C835 C 0.02677 0.95066 0.60708 0.0
N836 N 0.06111 0.96296 0.50117 0.0
N837 N 1.00179 0.87311 0.67052 0.0
C838 C 0.04076 0.94289 0.53457 0.0
C839 C 1.01044 0.89642 0.62117 0.0
N840 N 0.03939 0.90973 0.41917 0.0
N841 N 0.99246 0.93536 0.71043 0.0
H842 H 1.00279 0.85011 0.65432 0.0
H843 H 0.9967 0.87648 0.73005 0.0
H844 H 0.99128 0.95771 0.73167 0.0
H845 H 0.97676 0.92016 0.7356 0.0
H846 H 0.04627 0.92755 0.38189 0.0
H847 H 0.03354 0.88959 0.38872 0.0
H848 H 0.07412 0.95743 0.45237 0.0
H849 H 0.06748 0.9838 0.52758 0.0
C850 C 0.6535 1.01412 0.4532 0.0
C851 C 0.67971 0.02634 0.49512 0.0
C852 C 0.64706 0.03687 0.60959 0.0
C853 C 0.62041 0.0276 0.56425 0.0
N854 N 0.59826 1.01341 0.43595 0.0
N855 N 0.7008 0.05289 0.61007 0.0
C856 C 0.62367 0.01781 0.48419 0.0
C857 C 0.67627 0.03872 0.57253 0.0
N858 N 0.65714 0.99791 0.38472 0.0
N859 N 0.64475 0.04266 0.6891 0.0
H860 H 0.72243 0.05421 0.58534 0.0
H861 H 0.69921 0.06534 0.66254 0.0
H862 H 0.62407 0.04111 0.71848 0.0
H863 H 0.6636 0.0463 0.72742 0.0
H864 H 0.63937 0.98561 0.35611 0.0
H865 H 0.67848 0.99433 0.36049 0.0
H866 H 0.59932 1.00975 0.37482 0.0
H867 H 0.57607 0.01651 0.4551 0.0
C868 C 0.55726 0.68761 0.59495 0.0
C869 C 0.53298 0.69426 0.53997 0.0
C870 C 0.50667 0.64584 0.57756 0.0
C871 C 0.5322 0.63791 0.62713 0.0
N872 N 0.58287 0.65001 0.67921 0.0
N873 N 0.4861 0.67823 0.47184 0.0
C874 C 0.55778 0.65853 0.63479 0.0
C875 C 0.50799 0.67302 0.52981 0.0
N876 N 0.57948 0.70946 0.61037 0.0
N877 N 0.48104 0.6273 0.57607 0.0
H878 H 0.48597 0.69788 0.43644 0.0
H879 H 0.4693 0.66219 0.45438 0.0
H880 H 0.47958 0.60676 0.60762 0.0
H881 H 0.46038 0.63323 0.54851 0.0
H882 H 0.59613 0.70766 0.65555 0.0
H883 H 0.58002 0.73061 0.58136 0.0
H884 H 0.60371 0.662 0.68001 0.0
H885 H 0.58335 0.62985 0.71267 0.0
C886 C 0.88322 0.53515 0.63803 0.0
C887 C 0.88073 0.53673 0.55342 0.0
C888 C 0.93702 0.53465 0.54714 0.0
C889 C 0.93973 0.5357 0.63186 0.0
N890 N 0.9154 0.54112 0.75782 0.0
N891 N 0.90554 0.54146 0.42737 0.0
C892 C 0.91278 0.53689 0.67731 0.0
C893 C 0.90775 0.53766 0.50816 0.0
N894 N 0.85728 0.53156 0.68095 0.0
N895 N 0.96228 0.52901 0.50357 0.0
H896 H 0.88474 0.54184 0.39556 0.0
H897 H 0.92427 0.54644 0.39223 0.0
H898 H 0.98405 0.52621 0.52897 0.0
H899 H 0.96134 0.52413 0.44291 0.0
H900 H 0.85746 0.52642 0.74153 0.0
H901 H 0.83535 0.53181 0.65481 0.0
H902 H 0.89694 0.54571 0.79346 0.0
H903 H 0.93645 0.54247 0.78851 0.0
loop_
_geom_bond_atom_site_label_1
_geom_bond_atom_site_label_2
_geom_bond_distance
_geom_bond_site_symmetry_2
_ccdc_geom_bond_type
C0 C1 1.386 . S
C0 C2 1.397 . S
C0 H24 0.931 . S
C1 C0 1.386 . S
C1 C5 1.397 . S
C2 C0 1.397 . S
C2 C3 1.384 . S
C2 H25 0.930 . S
C3 C2 1.384 . S
C3 C4 1.377 . S
C3 C6 1.481 . S
C4 C3 1.377 . S
C4 C5 1.389 . S
C4 H26 0.929 . S
C5 C1 1.397 . S
C5 C4 1.389 . S
C5 H27 0.931 . S
C6 C3 1.481 . S
C6 C7 1.387 . S
C6 C11 1.390 . S
C7 C6 1.387 . S
C7 C8 1.401 . S
C7 H28 0.930 . S
C8 C7 1.401 . S
C8 C9 1.376 . S
C8 C17 1.511 . S
C9 C8 1.376 . S
C9 C10 1.392 . S
C9 H30 0.931 . S
C10 C9 1.392 . S
C10 C11 1.361 . S
C10 C12 1.500 . S
C11 C6 1.390 . S
C11 C10 1.361 . S
C11 H29 0.931 . S
C12 C10 1.500 . S
C12 C13 1.371 . S
C12 C14 1.365 . S
C13 C12 1.371 . S
C13 C23 1.386 . S
C13 H31 0.931 . S
C14 C12 1.365 . S
C14 C15 1.409 . S
C14 H32 0.929 . S
C15 C14 1.409 . S
C15 C16 1.380 . S
C15 H33 0.930 . S
C16 C15 1.380 . S
C16 C23 1.357 . S
C17 C8 1.511 . S
C17 C18 1.341 . S
C17 C19 1.371 . S
C18 C17 1.341 . S
C18 C22 1.394 . S
C18 H34 0.930 . S
C19 C17 1.371 . S
C19 C20 1.392 . S
C19 H35 0.931 . S
C20 C19 1.392 . S
C20 C21 1.331 . S
C20 H38 0.932 . S
C21 C20 1.331 . S
C21 C22 1.336 . S
C22 C18 1.394 . S
C22 C21 1.336 . S
C22 H37 0.929 . S
C23 C13 1.386 . S
C23 C16 1.357 . S
C23 H36 0.928 . S
H24 C0 0.931 . S
H25 C2 0.930 . S
H26 C4 0.929 . S
H27 C5 0.931 . S
H28 C7 0.930 . S
H29 C11 0.931 . S
H30 C9 0.931 . S
H31 C13 0.931 . S
H32 C14 0.929 . S
H33 C15 0.930 . S
H34 C18 0.930 . S
H35 C19 0.931 . S
H36 C23 0.928 . S
H37 C22 0.929 . S
H38 C20 0.932 . S
C39 C40 1.386 . S
C39 C41 1.397 . S
C39 H63 0.931 . S
C40 C39 1.386 . S
C40 C44 1.397 . S
C41 C39 1.397 . S
C41 C42 1.384 . S
C41 H64 0.930 . S
C42 C41 1.384 . S
C42 C43 1.377 . S
C42 C45 1.481 . S
C43 C42 1.377 . S
C43 C44 1.389 . S
C43 H65 0.929 . S
C44 C40 1.397 . S
C44 C43 1.389 . S
C44 H66 0.931 . S
C45 C42 1.481 . S
C45 C46 1.387 . S
C45 C50 1.390 . S
C46 C45 1.387 . S
C46 C47 1.401 . S
C46 H67 0.930 . S
C47 C46 1.401 . S
C47 C48 1.376 . S
C47 C56 1.511 . S
C48 C47 1.376 . S
C48 C49 1.392 . S
C48 H69 0.931 . S
C49 C48 1.392 . S
C49 C50 1.361 . S
C49 C51 1.500 . S
C50 C45 1.390 . S
C50 C49 1.361 . S
C50 H68 0.931 . S
C51 C49 1.500 . S
C51 C52 1.371 . S
C51 C53 1.365 . S
C52 C51 1.371 . S
C52 C62 1.386 . S
C52 H70 0.931 . S
C53 C51 1.365 . S
C53 C54 1.409 . S
C53 H71 0.929 . S
C54 C53 1.409 . S
C54 C55 1.380 . S
C54 H72 0.930 . S
C55 C54 1.380 . S
C55 C62 1.357 . S
C56 C47 1.511 . S
C56 C57 1.341 . S
C56 C58 1.371 . S
C57 C56 1.341 . S
C57 C61 1.394 . S
C57 H73 0.930 . S
C58 C56 1.371 . S
C58 C59 1.392 . S
C58 H74 0.931 . S
C59 C58 1.392 . S
C59 C60 1.331 . S
C59 H77 0.932 . S
C60 C59 1.331 . S
C60 C61 1.336 . S
C61 C57 1.394 . S
C61 C60 1.336 . S
C61 H76 0.929 . S
C62 C52 1.386 . S
C62 C55 1.357 . S
C62 H75 0.928 . S
H63 C39 0.931 . S
H64 C41 0.930 . S
H65 C43 0.929 . S
H66 C44 0.931 . S
H67 C46 0.930 . S
H68 C50 0.931 . S
H69 C48 0.931 . S
H70 C52 0.931 . S
H71 C53 0.929 . S
H72 C54 0.930 . S
H73 C57 0.930 . S
H74 C58 0.931 . S
H75 C62 0.928 . S
H76 C61 0.929 . S
H77 C59 0.932 . S
C78 C79 1.386 . S
C78 C80 1.397 . S
C78 H102 0.931 . S
C79 C78 1.386 . S
C79 C83 1.397 . S
C80 C78 1.397 . S
C80 C81 1.384 . S
C80 H103 0.930 . S
C81 C80 1.384 . S
C81 C82 1.377 . S
C81 C84 1.481 . S
C82 C81 1.377 . S
C82 C83 1.389 . S
C82 H104 0.931 . S
C83 C79 1.397 . S
C83 C82 1.389 . S
C83 H105 0.914 1_565 S
C84 C81 1.481 . S
C84 C85 1.387 . S
C84 C89 1.390 . S
C85 C84 1.387 . S
C85 C86 1.401 . S
C85 H106 0.930 . S
C86 C85 1.401 . S
C86 C87 1.376 . S
C86 C95 1.511 . S
C87 C86 1.376 . S
C87 C88 1.392 . S
C87 H108 0.931 . S
C88 C87 1.392 . S
C88 C89 1.361 . S
C88 C90 1.500 . S
C89 C84 1.390 . S
C89 C88 1.361 . S
C89 H107 0.931 . S
C90 C88 1.500 . S
C90 C91 1.371 . S
C90 C92 1.365 . S
C91 C90 1.371 . S
C91 C101 1.386 . S
C91 H109 0.931 . S
C92 C90 1.365 . S
C92 C93 1.409 . S
C92 H110 0.929 . S
C93 C92 1.409 . S
C93 C94 1.380 . S
C93 H111 0.930 . S
C94 C93 1.380 . S
C94 C101 1.357 . S
C95 C86 1.511 . S
C95 C96 1.341 . S
C95 C97 1.371 . S
C96 C95 1.341 . S
C96 C100 1.394 . S
C96 H112 0.930 . S
C97 C95 1.371 . S
C97 C98 1.392 . S
C97 H113 0.931 . S
C98 C97 1.392 . S
C98 C99 1.331 . S
C98 H116 0.932 . S
C99 C98 1.331 . S
C99 C100 1.336 . S
C100 C96 1.394 . S
C100 C99 1.336 . S
C100 H115 0.929 . S
C101 C91 1.386 . S
C101 C94 1.357 . S
C101 H114 0.928 . S
H102 C78 0.931 . S
H103 C80 0.930 . S
H104 C82 0.931 . S
H105 C83 0.914 1_545 S
H106 C85 0.930 . S
H107 C89 0.931 . S
H108 C87 0.931 . S
H109 C91 0.931 . S
H110 C92 0.929 . S
H111 C93 0.930 . S
H112 C96 0.930 . S
H113 C97 0.931 . S
H114 C101 0.928 . S
H115 C100 0.929 . S
H116 C98 0.932 . S
C117 C118 1.386 . S
C117 C119 1.397 . S
C117 H141 0.931 . S
C118 C117 1.386 . S
C118 C122 1.397 . S
C119 C117 1.397 . S
C119 C120 1.384 . S
C119 H142 0.930 . S
C120 C119 1.384 . S
C120 C121 1.377 . S
C120 C123 1.481 . S
C121 C120 1.377 . S
C121 C122 1.389 . S
C121 H143 0.929 . S
C122 C118 1.397 . S
C122 C121 1.389 . S
C122 H144 0.931 . S
C123 C120 1.481 . S
C123 C124 1.387 . S
C123 C128 1.390 . S
C124 C123 1.387 . S
C124 C125 1.401 . S
C124 H145 0.930 . S
C125 C124 1.401 . S
C125 C126 1.376 . S
C125 C134 1.511 . S
C126 C125 1.376 . S
C126 C127 1.392 . S
C126 H147 0.931 . S
C127 C126 1.392 . S
C127 C128 1.361 . S
C127 C129 1.500 . S
C128 C123 1.390 . S
C128 C127 1.361 . S
C128 H146 0.931 . S
C129 C127 1.500 . S
C129 C130 1.371 . S
C129 C131 1.365 . S
C130 C129 1.371 . S
C130 C140 1.386 . S
C130 H148 0.931 . S
C131 C129 1.365 . S
C131 C132 1.409 . S
C131 H149 0.929 . S
C132 C131 1.409 . S
C132 C133 1.380 . S
C132 H150 0.930 . S
C133 C132 1.380 . S
C133 C140 1.357 . S
C134 C125 1.511 . S
C134 C135 1.341 . S
C134 C136 1.371 . S
C135 C134 1.341 . S
C135 C139 1.394 . S
C135 H151 0.930 . S
C136 C134 1.371 . S
C136 C137 1.392 . S
C136 H152 0.931 . S
C137 C136 1.392 . S
C137 C138 1.331 . S
C137 H155 0.932 . S
C138 C137 1.331 . S
C138 C139 1.336 . S
C139 C135 1.394 . S
C139 C138 1.336 . S
C139 H154 0.929 . S
C140 C130 1.386 . S
C140 C133 1.357 . S
C140 H153 0.928 1_554 S
H141 C117 0.931 . S
H142 C119 0.930 . S
H143 C121 0.929 . S
H144 C122 0.931 . S
H145 C124 0.930 . S
H146 C128 0.931 . S
H147 C126 0.931 . S
H148 C130 0.931 . S
H149 C131 0.929 . S
H150 C132 0.930 . S
H151 C135 0.930 . S
H152 C136 0.931 . S
H153 C140 0.928 1_556 S
H154 C139 0.929 . S
H155 C137 0.932 . S
C156 C157 1.386 . S
C156 C158 1.397 . S
C156 H180 0.931 . S
C157 C156 1.386 . S
C157 C161 1.397 . S
C158 C156 1.397 . S
C158 C159 1.384 . S
C158 H181 0.930 . S
C159 C158 1.384 . S
C159 C160 1.377 . S
C159 C162 1.481 . S
C160 C159 1.377 . S
C160 C161 1.389 . S
C160 H182 0.929 . S
C161 C157 1.397 . S
C161 C160 1.389 . S
C161 H183 0.931 . S
C162 C159 1.481 . S
C162 C163 1.387 . S
C162 C167 1.390 . S
C163 C162 1.387 . S
C163 C164 1.401 . S
C163 H184 0.930 . S
C164 C163 1.401 . S
C164 C165 1.376 . S
C164 C173 1.511 . S
C165 C164 1.376 . S
C165 C166 1.390 1_554 S
C165 H186 0.931 1_554 S
C166 C165 1.390 1_556 S
C166 C167 1.352 1_556 S
C166 C168 1.511 . S
C167 C162 1.390 . S
C167 C166 1.352 1_554 S
C167 H185 0.931 . S
C168 C166 1.511 . S
C168 C169 1.371 . S
C168 C170 1.365 . S
C169 C168 1.371 . S
C169 C179 1.386 . S
C169 H187 0.931 . S
C170 C168 1.365 . S
C170 C171 1.409 . S
C170 H188 0.929 . S
C171 C170 1.409 . S
C171 C172 1.380 . S
C171 H189 0.930 . S
C172 C171 1.380 . S
C172 C179 1.357 . S
C173 C164 1.511 . S
C173 C174 1.341 . S
C173 C175 1.371 . S
C174 C173 1.341 . S
C174 C178 1.394 . S
C174 H190 0.930 . S
C175 C173 1.371 . S
C175 C176 1.392 . S
C175 H191 0.931 . S
C176 C175 1.392 . S
C176 C177 1.331 . S
C176 H194 0.932 . S
C177 C176 1.331 . S
C177 C178 1.336 . S
C178 C174 1.394 . S
C178 C177 1.336 . S
C178 H193 0.929 . S
C179 C169 1.386 . S
C179 C172 1.357 . S
C179 H192 0.928 . S
H180 C156 0.931 . S
H181 C158 0.930 . S
H182 C160 0.929 . S
H183 C161 0.931 . S
H184 C163 0.930 . S
H185 C167 0.931 . S
H186 C165 0.931 1_556 S
H187 C169 0.931 . S
H188 C170 0.929 . S
H189 C171 0.930 . S
H190 C174 0.930 . S
H191 C175 0.931 . S
H192 C179 0.928 . S
H193 C178 0.929 . S
H194 C176 0.932 . S
C195 C196 1.386 . S
C195 C197 1.397 . S
C195 H219 0.931 . S
C196 C195 1.386 . S
C196 C200 1.397 . S
C197 C195 1.397 . S
C197 C198 1.384 . S
C197 H220 0.930 . S
C198 C197 1.384 . S
C198 C199 1.377 . S
C198 C201 1.481 . S
C199 C198 1.377 . S
C199 C200 1.389 . S
C199 H221 0.929 . S
C200 C196 1.397 . S
C200 C199 1.389 . S
C200 H222 0.931 . S
C201 C198 1.481 . S
C201 C202 1.387 . S
C201 C206 1.390 . S
C202 C201 1.387 . S
C202 C203 1.401 . S
C202 H223 0.930 . S
C203 C202 1.401 . S
C203 C204 1.376 1_554 S
C203 C212 1.511 . S
C204 C203 1.376 1_556 S
C204 C205 1.392 . S
C204 H225 0.931 . S
C205 C204 1.392 . S
C205 C206 1.361 1_556 S
C205 C207 1.500 . S
C206 C201 1.390 . S
C206 C205 1.361 1_554 S
C206 H224 0.931 . S
C207 C205 1.500 . S
C207 C208 1.371 . S
C207 C209 1.365 . S
C208 C207 1.371 . S
C208 C218 1.386 . S
C208 H226 0.931 . S
C209 C207 1.365 . S
C209 C210 1.409 . S
C209 H227 0.929 . S
C210 C209 1.409 . S
C210 C211 1.380 . S
C210 H228 0.930 . S
C211 C210 1.380 . S
C211 C218 1.357 . S
C212 C203 1.511 . S
C212 C213 1.341 . S
C212 C214 1.371 . S
C213 C212 1.341 . S
C213 C217 1.394 . S
C213 H229 0.930 . S
C214 C212 1.371 . S
C214 C215 1.392 . S
C214 H230 0.931 1_554 S
C215 C214 1.392 . S
C215 C216 1.331 . S
C215 H233 0.932 . S
C216 C215 1.331 . S
C216 C217 1.336 . S
C217 C213 1.394 . S
C217 C216 1.336 . S
C217 H232 0.929 . S
C218 C208 1.386 . S
C218 C211 1.357 . S
C218 H231 0.928 . S
H219 C195 0.931 . S
H220 C197 0.930 . S
H221 C199 0.929 . S
H222 C200 0.931 . S
H223 C202 0.930 . S
H224 C206 0.931 . S
H225 C204 0.931 . S
H226 C208 0.931 . S
H227 C209 0.929 . S
H228 C210 0.930 . S
H229 C213 0.930 . S
H230 C214 0.931 1_556 S
H231 C218 0.928 . S
H232 C217 0.929 . S
H233 C215 0.932 . S
C234 C235 1.386 . S
C234 C236 1.397 . S
C234 H258 0.931 . S
C235 C234 1.386 . S
C235 C239 1.397 . S
C236 C234 1.397 . S
C236 C237 1.384 . S
C236 H259 0.930 . S
C237 C236 1.384 . S
C237 C238 1.377 . S
C237 C240 1.481 . S
C238 C237 1.377 . S
C238 C239 1.389 . S
C238 H260 0.929 . S
C239 C235 1.397 . S
C239 C238 1.389 . S
C239 H261 0.931 . S
C240 C237 1.481 . S
C240 C241 1.387 . S
C240 C245 1.390 1_554 S
C241 C240 1.387 . S
C241 C242 1.401 . S
C241 H262 0.930 . S
C242 C241 1.401 . S
C242 C243 1.376 1_554 S
C242 C251 1.511 . S
C243 C242 1.376 1_556 S
C243 C244 1.392 . S
C243 H264 0.931 . S
C244 C243 1.392 . S
C244 C245 1.361 . S
C244 C246 1.500 . S
C245 C240 1.390 1_556 S
C245 C244 1.361 . S
C245 H263 0.931 . S
C246 C244 1.500 . S
C246 C247 1.371 . S
C246 C248 1.365 . S
C247 C246 1.371 . S
C247 C257 1.386 . S
C247 H265 0.931 . S
C248 C246 1.365 . S
C248 C249 1.409 . S
C248 H266 0.929 . S
C249 C248 1.409 . S
C249 C250 1.380 . S
C249 H267 0.930 . S
C250 C249 1.380 . S
C250 C257 1.357 . S
C251 C242 1.511 . S
C251 C252 1.341 . S
C251 C253 1.371 1_554 S
C252 C251 1.341 . S
C252 C256 1.394 . S
C252 H268 0.930 . S
C253 C251 1.371 1_556 S
C253 C254 1.392 1_556 S
C253 H269 0.931 . S
C254 C253 1.392 1_554 S
C254 C255 1.331 . S
C254 H272 0.932 1_554 S
C255 C254 1.331 . S
C255 C256 1.336 . S
C256 C252 1.394 . S
C256 C255 1.336 . S
C256 H271 0.929 . S
C257 C247 1.386 . S
C257 C250 1.357 . S
C257 H270 0.928 . S
H258 C234 0.931 . S
H259 C236 0.930 . S
H260 C238 0.929 . S
H261 C239 0.931 . S
H262 C241 0.930 . S
H263 C245 0.931 . S
H264 C243 0.931 . S
H265 C247 0.931 . S
H266 C248 0.929 . S
H267 C249 0.930 . S
H268 C252 0.930 . S
H269 C253 0.931 . S
H270 C257 0.928 . S
H271 C256 0.929 . S
H272 C254 0.932 1_556 S
C273 C274 1.386 . S
C273 C275 1.397 . S
C273 H297 0.931 . S
C274 C273 1.386 . S
C274 C278 1.397 . S
C275 C273 1.397 . S
C275 C276 1.384 . S
C275 H298 0.930 . S
C276 C275 1.384 . S
C276 C277 1.377 . S
C276 C279 1.481 . S
C277 C276 1.377 . S
C277 C278 1.389 . S
C277 H299 0.929 . S
C278 C274 1.397 . S
C278 C277 1.389 . S
C278 H300 0.931 . S
C279 C276 1.481 . S
C279 C280 1.387 1_556 S
C279 C284 1.390 1_556 S
C280 C279 1.387 1_554 S
C280 C281 1.401 . S
C280 H301 0.930 1_554 S
C281 C280 1.401 . S
C281 C282 1.376 . S
C281 C290 1.511 . S
C282 C281 1.376 . S
C282 C283 1.392 . S
C282 H303 0.931 . S
C283 C282 1.392 . S
C283 C284 1.361 . S
C283 C285 1.500 . S
C284 C279 1.390 1_554 S
C284 C283 1.361 . S
C284 H302 0.931 . S
C285 C283 1.500 . S
C285 C286 1.371 . S
C285 C287 1.365 . S
C286 C285 1.371 . S
C286 C296 1.386 . S
C286 H304 0.931 . S
C287 C285 1.365 . S
C287 C288 1.409 . S
C287 H305 0.929 . S
C288 C287 1.409 . S
C288 C289 1.380 . S
C288 H306 0.930 . S
C289 C288 1.380 . S
C289 C296 1.357 . S
C290 C281 1.511 . S
C290 C291 1.341 . S
C290 C292 1.371 . S
C291 C290 1.341 . S
C291 C295 1.394 . S
C291 H307 0.930 . S
C292 C290 1.371 . S
C292 C293 1.392 . S
C292 H308 0.931 . S
C293 C292 1.392 . S
C293 C294 1.331 . S
C293 H311 0.932 . S
C294 C293 1.331 . S
C294 C295 1.336 . S
C295 C291 1.394 . S
C295 C294 1.336 . S
C295 H310 0.929 . S
C296 C286 1.386 . S
C296 C289 1.357 . S
C296 H309 0.928 . S
H297 C273 0.931 . S
H298 C275 0.930 . S
H299 C277 0.929 . S
H300 C278 0.931 . S
H301 C280 0.930 1_556 S
H302 C284 0.931 . S
H303 C282 0.931 . S
H304 C286 0.931 . S
H305 C287 0.929 . S
H306 C288 0.930 . S
H307 C291 0.930 . S
H308 C292 0.931 . S
H309 C296 0.928 . S
H310 C295 0.929 . S
H311 C293 0.932 . S
Eu312 C321 2.828 . S
Eu312 O323 2.392 . S
Eu312 O325 2.418 1_545 S
Eu312 O330 2.373 1_655 S
Eu312 O333 2.488 . S
Eu312 O334 2.471 . S
Eu312 O335 2.349 1_655 S
Eu313 O322 2.373 1_455 S
Eu313 O326 2.488 . S
Eu313 O327 2.471 . S
Eu313 O328 2.349 . S
Eu313 O331 2.392 1_565 S
Eu313 O332 2.418 1_565 S
Eu313 C342 2.828 . S
C314 O332 1.244 . S
C314 O335 1.265 . S
C315 C316 1.379 1_655 S
C315 C319 1.373 . S
C315 C321 1.505 . S
C316 C315 1.379 1_455 S
C316 C318 1.369 . S
C316 H344 0.930 . S
C317 C319 1.383 . S
C317 C320 1.382 . S
C317 H345 0.930 . S
C318 C316 1.369 . S
C318 C320 1.392 1_455 S
C318 H346 0.930 . S
C319 C315 1.373 . S
C319 C317 1.383 . S
C319 H347 0.931 . S
C320 C317 1.382 . S
C320 C318 1.392 1_655 S
C321 Eu312 2.828 . S
C321 C315 1.505 . S
C321 O333 1.249 . S
C321 O334 1.244 . S
O322 Eu313 2.373 1_655 S
O322 C324 1.262 . S
O323 Eu312 2.392 . S
O323 C324 1.235 1_545 S
C324 O322 1.262 . S
C324 O323 1.235 1_565 S
O325 Eu312 2.418 1_565 S
O325 C329 1.244 . S
O326 Eu313 2.488 . S
O326 C342 1.249 . S
O327 Eu313 2.471 . S
O327 C342 1.244 . S
O328 Eu313 2.349 . S
O328 C329 1.265 1_455 S
C329 O325 1.244 . S
C329 O328 1.265 1_655 S
O330 Eu312 2.373 1_455 S
O330 C343 1.258 . S
O331 Eu313 2.392 1_545 S
O331 C343 1.242 . S
O332 Eu313 2.418 1_545 S
O332 C314 1.244 . S
O333 Eu312 2.488 . S
O333 C321 1.249 . S
O334 Eu312 2.471 . S
O334 C321 1.244 . S
O335 Eu312 2.349 1_455 S
O335 C314 1.265 . S
C336 C337 1.379 . S
C336 C340 1.373 1_556 S
C336 C342 1.505 . S
C337 C336 1.379 . S
C337 C339 1.369 . S
C337 H348 0.930 1_455 S
C338 C340 1.383 . S
C338 C341 1.382 . S
C338 H349 0.930 . S
C339 C337 1.369 . S
C339 C341 1.392 1_556 S
C339 H350 0.930 1_455 S
C340 C336 1.373 1_554 S
C340 C338 1.383 . S
C340 H351 0.931 . S
C341 C338 1.382 . S
C341 C339 1.392 1_554 S
C342 Eu313 2.828 . S
C342 O326 1.249 . S
C342 O327 1.244 . S
C342 C336 1.505 . S
C343 O330 1.258 . S
C343 O331 1.242 . S
H344 C316 0.930 . S
H345 C317 0.930 . S
H346 C318 0.930 . S
H347 C319 0.931 . S
H348 C337 0.930 1_655 S
H349 C338 0.930 . S
H350 C339 0.930 1_655 S
H351 C340 0.931 . S
Eu352 C361 2.828 . S
Eu352 O363 2.392 . S
Eu352 O365 2.418 . S
Eu352 O370 2.373 . S
Eu352 O373 2.488 . S
Eu352 O374 2.471 . S
Eu352 O375 2.349 1_545 S
Eu353 O362 2.373 1_565 S
Eu353 O366 2.488 . S
Eu353 O367 2.471 1_565 S
Eu353 O368 2.349 1_565 S
Eu353 O371 2.392 . S
Eu353 O372 2.418 . S
Eu353 C382 2.828 . S
C354 O372 1.244 . S
C354 O375 1.265 . S
C355 C356 1.379 . S
C355 C359 1.373 . S
C355 C361 1.505 . S
C356 C355 1.379 . S
C356 C358 1.369 . S
C356 H384 0.930 1_545 S
C357 C359 1.383 . S
C357 C360 1.382 . S
C357 H385 0.930 . S
C358 C356 1.369 . S
C358 C360 1.392 . S
C358 H386 0.930 1_545 S
C359 C355 1.373 . S
C359 C357 1.383 . S
C359 H387 0.931 . S
C360 C357 1.382 . S
C360 C358 1.392 . S
C361 Eu352 2.828 . S
C361 C355 1.505 . S
C361 O373 1.249 . S
C361 O374 1.244 . S
O362 Eu353 2.373 1_545 S
O362 C364 1.258 . S
O363 Eu352 2.392 . S
O363 C364 1.242 . S
C364 O362 1.258 . S
C364 O363 1.242 . S
O365 Eu352 2.418 . S
O365 C369 1.244 . S
O366 Eu353 2.488 . S
O366 C382 1.249 . S
O367 Eu353 2.471 1_545 S
O367 C382 1.244 1_545 S
O368 Eu353 2.349 1_545 S
O368 C369 1.265 . S
C369 O365 1.244 . S
C369 O368 1.265 . S
O370 Eu352 2.373 . S
O370 C383 1.258 1_545 S
O371 Eu353 2.392 . S
O371 C383 1.242 . S
O372 Eu353 2.418 . S
O372 C354 1.244 . S
O373 Eu352 2.488 . S
O373 C361 1.249 . S
O374 Eu352 2.471 . S
O374 C361 1.244 . S
O375 Eu352 2.349 1_565 S
O375 C354 1.265 . S
C376 C377 1.379 1_565 S
C376 C380 1.373 . S
C376 C382 1.505 . S
C377 C376 1.379 1_545 S
C377 C379 1.369 . S
C377 H388 0.930 . S
C378 C380 1.383 . S
C378 C381 1.382 . S
C378 H389 0.930 . S
C379 C377 1.369 . S
C379 C381 1.392 1_545 S
C379 H390 0.930 . S
C380 C376 1.373 . S
C380 C378 1.383 . S
C380 H391 0.931 . S
C381 C378 1.382 . S
C381 C379 1.392 1_565 S
C382 Eu353 2.828 . S
C382 O366 1.249 . S
C382 O367 1.244 1_565 S
C382 C376 1.505 . S
C383 O370 1.258 1_565 S
C383 O371 1.242 . S
H384 C356 0.930 1_565 S
H385 C357 0.930 . S
H386 C358 0.930 1_565 S
H387 C359 0.931 . S
H388 C377 0.930 . S
H389 C378 0.930 . S
H390 C379 0.930 . S
H391 C380 0.931 . S
Eu392 C401 2.828 . S
Eu392 O403 2.392 . S
Eu392 O405 2.418 . S
Eu392 O410 2.373 . S
Eu392 O413 2.488 . S
Eu392 O414 2.471 . S
Eu392 O415 2.349 . S
Eu393 O402 2.373 . S
Eu393 O406 2.488 . S
Eu393 O407 2.471 . S
Eu393 O408 2.349 . S
Eu393 O411 2.392 . S
Eu393 O412 2.418 . S
Eu393 C422 2.828 . S
C394 O412 1.244 . S
C394 O415 1.265 . S
C395 C396 1.379 . S
C395 C399 1.373 . S
C395 C401 1.505 . S
C396 C395 1.379 . S
C396 C398 1.369 . S
C396 H424 0.930 . S
C397 C399 1.383 . S
C397 C400 1.382 . S
C397 H425 0.930 . S
C398 C396 1.369 . S
C398 C400 1.392 . S
C398 H426 0.930 . S
C399 C395 1.373 . S
C399 C397 1.383 . S
C399 H427 0.931 . S
C400 C397 1.382 . S
C400 C398 1.392 . S
C401 Eu392 2.828 . S
C401 C395 1.505 . S
C401 O413 1.249 . S
C401 O414 1.244 . S
O402 Eu393 2.373 . S
O402 C404 1.258 . S
O403 Eu392 2.392 . S
O403 C404 1.242 . S
C404 O402 1.258 . S
C404 O403 1.242 . S
O405 Eu392 2.418 . S
O405 C409 1.244 . S
O406 Eu393 2.488 . S
O406 C422 1.249 . S
O407 Eu393 2.471 . S
O407 C422 1.244 . S
O408 Eu393 2.349 . S
O408 C409 1.265 . S
C409 O405 1.244 . S
C409 O408 1.265 . S
O410 Eu392 2.373 . S
O410 C423 1.258 . S
O411 Eu393 2.392 . S
O411 C423 1.242 . S
O412 Eu393 2.418 . S
O412 C394 1.244 . S
O413 Eu392 2.488 . S
O413 C401 1.249 . S
O414 Eu392 2.471 . S
O414 C401 1.244 . S
O415 Eu392 2.349 . S
O415 C394 1.265 . S
C416 C417 1.379 . S
C416 C420 1.373 . S
C416 C422 1.505 . S
C417 C416 1.379 . S
C417 C419 1.369 . S
C417 H428 0.930 . S
C418 C420 1.383 . S
C418 C421 1.382 . S
C418 H429 0.930 . S
C419 C417 1.369 . S
C419 C421 1.392 . S
C419 H430 0.930 . S
C420 C416 1.373 . S
C420 C418 1.383 . S
C420 H431 0.931 . S
C421 C418 1.382 . S
C421 C419 1.392 . S
C422 Eu393 2.828 . S
C422 O406 1.249 . S
C422 O407 1.244 . S
C422 C416 1.505 . S
C423 O410 1.258 . S
C423 O411 1.242 . S
H424 C396 0.930 . S
H425 C397 0.930 . S
H426 C398 0.930 . S
H427 C399 0.931 . S
H428 C417 0.930 . S
H429 C418 0.930 . S
H430 C419 0.930 . S
H431 C420 0.931 . S
Eu432 C441 2.828 . S
Eu432 O443 2.392 . S
Eu432 O445 2.418 1_455 S
Eu432 O450 2.373 . S
Eu432 O453 2.488 . S
Eu432 O454 2.471 . S
Eu432 O455 2.349 . S
Eu433 O442 2.373 . S
Eu433 O446 2.488 . S
Eu433 O447 2.471 . S
Eu433 O448 2.349 . S
Eu433 O451 2.392 1_655 S
Eu433 O452 2.418 1_655 S
Eu433 C462 2.828 . S
C434 O452 1.244 . S
C434 O455 1.265 . S
C435 C436 1.379 . S
C435 C439 1.373 . S
C435 C441 1.505 . S
C436 C435 1.379 . S
C436 C438 1.369 . S
C436 H464 0.930 . S
C437 C439 1.383 . S
C437 C440 1.382 . S
C437 H465 0.930 . S
C438 C436 1.369 . S
C438 C440 1.392 . S
C438 H466 0.930 . S
C439 C435 1.373 . S
C439 C437 1.383 . S
C439 H467 0.931 . S
C440 C437 1.382 . S
C440 C438 1.392 . S
C441 Eu432 2.828 . S
C441 C435 1.505 . S
C441 O453 1.249 . S
C441 O454 1.244 . S
O442 Eu433 2.373 . S
O442 C444 1.258 . S
O443 Eu432 2.392 . S
O443 C444 1.242 1_455 S
C444 O442 1.258 . S
C444 O443 1.242 1_655 S
O445 Eu432 2.418 1_655 S
O445 C449 1.244 . S
O446 Eu433 2.488 . S
O446 C462 1.249 . S
O447 Eu433 2.471 . S
O447 C462 1.244 . S
O448 Eu433 2.349 . S
O448 C449 1.265 . S
C449 O445 1.244 . S
C449 O448 1.265 . S
O450 Eu432 2.373 . S
O450 C463 1.258 . S
O451 Eu433 2.392 1_455 S
O451 C463 1.242 . S
O452 Eu433 2.418 1_455 S
O452 C434 1.244 . S
O453 Eu432 2.488 . S
O453 C441 1.249 . S
O454 Eu432 2.471 . S
O454 C441 1.244 . S
O455 Eu432 2.349 . S
O455 C434 1.265 . S
C456 C457 1.379 . S
C456 C460 1.373 . S
C456 C462 1.505 . S
C457 C456 1.379 . S
C457 C459 1.369 . S
C457 H468 0.930 . S
C458 C460 1.383 1_554 S
C458 C461 1.382 . S
C458 H469 0.930 . S
C459 C457 1.369 . S
C459 C461 1.392 1_556 S
C459 H470 0.930 . S
C460 C456 1.373 . S
C460 C458 1.383 1_556 S
C460 H471 0.929 1_556 S
C461 C458 1.382 . S
C461 C459 1.392 1_554 S
C462 Eu433 2.828 . S
C462 O446 1.249 . S
C462 O447 1.244 . S
C462 C456 1.505 . S
C463 O450 1.258 . S
C463 O451 1.242 . S
H464 C436 0.930 . S
H465 C437 0.930 . S
H466 C438 0.930 . S
H467 C439 0.931 . S
H468 C457 0.930 . S
H469 C458 0.930 . S
H470 C459 0.930 . S
H471 C460 0.929 1_554 S
C472 C473 1.363 . S
C472 C478 1.379 . S
C472 N480 1.356 . S
C473 C472 1.363 . S
C473 C479 1.363 . S
C474 C475 1.363 . S
C474 C479 1.379 . S
C474 N481 1.356 . S
C475 C474 1.363 . S
C475 C478 1.363 . S
N476 C478 1.356 . S
N476 H488 0.984 1_545 S
N476 H489 0.985 . S
N477 C479 1.356 . S
N477 H482 0.984 . S
N477 H483 0.985 . S
C478 C472 1.379 . S
C478 C475 1.363 . S
C478 N476 1.356 . S
C479 C473 1.363 . S
C479 C474 1.379 . S
C479 N477 1.356 . S
N480 C472 1.356 . S
N480 H486 0.997 . S
N480 H487 0.984 . S
N481 C474 1.356 . S
N481 H484 0.984 . S
N481 H485 0.985 . S
H482 N477 0.984 . S
H483 N477 0.985 . S
H484 N481 0.984 . S
H485 N481 0.985 . S
H486 N480 0.997 . S
H487 N480 0.984 . S
H488 N476 0.984 1_565 S
H489 N476 0.985 . S
C490 C491 1.363 . S
C490 C496 1.379 . S
C490 N498 1.356 . S
C491 C490 1.363 . S
C491 C497 1.363 . S
C492 C493 1.363 . S
C492 C497 1.379 . S
C492 N499 1.356 . S
C493 C492 1.363 . S
C493 C496 1.363 . S
N494 C496 1.356 . S
N494 H506 0.984 . S
N494 H507 0.985 . S
N495 C497 1.356 . S
N495 H500 0.984 . S
N495 H501 0.985 . S
C496 C490 1.379 . S
C496 C493 1.363 . S
C496 N494 1.356 . S
C497 C491 1.363 . S
C497 C492 1.379 . S
C497 N495 1.356 . S
N498 C490 1.356 . S
N498 H504 0.984 . S
N498 H505 0.984 . S
N499 C492 1.356 . S
N499 H502 0.984 . S
N499 H503 0.985 . S
H500 N495 0.984 . S
H501 N495 0.985 . S
H502 N499 0.984 . S
H503 N499 0.985 . S
H504 N498 0.984 . S
H505 N498 0.984 . S
H506 N494 0.984 . S
H507 N494 0.985 . S
C508 C509 1.363 . S
C508 C514 1.379 . S
C508 N516 1.356 . S
C509 C508 1.363 . S
C509 C515 1.363 . S
C510 C511 1.363 . S
C510 C515 1.379 . S
C510 N517 1.356 . S
C511 C510 1.363 . S
C511 C514 1.363 . S
N512 C514 1.356 . S
N512 H524 0.984 . S
N512 H525 0.985 . S
N513 C515 1.356 . S
N513 H518 0.984 . S
N513 H519 0.985 . S
C514 C508 1.379 . S
C514 C511 1.363 . S
C514 N512 1.356 . S
C515 C509 1.363 . S
C515 C510 1.379 . S
C515 N513 1.356 . S
N516 C508 1.356 . S
N516 H522 0.984 . S
N516 H523 0.984 . S
N517 C510 1.356 . S
N517 H520 0.984 . S
N517 H521 0.985 . S
H518 N513 0.984 . S
H519 N513 0.985 . S
H520 N517 0.984 . S
H521 N517 0.985 . S
H522 N516 0.984 . S
H523 N516 0.984 . S
H524 N512 0.984 . S
H525 N512 0.985 . S
C526 C527 1.363 . S
C526 C532 1.379 . S
C526 N534 1.356 . S
C527 C526 1.363 . S
C527 C533 1.363 . S
C528 C529 1.363 . S
C528 C533 1.379 . S
C528 N535 1.356 . S
C529 C528 1.363 . S
C529 C532 1.363 . S
N530 C532 1.356 . S
N530 H542 0.984 . S
N530 H543 0.985 . S
N531 C533 1.356 . S
N531 H536 0.984 . S
N531 H537 0.985 . S
C532 C526 1.379 . S
C532 C529 1.363 . S
C532 N530 1.356 . S
C533 C527 1.363 . S
C533 C528 1.379 . S
C533 N531 1.356 . S
N534 C526 1.356 . S
N534 H540 0.984 . S
N534 H541 0.984 . S
N535 C528 1.356 . S
N535 H538 0.984 . S
N535 H539 0.985 1_455 S
H536 N531 0.984 . S
H537 N531 0.985 . S
H538 N535 0.984 . S
H539 N535 0.985 1_655 S
H540 N534 0.984 . S
H541 N534 0.984 . S
H542 N530 0.984 . S
H543 N530 0.985 . S
C544 C545 1.363 1_545 S
C544 C550 1.379 . S
C544 N552 1.356 . S
C545 C544 1.363 1_565 S
C545 C551 1.363 . S
C546 C547 1.363 . S
C546 C551 1.379 1_556 S
C546 N553 1.356 . S
C547 C546 1.363 . S
C547 C550 1.363 1_566 S
N548 C550 1.356 1_556 S
N548 H560 0.984 . S
N548 H561 0.985 . S
N549 C551 1.356 . S
N549 H554 0.984 . S
N549 H555 0.985 . S
C550 C544 1.379 . S
C550 C547 1.363 1_544 S
C550 N548 1.356 1_554 S
C551 C545 1.363 . S
C551 C546 1.379 1_554 S
C551 N549 1.356 . S
N552 C544 1.356 . S
N552 H558 0.984 . S
N552 H559 0.984 . S
N553 C546 1.356 . S
N553 H556 0.984 . S
N553 H557 0.985 . S
H554 N549 0.984 . S
H555 N549 0.985 . S
H556 N553 0.984 . S
H557 N553 0.985 . S
H558 N552 0.984 . S
H559 N552 0.984 . S
H560 N548 0.984 . S
H561 N548 0.985 . S
C562 C563 1.363 . S
C562 C568 1.379 1_554 S
C562 N570 1.356 . S
C563 C562 1.363 . S
C563 C569 1.363 . S
C564 C565 1.363 . S
C564 C569 1.379 1_556 S
C564 N571 1.356 . S
C565 C564 1.363 . S
C565 C568 1.363 . S
N566 C568 1.356 . S
N566 H578 0.984 1_565 S
N566 H579 0.985 . S
N567 C569 1.356 . S
N567 H572 0.984 . S
N567 H573 0.985 . S
C568 C562 1.379 1_556 S
C568 C565 1.363 . S
C568 N566 1.356 . S
C569 C563 1.363 . S
C569 C564 1.379 1_554 S
C569 N567 1.356 . S
N570 C562 1.356 . S
N570 H576 0.984 1_565 S
N570 H577 0.984 . S
N571 C564 1.356 . S
N571 H574 0.984 . S
N571 H575 0.985 . S
H572 N567 0.984 . S
H573 N567 0.985 . S
H574 N571 0.984 . S
H575 N571 0.985 . S
H576 N570 0.984 1_545 S
H577 N570 0.984 . S
H578 N566 0.984 1_545 S
H579 N566 0.985 . S
C580 C581 1.363 . S
C580 C586 1.379 1_554 S
C580 N588 1.356 . S
C581 C580 1.363 . S
C581 C587 1.363 . S
C582 C583 1.363 . S
C582 C587 1.379 1_556 S
C582 N589 1.356 . S
C583 C582 1.363 . S
C583 C586 1.363 . S
N584 C586 1.356 . S
N584 H596 0.984 . S
N584 H597 0.985 . S
N585 C587 1.356 . S
N585 H590 0.984 . S
N585 H591 0.985 . S
C586 C580 1.379 1_556 S
C586 C583 1.363 . S
C586 N584 1.356 . S
C587 C581 1.363 . S
C587 C582 1.379 1_554 S
C587 N585 1.356 . S
N588 C580 1.356 . S
N588 H594 0.984 . S
N588 H595 0.984 . S
N589 C582 1.356 . S
N589 H592 0.984 . S
N589 H593 0.985 . S
H590 N585 0.984 . S
H591 N585 0.985 . S
H592 N589 0.984 . S
H593 N589 0.985 . S
H594 N588 0.984 . S
H595 N588 0.984 . S
H596 N584 0.984 . S
H597 N584 0.985 . S
C598 C599 1.363 . S
C598 C604 1.379 1_554 S
C598 N606 1.356 . S
C599 C598 1.363 . S
C599 C605 1.363 . S
C600 C601 1.363 . S
C600 C605 1.379 1_556 S
C600 N607 1.356 . S
C601 C600 1.363 . S
C601 C604 1.363 . S
N602 C604 1.356 1_455 S
N602 H614 0.984 . S
N602 H615 0.985 . S
N603 C605 1.356 . S
N603 H608 0.984 . S
N603 H609 0.985 . S
C604 C598 1.379 1_556 S
C604 C601 1.363 . S
C604 N602 1.356 1_655 S
C605 C599 1.363 . S
C605 C600 1.379 1_554 S
C605 N603 1.356 . S
N606 C598 1.356 . S
N606 H612 0.984 1_655 S
N606 H613 0.984 . S
N607 C600 1.356 . S
N607 H610 0.984 . S
N607 H611 0.985 . S
H608 N603 0.984 . S
H609 N603 0.985 . S
H610 N607 0.984 . S
H611 N607 0.985 . S
H612 N606 0.984 1_455 S
H613 N606 0.984 . S
H614 N602 0.984 . S
H615 N602 0.985 . S
C616 C617 1.363 . S
C616 C622 1.379 . S
C616 N624 1.356 . S
C617 C616 1.363 . S
C617 C623 1.363 . S
C618 C619 1.365 1_455 S
C618 C623 1.379 . S
C618 N625 1.356 . S
C619 C618 1.365 1_655 S
C619 C622 1.363 1_655 S
N620 C622 1.356 1_655 S
N620 H632 0.984 . S
N620 H633 0.985 . S
N621 C623 1.356 . S
N621 H626 0.984 . S
N621 H627 0.985 . S
C622 C616 1.379 . S
C622 C619 1.363 1_455 S
C622 N620 1.356 1_455 S
C623 C617 1.363 . S
C623 C618 1.379 . S
C623 N621 1.356 . S
N624 C616 1.356 . S
N624 H630 0.984 . S
N624 H631 0.984 . S
N625 C618 1.356 . S
N625 H628 0.984 1_455 S
N625 H629 0.985 . S
H626 N621 0.984 . S
H627 N621 0.985 . S
H628 N625 0.984 1_655 S
H629 N625 0.985 . S
H630 N624 0.984 . S
H631 N624 0.984 . S
H632 N620 0.984 . S
H633 N620 0.985 . S
C634 C635 1.363 . S
C634 C640 1.379 . S
C634 N642 1.356 . S
C635 C634 1.363 . S
C635 C641 1.363 . S
C636 C637 1.358 1_545 S
C636 C641 1.393 . S
C636 N643 1.344 1_545 S
C637 C636 1.358 1_565 S
C637 C640 1.363 1_565 S
N638 C640 1.356 1_565 S
N638 H650 0.984 1_565 S
N638 H651 0.985 . S
N639 C641 1.356 . S
N639 H644 0.984 . S
N639 H645 0.985 . S
C640 C634 1.379 . S
C640 C637 1.363 1_545 S
C640 N638 1.356 1_545 S
C641 C635 1.363 . S
C641 C636 1.393 . S
C641 N639 1.356 . S
N642 C634 1.356 . S
N642 H648 0.984 . S
N642 H649 0.984 . S
N643 C636 1.344 1_565 S
N643 H646 0.984 . S
N643 H647 0.985 . S
H644 N639 0.984 . S
H645 N639 0.985 . S
H646 N643 0.984 . S
H647 N643 0.985 . S
H648 N642 0.984 . S
H649 N642 0.984 . S
H650 N638 0.984 1_545 S
H651 N638 0.985 . S
C652 C653 1.363 . S
C652 C658 1.379 . S
C652 N660 1.356 . S
C653 C652 1.363 . S
C653 C659 1.363 . S
C654 C655 1.363 . S
C654 C659 1.379 . S
C654 N661 1.356 . S
C655 C654 1.363 . S
C655 C658 1.363 . S
N656 C658 1.356 . S
N656 H668 0.984 . S
N656 H669 0.985 . S
N657 C659 1.356 . S
N657 H662 0.984 . S
N657 H663 0.985 . S
C658 C652 1.379 . S
C658 C655 1.363 . S
C658 N656 1.356 . S
C659 C653 1.363 . S
C659 C654 1.379 . S
C659 N657 1.356 . S
N660 C652 1.356 . S
N660 H666 0.984 . S
N660 H667 0.984 . S
N661 C654 1.356 . S
N661 H664 0.984 . S
N661 H665 0.985 . S
H662 N657 0.984 . S
H663 N657 0.985 . S
H664 N661 0.984 . S
H665 N661 0.985 . S
H666 N660 0.984 . S
H667 N660 0.984 . S
H668 N656 0.984 . S
H669 N656 0.985 . S
C670 C671 1.363 . S
C670 C676 1.379 . S
C670 N678 1.356 . S
C671 C670 1.363 . S
C671 C677 1.363 . S
C672 C673 1.363 . S
C672 C677 1.379 . S
C672 N679 1.356 . S
C673 C672 1.363 . S
C673 C676 1.363 . S
N674 C676 1.356 . S
N674 H686 0.984 . S
N674 H687 0.985 . S
N675 C677 1.356 . S
N675 H680 0.984 . S
N675 H681 0.985 . S
C676 C670 1.379 . S
C676 C673 1.363 . S
C676 N674 1.356 . S
C677 C671 1.363 . S
C677 C672 1.379 . S
C677 N675 1.356 . S
N678 C670 1.356 . S
N678 H684 0.984 . S
N678 H685 0.984 . S
N679 C672 1.356 . S
N679 H682 0.984 . S
N679 H683 0.985 . S
H680 N675 0.984 . S
H681 N675 0.985 . S
H682 N679 0.984 . S
H683 N679 0.985 . S
H684 N678 0.984 . S
H685 N678 0.984 . S
H686 N674 0.984 . S
H687 N674 0.985 . S
C688 C689 1.363 . S
C688 C694 1.379 1_655 S
C688 N696 1.356 1_554 S
C689 C688 1.363 . S
C689 C695 1.363 . S
C690 C691 1.363 1_655 S
C690 C695 1.379 . S
C690 N697 1.356 1_655 S
C691 C690 1.363 1_455 S
C691 C694 1.363 . S
N692 C694 1.356 1_556 S
N692 H704 0.984 . S
N692 H705 0.985 1_556 S
N693 C695 1.356 . S
N693 H698 0.984 . S
N693 H699 0.985 . S
C694 C688 1.379 1_455 S
C694 C691 1.363 . S
C694 N692 1.356 1_554 S
C695 C689 1.363 . S
C695 C690 1.379 . S
C695 N693 1.356 . S
N696 C688 1.356 1_556 S
N696 H702 0.984 . S
N696 H703 0.984 . S
N697 C690 1.356 1_455 S
N697 H700 0.984 . S
N697 H701 0.985 1_455 S
H698 N693 0.984 . S
H699 N693 0.985 . S
H700 N697 0.984 . S
H701 N697 0.985 1_655 S
H702 N696 0.984 . S
H703 N696 0.984 . S
H704 N692 0.984 . S
H705 N692 0.985 1_554 S
C706 C707 1.363 . S
C706 C712 1.379 1_565 S
C706 N714 1.356 . S
C707 C706 1.363 . S
C707 C713 1.363 . S
C708 C709 1.363 1_554 S
C708 C713 1.379 1_545 S
C708 N715 1.356 1_554 S
C709 C708 1.363 1_556 S
C709 C712 1.363 1_556 S
N710 C712 1.356 1_556 S
N710 H722 0.984 . S
N710 H723 0.985 . S
N711 C713 1.356 . S
N711 H716 0.984 . S
N711 H717 0.985 . S
C712 C706 1.379 1_545 S
C712 C709 1.363 1_554 S
C712 N710 1.356 1_554 S
C713 C707 1.363 . S
C713 C708 1.379 1_565 S
C713 N711 1.356 . S
N714 C706 1.356 . S
N714 H720 0.984 . S
N714 H721 0.984 . S
N715 C708 1.356 1_556 S
N715 H718 0.984 . S
N715 H719 0.985 . S
H716 N711 0.984 . S
H717 N711 0.985 . S
H718 N715 0.984 . S
H719 N715 0.985 . S
H720 N714 0.984 . S
H721 N714 0.984 . S
H722 N710 0.984 . S
H723 N710 0.985 . S
C724 C725 1.363 . S
C724 C730 1.379 1_554 S
C724 N732 1.356 . S
C725 C724 1.363 . S
C725 C731 1.363 1_554 S
C726 C727 1.363 . S
C726 C731 1.379 . S
C726 N733 1.356 . S
C727 C726 1.363 . S
C727 C730 1.363 . S
N728 C730 1.356 . S
N728 H740 0.984 1_556 S
N728 H741 0.985 . S
N729 C731 1.354 1_554 S
N729 H734 0.992 . S
N729 H735 0.979 1_554 S
C730 C724 1.379 1_556 S
C730 C727 1.363 . S
C730 N728 1.356 . S
C731 C725 1.363 1_556 S
C731 C726 1.379 . S
C731 N729 1.354 1_556 S
N732 C724 1.356 . S
N732 H738 0.984 . S
N732 H739 0.984 . S
N733 C726 1.356 . S
N733 H736 0.984 . S
N733 H737 0.985 . S
H734 N729 0.992 . S
H735 N729 0.979 1_556 S
H736 N733 0.984 . S
H737 N733 0.985 . S
H738 N732 0.984 . S
H739 N732 0.984 . S
H740 N728 0.984 1_554 S
H741 N728 0.985 . S
C742 C743 1.363 . S
C742 C748 1.379 . S
C742 N750 1.356 . S
C743 C742 1.363 . S
C743 C749 1.363 1_554 S
C744 C745 1.363 . S
C744 C749 1.379 1_554 S
C744 N751 1.356 1_554 S
C745 C744 1.363 . S
C745 C748 1.363 . S
N746 C748 1.356 . S
N746 H758 0.984 . S
N746 H759 0.985 . S
N747 C749 1.356 . S
N747 H752 0.984 . S
N747 H753 0.985 . S
C748 C742 1.379 . S
C748 C745 1.363 . S
C748 N746 1.356 . S
C749 C743 1.363 1_556 S
C749 C744 1.379 1_556 S
C749 N747 1.356 . S
N750 C742 1.356 . S
N750 H756 0.984 . S
N750 H757 0.984 . S
N751 C744 1.356 1_556 S
N751 H754 0.984 1_556 S
N751 H755 0.985 . S
H752 N747 0.984 . S
H753 N747 0.985 . S
H754 N751 0.984 1_554 S
H755 N751 0.985 . S
H756 N750 0.984 . S
H757 N750 0.984 . S
H758 N746 0.984 . S
H759 N746 0.985 . S
C760 C761 1.363 . S
C760 C766 1.379 . S
C760 N768 1.356 . S
C761 C760 1.363 . S
C761 C767 1.363 . S
C762 C763 1.363 . S
C762 C767 1.379 . S
C762 N769 1.356 . S
C763 C762 1.363 . S
C763 C766 1.363 . S
N764 C766 1.356 . S
N764 H776 0.984 1_455 S
N764 H777 0.985 . S
N765 C767 1.356 . S
N765 H770 0.984 . S
N765 H771 0.985 . S
C766 C760 1.379 . S
C766 C763 1.363 . S
C766 N764 1.356 . S
C767 C761 1.363 . S
C767 C762 1.379 . S
C767 N765 1.356 . S
N768 C760 1.356 . S
N768 H774 0.984 . S
N768 H775 0.984 . S
N769 C762 1.356 . S
N769 H772 0.984 . S
N769 H773 0.985 . S
H770 N765 0.984 . S
H771 N765 0.985 . S
H772 N769 0.984 . S
H773 N769 0.985 . S
H774 N768 0.984 . S
H775 N768 0.984 . S
H776 N764 0.984 1_655 S
H777 N764 0.985 . S
C778 C779 1.363 . S
C778 C784 1.379 . S
C778 N786 1.356 . S
C779 C778 1.363 . S
C779 C785 1.363 . S
C780 C781 1.363 . S
C780 C785 1.379 . S
C780 N787 1.356 1_545 S
C781 C780 1.363 . S
C781 C784 1.363 . S
N782 C784 1.356 . S
N782 H794 0.984 . S
N782 H795 0.985 . S
N783 C785 1.356 1_565 S
N783 H788 0.984 1_565 S
N783 H789 0.985 . S
C784 C778 1.379 . S
C784 C781 1.363 . S
C784 N782 1.356 . S
C785 C779 1.363 . S
C785 C780 1.379 . S
C785 N783 1.356 1_545 S
N786 C778 1.356 . S
N786 H792 0.984 . S
N786 H793 0.984 . S
N787 C780 1.356 1_565 S
N787 H790 0.984 . S
N787 H791 0.985 . S
H788 N783 0.984 1_545 S
H789 N783 0.985 . S
H790 N787 0.984 . S
H791 N787 0.985 . S
H792 N786 0.984 . S
H793 N786 0.984 . S
H794 N782 0.984 . S
H795 N782 0.985 . S
C796 C797 1.363 . S
C796 C802 1.379 . S
C796 N804 1.356 . S
C797 C796 1.363 . S
C797 C803 1.363 . S
C798 C799 1.363 . S
C798 C803 1.379 . S
C798 N805 1.356 . S
C799 C798 1.363 . S
C799 C802 1.363 . S
N800 C802 1.356 . S
N800 H812 0.984 . S
N800 H813 0.985 . S
N801 C803 1.356 . S
N801 H806 0.984 . S
N801 H807 0.985 . S
C802 C796 1.379 . S
C802 C799 1.363 . S
C802 N800 1.356 . S
C803 C797 1.363 . S
C803 C798 1.379 . S
C803 N801 1.356 . S
N804 C796 1.356 . S
N804 H810 0.984 . S
N804 H811 0.984 . S
N805 C798 1.356 . S
N805 H808 0.984 . S
N805 H809 0.985 . S
H806 N801 0.984 . S
H807 N801 0.985 . S
H808 N805 0.984 . S
H809 N805 0.985 . S
H810 N804 0.984 . S
H811 N804 0.984 . S
H812 N800 0.984 . S
H813 N800 0.985 . S
C814 C815 1.363 . S
C814 C820 1.379 . S
C814 N822 1.356 . S
C815 C814 1.363 . S
C815 C821 1.363 . S
C816 C817 1.363 . S
C816 C821 1.379 . S
C816 N823 1.356 . S
C817 C816 1.363 . S
C817 C820 1.363 . S
N818 C820 1.356 . S
N818 H830 0.984 . S
N818 H831 0.985 . S
N819 C821 1.356 . S
N819 H824 0.984 . S
N819 H825 0.985 . S
C820 C814 1.379 . S
C820 C817 1.363 . S
C820 N818 1.356 . S
C821 C815 1.363 . S
C821 C816 1.379 . S
C821 N819 1.356 . S
N822 C814 1.356 . S
N822 H828 0.984 . S
N822 H829 0.984 . S
N823 C816 1.356 . S
N823 H826 0.984 . S
N823 H827 0.985 . S
H824 N819 0.984 . S
H825 N819 0.985 . S
H826 N823 0.984 . S
H827 N823 0.985 . S
H828 N822 0.984 . S
H829 N822 0.984 . S
H830 N818 0.984 . S
H831 N818 0.985 . S
C832 C833 1.363 . S
C832 C838 1.379 . S
C832 N840 1.356 . S
C833 C832 1.363 . S
C833 C839 1.363 . S
C834 C835 1.363 . S
C834 C839 1.379 . S
C834 N841 1.356 . S
C835 C834 1.363 . S
C835 C838 1.363 . S
N836 C838 1.356 . S
N836 H848 0.984 . S
N836 H849 0.985 . S
N837 C839 1.356 . S
N837 H842 0.984 . S
N837 H843 0.985 . S
C838 C832 1.379 . S
C838 C835 1.363 . S
C838 N836 1.356 . S
C839 C833 1.363 . S
C839 C834 1.379 . S
C839 N837 1.356 . S
N840 C832 1.356 . S
N840 H846 0.984 . S
N840 H847 0.984 . S
N841 C834 1.356 . S
N841 H844 0.984 . S
N841 H845 0.985 . S
H842 N837 0.984 . S
H843 N837 0.985 . S
H844 N841 0.984 . S
H845 N841 0.985 . S
H846 N840 0.984 . S
H847 N840 0.984 . S
H848 N836 0.984 . S
H849 N836 0.985 . S
C850 C851 1.363 . S
C850 C856 1.379 . S
C850 N858 1.356 . S
C851 C850 1.363 . S
C851 C857 1.363 . S
C852 C853 1.363 . S
C852 C857 1.379 . S
C852 N859 1.356 1_565 S
C853 C852 1.363 . S
C853 C856 1.363 . S
N854 C856 1.356 . S
N854 H866 0.984 . S
N854 H867 0.985 . S
N855 C857 1.356 1_545 S
N855 H860 0.984 . S
N855 H861 0.985 . S
C856 C850 1.379 . S
C856 C853 1.363 . S
C856 N854 1.356 . S
C857 C851 1.363 . S
C857 C852 1.379 . S
C857 N855 1.356 1_565 S
N858 C850 1.356 . S
N858 H864 0.984 . S
N858 H865 0.984 . S
N859 C852 1.356 1_545 S
N859 H862 0.984 . S
N859 H863 0.985 . S
H860 N855 0.984 . S
H861 N855 0.985 . S
H862 N859 0.984 . S
H863 N859 0.985 . S
H864 N858 0.984 . S
H865 N858 0.984 . S
H866 N854 0.984 . S
H867 N854 0.985 . S
C868 C869 1.363 . S
C868 C874 1.379 . S
C868 N876 1.356 . S
C869 C868 1.363 . S
C869 C875 1.363 . S
C870 C871 1.363 . S
C870 C875 1.379 . S
C870 N877 1.356 . S
C871 C870 1.363 . S
C871 C874 1.363 . S
N872 C874 1.356 . S
N872 H884 0.984 . S
N872 H885 0.985 . S
N873 C875 1.356 . S
N873 H878 0.984 . S
N873 H879 0.985 . S
C874 C868 1.379 . S
C874 C871 1.363 . S
C874 N872 1.356 . S
C875 C869 1.363 . S
C875 C870 1.379 . S
C875 N873 1.356 . S
N876 C868 1.356 . S
N876 H882 0.984 . S
N876 H883 0.984 . S
N877 C870 1.356 . S
N877 H880 0.984 . S
N877 H881 0.985 . S
H878 N873 0.984 . S
H879 N873 0.985 . S
H880 N877 0.984 . S
H881 N877 0.985 . S
H882 N876 0.984 . S
H883 N876 0.984 . S
H884 N872 0.984 . S
H885 N872 0.985 . S
C886 C887 1.363 . S
C886 C892 1.379 . S
C886 N894 1.356 . S
C887 C886 1.363 . S
C887 C893 1.363 . S
C888 C889 1.363 . S
C888 C893 1.379 . S
C888 N895 1.356 . S
C889 C888 1.363 . S
C889 C892 1.363 . S
N890 C892 1.356 . S
N890 H902 0.984 . S
N890 H903 0.985 . S
N891 C893 1.356 . S
N891 H896 0.984 . S
N891 H897 0.985 . S
C892 C886 1.379 . S
C892 C889 1.363 . S
C892 N890 1.356 . S
C893 C887 1.363 . S
C893 C888 1.379 . S
C893 N891 1.356 . S
N894 C886 1.356 . S
N894 H900 0.984 . S
N894 H901 0.984 . S
N895 C888 1.356 . S
N895 H898 0.984 . S
N895 H899 0.985 . S
H896 N891 0.984 . S
H897 N891 0.985 . S
H898 N895 0.984 . S
H899 N895 0.985 . S
H900 N894 0.984 . S
H901 N894 0.984 . S
H902 N890 0.984 . S
H903 N890 0.985 . S
C473 C255 3.010 . S
C475 C343 3.283 . S
C493 C369 2.953 . S
C491 C294 2.560 . S
C511 C409 2.827 . S
C509 C177 2.504 . S
C529 C463 3.181 . S
C527 C216 2.934 . S
C547 C324 3.286 . S
C545 C99 3.017 . S
C563 C138 2.569 . S
C565 C354 2.953 . S
C581 C21 2.511 . S
C583 C394 2.827 . S
C599 C60 2.943 . S
C601 C444 3.181 . S
C619 C320 0.866 . S
C617 C196 0.853 . S
C637 C381 0.953 . S
C635 C235 0.958 . S
C655 C421 0.615 . S
C653 C289 0.589 . S
C671 C157 0.753 . S
C673 C440 0.754 . S
C689 C40 0.858 . S
C691 C341 0.867 . S
C709 C360 0.953 . S
C707 C79 0.966 . S
C727 C400 0.615 . S
C725 C133 0.586 . S
C743 C1 0.754 . S
C745 C461 0.754 . S
C761 C211 2.902 . S
C763 C314 3.418 . S
C779 C250 3.359 . S
C781 C364 3.815 . S
C799 C404 3.584 . S
C797 C274 3.156 . S
C817 C434 3.143 . S
C815 C172 2.657 . S
C833 C55 2.900 . S
C835 C329 3.417 . S
C853 C383 3.815 . S
C851 C94 3.358 . S
C871 C423 3.584 . S
C869 C118 3.162 . S
C887 C16 2.656 . S
C889 C449 3.144 . S
