# Generated by pormake.
# Topology zzz, (3,6)-cn, num edge types: 1
# Building blocks:
#     Node 0, Type 0, BuildingBlock: MIDCAF_clean_linker_0, # of connection points: 3
#     Node 1, Type 0, BuildingBlock: MIDCAF_clean_linker_0, # of connection points: 3
#     Node 2, Type 0, BuildingBlock: MIDCAF_clean_linker_0, # of connection points: 3
#     Node 3, Type 0, BuildingBlock: MIDCAF_clean_linker_0, # of connection points: 3
#     Node 4, Type 0, BuildingBlock: MIDCAF_clean_linker_0, # of connection points: 3
#     Node 5, Type 0, BuildingBlock: MIDCAF_clean_linker_0, # of connection points: 3
#     Node 6, Type 0, BuildingBlock: MIDCAF_clean_linker_0, # of connection points: 3
#     Node 7, Type 0, BuildingBlock: MIDCAF_clean_linker_0, # of connection points: 3
#     Node 8, Type 1, BuildingBlock: GEDQOX_clean_sbu_0, # of connection points: 6
#     Node 9, Type 1, BuildingBlock: GEDQOX_clean_sbu_0, # of connection points: 6
#     Node 10, Type 1, BuildingBlock: GEDQOX_clean_sbu_0, # of connection points: 6
#     Node 11, Type 1, BuildingBlock: GEDQOX_clean_sbu_0, # of connection points: 6
#     Edge 12, Type (0, 1), BuildingBlock: TEMPAE_clean_linker_10, # of connection points: 2
#     Edge 13, Type (0, 1), BuildingBlock: TEMPAE_clean_linker_10, # of connection points: 2
#     Edge 14, Type (0, 1), BuildingBlock: TEMPAE_clean_linker_10, # of connection points: 2
#     Edge 15, Type (0, 1), BuildingBlock: TEMPAE_clean_linker_10, # of connection points: 2
#     Edge 16, Type (0, 1), BuildingBlock: TEMPAE_clean_linker_10, # of connection points: 2
#     Edge 17, Type (0, 1), BuildingBlock: TEMPAE_clean_linker_10, # of connection points: 2
#     Edge 18, Type (0, 1), BuildingBlock: TEMPAE_clean_linker_10, # of connection points: 2
#     Edge 19, Type (0, 1), BuildingBlock: TEMPAE_clean_linker_10, # of connection points: 2
#     Edge 20, Type (0, 1), BuildingBlock: TEMPAE_clean_linker_10, # of connection points: 2
#     Edge 21, Type (0, 1), BuildingBlock: TEMPAE_clean_linker_10, # of connection points: 2
#     Edge 22, Type (0, 1), BuildingBlock: TEMPAE_clean_linker_10, # of connection points: 2
#     Edge 23, Type (0, 1), BuildingBlock: TEMPAE_clean_linker_10, # of connection points: 2
#     Edge 24, Type (0, 1), BuildingBlock: TEMPAE_clean_linker_10, # of connection points: 2
#     Edge 25, Type (0, 1), BuildingBlock: TEMPAE_clean_linker_10, # of connection points: 2
#     Edge 26, Type (0, 1), BuildingBlock: TEMPAE_clean_linker_10, # of connection points: 2
#     Edge 27, Type (0, 1), BuildingBlock: TEMPAE_clean_linker_10, # of connection points: 2
#     Edge 28, Type (0, 1), BuildingBlock: TEMPAE_clean_linker_10, # of connection points: 2
#     Edge 29, Type (0, 1), BuildingBlock: TEMPAE_clean_linker_10, # of connection points: 2
#     Edge 30, Type (0, 1), BuildingBlock: TEMPAE_clean_linker_10, # of connection points: 2
#     Edge 31, Type (0, 1), BuildingBlock: TEMPAE_clean_linker_10, # of connection points: 2
#     Edge 32, Type (0, 1), BuildingBlock: TEMPAE_clean_linker_10, # of connection points: 2
#     Edge 33, Type (0, 1), BuildingBlock: TEMPAE_clean_linker_10, # of connection points: 2
#     Edge 34, Type (0, 1), BuildingBlock: TEMPAE_clean_linker_10, # of connection points: 2
#     Edge 35, Type (0, 1), BuildingBlock: TEMPAE_clean_linker_10, # of connection points: 2
# Relax obj value: 0.310
# Max RMSD: 0.265
# Mean RMSD: 0.199
data_MOF--net-zzz--node1-GEDQOX_clean_sbu_0--node2-MIDCAF_clean_linker_0--edge1-TEMPAE_clean_linker_10
_symmetry_space_group_name_H-M    P1
_symmetry_Int_Tables_number       1
_symmetry_cell_setting            triclinic
loop_
_symmetry_equiv_pos_as_xyz
'x, y, z'
_cell_length_a     62.92905
_cell_length_b     58.612914
_cell_length_c     22.052921
_cell_angle_alpha  82.114483
_cell_angle_beta   91.153127
_cell_angle_gamma 102.07581
loop_
_atom_site_label
_atom_site_type_symbol
_atom_site_fract_x
_atom_site_fract_y
_atom_site_fract_z
_atom_type_partial_charge
C0 C 0.79711 0.44288 0.35635 0.0
C1 C 0.7948 0.46309 0.38117 0.0
C2 C 0.77942 0.47583 0.35538 0.0
C3 C 0.7678 0.46945 0.30327 0.0
H4 H 0.70395 0.45751 0.19806 0.0
H5 H 0.67083 0.46941 0.15781 0.0
H6 H 0.69596 0.47739 0.97376 0.0
H7 H 0.72899 0.46534 0.01354 0.0
H8 H 0.77656 0.45294 0.99478 0.0
H9 H 0.80695 0.44904 0.93215 0.0
H10 H 0.82737 0.40273 0.08067 0.0
H11 H 0.79736 0.40701 0.14407 0.0
H12 H 0.78874 0.4217 0.2844 0.0
H13 H 0.80835 0.43227 0.37607 0.0
H14 H 0.77726 0.49152 0.3732 0.0
H15 H 0.757 0.48038 0.28236 0.0
N16 N 0.74498 0.4539 0.19226 0.0
N17 N 0.75161 0.44447 0.09507 0.0
N18 N 0.77531 0.43806 0.17579 0.0
C19 C 0.73895 0.45257 0.13294 0.0
C20 C 0.7697 0.43697 0.11645 0.0
C21 C 0.76319 0.44659 0.21391 0.0
C22 C 0.7191 0.46041 0.10904 0.0
C23 C 0.70247 0.46189 0.14904 0.0
C24 C 0.68346 0.46857 0.12605 0.0
C25 C 0.68087 0.47428 0.06272 0.0
C26 C 0.69762 0.4732 0.0228 0.0
C27 C 0.71646 0.46617 0.04565 0.0
C28 C 0.78476 0.43048 0.07451 0.0
C29 C 0.78713 0.44138 0.01346 0.0
C30 C 0.80449 0.43919 0.97765 0.0
C31 C 0.81937 0.4256 1.00184 0.0
C32 C 0.81596 0.41313 0.06099 0.0
C33 C 0.7989 0.41572 0.09727 0.0
C34 C 0.77153 0.45038 0.27574 0.0
C35 C 0.78575 0.43671 0.30404 0.0
C36 C 0.93105 0.75061 0.42651 0.0
C37 C 0.94975 0.75545 0.46237 0.0
C38 C 0.96662 0.74348 0.45575 0.0
C39 C 0.96559 0.72863 0.41049 0.0
H40 H 0.95137 0.64886 0.30203 0.0
H41 H 0.96176 0.61448 0.26735 0.0
H42 H 0.00208 0.66067 0.12551 0.0
H43 H 0.99204 0.69444 0.16021 0.0
H44 H 0.96634 0.73146 0.08634 0.0
H45 H 0.97402 0.76576 0.00803 0.0
H46 H 0.94621 0.80567 0.12442 0.0
H47 H 0.93812 0.77146 0.20207 0.0
H48 H 0.91638 0.73437 0.35044 0.0
H49 H 0.91784 0.75961 0.42999 0.0
H50 H 0.98114 0.74667 0.48316 0.0
H51 H 0.97955 0.72124 0.4029 0.0
N52 N 0.95779 0.69884 0.30297 0.0
N53 N 0.95923 0.71058 0.19641 0.0
N54 N 0.9472 0.7338 0.26046 0.0
C55 C 0.96205 0.69477 0.24533 0.0
C56 C 0.95177 0.73008 0.20343 0.0
C57 C 0.95008 0.71844 0.31027 0.0
C58 C 0.97083 0.67425 0.23365 0.0
C59 C 0.96288 0.65155 0.26453 0.0
C60 C 0.96865 0.63193 0.24426 0.0
C61 C 0.98269 0.63483 0.19348 0.0
C62 C 0.99145 0.65773 0.1651 0.0
C63 C 0.98557 0.67712 0.18482 0.0
C64 C 0.95203 0.74885 0.15112 0.0
C65 C 0.96136 0.74736 0.0947 0.0
C66 C 0.96588 0.76704 0.04989 0.0
C67 C 0.96105 0.78848 0.06053 0.0
C68 C 0.95005 0.78937 0.1147 0.0
C69 C 0.94555 0.76974 0.15948 0.0
C70 C 0.9478 0.72579 0.37076 0.0
C71 C 0.93017 0.73607 0.38098 0.0
C72 C 0.69912 0.98734 0.30473 0.0
C73 C 0.70902 0.97683 0.35554 0.0
C74 C 0.73165 0.97846 0.35448 0.0
C75 C 0.74408 0.99035 0.30304 0.0
H76 H 0.80568 1.00096 0.19426 0.0
H77 H 0.8392 0.99242 0.15657 0.0
H78 H 0.82255 0.01669 0.97155 0.0
H79 H 0.78936 0.02538 0.00867 0.0
H80 H 0.74694 0.04802 0.98405 0.0
H81 H 0.72006 0.06406 0.91998 0.0
H82 H 0.69597 0.08759 0.07748 0.0
H83 H 0.72225 0.07069 0.14188 0.0
H84 H 0.70315 0.00743 0.21619 0.0
H85 H 0.68179 0.98673 0.30459 0.0
H86 H 0.73966 0.97056 0.39331 0.0
H87 H 0.76147 0.99144 0.30313 0.0
N88 N 0.76538 0.00935 0.18052 0.0
N89 N 0.76595 0.03632 0.09065 0.0
N90 N 0.73798 0.03105 0.16249 0.0
C91 C 0.77513 0.02024 0.12647 0.0
C92 C 0.74758 0.04207 0.10899 0.0
C93 C 0.74659 0.01463 0.19839 0.0
C94 C 0.79495 0.01399 0.10453 0.0
C95 C 0.80914 0.00432 0.14555 0.0
C96 C 0.82831 0.99951 0.12408 0.0
C97 C 0.83337 1.00387 0.06119 0.0
C98 C 0.81893 0.01298 0.02018 0.0
C99 C 0.80001 0.01813 0.04161 0.0
C100 C 0.73624 0.0576 0.06809 0.0
C101 C 0.73638 0.05732 0.00452 0.0
C102 C 0.72103 0.06663 0.96774 0.0
C103 C 0.70555 0.07658 0.99402 0.0
C104 C 0.70735 0.0795 0.05626 0.0
C105 C 0.72239 0.06985 0.0931 0.0
C106 C 0.73408 1.00126 0.25278 0.0
C107 C 0.71147 0.99947 0.25427 0.0
C108 C 0.60857 0.72464 0.20884 0.0
C109 C 0.60416 0.73455 0.14935 0.0
C110 C 0.60577 0.75905 0.13729 0.0
C111 C 0.60874 0.77273 0.18517 0.0
H112 H 0.55222 0.81432 0.35367 0.0
H113 H 0.53806 0.84826 0.30419 0.0
H114 H 0.60096 0.87872 0.22145 0.0
H115 H 0.61484 0.84467 0.26926 0.0
H116 H 0.55632 0.7614 0.46863 0.0
H117 H 0.54511 0.72852 0.55106 0.0
H118 H 0.60823 0.711 0.5442 0.0
H119 H 0.61922 0.74342 0.46173 0.0
H120 H 0.61327 0.72961 0.30252 0.0
H121 H 0.60753 0.70587 0.2201 0.0
H122 H 0.60308 0.76735 0.09161 0.0
H123 H 0.60803 0.79116 0.175 0.0
N124 N 0.60054 0.79561 0.287 0.0
N125 N 0.58763 0.79158 0.38817 0.0
N126 N 0.60254 0.76186 0.35467 0.0
C127 C 0.59172 0.80455 0.33178 0.0
C128 C 0.59369 0.77039 0.4001 0.0
C129 C 0.60582 0.77417 0.29781 0.0
C130 C 0.58461 0.82701 0.31533 0.0
C131 C 0.56312 0.82865 0.32643 0.0
C132 C 0.55501 0.8479 0.29779 0.0
C133 C 0.56843 0.86602 0.25893 0.0
C134 C 0.59032 0.8651 0.25151 0.0
C135 C 0.59825 0.84564 0.27883 0.0
C136 C 0.58862 0.75491 0.45894 0.0
C137 C 0.56797 0.75097 0.48623 0.0
C138 C 0.56151 0.73205 0.5329 0.0
C139 C 0.57577 0.71713 0.55375 0.0
C140 C 0.59695 0.72226 0.52946 0.0
C141 C 0.60322 0.7408 0.48219 0.0
C142 C 0.61022 0.76214 0.24592 0.0
C143 C 0.6117 0.73832 0.25652 0.0
C144 C 0.2178 0.55574 0.31586 0.0
C145 C 0.22069 0.53399 0.30109 0.0
C146 C 0.23607 0.52299 0.33389 0.0
C147 C 0.24727 0.53283 0.38287 0.0
H148 H 0.30429 0.53913 0.49258 0.0
H149 H 0.33728 0.52925 0.53787 0.0
H150 H 0.32677 0.56082 0.69753 0.0
H151 H 0.29387 0.57117 0.65187 0.0
H152 H 0.24215 0.5775 0.66916 0.0
H153 H 0.21128 0.58438 0.72437 0.0
H154 H 0.18484 0.61116 0.55361 0.0
H155 H 0.21541 0.60408 0.49836 0.0
H156 H 0.22544 0.58168 0.37658 0.0
H157 H 0.20655 0.56504 0.29045 0.0
H158 H 0.23866 0.50621 0.32379 0.0
H159 H 0.25821 0.52339 0.40923 0.0
N160 N 0.2698 0.55616 0.48432 0.0
N161 N 0.26411 0.57385 0.57045 0.0
N162 N 0.23987 0.57382 0.48848 0.0
C163 C 0.27635 0.56234 0.54018 0.0
C164 C 0.24589 0.57977 0.54454 0.0
C165 C 0.25161 0.562 0.45812 0.0
C166 C 0.29634 0.556 0.56841 0.0
C167 C 0.30891 0.54397 0.53739 0.0
C168 C 0.3278 0.53814 0.56356 0.0
C169 C 0.33462 0.54416 0.62144 0.0
C170 C 0.32206 0.55612 0.65262 0.0
C171 C 0.30313 0.56196 0.62646 0.0
C172 C 0.23092 0.58969 0.57927 0.0
C173 C 0.23013 0.58558 0.64361 0.0
C174 C 0.21248 0.58959 0.67529 0.0
C175 C 0.19548 0.59788 0.64308 0.0
C176 C 0.19754 0.60437 0.57944 0.0
C177 C 0.21505 0.60027 0.54785 0.0
C178 C 0.24311 0.5537 0.40017 0.0
C179 C 0.22874 0.56537 0.36502 0.0
C180 C 0.04271 0.24981 0.22769 0.0
C181 C 0.0604 0.25148 0.18802 0.0
C182 C 0.07859 0.27005 0.19085 0.0
C183 C 0.08005 0.28466 0.23679 0.0
H184 H 0.05232 0.34924 0.35735 0.0
H185 H 0.04677 0.38412 0.39985 0.0
H186 H 0.08343 0.36506 0.55971 0.0
H187 H 0.08939 0.33101 0.51706 0.0
H188 H 0.06816 0.27256 0.569 0.0
H189 H 0.06179 0.23739 0.64528 0.0
H190 H 0.07074 0.19522 0.50546 0.0
H191 H 0.07764 0.23009 0.43016 0.0
H192 H 0.0311 0.26121 0.30647 0.0
H193 H 0.0285 0.23573 0.22798 0.0
H194 H 0.09233 0.27232 0.16023 0.0
H195 H 0.09512 0.2971 0.24207 0.0
N196 N 0.06846 0.30989 0.35545 0.0
N197 N 0.07389 0.2961 0.45897 0.0
N198 N 0.07022 0.27031 0.38613 0.0
C199 C 0.0717 0.31408 0.41482 0.0
C200 C 0.07322 0.27421 0.44493 0.0
C201 C 0.06796 0.28784 0.34133 0.0
C202 C 0.07111 0.33722 0.43402 0.0
C203 C 0.0596 0.35288 0.40084 0.0
C204 C 0.05625 0.37271 0.4255 0.0
C205 C 0.06451 0.37732 0.48348 0.0
C206 C 0.07701 0.36229 0.51477 0.0
C207 C 0.08027 0.34257 0.49039 0.0
C208 C 0.0731 0.25408 0.49331 0.0
C209 C 0.06926 0.25585 0.55492 0.0
C210 C 0.06545 0.23571 0.59851 0.0
C211 C 0.06554 0.21351 0.58125 0.0
C212 C 0.07074 0.21205 0.52047 0.0
C213 C 0.07452 0.23209 0.47708 0.0
C214 C 0.06319 0.28123 0.27983 0.0
C215 C 0.04411 0.26454 0.27285 0.0
C216 C 0.30724 0.99038 0.31666 0.0
C217 C 0.31012 0.01387 0.28864 0.0
C218 C 0.2983 0.02883 0.31141 0.0
C219 C 0.28535 0.02096 0.36421 0.0
H220 H 0.21131 0.98066 0.49479 0.0
H221 H 0.17773 0.98684 0.53583 0.0
H222 H 0.21487 0.02928 0.66341 0.0
H223 H 0.24816 0.02083 0.62564 0.0
H224 H 0.28218 0.97429 0.68594 0.0
H225 H 0.31046 0.96356 0.75556 0.0
H226 H 0.34234 0.94389 0.60543 0.0
H227 H 0.31435 0.95431 0.53603 0.0
H228 H 0.2939 0.96494 0.39247 0.0
H229 H 0.31557 0.97818 0.29924 0.0
H230 H 0.30017 0.04702 0.29093 0.0
H231 H 0.27761 0.03326 0.38333 0.0
N232 N 0.25795 0.99847 0.47691 0.0
N233 N 0.26416 0.98319 0.57877 0.0
N234 N 0.2876 0.98049 0.50032 0.0
C235 C 0.25198 0.99401 0.53708 0.0
C236 C 0.28195 0.97617 0.56041 0.0
C237 C 0.27588 0.99169 0.45849 0.0
C238 C 0.23212 1.00026 0.55728 0.0
C239 C 0.21213 0.99141 0.53137 0.0
C240 C 0.1929 0.99519 0.55479 0.0
C241 C 0.19329 0.00864 0.60337 0.0
C242 C 0.21363 0.0183 0.62731 0.0
C243 C 0.23279 0.01376 0.60527 0.0
C244 C 0.29627 0.96568 0.60513 0.0
C245 C 0.2949 0.9671 0.6681 0.0
C246 C 0.31098 0.96087 0.70803 0.0
C247 C 0.32857 0.95317 0.68542 0.0
C248 C 0.32897 0.94998 0.62366 0.0
C249 C 0.31298 0.95609 0.58397 0.0
C250 C 0.28427 0.99815 0.39519 0.0
C251 C 0.29466 0.98269 0.36969 0.0
C252 C 0.4126 0.27345 0.42944 0.0
C253 C 0.4225 0.26972 0.48671 0.0
C254 C 0.43071 0.24913 0.50176 0.0
C255 C 0.43151 0.23428 0.45787 0.0
H256 H 0.43378 0.15568 0.30701 0.0
H257 H 0.44658 0.1219 0.36199 0.0
H258 H 0.501 0.16963 0.42982 0.0
H259 H 0.48861 0.20285 0.37256 0.0
H260 H 0.42886 0.2396 0.13529 0.0
H261 H 0.43684 0.2738 0.05529 0.0
H262 H 0.48931 0.30639 0.16506 0.0
H263 H 0.48175 0.27195 0.24258 0.0
H264 H 0.40775 0.26337 0.33969 0.0
H265 H 0.40548 0.28873 0.41709 0.0
H266 H 0.43847 0.24563 0.54533 0.0
H267 H 0.4397 0.21976 0.46938 0.0
N268 N 0.43934 0.20919 0.35909 0.0
N269 N 0.45509 0.21558 0.26073 0.0
N270 N 0.43631 0.24277 0.29182 0.0
C271 C 0.45041 0.20189 0.3159 0.0
C272 C 0.44751 0.23585 0.24823 0.0
C273 C 0.43207 0.22953 0.34731 0.0
C274 C 0.46052 0.18166 0.33479 0.0
C275 C 0.44893 0.15868 0.3318 0.0
C276 C 0.4561 0.13943 0.36417 0.0
C277 C 0.47475 0.14292 0.40109 0.0
C278 C 0.48682 0.16605 0.40127 0.0
C279 C 0.47977 0.18517 0.36843 0.0
C280 C 0.45501 0.25309 0.19413 0.0
C281 C 0.44258 0.25378 0.14072 0.0
C282 C 0.44698 0.27353 0.09554 0.0
C283 C 0.46367 0.29306 0.1036 0.0
C284 C 0.47662 0.29166 0.15628 0.0
C285 C 0.47232 0.27191 0.2009 0.0
C286 C 0.42444 0.23997 0.39791 0.0
C287 C 0.41377 0.25885 0.38518 0.0
Nd288 Nd 0.00152 0.99739 0.77935 0.0
Nd289 Nd 0.0243 0.00722 0.89525 0.0
C290 C 0.97606 0.97733 0.69602 0.0
C291 C 0.97134 0.9536 0.67636 0.0
C292 C 0.96476 0.9331 0.71852 0.0
C293 C 0.96125 0.91082 0.69933 0.0
C294 C 0.96443 0.90843 0.63765 0.0
C295 C 0.97096 0.92903 0.59564 0.0
C296 C 0.97428 0.9513 0.61476 0.0
C297 C 0.04581 0.00947 0.7677 0.0
C298 C 0.0144 0.95391 0.87582 0.0
C299 C 0.04846 0.0275 0.98079 0.0
C300 C 0.05072 0.051 0.99998 0.0
C301 C 0.06672 0.05894 0.04181 0.0
C302 C 0.06889 0.0815 0.05888 0.0
C303 C 0.05536 0.09656 0.03337 0.0
C304 C 0.03935 0.0885 0.99156 0.0
C305 C 0.03686 0.06582 0.97573 0.0
C306 C 0.97991 0.99543 0.9065 0.0
C307 C 0.01318 0.05091 0.79592 0.0
O308 O 0.96915 0.97916 0.75038 0.0
O309 O 0.99559 0.98993 0.68362 0.0
O310 O 0.03262 0.0172 0.72798 0.0
O311 O 0.03566 0.9954 0.81107 0.0
O312 O 0.00137 0.96071 0.8326 0.0
O313 O 0.02801 0.96921 0.90395 0.0
O314 O 0.05575 0.02717 0.92588 0.0
O315 O 0.02956 0.01337 0.99199 0.0
O316 O 0.99305 0.98741 0.94572 0.0
O317 O 0.99023 0.00948 0.86336 0.0
O318 O 0.02596 0.04369 0.83923 0.0
O319 O 0.99886 0.03578 0.7692 0.0
H320 H 0.96246 0.93423 0.76648 0.0
H321 H 0.95594 0.89546 0.73291 0.0
H322 H 0.97398 0.92799 0.54804 0.0
H323 H 0.97949 0.9668 0.58144 0.0
H324 H 0.0775 0.04772 0.06122 0.0
H325 H 0.08134 0.08733 0.0913 0.0
H326 H 0.02854 0.09964 0.97186 0.0
H327 H 0.02409 0.05982 0.94447 0.0
Nd328 Nd 0.52426 0.9865 0.81326 0.0
Nd329 Nd 0.51037 0.02539 0.87218 0.0
C330 C 0.53736 0.95017 0.77887 0.0
C331 C 0.55704 0.94923 0.74531 0.0
C332 C 0.55968 0.92834 0.72506 0.0
C333 C 0.57792 0.92821 0.68969 0.0
C334 C 0.59366 0.94904 0.67396 0.0
C335 C 0.59115 0.96972 0.69604 0.0
C336 C 0.573 0.96982 0.73113 0.0
C337 C 0.51631 0.02323 0.73089 0.0
C338 C 0.56083 0.03303 0.82881 0.0
C339 C 0.49662 0.06096 0.90835 0.0
C340 C 0.47636 0.06054 0.94078 0.0
C341 C 0.46915 0.08131 0.94541 0.0
C342 C 0.44914 0.08024 0.97375 0.0
C343 C 0.43605 0.05835 0.99721 0.0
C344 C 0.44352 0.03767 0.99247 0.0
C345 C 0.46342 0.03877 0.96453 0.0
C346 C 0.51913 0.98852 0.9535 0.0
C347 C 0.47353 0.97954 0.85621 0.0
O348 O 0.54058 0.95629 0.83368 0.0
O349 O 0.52369 0.961 0.74737 0.0
O350 O 0.53134 0.01172 0.72358 0.0
O351 O 0.5051 0.01433 0.77845 0.0
O352 O 0.55723 0.01025 0.82544 0.0
O353 O 0.54488 0.04363 0.83844 0.0
O354 O 0.49395 0.05552 0.8528 0.0
O355 O 0.5105 0.05029 0.9395 0.0
O356 O 0.50339 0.99906 0.96078 0.0
O357 O 0.53003 0.99806 0.90604 0.0
O358 O 0.47739 1.00221 0.86028 0.0
O359 O 0.48924 0.96872 0.84536 0.0
H360 H 0.54746 0.9123 0.7355 0.0
H361 H 0.57934 0.91206 0.67297 0.0
H362 H 0.60313 0.98596 0.68552 0.0
H363 H 0.57124 0.98613 0.74627 0.0
H364 H 0.47886 0.09825 0.92672 0.0
H365 H 0.44377 0.09646 0.97658 0.0
H366 H 0.4341 0.02056 0.01109 0.0
H367 H 0.46868 0.02253 0.96122 0.0
Nd368 Nd 0.49631 0.51529 0.88321 0.0
Nd369 Nd 0.51988 0.498 0.77574 0.0
C370 C 0.47177 0.53713 0.93869 0.0
C371 C 0.47854 0.56012 0.96172 0.0
C372 C 0.47941 0.58121 0.92176 0.0
C373 C 0.49121 0.60252 0.93731 0.0
C374 C 0.50223 0.60321 0.99322 0.0
C375 C 0.49967 0.58255 0.03547 0.0
C376 C 0.48787 0.56124 0.01999 0.0
C377 C 0.53916 0.51443 0.91283 0.0
C378 C 0.52875 0.55336 0.78208 0.0
C379 C 0.53847 0.47298 0.71169 0.0
C380 C 0.52814 0.45028 0.69133 0.0
C381 C 0.53393 0.4293 0.71838 0.0
C382 C 0.52129 0.40743 0.70891 0.0
C383 C 0.50264 0.40623 0.67241 0.0
C384 C 0.49746 0.42717 0.64322 0.0
C385 C 0.51004 0.44893 0.6525 0.0
C386 C 0.47998 0.50845 0.74953 0.0
C387 C 0.4902 0.4588 0.88269 0.0
O388 O 0.47215 0.53792 0.87891 0.0
O389 O 0.47985 0.5197 0.96735 0.0
O390 O 0.52593 0.52044 0.94915 0.0
O391 O 0.52918 0.5097 0.86496 0.0
O392 O 0.51121 0.54878 0.8176 0.0
O393 O 0.53793 0.53646 0.76735 0.0
O394 O 0.54095 0.47233 0.77095 0.0
O395 O 0.53135 0.49154 0.6866 0.0
O396 O 0.4955 0.51199 0.70926 0.0
O397 O 0.4853 0.49813 0.79968 0.0
O398 O 0.50311 0.46342 0.83392 0.0
O399 O 0.48414 0.47547 0.90897 0.0
H400 H 0.47214 0.58107 0.87682 0.0
H401 H 0.49241 0.61832 0.90463 0.0
H402 H 0.50794 0.58253 0.07904 0.0
H403 H 0.48735 0.54539 0.05213 0.0
H404 H 0.54766 0.42984 0.74899 0.0
H405 H 0.52566 0.39151 0.73177 0.0
H406 H 0.48347 0.42673 0.61363 0.0
H407 H 0.50499 0.46467 0.63104 0.0
Nd408 Nd 0.00062 0.51826 0.80068 0.0
Nd409 Nd 0.02307 0.47932 0.87962 0.0
C410 C 0.97251 0.54414 0.7586 0.0
C411 C 0.95134 0.53725 0.72953 0.0
C412 C 0.93742 0.55309 0.7172 0.0
C413 C 0.91743 0.54621 0.68868 0.0
C414 C 0.91105 0.52333 0.67256 0.0
C415 C 0.92504 0.50751 0.6859 0.0
C416 C 0.94497 0.51442 0.71389 0.0
C417 C 0.0185 0.49028 0.73549 0.0
C418 C 0.97123 0.46536 0.85852 0.0
C419 C 0.04986 0.45081 0.91009 0.0
C420 C 0.0705 0.45607 0.94277 0.0
C421 C 0.08302 0.43902 0.95884 0.0
C422 C 0.10264 0.44477 0.99015 0.0
C423 C 0.11002 0.4677 0.00512 0.0
C424 C 0.09734 0.48463 0.98857 0.0
C425 C 0.0778 0.47884 0.95797 0.0
C426 C 0.01403 0.5112 0.95224 0.0
C427 C 0.0512 0.5329 0.82836 0.0
O428 O 0.97348 0.53561 0.81643 0.0
O429 O 0.98935 0.54245 0.72688 0.0
O430 O 0.01815 0.51216 0.71605 0.0
O431 O 0.00829 0.48347 0.78568 0.0
O432 O 0.97237 0.48671 0.8281 0.0
O433 O 0.98837 0.45754 0.88147 0.0
O434 O 0.04979 0.46288 0.85543 0.0
O435 O 0.03242 0.45022 0.94244 0.0
O436 O 0.02249 0.49337 0.97353 0.0
O437 O 0.01088 0.51075 0.89612 0.0
O438 O 0.05059 0.51003 0.84139 0.0
O439 O 0.03335 0.54148 0.81977 0.0
H440 H 0.94207 0.57076 0.7292 0.0
H441 H 0.90696 0.55875 0.6793 0.0
H442 H 0.92087 0.48993 0.67313 0.0
H443 H 0.95558 0.50201 0.72253 0.0
H444 H 0.0776 0.42134 0.9474 0.0
H445 H 0.11209 0.43137 1.00235 0.0
H446 H 0.10226 0.50228 1.00052 0.0
H447 H 0.06825 0.49219 0.94649 0.0
C448 C 0.15394 0.01163 0.59407 0.0
C449 C 0.17259 0.01168 0.63028 0.0
C450 C 0.13389 0.01216 0.61982 0.0
C451 C 0.13255 0.014 0.68288 0.0
C452 C 0.15144 0.01544 0.71914 0.0
C453 C 0.17108 0.01371 0.69284 0.0
C454 C 0.11398 0.01003 0.57981 0.0
C455 C 0.15084 0.01833 0.78605 0.0
C456 C 0.0815 0.03269 0.72761 0.0
C457 C 0.06876 0.01113 0.75314 0.0
C458 C 0.10286 0.03416 0.70784 0.0
C459 C 0.11114 0.01335 0.71108 0.0
C460 C 0.09835 0.99156 0.73784 0.0
C461 C 0.07741 0.99081 0.75978 0.0
C462 C 0.11633 0.05786 0.68221 0.0
C463 C 0.10628 0.96885 0.74025 0.0
H464 H 0.15484 0.01088 0.54544 0.0
H465 H 0.18508 0.0134 0.72202 0.0
H466 H 0.10145 0.99455 0.59901 0.0
H467 H 0.10682 0.02582 0.57888 0.0
H468 H 0.11766 0.00802 0.532 0.0
H469 H 0.16737 0.02217 0.80583 0.0
H470 H 0.14255 0.03282 0.79225 0.0
H471 H 0.14143 1.00199 0.81236 0.0
H472 H 0.07469 0.04838 0.72288 0.0
H473 H 0.06735 0.97412 0.77902 0.0
H474 H 0.11865 0.05864 0.63221 0.0
H475 H 0.13269 0.06052 0.70322 0.0
H476 H 0.10857 0.07257 0.6902 0.0
H477 H 0.10918 0.96557 0.69302 0.0
H478 H 0.09447 0.95349 0.76345 0.0
H479 H 0.12196 0.97016 0.76468 0.0
C480 C 0.50247 0.1227 0.45711 0.0
C481 C 0.48062 0.12306 0.44352 0.0
C482 C 0.50813 0.10582 0.5026 0.0
C483 C 0.49159 0.08844 0.53443 0.0
C484 C 0.46957 0.08795 0.51906 0.0
C485 C 0.46434 0.10538 0.47434 0.0
C486 C 0.53181 0.10709 0.518 0.0
C487 C 0.45147 0.06941 0.55107 0.0
C488 C 0.50889 0.03461 0.62081 0.0
C489 C 0.50941 0.03957 0.68124 0.0
C490 C 0.50253 0.05003 0.57272 0.0
C491 C 0.49732 0.07129 0.58525 0.0
C492 C 0.49804 0.07643 0.64633 0.0
C493 C 0.5038 0.0603 0.69373 0.0
C494 C 0.50135 0.04356 0.50861 0.0
C495 C 0.49317 0.09917 0.66147 0.0
H496 H 0.51523 0.13592 0.43288 0.0
H497 H 0.4474 0.10557 0.46519 0.0
H498 H 0.53456 0.10991 0.56653 0.0
H499 H 0.53642 0.09021 0.51277 0.0
H500 H 0.54272 0.12154 0.48856 0.0
H501 H 0.43538 0.07019 0.53014 0.0
H502 H 0.4547 0.05158 0.54969 0.0
H503 H 0.45067 0.0718 0.59993 0.0
H504 H 0.51316 0.01845 0.61131 0.0
H505 H 0.50463 0.06429 0.74026 0.0
H506 H 0.5131 0.05676 0.47831 0.0
H507 H 0.48491 0.04375 0.48966 0.0
H508 H 0.50494 0.02588 0.50703 0.0
H509 H 0.50457 0.11435 0.6361 0.0
H510 H 0.49457 0.10054 0.71121 0.0
H511 H 0.4765 0.10063 0.64673 0.0
C512 C 0.3698 0.55488 0.67685 0.0
C513 C 0.35501 0.53831 0.64834 0.0
C514 C 0.38977 0.55014 0.69864 0.0
C515 C 0.3951 0.52835 0.69162 0.0
C516 C 0.37995 0.51126 0.66474 0.0
C517 C 0.3601 0.51644 0.64351 0.0
C518 C 0.4055 0.5688 0.72712 0.0
C519 C 0.385 0.48777 0.65661 0.0
C520 C 0.45446 0.52547 0.67828 0.0
C521 C 0.45846 0.51416 0.73624 0.0
C522 C 0.43399 0.53047 0.6636 0.0
C523 C 0.41711 0.52404 0.70806 0.0
C524 C 0.42117 0.51295 0.76712 0.0
C525 C 0.44183 0.50807 0.78049 0.0
C526 C 0.43034 0.54232 0.60011 0.0
C527 C 0.40362 0.50596 0.81579 0.0
H528 H 0.36608 0.5719 0.68031 0.0
H529 H 0.34859 0.50339 0.62255 0.0
H530 H 0.41113 0.56122 0.77193 0.0
H531 H 0.42005 0.57543 0.69715 0.0
H532 H 0.39818 0.58394 0.73405 0.0
H533 H 0.37097 0.47588 0.63827 0.0
H534 H 0.39897 0.49052 0.6246 0.0
H535 H 0.38976 0.4789 0.70096 0.0
H536 H 0.46731 0.53026 0.64403 0.0
H537 H 0.44491 0.49931 0.82537 0.0
H538 H 0.42458 0.55878 0.60297 0.0
H539 H 0.41752 0.53063 0.57689 0.0
H540 H 0.44532 0.5467 0.57136 0.0
H541 H 0.39692 0.52146 0.82301 0.0
H542 H 0.40967 0.49846 0.8602 0.0
H543 H 0.39003 0.49269 0.80058 0.0
C544 C 0.03758 0.40026 0.51213 0.0
C545 C 0.0589 0.39648 0.514 0.0
C546 C 0.0314 0.41627 0.5467 0.0
C547 C 0.04686 0.42873 0.58436 0.0
C548 C 0.06856 0.42557 0.585 0.0
C549 C 0.07433 0.40959 0.54962 0.0
C550 C 0.00815 0.41932 0.54434 0.0
C551 C 0.08554 0.43857 0.62439 0.0
C552 C 0.03492 0.48351 0.63931 0.0
C553 C 0.02651 0.47465 0.69826 0.0
C554 C 0.04169 0.4688 0.60185 0.0
C555 C 0.0402 0.44469 0.6241 0.0
C556 C 0.03211 0.43575 0.6841 0.0
C557 C 0.02525 0.45083 0.7204 0.0
C558 C 0.05014 0.47899 0.53813 0.0
C559 C 0.03049 0.4102 0.70974 0.0
H560 H 0.02547 0.39002 0.48546 0.0
H561 H 0.09091 0.40706 0.55065 0.0
H562 H 0.00038 0.41324 0.59006 0.0
H563 H 0.00764 0.43822 0.53256 0.0
H564 H 0.99841 0.4093 0.51034 0.0
H565 H 0.10184 0.43467 0.61833 0.0
H566 H 0.08674 0.45784 0.61332 0.0
H567 H 0.08071 0.43361 0.67332 0.0
H568 H 0.03593 0.50193 0.62201 0.0
H569 H 0.01876 0.44394 0.76595 0.0
H570 H 0.03969 0.46993 0.50382 0.0
H571 H 0.06677 0.47603 0.5323 0.0
H572 H 0.05057 0.49819 0.52807 0.0
H573 H 0.01933 0.3988 0.6814 0.0
H574 H 0.02447 0.40619 0.75783 0.0
H575 H 0.04665 0.40553 0.70798 0.0
C576 C 0.85424 0.98772 0.98792 0.0
C577 C 0.85408 0.99998 0.03815 0.0
C578 C 0.87388 0.98522 0.96324 0.0
C579 C 0.89378 0.99561 0.98882 0.0
C580 C 0.89366 0.00783 0.03992 0.0
C581 C 0.87378 0.00971 0.06428 0.0
C582 C 0.87337 0.97166 0.90956 0.0
C583 C 0.91456 0.01938 0.06804 0.0
C584 C 0.94643 0.97603 0.96612 0.0
C585 C 0.9569 0.99387 0.92128 0.0
C586 C 0.92539 0.97571 0.98645 0.0
C587 C 0.91481 0.99397 0.96208 0.0
C588 C 0.92503 0.01155 0.91501 0.0
C589 C 0.94593 0.01116 0.89468 0.0
C590 C 0.91485 0.95637 0.03568 0.0
C591 C 0.91435 0.03143 0.88832 0.0
H592 H 0.83896 0.98007 0.96798 0.0
H593 H 0.87365 0.01944 0.10265 0.0
H594 H 0.88155 0.98346 0.86936 0.0
H595 H 0.88242 0.9573 0.92065 0.0
H596 H 0.85653 0.96388 0.8966 0.0
H597 H 0.91164 0.02829 0.10749 0.0
H598 H 0.92434 0.00604 0.08388 0.0
H599 H 0.92441 0.03259 0.03313 0.0
H600 H 0.95489 0.96254 0.9863 0.0
H601 H 0.95407 0.02499 0.86004 0.0
H602 H 0.89815 0.94844 0.02214 0.0
H603 H 0.91348 0.96385 0.07866 0.0
H604 H 0.92427 0.94224 0.0452 0.0
H605 H 0.89779 0.02436 0.87209 0.0
H606 H 0.92386 0.04288 0.84955 0.0
H607 H 0.91258 0.04242 0.92433 0.0
C608 C 0.54177 0.87809 0.18224 0.0
C609 C 0.55932 0.88452 0.22087 0.0
C610 C 0.53463 0.89503 0.13997 0.0
C611 C 0.54502 0.91906 0.13718 0.0
C612 C 0.56221 0.92574 0.17785 0.0
C613 C 0.56935 0.90834 0.21868 0.0
C614 C 0.51656 0.8871 0.09663 0.0
C615 C 0.57338 0.95121 0.17733 0.0
C616 C 0.54289 0.96007 0.98863 0.0
C617 C 0.52568 0.9707 1.00022 0.0
C618 C 0.54919 0.94306 0.03254 0.0
C619 C 0.53842 0.93704 0.09014 0.0
C620 C 0.52128 0.94805 0.10245 0.0
C621 C 0.51495 0.96455 0.05706 0.0
C622 C 0.56728 0.93144 0.0171 0.0
C623 C 0.50972 0.94252 0.16371 0.0
H624 H 0.53424 0.85962 0.18323 0.0
H625 H 0.58293 0.91331 0.24858 0.0
H626 H 0.5032 0.89655 0.10027 0.0
H627 H 0.52274 0.89148 0.04876 0.0
H628 H 0.5098 0.86785 0.10576 0.0
H629 H 0.5853 0.95366 0.21493 0.0
H630 H 0.58203 0.95792 0.13307 0.0
H631 H 0.56118 0.96212 0.18167 0.0
H632 H 0.55142 0.965 0.94511 0.0
H633 H 0.50174 0.97287 0.06641 0.0
H634 H 0.56146 0.91204 0.02264 0.0
H635 H 0.58098 0.93527 0.04912 0.0
H636 H 0.57347 0.93751 0.96954 0.0
H637 H 0.50179 0.92359 0.17208 0.0
H638 H 0.49717 0.95313 0.16668 0.0
H639 H 0.52164 0.94593 0.20087 0.0
C640 C 0.66153 0.50133 0.99572 0.0
C641 C 0.66062 0.48102 0.03822 0.0
C642 C 0.64243 0.50794 0.97245 0.0
C643 C 0.62199 0.49367 0.99139 0.0
C644 C 0.62101 0.47296 0.03367 0.0
C645 C 0.64035 0.467 0.05698 0.0
C646 C 0.64412 0.53035 0.9283 0.0
C647 C 0.59954 0.45707 0.05425 0.0
C648 C 0.57093 0.51881 0.98243 0.0
C649 C 0.56115 0.51081 0.9295 0.0
C650 C 0.59111 0.51404 1.00192 0.0
C651 C 0.60154 0.50057 0.9682 0.0
C652 C 0.59192 0.49288 0.91392 0.0
C653 C 0.57192 0.49832 0.89488 0.0
C654 C 0.60101 0.52296 0.05938 0.0
C655 C 0.60238 0.47822 0.87712 0.0
H656 H 0.67721 0.51227 0.98152 0.0
H657 H 0.63965 0.45115 0.08929 0.0
H658 H 0.6359 0.52645 0.88481 0.0
H659 H 0.63571 0.54258 0.94779 0.0
H660 H 0.66125 0.53942 0.91789 0.0
H661 H 0.60163 0.44119 0.08568 0.0
H662 H 0.58972 0.46685 0.07805 0.0
H663 H 0.59015 0.45133 0.01392 0.0
H664 H 0.56267 0.52861 0.00909 0.0
H665 H 0.56439 0.4922 0.85393 0.0
H666 H 0.61794 0.53288 0.0501 0.0
H667 H 0.60171 0.50785 0.09512 0.0
H668 H 0.59161 0.53458 0.07782 0.0
H669 H 0.61922 0.48747 0.86392 0.0
H670 H 0.59317 0.47429 0.83496 0.0
H671 H 0.60342 0.46133 0.90549 0.0
C672 C 0.97024 0.59548 0.15696 0.0
C673 C 0.98719 0.61436 0.16653 0.0
C674 C 0.97376 0.57768 0.12395 0.0
C675 C 0.99471 0.57885 0.09983 0.0
C676 C 0.01204 0.59741 0.11121 0.0
C677 C 0.00809 0.61485 0.14459 0.0
C678 C 0.95492 0.55805 0.11324 0.0
C679 C 0.03465 0.59924 0.08663 0.0
C680 C 0.01034 0.52446 0.05324 0.0
C681 C 0.00825 0.52816 0.98943 0.0
C682 C 0.0055 0.54052 0.08984 0.0
C683 C 0.99857 0.5609 0.06188 0.0
C684 C 0.9962 0.56459 0.99739 0.0
C685 C 0.00105 0.54813 0.96189 0.0
C686 C 0.00813 0.53586 0.15836 0.0
C687 C 0.98896 0.58617 0.96581 0.0
H688 H 0.954 0.5951 0.1731 0.0
H689 H 0.02134 0.62921 0.15252 0.0
H690 H 0.95139 0.55896 0.06358 0.0
H691 H 0.95914 0.5407 0.12831 0.0
H692 H 0.93995 0.55893 0.1379 0.0
H693 H 0.04645 0.61446 0.10076 0.0
H694 H 0.04053 0.5829 0.10286 0.0
H695 H 0.03436 0.60114 0.03588 0.0
H696 H 0.01587 0.50898 0.07468 0.0
H697 H -0.00046 0.55107 0.91254 0.0
H698 H 0.99276 0.53604 0.18188 0.0
H699 H 0.02083 0.55001 0.17372 0.0
H700 H 0.01274 0.51867 0.17317 0.0
H701 H 0.97319 0.58744 0.98522 0.0
H702 H 0.98716 0.58601 0.91564 0.0
H703 H 0.00097 0.60223 0.97389 0.0
C704 C 0.03976 0.18875 0.66098 0.0
C705 C 0.05835 0.1916 0.62431 0.0
C706 C 0.0309 0.16693 0.69509 0.0
C707 C 0.04075 0.14756 0.69171 0.0
C708 C 0.06005 0.1506 0.65694 0.0
C709 C 0.06871 0.17265 0.62403 0.0
C710 C 0.01055 0.16437 0.73268 0.0
C711 C 0.07118 0.13036 0.6529 0.0
C712 C 0.03076 0.09232 0.8063 0.0
C713 C 0.01701 0.07635 0.7735 0.0
C714 C 0.03767 0.11596 0.78169 0.0
C715 C 0.03069 0.12381 0.7227 0.0
C716 C 0.01582 0.10814 0.69071 0.0
C717 C 0.00905 0.08454 0.7167 0.0
C718 C 0.0532 0.13224 0.8177 0.0
C719 C 0.00816 0.11592 0.62739 0.0
H720 H 0.03156 0.20327 0.66093 0.0
H721 H 0.0833 0.1749 0.59665 0.0
H722 H 0.99684 0.1527 0.71251 0.0
H723 H 0.01275 0.15601 0.78 0.0
H724 H 0.00602 0.18158 0.73481 0.0
H725 H 0.08631 0.13582 0.62482 0.0
H726 H 0.0753 0.12271 0.69938 0.0
H727 H 0.06001 0.11622 0.6324 0.0
H728 H 0.0369 0.08619 0.85035 0.0
H729 H 0.99845 0.0723 0.69108 0.0
H730 H 0.04548 0.1466 0.82836 0.0
H731 H 0.06809 0.14055 0.79032 0.0
H732 H 0.05808 0.12286 0.86126 0.0
H733 H 0.99514 0.10226 0.61108 0.0
H734 H 0.02205 0.1198 0.59472 0.0
H735 H 0.002 0.13235 0.6267 0.0
C736 C 0.34736 0.93754 0.77892 0.0
C737 C 0.34816 0.95213 0.72273 0.0
C738 C 0.36636 0.93694 0.81341 0.0
C739 C 0.38629 0.95161 0.79132 0.0
C740 C 0.38695 0.96654 0.73483 0.0
C741 C 0.36792 0.96645 0.70116 0.0
C742 C 0.36517 0.92053 0.87282 0.0
C743 C 0.40773 0.98291 0.71005 0.0
C744 C 0.43466 0.97722 0.87982 0.0
C745 C 0.45057 0.96706 0.85671 0.0
C746 C 0.41274 0.97014 0.86533 0.0
C747 C 0.40666 0.95245 0.82691 0.0
C748 C 0.42219 0.93991 0.81081 0.0
C749 C 0.44411 0.94743 0.82582 0.0
C750 C 0.39674 0.98381 0.88444 0.0
C751 C 0.41619 0.92045 0.77144 0.0
H752 H 0.33199 0.92646 0.79531 0.0
H753 H 0.36839 0.97797 0.65805 0.0
H754 H 0.37447 0.90673 0.86812 0.0
H755 H 0.37273 0.9302 0.91029 0.0
H756 H 0.34818 0.91181 0.88616 0.0
H757 H 0.4053 0.99356 0.66573 0.0
H758 H 0.41427 0.99512 0.74338 0.0
H759 H 0.4202 0.97262 0.7032 0.0
H760 H 0.43952 0.992 0.90532 0.0
H761 H 0.45629 0.93925 0.80869 0.0
H762 H 0.38064 0.97218 0.8959 0.0
H763 H 0.39449 0.99738 0.84586 0.0
H764 H 0.40263 0.99288 0.92452 0.0
H765 H 0.4 0.90931 0.78468 0.0
H766 H 0.42841 0.90913 0.77471 0.0
H767 H 0.41535 0.9283 0.72293 0.0
C768 C 0.43593 0.3122 0.49611 0.0
C769 C 0.42821 0.28913 0.52492 0.0
C770 C 0.44568 0.33014 0.52962 0.0
C771 C 0.44794 0.32495 0.59369 0.0
C772 C 0.43893 0.30215 0.62382 0.0
C773 C 0.42914 0.28446 0.58901 0.0
C774 C 0.45492 0.35431 0.49569 0.0
C775 C 0.44076 0.29608 0.6922 0.0
C776 C 0.49761 0.3652 0.64703 0.0
C777 C 0.48854 0.38335 0.66354 0.0
C778 C 0.48433 0.34501 0.62872 0.0
C779 C 0.46149 0.343 0.62716 0.0
C780 C 0.45219 0.36037 0.64877 0.0
C781 C 0.46586 0.3804 0.66661 0.0
C782 C 0.49485 0.32676 0.6064 0.0
C783 C 0.42793 0.35869 0.64875 0.0
H784 H 0.43571 0.31602 0.44664 0.0
H785 H 0.42298 0.26676 0.61174 0.0
H786 H 0.4492 0.36803 0.51706 0.0
H787 H 0.47292 0.35798 0.49841 0.0
H788 H 0.4503 0.35593 0.44664 0.0
H789 H 0.42983 0.27906 0.7097 0.0
H790 H 0.45773 0.29469 0.70371 0.0
H791 H 0.43686 0.31011 0.71637 0.0
H792 H 0.51513 0.36742 0.64481 0.0
H793 H 0.45882 0.39422 0.68083 0.0
H794 H 0.49318 0.32775 0.55596 0.0
H795 H 0.48664 0.30879 0.62677 0.0
H796 H 0.51241 0.32939 0.61766 0.0
H797 H 0.42248 0.36292 0.60113 0.0
H798 H 0.42315 0.37115 0.67696 0.0
H799 H 0.41923 0.34056 0.6662 0.0
C800 C 0.15543 0.58369 0.64705 0.0
C801 C 0.17419 0.59564 0.67352 0.0
C802 C 0.13549 0.57784 0.67825 0.0
C803 C 0.13413 0.58443 0.73725 0.0
C804 C 0.15268 0.59788 0.76266 0.0
C805 C 0.17265 0.60302 0.73083 0.0
C806 C 0.11626 0.56314 0.64969 0.0
C807 C 0.15175 0.60585 0.82458 0.0
C808 C 0.07519 0.57177 0.78754 0.0
C809 C 0.07287 0.54861 0.81707 0.0
C810 C 0.09568 0.58486 0.7664 0.0
C811 C 0.11405 0.57434 0.77433 0.0
C812 C 0.11206 0.55185 0.80919 0.0
C813 C 0.09155 0.53936 0.83044 0.0
C814 C 0.09735 0.60921 0.73164 0.0
C815 C 0.13118 0.53992 0.81916 0.0
H816 H 0.15659 0.5776 0.60321 0.0
H817 H 0.18712 0.61237 0.75127 0.0
H818 H 0.11166 0.54557 0.67766 0.0
H819 H 0.10201 0.57156 0.64873 0.0
H820 H 0.11974 0.56056 0.6022 0.0
H821 H 0.1654 0.62079 0.83056 0.0
H822 H 0.13616 0.61123 0.83129 0.0
H823 H 0.1529 0.59108 0.8609 0.0
H824 H 0.06091 0.57924 0.7779 0.0
H825 H 0.09006 0.5217 0.85458 0.0
H826 H 0.09807 0.60834 0.6818 0.0
H827 H 0.11243 0.62123 0.74386 0.0
H828 H 0.08314 0.61677 0.74077 0.0
H829 H 0.13585 0.53514 0.77503 0.0
H830 H 0.12743 0.52364 0.85281 0.0
H831 H 0.14544 0.55199 0.83556 0.0
C832 C 0.9914 0.81551 0.99925 0.0
C833 C 0.9697 0.81054 0.01948 0.0
C834 C 0.00103 0.83784 0.96926 0.0
C835 C 0.98869 0.85556 0.95993 0.0
C836 C 0.96643 0.85023 0.97686 0.0
C837 C 0.95718 0.82773 0.00637 0.0
C838 C 0.02461 0.84277 0.95 0.0
C839 C 0.95265 0.86861 0.9663 0.0
C840 C 0.01454 0.92001 0.95691 0.0
C841 C 0.01204 0.92852 0.89535 0.0
C842 C 0.00799 0.89593 0.97816 0.0
C843 C 0.99922 0.88014 0.93639 0.0
C844 C 0.99849 0.88848 0.8733 0.0
C845 C 0.0046 0.91268 0.85363 0.0
C846 C 0.00901 0.88764 0.04587 0.0
C847 C 0.99002 0.87227 0.82675 0.0
H848 H 0.00122 0.80235 0.00964 0.0
H849 H 0.94031 0.82379 0.02101 0.0
H850 H 0.02657 0.85119 0.90164 0.0
H851 H 0.03438 0.85528 0.97844 0.0
H852 H 0.03129 0.82651 0.95493 0.0
H853 H 0.93542 0.86137 0.9802 0.0
H854 H 0.95925 0.88331 0.99273 0.0
H855 H 0.95318 0.87608 0.91719 0.0
H856 H 0.02022 0.93231 0.98916 0.0
H857 H 0.00289 0.91928 0.80574 0.0
H858 H 0.01701 0.87235 0.05391 0.0
H859 H 0.99226 0.88175 0.06494 0.0
H860 H 0.01796 0.90173 0.07135 0.0
H861 H 0.99329 0.85438 0.83993 0.0
H862 H 0.9975 0.87951 0.78111 0.0
H863 H 0.97218 0.87063 0.82269 0.0
C864 C 0.68557 0.08783 0.89802 0.0
C865 C 0.68529 0.07913 0.96061 0.0
C866 C 0.66618 0.08591 0.86445 0.0
C867 C 0.64627 0.07457 0.89412 0.0
C868 C 0.64582 0.06716 0.95801 0.0
C869 C 0.66528 0.06962 0.99037 0.0
C870 C 0.66727 0.0947 0.79679 0.0
C871 C 0.62497 0.05483 0.99164 0.0
C872 C 0.58845 0.06967 0.84117 0.0
C873 C 0.58359 0.04621 0.82946 0.0
C874 C 0.60972 0.08046 0.85533 0.0
C875 C 0.62626 0.0673 0.85873 0.0
C876 C 0.62189 0.0446 0.84021 0.0
C877 C 0.60062 0.03439 0.82542 0.0
C878 C 0.61401 0.1051 0.87216 0.0
C879 C 0.63911 0.03002 0.84246 0.0
H880 H 0.70098 0.09538 0.87488 0.0
H881 H 0.66489 0.06248 0.03845 0.0
H882 H 0.66804 0.07993 0.77099 0.0
H883 H 0.65266 0.10165 0.78148 0.0
H884 H 0.68198 0.10873 0.78486 0.0
H885 H 0.62727 0.05145 0.04191 0.0
H886 H 0.61236 0.06553 0.98279 0.0
H887 H 0.6187 0.0377 0.97481 0.0
H888 H 0.57549 0.07918 0.84293 0.0
H889 H 0.59715 0.01646 0.8149 0.0
H890 H 0.63018 0.1152 0.85493 0.0
H891 H 0.61398 0.10422 0.92274 0.0
H892 H 0.60136 0.11477 0.85361 0.0
H893 H 0.6544 0.04059 0.82066 0.0
H894 H 0.63388 0.01412 0.81926 0.0
H895 H 0.64273 0.02424 0.89095 0.0
C896 C 0.59983 0.69721 0.10218 0.0
C897 C 0.59387 0.71884 0.10465 0.0
C898 C 0.58638 0.67948 0.07405 0.0
C899 C 0.56669 0.68366 0.04713 0.0
C900 C 0.56183 0.70628 0.04348 0.0
C901 C 0.57541 0.72357 0.07258 0.0
C902 C 0.59227 0.65564 0.07815 0.0
C903 C 0.54121 0.71158 0.01409 0.0
C904 C 0.53271 0.63738 0.9602 0.0
C905 C 0.51778 0.6248 0.00556 0.0
C906 C 0.5487 0.65672 0.97263 0.0
C907 C 0.54974 0.66358 0.03183 0.0
C908 C 0.53452 0.65114 0.07752 0.0
C909 C 0.51871 0.63193 0.06376 0.0
C910 C 0.56452 0.66967 0.92267 0.0
C911 C 0.53511 0.65791 0.14132 0.0
H912 H 0.61432 0.6936 0.12559 0.0
H913 H 0.57049 0.74012 0.07432 0.0
H914 H 0.58157 0.64304 0.1125 0.0
H915 H 0.58968 0.64871 0.03365 0.0
H916 H 0.60943 0.65625 0.09204 0.0
H917 H 0.54167 0.7308 0.00555 0.0
H918 H 0.53835 0.7043 0.97009 0.0
H919 H 0.52718 0.70311 0.04476 0.0
H920 H 0.5323 0.63166 0.91543 0.0
H921 H 0.50711 0.62237 0.09875 0.0
H922 H 0.58148 0.67126 0.93904 0.0
H923 H 0.56176 0.6878 0.91 0.0
H924 H 0.5628 0.66077 0.88098 0.0
H925 H 0.5511 0.65687 0.16244 0.0
H926 H 0.52215 0.64637 0.17153 0.0
H927 H 0.53317 0.67638 0.13926 0.0
C928 C 0.85434 0.44964 0.95971 0.0
C929 C 0.84024 0.4276 0.97015 0.0
C930 C 0.87542 0.45196 0.93722 0.0
C931 C 0.88237 0.43177 0.92323 0.0
C932 C 0.86782 0.40958 0.93102 0.0
C933 C 0.84697 0.40766 0.95566 0.0
C934 C 0.89052 0.47591 0.93076 0.0
C935 C 0.87439 0.38787 0.91453 0.0
C936 C 0.93326 0.45131 0.82626 0.0
C937 C 0.94933 0.45083 0.87105 0.0
C938 C 0.91125 0.44266 0.84141 0.0
C939 C 0.90524 0.43419 0.9032 0.0
C940 C 0.92156 0.43203 0.94762 0.0
C941 C 0.94352 0.44009 0.9307 0.0
C942 C 0.89439 0.44446 0.7923 0.0
C943 C 0.91588 0.4236 0.01426 0.0
H944 H 0.84915 0.46496 0.97183 0.0
H945 H 0.83598 0.39062 0.96401 0.0
H946 H 0.90514 0.4751 0.95932 0.0
H947 H 0.89612 0.48134 0.88259 0.0
H948 H 0.88265 0.48968 0.94476 0.0
H949 H 0.86037 0.37272 0.91575 0.0
H950 H 0.88186 0.39151 0.86811 0.0
H951 H 0.88678 0.38276 0.94712 0.0
H952 H 0.93784 0.4595 0.77994 0.0
H953 H 0.95597 0.43996 0.96537 0.0
H954 H 0.88661 0.45943 0.79738 0.0
H955 H 0.88143 0.42825 0.79688 0.0
H956 H 0.90164 0.44738 0.74562 0.0
H957 H 0.9094 0.43726 0.03388 0.0
H958 H 0.93021 0.42013 0.04136 0.0
H959 H 0.90304 0.40732 0.01935 0.0
C960 C 0.04164 0.21931 0.12823 0.0
C961 C 0.06091 0.23196 0.1511 0.0
C962 C 0.04116 0.19813 0.10459 0.0
C963 C 0.06056 0.18967 0.1018 0.0
C964 C 0.08036 0.20322 0.12028 0.0
C965 C 0.08026 0.22399 0.14536 0.0
C966 C 0.01965 0.18413 0.0859 0.0
C967 C 0.10151 0.19516 0.11652 0.0
C968 C 0.05631 0.12348 0.11255 0.0
C969 C 0.05755 0.12048 0.05092 0.0
C970 C 0.05717 0.14589 0.1296 0.0
C971 C 0.05986 0.16586 0.08397 0.0
C972 C 0.06162 0.16294 0.02169 0.0
C973 C 0.06018 0.14024 0.00589 0.0
C974 C 0.0548 0.14814 0.19641 0.0
C975 C 0.06507 0.18378 0.9718 0.0
H976 H 0.02666 0.22549 0.13083 0.0
H977 H 0.09527 0.23325 0.16334 0.0
H978 H 0.02079 0.17974 0.0389 0.0
H979 H 0.01542 0.16725 0.11702 0.0
H980 H 0.00626 0.19374 0.08751 0.0
H981 H 0.11578 0.20909 0.12492 0.0
H982 H 0.10146 0.17951 0.15112 0.0
H983 H 0.10344 0.18987 0.07086 0.0
H984 H 0.05408 0.10817 0.14731 0.0
H985 H 0.0613 0.13793 0.95827 0.0
H986 H 0.04071 0.15625 0.20283 0.0
H987 H 0.06946 0.1599 0.21194 0.0
H988 H 0.05242 0.13086 0.22605 0.0
H989 H 0.05129 0.1929 0.97121 0.0
H990 H 0.06662 0.17856 0.92577 0.0
H991 H 0.07999 0.19667 0.98102 0.0
C992 C 0.32372 0.03898 0.18913 0.0
C993 C 0.32708 0.02308 0.24028 0.0
C994 C 0.34002 0.04768 0.14408 0.0
C995 C 0.36005 0.04022 0.15044 0.0
C996 C 0.36359 0.02443 0.20234 0.0
C997 C 0.34717 0.01621 0.24662 0.0
C998 C 0.33578 0.06465 0.08955 0.0
C999 C 0.38472 0.01602 0.21105 0.0
C1000 C 0.39716 0.03872 0.01909 0.0
C1001 C 0.41499 0.0567 0.02858 0.0
C1002 C 0.37841 0.0342 0.05572 0.0
C1003 C 0.37736 0.04817 0.10264 0.0
C1004 C 0.39455 0.06757 0.10911 0.0
C1005 C 0.41323 0.07157 0.07209 0.0
C1006 C 0.36048 0.01334 0.0472 0.0
C1007 C 0.39394 0.08305 0.15811 0.0
H1008 H 0.30826 0.04439 0.18392 0.0
H1009 H 0.35019 0.00449 0.28682 0.0
H1010 H 0.3487 0.0809 0.08542 0.0
H1011 H 0.33627 0.05666 0.04697 0.0
H1012 H 0.31977 0.06957 0.09276 0.0
H1013 H 0.38486 1.00374 0.25409 0.0
H1014 H 0.38758 0.0069 0.17202 0.0
H1015 H 0.39849 0.03128 0.21194 0.0
H1016 H 0.39822 0.02753 0.98446 0.0
H1017 H 0.42693 0.08549 0.07972 0.0
H1018 H 0.3444 0.01828 0.04675 0.0
H1019 H 0.36044 0.99919 0.08621 0.0
H1020 H 0.36252 0.00613 0.00413 0.0
H1021 H 0.3778 0.08777 0.15977 0.0
H1022 H 0.40664 0.0995 0.15064 0.0
H1023 H 0.39664 0.07331 0.20344 0.0
C1024 C 0.48729 0.32993 0.04894 0.0
C1025 C 0.46653 0.3156 0.06068 0.0
C1026 C 0.49001 0.35263 0.01595 0.0
C1027 C 0.47157 0.36114 0.99275 0.0
C1028 C 0.45069 0.34632 1.00124 0.0
C1029 C 0.44839 0.32385 0.03553 0.0
C1030 C 0.51258 0.36787 0.00811 0.0
C1031 C 0.43067 0.35453 0.97607 0.0
C1032 C 0.47732 0.4277 0.97146 0.0
C1033 C 0.483 0.43376 0.90936 0.0
C1034 C 0.47308 0.40407 0.99882 0.0
C1035 C 0.47414 0.38602 0.96293 0.0
C1036 C 0.47884 0.39197 0.89951 0.0
C1037 C 0.48344 0.41577 0.87366 0.0
C1038 C 0.46839 0.39851 0.06674 0.0
C1039 C 0.47965 0.3733 0.85922 0.0
H1040 H 0.50148 0.32361 0.06678 0.0
H1041 H 0.43224 0.31317 0.04466 0.0
H1042 H 0.51622 0.37414 0.95891 0.0
H1043 H 0.51354 0.38366 0.03144 0.0
H1044 H 0.5253 0.35839 0.02719 0.0
H1045 H 0.41598 0.34009 0.98083 0.0
H1046 H 0.42769 0.36885 1.00072 0.0
H1047 H 0.43311 0.36184 0.92696 0.0
H1048 H 0.47709 0.4415 0.99938 0.0
H1049 H 0.48767 0.42029 0.82544 0.0
H1050 H 0.48141 0.39048 0.08991 0.0
H1051 H 0.45287 0.38548 0.07554 0.0
H1052 H 0.46737 0.41443 0.08774 0.0
H1053 H 0.4938 0.36515 0.8718 0.0
H1054 H 0.4811 0.38059 0.80989 0.0
H1055 H 0.46484 0.3591 0.86619 0.0
C1056 C 0.21476 0.51022 0.21278 0.0
C1057 C 0.20651 0.52225 0.25467 0.0
C1058 C 0.20122 0.49928 0.16893 0.0
C1059 C 0.17896 0.50048 0.16692 0.0
C1060 C 0.17053 0.51233 0.20959 0.0
C1061 C 0.18434 0.52291 0.253 0.0
C1062 C 0.21073 0.48667 0.12439 0.0
C1063 C 0.14689 0.51404 0.20914 0.0
C1064 C 0.14423 0.49606 0.02526 0.0
C1065 C 0.13023 0.47408 0.04057 0.0
C1066 C 0.1612 0.50426 0.06412 0.0
C1067 C 0.16433 0.49006 0.1195 0.0
C1068 C 0.15132 0.4671 0.13287 0.0
C1069 C 0.13437 0.45938 0.09324 0.0
C1070 C 0.17471 0.52881 0.04796 0.0
C1071 C 0.15427 0.45133 0.19117 0.0
H1072 H 0.23188 0.50968 0.21365 0.0
H1073 H 0.17767 0.5316 0.28616 0.0
H1074 H 0.2014 0.46829 0.12638 0.0
H1075 H 0.20943 0.49547 0.07702 0.0
H1076 H 0.22808 0.48634 0.13383 0.0
H1077 H 0.14289 0.52376 0.24573 0.0
H1078 H 0.14283 0.52314 0.16426 0.0
H1079 H 0.13636 0.49615 0.21531 0.0
H1080 H 0.14137 0.5073 0.98391 0.0
H1081 H 0.12359 0.4424 0.10543 0.0
H1082 H 0.19224 0.5288 0.054 0.0
H1083 H 0.17039 0.54047 0.07925 0.0
H1084 H 0.17205 0.53641 1.00012 0.0
H1085 H 0.17173 0.45128 0.19904 0.0
H1086 H 0.14528 0.43292 0.19033 0.0
H1087 H 0.14822 0.45812 0.23059 0.0
C1088 C 0.97204 0.79246 0.49431 0.0
C1089 C 0.95269 0.77529 0.49953 0.0
C1090 C 0.974 0.81326 0.52088 0.0
C1091 C 0.95623 0.81699 0.55386 0.0
C1092 C 0.93702 0.79924 0.56177 0.0
C1093 C 0.93544 0.77867 0.53431 0.0
C1094 C 0.99475 0.83175 0.51105 0.0
C1095 C 0.91781 0.80237 0.5973 0.0
C1096 C 0.96772 0.86587 0.6549 0.0
C1097 C 0.96141 0.88464 0.6173 0.0
C1098 C 0.96572 0.84365 0.63554 0.0
C1099 C 0.95736 0.84004 0.57677 0.0
C1100 C 0.95065 0.85874 0.53884 0.0
C1101 C 0.95266 0.88072 0.55963 0.0
C1102 C 0.97295 0.82418 0.6776 0.0
C1103 C 0.94164 0.85566 0.47581 0.0
H1104 H 0.98532 0.79022 0.46671 0.0
H1105 H 0.92049 0.76541 0.53887 0.0
H1106 H 0.99138 0.84774 0.48268 0.0
H1107 H 0.00112 0.83699 0.55548 0.0
H1108 H 0.00755 0.82554 0.48781 0.0
H1109 H 0.9048 0.78618 0.60361 0.0
H1110 H 0.92303 0.80727 0.64297 0.0
H1111 H 0.91091 0.81696 0.57276 0.0
H1112 H 0.9747 0.86864 0.69912 0.0
H1113 H 0.94729 0.89485 0.53055 0.0
H1114 H 0.98688 0.81916 0.65663 0.0
H1115 H 0.95964 0.80829 0.6841 0.0
H1116 H 0.97792 0.82941 0.72319 0.0
H1117 H 0.95396 0.851 0.44714 0.0
H1118 H 0.93687 0.87182 0.45229 0.0
H1119 H 0.92721 0.84095 0.47902 0.0
C1120 C 0.6754 0.95055 0.40303 0.0
C1121 C 0.69547 0.96567 0.41019 0.0
C1122 C 0.66 0.94421 0.45069 0.0
C1123 C 0.66479 0.95328 0.50681 0.0
C1124 C 0.68577 0.96681 0.5161 0.0
C1125 C 0.70092 0.97284 0.46755 0.0
C1126 C 0.63794 0.92956 0.43893 0.0
C1127 C 0.69157 0.97668 0.57538 0.0
C1128 C 0.61737 0.96849 0.58427 0.0
C1129 C 0.61202 0.94977 0.63191 0.0
C1130 C 0.6346 0.96984 0.54386 0.0
C1131 C 0.64688 0.95198 0.55106 0.0
C1132 C 0.6416 0.93296 0.599 0.0
C1133 C 0.62414 0.93203 0.63882 0.0
C1134 C 0.63951 0.99032 0.49298 0.0
C1135 C 0.65437 0.91366 0.6081 0.0
H1136 H 0.67129 0.94473 0.35886 0.0
H1137 H 0.71639 0.98458 0.47317 0.0
H1138 H 0.63247 0.91585 0.4785 0.0
H1139 H 0.62588 0.94105 0.43274 0.0
H1140 H 0.63795 0.92088 0.3972 0.0
H1141 H 0.70936 0.98334 0.57918 0.0
H1142 H 0.68328 0.99147 0.57789 0.0
H1143 H 0.68596 0.96313 0.61521 0.0
H1144 H 0.60782 0.98202 0.57798 0.0
H1145 H 0.62014 0.91759 0.67582 0.0
H1146 H 0.63775 0.98374 0.44792 0.0
H1147 H 0.65656 0.99999 0.49622 0.0
H1148 H 0.6286 1.00289 0.4943 0.0
H1149 H 0.65337 0.90478 0.56654 0.0
H1150 H 0.64838 0.90025 0.64801 0.0
H1151 H 0.67178 0.9213 0.61499 0.0
C1152 C 0.58069 0.68804 0.64508 0.0
C1153 C 0.56808 0.69481 0.59531 0.0
C1154 C 0.57479 0.66573 0.68017 0.0
C1155 C 0.55609 0.64963 0.66429 0.0
C1156 C 0.54303 0.65661 0.61498 0.0
C1157 C 0.54911 0.67916 0.5814 0.0
C1158 C 0.58888 0.65915 0.73317 0.0
C1159 C 0.52305 0.63995 0.59625 0.0
C1160 C 0.55227 0.58368 0.70652 0.0
C1161 C 0.53731 0.57821 0.75531 0.0
C1162 C 0.55889 0.60694 0.67737 0.0
C1163 C 0.55048 0.62522 0.69774 0.0
C1164 C 0.53591 0.61993 0.7482 0.0
C1165 C 0.5295 0.59654 0.77634 0.0
C1166 C 0.57434 0.61183 0.62341 0.0
C1167 C 0.52672 0.63893 0.77159 0.0
H1168 H 0.59534 0.70014 0.65604 0.0
H1169 H 0.53949 0.68417 0.54241 0.0
H1170 H 0.57882 0.65251 0.77516 0.0
H1171 H 0.59663 0.64473 0.72309 0.0
H1172 H 0.60184 0.67426 0.74261 0.0
H1173 H 0.51426 0.64834 0.55818 0.0
H1174 H 0.52777 0.62433 0.58152 0.0
H1175 H 0.51174 0.63354 0.63577 0.0
H1176 H 0.55836 0.56969 0.68983 0.0
H1177 H 0.51808 0.59259 0.81438 0.0
H1178 H 0.5887 0.62566 0.63131 0.0
H1179 H 0.56618 0.61856 0.5817 0.0
H1180 H 0.58003 0.59586 0.61461 0.0
H1181 H 0.54012 0.65256 0.78618 0.0
H1182 H 0.51535 0.6319 0.81075 0.0
H1183 H 0.51793 0.64779 0.7345 0.0
C1184 C 0.80251 0.48178 0.47799 0.0
C1185 C 0.80981 0.4719 0.42988 0.0
C1186 C 0.817 0.49089 0.52244 0.0
C1187 C 0.83926 0.49008 0.51862 0.0
C1188 C 0.84666 0.48001 0.47042 0.0
C1189 C 0.83191 0.47117 0.42665 0.0
C1190 C 0.80855 0.50153 0.57318 0.0
C1191 C 0.87027 0.47879 0.46457 0.0
C1192 C 0.88469 0.53122 0.5894 0.0
C1193 C 0.89054 0.51612 0.63894 0.0
C1194 C 0.8671 0.5234 0.55192 0.0
C1195 C 0.85513 0.49992 0.56419 0.0
C1196 C 0.86016 0.48507 0.61627 0.0
C1197 C 0.87777 0.49337 0.65304 0.0
C1198 C 0.8622 0.53984 0.49698 0.0
C1199 C 0.8478 0.45994 0.63116 0.0
H1200 H 0.78546 0.48231 0.48103 0.0
H1201 H 0.83785 0.46411 0.38892 0.0
H1202 H 0.81217 0.49229 0.61832 0.0
H1203 H 0.8169 0.52026 0.57143 0.0
H1204 H 0.79074 0.50056 0.57016 0.0
H1205 H 0.8733 0.46995 0.42509 0.0
H1206 H 0.88054 0.49681 0.45883 0.0
H1207 H 0.8756 0.46906 0.50694 0.0
H1208 H 0.89454 0.54877 0.57793 0.0
H1209 H 0.88195 0.48177 0.69195 0.0
H1210 H 0.84453 0.53958 0.49443 0.0
H1211 H 0.86691 0.53385 0.45455 0.0
H1212 H 0.87113 0.55825 0.49807 0.0
H1213 H 0.83003 0.45917 0.63005 0.0
H1214 H 0.85208 0.4516 0.67682 0.0
H1215 H 0.85153 0.44943 0.59608 0.0
loop_
_geom_bond_atom_site_label_1
_geom_bond_atom_site_label_2
_geom_bond_distance
_geom_bond_site_symmetry_2
_ccdc_geom_bond_type
C0 C1 1.384 . S
C0 H13 0.947 . S
C0 C35 1.382 . S
C1 C0 1.384 . S
C1 C2 1.378 . S
C2 C1 1.378 . S
C2 C3 1.378 . S
C2 H14 0.952 . S
C3 C2 1.378 . S
C3 H15 0.950 . S
C3 C34 1.383 . S
H4 C23 0.947 . S
H5 C24 0.946 . S
H6 C26 0.953 . S
H7 C27 0.945 . S
H8 C29 0.952 . S
H9 C30 0.949 . S
H10 C32 0.950 . S
H11 C33 0.948 1_554 S
H12 C35 0.951 . S
H13 C0 0.947 . S
H14 C2 0.952 . S
H15 C3 0.950 . S
N16 C19 1.382 . S
N16 C21 1.363 . S
N17 C19 1.371 . S
N17 C20 1.372 . S
N18 C20 1.361 . S
N18 C21 1.377 . S
C19 N16 1.382 . S
C19 N17 1.371 . S
C19 C22 1.480 . S
C20 N17 1.372 . S
C20 N18 1.361 . S
C20 C28 1.457 1_554 S
C21 N16 1.363 . S
C21 N18 1.377 . S
C21 C34 1.479 . S
C22 C19 1.480 . S
C22 C23 1.383 . S
C22 C27 1.385 1_554 S
C23 H4 0.947 . S
C23 C22 1.383 . S
C23 C24 1.388 . S
C24 H5 0.946 . S
C24 C23 1.388 . S
C24 C25 1.384 . S
C25 C24 1.384 . S
C25 C26 1.377 1_554 S
C26 H6 0.953 . S
C26 C25 1.377 1_556 S
C26 C27 1.369 . S
C27 H7 0.945 . S
C27 C22 1.385 1_556 S
C27 C26 1.369 . S
C28 C20 1.457 1_556 S
C28 C29 1.372 . S
C28 C33 1.364 . S
C29 H8 0.952 . S
C29 C28 1.372 . S
C29 C30 1.389 . S
C30 H9 0.949 . S
C30 C29 1.389 . S
C30 C31 1.387 . S
C31 C30 1.387 . S
C31 C32 1.372 . S
C32 H10 0.950 . S
C32 C31 1.372 . S
C32 C33 1.379 . S
C33 H11 0.948 1_556 S
C33 C28 1.364 . S
C33 C32 1.379 . S
C34 C3 1.383 . S
C34 C21 1.479 . S
C34 C35 1.398 . S
C35 C0 1.382 . S
C35 H12 0.951 . S
C35 C34 1.398 . S
C36 C37 1.384 . S
C36 H49 0.947 . S
C36 C71 1.382 . S
C37 C36 1.384 . S
C37 C38 1.378 . S
C38 C37 1.378 . S
C38 C39 1.378 . S
C38 H50 0.952 . S
C39 C38 1.378 . S
C39 H51 0.950 . S
C39 C70 1.383 . S
H40 C59 0.947 . S
H41 C60 0.946 . S
H42 C62 0.953 . S
H43 C63 0.945 . S
H44 C65 0.952 . S
H45 C66 0.949 . S
H46 C68 0.950 . S
H47 C69 0.948 1_554 S
H48 C71 0.951 . S
H49 C36 0.947 . S
H50 C38 0.952 . S
H51 C39 0.950 . S
N52 C55 1.382 . S
N52 C57 1.363 . S
N53 C55 1.371 . S
N53 C56 1.372 . S
N54 C56 1.361 . S
N54 C57 1.377 . S
C55 N52 1.382 . S
C55 N53 1.371 . S
C55 C58 1.480 . S
C56 N53 1.372 . S
C56 N54 1.361 . S
C56 C64 1.457 1_554 S
C57 N52 1.363 . S
C57 N54 1.377 . S
C57 C70 1.479 . S
C58 C55 1.480 . S
C58 C59 1.383 . S
C58 C63 1.385 1_554 S
C59 H40 0.947 . S
C59 C58 1.383 . S
C59 C60 1.388 . S
C60 H41 0.946 . S
C60 C59 1.388 . S
C60 C61 1.384 . S
C61 C60 1.384 . S
C61 C62 1.377 1_554 S
C62 H42 0.953 . S
C62 C61 1.377 1_556 S
C62 C63 1.369 . S
C63 H43 0.945 . S
C63 C58 1.385 1_556 S
C63 C62 1.369 . S
C64 C56 1.457 1_556 S
C64 C65 1.372 . S
C64 C69 1.364 . S
C65 H44 0.952 . S
C65 C64 1.372 . S
C65 C66 1.389 . S
C66 H45 0.949 . S
C66 C65 1.389 . S
C66 C67 1.387 . S
C67 C66 1.387 . S
C67 C68 1.372 . S
C68 H46 0.950 . S
C68 C67 1.372 . S
C68 C69 1.379 . S
C69 H47 0.948 1_556 S
C69 C64 1.364 . S
C69 C68 1.379 . S
C70 C39 1.383 . S
C70 C57 1.479 . S
C70 C71 1.398 . S
C71 C36 1.382 . S
C71 H48 0.951 . S
C71 C70 1.398 . S
C72 C73 1.384 1_565 S
C72 H85 0.946 . S
C72 C107 1.383 1_565 S
C73 C72 1.384 1_545 S
C73 C74 1.378 . S
C74 C73 1.378 . S
C74 C75 1.378 . S
C74 H86 0.952 . S
C75 C74 1.378 . S
C75 H87 0.950 . S
C75 C106 1.383 . S
H76 C95 0.947 . S
H77 C96 0.958 . S
H78 C98 0.953 . S
H79 C99 0.945 . S
H80 C101 0.944 1_565 S
H81 C102 0.965 . S
H82 C104 0.950 . S
H83 C105 0.948 . S
H84 C107 0.951 1_565 S
H85 C72 0.946 . S
H86 C74 0.952 . S
H87 C75 0.950 . S
N88 C91 1.382 1_554 S
N88 C93 1.363 . S
N89 C91 1.371 . S
N89 C92 1.372 . S
N90 C92 1.361 1_554 S
N90 C93 1.377 . S
C91 N88 1.382 1_556 S
C91 N89 1.371 . S
C91 C94 1.480 . S
C92 N89 1.372 . S
C92 N90 1.361 1_556 S
C92 C100 1.457 . S
C93 N88 1.363 . S
C93 N90 1.377 . S
C93 C106 1.479 . S
C94 C91 1.480 . S
C94 C95 1.383 1_556 S
C94 C99 1.385 . S
C95 H76 0.947 . S
C95 C94 1.383 1_554 S
C95 C96 1.381 1_545 S
C96 H77 0.958 . S
C96 C95 1.381 1_565 S
C96 C97 1.381 1_564 S
C97 C96 1.381 1_546 S
C97 C98 1.377 . S
C98 H78 0.953 . S
C98 C97 1.377 . S
C98 C99 1.369 . S
C99 H79 0.945 . S
C99 C94 1.385 . S
C99 C98 1.369 . S
C100 C92 1.457 . S
C100 C101 1.381 . S
C100 C105 1.364 . S
C101 H80 0.944 1_545 S
C101 C100 1.381 . S
C101 C102 1.389 1_545 S
C102 H81 0.965 . S
C102 C101 1.389 1_565 S
C102 C103 1.372 1_565 S
C103 C102 1.372 1_545 S
C103 C104 1.372 . S
C104 H82 0.950 . S
C104 C103 1.372 . S
C104 C105 1.379 . S
C105 H83 0.948 . S
C105 C100 1.364 . S
C105 C104 1.379 . S
C106 C75 1.383 . S
C106 C93 1.479 . S
C106 C107 1.398 . S
C107 C72 1.383 1_545 S
C107 H84 0.951 1_545 S
C107 C106 1.398 . S
C108 C109 1.384 . S
C108 H121 0.947 . S
C108 C143 1.382 . S
C109 C108 1.384 . S
C109 C110 1.378 . S
C110 C109 1.378 . S
C110 C111 1.378 . S
C110 H122 0.952 . S
C111 C110 1.378 . S
C111 H123 0.950 . S
C111 C142 1.383 . S
H112 C131 0.947 . S
H113 C132 0.946 . S
H114 C134 0.953 . S
H115 C135 0.945 . S
H116 C137 0.952 . S
H117 C138 0.949 . S
H118 C140 0.950 . S
H119 C141 0.948 . S
H120 C143 0.951 . S
H121 C108 0.947 . S
H122 C110 0.952 . S
H123 C111 0.950 . S
N124 C127 1.382 . S
N124 C129 1.363 . S
N125 C127 1.371 . S
N125 C128 1.372 . S
N126 C128 1.361 . S
N126 C129 1.377 . S
C127 N124 1.382 . S
C127 N125 1.371 . S
C127 C130 1.480 . S
C128 N125 1.372 . S
C128 N126 1.361 . S
C128 C136 1.457 . S
C129 N124 1.363 . S
C129 N126 1.377 . S
C129 C142 1.479 . S
C130 C127 1.480 . S
C130 C131 1.383 . S
C130 C135 1.385 . S
C131 H112 0.947 . S
C131 C130 1.383 . S
C131 C132 1.388 . S
C132 H113 0.946 . S
C132 C131 1.388 . S
C132 C133 1.384 . S
C133 C132 1.384 . S
C133 C134 1.377 . S
C134 H114 0.953 . S
C134 C133 1.377 . S
C134 C135 1.369 . S
C135 H115 0.945 . S
C135 C130 1.385 . S
C135 C134 1.369 . S
C136 C128 1.457 . S
C136 C137 1.372 . S
C136 C141 1.364 . S
C137 H116 0.952 . S
C137 C136 1.372 . S
C137 C138 1.389 . S
C138 H117 0.949 . S
C138 C137 1.389 . S
C138 C139 1.387 . S
C139 C138 1.387 . S
C139 C140 1.372 . S
C140 H118 0.950 . S
C140 C139 1.372 . S
C140 C141 1.379 . S
C141 H119 0.948 . S
C141 C136 1.364 . S
C141 C140 1.379 . S
C142 C111 1.383 . S
C142 C129 1.479 . S
C142 C143 1.398 . S
C143 C108 1.382 . S
C143 H120 0.951 . S
C143 C142 1.398 . S
C144 C145 1.384 . S
C144 H157 0.947 . S
C144 C179 1.382 . S
C145 C144 1.384 . S
C145 C146 1.378 . S
C146 C145 1.378 . S
C146 C147 1.378 . S
C146 H158 0.952 . S
C147 C146 1.378 . S
C147 H159 0.950 . S
C147 C178 1.383 . S
H148 C167 0.947 . S
H149 C168 0.946 . S
H150 C170 0.953 . S
H151 C171 0.945 . S
H152 C173 0.952 . S
H153 C174 0.949 . S
H154 C176 0.950 . S
H155 C177 0.948 . S
H156 C179 0.951 . S
H157 C144 0.947 . S
H158 C146 0.952 . S
H159 C147 0.950 . S
N160 C163 1.382 . S
N160 C165 1.363 . S
N161 C163 1.371 . S
N161 C164 1.372 . S
N162 C164 1.361 . S
N162 C165 1.377 . S
C163 N160 1.382 . S
C163 N161 1.371 . S
C163 C166 1.480 . S
C164 N161 1.372 . S
C164 N162 1.361 . S
C164 C172 1.457 . S
C165 N160 1.363 . S
C165 N162 1.377 . S
C165 C178 1.479 . S
C166 C163 1.480 . S
C166 C167 1.383 . S
C166 C171 1.385 . S
C167 H148 0.947 . S
C167 C166 1.383 . S
C167 C168 1.388 . S
C168 H149 0.946 . S
C168 C167 1.388 . S
C168 C169 1.384 . S
C169 C168 1.384 . S
C169 C170 1.377 . S
C170 H150 0.953 . S
C170 C169 1.377 . S
C170 C171 1.369 . S
C171 H151 0.945 . S
C171 C166 1.385 . S
C171 C170 1.369 . S
C172 C164 1.457 . S
C172 C173 1.372 . S
C172 C177 1.364 . S
C173 H152 0.952 . S
C173 C172 1.372 . S
C173 C174 1.389 . S
C174 H153 0.949 . S
C174 C173 1.389 . S
C174 C175 1.387 . S
C175 C174 1.387 . S
C175 C176 1.372 . S
C176 H154 0.950 . S
C176 C175 1.372 . S
C176 C177 1.379 . S
C177 H155 0.948 . S
C177 C172 1.364 . S
C177 C176 1.379 . S
C178 C147 1.383 . S
C178 C165 1.479 . S
C178 C179 1.398 . S
C179 C144 1.382 . S
C179 H156 0.951 . S
C179 C178 1.398 . S
C180 C181 1.384 . S
C180 H193 0.947 . S
C180 C215 1.382 . S
C181 C180 1.384 . S
C181 C182 1.378 . S
C182 C181 1.378 . S
C182 C183 1.378 . S
C182 H194 0.952 . S
C183 C182 1.378 . S
C183 H195 0.950 . S
C183 C214 1.383 . S
H184 C203 0.947 . S
H185 C204 0.946 . S
H186 C206 0.953 . S
H187 C207 0.945 . S
H188 C209 0.952 . S
H189 C210 0.949 . S
H190 C212 0.950 . S
H191 C213 0.948 . S
H192 C215 0.951 . S
H193 C180 0.947 . S
H194 C182 0.952 . S
H195 C183 0.950 . S
N196 C199 1.382 . S
N196 C201 1.363 . S
N197 C199 1.371 . S
N197 C200 1.372 . S
N198 C200 1.361 . S
N198 C201 1.377 . S
C199 N196 1.382 . S
C199 N197 1.371 . S
C199 C202 1.480 . S
C200 N197 1.372 . S
C200 N198 1.361 . S
C200 C208 1.457 . S
C201 N196 1.363 . S
C201 N198 1.377 . S
C201 C214 1.479 . S
C202 C199 1.480 . S
C202 C203 1.383 . S
C202 C207 1.385 . S
C203 H184 0.947 . S
C203 C202 1.383 . S
C203 C204 1.388 . S
C204 H185 0.946 . S
C204 C203 1.388 . S
C204 C205 1.384 . S
C205 C204 1.384 . S
C205 C206 1.377 . S
C206 H186 0.953 . S
C206 C205 1.377 . S
C206 C207 1.369 . S
C207 H187 0.945 . S
C207 C202 1.385 . S
C207 C206 1.369 . S
C208 C200 1.457 . S
C208 C209 1.372 . S
C208 C213 1.364 . S
C209 H188 0.952 . S
C209 C208 1.372 . S
C209 C210 1.389 . S
C210 H189 0.949 . S
C210 C209 1.389 . S
C210 C211 1.387 . S
C211 C210 1.387 . S
C211 C212 1.372 . S
C212 H190 0.950 . S
C212 C211 1.372 . S
C212 C213 1.379 . S
C213 H191 0.948 . S
C213 C208 1.364 . S
C213 C212 1.379 . S
C214 C183 1.383 . S
C214 C201 1.479 . S
C214 C215 1.398 . S
C215 C180 1.382 . S
C215 H192 0.951 . S
C215 C214 1.398 . S
C216 C217 1.383 . S
C216 H229 0.949 1_545 S
C216 C251 1.378 . S
C217 C216 1.383 . S
C217 C218 1.378 . S
C218 C217 1.378 . S
C218 C219 1.378 . S
C218 H230 0.952 . S
C219 C218 1.378 . S
C219 H231 0.950 . S
C219 C250 1.383 . S
H220 C239 0.947 . S
H221 C240 0.949 . S
H222 C242 0.953 . S
H223 C243 0.945 . S
H224 C245 0.955 1_565 S
H225 C246 0.948 . S
H226 C248 0.950 . S
H227 C249 0.948 . S
H228 C251 0.950 1_565 S
H229 C216 0.949 1_565 S
H230 C218 0.952 . S
H231 C219 0.950 . S
N232 C235 1.382 . S
N232 C237 1.363 . S
N233 C235 1.371 . S
N233 C236 1.372 . S
N234 C236 1.361 . S
N234 C237 1.377 . S
C235 N232 1.382 . S
C235 N233 1.371 . S
C235 C238 1.480 . S
C236 N233 1.372 . S
C236 N234 1.361 . S
C236 C244 1.457 . S
C237 N232 1.363 . S
C237 N234 1.377 . S
C237 C250 1.479 . S
C238 C235 1.480 . S
C238 C239 1.383 . S
C238 C243 1.385 . S
C239 H220 0.947 . S
C239 C238 1.383 . S
C239 C240 1.391 1_545 S
C240 H221 0.949 . S
C240 C239 1.391 1_565 S
C240 C241 1.379 1_565 S
C241 C240 1.379 1_545 S
C241 C242 1.377 . S
C242 H222 0.953 . S
C242 C241 1.377 . S
C242 C243 1.369 . S
C243 H223 0.945 . S
C243 C238 1.385 . S
C243 C242 1.369 . S
C244 C236 1.457 . S
C244 C245 1.372 . S
C244 C249 1.364 . S
C245 H224 0.955 1_545 S
C245 C244 1.372 . S
C245 C246 1.384 1_545 S
C246 H225 0.948 . S
C246 C245 1.384 1_565 S
C246 C247 1.391 1_565 S
C247 C246 1.391 1_545 S
C247 C248 1.372 . S
C248 H226 0.950 . S
C248 C247 1.372 . S
C248 C249 1.379 . S
C249 H227 0.948 . S
C249 C244 1.364 . S
C249 C248 1.379 . S
C250 C219 1.383 . S
C250 C237 1.479 . S
C250 C251 1.402 . S
C251 C216 1.378 . S
C251 H228 0.950 1_545 S
C251 C250 1.402 . S
C252 C253 1.384 . S
C252 H265 0.947 . S
C252 C287 1.382 . S
C253 C252 1.384 . S
C253 C254 1.378 . S
C254 C253 1.378 . S
C254 C255 1.378 . S
C254 H266 0.952 . S
C255 C254 1.378 . S
C255 H267 0.950 . S
C255 C286 1.383 . S
H256 C275 0.947 . S
H257 C276 0.946 . S
H258 C278 0.953 . S
H259 C279 0.945 . S
H260 C281 0.952 . S
H261 C282 0.949 . S
H262 C284 0.950 . S
H263 C285 0.948 . S
H264 C287 0.951 . S
H265 C252 0.947 . S
H266 C254 0.952 . S
H267 C255 0.950 . S
N268 C271 1.382 . S
N268 C273 1.363 . S
N269 C271 1.371 . S
N269 C272 1.372 . S
N270 C272 1.361 . S
N270 C273 1.377 . S
C271 N268 1.382 . S
C271 N269 1.371 . S
C271 C274 1.480 . S
C272 N269 1.372 . S
C272 N270 1.361 . S
C272 C280 1.457 . S
C273 N268 1.363 . S
C273 N270 1.377 . S
C273 C286 1.479 . S
C274 C271 1.480 . S
C274 C275 1.383 . S
C274 C279 1.385 . S
C275 H256 0.947 . S
C275 C274 1.383 . S
C275 C276 1.388 . S
C276 H257 0.946 . S
C276 C275 1.388 . S
C276 C277 1.384 . S
C277 C276 1.384 . S
C277 C278 1.377 . S
C278 H258 0.953 . S
C278 C277 1.377 . S
C278 C279 1.369 . S
C279 H259 0.945 . S
C279 C274 1.385 . S
C279 C278 1.369 . S
C280 C272 1.457 . S
C280 C281 1.372 . S
C280 C285 1.364 . S
C281 H260 0.952 . S
C281 C280 1.372 . S
C281 C282 1.389 . S
C282 H261 0.949 . S
C282 C281 1.389 . S
C282 C283 1.387 . S
C283 C282 1.387 . S
C283 C284 1.372 . S
C284 H262 0.950 . S
C284 C283 1.372 . S
C284 C285 1.379 . S
C285 H263 0.948 . S
C285 C280 1.364 . S
C285 C284 1.379 . S
C286 C255 1.383 . S
C286 C273 1.479 . S
C286 C287 1.398 . S
C287 C252 1.382 . S
C287 H264 0.951 . S
C287 C286 1.398 . S
Nd288 C290 2.836 1_455 S
Nd288 O308 2.500 1_455 S
Nd288 O309 2.492 . S
Nd288 O310 2.487 . S
Nd288 O311 2.682 1_565 S
Nd288 O312 2.410 . S
Nd288 O317 2.431 1_455 S
Nd288 O319 2.424 1_565 S
Nd289 C299 2.836 . S
Nd289 O311 2.414 . S
Nd289 O313 2.424 1_545 S
Nd289 O314 2.500 . S
Nd289 O315 2.492 . S
Nd289 O316 2.487 1_455 S
Nd289 O317 2.678 1_445 S
Nd289 O318 2.410 . S
C290 Nd288 2.836 1_655 S
C290 C291 1.498 . S
C290 O308 1.258 . S
C290 O309 1.239 1_655 S
C291 C290 1.498 . S
C291 C292 1.366 . S
C291 C296 1.407 . S
C292 C291 1.366 . S
C292 C293 1.392 . S
C292 H320 0.930 . S
C293 C292 1.392 . S
C293 C294 1.398 . S
C293 H321 0.929 . S
C294 C293 1.398 . S
C294 C295 1.352 . S
C295 C294 1.352 . S
C295 C296 1.384 . S
C295 H322 0.930 . S
C296 C291 1.407 . S
C296 C295 1.384 . S
C296 H323 0.929 1_655 S
C297 O310 1.241 . S
C297 O311 1.273 1_565 S
C298 O312 1.251 1_655 S
C298 O313 1.268 1_655 S
C299 Nd289 2.836 . S
C299 C300 1.498 1_556 S
C299 O314 1.258 . S
C299 O315 1.239 . S
C300 C299 1.498 1_554 S
C300 C301 1.364 1_554 S
C300 C305 1.407 . S
C301 C300 1.364 1_556 S
C301 C302 1.383 1_556 S
C301 H324 0.942 . S
C302 C301 1.383 1_554 S
C302 C303 1.398 . S
C302 H325 0.929 . S
C303 C302 1.398 . S
C303 C304 1.352 . S
C304 C303 1.352 . S
C304 C305 1.384 . S
C304 H326 0.930 . S
C305 C300 1.407 . S
C305 C304 1.384 . S
C305 H327 0.929 . S
C306 O316 1.241 . S
C306 O317 1.249 1_545 S
C307 O318 1.251 . S
C307 O319 1.268 . S
O308 Nd288 2.500 1_655 S
O308 C290 1.258 . S
O309 Nd288 2.492 . S
O309 C290 1.239 1_455 S
O310 Nd288 2.487 . S
O310 C297 1.241 . S
O311 Nd288 2.682 1_545 S
O311 Nd289 2.414 . S
O311 C297 1.273 1_545 S
O312 Nd288 2.410 . S
O312 C298 1.251 1_455 S
O313 Nd289 2.424 1_565 S
O313 C298 1.268 1_455 S
O314 Nd289 2.500 . S
O314 C299 1.258 . S
O315 Nd289 2.492 . S
O315 C299 1.239 . S
O316 Nd289 2.487 1_655 S
O316 C306 1.241 . S
O317 Nd288 2.431 1_655 S
O317 Nd289 2.678 1_665 S
O317 C306 1.249 1_565 S
O318 Nd289 2.410 . S
O318 C307 1.251 . S
O319 Nd288 2.424 1_545 S
O319 C307 1.268 . S
H320 C292 0.930 . S
H321 C293 0.929 . S
H322 C295 0.930 . S
H323 C296 0.929 1_455 S
H324 C301 0.942 . S
H325 C302 0.929 . S
H326 C304 0.930 . S
H327 C305 0.929 . S
Nd328 C330 2.836 . S
Nd328 O348 2.500 . S
Nd328 O349 2.492 . S
Nd328 O350 2.487 1_565 S
Nd328 O351 2.682 1_565 S
Nd328 O352 2.410 1_565 S
Nd328 O357 2.414 . S
Nd328 O359 2.424 . S
Nd329 C339 2.836 . S
Nd329 O351 2.414 . S
Nd329 O353 2.424 . S
Nd329 O354 2.500 . S
Nd329 O355 2.492 1_556 S
Nd329 O356 2.487 1_545 S
Nd329 O357 2.682 1_545 S
Nd329 O358 2.410 1_545 S
C330 Nd328 2.836 . S
C330 C331 1.498 . S
C330 O348 1.258 . S
C330 O349 1.239 . S
C331 C330 1.498 . S
C331 C332 1.366 . S
C331 C336 1.407 . S
C332 C331 1.366 . S
C332 C333 1.392 . S
C332 H360 0.930 . S
C333 C332 1.392 . S
C333 C334 1.398 . S
C333 H361 0.929 . S
C334 C333 1.398 . S
C334 C335 1.352 . S
C335 C334 1.352 . S
C335 C336 1.384 . S
C335 H362 0.930 . S
C336 C331 1.407 . S
C336 C335 1.384 . S
C336 H363 0.929 1_565 S
C337 O350 1.241 . S
C337 O351 1.273 . S
C338 O352 1.251 . S
C338 O353 1.268 . S
C339 Nd329 2.836 . S
C339 C340 1.498 1_556 S
C339 O354 1.258 . S
C339 O355 1.239 1_556 S
C340 C339 1.498 1_554 S
C340 C341 1.366 1_554 S
C340 C345 1.407 . S
C341 C340 1.366 1_556 S
C341 C342 1.392 1_556 S
C341 H364 0.930 . S
C342 C341 1.392 1_554 S
C342 C343 1.398 . S
C342 H365 0.929 . S
C343 C342 1.398 . S
C343 C344 1.352 . S
C344 C343 1.352 . S
C344 C345 1.384 . S
C344 H366 0.930 . S
C345 C340 1.407 . S
C345 C344 1.384 . S
C345 H367 0.929 1_545 S
C346 O356 1.241 . S
C346 O357 1.273 . S
C347 O358 1.251 . S
C347 O359 1.268 . S
O348 Nd328 2.500 . S
O348 C330 1.258 . S
O349 Nd328 2.492 . S
O349 C330 1.239 . S
O350 Nd328 2.487 1_545 S
O350 C337 1.241 . S
O351 Nd328 2.682 1_545 S
O351 Nd329 2.414 . S
O351 C337 1.273 . S
O352 Nd328 2.410 1_545 S
O352 C338 1.251 . S
O353 Nd329 2.424 . S
O353 C338 1.268 . S
O354 Nd329 2.500 . S
O354 C339 1.258 . S
O355 Nd329 2.492 1_554 S
O355 C339 1.239 1_554 S
O356 Nd329 2.487 1_565 S
O356 C346 1.241 . S
O357 Nd328 2.414 . S
O357 Nd329 2.682 1_565 S
O357 C346 1.273 . S
O358 Nd329 2.410 1_565 S
O358 C347 1.251 . S
O359 Nd328 2.424 . S
O359 C347 1.268 . S
H360 C332 0.930 . S
H361 C333 0.929 . S
H362 C335 0.930 . S
H363 C336 0.929 1_545 S
H364 C341 0.930 . S
H365 C342 0.929 . S
H366 C344 0.930 . S
H367 C345 0.929 1_565 S
Nd368 C370 2.836 . S
Nd368 O388 2.500 . S
Nd368 O389 2.492 . S
Nd368 O390 2.487 . S
Nd368 O391 2.682 . S
Nd368 O392 2.410 . S
Nd368 O397 2.414 . S
Nd368 O399 2.424 . S
Nd369 C379 2.836 . S
Nd369 O391 2.414 . S
Nd369 O393 2.424 . S
Nd369 O394 2.500 . S
Nd369 O395 2.492 . S
Nd369 O396 2.487 . S
Nd369 O397 2.682 . S
Nd369 O398 2.410 . S
C370 Nd368 2.836 . S
C370 C371 1.498 . S
C370 O388 1.258 . S
C370 O389 1.239 . S
C371 C370 1.498 . S
C371 C372 1.366 . S
C371 C376 1.398 1_556 S
C372 C371 1.366 . S
C372 C373 1.392 . S
C372 H400 0.930 . S
C373 C372 1.392 . S
C373 C374 1.398 . S
C373 H401 0.929 . S
C374 C373 1.398 . S
C374 C375 1.352 1_556 S
C375 C374 1.352 1_554 S
C375 C376 1.391 . S
C375 H402 0.930 . S
C376 C371 1.398 1_554 S
C376 C375 1.391 . S
C376 H403 0.932 . S
C377 O390 1.241 . S
C377 O391 1.273 . S
C378 O392 1.251 . S
C378 O393 1.268 . S
C379 Nd369 2.836 . S
C379 C380 1.498 . S
C379 O394 1.258 . S
C379 O395 1.239 . S
C380 C379 1.498 . S
C380 C381 1.366 . S
C380 C385 1.407 . S
C381 C380 1.366 . S
C381 C382 1.392 . S
C381 H404 0.930 . S
C382 C381 1.392 . S
C382 C383 1.398 . S
C382 H405 0.929 . S
C383 C382 1.398 . S
C383 C384 1.352 . S
C384 C383 1.352 . S
C384 C385 1.384 . S
C384 H406 0.930 . S
C385 C380 1.407 . S
C385 C384 1.384 . S
C385 H407 0.929 . S
C386 O396 1.241 . S
C386 O397 1.273 . S
C387 O398 1.251 . S
C387 O399 1.268 . S
O388 Nd368 2.500 . S
O388 C370 1.258 . S
O389 Nd368 2.492 . S
O389 C370 1.239 . S
O390 Nd368 2.487 . S
O390 C377 1.241 . S
O391 Nd368 2.682 . S
O391 Nd369 2.414 . S
O391 C377 1.273 . S
O392 Nd368 2.410 . S
O392 C378 1.251 . S
O393 Nd369 2.424 . S
O393 C378 1.268 . S
O394 Nd369 2.500 . S
O394 C379 1.258 . S
O395 Nd369 2.492 . S
O395 C379 1.239 . S
O396 Nd369 2.487 . S
O396 C386 1.241 . S
O397 Nd368 2.414 . S
O397 Nd369 2.682 . S
O397 C386 1.273 . S
O398 Nd369 2.410 . S
O398 C387 1.251 . S
O399 Nd368 2.424 . S
O399 C387 1.268 . S
H400 C372 0.930 . S
H401 C373 0.929 . S
H402 C375 0.930 . S
H403 C376 0.932 . S
H404 C381 0.930 . S
H405 C382 0.929 . S
H406 C384 0.930 . S
H407 C385 0.929 . S
Nd408 C410 2.836 1_455 S
Nd408 O428 2.500 1_455 S
Nd408 O429 2.492 1_455 S
Nd408 O430 2.487 . S
Nd408 O431 2.682 . S
Nd408 O432 2.410 1_455 S
Nd408 O437 2.427 . S
Nd408 O439 2.424 . S
Nd409 C419 2.836 . S
Nd409 O431 2.414 . S
Nd409 O433 2.424 1_455 S
Nd409 O434 2.500 . S
Nd409 O435 2.492 . S
Nd409 O436 2.487 . S
Nd409 O437 2.712 . S
Nd409 O438 2.410 . S
C410 Nd408 2.836 1_655 S
C410 C411 1.498 . S
C410 O428 1.258 . S
C410 O429 1.239 . S
C411 C410 1.498 . S
C411 C412 1.366 . S
C411 C416 1.407 . S
C412 C411 1.366 . S
C412 C413 1.392 . S
C412 H440 0.930 . S
C413 C412 1.392 . S
C413 C414 1.398 . S
C413 H441 0.929 . S
C414 C413 1.398 . S
C414 C415 1.352 . S
C415 C414 1.352 . S
C415 C416 1.384 . S
C415 H442 0.930 . S
C416 C411 1.407 . S
C416 C415 1.384 . S
C416 H443 0.929 . S
C417 O430 1.241 . S
C417 O431 1.273 . S
C418 O432 1.251 . S
C418 O433 1.268 . S
C419 Nd409 2.836 . S
C419 C420 1.498 1_556 S
C419 O434 1.258 . S
C419 O435 1.239 . S
C420 C419 1.498 1_554 S
C420 C421 1.366 . S
C420 C425 1.407 . S
C421 C420 1.366 . S
C421 C422 1.392 . S
C421 H444 0.930 1_554 S
C422 C421 1.392 . S
C422 C423 1.398 . S
C422 H445 0.929 . S
C423 C422 1.398 . S
C423 C424 1.352 . S
C424 C423 1.352 . S
C424 C425 1.384 . S
C424 H446 0.930 . S
C425 C420 1.407 . S
C425 C424 1.384 . S
C425 H447 0.929 . S
C426 O436 1.238 1_655 S
C426 O437 1.261 1_655 S
C427 O438 1.251 . S
C427 O439 1.268 . S
O428 Nd408 2.500 1_655 S
O428 C410 1.258 . S
O429 Nd408 2.492 1_655 S
O429 C410 1.239 . S
O430 Nd408 2.487 . S
O430 C417 1.241 . S
O431 Nd408 2.682 . S
O431 Nd409 2.414 . S
O431 C417 1.273 . S
O432 Nd408 2.410 1_655 S
O432 C418 1.251 . S
O433 Nd409 2.424 1_655 S
O433 C418 1.268 . S
O434 Nd409 2.500 . S
O434 C419 1.258 . S
O435 Nd409 2.492 . S
O435 C419 1.239 . S
O436 Nd409 2.487 . S
O436 C426 1.238 1_455 S
O437 Nd408 2.427 . S
O437 Nd409 2.712 . S
O437 C426 1.261 1_455 S
O438 Nd409 2.410 . S
O438 C427 1.251 . S
O439 Nd408 2.424 . S
O439 C427 1.268 . S
H440 C412 0.930 . S
H441 C413 0.929 . S
H442 C415 0.930 . S
H443 C416 0.929 . S
H444 C421 0.930 1_556 S
H445 C422 0.929 . S
H446 C424 0.930 . S
H447 C425 0.929 . S
C448 C449 1.391 . S
C448 C450 1.394 . S
C448 H464 0.931 . S
C449 C448 1.391 . S
C449 C453 1.376 . S
C450 C448 1.394 . S
C450 C451 1.369 . S
C450 C454 1.531 . S
C451 C450 1.369 . S
C451 C452 1.410 . S
C451 C459 1.503 . S
C452 C451 1.410 . S
C452 C453 1.392 . S
C452 C455 1.511 . S
C453 C449 1.376 . S
C453 C452 1.392 . S
C453 H465 0.929 . S
C454 C450 1.531 . S
C454 H466 0.960 . S
C454 H467 0.962 1_565 S
C454 H468 0.960 . S
C455 C452 1.511 . S
C455 H469 0.961 . S
C455 H470 0.961 . S
C455 H471 0.961 . S
C456 C457 1.370 1_545 S
C456 C458 1.363 . S
C456 H472 0.931 . S
C457 C456 1.370 1_565 S
C457 C461 1.408 . S
C458 C456 1.363 . S
C458 C459 1.370 1_545 S
C458 C462 1.524 . S
C459 C451 1.503 . S
C459 C458 1.370 1_565 S
C459 C460 1.403 . S
C460 C459 1.403 . S
C460 C461 1.404 . S
C460 C463 1.539 . S
C461 C457 1.408 . S
C461 C460 1.404 . S
C461 H473 0.930 . S
C462 C458 1.524 . S
C462 H474 0.956 . S
C462 H475 0.961 . S
C462 H476 0.961 . S
C463 C460 1.539 . S
C463 H477 0.958 . S
C463 H478 0.961 . S
C463 H479 0.960 . S
H464 C448 0.931 . S
H465 C453 0.929 . S
H466 C454 0.960 . S
H467 C454 0.962 1_545 S
H468 C454 0.960 . S
H469 C455 0.961 . S
H470 C455 0.961 . S
H471 C455 0.961 . S
H472 C456 0.931 . S
H473 C461 0.930 . S
H474 C462 0.956 . S
H475 C462 0.961 . S
H476 C462 0.961 . S
H477 C463 0.958 . S
H478 C463 0.961 . S
H479 C463 0.960 . S
C480 C481 1.391 . S
C480 C482 1.394 . S
C480 H496 0.931 . S
C481 C480 1.391 . S
C481 C485 1.376 . S
C482 C480 1.394 . S
C482 C483 1.369 . S
C482 C486 1.531 . S
C483 C482 1.369 . S
C483 C484 1.410 . S
C483 C491 1.503 . S
C484 C483 1.410 . S
C484 C485 1.392 . S
C484 C487 1.511 . S
C485 C481 1.376 . S
C485 C484 1.392 . S
C485 H497 0.929 . S
C486 C482 1.531 . S
C486 H498 0.960 . S
C486 H499 0.962 . S
C486 H500 0.960 . S
C487 C484 1.511 . S
C487 H501 0.961 . S
C487 H502 0.961 . S
C487 H503 0.961 . S
C488 C489 1.370 . S
C488 C490 1.363 . S
C488 H504 0.931 . S
C489 C488 1.370 . S
C489 C493 1.408 . S
C490 C488 1.363 . S
C490 C491 1.370 . S
C490 C494 1.524 . S
C491 C483 1.503 . S
C491 C490 1.370 . S
C491 C492 1.403 . S
C492 C491 1.403 . S
C492 C493 1.404 . S
C492 C495 1.539 . S
C493 C489 1.408 . S
C493 C492 1.404 . S
C493 H505 0.930 . S
C494 C490 1.524 . S
C494 H506 0.956 . S
C494 H507 0.961 . S
C494 H508 0.961 . S
C495 C492 1.539 . S
C495 H509 0.958 . S
C495 H510 0.961 . S
C495 H511 0.960 . S
H496 C480 0.931 . S
H497 C485 0.929 . S
H498 C486 0.960 . S
H499 C486 0.962 . S
H500 C486 0.960 . S
H501 C487 0.961 . S
H502 C487 0.961 . S
H503 C487 0.961 . S
H504 C488 0.931 . S
H505 C493 0.930 . S
H506 C494 0.956 . S
H507 C494 0.961 . S
H508 C494 0.961 . S
H509 C495 0.958 . S
H510 C495 0.961 . S
H511 C495 0.960 . S
C512 C513 1.391 . S
C512 C514 1.394 . S
C512 H528 0.931 . S
C513 C512 1.391 . S
C513 C517 1.376 . S
C514 C512 1.394 . S
C514 C515 1.369 . S
C514 C518 1.531 . S
C515 C514 1.369 . S
C515 C516 1.410 . S
C515 C523 1.503 . S
C516 C515 1.410 . S
C516 C517 1.392 . S
C516 C519 1.511 . S
C517 C513 1.376 . S
C517 C516 1.392 . S
C517 H529 0.929 . S
C518 C514 1.531 . S
C518 H530 0.960 . S
C518 H531 0.962 . S
C518 H532 0.960 . S
C519 C516 1.511 . S
C519 H533 0.961 . S
C519 H534 0.961 . S
C519 H535 0.961 . S
C520 C521 1.370 . S
C520 C522 1.363 . S
C520 H536 0.931 . S
C521 C520 1.370 . S
C521 C525 1.408 . S
C522 C520 1.363 . S
C522 C523 1.370 . S
C522 C526 1.524 . S
C523 C515 1.503 . S
C523 C522 1.370 . S
C523 C524 1.403 . S
C524 C523 1.403 . S
C524 C525 1.404 . S
C524 C527 1.539 . S
C525 C521 1.408 . S
C525 C524 1.404 . S
C525 H537 0.930 . S
C526 C522 1.524 . S
C526 H538 0.956 . S
C526 H539 0.961 . S
C526 H540 0.961 . S
C527 C524 1.539 . S
C527 H541 0.958 . S
C527 H542 0.961 . S
C527 H543 0.960 . S
H528 C512 0.931 . S
H529 C517 0.929 . S
H530 C518 0.960 . S
H531 C518 0.962 . S
H532 C518 0.960 . S
H533 C519 0.961 . S
H534 C519 0.961 . S
H535 C519 0.961 . S
H536 C520 0.931 . S
H537 C525 0.930 . S
H538 C526 0.956 . S
H539 C526 0.961 . S
H540 C526 0.961 . S
H541 C527 0.958 . S
H542 C527 0.961 . S
H543 C527 0.960 . S
C544 C545 1.391 . S
C544 C546 1.394 . S
C544 H560 0.931 . S
C545 C544 1.391 . S
C545 C549 1.376 . S
C546 C544 1.394 . S
C546 C547 1.369 . S
C546 C550 1.531 . S
C547 C546 1.369 . S
C547 C548 1.410 . S
C547 C555 1.503 . S
C548 C547 1.410 . S
C548 C549 1.392 . S
C548 C551 1.511 . S
C549 C545 1.376 . S
C549 C548 1.392 . S
C549 H561 0.929 . S
C550 C546 1.531 . S
C550 H562 0.960 . S
C550 H563 0.962 . S
C550 H564 0.960 . S
C551 C548 1.511 . S
C551 H565 0.961 . S
C551 H566 0.961 . S
C551 H567 0.961 . S
C552 C553 1.370 . S
C552 C554 1.363 . S
C552 H568 0.931 . S
C553 C552 1.370 . S
C553 C557 1.408 . S
C554 C552 1.363 . S
C554 C555 1.370 . S
C554 C558 1.524 . S
C555 C547 1.503 . S
C555 C554 1.370 . S
C555 C556 1.403 . S
C556 C555 1.403 . S
C556 C557 1.404 . S
C556 C559 1.539 . S
C557 C553 1.408 . S
C557 C556 1.404 . S
C557 H569 0.930 . S
C558 C554 1.524 . S
C558 H570 0.956 . S
C558 H571 0.961 . S
C558 H572 0.961 . S
C559 C556 1.539 . S
C559 H573 0.958 . S
C559 H574 0.961 . S
C559 H575 0.960 . S
H560 C544 0.931 . S
H561 C549 0.929 . S
H562 C550 0.960 . S
H563 C550 0.962 . S
H564 C550 0.960 . S
H565 C551 0.961 . S
H566 C551 0.961 . S
H567 C551 0.961 . S
H568 C552 0.931 . S
H569 C557 0.930 . S
H570 C558 0.956 . S
H571 C558 0.961 . S
H572 C558 0.961 . S
H573 C559 0.958 . S
H574 C559 0.961 . S
H575 C559 0.960 . S
C576 C577 1.404 . S
C576 C578 1.387 . S
C576 H592 0.927 1_545 S
C577 C576 1.404 . S
C577 C581 1.376 . S
C578 C576 1.387 . S
C578 C579 1.369 . S
C578 C582 1.531 . S
C579 C578 1.369 . S
C579 C580 1.410 . S
C579 C587 1.503 . S
C580 C579 1.410 . S
C580 C581 1.392 . S
C580 C583 1.511 1_556 S
C581 C577 1.376 . S
C581 C580 1.392 . S
C581 H593 0.929 1_556 S
C582 C578 1.531 . S
C582 H594 0.960 . S
C582 H595 0.962 1_545 S
C582 H596 0.960 . S
C583 C580 1.511 1_554 S
C583 H597 0.961 . S
C583 H598 0.961 1_554 S
C583 H599 0.961 . S
C584 C585 1.370 1_565 S
C584 C586 1.363 . S
C584 H600 0.931 . S
C585 C584 1.370 1_545 S
C585 C589 1.408 . S
C586 C584 1.363 . S
C586 C587 1.370 1_565 S
C586 C590 1.524 . S
C587 C579 1.503 . S
C587 C586 1.370 1_545 S
C587 C588 1.403 . S
C588 C587 1.403 . S
C588 C589 1.404 . S
C588 C591 1.539 . S
C589 C585 1.408 . S
C589 C588 1.404 . S
C589 H601 0.930 . S
C590 C586 1.524 . S
C590 H602 0.956 . S
C590 H603 0.961 . S
C590 H604 0.961 . S
C591 C588 1.539 . S
C591 H605 0.958 . S
C591 H606 0.961 . S
C591 H607 0.960 . S
H592 C576 0.927 1_565 S
H593 C581 0.929 1_554 S
H594 C582 0.960 . S
H595 C582 0.962 1_565 S
H596 C582 0.960 . S
H597 C583 0.961 . S
H598 C583 0.961 1_556 S
H599 C583 0.961 . S
H600 C584 0.931 . S
H601 C589 0.930 . S
H602 C590 0.956 . S
H603 C590 0.961 . S
H604 C590 0.961 . S
H605 C591 0.958 . S
H606 C591 0.961 . S
H607 C591 0.960 . S
C608 C609 1.391 . S
C608 C610 1.394 . S
C608 H624 0.931 . S
C609 C608 1.391 . S
C609 C613 1.376 . S
C610 C608 1.394 . S
C610 C611 1.369 . S
C610 C614 1.531 . S
C611 C610 1.369 . S
C611 C612 1.410 . S
C611 C619 1.503 . S
C612 C611 1.410 . S
C612 C613 1.392 . S
C612 C615 1.511 . S
C613 C609 1.376 . S
C613 C612 1.392 . S
C613 H625 0.929 . S
C614 C610 1.531 . S
C614 H626 0.960 . S
C614 H627 0.962 . S
C614 H628 0.960 . S
C615 C612 1.511 . S
C615 H629 0.961 . S
C615 H630 0.961 . S
C615 H631 0.961 . S
C616 C617 1.370 . S
C616 C618 1.363 1_556 S
C616 H632 0.931 . S
C617 C616 1.370 . S
C617 C621 1.408 . S
C618 C616 1.363 1_554 S
C618 C619 1.370 . S
C618 C622 1.524 . S
C619 C611 1.503 . S
C619 C618 1.370 . S
C619 C620 1.403 . S
C620 C619 1.403 . S
C620 C621 1.404 1_554 S
C620 C623 1.539 . S
C621 C617 1.408 . S
C621 C620 1.404 1_556 S
C621 H633 0.930 . S
C622 C618 1.524 . S
C622 H634 0.956 . S
C622 H635 0.961 . S
C622 H636 0.961 . S
C623 C620 1.539 . S
C623 H637 0.958 . S
C623 H638 0.961 . S
C623 H639 0.960 . S
H624 C608 0.931 . S
H625 C613 0.929 . S
H626 C614 0.960 . S
H627 C614 0.962 . S
H628 C614 0.960 . S
H629 C615 0.961 . S
H630 C615 0.961 . S
H631 C615 0.961 . S
H632 C616 0.931 . S
H633 C621 0.930 . S
H634 C622 0.956 . S
H635 C622 0.961 . S
H636 C622 0.961 . S
H637 C623 0.958 . S
H638 C623 0.961 . S
H639 C623 0.960 . S
C640 C641 1.391 . S
C640 C642 1.394 . S
C640 H656 0.931 . S
C641 C640 1.391 . S
C641 C645 1.376 . S
C642 C640 1.394 . S
C642 C643 1.369 . S
C642 C646 1.531 . S
C643 C642 1.369 . S
C643 C644 1.410 . S
C643 C651 1.503 . S
C644 C643 1.410 . S
C644 C645 1.392 . S
C644 C647 1.511 . S
C645 C641 1.376 . S
C645 C644 1.392 . S
C645 H657 0.929 1_556 S
C646 C642 1.531 . S
C646 H658 0.960 . S
C646 H659 0.962 . S
C646 H660 0.960 . S
C647 C644 1.511 . S
C647 H661 0.961 . S
C647 H662 0.961 . S
C647 H663 0.961 . S
C648 C649 1.370 . S
C648 C650 1.363 . S
C648 H664 0.931 . S
C649 C648 1.370 . S
C649 C653 1.408 . S
C650 C648 1.363 . S
C650 C651 1.370 . S
C650 C654 1.524 1_556 S
C651 C643 1.503 . S
C651 C650 1.370 . S
C651 C652 1.403 . S
C652 C651 1.403 . S
C652 C653 1.404 . S
C652 C655 1.539 . S
C653 C649 1.408 . S
C653 C652 1.404 . S
C653 H665 0.930 . S
C654 C650 1.524 1_554 S
C654 H666 0.956 . S
C654 H667 0.961 . S
C654 H668 0.961 . S
C655 C652 1.539 . S
C655 H669 0.958 . S
C655 H670 0.961 . S
C655 H671 0.960 . S
H656 C640 0.931 . S
H657 C645 0.929 1_554 S
H658 C646 0.960 . S
H659 C646 0.962 . S
H660 C646 0.960 . S
H661 C647 0.961 . S
H662 C647 0.961 . S
H663 C647 0.961 . S
H664 C648 0.931 . S
H665 C653 0.930 . S
H666 C654 0.956 . S
H667 C654 0.961 . S
H668 C654 0.961 . S
H669 C655 0.958 . S
H670 C655 0.961 . S
H671 C655 0.960 . S
C672 C673 1.391 1_554 S
C672 C674 1.394 1_554 S
C672 H688 0.931 . S
C673 C672 1.391 1_556 S
C673 C677 1.376 . S
C674 C672 1.394 1_556 S
C674 C675 1.369 . S
C674 C678 1.531 . S
C675 C674 1.369 . S
C675 C676 1.410 . S
C675 C683 1.503 . S
C676 C675 1.410 . S
C676 C677 1.392 . S
C676 C679 1.511 . S
C677 C673 1.376 . S
C677 C676 1.392 . S
C677 H689 0.929 . S
C678 C674 1.531 . S
C678 H690 0.960 . S
C678 H691 0.962 1_556 S
C678 H692 0.960 . S
C679 C676 1.511 . S
C679 H693 0.961 . S
C679 H694 0.961 . S
C679 H695 0.961 . S
C680 C681 1.370 . S
C680 C682 1.363 . S
C680 H696 0.931 . S
C681 C680 1.370 . S
C681 C685 1.408 . S
C682 C680 1.363 . S
C682 C683 1.370 . S
C682 C686 1.524 1_556 S
C683 C675 1.503 . S
C683 C682 1.370 . S
C683 C684 1.403 . S
C684 C683 1.403 . S
C684 C685 1.404 . S
C684 C687 1.539 . S
C685 C681 1.408 . S
C685 C684 1.404 . S
C685 H697 0.930 . S
C686 C682 1.524 1_554 S
C686 H698 0.956 . S
C686 H699 0.961 . S
C686 H700 0.961 . S
C687 C684 1.539 . S
C687 H701 0.958 . S
C687 H702 0.961 . S
C687 H703 0.960 . S
H688 C672 0.931 . S
H689 C677 0.929 . S
H690 C678 0.960 . S
H691 C678 0.962 1_554 S
H692 C678 0.960 . S
H693 C679 0.961 . S
H694 C679 0.961 . S
H695 C679 0.961 . S
H696 C680 0.931 . S
H697 C685 0.930 . S
H698 C686 0.956 . S
H699 C686 0.961 . S
H700 C686 0.961 . S
H701 C687 0.958 . S
H702 C687 0.961 . S
H703 C687 0.960 . S
C704 C705 1.391 . S
C704 C706 1.394 . S
C704 H720 0.931 . S
C705 C704 1.391 . S
C705 C709 1.376 . S
C706 C704 1.394 . S
C706 C707 1.369 . S
C706 C710 1.531 . S
C707 C706 1.369 . S
C707 C708 1.410 . S
C707 C715 1.503 . S
C708 C707 1.410 . S
C708 C709 1.392 . S
C708 C711 1.511 . S
C709 C705 1.376 . S
C709 C708 1.392 . S
C709 H721 0.929 . S
C710 C706 1.531 . S
C710 H722 0.960 . S
C710 H723 0.962 . S
C710 H724 0.960 . S
C711 C708 1.511 . S
C711 H725 0.961 . S
C711 H726 0.961 . S
C711 H727 0.961 . S
C712 C713 1.370 . S
C712 C714 1.363 . S
C712 H728 0.931 . S
C713 C712 1.370 . S
C713 C717 1.408 . S
C714 C712 1.363 . S
C714 C715 1.370 . S
C714 C718 1.524 . S
C715 C707 1.503 . S
C715 C714 1.370 . S
C715 C716 1.403 . S
C716 C715 1.403 . S
C716 C717 1.404 . S
C716 C719 1.539 . S
C717 C713 1.408 . S
C717 C716 1.404 . S
C717 H729 0.930 . S
C718 C714 1.524 . S
C718 H730 0.956 . S
C718 H731 0.961 . S
C718 H732 0.961 . S
C719 C716 1.539 . S
C719 H733 0.958 . S
C719 H734 0.961 . S
C719 H735 0.960 . S
H720 C704 0.931 . S
H721 C709 0.929 . S
H722 C710 0.960 . S
H723 C710 0.962 . S
H724 C710 0.960 . S
H725 C711 0.961 . S
H726 C711 0.961 . S
H727 C711 0.961 . S
H728 C712 0.931 . S
H729 C717 0.930 . S
H730 C718 0.956 . S
H731 C718 0.961 . S
H732 C718 0.961 . S
H733 C719 0.958 . S
H734 C719 0.961 . S
H735 C719 0.960 . S
C736 C737 1.391 1_565 S
C736 C738 1.394 . S
C736 H752 0.931 . S
C737 C736 1.391 1_545 S
C737 C741 1.376 . S
C738 C736 1.394 . S
C738 C739 1.369 . S
C738 C742 1.531 . S
C739 C738 1.369 . S
C739 C740 1.410 1_565 S
C739 C747 1.503 . S
C740 C739 1.410 1_545 S
C740 C741 1.392 . S
C740 C743 1.511 . S
C741 C737 1.376 . S
C741 C740 1.392 . S
C741 H753 0.929 . S
C742 C738 1.531 . S
C742 H754 0.960 . S
C742 H755 0.962 . S
C742 H756 0.960 . S
C743 C740 1.511 . S
C743 H757 0.961 . S
C743 H758 0.961 . S
C743 H759 0.961 . S
C744 C745 1.370 . S
C744 C746 1.363 . S
C744 H760 0.931 . S
C745 C744 1.370 . S
C745 C749 1.408 1_565 S
C746 C744 1.363 . S
C746 C747 1.370 . S
C746 C750 1.524 . S
C747 C739 1.503 . S
C747 C746 1.370 . S
C747 C748 1.403 1_565 S
C748 C747 1.403 1_545 S
C748 C749 1.404 . S
C748 C751 1.539 . S
C749 C745 1.408 1_545 S
C749 C748 1.404 . S
C749 H761 0.930 . S
C750 C746 1.524 . S
C750 H762 0.956 . S
C750 H763 0.961 . S
C750 H764 0.961 . S
C751 C748 1.539 . S
C751 H765 0.958 . S
C751 H766 0.961 . S
C751 H767 0.960 . S
H752 C736 0.931 . S
H753 C741 0.929 . S
H754 C742 0.960 . S
H755 C742 0.962 . S
H756 C742 0.960 . S
H757 C743 0.961 . S
H758 C743 0.961 . S
H759 C743 0.961 . S
H760 C744 0.931 . S
H761 C749 0.930 . S
H762 C750 0.956 . S
H763 C750 0.961 . S
H764 C750 0.961 . S
H765 C751 0.958 . S
H766 C751 0.961 . S
H767 C751 0.960 . S
C768 C769 1.391 . S
C768 C770 1.394 . S
C768 H784 0.931 . S
C769 C768 1.391 . S
C769 C773 1.376 . S
C770 C768 1.394 . S
C770 C771 1.369 . S
C770 C774 1.531 . S
C771 C770 1.369 . S
C771 C772 1.410 . S
C771 C779 1.503 . S
C772 C771 1.410 . S
C772 C773 1.392 . S
C772 C775 1.511 . S
C773 C769 1.376 . S
C773 C772 1.392 . S
C773 H785 0.929 . S
C774 C770 1.531 . S
C774 H786 0.960 . S
C774 H787 0.962 . S
C774 H788 0.960 . S
C775 C772 1.511 . S
C775 H789 0.961 . S
C775 H790 0.961 . S
C775 H791 0.961 . S
C776 C777 1.370 . S
C776 C778 1.363 . S
C776 H792 0.931 . S
C777 C776 1.370 . S
C777 C781 1.408 . S
C778 C776 1.363 . S
C778 C779 1.370 . S
C778 C782 1.524 . S
C779 C771 1.503 . S
C779 C778 1.370 . S
C779 C780 1.403 . S
C780 C779 1.403 . S
C780 C781 1.404 . S
C780 C783 1.539 . S
C781 C777 1.408 . S
C781 C780 1.404 . S
C781 H793 0.930 . S
C782 C778 1.524 . S
C782 H794 0.956 . S
C782 H795 0.961 . S
C782 H796 0.961 . S
C783 C780 1.539 . S
C783 H797 0.958 . S
C783 H798 0.961 . S
C783 H799 0.960 . S
H784 C768 0.931 . S
H785 C773 0.929 . S
H786 C774 0.960 . S
H787 C774 0.962 . S
H788 C774 0.960 . S
H789 C775 0.961 . S
H790 C775 0.961 . S
H791 C775 0.961 . S
H792 C776 0.931 . S
H793 C781 0.930 . S
H794 C782 0.956 . S
H795 C782 0.961 . S
H796 C782 0.961 . S
H797 C783 0.958 . S
H798 C783 0.961 . S
H799 C783 0.960 . S
C800 C801 1.391 . S
C800 C802 1.394 . S
C800 H816 0.931 . S
C801 C800 1.391 . S
C801 C805 1.376 . S
C802 C800 1.394 . S
C802 C803 1.369 . S
C802 C806 1.531 . S
C803 C802 1.369 . S
C803 C804 1.410 . S
C803 C811 1.503 . S
C804 C803 1.410 . S
C804 C805 1.392 . S
C804 C807 1.511 . S
C805 C801 1.376 . S
C805 C804 1.392 . S
C805 H817 0.929 . S
C806 C802 1.531 . S
C806 H818 0.960 . S
C806 H819 0.962 . S
C806 H820 0.960 . S
C807 C804 1.511 . S
C807 H821 0.961 . S
C807 H822 0.961 . S
C807 H823 0.961 . S
C808 C809 1.370 . S
C808 C810 1.363 . S
C808 H824 0.931 . S
C809 C808 1.370 . S
C809 C813 1.408 . S
C810 C808 1.363 . S
C810 C811 1.370 . S
C810 C814 1.524 . S
C811 C803 1.503 . S
C811 C810 1.370 . S
C811 C812 1.403 . S
C812 C811 1.403 . S
C812 C813 1.404 . S
C812 C815 1.539 . S
C813 C809 1.408 . S
C813 C812 1.404 . S
C813 H825 0.930 . S
C814 C810 1.524 . S
C814 H826 0.956 . S
C814 H827 0.961 . S
C814 H828 0.961 . S
C815 C812 1.539 . S
C815 H829 0.958 . S
C815 H830 0.961 . S
C815 H831 0.960 . S
H816 C800 0.931 . S
H817 C805 0.929 . S
H818 C806 0.960 . S
H819 C806 0.962 . S
H820 C806 0.960 . S
H821 C807 0.961 . S
H822 C807 0.961 . S
H823 C807 0.961 . S
H824 C808 0.931 . S
H825 C813 0.930 . S
H826 C814 0.956 . S
H827 C814 0.961 . S
H828 C814 0.961 . S
H829 C815 0.958 . S
H830 C815 0.961 . S
H831 C815 0.960 . S
C832 C833 1.391 . S
C832 C834 1.394 . S
C832 H848 0.931 . S
C833 C832 1.391 . S
C833 C837 1.376 . S
C834 C832 1.394 . S
C834 C835 1.369 . S
C834 C838 1.531 . S
C835 C834 1.369 . S
C835 C836 1.410 . S
C835 C843 1.503 . S
C836 C835 1.410 . S
C836 C837 1.392 . S
C836 C839 1.511 . S
C837 C833 1.376 . S
C837 C836 1.392 . S
C837 H849 0.929 . S
C838 C834 1.531 . S
C838 H850 0.960 . S
C838 H851 0.962 . S
C838 H852 0.960 . S
C839 C836 1.511 . S
C839 H853 0.961 . S
C839 H854 0.961 . S
C839 H855 0.961 . S
C840 C841 1.370 . S
C840 C842 1.363 . S
C840 H856 0.931 . S
C841 C840 1.370 . S
C841 C845 1.408 . S
C842 C840 1.363 . S
C842 C843 1.370 . S
C842 C846 1.524 . S
C843 C835 1.503 . S
C843 C842 1.370 . S
C843 C844 1.403 . S
C844 C843 1.403 . S
C844 C845 1.404 . S
C844 C847 1.539 . S
C845 C841 1.408 . S
C845 C844 1.404 . S
C845 H857 0.930 . S
C846 C842 1.524 . S
C846 H858 0.956 . S
C846 H859 0.961 . S
C846 H860 0.961 1_556 S
C847 C844 1.539 . S
C847 H861 0.958 . S
C847 H862 0.961 . S
C847 H863 0.960 . S
H848 C832 0.931 . S
H849 C837 0.929 . S
H850 C838 0.960 . S
H851 C838 0.962 . S
H852 C838 0.960 . S
H853 C839 0.961 . S
H854 C839 0.961 . S
H855 C839 0.961 . S
H856 C840 0.931 . S
H857 C845 0.930 . S
H858 C846 0.956 . S
H859 C846 0.961 . S
H860 C846 0.961 1_554 S
H861 C847 0.958 . S
H862 C847 0.961 . S
H863 C847 0.960 . S
C864 C865 1.391 . S
C864 C866 1.394 . S
C864 H880 0.931 . S
C865 C864 1.391 . S
C865 C869 1.376 1_545 S
C866 C864 1.394 . S
C866 C867 1.369 . S
C866 C870 1.531 . S
C867 C866 1.369 . S
C867 C868 1.410 1_545 S
C867 C875 1.503 . S
C868 C867 1.410 1_565 S
C868 C869 1.392 . S
C868 C871 1.511 . S
C869 C865 1.376 1_565 S
C869 C868 1.392 . S
C869 H881 0.929 . S
C870 C866 1.531 . S
C870 H882 0.960 . S
C870 H883 0.962 . S
C870 H884 0.960 . S
C871 C868 1.511 . S
C871 H885 0.961 . S
C871 H886 0.961 . S
C871 H887 0.961 . S
C872 C873 1.370 . S
C872 C874 1.377 . S
C872 H888 0.931 1_545 S
C873 C872 1.370 . S
C873 C877 1.408 . S
C874 C872 1.377 . S
C874 C875 1.383 . S
C874 C878 1.499 1_545 S
C875 C867 1.503 . S
C875 C874 1.383 . S
C875 C876 1.403 . S
C876 C875 1.403 . S
C876 C877 1.404 . S
C876 C879 1.539 . S
C877 C873 1.408 . S
C877 C876 1.404 . S
C877 H889 0.930 . S
C878 C874 1.499 1_565 S
C878 H890 0.956 . S
C878 H891 0.961 . S
C878 H892 0.961 . S
C879 C876 1.539 . S
C879 H893 0.958 . S
C879 H894 0.961 . S
C879 H895 0.960 . S
H880 C864 0.931 . S
H881 C869 0.929 . S
H882 C870 0.960 . S
H883 C870 0.962 . S
H884 C870 0.960 . S
H885 C871 0.961 . S
H886 C871 0.961 . S
H887 C871 0.961 . S
H888 C872 0.931 1_565 S
H889 C877 0.930 . S
H890 C878 0.956 . S
H891 C878 0.961 . S
H892 C878 0.961 . S
H893 C879 0.958 . S
H894 C879 0.961 . S
H895 C879 0.960 . S
C896 C897 1.391 . S
C896 C898 1.394 . S
C896 H912 0.931 . S
C897 C896 1.391 . S
C897 C901 1.376 . S
C898 C896 1.394 . S
C898 C899 1.369 . S
C898 C902 1.531 . S
C899 C898 1.369 . S
C899 C900 1.410 . S
C899 C907 1.503 . S
C900 C899 1.410 . S
C900 C901 1.392 . S
C900 C903 1.511 . S
C901 C897 1.376 . S
C901 C900 1.392 . S
C901 H913 0.929 . S
C902 C898 1.531 . S
C902 H914 0.960 . S
C902 H915 0.962 . S
C902 H916 0.960 . S
C903 C900 1.511 . S
C903 H917 0.961 . S
C903 H918 0.961 . S
C903 H919 0.961 . S
C904 C905 1.370 1_556 S
C904 C906 1.363 1_556 S
C904 H920 0.931 . S
C905 C904 1.370 1_554 S
C905 C909 1.408 . S
C906 C904 1.363 1_554 S
C906 C907 1.370 . S
C906 C910 1.524 1_554 S
C907 C899 1.503 . S
C907 C906 1.370 . S
C907 C908 1.403 . S
C908 C907 1.403 . S
C908 C909 1.404 . S
C908 C911 1.539 . S
C909 C905 1.408 . S
C909 C908 1.404 . S
C909 H921 0.930 . S
C910 C906 1.524 1_556 S
C910 H922 0.957 1_556 S
C910 H923 0.961 . S
C910 H924 0.961 . S
C911 C908 1.539 . S
C911 H925 0.958 . S
C911 H926 0.961 . S
C911 H927 0.960 . S
H912 C896 0.931 . S
H913 C901 0.929 . S
H914 C902 0.960 . S
H915 C902 0.962 . S
H916 C902 0.960 . S
H917 C903 0.961 . S
H918 C903 0.961 . S
H919 C903 0.961 . S
H920 C904 0.931 . S
H921 C909 0.930 . S
H922 C910 0.957 1_554 S
H923 C910 0.961 . S
H924 C910 0.961 . S
H925 C911 0.958 . S
H926 C911 0.961 . S
H927 C911 0.960 . S
C928 C929 1.391 . S
C928 C930 1.394 . S
C928 H944 0.931 . S
C929 C928 1.391 . S
C929 C933 1.376 . S
C930 C928 1.394 . S
C930 C931 1.369 . S
C930 C934 1.531 . S
C931 C930 1.369 . S
C931 C932 1.410 . S
C931 C939 1.503 . S
C932 C931 1.410 . S
C932 C933 1.392 . S
C932 C935 1.511 . S
C933 C929 1.376 . S
C933 C932 1.392 . S
C933 H945 0.929 . S
C934 C930 1.531 . S
C934 H946 0.960 . S
C934 H947 0.962 . S
C934 H948 0.960 . S
C935 C932 1.511 . S
C935 H949 0.961 . S
C935 H950 0.961 . S
C935 H951 0.961 . S
C936 C937 1.370 . S
C936 C938 1.363 . S
C936 H952 0.931 . S
C937 C936 1.370 . S
C937 C941 1.408 . S
C938 C936 1.363 . S
C938 C939 1.370 . S
C938 C942 1.524 . S
C939 C931 1.503 . S
C939 C938 1.370 . S
C939 C940 1.403 . S
C940 C939 1.403 . S
C940 C941 1.404 . S
C940 C943 1.539 . S
C941 C937 1.408 . S
C941 C940 1.404 . S
C941 H953 0.930 . S
C942 C938 1.524 . S
C942 H954 0.956 . S
C942 H955 0.961 . S
C942 H956 0.961 . S
C943 C940 1.539 . S
C943 H957 0.958 . S
C943 H958 0.961 1_556 S
C943 H959 0.960 . S
H944 C928 0.931 . S
H945 C933 0.929 . S
H946 C934 0.960 . S
H947 C934 0.962 . S
H948 C934 0.960 . S
H949 C935 0.961 . S
H950 C935 0.961 . S
H951 C935 0.961 . S
H952 C936 0.931 . S
H953 C941 0.930 . S
H954 C942 0.956 . S
H955 C942 0.961 . S
H956 C942 0.961 . S
H957 C943 0.958 . S
H958 C943 0.961 1_554 S
H959 C943 0.960 . S
C960 C961 1.391 . S
C960 C962 1.394 . S
C960 H976 0.931 . S
C961 C960 1.391 . S
C961 C965 1.376 . S
C962 C960 1.394 . S
C962 C963 1.369 . S
C962 C966 1.531 . S
C963 C962 1.369 . S
C963 C964 1.410 . S
C963 C971 1.503 . S
C964 C963 1.410 . S
C964 C965 1.392 . S
C964 C967 1.511 . S
C965 C961 1.376 . S
C965 C964 1.392 . S
C965 H977 0.929 . S
C966 C962 1.531 . S
C966 H978 0.960 . S
C966 H979 0.962 . S
C966 H980 0.960 . S
C967 C964 1.511 . S
C967 H981 0.961 . S
C967 H982 0.961 . S
C967 H983 0.961 . S
C968 C969 1.370 . S
C968 C970 1.363 . S
C968 H984 0.931 . S
C969 C968 1.370 . S
C969 C973 1.408 . S
C970 C968 1.363 . S
C970 C971 1.370 . S
C970 C974 1.524 . S
C971 C963 1.503 . S
C971 C970 1.370 . S
C971 C972 1.403 . S
C972 C971 1.403 . S
C972 C973 1.404 . S
C972 C975 1.539 . S
C973 C969 1.408 . S
C973 C972 1.404 . S
C973 H985 0.930 . S
C974 C970 1.524 . S
C974 H986 0.956 . S
C974 H987 0.961 . S
C974 H988 0.961 . S
C975 C972 1.539 . S
C975 H989 0.958 . S
C975 H990 0.961 . S
C975 H991 0.960 . S
H976 C960 0.931 . S
H977 C965 0.929 . S
H978 C966 0.960 . S
H979 C966 0.962 . S
H980 C966 0.960 . S
H981 C967 0.961 . S
H982 C967 0.961 . S
H983 C967 0.961 . S
H984 C968 0.931 . S
H985 C973 0.930 . S
H986 C974 0.956 . S
H987 C974 0.961 . S
H988 C974 0.961 . S
H989 C975 0.958 . S
H990 C975 0.961 . S
H991 C975 0.960 . S
C992 C993 1.391 . S
C992 C994 1.394 . S
C992 H1008 0.931 1_545 S
C993 C992 1.391 . S
C993 C997 1.376 . S
C994 C992 1.394 . S
C994 C995 1.369 . S
C994 C998 1.531 . S
C995 C994 1.369 . S
C995 C996 1.410 . S
C995 C1003 1.503 . S
C996 C995 1.410 . S
C996 C997 1.392 . S
C996 C999 1.511 . S
C997 C993 1.376 . S
C997 C996 1.392 . S
C997 H1009 0.929 . S
C998 C994 1.531 . S
C998 H1010 0.960 . S
C998 H1011 0.962 1_545 S
C998 H1012 0.960 . S
C999 C996 1.511 . S
C999 H1013 0.961 . S
C999 H1014 0.961 . S
C999 H1015 0.961 . S
C1000 C1001 1.370 . S
C1000 C1002 1.363 . S
C1000 H1016 0.931 1_545 S
C1001 C1000 1.370 . S
C1001 C1005 1.408 . S
C1002 C1000 1.363 . S
C1002 C1003 1.371 . S
C1002 C1006 1.524 1_545 S
C1003 C995 1.503 . S
C1003 C1002 1.371 . S
C1003 C1004 1.403 . S
C1004 C1003 1.403 . S
C1004 C1005 1.404 . S
C1004 C1007 1.539 . S
C1005 C1001 1.408 . S
C1005 C1004 1.404 . S
C1005 H1017 0.930 . S
C1006 C1002 1.524 1_565 S
C1006 H1018 0.956 . S
C1006 H1019 0.961 . S
C1006 H1020 0.961 . S
C1007 C1004 1.539 . S
C1007 H1021 0.958 . S
C1007 H1022 0.961 . S
C1007 H1023 0.960 . S
H1008 C992 0.931 1_565 S
H1009 C997 0.929 . S
H1010 C998 0.960 . S
H1011 C998 0.962 1_565 S
H1012 C998 0.960 . S
H1013 C999 0.961 . S
H1014 C999 0.961 . S
H1015 C999 0.961 . S
H1016 C1000 0.931 1_565 S
H1017 C1005 0.930 . S
H1018 C1006 0.956 . S
H1019 C1006 0.961 . S
H1020 C1006 0.961 . S
H1021 C1007 0.958 . S
H1022 C1007 0.961 . S
H1023 C1007 0.960 . S
C1024 C1025 1.391 1_556 S
C1024 C1026 1.394 . S
C1024 H1040 0.931 . S
C1025 C1024 1.391 1_554 S
C1025 C1029 1.376 . S
C1026 C1024 1.394 . S
C1026 C1027 1.369 . S
C1026 C1030 1.531 . S
C1027 C1026 1.369 . S
C1027 C1028 1.400 1_556 S
C1027 C1035 1.503 . S
C1028 C1027 1.400 1_554 S
C1028 C1029 1.395 . S
C1028 C1031 1.518 . S
C1029 C1025 1.376 . S
C1029 C1028 1.395 . S
C1029 H1041 0.929 . S
C1030 C1026 1.531 . S
C1030 H1042 0.960 . S
C1030 H1043 0.962 . S
C1030 H1044 0.960 . S
C1031 C1028 1.518 . S
C1031 H1045 0.961 . S
C1031 H1046 0.961 . S
C1031 H1047 0.961 1_554 S
C1032 C1033 1.370 . S
C1032 C1034 1.363 . S
C1032 H1048 0.931 1_556 S
C1033 C1032 1.370 . S
C1033 C1037 1.408 . S
C1034 C1032 1.363 . S
C1034 C1035 1.370 . S
C1034 C1038 1.524 1_556 S
C1035 C1027 1.503 . S
C1035 C1034 1.370 . S
C1035 C1036 1.403 . S
C1036 C1035 1.403 . S
C1036 C1037 1.404 . S
C1036 C1039 1.539 . S
C1037 C1033 1.408 . S
C1037 C1036 1.404 . S
C1037 H1049 0.930 . S
C1038 C1034 1.524 1_554 S
C1038 H1050 0.956 . S
C1038 H1051 0.961 . S
C1038 H1052 0.961 . S
C1039 C1036 1.539 . S
C1039 H1053 0.958 . S
C1039 H1054 0.961 . S
C1039 H1055 0.960 . S
H1040 C1024 0.931 . S
H1041 C1029 0.929 . S
H1042 C1030 0.960 . S
H1043 C1030 0.962 . S
H1044 C1030 0.960 . S
H1045 C1031 0.961 . S
H1046 C1031 0.961 . S
H1047 C1031 0.961 1_556 S
H1048 C1032 0.931 1_554 S
H1049 C1037 0.930 . S
H1050 C1038 0.956 . S
H1051 C1038 0.961 . S
H1052 C1038 0.961 . S
H1053 C1039 0.958 . S
H1054 C1039 0.961 . S
H1055 C1039 0.960 . S
C1056 C1057 1.391 . S
C1056 C1058 1.394 . S
C1056 H1072 0.931 . S
C1057 C1056 1.391 . S
C1057 C1061 1.376 . S
C1058 C1056 1.394 . S
C1058 C1059 1.369 . S
C1058 C1062 1.531 . S
C1059 C1058 1.369 . S
C1059 C1060 1.410 . S
C1059 C1067 1.503 . S
C1060 C1059 1.410 . S
C1060 C1061 1.392 . S
C1060 C1063 1.511 . S
C1061 C1057 1.376 . S
C1061 C1060 1.392 . S
C1061 H1073 0.929 . S
C1062 C1058 1.531 . S
C1062 H1074 0.960 . S
C1062 H1075 0.962 . S
C1062 H1076 0.960 . S
C1063 C1060 1.511 . S
C1063 H1077 0.961 . S
C1063 H1078 0.961 . S
C1063 H1079 0.961 . S
C1064 C1065 1.370 . S
C1064 C1066 1.363 . S
C1064 H1080 0.931 . S
C1065 C1064 1.370 . S
C1065 C1069 1.408 . S
C1066 C1064 1.363 . S
C1066 C1067 1.370 . S
C1066 C1070 1.524 . S
C1067 C1059 1.503 . S
C1067 C1066 1.370 . S
C1067 C1068 1.403 . S
C1068 C1067 1.403 . S
C1068 C1069 1.404 . S
C1068 C1071 1.539 . S
C1069 C1065 1.408 . S
C1069 C1068 1.404 . S
C1069 H1081 0.930 . S
C1070 C1066 1.524 . S
C1070 H1082 0.956 . S
C1070 H1083 0.961 . S
C1070 H1084 0.961 . S
C1071 C1068 1.539 . S
C1071 H1085 0.958 . S
C1071 H1086 0.961 . S
C1071 H1087 0.960 . S
H1072 C1056 0.931 . S
H1073 C1061 0.929 . S
H1074 C1062 0.960 . S
H1075 C1062 0.962 . S
H1076 C1062 0.960 . S
H1077 C1063 0.961 . S
H1078 C1063 0.961 . S
H1079 C1063 0.961 . S
H1080 C1064 0.931 . S
H1081 C1069 0.930 . S
H1082 C1070 0.956 . S
H1083 C1070 0.961 . S
H1084 C1070 0.961 . S
H1085 C1071 0.958 . S
H1086 C1071 0.961 . S
H1087 C1071 0.960 . S
C1088 C1089 1.391 . S
C1088 C1090 1.394 . S
C1088 H1104 0.931 . S
C1089 C1088 1.391 . S
C1089 C1093 1.376 . S
C1090 C1088 1.394 . S
C1090 C1091 1.369 . S
C1090 C1094 1.531 . S
C1091 C1090 1.369 . S
C1091 C1092 1.410 . S
C1091 C1099 1.503 . S
C1092 C1091 1.410 . S
C1092 C1093 1.392 . S
C1092 C1095 1.511 . S
C1093 C1089 1.376 . S
C1093 C1092 1.392 . S
C1093 H1105 0.929 . S
C1094 C1090 1.531 . S
C1094 H1106 0.960 . S
C1094 H1107 0.962 . S
C1094 H1108 0.960 . S
C1095 C1092 1.511 . S
C1095 H1109 0.961 . S
C1095 H1110 0.961 . S
C1095 H1111 0.961 . S
C1096 C1097 1.370 . S
C1096 C1098 1.363 . S
C1096 H1112 0.931 . S
C1097 C1096 1.370 . S
C1097 C1101 1.408 . S
C1098 C1096 1.363 . S
C1098 C1099 1.370 . S
C1098 C1102 1.524 . S
C1099 C1091 1.503 . S
C1099 C1098 1.370 . S
C1099 C1100 1.403 . S
C1100 C1099 1.403 . S
C1100 C1101 1.404 . S
C1100 C1103 1.539 . S
C1101 C1097 1.408 . S
C1101 C1100 1.404 . S
C1101 H1113 0.930 . S
C1102 C1098 1.524 . S
C1102 H1114 0.956 . S
C1102 H1115 0.961 . S
C1102 H1116 0.961 . S
C1103 C1100 1.539 . S
C1103 H1117 0.958 . S
C1103 H1118 0.961 . S
C1103 H1119 0.960 . S
H1104 C1088 0.931 . S
H1105 C1093 0.929 . S
H1106 C1094 0.960 . S
H1107 C1094 0.962 . S
H1108 C1094 0.960 . S
H1109 C1095 0.961 . S
H1110 C1095 0.961 . S
H1111 C1095 0.961 . S
H1112 C1096 0.931 . S
H1113 C1101 0.930 . S
H1114 C1102 0.956 . S
H1115 C1102 0.961 . S
H1116 C1102 0.961 . S
H1117 C1103 0.958 . S
H1118 C1103 0.961 . S
H1119 C1103 0.960 . S
C1120 C1121 1.391 . S
C1120 C1122 1.394 . S
C1120 H1136 0.931 . S
C1121 C1120 1.391 . S
C1121 C1125 1.376 1_565 S
C1122 C1120 1.394 . S
C1122 C1123 1.369 . S
C1122 C1126 1.531 . S
C1123 C1122 1.369 . S
C1123 C1124 1.410 1_565 S
C1123 C1131 1.503 . S
C1124 C1123 1.410 1_545 S
C1124 C1125 1.392 . S
C1124 C1127 1.511 . S
C1125 C1121 1.376 1_545 S
C1125 C1124 1.392 . S
C1125 H1137 0.929 . S
C1126 C1122 1.531 . S
C1126 H1138 0.960 . S
C1126 H1139 0.962 . S
C1126 H1140 0.960 . S
C1127 C1124 1.511 . S
C1127 H1141 0.961 . S
C1127 H1142 0.961 . S
C1127 H1143 0.961 . S
C1128 C1129 1.370 . S
C1128 C1130 1.363 . S
C1128 H1144 0.931 . S
C1129 C1128 1.370 . S
C1129 C1133 1.408 . S
C1130 C1128 1.363 . S
C1130 C1131 1.370 . S
C1130 C1134 1.524 . S
C1131 C1123 1.503 . S
C1131 C1130 1.370 . S
C1131 C1132 1.403 . S
C1132 C1131 1.403 . S
C1132 C1133 1.404 . S
C1132 C1135 1.539 . S
C1133 C1129 1.408 . S
C1133 C1132 1.404 . S
C1133 H1145 0.930 . S
C1134 C1130 1.524 . S
C1134 H1146 0.956 . S
C1134 H1147 0.961 1_565 S
C1134 H1148 0.961 . S
C1135 C1132 1.539 . S
C1135 H1149 0.958 . S
C1135 H1150 0.961 . S
C1135 H1151 0.960 . S
H1136 C1120 0.931 . S
H1137 C1125 0.929 . S
H1138 C1126 0.960 . S
H1139 C1126 0.962 . S
H1140 C1126 0.960 . S
H1141 C1127 0.961 . S
H1142 C1127 0.961 . S
H1143 C1127 0.961 . S
H1144 C1128 0.931 . S
H1145 C1133 0.930 . S
H1146 C1134 0.956 . S
H1147 C1134 0.961 1_545 S
H1148 C1134 0.961 . S
H1149 C1135 0.958 . S
H1150 C1135 0.961 . S
H1151 C1135 0.960 . S
C1152 C1153 1.391 . S
C1152 C1154 1.394 . S
C1152 H1168 0.931 . S
C1153 C1152 1.391 . S
C1153 C1157 1.376 . S
C1154 C1152 1.394 . S
C1154 C1155 1.369 . S
C1154 C1158 1.531 . S
C1155 C1154 1.369 . S
C1155 C1156 1.410 . S
C1155 C1163 1.503 . S
C1156 C1155 1.410 . S
C1156 C1157 1.392 . S
C1156 C1159 1.511 . S
C1157 C1153 1.376 . S
C1157 C1156 1.392 . S
C1157 H1169 0.929 . S
C1158 C1154 1.531 . S
C1158 H1170 0.960 . S
C1158 H1171 0.962 . S
C1158 H1172 0.960 . S
C1159 C1156 1.511 . S
C1159 H1173 0.961 . S
C1159 H1174 0.961 . S
C1159 H1175 0.961 . S
C1160 C1161 1.370 . S
C1160 C1162 1.363 . S
C1160 H1176 0.931 . S
C1161 C1160 1.370 . S
C1161 C1165 1.408 . S
C1162 C1160 1.363 . S
C1162 C1163 1.370 . S
C1162 C1166 1.524 . S
C1163 C1155 1.503 . S
C1163 C1162 1.370 . S
C1163 C1164 1.403 . S
C1164 C1163 1.403 . S
C1164 C1165 1.404 . S
C1164 C1167 1.539 . S
C1165 C1161 1.408 . S
C1165 C1164 1.404 . S
C1165 H1177 0.930 . S
C1166 C1162 1.524 . S
C1166 H1178 0.956 . S
C1166 H1179 0.961 . S
C1166 H1180 0.961 . S
C1167 C1164 1.539 . S
C1167 H1181 0.958 . S
C1167 H1182 0.961 . S
C1167 H1183 0.960 . S
H1168 C1152 0.931 . S
H1169 C1157 0.929 . S
H1170 C1158 0.960 . S
H1171 C1158 0.962 . S
H1172 C1158 0.960 . S
H1173 C1159 0.961 . S
H1174 C1159 0.961 . S
H1175 C1159 0.961 . S
H1176 C1160 0.931 . S
H1177 C1165 0.930 . S
H1178 C1166 0.956 . S
H1179 C1166 0.961 . S
H1180 C1166 0.961 . S
H1181 C1167 0.958 . S
H1182 C1167 0.961 . S
H1183 C1167 0.960 . S
C1184 C1185 1.391 . S
C1184 C1186 1.394 . S
C1184 H1200 0.931 . S
C1185 C1184 1.391 . S
C1185 C1189 1.376 . S
C1186 C1184 1.394 . S
C1186 C1187 1.369 . S
C1186 C1190 1.531 . S
C1187 C1186 1.369 . S
C1187 C1188 1.410 . S
C1187 C1195 1.503 . S
C1188 C1187 1.410 . S
C1188 C1189 1.392 . S
C1188 C1191 1.511 . S
C1189 C1185 1.376 . S
C1189 C1188 1.392 . S
C1189 H1201 0.929 . S
C1190 C1186 1.531 . S
C1190 H1202 0.960 . S
C1190 H1203 0.962 . S
C1190 H1204 0.960 . S
C1191 C1188 1.511 . S
C1191 H1205 0.961 . S
C1191 H1206 0.961 . S
C1191 H1207 0.961 . S
C1192 C1193 1.370 . S
C1192 C1194 1.363 . S
C1192 H1208 0.931 . S
C1193 C1192 1.370 . S
C1193 C1197 1.408 . S
C1194 C1192 1.363 . S
C1194 C1195 1.370 . S
C1194 C1198 1.524 . S
C1195 C1187 1.503 . S
C1195 C1194 1.370 . S
C1195 C1196 1.403 . S
C1196 C1195 1.403 . S
C1196 C1197 1.404 . S
C1196 C1199 1.539 . S
C1197 C1193 1.408 . S
C1197 C1196 1.404 . S
C1197 H1209 0.930 . S
C1198 C1194 1.524 . S
C1198 H1210 0.956 . S
C1198 H1211 0.961 . S
C1198 H1212 0.961 . S
C1199 C1196 1.539 . S
C1199 H1213 0.958 . S
C1199 H1214 0.961 . S
C1199 H1215 0.960 . S
H1200 C1184 0.931 . S
H1201 C1189 0.929 . S
H1202 C1190 0.960 . S
H1203 C1190 0.962 . S
H1204 C1190 0.960 . S
H1205 C1191 0.961 . S
H1206 C1191 0.961 . S
H1207 C1191 0.961 . S
H1208 C1192 0.931 . S
H1209 C1197 0.930 . S
H1210 C1198 0.956 . S
H1211 C1198 0.961 . S
H1212 C1198 0.961 . S
H1213 C1199 0.958 . S
H1214 C1199 0.961 . S
H1215 C1199 0.960 . S
C449 C241 0.947 1_565 S
C457 C297 0.914 . S
C489 C337 1.973 . S
C481 C277 1.920 . S
C521 C386 1.679 . S
C513 C169 1.591 . S
C553 C417 2.194 . S
C545 C205 2.198 . S
C585 C306 0.910 . S
C577 C97 0.914 . S
C609 C133 2.016 . S
C617 C346 1.968 . S
C641 C25 1.696 1_556 S
C649 C377 1.687 . S
C673 C61 2.133 1_556 S
C681 C426 2.199 . S
C713 C307 1.468 . S
C705 C211 1.288 . S
C745 C347 0.918 . S
C737 C247 0.832 . S
C777 C383 0.601 . S
C769 C253 0.717 . S
C801 C175 1.296 . S
C809 C427 1.553 . S
C833 C67 1.245 . S
C841 C298 1.472 . S
C873 C338 0.922 . S
C865 C103 0.911 . S
C905 C374 0.623 1_554 S
C897 C109 0.579 . S
C929 C31 1.328 . S
C937 C418 1.555 . S
C961 C181 2.124 . S
C969 C303 2.200 . S
C993 C217 1.686 . S
C1001 C343 1.734 . S
C1033 C387 2.918 . S
C1025 C283 2.573 . S
C1065 C423 1.807 . S
C1057 C145 1.677 . S
C1089 C37 2.044 . S
C1097 C294 2.211 . S
C1129 C334 1.730 . S
C1121 C73 1.729 1_565 S
C1161 C378 2.922 . S
C1153 C139 2.622 . S
C1185 C1 1.757 . S
C1193 C414 1.795 . S
