# Generated by pormake.
# Topology pyr, (3,6)-cn, num edge types: 1
# Building blocks:
#     Node 0, Type 0, BuildingBlock: ESEHIV_clean_linker_0, # of connection points: 3
#     Node 1, Type 0, BuildingBlock: ESEHIV_clean_linker_0, # of connection points: 3
#     Node 2, Type 0, BuildingBlock: ESEHIV_clean_linker_0, # of connection points: 3
#     Node 3, Type 0, BuildingBlock: ESEHIV_clean_linker_0, # of connection points: 3
#     Node 4, Type 0, BuildingBlock: ESEHIV_clean_linker_0, # of connection points: 3
#     Node 5, Type 0, BuildingBlock: ESEHIV_clean_linker_0, # of connection points: 3
#     Node 6, Type 0, BuildingBlock: ESEHIV_clean_linker_0, # of connection points: 3
#     Node 7, Type 0, BuildingBlock: ESEHIV_clean_linker_0, # of connection points: 3
#     Node 8, Type 1, BuildingBlock: BETDAH_clean_sbu_0, # of connection points: 6
#     Node 9, Type 1, BuildingBlock: BETDAH_clean_sbu_0, # of connection points: 6
#     Node 10, Type 1, BuildingBlock: BETDAH_clean_sbu_0, # of connection points: 6
#     Node 11, Type 1, BuildingBlock: BETDAH_clean_sbu_0, # of connection points: 6
#     Edge 12, Type (0, 1), BuildingBlock: EZIPEK_clean_linker_0, # of connection points: 2
#     Edge 13, Type (0, 1), BuildingBlock: EZIPEK_clean_linker_0, # of connection points: 2
#     Edge 14, Type (0, 1), BuildingBlock: EZIPEK_clean_linker_0, # of connection points: 2
#     Edge 15, Type (0, 1), BuildingBlock: EZIPEK_clean_linker_0, # of connection points: 2
#     Edge 16, Type (0, 1), BuildingBlock: EZIPEK_clean_linker_0, # of connection points: 2
#     Edge 17, Type (0, 1), BuildingBlock: EZIPEK_clean_linker_0, # of connection points: 2
#     Edge 18, Type (0, 1), BuildingBlock: EZIPEK_clean_linker_0, # of connection points: 2
#     Edge 19, Type (0, 1), BuildingBlock: EZIPEK_clean_linker_0, # of connection points: 2
#     Edge 20, Type (0, 1), BuildingBlock: EZIPEK_clean_linker_0, # of connection points: 2
#     Edge 21, Type (0, 1), BuildingBlock: EZIPEK_clean_linker_0, # of connection points: 2
#     Edge 22, Type (0, 1), BuildingBlock: EZIPEK_clean_linker_0, # of connection points: 2
#     Edge 23, Type (0, 1), BuildingBlock: EZIPEK_clean_linker_0, # of connection points: 2
#     Edge 24, Type (0, 1), BuildingBlock: EZIPEK_clean_linker_0, # of connection points: 2
#     Edge 25, Type (0, 1), BuildingBlock: EZIPEK_clean_linker_0, # of connection points: 2
#     Edge 26, Type (0, 1), BuildingBlock: EZIPEK_clean_linker_0, # of connection points: 2
#     Edge 27, Type (0, 1), BuildingBlock: EZIPEK_clean_linker_0, # of connection points: 2
#     Edge 28, Type (0, 1), BuildingBlock: EZIPEK_clean_linker_0, # of connection points: 2
#     Edge 29, Type (0, 1), BuildingBlock: EZIPEK_clean_linker_0, # of connection points: 2
#     Edge 30, Type (0, 1), BuildingBlock: EZIPEK_clean_linker_0, # of connection points: 2
#     Edge 31, Type (0, 1), BuildingBlock: EZIPEK_clean_linker_0, # of connection points: 2
#     Edge 32, Type (0, 1), BuildingBlock: EZIPEK_clean_linker_0, # of connection points: 2
#     Edge 33, Type (0, 1), BuildingBlock: EZIPEK_clean_linker_0, # of connection points: 2
#     Edge 34, Type (0, 1), BuildingBlock: EZIPEK_clean_linker_0, # of connection points: 2
#     Edge 35, Type (0, 1), BuildingBlock: EZIPEK_clean_linker_0, # of connection points: 2
# Relax obj value: 0.223
# Max RMSD: 0.161
# Mean RMSD: 0.076
data_MOF--net-pyr--node1-BETDAH_clean_sbu_0--node2-ESEHIV_clean_linker_0--edge1-EZIPEK_clean_linker_0
_symmetry_space_group_name_H-M    P1
_symmetry_Int_Tables_number       1
_symmetry_cell_setting            triclinic
loop_
_symmetry_equiv_pos_as_xyz
'x, y, z'
_cell_length_a     25.591884
_cell_length_b     26.982421
_cell_length_c     24.494379
_cell_angle_alpha  90.047277
_cell_angle_beta   87.816984
_cell_angle_gamma 105.92168
loop_
_atom_site_label
_atom_site_type_symbol
_atom_site_fract_x
_atom_site_fract_y
_atom_site_fract_z
_atom_type_partial_charge
H0 H 0.37635 0.399 0.33394 0.0
H1 H 0.49634 0.31334 0.34102 0.0
H2 H 0.40903 0.31381 0.19591 0.0
C3 C 0.40117 0.37644 0.31547 0.0
C4 C 0.39052 0.36065 0.26149 0.0
C5 C 0.43852 0.35922 0.34644 0.0
C6 C 0.46796 0.32847 0.31957 0.0
C7 C 0.45716 0.31161 0.266 0.0
C8 C 0.4189 0.32828 0.23661 0.0
H9 H 0.18017 0.89642 0.8015 0.0
H10 H 0.20556 0.74906 0.7699 0.0
H11 H 0.1327 0.82288 0.64899 0.0
C12 C 0.17469 0.8631 0.77527 0.0
C13 C 0.15368 0.864 0.72351 0.0
C14 C 0.19142 0.82066 0.79223 0.0
C15 C 0.18827 0.77942 0.75704 0.0
C16 C 0.17068 0.78093 0.70339 0.0
C17 C 0.14947 0.82176 0.68855 0.0
H18 H 0.71948 0.36992 0.97377 0.0
H19 H 0.73508 0.50238 0.86981 0.0
H20 H 0.60102 0.36621 0.85238 0.0
C21 C 0.70499 0.38842 0.94051 0.0
C22 C 0.65704 0.36167 0.91517 0.0
C23 C 0.73352 0.43927 0.92502 0.0
C24 C 0.71366 0.46325 0.88192 0.0
C25 C 0.66636 0.43713 0.85437 0.0
C26 C 0.63812 0.38626 0.87183 0.0
H27 H 0.85069 0.77869 0.4784 0.0
H28 H 0.97402 0.78268 0.35248 0.0
H29 H 0.8354 0.64866 0.37213 0.0
C30 C 0.86648 0.76035 0.4446 0.0
C31 C 0.83699 0.7108 0.42871 0.0
C32 C 0.91568 0.78693 0.4177 0.0
C33 C 0.93602 0.76261 0.37331 0.0
C34 C 0.90759 0.71225 0.35609 0.0
C35 C 0.85788 0.68687 0.3845 0.0
H36 H 0.57202 0.83495 0.82085 0.0
H37 H 0.69807 0.7561 0.82347 0.0
H38 H 0.66726 0.84134 0.96212 0.0
C39 C 0.60279 0.82233 0.84126 0.0
C40 C 0.6157 0.84082 0.89413 0.0
C41 C 0.63241 0.79202 0.81385 0.0
C42 C 0.67285 0.77783 0.84293 0.0
C43 C 0.68549 0.79512 0.89598 0.0
C44 C 0.65636 0.82627 0.92183 0.0
H45 H 0.86529 0.40274 0.39475 0.0
H46 H 0.9121 0.26312 0.38218 0.0
H47 H 0.95727 0.35962 0.52178 0.0
C48 C 0.88832 0.37815 0.41088 0.0
C49 C 0.90929 0.3865 0.46341 0.0
C50 C 0.89158 0.33511 0.38092 0.0
C51 C 0.91467 0.29896 0.40342 0.0
C52 C 0.93713 0.30693 0.45494 0.0
C53 C 0.93792 0.35284 0.48305 0.0
H54 H 0.36054 0.78988 0.18838 0.0
H55 H 0.33694 0.66514 0.30415 0.0
H56 H 0.48031 0.79473 0.30874 0.0
C57 C 0.37471 0.77248 0.2227 0.0
C58 C 0.42357 0.79905 0.24661 0.0
C59 C 0.34322 0.72431 0.24298 0.0
C60 C 0.36151 0.70197 0.28824 0.0
C61 C 0.41166 0.72613 0.31235 0.0
C62 C 0.44222 0.77505 0.29081 0.0
H63 H 0.113 0.3706 0.83165 0.0
H64 H 0.23027 0.37403 0.69992 0.0
H65 H 0.2433 0.5092 0.79769 0.0
C66 C 0.14918 0.39124 0.80825 0.0
C67 C 0.17549 0.44345 0.82138 0.0
C68 C 0.16827 0.36606 0.76392 0.0
C69 C 0.2154 0.39304 0.73374 0.0
C70 C 0.24322 0.44431 0.74565 0.0
C71 C 0.22249 0.46948 0.78893 0.0
Ho72 Ho 0.08375 0.0986 0.55101 0.0
Ho73 Ho 0.9894 1.05441 0.6329 0.0
C74 C 0.07583 0.16496 0.65953 0.0
C75 C 0.15059 0.14208 0.47271 0.0
C76 C 0.20268 0.18178 0.47275 0.0
C77 C 0.22474 0.20236 0.52228 0.0
C78 C 0.27381 0.24126 0.52212 0.0
C79 C 0.30097 0.25976 0.4724 0.0
C80 C 0.27889 0.23908 0.42302 0.0
C81 C 0.22994 0.20029 0.42319 0.0
C82 C 0.1071 1.04565 0.63662 0.0
C83 C 0.99925 0.98823 0.52223 0.0
C84 C 0.91447 0.99752 0.69721 0.0
C85 C 0.87466 0.94664 0.69474 0.0
C86 C 0.84854 0.92359 0.74326 0.0
C87 C 0.80119 0.88294 0.74142 0.0
C88 C 0.77938 0.865 0.69102 0.0
C89 C 0.80797 0.88489 0.6424 0.0
C90 C 0.85548 0.92559 0.64424 0.0
C91 C 0.97622 0.13231 0.5707 0.0
O92 O 0.09385 0.16564 0.60812 0.0
O93 O 0.04144 0.12233 0.68149 0.0
O94 O 0.1503 0.0977 0.49438 0.0
O95 O 0.10845 0.15771 0.4887 0.0
O96 O 0.14045 0.08697 0.61549 0.0
O97 O 0.06444 1.03487 0.61037 0.0
O98 O 0.97153 0.99216 0.56816 0.0
O99 O 0.04318 1.02504 0.50593 0.0
O100 O 0.90648 1.0316 0.66312 0.0
O101 O 0.96594 0.99943 0.70059 0.0
O102 O 0.95571 0.12059 0.61943 0.0
O103 O 0.99764 0.09741 0.55478 0.0
H104 H 0.20387 0.18846 0.56092 0.0
H105 H 0.29047 0.25695 0.56045 0.0
H106 H 0.29961 0.25314 0.38432 0.0
H107 H 0.21328 0.18494 0.38472 0.0
H108 H 0.86248 0.93936 0.78251 0.0
H109 H 0.77939 0.86794 0.77936 0.0
H110 H 0.79148 0.87158 0.60326 0.0
H111 H 0.87474 0.94303 0.60623 0.0
Ho112 Ho 0.59428 0.08798 0.08677 0.0
Ho113 Ho 0.48111 1.07174 1.07022 0.0
C114 C 0.5274 0.14872 0.16413 0.0
C115 C 0.69801 0.12255 0.09732 0.0
C116 C 0.7342 0.16724 0.12306 0.0
C117 C 0.72603 0.2166 0.11932 0.0
C118 C 0.75455 0.25621 0.15252 0.0
C119 C 0.7904 0.24617 0.19014 0.0
C120 C 0.80138 0.19811 0.19083 0.0
C121 C 0.77356 0.15889 0.15729 0.0
C122 C 0.53295 0.99929 0.13897 0.0
C123 C 0.54615 1.00396 1.00098 0.0
C124 C 0.37796 1.03836 1.05555 0.0
C125 C 0.34245 0.98927 1.03819 0.0
C126 C 0.29886 0.99004 1.00585 0.0
C127 C 0.27239 0.94612 0.97774 0.0
C128 C 0.28926 0.90106 0.98183 0.0
C129 C 0.32908 0.89851 1.01868 0.0
C130 C 0.35618 0.94286 1.0464 0.0
C131 C 0.54282 0.16244 1.0228 0.0
O132 O 0.5752 0.14905 0.14165 0.0
O133 O 0.48302 0.11627 0.14677 0.0
O134 O 0.66587 0.08972 0.13128 0.0
O135 O 0.67329 0.13138 1.05424 0.0
O136 O 0.5777 1.00417 0.11044 0.0
O137 O 0.52182 1.04243 0.13707 0.0
O138 O 0.49855 1.00553 1.02243 0.0
O139 O 0.5906 1.03941 1.01292 0.0
O140 O 0.41313 1.06281 1.018 0.0
O141 O 0.39934 1.03853 0.10298 0.0
O142 O 0.49546 0.15535 1.04677 0.0
O143 O 0.55422 0.11938 1.02232 0.0
H144 H 0.69562 0.22378 0.09317 0.0
H145 H 0.74582 0.29328 0.15177 0.0
H146 H 0.8292 0.19008 0.21964 0.0
H147 H 0.78039 0.12111 0.16049 0.0
H148 H 0.28791 1.02557 0.99921 0.0
H149 H 0.24151 0.94844 0.94952 0.0
H150 H 0.34236 0.86386 1.02214 0.0
H151 H 0.39 0.94176 1.07125 0.0
Ho152 Ho 0.5391 0.53787 0.54939 0.0
Ho153 Ho 0.53649 0.62659 0.62062 0.0
C154 C 0.58812 0.54323 0.6738 0.0
C155 C 0.57913 0.47513 0.49306 0.0
C156 C 0.6355 0.47201 0.49374 0.0
C157 C 0.67386 0.50963 0.52195 0.0
C158 C 0.72713 0.50655 0.52568 0.0
C159 C 0.74314 0.46641 0.50004 0.0
C160 C 0.70518 0.42941 0.4706 0.0
C161 C 0.65151 0.43212 0.46757 0.0
C162 C 0.44097 0.52502 0.60438 0.0
C163 C 0.4897 0.62283 0.49648 0.0
C164 C 0.49643 0.68948 0.67651 0.0
C165 C 0.44127 0.69544 0.67313 0.0
C166 C 0.40361 0.66083 0.64122 0.0
C167 C 0.35166 0.66651 0.63518 0.0
C168 C 0.33578 0.70573 0.6627 0.0
C169 C 0.37286 0.73974 0.69585 0.0
C170 C 0.42555 0.73475 0.70084 0.0
C171 C 0.63449 0.63966 0.56472 0.0
O172 O 0.58567 0.5236 0.62377 0.0
O173 O 0.5703 0.58411 0.68382 0.0
O174 O 0.55037 0.46156 0.53851 0.0
O175 O 0.57399 0.51833 0.47338 0.0
O176 O 0.44688 0.50729 0.55569 0.0
O177 O 0.48787 0.54523 0.62197 0.0
O178 O 0.48643 0.63778 0.54786 0.0
O179 O 0.51309 0.58575 0.48524 0.0
O180 O 0.52805 0.7037 0.63285 0.0
O181 O 0.49807 0.64466 0.6952 0.0
O182 O 0.62858 0.65919 0.61245 0.0
O183 O 0.5874 0.61877 0.54825 0.0
H184 H 0.66222 0.54101 0.5418 0.0
H185 H 0.75562 0.53495 0.54912 0.0
H186 H 0.71688 0.3978 0.45108 0.0
H187 H 0.62257 0.40293 0.44548 0.0
H188 H 0.41447 0.62939 0.62083 0.0
H189 H 0.32374 0.64042 0.60913 0.0
H190 H 0.36124 0.77061 0.71699 0.0
H191 H 0.45383 0.76152 0.726 0.0
Ho192 Ho 1.03143 0.53514 0.11595 0.0
Ho193 Ho 0.04419 0.62641 1.05138 0.0
C194 C 0.143 0.62898 0.12658 0.0
C195 C 0.0514 0.45463 0.1587 0.0
C196 C 0.10275 0.44175 0.16952 0.0
C197 C 0.1085 0.41852 0.21934 0.0
C198 C 0.15696 0.40641 0.23016 0.0
C199 C 0.20051 0.41716 0.19125 0.0
C200 C 0.19491 0.44052 0.14142 0.0
C201 C 0.14662 0.45302 0.13077 0.0
C202 C 0.98316 0.60207 0.17003 0.0
C203 C 0.93161 0.53489 1.04413 0.0
C204 C 1.0269 0.70365 0.99844 0.0
C205 C 0.97674 0.71842 0.98693 0.0
C206 C 0.92869 0.6987 1.01887 0.0
C207 C 0.88139 0.71271 1.00799 0.0
C208 C 0.88032 0.74483 0.96324 0.0
C209 C 0.92795 0.7635 0.93027 0.0
C210 C 0.97584 0.75073 0.94231 0.0
C211 C 0.09357 0.55826 1.00037 0.0
O212 O 0.11855 0.57926 0.13267 0.0
O213 O 0.12018 0.65857 0.09821 0.0
O214 O 0.0409 0.49148 0.1878 0.0
O215 O 0.04059 0.45815 0.10748 0.0
O216 O 0.96347 0.55222 0.168 0.0
O217 O 1.02808 0.61417 0.1419 0.0
O218 O 0.95463 0.58505 1.04245 0.0
O219 O 0.95558 0.50412 1.06874 0.0
O220 O 1.03171 0.66168 0.97512 0.0
O221 O 0.041 0.706 1.04921 0.0
O222 O 0.11306 0.60803 1.00128 0.0
O223 O 0.04796 0.5478 1.02662 0.0
H224 H 0.0755 0.40975 0.24993 0.0
H225 H 0.16045 0.38836 0.26883 0.0
H226 H 0.22795 0.44912 0.11086 0.0
H227 H 0.14363 0.47143 0.09216 0.0
H228 H 0.92717 0.6718 1.05178 0.0
H229 H 0.84513 0.69742 1.0337 0.0
H230 H 0.928 0.78797 0.89521 0.0
H231 H 1.01189 0.76556 0.91627 0.0
C232 C 0.44735 0.32254 0.43808 0.0
C233 C 0.43731 0.36333 0.40815 0.0
C234 C 0.35257 0.3525 0.4605 0.0
C235 C 0.35284 0.30075 0.47029 0.0
N236 N 0.40533 0.23975 0.48123 0.0
N237 N 0.40531 0.43711 0.4264 0.0
C238 C 0.4024 0.28706 0.46465 0.0
C239 C 0.39872 0.3857 0.43282 0.0
N240 N 0.49913 0.31913 0.44167 0.0
N241 N 0.30736 0.36809 0.47365 0.0
H242 H 0.43917 0.4599 0.40434 0.0
H243 H 0.37972 0.45656 0.44533 0.0
H244 H 0.27378 0.34409 0.4949 0.0
H245 H 0.30303 0.40399 0.46262 0.0
H246 H 0.50934 0.29179 0.46601 0.0
H247 H 0.53164 0.34702 0.42317 0.0
H248 H 0.43928 0.22635 0.47283 0.0
H249 H 0.37285 0.21376 0.50199 0.0
C250 C 0.27732 0.84286 0.8428 0.0
C251 C 0.21987 0.82359 0.84396 0.0
C252 C 0.21619 0.83124 0.94334 0.0
C253 C 0.27097 0.86121 0.94015 0.0
N254 N 0.35627 0.89266 0.88909 0.0
N255 N 0.13451 0.79242 0.89425 0.0
C256 C 0.30284 0.86463 0.89089 0.0
C257 C 0.18933 0.81458 0.8942 0.0
N258 N 0.30712 0.84172 0.79549 0.0
N259 N 0.19018 0.82033 0.99342 0.0
H260 H 0.11443 0.77803 0.85887 0.0
H261 H 0.1088 0.78943 0.92872 0.0
H262 H 0.21015 0.83259 1.02947 0.0
H263 H 0.15106 0.79611 0.99969 0.0
H264 H 0.34933 0.84992 0.79352 0.0
H265 H 0.28974 0.82854 0.75859 0.0
H266 H 0.37968 0.90305 0.85309 0.0
H267 H 0.37714 0.9076 0.92374 0.0
C268 C 0.67182 0.4688 0.75501 0.0
C269 C 0.64603 0.46392 0.80801 0.0
C270 C 0.58007 0.50722 0.7725 0.0
C271 C 0.60898 0.51677 0.72059 0.0
N272 N 0.68958 0.51384 0.66761 0.0
N273 N 0.581 0.48696 0.86924 0.0
C274 C 0.6567 0.49924 0.7133 0.0
C275 C 0.6018 0.48569 0.8172 0.0
N276 N 0.7103 0.44332 0.74391 0.0
N277 N 0.52996 0.51575 0.77879 0.0
H278 H 0.59483 0.4709 0.90262 0.0
H279 H 0.55345 0.50777 0.88001 0.0
H280 H 0.51109 0.52971 0.74776 0.0
H281 H 0.50434 0.50384 0.81316 0.0
H282 H 0.72617 0.44002 0.70471 0.0
H283 H 0.72298 0.42157 0.77325 0.0
H284 H 0.72765 0.50722 0.66226 0.0
H285 H 0.68145 0.53731 0.63736 0.0
C286 C 0.95503 0.64581 0.31854 0.0
C287 C 0.92987 0.68578 0.30855 0.0
C288 C 0.95051 0.678 0.20925 0.0
C289 C 0.96914 0.6336 0.21837 0.0
N290 N 0.98982 0.57586 0.28409 0.0
N291 N 0.89912 0.73648 0.24269 0.0
C292 C 0.97141 0.61775 0.27379 0.0
C293 C 0.92668 0.701 0.25337 0.0
N294 N 0.96584 0.63623 0.3711 0.0
N295 N 0.95694 0.69926 0.15823 0.0
H296 H 0.88177 0.75436 0.27343 0.0
H297 H 0.88966 0.74518 0.20352 0.0
H298 H 0.97514 0.68388 0.12637 0.0
H299 H 0.94964 0.73435 0.14891 0.0
H300 H 0.99071 0.61321 0.38127 0.0
H301 H 0.95394 0.65505 0.40458 0.0
H302 H 0.98508 0.55734 0.32196 0.0
H303 H 1.00871 0.55856 0.25418 0.0
C304 C 0.45073 0.2174 0.25732 0.0
C305 C 0.47963 0.26945 0.24521 0.0
C306 C 0.55397 0.24044 0.20156 0.0
C307 C 0.52041 0.18881 0.20436 0.0
N308 N 0.45086 0.12732 0.2563 0.0
N309 N 0.55856 0.33151 0.20621 0.0
C310 C 0.47278 0.17707 0.23882 0.0
C311 C 0.53153 0.28128 0.21793 0.0
N312 N 0.40142 0.20656 0.28507 0.0
N313 N 0.60774 0.25029 0.18641 0.0
H314 H 0.54377 0.36229 0.21861 0.0
H315 H 0.59349 0.34255 0.18092 0.0
H316 H 0.62707 0.22124 0.18184 0.0
H317 H 0.63503 0.28685 0.18658 0.0
H318 H 0.37513 0.16968 0.28947 0.0
H319 H 0.38512 0.23493 0.30167 0.0
H320 H 0.41854 0.11577 0.28474 0.0
H321 H 0.46938 0.09825 0.24666 0.0
C322 C 0.17634 0.9394 0.65842 0.0
C323 C 0.14396 0.91251 0.70312 0.0
C324 C 0.09981 0.98212 0.71256 0.0
C325 C 0.12529 1.00395 0.66247 0.0
N326 N 0.1802 0.99627 0.5817 0.0
N327 N 0.06931 0.905 0.76874 0.0
C328 C 0.16169 0.98087 0.63371 0.0
C329 C 0.10423 0.93307 0.72936 0.0
N330 N 0.22217 0.92661 0.64055 0.0
N331 N 0.07232 1.00876 0.74462 0.0
H332 H 0.07046 0.86838 0.78124 0.0
H333 H 0.03612 0.916 0.78528 0.0
H334 H 0.06924 1.04515 0.73366 0.0
H335 H 0.05721 0.99699 0.784 0.0
H336 H 0.24974 0.94833 0.61141 0.0
H337 H 0.23591 0.89795 0.65901 0.0
H338 H 0.20193 0.97651 0.55733 0.0
H339 H 0.16959 1.02537 0.56075 0.0
C340 C 0.83539 0.48445 0.92705 0.0
C341 C 0.78388 0.46707 0.95518 0.0
C342 C 0.82953 0.49199 1.04254 0.0
C343 C 0.88012 0.51291 1.01386 0.0
N344 N 0.92784 0.53951 0.92717 0.0
N345 N 0.73096 0.46585 1.03907 0.0
C346 C 0.88187 0.51261 0.95564 0.0
C347 C 0.78075 0.47406 1.01285 0.0
N348 N 0.84097 0.47156 0.87359 0.0
N349 N 0.82788 0.48924 0.09828 0.0
H350 H 0.69461 0.45496 1.01863 0.0
H351 H 0.72576 0.4749 1.07988 0.0
H352 H 0.86199 0.50421 0.12133 0.0
H353 H 0.79362 0.46909 0.12136 0.0
H354 H 0.87854 0.47814 0.85276 0.0
H355 H 0.80881 0.44959 0.85154 0.0
H356 H 0.92937 0.54542 0.88504 0.0
H357 H 0.96318 0.55965 0.9459 0.0
C358 C 0.73447 0.69485 0.44164 0.0
C359 C 0.78344 0.68584 0.4591 0.0
C360 C 0.73616 0.65028 0.54648 0.0
C361 C 0.686 0.65654 0.5282 0.0
N362 N 0.6379 0.68532 0.45692 0.0
N363 N 0.82854 0.64661 0.52356 0.0
C364 C 0.68526 0.67838 0.47506 0.0
C365 C 0.78338 0.66097 0.51017 0.0
N366 N 0.73578 0.72185 0.39412 0.0
N367 N 0.73939 0.63544 0.59929 0.0
H368 H 0.86346 0.65391 0.49805 0.0
H369 H 0.82982 0.62341 0.55714 0.0
H370 H 0.70628 0.62644 0.62705 0.0
H371 H 0.77577 0.63584 0.61713 0.0
H372 H 0.70417 0.73604 0.38172 0.0
H373 H 0.77007 0.73253 0.36776 0.0
H374 H 0.63173 0.69234 0.41623 0.0
H375 H 0.60414 0.68392 0.48246 0.0
C376 C 0.34856 0.42626 0.2222 0.0
C377 C 0.34447 0.3739 0.23469 0.0
C378 C 0.24964 0.34975 0.20696 0.0
C379 C 0.25138 0.40263 0.20258 0.0
N380 N 0.3011 0.492 0.21227 0.0
N381 N 0.28788 0.28652 0.24743 0.0
C382 C 0.30064 0.44121 0.21141 0.0
C383 C 0.29426 0.33568 0.22892 0.0
N384 N 0.39841 0.46159 0.22039 0.0
N385 N 0.20562 0.31288 0.18929 0.0
H386 H 0.31893 0.27445 0.26469 0.0
H387 H 0.25037 0.25885 0.25016 0.0
H388 H 0.17241 0.32173 0.1724 0.0
H389 H 0.20448 0.27408 0.18635 0.0
H390 H 0.40492 0.49939 0.20665 0.0
H391 H 0.43418 0.45168 0.2278 0.0
H392 H 0.3342 0.52143 0.22431 0.0
H393 H 0.26679 0.50449 0.20538 0.0
C394 C 0.63275 0.2628 0.91835 0.0
C395 C 0.62488 0.30975 0.93869 0.0
C396 C 0.56983 0.26106 1.01609 0.0
C397 C 0.57317 0.21293 0.99356 0.0
N398 N 0.59903 0.16954 0.91479 0.0
N399 N 0.57666 0.35169 1.00132 0.0
C400 C 0.6025 0.21421 0.94244 0.0
C401 C 0.59037 0.30808 0.98566 0.0
N402 N 0.66977 0.26454 0.87626 0.0
N403 N 0.54975 0.26283 1.06825 0.0
H404 H 0.59156 0.38698 0.98094 0.0
H405 H 0.54655 0.35177 1.03114 0.0
H406 H 0.53634 0.23059 0.09333 0.0
H407 H 0.55201 0.29704 0.08893 0.0
H408 H 0.68239 0.23263 0.86368 0.0
H409 H 0.6908 0.29886 0.85648 0.0
H410 H 0.61501 0.16854 0.87519 0.0
H411 H 0.57513 0.13377 0.9286 0.0
C412 C 0.93513 0.8852 0.41588 0.0
C413 C 0.945 0.84007 0.43838 0.0
C414 C 0.99271 0.89261 0.514 0.0
C415 C 0.98322 0.9379 0.49129 0.0
N416 N 0.95333 0.97886 0.416 0.0
N417 N 0.99142 0.8024 0.50317 0.0
C418 C 0.95712 0.9346 0.44059 0.0
C419 C 0.97638 0.84445 0.48576 0.0
N420 N 0.90269 0.88043 0.37205 0.0
N421 N 1.01673 0.89548 0.56329 0.0
H422 H 0.98006 0.76689 0.4836 0.0
H423 H 1.0186 0.80338 0.53393 0.0
H424 H 0.03241 0.93012 0.58345 0.0
H425 H 1.01899 0.8635 0.58579 0.0
H426 H 0.88815 0.91003 0.35723 0.0
H427 H 0.88773 0.84558 0.35196 0.0
H428 H 0.94012 0.98045 0.37656 0.0
H429 H 0.96701 1.01502 0.4338 0.0
C430 C 0.18501 0.69638 0.68027 0.0
C431 C 0.18743 0.74663 0.66219 0.0
C432 C 0.27849 0.75695 0.62256 0.0
C433 C 0.28164 0.71373 0.65391 0.0
N434 N 0.23598 0.63635 0.70509 0.0
N435 N 0.21949 0.80428 0.58601 0.0
C436 C 0.23371 0.68042 0.67901 0.0
C437 C 0.2288 0.77057 0.62332 0.0
N438 N 0.13717 0.66706 0.70319 0.0
N439 N 0.32324 0.78558 0.59354 0.0
H440 H 0.18097 0.80932 0.58181 0.0
H441 H 0.24716 0.82122 0.5546 0.0
H442 H 0.3592 0.77456 0.58913 0.0
H443 H 0.32535 0.82108 0.57558 0.0
H444 H 0.1306 0.62917 0.71651 0.0
H445 H 0.10276 0.68087 0.7053 0.0
H446 H 0.2035 0.61224 0.72736 0.0
H447 H 0.27129 0.62426 0.70575 0.0
C448 C 0.66111 0.75343 0.72936 0.0
C449 C 0.63035 0.78478 0.75272 0.0
C450 C 0.67986 0.8563 0.69552 0.0
C451 C 0.72264 0.83219 0.69095 0.0
N452 N 0.74922 0.75328 0.68786 0.0
N453 N 0.58341 0.84242 0.71708 0.0
C454 C 0.71114 0.77846 0.70119 0.0
C455 C 0.63029 0.82859 0.72173 0.0
N456 N 0.64526 0.70192 0.74028 0.0
N457 N 0.68779 0.90602 0.67861 0.0
H458 H 0.54678 0.81953 0.73431 0.0
H459 H 0.58045 0.87276 0.69218 0.0
H460 H 0.72356 0.92671 0.65804 0.0
H461 H 0.65944 0.92668 0.68665 0.0
H462 H 0.66524 0.67603 0.72424 0.0
H463 H 0.60959 0.68566 0.7636 0.0
H464 H 0.74496 0.71485 0.69786 0.0
H465 H 0.78545 0.77183 0.66656 0.0
C466 C 0.89126 0.33431 0.27981 0.0
C467 C 0.86192 0.32262 0.33011 0.0
C468 C 0.77976 0.27826 0.28365 0.0
C469 C 0.81158 0.28246 0.23427 0.0
N470 N 0.89537 0.31684 0.1823 0.0
N471 N 0.7789 0.28433 0.38242 0.0
C472 C 0.86669 0.31216 0.23115 0.0
C473 C 0.80595 0.29574 0.33276 0.0
N474 N 0.94263 0.36641 0.28069 0.0
N475 N 0.72476 0.25667 0.28353 0.0
H476 H 0.79653 0.29746 0.41929 0.0
H477 H 0.73997 0.2595 0.38775 0.0
H478 H 0.70442 0.24185 0.24855 0.0
H479 H 0.69847 0.2571 0.31689 0.0
H480 H 0.96762 0.37984 0.24622 0.0
H481 H 0.96762 0.37984 0.24622 0.0
H482 H 0.93711 0.33311 0.17747 0.0
H483 H 0.87696 0.30286 0.14598 0.0
C484 C 0.43434 0.64781 0.35624 0.0
C485 C 0.43169 0.69989 0.35995 0.0
C486 C 0.47294 0.70349 0.45058 0.0
C487 C 0.46817 0.64937 0.45019 0.0
N488 N 0.42814 0.56863 0.4058 0.0
N489 N 0.43568 0.77177 0.41997 0.0
C490 C 0.44426 0.62118 0.40384 0.0
C491 C 0.44722 0.72606 0.40989 0.0
N492 N 0.4296 0.62387 0.30682 0.0
N493 N 0.50452 0.73458 0.48765 0.0
H494 H 0.41455 0.78835 0.39307 0.0
H495 H 0.44148 0.78991 0.45774 0.0
H496 H 0.52797 0.7215 0.51506 0.0
H497 H 0.51288 0.77462 0.48635 0.0
H498 H 0.43584 0.58759 0.30114 0.0
H499 H 0.42588 0.64256 0.27055 0.0
H500 H 0.40643 0.54639 0.37497 0.0
H501 H 0.43002 0.54775 0.44106 0.0
C502 C 0.09855 0.47289 0.87192 0.0
C503 C 0.15372 0.47097 0.86867 0.0
C504 C 0.16961 0.52753 0.95017 0.0
C505 C 0.11296 0.5245 0.95733 0.0
N506 N 1.02206 0.47968 0.92966 0.0
N507 N 0.2375 0.48629 0.91589 0.0
C508 C 0.077 0.49252 0.91993 0.0
C509 C 0.18797 0.49546 0.91103 0.0
N510 N 0.06684 0.45854 0.82788 0.0
N511 N 0.20677 0.56128 0.98049 0.0
H512 H 0.2514 0.46138 0.89023 0.0
H513 H 0.26192 0.49863 0.94907 0.0
H514 H 0.19615 0.58438 1.0105 0.0
H515 H 0.24859 0.56934 0.97266 0.0
H516 H 1.02829 0.46419 0.82563 0.0
H517 H 0.08135 0.44675 0.79116 0.0
H518 H 0.99497 0.45289 0.90625 0.0
H519 H 1.00354 0.49034 0.96435 0.0
C520 C 0.60878 0.93213 0.8968 0.0
C521 C 0.59139 0.88087 0.91763 0.0
C522 C 0.53556 0.908 0.98925 0.0
C523 C 0.5524 0.95933 0.96777 0.0
N524 N 0.59158 1.01601 0.8923 0.0
N525 N 0.52881 0.81738 0.97478 0.0
C526 C 0.58472 0.9699 0.91862 0.0
C527 C 0.55168 0.868 0.96102 0.0
N528 N 0.65013 0.94545 0.85792 0.0
N529 N 0.50698 0.89761 1.03811 0.0
H530 H 0.54018 0.7873 0.95531 0.0
H531 H 0.49542 0.80496 1.00193 0.0
H532 H 0.49188 0.92432 1.05939 0.0
H533 H 0.50071 0.86292 1.05936 0.0
H534 H 0.66859 0.98338 0.8457 0.0
H535 H 0.66931 0.91924 0.84099 0.0
H536 H 0.61047 1.02442 0.85369 0.0
H537 H 0.57303 1.04373 0.9066 0.0
C538 C 0.92328 0.24588 0.53452 0.0
C539 C 0.9495 0.26292 0.48348 0.0
C540 C 0.98579 0.18771 0.48304 0.0
C541 C 0.96904 0.17766 0.53924 0.0
N542 N 0.94 0.2162 0.62186 0.0
N543 N 1.01605 0.25478 0.41397 0.0
C544 C 0.94313 0.2122 0.56626 0.0
C545 C 0.98421 0.23543 0.45918 0.0
N546 N 0.87837 0.26009 0.55244 0.0
N547 N 1.00036 0.15182 0.45113 0.0
H548 H 1.01711 0.29033 0.39654 0.0
H549 H 0.04529 0.23797 0.3977 0.0
H550 H 0.998 0.11465 0.46412 0.0
H551 H 1.00859 0.15719 0.4092 0.0
H552 H 0.85673 0.24535 0.58855 0.0
H553 H 0.85893 0.28073 0.52814 0.0
H554 H 0.92286 0.24295 0.64096 0.0
H555 H 0.96253 0.20089 0.64826 0.0
C556 C 0.28912 0.65586 0.1797 0.0
C557 C 0.29085 0.69752 0.21587 0.0
C558 C 0.1956 0.69292 0.19505 0.0
C559 C 0.19436 0.65242 0.15713 0.0
N560 N 0.23658 0.58813 0.1226 0.0
N561 N 0.24755 0.75863 0.25512 0.0
C562 C 0.24014 0.63178 0.15228 0.0
C563 C 0.24449 0.71673 0.22267 0.0
N564 N 0.33558 0.64122 0.16898 0.0
N565 N 0.14855 0.70575 0.20833 0.0
H566 H 0.28041 0.77429 0.27957 0.0
H567 H 0.21906 0.77972 0.25588 0.0
H568 H 0.11134 0.68793 0.19157 0.0
H569 H 0.14459 0.73048 0.23984 0.0
H570 H 0.33986 0.6159 0.13816 0.0
H571 H 0.37187 0.65737 0.18827 0.0
H572 H 0.265 0.56701 0.12321 0.0
H573 H 0.2032 0.57035 0.09998 0.0
C574 C 0.29135 0.49421 0.66064 0.0
C575 C 0.29451 0.47032 0.71185 0.0
C576 C 0.39131 0.47699 0.68955 0.0
C577 C 0.38994 0.50529 0.64077 0.0
N578 N 0.33837 0.54207 0.58021 0.0
N579 N 0.35012 0.44673 0.7787 0.0
C580 C 0.33969 0.51409 0.6264 0.0
C581 C 0.34541 0.46443 0.72738 0.0
N582 N 0.2417 0.49695 0.64438 0.0
N583 N 0.4347 0.45795 0.69772 0.0
H584 H 0.31742 0.43614 0.80704 0.0
H585 H 0.38732 0.44703 0.79476 0.0
H586 H 0.46741 0.4629 0.66966 0.0
H587 H 0.43563 0.43242 0.72931 0.0
H588 H 0.23449 0.50851 0.60556 0.0
H589 H 0.20649 0.48516 0.66936 0.0
H590 H 0.30479 0.55372 0.56891 0.0
H591 H 0.37234 0.55644 0.55412 0.0
C592 C 0.73204 0.73123 0.93029 0.0
C593 C 0.73313 0.78343 0.9211 0.0
C594 C 0.82766 0.8103 0.94947 0.0
C595 C 0.82901 0.75801 0.95027 0.0
N596 N 0.78427 0.66892 0.93068 0.0
N597 N 0.78614 0.87244 0.91175 0.0
C598 C 0.78156 0.71839 0.93805 0.0
C599 C 0.78199 0.82306 0.92817 0.0
N600 N 0.68355 0.69391 0.93177 0.0
N601 N 0.86931 0.84775 0.97026 0.0
H602 H 0.7544 0.88354 0.8946 0.0
H603 H 0.8228 0.90136 0.91039 0.0
H604 H 0.90275 0.83982 0.98765 0.0
H605 H 0.86787 0.88571 0.97534 0.0
H606 H 0.6797 0.65586 0.94326 0.0
H607 H 0.64646 0.70217 0.92691 0.0
H608 H 0.75217 0.6397 0.91636 0.0
H609 H 0.82021 0.6581 0.93328 0.0
C610 C 0.42866 0.89375 0.22845 0.0
C611 C 0.4537 0.85266 0.22513 0.0
C612 C 0.53534 0.91418 0.18394 0.0
C613 C 0.50674 0.95222 0.17605 0.0
N614 N 0.42426 0.97739 0.19669 0.0
N615 N 0.52931 0.82321 0.19066 0.0
C616 C 0.45287 0.9418 0.20009 0.0
C617 C 0.50654 0.86277 0.20025 0.0
N618 N 0.38282 0.88783 0.26115 0.0
N619 N 0.59084 0.92775 0.18045 0.0
H620 H 0.50965 0.78503 0.20121 0.0
H621 H 0.56538 0.82789 0.16746 0.0
H622 H 0.61423 0.966 0.17811 0.0
H623 H 0.61346 0.90219 0.18932 0.0
H624 H 0.3655 0.91769 0.27033 0.0
H625 H 0.36509 0.8543 0.28377 0.0
H626 H 0.38232 0.96856 0.20399 0.0
H627 H 0.44206 1.01577 0.18673 0.0
C628 C 0.14704 0.26717 0.76538 0.0
C629 C 0.13731 0.31293 0.74449 0.0
C630 C 0.08735 0.26227 0.66949 0.0
C631 C 0.09418 0.21525 0.69143 0.0
N632 N 0.12725 0.17345 0.76436 0.0
N633 N 0.08688 0.35116 0.68457 0.0
C634 C 0.12246 0.21787 0.74106 0.0
C635 C 0.10381 0.30933 0.69917 0.0
N636 N 0.18185 0.27119 0.80711 0.0
N637 N 0.06708 0.26314 0.61887 0.0
H638 H 0.09847 0.38632 0.70478 0.0
H639 H 0.0571 0.34954 0.65626 0.0
H640 H 0.05226 0.2305 0.59581 0.0
H641 H 0.06846 0.297 0.59775 0.0
H642 H 0.19637 0.24107 0.82053 0.0
H643 H 0.19875 0.306 0.82661 0.0
H644 H 0.14152 0.17152 0.8033 0.0
H645 H 0.11441 0.13764 0.74585 0.0
C646 C 0.85202 0.405 0.54141 0.0
C647 C 0.89098 0.4245 0.49862 0.0
C648 C 0.84396 0.48936 0.47688 0.0
C649 C 0.798 0.45973 0.508 0.0
N650 N 0.76018 0.39531 0.5775 0.0
N651 N 0.93726 0.49719 0.44363 0.0
C652 C 0.80299 0.41991 0.54344 0.0
C653 C 0.89182 0.47195 0.47368 0.0
N654 N 0.86287 0.37418 0.58099 0.0
N655 N 0.84034 0.53149 0.44791 0.0
H656 H 0.97149 0.48314 0.4414 0.0
H657 H 0.94223 0.53218 0.42362 0.0
H658 H 0.80559 0.54458 0.44941 0.0
H659 H 0.87125 0.55364 0.42229 0.0
H660 H 0.83732 0.36091 0.61507 0.0
H661 H 0.90091 0.36783 0.58379 0.0
H662 H 0.75848 0.36161 0.59902 0.0
H663 H 0.72514 0.40776 0.58269 0.0
loop_
_geom_bond_atom_site_label_1
_geom_bond_atom_site_label_2
_geom_bond_distance
_geom_bond_site_symmetry_2
_ccdc_geom_bond_type
H0 C3 0.931 . S
H1 C6 0.928 . S
H2 C8 0.930 . S
C3 H0 0.931 . S
C3 C4 1.413 . S
C3 C5 1.360 . S
C4 C3 1.413 . S
C4 C8 1.429 . S
C5 C3 1.360 . S
C5 C6 1.372 . S
C6 H1 0.928 . S
C6 C5 1.372 . S
C6 C7 1.404 . S
C7 C6 1.404 . S
C7 C8 1.391 . S
C8 H2 0.930 . S
C8 C4 1.429 . S
C8 C7 1.391 . S
H9 C12 0.931 . S
H10 C15 0.928 . S
H11 C17 0.930 . S
C12 H9 0.931 . S
C12 C13 1.413 . S
C12 C14 1.360 . S
C13 C12 1.413 . S
C13 C17 1.429 . S
C14 C12 1.360 . S
C14 C15 1.372 . S
C15 H10 0.928 . S
C15 C14 1.372 . S
C15 C16 1.404 . S
C16 C15 1.404 . S
C16 C17 1.391 . S
C17 H11 0.930 . S
C17 C13 1.429 . S
C17 C16 1.391 . S
H18 C21 0.931 . S
H19 C24 0.928 . S
H20 C26 0.930 . S
C21 H18 0.931 . S
C21 C22 1.413 . S
C21 C23 1.360 . S
C22 C21 1.413 . S
C22 C26 1.429 . S
C23 C21 1.360 . S
C23 C24 1.372 . S
C24 H19 0.928 . S
C24 C23 1.372 . S
C24 C25 1.404 . S
C25 C24 1.404 . S
C25 C26 1.391 . S
C26 H20 0.930 . S
C26 C22 1.429 . S
C26 C25 1.391 . S
H27 C30 0.931 . S
H28 C33 0.928 . S
H29 C35 0.930 . S
C30 H27 0.931 . S
C30 C31 1.413 . S
C30 C32 1.360 . S
C31 C30 1.413 . S
C31 C35 1.429 . S
C32 C30 1.360 . S
C32 C33 1.372 . S
C33 H28 0.928 . S
C33 C32 1.372 . S
C33 C34 1.404 . S
C34 C33 1.404 . S
C34 C35 1.391 . S
C35 H29 0.930 . S
C35 C31 1.429 . S
C35 C34 1.391 . S
H36 C39 0.931 . S
H37 C42 0.928 . S
H38 C44 0.930 . S
C39 H36 0.931 . S
C39 C40 1.413 . S
C39 C41 1.360 . S
C40 C39 1.413 . S
C40 C44 1.429 . S
C41 C39 1.360 . S
C41 C42 1.372 . S
C42 H37 0.928 . S
C42 C41 1.372 . S
C42 C43 1.404 . S
C43 C42 1.404 . S
C43 C44 1.391 . S
C44 H38 0.930 . S
C44 C40 1.429 . S
C44 C43 1.391 . S
H45 C48 0.931 . S
H46 C51 0.928 . S
H47 C53 0.930 . S
C48 H45 0.931 . S
C48 C49 1.413 . S
C48 C50 1.360 . S
C49 C48 1.413 . S
C49 C53 1.429 . S
C50 C48 1.360 . S
C50 C51 1.372 . S
C51 H46 0.928 . S
C51 C50 1.372 . S
C51 C52 1.404 . S
C52 C51 1.404 . S
C52 C53 1.391 . S
C53 H47 0.930 . S
C53 C49 1.429 . S
C53 C52 1.391 . S
H54 C57 0.931 . S
H55 C60 0.928 . S
H56 C62 0.930 . S
C57 H54 0.931 . S
C57 C58 1.413 . S
C57 C59 1.360 . S
C58 C57 1.413 . S
C58 C62 1.429 . S
C59 C57 1.360 . S
C59 C60 1.372 . S
C60 H55 0.928 . S
C60 C59 1.372 . S
C60 C61 1.404 . S
C61 C60 1.404 . S
C61 C62 1.391 . S
C62 H56 0.930 . S
C62 C58 1.429 . S
C62 C61 1.391 . S
H63 C66 0.931 . S
H64 C69 0.928 . S
H65 C71 0.930 . S
C66 H63 0.931 . S
C66 C67 1.413 . S
C66 C68 1.360 . S
C67 C66 1.413 . S
C67 C71 1.429 . S
C68 C66 1.360 . S
C68 C69 1.372 . S
C69 H64 0.928 . S
C69 C68 1.372 . S
C69 C70 1.404 . S
C70 C69 1.404 . S
C70 C71 1.391 . S
C71 H65 0.930 . S
C71 C67 1.429 . S
C71 C70 1.391 . S
Ho72 C75 2.811 . S
Ho72 O92 2.322 . S
Ho72 O94 2.378 . S
Ho72 O95 2.524 . S
Ho72 O96 2.381 1_545 S
Ho72 O97 2.669 1_545 S
Ho72 O99 2.346 1_445 S
Ho72 O103 2.305 1_455 S
Ho73 C84 2.811 . S
Ho73 O93 2.346 1_665 S
Ho73 O97 2.305 1_655 S
Ho73 O98 2.322 . S
Ho73 O100 2.378 . S
Ho73 O101 2.524 . S
Ho73 O102 2.381 1_565 S
Ho73 O103 2.669 1_565 S
C74 O92 1.259 . S
C74 O93 1.268 . S
C75 Ho72 2.811 . S
C75 C76 1.488 . S
C75 O94 1.215 . S
C75 O95 1.289 . S
C76 C75 1.488 . S
C76 C77 1.348 . S
C76 C81 1.413 . S
C77 C76 1.348 . S
C77 C78 1.442 . S
C77 H104 0.930 . S
C78 C77 1.442 . S
C78 C79 1.381 . S
C78 H105 0.931 . S
C79 C78 1.381 . S
C79 C80 1.321 . S
C80 C79 1.321 . S
C80 C81 1.403 . S
C80 H106 0.934 . S
C81 C76 1.413 . S
C81 C80 1.403 . S
C81 H107 0.930 . S
C82 O96 1.275 . S
C82 O97 1.256 . S
C83 O98 1.259 . S
C83 O99 1.268 . S
C84 Ho73 2.811 . S
C84 C85 1.488 . S
C84 O100 1.215 . S
C84 O101 1.289 . S
C85 C84 1.488 . S
C85 C86 1.348 . S
C85 C90 1.413 . S
C86 C85 1.348 . S
C86 C87 1.442 . S
C86 H108 0.930 . S
C87 C86 1.442 . S
C87 C88 1.381 . S
C87 H109 0.931 . S
C88 C87 1.381 . S
C88 C89 1.321 . S
C89 C88 1.321 . S
C89 C90 1.403 . S
C89 H110 0.934 . S
C90 C85 1.413 . S
C90 C89 1.403 . S
C90 H111 0.930 . S
C91 O102 1.275 . S
C91 O103 1.256 . S
O92 Ho72 2.322 . S
O92 C74 1.259 . S
O93 Ho73 2.346 1_445 S
O93 C74 1.268 . S
O94 Ho72 2.378 . S
O94 C75 1.215 . S
O95 Ho72 2.524 . S
O95 C75 1.289 . S
O96 Ho72 2.381 1_565 S
O96 C82 1.275 . S
O97 Ho72 2.669 1_565 S
O97 Ho73 2.305 1_455 S
O97 C82 1.256 . S
O98 Ho73 2.322 . S
O98 C83 1.259 . S
O99 Ho72 2.346 1_665 S
O99 C83 1.268 . S
O100 Ho73 2.378 . S
O100 C84 1.215 . S
O101 Ho73 2.524 . S
O101 C84 1.289 . S
O102 Ho73 2.381 1_545 S
O102 C91 1.275 . S
O103 Ho72 2.305 1_655 S
O103 Ho73 2.669 1_545 S
O103 C91 1.256 . S
H104 C77 0.930 . S
H105 C78 0.931 . S
H106 C80 0.934 . S
H107 C81 0.930 . S
H108 C86 0.930 . S
H109 C87 0.931 . S
H110 C89 0.934 . S
H111 C90 0.930 . S
Ho112 C115 2.811 1_565 S
Ho112 O132 2.322 1_565 S
Ho112 O134 2.378 1_565 S
Ho112 O135 2.524 1_565 S
Ho112 O136 2.381 . S
Ho112 O137 2.669 . S
Ho112 O139 2.346 1_554 S
Ho112 O143 2.305 1_564 S
Ho113 C124 2.811 1_545 S
Ho113 O133 2.346 1_556 S
Ho113 O137 2.305 1_546 S
Ho113 O138 2.322 1_545 S
Ho113 O140 2.378 1_545 S
Ho113 O141 2.524 1_545 S
Ho113 O142 2.381 . S
Ho113 O143 2.669 . S
C114 O132 1.259 . S
C114 O133 1.268 . S
C115 Ho112 2.811 1_545 S
C115 C116 1.488 . S
C115 O134 1.215 . S
C115 O135 1.289 . S
C116 C115 1.488 . S
C116 C117 1.348 . S
C116 C121 1.413 . S
C117 C116 1.348 . S
C117 C118 1.442 . S
C117 H144 0.930 . S
C118 C117 1.442 . S
C118 C119 1.381 . S
C118 H145 0.931 . S
C119 C118 1.381 . S
C119 C120 1.321 . S
C120 C119 1.321 . S
C120 C121 1.403 . S
C120 H146 0.934 . S
C121 C116 1.413 . S
C121 C120 1.403 . S
C121 H147 0.930 . S
C122 O136 1.275 . S
C122 O137 1.256 . S
C123 O138 1.259 . S
C123 O139 1.268 . S
C124 Ho113 2.811 1_565 S
C124 C125 1.488 . S
C124 O140 1.215 . S
C124 O141 1.289 . S
C125 C124 1.488 . S
C125 C126 1.348 . S
C125 C130 1.413 . S
C126 C125 1.348 . S
C126 C127 1.442 . S
C126 H148 0.930 . S
C127 C126 1.442 . S
C127 C128 1.381 . S
C127 H149 0.931 . S
C128 C127 1.381 . S
C128 C129 1.321 . S
C129 C128 1.321 . S
C129 C130 1.403 . S
C129 H150 0.934 . S
C130 C125 1.413 . S
C130 C129 1.403 . S
C130 H151 0.930 . S
C131 O142 1.275 . S
C131 O143 1.256 . S
O132 Ho112 2.322 1_545 S
O132 C114 1.259 . S
O133 Ho113 2.346 1_554 S
O133 C114 1.268 . S
O134 Ho112 2.378 1_545 S
O134 C115 1.215 . S
O135 Ho112 2.524 1_545 S
O135 C115 1.289 . S
O136 Ho112 2.381 . S
O136 C122 1.275 . S
O137 Ho112 2.669 . S
O137 Ho113 2.305 1_564 S
O137 C122 1.256 . S
O138 Ho113 2.322 1_565 S
O138 C123 1.259 . S
O139 Ho112 2.346 1_556 S
O139 C123 1.268 . S
O140 Ho113 2.378 1_565 S
O140 C124 1.215 . S
O141 Ho113 2.524 1_565 S
O141 C124 1.289 . S
O142 Ho113 2.381 . S
O142 C131 1.275 . S
O143 Ho112 2.305 1_546 S
O143 Ho113 2.669 . S
O143 C131 1.256 . S
H144 C117 0.930 . S
H145 C118 0.931 . S
H146 C120 0.934 . S
H147 C121 0.930 . S
H148 C126 0.930 . S
H149 C127 0.931 . S
H150 C129 0.934 . S
H151 C130 0.930 . S
Ho152 C155 2.811 . S
Ho152 O172 2.322 . S
Ho152 O174 2.378 . S
Ho152 O175 2.524 . S
Ho152 O176 2.381 . S
Ho152 O177 2.669 . S
Ho152 O179 2.346 . S
Ho152 O183 2.305 . S
Ho153 C164 2.811 . S
Ho153 O173 2.346 . S
Ho153 O177 2.305 . S
Ho153 O178 2.322 . S
Ho153 O180 2.378 . S
Ho153 O181 2.524 . S
Ho153 O182 2.381 . S
Ho153 O183 2.669 . S
C154 O172 1.259 . S
C154 O173 1.268 . S
C155 Ho152 2.811 . S
C155 C156 1.488 . S
C155 O174 1.215 . S
C155 O175 1.289 . S
C156 C155 1.488 . S
C156 C157 1.348 . S
C156 C161 1.413 . S
C157 C156 1.348 . S
C157 C158 1.442 . S
C157 H184 0.930 . S
C158 C157 1.442 . S
C158 C159 1.381 . S
C158 H185 0.931 . S
C159 C158 1.381 . S
C159 C160 1.321 . S
C160 C159 1.321 . S
C160 C161 1.403 . S
C160 H186 0.934 . S
C161 C156 1.413 . S
C161 C160 1.403 . S
C161 H187 0.930 . S
C162 O176 1.275 . S
C162 O177 1.256 . S
C163 O178 1.259 . S
C163 O179 1.268 . S
C164 Ho153 2.811 . S
C164 C165 1.488 . S
C164 O180 1.215 . S
C164 O181 1.289 . S
C165 C164 1.488 . S
C165 C166 1.348 . S
C165 C170 1.413 . S
C166 C165 1.348 . S
C166 C167 1.442 . S
C166 H188 0.930 . S
C167 C166 1.442 . S
C167 C168 1.381 . S
C167 H189 0.931 . S
C168 C167 1.381 . S
C168 C169 1.321 . S
C169 C168 1.321 . S
C169 C170 1.403 . S
C169 H190 0.934 . S
C170 C165 1.413 . S
C170 C169 1.403 . S
C170 H191 0.930 . S
C171 O182 1.275 . S
C171 O183 1.256 . S
O172 Ho152 2.322 . S
O172 C154 1.259 . S
O173 Ho153 2.346 . S
O173 C154 1.268 . S
O174 Ho152 2.378 . S
O174 C155 1.215 . S
O175 Ho152 2.524 . S
O175 C155 1.289 . S
O176 Ho152 2.381 . S
O176 C162 1.275 . S
O177 Ho152 2.669 . S
O177 Ho153 2.305 . S
O177 C162 1.256 . S
O178 Ho153 2.322 . S
O178 C163 1.259 . S
O179 Ho152 2.346 . S
O179 C163 1.268 . S
O180 Ho153 2.378 . S
O180 C164 1.215 . S
O181 Ho153 2.524 . S
O181 C164 1.289 . S
O182 Ho153 2.381 . S
O182 C171 1.275 . S
O183 Ho152 2.305 . S
O183 Ho153 2.669 . S
O183 C171 1.256 . S
H184 C157 0.930 . S
H185 C158 0.931 . S
H186 C160 0.934 . S
H187 C161 0.930 . S
H188 C166 0.930 . S
H189 C167 0.931 . S
H190 C169 0.934 . S
H191 C170 0.930 . S
Ho192 C195 2.811 . S
Ho192 O212 2.322 . S
Ho192 O214 2.378 . S
Ho192 O215 2.524 . S
Ho192 O216 2.381 1_455 S
Ho192 O217 2.669 1_455 S
Ho192 O219 2.344 1_455 S
Ho192 O223 2.305 1_554 S
Ho193 C204 2.827 . S
Ho193 O213 2.329 1_656 S
Ho193 O217 2.309 1_556 S
Ho193 O218 2.333 . S
Ho193 O220 2.389 . S
Ho193 O221 2.542 . S
Ho193 O222 2.371 1_655 S
Ho193 O223 2.659 1_655 S
C194 O212 1.259 . S
C194 O213 1.268 . S
C195 Ho192 2.811 . S
C195 C196 1.488 . S
C195 O214 1.215 . S
C195 O215 1.289 . S
C196 C195 1.488 . S
C196 C197 1.348 . S
C196 C201 1.413 . S
C197 C196 1.348 . S
C197 C198 1.442 . S
C197 H224 0.930 . S
C198 C197 1.442 . S
C198 C199 1.381 . S
C198 H225 0.931 . S
C199 C198 1.381 . S
C199 C200 1.321 . S
C200 C199 1.321 . S
C200 C201 1.403 . S
C200 H226 0.934 . S
C201 C196 1.413 . S
C201 C200 1.403 . S
C201 H227 0.930 . S
C202 O216 1.275 . S
C202 O217 1.256 . S
C203 O218 1.259 . S
C203 O219 1.269 1_556 S
C204 Ho193 2.827 . S
C204 C205 1.488 . S
C204 O220 1.215 . S
C204 O221 1.289 . S
C205 C204 1.488 . S
C205 C206 1.348 . S
C205 C210 1.413 . S
C206 C205 1.348 . S
C206 C207 1.442 . S
C206 H228 0.930 . S
C207 C206 1.442 . S
C207 C208 1.381 . S
C207 H229 0.931 . S
C208 C207 1.381 . S
C208 C209 1.321 . S
C209 C208 1.321 . S
C209 C210 1.403 . S
C209 H230 0.934 . S
C210 C205 1.413 . S
C210 C209 1.403 . S
C210 H231 0.930 . S
C211 O222 1.275 . S
C211 O223 1.256 . S
O212 Ho192 2.322 . S
O212 C194 1.259 . S
O213 Ho193 2.329 1_454 S
O213 C194 1.268 . S
O214 Ho192 2.378 . S
O214 C195 1.215 . S
O215 Ho192 2.524 . S
O215 C195 1.289 . S
O216 Ho192 2.381 1_655 S
O216 C202 1.275 . S
O217 Ho192 2.669 1_655 S
O217 Ho193 2.309 1_554 S
O217 C202 1.256 . S
O218 Ho193 2.333 . S
O218 C203 1.259 . S
O219 Ho192 2.344 1_655 S
O219 C203 1.269 1_554 S
O220 Ho193 2.389 . S
O220 C204 1.215 . S
O221 Ho193 2.542 . S
O221 C204 1.289 . S
O222 Ho193 2.371 1_455 S
O222 C211 1.275 . S
O223 Ho192 2.305 1_556 S
O223 Ho193 2.659 1_455 S
O223 C211 1.256 . S
H224 C197 0.930 . S
H225 C198 0.931 . S
H226 C200 0.934 . S
H227 C201 0.930 . S
H228 C206 0.930 . S
H229 C207 0.931 . S
H230 C209 0.934 . S
H231 C210 0.930 . S
C232 C233 1.363 . S
C232 C238 1.379 . S
C232 N240 1.356 . S
C233 C232 1.363 . S
C233 C239 1.363 . S
C234 C235 1.363 . S
C234 C239 1.379 . S
C234 N241 1.356 . S
C235 C234 1.363 . S
C235 C238 1.363 . S
N236 C238 1.356 . S
N236 H248 0.984 . S
N236 H249 0.985 . S
N237 C239 1.356 . S
N237 H242 0.984 . S
N237 H243 0.985 . S
C238 C232 1.379 . S
C238 C235 1.363 . S
C238 N236 1.356 . S
C239 C233 1.363 . S
C239 C234 1.379 . S
C239 N237 1.356 . S
N240 C232 1.356 . S
N240 H246 0.984 . S
N240 H247 0.984 . S
N241 C234 1.356 . S
N241 H244 0.984 . S
N241 H245 0.985 . S
H242 N237 0.984 . S
H243 N237 0.985 . S
H244 N241 0.984 . S
H245 N241 0.985 . S
H246 N240 0.984 . S
H247 N240 0.984 . S
H248 N236 0.984 . S
H249 N236 0.985 . S
C250 C251 1.363 . S
C250 C256 1.379 . S
C250 N258 1.356 . S
C251 C250 1.363 . S
C251 C257 1.363 . S
C252 C253 1.363 . S
C252 C257 1.379 . S
C252 N259 1.356 . S
C253 C252 1.363 . S
C253 C256 1.363 . S
N254 C256 1.356 . S
N254 H266 0.984 . S
N254 H267 0.985 . S
N255 C257 1.356 . S
N255 H260 0.984 . S
N255 H261 0.985 . S
C256 C250 1.379 . S
C256 C253 1.363 . S
C256 N254 1.356 . S
C257 C251 1.363 . S
C257 C252 1.379 . S
C257 N255 1.356 . S
N258 C250 1.356 . S
N258 H264 0.984 . S
N258 H265 0.984 . S
N259 C252 1.356 . S
N259 H262 0.984 . S
N259 H263 0.985 . S
H260 N255 0.984 . S
H261 N255 0.985 . S
H262 N259 0.984 . S
H263 N259 0.985 . S
H264 N258 0.984 . S
H265 N258 0.984 . S
H266 N254 0.984 . S
H267 N254 0.985 . S
C268 C269 1.363 . S
C268 C274 1.379 . S
C268 N276 1.356 . S
C269 C268 1.363 . S
C269 C275 1.363 . S
C270 C271 1.363 . S
C270 C275 1.379 . S
C270 N277 1.356 . S
C271 C270 1.363 . S
C271 C274 1.363 . S
N272 C274 1.356 . S
N272 H284 0.984 . S
N272 H285 0.985 . S
N273 C275 1.356 . S
N273 H278 0.984 . S
N273 H279 0.985 . S
C274 C268 1.379 . S
C274 C271 1.363 . S
C274 N272 1.356 . S
C275 C269 1.363 . S
C275 C270 1.379 . S
C275 N273 1.356 . S
N276 C268 1.356 . S
N276 H282 0.984 . S
N276 H283 0.984 . S
N277 C270 1.356 . S
N277 H280 0.984 . S
N277 H281 0.985 . S
H278 N273 0.984 . S
H279 N273 0.985 . S
H280 N277 0.984 . S
H281 N277 0.985 . S
H282 N276 0.984 . S
H283 N276 0.984 . S
H284 N272 0.984 . S
H285 N272 0.985 . S
C286 C287 1.363 . S
C286 C292 1.379 . S
C286 N294 1.356 . S
C287 C286 1.363 . S
C287 C293 1.363 . S
C288 C289 1.363 . S
C288 C293 1.379 . S
C288 N295 1.356 . S
C289 C288 1.363 . S
C289 C292 1.363 . S
N290 C292 1.356 . S
N290 H302 0.984 . S
N290 H303 0.985 . S
N291 C293 1.356 . S
N291 H296 0.984 . S
N291 H297 0.985 . S
C292 C286 1.379 . S
C292 C289 1.363 . S
C292 N290 1.356 . S
C293 C287 1.363 . S
C293 C288 1.379 . S
C293 N291 1.356 . S
N294 C286 1.356 . S
N294 H300 0.984 . S
N294 H301 0.984 . S
N295 C288 1.356 . S
N295 H298 0.984 . S
N295 H299 0.985 . S
H296 N291 0.984 . S
H297 N291 0.985 . S
H298 N295 0.984 . S
H299 N295 0.985 . S
H300 N294 0.984 . S
H301 N294 0.984 . S
H302 N290 0.984 . S
H303 N290 0.985 . S
C304 C305 1.363 . S
C304 C310 1.379 . S
C304 N312 1.356 . S
C305 C304 1.363 . S
C305 C311 1.363 . S
C306 C307 1.363 . S
C306 C311 1.379 . S
C306 N313 1.356 . S
C307 C306 1.363 . S
C307 C310 1.363 . S
N308 C310 1.356 . S
N308 H320 0.984 . S
N308 H321 0.985 . S
N309 C311 1.356 . S
N309 H314 0.984 . S
N309 H315 0.985 . S
C310 C304 1.379 . S
C310 C307 1.363 . S
C310 N308 1.356 . S
C311 C305 1.363 . S
C311 C306 1.379 . S
C311 N309 1.356 . S
N312 C304 1.356 . S
N312 H318 0.984 . S
N312 H319 0.984 . S
N313 C306 1.356 . S
N313 H316 0.984 . S
N313 H317 0.985 . S
H314 N309 0.984 . S
H315 N309 0.985 . S
H316 N313 0.984 . S
H317 N313 0.985 . S
H318 N312 0.984 . S
H319 N312 0.984 . S
H320 N308 0.984 . S
H321 N308 0.985 . S
C322 C323 1.363 . S
C322 C328 1.379 . S
C322 N330 1.356 . S
C323 C322 1.363 . S
C323 C329 1.363 . S
C324 C325 1.363 . S
C324 C329 1.379 . S
C324 N331 1.356 . S
C325 C324 1.363 . S
C325 C328 1.363 . S
N326 C328 1.356 . S
N326 H338 0.984 . S
N326 H339 0.985 . S
N327 C329 1.356 . S
N327 H332 0.984 . S
N327 H333 0.985 . S
C328 C322 1.379 . S
C328 C325 1.363 . S
C328 N326 1.356 . S
C329 C323 1.363 . S
C329 C324 1.379 . S
C329 N327 1.356 . S
N330 C322 1.356 . S
N330 H336 0.984 . S
N330 H337 0.984 . S
N331 C324 1.356 . S
N331 H334 0.984 . S
N331 H335 0.985 . S
H332 N327 0.984 . S
H333 N327 0.985 . S
H334 N331 0.984 . S
H335 N331 0.985 . S
H336 N330 0.984 . S
H337 N330 0.984 . S
H338 N326 0.984 . S
H339 N326 0.985 . S
C340 C341 1.363 . S
C340 C346 1.379 . S
C340 N348 1.356 . S
C341 C340 1.363 . S
C341 C347 1.363 . S
C342 C343 1.363 . S
C342 C347 1.379 . S
C342 N349 1.335 1_556 S
C343 C342 1.363 . S
C343 C346 1.363 . S
N344 C346 1.356 . S
N344 H356 0.984 . S
N344 H357 0.985 . S
N345 C347 1.356 . S
N345 H350 0.984 . S
N345 H351 0.985 . S
C346 C340 1.379 . S
C346 C343 1.363 . S
C346 N344 1.356 . S
C347 C341 1.363 . S
C347 C342 1.379 . S
C347 N345 1.356 . S
N348 C340 1.356 . S
N348 H354 0.984 . S
N348 H355 0.984 . S
N349 C342 1.335 1_554 S
N349 H352 0.992 . S
N349 H353 0.999 . S
H350 N345 0.984 . S
H351 N345 0.985 . S
H352 N349 0.992 . S
H353 N349 0.999 . S
H354 N348 0.984 . S
H355 N348 0.984 . S
H356 N344 0.984 . S
H357 N344 0.985 . S
C358 C359 1.363 . S
C358 C364 1.379 . S
C358 N366 1.356 . S
C359 C358 1.363 . S
C359 C365 1.363 . S
C360 C361 1.363 . S
C360 C365 1.379 . S
C360 N367 1.356 . S
C361 C360 1.363 . S
C361 C364 1.363 . S
N362 C364 1.356 . S
N362 H374 0.984 . S
N362 H375 0.985 . S
N363 C365 1.356 . S
N363 H368 0.984 . S
N363 H369 0.985 . S
C364 C358 1.379 . S
C364 C361 1.363 . S
C364 N362 1.356 . S
C365 C359 1.363 . S
C365 C360 1.379 . S
C365 N363 1.356 . S
N366 C358 1.356 . S
N366 H372 0.984 . S
N366 H373 0.984 . S
N367 C360 1.356 . S
N367 H370 0.984 . S
N367 H371 0.985 . S
H368 N363 0.984 . S
H369 N363 0.985 . S
H370 N367 0.984 . S
H371 N367 0.985 . S
H372 N366 0.984 . S
H373 N366 0.984 . S
H374 N362 0.984 . S
H375 N362 0.985 . S
C376 C377 1.363 . S
C376 C382 1.379 . S
C376 N384 1.356 . S
C377 C376 1.363 . S
C377 C383 1.363 . S
C378 C379 1.363 . S
C378 C383 1.379 . S
C378 N385 1.356 . S
C379 C378 1.363 . S
C379 C382 1.363 . S
N380 C382 1.356 . S
N380 H392 0.984 . S
N380 H393 0.985 . S
N381 C383 1.356 . S
N381 H386 0.984 . S
N381 H387 0.985 . S
C382 C376 1.379 . S
C382 C379 1.363 . S
C382 N380 1.356 . S
C383 C377 1.363 . S
C383 C378 1.379 . S
C383 N381 1.356 . S
N384 C376 1.356 . S
N384 H390 0.984 . S
N384 H391 0.984 . S
N385 C378 1.356 . S
N385 H388 0.984 . S
N385 H389 0.985 . S
H386 N381 0.984 . S
H387 N381 0.985 . S
H388 N385 0.984 . S
H389 N385 0.985 . S
H390 N384 0.984 . S
H391 N384 0.984 . S
H392 N380 0.984 . S
H393 N380 0.985 . S
C394 C395 1.363 . S
C394 C400 1.379 . S
C394 N402 1.356 . S
C395 C394 1.363 . S
C395 C401 1.363 . S
C396 C397 1.363 . S
C396 C401 1.379 . S
C396 N403 1.356 . S
C397 C396 1.363 . S
C397 C400 1.363 . S
N398 C400 1.356 . S
N398 H410 0.984 . S
N398 H411 0.985 . S
N399 C401 1.356 . S
N399 H404 0.984 . S
N399 H405 0.985 . S
C400 C394 1.379 . S
C400 C397 1.363 . S
C400 N398 1.356 . S
C401 C395 1.363 . S
C401 C396 1.379 . S
C401 N399 1.356 . S
N402 C394 1.356 . S
N402 H408 0.984 . S
N402 H409 0.984 . S
N403 C396 1.356 . S
N403 H406 0.984 . S
N403 H407 0.985 1_556 S
H404 N399 0.984 . S
H405 N399 0.985 . S
H406 N403 0.984 . S
H407 N403 0.985 1_554 S
H408 N402 0.984 . S
H409 N402 0.984 . S
H410 N398 0.984 . S
H411 N398 0.985 . S
C412 C413 1.363 . S
C412 C418 1.379 . S
C412 N420 1.356 . S
C413 C412 1.363 . S
C413 C419 1.363 . S
C414 C415 1.363 . S
C414 C419 1.379 . S
C414 N421 1.356 . S
C415 C414 1.363 . S
C415 C418 1.363 . S
N416 C418 1.356 . S
N416 H428 0.984 . S
N416 H429 0.985 . S
N417 C419 1.356 . S
N417 H422 0.984 . S
N417 H423 0.985 . S
C418 C412 1.379 . S
C418 C415 1.363 . S
C418 N416 1.356 . S
C419 C413 1.363 . S
C419 C414 1.379 . S
C419 N417 1.356 . S
N420 C412 1.356 . S
N420 H426 0.984 . S
N420 H427 0.984 . S
N421 C414 1.356 . S
N421 H424 0.984 . S
N421 H425 0.985 . S
H422 N417 0.984 . S
H423 N417 0.985 . S
H424 N421 0.984 . S
H425 N421 0.985 . S
H426 N420 0.984 . S
H427 N420 0.984 . S
H428 N416 0.984 . S
H429 N416 0.985 . S
C430 C431 1.363 . S
C430 C436 1.379 . S
C430 N438 1.356 . S
C431 C430 1.363 . S
C431 C437 1.363 . S
C432 C433 1.363 . S
C432 C437 1.379 . S
C432 N439 1.356 . S
C433 C432 1.363 . S
C433 C436 1.363 . S
N434 C436 1.356 . S
N434 H446 0.984 . S
N434 H447 0.985 . S
N435 C437 1.356 . S
N435 H440 0.984 . S
N435 H441 0.985 . S
C436 C430 1.379 . S
C436 C433 1.363 . S
C436 N434 1.356 . S
C437 C431 1.363 . S
C437 C432 1.379 . S
C437 N435 1.356 . S
N438 C430 1.356 . S
N438 H444 0.984 . S
N438 H445 0.984 . S
N439 C432 1.356 . S
N439 H442 0.984 . S
N439 H443 0.985 . S
H440 N435 0.984 . S
H441 N435 0.985 . S
H442 N439 0.984 . S
H443 N439 0.985 . S
H444 N438 0.984 . S
H445 N438 0.984 . S
H446 N434 0.984 . S
H447 N434 0.985 . S
C448 C449 1.363 . S
C448 C454 1.379 . S
C448 N456 1.356 . S
C449 C448 1.363 . S
C449 C455 1.363 . S
C450 C451 1.363 . S
C450 C455 1.379 . S
C450 N457 1.356 . S
C451 C450 1.363 . S
C451 C454 1.363 . S
N452 C454 1.356 . S
N452 H464 0.984 . S
N452 H465 0.985 . S
N453 C455 1.356 . S
N453 H458 0.984 . S
N453 H459 0.985 . S
C454 C448 1.379 . S
C454 C451 1.363 . S
C454 N452 1.356 . S
C455 C449 1.363 . S
C455 C450 1.379 . S
C455 N453 1.356 . S
N456 C448 1.356 . S
N456 H462 0.984 . S
N456 H463 0.984 . S
N457 C450 1.356 . S
N457 H460 0.984 . S
N457 H461 0.985 . S
H458 N453 0.984 . S
H459 N453 0.985 . S
H460 N457 0.984 . S
H461 N457 0.985 . S
H462 N456 0.984 . S
H463 N456 0.984 . S
H464 N452 0.984 . S
H465 N452 0.985 . S
C466 C467 1.363 . S
C466 C472 1.379 . S
C466 N474 1.356 . S
C467 C466 1.363 . S
C467 C473 1.363 . S
C468 C469 1.363 . S
C468 C473 1.379 . S
C468 N475 1.356 . S
C469 C468 1.363 . S
C469 C472 1.363 . S
N470 C472 1.356 . S
N470 H482 0.984 . S
N470 H483 0.985 . S
N471 C473 1.356 . S
N471 H476 0.984 . S
N471 H477 0.985 . S
C472 C466 1.379 . S
C472 C469 1.363 . S
C472 N470 1.356 . S
C473 C467 1.363 . S
C473 C468 1.379 . S
C473 N471 1.356 . S
N474 C466 1.356 . S
N474 H480 0.984 . S
N474 H481 0.984 . S
N475 C468 1.356 . S
N475 H478 0.984 . S
N475 H479 0.985 . S
H476 N471 0.984 . S
H477 N471 0.985 . S
H478 N475 0.984 . S
H479 N475 0.985 . S
H480 N474 0.984 . S
H481 N474 0.984 . S
H482 N470 0.984 . S
H483 N470 0.985 . S
C484 C485 1.363 . S
C484 C490 1.379 . S
C484 N492 1.356 . S
C485 C484 1.363 . S
C485 C491 1.363 . S
C486 C487 1.363 . S
C486 C491 1.379 . S
C486 N493 1.356 . S
C487 C486 1.363 . S
C487 C490 1.363 . S
N488 C490 1.356 . S
N488 H500 0.984 . S
N488 H501 0.985 . S
N489 C491 1.356 . S
N489 H494 0.984 . S
N489 H495 0.985 . S
C490 C484 1.379 . S
C490 C487 1.363 . S
C490 N488 1.356 . S
C491 C485 1.363 . S
C491 C486 1.379 . S
C491 N489 1.356 . S
N492 C484 1.356 . S
N492 H498 0.984 . S
N492 H499 0.984 . S
N493 C486 1.356 . S
N493 H496 0.984 . S
N493 H497 0.985 . S
H494 N489 0.984 . S
H495 N489 0.985 . S
H496 N493 0.984 . S
H497 N493 0.985 . S
H498 N492 0.984 . S
H499 N492 0.984 . S
H500 N488 0.984 . S
H501 N488 0.985 . S
C502 C503 1.363 . S
C502 C508 1.379 . S
C502 N510 1.356 . S
C503 C502 1.363 . S
C503 C509 1.363 . S
C504 C505 1.363 . S
C504 C509 1.379 . S
C504 N511 1.356 . S
C505 C504 1.363 . S
C505 C508 1.363 . S
N506 C508 1.356 . S
N506 H518 0.984 1_455 S
N506 H519 0.985 . S
N507 C509 1.356 . S
N507 H512 0.984 . S
N507 H513 0.985 . S
C508 C502 1.379 . S
C508 C505 1.363 . S
C508 N506 1.356 . S
C509 C503 1.363 . S
C509 C504 1.379 . S
C509 N507 1.356 . S
N510 C502 1.356 . S
N510 H516 0.984 . S
N510 H517 0.984 . S
N511 C504 1.356 . S
N511 H514 0.984 . S
N511 H515 0.985 . S
H512 N507 0.984 . S
H513 N507 0.985 . S
H514 N511 0.984 . S
H515 N511 0.985 . S
H516 N510 0.984 . S
H517 N510 0.984 . S
H518 N506 0.984 1_655 S
H519 N506 0.985 . S
C520 C521 1.363 . S
C520 C526 1.379 . S
C520 N528 1.356 . S
C521 C520 1.363 . S
C521 C527 1.363 . S
C522 C523 1.363 . S
C522 C527 1.379 . S
C522 N529 1.356 . S
C523 C522 1.363 . S
C523 C526 1.363 . S
N524 C526 1.356 . S
N524 H536 0.984 . S
N524 H537 0.985 . S
N525 C527 1.356 . S
N525 H530 0.984 . S
N525 H531 0.985 . S
C526 C520 1.379 . S
C526 C523 1.363 . S
C526 N524 1.356 . S
C527 C521 1.363 . S
C527 C522 1.379 . S
C527 N525 1.356 . S
N528 C520 1.356 . S
N528 H534 0.984 . S
N528 H535 0.984 . S
N529 C522 1.356 . S
N529 H532 0.984 . S
N529 H533 0.985 . S
H530 N525 0.984 . S
H531 N525 0.985 . S
H532 N529 0.984 . S
H533 N529 0.985 . S
H534 N528 0.984 . S
H535 N528 0.984 . S
H536 N524 0.984 . S
H537 N524 0.985 . S
C538 C539 1.363 . S
C538 C544 1.379 . S
C538 N546 1.356 . S
C539 C538 1.363 . S
C539 C545 1.363 . S
C540 C541 1.363 . S
C540 C545 1.379 . S
C540 N547 1.356 . S
C541 C540 1.363 . S
C541 C544 1.363 . S
N542 C544 1.356 . S
N542 H554 0.984 . S
N542 H555 0.985 . S
N543 C545 1.356 . S
N543 H548 0.984 . S
N543 H549 0.985 . S
C544 C538 1.379 . S
C544 C541 1.363 . S
C544 N542 1.356 . S
C545 C539 1.363 . S
C545 C540 1.379 . S
C545 N543 1.356 . S
N546 C538 1.356 . S
N546 H552 0.984 . S
N546 H553 0.984 . S
N547 C540 1.356 . S
N547 H550 0.984 1_545 S
N547 H551 0.985 . S
H548 N543 0.984 . S
H549 N543 0.985 . S
H550 N547 0.984 1_565 S
H551 N547 0.985 . S
H552 N546 0.984 . S
H553 N546 0.984 . S
H554 N542 0.984 . S
H555 N542 0.985 . S
C556 C557 1.363 . S
C556 C562 1.379 . S
C556 N564 1.356 . S
C557 C556 1.363 . S
C557 C563 1.363 . S
C558 C559 1.363 . S
C558 C563 1.379 . S
C558 N565 1.356 . S
C559 C558 1.363 . S
C559 C562 1.363 . S
N560 C562 1.356 . S
N560 H572 0.984 . S
N560 H573 0.985 . S
N561 C563 1.356 . S
N561 H566 0.984 . S
N561 H567 0.985 . S
C562 C556 1.379 . S
C562 C559 1.363 . S
C562 N560 1.356 . S
C563 C557 1.363 . S
C563 C558 1.379 . S
C563 N561 1.356 . S
N564 C556 1.356 . S
N564 H570 0.984 . S
N564 H571 0.984 . S
N565 C558 1.356 . S
N565 H568 0.984 . S
N565 H569 0.985 . S
H566 N561 0.984 . S
H567 N561 0.985 . S
H568 N565 0.984 . S
H569 N565 0.985 . S
H570 N564 0.984 . S
H571 N564 0.984 . S
H572 N560 0.984 . S
H573 N560 0.985 . S
C574 C575 1.363 . S
C574 C580 1.379 . S
C574 N582 1.356 . S
C575 C574 1.363 . S
C575 C581 1.363 . S
C576 C577 1.363 . S
C576 C581 1.379 . S
C576 N583 1.356 . S
C577 C576 1.363 . S
C577 C580 1.363 . S
N578 C580 1.356 . S
N578 H590 0.984 . S
N578 H591 0.985 . S
N579 C581 1.356 . S
N579 H584 0.984 . S
N579 H585 0.985 . S
C580 C574 1.379 . S
C580 C577 1.363 . S
C580 N578 1.356 . S
C581 C575 1.363 . S
C581 C576 1.379 . S
C581 N579 1.356 . S
N582 C574 1.356 . S
N582 H588 0.984 . S
N582 H589 0.984 . S
N583 C576 1.356 . S
N583 H586 0.984 . S
N583 H587 0.985 . S
H584 N579 0.984 . S
H585 N579 0.985 . S
H586 N583 0.984 . S
H587 N583 0.985 . S
H588 N582 0.984 . S
H589 N582 0.984 . S
H590 N578 0.984 . S
H591 N578 0.985 . S
C592 C593 1.363 . S
C592 C598 1.379 . S
C592 N600 1.356 . S
C593 C592 1.363 . S
C593 C599 1.363 . S
C594 C595 1.363 . S
C594 C599 1.379 . S
C594 N601 1.356 . S
C595 C594 1.363 . S
C595 C598 1.363 . S
N596 C598 1.356 . S
N596 H608 0.984 . S
N596 H609 0.985 . S
N597 C599 1.356 . S
N597 H602 0.984 . S
N597 H603 0.985 . S
C598 C592 1.379 . S
C598 C595 1.363 . S
C598 N596 1.356 . S
C599 C593 1.363 . S
C599 C594 1.379 . S
C599 N597 1.356 . S
N600 C592 1.356 . S
N600 H606 0.984 . S
N600 H607 0.984 . S
N601 C594 1.356 . S
N601 H604 0.984 . S
N601 H605 0.985 . S
H602 N597 0.984 . S
H603 N597 0.985 . S
H604 N601 0.984 . S
H605 N601 0.985 . S
H606 N600 0.984 . S
H607 N600 0.984 . S
H608 N596 0.984 . S
H609 N596 0.985 . S
C610 C611 1.363 . S
C610 C616 1.379 . S
C610 N618 1.356 . S
C611 C610 1.363 . S
C611 C617 1.363 . S
C612 C613 1.363 . S
C612 C617 1.379 . S
C612 N619 1.356 . S
C613 C612 1.363 . S
C613 C616 1.363 . S
N614 C616 1.356 . S
N614 H626 0.984 . S
N614 H627 0.985 . S
N615 C617 1.356 . S
N615 H620 0.984 . S
N615 H621 0.985 . S
C616 C610 1.379 . S
C616 C613 1.363 . S
C616 N614 1.356 . S
C617 C611 1.363 . S
C617 C612 1.379 . S
C617 N615 1.356 . S
N618 C610 1.356 . S
N618 H624 0.984 . S
N618 H625 0.984 . S
N619 C612 1.356 . S
N619 H622 0.984 . S
N619 H623 0.985 . S
H620 N615 0.984 . S
H621 N615 0.985 . S
H622 N619 0.984 . S
H623 N619 0.985 . S
H624 N618 0.984 . S
H625 N618 0.984 . S
H626 N614 0.984 . S
H627 N614 0.985 . S
C628 C629 1.363 . S
C628 C634 1.379 . S
C628 N636 1.356 . S
C629 C628 1.363 . S
C629 C635 1.363 . S
C630 C631 1.363 . S
C630 C635 1.379 . S
C630 N637 1.356 . S
C631 C630 1.363 . S
C631 C634 1.363 . S
N632 C634 1.356 . S
N632 H644 0.984 . S
N632 H645 0.985 . S
N633 C635 1.356 . S
N633 H638 0.984 . S
N633 H639 0.985 . S
C634 C628 1.379 . S
C634 C631 1.363 . S
C634 N632 1.356 . S
C635 C629 1.363 . S
C635 C630 1.379 . S
C635 N633 1.356 . S
N636 C628 1.356 . S
N636 H642 0.984 . S
N636 H643 0.984 . S
N637 C630 1.356 . S
N637 H640 0.984 . S
N637 H641 0.985 1_455 S
H638 N633 0.984 . S
H639 N633 0.985 . S
H640 N637 0.984 . S
H641 N637 0.985 1_655 S
H642 N636 0.984 . S
H643 N636 0.984 . S
H644 N632 0.984 . S
H645 N632 0.985 . S
C646 C647 1.363 . S
C646 C652 1.379 . S
C646 N654 1.356 . S
C647 C646 1.363 . S
C647 C653 1.363 . S
C648 C649 1.363 . S
C648 C653 1.379 . S
C648 N655 1.356 . S
C649 C648 1.363 . S
C649 C652 1.363 . S
N650 C652 1.356 . S
N650 H662 0.984 . S
N650 H663 0.985 . S
N651 C653 1.356 . S
N651 H656 0.984 . S
N651 H657 0.985 . S
C652 C646 1.379 . S
C652 C649 1.363 . S
C652 N650 1.356 . S
C653 C647 1.363 . S
C653 C648 1.379 . S
C653 N651 1.356 . S
N654 C646 1.356 . S
N654 H660 0.984 . S
N654 H661 0.984 . S
N655 C648 1.356 . S
N655 H658 0.984 . S
N655 H659 0.985 . S
H656 N651 0.984 . S
H657 N651 0.985 . S
H658 N655 0.984 . S
H659 N655 0.985 . S
H660 N654 0.984 . S
H661 N654 0.984 . S
H662 N650 0.984 . S
H663 N650 0.985 . S
C233 C5 1.033 . S
C235 C79 1.047 . S
C251 C14 1.018 . S
C253 C128 1.023 . S
C271 C154 2.513 . S
C269 C25 2.573 . S
C287 C34 2.525 . S
C289 C202 2.481 . S
C307 C114 2.024 . S
C305 C7 1.869 . S
C325 C82 0.734 . S
C323 C13 0.733 . S
C343 C203 1.953 . S
C341 C23 2.009 . S
C361 C171 1.795 . S
C359 C31 1.813 . S
C377 C4 1.387 . S
C379 C199 1.447 . S
C397 C131 2.359 . S
C395 C22 2.444 . S
C413 C32 2.382 . S
C415 C83 2.371 . S
C431 C16 1.076 . S
C433 C168 1.106 . S
C451 C88 1.039 . S
C449 C41 1.021 . S
C467 C50 1.025 . S
C469 C119 1.027 . S
C485 C61 2.566 . S
C487 C163 2.507 . S
C503 C67 2.532 . S
C505 C211 2.490 . S
C521 C40 1.887 . S
C523 C123 2.038 . S
C541 C91 0.713 . S
C539 C52 0.711 . S
C559 C194 1.958 . S
C557 C59 2.017 . S
C577 C162 1.795 . S
C575 C70 1.809 . S
C593 C43 1.379 . S
C595 C208 1.443 . S
C613 C122 2.369 . S
C611 C58 2.455 . S
C631 C74 2.355 . S
C629 C68 2.364 . S
C647 C49 1.086 . S
C649 C159 1.110 . S
