# Generated by pormake.
# Topology ptr, (4,4)-cn, num edge types: 1
# Building blocks:
#     Node 0, Type 0, BuildingBlock: GALJAG_clean_sbu_0, # of connection points: 4
#     Node 1, Type 0, BuildingBlock: GALJAG_clean_sbu_0, # of connection points: 4
#     Node 2, Type 0, BuildingBlock: GALJAG_clean_sbu_0, # of connection points: 4
#     Node 3, Type 0, BuildingBlock: GALJAG_clean_sbu_0, # of connection points: 4
#     Node 4, Type 0, BuildingBlock: GALJAG_clean_sbu_0, # of connection points: 4
#     Node 5, Type 0, BuildingBlock: GALJAG_clean_sbu_0, # of connection points: 4
#     Node 6, Type 0, BuildingBlock: GALJAG_clean_sbu_0, # of connection points: 4
#     Node 7, Type 0, BuildingBlock: GALJAG_clean_sbu_0, # of connection points: 4
#     Node 8, Type 0, BuildingBlock: GALJAG_clean_sbu_0, # of connection points: 4
#     Node 9, Type 0, BuildingBlock: GALJAG_clean_sbu_0, # of connection points: 4
#     Node 10, Type 0, BuildingBlock: GALJAG_clean_sbu_0, # of connection points: 4
#     Node 11, Type 0, BuildingBlock: GALJAG_clean_sbu_0, # of connection points: 4
#     Node 12, Type 0, BuildingBlock: GALJAG_clean_sbu_0, # of connection points: 4
#     Node 13, Type 0, BuildingBlock: GALJAG_clean_sbu_0, # of connection points: 4
#     Node 14, Type 0, BuildingBlock: GALJAG_clean_sbu_0, # of connection points: 4
#     Node 15, Type 0, BuildingBlock: GALJAG_clean_sbu_0, # of connection points: 4
#     Node 16, Type 0, BuildingBlock: GALJAG_clean_sbu_0, # of connection points: 4
#     Node 17, Type 0, BuildingBlock: GALJAG_clean_sbu_0, # of connection points: 4
#     Node 18, Type 1, BuildingBlock: KUFVIS_clean_linker_0, # of connection points: 4
#     Node 19, Type 1, BuildingBlock: KUFVIS_clean_linker_0, # of connection points: 4
#     Node 20, Type 1, BuildingBlock: KUFVIS_clean_linker_0, # of connection points: 4
#     Node 21, Type 1, BuildingBlock: KUFVIS_clean_linker_0, # of connection points: 4
#     Node 22, Type 1, BuildingBlock: KUFVIS_clean_linker_0, # of connection points: 4
#     Node 23, Type 1, BuildingBlock: KUFVIS_clean_linker_0, # of connection points: 4
#     Node 24, Type 1, BuildingBlock: KUFVIS_clean_linker_0, # of connection points: 4
#     Node 25, Type 1, BuildingBlock: KUFVIS_clean_linker_0, # of connection points: 4
#     Node 26, Type 1, BuildingBlock: KUFVIS_clean_linker_0, # of connection points: 4
#     Node 27, Type 1, BuildingBlock: KUFVIS_clean_linker_0, # of connection points: 4
#     Node 28, Type 1, BuildingBlock: KUFVIS_clean_linker_0, # of connection points: 4
#     Node 29, Type 1, BuildingBlock: KUFVIS_clean_linker_0, # of connection points: 4
#     Node 30, Type 1, BuildingBlock: KUFVIS_clean_linker_0, # of connection points: 4
#     Node 31, Type 1, BuildingBlock: KUFVIS_clean_linker_0, # of connection points: 4
#     Node 32, Type 1, BuildingBlock: KUFVIS_clean_linker_0, # of connection points: 4
#     Node 33, Type 1, BuildingBlock: KUFVIS_clean_linker_0, # of connection points: 4
#     Node 34, Type 1, BuildingBlock: KUFVIS_clean_linker_0, # of connection points: 4
#     Node 35, Type 1, BuildingBlock: KUFVIS_clean_linker_0, # of connection points: 4
#     Edge 36, Type (0, 1), BuildingBlock: AJUNOK_clean_linker_0, # of connection points: 2
#     Edge 37, Type (0, 1), BuildingBlock: AJUNOK_clean_linker_0, # of connection points: 2
#     Edge 38, Type (0, 1), BuildingBlock: AJUNOK_clean_linker_0, # of connection points: 2
#     Edge 39, Type (0, 1), BuildingBlock: AJUNOK_clean_linker_0, # of connection points: 2
#     Edge 40, Type (0, 1), BuildingBlock: AJUNOK_clean_linker_0, # of connection points: 2
#     Edge 41, Type (0, 1), BuildingBlock: AJUNOK_clean_linker_0, # of connection points: 2
#     Edge 42, Type (0, 1), BuildingBlock: AJUNOK_clean_linker_0, # of connection points: 2
#     Edge 43, Type (0, 1), BuildingBlock: AJUNOK_clean_linker_0, # of connection points: 2
#     Edge 44, Type (0, 1), BuildingBlock: AJUNOK_clean_linker_0, # of connection points: 2
#     Edge 45, Type (0, 1), BuildingBlock: AJUNOK_clean_linker_0, # of connection points: 2
#     Edge 46, Type (0, 1), BuildingBlock: AJUNOK_clean_linker_0, # of connection points: 2
#     Edge 47, Type (0, 1), BuildingBlock: AJUNOK_clean_linker_0, # of connection points: 2
#     Edge 48, Type (0, 1), BuildingBlock: AJUNOK_clean_linker_0, # of connection points: 2
#     Edge 49, Type (0, 1), BuildingBlock: AJUNOK_clean_linker_0, # of connection points: 2
#     Edge 50, Type (0, 1), BuildingBlock: AJUNOK_clean_linker_0, # of connection points: 2
#     Edge 51, Type (0, 1), BuildingBlock: AJUNOK_clean_linker_0, # of connection points: 2
#     Edge 52, Type (0, 1), BuildingBlock: AJUNOK_clean_linker_0, # of connection points: 2
#     Edge 53, Type (0, 1), BuildingBlock: AJUNOK_clean_linker_0, # of connection points: 2
#     Edge 54, Type (0, 1), BuildingBlock: AJUNOK_clean_linker_0, # of connection points: 2
#     Edge 55, Type (0, 1), BuildingBlock: AJUNOK_clean_linker_0, # of connection points: 2
#     Edge 56, Type (0, 1), BuildingBlock: AJUNOK_clean_linker_0, # of connection points: 2
#     Edge 57, Type (0, 1), BuildingBlock: AJUNOK_clean_linker_0, # of connection points: 2
#     Edge 58, Type (0, 1), BuildingBlock: AJUNOK_clean_linker_0, # of connection points: 2
#     Edge 59, Type (0, 1), BuildingBlock: AJUNOK_clean_linker_0, # of connection points: 2
#     Edge 60, Type (0, 1), BuildingBlock: AJUNOK_clean_linker_0, # of connection points: 2
#     Edge 61, Type (0, 1), BuildingBlock: AJUNOK_clean_linker_0, # of connection points: 2
#     Edge 62, Type (0, 1), BuildingBlock: AJUNOK_clean_linker_0, # of connection points: 2
#     Edge 63, Type (0, 1), BuildingBlock: AJUNOK_clean_linker_0, # of connection points: 2
#     Edge 64, Type (0, 1), BuildingBlock: AJUNOK_clean_linker_0, # of connection points: 2
#     Edge 65, Type (0, 1), BuildingBlock: AJUNOK_clean_linker_0, # of connection points: 2
#     Edge 66, Type (0, 1), BuildingBlock: AJUNOK_clean_linker_0, # of connection points: 2
#     Edge 67, Type (0, 1), BuildingBlock: AJUNOK_clean_linker_0, # of connection points: 2
#     Edge 68, Type (0, 1), BuildingBlock: AJUNOK_clean_linker_0, # of connection points: 2
#     Edge 69, Type (0, 1), BuildingBlock: AJUNOK_clean_linker_0, # of connection points: 2
#     Edge 70, Type (0, 1), BuildingBlock: AJUNOK_clean_linker_0, # of connection points: 2
#     Edge 71, Type (0, 1), BuildingBlock: AJUNOK_clean_linker_0, # of connection points: 2
#     Edge 72, Type (0, 1), BuildingBlock: AJUNOK_clean_linker_0, # of connection points: 2
#     Edge 73, Type (0, 1), BuildingBlock: AJUNOK_clean_linker_0, # of connection points: 2
#     Edge 74, Type (0, 1), BuildingBlock: AJUNOK_clean_linker_0, # of connection points: 2
#     Edge 75, Type (0, 1), BuildingBlock: AJUNOK_clean_linker_0, # of connection points: 2
#     Edge 76, Type (0, 1), BuildingBlock: AJUNOK_clean_linker_0, # of connection points: 2
#     Edge 77, Type (0, 1), BuildingBlock: AJUNOK_clean_linker_0, # of connection points: 2
#     Edge 78, Type (0, 1), BuildingBlock: AJUNOK_clean_linker_0, # of connection points: 2
#     Edge 79, Type (0, 1), BuildingBlock: AJUNOK_clean_linker_0, # of connection points: 2
#     Edge 80, Type (0, 1), BuildingBlock: AJUNOK_clean_linker_0, # of connection points: 2
#     Edge 81, Type (0, 1), BuildingBlock: AJUNOK_clean_linker_0, # of connection points: 2
#     Edge 82, Type (0, 1), BuildingBlock: AJUNOK_clean_linker_0, # of connection points: 2
#     Edge 83, Type (0, 1), BuildingBlock: AJUNOK_clean_linker_0, # of connection points: 2
#     Edge 84, Type (0, 1), BuildingBlock: AJUNOK_clean_linker_0, # of connection points: 2
#     Edge 85, Type (0, 1), BuildingBlock: AJUNOK_clean_linker_0, # of connection points: 2
#     Edge 86, Type (0, 1), BuildingBlock: AJUNOK_clean_linker_0, # of connection points: 2
#     Edge 87, Type (0, 1), BuildingBlock: AJUNOK_clean_linker_0, # of connection points: 2
#     Edge 88, Type (0, 1), BuildingBlock: AJUNOK_clean_linker_0, # of connection points: 2
#     Edge 89, Type (0, 1), BuildingBlock: AJUNOK_clean_linker_0, # of connection points: 2
#     Edge 90, Type (0, 1), BuildingBlock: AJUNOK_clean_linker_0, # of connection points: 2
#     Edge 91, Type (0, 1), BuildingBlock: AJUNOK_clean_linker_0, # of connection points: 2
#     Edge 92, Type (0, 1), BuildingBlock: AJUNOK_clean_linker_0, # of connection points: 2
#     Edge 93, Type (0, 1), BuildingBlock: AJUNOK_clean_linker_0, # of connection points: 2
#     Edge 94, Type (0, 1), BuildingBlock: AJUNOK_clean_linker_0, # of connection points: 2
#     Edge 95, Type (0, 1), BuildingBlock: AJUNOK_clean_linker_0, # of connection points: 2
#     Edge 96, Type (0, 1), BuildingBlock: AJUNOK_clean_linker_0, # of connection points: 2
#     Edge 97, Type (0, 1), BuildingBlock: AJUNOK_clean_linker_0, # of connection points: 2
#     Edge 98, Type (0, 1), BuildingBlock: AJUNOK_clean_linker_0, # of connection points: 2
#     Edge 99, Type (0, 1), BuildingBlock: AJUNOK_clean_linker_0, # of connection points: 2
#     Edge 100, Type (0, 1), BuildingBlock: AJUNOK_clean_linker_0, # of connection points: 2
#     Edge 101, Type (0, 1), BuildingBlock: AJUNOK_clean_linker_0, # of connection points: 2
#     Edge 102, Type (0, 1), BuildingBlock: AJUNOK_clean_linker_0, # of connection points: 2
#     Edge 103, Type (0, 1), BuildingBlock: AJUNOK_clean_linker_0, # of connection points: 2
#     Edge 104, Type (0, 1), BuildingBlock: AJUNOK_clean_linker_0, # of connection points: 2
#     Edge 105, Type (0, 1), BuildingBlock: AJUNOK_clean_linker_0, # of connection points: 2
#     Edge 106, Type (0, 1), BuildingBlock: AJUNOK_clean_linker_0, # of connection points: 2
#     Edge 107, Type (0, 1), BuildingBlock: AJUNOK_clean_linker_0, # of connection points: 2
# Relax obj value: 0.068
# Max RMSD: 0.101
# Mean RMSD: 0.096
data_MOF--net-ptr--node1-GALJAG_clean_sbu_0--node2-KUFVIS_clean_linker_0--edge1-AJUNOK_clean_linker_0
_symmetry_space_group_name_H-M    P1
_symmetry_Int_Tables_number       1
_symmetry_cell_setting            triclinic
loop_
_symmetry_equiv_pos_as_xyz
'x, y, z'
_cell_length_a     55.933753
_cell_length_b     55.942178
_cell_length_c     39.884977
_cell_angle_alpha  89.969544
_cell_angle_beta   90.011596
_cell_angle_gamma 120.07092
loop_
_atom_site_label
_atom_site_type_symbol
_atom_site_fract_x
_atom_site_fract_y
_atom_site_fract_z
_atom_type_partial_charge
In0 In 0.0501 0.39427 -0.01045 0.0
O1 O 1.03043 0.39811 0.03795 0.0
O2 O 0.06824 0.43265 0.02235 0.0
C3 C 1.00877 0.34387 0.9708 0.0
C4 C 0.09057 0.38481 0.01008 0.0
C5 C 0.05268 0.42535 0.9363 0.0
O6 O 1.00465 0.35954 -0.01026 0.0
O7 O 1.0334 0.35392 0.96093 0.0
O8 O 0.06912 0.41627 0.94002 0.0
O9 O 1.03472 0.41821 0.95901 0.0
C10 C 0.04913 0.42267 0.04374 0.0
O11 O 0.09545 0.40498 -0.00863 0.0
O12 O 0.06554 0.36968 0.01806 0.0
In13 In 0.67935 0.67078 -0.00872 0.0
O14 O 0.68015 0.65104 0.04119 0.0
O15 O 0.64193 0.64612 0.02454 0.0
C16 C 0.72922 0.67951 0.97107 0.0
C17 C 0.68561 0.72 0.01053 0.0
C18 C 0.64819 0.64212 0.93813 0.0
O19 O 0.71307 0.65883 -0.01145 0.0
O20 O 0.72 0.69529 0.9635 0.0
O21 O 0.6579 0.66782 0.94112 0.0
O22 O 0.65471 0.63133 0.96145 0.0
C23 C 0.65462 0.6407 0.04661 0.0
O24 O 0.66431 0.70217 -0.00472 0.0
O25 O 0.7034 0.71291 0.01597 0.0
In26 In 0.40022 0.02635 -0.0089 0.0
O27 O 0.41293 0.07228 -0.00987 0.0
O28 O 0.377 0.04387 0.96321 0.0
C29 C 0.43002 0.02906 0.0456 0.0
C30 C 0.42913 1.02412 0.93806 0.0
C31 C 0.35018 0.98454 0.01033 0.0
O32 O 0.42113 0.04558 0.04108 0.0
O33 O 0.42325 1.01101 0.02312 0.0
O34 O 0.36691 0.98032 -0.00629 0.0
O35 O 0.35878 1.00954 0.01723 0.0
C36 C 0.39287 0.06859 0.97198 0.0
O37 O 0.40336 1.00813 0.94079 0.0
O38 O 0.43978 0.04133 0.96151 0.0
In39 In 1.0355 0.6673 -0.00113 0.0
O40 O 0.05486 0.66271 0.95068 0.0
O41 O 1.01608 0.62912 0.96551 0.0
C42 C 0.07655 0.7176 0.01794 0.0
C43 C 0.99614 0.67881 0.97943 0.0
C44 C 1.03426 0.63581 0.05113 0.0
O45 O 0.08063 0.70265 -0.0023 0.0
O46 O 0.05218 0.70685 0.02897 0.0
O47 O 1.01693 0.64389 0.04804 0.0
O48 O 0.05222 0.64407 0.02833 0.0
C49 C 1.0355 0.63853 0.94449 0.0
O50 O 0.99083 0.65887 -0.00117 0.0
O51 O 1.02093 0.69236 0.96984 0.0
In52 In 0.40328 0.38821 -0.00332 0.0
O53 O 0.40793 0.41164 0.94799 0.0
O54 O 0.44208 0.40806 0.96443 0.0
C55 C 0.35252 0.37718 0.0157 0.0
C56 C 0.39257 0.33734 0.97835 0.0
C57 C 0.43305 0.41929 0.04936 0.0
O58 O 0.36676 0.39606 -0.00515 0.0
O59 O 0.36415 0.36453 0.02713 0.0
O60 O 0.42758 0.39465 0.04527 0.0
O61 O 0.4233 0.42795 0.0271 0.0
C62 C 0.43249 0.41733 0.94269 0.0
O63 O 0.41234 0.35237 -0.00222 0.0
O64 O 0.37888 0.3482 0.96808 0.0
In65 In 0.68515 0.03491 -0.00234 0.0
O66 O 0.67905 0.05124 0.04764 0.0
O67 O 0.645 1.01528 0.02723 0.0
C68 C 0.73515 0.0771 0.97938 0.0
C69 C 0.69558 0.99445 0.01558 0.0
C70 C 0.65577 0.03459 0.94383 0.0
O71 O 0.71891 0.08082 -0.00224 0.0
O72 O 0.72619 0.05239 0.97065 0.0
O73 O 0.66275 1.01656 0.94828 0.0
O74 O 0.66388 0.05278 0.96633 0.0
C75 C 0.654 0.03267 0.05067 0.0
O76 O 0.67715 0.99052 -0.0056 0.0
O77 O 0.70848 1.01859 0.0275 0.0
In78 In 0.71616 0.72733 0.32217 0.0
O79 O 0.69798 0.73111 0.37179 0.0
O80 O 0.73439 0.76623 0.35402 0.0
C81 C 0.67246 0.67802 0.30444 0.0
C82 C 0.75684 0.71759 0.3413 0.0
C83 C 0.71922 0.75796 0.26827 0.0
O84 O 0.66969 0.69543 0.32161 0.0
O85 O 0.69703 0.68558 0.29624 0.0
O86 O 0.73424 0.74716 0.27126 0.0
O87 O 0.70255 0.75282 0.29206 0.0
C88 C 0.71615 0.75607 0.37646 0.0
O89 O 0.76154 0.73803 0.32324 0.0
O90 O 0.73185 0.70226 0.34935 0.0
In91 In 0.34496 1.00459 0.32522 0.0
O92 O 0.34338 0.98389 0.37511 0.0
O93 O 0.30682 0.98274 0.35835 0.0
C94 C 0.3946 1.01183 0.30631 0.0
C95 C 0.353 0.05457 0.3437 0.0
C96 C 0.31429 0.97545 0.27206 0.0
O97 O 0.3782 0.99192 0.32466 0.0
O98 O 0.3859 0.02782 0.29764 0.0
O99 O 0.32424 1.00124 0.27443 0.0
O100 O 0.32015 0.96479 0.29616 0.0
C101 C 0.31824 0.97587 0.38057 0.0
O102 O 0.33212 0.0377 0.327 0.0
O103 O 0.3696 0.04624 0.35068 0.0
In104 In 0.06311 0.35549 0.32364 0.0
O105 O 0.0698 0.39949 0.3277 0.0
O106 O 0.04112 0.37217 0.29169 0.0
C107 C 0.09223 0.35551 0.37762 0.0
C108 C 0.0937 0.35377 0.27217 0.0
C109 C 1.01272 0.31531 0.34303 0.0
O110 O 0.07652 0.33397 0.36132 0.0
O111 O 0.09279 0.37712 0.36726 0.0
O112 O 1.02775 0.31057 0.32369 0.0
O113 O 1.02313 0.34015 0.35228 0.0
C114 C 0.05249 0.39579 0.30504 0.0
O115 O 0.06808 0.33706 0.27452 0.0
O116 O 0.10346 0.37138 0.2953 0.0
In117 In 0.70196 0.99935 0.33077 0.0
O118 O 0.72293 0.99548 0.28372 0.0
O119 O 0.68368 0.96162 0.29633 0.0
C120 C 0.74306 0.04945 0.35054 0.0
C121 C 0.66288 1.01119 0.31112 0.0
C122 C 0.69892 0.96804 0.38413 0.0
O123 O 0.74723 0.03443 0.33052 0.0
O124 O 0.7185 0.03893 0.36081 0.0
O125 O 0.68193 0.97631 0.37954 0.0
O126 O 0.71744 0.97581 0.36206 0.0
C127 C 0.70392 0.97142 0.27646 0.0
O128 O 0.6572 0.99054 0.32935 0.0
O129 O 0.68786 0.02513 0.30238 0.0
In130 In 0.07334 0.71988 0.33261 0.0
O131 O 0.07731 0.74341 0.28401 0.0
O132 O 0.11202 0.74078 0.30021 0.0
C133 C 1.0226 0.71 0.35116 0.0
C134 C 0.06391 0.66981 0.31252 0.0
C135 C 0.10352 0.74813 0.38664 0.0
O136 O 0.03811 0.72989 0.33216 0.0
O137 O 1.03297 0.69575 0.36113 0.0
O138 O 0.09508 0.72278 0.38235 0.0
O139 O 0.09632 0.75895 0.364 0.0
C140 C 0.10203 0.74969 0.27855 0.0
O141 O 0.08453 0.68556 0.33036 0.0
O142 O 0.04855 0.67947 0.30479 0.0
In143 In 0.35261 0.36986 0.33291 0.0
O144 O 0.34056 0.32408 0.33224 0.0
O145 O 0.37506 0.3519 0.36162 0.0
C146 C 0.3237 0.37009 0.27874 0.0
C147 C 0.3242 0.37295 0.38606 0.0
C148 C 0.40362 0.409 0.31314 0.0
O149 O 0.32888 0.35094 0.28445 0.0
O150 O 0.33341 0.38921 0.30015 0.0
O151 O 0.38923 0.41434 0.33283 0.0
O152 O 0.3922 0.3842 0.30361 0.0
C153 C 0.35993 0.32745 0.35148 0.0
O154 O 0.34975 0.38933 0.38221 0.0
O155 O 0.3133 0.35486 0.36352 0.0
In156 In 0.38021 0.06011 0.65889 0.0
O157 O 0.42646 0.07426 0.66323 0.0
O158 O 0.39742 0.03593 0.68505 0.0
C159 C 0.383 0.09038 0.60455 0.0
C160 C 0.37523 0.08621 0.71315 0.0
C161 C 0.33946 1.00951 0.63999 0.0
O162 O 0.39952 0.08151 0.60907 0.0
O163 O 0.3649 0.08348 0.62702 0.0
O164 O 0.33487 0.02533 0.65801 0.0
O165 O 0.3643 1.01952 0.63102 0.0
C166 C 0.42245 0.0531 0.67925 0.0
O167 O 0.35922 0.06082 0.70778 0.0
O168 O 0.39393 0.09817 0.69149 0.0
In169 In 1.01178 0.34065 0.65665 0.0
O170 O 1.00074 0.37507 0.65746 0.0
O171 O 1.03646 0.38142 0.68387 0.0
C172 C 0.98045 0.31031 0.60456 0.0
C173 C 0.98334 0.31162 0.71113 0.0
C174 C 0.06175 0.34928 0.63665 0.0
O175 O 0.98885 0.33581 0.60728 0.0
O176 O 0.98836 0.30054 0.62765 0.0
O177 O 0.04716 0.33097 0.65791 0.0
O178 O 0.05105 0.36294 0.62563 0.0
C179 C 1.02103 0.3909 0.67569 0.0
O180 O 1.00816 0.31811 0.70593 0.0
O181 O 0.9732 0.32006 0.68909 0.0
In182 In 0.7344 0.69172 0.65619 0.0
O183 O 0.74477 0.73689 0.65532 0.0
O184 O 0.71047 0.7077 0.62673 0.0
C185 C 0.76583 0.69814 0.71063 0.0
C186 C 0.76185 0.6881 0.60225 0.0
C187 C 0.68513 0.64968 0.67736 0.0
O188 O 0.7561 0.71373 0.70462 0.0
O189 O 0.75923 0.67908 0.68954 0.0
O190 O 0.70253 0.64548 0.66231 0.0
O191 O 0.69271 0.6748 0.68174 0.0
C192 C 0.72502 0.73247 0.63613 0.0
O193 O 0.7364 0.67175 0.60685 0.0
O194 O 0.77313 0.70645 0.62442 0.0
In195 In 0.37054 0.33545 0.66282 0.0
O196 O 0.38991 0.33241 0.61389 0.0
O197 O 0.35381 0.29658 0.63091 0.0
C198 C 0.41047 0.38667 0.68062 0.0
C199 C 0.32786 0.34241 0.64449 0.0
C200 C 0.37323 0.30712 0.71626 0.0
O201 O 0.41465 0.37237 0.65943 0.0
O202 O 0.38634 0.37507 0.69263 0.0
O203 O 0.35436 0.31309 0.71298 0.0
O204 O 0.39062 0.31562 0.6928 0.0
C205 C 0.37244 0.30729 0.60893 0.0
O206 O 0.32429 0.32202 0.66192 0.0
O207 O 0.35263 0.35892 0.63661 0.0
In208 In 0.73817 0.05251 0.66667 0.0
O209 O 0.7401 0.07536 0.61851 0.0
O210 O 0.77566 0.07329 0.63227 0.0
C211 C 0.68751 0.04244 0.68542 0.0
C212 C 0.72963 1.00262 0.64699 0.0
C213 C 0.76932 0.08273 0.71917 0.0
O214 O 0.70259 0.0618 0.66558 0.0
O215 O 0.69828 0.0288 0.69627 0.0
O216 O 0.76053 0.05714 0.71665 0.0
O217 O 0.7619 0.09261 0.69571 0.0
C218 C 0.76466 0.08193 0.61161 0.0
O219 O 0.7507 1.01912 0.6637 0.0
O220 O 0.71337 1.01141 0.64031 0.0
In221 In 1.01799 0.70077 0.66388 0.0
O222 O 1.01228 0.65738 0.66043 0.0
O223 O 0.04287 0.68638 0.69378 0.0
C224 C 0.9882 0.70057 0.6104 0.0
C225 C 0.98641 0.69655 0.71721 0.0
C226 C 0.06871 0.74194 0.64694 0.0
O227 O 0.99403 0.6818 0.61542 0.0
O228 O 0.99729 0.7192 0.63236 0.0
O229 O 0.05386 0.74562 0.66781 0.0
O230 O 0.0579 0.71793 0.63484 0.0
C231 C 1.03103 0.66227 0.68161 0.0
O232 O 0.98155 0.67638 0.69873 0.0
O233 O 1.00739 0.71913 0.70898 0.0
H234 H 0.2973 0.36861 0.12895 0.0
H235 H 0.23011 0.36323 0.07176 0.0
H236 H 0.23303 0.37356 0.18 0.0
H237 H 0.18932 0.35296 0.1777 0.0
H238 H 0.12727 0.36149 0.12636 0.0
H239 H 0.19977 0.37686 0.07267 0.0
C240 C 0.27782 0.36846 0.12811 0.0
C241 C 0.26581 0.37025 0.15784 0.0
C242 C 0.26531 0.36669 0.09724 0.0
C243 C 0.23986 0.36594 0.09595 0.0
C244 C 0.22711 0.36783 0.1258 0.0
C245 C 0.24114 0.37097 0.15658 0.0
C246 C 0.19914 0.36576 0.12536 0.0
C247 C 0.18283 0.35844 0.15487 0.0
C248 C 0.15747 0.35777 0.15557 0.0
C249 C 0.14696 0.36209 0.12599 0.0
C250 C 0.1618 0.36806 0.09605 0.0
C251 C 0.18821 0.37084 0.09584 0.0
H252 H 0.70589 0.94683 0.12831 0.0
H253 H 0.70748 0.88388 0.06901 0.0
H254 H 0.69873 0.87602 0.17746 0.0
H255 H 0.71937 0.85289 0.17368 0.0
H256 H 0.70864 0.78177 0.12155 0.0
H257 H 0.69272 0.83927 0.06958 0.0
C258 C 0.70527 0.92716 0.12676 0.0
C259 C 0.70357 0.91299 0.15612 0.0
C260 C 0.70597 0.91639 0.09546 0.0
C261 C 0.7056 0.89109 0.09346 0.0
C262 C 0.70373 0.87606 0.12302 0.0
C263 C 0.70152 0.88704 0.15422 0.0
C264 C 0.70524 0.84984 0.12192 0.0
C265 C 0.7133 0.84088 0.15086 0.0
C266 C 0.71417 0.8163 0.15093 0.0
C267 C 0.70836 0.80103 0.12151 0.0
C268 C 0.70152 0.80974 0.0921 0.0
C269 C 0.69919 0.83365 0.09234 0.0
H270 H 0.29072 0.94369 0.12381 0.0
H271 H 0.23159 0.87227 0.06978 0.0
H272 H 0.21931 0.88286 0.17513 0.0
H273 H 0.19569 0.8395 0.17803 0.0
H274 H 0.12557 0.77512 0.12849 0.0
H275 H 0.18765 0.841 0.0697 0.0
C276 C 0.27133 0.92423 0.12347 0.0
C277 C 0.25647 0.9139 0.15306 0.0
C278 C 0.26186 0.9097 0.09341 0.0
C279 C 0.23767 0.8836 0.0931 0.0
C280 C 0.22179 0.87272 0.12281 0.0
C281 C 0.23128 0.88899 0.15229 0.0
C282 C 0.19557 0.84486 0.1237 0.0
C283 C 0.18474 0.83126 0.15478 0.0
C284 C 0.15915 0.80681 0.15665 0.0
C285 C 0.14503 0.79448 0.1272 0.0
C286 C 0.15566 0.8064 0.09603 0.0
C287 C 0.18062 0.8317 0.09411 0.0
H288 H 0.37786 0.11374 0.86103 0.0
H289 H 0.38833 0.18292 0.91797 0.0
H290 H 0.37048 0.17672 0.81095 0.0
H291 H 0.38357 0.21849 0.81069 0.0
H292 H 0.37891 0.28126 0.86517 0.0
H293 H 0.37967 0.21598 0.91977 0.0
C294 C 0.37807 0.13324 0.86202 0.0
C295 C 0.37438 0.14447 0.83275 0.0
C296 C 0.38223 0.14674 0.89264 0.0
C297 C 0.38408 0.17274 0.89394 0.0
C298 C 0.38022 0.18482 0.8645 0.0
C299 C 0.37488 0.16972 0.83408 0.0
C300 C 0.3811 0.2124 0.86516 0.0
C301 C 0.38194 0.22619 0.83482 0.0
C302 C 0.38021 0.25033 0.83478 0.0
C303 C 0.37952 0.26216 0.86514 0.0
C304 C 0.38001 0.25007 0.89551 0.0
C305 C 0.38043 0.22516 0.89572 0.0
H306 H 0.79495 0.11665 0.86575 0.0
H307 H 0.85346 0.18875 0.91916 0.0
H308 H 0.86572 0.17789 0.81385 0.0
H309 H 0.8896 0.22124 0.81104 0.0
H310 H 0.95906 0.28624 0.86084 0.0
H311 H 0.8973 0.22001 0.91947 0.0
C312 C 0.81422 0.13621 0.86596 0.0
C313 C 0.82892 0.1465 0.83626 0.0
C314 C 0.82355 0.151 0.89589 0.0
C315 C 0.84752 0.17724 0.89596 0.0
C316 C 0.86336 0.18808 0.86624 0.0
C317 C 0.8539 0.17167 0.83679 0.0
C318 C 0.88948 0.21604 0.86541 0.0
C319 C 0.90037 0.22962 0.83434 0.0
C320 C 0.9258 0.25426 0.8326 0.0
C321 C 0.93971 0.26677 0.86209 0.0
C322 C 0.9291 0.25481 0.89323 0.0
C323 C 0.9043 0.22933 0.89506 0.0
H324 H 0.79116 0.69866 0.85887 0.0
H325 H 0.84801 0.68543 0.91616 0.0
H326 H 0.86166 0.70523 0.8098 0.0
H327 H 0.88728 0.68807 0.80947 0.0
H328 H 0.95271 0.68844 0.86395 0.0
H329 H 0.89045 0.69516 0.91831 0.0
C330 C 0.81031 0.69818 0.86011 0.0
C331 C 0.82543 0.70178 0.831 0.0
C332 C 0.81901 0.69324 0.89077 0.0
C333 C 0.84268 0.69058 0.89226 0.0
C334 C 0.85887 0.69456 0.86308 0.0
C335 C 0.84992 0.7008 0.83268 0.0
C336 C 0.88471 0.69222 0.86384 0.0
C337 C 0.89672 0.68977 0.83359 0.0
C338 C 0.92134 0.68901 0.8337 0.0
C339 C 0.93369 0.68921 0.86398 0.0
C340 C 0.92221 0.69091 0.89429 0.0
C341 C 0.89806 0.69277 0.8944 0.0
H342 H 0.96346 0.69958 0.46146 0.0
H343 H 0.89826 0.69657 0.40202 0.0
H344 H 0.89958 0.70641 0.51032 0.0
H345 H 0.85604 0.68619 0.50773 0.0
H346 H 0.79402 0.6938 0.45515 0.0
H347 H 0.86687 0.70904 0.40224 0.0
C348 C 0.94429 0.7 0.45984 0.0
C349 C 0.93191 0.702 0.48906 0.0
C350 C 0.93269 0.699 0.42855 0.0
C351 C 0.90743 0.69876 0.42648 0.0
C352 C 0.89414 0.70052 0.45603 0.0
C353 C 0.90769 0.70344 0.48712 0.0
C354 C 0.8661 0.69842 0.45515 0.0
C355 C 0.84959 0.69125 0.48458 0.0
C356 C 0.82394 0.68999 0.48476 0.0
C357 C 0.8137 0.69437 0.45503 0.0
C358 C 0.82875 0.70036 0.42524 0.0
C359 C 0.8552 0.70318 0.42535 0.0
H360 H 0.37082 0.27964 0.46101 0.0
H361 H 0.37188 0.2159 0.40313 0.0
H362 H 0.36661 0.21096 0.5121 0.0
H363 H 0.38395 0.18534 0.50932 0.0
H364 H 0.37508 0.11507 0.45716 0.0
H365 H 0.36008 0.17267 0.40413 0.0
C366 C 0.3706 0.26013 0.45999 0.0
C367 C 0.37027 0.24699 0.48968 0.0
C368 C 0.37054 0.24863 0.42899 0.0
C369 C 0.3706 0.22354 0.42754 0.0
C370 C 0.36982 0.20931 0.45748 0.0
C371 C 0.36853 0.22116 0.48846 0.0
C372 C 0.3713 0.18301 0.45688 0.0
C373 C 0.37853 0.1737 0.48627 0.0
C374 C 0.37948 0.14915 0.48655 0.0
C375 C 0.37463 0.13424 0.45699 0.0
C376 C 0.36852 0.14321 0.42725 0.0
C377 C 0.36603 0.16701 0.42725 0.0
H378 H 0.95339 0.27727 0.45833 0.0
H379 H 0.89495 0.20548 0.40458 0.0
H380 H 0.88362 0.21515 0.51062 0.0
H381 H 0.85812 0.17222 0.51286 0.0
H382 H 0.78906 0.10788 0.46214 0.0
H383 H 0.85212 0.17339 0.40408 0.0
C384 C 0.93421 0.25762 0.4581 0.0
C385 C 0.91988 0.24692 0.48791 0.0
C386 C 0.9247 0.24307 0.42806 0.0
C387 C 0.90092 0.21671 0.42795 0.0
C388 C 0.88535 0.20551 0.45778 0.0
C389 C 0.89507 0.22161 0.48744 0.0
C390 C 0.85913 0.17762 0.45835 0.0
C391 C 0.84767 0.16414 0.48931 0.0
C392 C 0.82193 0.13992 0.49066 0.0
C393 C 0.80847 0.1273 0.46103 0.0
C394 C 0.81971 0.13901 0.43 0.0
C395 C 0.8447 0.16431 0.42849 0.0
H396 H 0.04576 0.44532 0.19369 0.0
H397 H 0.04104 0.50705 0.25198 0.0
H398 H 0.05276 0.51591 0.14397 0.0
H399 H 1.03262 0.53936 0.14617 0.0
H400 H 0.04262 0.61036 0.19791 0.0
H401 H 0.05538 0.55145 0.25158 0.0
C402 C 0.04596 0.46482 0.19493 0.0
C403 C 0.0484 0.47919 0.16549 0.0
C404 C 0.044 0.47514 0.22601 0.0
C405 C 0.04383 0.50018 0.22772 0.0
C406 C 0.04636 0.5154 0.19807 0.0
C407 C 0.04964 0.50479 0.16718 0.0
C408 C 0.04491 0.54166 0.19866 0.0
C409 C 0.03823 0.55123 0.16909 0.0
C410 C 0.03828 0.5763 0.16845 0.0
C411 C 0.04279 0.59105 0.19813 0.0
C412 C 0.04807 0.58162 0.22809 0.0
C413 C 0.05 0.55751 0.22832 0.0
H414 H 0.46045 0.44961 0.19753 0.0
H415 H 0.52566 0.5152 0.25308 0.0
H416 H 0.52338 0.51796 0.14413 0.0
H417 H 0.56587 0.54499 0.1453 0.0
H418 H 0.62773 0.61646 0.19509 0.0
H419 H 0.55776 0.55787 0.2514 0.0
C420 C 0.47963 0.46927 0.19784 0.0
C421 C 0.49152 0.4822 0.16765 0.0
C422 C 0.49156 0.48154 0.22843 0.0
C423 C 0.5165 0.50692 0.22896 0.0
C424 C 0.52934 0.52068 0.1986 0.0
C425 C 0.51563 0.50815 0.16807 0.0
C426 C 0.55693 0.54734 0.1983 0.0
C427 C 0.57251 0.55677 0.16821 0.0
C428 C 0.59762 0.58172 0.16691 0.0
C429 C 0.60839 0.59697 0.19608 0.0
C430 C 0.59446 0.58788 0.22653 0.0
C431 C 0.56846 0.56361 0.22765 0.0
H432 H 0.45468 0.02725 0.1941 0.0
H433 H 0.51443 1.01887 0.25168 0.0
H434 H 0.52602 0.03654 0.14469 0.0
H435 H 0.5549 1.02388 0.14424 0.0
H436 H 0.6221 0.02805 0.19869 0.0
H437 H 0.556 0.02706 0.25337 0.0
C438 C 0.47426 0.02763 0.19529 0.0
C439 C 0.48909 0.03104 0.16601 0.0
C440 C 0.4839 1.02415 0.2261 0.0
C441 C 0.50835 1.02281 0.22757 0.0
C442 C 0.52437 0.02679 0.19816 0.0
C443 C 0.51443 0.03175 0.16769 0.0
C444 C 0.55118 0.02612 0.19876 0.0
C445 C 0.56419 0.02543 0.16838 0.0
C446 C 0.59003 0.02708 0.16833 0.0
C447 C 0.60248 0.02761 0.19867 0.0
C448 C 0.58985 0.02698 0.22904 0.0
C449 C 0.56453 0.02658 0.2293 0.0
H450 H 0.62946 0.0332 0.79469 0.0
H451 H 0.56342 0.02957 0.73655 0.0
H452 H 0.56532 0.03878 0.84494 0.0
H453 H 0.52183 1.01909 0.84227 0.0
H454 H 0.46177 0.03117 0.79152 0.0
H455 H 0.53315 0.0436 0.73741 0.0
C456 C 0.61011 0.03329 0.79357 0.0
C457 C 0.5979 0.03501 0.82314 0.0
C458 C 0.59807 0.03201 0.76252 0.0
C459 C 0.57282 0.03176 0.76087 0.0
C460 C 0.55985 0.03357 0.79063 0.0
C461 C 0.5735 0.03617 0.82159 0.0
C462 C 0.53216 0.03223 0.79006 0.0
C463 C 0.51581 0.02521 0.81956 0.0
C464 C 0.49105 0.02575 0.82047 0.0
C465 C 0.48102 0.03087 0.79104 0.0
C466 C 0.49573 0.03637 0.76105 0.0
C467 C 0.52162 0.03794 0.76062 0.0
H468 H 0.03903 0.61494 0.79498 0.0
H469 H 0.04358 0.55296 0.73722 0.0
H470 H 1.03178 0.54435 0.84521 0.0
H471 H 0.05232 0.52104 0.84284 0.0
H472 H 0.04443 0.45123 0.79024 0.0
H473 H 1.02859 0.50852 0.73769 0.0
C474 C 0.03876 0.59542 0.79392 0.0
C475 C 1.03619 0.58109 0.82348 0.0
C476 C 0.04072 0.58494 0.76296 0.0
C477 C 0.04076 0.55988 0.76142 0.0
C478 C 0.03813 0.54472 0.7911 0.0
C479 C 1.03488 0.55542 0.82195 0.0
C480 C 0.03981 0.51862 0.79042 0.0
C481 C 0.04712 0.5094 0.81977 0.0
C482 C 0.04844 0.48505 0.81984 0.0
C483 C 0.04374 0.47027 0.79018 0.0
C484 C 0.03744 0.47918 0.76051 0.0
C485 C 1.03467 0.5028 0.7607 0.0
H486 H 0.62391 0.61057 0.79084 0.0
H487 H 0.56474 0.53954 0.73625 0.0
H488 H 0.55122 0.55063 0.841 0.0
H489 H 0.52744 0.50707 0.84352 0.0
H490 H 0.45704 0.44384 0.79314 0.0
H491 H 0.5202 0.50966 0.73523 0.0
C492 C 0.60426 0.59139 0.79019 0.0
C493 C 0.58893 0.58129 0.8195 0.0
C494 C 0.59509 0.57681 0.76011 0.0
C495 C 0.57061 0.55098 0.7595 0.0
C496 C 0.5542 0.54043 0.78885 0.0
C497 C 0.5635 0.55666 0.81839 0.0
C498 C 0.52769 0.51289 0.78929 0.0
C499 C 0.51654 0.49914 0.82018 0.0
C500 C 0.49072 0.47496 0.82166 0.0
C501 C 0.47662 0.46308 0.79205 0.0
C502 C 0.48752 0.47517 0.761 0.0
C503 C 0.51281 0.5002 0.7595 0.0
H504 H 0.71433 0.78038 0.52498 0.0
H505 H 0.71036 0.84206 0.5841 0.0
H506 H 0.71958 0.85033 0.47573 0.0
H507 H 0.69959 0.87383 0.47886 0.0
H508 H 0.70817 0.94376 0.53183 0.0
H509 H 0.72361 0.88601 0.58392 0.0
C510 C 0.71425 0.79971 0.52643 0.0
C511 C 0.71593 0.81387 0.49707 0.0
C512 C 0.71295 0.81019 0.55765 0.0
C513 C 0.71258 0.83511 0.55964 0.0
C514 C 0.71429 0.85009 0.53009 0.0
C515 C 0.717 0.83938 0.49895 0.0
C516 C 0.71245 0.87613 0.53113 0.0
C517 C 0.70504 0.88546 0.50194 0.0
C518 C 0.70396 0.90994 0.50197 0.0
C519 C 0.70883 0.9247 0.53169 0.0
C520 C 0.71502 0.91557 0.56126 0.0
C521 C 0.71764 0.89186 0.56094 0.0
H522 H 0.12802 0.78139 0.53424 0.0
H523 H 0.18621 0.85363 0.58735 0.0
H524 H 0.19751 0.84343 0.48138 0.0
H525 H 0.22381 0.88622 0.47896 0.0
H526 H 0.29221 0.95107 0.53015 0.0
H527 H 0.22891 0.88568 0.58791 0.0
C528 C 0.1471 0.80115 0.53425 0.0
C529 C 0.16166 0.81143 0.50449 0.0
C530 C 0.15653 0.81596 0.56411 0.0
C531 C 0.18025 0.84232 0.56403 0.0
C532 C 0.19584 0.85338 0.53417 0.0
C533 C 0.18616 0.83705 0.50462 0.0
C534 C 0.22215 0.88124 0.53357 0.0
C535 C 0.23396 0.89451 0.5026 0.0
C536 C 0.2597 0.91879 0.50139 0.0
C537 C 0.27278 0.93165 0.5311 0.0
C538 C 0.26136 0.91999 0.56205 0.0
C539 C 0.2364 0.89468 0.56349 0.0
H540 H 0.11782 0.35395 0.52301 0.0
H541 H 0.18483 0.36194 0.58343 0.0
H542 H 0.18443 0.35133 0.47533 0.0
H543 H 0.22817 0.37308 0.47899 0.0
H544 H 0.2897 0.36505 0.53238 0.0
H545 H 0.21583 0.34849 0.58387 0.0
C546 C 0.13749 0.35458 0.52504 0.0
C547 C 0.15056 0.35324 0.49612 0.0
C548 C 0.14956 0.35722 0.55647 0.0
C549 C 0.17544 0.35879 0.55894 0.0
C550 C 0.18916 0.35724 0.5297 0.0
C551 C 0.17574 0.35375 0.49838 0.0
C552 C 0.21743 0.35996 0.53117 0.0
C553 C 0.2344 0.36775 0.50214 0.0
C554 C 0.26013 0.36918 0.50237 0.0
C555 C 0.26994 0.36433 0.53217 0.0
C556 C 0.25441 0.35775 0.56162 0.0
C557 C 0.22791 0.35482 0.56108 0.0
C558 C 1.02751 0.42536 0.09722 0.0
C559 C 0.04887 0.43829 0.07355 0.0
C560 C 1.02728 0.43908 0.1264 0.0
C561 C 0.04833 0.46631 0.13302 0.0
H562 H 1.01099 0.40429 0.09348 0.0
H563 H 1.01058 0.42819 0.14417 0.0
S564 S 0.10858 0.50979 0.07887 0.0
N565 N 0.09135 0.4803 0.05834 0.0
N566 N 0.09083 0.50596 0.11351 0.0
C567 C 0.06947 0.47978 0.10932 0.0
C568 C 0.06979 0.46578 0.07954 0.0
C569 C 0.61167 0.61241 0.07984 0.0
C570 C 0.6404 0.62365 0.07635 0.0
C571 C 0.5977 0.59746 0.10848 0.0
C572 C 0.61195 0.59329 0.13471 0.0
H573 H 0.5999 0.6157 0.06066 0.0
H574 H 0.5758 0.59016 0.11074 0.0
S575 S 0.68659 0.61587 0.13668 0.0
N576 N 0.68223 0.62775 0.10065 0.0
N577 N 0.65581 0.59956 0.1545 0.0
C578 C 0.64041 0.60332 0.13099 0.0
C579 C 0.65467 0.61852 0.1018 0.0
C580 C 0.45167 0.04952 0.10083 0.0
C581 C 0.44693 0.03061 0.07492 0.0
C582 C 0.46636 0.05036 0.12968 0.0
C583 C 0.47702 0.03247 0.13353 0.0
H584 H 0.44346 0.06339 0.09921 0.0
H585 H 0.46896 0.06476 0.14942 0.0
S586 S 0.47146 0.97998 0.07247 0.0
N587 N 0.45512 0.9943 0.05444 0.0
N588 N 0.48251 0.99582 0.10884 0.0
C589 C 0.47323 1.01409 0.10741 0.0
C590 C 0.4582 1.01313 0.07807 0.0
C591 C 0.43235 1.0054 0.88231 0.0
C592 C 0.4456 1.02308 0.90959 0.0
C593 C 0.44736 1.00537 0.85417 0.0
C594 C 0.47619 1.02287 0.85238 0.0
H595 H 0.41013 0.99195 0.88226 0.0
H596 H 0.43625 0.99201 0.83328 0.0
S597 S 0.52097 0.07209 0.91777 0.0
N598 N 0.48952 0.05768 0.93365 0.0
N599 N 0.51753 0.05772 0.88063 0.0
C600 C 0.48982 0.03991 0.87996 0.0
C601 C 0.47457 0.04003 0.90857 0.0
C602 C 1.03515 0.45259 0.90597 0.0
C603 C 0.05393 0.44278 0.90763 0.0
C604 C 1.03463 0.46775 0.87829 0.0
C605 C 0.05277 0.47355 0.85121 0.0
H606 H 1.02026 0.44799 0.92583 0.0
H607 H 1.01908 0.47388 0.87739 0.0
S608 S 0.10769 0.45512 0.84451 0.0
N609 N 0.0925 0.44183 0.88073 0.0
N610 N 0.0914 0.47032 0.8287 0.0
C611 C 0.07244 0.46497 0.85315 0.0
C612 C 0.07305 0.44959 0.88136 0.0
C613 C 0.62685 0.63941 0.88211 0.0
C614 C 0.63093 0.62591 0.90937 0.0
C615 C 0.61214 0.62469 0.85366 0.0
C616 C 0.60078 0.59589 0.85156 0.0
H617 H 0.63566 0.66163 0.88232 0.0
H618 H 0.61013 0.63599 0.83281 0.0
S619 S 0.60443 0.5505 0.91668 0.0
N620 N 0.62132 0.58179 0.93302 0.0
N621 N 0.59391 0.55429 0.87942 0.0
C622 C 0.60387 0.582 0.87908 0.0
C623 C 0.61892 0.59696 0.908 0.0
C624 C 0.05719 0.63526 0.89135 0.0
C625 C 1.0356 0.62269 0.91479 0.0
C626 C 0.05746 0.62129 0.86241 0.0
C627 C 1.03623 0.59414 0.85581 0.0
H628 H 0.07389 0.65624 0.89509 0.0
H629 H 0.07433 0.63194 0.84481 0.0
S630 S 0.97528 0.55156 0.90938 0.0
N631 N 0.99265 0.5811 0.92977 0.0
N632 N 0.99326 0.55496 0.87508 0.0
C633 C 1.01482 0.58103 0.87927 0.0
C634 C 1.01444 0.59529 0.9088 0.0
C635 C 0.43597 0.44179 0.88903 0.0
C636 C 0.44855 0.43329 0.91308 0.0
C637 C 0.45012 0.45588 0.86006 0.0
C638 C 0.47743 0.46212 0.85402 0.0
H639 H 0.41486 0.43721 0.8923 0.0
H640 H 0.43947 0.46172 0.84201 0.0
S641 S 0.52011 0.44524 0.9094 0.0
N642 N 0.49034 0.43286 0.92932 0.0
N643 N 0.51677 0.45924 0.87454 0.0
C644 C 0.49054 0.45437 0.87812 0.0
C645 C 0.47612 0.43993 0.9077 0.0
C646 C 0.63156 1.01371 0.89005 0.0
C647 C 0.63965 0.03453 0.91436 0.0
C648 C 0.61735 1.01369 0.86119 0.0
C649 C 0.61064 0.03446 0.85549 0.0
H650 H 0.63654 0.99744 0.89305 0.0
H651 H 0.61184 0.99742 0.84291 0.0
S652 S 0.62635 0.09327 0.91166 0.0
N653 N 0.63916 0.07615 0.93126 0.0
N654 N 0.61262 0.07611 0.87662 0.0
C655 C 0.61796 0.05504 0.87987 0.0
C656 C 0.63248 0.05512 0.90937 0.0
C657 C 0.64811 0.05134 0.10495 0.0
C658 C 0.63665 0.03135 0.07948 0.0
C659 C 0.63256 0.05014 0.13305 0.0
C660 C 0.60492 0.02895 0.13678 0.0
H661 H 0.66938 0.06791 0.10343 0.0
H662 H 0.64235 0.06579 0.15227 0.0
S663 S 0.56492 0.97177 0.07716 0.0
N664 N 0.59563 0.98992 0.05954 0.0
N665 N 0.56658 0.98768 0.11269 0.0
C666 C 0.59297 1.00913 0.11129 0.0
C667 C 0.60881 1.01029 0.0826 0.0
C668 C 1.0161 0.61331 0.10684 0.0
C669 C 1.03394 0.61851 0.0795 0.0
C670 C 1.01675 0.59858 0.13496 0.0
C671 C 1.03509 0.58827 0.13666 0.0
H672 H 1.00199 0.62128 0.10696 0.0
H673 H 1.0032 0.59573 0.15587 0.0
S674 S 0.08509 0.59496 0.07113 0.0
N675 N 0.06967 0.61104 0.05535 0.0
N676 N 0.07091 0.58354 0.10828 0.0
C677 C 0.05233 0.59245 0.10905 0.0
C678 C 0.0518 0.60756 0.08048 0.0
C679 C 0.45838 0.42503 0.10304 0.0
C680 C 0.44926 0.43647 0.07822 0.0
C681 C 0.47269 0.44031 0.13134 0.0
C682 C 0.47858 0.46768 0.13588 0.0
H683 H 0.4541 0.40394 0.10093 0.0
H684 H 0.47896 0.43051 0.15009 0.0
S685 S 0.45988 0.50759 0.07809 0.0
N686 N 0.44776 0.47723 0.05973 0.0
N687 N 0.47458 0.50579 0.11318 0.0
C688 C 0.47018 0.47964 0.111 0.0
C689 C 0.4555 0.46407 0.08213 0.0
C690 C 0.69468 0.75941 0.42968 0.0
C691 C 0.71601 0.77204 0.40593 0.0
C692 C 0.69445 0.77353 0.45847 0.0
C693 C 0.71549 0.80085 0.46462 0.0
H694 H 0.67817 0.73828 0.42631 0.0
H695 H 0.67783 0.76283 0.47638 0.0
S696 S 0.77567 0.84362 0.41009 0.0
N697 N 0.75844 0.81387 0.39009 0.0
N698 N 0.75794 0.84026 0.4446 0.0
C699 C 0.73658 0.81403 0.44081 0.0
C700 C 0.73689 0.79964 0.41139 0.0
C701 C 0.2755 0.95283 0.41576 0.0
C702 C 0.3032 0.95983 0.41059 0.0
C703 C 0.26104 0.93856 0.44461 0.0
C704 C 0.27384 0.93091 0.46926 0.0
H705 H 0.265 0.95882 0.39769 0.0
H706 H 0.24006 0.93429 0.44816 0.0
S707 S 0.34498 0.94199 0.46659 0.0
N708 N 0.34219 0.9564 0.43179 0.0
N709 N 0.31492 0.92949 0.4858 0.0
C710 C 0.30113 0.93688 0.46389 0.0
C711 C 0.31585 0.95138 0.43462 0.0
C712 C 0.10032 0.33021 0.42373 0.0
C713 C 0.10858 0.35515 0.40651 0.0
C714 C 0.11475 0.3294 0.45204 0.0
C715 C 0.13827 0.35334 0.46349 0.0
H716 H 0.08208 0.31133 0.4159 0.0
H717 H 0.10713 0.31012 0.46554 0.0
S718 S 0.16946 0.42333 0.42646 0.0
N719 N 0.14245 0.40413 0.40243 0.0
N720 N 0.1698 0.40233 0.45535 0.0
C721 C 0.1473 0.37815 0.446 0.0
C722 C 0.13239 0.37914 0.41754 0.0
C723 C 0.09829 0.33512 0.21709 0.0
C724 C 0.11082 0.35328 0.24418 0.0
C725 C 0.11376 0.33572 0.18915 0.0
C726 C 0.14236 0.35436 0.18738 0.0
H727 H 0.07622 0.32083 0.217 0.0
H728 H 0.10315 0.32197 0.16836 0.0
S729 S 0.18543 0.40519 0.25236 0.0
N730 N 0.1539 0.38954 0.26815 0.0
N731 N 0.1828 0.39073 0.21546 0.0
C732 C 0.15535 0.37186 0.2148 0.0
C733 C 0.13962 0.37135 0.24323 0.0
C734 C 0.70273 0.78609 0.23815 0.0
C735 C 0.72045 0.77501 0.23921 0.0
C736 C 0.702 0.80085 0.21019 0.0
C737 C 0.7189 0.80501 0.18223 0.0
H738 H 0.68876 0.78278 0.25872 0.0
H739 H 0.6872 0.80797 0.20986 0.0
S740 S 0.77101 0.78291 0.17368 0.0
N741 N 0.75684 0.7711 0.21077 0.0
N742 N 0.75545 0.79897 0.15822 0.0
C743 C 0.73761 0.79518 0.18352 0.0
C744 C 0.73839 0.78015 0.21201 0.0
C745 C 0.2934 0.97229 0.21562 0.0
C746 C 0.29759 0.95904 0.24309 0.0
C747 C 0.27911 0.9574 0.18705 0.0
C748 C 0.26835 0.92869 0.185 0.0
H749 H 0.30171 0.99444 0.21584 0.0
H750 H 0.27688 0.96851 0.16614 0.0
S751 S 0.27286 0.88397 0.2504 0.0
N752 N 0.28895 0.91526 0.26681 0.0
N753 N 0.26239 0.88746 0.21297 0.0
C754 C 0.27168 0.91506 0.21262 0.0
C755 C 0.28627 0.93018 0.24168 0.0
C756 C 0.68278 0.92936 0.23978 0.0
C757 C 0.70508 0.95595 0.24693 0.0
C758 C 0.68283 0.91482 0.2111 0.0
C759 C 0.70511 0.92646 0.1886 0.0
H760 H 0.6649 0.91989 0.25609 0.0
H761 H 0.66494 0.89483 0.20587 0.0
S762 S 0.76945 0.99414 0.19696 0.0
N763 N 0.7508 0.99239 0.22994 0.0
N764 N 0.75071 0.96506 0.17618 0.0
C765 C 0.7279 0.9525 0.19601 0.0
C766 C 0.72793 0.96725 0.22514 0.0
C767 C 0.1048 0.77356 0.22456 0.0
C768 C 0.11779 0.76567 0.24877 0.0
C769 C 0.11866 0.78748 0.19535 0.0
C770 C 0.14611 0.79417 0.18921 0.0
H771 H 0.08357 0.76858 0.22788 0.0
H772 H 0.10769 0.79282 0.17718 0.0
S773 S 0.18985 0.77898 0.24494 0.0
N774 N 0.16013 0.76634 0.26503 0.0
N775 N 0.18601 0.79238 0.20985 0.0
C776 C 0.15963 0.78706 0.21348 0.0
C777 C 0.1455 0.77279 0.24329 0.0
C778 C 0.29951 0.34916 0.22496 0.0
C779 C 0.3078 0.37016 0.24908 0.0
C780 C 0.28538 0.34912 0.196 0.0
C781 C 0.27884 0.36998 0.19008 0.0
H782 H 0.30429 0.33278 0.22816 0.0
H783 H 0.27971 0.33271 0.17788 0.0
S784 S 0.29506 0.42923 0.24568 0.0
N785 N 0.30773 0.41208 0.2655 0.0
N786 N 0.28119 0.4119 0.21078 0.0
C787 C 0.28638 0.39076 0.21424 0.0
C788 C 0.30091 0.39091 0.24379 0.0
C789 C 0.27936 0.35591 0.41621 0.0
C790 C 0.30807 0.37437 0.41471 0.0
C791 C 0.26369 0.35551 0.44385 0.0
C792 C 0.27613 0.37344 0.47109 0.0
H793 H 0.26895 0.34118 0.39624 0.0
H794 H 0.24189 0.3402 0.44456 0.0
S795 S 0.34991 0.4275 0.4783 0.0
N796 N 0.34787 0.41241 0.44199 0.0
N797 N 0.31831 0.41154 0.49392 0.0
C798 C 0.30454 0.39279 0.46934 0.0
C799 C 0.32052 0.39328 0.44116 0.0
C800 C 0.71648 0.94111 0.41506 0.0
C801 C 0.69784 0.95106 0.41324 0.0
C802 C 0.71729 0.92649 0.44316 0.0
C803 C 0.69961 0.92143 0.47056 0.0
H804 H 0.73102 0.94512 0.39494 0.0
H805 H 0.73265 0.92011 0.44403 0.0
S806 S 0.64538 0.94082 0.47729 0.0
N807 N 0.66 0.95314 0.44053 0.0
N808 N 0.66165 0.92569 0.49337 0.0
C809 C 0.68014 0.93027 0.46859 0.0
C810 C 0.67921 0.94506 0.43992 0.0
C811 C 0.12994 0.79266 0.41782 0.0
C812 C 0.12029 0.7641 0.41586 0.0
C813 C 0.14463 0.80816 0.44586 0.0
C814 C 0.1501 0.79566 0.47305 0.0
H815 H 0.12565 0.80309 0.39783 0.0
H816 H 0.15076 0.82985 0.44686 0.0
S817 S 0.13162 0.72223 0.47934 0.0
N818 N 0.11892 0.72438 0.44281 0.0
N819 N 0.14654 0.75361 0.49548 0.0
C820 C 0.14154 0.7674 0.47093 0.0
C821 C 0.12665 0.75161 0.44234 0.0
C822 C 0.39115 0.12952 0.74616 0.0
C823 C 0.37274 0.10097 0.74254 0.0
C824 C 0.3905 0.14384 0.77464 0.0
C825 C 0.3715 0.13008 0.80057 0.0
H826 H 0.40666 0.14086 0.72723 0.0
H827 H 0.40576 0.16555 0.77705 0.0
S828 S 0.31711 0.05619 0.8021 0.0
N829 N 0.3336 0.05994 0.7664 0.0
N830 N 0.33249 0.08697 0.81992 0.0
C831 C 0.3522 0.10186 0.79668 0.0
C832 C 0.35279 0.08727 0.76767 0.0
C833 C 0.98052 0.28797 0.76527 0.0
C834 C 0.96752 0.29567 0.74087 0.0
C835 C 0.96653 0.27391 0.79433 0.0
C836 C 0.93896 0.26693 0.80013 0.0
H837 H 1.00184 0.29315 0.76218 0.0
H838 H 0.9775 0.26871 0.81267 0.0
S839 S 0.89517 0.28156 0.74379 0.0
N840 N 0.92506 0.29452 0.72403 0.0
N841 N 0.89893 0.26824 0.77899 0.0
C842 C 0.92544 0.27387 0.77567 0.0
C843 C 0.9397 0.28826 0.746 0.0
C844 C 0.79392 0.68355 0.74441 0.0
C845 C 0.7833 0.70147 0.74013 0.0
C846 C 0.80903 0.68493 0.77306 0.0
C847 C 0.81398 0.70419 0.79852 0.0
H848 H 0.78997 0.66784 0.72588 0.0
H849 H 0.81578 0.66996 0.776 0.0
S850 S 0.79326 0.7576 0.79819 0.0
N851 N 0.78068 0.74051 0.7628 0.0
N852 N 0.80912 0.74298 0.81667 0.0
C853 C 0.80462 0.72305 0.79395 0.0
C854 C 0.78927 0.72173 0.76474 0.0
C855 C 0.80614 0.70471 0.57099 0.0
C856 C 0.77747 0.6863 0.57326 0.0
C857 C 0.82135 0.70466 0.54309 0.0
C858 C 0.80844 0.68629 0.51634 0.0
H859 H 0.8169 0.71974 0.59058 0.0
H860 H 0.84314 0.71992 0.54179 0.0
S861 S 0.73454 0.63221 0.51117 0.0
N862 N 0.73719 0.64787 0.54722 0.0
N863 N 0.76586 0.64788 0.49478 0.0
C864 C 0.78006 0.66702 0.51885 0.0
C865 C 0.76456 0.66699 0.54731 0.0
C866 C 0.36593 0.1176 0.57328 0.0
C867 C 0.38436 0.10738 0.57533 0.0
C868 C 0.36557 0.13249 0.54522 0.0
C869 C 0.38352 0.13761 0.5181 0.0
H870 H 0.35122 0.11358 0.59319 0.0
H871 H 0.35033 0.13902 0.54412 0.0
S872 S 0.43743 0.11771 0.51215 0.0
N873 N 0.42233 0.10517 0.54863 0.0
N874 N 0.42154 0.13316 0.49587 0.0
C875 C 0.4028 0.12853 0.52034 0.0
C876 C 0.40325 0.11343 0.54896 0.0
C877 C 0.95676 0.30577 0.54979 0.0
C878 C 0.963 0.29327 0.57636 0.0
C879 C 0.94168 0.29039 0.52188 0.0
C880 C 0.93209 0.2619 0.51965 0.0
H881 H 0.96412 0.32775 0.55011 0.0
H882 H 0.938 0.30098 0.50153 0.0
S883 S 0.94182 0.21898 0.58297 0.0
N884 N 0.95742 0.25036 0.59918 0.0
N885 N 0.92926 0.22162 0.54659 0.0
C886 C 0.93736 0.24895 0.54648 0.0
C887 C 0.95281 0.26459 0.57486 0.0
C888 C 0.35206 0.26408 0.57451 0.0
C889 C 0.37335 0.29157 0.57959 0.0
C890 C 0.3517 0.24915 0.54605 0.0
C891 C 0.37258 0.26126 0.52176 0.0
H892 H 0.33521 0.25417 0.59225 0.0
H893 H 0.3345 0.22841 0.54245 0.0
S894 S 0.43426 0.33144 0.52457 0.0
N895 N 0.41682 0.32948 0.55884 0.0
N896 N 0.4161 0.30136 0.50557 0.0
C897 C 0.39451 0.28826 0.52716 0.0
C898 C 0.39491 0.30344 0.55601 0.0
C899 C 0.80685 0.10458 0.57542 0.0
C900 C 0.77949 0.09828 0.58167 0.0
C901 C 0.82102 0.11906 0.54653 0.0
C902 C 0.80823 0.12759 0.5229 0.0
H903 H 0.8173 0.09789 0.59267 0.0
H904 H 0.84174 0.12282 0.54212 0.0
S905 S 0.73797 0.11848 0.52857 0.0
N906 N 0.74088 0.1033 0.56258 0.0
N907 N 0.76758 0.13049 0.50843 0.0
C908 C 0.78131 0.12229 0.52935 0.0
C909 C 0.76691 0.10763 0.55869 0.0
C910 C 0.9608 0.67823 0.55885 0.0
C911 C 0.97248 0.70096 0.58077 0.0
C912 C 0.94697 0.6785 0.52974 0.0
C913 C 0.94418 0.70143 0.5216 0.0
H914 H 0.96265 0.66019 0.56391 0.0
H915 H 0.93871 0.66078 0.51316 0.0
S916 S 0.97099 0.7662 0.57016 0.0
N917 N 0.98022 0.74712 0.59219 0.0
N918 N 0.95405 0.74735 0.5373 0.0
C919 C 0.95524 0.72407 0.54342 0.0
C920 C 0.96946 0.72392 0.57307 0.0
C921 C 0.96528 0.71607 0.75565 0.0
C922 C 0.96875 0.6938 0.7461 0.0
C923 C 0.94862 0.71383 0.78312 0.0
C924 C 0.93539 0.68946 0.80221 0.0
H925 H 0.97546 0.73531 0.74178 0.0
H926 H 0.94677 0.73154 0.79016 0.0
S927 S 0.93832 0.62557 0.78812 0.0
N928 N 0.95748 0.6466 0.75782 0.0
N929 N 0.92691 0.64284 0.81011 0.0
C930 C 0.93864 0.66709 0.79293 0.0
C931 C 0.95513 0.66914 0.76464 0.0
C932 C 0.35504 0.28298 0.77094 0.0
C933 C 0.37498 0.29162 0.7454 0.0
C934 C 0.35663 0.26909 0.79931 0.0
C935 C 0.37816 0.26321 0.80321 0.0
H936 H 0.33818 0.28722 0.76926 0.0
H937 H 0.34096 0.26308 0.81855 0.0
S938 S 0.43552 0.2811 0.74364 0.0
N939 N 0.41686 0.29291 0.72571 0.0
N940 N 0.41979 0.26692 0.7793 0.0
C941 C 0.39799 0.27127 0.77771 0.0
C942 C 0.39645 0.28549 0.74876 0.0
C943 C 0.7918 0.08716 0.77488 0.0
C944 C 0.78658 0.09976 0.74752 0.0
C945 C 0.80661 0.10261 0.80291 0.0
C946 C 0.81694 0.13128 0.80453 0.0
H947 H 0.78383 0.06507 0.77506 0.0
H948 H 0.8095 0.09195 0.82383 0.0
S949 S 0.81011 0.1745 0.73896 0.0
N950 N 0.79402 0.14295 0.72327 0.0
N951 N 0.82161 0.17181 0.77607 0.0
C952 C 0.81271 0.1443 0.77691 0.0
C953 C 0.79755 0.1286 0.7484 0.0
C954 C 0.10488 0.35359 0.03588 0.0
C955 C 0.11226 0.38014 0.0243 0.0
C956 C 0.12279 0.3493 0.05611 0.0
C957 C 0.14861 0.37144 0.06574 0.0
H958 H 0.08447 0.33624 0.0309 0.0
H959 H 0.11549 0.3289 0.06656 0.0
S960 S 0.17912 0.44429 0.03882 0.0
N961 N 0.14839 0.42837 0.02079 0.0
N962 N 0.18188 0.42025 0.05968 0.0
C963 C 0.15726 0.39763 0.05205 0.0
C964 C 0.13907 0.40201 0.03108 0.0
C965 C 0.71578 0.76794 0.03116 0.0
C966 C 0.68907 0.74633 0.02351 0.0
C967 C 0.71978 0.7908 0.04988 0.0
C968 C 0.69721 0.79278 0.06189 0.0
H969 H 0.73373 0.76642 0.02435 0.0
H970 H 0.74058 0.8058 0.05761 0.0
S971 S 0.62329 0.7436 0.04536 0.0
N972 N 0.63977 0.72993 0.02612 0.0
N973 N 0.64744 0.77276 0.06224 0.0
C974 C 0.67053 0.7726 0.05204 0.0
C975 C 0.66641 0.74936 0.03259 0.0
C976 C 0.32095 0.93644 0.03251 0.0
C977 C 0.3237 0.96209 0.02369 0.0
C978 C 0.29861 0.9174 0.05223 0.0
C979 C 0.27818 0.92327 0.06304 0.0
H980 H 0.33723 0.93201 0.02652 0.0
H981 H 0.29856 0.89913 0.06138 0.0
S982 S 0.2734 0.98519 0.04173 0.0
N983 N 0.30226 0.99064 0.02361 0.0
N984 N 0.26027 0.95473 0.06015 0.0
C985 C 0.27936 0.94755 0.05156 0.0
C986 C 0.30216 0.96703 0.03201 0.0
C987 C 0.41235 0.1176 0.95309 0.0
C988 C 0.38921 0.09145 0.95955 0.0
C989 C 0.40971 0.13752 0.93447 0.0
C990 C 0.3838 0.13201 0.92253 0.0
H991 H 0.43285 0.12186 0.96001 0.0
H992 H 0.42823 0.15627 0.92697 0.0
S993 S 0.31645 0.06885 0.93801 0.0
N994 N 0.33925 0.06266 0.95642 0.0
N995 N 0.33436 0.10024 0.92205 0.0
C996 C 0.36031 0.10712 0.93185 0.0
C997 C 0.36299 0.08675 0.9502 0.0
C998 C 0.95903 0.31161 0.95667 0.0
C999 C 0.98636 0.31679 0.95876 0.0
C1000 C 0.9388 0.28875 0.93873 0.0
C1001 C 0.94522 0.27021 0.92292 0.0
H1002 H 0.95377 0.32642 0.96658 0.0
H1003 H 0.91884 0.28701 0.93466 0.0
S1004 S 1.01207 0.27165 0.92637 0.0
N1005 N 1.01756 0.29928 0.94762 0.0
N1006 N 0.97948 0.25639 0.91421 0.0
C1007 C 0.97158 0.27361 0.92787 0.0
C1008 C 0.9922 0.29694 0.94569 0.0
C1009 C 0.75964 0.66139 0.95125 0.0
C1010 C 0.75592 0.68401 0.95807 0.0
C1011 C 0.78238 0.6648 0.93237 0.0
C1012 C 0.80221 0.69099 0.92042 0.0
H1013 H 0.74386 0.64068 0.95822 0.0
H1014 H 0.78321 0.64664 0.92474 0.0
S1015 S 0.80453 0.75728 0.93672 0.0
N1016 N 0.77588 0.73384 0.95526 0.0
N1017 N 0.81864 0.74017 0.92029 0.0
C1018 C 0.8001 0.71399 0.92999 0.0
C1019 C 0.77689 0.71053 0.94868 0.0
C1020 C 0.94743 0.66259 0.96186 0.0
C1021 C 0.9748 0.68432 0.9658 0.0
C1022 C 0.92871 0.66582 0.94156 0.0
C1023 C 0.93674 0.69097 0.92517 0.0
H1024 H 0.94115 0.64234 0.9721 0.0
H1025 H 0.90875 0.6479 0.93626 0.0
S1026 S 1.00413 0.75553 0.93263 0.0
N1027 N 1.0076 0.7329 0.95565 0.0
N1028 N 0.97231 0.73883 0.91772 0.0
C1029 C 0.963 0.71356 0.93181 0.0
C1030 C 0.9821 0.71026 0.9521 0.0
C1031 C 0.40909 0.30496 0.96147 0.0
C1032 C 0.38719 0.31027 0.96565 0.0
C1033 C 0.40573 0.28262 0.94181 0.0
C1034 C 0.38031 0.26482 0.92633 0.0
H1035 H 0.42949 0.31943 0.9709 0.0
H1036 H 0.42372 0.28083 0.93615 0.0
S1037 S 0.31535 0.26662 0.93519 0.0
N1038 N 0.33826 0.29348 0.957 0.0
N1039 N 0.33208 0.25155 0.92036 0.0
C1040 C 0.35762 0.26818 0.93346 0.0
C1041 C 0.36104 0.29096 0.95305 0.0
C1042 C 0.78196 0.09366 0.95582 0.0
C1043 C 0.76158 0.09973 0.96625 0.0
C1044 C 0.80439 0.11236 0.93634 0.0
C1045 C 0.80711 0.1377 0.9263 0.0
H1046 H 0.77968 0.0736 0.961 0.0
H1047 H 0.81838 0.10594 0.92658 0.0
S1048 S 0.76132 0.16491 0.95029 0.0
N1049 N 0.74724 0.13419 0.96831 0.0
N1050 N 0.78924 0.16912 0.93078 0.0
C1051 C 0.78829 0.14508 0.93891 0.0
C1052 C 0.7655 0.1261 0.95915 0.0
C1053 C 0.72529 0.97966 0.04488 0.0
C1054 C 0.70049 0.97232 0.02796 0.0
C1055 C 0.72844 0.96013 0.06332 0.0
C1056 C 0.70682 0.93261 0.06576 0.0
H1057 H 0.74179 1.00101 0.04562 0.0
H1058 H 0.74694 0.96715 0.07829 0.0
S1059 S 0.63934 0.90192 0.0223 0.0
N1060 N 0.65528 0.93482 0.01128 0.0
N1061 N 0.6611 0.89823 0.04679 0.0
C1062 C 0.68299 0.92439 0.04642 0.0
C1063 C 0.67982 0.94427 0.02732 0.0
C1064 C 0.12622 0.75022 0.0318 0.0
C1065 C 0.09878 0.7447 0.03002 0.0
C1066 C 0.14628 0.773 0.04997 0.0
C1067 C 0.13953 0.79109 0.06632 0.0
H1068 H 0.13169 0.73567 0.0215 0.0
H1069 H 0.16638 0.77499 0.05381 0.0
S1070 S 0.07225 0.78879 0.06363 0.0
N1071 N 0.0671 0.76149 0.04188 0.0
N1072 N 0.10487 0.80427 0.07574 0.0
C1073 C 0.11305 0.78742 0.06163 0.0
C1074 C 0.0926 0.76417 0.04358 0.0
C1075 C 0.31944 0.39332 0.03035 0.0
C1076 C 0.32547 0.37177 0.02846 0.0
C1077 C 0.29712 0.39042 0.04966 0.0
C1078 C 0.28006 0.36577 0.06708 0.0
H1079 H 0.33333 0.41326 0.0193 0.0
H1080 H 0.29477 0.40831 0.05346 0.0
S1081 S 0.28378 0.30157 0.06455 0.0
N1082 N 0.31007 0.3237 0.04133 0.0
N1083 N 0.26816 0.31835 0.07737 0.0
C1084 C 0.28412 0.34322 0.06232 0.0
C1085 C 0.30688 0.34621 0.04306 0.0
C1086 C 0.77164 0.68617 0.36561 0.0
C1087 C 0.77874 0.71284 0.35478 0.0
C1088 C 0.78982 0.68174 0.38514 0.0
C1089 C 0.81565 0.70385 0.39486 0.0
H1090 H 0.75122 0.66882 0.36067 0.0
H1091 H 0.78267 0.66124 0.39518 0.0
S1092 S 0.84552 0.77701 0.36963 0.0
N1093 N 0.81467 0.76118 0.3519 0.0
N1094 N 0.84862 0.7528 0.38955 0.0
C1095 C 0.82403 0.73018 0.38181 0.0
C1096 C 0.80557 0.7347 0.36152 0.0
C1097 C 0.38356 0.10148 0.36688 0.0
C1098 C 0.35694 0.08097 0.35703 0.0
C1099 C 0.38752 0.12397 0.38635 0.0
C1100 C 0.365 0.12663 0.39691 0.0
H1101 H 0.40132 0.0993 0.36125 0.0
H1102 H 0.40809 0.13807 0.39568 0.0
S1103 S 0.2916 0.08056 0.37443 0.0
N1104 N 0.30803 0.06647 0.35603 0.0
N1105 N 0.31559 0.10861 0.39349 0.0
C1106 C 0.33859 0.10768 0.38485 0.0
C1107 C 0.33453 0.08482 0.36466 0.0
C1108 C 0.96713 0.30082 0.36893 0.0
C1109 C 0.98614 0.29349 0.35673 0.0
C1110 C 0.94481 0.2826 0.38885 0.0
C1111 C 0.94089 0.25652 0.39757 0.0
H1112 H 0.97045 0.32141 0.36476 0.0
H1113 H 0.9319 0.28985 0.39991 0.0
S1114 S 0.98266 0.22605 0.36854 0.0
N1115 N 0.99774 0.25715 0.35145 0.0
N1116 N 0.95596 0.22309 0.38983 0.0
C1117 C 0.95822 0.24795 0.38314 0.0
C1118 C 0.98088 0.26645 0.36246 0.0
C1119 C 0.06878 0.44557 0.29269 0.0
C1120 C 0.04737 0.41781 0.29281 0.0
C1121 C 0.06632 0.46564 0.27414 0.0
C1122 C 0.04221 0.45855 0.25576 0.0
H1123 H 0.08837 0.45136 0.30457 0.0
H1124 H 0.08423 0.48609 0.27167 0.0
S1125 S 0.9784 0.39011 0.25354 0.0
N1126 N 0.99993 0.38529 0.27707 0.0
N1127 N 0.99529 0.42304 0.24273 0.0
C1128 C 1.01969 0.43162 0.25881 0.0
C1129 C 1.02229 0.41119 0.27716 0.0
C1130 C 0.65378 0.63009 0.28333 0.0
C1131 C 0.64897 0.65155 0.29262 0.0
C1132 C 0.63391 0.60705 0.26567 0.0
C1133 C 0.60862 0.60479 0.25631 0.0
H1134 H 0.67369 0.63184 0.28801 0.0
H1135 H 0.63937 0.59217 0.25653 0.0
S1136 S 0.58447 0.6535 0.2781 0.0
N1137 N 0.61573 0.66749 0.29459 0.0
N1138 N 0.57865 0.62438 0.26033 0.0
C1139 C 0.60255 0.62482 0.2679 0.0
C1140 C 0.6227 0.64822 0.28633 0.0
C1141 C 0.44131 0.04158 0.28192 0.0
C1142 C 0.42109 1.01546 0.29364 0.0
C1143 C 0.46406 0.04487 0.26352 0.0
C1144 C 0.4673 1.02213 0.25591 0.0
H1145 H 0.43873 0.05938 0.2853 0.0
H1146 H 0.47792 0.06492 0.25265 0.0
S1147 S 0.42221 0.95006 0.28423 0.0
N1148 N 0.40752 0.96699 0.29965 0.0
N1149 N 0.45011 0.97322 0.26411 0.0
C1150 C 0.44863 0.99638 0.26985 0.0
C1151 C 0.42551 0.99302 0.28898 0.0
C1152 C 0.61428 0.99616 0.29418 0.0
C1153 C 0.64183 1.01746 0.29832 0.0
C1154 C 0.59567 1.00037 0.27493 0.0
C1155 C 0.60402 0.02606 0.25978 0.0
H1156 H 0.60772 0.97557 0.3034 0.0
H1157 H 0.57556 0.9828 0.26925 0.0
S1158 S 0.67197 0.08977 0.26879 0.0
N1159 N 0.67513 0.06618 0.2901 0.0
N1160 N 0.64005 0.07395 0.25415 0.0
C1161 C 0.63046 0.04819 0.26692 0.0
C1162 C 0.64944 0.04391 0.28611 0.0
C1163 C 0.0816 0.63982 0.29001 0.0
C1164 C 0.05913 0.64324 0.29887 0.0
C1165 C 0.07769 0.61755 0.26979 0.0
C1166 C 0.05118 0.59792 0.25853 0.0
H1167 H 0.10249 0.65558 0.29633 0.0
H1168 H 0.09564 0.61698 0.26066 0.0
S1169 S 0.98532 0.59493 0.27993 0.0
N1170 N 1.00925 0.62319 0.29863 0.0
N1171 N 1.00199 0.58129 0.26113 0.0
C1172 C 1.02842 0.59968 0.27007 0.0
C1173 C 1.03238 0.6224 0.29014 0.0
C1174 C 0.44765 0.42156 0.28396 0.0
C1175 C 0.43066 0.43015 0.29951 0.0
C1176 C 0.47015 0.43974 0.26419 0.0
C1177 C 0.47635 0.46712 0.25911 0.0
H1178 H 0.44253 0.40016 0.2853 0.0
H1179 H 0.48124 0.43167 0.25035 0.0
S1180 S 0.4409 0.50098 0.29809 0.0
N1181 N 0.42375 0.46884 0.31199 0.0
N1182 N 0.46587 0.5029 0.27409 0.0
C1183 C 0.46126 0.47673 0.27705 0.0
C1184 C 0.43838 0.45823 0.29745 0.0
C1185 C 0.38965 0.31096 0.37709 0.0
C1186 C 0.36403 0.30463 0.3632 0.0
C1187 C 0.39284 0.29104 0.39459 0.0
C1188 C 0.37045 0.26414 0.39907 0.0
H1189 H 0.40697 0.33189 0.37623 0.0
H1190 H 0.41218 0.29743 0.40747 0.0
S1191 S 0.30023 0.23594 0.36364 0.0
N1192 N 0.31685 0.26856 0.35139 0.0
N1193 N 0.3228 0.23128 0.38521 0.0
C1194 C 0.34552 0.25681 0.38265 0.0
C1195 C 0.34229 0.27706 0.3645 0.0
C1196 C 0.75769 0.09462 0.378 0.0
C1197 C 0.76511 0.07654 0.36293 0.0
C1198 C 0.77696 0.11769 0.39613 0.0
C1199 C 0.8043 0.12339 0.40004 0.0
H1200 H 0.73642 0.09002 0.37754 0.0
H1201 H 0.76981 0.12966 0.40981 0.0
S1202 S 0.83524 0.08499 0.36152 0.0
N1203 N 0.80259 0.06798 0.34945 0.0
N1204 N 0.8387 0.11116 0.38438 0.0
C1205 C 0.81267 0.10711 0.38248 0.0
C1206 C 0.79307 0.08365 0.36371 0.0
C1207 C 0.98961 0.72661 0.36505 0.0
C1208 C 0.99533 0.70483 0.36317 0.0
C1209 C 0.96657 0.72355 0.38295 0.0
C1210 C 0.94838 0.69851 0.39899 0.0
H1211 H 1.00414 0.74676 0.35499 0.0
H1212 H 0.96441 0.74155 0.38682 0.0
S1213 S 0.95122 0.63383 0.3961 0.0
N1214 N 0.97866 0.65629 0.37472 0.0
N1215 N 0.93546 0.65068 0.4081 0.0
C1216 C 0.95232 0.67588 0.39427 0.0
C1217 C 0.97582 0.67901 0.37645 0.0
C1218 C 0.43887 1.0223 0.70134 0.0
C1219 C 0.44489 0.04908 0.69246 0.0
C1220 C 0.4575 1.01803 0.72017 0.0
C1221 C 0.48273 0.04039 0.731 0.0
H1222 H 0.41893 1.0046 0.6954 0.0
H1223 H 0.4511 0.99731 0.72882 0.0
S1224 S 0.5099 0.11417 0.71094 0.0
N1225 N 0.47928 0.09803 0.69263 0.0
N1226 N 0.51406 0.08987 0.72891 0.0
C1227 C 0.49008 0.067 0.71992 0.0
C1228 C 0.47118 0.07139 0.7004 0.0
C1229 C 0.05207 0.43717 0.70004 0.0
C1230 C 1.02546 0.41736 0.68932 0.0
C1231 C 0.05627 0.45953 0.71991 0.0
C1232 C 1.03397 0.46272 0.73006 0.0
H1233 H 0.06959 0.43449 0.69475 0.0
H1234 H 0.07677 0.47309 0.72982 0.0
S1235 S 0.96077 0.41858 0.70537 0.0
N1236 N 0.97689 0.40411 0.68709 0.0
N1237 N 0.98484 0.44599 0.72535 0.0
C1238 C 1.00764 0.44452 0.71717 0.0
C1239 C 1.00336 0.4218 0.69654 0.0
C1240 C 0.63812 0.63359 0.70021 0.0
C1241 C 0.65871 0.62741 0.69113 0.0
C1242 C 0.61527 0.61513 0.71929 0.0
C1243 C 0.61224 0.58985 0.73014 0.0
H1244 H 0.64042 0.65353 0.69417 0.0
H1245 H 0.60108 0.62165 0.72802 0.0
S1246 S 0.65837 0.56226 0.70973 0.0
N1247 N 0.67295 0.59282 0.69128 0.0
N1248 N 0.63008 0.55833 0.72796 0.0
C1249 C 0.63134 0.58235 0.71896 0.0
C1250 C 0.65461 0.60111 0.69921 0.0
C1251 C 0.69475 0.74718 0.60796 0.0
C1252 C 0.72002 0.75453 0.62369 0.0
C1253 C 0.6911 0.76669 0.59017 0.0
C1254 C 0.71266 0.79421 0.58729 0.0
H1255 H 0.67818 0.72586 0.60766 0.0
H1256 H 0.67222 0.75967 0.57596 0.0
S1257 S 0.78131 0.82496 0.62781 0.0
N1258 N 0.76569 0.79208 0.63886 0.0
N1259 N 0.75888 0.8286 0.60458 0.0
C1260 C 0.73702 0.80243 0.60547 0.0
C1261 C 0.74073 0.78259 0.62386 0.0
C1262 C 0.28999 0.97694 0.62516 0.0
C1263 C 0.31735 0.98231 0.62795 0.0
C1264 C 0.2701 0.95393 0.60716 0.0
C1265 C 0.2769 0.93545 0.59198 0.0
H1266 H 0.28449 0.99171 0.63454 0.0
H1267 H 0.25014 0.95204 0.60247 0.0
S1268 S 0.3439 0.93735 0.59746 0.0
N1269 N 0.34894 0.96504 0.61822 0.0
N1270 N 0.31146 0.92185 0.58469 0.0
C1271 C 0.30324 0.93902 0.59772 0.0
C1272 C 0.32353 0.9625 0.61559 0.0
C1273 C 0.10579 0.37775 0.60556 0.0
C1274 C 0.08838 0.35346 0.62348 0.0
C1275 C 0.12824 0.38032 0.5871 0.0
C1276 C 0.13407 0.35863 0.58573 0.0
H1277 H 0.10113 0.39434 0.60418 0.0
H1278 H 0.13971 0.39843 0.57148 0.0
S1279 S 0.09723 0.29225 0.63155 0.0
N1280 N 0.08052 0.30857 0.64181 0.0
N1281 N 0.12254 0.31332 0.60635 0.0
C1282 C 0.1184 0.33526 0.60578 0.0
C1283 C 0.09555 0.33267 0.62486 0.0
C1284 C 0.3108 0.3727 0.62253 0.0
C1285 C 0.3051 0.34606 0.63159 0.0
C1286 C 0.29212 0.3766 0.6033 0.0
C1287 C 0.26719 0.354 0.59213 0.0
H1288 H 0.3306 0.39057 0.62856 0.0
H1289 H 0.29834 0.39725 0.59452 0.0
S1290 S 0.24091 0.28041 0.61249 0.0
N1291 N 0.2713 0.29696 0.63128 0.0
N1292 N 0.23644 0.30439 0.59418 0.0
C1293 C 0.2601 0.3275 0.60344 0.0
C1294 C 0.27904 0.3235 0.62344 0.0
C1295 C 0.7481 0.97354 0.62358 0.0
C1296 C 0.72535 0.97629 0.63308 0.0
C1297 C 0.74452 0.95158 0.60298 0.0
C1298 C 0.71807 0.93159 0.59194 0.0
H1299 H 0.76891 0.9896 0.62969 0.0
H1300 H 0.76262 0.95153 0.5934 0.0
S1301 S 0.65166 0.92683 0.6148 0.0
N1302 N 0.67533 0.95519 0.63359 0.0
N1303 N 0.66872 0.91392 0.59534 0.0
C1304 C 0.6951 0.93267 0.60408 0.0
C1305 C 0.69871 0.95506 0.62457 0.0
C1306 C 0.09943 0.79055 0.62765 0.0
C1307 C 0.09561 0.76421 0.63477 0.0
C1308 C 0.12165 0.80934 0.6076 0.0
C1309 C 0.14079 0.80237 0.59479 0.0
H1310 H 0.08388 0.79567 0.63496 0.0
H1311 H 0.12243 0.82823 0.59963 0.0
S1312 S 0.1427 0.73825 0.61174 0.0
N1313 N 0.1148 0.73377 0.63149 0.0
N1314 N 0.15672 0.76923 0.59451 0.0
C1315 C 0.13878 0.77739 0.60493 0.0
C1316 C 0.11608 0.75821 0.62474 0.0
C1317 C 1.01545 0.61294 0.69509 0.0
C1318 C 1.03668 0.64077 0.6943 0.0
C1319 C 1.01816 0.5934 0.71438 0.0
C1320 C 0.0423 0.60112 0.73296 0.0
H1321 H 0.99579 0.60671 0.68315 0.0
H1322 H 1.00039 0.5729 0.71726 0.0
S1323 S 0.10579 0.66983 0.73359 0.0
N1324 N 0.0841 0.67392 0.70947 0.0
N1325 N 0.08913 0.63714 0.74546 0.0
C1326 C 0.06468 0.62806 0.72931 0.0
C1327 C 0.06187 0.64795 0.71005 0.0
C1328 C 0.42476 0.43115 0.70974 0.0
C1329 C 0.43238 0.41387 0.69297 0.0
C1330 C 0.44408 0.45391 0.72829 0.0
C1331 C 0.47165 0.46005 0.73099 0.0
H1332 H 0.40335 0.42607 0.71032 0.0
H1333 H 0.43685 0.46522 0.74321 0.0
S1334 S 0.50303 0.42383 0.68792 0.0
N1335 N 0.47019 0.40663 0.67663 0.0
N1336 N 0.50638 0.44917 0.71236 0.0
C1337 C 0.48015 0.44465 0.71174 0.0
C1338 C 0.4605 0.42153 0.69252 0.0
C1339 C 0.65448 0.05906 0.69867 0.0
C1340 C 0.66024 0.03729 0.69722 0.0
C1341 C 0.63146 0.05612 0.71645 0.0
C1342 C 0.61332 0.0312 0.73273 0.0
H1343 H 0.66901 0.07914 0.68844 0.0
H1344 H 0.62932 0.07415 0.72012 0.0
S1345 S 0.61617 0.9665 0.73068 0.0
N1346 N 0.64363 0.98884 0.70924 0.0
N1347 N 0.60037 0.9834 0.74231 0.0
C1348 C 0.61722 1.00851 0.72827 0.0
C1349 C 0.64074 1.01155 0.71064 0.0
loop_
_geom_bond_atom_site_label_1
_geom_bond_atom_site_label_2
_geom_bond_distance
_geom_bond_site_symmetry_2
_ccdc_geom_bond_type
In0 O1 2.294 1_455 S
In0 O2 2.326 . S
In0 O6 2.266 1_455 S
In0 O7 2.326 1_454 S
In0 O8 2.266 1_554 S
In0 O9 2.326 1_454 S
In0 O11 2.294 . S
In0 O12 2.326 . S
O1 In0 2.294 1_655 S
O1 C10 1.240 1_655 S
O2 In0 2.326 . S
O2 C10 1.252 . S
C3 O6 1.252 1_556 S
C3 O7 1.260 . S
C4 O11 1.240 . S
C4 O12 1.252 . S
C5 O8 1.252 . S
C5 O9 1.260 1_455 S
O6 In0 2.266 1_655 S
O6 C3 1.252 1_554 S
O7 In0 2.326 1_656 S
O7 C3 1.260 . S
O8 In0 2.266 1_556 S
O8 C5 1.252 . S
O9 In0 2.326 1_656 S
O9 C5 1.260 1_655 S
C10 O1 1.240 1_455 S
C10 O2 1.252 . S
O11 In0 2.294 . S
O11 C4 1.240 . S
O12 In0 2.326 . S
O12 C4 1.252 . S
In13 O14 2.294 . S
In13 O15 2.326 . S
In13 O19 2.266 . S
In13 O20 2.326 1_554 S
In13 O21 2.266 1_554 S
In13 O22 2.326 1_554 S
In13 O24 2.294 . S
In13 O25 2.326 . S
O14 In13 2.294 . S
O14 C23 1.240 . S
O15 In13 2.326 . S
O15 C23 1.252 . S
C16 O19 1.252 1_556 S
C16 O20 1.260 . S
C17 O24 1.240 . S
C17 O25 1.252 . S
C18 O21 1.252 . S
C18 O22 1.260 . S
O19 In13 2.266 . S
O19 C16 1.252 1_554 S
O20 In13 2.326 1_556 S
O20 C16 1.260 . S
O21 In13 2.266 1_556 S
O21 C18 1.252 . S
O22 In13 2.326 1_556 S
O22 C18 1.260 . S
C23 O14 1.240 . S
C23 O15 1.252 . S
O24 In13 2.294 . S
O24 C17 1.240 . S
O25 In13 2.326 . S
O25 C17 1.252 . S
In26 O27 2.294 . S
In26 O28 2.326 1_554 S
In26 O32 2.266 . S
In26 O33 2.326 1_545 S
In26 O34 2.266 1_545 S
In26 O35 2.326 1_545 S
In26 O37 2.294 1_544 S
In26 O38 2.326 1_554 S
O27 In26 2.294 . S
O27 C36 1.240 1_554 S
O28 In26 2.326 1_556 S
O28 C36 1.252 . S
C29 O32 1.252 . S
C29 O33 1.260 1_545 S
C30 O37 1.240 1_545 S
C30 O38 1.252 . S
C31 O34 1.252 . S
C31 O35 1.260 . S
O32 In26 2.266 . S
O32 C29 1.252 . S
O33 In26 2.326 1_565 S
O33 C29 1.260 1_565 S
O34 In26 2.266 1_565 S
O34 C31 1.252 . S
O35 In26 2.326 1_565 S
O35 C31 1.260 . S
C36 O27 1.240 1_556 S
C36 O28 1.252 . S
O37 In26 2.294 1_566 S
O37 C30 1.240 1_565 S
O38 In26 2.326 1_556 S
O38 C30 1.252 . S
In39 O40 2.294 1_554 S
In39 O41 2.326 1_454 S
In39 O45 2.266 . S
In39 O46 2.326 . S
In39 O47 2.266 1_455 S
In39 O48 2.326 . S
In39 O50 2.294 1_455 S
In39 O51 2.326 1_454 S
O40 In39 2.294 1_556 S
O40 C49 1.240 . S
O41 In39 2.326 1_656 S
O41 C49 1.252 1_655 S
C42 O45 1.252 . S
C42 O46 1.260 . S
C43 O50 1.240 1_556 S
C43 O51 1.252 . S
C44 O47 1.252 1_455 S
C44 O48 1.260 . S
O45 In39 2.266 . S
O45 C42 1.252 . S
O46 In39 2.326 . S
O46 C42 1.260 . S
O47 In39 2.266 1_655 S
O47 C44 1.252 1_655 S
O48 In39 2.326 . S
O48 C44 1.260 . S
C49 O40 1.240 . S
C49 O41 1.252 1_455 S
O50 In39 2.294 1_655 S
O50 C43 1.240 1_554 S
O51 In39 2.326 1_656 S
O51 C43 1.252 . S
In52 O53 2.294 1_554 S
In52 O54 2.326 1_554 S
In52 O58 2.266 . S
In52 O59 2.326 . S
In52 O60 2.266 . S
In52 O61 2.326 . S
In52 O63 2.294 . S
In52 O64 2.326 1_554 S
O53 In52 2.294 1_556 S
O53 C62 1.240 . S
O54 In52 2.326 1_556 S
O54 C62 1.252 . S
C55 O58 1.252 . S
C55 O59 1.260 . S
C56 O63 1.240 1_556 S
C56 O64 1.252 . S
C57 O60 1.252 . S
C57 O61 1.260 . S
O58 In52 2.266 . S
O58 C55 1.252 . S
O59 In52 2.326 . S
O59 C55 1.260 . S
O60 In52 2.266 . S
O60 C57 1.252 . S
O61 In52 2.326 . S
O61 C57 1.260 . S
C62 O53 1.240 . S
C62 O54 1.252 . S
O63 In52 2.294 . S
O63 C56 1.240 1_554 S
O64 In52 2.326 1_556 S
O64 C56 1.252 . S
In65 O66 2.294 . S
In65 O67 2.326 1_545 S
In65 O71 2.266 . S
In65 O72 2.326 1_554 S
In65 O73 2.266 1_544 S
In65 O74 2.326 1_554 S
In65 O76 2.294 1_545 S
In65 O77 2.326 1_545 S
O66 In65 2.294 . S
O66 C75 1.240 . S
O67 In65 2.326 1_565 S
O67 C75 1.252 1_565 S
C68 O71 1.252 1_556 S
C68 O72 1.260 . S
C69 O76 1.240 . S
C69 O77 1.252 . S
C70 O73 1.252 1_545 S
C70 O74 1.260 . S
O71 In65 2.266 . S
O71 C68 1.252 1_554 S
O72 In65 2.326 1_556 S
O72 C68 1.260 . S
O73 In65 2.266 1_566 S
O73 C70 1.252 1_565 S
O74 In65 2.326 1_556 S
O74 C70 1.260 . S
C75 O66 1.240 . S
C75 O67 1.252 1_545 S
O76 In65 2.294 1_565 S
O76 C69 1.240 . S
O77 In65 2.326 1_565 S
O77 C69 1.252 . S
In78 O79 2.294 . S
In78 O80 2.326 . S
In78 O84 2.266 . S
In78 O85 2.326 . S
In78 O86 2.266 . S
In78 O87 2.326 . S
In78 O89 2.294 . S
In78 O90 2.326 . S
O79 In78 2.294 . S
O79 C88 1.240 . S
O80 In78 2.326 . S
O80 C88 1.252 . S
C81 O84 1.252 . S
C81 O85 1.260 . S
C82 O89 1.240 . S
C82 O90 1.252 . S
C83 O86 1.252 . S
C83 O87 1.260 . S
O84 In78 2.266 . S
O84 C81 1.252 . S
O85 In78 2.326 . S
O85 C81 1.260 . S
O86 In78 2.266 . S
O86 C83 1.252 . S
O87 In78 2.326 . S
O87 C83 1.260 . S
C88 O79 1.240 . S
C88 O80 1.252 . S
O89 In78 2.294 . S
O89 C82 1.240 . S
O90 In78 2.326 . S
O90 C82 1.252 . S
In91 O92 2.294 . S
In91 O93 2.326 . S
In91 O97 2.266 . S
In91 O98 2.326 1_565 S
In91 O99 2.266 . S
In91 O100 2.326 . S
In91 O102 2.294 1_565 S
In91 O103 2.326 1_565 S
O92 In91 2.294 . S
O92 C101 1.240 . S
O93 In91 2.326 . S
O93 C101 1.252 . S
C94 O97 1.252 . S
C94 O98 1.260 1_565 S
C95 O102 1.240 . S
C95 O103 1.252 . S
C96 O99 1.252 . S
C96 O100 1.260 . S
O97 In91 2.266 . S
O97 C94 1.252 . S
O98 In91 2.326 1_545 S
O98 C94 1.260 1_545 S
O99 In91 2.266 . S
O99 C96 1.252 . S
O100 In91 2.326 . S
O100 C96 1.260 . S
C101 O92 1.240 . S
C101 O93 1.252 . S
O102 In91 2.294 1_545 S
O102 C95 1.240 . S
O103 In91 2.326 1_545 S
O103 C95 1.252 . S
In104 O105 2.294 . S
In104 O106 2.326 . S
In104 O110 2.266 . S
In104 O111 2.326 . S
In104 O112 2.266 1_455 S
In104 O113 2.326 1_455 S
In104 O115 2.294 . S
In104 O116 2.326 . S
O105 In104 2.294 . S
O105 C114 1.240 . S
O106 In104 2.326 . S
O106 C114 1.252 . S
C107 O110 1.252 . S
C107 O111 1.260 . S
C108 O115 1.240 . S
C108 O116 1.252 . S
C109 O112 1.252 . S
C109 O113 1.260 . S
O110 In104 2.266 . S
O110 C107 1.252 . S
O111 In104 2.326 . S
O111 C107 1.260 . S
O112 In104 2.266 1_655 S
O112 C109 1.252 . S
O113 In104 2.326 1_655 S
O113 C109 1.260 . S
C114 O105 1.240 . S
C114 O106 1.252 . S
O115 In104 2.294 . S
O115 C108 1.240 . S
O116 In104 2.326 . S
O116 C108 1.252 . S
In117 O118 2.294 . S
In117 O119 2.326 . S
In117 O123 2.266 1_565 S
In117 O124 2.326 1_565 S
In117 O125 2.266 . S
In117 O126 2.326 . S
In117 O128 2.294 . S
In117 O129 2.326 1_565 S
O118 In117 2.294 . S
O118 C127 1.240 . S
O119 In117 2.326 . S
O119 C127 1.252 . S
C120 O123 1.252 . S
C120 O124 1.260 . S
C121 O128 1.240 . S
C121 O129 1.252 1_565 S
C122 O125 1.252 . S
C122 O126 1.260 . S
O123 In117 2.266 1_545 S
O123 C120 1.252 . S
O124 In117 2.326 1_545 S
O124 C120 1.260 . S
O125 In117 2.266 . S
O125 C122 1.252 . S
O126 In117 2.326 . S
O126 C122 1.260 . S
C127 O118 1.240 . S
C127 O119 1.252 . S
O128 In117 2.294 . S
O128 C121 1.240 . S
O129 In117 2.326 1_545 S
O129 C121 1.252 1_545 S
In130 O131 2.294 . S
In130 O132 2.326 . S
In130 O136 2.266 1_455 S
In130 O137 2.326 1_455 S
In130 O138 2.266 . S
In130 O139 2.326 . S
In130 O141 2.294 . S
In130 O142 2.326 . S
O131 In130 2.294 . S
O131 C140 1.240 . S
O132 In130 2.326 . S
O132 C140 1.252 . S
C133 O136 1.252 . S
C133 O137 1.260 . S
C134 O141 1.240 . S
C134 O142 1.252 . S
C135 O138 1.252 . S
C135 O139 1.260 . S
O136 In130 2.266 1_655 S
O136 C133 1.252 . S
O137 In130 2.326 1_655 S
O137 C133 1.260 . S
O138 In130 2.266 . S
O138 C135 1.252 . S
O139 In130 2.326 . S
O139 C135 1.260 . S
C140 O131 1.240 . S
C140 O132 1.252 . S
O141 In130 2.294 . S
O141 C134 1.240 . S
O142 In130 2.326 . S
O142 C134 1.252 . S
In143 O144 2.294 . S
In143 O145 2.326 . S
In143 O149 2.266 . S
In143 O150 2.326 . S
In143 O151 2.266 . S
In143 O152 2.326 . S
In143 O154 2.294 . S
In143 O155 2.326 . S
O144 In143 2.294 . S
O144 C153 1.240 . S
O145 In143 2.326 . S
O145 C153 1.252 . S
C146 O149 1.252 . S
C146 O150 1.260 . S
C147 O154 1.240 . S
C147 O155 1.252 . S
C148 O151 1.252 . S
C148 O152 1.260 . S
O149 In143 2.266 . S
O149 C146 1.252 . S
O150 In143 2.326 . S
O150 C146 1.260 . S
O151 In143 2.266 . S
O151 C148 1.252 . S
O152 In143 2.326 . S
O152 C148 1.260 . S
C153 O144 1.240 . S
C153 O145 1.252 . S
O154 In143 2.294 . S
O154 C147 1.240 . S
O155 In143 2.326 . S
O155 C147 1.252 . S
In156 O157 2.294 . S
In156 O158 2.326 . S
In156 O162 2.266 . S
In156 O163 2.326 . S
In156 O164 2.266 1_545 S
In156 O165 2.326 1_545 S
In156 O167 2.294 . S
In156 O168 2.326 . S
O157 In156 2.294 . S
O157 C166 1.240 . S
O158 In156 2.326 . S
O158 C166 1.252 . S
C159 O162 1.252 . S
C159 O163 1.260 . S
C160 O167 1.240 . S
C160 O168 1.252 . S
C161 O164 1.252 . S
C161 O165 1.260 . S
O162 In156 2.266 . S
O162 C159 1.252 . S
O163 In156 2.326 . S
O163 C159 1.260 . S
O164 In156 2.266 1_565 S
O164 C161 1.252 . S
O165 In156 2.326 1_565 S
O165 C161 1.260 . S
C166 O157 1.240 . S
C166 O158 1.252 . S
O167 In156 2.294 . S
O167 C160 1.240 . S
O168 In156 2.326 . S
O168 C160 1.252 . S
In169 O170 2.294 . S
In169 O171 2.326 1_655 S
In169 O175 2.266 . S
In169 O176 2.326 . S
In169 O177 2.266 1_655 S
In169 O178 2.326 1_655 S
In169 O180 2.294 . S
In169 O181 2.326 . S
O170 In169 2.294 . S
O170 C179 1.240 . S
O171 In169 2.326 1_455 S
O171 C179 1.252 1_455 S
C172 O175 1.252 . S
C172 O176 1.260 . S
C173 O180 1.240 . S
C173 O181 1.252 . S
C174 O177 1.252 . S
C174 O178 1.260 . S
O175 In169 2.266 . S
O175 C172 1.252 . S
O176 In169 2.326 . S
O176 C172 1.260 . S
O177 In169 2.266 1_455 S
O177 C174 1.252 . S
O178 In169 2.326 1_455 S
O178 C174 1.260 . S
C179 O170 1.240 . S
C179 O171 1.252 1_655 S
O180 In169 2.294 . S
O180 C173 1.240 . S
O181 In169 2.326 . S
O181 C173 1.252 . S
In182 O183 2.294 . S
In182 O184 2.326 . S
In182 O188 2.266 . S
In182 O189 2.326 . S
In182 O190 2.266 . S
In182 O191 2.326 . S
In182 O193 2.294 . S
In182 O194 2.326 . S
O183 In182 2.294 . S
O183 C192 1.240 . S
O184 In182 2.326 . S
O184 C192 1.252 . S
C185 O188 1.252 . S
C185 O189 1.260 . S
C186 O193 1.240 . S
C186 O194 1.252 . S
C187 O190 1.252 . S
C187 O191 1.260 . S
O188 In182 2.266 . S
O188 C185 1.252 . S
O189 In182 2.326 . S
O189 C185 1.260 . S
O190 In182 2.266 . S
O190 C187 1.252 . S
O191 In182 2.326 . S
O191 C187 1.260 . S
C192 O183 1.240 . S
C192 O184 1.252 . S
O193 In182 2.294 . S
O193 C186 1.240 . S
O194 In182 2.326 . S
O194 C186 1.252 . S
In195 O196 2.294 . S
In195 O197 2.326 . S
In195 O201 2.266 . S
In195 O202 2.326 . S
In195 O203 2.266 . S
In195 O204 2.326 . S
In195 O206 2.294 . S
In195 O207 2.326 . S
O196 In195 2.294 . S
O196 C205 1.240 . S
O197 In195 2.326 . S
O197 C205 1.252 . S
C198 O201 1.252 . S
C198 O202 1.260 . S
C199 O206 1.240 . S
C199 O207 1.252 . S
C200 O203 1.252 . S
C200 O204 1.260 . S
O201 In195 2.266 . S
O201 C198 1.252 . S
O202 In195 2.326 . S
O202 C198 1.260 . S
O203 In195 2.266 . S
O203 C200 1.252 . S
O204 In195 2.326 . S
O204 C200 1.260 . S
C205 O196 1.240 . S
C205 O197 1.252 . S
O206 In195 2.294 . S
O206 C199 1.240 . S
O207 In195 2.326 . S
O207 C199 1.252 . S
In208 O209 2.294 . S
In208 O210 2.326 . S
In208 O214 2.266 . S
In208 O215 2.326 . S
In208 O216 2.266 . S
In208 O217 2.326 . S
In208 O219 2.294 1_545 S
In208 O220 2.326 1_545 S
O209 In208 2.294 . S
O209 C218 1.240 . S
O210 In208 2.326 . S
O210 C218 1.252 . S
C211 O214 1.252 . S
C211 O215 1.260 . S
C212 O219 1.240 . S
C212 O220 1.252 . S
C213 O216 1.252 . S
C213 O217 1.260 . S
O214 In208 2.266 . S
O214 C211 1.252 . S
O215 In208 2.326 . S
O215 C211 1.260 . S
O216 In208 2.266 . S
O216 C213 1.252 . S
O217 In208 2.326 . S
O217 C213 1.260 . S
C218 O209 1.240 . S
C218 O210 1.252 . S
O219 In208 2.294 1_565 S
O219 C212 1.240 . S
O220 In208 2.326 1_565 S
O220 C212 1.252 . S
In221 O222 2.294 . S
In221 O223 2.326 1_655 S
In221 O227 2.266 . S
In221 O228 2.326 . S
In221 O229 2.266 1_655 S
In221 O230 2.326 1_655 S
In221 O232 2.294 . S
In221 O233 2.326 . S
O222 In221 2.294 . S
O222 C231 1.240 . S
O223 In221 2.326 1_455 S
O223 C231 1.252 1_455 S
C224 O227 1.252 . S
C224 O228 1.260 . S
C225 O232 1.240 . S
C225 O233 1.252 . S
C226 O229 1.252 . S
C226 O230 1.260 . S
O227 In221 2.266 . S
O227 C224 1.252 . S
O228 In221 2.326 . S
O228 C224 1.260 . S
O229 In221 2.266 1_455 S
O229 C226 1.252 . S
O230 In221 2.326 1_455 S
O230 C226 1.260 . S
C231 O222 1.240 . S
C231 O223 1.252 1_655 S
O232 In221 2.294 . S
O232 C225 1.240 . S
O233 In221 2.326 . S
O233 C225 1.252 . S
H234 C240 0.930 . S
H235 C243 0.931 . S
H236 C245 0.931 . S
H237 C247 0.930 . S
H238 C249 0.930 . S
H239 C251 0.931 . S
C240 H234 0.930 . S
C240 C241 1.380 . S
C240 C242 1.394 . S
C241 C240 1.380 . S
C241 C245 1.382 . S
C242 C240 1.394 . S
C242 C243 1.400 . S
C243 H235 0.931 . S
C243 C242 1.400 . S
C243 C244 1.375 . S
C244 C243 1.375 . S
C244 C245 1.415 . S
C244 C246 1.501 . S
C245 H236 0.931 . S
C245 C241 1.382 . S
C245 C244 1.415 . S
C246 C244 1.501 . S
C246 C247 1.384 . S
C246 C251 1.408 . S
C247 H237 0.930 . S
C247 C246 1.384 . S
C247 C248 1.389 . S
C248 C247 1.389 . S
C248 C249 1.405 . S
C249 H238 0.930 . S
C249 C248 1.405 . S
C249 C250 1.364 . S
C250 C249 1.364 . S
C250 C251 1.400 . S
C251 H239 0.931 . S
C251 C246 1.408 . S
C251 C250 1.400 . S
H252 C258 0.930 . S
H253 C261 0.931 . S
H254 C263 0.931 . S
H255 C265 0.930 . S
H256 C267 0.930 . S
H257 C269 0.931 . S
C258 H252 0.930 . S
C258 C259 1.380 . S
C258 C260 1.394 . S
C259 C258 1.380 . S
C259 C263 1.382 . S
C260 C258 1.394 . S
C260 C261 1.400 . S
C261 H253 0.931 . S
C261 C260 1.400 . S
C261 C262 1.375 . S
C262 C261 1.375 . S
C262 C263 1.415 . S
C262 C264 1.501 . S
C263 H254 0.931 . S
C263 C259 1.382 . S
C263 C262 1.415 . S
C264 C262 1.501 . S
C264 C265 1.384 . S
C264 C269 1.408 . S
C265 H255 0.930 . S
C265 C264 1.384 . S
C265 C266 1.389 . S
C266 C265 1.389 . S
C266 C267 1.405 . S
C267 H256 0.930 . S
C267 C266 1.405 . S
C267 C268 1.364 . S
C268 C267 1.364 . S
C268 C269 1.400 . S
C269 H257 0.931 . S
C269 C264 1.408 . S
C269 C268 1.400 . S
H270 C276 0.930 . S
H271 C279 0.931 . S
H272 C281 0.931 . S
H273 C283 0.930 . S
H274 C285 0.930 . S
H275 C287 0.931 . S
C276 H270 0.930 . S
C276 C277 1.380 . S
C276 C278 1.394 . S
C277 C276 1.380 . S
C277 C281 1.382 . S
C278 C276 1.394 . S
C278 C279 1.400 . S
C279 H271 0.931 . S
C279 C278 1.400 . S
C279 C280 1.375 . S
C280 C279 1.375 . S
C280 C281 1.415 . S
C280 C282 1.501 . S
C281 H272 0.931 . S
C281 C277 1.382 . S
C281 C280 1.415 . S
C282 C280 1.501 . S
C282 C283 1.384 . S
C282 C287 1.408 . S
C283 H273 0.930 . S
C283 C282 1.384 . S
C283 C284 1.389 . S
C284 C283 1.389 . S
C284 C285 1.405 . S
C285 H274 0.930 . S
C285 C284 1.405 . S
C285 C286 1.364 . S
C286 C285 1.364 . S
C286 C287 1.400 . S
C287 H275 0.931 . S
C287 C282 1.408 . S
C287 C286 1.400 . S
H288 C294 0.930 . S
H289 C297 0.931 . S
H290 C299 0.931 . S
H291 C301 0.930 . S
H292 C303 0.930 . S
H293 C305 0.931 . S
C294 H288 0.930 . S
C294 C295 1.380 . S
C294 C296 1.394 . S
C295 C294 1.380 . S
C295 C299 1.382 . S
C296 C294 1.394 . S
C296 C297 1.400 . S
C297 H289 0.931 . S
C297 C296 1.400 . S
C297 C298 1.375 . S
C298 C297 1.375 . S
C298 C299 1.415 . S
C298 C300 1.501 . S
C299 H290 0.931 . S
C299 C295 1.382 . S
C299 C298 1.415 . S
C300 C298 1.501 . S
C300 C301 1.384 . S
C300 C305 1.408 . S
C301 H291 0.930 . S
C301 C300 1.384 . S
C301 C302 1.389 . S
C302 C301 1.389 . S
C302 C303 1.405 . S
C303 H292 0.930 . S
C303 C302 1.405 . S
C303 C304 1.364 . S
C304 C303 1.364 . S
C304 C305 1.400 . S
C305 H293 0.931 . S
C305 C300 1.408 . S
C305 C304 1.400 . S
H306 C312 0.930 . S
H307 C315 0.931 . S
H308 C317 0.931 . S
H309 C319 0.930 . S
H310 C321 0.930 . S
H311 C323 0.931 . S
C312 H306 0.930 . S
C312 C313 1.380 . S
C312 C314 1.394 . S
C313 C312 1.380 . S
C313 C317 1.382 . S
C314 C312 1.394 . S
C314 C315 1.400 . S
C315 H307 0.931 . S
C315 C314 1.400 . S
C315 C316 1.375 . S
C316 C315 1.375 . S
C316 C317 1.415 . S
C316 C318 1.501 . S
C317 H308 0.931 . S
C317 C313 1.382 . S
C317 C316 1.415 . S
C318 C316 1.501 . S
C318 C319 1.384 . S
C318 C323 1.408 . S
C319 H309 0.930 . S
C319 C318 1.384 . S
C319 C320 1.389 . S
C320 C319 1.389 . S
C320 C321 1.405 . S
C321 H310 0.930 . S
C321 C320 1.405 . S
C321 C322 1.364 . S
C322 C321 1.364 . S
C322 C323 1.400 . S
C323 H311 0.931 . S
C323 C318 1.408 . S
C323 C322 1.400 . S
H324 C330 0.930 . S
H325 C333 0.931 . S
H326 C335 0.931 . S
H327 C337 0.930 . S
H328 C339 0.930 . S
H329 C341 0.931 . S
C330 H324 0.930 . S
C330 C331 1.380 . S
C330 C332 1.394 . S
C331 C330 1.380 . S
C331 C335 1.382 . S
C332 C330 1.394 . S
C332 C333 1.400 . S
C333 H325 0.931 . S
C333 C332 1.400 . S
C333 C334 1.375 . S
C334 C333 1.375 . S
C334 C335 1.415 . S
C334 C336 1.501 . S
C335 H326 0.931 . S
C335 C331 1.382 . S
C335 C334 1.415 . S
C336 C334 1.501 . S
C336 C337 1.384 . S
C336 C341 1.408 . S
C337 H327 0.930 . S
C337 C336 1.384 . S
C337 C338 1.389 . S
C338 C337 1.389 . S
C338 C339 1.405 . S
C339 H328 0.930 . S
C339 C338 1.405 . S
C339 C340 1.364 . S
C340 C339 1.364 . S
C340 C341 1.400 . S
C341 H329 0.931 . S
C341 C336 1.408 . S
C341 C340 1.400 . S
H342 C348 0.930 . S
H343 C351 0.931 . S
H344 C353 0.931 . S
H345 C355 0.930 . S
H346 C357 0.930 . S
H347 C359 0.931 . S
C348 H342 0.930 . S
C348 C349 1.380 . S
C348 C350 1.394 . S
C349 C348 1.380 . S
C349 C353 1.382 . S
C350 C348 1.394 . S
C350 C351 1.400 . S
C351 H343 0.931 . S
C351 C350 1.400 . S
C351 C352 1.375 . S
C352 C351 1.375 . S
C352 C353 1.415 . S
C352 C354 1.501 . S
C353 H344 0.931 . S
C353 C349 1.382 . S
C353 C352 1.415 . S
C354 C352 1.501 . S
C354 C355 1.384 . S
C354 C359 1.408 . S
C355 H345 0.930 . S
C355 C354 1.384 . S
C355 C356 1.389 . S
C356 C355 1.389 . S
C356 C357 1.405 . S
C357 H346 0.930 . S
C357 C356 1.405 . S
C357 C358 1.364 . S
C358 C357 1.364 . S
C358 C359 1.400 . S
C359 H347 0.931 . S
C359 C354 1.408 . S
C359 C358 1.400 . S
H360 C366 0.930 . S
H361 C369 0.931 . S
H362 C371 0.931 . S
H363 C373 0.930 . S
H364 C375 0.930 . S
H365 C377 0.931 . S
C366 H360 0.930 . S
C366 C367 1.380 . S
C366 C368 1.394 . S
C367 C366 1.380 . S
C367 C371 1.382 . S
C368 C366 1.394 . S
C368 C369 1.400 . S
C369 H361 0.931 . S
C369 C368 1.400 . S
C369 C370 1.375 . S
C370 C369 1.375 . S
C370 C371 1.415 . S
C370 C372 1.501 . S
C371 H362 0.931 . S
C371 C367 1.382 . S
C371 C370 1.415 . S
C372 C370 1.501 . S
C372 C373 1.384 . S
C372 C377 1.408 . S
C373 H363 0.930 . S
C373 C372 1.384 . S
C373 C374 1.389 . S
C374 C373 1.389 . S
C374 C375 1.405 . S
C375 H364 0.930 . S
C375 C374 1.405 . S
C375 C376 1.364 . S
C376 C375 1.364 . S
C376 C377 1.400 . S
C377 H365 0.931 . S
C377 C372 1.408 . S
C377 C376 1.400 . S
H378 C384 0.930 . S
H379 C387 0.931 . S
H380 C389 0.931 . S
H381 C391 0.930 . S
H382 C393 0.930 . S
H383 C395 0.931 . S
C384 H378 0.930 . S
C384 C385 1.380 . S
C384 C386 1.394 . S
C385 C384 1.380 . S
C385 C389 1.382 . S
C386 C384 1.394 . S
C386 C387 1.400 . S
C387 H379 0.931 . S
C387 C386 1.400 . S
C387 C388 1.375 . S
C388 C387 1.375 . S
C388 C389 1.415 . S
C388 C390 1.501 . S
C389 H380 0.931 . S
C389 C385 1.382 . S
C389 C388 1.415 . S
C390 C388 1.501 . S
C390 C391 1.384 . S
C390 C395 1.408 . S
C391 H381 0.930 . S
C391 C390 1.384 . S
C391 C392 1.389 . S
C392 C391 1.389 . S
C392 C393 1.405 . S
C393 H382 0.930 . S
C393 C392 1.405 . S
C393 C394 1.364 . S
C394 C393 1.364 . S
C394 C395 1.400 . S
C395 H383 0.931 . S
C395 C390 1.408 . S
C395 C394 1.400 . S
H396 C402 0.930 . S
H397 C405 0.931 . S
H398 C407 0.931 . S
H399 C409 0.930 . S
H400 C411 0.930 . S
H401 C413 0.931 . S
C402 H396 0.930 . S
C402 C403 1.380 . S
C402 C404 1.394 . S
C403 C402 1.380 . S
C403 C407 1.382 . S
C404 C402 1.394 . S
C404 C405 1.400 . S
C405 H397 0.931 . S
C405 C404 1.400 . S
C405 C406 1.375 . S
C406 C405 1.375 . S
C406 C407 1.415 . S
C406 C408 1.501 . S
C407 H398 0.931 . S
C407 C403 1.382 . S
C407 C406 1.415 . S
C408 C406 1.501 . S
C408 C409 1.384 . S
C408 C413 1.408 . S
C409 H399 0.930 . S
C409 C408 1.384 . S
C409 C410 1.389 . S
C410 C409 1.389 . S
C410 C411 1.405 . S
C411 H400 0.930 . S
C411 C410 1.405 . S
C411 C412 1.364 . S
C412 C411 1.364 . S
C412 C413 1.400 . S
C413 H401 0.931 . S
C413 C408 1.408 . S
C413 C412 1.400 . S
H414 C420 0.930 . S
H415 C423 0.931 . S
H416 C425 0.931 . S
H417 C427 0.930 . S
H418 C429 0.930 . S
H419 C431 0.931 . S
C420 H414 0.930 . S
C420 C421 1.380 . S
C420 C422 1.394 . S
C421 C420 1.380 . S
C421 C425 1.382 . S
C422 C420 1.394 . S
C422 C423 1.400 . S
C423 H415 0.931 . S
C423 C422 1.400 . S
C423 C424 1.375 . S
C424 C423 1.375 . S
C424 C425 1.415 . S
C424 C426 1.501 . S
C425 H416 0.931 . S
C425 C421 1.382 . S
C425 C424 1.415 . S
C426 C424 1.501 . S
C426 C427 1.384 . S
C426 C431 1.408 . S
C427 H417 0.930 . S
C427 C426 1.384 . S
C427 C428 1.389 . S
C428 C427 1.389 . S
C428 C429 1.405 . S
C429 H418 0.930 . S
C429 C428 1.405 . S
C429 C430 1.364 . S
C430 C429 1.364 . S
C430 C431 1.400 . S
C431 H419 0.931 . S
C431 C426 1.408 . S
C431 C430 1.400 . S
H432 C438 0.949 . S
H433 C441 0.931 . S
H434 C443 0.931 . S
H435 C445 0.930 . S
H436 C447 0.930 . S
H437 C449 0.919 1_545 S
C438 H432 0.949 . S
C438 C439 1.376 . S
C438 C440 1.380 1_545 S
C439 C438 1.376 . S
C439 C443 1.382 . S
C440 C438 1.380 1_565 S
C440 C441 1.400 . S
C441 H433 0.931 . S
C441 C440 1.400 . S
C441 C442 1.375 . S
C442 C441 1.375 . S
C442 C443 1.415 1_565 S
C442 C444 1.501 . S
C443 H434 0.931 . S
C443 C439 1.382 . S
C443 C442 1.415 1_545 S
C444 C442 1.501 . S
C444 C445 1.384 . S
C444 C449 1.399 . S
C445 H435 0.930 . S
C445 C444 1.384 . S
C445 C446 1.389 . S
C446 C445 1.389 . S
C446 C447 1.405 . S
C447 H436 0.930 . S
C447 C446 1.405 . S
C447 C448 1.374 . S
C448 C447 1.374 . S
C448 C449 1.406 . S
C449 H437 0.919 1_565 S
C449 C444 1.399 . S
C449 C448 1.406 . S
H450 C456 0.930 . S
H451 C459 0.931 . S
H452 C461 0.931 . S
H453 C463 0.952 . S
H454 C465 0.930 . S
H455 C467 0.931 . S
C456 H450 0.930 . S
C456 C457 1.380 . S
C456 C458 1.394 . S
C457 C456 1.380 . S
C457 C461 1.382 . S
C458 C456 1.394 . S
C458 C459 1.400 . S
C459 H451 0.931 . S
C459 C458 1.400 . S
C459 C460 1.375 . S
C460 C459 1.375 . S
C460 C461 1.415 . S
C460 C462 1.501 . S
C461 H452 0.931 . S
C461 C457 1.382 . S
C461 C460 1.415 . S
C462 C460 1.501 . S
C462 C463 1.384 . S
C462 C467 1.408 . S
C463 H453 0.952 . S
C463 C462 1.384 . S
C463 C464 1.389 . S
C464 C463 1.389 . S
C464 C465 1.405 . S
C465 H454 0.930 . S
C465 C464 1.405 . S
C465 C466 1.364 . S
C466 C465 1.364 . S
C466 C467 1.400 . S
C467 H455 0.931 . S
C467 C462 1.408 . S
C467 C466 1.400 . S
H468 C474 0.955 . S
H469 C477 0.931 . S
H470 C479 0.934 1_655 S
H471 C481 0.930 . S
H472 C483 0.930 . S
H473 C485 0.931 . S
C474 H468 0.955 . S
C474 C475 1.377 . S
C474 C476 1.381 1_655 S
C475 C474 1.377 . S
C475 C479 1.358 1_655 S
C476 C474 1.381 1_455 S
C476 C477 1.400 . S
C477 H469 0.931 . S
C477 C476 1.400 . S
C477 C478 1.375 . S
C478 C477 1.375 . S
C478 C479 1.419 . S
C478 C480 1.501 . S
C479 H470 0.934 1_455 S
C479 C475 1.358 1_455 S
C479 C478 1.419 . S
C480 C478 1.501 . S
C480 C481 1.384 . S
C480 C485 1.408 1_455 S
C481 H471 0.930 . S
C481 C480 1.384 . S
C481 C482 1.389 . S
C482 C481 1.389 . S
C482 C483 1.405 . S
C483 H472 0.930 . S
C483 C482 1.405 . S
C483 C484 1.364 1_455 S
C484 C483 1.364 1_655 S
C484 C485 1.400 . S
C485 H473 0.931 . S
C485 C480 1.408 1_655 S
C485 C484 1.400 . S
H486 C492 0.930 . S
H487 C495 0.931 . S
H488 C497 0.931 . S
H489 C499 0.930 . S
H490 C501 0.930 . S
H491 C503 0.931 . S
C492 H486 0.930 . S
C492 C493 1.380 . S
C492 C494 1.394 . S
C493 C492 1.380 . S
C493 C497 1.382 . S
C494 C492 1.394 . S
C494 C495 1.400 . S
C495 H487 0.931 . S
C495 C494 1.400 . S
C495 C496 1.375 . S
C496 C495 1.375 . S
C496 C497 1.415 . S
C496 C498 1.501 . S
C497 H488 0.931 . S
C497 C493 1.382 . S
C497 C496 1.415 . S
C498 C496 1.501 . S
C498 C499 1.384 . S
C498 C503 1.408 . S
C499 H489 0.930 . S
C499 C498 1.384 . S
C499 C500 1.389 . S
C500 C499 1.389 . S
C500 C501 1.405 . S
C501 H490 0.930 . S
C501 C500 1.405 . S
C501 C502 1.364 . S
C502 C501 1.364 . S
C502 C503 1.400 . S
C503 H491 0.931 . S
C503 C498 1.408 . S
C503 C502 1.400 . S
H504 C510 0.930 . S
H505 C513 0.931 . S
H506 C515 0.931 . S
H507 C517 0.930 . S
H508 C519 0.930 . S
H509 C521 0.931 . S
C510 H504 0.930 . S
C510 C511 1.380 . S
C510 C512 1.394 . S
C511 C510 1.380 . S
C511 C515 1.382 . S
C512 C510 1.394 . S
C512 C513 1.400 . S
C513 H505 0.931 . S
C513 C512 1.400 . S
C513 C514 1.375 . S
C514 C513 1.375 . S
C514 C515 1.415 . S
C514 C516 1.501 . S
C515 H506 0.931 . S
C515 C511 1.382 . S
C515 C514 1.415 . S
C516 C514 1.501 . S
C516 C517 1.384 . S
C516 C521 1.408 . S
C517 H507 0.930 . S
C517 C516 1.384 . S
C517 C518 1.389 . S
C518 C517 1.389 . S
C518 C519 1.405 . S
C519 H508 0.930 . S
C519 C518 1.405 . S
C519 C520 1.364 . S
C520 C519 1.364 . S
C520 C521 1.400 . S
C521 H509 0.931 . S
C521 C516 1.408 . S
C521 C520 1.400 . S
H522 C528 0.930 . S
H523 C531 0.931 . S
H524 C533 0.931 . S
H525 C535 0.930 . S
H526 C537 0.930 . S
H527 C539 0.931 . S
C528 H522 0.930 . S
C528 C529 1.380 . S
C528 C530 1.394 . S
C529 C528 1.380 . S
C529 C533 1.382 . S
C530 C528 1.394 . S
C530 C531 1.400 . S
C531 H523 0.931 . S
C531 C530 1.400 . S
C531 C532 1.375 . S
C532 C531 1.375 . S
C532 C533 1.415 . S
C532 C534 1.501 . S
C533 H524 0.931 . S
C533 C529 1.382 . S
C533 C532 1.415 . S
C534 C532 1.501 . S
C534 C535 1.384 . S
C534 C539 1.408 . S
C535 H525 0.930 . S
C535 C534 1.384 . S
C535 C536 1.389 . S
C536 C535 1.389 . S
C536 C537 1.405 . S
C537 H526 0.930 . S
C537 C536 1.405 . S
C537 C538 1.364 . S
C538 C537 1.364 . S
C538 C539 1.400 . S
C539 H527 0.931 . S
C539 C534 1.408 . S
C539 C538 1.400 . S
H540 C546 0.930 . S
H541 C549 0.931 . S
H542 C551 0.931 . S
H543 C553 0.930 . S
H544 C555 0.930 . S
H545 C557 0.931 . S
C546 H540 0.930 . S
C546 C547 1.380 . S
C546 C548 1.394 . S
C547 C546 1.380 . S
C547 C551 1.382 . S
C548 C546 1.394 . S
C548 C549 1.400 . S
C549 H541 0.931 . S
C549 C548 1.400 . S
C549 C550 1.375 . S
C550 C549 1.375 . S
C550 C551 1.415 . S
C550 C552 1.501 . S
C551 H542 0.931 . S
C551 C547 1.382 . S
C551 C550 1.415 . S
C552 C550 1.501 . S
C552 C553 1.384 . S
C552 C557 1.408 . S
C553 H543 0.930 . S
C553 C552 1.384 . S
C553 C554 1.389 . S
C554 C553 1.389 . S
C554 C555 1.405 . S
C555 H544 0.930 . S
C555 C554 1.405 . S
C555 C556 1.364 . S
C556 C555 1.364 . S
C556 C557 1.400 . S
C557 H545 0.931 . S
C557 C552 1.408 . S
C557 C556 1.400 . S
C558 C559 1.369 1_655 S
C558 C560 1.419 . S
C558 H562 0.930 . S
C559 C558 1.369 1_455 S
C559 C568 1.429 . S
C560 C558 1.419 . S
C560 C561 1.363 1_655 S
C560 H563 0.929 . S
C561 C560 1.363 1_455 S
C561 C567 1.428 . S
H562 C558 0.930 . S
H563 C560 0.929 . S
S564 N565 1.613 . S
S564 N566 1.610 . S
N565 S564 1.613 . S
N565 C568 1.350 . S
N566 S564 1.610 . S
N566 C567 1.351 . S
C567 C561 1.428 . S
C567 N566 1.351 . S
C567 C568 1.434 . S
C568 C559 1.429 . S
C568 N565 1.350 . S
C568 C567 1.434 . S
C569 C570 1.369 . S
C569 C571 1.419 . S
C569 H573 0.930 . S
C570 C569 1.369 . S
C570 C579 1.429 . S
C571 C569 1.419 . S
C571 C572 1.363 . S
C571 H574 0.929 . S
C572 C571 1.363 . S
C572 C578 1.428 . S
H573 C569 0.930 . S
H574 C571 0.929 . S
S575 N576 1.613 . S
S575 N577 1.610 . S
N576 S575 1.613 . S
N576 C579 1.350 . S
N577 S575 1.610 . S
N577 C578 1.351 . S
C578 C572 1.428 . S
C578 N577 1.351 . S
C578 C579 1.434 . S
C579 C570 1.429 . S
C579 N576 1.350 . S
C579 C578 1.434 . S
C580 C581 1.369 . S
C580 C582 1.419 . S
C580 H584 0.930 . S
C581 C580 1.369 . S
C581 C590 1.429 1_545 S
C582 C580 1.419 . S
C582 C583 1.363 . S
C582 H585 0.929 . S
C583 C582 1.363 . S
C583 C589 1.428 1_545 S
H584 C580 0.930 . S
H585 C582 0.929 . S
S586 N587 1.613 . S
S586 N588 1.610 . S
N587 S586 1.613 . S
N587 C590 1.350 . S
N588 S586 1.610 . S
N588 C589 1.351 . S
C589 C583 1.428 1_565 S
C589 N588 1.351 . S
C589 C590 1.434 . S
C590 C581 1.429 1_565 S
C590 N587 1.350 . S
C590 C589 1.434 . S
C591 C592 1.369 . S
C591 C593 1.419 . S
C591 H595 0.930 . S
C592 C591 1.369 . S
C592 C601 1.429 . S
C593 C591 1.419 . S
C593 C594 1.363 . S
C593 H596 0.929 . S
C594 C593 1.363 . S
C594 C600 1.428 . S
H595 C591 0.930 . S
H596 C593 0.929 . S
S597 N598 1.621 . S
S597 N599 1.610 . S
N598 S597 1.621 . S
N598 C601 1.350 . S
N599 S597 1.610 . S
N599 C600 1.353 . S
C600 C594 1.428 . S
C600 N599 1.353 . S
C600 C601 1.434 . S
C601 C592 1.429 . S
C601 N598 1.350 . S
C601 C600 1.434 . S
C602 C603 1.369 1_655 S
C602 C604 1.419 . S
C602 H606 0.930 . S
C603 C602 1.369 1_455 S
C603 C612 1.429 . S
C604 C602 1.419 . S
C604 C605 1.363 1_655 S
C604 H607 0.929 . S
C605 C604 1.363 1_455 S
C605 C611 1.428 . S
H606 C602 0.930 . S
H607 C604 0.929 . S
S608 N609 1.613 . S
S608 N610 1.610 . S
N609 S608 1.613 . S
N609 C612 1.350 . S
N610 S608 1.610 . S
N610 C611 1.351 . S
C611 C605 1.428 . S
C611 N610 1.351 . S
C611 C612 1.434 . S
C612 C603 1.429 . S
C612 N609 1.350 . S
C612 C611 1.434 . S
C613 C614 1.369 . S
C613 C615 1.419 . S
C613 H617 0.930 . S
C614 C613 1.369 . S
C614 C623 1.429 . S
C615 C613 1.419 . S
C615 C616 1.363 . S
C615 H618 0.929 . S
C616 C615 1.363 . S
C616 C622 1.428 . S
H617 C613 0.930 . S
H618 C615 0.929 . S
S619 N620 1.613 . S
S619 N621 1.610 . S
N620 S619 1.613 . S
N620 C623 1.350 . S
N621 S619 1.610 . S
N621 C622 1.351 . S
C622 C616 1.428 . S
C622 N621 1.351 . S
C622 C623 1.434 . S
C623 C614 1.429 . S
C623 N620 1.350 . S
C623 C622 1.434 . S
C624 C625 1.393 . S
C624 C626 1.419 . S
C624 H628 0.930 . S
C625 C624 1.393 . S
C625 C634 1.415 1_455 S
C626 C624 1.419 . S
C626 C627 1.343 1_455 S
C626 H629 0.929 . S
C627 C626 1.343 1_655 S
C627 C633 1.465 . S
H628 C624 0.930 . S
H629 C626 0.929 . S
S630 N631 1.613 . S
S630 N632 1.610 . S
N631 S630 1.613 . S
N631 C634 1.350 . S
N632 S630 1.610 . S
N632 C633 1.351 . S
C633 C627 1.465 . S
C633 N632 1.351 . S
C633 C634 1.434 . S
C634 C625 1.415 1_655 S
C634 N631 1.350 . S
C634 C633 1.434 . S
C635 C636 1.369 . S
C635 C637 1.419 . S
C635 H639 0.930 . S
C636 C635 1.369 . S
C636 C645 1.429 . S
C637 C635 1.419 . S
C637 C638 1.363 . S
C637 H640 0.929 . S
C638 C637 1.363 . S
C638 C644 1.428 . S
H639 C635 0.930 . S
H640 C637 0.929 . S
S641 N642 1.613 . S
S641 N643 1.610 . S
N642 S641 1.613 . S
N642 C645 1.350 . S
N643 S641 1.610 . S
N643 C644 1.351 . S
C644 C638 1.428 . S
C644 N643 1.351 . S
C644 C645 1.434 . S
C645 C636 1.429 . S
C645 N642 1.350 . S
C645 C644 1.434 . S
C646 C647 1.356 1_565 S
C646 C648 1.404 . S
C646 H650 0.960 . S
C647 C646 1.356 1_545 S
C647 C656 1.429 . S
C648 C646 1.404 . S
C648 C649 1.363 1_565 S
C648 H651 0.929 . S
C649 C648 1.363 1_545 S
C649 C655 1.428 . S
H650 C646 0.960 . S
H651 C648 0.929 . S
S652 N653 1.613 . S
S652 N654 1.610 . S
N653 S652 1.613 . S
N653 C656 1.350 . S
N654 S652 1.610 . S
N654 C655 1.351 . S
C655 C649 1.428 . S
C655 N654 1.351 . S
C655 C656 1.434 . S
C656 C647 1.429 . S
C656 N653 1.350 . S
C656 C655 1.434 . S
C657 C658 1.399 . S
C657 C659 1.419 . S
C657 H661 0.930 . S
C658 C657 1.399 . S
C658 C667 1.415 1_545 S
C659 C657 1.419 . S
C659 C660 1.353 1_545 S
C659 H662 0.929 . S
C660 C659 1.353 1_565 S
C660 C666 1.452 . S
H661 C657 0.930 . S
H662 C659 0.929 . S
S663 N664 1.613 . S
S663 N665 1.610 . S
N664 S663 1.613 . S
N664 C667 1.350 . S
N665 S663 1.610 . S
N665 C666 1.351 . S
C666 C660 1.452 . S
C666 N665 1.351 . S
C666 C667 1.434 . S
C667 C658 1.415 1_565 S
C667 N664 1.350 . S
C667 C666 1.434 . S
C668 C669 1.369 1_655 S
C668 C670 1.419 . S
C668 H672 0.930 . S
C669 C668 1.369 1_455 S
C669 C678 1.429 . S
C670 C668 1.419 . S
C670 C671 1.363 1_655 S
C670 H673 0.929 . S
C671 C670 1.363 1_455 S
C671 C677 1.428 . S
H672 C668 0.930 . S
H673 C670 0.929 . S
S674 N675 1.613 . S
S674 N676 1.610 . S
N675 S674 1.613 . S
N675 C678 1.350 . S
N676 S674 1.610 . S
N676 C677 1.351 . S
C677 C671 1.428 . S
C677 N676 1.351 . S
C677 C678 1.434 . S
C678 C669 1.429 . S
C678 N675 1.350 . S
C678 C677 1.434 . S
C679 C680 1.369 . S
C679 C681 1.419 . S
C679 H683 0.930 . S
C680 C679 1.369 . S
C680 C689 1.429 . S
C681 C679 1.419 . S
C681 C682 1.363 . S
C681 H684 0.929 . S
C682 C681 1.363 . S
C682 C688 1.428 . S
H683 C679 0.930 . S
H684 C681 0.929 . S
S685 N686 1.613 . S
S685 N687 1.610 . S
N686 S685 1.613 . S
N686 C689 1.350 . S
N687 S685 1.610 . S
N687 C688 1.351 . S
C688 C682 1.428 . S
C688 N687 1.351 . S
C688 C689 1.434 . S
C689 C680 1.429 . S
C689 N686 1.350 . S
C689 C688 1.434 . S
C690 C691 1.369 . S
C690 C692 1.419 . S
C690 H694 0.930 . S
C691 C690 1.369 . S
C691 C700 1.429 . S
C692 C690 1.419 . S
C692 C693 1.363 . S
C692 H695 0.929 . S
C693 C692 1.363 . S
C693 C699 1.428 . S
H694 C690 0.930 . S
H695 C692 0.929 . S
S696 N697 1.613 . S
S696 N698 1.610 . S
N697 S696 1.613 . S
N697 C700 1.350 . S
N698 S696 1.610 . S
N698 C699 1.351 . S
C699 C693 1.428 . S
C699 N698 1.351 . S
C699 C700 1.434 . S
C700 C691 1.429 . S
C700 N697 1.350 . S
C700 C699 1.434 . S
C701 C702 1.369 . S
C701 C703 1.419 . S
C701 H705 0.930 . S
C702 C701 1.369 . S
C702 C711 1.429 . S
C703 C701 1.419 . S
C703 C704 1.363 . S
C703 H706 0.929 . S
C704 C703 1.363 . S
C704 C710 1.428 . S
H705 C701 0.930 . S
H706 C703 0.929 . S
S707 N708 1.613 . S
S707 N709 1.610 . S
N708 S707 1.613 . S
N708 C711 1.350 . S
N709 S707 1.610 . S
N709 C710 1.351 . S
C710 C704 1.428 . S
C710 N709 1.351 . S
C710 C711 1.434 . S
C711 C702 1.429 . S
C711 N708 1.350 . S
C711 C710 1.434 . S
C712 C713 1.369 . S
C712 C714 1.419 . S
C712 H716 0.930 . S
C713 C712 1.369 . S
C713 C722 1.429 . S
C714 C712 1.419 . S
C714 C715 1.363 . S
C714 H717 0.929 . S
C715 C714 1.363 . S
C715 C721 1.428 . S
H716 C712 0.930 . S
H717 C714 0.929 . S
S718 N719 1.613 . S
S718 N720 1.610 . S
N719 S718 1.613 . S
N719 C722 1.350 . S
N720 S718 1.610 . S
N720 C721 1.351 . S
C721 C715 1.428 . S
C721 N720 1.351 . S
C721 C722 1.434 . S
C722 C713 1.429 . S
C722 N719 1.350 . S
C722 C721 1.434 . S
C723 C724 1.369 . S
C723 C725 1.419 . S
C723 H727 0.930 . S
C724 C723 1.369 . S
C724 C733 1.429 . S
C725 C723 1.419 . S
C725 C726 1.363 . S
C725 H728 0.929 . S
C726 C725 1.363 . S
C726 C732 1.428 . S
H727 C723 0.930 . S
H728 C725 0.929 . S
S729 N730 1.613 . S
S729 N731 1.610 . S
N730 S729 1.613 . S
N730 C733 1.350 . S
N731 S729 1.610 . S
N731 C732 1.351 . S
C732 C726 1.428 . S
C732 N731 1.351 . S
C732 C733 1.434 . S
C733 C724 1.429 . S
C733 N730 1.350 . S
C733 C732 1.434 . S
C734 C735 1.369 . S
C734 C736 1.419 . S
C734 H738 0.930 . S
C735 C734 1.369 . S
C735 C744 1.429 . S
C736 C734 1.419 . S
C736 C737 1.363 . S
C736 H739 0.929 . S
C737 C736 1.363 . S
C737 C743 1.428 . S
H738 C734 0.930 . S
H739 C736 0.929 . S
S740 N741 1.613 . S
S740 N742 1.610 . S
N741 S740 1.613 . S
N741 C744 1.350 . S
N742 S740 1.610 . S
N742 C743 1.351 . S
C743 C737 1.428 . S
C743 N742 1.351 . S
C743 C744 1.434 . S
C744 C735 1.429 . S
C744 N741 1.350 . S
C744 C743 1.434 . S
C745 C746 1.369 . S
C745 C747 1.419 . S
C745 H749 0.930 . S
C746 C745 1.369 . S
C746 C755 1.429 . S
C747 C745 1.419 . S
C747 C748 1.363 . S
C747 H750 0.929 . S
C748 C747 1.363 . S
C748 C754 1.428 . S
H749 C745 0.930 . S
H750 C747 0.929 . S
S751 N752 1.613 . S
S751 N753 1.610 . S
N752 S751 1.613 . S
N752 C755 1.350 . S
N753 S751 1.610 . S
N753 C754 1.351 . S
C754 C748 1.428 . S
C754 N753 1.351 . S
C754 C755 1.434 . S
C755 C746 1.429 . S
C755 N752 1.350 . S
C755 C754 1.434 . S
C756 C757 1.369 . S
C756 C758 1.419 . S
C756 H760 0.930 . S
C757 C756 1.369 . S
C757 C766 1.429 . S
C758 C756 1.419 . S
C758 C759 1.363 . S
C758 H761 0.929 . S
C759 C758 1.363 . S
C759 C765 1.428 . S
H760 C756 0.930 . S
H761 C758 0.929 . S
S762 N763 1.613 . S
S762 N764 1.610 . S
N763 S762 1.613 . S
N763 C766 1.350 . S
N764 S762 1.610 . S
N764 C765 1.351 . S
C765 C759 1.428 . S
C765 N764 1.351 . S
C765 C766 1.434 . S
C766 C757 1.429 . S
C766 N763 1.350 . S
C766 C765 1.434 . S
C767 C768 1.369 . S
C767 C769 1.419 . S
C767 H771 0.930 . S
C768 C767 1.369 . S
C768 C777 1.429 . S
C769 C767 1.419 . S
C769 C770 1.363 . S
C769 H772 0.929 . S
C770 C769 1.363 . S
C770 C776 1.428 . S
H771 C767 0.930 . S
H772 C769 0.929 . S
S773 N774 1.613 . S
S773 N775 1.610 . S
N774 S773 1.613 . S
N774 C777 1.350 . S
N775 S773 1.610 . S
N775 C776 1.351 . S
C776 C770 1.428 . S
C776 N775 1.351 . S
C776 C777 1.434 . S
C777 C768 1.429 . S
C777 N774 1.350 . S
C777 C776 1.434 . S
C778 C779 1.369 . S
C778 C780 1.419 . S
C778 H782 0.930 . S
C779 C778 1.369 . S
C779 C788 1.429 . S
C780 C778 1.419 . S
C780 C781 1.363 . S
C780 H783 0.929 . S
C781 C780 1.363 . S
C781 C787 1.428 . S
H782 C778 0.930 . S
H783 C780 0.929 . S
S784 N785 1.613 . S
S784 N786 1.610 . S
N785 S784 1.613 . S
N785 C788 1.350 . S
N786 S784 1.610 . S
N786 C787 1.351 . S
C787 C781 1.428 . S
C787 N786 1.351 . S
C787 C788 1.434 . S
C788 C779 1.429 . S
C788 N785 1.350 . S
C788 C787 1.434 . S
C789 C790 1.369 . S
C789 C791 1.419 . S
C789 H793 0.930 . S
C790 C789 1.369 . S
C790 C799 1.429 . S
C791 C789 1.419 . S
C791 C792 1.363 . S
C791 H794 0.929 . S
C792 C791 1.363 . S
C792 C798 1.428 . S
H793 C789 0.930 . S
H794 C791 0.929 . S
S795 N796 1.613 . S
S795 N797 1.610 . S
N796 S795 1.613 . S
N796 C799 1.350 . S
N797 S795 1.610 . S
N797 C798 1.351 . S
C798 C792 1.428 . S
C798 N797 1.351 . S
C798 C799 1.434 . S
C799 C790 1.429 . S
C799 N796 1.350 . S
C799 C798 1.434 . S
C800 C801 1.369 . S
C800 C802 1.419 . S
C800 H804 0.930 . S
C801 C800 1.369 . S
C801 C810 1.429 . S
C802 C800 1.419 . S
C802 C803 1.363 . S
C802 H805 0.929 . S
C803 C802 1.363 . S
C803 C809 1.428 . S
H804 C800 0.930 . S
H805 C802 0.929 . S
S806 N807 1.613 . S
S806 N808 1.610 . S
N807 S806 1.613 . S
N807 C810 1.350 . S
N808 S806 1.610 . S
N808 C809 1.351 . S
C809 C803 1.428 . S
C809 N808 1.351 . S
C809 C810 1.434 . S
C810 C801 1.429 . S
C810 N807 1.350 . S
C810 C809 1.434 . S
C811 C812 1.369 . S
C811 C813 1.419 . S
C811 H815 0.930 . S
C812 C811 1.369 . S
C812 C821 1.429 . S
C813 C811 1.419 . S
C813 C814 1.363 . S
C813 H816 0.929 . S
C814 C813 1.363 . S
C814 C820 1.428 . S
H815 C811 0.930 . S
H816 C813 0.929 . S
S817 N818 1.613 . S
S817 N819 1.610 . S
N818 S817 1.613 . S
N818 C821 1.350 . S
N819 S817 1.610 . S
N819 C820 1.351 . S
C820 C814 1.428 . S
C820 N819 1.351 . S
C820 C821 1.434 . S
C821 C812 1.429 . S
C821 N818 1.350 . S
C821 C820 1.434 . S
C822 C823 1.369 . S
C822 C824 1.419 . S
C822 H826 0.930 . S
C823 C822 1.369 . S
C823 C832 1.429 . S
C824 C822 1.419 . S
C824 C825 1.363 . S
C824 H827 0.929 . S
C825 C824 1.363 . S
C825 C831 1.428 . S
H826 C822 0.930 . S
H827 C824 0.929 . S
S828 N829 1.613 . S
S828 N830 1.610 . S
N829 S828 1.613 . S
N829 C832 1.350 . S
N830 S828 1.610 . S
N830 C831 1.351 . S
C831 C825 1.428 . S
C831 N830 1.351 . S
C831 C832 1.434 . S
C832 C823 1.429 . S
C832 N829 1.350 . S
C832 C831 1.434 . S
C833 C834 1.369 . S
C833 C835 1.419 . S
C833 H837 0.930 . S
C834 C833 1.369 . S
C834 C843 1.429 . S
C835 C833 1.419 . S
C835 C836 1.363 . S
C835 H838 0.929 . S
C836 C835 1.363 . S
C836 C842 1.428 . S
H837 C833 0.930 . S
H838 C835 0.929 . S
S839 N840 1.613 . S
S839 N841 1.610 . S
N840 S839 1.613 . S
N840 C843 1.350 . S
N841 S839 1.610 . S
N841 C842 1.351 . S
C842 C836 1.428 . S
C842 N841 1.351 . S
C842 C843 1.434 . S
C843 C834 1.429 . S
C843 N840 1.350 . S
C843 C842 1.434 . S
C844 C845 1.369 . S
C844 C846 1.419 . S
C844 H848 0.930 . S
C845 C844 1.369 . S
C845 C854 1.429 . S
C846 C844 1.419 . S
C846 C847 1.363 . S
C846 H849 0.929 . S
C847 C846 1.363 . S
C847 C853 1.428 . S
H848 C844 0.930 . S
H849 C846 0.929 . S
S850 N851 1.613 . S
S850 N852 1.610 . S
N851 S850 1.613 . S
N851 C854 1.350 . S
N852 S850 1.610 . S
N852 C853 1.351 . S
C853 C847 1.428 . S
C853 N852 1.351 . S
C853 C854 1.434 . S
C854 C845 1.429 . S
C854 N851 1.350 . S
C854 C853 1.434 . S
C855 C856 1.369 . S
C855 C857 1.419 . S
C855 H859 0.930 . S
C856 C855 1.369 . S
C856 C865 1.429 . S
C857 C855 1.419 . S
C857 C858 1.363 . S
C857 H860 0.929 . S
C858 C857 1.363 . S
C858 C864 1.428 . S
H859 C855 0.930 . S
H860 C857 0.929 . S
S861 N862 1.613 . S
S861 N863 1.610 . S
N862 S861 1.613 . S
N862 C865 1.350 . S
N863 S861 1.610 . S
N863 C864 1.351 . S
C864 C858 1.428 . S
C864 N863 1.351 . S
C864 C865 1.434 . S
C865 C856 1.429 . S
C865 N862 1.350 . S
C865 C864 1.434 . S
C866 C867 1.369 . S
C866 C868 1.419 . S
C866 H870 0.930 . S
C867 C866 1.369 . S
C867 C876 1.429 . S
C868 C866 1.419 . S
C868 C869 1.363 . S
C868 H871 0.929 . S
C869 C868 1.363 . S
C869 C875 1.428 . S
H870 C866 0.930 . S
H871 C868 0.929 . S
S872 N873 1.613 . S
S872 N874 1.610 . S
N873 S872 1.613 . S
N873 C876 1.350 . S
N874 S872 1.610 . S
N874 C875 1.351 . S
C875 C869 1.428 . S
C875 N874 1.351 . S
C875 C876 1.434 . S
C876 C867 1.429 . S
C876 N873 1.350 . S
C876 C875 1.434 . S
C877 C878 1.369 . S
C877 C879 1.419 . S
C877 H881 0.930 . S
C878 C877 1.369 . S
C878 C887 1.429 . S
C879 C877 1.419 . S
C879 C880 1.363 . S
C879 H882 0.929 . S
C880 C879 1.363 . S
C880 C886 1.428 . S
H881 C877 0.930 . S
H882 C879 0.929 . S
S883 N884 1.613 . S
S883 N885 1.610 . S
N884 S883 1.613 . S
N884 C887 1.350 . S
N885 S883 1.610 . S
N885 C886 1.351 . S
C886 C880 1.428 . S
C886 N885 1.351 . S
C886 C887 1.434 . S
C887 C878 1.429 . S
C887 N884 1.350 . S
C887 C886 1.434 . S
C888 C889 1.369 . S
C888 C890 1.419 . S
C888 H892 0.930 . S
C889 C888 1.369 . S
C889 C898 1.429 . S
C890 C888 1.419 . S
C890 C891 1.363 . S
C890 H893 0.929 . S
C891 C890 1.363 . S
C891 C897 1.428 . S
H892 C888 0.930 . S
H893 C890 0.929 . S
S894 N895 1.613 . S
S894 N896 1.610 . S
N895 S894 1.613 . S
N895 C898 1.350 . S
N896 S894 1.610 . S
N896 C897 1.351 . S
C897 C891 1.428 . S
C897 N896 1.351 . S
C897 C898 1.434 . S
C898 C889 1.429 . S
C898 N895 1.350 . S
C898 C897 1.434 . S
C899 C900 1.369 . S
C899 C901 1.419 . S
C899 H903 0.930 . S
C900 C899 1.369 . S
C900 C909 1.429 . S
C901 C899 1.419 . S
C901 C902 1.363 . S
C901 H904 0.929 . S
C902 C901 1.363 . S
C902 C908 1.428 . S
H903 C899 0.930 . S
H904 C901 0.929 . S
S905 N906 1.613 . S
S905 N907 1.610 . S
N906 S905 1.613 . S
N906 C909 1.350 . S
N907 S905 1.610 . S
N907 C908 1.351 . S
C908 C902 1.428 . S
C908 N907 1.351 . S
C908 C909 1.434 . S
C909 C900 1.429 . S
C909 N906 1.350 . S
C909 C908 1.434 . S
C910 C911 1.369 . S
C910 C912 1.419 . S
C910 H914 0.930 . S
C911 C910 1.369 . S
C911 C920 1.429 . S
C912 C910 1.419 . S
C912 C913 1.363 . S
C912 H915 0.929 . S
C913 C912 1.363 . S
C913 C919 1.428 . S
H914 C910 0.930 . S
H915 C912 0.929 . S
S916 N917 1.613 . S
S916 N918 1.610 . S
N917 S916 1.613 . S
N917 C920 1.350 . S
N918 S916 1.610 . S
N918 C919 1.351 . S
C919 C913 1.428 . S
C919 N918 1.351 . S
C919 C920 1.434 . S
C920 C911 1.429 . S
C920 N917 1.350 . S
C920 C919 1.434 . S
C921 C922 1.369 . S
C921 C923 1.419 . S
C921 H925 0.930 . S
C922 C921 1.369 . S
C922 C931 1.429 . S
C923 C921 1.419 . S
C923 C924 1.363 . S
C923 H926 0.929 . S
C924 C923 1.363 . S
C924 C930 1.428 . S
H925 C921 0.930 . S
H926 C923 0.929 . S
S927 N928 1.613 . S
S927 N929 1.610 . S
N928 S927 1.613 . S
N928 C931 1.350 . S
N929 S927 1.610 . S
N929 C930 1.351 . S
C930 C924 1.428 . S
C930 N929 1.351 . S
C930 C931 1.434 . S
C931 C922 1.429 . S
C931 N928 1.350 . S
C931 C930 1.434 . S
C932 C933 1.369 . S
C932 C934 1.419 . S
C932 H936 0.930 . S
C933 C932 1.369 . S
C933 C942 1.429 . S
C934 C932 1.419 . S
C934 C935 1.363 . S
C934 H937 0.929 . S
C935 C934 1.363 . S
C935 C941 1.428 . S
H936 C932 0.930 . S
H937 C934 0.929 . S
S938 N939 1.613 . S
S938 N940 1.610 . S
N939 S938 1.613 . S
N939 C942 1.350 . S
N940 S938 1.610 . S
N940 C941 1.351 . S
C941 C935 1.428 . S
C941 N940 1.351 . S
C941 C942 1.434 . S
C942 C933 1.429 . S
C942 N939 1.350 . S
C942 C941 1.434 . S
C943 C944 1.369 . S
C943 C945 1.419 . S
C943 H947 0.930 . S
C944 C943 1.369 . S
C944 C953 1.429 . S
C945 C943 1.419 . S
C945 C946 1.363 . S
C945 H948 0.929 . S
C946 C945 1.363 . S
C946 C952 1.428 . S
H947 C943 0.930 . S
H948 C945 0.929 . S
S949 N950 1.613 . S
S949 N951 1.610 . S
N950 S949 1.613 . S
N950 C953 1.350 . S
N951 S949 1.610 . S
N951 C952 1.351 . S
C952 C946 1.428 . S
C952 N951 1.351 . S
C952 C953 1.434 . S
C953 C944 1.429 . S
C953 N950 1.350 . S
C953 C952 1.434 . S
C954 C955 1.369 . S
C954 C956 1.419 . S
C954 H958 0.930 . S
C955 C954 1.369 . S
C955 C964 1.429 . S
C956 C954 1.419 . S
C956 C957 1.363 . S
C956 H959 0.929 . S
C957 C956 1.363 . S
C957 C963 1.428 . S
H958 C954 0.930 . S
H959 C956 0.929 . S
S960 N961 1.613 1_556 S
S960 N962 1.610 1_556 S
N961 S960 1.613 1_554 S
N961 C964 1.350 . S
N962 S960 1.610 1_554 S
N962 C963 1.351 . S
C963 C957 1.428 . S
C963 N962 1.351 . S
C963 C964 1.434 . S
C964 C955 1.429 . S
C964 N961 1.350 . S
C964 C963 1.434 . S
C965 C966 1.369 . S
C965 C967 1.419 . S
C965 H969 0.930 . S
C966 C965 1.369 . S
C966 C975 1.429 . S
C967 C965 1.419 . S
C967 C968 1.363 . S
C967 H970 0.929 . S
C968 C967 1.363 . S
C968 C974 1.428 . S
H969 C965 0.930 . S
H970 C967 0.929 . S
S971 N972 1.613 . S
S971 N973 1.610 . S
N972 S971 1.613 . S
N972 C975 1.350 . S
N973 S971 1.610 . S
N973 C974 1.351 . S
C974 C968 1.428 . S
C974 N973 1.351 . S
C974 C975 1.434 . S
C975 C966 1.429 . S
C975 N972 1.350 . S
C975 C974 1.434 . S
C976 C977 1.369 . S
C976 C978 1.419 . S
C976 H980 0.930 . S
C977 C976 1.369 . S
C977 C986 1.429 . S
C978 C976 1.419 . S
C978 C979 1.363 . S
C978 H981 0.929 . S
C979 C978 1.363 . S
C979 C985 1.428 . S
H980 C976 0.930 . S
H981 C978 0.929 . S
S982 N983 1.613 . S
S982 N984 1.610 . S
N983 S982 1.613 . S
N983 C986 1.350 . S
N984 S982 1.610 . S
N984 C985 1.351 . S
C985 C979 1.428 . S
C985 N984 1.351 . S
C985 C986 1.434 . S
C986 C977 1.429 . S
C986 N983 1.350 . S
C986 C985 1.434 . S
C987 C988 1.369 . S
C987 C989 1.419 . S
C987 H991 0.949 . S
C988 C987 1.369 . S
C988 C997 1.429 . S
C989 C987 1.419 . S
C989 C990 1.363 . S
C989 H992 0.929 . S
C990 C989 1.363 . S
C990 C996 1.428 . S
H991 C987 0.949 . S
H992 C989 0.929 . S
S993 N994 1.613 . S
S993 N995 1.610 . S
N994 S993 1.613 . S
N994 C997 1.350 . S
N995 S993 1.610 . S
N995 C996 1.351 . S
C996 C990 1.428 . S
C996 N995 1.351 . S
C996 C997 1.434 . S
C997 C988 1.429 . S
C997 N994 1.350 . S
C997 C996 1.434 . S
C998 C999 1.369 . S
C998 C1000 1.419 . S
C998 H1002 0.930 . S
C999 C998 1.369 . S
C999 C1008 1.429 . S
C1000 C998 1.419 . S
C1000 C1001 1.363 . S
C1000 H1003 0.929 . S
C1001 C1000 1.363 . S
C1001 C1007 1.428 . S
H1002 C998 0.930 . S
H1003 C1000 0.929 . S
S1004 N1005 1.613 . S
S1004 N1006 1.610 . S
N1005 S1004 1.613 . S
N1005 C1008 1.350 . S
N1006 S1004 1.610 . S
N1006 C1007 1.351 . S
C1007 C1001 1.428 . S
C1007 N1006 1.351 . S
C1007 C1008 1.434 . S
C1008 C999 1.429 . S
C1008 N1005 1.350 . S
C1008 C1007 1.434 . S
C1009 C1010 1.369 . S
C1009 C1011 1.419 . S
C1009 H1013 0.930 1_556 S
C1010 C1009 1.369 . S
C1010 C1019 1.429 . S
C1011 C1009 1.419 . S
C1011 C1012 1.363 . S
C1011 H1014 0.929 . S
C1012 C1011 1.363 . S
C1012 C1018 1.428 . S
H1013 C1009 0.930 1_554 S
H1014 C1011 0.929 . S
S1015 N1016 1.613 . S
S1015 N1017 1.610 . S
N1016 S1015 1.613 . S
N1016 C1019 1.350 . S
N1017 S1015 1.610 . S
N1017 C1018 1.351 . S
C1018 C1012 1.428 . S
C1018 N1017 1.351 . S
C1018 C1019 1.434 . S
C1019 C1010 1.429 . S
C1019 N1016 1.350 . S
C1019 C1018 1.434 . S
C1020 C1021 1.369 . S
C1020 C1022 1.419 . S
C1020 H1024 0.930 . S
C1021 C1020 1.369 . S
C1021 C1030 1.429 . S
C1022 C1020 1.419 . S
C1022 C1023 1.363 . S
C1022 H1025 0.929 . S
C1023 C1022 1.363 . S
C1023 C1029 1.428 . S
H1024 C1020 0.930 . S
H1025 C1022 0.929 . S
S1026 N1027 1.613 . S
S1026 N1028 1.610 1_554 S
N1027 S1026 1.613 . S
N1027 C1030 1.350 1_554 S
N1028 S1026 1.610 1_556 S
N1028 C1029 1.351 . S
C1029 C1023 1.428 . S
C1029 N1028 1.351 . S
C1029 C1030 1.434 . S
C1030 C1021 1.429 . S
C1030 N1027 1.350 1_556 S
C1030 C1029 1.434 . S
C1031 C1032 1.369 . S
C1031 C1033 1.419 . S
C1031 H1035 0.930 . S
C1032 C1031 1.369 . S
C1032 C1041 1.429 . S
C1033 C1031 1.419 . S
C1033 C1034 1.363 . S
C1033 H1036 0.929 . S
C1034 C1033 1.363 . S
C1034 C1040 1.428 . S
H1035 C1031 0.930 . S
H1036 C1033 0.929 . S
S1037 N1038 1.613 . S
S1037 N1039 1.610 . S
N1038 S1037 1.613 . S
N1038 C1041 1.350 . S
N1039 S1037 1.610 . S
N1039 C1040 1.351 . S
C1040 C1034 1.428 . S
C1040 N1039 1.351 . S
C1040 C1041 1.434 . S
C1041 C1032 1.429 . S
C1041 N1038 1.350 . S
C1041 C1040 1.434 . S
C1042 C1043 1.369 . S
C1042 C1044 1.419 . S
C1042 H1046 0.930 . S
C1043 C1042 1.369 . S
C1043 C1052 1.429 . S
C1044 C1042 1.419 . S
C1044 C1045 1.363 . S
C1044 H1047 0.929 . S
C1045 C1044 1.363 . S
C1045 C1051 1.428 . S
H1046 C1042 0.930 . S
H1047 C1044 0.929 . S
S1048 N1049 1.613 . S
S1048 N1050 1.610 1_554 S
N1049 S1048 1.613 . S
N1049 C1052 1.350 1_554 S
N1050 S1048 1.610 1_556 S
N1050 C1051 1.351 . S
C1051 C1045 1.428 . S
C1051 N1050 1.351 . S
C1051 C1052 1.434 . S
C1052 C1043 1.429 . S
C1052 N1049 1.350 1_556 S
C1052 C1051 1.434 . S
C1053 C1054 1.369 . S
C1053 C1055 1.419 . S
C1053 H1057 0.930 . S
C1054 C1053 1.369 . S
C1054 C1063 1.429 . S
C1055 C1053 1.419 . S
C1055 C1056 1.363 . S
C1055 H1058 0.929 . S
C1056 C1055 1.363 . S
C1056 C1062 1.428 . S
H1057 C1053 0.930 . S
H1058 C1055 0.929 . S
S1059 N1060 1.613 . S
S1059 N1061 1.610 . S
N1060 S1059 1.613 . S
N1060 C1063 1.350 . S
N1061 S1059 1.610 . S
N1061 C1062 1.351 . S
C1062 C1056 1.428 . S
C1062 N1061 1.351 . S
C1062 C1063 1.434 . S
C1063 C1054 1.429 . S
C1063 N1060 1.350 . S
C1063 C1062 1.434 . S
C1064 C1065 1.369 . S
C1064 C1066 1.419 . S
C1064 H1068 0.930 . S
C1065 C1064 1.369 . S
C1065 C1074 1.429 . S
C1066 C1064 1.419 . S
C1066 C1067 1.363 . S
C1066 H1069 0.929 . S
C1067 C1066 1.363 . S
C1067 C1073 1.428 . S
H1068 C1064 0.930 . S
H1069 C1066 0.929 . S
S1070 N1071 1.613 . S
S1070 N1072 1.610 . S
N1071 S1070 1.613 . S
N1071 C1074 1.350 . S
N1072 S1070 1.610 . S
N1072 C1073 1.351 . S
C1073 C1067 1.428 . S
C1073 N1072 1.351 . S
C1073 C1074 1.434 . S
C1074 C1065 1.429 . S
C1074 N1071 1.350 . S
C1074 C1073 1.434 . S
C1075 C1076 1.369 . S
C1075 C1077 1.419 . S
C1075 H1079 0.930 . S
C1076 C1075 1.369 . S
C1076 C1085 1.429 . S
C1077 C1075 1.419 . S
C1077 C1078 1.363 . S
C1077 H1080 0.929 . S
C1078 C1077 1.363 . S
C1078 C1084 1.428 . S
H1079 C1075 0.930 . S
H1080 C1077 0.929 . S
S1081 N1082 1.613 . S
S1081 N1083 1.610 . S
N1082 S1081 1.613 . S
N1082 C1085 1.350 . S
N1083 S1081 1.610 . S
N1083 C1084 1.351 . S
C1084 C1078 1.428 . S
C1084 N1083 1.351 . S
C1084 C1085 1.434 . S
C1085 C1076 1.429 . S
C1085 N1082 1.350 . S
C1085 C1084 1.434 . S
C1086 C1087 1.369 . S
C1086 C1088 1.419 . S
C1086 H1090 0.930 . S
C1087 C1086 1.369 . S
C1087 C1096 1.429 . S
C1088 C1086 1.419 . S
C1088 C1089 1.363 . S
C1088 H1091 0.929 . S
C1089 C1088 1.363 . S
C1089 C1095 1.428 . S
H1090 C1086 0.930 . S
H1091 C1088 0.929 . S
S1092 N1093 1.613 . S
S1092 N1094 1.610 . S
N1093 S1092 1.613 . S
N1093 C1096 1.350 . S
N1094 S1092 1.610 . S
N1094 C1095 1.351 . S
C1095 C1089 1.428 . S
C1095 N1094 1.351 . S
C1095 C1096 1.434 . S
C1096 C1087 1.429 . S
C1096 N1093 1.350 . S
C1096 C1095 1.434 . S
C1097 C1098 1.369 . S
C1097 C1099 1.419 . S
C1097 H1101 0.930 . S
C1098 C1097 1.369 . S
C1098 C1107 1.429 . S
C1099 C1097 1.419 . S
C1099 C1100 1.363 . S
C1099 H1102 0.929 . S
C1100 C1099 1.363 . S
C1100 C1106 1.428 . S
H1101 C1097 0.930 . S
H1102 C1099 0.929 . S
S1103 N1104 1.613 . S
S1103 N1105 1.610 . S
N1104 S1103 1.613 . S
N1104 C1107 1.350 . S
N1105 S1103 1.610 . S
N1105 C1106 1.351 . S
C1106 C1100 1.428 . S
C1106 N1105 1.351 . S
C1106 C1107 1.434 . S
C1107 C1098 1.429 . S
C1107 N1104 1.350 . S
C1107 C1106 1.434 . S
C1108 C1109 1.369 . S
C1108 C1110 1.419 . S
C1108 H1112 0.930 . S
C1109 C1108 1.369 . S
C1109 C1118 1.429 . S
C1110 C1108 1.419 . S
C1110 C1111 1.363 . S
C1110 H1113 0.929 . S
C1111 C1110 1.363 . S
C1111 C1117 1.428 . S
H1112 C1108 0.930 . S
H1113 C1110 0.929 . S
S1114 N1115 1.613 . S
S1114 N1116 1.610 . S
N1115 S1114 1.613 . S
N1115 C1118 1.350 . S
N1116 S1114 1.610 . S
N1116 C1117 1.351 . S
C1117 C1111 1.428 . S
C1117 N1116 1.351 . S
C1117 C1118 1.434 . S
C1118 C1109 1.429 . S
C1118 N1115 1.350 . S
C1118 C1117 1.434 . S
C1119 C1120 1.369 . S
C1119 C1121 1.419 . S
C1119 H1123 0.930 . S
C1120 C1119 1.369 . S
C1120 C1129 1.429 1_455 S
C1121 C1119 1.419 . S
C1121 C1122 1.363 . S
C1121 H1124 0.929 . S
C1122 C1121 1.363 . S
C1122 C1128 1.428 1_455 S
H1123 C1119 0.930 . S
H1124 C1121 0.929 . S
S1125 N1126 1.613 . S
S1125 N1127 1.610 . S
N1126 S1125 1.613 . S
N1126 C1129 1.350 . S
N1127 S1125 1.610 . S
N1127 C1128 1.351 . S
C1128 C1122 1.428 1_655 S
C1128 N1127 1.351 . S
C1128 C1129 1.434 . S
C1129 C1120 1.429 1_655 S
C1129 N1126 1.350 . S
C1129 C1128 1.434 . S
C1130 C1131 1.369 . S
C1130 C1132 1.419 . S
C1130 H1134 0.930 . S
C1131 C1130 1.369 . S
C1131 C1140 1.429 . S
C1132 C1130 1.419 . S
C1132 C1133 1.363 . S
C1132 H1135 0.929 . S
C1133 C1132 1.363 . S
C1133 C1139 1.428 . S
H1134 C1130 0.930 . S
H1135 C1132 0.929 . S
S1136 N1137 1.613 . S
S1136 N1138 1.610 . S
N1137 S1136 1.613 . S
N1137 C1140 1.350 . S
N1138 S1136 1.610 . S
N1138 C1139 1.351 . S
C1139 C1133 1.428 . S
C1139 N1138 1.351 . S
C1139 C1140 1.434 . S
C1140 C1131 1.429 . S
C1140 N1137 1.350 . S
C1140 C1139 1.434 . S
C1141 C1142 1.369 1_545 S
C1141 C1143 1.419 . S
C1141 H1145 0.930 . S
C1142 C1141 1.369 1_565 S
C1142 C1151 1.429 . S
C1143 C1141 1.419 . S
C1143 C1144 1.363 1_545 S
C1143 H1146 0.929 . S
C1144 C1143 1.363 1_565 S
C1144 C1150 1.428 . S
H1145 C1141 0.930 . S
H1146 C1143 0.929 . S
S1147 N1148 1.613 . S
S1147 N1149 1.610 . S
N1148 S1147 1.613 . S
N1148 C1151 1.350 . S
N1149 S1147 1.610 . S
N1149 C1150 1.351 . S
C1150 C1144 1.428 . S
C1150 N1149 1.351 . S
C1150 C1151 1.434 . S
C1151 C1142 1.429 . S
C1151 N1148 1.350 . S
C1151 C1150 1.434 . S
C1152 C1153 1.369 . S
C1152 C1154 1.419 . S
C1152 H1156 0.930 . S
C1153 C1152 1.369 . S
C1153 C1162 1.429 1_565 S
C1154 C1152 1.419 . S
C1154 C1155 1.367 1_565 S
C1154 H1157 0.929 . S
C1155 C1154 1.367 1_545 S
C1155 C1161 1.427 . S
H1156 C1152 0.930 . S
H1157 C1154 0.929 . S
S1158 N1159 1.613 . S
S1158 N1160 1.610 . S
N1159 S1158 1.613 . S
N1159 C1162 1.350 . S
N1160 S1158 1.610 . S
N1160 C1161 1.351 . S
C1161 C1155 1.427 . S
C1161 N1160 1.351 . S
C1161 C1162 1.434 . S
C1162 C1153 1.429 1_545 S
C1162 N1159 1.350 . S
C1162 C1161 1.434 . S
C1163 C1164 1.369 . S
C1163 C1165 1.419 . S
C1163 H1167 0.930 . S
C1164 C1163 1.369 . S
C1164 C1173 1.429 1_455 S
C1165 C1163 1.419 . S
C1165 C1166 1.363 . S
C1165 H1168 0.929 . S
C1166 C1165 1.363 . S
C1166 C1172 1.428 1_455 S
H1167 C1163 0.930 . S
H1168 C1165 0.929 . S
S1169 N1170 1.613 . S
S1169 N1171 1.610 . S
N1170 S1169 1.613 . S
N1170 C1173 1.350 . S
N1171 S1169 1.610 . S
N1171 C1172 1.351 . S
C1172 C1166 1.428 1_655 S
C1172 N1171 1.351 . S
C1172 C1173 1.434 . S
C1173 C1164 1.429 1_655 S
C1173 N1170 1.350 . S
C1173 C1172 1.434 . S
C1174 C1175 1.369 . S
C1174 C1176 1.419 . S
C1174 H1178 0.930 . S
C1175 C1174 1.369 . S
C1175 C1184 1.429 . S
C1176 C1174 1.419 . S
C1176 C1177 1.363 . S
C1176 H1179 0.929 . S
C1177 C1176 1.363 . S
C1177 C1183 1.428 . S
H1178 C1174 0.930 . S
H1179 C1176 0.929 . S
S1180 N1181 1.613 . S
S1180 N1182 1.610 . S
N1181 S1180 1.613 . S
N1181 C1184 1.350 . S
N1182 S1180 1.610 . S
N1182 C1183 1.351 . S
C1183 C1177 1.428 . S
C1183 N1182 1.351 . S
C1183 C1184 1.434 . S
C1184 C1175 1.429 . S
C1184 N1181 1.350 . S
C1184 C1183 1.434 . S
C1185 C1186 1.369 . S
C1185 C1187 1.419 . S
C1185 H1189 0.930 . S
C1186 C1185 1.369 . S
C1186 C1195 1.429 . S
C1187 C1185 1.419 . S
C1187 C1188 1.363 . S
C1187 H1190 0.929 . S
C1188 C1187 1.363 . S
C1188 C1194 1.428 . S
H1189 C1185 0.930 . S
H1190 C1187 0.929 . S
S1191 N1192 1.613 . S
S1191 N1193 1.610 . S
N1192 S1191 1.613 . S
N1192 C1195 1.350 . S
N1193 S1191 1.610 . S
N1193 C1194 1.351 . S
C1194 C1188 1.428 . S
C1194 N1193 1.351 . S
C1194 C1195 1.434 . S
C1195 C1186 1.429 . S
C1195 N1192 1.350 . S
C1195 C1194 1.434 . S
C1196 C1197 1.369 . S
C1196 C1198 1.419 . S
C1196 H1200 0.930 . S
C1197 C1196 1.369 . S
C1197 C1206 1.429 . S
C1198 C1196 1.419 . S
C1198 C1199 1.363 . S
C1198 H1201 0.929 . S
C1199 C1198 1.363 . S
C1199 C1205 1.428 . S
H1200 C1196 0.930 . S
H1201 C1198 0.929 . S
S1202 N1203 1.613 . S
S1202 N1204 1.610 . S
N1203 S1202 1.613 . S
N1203 C1206 1.350 . S
N1204 S1202 1.610 . S
N1204 C1205 1.351 . S
C1205 C1199 1.428 . S
C1205 N1204 1.351 . S
C1205 C1206 1.434 . S
C1206 C1197 1.429 . S
C1206 N1203 1.350 . S
C1206 C1205 1.434 . S
C1207 C1208 1.369 . S
C1207 C1209 1.419 . S
C1207 H1211 0.930 . S
C1208 C1207 1.369 . S
C1208 C1217 1.429 . S
C1209 C1207 1.419 . S
C1209 C1210 1.363 . S
C1209 H1212 0.929 . S
C1210 C1209 1.363 . S
C1210 C1216 1.428 . S
H1211 C1207 0.930 . S
H1212 C1209 0.929 . S
S1213 N1214 1.613 . S
S1213 N1215 1.610 . S
N1214 S1213 1.613 . S
N1214 C1217 1.350 . S
N1215 S1213 1.610 . S
N1215 C1216 1.351 . S
C1216 C1210 1.428 . S
C1216 N1215 1.351 . S
C1216 C1217 1.434 . S
C1217 C1208 1.429 . S
C1217 N1214 1.350 . S
C1217 C1216 1.434 . S
C1218 C1219 1.369 . S
C1218 C1220 1.419 . S
C1218 H1222 0.930 1_545 S
C1219 C1218 1.369 . S
C1219 C1228 1.429 . S
C1220 C1218 1.419 . S
C1220 C1221 1.363 . S
C1220 H1223 0.929 1_545 S
C1221 C1220 1.363 . S
C1221 C1227 1.428 . S
H1222 C1218 0.930 1_565 S
H1223 C1220 0.929 1_565 S
S1224 N1225 1.613 . S
S1224 N1226 1.610 . S
N1225 S1224 1.613 . S
N1225 C1228 1.350 . S
N1226 S1224 1.610 . S
N1226 C1227 1.351 . S
C1227 C1221 1.428 . S
C1227 N1226 1.351 . S
C1227 C1228 1.434 . S
C1228 C1219 1.429 . S
C1228 N1225 1.350 . S
C1228 C1227 1.434 . S
C1229 C1230 1.369 1_455 S
C1229 C1231 1.419 . S
C1229 H1233 0.930 . S
C1230 C1229 1.369 1_655 S
C1230 C1239 1.429 . S
C1231 C1229 1.419 . S
C1231 C1232 1.363 1_455 S
C1231 H1234 0.929 . S
C1232 C1231 1.363 1_655 S
C1232 C1238 1.428 . S
H1233 C1229 0.930 . S
H1234 C1231 0.929 . S
S1235 N1236 1.613 . S
S1235 N1237 1.610 . S
N1236 S1235 1.613 . S
N1236 C1239 1.350 . S
N1237 S1235 1.610 . S
N1237 C1238 1.351 . S
C1238 C1232 1.428 . S
C1238 N1237 1.351 . S
C1238 C1239 1.434 . S
C1239 C1230 1.429 . S
C1239 N1236 1.350 . S
C1239 C1238 1.434 . S
C1240 C1241 1.369 . S
C1240 C1242 1.419 . S
C1240 H1244 0.930 . S
C1241 C1240 1.369 . S
C1241 C1250 1.429 . S
C1242 C1240 1.419 . S
C1242 C1243 1.363 . S
C1242 H1245 0.929 . S
C1243 C1242 1.363 . S
C1243 C1249 1.428 . S
H1244 C1240 0.930 . S
H1245 C1242 0.929 . S
S1246 N1247 1.613 . S
S1246 N1248 1.610 . S
N1247 S1246 1.613 . S
N1247 C1250 1.350 . S
N1248 S1246 1.610 . S
N1248 C1249 1.351 . S
C1249 C1243 1.428 . S
C1249 N1248 1.351 . S
C1249 C1250 1.434 . S
C1250 C1241 1.429 . S
C1250 N1247 1.350 . S
C1250 C1249 1.434 . S
C1251 C1252 1.369 . S
C1251 C1253 1.419 . S
C1251 H1255 0.930 . S
C1252 C1251 1.369 . S
C1252 C1261 1.429 . S
C1253 C1251 1.419 . S
C1253 C1254 1.363 . S
C1253 H1256 0.929 . S
C1254 C1253 1.363 . S
C1254 C1260 1.428 . S
H1255 C1251 0.930 . S
H1256 C1253 0.929 . S
S1257 N1258 1.613 . S
S1257 N1259 1.610 . S
N1258 S1257 1.613 . S
N1258 C1261 1.350 . S
N1259 S1257 1.610 . S
N1259 C1260 1.351 . S
C1260 C1254 1.428 . S
C1260 N1259 1.351 . S
C1260 C1261 1.434 . S
C1261 C1252 1.429 . S
C1261 N1258 1.350 . S
C1261 C1260 1.434 . S
C1262 C1263 1.369 . S
C1262 C1264 1.419 . S
C1262 H1266 0.930 . S
C1263 C1262 1.369 . S
C1263 C1272 1.429 . S
C1264 C1262 1.419 . S
C1264 C1265 1.363 . S
C1264 H1267 0.929 . S
C1265 C1264 1.363 . S
C1265 C1271 1.428 . S
H1266 C1262 0.930 . S
H1267 C1264 0.929 . S
S1268 N1269 1.613 . S
S1268 N1270 1.610 . S
N1269 S1268 1.613 . S
N1269 C1272 1.350 . S
N1270 S1268 1.610 . S
N1270 C1271 1.351 . S
C1271 C1265 1.428 . S
C1271 N1270 1.351 . S
C1271 C1272 1.434 . S
C1272 C1263 1.429 . S
C1272 N1269 1.350 . S
C1272 C1271 1.434 . S
C1273 C1274 1.369 . S
C1273 C1275 1.419 . S
C1273 H1277 0.930 . S
C1274 C1273 1.369 . S
C1274 C1283 1.429 . S
C1275 C1273 1.419 . S
C1275 C1276 1.363 . S
C1275 H1278 0.929 . S
C1276 C1275 1.363 . S
C1276 C1282 1.428 . S
H1277 C1273 0.930 . S
H1278 C1275 0.929 . S
S1279 N1280 1.613 . S
S1279 N1281 1.610 . S
N1280 S1279 1.613 . S
N1280 C1283 1.350 . S
N1281 S1279 1.610 . S
N1281 C1282 1.351 . S
C1282 C1276 1.428 . S
C1282 N1281 1.351 . S
C1282 C1283 1.434 . S
C1283 C1274 1.429 . S
C1283 N1280 1.350 . S
C1283 C1282 1.434 . S
C1284 C1285 1.369 . S
C1284 C1286 1.419 . S
C1284 H1288 0.930 . S
C1285 C1284 1.369 . S
C1285 C1294 1.429 . S
C1286 C1284 1.419 . S
C1286 C1287 1.363 . S
C1286 H1289 0.929 . S
C1287 C1286 1.363 . S
C1287 C1293 1.428 . S
H1288 C1284 0.930 . S
H1289 C1286 0.929 . S
S1290 N1291 1.613 . S
S1290 N1292 1.610 . S
N1291 S1290 1.613 . S
N1291 C1294 1.350 . S
N1292 S1290 1.610 . S
N1292 C1293 1.351 . S
C1293 C1287 1.428 . S
C1293 N1292 1.351 . S
C1293 C1294 1.434 . S
C1294 C1285 1.429 . S
C1294 N1291 1.350 . S
C1294 C1293 1.434 . S
C1295 C1296 1.369 . S
C1295 C1297 1.419 . S
C1295 H1299 0.930 . S
C1296 C1295 1.369 . S
C1296 C1305 1.429 . S
C1297 C1295 1.419 . S
C1297 C1298 1.363 . S
C1297 H1300 0.929 . S
C1298 C1297 1.363 . S
C1298 C1304 1.428 . S
H1299 C1295 0.930 . S
H1300 C1297 0.929 . S
S1301 N1302 1.613 . S
S1301 N1303 1.610 . S
N1302 S1301 1.613 . S
N1302 C1305 1.350 . S
N1303 S1301 1.610 . S
N1303 C1304 1.351 . S
C1304 C1298 1.428 . S
C1304 N1303 1.351 . S
C1304 C1305 1.434 . S
C1305 C1296 1.429 . S
C1305 N1302 1.350 . S
C1305 C1304 1.434 . S
C1306 C1307 1.369 . S
C1306 C1308 1.419 . S
C1306 H1310 0.930 . S
C1307 C1306 1.369 . S
C1307 C1316 1.429 . S
C1308 C1306 1.419 . S
C1308 C1309 1.363 . S
C1308 H1311 0.929 . S
C1309 C1308 1.363 . S
C1309 C1315 1.428 . S
H1310 C1306 0.930 . S
H1311 C1308 0.929 . S
S1312 N1313 1.613 . S
S1312 N1314 1.610 . S
N1313 S1312 1.613 . S
N1313 C1316 1.350 . S
N1314 S1312 1.610 . S
N1314 C1315 1.351 . S
C1315 C1309 1.428 . S
C1315 N1314 1.351 . S
C1315 C1316 1.434 . S
C1316 C1307 1.429 . S
C1316 N1313 1.350 . S
C1316 C1315 1.434 . S
C1317 C1318 1.369 . S
C1317 C1319 1.419 . S
C1317 H1321 0.930 . S
C1318 C1317 1.369 . S
C1318 C1327 1.429 1_655 S
C1319 C1317 1.419 . S
C1319 C1320 1.360 . S
C1319 H1322 0.929 . S
C1320 C1319 1.360 . S
C1320 C1326 1.430 1_655 S
H1321 C1317 0.930 . S
H1322 C1319 0.929 . S
S1323 N1324 1.613 . S
S1323 N1325 1.610 . S
N1324 S1323 1.613 . S
N1324 C1327 1.350 . S
N1325 S1323 1.610 . S
N1325 C1326 1.351 . S
C1326 C1320 1.430 1_455 S
C1326 N1325 1.351 . S
C1326 C1327 1.434 . S
C1327 C1318 1.429 1_455 S
C1327 N1324 1.350 . S
C1327 C1326 1.434 . S
C1328 C1329 1.369 . S
C1328 C1330 1.419 . S
C1328 H1332 0.930 . S
C1329 C1328 1.369 . S
C1329 C1338 1.429 . S
C1330 C1328 1.419 . S
C1330 C1331 1.363 . S
C1330 H1333 0.929 . S
C1331 C1330 1.363 . S
C1331 C1337 1.428 . S
H1332 C1328 0.930 . S
H1333 C1330 0.929 . S
S1334 N1335 1.613 . S
S1334 N1336 1.610 . S
N1335 S1334 1.613 . S
N1335 C1338 1.350 . S
N1336 S1334 1.610 . S
N1336 C1337 1.351 . S
C1337 C1331 1.428 . S
C1337 N1336 1.351 . S
C1337 C1338 1.434 . S
C1338 C1329 1.429 . S
C1338 N1335 1.350 . S
C1338 C1337 1.434 . S
C1339 C1340 1.369 . S
C1339 C1341 1.419 . S
C1339 H1343 0.930 . S
C1340 C1339 1.369 . S
C1340 C1349 1.429 . S
C1341 C1339 1.419 . S
C1341 C1342 1.363 . S
C1341 H1344 0.929 . S
C1342 C1341 1.363 . S
C1342 C1348 1.428 . S
H1343 C1339 0.930 . S
H1344 C1341 0.929 . S
S1345 N1346 1.613 . S
S1345 N1347 1.610 . S
N1346 S1345 1.613 . S
N1346 C1349 1.349 1_565 S
N1347 S1345 1.610 . S
N1347 C1348 1.351 1_565 S
C1348 C1342 1.428 . S
C1348 N1347 1.351 1_545 S
C1348 C1349 1.434 . S
C1349 C1340 1.429 . S
C1349 N1346 1.349 1_545 S
C1349 C1348 1.434 . S
C559 C10 1.624 . S
C561 C403 1.597 . S
C570 C23 1.617 . S
C572 C428 1.599 . S
C583 C439 1.596 . S
C581 C29 1.621 . S
C592 C30 1.621 . S
C594 C464 1.607 . S
C603 C5 1.625 . S
C605 C482 1.614 . S
C614 C18 1.618 . S
C616 C493 1.598 . S
C625 C49 1.602 . S
C627 C475 1.591 . S
C638 C500 1.593 . S
C636 C62 1.604 . S
C649 C457 1.596 . S
C647 C70 1.606 . S
C658 C75 1.598 . S
C660 C446 1.584 . S
C671 C410 1.603 . S
C669 C44 1.611 . S
C680 C57 1.605 . S
C682 C421 1.595 . S
C691 C88 1.624 . S
C693 C511 1.597 . S
C702 C101 1.617 . S
C704 C536 1.598 . S
C715 C547 1.601 . S
C713 C107 1.618 . S
C724 C108 1.623 . S
C726 C248 1.604 . S
C735 C83 1.625 . S
C737 C266 1.613 . S
C746 C96 1.619 . S
C748 C277 1.597 . S
C757 C127 1.610 . S
C759 C259 1.595 . S
C768 C140 1.606 . S
C770 C284 1.589 . S
C781 C241 1.593 . S
C779 C146 1.608 . S
C792 C554 1.597 . S
C790 C147 1.610 . S
C803 C518 1.603 . S
C801 C122 1.612 . S
C814 C529 1.591 . S
C812 C135 1.608 . S
C823 C160 1.622 . S
C825 C295 1.601 . S
C834 C173 1.618 . S
C836 C320 1.598 . S
C845 C185 1.619 . S
C847 C331 1.599 . S
C856 C186 1.621 . S
C858 C356 1.608 . S
C869 C374 1.614 . S
C867 C159 1.624 . S
C880 C385 1.596 . S
C878 C172 1.620 . S
C891 C367 1.592 . S
C889 C205 1.612 . S
C902 C392 1.591 . S
C900 C218 1.606 . S
C911 C224 1.608 . S
C913 C349 1.592 . S
C924 C338 1.594 . S
C922 C225 1.611 . S
C933 C200 1.614 . S
C935 C302 1.599 . S
C946 C313 1.595 . S
C944 C213 1.605 . S
C957 C250 1.436 . S
C955 C4 1.511 . S
C966 C17 1.503 . S
C968 C268 1.431 . S
C979 C278 1.436 . S
C977 C31 1.514 . S
C990 C296 1.431 . S
C988 C36 1.507 . S
C1001 C322 1.431 . S
C999 C3 1.519 . S
C1012 C332 1.435 . S
C1010 C16 1.513 . S
C1021 C43 1.514 . S
C1023 C340 1.436 . S
C1032 C56 1.508 . S
C1034 C304 1.429 . S
C1043 C68 1.513 . S
C1045 C314 1.440 . S
C1054 C69 1.509 . S
C1056 C260 1.430 . S
C1067 C286 1.439 . S
C1065 C42 1.520 . S
C1076 C55 1.514 . S
C1078 C242 1.433 . S
C1089 C358 1.429 . S
C1087 C82 1.510 . S
C1098 C95 1.503 . S
C1100 C376 1.428 . S
C1109 C109 1.512 . S
C1111 C386 1.443 . S
C1122 C404 1.435 . S
C1120 C114 1.508 . S
C1131 C81 1.517 . S
C1133 C430 1.435 . S
C1142 C94 1.511 . S
C1144 C440 1.442 . S
C1153 C121 1.515 . S
C1155 C448 1.441 1_545 S
C1164 C134 1.508 . S
C1166 C412 1.431 . S
C1177 C422 1.439 . S
C1175 C148 1.513 . S
C1186 C153 1.508 . S
C1188 C368 1.432 . S
C1197 C120 1.518 . S
C1199 C394 1.436 . S
C1210 C350 1.435 . S
C1208 C133 1.515 . S
C1221 C466 1.437 . S
C1219 C166 1.511 . S
C1230 C179 1.503 . S
C1232 C484 1.431 . S
C1241 C187 1.512 . S
C1243 C494 1.443 . S
C1254 C512 1.438 . S
C1252 C192 1.505 . S
C1265 C538 1.431 . S
C1263 C161 1.518 . S
C1274 C174 1.512 . S
C1276 C548 1.435 . S
C1285 C199 1.513 . S
C1287 C556 1.428 . S
C1296 C212 1.508 . S
C1298 C520 1.431 . S
C1309 C530 1.433 . S
C1307 C226 1.514 . S
C1320 C476 1.435 1_655 S
C1318 C231 1.510 . S
C1331 C502 1.438 . S
C1329 C198 1.518 . S
C1340 C211 1.514 . S
C1342 C458 1.433 . S
