# Generated by pormake.
# Topology anh, (6,3)-cn, num edge types: 1
# Building blocks:
#     Node 0, Type 0, BuildingBlock: CUWYAW_clean_sbu_0, # of connection points: 6
#     Node 1, Type 0, BuildingBlock: CUWYAW_clean_sbu_0, # of connection points: 6
#     Node 2, Type 0, BuildingBlock: CUWYAW_clean_sbu_0, # of connection points: 6
#     Node 3, Type 1, BuildingBlock: BETDIP_clean_linker_0, # of connection points: 3
#     Node 4, Type 1, BuildingBlock: BETDIP_clean_linker_0, # of connection points: 3
#     Node 5, Type 1, BuildingBlock: BETDIP_clean_linker_0, # of connection points: 3
#     Node 6, Type 1, BuildingBlock: BETDIP_clean_linker_0, # of connection points: 3
#     Node 7, Type 1, BuildingBlock: BETDIP_clean_linker_0, # of connection points: 3
#     Node 8, Type 1, BuildingBlock: BETDIP_clean_linker_0, # of connection points: 3
#     Edge 9, Type (0, 1), BuildingBlock: XUDNAN_clean_linker_2, # of connection points: 2
#     Edge 10, Type (0, 1), BuildingBlock: XUDNAN_clean_linker_2, # of connection points: 2
#     Edge 11, Type (0, 1), BuildingBlock: XUDNAN_clean_linker_2, # of connection points: 2
#     Edge 12, Type (0, 1), BuildingBlock: XUDNAN_clean_linker_2, # of connection points: 2
#     Edge 13, Type (0, 1), BuildingBlock: XUDNAN_clean_linker_2, # of connection points: 2
#     Edge 14, Type (0, 1), BuildingBlock: XUDNAN_clean_linker_2, # of connection points: 2
#     Edge 15, Type (0, 1), BuildingBlock: XUDNAN_clean_linker_2, # of connection points: 2
#     Edge 16, Type (0, 1), BuildingBlock: XUDNAN_clean_linker_2, # of connection points: 2
#     Edge 17, Type (0, 1), BuildingBlock: XUDNAN_clean_linker_2, # of connection points: 2
#     Edge 18, Type (0, 1), BuildingBlock: XUDNAN_clean_linker_2, # of connection points: 2
#     Edge 19, Type (0, 1), BuildingBlock: XUDNAN_clean_linker_2, # of connection points: 2
#     Edge 20, Type (0, 1), BuildingBlock: XUDNAN_clean_linker_2, # of connection points: 2
#     Edge 21, Type (0, 1), BuildingBlock: XUDNAN_clean_linker_2, # of connection points: 2
#     Edge 22, Type (0, 1), BuildingBlock: XUDNAN_clean_linker_2, # of connection points: 2
#     Edge 23, Type (0, 1), BuildingBlock: XUDNAN_clean_linker_2, # of connection points: 2
#     Edge 24, Type (0, 1), BuildingBlock: XUDNAN_clean_linker_2, # of connection points: 2
#     Edge 25, Type (0, 1), BuildingBlock: XUDNAN_clean_linker_2, # of connection points: 2
#     Edge 26, Type (0, 1), BuildingBlock: XUDNAN_clean_linker_2, # of connection points: 2
# Relax obj value: 0.263
# Max RMSD: 0.188
# Mean RMSD: 0.132
data_MOF--net-anh--node1-CUWYAW_clean_sbu_0--node2-BETDIP_clean_linker_0--edge1-XUDNAN_clean_linker_2
_symmetry_space_group_name_H-M    P1
_symmetry_Int_Tables_number       1
_symmetry_cell_setting            triclinic
loop_
_symmetry_equiv_pos_as_xyz
'x, y, z'
_cell_length_a     30.789191
_cell_length_b     30.971808
_cell_length_c     49.784837
_cell_angle_alpha  93.08769
_cell_angle_beta   88.727797
_cell_angle_gamma 119.48617
loop_
_atom_site_label
_atom_site_type_symbol
_atom_site_fract_x
_atom_site_fract_y
_atom_site_fract_z
_atom_type_partial_charge
C0 C 1.08675 0.47433 0.1286 0.0
Eu1 Eu 0.14404 0.56345 0.14962 0.0
C2 C 1.032 0.44286 0.12812 0.0
C3 C 1.00121 0.46307 0.12271 0.0
C4 C 0.95055 0.43755 0.12904 0.0
C5 C 0.9297 0.39124 0.14076 0.0
C6 C 0.95955 0.36892 0.1435 0.0
C7 C 1.01034 0.39465 0.13733 0.0
C8 C 0.15911 0.58139 0.20402 0.0
C9 C 1.07202 0.61474 0.15864 0.0
C10 C 0.2389 0.75683 0.19013 0.0
Eu11 Eu 0.19064 0.66831 0.16684 0.0
C12 C 0.2794 0.80708 0.18489 0.0
C13 C 0.26823 0.84586 0.18633 0.0
C14 C 0.30483 0.89411 0.18138 0.0
C15 C 0.35369 0.90484 0.17503 0.0
C16 C 0.36515 0.86604 0.17364 0.0
C17 C 0.32812 0.81732 0.17839 0.0
C18 C 0.17686 0.65138 0.11275 0.0
C19 C 0.2643 0.61843 0.15239 0.0
O20 O 1.10542 0.5143 0.11484 0.0
O21 O 1.10731 0.48296 0.15236 0.0
O22 O 0.16818 0.55059 0.18971 0.0
O23 O 0.14217 0.60163 0.18926 0.0
O24 O 1.07885 0.58062 0.14491 0.0
O25 O 1.10915 0.64854 0.17389 0.0
O26 O 0.24992 0.72185 0.19399 0.0
O27 O 0.19892 0.74128 0.17547 0.0
O28 O 0.1731 0.68624 0.12619 0.0
O29 O 0.19182 0.63052 0.12805 0.0
O30 O 0.25881 0.65424 0.16559 0.0
O31 O 0.22447 0.57994 0.14097 0.0
H32 H 1.01673 0.49999 0.1153 0.0
H33 H 0.92886 0.45603 0.1268 0.0
H34 H 0.94433 0.33289 0.15204 0.0
H35 H 1.03334 0.37823 0.14147 0.0
H36 H 0.23098 0.83883 0.19146 0.0
H37 H 0.29509 0.92331 0.1833 0.0
H38 H 0.40262 0.87342 0.16892 0.0
H39 H 0.3376 0.78792 0.17708 0.0
C40 C 0.53646 0.16897 0.46076 0.0
Eu41 Eu 0.58249 0.12683 0.48104 0.0
C42 C 0.55917 0.21981 0.45146 0.0
C43 C 0.53457 0.24755 0.45454 0.0
C44 C 0.56066 0.29875 0.45093 0.0
C45 C 0.61221 0.32313 0.44508 0.0
C46 C 0.63497 0.29387 0.43938 0.0
C47 C 0.60864 0.24288 0.44237 0.0
C48 C 0.60305 0.12416 0.53407 0.0
C49 C 0.7046 0.19578 0.48669 0.0
C50 C 0.6805 1.0244 0.50648 0.0
Eu51 Eu 0.63984 0.07465 0.49045 0.0
C52 C 0.6717 0.97925 0.51963 0.0
C53 C 0.66861 0.93903 0.50374 0.0
C54 C 0.6712 0.90059 0.51553 0.0
C55 C 0.67715 0.90157 0.54352 0.0
C56 C 0.6765 0.93997 0.55962 0.0
C57 C 0.67397 0.97861 0.54778 0.0
C58 C 0.64591 0.10545 0.43974 0.0
C59 C 0.51632 1.0039 0.48241 0.0
O60 O 0.54843 0.13957 0.44678 0.0
O61 O 0.53929 0.1655 0.48667 0.0
O62 O 0.60545 0.16268 0.52353 0.0
O63 O 0.58902 0.0891 0.51646 0.0
O64 O 0.66402 0.19081 0.47469 0.0
O65 O 0.70095 0.15693 0.49905 0.0
O66 O 0.67923 1.06012 0.52132 0.0
O67 O 0.662 1.01876 0.48225 0.0
O68 O 0.6836 0.10831 0.45234 0.0
O69 O 0.60793 0.08553 0.45424 0.0
O70 O 0.55993 1.00608 0.48724 0.0
O71 O 0.51505 1.04596 0.47966 0.0
H72 H 0.49609 0.23022 0.4611 0.0
H73 H 0.54111 0.31952 0.45442 0.0
H74 H 0.67429 0.31032 0.43483 0.0
H75 H 0.6282 0.22207 0.43924 0.0
H76 H 0.6674 0.93871 0.48199 0.0
H77 H 0.6724 0.87216 0.5024 0.0
H78 H 0.68052 0.94148 0.58126 0.0
H79 H 0.6765 1.00917 0.56059 0.0
C80 C 0.78221 0.66608 0.80057 0.0
Eu81 Eu 0.69112 0.63667 0.81658 0.0
C82 C 0.81492 0.64393 0.79818 0.0
C83 C 0.86315 0.67004 0.80908 0.0
C84 C 0.89318 0.64792 0.80918 0.0
C85 C 0.87552 0.59926 0.79825 0.0
C86 C 0.82797 0.57404 0.78621 0.0
C87 C 0.79785 0.59608 0.78624 0.0
C88 C 0.66035 0.62434 0.86884 0.0
C89 C 0.63106 0.51338 0.81566 0.0
C90 C 0.49166 0.55008 0.84287 0.0
Eu91 Eu 0.58084 0.58543 0.8231 0.0
C92 C 0.44252 0.54705 0.84408 0.0
C93 C 0.4169 0.54517 0.82068 0.0
C94 C 0.36571 0.52903 0.82164 0.0
C95 C 0.33938 0.51414 0.84596 0.0
C96 C 0.36633 0.5201 0.86965 0.0
C97 C 0.41737 0.53648 0.86868 0.0
C98 C 0.60931 0.59426 0.77124 0.0
C99 C 0.64095 0.70928 0.81758 0.0
O100 O 0.74361 0.6469 0.7845 0.0
O101 O 0.77131 0.67515 0.825 0.0
O102 O 0.6995 0.66353 0.86071 0.0
O103 O 0.64092 0.59294 0.84941 0.0
O104 O 0.67176 0.55412 0.80827 0.0
O105 O 0.59292 0.51771 0.82578 0.0
O106 O 0.53046 0.5887 0.85406 0.0
O107 O 0.50227 0.53167 0.82107 0.0
O108 O 0.56852 0.5571 0.77965 0.0
O109 O 0.63041 0.62684 0.78994 0.0
O110 O 0.598 0.66829 0.82275 0.0
O111 O 0.68207 0.70591 0.81321 0.0
H112 H 0.87699 0.70697 0.81833 0.0
H113 H 0.92926 0.66812 0.81902 0.0
H114 H 0.81354 0.53678 0.77737 0.0
H115 H 0.76081 0.57511 0.77753 0.0
H116 H 0.4357 0.55327 0.80144 0.0
H117 H 0.34632 0.52583 0.80312 0.0
H118 H 0.34753 0.5085 0.88871 0.0
H119 H 0.43643 0.53729 0.88691 0.0
H120 H 0.57504 0.29242 0.21617 0.0
H121 H 0.62629 0.34318 0.29721 0.0
H122 H 0.5633 0.18839 0.27377 0.0
H123 H 0.64229 0.42057 0.21597 0.0
C124 C 0.64643 0.39271 0.22619 0.0
C125 C 0.5797 0.28396 0.23637 0.0
C126 C 0.56552 0.235 0.24242 0.0
C127 C 0.6008 0.32271 0.25621 0.0
C128 C 0.60863 0.31283 0.28223 0.0
C129 C 0.59646 0.26451 0.28839 0.0
C130 C 0.57376 0.22579 0.26865 0.0
N131 N 0.61754 0.37242 0.24956 0.0
H132 H 0.87772 0.66777 0.53857 0.0
H133 H 0.84696 0.71377 0.61579 0.0
H134 H 0.75716 0.56252 0.58567 0.0
H135 H 0.94051 0.8206 0.58522 0.0
C136 C 0.90639 0.78657 0.57984 0.0
C137 C 0.85649 0.65781 0.55704 0.0
C138 C 0.81354 0.61126 0.55886 0.0
C139 C 0.86919 0.69413 0.57794 0.0
C140 C 0.83866 0.68409 0.60081 0.0
C141 C 0.79661 0.63695 0.60348 0.0
C142 C 0.78715 0.59999 0.5832 0.0
N143 N 0.90942 0.74259 0.57418 0.0
H144 H 0.97362 0.36169 0.88378 0.0
H145 H 1.00759 0.38156 0.9684 0.0
H146 H 1.02431 0.50452 0.92405 0.0
H147 H 0.98073 0.25657 0.90175 0.0
C148 C 1.00079 0.29649 0.9058 0.0
C149 C 0.98591 0.38537 0.902 0.0
C150 C 0.99844 0.43524 0.90124 0.0
C151 C 0.99032 0.36628 0.92613 0.0
C152 C 1.00483 0.39669 0.9498 0.0
C153 C 1.01719 0.4468 0.94925 0.0
C154 C 1.01443 0.46582 0.92478 0.0
N155 N 0.98298 0.31733 0.92649 0.0
H156 H 0.15022 0.64392 0.48054 0.0
H157 H 1.08381 0.56146 0.40569 0.0
H158 H 0.2216 0.69879 0.40448 0.0
H159 H 1.00921 0.53115 0.42904 0.0
C160 C 1.019 0.52208 0.44793 0.0
C161 C 0.15037 0.64062 0.45879 0.0
C162 C 0.19132 0.67936 0.4443 0.0
C163 C 1.10922 0.59783 0.44507 0.0
C164 C 1.11184 0.59412 0.41673 0.0
C165 C 0.15222 0.6302 0.40233 0.0
C166 C 0.19051 0.6723 0.41607 0.0
N167 N 1.068 0.55769 0.45946 0.0
H168 H 0.63946 0.15664 0.81201 0.0
H169 H 0.63046 1.07037 0.73952 0.0
H170 H 0.62381 0.20547 0.7349 0.0
H171 H 0.5857 1.00318 0.76942 0.0
C172 C 0.61585 1.01745 0.78406 0.0
C173 C 0.63587 0.15131 0.79034 0.0
C174 C 0.63331 0.1884 0.77501 0.0
C175 C 0.63377 0.10729 0.77763 0.0
C176 C 0.62949 0.10182 0.74944 0.0
C177 C 0.62549 0.13648 0.73374 0.0
C178 C 0.62809 0.1795 0.74676 0.0
N179 N 0.63803 1.06999 0.79258 0.0
H180 H 0.62818 0.61815 0.14529 0.0
H181 H 0.69551 0.60735 0.06974 0.0
H182 H 0.55474 0.60353 0.06963 0.0
H183 H 0.7359 0.57902 0.09321 0.0
C184 C 0.74501 0.59918 0.11261 0.0
C185 C 0.62701 0.61407 0.12354 0.0
C186 C 0.58469 0.61038 0.1094 0.0
C187 C 0.66741 0.6114 0.10961 0.0
C188 C 0.66535 0.60758 0.08116 0.0
C189 C 0.62458 0.60402 0.0669 0.0
C190 C 0.585 0.60505 0.0811 0.0
N191 N 0.70977 0.6139 0.12397 0.0
H192 H 0.29861 0.56453 0.11867 0.0
H193 H 0.34975 0.68166 0.18145 0.0
H194 H 0.43362 0.68949 0.17939 0.0
H195 H 0.37192 0.50797 0.13905 0.0
H196 H 0.3858 0.49529 0.10514 0.0
H197 H 0.32924 0.49758 0.11207 0.0
H198 H 0.35375 0.56426 0.077 0.0
H199 H 0.41026 0.56202 0.0699 0.0
H200 H 0.41337 0.6203 0.07985 0.0
H201 H 0.51565 0.68409 0.17045 0.0
H202 H 0.58462 0.67075 0.15322 0.0
H203 H 0.4824 0.55892 0.09536 0.0
C204 C 0.32727 0.59174 0.13213 0.0
C205 C 0.31615 0.62227 0.15045 0.0
C206 C 0.356 0.65757 0.16725 0.0
C207 C 0.40431 0.66225 0.16625 0.0
C208 C 0.41391 0.63177 0.14811 0.0
C209 C 0.37637 0.59741 0.13115 0.0
C210 C 0.39697 0.57037 0.11278 0.0
C211 C 0.36933 0.51448 0.11755 0.0
C212 C 0.39336 0.5798 0.08312 0.0
C213 C 0.45164 0.59464 0.12196 0.0
C214 C 0.46067 0.62972 0.14256 0.0
C215 C 0.50847 0.65664 0.15425 0.0
C216 C 0.54781 0.64848 0.14442 0.0
C217 C 0.54044 0.61385 0.12267 0.0
C218 C 0.49071 0.58624 0.11177 0.0
H219 H 0.73828 0.27809 0.45292 0.0
H220 H 0.78931 0.22565 0.51757 0.0
H221 H 0.87204 0.30132 0.5163 0.0
H222 H 0.8545 0.33078 0.41575 0.0
H223 H 0.85067 0.38356 0.40515 0.0
H224 H 0.79449 0.32671 0.41186 0.0
H225 H 0.76665 0.37322 0.44622 0.0
H226 H 0.82215 0.43058 0.43918 0.0
H227 H 0.80803 0.4111 0.47325 0.0
H228 H 0.9539 0.38796 0.50785 0.0
H229 H 1.02139 0.46821 0.49161 0.0
H230 H 0.92023 0.4639 0.43115 0.0
C231 C 0.7666 0.28247 0.46701 0.0
C232 C 0.75555 0.24451 0.48562 0.0
C233 C 0.79525 0.25297 0.50315 0.0
C234 C 0.84303 0.29648 0.50258 0.0
C235 C 0.85264 0.33277 0.48409 0.0
C236 C 0.81531 0.32586 0.46646 0.0
C237 C 0.83572 0.36978 0.44795 0.0
C238 C 0.83373 0.35162 0.41842 0.0
C239 C 0.80639 0.39787 0.45189 0.0
C240 C 0.88999 0.40232 0.45772 0.0
C241 C 0.89909 0.38067 0.47883 0.0
C242 C 0.94655 0.40465 0.49125 0.0
C243 C 0.98516 0.45086 0.48192 0.0
C244 C 0.97739 0.4738 0.45996 0.0
C245 C 0.92842 0.4483 0.44798 0.0
H246 H 0.56974 0.73559 0.79995 0.0
H247 H 0.72044 0.80127 0.83109 0.0
H248 H 0.72986 0.88498 0.82844 0.0
H249 H 0.59903 0.83054 0.7517 0.0
H250 H 0.54024 0.82971 0.7553 0.0
H251 H 0.54404 0.7748 0.76129 0.0
H252 H 0.50722 0.77178 0.80875 0.0
H253 H 0.50347 0.82679 0.80292 0.0
H254 H 0.53703 0.82536 0.83175 0.0
H255 H 0.72245 0.96567 0.8228 0.0
H256 H 0.70153 1.03034 0.81079 0.0
H257 H 0.55878 0.9146 0.7798 0.0
C258 C 0.6046 0.76748 0.80652 0.0
C259 C 0.64414 0.7605 0.81619 0.0
C260 C 0.68925 0.80435 0.82379 0.0
C261 C 0.69498 0.85262 0.82238 0.0
C262 C 0.65568 0.85821 0.81274 0.0
C263 C 0.61148 0.81659 0.80458 0.0
C264 C 0.57607 0.83306 0.79347 0.0
C265 C 0.56414 0.81601 0.76367 0.0
C266 C 0.52809 0.81304 0.81022 0.0
C267 C 0.60681 0.88999 0.79678 0.0
C268 C 0.65251 0.90391 0.8083 0.0
C269 C 0.68668 0.95463 0.81367 0.0
C270 C 0.6744 0.99157 0.80688 0.0
C271 C 0.62834 0.97864 0.79433 0.0
C272 C 0.59438 0.92658 0.78942 0.0
H273 H 0.99825 0.57626 0.1177 0.0
H274 H 1.03339 0.65731 0.19503 0.0
H275 H 0.95553 0.66189 0.19274 0.0
H276 H 0.94569 0.64752 0.08826 0.0
H277 H 0.89896 0.59436 0.0691 0.0
H278 H 0.95738 0.5978 0.07722 0.0
H279 H 0.90868 0.51348 0.09748 0.0
H280 H 0.84874 0.50919 0.09283 0.0
H281 H 0.86919 0.50569 0.12599 0.0
H282 H 0.86979 0.65752 0.18153 0.0
H283 H 0.79047 0.6459 0.16241 0.0
H284 H 0.81104 0.56958 0.09202 0.0
C285 C 0.98957 0.59477 0.13429 0.0
C286 C 1.02284 0.61595 0.15681 0.0
C287 C 1.00937 0.64047 0.1776 0.0
C288 C 0.96477 0.64332 0.17644 0.0
C289 C 0.93302 0.62227 0.15406 0.0
C290 C 0.94537 0.59896 0.13318 0.0
C291 C 0.90554 0.58034 0.11105 0.0
C292 C 0.92825 0.60656 0.08485 0.0
C293 C 0.8815 0.52378 0.10652 0.0
C294 C 0.86824 0.59556 0.12289 0.0
C295 C 0.88486 0.6201 0.14768 0.0
C296 C 0.85683 0.63827 0.16211 0.0
C297 C 0.81138 0.63151 0.15107 0.0
C298 C 0.79335 0.60666 0.12559 0.0
C299 C 0.82293 0.58861 0.11159 0.0
H300 H 0.42751 0.9666 0.45047 0.0
H301 H 0.49395 0.92216 0.51134 0.0
H302 H 0.41864 0.83908 0.51073 0.0
H303 H 0.29706 0.89558 0.47206 0.0
H304 H 0.27193 0.87745 0.43841 0.0
H305 H 0.32957 0.93457 0.44464 0.0
H306 H 0.37396 0.9059 0.4093 0.0
H307 H 0.3164 0.84884 0.40288 0.0
H308 H 0.37163 0.84706 0.41236 0.0
H309 H 0.33115 0.75717 0.50404 0.0
H310 H 0.25014 0.68647 0.48814 0.0
H311 H 0.24124 0.77914 0.4288 0.0
C312 C 0.42618 0.93964 0.4639 0.0
C313 C 0.46787 0.95264 0.48135 0.0
C314 C 0.4636 0.91462 0.49788 0.0
C315 C 0.42033 0.86674 0.49771 0.0
C316 C 0.38028 0.85521 0.48042 0.0
C317 C 0.38327 0.89056 0.46345 0.0
C318 C 0.33625 0.86745 0.44555 0.0
C319 C 0.30697 0.89544 0.45045 0.0
C320 C 0.35041 0.86732 0.41575 0.0
C321 C 0.30633 0.81406 0.45511 0.0
C322 C 0.33205 0.80795 0.47559 0.0
C323 C 0.31128 0.76209 0.48788 0.0
C324 C 0.26443 0.7217 0.47883 0.0
C325 C 0.23762 0.72572 0.4571 0.0
C326 C 0.25969 0.77357 0.44544 0.0
H327 H 0.68341 0.47616 0.78232 0.0
H328 H 0.57151 0.43186 0.84488 0.0
H329 H 0.56401 0.34863 0.84338 0.0
H330 H 0.62321 0.35793 0.74373 0.0
H331 H 0.68051 0.35924 0.73386 0.0
H332 H 0.67972 0.41654 0.74087 0.0
H333 H 0.75014 0.44368 0.77587 0.0
H334 H 0.75099 0.3863 0.76928 0.0
H335 H 0.74184 0.40424 0.80306 0.0
H336 H 0.56939 0.26715 0.83566 0.0
H337 H 0.58004 0.19602 0.81907 0.0
H338 H 0.68316 0.28783 0.75881 0.0
C339 C 0.65749 0.44914 0.79586 0.0
C340 C 0.62829 0.46209 0.81399 0.0
C341 C 0.59454 0.42424 0.83084 0.0
C342 C 0.59008 0.37631 0.83018 0.0
C343 C 0.61901 0.36479 0.81221 0.0
C344 C 0.6517 0.40009 0.79506 0.0
C345 C 0.67654 0.37701 0.7767 0.0
C346 C 0.66427 0.37773 0.74703 0.0
C347 C 0.73325 0.40444 0.7815 0.0
C348 C 0.6525 0.32343 0.78594 0.0
C349 C 0.62014 0.31752 0.80687 0.0
C350 C 0.59455 0.27177 0.81916 0.0
C351 C 0.60115 0.23118 0.80967 0.0
C352 C 0.63248 0.23494 0.78749 0.0
C353 C 0.65868 0.28261 0.77575 0.0
H354 H 0.74932 0.92455 0.58128 0.0
H355 H 0.64103 0.80253 0.53008 0.0
H356 H 0.68265 0.75413 0.53894 0.0
H357 H 0.84983 0.92141 0.56061 0.0
H358 H 0.88189 0.9339 0.59236 0.0
H359 H 0.83766 0.95481 0.58782 0.0
H360 H 0.78696 0.90736 0.6289 0.0
H361 H 0.83194 0.88731 0.63418 0.0
H362 H 0.76667 0.84215 0.63058 0.0
H363 H 0.74789 0.7305 0.54256 0.0
H364 H 0.82393 0.72529 0.54758 0.0
H365 H 0.88612 0.85707 0.60118 0.0
C366 C 0.73264 0.88665 0.5731 0.0
C367 C 0.69208 0.86744 0.55485 0.0
C368 C 0.67241 0.81821 0.54388 0.0
C369 C 0.69565 0.79034 0.54891 0.0
C370 C 0.73763 0.81173 0.56554 0.0
C371 C 0.75504 0.85812 0.57822 0.0
C372 C 0.80376 0.87461 0.59289 0.0
C373 C 0.84572 0.92408 0.5828 0.0
C374 C 0.79691 0.87804 0.62346 0.0
C375 C 0.81276 0.83188 0.58485 0.0
C376 C 0.77393 0.79583 0.56926 0.0
C377 C 0.77714 0.75677 0.55606 0.0
C378 C 0.82059 0.75383 0.55932 0.0
C379 C 0.85979 0.78886 0.57637 0.0
C380 C 0.8558 0.82858 0.58902 0.0
H381 H 0.83924 0.504 0.81291 0.0
H382 H 0.97686 0.63672 0.79418 0.0
H383 H 1.02508 0.59927 0.81072 0.0
H384 H 0.87257 0.48785 0.87188 0.0
H385 H 0.84296 0.42102 0.87006 0.0
H386 H 0.81917 0.4515 0.85026 0.0
H387 H 0.8292 0.4076 0.80676 0.0
H388 H 0.85235 0.37605 0.82653 0.0
H389 H 0.88873 0.4122 0.79899 0.0
H390 H 1.05716 0.55758 0.83884 0.0
H391 H 1.07035 0.51303 0.87475 0.0
H392 H 0.91276 0.40542 0.87363 0.0
C393 C 0.87945 0.52421 0.81099 0.0
C394 C 0.9043 0.57326 0.80225 0.0
C395 C 0.95706 0.5992 0.80099 0.0
C396 C 0.98475 0.57802 0.8101 0.0
C397 C 0.95912 0.53053 0.81993 0.0
C398 C 0.90755 0.50349 0.81993 0.0
C399 C 0.88892 0.4564 0.83498 0.0
C400 C 0.8539 0.45415 0.85816 0.0
C401 C 0.86329 0.41033 0.81566 0.0
C402 C 0.93785 0.46321 0.84533 0.0
C403 C 0.97803 0.50557 0.83585 0.0
C404 C 1.0263 0.52343 0.84564 0.0
C405 C 1.03348 0.49814 0.86606 0.0
C406 C 0.99262 0.45553 0.87635 0.0
C407 C 0.94465 0.437 0.86529 0.0
H408 H 0.4464 0.95332 0.19802 0.0
H409 H 0.34728 0.9748 0.1468 0.0
H410 H 0.40225 1.06544 0.15168 0.0
H411 H 0.46624 1.04126 0.24396 0.0
H412 H 0.53144 1.06393 0.25058 0.0
H413 H 0.493 1.00138 0.23752 0.0
H414 H 0.55231 1.01711 0.19701 0.0
H415 H 0.59182 0.07976 0.21024 0.0
H416 H 0.56788 1.06882 0.17637 0.0
H417 H 0.45327 0.15044 0.1716 0.0
H418 H 0.50116 0.22397 0.20169 0.0
H419 H 0.57387 0.15023 0.23666 0.0
C420 C 0.43775 0.97706 0.18671 0.0
C421 C 0.39265 0.95721 0.1721 0.0
C422 C 0.38158 0.98941 0.15825 0.0
C423 C 0.41274 1.04091 0.16075 0.0
C424 C 0.45539 1.05958 0.17671 0.0
C425 C 0.46872 1.02863 0.18891 0.0
C426 C 0.51274 1.05798 0.20774 0.0
C427 C 0.50004 1.04007 0.23664 0.0
C428 C 0.55893 1.05579 0.1972 0.0
C429 C 0.51937 0.10949 0.20583 0.0
C430 C 0.48653 0.10982 0.18751 0.0
C431 C 0.48058 0.15126 0.18524 0.0
C432 C 0.50816 0.19307 0.20248 0.0
C433 C 0.54156 0.19334 0.22173 0.0
C434 C 0.54837 0.15143 0.22251 0.0
H435 H 0.59591 0.38348 0.48137 0.0
H436 H 0.70206 0.38786 0.42109 0.0
H437 H 0.7655 0.46874 0.44102 0.0
H438 H 0.64551 0.5244 0.48413 0.0
H439 H 0.63095 0.52262 0.51946 0.0
H440 H 0.59214 0.47067 0.4969 0.0
H441 H 0.6053 0.41286 0.52737 0.0
H442 H 0.64572 0.46444 0.54938 0.0
H443 H 0.66781 0.42496 0.53386 0.0
H444 H 0.8224 0.53574 0.47571 0.0
H445 H 0.8618 0.59353 0.5152 0.0
H446 H 0.71448 0.55128 0.54723 0.0
C447 C 0.6314 0.40207 0.47123 0.0
C448 C 0.64405 0.37794 0.45012 0.0
C449 C 0.69171 0.40431 0.43799 0.0
C450 C 0.72806 0.45057 0.44904 0.0
C451 C 0.7155 0.47096 0.47144 0.0
C452 C 0.6675 0.44865 0.4815 0.0
C453 C 0.66382 0.47633 0.50656 0.0
C454 C 0.63119 0.49993 0.50145 0.0
C455 C 0.64456 0.44262 0.53069 0.0
C456 C 0.71791 0.51537 0.5102 0.0
C457 C 0.74742 0.51202 0.48985 0.0
C458 C 0.79942 0.54008 0.4912 0.0
C459 C 0.82151 0.57269 0.51379 0.0
C460 C 0.79154 0.57695 0.53468 0.0
C461 C 0.73904 0.54854 0.53219 0.0
H462 H 0.27669 0.51748 0.88534 0.0
H463 H 0.2764 0.44508 0.80814 0.0
H464 H 0.18672 0.38673 0.81295 0.0
H465 H 0.20656 0.41123 0.91795 0.0
H466 H 0.17217 0.43339 0.93872 0.0
H467 H 0.23306 0.47662 0.92675 0.0
H468 H 0.19672 0.52648 0.90518 0.0
H469 H 0.13549 0.48333 0.91719 0.0
H470 H 0.14512 0.49517 0.88192 0.0
H471 H 1.10038 0.32799 0.82926 0.0
H472 H 1.02339 0.27709 0.85504 0.0
H473 H 1.08388 0.38368 0.92286 0.0
C474 C 0.25759 0.49012 0.86913 0.0
C475 C 0.28383 0.4862 0.84632 0.0
C476 C 0.2572 0.44976 0.82558 0.0
C477 C 0.20616 0.41609 0.8282 0.0
C478 C 0.18212 0.41938 0.8516 0.0
C479 C 0.20684 0.45592 0.87158 0.0
C480 C 0.17411 0.44826 0.89601 0.0
C481 C 0.1979 0.44197 0.92133 0.0
C482 C 0.16216 0.49085 0.90032 0.0
C483 C 0.12817 0.40044 0.88715 0.0
C484 C 0.1329 0.38488 0.86127 0.0
C485 C 1.09588 0.34037 0.84935 0.0
C486 C 1.05256 0.31154 0.86415 0.0
C487 C 1.04695 0.32725 0.89055 0.0
C488 C 1.0858 0.37179 0.90226 0.0
H489 H 0.84359 0.3879 0.12299 0.0
H490 H 0.90624 0.35275 0.19022 0.0
H491 H 0.83297 0.33702 0.21738 0.0
H492 H 0.80201 0.45546 0.15652 0.0
H493 H 0.74294 0.43339 0.13982 0.0
H494 H 0.79242 0.4293 0.12234 0.0
H495 H 0.73788 0.33532 0.11322 0.0
H496 H 0.68661 0.33839 0.12967 0.0
H497 H 0.70625 0.29617 0.14071 0.0
H498 H 0.76571 0.34471 0.24032 0.0
H499 H 0.70221 0.3659 0.25628 0.0
H500 H 0.67844 0.39257 0.17471 0.0
C501 C 0.84096 0.3752 0.14311 0.0
C502 C 0.88058 0.37116 0.15435 0.0
C503 C 0.87605 0.35501 0.18088 0.0
C504 C 0.83457 0.3462 0.19658 0.0
C505 C 0.79738 0.35279 0.18538 0.0
C506 C 0.79935 0.36567 0.15904 0.0
C507 C 0.75628 0.37438 0.15284 0.0
C508 C 0.77462 0.42629 0.1423 0.0
C509 C 0.71957 0.33363 0.13294 0.0
C510 C 0.73325 0.36955 0.18048 0.0
C511 C 0.75671 0.35565 0.19873 0.0
C512 C 0.74559 0.35355 0.22604 0.0
C513 C 0.70923 0.36548 0.23491 0.0
C514 C 0.68404 0.37895 0.21652 0.0
C515 C 0.69641 0.3812 0.18901 0.0
H516 H 0.18323 0.58011 0.0808 0.0
H517 H 1.112 0.67118 0.08698 0.0
H518 H 1.06213 0.6274 0.04626 0.0
H519 H 0.1894 0.57313 0.00787 0.0
H520 H 0.17606 0.50948 0.00617 0.0
H521 H 0.20736 0.54931 0.03524 0.0
H522 H 0.13921 0.48589 0.06581 0.0
H523 H 1.10702 0.44619 0.03688 0.0
H524 H 1.07463 0.46733 0.05991 0.0
H525 H 1.01846 0.57243 0.00592 0.0
H526 H 0.98651 0.51236 0.96691 0.0
H527 H 1.08578 0.45655 0.98685 0.0
C528 C 0.15752 0.59114 0.07334 0.0
C529 C 0.15142 0.629 0.08688 0.0
C530 C 0.11744 0.64248 0.07671 0.0
C531 C 1.08875 0.61764 0.05373 0.0
C532 C 1.09477 0.57964 0.04116 0.0
C533 C 0.12853 0.56663 0.05045 0.0
C534 C 0.12731 0.52407 0.03335 0.0
C535 C 0.17805 0.53997 0.01985 0.0
C536 C 1.11106 0.47817 0.04999 0.0
C537 C 1.08772 0.51533 0.01294 0.0
C538 C 1.06935 0.5477 0.0179 0.0
C539 C 1.03269 0.54703 0.00175 0.0
C540 C 1.01488 0.51291 0.97964 0.0
C541 C 1.03378 0.47996 0.97387 0.0
C542 C 1.07027 0.48091 0.99097 0.0
H543 H 0.57177 0.09037 0.40567 0.0
H544 H 0.72856 0.18905 0.42327 0.0
H545 H 0.73143 0.24519 0.38878 0.0
H546 H 0.58049 0.10387 0.33439 0.0
H547 H 0.52079 0.10091 0.33174 0.0
H548 H 0.5317 1.06963 0.35801 0.0
H549 H 0.50683 0.11783 0.39379 0.0
H550 H 0.49604 0.14898 0.36737 0.0
H551 H 0.53868 0.18477 0.39433 0.0
H552 H 0.71618 0.29082 0.35262 0.0
H553 H 0.68703 0.31656 0.31379 0.0
H554 H 0.53998 0.18796 0.3208 0.0
C555 C 0.60672 0.12375 0.40214 0.0
C556 C 0.64984 0.13575 0.41709 0.0
C557 C 0.69516 0.17927 0.41185 0.0
C558 C 0.69697 0.21158 0.39258 0.0
C559 C 0.65323 0.19944 0.37872 0.0
C560 C 0.60913 0.15619 0.38303 0.0
C561 C 0.56785 0.15049 0.36479 0.0
C562 C 0.54914 0.10345 0.34613 0.0
C563 C 0.52483 0.15052 0.38107 0.0
C564 C 0.59562 0.1971 0.34934 0.0
C565 C 0.64464 0.22523 0.35784 0.0
C566 C 0.67781 0.2692 0.34588 0.0
C567 C 0.66082 0.28378 0.32404 0.0
C568 C 0.61125 0.25428 0.31439 0.0
C569 C 0.57808 0.21118 0.32775 0.0
H570 H 0.69877 0.6644 0.75088 0.0
H571 H 0.5584 0.53411 0.72811 0.0
H572 H 0.58918 0.53608 0.68175 0.0
H573 H 0.73066 0.72483 0.68696 0.0
H574 H 0.79573 0.7426 0.68929 0.0
H575 H 0.76013 0.73662 0.71946 0.0
H576 H 0.7862 0.6756 0.73639 0.0
H577 H 0.82035 0.67897 0.70613 0.0
H578 H 0.77172 0.61962 0.71659 0.0
H579 H 0.63498 0.55176 0.63844 0.0
H580 H 0.6951 0.57226 0.60191 0.0
H581 H 0.81256 0.68081 0.65543 0.0
C582 C 0.67485 0.63595 0.73625 0.0
C583 C 0.62658 0.59857 0.74316 0.0
C584 C 0.59557 0.56301 0.72321 0.0
C585 C 0.61269 0.56389 0.69684 0.0
C586 C 0.66126 0.59992 0.69097 0.0
C587 C 0.69227 0.63484 0.71016 0.0
C588 C 0.7446 0.6658 0.69932 0.0
C589 C 0.75858 0.72072 0.69872 0.0
C590 C 0.78293 0.65955 0.71557 0.0
C591 C 0.73813 0.64237 0.67112 0.0
C592 C 0.68941 0.6055 0.6666 0.0
C593 C 0.67356 0.57973 0.6419 0.0
C594 C 0.70861 0.59124 0.62133 0.0
C595 C 0.75977 0.62693 0.62572 0.0
C596 C 0.77423 0.65317 0.65107 0.0
H597 H 0.64143 0.19631 0.57588 0.0
H598 H 0.56649 1.03695 0.55888 0.0
H599 H 0.56303 1.02365 0.60745 0.0
H600 H 0.71778 0.19579 0.63108 0.0
H601 H 0.71475 0.24488 0.65069 0.0
H602 H 0.71072 0.24236 0.61453 0.0
H603 H 0.62692 0.24274 0.6182 0.0
H604 H 0.63054 0.24492 0.65436 0.0
H605 H 0.57643 0.19612 0.63702 0.0
H606 H 0.56234 1.02684 0.65771 0.0
H607 H 0.57299 1.04566 0.70631 0.0
H608 H 0.65666 0.20352 0.69225 0.0
C609 C 0.62436 0.15868 0.58246 0.0
C610 C 0.60375 0.1176 0.56349 0.0
C611 C 0.58232 1.06898 0.57291 0.0
C612 C 0.58005 1.06102 0.60052 0.0
C613 C 0.60012 0.10207 0.61869 0.0
C614 C 0.62265 0.15002 0.61013 0.0
C615 C 0.64287 0.18738 0.63409 0.0
C616 C 0.69992 0.2195 0.6325 0.0
C617 C 0.61768 0.2197 0.63602 0.0
C618 C 0.62757 0.15287 0.65739 0.0
C619 C 0.60252 0.10389 0.64791 0.0
C620 C 0.58291 1.06507 0.66533 0.0
C621 C 0.58973 0.07634 0.69312 0.0
C622 C 0.61705 0.1262 0.7037 0.0
C623 C 0.63571 0.16495 0.68527 0.0
H624 H 0.7141 0.67646 0.91445 0.0
H625 H 0.57517 0.54763 0.88822 0.0
H626 H 0.55133 0.52852 0.93568 0.0
H627 H 0.73587 0.61895 0.97013 0.0
H628 H 0.76208 0.67449 -0.00817 0.0
H629 H 0.76773 0.67911 0.95586 0.0
H630 H 0.72623 0.73439 0.95773 0.0
H631 H 0.7206 0.73007 -0.00629 0.0
H632 H 0.66606 0.71216 0.97338 0.0
H633 H 0.54165 0.52432 0.98618 0.0
H634 H 0.54819 0.53336 0.0358 0.0
H635 H 0.69525 0.66224 0.02992 0.0
C636 C 0.67857 0.64435 0.91873 0.0
C637 C 0.64628 0.61369 0.89756 0.0
C638 C 0.60039 0.57174 0.90403 0.0
C639 C 0.58656 0.56059 0.93097 0.0
C640 C 0.61923 0.59137 0.95136 0.0
C641 C 0.66447 0.63224 0.94559 0.0
C642 C 0.69319 0.65854 0.97133 0.0
C643 C 0.74265 0.65771 0.97234 0.0
C644 C 0.70203 0.71196 0.9742 0.0
C645 C 0.65698 0.62628 -0.00753 0.0
C646 C 0.61441 0.58793 0.98046 0.0
C647 C 0.57495 0.55405 -0.00426 0.0
C648 C 0.57895 0.55952 0.02394 0.0
C649 C 0.62228 0.59828 0.03681 0.0
C650 C 0.66193 0.63186 0.02071 0.0
H651 H 1.11249 0.61562 0.24122 0.0
H652 H 0.21881 0.5621 0.23432 0.0
H653 H 0.22889 0.57005 0.28366 0.0
H654 H 0.17122 0.70407 0.29811 0.0
H655 H 1.1131 0.69043 0.31418 0.0
H656 H 0.11561 0.68294 0.27813 0.0
H657 H 1.04509 0.59159 0.2799 0.0
H658 H 1.04246 0.59875 0.31596 0.0
H659 H 1.05251 0.5501 0.30099 0.0
H660 H 0.22844 0.5839 0.33352 0.0
H661 H 0.21466 0.59964 0.38132 0.0
H662 H 1.10508 0.63984 0.35779 0.0
C663 C 0.13818 0.60605 0.25016 0.0
C664 C 0.16519 0.5885 0.23383 0.0
C665 C 0.19781 0.57561 0.24634 0.0
C666 C 0.20384 0.58007 0.27439 0.0
C667 C 0.17649 0.59693 0.28996 0.0
C668 C 0.14401 0.60943 0.27841 0.0
C669 C 0.11775 0.62463 0.30013 0.0
C670 C 0.13017 0.67874 0.29747 0.0
C671 C 1.06109 0.58915 0.29918 0.0
C672 C 0.14079 0.61895 0.32556 0.0
C673 C 0.17485 0.60323 0.31907 0.0
C674 C 0.2017 0.59598 0.33883 0.0
C675 C 0.19365 0.60497 0.36593 0.0
C676 C 0.1587 0.62059 0.37323 0.0
C677 C 0.13178 0.62756 0.35274 0.0
loop_
_geom_bond_atom_site_label_1
_geom_bond_atom_site_label_2
_geom_bond_distance
_geom_bond_site_symmetry_2
_ccdc_geom_bond_type
C0 Eu1 2.835 1_655 S
C0 C2 1.500 . S
C0 O20 1.257 . S
C0 O21 1.260 . S
Eu1 C0 2.835 1_455 S
Eu1 O20 2.473 1_455 S
Eu1 O21 2.480 1_455 S
Eu1 O22 2.430 . S
Eu1 O23 2.670 . S
Eu1 O24 2.394 1_455 S
Eu1 O29 2.355 . S
Eu1 O31 2.374 . S
C2 C0 1.500 . S
C2 C3 1.377 . S
C2 C7 1.377 . S
C3 C2 1.377 . S
C3 C4 1.395 . S
C3 H32 0.931 . S
C4 C3 1.395 . S
C4 C5 1.383 . S
C4 H33 0.931 . S
C5 C4 1.383 . S
C5 C6 1.394 . S
C6 C5 1.394 . S
C6 C7 1.378 . S
C6 H34 0.931 . S
C7 C2 1.377 . S
C7 C6 1.378 . S
C7 H35 0.931 . S
C8 O22 1.259 . S
C8 O23 1.270 . S
C9 O24 1.251 . S
C9 O25 1.251 . S
C10 Eu11 2.835 . S
C10 C12 1.500 . S
C10 O26 1.257 . S
C10 O27 1.260 . S
Eu11 C10 2.835 . S
Eu11 O23 2.355 . S
Eu11 O25 2.374 1_455 S
Eu11 O26 2.473 . S
Eu11 O27 2.480 . S
Eu11 O28 2.430 . S
Eu11 O29 2.670 . S
Eu11 O30 2.394 . S
C12 C10 1.500 . S
C12 C13 1.377 . S
C12 C17 1.377 . S
C13 C12 1.377 . S
C13 C14 1.395 . S
C13 H36 0.931 . S
C14 C13 1.395 . S
C14 C15 1.383 . S
C14 H37 0.931 . S
C15 C14 1.383 . S
C15 C16 1.394 . S
C16 C15 1.394 . S
C16 C17 1.378 . S
C16 H38 0.931 . S
C17 C12 1.377 . S
C17 C16 1.378 . S
C17 H39 0.931 . S
C18 O28 1.259 . S
C18 O29 1.270 . S
C19 O30 1.251 . S
C19 O31 1.251 . S
O20 C0 1.257 . S
O20 Eu1 2.473 1_655 S
O21 C0 1.260 . S
O21 Eu1 2.480 1_655 S
O22 Eu1 2.430 . S
O22 C8 1.259 . S
O23 Eu1 2.670 . S
O23 C8 1.270 . S
O23 Eu11 2.355 . S
O24 Eu1 2.394 1_655 S
O24 C9 1.251 . S
O25 C9 1.251 . S
O25 Eu11 2.374 1_655 S
O26 C10 1.257 . S
O26 Eu11 2.473 . S
O27 C10 1.260 . S
O27 Eu11 2.480 . S
O28 Eu11 2.430 . S
O28 C18 1.259 . S
O29 Eu1 2.355 . S
O29 Eu11 2.670 . S
O29 C18 1.270 . S
O30 Eu11 2.394 . S
O30 C19 1.251 . S
O31 Eu1 2.374 . S
O31 C19 1.251 . S
H32 C3 0.931 . S
H33 C4 0.931 . S
H34 C6 0.931 . S
H35 C7 0.931 . S
H36 C13 0.931 . S
H37 C14 0.931 . S
H38 C16 0.931 . S
H39 C17 0.931 . S
C40 Eu41 2.835 . S
C40 C42 1.500 . S
C40 O60 1.257 . S
C40 O61 1.260 . S
Eu41 C40 2.835 . S
Eu41 O60 2.473 . S
Eu41 O61 2.480 . S
Eu41 O62 2.430 . S
Eu41 O63 2.670 . S
Eu41 O64 2.394 . S
Eu41 O69 2.355 . S
Eu41 O71 2.378 . S
C42 C40 1.500 . S
C42 C43 1.377 . S
C42 C47 1.377 . S
C43 C42 1.377 . S
C43 C44 1.395 . S
C43 H72 0.931 . S
C44 C43 1.395 . S
C44 C45 1.383 . S
C44 H73 0.931 . S
C45 C44 1.383 . S
C45 C46 1.394 . S
C46 C45 1.394 . S
C46 C47 1.378 . S
C46 H74 0.931 . S
C47 C42 1.377 . S
C47 C46 1.378 . S
C47 H75 0.931 . S
C48 O62 1.259 . S
C48 O63 1.270 . S
C49 O64 1.251 . S
C49 O65 1.251 . S
C50 Eu51 2.835 1_565 S
C50 C52 1.500 . S
C50 O66 1.257 . S
C50 O67 1.260 . S
Eu51 C50 2.835 1_545 S
Eu51 O63 2.355 . S
Eu51 O65 2.374 . S
Eu51 O66 2.473 1_545 S
Eu51 O67 2.480 1_545 S
Eu51 O68 2.430 . S
Eu51 O69 2.670 . S
Eu51 O70 2.394 1_545 S
C52 C50 1.500 . S
C52 C53 1.377 . S
C52 C57 1.377 . S
C53 C52 1.377 . S
C53 C54 1.395 . S
C53 H76 0.931 . S
C54 C53 1.395 . S
C54 C55 1.383 . S
C54 H77 0.931 . S
C55 C54 1.383 . S
C55 C56 1.394 . S
C56 C55 1.394 . S
C56 C57 1.378 . S
C56 H78 0.931 . S
C57 C52 1.377 . S
C57 C56 1.378 . S
C57 H79 0.931 . S
C58 O68 1.259 . S
C58 O69 1.270 . S
C59 O70 1.251 . S
C59 O71 1.246 1_565 S
O60 C40 1.257 . S
O60 Eu41 2.473 . S
O61 C40 1.260 . S
O61 Eu41 2.480 . S
O62 Eu41 2.430 . S
O62 C48 1.259 . S
O63 Eu41 2.670 . S
O63 C48 1.270 . S
O63 Eu51 2.355 . S
O64 Eu41 2.394 . S
O64 C49 1.251 . S
O65 C49 1.251 . S
O65 Eu51 2.374 . S
O66 C50 1.257 . S
O66 Eu51 2.473 1_565 S
O67 C50 1.260 . S
O67 Eu51 2.480 1_565 S
O68 Eu51 2.430 . S
O68 C58 1.259 . S
O69 Eu41 2.355 . S
O69 Eu51 2.670 . S
O69 C58 1.270 . S
O70 Eu51 2.394 1_565 S
O70 C59 1.251 . S
O71 Eu41 2.378 . S
O71 C59 1.246 1_545 S
H72 C43 0.931 . S
H73 C44 0.931 . S
H74 C46 0.931 . S
H75 C47 0.931 . S
H76 C53 0.931 . S
H77 C54 0.931 . S
H78 C56 0.931 . S
H79 C57 0.931 . S
C80 Eu81 2.835 . S
C80 C82 1.500 . S
C80 O100 1.257 . S
C80 O101 1.260 . S
Eu81 C80 2.835 . S
Eu81 O100 2.473 . S
Eu81 O101 2.480 . S
Eu81 O102 2.430 . S
Eu81 O103 2.670 . S
Eu81 O104 2.394 . S
Eu81 O109 2.355 . S
Eu81 O111 2.374 . S
C82 C80 1.500 . S
C82 C83 1.377 . S
C82 C87 1.377 . S
C83 C82 1.377 . S
C83 C84 1.395 . S
C83 H112 0.931 . S
C84 C83 1.395 . S
C84 C85 1.383 . S
C84 H113 0.931 . S
C85 C84 1.383 . S
C85 C86 1.394 . S
C86 C85 1.394 . S
C86 C87 1.378 . S
C86 H114 0.931 . S
C87 C82 1.377 . S
C87 C86 1.378 . S
C87 H115 0.931 . S
C88 O102 1.259 . S
C88 O103 1.270 . S
C89 O104 1.251 . S
C89 O105 1.251 . S
C90 Eu91 2.835 . S
C90 C92 1.500 . S
C90 O106 1.257 . S
C90 O107 1.260 . S
Eu91 C90 2.835 . S
Eu91 O103 2.355 . S
Eu91 O105 2.374 . S
Eu91 O106 2.473 . S
Eu91 O107 2.480 . S
Eu91 O108 2.430 . S
Eu91 O109 2.670 . S
Eu91 O110 2.394 . S
C92 C90 1.500 . S
C92 C93 1.377 . S
C92 C97 1.377 . S
C93 C92 1.377 . S
C93 C94 1.395 . S
C93 H116 0.931 . S
C94 C93 1.395 . S
C94 C95 1.383 . S
C94 H117 0.931 . S
C95 C94 1.383 . S
C95 C96 1.394 . S
C96 C95 1.394 . S
C96 C97 1.378 . S
C96 H118 0.931 . S
C97 C92 1.377 . S
C97 C96 1.378 . S
C97 H119 0.931 . S
C98 O108 1.259 . S
C98 O109 1.270 . S
C99 O110 1.251 . S
C99 O111 1.251 . S
O100 C80 1.257 . S
O100 Eu81 2.473 . S
O101 C80 1.260 . S
O101 Eu81 2.480 . S
O102 Eu81 2.430 . S
O102 C88 1.259 . S
O103 Eu81 2.670 . S
O103 C88 1.270 . S
O103 Eu91 2.355 . S
O104 Eu81 2.394 . S
O104 C89 1.251 . S
O105 C89 1.251 . S
O105 Eu91 2.374 . S
O106 C90 1.257 . S
O106 Eu91 2.473 . S
O107 C90 1.260 . S
O107 Eu91 2.480 . S
O108 Eu91 2.430 . S
O108 C98 1.259 . S
O109 Eu81 2.355 . S
O109 Eu91 2.670 . S
O109 C98 1.270 . S
O110 Eu91 2.394 . S
O110 C99 1.251 . S
O111 Eu81 2.374 . S
O111 C99 1.251 . S
H112 C83 0.931 . S
H113 C84 0.931 . S
H114 C86 0.931 . S
H115 C87 0.931 . S
H116 C93 0.931 . S
H117 C94 0.931 . S
H118 C96 0.931 . S
H119 C97 0.931 . S
H120 C125 0.930 . S
H121 C128 0.930 . S
H122 C130 0.930 . S
H123 C124 1.016 . S
C124 H123 1.016 . S
C124 N131 1.286 . S
C125 H120 0.930 . S
C125 C126 1.397 . S
C125 C127 1.361 . S
C126 C125 1.397 . S
C126 C130 1.390 . S
C127 C125 1.361 . S
C127 C128 1.393 . S
C127 N131 1.413 . S
C128 H121 0.930 . S
C128 C127 1.393 . S
C128 C129 1.399 . S
C129 C128 1.399 . S
C129 C130 1.381 . S
C130 H122 0.930 . S
C130 C126 1.390 . S
C130 C129 1.381 . S
N131 C124 1.286 . S
N131 C127 1.413 . S
H132 C137 0.930 . S
H133 C140 0.930 . S
H134 C142 0.930 . S
H135 C136 1.016 . S
C136 H135 1.016 . S
C136 N143 1.286 . S
C137 H132 0.930 . S
C137 C138 1.397 . S
C137 C139 1.361 . S
C138 C137 1.397 . S
C138 C142 1.390 . S
C139 C137 1.361 . S
C139 C140 1.393 . S
C139 N143 1.413 . S
C140 H133 0.930 . S
C140 C139 1.393 . S
C140 C141 1.399 . S
C141 C140 1.399 . S
C141 C142 1.381 . S
C142 H134 0.930 . S
C142 C138 1.390 . S
C142 C141 1.381 . S
N143 C136 1.286 . S
N143 C139 1.413 . S
H144 C149 0.930 . S
H145 C152 0.930 . S
H146 C154 0.930 . S
H147 C148 1.016 . S
C148 H147 1.016 . S
C148 N155 1.286 . S
C149 H144 0.930 . S
C149 C150 1.397 . S
C149 C151 1.361 1_655 S
C150 C149 1.397 . S
C150 C154 1.390 . S
C151 C149 1.361 1_455 S
C151 C152 1.393 . S
C151 N155 1.413 . S
C152 H145 0.930 . S
C152 C151 1.393 . S
C152 C153 1.399 1_455 S
C153 C152 1.399 1_655 S
C153 C154 1.381 . S
C154 H146 0.930 . S
C154 C150 1.390 . S
C154 C153 1.381 . S
N155 C148 1.286 . S
N155 C151 1.413 . S
H156 C161 0.930 . S
H157 C164 0.930 1_655 S
H158 C166 0.930 . S
H159 C160 1.016 . S
C160 H159 1.016 . S
C160 N167 1.286 . S
C161 H156 0.930 . S
C161 C162 1.397 . S
C161 C163 1.361 . S
C162 C161 1.397 . S
C162 C166 1.390 . S
C163 C161 1.361 . S
C163 C164 1.393 . S
C163 N167 1.413 1_455 S
C164 H157 0.930 1_455 S
C164 C163 1.393 . S
C164 C165 1.399 . S
C165 C164 1.399 . S
C165 C166 1.381 . S
C166 H158 0.930 . S
C166 C162 1.390 . S
C166 C165 1.381 . S
N167 C160 1.286 . S
N167 C163 1.413 1_655 S
H168 C173 0.930 . S
H169 C176 0.930 . S
H170 C178 0.930 . S
H171 C172 1.016 . S
C172 H171 1.016 . S
C172 N179 1.286 . S
C173 H168 0.930 . S
C173 C174 1.397 . S
C173 C175 1.375 . S
C174 C173 1.397 . S
C174 C178 1.390 . S
C175 C173 1.375 . S
C175 C176 1.393 1_545 S
C175 N179 1.400 1_545 S
C176 H169 0.930 . S
C176 C175 1.393 1_565 S
C176 C177 1.399 1_565 S
C177 C176 1.399 1_545 S
C177 C178 1.381 . S
C178 H170 0.930 . S
C178 C174 1.390 . S
C178 C177 1.381 . S
N179 C172 1.286 . S
N179 C175 1.400 1_565 S
H180 C185 0.930 . S
H181 C188 0.930 . S
H182 C190 0.930 . S
H183 C184 1.016 . S
C184 H183 1.016 . S
C184 N191 1.286 . S
C185 H180 0.930 . S
C185 C186 1.397 . S
C185 C187 1.361 . S
C186 C185 1.397 . S
C186 C190 1.390 . S
C187 C185 1.361 . S
C187 C188 1.393 . S
C187 N191 1.413 . S
C188 H181 0.930 . S
C188 C187 1.393 . S
C188 C189 1.399 . S
C189 C188 1.399 . S
C189 C190 1.381 . S
C190 H182 0.930 . S
C190 C186 1.390 . S
C190 C189 1.381 . S
N191 C184 1.286 . S
N191 C187 1.413 . S
H192 C204 0.930 . S
H193 C206 0.930 . S
H194 C207 0.930 . S
H195 C211 0.959 . S
H196 C211 0.959 . S
H197 C211 0.961 . S
H198 C212 0.960 . S
H199 C212 0.961 . S
H200 C212 0.959 . S
H201 C215 0.929 . S
H202 C216 0.931 . S
H203 C218 0.930 . S
C204 H192 0.930 . S
C204 C205 1.399 . S
C204 C209 1.399 . S
C205 C204 1.399 . S
C205 C206 1.376 . S
C206 H193 0.930 . S
C206 C205 1.376 . S
C206 C207 1.388 . S
C207 H194 0.930 . S
C207 C206 1.388 . S
C207 C208 1.390 . S
C208 C207 1.390 . S
C208 C209 1.394 . S
C208 C214 1.465 . S
C209 C204 1.399 . S
C209 C208 1.394 . S
C209 C210 1.516 . S
C210 C209 1.516 . S
C210 C211 1.502 . S
C210 C212 1.561 . S
C210 C213 1.526 . S
C211 H195 0.959 . S
C211 H196 0.959 . S
C211 H197 0.961 . S
C211 C210 1.502 . S
C212 H198 0.960 . S
C212 H199 0.961 . S
C212 H200 0.959 . S
C212 C210 1.561 . S
C213 C210 1.526 . S
C213 C214 1.396 . S
C213 C218 1.390 . S
C214 C208 1.465 . S
C214 C213 1.396 . S
C214 C215 1.399 . S
C215 H201 0.929 . S
C215 C214 1.399 . S
C215 C216 1.385 . S
C216 H202 0.931 . S
C216 C215 1.385 . S
C216 C217 1.389 . S
C217 C216 1.389 . S
C217 C218 1.387 . S
C218 H203 0.930 . S
C218 C213 1.390 . S
C218 C217 1.387 . S
H219 C231 0.930 . S
H220 C233 0.930 . S
H221 C234 0.930 . S
H222 C238 0.959 . S
H223 C238 0.959 . S
H224 C238 0.961 . S
H225 C239 0.960 . S
H226 C239 0.961 . S
H227 C239 0.959 . S
H228 C242 0.929 . S
H229 C243 0.931 . S
H230 C245 0.930 . S
C231 H219 0.930 . S
C231 C232 1.399 . S
C231 C236 1.399 . S
C232 C231 1.399 . S
C232 C233 1.376 . S
C233 H220 0.930 . S
C233 C232 1.376 . S
C233 C234 1.388 . S
C234 H221 0.930 . S
C234 C233 1.388 . S
C234 C235 1.390 . S
C235 C234 1.390 . S
C235 C236 1.394 . S
C235 C241 1.465 . S
C236 C231 1.399 . S
C236 C235 1.394 . S
C236 C237 1.516 . S
C237 C236 1.516 . S
C237 C238 1.502 . S
C237 C239 1.561 . S
C237 C240 1.526 . S
C238 H222 0.959 . S
C238 H223 0.959 . S
C238 H224 0.961 . S
C238 C237 1.502 . S
C239 H225 0.960 . S
C239 H226 0.961 . S
C239 H227 0.959 . S
C239 C237 1.561 . S
C240 C237 1.526 . S
C240 C241 1.396 . S
C240 C245 1.390 . S
C241 C235 1.465 . S
C241 C240 1.396 . S
C241 C242 1.399 . S
C242 H228 0.929 . S
C242 C241 1.399 . S
C242 C243 1.385 . S
C243 H229 0.931 . S
C243 C242 1.385 . S
C243 C244 1.389 . S
C244 C243 1.389 . S
C244 C245 1.387 . S
C245 H230 0.930 . S
C245 C240 1.390 . S
C245 C244 1.387 . S
H246 C258 0.930 . S
H247 C260 0.930 . S
H248 C261 0.930 . S
H249 C265 0.959 . S
H250 C265 0.959 . S
H251 C265 0.961 . S
H252 C266 0.960 . S
H253 C266 0.961 . S
H254 C266 0.959 . S
H255 C269 0.929 . S
H256 C270 0.931 . S
H257 C272 0.930 . S
C258 H246 0.930 . S
C258 C259 1.399 . S
C258 C263 1.399 . S
C259 C258 1.399 . S
C259 C260 1.376 . S
C260 H247 0.930 . S
C260 C259 1.376 . S
C260 C261 1.388 . S
C261 H248 0.930 . S
C261 C260 1.388 . S
C261 C262 1.390 . S
C262 C261 1.390 . S
C262 C263 1.394 . S
C262 C268 1.465 . S
C263 C258 1.399 . S
C263 C262 1.394 . S
C263 C264 1.516 . S
C264 C263 1.516 . S
C264 C265 1.502 . S
C264 C266 1.561 . S
C264 C267 1.526 . S
C265 H249 0.959 . S
C265 H250 0.959 . S
C265 H251 0.961 . S
C265 C264 1.502 . S
C266 H252 0.960 . S
C266 H253 0.961 . S
C266 H254 0.959 . S
C266 C264 1.561 . S
C267 C264 1.526 . S
C267 C268 1.396 . S
C267 C272 1.390 . S
C268 C262 1.465 . S
C268 C267 1.396 . S
C268 C269 1.399 . S
C269 H255 0.929 . S
C269 C268 1.399 . S
C269 C270 1.385 . S
C270 H256 0.931 . S
C270 C269 1.385 . S
C270 C271 1.389 . S
C271 C270 1.389 . S
C271 C272 1.387 . S
C272 H257 0.930 . S
C272 C267 1.390 . S
C272 C271 1.387 . S
H273 C285 0.930 . S
H274 C287 0.930 . S
H275 C288 0.930 . S
H276 C292 0.959 . S
H277 C292 0.959 . S
H278 C292 0.961 . S
H279 C293 0.960 . S
H280 C293 0.961 . S
H281 C293 0.959 . S
H282 C296 0.929 . S
H283 C297 0.931 . S
H284 C299 0.930 . S
C285 H273 0.930 . S
C285 C286 1.399 . S
C285 C290 1.399 . S
C286 C285 1.399 . S
C286 C287 1.376 . S
C287 H274 0.930 . S
C287 C286 1.376 . S
C287 C288 1.388 . S
C288 H275 0.930 . S
C288 C287 1.388 . S
C288 C289 1.390 . S
C289 C288 1.390 . S
C289 C290 1.394 . S
C289 C295 1.465 . S
C290 C285 1.399 . S
C290 C289 1.394 . S
C290 C291 1.516 . S
C291 C290 1.516 . S
C291 C292 1.502 . S
C291 C293 1.561 . S
C291 C294 1.526 . S
C292 H276 0.959 . S
C292 H277 0.959 . S
C292 H278 0.961 . S
C292 C291 1.502 . S
C293 H279 0.960 . S
C293 H280 0.961 . S
C293 H281 0.959 . S
C293 C291 1.561 . S
C294 C291 1.526 . S
C294 C295 1.396 . S
C294 C299 1.390 . S
C295 C289 1.465 . S
C295 C294 1.396 . S
C295 C296 1.399 . S
C296 H282 0.929 . S
C296 C295 1.399 . S
C296 C297 1.385 . S
C297 H283 0.931 . S
C297 C296 1.385 . S
C297 C298 1.389 . S
C298 C297 1.389 . S
C298 C299 1.387 . S
C299 H284 0.930 . S
C299 C294 1.390 . S
C299 C298 1.387 . S
H300 C312 0.930 . S
H301 C314 0.930 . S
H302 C315 0.930 . S
H303 C319 0.959 . S
H304 C319 0.959 . S
H305 C319 0.961 . S
H306 C320 0.960 . S
H307 C320 0.961 . S
H308 C320 0.959 . S
H309 C323 0.929 . S
H310 C324 0.931 . S
H311 C326 0.930 . S
C312 H300 0.930 . S
C312 C313 1.399 . S
C312 C317 1.399 . S
C313 C312 1.399 . S
C313 C314 1.376 . S
C314 H301 0.930 . S
C314 C313 1.376 . S
C314 C315 1.388 . S
C315 H302 0.930 . S
C315 C314 1.388 . S
C315 C316 1.390 . S
C316 C315 1.390 . S
C316 C317 1.394 . S
C316 C322 1.465 . S
C317 C312 1.399 . S
C317 C316 1.394 . S
C317 C318 1.516 . S
C318 C317 1.516 . S
C318 C319 1.502 . S
C318 C320 1.561 . S
C318 C321 1.526 . S
C319 H303 0.959 . S
C319 H304 0.959 . S
C319 H305 0.961 . S
C319 C318 1.502 . S
C320 H306 0.960 . S
C320 H307 0.961 . S
C320 H308 0.959 . S
C320 C318 1.561 . S
C321 C318 1.526 . S
C321 C322 1.396 . S
C321 C326 1.390 . S
C322 C316 1.465 . S
C322 C321 1.396 . S
C322 C323 1.399 . S
C323 H309 0.929 . S
C323 C322 1.399 . S
C323 C324 1.385 . S
C324 H310 0.931 . S
C324 C323 1.385 . S
C324 C325 1.389 . S
C325 C324 1.389 . S
C325 C326 1.387 . S
C326 H311 0.930 . S
C326 C321 1.390 . S
C326 C325 1.387 . S
H327 C339 0.930 . S
H328 C341 0.930 . S
H329 C342 0.930 . S
H330 C346 0.959 . S
H331 C346 0.959 . S
H332 C346 0.961 . S
H333 C347 0.960 . S
H334 C347 0.961 . S
H335 C347 0.959 . S
H336 C350 0.929 . S
H337 C351 0.931 . S
H338 C353 0.930 . S
C339 H327 0.930 . S
C339 C340 1.399 . S
C339 C344 1.399 . S
C340 C339 1.399 . S
C340 C341 1.376 . S
C341 H328 0.930 . S
C341 C340 1.376 . S
C341 C342 1.388 . S
C342 H329 0.930 . S
C342 C341 1.388 . S
C342 C343 1.390 . S
C343 C342 1.390 . S
C343 C344 1.394 . S
C343 C349 1.465 . S
C344 C339 1.399 . S
C344 C343 1.394 . S
C344 C345 1.516 . S
C345 C344 1.516 . S
C345 C346 1.502 . S
C345 C347 1.561 . S
C345 C348 1.526 . S
C346 H330 0.959 . S
C346 H331 0.959 . S
C346 H332 0.961 . S
C346 C345 1.502 . S
C347 H333 0.960 . S
C347 H334 0.961 . S
C347 H335 0.959 . S
C347 C345 1.561 . S
C348 C345 1.526 . S
C348 C349 1.396 . S
C348 C353 1.390 . S
C349 C343 1.465 . S
C349 C348 1.396 . S
C349 C350 1.399 . S
C350 H336 0.929 . S
C350 C349 1.399 . S
C350 C351 1.385 . S
C351 H337 0.931 . S
C351 C350 1.385 . S
C351 C352 1.389 . S
C352 C351 1.389 . S
C352 C353 1.387 . S
C353 H338 0.930 . S
C353 C348 1.390 . S
C353 C352 1.387 . S
H354 C366 0.930 . S
H355 C368 0.930 . S
H356 C369 0.930 . S
H357 C373 0.959 . S
H358 C373 0.959 . S
H359 C373 0.961 . S
H360 C374 0.960 . S
H361 C374 0.961 . S
H362 C374 0.959 . S
H363 C377 0.929 . S
H364 C378 0.931 . S
H365 C380 0.930 . S
C366 H354 0.930 . S
C366 C367 1.399 . S
C366 C371 1.399 . S
C367 C366 1.399 . S
C367 C368 1.376 . S
C368 H355 0.930 . S
C368 C367 1.376 . S
C368 C369 1.388 . S
C369 H356 0.930 . S
C369 C368 1.388 . S
C369 C370 1.390 . S
C370 C369 1.390 . S
C370 C371 1.394 . S
C370 C376 1.465 . S
C371 C366 1.399 . S
C371 C370 1.394 . S
C371 C372 1.516 . S
C372 C371 1.516 . S
C372 C373 1.502 . S
C372 C374 1.561 . S
C372 C375 1.526 . S
C373 H357 0.959 . S
C373 H358 0.959 . S
C373 H359 0.961 . S
C373 C372 1.502 . S
C374 H360 0.960 . S
C374 H361 0.961 . S
C374 H362 0.959 . S
C374 C372 1.561 . S
C375 C372 1.526 . S
C375 C376 1.396 . S
C375 C380 1.390 . S
C376 C370 1.465 . S
C376 C375 1.396 . S
C376 C377 1.399 . S
C377 H363 0.929 . S
C377 C376 1.399 . S
C377 C378 1.385 . S
C378 H364 0.931 . S
C378 C377 1.385 . S
C378 C379 1.389 . S
C379 C378 1.389 . S
C379 C380 1.387 . S
C380 H365 0.930 . S
C380 C375 1.390 . S
C380 C379 1.387 . S
H381 C393 0.930 . S
H382 C395 0.930 . S
H383 C396 0.930 . S
H384 C400 0.959 . S
H385 C400 0.959 . S
H386 C400 0.961 . S
H387 C401 0.960 . S
H388 C401 0.961 . S
H389 C401 0.959 . S
H390 C404 0.929 . S
H391 C405 0.931 . S
H392 C407 0.930 . S
C393 H381 0.930 . S
C393 C394 1.399 . S
C393 C398 1.399 . S
C394 C393 1.399 . S
C394 C395 1.376 . S
C395 H382 0.930 . S
C395 C394 1.376 . S
C395 C396 1.388 . S
C396 H383 0.930 . S
C396 C395 1.388 . S
C396 C397 1.390 . S
C397 C396 1.390 . S
C397 C398 1.394 . S
C397 C403 1.465 . S
C398 C393 1.399 . S
C398 C397 1.394 . S
C398 C399 1.516 . S
C399 C398 1.516 . S
C399 C400 1.502 . S
C399 C401 1.561 . S
C399 C402 1.526 . S
C400 H384 0.959 . S
C400 H385 0.959 . S
C400 H386 0.961 . S
C400 C399 1.502 . S
C401 H387 0.960 . S
C401 H388 0.961 . S
C401 H389 0.959 . S
C401 C399 1.561 . S
C402 C399 1.526 . S
C402 C403 1.396 . S
C402 C407 1.390 . S
C403 C397 1.465 . S
C403 C402 1.396 . S
C403 C404 1.399 . S
C404 H390 0.929 . S
C404 C403 1.399 . S
C404 C405 1.385 . S
C405 H391 0.931 . S
C405 C404 1.385 . S
C405 C406 1.389 . S
C406 C405 1.389 . S
C406 C407 1.387 . S
C407 H392 0.930 . S
C407 C402 1.390 . S
C407 C406 1.387 . S
H408 C420 0.930 . S
H409 C422 0.930 . S
H410 C423 0.930 . S
H411 C427 0.959 . S
H412 C427 0.959 . S
H413 C427 0.961 . S
H414 C428 0.960 . S
H415 C428 0.961 . S
H416 C428 0.959 . S
H417 C431 0.929 . S
H418 C432 0.931 . S
H419 C434 0.930 . S
C420 H408 0.930 . S
C420 C421 1.399 . S
C420 C425 1.399 . S
C421 C420 1.399 . S
C421 C422 1.376 . S
C422 H409 0.930 . S
C422 C421 1.376 . S
C422 C423 1.388 . S
C423 H410 0.930 . S
C423 C422 1.388 . S
C423 C424 1.390 . S
C424 C423 1.390 . S
C424 C425 1.394 . S
C424 C430 1.465 . S
C425 C420 1.399 . S
C425 C424 1.394 . S
C425 C426 1.516 . S
C426 C425 1.516 . S
C426 C427 1.502 . S
C426 C428 1.561 . S
C426 C429 1.526 . S
C427 H411 0.959 . S
C427 H412 0.959 . S
C427 H413 0.961 . S
C427 C426 1.502 . S
C428 H414 0.960 . S
C428 H415 0.961 . S
C428 H416 0.959 . S
C428 C426 1.561 . S
C429 C426 1.526 . S
C429 C430 1.396 . S
C429 C434 1.390 . S
C430 C424 1.465 . S
C430 C429 1.396 . S
C430 C431 1.399 . S
C431 H417 0.929 . S
C431 C430 1.399 . S
C431 C432 1.385 1_565 S
C432 H418 0.931 . S
C432 C431 1.385 1_545 S
C432 C433 1.389 . S
C433 C432 1.389 . S
C433 C434 1.387 1_545 S
C434 H419 0.930 . S
C434 C429 1.390 . S
C434 C433 1.387 1_565 S
H435 C447 0.930 . S
H436 C449 0.930 . S
H437 C450 0.930 . S
H438 C454 0.959 . S
H439 C454 0.959 . S
H440 C454 0.961 . S
H441 C455 0.960 . S
H442 C455 0.961 . S
H443 C455 0.959 . S
H444 C458 0.929 . S
H445 C459 0.931 . S
H446 C461 0.930 . S
C447 H435 0.930 . S
C447 C448 1.399 . S
C447 C452 1.399 . S
C448 C447 1.399 . S
C448 C449 1.376 . S
C449 H436 0.930 . S
C449 C448 1.376 . S
C449 C450 1.388 . S
C450 H437 0.930 . S
C450 C449 1.388 . S
C450 C451 1.390 . S
C451 C450 1.390 . S
C451 C452 1.394 . S
C451 C457 1.465 . S
C452 C447 1.399 . S
C452 C451 1.394 . S
C452 C453 1.516 . S
C453 C452 1.516 . S
C453 C454 1.502 . S
C453 C455 1.561 . S
C453 C456 1.526 . S
C454 H438 0.959 . S
C454 H439 0.959 . S
C454 H440 0.961 . S
C454 C453 1.502 . S
C455 H441 0.960 . S
C455 H442 0.961 . S
C455 H443 0.959 . S
C455 C453 1.561 . S
C456 C453 1.526 . S
C456 C457 1.396 . S
C456 C461 1.390 . S
C457 C451 1.465 . S
C457 C456 1.396 . S
C457 C458 1.399 . S
C458 H444 0.929 . S
C458 C457 1.399 . S
C458 C459 1.385 . S
C459 H445 0.931 . S
C459 C458 1.385 . S
C459 C460 1.389 . S
C460 C459 1.389 . S
C460 C461 1.387 . S
C461 H446 0.930 . S
C461 C456 1.390 . S
C461 C460 1.387 . S
H462 C474 0.930 . S
H463 C476 0.930 . S
H464 C477 0.930 . S
H465 C481 0.959 . S
H466 C481 0.959 . S
H467 C481 0.961 . S
H468 C482 0.960 . S
H469 C482 0.961 . S
H470 C482 0.959 . S
H471 C485 0.929 . S
H472 C486 0.931 . S
H473 C488 0.930 . S
C474 H462 0.930 . S
C474 C475 1.399 . S
C474 C479 1.399 . S
C475 C474 1.399 . S
C475 C476 1.376 . S
C476 H463 0.930 . S
C476 C475 1.376 . S
C476 C477 1.388 . S
C477 H464 0.930 . S
C477 C476 1.388 . S
C477 C478 1.390 . S
C478 C477 1.390 . S
C478 C479 1.394 . S
C478 C484 1.465 . S
C479 C474 1.399 . S
C479 C478 1.394 . S
C479 C480 1.516 . S
C480 C479 1.516 . S
C480 C481 1.502 . S
C480 C482 1.561 . S
C480 C483 1.526 . S
C481 H465 0.959 . S
C481 H466 0.959 . S
C481 H467 0.961 . S
C481 C480 1.502 . S
C482 H468 0.960 . S
C482 H469 0.961 . S
C482 H470 0.959 . S
C482 C480 1.561 . S
C483 C480 1.526 . S
C483 C484 1.396 . S
C483 C488 1.390 . S
C484 C478 1.465 . S
C484 C483 1.396 . S
C484 C485 1.399 . S
C485 H471 0.929 . S
C485 C484 1.399 . S
C485 C486 1.385 . S
C486 H472 0.931 . S
C486 C485 1.385 . S
C486 C487 1.389 . S
C487 C486 1.389 . S
C487 C488 1.387 . S
C488 H473 0.930 . S
C488 C483 1.390 . S
C488 C487 1.387 . S
H489 C501 0.930 . S
H490 C503 0.930 . S
H491 C504 0.930 . S
H492 C508 0.959 . S
H493 C508 0.959 . S
H494 C508 0.961 . S
H495 C509 0.960 . S
H496 C509 0.961 . S
H497 C509 0.959 . S
H498 C512 0.929 . S
H499 C513 0.931 . S
H500 C515 0.930 . S
C501 H489 0.930 . S
C501 C502 1.399 . S
C501 C506 1.399 . S
C502 C501 1.399 . S
C502 C503 1.376 . S
C503 H490 0.930 . S
C503 C502 1.376 . S
C503 C504 1.388 . S
C504 H491 0.930 . S
C504 C503 1.388 . S
C504 C505 1.390 . S
C505 C504 1.390 . S
C505 C506 1.394 . S
C505 C511 1.465 . S
C506 C501 1.399 . S
C506 C505 1.394 . S
C506 C507 1.516 . S
C507 C506 1.516 . S
C507 C508 1.502 . S
C507 C509 1.561 . S
C507 C510 1.526 . S
C508 H492 0.959 . S
C508 H493 0.959 . S
C508 H494 0.961 . S
C508 C507 1.502 . S
C509 H495 0.960 . S
C509 H496 0.961 . S
C509 H497 0.959 . S
C509 C507 1.561 . S
C510 C507 1.526 . S
C510 C511 1.396 . S
C510 C515 1.390 . S
C511 C505 1.465 . S
C511 C510 1.396 . S
C511 C512 1.399 . S
C512 H498 0.929 . S
C512 C511 1.399 . S
C512 C513 1.385 . S
C513 H499 0.931 . S
C513 C512 1.385 . S
C513 C514 1.389 . S
C514 C513 1.389 . S
C514 C515 1.387 . S
C515 H500 0.930 . S
C515 C510 1.390 . S
C515 C514 1.387 . S
H516 C528 0.930 . S
H517 C530 0.930 . S
H518 C531 0.930 . S
H519 C535 0.959 . S
H520 C535 0.959 1_456 S
H521 C535 0.961 1_455 S
H522 C536 0.960 . S
H523 C536 0.961 1_556 S
H524 C536 0.959 . S
H525 C539 0.929 1_554 S
H526 C540 0.931 . S
H527 C542 0.930 . S
C528 H516 0.930 . S
C528 C529 1.399 . S
C528 C533 1.399 . S
C529 C528 1.399 . S
C529 C530 1.376 . S
C530 H517 0.930 . S
C530 C529 1.376 . S
C530 C531 1.388 . S
C531 H518 0.930 . S
C531 C530 1.388 . S
C531 C532 1.390 . S
C532 C531 1.390 . S
C532 C533 1.394 . S
C532 C538 1.465 . S
C533 C528 1.399 . S
C533 C532 1.394 . S
C533 C534 1.516 . S
C534 C533 1.516 . S
C534 C535 1.502 1_455 S
C534 C536 1.561 . S
C534 C537 1.526 1_554 S
C535 H519 0.959 . S
C535 H520 0.959 1_654 S
C535 H521 0.961 1_655 S
C535 C534 1.502 1_655 S
C536 H522 0.960 . S
C536 H523 0.961 1_554 S
C536 H524 0.959 . S
C536 C534 1.561 . S
C537 C534 1.526 1_556 S
C537 C538 1.396 1_556 S
C537 C542 1.390 . S
C538 C532 1.465 . S
C538 C537 1.396 1_554 S
C538 C539 1.399 1_554 S
C539 H525 0.929 1_556 S
C539 C538 1.399 1_556 S
C539 C540 1.385 1_455 S
C540 H526 0.931 . S
C540 C539 1.385 1_655 S
C540 C541 1.389 1_655 S
C541 C540 1.389 1_455 S
C541 C542 1.387 . S
C542 H527 0.930 . S
C542 C537 1.390 . S
C542 C541 1.387 . S
H543 C555 0.930 . S
H544 C557 0.930 1_565 S
H545 C558 0.930 1_565 S
H546 C562 0.959 . S
H547 C562 0.959 . S
H548 C562 0.961 . S
H549 C563 0.960 . S
H550 C563 0.961 . S
H551 C563 0.959 . S
H552 C566 0.929 1_565 S
H553 C567 0.925 1_565 S
H554 C569 0.930 . S
C555 H543 0.930 . S
C555 C556 1.399 . S
C555 C560 1.399 . S
C556 C555 1.399 . S
C556 C557 1.376 . S
C557 H544 0.930 1_545 S
C557 C556 1.376 . S
C557 C558 1.388 . S
C558 H545 0.930 1_545 S
C558 C557 1.388 . S
C558 C559 1.390 . S
C559 C558 1.390 . S
C559 C560 1.394 . S
C559 C565 1.465 . S
C560 C555 1.399 . S
C560 C559 1.394 . S
C560 C561 1.516 . S
C561 C560 1.516 . S
C561 C562 1.502 . S
C561 C563 1.561 . S
C561 C564 1.526 . S
C562 H546 0.959 . S
C562 H547 0.959 . S
C562 H548 0.961 . S
C562 C561 1.502 . S
C563 H549 0.960 . S
C563 H550 0.961 . S
C563 H551 0.959 . S
C563 C561 1.561 . S
C564 C561 1.526 . S
C564 C565 1.396 . S
C564 C569 1.390 . S
C565 C559 1.465 . S
C565 C564 1.396 . S
C565 C566 1.399 . S
C566 H552 0.929 1_545 S
C566 C565 1.399 . S
C566 C567 1.385 . S
C567 H553 0.925 1_545 S
C567 C566 1.385 . S
C567 C568 1.389 . S
C568 C567 1.389 . S
C568 C569 1.387 . S
C569 H554 0.930 . S
C569 C564 1.390 . S
C569 C568 1.387 . S
H570 C582 0.930 . S
H571 C584 0.930 . S
H572 C585 0.930 . S
H573 C589 0.959 . S
H574 C589 0.959 . S
H575 C589 0.961 . S
H576 C590 0.960 . S
H577 C590 0.961 . S
H578 C590 0.959 . S
H579 C593 0.929 . S
H580 C594 0.931 . S
H581 C596 0.930 . S
C582 H570 0.930 . S
C582 C583 1.399 . S
C582 C587 1.399 . S
C583 C582 1.399 . S
C583 C584 1.376 . S
C584 H571 0.930 . S
C584 C583 1.376 . S
C584 C585 1.388 . S
C585 H572 0.930 . S
C585 C584 1.388 . S
C585 C586 1.390 . S
C586 C585 1.390 . S
C586 C587 1.394 . S
C586 C592 1.465 . S
C587 C582 1.399 . S
C587 C586 1.394 . S
C587 C588 1.516 . S
C588 C587 1.516 . S
C588 C589 1.502 . S
C588 C590 1.561 . S
C588 C591 1.526 . S
C589 H573 0.959 . S
C589 H574 0.959 . S
C589 H575 0.961 . S
C589 C588 1.502 . S
C590 H576 0.960 . S
C590 H577 0.961 . S
C590 H578 0.959 . S
C590 C588 1.561 . S
C591 C588 1.526 . S
C591 C592 1.396 . S
C591 C596 1.390 . S
C592 C586 1.465 . S
C592 C591 1.396 . S
C592 C593 1.399 . S
C593 H579 0.929 . S
C593 C592 1.399 . S
C593 C594 1.385 . S
C594 H580 0.931 . S
C594 C593 1.385 . S
C594 C595 1.389 . S
C595 C594 1.389 . S
C595 C596 1.387 . S
C596 H581 0.930 . S
C596 C591 1.390 . S
C596 C595 1.387 . S
H597 C609 0.930 . S
H598 C611 0.930 . S
H599 C612 0.930 . S
H600 C616 0.959 . S
H601 C616 0.959 . S
H602 C616 0.961 . S
H603 C617 0.960 . S
H604 C617 0.961 . S
H605 C617 0.959 . S
H606 C620 0.929 . S
H607 C621 0.931 . S
H608 C623 0.930 . S
C609 H597 0.930 . S
C609 C610 1.399 . S
C609 C614 1.399 . S
C610 C609 1.399 . S
C610 C611 1.376 1_545 S
C611 H598 0.930 . S
C611 C610 1.376 1_565 S
C611 C612 1.388 . S
C612 H599 0.930 . S
C612 C611 1.388 . S
C612 C613 1.390 1_565 S
C613 C612 1.390 1_545 S
C613 C614 1.394 . S
C613 C619 1.465 . S
C614 C609 1.399 . S
C614 C613 1.394 . S
C614 C615 1.516 . S
C615 C614 1.516 . S
C615 C616 1.502 . S
C615 C617 1.561 . S
C615 C618 1.526 . S
C616 H600 0.959 . S
C616 H601 0.959 . S
C616 H602 0.961 . S
C616 C615 1.502 . S
C617 H603 0.960 . S
C617 H604 0.961 . S
C617 H605 0.959 . S
C617 C615 1.561 . S
C618 C615 1.526 . S
C618 C619 1.396 . S
C618 C623 1.390 . S
C619 C613 1.465 . S
C619 C618 1.396 . S
C619 C620 1.399 1_545 S
C620 H606 0.929 . S
C620 C619 1.399 1_565 S
C620 C621 1.385 . S
C621 H607 0.931 . S
C621 C620 1.385 . S
C621 C622 1.389 1_565 S
C622 C621 1.389 1_545 S
C622 C623 1.387 . S
C623 H608 0.930 . S
C623 C618 1.390 . S
C623 C622 1.387 . S
H624 C636 0.930 . S
H625 C638 0.930 . S
H626 C639 0.930 . S
H627 C643 0.959 . S
H628 C643 0.959 . S
H629 C643 0.961 . S
H630 C644 0.960 . S
H631 C644 0.961 . S
H632 C644 0.959 . S
H633 C647 0.929 . S
H634 C648 0.931 . S
H635 C650 0.930 . S
C636 H624 0.930 . S
C636 C637 1.399 . S
C636 C641 1.399 . S
C637 C636 1.399 . S
C637 C638 1.376 . S
C638 H625 0.930 . S
C638 C637 1.376 . S
C638 C639 1.388 . S
C639 H626 0.930 . S
C639 C638 1.388 . S
C639 C640 1.390 . S
C640 C639 1.390 . S
C640 C641 1.394 . S
C640 C646 1.465 1_556 S
C641 C636 1.399 . S
C641 C640 1.394 . S
C641 C642 1.516 . S
C642 C641 1.516 . S
C642 C643 1.502 . S
C642 C644 1.561 . S
C642 C645 1.526 1_556 S
C643 H627 0.959 . S
C643 H628 0.959 . S
C643 H629 0.961 . S
C643 C642 1.502 . S
C644 H630 0.960 . S
C644 H631 0.961 . S
C644 H632 0.959 . S
C644 C642 1.561 . S
C645 C642 1.526 1_554 S
C645 C646 1.396 . S
C645 C650 1.390 . S
C646 C640 1.465 1_554 S
C646 C645 1.396 . S
C646 C647 1.399 . S
C647 H633 0.929 . S
C647 C646 1.399 . S
C647 C648 1.385 . S
C648 H634 0.931 . S
C648 C647 1.385 . S
C648 C649 1.389 . S
C649 C648 1.389 . S
C649 C650 1.387 . S
C650 H635 0.930 . S
C650 C645 1.390 . S
C650 C649 1.387 . S
H651 C663 0.930 1_655 S
H652 C665 0.930 . S
H653 C666 0.930 . S
H654 C670 0.959 . S
H655 C670 0.959 . S
H656 C670 0.961 . S
H657 C671 0.960 1_655 S
H658 C671 0.961 1_655 S
H659 C671 0.959 . S
H660 C674 0.929 . S
H661 C675 0.931 . S
H662 C677 0.930 1_655 S
C663 H651 0.930 1_455 S
C663 C664 1.399 . S
C663 C668 1.399 . S
C664 C663 1.399 . S
C664 C665 1.376 . S
C665 H652 0.930 . S
C665 C664 1.376 . S
C665 C666 1.388 . S
C666 H653 0.930 . S
C666 C665 1.388 . S
C666 C667 1.390 . S
C667 C666 1.390 . S
C667 C668 1.394 . S
C667 C673 1.465 . S
C668 C663 1.399 . S
C668 C667 1.394 . S
C668 C669 1.516 1_455 S
C669 C668 1.516 1_655 S
C669 C670 1.502 . S
C669 C671 1.561 1_655 S
C669 C672 1.526 1_655 S
C670 H654 0.959 . S
C670 H655 0.959 . S
C670 H656 0.961 . S
C670 C669 1.502 . S
C671 H657 0.960 1_455 S
C671 H658 0.961 1_455 S
C671 H659 0.959 . S
C671 C669 1.561 1_455 S
C672 C669 1.526 1_455 S
C672 C673 1.396 . S
C672 C677 1.390 . S
C673 C667 1.465 . S
C673 C672 1.396 . S
C673 C674 1.399 . S
C674 H660 0.929 . S
C674 C673 1.399 . S
C674 C675 1.385 . S
C675 H661 0.931 . S
C675 C674 1.385 . S
C675 C676 1.389 . S
C676 C675 1.389 . S
C676 C677 1.387 . S
C677 H662 0.930 1_455 S
C677 C672 1.390 . S
C677 C676 1.387 . S
C205 C19 3.233 . S
C217 C186 3.237 . S
C232 C49 3.132 . S
C244 C160 3.057 . S
C259 C99 3.025 . S
C271 C172 2.958 . S
C286 C9 2.834 . S
C298 C184 2.753 . S
C325 C162 2.869 . S
C313 C59 2.901 . S
C352 C174 2.927 . S
C340 C89 2.978 . S
C367 C55 0.636 . S
C379 C136 0.604 . S
C394 C85 0.645 . S
C406 C150 0.522 . S
C421 C15 0.304 . S
C433 C126 0.361 . S
C460 C138 0.325 . S
C448 C45 0.473 . S
C487 C148 0.420 . S
C475 C95 0.123 . S
C502 C5 0.349 . S
C514 C124 0.315 . S
C541 C153 1.239 1_455 S
C529 C18 1.241 . S
C556 C58 1.121 . S
C568 C129 1.195 . S
C583 C98 1.220 . S
C595 C141 1.229 . S
C622 C177 1.739 . S
C610 C48 1.670 . S
C649 C189 1.821 . S
C637 C88 1.761 . S
C664 C8 1.698 . S
C676 C165 1.779 . S
