# Generated by pormake.
# Topology zzz, (3,6)-cn, num edge types: 1
# Building blocks:
#     Node 0, Type 0, BuildingBlock: MIDCAF_clean_linker_0, # of connection points: 3
#     Node 1, Type 0, BuildingBlock: MIDCAF_clean_linker_0, # of connection points: 3
#     Node 2, Type 0, BuildingBlock: MIDCAF_clean_linker_0, # of connection points: 3
#     Node 3, Type 0, BuildingBlock: MIDCAF_clean_linker_0, # of connection points: 3
#     Node 4, Type 0, BuildingBlock: MIDCAF_clean_linker_0, # of connection points: 3
#     Node 5, Type 0, BuildingBlock: MIDCAF_clean_linker_0, # of connection points: 3
#     Node 6, Type 0, BuildingBlock: MIDCAF_clean_linker_0, # of connection points: 3
#     Node 7, Type 0, BuildingBlock: MIDCAF_clean_linker_0, # of connection points: 3
#     Node 8, Type 1, BuildingBlock: BETDAH_clean_sbu_0, # of connection points: 6
#     Node 9, Type 1, BuildingBlock: BETDAH_clean_sbu_0, # of connection points: 6
#     Node 10, Type 1, BuildingBlock: BETDAH_clean_sbu_0, # of connection points: 6
#     Node 11, Type 1, BuildingBlock: BETDAH_clean_sbu_0, # of connection points: 6
#     Edge 12, Type (0, 1), BuildingBlock: XUDNAN_clean_linker_2, # of connection points: 2
#     Edge 13, Type (0, 1), BuildingBlock: XUDNAN_clean_linker_2, # of connection points: 2
#     Edge 14, Type (0, 1), BuildingBlock: XUDNAN_clean_linker_2, # of connection points: 2
#     Edge 15, Type (0, 1), BuildingBlock: XUDNAN_clean_linker_2, # of connection points: 2
#     Edge 16, Type (0, 1), BuildingBlock: XUDNAN_clean_linker_2, # of connection points: 2
#     Edge 17, Type (0, 1), BuildingBlock: XUDNAN_clean_linker_2, # of connection points: 2
#     Edge 18, Type (0, 1), BuildingBlock: XUDNAN_clean_linker_2, # of connection points: 2
#     Edge 19, Type (0, 1), BuildingBlock: XUDNAN_clean_linker_2, # of connection points: 2
#     Edge 20, Type (0, 1), BuildingBlock: XUDNAN_clean_linker_2, # of connection points: 2
#     Edge 21, Type (0, 1), BuildingBlock: XUDNAN_clean_linker_2, # of connection points: 2
#     Edge 22, Type (0, 1), BuildingBlock: XUDNAN_clean_linker_2, # of connection points: 2
#     Edge 23, Type (0, 1), BuildingBlock: XUDNAN_clean_linker_2, # of connection points: 2
#     Edge 24, Type (0, 1), BuildingBlock: XUDNAN_clean_linker_2, # of connection points: 2
#     Edge 25, Type (0, 1), BuildingBlock: XUDNAN_clean_linker_2, # of connection points: 2
#     Edge 26, Type (0, 1), BuildingBlock: XUDNAN_clean_linker_2, # of connection points: 2
#     Edge 27, Type (0, 1), BuildingBlock: XUDNAN_clean_linker_2, # of connection points: 2
#     Edge 28, Type (0, 1), BuildingBlock: XUDNAN_clean_linker_2, # of connection points: 2
#     Edge 29, Type (0, 1), BuildingBlock: XUDNAN_clean_linker_2, # of connection points: 2
#     Edge 30, Type (0, 1), BuildingBlock: XUDNAN_clean_linker_2, # of connection points: 2
#     Edge 31, Type (0, 1), BuildingBlock: XUDNAN_clean_linker_2, # of connection points: 2
#     Edge 32, Type (0, 1), BuildingBlock: XUDNAN_clean_linker_2, # of connection points: 2
#     Edge 33, Type (0, 1), BuildingBlock: XUDNAN_clean_linker_2, # of connection points: 2
#     Edge 34, Type (0, 1), BuildingBlock: XUDNAN_clean_linker_2, # of connection points: 2
#     Edge 35, Type (0, 1), BuildingBlock: XUDNAN_clean_linker_2, # of connection points: 2
# Relax obj value: 0.447
# Max RMSD: 0.274
# Mean RMSD: 0.256
data_MOF--net-zzz--node1-BETDAH_clean_sbu_0--node2-MIDCAF_clean_linker_0--edge1-XUDNAN_clean_linker_2
_symmetry_space_group_name_H-M    P1
_symmetry_Int_Tables_number       1
_symmetry_cell_setting            triclinic
loop_
_symmetry_equiv_pos_as_xyz
'x, y, z'
_cell_length_a     58.795393
_cell_length_b     58.971333
_cell_length_c     18.045994
_cell_angle_alpha  90.133557
_cell_angle_beta   89.899184
_cell_angle_gamma 90.002369
loop_
_atom_site_label
_atom_site_type_symbol
_atom_site_fract_x
_atom_site_fract_y
_atom_site_fract_z
_atom_type_partial_charge
C0 C 0.80369 0.51474 0.46978 0.0
C1 C 0.80871 0.5004 0.52999 0.0
C2 C 0.79513 0.48103 0.54074 0.0
C3 C 0.77836 0.47513 0.48939 0.0
H4 H 0.70123 0.50165 0.31695 0.0
H5 H 0.66692 0.51332 0.24941 0.0
H6 H 0.69398 0.48338 0.04938 0.0
H7 H 0.72786 0.47172 0.11607 0.0
H8 H 0.75611 0.42193 0.15102 0.0
H9 H 0.78162 0.39591 0.08604 0.0
H10 H 0.83432 0.41089 0.24622 0.0
H11 H 0.80872 0.43509 0.3125 0.0
H12 H 0.78441 0.51924 0.36966 0.0
H13 H 0.81365 0.52991 0.46024 0.0
H14 H 0.79859 0.46943 0.58575 0.0
H15 H 0.7696 0.45908 0.49575 0.0
N16 N 0.7453 0.48682 0.326 0.0
N17 N 0.74837 0.45816 0.23506 0.0
N18 N 0.77416 0.45938 0.33307 0.0
C19 C 0.73737 0.47669 0.26275 0.0
C20 C 0.76677 0.4494 0.27007 0.0
C21 C 0.76374 0.47791 0.36143 0.0
C22 C 0.71728 0.48566 0.22212 0.0
C23 C 0.69992 0.49781 0.25839 0.0
C24 C 0.68023 0.50436 0.21984 0.0
C25 C 0.67773 0.4993 0.14395 0.0
C26 C 0.69542 0.48778 0.1075 0.0
C27 C 0.71482 0.48094 0.14606 0.0
C28 C 0.78045 0.43095 0.23624 0.0
C29 C 0.773 0.41913 0.17307 0.0
C30 C 0.78771 0.40428 0.13562 0.0
C31 C 0.81032 0.40133 0.15971 0.0
C32 C 0.81707 0.4121 0.22582 0.0
C33 C 0.80231 0.42644 0.26381 0.0
C34 C 0.77446 0.48858 0.42661 0.0
C35 C 0.78666 0.5089 0.41864 0.0
C36 C 1.01108 0.82748 0.37623 0.0
C37 C 0.01828 0.82759 0.45055 0.0
C38 C 0.02706 0.80714 0.47984 0.0
C39 C 0.02931 0.78756 0.43523 0.0
H40 H 0.99192 0.70913 0.32275 0.0
H41 H 0.98047 0.67076 0.28684 0.0
H42 H 0.04756 0.65932 0.1951 0.0
H43 H 0.059 0.69659 0.23562 0.0
H44 H 0.02643 0.737 0.06179 0.0
H45 H 0.02543 0.75265 0.93642 0.0
H46 H 0.06325 0.81101 0.01189 0.0
H47 H 0.06351 0.79589 0.13744 0.0
H48 H 1.00843 0.80913 0.27431 0.0
H49 H 1.00354 0.84242 0.35168 0.0
H50 H 0.03297 0.8064 0.53654 0.0
H51 H 0.03689 0.77244 0.45854 0.0
N52 N 0.02572 0.74671 0.32474 0.0
N53 N 0.03751 0.73697 0.20392 0.0
N54 N 0.03572 0.77502 0.23843 0.0
C55 C 0.03055 0.73051 0.27224 0.0
C56 C 0.04021 0.759 0.18659 0.0
C57 C 0.02861 0.76922 0.3076 0.0
C58 C 0.02633 0.70591 0.28183 0.0
C59 C 1.00449 0.69785 0.29879 0.0
C60 C 0.99781 0.67597 0.27622 0.0
C61 C 1.01273 0.66189 0.23505 0.0
C62 C 0.03536 0.66922 0.22628 0.0
C63 C 0.04205 0.6908 0.24983 0.0
C64 C 0.0447 0.76553 0.10931 0.0
C65 C 0.03523 0.7528 0.05095 0.0
C66 C 0.03477 0.76159 0.97915 0.0
C67 C 0.04438 0.78288 0.96463 0.0
C68 C 0.05604 0.79436 0.02145 0.0
C69 C 0.05594 0.78589 0.09348 0.0
C70 C 0.02309 0.78806 0.36009 0.0
C71 C 0.01363 0.80817 0.3318 0.0
C72 C 0.71366 0.98209 0.38553 0.0
C73 C 0.71789 0.98769 0.45989 0.0
C74 C 0.74074 0.99072 0.48211 0.0
C75 C 0.75879 0.98763 0.43136 0.0
H76 H 0.84893 0.97268 0.31371 0.0
H77 H 0.88644 0.9824 0.26385 0.0
H78 H 0.85438 0.02675 0.10451 0.0
H79 H 0.81753 0.01781 0.1571 0.0
H80 H 0.80135 0.96083 0.04716 0.0
H81 H 0.78118 0.95695 0.93012 0.0
H82 H 0.72141 0.93452 0.04978 0.0
H83 H 0.74176 0.93723 0.16435 0.0
H84 H 0.72712 0.97448 0.27907 0.0
H85 H 0.69644 0.98043 0.36503 0.0
H86 H 0.74472 0.99508 0.53893 0.0
H87 H 0.77615 0.98969 0.45015 0.0
N88 N 0.79364 0.98634 0.30437 0.0
N89 N 0.80208 0.97014 0.18776 0.0
N90 N 0.76687 0.96357 0.24252 0.0
C91 C 0.80852 0.98283 0.2469 0.0
C92 C 0.78139 0.96024 0.18533 0.0
C93 C 0.77256 0.97646 0.30206 0.0
C94 C 0.83042 0.99481 0.24008 0.0
C95 C 0.85018 0.98546 0.27086 0.0
C96 C 0.87162 0.99069 0.24093 0.0
C97 C 0.87364 1.00502 0.17863 0.0
C98 C 0.85386 0.01585 0.15265 0.0
C99 C 0.83258 1.01082 0.18308 0.0
C100 C 0.77277 0.95035 0.11537 0.0
C101 C 0.78419 0.95417 0.04794 0.0
C102 C 0.77255 0.95208 0.98068 0.0
C103 C 0.7493 0.94641 0.98001 0.0
C104 C 0.73919 0.93916 0.04682 0.0
C105 C 0.75085 0.94099 0.11357 0.0
C106 C 0.75432 0.98127 0.35763 0.0
C107 C 0.73147 0.97883 0.33566 0.0
C108 C 0.4204 0.72246 0.09827 0.0
C109 C 0.41676 0.73274 0.02896 0.0
C110 C 0.42177 0.75597 0.0213 0.0
C111 C 0.43238 0.76789 0.07886 0.0
H112 H 0.45506 0.83431 0.21341 0.0
H113 H 0.46755 0.87075 0.16447 0.0
H114 H 0.53666 0.84619 0.15488 0.0
H115 H 0.52405 0.80955 0.20597 0.0
H116 H 0.45794 0.72772 0.3662 0.0
H117 H 0.47401 0.69697 0.43734 0.0
H118 H 0.54002 0.72909 0.42769 0.0
H119 H 0.52379 0.75992 0.35362 0.0
H120 H 0.43443 0.72538 0.20655 0.0
H121 H 0.41707 0.70461 0.10684 0.0
H122 H 0.41872 0.7646 0.96938 0.0
H123 H 0.43741 0.78531 0.06932 0.0
N124 N 0.46262 0.78823 0.18765 0.0
N125 N 0.48911 0.78294 0.28409 0.0
N126 N 0.46293 0.75432 0.2538 0.0
C127 C 0.4799 0.79631 0.23011 0.0
C128 C 0.48019 0.76192 0.29697 0.0
C129 C 0.45413 0.76716 0.19882 0.0
C130 C 0.48863 0.81925 0.21399 0.0
C131 C 0.47302 0.83691 0.20275 0.0
C132 C 0.48018 0.85776 0.17478 0.0
C133 C 0.50308 0.86132 0.1558 0.0
C134 C 0.51891 0.84387 0.16903 0.0
C135 C 0.51176 0.82305 0.19882 0.0
C136 C 0.48965 0.74615 0.35314 0.0
C137 C 0.47584 0.72849 0.38008 0.0
C138 C 0.48505 0.71086 0.42176 0.0
C139 C 0.5084 0.71031 0.43795 0.0
C140 C 0.52201 0.72877 0.41526 0.0
C141 C 0.5127 0.74657 0.37343 0.0
C142 C 0.43803 0.75684 0.14534 0.0
C143 C 0.43073 0.73439 0.15575 0.0
C144 C 0.2359 0.52564 0.95057 0.0
C145 C 0.21948 0.50817 0.948 0.0
C146 C 0.22424 0.48785 0.98575 0.0
C147 C 0.24366 0.48583 0.02999 0.0
H148 H 0.34222 0.4854 0.0869 0.0
H149 H 0.38233 0.48224 0.12289 0.0
H150 H 0.37284 0.53644 0.28165 0.0
H151 H 0.33342 0.5398 0.24429 0.0
H152 H 0.29292 0.52031 0.36619 0.0
H153 H 0.27107 0.52729 0.47925 0.0
H154 H 0.21133 0.49929 0.37375 0.0
H155 H 0.23303 0.49194 0.26256 0.0
H156 H 0.26688 0.53785 1.00003 0.0
H157 H 0.2329 0.54162 0.92287 0.0
H158 H 0.21245 0.47376 0.98377 0.0
H159 H 0.24584 0.47063 0.06287 0.0
N160 N 0.29733 0.50792 0.09754 0.0
N161 N 0.29896 0.509 0.22807 0.0
N162 N 0.26418 0.50318 0.16933 0.0
C163 C 0.3097 0.51002 0.16153 0.0
C164 C 0.27631 0.50544 0.23252 0.0
C165 C 0.27432 0.50449 0.10198 0.0
C166 C 0.33472 0.51281 0.16285 0.0
C167 C 0.34909 0.49727 0.12693 0.0
C168 C 0.37197 0.49526 0.14857 0.0
C169 C 0.38087 0.50879 0.20637 0.0
C170 C 0.36688 0.52578 0.23676 0.0
C171 C 0.34415 0.52771 0.21538 0.0
C172 C 0.26456 0.50598 0.30489 0.0
C173 C 0.27526 0.51511 0.36797 0.0
C174 C 0.26278 0.51915 0.43271 0.0
C175 C 0.23948 0.51395 0.43553 0.0
C176 C 0.22933 0.50322 0.37422 0.0
C177 C 0.24172 0.49927 0.30976 0.0
C178 C 0.25918 0.50383 0.03656 0.0
C179 C 0.25556 0.52346 0.99432 0.0
C180 C 0.97548 0.23361 0.94244 0.0
C181 C 0.9989 0.22923 0.94901 0.0
C182 C 1.01225 0.24513 0.98865 0.0
C183 C 1.00214 0.2636 0.02594 0.0
H184 H 1.00435 0.33538 0.143 0.0
H185 H 0.01795 0.36846 0.21449 0.0
H186 H 0.95432 0.3704 0.33341 0.0
H187 H 0.94079 0.33823 0.2639 0.0
H188 H 0.9096 0.29832 0.28039 0.0
H189 H 0.88844 0.2743 0.36584 0.0
H190 H 0.8993 0.21704 0.21945 0.0
H191 H 0.91883 0.24106 0.13338 0.0
H192 H 0.9472 0.25392 0.97571 0.0
H193 H 0.9644 0.22198 0.91335 0.0
H194 H 0.03045 0.24282 0.99359 0.0
H195 H 1.01263 0.27446 0.06024 0.0
N196 N 0.97495 0.30102 0.10746 0.0
N197 N 0.94352 0.30323 0.18842 0.0
N198 N 0.94662 0.27283 0.10686 0.0
C199 C 0.96312 0.31241 0.16176 0.0
C200 C 0.93516 0.28351 0.16165 0.0
C201 C 0.96629 0.28123 0.07889 0.0
C202 C 0.97154 0.33373 0.1978 0.0
C203 C 0.99321 0.34305 0.18381 0.0
C204 C 1.00099 0.36199 0.22462 0.0
C205 C 0.98731 0.37177 0.28045 0.0
C206 C 0.96543 0.36303 0.29187 0.0
C207 C 0.95769 0.34445 0.25137 0.0
C208 C 0.91671 0.27142 0.20139 0.0
C209 C 0.90673 0.28075 0.26544 0.0
C210 C 0.89471 0.26691 0.31477 0.0
C211 C 0.89279 0.24343 0.30154 0.0
C212 C 0.90026 0.23491 0.23267 0.0
C213 C 0.91186 0.24878 0.183 0.0
C214 C 0.97846 0.26666 0.02402 0.0
C215 C 0.96551 0.25203 0.97892 0.0
C216 C 0.30383 0.03426 0.93595 0.0
C217 C 0.31378 0.05092 0.89043 0.0
C218 C 0.30327 0.0723 0.88606 0.0
C219 C 0.28433 0.07742 0.93004 0.0
H220 H 0.18643 0.06901 0.067 0.0
H221 H 0.15115 0.06062 0.13486 0.0
H222 H 0.19047 0.02913 0.30844 0.0
H223 H 0.22539 0.03793 0.24136 0.0
H224 H 0.25418 0.08704 0.30063 0.0
H225 H 0.28457 0.09158 0.38828 0.0
H226 H 0.32477 0.12625 0.22244 0.0
H227 H 0.29457 0.12011 0.13244 0.0
H228 H 0.27815 0.02666 0.01725 0.0
H229 H 0.31144 0.01759 0.94018 0.0
H230 H 0.31057 0.08559 0.85219 0.0
H231 H 0.27772 0.09458 0.9298 0.0
N232 N 0.2405 0.05865 0.05869 0.0
N233 N 0.23931 0.08027 0.16855 0.0
N234 N 0.26973 0.08456 0.08679 0.0
C235 C 0.22955 0.06492 0.12245 0.0
C236 C 0.2593 0.09029 0.15105 0.0
C237 C 0.26062 0.0689 0.0404 0.0
C238 C 0.20853 0.05383 0.14862 0.0
C239 C 0.18733 0.0595 0.11819 0.0
C240 C 0.16719 0.05484 0.15743 0.0
C241 C 0.168 0.0446 0.2279 0.0
C242 C 0.18921 0.03748 0.25521 0.0
C243 C 0.20921 0.04217 0.21628 0.0
C244 C 0.27247 0.10222 0.20871 0.0
C245 C 0.26912 0.09641 0.28333 0.0
C246 C 0.28672 0.09917 0.3342 0.0
C247 C 0.30777 0.10823 0.31153 0.0
C248 C 0.30924 0.11812 0.24072 0.0
C249 C 0.29185 0.1148 0.18921 0.0
C250 C 0.27507 0.06117 0.97819 0.0
C251 C 0.28454 0.0393 0.97903 0.0
C252 C 0.57376 0.2933 0.40071 0.0
C253 C 0.59164 0.28031 0.42983 0.0
C254 C 0.59613 0.25876 0.40011 0.0
C255 C 0.58272 0.25033 0.342 0.0
H256 H 0.48914 0.21163 0.21255 0.0
H257 H 0.47977 0.17354 0.25802 0.0
H258 H 0.54862 0.152 0.21273 0.0
H259 H 0.55782 0.18994 0.16844 0.0
H260 H 0.51834 0.2598 0.99314 0.0
H261 H 0.51336 0.29017 0.90164 0.0
H262 H 0.52478 0.34011 0.07321 0.0
H263 H 0.52891 0.31028 0.16342 0.0
H264 H 0.54742 0.29581 0.32005 0.0
H265 H 0.57026 0.31017 0.42183 0.0
H266 H 0.61006 0.24865 0.42122 0.0
H267 H 0.58644 0.23373 0.31922 0.0
N268 N 0.54564 0.234 0.24113 0.0
N269 N 0.52427 0.24267 0.13422 0.0
N270 N 0.54425 0.27121 0.19773 0.0
C271 C 0.53181 0.22724 0.18509 0.0
C272 C 0.53081 0.26486 0.14027 0.0
C273 C 0.55176 0.25598 0.24796 0.0
C274 C 0.52407 0.20351 0.18587 0.0
C275 C 0.50187 0.19839 0.20916 0.0
C276 C 0.49664 0.17671 0.23618 0.0
C277 C 0.51349 0.15978 0.2395 0.0
C278 C 0.53516 0.16451 0.21022 0.0
C279 C 0.54044 0.18621 0.18443 0.0
C280 C 0.52421 0.28253 0.08555 0.0
C281 C 0.51924 0.27729 0.0113 0.0
C282 C 0.51663 0.29472 0.9588 0.0
C283 C 0.51879 0.31771 0.97968 0.0
C284 C 0.52268 0.32276 0.0547 0.0
C285 C 0.52528 0.3055 0.10665 0.0
C286 C 0.56528 0.26375 0.31168 0.0
C287 C 0.56086 0.2852 0.34196 0.0
Ho288 Ho 0.0391 0.02145 0.76333 0.0
Ho289 Ho 1.00279 0.03625 0.64265 0.0
C290 C 0.01419 0.98337 0.66026 0.0
C291 C 0.06034 0.99977 0.86506 0.0
C292 C 0.0553 0.97659 0.88993 0.0
C293 C 0.03259 0.96996 0.89831 0.0
C294 C 0.02646 0.94725 0.89305 0.0
C295 C 0.04307 0.93035 0.88199 0.0
C296 C 0.06619 0.93699 0.88472 0.0
C297 C 0.0722 0.95992 0.88706 0.0
C298 C 0.05578 0.03688 0.63259 0.0
C299 C 0.02364 0.07339 0.76124 0.0
C300 C 0.98345 0.05358 0.52867 0.0
C301 C 0.9664 0.07166 0.52455 0.0
C302 C 0.95994 0.08066 0.45612 0.0
C303 C 0.9448 0.09893 0.45328 0.0
C304 C 0.93588 0.10843 0.51897 0.0
C305 C 0.94204 0.09887 0.58734 0.0
C306 C 0.95722 0.08072 0.59007 0.0
C307 C 0.98228 0.02786 0.77544 0.0
O308 O 0.02314 0.98848 0.7256 0.0
O309 O 1.00776 0.99926 0.61272 0.0
O310 O 0.06763 1.00082 0.79655 0.0
O311 O 0.04486 0.01518 0.87989 0.0
O312 O 0.06543 0.04022 0.69639 0.0
O313 O 0.0384 0.02466 0.6414 0.0
O314 O 0.01364 0.06965 0.69614 0.0
O315 O 0.03279 0.05692 0.80111 0.0
O316 O 0.97642 0.03474 0.55982 0.0
O317 O 1.00353 0.06013 0.55225 0.0
O318 O 0.9713 0.03439 0.71714 0.0
O319 O 1.00286 0.02659 0.75796 0.0
H320 H 0.01931 0.98251 0.9027 0.0
H321 H 1.00848 0.94356 0.89253 0.0
H322 H 0.07984 0.92476 0.88191 0.0
H323 H 0.08993 0.96465 0.88156 0.0
H324 H 0.96701 0.07394 0.40512 0.0
H325 H 0.94079 0.10615 0.39974 0.0
H326 H 0.93538 0.10564 0.63884 0.0
H327 H 0.96216 0.07402 0.64352 0.0
Ho328 Ho 0.52398 0.02887 0.76906 0.0
Ho329 Ho 0.51273 0.99633 0.64261 0.0
C330 C 0.56481 1.00372 0.67365 0.0
C331 C 0.54462 0.04356 0.88404 0.0
C332 C 0.56676 0.03399 0.90594 0.0
C333 C 0.5702 1.01056 0.89728 0.0
C334 C 0.59199 1.00173 0.8903 0.0
C335 C 0.61117 0.01592 0.89498 0.0
C336 C 0.60772 0.0391 0.91146 0.0
C337 C 0.5857 0.04811 0.9157 0.0
C338 C 0.51493 0.04917 0.6389 0.0
C339 C 0.47239 0.0233 0.73411 0.0
C340 C 0.49407 0.97949 0.5261 0.0
C341 C 0.47374 0.98811 0.48708 0.0
C342 C 0.47533 1.00751 0.44208 0.0
C343 C 0.45585 0.01967 0.42327 0.0
C344 C 0.43439 0.01253 0.44839 0.0
C345 C 0.43259 0.99186 0.48649 0.0
C346 C 0.45209 0.97971 0.50548 0.0
C347 C 0.52144 0.97616 0.77394 0.0
O348 O 0.55791 0.01347 0.73588 0.0
O349 O 0.55025 0.99671 0.62294 0.0
O350 O 0.54505 0.05452 0.82108 0.0
O351 O 0.52728 0.02968 0.88861 0.0
O352 O 0.50994 0.05813 0.70292 0.0
O353 O 0.5259 0.031 0.6479 0.0
O354 O 0.47952 0.01473 0.66995 0.0
O355 O 0.4866 0.02797 0.7885 0.0
O356 O 0.49043 0.97146 0.59266 0.0
O357 O 0.51208 0.99251 0.52355 0.0
O358 O 0.52661 0.96723 0.71026 0.0
O359 O 0.51057 0.99427 0.76362 0.0
H360 H 0.55602 0.99916 0.88844 0.0
H361 H 0.59346 0.98396 0.87624 0.0
H362 H 0.62194 0.05055 0.91824 0.0
H363 H 0.5835 0.06625 0.92187 0.0
H364 H 0.49171 0.0143 0.42588 0.0
H365 H 0.45782 0.03552 0.39375 0.0
H366 H 0.41619 0.98566 0.50491 0.0
H367 H 0.45028 0.96462 0.5391 0.0
Ho368 Ho 0.51046 0.51532 0.71883 0.0
Ho369 Ho 0.54856 0.50492 0.62402 0.0
C370 C 0.53314 0.55559 0.61851 0.0
C371 C 0.48162 0.5332 0.81009 0.0
C372 C 0.4674 0.55361 0.80683 0.0
C373 C 0.45919 0.56327 0.87245 0.0
C374 C 0.44703 0.5836 0.8705 0.0
C375 C 0.44277 0.59459 0.80266 0.0
C376 C 0.45058 0.58446 0.73669 0.0
C377 C 0.46288 0.56419 0.73879 0.0
C378 C 0.49781 0.50033 0.58305 0.0
C379 C 0.52601 0.4646 0.7219 0.0
C380 C 0.57779 0.48591 0.53692 0.0
C381 C 0.58859 0.46331 0.54078 0.0
C382 C 0.57545 0.44357 0.5332 0.0
C383 C 0.58502 0.42236 0.54607 0.0
C384 C 0.60796 0.42032 0.56682 0.0
C385 C 0.62141 0.43995 0.57162 0.0
C386 C 0.61176 0.46129 0.55886 0.0
C387 C 0.56134 0.51883 0.76157 0.0
O388 O 0.52084 0.55035 0.67754 0.0
O389 O 0.54372 0.53974 0.58032 0.0
O390 O 0.47638 0.51711 0.76336 0.0
O391 O 0.50352 0.53684 0.81354 0.0
O392 O 0.48837 0.49423 0.64453 0.0
O393 O 0.51337 0.51455 0.59588 0.0
O394 O 0.53655 0.47004 0.65972 0.0
O395 O 0.51704 0.48058 0.76393 0.0
O396 O 0.5835 0.5 0.58951 0.0
O397 O 0.55595 0.48639 0.52325 0.0
O398 O 0.57068 0.52539 0.70032 0.0
O399 O 0.5454 0.50523 0.74689 0.0
H400 H 0.46271 0.55541 0.92542 0.0
H401 H 0.44178 0.59113 0.92258 0.0
H402 H 0.44748 0.59236 0.68356 0.0
H403 H 0.46921 0.55698 0.68746 0.0
H404 H 0.55758 0.44442 0.51898 0.0
H405 H 0.57437 0.40749 0.5396 0.0
H406 H 0.63919 0.43883 0.58675 0.0
H407 H 0.62227 0.47627 0.56497 0.0
Ho408 Ho 1.00839 0.49681 0.8342 0.0
Ho409 Ho 1.0115 0.5336 0.71089 0.0
C410 C 0.96367 0.5106 0.7359 0.0
C411 C 0.99979 0.47496 0.95439 0.0
C412 C 0.98595 0.45457 0.96772 0.0
C413 C 0.97353 0.45249 0.03364 0.0
C414 C 0.95744 0.43517 0.04145 0.0
C415 C 0.95346 0.41977 0.98313 0.0
C416 C 0.96699 0.42107 0.9191 0.0
C417 C 0.98306 0.43833 0.91142 0.0
C418 C 1.01209 0.47618 0.69852 0.0
C419 C 0.05772 0.51697 0.79663 0.0
C420 C 0.02414 0.55994 0.60518 0.0
C421 C 0.0476 0.56607 0.58377 0.0
C422 C 0.0582 0.55456 0.52497 0.0
C423 C 0.08182 0.5548 0.51825 0.0
C424 C 0.09518 0.56667 0.5699 0.0
C425 C 0.08448 0.58038 0.62306 0.0
C426 C 0.06085 0.5801 0.62999 0.0
C427 C 0.99749 0.54795 0.84613 0.0
O428 O 0.97168 0.50342 0.80067 0.0
O429 O 0.97692 0.52019 0.68565 0.0
O430 O 0.01839 0.47193 0.91545 0.0
O431 O 0.98829 0.49294 0.93387 0.0
O432 O 1.01045 0.46548 0.76071 0.0
O433 O 1.01197 0.49697 0.71366 0.0
O434 O 0.0485 0.52715 0.73852 0.0
O435 O 0.04529 0.50598 0.84602 0.0
O436 O 0.01731 0.56745 0.66974 0.0
O437 O 0.01853 0.53867 0.59436 0.0
O438 O 0.9888 0.55456 0.78378 0.0
O439 O 1.01343 0.534 0.83389 0.0
H440 H 0.97544 0.46491 0.07753 0.0
H441 H 0.94707 0.43483 0.09111 0.0
H442 H 0.96441 0.40937 0.87351 0.0
H443 H 0.99247 0.43951 0.86006 0.0
H444 H 0.0484 0.54394 0.48778 0.0
H445 H 0.08971 0.54458 0.47536 0.0
H446 H 0.0944 0.58979 0.66325 0.0
H447 H 0.05322 0.58948 0.67531 0.0
H448 H 0.1648 0.054 0.3763 0.0
H449 H 0.12436 0.03212 0.18844 0.0
H450 H 0.09044 0.02968 0.26988 0.0
H451 H 0.13922 0.01771 0.51042 0.0
H452 H 0.14072 0.03836 0.58405 0.0
H453 H 0.16128 0.03895 0.51006 0.0
H454 H 0.15077 0.0808 0.48298 0.0
H455 H 0.13005 0.08029 0.55663 0.0
H456 H 0.12157 0.08814 0.46424 0.0
H457 H 0.0612 0.02801 0.37527 0.0
H458 H 0.03965 0.0274 0.49346 0.0
H459 H 0.09954 0.0511 0.61015 0.0
C460 C 0.14887 0.04851 0.35215 0.0
C461 C 0.14733 0.04305 0.27589 0.0
C462 C 0.12598 0.03646 0.24653 0.0
C463 C 0.10663 0.03499 0.29245 0.0
C464 C 0.10885 0.04038 0.36751 0.0
C465 C 0.12947 0.04709 0.39693 0.0
C466 C 0.12758 0.05173 0.4793 0.0
C467 C 0.14312 0.03573 0.52354 0.0
C468 C 0.1328 0.07673 0.49678 0.0
C469 C 0.10271 0.04635 0.49221 0.0
C470 C 0.09212 0.03985 0.42716 0.0
C471 C 0.06932 0.03325 0.42627 0.0
C472 C 0.05719 0.033 0.4936 0.0
C473 C 0.06786 0.03936 0.56084 0.0
C474 C 0.09082 0.0464 0.55957 0.0
H475 H 0.49362 0.15502 0.37602 0.0
H476 H 0.52614 0.11656 0.20029 0.0
H477 H 0.52605 0.08251 0.27992 0.0
H478 H 0.52463 0.13343 0.51889 0.0
H479 H 0.50194 0.13231 0.58609 0.0
H480 H 0.50076 0.15249 0.51168 0.0
H481 H 0.46155 0.13673 0.47117 0.0
H482 H 0.46245 0.11662 0.54621 0.0
H483 H 0.45844 0.10685 0.45242 0.0
H484 H 0.52733 0.05439 0.38398 0.0
H485 H 0.5292 0.03417 0.50343 0.0
H486 H 0.49539 0.09058 0.61178 0.0
C487 C 0.4999 0.13921 0.35322 0.0
C488 C 0.5097 0.1384 0.28157 0.0
C489 C 0.51852 0.11756 0.25487 0.0
C490 C 0.51845 0.09812 0.29963 0.0
C491 C 0.50938 0.09971 0.37092 0.0
C492 C 0.50002 0.11966 0.39732 0.0
C493 C 0.49331 0.11747 0.47822 0.0
C494 C 0.50592 0.13496 0.52652 0.0
C495 C 0.4674 0.11954 0.48753 0.0
C496 C 0.50129 0.09354 0.49414 0.0
C497 C 0.51017 0.08345 0.43117 0.0
C498 C 0.52002 0.06196 0.43323 0.0
C499 C 0.52101 0.05059 0.50138 0.0
C500 C 0.51224 0.0607 0.56667 0.0
C501 C 0.50199 0.08233 0.56258 0.0
H502 H 0.41267 0.53829 0.2668 0.0
H503 H 0.39886 0.46669 0.23261 0.0
H504 H 0.43144 0.45702 0.31168 0.0
H505 H 0.47632 0.53329 0.28103 0.0
H506 H 0.47763 0.55455 0.35285 0.0
H507 H 0.45584 0.55604 0.28285 0.0
H508 H 0.42494 0.55686 0.38528 0.0
H509 H 0.44657 0.55528 0.45536 0.0
H510 H 0.42412 0.53448 0.45312 0.0
H511 H 0.46043 0.45484 0.41208 0.0
H512 H 0.48551 0.4606 0.52046 0.0
H513 H 0.48202 0.53328 0.48912 0.0
C514 C 0.41679 0.52057 0.27447 0.0
C515 C 0.40311 0.5033 0.24253 0.0
C516 C 0.4092 0.48032 0.25456 0.0
C517 C 0.42767 0.47462 0.30004 0.0
C518 C 0.44018 0.49202 0.33281 0.0
C519 C 0.43523 0.51456 0.3198 0.0
C520 C 0.45011 0.52995 0.36692 0.0
C521 C 0.46591 0.54431 0.31798 0.0
C522 C 0.43556 0.54502 0.4182 0.0
C523 C 0.46349 0.51252 0.41074 0.0
C524 C 0.45759 0.49073 0.38967 0.0
C525 C 0.4657 0.47179 0.4275 0.0
C526 C 0.47992 0.47518 0.48893 0.0
C527 C 0.48616 0.49729 0.51137 0.0
C528 C 0.47818 0.51618 0.47101 0.0
H529 H 0.98672 0.37203 0.43109 0.0
H530 H 1.00601 0.41323 0.24288 0.0
H531 H 0.0154 0.44508 0.32828 0.0
H532 H 0.95999 0.41507 0.53515 0.0
H533 H 0.96979 0.40475 0.62344 0.0
H534 H 0.96592 0.38532 0.54747 0.0
H535 H 1.00774 0.37194 0.56 0.0
H536 H 1.01168 0.39121 0.63648 0.0
H537 H 0.03036 0.39257 0.55731 0.0
H538 H 0.01975 0.4737 0.43848 0.0
H539 H 0.02151 0.49406 0.55942 0.0
H540 H 1.00033 0.43269 0.67145 0.0
C541 C 0.99315 0.38769 0.40781 0.0
C542 C 0.99561 0.39019 0.33036 0.0
C543 C 1.00417 0.4109 0.30209 0.0
C544 C 1.0094 0.4291 0.35024 0.0
C545 C 1.00624 0.42619 0.42651 0.0
C546 C 0.99859 0.40578 0.45482 0.0
C547 C 0.99634 0.40667 0.53827 0.0
C548 C 0.97154 0.40272 0.56246 0.0
C549 C 1.0125 0.38959 0.57517 0.0
C550 C 1.00368 0.43083 0.55308 0.0
C551 C 1.00923 0.44203 0.48832 0.0
C552 C 0.01564 0.46491 0.48935 0.0
C553 C 0.01651 0.47641 0.55814 0.0
C554 C 1.01118 0.46495 0.6248 0.0
C555 C 1.00475 0.4419 0.62158 0.0
H556 H 0.89069 0.04117 0.09712 0.0
H557 H 0.90535 0.97129 0.15619 0.0
H558 H 0.93765 0.97122 0.06961 0.0
H559 H 0.89911 0.03379 0.90806 0.0
H560 H 0.91162 0.06125 0.89192 0.0
H561 H 0.89213 0.05735 0.96775 0.0
H562 H 0.92239 0.0725 0.05955 0.0
H563 H 0.942 0.07654 0.9838 0.0
H564 H 0.95013 0.05949 0.06218 0.0
H565 H 0.96507 0.97667 0.96355 0.0
H566 H 0.98549 0.98801 0.84907 0.0
H567 H 0.95296 0.05367 0.85666 0.0
C568 C 0.90081 0.0259 0.09288 0.0
C569 C 0.89531 1.0063 0.13469 0.0
C570 C 0.9093 0.98679 0.12687 0.0
C571 C 0.92768 0.98648 0.07707 0.0
C572 C 0.93206 1.0058 0.03508 0.0
C573 C 0.91909 0.02521 0.04278 0.0
C574 C 0.92606 0.04301 0.98654 0.0
C575 C 0.90604 0.0492 0.93557 0.0
C576 C 0.93572 0.06414 0.02535 0.0
C577 C 0.94448 0.03033 0.94459 0.0
C578 C 0.94793 1.00899 0.97411 0.0
C579 C 0.96304 0.99361 0.94161 0.0
C580 C 0.97489 1.00025 0.8775 0.0
C581 C 0.97171 0.02203 0.847 0.0
C582 C 0.9562 0.03717 0.88063 0.0
H583 H 0.52708 0.86569 0.02611 0.0
H584 H 0.49266 0.90475 0.19639 0.0
H585 H 0.49777 0.93955 0.12223 0.0
H586 H 0.56793 0.91152 0.96666 0.0
H587 H 0.56576 0.90333 0.87065 0.0
H588 H 0.56285 0.88229 0.94238 0.0
H589 H 0.52374 0.87056 0.88859 0.0
H590 H 0.52641 0.89165 0.81732 0.0
H591 H 0.5019 0.89174 0.87747 0.0
H592 H 0.50171 0.96879 0.02318 0.0
H593 H 0.50487 0.99061 0.90714 0.0
H594 H 0.53717 0.93306 0.80019 0.0
C595 C 0.52139 0.88173 0.04887 0.0
C596 C 0.50968 0.8826 0.11734 0.0
C597 C 0.50175 0.90376 0.14423 0.0
C598 C 0.50464 0.92361 0.10258 0.0
C599 C 0.51558 0.92208 0.03416 0.0
C600 C 0.52404 0.90173 1.00767 0.0
C601 C 0.53317 0.90434 0.92942 0.0
C602 C 0.55896 0.90012 0.92717 0.0
C603 C 0.52054 0.88865 0.87503 0.0
C604 C 0.52771 0.92908 0.91504 0.0
C605 C 0.51787 0.93907 0.97662 0.0
C606 C 0.50984 0.9613 0.97516 0.0
C607 C 0.51171 0.97358 0.90896 0.0
C608 C 0.52153 0.96365 0.84497 0.0
C609 C 0.5299 0.94121 0.84858 0.0
H610 H 0.67387 0.51812 1.00543 0.0
H611 H 0.63357 0.49255 0.18848 0.0
H612 H 0.59856 0.49775 0.11435 0.0
H613 H 0.63215 0.56057 0.94106 0.0
H614 H 0.63903 0.55572 0.84495 0.0
H615 H 0.66046 0.55189 0.91509 0.0
H616 H 0.66736 0.51083 0.86864 0.0
H617 H 0.64595 0.51451 0.79862 0.0
H618 H 0.64374 0.4914 0.86339 0.0
H619 H 0.5684 0.50152 0.01356 0.0
H620 H 0.54586 0.50566 0.89828 0.0
H621 H 0.60586 0.53033 0.78408 0.0
C622 C 0.65765 0.51391 0.03031 0.0
C623 C 0.65647 0.50495 0.10287 0.0
C624 C 0.63488 0.4997 0.13341 0.0
C625 C 0.61491 0.5025 0.09155 0.0
C626 C 0.61674 0.51091 0.01954 0.0
C627 C 0.63757 0.51684 0.98964 0.0
C628 C 0.63513 0.5247 0.91017 0.0
C629 C 0.6421 0.54971 0.90239 0.0
C630 C 0.64885 0.50945 0.85711 0.0
C631 C 0.60977 0.5217 0.89914 0.0
C632 C 0.59939 0.51375 0.96279 0.0
C633 C 0.5763 0.50814 0.96393 0.0
C634 C 0.56362 0.51053 0.89828 0.0
C635 C 0.57401 0.51858 0.83258 0.0
C636 C 0.5973 0.52455 0.83376 0.0
H637 H 0.03625 0.62276 0.19176 0.0
H638 H 0.97002 0.65526 0.17602 0.0
H639 H 0.95761 0.62572 0.08956 0.0
H640 H 0.04141 0.61213 1.00363 0.0
H641 H 0.0557 0.58522 0.01222 0.0
H642 H 0.05828 0.60609 0.08455 0.0
H643 H 0.04352 0.57701 0.18055 0.0
H644 H 0.04093 0.55598 0.10833 0.0
H645 H 0.01667 0.563 0.16513 0.0
H646 H 0.95382 0.59665 0.99045 0.0
H647 H 0.95913 0.56991 0.88651 0.0
H648 H 0.02791 0.55627 0.96013 0.0
C649 C 0.019 0.62362 0.17125 0.0
C650 C 1.00419 0.64161 0.19235 0.0
C651 C 0.98171 0.64161 0.16352 0.0
C652 C 0.97446 0.62488 0.11339 0.0
C653 C 0.98976 0.60806 0.09191 0.0
C654 C 1.01154 0.60718 0.12014 0.0
C655 C 0.02532 0.58866 0.082 0.0
C656 C 0.04642 0.59863 0.04331 0.0
C657 C 0.032 0.57006 0.13731 0.0
C658 C 1.00813 0.57988 0.02603 0.0
C659 C 0.98762 0.59113 0.03368 0.0
C660 C 0.96965 0.58742 0.98489 0.0
C661 C 0.97282 0.57221 0.92592 0.0
C662 C 0.99377 0.5608 0.91587 0.0
C663 C 1.0115 0.56432 0.96763 0.0
H664 H 0.87278 0.20113 0.29331 0.0
H665 H 0.90305 0.24846 0.44918 0.0
H666 H 0.9074 0.21794 0.53907 0.0
H667 H 0.84971 0.15771 0.43784 0.0
H668 H 0.85823 0.13472 0.37793 0.0
H669 H 0.84824 0.161 0.33867 0.0
H670 H 0.88538 0.1639 0.26199 0.0
H671 H 0.89567 0.13807 0.3017 0.0
H672 H 0.91239 0.1636 0.30924 0.0
H673 H 0.92013 0.18237 0.59421 0.0
H674 H 0.93839 0.14529 0.61103 0.0
H675 H 0.90263 0.11939 0.41851 0.0
C676 C 0.87957 0.20526 0.34735 0.0
C677 C 0.88776 0.22731 0.36314 0.0
C678 C 0.89625 0.23196 0.43514 0.0
C679 C 0.89894 0.21456 0.487 0.0
C680 C 0.89301 0.19255 0.46652 0.0
C681 C 0.88308 0.18787 0.39873 0.0
C682 C 0.88275 0.16256 0.38351 0.0
C683 C 0.85827 0.15346 0.38459 0.0
C684 C 0.89478 0.15672 0.30983 0.0
C685 C 0.89604 0.15404 0.44961 0.0
C686 C 0.90099 0.17148 0.49833 0.0
C687 C 0.91568 0.16841 0.55802 0.0
C688 C 0.92601 0.14721 0.56712 0.0
C689 C 0.92185 0.12935 0.51626 0.0
C690 C 0.90606 0.1327 0.45839 0.0
H691 H 0.34938 0.09735 0.2528 0.0
H692 H 0.31368 0.10343 0.46307 0.0
H693 H 0.34357 0.08054 0.52253 0.0
H694 H 0.36455 0.04361 0.26392 0.0
H695 H 0.39271 0.04587 0.22498 0.0
H696 H 0.37129 0.06622 0.20046 0.0
H697 H 0.39681 0.09939 0.24465 0.0
H698 H 0.41883 0.07923 0.26658 0.0
H699 H 0.40884 0.09874 0.33645 0.0
H700 H 0.3718 0.04993 0.55036 0.0
H701 H 0.4025 0.02143 0.55451 0.0
H702 H 0.42134 0.03813 0.32868 0.0
C703 C 0.34825 0.09508 0.31214 0.0
C704 C 0.32879 0.10198 0.35271 0.0
C705 C 0.32807 0.09793 0.43014 0.0
C706 C 0.34502 0.08499 0.46456 0.0
C707 C 0.36295 0.07695 0.42132 0.0
C708 C 0.36519 0.08262 0.3475 0.0
C709 C 0.38536 0.07078 0.31219 0.0
C710 C 0.37801 0.05574 0.24656 0.0
C711 C 0.40354 0.08807 0.2886 0.0
C712 C 0.39339 0.05665 0.37672 0.0
C713 C 0.3802 0.06038 0.43904 0.0
C714 C 0.38284 0.04753 0.50298 0.0
C715 C 0.40011 0.03117 0.50441 0.0
C716 C 0.41459 0.02793 0.44249 0.0
C717 C 0.41092 0.04068 0.37755 0.0
H718 H 0.57914 0.2966 0.56311 0.0
H719 H 0.63653 0.29011 0.41529 0.0
H720 H 0.65491 0.32279 0.47525 0.0
H721 H 0.57032 0.34665 0.53728 0.0
H722 H 0.56233 0.35697 0.62765 0.0
H723 H 0.55923 0.3276 0.60675 0.0
H724 H 0.58439 0.31649 0.71761 0.0
H725 H 0.5872 0.34607 0.74151 0.0
H726 H 0.61224 0.32888 0.72819 0.0
H727 H 0.65853 0.36264 0.50751 0.0
H728 H 0.64823 0.40306 0.5148 0.0
H729 H 0.58874 0.38593 0.64465 0.0
C730 C 0.59634 0.3012 0.54776 0.0
C731 C 0.60654 0.29103 0.48538 0.0
C732 C 0.62868 0.29753 0.464 0.0
C733 C 0.63918 0.31621 0.49778 0.0
C734 C 0.62739 0.3279 0.55326 0.0
C735 C 0.60666 0.32015 0.58013 0.0
C736 C 0.5947 0.33825 0.62546 0.0
C737 C 0.57026 0.34262 0.59745 0.0
C738 C 0.59465 0.33205 0.7081 0.0
C739 C 0.61021 0.35822 0.61097 0.0
C740 C 0.62953 0.35175 0.57234 0.0
C741 C 0.64401 0.3678 0.54038 0.0
C742 C 0.63802 0.3908 0.5446 0.0
C743 C 0.61761 0.39747 0.57991 0.0
C744 C 0.60444 0.38112 0.61737 0.0
H745 H 0.20343 0.49284 0.50122 0.0
H746 H 0.24132 0.55586 0.50028 0.0
H747 H 0.20966 0.57495 0.56374 0.0
H748 H 0.15729 0.5143 0.43753 0.0
H749 H 0.13655 0.49803 0.48841 0.0
H750 H 0.16441 0.48664 0.47301 0.0
H751 H 0.17017 0.48135 0.6136 0.0
H752 H 0.14209 0.49252 0.63091 0.0
H753 H 0.16642 0.50502 0.67555 0.0
H754 H 0.17105 0.58962 0.5909 0.0
H755 H 0.12973 0.59763 0.58799 0.0
H756 H 0.11612 0.52577 0.56301 0.0
C757 C 0.20543 0.51039 0.51771 0.0
C758 C 0.22474 0.52286 0.49563 0.0
C759 C 0.22684 0.54583 0.51757 0.0
C760 C 0.20883 0.55689 0.55348 0.0
C761 C 0.189 0.54468 0.56756 0.0
C762 C 0.18738 0.52172 0.55184 0.0
C763 C 0.16307 0.51347 0.55778 0.0
C764 C 0.15488 0.5025 0.48485 0.0
C765 C 0.16027 0.49713 0.62337 0.0
C766 C 0.15111 0.53568 0.57252 0.0
C767 C 0.16632 0.55336 0.58068 0.0
C768 C 0.159 0.57581 0.5868 0.0
C769 C 0.13557 0.58025 0.5844 0.0
C770 C 0.11988 0.56234 0.57426 0.0
C771 C 0.12782 0.53982 0.56964 0.0
H772 H 0.07112 0.80458 0.86391 0.0
H773 H 1.00127 0.7926 0.92709 0.0
H774 H 0.99016 0.8289 0.87287 0.0
H775 H 0.07837 0.85153 0.91523 0.0
H776 H 0.09336 0.86605 0.84213 0.0
H777 H 0.09458 0.83583 0.84723 0.0
H778 H 0.07909 0.83179 0.71421 0.0
H779 H 0.07851 0.86229 0.70656 0.0
H780 H 0.05319 0.84602 0.68828 0.0
H781 H 0.99158 0.86951 0.88271 0.0
H782 H 1.00192 0.90835 0.91071 0.0
H783 H 0.06881 0.8967 0.81369 0.0
C784 C 0.05328 0.80892 0.86018 0.0
C785 C 0.03709 0.79614 0.89981 0.0
C786 C 0.01388 0.80215 0.89634 0.0
C787 C 1.00742 0.82289 0.86583 0.0
C788 C 0.02428 0.83682 0.83635 0.0
C789 C 0.04657 0.82949 0.8281 0.0
C790 C 0.06195 0.84903 0.80613 0.0
C791 C 0.08327 0.85069 0.85574 0.0
C792 C 0.06857 0.84718 0.7239 0.0
C793 C 0.04591 0.86875 0.81848 0.0
C794 C 0.02414 0.86134 0.83397 0.0
C795 C 1.00806 0.87577 0.86551 0.0
C796 C 0.01428 0.89813 0.88162 0.0
C797 C 0.03633 0.90642 0.86401 0.0
C798 C 0.0519 0.89143 0.82929 0.0
H799 H 0.7093 0.92678 0.93384 0.0
H800 H 0.75463 0.98305 0.88751 0.0
H801 H 0.72351 1.00345 0.82833 0.0
H802 H 0.66412 0.93914 0.77801 0.0
H803 H 0.64186 0.93213 0.8428 0.0
H804 H 0.66861 0.91718 0.84576 0.0
H805 H 0.67239 0.92781 0.98462 0.0
H806 H 0.64623 0.94327 0.98172 0.0
H807 H 0.67191 0.9573 0.01139 0.0
H808 H 0.68679 0.02303 0.81439 0.0
H809 H 0.64864 0.03839 0.83748 0.0
H810 H 0.62677 0.97219 0.91562 0.0
C811 C 0.71288 0.943 0.90845 0.0
C812 C 0.73436 0.95338 0.91729 0.0
C813 C 0.73849 0.97442 0.88169 0.0
C814 C 0.72072 0.98635 0.84801 0.0
C815 C 0.69894 0.97707 0.8502 0.0
C816 C 0.69501 0.95556 0.8782 0.0
C817 C 0.66986 0.95159 0.89118 0.0
C818 C 0.66057 0.93397 0.83614 0.0
C819 C 0.66484 0.94462 0.97198 0.0
C820 C 0.66068 0.97493 0.87409 0.0
C821 C 0.67745 0.98903 0.84695 0.0
C822 C 0.67341 1.01197 0.8341 0.0
C823 C 0.6517 0.02067 0.8492 0.0
C824 C 0.63431 1.00663 0.87867 0.0
C825 C 0.63912 0.98342 0.89078 0.0
H826 H 0.3899 0.69457 0.02201 0.0
H827 H 0.4338 0.73719 0.88808 0.0
H828 H 0.4358 0.70741 0.79364 0.0
H829 H 0.42185 0.65009 0.0108 0.0
H830 H 0.40026 0.62841 1.00712 0.0
H831 H 0.39393 0.65526 0.04886 0.0
H832 H 0.3599 0.66081 0.95983 0.0
H833 H 0.3659 0.63362 0.91816 0.0
H834 H 0.36422 0.65862 0.86115 0.0
H835 H 0.4432 0.67065 0.73465 0.0
H836 H 0.4546 0.63097 0.7168 0.0
H837 H 0.40785 0.61035 0.88998 0.0
C838 C 0.39923 0.69796 0.9715 0.0
C839 C 0.41176 0.71826 0.96313 0.0
C840 C 0.42366 0.72206 0.8959 0.0
C841 C 0.42499 0.70509 0.84164 0.0
C842 C 0.41425 0.68442 0.85495 0.0
C843 C 0.40123 0.68091 0.91785 0.0
C844 C 0.39542 0.65602 0.92708 0.0
C845 C 0.40336 0.64694 1.00288 0.0
C846 C 0.36984 0.65204 0.91585 0.0
C847 C 0.40906 0.64591 0.86392 0.0
C848 C 0.41903 0.66262 0.82115 0.0
C849 C 0.43488 0.65743 0.76614 0.0
C850 C 0.44131 0.63475 0.75638 0.0
C851 C 0.43219 0.6175 0.80214 0.0
C852 C 0.41513 0.62316 0.85422 0.0
H853 H 0.8493 0.37866 0.20199 0.0
H854 H 0.812 0.40041 1.00728 0.0
H855 H 0.84574 0.39409 0.9312 0.0
H856 H 0.89163 0.41153 0.17623 0.0
H857 H 0.91458 0.39357 0.20694 0.0
H858 H 0.88635 0.38869 0.24034 0.0
H859 H 0.88852 0.34731 0.19397 0.0
H860 H 0.91676 0.35202 0.15785 0.0
H861 H 0.89472 0.34146 0.09794 0.0
H862 H 0.88412 0.39839 0.88417 0.0
H863 H 0.92262 0.41398 0.87255 0.0
H864 H 0.93742 0.39384 0.09816 0.0
C865 C 0.848 0.38143 0.14293 0.0
C866 C 0.82788 0.39038 0.11142 0.0
C867 C 0.82688 0.39326 0.03354 0.0
C868 C 0.84617 0.38974 0.98941 0.0
C869 C 0.86643 0.38337 0.02357 0.0
C870 C 0.86744 0.3789 0.09874 0.0
C871 C 0.89192 0.37766 0.12517 0.0
C872 C 0.89635 0.39385 0.19092 0.0
C873 C 0.89834 0.35315 0.14492 0.0
C874 C 0.90423 0.38519 0.05567 0.0
C875 C 0.88937 0.38695 0.99655 0.0
C876 C 0.89606 0.39639 0.92924 0.0
C877 C 0.91805 0.40523 0.92314 0.0
C878 C 0.93302 0.40504 0.98452 0.0
C879 C 0.92632 0.39399 0.05035 0.0
H880 H 0.98587 0.20313 0.82658 0.0
H881 H 0.03327 0.20399 0.01127 0.0
H882 H 0.04629 0.16585 0.97673 0.0
H883 H 0.96875 0.14603 0.84994 0.0
H884 H 0.96618 0.13986 0.75242 0.0
H885 H 0.9622 0.16841 0.7855 0.0
H886 H 0.9934 0.18257 0.69539 0.0
H887 H 0.99737 0.15401 0.66195 0.0
H888 H 0.02124 0.16978 0.69769 0.0
H889 H 0.05201 0.12637 0.93047 0.0
H890 H 0.05078 0.08849 0.87352 0.0
H891 H 0.99896 0.11166 0.71998 0.0
C892 C 0.99911 0.19547 0.85973 0.0
C893 C 1.00858 0.20706 0.92173 0.0
C894 C 0.02601 0.1961 0.96257 0.0
C895 C 0.03343 0.17419 0.94377 0.0
C896 C 0.02333 0.16318 0.88386 0.0
C897 C 1.00662 0.17343 0.84209 0.0
C898 C 0.99777 0.15725 0.78281 0.0
C899 C 0.97221 0.15262 0.79334 0.0
C900 C 1.00275 0.16646 0.70483 0.0
C901 C 1.01185 0.13619 0.79883 0.0
C902 C 0.02655 0.14013 0.85715 0.0
C903 C 0.04071 0.12316 0.88436 0.0
C904 C 0.03979 0.1016 0.85161 0.0
C905 C 0.02482 0.09692 0.7919 0.0
C906 C 1.01079 0.11464 0.76488 0.0
H907 H 0.35272 0.03153 0.94678 0.0
H908 H 0.32509 0.06179 0.7474 0.0
H909 H 0.36258 0.05812 0.68635 0.0
H910 H 0.40706 0.05863 0.93702 0.0
H911 H 0.42272 0.03455 0.97107 0.0
H912 H 0.39353 0.03865 0.9984 0.0
H913 H 0.38342 0.99854 0.94987 0.0
H914 H 0.41261 0.99426 0.9228 0.0
H915 H 0.39022 0.991 0.85552 0.0
H916 H 0.40338 0.05222 0.64836 0.0
H917 H 0.44393 0.04194 0.63192 0.0
H918 H 0.44587 0.01731 0.85804 0.0
C919 C 0.35446 0.03701 0.88982 0.0
C920 C 0.33587 0.04683 0.85169 0.0
C921 C 0.33905 0.05427 0.77776 0.0
C922 C 0.36029 0.05223 0.7426 0.0
C923 C 0.37832 0.04282 0.78211 0.0
C924 C 0.37564 0.03527 0.85404 0.0
C925 C 0.39795 0.02629 0.88463 0.0
C926 C 0.40577 0.04038 0.95175 0.0
C927 C 0.39592 1.00102 0.90435 0.0
C928 C 0.41354 0.02983 0.8185 0.0
C929 C 0.40185 0.03936 0.75998 0.0
C930 C 0.41257 0.04418 0.6929 0.0
C931 C 0.43562 0.03845 0.6843 0.0
C932 C 0.44797 0.02882 0.74361 0.0
C933 C 0.43681 0.02471 0.81182 0.0
H934 H 0.50087 0.36079 0.99461 0.0
H935 H 0.5371 0.31757 0.83908 0.0
H936 H 0.54082 0.34986 0.75315 0.0
H937 H 0.47122 0.39586 0.85821 0.0
H938 H 0.47451 0.42137 0.91238 0.0
H939 H 0.47257 0.39426 0.95786 0.0
H940 H 0.5108 0.40208 0.02436 0.0
H941 H 0.51294 0.42911 0.97881 0.0
H942 H 0.53567 0.40877 0.97006 0.0
H943 H 0.54321 0.38781 0.68825 0.0
H944 H 0.54337 0.42774 0.64853 0.0
H945 H 0.50688 0.44662 0.84865 0.0
C946 C 0.50946 0.35799 0.94229 0.0
C947 C 0.51862 0.33645 0.92387 0.0
C948 C 0.52954 0.33366 0.85427 0.0
C949 C 0.53191 0.352 0.8052 0.0
C950 C 0.52324 0.37309 0.82623 0.0
C951 C 0.51212 0.37612 0.89299 0.0
C952 C 0.50538 0.40073 0.90423 0.0
C953 C 0.47937 0.40319 0.90839 0.0
C954 C 0.51689 0.41076 0.97346 0.0
C955 C 0.51476 0.41118 0.83389 0.0
C956 C 0.52486 0.39492 0.7894 0.0
C957 C 0.53522 0.4006 0.72247 0.0
C958 C 0.53527 0.42341 0.70045 0.0
C959 C 0.52516 0.44044 0.74531 0.0
C960 C 0.51469 0.43409 0.81282 0.0
H961 H 0.1774 0.49257 0.9934 0.0
H962 H 0.20978 0.53206 0.81989 0.0
H963 H 0.17215 0.53904 0.7636 0.0
H964 H 0.13553 0.46552 0.87586 0.0
H965 H 0.11363 0.46624 0.94587 0.0
H966 H 0.14309 0.46462 0.97258 0.0
H967 H 0.13818 0.50068 0.05334 0.0
H968 H 0.10874 0.50247 0.02664 0.0
H969 H 0.12741 0.52628 0.01171 0.0
H970 H 0.13053 0.54177 0.7267 0.0
H971 H 0.0889 0.53926 0.70967 0.0
H972 H 0.08392 0.49743 0.90656 0.0
C973 C 0.17678 0.50234 0.94277 0.0
C974 C 0.19684 0.51165 0.91121 0.0
C975 C 0.19483 0.52488 0.84594 0.0
C976 C 0.17348 0.52886 0.81323 0.0
C977 C 0.15416 0.51936 0.84589 0.0
C978 C 0.15566 0.50632 0.90912 0.0
C979 C 0.13236 0.49812 0.93368 0.0
C980 C 0.13109 0.47208 0.93186 0.0
C981 C 0.12632 0.50745 0.01092 0.0
C982 C 0.11745 0.50854 0.87432 0.0
C983 C 0.13034 0.52075 0.82425 0.0
C984 C 0.1203 0.53203 0.76496 0.0
C985 C 0.09658 0.53061 0.75609 0.0
C986 C 0.08293 0.51821 0.80673 0.0
C987 C 0.0937 0.50707 0.86668 0.0
H988 H 0.02349 0.87218 0.40397 0.0
H989 H 1.00983 0.83218 0.60103 0.0
H990 H 1.00688 0.8674 0.67444 0.0
H991 H 0.0565 0.91572 0.49192 0.0
H992 H 0.04505 0.93826 0.43599 0.0
H993 H 0.04664 0.90988 0.39927 0.0
H994 H 1.00344 0.91074 0.37174 0.0
H995 H 1.00169 0.93911 0.40858 0.0
H996 H 0.98374 0.91708 0.44559 0.0
H997 H 1.00488 0.90733 0.72651 0.0
H998 H 1.00529 0.94842 0.75396 0.0
H999 H 0.01859 0.96276 0.52259 0.0
C1000 C 0.01956 0.87066 0.46234 0.0
C1001 C 0.01681 0.84904 0.49604 0.0
C1002 C 1.01231 0.84825 0.57334 0.0
C1003 C 1.0104 0.86827 0.61564 0.0
C1004 C 1.01292 0.88915 0.58022 0.0
C1005 C 0.01741 0.89047 0.50528 0.0
C1006 C 0.01938 0.91505 0.48054 0.0
C1007 C 0.04332 0.92001 0.45015 0.0
C1008 C 1.00096 0.92083 0.42322 0.0
C1009 C 0.01522 0.92742 0.55325 0.0
C1010 C 1.01161 0.91212 0.61007 0.0
C1011 C 1.00783 0.9194 0.68256 0.0
C1012 C 1.00814 0.94279 0.69765 0.0
C1013 C 1.01202 0.95886 0.64072 0.0
C1014 C 0.0153 0.95097 0.56725 0.0
H1015 H 0.67769 0.96356 0.46408 0.0
H1016 H 0.71301 0.01895 0.57335 0.0
H1017 H 0.67865 0.02658 0.64858 0.0
H1018 H 0.62597 0.99133 0.44282 0.0
H1019 H 0.60846 0.96673 0.4589 0.0
H1020 H 0.63673 0.96338 0.4222 0.0
H1021 H 0.64692 0.93634 0.53022 0.0
H1022 H 0.61858 0.93951 0.56712 0.0
H1023 H 0.64288 0.94568 0.62452 0.0
H1024 H 0.6389 0.031 0.70096 0.0
H1025 H 0.59801 0.03068 0.73177 0.0
H1026 H 0.5879 0.97402 0.58163 0.0
C1027 C 0.67836 0.97728 0.50396 0.0
C1028 C 0.69822 0.99074 0.51207 0.0
C1029 C 0.69825 1.00819 0.56628 0.0
C1030 C 0.67871 0.01275 0.60907 0.0
C1031 C 0.65922 0.99969 0.5973 0.0
C1032 C 0.65899 0.98219 0.54641 0.0
C1033 C 0.63553 0.97156 0.54077 0.0
C1034 C 0.62613 0.97337 0.46147 0.0
C1035 C 0.63601 0.9468 0.56724 0.0
C1036 C 0.62229 0.9864 0.59426 0.0
C1037 C 0.63637 1.00223 0.62736 0.0
C1038 C 0.62789 0.01827 0.67698 0.0
C1039 C 0.60456 0.018 0.69381 0.0
C1040 C 0.58969 1.00224 0.65942 0.0
C1041 C 0.5988 0.98621 0.6091 0.0
H1042 H 0.49056 0.68243 0.54696 0.0
H1043 H 0.54879 0.69007 0.40066 0.0
H1044 H 0.56297 0.65271 0.43989 0.0
H1045 H 0.52022 0.65075 0.69466 0.0
H1046 H 0.49659 0.63209 0.71226 0.0
H1047 H 0.49153 0.66068 0.68097 0.0
H1048 H 0.46817 0.64601 0.57085 0.0
H1049 H 0.47265 0.61709 0.59907 0.0
H1050 H 0.4806 0.62589 0.50715 0.0
H1051 H 0.56831 0.61274 0.48151 0.0
H1052 H 0.56578 0.5737 0.52919 0.0
H1053 H 0.5042 0.59131 0.64922 0.0
C1054 C 0.5065 0.67644 0.52401 0.0
C1055 C 0.5186 0.68942 0.47083 0.0
C1056 C 0.5394 0.68084 0.44249 0.0
C1057 C 0.54753 0.65948 0.46405 0.0
C1058 C 0.53481 0.64688 0.51451 0.0
C1059 C 0.51488 0.65512 0.54494 0.0
C1060 C 0.50375 0.63752 0.59455 0.0
C1061 C 0.50297 0.64576 0.67539 0.0
C1062 C 0.47988 0.63128 0.5662 0.0
C1063 C 0.52019 0.61788 0.58543 0.0
C1064 C 0.53803 0.62373 0.53928 0.0
C1065 C 0.55462 0.60808 0.51864 0.0
C1066 C 0.55296 0.58589 0.54574 0.0
C1067 C 0.53488 0.57945 0.59329 0.0
C1068 C 0.51841 0.5958 0.6139 0.0
H1069 H 0.8515 0.51359 0.48513 0.0
H1070 H 0.81294 0.49458 0.68063 0.0
H1071 H 0.84817 0.49566 0.75501 0.0
H1072 H 0.90004 0.4809 0.52317 0.0
H1073 H 0.92022 0.5014 0.48911 0.0
H1074 H 0.89183 0.50068 0.45205 0.0
H1075 H 0.88625 0.54304 0.48595 0.0
H1076 H 0.91476 0.54397 0.52233 0.0
H1077 H 0.89109 0.55231 0.57988 0.0
H1078 H 0.88825 0.49622 0.80639 0.0
H1079 H 0.92945 0.4986 0.83214 0.0
H1080 H 0.94166 0.5181 0.60361 0.0
C1081 C 0.8503 0.51024 0.54397 0.0
C1082 C 0.82932 0.50405 0.57691 0.0
C1083 C 0.82876 0.49922 0.65386 0.0
C1084 C 0.8487 0.49983 0.69667 0.0
C1085 C 0.86915 0.50543 0.662 0.0
C1086 C 0.87005 0.51079 0.58754 0.0
C1087 C 0.89428 0.51559 0.56319 0.0
C1088 C 0.90204 0.49863 0.50335 0.0
C1089 C 0.89674 0.54019 0.53626 0.0
C1090 C 0.90691 0.51188 0.63536 0.0
C1091 C 0.89212 0.50599 0.6917 0.0
C1092 C 0.89994 0.50103 0.7628 0.0
C1093 C 0.92342 0.50235 0.77683 0.0
C1094 C 0.93889 0.50865 0.72015 0.0
C1095 C 0.93036 0.51341 0.64849 0.0
loop_
_geom_bond_atom_site_label_1
_geom_bond_atom_site_label_2
_geom_bond_distance
_geom_bond_site_symmetry_2
_ccdc_geom_bond_type
C0 C1 1.384 . S
C0 H13 0.947 . S
C0 C35 1.382 . S
C1 C0 1.384 . S
C1 C2 1.378 . S
C2 C1 1.378 . S
C2 C3 1.378 . S
C2 H14 0.952 . S
C3 C2 1.378 . S
C3 H15 0.950 . S
C3 C34 1.383 . S
H4 C23 0.947 . S
H5 C24 0.946 . S
H6 C26 0.953 . S
H7 C27 0.945 . S
H8 C29 0.952 . S
H9 C30 0.949 . S
H10 C32 0.950 . S
H11 C33 0.948 . S
H12 C35 0.951 . S
H13 C0 0.947 . S
H14 C2 0.952 . S
H15 C3 0.950 . S
N16 C19 1.382 . S
N16 C21 1.363 . S
N17 C19 1.371 . S
N17 C20 1.372 . S
N18 C20 1.361 . S
N18 C21 1.377 . S
C19 N16 1.382 . S
C19 N17 1.371 . S
C19 C22 1.480 . S
C20 N17 1.372 . S
C20 N18 1.361 . S
C20 C28 1.457 . S
C21 N16 1.363 . S
C21 N18 1.377 . S
C21 C34 1.479 . S
C22 C19 1.480 . S
C22 C23 1.383 . S
C22 C27 1.385 . S
C23 H4 0.947 . S
C23 C22 1.383 . S
C23 C24 1.388 . S
C24 H5 0.946 . S
C24 C23 1.388 . S
C24 C25 1.384 . S
C25 C24 1.384 . S
C25 C26 1.377 . S
C26 H6 0.953 . S
C26 C25 1.377 . S
C26 C27 1.369 . S
C27 H7 0.945 . S
C27 C22 1.385 . S
C27 C26 1.369 . S
C28 C20 1.457 . S
C28 C29 1.372 . S
C28 C33 1.364 . S
C29 H8 0.952 . S
C29 C28 1.372 . S
C29 C30 1.389 . S
C30 H9 0.949 . S
C30 C29 1.389 . S
C30 C31 1.387 . S
C31 C30 1.387 . S
C31 C32 1.372 . S
C32 H10 0.950 . S
C32 C31 1.372 . S
C32 C33 1.379 . S
C33 H11 0.948 . S
C33 C28 1.364 . S
C33 C32 1.379 . S
C34 C3 1.383 . S
C34 C21 1.479 . S
C34 C35 1.398 . S
C35 C0 1.382 . S
C35 H12 0.951 . S
C35 C34 1.398 . S
C36 C37 1.384 1_655 S
C36 H49 0.948 . S
C36 C71 1.382 1_655 S
C37 C36 1.384 1_455 S
C37 C38 1.378 . S
C38 C37 1.378 . S
C38 C39 1.378 . S
C38 H50 0.952 . S
C39 C38 1.378 . S
C39 H51 0.950 . S
C39 C70 1.383 . S
H40 C59 0.947 . S
H41 C60 0.952 . S
H42 C62 0.953 . S
H43 C63 0.945 . S
H44 C65 0.949 1_655 S
H45 C66 0.956 . S
H46 C68 0.950 . S
H47 C69 0.948 . S
H48 C71 0.951 1_655 S
H49 C36 0.948 . S
H50 C38 0.952 . S
H51 C39 0.950 . S
N52 C55 1.382 . S
N52 C57 1.363 . S
N53 C55 1.371 . S
N53 C56 1.372 . S
N54 C56 1.361 . S
N54 C57 1.377 . S
C55 N52 1.382 . S
C55 N53 1.371 . S
C55 C58 1.480 . S
C56 N53 1.372 . S
C56 N54 1.361 . S
C56 C64 1.457 . S
C57 N52 1.363 . S
C57 N54 1.377 . S
C57 C70 1.479 . S
C58 C55 1.480 . S
C58 C59 1.383 . S
C58 C63 1.385 . S
C59 H40 0.947 . S
C59 C58 1.383 . S
C59 C60 1.386 1_455 S
C60 H41 0.952 . S
C60 C59 1.386 1_655 S
C60 C61 1.381 1_655 S
C61 C60 1.381 1_455 S
C61 C62 1.377 . S
C62 H42 0.953 . S
C62 C61 1.377 . S
C62 C63 1.369 . S
C63 H43 0.945 . S
C63 C58 1.385 . S
C63 C62 1.369 . S
C64 C56 1.457 . S
C64 C65 1.376 . S
C64 C69 1.364 . S
C65 H44 0.949 1_455 S
C65 C64 1.376 . S
C65 C66 1.387 1_455 S
C66 H45 0.956 . S
C66 C65 1.387 1_655 S
C66 C67 1.383 1_655 S
C67 C66 1.383 1_455 S
C67 C68 1.372 . S
C68 H46 0.950 . S
C68 C67 1.372 . S
C68 C69 1.379 . S
C69 H47 0.948 . S
C69 C64 1.364 . S
C69 C68 1.379 . S
C70 C39 1.383 . S
C70 C57 1.479 . S
C70 C71 1.398 . S
C71 C36 1.382 1_455 S
C71 H48 0.951 1_455 S
C71 C70 1.398 . S
C72 C73 1.384 1_565 S
C72 H85 0.948 . S
C72 C107 1.382 1_565 S
C73 C72 1.384 1_545 S
C73 C74 1.378 . S
C74 C73 1.378 . S
C74 C75 1.378 . S
C74 H86 0.952 . S
C75 C74 1.378 . S
C75 H87 0.950 . S
C75 C106 1.383 . S
H76 C95 0.947 . S
H77 C96 0.952 . S
H78 C98 0.953 . S
H79 C99 0.945 . S
H80 C101 0.949 1_565 S
H81 C102 0.956 . S
H82 C104 0.950 . S
H83 C105 0.948 . S
H84 C107 0.951 1_565 S
H85 C72 0.948 . S
H86 C74 0.952 . S
H87 C75 0.950 . S
N88 C91 1.382 . S
N88 C93 1.363 . S
N89 C91 1.371 . S
N89 C92 1.372 . S
N90 C92 1.361 . S
N90 C93 1.377 . S
C91 N88 1.382 . S
C91 N89 1.371 . S
C91 C94 1.480 . S
C92 N89 1.372 . S
C92 N90 1.361 . S
C92 C100 1.457 . S
C93 N88 1.363 . S
C93 N90 1.377 . S
C93 C106 1.479 . S
C94 C91 1.480 . S
C94 C95 1.383 . S
C94 C99 1.385 . S
C95 H76 0.947 . S
C95 C94 1.383 . S
C95 C96 1.386 1_545 S
C96 H77 0.952 . S
C96 C95 1.386 1_565 S
C96 C97 1.381 1_565 S
C97 C96 1.381 1_545 S
C97 C98 1.377 . S
C98 H78 0.953 . S
C98 C97 1.377 . S
C98 C99 1.369 . S
C99 H79 0.945 . S
C99 C94 1.385 . S
C99 C98 1.369 . S
C100 C92 1.457 . S
C100 C101 1.376 . S
C100 C105 1.364 . S
C101 H80 0.949 1_545 S
C101 C100 1.376 . S
C101 C102 1.386 1_545 S
C102 H81 0.956 . S
C102 C101 1.386 1_565 S
C102 C103 1.383 1_565 S
C103 C102 1.383 1_545 S
C103 C104 1.372 . S
C104 H82 0.950 . S
C104 C103 1.372 . S
C104 C105 1.379 . S
C105 H83 0.948 . S
C105 C100 1.364 . S
C105 C104 1.379 . S
C106 C75 1.383 . S
C106 C93 1.479 . S
C106 C107 1.398 . S
C107 C72 1.382 1_545 S
C107 H84 0.951 1_545 S
C107 C106 1.398 . S
C108 C109 1.384 . S
C108 H121 0.947 . S
C108 C143 1.382 . S
C109 C108 1.384 . S
C109 C110 1.378 . S
C110 C109 1.378 . S
C110 C111 1.378 . S
C110 H122 0.952 . S
C111 C110 1.378 . S
C111 H123 0.950 . S
C111 C142 1.383 . S
H112 C131 0.947 . S
H113 C132 0.946 . S
H114 C134 0.953 . S
H115 C135 0.945 . S
H116 C137 0.952 . S
H117 C138 0.949 . S
H118 C140 0.950 . S
H119 C141 0.948 . S
H120 C143 0.951 . S
H121 C108 0.947 . S
H122 C110 0.952 . S
H123 C111 0.950 . S
N124 C127 1.382 . S
N124 C129 1.363 . S
N125 C127 1.371 . S
N125 C128 1.372 . S
N126 C128 1.361 . S
N126 C129 1.377 . S
C127 N124 1.382 . S
C127 N125 1.371 . S
C127 C130 1.480 . S
C128 N125 1.372 . S
C128 N126 1.361 . S
C128 C136 1.457 . S
C129 N124 1.363 . S
C129 N126 1.377 . S
C129 C142 1.479 . S
C130 C127 1.480 . S
C130 C131 1.383 . S
C130 C135 1.385 . S
C131 H112 0.947 . S
C131 C130 1.383 . S
C131 C132 1.388 . S
C132 H113 0.946 . S
C132 C131 1.388 . S
C132 C133 1.384 . S
C133 C132 1.384 . S
C133 C134 1.377 . S
C134 H114 0.953 . S
C134 C133 1.377 . S
C134 C135 1.369 . S
C135 H115 0.945 . S
C135 C130 1.385 . S
C135 C134 1.369 . S
C136 C128 1.457 . S
C136 C137 1.372 . S
C136 C141 1.364 . S
C137 H116 0.952 . S
C137 C136 1.372 . S
C137 C138 1.389 . S
C138 H117 0.949 . S
C138 C137 1.389 . S
C138 C139 1.387 . S
C139 C138 1.387 . S
C139 C140 1.372 . S
C140 H118 0.950 . S
C140 C139 1.372 . S
C140 C141 1.379 . S
C141 H119 0.948 . S
C141 C136 1.364 . S
C141 C140 1.379 . S
C142 C111 1.383 . S
C142 C129 1.479 . S
C142 C143 1.398 . S
C143 C108 1.382 . S
C143 H120 0.951 . S
C143 C142 1.398 . S
C144 C145 1.384 . S
C144 H157 0.947 . S
C144 C179 1.382 . S
C145 C144 1.384 . S
C145 C146 1.378 . S
C146 C145 1.378 . S
C146 C147 1.378 . S
C146 H158 0.952 . S
C147 C146 1.378 . S
C147 H159 0.950 . S
C147 C178 1.383 . S
H148 C167 0.947 1_556 S
H149 C168 0.946 1_556 S
H150 C170 0.953 . S
H151 C171 0.945 . S
H152 C173 0.952 . S
H153 C174 0.949 . S
H154 C176 0.950 . S
H155 C177 0.948 . S
H156 C179 0.951 . S
H157 C144 0.947 . S
H158 C146 0.952 . S
H159 C147 0.950 . S
N160 C163 1.382 1_556 S
N160 C165 1.363 . S
N161 C163 1.371 . S
N161 C164 1.372 . S
N162 C164 1.361 . S
N162 C165 1.377 1_554 S
C163 N160 1.382 1_554 S
C163 N161 1.371 . S
C163 C166 1.480 . S
C164 N161 1.372 . S
C164 N162 1.361 . S
C164 C172 1.457 . S
C165 N160 1.363 . S
C165 N162 1.377 1_556 S
C165 C178 1.479 . S
C166 C163 1.480 . S
C166 C167 1.383 . S
C166 C171 1.385 . S
C167 H148 0.947 1_554 S
C167 C166 1.383 . S
C167 C168 1.388 . S
C168 H149 0.946 1_554 S
C168 C167 1.388 . S
C168 C169 1.384 . S
C169 C168 1.384 . S
C169 C170 1.377 . S
C170 H150 0.953 . S
C170 C169 1.377 . S
C170 C171 1.369 . S
C171 H151 0.945 . S
C171 C166 1.385 . S
C171 C170 1.369 . S
C172 C164 1.457 . S
C172 C173 1.372 . S
C172 C177 1.364 . S
C173 H152 0.952 . S
C173 C172 1.372 . S
C173 C174 1.389 . S
C174 H153 0.949 . S
C174 C173 1.389 . S
C174 C175 1.387 . S
C175 C174 1.387 . S
C175 C176 1.372 . S
C176 H154 0.950 . S
C176 C175 1.372 . S
C176 C177 1.379 . S
C177 H155 0.948 . S
C177 C172 1.364 . S
C177 C176 1.379 . S
C178 C147 1.383 . S
C178 C165 1.479 . S
C178 C179 1.398 . S
C179 C144 1.382 . S
C179 H156 0.951 . S
C179 C178 1.398 . S
C180 C181 1.384 . S
C180 H193 0.948 1_455 S
C180 C215 1.382 . S
C181 C180 1.384 . S
C181 C182 1.378 . S
C182 C181 1.378 . S
C182 C183 1.378 . S
C182 H194 0.952 . S
C183 C182 1.378 . S
C183 H195 0.950 . S
C183 C214 1.383 . S
H184 C203 0.947 1_556 S
H185 C204 0.949 1_556 S
H186 C206 0.953 . S
H187 C207 0.945 . S
H188 C209 0.947 1_655 S
H189 C210 0.954 . S
H190 C212 0.950 . S
H191 C213 0.948 . S
H192 C215 0.950 1_655 S
H193 C180 0.948 1_655 S
H194 C182 0.952 . S
H195 C183 0.950 . S
N196 C199 1.382 1_556 S
N196 C201 1.363 . S
N197 C199 1.371 . S
N197 C200 1.372 . S
N198 C200 1.361 . S
N198 C201 1.377 1_554 S
C199 N196 1.382 1_554 S
C199 N197 1.371 . S
C199 C202 1.480 . S
C200 N197 1.372 . S
C200 N198 1.361 . S
C200 C208 1.457 . S
C201 N196 1.363 . S
C201 N198 1.377 1_556 S
C201 C214 1.479 . S
C202 C199 1.480 . S
C202 C203 1.383 . S
C202 C207 1.385 . S
C203 H184 0.947 1_554 S
C203 C202 1.383 . S
C203 C204 1.387 1_455 S
C204 H185 0.949 1_554 S
C204 C203 1.387 1_655 S
C204 C205 1.382 1_655 S
C205 C204 1.382 1_455 S
C205 C206 1.377 . S
C206 H186 0.953 . S
C206 C205 1.377 . S
C206 C207 1.369 . S
C207 H187 0.945 . S
C207 C202 1.385 . S
C207 C206 1.369 . S
C208 C200 1.457 . S
C208 C209 1.379 . S
C208 C213 1.364 . S
C209 H188 0.947 1_455 S
C209 C208 1.379 . S
C209 C210 1.387 1_455 S
C210 H189 0.954 . S
C210 C209 1.387 1_655 S
C210 C211 1.384 1_655 S
C211 C210 1.384 1_455 S
C211 C212 1.372 . S
C212 H190 0.950 . S
C212 C211 1.372 . S
C212 C213 1.379 . S
C213 H191 0.948 . S
C213 C208 1.364 . S
C213 C212 1.379 . S
C214 C183 1.383 . S
C214 C201 1.479 . S
C214 C215 1.399 . S
C215 C180 1.382 . S
C215 H192 0.950 1_455 S
C215 C214 1.399 . S
C216 C217 1.384 . S
C216 H229 0.948 1_545 S
C216 C251 1.382 . S
C217 C216 1.384 . S
C217 C218 1.378 . S
C218 C217 1.378 . S
C218 C219 1.378 . S
C218 H230 0.952 . S
C219 C218 1.378 . S
C219 H231 0.950 . S
C219 C250 1.383 . S
H220 C239 0.947 1_556 S
H221 C240 0.949 1_556 S
H222 C242 0.953 . S
H223 C243 0.945 . S
H224 C245 0.947 1_565 S
H225 C246 0.954 . S
H226 C248 0.950 . S
H227 C249 0.948 . S
H228 C251 0.950 1_565 S
H229 C216 0.948 1_565 S
H230 C218 0.952 . S
H231 C219 0.950 . S
N232 C235 1.382 1_556 S
N232 C237 1.363 . S
N233 C235 1.371 . S
N233 C236 1.372 . S
N234 C236 1.361 . S
N234 C237 1.377 1_554 S
C235 N232 1.382 1_554 S
C235 N233 1.371 . S
C235 C238 1.480 . S
C236 N233 1.372 . S
C236 N234 1.361 . S
C236 C244 1.457 . S
C237 N232 1.363 . S
C237 N234 1.377 1_556 S
C237 C250 1.479 . S
C238 C235 1.480 . S
C238 C239 1.383 . S
C238 C243 1.385 . S
C239 H220 0.947 1_554 S
C239 C238 1.383 . S
C239 C240 1.387 1_545 S
C240 H221 0.949 1_554 S
C240 C239 1.387 1_565 S
C240 C241 1.382 1_565 S
C241 C240 1.382 1_545 S
C241 C242 1.377 . S
C242 H222 0.953 . S
C242 C241 1.377 . S
C242 C243 1.369 . S
C243 H223 0.945 . S
C243 C238 1.385 . S
C243 C242 1.369 . S
C244 C236 1.457 . S
C244 C245 1.379 . S
C244 C249 1.364 . S
C245 H224 0.947 1_545 S
C245 C244 1.379 . S
C245 C246 1.387 1_545 S
C246 H225 0.954 . S
C246 C245 1.387 1_565 S
C246 C247 1.384 1_565 S
C247 C246 1.384 1_545 S
C247 C248 1.372 . S
C248 H226 0.950 . S
C248 C247 1.372 . S
C248 C249 1.379 . S
C249 H227 0.948 . S
C249 C244 1.364 . S
C249 C248 1.379 . S
C250 C219 1.383 . S
C250 C237 1.479 . S
C250 C251 1.399 . S
C251 C216 1.382 . S
C251 H228 0.950 1_545 S
C251 C250 1.399 . S
C252 C253 1.384 . S
C252 H265 0.947 . S
C252 C287 1.382 . S
C253 C252 1.384 . S
C253 C254 1.378 . S
C254 C253 1.378 . S
C254 C255 1.378 . S
C254 H266 0.952 . S
C255 C254 1.378 . S
C255 H267 0.950 . S
C255 C286 1.383 . S
H256 C275 0.947 . S
H257 C276 0.946 . S
H258 C278 0.953 1_556 S
H259 C279 0.945 1_556 S
H260 C281 0.952 . S
H261 C282 0.949 . S
H262 C284 0.950 . S
H263 C285 0.948 . S
H264 C287 0.951 . S
H265 C252 0.947 . S
H266 C254 0.952 . S
H267 C255 0.950 . S
N268 C271 1.382 . S
N268 C273 1.363 . S
N269 C271 1.371 1_556 S
N269 C272 1.372 . S
N270 C272 1.361 1_554 S
N270 C273 1.377 . S
C271 N268 1.382 . S
C271 N269 1.371 1_554 S
C271 C274 1.480 . S
C272 N269 1.372 . S
C272 N270 1.361 1_556 S
C272 C280 1.457 . S
C273 N268 1.363 . S
C273 N270 1.377 . S
C273 C286 1.479 . S
C274 C271 1.480 . S
C274 C275 1.383 . S
C274 C279 1.385 . S
C275 H256 0.947 . S
C275 C274 1.383 . S
C275 C276 1.388 . S
C276 H257 0.946 . S
C276 C275 1.388 . S
C276 C277 1.384 . S
C277 C276 1.384 . S
C277 C278 1.377 . S
C278 H258 0.953 1_554 S
C278 C277 1.377 . S
C278 C279 1.369 . S
C279 H259 0.945 1_554 S
C279 C274 1.385 . S
C279 C278 1.369 . S
C280 C272 1.457 . S
C280 C281 1.372 . S
C280 C285 1.364 . S
C281 H260 0.952 . S
C281 C280 1.372 . S
C281 C282 1.389 . S
C282 H261 0.949 . S
C282 C281 1.389 . S
C282 C283 1.387 . S
C283 C282 1.387 . S
C283 C284 1.372 . S
C284 H262 0.950 . S
C284 C283 1.372 . S
C284 C285 1.379 . S
C285 H263 0.948 . S
C285 C280 1.364 . S
C285 C284 1.379 . S
C286 C255 1.383 . S
C286 C273 1.479 . S
C286 C287 1.398 . S
C287 C252 1.382 . S
C287 H264 0.951 . S
C287 C286 1.398 . S
Ho288 C291 2.811 . S
Ho288 O308 2.322 . S
Ho288 O310 2.378 . S
Ho288 O311 2.524 . S
Ho288 O312 2.381 . S
Ho288 O313 2.669 1_565 S
Ho288 O315 2.346 1_565 S
Ho288 O319 2.305 1_455 S
Ho289 C300 2.811 . S
Ho289 O309 2.346 1_545 S
Ho289 O313 2.305 1_655 S
Ho289 O314 2.322 . S
Ho289 O316 2.378 . S
Ho289 O317 2.524 . S
Ho289 O318 2.381 . S
Ho289 O319 2.669 1_545 S
C290 O308 1.259 1_655 S
C290 O309 1.268 . S
C291 Ho288 2.811 . S
C291 C292 1.488 . S
C291 O310 1.215 . S
C291 O311 1.289 . S
C292 C291 1.488 . S
C292 C293 1.348 . S
C292 C297 1.413 . S
C293 C292 1.348 . S
C293 C294 1.442 . S
C293 H320 0.930 1_455 S
C294 C293 1.442 . S
C294 C295 1.381 . S
C294 H321 0.931 1_455 S
C295 C294 1.381 . S
C295 C296 1.321 . S
C296 C295 1.321 . S
C296 C297 1.403 . S
C296 H322 0.934 . S
C297 C292 1.413 . S
C297 C296 1.403 . S
C297 H323 0.930 . S
C298 O312 1.296 . S
C298 O313 1.244 1_565 S
C299 O314 1.259 1_455 S
C299 O315 1.268 . S
C300 Ho289 2.811 . S
C300 C301 1.488 . S
C300 O316 1.215 . S
C300 O317 1.289 . S
C301 C300 1.488 . S
C301 C302 1.348 . S
C301 C306 1.413 . S
C302 C301 1.348 . S
C302 C303 1.442 . S
C302 H324 0.930 1_655 S
C303 C302 1.442 . S
C303 C304 1.381 . S
C303 H325 0.931 1_655 S
C304 C303 1.381 . S
C304 C305 1.321 . S
C305 C304 1.321 . S
C305 C306 1.403 . S
C305 H326 0.934 . S
C306 C301 1.413 . S
C306 C305 1.403 . S
C306 H327 0.930 . S
C307 O318 1.275 . S
C307 O319 1.256 1_545 S
O308 Ho288 2.322 . S
O308 C290 1.259 1_455 S
O309 Ho289 2.346 1_565 S
O309 C290 1.268 . S
O310 Ho288 2.378 . S
O310 C291 1.215 . S
O311 Ho288 2.524 . S
O311 C291 1.289 . S
O312 Ho288 2.381 . S
O312 C298 1.296 . S
O313 Ho288 2.669 1_545 S
O313 Ho289 2.305 1_455 S
O313 C298 1.244 1_545 S
O314 Ho289 2.322 . S
O314 C299 1.259 1_655 S
O315 Ho288 2.346 1_545 S
O315 C299 1.268 . S
O316 Ho289 2.378 . S
O316 C300 1.215 . S
O317 Ho289 2.524 . S
O317 C300 1.289 . S
O318 Ho289 2.381 . S
O318 C307 1.275 . S
O319 Ho288 2.305 1_655 S
O319 Ho289 2.669 1_565 S
O319 C307 1.256 1_565 S
H320 C293 0.930 1_655 S
H321 C294 0.931 1_655 S
H322 C296 0.934 . S
H323 C297 0.930 . S
H324 C302 0.930 1_455 S
H325 C303 0.931 1_455 S
H326 C305 0.934 . S
H327 C306 0.930 . S
Ho328 C331 2.811 . S
Ho328 O348 2.322 . S
Ho328 O350 2.378 . S
Ho328 O351 2.524 . S
Ho328 O352 2.381 . S
Ho328 O353 2.669 . S
Ho328 O355 2.346 . S
Ho328 O359 2.305 1_545 S
Ho329 C340 2.811 . S
Ho329 O349 2.346 . S
Ho329 O353 2.305 1_565 S
Ho329 O354 2.322 . S
Ho329 O356 2.378 . S
Ho329 O357 2.524 . S
Ho329 O358 2.381 . S
Ho329 O359 2.669 . S
C330 O348 1.259 1_565 S
C330 O349 1.268 . S
C331 Ho328 2.811 . S
C331 C332 1.488 . S
C331 O350 1.215 . S
C331 O351 1.289 . S
C332 C331 1.488 . S
C332 C333 1.348 . S
C332 C337 1.413 . S
C333 C332 1.348 . S
C333 C334 1.442 . S
C333 H360 0.930 1_545 S
C334 C333 1.442 . S
C334 C335 1.381 . S
C334 H361 0.931 1_545 S
C335 C334 1.381 . S
C335 C336 1.321 . S
C336 C335 1.321 . S
C336 C337 1.403 . S
C336 H362 0.934 . S
C337 C332 1.413 . S
C337 C336 1.403 . S
C337 H363 0.930 . S
C338 O352 1.275 . S
C338 O353 1.256 . S
C339 O354 1.259 1_545 S
C339 O355 1.268 . S
C340 Ho329 2.811 . S
C340 C341 1.488 . S
C340 O356 1.215 . S
C340 O357 1.289 . S
C341 C340 1.488 . S
C341 C342 1.348 . S
C341 C346 1.413 . S
C342 C341 1.348 . S
C342 C343 1.442 . S
C342 H364 0.930 1_565 S
C343 C342 1.442 . S
C343 C344 1.381 . S
C343 H365 0.931 1_565 S
C344 C343 1.381 . S
C344 C345 1.321 . S
C345 C344 1.321 . S
C345 C346 1.403 . S
C345 H366 0.934 . S
C346 C341 1.413 . S
C346 C345 1.403 . S
C346 H367 0.930 . S
C347 O358 1.275 . S
C347 O359 1.256 . S
O348 Ho328 2.322 . S
O348 C330 1.259 1_545 S
O349 Ho329 2.346 . S
O349 C330 1.268 . S
O350 Ho328 2.378 . S
O350 C331 1.215 . S
O351 Ho328 2.524 . S
O351 C331 1.289 . S
O352 Ho328 2.381 . S
O352 C338 1.275 . S
O353 Ho328 2.669 . S
O353 Ho329 2.305 1_545 S
O353 C338 1.256 . S
O354 Ho329 2.322 . S
O354 C339 1.259 1_565 S
O355 Ho328 2.346 . S
O355 C339 1.268 . S
O356 Ho329 2.378 . S
O356 C340 1.215 . S
O357 Ho329 2.524 . S
O357 C340 1.289 . S
O358 Ho329 2.381 . S
O358 C347 1.275 . S
O359 Ho328 2.305 1_565 S
O359 Ho329 2.669 . S
O359 C347 1.256 . S
H360 C333 0.930 1_565 S
H361 C334 0.931 1_565 S
H362 C336 0.934 . S
H363 C337 0.930 . S
H364 C342 0.930 1_545 S
H365 C343 0.931 1_545 S
H366 C345 0.934 . S
H367 C346 0.930 . S
Ho368 C371 2.811 . S
Ho368 O388 2.322 . S
Ho368 O390 2.378 . S
Ho368 O391 2.524 . S
Ho368 O392 2.381 . S
Ho368 O393 2.669 . S
Ho368 O395 2.346 . S
Ho368 O399 2.305 . S
Ho369 C380 2.811 . S
Ho369 O389 2.346 . S
Ho369 O393 2.305 . S
Ho369 O394 2.322 . S
Ho369 O396 2.378 . S
Ho369 O397 2.524 . S
Ho369 O398 2.381 . S
Ho369 O399 2.669 . S
C370 O388 1.259 . S
C370 O389 1.268 . S
C371 Ho368 2.811 . S
C371 C372 1.488 . S
C371 O390 1.215 . S
C371 O391 1.289 . S
C372 C371 1.488 . S
C372 C373 1.348 . S
C372 C377 1.413 . S
C373 C372 1.348 . S
C373 C374 1.442 . S
C373 H400 0.930 . S
C374 C373 1.442 . S
C374 C375 1.381 . S
C374 H401 0.931 . S
C375 C374 1.381 . S
C375 C376 1.321 . S
C376 C375 1.321 . S
C376 C377 1.403 . S
C376 H402 0.934 . S
C377 C372 1.413 . S
C377 C376 1.403 . S
C377 H403 0.930 . S
C378 O392 1.275 . S
C378 O393 1.256 . S
C379 O394 1.259 . S
C379 O395 1.268 . S
C380 Ho369 2.811 . S
C380 C381 1.488 . S
C380 O396 1.215 . S
C380 O397 1.289 . S
C381 C380 1.488 . S
C381 C382 1.348 . S
C381 C386 1.413 . S
C382 C381 1.348 . S
C382 C383 1.442 . S
C382 H404 0.930 . S
C383 C382 1.442 . S
C383 C384 1.381 . S
C383 H405 0.931 . S
C384 C383 1.381 . S
C384 C385 1.321 . S
C385 C384 1.321 . S
C385 C386 1.403 . S
C385 H406 0.934 . S
C386 C381 1.413 . S
C386 C385 1.403 . S
C386 H407 0.930 . S
C387 O398 1.275 . S
C387 O399 1.256 . S
O388 Ho368 2.322 . S
O388 C370 1.259 . S
O389 Ho369 2.346 . S
O389 C370 1.268 . S
O390 Ho368 2.378 . S
O390 C371 1.215 . S
O391 Ho368 2.524 . S
O391 C371 1.289 . S
O392 Ho368 2.381 . S
O392 C378 1.275 . S
O393 Ho368 2.669 . S
O393 Ho369 2.305 . S
O393 C378 1.256 . S
O394 Ho369 2.322 . S
O394 C379 1.259 . S
O395 Ho368 2.346 . S
O395 C379 1.268 . S
O396 Ho369 2.378 . S
O396 C380 1.215 . S
O397 Ho369 2.524 . S
O397 C380 1.289 . S
O398 Ho369 2.381 . S
O398 C387 1.275 . S
O399 Ho368 2.305 . S
O399 Ho369 2.669 . S
O399 C387 1.256 . S
H400 C373 0.930 . S
H401 C374 0.931 . S
H402 C376 0.934 . S
H403 C377 0.930 . S
H404 C382 0.930 . S
H405 C383 0.931 . S
H406 C385 0.934 . S
H407 C386 0.930 . S
Ho408 C411 2.811 . S
Ho408 O428 2.322 . S
Ho408 O430 2.378 . S
Ho408 O431 2.524 . S
Ho408 O432 2.381 . S
Ho408 O433 2.669 1_655 S
Ho408 O435 2.346 1_655 S
Ho408 O439 2.305 . S
Ho409 C420 2.811 . S
Ho409 O429 2.346 1_455 S
Ho409 O433 2.305 . S
Ho409 O434 2.322 . S
Ho409 O436 2.378 . S
Ho409 O437 2.524 . S
Ho409 O438 2.381 . S
Ho409 O439 2.669 1_455 S
C410 O428 1.259 . S
C410 O429 1.268 . S
C411 Ho408 2.811 . S
C411 C412 1.488 . S
C411 O430 1.215 . S
C411 O431 1.289 . S
C412 C411 1.488 . S
C412 C413 1.348 . S
C412 C417 1.413 . S
C413 C412 1.348 . S
C413 C414 1.442 . S
C413 H440 0.930 . S
C414 C413 1.442 . S
C414 C415 1.381 . S
C414 H441 0.931 . S
C415 C414 1.381 . S
C415 C416 1.321 . S
C416 C415 1.321 . S
C416 C417 1.403 . S
C416 H442 0.934 . S
C417 C412 1.413 . S
C417 C416 1.403 . S
C417 H443 0.930 . S
C418 O432 1.291 . S
C418 O433 1.247 1_655 S
C419 O434 1.259 . S
C419 O435 1.268 . S
C420 Ho409 2.811 . S
C420 C421 1.488 . S
C420 O436 1.215 . S
C420 O437 1.289 . S
C421 C420 1.488 . S
C421 C422 1.348 . S
C421 C426 1.413 . S
C422 C421 1.348 . S
C422 C423 1.442 . S
C422 H444 0.930 . S
C423 C422 1.442 . S
C423 C424 1.381 . S
C423 H445 0.931 . S
C424 C423 1.381 . S
C424 C425 1.321 . S
C425 C424 1.321 . S
C425 C426 1.403 . S
C425 H446 0.934 . S
C426 C421 1.413 . S
C426 C425 1.403 . S
C426 H447 0.930 . S
C427 O438 1.297 . S
C427 O439 1.244 1_455 S
O428 Ho408 2.322 . S
O428 C410 1.259 . S
O429 Ho409 2.346 1_655 S
O429 C410 1.268 . S
O430 Ho408 2.378 . S
O430 C411 1.215 . S
O431 Ho408 2.524 . S
O431 C411 1.289 . S
O432 Ho408 2.381 . S
O432 C418 1.291 . S
O433 Ho408 2.669 1_455 S
O433 Ho409 2.305 . S
O433 C418 1.247 1_455 S
O434 Ho409 2.322 . S
O434 C419 1.259 . S
O435 Ho408 2.346 1_455 S
O435 C419 1.268 . S
O436 Ho409 2.378 . S
O436 C420 1.215 . S
O437 Ho409 2.524 . S
O437 C420 1.289 . S
O438 Ho409 2.381 . S
O438 C427 1.297 . S
O439 Ho408 2.305 . S
O439 Ho409 2.669 1_655 S
O439 C427 1.244 1_655 S
H440 C413 0.930 . S
H441 C414 0.931 . S
H442 C416 0.934 . S
H443 C417 0.930 . S
H444 C422 0.930 . S
H445 C423 0.931 . S
H446 C425 0.934 . S
H447 C426 0.930 . S
H448 C460 0.930 . S
H449 C462 0.930 . S
H450 C463 0.930 . S
H451 C467 0.959 . S
H452 C467 0.959 . S
H453 C467 0.961 . S
H454 C468 0.960 . S
H455 C468 0.961 . S
H456 C468 0.959 . S
H457 C471 0.929 . S
H458 C472 0.931 . S
H459 C474 0.930 . S
C460 H448 0.930 . S
C460 C461 1.372 1_545 S
C460 C465 1.399 . S
C461 C460 1.372 1_565 S
C461 C462 1.410 . S
C462 H449 0.930 . S
C462 C461 1.410 . S
C462 C463 1.388 . S
C463 H450 0.930 . S
C463 C462 1.388 . S
C463 C464 1.390 . S
C464 C463 1.390 . S
C464 C465 1.394 1_565 S
C464 C470 1.465 . S
C465 C460 1.399 . S
C465 C464 1.394 1_545 S
C465 C466 1.516 . S
C466 C465 1.516 . S
C466 C467 1.502 . S
C466 C468 1.561 . S
C466 C469 1.526 . S
C467 H451 0.959 . S
C467 H452 0.959 . S
C467 H453 0.961 . S
C467 C466 1.502 . S
C468 H454 0.960 . S
C468 H455 0.961 . S
C468 H456 0.959 . S
C468 C466 1.561 . S
C469 C466 1.526 . S
C469 C470 1.396 1_545 S
C469 C474 1.390 . S
C470 C464 1.465 . S
C470 C469 1.396 1_565 S
C470 C471 1.399 . S
C471 H457 0.929 . S
C471 C470 1.399 . S
C471 C472 1.385 . S
C472 H458 0.931 . S
C472 C471 1.385 . S
C472 C473 1.399 . S
C473 C472 1.399 . S
C473 C474 1.379 1_565 S
C474 H459 0.930 . S
C474 C469 1.390 . S
C474 C473 1.379 1_545 S
H475 C487 0.930 . S
H476 C489 0.930 . S
H477 C490 0.930 . S
H478 C494 0.959 . S
H479 C494 0.959 . S
H480 C494 0.961 . S
H481 C495 0.960 . S
H482 C495 0.961 . S
H483 C495 0.959 . S
H484 C498 0.929 . S
H485 C499 0.931 . S
H486 C501 0.930 . S
C487 H475 0.930 . S
C487 C488 1.399 . S
C487 C492 1.399 . S
C488 C487 1.399 . S
C488 C489 1.376 . S
C489 H476 0.930 . S
C489 C488 1.376 . S
C489 C490 1.388 . S
C490 H477 0.930 . S
C490 C489 1.388 . S
C490 C491 1.390 . S
C491 C490 1.390 . S
C491 C492 1.394 . S
C491 C497 1.465 . S
C492 C487 1.399 . S
C492 C491 1.394 . S
C492 C493 1.516 . S
C493 C492 1.516 . S
C493 C494 1.502 . S
C493 C495 1.561 . S
C493 C496 1.526 . S
C494 H478 0.959 . S
C494 H479 0.959 . S
C494 H480 0.961 . S
C494 C493 1.502 . S
C495 H481 0.960 . S
C495 H482 0.961 . S
C495 H483 0.959 . S
C495 C493 1.561 . S
C496 C493 1.526 . S
C496 C497 1.396 . S
C496 C501 1.390 . S
C497 C491 1.465 . S
C497 C496 1.396 . S
C497 C498 1.399 . S
C498 H484 0.929 . S
C498 C497 1.399 . S
C498 C499 1.385 . S
C499 H485 0.931 . S
C499 C498 1.385 . S
C499 C500 1.389 . S
C500 C499 1.389 . S
C500 C501 1.387 . S
C501 H486 0.930 . S
C501 C496 1.390 . S
C501 C500 1.387 . S
H502 C514 0.930 . S
H503 C516 0.930 . S
H504 C517 0.930 . S
H505 C521 0.959 . S
H506 C521 0.959 . S
H507 C521 0.961 . S
H508 C522 0.960 . S
H509 C522 0.961 . S
H510 C522 0.959 . S
H511 C525 0.929 . S
H512 C526 0.931 . S
H513 C528 0.930 . S
C514 H502 0.930 . S
C514 C515 1.399 . S
C514 C519 1.399 . S
C515 C514 1.399 . S
C515 C516 1.376 . S
C516 H503 0.930 . S
C516 C515 1.376 . S
C516 C517 1.388 . S
C517 H504 0.930 . S
C517 C516 1.388 . S
C517 C518 1.390 . S
C518 C517 1.390 . S
C518 C519 1.394 . S
C518 C524 1.465 . S
C519 C514 1.399 . S
C519 C518 1.394 . S
C519 C520 1.516 . S
C520 C519 1.516 . S
C520 C521 1.502 . S
C520 C522 1.561 . S
C520 C523 1.526 . S
C521 H505 0.959 . S
C521 H506 0.959 . S
C521 H507 0.961 . S
C521 C520 1.502 . S
C522 H508 0.960 . S
C522 H509 0.961 . S
C522 H510 0.959 . S
C522 C520 1.561 . S
C523 C520 1.526 . S
C523 C524 1.396 . S
C523 C528 1.390 . S
C524 C518 1.465 . S
C524 C523 1.396 . S
C524 C525 1.399 . S
C525 H511 0.929 . S
C525 C524 1.399 . S
C525 C526 1.385 . S
C526 H512 0.931 . S
C526 C525 1.385 . S
C526 C527 1.389 . S
C527 C526 1.389 . S
C527 C528 1.387 . S
C528 H513 0.930 . S
C528 C523 1.390 . S
C528 C527 1.387 . S
H529 C541 0.930 . S
H530 C543 0.930 . S
H531 C544 0.930 . S
H532 C548 0.959 . S
H533 C548 0.959 . S
H534 C548 0.961 . S
H535 C549 0.960 . S
H536 C549 0.961 . S
H537 C549 0.959 1_455 S
H538 C552 0.929 . S
H539 C553 0.931 . S
H540 C555 0.930 . S
C541 H529 0.930 . S
C541 C542 1.399 1_655 S
C541 C546 1.399 . S
C542 C541 1.399 1_455 S
C542 C543 1.376 . S
C543 H530 0.930 . S
C543 C542 1.376 . S
C543 C544 1.388 . S
C544 H531 0.930 . S
C544 C543 1.388 . S
C544 C545 1.390 . S
C545 C544 1.390 . S
C545 C546 1.394 1_455 S
C545 C551 1.465 . S
C546 C541 1.399 . S
C546 C545 1.394 1_655 S
C546 C547 1.516 . S
C547 C546 1.516 . S
C547 C548 1.502 . S
C547 C549 1.561 . S
C547 C550 1.526 . S
C548 H532 0.959 . S
C548 H533 0.959 . S
C548 H534 0.961 . S
C548 C547 1.502 . S
C549 H535 0.960 . S
C549 H536 0.961 . S
C549 H537 0.959 1_655 S
C549 C547 1.561 . S
C550 C547 1.526 . S
C550 C551 1.396 1_655 S
C550 C555 1.390 . S
C551 C545 1.465 . S
C551 C550 1.396 1_455 S
C551 C552 1.399 . S
C552 H538 0.929 . S
C552 C551 1.399 . S
C552 C553 1.385 . S
C553 H539 0.931 . S
C553 C552 1.385 . S
C553 C554 1.389 . S
C554 C553 1.389 . S
C554 C555 1.387 1_455 S
C555 H540 0.930 . S
C555 C550 1.390 . S
C555 C554 1.387 1_655 S
H556 C568 0.930 . S
H557 C570 0.930 . S
H558 C571 0.930 . S
H559 C575 0.959 . S
H560 C575 0.959 . S
H561 C575 0.961 1_554 S
H562 C576 0.960 . S
H563 C576 0.961 . S
H564 C576 0.959 . S
H565 C579 0.929 . S
H566 C580 0.931 . S
H567 C582 0.930 . S
C568 H556 0.930 . S
C568 C569 1.399 1_545 S
C568 C573 1.399 . S
C569 C568 1.399 1_565 S
C569 C570 1.376 . S
C570 H557 0.930 . S
C570 C569 1.376 . S
C570 C571 1.388 . S
C571 H558 0.930 . S
C571 C570 1.388 . S
C571 C572 1.390 . S
C572 C571 1.390 . S
C572 C573 1.394 1_565 S
C572 C578 1.465 . S
C573 C568 1.399 . S
C573 C572 1.394 1_545 S
C573 C574 1.516 . S
C574 C573 1.516 . S
C574 C575 1.502 1_554 S
C574 C576 1.561 . S
C574 C577 1.526 1_554 S
C575 H559 0.959 . S
C575 H560 0.959 . S
C575 H561 0.961 1_556 S
C575 C574 1.502 1_556 S
C576 H562 0.960 . S
C576 H563 0.961 . S
C576 H564 0.959 . S
C576 C574 1.561 . S
C577 C574 1.526 1_556 S
C577 C578 1.396 1_546 S
C577 C582 1.390 . S
C578 C572 1.465 . S
C578 C577 1.396 1_564 S
C578 C579 1.399 1_554 S
C579 H565 0.929 . S
C579 C578 1.399 1_556 S
C579 C580 1.385 . S
C580 H566 0.931 . S
C580 C579 1.385 . S
C580 C581 1.389 . S
C581 C580 1.389 . S
C581 C582 1.387 1_565 S
C582 H567 0.930 . S
C582 C577 1.390 . S
C582 C581 1.387 1_545 S
H583 C595 0.930 . S
H584 C597 0.930 . S
H585 C598 0.930 . S
H586 C602 0.959 1_554 S
H587 C602 0.959 . S
H588 C602 0.961 1_554 S
H589 C603 0.960 1_554 S
H590 C603 0.961 . S
H591 C603 0.959 . S
H592 C606 0.929 1_554 S
H593 C607 0.931 . S
H594 C609 0.930 . S
C595 H583 0.930 . S
C595 C596 1.399 . S
C595 C600 1.399 . S
C596 C595 1.399 . S
C596 C597 1.376 . S
C597 H584 0.930 . S
C597 C596 1.376 . S
C597 C598 1.388 . S
C598 H585 0.930 . S
C598 C597 1.388 . S
C598 C599 1.390 . S
C599 C598 1.390 . S
C599 C600 1.394 . S
C599 C605 1.465 . S
C600 C595 1.399 . S
C600 C599 1.394 . S
C600 C601 1.516 . S
C601 C600 1.516 . S
C601 C602 1.502 1_554 S
C601 C603 1.561 1_554 S
C601 C604 1.526 1_554 S
C602 H586 0.959 1_556 S
C602 H587 0.959 . S
C602 H588 0.961 1_556 S
C602 C601 1.502 1_556 S
C603 H589 0.960 1_556 S
C603 H590 0.961 . S
C603 H591 0.959 . S
C603 C601 1.561 1_556 S
C604 C601 1.526 1_556 S
C604 C605 1.396 1_556 S
C604 C609 1.390 . S
C605 C599 1.465 . S
C605 C604 1.396 1_554 S
C605 C606 1.399 1_554 S
C606 H592 0.929 1_556 S
C606 C605 1.399 1_556 S
C606 C607 1.385 . S
C607 H593 0.931 . S
C607 C606 1.385 . S
C607 C608 1.389 . S
C608 C607 1.389 . S
C608 C609 1.387 . S
C609 H594 0.930 . S
C609 C604 1.390 . S
C609 C608 1.387 . S
H610 C622 0.930 . S
H611 C624 0.930 . S
H612 C625 0.930 . S
H613 C629 0.959 . S
H614 C629 0.959 . S
H615 C629 0.961 . S
H616 C630 0.960 . S
H617 C630 0.961 . S
H618 C630 0.959 . S
H619 C633 0.929 . S
H620 C634 0.931 . S
H621 C636 0.930 . S
C622 H610 0.930 . S
C622 C623 1.399 . S
C622 C627 1.399 . S
C623 C622 1.399 . S
C623 C624 1.376 . S
C624 H611 0.930 . S
C624 C623 1.376 . S
C624 C625 1.388 . S
C625 H612 0.930 . S
C625 C624 1.388 . S
C625 C626 1.390 . S
C626 C625 1.390 . S
C626 C627 1.394 . S
C626 C632 1.465 1_554 S
C627 C622 1.399 . S
C627 C626 1.394 . S
C627 C628 1.516 . S
C628 C627 1.516 . S
C628 C629 1.502 . S
C628 C630 1.561 . S
C628 C631 1.526 1_554 S
C629 H613 0.959 . S
C629 H614 0.959 . S
C629 H615 0.961 . S
C629 C628 1.502 . S
C630 H616 0.960 . S
C630 H617 0.961 . S
C630 H618 0.959 . S
C630 C628 1.561 . S
C631 C628 1.526 1_556 S
C631 C632 1.396 . S
C631 C636 1.390 . S
C632 C626 1.465 1_556 S
C632 C631 1.396 . S
C632 C633 1.399 . S
C633 H619 0.929 . S
C633 C632 1.399 . S
C633 C634 1.385 . S
C634 H620 0.931 . S
C634 C633 1.385 . S
C634 C635 1.389 . S
C635 C634 1.389 . S
C635 C636 1.387 . S
C636 H621 0.930 . S
C636 C631 1.390 . S
C636 C635 1.387 . S
H637 C649 0.930 . S
H638 C651 0.930 . S
H639 C652 0.930 . S
H640 C656 0.959 . S
H641 C656 0.959 . S
H642 C656 0.961 . S
H643 C657 0.960 . S
H644 C657 0.961 . S
H645 C657 0.959 1_655 S
H646 C660 0.929 . S
H647 C661 0.931 . S
H648 C663 0.930 . S
C649 H637 0.930 . S
C649 C650 1.399 1_455 S
C649 C654 1.399 . S
C650 C649 1.399 1_655 S
C650 C651 1.376 . S
C651 H638 0.930 . S
C651 C650 1.376 . S
C651 C652 1.388 . S
C652 H639 0.930 . S
C652 C651 1.388 . S
C652 C653 1.390 . S
C653 C652 1.390 . S
C653 C654 1.394 1_655 S
C653 C659 1.465 1_554 S
C654 C649 1.399 . S
C654 C653 1.394 1_455 S
C654 C655 1.516 . S
C655 C654 1.516 . S
C655 C656 1.502 . S
C655 C657 1.561 . S
C655 C658 1.526 1_554 S
C656 H640 0.959 . S
C656 H641 0.959 . S
C656 H642 0.961 . S
C656 C655 1.502 . S
C657 H643 0.960 . S
C657 H644 0.961 . S
C657 H645 0.959 1_455 S
C657 C655 1.561 . S
C658 C655 1.526 1_556 S
C658 C659 1.396 1_455 S
C658 C663 1.390 . S
C659 C653 1.465 1_556 S
C659 C658 1.396 1_655 S
C659 C660 1.399 . S
C660 H646 0.929 . S
C660 C659 1.399 . S
C660 C661 1.385 . S
C661 H647 0.931 . S
C661 C660 1.385 . S
C661 C662 1.389 . S
C662 C661 1.389 . S
C662 C663 1.387 1_655 S
C663 H648 0.930 . S
C663 C658 1.390 . S
C663 C662 1.387 1_455 S
H664 C676 0.930 . S
H665 C678 0.930 . S
H666 C679 0.930 . S
H667 C683 0.959 . S
H668 C683 0.959 . S
H669 C683 0.961 . S
H670 C684 0.960 . S
H671 C684 0.961 . S
H672 C684 0.959 1_455 S
H673 C687 0.929 . S
H674 C688 0.931 . S
H675 C690 0.930 . S
C676 H664 0.930 . S
C676 C677 1.399 1_655 S
C676 C681 1.399 . S
C677 C676 1.399 1_455 S
C677 C678 1.376 . S
C678 H665 0.930 . S
C678 C677 1.376 . S
C678 C679 1.388 . S
C679 H666 0.930 . S
C679 C678 1.388 . S
C679 C680 1.390 1_455 S
C680 C679 1.390 1_655 S
C680 C681 1.394 . S
C680 C686 1.465 . S
C681 C676 1.399 . S
C681 C680 1.394 . S
C681 C682 1.516 . S
C682 C681 1.516 . S
C682 C683 1.502 . S
C682 C684 1.561 . S
C682 C685 1.526 . S
C683 H667 0.959 . S
C683 H668 0.959 . S
C683 H669 0.961 . S
C683 C682 1.502 . S
C684 H670 0.960 . S
C684 H671 0.961 . S
C684 H672 0.959 1_655 S
C684 C682 1.561 . S
C685 C682 1.526 . S
C685 C686 1.396 . S
C685 C690 1.390 . S
C686 C680 1.465 . S
C686 C685 1.396 . S
C686 C687 1.399 . S
C687 H673 0.929 . S
C687 C686 1.399 . S
C687 C688 1.385 . S
C688 H674 0.931 . S
C688 C687 1.385 . S
C688 C689 1.389 . S
C689 C688 1.389 . S
C689 C690 1.387 . S
C690 H675 0.930 . S
C690 C685 1.390 . S
C690 C689 1.387 . S
H691 C703 0.930 . S
H692 C705 0.930 . S
H693 C706 0.930 . S
H694 C710 0.959 . S
H695 C710 0.959 . S
H696 C710 0.961 . S
H697 C711 0.960 . S
H698 C711 0.961 . S
H699 C711 0.959 . S
H700 C714 0.945 . S
H701 C715 0.931 . S
H702 C717 0.930 . S
C703 H691 0.930 . S
C703 C704 1.399 1_565 S
C703 C708 1.399 . S
C704 C703 1.399 1_545 S
C704 C705 1.376 . S
C705 H692 0.930 . S
C705 C704 1.376 . S
C705 C706 1.388 . S
C706 H693 0.930 . S
C706 C705 1.388 . S
C706 C707 1.390 1_545 S
C707 C706 1.390 1_565 S
C707 C708 1.394 . S
C707 C713 1.465 . S
C708 C703 1.399 . S
C708 C707 1.394 . S
C708 C709 1.516 . S
C709 C708 1.516 . S
C709 C710 1.502 . S
C709 C711 1.561 . S
C709 C712 1.526 . S
C710 H694 0.959 . S
C710 H695 0.959 . S
C710 H696 0.961 . S
C710 C709 1.502 . S
C711 H697 0.960 . S
C711 H698 0.961 . S
C711 H699 0.959 . S
C711 C709 1.561 . S
C712 C709 1.526 . S
C712 C713 1.396 . S
C712 C717 1.390 . S
C713 C707 1.465 . S
C713 C712 1.396 . S
C713 C714 1.391 1_565 S
C714 H700 0.945 . S
C714 C713 1.391 1_545 S
C714 C715 1.376 1_545 S
C715 H701 0.931 . S
C715 C714 1.376 1_565 S
C715 C716 1.389 . S
C716 C715 1.389 . S
C716 C717 1.387 . S
C717 H702 0.930 . S
C717 C712 1.390 . S
C717 C716 1.387 . S
H718 C730 0.930 . S
H719 C732 0.930 . S
H720 C733 0.930 . S
H721 C737 0.959 . S
H722 C737 0.959 . S
H723 C737 0.961 . S
H724 C738 0.960 . S
H725 C738 0.961 . S
H726 C738 0.959 . S
H727 C741 0.929 . S
H728 C742 0.931 . S
H729 C744 0.930 . S
C730 H718 0.930 . S
C730 C731 1.399 . S
C730 C735 1.399 . S
C731 C730 1.399 . S
C731 C732 1.376 . S
C732 H719 0.930 . S
C732 C731 1.376 . S
C732 C733 1.388 . S
C733 H720 0.930 . S
C733 C732 1.388 . S
C733 C734 1.390 . S
C734 C733 1.390 . S
C734 C735 1.394 . S
C734 C740 1.465 . S
C735 C730 1.399 . S
C735 C734 1.394 . S
C735 C736 1.516 . S
C736 C735 1.516 . S
C736 C737 1.502 . S
C736 C738 1.561 . S
C736 C739 1.526 . S
C737 H721 0.959 . S
C737 H722 0.959 . S
C737 H723 0.961 . S
C737 C736 1.502 . S
C738 H724 0.960 . S
C738 H725 0.961 . S
C738 H726 0.959 . S
C738 C736 1.561 . S
C739 C736 1.526 . S
C739 C740 1.396 . S
C739 C744 1.390 . S
C740 C734 1.465 . S
C740 C739 1.396 . S
C740 C741 1.399 . S
C741 H727 0.929 . S
C741 C740 1.399 . S
C741 C742 1.385 . S
C742 H728 0.931 . S
C742 C741 1.385 . S
C742 C743 1.389 . S
C743 C742 1.389 . S
C743 C744 1.387 . S
C744 H729 0.930 . S
C744 C739 1.390 . S
C744 C743 1.387 . S
H745 C757 0.930 . S
H746 C759 0.930 . S
H747 C760 0.930 . S
H748 C764 0.959 . S
H749 C764 0.959 . S
H750 C764 0.961 . S
H751 C765 0.960 . S
H752 C765 0.961 . S
H753 C765 0.959 . S
H754 C768 0.929 . S
H755 C769 0.931 . S
H756 C771 0.930 . S
C757 H745 0.930 . S
C757 C758 1.399 . S
C757 C762 1.399 . S
C758 C757 1.399 . S
C758 C759 1.376 . S
C759 H746 0.930 . S
C759 C758 1.376 . S
C759 C760 1.388 . S
C760 H747 0.930 . S
C760 C759 1.388 . S
C760 C761 1.390 . S
C761 C760 1.390 . S
C761 C762 1.394 . S
C761 C767 1.465 . S
C762 C757 1.399 . S
C762 C761 1.394 . S
C762 C763 1.516 . S
C763 C762 1.516 . S
C763 C764 1.502 . S
C763 C765 1.561 . S
C763 C766 1.526 . S
C764 H748 0.959 . S
C764 H749 0.959 . S
C764 H750 0.961 . S
C764 C763 1.502 . S
C765 H751 0.960 . S
C765 H752 0.961 . S
C765 H753 0.959 . S
C765 C763 1.561 . S
C766 C763 1.526 . S
C766 C767 1.396 . S
C766 C771 1.390 . S
C767 C761 1.465 . S
C767 C766 1.396 . S
C767 C768 1.399 . S
C768 H754 0.929 . S
C768 C767 1.399 . S
C768 C769 1.385 . S
C769 H755 0.931 . S
C769 C768 1.385 . S
C769 C770 1.389 . S
C770 C769 1.389 . S
C770 C771 1.387 . S
C771 H756 0.930 . S
C771 C766 1.390 . S
C771 C770 1.387 . S
H772 C784 0.930 . S
H773 C786 0.930 . S
H774 C787 0.930 . S
H775 C791 0.959 . S
H776 C791 0.959 . S
H777 C791 0.961 . S
H778 C792 0.957 1_655 S
H779 C792 0.961 . S
H780 C792 0.959 1_655 S
H781 C795 0.929 . S
H782 C796 0.931 . S
H783 C798 0.930 . S
C784 H772 0.930 . S
C784 C785 1.399 1_455 S
C784 C789 1.399 . S
C785 C784 1.399 1_655 S
C785 C786 1.376 . S
C786 H773 0.930 . S
C786 C785 1.376 . S
C786 C787 1.388 . S
C787 H774 0.930 . S
C787 C786 1.388 . S
C787 C788 1.390 1_655 S
C788 C787 1.390 1_455 S
C788 C789 1.394 . S
C788 C794 1.465 . S
C789 C784 1.399 . S
C789 C788 1.394 . S
C789 C790 1.516 1_554 S
C790 C789 1.516 1_556 S
C790 C791 1.502 . S
C790 C792 1.561 . S
C790 C793 1.526 . S
C791 H775 0.959 . S
C791 H776 0.959 . S
C791 H777 0.961 . S
C791 C790 1.502 . S
C792 H778 0.957 1_455 S
C792 H779 0.961 . S
C792 H780 0.959 1_455 S
C792 C790 1.561 . S
C793 C790 1.526 . S
C793 C794 1.396 1_556 S
C793 C798 1.390 . S
C794 C788 1.465 . S
C794 C793 1.396 1_554 S
C794 C795 1.399 . S
C795 H781 0.929 . S
C795 C794 1.399 . S
C795 C796 1.385 . S
C796 H782 0.931 . S
C796 C795 1.385 . S
C796 C797 1.389 1_554 S
C797 C796 1.389 1_556 S
C797 C798 1.387 . S
C798 H783 0.930 . S
C798 C793 1.390 . S
C798 C797 1.387 . S
H799 C811 0.930 . S
H800 C813 0.930 . S
H801 C814 0.930 . S
H802 C818 0.959 . S
H803 C818 0.959 . S
H804 C818 0.961 1_554 S
H805 C819 0.960 . S
H806 C819 0.961 . S
H807 C819 0.959 . S
H808 C822 0.929 . S
H809 C823 0.931 . S
H810 C825 0.930 . S
C811 H799 0.930 . S
C811 C812 1.400 1_565 S
C811 C816 1.375 1_565 S
C812 C811 1.400 1_545 S
C812 C813 1.375 . S
C813 H800 0.930 . S
C813 C812 1.375 . S
C813 C814 1.388 . S
C814 H801 0.930 . S
C814 C813 1.388 . S
C814 C815 1.390 . S
C815 C814 1.390 . S
C815 C816 1.440 . S
C815 C821 1.465 . S
C816 C811 1.375 1_545 S
C816 C815 1.440 . S
C816 C817 1.502 1_545 S
C817 C816 1.502 1_565 S
C817 C818 1.502 1_554 S
C817 C819 1.561 . S
C817 C820 1.526 1_565 S
C818 H802 0.959 . S
C818 H803 0.959 . S
C818 H804 0.961 1_556 S
C818 C817 1.502 1_556 S
C819 H805 0.960 . S
C819 H806 0.961 . S
C819 H807 0.959 . S
C819 C817 1.561 . S
C820 C817 1.526 1_545 S
C820 C821 1.396 . S
C820 C825 1.390 1_554 S
C821 C815 1.465 . S
C821 C820 1.396 . S
C821 C822 1.399 . S
C822 H808 0.929 . S
C822 C821 1.399 . S
C822 C823 1.385 1_554 S
C823 H809 0.931 . S
C823 C822 1.385 1_556 S
C823 C824 1.389 . S
C824 C823 1.389 . S
C824 C825 1.387 . S
C825 H810 0.930 . S
C825 C820 1.390 1_556 S
C825 C824 1.387 . S
H826 C838 0.930 . S
H827 C840 0.930 . S
H828 C841 0.930 . S
H829 C845 0.959 . S
H830 C845 0.959 . S
H831 C845 0.961 . S
H832 C846 0.960 . S
H833 C846 0.961 . S
H834 C846 0.959 . S
H835 C849 0.929 . S
H836 C850 0.931 . S
H837 C852 0.930 . S
C838 H826 0.930 . S
C838 C839 1.399 . S
C838 C843 1.399 . S
C839 C838 1.399 . S
C839 C840 1.376 . S
C840 H827 0.930 . S
C840 C839 1.376 . S
C840 C841 1.388 1_554 S
C841 H828 0.930 . S
C841 C840 1.388 1_556 S
C841 C842 1.390 1_556 S
C842 C841 1.390 1_554 S
C842 C843 1.394 . S
C842 C848 1.465 1_554 S
C843 C838 1.399 . S
C843 C842 1.394 . S
C843 C844 1.516 . S
C844 C843 1.516 . S
C844 C845 1.502 . S
C844 C846 1.561 . S
C844 C847 1.526 . S
C845 H829 0.959 . S
C845 H830 0.959 . S
C845 H831 0.961 . S
C845 C844 1.502 . S
C846 H832 0.960 . S
C846 H833 0.961 . S
C846 H834 0.959 . S
C846 C844 1.561 . S
C847 C844 1.526 . S
C847 C848 1.396 1_554 S
C847 C852 1.390 . S
C848 C842 1.465 1_556 S
C848 C847 1.396 1_556 S
C848 C849 1.399 . S
C849 H835 0.929 . S
C849 C848 1.399 . S
C849 C850 1.385 . S
C850 H836 0.931 . S
C850 C849 1.385 . S
C850 C851 1.389 . S
C851 C850 1.389 . S
C851 C852 1.387 1_556 S
C852 H837 0.930 . S
C852 C847 1.390 . S
C852 C851 1.387 1_554 S
H853 C865 0.930 . S
H854 C867 0.930 . S
H855 C868 0.930 1_556 S
H856 C872 0.959 . S
H857 C872 0.959 . S
H858 C872 0.961 . S
H859 C873 0.960 . S
H860 C873 0.961 . S
H861 C873 0.959 . S
H862 C876 0.929 . S
H863 C877 0.931 . S
H864 C879 0.930 . S
C865 H853 0.930 . S
C865 C866 1.399 . S
C865 C870 1.399 . S
C866 C865 1.399 . S
C866 C867 1.376 . S
C867 H854 0.930 . S
C867 C866 1.376 . S
C867 C868 1.388 . S
C868 H855 0.930 1_554 S
C868 C867 1.388 . S
C868 C869 1.390 . S
C869 C868 1.390 . S
C869 C870 1.394 . S
C869 C875 1.465 1_554 S
C870 C865 1.399 . S
C870 C869 1.394 . S
C870 C871 1.516 . S
C871 C870 1.516 . S
C871 C872 1.502 . S
C871 C873 1.561 . S
C871 C874 1.526 . S
C872 H856 0.959 . S
C872 H857 0.959 . S
C872 H858 0.961 . S
C872 C871 1.502 . S
C873 H859 0.960 . S
C873 H860 0.961 . S
C873 H861 0.959 . S
C873 C871 1.561 . S
C874 C871 1.526 . S
C874 C875 1.396 1_554 S
C874 C879 1.390 . S
C875 C869 1.465 1_556 S
C875 C874 1.396 1_556 S
C875 C876 1.399 . S
C876 H862 0.929 . S
C876 C875 1.399 . S
C876 C877 1.385 . S
C877 H863 0.931 . S
C877 C876 1.385 . S
C877 C878 1.389 . S
C878 C877 1.389 . S
C878 C879 1.387 1_556 S
C879 H864 0.930 . S
C879 C874 1.390 . S
C879 C878 1.387 1_554 S
H880 C892 0.930 1_655 S
H881 C894 0.930 . S
H882 C895 0.930 . S
H883 C899 0.959 . S
H884 C899 0.959 . S
H885 C899 0.961 . S
H886 C900 0.960 . S
H887 C900 0.961 . S
H888 C900 0.959 . S
H889 C903 0.929 . S
H890 C904 0.931 . S
H891 C906 0.930 . S
C892 H880 0.930 1_455 S
C892 C893 1.399 . S
C892 C897 1.399 . S
C893 C892 1.399 . S
C893 C894 1.376 . S
C894 H881 0.930 . S
C894 C893 1.376 . S
C894 C895 1.388 . S
C895 H882 0.930 . S
C895 C894 1.388 . S
C895 C896 1.390 . S
C896 C895 1.390 . S
C896 C897 1.394 . S
C896 C902 1.465 . S
C897 C892 1.399 . S
C897 C896 1.394 . S
C897 C898 1.516 . S
C898 C897 1.516 . S
C898 C899 1.502 1_455 S
C898 C900 1.561 . S
C898 C901 1.526 . S
C899 H883 0.959 . S
C899 H884 0.959 . S
C899 H885 0.961 . S
C899 C898 1.502 1_655 S
C900 H886 0.960 . S
C900 H887 0.961 . S
C900 H888 0.959 . S
C900 C898 1.561 . S
C901 C898 1.526 . S
C901 C902 1.396 . S
C901 C906 1.390 . S
C902 C896 1.465 . S
C902 C901 1.396 . S
C902 C903 1.399 . S
C903 H889 0.929 . S
C903 C902 1.399 . S
C903 C904 1.385 . S
C904 H890 0.931 . S
C904 C903 1.385 . S
C904 C905 1.389 . S
C905 C904 1.389 . S
C905 C906 1.387 . S
C906 H891 0.930 . S
C906 C901 1.390 . S
C906 C905 1.387 . S
H907 C919 0.930 . S
H908 C921 0.930 . S
H909 C922 0.930 . S
H910 C926 0.959 1_545 S
H911 C926 0.959 . S
H912 C926 0.961 . S
H913 C927 0.960 . S
H914 C927 0.961 . S
H915 C927 0.959 . S
H916 C930 0.929 . S
H917 C931 0.931 . S
H918 C933 0.930 . S
C919 H907 0.930 . S
C919 C920 1.399 1_565 S
C919 C924 1.399 . S
C920 C919 1.399 1_545 S
C920 C921 1.376 . S
C921 H908 0.930 . S
C921 C920 1.376 . S
C921 C922 1.388 . S
C922 H909 0.930 . S
C922 C921 1.388 . S
C922 C923 1.390 . S
C923 C922 1.390 . S
C923 C924 1.394 1_545 S
C923 C929 1.465 . S
C924 C919 1.399 . S
C924 C923 1.394 1_565 S
C924 C925 1.516 . S
C925 C924 1.516 . S
C925 C926 1.502 . S
C925 C927 1.561 . S
C925 C928 1.549 . S
C926 H910 0.959 1_565 S
C926 H911 0.959 . S
C926 H912 0.961 . S
C926 C925 1.502 . S
C927 H913 0.960 . S
C927 H914 0.961 . S
C927 H915 0.959 . S
C927 C925 1.561 . S
C928 C925 1.549 . S
C928 C929 1.370 1_565 S
C928 C933 1.392 . S
C929 C923 1.465 . S
C929 C928 1.370 1_545 S
C929 C930 1.399 . S
C930 H916 0.929 . S
C930 C929 1.399 . S
C930 C931 1.385 . S
C931 H917 0.931 . S
C931 C930 1.385 . S
C931 C932 1.389 . S
C932 C931 1.389 . S
C932 C933 1.387 1_545 S
C933 H918 0.930 . S
C933 C928 1.392 . S
C933 C932 1.387 1_565 S
H934 C946 0.930 . S
H935 C948 0.930 . S
H936 C949 0.930 . S
H937 C953 0.959 . S
H938 C953 0.959 . S
H939 C953 0.961 . S
H940 C954 0.960 . S
H941 C954 0.961 . S
H942 C954 0.959 . S
H943 C957 0.929 . S
H944 C958 0.931 . S
H945 C960 0.930 . S
C946 H934 0.930 . S
C946 C947 1.399 . S
C946 C951 1.399 . S
C947 C946 1.399 . S
C947 C948 1.376 . S
C948 H935 0.930 . S
C948 C947 1.376 . S
C948 C949 1.388 . S
C949 H936 0.930 . S
C949 C948 1.388 . S
C949 C950 1.390 . S
C950 C949 1.390 . S
C950 C951 1.394 . S
C950 C956 1.465 . S
C951 C946 1.399 . S
C951 C950 1.394 . S
C951 C952 1.516 . S
C952 C951 1.516 . S
C952 C953 1.502 . S
C952 C954 1.561 . S
C952 C955 1.526 . S
C953 H937 0.959 . S
C953 H938 0.959 . S
C953 H939 0.961 . S
C953 C952 1.502 . S
C954 H940 0.960 . S
C954 H941 0.961 . S
C954 H942 0.959 . S
C954 C952 1.561 . S
C955 C952 1.526 . S
C955 C956 1.396 . S
C955 C960 1.390 . S
C956 C950 1.465 . S
C956 C955 1.396 . S
C956 C957 1.399 . S
C957 H943 0.929 . S
C957 C956 1.399 . S
C957 C958 1.385 . S
C958 H944 0.931 . S
C958 C957 1.385 . S
C958 C959 1.389 . S
C959 C958 1.389 . S
C959 C960 1.387 . S
C960 H945 0.930 . S
C960 C955 1.390 . S
C960 C959 1.387 . S
H961 C973 0.930 . S
H962 C975 0.930 . S
H963 C976 0.930 . S
H964 C980 0.959 . S
H965 C980 0.959 . S
H966 C980 0.961 . S
H967 C981 0.960 . S
H968 C981 0.961 . S
H969 C981 0.959 . S
H970 C984 0.929 . S
H971 C985 0.931 . S
H972 C987 0.930 . S
C973 H961 0.930 . S
C973 C974 1.399 . S
C973 C978 1.399 . S
C974 C973 1.399 . S
C974 C975 1.376 . S
C975 H962 0.930 . S
C975 C974 1.376 . S
C975 C976 1.388 . S
C976 H963 0.930 . S
C976 C975 1.388 . S
C976 C977 1.390 . S
C977 C976 1.390 . S
C977 C978 1.394 . S
C977 C983 1.465 . S
C978 C973 1.399 . S
C978 C977 1.394 . S
C978 C979 1.516 . S
C979 C978 1.516 . S
C979 C980 1.502 . S
C979 C981 1.561 . S
C979 C982 1.526 . S
C980 H964 0.959 . S
C980 H965 0.959 . S
C980 H966 0.961 . S
C980 C979 1.502 . S
C981 H967 0.960 . S
C981 H968 0.961 . S
C981 H969 0.959 . S
C981 C979 1.561 . S
C982 C979 1.526 . S
C982 C983 1.396 . S
C982 C987 1.390 . S
C983 C977 1.465 . S
C983 C982 1.396 . S
C983 C984 1.399 . S
C984 H970 0.929 . S
C984 C983 1.399 . S
C984 C985 1.385 . S
C985 H971 0.931 . S
C985 C984 1.385 . S
C985 C986 1.389 . S
C986 C985 1.389 . S
C986 C987 1.387 . S
C987 H972 0.930 . S
C987 C982 1.390 . S
C987 C986 1.387 . S
H988 C1000 0.930 . S
H989 C1002 0.930 . S
H990 C1003 0.930 . S
H991 C1007 0.959 . S
H992 C1007 0.959 . S
H993 C1007 0.961 . S
H994 C1008 0.960 . S
H995 C1008 0.961 . S
H996 C1008 0.959 . S
H997 C1011 0.929 . S
H998 C1012 0.931 . S
H999 C1014 0.930 1_455 S
C1000 H988 0.930 . S
C1000 C1001 1.399 1_455 S
C1000 C1005 1.399 1_455 S
C1001 C1000 1.399 1_655 S
C1001 C1002 1.376 . S
C1002 H989 0.930 . S
C1002 C1001 1.376 . S
C1002 C1003 1.388 . S
C1003 H990 0.930 . S
C1003 C1002 1.388 . S
C1003 C1004 1.390 . S
C1004 C1003 1.390 . S
C1004 C1005 1.394 . S
C1004 C1010 1.465 . S
C1005 C1000 1.399 1_655 S
C1005 C1004 1.394 . S
C1005 C1006 1.516 1_655 S
C1006 C1005 1.516 1_455 S
C1006 C1007 1.502 . S
C1006 C1008 1.561 1_455 S
C1006 C1009 1.526 1_455 S
C1007 H991 0.959 . S
C1007 H992 0.959 . S
C1007 H993 0.961 . S
C1007 C1006 1.502 . S
C1008 H994 0.960 . S
C1008 H995 0.961 . S
C1008 H996 0.959 . S
C1008 C1006 1.561 1_655 S
C1009 C1006 1.526 1_655 S
C1009 C1010 1.396 . S
C1009 C1014 1.390 . S
C1010 C1004 1.465 . S
C1010 C1009 1.396 . S
C1010 C1011 1.399 . S
C1011 H997 0.929 . S
C1011 C1010 1.399 . S
C1011 C1012 1.385 . S
C1012 H998 0.931 . S
C1012 C1011 1.385 . S
C1012 C1013 1.389 . S
C1013 C1012 1.389 . S
C1013 C1014 1.387 . S
C1014 H999 0.930 1_655 S
C1014 C1009 1.390 . S
C1014 C1013 1.387 . S
H1015 C1027 0.930 . S
H1016 C1029 0.930 . S
H1017 C1030 0.930 . S
H1018 C1034 0.959 . S
H1019 C1034 0.959 . S
H1020 C1034 0.961 . S
H1021 C1035 0.960 . S
H1022 C1035 0.961 . S
H1023 C1035 0.959 . S
H1024 C1038 0.929 . S
H1025 C1039 0.931 . S
H1026 C1041 0.930 . S
C1027 H1015 0.930 . S
C1027 C1028 1.399 . S
C1027 C1032 1.399 . S
C1028 C1027 1.399 . S
C1028 C1029 1.377 1_565 S
C1029 H1016 0.930 . S
C1029 C1028 1.377 1_545 S
C1029 C1030 1.388 . S
C1030 H1017 0.930 . S
C1030 C1029 1.388 . S
C1030 C1031 1.390 . S
C1031 C1030 1.390 . S
C1031 C1032 1.394 1_545 S
C1031 C1037 1.465 . S
C1032 C1027 1.399 . S
C1032 C1031 1.394 1_565 S
C1032 C1033 1.516 . S
C1033 C1032 1.516 . S
C1033 C1034 1.502 . S
C1033 C1035 1.561 . S
C1033 C1036 1.526 . S
C1034 H1018 0.959 . S
C1034 H1019 0.959 . S
C1034 H1020 0.961 . S
C1034 C1033 1.502 . S
C1035 H1021 0.960 . S
C1035 H1022 0.961 . S
C1035 H1023 0.959 . S
C1035 C1033 1.561 . S
C1036 C1033 1.526 . S
C1036 C1037 1.396 1_565 S
C1036 C1041 1.390 . S
C1037 C1031 1.465 . S
C1037 C1036 1.396 1_545 S
C1037 C1038 1.399 . S
C1038 H1024 0.929 . S
C1038 C1037 1.399 . S
C1038 C1039 1.385 . S
C1039 H1025 0.931 . S
C1039 C1038 1.385 . S
C1039 C1040 1.389 1_545 S
C1040 C1039 1.389 1_565 S
C1040 C1041 1.387 . S
C1041 H1026 0.930 . S
C1041 C1036 1.390 . S
C1041 C1040 1.387 . S
H1042 C1054 0.930 . S
H1043 C1056 0.930 . S
H1044 C1057 0.930 . S
H1045 C1061 0.959 . S
H1046 C1061 0.959 . S
H1047 C1061 0.961 . S
H1048 C1062 0.960 . S
H1049 C1062 0.961 . S
H1050 C1062 0.959 . S
H1051 C1065 0.929 . S
H1052 C1066 0.931 . S
H1053 C1068 0.930 . S
C1054 H1042 0.930 . S
C1054 C1055 1.399 . S
C1054 C1059 1.399 . S
C1055 C1054 1.399 . S
C1055 C1056 1.376 . S
C1056 H1043 0.930 . S
C1056 C1055 1.376 . S
C1056 C1057 1.388 . S
C1057 H1044 0.930 . S
C1057 C1056 1.388 . S
C1057 C1058 1.390 . S
C1058 C1057 1.390 . S
C1058 C1059 1.394 . S
C1058 C1064 1.465 . S
C1059 C1054 1.399 . S
C1059 C1058 1.394 . S
C1059 C1060 1.516 . S
C1060 C1059 1.516 . S
C1060 C1061 1.502 . S
C1060 C1062 1.561 . S
C1060 C1063 1.526 . S
C1061 H1045 0.959 . S
C1061 H1046 0.959 . S
C1061 H1047 0.961 . S
C1061 C1060 1.502 . S
C1062 H1048 0.960 . S
C1062 H1049 0.961 . S
C1062 H1050 0.959 . S
C1062 C1060 1.561 . S
C1063 C1060 1.526 . S
C1063 C1064 1.396 . S
C1063 C1068 1.390 . S
C1064 C1058 1.465 . S
C1064 C1063 1.396 . S
C1064 C1065 1.399 . S
C1065 H1051 0.929 . S
C1065 C1064 1.399 . S
C1065 C1066 1.385 . S
C1066 H1052 0.931 . S
C1066 C1065 1.385 . S
C1066 C1067 1.389 . S
C1067 C1066 1.389 . S
C1067 C1068 1.387 . S
C1068 H1053 0.930 . S
C1068 C1063 1.390 . S
C1068 C1067 1.387 . S
H1069 C1081 0.930 . S
H1070 C1083 0.930 . S
H1071 C1084 0.930 . S
H1072 C1088 0.959 . S
H1073 C1088 0.959 . S
H1074 C1088 0.961 . S
H1075 C1089 0.960 . S
H1076 C1089 0.961 . S
H1077 C1089 0.959 . S
H1078 C1092 0.929 . S
H1079 C1093 0.931 . S
H1080 C1095 0.930 . S
C1081 H1069 0.930 . S
C1081 C1082 1.399 . S
C1081 C1086 1.399 . S
C1082 C1081 1.399 . S
C1082 C1083 1.376 . S
C1083 H1070 0.930 . S
C1083 C1082 1.376 . S
C1083 C1084 1.388 . S
C1084 H1071 0.930 . S
C1084 C1083 1.388 . S
C1084 C1085 1.390 . S
C1085 C1084 1.390 . S
C1085 C1086 1.394 . S
C1085 C1091 1.465 . S
C1086 C1081 1.399 . S
C1086 C1085 1.394 . S
C1086 C1087 1.516 . S
C1087 C1086 1.516 . S
C1087 C1088 1.502 . S
C1087 C1089 1.561 . S
C1087 C1090 1.526 . S
C1088 H1072 0.959 . S
C1088 H1073 0.959 . S
C1088 H1074 0.961 . S
C1088 C1087 1.502 . S
C1089 H1075 0.960 . S
C1089 H1076 0.961 . S
C1089 H1077 0.959 . S
C1089 C1087 1.561 . S
C1090 C1087 1.526 . S
C1090 C1091 1.396 . S
C1090 C1095 1.390 . S
C1091 C1085 1.465 . S
C1091 C1090 1.396 . S
C1091 C1092 1.399 . S
C1092 H1078 0.929 . S
C1092 C1091 1.399 . S
C1092 C1093 1.385 . S
C1093 H1079 0.931 . S
C1093 C1092 1.385 . S
C1093 C1094 1.389 . S
C1094 C1093 1.389 . S
C1094 C1095 1.387 . S
C1095 H1080 0.930 . S
C1095 C1090 1.390 . S
C1095 C1094 1.387 . S
C461 C241 2.136 1_565 S
C473 C298 2.312 . S
C500 C338 2.349 . S
C488 C277 2.194 . S
C527 C378 2.343 . S
C515 C169 2.063 . S
C554 C418 2.338 1_455 S
C542 C205 2.115 . S
C581 C307 2.333 1_565 S
C569 C97 2.135 1_565 S
C596 C133 2.204 . S
C608 C347 2.337 . S
C623 C25 2.060 . S
C635 C387 2.333 . S
C650 C61 2.096 1_655 S
C662 C427 2.346 1_655 S
C689 C304 0.397 . S
C677 C211 0.533 . S
C716 C344 0.343 . S
C704 C247 0.483 . S
C743 C384 0.501 . S
C731 C253 0.344 . S
C758 C175 0.368 . S
C770 C424 0.554 . S
C785 C67 0.505 1_655 S
C797 C295 0.430 . S
C824 C335 0.574 . S
C812 C103 0.371 . S
C851 C375 0.453 . S
C839 C109 0.467 . S
C866 C31 0.606 . S
C878 C415 0.388 . S
C893 C181 2.806 . S
C905 C299 3.211 . S
C920 C217 2.857 . S
C932 C339 3.196 . S
C959 C379 3.195 . S
C947 C283 2.798 . S
C986 C419 3.188 . S
C974 C145 2.792 . S
C1001 C37 2.873 1_655 S
C1013 C290 3.217 . S
C1040 C330 3.184 . S
C1028 C73 2.820 1_565 S
C1067 C370 3.207 . S
C1055 C139 2.714 . S
C1082 C1 2.837 . S
C1094 C410 3.214 . S
