# Generated by pormake.
# Topology zzz, (3,6)-cn, num edge types: 1
# Building blocks:
#     Node 0, Type 0, BuildingBlock: PAMTOO_clean_linker_0, # of connection points: 3
#     Node 1, Type 0, BuildingBlock: PAMTOO_clean_linker_0, # of connection points: 3
#     Node 2, Type 0, BuildingBlock: PAMTOO_clean_linker_0, # of connection points: 3
#     Node 3, Type 0, BuildingBlock: PAMTOO_clean_linker_0, # of connection points: 3
#     Node 4, Type 0, BuildingBlock: PAMTOO_clean_linker_0, # of connection points: 3
#     Node 5, Type 0, BuildingBlock: PAMTOO_clean_linker_0, # of connection points: 3
#     Node 6, Type 0, BuildingBlock: PAMTOO_clean_linker_0, # of connection points: 3
#     Node 7, Type 0, BuildingBlock: PAMTOO_clean_linker_0, # of connection points: 3
#     Node 8, Type 1, BuildingBlock: BETDAH_clean_sbu_0, # of connection points: 6
#     Node 9, Type 1, BuildingBlock: BETDAH_clean_sbu_0, # of connection points: 6
#     Node 10, Type 1, BuildingBlock: BETDAH_clean_sbu_0, # of connection points: 6
#     Node 11, Type 1, BuildingBlock: BETDAH_clean_sbu_0, # of connection points: 6
#     Edge 12, Type (0, 1), BuildingBlock: KIFKEQ_clean_linker_1, # of connection points: 2
#     Edge 13, Type (0, 1), BuildingBlock: KIFKEQ_clean_linker_1, # of connection points: 2
#     Edge 14, Type (0, 1), BuildingBlock: KIFKEQ_clean_linker_1, # of connection points: 2
#     Edge 15, Type (0, 1), BuildingBlock: KIFKEQ_clean_linker_1, # of connection points: 2
#     Edge 16, Type (0, 1), BuildingBlock: KIFKEQ_clean_linker_1, # of connection points: 2
#     Edge 17, Type (0, 1), BuildingBlock: KIFKEQ_clean_linker_1, # of connection points: 2
#     Edge 18, Type (0, 1), BuildingBlock: KIFKEQ_clean_linker_1, # of connection points: 2
#     Edge 19, Type (0, 1), BuildingBlock: KIFKEQ_clean_linker_1, # of connection points: 2
#     Edge 20, Type (0, 1), BuildingBlock: KIFKEQ_clean_linker_1, # of connection points: 2
#     Edge 21, Type (0, 1), BuildingBlock: KIFKEQ_clean_linker_1, # of connection points: 2
#     Edge 22, Type (0, 1), BuildingBlock: KIFKEQ_clean_linker_1, # of connection points: 2
#     Edge 23, Type (0, 1), BuildingBlock: KIFKEQ_clean_linker_1, # of connection points: 2
#     Edge 24, Type (0, 1), BuildingBlock: KIFKEQ_clean_linker_1, # of connection points: 2
#     Edge 25, Type (0, 1), BuildingBlock: KIFKEQ_clean_linker_1, # of connection points: 2
#     Edge 26, Type (0, 1), BuildingBlock: KIFKEQ_clean_linker_1, # of connection points: 2
#     Edge 27, Type (0, 1), BuildingBlock: KIFKEQ_clean_linker_1, # of connection points: 2
#     Edge 28, Type (0, 1), BuildingBlock: KIFKEQ_clean_linker_1, # of connection points: 2
#     Edge 29, Type (0, 1), BuildingBlock: KIFKEQ_clean_linker_1, # of connection points: 2
#     Edge 30, Type (0, 1), BuildingBlock: KIFKEQ_clean_linker_1, # of connection points: 2
#     Edge 31, Type (0, 1), BuildingBlock: KIFKEQ_clean_linker_1, # of connection points: 2
#     Edge 32, Type (0, 1), BuildingBlock: KIFKEQ_clean_linker_1, # of connection points: 2
#     Edge 33, Type (0, 1), BuildingBlock: KIFKEQ_clean_linker_1, # of connection points: 2
#     Edge 34, Type (0, 1), BuildingBlock: KIFKEQ_clean_linker_1, # of connection points: 2
#     Edge 35, Type (0, 1), BuildingBlock: KIFKEQ_clean_linker_1, # of connection points: 2
# Relax obj value: 0.267
# Max RMSD: 0.190
# Mean RMSD: 0.163
data_MOF--net-zzz--node1-BETDAH_clean_sbu_0--node2-PAMTOO_clean_linker_0--edge1-KIFKEQ_clean_linker_1
_symmetry_space_group_name_H-M    P1
_symmetry_Int_Tables_number       1
_symmetry_cell_setting            triclinic
loop_
_symmetry_equiv_pos_as_xyz
'x, y, z'
_cell_length_a     53.142899
_cell_length_b     53.296364
_cell_length_c     13.479977
_cell_angle_alpha  90.038685
_cell_angle_beta   90.049861
_cell_angle_gamma 90.104621
loop_
_atom_site_label
_atom_site_type_symbol
_atom_site_fract_x
_atom_site_fract_y
_atom_site_fract_z
_atom_type_partial_charge
H0 H 0.8046 0.54264 0.41747 0.0
H1 H 0.7313 0.53575 0.29152 0.0
H2 H 0.74555 0.50655 0.58406 0.0
H3 H 0.69352 0.48185 0.43682 0.0
C4 C 0.69843 0.49737 0.38533 0.0
O5 O 0.70904 0.51678 0.44238 0.0
H6 H 0.71267 0.48959 0.3332 0.0
C7 C 0.78481 0.53816 0.42751 0.0
C8 C 0.77763 0.52519 0.51296 0.0
C9 C 0.76903 0.53889 0.34478 0.0
C10 C 0.7434 0.53438 0.35589 0.0
C11 C 0.73421 0.523 0.44163 0.0
C12 C 0.75176 0.5172 0.52025 0.0
H13 H 1.0052 0.80945 0.43405 0.0
H14 H 0.99717 0.74102 0.2849 0.0
H15 H 0.01685 0.74086 0.59914 0.0
H16 H 1.01169 0.70639 0.27654 0.0
C17 C 1.00626 0.69607 0.34431 0.0
O18 O 1.01421 0.71024 0.42858 0.0
H19 H 0.98535 0.69522 0.34398 0.0
C20 C 1.00468 0.7891 0.43938 0.0
C21 C 1.0087 0.7775 0.53054 0.0
C22 C 1.00221 0.77534 0.3531 0.0
C23 C 1.00138 0.74956 0.35526 0.0
C24 C 1.00844 0.73583 0.43995 0.0
C25 C 1.01173 0.75031 0.53104 0.0
H26 H 0.72606 1.00328 0.40693 0.0
H27 H 0.80015 1.00257 0.28165 0.0
H28 H 0.7906 1.00738 0.59992 0.0
H29 H 0.85095 0.02985 0.49158 0.0
C30 C 0.84046 0.02489 0.42304 0.0
O31 O 0.8248 1.00441 0.44508 0.0
H32 H 0.82873 0.04156 0.40461 0.0
C33 C 0.74631 1.00306 0.4179 0.0
C34 C 0.75563 1.00495 0.51413 0.0
C35 C 0.76209 1.00228 0.33503 0.0
C36 C 0.78811 1.00292 0.34653 0.0
C37 C 0.79892 1.00483 0.4406 0.0
C38 C 0.78256 1.00601 0.52631 0.0
H39 H 0.50632 0.72891 0.38968 0.0
H40 H 0.51465 0.80407 0.28366 0.0
H41 H 0.53613 0.78595 0.58475 0.0
H42 H 0.51912 0.85606 0.50592 0.0
C43 C 0.51501 0.84388 0.44102 0.0
O44 O 0.53166 0.82346 0.44367 0.0
H45 H 0.49534 0.83711 0.45135 0.0
C46 C 0.51123 0.74831 0.40544 0.0
C47 C 0.52154 0.75436 0.49766 0.0
C48 C 0.50906 0.766 0.32939 0.0
C49 C 0.51582 0.79081 0.34445 0.0
C50 C 0.52449 0.79875 0.43677 0.0
C51 C 0.52784 0.78035 0.51478 0.0
H52 H 0.22777 0.48831 0.07724 0.0
H53 H 0.29912 0.49934 0.21996 0.0
H54 H 0.28654 0.52848 0.92648 0.0
H55 H 0.35334 0.5145 0.00518 0.0
C56 C 0.34338 0.50893 0.07412 0.0
O57 O 0.32082 0.52254 0.07876 0.0
H58 H 0.33914 0.48854 0.06664 0.0
C59 C 0.24735 0.49404 0.07309 0.0
C60 C 0.25483 0.50764 0.98975 0.0
C61 C 0.26226 0.49314 0.15891 0.0
C62 C 0.28755 0.5002 0.15373 0.0
C63 C 0.29712 0.51224 0.06999 0.0
C64 C 0.2803 0.51694 0.98779 0.0
H65 H 0.03251 0.22722 0.10643 0.0
H66 H 0.0205 0.3012 0.21933 0.0
H67 H 1.01535 0.2875 0.90432 0.0
H68 H 0.0325 0.35313 0.99623 0.0
C69 C 0.03042 0.3433 0.06841 0.0
O70 O 1.01344 0.32337 0.05381 0.0
H71 H 0.04939 0.33588 0.08731 0.0
C72 C 0.0299 0.24708 0.09151 0.0
C73 C 0.02489 0.25459 0.99442 0.0
C74 C 0.02744 0.26357 0.1717 0.0
C75 C 0.02297 0.28891 0.15608 0.0
C76 C 0.01972 0.29835 0.06069 0.0
C77 C 0.0199 0.28091 0.97811 0.0
H78 H 0.3073 0.03492 0.08011 0.0
H79 H 0.23548 0.0274 0.22228 0.0
H80 H 0.24467 1.0043 0.91774 0.0
H81 H 0.18119 0.02562 0.00731 0.0
C82 C 0.1905 0.02544 0.08113 0.0
O83 O 0.21134 1.00928 0.07472 0.0
H84 H 0.19696 0.045 0.09532 0.0
C85 C 0.2873 0.03092 0.07501 0.0
C86 C 0.27839 0.02027 0.98722 0.0
C87 C 0.27243 0.03247 0.16062 0.0
C88 C 0.24685 0.0265 0.15565 0.0
C89 C 0.23605 0.01721 0.06862 0.0
C90 C 0.25214 1.01336 0.98336 0.0
H91 H 0.48972 0.30573 0.0746 0.0
H92 H 0.49465 0.23414 0.21333 0.0
H93 H 0.51984 0.24288 0.91131 0.0
H94 H 0.53619 0.21069 0.17481 0.0
C95 C 0.52828 0.19705 0.12047 0.0
O96 O 0.50935 0.20862 0.06317 0.0
H97 H 0.54404 0.19234 0.06976 0.0
C98 C 0.493 0.28569 0.06699 0.0
C99 C 0.50425 0.27689 0.9801 0.0
C100 C 0.49308 0.27116 0.15287 0.0
C101 C 0.4958 0.24526 0.14627 0.0
C102 C 0.50512 0.23424 0.06002 0.0
C103 C 0.51068 0.25049 0.97635 0.0
Ho104 Ho 0.03623 1.0123 0.8431 0.0
Ho105 Ho 0.99639 0.01809 0.67383 0.0
C106 C 1.01364 0.96102 0.73091 0.0
C107 C 0.05512 0.99929 0.01018 0.0
C108 C 0.05559 0.97331 0.04716 0.0
C109 C 0.0328 0.9606 0.06407 0.0
C110 C 0.03227 0.93458 0.06795 0.0
C111 C 0.05447 0.92077 0.05576 0.0
C112 C 0.07755 0.93333 0.04719 0.0
C113 C 0.07811 0.9595 0.04287 0.0
C114 C 0.06203 0.01638 0.66584 0.0
C115 C 0.01905 0.06912 0.78745 0.0
C116 C 0.97592 0.03012 0.508 0.0
C117 C 0.97783 0.05472 0.4602 0.0
C118 C 1.00047 0.06814 0.46828 0.0
C119 C 1.00147 0.09327 0.44228 0.0
C120 C 0.97986 0.10557 0.40803 0.0
C121 C 0.95713 0.09234 0.39925 0.0
C122 C 0.95614 0.0669 0.42505 0.0
C123 C 0.97143 1.01324 0.85271 0.0
O124 O 0.02765 0.9711 0.80305 0.0
O125 O 1.00021 0.9754 0.66975 0.0
O126 O 0.06888 1.00305 0.93137 0.0
O127 O 0.03293 1.00979 1.00285 0.0
O128 O 0.07195 0.01507 0.75342 0.0
O129 O 0.03811 0.01689 0.67862 0.0
O130 O 1.00677 0.05926 0.71012 0.0
O131 O 0.03084 0.05462 0.85285 0.0
O132 O 0.96386 0.03074 0.59213 0.0
O133 O 0.9967 0.01694 0.51312 0.0
O134 O 0.96076 0.01577 0.76709 0.0
O135 O 0.99503 1.01293 0.83583 0.0
H136 H 1.01508 0.97056 0.06788 0.0
H137 H 1.01432 0.92521 0.07767 0.0
H138 H 0.09491 0.92291 0.0389 0.0
H139 H 0.0959 0.96885 0.02923 0.0
H140 H 0.01724 0.05953 0.49878 0.0
H141 H 0.01905 0.10336 0.45147 0.0
H142 H 0.94027 0.10167 0.37333 0.0
H143 H 0.93833 0.05702 0.42129 0.0
Ho144 Ho 0.51915 0.0301 0.81991 0.0
Ho145 Ho 0.51431 0.99466 0.67517 0.0
C146 C 0.57135 1.00845 0.71757 0.0
C147 C 0.53451 0.05473 0.97327 0.0
C148 C 0.56026 0.05573 0.0129 0.0
C149 C 0.5742 0.03345 0.02203 0.0
C150 C 0.59965 0.03436 0.04474 0.0
C151 C 0.61165 0.05748 0.05851 0.0
C152 C 0.59791 0.07981 0.05168 0.0
C153 C 0.57221 0.07893 0.02891 0.0
C154 C 0.51004 0.0537 0.64162 0.0
C155 C 0.4624 0.01593 0.77777 0.0
C156 C 0.49852 0.96879 0.52584 0.0
C157 C 0.47326 0.97003 0.48185 0.0
C158 C 0.46176 0.99354 0.46926 0.0
C159 C 0.43627 0.9951 0.44806 0.0
C160 C 0.4218 0.97328 0.43921 0.0
C161 C 0.43317 0.94969 0.4478 0.0
C162 C 0.45891 0.94807 0.46926 0.0
C163 C 0.52305 0.972 0.85538 0.0
O164 O 0.56095 0.02023 0.79387 0.0
O165 O 0.55645 0.99739 0.65247 0.0
O166 O 0.53158 0.06506 0.88652 0.0
O167 O 0.52326 0.033 0.9791 0.0
O168 O 0.49944 0.05902 0.72573 0.0
O169 O 0.52473 0.03503 0.65524 0.0
O170 O 0.47279 1.00673 0.69607 0.0
O171 O 0.47743 0.02477 0.84736 0.0
O172 O 0.499 0.96004 0.61596 0.0
O173 O 0.51242 0.98888 0.5163 0.0
O174 O 0.53453 0.9666 0.77333 0.0
O175 O 0.50803 0.99006 0.8383 0.0
H176 H 0.56571 0.01527 0.00847 0.0
H177 H 0.61014 0.01698 0.04992 0.0
H178 H 0.60708 0.09777 0.06263 0.0
H179 H 0.56184 0.09629 0.02089 0.0
H180 H 0.47214 1.01083 0.48038 0.0
H181 H 0.42764 1.01343 0.44112 0.0
H182 H 0.42209 0.93271 0.44031 0.0
H183 H 0.46737 0.92979 0.48019 0.0
Ho184 Ho 0.50055 0.5188 0.82773 0.0
Ho185 Ho 0.53712 0.51203 0.66978 0.0
C186 C 0.52167 0.56912 0.71216 0.0
C187 C 0.48311 0.53078 0.99952 0.0
C188 C 0.48215 0.55593 0.04402 0.0
C189 C 0.50426 0.57034 0.05098 0.0
C190 C 0.50306 0.5955 0.07656 0.0
C191 C 0.47979 0.60686 0.09522 0.0
C192 C 0.45766 0.59252 0.09095 0.0
C193 C 0.45886 0.56706 0.06611 0.0
C194 C 0.47205 0.51775 0.65673 0.0
C195 C 0.51276 0.4611 0.77379 0.0
C196 C 0.56264 0.49661 0.51933 0.0
C197 C 0.5616 0.47161 0.47419 0.0
C198 C 0.53844 0.45893 0.46962 0.0
C199 C 0.5377 0.43342 0.44945 0.0
C200 C 0.56003 0.42012 0.4333 0.0
C201 C 0.58313 0.43288 0.43221 0.0
C202 C 0.58392 0.45858 0.45334 0.0
C203 C 0.55913 0.5214 0.85046 0.0
O204 O 0.5124 0.55981 0.79616 0.0
O205 O 0.5303 0.55351 0.64382 0.0
O206 O 0.46871 0.52749 0.92223 0.0
O207 O 0.50557 0.52148 0.98636 0.0
O208 O 0.46343 0.51921 0.74613 0.0
O209 O 0.49594 0.51565 0.66162 0.0
O210 O 0.52568 0.47082 0.69849 0.0
O211 O 0.50146 0.47619 0.83791 0.0
O212 O 0.57152 0.49673 0.60947 0.0
O213 O 0.54234 0.51027 0.51065 0.0
O214 O 0.56538 0.53218 0.7678 0.0
O215 O 0.54065 0.50686 0.83261 0.0
H216 H 0.52249 0.56256 0.03257 0.0
H217 H 0.52032 0.60639 0.07774 0.0
H218 H 0.43955 0.60107 0.1052 0.0
H219 H 0.44158 0.55635 0.06009 0.0
H220 H 0.52095 0.46841 0.48672 0.0
H221 H 0.51966 0.42387 0.44885 0.0
H222 H 0.60051 0.4228 0.41928 0.0
H223 H 0.60197 0.46799 0.45816 0.0
Ho224 Ho 1.01226 0.4941 0.8403 0.0
Ho225 Ho 0.02012 0.53212 0.66131 0.0
C226 C 0.96277 0.51577 0.71458 0.0
C227 C 0.99791 0.4759 0.0077 0.0
C228 C 0.97212 0.47608 0.04832 0.0
C229 C 0.96011 0.49903 0.06785 0.0
C230 C 0.93426 0.49984 0.08259 0.0
C231 C 0.91984 0.47779 0.07855 0.0
C232 C 0.93183 0.45462 0.06594 0.0
C233 C 0.95787 0.45377 0.05072 0.0
C234 C 0.01677 0.46756 0.66381 0.0
C235 C 0.06983 0.51109 0.78561 0.0
C236 C 0.0339 0.55106 0.49499 0.0
C237 C 0.05973 0.55214 0.45652 0.0
C238 C 0.07446 0.53029 0.45578 0.0
C239 C 0.10001 0.5317 0.43585 0.0
C240 C 0.11135 0.55489 0.41658 0.0
C241 C 0.0969 0.57683 0.41601 0.0
C242 C 0.07109 0.57544 0.43615 0.0
C243 C 1.01518 0.55854 0.8379 0.0
O244 O 0.97173 0.50529 0.79751 0.0
O245 O 0.97799 0.52585 0.6471 0.0
O246 O 1.00074 0.46216 0.92834 0.0
O247 O 1.00924 0.49764 0.99985 0.0
O248 O 1.01444 0.45781 0.7513 0.0
O249 O 0.01777 0.4912 0.67801 0.0
O250 O 0.0607 0.5217 0.70345 0.0
O251 O 0.05472 0.50045 0.85267 0.0
O252 O 0.03022 0.56464 0.57415 0.0
O253 O 0.02369 0.52874 0.50201 0.0
O254 O 0.01731 0.5683 0.75038 0.0
O255 O 1.01448 0.53492 0.82359 0.0
H256 H 0.97038 0.5166 0.06636 0.0
H257 H 0.92532 0.51789 0.09367 0.0
H258 H 0.92095 0.43742 0.06278 0.0
H259 H 0.96666 0.43587 0.03517 0.0
H260 H 0.06651 0.51212 0.47366 0.0
H261 H 0.11107 0.51462 0.43617 0.0
H262 H 0.10556 0.59484 0.40087 0.0
H263 H 0.06015 0.59257 0.43875 0.0
H264 H 0.19457 0.99958 0.26479 0.0
H265 H 0.14069 0.03873 0.0843 0.0
H266 H 0.16295 0.995 0.39539 0.0
H267 H 0.10934 0.03539 0.21535 0.0
H268 H 0.04995 0.0192 0.45912 0.0
H269 H 0.07938 0.01801 0.31786 0.0
H270 H 0.14167 1.01191 0.52235 0.0
H271 H 0.11273 1.01224 0.6594 0.0
C272 C 0.17589 1.00701 0.25214 0.0
C273 C 0.17039 0.01907 0.16168 0.0
C274 C 0.15752 1.00478 0.32851 0.0
C275 C 0.13288 0.01507 0.31935 0.0
C276 C 0.12749 0.02678 0.2277 0.0
C277 C 0.14574 0.02876 0.15141 0.0
C278 C 0.0699 0.01752 0.47367 0.0
C279 C 0.07853 0.01597 0.5726 0.0
C280 C 0.08711 0.01694 0.39199 0.0
C281 C 0.11366 1.01477 0.40568 0.0
C282 C 0.12184 1.01308 0.50506 0.0
C283 C 0.10486 1.01359 0.58546 0.0
H284 H 0.49101 0.1904 0.26695 0.0
H285 H 0.54955 0.1495 0.11779 0.0
H286 H 0.48563 0.15555 0.38325 0.0
H287 H 0.54487 0.11495 0.23491 0.0
H288 H 0.52498 0.04811 0.44267 0.0
H289 H 0.52636 0.08008 0.31107 0.0
H290 H 0.50176 0.13597 0.52138 0.0
H291 H 0.49948 0.10406 0.64962 0.0
C292 C 0.50245 0.17381 0.25724 0.0
C293 C 0.52047 0.17311 0.18038 0.0
C294 C 0.49972 0.15369 0.32587 0.0
C295 C 0.5151 0.13191 0.32214 0.0
C296 C 0.53238 0.13086 0.24239 0.0
C297 C 0.53505 0.15093 0.17389 0.0
C298 C 0.51981 0.06722 0.4607 0.0
C299 C 0.51191 0.07308 0.55807 0.0
C300 C 0.52066 0.08584 0.38466 0.0
C301 C 0.5139 0.11126 0.40274 0.0
C302 C 0.50644 0.11691 0.50099 0.0
C303 C 0.50532 0.09836 0.57605 0.0
H304 H 0.34569 0.54547 0.2291 0.0
H305 H 0.38468 0.48074 0.11686 0.0
H306 H 0.37756 0.54989 0.36019 0.0
H307 H 0.41603 0.48454 0.24763 0.0
H308 H 0.4807 0.50266 0.45977 0.0
H309 H 0.4509 0.50285 0.32022 0.0
H310 H 0.39453 0.53623 0.50904 0.0
H311 H 0.4243 0.53627 0.64609 0.0
C312 C 0.36084 0.53195 0.23278 0.0
C313 C 0.36199 0.51234 0.16251 0.0
C314 C 0.37935 0.53441 0.30875 0.0
C315 C 0.39995 0.51752 0.31721 0.0
C316 C 0.40109 0.49828 0.2453 0.0
C317 C 0.38268 0.49584 0.1701 0.0
C318 C 0.46202 0.51021 0.47116 0.0
C319 C 0.4551 0.51916 0.56568 0.0
C320 C 0.44459 0.51015 0.39083 0.0
C321 C 0.41957 0.51923 0.4013 0.0
C322 C 0.41324 0.52907 0.49534 0.0
C323 C 0.43049 0.5289 0.5753 0.0
H324 H 0.04722 0.39163 0.08519 0.0
H325 H 0.9988 0.33993 0.23871 0.0
H326 H 0.04283 0.42186 0.21866 0.0
H327 H 0.99331 0.37043 0.37178 0.0
H328 H 1.00408 0.41842 0.64819 0.0
H329 H 1.00481 0.39034 0.5081 0.0
H330 H 0.02814 0.4517 0.31952 0.0
H331 H 0.02836 0.47971 0.46384 0.0
C332 C 0.03511 0.38683 0.14696 0.0
C333 C 0.02334 0.36303 0.14919 0.0
C334 C 0.03248 0.40447 0.22486 0.0
C335 C 0.01787 0.39933 0.31021 0.0
C336 C 1.00539 0.37563 0.31074 0.0
C337 C 1.00826 0.35785 0.23273 0.0
C338 C 1.00947 0.42612 0.57693 0.0
C339 C 1.01632 0.45169 0.56937 0.0
C340 C 1.00962 0.40974 0.49453 0.0
C341 C 0.01658 0.4179 0.3986 0.0
C342 C 0.02301 0.44383 0.39053 0.0
C343 C 0.02291 0.46032 0.47402 0.0
H344 H 0.85992 0.98059 0.33054 0.0
H345 H 0.86722 0.061 0.32779 0.0
H346 H 0.89293 0.97756 0.20233 0.0
H347 H 0.90022 0.0582 0.20376 0.0
H348 H 0.939 0.05004 0.90384 0.0
H349 H 0.90834 0.05138 0.03726 0.0
H350 H 0.93698 0.98136 0.15112 0.0
H351 H 0.96791 0.98012 0.01447 0.0
C352 C 0.86832 0.99766 0.30229 0.0
C353 C 0.86004 0.02115 0.33841 0.0
C354 C 0.88762 0.99595 0.229 0.0
C355 C 0.89955 0.01764 0.18959 0.0
C356 C 0.89146 0.04092 0.22818 0.0
C357 C 0.87232 0.04258 0.3004 0.0
C358 C 0.93932 0.03518 0.9587 0.0
C359 C 0.95674 0.01542 0.94895 0.0
C360 C 0.92148 0.03589 0.03616 0.0
C361 C 0.91972 0.01658 0.10774 0.0
C362 C 0.93732 0.99669 0.09851 0.0
C363 C 0.95553 0.99616 0.02077 0.0
H364 H 0.47677 0.86949 0.34764 0.0
H365 H 0.55662 0.85819 0.32491 0.0
H366 H 0.47806 0.89917 0.21123 0.0
H367 H 0.55859 0.88876 0.19061 0.0
H368 H 0.55728 0.93595 0.90851 0.0
H369 H 0.5554 0.90495 0.04011 0.0
H370 H 0.484 0.93552 0.13483 0.0
H371 H 0.48588 0.96595 0.99978 0.0
C372 C 0.49472 0.87306 0.31225 0.0
C373 C 0.51645 0.86047 0.3463 0.0
C374 C 0.49562 0.89071 0.23384 0.0
C375 C 0.51848 0.8972 0.18612 0.0
C376 C 0.5403 0.88454 0.22124 0.0
C377 C 0.5393 0.86671 0.29952 0.0
C378 C 0.54115 0.93609 0.95754 0.0
C379 C 0.52186 0.95384 0.94256 0.0
C380 C 0.54007 0.91816 0.03495 0.0
C381 C 0.51956 0.91693 0.10197 0.0
C382 C 0.50019 0.93492 0.08648 0.0
C383 C 0.50134 0.95292 0.00876 0.0
H384 H 0.65601 0.46913 0.34947 0.0
H385 H 0.68786 0.54066 0.27177 0.0
H386 H 0.62255 0.47509 0.23038 0.0
H387 H 0.65389 0.5476 0.15452 0.0
H388 H 0.60122 0.54974 0.88789 0.0
H389 H 0.63233 0.54574 0.01773 0.0
H390 H 0.58891 0.48525 0.14717 0.0
H391 H 0.5585 0.48889 0.0128 0.0
C392 C 0.65556 0.48659 0.30845 0.0
C393 C 0.67487 0.50448 0.3228 0.0
C394 C 0.63601 0.49015 0.2385 0.0
C395 C 0.63462 0.51189 0.17814 0.0
C396 C 0.65372 0.53017 0.19522 0.0
C397 C 0.67345 0.52643 0.26484 0.0
C398 C 0.59827 0.53555 0.94419 0.0
C399 C 0.57709 0.51964 0.93827 0.0
C400 C 0.61634 0.53326 0.02085 0.0
C401 C 0.61418 0.51499 0.09688 0.0
C402 C 0.59242 0.4994 0.09157 0.0
C403 C 0.57441 0.50162 0.01401 0.0
H404 H 0.98555 0.64902 0.3819 0.0
H405 H 0.04914 0.68325 0.23754 0.0
H406 H 0.98917 0.61252 0.27144 0.0
H407 H 0.05204 0.64746 0.12504 0.0
H408 H 1.01592 0.60916 0.84732 0.0
H409 H 0.01863 0.63729 0.98836 0.0
H410 H 0.01722 0.57414 0.18741 0.0
H411 H 1.01503 0.54529 0.04325 0.0
C412 C 1.00116 0.64832 0.33045 0.0
C413 C 0.01693 0.6696 0.32021 0.0
C414 C 1.00297 0.6274 0.26531 0.0
C415 C 0.02044 0.62706 0.18641 0.0
C416 C 0.03802 0.64696 0.18331 0.0
C417 C 0.03666 0.66747 0.24993 0.0
C418 C 1.01624 0.6009 0.92071 0.0
C419 C 1.01528 0.57454 0.93192 0.0
C420 C 0.01796 0.61729 1.00243 0.0
C421 C 0.01851 0.60834 0.10061 0.0
C422 C 0.0169 0.58195 0.11329 0.0
C423 C 1.01556 0.56529 0.03025 0.0
H424 H 0.05856 0.23732 0.29316 0.0
H425 H 0.98205 0.2625 0.25649 0.0
H426 H 0.0434 0.19986 0.37792 0.0
H427 H 0.96675 0.22454 0.33624 0.0
H428 H 0.95369 0.14507 0.48679 0.0
H429 H 0.96497 0.18975 0.47001 0.0
H430 H 0.02234 0.16976 0.25727 0.0
H431 H 1.01123 0.12575 0.27431 0.0
C432 C 0.03866 0.23562 0.30944 0.0
C433 C 0.02137 0.25226 0.26733 0.0
C434 C 0.02991 0.21404 0.35605 0.0
C435 C 1.00393 0.20902 0.35934 0.0
C436 C 0.98684 0.22793 0.33377 0.0
C437 C 0.99564 0.24978 0.28904 0.0
C438 C 0.96833 0.15051 0.43519 0.0
C439 C 0.98192 0.13224 0.38263 0.0
C440 C 0.97494 0.17585 0.42663 0.0
C441 C 0.9953 0.18286 0.3663 0.0
C442 C 1.00736 0.16466 0.30799 0.0
C443 C 1.00077 0.1396 0.3163 0.0
H444 H 0.31102 0.06302 0.22136 0.0
H445 H 0.26484 1.00054 0.31483 0.0
H446 H 0.34622 0.04585 0.3152 0.0
H447 H 0.29972 0.98414 0.41136 0.0
H448 H 0.38481 0.97789 0.57615 0.0
H449 H 0.3433 0.99695 0.54591 0.0
H450 H 0.35819 0.99629 0.23116 0.0
H451 H 0.39937 0.9773 0.26145 0.0
C452 C 0.30785 0.04661 0.26721 0.0
C453 C 0.28566 0.03246 0.25702 0.0
C454 C 0.32802 0.03671 0.32012 0.0
C455 C 0.32558 1.01337 0.36714 0.0
C456 C 0.30191 1.00204 0.37428 0.0
C457 C 0.28186 1.01168 0.31973 0.0
C458 C 0.37863 0.98103 0.5006 0.0
C459 C 0.39487 0.97617 0.42073 0.0
C460 C 0.35521 0.9921 0.48362 0.0
C461 C 0.34824 0.99859 0.38686 0.0
C462 C 0.36364 0.99182 0.30663 0.0
C463 C 0.38687 0.98066 0.32353 0.0
H464 H 0.47088 0.30201 0.28899 0.0
H465 H 0.54182 0.27072 0.19521 0.0
H466 H 0.49356 0.33416 0.38392 0.0
H467 H 0.56436 0.30324 0.28576 0.0
H468 H 0.57467 0.3934 0.27189 0.0
H469 H 0.56168 0.35045 0.23224 0.0
H470 H 0.52787 0.34337 0.52229 0.0
H471 H 0.5414 0.38623 0.56179 0.0
C472 C 0.49122 0.30127 0.29338 0.0
C473 C 0.50468 0.28369 0.2378 0.0
C474 C 0.50421 0.31966 0.34655 0.0
C475 C 0.53064 0.32099 0.34162 0.0
C476 C 0.54404 0.30235 0.2914 0.0
C477 C 0.53114 0.28362 0.24095 0.0
C478 C 0.56536 0.38224 0.32814 0.0
C479 C 0.55854 0.3929 0.41908 0.0
C480 C 0.55793 0.35777 0.30578 0.0
C481 C 0.54358 0.3439 0.37429 0.0
C482 C 0.53871 0.35388 0.46836 0.0
C483 C 0.54632 0.37823 0.49075 0.0
H484 H 0.22321 0.46445 0.22985 0.0
H485 H 0.26951 0.52888 0.29979 0.0
H486 H 0.18747 0.48493 0.30903 0.0
H487 H 0.23405 0.54876 0.38056 0.0
H488 H 0.15057 0.56011 0.54416 0.0
H489 H 0.19276 0.54267 0.51499 0.0
H490 H 0.1731 0.52923 0.20867 0.0
H491 H 0.1314 0.54701 0.23737 0.0
C492 C 0.22624 0.48214 0.26777 0.0
C493 C 0.24875 0.49555 0.25425 0.0
C494 C 0.20572 0.49401 0.31154 0.0
C495 C 0.20811 0.5187 0.34674 0.0
C496 C 0.23186 0.52985 0.35215 0.0
C497 C 0.25228 0.51816 0.30702 0.0
C498 C 0.15587 0.55456 0.46973 0.0
C499 C 0.13812 0.55487 0.39253 0.0
C500 C 0.17969 0.5443 0.45361 0.0
C501 C 0.18546 0.53391 0.36094 0.0
C502 C 0.16861 0.53664 0.28145 0.0
C503 C 0.14506 0.54718 0.29717 0.0
H504 H 0.97462 0.80847 0.24603 0.0
H505 H 0.04581 0.76983 0.2585 0.0
H506 H 0.99193 0.83747 0.12404 0.0
H507 H 0.06347 0.79896 0.13763 0.0
H508 H 0.08186 0.88747 0.16341 0.0
H509 H 0.07129 0.84353 0.1901 0.0
H510 H 1.01343 0.84827 0.96529 0.0
H511 H 0.02309 0.89259 0.94324 0.0
C512 C 0.99358 0.80564 0.21874 0.0
C513 C 1.00903 0.78736 0.26028 0.0
C514 C 1.00353 0.822 0.1488 0.0
C515 C 0.02912 0.82044 0.12217 0.0
C516 C 0.04373 0.80044 0.15684 0.0
C517 C 0.03365 0.78386 0.22547 0.0
C518 C 0.06758 0.87881 0.11719 0.0
C519 C 0.05302 0.89328 0.05233 0.0
C520 C 0.06168 0.85361 0.13154 0.0
C521 C 0.04134 0.84272 0.08015 0.0
C522 C 0.02901 0.85641 0.00616 0.0
C523 C 0.03455 0.88168 0.99352 0.0
H524 H 0.72662 0.97248 0.25127 0.0
H525 H 0.76953 0.04033 0.20641 0.0
H526 H 0.69175 0.99043 0.15805 0.0
H527 H 0.73468 0.05816 0.11154 0.0
H528 H 0.6502 0.0615 0.92818 0.0
H529 H 0.69329 0.04609 0.95757 0.0
H530 H 0.67548 0.03581 0.26728 0.0
H531 H 0.63269 0.05086 0.23752 0.0
C532 C 0.72926 0.99045 0.2151 0.0
C533 C 0.75027 1.00539 0.23761 0.0
C534 C 0.70927 1.00082 0.16293 0.0
C535 C 0.71062 0.02578 0.13054 0.0
C536 C 0.7334 0.03891 0.13678 0.0
C537 C 0.75338 0.02859 0.18995 0.0
C538 C 0.656 0.05678 1.00282 0.0
C539 C 0.63855 0.05727 0.08088 0.0
C540 C 0.68037 0.04789 0.0193 0.0
C541 C 0.68712 0.03939 0.11381 0.0
C542 C 0.67032 0.04202 0.19344 0.0
C543 C 0.6461 0.05088 0.17697 0.0
H544 H 0.46256 0.76073 0.25127 0.0
H545 H 0.54133 0.74803 0.19518 0.0
H546 H 0.45208 0.72239 0.16094 0.0
H547 H 0.53104 0.70965 0.10618 0.0
H548 H 0.50643 0.6322 0.23311 0.0
H549 H 0.51218 0.67748 0.24356 0.0
H550 H 0.45809 0.68806 0.00808 0.0
H551 H 0.45245 0.64227 0.99678 0.0
C552 C 0.47739 0.75075 0.21282 0.0
C553 C 0.50265 0.75665 0.23111 0.0
C554 C 0.47145 0.72873 0.16208 0.0
C555 C 0.49088 0.71294 0.13011 0.0
C556 C 0.51584 0.72159 0.13138 0.0
C557 C 0.5217 0.74368 0.18105 0.0
C558 C 0.49564 0.64422 0.18421 0.0
C559 C 0.47921 0.63398 0.11367 0.0
C560 C 0.49914 0.66998 0.18915 0.0
C561 C 0.48625 0.68589 0.12359 0.0
C562 C 0.46855 0.67589 0.05743 0.0
C563 C 0.46512 0.64992 0.05208 0.0
H564 H 0.80242 0.56483 0.2304 0.0
H565 H 0.76486 0.49343 0.26325 0.0
H566 H 0.83537 0.5445 0.13339 0.0
H567 H 0.79805 0.47302 0.16935 0.0
H568 H 0.88725 0.45599 0.20988 0.0
H569 H 0.84355 0.46888 0.23827 0.0
H570 H 0.84732 0.51756 0.98258 0.0
H571 H 0.89101 0.50501 0.95697 0.0
C572 C 0.80045 0.54517 0.21142 0.0
C573 C 0.78103 0.5308 0.25244 0.0
C574 C 0.81937 0.53341 0.15714 0.0
C575 C 0.81919 0.50717 0.14488 0.0
C576 C 0.79849 0.49324 0.17769 0.0
C577 C 0.77932 0.50505 0.2298 0.0
C578 C 0.87833 0.46872 0.15809 0.0
C579 C 0.89227 0.47989 0.08179 0.0
C580 C 0.8534 0.47603 0.17383 0.0
C581 C 0.84231 0.49441 0.1128 0.0
C582 C 0.85558 0.50356 0.03086 0.0
C583 C 0.88039 0.49638 0.01587 0.0
H584 H 0.06106 0.22972 0.88361 0.0
H585 H 0.98244 0.22685 0.95663 0.0
H586 H 0.0593 0.18606 0.8269 0.0
H587 H 0.98036 0.18334 0.89995 0.0
H588 H 0.9903 0.09713 0.91665 0.0
H589 H 0.99051 0.14243 0.94678 0.0
H590 H 0.04824 0.15155 0.72472 0.0
H591 H 0.04786 0.106 0.69553 0.0
C592 C 0.04301 0.22026 0.88301 0.0
C593 C 0.02169 0.23273 0.92188 0.0
C594 C 0.04202 0.19474 0.85161 0.0
C595 C 0.01976 0.18014 0.85966 0.0
C596 C 0.99814 0.19312 0.89356 0.0
C597 C 0.99912 0.21865 0.92388 0.0
C598 C 1.00299 0.10878 0.8738 0.0
C599 C 0.01899 0.09751 0.80328 0.0
C600 C 1.00302 0.13512 0.89055 0.0
C601 C 0.0193 0.1516 0.83835 0.0
C602 C 0.03542 0.14012 0.76776 0.0
C603 C 0.03515 0.11375 0.75026 0.0
H604 H 0.2981 0.04862 0.83227 0.0
H605 H 0.30923 0.97936 0.98948 0.0
H606 H 0.3417 0.04667 0.77079 0.0
H607 H 0.35287 0.97789 0.9319 0.0
H608 H 0.43617 1.00908 0.95181 0.0
H609 H 0.39066 1.00699 0.97994 0.0
H610 H 0.37745 0.02091 0.66965 0.0
H611 H 0.42332 0.02163 0.64042 0.0
C612 C 0.30931 0.03227 0.84983 0.0
C613 C 0.2993 1.01372 0.91392 0.0
C614 C 0.33469 0.03137 0.81588 0.0
C615 C 0.35143 1.01236 0.84746 0.0
C616 C 0.34098 0.99305 0.90628 0.0
C617 C 0.31554 0.99359 0.93777 0.0
C618 C 0.42369 1.01159 0.88904 0.0
C619 C 0.43391 0.01545 0.79356 0.0
C620 C 0.39737 1.01025 0.9052 0.0
C621 C 0.37985 1.01354 0.82729 0.0
C622 C 0.39001 0.01808 0.73189 0.0
C623 C 0.41648 0.01849 0.71501 0.0
H624 H 0.4803 0.2961 0.81176 0.0
H625 H 0.54415 0.30862 1.00166 0.0
H626 H 0.48316 0.33976 0.75288 0.0
H627 H 0.54642 0.35222 0.94661 0.0
H628 H 0.51794 0.43516 0.94947 0.0
H629 H 0.51941 0.38982 0.97904 0.0
H630 H 0.50662 0.37622 0.66818 0.0
H631 H 0.50678 0.42191 0.63761 0.0
C632 C 0.49573 0.30767 0.83774 0.0
C633 C 0.51239 0.29802 0.91026 0.0
C634 C 0.4971 0.33312 0.8052 0.0
C635 C 0.51461 0.3503 0.8465 0.0
C636 C 0.5323 0.34014 0.91366 0.0
C637 C 0.53139 0.31467 0.94373 0.0
C638 C 0.51559 0.42262 0.88686 0.0
C639 C 0.51239 0.4327 0.7908 0.0
C640 C 0.5166 0.39635 0.9038 0.0
C641 C 0.51359 0.37872 0.82606 0.0
C642 C 0.50944 0.3888 0.73027 0.0
C643 C 0.50947 0.41519 0.71262 0.0
H644 H 0.22222 0.54654 0.01499 0.0
H645 H 0.23504 0.48298 0.82519 0.0
H646 H 0.17829 0.54811 0.96102 0.0
H647 H 0.19111 0.48503 0.76794 0.0
H648 H 0.10926 0.50727 0.65062 0.0
H649 H 0.15491 0.50926 0.68127 0.0
H650 H 0.14081 0.52017 0.9931 0.0
H651 H 0.09539 0.51722 0.96282 0.0
C652 C 0.21614 0.53372 0.95733 0.0
C653 C 0.23297 0.51516 0.92266 0.0
C654 C 0.19053 0.53423 0.92787 0.0
C655 C 0.1805 0.51645 0.86075 0.0
C656 C 0.19776 0.49913 0.81958 0.0
C657 C 0.22332 0.49822 0.8512 0.0
C658 C 0.11585 0.50996 0.72593 0.0
C659 C 0.09819 0.51186 0.80413 0.0
C660 C 0.14222 0.51106 0.74367 0.0
C661 C 0.1521 0.51502 0.83999 0.0
C662 C 0.13435 0.51729 0.91772 0.0
C663 C 0.10808 0.51539 0.90042 0.0
H664 H 0.05134 0.80122 0.60274 0.0
H665 H 0.97085 0.80092 0.63243 0.0
H666 H 0.05266 0.84485 0.65932 0.0
H667 H 0.97193 0.84447 0.68867 0.0
H668 H 0.97758 0.93074 0.64018 0.0
H669 H 0.97692 0.88514 0.619 0.0
H670 H 0.0484 0.87982 0.76893 0.0
H671 H 0.04869 0.92545 0.79192 0.0
C672 C 0.03396 0.80985 0.6269 0.0
C673 C 1.01103 0.79664 0.61444 0.0
C674 C 0.03462 0.83542 0.65768 0.0
C675 C 1.01233 0.84922 0.67624 0.0
C676 C 0.98962 0.8353 0.67278 0.0
C677 C 0.98903 0.80972 0.64322 0.0
C678 C 0.99318 0.91995 0.66926 0.0
C679 C 1.01317 0.9324 0.71812 0.0
C680 C 0.99273 0.89342 0.65774 0.0
C681 C 1.01252 0.87792 0.69258 0.0
C682 C 0.03272 0.8905 0.7401 0.0
C683 C 0.03285 0.91699 0.75386 0.0
H684 H 0.72993 0.96544 0.59498 0.0
H685 H 0.7317 0.04607 0.5964 0.0
H686 H 0.68635 0.96611 0.65293 0.0
H687 H 0.68803 0.04693 0.65559 0.0
H688 H 0.60821 0.03898 0.80265 0.0
H689 H 0.65402 0.03852 0.77643 0.0
H690 H 0.64581 0.97559 0.57843 0.0
H691 H 0.60021 0.97642 0.6025 0.0
C692 C 0.72153 0.9834 0.6127 0.0
C693 C 0.73515 1.00565 0.59312 0.0
C694 C 0.69605 0.98383 0.64368 0.0
C695 C 0.68284 1.00659 0.65732 0.0
C696 C 0.69708 0.0289 0.64626 0.0
C697 C 0.72255 0.02844 0.61381 0.0
C698 C 0.6161 0.02494 0.75365 0.0
C699 C 0.59996 1.00773 0.70489 0.0
C700 C 0.6426 0.02473 0.73838 0.0
C701 C 0.65428 1.00688 0.67582 0.0
C702 C 0.63808 0.98948 0.62841 0.0
C703 C 0.61161 0.99005 0.64182 0.0
H704 H 0.55708 0.71874 0.46471 0.0
H705 H 0.49723 0.73597 0.66797 0.0
H706 H 0.55754 0.67547 0.5223 0.0
H707 H 0.49791 0.69227 0.72827 0.0
H708 H 0.51492 0.60946 0.84387 0.0
H709 H 0.51731 0.65483 0.80991 0.0
H710 H 0.53243 0.63889 0.5021 0.0
H711 H 0.53048 0.59408 0.5362 0.0
C712 C 0.54469 0.71363 0.52522 0.0
C713 C 0.52757 0.73159 0.56256 0.0
C714 C 0.54452 0.68835 0.55709 0.0
C715 C 0.52736 0.6795 0.62912 0.0
C716 C 0.51144 0.69785 0.67248 0.0
C717 C 0.51129 0.72327 0.63882 0.0
C718 C 0.51877 0.61558 0.7688 0.0
C719 C 0.52268 0.59749 0.69328 0.0
C720 C 0.52009 0.64186 0.74906 0.0
C721 C 0.52542 0.65125 0.65291 0.0
C722 C 0.52895 0.63303 0.57774 0.0
C723 C 0.52769 0.60695 0.59739 0.0
H724 H 0.81006 0.48692 0.47697 0.0
H725 H 0.79798 0.54768 0.68134 0.0
H726 H 0.85406 0.48439 0.52824 0.0
H727 H 0.84209 0.54483 0.73537 0.0
H728 H 0.92329 0.52243 0.84701 0.0
H729 H 0.87761 0.52296 0.81296 0.0
H730 H 0.89231 0.50896 0.50406 0.0
H731 H 0.93764 0.50977 0.53688 0.0
C732 C 0.8164 0.49891 0.53699 0.0
C733 C 0.79976 0.51697 0.57675 0.0
C734 C 0.84205 0.49792 0.56481 0.0
C735 C 0.85235 0.51471 0.63511 0.0
C736 C 0.83528 0.5315 0.68095 0.0
C737 C 0.80963 0.53287 0.6512 0.0
C738 C 0.91677 0.51937 0.77183 0.0
C739 C 0.93451 0.51585 0.69512 0.0
C740 C 0.89047 0.51964 0.75233 0.0
C741 C 0.88073 0.51532 0.65623 0.0
C742 C 0.89859 0.51181 0.57966 0.0
C743 C 0.92483 0.51244 0.59845 0.0
loop_
_geom_bond_atom_site_label_1
_geom_bond_atom_site_label_2
_geom_bond_distance
_geom_bond_site_symmetry_2
_ccdc_geom_bond_type
H0 C7 0.929 . S
H1 C10 0.930 . S
H2 C12 0.929 . S
H3 C4 0.969 . S
C4 H3 0.969 . S
C4 O5 1.550 . S
C4 H6 0.973 . S
O5 C4 1.550 . S
O5 C11 1.412 . S
H6 C4 0.973 . S
C7 H0 0.929 . S
C7 C8 1.400 . S
C7 C9 1.364 . S
C8 C7 1.400 . S
C8 C12 1.377 . S
C9 C7 1.364 . S
C9 C10 1.374 . S
C10 H1 0.930 . S
C10 C9 1.374 . S
C10 C11 1.383 . S
C11 O5 1.412 . S
C11 C10 1.383 . S
C11 C12 1.394 . S
C12 H2 0.929 . S
C12 C8 1.377 . S
C12 C11 1.394 . S
H13 C20 0.928 1_655 S
H14 C23 0.930 . S
H15 C25 0.928 1_655 S
H16 C17 0.969 . S
C17 H16 0.969 . S
C17 O18 1.550 1_455 S
C17 H19 0.973 1_455 S
O18 C17 1.550 1_655 S
O18 C24 1.405 1_655 S
H19 C17 0.973 1_655 S
C20 H13 0.928 1_455 S
C20 C21 1.400 . S
C20 C22 1.364 . S
C21 C20 1.400 . S
C21 C25 1.377 . S
C22 C20 1.364 . S
C22 C23 1.374 1_455 S
C23 H14 0.930 . S
C23 C22 1.374 1_655 S
C23 C24 1.382 1_655 S
C24 O18 1.405 1_455 S
C24 C23 1.382 1_455 S
C24 C25 1.394 . S
C25 H15 0.928 1_455 S
C25 C21 1.377 . S
C25 C24 1.394 . S
H26 C33 0.928 1_565 S
H27 C36 0.930 . S
H28 C38 0.928 1_565 S
H29 C30 0.969 . S
C30 H29 0.969 . S
C30 O31 1.550 1_545 S
C30 H32 0.973 1_545 S
O31 C30 1.550 1_565 S
O31 C37 1.405 1_565 S
H32 C30 0.973 1_565 S
C33 H26 0.928 1_545 S
C33 C34 1.399 . S
C33 C35 1.364 . S
C34 C33 1.399 . S
C34 C38 1.377 . S
C35 C33 1.364 . S
C35 C36 1.374 1_545 S
C36 H27 0.930 . S
C36 C35 1.374 1_565 S
C36 C37 1.382 1_565 S
C37 O31 1.405 1_545 S
C37 C36 1.382 1_545 S
C37 C38 1.394 . S
C38 H28 0.928 1_545 S
C38 C34 1.377 . S
C38 C37 1.394 . S
H39 C46 0.929 . S
H40 C49 0.930 . S
H41 C51 0.929 . S
H42 C43 0.969 . S
C43 H42 0.969 . S
C43 O44 1.550 . S
C43 H45 0.973 . S
O44 C43 1.550 . S
O44 C50 1.412 . S
H45 C43 0.973 . S
C46 H39 0.929 . S
C46 C47 1.400 . S
C46 C48 1.364 . S
C47 C46 1.400 . S
C47 C51 1.377 . S
C48 C46 1.364 . S
C48 C49 1.374 . S
C49 H40 0.930 . S
C49 C48 1.374 . S
C49 C50 1.383 . S
C50 O44 1.412 . S
C50 C49 1.383 . S
C50 C51 1.394 . S
C51 H41 0.929 . S
C51 C47 1.377 . S
C51 C50 1.394 . S
H52 C59 0.929 . S
H53 C62 0.930 . S
H54 C64 0.929 . S
H55 C56 0.969 . S
C56 H55 0.969 . S
C56 O57 1.550 . S
C56 H58 0.973 . S
O57 C56 1.550 . S
O57 C63 1.412 . S
H58 C56 0.973 . S
C59 H52 0.929 . S
C59 C60 1.400 1_554 S
C59 C61 1.364 . S
C60 C59 1.400 1_556 S
C60 C64 1.377 . S
C61 C59 1.364 . S
C61 C62 1.374 . S
C62 H53 0.930 . S
C62 C61 1.374 . S
C62 C63 1.383 . S
C63 O57 1.412 . S
C63 C62 1.383 . S
C63 C64 1.394 1_554 S
C64 H54 0.929 . S
C64 C60 1.377 . S
C64 C63 1.394 1_556 S
H65 C72 0.928 1_655 S
H66 C75 0.930 . S
H67 C77 0.928 1_655 S
H68 C69 0.969 . S
C69 H68 0.969 . S
C69 O70 1.550 1_455 S
C69 H71 0.973 1_455 S
O70 C69 1.550 1_655 S
O70 C76 1.402 1_655 S
H71 C69 0.973 1_655 S
C72 H65 0.928 1_455 S
C72 C73 1.400 1_554 S
C72 C74 1.364 . S
C73 C72 1.400 1_556 S
C73 C77 1.377 . S
C74 C72 1.364 . S
C74 C75 1.374 1_455 S
C75 H66 0.930 . S
C75 C74 1.374 1_655 S
C75 C76 1.382 1_655 S
C76 O70 1.402 1_455 S
C76 C75 1.382 1_455 S
C76 C77 1.394 1_554 S
C77 H67 0.928 1_455 S
C77 C73 1.377 . S
C77 C76 1.394 1_556 S
H78 C85 0.928 1_565 S
H79 C88 0.930 . S
H80 C90 0.928 1_565 S
H81 C82 0.969 . S
C82 H81 0.969 . S
C82 O83 1.550 1_545 S
C82 H84 0.973 1_545 S
O83 C82 1.550 1_565 S
O83 C89 1.402 1_565 S
H84 C82 0.973 1_565 S
C85 H78 0.928 1_545 S
C85 C86 1.400 1_554 S
C85 C87 1.364 . S
C86 C85 1.400 1_556 S
C86 C90 1.377 . S
C87 C85 1.364 . S
C87 C88 1.374 1_545 S
C88 H79 0.930 . S
C88 C87 1.374 1_565 S
C88 C89 1.382 1_565 S
C89 O83 1.402 1_545 S
C89 C88 1.382 1_545 S
C89 C90 1.394 1_554 S
C90 H80 0.928 1_545 S
C90 C86 1.377 . S
C90 C89 1.394 1_556 S
H91 C98 0.929 . S
H92 C101 0.930 . S
H93 C103 0.929 . S
H94 C95 0.969 . S
C95 H94 0.969 . S
C95 O96 1.550 . S
C95 H97 0.973 . S
O96 C95 1.550 . S
O96 C102 1.412 . S
H97 C95 0.973 . S
C98 H91 0.929 . S
C98 C99 1.400 1_554 S
C98 C100 1.364 . S
C99 C98 1.400 1_556 S
C99 C103 1.377 . S
C100 C98 1.364 . S
C100 C101 1.374 . S
C101 H92 0.930 . S
C101 C100 1.374 . S
C101 C102 1.383 . S
C102 O96 1.412 . S
C102 C101 1.383 . S
C102 C103 1.394 1_554 S
C103 H93 0.929 . S
C103 C99 1.377 . S
C103 C102 1.394 1_556 S
Ho104 C107 2.811 . S
Ho104 O124 2.322 . S
Ho104 O126 2.378 . S
Ho104 O127 2.530 . S
Ho104 O128 2.381 . S
Ho104 O129 2.669 1_565 S
Ho104 O131 2.346 1_565 S
Ho104 O135 2.305 1_455 S
Ho105 C116 2.811 . S
Ho105 O125 2.346 1_545 S
Ho105 O129 2.305 1_655 S
Ho105 O130 2.322 . S
Ho105 O132 2.378 . S
Ho105 O133 2.525 . S
Ho105 O134 2.381 . S
Ho105 O135 2.669 1_545 S
C106 O124 1.259 1_655 S
C106 O125 1.268 . S
C107 Ho104 2.811 . S
C107 C108 1.488 1_556 S
C107 O126 1.215 . S
C107 O127 1.303 . S
C108 C107 1.488 1_554 S
C108 C109 1.348 . S
C108 C113 1.413 . S
C109 C108 1.348 . S
C109 C110 1.442 . S
C109 H136 0.930 1_455 S
C110 C109 1.442 . S
C110 C111 1.381 . S
C110 H137 0.931 1_455 S
C111 C110 1.381 . S
C111 C112 1.321 . S
C112 C111 1.321 . S
C112 C113 1.403 . S
C112 H138 0.934 . S
C113 C108 1.413 . S
C113 C112 1.403 . S
C113 H139 0.930 1_554 S
C114 O128 1.297 . S
C114 O129 1.243 1_565 S
C115 O130 1.259 1_455 S
C115 O131 1.268 . S
C116 Ho105 2.811 . S
C116 C117 1.488 . S
C116 O132 1.215 . S
C116 O133 1.293 . S
C117 C116 1.488 . S
C117 C118 1.348 . S
C117 C122 1.413 . S
C118 C117 1.348 . S
C118 C119 1.442 . S
C118 H140 0.930 1_655 S
C119 C118 1.442 . S
C119 C120 1.381 . S
C119 H141 0.931 1_655 S
C120 C119 1.381 . S
C120 C121 1.321 . S
C121 C120 1.321 . S
C121 C122 1.403 . S
C121 H142 0.934 . S
C122 C117 1.413 . S
C122 C121 1.403 . S
C122 H143 0.930 . S
C123 O134 1.275 . S
C123 O135 1.256 1_545 S
O124 Ho104 2.322 . S
O124 C106 1.259 1_455 S
O125 Ho105 2.346 1_565 S
O125 C106 1.268 . S
O126 Ho104 2.378 . S
O126 C107 1.215 . S
O127 Ho104 2.530 . S
O127 C107 1.303 . S
O128 Ho104 2.381 . S
O128 C114 1.297 . S
O129 Ho104 2.669 1_545 S
O129 Ho105 2.305 1_455 S
O129 C114 1.243 1_545 S
O130 Ho105 2.322 . S
O130 C115 1.259 1_655 S
O131 Ho104 2.346 1_545 S
O131 C115 1.268 . S
O132 Ho105 2.378 . S
O132 C116 1.215 . S
O133 Ho105 2.525 . S
O133 C116 1.293 . S
O134 Ho105 2.381 . S
O134 C123 1.275 . S
O135 Ho104 2.305 1_655 S
O135 Ho105 2.669 1_565 S
O135 C123 1.256 1_565 S
H136 C109 0.930 1_655 S
H137 C110 0.931 1_655 S
H138 C112 0.934 . S
H139 C113 0.930 1_556 S
H140 C118 0.930 1_455 S
H141 C119 0.931 1_455 S
H142 C121 0.934 . S
H143 C122 0.930 . S
Ho144 C147 2.811 . S
Ho144 O164 2.322 . S
Ho144 O166 2.378 . S
Ho144 O167 2.528 . S
Ho144 O168 2.381 . S
Ho144 O169 2.669 . S
Ho144 O171 2.346 . S
Ho144 O175 2.305 1_545 S
Ho145 C156 2.811 . S
Ho145 O165 2.346 . S
Ho145 O169 2.305 1_565 S
Ho145 O170 2.322 . S
Ho145 O172 2.378 . S
Ho145 O173 2.523 . S
Ho145 O174 2.381 . S
Ho145 O175 2.669 . S
C146 O164 1.259 1_565 S
C146 O165 1.268 . S
C147 Ho144 2.811 . S
C147 C148 1.488 1_556 S
C147 O166 1.215 . S
C147 O167 1.299 . S
C148 C147 1.488 1_554 S
C148 C149 1.348 . S
C148 C153 1.413 . S
C149 C148 1.348 . S
C149 C150 1.442 . S
C149 H176 0.930 1_545 S
C150 C149 1.442 . S
C150 C151 1.381 . S
C150 H177 0.931 1_545 S
C151 C150 1.381 . S
C151 C152 1.321 . S
C152 C151 1.321 . S
C152 C153 1.403 . S
C152 H178 0.934 . S
C153 C148 1.413 . S
C153 C152 1.403 . S
C153 H179 0.930 1_554 S
C154 O168 1.275 . S
C154 O169 1.256 . S
C155 O170 1.259 1_545 S
C155 O171 1.268 . S
C156 Ho145 2.811 . S
C156 C157 1.488 . S
C156 O172 1.215 . S
C156 O173 1.289 . S
C157 C156 1.488 . S
C157 C158 1.348 . S
C157 C162 1.413 . S
C158 C157 1.348 . S
C158 C159 1.442 . S
C158 H180 0.930 1_565 S
C159 C158 1.442 . S
C159 C160 1.381 . S
C159 H181 0.931 1_565 S
C160 C159 1.381 . S
C160 C161 1.321 . S
C161 C160 1.321 . S
C161 C162 1.403 . S
C161 H182 0.934 . S
C162 C157 1.413 . S
C162 C161 1.403 . S
C162 H183 0.930 . S
C163 O174 1.275 . S
C163 O175 1.256 . S
O164 Ho144 2.322 . S
O164 C146 1.259 1_545 S
O165 Ho145 2.346 . S
O165 C146 1.268 . S
O166 Ho144 2.378 . S
O166 C147 1.215 . S
O167 Ho144 2.528 . S
O167 C147 1.299 . S
O168 Ho144 2.381 . S
O168 C154 1.275 . S
O169 Ho144 2.669 . S
O169 Ho145 2.305 1_545 S
O169 C154 1.256 . S
O170 Ho145 2.322 . S
O170 C155 1.259 1_565 S
O171 Ho144 2.346 . S
O171 C155 1.268 . S
O172 Ho145 2.378 . S
O172 C156 1.215 . S
O173 Ho145 2.523 . S
O173 C156 1.289 . S
O174 Ho145 2.381 . S
O174 C163 1.275 . S
O175 Ho144 2.305 1_565 S
O175 Ho145 2.669 . S
O175 C163 1.256 . S
H176 C149 0.930 1_565 S
H177 C150 0.931 1_565 S
H178 C152 0.934 . S
H179 C153 0.930 1_556 S
H180 C158 0.930 1_545 S
H181 C159 0.931 1_545 S
H182 C161 0.934 . S
H183 C162 0.930 . S
Ho184 C187 2.811 . S
Ho184 O204 2.322 . S
Ho184 O206 2.378 . S
Ho184 O207 2.524 . S
Ho184 O208 2.381 . S
Ho184 O209 2.669 . S
Ho184 O211 2.346 . S
Ho184 O215 2.305 . S
Ho185 C196 2.811 . S
Ho185 O205 2.346 . S
Ho185 O209 2.305 . S
Ho185 O210 2.322 . S
Ho185 O212 2.378 . S
Ho185 O213 2.524 . S
Ho185 O214 2.381 . S
Ho185 O215 2.669 . S
C186 O204 1.259 . S
C186 O205 1.268 . S
C187 Ho184 2.811 . S
C187 C188 1.488 1_556 S
C187 O206 1.215 . S
C187 O207 1.289 . S
C188 C187 1.488 1_554 S
C188 C189 1.348 . S
C188 C193 1.413 . S
C189 C188 1.348 . S
C189 C190 1.442 . S
C189 H216 0.930 . S
C190 C189 1.442 . S
C190 C191 1.381 . S
C190 H217 0.931 . S
C191 C190 1.381 . S
C191 C192 1.321 . S
C192 C191 1.321 . S
C192 C193 1.403 . S
C192 H218 0.934 . S
C193 C188 1.413 . S
C193 C192 1.403 . S
C193 H219 0.930 1_554 S
C194 O208 1.275 . S
C194 O209 1.256 . S
C195 O210 1.259 . S
C195 O211 1.268 . S
C196 Ho185 2.811 . S
C196 C197 1.488 . S
C196 O212 1.215 . S
C196 O213 1.289 . S
C197 C196 1.488 . S
C197 C198 1.348 . S
C197 C202 1.413 . S
C198 C197 1.348 . S
C198 C199 1.442 . S
C198 H220 0.930 . S
C199 C198 1.442 . S
C199 C200 1.381 . S
C199 H221 0.931 . S
C200 C199 1.381 . S
C200 C201 1.321 . S
C201 C200 1.321 . S
C201 C202 1.403 . S
C201 H222 0.934 . S
C202 C197 1.413 . S
C202 C201 1.403 . S
C202 H223 0.930 . S
C203 O214 1.275 . S
C203 O215 1.256 . S
O204 Ho184 2.322 . S
O204 C186 1.259 . S
O205 Ho185 2.346 . S
O205 C186 1.268 . S
O206 Ho184 2.378 . S
O206 C187 1.215 . S
O207 Ho184 2.524 . S
O207 C187 1.289 . S
O208 Ho184 2.381 . S
O208 C194 1.275 . S
O209 Ho184 2.669 . S
O209 Ho185 2.305 . S
O209 C194 1.256 . S
O210 Ho185 2.322 . S
O210 C195 1.259 . S
O211 Ho184 2.346 . S
O211 C195 1.268 . S
O212 Ho185 2.378 . S
O212 C196 1.215 . S
O213 Ho185 2.524 . S
O213 C196 1.289 . S
O214 Ho185 2.381 . S
O214 C203 1.275 . S
O215 Ho184 2.305 . S
O215 Ho185 2.669 . S
O215 C203 1.256 . S
H216 C189 0.930 . S
H217 C190 0.931 . S
H218 C192 0.934 . S
H219 C193 0.930 1_556 S
H220 C198 0.930 . S
H221 C199 0.931 . S
H222 C201 0.934 . S
H223 C202 0.930 . S
Ho224 C227 2.811 . S
Ho224 O244 2.322 . S
Ho224 O246 2.378 . S
Ho224 O247 2.524 . S
Ho224 O248 2.381 . S
Ho224 O249 2.669 1_655 S
Ho224 O251 2.346 1_655 S
Ho224 O255 2.305 . S
Ho225 C236 2.811 . S
Ho225 O245 2.346 1_455 S
Ho225 O249 2.305 . S
Ho225 O250 2.322 . S
Ho225 O252 2.378 . S
Ho225 O253 2.524 . S
Ho225 O254 2.381 . S
Ho225 O255 2.669 1_455 S
C226 O244 1.259 . S
C226 O245 1.268 . S
C227 Ho224 2.811 . S
C227 C228 1.488 1_556 S
C227 O246 1.215 . S
C227 O247 1.289 . S
C228 C227 1.488 1_554 S
C228 C229 1.348 . S
C228 C233 1.413 . S
C229 C228 1.348 . S
C229 C230 1.442 . S
C229 H256 0.930 . S
C230 C229 1.442 . S
C230 C231 1.381 . S
C230 H257 0.931 . S
C231 C230 1.381 . S
C231 C232 1.321 . S
C232 C231 1.321 . S
C232 C233 1.403 . S
C232 H258 0.934 . S
C233 C228 1.413 . S
C233 C232 1.403 . S
C233 H259 0.930 1_554 S
C234 O248 1.292 . S
C234 O249 1.247 1_655 S
C235 O250 1.259 . S
C235 O251 1.268 . S
C236 Ho225 2.811 . S
C236 C237 1.488 . S
C236 O252 1.215 . S
C236 O253 1.289 . S
C237 C236 1.488 . S
C237 C238 1.348 . S
C237 C242 1.413 . S
C238 C237 1.348 . S
C238 C239 1.442 . S
C238 H260 0.930 . S
C239 C238 1.442 . S
C239 C240 1.381 . S
C239 H261 0.931 . S
C240 C239 1.381 . S
C240 C241 1.321 . S
C241 C240 1.321 . S
C241 C242 1.403 . S
C241 H262 0.934 . S
C242 C237 1.413 . S
C242 C241 1.403 . S
C242 H263 0.930 . S
C243 O254 1.297 . S
C243 O255 1.244 1_455 S
O244 Ho224 2.322 . S
O244 C226 1.259 . S
O245 Ho225 2.346 1_655 S
O245 C226 1.268 . S
O246 Ho224 2.378 . S
O246 C227 1.215 . S
O247 Ho224 2.524 . S
O247 C227 1.289 . S
O248 Ho224 2.381 . S
O248 C234 1.292 . S
O249 Ho224 2.669 1_455 S
O249 Ho225 2.305 . S
O249 C234 1.247 1_455 S
O250 Ho225 2.322 . S
O250 C235 1.259 . S
O251 Ho224 2.346 1_455 S
O251 C235 1.268 . S
O252 Ho225 2.378 . S
O252 C236 1.215 . S
O253 Ho225 2.524 . S
O253 C236 1.289 . S
O254 Ho225 2.381 . S
O254 C243 1.297 . S
O255 Ho224 2.305 . S
O255 Ho225 2.669 1_655 S
O255 C243 1.244 1_655 S
H256 C229 0.930 . S
H257 C230 0.931 . S
H258 C232 0.934 . S
H259 C233 0.930 1_556 S
H260 C238 0.930 . S
H261 C239 0.931 . S
H262 C241 0.934 . S
H263 C242 0.930 . S
H264 C272 0.950 . S
H265 C277 0.950 . S
H266 C274 0.950 . S
H267 C276 0.950 . S
H268 C278 0.950 . S
H269 C280 0.950 . S
H270 C282 0.950 . S
H271 C283 0.950 . S
C272 H264 0.950 . S
C272 C273 1.386 1_565 S
C272 C274 1.391 . S
C273 C272 1.386 1_545 S
C273 C277 1.393 . S
C274 H266 0.950 . S
C274 C272 1.391 . S
C274 C275 1.400 1_565 S
C275 C274 1.400 1_545 S
C275 C276 1.398 . S
C275 C281 1.491 . S
C276 H267 0.950 . S
C276 C275 1.398 . S
C276 C277 1.391 . S
C277 H265 0.950 . S
C277 C273 1.393 . S
C277 C276 1.391 . S
C278 H268 0.950 . S
C278 C279 1.390 . S
C278 C280 1.391 . S
C279 C278 1.390 . S
C279 C283 1.388 1_545 S
C280 H269 0.950 . S
C280 C278 1.391 . S
C280 C281 1.405 . S
C281 C275 1.491 . S
C281 C280 1.405 . S
C281 C282 1.393 1_545 S
C282 H270 0.950 . S
C282 C281 1.393 1_565 S
C282 C283 1.391 . S
C283 H271 0.950 . S
C283 C279 1.388 1_565 S
C283 C282 1.391 . S
H284 C292 0.950 . S
H285 C297 0.950 . S
H286 C294 0.950 . S
H287 C296 0.950 . S
H288 C298 0.950 . S
H289 C300 0.950 . S
H290 C302 0.950 . S
H291 C303 0.950 . S
C292 H284 0.950 . S
C292 C293 1.386 . S
C292 C294 1.391 . S
C293 C292 1.386 . S
C293 C297 1.393 . S
C294 H286 0.950 . S
C294 C292 1.391 . S
C294 C295 1.400 . S
C295 C294 1.400 . S
C295 C296 1.398 . S
C295 C301 1.491 . S
C296 H287 0.950 . S
C296 C295 1.398 . S
C296 C297 1.391 . S
C297 H285 0.950 . S
C297 C293 1.393 . S
C297 C296 1.391 . S
C298 H288 0.950 . S
C298 C299 1.386 . S
C298 C300 1.391 . S
C299 C298 1.386 . S
C299 C303 1.393 . S
C300 H289 0.950 . S
C300 C298 1.391 . S
C300 C301 1.400 . S
C301 C295 1.491 . S
C301 C300 1.400 . S
C301 C302 1.398 . S
C302 H290 0.950 . S
C302 C301 1.398 . S
C302 C303 1.391 . S
C303 H291 0.950 . S
C303 C299 1.393 . S
C303 C302 1.391 . S
H304 C312 0.950 . S
H305 C317 0.950 . S
H306 C314 0.950 . S
H307 C316 0.950 . S
H308 C318 0.950 . S
H309 C320 0.950 . S
H310 C322 0.950 . S
H311 C323 0.950 . S
C312 H304 0.950 . S
C312 C313 1.386 . S
C312 C314 1.391 . S
C313 C312 1.386 . S
C313 C317 1.393 . S
C314 H306 0.950 . S
C314 C312 1.391 . S
C314 C315 1.400 . S
C315 C314 1.400 . S
C315 C316 1.398 . S
C315 C321 1.491 . S
C316 H307 0.950 . S
C316 C315 1.398 . S
C316 C317 1.391 . S
C317 H305 0.950 . S
C317 C313 1.393 . S
C317 C316 1.391 . S
C318 H308 0.950 . S
C318 C319 1.386 . S
C318 C320 1.391 . S
C319 C318 1.386 . S
C319 C323 1.393 . S
C320 H309 0.950 . S
C320 C318 1.391 . S
C320 C321 1.400 . S
C321 C315 1.491 . S
C321 C320 1.400 . S
C321 C322 1.398 . S
C322 H310 0.950 . S
C322 C321 1.398 . S
C322 C323 1.391 . S
C323 H311 0.950 . S
C323 C319 1.393 . S
C323 C322 1.391 . S
H324 C332 0.950 . S
H325 C337 0.950 . S
H326 C334 0.950 . S
H327 C336 0.950 . S
H328 C338 0.950 . S
H329 C340 0.950 . S
H330 C342 0.950 . S
H331 C343 0.950 . S
C332 H324 0.950 . S
C332 C333 1.376 1_455 S
C332 C334 1.391 . S
C333 C332 1.376 1_655 S
C333 C337 1.403 . S
C334 H326 0.950 . S
C334 C332 1.391 . S
C334 C335 1.408 . S
C335 C334 1.408 . S
C335 C336 1.390 1_455 S
C335 C341 1.491 . S
C336 H327 0.950 . S
C336 C335 1.390 1_655 S
C336 C337 1.391 . S
C337 H325 0.950 . S
C337 C333 1.403 . S
C337 C336 1.391 . S
C338 H328 0.950 . S
C338 C339 1.386 1_655 S
C338 C340 1.391 . S
C339 C338 1.386 1_455 S
C339 C343 1.393 . S
C340 H329 0.950 . S
C340 C338 1.391 . S
C340 C341 1.400 1_655 S
C341 C335 1.491 . S
C341 C340 1.400 1_455 S
C341 C342 1.398 . S
C342 H330 0.950 . S
C342 C341 1.398 . S
C342 C343 1.391 . S
C343 H331 0.950 . S
C343 C339 1.393 . S
C343 C342 1.391 . S
H344 C352 0.950 . S
H345 C357 0.950 . S
H346 C354 0.950 . S
H347 C356 0.950 . S
H348 C358 0.950 . S
H349 C360 0.950 . S
H350 C362 0.950 . S
H351 C363 0.950 . S
C352 H344 0.950 . S
C352 C353 1.391 . S
C352 C354 1.391 . S
C353 C352 1.391 . S
C353 C357 1.388 1_565 S
C354 H346 0.950 . S
C354 C352 1.391 . S
C354 C355 1.424 . S
C355 C354 1.424 . S
C355 C356 1.375 1_565 S
C355 C361 1.491 . S
C356 H347 0.950 . S
C356 C355 1.375 1_545 S
C356 C357 1.391 . S
C357 H345 0.950 . S
C357 C353 1.388 1_545 S
C357 C356 1.391 . S
C358 H348 0.950 . S
C358 C359 1.386 1_545 S
C358 C360 1.391 1_556 S
C359 C358 1.386 1_565 S
C359 C363 1.393 . S
C360 H349 0.950 . S
C360 C358 1.391 1_554 S
C360 C361 1.373 1_545 S
C361 C355 1.491 . S
C361 C360 1.373 1_565 S
C361 C362 1.426 . S
C362 H350 0.950 . S
C362 C361 1.426 . S
C362 C363 1.391 1_554 S
C363 H351 0.950 . S
C363 C359 1.393 . S
C363 C362 1.391 1_556 S
H364 C372 0.950 . S
H365 C377 0.950 . S
H366 C374 0.950 . S
H367 C376 0.950 . S
H368 C378 0.950 . S
H369 C380 0.950 . S
H370 C382 0.950 . S
H371 C383 0.950 . S
C372 H364 0.950 . S
C372 C373 1.386 . S
C372 C374 1.391 . S
C373 C372 1.386 . S
C373 C377 1.393 . S
C374 H366 0.950 . S
C374 C372 1.391 . S
C374 C375 1.400 . S
C375 C374 1.400 . S
C375 C376 1.398 . S
C375 C381 1.491 . S
C376 H367 0.950 . S
C376 C375 1.398 . S
C376 C377 1.391 . S
C377 H365 0.950 . S
C377 C373 1.393 . S
C377 C376 1.391 . S
C378 H368 0.950 . S
C378 C379 1.386 . S
C378 C380 1.391 1_556 S
C379 C378 1.386 . S
C379 C383 1.393 . S
C380 H369 0.950 . S
C380 C378 1.391 1_554 S
C380 C381 1.400 . S
C381 C375 1.491 . S
C381 C380 1.400 . S
C381 C382 1.398 . S
C382 H370 0.950 . S
C382 C381 1.398 . S
C382 C383 1.391 1_554 S
C383 H371 0.950 . S
C383 C379 1.393 . S
C383 C382 1.391 1_556 S
H384 C392 0.950 . S
H385 C397 0.950 . S
H386 C394 0.950 . S
H387 C396 0.950 . S
H388 C398 0.950 . S
H389 C400 0.950 . S
H390 C402 0.950 . S
H391 C403 0.950 . S
C392 H384 0.950 . S
C392 C393 1.386 . S
C392 C394 1.391 . S
C393 C392 1.386 . S
C393 C397 1.393 . S
C394 H386 0.950 . S
C394 C392 1.391 . S
C394 C395 1.400 . S
C395 C394 1.400 . S
C395 C396 1.398 . S
C395 C401 1.491 . S
C396 H387 0.950 . S
C396 C395 1.398 . S
C396 C397 1.391 . S
C397 H385 0.950 . S
C397 C393 1.393 . S
C397 C396 1.391 . S
C398 H388 0.950 . S
C398 C399 1.386 . S
C398 C400 1.391 1_556 S
C399 C398 1.386 . S
C399 C403 1.393 . S
C400 H389 0.950 . S
C400 C398 1.391 1_554 S
C400 C401 1.400 . S
C401 C395 1.491 . S
C401 C400 1.400 . S
C401 C402 1.398 . S
C402 H390 0.950 . S
C402 C401 1.398 . S
C402 C403 1.391 1_554 S
C403 H391 0.950 . S
C403 C399 1.393 . S
C403 C402 1.391 1_556 S
H404 C412 0.950 . S
H405 C417 0.950 . S
H406 C414 0.950 . S
H407 C416 0.953 . S
H408 C418 0.950 . S
H409 C420 0.950 . S
H410 C422 0.950 . S
H411 C423 0.950 . S
C412 H404 0.950 . S
C412 C413 1.386 . S
C412 C414 1.391 . S
C413 C412 1.386 . S
C413 C417 1.393 1_655 S
C414 H406 0.950 . S
C414 C412 1.391 . S
C414 C415 1.400 . S
C415 C414 1.400 . S
C415 C416 1.396 1_655 S
C415 C421 1.492 . S
C416 H407 0.953 . S
C416 C415 1.396 1_455 S
C416 C417 1.392 . S
C417 H405 0.950 . S
C417 C413 1.393 1_455 S
C417 C416 1.392 . S
C418 H408 0.950 . S
C418 C419 1.382 1_455 S
C418 C420 1.391 . S
C419 C418 1.382 1_655 S
C419 C423 1.397 1_556 S
C420 H409 0.950 . S
C420 C418 1.391 . S
C420 C421 1.397 1_456 S
C421 C415 1.492 . S
C421 C420 1.397 1_654 S
C421 C422 1.401 . S
C422 H410 0.950 . S
C422 C421 1.401 . S
C422 C423 1.391 . S
C423 H411 0.950 . S
C423 C419 1.397 1_554 S
C423 C422 1.391 . S
H424 C432 0.950 . S
H425 C437 0.950 . S
H426 C434 0.950 . S
H427 C436 0.950 . S
H428 C438 0.950 . S
H429 C440 0.950 . S
H430 C442 0.950 1_455 S
H431 C443 0.928 1_455 S
C432 H424 0.950 . S
C432 C433 1.386 . S
C432 C434 1.391 . S
C433 C432 1.386 . S
C433 C437 1.393 1_455 S
C434 H426 0.950 . S
C434 C432 1.391 . S
C434 C435 1.400 1_455 S
C435 C434 1.400 1_655 S
C435 C436 1.398 . S
C435 C441 1.491 . S
C436 H427 0.950 . S
C436 C435 1.398 . S
C436 C437 1.391 . S
C437 H425 0.950 . S
C437 C433 1.393 1_655 S
C437 C436 1.391 . S
C438 H428 0.950 . S
C438 C439 1.386 . S
C438 C440 1.391 . S
C439 C438 1.386 . S
C439 C443 1.393 . S
C440 H429 0.950 . S
C440 C438 1.391 . S
C440 C441 1.400 . S
C441 C435 1.491 . S
C441 C440 1.400 . S
C441 C442 1.398 . S
C442 H430 0.950 1_655 S
C442 C441 1.398 . S
C442 C443 1.391 . S
C443 H431 0.928 1_655 S
C443 C439 1.393 . S
C443 C442 1.391 . S
H444 C452 0.947 1_545 S
H445 C457 0.949 . S
H446 C454 0.950 . S
H447 C456 0.950 . S
H448 C458 0.950 . S
H449 C460 0.950 . S
H450 C462 0.950 . S
H451 C463 0.950 . S
C452 H444 0.947 1_565 S
C452 C453 1.385 1_565 S
C452 C454 1.395 . S
C453 C452 1.385 1_545 S
C453 C457 1.393 1_545 S
C454 H446 0.950 . S
C454 C452 1.395 . S
C454 C455 1.400 . S
C455 C454 1.400 . S
C455 C456 1.398 . S
C455 C461 1.491 . S
C456 H447 0.950 . S
C456 C455 1.398 . S
C456 C457 1.391 . S
C457 H445 0.949 . S
C457 C453 1.393 1_565 S
C457 C456 1.391 . S
C458 H448 0.950 . S
C458 C459 1.386 . S
C458 C460 1.391 . S
C459 C458 1.386 . S
C459 C463 1.393 . S
C460 H449 0.950 . S
C460 C458 1.391 . S
C460 C461 1.400 . S
C461 C455 1.491 . S
C461 C460 1.400 . S
C461 C462 1.398 . S
C462 H450 0.950 . S
C462 C461 1.398 . S
C462 C463 1.391 . S
C463 H451 0.950 . S
C463 C459 1.393 . S
C463 C462 1.391 . S
H464 C472 0.950 . S
H465 C477 0.950 . S
H466 C474 0.950 . S
H467 C476 0.950 . S
H468 C478 0.950 . S
H469 C480 0.950 . S
H470 C482 0.950 . S
H471 C483 0.950 . S
C472 H464 0.950 . S
C472 C473 1.386 . S
C472 C474 1.391 . S
C473 C472 1.386 . S
C473 C477 1.393 . S
C474 H466 0.950 . S
C474 C472 1.391 . S
C474 C475 1.400 . S
C475 C474 1.400 . S
C475 C476 1.398 . S
C475 C481 1.491 . S
C476 H467 0.950 . S
C476 C475 1.398 . S
C476 C477 1.391 . S
C477 H465 0.950 . S
C477 C473 1.393 . S
C477 C476 1.391 . S
C478 H468 0.950 . S
C478 C479 1.386 . S
C478 C480 1.391 . S
C479 C478 1.386 . S
C479 C483 1.393 . S
C480 H469 0.950 . S
C480 C478 1.391 . S
C480 C481 1.400 . S
C481 C475 1.491 . S
C481 C480 1.400 . S
C481 C482 1.398 . S
C482 H470 0.950 . S
C482 C481 1.398 . S
C482 C483 1.391 . S
C483 H471 0.950 . S
C483 C479 1.393 . S
C483 C482 1.391 . S
H484 C492 0.950 . S
H485 C497 0.950 . S
H486 C494 0.950 . S
H487 C496 0.950 . S
H488 C498 0.950 . S
H489 C500 0.950 . S
H490 C502 0.950 . S
H491 C503 0.950 . S
C492 H484 0.950 . S
C492 C493 1.386 . S
C492 C494 1.391 . S
C493 C492 1.386 . S
C493 C497 1.393 . S
C494 H486 0.950 . S
C494 C492 1.391 . S
C494 C495 1.400 . S
C495 C494 1.400 . S
C495 C496 1.398 . S
C495 C501 1.491 . S
C496 H487 0.950 . S
C496 C495 1.398 . S
C496 C497 1.391 . S
C497 H485 0.950 . S
C497 C493 1.393 . S
C497 C496 1.391 . S
C498 H488 0.950 . S
C498 C499 1.386 . S
C498 C500 1.391 . S
C499 C498 1.386 . S
C499 C503 1.393 . S
C500 H489 0.950 . S
C500 C498 1.391 . S
C500 C501 1.400 . S
C501 C495 1.491 . S
C501 C500 1.400 . S
C501 C502 1.398 . S
C502 H490 0.950 . S
C502 C501 1.398 . S
C502 C503 1.391 . S
C503 H491 0.950 . S
C503 C499 1.393 . S
C503 C502 1.391 . S
H504 C512 0.950 . S
H505 C517 0.950 . S
H506 C514 0.950 . S
H507 C516 0.950 . S
H508 C518 0.950 . S
H509 C520 0.950 . S
H510 C522 0.950 1_655 S
H511 C523 0.923 1_655 S
C512 H504 0.950 . S
C512 C513 1.386 . S
C512 C514 1.391 . S
C513 C512 1.386 . S
C513 C517 1.393 1_655 S
C514 H506 0.950 . S
C514 C512 1.391 . S
C514 C515 1.400 1_655 S
C515 C514 1.400 1_455 S
C515 C516 1.398 . S
C515 C521 1.491 . S
C516 H507 0.950 . S
C516 C515 1.398 . S
C516 C517 1.391 . S
C517 H505 0.950 . S
C517 C513 1.393 1_455 S
C517 C516 1.391 . S
C518 H508 0.950 . S
C518 C519 1.386 . S
C518 C520 1.391 . S
C519 C518 1.386 . S
C519 C523 1.393 . S
C520 H509 0.950 . S
C520 C518 1.391 . S
C520 C521 1.400 . S
C521 C515 1.491 . S
C521 C520 1.400 . S
C521 C522 1.398 . S
C522 H510 0.950 1_455 S
C522 C521 1.398 . S
C522 C523 1.391 . S
C523 H511 0.923 1_455 S
C523 C519 1.393 . S
C523 C522 1.391 . S
H524 C532 0.950 . S
H525 C537 0.950 . S
H526 C534 0.950 . S
H527 C536 0.950 . S
H528 C538 0.950 1_556 S
H529 C540 0.950 . S
H530 C542 0.950 . S
H531 C543 0.950 . S
C532 H524 0.950 . S
C532 C533 1.387 . S
C532 C534 1.391 1_565 S
C533 C532 1.387 . S
C533 C537 1.385 1_565 S
C534 H526 0.950 . S
C534 C532 1.391 1_545 S
C534 C535 1.400 . S
C535 C534 1.400 . S
C535 C536 1.398 . S
C535 C541 1.491 . S
C536 H527 0.950 . S
C536 C535 1.398 . S
C536 C537 1.391 . S
C537 H525 0.950 . S
C537 C533 1.385 1_545 S
C537 C536 1.391 . S
C538 H528 0.950 1_554 S
C538 C539 1.386 . S
C538 C540 1.391 . S
C539 C538 1.386 . S
C539 C543 1.393 . S
C540 H529 0.950 . S
C540 C538 1.391 . S
C540 C541 1.400 . S
C541 C535 1.491 . S
C541 C540 1.400 . S
C541 C542 1.398 . S
C542 H530 0.950 . S
C542 C541 1.398 . S
C542 C543 1.391 . S
C543 H531 0.950 . S
C543 C539 1.393 . S
C543 C542 1.391 . S
H544 C552 0.950 . S
H545 C557 0.950 . S
H546 C554 0.950 . S
H547 C556 0.950 . S
H548 C558 0.950 . S
H549 C560 0.950 . S
H550 C562 0.950 . S
H551 C563 0.950 . S
C552 H544 0.950 . S
C552 C553 1.386 . S
C552 C554 1.391 . S
C553 C552 1.386 . S
C553 C557 1.393 . S
C554 H546 0.950 . S
C554 C552 1.391 . S
C554 C555 1.400 . S
C555 C554 1.400 . S
C555 C556 1.398 . S
C555 C561 1.491 . S
C556 H547 0.950 . S
C556 C555 1.398 . S
C556 C557 1.391 . S
C557 H545 0.950 . S
C557 C553 1.393 . S
C557 C556 1.391 . S
C558 H548 0.950 . S
C558 C559 1.386 . S
C558 C560 1.391 . S
C559 C558 1.386 . S
C559 C563 1.393 . S
C560 H549 0.950 . S
C560 C558 1.391 . S
C560 C561 1.400 . S
C561 C555 1.491 . S
C561 C560 1.400 . S
C561 C562 1.398 . S
C562 H550 0.950 . S
C562 C561 1.398 . S
C562 C563 1.391 . S
C563 H551 0.950 . S
C563 C559 1.393 . S
C563 C562 1.391 . S
H564 C572 0.950 . S
H565 C577 0.950 . S
H566 C574 0.950 . S
H567 C576 0.950 . S
H568 C578 0.950 . S
H569 C580 0.950 . S
H570 C582 0.950 . S
H571 C583 0.950 . S
C572 H564 0.950 . S
C572 C573 1.386 . S
C572 C574 1.391 . S
C573 C572 1.386 . S
C573 C577 1.393 . S
C574 H566 0.950 . S
C574 C572 1.391 . S
C574 C575 1.400 . S
C575 C574 1.400 . S
C575 C576 1.398 . S
C575 C581 1.491 . S
C576 H567 0.950 . S
C576 C575 1.398 . S
C576 C577 1.391 . S
C577 H565 0.950 . S
C577 C573 1.393 . S
C577 C576 1.391 . S
C578 H568 0.950 . S
C578 C579 1.386 . S
C578 C580 1.391 . S
C579 C578 1.386 . S
C579 C583 1.393 . S
C580 H569 0.950 . S
C580 C578 1.391 . S
C580 C581 1.400 . S
C581 C575 1.491 . S
C581 C580 1.400 . S
C581 C582 1.398 . S
C582 H570 0.950 . S
C582 C581 1.398 . S
C582 C583 1.391 . S
C583 H571 0.950 . S
C583 C579 1.393 . S
C583 C582 1.391 . S
H584 C592 0.950 . S
H585 C597 0.950 . S
H586 C594 0.950 . S
H587 C596 0.950 . S
H588 C598 0.950 . S
H589 C600 0.950 . S
H590 C602 0.950 . S
H591 C603 0.950 . S
C592 H584 0.950 . S
C592 C593 1.386 . S
C592 C594 1.391 . S
C593 C592 1.386 . S
C593 C597 1.393 1_455 S
C594 H586 0.950 . S
C594 C592 1.391 . S
C594 C595 1.400 . S
C595 C594 1.400 . S
C595 C596 1.398 1_455 S
C595 C601 1.491 . S
C596 H587 0.950 . S
C596 C595 1.398 1_655 S
C596 C597 1.391 . S
C597 H585 0.950 . S
C597 C593 1.393 1_655 S
C597 C596 1.391 . S
C598 H588 0.950 . S
C598 C599 1.386 1_655 S
C598 C600 1.391 . S
C599 C598 1.386 1_455 S
C599 C603 1.393 . S
C600 H589 0.950 . S
C600 C598 1.391 . S
C600 C601 1.400 1_655 S
C601 C595 1.491 . S
C601 C600 1.400 1_455 S
C601 C602 1.398 . S
C602 H590 0.950 . S
C602 C601 1.398 . S
C602 C603 1.391 . S
C603 H591 0.950 . S
C603 C599 1.393 . S
C603 C602 1.391 . S
H604 C612 0.950 . S
H605 C617 0.950 1_554 S
H606 C614 0.950 . S
H607 C616 0.950 . S
H608 C618 0.950 1_565 S
H609 C620 0.955 . S
H610 C622 0.950 . S
H611 C623 0.950 . S
C612 H604 0.950 . S
C612 C613 1.386 . S
C612 C614 1.391 . S
C613 C612 1.386 . S
C613 C617 1.393 1_545 S
C614 H606 0.950 . S
C614 C612 1.391 . S
C614 C615 1.400 . S
C615 C614 1.400 . S
C615 C616 1.398 1_545 S
C615 C621 1.491 . S
C616 H607 0.950 . S
C616 C615 1.398 1_565 S
C616 C617 1.391 . S
C617 H605 0.950 1_556 S
C617 C613 1.393 1_565 S
C617 C616 1.391 . S
C618 H608 0.950 1_545 S
C618 C619 1.386 . S
C618 C620 1.390 1_545 S
C619 C618 1.386 . S
C619 C623 1.393 . S
C620 H609 0.955 . S
C620 C618 1.390 1_565 S
C620 C621 1.396 1_565 S
C621 C615 1.491 . S
C621 C620 1.396 1_545 S
C621 C622 1.398 . S
C622 H610 0.950 . S
C622 C621 1.398 . S
C622 C623 1.391 . S
C623 H611 0.950 . S
C623 C619 1.393 . S
C623 C622 1.391 . S
H624 C632 0.950 . S
H625 C637 0.950 1_554 S
H626 C634 0.950 . S
H627 C636 0.950 . S
H628 C638 0.950 . S
H629 C640 0.950 . S
H630 C642 0.950 . S
H631 C643 0.950 . S
C632 H624 0.950 . S
C632 C633 1.386 . S
C632 C634 1.391 . S
C633 C632 1.386 . S
C633 C637 1.393 . S
C634 H626 0.950 . S
C634 C632 1.391 . S
C634 C635 1.400 . S
C635 C634 1.400 . S
C635 C636 1.398 . S
C635 C641 1.491 . S
C636 H627 0.950 . S
C636 C635 1.398 . S
C636 C637 1.391 . S
C637 H625 0.950 1_556 S
C637 C633 1.393 . S
C637 C636 1.391 . S
C638 H628 0.950 . S
C638 C639 1.386 . S
C638 C640 1.391 . S
C639 C638 1.386 . S
C639 C643 1.393 . S
C640 H629 0.950 . S
C640 C638 1.391 . S
C640 C641 1.400 . S
C641 C635 1.491 . S
C641 C640 1.400 . S
C641 C642 1.398 . S
C642 H630 0.950 . S
C642 C641 1.398 . S
C642 C643 1.391 . S
C643 H631 0.950 . S
C643 C639 1.393 . S
C643 C642 1.391 . S
H644 C652 0.950 . S
H645 C657 0.950 . S
H646 C654 0.950 . S
H647 C656 0.950 . S
H648 C658 0.950 . S
H649 C660 0.950 . S
H650 C662 0.950 . S
H651 C663 0.950 . S
C652 H644 0.950 . S
C652 C653 1.386 . S
C652 C654 1.391 . S
C653 C652 1.386 . S
C653 C657 1.393 . S
C654 H646 0.950 . S
C654 C652 1.391 . S
C654 C655 1.400 . S
C655 C654 1.400 . S
C655 C656 1.398 . S
C655 C661 1.491 . S
C656 H647 0.950 . S
C656 C655 1.398 . S
C656 C657 1.391 . S
C657 H645 0.950 . S
C657 C653 1.393 . S
C657 C656 1.391 . S
C658 H648 0.950 . S
C658 C659 1.386 . S
C658 C660 1.391 . S
C659 C658 1.386 . S
C659 C663 1.393 . S
C660 H649 0.950 . S
C660 C658 1.391 . S
C660 C661 1.400 . S
C661 C655 1.491 . S
C661 C660 1.400 . S
C661 C662 1.398 . S
C662 H650 0.950 . S
C662 C661 1.398 . S
C662 C663 1.391 . S
C663 H651 0.950 . S
C663 C659 1.393 . S
C663 C662 1.391 . S
H664 C672 0.950 . S
H665 C677 0.950 . S
H666 C674 0.950 . S
H667 C676 0.950 . S
H668 C678 0.950 . S
H669 C680 0.950 . S
H670 C682 0.950 . S
H671 C683 0.950 . S
C672 H664 0.950 . S
C672 C673 1.386 1_455 S
C672 C674 1.391 . S
C673 C672 1.386 1_655 S
C673 C677 1.393 . S
C674 H666 0.950 . S
C674 C672 1.391 . S
C674 C675 1.400 1_455 S
C675 C674 1.400 1_655 S
C675 C676 1.398 . S
C675 C681 1.491 . S
C676 H667 0.950 . S
C676 C675 1.398 . S
C676 C677 1.391 . S
C677 H665 0.950 . S
C677 C673 1.393 . S
C677 C676 1.391 . S
C678 H668 0.950 . S
C678 C679 1.386 . S
C678 C680 1.391 . S
C679 C678 1.386 . S
C679 C683 1.393 1_655 S
C680 H669 0.950 . S
C680 C678 1.391 . S
C680 C681 1.400 . S
C681 C675 1.491 . S
C681 C680 1.400 . S
C681 C682 1.398 1_655 S
C682 H670 0.950 . S
C682 C681 1.398 1_455 S
C682 C683 1.391 . S
C683 H671 0.950 . S
C683 C679 1.393 1_455 S
C683 C682 1.391 . S
H684 C692 0.950 . S
H685 C697 0.950 . S
H686 C694 0.950 . S
H687 C696 0.950 . S
H688 C698 0.950 . S
H689 C700 0.950 . S
H690 C702 0.950 . S
H691 C703 0.950 . S
C692 H684 0.950 . S
C692 C693 1.386 . S
C692 C694 1.391 . S
C693 C692 1.386 . S
C693 C697 1.393 1_565 S
C694 H686 0.950 . S
C694 C692 1.391 . S
C694 C695 1.400 . S
C695 C694 1.400 . S
C695 C696 1.398 1_565 S
C695 C701 1.491 . S
C696 H687 0.950 . S
C696 C695 1.398 1_545 S
C696 C697 1.391 . S
C697 H685 0.950 . S
C697 C693 1.393 1_545 S
C697 C696 1.391 . S
C698 H688 0.950 . S
C698 C699 1.386 1_545 S
C698 C700 1.391 . S
C699 C698 1.386 1_565 S
C699 C703 1.393 . S
C700 H689 0.950 . S
C700 C698 1.391 . S
C700 C701 1.400 1_545 S
C701 C695 1.491 . S
C701 C700 1.400 1_565 S
C701 C702 1.398 . S
C702 H690 0.950 . S
C702 C701 1.398 . S
C702 C703 1.391 . S
C703 H691 0.950 . S
C703 C699 1.393 . S
C703 C702 1.391 . S
H704 C712 0.950 . S
H705 C717 0.950 . S
H706 C714 0.950 . S
H707 C716 0.950 . S
H708 C718 0.950 . S
H709 C720 0.950 . S
H710 C722 0.950 . S
H711 C723 0.950 . S
C712 H704 0.950 . S
C712 C713 1.386 . S
C712 C714 1.391 . S
C713 C712 1.386 . S
C713 C717 1.393 . S
C714 H706 0.950 . S
C714 C712 1.391 . S
C714 C715 1.400 . S
C715 C714 1.400 . S
C715 C716 1.398 . S
C715 C721 1.491 . S
C716 H707 0.950 . S
C716 C715 1.398 . S
C716 C717 1.391 . S
C717 H705 0.950 . S
C717 C713 1.393 . S
C717 C716 1.391 . S
C718 H708 0.950 . S
C718 C719 1.386 . S
C718 C720 1.391 . S
C719 C718 1.386 . S
C719 C723 1.393 . S
C720 H709 0.950 . S
C720 C718 1.391 . S
C720 C721 1.400 . S
C721 C715 1.491 . S
C721 C720 1.400 . S
C721 C722 1.398 . S
C722 H710 0.950 . S
C722 C721 1.398 . S
C722 C723 1.391 . S
C723 H711 0.950 . S
C723 C719 1.393 . S
C723 C722 1.391 . S
H724 C732 0.950 . S
H725 C737 0.950 . S
H726 C734 0.950 . S
H727 C736 0.950 . S
H728 C738 0.950 . S
H729 C740 0.950 . S
H730 C742 0.950 . S
H731 C743 0.950 . S
C732 H724 0.950 . S
C732 C733 1.386 . S
C732 C734 1.391 . S
C733 C732 1.386 . S
C733 C737 1.393 . S
C734 H726 0.950 . S
C734 C732 1.391 . S
C734 C735 1.400 . S
C735 C734 1.400 . S
C735 C736 1.398 . S
C735 C741 1.491 . S
C736 H727 0.950 . S
C736 C735 1.398 . S
C736 C737 1.391 . S
C737 H725 0.950 . S
C737 C733 1.393 . S
C737 C736 1.391 . S
C738 H728 0.950 . S
C738 C739 1.386 . S
C738 C740 1.391 . S
C739 C738 1.386 . S
C739 C743 1.393 . S
C740 H729 0.950 . S
C740 C738 1.391 . S
C740 C741 1.400 . S
C741 C735 1.491 . S
C741 C740 1.400 . S
C741 C742 1.398 . S
C742 H730 0.950 . S
C742 C741 1.398 . S
C742 C743 1.391 . S
C743 H731 0.950 . S
C743 C739 1.393 . S
C743 C742 1.391 . S
C273 C82 1.661 . S
C279 C114 1.935 1_545 S
C299 C154 1.943 . S
C293 C95 1.670 . S
C319 C194 1.948 . S
C313 C56 1.657 . S
C339 C234 1.945 1_455 S
C333 C69 1.683 1_655 S
C359 C123 1.944 1_565 S
C353 C30 1.657 1_565 S
C373 C43 1.697 . S
C379 C163 1.947 . S
C393 C4 1.699 . S
C399 C203 1.946 . S
C413 C17 1.677 1_655 S
C419 C243 1.941 1_655 S
C439 C120 0.513 . S
C433 C74 0.551 . S
C459 C160 0.543 . S
C453 C87 0.549 . S
C479 C200 0.492 . S
C473 C100 0.532 . S
C493 C61 0.554 . S
C499 C240 0.534 . S
C513 C22 0.495 1_655 S
C519 C111 0.508 . S
C539 C151 0.482 . S
C533 C35 0.505 1_565 S
C559 C191 0.532 . S
C553 C48 0.564 . S
C573 C9 0.498 . S
C579 C231 0.516 . S
C593 C73 2.009 . S
C599 C115 2.248 . S
C613 C86 2.006 . S
C619 C155 2.241 . S
C639 C195 2.236 . S
C633 C99 2.003 . S
C659 C235 2.257 . S
C653 C60 2.023 . S
C673 C21 2.009 1_655 S
C679 C106 2.263 . S
C699 C146 2.245 . S
C693 C34 2.030 1_565 S
C719 C186 2.235 . S
C713 C47 2.012 . S
C733 C8 2.018 . S
C739 C226 2.250 . S
