# Generated by pormake.
# Topology zzz, (3,6)-cn, num edge types: 1
# Building blocks:
#     Node 0, Type 0, BuildingBlock: ESEHIV_clean_linker_0, # of connection points: 3
#     Node 1, Type 0, BuildingBlock: ESEHIV_clean_linker_0, # of connection points: 3
#     Node 2, Type 0, BuildingBlock: ESEHIV_clean_linker_0, # of connection points: 3
#     Node 3, Type 0, BuildingBlock: ESEHIV_clean_linker_0, # of connection points: 3
#     Node 4, Type 0, BuildingBlock: ESEHIV_clean_linker_0, # of connection points: 3
#     Node 5, Type 0, BuildingBlock: ESEHIV_clean_linker_0, # of connection points: 3
#     Node 6, Type 0, BuildingBlock: ESEHIV_clean_linker_0, # of connection points: 3
#     Node 7, Type 0, BuildingBlock: ESEHIV_clean_linker_0, # of connection points: 3
#     Node 8, Type 1, BuildingBlock: PAMTOO_clean_sbu_0, # of connection points: 6
#     Node 9, Type 1, BuildingBlock: PAMTOO_clean_sbu_0, # of connection points: 6
#     Node 10, Type 1, BuildingBlock: PAMTOO_clean_sbu_0, # of connection points: 6
#     Node 11, Type 1, BuildingBlock: PAMTOO_clean_sbu_0, # of connection points: 6
#     Edge 12, Type (0, 1), BuildingBlock: XIVTED_clean_linker_0, # of connection points: 2
#     Edge 13, Type (0, 1), BuildingBlock: XIVTED_clean_linker_0, # of connection points: 2
#     Edge 14, Type (0, 1), BuildingBlock: XIVTED_clean_linker_0, # of connection points: 2
#     Edge 15, Type (0, 1), BuildingBlock: XIVTED_clean_linker_0, # of connection points: 2
#     Edge 16, Type (0, 1), BuildingBlock: XIVTED_clean_linker_0, # of connection points: 2
#     Edge 17, Type (0, 1), BuildingBlock: XIVTED_clean_linker_0, # of connection points: 2
#     Edge 18, Type (0, 1), BuildingBlock: XIVTED_clean_linker_0, # of connection points: 2
#     Edge 19, Type (0, 1), BuildingBlock: XIVTED_clean_linker_0, # of connection points: 2
#     Edge 20, Type (0, 1), BuildingBlock: XIVTED_clean_linker_0, # of connection points: 2
#     Edge 21, Type (0, 1), BuildingBlock: XIVTED_clean_linker_0, # of connection points: 2
#     Edge 22, Type (0, 1), BuildingBlock: XIVTED_clean_linker_0, # of connection points: 2
#     Edge 23, Type (0, 1), BuildingBlock: XIVTED_clean_linker_0, # of connection points: 2
#     Edge 24, Type (0, 1), BuildingBlock: XIVTED_clean_linker_0, # of connection points: 2
#     Edge 25, Type (0, 1), BuildingBlock: XIVTED_clean_linker_0, # of connection points: 2
#     Edge 26, Type (0, 1), BuildingBlock: XIVTED_clean_linker_0, # of connection points: 2
#     Edge 27, Type (0, 1), BuildingBlock: XIVTED_clean_linker_0, # of connection points: 2
#     Edge 28, Type (0, 1), BuildingBlock: XIVTED_clean_linker_0, # of connection points: 2
#     Edge 29, Type (0, 1), BuildingBlock: XIVTED_clean_linker_0, # of connection points: 2
#     Edge 30, Type (0, 1), BuildingBlock: XIVTED_clean_linker_0, # of connection points: 2
#     Edge 31, Type (0, 1), BuildingBlock: XIVTED_clean_linker_0, # of connection points: 2
#     Edge 32, Type (0, 1), BuildingBlock: XIVTED_clean_linker_0, # of connection points: 2
#     Edge 33, Type (0, 1), BuildingBlock: XIVTED_clean_linker_0, # of connection points: 2
#     Edge 34, Type (0, 1), BuildingBlock: XIVTED_clean_linker_0, # of connection points: 2
#     Edge 35, Type (0, 1), BuildingBlock: XIVTED_clean_linker_0, # of connection points: 2
# Relax obj value: 0.389
# Max RMSD: 0.286
# Mean RMSD: 0.222
data_MOF--net-zzz--node1-PAMTOO_clean_sbu_0--node2-ESEHIV_clean_linker_0--edge1-XIVTED_clean_linker_0
_symmetry_space_group_name_H-M    P1
_symmetry_Int_Tables_number       1
_symmetry_cell_setting            triclinic
loop_
_symmetry_equiv_pos_as_xyz
'x, y, z'
_cell_length_a     50.86405
_cell_length_b     42.862486
_cell_length_c     16.267226
_cell_angle_alpha  92.132985
_cell_angle_beta   79.56995
_cell_angle_gamma 84.263721
loop_
_atom_site_label
_atom_site_type_symbol
_atom_site_fract_x
_atom_site_fract_y
_atom_site_fract_z
_atom_type_partial_charge
H0 H 0.79783 0.58025 0.50426 0.0
H1 H 0.72112 0.58192 0.4298 0.0
H2 H 0.74462 0.51246 0.59496 0.0
C3 C 0.77814 0.57207 0.51006 0.0
C4 C 0.77276 0.54667 0.56022 0.0
C5 C 0.76062 0.5833 0.45774 0.0
C6 C 0.73505 0.57293 0.46869 0.0
C7 C 0.7291 0.54704 0.51648 0.0
C8 C 0.74822 0.53358 0.56208 0.0
H9 H 0.06386 0.76031 0.43461 0.0
H10 H 0.06626 0.68088 0.26396 0.0
H11 H 1.00008 0.7008 0.47215 0.0
C12 C 0.05565 0.73925 0.4166 0.0
C13 C 0.03146 0.7318 0.4641 0.0
C14 C 0.06825 0.72133 0.34374 0.0
C15 C 0.05667 0.69491 0.32019 0.0
C16 C 0.03209 0.68727 0.36562 0.0
C17 C 0.0192 0.70616 0.43732 0.0
H18 H 0.70515 0.95353 0.34571 0.0
H19 H 0.77891 0.96333 0.17882 0.0
H20 H 0.77049 0.98856 0.4427 0.0
C21 C 0.72596 0.95851 0.33604 0.0
C22 C 0.73605 0.96997 0.40441 0.0
C23 C 0.74105 0.95654 0.25475 0.0
C24 C 0.76731 0.96462 0.24202 0.0
C25 C 0.77837 0.97584 0.30899 0.0
C26 C 0.76255 0.97891 0.39098 0.0
H27 H 0.51659 0.68492 0.30274 0.0
H28 H 0.51224 0.78214 0.38539 0.0
H29 H 0.50365 0.75639 0.1328 0.0
C30 C 0.51494 0.70956 0.28899 0.0
C31 C 0.51053 0.71802 0.21018 0.0
C32 C 0.51547 0.7322 0.35256 0.0
C33 C 0.51223 0.76437 0.33626 0.0
C34 C 0.5081 0.77321 0.25613 0.0
C35 C 0.50706 0.74981 0.19407 0.0
H36 H 0.18274 0.58158 0.12068 0.0
H37 H 0.25511 0.57506 0.22305 0.0
H38 H 0.24191 0.50135 0.05318 0.0
C39 C 0.20238 0.56974 0.12354 0.0
C40 C 0.21111 0.54123 0.07623 0.0
C41 C 0.21766 0.58167 0.17886 0.0
C42 C 0.2428 0.56573 0.18215 0.0
C43 C 0.25156 0.53664 0.13871 0.0
C44 C 0.23546 0.52399 0.0863 0.0
H45 H 0.07446 0.20926 0.11741 0.0
H46 H 0.08387 0.2858 0.28444 0.0
H47 H 0.02291 0.29523 0.13239 0.0
C48 C 0.07009 0.23369 0.13985 0.0
C49 C 0.04917 0.25164 0.11222 0.0
C50 C 0.08176 0.24492 0.20547 0.0
C51 C 0.07493 0.27648 0.23439 0.0
C52 C 0.05383 0.29485 0.20828 0.0
C53 C 0.04047 0.28211 0.14829 0.0
H54 H 0.30479 0.93711 0.23309 0.0
H55 H 0.23576 0.93339 0.42684 0.0
H56 H 0.2355 0.00471 0.2466 0.0
C57 C 0.28418 0.94543 0.2614 0.0
C58 C 0.27146 0.97148 0.22914 0.0
C59 C 0.27174 0.93177 0.3332 0.0
C60 C 0.24561 0.94388 0.37148 0.0
C61 C 0.23223 0.97002 0.34101 0.0
C62 C 0.24528 0.98404 0.26942 0.0
H63 H 0.54569 0.30868 0.23555 0.0
H64 H 0.50156 0.22859 0.23194 0.0
H65 H 0.54684 0.24257 0.42762 0.0
C66 C 0.54047 0.28679 0.26202 0.0
C67 C 0.54876 0.27785 0.33617 0.0
C68 C 0.52393 0.26907 0.22346 0.0
C69 C 0.51506 0.24182 0.26005 0.0
C70 C 0.52313 0.23241 0.3348 0.0
C71 C 0.54037 0.25019 0.37101 0.0
Dy72 Dy 0.9893 0.00319 0.76966 0.0
Dy73 Dy 0.02221 0.98212 0.91556 0.0
C74 C 0.05362 0.99208 0.72967 0.0
O75 O 0.98312 0.95291 0.78778 0.0
O76 O 0.02268 0.93926 0.83171 0.0
O77 O 0.97888 0.99435 0.64846 0.0
O78 O 0.96456 0.03859 0.71849 0.0
O79 O 0.97911 0.97974 0.97505 0.0
O80 O 0.95684 0.00725 0.88448 0.0
O81 O 1.00585 0.0323 0.94645 0.0
O82 O 1.0086 0.04439 0.81077 0.0
O83 O 0.02759 0.9541 0.01938 0.0
O84 O 0.0559 0.98737 0.97785 0.0
C85 C 1.00228 0.93148 0.79885 0.0
O86 O 0.03138 0.98849 0.70208 0.0
O87 O 0.05354 0.99543 0.81033 0.0
C88 C 0.98509 0.04111 0.57795 0.0
C89 C 0.02236 0.07859 0.49226 0.0
C90 C 0.02823 0.04584 0.48812 0.0
C91 C 1.00976 0.02725 0.53058 0.0
C92 C 0.97824 0.07352 0.57506 0.0
C93 C 0.99674 0.09211 0.53283 0.0
C94 C 0.97003 0.02383 0.64467 0.0
C95 C 0.95695 0.9938 0.95603 0.0
C96 C 1.00704 0.05323 0.88965 0.0
C97 C 0.07281 0.93974 0.02721 0.0
C98 C 0.10974 0.889 0.05191 0.0
C99 C 0.09309 0.88618 0.99216 0.0
C100 C 0.07493 0.91135 0.97963 0.0
C101 C 0.09084 0.94367 0.08146 0.0
C102 C 0.10935 0.91858 0.09322 0.0
C103 C 0.05055 0.9642 0.02554 0.0
H104 H 0.04774 0.03478 0.4568 0.0
H105 H 0.01571 0.0023 0.53112 0.0
H106 H 0.95941 0.08482 0.61076 0.0
H107 H 0.99144 0.11728 0.535 0.0
H108 H 0.09243 0.86389 0.95947 0.0
H109 H 0.06144 0.908 0.93635 0.0
H110 H 0.08977 0.96566 0.11764 0.0
H111 H 0.1223 0.92192 0.13808 0.0
Dy112 Dy 0.49257 0.97778 0.72933 0.0
Dy113 Dy 0.50074 0.02983 0.87005 0.0
C114 C 0.49071 0.05109 0.69478 0.0
O115 O 0.53721 0.97316 0.72703 0.0
O116 O 0.54017 0.0225 0.77997 0.0
O117 O 0.4799 0.96581 0.614 0.0
O118 O 0.49914 0.92955 0.67941 0.0
O119 O 0.5136 0.98231 0.91195 0.0
O120 O 0.48422 0.95644 0.85318 0.0
O121 O 0.45713 0.02344 0.90563 0.0
O122 O 0.44986 0.99459 0.791 0.0
O123 O 0.49174 0.04892 0.99805 0.0
O124 O 0.52078 0.06888 0.90673 0.0
C125 C 0.55158 0.99618 0.73925 0.0
O126 O 0.50024 0.02244 0.665 0.0
O127 O 0.48336 0.05742 0.77569 0.0
C128 C 0.46483 0.91599 0.6097 0.0
C129 C 0.42204 0.88358 0.57648 0.0
C130 C 0.41765 0.90798 0.63953 0.0
C131 C 0.43887 0.92388 0.65619 0.0
C132 C 0.46978 0.89047 0.55068 0.0
C133 C 0.44857 0.87422 0.53449 0.0
C134 C 0.4862 0.93572 0.61864 0.0
C135 C 0.49913 0.95872 0.91041 0.0
C136 C 0.44094 0.01017 0.86386 0.0
C137 C 0.53392 0.05548 0.03235 0.0
C138 C 0.58228 0.02609 0.06784 0.0
C139 C 0.55866 0.01119 0.08326 0.0
C140 C 0.53473 0.0258 0.06646 0.0
C141 C 0.55684 0.07162 0.02383 0.0
C142 C 0.58084 0.05708 0.04177 0.0
C143 C 0.51241 0.06505 0.986 0.0
H144 H 0.39759 0.91633 0.67252 0.0
H145 H 0.43476 0.94341 0.70249 0.0
H146 H 0.48983 0.88386 0.51494 0.0
H147 H 0.45281 0.85519 0.48672 0.0
H148 H 0.55889 0.98731 0.10282 0.0
H149 H 0.51751 0.0125 0.07356 0.0
H150 H 0.55674 0.09445 0.99734 0.0
H151 H 0.59851 0.0696 0.03169 0.0
Dy152 Dy 0.53873 0.50116 0.82202 0.0
Dy153 Dy 0.48635 0.48766 0.72447 0.0
C154 C 0.509 0.43823 0.84719 0.0
O155 O 0.55876 0.48309 0.69389 0.0
O156 O 0.52356 0.45728 0.66391 0.0
O157 O 0.57687 0.48988 0.86114 0.0
O158 O 0.55126 0.53228 0.91221 0.0
O159 O 0.50167 0.5305 0.66657 0.0
O160 O 0.53214 0.54385 0.74923 0.0
O161 O 0.47381 0.52903 0.8156 0.0
O162 O 0.49812 0.50538 0.90167 0.0
O163 O 0.47398 0.47166 0.61221 0.0
O164 O 0.44385 0.48367 0.72488 0.0
C165 C 0.54903 0.46235 0.6497 0.0
O166 O 0.53173 0.45108 0.84024 0.0
O167 O 0.4875 0.45192 0.82265 0.0
C168 C 0.58181 0.51051 0.99657 0.0
C169 C 0.60493 0.50649 0.14318 0.0
C170 C 0.60389 0.47937 0.09254 0.0
C171 C 0.59255 0.48135 0.02005 0.0
C172 C 0.58193 0.53737 0.04862 0.0
C173 C 0.59329 0.53543 0.12082 0.0
C174 C 0.57338 0.51425 0.91416 0.0
C175 C 0.51783 0.54988 0.69047 0.0
C176 C 0.48072 0.52836 0.88915 0.0
C177 C 0.42889 0.48463 0.59161 0.0
C178 C 0.39211 0.49253 0.47939 0.0
C179 C 0.41947 0.49658 0.45345 0.0
C180 C 0.43759 0.49268 0.50871 0.0
C181 C 0.40145 0.48171 0.61853 0.0
C182 C 0.38328 0.48573 0.56338 0.0
C183 C 0.44846 0.4743 0.64558 0.0
H184 H 0.61224 0.45659 0.1081 0.0
H185 H 0.59287 0.46016 0.98134 0.0
H186 H 0.57412 0.56023 0.03174 0.0
H187 H 0.59397 0.55695 0.15697 0.0
H188 H 0.42721 0.5015 0.38933 0.0
H189 H 0.45864 0.49477 0.48528 0.0
H190 H 0.39417 0.47517 0.68164 0.0
H191 H 0.36234 0.48304 0.58646 0.0
Dy192 Dy 1.00664 0.53783 0.72655 0.0
Dy193 Dy 0.99177 0.48184 0.85399 0.0
C194 C 1.01233 0.46539 0.65925 0.0
O195 O 0.96175 0.53912 0.74599 0.0
O196 O 0.95555 0.49035 0.79433 0.0
O197 O 0.02647 0.55566 0.61213 0.0
O198 O 0.99813 0.58664 0.70302 0.0
O199 O 0.97586 0.5286 0.91997 0.0
O200 O 1.00968 0.55444 0.85525 0.0
O201 O 0.03462 0.48747 0.86247 0.0
O202 O 0.04685 0.52079 0.75689 0.0
O203 O 0.98991 0.46541 0.97864 0.0
O204 O 0.97497 0.43842 0.88553 0.0
C205 C 0.94674 0.51608 0.76222 0.0
O206 O 1.00599 0.49489 0.6446 0.0
O207 O 0.01329 0.45634 0.73511 0.0
C208 C 0.03417 0.60859 0.62173 0.0
C209 C 0.0763 0.64659 0.58399 0.0
C210 C 0.05921 0.64166 0.52661 0.0
C211 C 0.03833 0.62292 0.54546 0.0
C212 C 0.04955 0.61533 0.68227 0.0
C213 C 0.07031 0.63451 0.66384 0.0
C214 C 0.01564 0.58444 0.63312 0.0
C215 C 0.99178 0.55066 0.92155 0.0
C216 C 0.05264 0.50296 0.81708 0.0
C217 C 0.94623 0.45146 0.0163 0.0
C218 C 0.89876 0.48976 0.08777 0.0
C219 C 0.90045 0.47272 0.01123 0.0
C220 C 0.92388 0.45359 0.97608 0.0
C221 C 0.94312 0.46493 0.09798 0.0
C222 C 0.91961 0.48402 0.13332 0.0
C223 C 0.97356 0.44495 0.96541 0.0
H224 H 0.06329 0.64987 0.46406 0.0
H225 H 0.02654 0.61799 0.49823 0.0
H226 H 0.04639 0.60454 0.74195 0.0
H227 H 0.08268 0.63822 0.71018 0.0
H228 H 0.88464 0.47606 0.97497 0.0
H229 H 0.92533 0.44318 0.9135 0.0
H230 H 0.95987 0.46341 0.13095 0.0
H231 H 0.91844 0.49571 0.19426 0.0
H232 H 0.221 0.99579 0.49993 0.0
H233 H 0.06236 0.9835 0.55764 0.0
H234 H 0.18252 0.97055 0.29584 0.0
H235 H 0.10362 0.00215 0.7608 0.0
H236 H 0.10472 0.984 0.45847 0.0
H237 H 0.17701 0.00479 0.59235 0.0
C238 C 0.20312 0.99297 0.47413 0.0
C239 C 0.20538 0.98274 0.3899 0.0
C240 C 0.10449 0.98809 0.5247 0.0
C241 C 0.15475 0.992 0.4963 0.0
C242 C 0.08025 0.9878 0.58161 0.0
C243 C 0.07926 0.99264 0.66825 0.0
C244 C 0.1281 0.99329 0.55422 0.0
C245 C 0.10326 0.99811 0.69495 0.0
C246 C 0.17799 0.99778 0.52713 0.0
C247 C 0.18161 0.97887 0.36005 0.0
N248 N 0.12658 0.9982 0.6384 0.0
N249 N 0.1573 0.98319 0.41335 0.0
H250 H 0.52501 0.17094 0.27538 0.0
H251 H 0.47251 0.11312 0.73425 0.0
H252 H 0.49822 0.23224 0.49713 0.0
H253 H 0.50879 0.04907 0.52406 0.0
H254 H 0.476 0.15662 0.64211 0.0
H255 H 0.51334 0.12579 0.35891 0.0
C256 C 0.51625 0.17491 0.34122 0.0
C257 C 0.51277 0.20526 0.37967 0.0
C258 C 0.48307 0.13305 0.61581 0.0
C259 C 0.49954 0.15401 0.47543 0.0
C260 C 0.48106 0.1081 0.66855 0.0
C261 C 0.49059 0.07729 0.63727 0.0
C262 C 0.49478 0.12738 0.53074 0.0
C263 C 0.5013 0.07242 0.55119 0.0
C264 C 0.50976 0.14918 0.38896 0.0
C265 C 0.50149 0.20916 0.46527 0.0
N266 N 0.50328 0.0972 0.50107 0.0
N267 N 0.49544 0.18391 0.51016 0.0
H268 H 0.3027 0.55176 0.09628 0.0
H269 H 0.34999 0.45743 0.46954 0.0
H270 H 0.25594 0.48582 0.23352 0.0
H271 H 0.39082 0.53182 0.34901 0.0
H272 H 0.31885 0.46164 0.37124 0.0
H273 H 0.33946 0.53703 0.17055 0.0
C274 C 0.30067 0.53317 0.13961 0.0
C275 C 0.27642 0.51963 0.15786 0.0
C276 C 0.33473 0.47692 0.36603 0.0
C277 C 0.31792 0.50367 0.24643 0.0
C278 C 0.35242 0.47478 0.42283 0.0
C279 C 0.3731 0.49451 0.41866 0.0
C280 C 0.33763 0.4989 0.30396 0.0
C281 C 0.37546 0.51589 0.35481 0.0
C282 C 0.32147 0.52515 0.18315 0.0
C283 C 0.2745 0.49636 0.21647 0.0
N284 N 0.35794 0.51758 0.30054 0.0
N285 N 0.29479 0.48943 0.25957 0.0
H286 H 0.07237 0.35262 0.19735 0.0
H287 H 1.00594 0.40295 0.66573 0.0
H288 H 1.01197 0.30205 0.3382 0.0
H289 H 0.02925 0.47328 0.49196 0.0
H290 H 0.01253 0.36388 0.54821 0.0
H291 H 0.06028 0.39649 0.30421 0.0
C292 C 0.05601 0.35127 0.24951 0.0
C293 C 0.04271 0.32415 0.25859 0.0
C294 C 0.01611 0.3879 0.53582 0.0
C295 C 0.0298 0.3731 0.38231 0.0
C296 C 0.01261 0.41014 0.60289 0.0
C297 C 0.01714 0.4414 0.58865 0.0
C298 C 0.02479 0.39676 0.45391 0.0
C299 C 0.02549 0.44943 0.50568 0.0
C300 C 0.04928 0.37608 0.31062 0.0
C301 C 0.02226 0.32292 0.32844 0.0
N302 N 0.02934 0.42717 0.4414 0.0
N303 N 0.0167 0.34683 0.38834 0.0
H304 H 0.82589 0.94557 0.33609 0.0
H305 H 0.90843 0.02842 0.9552 0.0
H306 H 0.79321 0.02618 0.22294 0.0
H307 H 0.94665 0.96093 0.09872 0.0
H308 H 0.86647 0.02872 0.05617 0.0
H309 H 0.87089 0.95252 0.25775 0.0
C310 C 0.82839 0.96549 0.29744 0.0
C311 C 0.80589 0.98567 0.28714 0.0
C312 C 0.88405 0.01395 0.06598 0.0
C313 C 0.85699 0.99292 0.19404 0.0
C314 C 0.90806 0.01364 0.00788 0.0
C315 C 0.93124 0.9945 0.01781 0.0
C316 C 0.88291 0.99472 0.13454 0.0
C317 C 0.92938 0.97605 0.0881 0.0
C318 C 0.854 0.9692 0.25166 0.0
C319 C 0.81011 0.01045 0.23376 0.0
N320 N 0.90566 0.97643 0.14319 0.0
N321 N 0.83498 0.0131 0.18851 0.0
H322 H 0.54368 0.81778 0.24621 0.0
H323 H 0.46291 0.91632 0.94831 0.0
H324 H 0.46395 0.803 0.21005 0.0
H325 H 0.53463 0.9465 0.01839 0.0
H326 H 0.46286 0.87595 0.04947 0.0
H327 H 0.54037 0.8669 0.17274 0.0
C328 C 0.52518 0.82544 0.22523 0.0
C329 C 0.50403 0.80643 0.23417 0.0
C330 C 0.47859 0.89144 0.04339 0.0
C331 C 0.50037 0.86178 0.1482 0.0
C332 C 0.47871 0.91446 0.98502 0.0
C333 C 0.49894 0.93472 0.97411 0.0
C334 C 0.49905 0.88811 0.09103 0.0
C335 C 0.51869 0.93132 0.0245 0.0
C336 C 0.52338 0.85326 0.18258 0.0
C337 C 0.48068 0.81703 0.20444 0.0
N338 N 0.51843 0.90822 0.08017 0.0
N339 N 0.47962 0.84369 0.16202 0.0
H340 H 0.67582 0.56923 0.55179 0.0
H341 H 0.65134 0.46939 0.1569 0.0
H342 H 0.73047 0.49074 0.43192 0.0
H343 H 0.59237 0.54082 0.29514 0.0
H344 H 0.67749 0.47172 0.26839 0.0
H345 H 0.64185 0.5536 0.47401 0.0
C346 C 0.6802 0.54784 0.51187 0.0
C347 C 0.7059 0.53106 0.49905 0.0
C348 C 0.65866 0.48663 0.27493 0.0
C349 C 0.6676 0.51386 0.40613 0.0
C350 C 0.64355 0.4852 0.21121 0.0
C351 C 0.61958 0.50519 0.21549 0.0
C352 C 0.65 0.50836 0.34373 0.0
C353 C 0.61096 0.52545 0.28758 0.0
C354 C 0.66095 0.53918 0.46633 0.0
C355 C 0.71078 0.50403 0.4447 0.0
N356 N 0.62625 0.52674 0.34807 0.0
N357 N 0.69205 0.49666 0.39899 0.0
H358 H 0.05547 0.62754 0.3254 0.0
H359 H 0.95086 0.57392 0.05195 0.0
H360 H 0.98192 0.68693 0.32498 0.0
H361 H 0.03708 0.56385 0.9732 0.0
H362 H 0.95608 0.60293 0.18166 0.0
H363 H 0.04175 0.58942 0.23067 0.0
C364 C 0.036 0.63207 0.30741 0.0
C365 C 0.01996 0.66061 0.332 0.0
C366 C 0.97372 0.59406 0.13589 0.0
C367 C 1.00435 0.61726 0.22278 0.0
C368 C 0.97079 0.57764 0.06228 0.0
C369 C 0.99357 0.56704 1.00149 0.0
C370 C 0.99963 0.59867 0.14933 0.0
C371 C 0.01897 0.57213 0.01777 0.0
C372 C 0.02829 0.61043 0.25297 0.0
C373 C 0.99486 0.66522 0.30715 0.0
N374 N 0.0213 0.58741 0.09011 0.0
N375 N 0.98797 0.64398 0.25236 0.0
H376 H 0.07709 0.24767 0.37715 0.0
H377 H 0.05788 0.07187 0.34195 0.0
H378 H 0.11294 0.18778 0.15781 0.0
H379 H 0.03515 0.13093 0.56941 0.0
H380 H 0.08851 0.10951 0.28413 0.0
H381 H 0.07562 0.2023 0.45987 0.0
C382 C 0.08562 0.22522 0.34608 0.0
C383 C 0.09349 0.22156 0.25849 0.0
C384 C 0.07723 0.11394 0.34733 0.0
C385 C 0.09035 0.16889 0.35366 0.0
C386 C 0.05965 0.09253 0.38011 0.0
C387 C 0.04328 0.09893 0.45931 0.0
C388 C 0.07828 0.14192 0.39412 0.0
C389 C 0.04663 0.12575 0.5067 0.0
C390 C 0.08436 0.19898 0.3939 0.0
C391 C 0.10494 0.19157 0.22415 0.0
N392 N 0.0634 0.14648 0.47289 0.0
N393 N 0.10185 0.16612 0.27099 0.0
H394 H 0.30876 0.88292 0.25887 0.0
H395 H 0.37266 0.8737 0.66876 0.0
H396 H 0.27168 0.92681 0.50096 0.0
H397 H 0.41756 0.86693 0.41525 0.0
H398 H 0.33131 0.87086 0.6134 0.0
H399 H 0.34344 0.85516 0.32362 0.0
C400 C 0.30752 0.88621 0.32586 0.0
C401 C 0.28776 0.9081 0.37397 0.0
C402 C 0.35038 0.86911 0.57027 0.0
C403 C 0.32703 0.87597 0.44827 0.0
C404 C 0.37399 0.87093 0.60164 0.0
C405 C 0.39862 0.87183 0.54665 0.0
C406 C 0.35147 0.8678 0.48343 0.0
C407 C 0.39915 0.86678 0.46044 0.0
C408 C 0.32723 0.87021 0.36271 0.0
C409 C 0.28662 0.91049 0.46097 0.0
N410 N 0.37585 0.86565 0.43146 0.0
N411 N 0.30634 0.89514 0.49506 0.0
H412 H 0.54486 0.28806 0.50651 0.0
H413 H 0.5604 0.45738 0.47975 0.0
H414 H 0.58565 0.31799 0.27049 0.0
H415 H 0.57611 0.41164 0.69972 0.0
H416 H 0.57429 0.40752 0.39729 0.0
H417 H 0.5602 0.3314 0.57803 0.0
C418 C 0.55765 0.30305 0.46942 0.0
C419 C 0.5632 0.2996 0.3815 0.0
C420 C 0.57586 0.40866 0.46284 0.0
C421 C 0.58 0.35029 0.46393 0.0
C422 C 0.5681 0.43713 0.50959 0.0
C423 C 0.56738 0.43839 0.59603 0.0
C424 C 0.5817 0.3813 0.50407 0.0
C425 C 0.57673 0.41145 0.6328 0.0
C426 C 0.56635 0.32802 0.5107 0.0
C427 C 0.57974 0.3204 0.33793 0.0
N428 N 0.5827 0.38365 0.58713 0.0
N429 N 0.58681 0.34547 0.37928 0.0
H430 H 0.18347 0.63477 0.16299 0.0
H431 H 0.12499 0.62753 0.62744 0.0
H432 H 0.22408 0.58737 0.34223 0.0
H433 H 0.08926 0.69109 0.46924 0.0
H434 H 0.16808 0.62817 0.53702 0.0
H435 H 0.15575 0.66813 0.2781 0.0
C436 C 0.187 0.63175 0.22603 0.0
C437 C 0.20566 0.60745 0.24269 0.0
C438 C 0.15099 0.64262 0.5225 0.0
C439 C 0.17419 0.64572 0.37463 0.0
C440 C 0.12617 0.64257 0.57521 0.0
C441 C 0.10292 0.6578 0.55305 0.0
C442 C 0.15236 0.65708 0.4459 0.0
C443 C 0.10634 0.67734 0.48529 0.0
C444 C 0.17134 0.65106 0.29175 0.0
C445 C 0.20995 0.60548 0.32545 0.0
N446 N 0.13034 0.67537 0.43173 0.0
N447 N 0.19397 0.62384 0.3882 0.0
H448 H 0.078 0.72 0.17213 0.0
H449 H 0.13322 0.83413 0.96102 0.0
H450 H 0.1106 0.75004 0.3856 0.0
H451 H 0.11669 0.87728 0.21192 0.0
H452 H 0.139 0.78272 0.01972 0.0
H453 H 0.10565 0.75349 0.08602 0.0
C454 C 0.09177 0.73265 0.20054 0.0
C455 C 0.09112 0.73306 0.28725 0.0
C456 C 0.13466 0.80359 0.06153 0.0
C457 C 0.12271 0.77223 0.18844 0.0
C458 C 0.13133 0.83298 0.02819 0.0
C459 C 0.12305 0.86011 0.08166 0.0
C460 C 0.1297 0.80147 0.14878 0.0
C461 C 0.12239 0.8572 0.16779 0.0
C462 C 0.10773 0.75192 0.15082 0.0
C463 C 0.10951 0.75011 0.31976 0.0
N464 N 0.12497 0.82834 0.19873 0.0
N465 N 0.12381 0.76994 0.27102 0.0
H466 H 0.74234 0.99215 0.11893 0.0
H467 H 0.59246 0.98225 0.18 0.0
H468 H 0.70676 0.91298 0.231 0.0
H469 H 0.63172 0.02894 0.96815 0.0
H470 H 0.6352 0.95308 0.18782 0.0
H471 H 0.70542 1.00065 0.04307 0.0
C472 C 0.72742 0.97562 0.12468 0.0
C473 C 0.72696 0.95257 0.1838 0.0
C474 C 0.63442 0.96931 0.13865 0.0
C475 C 0.68431 0.96293 0.09988 0.0
C476 C 0.60996 0.98617 0.13436 0.0
C477 C 0.60841 0.00847 0.07394 0.0
C478 C 0.65775 0.97532 0.08369 0.0
C479 C 0.63204 0.01273 0.01749 0.0
C480 C 0.70616 0.98069 0.08182 0.0
C481 C 0.70723 0.93175 0.18817 0.0
N482 N 0.65587 0.99671 0.02468 0.0
N483 N 0.68607 0.93811 0.14916 0.0
H484 H 0.54328 0.66369 0.16521 0.0
H485 H 0.49094 0.53395 0.04638 0.0
H486 H 0.47105 0.71541 0.11594 0.0
H487 H 0.4665 0.5891 0.85081 0.0
H488 H 0.49863 0.58196 0.11902 0.0
H489 H 0.53326 0.61788 0.08756 0.0
C490 C 0.52545 0.66545 0.13721 0.0
C491 C 0.50766 0.69306 0.14831 0.0
C492 C 0.49146 0.58351 0.06036 0.0
C493 C 0.49589 0.64079 0.06105 0.0
C494 C 0.48673 0.55623 0.01944 0.0
C495 C 0.4785 0.55752 0.94185 0.0
C496 C 0.48787 0.61232 0.02363 0.0
C497 C 0.473 0.5871 0.91037 0.0
C498 C 0.51964 0.63931 0.09372 0.0
C499 C 0.48517 0.69442 0.10903 0.0
N500 N 0.47802 0.61353 0.95126 0.0
N501 N 0.47973 0.6684 0.06737 0.0
H502 H 0.80151 0.62222 0.42017 0.0
H503 H 0.84573 0.49087 0.07183 0.0
H504 H 0.74773 0.57158 0.30241 0.0
H505 H 0.9009 0.54703 0.16625 0.0
H506 H 0.80929 0.53162 0.12464 0.0
H507 H 0.83613 0.61005 0.29527 0.0
C508 C 0.79653 0.60953 0.36723 0.0
C509 C 0.77255 0.59519 0.37556 0.0
C510 C 0.82941 0.53531 0.133 0.0
C511 C 0.81174 0.58165 0.23259 0.0
C512 C 0.8503 0.51188 0.10294 0.0
C513 C 0.87638 0.51495 0.11681 0.0
C514 C 0.83439 0.56176 0.17922 0.0
C515 C 0.88092 0.54293 0.15737 0.0
C516 C 0.81642 0.60247 0.29583 0.0
C517 C 0.76651 0.58137 0.30227 0.0
N518 N 0.86005 0.56494 0.18866 0.0
N519 N 0.78641 0.57369 0.2351 0.0
H520 H 0.0638 0.232 0.9475 0.0
H521 H 0.98996 0.08249 0.04492 0.0
H522 H 1.00138 0.22915 0.16364 0.0
H523 H 0.02497 0.10041 0.79143 0.0
H524 H 0.99299 0.13711 0.08737 0.0
H525 H 0.04803 0.18642 0.88334 0.0
C526 C 0.04594 0.22267 0.97955 0.0
C527 C 0.03361 0.23454 0.06037 0.0
C528 C 0.99971 0.12924 0.02223 0.0
C529 C 0.01646 0.1814 0.98988 0.0
C530 C 0.9982 0.09796 0.99808 0.0
C531 C 1.00749 0.08677 0.91469 0.0
C532 C 1.01112 0.14944 0.963 0.0
C533 C 0.01769 0.10802 0.85651 0.0
C534 C 0.03717 0.19639 0.94353 0.0
C535 C 1.01111 0.22098 0.10064 0.0
N536 N 0.01965 0.13821 0.882 0.0
N537 N 1.00366 0.19466 0.06592 0.0
H538 H 0.2875 0.94777 0.06814 0.0
H539 H 0.41365 0.04669 1.00103 0.0
H540 H 0.29534 0.02579 0.23295 0.0
H541 H 0.40211 0.97494 0.82183 0.0
H542 H 0.36822 0.04329 0.07792 0.0
H543 H 0.32607 0.96172 0.96798 0.0
C544 C 0.29671 0.96865 0.0816 0.0
C545 C 0.28785 0.98601 0.1583 0.0
C546 C 0.37544 0.02852 0.02127 0.0
C547 C 0.333 0.00132 0.0456 0.0
C548 C 0.40151 0.03041 0.97711 0.0
C549 C 0.41202 0.01091 0.90471 0.0
C550 C 0.35956 0.00672 0.99383 0.0
C551 C 0.39504 0.99044 0.87713 0.0
C552 C 0.319 0.97637 0.02492 0.0
C553 C 0.30111 0.01219 0.17384 0.0
N554 N 0.36987 0.98863 0.92213 0.0
N555 N 0.32322 0.01876 0.11873 0.0
H556 H 0.47568 0.30097 0.21154 0.0
H557 H 0.55052 0.3929 0.84445 0.0
H558 H 0.55404 0.26885 0.06807 0.0
H559 H 0.46539 0.41355 0.93814 0.0
H560 H 0.55033 0.34455 0.9183 0.0
H561 H 0.46875 0.33819 0.10409 0.0
C562 C 0.49087 0.30076 0.15541 0.0
C563 C 0.51533 0.28164 0.1479 0.0
C564 C 0.53156 0.35935 0.92221 0.0
C565 C 0.50816 0.32496 0.02699 0.0
C566 C 0.5317 0.38713 0.88031 0.0
C567 C 0.50799 0.40749 0.88589 0.0
C568 C 0.50763 0.35196 0.97188 0.0
C569 C 0.48413 0.39855 0.93241 0.0
C570 C 0.48709 0.32229 0.09465 0.0
C571 C 0.53478 0.28295 0.07547 0.0
N572 N 0.48463 0.37169 0.97489 0.0
N573 N 0.53097 0.30461 0.01866 0.0
H574 H 0.19463 0.57088 0.9466 0.0
H575 H 0.07435 0.46616 0.92875 0.0
H576 H 0.18604 0.48701 0.08227 0.0
H577 H 0.09254 0.54041 0.76247 0.0
H578 H 0.11618 0.47119 0.98012 0.0
H579 H 0.15902 0.5579 0.87251 0.0
C580 C 0.18557 0.54932 0.95943 0.0
C581 C 0.19344 0.52988 0.02024 0.0
C582 C 0.1112 0.48612 0.93167 0.0
C583 C 0.1519 0.5152 0.93719 0.0
C584 C 0.08725 0.48327 0.90213 0.0
C585 C 0.07968 0.50294 0.84106 0.0
C586 C 0.12774 0.50905 0.90081 0.0
C587 C 0.09739 0.52465 0.80934 0.0
C588 C 0.16512 0.54197 0.9174 0.0
C589 C 0.1808 0.50243 0.03515 0.0
N590 N 0.12033 0.52731 0.84011 0.0
N591 N 0.16042 0.49612 0.99479 0.0
H592 H 0.98453 0.77092 0.48636 0.0
H593 H 0.03652 0.87975 0.81838 0.0
H594 H 0.05187 0.74307 0.60394 0.0
H595 H 0.96734 0.90775 0.70822 0.0
H596 H 0.0382 0.82673 0.75595 0.0
H597 H 0.97293 0.8174 0.58419 0.0
C598 C 0.99621 0.774 0.53497 0.0
C599 C 0.01909 0.75319 0.53753 0.0
C600 C 0.02246 0.84436 0.74604 0.0
C601 C 1.00666 0.80669 0.64746 0.0
C602 C 0.02153 0.87473 0.78163 0.0
C603 C 1.00194 0.89846 0.76788 0.0
C604 C 1.00382 0.83754 0.69556 0.0
C605 C 0.98292 0.89034 0.72016 0.0
C606 C 0.98984 0.80072 0.59007 0.0
C607 C 0.03399 0.75858 0.60035 0.0
N608 N 0.98452 0.86071 0.685 0.0
N609 N 0.02776 0.78498 0.65193 0.0
H610 H 0.71449 0.92506 0.50068 0.0
H611 H 0.58614 0.0421 0.72411 0.0
H612 H 0.71042 0.02531 0.4835 0.0
H613 H 0.58484 0.94271 0.6753 0.0
H614 H 0.63418 0.03654 0.66196 0.0
H615 H 0.67064 0.9315 0.59463 0.0
C616 C 0.70491 0.94857 0.51991 0.0
C617 C 0.71644 0.97471 0.4852 0.0
C618 C 0.62342 0.01593 0.66536 0.0
C619 C 0.66542 0.98227 0.59033 0.0
C620 C 0.59592 0.01904 0.70093 0.0
C621 C 0.58116 0.99286 0.70465 0.0
C622 C 0.63656 0.98632 0.63406 0.0
C623 C 0.59517 0.96363 0.67342 0.0
C624 C 0.67958 0.95221 0.57226 0.0
C625 C 0.70261 0.00458 0.51015 0.0
N626 N 0.62194 0.96119 0.63962 0.0
N627 N 0.67772 0.00753 0.56027 0.0
H628 H 0.47344 0.72357 0.47416 0.0
H629 H 0.5585 0.5884 0.6727 0.0
H630 H 0.55983 0.70888 0.41217 0.0
H631 H 0.47824 0.58287 0.6259 0.0
H632 H 0.55833 0.64022 0.61224 0.0
H633 H 0.47399 0.68143 0.57178 0.0
C634 C 0.49261 0.71267 0.48473 0.0
C635 C 0.51664 0.72003 0.43596 0.0
C636 C 0.54075 0.62766 0.6158 0.0
C637 C 0.51742 0.67091 0.54482 0.0
C638 C 0.54084 0.59808 0.64999 0.0
C639 C 0.51849 0.58103 0.65328 0.0
C640 C 0.51788 0.64063 0.58682 0.0
C641 C 0.49609 0.59487 0.62339 0.0
C642 C 0.4929 0.68813 0.53897 0.0
C643 C 0.54091 0.7043 0.44979 0.0
N644 N 0.49633 0.62381 0.59178 0.0
N645 N 0.54071 0.68015 0.50205 0.0
H646 H 0.77569 0.5384 0.72681 0.0
H647 H 0.92949 0.5506 0.64082 0.0
H648 H 0.82225 0.52345 0.47681 0.0
H649 H 0.90231 0.48693 0.82914 0.0
H650 H 0.88588 0.55231 0.59649 0.0
H651 H 0.81771 0.52786 0.78277 0.0
C652 C 0.79454 0.53196 0.68393 0.0
C653 C 0.7955 0.5319 0.59705 0.0
C654 C 0.88945 0.53813 0.64795 0.0
C655 C 0.84331 0.52132 0.66008 0.0
C656 C 0.91425 0.53728 0.67368 0.0
C657 C 0.9196 0.51862 0.73905 0.0
C658 C 0.86942 0.5209 0.6891 0.0
C659 C 0.89901 0.50163 0.77864 0.0
C660 C 0.81846 0.52627 0.71577 0.0
C661 C 0.8206 0.52392 0.54419 0.0
N662 N 0.87468 0.50337 0.75366 0.0
N663 N 0.84347 0.51974 0.57634 0.0
loop_
_geom_bond_atom_site_label_1
_geom_bond_atom_site_label_2
_geom_bond_distance
_geom_bond_site_symmetry_2
_ccdc_geom_bond_type
H0 C3 0.931 . S
H1 C6 0.928 . S
H2 C8 0.930 . S
C3 H0 0.931 . S
C3 C4 1.413 . S
C3 C5 1.360 . S
C4 C3 1.413 . S
C4 C8 1.429 . S
C5 C3 1.360 . S
C5 C6 1.372 . S
C6 H1 0.928 . S
C6 C5 1.372 . S
C6 C7 1.404 . S
C7 C6 1.404 . S
C7 C8 1.391 . S
C8 H2 0.930 . S
C8 C4 1.429 . S
C8 C7 1.391 . S
H9 C12 0.931 . S
H10 C15 0.928 . S
H11 C17 0.929 . S
C12 H9 0.931 . S
C12 C13 1.413 . S
C12 C14 1.360 . S
C13 C12 1.413 . S
C13 C17 1.430 1_655 S
C14 C12 1.360 . S
C14 C15 1.375 . S
C15 H10 0.928 . S
C15 C14 1.375 . S
C15 C16 1.405 . S
C16 C15 1.405 . S
C16 C17 1.388 1_655 S
C17 H11 0.929 . S
C17 C13 1.430 1_455 S
C17 C16 1.388 1_455 S
H18 C21 0.930 . S
H19 C24 0.928 . S
H20 C26 0.929 . S
C21 H18 0.930 . S
C21 C22 1.413 . S
C21 C23 1.360 . S
C22 C21 1.413 . S
C22 C26 1.428 1_565 S
C23 C21 1.360 . S
C23 C24 1.370 . S
C24 H19 0.928 . S
C24 C23 1.370 . S
C24 C25 1.405 . S
C25 C24 1.405 . S
C25 C26 1.392 1_565 S
C26 H20 0.929 . S
C26 C22 1.428 1_545 S
C26 C25 1.392 1_545 S
H27 C30 0.931 . S
H28 C33 0.928 . S
H29 C35 0.930 . S
C30 H27 0.931 . S
C30 C31 1.413 . S
C30 C32 1.360 . S
C31 C30 1.413 . S
C31 C35 1.429 . S
C32 C30 1.360 . S
C32 C33 1.372 . S
C33 H28 0.928 . S
C33 C32 1.372 . S
C33 C34 1.404 . S
C34 C33 1.404 . S
C34 C35 1.391 . S
C35 H29 0.930 . S
C35 C31 1.429 . S
C35 C34 1.391 . S
H36 C39 0.931 . S
H37 C42 0.928 . S
H38 C44 0.930 . S
C39 H36 0.931 . S
C39 C40 1.413 . S
C39 C41 1.360 1_556 S
C40 C39 1.413 . S
C40 C44 1.429 . S
C41 C39 1.360 1_554 S
C41 C42 1.372 . S
C42 H37 0.928 . S
C42 C41 1.372 . S
C42 C43 1.404 . S
C43 C42 1.404 . S
C43 C44 1.391 1_554 S
C44 H38 0.930 . S
C44 C40 1.429 . S
C44 C43 1.391 1_556 S
H45 C48 0.930 . S
H46 C51 0.928 . S
H47 C53 0.931 . S
C48 H45 0.930 . S
C48 C49 1.414 . S
C48 C50 1.360 . S
C49 C48 1.414 . S
C49 C53 1.428 1_655 S
C50 C48 1.360 . S
C50 C51 1.371 . S
C51 H46 0.928 . S
C51 C50 1.371 . S
C51 C52 1.404 . S
C52 C51 1.404 . S
C52 C53 1.393 1_655 S
C53 H47 0.931 . S
C53 C49 1.428 1_455 S
C53 C52 1.393 1_455 S
H54 C57 0.931 . S
H55 C60 0.928 . S
H56 C62 0.931 . S
C57 H54 0.931 . S
C57 C58 1.414 . S
C57 C59 1.360 . S
C58 C57 1.414 . S
C58 C62 1.430 1_565 S
C59 C57 1.360 . S
C59 C60 1.373 . S
C60 H55 0.928 . S
C60 C59 1.373 . S
C60 C61 1.404 . S
C61 C60 1.404 . S
C61 C62 1.389 1_565 S
C62 H56 0.931 . S
C62 C58 1.430 1_545 S
C62 C61 1.389 1_545 S
H63 C66 0.931 . S
H64 C69 0.928 . S
H65 C71 0.930 . S
C66 H63 0.931 . S
C66 C67 1.413 . S
C66 C68 1.360 . S
C67 C66 1.413 . S
C67 C71 1.429 . S
C68 C66 1.360 . S
C68 C69 1.372 . S
C69 H64 0.928 . S
C69 C68 1.372 . S
C69 C70 1.404 . S
C70 C69 1.404 . S
C70 C71 1.391 . S
C71 H65 0.930 . S
C71 C67 1.429 . S
C71 C70 1.391 . S
Dy72 O75 2.307 1_545 S
Dy72 O77 2.381 1_655 S
Dy72 O78 2.379 . S
Dy72 O80 2.339 . S
Dy72 O82 2.298 . S
Dy72 O86 2.275 1_655 S
Dy72 C94 2.738 . S
Dy73 O76 2.298 . S
Dy73 O79 2.275 1_455 S
Dy73 O81 2.307 1_565 S
Dy73 O83 2.384 1_455 S
Dy73 O84 2.379 . S
Dy73 O87 2.339 . S
Dy73 C103 2.738 . S
C74 O86 1.254 1_565 S
C74 O87 1.257 . S
O75 Dy72 2.307 1_565 S
O75 C85 1.266 . S
O76 Dy73 2.298 . S
O76 C85 1.236 1_455 S
O77 Dy72 2.381 1_455 S
O77 C94 1.222 1_455 S
O78 Dy72 2.379 . S
O78 C94 1.249 . S
O79 Dy73 2.275 1_655 S
O79 C95 1.254 1_565 S
O80 Dy72 2.339 . S
O80 C95 1.257 . S
O81 Dy73 2.307 1_545 S
O81 C96 1.266 . S
O82 Dy72 2.298 . S
O82 C96 1.236 1_655 S
O83 Dy73 2.384 1_655 S
O83 C103 1.231 1_655 S
O84 Dy73 2.379 . S
O84 C103 1.249 . S
C85 O75 1.266 . S
C85 O76 1.236 1_655 S
O86 Dy72 2.275 1_455 S
O86 C74 1.254 1_545 S
O87 Dy73 2.339 . S
O87 C74 1.257 . S
C88 C91 1.344 . S
C88 C92 1.328 . S
C88 C94 1.516 . S
C89 C90 1.304 . S
C89 C93 1.323 . S
C90 C89 1.304 . S
C90 C91 1.371 . S
C90 H104 0.930 1_655 S
C91 C88 1.344 . S
C91 C90 1.371 . S
C91 H105 0.931 1_655 S
C92 C88 1.328 . S
C92 C93 1.433 . S
C92 H106 0.931 . S
C93 C89 1.323 . S
C93 C92 1.433 . S
C93 H107 0.933 . S
C94 Dy72 2.738 . S
C94 O77 1.222 1_655 S
C94 O78 1.249 . S
C94 C88 1.516 . S
C95 O79 1.254 1_545 S
C95 O80 1.257 . S
C96 O81 1.266 . S
C96 O82 1.236 1_455 S
C97 C100 1.344 . S
C97 C101 1.328 . S
C97 C103 1.516 1_554 S
C98 C99 1.304 . S
C98 C102 1.323 . S
C99 C98 1.304 . S
C99 C100 1.371 . S
C99 H108 0.930 1_455 S
C100 C97 1.344 . S
C100 C99 1.371 . S
C100 H109 0.931 1_455 S
C101 C97 1.328 . S
C101 C102 1.433 . S
C101 H110 0.931 1_554 S
C102 C98 1.323 . S
C102 C101 1.433 . S
C102 H111 0.933 . S
C103 Dy73 2.738 . S
C103 O83 1.231 1_455 S
C103 O84 1.249 . S
C103 C97 1.516 1_556 S
H104 C90 0.930 1_455 S
H105 C91 0.931 1_455 S
H106 C92 0.931 . S
H107 C93 0.933 . S
H108 C99 0.930 1_655 S
H109 C100 0.931 1_655 S
H110 C101 0.931 1_556 S
H111 C102 0.933 . S
Dy112 O115 2.307 . S
Dy112 O117 2.395 1_565 S
Dy112 O118 2.379 . S
Dy112 O120 2.339 . S
Dy112 O122 2.298 . S
Dy112 O126 2.275 1_565 S
Dy112 C134 2.738 . S
Dy113 O116 2.298 . S
Dy113 O119 2.275 1_545 S
Dy113 O121 2.307 . S
Dy113 O123 2.395 1_545 S
Dy113 O124 2.379 . S
Dy113 O127 2.339 . S
Dy113 C143 2.738 . S
C114 O126 1.254 . S
C114 O127 1.257 . S
O115 Dy112 2.307 . S
O115 C125 1.266 . S
O116 Dy113 2.298 . S
O116 C125 1.236 1_545 S
O117 Dy112 2.395 1_545 S
O117 C134 1.255 1_545 S
O118 Dy112 2.379 . S
O118 C134 1.249 . S
O119 Dy113 2.275 1_565 S
O119 C135 1.254 . S
O120 Dy112 2.339 . S
O120 C135 1.257 . S
O121 Dy113 2.307 . S
O121 C136 1.266 . S
O122 Dy112 2.298 . S
O122 C136 1.236 1_565 S
O123 Dy113 2.395 1_565 S
O123 C143 1.255 1_565 S
O124 Dy113 2.379 . S
O124 C143 1.249 . S
C125 O115 1.266 . S
C125 O116 1.236 1_565 S
O126 Dy112 2.275 1_545 S
O126 C114 1.254 . S
O127 Dy113 2.339 . S
O127 C114 1.257 . S
C128 C131 1.344 . S
C128 C132 1.328 . S
C128 C134 1.516 . S
C129 C130 1.304 . S
C129 C133 1.323 . S
C130 C129 1.304 . S
C130 C131 1.371 . S
C130 H144 0.930 1_565 S
C131 C128 1.344 . S
C131 C130 1.371 . S
C131 H145 0.931 1_565 S
C132 C128 1.328 . S
C132 C133 1.433 . S
C132 H146 0.931 . S
C133 C129 1.323 . S
C133 C132 1.433 . S
C133 H147 0.933 . S
C134 Dy112 2.738 . S
C134 O117 1.255 1_565 S
C134 O118 1.249 . S
C134 C128 1.516 . S
C135 O119 1.254 . S
C135 O120 1.257 . S
C136 O121 1.266 . S
C136 O122 1.236 1_545 S
C137 C140 1.344 1_556 S
C137 C141 1.328 1_556 S
C137 C143 1.516 . S
C138 C139 1.304 . S
C138 C142 1.323 . S
C139 C138 1.304 . S
C139 C140 1.371 . S
C139 H148 0.930 1_545 S
C140 C137 1.344 1_554 S
C140 C139 1.371 . S
C140 H149 0.931 1_544 S
C141 C137 1.328 1_554 S
C141 C142 1.433 . S
C141 H150 0.931 . S
C142 C138 1.323 . S
C142 C141 1.433 . S
C142 H151 0.933 . S
C143 Dy113 2.738 . S
C143 O123 1.255 1_545 S
C143 O124 1.249 . S
C143 C137 1.516 . S
H144 C130 0.930 1_545 S
H145 C131 0.931 1_545 S
H146 C132 0.931 . S
H147 C133 0.933 . S
H148 C139 0.930 1_565 S
H149 C140 0.931 1_566 S
H150 C141 0.931 . S
H151 C142 0.933 . S
Dy152 O155 2.307 . S
Dy152 O157 2.395 . S
Dy152 O158 2.379 . S
Dy152 O160 2.339 . S
Dy152 O162 2.298 . S
Dy152 O166 2.275 . S
Dy152 C174 2.738 . S
Dy153 O156 2.298 . S
Dy153 O159 2.275 . S
Dy153 O161 2.307 . S
Dy153 O163 2.395 . S
Dy153 O164 2.379 . S
Dy153 O167 2.339 . S
Dy153 C183 2.738 . S
C154 O166 1.254 . S
C154 O167 1.257 . S
O155 Dy152 2.307 . S
O155 C165 1.266 . S
O156 Dy153 2.298 . S
O156 C165 1.236 . S
O157 Dy152 2.395 . S
O157 C174 1.255 . S
O158 Dy152 2.379 . S
O158 C174 1.249 . S
O159 Dy153 2.275 . S
O159 C175 1.254 . S
O160 Dy152 2.339 . S
O160 C175 1.257 . S
O161 Dy153 2.307 . S
O161 C176 1.266 . S
O162 Dy152 2.298 . S
O162 C176 1.236 . S
O163 Dy153 2.395 . S
O163 C183 1.255 . S
O164 Dy153 2.379 . S
O164 C183 1.249 . S
C165 O155 1.266 . S
C165 O156 1.236 . S
O166 Dy152 2.275 . S
O166 C154 1.254 . S
O167 Dy153 2.339 . S
O167 C154 1.257 . S
C168 C171 1.344 1_556 S
C168 C172 1.328 . S
C168 C174 1.516 . S
C169 C170 1.304 . S
C169 C173 1.323 1_554 S
C170 C169 1.304 . S
C170 C171 1.371 . S
C170 H184 0.930 . S
C171 C168 1.344 1_554 S
C171 C170 1.371 . S
C171 H185 0.931 . S
C172 C168 1.328 . S
C172 C173 1.433 . S
C172 H186 0.931 . S
C173 C169 1.323 1_556 S
C173 C172 1.433 . S
C173 H187 0.933 . S
C174 Dy152 2.738 . S
C174 O157 1.255 . S
C174 O158 1.249 . S
C174 C168 1.516 . S
C175 O159 1.254 . S
C175 O160 1.257 . S
C176 O161 1.266 . S
C176 O162 1.236 . S
C177 C180 1.344 . S
C177 C181 1.328 . S
C177 C183 1.516 . S
C178 C179 1.304 . S
C178 C182 1.323 . S
C179 C178 1.304 . S
C179 C180 1.371 . S
C179 H188 0.930 . S
C180 C177 1.344 . S
C180 C179 1.371 . S
C180 H189 0.931 . S
C181 C177 1.328 . S
C181 C182 1.433 . S
C181 H190 0.931 . S
C182 C178 1.323 . S
C182 C181 1.433 . S
C182 H191 0.933 . S
C183 Dy153 2.738 . S
C183 O163 1.255 . S
C183 O164 1.249 . S
C183 C177 1.516 . S
H184 C170 0.930 . S
H185 C171 0.931 . S
H186 C172 0.931 . S
H187 C173 0.933 . S
H188 C179 0.930 . S
H189 C180 0.931 . S
H190 C181 0.931 . S
H191 C182 0.933 . S
Dy192 O195 2.307 1_455 S
Dy192 O197 2.395 . S
Dy192 O198 2.379 . S
Dy192 O200 2.339 . S
Dy192 O202 2.298 . S
Dy192 O206 2.275 . S
Dy192 C214 2.738 . S
Dy193 O196 2.298 . S
Dy193 O199 2.275 . S
Dy193 O201 2.307 1_655 S
Dy193 O203 2.395 . S
Dy193 O204 2.379 . S
Dy193 O207 2.339 . S
Dy193 C223 2.738 . S
C194 O206 1.254 1_655 S
C194 O207 1.257 . S
O195 Dy192 2.307 1_655 S
O195 C205 1.266 . S
O196 Dy193 2.298 . S
O196 C205 1.236 . S
O197 Dy192 2.395 . S
O197 C214 1.255 . S
O198 Dy192 2.379 . S
O198 C214 1.249 . S
O199 Dy193 2.275 . S
O199 C215 1.254 1_655 S
O200 Dy192 2.339 . S
O200 C215 1.257 . S
O201 Dy193 2.307 1_455 S
O201 C216 1.266 . S
O202 Dy192 2.298 . S
O202 C216 1.236 . S
O203 Dy193 2.395 . S
O203 C223 1.255 . S
O204 Dy193 2.379 . S
O204 C223 1.249 . S
C205 O195 1.266 . S
C205 O196 1.236 . S
O206 Dy192 2.275 . S
O206 C194 1.254 1_455 S
O207 Dy193 2.339 . S
O207 C194 1.257 . S
C208 C211 1.344 . S
C208 C212 1.328 . S
C208 C214 1.516 . S
C209 C210 1.304 . S
C209 C213 1.323 . S
C210 C209 1.304 . S
C210 C211 1.371 . S
C210 H224 0.930 . S
C211 C208 1.344 . S
C211 C210 1.371 . S
C211 H225 0.931 . S
C212 C208 1.328 . S
C212 C213 1.433 . S
C212 H226 0.931 . S
C213 C209 1.323 . S
C213 C212 1.433 . S
C213 H227 0.933 . S
C214 Dy192 2.738 . S
C214 O197 1.255 . S
C214 O198 1.249 . S
C214 C208 1.516 . S
C215 O199 1.254 1_455 S
C215 O200 1.257 . S
C216 O201 1.266 . S
C216 O202 1.236 . S
C217 C220 1.344 . S
C217 C221 1.328 . S
C217 C223 1.516 1_554 S
C218 C219 1.304 . S
C218 C222 1.323 . S
C219 C218 1.304 . S
C219 C220 1.371 . S
C219 H228 0.930 . S
C220 C217 1.344 . S
C220 C219 1.371 . S
C220 H229 0.931 . S
C221 C217 1.328 . S
C221 C222 1.433 . S
C221 H230 0.931 . S
C222 C218 1.323 . S
C222 C221 1.433 . S
C222 H231 0.933 . S
C223 Dy193 2.738 . S
C223 O203 1.255 . S
C223 O204 1.249 . S
C223 C217 1.516 1_556 S
H224 C210 0.930 . S
H225 C211 0.931 . S
H226 C212 0.931 . S
H227 C213 0.933 . S
H228 C219 0.930 . S
H229 C220 0.931 . S
H230 C221 0.931 . S
H231 C222 0.933 . S
H232 C238 0.930 . S
H233 C242 0.930 . S
H234 C247 0.929 . S
H235 C245 0.929 . S
H236 C240 0.929 . S
H237 C246 0.929 . S
C238 H232 0.930 . S
C238 C239 1.386 . S
C238 C246 1.378 . S
C239 C238 1.386 . S
C239 C247 1.411 1_545 S
C240 H236 0.929 . S
C240 C242 1.378 . S
C240 C244 1.353 . S
C241 C244 1.462 1_545 S
C241 C246 1.350 . S
C241 N249 1.427 1_545 S
C242 H233 0.930 . S
C242 C240 1.378 . S
C242 C243 1.361 1_565 S
C243 C242 1.361 1_545 S
C243 C245 1.440 . S
C244 C240 1.353 . S
C244 C241 1.462 1_565 S
C244 N248 1.424 1_565 S
C245 H235 0.929 . S
C245 C243 1.440 . S
C245 N248 1.384 . S
C246 H237 0.929 . S
C246 C238 1.378 . S
C246 C241 1.350 . S
C247 H234 0.929 . S
C247 C239 1.411 1_565 S
C247 N249 1.384 . S
N248 C244 1.424 1_545 S
N248 C245 1.384 . S
N249 C241 1.427 1_565 S
N249 C247 1.384 . S
H250 C256 0.930 . S
H251 C260 0.930 . S
H252 C265 0.929 . S
H253 C263 0.929 . S
H254 C258 0.929 . S
H255 C264 0.929 . S
C256 H250 0.930 . S
C256 C257 1.367 . S
C256 C264 1.378 . S
C257 C256 1.367 . S
C257 C265 1.433 . S
C258 H254 0.929 . S
C258 C260 1.378 . S
C258 C262 1.350 . S
C259 C262 1.463 . S
C259 C264 1.350 . S
C259 N267 1.427 . S
C260 H251 0.930 . S
C260 C258 1.378 . S
C260 C261 1.367 . S
C261 C260 1.367 . S
C261 C263 1.433 . S
C262 C258 1.350 . S
C262 C259 1.463 . S
C262 N266 1.427 . S
C263 H253 0.929 . S
C263 C261 1.433 . S
C263 N266 1.384 . S
C264 H255 0.929 . S
C264 C256 1.378 . S
C264 C259 1.350 . S
C265 H252 0.929 . S
C265 C257 1.433 . S
C265 N267 1.384 . S
N266 C262 1.427 . S
N266 C263 1.384 . S
N267 C259 1.427 . S
N267 C265 1.384 . S
H268 C274 0.930 . S
H269 C278 0.930 . S
H270 C283 0.929 . S
H271 C281 0.929 . S
H272 C276 0.929 . S
H273 C282 0.929 . S
C274 H268 0.930 . S
C274 C275 1.367 . S
C274 C282 1.378 . S
C275 C274 1.367 . S
C275 C283 1.433 . S
C276 H272 0.929 . S
C276 C278 1.378 . S
C276 C280 1.350 . S
C277 C280 1.463 . S
C277 C282 1.350 . S
C277 N285 1.427 . S
C278 H269 0.930 . S
C278 C276 1.378 . S
C278 C279 1.367 . S
C279 C278 1.367 . S
C279 C281 1.433 . S
C280 C276 1.350 . S
C280 C277 1.463 . S
C280 N284 1.427 . S
C281 H271 0.929 . S
C281 C279 1.433 . S
C281 N284 1.384 . S
C282 H273 0.929 . S
C282 C274 1.378 . S
C282 C277 1.350 . S
C283 H270 0.929 . S
C283 C275 1.433 . S
C283 N285 1.384 . S
N284 C280 1.427 . S
N284 C281 1.384 . S
N285 C277 1.427 . S
N285 C283 1.384 . S
H286 C292 0.930 . S
H287 C296 0.930 . S
H288 C301 0.929 . S
H289 C299 0.929 . S
H290 C294 0.929 . S
H291 C300 0.929 . S
C292 H286 0.930 . S
C292 C293 1.372 . S
C292 C300 1.378 . S
C293 C292 1.372 . S
C293 C301 1.432 1_455 S
C294 H290 0.929 . S
C294 C296 1.378 . S
C294 C298 1.350 1_655 S
C295 C298 1.463 . S
C295 C300 1.350 . S
C295 N303 1.427 1_455 S
C296 H287 0.930 . S
C296 C294 1.378 . S
C296 C297 1.367 1_655 S
C297 C296 1.367 1_455 S
C297 C299 1.433 . S
C298 C294 1.350 1_455 S
C298 C295 1.463 . S
C298 N302 1.427 . S
C299 H289 0.929 . S
C299 C297 1.433 . S
C299 N302 1.384 . S
C300 H291 0.929 . S
C300 C292 1.378 . S
C300 C295 1.350 . S
C301 H288 0.929 . S
C301 C293 1.432 1_655 S
C301 N303 1.384 . S
N302 C298 1.427 . S
N302 C299 1.384 . S
N303 C295 1.427 1_655 S
N303 C301 1.384 . S
H304 C310 0.930 . S
H305 C314 0.930 . S
H306 C319 0.929 . S
H307 C317 0.928 1_556 S
H308 C312 0.929 . S
H309 C318 0.929 . S
C310 H304 0.930 . S
C310 C311 1.384 . S
C310 C318 1.378 . S
C311 C310 1.384 . S
C311 C319 1.414 1_565 S
C312 H308 0.929 . S
C312 C314 1.378 1_554 S
C312 C316 1.365 . S
C313 C316 1.460 1_565 S
C313 C318 1.350 . S
C313 N321 1.427 1_565 S
C314 H305 0.930 . S
C314 C312 1.378 1_556 S
C314 C315 1.370 1_545 S
C315 C314 1.370 1_565 S
C315 C317 1.424 1_556 S
C316 C312 1.365 . S
C316 C313 1.460 1_545 S
C316 N320 1.414 1_545 S
C317 H307 0.928 1_554 S
C317 C315 1.424 1_554 S
C317 N320 1.391 . S
C318 H309 0.929 . S
C318 C310 1.378 . S
C318 C313 1.350 . S
C319 H306 0.929 . S
C319 C311 1.414 1_545 S
C319 N321 1.384 . S
N320 C316 1.414 1_565 S
N320 C317 1.391 . S
N321 C313 1.427 1_545 S
N321 C319 1.384 . S
H322 C328 0.930 . S
H323 C332 0.930 . S
H324 C337 0.929 . S
H325 C335 0.930 . S
H326 C330 0.929 . S
H327 C336 0.929 . S
C328 H322 0.930 . S
C328 C329 1.367 . S
C328 C336 1.378 . S
C329 C328 1.367 . S
C329 C337 1.433 . S
C330 H326 0.929 . S
C330 C332 1.378 . S
C330 C334 1.350 . S
C331 C334 1.463 1_554 S
C331 C336 1.350 . S
C331 N339 1.427 1_554 S
C332 H323 0.930 . S
C332 C330 1.378 . S
C332 C333 1.367 . S
C333 C332 1.367 . S
C333 C335 1.433 . S
C334 C330 1.350 . S
C334 C331 1.463 1_556 S
C334 N338 1.427 1_556 S
C335 H325 0.930 . S
C335 C333 1.433 . S
C335 N338 1.384 1_556 S
C336 H327 0.929 . S
C336 C328 1.378 . S
C336 C331 1.350 . S
C337 H324 0.929 . S
C337 C329 1.433 . S
C337 N339 1.384 1_554 S
N338 C334 1.427 1_554 S
N338 C335 1.384 1_554 S
N339 C331 1.427 1_556 S
N339 C337 1.384 1_556 S
H340 C346 0.930 . S
H341 C350 0.930 . S
H342 C355 0.929 . S
H343 C353 0.929 . S
H344 C348 0.929 . S
H345 C354 0.929 . S
C346 H340 0.930 . S
C346 C347 1.367 . S
C346 C354 1.378 . S
C347 C346 1.367 . S
C347 C355 1.433 . S
C348 H344 0.929 . S
C348 C350 1.378 . S
C348 C352 1.350 . S
C349 C352 1.463 . S
C349 C354 1.350 . S
C349 N357 1.427 . S
C350 H341 0.930 . S
C350 C348 1.378 . S
C350 C351 1.367 . S
C351 C350 1.367 . S
C351 C353 1.433 . S
C352 C348 1.350 . S
C352 C349 1.463 . S
C352 N356 1.427 . S
C353 H343 0.929 . S
C353 C351 1.433 . S
C353 N356 1.384 . S
C354 H345 0.929 . S
C354 C346 1.378 . S
C354 C349 1.350 . S
C355 H342 0.929 . S
C355 C347 1.433 . S
C355 N357 1.384 . S
N356 C352 1.427 . S
N356 C353 1.384 . S
N357 C349 1.427 . S
N357 C355 1.384 . S
H358 C364 0.930 . S
H359 C368 0.930 . S
H360 C373 0.929 . S
H361 C371 0.929 . S
H362 C366 0.929 . S
H363 C372 0.929 . S
C364 H358 0.930 . S
C364 C365 1.366 . S
C364 C372 1.378 . S
C365 C364 1.366 . S
C365 C373 1.434 1_455 S
C366 H362 0.929 . S
C366 C368 1.378 . S
C366 C370 1.350 . S
C367 C370 1.467 . S
C367 C372 1.337 1_655 S
C367 N375 1.437 . S
C368 H359 0.930 . S
C368 C366 1.378 . S
C368 C369 1.367 1_554 S
C369 C368 1.367 1_556 S
C369 C371 1.433 1_655 S
C370 C366 1.350 . S
C370 C367 1.467 . S
C370 N374 1.427 1_655 S
C371 H361 0.929 . S
C371 C369 1.433 1_455 S
C371 N374 1.384 1_556 S
C372 H363 0.929 . S
C372 C364 1.378 . S
C372 C367 1.337 1_455 S
C373 H360 0.929 . S
C373 C365 1.434 1_655 S
C373 N375 1.384 . S
N374 C370 1.427 1_455 S
N374 C371 1.384 1_554 S
N375 C367 1.437 . S
N375 C373 1.384 . S
H376 C382 0.930 . S
H377 C386 0.930 . S
H378 C391 0.929 . S
H379 C389 0.929 . S
H380 C384 0.929 1_455 S
H381 C390 0.929 . S
C382 H376 0.930 . S
C382 C383 1.367 1_655 S
C382 C390 1.378 . S
C383 C382 1.367 1_455 S
C383 C391 1.433 . S
C384 H380 0.929 1_655 S
C384 C386 1.378 . S
C384 C388 1.350 . S
C385 C388 1.463 . S
C385 C390 1.350 . S
C385 N393 1.427 1_655 S
C386 H377 0.930 . S
C386 C384 1.378 . S
C386 C387 1.367 . S
C387 C386 1.367 . S
C387 C389 1.433 . S
C388 C384 1.350 . S
C388 C385 1.463 . S
C388 N392 1.427 . S
C389 H379 0.929 . S
C389 C387 1.433 . S
C389 N392 1.384 . S
C390 H381 0.929 . S
C390 C382 1.378 . S
C390 C385 1.350 . S
C391 H378 0.929 . S
C391 C383 1.433 . S
C391 N393 1.384 . S
N392 C388 1.427 . S
N392 C389 1.384 . S
N393 C385 1.427 1_455 S
N393 C391 1.384 . S
H394 C400 0.930 . S
H395 C404 0.930 1_545 S
H396 C409 0.929 . S
H397 C407 0.929 . S
H398 C402 0.923 1_545 S
H399 C408 0.929 . S
C400 H394 0.930 . S
C400 C401 1.358 1_565 S
C400 C408 1.378 . S
C401 C400 1.358 1_545 S
C401 C409 1.441 . S
C402 H398 0.923 1_565 S
C402 C404 1.379 . S
C402 C406 1.354 . S
C403 C406 1.463 . S
C403 C408 1.350 . S
C403 N411 1.427 1_565 S
C404 H395 0.930 1_565 S
C404 C402 1.379 . S
C404 C405 1.367 . S
C405 C404 1.367 . S
C405 C407 1.433 . S
C406 C402 1.354 . S
C406 C403 1.463 . S
C406 N410 1.427 . S
C407 H397 0.929 . S
C407 C405 1.433 . S
C407 N410 1.384 . S
C408 H399 0.929 . S
C408 C400 1.378 . S
C408 C403 1.350 . S
C409 H396 0.929 . S
C409 C401 1.441 . S
C409 N411 1.384 . S
N410 C406 1.427 . S
N410 C407 1.384 . S
N411 C403 1.427 1_545 S
N411 C409 1.384 . S
H412 C418 0.930 . S
H413 C422 0.930 . S
H414 C427 0.929 . S
H415 C425 0.929 . S
H416 C420 0.929 . S
H417 C426 0.929 . S
C418 H412 0.930 . S
C418 C419 1.367 . S
C418 C426 1.378 . S
C419 C418 1.367 . S
C419 C427 1.433 . S
C420 H416 0.929 . S
C420 C422 1.378 . S
C420 C424 1.350 . S
C421 C424 1.463 . S
C421 C426 1.350 . S
C421 N429 1.427 . S
C422 H413 0.930 . S
C422 C420 1.378 . S
C422 C423 1.367 . S
C423 C422 1.367 . S
C423 C425 1.433 . S
C424 C420 1.350 . S
C424 C421 1.463 . S
C424 N428 1.427 . S
C425 H415 0.929 . S
C425 C423 1.433 . S
C425 N428 1.384 . S
C426 H417 0.929 . S
C426 C418 1.378 . S
C426 C421 1.350 . S
C427 H414 0.929 . S
C427 C419 1.433 . S
C427 N429 1.384 . S
N428 C424 1.427 . S
N428 C425 1.384 . S
N429 C421 1.427 . S
N429 C427 1.384 . S
H430 C436 0.930 . S
H431 C440 0.930 . S
H432 C445 0.929 . S
H433 C443 0.929 . S
H434 C438 0.929 . S
H435 C444 0.929 . S
C436 H430 0.930 . S
C436 C437 1.367 . S
C436 C444 1.378 . S
C437 C436 1.367 . S
C437 C445 1.433 . S
C438 H434 0.929 . S
C438 C440 1.378 . S
C438 C442 1.350 . S
C439 C442 1.463 . S
C439 C444 1.350 . S
C439 N447 1.427 . S
C440 H431 0.930 . S
C440 C438 1.378 . S
C440 C441 1.367 . S
C441 C440 1.367 . S
C441 C443 1.433 . S
C442 C438 1.350 . S
C442 C439 1.463 . S
C442 N446 1.427 . S
C443 H433 0.929 . S
C443 C441 1.433 . S
C443 N446 1.384 . S
C444 H435 0.929 . S
C444 C436 1.378 . S
C444 C439 1.350 . S
C445 H432 0.929 . S
C445 C437 1.433 . S
C445 N447 1.384 . S
N446 C442 1.427 . S
N446 C443 1.384 . S
N447 C439 1.427 . S
N447 C445 1.384 . S
H448 C454 0.930 . S
H449 C458 0.930 . S
H450 C463 0.925 1_655 S
H451 C461 0.929 . S
H452 C456 0.929 . S
H453 C462 0.929 . S
C454 H448 0.930 . S
C454 C455 1.367 1_455 S
C454 C462 1.378 . S
C455 C454 1.367 1_655 S
C455 C463 1.434 1_655 S
C456 H452 0.929 . S
C456 C458 1.378 . S
C456 C460 1.350 . S
C457 C460 1.463 . S
C457 C462 1.350 . S
C457 N465 1.427 . S
C458 H449 0.930 . S
C458 C456 1.378 . S
C458 C459 1.367 . S
C459 C458 1.367 . S
C459 C461 1.433 . S
C460 C456 1.350 . S
C460 C457 1.463 . S
C460 N464 1.427 . S
C461 H451 0.929 . S
C461 C459 1.433 . S
C461 N464 1.384 . S
C462 H453 0.929 . S
C462 C454 1.378 . S
C462 C457 1.350 . S
C463 H450 0.925 1_455 S
C463 C455 1.434 1_455 S
C463 N465 1.386 . S
N464 C460 1.427 . S
N464 C461 1.384 . S
N465 C457 1.427 . S
N465 C463 1.386 . S
H466 C472 0.930 . S
H467 C476 0.930 . S
H468 C481 0.929 . S
H469 C479 0.929 1_556 S
H470 C474 0.929 . S
H471 C480 0.929 . S
C472 H466 0.930 . S
C472 C473 1.359 1_545 S
C472 C480 1.378 . S
C473 C472 1.359 1_565 S
C473 C481 1.438 . S
C474 H470 0.929 . S
C474 C476 1.378 . S
C474 C478 1.350 . S
C475 C478 1.463 . S
C475 C480 1.350 . S
C475 N483 1.427 . S
C476 H467 0.930 . S
C476 C474 1.378 . S
C476 C477 1.367 . S
C477 C476 1.367 . S
C477 C479 1.433 . S
C478 C474 1.350 . S
C478 C475 1.463 . S
C478 N482 1.427 . S
C479 H469 0.929 1_554 S
C479 C477 1.433 . S
C479 N482 1.384 . S
C480 H471 0.929 . S
C480 C472 1.378 . S
C480 C475 1.350 . S
C481 H468 0.929 . S
C481 C473 1.438 . S
C481 N483 1.384 1_565 S
N482 C478 1.427 . S
N482 C479 1.384 . S
N483 C475 1.427 . S
N483 C481 1.384 1_545 S
H484 C490 0.930 1_556 S
H485 C494 0.930 . S
H486 C499 0.929 . S
H487 C497 0.929 . S
H488 C492 0.929 . S
H489 C498 0.929 . S
C490 H484 0.930 1_554 S
C490 C491 1.367 . S
C490 C498 1.378 1_554 S
C491 C490 1.367 . S
C491 C499 1.433 . S
C492 H488 0.929 . S
C492 C494 1.378 . S
C492 C496 1.350 . S
C493 C496 1.463 . S
C493 C498 1.350 1_554 S
C493 N501 1.427 . S
C494 H485 0.930 . S
C494 C492 1.378 . S
C494 C495 1.367 1_554 S
C495 C494 1.367 1_556 S
C495 C497 1.433 . S
C496 C492 1.350 . S
C496 C493 1.463 . S
C496 N500 1.427 1_554 S
C497 H487 0.929 . S
C497 C495 1.433 . S
C497 N500 1.384 . S
C498 H489 0.929 . S
C498 C490 1.378 1_556 S
C498 C493 1.350 1_556 S
C499 H486 0.929 . S
C499 C491 1.433 . S
C499 N501 1.384 . S
N500 C496 1.427 1_556 S
N500 C497 1.384 . S
N501 C493 1.427 . S
N501 C499 1.384 . S
H502 C508 0.930 . S
H503 C512 0.930 . S
H504 C517 0.929 . S
H505 C515 0.929 . S
H506 C510 0.929 . S
H507 C516 0.929 . S
C508 H502 0.930 . S
C508 C509 1.367 . S
C508 C516 1.378 . S
C509 C508 1.367 . S
C509 C517 1.433 . S
C510 H506 0.929 . S
C510 C512 1.378 . S
C510 C514 1.350 . S
C511 C514 1.463 . S
C511 C516 1.350 . S
C511 N519 1.427 . S
C512 H503 0.930 . S
C512 C510 1.378 . S
C512 C513 1.367 . S
C513 C512 1.367 . S
C513 C515 1.433 . S
C514 C510 1.350 . S
C514 C511 1.463 . S
C514 N518 1.427 . S
C515 H505 0.929 . S
C515 C513 1.433 . S
C515 N518 1.384 . S
C516 H507 0.929 . S
C516 C508 1.378 . S
C516 C511 1.350 . S
C517 H504 0.929 . S
C517 C509 1.433 . S
C517 N519 1.384 . S
N518 C514 1.427 . S
N518 C515 1.384 . S
N519 C511 1.427 . S
N519 C517 1.384 . S
H520 C526 0.930 . S
H521 C530 0.930 . S
H522 C535 0.929 . S
H523 C533 0.929 . S
H524 C528 0.929 1_554 S
H525 C534 0.929 . S
C526 H520 0.930 . S
C526 C527 1.367 1_556 S
C526 C534 1.378 . S
C527 C526 1.367 1_554 S
C527 C535 1.433 1_455 S
C528 H524 0.929 1_556 S
C528 C530 1.378 . S
C528 C532 1.350 1_655 S
C529 C532 1.463 . S
C529 C534 1.350 . S
C529 N537 1.427 1_456 S
C530 H521 0.930 . S
C530 C528 1.378 . S
C530 C531 1.367 1_655 S
C531 C530 1.367 1_455 S
C531 C533 1.433 . S
C532 C528 1.350 1_455 S
C532 C529 1.463 . S
C532 N536 1.427 . S
C533 H523 0.929 . S
C533 C531 1.433 . S
C533 N536 1.384 . S
C534 H525 0.929 . S
C534 C526 1.378 . S
C534 C529 1.350 . S
C535 H522 0.929 . S
C535 C527 1.433 1_655 S
C535 N537 1.384 . S
N536 C532 1.427 . S
N536 C533 1.384 . S
N537 C529 1.427 1_654 S
N537 C535 1.384 . S
H538 C544 0.930 . S
H539 C548 0.930 1_554 S
H540 C553 0.929 . S
H541 C551 0.929 . S
H542 C546 0.929 . S
H543 C552 0.929 . S
C544 H538 0.930 . S
C544 C545 1.367 1_566 S
C544 C552 1.378 . S
C545 C544 1.367 1_544 S
C545 C553 1.433 . S
C546 H542 0.929 . S
C546 C548 1.378 1_554 S
C546 C550 1.350 1_554 S
C547 C550 1.463 1_554 S
C547 C552 1.350 1_544 S
C547 N555 1.427 . S
C548 H539 0.930 1_556 S
C548 C546 1.378 1_556 S
C548 C549 1.367 . S
C549 C548 1.367 . S
C549 C551 1.433 1_545 S
C550 C546 1.350 1_556 S
C550 C547 1.463 1_556 S
C550 N554 1.427 1_545 S
C551 H541 0.929 . S
C551 C549 1.433 1_565 S
C551 N554 1.384 . S
C552 H543 0.929 . S
C552 C544 1.378 . S
C552 C547 1.350 1_566 S
C553 H540 0.929 . S
C553 C545 1.433 . S
C553 N555 1.384 . S
N554 C550 1.427 1_565 S
N554 C551 1.384 . S
N555 C547 1.427 . S
N555 C553 1.384 . S
H556 C562 0.930 . S
H557 C566 0.930 . S
H558 C571 0.929 . S
H559 C569 0.929 . S
H560 C564 0.929 . S
H561 C570 0.929 . S
C562 H556 0.930 . S
C562 C563 1.367 . S
C562 C570 1.378 . S
C563 C562 1.367 . S
C563 C571 1.433 . S
C564 H560 0.929 . S
C564 C566 1.378 . S
C564 C568 1.350 . S
C565 C568 1.463 . S
C565 C570 1.350 . S
C565 N573 1.427 . S
C566 H557 0.930 . S
C566 C564 1.378 . S
C566 C567 1.367 1_554 S
C567 C566 1.367 1_556 S
C567 C569 1.433 . S
C568 C564 1.350 . S
C568 C565 1.463 . S
C568 N572 1.427 . S
C569 H559 0.929 . S
C569 C567 1.433 . S
C569 N572 1.384 1_556 S
C570 H561 0.929 . S
C570 C562 1.378 . S
C570 C565 1.350 . S
C571 H558 0.929 . S
C571 C563 1.433 . S
C571 N573 1.384 . S
N572 C568 1.427 . S
N572 C569 1.384 1_554 S
N573 C565 1.427 . S
N573 C571 1.384 . S
H574 C580 0.930 . S
H575 C584 0.930 . S
H576 C589 0.929 . S
H577 C587 0.929 . S
H578 C582 0.929 . S
H579 C588 0.929 . S
C580 H574 0.930 . S
C580 C581 1.367 . S
C580 C588 1.378 . S
C581 C580 1.367 . S
C581 C589 1.433 . S
C582 H578 0.929 . S
C582 C584 1.378 . S
C582 C586 1.350 . S
C583 C586 1.463 . S
C583 C588 1.350 . S
C583 N591 1.427 . S
C584 H575 0.930 . S
C584 C582 1.378 . S
C584 C585 1.367 . S
C585 C584 1.367 . S
C585 C587 1.433 . S
C586 C582 1.350 . S
C586 C583 1.463 . S
C586 N590 1.427 . S
C587 H577 0.929 . S
C587 C585 1.433 . S
C587 N590 1.384 . S
C588 H579 0.929 . S
C588 C580 1.378 . S
C588 C583 1.350 . S
C589 H576 0.929 . S
C589 C581 1.433 . S
C589 N591 1.384 . S
N590 C586 1.427 . S
N590 C587 1.384 . S
N591 C583 1.427 . S
N591 C589 1.384 . S
H592 C598 0.930 . S
H593 C602 0.930 . S
H594 C607 0.932 . S
H595 C605 0.929 . S
H596 C600 0.929 . S
H597 C606 0.929 . S
C598 H592 0.930 . S
C598 C599 1.367 . S
C598 C606 1.378 . S
C599 C598 1.367 . S
C599 C607 1.429 1_655 S
C600 H596 0.929 . S
C600 C602 1.378 . S
C600 C604 1.350 . S
C601 C604 1.463 . S
C601 C606 1.350 . S
C601 N609 1.427 . S
C602 H593 0.930 . S
C602 C600 1.378 . S
C602 C603 1.367 . S
C603 C602 1.367 . S
C603 C605 1.433 . S
C604 C600 1.350 . S
C604 C601 1.463 . S
C604 N608 1.427 . S
C605 H595 0.929 . S
C605 C603 1.433 . S
C605 N608 1.384 . S
C606 H597 0.929 . S
C606 C598 1.378 . S
C606 C601 1.350 . S
C607 H594 0.932 . S
C607 C599 1.429 1_455 S
C607 N609 1.385 1_455 S
N608 C604 1.427 . S
N608 C605 1.384 . S
N609 C601 1.427 . S
N609 C607 1.385 1_655 S
H610 C616 0.930 . S
H611 C620 0.930 . S
H612 C625 0.929 . S
H613 C623 0.929 . S
H614 C618 0.929 . S
H615 C624 0.929 . S
C616 H610 0.930 . S
C616 C617 1.367 . S
C616 C624 1.378 . S
C617 C616 1.367 . S
C617 C625 1.433 1_565 S
C618 H614 0.929 . S
C618 C620 1.378 . S
C618 C622 1.350 1_545 S
C619 C622 1.463 . S
C619 C624 1.350 . S
C619 N627 1.427 1_565 S
C620 H611 0.930 . S
C620 C618 1.378 . S
C620 C621 1.367 1_545 S
C621 C620 1.367 1_565 S
C621 C623 1.433 . S
C622 C618 1.350 1_565 S
C622 C619 1.463 . S
C622 N626 1.427 . S
C623 H613 0.929 . S
C623 C621 1.433 . S
C623 N626 1.384 . S
C624 H615 0.929 . S
C624 C616 1.378 . S
C624 C619 1.350 . S
C625 H612 0.929 . S
C625 C617 1.433 1_545 S
C625 N627 1.384 . S
N626 C622 1.427 . S
N626 C623 1.384 . S
N627 C619 1.427 1_545 S
N627 C625 1.384 . S
H628 C634 0.930 . S
H629 C638 0.930 . S
H630 C643 0.929 . S
H631 C641 0.929 . S
H632 C636 0.929 . S
H633 C642 0.929 . S
C634 H628 0.930 . S
C634 C635 1.367 . S
C634 C642 1.378 . S
C635 C634 1.367 . S
C635 C643 1.433 . S
C636 H632 0.929 . S
C636 C638 1.378 . S
C636 C640 1.350 . S
C637 C640 1.463 . S
C637 C642 1.350 . S
C637 N645 1.427 . S
C638 H629 0.930 . S
C638 C636 1.378 . S
C638 C639 1.367 . S
C639 C638 1.367 . S
C639 C641 1.433 . S
C640 C636 1.350 . S
C640 C637 1.463 . S
C640 N644 1.427 . S
C641 H631 0.929 . S
C641 C639 1.433 . S
C641 N644 1.384 . S
C642 H633 0.929 . S
C642 C634 1.378 . S
C642 C637 1.350 . S
C643 H630 0.929 . S
C643 C635 1.433 . S
C643 N645 1.384 . S
N644 C640 1.427 . S
N644 C641 1.384 . S
N645 C637 1.427 . S
N645 C643 1.384 . S
H646 C652 0.930 . S
H647 C656 0.930 . S
H648 C661 0.929 . S
H649 C659 0.929 . S
H650 C654 0.929 . S
H651 C660 0.929 . S
C652 H646 0.930 . S
C652 C653 1.367 . S
C652 C660 1.378 . S
C653 C652 1.367 . S
C653 C661 1.433 . S
C654 H650 0.929 . S
C654 C656 1.378 . S
C654 C658 1.350 . S
C655 C658 1.463 . S
C655 C660 1.350 . S
C655 N663 1.427 . S
C656 H647 0.930 . S
C656 C654 1.378 . S
C656 C657 1.367 . S
C657 C656 1.367 . S
C657 C659 1.433 . S
C658 C654 1.350 . S
C658 C655 1.463 . S
C658 N662 1.427 . S
C659 H649 0.929 . S
C659 C657 1.433 . S
C659 N662 1.384 . S
C660 H651 0.929 . S
C660 C652 1.378 . S
C660 C655 1.350 . S
C661 H648 0.929 . S
C661 C653 1.433 . S
C661 N663 1.384 . S
N662 C658 1.427 . S
N662 C659 1.384 . S
N663 C655 1.427 . S
N663 C661 1.384 . S
C239 C61 1.908 1_545 S
C243 C74 1.968 1_545 S
C261 C114 1.958 . S
C257 C70 1.931 . S
C279 C178 1.930 . S
C275 C43 1.836 . S
C297 C194 1.637 1_455 S
C293 C52 1.487 1_455 S
C315 C95 1.974 1_565 S
C311 C25 1.915 . S
C329 C34 1.934 . S
C333 C135 1.959 . S
C347 C7 1.842 . S
C351 C169 1.930 . S
C365 C16 1.475 1_455 S
C369 C215 1.636 1_655 S
C387 C89 0.426 . S
C383 C50 0.361 1_455 S
C405 C129 0.601 . S
C401 C59 0.594 1_545 S
C423 C165 0.545 . S
C419 C67 0.520 . S
C437 C41 0.635 . S
C441 C209 0.651 . S
C455 C14 0.358 . S
C459 C98 0.435 . S
C477 C138 0.616 . S
C473 C23 0.612 . S
C495 C176 0.549 . S
C491 C31 0.529 . S
C509 C5 0.661 . S
C513 C218 0.696 . S
C527 C49 1.815 1_455 S
C531 C96 2.014 . S
C545 C58 1.832 1_545 S
C549 C136 2.005 . S
C567 C154 1.675 . S
C563 C68 1.637 . S
C585 C216 2.311 . S
C581 C40 2.053 . S
C599 C13 1.796 . S
C603 C85 2.025 . S
C621 C125 1.999 . S
C617 C22 1.824 . S
C639 C175 1.673 . S
C635 C32 1.635 . S
C653 C4 2.069 . S
C657 C205 2.310 . S
