# Generated by pormake.
# Topology zzz, (3,6)-cn, num edge types: 1
# Building blocks:
#     Node 0, Type 0, BuildingBlock: VETTIZ_charged_linker_0, # of connection points: 3
#     Node 1, Type 0, BuildingBlock: VETTIZ_charged_linker_0, # of connection points: 3
#     Node 2, Type 0, BuildingBlock: VETTIZ_charged_linker_0, # of connection points: 3
#     Node 3, Type 0, BuildingBlock: VETTIZ_charged_linker_0, # of connection points: 3
#     Node 4, Type 0, BuildingBlock: VETTIZ_charged_linker_0, # of connection points: 3
#     Node 5, Type 0, BuildingBlock: VETTIZ_charged_linker_0, # of connection points: 3
#     Node 6, Type 0, BuildingBlock: VETTIZ_charged_linker_0, # of connection points: 3
#     Node 7, Type 0, BuildingBlock: VETTIZ_charged_linker_0, # of connection points: 3
#     Node 8, Type 1, BuildingBlock: NUHQIS_clean_sbu_0, # of connection points: 6
#     Node 9, Type 1, BuildingBlock: NUHQIS_clean_sbu_0, # of connection points: 6
#     Node 10, Type 1, BuildingBlock: NUHQIS_clean_sbu_0, # of connection points: 6
#     Node 11, Type 1, BuildingBlock: NUHQIS_clean_sbu_0, # of connection points: 6
#     Edge 12, Type (0, 1), BuildingBlock: MIFKUJ_clean_linker_0, # of connection points: 2
#     Edge 13, Type (0, 1), BuildingBlock: MIFKUJ_clean_linker_0, # of connection points: 2
#     Edge 14, Type (0, 1), BuildingBlock: MIFKUJ_clean_linker_0, # of connection points: 2
#     Edge 15, Type (0, 1), BuildingBlock: MIFKUJ_clean_linker_0, # of connection points: 2
#     Edge 16, Type (0, 1), BuildingBlock: MIFKUJ_clean_linker_0, # of connection points: 2
#     Edge 17, Type (0, 1), BuildingBlock: MIFKUJ_clean_linker_0, # of connection points: 2
#     Edge 18, Type (0, 1), BuildingBlock: MIFKUJ_clean_linker_0, # of connection points: 2
#     Edge 19, Type (0, 1), BuildingBlock: MIFKUJ_clean_linker_0, # of connection points: 2
#     Edge 20, Type (0, 1), BuildingBlock: MIFKUJ_clean_linker_0, # of connection points: 2
#     Edge 21, Type (0, 1), BuildingBlock: MIFKUJ_clean_linker_0, # of connection points: 2
#     Edge 22, Type (0, 1), BuildingBlock: MIFKUJ_clean_linker_0, # of connection points: 2
#     Edge 23, Type (0, 1), BuildingBlock: MIFKUJ_clean_linker_0, # of connection points: 2
#     Edge 24, Type (0, 1), BuildingBlock: MIFKUJ_clean_linker_0, # of connection points: 2
#     Edge 25, Type (0, 1), BuildingBlock: MIFKUJ_clean_linker_0, # of connection points: 2
#     Edge 26, Type (0, 1), BuildingBlock: MIFKUJ_clean_linker_0, # of connection points: 2
#     Edge 27, Type (0, 1), BuildingBlock: MIFKUJ_clean_linker_0, # of connection points: 2
#     Edge 28, Type (0, 1), BuildingBlock: MIFKUJ_clean_linker_0, # of connection points: 2
#     Edge 29, Type (0, 1), BuildingBlock: MIFKUJ_clean_linker_0, # of connection points: 2
#     Edge 30, Type (0, 1), BuildingBlock: MIFKUJ_clean_linker_0, # of connection points: 2
#     Edge 31, Type (0, 1), BuildingBlock: MIFKUJ_clean_linker_0, # of connection points: 2
#     Edge 32, Type (0, 1), BuildingBlock: MIFKUJ_clean_linker_0, # of connection points: 2
#     Edge 33, Type (0, 1), BuildingBlock: MIFKUJ_clean_linker_0, # of connection points: 2
#     Edge 34, Type (0, 1), BuildingBlock: MIFKUJ_clean_linker_0, # of connection points: 2
#     Edge 35, Type (0, 1), BuildingBlock: MIFKUJ_clean_linker_0, # of connection points: 2
# Relax obj value: 0.395
# Max RMSD: 0.261
# Mean RMSD: 0.233
data_MOF--net-zzz--node1-NUHQIS_clean_sbu_0--node2-VETTIZ_charged_linker_0--edge1-MIFKUJ_clean_linker_0
_symmetry_space_group_name_H-M    P1
_symmetry_Int_Tables_number       1
_symmetry_cell_setting            triclinic
loop_
_symmetry_equiv_pos_as_xyz
'x, y, z'
_cell_length_a     73.627413
_cell_length_b     73.756926
_cell_length_c     23.824113
_cell_angle_alpha  89.940058
_cell_angle_beta   89.918572
_cell_angle_gamma 90.027795
loop_
_atom_site_label
_atom_site_type_symbol
_atom_site_fract_x
_atom_site_fract_y
_atom_site_fract_z
_atom_type_partial_charge
C0 C 0.78924 0.49688 0.2828 0.0
C1 C 0.80713 0.49034 0.29228 0.0
C2 C 0.81525 0.47933 0.2512 0.0
C3 C 0.78814 0.48036 0.1944 0.0
C4 C 0.7799 0.49158 0.23322 0.0
C5 C 0.7607 0.49646 0.21447 0.0
H6 H 0.69598 0.48751 0.0068 0.0
C7 C 0.77538 0.47683 0.14812 0.0
C8 C 0.75905 0.48615 0.15873 0.0
H9 H 0.69022 0.51928 0.15765 0.0
H10 H 0.72038 0.50941 0.1887 0.0
H11 H 0.73507 0.49921 0.9793 0.0
H12 H 0.71326 0.45284 0.06533 0.0
H13 H 0.73115 0.44475 0.02349 0.0
H14 H 0.71191 0.45556 0.99061 0.0
H15 H 0.72453 0.48075 0.94281 0.0
H16 H 0.74848 0.4808 0.95845 0.0
C17 C 0.75969 0.51715 0.20587 0.0
C18 C 0.74712 0.4894 0.25864 0.0
C19 C 0.79774 0.43871 0.98567 0.0
C20 C 0.79026 0.43411 0.93345 0.0
C21 C 0.77194 0.43827 0.92261 0.0
C22 C 0.76157 0.44785 0.96224 0.0
C23 C 0.76967 0.45337 0.01303 0.0
C24 C 0.78735 0.44843 0.02422 0.0
C25 C 0.79406 0.45577 0.07899 0.0
C26 C 0.77754 0.46623 0.09897 0.0
C27 C 0.76337 0.46482 0.06035 0.0
C28 C 0.81043 0.46849 0.06633 0.0
C29 C 0.79836 0.43935 0.11768 0.0
C30 C 0.70114 0.49248 0.04649 0.0
C31 C 0.69083 0.50441 0.07918 0.0
C32 C 0.69797 0.51014 0.13136 0.0
C33 C 0.71548 0.50449 0.14912 0.0
C34 C 0.72584 0.4929 0.11454 0.0
C35 C 0.7183 0.48701 0.06451 0.0
C36 C 0.73059 0.47485 0.03193 0.0
C37 C 0.74694 0.47425 0.0699 0.0
C38 C 0.74448 0.48486 0.11875 0.0
C39 C 0.73488 0.48419 0.97494 0.0
C40 C 0.72132 0.45601 0.02699 0.0
H41 H 0.81316 0.46574 0.17454 0.0
H42 H 0.78265 0.5055 0.31343 0.0
H43 H 0.75009 0.47502 0.26922 0.0
H44 H 0.73298 0.48979 0.24349 0.0
H45 H 0.748 0.49749 0.29787 0.0
H46 H 0.77121 0.52189 0.17941 0.0
H47 H 0.76041 0.52433 0.24679 0.0
H48 H 0.74715 0.52136 0.18428 0.0
H49 H 0.81173 0.43547 0.99551 0.0
H50 H 0.7659 0.43487 0.88253 0.0
H51 H 0.74784 0.45108 0.95094 0.0
H52 H 0.80935 0.47468 0.02383 0.0
H53 H 0.8235 0.461 0.06797 0.0
H54 H 0.81115 0.48027 0.09492 0.0
H55 H 0.78936 0.42762 0.10827 0.0
H56 H 0.79587 0.44223 0.16259 0.0
H57 H 0.81261 0.43473 0.11215 0.0
H58 H 0.82905 0.47449 0.25631 0.0
C59 C 0.80594 0.47428 0.2031 0.0
C60 C 0.05736 0.7781 0.98208 0.0
C61 C 0.07044 0.79169 0.99065 0.0
C62 C 0.07312 0.79849 0.04532 0.0
C63 C 0.04857 0.77973 0.08011 0.0
C64 C 0.04674 0.77222 0.02739 0.0
C65 C 0.03196 0.75816 0.02522 0.0
H66 H 0.99271 0.69357 0.17504 0.0
C67 C 0.03451 0.77174 0.11677 0.0
C68 C 0.02511 0.75868 0.08566 0.0
H69 H 0.9988 0.69797 0.99492 0.0
H70 H 1.0056 0.72981 0.00394 0.0
H71 H 0.02681 0.7221 0.22042 0.0
H72 H 0.97305 0.74493 0.19467 0.0
H73 H 0.98076 0.73716 0.26293 0.0
H74 H 0.97299 0.72129 0.21312 0.0
H75 H 0.00783 0.71093 0.25375 0.0
H76 H 0.01424 0.73346 0.27492 0.0
C77 C 0.04052 0.73963 0.00848 0.0
C78 C 0.01717 0.76491 0.98403 0.0
C79 C 0.02244 0.8003 0.30528 0.0
C80 C 0.00685 0.80038 0.33926 0.0
C81 C 0.99326 0.78722 0.32884 0.0
C82 C 0.99535 0.77426 0.28552 0.0
C83 C 0.01124 0.77423 0.25283 0.0
C84 C 0.024 0.78777 0.26137 0.0
C85 C 0.0367 0.78975 0.21235 0.0
C86 C 0.02927 0.77549 0.1728 0.0
C87 C 0.01524 0.76547 0.19815 0.0
C88 C 0.0561 0.78496 0.23255 0.0
C89 C 0.03464 0.80924 0.18824 0.0
C90 C 0.99557 0.7015 0.13781 0.0
C91 C 0.99591 0.69318 0.08417 0.0
C92 C 0.99902 0.70396 0.03645 0.0
C93 C 1.00335 0.72227 0.04165 0.0
C94 C 1.0049 0.72991 0.09509 0.0
C95 C 0.99972 0.72024 0.14209 0.0
C96 C 1.00014 0.73228 0.19409 0.0
C97 C 0.00791 0.75003 0.16983 0.0
C98 C 0.01192 0.74761 0.11259 0.0
C99 C 0.01302 0.72419 0.23838 0.0
C100 C 0.98068 0.7342 0.21737 0.0
H101 H 0.0647 0.79858 0.13031 0.0
H102 H 0.05516 0.77243 0.94071 0.0
H103 H 0.01473 0.77969 0.9894 0.0
H104 H 1.00387 0.75836 0.99133 0.0
H105 H 0.02135 0.76257 0.93979 0.0
H106 H 0.04002 0.72971 0.04354 0.0
H107 H 0.05511 0.7408 0.99688 0.0
H108 H 0.03376 0.73363 0.97127 0.0
H109 H 0.03251 0.81094 0.30929 0.0
H110 H 0.98074 0.7874 0.35275 0.0
H111 H 0.98403 0.76572 0.27537 0.0
H112 H 0.05575 0.77395 0.26453 0.0
H113 H 0.06282 0.79689 0.25196 0.0
H114 H 0.0648 0.77963 0.19849 0.0
H115 H 0.02041 0.81413 0.19255 0.0
H116 H 0.03744 0.81018 0.14287 0.0
H117 H 0.04356 0.81897 0.21066 0.0
H118 H 0.08298 0.8091 0.05307 0.0
C119 C 0.06232 0.79253 0.09006 0.0
C120 C 0.81667 1.00364 0.1592 0.0
C121 C 0.82677 0.01141 0.11425 0.0
C122 C 0.8175 0.02121 0.07246 0.0
C123 C 0.78894 0.01153 0.11092 0.0
C124 C 0.79742 1.00471 0.15776 0.0
C125 C 0.78325 0.99886 0.20112 0.0
H126 H 0.69278 0.9812 0.24832 0.0
C127 C 0.76963 0.00751 0.11399 0.0
C128 C 0.76537 1.00264 0.16941 0.0
H129 H 0.72668 0.00931 0.36754 0.0
H130 H 0.7508 0.01142 0.2964 0.0
H131 H 0.69935 0.00864 0.16466 0.0
H132 H 0.72532 0.95651 0.17663 0.0
H133 H 0.71924 0.96018 0.10605 0.0
H134 H 0.70179 0.9595 0.15921 0.0
H135 H 0.68844 0.98837 0.14025 0.0
H136 H 0.70316 1.00162 0.09557 0.0
C137 C 0.7855 0.01025 0.25474 0.0
C138 C 0.78527 0.9785 0.21387 0.0
C139 C 0.7406 0.99083 0.9281 0.0
C140 C 0.723 0.98511 0.91356 0.0
C141 C 0.71115 0.97963 0.95737 0.0
C142 C 0.71622 0.98119 0.01373 0.0
C143 C 0.7331 0.98881 0.02715 0.0
C144 C 0.74508 0.99324 0.98469 0.0
C145 C 0.76198 1.00222 0.00631 0.0
C146 C 0.75804 1.00241 0.06928 0.0
C147 C 0.7413 0.99426 0.08104 0.0
C148 C 0.76347 0.02162 0.981 0.0
C149 C 0.77829 0.98996 0.99102 0.0
C150 C 0.70579 0.98667 0.26109 0.0
C151 C 0.70798 0.99423 0.31481 0.0
C152 C 0.72476 1.00273 0.32738 0.0
C153 C 0.73899 1.00341 0.28727 0.0
C154 C 0.73665 0.99519 0.23459 0.0
C155 C 0.71986 0.98782 0.22152 0.0
C156 C 0.71765 0.98484 0.15948 0.0
C157 C 0.73555 0.9921 0.1375 0.0
C158 C 0.74723 0.99691 0.18171 0.0
C159 C 0.70127 0.99629 0.13854 0.0
C160 C 0.71577 0.96421 0.14937 0.0
H161 H 0.79203 0.02906 0.03858 0.0
H162 H 0.8235 0.99683 0.19344 0.0
H163 H 0.78436 0.9704 0.17463 0.0
H164 H 0.77432 0.9739 0.24274 0.0
H165 H 0.79857 0.97568 0.23404 0.0
H166 H 0.77974 0.02405 0.24908 0.0
H167 H 0.80009 0.01168 0.26585 0.0
H168 H 0.779 1.00352 0.29118 0.0
H169 H 0.75035 0.99472 0.89631 0.0
H170 H 0.69738 0.97534 0.94898 0.0
H171 H 0.70635 0.97732 0.04466 0.0
H172 H 0.75243 0.02477 0.95078 0.0
H173 H 0.7764 0.02347 0.95759 0.0
H174 H 0.76251 0.0322 0.01402 0.0
H175 H 0.77695 0.97646 0.01145 0.0
H176 H 0.79143 0.99582 0.00367 0.0
H177 H 0.77906 0.98787 0.9449 0.0
H178 H 0.82491 0.0279 0.03897 0.0
C179 C 0.79861 0.0215 0.0711 0.0
C180 C 0.50736 0.72436 0.26479 0.0
C181 C 0.50468 0.70533 0.26811 0.0
C182 C 0.50233 0.69549 0.21824 0.0
C183 C 0.50528 0.72289 0.16281 0.0
C184 C 0.50745 0.73293 0.21132 0.0
C185 C 0.50936 0.75305 0.19771 0.0
H186 H 0.51193 0.81803 0.98875 0.0
C187 C 0.50621 0.73521 0.11394 0.0
C188 C 0.50868 0.7531 0.13335 0.0
H189 H 0.51337 0.82862 0.16647 0.0
H190 H 0.51293 0.7959 0.18571 0.0
H191 H 0.54002 0.78562 0.98996 0.0
H192 H 0.48191 0.78942 0.99253 0.0
H193 H 0.48692 0.77131 0.9477 0.0
H194 H 0.49521 0.79363 0.93073 0.0
H195 H 0.52705 0.79024 0.92793 0.0
H196 H 0.53243 0.76733 0.94927 0.0
C197 C 0.5278 0.75985 0.21983 0.0
C198 C 0.49304 0.76316 0.22349 0.0
C199 C 0.4978 0.70872 0.91874 0.0
C200 C 0.49812 0.71636 0.8645 0.0
C201 C 0.50282 0.73479 0.85852 0.0
C202 C 0.50637 0.74554 0.90565 0.0
C203 C 0.50524 0.73786 0.95964 0.0
C204 C 0.50152 0.71964 0.96531 0.0
C205 C 0.50144 0.71368 0.02568 0.0
C206 C 0.50517 0.73151 0.05553 0.0
C207 C 0.50713 0.74557 0.01668 0.0
C208 C 0.51714 0.69986 0.03367 0.0
C209 C 0.48222 0.70623 0.0395 0.0
C210 C 0.51222 0.81334 0.03192 0.0
C211 C 0.51255 0.82579 0.07597 0.0
C212 C 0.51306 0.81919 0.13169 0.0
C213 C 0.51266 0.80025 0.14271 0.0
C214 C 0.51172 0.78791 0.09751 0.0
C215 C 0.51178 0.79479 0.04333 0.0
C216 C 0.51051 0.78045 -0.00052 0.0
C217 C 0.50931 0.76363 0.03542 0.0
C218 C 0.51007 0.76768 0.09332 0.0
C219 C 0.5283 0.78091 0.96435 0.0
C220 C 0.49285 0.7838 0.96533 0.0
H221 H 0.50083 0.69555 0.13018 0.0
H222 H 0.50909 0.73229 0.30261 0.0
H223 H 0.48014 0.75607 0.21305 0.0
H224 H 0.49168 0.77709 0.20729 0.0
H225 H 0.49422 0.76375 0.26994 0.0
H226 H 0.53891 0.75071 0.2058 0.0
H227 H 0.52786 0.76019 0.26646 0.0
H228 H 0.53115 0.77353 0.20413 0.0
H229 H 0.49409 0.69468 0.92533 0.0
H230 H 0.50357 0.74098 0.81735 0.0
H231 H 0.50947 0.75954 0.89808 0.0
H232 H 0.52829 0.70219 0.00291 0.0
H233 H 0.51232 0.68571 0.02792 0.0
H234 H 0.52381 0.70107 0.07508 0.0
H235 H 0.47158 0.71401 0.01671 0.0
H236 H 0.47854 0.7076 0.08425 0.0
H237 H 0.4809 0.69179 0.02701 0.0
H238 H 0.50032 0.68093 0.21969 0.0
C239 C 0.5027 0.70406 0.16607 0.0
C240 C 0.30177 0.50779 0.22748 0.0
C241 C 0.31224 0.51006 0.27687 0.0
C242 C 0.30388 0.51693 0.3253 0.0
C243 C 0.27498 0.51844 0.27754 0.0
C244 C 0.28299 0.51211 0.22885 0.0
C245 C 0.26909 0.51069 0.18174 0.0
H246 H 0.17869 0.51655 0.10822 0.0
C247 C 0.2554 0.52099 0.26753 0.0
C248 C 0.25152 0.51648 0.21138 0.0
H249 H 0.22301 0.50378 0.99652 0.0
H250 H 0.24455 0.50715 0.07391 0.0
H251 H 0.1923 0.49365 0.21368 0.0
H252 H 0.19787 0.54938 0.16405 0.0
H253 H 0.19497 0.54967 0.23706 0.0
H254 H 0.17719 0.5406 0.1932 0.0
H255 H 0.17384 0.50951 0.21604 0.0
H256 H 0.18913 0.50669 0.2745 0.0
C257 C 0.26822 0.49086 0.16157 0.0
C258 C 0.27452 0.52414 0.13501 0.0
C259 C 0.21636 0.54168 0.43126 0.0
C260 C 0.19765 0.54484 0.43728 0.0
C261 C 0.18614 0.54174 0.39093 0.0
C262 C 0.19314 0.53573 0.33951 0.0
C263 C 0.21191 0.5328 0.33396 0.0
C264 C 0.22311 0.53569 0.37951 0.0
C265 C 0.24263 0.53176 0.36624 0.0
C266 C 0.24135 0.52628 0.30486 0.0
C267 C 0.22339 0.52693 0.2862 0.0
C268 C 0.24878 0.51578 0.4043 0.0
C269 C 0.25352 0.54964 0.37388 0.0
C270 C 0.19301 0.5143 0.10027 0.0
C271 C 0.19907 0.50964 0.04638 0.0
C272 C 0.21795 0.50734 0.03776 0.0
C273 C 0.23041 0.50928 0.0827 0.0
C274 C 0.22399 0.51387 0.13666 0.0
C275 C 0.20549 0.51648 0.14399 0.0
C276 C 0.2007 0.52218 0.20241 0.0
C277 C 0.21921 0.52247 0.22977 0.0
C278 C 0.23307 0.51742 0.19181 0.0
C279 C 0.18824 0.50739 0.22828 0.0
C280 C 0.19211 0.54138 0.19949 0.0
H281 H 0.28017 0.52616 0.36468 0.0
H282 H 0.30796 0.5026 0.18951 0.0
H283 H 0.26336 0.52677 0.10532 0.0
H284 H 0.28645 0.51905 0.11119 0.0
H285 H 0.27818 0.53752 0.15329 0.0
H286 H 0.26661 0.48154 0.19796 0.0
H287 H 0.28089 0.48709 0.13901 0.0
H288 H 0.25661 0.48835 0.13345 0.0
H289 H 0.22557 0.54376 0.46607 0.0
H290 H 0.1717 0.54435 0.39399 0.0
H291 H 0.18364 0.53376 0.30598 0.0
H292 H 0.23717 0.50679 0.41549 0.0
H293 H 0.25478 0.52076 0.44414 0.0
H294 H 0.25856 0.50663 0.38337 0.0
H295 H 0.24507 0.56167 0.36332 0.0
H296 H 0.26534 0.55066 0.34539 0.0
H297 H 0.25817 0.55126 0.41791 0.0
H298 H 0.31168 0.51888 0.36341 0.0
C299 C 0.28548 0.52113 0.32591 0.0
C300 C 0.98626 0.22223 0.4303 0.0
C301 C 0.98202 0.20377 0.43584 0.0
C302 C 0.98369 0.19237 0.3886 0.0
C303 C 0.99233 0.21804 0.33077 0.0
C304 C 0.99122 0.22903 0.37756 0.0
C305 C 0.99487 0.24853 0.3639 0.0
H306 H 0.00753 0.31603 0.1773 0.0
C307 C 0.99646 0.22971 0.28169 0.0
C308 C 0.99786 0.24756 0.30082 0.0
H309 H 1.00444 0.31793 0.35845 0.0
H310 H 1.00193 0.28577 0.36255 0.0
H311 H 0.03483 0.27694 0.1742 0.0
H312 H 0.97627 0.28239 0.15838 0.0
H313 H 0.98619 0.26924 0.10411 0.0
H314 H 0.99143 0.29299 0.10892 0.0
H315 H 0.0249 0.29018 0.11868 0.0
H316 H 0.02588 0.26588 0.1142 0.0
C317 C 0.01239 0.25427 0.39558 0.0
C318 C 0.97757 0.25954 0.37928 0.0
C319 C 1.0022 0.2003 0.09094 0.0
C320 C 1.00465 0.20662 0.0359 0.0
C321 C 1.00573 0.22557 0.0271 0.0
C322 C 1.00489 0.23786 0.07281 0.0
C323 C 1.0027 0.23117 0.12793 0.0
C324 C 1.00116 0.2126 0.13558 0.0
C325 C 0.99786 0.2075 0.19555 0.0
C326 C 0.99836 0.22588 0.22363 0.0
C327 C 1.00126 0.23999 0.18444 0.0
C328 C 0.01374 0.19525 0.21519 0.0
C329 C 0.97879 0.19855 0.1996 0.0
C330 C 1.00636 0.30929 0.21752 0.0
C331 C 1.00603 0.31949 0.26795 0.0
C332 C 1.00465 0.31037 0.31942 0.0
C333 C 1.00319 0.2916 0.32163 0.0
C334 C 1.00303 0.28149 0.27177 0.0
C335 C 1.00495 0.2901 0.22056 0.0
C336 C 1.00506 0.27637 0.17278 0.0
C337 C 1.00253 0.25837 0.20425 0.0
C338 C 1.00115 0.26184 0.26223 0.0
C339 C 0.02362 0.27736 0.14296 0.0
C340 C 0.98893 0.28043 0.13355 0.0
H341 H 0.9897 0.19 0.30194 0.0
H342 H 0.98495 0.23136 0.46566 0.0
H343 H 0.96506 0.25147 0.37126 0.0
H344 H 0.9758 0.27189 0.35366 0.0
H345 H 0.97754 0.26335 0.42437 0.0
H346 H 0.02133 0.24244 0.40444 0.0
H347 H 0.00913 0.26072 0.43647 0.0
H348 H 0.02104 0.26355 0.37059 0.0
H349 H 1.00084 0.18591 0.0992 0.0
H350 H 0.00751 0.23084 0.98501 0.0
H351 H 1.00592 0.25207 0.0637 0.0
H352 H 0.02689 0.2002 0.19787 0.0
H353 H 0.01182 0.18106 0.20077 0.0
H354 H 0.01557 0.19524 0.26117 0.0
H355 H 0.96959 0.20349 0.16585 0.0
H356 H 0.97159 0.20197 0.23896 0.0
H357 H 0.97968 0.18358 0.19563 0.0
H358 H 0.98075 0.17802 0.39205 0.0
C359 C 0.98887 0.19937 0.33625 0.0
C360 C 0.28659 0.01469 0.03393 0.0
C361 C 0.30585 0.01375 0.03156 0.0
C362 C 0.31548 0.01137 0.082 0.0
C363 C 0.28756 0.01162 0.13583 0.0
C364 C 0.2777 0.01376 0.08691 0.0
C365 C 0.25745 0.01514 0.09969 0.0
H366 H 0.19158 0.01572 0.3065 0.0
C367 C 0.27496 0.01166 0.18416 0.0
C368 C 0.25709 0.01394 0.16398 0.0
H369 H 0.18132 0.0183 0.12868 0.0
H370 H 0.21418 0.01802 0.11014 0.0
H371 H 0.21878 0.98596 0.30171 0.0
H372 H 0.22434 0.04367 0.30801 0.0
H373 H 0.2419 0.03535 0.35048 0.0
H374 H 0.21859 0.03023 0.36824 0.0
H375 H 0.21661 0.99843 0.36588 0.0
H376 H 0.23812 0.98942 0.34275 0.0
C377 C 0.24773 0.99889 0.07235 0.0
C378 C 0.25038 0.03358 0.07857 0.0
C379 C 0.29994 1.0 0.38033 0.0
C380 C 0.29155 0.99887 0.43344 0.0
C381 C 0.27314 1.00363 0.43862 0.0
C382 C 0.26298 0.00846 0.39137 0.0
C383 C 0.27125 0.00846 0.33806 0.0
C384 C 0.28955 1.00482 0.33339 0.0
C385 C 0.29605 0.00592 0.27349 0.0
C386 C 0.27837 0.00996 0.24271 0.0
C387 C 0.26401 0.01124 0.28081 0.0
C388 C 0.30387 0.98714 0.25714 0.0
C389 C 0.30979 0.02185 0.26912 0.0
C390 C 0.19631 0.0163 0.2634 0.0
C391 C 0.1839 0.01681 0.21922 0.0
C392 C 0.19068 0.0178 0.16366 0.0
C393 C 0.2097 0.01752 0.15302 0.0
C394 C 0.22197 0.01634 0.19846 0.0
C395 C 0.2149 0.01598 0.25238 0.0
C396 C 0.22905 0.01424 0.29659 0.0
C397 C 0.24603 0.01344 0.26128 0.0
C398 C 0.24224 0.01473 0.20332 0.0
C399 C 0.22553 0.99621 0.32889 0.0
C400 C 0.22847 0.03164 0.33322 0.0
H401 H 0.31492 0.00854 0.16981 0.0
H402 H 0.27877 0.01653 0.9959 0.0
H403 H 0.25925 0.04474 0.09378 0.0
H404 H 0.23655 0.03652 0.09386 0.0
H405 H 0.25025 0.03401 0.03195 0.0
H406 H 0.25482 0.98603 0.08299 0.0
H407 H 0.2476 1.0003 0.02591 0.0
H408 H 0.23361 0.99739 0.0871 0.0
H409 H 0.3142 0.99677 0.3752 0.0
H410 H 0.26633 1.00282 0.47888 0.0
H411 H 0.2489 0.01139 0.39821 0.0
H412 H 0.2953 0.97605 0.27461 0.0
H413 H 0.31784 0.98536 0.27386 0.0
H414 H 0.3041 0.98476 0.21143 0.0
H415 H 0.3078 0.03193 0.30331 0.0
H416 H 0.30811 0.02978 0.22997 0.0
H417 H 0.32402 0.01696 0.27188 0.0
H418 H 0.33017 0.01031 0.08158 0.0
C419 C 0.30655 0.01032 0.13354 0.0
C420 C 0.5094 0.29522 0.03007 0.0
C421 C 0.51501 0.31337 0.02019 0.0
C422 C 0.52739 0.32143 0.05723 0.0
C423 C 0.52804 0.29429 0.11444 0.0
C424 C 0.51616 0.28587 0.07791 0.0
C425 C 0.51199 0.2666 0.09744 0.0
H426 H 0.52567 0.20208 0.3033 0.0
C427 C 0.53233 0.28171 0.16077 0.0
C428 C 0.52313 0.26521 0.15169 0.0
H429 H 0.49338 0.19481 0.15388 0.0
H430 H 0.50047 0.22587 0.12473 0.0
H431 H 0.56654 0.23887 0.28213 0.0
H432 H 0.51214 0.24123 0.33155 0.0
H433 H 0.53058 0.25466 0.35225 0.0
H434 H 0.53086 0.23068 0.36691 0.0
H435 H 0.55856 0.22016 0.24408 0.0
H436 H 0.55684 0.21982 0.31918 0.0
C437 C 0.51878 0.25324 0.05238 0.0
C438 C 0.49145 0.26501 0.1089 0.0
C439 C 0.57046 0.30539 0.32189 0.0
C440 C 0.57602 0.29782 0.37313 0.0
C441 C 0.57269 0.27936 0.38377 0.0
C442 C 0.56301 0.26883 0.3449 0.0
C443 C 0.55668 0.27687 0.29487 0.0
C444 C 0.56087 0.29474 0.28365 0.0
C445 C 0.55318 0.30112 0.22881 0.0
C446 C 0.54315 0.28427 0.20938 0.0
C447 C 0.54517 0.27021 0.24821 0.0
C448 C 0.56935 0.30592 0.18951 0.0
C449 C 0.53999 0.31706 0.24141 0.0
C450 C 0.52025 0.20688 0.26373 0.0
C451 C 0.50922 0.19568 0.23064 0.0
C452 C 0.50199 0.20305 0.18042 0.0
C453 C 0.50619 0.22104 0.16338 0.0
C454 C 0.51767 0.23185 0.19696 0.0
C455 C 0.52436 0.22448 0.24626 0.0
C456 C 0.53633 0.2372 0.27783 0.0
C457 C 0.53607 0.25354 0.23971 0.0
C458 C 0.52506 0.25075 0.19193 0.0
C459 C 0.55557 0.22864 0.28159 0.0
C460 C 0.5272 0.24115 0.33534 0.0
H461 H 0.54319 0.31929 0.13008 0.0
H462 H 0.49992 0.28867 0.00195 0.0
H463 H 0.48678 0.27637 0.13597 0.0
H464 H 0.48791 0.25235 0.13105 0.0
H465 H 0.48365 0.26552 0.06903 0.0
H466 H 0.53296 0.25657 0.03991 0.0
H467 H 0.51013 0.25395 0.01425 0.0
H468 H 0.51893 0.23911 0.06754 0.0
H469 H 0.57306 0.31953 0.31248 0.0
H470 H 0.57689 0.27331 0.42312 0.0
H471 H 0.56043 0.25497 0.3561 0.0
H472 H 0.58177 0.2981 0.20061 0.0
H473 H 0.57286 0.32054 0.19213 0.0
H474 H 0.56671 0.3023 0.14516 0.0
H475 H 0.53289 0.31499 0.28219 0.0
H476 H 0.52892 0.31834 0.21046 0.0
H477 H 0.5474 0.33015 0.24393 0.0
H478 H 0.53196 0.33523 0.05026 0.0
C479 C 0.53393 0.31207 0.10376 0.0
Tb480 Tb 0.01813 1.00387 0.69879 0.0
Eu481 Eu 0.98548 0.01577 0.61409 0.0
C482 C 0.02681 0.01325 0.57177 0.0
C483 C 1.00356 0.04437 0.6996 0.0
C484 C 0.057 0.97823 0.74788 0.0
C485 C 0.07909 0.95672 0.78305 0.0
C486 C 0.06885 0.97251 0.79021 0.0
C487 C 0.05608 0.96852 0.69731 0.0
C488 C 0.06618 0.9527 0.69027 0.0
C489 C 0.07745 0.94641 0.73361 0.0
C490 C 0.04437 0.99323 0.75779 0.0
O491 O 0.995 0.00838 0.75495 0.0
O492 O 0.97219 1.00398 0.69143 0.0
O493 O 0.993 0.98776 0.58505 0.0
O494 O 0.00748 0.9782 0.66534 0.0
C495 C 0.97777 1.00548 0.74351 0.0
O496 O 0.95834 0.01132 0.57968 0.0
O497 O 0.97393 0.03481 0.55394 0.0
O498 O 0.01159 0.02246 0.56781 0.0
O499 O 0.02984 1.00252 0.61472 0.0
O500 O 0.01779 0.0336 0.70345 0.0
O501 O 0.98861 0.03898 0.67485 0.0
C502 C 1.00008 0.97482 0.61601 0.0
O503 O 0.04547 0.00663 0.7222 0.0
O504 O 0.02759 0.98828 0.76635 0.0
C505 C 0.94386 0.03984 0.57922 0.0
C506 C 0.92815 0.07009 0.63229 0.0
C507 C 0.93142 0.05413 0.66277 0.0
C508 C 0.93926 0.03916 0.63652 0.0
C509 C 0.9388 0.05496 0.54745 0.0
C510 C 0.93099 0.06998 0.57371 0.0
C511 C 0.95783 0.02749 0.55738 0.0
H512 H 0.08745 0.95201 0.81749 0.0
H513 H 0.06962 0.97982 0.82955 0.0
H514 H 0.04698 0.97279 0.66415 0.0
H515 H 0.06469 0.94501 0.65182 0.0
H516 H 0.92922 0.05365 0.70765 0.0
H517 H 0.94319 0.02771 0.66222 0.0
H518 H 0.94246 0.05587 0.50346 0.0
H519 H 0.92887 0.08208 0.54879 0.0
Tb520 Tb 0.50398 0.02137 0.6777 0.0
Eu521 Eu 0.49071 0.9903 0.59033 0.0
C522 C 0.49146 0.03217 0.55657 0.0
C523 C 0.46212 0.00927 0.67612 0.0
C524 C 0.53386 0.04739 0.76936 0.0
C525 C 0.55928 0.06695 0.79271 0.0
C526 C 0.54106 0.06481 0.77741 0.0
C527 C 0.54482 0.03215 0.77862 0.0
C528 C 0.56288 0.03427 0.79412 0.0
C529 C 0.57041 0.05168 0.80035 0.0
C530 C 0.51583 0.04509 0.74445 0.0
O531 O 0.51309 0.99532 0.71271 0.0
O532 O 0.48973 0.97881 0.67773 0.0
O533 O 0.52131 0.98961 0.58466 0.0
O534 O 0.52769 0.01743 0.62295 0.0
C535 C 0.50258 0.98091 0.71498 0.0
O536 O 0.49387 0.96259 0.56008 0.0
O537 O 0.47316 0.97993 0.52391 0.0
O538 O 0.49509 0.01571 0.53866 0.0
O539 O 0.48938 0.03533 0.61054 0.0
O540 O 0.47577 0.01672 0.70342 0.0
O541 O 0.46453 1.00061 0.62847 0.0
C542 C 0.53263 1.00303 0.59401 0.0
O543 O 0.51535 0.04716 0.69022 0.0
O544 O 0.5068 0.03077 0.76037 0.0
C545 C 0.46437 0.95058 0.54998 0.0
C546 C 0.43232 0.93667 0.5981 0.0
C547 C 0.44851 0.93686 0.62905 0.0
C548 C 0.4644 0.94376 0.60525 0.0
C549 C 0.44873 0.94862 0.51722 0.0
C550 C 0.43282 0.94172 0.54103 0.0
C551 C 0.47869 0.96327 0.53187 0.0
H552 H 0.56479 0.0805 0.79698 0.0
H553 H 0.53281 0.0767 0.76967 0.0
H554 H 0.53966 0.01859 0.77145 0.0
H555 H 0.57121 0.02223 0.79811 0.0
H556 H 0.44861 0.93283 0.6728 0.0
H557 H 0.47627 0.94506 0.63171 0.0
H558 H 0.44835 0.95391 0.47478 0.0
H559 H 0.42056 0.94193 0.516 0.0
Tb560 Tb 0.49018 0.5174 0.70236 0.0
Eu561 Eu 0.52064 0.50668 0.60942 0.0
C562 C 0.47864 0.50708 0.58036 0.0
C563 C 0.50535 0.47739 0.70143 0.0
C564 C 0.44954 0.54019 0.74862 0.0
C565 C 0.43349 0.55561 0.6734 0.0
C566 C 0.44288 0.54048 0.69336 0.0
C567 C 0.44502 0.5543 0.78518 0.0
C568 C 0.43579 0.56949 0.76517 0.0
C569 C 0.43088 0.57083 0.70804 0.0
C570 C 0.46446 0.52793 0.76372 0.0
O571 O 0.51594 0.52221 0.74661 0.0
O572 O 0.53604 0.50659 0.69049 0.0
O573 O 0.52075 0.53725 0.61394 0.0
O574 O 0.49149 0.54041 0.64348 0.0
C575 C 0.53215 0.51521 0.73712 0.0
O576 O 0.54673 0.51138 0.56877 0.0
O577 O 0.52891 0.49023 0.53771 0.0
O578 O 0.4946 0.51232 0.56212 0.0
O579 O 0.47623 0.50353 0.63378 0.0
O580 O 0.4988 0.49081 0.73163 0.0
O581 O 0.51189 0.4801 0.65046 0.0
C582 C 0.50616 0.54724 0.61998 0.0
O583 O 0.46468 0.51218 0.73893 0.0
O584 O 0.48041 0.5356 0.76283 0.0
C585 C 0.5604 0.48442 0.535 0.0
C586 C 0.58742 0.45729 0.53745 0.0
C587 C 0.58766 0.47151 0.57674 0.0
C588 C 0.57423 0.48491 0.5757 0.0
C589 C 0.56055 0.47069 0.49454 0.0
C590 C 0.5738 0.45722 0.49594 0.0
C591 C 0.54514 0.49735 0.53584 0.0
H592 H 0.42962 0.55594 0.6296 0.0
H593 H 0.44623 0.52974 0.66413 0.0
H594 H 0.45016 0.55437 0.82779 0.0
H595 H 0.43429 0.58086 0.79344 0.0
H596 H 0.598 0.47211 0.60894 0.0
H597 H 0.57446 0.49537 0.60757 0.0
H598 H 0.55001 0.47001 0.46292 0.0
H599 H 0.5728 0.4463 0.46578 0.0
Tb600 Tb 0.99575 0.49233 0.70956 0.0
Eu601 Eu 0.00745 0.52416 0.6221 0.0
C602 C 0.00717 0.48248 0.58534 0.0
C603 C 0.03632 0.50686 0.71111 0.0
C604 C 0.97221 0.45127 0.75493 0.0
C605 C 0.94773 0.43935 0.69769 0.0
C606 C 0.96064 0.45268 0.70844 0.0
C607 C 0.9716 0.43563 0.78822 0.0
C608 C 0.9588 0.42204 0.77702 0.0
C609 C 0.94623 0.42406 0.73277 0.0
C610 C 0.98429 0.46646 0.7693 0.0
O611 O 0.98941 0.51802 0.75275 0.0
O612 O 0.00963 0.53657 0.70763 0.0
O613 O 0.97677 0.52402 0.62621 0.0
O614 O 0.97407 0.49412 0.64716 0.0
C615 C 0.99892 0.53315 0.75024 0.0
O616 O 1.00182 0.55103 0.5885 0.0
O617 O 0.02411 0.53525 0.55437 0.0
O618 O 1.00352 0.49908 0.56885 0.0
O619 O 0.00888 0.47864 0.63896 0.0
O620 O 0.02269 0.49985 0.73978 0.0
O621 O 0.03388 0.51442 0.66142 0.0
C622 C 0.96707 0.50913 0.6272 0.0
O623 O 1.00009 0.46647 0.7447 0.0
O624 O 0.97675 0.48245 0.76768 0.0
C625 C 0.02889 0.56659 0.5656 0.0
C626 C 0.05703 0.59128 0.59035 0.0
C627 C 0.04196 0.58964 0.62633 0.0
C628 C 0.02808 0.57733 0.61432 0.0
C629 C 0.0431 0.56922 0.52747 0.0
C630 C 0.05707 0.58134 0.53975 0.0
C631 C 0.01643 0.55119 0.55743 0.0
H632 H 0.93825 0.44167 0.66376 0.0
H633 H 0.96102 0.46452 0.68176 0.0
H634 H 0.98065 0.43415 0.82376 0.0
H635 H 0.95833 0.4103 0.80426 0.0
H636 H 0.04132 0.59715 0.66522 0.0
H637 H 0.01723 0.57562 0.64462 0.0
H638 H 0.044 0.56107 0.48975 0.0
H639 H 0.0685 0.58182 0.5112 0.0
H640 H 0.16752 0.98961 0.27609 0.0
H641 H 0.13794 0.99001 0.3218 0.0
H642 H 0.12618 0.04167 0.24487 0.0
H643 H 0.1564 0.04147 0.20007 0.0
H644 H 0.11803 0.04343 0.35149 0.0
H645 H 0.1025 1.00117 0.20959 0.0
H646 H 0.10586 0.97442 0.14848 0.0
H647 H 0.10478 0.93949 0.29273 0.0
H648 H 0.10168 0.96603 0.35482 0.0
H649 H 0.02969 0.03801 0.48503 0.0
H650 H 0.05335 0.03958 0.41224 0.0
H651 H 0.0791 0.99226 0.48244 0.0
H652 H 0.05576 0.99067 0.5551 0.0
H653 H 0.07681 0.99046 0.36676 0.0
H654 H 0.096 0.03374 0.50751 0.0
H655 H 0.09227 0.06072 0.5675 0.0
H656 H 0.08541 0.09408 0.42125 0.0
H657 H 0.08885 0.06723 0.36039 0.0
C658 C 0.15842 1.00082 0.26754 0.0
C659 C 0.16423 0.01541 0.2339 0.0
C660 C 0.14142 1.00105 0.29375 0.0
C661 C 0.12953 0.01578 0.28667 0.0
C662 C 0.13499 0.03008 0.25106 0.0
C663 C 0.15216 0.02988 0.22479 0.0
C664 C 0.11222 0.01665 0.32011 0.0
C665 C 0.10881 0.03199 0.35364 0.0
C666 C 0.10016 1.00168 0.3241 0.0
C667 C 0.10196 0.98563 0.28691 0.0
C668 C 0.1031 0.98779 0.22833 0.0
C669 C 0.10494 0.97266 0.1935 0.0
C670 C 0.10556 0.95527 0.21671 0.0
C671 C 0.1043 0.95297 0.2748 0.0
C672 C 0.10247 0.96805 0.30984 0.0
C673 C 0.04037 0.02791 0.48488 0.0
C674 C 0.04078 0.01425 0.52624 0.0
C675 C 0.05393 0.02886 0.44328 0.0
C676 C 0.06812 0.01607 0.44179 0.0
C677 C 0.06834 1.00227 0.48245 0.0
C678 C 0.05497 1.00144 0.52427 0.0
C679 C 0.08294 0.01702 0.39868 0.0
C680 C 0.08588 1.00201 0.36359 0.0
C681 C 0.09445 0.03232 0.39292 0.0
C682 C 0.09246 0.04846 0.42945 0.0
C683 C 0.09354 0.04681 0.48817 0.0
C684 C 0.09151 0.06208 0.52232 0.0
C685 C 0.08854 0.07909 0.49821 0.0
C686 C 0.08766 0.08089 0.43988 0.0
C687 C 0.08966 0.06565 0.40554 0.0
H688 H 0.08697 0.0909 0.52473 0.0
H689 H 0.10699 0.94357 0.18967 0.0
H690 H 0.53335 0.17226 0.27927 0.0
H691 H 0.52735 0.1434 0.32429 0.0
H692 H 0.47161 0.14572 0.26928 0.0
H693 H 0.47732 0.17563 0.22701 0.0
H694 H 0.4714 0.13434 0.3706 0.0
H695 H 0.50496 0.11499 0.21185 0.0
H696 H 0.52991 0.11469 0.14269 0.0
H697 H 0.56802 0.10194 0.27314 0.0
H698 H 0.54335 0.10241 0.34323 0.0
H699 H 0.49297 0.03113 0.441 0.0
H700 H 0.49263 0.0567 0.37535 0.0
H701 H 0.48791 0.09384 0.51432 0.0
H702 H 0.48771 0.0684 0.57977 0.0
H703 H 0.5145 0.08287 0.35723 0.0
H704 H 0.46696 0.13251 0.4789 0.0
H705 H 0.43978 0.13095 0.53941 0.0
H706 H 0.42534 0.0797 0.46665 0.0
H707 H 0.45226 0.08107 0.40515 0.0
C708 C 0.51974 0.16675 0.27665 0.0
C709 C 0.50577 0.17656 0.24993 0.0
C710 C 0.51638 0.14997 0.30192 0.0
C711 C 0.49905 0.14201 0.29994 0.0
C712 C 0.48513 0.15144 0.27162 0.0
C713 C 0.48845 0.16849 0.2468 0.0
C714 C 0.49553 0.12436 0.32984 0.0
C715 C 0.48079 0.12307 0.3673 0.0
C716 C 0.50741 0.10926 0.32493 0.0
C717 C 0.5223 0.10884 0.28286 0.0
C718 C 0.51868 0.11222 0.22584 0.0
C719 C 0.53277 0.11201 0.18646 0.0
C720 C 0.55054 0.10832 0.20352 0.0
C721 C 0.55425 0.10479 0.25998 0.0
C722 C 0.54021 0.105 0.29954 0.0
C723 C 0.49163 0.04472 0.4576 0.0
C724 C 0.49025 0.0476 0.5159 0.0
C725 C 0.49151 0.0594 0.4199 0.0
C726 C 0.49003 0.07736 0.43939 0.0
C727 C 0.48863 0.08021 0.49764 0.0
C728 C 0.48861 0.06556 0.53526 0.0
C729 C 0.49077 0.09313 0.39939 0.0
C730 C 0.505 0.09406 0.36011 0.0
C731 C 0.47811 0.10763 0.4014 0.0
C732 C 0.46174 0.10683 0.43775 0.0
C733 C 0.45794 0.12095 0.4756 0.0
C734 C 0.44258 0.12009 0.51012 0.0
C735 C 0.43087 0.10521 0.507 0.0
C736 C 0.43445 0.09119 0.46918 0.0
C737 C 0.44977 0.09199 0.43453 0.0
H738 H 0.41901 0.10456 0.53381 0.0
H739 H 0.56143 0.10817 0.17297 0.0
H740 H 0.34192 0.52989 0.24536 0.0
H741 H 0.37253 0.52698 0.28561 0.0
H742 H 0.35639 0.47738 0.36755 0.0
H743 H 0.32598 0.48023 0.32702 0.0
H744 H 0.36858 0.50354 0.44142 0.0
H745 H 0.38865 0.4763 0.26899 0.0
H746 H 0.39324 0.4746 0.16661 0.0
H747 H 0.42533 0.5232 0.17137 0.0
H748 H 0.42072 0.52533 0.27374 0.0
H749 H 0.44895 0.48508 0.58996 0.0
H750 H 0.42267 0.48323 0.5279 0.0
H751 H 0.4459 0.52472 0.4219 0.0
H752 H 0.47283 0.52567 0.48222 0.0
H753 H 0.43019 0.50283 0.35728 0.0
H754 H 0.40859 0.53238 0.52462 0.0
H755 H 0.4026 0.53648 0.6258 0.0
H756 H 0.37281 0.4865 0.62994 0.0
H757 H 0.37844 0.48214 0.52872 0.0
C758 C 0.34525 0.5179 0.2695 0.0
C759 C 0.33171 0.50507 0.28203 0.0
C760 C 0.36269 0.51633 0.29305 0.0
C761 C 0.36679 0.502 0.32999 0.0
C762 C 0.35361 0.48855 0.33927 0.0
C763 C 0.33629 0.49004 0.31546 0.0
C764 C 0.38378 0.50216 0.36438 0.0
C765 C 0.38206 0.5031 0.42301 0.0
C766 C 0.40139 0.50233 0.3405 0.0
C767 C 0.40417 0.50107 0.27898 0.0
C768 C 0.39654 0.48672 0.24815 0.0
C769 C 0.39918 0.48566 0.19013 0.0
C770 C 0.40952 0.49881 0.16248 0.0
C771 C 0.4173 0.51303 0.19283 0.0
C772 C 0.41469 0.51416 0.25086 0.0
C773 C 0.44851 0.49373 0.55323 0.0
C774 C 0.46298 0.50555 0.54114 0.0
C775 C 0.43333 0.49282 0.51789 0.0
C776 C 0.43184 0.50421 0.47062 0.0
C777 C 0.44652 0.51579 0.45797 0.0
C778 C 0.46195 0.51635 0.49257 0.0
C779 C 0.41504 0.50407 0.43477 0.0
C780 C 0.41674 0.50325 0.37588 0.0
C781 C 0.39731 0.50435 0.45829 0.0
C782 C 0.3941 0.50685 0.51926 0.0
C783 C 0.40087 0.52221 0.54721 0.0
C784 C 0.39753 0.52459 0.60452 0.0
C785 C 0.38749 0.5117 0.63434 0.0
C786 C 0.38064 0.49645 0.60683 0.0
C787 C 0.38383 0.49405 0.54946 0.0
H788 H 0.38495 0.51358 0.67871 0.0
H789 H 0.41156 0.49796 0.11755 0.0
H790 H 0.97724 0.34225 0.27263 0.0
H791 H 0.97729 0.37282 0.31291 0.0
H792 H 0.03581 0.37196 0.31813 0.0
H793 H 0.03569 0.34134 0.27785 0.0
H794 H 0.98944 0.37936 0.41693 0.0
H795 H 0.05162 0.41632 0.3214 0.0
H796 H 0.06771 0.41863 0.23079 0.0
H797 H 0.01876 0.4045 0.14339 0.0
H798 H 1.00231 0.40235 0.23337 0.0
H799 H 0.01843 0.44753 0.60316 0.0
H800 H 0.01879 0.42236 0.53678 0.0
H801 H 0.9991 0.45778 0.40629 0.0
H802 H 0.99912 0.48325 0.4724 0.0
H803 H 0.0239 0.43461 0.36401 0.0
H804 H 0.97036 0.42896 0.48005 0.0
H805 H 0.95417 0.42715 0.5706 0.0
H806 H 0.98395 0.37905 0.61341 0.0
H807 H 1.00053 0.38075 0.52353 0.0
C808 C 0.99012 0.34898 0.2797 0.0
C809 C 1.00648 0.33961 0.27062 0.0
C810 C 0.99015 0.36635 0.30361 0.0
C811 C 1.00654 0.37479 0.3189 0.0
C812 C 0.02297 0.36593 0.30619 0.0
C813 C 0.02293 0.34849 0.28254 0.0
C814 C 1.00636 0.3917 0.35372 0.0
C815 C 0.99693 0.39145 0.40506 0.0
C816 C 0.01607 0.40758 0.33863 0.0
C817 C 0.02578 0.40901 0.28422 0.0
C818 C 0.04427 0.41378 0.28284 0.0
C819 C 0.05346 0.41505 0.23158 0.0
C820 C 0.04428 0.41166 0.18138 0.0
C821 C 0.02587 0.40705 0.18232 0.0
C822 C 0.01662 0.40577 0.23345 0.0
C823 C 0.0143 0.45008 0.56026 0.0
C824 C 0.00864 0.46749 0.54342 0.0
C825 C 0.01445 0.43559 0.52225 0.0
C826 C 0.00865 0.43799 0.46652 0.0
C827 C 1.00359 0.45549 0.44899 0.0
C828 C 1.00358 0.47007 0.48696 0.0
C829 C 0.00721 0.42211 0.42749 0.0
C830 C 0.01635 0.42254 0.3756 0.0
C831 C 0.99716 0.40636 0.44189 0.0
C832 C 0.98678 0.40505 0.4952 0.0
C833 C 0.9735 0.41804 0.50886 0.0
C834 C 0.96426 0.41704 0.5601 0.0
C835 C 0.96807 0.40301 0.59778 0.0
C836 C 0.98104 0.38991 0.58419 0.0
C837 C 0.99034 0.39088 0.5331 0.0
H838 H 0.96098 0.40226 0.6375 0.0
H839 H 0.05142 0.41264 0.14175 0.0
H840 H 0.84383 0.9803 0.08338 0.0
H841 H 0.87288 0.97848 0.03335 0.0
H842 H 0.8828 0.03496 0.06878 0.0
H843 H 0.85356 0.03682 0.11747 0.0
H844 H 0.88543 0.02992 0.96231 0.0
H845 H 0.91039 0.99947 0.12131 0.0
H846 H 0.91199 0.97645 0.19627 0.0
H847 H 0.91431 0.93418 0.0727 0.0
H848 H 0.91248 0.95693 0.99697 0.0
H849 H 0.98352 0.00686 0.85783 0.0
H850 H 0.96066 0.00738 0.93287 0.0
H851 H 0.91808 1.00342 0.80953 0.0
H852 H 0.94071 1.00279 0.73463 0.0
H853 H 0.93425 0.98367 0.96703 0.0
H854 H 0.88197 0.02899 0.85183 0.0
H855 H 0.88083 0.05445 0.7847 0.0
H856 H 0.93499 0.07001 0.83069 0.0
H857 H 0.93641 0.04474 0.89844 0.0
C858 C 0.85266 0.99206 0.08292 0.0
C859 C 0.84656 0.00862 0.10527 0.0
C860 C 0.86925 0.99108 0.05378 0.0
C861 C 0.88015 0.00661 0.04676 0.0
C862 C 0.87469 0.02278 0.07315 0.0
C863 C 0.85808 0.02379 0.10184 0.0
C864 C 0.89588 0.00668 0.00655 0.0
C865 C 0.89611 0.0198 0.96369 0.0
C866 C 0.91001 0.99363 0.00805 0.0
C867 C 0.91115 0.97991 0.05346 0.0
C868 C 0.9111 0.98526 0.11012 0.0
C869 C 0.91208 0.97226 0.15275 0.0
C870 C 0.91321 0.95386 0.13926 0.0
C871 C 0.91342 0.94843 0.08309 0.0
C872 C 0.91244 0.96138 0.04029 0.0
C873 C 0.9693 0.006 0.84662 0.0
C874 C 0.96405 1.00486 0.78987 0.0
C875 C 0.95622 0.00627 0.88968 0.0
C876 C 0.93757 1.00565 0.87707 0.0
C877 C 0.93233 1.00418 0.82055 0.0
C878 C 0.94536 1.00377 0.7776 0.0
C879 C 0.92354 0.00673 0.92257 0.0
C880 C 0.92358 0.9938 0.96604 0.0
C881 C 0.90972 0.02009 0.92217 0.0
C882 C 0.90933 0.03488 0.87991 0.0
C883 C 0.89365 0.03783 0.84755 0.0
C884 C 0.89294 0.05223 0.80945 0.0
C885 C 0.9078 0.06386 0.80357 0.0
C886 C 0.92349 0.06099 0.8353 0.0
C887 C 0.92428 0.04658 0.87342 0.0
H888 H 0.90712 0.07509 0.77441 0.0
H889 H 0.91396 0.94382 0.17233 0.0
H890 H 0.48341 0.84342 0.0341 0.0
H891 H 0.48339 0.87224 0.98315 0.0
H892 H 0.53952 0.88058 0.02735 0.0
H893 H 0.53951 0.85154 0.07874 0.0
H894 H 0.5173 0.91406 0.02265 0.0
H895 H 0.53269 0.86213 0.91053 0.0
H896 H 0.5279 0.83092 0.87669 0.0
H897 H 0.47654 0.84645 0.80634 0.0
H898 H 0.48083 0.87768 0.84096 0.0
H899 H 0.53044 0.97668 0.79201 0.0
H900 H 0.53398 0.95239 0.86188 0.0
H901 H 0.48313 0.929 0.80868 0.0
H902 H 0.47978 0.95274 0.7386 0.0
H903 H 0.50611 0.90313 0.82014 0.0
H904 H 0.48912 0.95396 0.93578 0.0
H905 H 0.49205 0.98481 0.97456 0.0
H906 H 0.54479 0.97161 0.03949 0.0
H907 H 0.54227 0.94073 0.00044 0.0
C908 C 0.49553 0.85175 0.03487 0.0
C909 C 0.51138 0.84536 0.06104 0.0
C910 C 0.49556 0.86817 0.00535 0.0
C911 C 0.51151 0.87854 0.00075 0.0
C912 C 0.52703 0.87288 0.03041 0.0
C913 C 0.527 0.85634 0.06006 0.0
C914 C 0.51237 0.89384 0.95948 0.0
C915 C 0.51514 0.91168 0.97824 0.0
C916 C 0.50932 0.89082 0.90153 0.0
C917 C 0.50702 0.87222 0.87874 0.0
C918 C 0.52033 0.85888 0.8881 0.0
C919 C 0.5177 0.84118 0.86881 0.0
C920 C 0.50191 0.8367 0.83946 0.0
C921 C 0.48876 0.84994 0.82914 0.0
C922 C 0.49128 0.86764 0.84858 0.0
C923 C 0.52 0.96638 0.79537 0.0
C924 C 0.50487 0.96671 0.7593 0.0
C925 C 0.52199 0.95249 0.8356 0.0
C926 C 0.50877 0.93876 0.84121 0.0
C927 C 0.49362 0.93925 0.80539 0.0
C928 C 0.49171 0.95295 0.76515 0.0
C929 C 0.51061 0.92361 0.88313 0.0
C930 C 0.50841 0.90565 0.86441 0.0
C931 C 0.51407 0.92659 0.94105 0.0
C932 C 0.51559 0.94511 0.96463 0.0
C933 C 0.5014 0.95768 0.95795 0.0
C934 C 0.50298 0.97517 0.98004 0.0
C935 C 0.51862 0.98019 0.00931 0.0
C936 C 0.5327 0.96771 0.0167 0.0
C937 C 0.5312 0.95022 0.99463 0.0
H938 H 0.51981 0.99373 0.02639 0.0
H939 H 0.49989 0.82298 0.82465 0.0
H940 H 0.68432 0.51804 0.9753 0.0
H941 H 0.65519 0.52313 0.92999 0.0
H942 H 0.62751 0.51009 0.08458 0.0
H943 H 0.65703 0.50435 0.13 0.0
H944 H 0.61166 0.49284 0.00082 0.0
H945 H 0.6278 0.55424 0.02916 0.0
H946 H 0.64724 0.58146 0.02944 0.0
H947 H 0.65201 0.57877 0.85 0.0
H948 H 0.6328 0.55138 0.84866 0.0
H949 H 0.52883 0.51881 0.85189 0.0
H950 H 0.55348 0.51999 0.92163 0.0
H951 H 0.59308 0.51705 0.78858 0.0
H952 H 0.5687 0.51535 0.71921 0.0
H953 H 0.59944 0.54513 0.87527 0.0
H954 H 0.58635 0.48094 0.85238 0.0
H955 H 0.56617 0.45426 0.85393 0.0
H956 H 0.55444 0.46368 0.02809 0.0
H957 H 0.57436 0.49062 0.02729 0.0
C958 C 0.67205 0.51651 5e-05 0.0
C959 C 0.67303 0.51076 0.05631 0.0
C960 C 0.65533 0.51954 0.97409 0.0
C961 C 0.63898 0.5172 0.00371 0.0
C962 C 0.63987 0.51205 0.06066 0.0
C963 C 0.65675 0.50896 0.08683 0.0
C964 C 0.6212 0.51905 0.9735 0.0
C965 C 0.60883 0.50451 0.97451 0.0
C966 C 0.61739 0.53415 0.93842 0.0
C967 C 0.62892 0.55067 0.93887 0.0
C968 C 0.63308 0.55938 0.98978 0.0
C969 C 0.64405 0.57485 0.99012 0.0
C970 C 0.65088 0.58183 0.93978 0.0
C971 C 0.64671 0.57336 0.88897 0.0
C972 C 0.63576 0.55787 0.88838 0.0
C973 C 0.5428 0.51852 0.83757 0.0
C974 C 0.54678 0.51696 0.77995 0.0
C975 C 0.55686 0.51914 0.87745 0.0
C976 C 0.57515 0.51861 0.86033 0.0
C977 C 0.5791 0.51752 0.8028 0.0
C978 C 0.56512 0.51648 0.76319 0.0
C979 C 0.59031 0.5188 0.90186 0.0
C980 C 0.60217 0.53369 0.90267 0.0
C981 C 0.59352 0.50416 0.93901 0.0
C982 C 0.58164 0.48793 0.93957 0.0
C983 C 0.57932 0.47744 0.89085 0.0
C984 C 0.56796 0.46224 0.89161 0.0
C985 C 0.55897 0.45731 0.94102 0.0
C986 C 0.56138 0.46754 0.98981 0.0
C987 C 0.5727 0.48277 0.98923 0.0
H988 H 0.55019 0.44554 0.94154 0.0
H989 H 0.65937 0.59381 0.94014 0.0
H990 H 0.96552 0.6719 0.07299 0.0
H991 H 0.96445 0.64176 0.02843 0.0
H992 H 0.02294 0.64065 0.02288 0.0
H993 H 0.024 0.67041 0.06819 0.0
H994 H 1.0043 0.6377 0.91559 0.0
H995 H 1.00396 0.61159 0.10206 0.0
H996 H 0.99177 0.60705 0.19749 0.0
H997 H 0.94132 0.58821 0.12865 0.0
H998 H 0.95312 0.59289 0.03273 0.0
H999 H 0.02538 0.55645 0.78328 0.0
H1000 H 0.02341 0.58095 0.85148 0.0
H1001 H 0.9677 0.56659 0.88641 0.0
H1002 H 0.96999 0.54124 0.81968 0.0
H1003 H 0.9821 0.57761 0.97943 0.0
H1004 H 0.97995 0.60325 0.79688 0.0
H1005 H 0.98908 0.60927 0.69898 0.0
H1006 H 0.04001 0.63083 0.75572 0.0
H1007 H 0.03129 0.62474 0.85401 0.0
C1008 C 0.9781 0.66478 0.0647 0.0
C1009 C 0.99486 0.67329 0.07519 0.0
C1010 C 0.9775 0.64765 0.03873 0.0
C1011 C 0.99363 0.63894 0.02207 0.0
C1012 C 0.01033 0.64704 0.03542 0.0
C1013 C 0.01093 0.66396 0.06189 0.0
C1014 C 0.99327 0.62262 0.985 0.0
C1015 C 0.99967 0.6245 0.92978 0.0
C1016 C 0.98644 0.6056 0.00259 0.0
C1017 C 0.97935 0.60279 0.06021 0.0
C1018 C 0.9902 0.60666 0.10725 0.0
C1019 C 0.98338 0.60402 0.16144 0.0
C1020 C 0.96576 0.5974 0.16913 0.0
C1021 C 0.95495 0.59336 0.12263 0.0
C1022 C 0.96171 0.596 0.06835 0.0
C1023 C 0.01272 0.55839 0.80574 0.0
C1024 C 0.99776 0.547 0.79554 0.0
C1025 C 0.01156 0.57254 0.84463 0.0
C1026 C 0.99522 0.57613 0.87317 0.0
C1027 C 0.98044 0.56429 0.86479 0.0
C1028 C 0.98174 0.54979 0.82657 0.0
C1029 C 0.9936 0.59255 0.9101 0.0
C1030 C 0.98673 0.59078 0.96505 0.0
C1031 C 0.99958 0.60989 0.8919 0.0
C1032 C 1.005 0.61344 0.83282 0.0
C1033 C 0.99315 0.60917 0.78848 0.0
C1034 C 0.99824 0.61262 0.73293 0.0
C1035 C 0.01508 0.62049 0.72119 0.0
C1036 C 0.02694 0.6248 0.76493 0.0
C1037 C 0.02192 0.62137 0.82057 0.0
H1038 H 0.01895 0.62324 0.67817 0.0
H1039 H 0.96051 0.59536 0.21112 0.0
H1040 H 0.99442 0.20978 0.54317 0.0
H1041 H 0.98223 0.19688 0.63082 0.0
H1042 H 0.94077 0.16917 0.53597 0.0
H1043 H 0.95264 0.18207 0.44936 0.0
H1044 H 0.92767 0.18369 0.63849 0.0
H1045 H 0.98411 0.15009 0.56832 0.0
H1046 H 0.01743 0.14928 0.55648 0.0
H1047 H 0.02443 0.1637 0.72972 0.0
H1048 H 0.99114 0.16456 0.74249 0.0
H1049 H 0.90663 0.0985 0.60021 0.0
H1050 H 0.91143 0.12975 0.62602 0.0
H1051 H 0.94706 0.11297 0.76042 0.0
H1052 H 0.94384 0.08167 0.73029 0.0
H1053 H 0.96548 0.13236 0.70369 0.0
H1054 H 0.91044 0.14655 0.77792 0.0
H1055 H 0.87774 0.14732 0.79925 0.0
H1056 H 0.86705 0.17134 0.63849 0.0
H1057 H 0.8996 0.17049 0.6156 0.0
C1058 C 0.98257 0.20111 0.54139 0.0
C1059 C 0.97464 0.19665 0.48941 0.0
C1060 C 0.9756 0.19383 0.59139 0.0
C1061 C 0.96055 0.18214 0.58992 0.0
C1062 C 0.95229 0.1783 0.53821 0.0
C1063 C 0.95926 0.18543 0.48857 0.0
C1064 C 0.95432 0.17188 0.6398 0.0
C1065 C 0.9358 0.17248 0.65376 0.0
C1066 C 0.96533 0.15831 0.664 0.0
C1067 C 0.98523 0.15777 0.65599 0.0
C1068 C 0.99279 0.15321 0.6037 0.0
C1069 C 0.01164 0.15271 0.59688 0.0
C1070 C 0.02303 0.1566 0.64219 0.0
C1071 C 0.01559 0.16084 0.69456 0.0
C1072 C 0.99675 0.16132 0.70162 0.0
C1073 C 0.91514 0.10141 0.63614 0.0
C1074 C 0.92532 0.08763 0.6617 0.0
C1075 C 0.91763 0.11942 0.65194 0.0
C1076 C 0.92991 0.12399 0.69495 0.0
C1077 C 0.93779 0.10993 0.72644 0.0
C1078 C 0.93578 0.09192 0.70937 0.0
C1079 C 0.93802 0.14251 0.69531 0.0
C1080 C 0.95706 0.14376 0.69165 0.0
C1081 C 0.92746 0.15801 0.6824 0.0
C1082 C 0.90767 0.15866 0.69534 0.0
C1083 C 0.90116 0.15202 0.74703 0.0
C1084 C 0.8826 0.15244 0.75938 0.0
C1085 C 0.87033 0.15944 0.72035 0.0
C1086 C 0.87659 0.16602 0.66884 0.0
C1087 C 0.89514 0.16564 0.65626 0.0
H1088 H 0.85596 0.15973 0.72996 0.0
H1089 H 0.03763 0.15617 0.63687 0.0
H1090 H 0.2914 0.01071 0.54305 0.0
H1091 H 0.30735 0.99707 0.62324 0.0
H1092 H 0.32965 0.95622 0.51345 0.0
H1093 H 0.31359 0.96941 0.43422 0.0
H1094 H 0.31791 0.94191 0.61656 0.0
H1095 H 0.35323 0.99732 0.54775 0.0
H1096 H 0.35555 0.03063 0.53918 0.0
H1097 H 0.34386 0.03635 0.71492 0.0
H1098 H 0.34162 1.00306 0.7245 0.0
H1099 H 0.40222 0.91879 0.56023 0.0
H1100 H 0.37133 0.92476 0.58932 0.0
H1101 H 0.39093 0.95529 0.73158 0.0
H1102 H 0.42201 0.95039 0.69998 0.0
H1103 H 0.37222 0.97627 0.67728 0.0
H1104 H 0.35632 0.92069 0.74574 0.0
H1105 H 0.35453 0.88772 0.76103 0.0
H1106 H 0.3282 0.88112 0.60172 0.0
H1107 H 0.33004 0.91397 0.58488 0.0
C1108 C 0.29961 0.99873 0.53632 0.0
C1109 C 0.30145 0.99125 0.48221 0.0
C1110 C 0.30865 0.99095 0.58211 0.0
C1111 C 0.31957 0.97557 0.57434 0.0
C1112 C 0.32113 0.96798 0.52055 0.0
C1113 C 0.3122 0.97572 0.47504 0.0
C1114 C 0.33096 0.96796 0.61973 0.0
C1115 C 0.32978 0.94929 0.63075 0.0
C1116 C 0.34555 0.97794 0.64251 0.0
C1117 C 0.34697 0.99783 0.63659 0.0
C1118 C 0.35109 1.00573 0.58443 0.0
C1119 C 0.35243 0.02457 0.57945 0.0
C1120 C 0.34974 0.0356 0.62642 0.0
C1121 C 0.34584 0.02779 0.67855 0.0
C1122 C 0.34458 0.00896 0.68381 0.0
C1123 C 0.39998 0.92631 0.59866 0.0
C1124 C 0.41454 0.93452 0.62674 0.0
C1125 C 0.3822 0.92949 0.6161 0.0
C1126 C 0.37863 0.94067 0.66269 0.0
C1127 C 0.39328 0.94677 0.69529 0.0
C1128 C 0.41111 0.94383 0.67727 0.0
C1129 C 0.36055 0.94956 0.66696 0.0
C1130 C 0.36018 0.96862 0.66618 0.0
C1131 C 0.3444 0.9399 0.65504 0.0
C1132 C 0.34316 0.91997 0.66436 0.0
C1133 C 0.35014 0.91224 0.71388 0.0
C1134 C 0.34914 0.89354 0.7228 0.0
C1135 C 0.3412 0.88234 0.68246 0.0
C1136 C 0.33426 0.88982 0.63308 0.0
C1137 C 0.33522 0.90853 0.62394 0.0
H1138 H 0.34046 0.86785 0.68942 0.0
H1139 H 0.35081 0.05018 0.62252 0.0
H1140 H 0.56118 0.32861 0.41238 0.0
H1141 H 0.57462 0.35061 0.47582 0.0
H1142 H 0.62156 0.31618 0.49652 0.0
H1143 H 0.60795 0.29391 0.43177 0.0
H1144 H 0.58639 0.35114 0.58322 0.0
H1145 H 0.65772 0.3468 0.50259 0.0
H1146 H 0.67558 0.33413 0.42397 0.0
H1147 H 0.63053 0.34243 0.3125 0.0
H1148 H 0.61253 0.35528 0.39039 0.0
H1149 H 0.6008 0.44129 0.63361 0.0
H1150 H 0.61427 0.4112 0.64076 0.0
H1151 H 0.61427 0.40689 0.46007 0.0
H1152 H 0.60287 0.43757 0.45258 0.0
H1153 H 0.6377 0.38453 0.49618 0.0
H1154 H 0.5716 0.39634 0.5537 0.0
H1155 H 0.55039 0.4116 0.61888 0.0
H1156 H 0.58038 0.39096 0.75956 0.0
H1157 H 0.60155 0.37537 0.69515 0.0
C1158 C 0.57427 0.32563 0.43094 0.0
C1159 C 0.58368 0.30977 0.41673 0.0
C1160 C 0.58187 0.3381 0.46769 0.0
C1161 C 0.5991 0.33505 0.49094 0.0
C1162 C 0.60824 0.31877 0.47902 0.0
C1163 C 0.6005 0.30611 0.44219 0.0
C1164 C 0.60779 0.35018 0.52165 0.0
C1165 C 0.59801 0.35821 0.56562 0.0
C1166 C 0.62308 0.3593 0.49932 0.0
C1167 C 0.63377 0.35174 0.45229 0.0
C1168 C 0.65168 0.3459 0.46126 0.0
C1169 C 0.66181 0.33871 0.41686 0.0
C1170 C 0.65417 0.33741 0.36332 0.0
C1171 C 0.63641 0.34338 0.35401 0.0
C1172 C 0.62625 0.35061 0.39823 0.0
C1173 C 0.60447 0.43431 0.5953 0.0
C1174 C 0.59997 0.44156 0.54237 0.0
C1175 C 0.612 0.41694 0.59954 0.0
C1176 C 0.61439 0.40633 0.55115 0.0
C1177 C 0.61225 0.41455 0.49834 0.0
C1178 C 0.60535 0.43207 0.49403 0.0
C1179 C 0.61515 0.38619 0.5538 0.0
C1180 C 0.62687 0.37706 0.51677 0.0
C1181 C 0.60125 0.3762 0.58123 0.0
C1182 C 0.58812 0.38481 0.61985 0.0
C1183 C 0.57352 0.39496 0.59858 0.0
C1184 C 0.56153 0.40365 0.63533 0.0
C1185 C 0.56401 0.4022 0.69333 0.0
C1186 C 0.57841 0.39196 0.71467 0.0
C1187 C 0.59037 0.38315 0.67812 0.0
H1188 H 0.55483 0.40905 0.72173 0.0
H1189 H 0.66203 0.33182 0.32903 0.0
H1190 H 0.21191 0.57124 0.50535 0.0
H1191 H 0.19696 0.58623 0.58444 0.0
H1192 H 0.15107 0.55022 0.56621 0.0
H1193 H 0.16629 0.53476 0.48974 0.0
H1194 H 0.17001 0.60577 0.57646 0.0
H1195 H 0.1247 0.5456 0.66639 0.0
H1196 H 0.12957 0.51612 0.71264 0.0
H1197 H 0.18437 0.53119 0.752 0.0
H1198 H 0.17992 0.56081 0.70599 0.0
H1199 H 0.08223 0.60929 0.52567 0.0
H1200 H 0.11393 0.61229 0.54901 0.0
H1201 H 0.10186 0.60033 0.72244 0.0
H1202 H 0.07046 0.59478 0.69793 0.0
H1203 H 0.12279 0.5769 0.69464 0.0
H1204 H 0.13159 0.63792 0.67967 0.0
H1205 H 0.12845 0.6698 0.65036 0.0
H1206 H 0.14987 0.65674 0.48769 0.0
H1207 H 0.15285 0.62474 0.51543 0.0
C1208 C 0.19892 0.56612 0.51965 0.0
C1209 C 0.19011 0.55202 0.49065 0.0
C1210 C 0.19037 0.57474 0.56485 0.0
C1211 C 0.17288 0.56939 0.58185 0.0
C1212 C 0.16471 0.55446 0.55523 0.0
C1213 C 0.17327 0.54581 0.51047 0.0
C1214 C 0.16151 0.58122 0.61821 0.0
C1215 C 0.15984 0.5996 0.6033 0.0
C1216 C 0.14907 0.57374 0.65714 0.0
C1217 C 0.15196 0.55554 0.68272 0.0
C1218 C 0.1378 0.5427 0.68499 0.0
C1219 C 0.14049 0.52593 0.7111 0.0
C1220 C 0.15723 0.52182 0.73541 0.0
C1221 C 0.1714 0.53439 0.73311 0.0
C1222 C 0.16884 0.55115 0.70675 0.0
C1223 C 0.08623 0.60748 0.56903 0.0
C1224 C 0.0739 0.60068 0.60894 0.0
C1225 C 0.10447 0.60969 0.58286 0.0
C1226 C 0.11061 0.60596 0.63758 0.0
C1227 C 0.09765 0.60263 0.67962 0.0
C1228 C 0.0795 0.59967 0.6654 0.0
C1229 C 0.12992 0.60058 0.64592 0.0
C1230 C 0.13325 0.58347 0.66994 0.0
C1231 C 0.14423 0.60954 0.61756 0.0
C1232 C 0.14256 0.62884 0.59996 0.0
C1233 C 0.13558 0.6418 0.63755 0.0
C1234 C 0.13382 0.65992 0.62117 0.0
C1235 C 0.13899 0.6653 0.56725 0.0
C1236 C 0.14594 0.65257 0.52955 0.0
C1237 C 0.14774 0.63443 0.54569 0.0
H1238 H 0.1376 0.67933 0.55464 0.0
H1239 H 0.15923 0.50888 0.756 0.0
H1240 H 0.05536 0.80175 0.89127 0.0
H1241 H 0.06815 0.82234 0.82217 0.0
H1242 H 0.11907 0.82253 0.91168 0.0
H1243 H 0.10617 0.80188 0.98174 0.0
H1244 H 0.10562 0.85503 0.9056 0.0
H1245 H 0.11685 0.80961 0.76992 0.0
H1246 H 0.11068 0.78252 0.71251 0.0
H1247 H 0.06572 0.80961 0.63437 0.0
H1248 H 0.07141 0.83677 0.69185 0.0
H1249 H 0.11215 0.93599 0.7596 0.0
H1250 H 0.12263 0.90487 0.77577 0.0
H1251 H 0.07067 0.88451 0.72067 0.0
H1252 H 0.06041 0.91533 0.70298 0.0
H1253 H 0.09629 0.85992 0.70002 0.0
H1254 H 0.07777 0.89793 0.85802 0.0
H1255 H 0.08029 0.92488 0.91882 0.0
H1256 H 0.13541 0.91077 0.95816 0.0
H1257 H 0.13327 0.88387 0.89684 0.0
C1258 C 0.06951 0.80555 0.89512 0.0
C1259 C 0.07969 0.8004 0.94235 0.0
C1260 C 0.07688 0.8173 0.85525 0.0
C1261 C 0.09463 0.82397 0.86152 0.0
C1262 C 0.10536 0.81755 0.906 0.0
C1263 C 0.09794 0.80586 0.94615 0.0
C1264 C 0.10024 0.84025 0.82933 0.0
C1265 C 0.10428 0.85591 0.86031 0.0
C1266 C 0.09803 0.84155 0.77044 0.0
C1267 C 0.09458 0.82527 0.73533 0.0
C1268 C 0.10558 0.80977 0.74072 0.0
C1269 C 0.10217 0.7944 0.70812 0.0
C1270 C 0.08782 0.79435 0.66981 0.0
C1271 C 0.07686 0.80968 0.66398 0.0
C1272 C 0.0802 0.8251 0.69648 0.0
C1273 C 0.10322 0.92479 0.74937 0.0
C1274 C 0.08539 0.92803 0.73095 0.0
C1275 C 0.10921 0.90706 0.75841 0.0
C1276 C 0.09726 0.89241 0.75072 0.0
C1277 C 0.08012 0.89558 0.72699 0.0
C1278 C 0.07424 0.91324 0.71707 0.0
C1279 C 0.1009 0.87454 0.77682 0.0
C1280 C 0.09851 0.85873 0.74487 0.0
C1281 C 0.1042 0.87303 0.83517 0.0
C1282 C 0.10545 0.88907 0.87235 0.0
C1283 C 0.09045 0.90065 0.87943 0.0
C1284 C 0.09181 0.9159 0.91394 0.0
C1285 C 0.10802 0.91956 0.9422 0.0
C1286 C 0.12289 0.90795 0.9361 0.0
C1287 C 0.12162 0.89271 0.90145 0.0
H1288 H 0.10905 0.93137 0.96893 0.0
H1289 H 0.0852 0.78242 0.64464 0.0
H1290 H 0.73468 0.01038 0.8346 0.0
H1291 H 0.71464 0.02558 0.77027 0.0
H1292 H 0.67369 0.98487 0.79908 0.0
H1293 H 0.69451 0.96811 0.8583 0.0
H1294 H 0.66349 1.00425 0.71518 0.0
H1295 H 0.68329 0.01735 0.90654 0.0
H1296 H 0.70692 0.02359 0.97743 0.0
H1297 H 0.72409 0.07045 0.88422 0.0
H1298 H 0.70066 0.06432 0.81246 0.0
H1299 H 0.5919 0.03266 0.87221 0.0
H1300 H 0.62453 0.02805 0.86179 0.0
H1301 H 0.62665 0.07002 0.73592 0.0
H1302 H 0.59373 0.07421 0.74423 0.0
H1303 H 0.65957 0.05795 0.84039 0.0
H1304 H 0.62484 0.04347 0.66779 0.0
H1305 H 0.59481 0.03335 0.63543 0.0
H1306 H 0.60216 0.98233 0.71935 0.0
H1307 H 0.63154 0.9929 0.75677 0.0
C1308 C 0.72196 1.00378 0.82505 0.0
C1309 C 0.71562 0.98871 0.85615 0.0
C1310 C 0.71038 0.01272 0.78791 0.0
C1311 C 0.69225 0.00715 0.78369 0.0
C1312 C 0.68742 0.98992 0.80384 0.0
C1313 C 0.69927 0.98052 0.83898 0.0
C1314 C 0.67769 0.02076 0.77542 0.0
C1315 C 0.66292 0.01636 0.74094 0.0
C1316 C 0.67661 0.0363 0.81059 0.0
C1317 C 0.69041 0.0403 0.85404 0.0
C1318 C 0.69212 0.02898 0.90129 0.0
C1319 C 0.70548 0.03247 0.94151 0.0
C1320 C 0.71701 0.04739 0.93527 0.0
C1321 C 0.71517 0.05888 0.88889 0.0
C1322 C 0.70186 0.0554 0.84843 0.0
C1323 C 0.59938 0.04127 0.84343 0.0
C1324 C 0.59025 0.05342 0.80794 0.0
C1325 C 0.618 0.03871 0.83782 0.0
C1326 C 0.62775 0.04844 0.79723 0.0
C1327 C 0.61919 0.06233 0.76712 0.0
C1328 C 0.60042 0.06473 0.77212 0.0
C1329 C 0.64563 0.04145 0.78007 0.0
C1330 C 0.66079 0.04679 0.81096 0.0
C1331 C 0.64674 0.02631 0.74371 0.0
C1332 C 0.63028 0.0191 0.7156 0.0
C1333 C 0.61997 0.03017 0.67979 0.0
C1334 C 0.60299 0.02439 0.66089 0.0
C1335 C 0.59659 0.00714 0.67501 0.0
C1336 C 0.60714 0.99569 0.70839 0.0
C1337 C 0.62388 1.00165 0.72898 0.0
H1338 H 0.58345 1.00264 0.66021 0.0
H1339 H 0.72735 0.05008 0.96643 0.0
H1340 H 0.50477 0.68041 0.84426 0.0
H1341 H 0.49074 0.66142 0.7735 0.0
H1342 H 0.46547 0.70848 0.6992 0.0
H1343 H 0.47829 0.72742 0.77305 0.0
H1344 H 0.44136 0.68574 0.70915 0.0
H1345 H 0.49833 0.68177 0.63301 0.0
H1346 H 0.53086 0.67805 0.61315 0.0
H1347 H 0.52802 0.62222 0.66326 0.0
H1348 H 0.49557 0.62558 0.6846 0.0
H1349 H 0.44074 0.5837 0.60377 0.0
H1350 H 0.44538 0.61522 0.58002 0.0
H1351 H 0.41928 0.63108 0.73475 0.0
H1352 H 0.41266 0.59966 0.75555 0.0
H1353 H 0.46866 0.62921 0.63639 0.0
H1354 H 0.41456 0.67414 0.75617 0.0
H1355 H 0.38145 0.67872 0.75431 0.0
H1356 H 0.3789 0.65565 0.58917 0.0
H1357 H 0.41204 0.65115 0.5895 0.0
C1358 C 0.49627 0.68678 0.81286 0.0
C1359 C 0.49241 0.70542 0.81518 0.0
C1360 C 0.48851 0.67592 0.77151 0.0
C1361 C 0.47708 0.68348 0.73049 0.0
C1362 C 0.47418 0.70229 0.73039 0.0
C1363 C 0.4817 0.71315 0.77246 0.0
C1364 C 0.46634 0.67132 0.69352 0.0
C1365 C 0.44736 0.6735 0.6922 0.0
C1366 C 0.47419 0.65583 0.66821 0.0
C1367 C 0.49421 0.65393 0.65977 0.0
C1368 C 0.50458 0.6687 0.64029 0.0
C1369 C 0.52308 0.66665 0.62872 0.0
C1370 C 0.53149 0.64989 0.63672 0.0
C1371 C 0.52147 0.63519 0.65686 0.0
C1372 C 0.50297 0.63717 0.66861 0.0
C1373 C 0.43487 0.5938 0.63122 0.0
C1374 C 0.42706 0.589 0.68324 0.0
C1375 C 0.43772 0.61198 0.6176 0.0
C1376 C 0.43336 0.62562 0.65643 0.0
C1377 C 0.42295 0.62097 0.70384 0.0
C1378 C 0.41949 0.60282 0.71646 0.0
C1379 C 0.44374 0.64292 0.65648 0.0
C1380 C 0.46271 0.64174 0.65102 0.0
C1381 C 0.43591 0.65955 0.67325 0.0
C1382 C 0.4159 0.66235 0.67281 0.0
C1383 C 0.40702 0.67021 0.71914 0.0
C1384 C 0.3882 0.67274 0.71845 0.0
C1385 C 0.37808 0.66749 0.67165 0.0
C1386 C 0.38676 0.65969 0.62543 0.0
C1387 C 0.40556 0.65713 0.62589 0.0
H1388 H 0.36352 0.66946 0.67121 0.0
H1389 H 0.5458 0.64831 0.62746 0.0
H1390 H 0.8235 0.44659 0.90513 0.0
H1391 H 0.84441 0.43448 0.83596 0.0
H1392 H 0.80529 0.39352 0.7902 0.0
H1393 H 0.78412 0.4055 0.86153 0.0
H1394 H 0.84068 0.38002 0.80616 0.0
H1395 H 0.81246 0.42593 0.70206 0.0
H1396 H 0.79884 0.45613 0.6891 0.0
H1397 H 0.85123 0.48094 0.70709 0.0
H1398 H 0.86509 0.45108 0.72319 0.0
H1399 H 0.92805 0.41323 0.63695 0.0
H1400 H 0.89685 0.40209 0.63302 0.0
H1401 H 0.89649 0.39644 0.81323 0.0
H1402 H 0.92711 0.40801 0.81787 0.0
H1403 H 0.87201 0.42303 0.67842 0.0
H1404 H 0.8663 0.36914 0.86084 0.0
H1405 H 0.88091 0.34027 0.88635 0.0
H1406 H 0.89773 0.33259 0.71543 0.0
H1407 H 0.88297 0.36128 0.6885 0.0
C1408 C 0.81931 0.43494 0.88064 0.0
C1409 C 0.80227 0.42685 0.88908 0.0
C1410 C 0.8312 0.42816 0.84065 0.0
C1411 C 0.82627 0.41329 0.8074 0.0
C1412 C 0.80923 0.40511 0.81524 0.0
C1413 C 0.79718 0.41198 0.85564 0.0
C1414 C 0.8397 0.40625 0.76671 0.0
C1415 C 0.84742 0.38921 0.77728 0.0
C1416 C 0.84791 0.41802 0.7271 0.0
C1417 C 0.83986 0.43609 0.71385 0.0
C1418 C 0.8211 0.43781 0.70368 0.0
C1419 C 0.81329 0.45492 0.69634 0.0
C1420 C 0.82415 0.47045 0.69765 0.0
C1421 C 0.84283 0.4689 0.70626 0.0
C1422 C 0.85067 0.45185 0.71464 0.0
C1423 C 0.92151 0.40917 0.67569 0.0
C1424 C 0.93004 0.41202 0.72792 0.0
C1425 C 0.9037 0.40261 0.67319 0.0
C1426 C 0.89427 0.39846 0.72274 0.0
C1427 C 0.90353 0.39924 0.77419 0.0
C1428 C 0.92119 0.40596 0.7768 0.0
C1429 C 0.87414 0.39782 0.72368 0.0
C1430 C 0.86497 0.4134 0.70515 0.0
C1431 C 0.86474 0.38485 0.75647 0.0
C1432 C 0.87342 0.3674 0.77254 0.0
C1433 C 0.87291 0.36122 0.82845 0.0
C1434 C 0.88129 0.3449 0.84324 0.0
C1435 C 0.89023 0.3346 0.80254 0.0
C1436 C 0.89081 0.34059 0.74693 0.0
C1437 C 0.88246 0.3569 0.7319 0.0
H1438 H 0.89672 0.32197 0.8141 0.0
H1439 H 0.81809 0.48367 0.6915 0.0
H1440 H 0.98579 0.20556 0.93575 0.0
H1441 H 0.98557 0.18091 0.86595 0.0
H1442 H 0.02615 0.15231 0.9616 0.0
H1443 H 0.02635 0.17672 0.03099 0.0
H1444 H 0.03273 0.15063 0.84622 0.0
H1445 H 0.98151 0.14104 0.97459 0.0
H1446 H 0.95291 0.1506 0.01986 0.0
H1447 H 0.92816 0.15752 0.8582 0.0
H1448 H 0.95665 0.14805 0.81203 0.0
H1449 H 0.02862 0.05834 0.7733 0.0
H1450 H 0.02863 0.08809 0.81821 0.0
H1451 H 0.97994 0.10248 0.72812 0.0
H1452 H 0.97941 0.07243 0.68499 0.0
H1453 H 0.97615 0.11473 0.82619 0.0
H1454 H 0.0238 0.11961 0.69641 0.0
H1455 H 0.05173 0.11216 0.64436 0.0
H1456 H 0.08291 0.11692 0.7958 0.0
H1457 H 0.05512 0.12424 0.84899 0.0
C1458 C 0.99488 0.19415 0.94127 0.0
C1459 C 1.00603 0.19309 0.98912 0.0
C1460 C 0.99466 0.17999 0.90156 0.0
C1461 C 1.00572 0.16457 0.90861 0.0
C1462 C 0.01746 0.16397 0.95501 0.0
C1463 C 0.01752 0.17794 0.99484 0.0
C1464 C 1.00463 0.14857 0.86986 0.0
C1465 C 0.02041 0.14268 0.84215 0.0
C1466 C 0.98837 0.1386 0.86215 0.0
C1467 C 0.97121 0.14399 0.88989 0.0
C1468 C 0.96997 0.14466 0.94874 0.0
C1469 C 0.95378 0.15002 0.97454 0.0
C1470 C 0.93872 0.15465 0.94189 0.0
C1471 C 0.93981 0.15387 0.88338 0.0
C1472 C 0.95596 0.14848 0.85738 0.0
C1473 C 0.01796 0.06786 0.7627 0.0
C1474 C 1.00409 0.06291 0.72513 0.0
C1475 C 0.01802 0.085 0.78827 0.0
C1476 C 1.00446 0.09791 0.77612 0.0
C1477 C 0.9906 0.09296 0.7385 0.0
C1478 C 0.99037 0.07571 0.71355 0.0
C1479 C 1.00452 0.11624 0.80395 0.0
C1480 C 0.98851 0.12266 0.82947 0.0
C1481 C 0.02051 0.12693 0.80847 0.0
C1482 C 0.03731 0.1224 0.77681 0.0
C1483 C 0.03658 0.11897 0.71876 0.0
C1484 C 0.0524 0.11479 0.689 0.0
C1485 C 0.06908 0.11404 0.71677 0.0
C1486 C 0.06997 0.11751 0.77435 0.0
C1487 C 0.05419 0.12172 0.80431 0.0
H1488 H 0.08132 0.11079 0.69366 0.0
H1489 H 0.92621 0.15884 0.96193 0.0
H1490 H 0.30336 0.99393 0.93309 0.0
H1491 H 0.32567 0.99323 0.85581 0.0
H1492 H 0.35594 0.03607 0.9359 0.0
H1493 H 0.33359 0.03711 0.01132 0.0
H1494 H 0.35773 0.04103 0.82831 0.0
H1495 H 0.36629 0.98792 0.9495 0.0
H1496 H 0.35618 0.95933 0.9935 0.0
H1497 H 0.34518 0.93683 0.83089 0.0
H1498 H 0.35516 0.96533 0.78604 0.0
H1499 H 0.45018 0.03072 0.76271 0.0
H1500 H 0.42015 0.03139 0.8063 0.0
H1501 H 0.40161 0.99014 0.69184 0.0
H1502 H 0.43174 0.98935 0.64791 0.0
H1503 H 0.38998 0.98288 0.7975 0.0
H1504 H 0.38785 0.03303 0.67609 0.0
H1505 H 0.39751 0.06127 0.62954 0.0
H1506 H 0.39537 0.08941 0.78707 0.0
H1507 H 0.38588 0.06128 0.8348 0.0
C1508 C 0.31451 1.00352 0.93318 0.0
C1509 C 0.31671 0.01554 0.97854 0.0
C1510 C 0.32744 1.00296 0.88937 0.0
C1511 C 0.34289 0.01431 0.89025 0.0
C1512 C 0.34433 0.02706 0.93383 0.0
C1513 C 0.33149 0.02765 0.97717 0.0
C1514 C 0.35817 0.01258 0.84844 0.0
C1515 C 0.36483 0.02831 0.82199 0.0
C1516 C 0.36713 0.9959 0.83761 0.0
C1517 C 0.36131 0.97877 0.8645 0.0
C1518 C 0.36166 0.97688 0.9232 0.0
C1519 C 0.35598 0.96069 0.94827 0.0
C1520 C 0.35004 0.94627 0.91499 0.0
C1521 C 0.34982 0.94799 0.85657 0.0
C1522 C 0.3555 0.96414 0.83131 0.0
C1523 C 0.43973 0.02183 0.74644 0.0
C1524 C 0.44347 0.01009 0.70132 0.0
C1525 C 0.42246 0.02228 0.77139 0.0
C1526 C 0.40838 0.01097 0.75218 0.0
C1527 C 0.4121 0.99908 0.70747 0.0
C1528 C 0.42938 0.99873 0.68209 0.0
C1529 C 0.39002 0.0115 0.77979 0.0
C1530 C 0.38277 0.99556 0.80323 0.0
C1531 C 0.38043 0.02798 0.78751 0.0
C1532 C 0.38623 0.04497 0.75913 0.0
C1533 C 0.38956 0.0452 0.70095 0.0
C1534 C 0.39498 0.0612 0.6743 0.0
C1535 C 0.39708 0.07712 0.70534 0.0
C1536 C 0.39373 0.07707 0.76308 0.0
C1537 C 0.38829 0.0611 0.78994 0.0
H1538 H 0.40129 0.0895 0.68463 0.0
H1539 H 0.34562 0.93376 0.93447 0.0
H1540 H 0.52631 0.31362 0.91068 0.0
H1541 H 0.52262 0.33874 0.84373 0.0
H1542 H 0.48692 0.36575 0.96043 0.0
H1543 H 0.49032 0.34051 0.02634 0.0
H1544 H 0.47598 0.37304 0.8577 0.0
H1545 H 0.5339 0.37501 0.95309 0.0
H1546 H 0.56361 0.36272 0.98196 0.0
H1547 H 0.57932 0.35733 0.8091 0.0
H1548 H 0.54958 0.36939 0.77926 0.0
H1549 H 0.48939 0.46614 0.79949 0.0
H1550 H 0.48926 0.43592 0.84114 0.0
H1551 H 0.52105 0.4157 0.70273 0.0
H1552 H 0.52137 0.44611 0.66057 0.0
H1553 H 0.53382 0.40315 0.80501 0.0
H1554 H 0.47669 0.40538 0.71088 0.0
H1555 H 0.44705 0.41835 0.68446 0.0
H1556 H 0.42968 0.41627 0.85648 0.0
H1557 H 0.45933 0.40353 0.8841 0.0
C1558 C 0.51705 0.32455 0.92079 0.0
C1559 C 0.5083 0.32491 0.97325 0.0
C1560 C 0.51519 0.3391 0.88296 0.0
C1561 C 0.50479 0.35448 0.89726 0.0
C1562 C 0.49504 0.35418 0.94806 0.0
C1563 C 0.49685 0.33964 0.98566 0.0
C1564 C 0.50513 0.37144 0.86211 0.0
C1565 C 0.48864 0.37962 0.84645 0.0
C1566 C 0.5216 0.38005 0.84611 0.0
C1567 C 0.5395 0.37296 0.86396 0.0
C1568 C 0.54367 0.37113 0.92127 0.0
C1569 C 0.56051 0.3642 0.9378 0.0
C1570 C 0.57334 0.35922 0.89739 0.0
C1571 C 0.56936 0.36117 0.84036 0.0
C1572 C 0.55253 0.36807 0.82361 0.0
C1573 C 0.49638 0.45533 0.77761 0.0
C1574 C 0.50534 0.4587 0.72632 0.0
C1575 C 0.49621 0.43795 0.80153 0.0
C1576 C 0.50499 0.42336 0.77502 0.0
C1577 C 0.51416 0.42667 0.72413 0.0
C1578 C 0.51425 0.44409 0.69989 0.0
C1579 C 0.50467 0.40482 0.80114 0.0
C1580 C 0.52116 0.39641 0.81536 0.0
C1581 C 0.48819 0.39605 0.81605 0.0
C1582 C 0.4703 0.40362 0.79961 0.0
C1583 C 0.4666 0.40781 0.74315 0.0
C1584 C 0.44979 0.4151 0.72795 0.0
C1585 C 0.43651 0.41817 0.76878 0.0
C1586 C 0.43999 0.4139 0.8249 0.0
C1587 C 0.45679 0.40662 0.84035 0.0
H1588 H 0.4235 0.42381 0.75692 0.0
H1589 H 0.58637 0.35387 0.91026 0.0
H1590 H 0.16826 0.48919 0.04869 0.0
H1591 H 0.14358 0.48837 0.98023 0.0
H1592 H 0.1735 0.5247 0.87248 0.0
H1593 H 0.19843 0.5255 0.94143 0.0
H1594 H 0.13769 0.53566 0.88843 0.0
H1595 H 0.16798 0.48176 0.83199 0.0
H1596 H 0.18299 0.45217 0.84477 0.0
H1597 H 0.13376 0.42997 0.91306 0.0
H1598 H 0.11852 0.45951 0.90143 0.0
H1599 H 0.06684 0.5262 0.67934 0.0
H1600 H 0.09665 0.52679 0.72532 0.0
H1601 H 0.07754 0.48825 0.84814 0.0
H1602 H 0.04785 0.48764 0.80278 0.0
H1603 H 0.11081 0.47913 0.81272 0.0
H1604 H 0.08041 0.53372 0.86855 0.0
H1605 H 0.0662 0.56376 0.85899 0.0
H1606 H 0.11653 0.58579 0.79832 0.0
H1607 H 0.13068 0.55568 0.8036 0.0
C1608 C 0.16973 0.4968 0.01005 0.0
C1609 C 0.18536 0.50738 0.00053 0.0
C1610 C 0.1556 0.4963 0.97078 0.0
C1611 C 0.1566 0.50643 0.92087 0.0
C1612 C 0.17236 0.51675 0.91057 0.0
C1613 C 0.18668 0.51708 0.94975 0.0
C1614 C 0.14073 0.50679 0.88146 0.0
C1615 C 0.132 0.52336 0.87072 0.0
C1616 C 0.13307 0.49071 0.85929 0.0
C1617 C 0.14215 0.47289 0.86619 0.0
C1618 C 0.16039 0.47061 0.85012 0.0
C1619 C 0.16894 0.45383 0.85709 0.0
C1620 C 0.15935 0.43921 0.87981 0.0
C1621 C 0.14118 0.44131 0.89549 0.0
C1622 C 0.13257 0.45806 0.88864 0.0
C1623 C 0.06901 0.51776 0.71595 0.0
C1624 C 0.05483 0.50687 0.7372 0.0
C1625 C 0.0861 0.51817 0.7424 0.0
C1626 C 0.08947 0.50761 0.79058 0.0
C1627 C 0.07541 0.49652 0.8111 0.0
C1628 C 0.05834 0.49623 0.7851 0.0
C1629 C 0.10744 0.50802 0.82032 0.0
C1630 C 0.11657 0.49153 0.82945 0.0
C1631 C 0.11543 0.52424 0.84095 0.0
C1632 C 0.10651 0.54222 0.8351 0.0
C1633 C 0.08832 0.54481 0.85151 0.0
C1634 C 0.08024 0.5619 0.84678 0.0
C1635 C 0.09035 0.57664 0.82717 0.0
C1636 C 0.10855 0.57431 0.8123 0.0
C1637 C 0.11658 0.5572 0.81573 0.0
H1638 H 0.08413 0.5899 0.82403 0.0
H1639 H 0.16599 0.42623 0.88518 0.0
H1640 H 0.97673 0.82194 0.35333 0.0
H1641 H 0.97452 0.85018 0.40724 0.0
H1642 H 0.02905 0.84237 0.46827 0.0
H1643 H 0.03127 0.81409 0.41488 0.0
H1644 H 0.00695 0.85638 0.55059 0.0
H1645 H 0.02163 0.8696 0.35846 0.0
H1646 H 0.01731 0.86849 0.25591 0.0
H1647 H 0.9655 0.89461 0.27329 0.0
H1648 H 0.96939 0.89561 0.37612 0.0
H1649 H 0.02445 0.94748 0.63689 0.0
H1650 H 0.02526 0.91717 0.59554 0.0
H1651 H 0.97565 0.92868 0.50595 0.0
H1652 H 0.97561 0.95941 0.54417 0.0
H1653 H 0.99535 0.91202 0.43924 0.0
H1654 H 0.98065 0.89885 0.63296 0.0
H1655 H 0.98536 0.89984 0.73542 0.0
H1656 H 0.03709 0.8737 0.71597 0.0
H1657 H 0.03279 0.87275 0.61332 0.0
C1658 C 0.98808 0.82598 0.37937 0.0
C1659 C 1.00419 0.81572 0.37962 0.0
C1660 C 0.98687 0.84226 0.40979 0.0
C1661 C 1.00172 0.84864 0.44132 0.0
C1662 C 0.01742 0.83786 0.44424 0.0
C1663 C 0.01868 0.82168 0.41353 0.0
C1664 C 1.00137 0.867 0.46827 0.0
C1665 C 1.00451 0.86857 0.52623 0.0
C1666 C 0.99803 0.88297 0.43685 0.0
C1667 C 0.99572 0.8825 0.37502 0.0
C1668 C 0.00925 0.87498 0.34045 0.0
C1669 C 0.00689 0.87438 0.28227 0.0
C1670 C 0.99111 0.88143 0.25811 0.0
C1671 C 0.97769 0.88913 0.29208 0.0
C1672 C 0.97997 0.88971 0.35031 0.0
C1673 C 0.01367 0.9435 0.60861 0.0
C1674 C 0.99994 0.95589 0.59401 0.0
C1675 C 0.01404 0.92602 0.58517 0.0
C1676 C 1.0003 0.92021 0.54813 0.0
C1677 C 0.98647 0.93261 0.53418 0.0
C1678 C 0.9864 0.95023 0.5563 0.0
C1679 C 1.00052 0.90156 0.52229 0.0
C1680 C 0.99754 0.8999 0.46414 0.0
C1681 C 1.00396 0.88552 0.55369 0.0
C1682 C 1.00645 0.88586 0.61544 0.0
C1683 C 0.99306 0.89339 0.65053 0.0
C1684 C 0.99567 0.89394 0.70863 0.0
C1685 C 0.01154 0.88689 0.73216 0.0
C1686 C 0.02482 0.8792 0.69767 0.0
C1687 C 0.02229 0.87862 0.63954 0.0
H1688 H 0.01354 0.88735 0.77714 0.0
H1689 H 0.98931 0.88097 0.21306 0.0
H1690 H 0.69545 0.02248 0.38055 0.0
H1691 H 0.66691 0.02402 0.43358 0.0
H1692 H 0.65544 0.96843 0.39028 0.0
H1693 H 0.6838 0.96689 0.33727 0.0
H1694 H 0.62674 0.98748 0.37047 0.0
H1695 H 0.66744 0.98336 0.52624 0.0
H1696 H 0.69269 0.99145 0.58927 0.0
H1697 H 0.66802 0.04311 0.62177 0.0
H1698 H 0.64279 0.03549 0.55808 0.0
H1699 H 0.55047 0.97337 0.5511 0.0
H1700 H 0.58069 0.97211 0.50826 0.0
H1701 H 0.58724 0.0295 0.53477 0.0
H1702 H 0.55721 0.03081 0.57936 0.0
H1703 H 0.61833 0.01003 0.56447 0.0
H1704 H 0.57809 0.01423 0.40676 0.0
H1705 H 0.5521 1.00532 0.34776 0.0
H1706 H 0.57566 0.95266 0.3233 0.0
H1707 H 0.60168 0.96119 0.38288 0.0
C1708 C 0.68707 0.01045 0.38339 0.0
C1709 C 0.692 0.99457 0.35426 0.0
C1710 C 0.67065 0.01135 0.41373 0.0
C1711 C 0.65881 0.99634 0.41623 0.0
C1712 C 0.66411 0.9803 0.3889 0.0
C1713 C 0.68042 0.97942 0.35853 0.0
C1714 C 0.64046 0.99753 0.44404 0.0
C1715 C 0.62503 0.99221 0.41325 0.0
C1716 C 0.63788 1.00413 0.49948 0.0
C1717 C 0.65337 0.00897 0.53645 0.0
C1718 C 0.66754 0.99656 0.54606 0.0
C1719 C 0.68183 1.00105 0.58205 0.0
C1720 C 0.68205 0.01785 0.60907 0.0
C1721 C 0.66793 0.03017 0.60037 0.0
C1722 C 0.65362 0.02577 0.56433 0.0
C1723 C 0.55834 0.98575 0.54818 0.0
C1724 C 0.55132 1.00219 0.5691 0.0
C1725 C 0.57566 0.98501 0.52343 0.0
C1726 C 0.58638 1.00071 0.5182 0.0
C1727 C 0.57938 0.01714 0.5388 0.0
C1728 C 0.56215 0.01787 0.56423 0.0
C1729 C 0.60478 0.99999 0.49102 0.0
C1730 C 0.62014 1.00539 0.52177 0.0
C1731 C 0.60734 0.99343 0.43573 0.0
C1732 C 0.59175 0.98829 0.39975 0.0
C1733 C 0.57766 1.0007 0.38919 0.0
C1734 C 0.56293 0.99573 0.35557 0.0
C1735 C 0.56221 0.97842 0.33192 0.0
C1736 C 0.57623 0.96606 0.34172 0.0
C1737 C 0.59098 0.97096 0.37538 0.0
H1738 H 0.5508 0.97459 0.30588 0.0
H1739 H 0.69307 0.02125 0.63718 0.0
H1740 H 0.4756 0.68872 0.31616 0.0
H1741 H 0.47607 0.66481 0.38755 0.0
H1742 H 0.53369 0.67267 0.40863 0.0
H1743 H 0.53316 0.69667 0.33682 0.0
H1744 H 0.52577 0.63751 0.38969 0.0
H1745 H 0.5023 0.68357 0.51064 0.0
H1746 H 0.48158 0.70744 0.54412 0.0
H1747 H 0.43731 0.66959 0.54472 0.0
H1748 H 0.45769 0.64547 0.5109 0.0
H1749 H 0.53517 0.56887 0.59315 0.0
H1750 H 0.53507 0.59837 0.54659 0.0
H1751 H 0.47651 0.59731 0.54135 0.0
H1752 H 0.47657 0.56814 0.59079 0.0
H1753 H 0.48559 0.63005 0.55491 0.0
H1754 H 0.50592 0.58585 0.4237 0.0
H1755 H 0.5248 0.56087 0.38734 0.0
H1756 H 0.57235 0.59435 0.3998 0.0
H1757 H 0.55377 0.61947 0.43697 0.0
C1758 C 0.48823 0.68583 0.33766 0.0
C1759 C 0.50427 0.69488 0.32177 0.0
C1760 C 0.48852 0.67205 0.37834 0.0
C1761 C 0.50491 0.66683 0.404 0.0
C1762 C 0.52085 0.6764 0.38977 0.0
C1763 C 0.52052 0.69031 0.34926 0.0
C1764 C 0.50563 0.65043 0.44149 0.0
C1765 C 0.51726 0.6361 0.42664 0.0
C1766 C 0.49397 0.64809 0.48843 0.0
C1767 C 0.48155 0.66271 0.50764 0.0
C1768 C 0.48809 0.68037 0.51706 0.0
C1769 C 0.47641 0.69394 0.53645 0.0
C1770 C 0.45813 0.69003 0.54655 0.0
C1771 C 0.45148 0.67258 0.53702 0.0
C1772 C 0.4631 0.65894 0.51785 0.0
C1773 C 0.52224 0.57494 0.58244 0.0
C1774 C 0.50589 0.56592 0.59519 0.0
C1775 C 0.52219 0.59184 0.55526 0.0
C1776 C 0.50581 0.60002 0.53824 0.0
C1777 C 0.4894 0.59138 0.55316 0.0
C1778 C 0.48944 0.5746 0.58146 0.0
C1779 C 0.50585 0.6172 0.50373 0.0
C1780 C 0.49429 0.6316 0.51867 0.0
C1781 C 0.51727 0.61951 0.45615 0.0
C1782 C 0.52849 0.60447 0.43367 0.0
C1783 C 0.52042 0.58784 0.41904 0.0
C1784 C 0.53107 0.57366 0.39825 0.0
C1785 C 0.54977 0.576 0.39142 0.0
C1786 C 0.55786 0.59255 0.40522 0.0
C1787 C 0.54728 0.60677 0.42611 0.0
H1788 H 0.55799 0.56501 0.37531 0.0
H1789 H 0.44913 0.70053 0.56186 0.0
H1790 H 0.82494 0.46596 0.35708 0.0
H1791 H 0.84937 0.47174 0.42269 0.0
H1792 H 0.8391 0.52922 0.41142 0.0
H1793 H 0.81521 0.5234 0.3413 0.0
H1794 H 0.87383 0.52356 0.40241 0.0
H1795 H 0.82946 0.50041 0.53303 0.0
H1796 H 0.80643 0.47771 0.55991 0.0
H1797 H 0.84752 0.4365 0.56679 0.0
H1798 H 0.87072 0.45879 0.53834 0.0
H1799 H 0.94543 0.53807 0.59845 0.0
H1800 H 0.91541 0.53742 0.55444 0.0
H1801 H 0.91695 0.47895 0.55255 0.0
H1802 H 0.9466 0.47954 0.59816 0.0
H1803 H 0.88441 0.48847 0.577 0.0
H1804 H 0.92628 0.50692 0.43292 0.0
H1805 H 0.95003 0.52593 0.38949 0.0
H1806 H 0.9151 0.57242 0.39997 0.0
H1807 H 0.89122 0.55371 0.44415 0.0
C1808 C 0.82759 0.47986 0.3693 0.0
C1809 C 0.8181 0.49422 0.34369 0.0
C1810 C 0.84158 0.48316 0.40743 0.0
C1811 C 0.8461 0.50094 0.4233 0.0
C1812 C 0.83592 0.51535 0.40025 0.0
C1813 C 0.82206 0.51203 0.36077 0.0
C1814 C 0.86229 0.50428 0.4603 0.0
C1815 C 0.87588 0.51621 0.44136 0.0
C1816 C 0.86545 0.49426 0.51038 0.0
C1817 C 0.85181 0.48128 0.53286 0.0
C1818 C 0.83359 0.48651 0.54022 0.0
C1819 C 0.82048 0.47368 0.55528 0.0
C1820 C 0.82547 0.45562 0.56402 0.0
C1821 C 0.84365 0.45045 0.55921 0.0
C1822 C 0.85679 0.46319 0.54369 0.0
C1823 C 0.93934 0.52507 0.58887 0.0
C1824 C 0.94853 0.50886 0.60185 0.0
C1825 C 0.92215 0.52471 0.56337 0.0
C1826 C 0.91385 0.50814 0.54905 0.0
C1827 C 0.9229 0.49195 0.56302 0.0
C1828 C 0.93996 0.4923 0.58914 0.0
C1829 C 0.89601 0.50753 0.51854 0.0
C1830 C 0.88215 0.49611 0.53873 0.0
C1831 C 0.89274 0.5177 0.46898 0.0
C1832 C 0.90706 0.52897 0.44245 0.0
C1833 C 0.92372 0.52122 0.42635 0.0
C1834 C 0.93719 0.53194 0.40154 0.0
C1835 C 0.9341 0.55038 0.39215 0.0
C1836 C 0.9175 0.55814 0.4074 0.0
C1837 C 0.90399 0.54749 0.4323 0.0
H1838 H 0.94454 0.55865 0.37291 0.0
H1839 H 0.81527 0.44567 0.57516 0.0
loop_
_geom_bond_atom_site_label_1
_geom_bond_atom_site_label_2
_geom_bond_distance
_geom_bond_site_symmetry_2
_ccdc_geom_bond_type
C0 C1 1.391 . S
C0 C4 1.391 . S
C0 H42 0.948 . S
C1 C0 1.391 . S
C1 C2 1.391 . S
C2 C1 1.391 . S
C2 H58 0.947 . S
C2 C59 1.392 . S
C3 C4 1.391 . S
C3 C7 1.397 . S
C3 C59 1.419 . S
C4 C0 1.391 . S
C4 C3 1.391 . S
C4 C5 1.399 . S
C5 C4 1.399 . S
C5 C8 1.396 . S
C5 C17 1.453 . S
C5 C18 1.684 . S
H6 C30 0.948 . S
C7 C3 1.397 . S
C7 C8 1.394 . S
C7 C26 1.723 . S
C8 C5 1.396 . S
C8 C7 1.394 . S
C8 C38 1.723 . S
H9 C32 0.947 . S
H10 C33 0.948 . S
H11 C39 0.982 . S
H12 C40 0.979 . S
H13 C40 0.980 . S
H14 C40 0.983 . S
H15 C39 0.979 . S
H16 C39 0.977 . S
C17 C5 1.453 . S
C17 H46 0.982 . S
C17 H47 0.979 . S
C17 H48 0.977 . S
C18 C5 1.684 . S
C18 H43 0.979 . S
C18 H44 0.980 . S
C18 H45 0.983 . S
C19 C20 1.391 . S
C19 C24 1.391 . S
C19 H49 0.948 . S
C20 C19 1.391 . S
C20 C21 1.391 . S
C21 C20 1.391 . S
C21 C22 1.392 . S
C21 H50 0.947 . S
C22 C21 1.392 . S
C22 C23 1.419 . S
C22 H51 0.948 . S
C23 C22 1.419 . S
C23 C24 1.391 . S
C23 C27 1.397 . S
C24 C19 1.391 . S
C24 C23 1.391 . S
C24 C25 1.399 . S
C25 C24 1.399 . S
C25 C26 1.396 . S
C25 C28 1.453 . S
C25 C29 1.684 . S
C26 C7 1.723 . S
C26 C25 1.396 . S
C26 C27 1.394 . S
C27 C23 1.397 . S
C27 C26 1.394 . S
C27 C37 1.723 . S
C28 C25 1.453 . S
C28 H52 0.982 . S
C28 H53 0.979 . S
C28 H54 0.977 . S
C29 C25 1.684 . S
C29 H55 0.979 . S
C29 H56 0.980 . S
C29 H57 0.983 . S
C30 H6 0.948 . S
C30 C31 1.391 . S
C30 C35 1.391 . S
C31 C30 1.391 . S
C31 C32 1.391 . S
C32 H9 0.947 . S
C32 C31 1.391 . S
C32 C33 1.392 . S
C33 H10 0.948 . S
C33 C32 1.392 . S
C33 C34 1.419 . S
C34 C33 1.419 . S
C34 C35 1.391 . S
C34 C38 1.397 . S
C35 C30 1.391 . S
C35 C34 1.391 . S
C35 C36 1.399 . S
C36 C35 1.399 . S
C36 C37 1.396 . S
C36 C39 1.453 . S
C36 C40 1.684 . S
C37 C27 1.723 . S
C37 C36 1.396 . S
C37 C38 1.394 . S
C38 C8 1.723 . S
C38 C34 1.397 . S
C38 C37 1.394 . S
C39 H11 0.982 . S
C39 H15 0.979 . S
C39 H16 0.977 . S
C39 C36 1.453 . S
C40 H12 0.979 . S
C40 H13 0.980 . S
C40 H14 0.983 . S
C40 C36 1.684 . S
H41 C59 0.948 . S
H42 C0 0.948 . S
H43 C18 0.979 . S
H44 C18 0.980 . S
H45 C18 0.983 . S
H46 C17 0.982 . S
H47 C17 0.979 . S
H48 C17 0.977 . S
H49 C19 0.948 . S
H50 C21 0.947 . S
H51 C22 0.948 . S
H52 C28 0.982 . S
H53 C28 0.979 . S
H54 C28 0.977 . S
H55 C29 0.979 . S
H56 C29 0.980 . S
H57 C29 0.983 . S
H58 C2 0.947 . S
C59 C2 1.392 . S
C59 C3 1.419 . S
C59 H41 0.948 . S
C60 C61 1.391 . S
C60 C64 1.391 . S
C60 H102 0.948 . S
C61 C60 1.391 . S
C61 C62 1.391 . S
C62 C61 1.391 . S
C62 H118 0.947 . S
C62 C119 1.392 . S
C63 C64 1.400 . S
C63 C67 1.395 1_655 S
C63 C119 1.426 . S
C64 C60 1.391 . S
C64 C63 1.400 . S
C64 C65 1.399 . S
C65 C64 1.399 . S
C65 C68 1.388 1_655 S
C65 C77 1.453 1_655 S
C65 C78 1.684 . S
H66 C90 0.948 . S
C67 C63 1.395 1_455 S
C67 C68 1.393 . S
C67 C86 1.722 . S
C68 C65 1.388 1_455 S
C68 C67 1.393 . S
C68 C98 1.722 . S
H69 C92 0.947 . S
H70 C93 0.948 . S
H71 C99 0.982 . S
H72 C100 0.979 . S
H73 C100 0.980 . S
H74 C100 0.983 . S
H75 C99 0.979 . S
H76 C99 0.977 . S
C77 C65 1.453 1_455 S
C77 H106 0.982 . S
C77 H107 0.979 . S
C77 H108 0.977 . S
C78 C65 1.684 . S
C78 H103 0.979 . S
C78 H104 0.980 . S
C78 H105 0.983 . S
C79 C80 1.391 . S
C79 C84 1.391 . S
C79 H109 0.948 . S
C80 C79 1.391 . S
C80 C81 1.391 . S
C81 C80 1.391 . S
C81 C82 1.392 . S
C81 H110 0.947 . S
C82 C81 1.392 . S
C82 C83 1.425 . S
C82 H111 0.948 . S
C83 C82 1.425 . S
C83 C84 1.400 . S
C83 C87 1.395 1_655 S
C84 C79 1.391 . S
C84 C83 1.400 . S
C84 C85 1.399 . S
C85 C84 1.399 . S
C85 C86 1.388 1_655 S
C85 C88 1.453 1_655 S
C85 C89 1.684 . S
C86 C67 1.722 . S
C86 C85 1.388 1_455 S
C86 C87 1.393 . S
C87 C83 1.395 1_455 S
C87 C86 1.393 . S
C87 C97 1.722 . S
C88 C85 1.453 1_455 S
C88 H112 0.982 . S
C88 H113 0.979 . S
C88 H114 0.977 . S
C89 C85 1.684 . S
C89 H115 0.979 . S
C89 H116 0.980 . S
C89 H117 0.983 . S
C90 H66 0.948 . S
C90 C91 1.391 . S
C90 C95 1.391 . S
C91 C90 1.391 . S
C91 C92 1.391 . S
C92 H69 0.947 . S
C92 C91 1.391 . S
C92 C93 1.392 . S
C93 H70 0.948 . S
C93 C92 1.392 . S
C93 C94 1.426 . S
C94 C93 1.426 . S
C94 C95 1.400 . S
C94 C98 1.395 1_655 S
C95 C90 1.391 . S
C95 C94 1.400 . S
C95 C96 1.399 . S
C96 C95 1.399 . S
C96 C97 1.388 1_655 S
C96 C99 1.453 1_655 S
C96 C100 1.684 . S
C97 C87 1.722 . S
C97 C96 1.388 1_455 S
C97 C98 1.393 . S
C98 C68 1.722 . S
C98 C94 1.395 1_455 S
C98 C97 1.393 . S
C99 H71 0.982 . S
C99 H75 0.979 . S
C99 H76 0.977 . S
C99 C96 1.453 1_455 S
C100 H72 0.979 . S
C100 H73 0.980 . S
C100 H74 0.983 . S
C100 C96 1.684 . S
H101 C119 0.948 . S
H102 C60 0.948 . S
H103 C78 0.979 . S
H104 C78 0.980 . S
H105 C78 0.983 . S
H106 C77 0.982 . S
H107 C77 0.979 . S
H108 C77 0.977 . S
H109 C79 0.948 . S
H110 C81 0.947 . S
H111 C82 0.948 . S
H112 C88 0.982 . S
H113 C88 0.979 . S
H114 C88 0.977 . S
H115 C89 0.979 . S
H116 C89 0.980 . S
H117 C89 0.983 . S
H118 C62 0.947 . S
C119 C62 1.392 . S
C119 C63 1.426 . S
C119 H101 0.948 . S
C120 C121 1.391 . S
C120 C124 1.391 . S
C120 H162 0.948 . S
C121 C120 1.391 . S
C121 C122 1.391 . S
C122 C121 1.391 . S
C122 H178 0.947 . S
C122 C179 1.392 . S
C123 C124 1.400 . S
C123 C127 1.395 1_565 S
C123 C179 1.426 . S
C124 C120 1.391 . S
C124 C123 1.400 . S
C124 C125 1.399 . S
C125 C124 1.399 . S
C125 C128 1.388 1_565 S
C125 C137 1.453 1_565 S
C125 C138 1.684 . S
H126 C150 0.948 . S
C127 C123 1.395 1_545 S
C127 C128 1.393 . S
C127 C146 1.722 . S
C128 C125 1.388 1_545 S
C128 C127 1.393 . S
C128 C158 1.722 . S
H129 C152 0.947 . S
H130 C153 0.948 . S
H131 C159 0.982 . S
H132 C160 0.979 . S
H133 C160 0.980 . S
H134 C160 0.983 . S
H135 C159 0.979 . S
H136 C159 0.977 . S
C137 C125 1.453 1_545 S
C137 H166 0.982 . S
C137 H167 0.979 . S
C137 H168 0.977 . S
C138 C125 1.684 . S
C138 H163 0.979 . S
C138 H164 0.980 . S
C138 H165 0.983 . S
C139 C140 1.391 . S
C139 C144 1.391 . S
C139 H169 0.948 . S
C140 C139 1.391 . S
C140 C141 1.391 . S
C141 C140 1.391 . S
C141 C142 1.392 . S
C141 H170 0.947 . S
C142 C141 1.392 . S
C142 C143 1.426 . S
C142 H171 0.948 . S
C143 C142 1.426 . S
C143 C144 1.400 . S
C143 C147 1.395 1_565 S
C144 C139 1.391 . S
C144 C143 1.400 . S
C144 C145 1.399 . S
C145 C144 1.399 . S
C145 C146 1.388 1_565 S
C145 C148 1.453 1_565 S
C145 C149 1.684 . S
C146 C127 1.722 . S
C146 C145 1.388 1_545 S
C146 C147 1.393 . S
C147 C143 1.395 1_545 S
C147 C146 1.393 . S
C147 C157 1.722 . S
C148 C145 1.453 1_545 S
C148 H172 0.982 . S
C148 H173 0.979 . S
C148 H174 0.977 . S
C149 C145 1.684 . S
C149 H175 0.979 . S
C149 H176 0.980 . S
C149 H177 0.983 . S
C150 H126 0.948 . S
C150 C151 1.391 . S
C150 C155 1.391 . S
C151 C150 1.391 . S
C151 C152 1.391 . S
C152 H129 0.947 . S
C152 C151 1.391 . S
C152 C153 1.392 . S
C153 H130 0.948 . S
C153 C152 1.392 . S
C153 C154 1.425 . S
C154 C153 1.425 . S
C154 C155 1.400 . S
C154 C158 1.395 1_565 S
C155 C150 1.391 . S
C155 C154 1.400 . S
C155 C156 1.399 . S
C156 C155 1.399 . S
C156 C157 1.388 1_565 S
C156 C159 1.453 1_565 S
C156 C160 1.684 . S
C157 C147 1.722 . S
C157 C156 1.388 1_545 S
C157 C158 1.393 . S
C158 C128 1.722 . S
C158 C154 1.395 1_545 S
C158 C157 1.393 . S
C159 H131 0.982 . S
C159 H135 0.979 . S
C159 H136 0.977 . S
C159 C156 1.453 1_545 S
C160 H132 0.979 . S
C160 H133 0.980 . S
C160 H134 0.983 . S
C160 C156 1.684 . S
H161 C179 0.948 . S
H162 C120 0.948 . S
H163 C138 0.979 . S
H164 C138 0.980 . S
H165 C138 0.983 . S
H166 C137 0.982 . S
H167 C137 0.979 . S
H168 C137 0.977 . S
H169 C139 0.948 . S
H170 C141 0.947 . S
H171 C142 0.948 . S
H172 C148 0.982 . S
H173 C148 0.979 . S
H174 C148 0.977 . S
H175 C149 0.979 . S
H176 C149 0.980 . S
H177 C149 0.983 . S
H178 C122 0.947 . S
C179 C122 1.392 . S
C179 C123 1.426 . S
C179 H161 0.948 . S
C180 C181 1.391 . S
C180 C184 1.391 . S
C180 H222 0.948 . S
C181 C180 1.391 . S
C181 C182 1.391 . S
C182 C181 1.391 . S
C182 H238 0.947 . S
C182 C239 1.392 . S
C183 C184 1.391 . S
C183 C187 1.397 . S
C183 C239 1.419 . S
C184 C180 1.391 . S
C184 C183 1.391 . S
C184 C185 1.399 . S
C185 C184 1.399 . S
C185 C188 1.396 . S
C185 C197 1.453 . S
C185 C198 1.684 . S
H186 C210 0.948 . S
C187 C183 1.397 . S
C187 C188 1.394 . S
C187 C206 1.723 . S
C188 C185 1.396 . S
C188 C187 1.394 . S
C188 C218 1.723 . S
H189 C212 0.947 . S
H190 C213 0.948 . S
H191 C219 0.982 . S
H192 C220 0.979 . S
H193 C220 0.980 . S
H194 C220 0.983 . S
H195 C219 0.979 . S
H196 C219 0.977 . S
C197 C185 1.453 . S
C197 H226 0.982 . S
C197 H227 0.979 . S
C197 H228 0.977 . S
C198 C185 1.684 . S
C198 H223 0.979 . S
C198 H224 0.980 . S
C198 H225 0.983 . S
C199 C200 1.391 . S
C199 C204 1.391 . S
C199 H229 0.948 . S
C200 C199 1.391 . S
C200 C201 1.391 . S
C201 C200 1.391 . S
C201 C202 1.392 . S
C201 H230 0.947 . S
C202 C201 1.392 . S
C202 C203 1.419 . S
C202 H231 0.948 . S
C203 C202 1.419 . S
C203 C204 1.391 . S
C203 C207 1.397 . S
C204 C199 1.391 . S
C204 C203 1.391 . S
C204 C205 1.399 . S
C205 C204 1.399 . S
C205 C206 1.396 . S
C205 C208 1.453 . S
C205 C209 1.684 . S
C206 C187 1.723 . S
C206 C205 1.396 . S
C206 C207 1.394 . S
C207 C203 1.397 . S
C207 C206 1.394 . S
C207 C217 1.723 . S
C208 C205 1.453 . S
C208 H232 0.982 . S
C208 H233 0.979 . S
C208 H234 0.977 . S
C209 C205 1.684 . S
C209 H235 0.979 . S
C209 H236 0.980 . S
C209 H237 0.983 . S
C210 H186 0.948 . S
C210 C211 1.391 . S
C210 C215 1.391 . S
C211 C210 1.391 . S
C211 C212 1.391 . S
C212 H189 0.947 . S
C212 C211 1.391 . S
C212 C213 1.392 . S
C213 H190 0.948 . S
C213 C212 1.392 . S
C213 C214 1.419 . S
C214 C213 1.419 . S
C214 C215 1.391 . S
C214 C218 1.397 . S
C215 C210 1.391 . S
C215 C214 1.391 . S
C215 C216 1.399 . S
C216 C215 1.399 . S
C216 C217 1.396 . S
C216 C219 1.453 . S
C216 C220 1.684 . S
C217 C207 1.723 . S
C217 C216 1.396 . S
C217 C218 1.394 . S
C218 C188 1.723 . S
C218 C214 1.397 . S
C218 C217 1.394 . S
C219 H191 0.982 . S
C219 H195 0.979 . S
C219 H196 0.977 . S
C219 C216 1.453 . S
C220 H192 0.979 . S
C220 H193 0.980 . S
C220 H194 0.983 . S
C220 C216 1.684 . S
H221 C239 0.948 . S
H222 C180 0.948 . S
H223 C198 0.979 . S
H224 C198 0.980 . S
H225 C198 0.983 . S
H226 C197 0.982 . S
H227 C197 0.979 . S
H228 C197 0.977 . S
H229 C199 0.948 . S
H230 C201 0.947 . S
H231 C202 0.948 . S
H232 C208 0.982 . S
H233 C208 0.979 . S
H234 C208 0.977 . S
H235 C209 0.979 . S
H236 C209 0.980 . S
H237 C209 0.983 . S
H238 C182 0.947 . S
C239 C182 1.392 . S
C239 C183 1.419 . S
C239 H221 0.948 . S
C240 C241 1.391 . S
C240 C244 1.391 . S
C240 H282 0.948 . S
C241 C240 1.391 . S
C241 C242 1.391 . S
C242 C241 1.391 . S
C242 H298 0.947 . S
C242 C299 1.392 . S
C243 C244 1.391 . S
C243 C247 1.397 . S
C243 C299 1.419 . S
C244 C240 1.391 . S
C244 C243 1.391 . S
C244 C245 1.399 1_554 S
C245 C244 1.399 1_556 S
C245 C248 1.396 1_556 S
C245 C257 1.453 . S
C245 C258 1.684 . S
H246 C270 0.948 . S
C247 C243 1.397 . S
C247 C248 1.394 . S
C247 C266 1.723 . S
C248 C245 1.396 1_554 S
C248 C247 1.394 . S
C248 C278 1.723 1_554 S
H249 C272 0.947 . S
H250 C273 0.948 . S
H251 C279 0.982 . S
H252 C280 0.979 . S
H253 C280 0.980 1_554 S
H254 C280 0.983 . S
H255 C279 0.979 . S
H256 C279 0.977 1_554 S
C257 C245 1.453 . S
C257 H286 0.982 . S
C257 H287 0.979 . S
C257 H288 0.977 . S
C258 C245 1.684 . S
C258 H283 0.979 . S
C258 H284 0.980 . S
C258 H285 0.983 . S
C259 C260 1.391 . S
C259 C264 1.391 . S
C259 H289 0.948 . S
C260 C259 1.391 . S
C260 C261 1.391 . S
C261 C260 1.391 . S
C261 C262 1.392 . S
C261 H290 0.947 . S
C262 C261 1.392 . S
C262 C263 1.419 . S
C262 H291 0.948 . S
C263 C262 1.419 . S
C263 C264 1.391 . S
C263 C267 1.397 . S
C264 C259 1.391 . S
C264 C263 1.391 . S
C264 C265 1.399 . S
C265 C264 1.399 . S
C265 C266 1.396 . S
C265 C268 1.453 . S
C265 C269 1.684 . S
C266 C247 1.723 . S
C266 C265 1.396 . S
C266 C267 1.394 . S
C267 C263 1.397 . S
C267 C266 1.394 . S
C267 C277 1.723 . S
C268 C265 1.453 . S
C268 H292 0.982 . S
C268 H293 0.979 . S
C268 H294 0.977 . S
C269 C265 1.684 . S
C269 H295 0.979 . S
C269 H296 0.980 . S
C269 H297 0.983 . S
C270 H246 0.948 . S
C270 C271 1.391 . S
C270 C275 1.391 . S
C271 C270 1.391 . S
C271 C272 1.391 . S
C272 H249 0.947 . S
C272 C271 1.391 . S
C272 C273 1.392 . S
C273 H250 0.948 . S
C273 C272 1.392 . S
C273 C274 1.419 . S
C274 C273 1.419 . S
C274 C275 1.391 . S
C274 C278 1.397 . S
C275 C270 1.391 . S
C275 C274 1.391 . S
C275 C276 1.399 . S
C276 C275 1.399 . S
C276 C277 1.396 1_556 S
C276 C279 1.453 . S
C276 C280 1.684 . S
C277 C267 1.723 . S
C277 C276 1.396 1_554 S
C277 C278 1.394 1_554 S
C278 C248 1.723 1_556 S
C278 C274 1.397 . S
C278 C277 1.394 1_556 S
C279 H251 0.982 . S
C279 H255 0.979 . S
C279 H256 0.977 1_556 S
C279 C276 1.453 . S
C280 H252 0.979 . S
C280 H253 0.980 1_556 S
C280 H254 0.983 . S
C280 C276 1.684 . S
H281 C299 0.948 . S
H282 C240 0.948 . S
H283 C258 0.979 . S
H284 C258 0.980 . S
H285 C258 0.983 . S
H286 C257 0.982 . S
H287 C257 0.979 . S
H288 C257 0.977 . S
H289 C259 0.948 . S
H290 C261 0.947 . S
H291 C262 0.948 . S
H292 C268 0.982 . S
H293 C268 0.979 . S
H294 C268 0.977 . S
H295 C269 0.979 . S
H296 C269 0.980 . S
H297 C269 0.983 . S
H298 C242 0.947 . S
C299 C242 1.392 . S
C299 C243 1.419 . S
C299 H281 0.948 . S
C300 C301 1.391 . S
C300 C304 1.391 . S
C300 H342 0.948 . S
C301 C300 1.391 . S
C301 C302 1.391 . S
C302 C301 1.391 . S
C302 H358 0.947 . S
C302 C359 1.392 . S
C303 C304 1.398 . S
C303 C307 1.395 1_655 S
C303 C359 1.424 . S
C304 C300 1.391 . S
C304 C303 1.398 . S
C304 C305 1.399 . S
C305 C304 1.399 . S
C305 C308 1.396 1_655 S
C305 C317 1.453 1_655 S
C305 C318 1.684 . S
H306 C330 0.948 . S
C307 C303 1.395 1_455 S
C307 C308 1.395 . S
C307 C326 1.723 . S
C308 C305 1.396 1_455 S
C308 C307 1.395 . S
C308 C338 1.723 . S
H309 C332 0.947 . S
H310 C333 0.948 . S
H311 C339 0.982 . S
H312 C340 0.979 . S
H313 C340 0.980 . S
H314 C340 0.983 . S
H315 C339 0.979 . S
H316 C339 0.977 . S
C317 C305 1.453 1_455 S
C317 H346 0.982 . S
C317 H347 0.979 . S
C317 H348 0.977 . S
C318 C305 1.684 . S
C318 H343 0.979 . S
C318 H344 0.980 . S
C318 H345 0.983 . S
C319 C320 1.391 . S
C319 C324 1.391 . S
C319 H349 0.948 . S
C320 C319 1.391 . S
C320 C321 1.391 . S
C321 C320 1.391 . S
C321 C322 1.392 . S
C321 H350 0.947 . S
C322 C321 1.392 . S
C322 C323 1.424 . S
C322 H351 0.948 . S
C323 C322 1.424 . S
C323 C324 1.398 . S
C323 C327 1.395 1_655 S
C324 C319 1.391 . S
C324 C323 1.398 . S
C324 C325 1.399 . S
C325 C324 1.399 . S
C325 C326 1.396 1_656 S
C325 C328 1.453 1_655 S
C325 C329 1.684 . S
C326 C307 1.723 . S
C326 C325 1.396 1_454 S
C326 C327 1.395 1_554 S
C327 C323 1.395 1_455 S
C327 C326 1.395 1_556 S
C327 C337 1.723 1_556 S
C328 C325 1.453 1_455 S
C328 H352 0.982 . S
C328 H353 0.979 . S
C328 H354 0.977 1_556 S
C329 C325 1.684 . S
C329 H355 0.979 . S
C329 H356 0.980 1_556 S
C329 H357 0.983 . S
C330 H306 0.948 . S
C330 C331 1.391 . S
C330 C335 1.391 . S
C331 C330 1.391 . S
C331 C332 1.391 . S
C332 H309 0.947 . S
C332 C331 1.391 . S
C332 C333 1.392 . S
C333 H310 0.948 . S
C333 C332 1.392 . S
C333 C334 1.424 . S
C334 C333 1.424 . S
C334 C335 1.398 . S
C334 C338 1.395 1_655 S
C335 C330 1.391 . S
C335 C334 1.398 . S
C335 C336 1.399 1_554 S
C336 C335 1.399 1_556 S
C336 C337 1.396 1_656 S
C336 C339 1.453 1_655 S
C336 C340 1.684 . S
C337 C327 1.723 1_554 S
C337 C336 1.396 1_454 S
C337 C338 1.395 . S
C338 C308 1.723 . S
C338 C334 1.395 1_455 S
C338 C337 1.395 . S
C339 H311 0.982 . S
C339 H315 0.979 . S
C339 H316 0.977 . S
C339 C336 1.453 1_455 S
C340 H312 0.979 . S
C340 H313 0.980 . S
C340 H314 0.983 . S
C340 C336 1.684 . S
H341 C359 0.948 . S
H342 C300 0.948 . S
H343 C318 0.979 . S
H344 C318 0.980 . S
H345 C318 0.983 . S
H346 C317 0.982 . S
H347 C317 0.979 . S
H348 C317 0.977 . S
H349 C319 0.948 . S
H350 C321 0.947 . S
H351 C322 0.948 . S
H352 C328 0.982 . S
H353 C328 0.979 . S
H354 C328 0.977 1_554 S
H355 C329 0.979 . S
H356 C329 0.980 1_554 S
H357 C329 0.983 . S
H358 C302 0.947 . S
C359 C302 1.392 . S
C359 C303 1.424 . S
C359 H341 0.948 . S
C360 C361 1.391 . S
C360 C364 1.391 . S
C360 H402 0.948 . S
C361 C360 1.391 . S
C361 C362 1.391 . S
C362 C361 1.391 . S
C362 H418 0.947 . S
C362 C419 1.392 . S
C363 C364 1.400 . S
C363 C367 1.395 1_545 S
C363 C419 1.425 . S
C364 C360 1.391 . S
C364 C363 1.400 . S
C364 C365 1.399 . S
C365 C364 1.399 . S
C365 C368 1.388 1_545 S
C365 C377 1.453 1_545 S
C365 C378 1.684 . S
H366 C390 0.948 . S
C367 C363 1.395 1_565 S
C367 C368 1.393 . S
C367 C386 1.722 1_556 S
C368 C365 1.388 1_565 S
C368 C367 1.393 . S
C368 C398 1.722 1_556 S
H369 C392 0.947 . S
H370 C393 0.948 1_556 S
H371 C399 0.982 . S
H372 C400 0.979 . S
H373 C400 0.980 . S
H374 C400 0.983 . S
H375 C399 0.979 . S
H376 C399 0.977 . S
C377 C365 1.453 1_565 S
C377 H406 0.982 . S
C377 H407 0.979 . S
C377 H408 0.977 . S
C378 C365 1.684 . S
C378 H403 0.979 . S
C378 H404 0.980 . S
C378 H405 0.983 . S
C379 C380 1.391 . S
C379 C384 1.391 . S
C379 H409 0.948 . S
C380 C379 1.391 . S
C380 C381 1.391 . S
C381 C380 1.391 . S
C381 C382 1.392 . S
C381 H410 0.947 . S
C382 C381 1.392 . S
C382 C383 1.426 . S
C382 H411 0.948 . S
C383 C382 1.426 . S
C383 C384 1.400 . S
C383 C387 1.395 1_545 S
C384 C379 1.391 . S
C384 C383 1.400 . S
C384 C385 1.399 . S
C385 C384 1.399 . S
C385 C386 1.388 1_545 S
C385 C388 1.453 1_545 S
C385 C389 1.684 . S
C386 C367 1.722 1_554 S
C386 C385 1.388 1_565 S
C386 C387 1.393 . S
C387 C383 1.395 1_565 S
C387 C386 1.393 . S
C387 C397 1.722 . S
C388 C385 1.453 1_565 S
C388 H412 0.982 . S
C388 H413 0.979 . S
C388 H414 0.977 . S
C389 C385 1.684 . S
C389 H415 0.979 . S
C389 H416 0.980 . S
C389 H417 0.983 . S
C390 H366 0.948 . S
C390 C391 1.391 . S
C390 C395 1.391 . S
C391 C390 1.391 . S
C391 C392 1.391 . S
C392 H369 0.947 . S
C392 C391 1.391 . S
C392 C393 1.392 . S
C393 H370 0.948 1_554 S
C393 C392 1.392 . S
C393 C394 1.425 . S
C394 C393 1.425 . S
C394 C395 1.400 . S
C394 C398 1.395 1_545 S
C395 C390 1.391 . S
C395 C394 1.400 . S
C395 C396 1.399 . S
C396 C395 1.399 . S
C396 C397 1.388 1_545 S
C396 C399 1.453 1_545 S
C396 C400 1.684 . S
C397 C387 1.722 . S
C397 C396 1.388 1_565 S
C397 C398 1.393 . S
C398 C368 1.722 1_554 S
C398 C394 1.395 1_565 S
C398 C397 1.393 . S
C399 H371 0.982 . S
C399 H375 0.979 . S
C399 H376 0.977 . S
C399 C396 1.453 1_565 S
C400 H372 0.979 . S
C400 H373 0.980 . S
C400 H374 0.983 . S
C400 C396 1.684 . S
H401 C419 0.948 . S
H402 C360 0.948 . S
H403 C378 0.979 . S
H404 C378 0.980 . S
H405 C378 0.983 . S
H406 C377 0.982 . S
H407 C377 0.979 . S
H408 C377 0.977 . S
H409 C379 0.948 . S
H410 C381 0.947 . S
H411 C382 0.948 . S
H412 C388 0.982 . S
H413 C388 0.979 . S
H414 C388 0.977 . S
H415 C389 0.979 . S
H416 C389 0.980 . S
H417 C389 0.983 . S
H418 C362 0.947 . S
C419 C362 1.392 . S
C419 C363 1.425 . S
C419 H401 0.948 . S
C420 C421 1.391 . S
C420 C424 1.391 . S
C420 H462 0.948 . S
C421 C420 1.391 . S
C421 C422 1.391 . S
C422 C421 1.391 . S
C422 H478 0.947 . S
C422 C479 1.392 . S
C423 C424 1.391 . S
C423 C427 1.397 . S
C423 C479 1.419 . S
C424 C420 1.391 . S
C424 C423 1.391 . S
C424 C425 1.399 . S
C425 C424 1.399 . S
C425 C428 1.396 . S
C425 C437 1.453 . S
C425 C438 1.684 . S
H426 C450 0.948 . S
C427 C423 1.397 . S
C427 C428 1.394 . S
C427 C446 1.723 1_556 S
C428 C425 1.396 . S
C428 C427 1.394 . S
C428 C458 1.723 1_556 S
H429 C452 0.947 . S
H430 C453 0.948 1_556 S
H431 C459 0.982 . S
H432 C460 0.979 . S
H433 C460 0.980 . S
H434 C460 0.983 . S
H435 C459 0.979 . S
H436 C459 0.977 . S
C437 C425 1.453 . S
C437 H466 0.982 . S
C437 H467 0.979 . S
C437 H468 0.977 . S
C438 C425 1.684 . S
C438 H463 0.979 . S
C438 H464 0.980 . S
C438 H465 0.983 . S
C439 C440 1.391 . S
C439 C444 1.391 . S
C439 H469 0.948 . S
C440 C439 1.391 . S
C440 C441 1.391 . S
C441 C440 1.391 . S
C441 C442 1.392 . S
C441 H470 0.947 . S
C442 C441 1.392 . S
C442 C443 1.419 . S
C442 H471 0.948 . S
C443 C442 1.419 . S
C443 C444 1.391 . S
C443 C447 1.397 . S
C444 C439 1.391 . S
C444 C443 1.391 . S
C444 C445 1.399 . S
C445 C444 1.399 . S
C445 C446 1.396 . S
C445 C448 1.453 . S
C445 C449 1.684 . S
C446 C427 1.723 1_554 S
C446 C445 1.396 . S
C446 C447 1.394 . S
C447 C443 1.397 . S
C447 C446 1.394 . S
C447 C457 1.723 . S
C448 C445 1.453 . S
C448 H472 0.982 . S
C448 H473 0.979 . S
C448 H474 0.977 . S
C449 C445 1.684 . S
C449 H475 0.979 . S
C449 H476 0.976 1_554 S
C449 H477 0.983 . S
C450 H426 0.948 . S
C450 C451 1.391 . S
C450 C455 1.391 . S
C451 C450 1.391 . S
C451 C452 1.391 . S
C452 H429 0.947 . S
C452 C451 1.391 . S
C452 C453 1.392 . S
C453 H430 0.948 1_554 S
C453 C452 1.392 . S
C453 C454 1.419 . S
C454 C453 1.419 . S
C454 C455 1.391 . S
C454 C458 1.397 . S
C455 C450 1.391 . S
C455 C454 1.391 . S
C455 C456 1.399 . S
C456 C455 1.399 . S
C456 C457 1.396 . S
C456 C459 1.453 . S
C456 C460 1.684 . S
C457 C447 1.723 . S
C457 C456 1.396 . S
C457 C458 1.394 . S
C458 C428 1.723 1_554 S
C458 C454 1.397 . S
C458 C457 1.394 . S
C459 H431 0.982 . S
C459 H435 0.979 . S
C459 H436 0.977 . S
C459 C456 1.453 . S
C460 H432 0.979 . S
C460 H433 0.980 . S
C460 H434 0.983 . S
C460 C456 1.684 . S
H461 C479 0.948 . S
H462 C420 0.948 . S
H463 C438 0.979 . S
H464 C438 0.980 . S
H465 C438 0.983 . S
H466 C437 0.982 . S
H467 C437 0.979 . S
H468 C437 0.977 . S
H469 C439 0.948 . S
H470 C441 0.947 . S
H471 C442 0.948 . S
H472 C448 0.982 . S
H473 C448 0.979 . S
H474 C448 0.977 . S
H475 C449 0.979 . S
H476 C449 0.976 1_556 S
H477 C449 0.983 . S
H478 C422 0.947 . S
C479 C422 1.392 . S
C479 C423 1.419 . S
C479 H461 0.948 . S
Tb480 C490 2.825 . S
Tb480 O491 2.347 1_455 S
Tb480 O494 2.366 . S
Tb480 O499 2.418 . S
Tb480 O500 2.384 1_565 S
Tb480 O503 2.479 . S
Tb480 O504 2.471 . S
Eu481 O492 2.418 . S
Eu481 O493 2.384 1_545 S
Eu481 O496 2.479 . S
Eu481 O497 2.471 . S
Eu481 O498 2.347 1_655 S
Eu481 O501 2.366 . S
Eu481 C511 2.825 . S
C482 O498 1.259 1_565 S
C482 O499 1.265 . S
C483 O500 1.255 . S
C483 O501 1.265 1_455 S
C484 C486 1.380 . S
C484 C487 1.374 . S
C484 C490 1.507 . S
C485 C486 1.384 . S
C485 C489 1.387 . S
C485 H512 0.930 . S
C486 C484 1.380 . S
C486 C485 1.384 . S
C486 H513 0.931 . S
C487 C484 1.374 . S
C487 C488 1.390 . S
C487 H514 0.930 1_455 S
C488 C487 1.390 . S
C488 C489 1.391 . S
C488 H515 0.930 1_455 S
C489 C485 1.387 . S
C489 C488 1.391 . S
C490 Tb480 2.825 . S
C490 C484 1.507 . S
C490 O503 1.238 . S
C490 O504 1.247 . S
O491 Tb480 2.347 1_655 S
O491 C495 1.259 1_565 S
O492 Eu481 2.418 . S
O492 C495 1.265 . S
O493 Eu481 2.384 1_565 S
O493 C502 1.255 . S
O494 Tb480 2.366 . S
O494 C502 1.265 1_455 S
C495 O491 1.259 1_545 S
C495 O492 1.265 . S
O496 Eu481 2.479 . S
O496 C511 1.238 . S
O497 Eu481 2.471 . S
O497 C511 1.247 . S
O498 Eu481 2.347 1_455 S
O498 C482 1.259 1_545 S
O499 Tb480 2.418 . S
O499 C482 1.265 . S
O500 Tb480 2.384 1_545 S
O500 C483 1.255 . S
O501 Eu481 2.366 . S
O501 C483 1.265 1_655 S
C502 O493 1.255 . S
C502 O494 1.265 1_655 S
O503 Tb480 2.479 . S
O503 C490 1.238 . S
O504 Tb480 2.471 . S
O504 C490 1.247 . S
C505 C508 1.380 . S
C505 C509 1.374 . S
C505 C511 1.507 . S
C506 C507 1.387 . S
C506 C510 1.391 . S
C507 C506 1.387 . S
C507 C508 1.384 . S
C507 H516 0.930 . S
C508 C505 1.380 . S
C508 C507 1.384 . S
C508 H517 0.931 . S
C509 C505 1.374 . S
C509 C510 1.390 . S
C509 H518 0.930 1_655 S
C510 C506 1.391 . S
C510 C509 1.390 . S
C510 H519 0.930 1_655 S
C511 Eu481 2.825 . S
C511 O496 1.238 . S
C511 O497 1.247 . S
C511 C505 1.507 . S
H512 C485 0.930 . S
H513 C486 0.931 . S
H514 C487 0.930 1_655 S
H515 C488 0.930 1_655 S
H516 C507 0.930 . S
H517 C508 0.931 . S
H518 C509 0.930 1_455 S
H519 C510 0.930 1_455 S
Tb520 C530 2.825 . S
Tb520 O531 2.347 1_545 S
Tb520 O534 2.366 . S
Tb520 O539 2.418 . S
Tb520 O540 2.384 . S
Tb520 O543 2.479 . S
Tb520 O544 2.471 . S
Eu521 O532 2.418 . S
Eu521 O533 2.384 . S
Eu521 O536 2.479 . S
Eu521 O537 2.471 . S
Eu521 O538 2.347 1_565 S
Eu521 O541 2.366 . S
Eu521 C551 2.825 . S
C522 O538 1.259 . S
C522 O539 1.265 . S
C523 O540 1.255 . S
C523 O541 1.265 1_545 S
C524 C526 1.380 . S
C524 C527 1.374 . S
C524 C530 1.507 . S
C525 C526 1.384 . S
C525 C529 1.387 . S
C525 H552 0.930 . S
C526 C524 1.380 . S
C526 C525 1.384 . S
C526 H553 0.931 . S
C527 C524 1.374 . S
C527 C528 1.390 . S
C527 H554 0.930 1_545 S
C528 C527 1.390 . S
C528 C529 1.391 . S
C528 H555 0.930 1_545 S
C529 C525 1.387 . S
C529 C528 1.391 . S
C530 Tb520 2.825 . S
C530 C524 1.507 . S
C530 O543 1.238 . S
C530 O544 1.247 . S
O531 Tb520 2.347 1_565 S
O531 C535 1.259 . S
O532 Eu521 2.418 . S
O532 C535 1.265 . S
O533 Eu521 2.384 . S
O533 C542 1.255 . S
O534 Tb520 2.366 . S
O534 C542 1.265 1_545 S
C535 O531 1.259 . S
C535 O532 1.265 . S
O536 Eu521 2.479 . S
O536 C551 1.238 . S
O537 Eu521 2.471 . S
O537 C551 1.247 . S
O538 Eu521 2.347 1_545 S
O538 C522 1.259 . S
O539 Tb520 2.418 . S
O539 C522 1.265 . S
O540 Tb520 2.384 . S
O540 C523 1.255 . S
O541 Eu521 2.366 . S
O541 C523 1.265 1_565 S
C542 O533 1.255 . S
C542 O534 1.265 1_565 S
O543 Tb520 2.479 . S
O543 C530 1.238 . S
O544 Tb520 2.471 . S
O544 C530 1.247 . S
C545 C548 1.380 . S
C545 C549 1.374 . S
C545 C551 1.507 . S
C546 C547 1.387 . S
C546 C550 1.391 . S
C547 C546 1.387 . S
C547 C548 1.384 . S
C547 H556 0.930 . S
C548 C545 1.380 . S
C548 C547 1.384 . S
C548 H557 0.931 . S
C549 C545 1.374 . S
C549 C550 1.390 . S
C549 H558 0.930 1_565 S
C550 C546 1.391 . S
C550 C549 1.390 . S
C550 H559 0.930 1_565 S
C551 Eu521 2.825 . S
C551 O536 1.238 . S
C551 O537 1.247 . S
C551 C545 1.507 . S
H552 C525 0.930 . S
H553 C526 0.931 . S
H554 C527 0.930 1_565 S
H555 C528 0.930 1_565 S
H556 C547 0.930 . S
H557 C548 0.931 . S
H558 C549 0.930 1_545 S
H559 C550 0.930 1_545 S
Tb560 C570 2.825 . S
Tb560 O571 2.347 . S
Tb560 O574 2.366 . S
Tb560 O579 2.418 . S
Tb560 O580 2.384 . S
Tb560 O583 2.479 . S
Tb560 O584 2.471 . S
Eu561 O572 2.418 . S
Eu561 O573 2.384 . S
Eu561 O576 2.479 . S
Eu561 O577 2.471 . S
Eu561 O578 2.347 . S
Eu561 O581 2.366 . S
Eu561 C591 2.825 . S
C562 O578 1.259 . S
C562 O579 1.265 . S
C563 O580 1.255 . S
C563 O581 1.265 . S
C564 C566 1.380 . S
C564 C567 1.374 . S
C564 C570 1.507 . S
C565 C566 1.384 . S
C565 C569 1.387 . S
C565 H592 0.930 . S
C566 C564 1.380 . S
C566 C565 1.384 . S
C566 H593 0.931 . S
C567 C564 1.374 . S
C567 C568 1.390 . S
C567 H594 0.930 . S
C568 C567 1.390 . S
C568 C569 1.391 . S
C568 H595 0.930 . S
C569 C565 1.387 . S
C569 C568 1.391 . S
C570 Tb560 2.825 . S
C570 C564 1.507 . S
C570 O583 1.238 . S
C570 O584 1.247 . S
O571 Tb560 2.347 . S
O571 C575 1.259 . S
O572 Eu561 2.418 . S
O572 C575 1.265 . S
O573 Eu561 2.384 . S
O573 C582 1.255 . S
O574 Tb560 2.366 . S
O574 C582 1.265 . S
C575 O571 1.259 . S
C575 O572 1.265 . S
O576 Eu561 2.479 . S
O576 C591 1.238 . S
O577 Eu561 2.471 . S
O577 C591 1.247 . S
O578 Eu561 2.347 . S
O578 C562 1.259 . S
O579 Tb560 2.418 . S
O579 C562 1.265 . S
O580 Tb560 2.384 . S
O580 C563 1.255 . S
O581 Eu561 2.366 . S
O581 C563 1.265 . S
C582 O573 1.255 . S
C582 O574 1.265 . S
O583 Tb560 2.479 . S
O583 C570 1.238 . S
O584 Tb560 2.471 . S
O584 C570 1.247 . S
C585 C588 1.380 . S
C585 C589 1.374 . S
C585 C591 1.507 . S
C586 C587 1.387 . S
C586 C590 1.391 . S
C587 C586 1.387 . S
C587 C588 1.384 . S
C587 H596 0.930 . S
C588 C585 1.380 . S
C588 C587 1.384 . S
C588 H597 0.931 . S
C589 C585 1.374 . S
C589 C590 1.390 . S
C589 H598 0.930 . S
C590 C586 1.391 . S
C590 C589 1.390 . S
C590 H599 0.930 . S
C591 Eu561 2.825 . S
C591 O576 1.238 . S
C591 O577 1.247 . S
C591 C585 1.507 . S
H592 C565 0.930 . S
H593 C566 0.931 . S
H594 C567 0.930 . S
H595 C568 0.930 . S
H596 C587 0.930 . S
H597 C588 0.931 . S
H598 C589 0.930 . S
H599 C590 0.930 . S
Tb600 C610 2.825 . S
Tb600 O611 2.347 . S
Tb600 O614 2.366 . S
Tb600 O619 2.418 . S
Tb600 O620 2.384 1_655 S
Tb600 O623 2.479 . S
Tb600 O624 2.471 . S
Eu601 O612 2.418 . S
Eu601 O613 2.384 1_455 S
Eu601 O616 2.479 . S
Eu601 O617 2.471 . S
Eu601 O618 2.347 . S
Eu601 O621 2.366 . S
Eu601 C631 2.825 . S
C602 O618 1.259 1_655 S
C602 O619 1.265 . S
C603 O620 1.255 . S
C603 O621 1.265 . S
C604 C606 1.380 . S
C604 C607 1.374 . S
C604 C610 1.507 . S
C605 C606 1.384 . S
C605 C609 1.387 . S
C605 H632 0.930 . S
C606 C604 1.380 . S
C606 C605 1.384 . S
C606 H633 0.931 . S
C607 C604 1.374 . S
C607 C608 1.390 . S
C607 H634 0.930 . S
C608 C607 1.390 . S
C608 C609 1.391 . S
C608 H635 0.930 . S
C609 C605 1.387 . S
C609 C608 1.391 . S
C610 Tb600 2.825 . S
C610 C604 1.507 . S
C610 O623 1.238 . S
C610 O624 1.247 . S
O611 Tb600 2.347 . S
O611 C615 1.259 1_655 S
O612 Eu601 2.418 . S
O612 C615 1.265 . S
O613 Eu601 2.384 1_655 S
O613 C622 1.255 . S
O614 Tb600 2.366 . S
O614 C622 1.265 . S
C615 O611 1.259 1_455 S
C615 O612 1.265 . S
O616 Eu601 2.479 . S
O616 C631 1.238 . S
O617 Eu601 2.471 . S
O617 C631 1.247 . S
O618 Eu601 2.347 . S
O618 C602 1.259 1_455 S
O619 Tb600 2.418 . S
O619 C602 1.265 . S
O620 Tb600 2.384 1_455 S
O620 C603 1.255 . S
O621 Eu601 2.366 . S
O621 C603 1.265 . S
C622 O613 1.255 . S
C622 O614 1.265 . S
O623 Tb600 2.479 . S
O623 C610 1.238 . S
O624 Tb600 2.471 . S
O624 C610 1.247 . S
C625 C628 1.380 . S
C625 C629 1.374 . S
C625 C631 1.507 . S
C626 C627 1.387 . S
C626 C630 1.391 . S
C627 C626 1.387 . S
C627 C628 1.384 . S
C627 H636 0.930 . S
C628 C625 1.380 . S
C628 C627 1.384 . S
C628 H637 0.931 . S
C629 C625 1.374 . S
C629 C630 1.390 . S
C629 H638 0.930 . S
C630 C626 1.391 . S
C630 C629 1.390 . S
C630 H639 0.930 . S
C631 Eu601 2.825 . S
C631 O616 1.238 . S
C631 O617 1.247 . S
C631 C625 1.507 . S
H632 C605 0.930 . S
H633 C606 0.931 . S
H634 C607 0.930 . S
H635 C608 0.930 . S
H636 C627 0.930 . S
H637 C628 0.931 . S
H638 C629 0.930 . S
H639 C630 0.930 . S
H640 C658 0.951 . S
H641 C660 0.951 . S
H642 C662 0.950 . S
H643 C663 0.950 . S
H644 C665 0.950 . S
H645 C668 0.950 . S
H646 C669 0.950 . S
H647 C671 0.950 . S
H648 C672 0.950 . S
H649 C673 0.951 . S
H650 C675 0.951 . S
H651 C677 0.950 . S
H652 C678 0.950 . S
H653 C680 0.950 . S
H654 C683 0.950 . S
H655 C684 0.950 . S
H656 C686 0.950 . S
H657 C687 0.950 . S
C658 H640 0.951 . S
C658 C659 1.361 1_565 S
C658 C660 1.388 . S
C659 C658 1.361 1_545 S
C659 C663 1.389 . S
C660 H641 0.951 . S
C660 C658 1.388 . S
C660 C661 1.369 . S
C661 C660 1.369 . S
C661 C662 1.410 1_565 S
C661 C664 1.498 1_565 S
C662 H642 0.950 . S
C662 C661 1.410 1_545 S
C662 C663 1.374 . S
C663 H643 0.950 . S
C663 C659 1.389 . S
C663 C662 1.374 . S
C664 C661 1.498 1_545 S
C664 C665 1.387 . S
C664 C666 1.376 1_545 S
C665 H644 0.950 . S
C665 C664 1.387 . S
C665 C681 1.377 . S
C666 C664 1.376 1_565 S
C666 C667 1.524 . S
C666 C680 1.377 . S
C667 C666 1.524 . S
C667 C668 1.397 . S
C667 C672 1.363 . S
C668 H645 0.950 . S
C668 C667 1.397 . S
C668 C669 1.334 . S
C669 H646 0.950 . S
C669 C668 1.334 . S
C669 C670 1.287 . S
C670 C669 1.287 . S
C670 C671 1.524 . S
C670 H689 0.913 . S
C671 H647 0.950 . S
C671 C670 1.524 . S
C671 C672 1.415 . S
C672 H648 0.950 . S
C672 C667 1.363 . S
C672 C671 1.415 . S
C673 H649 0.951 . S
C673 C674 1.398 . S
C673 C675 1.388 . S
C674 C673 1.398 . S
C674 C678 1.353 1_545 S
C675 H650 0.951 . S
C675 C673 1.388 . S
C675 C676 1.366 . S
C676 C675 1.366 . S
C676 C677 1.414 1_545 S
C676 C679 1.500 . S
C677 H651 0.950 . S
C677 C676 1.414 1_565 S
C677 C678 1.374 . S
C678 H652 0.950 . S
C678 C674 1.353 1_565 S
C678 C677 1.374 . S
C679 C676 1.500 . S
C679 C680 1.346 1_545 S
C679 C681 1.416 . S
C680 H653 0.950 . S
C680 C666 1.377 . S
C680 C679 1.346 1_565 S
C681 C665 1.377 . S
C681 C679 1.416 . S
C681 C682 1.524 . S
C682 C681 1.524 . S
C682 C683 1.397 . S
C682 C687 1.363 . S
C683 H654 0.950 . S
C683 C682 1.397 . S
C683 C684 1.334 . S
C684 H655 0.950 . S
C684 C683 1.334 . S
C684 C685 1.287 . S
C685 C684 1.287 . S
C685 C686 1.524 . S
C685 H688 0.999 . S
C686 H656 0.950 . S
C686 C685 1.524 . S
C686 C687 1.415 . S
C687 H657 0.950 . S
C687 C682 1.363 . S
C687 C686 1.415 . S
H688 C685 0.999 . S
H689 C670 0.913 . S
H690 C708 0.951 . S
H691 C710 0.951 . S
H692 C712 0.950 . S
H693 C713 0.950 . S
H694 C715 0.950 . S
H695 C718 0.950 . S
H696 C719 0.950 . S
H697 C721 0.950 . S
H698 C722 0.950 . S
H699 C723 0.951 . S
H700 C725 0.951 . S
H701 C727 0.950 . S
H702 C728 0.950 . S
H703 C730 0.950 . S
H704 C733 0.950 . S
H705 C734 0.950 . S
H706 C736 0.950 . S
H707 C737 0.950 . S
C708 H690 0.951 . S
C708 C709 1.366 . S
C708 C710 1.388 . S
C709 C708 1.366 . S
C709 C713 1.385 . S
C710 H691 0.951 . S
C710 C708 1.388 . S
C710 C711 1.366 . S
C711 C710 1.366 . S
C711 C712 1.414 . S
C711 C714 1.499 . S
C712 H692 0.950 . S
C712 C711 1.414 . S
C712 C713 1.374 . S
C713 H693 0.950 . S
C713 C709 1.385 . S
C713 C712 1.374 . S
C714 C711 1.499 . S
C714 C715 1.373 . S
C714 C716 1.389 . S
C715 H694 0.950 . S
C715 C714 1.373 . S
C715 C731 1.377 . S
C716 C714 1.389 . S
C716 C717 1.524 . S
C716 C730 1.377 . S
C717 C716 1.524 . S
C717 C718 1.397 . S
C717 C722 1.363 . S
C718 H695 0.950 . S
C718 C717 1.397 . S
C718 C719 1.334 . S
C719 H696 0.950 . S
C719 C718 1.334 . S
C719 C720 1.287 . S
C720 C719 1.287 . S
C720 C721 1.524 . S
C720 H739 0.913 . S
C721 H697 0.950 . S
C721 C720 1.524 . S
C721 C722 1.415 . S
C722 H698 0.950 . S
C722 C717 1.363 . S
C722 C721 1.415 . S
C723 H699 0.951 . S
C723 C724 1.366 . S
C723 C725 1.388 . S
C724 C723 1.366 . S
C724 C728 1.385 . S
C725 H700 0.951 . S
C725 C723 1.388 . S
C725 C726 1.366 . S
C726 C725 1.366 . S
C726 C727 1.414 . S
C726 C729 1.499 . S
C727 H701 0.950 . S
C727 C726 1.414 . S
C727 C728 1.374 . S
C728 H702 0.950 . S
C728 C724 1.385 . S
C728 C727 1.374 . S
C729 C726 1.499 . S
C729 C730 1.373 . S
C729 C731 1.389 . S
C730 H703 0.950 . S
C730 C716 1.377 . S
C730 C729 1.373 . S
C731 C715 1.377 . S
C731 C729 1.389 . S
C731 C732 1.524 . S
C732 C731 1.524 . S
C732 C733 1.397 . S
C732 C737 1.363 . S
C733 H704 0.950 . S
C733 C732 1.397 . S
C733 C734 1.334 . S
C734 H705 0.950 . S
C734 C733 1.334 . S
C734 C735 1.287 . S
C735 C734 1.287 . S
C735 C736 1.524 . S
C735 H738 0.999 . S
C736 H706 0.950 . S
C736 C735 1.524 . S
C736 C737 1.415 . S
C737 H707 0.950 . S
C737 C732 1.363 . S
C737 C736 1.415 . S
H738 C735 0.999 . S
H739 C720 0.913 . S
H740 C758 0.951 . S
H741 C760 0.951 . S
H742 C762 0.950 . S
H743 C763 0.950 . S
H744 C765 0.950 . S
H745 C768 0.950 . S
H746 C769 0.950 . S
H747 C771 0.950 . S
H748 C772 0.950 . S
H749 C773 0.951 . S
H750 C775 0.951 . S
H751 C777 0.950 . S
H752 C778 0.950 . S
H753 C780 0.950 . S
H754 C783 0.950 . S
H755 C784 0.950 . S
H756 C786 0.950 . S
H757 C787 0.950 . S
C758 H740 0.951 . S
C758 C759 1.366 . S
C758 C760 1.388 . S
C759 C758 1.366 . S
C759 C763 1.385 . S
C760 H741 0.951 . S
C760 C758 1.388 . S
C760 C761 1.366 . S
C761 C760 1.366 . S
C761 C762 1.414 . S
C761 C764 1.499 . S
C762 H742 0.950 . S
C762 C761 1.414 . S
C762 C763 1.374 . S
C763 H743 0.950 . S
C763 C759 1.385 . S
C763 C762 1.374 . S
C764 C761 1.499 . S
C764 C765 1.373 . S
C764 C766 1.389 . S
C765 H744 0.950 . S
C765 C764 1.373 . S
C765 C781 1.377 . S
C766 C764 1.389 . S
C766 C767 1.524 . S
C766 C780 1.377 . S
C767 C766 1.524 . S
C767 C768 1.397 . S
C767 C772 1.363 . S
C768 H745 0.950 . S
C768 C767 1.397 . S
C768 C769 1.334 . S
C769 H746 0.950 . S
C769 C768 1.334 . S
C769 C770 1.287 . S
C770 C769 1.287 . S
C770 C771 1.524 . S
C770 H789 0.913 . S
C771 H747 0.950 . S
C771 C770 1.524 . S
C771 C772 1.415 . S
C772 H748 0.950 . S
C772 C767 1.363 . S
C772 C771 1.415 . S
C773 H749 0.951 . S
C773 C774 1.366 . S
C773 C775 1.388 . S
C774 C773 1.366 . S
C774 C778 1.385 . S
C775 H750 0.951 . S
C775 C773 1.388 . S
C775 C776 1.366 . S
C776 C775 1.366 . S
C776 C777 1.414 . S
C776 C779 1.499 . S
C777 H751 0.950 . S
C777 C776 1.414 . S
C777 C778 1.374 . S
C778 H752 0.950 . S
C778 C774 1.385 . S
C778 C777 1.374 . S
C779 C776 1.499 . S
C779 C780 1.373 . S
C779 C781 1.389 . S
C780 H753 0.950 . S
C780 C766 1.377 . S
C780 C779 1.373 . S
C781 C765 1.377 . S
C781 C779 1.389 . S
C781 C782 1.524 . S
C782 C781 1.524 . S
C782 C783 1.397 . S
C782 C787 1.363 . S
C783 H754 0.950 . S
C783 C782 1.397 . S
C783 C784 1.334 . S
C784 H755 0.950 . S
C784 C783 1.334 . S
C784 C785 1.287 . S
C785 C784 1.287 . S
C785 C786 1.524 . S
C785 H788 0.999 . S
C786 H756 0.950 . S
C786 C785 1.524 . S
C786 C787 1.415 . S
C787 H757 0.950 . S
C787 C782 1.363 . S
C787 C786 1.415 . S
H788 C785 0.999 . S
H789 C770 0.913 . S
H790 C808 0.951 . S
H791 C810 0.951 . S
H792 C812 0.950 . S
H793 C813 0.950 . S
H794 C815 0.950 . S
H795 C818 0.950 . S
H796 C819 0.950 . S
H797 C821 0.950 . S
H798 C822 0.950 . S
H799 C823 0.951 . S
H800 C825 0.951 . S
H801 C827 0.950 . S
H802 C828 0.950 . S
H803 C830 0.950 . S
H804 C833 0.950 . S
H805 C834 0.950 . S
H806 C836 0.950 . S
H807 C837 0.950 . S
C808 H790 0.951 . S
C808 C809 1.360 1_655 S
C808 C810 1.388 . S
C809 C808 1.360 1_455 S
C809 C813 1.390 . S
C810 H791 0.951 . S
C810 C808 1.388 . S
C810 C811 1.364 1_655 S
C811 C810 1.364 1_455 S
C811 C812 1.415 . S
C811 C814 1.498 . S
C812 H792 0.950 . S
C812 C811 1.415 . S
C812 C813 1.374 . S
C813 H793 0.950 . S
C813 C809 1.390 . S
C813 C812 1.374 . S
C814 C811 1.498 . S
C814 C815 1.406 . S
C814 C816 1.358 1_455 S
C815 H794 0.950 . S
C815 C814 1.406 . S
C815 C831 1.377 . S
C816 C814 1.358 1_655 S
C816 C817 1.524 . S
C816 C830 1.377 . S
C817 C816 1.524 . S
C817 C818 1.397 . S
C817 C822 1.363 . S
C818 H795 0.950 . S
C818 C817 1.397 . S
C818 C819 1.334 . S
C819 H796 0.950 . S
C819 C818 1.334 . S
C819 C820 1.287 . S
C820 C819 1.287 . S
C820 C821 1.524 . S
C820 H839 0.913 . S
C821 H797 0.950 . S
C821 C820 1.524 . S
C821 C822 1.415 . S
C822 H798 0.950 . S
C822 C817 1.363 . S
C822 C821 1.415 . S
C823 H799 0.951 . S
C823 C824 1.407 . S
C823 C825 1.388 . S
C824 C823 1.407 . S
C824 C828 1.344 1_455 S
C825 H800 0.951 . S
C825 C823 1.388 . S
C825 C826 1.411 . S
C826 C825 1.411 . S
C826 C827 1.369 1_455 S
C826 C829 1.498 . S
C827 H801 0.950 . S
C827 C826 1.369 1_655 S
C827 C828 1.374 . S
C828 H802 0.950 . S
C828 C824 1.344 1_655 S
C828 C827 1.374 . S
C829 C826 1.498 . S
C829 C830 1.366 1_455 S
C829 C831 1.397 . S
C830 H803 0.950 . S
C830 C816 1.377 . S
C830 C829 1.366 1_655 S
C831 C815 1.377 . S
C831 C829 1.397 . S
C831 C832 1.524 . S
C832 C831 1.524 . S
C832 C833 1.397 . S
C832 C837 1.363 . S
C833 H804 0.950 . S
C833 C832 1.397 . S
C833 C834 1.334 . S
C834 H805 0.950 . S
C834 C833 1.334 . S
C834 C835 1.287 . S
C835 C834 1.287 . S
C835 C836 1.524 . S
C835 H838 0.999 . S
C836 H806 0.950 . S
C836 C835 1.524 . S
C836 C837 1.415 . S
C837 H807 0.950 . S
C837 C832 1.363 . S
C837 C836 1.415 . S
H838 C835 0.999 . S
H839 C820 0.913 . S
H840 C858 0.951 . S
H841 C860 0.951 . S
H842 C862 0.950 . S
H843 C863 0.950 . S
H844 C865 0.950 . S
H845 C868 0.950 . S
H846 C869 0.950 . S
H847 C871 0.950 . S
H848 C872 0.967 . S
H849 C873 0.951 . S
H850 C875 0.951 . S
H851 C877 0.950 . S
H852 C878 0.950 . S
H853 C880 0.950 . S
H854 C883 0.950 . S
H855 C884 0.950 . S
H856 C886 0.950 . S
H857 C887 0.950 . S
C858 H840 0.951 . S
C858 C859 1.368 1_565 S
C858 C860 1.388 . S
C859 C858 1.368 1_545 S
C859 C863 1.382 . S
C860 H841 0.951 . S
C860 C858 1.388 . S
C860 C861 1.387 . S
C861 C860 1.387 . S
C861 C862 1.392 1_565 S
C861 C864 1.498 . S
C862 H842 0.950 . S
C862 C861 1.392 1_545 S
C862 C863 1.374 . S
C863 H843 0.950 . S
C863 C859 1.382 . S
C863 C862 1.374 . S
C864 C861 1.498 . S
C864 C865 1.374 1_565 S
C864 C866 1.388 . S
C865 H844 0.950 . S
C865 C864 1.374 1_545 S
C865 C881 1.377 1_554 S
C866 C864 1.388 . S
C866 C867 1.524 . S
C866 C880 1.377 1_554 S
C867 C866 1.524 . S
C867 C868 1.397 . S
C867 C872 1.363 . S
C868 H845 0.950 . S
C868 C867 1.397 . S
C868 C869 1.334 . S
C869 H846 0.950 . S
C869 C868 1.334 . S
C869 C870 1.287 . S
C870 C869 1.287 . S
C870 C871 1.524 . S
C870 H889 0.913 . S
C871 H847 0.950 . S
C871 C870 1.524 . S
C871 C872 1.415 . S
C872 H848 0.967 . S
C872 C867 1.363 . S
C872 C871 1.415 . S
C873 H849 0.951 . S
C873 C874 1.342 1_545 S
C873 C875 1.388 . S
C874 C873 1.342 1_565 S
C874 C878 1.409 . S
C875 H850 0.951 . S
C875 C873 1.388 . S
C875 C876 1.360 . S
C876 C875 1.360 . S
C876 C877 1.419 1_545 S
C876 C879 1.498 1_545 S
C877 H851 0.950 . S
C877 C876 1.419 1_565 S
C877 C878 1.374 . S
C878 H852 0.950 . S
C878 C874 1.409 . S
C878 C877 1.374 . S
C879 C876 1.498 1_565 S
C879 C880 1.390 . S
C879 C881 1.373 1_565 S
C880 H853 0.950 . S
C880 C866 1.377 1_556 S
C880 C879 1.390 . S
C881 C865 1.377 1_556 S
C881 C879 1.373 1_545 S
C881 C882 1.524 . S
C882 C881 1.524 . S
C882 C883 1.397 . S
C882 C887 1.363 . S
C883 H854 0.950 . S
C883 C882 1.397 . S
C883 C884 1.334 . S
C884 H855 0.950 . S
C884 C883 1.334 . S
C884 C885 1.287 . S
C885 C884 1.287 . S
C885 C886 1.524 . S
C885 H888 0.999 . S
C886 H856 0.950 . S
C886 C885 1.524 . S
C886 C887 1.415 . S
C887 H857 0.950 . S
C887 C882 1.363 . S
C887 C886 1.415 . S
H888 C885 0.999 . S
H889 C870 0.913 . S
H890 C908 0.951 . S
H891 C910 0.951 . S
H892 C912 0.950 . S
H893 C913 0.950 . S
H894 C915 0.950 . S
H895 C918 0.950 1_554 S
H896 C919 0.950 1_554 S
H897 C921 0.950 . S
H898 C922 0.950 . S
H899 C923 0.951 . S
H900 C925 0.951 . S
H901 C927 0.950 . S
H902 C928 0.950 . S
H903 C930 0.950 . S
H904 C933 0.950 . S
H905 C934 0.950 . S
H906 C936 0.950 . S
H907 C937 0.950 . S
C908 H890 0.951 . S
C908 C909 1.366 . S
C908 C910 1.388 . S
C909 C908 1.366 . S
C909 C913 1.385 . S
C910 H891 0.951 . S
C910 C908 1.388 . S
C910 C911 1.366 . S
C911 C910 1.366 . S
C911 C912 1.414 . S
C911 C914 1.499 . S
C912 H892 0.950 . S
C912 C911 1.414 . S
C912 C913 1.374 . S
C913 H893 0.950 . S
C913 C909 1.385 . S
C913 C912 1.374 . S
C914 C911 1.499 . S
C914 C915 1.373 . S
C914 C916 1.389 1_554 S
C915 H894 0.950 . S
C915 C914 1.373 . S
C915 C931 1.377 1_554 S
C916 C914 1.389 1_556 S
C916 C917 1.524 . S
C916 C930 1.377 . S
C917 C916 1.524 . S
C917 C918 1.397 . S
C917 C922 1.363 . S
C918 H895 0.950 1_556 S
C918 C917 1.397 . S
C918 C919 1.334 . S
C919 H896 0.950 1_556 S
C919 C918 1.334 . S
C919 C920 1.287 . S
C920 C919 1.287 . S
C920 C921 1.524 . S
C920 H939 0.913 . S
C921 H897 0.950 . S
C921 C920 1.524 . S
C921 C922 1.415 . S
C922 H898 0.950 . S
C922 C917 1.363 . S
C922 C921 1.415 . S
C923 H899 0.951 . S
C923 C924 1.366 . S
C923 C925 1.388 . S
C924 C923 1.366 . S
C924 C928 1.385 . S
C925 H900 0.951 . S
C925 C923 1.388 . S
C925 C926 1.366 . S
C926 C925 1.366 . S
C926 C927 1.414 . S
C926 C929 1.499 . S
C927 H901 0.950 . S
C927 C926 1.414 . S
C927 C928 1.374 . S
C928 H902 0.950 . S
C928 C924 1.385 . S
C928 C927 1.374 . S
C929 C926 1.499 . S
C929 C930 1.373 . S
C929 C931 1.389 . S
C930 H903 0.950 . S
C930 C916 1.377 . S
C930 C929 1.373 . S
C931 C915 1.377 1_556 S
C931 C929 1.389 . S
C931 C932 1.524 1_556 S
C932 C931 1.524 1_554 S
C932 C933 1.397 1_554 S
C932 C937 1.363 . S
C933 H904 0.950 . S
C933 C932 1.397 1_556 S
C933 C934 1.334 . S
C934 H905 0.950 . S
C934 C933 1.334 . S
C934 C935 1.287 1_556 S
C935 C934 1.287 1_554 S
C935 C936 1.524 . S
C935 H938 0.999 . S
C936 H906 0.950 . S
C936 C935 1.524 . S
C936 C937 1.415 . S
C937 H907 0.950 . S
C937 C932 1.363 . S
C937 C936 1.415 . S
H938 C935 0.999 . S
H939 C920 0.913 . S
H940 C958 0.951 . S
H941 C960 0.951 . S
H942 C962 0.950 . S
H943 C963 0.950 . S
H944 C965 0.950 . S
H945 C968 0.950 . S
H946 C969 0.950 . S
H947 C971 0.950 . S
H948 C972 0.950 . S
H949 C973 0.951 . S
H950 C975 0.951 . S
H951 C977 0.950 . S
H952 C978 0.950 . S
H953 C980 0.950 . S
H954 C983 0.950 . S
H955 C984 0.950 . S
H956 C986 0.950 1_554 S
H957 C987 0.950 . S
C958 H940 0.951 . S
C958 C959 1.366 . S
C958 C960 1.388 . S
C959 C958 1.366 . S
C959 C963 1.385 . S
C960 H941 0.951 . S
C960 C958 1.388 . S
C960 C961 1.366 . S
C961 C960 1.366 . S
C961 C962 1.414 . S
C961 C964 1.499 . S
C962 H942 0.950 . S
C962 C961 1.414 . S
C962 C963 1.374 . S
C963 H943 0.950 . S
C963 C959 1.385 . S
C963 C962 1.374 . S
C964 C961 1.499 . S
C964 C965 1.373 . S
C964 C966 1.389 1_554 S
C965 H944 0.950 . S
C965 C964 1.373 . S
C965 C981 1.377 1_554 S
C966 C964 1.389 1_556 S
C966 C967 1.524 1_556 S
C966 C980 1.377 . S
C967 C966 1.524 1_554 S
C967 C968 1.397 . S
C967 C972 1.363 1_554 S
C968 H945 0.950 . S
C968 C967 1.397 . S
C968 C969 1.334 . S
C969 H946 0.950 . S
C969 C968 1.334 . S
C969 C970 1.287 . S
C970 C969 1.287 . S
C970 C971 1.524 1_554 S
C970 H989 0.913 . S
C971 H947 0.950 . S
C971 C970 1.524 1_556 S
C971 C972 1.415 . S
C972 H948 0.950 . S
C972 C967 1.363 1_556 S
C972 C971 1.415 . S
C973 H949 0.951 . S
C973 C974 1.366 . S
C973 C975 1.388 . S
C974 C973 1.366 . S
C974 C978 1.385 . S
C975 H950 0.951 . S
C975 C973 1.388 . S
C975 C976 1.366 . S
C976 C975 1.366 . S
C976 C977 1.414 . S
C976 C979 1.499 . S
C977 H951 0.950 . S
C977 C976 1.414 . S
C977 C978 1.374 . S
C978 H952 0.950 . S
C978 C974 1.385 . S
C978 C977 1.374 . S
C979 C976 1.499 . S
C979 C980 1.373 . S
C979 C981 1.389 . S
C980 H953 0.950 . S
C980 C966 1.377 . S
C980 C979 1.373 . S
C981 C965 1.377 1_556 S
C981 C979 1.389 . S
C981 C982 1.524 . S
C982 C981 1.524 . S
C982 C983 1.397 . S
C982 C987 1.363 1_556 S
C983 H954 0.950 . S
C983 C982 1.397 . S
C983 C984 1.334 . S
C984 H955 0.950 . S
C984 C983 1.334 . S
C984 C985 1.287 . S
C985 C984 1.287 . S
C985 C986 1.524 . S
C985 H988 0.999 . S
C986 H956 0.950 1_556 S
C986 C985 1.524 . S
C986 C987 1.415 1_556 S
C987 H957 0.950 . S
C987 C982 1.363 1_554 S
C987 C986 1.415 1_554 S
H988 C985 0.999 . S
H989 C970 0.913 . S
H990 C1008 0.951 . S
H991 C1010 0.951 . S
H992 C1012 0.950 . S
H993 C1013 0.950 . S
H994 C1015 0.950 . S
H995 C1018 0.950 . S
H996 C1019 0.950 . S
H997 C1021 0.950 . S
H998 C1022 0.950 1_655 S
H999 C1023 0.951 . S
H1000 C1025 0.951 . S
H1001 C1027 0.950 . S
H1002 C1028 0.950 . S
H1003 C1030 0.950 . S
H1004 C1033 0.950 . S
H1005 C1034 0.950 . S
H1006 C1036 0.950 . S
H1007 C1037 0.950 1_455 S
C1008 H990 0.951 . S
C1008 C1009 1.369 . S
C1008 C1010 1.388 . S
C1009 C1008 1.369 . S
C1009 C1013 1.381 1_655 S
C1010 H991 0.951 . S
C1010 C1008 1.388 . S
C1010 C1011 1.351 1_655 S
C1011 C1010 1.351 1_455 S
C1011 C1012 1.428 . S
C1011 C1014 1.498 . S
C1012 H992 0.950 . S
C1012 C1011 1.428 . S
C1012 C1013 1.374 . S
C1013 H993 0.950 . S
C1013 C1009 1.381 1_455 S
C1013 C1012 1.374 . S
C1014 C1011 1.498 . S
C1014 C1015 1.361 1_454 S
C1014 C1016 1.401 . S
C1015 H994 0.950 . S
C1015 C1014 1.361 1_656 S
C1015 C1031 1.377 . S
C1016 C1014 1.401 . S
C1016 C1017 1.524 . S
C1016 C1030 1.377 1_554 S
C1017 C1016 1.524 . S
C1017 C1018 1.397 . S
C1017 C1022 1.363 . S
C1018 H995 0.950 . S
C1018 C1017 1.397 . S
C1018 C1019 1.334 . S
C1019 H996 0.950 . S
C1019 C1018 1.334 . S
C1019 C1020 1.287 . S
C1020 C1019 1.287 . S
C1020 C1021 1.524 . S
C1020 H1039 0.913 . S
C1021 H997 0.950 . S
C1021 C1020 1.524 . S
C1021 C1022 1.415 . S
C1022 H998 0.950 1_455 S
C1022 C1017 1.363 . S
C1022 C1021 1.415 . S
C1023 H999 0.951 . S
C1023 C1024 1.344 1_455 S
C1023 C1025 1.388 . S
C1024 C1023 1.344 1_655 S
C1024 C1028 1.409 . S
C1025 H1000 0.951 . S
C1025 C1023 1.388 . S
C1025 C1026 1.366 1_455 S
C1026 C1025 1.366 1_655 S
C1026 C1027 1.414 . S
C1026 C1029 1.499 . S
C1027 H1001 0.950 . S
C1027 C1026 1.414 . S
C1027 C1028 1.374 . S
C1028 H1002 0.950 . S
C1028 C1024 1.409 . S
C1028 C1027 1.374 . S
C1029 C1026 1.499 . S
C1029 C1030 1.373 1_655 S
C1029 C1031 1.389 . S
C1030 H1003 0.950 . S
C1030 C1016 1.377 1_556 S
C1030 C1029 1.373 1_455 S
C1031 C1015 1.377 . S
C1031 C1029 1.389 . S
C1031 C1032 1.524 . S
C1032 C1031 1.524 . S
C1032 C1033 1.397 . S
C1032 C1037 1.363 . S
C1033 H1004 0.950 . S
C1033 C1032 1.397 . S
C1033 C1034 1.334 . S
C1034 H1005 0.950 . S
C1034 C1033 1.334 . S
C1034 C1035 1.287 . S
C1035 C1034 1.287 . S
C1035 C1036 1.524 . S
C1035 H1038 0.999 . S
C1036 H1006 0.950 . S
C1036 C1035 1.524 . S
C1036 C1037 1.415 . S
C1037 H1007 0.950 1_655 S
C1037 C1032 1.363 . S
C1037 C1036 1.415 . S
H1038 C1035 0.999 . S
H1039 C1020 0.913 . S
H1040 C1058 0.951 . S
H1041 C1060 0.951 . S
H1042 C1062 0.950 . S
H1043 C1063 0.950 . S
H1044 C1065 0.950 . S
H1045 C1068 0.950 . S
H1046 C1069 0.950 . S
H1047 C1071 0.950 . S
H1048 C1072 0.950 . S
H1049 C1073 0.951 . S
H1050 C1075 0.951 . S
H1051 C1077 0.950 . S
H1052 C1078 0.950 . S
H1053 C1080 0.950 . S
H1054 C1083 0.950 . S
H1055 C1084 0.950 . S
H1056 C1086 0.950 . S
H1057 C1087 0.950 . S
C1058 H1040 0.951 . S
C1058 C1059 1.366 . S
C1058 C1060 1.388 . S
C1059 C1058 1.366 . S
C1059 C1063 1.385 1_455 S
C1060 H1041 0.951 . S
C1060 C1058 1.388 . S
C1060 C1061 1.366 1_455 S
C1061 C1060 1.366 1_655 S
C1061 C1062 1.414 . S
C1061 C1064 1.499 . S
C1062 H1042 0.950 . S
C1062 C1061 1.414 . S
C1062 C1063 1.374 . S
C1063 H1043 0.950 . S
C1063 C1059 1.385 1_655 S
C1063 C1062 1.374 . S
C1064 C1061 1.499 . S
C1064 C1065 1.373 . S
C1064 C1066 1.389 1_655 S
C1065 H1044 0.950 . S
C1065 C1064 1.373 . S
C1065 C1081 1.377 . S
C1066 C1064 1.389 1_455 S
C1066 C1067 1.524 . S
C1066 C1080 1.377 . S
C1067 C1066 1.524 . S
C1067 C1068 1.397 . S
C1067 C1072 1.363 . S
C1068 H1045 0.950 . S
C1068 C1067 1.397 . S
C1068 C1069 1.334 . S
C1069 H1046 0.950 . S
C1069 C1068 1.334 . S
C1069 C1070 1.287 . S
C1070 C1069 1.287 . S
C1070 C1071 1.524 . S
C1070 H1089 0.913 . S
C1071 H1047 0.950 . S
C1071 C1070 1.524 . S
C1071 C1072 1.415 . S
C1072 H1048 0.950 . S
C1072 C1067 1.363 . S
C1072 C1071 1.415 . S
C1073 H1049 0.951 . S
C1073 C1074 1.366 . S
C1073 C1075 1.388 . S
C1074 C1073 1.366 . S
C1074 C1078 1.385 . S
C1075 H1050 0.951 . S
C1075 C1073 1.388 . S
C1075 C1076 1.366 . S
C1076 C1075 1.366 . S
C1076 C1077 1.414 . S
C1076 C1079 1.499 . S
C1077 H1051 0.950 . S
C1077 C1076 1.414 . S
C1077 C1078 1.374 . S
C1078 H1052 0.950 . S
C1078 C1074 1.385 . S
C1078 C1077 1.374 . S
C1079 C1076 1.499 . S
C1079 C1080 1.373 1_655 S
C1079 C1081 1.389 . S
C1080 H1053 0.950 . S
C1080 C1066 1.377 . S
C1080 C1079 1.373 1_455 S
C1081 C1065 1.377 . S
C1081 C1079 1.389 . S
C1081 C1082 1.524 . S
C1082 C1081 1.524 . S
C1082 C1083 1.397 . S
C1082 C1087 1.363 . S
C1083 H1054 0.950 . S
C1083 C1082 1.397 . S
C1083 C1084 1.334 . S
C1084 H1055 0.950 . S
C1084 C1083 1.334 . S
C1084 C1085 1.287 . S
C1085 C1084 1.287 . S
C1085 C1086 1.524 . S
C1085 H1088 0.999 . S
C1086 H1056 0.950 . S
C1086 C1085 1.524 . S
C1086 C1087 1.415 . S
C1087 H1057 0.950 . S
C1087 C1082 1.363 . S
C1087 C1086 1.415 . S
H1088 C1085 0.999 . S
H1089 C1070 0.913 . S
H1090 C1108 0.951 . S
H1091 C1110 0.951 . S
H1092 C1112 0.950 . S
H1093 C1113 0.950 . S
H1094 C1115 0.950 . S
H1095 C1118 0.950 . S
H1096 C1119 0.950 . S
H1097 C1121 0.950 . S
H1098 C1122 0.950 . S
H1099 C1123 0.951 . S
H1100 C1125 0.951 . S
H1101 C1127 0.950 . S
H1102 C1128 0.950 . S
H1103 C1130 0.950 . S
H1104 C1133 0.950 . S
H1105 C1134 0.950 . S
H1106 C1136 0.950 . S
H1107 C1137 0.950 . S
C1108 H1090 0.951 . S
C1108 C1109 1.366 . S
C1108 C1110 1.388 . S
C1109 C1108 1.366 . S
C1109 C1113 1.385 1_545 S
C1110 H1091 0.951 . S
C1110 C1108 1.388 . S
C1110 C1111 1.366 1_545 S
C1111 C1110 1.366 1_565 S
C1111 C1112 1.414 . S
C1111 C1114 1.499 . S
C1112 H1092 0.950 . S
C1112 C1111 1.414 . S
C1112 C1113 1.374 . S
C1113 H1093 0.950 . S
C1113 C1109 1.385 1_565 S
C1113 C1112 1.374 . S
C1114 C1111 1.499 . S
C1114 C1115 1.373 . S
C1114 C1116 1.389 1_565 S
C1115 H1094 0.950 . S
C1115 C1114 1.373 . S
C1115 C1131 1.377 . S
C1116 C1114 1.389 1_545 S
C1116 C1117 1.524 . S
C1116 C1130 1.377 . S
C1117 C1116 1.524 . S
C1117 C1118 1.397 . S
C1117 C1122 1.363 . S
C1118 H1095 0.950 . S
C1118 C1117 1.397 . S
C1118 C1119 1.334 . S
C1119 H1096 0.950 . S
C1119 C1118 1.334 . S
C1119 C1120 1.287 . S
C1120 C1119 1.287 . S
C1120 C1121 1.524 . S
C1120 H1139 0.913 . S
C1121 H1097 0.950 . S
C1121 C1120 1.524 . S
C1121 C1122 1.415 . S
C1122 H1098 0.950 . S
C1122 C1117 1.363 . S
C1122 C1121 1.415 . S
C1123 H1099 0.951 . S
C1123 C1124 1.366 . S
C1123 C1125 1.388 . S
C1124 C1123 1.366 . S
C1124 C1128 1.385 . S
C1125 H1100 0.951 . S
C1125 C1123 1.388 . S
C1125 C1126 1.366 . S
C1126 C1125 1.366 . S
C1126 C1127 1.414 . S
C1126 C1129 1.499 . S
C1127 H1101 0.950 . S
C1127 C1126 1.414 . S
C1127 C1128 1.374 . S
C1128 H1102 0.950 . S
C1128 C1124 1.385 . S
C1128 C1127 1.374 . S
C1129 C1126 1.499 . S
C1129 C1130 1.373 1_565 S
C1129 C1131 1.389 . S
C1130 H1103 0.950 . S
C1130 C1116 1.377 . S
C1130 C1129 1.373 1_545 S
C1131 C1115 1.377 . S
C1131 C1129 1.389 . S
C1131 C1132 1.524 . S
C1132 C1131 1.524 . S
C1132 C1133 1.397 . S
C1132 C1137 1.363 . S
C1133 H1104 0.950 . S
C1133 C1132 1.397 . S
C1133 C1134 1.334 . S
C1134 H1105 0.950 . S
C1134 C1133 1.334 . S
C1134 C1135 1.287 . S
C1135 C1134 1.287 . S
C1135 C1136 1.524 . S
C1135 H1138 0.999 . S
C1136 H1106 0.950 . S
C1136 C1135 1.524 . S
C1136 C1137 1.415 . S
C1137 H1107 0.950 . S
C1137 C1132 1.363 . S
C1137 C1136 1.415 . S
H1138 C1135 0.999 . S
H1139 C1120 0.913 . S
H1140 C1158 0.951 . S
H1141 C1160 0.951 . S
H1142 C1162 0.950 . S
H1143 C1163 0.950 . S
H1144 C1165 0.950 . S
H1145 C1168 0.950 . S
H1146 C1169 0.950 . S
H1147 C1171 0.950 . S
H1148 C1172 0.950 . S
H1149 C1173 0.951 . S
H1150 C1175 0.951 . S
H1151 C1177 0.950 . S
H1152 C1178 0.950 . S
H1153 C1180 0.950 . S
H1154 C1183 0.950 . S
H1155 C1184 0.950 . S
H1156 C1186 0.950 . S
H1157 C1187 0.950 . S
C1158 H1140 0.951 . S
C1158 C1159 1.366 . S
C1158 C1160 1.388 . S
C1159 C1158 1.366 . S
C1159 C1163 1.385 . S
C1160 H1141 0.951 . S
C1160 C1158 1.388 . S
C1160 C1161 1.366 . S
C1161 C1160 1.366 . S
C1161 C1162 1.414 . S
C1161 C1164 1.499 . S
C1162 H1142 0.950 . S
C1162 C1161 1.414 . S
C1162 C1163 1.374 . S
C1163 H1143 0.950 . S
C1163 C1159 1.385 . S
C1163 C1162 1.374 . S
C1164 C1161 1.499 . S
C1164 C1165 1.373 . S
C1164 C1166 1.389 . S
C1165 H1144 0.950 . S
C1165 C1164 1.373 . S
C1165 C1181 1.377 . S
C1166 C1164 1.389 . S
C1166 C1167 1.524 . S
C1166 C1180 1.377 . S
C1167 C1166 1.524 . S
C1167 C1168 1.397 . S
C1167 C1172 1.363 . S
C1168 H1145 0.950 . S
C1168 C1167 1.397 . S
C1168 C1169 1.334 . S
C1169 H1146 0.950 . S
C1169 C1168 1.334 . S
C1169 C1170 1.287 . S
C1170 C1169 1.287 . S
C1170 C1171 1.524 . S
C1170 H1189 0.913 . S
C1171 H1147 0.950 . S
C1171 C1170 1.524 . S
C1171 C1172 1.415 . S
C1172 H1148 0.950 . S
C1172 C1167 1.363 . S
C1172 C1171 1.415 . S
C1173 H1149 0.951 . S
C1173 C1174 1.366 . S
C1173 C1175 1.388 . S
C1174 C1173 1.366 . S
C1174 C1178 1.385 . S
C1175 H1150 0.951 . S
C1175 C1173 1.388 . S
C1175 C1176 1.366 . S
C1176 C1175 1.366 . S
C1176 C1177 1.414 . S
C1176 C1179 1.499 . S
C1177 H1151 0.950 . S
C1177 C1176 1.414 . S
C1177 C1178 1.374 . S
C1178 H1152 0.950 . S
C1178 C1174 1.385 . S
C1178 C1177 1.374 . S
C1179 C1176 1.499 . S
C1179 C1180 1.373 . S
C1179 C1181 1.389 . S
C1180 H1153 0.950 . S
C1180 C1166 1.377 . S
C1180 C1179 1.373 . S
C1181 C1165 1.377 . S
C1181 C1179 1.389 . S
C1181 C1182 1.524 . S
C1182 C1181 1.524 . S
C1182 C1183 1.397 . S
C1182 C1187 1.363 . S
C1183 H1154 0.950 . S
C1183 C1182 1.397 . S
C1183 C1184 1.334 . S
C1184 H1155 0.950 . S
C1184 C1183 1.334 . S
C1184 C1185 1.287 . S
C1185 C1184 1.287 . S
C1185 C1186 1.524 . S
C1185 H1188 0.999 . S
C1186 H1156 0.950 . S
C1186 C1185 1.524 . S
C1186 C1187 1.415 . S
C1187 H1157 0.950 . S
C1187 C1182 1.363 . S
C1187 C1186 1.415 . S
H1188 C1185 0.999 . S
H1189 C1170 0.913 . S
H1190 C1208 0.951 . S
H1191 C1210 0.951 . S
H1192 C1212 0.950 . S
H1193 C1213 0.950 . S
H1194 C1215 0.950 . S
H1195 C1218 0.950 . S
H1196 C1219 0.950 . S
H1197 C1221 0.950 . S
H1198 C1222 0.950 . S
H1199 C1223 0.951 . S
H1200 C1225 0.951 . S
H1201 C1227 0.950 . S
H1202 C1228 0.950 . S
H1203 C1230 0.950 . S
H1204 C1233 0.950 . S
H1205 C1234 0.950 . S
H1206 C1236 0.950 . S
H1207 C1237 0.950 . S
C1208 H1190 0.951 . S
C1208 C1209 1.366 . S
C1208 C1210 1.388 . S
C1209 C1208 1.366 . S
C1209 C1213 1.385 . S
C1210 H1191 0.951 . S
C1210 C1208 1.388 . S
C1210 C1211 1.366 . S
C1211 C1210 1.366 . S
C1211 C1212 1.414 . S
C1211 C1214 1.499 . S
C1212 H1192 0.950 . S
C1212 C1211 1.414 . S
C1212 C1213 1.374 . S
C1213 H1193 0.950 . S
C1213 C1209 1.385 . S
C1213 C1212 1.374 . S
C1214 C1211 1.499 . S
C1214 C1215 1.373 . S
C1214 C1216 1.389 . S
C1215 H1194 0.950 . S
C1215 C1214 1.373 . S
C1215 C1231 1.377 . S
C1216 C1214 1.389 . S
C1216 C1217 1.524 . S
C1216 C1230 1.377 . S
C1217 C1216 1.524 . S
C1217 C1218 1.397 . S
C1217 C1222 1.363 . S
C1218 H1195 0.950 . S
C1218 C1217 1.397 . S
C1218 C1219 1.334 . S
C1219 H1196 0.950 . S
C1219 C1218 1.334 . S
C1219 C1220 1.287 . S
C1220 C1219 1.287 . S
C1220 C1221 1.524 . S
C1220 H1239 0.913 . S
C1221 H1197 0.950 . S
C1221 C1220 1.524 . S
C1221 C1222 1.415 . S
C1222 H1198 0.950 . S
C1222 C1217 1.363 . S
C1222 C1221 1.415 . S
C1223 H1199 0.951 . S
C1223 C1224 1.366 . S
C1223 C1225 1.388 . S
C1224 C1223 1.366 . S
C1224 C1228 1.385 . S
C1225 H1200 0.951 . S
C1225 C1223 1.388 . S
C1225 C1226 1.366 . S
C1226 C1225 1.366 . S
C1226 C1227 1.414 . S
C1226 C1229 1.499 . S
C1227 H1201 0.950 . S
C1227 C1226 1.414 . S
C1227 C1228 1.374 . S
C1228 H1202 0.950 . S
C1228 C1224 1.385 . S
C1228 C1227 1.374 . S
C1229 C1226 1.499 . S
C1229 C1230 1.373 . S
C1229 C1231 1.389 . S
C1230 H1203 0.950 . S
C1230 C1216 1.377 . S
C1230 C1229 1.373 . S
C1231 C1215 1.377 . S
C1231 C1229 1.389 . S
C1231 C1232 1.524 . S
C1232 C1231 1.524 . S
C1232 C1233 1.397 . S
C1232 C1237 1.363 . S
C1233 H1204 0.950 . S
C1233 C1232 1.397 . S
C1233 C1234 1.334 . S
C1234 H1205 0.950 . S
C1234 C1233 1.334 . S
C1234 C1235 1.287 . S
C1235 C1234 1.287 . S
C1235 C1236 1.524 . S
C1235 H1238 0.999 . S
C1236 H1206 0.950 . S
C1236 C1235 1.524 . S
C1236 C1237 1.415 . S
C1237 H1207 0.950 . S
C1237 C1232 1.363 . S
C1237 C1236 1.415 . S
H1238 C1235 0.999 . S
H1239 C1220 0.913 . S
H1240 C1258 0.951 . S
H1241 C1260 0.951 . S
H1242 C1262 0.950 . S
H1243 C1263 0.950 . S
H1244 C1265 0.950 . S
H1245 C1268 0.950 . S
H1246 C1269 0.950 . S
H1247 C1271 0.950 . S
H1248 C1272 0.950 . S
H1249 C1273 0.951 . S
H1250 C1275 0.951 . S
H1251 C1277 0.950 1_655 S
H1252 C1278 0.950 1_655 S
H1253 C1280 0.950 . S
H1254 C1283 0.950 . S
H1255 C1284 0.950 . S
H1256 C1286 0.950 . S
H1257 C1287 0.950 . S
C1258 H1240 0.951 . S
C1258 C1259 1.366 . S
C1258 C1260 1.388 . S
C1259 C1258 1.366 . S
C1259 C1263 1.385 1_655 S
C1260 H1241 0.951 . S
C1260 C1258 1.388 . S
C1260 C1261 1.366 1_655 S
C1261 C1260 1.366 1_455 S
C1261 C1262 1.414 . S
C1261 C1264 1.499 . S
C1262 H1242 0.950 . S
C1262 C1261 1.414 . S
C1262 C1263 1.374 . S
C1263 H1243 0.950 . S
C1263 C1259 1.385 1_455 S
C1263 C1262 1.374 . S
C1264 C1261 1.499 . S
C1264 C1265 1.373 . S
C1264 C1266 1.389 1_454 S
C1265 H1244 0.950 . S
C1265 C1264 1.373 . S
C1265 C1281 1.377 1_554 S
C1266 C1264 1.389 1_656 S
C1266 C1267 1.524 . S
C1266 C1280 1.377 . S
C1267 C1266 1.524 . S
C1267 C1268 1.397 . S
C1267 C1272 1.363 . S
C1268 H1245 0.950 . S
C1268 C1267 1.397 . S
C1268 C1269 1.334 . S
C1269 H1246 0.950 . S
C1269 C1268 1.334 . S
C1269 C1270 1.287 . S
C1270 C1269 1.287 . S
C1270 C1271 1.524 . S
C1270 H1289 0.913 . S
C1271 H1247 0.950 . S
C1271 C1270 1.524 . S
C1271 C1272 1.415 . S
C1272 H1248 0.950 . S
C1272 C1267 1.363 . S
C1272 C1271 1.415 . S
C1273 H1249 0.951 . S
C1273 C1274 1.366 . S
C1273 C1275 1.388 . S
C1274 C1273 1.366 . S
C1274 C1278 1.385 . S
C1275 H1250 0.951 . S
C1275 C1273 1.388 . S
C1275 C1276 1.366 . S
C1276 C1275 1.366 . S
C1276 C1277 1.414 . S
C1276 C1279 1.499 . S
C1277 H1251 0.950 1_455 S
C1277 C1276 1.414 . S
C1277 C1278 1.374 . S
C1278 H1252 0.950 1_455 S
C1278 C1274 1.385 . S
C1278 C1277 1.374 . S
C1279 C1276 1.499 . S
C1279 C1280 1.373 1_455 S
C1279 C1281 1.389 . S
C1280 H1253 0.950 . S
C1280 C1266 1.377 . S
C1280 C1279 1.373 1_655 S
C1281 C1265 1.377 1_556 S
C1281 C1279 1.389 . S
C1281 C1282 1.524 1_556 S
C1282 C1281 1.524 1_554 S
C1282 C1283 1.397 . S
C1282 C1287 1.363 . S
C1283 H1254 0.950 . S
C1283 C1282 1.397 . S
C1283 C1284 1.334 . S
C1284 H1255 0.950 . S
C1284 C1283 1.334 . S
C1284 C1285 1.287 . S
C1285 C1284 1.287 . S
C1285 C1286 1.524 . S
C1285 H1288 0.999 . S
C1286 H1256 0.950 . S
C1286 C1285 1.524 . S
C1286 C1287 1.415 . S
C1287 H1257 0.950 . S
C1287 C1282 1.363 . S
C1287 C1286 1.415 . S
H1288 C1285 0.999 . S
H1289 C1270 0.913 . S
H1290 C1308 0.951 . S
H1291 C1310 0.951 1_556 S
H1292 C1312 0.962 . S
H1293 C1313 0.950 . S
H1294 C1315 0.950 . S
H1295 C1318 0.950 . S
H1296 C1319 0.950 . S
H1297 C1321 0.950 . S
H1298 C1322 0.950 . S
H1299 C1323 0.951 . S
H1300 C1325 0.951 . S
H1301 C1327 0.950 . S
H1302 C1328 0.950 . S
H1303 C1330 0.950 . S
H1304 C1333 0.950 . S
H1305 C1334 0.950 . S
H1306 C1336 0.950 . S
H1307 C1337 0.950 . S
C1308 H1290 0.951 . S
C1308 C1309 1.366 1_545 S
C1308 C1310 1.388 . S
C1309 C1308 1.366 1_565 S
C1309 C1313 1.385 . S
C1310 H1291 0.951 1_554 S
C1310 C1308 1.388 . S
C1310 C1311 1.366 . S
C1311 C1310 1.366 . S
C1311 C1312 1.395 1_545 S
C1311 C1314 1.499 . S
C1312 H1292 0.962 . S
C1312 C1311 1.395 1_565 S
C1312 C1313 1.385 . S
C1313 H1293 0.950 . S
C1313 C1309 1.385 . S
C1313 C1312 1.385 . S
C1314 C1311 1.499 . S
C1314 C1315 1.373 1_545 S
C1314 C1316 1.389 1_554 S
C1315 H1294 0.950 . S
C1315 C1314 1.373 1_565 S
C1315 C1331 1.377 1_554 S
C1316 C1314 1.389 1_556 S
C1316 C1317 1.524 . S
C1316 C1330 1.377 . S
C1317 C1316 1.524 . S
C1317 C1318 1.397 1_556 S
C1317 C1322 1.363 . S
C1318 H1295 0.950 . S
C1318 C1317 1.397 1_554 S
C1318 C1319 1.334 . S
C1319 H1296 0.950 . S
C1319 C1318 1.334 . S
C1319 C1320 1.287 . S
C1320 C1319 1.287 . S
C1320 C1321 1.524 1_554 S
C1320 H1339 0.913 . S
C1321 H1297 0.950 . S
C1321 C1320 1.524 1_556 S
C1321 C1322 1.415 . S
C1322 H1298 0.950 . S
C1322 C1317 1.363 . S
C1322 C1321 1.415 . S
C1323 H1299 0.951 . S
C1323 C1324 1.366 . S
C1323 C1325 1.388 . S
C1324 C1323 1.366 . S
C1324 C1328 1.385 . S
C1325 H1300 0.951 . S
C1325 C1323 1.388 . S
C1325 C1326 1.366 . S
C1326 C1325 1.366 . S
C1326 C1327 1.414 . S
C1326 C1329 1.499 . S
C1327 H1301 0.950 . S
C1327 C1326 1.414 . S
C1327 C1328 1.374 . S
C1328 H1302 0.950 . S
C1328 C1324 1.385 . S
C1328 C1327 1.374 . S
C1329 C1326 1.499 . S
C1329 C1330 1.373 . S
C1329 C1331 1.389 1_545 S
C1330 H1303 0.950 . S
C1330 C1316 1.377 . S
C1330 C1329 1.373 . S
C1331 C1315 1.377 1_556 S
C1331 C1329 1.389 1_565 S
C1331 C1332 1.524 . S
C1332 C1331 1.524 . S
C1332 C1333 1.397 . S
C1332 C1337 1.363 1_556 S
C1333 H1304 0.950 . S
C1333 C1332 1.397 . S
C1333 C1334 1.334 . S
C1334 H1305 0.950 . S
C1334 C1333 1.334 . S
C1334 C1335 1.287 . S
C1335 C1334 1.287 . S
C1335 C1336 1.524 1_556 S
C1335 H1338 0.999 . S
C1336 H1306 0.950 . S
C1336 C1335 1.524 1_554 S
C1336 C1337 1.415 . S
C1337 H1307 0.950 . S
C1337 C1332 1.363 1_554 S
C1337 C1336 1.415 . S
H1338 C1335 0.999 . S
H1339 C1320 0.913 . S
H1340 C1358 0.951 . S
H1341 C1360 0.951 . S
H1342 C1362 0.950 . S
H1343 C1363 0.950 . S
H1344 C1365 0.950 . S
H1345 C1368 0.950 . S
H1346 C1369 0.950 . S
H1347 C1371 0.950 . S
H1348 C1372 0.950 . S
H1349 C1373 0.951 . S
H1350 C1375 0.951 . S
H1351 C1377 0.950 . S
H1352 C1378 0.950 . S
H1353 C1380 0.950 . S
H1354 C1383 0.950 . S
H1355 C1384 0.950 . S
H1356 C1386 0.950 . S
H1357 C1387 0.950 . S
C1358 H1340 0.951 . S
C1358 C1359 1.366 . S
C1358 C1360 1.388 . S
C1359 C1358 1.366 . S
C1359 C1363 1.385 . S
C1360 H1341 0.951 . S
C1360 C1358 1.388 . S
C1360 C1361 1.366 . S
C1361 C1360 1.366 . S
C1361 C1362 1.414 . S
C1361 C1364 1.499 . S
C1362 H1342 0.950 . S
C1362 C1361 1.414 . S
C1362 C1363 1.374 . S
C1363 H1343 0.950 . S
C1363 C1359 1.385 . S
C1363 C1362 1.374 . S
C1364 C1361 1.499 . S
C1364 C1365 1.373 . S
C1364 C1366 1.389 1_554 S
C1365 H1344 0.950 . S
C1365 C1364 1.373 . S
C1365 C1381 1.377 . S
C1366 C1364 1.389 1_556 S
C1366 C1367 1.524 . S
C1366 C1380 1.377 . S
C1367 C1366 1.524 . S
C1367 C1368 1.397 . S
C1367 C1372 1.363 . S
C1368 H1345 0.950 . S
C1368 C1367 1.397 . S
C1368 C1369 1.334 . S
C1369 H1346 0.950 . S
C1369 C1368 1.334 . S
C1369 C1370 1.287 . S
C1370 C1369 1.287 . S
C1370 C1371 1.524 . S
C1370 H1389 0.913 . S
C1371 H1347 0.950 . S
C1371 C1370 1.524 . S
C1371 C1372 1.415 . S
C1372 H1348 0.950 . S
C1372 C1367 1.363 . S
C1372 C1371 1.415 . S
C1373 H1349 0.951 . S
C1373 C1374 1.366 . S
C1373 C1375 1.388 . S
C1374 C1373 1.366 . S
C1374 C1378 1.385 . S
C1375 H1350 0.951 . S
C1375 C1373 1.388 . S
C1375 C1376 1.366 . S
C1376 C1375 1.366 . S
C1376 C1377 1.414 . S
C1376 C1379 1.499 . S
C1377 H1351 0.950 . S
C1377 C1376 1.414 . S
C1377 C1378 1.374 . S
C1378 H1352 0.950 . S
C1378 C1374 1.385 . S
C1378 C1377 1.374 . S
C1379 C1376 1.499 . S
C1379 C1380 1.373 . S
C1379 C1381 1.389 1_556 S
C1380 H1353 0.950 . S
C1380 C1366 1.377 . S
C1380 C1379 1.373 . S
C1381 C1365 1.377 . S
C1381 C1379 1.389 1_554 S
C1381 C1382 1.524 . S
C1382 C1381 1.524 . S
C1382 C1383 1.397 . S
C1382 C1387 1.363 . S
C1383 H1354 0.950 . S
C1383 C1382 1.397 . S
C1383 C1384 1.334 . S
C1384 H1355 0.950 . S
C1384 C1383 1.334 . S
C1384 C1385 1.287 . S
C1385 C1384 1.287 . S
C1385 C1386 1.524 . S
C1385 H1388 0.999 . S
C1386 H1356 0.950 . S
C1386 C1385 1.524 . S
C1386 C1387 1.415 . S
C1387 H1357 0.950 . S
C1387 C1382 1.363 . S
C1387 C1386 1.415 . S
H1388 C1385 0.999 . S
H1389 C1370 0.913 . S
H1390 C1408 0.951 . S
H1391 C1410 0.951 . S
H1392 C1412 0.950 . S
H1393 C1413 0.950 . S
H1394 C1415 0.950 . S
H1395 C1418 0.950 . S
H1396 C1419 0.950 . S
H1397 C1421 0.950 . S
H1398 C1422 0.950 . S
H1399 C1423 0.951 . S
H1400 C1425 0.951 . S
H1401 C1427 0.950 . S
H1402 C1428 0.950 . S
H1403 C1430 0.950 . S
H1404 C1433 0.950 . S
H1405 C1434 0.950 . S
H1406 C1436 0.950 . S
H1407 C1437 0.950 . S
C1408 H1390 0.951 . S
C1408 C1409 1.366 . S
C1408 C1410 1.388 . S
C1409 C1408 1.366 . S
C1409 C1413 1.385 . S
C1410 H1391 0.951 . S
C1410 C1408 1.388 . S
C1410 C1411 1.366 . S
C1411 C1410 1.366 . S
C1411 C1412 1.414 . S
C1411 C1414 1.499 . S
C1412 H1392 0.950 . S
C1412 C1411 1.414 . S
C1412 C1413 1.374 . S
C1413 H1393 0.950 . S
C1413 C1409 1.385 . S
C1413 C1412 1.374 . S
C1414 C1411 1.499 . S
C1414 C1415 1.373 . S
C1414 C1416 1.389 1_554 S
C1415 H1394 0.950 . S
C1415 C1414 1.373 . S
C1415 C1431 1.377 . S
C1416 C1414 1.389 1_556 S
C1416 C1417 1.524 . S
C1416 C1430 1.377 . S
C1417 C1416 1.524 . S
C1417 C1418 1.397 . S
C1417 C1422 1.363 . S
C1418 H1395 0.950 . S
C1418 C1417 1.397 . S
C1418 C1419 1.334 . S
C1419 H1396 0.950 . S
C1419 C1418 1.334 . S
C1419 C1420 1.287 . S
C1420 C1419 1.287 . S
C1420 C1421 1.524 . S
C1420 H1439 0.913 . S
C1421 H1397 0.950 . S
C1421 C1420 1.524 . S
C1421 C1422 1.415 . S
C1422 H1398 0.950 . S
C1422 C1417 1.363 . S
C1422 C1421 1.415 . S
C1423 H1399 0.951 . S
C1423 C1424 1.366 . S
C1423 C1425 1.388 . S
C1424 C1423 1.366 . S
C1424 C1428 1.385 . S
C1425 H1400 0.951 . S
C1425 C1423 1.388 . S
C1425 C1426 1.366 . S
C1426 C1425 1.366 . S
C1426 C1427 1.414 . S
C1426 C1429 1.499 . S
C1427 H1401 0.950 . S
C1427 C1426 1.414 . S
C1427 C1428 1.374 . S
C1428 H1402 0.950 . S
C1428 C1424 1.385 . S
C1428 C1427 1.374 . S
C1429 C1426 1.499 . S
C1429 C1430 1.373 . S
C1429 C1431 1.389 1_556 S
C1430 H1403 0.950 . S
C1430 C1416 1.377 . S
C1430 C1429 1.373 . S
C1431 C1415 1.377 . S
C1431 C1429 1.389 1_554 S
C1431 C1432 1.524 . S
C1432 C1431 1.524 . S
C1432 C1433 1.397 . S
C1432 C1437 1.363 . S
C1433 H1404 0.950 . S
C1433 C1432 1.397 . S
C1433 C1434 1.334 . S
C1434 H1405 0.950 . S
C1434 C1433 1.334 . S
C1434 C1435 1.287 . S
C1435 C1434 1.287 . S
C1435 C1436 1.524 . S
C1435 H1438 0.999 . S
C1436 H1406 0.950 . S
C1436 C1435 1.524 . S
C1436 C1437 1.415 . S
C1437 H1407 0.950 . S
C1437 C1432 1.363 . S
C1437 C1436 1.415 . S
H1438 C1435 0.999 . S
H1439 C1420 0.913 . S
H1440 C1458 0.951 . S
H1441 C1460 0.951 . S
H1442 C1462 0.950 . S
H1443 C1463 0.947 1_655 S
H1444 C1465 0.950 . S
H1445 C1468 0.950 . S
H1446 C1469 0.950 . S
H1447 C1471 0.950 . S
H1448 C1472 0.950 . S
H1449 C1473 0.951 . S
H1450 C1475 0.951 . S
H1451 C1477 0.950 . S
H1452 C1478 0.950 . S
H1453 C1480 0.950 . S
H1454 C1483 0.950 . S
H1455 C1484 0.950 . S
H1456 C1486 0.950 . S
H1457 C1487 0.950 . S
C1458 H1440 0.951 . S
C1458 C1459 1.366 . S
C1458 C1460 1.388 . S
C1459 C1458 1.366 . S
C1459 C1463 1.384 . S
C1460 H1441 0.951 . S
C1460 C1458 1.388 . S
C1460 C1461 1.366 . S
C1461 C1460 1.366 . S
C1461 C1462 1.416 . S
C1461 C1464 1.499 . S
C1462 H1442 0.950 . S
C1462 C1461 1.416 . S
C1462 C1463 1.373 . S
C1463 H1443 0.947 1_455 S
C1463 C1459 1.384 . S
C1463 C1462 1.373 . S
C1464 C1461 1.499 . S
C1464 C1465 1.373 . S
C1464 C1466 1.389 1_455 S
C1465 H1444 0.950 . S
C1465 C1464 1.373 . S
C1465 C1481 1.377 . S
C1466 C1464 1.389 1_655 S
C1466 C1467 1.524 . S
C1466 C1480 1.377 . S
C1467 C1466 1.524 . S
C1467 C1468 1.397 . S
C1467 C1472 1.363 . S
C1468 H1445 0.950 . S
C1468 C1467 1.397 . S
C1468 C1469 1.334 . S
C1469 H1446 0.950 . S
C1469 C1468 1.334 . S
C1469 C1470 1.287 . S
C1470 C1469 1.287 . S
C1470 C1471 1.524 . S
C1470 H1489 0.913 . S
C1471 H1447 0.950 . S
C1471 C1470 1.524 . S
C1471 C1472 1.415 . S
C1472 H1448 0.950 . S
C1472 C1467 1.363 . S
C1472 C1471 1.415 . S
C1473 H1449 0.951 . S
C1473 C1474 1.366 . S
C1473 C1475 1.388 . S
C1474 C1473 1.366 . S
C1474 C1478 1.385 . S
C1475 H1450 0.951 . S
C1475 C1473 1.388 . S
C1475 C1476 1.366 . S
C1476 C1475 1.366 . S
C1476 C1477 1.414 . S
C1476 C1479 1.499 . S
C1477 H1451 0.950 . S
C1477 C1476 1.414 . S
C1477 C1478 1.374 . S
C1478 H1452 0.950 . S
C1478 C1474 1.385 . S
C1478 C1477 1.374 . S
C1479 C1476 1.499 . S
C1479 C1480 1.373 1_455 S
C1479 C1481 1.389 . S
C1480 H1453 0.950 . S
C1480 C1466 1.377 . S
C1480 C1479 1.373 1_655 S
C1481 C1465 1.377 . S
C1481 C1479 1.389 . S
C1481 C1482 1.524 . S
C1482 C1481 1.524 . S
C1482 C1483 1.397 . S
C1482 C1487 1.363 . S
C1483 H1454 0.950 . S
C1483 C1482 1.397 . S
C1483 C1484 1.334 . S
C1484 H1455 0.950 . S
C1484 C1483 1.334 . S
C1484 C1485 1.287 . S
C1485 C1484 1.287 . S
C1485 C1486 1.524 . S
C1485 H1488 0.999 . S
C1486 H1456 0.950 . S
C1486 C1485 1.524 . S
C1486 C1487 1.415 . S
C1487 H1457 0.950 . S
C1487 C1482 1.363 . S
C1487 C1486 1.415 . S
H1488 C1485 0.999 . S
H1489 C1470 0.913 . S
H1490 C1508 0.951 . S
H1491 C1510 0.951 . S
H1492 C1512 0.950 . S
H1493 C1513 0.950 . S
H1494 C1515 0.950 . S
H1495 C1518 0.950 . S
H1496 C1519 0.950 . S
H1497 C1521 0.950 . S
H1498 C1522 0.950 . S
H1499 C1523 0.951 . S
H1500 C1525 0.951 . S
H1501 C1527 0.950 . S
H1502 C1528 0.950 . S
H1503 C1530 0.950 . S
H1504 C1533 0.950 1_565 S
H1505 C1534 0.950 1_565 S
H1506 C1536 0.950 . S
H1507 C1537 0.950 . S
C1508 H1490 0.951 . S
C1508 C1509 1.366 1_565 S
C1508 C1510 1.388 . S
C1509 C1508 1.366 1_545 S
C1509 C1513 1.385 . S
C1510 H1491 0.951 . S
C1510 C1508 1.388 . S
C1510 C1511 1.366 1_565 S
C1511 C1510 1.366 1_545 S
C1511 C1512 1.414 . S
C1511 C1514 1.499 . S
C1512 H1492 0.950 . S
C1512 C1511 1.414 . S
C1512 C1513 1.374 . S
C1513 H1493 0.950 . S
C1513 C1509 1.385 . S
C1513 C1512 1.374 . S
C1514 C1511 1.499 . S
C1514 C1515 1.373 . S
C1514 C1516 1.389 1_545 S
C1515 H1494 0.950 . S
C1515 C1514 1.373 . S
C1515 C1531 1.377 . S
C1516 C1514 1.389 1_565 S
C1516 C1517 1.524 . S
C1516 C1530 1.377 . S
C1517 C1516 1.524 . S
C1517 C1518 1.397 1_565 S
C1517 C1522 1.363 . S
C1518 H1495 0.950 . S
C1518 C1517 1.397 1_545 S
C1518 C1519 1.334 . S
C1519 H1496 0.950 . S
C1519 C1518 1.334 . S
C1519 C1520 1.287 1_545 S
C1520 C1519 1.287 1_565 S
C1520 C1521 1.524 . S
C1520 H1539 0.913 1_556 S
C1521 H1497 0.950 . S
C1521 C1520 1.524 . S
C1521 C1522 1.415 . S
C1522 H1498 0.950 . S
C1522 C1517 1.363 . S
C1522 C1521 1.415 . S
C1523 H1499 0.951 . S
C1523 C1524 1.366 . S
C1523 C1525 1.388 . S
C1524 C1523 1.366 . S
C1524 C1528 1.385 1_545 S
C1525 H1500 0.951 . S
C1525 C1523 1.388 . S
C1525 C1526 1.366 . S
C1526 C1525 1.366 . S
C1526 C1527 1.414 1_545 S
C1526 C1529 1.499 . S
C1527 H1501 0.950 . S
C1527 C1526 1.414 1_565 S
C1527 C1528 1.374 . S
C1528 H1502 0.950 . S
C1528 C1524 1.385 1_565 S
C1528 C1527 1.374 . S
C1529 C1526 1.499 . S
C1529 C1530 1.373 1_545 S
C1529 C1531 1.389 . S
C1530 H1503 0.950 . S
C1530 C1516 1.377 . S
C1530 C1529 1.373 1_565 S
C1531 C1515 1.377 . S
C1531 C1529 1.389 . S
C1531 C1532 1.524 . S
C1532 C1531 1.524 . S
C1532 C1533 1.397 . S
C1532 C1537 1.363 . S
C1533 H1504 0.950 1_545 S
C1533 C1532 1.397 . S
C1533 C1534 1.334 . S
C1534 H1505 0.950 1_545 S
C1534 C1533 1.334 . S
C1534 C1535 1.287 . S
C1535 C1534 1.287 . S
C1535 C1536 1.524 . S
C1535 H1538 0.999 . S
C1536 H1506 0.950 . S
C1536 C1535 1.524 . S
C1536 C1537 1.415 . S
C1537 H1507 0.950 . S
C1537 C1532 1.363 . S
C1537 C1536 1.415 . S
H1538 C1535 0.999 . S
H1539 C1520 0.913 1_554 S
H1540 C1558 0.951 . S
H1541 C1560 0.951 . S
H1542 C1562 0.950 . S
H1543 C1563 0.950 . S
H1544 C1565 0.950 . S
H1545 C1568 0.950 . S
H1546 C1569 0.950 . S
H1547 C1571 0.950 . S
H1548 C1572 0.950 . S
H1549 C1573 0.951 . S
H1550 C1575 0.951 . S
H1551 C1577 0.950 . S
H1552 C1578 0.950 . S
H1553 C1580 0.950 . S
H1554 C1583 0.950 . S
H1555 C1584 0.950 . S
H1556 C1586 0.950 . S
H1557 C1587 0.950 . S
C1558 H1540 0.951 . S
C1558 C1559 1.366 . S
C1558 C1560 1.388 . S
C1559 C1558 1.366 . S
C1559 C1563 1.385 . S
C1560 H1541 0.951 . S
C1560 C1558 1.388 . S
C1560 C1561 1.366 . S
C1561 C1560 1.366 . S
C1561 C1562 1.414 . S
C1561 C1564 1.499 . S
C1562 H1542 0.950 . S
C1562 C1561 1.414 . S
C1562 C1563 1.374 . S
C1563 H1543 0.950 . S
C1563 C1559 1.385 . S
C1563 C1562 1.374 . S
C1564 C1561 1.499 . S
C1564 C1565 1.373 . S
C1564 C1566 1.389 . S
C1565 H1544 0.950 . S
C1565 C1564 1.373 . S
C1565 C1581 1.377 . S
C1566 C1564 1.389 . S
C1566 C1567 1.524 . S
C1566 C1580 1.377 . S
C1567 C1566 1.524 . S
C1567 C1568 1.397 . S
C1567 C1572 1.363 . S
C1568 H1545 0.950 . S
C1568 C1567 1.397 . S
C1568 C1569 1.334 . S
C1569 H1546 0.950 . S
C1569 C1568 1.334 . S
C1569 C1570 1.287 . S
C1570 C1569 1.287 . S
C1570 C1571 1.524 . S
C1570 H1589 0.913 . S
C1571 H1547 0.950 . S
C1571 C1570 1.524 . S
C1571 C1572 1.415 . S
C1572 H1548 0.950 . S
C1572 C1567 1.363 . S
C1572 C1571 1.415 . S
C1573 H1549 0.951 . S
C1573 C1574 1.366 . S
C1573 C1575 1.388 . S
C1574 C1573 1.366 . S
C1574 C1578 1.385 . S
C1575 H1550 0.951 . S
C1575 C1573 1.388 . S
C1575 C1576 1.366 . S
C1576 C1575 1.366 . S
C1576 C1577 1.414 . S
C1576 C1579 1.499 . S
C1577 H1551 0.950 . S
C1577 C1576 1.414 . S
C1577 C1578 1.374 . S
C1578 H1552 0.950 . S
C1578 C1574 1.385 . S
C1578 C1577 1.374 . S
C1579 C1576 1.499 . S
C1579 C1580 1.373 . S
C1579 C1581 1.389 . S
C1580 H1553 0.950 . S
C1580 C1566 1.377 . S
C1580 C1579 1.373 . S
C1581 C1565 1.377 . S
C1581 C1579 1.389 . S
C1581 C1582 1.524 . S
C1582 C1581 1.524 . S
C1582 C1583 1.397 . S
C1582 C1587 1.363 . S
C1583 H1554 0.950 . S
C1583 C1582 1.397 . S
C1583 C1584 1.334 . S
C1584 H1555 0.950 . S
C1584 C1583 1.334 . S
C1584 C1585 1.287 . S
C1585 C1584 1.287 . S
C1585 C1586 1.524 . S
C1585 H1588 0.999 . S
C1586 H1556 0.950 . S
C1586 C1585 1.524 . S
C1586 C1587 1.415 . S
C1587 H1557 0.950 . S
C1587 C1582 1.363 . S
C1587 C1586 1.415 . S
H1588 C1585 0.999 . S
H1589 C1570 0.913 . S
H1590 C1608 0.951 . S
H1591 C1610 0.951 . S
H1592 C1612 0.950 . S
H1593 C1613 0.950 . S
H1594 C1615 0.950 . S
H1595 C1618 0.950 . S
H1596 C1619 0.950 . S
H1597 C1621 0.950 . S
H1598 C1622 0.950 . S
H1599 C1623 0.951 . S
H1600 C1625 0.951 . S
H1601 C1627 0.950 . S
H1602 C1628 0.950 . S
H1603 C1630 0.950 . S
H1604 C1633 0.950 . S
H1605 C1634 0.950 . S
H1606 C1636 0.950 . S
H1607 C1637 0.950 . S
C1608 H1590 0.951 . S
C1608 C1609 1.366 . S
C1608 C1610 1.388 . S
C1609 C1608 1.366 . S
C1609 C1613 1.385 . S
C1610 H1591 0.951 . S
C1610 C1608 1.388 . S
C1610 C1611 1.366 . S
C1611 C1610 1.366 . S
C1611 C1612 1.414 . S
C1611 C1614 1.499 . S
C1612 H1592 0.950 . S
C1612 C1611 1.414 . S
C1612 C1613 1.374 . S
C1613 H1593 0.950 . S
C1613 C1609 1.385 . S
C1613 C1612 1.374 . S
C1614 C1611 1.499 . S
C1614 C1615 1.373 . S
C1614 C1616 1.389 . S
C1615 H1594 0.950 . S
C1615 C1614 1.373 . S
C1615 C1631 1.377 . S
C1616 C1614 1.389 . S
C1616 C1617 1.524 . S
C1616 C1630 1.377 . S
C1617 C1616 1.524 . S
C1617 C1618 1.397 . S
C1617 C1622 1.363 . S
C1618 H1595 0.950 . S
C1618 C1617 1.397 . S
C1618 C1619 1.334 . S
C1619 H1596 0.950 . S
C1619 C1618 1.334 . S
C1619 C1620 1.287 . S
C1620 C1619 1.287 . S
C1620 C1621 1.524 . S
C1620 H1639 0.913 . S
C1621 H1597 0.950 . S
C1621 C1620 1.524 . S
C1621 C1622 1.415 . S
C1622 H1598 0.950 . S
C1622 C1617 1.363 . S
C1622 C1621 1.415 . S
C1623 H1599 0.951 . S
C1623 C1624 1.366 . S
C1623 C1625 1.388 . S
C1624 C1623 1.366 . S
C1624 C1628 1.385 . S
C1625 H1600 0.951 . S
C1625 C1623 1.388 . S
C1625 C1626 1.366 . S
C1626 C1625 1.366 . S
C1626 C1627 1.414 . S
C1626 C1629 1.499 . S
C1627 H1601 0.950 . S
C1627 C1626 1.414 . S
C1627 C1628 1.374 . S
C1628 H1602 0.950 . S
C1628 C1624 1.385 . S
C1628 C1627 1.374 . S
C1629 C1626 1.499 . S
C1629 C1630 1.373 . S
C1629 C1631 1.389 . S
C1630 H1603 0.950 . S
C1630 C1616 1.377 . S
C1630 C1629 1.373 . S
C1631 C1615 1.377 . S
C1631 C1629 1.389 . S
C1631 C1632 1.524 . S
C1632 C1631 1.524 . S
C1632 C1633 1.397 . S
C1632 C1637 1.363 . S
C1633 H1604 0.950 . S
C1633 C1632 1.397 . S
C1633 C1634 1.334 . S
C1634 H1605 0.950 . S
C1634 C1633 1.334 . S
C1634 C1635 1.287 . S
C1635 C1634 1.287 . S
C1635 C1636 1.524 . S
C1635 H1638 0.999 . S
C1636 H1606 0.950 . S
C1636 C1635 1.524 . S
C1636 C1637 1.415 . S
C1637 H1607 0.950 . S
C1637 C1632 1.363 . S
C1637 C1636 1.415 . S
H1638 C1635 0.999 . S
H1639 C1620 0.913 . S
H1640 C1658 0.951 . S
H1641 C1660 0.951 . S
H1642 C1662 0.950 . S
H1643 C1663 0.950 . S
H1644 C1665 0.950 . S
H1645 C1668 0.950 . S
H1646 C1669 0.950 . S
H1647 C1671 0.950 . S
H1648 C1672 0.940 1_655 S
H1649 C1673 0.951 . S
H1650 C1675 0.951 . S
H1651 C1677 0.950 . S
H1652 C1678 0.950 . S
H1653 C1680 0.942 1_455 S
H1654 C1683 0.950 . S
H1655 C1684 0.950 . S
H1656 C1686 0.950 . S
H1657 C1687 0.950 1_455 S
C1658 H1640 0.951 . S
C1658 C1659 1.366 . S
C1658 C1660 1.388 . S
C1659 C1658 1.366 . S
C1659 C1663 1.385 1_655 S
C1660 H1641 0.951 . S
C1660 C1658 1.388 . S
C1660 C1661 1.366 . S
C1661 C1660 1.366 . S
C1661 C1662 1.414 1_655 S
C1661 C1664 1.499 . S
C1662 H1642 0.950 . S
C1662 C1661 1.414 1_455 S
C1662 C1663 1.374 . S
C1663 H1643 0.950 . S
C1663 C1659 1.385 1_455 S
C1663 C1662 1.374 . S
C1664 C1661 1.499 . S
C1664 C1665 1.373 . S
C1664 C1666 1.389 1_655 S
C1665 H1644 0.950 . S
C1665 C1664 1.373 . S
C1665 C1681 1.377 . S
C1666 C1664 1.389 1_455 S
C1666 C1667 1.524 . S
C1666 C1680 1.371 1_455 S
C1667 C1666 1.524 . S
C1667 C1668 1.397 . S
C1667 C1672 1.368 . S
C1668 H1645 0.950 . S
C1668 C1667 1.397 . S
C1668 C1669 1.334 . S
C1669 H1646 0.950 . S
C1669 C1668 1.334 . S
C1669 C1670 1.287 . S
C1670 C1669 1.287 . S
C1670 C1671 1.524 . S
C1670 H1689 0.913 . S
C1671 H1647 0.950 . S
C1671 C1670 1.524 . S
C1671 C1672 1.420 . S
C1672 H1648 0.940 1_455 S
C1672 C1667 1.368 . S
C1672 C1671 1.420 . S
C1673 H1649 0.951 . S
C1673 C1674 1.366 1_455 S
C1673 C1675 1.388 . S
C1674 C1673 1.366 1_655 S
C1674 C1678 1.385 . S
C1675 H1650 0.951 . S
C1675 C1673 1.388 . S
C1675 C1676 1.366 1_455 S
C1676 C1675 1.366 1_655 S
C1676 C1677 1.414 . S
C1676 C1679 1.499 . S
C1677 H1651 0.950 . S
C1677 C1676 1.414 . S
C1677 C1678 1.374 . S
C1678 H1652 0.950 . S
C1678 C1674 1.385 . S
C1678 C1677 1.374 . S
C1679 C1676 1.499 . S
C1679 C1680 1.392 . S
C1679 C1681 1.389 . S
C1680 H1653 0.942 1_655 S
C1680 C1666 1.371 1_655 S
C1680 C1679 1.392 . S
C1681 C1665 1.377 . S
C1681 C1679 1.389 . S
C1681 C1682 1.524 . S
C1682 C1681 1.524 . S
C1682 C1683 1.397 . S
C1682 C1687 1.363 . S
C1683 H1654 0.950 . S
C1683 C1682 1.397 . S
C1683 C1684 1.334 . S
C1684 H1655 0.950 . S
C1684 C1683 1.334 . S
C1684 C1685 1.287 . S
C1685 C1684 1.287 . S
C1685 C1686 1.524 . S
C1685 H1688 0.999 . S
C1686 H1656 0.950 . S
C1686 C1685 1.524 . S
C1686 C1687 1.415 . S
C1687 H1657 0.950 1_655 S
C1687 C1682 1.363 . S
C1687 C1686 1.415 . S
H1688 C1685 0.999 . S
H1689 C1670 0.913 . S
H1690 C1708 0.951 . S
H1691 C1710 0.951 . S
H1692 C1712 0.950 . S
H1693 C1713 0.950 . S
H1694 C1715 0.950 . S
H1695 C1718 0.950 . S
H1696 C1719 0.950 . S
H1697 C1721 0.950 . S
H1698 C1722 0.950 . S
H1699 C1723 0.951 . S
H1700 C1725 0.951 . S
H1701 C1727 0.950 . S
H1702 C1728 0.950 . S
H1703 C1730 0.950 . S
H1704 C1733 0.950 . S
H1705 C1734 0.950 . S
H1706 C1736 0.950 . S
H1707 C1737 0.950 . S
C1708 H1690 0.951 . S
C1708 C1709 1.341 1_545 S
C1708 C1710 1.388 . S
C1709 C1708 1.341 1_565 S
C1709 C1713 1.414 . S
C1710 H1691 0.951 . S
C1710 C1708 1.388 . S
C1710 C1711 1.366 1_545 S
C1711 C1710 1.366 1_565 S
C1711 C1712 1.414 . S
C1711 C1714 1.499 . S
C1712 H1692 0.950 . S
C1712 C1711 1.414 . S
C1712 C1713 1.374 . S
C1713 H1693 0.950 . S
C1713 C1709 1.414 . S
C1713 C1712 1.374 . S
C1714 C1711 1.499 . S
C1714 C1715 1.373 . S
C1714 C1716 1.389 1_565 S
C1715 H1694 0.950 . S
C1715 C1714 1.373 . S
C1715 C1731 1.377 . S
C1716 C1714 1.389 1_545 S
C1716 C1717 1.524 . S
C1716 C1730 1.377 . S
C1717 C1716 1.524 . S
C1717 C1718 1.397 . S
C1717 C1722 1.363 . S
C1718 H1695 0.950 . S
C1718 C1717 1.397 . S
C1718 C1719 1.334 . S
C1719 H1696 0.950 . S
C1719 C1718 1.334 . S
C1719 C1720 1.287 . S
C1720 C1719 1.287 . S
C1720 C1721 1.524 . S
C1720 H1739 0.913 . S
C1721 H1697 0.950 . S
C1721 C1720 1.524 . S
C1721 C1722 1.415 . S
C1722 H1698 0.950 . S
C1722 C1717 1.363 . S
C1722 C1721 1.415 . S
C1723 H1699 0.951 . S
C1723 C1724 1.366 . S
C1723 C1725 1.388 . S
C1724 C1723 1.366 . S
C1724 C1728 1.385 1_565 S
C1725 H1700 0.951 . S
C1725 C1723 1.388 . S
C1725 C1726 1.366 . S
C1726 C1725 1.366 . S
C1726 C1727 1.414 1_565 S
C1726 C1729 1.499 . S
C1727 H1701 0.950 . S
C1727 C1726 1.414 1_545 S
C1727 C1728 1.374 . S
C1728 H1702 0.950 . S
C1728 C1724 1.385 1_545 S
C1728 C1727 1.374 . S
C1729 C1726 1.499 . S
C1729 C1730 1.373 1_565 S
C1729 C1731 1.389 . S
C1730 H1703 0.950 . S
C1730 C1716 1.377 . S
C1730 C1729 1.373 1_545 S
C1731 C1715 1.377 . S
C1731 C1729 1.389 . S
C1731 C1732 1.524 . S
C1732 C1731 1.524 . S
C1732 C1733 1.397 . S
C1732 C1737 1.363 . S
C1733 H1704 0.950 . S
C1733 C1732 1.397 . S
C1733 C1734 1.334 . S
C1734 H1705 0.950 . S
C1734 C1733 1.334 . S
C1734 C1735 1.287 . S
C1735 C1734 1.287 . S
C1735 C1736 1.524 . S
C1735 H1738 0.999 . S
C1736 H1706 0.950 . S
C1736 C1735 1.524 . S
C1736 C1737 1.415 . S
C1737 H1707 0.950 . S
C1737 C1732 1.363 . S
C1737 C1736 1.415 . S
H1738 C1735 0.999 . S
H1739 C1720 0.913 . S
H1740 C1758 0.951 . S
H1741 C1760 0.951 . S
H1742 C1762 0.950 . S
H1743 C1763 0.950 . S
H1744 C1765 0.950 . S
H1745 C1768 0.950 . S
H1746 C1769 0.950 . S
H1747 C1771 0.950 . S
H1748 C1772 0.950 . S
H1749 C1773 0.951 . S
H1750 C1775 0.951 . S
H1751 C1777 0.950 . S
H1752 C1778 0.950 . S
H1753 C1780 0.950 . S
H1754 C1783 0.950 . S
H1755 C1784 0.950 . S
H1756 C1786 0.950 . S
H1757 C1787 0.950 . S
C1758 H1740 0.951 . S
C1758 C1759 1.366 . S
C1758 C1760 1.388 . S
C1759 C1758 1.366 . S
C1759 C1763 1.385 . S
C1760 H1741 0.951 . S
C1760 C1758 1.388 . S
C1760 C1761 1.366 . S
C1761 C1760 1.366 . S
C1761 C1762 1.414 . S
C1761 C1764 1.499 . S
C1762 H1742 0.950 . S
C1762 C1761 1.414 . S
C1762 C1763 1.374 . S
C1763 H1743 0.950 . S
C1763 C1759 1.385 . S
C1763 C1762 1.374 . S
C1764 C1761 1.499 . S
C1764 C1765 1.373 . S
C1764 C1766 1.389 . S
C1765 H1744 0.950 . S
C1765 C1764 1.373 . S
C1765 C1781 1.377 . S
C1766 C1764 1.389 . S
C1766 C1767 1.524 . S
C1766 C1780 1.377 . S
C1767 C1766 1.524 . S
C1767 C1768 1.397 . S
C1767 C1772 1.363 . S
C1768 H1745 0.950 . S
C1768 C1767 1.397 . S
C1768 C1769 1.334 . S
C1769 H1746 0.950 . S
C1769 C1768 1.334 . S
C1769 C1770 1.287 . S
C1770 C1769 1.287 . S
C1770 C1771 1.524 . S
C1770 H1789 0.913 . S
C1771 H1747 0.950 . S
C1771 C1770 1.524 . S
C1771 C1772 1.415 . S
C1772 H1748 0.950 . S
C1772 C1767 1.363 . S
C1772 C1771 1.415 . S
C1773 H1749 0.951 . S
C1773 C1774 1.366 . S
C1773 C1775 1.388 . S
C1774 C1773 1.366 . S
C1774 C1778 1.385 . S
C1775 H1750 0.951 . S
C1775 C1773 1.388 . S
C1775 C1776 1.366 . S
C1776 C1775 1.366 . S
C1776 C1777 1.414 . S
C1776 C1779 1.499 . S
C1777 H1751 0.950 . S
C1777 C1776 1.414 . S
C1777 C1778 1.374 . S
C1778 H1752 0.950 . S
C1778 C1774 1.385 . S
C1778 C1777 1.374 . S
C1779 C1776 1.499 . S
C1779 C1780 1.373 . S
C1779 C1781 1.389 . S
C1780 H1753 0.950 . S
C1780 C1766 1.377 . S
C1780 C1779 1.373 . S
C1781 C1765 1.377 . S
C1781 C1779 1.389 . S
C1781 C1782 1.524 . S
C1782 C1781 1.524 . S
C1782 C1783 1.397 . S
C1782 C1787 1.363 . S
C1783 H1754 0.950 . S
C1783 C1782 1.397 . S
C1783 C1784 1.334 . S
C1784 H1755 0.950 . S
C1784 C1783 1.334 . S
C1784 C1785 1.287 . S
C1785 C1784 1.287 . S
C1785 C1786 1.524 . S
C1785 H1788 0.999 . S
C1786 H1756 0.950 . S
C1786 C1785 1.524 . S
C1786 C1787 1.415 . S
C1787 H1757 0.950 . S
C1787 C1782 1.363 . S
C1787 C1786 1.415 . S
H1788 C1785 0.999 . S
H1789 C1770 0.913 . S
H1790 C1808 0.951 . S
H1791 C1810 0.951 . S
H1792 C1812 0.950 . S
H1793 C1813 0.950 . S
H1794 C1815 0.950 . S
H1795 C1818 0.950 . S
H1796 C1819 0.950 . S
H1797 C1821 0.950 . S
H1798 C1822 0.950 . S
H1799 C1823 0.951 . S
H1800 C1825 0.951 . S
H1801 C1827 0.950 . S
H1802 C1828 0.950 . S
H1803 C1830 0.950 . S
H1804 C1833 0.950 . S
H1805 C1834 0.950 . S
H1806 C1836 0.950 . S
H1807 C1837 0.950 . S
C1808 H1790 0.951 . S
C1808 C1809 1.366 . S
C1808 C1810 1.388 . S
C1809 C1808 1.366 . S
C1809 C1813 1.385 . S
C1810 H1791 0.951 . S
C1810 C1808 1.388 . S
C1810 C1811 1.366 . S
C1811 C1810 1.366 . S
C1811 C1812 1.414 . S
C1811 C1814 1.499 . S
C1812 H1792 0.950 . S
C1812 C1811 1.414 . S
C1812 C1813 1.374 . S
C1813 H1793 0.950 . S
C1813 C1809 1.385 . S
C1813 C1812 1.374 . S
C1814 C1811 1.499 . S
C1814 C1815 1.373 . S
C1814 C1816 1.389 . S
C1815 H1794 0.950 . S
C1815 C1814 1.373 . S
C1815 C1831 1.377 . S
C1816 C1814 1.389 . S
C1816 C1817 1.524 . S
C1816 C1830 1.377 . S
C1817 C1816 1.524 . S
C1817 C1818 1.397 . S
C1817 C1822 1.363 . S
C1818 H1795 0.950 . S
C1818 C1817 1.397 . S
C1818 C1819 1.334 . S
C1819 H1796 0.950 . S
C1819 C1818 1.334 . S
C1819 C1820 1.287 . S
C1820 C1819 1.287 . S
C1820 C1821 1.524 . S
C1820 H1839 0.913 . S
C1821 H1797 0.950 . S
C1821 C1820 1.524 . S
C1821 C1822 1.415 . S
C1822 H1798 0.950 . S
C1822 C1817 1.363 . S
C1822 C1821 1.415 . S
C1823 H1799 0.951 . S
C1823 C1824 1.366 . S
C1823 C1825 1.388 . S
C1824 C1823 1.366 . S
C1824 C1828 1.385 . S
C1825 H1800 0.951 . S
C1825 C1823 1.388 . S
C1825 C1826 1.366 . S
C1826 C1825 1.366 . S
C1826 C1827 1.414 . S
C1826 C1829 1.499 . S
C1827 H1801 0.950 . S
C1827 C1826 1.414 . S
C1827 C1828 1.374 . S
C1828 H1802 0.950 . S
C1828 C1824 1.385 . S
C1828 C1827 1.374 . S
C1829 C1826 1.499 . S
C1829 C1830 1.373 . S
C1829 C1831 1.389 . S
C1830 H1803 0.950 . S
C1830 C1816 1.377 . S
C1830 C1829 1.373 . S
C1831 C1815 1.377 . S
C1831 C1829 1.389 . S
C1831 C1832 1.524 . S
C1832 C1831 1.524 . S
C1832 C1833 1.397 . S
C1832 C1837 1.363 . S
C1833 H1804 0.950 . S
C1833 C1832 1.397 . S
C1833 C1834 1.334 . S
C1834 H1805 0.950 . S
C1834 C1833 1.334 . S
C1834 C1835 1.287 . S
C1835 C1834 1.287 . S
C1835 C1836 1.524 . S
C1835 H1838 0.999 . S
C1836 H1806 0.950 . S
C1836 C1835 1.524 . S
C1836 C1837 1.415 . S
C1837 H1807 0.950 . S
C1837 C1832 1.363 . S
C1837 C1836 1.415 . S
H1838 C1835 0.999 . S
H1839 C1820 0.913 . S
C659 C391 2.016 . S
C674 C482 2.056 1_545 S
C724 C522 2.065 . S
C709 C451 2.012 . S
C774 C562 2.065 . S
C759 C241 1.803 . S
C824 C602 2.061 1_455 S
C809 C331 1.800 1_455 S
C874 C495 2.061 1_565 S
C859 C121 1.807 1_545 S
C909 C211 2.020 . S
C924 C535 2.070 . S
C959 C31 2.020 . S
C974 C575 2.065 . S
C1009 C91 1.800 . S
C1024 C615 2.061 1_655 S
C1074 C506 0.194 . S
C1059 C301 0.480 1_455 S
C1124 C546 0.194 . S
C1109 C380 0.108 . S
C1174 C586 0.196 . S
C1159 C440 0.110 . S
C1209 C260 0.473 . S
C1224 C626 0.189 . S
C1259 C61 0.411 . S
C1274 C489 0.191 . S
C1324 C529 0.198 . S
C1309 C140 0.414 . S
C1374 C569 0.196 . S
C1359 C200 0.257 . S
C1409 C20 0.257 . S
C1424 C609 0.201 . S
C1459 C320 2.658 1_455 S
C1474 C483 2.822 . S
C1509 C361 2.299 . S
C1524 C523 2.824 . S
C1574 C563 2.821 . S
C1559 C421 2.295 . S
C1624 C603 2.826 . S
C1609 C271 2.648 . S
C1659 C80 2.650 . S
C1674 C502 2.837 . S
C1724 C542 2.824 . S
C1709 C151 2.648 . S
C1774 C582 2.821 . S
C1759 C181 2.305 . S
C1809 C1 2.310 . S
C1824 C622 2.833 . S
