# Generated by pormake.
# Topology pth, (4,4)-cn, num edge types: 1
# Building blocks:
#     Node 0, Type 0, BuildingBlock: CEKHIL_clean_sbu_0, # of connection points: 4
#     Node 1, Type 0, BuildingBlock: CEKHIL_clean_sbu_0, # of connection points: 4
#     Node 2, Type 0, BuildingBlock: CEKHIL_clean_sbu_0, # of connection points: 4
#     Node 3, Type 1, BuildingBlock: NAWXER_clean_linker_0, # of connection points: 4
#     Node 4, Type 1, BuildingBlock: NAWXER_clean_linker_0, # of connection points: 4
#     Node 5, Type 1, BuildingBlock: NAWXER_clean_linker_0, # of connection points: 4
#     Edge 6, Type (0, 1), BuildingBlock: AJUNOK_clean_linker_0, # of connection points: 2
#     Edge 7, Type (0, 1), BuildingBlock: AJUNOK_clean_linker_0, # of connection points: 2
#     Edge 8, Type (0, 1), BuildingBlock: AJUNOK_clean_linker_0, # of connection points: 2
#     Edge 9, Type (0, 1), BuildingBlock: AJUNOK_clean_linker_0, # of connection points: 2
#     Edge 10, Type (0, 1), BuildingBlock: AJUNOK_clean_linker_0, # of connection points: 2
#     Edge 11, Type (0, 1), BuildingBlock: AJUNOK_clean_linker_0, # of connection points: 2
#     Edge 12, Type (0, 1), BuildingBlock: AJUNOK_clean_linker_0, # of connection points: 2
#     Edge 13, Type (0, 1), BuildingBlock: AJUNOK_clean_linker_0, # of connection points: 2
#     Edge 14, Type (0, 1), BuildingBlock: AJUNOK_clean_linker_0, # of connection points: 2
#     Edge 15, Type (0, 1), BuildingBlock: AJUNOK_clean_linker_0, # of connection points: 2
#     Edge 16, Type (0, 1), BuildingBlock: AJUNOK_clean_linker_0, # of connection points: 2
#     Edge 17, Type (0, 1), BuildingBlock: AJUNOK_clean_linker_0, # of connection points: 2
# Relax obj value: 0.006
# Max RMSD: 0.048
# Mean RMSD: 0.037
data_MOF--net-pth--node1-CEKHIL_clean_sbu_0--node2-NAWXER_clean_linker_0--edge1-AJUNOK_clean_linker_0
_symmetry_space_group_name_H-M    P1
_symmetry_Int_Tables_number       1
_symmetry_cell_setting            triclinic
loop_
_symmetry_equiv_pos_as_xyz
'x, y, z'
_cell_length_a     22.294518
_cell_length_b     22.372044
_cell_length_c     50.923864
_cell_angle_alpha  90.944048
_cell_angle_beta   89.812291
_cell_angle_gamma 120.46937
loop_
_atom_site_label
_atom_site_type_symbol
_atom_site_fract_x
_atom_site_fract_y
_atom_site_fract_z
_atom_type_partial_charge
Co0 Co 0.03689 0.03041 0.06932 0.0
O1 O 0.99585 0.96252 0.0963 0.0
O2 O 0.08289 0.97646 0.07107 0.0
C3 C 0.04541 0.11841 0.0945 0.0
O4 O 0.09535 0.09816 0.04058 0.0
Co5 Co 0.96047 0.10255 0.04836 0.0
O6 O 0.05245 0.16809 0.03322 0.0
C7 C 0.91515 0.95961 0.03058 0.0
C8 C 0.04123 0.94459 0.0905 0.0
C9 C 0.09964 0.15245 0.03025 0.0
O10 O 0.96762 0.96305 0.04257 0.0
O11 O 0.90037 0.0079 0.03216 0.0
O12 O 0.09277 0.1011 0.09566 0.0
O13 O 0.99216 0.07907 0.07977 0.0
Co14 Co 0.00276 0.02459 0.38178 0.0
O15 O 0.96236 0.05042 0.35422 0.0
O16 O 0.04729 0.12514 0.38041 0.0
C17 C 0.01494 0.94709 0.35658 0.0
O18 O 0.05969 0.0161 0.41142 0.0
Co19 Co 0.92678 0.87332 0.40114 0.0
O20 O 0.01585 0.90302 0.4195 0.0
C21 C 0.87999 0.96897 0.41962 0.0
C22 C 0.00711 0.11437 0.36021 0.0
C23 C 0.06211 0.96658 0.42307 0.0
O24 O 0.9313 0.01946 0.4077 0.0
O25 O 0.86681 0.90627 0.41775 0.0
O26 O 0.06126 0.01266 0.35615 0.0
O27 O 0.96069 0.93124 0.37065 0.0
Co28 Co 0.00748 0.03715 0.71641 0.0
O29 O 0.07598 0.08108 0.68947 0.0
O30 O 0.06134 0.99141 0.71236 0.0
C31 C 0.92047 0.03332 0.69233 0.0
O32 O 0.94024 0.9759 0.74479 0.0
Co33 Co 0.93368 0.10907 0.74119 0.0
O34 O 0.87288 0.01857 0.75775 0.0
C35 C 0.07688 0.15185 0.75808 0.0
C36 C 0.09404 0.03542 0.69378 0.0
C37 C 0.88932 0.97175 0.7583 0.0
O38 O 0.07481 0.10255 0.74397 0.0
O39 O 0.02777 0.16574 0.75807 0.0
O40 O 0.93642 0.98522 0.68963 0.0
O41 O 0.95938 0.08355 0.70837 0.0
C42 C 0.98637 0.32147 0.27305 0.0
C43 C 0.03773 0.33519 0.29206 0.0
C44 C 0.99381 0.37326 0.25609 0.0
C45 C 0.05225 0.44019 0.25803 0.0
C46 C 0.09554 0.40275 0.29428 0.0
C47 C 0.10239 0.4549 0.27756 0.0
C48 C 0.05862 0.496 0.24099 0.0
C49 C 0.09184 0.35249 0.18708 0.0
C50 C 0.05039 0.32981 0.1642 0.0
C51 C 0.09272 0.4038 0.20346 0.0
C52 C 0.05058 0.43202 0.19769 0.0
C53 C 0.0081 0.35786 0.15858 0.0
C54 C 0.0082 0.40826 0.17512 0.0
C55 C 0.05443 0.49058 0.21327 0.0
C56 C 0.10124 0.77163 0.18151 0.0
C57 C 0.06016 0.74892 0.15862 0.0
C58 C 0.10114 0.72363 0.19884 0.0
C59 C 0.05799 0.65196 0.19402 0.0
C60 C 0.01849 0.67762 0.15341 0.0
C61 C 0.01727 0.62968 0.17095 0.0
C62 C 0.05805 0.59926 0.21148 0.0
C63 C 0.99691 0.71881 0.26743 0.0
C64 C 0.04451 0.75297 0.28808 0.0
C65 C 0.00363 0.67202 0.2509 0.0
C66 C 0.05829 0.65895 0.2547 0.0
C67 C 0.09979 0.74073 0.29157 0.0
C68 C 0.10617 0.69356 0.27519 0.0
C69 C 0.06179 0.60431 0.23924 0.0
H70 H 0.93994 0.27074 0.27141 0.0
H71 H 0.95334 0.36134 0.24173 0.0
H72 H 0.13592 0.41507 0.30872 0.0
H73 H 0.14733 0.50658 0.27965 0.0
H74 H 0.12397 0.33092 0.19228 0.0
H75 H 0.12775 0.42247 0.22017 0.0
H76 H 0.97591 0.34189 0.14105 0.0
H77 H 0.97563 0.42946 0.17001 0.0
H78 H 0.13407 0.82657 0.18579 0.0
H79 H 0.1356 0.74281 0.21572 0.0
H80 H 0.98593 0.65901 0.13597 0.0
H81 H 0.98405 0.57488 0.1665 0.0
H82 H 0.95425 0.72796 0.26419 0.0
H83 H 0.96515 0.64479 0.2356 0.0
H84 H 0.13701 0.76633 0.30741 0.0
H85 H 0.14819 0.68355 0.27866 0.0
N86 N 0.06247 0.55277 0.2528 0.0
N87 N 0.05441 0.54247 0.1998 0.0
C88 C 0.72558 0.0662 0.51082 0.0
C89 C 0.70069 0.01327 0.49146 0.0
C90 C 0.67929 0.07129 0.52817 0.0
C91 C 0.60754 0.023 0.52659 0.0
C92 C 0.62889 0.96578 0.4898 0.0
C93 C 0.58293 0.97077 0.50707 0.0
C94 C 0.55633 0.02828 0.54362 0.0
C95 C 0.69282 0.99341 0.59974 0.0
C96 C 0.71804 0.03876 0.62167 0.0
C97 C 0.64274 0.99279 0.58302 0.0
C98 C 0.61827 0.03898 0.58744 0.0
C99 C 0.69169 0.08317 0.6265 0.0
C100 C 0.643 0.08367 0.6095 0.0
C101 C 0.56176 0.03676 0.57127 0.0
C102 C 0.27807 0.98519 0.60264 0.0
C103 C 0.2988 0.0295 0.62477 0.0
C104 C 0.32781 0.98693 0.58533 0.0
C105 C 0.39903 0.03491 0.58935 0.0
C106 C 0.36973 0.0762 0.62922 0.0
C107 C 0.41934 0.07899 0.61164 0.0
C108 C 0.45345 0.03542 0.57225 0.0
C109 C 0.31525 0.06559 0.5147 0.0
C110 C 0.28524 0.01317 0.4952 0.0
C111 C 0.36785 0.07034 0.5312 0.0
C112 C 0.39069 0.02236 0.52853 0.0
C113 C 0.30883 0.96592 0.49249 0.0
C114 C 0.3611 0.97068 0.50886 0.0
C115 C 0.44852 0.02754 0.54458 0.0
H116 H 0.78076 0.10309 0.51274 0.0
H117 H 0.69943 0.11311 0.54264 0.0
H118 H 0.60812 0.92482 0.47497 0.0
H119 H 0.52779 0.93343 0.50521 0.0
H120 H 0.71151 0.95805 0.59556 0.0
H121 H 0.62227 0.95509 0.56705 0.0
H122 H 0.70761 0.11678 0.64374 0.0
H123 H 0.62382 0.11859 0.61385 0.0
H124 H 0.22346 0.94844 0.59901 0.0
H125 H 0.31041 0.9498 0.56917 0.0
H126 H 0.38666 0.11101 0.64614 0.0
H127 H 0.47385 0.11567 0.61553 0.0
H128 H 0.29759 0.10232 0.51736 0.0
H129 H 0.39101 0.11171 0.54582 0.0
H130 H 0.28708 0.92537 0.47751 0.0
H131 H 0.37835 0.93359 0.50618 0.0
N132 N 0.49988 0.02384 0.53159 0.0
N133 N 0.51016 0.04025 0.58427 0.0
C134 C 0.33775 0.29748 0.84695 0.0
C135 C 0.3096 0.32328 0.8287 0.0
C136 C 0.39264 0.34309 0.86359 0.0
C137 C 0.41987 0.41505 0.86221 0.0
C138 C 0.33718 0.39515 0.82739 0.0
C139 C 0.39184 0.44045 0.84383 0.0
C140 C 0.48003 0.46548 0.87843 0.0
C141 C 0.30843 0.35286 0.93705 0.0
C142 C 0.32325 0.32076 0.95748 0.0
C143 C 0.36052 0.39656 0.91974 0.0
C144 C 0.42842 0.40819 0.92216 0.0
C145 C 0.39067 0.33102 0.95959 0.0
C146 C 0.44296 0.3749 0.94223 0.0
C147 C 0.4856 0.4609 0.90587 0.0
C148 C 0.70811 0.74724 0.93725 0.0
C149 C 0.7399 0.73226 0.95791 0.0
C150 C 0.66198 0.69487 0.92 0.0
C151 C 0.64764 0.62641 0.92261 0.0
C152 C 0.72524 0.66369 0.96062 0.0
C153 C 0.67952 0.61135 0.94317 0.0
C154 C 0.59365 0.56922 0.90605 0.0
C155 C 0.75323 0.71662 0.84734 0.0
C156 C 0.72526 0.74241 0.82898 0.0
C157 C 0.70922 0.6622 0.86388 0.0
C158 C 0.63666 0.63323 0.86241 0.0
C159 C 0.65278 0.71289 0.82753 0.0
C160 C 0.60912 0.65892 0.84394 0.0
C161 C 0.58765 0.57361 0.87857 0.0
H162 H 0.31693 0.24218 0.8485 0.0
H163 H 0.41425 0.32228 0.87724 0.0
H164 H 0.31674 0.41645 0.81341 0.0
H165 H 0.41215 0.4957 0.84225 0.0
H166 H 0.25672 0.34532 0.9348 0.0
H167 H 0.3481 0.42315 0.90507 0.0
H168 H 0.40352 0.30712 0.97523 0.0
H169 H 0.49513 0.38383 0.94474 0.0
H170 H 0.71808 0.79947 0.93468 0.0
H171 H 0.636 0.70778 0.90514 0.0
H172 H 0.74733 0.64998 0.97672 0.0
H173 H 0.66808 0.5587 0.94601 0.0
H174 H 0.80899 0.73891 0.84908 0.0
H175 H 0.73177 0.64242 0.87757 0.0
H176 H 0.62968 0.73126 0.81346 0.0
H177 H 0.5534 0.63726 0.84224 0.0
N178 N 0.53118 0.52154 0.86607 0.0
N179 N 0.54255 0.51269 0.9185 0.0
C180 C 0.98682 0.17264 0.11855 0.0
C181 C 0.04864 0.17475 0.11114 0.0
C182 C 0.98793 0.22268 0.13579 0.0
C183 C 0.05099 0.2773 0.14604 0.0
H184 H 0.93693 0.13099 0.11153 0.0
H185 H 0.93881 0.21787 0.14144 0.0
S186 S 0.22786 0.31017 0.13034 0.0
N187 N 0.17489 0.23781 0.11406 0.0
N188 N 0.17731 0.33331 0.14575 0.0
C189 C 0.11339 0.2811 0.13811 0.0
C190 C 0.11213 0.22956 0.12081 0.0
C191 C 0.78372 0.92864 0.45241 0.0
C192 C 0.83521 0.98314 0.43745 0.0
C193 C 0.74156 0.93942 0.46993 0.0
C194 C 0.74869 0.00514 0.47338 0.0
H195 H 0.77577 0.87678 0.45079 0.0
H196 H 0.7031 0.89572 0.48101 0.0
S197 S 0.87359 0.16542 0.43882 0.0
N198 N 0.89009 0.10586 0.42725 0.0
N199 N 0.80993 0.12559 0.46015 0.0
C200 C 0.7997 0.06036 0.4587 0.0
C201 C 0.84297 0.04947 0.44073 0.0
C202 C 0.79711 0.91099 0.79221 0.0
C203 C 0.8494 0.91219 0.77617 0.0
C204 C 0.75862 0.85672 0.80946 0.0
C205 C 0.77045 0.80099 0.81157 0.0
H206 H 0.78543 0.95239 0.79154 0.0
H207 H 0.71904 0.85845 0.82131 0.0
S208 S 0.90016 0.77748 0.77409 0.0
N209 N 0.91073 0.85176 0.7637 0.0
N210 N 0.83747 0.74936 0.7961 0.0
C211 C 0.82268 0.80127 0.79592 0.0
C212 C 0.86217 0.85676 0.77822 0.0
C213 C 0.02796 0.88857 0.1336 0.0
C214 C 0.0478 0.89445 0.10705 0.0
C215 C 0.03367 0.84245 0.15023 0.0
C216 C 0.05808 0.79943 0.1408 0.0
H217 H 0.00845 0.92045 0.14176 0.0
H218 H 0.01773 0.83955 0.17052 0.0
S219 S 0.11613 0.79379 0.07297 0.0
N220 N 0.09348 0.85356 0.07218 0.0
N221 N 0.10228 0.76509 0.10336 0.0
C222 C 0.07783 0.80432 0.11431 0.0
C223 C 0.07333 0.85241 0.09746 0.0
C224 C 0.11496 0.92848 0.45742 0.0
C225 C 0.11931 0.98243 0.44205 0.0
C226 C 0.16798 0.93969 0.47491 0.0
C227 C 0.22795 0.00533 0.47795 0.0
H228 H 0.07026 0.87652 0.45592 0.0
H229 H 0.16211 0.89623 0.48607 0.0
S230 S 0.26593 0.16481 0.44298 0.0
N231 N 0.18893 0.10493 0.43155 0.0
N232 N 0.28903 0.12558 0.46448 0.0
C233 C 0.23291 0.06033 0.46325 0.0
C234 C 0.17862 0.04897 0.44529 0.0
C235 C 0.13693 0.2443 0.79271 0.0
C236 C 0.13738 0.19373 0.77594 0.0
C237 C 0.19216 0.28465 0.80993 0.0
C238 C 0.25039 0.2763 0.81129 0.0
H239 H 0.0935 0.25322 0.79264 0.0
H240 H 0.18925 0.32292 0.82234 0.0
S241 S 0.27909 0.15246 0.77173 0.0
N242 N 0.20223 0.13799 0.76193 0.0
N243 N 0.30625 0.21456 0.7944 0.0
C244 C 0.25183 0.22584 0.79493 0.0
C245 C 0.19544 0.18455 0.77722 0.0
C246 C 0.81212 0.97399 0.66486 0.0
C247 C 0.86807 0.03563 0.67529 0.0
C248 C 0.76378 0.97537 0.64765 0.0
C249 C 0.77026 0.03855 0.63986 0.0
H250 H 0.80538 0.92424 0.67016 0.0
H251 H 0.7207 0.92647 0.64057 0.0
S252 S 0.91182 0.21475 0.65978 0.0
N253 N 0.92901 0.16165 0.67585 0.0
N254 N 0.84028 0.1645 0.64269 0.0
C255 C 0.82695 0.10062 0.64982 0.0
C256 C 0.87529 0.0991 0.66772 0.0
C257 C 0.80489 0.88635 1.00513 0.0
C258 C 0.87048 0.89842 0.01333 0.0
C259 C 0.76309 0.83219 0.98757 0.0
C260 C 0.78496 0.78767 0.97727 0.0
H261 H 0.78546 0.91925 0.01222 0.0
H262 H 0.71301 0.82516 0.98202 0.0
S263 S 0.95221 0.7965 0.99209 0.0
N264 N 0.95505 0.86037 1.00981 0.0
N265 N 0.87671 0.75922 0.97644 0.0
C266 C 0.84992 0.79826 0.9855 0.0
C267 C 0.89255 0.85339 1.00357 0.0
C268 C 0.08469 0.91522 0.32714 0.0
C269 C 0.02193 0.89529 0.34039 0.0
C270 C 0.09183 0.86869 0.31049 0.0
C271 C 0.03621 0.80075 0.30623 0.0
H272 H 0.12866 0.96741 0.32945 0.0
H273 H 0.14084 0.8864 0.30049 0.0
S274 S 0.86215 0.72129 0.33709 0.0
N275 N 0.90387 0.80168 0.34879 0.0
N276 N 0.91747 0.71457 0.31738 0.0
C277 C 0.97358 0.77968 0.31962 0.0
C278 C 0.96643 0.82681 0.33677 0.0
C279 C 0.15324 0.05377 0.65067 0.0
C280 C 0.14628 0.032 0.67687 0.0
C281 C 0.20184 0.05145 0.63384 0.0
C282 C 0.24627 0.02872 0.64276 0.0
H283 H 0.12031 0.07213 0.64299 0.0
H284 H 0.20546 0.06855 0.61381 0.0
S285 S 0.25033 0.96743 0.70952 0.0
N286 N 0.18796 0.98673 0.71085 0.0
N287 N 0.28108 0.98442 0.6793 0.0
C288 C 0.24041 0.00723 0.66888 0.0
C289 C 0.18984 0.00822 0.68592 0.0
C290 C 0.19888 0.17134 1.00091 0.0
C291 C 0.1599 0.19741 0.01323 0.0
C292 C 0.25255 0.21175 0.98324 0.0
C293 C 0.26909 0.27961 0.97724 0.0
H294 H 0.18672 0.11872 1.00437 0.0
H295 H 0.28007 0.18913 0.9737 0.0
S296 S 0.1898 0.3758 1.00681 0.0
N297 N 0.14667 0.2982 0.01989 0.0
N298 N 0.24713 0.37345 0.98689 0.0
C299 C 0.23261 0.30725 0.99022 0.0
C300 C 0.1782 0.26638 1.00815 0.0
C301 C 0.03783 0.23776 0.35304 0.0
C302 C 0.01561 0.17081 0.34297 0.0
C303 C 0.045 0.29082 0.33652 0.0
C304 C 0.03114 0.27896 0.30932 0.0
H305 H 0.04851 0.24886 0.37384 0.0
H306 H 0.06058 0.3412 0.34518 0.0
S307 S 0.98069 0.11491 0.27288 0.0
N308 N 0.98483 0.09691 0.30388 0.0
N309 N 1.00069 0.19674 0.27291 0.0
C310 C 0.01131 0.21276 0.29899 0.0
C311 C 0.003 0.15872 0.31579 0.0
loop_
_geom_bond_atom_site_label_1
_geom_bond_atom_site_label_2
_geom_bond_distance
_geom_bond_site_symmetry_2
_ccdc_geom_bond_type
Co0 O1 2.216 1_445 S
Co0 O2 2.091 1_545 S
Co0 O4 2.004 . S
Co0 O10 2.021 1_445 S
Co0 O12 2.137 . S
Co0 O13 2.244 1_455 S
O1 Co0 2.216 1_665 S
O1 C8 1.247 1_655 S
O2 Co0 2.091 1_565 S
O2 C8 1.261 . S
C3 O12 1.247 . S
C3 O13 1.272 1_455 S
O4 Co0 2.004 . S
O4 C9 1.259 . S
Co5 O6 2.061 1_655 S
Co5 O11 2.054 . S
Co5 O13 2.135 . S
O6 Co5 2.061 1_455 S
O6 C9 1.235 . S
C7 O10 1.238 . S
C7 O11 1.239 1_565 S
C8 O1 1.247 1_455 S
C8 O2 1.261 . S
C9 O4 1.259 . S
C9 O6 1.235 . S
O10 Co0 2.021 1_665 S
O10 C7 1.238 . S
O11 Co5 2.054 . S
O11 C7 1.239 1_545 S
O12 Co0 2.137 . S
O12 C3 1.247 . S
O13 Co0 2.244 1_655 S
O13 C3 1.272 1_655 S
O13 Co5 2.135 . S
Co14 O15 2.216 1_455 S
Co14 O16 2.091 . S
Co14 O18 2.004 . S
Co14 O24 2.021 1_455 S
Co14 O26 2.137 . S
Co14 O27 2.244 1_445 S
O15 Co14 2.216 1_655 S
O15 C22 1.247 1_655 S
O16 Co14 2.091 . S
O16 C22 1.261 . S
C17 O26 1.247 1_565 S
C17 O27 1.272 1_455 S
O18 Co14 2.004 . S
O18 C23 1.259 . S
Co19 O20 2.061 1_655 S
Co19 O25 2.052 . S
Co19 O27 2.135 . S
O20 Co19 2.061 1_455 S
O20 C23 1.235 1_565 S
C21 O24 1.238 . S
C21 O25 1.241 1_545 S
C22 O15 1.247 1_455 S
C22 O16 1.261 . S
C23 O18 1.259 . S
C23 O20 1.235 1_545 S
O24 Co14 2.021 1_655 S
O24 C21 1.238 . S
O25 Co19 2.052 . S
O25 C21 1.241 1_565 S
O26 Co14 2.137 . S
O26 C17 1.247 1_545 S
O27 Co14 2.244 1_665 S
O27 C17 1.272 1_655 S
O27 Co19 2.135 . S
Co28 O29 2.216 . S
Co28 O30 2.091 1_545 S
Co28 O32 2.004 1_445 S
Co28 O38 2.021 . S
Co28 O40 2.137 1_445 S
Co28 O41 2.244 1_455 S
O29 Co28 2.216 . S
O29 C36 1.247 . S
O30 Co28 2.091 1_565 S
O30 C36 1.261 1_565 S
C31 O40 1.247 1_545 S
C31 O41 1.272 . S
O32 Co28 2.004 1_665 S
O32 C37 1.259 . S
Co33 O34 2.061 1_545 S
Co33 O39 2.052 1_655 S
Co33 O41 2.135 . S
O34 Co33 2.061 1_565 S
O34 C37 1.235 . S
C35 O38 1.238 . S
C35 O39 1.241 . S
C36 O29 1.247 . S
C36 O30 1.261 1_545 S
C37 O32 1.259 . S
C37 O34 1.235 . S
O38 Co28 2.021 . S
O38 C35 1.238 . S
O39 Co33 2.052 1_455 S
O39 C35 1.241 . S
O40 Co28 2.137 1_665 S
O40 C31 1.247 1_565 S
O41 Co28 2.244 1_655 S
O41 C31 1.272 . S
O41 Co33 2.135 . S
C42 C43 1.384 1_655 S
C42 C44 1.384 . S
C42 H70 0.931 . S
C43 C42 1.384 1_455 S
C43 C46 1.382 . S
C44 C42 1.384 . S
C44 C45 1.381 1_655 S
C44 H71 0.930 . S
C45 C44 1.381 1_455 S
C45 C47 1.381 . S
C45 C48 1.487 . S
C46 C43 1.382 . S
C46 C47 1.387 . S
C46 H72 0.930 . S
C47 C45 1.381 . S
C47 C46 1.387 . S
C47 H73 0.931 . S
C48 C45 1.487 . S
C48 C55 1.399 . S
C48 N86 1.343 . S
C49 C50 1.384 . S
C49 C51 1.384 . S
C49 H74 0.931 . S
C50 C49 1.384 . S
C50 C53 1.382 1_455 S
C51 C49 1.384 . S
C51 C52 1.381 . S
C51 H75 0.930 . S
C52 C51 1.381 . S
C52 C54 1.381 1_455 S
C52 C55 1.487 . S
C53 C50 1.382 1_655 S
C53 C54 1.387 . S
C53 H76 0.930 . S
C54 C52 1.381 1_655 S
C54 C53 1.387 . S
C54 H77 0.931 . S
C55 C48 1.399 . S
C55 C52 1.487 . S
C55 N87 1.343 . S
C56 C57 1.384 . S
C56 C58 1.384 . S
C56 H78 0.931 . S
C57 C56 1.384 . S
C57 C60 1.382 1_455 S
C58 C56 1.384 . S
C58 C59 1.381 . S
C58 H79 0.930 . S
C59 C58 1.381 . S
C59 C61 1.381 1_455 S
C59 C62 1.487 . S
C60 C57 1.382 1_655 S
C60 C61 1.387 . S
C60 H80 0.930 . S
C61 C59 1.381 1_655 S
C61 C60 1.387 . S
C61 H81 0.931 . S
C62 C59 1.487 . S
C62 C69 1.399 . S
C62 N87 1.343 . S
C63 C64 1.384 1_655 S
C63 C65 1.384 . S
C63 H82 0.931 . S
C64 C63 1.384 1_455 S
C64 C67 1.382 . S
C65 C63 1.384 . S
C65 C66 1.381 1_655 S
C65 H83 0.930 . S
C66 C65 1.381 1_455 S
C66 C68 1.381 . S
C66 C69 1.487 . S
C67 C64 1.382 . S
C67 C68 1.387 . S
C67 H84 0.930 . S
C68 C66 1.381 . S
C68 C67 1.387 . S
C68 H85 0.931 . S
C69 C62 1.399 . S
C69 C66 1.487 . S
C69 N86 1.343 . S
H70 C42 0.931 . S
H71 C44 0.930 . S
H72 C46 0.930 . S
H73 C47 0.931 . S
H74 C49 0.931 . S
H75 C51 0.930 . S
H76 C53 0.930 . S
H77 C54 0.931 . S
H78 C56 0.931 . S
H79 C58 0.930 . S
H80 C60 0.930 . S
H81 C61 0.931 . S
H82 C63 0.931 . S
H83 C65 0.930 . S
H84 C67 0.930 . S
H85 C68 0.931 . S
N86 C48 1.343 . S
N86 C69 1.343 . S
N87 C55 1.343 . S
N87 C62 1.343 . S
C88 C89 1.384 . S
C88 C90 1.384 . S
C88 H116 0.931 . S
C89 C88 1.384 . S
C89 C92 1.382 1_545 S
C90 C88 1.384 . S
C90 C91 1.381 . S
C90 H117 0.930 . S
C91 C90 1.381 . S
C91 C93 1.381 1_545 S
C91 C94 1.487 . S
C92 C89 1.382 1_565 S
C92 C93 1.387 . S
C92 H118 0.930 . S
C93 C91 1.381 1_565 S
C93 C92 1.387 . S
C93 H119 0.931 . S
C94 C91 1.487 . S
C94 C101 1.399 . S
C94 N132 1.343 . S
C95 C96 1.384 1_565 S
C95 C97 1.384 . S
C95 H120 0.931 . S
C96 C95 1.384 1_545 S
C96 C99 1.382 . S
C97 C95 1.384 . S
C97 C98 1.381 1_565 S
C97 H121 0.930 . S
C98 C97 1.381 1_545 S
C98 C100 1.381 . S
C98 C101 1.487 . S
C99 C96 1.382 . S
C99 C100 1.387 . S
C99 H122 0.930 . S
C100 C98 1.381 . S
C100 C99 1.387 . S
C100 H123 0.931 . S
C101 C94 1.399 . S
C101 C98 1.487 . S
C101 N133 1.343 . S
C102 C103 1.384 1_565 S
C102 C104 1.384 . S
C102 H124 0.931 . S
C103 C102 1.384 1_545 S
C103 C106 1.382 . S
C104 C102 1.384 . S
C104 C105 1.381 1_565 S
C104 H125 0.930 . S
C105 C104 1.381 1_545 S
C105 C107 1.381 . S
C105 C108 1.487 . S
C106 C103 1.382 . S
C106 C107 1.387 . S
C106 H126 0.930 . S
C107 C105 1.381 . S
C107 C106 1.387 . S
C107 H127 0.931 . S
C108 C105 1.487 . S
C108 C115 1.399 . S
C108 N133 1.343 . S
C109 C110 1.384 . S
C109 C111 1.384 . S
C109 H128 0.931 . S
C110 C109 1.384 . S
C110 C113 1.382 1_545 S
C111 C109 1.384 . S
C111 C112 1.381 . S
C111 H129 0.930 . S
C112 C111 1.381 . S
C112 C114 1.381 1_545 S
C112 C115 1.487 . S
C113 C110 1.382 1_565 S
C113 C114 1.387 . S
C113 H130 0.930 . S
C114 C112 1.381 1_565 S
C114 C113 1.387 . S
C114 H131 0.931 . S
C115 C108 1.399 . S
C115 C112 1.487 . S
C115 N132 1.343 . S
H116 C88 0.931 . S
H117 C90 0.930 . S
H118 C92 0.930 . S
H119 C93 0.931 . S
H120 C95 0.931 . S
H121 C97 0.930 . S
H122 C99 0.930 . S
H123 C100 0.931 . S
H124 C102 0.931 . S
H125 C104 0.930 . S
H126 C106 0.930 . S
H127 C107 0.931 . S
H128 C109 0.931 . S
H129 C111 0.930 . S
H130 C113 0.930 . S
H131 C114 0.931 . S
N132 C94 1.343 . S
N132 C115 1.343 . S
N133 C101 1.343 . S
N133 C108 1.343 . S
C134 C135 1.384 . S
C134 C136 1.384 . S
C134 H162 0.931 . S
C135 C134 1.384 . S
C135 C138 1.382 . S
C136 C134 1.384 . S
C136 C137 1.381 . S
C136 H163 0.930 . S
C137 C136 1.381 . S
C137 C139 1.381 . S
C137 C140 1.487 . S
C138 C135 1.382 . S
C138 C139 1.387 . S
C138 H164 0.930 . S
C139 C137 1.381 . S
C139 C138 1.387 . S
C139 H165 0.931 . S
C140 C137 1.487 . S
C140 C147 1.399 . S
C140 N178 1.343 . S
C141 C142 1.384 . S
C141 C143 1.384 . S
C141 H166 0.931 . S
C142 C141 1.384 . S
C142 C145 1.382 . S
C143 C141 1.384 . S
C143 C144 1.381 . S
C143 H167 0.930 . S
C144 C143 1.381 . S
C144 C146 1.381 . S
C144 C147 1.487 . S
C145 C142 1.382 . S
C145 C146 1.387 . S
C145 H168 0.930 . S
C146 C144 1.381 . S
C146 C145 1.387 . S
C146 H169 0.931 . S
C147 C140 1.399 . S
C147 C144 1.487 . S
C147 N179 1.343 . S
C148 C149 1.384 . S
C148 C150 1.384 . S
C148 H170 0.931 . S
C149 C148 1.384 . S
C149 C152 1.382 . S
C150 C148 1.384 . S
C150 C151 1.381 . S
C150 H171 0.930 . S
C151 C150 1.381 . S
C151 C153 1.381 . S
C151 C154 1.487 . S
C152 C149 1.382 . S
C152 C153 1.387 . S
C152 H172 0.930 . S
C153 C151 1.381 . S
C153 C152 1.387 . S
C153 H173 0.931 . S
C154 C151 1.487 . S
C154 C161 1.399 . S
C154 N179 1.343 . S
C155 C156 1.384 . S
C155 C157 1.384 . S
C155 H174 0.931 . S
C156 C155 1.384 . S
C156 C159 1.382 . S
C157 C155 1.384 . S
C157 C158 1.381 . S
C157 H175 0.930 . S
C158 C157 1.381 . S
C158 C160 1.381 . S
C158 C161 1.487 . S
C159 C156 1.382 . S
C159 C160 1.387 . S
C159 H176 0.930 . S
C160 C158 1.381 . S
C160 C159 1.387 . S
C160 H177 0.931 . S
C161 C154 1.399 . S
C161 C158 1.487 . S
C161 N178 1.343 . S
H162 C134 0.931 . S
H163 C136 0.930 . S
H164 C138 0.930 . S
H165 C139 0.931 . S
H166 C141 0.931 . S
H167 C143 0.930 . S
H168 C145 0.930 . S
H169 C146 0.931 . S
H170 C148 0.931 . S
H171 C150 0.930 . S
H172 C152 0.930 . S
H173 C153 0.931 . S
H174 C155 0.931 . S
H175 C157 0.930 . S
H176 C159 0.930 . S
H177 C160 0.931 . S
N178 C140 1.343 . S
N178 C161 1.343 . S
N179 C147 1.343 . S
N179 C154 1.343 . S
C180 C181 1.369 1_655 S
C180 C182 1.419 . S
C180 H184 0.930 . S
C181 C180 1.369 1_455 S
C181 C190 1.429 . S
C182 C180 1.419 . S
C182 C183 1.363 1_655 S
C182 H185 0.929 . S
C183 C182 1.363 1_455 S
C183 C189 1.428 . S
H184 C180 0.930 . S
H185 C182 0.929 . S
S186 N187 1.613 . S
S186 N188 1.610 . S
N187 S186 1.613 . S
N187 C190 1.350 . S
N188 S186 1.610 . S
N188 C189 1.351 . S
C189 C183 1.428 . S
C189 N188 1.351 . S
C189 C190 1.434 . S
C190 C181 1.429 . S
C190 N187 1.350 . S
C190 C189 1.434 . S
C191 C192 1.369 . S
C191 C193 1.419 . S
C191 H195 0.930 . S
C192 C191 1.369 . S
C192 C201 1.429 . S
C193 C191 1.419 . S
C193 C194 1.363 . S
C193 H196 0.929 . S
C194 C193 1.363 . S
C194 C200 1.428 . S
H195 C191 0.930 . S
H196 C193 0.929 . S
S197 N198 1.613 . S
S197 N199 1.610 . S
N198 S197 1.613 . S
N198 C201 1.350 . S
N199 S197 1.610 . S
N199 C200 1.351 . S
C200 C194 1.428 . S
C200 N199 1.351 . S
C200 C201 1.434 . S
C201 C192 1.429 . S
C201 N198 1.350 . S
C201 C200 1.434 . S
C202 C203 1.369 . S
C202 C204 1.419 . S
C202 H206 0.930 . S
C203 C202 1.369 . S
C203 C212 1.429 . S
C204 C202 1.419 . S
C204 C205 1.363 . S
C204 H207 0.929 . S
C205 C204 1.363 . S
C205 C211 1.428 . S
H206 C202 0.930 . S
H207 C204 0.929 . S
S208 N209 1.613 . S
S208 N210 1.610 . S
N209 S208 1.613 . S
N209 C212 1.350 . S
N210 S208 1.610 . S
N210 C211 1.351 . S
C211 C205 1.428 . S
C211 N210 1.351 . S
C211 C212 1.434 . S
C212 C203 1.429 . S
C212 N209 1.350 . S
C212 C211 1.434 . S
C213 C214 1.369 . S
C213 C215 1.419 . S
C213 H217 0.930 . S
C214 C213 1.369 . S
C214 C223 1.429 . S
C215 C213 1.419 . S
C215 C216 1.363 . S
C215 H218 0.929 . S
C216 C215 1.363 . S
C216 C222 1.428 . S
H217 C213 0.930 . S
H218 C215 0.929 . S
S219 N220 1.613 . S
S219 N221 1.610 . S
N220 S219 1.613 . S
N220 C223 1.350 . S
N221 S219 1.610 . S
N221 C222 1.351 . S
C222 C216 1.428 . S
C222 N221 1.351 . S
C222 C223 1.434 . S
C223 C214 1.429 . S
C223 N220 1.350 . S
C223 C222 1.434 . S
C224 C225 1.369 1_565 S
C224 C226 1.419 . S
C224 H228 0.930 . S
C225 C224 1.369 1_545 S
C225 C234 1.429 . S
C226 C224 1.419 . S
C226 C227 1.363 1_565 S
C226 H229 0.929 . S
C227 C226 1.363 1_545 S
C227 C233 1.428 . S
H228 C224 0.930 . S
H229 C226 0.929 . S
S230 N231 1.613 . S
S230 N232 1.610 . S
N231 S230 1.613 . S
N231 C234 1.350 . S
N232 S230 1.610 . S
N232 C233 1.351 . S
C233 C227 1.428 . S
C233 N232 1.351 . S
C233 C234 1.434 . S
C234 C225 1.429 . S
C234 N231 1.350 . S
C234 C233 1.434 . S
C235 C236 1.369 . S
C235 C237 1.419 . S
C235 H239 0.930 . S
C236 C235 1.369 . S
C236 C245 1.429 . S
C237 C235 1.419 . S
C237 C238 1.363 . S
C237 H240 0.929 . S
C238 C237 1.363 . S
C238 C244 1.428 . S
H239 C235 0.930 . S
H240 C237 0.929 . S
S241 N242 1.613 . S
S241 N243 1.610 . S
N242 S241 1.613 . S
N242 C245 1.350 . S
N243 S241 1.610 . S
N243 C244 1.351 . S
C244 C238 1.428 . S
C244 N243 1.351 . S
C244 C245 1.434 . S
C245 C236 1.429 . S
C245 N242 1.350 . S
C245 C244 1.434 . S
C246 C247 1.369 1_565 S
C246 C248 1.419 . S
C246 H250 0.930 . S
C247 C246 1.369 1_545 S
C247 C256 1.429 . S
C248 C246 1.419 . S
C248 C249 1.363 1_565 S
C248 H251 0.929 . S
C249 C248 1.363 1_545 S
C249 C255 1.428 . S
H250 C246 0.930 . S
H251 C248 0.929 . S
S252 N253 1.613 . S
S252 N254 1.610 . S
N253 S252 1.613 . S
N253 C256 1.350 . S
N254 S252 1.610 . S
N254 C255 1.351 . S
C255 C249 1.428 . S
C255 N254 1.351 . S
C255 C256 1.434 . S
C256 C247 1.429 . S
C256 N253 1.350 . S
C256 C255 1.434 . S
C257 C258 1.369 . S
C257 C259 1.419 1_554 S
C257 H261 0.930 . S
C258 C257 1.369 . S
C258 C267 1.427 1_554 S
C259 C257 1.419 1_556 S
C259 C260 1.363 . S
C259 H262 0.929 . S
C260 C259 1.363 . S
C260 C266 1.428 . S
H261 C257 0.930 . S
H262 C259 0.929 . S
S263 N264 1.613 . S
S263 N265 1.610 . S
N264 S263 1.613 . S
N264 C267 1.350 . S
N265 S263 1.610 . S
N265 C266 1.351 . S
C266 C260 1.428 . S
C266 N265 1.351 . S
C266 C267 1.434 . S
C267 C258 1.427 1_556 S
C267 N264 1.350 . S
C267 C266 1.434 . S
C268 C269 1.369 . S
C268 C270 1.419 . S
C268 H272 0.930 . S
C269 C268 1.369 . S
C269 C278 1.429 1_455 S
C270 C268 1.419 . S
C270 C271 1.363 . S
C270 H273 0.929 . S
C271 C270 1.363 . S
C271 C277 1.428 1_455 S
H272 C268 0.930 . S
H273 C270 0.929 . S
S274 N275 1.613 . S
S274 N276 1.610 . S
N275 S274 1.613 . S
N275 C278 1.350 . S
N276 S274 1.610 . S
N276 C277 1.351 . S
C277 C271 1.428 1_655 S
C277 N276 1.351 . S
C277 C278 1.434 . S
C278 C269 1.429 1_655 S
C278 N275 1.350 . S
C278 C277 1.434 . S
C279 C280 1.369 . S
C279 C281 1.419 . S
C279 H283 0.930 . S
C280 C279 1.369 . S
C280 C289 1.429 1_545 S
C281 C279 1.419 . S
C281 C282 1.363 . S
C281 H284 0.929 . S
C282 C281 1.363 . S
C282 C288 1.428 1_545 S
H283 C279 0.930 . S
H284 C281 0.929 . S
S285 N286 1.613 . S
S285 N287 1.610 . S
N286 S285 1.613 . S
N286 C289 1.350 . S
N287 S285 1.610 . S
N287 C288 1.351 . S
C288 C282 1.428 1_565 S
C288 N287 1.351 . S
C288 C289 1.434 . S
C289 C280 1.429 1_565 S
C289 N286 1.350 . S
C289 C288 1.434 . S
C290 C291 1.369 . S
C290 C292 1.419 . S
C290 H294 0.930 . S
C291 C290 1.369 . S
C291 C300 1.429 1_556 S
C292 C290 1.419 . S
C292 C293 1.363 . S
C292 H295 0.929 . S
C293 C292 1.363 . S
C293 C299 1.428 . S
H294 C290 0.930 . S
H295 C292 0.929 . S
S296 N297 1.613 . S
S296 N298 1.610 1_554 S
N297 S296 1.613 . S
N297 C300 1.350 . S
N298 S296 1.610 1_556 S
N298 C299 1.351 . S
C299 C293 1.428 . S
C299 N298 1.351 . S
C299 C300 1.434 1_556 S
C300 C291 1.429 1_554 S
C300 N297 1.350 . S
C300 C299 1.434 1_554 S
C301 C302 1.369 . S
C301 C303 1.419 . S
C301 H305 0.930 . S
C302 C301 1.369 . S
C302 C311 1.429 1_455 S
C303 C301 1.419 . S
C303 C304 1.363 . S
C303 H306 0.929 . S
C304 C303 1.363 . S
C304 C310 1.428 1_455 S
H305 C301 0.930 . S
H306 C303 0.929 . S
S307 N308 1.613 . S
S307 N309 1.610 . S
N308 S307 1.613 . S
N308 C311 1.350 . S
N309 S307 1.610 . S
N309 C310 1.351 . S
C310 C304 1.428 1_655 S
C310 N309 1.351 . S
C310 C311 1.434 . S
C311 C302 1.429 1_655 S
C311 N308 1.350 . S
C311 C310 1.434 . S
C183 C50 1.497 . S
C181 C3 1.492 . S
C192 C21 1.509 . S
C194 C89 1.529 . S
C203 C37 1.485 . S
C205 C156 1.514 . S
C214 C8 1.502 . S
C216 C57 1.502 . S
C227 C110 1.513 . S
C225 C23 1.490 . S
C236 C35 1.484 . S
C238 C135 1.511 . S
C249 C96 1.492 . S
C247 C31 1.490 . S
C258 C7 1.484 . S
C260 C149 1.508 . S
C271 C64 1.498 . S
C269 C17 1.495 . S
C282 C103 1.478 . S
C280 C36 1.478 . S
C293 C142 1.512 . S
C291 C9 1.483 1_556 S
C302 C22 1.502 . S
C304 C43 1.501 . S
