# Generated by pormake.
# Topology anh, (6,3)-cn, num edge types: 1
# Building blocks:
#     Node 0, Type 0, BuildingBlock: CUWYAW_clean_sbu_0, # of connection points: 6
#     Node 1, Type 0, BuildingBlock: CUWYAW_clean_sbu_0, # of connection points: 6
#     Node 2, Type 0, BuildingBlock: CUWYAW_clean_sbu_0, # of connection points: 6
#     Node 3, Type 1, BuildingBlock: BELTOD_clean_linker_0, # of connection points: 3
#     Node 4, Type 1, BuildingBlock: BELTOD_clean_linker_0, # of connection points: 3
#     Node 5, Type 1, BuildingBlock: BELTOD_clean_linker_0, # of connection points: 3
#     Node 6, Type 1, BuildingBlock: BELTOD_clean_linker_0, # of connection points: 3
#     Node 7, Type 1, BuildingBlock: BELTOD_clean_linker_0, # of connection points: 3
#     Node 8, Type 1, BuildingBlock: BELTOD_clean_linker_0, # of connection points: 3
#     Edge 9, Type (0, 1), BuildingBlock: TEMPAE_clean_linker_10, # of connection points: 2
#     Edge 10, Type (0, 1), BuildingBlock: TEMPAE_clean_linker_10, # of connection points: 2
#     Edge 11, Type (0, 1), BuildingBlock: TEMPAE_clean_linker_10, # of connection points: 2
#     Edge 12, Type (0, 1), BuildingBlock: TEMPAE_clean_linker_10, # of connection points: 2
#     Edge 13, Type (0, 1), BuildingBlock: TEMPAE_clean_linker_10, # of connection points: 2
#     Edge 14, Type (0, 1), BuildingBlock: TEMPAE_clean_linker_10, # of connection points: 2
#     Edge 15, Type (0, 1), BuildingBlock: TEMPAE_clean_linker_10, # of connection points: 2
#     Edge 16, Type (0, 1), BuildingBlock: TEMPAE_clean_linker_10, # of connection points: 2
#     Edge 17, Type (0, 1), BuildingBlock: TEMPAE_clean_linker_10, # of connection points: 2
#     Edge 18, Type (0, 1), BuildingBlock: TEMPAE_clean_linker_10, # of connection points: 2
#     Edge 19, Type (0, 1), BuildingBlock: TEMPAE_clean_linker_10, # of connection points: 2
#     Edge 20, Type (0, 1), BuildingBlock: TEMPAE_clean_linker_10, # of connection points: 2
#     Edge 21, Type (0, 1), BuildingBlock: TEMPAE_clean_linker_10, # of connection points: 2
#     Edge 22, Type (0, 1), BuildingBlock: TEMPAE_clean_linker_10, # of connection points: 2
#     Edge 23, Type (0, 1), BuildingBlock: TEMPAE_clean_linker_10, # of connection points: 2
#     Edge 24, Type (0, 1), BuildingBlock: TEMPAE_clean_linker_10, # of connection points: 2
#     Edge 25, Type (0, 1), BuildingBlock: TEMPAE_clean_linker_10, # of connection points: 2
#     Edge 26, Type (0, 1), BuildingBlock: TEMPAE_clean_linker_10, # of connection points: 2
# Relax obj value: 0.248
# Max RMSD: 0.180
# Mean RMSD: 0.148
data_MOF--net-anh--node1-CUWYAW_clean_sbu_0--node2-BELTOD_clean_linker_0--edge1-TEMPAE_clean_linker_10
_symmetry_space_group_name_H-M    P1
_symmetry_Int_Tables_number       1
_symmetry_cell_setting            triclinic
loop_
_symmetry_equiv_pos_as_xyz
'x, y, z'
_cell_length_a     36.831695
_cell_length_b     36.681671
_cell_length_c     62.289477
_cell_angle_alpha  90.158245
_cell_angle_beta   89.745092
_cell_angle_gamma 120.17864
loop_
_atom_site_label
_atom_site_type_symbol
_atom_site_fract_x
_atom_site_fract_y
_atom_site_fract_z
_atom_type_partial_charge
C0 C 1.00222 0.43912 0.15598 0.0
Eu1 Eu 0.04663 0.51834 0.16501 0.0
C2 C 0.96046 0.41592 0.1467 0.0
C3 C 0.93163 0.37741 0.15586 0.0
C4 C 0.88932 0.35982 0.15129 0.0
C5 C 0.87536 0.38067 0.13767 0.0
C6 C 0.90432 0.41788 0.12735 0.0
C7 C 0.947 0.4354 0.13175 0.0
C8 C 0.06893 0.55038 0.20548 0.0
C9 C 0.98183 0.55993 0.16046 0.0
C10 C 0.13295 0.68262 0.17305 0.0
Eu11 Eu 0.08212 0.60501 0.16516 0.0
C12 C 0.17818 0.70335 0.16959 0.0
C13 C 0.19496 0.70413 0.14913 0.0
C14 C 0.23821 0.72475 0.1462 0.0
C15 C 0.2648 0.74603 0.16351 0.0
C16 C 0.24793 0.739 0.18439 0.0
C17 C 0.2048 0.7183 0.18734 0.0
C18 C 0.06365 0.57187 0.12597 0.0
C19 C 0.14821 0.56454 0.15987 0.0
O20 O 1.03154 0.46635 0.14326 0.0
O21 O 1.00328 0.45415 0.17518 0.0
O22 O 0.07705 0.52291 0.19711 0.0
O23 O 0.04959 0.56037 0.19208 0.0
O24 O 0.98784 0.52723 0.15644 0.0
O25 O 1.01496 0.59511 0.16741 0.0
O26 O 0.11896 0.6541 0.18822 0.0
O27 O 0.10968 0.67067 0.15577 0.0
O28 O 0.05468 0.60028 0.13201 0.0
O29 O 0.082 0.56358 0.14025 0.0
O30 O 0.14395 0.59883 0.16155 0.0
O31 O 0.11322 0.52737 0.16065 0.0
H32 H 0.94149 0.36247 0.16764 0.0
H33 H 0.86725 0.33123 0.15949 0.0
H34 H 0.89387 0.43426 0.11686 0.0
H35 H 0.96902 0.46546 0.12459 0.0
H36 H 0.17492 0.69045 0.13526 0.0
H37 H 0.25067 0.7286 0.13004 0.0
H38 H 0.26755 0.754 0.19824 0.0
H39 H 0.19228 0.71564 0.2034 0.0
C40 C 0.53279 0.11918 0.48657 0.0
Eu41 Eu 0.57029 0.07993 0.49886 0.0
C42 C 0.55323 0.16366 0.48121 0.0
C43 C 0.58228 0.19374 0.49547 0.0
C44 C 0.60344 0.23595 0.48986 0.0
C45 C 0.59555 0.24852 0.47001 0.0
C46 C 0.56972 0.21819 0.45495 0.0
C47 C 0.54841 0.17578 0.4606 0.0
C48 C 0.58698 0.06839 0.54021 0.0
C49 C 0.67652 0.14398 0.49424 0.0
C50 C 0.64675 0.98753 0.49663 0.0
Eu51 Eu 0.62204 0.04068 0.49473 0.0
C52 C 0.61662 0.94267 0.49329 0.0
C53 C 0.60668 0.9261 0.47234 0.0
C54 C 0.57674 0.88396 0.46914 0.0
C55 C 0.55887 0.85748 0.48696 0.0
C56 C 0.56302 0.8755 0.50735 0.0
C57 C 0.59246 0.9177 0.51058 0.0
C58 C 0.60948 0.06946 0.45813 0.0
C59 C 0.51536 0.97671 0.49189 0.0
O60 O 0.54224 0.09752 0.47343 0.0
O61 O 0.53381 0.10992 0.50675 0.0
O62 O 0.56405 0.08435 0.53483 0.0
O63 O 0.59983 0.05823 0.52357 0.0
O64 O 0.63821 0.14009 0.49323 0.0
O65 O 0.67846 0.10909 0.49773 0.0
O66 O 0.64139 1.00423 0.51415 0.0
O67 O 0.65398 1.01111 0.47969 0.0
O68 O 0.64532 0.07319 0.46296 0.0
O69 O 0.58212 0.0488 0.47215 0.0
O70 O 0.55352 0.98028 0.49116 0.0
O71 O 0.51364 1.0116 0.4955 0.0
H72 H 0.5879 0.18494 0.51117 0.0
H73 H 0.62271 0.25897 0.50188 0.0
H74 H 0.5633 0.22763 0.43963 0.0
H75 H 0.52753 0.15255 0.44909 0.0
H76 H 0.62306 0.94514 0.45846 0.0
H77 H 0.5731 0.87071 0.45318 0.0
H78 H 0.54851 0.85596 0.52135 0.0
H79 H 0.59741 0.93019 0.52675 0.0
C80 C 0.6749 0.58858 0.81058 0.0
Eu81 Eu 0.60233 0.55339 0.82879 0.0
C82 C 0.70501 0.57453 0.80846 0.0
C83 C 0.71248 0.55505 0.82582 0.0
C84 C 0.73761 0.53734 0.82295 0.0
C85 C 0.75509 0.53879 0.80272 0.0
C86 C 0.74609 0.55633 0.78513 0.0
C87 C 0.72091 0.57419 0.78801 0.0
C88 C 0.58441 0.53874 0.87209 0.0
C89 C 0.56176 0.44794 0.82723 0.0
C90 C 0.43644 0.47665 0.83423 0.0
Eu91 Eu 0.51427 0.50299 0.83003 0.0
C92 C 0.42029 0.50343 0.8268 0.0
C93 C 0.39654 0.49281 0.80791 0.0
C94 C 0.38206 0.51884 0.8005 0.0
C95 C 0.38798 0.55289 0.81331 0.0
C96 C 0.42115 0.56986 0.82798 0.0
C97 C 0.435 0.54363 0.83591 0.0
C98 C 0.54454 0.5148 0.79041 0.0
C99 C 0.55768 0.61051 0.82529 0.0
O100 O 0.64002 0.56401 0.80044 0.0
O101 O 0.66913 0.59937 0.82986 0.0
O102 O 0.6218 0.56003 0.86392 0.0
O103 O 0.55749 0.52497 0.85719 0.0
O104 O 0.59509 0.48614 0.82368 0.0
O105 O 0.5262 0.44644 0.83321 0.0
O106 O 0.46153 0.49043 0.85084 0.0
O107 O 0.45046 0.46298 0.81878 0.0
O108 O 0.51864 0.47774 0.79782 0.0
O109 O 0.55467 0.54297 0.80451 0.0
O110 O 0.5228 0.57219 0.82627 0.0
O111 O 0.59411 0.61171 0.82663 0.0
H112 H 0.69894 0.55342 0.84152 0.0
H113 H 0.7448 0.52393 0.83666 0.0
H114 H 0.75975 0.55757 0.76952 0.0
H115 H 0.71365 0.58755 0.77432 0.0
H116 H 0.38775 0.46371 0.79944 0.0
H117 H 0.35918 0.50719 0.78766 0.0
H118 H 0.42813 0.59788 0.83706 0.0
H119 H 0.45582 0.55428 0.84963 0.0
P120 P 0.59515 0.03366 0.23918 0.0
H121 H 0.5658 0.98016 0.20215 0.0
H122 H 0.51139 0.96979 0.17771 0.0
H123 H 0.46322 1.02286 0.22471 0.0
H124 H 0.51515 1.02839 0.24965 0.0
H125 H 0.67168 0.07366 0.21273 0.0
H126 H 0.70464 0.13939 0.19222 0.0
H127 H 0.60205 0.15968 0.20914 0.0
H128 H 0.56911 0.0942 0.22869 0.0
H129 H 0.55019 0.98477 0.2766 0.0
H130 H 0.62891 0.11632 0.25999 0.0
O131 O 0.62086 1.00702 0.23852 0.0
H132 H 0.53597 1.00568 0.31157 0.0
H133 H 0.61128 0.13683 0.29349 0.0
C134 C 0.54447 1.00472 0.22768 0.0
C135 C 0.54206 0.98735 0.20752 0.0
C136 C 0.51179 0.98353 0.19315 0.0
C137 C 0.48357 0.99775 0.19856 0.0
C138 C 0.48429 1.01204 0.21957 0.0
C139 C 0.51369 1.01428 0.23418 0.0
C140 C 0.61832 0.0793 0.22236 0.0
C141 C 0.65618 0.09204 0.21172 0.0
C142 C 0.67491 0.12962 0.20015 0.0
C143 C 0.6562 0.15503 0.1995 0.0
C144 C 0.61708 0.14077 0.2092 0.0
C145 C 0.59822 0.1031 0.22042 0.0
C146 C 0.59038 0.04885 0.26571 0.0
C147 C 0.56407 1.01797 0.2804 0.0
C148 C 0.5549 1.02991 0.29998 0.0
C149 C 0.57192 0.07287 0.30488 0.0
C150 C 0.59752 0.10355 0.28991 0.0
C151 C 0.60765 0.09166 0.27073 0.0
P152 P 0.7211 0.62054 0.57741 0.0
H153 H 0.74228 0.58914 0.54003 0.0
H154 H 0.69944 0.52533 0.51925 0.0
H155 H 0.60879 0.47504 0.57095 0.0
H156 H 0.65166 0.53828 0.59182 0.0
H157 H 0.75505 0.7046 0.55832 0.0
H158 H 0.72074 0.7355 0.53734 0.0
H159 H 0.60646 0.61448 0.53581 0.0
H160 H 0.63954 0.58437 0.55681 0.0
H161 H 0.73705 0.5921 0.61729 0.0
H162 H 0.65663 0.63807 0.59474 0.0
O163 O 0.77348 0.64696 0.57729 0.0
H164 H 0.69815 0.57118 0.6511 0.0
H165 H 0.61786 0.61732 0.62857 0.0
C166 C 0.70086 0.56825 0.56759 0.0
C167 C 0.71415 0.56369 0.54725 0.0
C168 C 0.689 0.52795 0.53518 0.0
C169 C 0.65037 0.49633 0.54339 0.0
C170 C 0.63831 0.49947 0.56431 0.0
C171 C 0.66349 0.53528 0.5764 0.0
C172 C 0.70003 0.6423 0.55903 0.0
C173 C 0.72297 0.68471 0.55305 0.0
C174 C 0.70353 0.70214 0.54108 0.0
C175 C 0.66121 0.67701 0.53512 0.0
C176 C 0.63932 0.63409 0.53997 0.0
C177 C 0.65843 0.61696 0.55204 0.0
C178 C 0.70037 0.61734 0.60373 0.0
C179 C 0.71198 0.59894 0.6199 0.0
C180 C 0.6894 0.58651 0.63901 0.0
C181 C 0.65514 0.59271 0.64227 0.0
C182 C 0.64395 0.61191 0.62624 0.0
C183 C 0.66656 0.62429 0.60705 0.0
P184 P 0.07423 0.57896 0.90534 0.0
H185 H 0.08736 0.57862 0.85997 0.0
H186 H 0.10632 0.53604 0.83748 0.0
H187 H 0.12244 0.47818 0.89405 0.0
H188 H 0.10169 0.51872 0.91642 0.0
H189 H 1.01635 0.60505 0.88914 0.0
H190 H 0.95117 0.5648 0.86872 0.0
H191 H 0.95441 0.4502 0.87927 0.0
H192 H 1.01758 0.48946 0.90071 0.0
H193 H 0.14142 0.6021 0.9361 0.0
H194 H 1.00555 0.52845 0.93518 0.0
O195 O 0.09752 0.63066 0.90063 0.0
H196 H 0.14023 0.57796 0.97309 0.0
H197 H 1.00506 0.50249 0.97053 0.0
C198 C 0.09656 0.5544 0.88987 0.0
C199 C 0.09524 0.55691 0.86751 0.0
C200 C 0.1036 0.53101 0.8547 0.0
C201 C 0.11617 0.50461 0.86426 0.0
C202 C 0.11274 0.49848 0.88647 0.0
C203 C 0.10341 0.52364 0.89928 0.0
C204 C 1.02204 0.55034 0.89569 0.0
C205 C 1.00223 0.57119 0.88765 0.0
C206 C 0.96533 0.5483 0.87616 0.0
C207 C 0.94909 0.505 0.87253 0.0
C208 C 0.96691 0.48358 0.88208 0.0
C209 C 1.00306 0.50619 0.89398 0.0
C210 C 0.07374 0.56702 0.9329 0.0
C211 C 0.11167 0.58065 0.94368 0.0
C212 C 0.1111 0.56589 0.96429 0.0
C213 C 0.07263 0.53721 0.97384 0.0
C214 C 1.03502 0.52315 0.96287 0.0
C215 C 1.03548 0.53872 0.94272 0.0
P216 P 0.10287 0.55323 0.44307 0.0
H217 H 0.17812 0.58057 0.47232 0.0
H218 H 0.24276 0.64756 0.47987 0.0
H219 H 0.19404 0.7145 0.44512 0.0
H220 H 0.12943 0.64705 0.43707 0.0
H221 H 0.06477 0.45893 0.44537 0.0
H222 H 0.99676 0.39785 0.45425 0.0
H223 H 0.9496 0.4799 0.47129 0.0
H224 H 1.01893 0.54225 0.46243 0.0
H225 H 0.16246 0.60163 0.40843 0.0
H226 H 1.02832 0.52041 0.4138 0.0
O227 O 0.13056 0.52868 0.44115 0.0
H228 H 0.15563 0.60656 0.36958 0.0
H229 H 1.02168 0.52447 0.3749 0.0
C230 C 0.14623 0.60658 0.45436 0.0
C231 C 0.18012 0.60936 0.46661 0.0
C232 C 0.21822 0.64851 0.47083 0.0
C233 C 0.22535 0.68811 0.46326 0.0
C234 C 0.19105 0.68571 0.45153 0.0
C235 C 0.15301 0.64635 0.44709 0.0
C236 C 0.05001 0.50753 0.45375 0.0
C237 C 1.04082 0.46497 0.45154 0.0
C238 C 1.00074 0.42892 0.45653 0.0
C239 C 0.96603 0.43222 0.46381 0.0
C240 C 0.97461 0.47468 0.46591 0.0
C241 C 1.01519 0.51114 0.46096 0.0
C242 C 0.09594 0.56136 0.41454 0.0
C243 C 0.13137 0.58553 0.40144 0.0
C244 C 0.12749 0.5882 0.37908 0.0
C245 C 0.08808 0.56597 0.36897 0.0
C246 C 0.05257 0.54189 0.38206 0.0
C247 C 0.05639 0.53978 0.40449 0.0
P248 P 0.5952 0.04734 0.77834 0.0
H249 H 0.62146 0.10948 0.81562 0.0
H250 H 0.61591 0.17197 0.82357 0.0
H251 H 0.53296 0.14312 0.7697 0.0
H252 H 0.53909 0.08091 0.76181 0.0
H253 H 0.64995 1.01298 0.79385 0.0
H254 H 0.64124 0.94408 0.80163 0.0
H255 H 0.50834 0.88663 0.79113 0.0
H256 H 0.51716 0.95686 0.78354 0.0
H257 H 0.63041 0.11334 0.74527 0.0
H258 H 0.55199 0.97793 0.7456 0.0
O259 O 0.64708 0.07617 0.78179 0.0
H260 H 0.62967 0.11292 0.70584 0.0
H261 H 0.55193 0.97767 0.70618 0.0
C262 C 0.57989 0.08768 0.78826 0.0
C263 C 0.60082 0.11534 0.80575 0.0
C264 C 0.59781 0.15231 0.81026 0.0
C265 C 0.57395 0.16496 0.79749 0.0
C266 C 0.55233 0.13665 0.78021 0.0
C267 C 0.55524 0.09958 0.77577 0.0
C268 C 0.58433 0.99282 0.78838 0.0
C269 C 0.61832 0.98631 0.79363 0.0
C270 C 0.6133 0.94566 0.79812 0.0
C271 C 0.5739 0.90765 0.79729 0.0
C272 C 0.53961 0.91386 0.79203 0.0
C273 C 0.54459 0.95498 0.78785 0.0
C274 C 0.59111 0.04573 0.74883 0.0
C275 C 0.61277 0.08347 0.73699 0.0
C276 C 0.61251 0.08328 0.71437 0.0
C277 C 0.5909 0.04526 0.70286 0.0
C278 C 0.56902 1.00746 0.71459 0.0
C279 C 0.56899 1.00768 0.73727 0.0
P280 P 0.55176 0.5337 0.11222 0.0
H281 H 0.58546 0.50086 0.14719 0.0
H282 H 0.65317 0.50674 0.15508 0.0
H283 H 0.71181 0.60283 0.10669 0.0
H284 H 0.64339 0.59631 0.09874 0.0
H285 H 0.45831 0.47807 0.11497 0.0
H286 H 0.39788 0.48449 0.12305 0.0
H287 H 0.47879 0.61713 0.1356 0.0
H288 H 0.54049 0.60971 0.12773 0.0
H289 H 0.57233 0.48929 0.07929 0.0
H290 H 0.53802 0.58549 0.07944 0.0
O291 O 0.52834 0.48171 0.11616 0.0
H292 H 0.57192 0.48854 0.04005 0.0
H293 H 0.53763 0.58502 0.03993 0.0
C294 C 0.60709 0.54869 0.12249 0.0
C295 C 0.6127 0.5242 0.13843 0.0
C296 C 0.65252 0.52717 0.14279 0.0
C297 C 0.69041 0.55511 0.13164 0.0
C298 C 0.68504 0.58076 0.11614 0.0
C299 C 0.64492 0.57733 0.11159 0.0
C300 C 0.50635 0.54277 0.12116 0.0
C301 C 0.46412 0.50886 0.11987 0.0
C302 C 0.42806 0.51288 0.12438 0.0
C303 C 0.43051 0.55162 0.13029 0.0
C304 C 0.47309 0.58608 0.13145 0.0
C305 C 0.5096 0.58189 0.12692 0.0
C306 C 0.55495 0.53723 0.08266 0.0
C307 C 0.56476 0.51044 0.07092 0.0
C308 C 0.5642 0.50981 0.0483 0.0
C309 C 0.55429 0.53637 0.03645 0.0
C310 C 0.54556 0.56411 0.04826 0.0
C311 C 0.54574 0.56441 0.07101 0.0
C312 C 0.20923 0.55128 0.17134 0.0
C313 C 0.19176 0.56685 0.15612 0.0
C314 C 0.24763 0.55035 0.16773 0.0
C315 C 0.27065 0.56403 0.14792 0.0
C316 C 0.25284 0.57938 0.13238 0.0
C317 C 0.21492 0.58102 0.13664 0.0
C318 C 0.26381 0.53463 0.1855 0.0
C319 C 0.27337 0.59312 0.11065 0.0
C320 C 0.39071 0.59202 0.14338 0.0
C321 C 0.38952 0.55529 0.13483 0.0
C322 C 0.3536 0.59526 0.14755 0.0
C323 C 0.31189 0.56123 0.14335 0.0
C324 C 0.31025 0.5242 0.13474 0.0
C325 C 0.34773 0.52175 0.13072 0.0
C326 C 0.35922 0.63579 0.15675 0.0
C327 C 0.26814 0.48617 0.1298 0.0
H328 H 0.19271 0.53974 0.18645 0.0
H329 H 0.20262 0.59241 0.12421 0.0
H330 H 0.26826 0.50859 0.17959 0.0
H331 H 0.29495 0.56046 0.19081 0.0
H332 H 0.2423 0.52328 0.19958 0.0
H333 H 0.25781 0.60601 0.10045 0.0
H334 H 0.30697 0.61743 0.11247 0.0
H335 H 0.27219 0.5658 0.10227 0.0
H336 H 0.42103 0.61893 0.14711 0.0
H337 H 0.34347 0.49268 0.12406 0.0
H338 H 0.34238 0.62941 0.17234 0.0
H339 H 0.34517 0.64915 0.14582 0.0
H340 H 0.39278 0.6597 0.15928 0.0
H341 H 0.25086 0.47246 0.14501 0.0
H342 H 0.27109 0.46139 0.12102 0.0
H343 H 0.24889 0.49543 0.12007 0.0
C344 C 0.75548 0.18958 0.48215 0.0
C345 C 0.71823 0.18749 0.49011 0.0
C346 C 0.79383 0.22866 0.47756 0.0
C347 C 0.79788 0.26904 0.48156 0.0
C348 C 0.76047 0.26723 0.48979 0.0
C349 C 0.72191 0.22757 0.49347 0.0
C350 C 0.83033 0.22651 0.46796 0.0
C351 C 0.76104 0.30768 0.49488 0.0
C352 C 0.91337 0.36879 0.48823 0.0
C353 C 0.92206 0.39176 0.46875 0.0
C354 C 0.87399 0.33056 0.49263 0.0
C355 C 0.84058 0.3122 0.47724 0.0
C356 C 0.84927 0.33535 0.4575 0.0
C357 C 0.88879 0.37382 0.45364 0.0
C358 C 0.86815 0.30962 0.51414 0.0
C359 C 0.81716 0.31869 0.43981 0.0
H360 H 0.75452 0.16007 0.47894 0.0
H361 H 0.69451 0.22815 0.49942 0.0
H362 H 0.84174 0.24636 0.45331 0.0
H363 H 0.8567 0.23923 0.47954 0.0
H364 H 0.82193 0.19378 0.4637 0.0
H365 H 0.73198 0.30202 0.50327 0.0
H366 H 0.78856 0.32824 0.50506 0.0
H367 H 0.76423 0.32507 0.47979 0.0
H368 H 0.93776 0.38082 0.50031 0.0
H369 H 0.89389 0.38964 0.43832 0.0
H370 H 0.86481 0.27806 0.51196 0.0
H371 H 0.83883 0.30484 0.52184 0.0
H372 H 0.89492 0.32838 0.52511 0.0
H373 H 0.817 0.29124 0.43218 0.0
H374 H 0.82414 0.34284 0.42727 0.0
H375 H 0.78516 0.30761 0.44625 0.0
C376 C 0.58739 0.68469 0.80729 0.0
C377 C 0.55724 0.65272 0.82096 0.0
C378 C 0.58876 0.7241 0.80303 0.0
C379 C 0.56045 0.73493 0.81319 0.0
C380 C 0.53018 0.70297 0.82725 0.0
C381 C 0.52855 0.66304 0.83061 0.0
C382 C 0.62085 0.7543 0.78725 0.0
C383 C 0.4993 0.71114 0.83916 0.0
C384 C 0.59476 0.8569 0.81679 0.0
C385 C 0.56943 0.86294 0.80165 0.0
C386 C 0.59152 0.81655 0.8209 0.0
C387 C 0.56299 0.77913 0.80936 0.0
C388 C 0.53756 0.78502 0.79391 0.0
C389 C 0.54065 0.82558 0.79053 0.0
C390 C 0.61886 0.81404 0.83808 0.0
C391 C 0.50778 0.74855 0.78002 0.0
H392 H 0.61009 0.67859 0.79941 0.0
H393 H 0.50535 0.64028 0.84152 0.0
H394 H 0.60574 0.76516 0.77549 0.0
H395 H 0.64509 0.78252 0.79587 0.0
H396 H 0.63669 0.73984 0.77837 0.0
H397 H 0.4809 0.68629 0.85123 0.0
H398 H 0.51603 0.74217 0.84739 0.0
H399 H 0.47713 0.71242 0.8276 0.0
H400 H 0.61715 0.88402 0.82597 0.0
H401 H 0.5209 0.82812 0.7785 0.0
H402 H 0.64192 0.80675 0.83069 0.0
H403 H 0.59938 0.78811 0.84943 0.0
H404 H 0.6363 0.84395 0.84725 0.0
H405 H 0.52615 0.7429 0.76763 0.0
H406 H 0.4848 0.75485 0.77179 0.0
H407 H 0.49037 0.71921 0.78957 0.0
C408 C 0.92121 0.57505 0.17105 0.0
C409 C 0.93872 0.55847 0.15624 0.0
C410 C 0.88229 0.57493 0.16742 0.0
C411 C 0.85889 0.55948 0.14788 0.0
C412 C 0.87723 0.54405 0.13254 0.0
C413 C 0.91531 0.54288 0.13696 0.0
C414 C 0.8657 0.59093 0.18501 0.0
C415 C 0.85704 0.52967 0.11085 0.0
C416 C 0.73647 0.52207 0.14456 0.0
C417 C 0.73394 0.55665 0.13585 0.0
C418 C 0.77558 0.52269 0.14838 0.0
C419 C 0.81573 0.5588 0.14369 0.0
C420 C 0.81362 0.59393 0.13498 0.0
C421 C 0.774 0.59245 0.13127 0.0
C422 C 0.77379 0.48397 0.15773 0.0
C423 C 0.85371 0.63409 0.12971 0.0
H424 H 0.93776 0.58765 0.18601 0.0
H425 H 0.92756 0.53074 0.12479 0.0
H426 H 0.85882 0.615 0.17864 0.0
H427 H 0.83573 0.56445 0.19122 0.0
H428 H 0.88808 0.60486 0.19856 0.0
H429 H 0.87443 0.51914 0.10031 0.0
H430 H 0.82425 0.50339 0.11272 0.0
H431 H 0.85566 0.55594 0.1028 0.0
H432 H 0.70739 0.49347 0.14824 0.0
H433 H 0.77477 0.62027 0.12493 0.0
H434 H 0.79154 0.4922 0.17303 0.0
H435 H 0.78904 0.472 0.14661 0.0
H436 H 0.74109 0.45829 0.16084 0.0
H437 H 0.86897 0.6507 0.14482 0.0
H438 H 0.84796 0.6557 0.1197 0.0
H439 H 0.87603 0.62715 0.12114 0.0
C440 C 0.43988 0.9317 0.47546 0.0
C441 C 0.47355 0.93361 0.48745 0.0
C442 C 0.40124 0.89292 0.47093 0.0
C443 C 0.39287 0.85302 0.47928 0.0
C444 C 0.42659 0.85481 0.49166 0.0
C445 C 0.46584 0.89386 0.49507 0.0
C446 C 0.36923 0.8949 0.45675 0.0
C447 C 0.42108 0.81505 0.50175 0.0
C448 C 0.2734 0.75941 0.48386 0.0
C449 C 0.26806 0.73063 0.46721 0.0
C450 C 0.31272 0.79786 0.48799 0.0
C451 C 0.34963 0.81034 0.47515 0.0
C452 C 0.34418 0.78151 0.45816 0.0
C453 C 0.30467 0.74292 0.45462 0.0
C454 C 0.31475 0.82524 0.50654 0.0
C455 C 0.38009 0.79199 0.44299 0.0
H456 H 0.44407 0.96099 0.46903 0.0
H457 H 0.4903 0.89328 0.5044 0.0
H458 H 0.35768 0.86964 0.44441 0.0
H459 H 0.34185 0.88972 0.46656 0.0
H460 H 0.38223 0.92584 0.44854 0.0
H461 H 0.44747 0.82131 0.51259 0.0
H462 H 0.39125 0.79915 0.51102 0.0
H463 H 0.41903 0.79288 0.48903 0.0
H464 H 0.24653 0.75162 0.49403 0.0
H465 H 0.30239 0.72226 0.44158 0.0
H466 H 0.31998 0.85588 0.50043 0.0
H467 H 0.34169 0.83198 0.51705 0.0
H468 H 0.2855 0.81036 0.5163 0.0
H469 H 0.3851 0.81866 0.43259 0.0
H470 H 0.37392 0.76483 0.43259 0.0
H471 H 0.40963 0.80224 0.45194 0.0
C472 C 0.52822 0.36527 0.82507 0.0
C473 C 0.56388 0.40643 0.82335 0.0
C474 C 0.52947 0.32708 0.82086 0.0
C475 C 0.56741 0.32788 0.81465 0.0
C476 C 0.60351 0.36934 0.81285 0.0
C477 C 0.60133 0.40704 0.81706 0.0
C478 C 0.4895 0.28527 0.82316 0.0
C479 C 0.64504 0.37415 0.80614 0.0
C480 C 0.58029 0.22682 0.82235 0.0
C481 C 0.57221 0.20686 0.80188 0.0
C482 C 0.57878 0.26488 0.82657 0.0
C483 C 0.56929 0.28608 0.81015 0.0
C484 C 0.56144 0.26646 0.78943 0.0
C485 C 0.56267 0.22811 0.78569 0.0
C486 C 0.58721 0.28244 0.84904 0.0
C487 C 0.55118 0.28592 0.77085 0.0
H488 H 0.4986 0.36267 0.82966 0.0
H489 H 0.62957 0.4375 0.81527 0.0
H490 H 0.48357 0.26626 0.80834 0.0
H491 H 0.49282 0.26726 0.83654 0.0
H492 H 0.46185 0.28896 0.82641 0.0
H493 H 0.67075 0.40761 0.80613 0.0
H494 H 0.6537 0.35595 0.81709 0.0
H495 H 0.64229 0.36101 0.78977 0.0
H496 H 0.58729 0.21226 0.83556 0.0
H497 H 0.55661 0.21513 0.76962 0.0
H498 H 0.55934 0.28328 0.85524 0.0
H499 H 0.61389 0.31536 0.84894 0.0
H500 H 0.59459 0.26354 0.86022 0.0
H501 H 0.51907 0.28089 0.77305 0.0
H502 H 0.55245 0.27194 0.75523 0.0
H503 H 0.57321 0.32046 0.77027 0.0
C504 C 0.59419 0.81772 0.48054 0.0
C505 C 0.557 0.81668 0.48669 0.0
C506 C 0.60477 0.78956 0.48919 0.0
C507 C 0.57589 0.75753 0.50297 0.0
C508 C 0.53611 0.75304 0.50728 0.0
C509 C 0.52714 0.7832 0.49916 0.0
C510 C 0.64867 0.79705 0.48537 0.0
C511 C 0.50505 0.7191 0.52208 0.0
C512 C 0.61229 0.68001 0.50895 0.0
C513 C 0.63753 0.69617 0.52717 0.0
C514 C 0.58804 0.69713 0.50203 0.0
C515 C 0.58953 0.73097 0.51364 0.0
C516 C 0.61284 0.74541 0.53289 0.0
C517 C 0.63691 0.72789 0.53933 0.0
C518 C 0.56333 0.68129 0.48147 0.0
C519 C 0.6156 0.78153 0.54591 0.0
H520 H 0.61787 0.84404 0.4713 0.0
H521 H 0.49878 0.78297 0.50416 0.0
H522 H 0.66575 0.80403 0.50084 0.0
H523 H 0.64724 0.76842 0.47854 0.0
H524 H 0.66733 0.82386 0.4743 0.0
H525 H 0.47393 0.71708 0.52187 0.0
H526 H 0.50103 0.68802 0.51752 0.0
H527 H 0.51719 0.72588 0.53876 0.0
H528 H 0.61232 0.65471 0.49991 0.0
H529 H 0.65543 0.73911 0.55388 0.0
H530 H 0.57986 0.70455 0.46847 0.0
H531 H 0.53179 0.67789 0.48338 0.0
H532 H 0.55958 0.65054 0.47639 0.0
H533 H 0.64433 0.81112 0.54108 0.0
H534 H 0.61837 0.77668 0.5633 0.0
H535 H 0.58815 0.78577 0.54356 0.0
C536 C 0.78162 0.49049 0.79424 0.0
C537 C 0.78884 0.52956 0.80156 0.0
C538 C 0.81019 0.4773 0.79926 0.0
C539 C 0.84476 0.50332 0.81246 0.0
C540 C 0.85406 0.54467 0.81793 0.0
C541 C 0.82599 0.55749 0.81199 0.0
C542 C 0.80113 0.434 0.79256 0.0
C543 C 0.89028 0.5733 0.83242 0.0
C544 C 0.8763 0.46919 0.86098 0.0
C545 C 0.9183 0.48496 0.85585 0.0
C546 C 0.84911 0.46887 0.84546 0.0
C547 C 0.86536 0.48499 0.82473 0.0
C548 C 0.90628 0.49473 0.81881 0.0
C549 C 0.93253 0.49421 0.83465 0.0
C550 C 0.8058 0.45908 0.8525 0.0
C551 C 0.9243 0.51216 0.79691 0.0
H552 H 0.7525 0.46927 0.78611 0.0
H553 H 0.8308 0.58775 0.81744 0.0
H554 H 0.83044 0.43497 0.78732 0.0
H555 H 0.78844 0.41218 0.80644 0.0
H556 H 0.77785 0.42104 0.77934 0.0
H557 H 0.89356 0.60497 0.83426 0.0
H558 H 0.88534 0.55901 0.84862 0.0
H559 H 0.92024 0.57746 0.82603 0.0
H560 H 0.86619 0.46241 0.87761 0.0
H561 H 0.96556 0.50647 0.83114 0.0
H562 H 0.78212 0.44103 0.84001 0.0
H563 H 0.80589 0.48907 0.85521 0.0
H564 H 0.796 0.44077 0.86771 0.0
H565 H 0.90235 0.49198 0.7842 0.0
H566 H 0.9553 0.51455 0.79435 0.0
H567 H 0.92845 0.54412 0.79509 0.0
C568 C 0.30173 0.81425 0.14511 0.0
C569 C 0.30378 0.78603 0.15958 0.0
C570 C 0.32807 0.85753 0.14733 0.0
C571 C 0.35818 0.87257 0.16376 0.0
C572 C 0.36321 0.8443 0.17722 0.0
C573 C 0.33622 0.80101 0.17466 0.0
C574 C 0.32106 0.8872 0.13348 0.0
C575 C 0.39436 0.85967 0.1955 0.0
C576 C 0.45308 0.97965 0.16234 0.0
C577 C 0.44967 0.99088 0.18343 0.0
C578 C 0.42277 0.93984 0.15517 0.0
C579 C 0.38484 0.91802 0.16686 0.0
C580 C 0.37604 0.93834 0.18373 0.0
C581 C 0.4092 0.97573 0.19187 0.0
C582 C 0.43473 0.91823 0.13818 0.0
C583 C 0.33377 0.91825 0.19481 0.0
H584 H 0.27645 0.80311 0.13356 0.0
H585 H 0.33774 0.77915 0.18581 0.0
H586 H 0.31416 0.90771 0.1438 0.0
H587 H 0.34987 0.90817 0.12421 0.0
H588 H 0.29471 0.87017 0.12206 0.0
H589 H 0.39719 0.83371 0.20293 0.0
H590 H 0.42582 0.88447 0.18987 0.0
H591 H 0.38395 0.87385 0.20814 0.0
H592 H 0.48339 0.99559 0.15435 0.0
H593 H 0.40446 0.98817 0.20671 0.0
H594 H 0.40948 0.90233 0.12615 0.0
H595 H 0.43914 0.89348 0.14594 0.0
H596 H 0.46441 0.9405 0.12982 0.0
H597 H 0.30996 0.91677 0.18345 0.0
H598 H 0.33399 0.93625 0.20925 0.0
H599 H 0.32361 0.88546 0.19976 0.0
C600 C 0.56419 0.29268 0.47084 0.0
C601 C 0.60101 0.29061 0.46905 0.0
C602 C 0.56475 0.3267 0.48105 0.0
C603 C 0.60347 0.36024 0.48815 0.0
C604 C 0.64158 0.36091 0.48369 0.0
C605 C 0.63984 0.32547 0.47431 0.0
C606 C 0.52357 0.32385 0.48692 0.0
C607 C 0.68338 0.39627 0.49146 0.0
C608 C 0.6191 0.46283 0.50867 0.0
C609 C 0.62506 0.45867 0.5305 0.0
C610 C 0.60867 0.42939 0.49462 0.0
C611 C 0.60389 0.39149 0.50291 0.0
C612 C 0.60468 0.38556 0.52534 0.0
C613 C 0.61476 0.41945 0.53899 0.0
C614 C 0.60756 0.43619 0.47079 0.0
C615 C 0.59773 0.34481 0.53514 0.0
H616 H 0.53413 0.26508 0.46717 0.0
H617 H 0.66801 0.32311 0.47327 0.0
H618 H 0.51833 0.31859 0.50448 0.0
H619 H 0.52435 0.35374 0.48314 0.0
H620 H 0.49654 0.29752 0.4785 0.0
H621 H 0.71017 0.39518 0.48385 0.0
H622 H 0.68642 0.42739 0.48811 0.0
H623 H 0.68548 0.39359 0.50911 0.0
H624 H 0.62615 0.49325 0.50238 0.0
H625 H 0.61864 0.41633 0.55601 0.0
H626 H 0.58016 0.40881 0.46326 0.0
H627 H 0.63627 0.43919 0.46319 0.0
H628 H 0.60623 0.46515 0.46723 0.0
H629 H 0.56413 0.32523 0.53967 0.0
H630 H 0.61654 0.35097 0.55001 0.0
H631 H 0.60563 0.32606 0.52409 0.0
C632 C 0.31896 0.54595 0.80605 0.0
C633 C 0.3486 0.54894 0.82089 0.0
C634 C 0.27706 0.5286 0.81214 0.0
C635 C 0.2654 0.51525 0.8336 0.0
C636 C 0.29497 0.51794 0.84865 0.0
C637 C 0.33638 0.53526 0.84219 0.0
C638 C 0.24546 0.52593 0.79594 0.0
C639 C 0.2832 0.50391 0.87173 0.0
C640 C 0.1887 0.54371 0.85407 0.0
C641 C 0.15173 0.50461 0.8545 0.0
C642 C 0.2261 0.54695 0.84791 0.0
C643 C 0.22606 0.51004 0.84156 0.0
C644 C 0.18913 0.46996 0.84248 0.0
C645 C 0.15172 0.46761 0.84922 0.0
C646 C 0.26563 0.58992 0.84853 0.0
C647 C 0.18905 0.43013 0.83625 0.0
H648 H 0.32831 0.55543 0.78953 0.0
H649 H 0.35868 0.53586 0.85367 0.0
H650 H 0.21644 0.49457 0.79676 0.0
H651 H 0.23666 0.55006 0.79975 0.0
H652 H 0.25804 0.53132 0.77929 0.0
H653 H 0.30956 0.50489 0.88084 0.0
H654 H 0.27363 0.52461 0.87999 0.0
H655 H 0.25602 0.47131 0.87233 0.0
H656 H 0.1885 0.57185 0.85935 0.0
H657 H 0.12296 0.4374 0.85051 0.0
H658 H 0.27979 0.59877 0.83227 0.0
H659 H 0.28915 0.58914 0.85929 0.0
H660 H 0.2596 0.61504 0.85437 0.0
H661 H 0.18798 0.42731 0.8185 0.0
H662 H 0.16136 0.40164 0.84298 0.0
H663 H 0.21802 0.4308 0.8417 0.0
C664 C 0.81376 0.37953 0.15319 0.0
C665 C 0.83034 0.36528 0.13712 0.0
C666 C 0.77438 0.35196 0.16215 0.0
C667 C 0.75215 0.3099 0.15463 0.0
C668 C 0.7653 0.29865 0.13556 0.0
C669 C 0.80473 0.32681 0.12698 0.0
C670 C 0.76086 0.3654 0.18211 0.0
C671 C 0.74203 0.25432 0.12671 0.0
C672 C 0.72226 0.22208 0.1938 0.0
C673 C 0.67913 0.19771 0.19028 0.0
C674 C 0.74613 0.26048 0.18343 0.0
C675 C 0.72597 0.27571 0.16978 0.0
C676 C 0.68174 0.2537 0.16819 0.0
C677 C 0.65866 0.2143 0.17821 0.0
C678 C 0.79328 0.28181 0.1854 0.0
C679 C 0.65922 0.2708 0.15512 0.0
H680 H 0.83395 0.40962 0.16091 0.0
H681 H 0.81794 0.31629 0.11447 0.0
H682 H 0.72615 0.34891 0.18352 0.0
H683 H 0.77319 0.35731 0.19646 0.0
H684 H 0.77353 0.40002 0.18224 0.0
H685 H 0.75251 0.25272 0.11016 0.0
H686 H 0.74788 0.2333 0.13712 0.0
H687 H 0.70772 0.24202 0.12652 0.0
H688 H 0.7378 0.21025 0.20403 0.0
H689 H 0.62498 0.19593 0.17592 0.0
H690 H 0.80777 0.31638 0.18726 0.0
H691 H 0.80576 0.27522 0.17058 0.0
H692 H 0.80308 0.26968 0.19921 0.0
H693 H 0.67058 0.30414 0.15952 0.0
H694 H 0.62466 0.25227 0.15752 0.0
H695 H 0.66611 0.27027 0.13782 0.0
C696 C 0.08883 0.54843 0.09574 0.0
C697 C 0.05683 0.55325 0.10488 0.0
C698 C 0.0849 0.53318 0.07495 0.0
C699 C 0.04749 0.5215 0.06359 0.0
C700 C 1.01302 0.52126 0.07383 0.0
C701 C 1.01854 0.53848 0.09441 0.0
C702 C 0.12272 0.53494 0.06429 0.0
C703 C 0.97196 0.50645 0.06233 0.0
C704 C 0.07632 0.56704 0.00878 0.0
C705 C 0.06965 0.53211 -0.00316 0.0
C706 C 0.06619 0.56299 0.03038 0.0
C707 C 0.05003 0.52303 0.04021 0.0
C708 C 0.04239 0.48722 0.02809 0.0
C709 C 0.0521 0.49219 0.0062 0.0
C710 C 0.07365 0.60183 0.04265 0.0
C711 C 1.02494 0.44423 0.03817 0.0
H712 H 0.11805 0.55923 0.10434 0.0
H713 H 0.99335 0.54076 0.10217 0.0
H714 H 0.11338 0.50599 0.05478 0.0
H715 H 0.13728 0.56215 0.05309 0.0
H716 H 0.14686 0.53881 0.07615 0.0
H717 H 0.94631 0.50101 0.07365 0.0
H718 H 0.97558 0.53054 0.05044 0.0
H719 H 0.96277 0.47684 0.05341 0.0
H720 H 0.08808 0.59734 0.00093 0.0
H721 H 0.04566 0.46514 -0.00363 0.0
H722 H 0.09752 0.6094 0.0553 0.0
H723 H 0.04426 0.59604 0.05063 0.0
H724 H 0.08474 0.62987 0.03211 0.0
H725 H 0.05103 0.44155 0.04531 0.0
H726 H 1.00927 0.41871 0.02606 0.0
H727 H 1.00221 0.43922 0.05117 0.0
C728 C 0.59233 0.10734 0.43108 0.0
C729 C 0.59891 0.07416 0.4364 0.0
C730 C 0.58267 0.11214 0.40999 0.0
C731 C 0.58047 0.0834 0.39422 0.0
C732 C 0.58727 0.04982 0.39965 0.0
C733 C 0.59631 0.04556 0.42087 0.0
C734 C 0.57534 0.148 0.4045 0.0
C735 C 0.58701 1.01966 0.38296 0.0
C736 C 0.53399 0.06463 0.33926 0.0
C737 C 0.57086 0.08544 0.32705 0.0
C738 C 0.53593 0.06724 0.36165 0.0
C739 C 0.57562 0.09056 0.37156 0.0
C740 C 0.6122 0.11501 0.35919 0.0
C741 C 0.60921 0.11255 0.33696 0.0
C742 C 0.49637 0.04155 0.37463 0.0
C743 C 0.65521 0.13973 0.36927 0.0
H744 H 0.59569 0.12998 0.44324 0.0
H745 H 0.60196 1.02025 0.42533 0.0
H746 H 0.59504 0.16626 0.39063 0.0
H747 H 0.54208 0.13502 0.39974 0.0
H748 H 0.58232 0.16994 0.41819 0.0
H749 H 0.59006 0.9937 0.39022 0.0
H750 H 0.55758 1.00562 0.37351 0.0
H751 H 0.61352 0.03708 0.37159 0.0
H752 H 0.50432 0.04408 0.33141 0.0
H753 H 0.63777 0.12843 0.32747 0.0
H754 H 0.49569 0.05975 0.38873 0.0
H755 H 0.49566 1.0128 0.38073 0.0
H756 H 0.46771 0.03162 0.36487 0.0
H757 H 0.65552 0.16191 0.38148 0.0
H758 H 0.6802 0.158 0.35723 0.0
H759 H 0.66306 0.11784 0.37755 0.0
C760 C 0.55829 0.49475 0.75474 0.0
C761 C 0.55332 0.52327 0.76756 0.0
C762 C 0.56849 0.50321 0.73298 0.0
C763 C 0.57238 0.54038 0.72395 0.0
C764 C 0.56438 0.56769 0.73658 0.0
C765 C 0.55575 0.55923 0.75847 0.0
C766 C 0.57787 0.47397 0.72007 0.0
C767 C 0.56668 0.60668 0.72715 0.0
C768 C 0.65604 0.59321 0.68177 0.0
C769 C 0.63265 0.58064 0.66287 0.0
C770 C 0.6365 0.58033 0.7017 0.0
C771 C 0.59229 0.55464 0.70271 0.0
C772 C 0.56811 0.54266 0.68368 0.0
C773 C 0.58874 0.55584 0.6638 0.0
C774 C 0.66338 0.59384 0.72166 0.0
C775 C 0.52086 0.51531 0.6843 0.0
H776 H 0.55601 0.46679 0.76197 0.0
H777 H 0.5508 0.58062 0.76847 0.0
H778 H 0.56011 0.4652 0.70479 0.0
H779 H 0.61178 0.49039 0.7159 0.0
H780 H 0.56997 0.4447 0.72899 0.0
H781 H 0.55695 0.62312 0.73884 0.0
H782 H 0.59924 0.629 0.72178 0.0
H783 H 0.54619 0.59808 0.71281 0.0
H784 H 0.68993 0.613 0.68092 0.0
H785 H 0.57078 0.54601 0.64905 0.0
H786 H 0.658 0.5657 0.73089 0.0
H787 H 0.65461 0.61265 0.73219 0.0
H788 H 0.69743 0.61311 0.7179 0.0
H789 H 0.51215 0.48272 0.68893 0.0
H790 H 0.50643 0.51403 0.66849 0.0
H791 H 0.50722 0.52706 0.69653 0.0
C792 C 0.5706 1.02189 0.57269 0.0
C793 C 0.59428 0.06161 0.56303 0.0
C794 C 0.57099 1.01684 0.59521 0.0
C795 C 0.59591 0.05232 0.60852 0.0
C796 C 0.62128 0.09214 0.59858 0.0
C797 C 0.61966 0.09637 0.57611 0.0
C798 C 0.54287 0.97386 0.60482 0.0
C799 C 0.64934 0.13071 0.61178 0.0
C800 C 0.56428 0.0548 0.66726 0.0
C801 C 0.59118 0.04532 0.67874 0.0
C802 C 0.56488 0.05619 0.64455 0.0
C803 C 0.59361 0.04861 0.6328 0.0
C804 C 0.62082 0.03891 0.6444 0.0
C805 C 0.61906 0.03708 0.66713 0.0
C806 C 0.53485 0.06611 0.63311 0.0
C807 C 0.65201 0.03064 0.63279 0.0
H808 H 0.55014 0.99507 0.56273 0.0
H809 H 0.63756 0.12724 0.56876 0.0
H810 H 0.55998 0.96636 0.61701 0.0
H811 H 0.51602 0.97371 0.61305 0.0
H812 H 0.5303 0.94864 0.59243 0.0
H813 H 0.66833 0.159 0.60165 0.0
H814 H 0.63007 0.13754 0.62303 0.0
H815 H 0.67093 0.1248 0.62159 0.0
H816 H 0.54267 0.06119 0.67611 0.0
H817 H 0.63999 1.02979 0.67588 0.0
H818 H 0.5156 0.04056 0.62155 0.0
H819 H 0.55271 0.09566 0.62375 0.0
H820 H 0.5135 0.06983 0.6444 0.0
H821 H 0.63499 1.00131 0.62318 0.0
H822 H 0.67342 1.02716 0.64402 0.0
H823 H 0.67115 0.05671 0.62145 0.0
C824 C 0.53737 0.52915 0.90436 0.0
C825 C 0.57514 0.53419 0.89589 0.0
C826 C 0.5304 0.52828 0.92689 0.0
C827 C 0.56149 0.53159 0.94154 0.0
C828 C 0.59891 0.53512 0.93293 0.0
C829 C 0.60547 0.53701 0.91045 0.0
C830 C 0.49025 0.52512 0.93496 0.0
C831 C 0.63236 0.53703 0.94756 0.0
C832 C 0.56992 0.57213 -0.0003 0.0
C833 C 0.55342 0.535 0.01203 0.0
C834 C 0.57149 0.57131 0.97694 0.0
C835 C 0.55592 0.53242 0.96579 0.0
C836 C 0.53782 0.49472 0.9781 0.0
C837 C 0.53693 0.49646 0.00084 0.0
C838 C 0.59085 0.61241 0.9648 0.0
C839 C 0.51945 0.4523 0.96724 0.0
H840 H 0.51374 0.52727 0.89337 0.0
H841 H 0.63459 0.54055 0.90421 0.0
H842 H 0.47581 0.50085 0.94771 0.0
H843 H 0.49737 0.5557 0.94216 0.0
H844 H 0.46702 0.51732 0.9219 0.0
H845 H 0.65952 0.53939 0.93852 0.0
H846 H 0.64382 0.5646 0.95846 0.0
H847 H 0.61886 0.50835 0.95775 0.0
H848 H 0.5829 0.60219 0.00789 0.0
H849 H 0.52311 0.46734 0.00992 0.0
H850 H 0.56826 0.61157 0.9528 0.0
H851 H 0.61899 0.61699 0.95587 0.0
H852 H 0.6003 0.63991 0.97556 0.0
H853 H 0.49212 0.44672 0.95737 0.0
H854 H 0.50891 0.42606 0.97894 0.0
H855 H 0.54288 0.45163 0.95623 0.0
C856 C 0.04367 0.56517 0.24058 0.0
C857 C 0.0736 0.56013 0.22896 0.0
C858 C 0.04544 0.5685 0.26327 0.0
C859 C 0.07864 0.56812 0.27466 0.0
C860 C 0.11018 0.56549 0.26273 0.0
C861 C 0.10688 0.56087 0.24021 0.0
C862 C 1.01102 0.57113 0.2751 0.0
C863 C 0.14676 0.56594 0.27379 0.0
C864 C 0.10375 0.60509 0.33345 0.0
C865 C 0.08434 0.56682 0.34486 0.0
C866 C 0.10111 0.60615 0.3108 0.0
C867 C 0.07938 0.56798 0.29898 0.0
C868 C 0.05984 0.52926 0.31043 0.0
C869 C 0.06209 0.52918 0.3331 0.0
C870 C 0.12198 0.64821 0.29949 0.0
C871 C 1.03689 0.48771 0.29868 0.0
H872 H 1.01779 0.56454 0.23203 0.0
H873 H 0.13033 0.55733 0.23133 0.0
H874 H 0.99548 0.54471 0.2867 0.0
H875 H 1.02463 0.60087 0.28446 0.0
H876 H 0.98685 0.56997 0.26407 0.0
H877 H 0.17136 0.5694 0.26223 0.0
H878 H 0.16122 0.59211 0.28559 0.0
H879 H 0.13544 0.53602 0.28275 0.0
H880 H 0.12079 0.6344 0.3423 0.0
H881 H 0.0473 0.4994 0.34164 0.0
H882 H 0.09859 0.65133 0.28971 0.0
H883 H 0.14649 0.65025 0.28831 0.0
H884 H 0.13673 0.6751 0.3109 0.0
H885 H 1.01032 0.48601 0.28952 0.0
H886 H 1.02448 0.46028 0.30973 0.0
H887 H 0.05824 0.48518 0.28691 0.0
loop_
_geom_bond_atom_site_label_1
_geom_bond_atom_site_label_2
_geom_bond_distance
_geom_bond_site_symmetry_2
_ccdc_geom_bond_type
C0 Eu1 2.835 . S
C0 C2 1.500 . S
C0 O20 1.257 . S
C0 O21 1.260 . S
Eu1 C0 2.835 . S
Eu1 O20 2.473 . S
Eu1 O21 2.480 . S
Eu1 O22 2.430 1_655 S
Eu1 O23 2.670 1_655 S
Eu1 O24 2.394 . S
Eu1 O29 2.355 1_655 S
Eu1 O31 2.374 1_655 S
C2 C0 1.500 . S
C2 C3 1.377 . S
C2 C7 1.377 . S
C3 C2 1.377 . S
C3 C4 1.395 . S
C3 H32 0.931 . S
C4 C3 1.395 . S
C4 C5 1.383 . S
C4 H33 0.931 . S
C5 C4 1.383 . S
C5 C6 1.394 . S
C6 C5 1.394 . S
C6 C7 1.378 . S
C6 H34 0.931 . S
C7 C2 1.377 . S
C7 C6 1.378 . S
C7 H35 0.931 . S
C8 O22 1.259 . S
C8 O23 1.270 . S
C9 O24 1.251 . S
C9 O25 1.251 . S
C10 Eu11 2.835 . S
C10 C12 1.500 . S
C10 O26 1.257 . S
C10 O27 1.260 . S
Eu11 C10 2.835 . S
Eu11 O23 2.355 . S
Eu11 O25 2.374 1_455 S
Eu11 O26 2.473 . S
Eu11 O27 2.480 . S
Eu11 O28 2.430 . S
Eu11 O29 2.670 . S
Eu11 O30 2.394 . S
C12 C10 1.500 . S
C12 C13 1.377 . S
C12 C17 1.377 . S
C13 C12 1.377 . S
C13 C14 1.395 . S
C13 H36 0.931 . S
C14 C13 1.395 . S
C14 C15 1.383 . S
C14 H37 0.931 . S
C15 C14 1.383 . S
C15 C16 1.394 . S
C16 C15 1.394 . S
C16 C17 1.378 . S
C16 H38 0.931 . S
C17 C12 1.377 . S
C17 C16 1.378 . S
C17 H39 0.931 . S
C18 O28 1.259 . S
C18 O29 1.270 . S
C19 O30 1.251 . S
C19 O31 1.251 . S
O20 C0 1.257 . S
O20 Eu1 2.473 . S
O21 C0 1.260 . S
O21 Eu1 2.480 . S
O22 Eu1 2.430 1_455 S
O22 C8 1.259 . S
O23 Eu1 2.670 1_455 S
O23 C8 1.270 . S
O23 Eu11 2.355 . S
O24 Eu1 2.394 . S
O24 C9 1.251 . S
O25 C9 1.251 . S
O25 Eu11 2.374 1_655 S
O26 C10 1.257 . S
O26 Eu11 2.473 . S
O27 C10 1.260 . S
O27 Eu11 2.480 . S
O28 Eu11 2.430 . S
O28 C18 1.259 . S
O29 Eu1 2.355 1_455 S
O29 Eu11 2.670 . S
O29 C18 1.270 . S
O30 Eu11 2.394 . S
O30 C19 1.251 . S
O31 Eu1 2.374 1_455 S
O31 C19 1.251 . S
H32 C3 0.931 . S
H33 C4 0.931 . S
H34 C6 0.931 . S
H35 C7 0.931 . S
H36 C13 0.931 . S
H37 C14 0.931 . S
H38 C16 0.931 . S
H39 C17 0.931 . S
C40 Eu41 2.835 . S
C40 C42 1.500 . S
C40 O60 1.257 . S
C40 O61 1.260 . S
Eu41 C40 2.835 . S
Eu41 O60 2.473 . S
Eu41 O61 2.480 . S
Eu41 O62 2.430 . S
Eu41 O63 2.670 . S
Eu41 O64 2.394 . S
Eu41 O69 2.355 . S
Eu41 O71 2.374 1_545 S
C42 C40 1.500 . S
C42 C43 1.377 . S
C42 C47 1.377 . S
C43 C42 1.377 . S
C43 C44 1.395 . S
C43 H72 0.931 . S
C44 C43 1.395 . S
C44 C45 1.383 . S
C44 H73 0.931 . S
C45 C44 1.383 . S
C45 C46 1.394 . S
C46 C45 1.394 . S
C46 C47 1.378 . S
C46 H74 0.931 . S
C47 C42 1.377 . S
C47 C46 1.378 . S
C47 H75 0.931 . S
C48 O62 1.259 . S
C48 O63 1.270 . S
C49 O64 1.251 . S
C49 O65 1.251 . S
C50 Eu51 2.835 1_565 S
C50 C52 1.500 . S
C50 O66 1.257 . S
C50 O67 1.260 . S
Eu51 C50 2.835 1_545 S
Eu51 O63 2.355 . S
Eu51 O65 2.374 . S
Eu51 O66 2.473 1_545 S
Eu51 O67 2.480 1_545 S
Eu51 O68 2.430 . S
Eu51 O69 2.670 . S
Eu51 O70 2.394 1_545 S
C52 C50 1.500 . S
C52 C53 1.377 . S
C52 C57 1.377 . S
C53 C52 1.377 . S
C53 C54 1.395 . S
C53 H76 0.931 . S
C54 C53 1.395 . S
C54 C55 1.383 . S
C54 H77 0.931 . S
C55 C54 1.383 . S
C55 C56 1.394 . S
C56 C55 1.394 . S
C56 C57 1.378 . S
C56 H78 0.931 . S
C57 C52 1.377 . S
C57 C56 1.378 . S
C57 H79 0.931 . S
C58 O68 1.259 . S
C58 O69 1.270 . S
C59 O70 1.251 . S
C59 O71 1.251 . S
O60 C40 1.257 . S
O60 Eu41 2.473 . S
O61 C40 1.260 . S
O61 Eu41 2.480 . S
O62 Eu41 2.430 . S
O62 C48 1.259 . S
O63 Eu41 2.670 . S
O63 C48 1.270 . S
O63 Eu51 2.355 . S
O64 Eu41 2.394 . S
O64 C49 1.251 . S
O65 C49 1.251 . S
O65 Eu51 2.374 . S
O66 C50 1.257 . S
O66 Eu51 2.473 1_565 S
O67 C50 1.260 . S
O67 Eu51 2.480 1_565 S
O68 Eu51 2.430 . S
O68 C58 1.259 . S
O69 Eu41 2.355 . S
O69 Eu51 2.670 . S
O69 C58 1.270 . S
O70 Eu51 2.394 1_565 S
O70 C59 1.251 . S
O71 Eu41 2.374 1_565 S
O71 C59 1.251 . S
H72 C43 0.931 . S
H73 C44 0.931 . S
H74 C46 0.931 . S
H75 C47 0.931 . S
H76 C53 0.931 . S
H77 C54 0.931 . S
H78 C56 0.931 . S
H79 C57 0.931 . S
C80 Eu81 2.835 . S
C80 C82 1.500 . S
C80 O100 1.257 . S
C80 O101 1.260 . S
Eu81 C80 2.835 . S
Eu81 O100 2.473 . S
Eu81 O101 2.480 . S
Eu81 O102 2.430 . S
Eu81 O103 2.670 . S
Eu81 O104 2.394 . S
Eu81 O109 2.355 . S
Eu81 O111 2.374 . S
C82 C80 1.500 . S
C82 C83 1.377 . S
C82 C87 1.377 . S
C83 C82 1.377 . S
C83 C84 1.395 . S
C83 H112 0.931 . S
C84 C83 1.395 . S
C84 C85 1.383 . S
C84 H113 0.931 . S
C85 C84 1.383 . S
C85 C86 1.394 . S
C86 C85 1.394 . S
C86 C87 1.378 . S
C86 H114 0.931 . S
C87 C82 1.377 . S
C87 C86 1.378 . S
C87 H115 0.931 . S
C88 O102 1.259 . S
C88 O103 1.270 . S
C89 O104 1.251 . S
C89 O105 1.251 . S
C90 Eu91 2.835 . S
C90 C92 1.500 . S
C90 O106 1.257 . S
C90 O107 1.260 . S
Eu91 C90 2.835 . S
Eu91 O103 2.355 . S
Eu91 O105 2.374 . S
Eu91 O106 2.473 . S
Eu91 O107 2.480 . S
Eu91 O108 2.430 . S
Eu91 O109 2.670 . S
Eu91 O110 2.394 . S
C92 C90 1.500 . S
C92 C93 1.377 . S
C92 C97 1.377 . S
C93 C92 1.377 . S
C93 C94 1.395 . S
C93 H116 0.931 . S
C94 C93 1.395 . S
C94 C95 1.383 . S
C94 H117 0.931 . S
C95 C94 1.383 . S
C95 C96 1.394 . S
C96 C95 1.394 . S
C96 C97 1.378 . S
C96 H118 0.931 . S
C97 C92 1.377 . S
C97 C96 1.378 . S
C97 H119 0.931 . S
C98 O108 1.259 . S
C98 O109 1.270 . S
C99 O110 1.251 . S
C99 O111 1.251 . S
O100 C80 1.257 . S
O100 Eu81 2.473 . S
O101 C80 1.260 . S
O101 Eu81 2.480 . S
O102 Eu81 2.430 . S
O102 C88 1.259 . S
O103 Eu81 2.670 . S
O103 C88 1.270 . S
O103 Eu91 2.355 . S
O104 Eu81 2.394 . S
O104 C89 1.251 . S
O105 C89 1.251 . S
O105 Eu91 2.374 . S
O106 C90 1.257 . S
O106 Eu91 2.473 . S
O107 C90 1.260 . S
O107 Eu91 2.480 . S
O108 Eu91 2.430 . S
O108 C98 1.259 . S
O109 Eu81 2.355 . S
O109 Eu91 2.670 . S
O109 C98 1.270 . S
O110 Eu91 2.394 . S
O110 C99 1.251 . S
O111 Eu81 2.374 . S
O111 C99 1.251 . S
H112 C83 0.931 . S
H113 C84 0.931 . S
H114 C86 0.931 . S
H115 C87 0.931 . S
H116 C93 0.931 . S
H117 C94 0.931 . S
H118 C96 0.931 . S
H119 C97 0.931 . S
P120 O131 1.490 . S
P120 C134 1.810 1_545 S
P120 C140 1.803 . S
P120 C146 1.819 . S
H121 C135 0.941 . S
H122 C136 0.939 . S
H123 C138 0.940 . S
H124 C139 0.940 . S
H125 C141 0.939 . S
H126 C142 0.942 . S
H127 C144 0.940 . S
H128 C145 0.939 . S
H129 C147 0.941 1_565 S
H130 C151 0.939 . S
O131 P120 1.490 . S
H132 C148 0.939 1_565 S
H133 C150 0.940 . S
C134 P120 1.810 1_565 S
C134 C135 1.411 . S
C134 C139 1.373 1_565 S
C135 H121 0.941 . S
C135 C134 1.411 . S
C135 C136 1.397 . S
C136 H122 0.939 . S
C136 C135 1.397 . S
C136 C137 1.378 . S
C137 C136 1.378 . S
C137 C138 1.378 . S
C138 H123 0.940 . S
C138 C137 1.378 . S
C138 C139 1.396 1_565 S
C139 H124 0.940 . S
C139 C134 1.373 1_545 S
C139 C138 1.396 1_545 S
C140 P120 1.803 . S
C140 C141 1.378 . S
C140 C145 1.400 . S
C141 H125 0.939 . S
C141 C140 1.378 . S
C141 C142 1.361 . S
C142 H126 0.942 . S
C142 C141 1.361 . S
C142 C143 1.369 . S
C143 C142 1.369 . S
C143 C144 1.404 . S
C144 H127 0.940 . S
C144 C143 1.404 . S
C144 C145 1.389 . S
C145 H128 0.939 . S
C145 C140 1.400 . S
C145 C144 1.389 . S
C146 P120 1.819 . S
C146 C147 1.391 . S
C146 C151 1.391 . S
C147 H129 0.941 1_545 S
C147 C146 1.391 . S
C147 C148 1.396 . S
C148 H132 0.939 1_545 S
C148 C147 1.396 . S
C148 C149 1.397 . S
C149 C148 1.397 . S
C149 C150 1.385 . S
C150 H133 0.940 . S
C150 C149 1.385 . S
C150 C151 1.388 . S
C151 H130 0.939 . S
C151 C146 1.391 . S
C151 C150 1.388 . S
P152 O163 1.490 . S
P152 C166 1.812 . S
P152 C172 1.803 . S
P152 C178 1.819 . S
H153 C167 0.941 . S
H154 C168 0.939 . S
H155 C170 0.940 . S
H156 C171 0.940 . S
H157 C173 0.939 . S
H158 C174 0.942 . S
H159 C176 0.940 . S
H160 C177 0.939 . S
H161 C179 0.941 . S
H162 C183 0.939 . S
O163 P152 1.490 . S
H164 C180 0.939 . S
H165 C182 0.940 . S
C166 P152 1.812 . S
C166 C167 1.389 . S
C166 C171 1.391 . S
C167 H153 0.941 . S
C167 C166 1.389 . S
C167 C168 1.397 . S
C168 H154 0.939 . S
C168 C167 1.397 . S
C168 C169 1.378 . S
C169 C168 1.378 . S
C169 C170 1.378 . S
C170 H155 0.940 . S
C170 C169 1.378 . S
C170 C171 1.396 . S
C171 H156 0.940 . S
C171 C166 1.391 . S
C171 C170 1.396 . S
C172 P152 1.803 . S
C172 C173 1.378 . S
C172 C177 1.400 . S
C173 H157 0.939 . S
C173 C172 1.378 . S
C173 C174 1.361 . S
C174 H158 0.942 . S
C174 C173 1.361 . S
C174 C175 1.369 . S
C175 C174 1.369 . S
C175 C176 1.404 . S
C176 H159 0.940 . S
C176 C175 1.404 . S
C176 C177 1.389 . S
C177 H160 0.939 . S
C177 C172 1.400 . S
C177 C176 1.389 . S
C178 P152 1.819 . S
C178 C179 1.391 . S
C178 C183 1.391 . S
C179 H161 0.941 . S
C179 C178 1.391 . S
C179 C180 1.396 . S
C180 H164 0.939 . S
C180 C179 1.396 . S
C180 C181 1.397 . S
C181 C180 1.397 . S
C181 C182 1.385 . S
C182 H165 0.940 . S
C182 C181 1.385 . S
C182 C183 1.388 . S
C183 H162 0.939 . S
C183 C178 1.391 . S
C183 C182 1.388 . S
P184 O195 1.490 . S
P184 C198 1.812 . S
P184 C204 1.803 1_455 S
P184 C210 1.819 . S
H185 C199 0.941 . S
H186 C200 0.939 . S
H187 C202 0.940 . S
H188 C203 0.940 . S
H189 C205 0.939 . S
H190 C206 0.942 . S
H191 C208 0.940 . S
H192 C209 0.939 . S
H193 C211 0.941 . S
H194 C215 0.939 . S
O195 P184 1.490 . S
H196 C212 0.939 . S
H197 C214 0.940 . S
C198 P184 1.812 . S
C198 C199 1.389 . S
C198 C203 1.391 . S
C199 H185 0.941 . S
C199 C198 1.389 . S
C199 C200 1.397 . S
C200 H186 0.939 . S
C200 C199 1.397 . S
C200 C201 1.378 . S
C201 C200 1.378 . S
C201 C202 1.378 . S
C202 H187 0.940 . S
C202 C201 1.378 . S
C202 C203 1.396 . S
C203 H188 0.940 . S
C203 C198 1.391 . S
C203 C202 1.396 . S
C204 P184 1.803 1_655 S
C204 C205 1.378 . S
C204 C209 1.400 . S
C205 H189 0.939 . S
C205 C204 1.378 . S
C205 C206 1.361 . S
C206 H190 0.942 . S
C206 C205 1.361 . S
C206 C207 1.369 . S
C207 C206 1.369 . S
C207 C208 1.404 . S
C208 H191 0.940 . S
C208 C207 1.404 . S
C208 C209 1.389 . S
C209 H192 0.939 . S
C209 C204 1.400 . S
C209 C208 1.389 . S
C210 P184 1.819 . S
C210 C211 1.391 . S
C210 C215 1.391 1_455 S
C211 H193 0.941 . S
C211 C210 1.391 . S
C211 C212 1.396 . S
C212 H196 0.939 . S
C212 C211 1.396 . S
C212 C213 1.397 . S
C213 C212 1.397 . S
C213 C214 1.385 1_455 S
C214 H197 0.940 . S
C214 C213 1.385 1_655 S
C214 C215 1.388 . S
C215 H194 0.939 . S
C215 C210 1.391 1_655 S
C215 C214 1.388 . S
P216 O227 1.490 . S
P216 C230 1.812 . S
P216 C236 1.803 . S
P216 C242 1.819 . S
H217 C231 0.941 . S
H218 C232 0.939 . S
H219 C234 0.940 . S
H220 C235 0.940 . S
H221 C237 0.939 . S
H222 C238 0.942 . S
H223 C240 0.940 . S
H224 C241 0.939 . S
H225 C243 0.941 . S
H226 C247 0.939 . S
O227 P216 1.490 . S
H228 C244 0.939 . S
H229 C246 0.940 1_655 S
C230 P216 1.812 . S
C230 C231 1.389 . S
C230 C235 1.391 . S
C231 H217 0.941 . S
C231 C230 1.389 . S
C231 C232 1.397 . S
C232 H218 0.939 . S
C232 C231 1.397 . S
C232 C233 1.378 . S
C233 C232 1.378 . S
C233 C234 1.378 . S
C234 H219 0.940 . S
C234 C233 1.378 . S
C234 C235 1.396 . S
C235 H220 0.940 . S
C235 C230 1.391 . S
C235 C234 1.396 . S
C236 P216 1.803 . S
C236 C237 1.378 . S
C236 C241 1.400 . S
C237 H221 0.939 . S
C237 C236 1.378 . S
C237 C238 1.361 1_455 S
C238 H222 0.942 . S
C238 C237 1.361 1_655 S
C238 C239 1.369 . S
C239 C238 1.369 . S
C239 C240 1.404 . S
C240 H223 0.940 . S
C240 C239 1.404 . S
C240 C241 1.389 1_655 S
C241 H224 0.939 . S
C241 C236 1.400 . S
C241 C240 1.389 1_455 S
C242 P216 1.819 . S
C242 C243 1.391 . S
C242 C247 1.391 . S
C243 H225 0.941 . S
C243 C242 1.391 . S
C243 C244 1.396 . S
C244 H228 0.939 . S
C244 C243 1.396 . S
C244 C245 1.397 . S
C245 C244 1.397 . S
C245 C246 1.385 . S
C246 H229 0.940 1_455 S
C246 C245 1.385 . S
C246 C247 1.388 . S
C247 H226 0.939 . S
C247 C242 1.391 . S
C247 C246 1.388 . S
P248 O259 1.490 . S
P248 C262 1.812 . S
P248 C268 1.803 1_545 S
P248 C274 1.819 . S
H249 C263 0.941 . S
H250 C264 0.939 . S
H251 C266 0.940 . S
H252 C267 0.940 . S
H253 C269 0.939 . S
H254 C270 0.942 . S
H255 C272 0.940 . S
H256 C273 0.939 . S
H257 C275 0.941 . S
H258 C279 0.939 . S
O259 P248 1.490 . S
H260 C276 0.939 . S
H261 C278 0.940 . S
C262 P248 1.812 . S
C262 C263 1.389 . S
C262 C267 1.391 . S
C263 H249 0.941 . S
C263 C262 1.389 . S
C263 C264 1.397 . S
C264 H250 0.939 . S
C264 C263 1.397 . S
C264 C265 1.378 . S
C265 C264 1.378 . S
C265 C266 1.378 . S
C266 H251 0.940 . S
C266 C265 1.378 . S
C266 C267 1.396 . S
C267 H252 0.940 . S
C267 C262 1.391 . S
C267 C266 1.396 . S
C268 P248 1.803 1_565 S
C268 C269 1.378 . S
C268 C273 1.400 . S
C269 H253 0.939 . S
C269 C268 1.378 . S
C269 C270 1.361 . S
C270 H254 0.942 . S
C270 C269 1.361 . S
C270 C271 1.369 . S
C271 C270 1.369 . S
C271 C272 1.404 . S
C272 H255 0.940 . S
C272 C271 1.404 . S
C272 C273 1.389 . S
C273 H256 0.939 . S
C273 C268 1.400 . S
C273 C272 1.389 . S
C274 P248 1.819 . S
C274 C275 1.391 . S
C274 C279 1.391 1_545 S
C275 H257 0.941 . S
C275 C274 1.391 . S
C275 C276 1.396 . S
C276 H260 0.939 . S
C276 C275 1.396 . S
C276 C277 1.397 . S
C277 C276 1.397 . S
C277 C278 1.385 1_545 S
C278 H261 0.940 . S
C278 C277 1.385 1_565 S
C278 C279 1.388 . S
C279 H258 0.939 . S
C279 C274 1.391 1_565 S
C279 C278 1.388 . S
P280 O291 1.490 . S
P280 C294 1.812 . S
P280 C300 1.803 . S
P280 C306 1.819 . S
H281 C295 0.941 . S
H282 C296 0.939 . S
H283 C298 0.940 . S
H284 C299 0.940 . S
H285 C301 0.939 . S
H286 C302 0.942 . S
H287 C304 0.940 . S
H288 C305 0.939 . S
H289 C307 0.941 . S
H290 C311 0.939 . S
O291 P280 1.490 . S
H292 C308 0.939 . S
H293 C310 0.940 . S
C294 P280 1.812 . S
C294 C295 1.389 . S
C294 C299 1.391 . S
C295 H281 0.941 . S
C295 C294 1.389 . S
C295 C296 1.397 . S
C296 H282 0.939 . S
C296 C295 1.397 . S
C296 C297 1.378 . S
C297 C296 1.378 . S
C297 C298 1.378 . S
C298 H283 0.940 . S
C298 C297 1.378 . S
C298 C299 1.396 . S
C299 H284 0.940 . S
C299 C294 1.391 . S
C299 C298 1.396 . S
C300 P280 1.803 . S
C300 C301 1.378 . S
C300 C305 1.400 . S
C301 H285 0.939 . S
C301 C300 1.378 . S
C301 C302 1.361 . S
C302 H286 0.942 . S
C302 C301 1.361 . S
C302 C303 1.369 . S
C303 C302 1.369 . S
C303 C304 1.404 . S
C304 H287 0.940 . S
C304 C303 1.404 . S
C304 C305 1.389 . S
C305 H288 0.939 . S
C305 C300 1.400 . S
C305 C304 1.389 . S
C306 P280 1.819 . S
C306 C307 1.391 . S
C306 C311 1.391 . S
C307 H289 0.941 . S
C307 C306 1.391 . S
C307 C308 1.396 . S
C308 H292 0.939 . S
C308 C307 1.396 . S
C308 C309 1.397 . S
C309 C308 1.397 . S
C309 C310 1.385 . S
C310 H293 0.940 . S
C310 C309 1.385 . S
C310 C311 1.388 . S
C311 H290 0.939 . S
C311 C306 1.391 . S
C311 C310 1.388 . S
C312 C313 1.391 . S
C312 C314 1.394 . S
C312 H328 0.931 . S
C313 C312 1.391 . S
C313 C317 1.376 . S
C314 C312 1.394 . S
C314 C315 1.369 . S
C314 C318 1.531 . S
C315 C314 1.369 . S
C315 C316 1.410 . S
C315 C323 1.503 . S
C316 C315 1.410 . S
C316 C317 1.392 . S
C316 C319 1.511 . S
C317 C313 1.376 . S
C317 C316 1.392 . S
C317 H329 0.929 . S
C318 C314 1.531 . S
C318 H330 0.960 . S
C318 H331 0.962 . S
C318 H332 0.960 . S
C319 C316 1.511 . S
C319 H333 0.961 . S
C319 H334 0.961 . S
C319 H335 0.961 . S
C320 C321 1.370 . S
C320 C322 1.363 . S
C320 H336 0.931 . S
C321 C320 1.370 . S
C321 C325 1.408 . S
C322 C320 1.363 . S
C322 C323 1.370 . S
C322 C326 1.524 . S
C323 C315 1.503 . S
C323 C322 1.370 . S
C323 C324 1.403 . S
C324 C323 1.403 . S
C324 C325 1.404 . S
C324 C327 1.539 . S
C325 C321 1.408 . S
C325 C324 1.404 . S
C325 H337 0.930 . S
C326 C322 1.524 . S
C326 H338 0.956 . S
C326 H339 0.961 . S
C326 H340 0.961 . S
C327 C324 1.539 . S
C327 H341 0.958 . S
C327 H342 0.961 . S
C327 H343 0.960 . S
H328 C312 0.931 . S
H329 C317 0.929 . S
H330 C318 0.960 . S
H331 C318 0.962 . S
H332 C318 0.960 . S
H333 C319 0.961 . S
H334 C319 0.961 . S
H335 C319 0.961 . S
H336 C320 0.931 . S
H337 C325 0.930 . S
H338 C326 0.956 . S
H339 C326 0.961 . S
H340 C326 0.961 . S
H341 C327 0.958 . S
H342 C327 0.961 . S
H343 C327 0.960 . S
C344 C345 1.391 . S
C344 C346 1.394 . S
C344 H360 0.931 . S
C345 C344 1.391 . S
C345 C349 1.376 . S
C346 C344 1.394 . S
C346 C347 1.369 . S
C346 C350 1.531 . S
C347 C346 1.369 . S
C347 C348 1.410 . S
C347 C355 1.503 . S
C348 C347 1.410 . S
C348 C349 1.392 . S
C348 C351 1.511 . S
C349 C345 1.376 . S
C349 C348 1.392 . S
C349 H361 0.929 . S
C350 C346 1.531 . S
C350 H362 0.960 . S
C350 H363 0.962 . S
C350 H364 0.960 . S
C351 C348 1.511 . S
C351 H365 0.961 . S
C351 H366 0.961 . S
C351 H367 0.961 . S
C352 C353 1.370 . S
C352 C354 1.363 . S
C352 H368 0.931 . S
C353 C352 1.370 . S
C353 C357 1.408 . S
C354 C352 1.363 . S
C354 C355 1.370 . S
C354 C358 1.524 . S
C355 C347 1.503 . S
C355 C354 1.370 . S
C355 C356 1.403 . S
C356 C355 1.403 . S
C356 C357 1.404 . S
C356 C359 1.539 . S
C357 C353 1.408 . S
C357 C356 1.404 . S
C357 H369 0.930 . S
C358 C354 1.524 . S
C358 H370 0.956 . S
C358 H371 0.961 . S
C358 H372 0.961 . S
C359 C356 1.539 . S
C359 H373 0.958 . S
C359 H374 0.961 . S
C359 H375 0.960 . S
H360 C344 0.931 . S
H361 C349 0.929 . S
H362 C350 0.960 . S
H363 C350 0.962 . S
H364 C350 0.960 . S
H365 C351 0.961 . S
H366 C351 0.961 . S
H367 C351 0.961 . S
H368 C352 0.931 . S
H369 C357 0.930 . S
H370 C358 0.956 . S
H371 C358 0.961 . S
H372 C358 0.961 . S
H373 C359 0.958 . S
H374 C359 0.961 . S
H375 C359 0.960 . S
C376 C377 1.391 . S
C376 C378 1.394 . S
C376 H392 0.931 . S
C377 C376 1.391 . S
C377 C381 1.376 . S
C378 C376 1.394 . S
C378 C379 1.369 . S
C378 C382 1.531 . S
C379 C378 1.369 . S
C379 C380 1.410 . S
C379 C387 1.503 . S
C380 C379 1.410 . S
C380 C381 1.392 . S
C380 C383 1.511 . S
C381 C377 1.376 . S
C381 C380 1.392 . S
C381 H393 0.929 . S
C382 C378 1.531 . S
C382 H394 0.960 . S
C382 H395 0.962 . S
C382 H396 0.960 . S
C383 C380 1.511 . S
C383 H397 0.961 . S
C383 H398 0.961 . S
C383 H399 0.961 . S
C384 C385 1.370 . S
C384 C386 1.363 . S
C384 H400 0.931 . S
C385 C384 1.370 . S
C385 C389 1.408 . S
C386 C384 1.363 . S
C386 C387 1.370 . S
C386 C390 1.524 . S
C387 C379 1.503 . S
C387 C386 1.370 . S
C387 C388 1.403 . S
C388 C387 1.403 . S
C388 C389 1.404 . S
C388 C391 1.539 . S
C389 C385 1.408 . S
C389 C388 1.404 . S
C389 H401 0.930 . S
C390 C386 1.524 . S
C390 H402 0.956 . S
C390 H403 0.961 . S
C390 H404 0.961 . S
C391 C388 1.539 . S
C391 H405 0.958 . S
C391 H406 0.961 . S
C391 H407 0.960 . S
H392 C376 0.931 . S
H393 C381 0.929 . S
H394 C382 0.960 . S
H395 C382 0.962 . S
H396 C382 0.960 . S
H397 C383 0.961 . S
H398 C383 0.961 . S
H399 C383 0.961 . S
H400 C384 0.931 . S
H401 C389 0.930 . S
H402 C390 0.956 . S
H403 C390 0.961 . S
H404 C390 0.961 . S
H405 C391 0.958 . S
H406 C391 0.961 . S
H407 C391 0.960 . S
C408 C409 1.391 . S
C408 C410 1.394 . S
C408 H424 0.931 . S
C409 C408 1.391 . S
C409 C413 1.376 . S
C410 C408 1.394 . S
C410 C411 1.369 . S
C410 C414 1.531 . S
C411 C410 1.369 . S
C411 C412 1.410 . S
C411 C419 1.503 . S
C412 C411 1.410 . S
C412 C413 1.392 . S
C412 C415 1.511 . S
C413 C409 1.376 . S
C413 C412 1.392 . S
C413 H425 0.929 . S
C414 C410 1.531 . S
C414 H426 0.960 . S
C414 H427 0.962 . S
C414 H428 0.960 . S
C415 C412 1.511 . S
C415 H429 0.961 . S
C415 H430 0.961 . S
C415 H431 0.961 . S
C416 C417 1.370 . S
C416 C418 1.363 . S
C416 H432 0.931 . S
C417 C416 1.370 . S
C417 C421 1.408 . S
C418 C416 1.363 . S
C418 C419 1.370 . S
C418 C422 1.524 . S
C419 C411 1.503 . S
C419 C418 1.370 . S
C419 C420 1.403 . S
C420 C419 1.403 . S
C420 C421 1.404 . S
C420 C423 1.539 . S
C421 C417 1.408 . S
C421 C420 1.404 . S
C421 H433 0.930 . S
C422 C418 1.524 . S
C422 H434 0.956 . S
C422 H435 0.961 . S
C422 H436 0.961 . S
C423 C420 1.539 . S
C423 H437 0.958 . S
C423 H438 0.961 . S
C423 H439 0.960 . S
H424 C408 0.931 . S
H425 C413 0.929 . S
H426 C414 0.960 . S
H427 C414 0.962 . S
H428 C414 0.960 . S
H429 C415 0.961 . S
H430 C415 0.961 . S
H431 C415 0.961 . S
H432 C416 0.931 . S
H433 C421 0.930 . S
H434 C422 0.956 . S
H435 C422 0.961 . S
H436 C422 0.961 . S
H437 C423 0.958 . S
H438 C423 0.961 . S
H439 C423 0.960 . S
C440 C441 1.391 . S
C440 C442 1.394 . S
C440 H456 0.931 . S
C441 C440 1.391 . S
C441 C445 1.376 . S
C442 C440 1.394 . S
C442 C443 1.369 . S
C442 C446 1.531 . S
C443 C442 1.369 . S
C443 C444 1.410 . S
C443 C451 1.503 . S
C444 C443 1.410 . S
C444 C445 1.392 . S
C444 C447 1.511 . S
C445 C441 1.376 . S
C445 C444 1.392 . S
C445 H457 0.929 . S
C446 C442 1.531 . S
C446 H458 0.960 . S
C446 H459 0.962 . S
C446 H460 0.960 . S
C447 C444 1.511 . S
C447 H461 0.961 . S
C447 H462 0.961 . S
C447 H463 0.961 . S
C448 C449 1.370 . S
C448 C450 1.363 . S
C448 H464 0.931 . S
C449 C448 1.370 . S
C449 C453 1.408 . S
C450 C448 1.363 . S
C450 C451 1.370 . S
C450 C454 1.524 . S
C451 C443 1.503 . S
C451 C450 1.370 . S
C451 C452 1.403 . S
C452 C451 1.403 . S
C452 C453 1.404 . S
C452 C455 1.539 . S
C453 C449 1.408 . S
C453 C452 1.404 . S
C453 H465 0.930 . S
C454 C450 1.524 . S
C454 H466 0.956 . S
C454 H467 0.961 . S
C454 H468 0.961 . S
C455 C452 1.539 . S
C455 H469 0.958 . S
C455 H470 0.961 . S
C455 H471 0.960 . S
H456 C440 0.931 . S
H457 C445 0.929 . S
H458 C446 0.960 . S
H459 C446 0.962 . S
H460 C446 0.960 . S
H461 C447 0.961 . S
H462 C447 0.961 . S
H463 C447 0.961 . S
H464 C448 0.931 . S
H465 C453 0.930 . S
H466 C454 0.956 . S
H467 C454 0.961 . S
H468 C454 0.961 . S
H469 C455 0.958 . S
H470 C455 0.961 . S
H471 C455 0.960 . S
C472 C473 1.391 . S
C472 C474 1.394 . S
C472 H488 0.931 . S
C473 C472 1.391 . S
C473 C477 1.376 . S
C474 C472 1.394 . S
C474 C475 1.369 . S
C474 C478 1.531 . S
C475 C474 1.369 . S
C475 C476 1.410 . S
C475 C483 1.503 . S
C476 C475 1.410 . S
C476 C477 1.392 . S
C476 C479 1.511 . S
C477 C473 1.376 . S
C477 C476 1.392 . S
C477 H489 0.929 . S
C478 C474 1.531 . S
C478 H490 0.960 . S
C478 H491 0.962 . S
C478 H492 0.960 . S
C479 C476 1.511 . S
C479 H493 0.961 . S
C479 H494 0.961 . S
C479 H495 0.961 . S
C480 C481 1.370 . S
C480 C482 1.363 . S
C480 H496 0.931 . S
C481 C480 1.370 . S
C481 C485 1.408 . S
C482 C480 1.363 . S
C482 C483 1.370 . S
C482 C486 1.524 . S
C483 C475 1.503 . S
C483 C482 1.370 . S
C483 C484 1.403 . S
C484 C483 1.403 . S
C484 C485 1.404 . S
C484 C487 1.539 . S
C485 C481 1.408 . S
C485 C484 1.404 . S
C485 H497 0.930 . S
C486 C482 1.524 . S
C486 H498 0.956 . S
C486 H499 0.961 . S
C486 H500 0.961 . S
C487 C484 1.539 . S
C487 H501 0.958 . S
C487 H502 0.961 . S
C487 H503 0.960 . S
H488 C472 0.931 . S
H489 C477 0.929 . S
H490 C478 0.960 . S
H491 C478 0.962 . S
H492 C478 0.960 . S
H493 C479 0.961 . S
H494 C479 0.961 . S
H495 C479 0.961 . S
H496 C480 0.931 . S
H497 C485 0.930 . S
H498 C486 0.956 . S
H499 C486 0.961 . S
H500 C486 0.961 . S
H501 C487 0.958 . S
H502 C487 0.961 . S
H503 C487 0.960 . S
C504 C505 1.391 . S
C504 C506 1.394 . S
C504 H520 0.931 . S
C505 C504 1.391 . S
C505 C509 1.376 . S
C506 C504 1.394 . S
C506 C507 1.369 . S
C506 C510 1.531 . S
C507 C506 1.369 . S
C507 C508 1.410 . S
C507 C515 1.503 . S
C508 C507 1.410 . S
C508 C509 1.392 . S
C508 C511 1.511 . S
C509 C505 1.376 . S
C509 C508 1.392 . S
C509 H521 0.929 . S
C510 C506 1.531 . S
C510 H522 0.960 . S
C510 H523 0.962 . S
C510 H524 0.960 . S
C511 C508 1.511 . S
C511 H525 0.961 . S
C511 H526 0.961 . S
C511 H527 0.961 . S
C512 C513 1.370 . S
C512 C514 1.363 . S
C512 H528 0.931 . S
C513 C512 1.370 . S
C513 C517 1.408 . S
C514 C512 1.363 . S
C514 C515 1.370 . S
C514 C518 1.524 . S
C515 C507 1.503 . S
C515 C514 1.370 . S
C515 C516 1.403 . S
C516 C515 1.403 . S
C516 C517 1.404 . S
C516 C519 1.539 . S
C517 C513 1.408 . S
C517 C516 1.404 . S
C517 H529 0.930 . S
C518 C514 1.524 . S
C518 H530 0.956 . S
C518 H531 0.961 . S
C518 H532 0.961 . S
C519 C516 1.539 . S
C519 H533 0.958 . S
C519 H534 0.961 . S
C519 H535 0.960 . S
H520 C504 0.931 . S
H521 C509 0.929 . S
H522 C510 0.960 . S
H523 C510 0.962 . S
H524 C510 0.960 . S
H525 C511 0.961 . S
H526 C511 0.961 . S
H527 C511 0.961 . S
H528 C512 0.931 . S
H529 C517 0.930 . S
H530 C518 0.956 . S
H531 C518 0.961 . S
H532 C518 0.961 . S
H533 C519 0.958 . S
H534 C519 0.961 . S
H535 C519 0.960 . S
C536 C537 1.391 . S
C536 C538 1.394 . S
C536 H552 0.931 . S
C537 C536 1.391 . S
C537 C541 1.376 . S
C538 C536 1.394 . S
C538 C539 1.369 . S
C538 C542 1.531 . S
C539 C538 1.369 . S
C539 C540 1.410 . S
C539 C547 1.503 . S
C540 C539 1.410 . S
C540 C541 1.392 . S
C540 C543 1.511 . S
C541 C537 1.376 . S
C541 C540 1.392 . S
C541 H553 0.929 . S
C542 C538 1.531 . S
C542 H554 0.960 . S
C542 H555 0.962 . S
C542 H556 0.960 . S
C543 C540 1.511 . S
C543 H557 0.961 . S
C543 H558 0.961 . S
C543 H559 0.961 . S
C544 C545 1.370 . S
C544 C546 1.363 . S
C544 H560 0.931 . S
C545 C544 1.370 . S
C545 C549 1.408 . S
C546 C544 1.363 . S
C546 C547 1.370 . S
C546 C550 1.524 . S
C547 C539 1.503 . S
C547 C546 1.370 . S
C547 C548 1.403 . S
C548 C547 1.403 . S
C548 C549 1.404 . S
C548 C551 1.539 . S
C549 C545 1.408 . S
C549 C548 1.404 . S
C549 H561 0.930 . S
C550 C546 1.524 . S
C550 H562 0.956 . S
C550 H563 0.961 . S
C550 H564 0.961 . S
C551 C548 1.539 . S
C551 H565 0.958 . S
C551 H566 0.961 . S
C551 H567 0.960 . S
H552 C536 0.931 . S
H553 C541 0.929 . S
H554 C542 0.960 . S
H555 C542 0.962 . S
H556 C542 0.960 . S
H557 C543 0.961 . S
H558 C543 0.961 . S
H559 C543 0.961 . S
H560 C544 0.931 . S
H561 C549 0.930 . S
H562 C550 0.956 . S
H563 C550 0.961 . S
H564 C550 0.961 . S
H565 C551 0.958 . S
H566 C551 0.961 . S
H567 C551 0.960 . S
C568 C569 1.391 . S
C568 C570 1.394 . S
C568 H584 0.931 . S
C569 C568 1.391 . S
C569 C573 1.376 . S
C570 C568 1.394 . S
C570 C571 1.369 . S
C570 C574 1.531 . S
C571 C570 1.369 . S
C571 C572 1.410 . S
C571 C579 1.503 . S
C572 C571 1.410 . S
C572 C573 1.392 . S
C572 C575 1.511 . S
C573 C569 1.376 . S
C573 C572 1.392 . S
C573 H585 0.929 . S
C574 C570 1.531 . S
C574 H586 0.960 . S
C574 H587 0.962 . S
C574 H588 0.960 . S
C575 C572 1.511 . S
C575 H589 0.961 . S
C575 H590 0.961 . S
C575 H591 0.961 . S
C576 C577 1.370 . S
C576 C578 1.363 . S
C576 H592 0.931 . S
C577 C576 1.370 . S
C577 C581 1.408 . S
C578 C576 1.363 . S
C578 C579 1.370 . S
C578 C582 1.524 . S
C579 C571 1.503 . S
C579 C578 1.370 . S
C579 C580 1.403 . S
C580 C579 1.403 . S
C580 C581 1.404 . S
C580 C583 1.539 . S
C581 C577 1.408 . S
C581 C580 1.404 . S
C581 H593 0.930 . S
C582 C578 1.524 . S
C582 H594 0.956 . S
C582 H595 0.961 . S
C582 H596 0.961 . S
C583 C580 1.539 . S
C583 H597 0.958 . S
C583 H598 0.961 . S
C583 H599 0.960 . S
H584 C568 0.931 . S
H585 C573 0.929 . S
H586 C574 0.960 . S
H587 C574 0.962 . S
H588 C574 0.960 . S
H589 C575 0.961 . S
H590 C575 0.961 . S
H591 C575 0.961 . S
H592 C576 0.931 . S
H593 C581 0.930 . S
H594 C582 0.956 . S
H595 C582 0.961 . S
H596 C582 0.961 . S
H597 C583 0.958 . S
H598 C583 0.961 . S
H599 C583 0.960 . S
C600 C601 1.391 . S
C600 C602 1.394 . S
C600 H616 0.931 . S
C601 C600 1.391 . S
C601 C605 1.376 . S
C602 C600 1.394 . S
C602 C603 1.369 . S
C602 C606 1.531 . S
C603 C602 1.369 . S
C603 C604 1.410 . S
C603 C611 1.503 . S
C604 C603 1.410 . S
C604 C605 1.392 . S
C604 C607 1.511 . S
C605 C601 1.376 . S
C605 C604 1.392 . S
C605 H617 0.929 . S
C606 C602 1.531 . S
C606 H618 0.960 . S
C606 H619 0.962 . S
C606 H620 0.960 . S
C607 C604 1.511 . S
C607 H621 0.961 . S
C607 H622 0.961 . S
C607 H623 0.961 . S
C608 C609 1.370 . S
C608 C610 1.363 . S
C608 H624 0.931 . S
C609 C608 1.370 . S
C609 C613 1.408 . S
C610 C608 1.363 . S
C610 C611 1.370 . S
C610 C614 1.524 . S
C611 C603 1.503 . S
C611 C610 1.370 . S
C611 C612 1.403 . S
C612 C611 1.403 . S
C612 C613 1.404 . S
C612 C615 1.539 . S
C613 C609 1.408 . S
C613 C612 1.404 . S
C613 H625 0.930 . S
C614 C610 1.524 . S
C614 H626 0.956 . S
C614 H627 0.961 . S
C614 H628 0.961 . S
C615 C612 1.539 . S
C615 H629 0.958 . S
C615 H630 0.961 . S
C615 H631 0.960 . S
H616 C600 0.931 . S
H617 C605 0.929 . S
H618 C606 0.960 . S
H619 C606 0.962 . S
H620 C606 0.960 . S
H621 C607 0.961 . S
H622 C607 0.961 . S
H623 C607 0.961 . S
H624 C608 0.931 . S
H625 C613 0.930 . S
H626 C614 0.956 . S
H627 C614 0.961 . S
H628 C614 0.961 . S
H629 C615 0.958 . S
H630 C615 0.961 . S
H631 C615 0.960 . S
C632 C633 1.391 . S
C632 C634 1.394 . S
C632 H648 0.931 . S
C633 C632 1.391 . S
C633 C637 1.376 . S
C634 C632 1.394 . S
C634 C635 1.369 . S
C634 C638 1.531 . S
C635 C634 1.369 . S
C635 C636 1.410 . S
C635 C643 1.503 . S
C636 C635 1.410 . S
C636 C637 1.392 . S
C636 C639 1.511 . S
C637 C633 1.376 . S
C637 C636 1.392 . S
C637 H649 0.929 . S
C638 C634 1.531 . S
C638 H650 0.960 . S
C638 H651 0.962 . S
C638 H652 0.960 . S
C639 C636 1.511 . S
C639 H653 0.961 . S
C639 H654 0.961 . S
C639 H655 0.961 . S
C640 C641 1.370 . S
C640 C642 1.363 . S
C640 H656 0.931 . S
C641 C640 1.370 . S
C641 C645 1.408 . S
C642 C640 1.363 . S
C642 C643 1.370 . S
C642 C646 1.524 . S
C643 C635 1.503 . S
C643 C642 1.370 . S
C643 C644 1.403 . S
C644 C643 1.403 . S
C644 C645 1.404 . S
C644 C647 1.539 . S
C645 C641 1.408 . S
C645 C644 1.404 . S
C645 H657 0.930 . S
C646 C642 1.524 . S
C646 H658 0.956 . S
C646 H659 0.961 . S
C646 H660 0.961 . S
C647 C644 1.539 . S
C647 H661 0.958 . S
C647 H662 0.961 . S
C647 H663 0.960 . S
H648 C632 0.931 . S
H649 C637 0.929 . S
H650 C638 0.960 . S
H651 C638 0.962 . S
H652 C638 0.960 . S
H653 C639 0.961 . S
H654 C639 0.961 . S
H655 C639 0.961 . S
H656 C640 0.931 . S
H657 C645 0.930 . S
H658 C646 0.956 . S
H659 C646 0.961 . S
H660 C646 0.961 . S
H661 C647 0.958 . S
H662 C647 0.961 . S
H663 C647 0.960 . S
C664 C665 1.391 . S
C664 C666 1.394 . S
C664 H680 0.931 . S
C665 C664 1.391 . S
C665 C669 1.376 . S
C666 C664 1.394 . S
C666 C667 1.369 . S
C666 C670 1.531 . S
C667 C666 1.369 . S
C667 C668 1.410 . S
C667 C675 1.503 . S
C668 C667 1.410 . S
C668 C669 1.392 . S
C668 C671 1.511 . S
C669 C665 1.376 . S
C669 C668 1.392 . S
C669 H681 0.929 . S
C670 C666 1.531 . S
C670 H682 0.960 . S
C670 H683 0.962 . S
C670 H684 0.960 . S
C671 C668 1.511 . S
C671 H685 0.961 . S
C671 H686 0.961 . S
C671 H687 0.961 . S
C672 C673 1.370 . S
C672 C674 1.363 . S
C672 H688 0.931 . S
C673 C672 1.370 . S
C673 C677 1.408 . S
C674 C672 1.363 . S
C674 C675 1.370 . S
C674 C678 1.524 . S
C675 C667 1.503 . S
C675 C674 1.370 . S
C675 C676 1.403 . S
C676 C675 1.403 . S
C676 C677 1.404 . S
C676 C679 1.539 . S
C677 C673 1.408 . S
C677 C676 1.404 . S
C677 H689 0.930 . S
C678 C674 1.524 . S
C678 H690 0.956 . S
C678 H691 0.961 . S
C678 H692 0.961 . S
C679 C676 1.539 . S
C679 H693 0.958 . S
C679 H694 0.961 . S
C679 H695 0.960 . S
H680 C664 0.931 . S
H681 C669 0.929 . S
H682 C670 0.960 . S
H683 C670 0.962 . S
H684 C670 0.960 . S
H685 C671 0.961 . S
H686 C671 0.961 . S
H687 C671 0.961 . S
H688 C672 0.931 . S
H689 C677 0.930 . S
H690 C678 0.956 . S
H691 C678 0.961 . S
H692 C678 0.961 . S
H693 C679 0.958 . S
H694 C679 0.961 . S
H695 C679 0.960 . S
C696 C697 1.391 . S
C696 C698 1.394 . S
C696 H712 0.931 . S
C697 C696 1.391 . S
C697 C701 1.376 1_455 S
C698 C696 1.394 . S
C698 C699 1.369 . S
C698 C702 1.531 . S
C699 C698 1.369 . S
C699 C700 1.410 1_455 S
C699 C707 1.503 . S
C700 C699 1.410 1_655 S
C700 C701 1.392 . S
C700 C703 1.511 . S
C701 C697 1.376 1_655 S
C701 C700 1.392 . S
C701 H713 0.929 . S
C702 C698 1.531 . S
C702 H714 0.960 . S
C702 H715 0.962 . S
C702 H716 0.960 . S
C703 C700 1.511 . S
C703 H717 0.961 . S
C703 H718 0.961 . S
C703 H719 0.961 . S
C704 C705 1.370 1_554 S
C704 C706 1.363 . S
C704 H720 0.931 1_554 S
C705 C704 1.370 1_556 S
C705 C709 1.405 1_556 S
C706 C704 1.363 . S
C706 C707 1.370 . S
C706 C710 1.524 . S
C707 C699 1.503 . S
C707 C706 1.370 . S
C707 C708 1.403 . S
C708 C707 1.403 . S
C708 C709 1.404 . S
C708 C711 1.539 1_455 S
C709 C705 1.405 1_554 S
C709 C708 1.404 . S
C709 H721 0.933 1_455 S
C710 C706 1.524 . S
C710 H722 0.956 . S
C710 H723 0.961 . S
C710 H724 0.961 . S
C711 C708 1.539 1_655 S
C711 H725 0.958 1_655 S
C711 H726 0.961 . S
C711 H727 0.960 . S
H712 C696 0.931 . S
H713 C701 0.929 . S
H714 C702 0.960 . S
H715 C702 0.962 . S
H716 C702 0.960 . S
H717 C703 0.961 . S
H718 C703 0.961 . S
H719 C703 0.961 . S
H720 C704 0.931 1_556 S
H721 C709 0.933 1_655 S
H722 C710 0.956 . S
H723 C710 0.961 . S
H724 C710 0.961 . S
H725 C711 0.958 1_455 S
H726 C711 0.961 . S
H727 C711 0.960 . S
C728 C729 1.391 . S
C728 C730 1.394 . S
C728 H744 0.931 . S
C729 C728 1.391 . S
C729 C733 1.376 . S
C730 C728 1.394 . S
C730 C731 1.369 . S
C730 C734 1.531 . S
C731 C730 1.369 . S
C731 C732 1.410 . S
C731 C739 1.503 . S
C732 C731 1.410 . S
C732 C733 1.392 . S
C732 C735 1.511 1_545 S
C733 C729 1.376 . S
C733 C732 1.392 . S
C733 H745 0.929 1_545 S
C734 C730 1.531 . S
C734 H746 0.960 . S
C734 H747 0.962 . S
C734 H748 0.960 . S
C735 C732 1.511 1_565 S
C735 H749 0.961 . S
C735 H750 0.961 . S
C735 H751 0.962 1_565 S
C736 C737 1.370 . S
C736 C738 1.363 . S
C736 H752 0.931 . S
C737 C736 1.370 . S
C737 C741 1.408 . S
C738 C736 1.363 . S
C738 C739 1.370 . S
C738 C742 1.524 . S
C739 C731 1.503 . S
C739 C738 1.370 . S
C739 C740 1.403 . S
C740 C739 1.403 . S
C740 C741 1.404 . S
C740 C743 1.539 . S
C741 C737 1.408 . S
C741 C740 1.404 . S
C741 H753 0.930 . S
C742 C738 1.524 . S
C742 H754 0.956 . S
C742 H755 0.961 1_545 S
C742 H756 0.961 1_545 S
C743 C740 1.539 . S
C743 H757 0.958 . S
C743 H758 0.961 . S
C743 H759 0.960 . S
H744 C728 0.931 . S
H745 C733 0.929 1_565 S
H746 C734 0.960 . S
H747 C734 0.962 . S
H748 C734 0.960 . S
H749 C735 0.961 . S
H750 C735 0.961 . S
H751 C735 0.962 1_545 S
H752 C736 0.931 . S
H753 C741 0.930 . S
H754 C742 0.956 . S
H755 C742 0.961 1_565 S
H756 C742 0.961 1_565 S
H757 C743 0.958 . S
H758 C743 0.961 . S
H759 C743 0.960 . S
C760 C761 1.391 . S
C760 C762 1.394 . S
C760 H776 0.931 . S
C761 C760 1.391 . S
C761 C765 1.376 . S
C762 C760 1.394 . S
C762 C763 1.369 . S
C762 C766 1.531 . S
C763 C762 1.369 . S
C763 C764 1.410 . S
C763 C771 1.503 . S
C764 C763 1.410 . S
C764 C765 1.392 . S
C764 C767 1.511 . S
C765 C761 1.376 . S
C765 C764 1.392 . S
C765 H777 0.929 . S
C766 C762 1.531 . S
C766 H778 0.960 . S
C766 H779 0.962 . S
C766 H780 0.960 . S
C767 C764 1.511 . S
C767 H781 0.961 . S
C767 H782 0.961 . S
C767 H783 0.961 . S
C768 C769 1.370 . S
C768 C770 1.363 . S
C768 H784 0.931 . S
C769 C768 1.370 . S
C769 C773 1.408 . S
C770 C768 1.363 . S
C770 C771 1.370 . S
C770 C774 1.524 . S
C771 C763 1.503 . S
C771 C770 1.370 . S
C771 C772 1.403 . S
C772 C771 1.403 . S
C772 C773 1.404 . S
C772 C775 1.539 . S
C773 C769 1.408 . S
C773 C772 1.404 . S
C773 H785 0.930 . S
C774 C770 1.524 . S
C774 H786 0.956 . S
C774 H787 0.961 . S
C774 H788 0.961 . S
C775 C772 1.539 . S
C775 H789 0.958 . S
C775 H790 0.961 . S
C775 H791 0.960 . S
H776 C760 0.931 . S
H777 C765 0.929 . S
H778 C766 0.960 . S
H779 C766 0.962 . S
H780 C766 0.960 . S
H781 C767 0.961 . S
H782 C767 0.961 . S
H783 C767 0.961 . S
H784 C768 0.931 . S
H785 C773 0.930 . S
H786 C774 0.956 . S
H787 C774 0.961 . S
H788 C774 0.961 . S
H789 C775 0.958 . S
H790 C775 0.961 . S
H791 C775 0.960 . S
C792 C793 1.391 1_565 S
C792 C794 1.394 . S
C792 H808 0.931 . S
C793 C792 1.391 1_545 S
C793 C797 1.376 . S
C794 C792 1.394 . S
C794 C795 1.369 1_565 S
C794 C798 1.531 . S
C795 C794 1.369 1_545 S
C795 C796 1.410 . S
C795 C803 1.503 . S
C796 C795 1.410 . S
C796 C797 1.392 . S
C796 C799 1.511 . S
C797 C793 1.376 . S
C797 C796 1.392 . S
C797 H809 0.929 . S
C798 C794 1.531 . S
C798 H810 0.960 . S
C798 H811 0.962 . S
C798 H812 0.960 . S
C799 C796 1.511 . S
C799 H813 0.961 . S
C799 H814 0.961 . S
C799 H815 0.961 . S
C800 C801 1.370 . S
C800 C802 1.363 . S
C800 H816 0.931 . S
C801 C800 1.370 . S
C801 C805 1.408 . S
C802 C800 1.363 . S
C802 C803 1.370 . S
C802 C806 1.524 . S
C803 C795 1.503 . S
C803 C802 1.370 . S
C803 C804 1.403 . S
C804 C803 1.403 . S
C804 C805 1.404 . S
C804 C807 1.544 . S
C805 C801 1.408 . S
C805 C804 1.404 . S
C805 H817 0.930 1_545 S
C806 C802 1.524 . S
C806 H818 0.956 . S
C806 H819 0.961 . S
C806 H820 0.961 . S
C807 C804 1.544 . S
C807 H821 0.950 1_545 S
C807 H822 0.961 . S
C807 H823 0.963 . S
H808 C792 0.931 . S
H809 C797 0.929 . S
H810 C798 0.960 . S
H811 C798 0.962 . S
H812 C798 0.960 . S
H813 C799 0.961 . S
H814 C799 0.961 . S
H815 C799 0.961 . S
H816 C800 0.931 . S
H817 C805 0.930 1_565 S
H818 C806 0.956 . S
H819 C806 0.961 . S
H820 C806 0.961 . S
H821 C807 0.950 1_565 S
H822 C807 0.961 . S
H823 C807 0.963 . S
C824 C825 1.391 . S
C824 C826 1.394 . S
C824 H840 0.931 . S
C825 C824 1.391 . S
C825 C829 1.376 . S
C826 C824 1.394 . S
C826 C827 1.369 . S
C826 C830 1.531 . S
C827 C826 1.369 . S
C827 C828 1.410 . S
C827 C835 1.503 . S
C828 C827 1.410 . S
C828 C829 1.392 . S
C828 C831 1.511 . S
C829 C825 1.376 . S
C829 C828 1.392 . S
C829 H841 0.929 . S
C830 C826 1.531 . S
C830 H842 0.960 . S
C830 H843 0.962 . S
C830 H844 0.960 . S
C831 C828 1.511 . S
C831 H845 0.961 . S
C831 H846 0.961 . S
C831 H847 0.961 . S
C832 C833 1.391 . S
C832 C834 1.331 1_554 S
C832 H848 0.943 . S
C833 C832 1.391 . S
C833 C837 1.408 . S
C834 C832 1.331 1_556 S
C834 C835 1.370 . S
C834 C838 1.524 . S
C835 C827 1.503 . S
C835 C834 1.370 . S
C835 C836 1.403 . S
C836 C835 1.403 . S
C836 C837 1.404 1_556 S
C836 C839 1.539 . S
C837 C833 1.408 . S
C837 C836 1.404 1_554 S
C837 H849 0.930 . S
C838 C834 1.524 . S
C838 H850 0.956 . S
C838 H851 0.961 . S
C838 H852 0.961 . S
C839 C836 1.539 . S
C839 H853 0.958 . S
C839 H854 0.961 . S
C839 H855 0.960 . S
H840 C824 0.931 . S
H841 C829 0.929 . S
H842 C830 0.960 . S
H843 C830 0.962 . S
H844 C830 0.960 . S
H845 C831 0.961 . S
H846 C831 0.961 . S
H847 C831 0.961 . S
H848 C832 0.943 . S
H849 C837 0.930 . S
H850 C838 0.956 . S
H851 C838 0.961 . S
H852 C838 0.961 . S
H853 C839 0.958 . S
H854 C839 0.961 . S
H855 C839 0.960 . S
C856 C857 1.402 . S
C856 C858 1.395 . S
C856 H872 0.919 1_455 S
C857 C856 1.402 . S
C857 C861 1.376 . S
C858 C856 1.395 . S
C858 C859 1.369 . S
C858 C862 1.531 1_455 S
C859 C858 1.369 . S
C859 C860 1.410 . S
C859 C867 1.503 . S
C860 C859 1.410 . S
C860 C861 1.392 . S
C860 C863 1.511 . S
C861 C857 1.376 . S
C861 C860 1.392 . S
C861 H873 0.929 . S
C862 C858 1.531 1_655 S
C862 H874 0.960 . S
C862 H875 0.962 . S
C862 H876 0.960 . S
C863 C860 1.511 . S
C863 H877 0.961 . S
C863 H878 0.961 . S
C863 H879 0.961 . S
C864 C865 1.370 . S
C864 C866 1.363 . S
C864 H880 0.931 . S
C865 C864 1.370 . S
C865 C869 1.408 . S
C866 C864 1.363 . S
C866 C867 1.370 . S
C866 C870 1.524 . S
C867 C859 1.503 . S
C867 C866 1.370 . S
C867 C868 1.403 . S
C868 C867 1.403 . S
C868 C869 1.404 . S
C868 C871 1.539 . S
C869 C865 1.408 . S
C869 C868 1.404 . S
C869 H881 0.930 . S
C870 C866 1.524 . S
C870 H882 0.956 . S
C870 H883 0.961 . S
C870 H884 0.961 . S
C871 C868 1.539 . S
C871 H885 0.958 1_455 S
C871 H886 0.961 . S
C871 H887 0.960 . S
H872 C856 0.919 1_655 S
H873 C861 0.929 . S
H874 C862 0.960 . S
H875 C862 0.962 . S
H876 C862 0.960 . S
H877 C863 0.961 . S
H878 C863 0.961 . S
H879 C863 0.961 . S
H880 C864 0.931 . S
H881 C869 0.930 . S
H882 C870 0.956 . S
H883 C870 0.961 . S
H884 C870 0.961 . S
H885 C871 0.958 1_655 S
H886 C871 0.961 . S
H887 C871 0.960 . S
C313 C19 2.922 . S
C321 C303 2.885 . S
C345 C49 3.053 . S
C353 C239 2.985 . S
C377 C99 2.951 . S
C385 C271 2.920 . S
C409 C9 3.054 . S
C417 C297 3.011 . S
C449 C233 2.895 . S
C441 C59 2.933 . S
C481 C265 2.977 . S
C473 C89 3.032 . S
C505 C55 0.354 . S
C513 C175 0.371 . S
C537 C85 0.538 . S
C545 C207 0.384 . S
C569 C15 0.311 . S
C577 C137 0.489 . S
C609 C169 0.330 . S
C601 C45 0.338 . S
C641 C201 0.515 . S
C633 C95 0.363 . S
C665 C5 0.489 . S
C673 C143 0.457 . S
C705 C213 1.067 . S
C697 C18 1.095 . S
C729 C58 1.033 . S
C737 C149 1.030 . S
C761 C98 1.027 . S
C769 C181 1.083 . S
C801 C277 1.747 . S
C793 C48 1.736 . S
C833 C309 1.750 . S
C825 C88 1.727 . S
C857 C8 1.677 . S
C865 C245 1.758 . S
