# Generated by pormake.
# Topology nom, (4,4)-cn, num edge types: 1
# Building blocks:
#     Node 0, Type 0, BuildingBlock: MIFKUJ_clean_linker_1, # of connection points: 4
#     Node 1, Type 0, BuildingBlock: MIFKUJ_clean_linker_1, # of connection points: 4
#     Node 2, Type 0, BuildingBlock: MIFKUJ_clean_linker_1, # of connection points: 4
#     Node 3, Type 0, BuildingBlock: MIFKUJ_clean_linker_1, # of connection points: 4
#     Node 4, Type 0, BuildingBlock: MIFKUJ_clean_linker_1, # of connection points: 4
#     Node 5, Type 0, BuildingBlock: MIFKUJ_clean_linker_1, # of connection points: 4
#     Node 6, Type 1, BuildingBlock: UXUYUI_clean_sbu_0, # of connection points: 4
#     Node 7, Type 1, BuildingBlock: UXUYUI_clean_sbu_0, # of connection points: 4
#     Node 8, Type 1, BuildingBlock: UXUYUI_clean_sbu_0, # of connection points: 4
#     Node 9, Type 1, BuildingBlock: UXUYUI_clean_sbu_0, # of connection points: 4
#     Node 10, Type 1, BuildingBlock: UXUYUI_clean_sbu_0, # of connection points: 4
#     Node 11, Type 1, BuildingBlock: UXUYUI_clean_sbu_0, # of connection points: 4
#     Edge 12, Type (0, 1), BuildingBlock: MIFKUJ_clean_linker_0, # of connection points: 2
#     Edge 13, Type (0, 1), BuildingBlock: MIFKUJ_clean_linker_0, # of connection points: 2
#     Edge 14, Type (0, 1), BuildingBlock: MIFKUJ_clean_linker_0, # of connection points: 2
#     Edge 15, Type (0, 1), BuildingBlock: MIFKUJ_clean_linker_0, # of connection points: 2
#     Edge 16, Type (0, 1), BuildingBlock: MIFKUJ_clean_linker_0, # of connection points: 2
#     Edge 17, Type (0, 1), BuildingBlock: MIFKUJ_clean_linker_0, # of connection points: 2
#     Edge 18, Type (0, 1), BuildingBlock: MIFKUJ_clean_linker_0, # of connection points: 2
#     Edge 19, Type (0, 1), BuildingBlock: MIFKUJ_clean_linker_0, # of connection points: 2
#     Edge 20, Type (0, 1), BuildingBlock: MIFKUJ_clean_linker_0, # of connection points: 2
#     Edge 21, Type (0, 1), BuildingBlock: MIFKUJ_clean_linker_0, # of connection points: 2
#     Edge 22, Type (0, 1), BuildingBlock: MIFKUJ_clean_linker_0, # of connection points: 2
#     Edge 23, Type (0, 1), BuildingBlock: MIFKUJ_clean_linker_0, # of connection points: 2
#     Edge 24, Type (0, 1), BuildingBlock: MIFKUJ_clean_linker_0, # of connection points: 2
#     Edge 25, Type (0, 1), BuildingBlock: MIFKUJ_clean_linker_0, # of connection points: 2
#     Edge 26, Type (0, 1), BuildingBlock: MIFKUJ_clean_linker_0, # of connection points: 2
#     Edge 27, Type (0, 1), BuildingBlock: MIFKUJ_clean_linker_0, # of connection points: 2
#     Edge 28, Type (0, 1), BuildingBlock: MIFKUJ_clean_linker_0, # of connection points: 2
#     Edge 29, Type (0, 1), BuildingBlock: MIFKUJ_clean_linker_0, # of connection points: 2
#     Edge 30, Type (0, 1), BuildingBlock: MIFKUJ_clean_linker_0, # of connection points: 2
#     Edge 31, Type (0, 1), BuildingBlock: MIFKUJ_clean_linker_0, # of connection points: 2
#     Edge 32, Type (0, 1), BuildingBlock: MIFKUJ_clean_linker_0, # of connection points: 2
#     Edge 33, Type (0, 1), BuildingBlock: MIFKUJ_clean_linker_0, # of connection points: 2
#     Edge 34, Type (0, 1), BuildingBlock: MIFKUJ_clean_linker_0, # of connection points: 2
#     Edge 35, Type (0, 1), BuildingBlock: MIFKUJ_clean_linker_0, # of connection points: 2
# Relax obj value: 0.035
# Max RMSD: 0.144
# Mean RMSD: 0.118
data_MOF--net-nom--node1-UXUYUI_clean_sbu_0--node2-MIFKUJ_clean_linker_1--edge1-MIFKUJ_clean_linker_0
_symmetry_space_group_name_H-M    P1
_symmetry_Int_Tables_number       1
_symmetry_cell_setting            triclinic
loop_
_symmetry_equiv_pos_as_xyz
'x, y, z'
_cell_length_a     76.458921
_cell_length_b     76.452174
_cell_length_c     81.531294
_cell_angle_alpha  90.000547
_cell_angle_beta   89.997736
_cell_angle_gamma 120.01011
loop_
_atom_site_label
_atom_site_type_symbol
_atom_site_fract_x
_atom_site_fract_y
_atom_site_fract_z
_atom_type_partial_charge
H0 H 0.99306 0.47556 0.2969 0.0
H1 H 0.96853 0.46299 0.27434 0.0
H2 H 0.95576 0.51123 0.28292 0.0
H3 H 0.98007 0.52352 0.30573 0.0
H4 H 0.02821 0.51938 0.29996 0.0
H5 H 0.96399 0.46906 0.32586 0.0
H6 H 0.92877 0.45658 0.33376 0.0
H7 H 0.94677 0.51249 0.35945 0.0
H8 H 0.98179 0.52495 0.35137 0.0
H9 H 0.03552 0.5447 0.36856 0.0
H10 H 0.05983 0.55481 0.39099 0.0
H11 H 0.08681 0.52303 0.36799 0.0
H12 H 0.06191 0.51228 0.34592 0.0
H13 H 0.00684 0.51073 0.35824 0.0
H14 H 0.06584 0.56248 0.33653 0.0
H15 H 0.1012 0.58347 0.32863 0.0
H16 H 0.09472 0.53825 0.29368 0.0
H17 H 0.0595 0.51655 0.30228 0.0
C18 C 0.98827 0.5004 0.30294 0.0
C19 C 0.98493 0.48338 0.29392 0.0
C20 C 0.97089 0.47618 0.28114 0.0
C21 C 0.96028 0.48615 0.27696 0.0
C22 C 0.96382 0.50335 0.28589 0.0
C23 C 0.97762 0.51033 0.29889 0.0
C24 C 0.00301 0.50773 0.31656 0.0
C25 C 0.02365 0.51722 0.31274 0.0
C26 C 0.99691 0.50603 0.33311 0.0
C27 C 0.97551 0.49804 0.33787 0.0
C28 C 0.96031 0.47871 0.33303 0.0
C29 C 0.94021 0.47158 0.33758 0.0
C30 C 0.93503 0.48355 0.34724 0.0
C31 C 0.95032 0.50281 0.35218 0.0
C32 C 0.97033 0.50996 0.34754 0.0
C33 C 0.04695 0.52783 0.35548 0.0
C34 C 0.04656 0.53976 0.36841 0.0
C35 C 0.06062 0.54571 0.38115 0.0
C36 C 0.07536 0.53984 0.38124 0.0
C37 C 0.07556 0.52768 0.36837 0.0
C38 C 0.06145 0.52168 0.35566 0.0
C39 C 0.03224 0.5219 0.34177 0.0
C40 C 0.01159 0.51277 0.34551 0.0
C41 C 0.03843 0.52498 0.32511 0.0
C42 C 0.06002 0.53764 0.32031 0.0
C43 C 0.07207 0.55674 0.32749 0.0
C44 C 0.09224 0.56881 0.32291 0.0
C45 C 0.1006 0.56234 0.31066 0.0
C46 C 0.08854 0.54348 0.30319 0.0
C47 C 0.06845 0.53115 0.30807 0.0
H48 H 0.47166 0.98233 0.51696 0.0
H49 H 0.44848 0.94713 0.52404 0.0
H50 H 0.48792 0.92969 0.50016 0.0
H51 H 0.51151 0.96517 0.49365 0.0
H52 H 0.51045 0.00715 0.52575 0.0
H53 H 0.47404 0.97999 0.4735 0.0
H54 H 0.46279 0.95649 0.45036 0.0
H55 H 0.52479 0.97297 0.44059 0.0
H56 H 0.53586 0.9969 0.46337 0.0
H57 H 0.56338 0.06157 0.47332 0.0
H58 H 0.5777 0.097 0.46511 0.0
H59 H 0.5334 0.1014 0.495 0.0
H60 H 0.51901 0.06612 0.50291 0.0
H61 H 0.528 0.03013 0.46811 0.0
H62 H 0.56563 0.06048 0.51636 0.0
H63 H 0.57899 0.08432 0.53927 0.0
H64 H 0.51843 0.0611 0.55783 0.0
H65 H 0.50512 0.03743 0.53479 0.0
C66 C 0.49324 0.97638 0.50466 0.0
C67 C 0.47538 0.97094 0.51332 0.0
C68 C 0.46203 0.95077 0.51721 0.0
C69 C 0.46625 0.93556 0.51254 0.0
C70 C 0.48428 0.94105 0.50401 0.0
C71 C 0.49768 0.9613 0.50015 0.0
C72 C 0.50703 0.99789 0.50045 0.0
C73 C 0.51419 0.01221 0.51315 0.0
C74 C 0.51269 0.00442 0.48409 0.0
C75 C 0.50576 0.99009 0.47015 0.0
C76 C 0.48516 0.97849 0.46634 0.0
C77 C 0.47876 0.96498 0.45316 0.0
C78 C 0.49286 0.96277 0.44357 0.0
C79 C 0.51351 0.97449 0.44749 0.0
C80 C 0.51989 0.98811 0.46057 0.0
C81 C 0.54033 0.06124 0.48896 0.0
C82 C 0.55682 0.07021 0.47815 0.0
C83 C 0.56496 0.09042 0.47345 0.0
C84 C 0.55676 0.102 0.47952 0.0
C85 C 0.54031 0.093 0.49038 0.0
C86 C 0.5321 0.07281 0.49494 0.0
C87 C 0.53086 0.03953 0.49338 0.0
C88 C 0.52454 0.02514 0.48075 0.0
C89 C 0.5263 0.03291 0.50985 0.0
C90 C 0.53437 0.04725 0.52382 0.0
C91 C 0.55523 0.06058 0.52533 0.0
C92 C 0.56286 0.07409 0.53848 0.0
C93 C 0.54975 0.07458 0.55032 0.0
C94 C 0.52887 0.0612 0.5488 0.0
C95 C 0.52126 0.04757 0.53572 0.0
H96 H 0.53584 0.55452 0.69727 0.0
H97 H 0.52518 0.56824 0.71977 0.0
H98 H 0.46302 0.53134 0.70464 0.0
H99 H 0.47371 0.51734 0.68234 0.0
H100 H 0.52657 0.51605 0.6915 0.0
H101 H 0.51313 0.56524 0.66298 0.0
H102 H 0.49041 0.57786 0.65532 0.0
H103 H 0.44983 0.52032 0.63284 0.0
H104 H 0.47216 0.50766 0.64098 0.0
H105 H 0.50388 0.4845 0.62468 0.0
H106 H 0.51673 0.473 0.60213 0.0
H107 H 0.57676 0.50596 0.62271 0.0
H108 H 0.5639 0.51755 0.64512 0.0
H109 H 0.5107 0.51978 0.63306 0.0
H110 H 0.51294 0.4678 0.66233 0.0
H111 H 0.52571 0.44606 0.67229 0.0
H112 H 0.57752 0.49801 0.69321 0.0
H113 H 0.56447 0.51975 0.68344 0.0
C114 C 0.50562 0.53512 0.68797 0.0
C115 C 0.51991 0.54936 0.69881 0.0
C116 C 0.51381 0.55716 0.71167 0.0
C117 C 0.49328 0.55091 0.71391 0.0
C118 C 0.47897 0.53665 0.70306 0.0
C119 C 0.48507 0.52867 0.6903 0.0
C120 C 0.51232 0.52669 0.67454 0.0
C121 C 0.52343 0.51724 0.67869 0.0
C122 C 0.50721 0.52713 0.6579 0.0
C123 C 0.49423 0.53544 0.6527 0.0
C124 C 0.49929 0.55536 0.65646 0.0
C125 C 0.48637 0.56258 0.65198 0.0
C126 C 0.46823 0.55003 0.64359 0.0
C127 C 0.46348 0.53025 0.63956 0.0
C128 C 0.47634 0.52306 0.64405 0.0
C129 C 0.53287 0.50177 0.6367 0.0
C130 C 0.51981 0.48925 0.62435 0.0
C131 C 0.52718 0.48271 0.61145 0.0
C132 C 0.54777 0.48858 0.61064 0.0
C133 C 0.56078 0.50094 0.62311 0.0
C134 C 0.55342 0.50755 0.63595 0.0
C135 C 0.52524 0.50948 0.65001 0.0
C136 C 0.51404 0.51882 0.64585 0.0
C137 C 0.52938 0.50812 0.66671 0.0
C138 C 0.53783 0.49537 0.6721 0.0
C139 C 0.5271 0.47453 0.66898 0.0
C140 C 0.53433 0.46213 0.67473 0.0
C141 C 0.55254 0.47041 0.68353 0.0
C142 C 0.56347 0.49133 0.68639 0.0
C143 C 0.55604 0.5037 0.68088 0.0
H144 H 0.03597 0.55119 0.79418 0.0
H145 H 0.05986 0.56394 0.77144 0.0
H146 H 0.08748 0.53014 0.78926 0.0
H147 H 0.06267 0.51647 0.81138 0.0
H148 H 0.00762 0.51321 0.80188 0.0
H149 H 0.07147 0.56478 0.82742 0.0
H150 H 0.10697 0.57758 0.83447 0.0
H151 H 0.08988 0.52295 0.8619 0.0
H152 H 0.05478 0.50989 0.8541 0.0
H153 H 0.99885 0.48591 0.86923 0.0
H154 H 0.97457 0.47588 0.89184 0.0
H155 H 0.95104 0.51197 0.8712 0.0
H156 H 0.97532 0.52195 0.8486 0.0
H157 H 0.02892 0.52257 0.86018 0.0
H158 H 0.9716 0.46938 0.83733 0.0
H159 H 0.93678 0.44718 0.82889 0.0
H160 H 0.94068 0.49356 0.79625 0.0
H161 H 0.97534 0.51618 0.80544 0.0
C162 C 0.04769 0.53311 0.80465 0.0
C163 C 0.0471 0.54643 0.79312 0.0
C164 C 0.06095 0.5539 0.78021 0.0
C165 C 0.07581 0.54828 0.77856 0.0
C166 C 0.07619 0.5347 0.79003 0.0
C167 C 0.06215 0.52704 0.80284 0.0
C168 C 0.03298 0.52554 0.81841 0.0
C169 C 0.01228 0.51562 0.81463 0.0
C170 C 0.03905 0.52755 0.83506 0.0
C171 C 0.06049 0.53623 0.84002 0.0
C172 C 0.07544 0.55553 0.83485 0.0
C173 C 0.0957 0.5629 0.83902 0.0
C174 C 0.10134 0.55121 0.84862 0.0
C175 C 0.0862 0.53218 0.85418 0.0
C176 C 0.06605 0.52477 0.84989 0.0
C177 C 0.98883 0.50461 0.85722 0.0
C178 C 0.98846 0.49166 0.86959 0.0
C179 C 0.97452 0.48584 0.88242 0.0
C180 C 0.96094 0.49315 0.88325 0.0
C181 C 0.96143 0.50623 0.87091 0.0
C182 C 0.9752 0.51183 0.85797 0.0
C183 C 0.00364 0.51082 0.84362 0.0
C184 C 0.02428 0.52044 0.84742 0.0
C185 C 0.99753 0.50769 0.827 0.0
C186 C 0.97604 0.49461 0.82223 0.0
C187 C 0.96485 0.47498 0.82863 0.0
C188 C 0.945 0.46215 0.82358 0.0
C189 C 0.93594 0.46852 0.8118 0.0
C190 C 0.94711 0.48825 0.80548 0.0
C191 C 0.96698 0.50115 0.81062 0.0
H192 H 0.5638 0.05634 0.02072 0.0
H193 H 0.58448 0.09146 0.02916 0.0
H194 H 0.54247 0.10579 0.00571 0.0
H195 H 0.52193 0.07046 0.99704 0.0
H196 H 0.5242 0.02884 0.02778 0.0
H197 H 0.56431 0.06522 0.98012 0.0
H198 H 0.57518 0.09026 0.95823 0.0
H199 H 0.51442 0.0601 0.93874 0.0
H200 H 0.50342 0.03604 0.96134 0.0
H201 H 0.47855 0.97592 0.97289 0.0
H202 H 0.46675 0.9414 0.96339 0.0
H203 H 0.51124 0.93842 0.99412 0.0
H204 H 0.52334 0.97305 0.00316 0.0
H205 H 0.51409 0.00893 0.96916 0.0
H206 H 0.47391 0.9709 0.01366 0.0
H207 H 0.46053 0.94609 0.03567 0.0
H208 H 0.51743 0.97892 0.06143 0.0
H209 H 0.53121 0.00267 0.03872 0.0
C210 C 0.54139 0.06082 0.00821 0.0
C211 C 0.55897 0.06702 0.01749 0.0
C212 C 0.57074 0.0871 0.02236 0.0
C213 C 0.5651 0.10145 0.01817 0.0
C214 C 0.54735 0.09517 0.00897 0.0
C215 C 0.53556 0.075 0.00406 0.0
C216 C 0.52949 0.03947 0.00286 0.0
C217 C 0.52211 0.0244 0.01497 0.0
C218 C 0.52597 0.03386 0.98611 0.0
C219 C 0.53294 0.04896 0.97262 0.0
C220 C 0.55325 0.06423 0.97132 0.0
C221 C 0.55951 0.07839 0.9586 0.0
C222 C 0.54569 0.07733 0.94667 0.0
C223 C 0.52543 0.06174 0.94786 0.0
C224 C 0.51914 0.04778 0.9607 0.0
C225 C 0.50171 0.977 0.98884 0.0
C226 C 0.48574 0.9678 0.97757 0.0
C227 C 0.47892 0.94803 0.97225 0.0
C228 C 0.48806 0.93718 0.978 0.0
C229 C 0.50402 0.94644 0.98932 0.0
C230 C 0.5108 0.96616 0.99464 0.0
C231 C 0.50946 0.99821 0.9941 0.0
C232 C 0.51598 0.01326 0.98199 0.0
C233 C 0.51192 0.0038 0.01087 0.0
C234 C 0.50371 0.98858 0.02433 0.0
C235 C 0.48367 0.97252 0.02387 0.0
C236 C 0.4759 0.95849 0.03666 0.0
C237 C 0.48783 0.96042 0.05045 0.0
C238 C 0.50785 0.97663 0.05093 0.0
C239 C 0.51571 0.99044 0.038 0.0
H240 H 0.4975 0.47504 0.19443 0.0
H241 H 0.50825 0.46174 0.21729 0.0
H242 H 0.56988 0.5095 0.21022 0.0
H243 H 0.55903 0.52262 0.18728 0.0
H244 H 0.50591 0.51821 0.19176 0.0
H245 H 0.5209 0.46915 0.16331 0.0
H246 H 0.54447 0.45731 0.15624 0.0
H247 H 0.58702 0.51681 0.13807 0.0
H248 H 0.56356 0.52854 0.14526 0.0
H249 H 0.52892 0.54659 0.12353 0.0
H250 H 0.5158 0.55691 0.10036 0.0
H251 H 0.45645 0.5269 0.12228 0.0
H252 H 0.46939 0.51601 0.14516 0.0
H253 H 0.52359 0.51367 0.13397 0.0
H254 H 0.51808 0.565 0.15872 0.0
H255 H 0.50528 0.58705 0.16722 0.0
H256 H 0.45718 0.53759 0.19405 0.0
H257 H 0.47037 0.51561 0.18564 0.0
C258 C 0.5275 0.49973 0.18919 0.0
C259 C 0.51332 0.48258 0.19781 0.0
C260 C 0.51948 0.47497 0.21077 0.0
C261 C 0.53989 0.48461 0.21549 0.0
C262 C 0.55404 0.50187 0.20689 0.0
C263 C 0.5479 0.50932 0.19378 0.0
C264 C 0.52085 0.5077 0.1755 0.0
C265 C 0.50937 0.51689 0.17907 0.0
C266 C 0.52666 0.50725 0.15914 0.0
C267 C 0.54055 0.49973 0.15485 0.0
C268 C 0.53534 0.47962 0.15786 0.0
C269 C 0.54875 0.47287 0.15375 0.0
C270 C 0.56761 0.48618 0.14668 0.0
C271 C 0.57272 0.50629 0.1437 0.0
C272 C 0.55928 0.51296 0.14768 0.0
C273 C 0.50022 0.53063 0.13622 0.0
C274 C 0.51305 0.54211 0.12333 0.0
C275 C 0.50557 0.54802 0.11011 0.0
C276 C 0.48514 0.54273 0.10957 0.0
C277 C 0.47232 0.5314 0.1225 0.0
C278 C 0.47974 0.52523 0.1356 0.0
C279 C 0.50802 0.52379 0.15007 0.0
C280 C 0.51979 0.51485 0.14659 0.0
C281 C 0.50358 0.52566 0.16663 0.0
C282 C 0.49504 0.53859 0.17138 0.0
C283 C 0.50462 0.55882 0.16626 0.0
C284 C 0.49724 0.57141 0.17111 0.0
C285 C 0.48011 0.56407 0.18125 0.0
C286 C 0.47051 0.54377 0.18637 0.0
C287 C 0.47796 0.53117 0.18153 0.0
Li288 Li 0.63949 0.4025 0.42715 0.0
Li289 Li 0.63351 0.3706 0.41527 0.0
Li290 Li 0.6649 0.40335 0.4089 0.0
Li291 Li 0.63242 0.39593 0.39684 0.0
C292 C 0.66087 0.39137 0.44632 0.0
N293 N 0.67067 0.39643 0.47926 0.0
C294 C 0.65201 0.37483 0.45697 0.0
C295 C 0.6749 0.41041 0.45238 0.0
C296 C 0.65713 0.37772 0.47359 0.0
C297 C 0.6796 0.41268 0.46908 0.0
C298 C 0.59462 0.3677 0.41594 0.0
C299 C 0.56401 0.34483 0.40153 0.0
N300 N 0.5537 0.34005 0.41595 0.0
C301 C 0.58364 0.36281 0.43057 0.0
C302 C 0.58467 0.35885 0.40126 0.0
C303 C 0.563 0.34869 0.43034 0.0
C304 C 0.63754 0.43297 0.44557 0.0
N305 N 0.63401 0.41369 0.446 0.0
C306 C 0.62061 0.40916 0.47314 0.0
C307 C 0.62563 0.40174 0.45937 0.0
C308 C 0.62385 0.42892 0.473 0.0
C309 C 0.63246 0.44091 0.459 0.0
H310 H 0.64398 0.44205 0.43469 0.0
H311 H 0.62249 0.38631 0.45924 0.0
C312 C 0.63291 0.33361 0.41248 0.0
N313 N 0.62359 0.34276 0.41977 0.0
C314 C 0.6272 0.31366 0.41633 0.0
C315 C 0.60262 0.31299 0.43534 0.0
C316 C 0.60874 0.33292 0.43105 0.0
C317 C 0.61198 0.30315 0.42802 0.0
H318 H 0.64513 0.34197 0.40393 0.0
H319 H 0.60207 0.34072 0.43712 0.0
C320 C 0.66804 0.43931 0.40329 0.0
N321 N 0.69955 0.47605 0.39298 0.0
C322 C 0.66936 0.44513 0.38688 0.0
C323 C 0.68259 0.45228 0.4145 0.0
C324 C 0.68544 0.46374 0.3819 0.0
C325 C 0.69846 0.47076 0.40903 0.0
C326 C 0.64311 0.3693 0.3801 0.0
C327 C 0.65792 0.37422 0.3681 0.0
C328 C 0.62407 0.35218 0.37809 0.0
C329 C 0.65331 0.36208 0.35415 0.0
C330 C 0.62006 0.34041 0.36398 0.0
N331 N 0.63463 0.34558 0.35239 0.0
C332 C 0.7053 0.41327 0.41504 0.0
C333 C 0.69953 0.42295 0.3889 0.0
C334 C 0.72539 0.41985 0.41096 0.0
N335 N 0.69284 0.41484 0.404 0.0
C336 C 0.71952 0.42983 0.38433 0.0
C337 C 0.7327 0.42805 0.39534 0.0
H338 H 0.69948 0.40632 0.42683 0.0
H339 H 0.68918 0.42358 0.38021 0.0
C340 C 0.60856 0.40954 0.38194 0.0
N341 N 0.61994 0.40088 0.37856 0.0
C342 C 0.60016 0.41519 0.36922 0.0
C343 C 0.61495 0.40247 0.34977 0.0
C344 C 0.62325 0.39729 0.36285 0.0
C345 C 0.60343 0.41176 0.35288 0.0
H346 H 0.60634 0.4124 0.39455 0.0
H347 H 0.63276 0.39092 0.36035 0.0
O348 O 0.65588 0.38888 0.43004 0.0
O349 O 0.6148 0.38167 0.41593 0.0
O350 O 0.6525 0.42108 0.40838 0.0
O351 O 0.64739 0.38108 0.3938 0.0
H352 H 0.64123 0.35996 0.45247 0.0
H353 H 0.68202 0.4233 0.44427 0.0
H354 H 0.65031 0.36508 0.48199 0.0
H355 H 0.69034 0.42737 0.47395 0.0
H356 H 0.55616 0.33781 0.39026 0.0
H357 H 0.59101 0.36972 0.44201 0.0
H358 H 0.59274 0.36289 0.38973 0.0
H359 H 0.55437 0.34464 0.44161 0.0
H360 H 0.6137 0.39933 0.4836 0.0
H361 H 0.63521 0.45624 0.45846 0.0
H362 H 0.63507 0.30678 0.41062 0.0
H363 H 0.5908 0.30543 0.4444 0.0
H364 H 0.6582 0.43531 0.37805 0.0
H365 H 0.68164 0.44813 0.42728 0.0
H366 H 0.68673 0.46838 0.36921 0.0
H367 H 0.70988 0.4809 0.41756 0.0
H368 H 0.67278 0.38731 0.36951 0.0
H369 H 0.6126 0.34785 0.38741 0.0
H370 H 0.6646 0.36577 0.34474 0.0
H371 H 0.60538 0.32712 0.36227 0.0
H372 H 0.73487 0.41785 0.41975 0.0
H373 H 0.7245 0.43625 0.37223 0.0
H374 H 0.59129 0.42225 0.37212 0.0
H375 H 0.61809 0.39987 0.33733 0.0
Li376 Li 0.25435 0.63866 0.59485 0.0
Li377 Li 0.27999 0.63278 0.58216 0.0
Li378 Li 0.2797 0.66517 0.57683 0.0
Li379 Li 0.25451 0.63334 0.56423 0.0
C380 C 0.28906 0.66206 0.61331 0.0
N381 N 0.29894 0.67724 0.64483 0.0
C382 C 0.29515 0.65269 0.62488 0.0
C383 C 0.28841 0.6794 0.61769 0.0
C384 C 0.29996 0.66051 0.64077 0.0
C385 C 0.29336 0.68678 0.6337 0.0
C386 C 0.24678 0.595 0.58397 0.0
C387 C 0.24611 0.56573 0.57217 0.0
N388 N 0.24041 0.55622 0.58693 0.0
C389 C 0.24063 0.58482 0.59896 0.0
C390 C 0.2493 0.58529 0.57042 0.0
C391 C 0.2376 0.56527 0.60023 0.0
C392 C 0.22126 0.63494 0.61376 0.0
N393 N 0.23784 0.63273 0.61394 0.0
C394 C 0.23026 0.61957 0.64123 0.0
C395 C 0.24247 0.62519 0.6273 0.0
C396 C 0.21303 0.62167 0.64143 0.0
C397 C 0.20867 0.62964 0.62751 0.0
H398 H 0.21757 0.64045 0.60285 0.0
H399 H 0.25538 0.62303 0.62698 0.0
C400 C 0.3139 0.62816 0.57645 0.0
N401 N 0.29738 0.62209 0.58613 0.0
C402 C 0.32784 0.62193 0.57987 0.0
C403 C 0.30757 0.60337 0.60322 0.0
C404 C 0.29401 0.60993 0.59932 0.0
C405 C 0.32488 0.60951 0.59352 0.0
H406 H 0.31652 0.63825 0.56628 0.0
H407 H 0.28115 0.60588 0.60716 0.0
C408 C 0.24513 0.6683 0.57606 0.0
N409 N 0.23594 0.69897 0.5752 0.0
C410 C 0.23827 0.67256 0.56154 0.0
C411 C 0.24694 0.67939 0.59021 0.0
C412 C 0.23382 0.6882 0.56133 0.0
C413 C 0.24232 0.69489 0.58952 0.0
C414 C 0.28851 0.64595 0.54532 0.0
C415 C 0.29398 0.66188 0.53431 0.0
C416 C 0.28759 0.62816 0.5399 0.0
C417 C 0.29791 0.65954 0.51796 0.0
C418 C 0.29164 0.62641 0.52346 0.0
N419 N 0.29663 0.64199 0.51292 0.0
C420 C 0.31415 0.70356 0.58145 0.0
C421 C 0.29216 0.70229 0.56042 0.0
C422 C 0.3279 0.72372 0.57777 0.0
N423 N 0.29669 0.69331 0.5728 0.0
C424 C 0.30552 0.72238 0.55625 0.0
C425 C 0.32379 0.73334 0.56487 0.0
H426 H 0.31764 0.69594 0.59097 0.0
H427 H 0.27859 0.69362 0.5533 0.0
C428 C 0.22288 0.60308 0.54473 0.0
N429 N 0.23821 0.62257 0.54508 0.0
C430 C 0.21057 0.5955 0.53086 0.0
C431 C 0.22995 0.62824 0.51806 0.0
C432 C 0.24184 0.63516 0.53215 0.0
C433 C 0.21398 0.60818 0.5173 0.0
H434 H 0.21995 0.5935 0.55532 0.0
H435 H 0.25379 0.65071 0.53288 0.0
O436 O 0.28426 0.65458 0.59768 0.0
O437 O 0.25 0.61424 0.58253 0.0
O438 O 0.24967 0.6531 0.57647 0.0
O439 O 0.28447 0.64792 0.56136 0.0
H440 H 0.296 0.63943 0.62168 0.0
H441 H 0.28441 0.68726 0.60878 0.0
H442 H 0.30452 0.65329 0.64988 0.0
H443 H 0.29286 0.70015 0.63725 0.0
H444 H 0.24809 0.55809 0.56179 0.0
H445 H 0.23832 0.59194 0.60952 0.0
H446 H 0.25346 0.59268 0.55863 0.0
H447 H 0.233 0.55728 0.6118 0.0
H448 H 0.23422 0.61357 0.65172 0.0
H449 H 0.19536 0.6312 0.62706 0.0
H450 H 0.34088 0.62692 0.57199 0.0
H451 H 0.30487 0.59417 0.61406 0.0
H452 H 0.2365 0.66398 0.55052 0.0
H453 H 0.2516 0.67591 0.60167 0.0
H454 H 0.22865 0.69175 0.55014 0.0
H455 H 0.24372 0.70362 0.60038 0.0
H456 H 0.29501 0.67584 0.53829 0.0
H457 H 0.28401 0.61593 0.54832 0.0
H458 H 0.30197 0.67169 0.50929 0.0
H459 H 0.2909 0.61268 0.51911 0.0
H460 H 0.34169 0.7316 0.58485 0.0
H461 H 0.30189 0.72897 0.54599 0.0
H462 H 0.1982 0.58004 0.53092 0.0
H463 H 0.23323 0.63852 0.50788 0.0
Li464 Li 0.66502 0.28055 0.74998 0.0
Li465 Li 0.63336 0.25491 0.76244 0.0
Li466 Li 0.63862 0.25555 0.73233 0.0
Li467 Li 0.63356 0.28136 0.74537 0.0
C468 C 0.66763 0.24522 0.75115 0.0
N469 N 0.69667 0.23388 0.75332 0.0
C470 C 0.67227 0.24005 0.76632 0.0
C471 C 0.67744 0.2442 0.73703 0.0
C472 C 0.68709 0.23449 0.76718 0.0
C473 C 0.69216 0.23854 0.73839 0.0
C474 C 0.63897 0.28924 0.77871 0.0
C475 C 0.60886 0.28409 0.79253 0.0
N476 N 0.6205 0.29892 0.80337 0.0
C477 C 0.65063 0.30442 0.78998 0.0
C478 C 0.61791 0.27896 0.77997 0.0
C479 C 0.64101 0.3091 0.80237 0.0
C480 C 0.703 0.31518 0.745 0.0
N481 N 0.69318 0.29778 0.75379 0.0
C482 C 0.72279 0.30727 0.76984 0.0
C483 C 0.70258 0.2937 0.76613 0.0
C484 C 0.73329 0.32539 0.76097 0.0
C485 C 0.72317 0.3292 0.74833 0.0
H486 H 0.69502 0.31845 0.73566 0.0
H487 H 0.69422 0.28027 0.77347 0.0
C488 C 0.60472 0.22091 0.78076 0.0
N489 N 0.62277 0.23838 0.78136 0.0
C490 C 0.5975 0.20839 0.79454 0.0
C491 C 0.62756 0.23216 0.80926 0.0
C492 C 0.63411 0.24427 0.79524 0.0
C493 C 0.60909 0.21388 0.80898 0.0
H494 H 0.59611 0.21655 0.76949 0.0
H495 H 0.64842 0.25825 0.79534 0.0
C496 C 0.66358 0.29118 0.71444 0.0
N497 N 0.6818 0.30301 0.68406 0.0
C498 C 0.65726 0.30083 0.70333 0.0
C499 C 0.67937 0.28783 0.71019 0.0
C500 C 0.6666 0.30661 0.68801 0.0
C501 C 0.68834 0.29385 0.69475 0.0
C502 C 0.59861 0.24671 0.73355 0.0
C503 C 0.60184 0.25858 0.71961 0.0
C504 C 0.57968 0.22965 0.73615 0.0
C505 C 0.58608 0.25317 0.70847 0.0
C506 C 0.56429 0.22474 0.72472 0.0
N507 N 0.56778 0.2365 0.71123 0.0
C508 C 0.63032 0.22 0.71553 0.0
C509 C 0.63014 0.24496 0.69843 0.0
C510 C 0.62495 0.20664 0.70231 0.0
N511 N 0.63279 0.23874 0.71339 0.0
C512 C 0.62464 0.23208 0.68492 0.0
C513 C 0.62184 0.21258 0.68678 0.0
H514 H 0.63224 0.21531 0.7276 0.0
H515 H 0.63188 0.25976 0.69698 0.0
C516 C 0.63895 0.31925 0.73925 0.0
N517 N 0.62424 0.30001 0.74249 0.0
C518 C 0.63398 0.33409 0.7358 0.0
C519 C 0.59874 0.30914 0.73941 0.0
C520 C 0.60444 0.2948 0.743 0.0
C521 C 0.6136 0.32908 0.73553 0.0
H522 H 0.65459 0.32296 0.7391 0.0
H523 H 0.59304 0.27942 0.74581 0.0
O524 O 0.65305 0.25056 0.75008 0.0
O525 O 0.64823 0.28456 0.76652 0.0
O526 O 0.65451 0.28533 0.72947 0.0
O527 O 0.61389 0.25158 0.74457 0.0
H528 H 0.66464 0.2405 0.77735 0.0
H529 H 0.6736 0.2475 0.72512 0.0
H530 H 0.69097 0.23063 0.77887 0.0
H531 H 0.69992 0.23776 0.72757 0.0
H532 H 0.59259 0.27627 0.79365 0.0
H533 H 0.66695 0.3125 0.78915 0.0
H534 H 0.60862 0.26715 0.77139 0.0
H535 H 0.64985 0.32082 0.81118 0.0
H536 H 0.72988 0.30395 0.77993 0.0
H537 H 0.7307 0.34296 0.74117 0.0
H538 H 0.58327 0.19433 0.79377 0.0
H539 H 0.63685 0.23705 0.82019 0.0
H540 H 0.64519 0.30373 0.70648 0.0
H541 H 0.6848 0.2809 0.7188 0.0
H542 H 0.66178 0.31398 0.67925 0.0
H543 H 0.70055 0.29132 0.6913 0.0
H544 H 0.61635 0.27184 0.71742 0.0
H545 H 0.5769 0.22028 0.74687 0.0
H546 H 0.5884 0.26224 0.69763 0.0
H547 H 0.54957 0.21156 0.72657 0.0
H548 H 0.62271 0.19166 0.70431 0.0
H549 H 0.62257 0.23733 0.67313 0.0
H550 H 0.64601 0.34932 0.7333 0.0
H551 H 0.58284 0.30447 0.73925 0.0
Li552 Li 0.3987 0.63452 0.9264 0.0
Li553 Li 0.4056 0.6667 0.91534 0.0
Li554 Li 0.37333 0.63585 0.90872 0.0
Li555 Li 0.40508 0.64169 0.89688 0.0
C556 C 0.38665 0.65717 0.94593 0.0
N557 N 0.39351 0.67449 0.97673 0.0
C558 C 0.40521 0.66389 0.95372 0.0
C559 C 0.37154 0.65919 0.95383 0.0
C560 C 0.4084 0.67263 0.96927 0.0
C561 C 0.3753 0.668 0.9694 0.0
C562 C 0.44318 0.67067 0.91642 0.0
C563 C 0.47121 0.70062 0.90484 0.0
N564 N 0.48226 0.70275 0.91854 0.0
C565 C 0.45486 0.67308 0.93035 0.0
C566 C 0.45146 0.68448 0.90353 0.0
C567 C 0.47456 0.68942 0.9312 0.0
C568 C 0.41974 0.61928 0.94361 0.0
N569 N 0.40308 0.62128 0.94437 0.0
C570 C 0.39505 0.60628 0.97104 0.0
C571 C 0.39062 0.61479 0.95763 0.0
C572 C 0.41249 0.6045 0.97081 0.0
C573 C 0.42481 0.611 0.95676 0.0
H574 H 0.42934 0.62455 0.93288 0.0
H575 H 0.37741 0.61649 0.9579 0.0
C576 C 0.40688 0.70362 0.91224 0.0
N577 N 0.41634 0.69478 0.91979 0.0
C578 C 0.41265 0.72372 0.91553 0.0
C579 C 0.43791 0.72534 0.93427 0.0
C580 C 0.43159 0.70519 0.93067 0.0
C581 C 0.42829 0.73481 0.92675 0.0
H582 H 0.39459 0.69493 0.90384 0.0
H583 H 0.43857 0.69781 0.93688 0.0
C584 C 0.36955 0.59795 0.91325 0.0
N585 N 0.34145 0.56034 0.92506 0.0
C586 C 0.36847 0.58056 0.90669 0.0
C587 C 0.35633 0.59623 0.92581 0.0
C588 C 0.35415 0.56167 0.91282 0.0
C589 C 0.34223 0.57708 0.93162 0.0
C590 C 0.39319 0.66339 0.87798 0.0
C591 C 0.3783 0.6508 0.86683 0.0
C592 C 0.40943 0.68166 0.87258 0.0
C593 C 0.3802 0.65645 0.85035 0.0
C594 C 0.41078 0.68679 0.85599 0.0
N595 N 0.39628 0.67417 0.84531 0.0
C596 C 0.33665 0.63564 0.91112 0.0
C597 C 0.33549 0.61025 0.8937 0.0
C598 C 0.31664 0.62974 0.90736 0.0
N599 N 0.34561 0.62593 0.90425 0.0
C600 C 0.31548 0.60393 0.8895 0.0
C601 C 0.30581 0.61381 0.89627 0.0
H602 H 0.34519 0.6482 0.91932 0.0
H603 H 0.34312 0.60299 0.88826 0.0
C604 C 0.43588 0.64229 0.87661 0.0
N605 N 0.41587 0.63606 0.87782 0.0
C606 C 0.4433 0.63703 0.86295 0.0
C607 C 0.40936 0.61887 0.8521 0.0
C608 C 0.40259 0.62436 0.86602 0.0
C609 C 0.42996 0.62514 0.85047 0.0
H610 H 0.44606 0.65097 0.88638 0.0
H611 H 0.38665 0.61892 0.86759 0.0
O612 O 0.38319 0.64861 0.93067 0.0
O613 O 0.42378 0.65488 0.91544 0.0
O614 O 0.38354 0.61652 0.90735 0.0
O615 O 0.39159 0.65809 0.89417 0.0
H616 H 0.41704 0.66239 0.94782 0.0
H617 H 0.35704 0.65398 0.94803 0.0
H618 H 0.42273 0.67792 0.97541 0.0
H619 H 0.36374 0.66968 0.97565 0.0
H620 H 0.47777 0.71144 0.89495 0.0
H621 H 0.44875 0.66254 0.94046 0.0
H622 H 0.44275 0.68267 0.8926 0.0
H623 H 0.48373 0.69151 0.94193 0.0
H624 H 0.38493 0.6012 0.98147 0.0
H625 H 0.43856 0.61024 0.95607 0.0
H626 H 0.40492 0.73047 0.90938 0.0
H627 H 0.44979 0.73323 0.94322 0.0
H628 H 0.3786 0.58166 0.89695 0.0
H629 H 0.3569 0.6095 0.93103 0.0
H630 H 0.35314 0.54808 0.90786 0.0
H631 H 0.33192 0.57553 0.94134 0.0
H632 H 0.36551 0.63671 0.87083 0.0
H633 H 0.42078 0.69188 0.8811 0.0
H634 H 0.36888 0.64675 0.84156 0.0
H635 H 0.42332 0.70086 0.85164 0.0
H636 H 0.30976 0.63761 0.91307 0.0
H637 H 0.30789 0.59179 0.88072 0.0
H638 H 0.45929 0.64216 0.86219 0.0
H639 H 0.39849 0.60932 0.84295 0.0
Li640 Li 0.75544 0.40416 0.08292 0.0
Li641 Li 0.78063 0.39778 0.09439 0.0
Li642 Li 0.78083 0.40441 0.06535 0.0
Li643 Li 0.75482 0.37306 0.07655 0.0
C644 C 0.78969 0.43751 0.09556 0.0
N645 N 0.79933 0.46651 0.11951 0.0
C646 C 0.77833 0.43272 0.10999 0.0
C647 C 0.80595 0.45705 0.09331 0.0
C648 C 0.78344 0.4476 0.12195 0.0
C649 C 0.81058 0.4715 0.10556 0.0
C650 C 0.74597 0.36713 0.10947 0.0
C651 C 0.75163 0.34172 0.12185 0.0
N652 N 0.73565 0.33648 0.132 0.0
C653 C 0.72961 0.3615 0.12003 0.0
C654 C 0.75709 0.35717 0.11038 0.0
C655 C 0.72463 0.34597 0.13134 0.0
C656 C 0.71895 0.40065 0.09185 0.0
N657 N 0.73791 0.41454 0.08704 0.0
C658 C 0.73011 0.44105 0.08933 0.0
C659 C 0.74369 0.43443 0.08558 0.0
C660 C 0.71043 0.42704 0.09453 0.0
C661 C 0.7049 0.40658 0.09568 0.0
H662 H 0.71481 0.38493 0.09284 0.0
H663 H 0.75884 0.44515 0.08161 0.0
C664 C 0.81779 0.41031 0.10989 0.0
N665 N 0.79782 0.4029 0.1129 0.0
C666 C 0.8315 0.41604 0.12287 0.0
C667 C 0.80376 0.40599 0.14182 0.0
C668 C 0.79064 0.4007 0.12848 0.0
C669 C 0.82451 0.41397 0.13908 0.0
H670 H 0.82309 0.41215 0.09736 0.0
H671 H 0.7748 0.39533 0.13058 0.0
C672 C 0.74727 0.4018 0.04983 0.0
N673 N 0.73886 0.42322 0.02693 0.0
C674 C 0.73142 0.39163 0.03871 0.0
C675 C 0.75888 0.42287 0.04928 0.0
C676 C 0.7274 0.40273 0.02723 0.0
C677 C 0.75438 0.43343 0.03762 0.0
C678 C 0.78931 0.37315 0.06452 0.0
C679 C 0.77756 0.3653 0.05039 0.0
C680 C 0.80631 0.3711 0.06677 0.0
C681 C 0.78304 0.35552 0.03874 0.0
C682 C 0.81129 0.36121 0.05483 0.0
N683 N 0.79965 0.35369 0.04118 0.0
C684 C 0.81716 0.43136 0.04906 0.0
C685 C 0.79084 0.4085 0.03156 0.0
C686 C 0.83041 0.43924 0.03575 0.0
N687 N 0.79786 0.41617 0.04674 0.0
C688 C 0.80358 0.41579 0.01797 0.0
C689 C 0.82371 0.43122 0.01999 0.0
H690 H 0.82236 0.43705 0.0613 0.0
H691 H 0.77543 0.39643 0.03003 0.0
C692 C 0.71824 0.34114 0.0664 0.0
N693 N 0.73657 0.34531 0.07224 0.0
C694 C 0.70381 0.32142 0.06224 0.0
C695 C 0.72719 0.31048 0.07055 0.0
C696 C 0.74126 0.3305 0.07449 0.0
C697 C 0.70824 0.30579 0.06419 0.0
H698 H 0.7149 0.35322 0.06492 0.0
H699 H 0.75597 0.33425 0.07915 0.0
O700 O 0.78518 0.42322 0.08369 0.0
O701 O 0.75087 0.38223 0.09829 0.0
O702 O 0.7513 0.39103 0.06112 0.0
O703 O 0.7844 0.38293 0.0761 0.0
H704 H 0.76569 0.41772 0.11198 0.0
H705 H 0.8149 0.46098 0.08221 0.0
H706 H 0.77478 0.44409 0.13317 0.0
H707 H 0.82313 0.48668 0.10398 0.0
H708 H 0.7601 0.33389 0.12268 0.0
H709 H 0.72085 0.36906 0.11949 0.0
H710 H 0.76984 0.36132 0.10237 0.0
H711 H 0.712 0.34147 0.13959 0.0
H712 H 0.73491 0.45693 0.08809 0.0
H713 H 0.69001 0.3953 0.09983 0.0
H714 H 0.84739 0.42208 0.12027 0.0
H715 H 0.79784 0.40449 0.15413 0.0
H716 H 0.72233 0.37532 0.03894 0.0
H717 H 0.77127 0.43105 0.0577 0.0
H718 H 0.71517 0.39505 0.01856 0.0
H719 H 0.76323 0.44973 0.03706 0.0
H720 H 0.76438 0.36678 0.0484 0.0
H721 H 0.81557 0.37712 0.07764 0.0
H722 H 0.77409 0.3494 0.02774 0.0
H723 H 0.82442 0.35952 0.05642 0.0
H724 H 0.84586 0.45104 0.03784 0.0
H725 H 0.79776 0.40937 0.006 0.0
H726 H 0.68928 0.31841 0.05763 0.0
H727 H 0.73124 0.29889 0.07213 0.0
Li728 Li 0.4013 0.78067 0.26187 0.0
Li729 Li 0.37066 0.7547 0.25029 0.0
Li730 Li 0.40091 0.75436 0.24346 0.0
Li731 Li 0.39419 0.78084 0.23301 0.0
C732 C 0.39913 0.74652 0.27664 0.0
N733 N 0.42062 0.73771 0.29917 0.0
C734 C 0.38896 0.73165 0.28853 0.0
C735 C 0.42025 0.75689 0.27619 0.0
C736 C 0.4001 0.72743 0.29983 0.0
C737 C 0.43083 0.75221 0.28769 0.0
C738 C 0.36921 0.78739 0.26369 0.0
C739 C 0.35403 0.80618 0.27424 0.0
N740 N 0.34877 0.79485 0.28815 0.0
C741 C 0.36365 0.77593 0.2781 0.0
C742 C 0.36437 0.80264 0.26173 0.0
C743 C 0.35333 0.77994 0.29032 0.0
C744 C 0.42352 0.81806 0.27786 0.0
N745 N 0.41296 0.79781 0.28054 0.0
C746 C 0.4166 0.80301 0.30956 0.0
C747 C 0.4093 0.79014 0.29602 0.0
C748 C 0.42756 0.82402 0.30719 0.0
C749 C 0.43108 0.83151 0.29105 0.0
H750 H 0.42557 0.82378 0.26546 0.0
H751 H 0.40025 0.77406 0.29797 0.0
C752 C 0.3388 0.71832 0.26149 0.0
N753 N 0.3429 0.73632 0.25496 0.0
C754 C 0.31908 0.70398 0.26574 0.0
C755 C 0.308 0.72675 0.25606 0.0
C756 C 0.32803 0.74078 0.25214 0.0
C757 C 0.30339 0.70815 0.2631 0.0
H758 H 0.35092 0.71512 0.2634 0.0
H759 H 0.33174 0.75523 0.24689 0.0
C760 C 0.4342 0.79602 0.23237 0.0
N761 N 0.46267 0.8204 0.20947 0.0
C762 C 0.43349 0.78899 0.21641 0.0
C763 C 0.44951 0.81538 0.23672 0.0
C764 C 0.44798 0.80157 0.205 0.0
C765 C 0.46374 0.82748 0.22496 0.0
C766 C 0.36146 0.73851 0.22149 0.0
C767 C 0.35478 0.71783 0.2211 0.0
C768 C 0.34892 0.74555 0.21564 0.0
C769 C 0.33555 0.7045 0.21497 0.0
C770 C 0.3298 0.73173 0.20958 0.0
N771 N 0.32356 0.71166 0.2094 0.0
C772 C 0.39952 0.71729 0.24353 0.0
C773 C 0.4301 0.74375 0.23263 0.0
C774 C 0.40567 0.70325 0.24033 0.0
N775 N 0.41158 0.73702 0.23942 0.0
C776 C 0.4368 0.73019 0.22909 0.0
C777 C 0.42441 0.7096 0.23278 0.0
H778 H 0.38498 0.71244 0.24914 0.0
H779 H 0.43966 0.75958 0.22988 0.0
C780 C 0.41 0.81879 0.21777 0.0
N781 N 0.399 0.79858 0.21495 0.0
C782 C 0.4162 0.83239 0.20469 0.0
C783 C 0.39869 0.80417 0.18613 0.0
C784 C 0.3932 0.79108 0.19954 0.0
C785 C 0.41062 0.82506 0.18864 0.0
H786 H 0.41456 0.82429 0.23015 0.0
H787 H 0.38489 0.77494 0.19759 0.0
O788 O 0.3883 0.75064 0.26548 0.0
O789 O 0.37945 0.78393 0.25152 0.0
O790 O 0.41974 0.78418 0.24356 0.0
O791 O 0.38002 0.75176 0.22784 0.0
H792 H 0.37263 0.7235 0.28907 0.0
H793 H 0.42845 0.76843 0.26711 0.0
H794 H 0.39241 0.71598 0.30911 0.0
H795 H 0.44716 0.76012 0.28749 0.0
H796 H 0.3502 0.81794 0.27288 0.0
H797 H 0.36723 0.76407 0.27989 0.0
H798 H 0.36861 0.81166 0.25066 0.0
H799 H 0.34895 0.7712 0.30153 0.0
H800 H 0.41358 0.79653 0.32175 0.0
H801 H 0.43905 0.84759 0.28864 0.0
H802 H 0.3161 0.6897 0.27093 0.0
H803 H 0.29631 0.73055 0.25391 0.0
H804 H 0.42165 0.77409 0.21281 0.0
H805 H 0.45039 0.82101 0.24904 0.0
H806 H 0.44749 0.79639 0.19257 0.0
H807 H 0.47563 0.84252 0.22815 0.0
H808 H 0.36429 0.71213 0.22556 0.0
H809 H 0.35376 0.76149 0.21604 0.0
H810 H 0.33015 0.68845 0.21467 0.0
H811 H 0.31988 0.73696 0.20512 0.0
H812 H 0.39563 0.6875 0.24332 0.0
H813 H 0.45151 0.73575 0.22353 0.0
H814 H 0.42539 0.84844 0.20705 0.0
H815 H 0.39433 0.798 0.17388 0.0
H816 H 0.13436 0.57826 0.32962 0.0
H817 H 0.16911 0.60205 0.32127 0.0
H818 H 0.14871 0.60115 0.27171 0.0
H819 H 0.11414 0.57648 0.27993 0.0
H820 H 0.18274 0.60239 0.27034 0.0
H821 H 0.15899 0.64028 0.30072 0.0
H822 H 0.1442 0.64821 0.32448 0.0
H823 H 0.19323 0.65532 0.35485 0.0
H824 H 0.20815 0.64712 0.33133 0.0
H825 H 0.26882 0.69524 0.24519 0.0
H826 H 0.2343 0.66985 0.25307 0.0
H827 H 0.25626 0.66199 0.29964 0.0
H828 H 0.29071 0.68737 0.29187 0.0
H829 H 0.22175 0.66561 0.30229 0.0
H830 H 0.24532 0.6279 0.27111 0.0
H831 H 0.25986 0.62052 0.24689 0.0
H832 H 0.21063 0.61432 0.21727 0.0
H833 H 0.19595 0.62196 0.24128 0.0
C834 C 0.13742 0.58306 0.31693 0.0
C835 C 0.12169 0.57569 0.3054 0.0
C836 C 0.15721 0.59675 0.31218 0.0
C837 C 0.16151 0.60384 0.29593 0.0
C838 C 0.14581 0.596 0.28432 0.0
C839 C 0.12609 0.58194 0.289 0.0
C840 C 0.18225 0.61964 0.29109 0.0
C841 C 0.19112 0.61632 0.27722 0.0
C842 C 0.19342 0.63774 0.30018 0.0
C843 C 0.18459 0.64291 0.3143 0.0
C844 C 0.16655 0.64342 0.31249 0.0
C845 C 0.15814 0.64796 0.32592 0.0
C846 C 0.16773 0.6522 0.34118 0.0
C847 C 0.18579 0.65198 0.34303 0.0
C848 C 0.19424 0.64741 0.32966 0.0
C849 C 0.26623 0.68818 0.25714 0.0
C850 C 0.28243 0.6932 0.2679 0.0
C851 C 0.24656 0.67361 0.26158 0.0
C852 C 0.24279 0.66396 0.27689 0.0
C853 C 0.25888 0.66924 0.28776 0.0
C854 C 0.27854 0.68363 0.28327 0.0
C855 C 0.22206 0.6483 0.2816 0.0
C856 C 0.21326 0.65167 0.29543 0.0
C857 C 0.21089 0.63039 0.27238 0.0
C858 C 0.21965 0.62571 0.25795 0.0
C859 C 0.23769 0.62514 0.2594 0.0
C860 C 0.24594 0.62087 0.24572 0.0
C861 C 0.23621 0.61701 0.23054 0.0
C862 C 0.21817 0.61735 0.22903 0.0
C863 C 0.20987 0.62163 0.24267 0.0
H864 H 0.24261 0.61371 0.21996 0.0
H865 H 0.16119 0.6557 0.35156 0.0
H866 H 0.56658 0.11728 0.44842 0.0
H867 H 0.57722 0.15171 0.43943 0.0
H868 H 0.57546 0.16897 0.48953 0.0
H869 H 0.56464 0.13453 0.49855 0.0
H870 H 0.55653 0.18174 0.47003 0.0
H871 H 0.62052 0.18413 0.46911 0.0
H872 H 0.64447 0.1728 0.46143 0.0
H873 H 0.63654 0.1814 0.4105 0.0
H874 H 0.61232 0.19253 0.41787 0.0
H875 H 0.60536 0.28759 0.45903 0.0
H876 H 0.59676 0.25351 0.46733 0.0
H877 H 0.59783 0.23763 0.41671 0.0
H878 H 0.60653 0.2718 0.40831 0.0
H879 H 0.61699 0.22401 0.4359 0.0
H880 H 0.55312 0.22172 0.43684 0.0
H881 H 0.52923 0.23311 0.44451 0.0
H882 H 0.53691 0.22424 0.49543 0.0
H883 H 0.56108 0.21305 0.48807 0.0
C884 C 0.56878 0.12851 0.45754 0.0
C885 C 0.56476 0.12322 0.47419 0.0
C886 C 0.57485 0.14817 0.45239 0.0
C887 C 0.57726 0.16297 0.46382 0.0
C888 C 0.57362 0.15779 0.48048 0.0
C889 C 0.56743 0.13812 0.48562 0.0
C890 C 0.58271 0.18362 0.45837 0.0
C891 C 0.56992 0.19109 0.46277 0.0
C892 C 0.59985 0.19559 0.44849 0.0
C893 C 0.61446 0.18897 0.44404 0.0
C894 C 0.62376 0.18345 0.45627 0.0
C895 C 0.63741 0.17709 0.45197 0.0
C896 C 0.64198 0.17633 0.43549 0.0
C897 C 0.63296 0.18197 0.42327 0.0
C898 C 0.61929 0.18833 0.4275 0.0
C899 C 0.60354 0.27678 0.44964 0.0
C900 C 0.60647 0.28234 0.433 0.0
C901 C 0.59867 0.25732 0.45441 0.0
C902 C 0.59641 0.24294 0.44262 0.0
C903 C 0.59951 0.24849 0.42601 0.0
C904 C 0.60448 0.268 0.42123 0.0
C905 C 0.59089 0.22216 0.44768 0.0
C906 C 0.60362 0.21464 0.44317 0.0
C907 C 0.57369 0.21012 0.45746 0.0
C908 C 0.55905 0.21672 0.46191 0.0
C909 C 0.54983 0.22233 0.44968 0.0
C910 C 0.53622 0.22873 0.45397 0.0
C911 C 0.53159 0.22945 0.47045 0.0
C912 C 0.54053 0.2237 0.48267 0.0
C913 C 0.55417 0.21731 0.47845 0.0
H914 H 0.52105 0.23441 0.47375 0.0
H915 H 0.65255 0.1714 0.43219 0.0
H916 H 0.42708 0.52957 0.64594 0.0
H917 H 0.40371 0.54069 0.63707 0.0
H918 H 0.45394 0.59813 0.62237 0.0
H919 H 0.47751 0.58702 0.6311 0.0
H920 H 0.42479 0.60227 0.63865 0.0
H921 H 0.42775 0.56324 0.59384 0.0
H922 H 0.42616 0.53343 0.58071 0.0
H923 H 0.36443 0.4969 0.59597 0.0
H924 H 0.36574 0.52645 0.60941 0.0
H925 H 0.36612 0.63282 0.59227 0.0
H926 H 0.39109 0.62343 0.60031 0.0
H927 H 0.34323 0.56395 0.61367 0.0
H928 H 0.31813 0.57296 0.60502 0.0
H929 H 0.37227 0.56176 0.59732 0.0
H930 H 0.36943 0.60031 0.64276 0.0
H931 H 0.3709 0.62989 0.65624 0.0
H932 H 0.43218 0.6671 0.64011 0.0
H933 H 0.43098 0.63778 0.62633 0.0
C934 C 0.43318 0.54453 0.64072 0.0
C935 C 0.45415 0.55733 0.63905 0.0
C936 C 0.4198 0.55088 0.6357 0.0
C937 C 0.42709 0.57011 0.62883 0.0
C938 C 0.44802 0.5832 0.62761 0.0
C939 C 0.46145 0.57685 0.63264 0.0
C940 C 0.41277 0.57636 0.62271 0.0
C941 C 0.4135 0.59361 0.62943 0.0
C942 C 0.39778 0.5648 0.61093 0.0
C943 C 0.3969 0.54703 0.60276 0.0
C944 C 0.41388 0.54882 0.5945 0.0
C945 C 0.41302 0.53197 0.58699 0.0
C946 C 0.39522 0.51327 0.58754 0.0
C947 C 0.37822 0.51139 0.59557 0.0
C948 C 0.379 0.52819 0.60312 0.0
C949 C 0.36088 0.61764 0.59669 0.0
C950 C 0.3401 0.60364 0.59802 0.0
C951 C 0.37519 0.61238 0.60147 0.0
C952 C 0.36903 0.59309 0.60782 0.0
C953 C 0.34833 0.57896 0.60888 0.0
C954 C 0.334 0.58419 0.60406 0.0
C955 C 0.38415 0.58759 0.61336 0.0
C956 C 0.3836 0.57048 0.6065 0.0
C957 C 0.39926 0.59927 0.62504 0.0
C958 C 0.40004 0.6169 0.63337 0.0
C959 C 0.38317 0.61484 0.64197 0.0
C960 C 0.38396 0.63155 0.64969 0.0
C961 C 0.4016 0.65038 0.649 0.0
C962 C 0.41851 0.65251 0.64062 0.0
C963 C 0.41779 0.63585 0.63286 0.0
H964 H 0.40219 0.6633 0.65498 0.0
H965 H 0.39459 0.50025 0.58171 0.0
H966 H 0.90573 0.47688 0.80482 0.0
H967 H 0.87153 0.45342 0.79516 0.0
H968 H 0.88464 0.4047 0.7963 0.0
H969 H 0.91905 0.42818 0.8052 0.0
H970 H 0.86465 0.40254 0.76934 0.0
H971 H 0.85679 0.41104 0.82678 0.0
H972 H 0.86015 0.43019 0.85206 0.0
H973 H 0.82535 0.45412 0.83032 0.0
H974 H 0.82201 0.43531 0.80481 0.0
H975 H 0.76449 0.31891 0.76848 0.0
H976 H 0.799 0.34406 0.77633 0.0
H977 H 0.78427 0.39137 0.7711 0.0
H978 H 0.74965 0.36628 0.76358 0.0
H979 H 0.80489 0.39508 0.79944 0.0
H980 H 0.81187 0.38519 0.74221 0.0
H981 H 0.80832 0.36538 0.71731 0.0
H982 H 0.84462 0.34327 0.73918 0.0
H983 H 0.84816 0.36274 0.76433 0.0
C984 C 0.9014 0.46122 0.80284 0.0
C985 C 0.91511 0.4544 0.8059 0.0
C986 C 0.88178 0.44778 0.79748 0.0
C987 C 0.87542 0.42723 0.79523 0.0
C988 C 0.88916 0.42046 0.79802 0.0
C989 C 0.90879 0.43389 0.80329 0.0
C990 C 0.85446 0.4127 0.78997 0.0
C991 C 0.85159 0.40076 0.77604 0.0
C992 C 0.8374 0.41066 0.79849 0.0
C993 C 0.83933 0.42194 0.81383 0.0
C994 C 0.84999 0.42051 0.82735 0.0
C995 C 0.85186 0.43128 0.84172 0.0
C996 C 0.84302 0.44341 0.84278 0.0
C997 C 0.83222 0.44475 0.82947 0.0
C998 C 0.83032 0.43402 0.81506 0.0
C999 C 0.7686 0.33466 0.76906 0.0
C1000 C 0.75438 0.34062 0.76534 0.0
C1001 C 0.78834 0.34903 0.77342 0.0
C1002 C 0.79424 0.3696 0.77415 0.0
C1003 C 0.78005 0.37558 0.77056 0.0
C1004 C 0.76033 0.36124 0.76613 0.0
C1005 C 0.81513 0.38486 0.7789 0.0
C1006 C 0.81796 0.39693 0.79273 0.0
C1007 C 0.83216 0.38694 0.77034 0.0
C1008 C 0.83012 0.37528 0.75521 0.0
C1009 C 0.81896 0.37598 0.74177 0.0
C1010 C 0.81698 0.36483 0.7276 0.0
C1011 C 0.8262 0.35303 0.72668 0.0
C1012 C 0.83747 0.3524 0.73992 0.0
C1013 C 0.83949 0.3635 0.75413 0.0
H1014 H 0.82464 0.34442 0.7157 0.0
H1015 H 0.84448 0.45174 0.85392 0.0
H1016 H 0.51153 0.92105 0.96915 0.0
H1017 H 0.50043 0.88677 0.95966 0.0
H1018 H 0.43827 0.87214 0.96337 0.0
H1019 H 0.44927 0.90632 0.97335 0.0
H1020 H 0.44369 0.84267 0.97627 0.0
H1021 H 0.46085 0.88036 0.92627 0.0
H1022 H 0.48234 0.908 0.90732 0.0
H1023 H 0.52683 0.8894 0.90812 0.0
H1024 H 0.50573 0.8618 0.92727 0.0
H1025 H 0.40333 0.75013 0.93259 0.0
H1026 H 0.41287 0.78467 0.94034 0.0
H1027 H 0.47579 0.8016 0.93873 0.0
H1028 H 0.46637 0.76716 0.93061 0.0
H1029 H 0.46888 0.82983 0.92414 0.0
H1030 H 0.45201 0.79281 0.97486 0.0
H1031 H 0.43038 0.76514 0.99374 0.0
H1032 H 0.38505 0.78257 0.99138 0.0
H1033 H 0.40631 0.81017 0.97228 0.0
C1034 C 0.49549 0.9105 0.96807 0.0
C1035 C 0.48127 0.9164 0.97202 0.0
C1036 C 0.48917 0.89097 0.96249 0.0
C1037 C 0.46853 0.87697 0.96063 0.0
C1038 C 0.45428 0.88274 0.96465 0.0
C1039 C 0.46059 0.9023 0.97023 0.0
C1040 C 0.46187 0.85621 0.95475 0.0
C1041 C 0.44894 0.83985 0.96474 0.0
C1042 C 0.46906 0.85256 0.93988 0.0
C1043 C 0.48178 0.86912 0.92833 0.0
C1044 C 0.47529 0.88226 0.92251 0.0
C1045 C 0.48739 0.8979 0.91172 0.0
C1046 C 0.50596 0.90048 0.90655 0.0
C1047 C 0.51245 0.88739 0.91215 0.0
C1048 C 0.50042 0.87174 0.92296 0.0
C1049 C 0.41921 0.76126 0.93369 0.0
C1050 C 0.43411 0.75591 0.93101 0.0
C1051 C 0.42463 0.78094 0.93826 0.0
C1052 C 0.44503 0.79563 0.94028 0.0
C1053 C 0.45996 0.79046 0.93729 0.0
C1054 C 0.45455 0.77076 0.93277 0.0
C1055 C 0.45081 0.81634 0.94569 0.0
C1056 C 0.46358 0.83268 0.93562 0.0
C1057 C 0.44344 0.81997 0.96047 0.0
C1058 C 0.43066 0.80342 0.972 0.0
C1059 C 0.43736 0.79063 0.97826 0.0
C1060 C 0.42518 0.77498 0.98902 0.0
C1061 C 0.40633 0.77206 0.99372 0.0
C1062 C 0.39965 0.78483 0.9877 0.0
C1063 C 0.41176 0.80049 0.97692 0.0
H1064 H 0.39692 0.75994 0.00206 0.0
H1065 H 0.5153 0.9126 0.89819 0.0
H1066 H 0.60809 0.50505 0.15274 0.0
H1067 H 0.63207 0.49463 0.14389 0.0
H1068 H 0.58348 0.44136 0.12137 0.0
H1069 H 0.55937 0.45159 0.13044 0.0
H1070 H 0.60854 0.43231 0.13672 0.0
H1071 H 0.61577 0.48313 0.09845 0.0
H1072 H 0.62125 0.51644 0.0899 0.0
H1073 H 0.67986 0.54537 0.11244 0.0
H1074 H 0.67461 0.51223 0.12134 0.0
H1075 H 0.67012 0.40852 0.08725 0.0
H1076 H 0.64573 0.41838 0.09611 0.0
H1077 H 0.6932 0.47031 0.1209 0.0
H1078 H 0.71769 0.46049 0.11216 0.0
H1079 H 0.66847 0.47979 0.10404 0.0
H1080 H 0.6608 0.42848 0.14232 0.0
H1081 H 0.65507 0.39494 0.15044 0.0
H1082 H 0.5969 0.36667 0.12717 0.0
H1083 H 0.6024 0.40004 0.1187 0.0
C1084 C 0.60254 0.49112 0.14589 0.0
C1085 C 0.5819 0.47921 0.14216 0.0
C1086 C 0.61625 0.4852 0.14082 0.0
C1087 C 0.60963 0.46741 0.13169 0.0
C1088 C 0.58893 0.45517 0.12836 0.0
C1089 C 0.57517 0.46101 0.13357 0.0
C1090 C 0.62435 0.46172 0.12545 0.0
C1091 C 0.62149 0.44259 0.12938 0.0
C1092 C 0.64147 0.47527 0.11613 0.0
C1093 C 0.64472 0.49521 0.11069 0.0
C1094 C 0.62977 0.4966 0.10169 0.0
C1095 C 0.63284 0.51545 0.09676 0.0
C1096 C 0.65087 0.53301 0.10066 0.0
C1097 C 0.66589 0.53175 0.10945 0.0
C1098 C 0.66289 0.51294 0.11442 0.0
C1099 C 0.67536 0.422 0.09465 0.0
C1100 C 0.69583 0.43365 0.09909 0.0
C1101 C 0.66141 0.42762 0.09968 0.0
C1102 C 0.6676 0.44492 0.10936 0.0
C1103 C 0.6881 0.45689 0.11345 0.0
C1104 C 0.70208 0.4513 0.10839 0.0
C1105 C 0.65268 0.45043 0.11535 0.0
C1106 C 0.6555 0.46952 0.11136 0.0
C1107 C 0.63549 0.43681 0.12455 0.0
C1108 C 0.6321 0.41675 0.12974 0.0
C1109 C 0.64685 0.4151 0.13883 0.0
C1110 C 0.64363 0.39612 0.14351 0.0
C1111 C 0.62566 0.37868 0.13929 0.0
C1112 C 0.61083 0.38019 0.13041 0.0
C1113 C 0.61398 0.39913 0.12568 0.0
H1114 H 0.6232 0.364 0.14292 0.0
H1115 H 0.65322 0.54759 0.09683 0.0
H1116 H 0.475 0.90696 0.52373 0.0
H1117 H 0.45115 0.8722 0.53195 0.0
H1118 H 0.40131 0.88104 0.51939 0.0
H1119 H 0.425 0.91567 0.51095 0.0
H1120 H 0.39678 0.86434 0.54961 0.0
H1121 H 0.41367 0.85288 0.49516 0.0
H1122 H 0.43651 0.85507 0.47287 0.0
H1123 H 0.45862 0.82405 0.50276 0.0
H1124 H 0.43612 0.8219 0.52531 0.0
H1125 H 0.31661 0.76339 0.55468 0.0
H1126 H 0.34123 0.79732 0.54543 0.0
H1127 H 0.38959 0.78514 0.55513 0.0
H1128 H 0.36501 0.75084 0.56363 0.0
H1129 H 0.39555 0.80362 0.5267 0.0
H1130 H 0.37961 0.81491 0.58098 0.0
H1131 H 0.35754 0.81268 0.6039 0.0
H1132 H 0.33491 0.84432 0.57539 0.0
H1133 H 0.35666 0.8465 0.5522 0.0
C1134 C 0.45897 0.90141 0.52247 0.0
C1135 C 0.4519 0.91412 0.51674 0.0
C1136 C 0.44536 0.88156 0.52721 0.0
C1137 C 0.42446 0.87403 0.52623 0.0
C1138 C 0.41738 0.88659 0.52032 0.0
C1139 C 0.43095 0.90639 0.51556 0.0
C1140 C 0.40991 0.85332 0.53193 0.0
C1141 C 0.39632 0.85103 0.54445 0.0
C1142 C 0.40976 0.83604 0.52554 0.0
C1143 C 0.42334 0.8374 0.51199 0.0
C1144 C 0.42353 0.84668 0.49704 0.0
C1145 C 0.43639 0.84788 0.48434 0.0
C1146 C 0.44903 0.83975 0.48642 0.0
C1147 C 0.44883 0.83036 0.50118 0.0
C1148 C 0.43602 0.82913 0.51391 0.0
C1149 C 0.33246 0.76785 0.55475 0.0
C1150 C 0.3388 0.75436 0.55996 0.0
C1151 C 0.34655 0.78736 0.54962 0.0
C1152 C 0.3673 0.79389 0.54978 0.0
C1153 C 0.37368 0.78047 0.55495 0.0
C1154 C 0.35959 0.76092 0.55999 0.0
C1155 C 0.38231 0.8146 0.54432 0.0
C1156 C 0.39601 0.81692 0.53187 0.0
C1157 C 0.38269 0.83194 0.55086 0.0
C1158 C 0.36962 0.83069 0.5648 0.0
C1159 C 0.36981 0.82125 0.57955 0.0
C1160 C 0.35738 0.82002 0.5926 0.0
C1161 C 0.3448 0.82831 0.59109 0.0
C1162 C 0.34465 0.83789 0.57654 0.0
C1163 C 0.35704 0.83914 0.56344 0.0
H1164 H 0.33519 0.82734 0.60121 0.0
H1165 H 0.45895 0.84065 0.47659 0.0
H1166 H 0.58962 0.47411 0.6791 0.0
H1167 H 0.60097 0.45093 0.68866 0.0
H1168 H 0.54329 0.41379 0.71198 0.0
H1169 H 0.53177 0.43669 0.70222 0.0
H1170 H 0.57945 0.42313 0.73162 0.0
H1171 H 0.5486 0.39756 0.67853 0.0
H1172 H 0.54436 0.40079 0.6489 0.0
H1173 H 0.6063 0.41767 0.64055 0.0
H1174 H 0.61098 0.41485 0.67019 0.0
H1175 H 0.58269 0.33391 0.74767 0.0
H1176 H 0.57311 0.35859 0.73924 0.0
H1177 H 0.6227 0.38445 0.70491 0.0
H1178 H 0.63152 0.359 0.71243 0.0
H1179 H 0.59164 0.38214 0.69092 0.0
H1180 H 0.62358 0.40741 0.74262 0.0
H1181 H 0.63006 0.40643 0.77214 0.0
H1182 H 0.56972 0.39307 0.78328 0.0
H1183 H 0.56278 0.39369 0.75379 0.0
C1184 C 0.57947 0.46107 0.68637 0.0
C1185 C 0.55982 0.45708 0.68989 0.0
C1186 C 0.58592 0.44786 0.69177 0.0
C1187 C 0.57292 0.43068 0.70098 0.0
C1188 C 0.55351 0.427 0.7049 0.0
C1189 C 0.54694 0.43998 0.69926 0.0
C1190 C 0.57928 0.41613 0.70605 0.0
C1191 C 0.58193 0.41398 0.72279 0.0
C1192 C 0.58306 0.40471 0.69443 0.0
C1193 C 0.5802 0.40621 0.6766 0.0
C1194 C 0.56136 0.40214 0.6704 0.0
C1195 C 0.55887 0.40386 0.6536 0.0
C1196 C 0.57507 0.40949 0.64286 0.0
C1197 C 0.59377 0.41334 0.64889 0.0
C1198 C 0.59635 0.41167 0.66569 0.0
C1199 C 0.59144 0.34468 0.73819 0.0
C1200 C 0.60796 0.34445 0.73081 0.0
C1201 C 0.58611 0.359 0.73354 0.0
C1202 C 0.59739 0.37365 0.72163 0.0
C1203 C 0.61381 0.3734 0.71419 0.0
C1204 C 0.61899 0.35894 0.71867 0.0
C1205 C 0.59183 0.38895 0.71663 0.0
C1206 C 0.58929 0.39128 0.69985 0.0
C1207 C 0.5885 0.40079 0.72823 0.0
C1208 C 0.5926 0.4004 0.74598 0.0
C1209 C 0.61164 0.4041 0.75135 0.0
C1210 C 0.61541 0.40364 0.76808 0.0
C1211 C 0.6003 0.39964 0.77957 0.0
C1212 C 0.5814 0.39614 0.77436 0.0
C1213 C 0.57755 0.39656 0.75764 0.0
H1214 H 0.60324 0.39929 0.79252 0.0
H1215 H 0.57311 0.41082 0.62986 0.0
H1216 H 0.13074 0.58976 0.85682 0.0
H1217 H 0.16585 0.60135 0.86443 0.0
H1218 H 0.15562 0.54098 0.85787 0.0
H1219 H 0.12078 0.52937 0.84981 0.0
H1220 H 0.17442 0.55838 0.88741 0.0
H1221 H 0.1816 0.57547 0.82994 0.0
H1222 H 0.17757 0.59164 0.80518 0.0
H1223 H 0.21188 0.64995 0.82773 0.0
H1224 H 0.21587 0.63409 0.85274 0.0
H1225 H 0.27402 0.57568 0.89058 0.0
H1226 H 0.23976 0.56612 0.88218 0.0
H1227 H 0.25529 0.62868 0.88341 0.0
H1228 H 0.2899 0.63848 0.89094 0.0
H1229 H 0.23365 0.61126 0.85717 0.0
H1230 H 0.22719 0.59517 0.9143 0.0
H1231 H 0.23097 0.57971 0.9396 0.0
H1232 H 0.19504 0.52064 0.9187 0.0
H1233 H 0.19126 0.53576 0.89317 0.0
C1234 C 0.13603 0.579 0.85676 0.0
C1235 C 0.12287 0.5586 0.85278 0.0
C1236 C 0.15607 0.58564 0.86118 0.0
C1237 C 0.16329 0.572 0.86171 0.0
C1238 C 0.15028 0.55171 0.85764 0.0
C1239 C 0.13033 0.54509 0.85312 0.0
C1240 C 0.18431 0.57872 0.86681 0.0
C1241 C 0.1874 0.56977 0.8807 0.0
C1242 C 0.20117 0.59401 0.85833 0.0
C1243 C 0.19885 0.60357 0.84328 0.0
C1244 C 0.18814 0.59172 0.82968 0.0
C1245 C 0.18589 0.60083 0.81559 0.0
C1246 C 0.19441 0.6218 0.8149 0.0
C1247 C 0.20526 0.63371 0.82829 0.0
C1248 C 0.20753 0.62467 0.84242 0.0
C1249 C 0.27025 0.58745 0.88891 0.0
C1250 C 0.28476 0.60786 0.89152 0.0
C1251 C 0.25055 0.58193 0.88429 0.0
C1252 C 0.24484 0.59666 0.88241 0.0
C1253 C 0.25931 0.61704 0.88486 0.0
C1254 C 0.27905 0.62259 0.88936 0.0
C1255 C 0.22383 0.59079 0.87773 0.0
C1256 C 0.22071 0.59991 0.86394 0.0
C1257 C 0.20691 0.57577 0.88641 0.0
C1258 C 0.2091 0.56661 0.90176 0.0
C1259 C 0.22022 0.57889 0.91505 0.0
C1260 C 0.22234 0.57018 0.92944 0.0
C1261 C 0.21329 0.54921 0.93074 0.0
C1262 C 0.20206 0.53688 0.91767 0.0
C1263 C 0.19991 0.54551 0.90324 0.0
H1264 H 0.21495 0.5425 0.9419 0.0
H1265 H 0.19266 0.62883 0.80398 0.0
H1266 H 0.58444 0.11585 0.04751 0.0
H1267 H 0.60762 0.15085 0.0551 0.0
H1268 H 0.59763 0.17073 0.00829 0.0
H1269 H 0.57509 0.13557 1.00028 0.0
H1270 H 0.63654 0.18938 0.01502 0.0
H1271 H 0.57735 0.17717 0.04425 0.0
H1272 H 0.54826 0.15908 0.06284 0.0
H1273 H 0.58838 0.16777 0.10281 0.0
H1274 H 0.61772 0.18568 0.08441 0.0
H1275 H 0.68489 0.29335 0.03659 0.0
H1276 H 0.65961 0.25889 0.02891 0.0
H1277 H 0.67239 0.23631 0.07311 0.0
H1278 H 0.69752 0.27087 0.08103 0.0
H1279 H 0.63142 0.2196 0.06738 0.0
H1280 H 0.69053 0.23123 0.03742 0.0
H1281 H 0.71928 0.24969 0.01858 0.0
H1282 H 0.67846 0.24253 0.97958 0.0
H1283 H 0.64947 0.22426 0.99826 0.0
C1284 C 0.58721 0.12764 0.03878 0.0
C1285 C 0.57796 0.12288 0.02324 0.0
C1286 C 0.6003 0.14769 0.04322 0.0
C1287 C 0.60421 0.16346 0.03234 0.0
C1288 C 0.59479 0.1588 0.01691 0.0
C1289 C 0.58176 0.13871 0.01241 0.0
C1290 C 0.6188 0.18471 0.03684 0.0
C1291 C 0.63521 0.19609 0.02634 0.0
C1292 C 0.61734 0.19334 0.05178 0.0
C1293 C 0.59973 0.18262 0.06291 0.0
C1294 C 0.57997 0.17509 0.05698 0.0
C1295 C 0.56343 0.16489 0.06748 0.0
C1296 C 0.56647 0.16224 0.08399 0.0
C1297 C 0.58605 0.16982 0.09002 0.0
C1298 C 0.60264 0.18002 0.07956 0.0
C1299 C 0.68224 0.28107 0.04473 0.0
C1300 C 0.69319 0.28481 0.05942 0.0
C1301 C 0.66789 0.26138 0.04027 0.0
C1302 C 0.66424 0.24505 0.05039 0.0
C1303 C 0.67503 0.24872 0.06512 0.0
C1304 C 0.68947 0.26843 0.06956 0.0
C1305 C 0.64911 0.22415 0.0456 0.0
C1306 C 0.63264 0.21287 0.05604 0.0
C1307 C 0.65043 0.21565 0.03056 0.0
C1308 C 0.66784 0.22655 0.01929 0.0
C1309 C 0.68769 0.23373 0.02486 0.0
C1310 C 0.70403 0.24414 0.0142 0.0
C1311 C 0.7007 0.24733 0.9979 0.0
C1312 C 0.68102 0.24007 0.99222 0.0
C1313 C 0.66463 0.22968 0.00283 0.0
H1314 H 0.71337 0.25538 0.98967 0.0
H1315 H 0.55364 0.15434 0.0921 0.0
H1316 H 0.46599 0.5663 0.21166 0.0
H1317 H 0.45569 0.59023 0.22098 0.0
H1318 H 0.46785 0.61721 0.17285 0.0
H1319 H 0.47772 0.59309 0.16331 0.0
H1320 H 0.48526 0.64536 0.1976 0.0
H1321 H 0.42029 0.58783 0.18497 0.0
H1322 H 0.39332 0.55218 0.18674 0.0
H1323 H 0.38855 0.55844 0.23863 0.0
H1324 H 0.41571 0.59407 0.23721 0.0
H1325 H 0.44105 0.70693 0.20398 0.0
H1326 H 0.4503 0.68179 0.19617 0.0
H1327 H 0.43117 0.65348 0.24362 0.0
H1328 H 0.42158 0.67849 0.25141 0.0
H1329 H 0.41777 0.62574 0.22048 0.0
H1330 H 0.48176 0.68291 0.23362 0.0
H1331 H 0.50913 0.71844 0.2326 0.0
H1332 H 0.51655 0.71286 0.18101 0.0
H1333 H 0.48902 0.67736 0.18168 0.0
C1334 C 0.46613 0.57708 0.20297 0.0
C1335 C 0.47274 0.5778 0.18674 0.0
C1336 C 0.46033 0.5908 0.20834 0.0
C1337 C 0.461 0.60546 0.19759 0.0
C1338 C 0.46734 0.60607 0.18136 0.0
C1339 C 0.47304 0.59232 0.17595 0.0
C1340 C 0.45569 0.6206 0.20336 0.0
C1341 C 0.47043 0.64111 0.20242 0.0
C1342 C 0.43656 0.61496 0.21014 0.0
C1343 C 0.42018 0.59356 0.211 0.0
C1344 C 0.41362 0.58156 0.19678 0.0
C1345 C 0.39827 0.56136 0.19772 0.0
C1346 C 0.38926 0.55303 0.2128 0.0
C1347 C 0.39556 0.5649 0.22697 0.0
C1348 C 0.41092 0.5851 0.2261 0.0
C1349 C 0.43904 0.69549 0.21281 0.0
C1350 C 0.43069 0.69474 0.22834 0.0
C1351 C 0.44433 0.68112 0.20834 0.0
C1352 C 0.44169 0.66589 0.21939 0.0
C1353 C 0.43334 0.66509 0.2349 0.0
C1354 C 0.42787 0.67937 0.23933 0.0
C1355 C 0.44729 0.65059 0.21458 0.0
C1356 C 0.43264 0.63003 0.21573 0.0
C1357 C 0.46658 0.65618 0.20812 0.0
C1358 C 0.4832 0.67752 0.20768 0.0
C1359 C 0.48913 0.6893 0.22203 0.0
C1360 C 0.50469 0.70943 0.22152 0.0
C1361 C 0.51454 0.71792 0.20674 0.0
C1362 C 0.50889 0.70627 0.19245 0.0
C1363 C 0.49332 0.68614 0.19289 0.0
H1364 H 0.52658 0.73351 0.20636 0.0
H1365 H 0.37738 0.5374 0.2135 0.0
H1366 H 0.92104 0.48622 0.37742 0.0
H1367 H 0.88628 0.4756 0.38527 0.0
H1368 H 0.86619 0.45334 0.33626 0.0
H1369 H 0.90107 0.4643 0.32822 0.0
H1370 H 0.85045 0.47623 0.34731 0.0
H1371 H 0.85659 0.42065 0.36697 0.0
H1372 H 0.87208 0.4039 0.38208 0.0
H1373 H 0.86476 0.42817 0.42738 0.0
H1374 H 0.84948 0.44532 0.4125 0.0
H1375 H 0.74544 0.42236 0.36545 0.0
H1376 H 0.77964 0.43143 0.35724 0.0
H1377 H 0.80149 0.45526 0.40557 0.0
H1378 H 0.76733 0.44663 0.41384 0.0
H1379 H 0.81601 0.43087 0.3945 0.0
H1380 H 0.81051 0.487 0.37466 0.0
H1381 H 0.79495 0.50363 0.35949 0.0
H1382 H 0.80101 0.4781 0.31441 0.0
H1383 H 0.81636 0.46106 0.32936 0.0
C1384 C 0.90922 0.47909 0.3683 0.0
C1385 C 0.91378 0.47613 0.35219 0.0
C1386 C 0.88935 0.47288 0.37284 0.0
C1387 C 0.87364 0.46355 0.36138 0.0
C1388 C 0.8781 0.46047 0.3453 0.0
C1389 C 0.89799 0.4666 0.34076 0.0
C1390 C 0.85266 0.45761 0.36609 0.0
C1391 C 0.84279 0.46605 0.35746 0.0
C1392 C 0.84288 0.44473 0.37959 0.0
C1393 C 0.85207 0.43444 0.38859 0.0
C1394 C 0.85844 0.42257 0.38013 0.0
C1395 C 0.86715 0.41297 0.38866 0.0
C1396 C 0.86945 0.41502 0.40568 0.0
C1397 C 0.86299 0.42663 0.4142 0.0
C1398 C 0.85429 0.43627 0.40572 0.0
C1399 C 0.75754 0.42983 0.37429 0.0
C1400 C 0.75362 0.43388 0.39029 0.0
C1401 C 0.77707 0.4349 0.36958 0.0
C1402 C 0.79311 0.44415 0.38076 0.0
C1403 C 0.78929 0.44809 0.39677 0.0
C1404 C 0.76975 0.4431 0.40148 0.0
C1405 C 0.81385 0.44954 0.37575 0.0
C1406 C 0.82367 0.441 0.38433 0.0
C1407 C 0.82358 0.46232 0.36219 0.0
C1408 C 0.81439 0.47258 0.35316 0.0
C1409 C 0.80836 0.48479 0.36153 0.0
C1410 C 0.79961 0.49432 0.35297 0.0
C1411 C 0.79694 0.49188 0.336 0.0
C1412 C 0.80306 0.47995 0.32756 0.0
C1413 C 0.8118 0.47036 0.33607 0.0
H1414 H 0.79017 0.49928 0.32939 0.0
H1415 H 0.87618 0.40757 0.41226 0.0
H1416 H 0.09539 0.57693 0.39601 0.0
H1417 H 0.11975 0.58762 0.41843 0.0
H1418 H 0.11461 0.5288 0.41898 0.0
H1419 H 0.08957 0.51771 0.39696 0.0
H1420 H 0.1138 0.54118 0.44941 0.0
H1421 H 0.15594 0.5696 0.40232 0.0
H1422 H 0.1673 0.5891 0.3766 0.0
H1423 H 0.17887 0.64286 0.4023 0.0
H1424 H 0.16729 0.62362 0.42816 0.0
H1425 H 0.19855 0.5714 0.50205 0.0
H1426 H 0.17605 0.55914 0.47825 0.0
H1427 H 0.17681 0.61586 0.47557 0.0
H1428 H 0.19916 0.62817 0.49938 0.0
H1429 H 0.18086 0.6034 0.4455 0.0
H1430 H 0.13688 0.57433 0.49218 0.0
H1431 H 0.12508 0.55461 0.51778 0.0
H1432 H 0.11703 0.5018 0.49251 0.0
H1433 H 0.12904 0.52129 0.46679 0.0
C1434 C 0.09929 0.56619 0.40098 0.0
C1435 C 0.09051 0.54645 0.39468 0.0
C1436 C 0.11341 0.5724 0.41368 0.0
C1437 C 0.11922 0.55909 0.42024 0.0
C1438 C 0.11042 0.53935 0.41405 0.0
C1439 C 0.09624 0.5331 0.40137 0.0
C1440 C 0.13417 0.5657 0.43379 0.0
C1441 C 0.1286 0.55459 0.44845 0.0
C1442 C 0.15334 0.58341 0.43265 0.0
C1443 C 0.16059 0.59511 0.41716 0.0
C1444 C 0.16079 0.58555 0.40247 0.0
C1445 C 0.16728 0.59657 0.38787 0.0
C1446 C 0.17376 0.6172 0.38781 0.0
C1447 C 0.17383 0.62688 0.40237 0.0
C1448 C 0.16732 0.61592 0.41701 0.0
C1449 C 0.19383 0.58122 0.49646 0.0
C1450 C 0.20063 0.60076 0.50264 0.0
C1451 C 0.18101 0.57421 0.48283 0.0
C1452 C 0.17462 0.58653 0.47522 0.0
C1453 C 0.18161 0.60612 0.48121 0.0
C1454 C 0.19443 0.61315 0.49481 0.0
C1455 C 0.1604 0.57897 0.46115 0.0
C1456 C 0.16612 0.5899 0.44639 0.0
C1457 C 0.14138 0.56107 0.46218 0.0
C1458 C 0.13406 0.54932 0.47761 0.0
C1459 C 0.13274 0.55855 0.49212 0.0
C1460 C 0.12599 0.54741 0.50664 0.0
C1461 C 0.12036 0.52698 0.50679 0.0
C1462 C 0.12142 0.51763 0.49239 0.0
C1463 C 0.12819 0.52871 0.47783 0.0
H1464 H 0.11514 0.51838 0.51804 0.0
H1465 H 0.17876 0.62569 0.37649 0.0
H1466 H 0.58215 0.08308 0.56982 0.0
H1467 H 0.59533 0.10672 0.5929 0.0
H1468 H 0.54876 0.12207 0.58542 0.0
H1469 H 0.53562 0.09859 0.56223 0.0
H1470 H 0.58685 0.1557 0.59009 0.0
H1471 H 0.54391 0.09129 0.61575 0.0
H1472 H 0.53188 0.05542 0.62169 0.0
H1473 H 0.59015 0.071 0.64098 0.0
H1474 H 0.60263 0.10696 0.63493 0.0
H1475 H 0.59254 0.20557 0.66435 0.0
H1476 H 0.58154 0.18239 0.64107 0.0
H1477 H 0.6249 0.16427 0.65399 0.0
H1478 H 0.63585 0.18735 0.67748 0.0
H1479 H 0.58995 0.13225 0.6462 0.0
H1480 H 0.63305 0.19638 0.62152 0.0
H1481 H 0.64594 0.23236 0.61537 0.0
H1482 H 0.58897 0.21774 0.59384 0.0
H1483 H 0.57562 0.18168 0.60008 0.0
C1484 C 0.57481 0.09159 0.57304 0.0
C1485 C 0.55783 0.08896 0.56426 0.0
C1486 C 0.58226 0.10498 0.58628 0.0
C1487 C 0.57292 0.11602 0.59093 0.0
C1488 C 0.55615 0.11364 0.58204 0.0
C1489 C 0.54859 0.10014 0.56889 0.0
C1490 C 0.58059 0.13005 0.60509 0.0
C1491 C 0.58732 0.15057 0.6024 0.0
C1492 C 0.58176 0.1234 0.62103 0.0
C1493 C 0.57426 0.10179 0.62473 0.0
C1494 C 0.55421 0.08705 0.62113 0.0
C1495 C 0.5473 0.0667 0.62454 0.0
C1496 C 0.56026 0.06092 0.63166 0.0
C1497 C 0.58014 0.07549 0.63543 0.0
C1498 C 0.58714 0.09586 0.63203 0.0
C1499 C 0.59986 0.19679 0.66215 0.0
C1500 C 0.61517 0.1984 0.67267 0.0
C1501 C 0.59356 0.18354 0.64883 0.0
C1502 C 0.60262 0.17182 0.64561 0.0
C1503 C 0.61773 0.17319 0.65622 0.0
C1504 C 0.62395 0.18636 0.66964 0.0
C1505 C 0.59609 0.15797 0.63127 0.0
C1506 C 0.58959 0.13746 0.6339 0.0
C1507 C 0.59528 0.16467 0.61523 0.0
C1508 C 0.60328 0.18634 0.61141 0.0
C1509 C 0.62321 0.20085 0.61559 0.0
C1510 C 0.63061 0.22126 0.61206 0.0
C1511 C 0.61827 0.22734 0.60425 0.0
C1512 C 0.59851 0.21301 0.59991 0.0
C1513 C 0.59102 0.19258 0.60342 0.0
H1514 H 0.62403 0.24315 0.60153 0.0
H1515 H 0.55488 0.04516 0.6343 0.0
H1516 H 0.50544 0.55529 0.74586 0.0
H1517 H 0.49469 0.5685 0.76869 0.0
H1518 H 0.45577 0.57795 0.73607 0.0
H1519 H 0.46658 0.56485 0.7131 0.0
H1520 H 0.47855 0.61079 0.75692 0.0
H1521 H 0.43512 0.53905 0.76065 0.0
H1522 H 0.427 0.50355 0.76208 0.0
H1523 H 0.46092 0.51597 0.80677 0.0
H1524 H 0.4695 0.55164 0.80547 0.0
H1525 H 0.41981 0.62433 0.81818 0.0
H1526 H 0.43103 0.61243 0.79475 0.0
H1527 H 0.46794 0.59951 0.82692 0.0
H1528 H 0.45651 0.61105 0.85043 0.0
H1529 H 0.44592 0.56845 0.80599 0.0
H1530 H 0.48958 0.64001 0.80242 0.0
H1531 H 0.49821 0.67566 0.80109 0.0
H1532 H 0.46451 0.66391 0.75635 0.0
H1533 H 0.45542 0.62808 0.75754 0.0
C1534 C 0.49469 0.56031 0.74353 0.0
C1535 C 0.48682 0.55902 0.72771 0.0
C1536 C 0.48848 0.56773 0.75659 0.0
C1537 C 0.47434 0.57406 0.75407 0.0
C1538 C 0.46667 0.57309 0.73825 0.0
C1539 C 0.47274 0.56549 0.7252 0.0
C1540 C 0.46749 0.58157 0.76802 0.0
C1541 C 0.47115 0.60147 0.76756 0.0
C1542 C 0.45828 0.56951 0.78203 0.0
C1543 C 0.45312 0.54806 0.78287 0.0
C1544 C 0.441 0.53425 0.7707 0.0
C1545 C 0.43628 0.51409 0.77151 0.0
C1546 C 0.44348 0.50752 0.78448 0.0
C1547 C 0.45538 0.52109 0.79671 0.0
C1548 C 0.46016 0.54128 0.79595 0.0
C1549 C 0.43029 0.61892 0.82026 0.0
C1550 C 0.43731 0.61867 0.83615 0.0
C1551 C 0.43679 0.61227 0.80685 0.0
C1552 C 0.45043 0.60523 0.80908 0.0
C1553 C 0.45745 0.60494 0.82492 0.0
C1554 C 0.45104 0.61169 0.83832 0.0
C1555 C 0.45702 0.59773 0.79495 0.0
C1556 C 0.4533 0.5778 0.79536 0.0
C1557 C 0.46623 0.60979 0.78092 0.0
C1558 C 0.47164 0.63131 0.78017 0.0
C1559 C 0.48385 0.64498 0.79237 0.0
C1560 C 0.48886 0.66523 0.79163 0.0
C1561 C 0.48186 0.67203 0.77867 0.0
C1562 C 0.46988 0.6586 0.7664 0.0
C1563 C 0.46481 0.63833 0.76709 0.0
H1564 H 0.48576 0.68772 0.77811 0.0
H1565 H 0.43981 0.4919 0.78509 0.0
H1566 H 0.95297 0.51775 0.90225 0.0
H1567 H 0.92938 0.50803 0.92536 0.0
H1568 H 0.91257 0.44563 0.91838 0.0
H1569 H 0.93617 0.45527 0.89529 0.0
H1570 H 0.87935 0.45219 0.92278 0.0
H1571 H 0.94318 0.46988 0.94809 0.0
H1572 H 0.97939 0.49224 0.9539 0.0
H1573 H 0.96694 0.53685 0.97386 0.0
H1574 H 0.93066 0.51487 0.96793 0.0
H1575 H 0.82837 0.40834 0.99665 0.0
H1576 H 0.85137 0.41992 0.97325 0.0
H1577 H 0.8737 0.48182 0.98773 0.0
H1578 H 0.8509 0.47024 0.01142 0.0
H1579 H 0.90401 0.47702 0.97905 0.0
H1580 H 0.84064 0.46004 0.95496 0.0
H1581 H 0.80436 0.43885 0.9488 0.0
H1582 H 0.81543 0.39465 0.92603 0.0
H1583 H 0.85176 0.41545 0.93227 0.0
C1584 C 0.94414 0.50196 0.9056 0.0
C1585 C 0.94641 0.48726 0.89702 0.0
C1586 C 0.93078 0.49645 0.91883 0.0
C1587 C 0.91934 0.47613 0.9236 0.0
C1588 C 0.9213 0.46139 0.91488 0.0
C1589 C 0.93484 0.46692 0.90178 0.0
C1590 C 0.90543 0.47025 0.9378 0.0
C1591 C 0.88471 0.45741 0.93513 0.0
C1592 C 0.91244 0.47763 0.95378 0.0
C1593 C 0.93424 0.49082 0.9574 0.0
C1594 C 0.94818 0.48454 0.95358 0.0
C1595 C 0.96872 0.49712 0.95692 0.0
C1596 C 0.97547 0.51598 0.9642 0.0
C1597 C 0.96169 0.52226 0.96819 0.0
C1598 C 0.94114 0.50974 0.96485 0.0
C1599 C 0.83807 0.42443 0.99477 0.0
C1600 C 0.83773 0.4384 0.00579 0.0
C1601 C 0.85119 0.43104 0.98137 0.0
C1602 C 0.86403 0.45177 0.97853 0.0
C1603 C 0.8639 0.46576 0.98964 0.0
C1604 C 0.85089 0.45914 0.00316 0.0
C1605 C 0.8778 0.45875 0.96413 0.0
C1606 C 0.89853 0.47184 0.96672 0.0
C1607 C 0.87076 0.45178 0.94803 0.0
C1608 C 0.84891 0.43923 0.94422 0.0
C1609 C 0.83532 0.44573 0.94875 0.0
C1610 C 0.81475 0.4338 0.94523 0.0
C1611 C 0.80758 0.41539 0.93706 0.0
C1612 C 0.82099 0.4089 0.93237 0.0
C1613 C 0.84159 0.42077 0.93589 0.0
H1614 H 0.79165 0.40618 0.93434 0.0
H1615 H 0.99138 0.5257 0.96679 0.0
H1616 H 0.449 0.94133 0.06255 0.0
H1617 H 0.43531 0.91768 0.08533 0.0
H1618 H 0.49386 0.92385 0.09372 0.0
H1619 H 0.5073 0.94622 0.07009 0.0
H1620 H 0.46745 0.88689 0.09768 0.0
H1621 H 0.47358 0.94834 0.11794 0.0
H1622 H 0.46879 0.97792 0.1183 0.0
H1623 H 0.40451 0.93881 0.12077 0.0
H1624 H 0.4089 0.90897 0.12021 0.0
H1625 H 0.44947 0.85314 0.18143 0.0
H1626 H 0.46185 0.87561 0.1575 0.0
H1627 H 0.4007 0.85119 0.14024 0.0
H1628 H 0.38828 0.82831 0.16398 0.0
H1629 H 0.42776 0.89683 0.1411 0.0
H1630 H 0.42378 0.83518 0.12135 0.0
H1631 H 0.43086 0.8071 0.12275 0.0
H1632 H 0.49459 0.84933 0.12151 0.0
H1633 H 0.48787 0.8777 0.12037 0.0
C1634 C 0.45895 0.93743 0.069 0.0
C1635 C 0.47936 0.94586 0.06441 0.0
C1636 C 0.45113 0.9241 0.08226 0.0
C1637 C 0.46362 0.91927 0.09154 0.0
C1638 C 0.48391 0.92742 0.08686 0.0
C1639 C 0.49165 0.94046 0.07342 0.0
C1640 C 0.45556 0.90566 0.10604 0.0
C1641 C 0.45899 0.88928 0.10724 0.0
C1642 C 0.44428 0.90851 0.11851 0.0
C1643 C 0.44157 0.92642 0.11886 0.0
C1644 C 0.45842 0.94604 0.11844 0.0
C1645 C 0.45577 0.96286 0.1187 0.0
C1646 C 0.43635 0.96025 0.11951 0.0
C1647 C 0.41954 0.94081 0.12011 0.0
C1648 C 0.4221 0.92394 0.11984 0.0
C1649 C 0.4387 0.85267 0.17256 0.0
C1650 C 0.41794 0.83907 0.1745 0.0
C1651 C 0.44577 0.86542 0.15891 0.0
C1652 C 0.43216 0.86499 0.14715 0.0
C1653 C 0.41139 0.85171 0.14922 0.0
C1654 C 0.40434 0.83865 0.1627 0.0
C1655 C 0.43971 0.87829 0.13259 0.0
C1656 C 0.4362 0.89456 0.13145 0.0
C1657 C 0.45127 0.87561 0.12037 0.0
C1658 C 0.45532 0.85857 0.12096 0.0
C1659 C 0.4393 0.83849 0.12154 0.0
C1660 C 0.44325 0.82252 0.12225 0.0
C1661 C 0.46317 0.82643 0.12227 0.0
C1662 C 0.47917 0.84633 0.12153 0.0
C1663 C 0.4753 0.86235 0.12084 0.0
H1664 H 0.46619 0.81405 0.12281 0.0
H1665 H 0.43434 0.97329 0.11972 0.0
H1666 H 0.56345 0.50591 0.24141 0.0
H1667 H 0.57367 0.49303 0.26477 0.0
H1668 H 0.54141 0.43292 0.24435 0.0
H1669 H 0.53062 0.44572 0.22122 0.0
H1670 H 0.53469 0.43072 0.27553 0.0
H1671 H 0.59437 0.46322 0.24272 0.0
H1672 H 0.62168 0.49089 0.2269 0.0
H1673 H 0.64165 0.52788 0.27013 0.0
H1674 H 0.61428 0.50051 0.28617 0.0
H1675 H 0.58395 0.39077 0.32525 0.0
H1676 H 0.57246 0.40276 0.30199 0.0
H1677 H 0.59416 0.4602 0.32607 0.0
H1678 H 0.60568 0.44831 0.34935 0.0
H1679 H 0.60637 0.46314 0.29296 0.0
H1680 H 0.54562 0.42899 0.32545 0.0
H1681 H 0.51874 0.40007 0.34053 0.0
H1682 H 0.50156 0.36447 0.29651 0.0
H1683 H 0.52855 0.39311 0.28121 0.0
C1684 C 0.55866 0.48998 0.24188 0.0
C1685 C 0.54634 0.47682 0.22949 0.0
C1686 C 0.56454 0.48262 0.25521 0.0
C1687 C 0.55861 0.46203 0.25621 0.0
C1688 C 0.54619 0.44885 0.24386 0.0
C1689 C 0.54005 0.45616 0.23065 0.0
C1690 C 0.56514 0.45422 0.27025 0.0
C1691 C 0.55041 0.43765 0.27916 0.0
C1692 C 0.58562 0.4634 0.2752 0.0
C1693 C 0.60215 0.47988 0.26561 0.0
C1694 C 0.6045 0.4773 0.24883 0.0
C1695 C 0.62 0.49293 0.23982 0.0
C1696 C 0.63336 0.51115 0.2475 0.0
C1697 C 0.63128 0.51377 0.2642 0.0
C1698 C 0.61578 0.4982 0.27326 0.0
C1699 C 0.58622 0.40594 0.32558 0.0
C1700 C 0.59565 0.4186 0.33912 0.0
C1701 C 0.57959 0.41272 0.31234 0.0
C1702 C 0.58241 0.43233 0.31237 0.0
C1703 C 0.59182 0.445 0.32585 0.0
C1704 C 0.59825 0.43815 0.33917 0.0
C1705 C 0.57592 0.43979 0.29817 0.0
C1706 C 0.59067 0.45625 0.28925 0.0
C1707 C 0.55553 0.43033 0.29306 0.0
C1708 C 0.53924 0.41313 0.30223 0.0
C1709 C 0.53623 0.41494 0.31902 0.0
C1710 C 0.52095 0.39861 0.3276 0.0
C1711 C 0.50848 0.38042 0.3195 0.0
C1712 C 0.51124 0.37856 0.30278 0.0
C1713 C 0.52652 0.39484 0.29414 0.0
H1714 H 0.49666 0.3678 0.32616 0.0
H1715 H 0.64535 0.52323 0.2405 0.0
H1716 H 0.45891 0.92525 0.44146 0.0
H1717 H 0.44784 0.90188 0.41834 0.0
H1718 H 0.50087 0.94364 0.3911 0.0
H1719 H 0.51141 0.96764 0.41375 0.0
H1720 H 0.46967 0.92859 0.37174 0.0
H1721 H 0.49636 0.90029 0.41002 0.0
H1722 H 0.49982 0.88768 0.43697 0.0
H1723 H 0.43732 0.8415 0.43561 0.0
H1724 H 0.43343 0.85397 0.4087 0.0
H1725 H 0.46362 0.85931 0.31075 0.0
H1726 H 0.47479 0.88267 0.33399 0.0
H1727 H 0.41895 0.84377 0.35922 0.0
H1728 H 0.40754 0.82048 0.33597 0.0
H1729 H 0.45169 0.85714 0.37954 0.0
H1730 H 0.42568 0.88593 0.34071 0.0
H1731 H 0.42305 0.8989 0.31367 0.0
H1732 H 0.48568 0.94459 0.31601 0.0
H1733 H 0.48876 0.93172 0.34297 0.0
C1734 C 0.46811 0.92962 0.43048 0.0
C1735 C 0.48612 0.94836 0.42954 0.0
C1736 C 0.46189 0.91609 0.41733 0.0
C1737 C 0.4737 0.92082 0.40306 0.0
C1738 C 0.49155 0.93958 0.40201 0.0
C1739 C 0.49768 0.95322 0.41507 0.0
C1740 C 0.46737 0.90633 0.38915 0.0
C1741 C 0.46602 0.91305 0.37343 0.0
C1742 C 0.46222 0.88592 0.39136 0.0
C1743 C 0.46457 0.87817 0.40741 0.0
C1744 C 0.48333 0.88751 0.41551 0.0
C1745 C 0.48537 0.88038 0.43076 0.0
C1746 C 0.46879 0.86383 0.438 0.0
C1747 C 0.45015 0.85432 0.42998 0.0
C1748 C 0.44802 0.86139 0.41471 0.0
C1749 C 0.45364 0.85579 0.32119 0.0
C1750 C 0.43466 0.83803 0.32146 0.0
C1751 C 0.46008 0.86912 0.33448 0.0
C1752 C 0.44762 0.86503 0.34827 0.0
C1753 C 0.42882 0.84718 0.34872 0.0
C1754 C 0.42237 0.83386 0.33543 0.0
C1755 C 0.45407 0.87947 0.36218 0.0
C1756 C 0.4554 0.87271 0.37789 0.0
C1757 C 0.45936 0.89989 0.35994 0.0
C1758 C 0.45749 0.90774 0.34379 0.0
C1759 C 0.43893 0.89865 0.3354 0.0
C1760 C 0.43735 0.906 0.3201 0.0
C1761 C 0.4542 0.92253 0.31311 0.0
C1762 C 0.47265 0.93178 0.32143 0.0
C1763 C 0.47431 0.92447 0.33673 0.0
H1764 H 0.45294 0.92819 0.30126 0.0
H1765 H 0.47042 0.85835 0.44981 0.0
H1766 H 0.53899 0.48817 0.57811 0.0
H1767 H 0.55247 0.47829 0.55498 0.0
H1768 H 0.58818 0.465 0.58824 0.0
H1769 H 0.57481 0.475 0.61146 0.0
H1770 H 0.61011 0.48527 0.56239 0.0
H1771 H 0.54512 0.42714 0.57062 0.0
H1772 H 0.50815 0.40821 0.57421 0.0
H1773 H 0.5004 0.42702 0.52644 0.0
H1774 H 0.53737 0.44631 0.52265 0.0
H1775 H 0.63116 0.42664 0.5055 0.0
H1776 H 0.61905 0.4377 0.52896 0.0
H1777 H 0.58979 0.45912 0.49593 0.0
H1778 H 0.60192 0.44816 0.47243 0.0
H1779 H 0.56481 0.43445 0.52173 0.0
H1780 H 0.63066 0.49255 0.51395 0.0
H1781 H 0.66769 0.5105 0.51079 0.0
H1782 H 0.67372 0.49013 0.55842 0.0
H1783 H 0.63668 0.47179 0.56177 0.0
C1784 C 0.54955 0.48293 0.58052 0.0
C1785 C 0.55575 0.48225 0.59663 0.0
C1786 C 0.55727 0.47732 0.56728 0.0
C1787 C 0.57116 0.47066 0.56988 0.0
C1788 C 0.57749 0.4701 0.58594 0.0
C1789 C 0.56986 0.47583 0.59919 0.0
C1790 C 0.57919 0.46448 0.55581 0.0
C1791 C 0.6002 0.47394 0.55364 0.0
C1792 C 0.56627 0.44996 0.54421 0.0
C1793 C 0.54402 0.43833 0.54642 0.0
C1794 C 0.53554 0.42737 0.56093 0.0
C1795 C 0.51458 0.41656 0.56299 0.0
C1796 C 0.50194 0.41645 0.55058 0.0
C1797 C 0.51022 0.42713 0.53605 0.0
C1798 C 0.53117 0.438 0.53394 0.0
C1799 C 0.62221 0.43378 0.50327 0.0
C1800 C 0.6175 0.43658 0.48717 0.0
C1801 C 0.61539 0.44016 0.51665 0.0
C1802 C 0.60359 0.44927 0.51415 0.0
C1803 C 0.59891 0.45214 0.49809 0.0
C1804 C 0.60595 0.44601 0.4847 0.0
C1805 C 0.59566 0.4553 0.52832 0.0
C1806 C 0.57468 0.44577 0.53051 0.0
C1807 C 0.6086 0.46959 0.54001 0.0
C1808 C 0.63088 0.48062 0.53803 0.0
C1809 C 0.63987 0.49174 0.52369 0.0
C1810 C 0.66086 0.50202 0.52188 0.0
C1811 C 0.67304 0.50141 0.53438 0.0
C1812 C 0.66426 0.49056 0.54874 0.0
C1813 C 0.64326 0.48023 0.5506 0.0
H1814 H 0.6893 0.50939 0.53295 0.0
H1815 H 0.48571 0.40806 0.5522 0.0
H1816 H 0.09415 0.58647 0.76543 0.0
H1817 H 0.11766 0.59953 0.74238 0.0
H1818 H 0.11557 0.54233 0.73798 0.0
H1819 H 0.09144 0.52881 0.76063 0.0
H1820 H 0.15516 0.57647 0.73689 0.0
H1821 H 0.08991 0.5523 0.71178 0.0
H1822 H 0.05677 0.54998 0.70833 0.0
H1823 H 0.08605 0.61367 0.69866 0.0
H1824 H 0.11938 0.61643 0.70229 0.0
H1825 H 0.19961 0.58689 0.65902 0.0
H1826 H 0.17712 0.57565 0.68275 0.0
H1827 H 0.17303 0.62988 0.6803 0.0
H1828 H 0.19539 0.64109 0.65635 0.0
H1829 H 0.13706 0.59853 0.68553 0.0
H1830 H 0.20199 0.62348 0.70978 0.0
H1831 H 0.23561 0.62711 0.71383 0.0
H1832 H 0.20806 0.56418 0.72603 0.0
H1833 H 0.17426 0.56009 0.72182 0.0
C1834 C 0.09844 0.57653 0.75947 0.0
C1835 C 0.09072 0.5565 0.76488 0.0
C1836 C 0.112 0.58409 0.74635 0.0
C1837 C 0.11824 0.57185 0.73844 0.0
C1838 C 0.11096 0.55203 0.74398 0.0
C1839 C 0.09723 0.54437 0.75699 0.0
C1840 C 0.1322 0.57966 0.72426 0.0
C1841 C 0.15116 0.58108 0.72557 0.0
C1842 C 0.12715 0.58625 0.70973 0.0
C1843 C 0.10713 0.58461 0.70748 0.0
C1844 C 0.08928 0.56585 0.70906 0.0
C1845 C 0.07046 0.56445 0.70705 0.0
C1846 C 0.0693 0.58168 0.70333 0.0
C1847 C 0.08697 0.60034 0.70157 0.0
C1848 C 0.10583 0.60183 0.70359 0.0
C1849 C 0.19408 0.59652 0.66363 0.0
C1850 C 0.19939 0.61495 0.65589 0.0
C1851 C 0.18122 0.59008 0.67721 0.0
C1852 C 0.17363 0.60207 0.6835 0.0
C1853 C 0.17873 0.62039 0.67569 0.0
C1854 C 0.19148 0.62677 0.662 0.0
C1855 C 0.16009 0.59525 0.69805 0.0
C1856 C 0.14118 0.59402 0.69684 0.0
C1857 C 0.16529 0.58905 0.71275 0.0
C1858 C 0.18559 0.59144 0.71533 0.0
C1859 C 0.2031 0.61037 0.7132 0.0
C1860 C 0.22219 0.61252 0.71554 0.0
C1861 C 0.22397 0.59587 0.72014 0.0
C1862 C 0.20665 0.57705 0.72244 0.0
C1863 C 0.18753 0.57482 0.72009 0.0
H1864 H 0.23876 0.59757 0.72196 0.0
H1865 H 0.05472 0.58056 0.70177 0.0
H1866 H 0.52473 0.09379 0.9322 0.0
H1867 H 0.53517 0.11715 0.90904 0.0
H1868 H 0.59232 0.11884 0.90725 0.0
H1869 H 0.58177 0.0948 0.92995 0.0
H1870 H 0.59509 0.15761 0.9055 0.0
H1871 H 0.55933 0.09183 0.88014 0.0
H1872 H 0.53027 0.05761 0.87602 0.0
H1873 H 0.49283 0.08282 0.86367 0.0
H1874 H 0.52163 0.11721 0.86796 0.0
H1875 H 0.63152 0.20334 0.82829 0.0
H1876 H 0.62037 0.18093 0.85208 0.0
H1877 H 0.56014 0.17153 0.84647 0.0
H1878 H 0.57119 0.19373 0.82243 0.0
H1879 H 0.55812 0.13702 0.85259 0.0
H1880 H 0.59269 0.20236 0.87708 0.0
H1881 H 0.62074 0.237 0.88178 0.0
H1882 H 0.65903 0.21369 0.89664 0.0
H1883 H 0.63128 0.17889 0.8918 0.0
C1884 C 0.53943 0.09888 0.92679 0.0
C1885 C 0.55234 0.09223 0.93295 0.0
C1886 C 0.54541 0.11236 0.91361 0.0
C1887 C 0.56447 0.11963 0.90641 0.0
C1888 C 0.57757 0.11344 0.9127 0.0
C1889 C 0.57153 0.09976 0.92575 0.0
C1890 C 0.57063 0.13351 0.89217 0.0
C1891 C 0.58719 0.15308 0.89386 0.0
C1892 C 0.55988 0.12773 0.87718 0.0
C1893 C 0.54258 0.10708 0.87454 0.0
C1894 C 0.54486 0.09007 0.87669 0.0
C1895 C 0.52844 0.07065 0.8743 0.0
C1896 C 0.5097 0.06804 0.86963 0.0
C1897 C 0.50735 0.08486 0.86731 0.0
C1898 C 0.52372 0.10432 0.86971 0.0
C1899 C 0.61594 0.19665 0.83222 0.0
C1900 C 0.60226 0.2004 0.82355 0.0
C1901 C 0.60958 0.18385 0.84584 0.0
C1902 C 0.58947 0.17477 0.85126 0.0
C1903 C 0.57573 0.17837 0.84255 0.0
C1904 C 0.58205 0.19104 0.82881 0.0
C1905 C 0.58274 0.16122 0.86582 0.0
C1906 C 0.56604 0.14167 0.86422 0.0
C1907 C 0.59322 0.16712 0.88097 0.0
C1908 C 0.60995 0.18802 0.88393 0.0
C1909 C 0.60714 0.20462 0.88122 0.0
C1910 C 0.62297 0.22429 0.88394 0.0
C1911 C 0.64167 0.22755 0.88947 0.0
C1912 C 0.64454 0.21114 0.89234 0.0
C1913 C 0.62876 0.19144 0.88963 0.0
H1914 H 0.65391 0.24278 0.89156 0.0
H1915 H 0.49701 0.05299 0.86778 0.0
H1916 H 0.49062 0.5387 0.07705 0.0
H1917 H 0.47727 0.54839 0.05368 0.0
H1918 H 0.44854 0.57035 0.08682 0.0
H1919 H 0.46141 0.56009 0.11024 0.0
H1920 H 0.42384 0.55082 0.063 0.0
H1921 H 0.49324 0.60269 0.06564 0.0
H1922 H 0.53012 0.61682 0.06688 0.0
H1923 H 0.52875 0.58992 0.02031 0.0
H1924 H 0.49181 0.57539 0.0189 0.0
H1925 H 0.40874 0.61089 0.00342 0.0
H1926 H 0.41966 0.59912 0.02705 0.0
H1927 H 0.44084 0.56905 0.99471 0.0
H1928 H 0.42947 0.58024 0.971 0.0
H1929 H 0.46918 0.59301 0.01814 0.0
H1930 H 0.39894 0.54166 0.01598 0.0
H1931 H 0.36228 0.52895 0.01517 0.0
H1932 H 0.36577 0.5571 0.06156 0.0
H1933 H 0.40252 0.57024 0.06254 0.0
C1934 C 0.48155 0.5457 0.07932 0.0
C1935 C 0.47714 0.54877 0.09544 0.0
C1936 C 0.47395 0.55127 0.06597 0.0
C1937 C 0.46218 0.56044 0.06846 0.0
C1938 C 0.4576 0.56333 0.08458 0.0
C1939 C 0.46496 0.55748 0.09794 0.0
C1940 C 0.45456 0.56691 0.05427 0.0
C1941 C 0.43382 0.56028 0.05332 0.0
C1942 C 0.46749 0.579 0.04146 0.0
C1943 C 0.48973 0.5878 0.04224 0.0
C1944 C 0.50078 0.59967 0.05572 0.0
C1945 C 0.5217 0.60777 0.05644 0.0
C1946 C 0.53176 0.60423 0.0437 0.0
C1947 C 0.52093 0.59263 0.03018 0.0
C1948 C 0.50001 0.58447 0.0294 0.0
C1949 C 0.41536 0.60145 0.00131 0.0
C1950 C 0.41822 0.59654 0.98526 0.0
C1951 C 0.42168 0.59482 0.01484 0.0
C1952 C 0.43101 0.58318 0.01262 0.0
C1953 C 0.43375 0.5781 0.99667 0.0
C1954 C 0.42731 0.58459 0.98313 0.0
C1955 C 0.43852 0.57685 0.0269 0.0
C1956 C 0.45924 0.58355 0.02785 0.0
C1957 C 0.42563 0.56506 0.03979 0.0
C1958 C 0.40352 0.5571 0.03925 0.0
C1959 C 0.39192 0.54529 0.02594 0.0
C1960 C 0.37112 0.53797 0.02546 0.0
C1961 C 0.36171 0.54226 0.03828 0.0
C1962 C 0.37308 0.55382 0.05163 0.0
C1963 C 0.39389 0.56118 0.05216 0.0
H1964 H 0.3456 0.53658 0.03789 0.0
H1965 H 0.54796 0.61051 0.04429 0.0
H1966 H 0.92905 0.44793 0.27202 0.0
H1967 H 0.90559 0.43542 0.24883 0.0
H1968 H 0.93602 0.49499 0.22726 0.0
H1969 H 0.95889 0.50767 0.25084 0.0
H1970 H 0.89801 0.47995 0.22314 0.0
H1971 H 0.94319 0.45464 0.21391 0.0
H1972 H 0.96156 0.4367 0.22065 0.0
H1973 H 0.90532 0.38136 0.22671 0.0
H1974 H 0.8866 0.39903 0.22022 0.0
H1975 H 0.86013 0.44948 0.14205 0.0
H1976 H 0.88304 0.46137 0.16565 0.0
H1977 H 0.84408 0.40589 0.1913 0.0
H1978 H 0.82107 0.3939 0.16772 0.0
H1979 H 0.88606 0.41851 0.19305 0.0
H1980 H 0.84148 0.44534 0.20144 0.0
H1981 H 0.82443 0.46416 0.19337 0.0
H1982 H 0.88191 0.51806 0.18717 0.0
H1983 H 0.89932 0.49947 0.19497 0.0
C1984 C 0.93065 0.45831 0.26232 0.0
C1985 C 0.94578 0.47872 0.26314 0.0
C1986 C 0.91734 0.45116 0.24902 0.0
C1987 C 0.91927 0.46415 0.23607 0.0
C1988 C 0.93422 0.48464 0.23705 0.0
C1989 C 0.94728 0.49188 0.25051 0.0
C1990 C 0.9057 0.45643 0.22154 0.0
C1991 C 0.89566 0.46667 0.21646 0.0
C1992 C 0.90228 0.43889 0.2129 0.0
C1993 C 0.9135 0.4282 0.21673 0.0
C1994 C 0.93474 0.43867 0.21679 0.0
C1995 C 0.94522 0.42855 0.22055 0.0
C1996 C 0.93461 0.40791 0.22415 0.0
C1997 C 0.91351 0.39735 0.22395 0.0
C1998 C 0.90296 0.40741 0.22021 0.0
C1999 C 0.85656 0.43974 0.15266 0.0
C2000 C 0.83882 0.42077 0.15307 0.0
C2001 C 0.86958 0.4466 0.16615 0.0
C2002 C 0.86515 0.43455 0.18024 0.0
C2003 C 0.84772 0.41541 0.18054 0.0
C2004 C 0.83456 0.40864 0.16712 0.0
C2005 C 0.87857 0.44208 0.19475 0.0
C2006 C 0.88852 0.43179 0.19979 0.0
C2007 C 0.88216 0.45973 0.20319 0.0
C2008 C 0.8717 0.47096 0.19864 0.0
C2009 C 0.85049 0.46116 0.19823 0.0
C2010 C 0.84076 0.47179 0.19373 0.0
C2011 C 0.85208 0.49228 0.18972 0.0
C2012 C 0.87316 0.50218 0.19026 0.0
C2013 C 0.88297 0.49161 0.19473 0.0
H2014 H 0.84452 0.50048 0.18624 0.0
H2015 H 0.94275 0.4001 0.22706 0.0
loop_
_geom_bond_atom_site_label_1
_geom_bond_atom_site_label_2
_geom_bond_distance
_geom_bond_site_symmetry_2
_ccdc_geom_bond_type
H0 C19 0.949 . S
H1 C20 0.950 . S
H2 C22 0.950 . S
H3 C23 0.950 . S
H4 C25 0.950 . S
H5 C28 0.950 . S
H6 C29 0.950 . S
H7 C31 0.951 . S
H8 C32 0.949 . S
H9 C34 0.949 . S
H10 C35 0.950 . S
H11 C37 0.950 . S
H12 C38 0.950 . S
H13 C40 0.950 . S
H14 C43 0.950 . S
H15 C44 0.950 . S
H16 C46 0.951 . S
H17 C47 0.949 . S
C18 C19 1.376 . S
C18 C23 1.386 . S
C18 C24 1.483 1_655 S
C19 H0 0.949 . S
C19 C18 1.376 . S
C19 C20 1.397 . S
C20 H1 0.950 . S
C20 C19 1.397 . S
C20 C21 1.391 . S
C21 C20 1.391 . S
C21 C22 1.405 . S
C22 H2 0.950 . S
C22 C21 1.405 . S
C22 C23 1.367 . S
C23 H3 0.950 . S
C23 C18 1.386 . S
C23 C22 1.367 . S
C24 C18 1.483 1_455 S
C24 C25 1.382 . S
C24 C26 1.403 1_455 S
C25 H4 0.950 . S
C25 C24 1.382 . S
C25 C41 1.411 . S
C26 C24 1.403 1_655 S
C26 C27 1.489 . S
C26 C40 1.411 1_655 S
C27 C26 1.489 . S
C27 C28 1.383 . S
C27 C32 1.382 . S
C28 H5 0.950 . S
C28 C27 1.383 . S
C28 C29 1.395 . S
C29 H6 0.950 . S
C29 C28 1.395 . S
C29 C30 1.288 . S
C30 C29 1.288 . S
C30 C31 1.392 . S
C31 H7 0.951 . S
C31 C30 1.392 . S
C31 C32 1.392 . S
C32 H8 0.949 . S
C32 C27 1.382 . S
C32 C31 1.392 . S
C33 C34 1.376 . S
C33 C38 1.386 . S
C33 C39 1.483 . S
C34 H9 0.949 . S
C34 C33 1.376 . S
C34 C35 1.397 . S
C35 H10 0.950 . S
C35 C34 1.397 . S
C35 C36 1.391 . S
C36 C35 1.391 . S
C36 C37 1.405 . S
C37 H11 0.950 . S
C37 C36 1.405 . S
C37 C38 1.367 . S
C38 H12 0.950 . S
C38 C33 1.386 . S
C38 C37 1.367 . S
C39 C33 1.483 . S
C39 C40 1.382 . S
C39 C41 1.403 . S
C40 H13 0.950 . S
C40 C26 1.411 1_455 S
C40 C39 1.382 . S
C41 C25 1.411 . S
C41 C39 1.403 . S
C41 C42 1.489 . S
C42 C41 1.489 . S
C42 C43 1.383 . S
C42 C47 1.382 . S
C43 H14 0.950 . S
C43 C42 1.383 . S
C43 C44 1.395 . S
C44 H15 0.950 . S
C44 C43 1.395 . S
C44 C45 1.288 . S
C45 C44 1.288 . S
C45 C46 1.392 . S
C46 H16 0.951 . S
C46 C45 1.392 . S
C46 C47 1.392 . S
C47 H17 0.949 . S
C47 C42 1.382 . S
C47 C46 1.392 . S
H48 C67 0.949 . S
H49 C68 0.950 . S
H50 C70 0.950 . S
H51 C71 0.950 . S
H52 C73 0.950 . S
H53 C76 0.950 . S
H54 C77 0.950 . S
H55 C79 0.951 . S
H56 C80 0.949 1_545 S
H57 C82 0.949 . S
H58 C83 0.950 . S
H59 C85 0.950 . S
H60 C86 0.950 . S
H61 C88 0.950 . S
H62 C91 0.950 . S
H63 C92 0.950 . S
H64 C94 0.951 . S
H65 C95 0.949 . S
C66 C67 1.376 . S
C66 C71 1.386 . S
C66 C72 1.483 . S
C67 H48 0.949 . S
C67 C66 1.376 . S
C67 C68 1.397 . S
C68 H49 0.950 . S
C68 C67 1.397 . S
C68 C69 1.391 . S
C69 C68 1.391 . S
C69 C70 1.405 . S
C70 H50 0.950 . S
C70 C69 1.405 . S
C70 C71 1.367 . S
C71 H51 0.950 . S
C71 C66 1.386 . S
C71 C70 1.367 . S
C72 C66 1.483 . S
C72 C73 1.382 1_565 S
C72 C74 1.403 1_565 S
C73 H52 0.950 . S
C73 C72 1.382 1_545 S
C73 C89 1.411 . S
C74 C72 1.403 1_545 S
C74 C75 1.489 1_545 S
C74 C88 1.411 . S
C75 C74 1.489 1_565 S
C75 C76 1.383 . S
C75 C80 1.382 . S
C76 H53 0.950 . S
C76 C75 1.383 . S
C76 C77 1.395 . S
C77 H54 0.950 . S
C77 C76 1.395 . S
C77 C78 1.288 . S
C78 C77 1.288 . S
C78 C79 1.392 . S
C79 H55 0.951 . S
C79 C78 1.392 . S
C79 C80 1.392 . S
C80 H56 0.949 1_565 S
C80 C75 1.382 . S
C80 C79 1.392 . S
C81 C82 1.376 . S
C81 C86 1.386 . S
C81 C87 1.483 . S
C82 H57 0.949 . S
C82 C81 1.376 . S
C82 C83 1.397 . S
C83 H58 0.950 . S
C83 C82 1.397 . S
C83 C84 1.391 . S
C84 C83 1.391 . S
C84 C85 1.405 . S
C85 H59 0.950 . S
C85 C84 1.405 . S
C85 C86 1.367 . S
C86 H60 0.950 . S
C86 C81 1.386 . S
C86 C85 1.367 . S
C87 C81 1.483 . S
C87 C88 1.382 . S
C87 C89 1.403 . S
C88 H61 0.950 . S
C88 C74 1.411 . S
C88 C87 1.382 . S
C89 C73 1.411 . S
C89 C87 1.403 . S
C89 C90 1.489 . S
C90 C89 1.489 . S
C90 C91 1.383 . S
C90 C95 1.382 . S
C91 H62 0.950 . S
C91 C90 1.383 . S
C91 C92 1.395 . S
C92 H63 0.950 . S
C92 C91 1.395 . S
C92 C93 1.288 . S
C93 C92 1.288 . S
C93 C94 1.392 . S
C94 H64 0.951 . S
C94 C93 1.392 . S
C94 C95 1.392 . S
C95 H65 0.949 . S
C95 C90 1.382 . S
C95 C94 1.392 . S
H96 C115 0.949 . S
H97 C116 0.950 . S
H98 C118 0.950 . S
H99 C119 0.950 . S
H100 C121 0.950 . S
H101 C124 0.950 . S
H102 C125 0.950 . S
H103 C127 0.951 . S
H104 C128 0.949 . S
H105 C130 0.949 . S
H106 C131 0.950 . S
H107 C133 0.950 . S
H108 C134 0.950 . S
H109 C136 0.950 . S
H110 C139 0.950 . S
H111 C140 0.950 . S
H112 C142 0.951 . S
H113 C143 0.949 . S
C114 C115 1.376 . S
C114 C119 1.386 . S
C114 C120 1.483 . S
C115 H96 0.949 . S
C115 C114 1.376 . S
C115 C116 1.397 . S
C116 H97 0.950 . S
C116 C115 1.397 . S
C116 C117 1.391 . S
C117 C116 1.391 . S
C117 C118 1.405 . S
C118 H98 0.950 . S
C118 C117 1.405 . S
C118 C119 1.367 . S
C119 H99 0.950 . S
C119 C114 1.386 . S
C119 C118 1.367 . S
C120 C114 1.483 . S
C120 C121 1.382 . S
C120 C122 1.403 . S
C121 H100 0.950 . S
C121 C120 1.382 . S
C121 C137 1.411 . S
C122 C120 1.403 . S
C122 C123 1.489 . S
C122 C136 1.411 . S
C123 C122 1.489 . S
C123 C124 1.383 . S
C123 C128 1.382 . S
C124 H101 0.950 . S
C124 C123 1.383 . S
C124 C125 1.395 . S
C125 H102 0.950 . S
C125 C124 1.395 . S
C125 C126 1.288 . S
C126 C125 1.288 . S
C126 C127 1.392 . S
C127 H103 0.951 . S
C127 C126 1.392 . S
C127 C128 1.392 . S
C128 H104 0.949 . S
C128 C123 1.382 . S
C128 C127 1.392 . S
C129 C130 1.376 . S
C129 C134 1.386 . S
C129 C135 1.483 . S
C130 H105 0.949 . S
C130 C129 1.376 . S
C130 C131 1.397 . S
C131 H106 0.950 . S
C131 C130 1.397 . S
C131 C132 1.391 . S
C132 C131 1.391 . S
C132 C133 1.405 . S
C133 H107 0.950 . S
C133 C132 1.405 . S
C133 C134 1.367 . S
C134 H108 0.950 . S
C134 C129 1.386 . S
C134 C133 1.367 . S
C135 C129 1.483 . S
C135 C136 1.382 . S
C135 C137 1.403 . S
C136 H109 0.950 . S
C136 C122 1.411 . S
C136 C135 1.382 . S
C137 C121 1.411 . S
C137 C135 1.403 . S
C137 C138 1.489 . S
C138 C137 1.489 . S
C138 C139 1.383 . S
C138 C143 1.382 . S
C139 H110 0.950 . S
C139 C138 1.383 . S
C139 C140 1.395 . S
C140 H111 0.950 . S
C140 C139 1.395 . S
C140 C141 1.288 . S
C141 C140 1.288 . S
C141 C142 1.392 . S
C142 H112 0.951 . S
C142 C141 1.392 . S
C142 C143 1.392 . S
C143 H113 0.949 . S
C143 C138 1.382 . S
C143 C142 1.392 . S
H144 C163 0.949 . S
H145 C164 0.950 . S
H146 C166 0.950 . S
H147 C167 0.950 . S
H148 C169 0.950 . S
H149 C172 0.950 . S
H150 C173 0.950 . S
H151 C175 0.951 . S
H152 C176 0.949 . S
H153 C178 0.949 . S
H154 C179 0.950 . S
H155 C181 0.950 . S
H156 C182 0.950 . S
H157 C184 0.950 . S
H158 C187 0.950 . S
H159 C188 0.950 . S
H160 C190 0.951 . S
H161 C191 0.949 . S
C162 C163 1.376 . S
C162 C167 1.386 . S
C162 C168 1.483 . S
C163 H144 0.949 . S
C163 C162 1.376 . S
C163 C164 1.397 . S
C164 H145 0.950 . S
C164 C163 1.397 . S
C164 C165 1.391 . S
C165 C164 1.391 . S
C165 C166 1.405 . S
C166 H146 0.950 . S
C166 C165 1.405 . S
C166 C167 1.367 . S
C167 H147 0.950 . S
C167 C162 1.386 . S
C167 C166 1.367 . S
C168 C162 1.483 . S
C168 C169 1.382 . S
C168 C170 1.403 . S
C169 H148 0.950 . S
C169 C168 1.382 . S
C169 C185 1.411 1_455 S
C170 C168 1.403 . S
C170 C171 1.489 . S
C170 C184 1.411 . S
C171 C170 1.489 . S
C171 C172 1.383 . S
C171 C176 1.382 . S
C172 H149 0.950 . S
C172 C171 1.383 . S
C172 C173 1.395 . S
C173 H150 0.950 . S
C173 C172 1.395 . S
C173 C174 1.288 . S
C174 C173 1.288 . S
C174 C175 1.392 . S
C175 H151 0.951 . S
C175 C174 1.392 . S
C175 C176 1.392 . S
C176 H152 0.949 . S
C176 C171 1.382 . S
C176 C175 1.392 . S
C177 C178 1.376 . S
C177 C182 1.386 . S
C177 C183 1.483 1_655 S
C178 H153 0.949 . S
C178 C177 1.376 . S
C178 C179 1.397 . S
C179 H154 0.950 . S
C179 C178 1.397 . S
C179 C180 1.391 . S
C180 C179 1.391 . S
C180 C181 1.405 . S
C181 H155 0.950 . S
C181 C180 1.405 . S
C181 C182 1.367 . S
C182 H156 0.950 . S
C182 C177 1.386 . S
C182 C181 1.367 . S
C183 C177 1.483 1_455 S
C183 C184 1.382 . S
C183 C185 1.403 1_455 S
C184 H157 0.950 . S
C184 C170 1.411 . S
C184 C183 1.382 . S
C185 C169 1.411 1_655 S
C185 C183 1.403 1_655 S
C185 C186 1.489 . S
C186 C185 1.489 . S
C186 C187 1.383 . S
C186 C191 1.382 . S
C187 H158 0.950 . S
C187 C186 1.383 . S
C187 C188 1.395 . S
C188 H159 0.950 . S
C188 C187 1.395 . S
C188 C189 1.288 . S
C189 C188 1.288 . S
C189 C190 1.392 . S
C190 H160 0.951 . S
C190 C189 1.392 . S
C190 C191 1.392 . S
C191 H161 0.949 . S
C191 C186 1.382 . S
C191 C190 1.392 . S
H192 C211 0.949 . S
H193 C212 0.950 . S
H194 C214 0.950 . S
H195 C215 0.956 . S
H196 C217 0.950 . S
H197 C220 0.950 . S
H198 C221 0.950 . S
H199 C223 0.951 . S
H200 C224 0.949 . S
H201 C226 0.949 . S
H202 C227 0.950 . S
H203 C229 0.950 . S
H204 C230 0.950 . S
H205 C232 0.950 . S
H206 C235 0.950 . S
H207 C236 0.950 . S
H208 C238 0.951 . S
H209 C239 0.949 1_545 S
C210 C211 1.376 . S
C210 C215 1.384 1_554 S
C210 C216 1.483 1_554 S
C211 H192 0.949 . S
C211 C210 1.376 . S
C211 C212 1.397 . S
C212 H193 0.950 . S
C212 C211 1.397 . S
C212 C213 1.391 . S
C213 C212 1.391 . S
C213 C214 1.405 . S
C214 H194 0.950 . S
C214 C213 1.405 . S
C214 C215 1.364 1_554 S
C215 H195 0.956 . S
C215 C210 1.384 1_556 S
C215 C214 1.364 1_556 S
C216 C210 1.483 1_556 S
C216 C217 1.382 1_556 S
C216 C218 1.403 . S
C217 H196 0.950 . S
C217 C216 1.382 1_554 S
C217 C233 1.411 . S
C218 C216 1.403 . S
C218 C219 1.489 . S
C218 C232 1.411 . S
C219 C218 1.489 . S
C219 C220 1.383 . S
C219 C224 1.382 . S
C220 H197 0.950 . S
C220 C219 1.383 . S
C220 C221 1.395 . S
C221 H198 0.950 . S
C221 C220 1.395 . S
C221 C222 1.288 . S
C222 C221 1.288 . S
C222 C223 1.392 . S
C223 H199 0.951 . S
C223 C222 1.392 . S
C223 C224 1.392 . S
C224 H200 0.949 . S
C224 C219 1.382 . S
C224 C223 1.392 . S
C225 C226 1.376 . S
C225 C230 1.386 . S
C225 C231 1.483 . S
C226 H201 0.949 . S
C226 C225 1.376 . S
C226 C227 1.397 . S
C227 H202 0.950 . S
C227 C226 1.397 . S
C227 C228 1.391 . S
C228 C227 1.391 . S
C228 C229 1.405 . S
C229 H203 0.950 . S
C229 C228 1.405 . S
C229 C230 1.367 . S
C230 H204 0.950 . S
C230 C225 1.386 . S
C230 C229 1.367 . S
C231 C225 1.483 . S
C231 C232 1.382 1_565 S
C231 C233 1.403 1_566 S
C232 H205 0.950 . S
C232 C218 1.411 . S
C232 C231 1.382 1_545 S
C233 C217 1.411 . S
C233 C231 1.403 1_544 S
C233 C234 1.489 1_545 S
C234 C233 1.489 1_565 S
C234 C235 1.383 . S
C234 C239 1.382 . S
C235 H206 0.950 . S
C235 C234 1.383 . S
C235 C236 1.395 . S
C236 H207 0.950 . S
C236 C235 1.395 . S
C236 C237 1.288 . S
C237 C236 1.288 . S
C237 C238 1.392 . S
C238 H208 0.951 . S
C238 C237 1.392 . S
C238 C239 1.392 . S
C239 H209 0.949 1_565 S
C239 C234 1.382 . S
C239 C238 1.392 . S
H240 C259 0.949 . S
H241 C260 0.950 . S
H242 C262 0.950 . S
H243 C263 0.950 . S
H244 C265 0.950 . S
H245 C268 0.950 . S
H246 C269 0.950 . S
H247 C271 0.951 . S
H248 C272 0.949 . S
H249 C274 0.949 . S
H250 C275 0.950 . S
H251 C277 0.950 . S
H252 C278 0.950 . S
H253 C280 0.950 . S
H254 C283 0.950 . S
H255 C284 0.950 . S
H256 C286 0.951 . S
H257 C287 0.949 . S
C258 C259 1.376 . S
C258 C263 1.386 . S
C258 C264 1.483 . S
C259 H240 0.949 . S
C259 C258 1.376 . S
C259 C260 1.397 . S
C260 H241 0.950 . S
C260 C259 1.397 . S
C260 C261 1.391 . S
C261 C260 1.391 . S
C261 C262 1.405 . S
C262 H242 0.950 . S
C262 C261 1.405 . S
C262 C263 1.367 . S
C263 H243 0.950 . S
C263 C258 1.386 . S
C263 C262 1.367 . S
C264 C258 1.483 . S
C264 C265 1.382 . S
C264 C266 1.403 . S
C265 H244 0.950 . S
C265 C264 1.382 . S
C265 C281 1.411 . S
C266 C264 1.403 . S
C266 C267 1.489 . S
C266 C280 1.411 . S
C267 C266 1.489 . S
C267 C268 1.383 . S
C267 C272 1.382 . S
C268 H245 0.950 . S
C268 C267 1.383 . S
C268 C269 1.395 . S
C269 H246 0.950 . S
C269 C268 1.395 . S
C269 C270 1.288 . S
C270 C269 1.288 . S
C270 C271 1.392 . S
C271 H247 0.951 . S
C271 C270 1.392 . S
C271 C272 1.392 . S
C272 H248 0.949 . S
C272 C267 1.382 . S
C272 C271 1.392 . S
C273 C274 1.376 . S
C273 C278 1.386 . S
C273 C279 1.483 . S
C274 H249 0.949 . S
C274 C273 1.376 . S
C274 C275 1.397 . S
C275 H250 0.950 . S
C275 C274 1.397 . S
C275 C276 1.391 . S
C276 C275 1.391 . S
C276 C277 1.405 . S
C277 H251 0.950 . S
C277 C276 1.405 . S
C277 C278 1.367 . S
C278 H252 0.950 . S
C278 C273 1.386 . S
C278 C277 1.367 . S
C279 C273 1.483 . S
C279 C280 1.382 . S
C279 C281 1.403 . S
C280 H253 0.950 . S
C280 C266 1.411 . S
C280 C279 1.382 . S
C281 C265 1.411 . S
C281 C279 1.403 . S
C281 C282 1.489 . S
C282 C281 1.489 . S
C282 C283 1.383 . S
C282 C287 1.382 . S
C283 H254 0.950 . S
C283 C282 1.383 . S
C283 C284 1.395 . S
C284 H255 0.950 . S
C284 C283 1.395 . S
C284 C285 1.288 . S
C285 C284 1.288 . S
C285 C286 1.392 . S
C286 H256 0.951 . S
C286 C285 1.392 . S
C286 C287 1.392 . S
C287 H257 0.949 . S
C287 C282 1.382 . S
C287 C286 1.392 . S
Li288 N305 1.990 . S
Li288 O348 1.956 . S
Li288 O349 1.970 . S
Li288 O350 1.961 . S
Li289 N313 1.990 . S
Li289 O348 1.970 . S
Li289 O349 1.956 . S
Li289 O351 1.961 . S
Li290 N335 1.990 . S
Li290 O348 1.961 . S
Li290 O350 1.956 . S
Li290 O351 1.970 . S
Li291 N341 1.990 . S
Li291 O349 1.961 . S
Li291 O350 1.970 . S
Li291 O351 1.956 . S
C292 C294 1.348 . S
C292 C295 1.356 . S
C292 O348 1.325 . S
N293 C296 1.314 . S
N293 C297 1.279 . S
C294 C292 1.348 . S
C294 C296 1.353 . S
C294 H352 0.929 . S
C295 C292 1.356 . S
C295 C297 1.358 . S
C295 H353 0.930 . S
C296 N293 1.314 . S
C296 C294 1.353 . S
C296 H354 0.930 . S
C297 N293 1.279 . S
C297 C295 1.358 . S
C297 H355 0.930 . S
C298 C301 1.348 . S
C298 C302 1.356 . S
C298 O349 1.325 . S
C299 N300 1.279 . S
C299 C302 1.358 . S
C299 H356 0.930 . S
N300 C299 1.279 . S
N300 C303 1.314 . S
C301 C298 1.348 . S
C301 C303 1.353 . S
C301 H357 0.929 . S
C302 C298 1.356 . S
C302 C299 1.358 . S
C302 H358 0.930 . S
C303 N300 1.314 . S
C303 C301 1.353 . S
C303 H359 0.930 . S
C304 N305 1.314 . S
C304 C309 1.353 . S
C304 H310 0.930 . S
N305 Li288 1.990 . S
N305 C304 1.314 . S
N305 C307 1.279 . S
C306 C307 1.358 . S
C306 C308 1.356 . S
C306 H360 0.930 . S
C307 N305 1.279 . S
C307 C306 1.358 . S
C307 H311 0.930 . S
C308 C306 1.356 . S
C308 C309 1.348 . S
C309 C304 1.353 . S
C309 C308 1.348 . S
C309 H361 0.929 . S
H310 C304 0.930 . S
H311 C307 0.930 . S
C312 N313 1.314 . S
C312 C314 1.353 . S
C312 H318 0.930 . S
N313 Li289 1.990 . S
N313 C312 1.314 . S
N313 C316 1.279 . S
C314 C312 1.353 . S
C314 C317 1.348 . S
C314 H362 0.929 . S
C315 C316 1.358 . S
C315 C317 1.356 . S
C315 H363 0.930 . S
C316 N313 1.279 . S
C316 C315 1.358 . S
C316 H319 0.930 . S
C317 C314 1.348 . S
C317 C315 1.356 . S
H318 C312 0.930 . S
H319 C316 0.930 . S
C320 C322 1.348 . S
C320 C323 1.356 . S
C320 O350 1.325 . S
N321 C324 1.314 . S
N321 C325 1.279 . S
C322 C320 1.348 . S
C322 C324 1.353 . S
C322 H364 0.929 . S
C323 C320 1.356 . S
C323 C325 1.358 . S
C323 H365 0.930 . S
C324 N321 1.314 . S
C324 C322 1.353 . S
C324 H366 0.930 . S
C325 N321 1.279 . S
C325 C323 1.358 . S
C325 H367 0.930 . S
C326 C327 1.348 . S
C326 C328 1.356 . S
C326 O351 1.325 . S
C327 C326 1.348 . S
C327 C329 1.353 . S
C327 H368 0.929 . S
C328 C326 1.356 . S
C328 C330 1.358 . S
C328 H369 0.930 . S
C329 C327 1.353 . S
C329 N331 1.314 . S
C329 H370 0.930 . S
C330 C328 1.358 . S
C330 N331 1.279 . S
C330 H371 0.930 . S
N331 C329 1.314 . S
N331 C330 1.279 . S
C332 C334 1.353 . S
C332 N335 1.314 . S
C332 H338 0.930 . S
C333 N335 1.279 . S
C333 C336 1.358 . S
C333 H339 0.930 . S
C334 C332 1.353 . S
C334 C337 1.348 . S
C334 H372 0.929 . S
N335 Li290 1.990 . S
N335 C332 1.314 . S
N335 C333 1.279 . S
C336 C333 1.358 . S
C336 C337 1.356 . S
C336 H373 0.930 . S
C337 C334 1.348 . S
C337 C336 1.356 . S
H338 C332 0.930 . S
H339 C333 0.930 . S
C340 N341 1.314 . S
C340 C342 1.353 . S
C340 H346 0.930 . S
N341 Li291 1.990 . S
N341 C340 1.314 . S
N341 C344 1.279 . S
C342 C340 1.353 . S
C342 C345 1.348 . S
C342 H374 0.929 . S
C343 C344 1.358 . S
C343 C345 1.356 . S
C343 H375 0.930 . S
C344 N341 1.279 . S
C344 C343 1.358 . S
C344 H347 0.930 . S
C345 C342 1.348 . S
C345 C343 1.356 . S
H346 C340 0.930 . S
H347 C344 0.930 . S
O348 Li288 1.956 . S
O348 Li289 1.970 . S
O348 Li290 1.961 . S
O348 C292 1.325 . S
O349 Li288 1.970 . S
O349 Li289 1.956 . S
O349 Li291 1.961 . S
O349 C298 1.325 . S
O350 Li288 1.961 . S
O350 Li290 1.956 . S
O350 Li291 1.970 . S
O350 C320 1.325 . S
O351 Li289 1.961 . S
O351 Li290 1.970 . S
O351 Li291 1.956 . S
O351 C326 1.325 . S
H352 C294 0.929 . S
H353 C295 0.930 . S
H354 C296 0.930 . S
H355 C297 0.930 . S
H356 C299 0.930 . S
H357 C301 0.929 . S
H358 C302 0.930 . S
H359 C303 0.930 . S
H360 C306 0.930 . S
H361 C309 0.929 . S
H362 C314 0.929 . S
H363 C315 0.930 . S
H364 C322 0.929 . S
H365 C323 0.930 . S
H366 C324 0.930 . S
H367 C325 0.930 . S
H368 C327 0.929 . S
H369 C328 0.930 . S
H370 C329 0.930 . S
H371 C330 0.930 . S
H372 C334 0.929 . S
H373 C336 0.930 . S
H374 C342 0.929 . S
H375 C343 0.930 . S
Li376 N393 1.990 . S
Li376 O436 1.956 . S
Li376 O437 1.970 . S
Li376 O438 1.961 . S
Li377 N401 1.990 . S
Li377 O436 1.970 . S
Li377 O437 1.956 . S
Li377 O439 1.961 . S
Li378 N423 1.990 . S
Li378 O436 1.961 . S
Li378 O438 1.956 . S
Li378 O439 1.970 . S
Li379 N429 1.990 . S
Li379 O437 1.961 . S
Li379 O438 1.970 . S
Li379 O439 1.956 . S
C380 C382 1.348 . S
C380 C383 1.356 . S
C380 O436 1.325 . S
N381 C384 1.314 . S
N381 C385 1.279 . S
C382 C380 1.348 . S
C382 C384 1.353 . S
C382 H440 0.929 . S
C383 C380 1.356 . S
C383 C385 1.358 . S
C383 H441 0.930 . S
C384 N381 1.314 . S
C384 C382 1.353 . S
C384 H442 0.930 . S
C385 N381 1.279 . S
C385 C383 1.358 . S
C385 H443 0.930 . S
C386 C389 1.348 . S
C386 C390 1.356 . S
C386 O437 1.325 . S
C387 N388 1.279 . S
C387 C390 1.358 . S
C387 H444 0.930 . S
N388 C387 1.279 . S
N388 C391 1.314 . S
C389 C386 1.348 . S
C389 C391 1.353 . S
C389 H445 0.929 . S
C390 C386 1.356 . S
C390 C387 1.358 . S
C390 H446 0.930 . S
C391 N388 1.314 . S
C391 C389 1.353 . S
C391 H447 0.930 . S
C392 N393 1.314 . S
C392 C397 1.353 . S
C392 H398 0.930 . S
N393 Li376 1.990 . S
N393 C392 1.314 . S
N393 C395 1.279 . S
C394 C395 1.358 . S
C394 C396 1.356 . S
C394 H448 0.930 . S
C395 N393 1.279 . S
C395 C394 1.358 . S
C395 H399 0.930 . S
C396 C394 1.356 . S
C396 C397 1.348 . S
C397 C392 1.353 . S
C397 C396 1.348 . S
C397 H449 0.929 . S
H398 C392 0.930 . S
H399 C395 0.930 . S
C400 N401 1.314 . S
C400 C402 1.353 . S
C400 H406 0.930 . S
N401 Li377 1.990 . S
N401 C400 1.314 . S
N401 C404 1.279 . S
C402 C400 1.353 . S
C402 C405 1.348 . S
C402 H450 0.929 . S
C403 C404 1.358 . S
C403 C405 1.356 . S
C403 H451 0.930 . S
C404 N401 1.279 . S
C404 C403 1.358 . S
C404 H407 0.930 . S
C405 C402 1.348 . S
C405 C403 1.356 . S
H406 C400 0.930 . S
H407 C404 0.930 . S
C408 C410 1.348 . S
C408 C411 1.356 . S
C408 O438 1.325 . S
N409 C412 1.314 . S
N409 C413 1.279 . S
C410 C408 1.348 . S
C410 C412 1.353 . S
C410 H452 0.929 . S
C411 C408 1.356 . S
C411 C413 1.358 . S
C411 H453 0.930 . S
C412 N409 1.314 . S
C412 C410 1.353 . S
C412 H454 0.930 . S
C413 N409 1.279 . S
C413 C411 1.358 . S
C413 H455 0.930 . S
C414 C415 1.348 . S
C414 C416 1.356 . S
C414 O439 1.325 . S
C415 C414 1.348 . S
C415 C417 1.353 . S
C415 H456 0.929 . S
C416 C414 1.356 . S
C416 C418 1.358 . S
C416 H457 0.930 . S
C417 C415 1.353 . S
C417 N419 1.314 . S
C417 H458 0.930 . S
C418 C416 1.358 . S
C418 N419 1.279 . S
C418 H459 0.930 . S
N419 C417 1.314 . S
N419 C418 1.279 . S
C420 C422 1.353 . S
C420 N423 1.314 . S
C420 H426 0.930 . S
C421 N423 1.279 . S
C421 C424 1.358 . S
C421 H427 0.930 . S
C422 C420 1.353 . S
C422 C425 1.348 . S
C422 H460 0.929 . S
N423 Li378 1.990 . S
N423 C420 1.314 . S
N423 C421 1.279 . S
C424 C421 1.358 . S
C424 C425 1.356 . S
C424 H461 0.930 . S
C425 C422 1.348 . S
C425 C424 1.356 . S
H426 C420 0.930 . S
H427 C421 0.930 . S
C428 N429 1.314 . S
C428 C430 1.353 . S
C428 H434 0.930 . S
N429 Li379 1.990 . S
N429 C428 1.314 . S
N429 C432 1.279 . S
C430 C428 1.353 . S
C430 C433 1.348 . S
C430 H462 0.929 . S
C431 C432 1.358 . S
C431 C433 1.356 . S
C431 H463 0.930 . S
C432 N429 1.279 . S
C432 C431 1.358 . S
C432 H435 0.930 . S
C433 C430 1.348 . S
C433 C431 1.356 . S
H434 C428 0.930 . S
H435 C432 0.930 . S
O436 Li376 1.956 . S
O436 Li377 1.970 . S
O436 Li378 1.961 . S
O436 C380 1.325 . S
O437 Li376 1.970 . S
O437 Li377 1.956 . S
O437 Li379 1.961 . S
O437 C386 1.325 . S
O438 Li376 1.961 . S
O438 Li378 1.956 . S
O438 Li379 1.970 . S
O438 C408 1.325 . S
O439 Li377 1.961 . S
O439 Li378 1.970 . S
O439 Li379 1.956 . S
O439 C414 1.325 . S
H440 C382 0.929 . S
H441 C383 0.930 . S
H442 C384 0.930 . S
H443 C385 0.930 . S
H444 C387 0.930 . S
H445 C389 0.929 . S
H446 C390 0.930 . S
H447 C391 0.930 . S
H448 C394 0.930 . S
H449 C397 0.929 . S
H450 C402 0.929 . S
H451 C403 0.930 . S
H452 C410 0.929 . S
H453 C411 0.930 . S
H454 C412 0.930 . S
H455 C413 0.930 . S
H456 C415 0.929 . S
H457 C416 0.930 . S
H458 C417 0.930 . S
H459 C418 0.930 . S
H460 C422 0.929 . S
H461 C424 0.930 . S
H462 C430 0.929 . S
H463 C431 0.930 . S
Li464 N481 1.990 . S
Li464 O524 1.956 . S
Li464 O525 1.970 . S
Li464 O526 1.961 . S
Li465 N489 1.990 . S
Li465 O524 1.970 . S
Li465 O525 1.956 . S
Li465 O527 1.961 . S
Li466 N511 1.990 . S
Li466 O524 1.961 . S
Li466 O526 1.956 . S
Li466 O527 1.970 . S
Li467 N517 1.990 . S
Li467 O525 1.961 . S
Li467 O526 1.970 . S
Li467 O527 1.956 . S
C468 C470 1.348 . S
C468 C471 1.356 . S
C468 O524 1.325 . S
N469 C472 1.314 . S
N469 C473 1.279 . S
C470 C468 1.348 . S
C470 C472 1.353 . S
C470 H528 0.929 . S
C471 C468 1.356 . S
C471 C473 1.358 . S
C471 H529 0.930 . S
C472 N469 1.314 . S
C472 C470 1.353 . S
C472 H530 0.930 . S
C473 N469 1.279 . S
C473 C471 1.358 . S
C473 H531 0.930 . S
C474 C477 1.348 . S
C474 C478 1.356 . S
C474 O525 1.325 . S
C475 N476 1.279 . S
C475 C478 1.358 . S
C475 H532 0.930 . S
N476 C475 1.279 . S
N476 C479 1.314 . S
C477 C474 1.348 . S
C477 C479 1.353 . S
C477 H533 0.929 . S
C478 C474 1.356 . S
C478 C475 1.358 . S
C478 H534 0.930 . S
C479 N476 1.314 . S
C479 C477 1.353 . S
C479 H535 0.930 . S
C480 N481 1.314 . S
C480 C485 1.353 . S
C480 H486 0.930 . S
N481 Li464 1.990 . S
N481 C480 1.314 . S
N481 C483 1.279 . S
C482 C483 1.358 . S
C482 C484 1.356 . S
C482 H536 0.930 . S
C483 N481 1.279 . S
C483 C482 1.358 . S
C483 H487 0.930 . S
C484 C482 1.356 . S
C484 C485 1.348 . S
C485 C480 1.353 . S
C485 C484 1.348 . S
C485 H537 0.929 . S
H486 C480 0.930 . S
H487 C483 0.930 . S
C488 N489 1.314 . S
C488 C490 1.353 . S
C488 H494 0.930 . S
N489 Li465 1.990 . S
N489 C488 1.314 . S
N489 C492 1.279 . S
C490 C488 1.353 . S
C490 C493 1.348 . S
C490 H538 0.929 . S
C491 C492 1.358 . S
C491 C493 1.356 . S
C491 H539 0.930 . S
C492 N489 1.279 . S
C492 C491 1.358 . S
C492 H495 0.930 . S
C493 C490 1.348 . S
C493 C491 1.356 . S
H494 C488 0.930 . S
H495 C492 0.930 . S
C496 C498 1.348 . S
C496 C499 1.356 . S
C496 O526 1.325 . S
N497 C500 1.314 . S
N497 C501 1.279 . S
C498 C496 1.348 . S
C498 C500 1.353 . S
C498 H540 0.929 . S
C499 C496 1.356 . S
C499 C501 1.358 . S
C499 H541 0.930 . S
C500 N497 1.314 . S
C500 C498 1.353 . S
C500 H542 0.930 . S
C501 N497 1.279 . S
C501 C499 1.358 . S
C501 H543 0.930 . S
C502 C503 1.348 . S
C502 C504 1.356 . S
C502 O527 1.325 . S
C503 C502 1.348 . S
C503 C505 1.353 . S
C503 H544 0.929 . S
C504 C502 1.356 . S
C504 C506 1.358 . S
C504 H545 0.930 . S
C505 C503 1.353 . S
C505 N507 1.314 . S
C505 H546 0.930 . S
C506 C504 1.358 . S
C506 N507 1.279 . S
C506 H547 0.930 . S
N507 C505 1.314 . S
N507 C506 1.279 . S
C508 C510 1.353 . S
C508 N511 1.314 . S
C508 H514 0.930 . S
C509 N511 1.279 . S
C509 C512 1.358 . S
C509 H515 0.930 . S
C510 C508 1.353 . S
C510 C513 1.348 . S
C510 H548 0.929 . S
N511 Li466 1.990 . S
N511 C508 1.314 . S
N511 C509 1.279 . S
C512 C509 1.358 . S
C512 C513 1.356 . S
C512 H549 0.930 . S
C513 C510 1.348 . S
C513 C512 1.356 . S
H514 C508 0.930 . S
H515 C509 0.930 . S
C516 N517 1.314 . S
C516 C518 1.353 . S
C516 H522 0.930 . S
N517 Li467 1.990 . S
N517 C516 1.314 . S
N517 C520 1.279 . S
C518 C516 1.353 . S
C518 C521 1.348 . S
C518 H550 0.929 . S
C519 C520 1.358 . S
C519 C521 1.356 . S
C519 H551 0.930 . S
C520 N517 1.279 . S
C520 C519 1.358 . S
C520 H523 0.930 . S
C521 C518 1.348 . S
C521 C519 1.356 . S
H522 C516 0.930 . S
H523 C520 0.930 . S
O524 Li464 1.956 . S
O524 Li465 1.970 . S
O524 Li466 1.961 . S
O524 C468 1.325 . S
O525 Li464 1.970 . S
O525 Li465 1.956 . S
O525 Li467 1.961 . S
O525 C474 1.325 . S
O526 Li464 1.961 . S
O526 Li466 1.956 . S
O526 Li467 1.970 . S
O526 C496 1.325 . S
O527 Li465 1.961 . S
O527 Li466 1.970 . S
O527 Li467 1.956 . S
O527 C502 1.325 . S
H528 C470 0.929 . S
H529 C471 0.930 . S
H530 C472 0.930 . S
H531 C473 0.930 . S
H532 C475 0.930 . S
H533 C477 0.929 . S
H534 C478 0.930 . S
H535 C479 0.930 . S
H536 C482 0.930 . S
H537 C485 0.929 . S
H538 C490 0.929 . S
H539 C491 0.930 . S
H540 C498 0.929 . S
H541 C499 0.930 . S
H542 C500 0.930 . S
H543 C501 0.930 . S
H544 C503 0.929 . S
H545 C504 0.930 . S
H546 C505 0.930 . S
H547 C506 0.930 . S
H548 C510 0.929 . S
H549 C512 0.930 . S
H550 C518 0.929 . S
H551 C519 0.930 . S
Li552 N569 1.990 . S
Li552 O612 1.956 . S
Li552 O613 1.970 . S
Li552 O614 1.961 . S
Li553 N577 1.990 . S
Li553 O612 1.970 . S
Li553 O613 1.956 . S
Li553 O615 1.961 . S
Li554 N599 1.990 . S
Li554 O612 1.961 . S
Li554 O614 1.956 . S
Li554 O615 1.970 . S
Li555 N605 1.990 . S
Li555 O613 1.961 . S
Li555 O614 1.970 . S
Li555 O615 1.956 . S
C556 C558 1.348 . S
C556 C559 1.356 . S
C556 O612 1.325 . S
N557 C560 1.314 . S
N557 C561 1.279 . S
C558 C556 1.348 . S
C558 C560 1.353 . S
C558 H616 0.929 . S
C559 C556 1.356 . S
C559 C561 1.358 . S
C559 H617 0.930 . S
C560 N557 1.314 . S
C560 C558 1.353 . S
C560 H618 0.930 . S
C561 N557 1.279 . S
C561 C559 1.358 . S
C561 H619 0.930 . S
C562 C565 1.348 . S
C562 C566 1.356 . S
C562 O613 1.325 . S
C563 N564 1.279 . S
C563 C566 1.358 . S
C563 H620 0.930 . S
N564 C563 1.279 . S
N564 C567 1.314 . S
C565 C562 1.348 . S
C565 C567 1.353 . S
C565 H621 0.929 . S
C566 C562 1.356 . S
C566 C563 1.358 . S
C566 H622 0.930 . S
C567 N564 1.314 . S
C567 C565 1.353 . S
C567 H623 0.930 . S
C568 N569 1.314 . S
C568 C573 1.353 . S
C568 H574 0.930 . S
N569 Li552 1.990 . S
N569 C568 1.314 . S
N569 C571 1.279 . S
C570 C571 1.358 . S
C570 C572 1.356 . S
C570 H624 0.930 . S
C571 N569 1.279 . S
C571 C570 1.358 . S
C571 H575 0.930 . S
C572 C570 1.356 . S
C572 C573 1.348 . S
C573 C568 1.353 . S
C573 C572 1.348 . S
C573 H625 0.929 . S
H574 C568 0.930 . S
H575 C571 0.930 . S
C576 N577 1.314 . S
C576 C578 1.353 . S
C576 H582 0.930 . S
N577 Li553 1.990 . S
N577 C576 1.314 . S
N577 C580 1.279 . S
C578 C576 1.353 . S
C578 C581 1.348 . S
C578 H626 0.929 . S
C579 C580 1.358 . S
C579 C581 1.356 . S
C579 H627 0.930 . S
C580 N577 1.279 . S
C580 C579 1.358 . S
C580 H583 0.930 . S
C581 C578 1.348 . S
C581 C579 1.356 . S
H582 C576 0.930 . S
H583 C580 0.930 . S
C584 C586 1.348 . S
C584 C587 1.356 . S
C584 O614 1.325 . S
N585 C588 1.314 . S
N585 C589 1.279 . S
C586 C584 1.348 . S
C586 C588 1.353 . S
C586 H628 0.929 . S
C587 C584 1.356 . S
C587 C589 1.358 . S
C587 H629 0.930 . S
C588 N585 1.314 . S
C588 C586 1.353 . S
C588 H630 0.930 . S
C589 N585 1.279 . S
C589 C587 1.358 . S
C589 H631 0.930 . S
C590 C591 1.348 . S
C590 C592 1.356 . S
C590 O615 1.325 . S
C591 C590 1.348 . S
C591 C593 1.353 . S
C591 H632 0.929 . S
C592 C590 1.356 . S
C592 C594 1.358 . S
C592 H633 0.930 . S
C593 C591 1.353 . S
C593 N595 1.314 . S
C593 H634 0.930 . S
C594 C592 1.358 . S
C594 N595 1.279 . S
C594 H635 0.930 . S
N595 C593 1.314 . S
N595 C594 1.279 . S
C596 C598 1.353 . S
C596 N599 1.314 . S
C596 H602 0.930 . S
C597 N599 1.279 . S
C597 C600 1.358 . S
C597 H603 0.930 . S
C598 C596 1.353 . S
C598 C601 1.348 . S
C598 H636 0.929 . S
N599 Li554 1.990 . S
N599 C596 1.314 . S
N599 C597 1.279 . S
C600 C597 1.358 . S
C600 C601 1.356 . S
C600 H637 0.930 . S
C601 C598 1.348 . S
C601 C600 1.356 . S
H602 C596 0.930 . S
H603 C597 0.930 . S
C604 N605 1.314 . S
C604 C606 1.353 . S
C604 H610 0.930 . S
N605 Li555 1.990 . S
N605 C604 1.314 . S
N605 C608 1.279 . S
C606 C604 1.353 . S
C606 C609 1.348 . S
C606 H638 0.929 . S
C607 C608 1.358 . S
C607 C609 1.356 . S
C607 H639 0.930 . S
C608 N605 1.279 . S
C608 C607 1.358 . S
C608 H611 0.930 . S
C609 C606 1.348 . S
C609 C607 1.356 . S
H610 C604 0.930 . S
H611 C608 0.930 . S
O612 Li552 1.956 . S
O612 Li553 1.970 . S
O612 Li554 1.961 . S
O612 C556 1.325 . S
O613 Li552 1.970 . S
O613 Li553 1.956 . S
O613 Li555 1.961 . S
O613 C562 1.325 . S
O614 Li552 1.961 . S
O614 Li554 1.956 . S
O614 Li555 1.970 . S
O614 C584 1.325 . S
O615 Li553 1.961 . S
O615 Li554 1.970 . S
O615 Li555 1.956 . S
O615 C590 1.325 . S
H616 C558 0.929 . S
H617 C559 0.930 . S
H618 C560 0.930 . S
H619 C561 0.930 . S
H620 C563 0.930 . S
H621 C565 0.929 . S
H622 C566 0.930 . S
H623 C567 0.930 . S
H624 C570 0.930 . S
H625 C573 0.929 . S
H626 C578 0.929 . S
H627 C579 0.930 . S
H628 C586 0.929 . S
H629 C587 0.930 . S
H630 C588 0.930 . S
H631 C589 0.930 . S
H632 C591 0.929 . S
H633 C592 0.930 . S
H634 C593 0.930 . S
H635 C594 0.930 . S
H636 C598 0.929 . S
H637 C600 0.930 . S
H638 C606 0.929 . S
H639 C607 0.930 . S
Li640 N657 1.990 . S
Li640 O700 1.956 . S
Li640 O701 1.970 . S
Li640 O702 1.961 . S
Li641 N665 1.990 . S
Li641 O700 1.970 . S
Li641 O701 1.956 . S
Li641 O703 1.961 . S
Li642 N687 1.990 . S
Li642 O700 1.961 . S
Li642 O702 1.956 . S
Li642 O703 1.970 . S
Li643 N693 1.990 . S
Li643 O701 1.961 . S
Li643 O702 1.970 . S
Li643 O703 1.956 . S
C644 C646 1.348 . S
C644 C647 1.356 . S
C644 O700 1.325 . S
N645 C648 1.314 . S
N645 C649 1.279 . S
C646 C644 1.348 . S
C646 C648 1.353 . S
C646 H704 0.929 . S
C647 C644 1.356 . S
C647 C649 1.358 . S
C647 H705 0.930 . S
C648 N645 1.314 . S
C648 C646 1.353 . S
C648 H706 0.930 . S
C649 N645 1.279 . S
C649 C647 1.358 . S
C649 H707 0.930 . S
C650 C653 1.348 . S
C650 C654 1.356 . S
C650 O701 1.325 . S
C651 N652 1.279 . S
C651 C654 1.358 . S
C651 H708 0.930 . S
N652 C651 1.279 . S
N652 C655 1.314 . S
C653 C650 1.348 . S
C653 C655 1.353 . S
C653 H709 0.929 . S
C654 C650 1.356 . S
C654 C651 1.358 . S
C654 H710 0.930 . S
C655 N652 1.314 . S
C655 C653 1.353 . S
C655 H711 0.930 . S
C656 N657 1.314 . S
C656 C661 1.353 . S
C656 H662 0.930 . S
N657 Li640 1.990 . S
N657 C656 1.314 . S
N657 C659 1.279 . S
C658 C659 1.358 . S
C658 C660 1.356 . S
C658 H712 0.930 . S
C659 N657 1.279 . S
C659 C658 1.358 . S
C659 H663 0.930 . S
C660 C658 1.356 . S
C660 C661 1.348 . S
C661 C656 1.353 . S
C661 C660 1.348 . S
C661 H713 0.929 . S
H662 C656 0.930 . S
H663 C659 0.930 . S
C664 N665 1.314 . S
C664 C666 1.353 . S
C664 H670 0.930 . S
N665 Li641 1.990 . S
N665 C664 1.314 . S
N665 C668 1.279 . S
C666 C664 1.353 . S
C666 C669 1.348 . S
C666 H714 0.929 . S
C667 C668 1.358 . S
C667 C669 1.356 . S
C667 H715 0.930 . S
C668 N665 1.279 . S
C668 C667 1.358 . S
C668 H671 0.930 . S
C669 C666 1.348 . S
C669 C667 1.356 . S
H670 C664 0.930 . S
H671 C668 0.930 . S
C672 C674 1.348 . S
C672 C675 1.356 . S
C672 O702 1.325 . S
N673 C676 1.314 . S
N673 C677 1.279 . S
C674 C672 1.348 . S
C674 C676 1.353 . S
C674 H716 0.929 . S
C675 C672 1.356 . S
C675 C677 1.358 . S
C675 H717 0.930 . S
C676 N673 1.314 . S
C676 C674 1.353 . S
C676 H718 0.930 . S
C677 N673 1.279 . S
C677 C675 1.358 . S
C677 H719 0.930 . S
C678 C679 1.348 . S
C678 C680 1.356 . S
C678 O703 1.325 . S
C679 C678 1.348 . S
C679 C681 1.353 . S
C679 H720 0.929 . S
C680 C678 1.356 . S
C680 C682 1.358 . S
C680 H721 0.930 . S
C681 C679 1.353 . S
C681 N683 1.314 . S
C681 H722 0.930 . S
C682 C680 1.358 . S
C682 N683 1.279 . S
C682 H723 0.930 . S
N683 C681 1.314 . S
N683 C682 1.279 . S
C684 C686 1.353 . S
C684 N687 1.314 . S
C684 H690 0.930 . S
C685 N687 1.279 . S
C685 C688 1.358 . S
C685 H691 0.930 . S
C686 C684 1.353 . S
C686 C689 1.348 . S
C686 H724 0.929 . S
N687 Li642 1.990 . S
N687 C684 1.314 . S
N687 C685 1.279 . S
C688 C685 1.358 . S
C688 C689 1.356 . S
C688 H725 0.930 . S
C689 C686 1.348 . S
C689 C688 1.356 . S
H690 C684 0.930 . S
H691 C685 0.930 . S
C692 N693 1.314 . S
C692 C694 1.353 . S
C692 H698 0.930 . S
N693 Li643 1.990 . S
N693 C692 1.314 . S
N693 C696 1.279 . S
C694 C692 1.353 . S
C694 C697 1.348 . S
C694 H726 0.929 . S
C695 C696 1.358 . S
C695 C697 1.356 . S
C695 H727 0.930 . S
C696 N693 1.279 . S
C696 C695 1.358 . S
C696 H699 0.930 . S
C697 C694 1.348 . S
C697 C695 1.356 . S
H698 C692 0.930 . S
H699 C696 0.930 . S
O700 Li640 1.956 . S
O700 Li641 1.970 . S
O700 Li642 1.961 . S
O700 C644 1.325 . S
O701 Li640 1.970 . S
O701 Li641 1.956 . S
O701 Li643 1.961 . S
O701 C650 1.325 . S
O702 Li640 1.961 . S
O702 Li642 1.956 . S
O702 Li643 1.970 . S
O702 C672 1.325 . S
O703 Li641 1.961 . S
O703 Li642 1.970 . S
O703 Li643 1.956 . S
O703 C678 1.325 . S
H704 C646 0.929 . S
H705 C647 0.930 . S
H706 C648 0.930 . S
H707 C649 0.930 . S
H708 C651 0.930 . S
H709 C653 0.929 . S
H710 C654 0.930 . S
H711 C655 0.930 . S
H712 C658 0.930 . S
H713 C661 0.929 . S
H714 C666 0.929 . S
H715 C667 0.930 . S
H716 C674 0.929 . S
H717 C675 0.930 . S
H718 C676 0.930 . S
H719 C677 0.930 . S
H720 C679 0.929 . S
H721 C680 0.930 . S
H722 C681 0.930 . S
H723 C682 0.930 . S
H724 C686 0.929 . S
H725 C688 0.930 . S
H726 C694 0.929 . S
H727 C695 0.930 . S
Li728 N745 1.990 . S
Li728 O788 1.956 . S
Li728 O789 1.970 . S
Li728 O790 1.961 . S
Li729 N753 1.990 . S
Li729 O788 1.970 . S
Li729 O789 1.956 . S
Li729 O791 1.961 . S
Li730 N775 1.990 . S
Li730 O788 1.961 . S
Li730 O790 1.956 . S
Li730 O791 1.970 . S
Li731 N781 1.990 . S
Li731 O789 1.961 . S
Li731 O790 1.970 . S
Li731 O791 1.956 . S
C732 C734 1.348 . S
C732 C735 1.356 . S
C732 O788 1.325 . S
N733 C736 1.314 . S
N733 C737 1.279 . S
C734 C732 1.348 . S
C734 C736 1.353 . S
C734 H792 0.929 . S
C735 C732 1.356 . S
C735 C737 1.358 . S
C735 H793 0.930 . S
C736 N733 1.314 . S
C736 C734 1.353 . S
C736 H794 0.930 . S
C737 N733 1.279 . S
C737 C735 1.358 . S
C737 H795 0.930 . S
C738 C741 1.348 . S
C738 C742 1.356 . S
C738 O789 1.325 . S
C739 N740 1.279 . S
C739 C742 1.358 . S
C739 H796 0.930 . S
N740 C739 1.279 . S
N740 C743 1.314 . S
C741 C738 1.348 . S
C741 C743 1.353 . S
C741 H797 0.929 . S
C742 C738 1.356 . S
C742 C739 1.358 . S
C742 H798 0.930 . S
C743 N740 1.314 . S
C743 C741 1.353 . S
C743 H799 0.930 . S
C744 N745 1.314 . S
C744 C749 1.353 . S
C744 H750 0.930 . S
N745 Li728 1.990 . S
N745 C744 1.314 . S
N745 C747 1.279 . S
C746 C747 1.358 . S
C746 C748 1.356 . S
C746 H800 0.930 . S
C747 N745 1.279 . S
C747 C746 1.358 . S
C747 H751 0.930 . S
C748 C746 1.356 . S
C748 C749 1.348 . S
C749 C744 1.353 . S
C749 C748 1.348 . S
C749 H801 0.929 . S
H750 C744 0.930 . S
H751 C747 0.930 . S
C752 N753 1.314 . S
C752 C754 1.353 . S
C752 H758 0.930 . S
N753 Li729 1.990 . S
N753 C752 1.314 . S
N753 C756 1.279 . S
C754 C752 1.353 . S
C754 C757 1.348 . S
C754 H802 0.929 . S
C755 C756 1.358 . S
C755 C757 1.356 . S
C755 H803 0.930 . S
C756 N753 1.279 . S
C756 C755 1.358 . S
C756 H759 0.930 . S
C757 C754 1.348 . S
C757 C755 1.356 . S
H758 C752 0.930 . S
H759 C756 0.930 . S
C760 C762 1.348 . S
C760 C763 1.356 . S
C760 O790 1.325 . S
N761 C764 1.314 . S
N761 C765 1.279 . S
C762 C760 1.348 . S
C762 C764 1.353 . S
C762 H804 0.929 . S
C763 C760 1.356 . S
C763 C765 1.358 . S
C763 H805 0.930 . S
C764 N761 1.314 . S
C764 C762 1.353 . S
C764 H806 0.930 . S
C765 N761 1.279 . S
C765 C763 1.358 . S
C765 H807 0.930 . S
C766 C767 1.348 . S
C766 C768 1.356 . S
C766 O791 1.325 . S
C767 C766 1.348 . S
C767 C769 1.353 . S
C767 H808 0.929 . S
C768 C766 1.356 . S
C768 C770 1.358 . S
C768 H809 0.930 . S
C769 C767 1.353 . S
C769 N771 1.314 . S
C769 H810 0.930 . S
C770 C768 1.358 . S
C770 N771 1.279 . S
C770 H811 0.930 . S
N771 C769 1.314 . S
N771 C770 1.279 . S
C772 C774 1.353 . S
C772 N775 1.314 . S
C772 H778 0.930 . S
C773 N775 1.279 . S
C773 C776 1.358 . S
C773 H779 0.930 . S
C774 C772 1.353 . S
C774 C777 1.348 . S
C774 H812 0.929 . S
N775 Li730 1.990 . S
N775 C772 1.314 . S
N775 C773 1.279 . S
C776 C773 1.358 . S
C776 C777 1.356 . S
C776 H813 0.930 . S
C777 C774 1.348 . S
C777 C776 1.356 . S
H778 C772 0.930 . S
H779 C773 0.930 . S
C780 N781 1.314 . S
C780 C782 1.353 . S
C780 H786 0.930 . S
N781 Li731 1.990 . S
N781 C780 1.314 . S
N781 C784 1.279 . S
C782 C780 1.353 . S
C782 C785 1.348 . S
C782 H814 0.929 . S
C783 C784 1.358 . S
C783 C785 1.356 . S
C783 H815 0.930 . S
C784 N781 1.279 . S
C784 C783 1.358 . S
C784 H787 0.930 . S
C785 C782 1.348 . S
C785 C783 1.356 . S
H786 C780 0.930 . S
H787 C784 0.930 . S
O788 Li728 1.956 . S
O788 Li729 1.970 . S
O788 Li730 1.961 . S
O788 C732 1.325 . S
O789 Li728 1.970 . S
O789 Li729 1.956 . S
O789 Li731 1.961 . S
O789 C738 1.325 . S
O790 Li728 1.961 . S
O790 Li730 1.956 . S
O790 Li731 1.970 . S
O790 C760 1.325 . S
O791 Li729 1.961 . S
O791 Li730 1.970 . S
O791 Li731 1.956 . S
O791 C766 1.325 . S
H792 C734 0.929 . S
H793 C735 0.930 . S
H794 C736 0.930 . S
H795 C737 0.930 . S
H796 C739 0.930 . S
H797 C741 0.929 . S
H798 C742 0.930 . S
H799 C743 0.930 . S
H800 C746 0.930 . S
H801 C749 0.929 . S
H802 C754 0.929 . S
H803 C755 0.930 . S
H804 C762 0.929 . S
H805 C763 0.930 . S
H806 C764 0.930 . S
H807 C765 0.930 . S
H808 C767 0.929 . S
H809 C768 0.930 . S
H810 C769 0.930 . S
H811 C770 0.930 . S
H812 C774 0.929 . S
H813 C776 0.930 . S
H814 C782 0.929 . S
H815 C783 0.930 . S
H816 C834 0.951 . S
H817 C836 0.951 . S
H818 C838 0.950 . S
H819 C839 0.950 . S
H820 C841 0.950 . S
H821 C844 0.950 . S
H822 C845 0.950 . S
H823 C847 0.950 . S
H824 C848 0.950 . S
H825 C849 0.951 . S
H826 C851 0.951 . S
H827 C853 0.950 . S
H828 C854 0.950 . S
H829 C856 0.950 . S
H830 C859 0.950 . S
H831 C860 0.950 . S
H832 C862 0.950 . S
H833 C863 0.950 . S
C834 H816 0.951 . S
C834 C835 1.366 . S
C834 C836 1.388 . S
C835 C834 1.366 . S
C835 C839 1.385 . S
C836 H817 0.951 . S
C836 C834 1.388 . S
C836 C837 1.366 . S
C837 C836 1.366 . S
C837 C838 1.414 . S
C837 C840 1.499 . S
C838 H818 0.950 . S
C838 C837 1.414 . S
C838 C839 1.374 . S
C839 H819 0.950 . S
C839 C835 1.385 . S
C839 C838 1.374 . S
C840 C837 1.499 . S
C840 C841 1.373 . S
C840 C842 1.389 . S
C841 H820 0.950 . S
C841 C840 1.373 . S
C841 C857 1.377 . S
C842 C840 1.389 . S
C842 C843 1.524 . S
C842 C856 1.377 . S
C843 C842 1.524 . S
C843 C844 1.397 . S
C843 C848 1.363 . S
C844 H821 0.950 . S
C844 C843 1.397 . S
C844 C845 1.334 . S
C845 H822 0.950 . S
C845 C844 1.334 . S
C845 C846 1.287 . S
C846 C845 1.287 . S
C846 C847 1.524 . S
C846 H865 0.913 . S
C847 H823 0.950 . S
C847 C846 1.524 . S
C847 C848 1.415 . S
C848 H824 0.950 . S
C848 C843 1.363 . S
C848 C847 1.415 . S
C849 H825 0.951 . S
C849 C850 1.366 . S
C849 C851 1.388 . S
C850 C849 1.366 . S
C850 C854 1.385 . S
C851 H826 0.951 . S
C851 C849 1.388 . S
C851 C852 1.366 . S
C852 C851 1.366 . S
C852 C853 1.414 . S
C852 C855 1.499 . S
C853 H827 0.950 . S
C853 C852 1.414 . S
C853 C854 1.374 . S
C854 H828 0.950 . S
C854 C850 1.385 . S
C854 C853 1.374 . S
C855 C852 1.499 . S
C855 C856 1.373 . S
C855 C857 1.389 . S
C856 H829 0.950 . S
C856 C842 1.377 . S
C856 C855 1.373 . S
C857 C841 1.377 . S
C857 C855 1.389 . S
C857 C858 1.524 . S
C858 C857 1.524 . S
C858 C859 1.397 . S
C858 C863 1.363 . S
C859 H830 0.950 . S
C859 C858 1.397 . S
C859 C860 1.334 . S
C860 H831 0.950 . S
C860 C859 1.334 . S
C860 C861 1.287 . S
C861 C860 1.287 . S
C861 C862 1.524 . S
C861 H864 0.999 . S
C862 H832 0.950 . S
C862 C861 1.524 . S
C862 C863 1.415 . S
C863 H833 0.950 . S
C863 C858 1.363 . S
C863 C862 1.415 . S
H864 C861 0.999 . S
H865 C846 0.913 . S
H866 C884 0.951 . S
H867 C886 0.951 . S
H868 C888 0.950 . S
H869 C889 0.950 . S
H870 C891 0.950 . S
H871 C894 0.950 . S
H872 C895 0.950 . S
H873 C897 0.950 . S
H874 C898 0.950 . S
H875 C899 0.951 . S
H876 C901 0.951 . S
H877 C903 0.950 . S
H878 C904 0.950 . S
H879 C906 0.950 . S
H880 C909 0.950 . S
H881 C910 0.950 . S
H882 C912 0.950 . S
H883 C913 0.950 . S
C884 H866 0.951 . S
C884 C885 1.366 . S
C884 C886 1.388 . S
C885 C884 1.366 . S
C885 C889 1.385 . S
C886 H867 0.951 . S
C886 C884 1.388 . S
C886 C887 1.366 . S
C887 C886 1.366 . S
C887 C888 1.414 . S
C887 C890 1.499 . S
C888 H868 0.950 . S
C888 C887 1.414 . S
C888 C889 1.374 . S
C889 H869 0.950 . S
C889 C885 1.385 . S
C889 C888 1.374 . S
C890 C887 1.499 . S
C890 C891 1.373 . S
C890 C892 1.389 . S
C891 H870 0.950 . S
C891 C890 1.373 . S
C891 C907 1.377 . S
C892 C890 1.389 . S
C892 C893 1.524 . S
C892 C906 1.377 . S
C893 C892 1.524 . S
C893 C894 1.397 . S
C893 C898 1.363 . S
C894 H871 0.950 . S
C894 C893 1.397 . S
C894 C895 1.334 . S
C895 H872 0.950 . S
C895 C894 1.334 . S
C895 C896 1.287 . S
C896 C895 1.287 . S
C896 C897 1.524 . S
C896 H915 0.913 . S
C897 H873 0.950 . S
C897 C896 1.524 . S
C897 C898 1.415 . S
C898 H874 0.950 . S
C898 C893 1.363 . S
C898 C897 1.415 . S
C899 H875 0.951 . S
C899 C900 1.366 . S
C899 C901 1.388 . S
C900 C899 1.366 . S
C900 C904 1.385 . S
C901 H876 0.951 . S
C901 C899 1.388 . S
C901 C902 1.366 . S
C902 C901 1.366 . S
C902 C903 1.414 . S
C902 C905 1.499 . S
C903 H877 0.950 . S
C903 C902 1.414 . S
C903 C904 1.374 . S
C904 H878 0.950 . S
C904 C900 1.385 . S
C904 C903 1.374 . S
C905 C902 1.499 . S
C905 C906 1.373 . S
C905 C907 1.389 . S
C906 H879 0.950 . S
C906 C892 1.377 . S
C906 C905 1.373 . S
C907 C891 1.377 . S
C907 C905 1.389 . S
C907 C908 1.524 . S
C908 C907 1.524 . S
C908 C909 1.397 . S
C908 C913 1.363 . S
C909 H880 0.950 . S
C909 C908 1.397 . S
C909 C910 1.334 . S
C910 H881 0.950 . S
C910 C909 1.334 . S
C910 C911 1.287 . S
C911 C910 1.287 . S
C911 C912 1.524 . S
C911 H914 0.999 . S
C912 H882 0.950 . S
C912 C911 1.524 . S
C912 C913 1.415 . S
C913 H883 0.950 . S
C913 C908 1.363 . S
C913 C912 1.415 . S
H914 C911 0.999 . S
H915 C896 0.913 . S
H916 C934 0.951 . S
H917 C936 0.951 . S
H918 C938 0.950 . S
H919 C939 0.950 . S
H920 C941 0.950 . S
H921 C944 0.950 . S
H922 C945 0.950 . S
H923 C947 0.950 . S
H924 C948 0.950 . S
H925 C949 0.951 . S
H926 C951 0.951 . S
H927 C953 0.950 . S
H928 C954 0.950 . S
H929 C956 0.950 . S
H930 C959 0.950 . S
H931 C960 0.950 . S
H932 C962 0.950 . S
H933 C963 0.950 . S
C934 H916 0.951 . S
C934 C935 1.366 . S
C934 C936 1.388 . S
C935 C934 1.366 . S
C935 C939 1.385 . S
C936 H917 0.951 . S
C936 C934 1.388 . S
C936 C937 1.366 . S
C937 C936 1.366 . S
C937 C938 1.414 . S
C937 C940 1.499 . S
C938 H918 0.950 . S
C938 C937 1.414 . S
C938 C939 1.374 . S
C939 H919 0.950 . S
C939 C935 1.385 . S
C939 C938 1.374 . S
C940 C937 1.499 . S
C940 C941 1.373 . S
C940 C942 1.389 . S
C941 H920 0.950 . S
C941 C940 1.373 . S
C941 C957 1.377 . S
C942 C940 1.389 . S
C942 C943 1.524 . S
C942 C956 1.377 . S
C943 C942 1.524 . S
C943 C944 1.397 . S
C943 C948 1.363 . S
C944 H921 0.950 . S
C944 C943 1.397 . S
C944 C945 1.334 . S
C945 H922 0.950 . S
C945 C944 1.334 . S
C945 C946 1.287 . S
C946 C945 1.287 . S
C946 C947 1.524 . S
C946 H965 0.913 . S
C947 H923 0.950 . S
C947 C946 1.524 . S
C947 C948 1.415 . S
C948 H924 0.950 . S
C948 C943 1.363 . S
C948 C947 1.415 . S
C949 H925 0.951 . S
C949 C950 1.366 . S
C949 C951 1.388 . S
C950 C949 1.366 . S
C950 C954 1.385 . S
C951 H926 0.951 . S
C951 C949 1.388 . S
C951 C952 1.366 . S
C952 C951 1.366 . S
C952 C953 1.414 . S
C952 C955 1.499 . S
C953 H927 0.950 . S
C953 C952 1.414 . S
C953 C954 1.374 . S
C954 H928 0.950 . S
C954 C950 1.385 . S
C954 C953 1.374 . S
C955 C952 1.499 . S
C955 C956 1.373 . S
C955 C957 1.389 . S
C956 H929 0.950 . S
C956 C942 1.377 . S
C956 C955 1.373 . S
C957 C941 1.377 . S
C957 C955 1.389 . S
C957 C958 1.524 . S
C958 C957 1.524 . S
C958 C959 1.397 . S
C958 C963 1.363 . S
C959 H930 0.950 . S
C959 C958 1.397 . S
C959 C960 1.334 . S
C960 H931 0.950 . S
C960 C959 1.334 . S
C960 C961 1.287 . S
C961 C960 1.287 . S
C961 C962 1.524 . S
C961 H964 0.999 . S
C962 H932 0.950 . S
C962 C961 1.524 . S
C962 C963 1.415 . S
C963 H933 0.950 . S
C963 C958 1.363 . S
C963 C962 1.415 . S
H964 C961 0.999 . S
H965 C946 0.913 . S
H966 C984 0.951 . S
H967 C986 0.951 . S
H968 C988 0.950 . S
H969 C989 0.950 . S
H970 C991 0.950 . S
H971 C994 0.950 . S
H972 C995 0.950 . S
H973 C997 0.950 . S
H974 C998 0.950 . S
H975 C999 0.951 . S
H976 C1001 0.951 . S
H977 C1003 0.950 . S
H978 C1004 0.950 . S
H979 C1006 0.950 . S
H980 C1009 0.950 . S
H981 C1010 0.950 . S
H982 C1012 0.950 . S
H983 C1013 0.950 . S
C984 H966 0.951 . S
C984 C985 1.366 . S
C984 C986 1.388 . S
C985 C984 1.366 . S
C985 C989 1.385 . S
C986 H967 0.951 . S
C986 C984 1.388 . S
C986 C987 1.366 . S
C987 C986 1.366 . S
C987 C988 1.414 . S
C987 C990 1.499 . S
C988 H968 0.950 . S
C988 C987 1.414 . S
C988 C989 1.374 . S
C989 H969 0.950 . S
C989 C985 1.385 . S
C989 C988 1.374 . S
C990 C987 1.499 . S
C990 C991 1.373 . S
C990 C992 1.389 . S
C991 H970 0.950 . S
C991 C990 1.373 . S
C991 C1007 1.377 . S
C992 C990 1.389 . S
C992 C993 1.524 . S
C992 C1006 1.377 . S
C993 C992 1.524 . S
C993 C994 1.397 . S
C993 C998 1.363 . S
C994 H971 0.950 . S
C994 C993 1.397 . S
C994 C995 1.334 . S
C995 H972 0.950 . S
C995 C994 1.334 . S
C995 C996 1.287 . S
C996 C995 1.287 . S
C996 C997 1.524 . S
C996 H1015 0.913 . S
C997 H973 0.950 . S
C997 C996 1.524 . S
C997 C998 1.415 . S
C998 H974 0.950 . S
C998 C993 1.363 . S
C998 C997 1.415 . S
C999 H975 0.951 . S
C999 C1000 1.366 . S
C999 C1001 1.388 . S
C1000 C999 1.366 . S
C1000 C1004 1.385 . S
C1001 H976 0.951 . S
C1001 C999 1.388 . S
C1001 C1002 1.366 . S
C1002 C1001 1.366 . S
C1002 C1003 1.414 . S
C1002 C1005 1.499 . S
C1003 H977 0.950 . S
C1003 C1002 1.414 . S
C1003 C1004 1.374 . S
C1004 H978 0.950 . S
C1004 C1000 1.385 . S
C1004 C1003 1.374 . S
C1005 C1002 1.499 . S
C1005 C1006 1.373 . S
C1005 C1007 1.389 . S
C1006 H979 0.950 . S
C1006 C992 1.377 . S
C1006 C1005 1.373 . S
C1007 C991 1.377 . S
C1007 C1005 1.389 . S
C1007 C1008 1.524 . S
C1008 C1007 1.524 . S
C1008 C1009 1.397 . S
C1008 C1013 1.363 . S
C1009 H980 0.950 . S
C1009 C1008 1.397 . S
C1009 C1010 1.334 . S
C1010 H981 0.950 . S
C1010 C1009 1.334 . S
C1010 C1011 1.287 . S
C1011 C1010 1.287 . S
C1011 C1012 1.524 . S
C1011 H1014 0.999 . S
C1012 H982 0.950 . S
C1012 C1011 1.524 . S
C1012 C1013 1.415 . S
C1013 H983 0.950 . S
C1013 C1008 1.363 . S
C1013 C1012 1.415 . S
H1014 C1011 0.999 . S
H1015 C996 0.913 . S
H1016 C1034 0.951 . S
H1017 C1036 0.951 . S
H1018 C1038 0.950 . S
H1019 C1039 0.950 . S
H1020 C1041 0.950 . S
H1021 C1044 0.950 . S
H1022 C1045 0.950 . S
H1023 C1047 0.950 . S
H1024 C1048 0.950 . S
H1025 C1049 0.951 . S
H1026 C1051 0.951 . S
H1027 C1053 0.950 . S
H1028 C1054 0.950 . S
H1029 C1056 0.950 . S
H1030 C1059 0.950 . S
H1031 C1060 0.950 . S
H1032 C1062 0.950 . S
H1033 C1063 0.950 . S
C1034 H1016 0.951 . S
C1034 C1035 1.366 . S
C1034 C1036 1.388 . S
C1035 C1034 1.366 . S
C1035 C1039 1.385 . S
C1036 H1017 0.951 . S
C1036 C1034 1.388 . S
C1036 C1037 1.366 . S
C1037 C1036 1.366 . S
C1037 C1038 1.414 . S
C1037 C1040 1.499 . S
C1038 H1018 0.950 . S
C1038 C1037 1.414 . S
C1038 C1039 1.374 . S
C1039 H1019 0.950 . S
C1039 C1035 1.385 . S
C1039 C1038 1.374 . S
C1040 C1037 1.499 . S
C1040 C1041 1.373 . S
C1040 C1042 1.389 . S
C1041 H1020 0.950 . S
C1041 C1040 1.373 . S
C1041 C1057 1.377 . S
C1042 C1040 1.389 . S
C1042 C1043 1.524 . S
C1042 C1056 1.377 . S
C1043 C1042 1.524 . S
C1043 C1044 1.397 . S
C1043 C1048 1.363 . S
C1044 H1021 0.950 . S
C1044 C1043 1.397 . S
C1044 C1045 1.334 . S
C1045 H1022 0.950 . S
C1045 C1044 1.334 . S
C1045 C1046 1.287 . S
C1046 C1045 1.287 . S
C1046 C1047 1.524 . S
C1046 H1065 0.913 . S
C1047 H1023 0.950 . S
C1047 C1046 1.524 . S
C1047 C1048 1.415 . S
C1048 H1024 0.950 . S
C1048 C1043 1.363 . S
C1048 C1047 1.415 . S
C1049 H1025 0.951 . S
C1049 C1050 1.366 . S
C1049 C1051 1.388 . S
C1050 C1049 1.366 . S
C1050 C1054 1.385 . S
C1051 H1026 0.951 . S
C1051 C1049 1.388 . S
C1051 C1052 1.366 . S
C1052 C1051 1.366 . S
C1052 C1053 1.414 . S
C1052 C1055 1.499 . S
C1053 H1027 0.950 . S
C1053 C1052 1.414 . S
C1053 C1054 1.374 . S
C1054 H1028 0.950 . S
C1054 C1050 1.385 . S
C1054 C1053 1.374 . S
C1055 C1052 1.499 . S
C1055 C1056 1.373 . S
C1055 C1057 1.389 . S
C1056 H1029 0.950 . S
C1056 C1042 1.377 . S
C1056 C1055 1.373 . S
C1057 C1041 1.377 . S
C1057 C1055 1.389 . S
C1057 C1058 1.524 . S
C1058 C1057 1.524 . S
C1058 C1059 1.397 . S
C1058 C1063 1.363 . S
C1059 H1030 0.950 . S
C1059 C1058 1.397 . S
C1059 C1060 1.334 . S
C1060 H1031 0.950 . S
C1060 C1059 1.334 . S
C1060 C1061 1.287 . S
C1061 C1060 1.287 . S
C1061 C1062 1.524 . S
C1061 H1064 0.999 1_556 S
C1062 H1032 0.950 . S
C1062 C1061 1.524 . S
C1062 C1063 1.415 . S
C1063 H1033 0.950 . S
C1063 C1058 1.363 . S
C1063 C1062 1.415 . S
H1064 C1061 0.999 1_554 S
H1065 C1046 0.913 . S
H1066 C1084 0.951 . S
H1067 C1086 0.951 . S
H1068 C1088 0.950 . S
H1069 C1089 0.950 . S
H1070 C1091 0.950 . S
H1071 C1094 0.950 . S
H1072 C1095 0.950 . S
H1073 C1097 0.950 . S
H1074 C1098 0.950 . S
H1075 C1099 0.951 . S
H1076 C1101 0.951 . S
H1077 C1103 0.950 . S
H1078 C1104 0.950 . S
H1079 C1106 0.950 . S
H1080 C1109 0.950 . S
H1081 C1110 0.950 . S
H1082 C1112 0.950 . S
H1083 C1113 0.950 . S
C1084 H1066 0.951 . S
C1084 C1085 1.366 . S
C1084 C1086 1.388 . S
C1085 C1084 1.366 . S
C1085 C1089 1.385 . S
C1086 H1067 0.951 . S
C1086 C1084 1.388 . S
C1086 C1087 1.366 . S
C1087 C1086 1.366 . S
C1087 C1088 1.414 . S
C1087 C1090 1.499 . S
C1088 H1068 0.950 . S
C1088 C1087 1.414 . S
C1088 C1089 1.374 . S
C1089 H1069 0.950 . S
C1089 C1085 1.385 . S
C1089 C1088 1.374 . S
C1090 C1087 1.499 . S
C1090 C1091 1.373 . S
C1090 C1092 1.389 . S
C1091 H1070 0.950 . S
C1091 C1090 1.373 . S
C1091 C1107 1.377 . S
C1092 C1090 1.389 . S
C1092 C1093 1.524 . S
C1092 C1106 1.377 . S
C1093 C1092 1.524 . S
C1093 C1094 1.397 . S
C1093 C1098 1.363 . S
C1094 H1071 0.950 . S
C1094 C1093 1.397 . S
C1094 C1095 1.334 . S
C1095 H1072 0.950 . S
C1095 C1094 1.334 . S
C1095 C1096 1.287 . S
C1096 C1095 1.287 . S
C1096 C1097 1.524 . S
C1096 H1115 0.913 . S
C1097 H1073 0.950 . S
C1097 C1096 1.524 . S
C1097 C1098 1.415 . S
C1098 H1074 0.950 . S
C1098 C1093 1.363 . S
C1098 C1097 1.415 . S
C1099 H1075 0.951 . S
C1099 C1100 1.366 . S
C1099 C1101 1.388 . S
C1100 C1099 1.366 . S
C1100 C1104 1.385 . S
C1101 H1076 0.951 . S
C1101 C1099 1.388 . S
C1101 C1102 1.366 . S
C1102 C1101 1.366 . S
C1102 C1103 1.414 . S
C1102 C1105 1.499 . S
C1103 H1077 0.950 . S
C1103 C1102 1.414 . S
C1103 C1104 1.374 . S
C1104 H1078 0.950 . S
C1104 C1100 1.385 . S
C1104 C1103 1.374 . S
C1105 C1102 1.499 . S
C1105 C1106 1.373 . S
C1105 C1107 1.389 . S
C1106 H1079 0.950 . S
C1106 C1092 1.377 . S
C1106 C1105 1.373 . S
C1107 C1091 1.377 . S
C1107 C1105 1.389 . S
C1107 C1108 1.524 . S
C1108 C1107 1.524 . S
C1108 C1109 1.397 . S
C1108 C1113 1.363 . S
C1109 H1080 0.950 . S
C1109 C1108 1.397 . S
C1109 C1110 1.334 . S
C1110 H1081 0.950 . S
C1110 C1109 1.334 . S
C1110 C1111 1.287 . S
C1111 C1110 1.287 . S
C1111 C1112 1.524 . S
C1111 H1114 0.999 . S
C1112 H1082 0.950 . S
C1112 C1111 1.524 . S
C1112 C1113 1.415 . S
C1113 H1083 0.950 . S
C1113 C1108 1.363 . S
C1113 C1112 1.415 . S
H1114 C1111 0.999 . S
H1115 C1096 0.913 . S
H1116 C1134 0.951 . S
H1117 C1136 0.951 . S
H1118 C1138 0.950 . S
H1119 C1139 0.950 . S
H1120 C1141 0.950 . S
H1121 C1144 0.950 . S
H1122 C1145 0.950 . S
H1123 C1147 0.950 . S
H1124 C1148 0.950 . S
H1125 C1149 0.951 . S
H1126 C1151 0.951 . S
H1127 C1153 0.950 . S
H1128 C1154 0.950 . S
H1129 C1156 0.950 . S
H1130 C1159 0.950 . S
H1131 C1160 0.950 . S
H1132 C1162 0.950 . S
H1133 C1163 0.950 . S
C1134 H1116 0.951 . S
C1134 C1135 1.366 . S
C1134 C1136 1.388 . S
C1135 C1134 1.366 . S
C1135 C1139 1.385 . S
C1136 H1117 0.951 . S
C1136 C1134 1.388 . S
C1136 C1137 1.366 . S
C1137 C1136 1.366 . S
C1137 C1138 1.414 . S
C1137 C1140 1.499 . S
C1138 H1118 0.950 . S
C1138 C1137 1.414 . S
C1138 C1139 1.374 . S
C1139 H1119 0.950 . S
C1139 C1135 1.385 . S
C1139 C1138 1.374 . S
C1140 C1137 1.499 . S
C1140 C1141 1.373 . S
C1140 C1142 1.389 . S
C1141 H1120 0.950 . S
C1141 C1140 1.373 . S
C1141 C1157 1.377 . S
C1142 C1140 1.389 . S
C1142 C1143 1.524 . S
C1142 C1156 1.377 . S
C1143 C1142 1.524 . S
C1143 C1144 1.397 . S
C1143 C1148 1.363 . S
C1144 H1121 0.950 . S
C1144 C1143 1.397 . S
C1144 C1145 1.334 . S
C1145 H1122 0.950 . S
C1145 C1144 1.334 . S
C1145 C1146 1.287 . S
C1146 C1145 1.287 . S
C1146 C1147 1.524 . S
C1146 H1165 0.913 . S
C1147 H1123 0.950 . S
C1147 C1146 1.524 . S
C1147 C1148 1.415 . S
C1148 H1124 0.950 . S
C1148 C1143 1.363 . S
C1148 C1147 1.415 . S
C1149 H1125 0.951 . S
C1149 C1150 1.366 . S
C1149 C1151 1.388 . S
C1150 C1149 1.366 . S
C1150 C1154 1.385 . S
C1151 H1126 0.951 . S
C1151 C1149 1.388 . S
C1151 C1152 1.366 . S
C1152 C1151 1.366 . S
C1152 C1153 1.414 . S
C1152 C1155 1.499 . S
C1153 H1127 0.950 . S
C1153 C1152 1.414 . S
C1153 C1154 1.374 . S
C1154 H1128 0.950 . S
C1154 C1150 1.385 . S
C1154 C1153 1.374 . S
C1155 C1152 1.499 . S
C1155 C1156 1.373 . S
C1155 C1157 1.389 . S
C1156 H1129 0.950 . S
C1156 C1142 1.377 . S
C1156 C1155 1.373 . S
C1157 C1141 1.377 . S
C1157 C1155 1.389 . S
C1157 C1158 1.524 . S
C1158 C1157 1.524 . S
C1158 C1159 1.397 . S
C1158 C1163 1.363 . S
C1159 H1130 0.950 . S
C1159 C1158 1.397 . S
C1159 C1160 1.334 . S
C1160 H1131 0.950 . S
C1160 C1159 1.334 . S
C1160 C1161 1.287 . S
C1161 C1160 1.287 . S
C1161 C1162 1.524 . S
C1161 H1164 0.999 . S
C1162 H1132 0.950 . S
C1162 C1161 1.524 . S
C1162 C1163 1.415 . S
C1163 H1133 0.950 . S
C1163 C1158 1.363 . S
C1163 C1162 1.415 . S
H1164 C1161 0.999 . S
H1165 C1146 0.913 . S
H1166 C1184 0.951 . S
H1167 C1186 0.951 . S
H1168 C1188 0.950 . S
H1169 C1189 0.950 . S
H1170 C1191 0.950 . S
H1171 C1194 0.950 . S
H1172 C1195 0.950 . S
H1173 C1197 0.950 . S
H1174 C1198 0.950 . S
H1175 C1199 0.951 . S
H1176 C1201 0.951 . S
H1177 C1203 0.950 . S
H1178 C1204 0.950 . S
H1179 C1206 0.950 . S
H1180 C1209 0.950 . S
H1181 C1210 0.950 . S
H1182 C1212 0.950 . S
H1183 C1213 0.950 . S
C1184 H1166 0.951 . S
C1184 C1185 1.366 . S
C1184 C1186 1.388 . S
C1185 C1184 1.366 . S
C1185 C1189 1.385 . S
C1186 H1167 0.951 . S
C1186 C1184 1.388 . S
C1186 C1187 1.366 . S
C1187 C1186 1.366 . S
C1187 C1188 1.414 . S
C1187 C1190 1.499 . S
C1188 H1168 0.950 . S
C1188 C1187 1.414 . S
C1188 C1189 1.374 . S
C1189 H1169 0.950 . S
C1189 C1185 1.385 . S
C1189 C1188 1.374 . S
C1190 C1187 1.499 . S
C1190 C1191 1.373 . S
C1190 C1192 1.389 . S
C1191 H1170 0.950 . S
C1191 C1190 1.373 . S
C1191 C1207 1.377 . S
C1192 C1190 1.389 . S
C1192 C1193 1.524 . S
C1192 C1206 1.377 . S
C1193 C1192 1.524 . S
C1193 C1194 1.397 . S
C1193 C1198 1.363 . S
C1194 H1171 0.950 . S
C1194 C1193 1.397 . S
C1194 C1195 1.334 . S
C1195 H1172 0.950 . S
C1195 C1194 1.334 . S
C1195 C1196 1.287 . S
C1196 C1195 1.287 . S
C1196 C1197 1.524 . S
C1196 H1215 0.913 . S
C1197 H1173 0.950 . S
C1197 C1196 1.524 . S
C1197 C1198 1.415 . S
C1198 H1174 0.950 . S
C1198 C1193 1.363 . S
C1198 C1197 1.415 . S
C1199 H1175 0.951 . S
C1199 C1200 1.366 . S
C1199 C1201 1.388 . S
C1200 C1199 1.366 . S
C1200 C1204 1.385 . S
C1201 H1176 0.951 . S
C1201 C1199 1.388 . S
C1201 C1202 1.366 . S
C1202 C1201 1.366 . S
C1202 C1203 1.414 . S
C1202 C1205 1.499 . S
C1203 H1177 0.950 . S
C1203 C1202 1.414 . S
C1203 C1204 1.374 . S
C1204 H1178 0.950 . S
C1204 C1200 1.385 . S
C1204 C1203 1.374 . S
C1205 C1202 1.499 . S
C1205 C1206 1.373 . S
C1205 C1207 1.389 . S
C1206 H1179 0.950 . S
C1206 C1192 1.377 . S
C1206 C1205 1.373 . S
C1207 C1191 1.377 . S
C1207 C1205 1.389 . S
C1207 C1208 1.524 . S
C1208 C1207 1.524 . S
C1208 C1209 1.397 . S
C1208 C1213 1.363 . S
C1209 H1180 0.950 . S
C1209 C1208 1.397 . S
C1209 C1210 1.334 . S
C1210 H1181 0.950 . S
C1210 C1209 1.334 . S
C1210 C1211 1.287 . S
C1211 C1210 1.287 . S
C1211 C1212 1.524 . S
C1211 H1214 0.999 . S
C1212 H1182 0.950 . S
C1212 C1211 1.524 . S
C1212 C1213 1.415 . S
C1213 H1183 0.950 . S
C1213 C1208 1.363 . S
C1213 C1212 1.415 . S
H1214 C1211 0.999 . S
H1215 C1196 0.913 . S
H1216 C1234 0.951 . S
H1217 C1236 0.951 . S
H1218 C1238 0.950 . S
H1219 C1239 0.950 . S
H1220 C1241 0.950 . S
H1221 C1244 0.950 . S
H1222 C1245 0.950 . S
H1223 C1247 0.950 . S
H1224 C1248 0.950 . S
H1225 C1249 0.951 . S
H1226 C1251 0.951 . S
H1227 C1253 0.950 . S
H1228 C1254 0.950 . S
H1229 C1256 0.950 . S
H1230 C1259 0.950 . S
H1231 C1260 0.950 . S
H1232 C1262 0.950 . S
H1233 C1263 0.950 . S
C1234 H1216 0.951 . S
C1234 C1235 1.366 . S
C1234 C1236 1.388 . S
C1235 C1234 1.366 . S
C1235 C1239 1.385 . S
C1236 H1217 0.951 . S
C1236 C1234 1.388 . S
C1236 C1237 1.366 . S
C1237 C1236 1.366 . S
C1237 C1238 1.414 . S
C1237 C1240 1.499 . S
C1238 H1218 0.950 . S
C1238 C1237 1.414 . S
C1238 C1239 1.374 . S
C1239 H1219 0.950 . S
C1239 C1235 1.385 . S
C1239 C1238 1.374 . S
C1240 C1237 1.499 . S
C1240 C1241 1.373 . S
C1240 C1242 1.389 . S
C1241 H1220 0.950 . S
C1241 C1240 1.373 . S
C1241 C1257 1.377 . S
C1242 C1240 1.389 . S
C1242 C1243 1.524 . S
C1242 C1256 1.377 . S
C1243 C1242 1.524 . S
C1243 C1244 1.397 . S
C1243 C1248 1.363 . S
C1244 H1221 0.950 . S
C1244 C1243 1.397 . S
C1244 C1245 1.334 . S
C1245 H1222 0.950 . S
C1245 C1244 1.334 . S
C1245 C1246 1.287 . S
C1246 C1245 1.287 . S
C1246 C1247 1.524 . S
C1246 H1265 0.913 . S
C1247 H1223 0.950 . S
C1247 C1246 1.524 . S
C1247 C1248 1.415 . S
C1248 H1224 0.950 . S
C1248 C1243 1.363 . S
C1248 C1247 1.415 . S
C1249 H1225 0.951 . S
C1249 C1250 1.366 . S
C1249 C1251 1.388 . S
C1250 C1249 1.366 . S
C1250 C1254 1.385 . S
C1251 H1226 0.951 . S
C1251 C1249 1.388 . S
C1251 C1252 1.366 . S
C1252 C1251 1.366 . S
C1252 C1253 1.414 . S
C1252 C1255 1.499 . S
C1253 H1227 0.950 . S
C1253 C1252 1.414 . S
C1253 C1254 1.374 . S
C1254 H1228 0.950 . S
C1254 C1250 1.385 . S
C1254 C1253 1.374 . S
C1255 C1252 1.499 . S
C1255 C1256 1.373 . S
C1255 C1257 1.389 . S
C1256 H1229 0.950 . S
C1256 C1242 1.377 . S
C1256 C1255 1.373 . S
C1257 C1241 1.377 . S
C1257 C1255 1.389 . S
C1257 C1258 1.524 . S
C1258 C1257 1.524 . S
C1258 C1259 1.397 . S
C1258 C1263 1.363 . S
C1259 H1230 0.950 . S
C1259 C1258 1.397 . S
C1259 C1260 1.334 . S
C1260 H1231 0.950 . S
C1260 C1259 1.334 . S
C1260 C1261 1.287 . S
C1261 C1260 1.287 . S
C1261 C1262 1.524 . S
C1261 H1264 0.999 . S
C1262 H1232 0.950 . S
C1262 C1261 1.524 . S
C1262 C1263 1.415 . S
C1263 H1233 0.950 . S
C1263 C1258 1.363 . S
C1263 C1262 1.415 . S
H1264 C1261 0.999 . S
H1265 C1246 0.913 . S
H1266 C1284 0.951 . S
H1267 C1286 0.951 . S
H1268 C1288 0.950 . S
H1269 C1289 0.950 . S
H1270 C1291 0.950 . S
H1271 C1294 0.950 . S
H1272 C1295 0.950 . S
H1273 C1297 0.950 . S
H1274 C1298 0.950 . S
H1275 C1299 0.951 . S
H1276 C1301 0.951 . S
H1277 C1303 0.950 . S
H1278 C1304 0.950 . S
H1279 C1306 0.950 . S
H1280 C1309 0.950 . S
H1281 C1310 0.950 . S
H1282 C1312 0.950 . S
H1283 C1313 0.953 . S
C1284 H1266 0.951 . S
C1284 C1285 1.366 . S
C1284 C1286 1.388 . S
C1285 C1284 1.366 . S
C1285 C1289 1.385 . S
C1286 H1267 0.951 . S
C1286 C1284 1.388 . S
C1286 C1287 1.366 . S
C1287 C1286 1.366 . S
C1287 C1288 1.414 . S
C1287 C1290 1.499 . S
C1288 H1268 0.950 . S
C1288 C1287 1.414 . S
C1288 C1289 1.374 . S
C1289 H1269 0.950 . S
C1289 C1285 1.385 . S
C1289 C1288 1.374 . S
C1290 C1287 1.499 . S
C1290 C1291 1.373 . S
C1290 C1292 1.389 . S
C1291 H1270 0.950 . S
C1291 C1290 1.373 . S
C1291 C1307 1.377 . S
C1292 C1290 1.389 . S
C1292 C1293 1.524 . S
C1292 C1306 1.377 . S
C1293 C1292 1.524 . S
C1293 C1294 1.397 . S
C1293 C1298 1.363 . S
C1294 H1271 0.950 . S
C1294 C1293 1.397 . S
C1294 C1295 1.334 . S
C1295 H1272 0.950 . S
C1295 C1294 1.334 . S
C1295 C1296 1.287 . S
C1296 C1295 1.287 . S
C1296 C1297 1.524 . S
C1296 H1315 0.913 . S
C1297 H1273 0.950 . S
C1297 C1296 1.524 . S
C1297 C1298 1.415 . S
C1298 H1274 0.950 . S
C1298 C1293 1.363 . S
C1298 C1297 1.415 . S
C1299 H1275 0.951 . S
C1299 C1300 1.366 . S
C1299 C1301 1.388 . S
C1300 C1299 1.366 . S
C1300 C1304 1.385 . S
C1301 H1276 0.951 . S
C1301 C1299 1.388 . S
C1301 C1302 1.366 . S
C1302 C1301 1.366 . S
C1302 C1303 1.414 . S
C1302 C1305 1.499 . S
C1303 H1277 0.950 . S
C1303 C1302 1.414 . S
C1303 C1304 1.374 . S
C1304 H1278 0.950 . S
C1304 C1300 1.385 . S
C1304 C1303 1.374 . S
C1305 C1302 1.499 . S
C1305 C1306 1.373 . S
C1305 C1307 1.389 . S
C1306 H1279 0.950 . S
C1306 C1292 1.377 . S
C1306 C1305 1.373 . S
C1307 C1291 1.377 . S
C1307 C1305 1.389 . S
C1307 C1308 1.524 . S
C1308 C1307 1.524 . S
C1308 C1309 1.397 . S
C1308 C1313 1.363 . S
C1309 H1280 0.950 . S
C1309 C1308 1.397 . S
C1309 C1310 1.334 . S
C1310 H1281 0.950 . S
C1310 C1309 1.334 . S
C1310 C1311 1.287 1_554 S
C1311 C1310 1.287 1_556 S
C1311 C1312 1.524 . S
C1311 H1314 0.999 . S
C1312 H1282 0.950 . S
C1312 C1311 1.524 . S
C1312 C1313 1.415 1_556 S
C1313 H1283 0.953 . S
C1313 C1308 1.363 . S
C1313 C1312 1.415 1_554 S
H1314 C1311 0.999 . S
H1315 C1296 0.913 . S
H1316 C1334 0.951 . S
H1317 C1336 0.951 . S
H1318 C1338 0.950 . S
H1319 C1339 0.950 . S
H1320 C1341 0.950 . S
H1321 C1344 0.950 . S
H1322 C1345 0.950 . S
H1323 C1347 0.950 . S
H1324 C1348 0.950 . S
H1325 C1349 0.951 . S
H1326 C1351 0.951 . S
H1327 C1353 0.950 . S
H1328 C1354 0.950 . S
H1329 C1356 0.950 . S
H1330 C1359 0.950 . S
H1331 C1360 0.950 . S
H1332 C1362 0.950 . S
H1333 C1363 0.950 . S
C1334 H1316 0.951 . S
C1334 C1335 1.366 . S
C1334 C1336 1.388 . S
C1335 C1334 1.366 . S
C1335 C1339 1.385 . S
C1336 H1317 0.951 . S
C1336 C1334 1.388 . S
C1336 C1337 1.366 . S
C1337 C1336 1.366 . S
C1337 C1338 1.414 . S
C1337 C1340 1.499 . S
C1338 H1318 0.950 . S
C1338 C1337 1.414 . S
C1338 C1339 1.374 . S
C1339 H1319 0.950 . S
C1339 C1335 1.385 . S
C1339 C1338 1.374 . S
C1340 C1337 1.499 . S
C1340 C1341 1.373 . S
C1340 C1342 1.389 . S
C1341 H1320 0.950 . S
C1341 C1340 1.373 . S
C1341 C1357 1.377 . S
C1342 C1340 1.389 . S
C1342 C1343 1.524 . S
C1342 C1356 1.377 . S
C1343 C1342 1.524 . S
C1343 C1344 1.397 . S
C1343 C1348 1.363 . S
C1344 H1321 0.950 . S
C1344 C1343 1.397 . S
C1344 C1345 1.334 . S
C1345 H1322 0.950 . S
C1345 C1344 1.334 . S
C1345 C1346 1.287 . S
C1346 C1345 1.287 . S
C1346 C1347 1.524 . S
C1346 H1365 0.913 . S
C1347 H1323 0.950 . S
C1347 C1346 1.524 . S
C1347 C1348 1.415 . S
C1348 H1324 0.950 . S
C1348 C1343 1.363 . S
C1348 C1347 1.415 . S
C1349 H1325 0.951 . S
C1349 C1350 1.366 . S
C1349 C1351 1.388 . S
C1350 C1349 1.366 . S
C1350 C1354 1.385 . S
C1351 H1326 0.951 . S
C1351 C1349 1.388 . S
C1351 C1352 1.366 . S
C1352 C1351 1.366 . S
C1352 C1353 1.414 . S
C1352 C1355 1.499 . S
C1353 H1327 0.950 . S
C1353 C1352 1.414 . S
C1353 C1354 1.374 . S
C1354 H1328 0.950 . S
C1354 C1350 1.385 . S
C1354 C1353 1.374 . S
C1355 C1352 1.499 . S
C1355 C1356 1.373 . S
C1355 C1357 1.389 . S
C1356 H1329 0.950 . S
C1356 C1342 1.377 . S
C1356 C1355 1.373 . S
C1357 C1341 1.377 . S
C1357 C1355 1.389 . S
C1357 C1358 1.524 . S
C1358 C1357 1.524 . S
C1358 C1359 1.397 . S
C1358 C1363 1.363 . S
C1359 H1330 0.950 . S
C1359 C1358 1.397 . S
C1359 C1360 1.334 . S
C1360 H1331 0.950 . S
C1360 C1359 1.334 . S
C1360 C1361 1.287 . S
C1361 C1360 1.287 . S
C1361 C1362 1.524 . S
C1361 H1364 0.999 . S
C1362 H1332 0.950 . S
C1362 C1361 1.524 . S
C1362 C1363 1.415 . S
C1363 H1333 0.950 . S
C1363 C1358 1.363 . S
C1363 C1362 1.415 . S
H1364 C1361 0.999 . S
H1365 C1346 0.913 . S
H1366 C1384 0.951 . S
H1367 C1386 0.951 . S
H1368 C1388 0.950 . S
H1369 C1389 0.950 . S
H1370 C1391 0.950 . S
H1371 C1394 0.950 . S
H1372 C1395 0.950 . S
H1373 C1397 0.950 . S
H1374 C1398 0.950 . S
H1375 C1399 0.951 . S
H1376 C1401 0.951 . S
H1377 C1403 0.950 . S
H1378 C1404 0.950 . S
H1379 C1406 0.950 . S
H1380 C1409 0.950 . S
H1381 C1410 0.950 . S
H1382 C1412 0.950 . S
H1383 C1413 0.950 . S
C1384 H1366 0.951 . S
C1384 C1385 1.366 . S
C1384 C1386 1.388 . S
C1385 C1384 1.366 . S
C1385 C1389 1.385 . S
C1386 H1367 0.951 . S
C1386 C1384 1.388 . S
C1386 C1387 1.366 . S
C1387 C1386 1.366 . S
C1387 C1388 1.414 . S
C1387 C1390 1.499 . S
C1388 H1368 0.950 . S
C1388 C1387 1.414 . S
C1388 C1389 1.374 . S
C1389 H1369 0.950 . S
C1389 C1385 1.385 . S
C1389 C1388 1.374 . S
C1390 C1387 1.499 . S
C1390 C1391 1.373 . S
C1390 C1392 1.389 . S
C1391 H1370 0.950 . S
C1391 C1390 1.373 . S
C1391 C1407 1.377 . S
C1392 C1390 1.389 . S
C1392 C1393 1.524 . S
C1392 C1406 1.377 . S
C1393 C1392 1.524 . S
C1393 C1394 1.397 . S
C1393 C1398 1.363 . S
C1394 H1371 0.950 . S
C1394 C1393 1.397 . S
C1394 C1395 1.334 . S
C1395 H1372 0.950 . S
C1395 C1394 1.334 . S
C1395 C1396 1.287 . S
C1396 C1395 1.287 . S
C1396 C1397 1.524 . S
C1396 H1415 0.913 . S
C1397 H1373 0.950 . S
C1397 C1396 1.524 . S
C1397 C1398 1.415 . S
C1398 H1374 0.950 . S
C1398 C1393 1.363 . S
C1398 C1397 1.415 . S
C1399 H1375 0.951 . S
C1399 C1400 1.366 . S
C1399 C1401 1.388 . S
C1400 C1399 1.366 . S
C1400 C1404 1.385 . S
C1401 H1376 0.951 . S
C1401 C1399 1.388 . S
C1401 C1402 1.366 . S
C1402 C1401 1.366 . S
C1402 C1403 1.414 . S
C1402 C1405 1.499 . S
C1403 H1377 0.950 . S
C1403 C1402 1.414 . S
C1403 C1404 1.374 . S
C1404 H1378 0.950 . S
C1404 C1400 1.385 . S
C1404 C1403 1.374 . S
C1405 C1402 1.499 . S
C1405 C1406 1.373 . S
C1405 C1407 1.389 . S
C1406 H1379 0.950 . S
C1406 C1392 1.377 . S
C1406 C1405 1.373 . S
C1407 C1391 1.377 . S
C1407 C1405 1.389 . S
C1407 C1408 1.524 . S
C1408 C1407 1.524 . S
C1408 C1409 1.397 . S
C1408 C1413 1.363 . S
C1409 H1380 0.950 . S
C1409 C1408 1.397 . S
C1409 C1410 1.334 . S
C1410 H1381 0.950 . S
C1410 C1409 1.334 . S
C1410 C1411 1.287 . S
C1411 C1410 1.287 . S
C1411 C1412 1.524 . S
C1411 H1414 0.999 . S
C1412 H1382 0.950 . S
C1412 C1411 1.524 . S
C1412 C1413 1.415 . S
C1413 H1383 0.950 . S
C1413 C1408 1.363 . S
C1413 C1412 1.415 . S
H1414 C1411 0.999 . S
H1415 C1396 0.913 . S
H1416 C1434 0.951 . S
H1417 C1436 0.951 . S
H1418 C1438 0.950 . S
H1419 C1439 0.950 . S
H1420 C1441 0.950 . S
H1421 C1444 0.950 . S
H1422 C1445 0.950 . S
H1423 C1447 0.950 . S
H1424 C1448 0.950 . S
H1425 C1449 0.951 . S
H1426 C1451 0.951 . S
H1427 C1453 0.950 . S
H1428 C1454 0.950 . S
H1429 C1456 0.950 . S
H1430 C1459 0.950 . S
H1431 C1460 0.950 . S
H1432 C1462 0.950 . S
H1433 C1463 0.950 . S
C1434 H1416 0.951 . S
C1434 C1435 1.366 . S
C1434 C1436 1.388 . S
C1435 C1434 1.366 . S
C1435 C1439 1.385 . S
C1436 H1417 0.951 . S
C1436 C1434 1.388 . S
C1436 C1437 1.366 . S
C1437 C1436 1.366 . S
C1437 C1438 1.414 . S
C1437 C1440 1.499 . S
C1438 H1418 0.950 . S
C1438 C1437 1.414 . S
C1438 C1439 1.374 . S
C1439 H1419 0.950 . S
C1439 C1435 1.385 . S
C1439 C1438 1.374 . S
C1440 C1437 1.499 . S
C1440 C1441 1.373 . S
C1440 C1442 1.389 . S
C1441 H1420 0.950 . S
C1441 C1440 1.373 . S
C1441 C1457 1.377 . S
C1442 C1440 1.389 . S
C1442 C1443 1.524 . S
C1442 C1456 1.377 . S
C1443 C1442 1.524 . S
C1443 C1444 1.397 . S
C1443 C1448 1.363 . S
C1444 H1421 0.950 . S
C1444 C1443 1.397 . S
C1444 C1445 1.334 . S
C1445 H1422 0.950 . S
C1445 C1444 1.334 . S
C1445 C1446 1.287 . S
C1446 C1445 1.287 . S
C1446 C1447 1.524 . S
C1446 H1465 0.913 . S
C1447 H1423 0.950 . S
C1447 C1446 1.524 . S
C1447 C1448 1.415 . S
C1448 H1424 0.950 . S
C1448 C1443 1.363 . S
C1448 C1447 1.415 . S
C1449 H1425 0.951 . S
C1449 C1450 1.366 . S
C1449 C1451 1.388 . S
C1450 C1449 1.366 . S
C1450 C1454 1.385 . S
C1451 H1426 0.951 . S
C1451 C1449 1.388 . S
C1451 C1452 1.366 . S
C1452 C1451 1.366 . S
C1452 C1453 1.414 . S
C1452 C1455 1.499 . S
C1453 H1427 0.950 . S
C1453 C1452 1.414 . S
C1453 C1454 1.374 . S
C1454 H1428 0.950 . S
C1454 C1450 1.385 . S
C1454 C1453 1.374 . S
C1455 C1452 1.499 . S
C1455 C1456 1.373 . S
C1455 C1457 1.389 . S
C1456 H1429 0.950 . S
C1456 C1442 1.377 . S
C1456 C1455 1.373 . S
C1457 C1441 1.377 . S
C1457 C1455 1.389 . S
C1457 C1458 1.524 . S
C1458 C1457 1.524 . S
C1458 C1459 1.397 . S
C1458 C1463 1.363 . S
C1459 H1430 0.950 . S
C1459 C1458 1.397 . S
C1459 C1460 1.334 . S
C1460 H1431 0.950 . S
C1460 C1459 1.334 . S
C1460 C1461 1.287 . S
C1461 C1460 1.287 . S
C1461 C1462 1.524 . S
C1461 H1464 0.999 . S
C1462 H1432 0.950 . S
C1462 C1461 1.524 . S
C1462 C1463 1.415 . S
C1463 H1433 0.950 . S
C1463 C1458 1.363 . S
C1463 C1462 1.415 . S
H1464 C1461 0.999 . S
H1465 C1446 0.913 . S
H1466 C1484 0.951 . S
H1467 C1486 0.951 . S
H1468 C1488 0.950 . S
H1469 C1489 0.950 . S
H1470 C1491 0.950 . S
H1471 C1494 0.950 . S
H1472 C1495 0.950 . S
H1473 C1497 0.950 . S
H1474 C1498 0.950 . S
H1475 C1499 0.951 . S
H1476 C1501 0.951 . S
H1477 C1503 0.950 . S
H1478 C1504 0.950 . S
H1479 C1506 0.950 . S
H1480 C1509 0.950 . S
H1481 C1510 0.950 . S
H1482 C1512 0.950 . S
H1483 C1513 0.950 . S
C1484 H1466 0.951 . S
C1484 C1485 1.366 . S
C1484 C1486 1.388 . S
C1485 C1484 1.366 . S
C1485 C1489 1.385 . S
C1486 H1467 0.951 . S
C1486 C1484 1.388 . S
C1486 C1487 1.366 . S
C1487 C1486 1.366 . S
C1487 C1488 1.414 . S
C1487 C1490 1.499 . S
C1488 H1468 0.950 . S
C1488 C1487 1.414 . S
C1488 C1489 1.374 . S
C1489 H1469 0.950 . S
C1489 C1485 1.385 . S
C1489 C1488 1.374 . S
C1490 C1487 1.499 . S
C1490 C1491 1.373 . S
C1490 C1492 1.389 . S
C1491 H1470 0.950 . S
C1491 C1490 1.373 . S
C1491 C1507 1.377 . S
C1492 C1490 1.389 . S
C1492 C1493 1.524 . S
C1492 C1506 1.377 . S
C1493 C1492 1.524 . S
C1493 C1494 1.397 . S
C1493 C1498 1.363 . S
C1494 H1471 0.950 . S
C1494 C1493 1.397 . S
C1494 C1495 1.334 . S
C1495 H1472 0.950 . S
C1495 C1494 1.334 . S
C1495 C1496 1.287 . S
C1496 C1495 1.287 . S
C1496 C1497 1.524 . S
C1496 H1515 0.913 . S
C1497 H1473 0.950 . S
C1497 C1496 1.524 . S
C1497 C1498 1.415 . S
C1498 H1474 0.950 . S
C1498 C1493 1.363 . S
C1498 C1497 1.415 . S
C1499 H1475 0.951 . S
C1499 C1500 1.366 . S
C1499 C1501 1.388 . S
C1500 C1499 1.366 . S
C1500 C1504 1.385 . S
C1501 H1476 0.951 . S
C1501 C1499 1.388 . S
C1501 C1502 1.366 . S
C1502 C1501 1.366 . S
C1502 C1503 1.414 . S
C1502 C1505 1.499 . S
C1503 H1477 0.950 . S
C1503 C1502 1.414 . S
C1503 C1504 1.374 . S
C1504 H1478 0.950 . S
C1504 C1500 1.385 . S
C1504 C1503 1.374 . S
C1505 C1502 1.499 . S
C1505 C1506 1.373 . S
C1505 C1507 1.389 . S
C1506 H1479 0.950 . S
C1506 C1492 1.377 . S
C1506 C1505 1.373 . S
C1507 C1491 1.377 . S
C1507 C1505 1.389 . S
C1507 C1508 1.524 . S
C1508 C1507 1.524 . S
C1508 C1509 1.397 . S
C1508 C1513 1.363 . S
C1509 H1480 0.950 . S
C1509 C1508 1.397 . S
C1509 C1510 1.334 . S
C1510 H1481 0.950 . S
C1510 C1509 1.334 . S
C1510 C1511 1.287 . S
C1511 C1510 1.287 . S
C1511 C1512 1.524 . S
C1511 H1514 0.999 . S
C1512 H1482 0.950 . S
C1512 C1511 1.524 . S
C1512 C1513 1.415 . S
C1513 H1483 0.950 . S
C1513 C1508 1.363 . S
C1513 C1512 1.415 . S
H1514 C1511 0.999 . S
H1515 C1496 0.913 . S
H1516 C1534 0.951 . S
H1517 C1536 0.951 . S
H1518 C1538 0.950 . S
H1519 C1539 0.950 . S
H1520 C1541 0.950 . S
H1521 C1544 0.950 . S
H1522 C1545 0.950 . S
H1523 C1547 0.950 . S
H1524 C1548 0.950 . S
H1525 C1549 0.951 . S
H1526 C1551 0.951 . S
H1527 C1553 0.950 . S
H1528 C1554 0.950 . S
H1529 C1556 0.950 . S
H1530 C1559 0.950 . S
H1531 C1560 0.950 . S
H1532 C1562 0.950 . S
H1533 C1563 0.950 . S
C1534 H1516 0.951 . S
C1534 C1535 1.366 . S
C1534 C1536 1.388 . S
C1535 C1534 1.366 . S
C1535 C1539 1.385 . S
C1536 H1517 0.951 . S
C1536 C1534 1.388 . S
C1536 C1537 1.366 . S
C1537 C1536 1.366 . S
C1537 C1538 1.414 . S
C1537 C1540 1.499 . S
C1538 H1518 0.950 . S
C1538 C1537 1.414 . S
C1538 C1539 1.374 . S
C1539 H1519 0.950 . S
C1539 C1535 1.385 . S
C1539 C1538 1.374 . S
C1540 C1537 1.499 . S
C1540 C1541 1.373 . S
C1540 C1542 1.389 . S
C1541 H1520 0.950 . S
C1541 C1540 1.373 . S
C1541 C1557 1.377 . S
C1542 C1540 1.389 . S
C1542 C1543 1.524 . S
C1542 C1556 1.377 . S
C1543 C1542 1.524 . S
C1543 C1544 1.397 . S
C1543 C1548 1.363 . S
C1544 H1521 0.950 . S
C1544 C1543 1.397 . S
C1544 C1545 1.334 . S
C1545 H1522 0.950 . S
C1545 C1544 1.334 . S
C1545 C1546 1.287 . S
C1546 C1545 1.287 . S
C1546 C1547 1.524 . S
C1546 H1565 0.913 . S
C1547 H1523 0.950 . S
C1547 C1546 1.524 . S
C1547 C1548 1.415 . S
C1548 H1524 0.950 . S
C1548 C1543 1.363 . S
C1548 C1547 1.415 . S
C1549 H1525 0.951 . S
C1549 C1550 1.366 . S
C1549 C1551 1.388 . S
C1550 C1549 1.366 . S
C1550 C1554 1.385 . S
C1551 H1526 0.951 . S
C1551 C1549 1.388 . S
C1551 C1552 1.366 . S
C1552 C1551 1.366 . S
C1552 C1553 1.414 . S
C1552 C1555 1.499 . S
C1553 H1527 0.950 . S
C1553 C1552 1.414 . S
C1553 C1554 1.374 . S
C1554 H1528 0.950 . S
C1554 C1550 1.385 . S
C1554 C1553 1.374 . S
C1555 C1552 1.499 . S
C1555 C1556 1.373 . S
C1555 C1557 1.389 . S
C1556 H1529 0.950 . S
C1556 C1542 1.377 . S
C1556 C1555 1.373 . S
C1557 C1541 1.377 . S
C1557 C1555 1.389 . S
C1557 C1558 1.524 . S
C1558 C1557 1.524 . S
C1558 C1559 1.397 . S
C1558 C1563 1.363 . S
C1559 H1530 0.950 . S
C1559 C1558 1.397 . S
C1559 C1560 1.334 . S
C1560 H1531 0.950 . S
C1560 C1559 1.334 . S
C1560 C1561 1.287 . S
C1561 C1560 1.287 . S
C1561 C1562 1.524 . S
C1561 H1564 0.999 . S
C1562 H1532 0.950 . S
C1562 C1561 1.524 . S
C1562 C1563 1.415 . S
C1563 H1533 0.950 . S
C1563 C1558 1.363 . S
C1563 C1562 1.415 . S
H1564 C1561 0.999 . S
H1565 C1546 0.913 . S
H1566 C1584 0.951 . S
H1567 C1586 0.951 . S
H1568 C1588 0.950 . S
H1569 C1589 0.950 . S
H1570 C1591 0.950 . S
H1571 C1594 0.950 . S
H1572 C1595 0.950 . S
H1573 C1597 0.950 . S
H1574 C1598 0.950 . S
H1575 C1599 0.951 . S
H1576 C1601 0.951 . S
H1577 C1603 0.950 . S
H1578 C1604 0.950 . S
H1579 C1606 0.950 . S
H1580 C1609 0.950 . S
H1581 C1610 0.950 . S
H1582 C1612 0.950 . S
H1583 C1613 0.950 . S
C1584 H1566 0.951 . S
C1584 C1585 1.366 . S
C1584 C1586 1.388 . S
C1585 C1584 1.366 . S
C1585 C1589 1.385 . S
C1586 H1567 0.951 . S
C1586 C1584 1.388 . S
C1586 C1587 1.366 . S
C1587 C1586 1.366 . S
C1587 C1588 1.414 . S
C1587 C1590 1.499 . S
C1588 H1568 0.950 . S
C1588 C1587 1.414 . S
C1588 C1589 1.374 . S
C1589 H1569 0.950 . S
C1589 C1585 1.385 . S
C1589 C1588 1.374 . S
C1590 C1587 1.499 . S
C1590 C1591 1.373 . S
C1590 C1592 1.389 . S
C1591 H1570 0.950 . S
C1591 C1590 1.373 . S
C1591 C1607 1.377 . S
C1592 C1590 1.389 . S
C1592 C1593 1.524 . S
C1592 C1606 1.377 . S
C1593 C1592 1.524 . S
C1593 C1594 1.397 . S
C1593 C1598 1.363 . S
C1594 H1571 0.950 . S
C1594 C1593 1.397 . S
C1594 C1595 1.334 . S
C1595 H1572 0.950 . S
C1595 C1594 1.334 . S
C1595 C1596 1.287 . S
C1596 C1595 1.287 . S
C1596 C1597 1.524 . S
C1596 H1615 0.913 . S
C1597 H1573 0.950 . S
C1597 C1596 1.524 . S
C1597 C1598 1.415 . S
C1598 H1574 0.950 . S
C1598 C1593 1.363 . S
C1598 C1597 1.415 . S
C1599 H1575 0.951 . S
C1599 C1600 1.366 1_556 S
C1599 C1601 1.388 . S
C1600 C1599 1.366 1_554 S
C1600 C1604 1.385 . S
C1601 H1576 0.951 . S
C1601 C1599 1.388 . S
C1601 C1602 1.366 . S
C1602 C1601 1.366 . S
C1602 C1603 1.414 . S
C1602 C1605 1.499 . S
C1603 H1577 0.950 . S
C1603 C1602 1.414 . S
C1603 C1604 1.374 1_556 S
C1604 H1578 0.950 . S
C1604 C1600 1.385 . S
C1604 C1603 1.374 1_554 S
C1605 C1602 1.499 . S
C1605 C1606 1.373 . S
C1605 C1607 1.389 . S
C1606 H1579 0.950 . S
C1606 C1592 1.377 . S
C1606 C1605 1.373 . S
C1607 C1591 1.377 . S
C1607 C1605 1.389 . S
C1607 C1608 1.524 . S
C1608 C1607 1.524 . S
C1608 C1609 1.397 . S
C1608 C1613 1.363 . S
C1609 H1580 0.950 . S
C1609 C1608 1.397 . S
C1609 C1610 1.334 . S
C1610 H1581 0.950 . S
C1610 C1609 1.334 . S
C1610 C1611 1.287 . S
C1611 C1610 1.287 . S
C1611 C1612 1.524 . S
C1611 H1614 0.999 . S
C1612 H1582 0.950 . S
C1612 C1611 1.524 . S
C1612 C1613 1.415 . S
C1613 H1583 0.950 . S
C1613 C1608 1.363 . S
C1613 C1612 1.415 . S
H1614 C1611 0.999 . S
H1615 C1596 0.913 . S
H1616 C1634 0.951 . S
H1617 C1636 0.951 . S
H1618 C1638 0.950 . S
H1619 C1639 0.950 . S
H1620 C1641 0.950 . S
H1621 C1644 0.950 . S
H1622 C1645 0.950 . S
H1623 C1647 0.950 . S
H1624 C1648 0.950 . S
H1625 C1649 0.951 . S
H1626 C1651 0.951 . S
H1627 C1653 0.950 . S
H1628 C1654 0.950 . S
H1629 C1656 0.950 . S
H1630 C1659 0.950 . S
H1631 C1660 0.950 . S
H1632 C1662 0.950 . S
H1633 C1663 0.950 . S
C1634 H1616 0.951 . S
C1634 C1635 1.366 . S
C1634 C1636 1.388 . S
C1635 C1634 1.366 . S
C1635 C1639 1.385 . S
C1636 H1617 0.951 . S
C1636 C1634 1.388 . S
C1636 C1637 1.366 . S
C1637 C1636 1.366 . S
C1637 C1638 1.414 . S
C1637 C1640 1.499 . S
C1638 H1618 0.950 . S
C1638 C1637 1.414 . S
C1638 C1639 1.374 . S
C1639 H1619 0.950 . S
C1639 C1635 1.385 . S
C1639 C1638 1.374 . S
C1640 C1637 1.499 . S
C1640 C1641 1.373 . S
C1640 C1642 1.389 . S
C1641 H1620 0.950 . S
C1641 C1640 1.373 . S
C1641 C1657 1.377 . S
C1642 C1640 1.389 . S
C1642 C1643 1.524 . S
C1642 C1656 1.377 . S
C1643 C1642 1.524 . S
C1643 C1644 1.397 . S
C1643 C1648 1.363 . S
C1644 H1621 0.950 . S
C1644 C1643 1.397 . S
C1644 C1645 1.334 . S
C1645 H1622 0.950 . S
C1645 C1644 1.334 . S
C1645 C1646 1.287 . S
C1646 C1645 1.287 . S
C1646 C1647 1.524 . S
C1646 H1665 0.913 . S
C1647 H1623 0.950 . S
C1647 C1646 1.524 . S
C1647 C1648 1.415 . S
C1648 H1624 0.950 . S
C1648 C1643 1.363 . S
C1648 C1647 1.415 . S
C1649 H1625 0.951 . S
C1649 C1650 1.366 . S
C1649 C1651 1.388 . S
C1650 C1649 1.366 . S
C1650 C1654 1.385 . S
C1651 H1626 0.951 . S
C1651 C1649 1.388 . S
C1651 C1652 1.366 . S
C1652 C1651 1.366 . S
C1652 C1653 1.414 . S
C1652 C1655 1.499 . S
C1653 H1627 0.950 . S
C1653 C1652 1.414 . S
C1653 C1654 1.374 . S
C1654 H1628 0.950 . S
C1654 C1650 1.385 . S
C1654 C1653 1.374 . S
C1655 C1652 1.499 . S
C1655 C1656 1.373 . S
C1655 C1657 1.389 . S
C1656 H1629 0.950 . S
C1656 C1642 1.377 . S
C1656 C1655 1.373 . S
C1657 C1641 1.377 . S
C1657 C1655 1.389 . S
C1657 C1658 1.524 . S
C1658 C1657 1.524 . S
C1658 C1659 1.397 . S
C1658 C1663 1.363 . S
C1659 H1630 0.950 . S
C1659 C1658 1.397 . S
C1659 C1660 1.334 . S
C1660 H1631 0.950 . S
C1660 C1659 1.334 . S
C1660 C1661 1.287 . S
C1661 C1660 1.287 . S
C1661 C1662 1.524 . S
C1661 H1664 0.999 . S
C1662 H1632 0.950 . S
C1662 C1661 1.524 . S
C1662 C1663 1.415 . S
C1663 H1633 0.950 . S
C1663 C1658 1.363 . S
C1663 C1662 1.415 . S
H1664 C1661 0.999 . S
H1665 C1646 0.913 . S
H1666 C1684 0.951 . S
H1667 C1686 0.951 . S
H1668 C1688 0.950 . S
H1669 C1689 0.950 . S
H1670 C1691 0.950 . S
H1671 C1694 0.950 . S
H1672 C1695 0.950 . S
H1673 C1697 0.950 . S
H1674 C1698 0.950 . S
H1675 C1699 0.951 . S
H1676 C1701 0.951 . S
H1677 C1703 0.950 . S
H1678 C1704 0.950 . S
H1679 C1706 0.950 . S
H1680 C1709 0.950 . S
H1681 C1710 0.950 . S
H1682 C1712 0.950 . S
H1683 C1713 0.950 . S
C1684 H1666 0.951 . S
C1684 C1685 1.366 . S
C1684 C1686 1.388 . S
C1685 C1684 1.366 . S
C1685 C1689 1.385 . S
C1686 H1667 0.951 . S
C1686 C1684 1.388 . S
C1686 C1687 1.366 . S
C1687 C1686 1.366 . S
C1687 C1688 1.414 . S
C1687 C1690 1.499 . S
C1688 H1668 0.950 . S
C1688 C1687 1.414 . S
C1688 C1689 1.374 . S
C1689 H1669 0.950 . S
C1689 C1685 1.385 . S
C1689 C1688 1.374 . S
C1690 C1687 1.499 . S
C1690 C1691 1.373 . S
C1690 C1692 1.389 . S
C1691 H1670 0.950 . S
C1691 C1690 1.373 . S
C1691 C1707 1.377 . S
C1692 C1690 1.389 . S
C1692 C1693 1.524 . S
C1692 C1706 1.377 . S
C1693 C1692 1.524 . S
C1693 C1694 1.397 . S
C1693 C1698 1.363 . S
C1694 H1671 0.950 . S
C1694 C1693 1.397 . S
C1694 C1695 1.334 . S
C1695 H1672 0.950 . S
C1695 C1694 1.334 . S
C1695 C1696 1.287 . S
C1696 C1695 1.287 . S
C1696 C1697 1.524 . S
C1696 H1715 0.913 . S
C1697 H1673 0.950 . S
C1697 C1696 1.524 . S
C1697 C1698 1.415 . S
C1698 H1674 0.950 . S
C1698 C1693 1.363 . S
C1698 C1697 1.415 . S
C1699 H1675 0.951 . S
C1699 C1700 1.366 . S
C1699 C1701 1.388 . S
C1700 C1699 1.366 . S
C1700 C1704 1.385 . S
C1701 H1676 0.951 . S
C1701 C1699 1.388 . S
C1701 C1702 1.366 . S
C1702 C1701 1.366 . S
C1702 C1703 1.414 . S
C1702 C1705 1.499 . S
C1703 H1677 0.950 . S
C1703 C1702 1.414 . S
C1703 C1704 1.374 . S
C1704 H1678 0.950 . S
C1704 C1700 1.385 . S
C1704 C1703 1.374 . S
C1705 C1702 1.499 . S
C1705 C1706 1.373 . S
C1705 C1707 1.389 . S
C1706 H1679 0.950 . S
C1706 C1692 1.377 . S
C1706 C1705 1.373 . S
C1707 C1691 1.377 . S
C1707 C1705 1.389 . S
C1707 C1708 1.524 . S
C1708 C1707 1.524 . S
C1708 C1709 1.397 . S
C1708 C1713 1.363 . S
C1709 H1680 0.950 . S
C1709 C1708 1.397 . S
C1709 C1710 1.334 . S
C1710 H1681 0.950 . S
C1710 C1709 1.334 . S
C1710 C1711 1.287 . S
C1711 C1710 1.287 . S
C1711 C1712 1.524 . S
C1711 H1714 0.999 . S
C1712 H1682 0.950 . S
C1712 C1711 1.524 . S
C1712 C1713 1.415 . S
C1713 H1683 0.950 . S
C1713 C1708 1.363 . S
C1713 C1712 1.415 . S
H1714 C1711 0.999 . S
H1715 C1696 0.913 . S
H1716 C1734 0.951 . S
H1717 C1736 0.951 . S
H1718 C1738 0.950 . S
H1719 C1739 0.950 . S
H1720 C1741 0.950 . S
H1721 C1744 0.950 . S
H1722 C1745 0.950 . S
H1723 C1747 0.950 . S
H1724 C1748 0.950 . S
H1725 C1749 0.951 . S
H1726 C1751 0.951 . S
H1727 C1753 0.950 . S
H1728 C1754 0.950 . S
H1729 C1756 0.950 . S
H1730 C1759 0.950 . S
H1731 C1760 0.950 . S
H1732 C1762 0.950 . S
H1733 C1763 0.950 . S
C1734 H1716 0.951 . S
C1734 C1735 1.366 . S
C1734 C1736 1.388 . S
C1735 C1734 1.366 . S
C1735 C1739 1.385 . S
C1736 H1717 0.951 . S
C1736 C1734 1.388 . S
C1736 C1737 1.366 . S
C1737 C1736 1.366 . S
C1737 C1738 1.414 . S
C1737 C1740 1.499 . S
C1738 H1718 0.950 . S
C1738 C1737 1.414 . S
C1738 C1739 1.374 . S
C1739 H1719 0.950 . S
C1739 C1735 1.385 . S
C1739 C1738 1.374 . S
C1740 C1737 1.499 . S
C1740 C1741 1.373 . S
C1740 C1742 1.389 . S
C1741 H1720 0.950 . S
C1741 C1740 1.373 . S
C1741 C1757 1.377 . S
C1742 C1740 1.389 . S
C1742 C1743 1.524 . S
C1742 C1756 1.377 . S
C1743 C1742 1.524 . S
C1743 C1744 1.397 . S
C1743 C1748 1.363 . S
C1744 H1721 0.950 . S
C1744 C1743 1.397 . S
C1744 C1745 1.334 . S
C1745 H1722 0.950 . S
C1745 C1744 1.334 . S
C1745 C1746 1.287 . S
C1746 C1745 1.287 . S
C1746 C1747 1.524 . S
C1746 H1765 0.913 . S
C1747 H1723 0.950 . S
C1747 C1746 1.524 . S
C1747 C1748 1.415 . S
C1748 H1724 0.950 . S
C1748 C1743 1.363 . S
C1748 C1747 1.415 . S
C1749 H1725 0.951 . S
C1749 C1750 1.366 . S
C1749 C1751 1.388 . S
C1750 C1749 1.366 . S
C1750 C1754 1.385 . S
C1751 H1726 0.951 . S
C1751 C1749 1.388 . S
C1751 C1752 1.366 . S
C1752 C1751 1.366 . S
C1752 C1753 1.414 . S
C1752 C1755 1.499 . S
C1753 H1727 0.950 . S
C1753 C1752 1.414 . S
C1753 C1754 1.374 . S
C1754 H1728 0.950 . S
C1754 C1750 1.385 . S
C1754 C1753 1.374 . S
C1755 C1752 1.499 . S
C1755 C1756 1.373 . S
C1755 C1757 1.389 . S
C1756 H1729 0.950 . S
C1756 C1742 1.377 . S
C1756 C1755 1.373 . S
C1757 C1741 1.377 . S
C1757 C1755 1.389 . S
C1757 C1758 1.524 . S
C1758 C1757 1.524 . S
C1758 C1759 1.397 . S
C1758 C1763 1.363 . S
C1759 H1730 0.950 . S
C1759 C1758 1.397 . S
C1759 C1760 1.334 . S
C1760 H1731 0.950 . S
C1760 C1759 1.334 . S
C1760 C1761 1.287 . S
C1761 C1760 1.287 . S
C1761 C1762 1.524 . S
C1761 H1764 0.999 . S
C1762 H1732 0.950 . S
C1762 C1761 1.524 . S
C1762 C1763 1.415 . S
C1763 H1733 0.950 . S
C1763 C1758 1.363 . S
C1763 C1762 1.415 . S
H1764 C1761 0.999 . S
H1765 C1746 0.913 . S
H1766 C1784 0.951 . S
H1767 C1786 0.951 . S
H1768 C1788 0.950 . S
H1769 C1789 0.950 . S
H1770 C1791 0.950 . S
H1771 C1794 0.950 . S
H1772 C1795 0.950 . S
H1773 C1797 0.950 . S
H1774 C1798 0.950 . S
H1775 C1799 0.951 . S
H1776 C1801 0.951 . S
H1777 C1803 0.950 . S
H1778 C1804 0.950 . S
H1779 C1806 0.950 . S
H1780 C1809 0.950 . S
H1781 C1810 0.950 . S
H1782 C1812 0.950 . S
H1783 C1813 0.950 . S
C1784 H1766 0.951 . S
C1784 C1785 1.366 . S
C1784 C1786 1.388 . S
C1785 C1784 1.366 . S
C1785 C1789 1.385 . S
C1786 H1767 0.951 . S
C1786 C1784 1.388 . S
C1786 C1787 1.366 . S
C1787 C1786 1.366 . S
C1787 C1788 1.414 . S
C1787 C1790 1.499 . S
C1788 H1768 0.950 . S
C1788 C1787 1.414 . S
C1788 C1789 1.374 . S
C1789 H1769 0.950 . S
C1789 C1785 1.385 . S
C1789 C1788 1.374 . S
C1790 C1787 1.499 . S
C1790 C1791 1.373 . S
C1790 C1792 1.389 . S
C1791 H1770 0.950 . S
C1791 C1790 1.373 . S
C1791 C1807 1.377 . S
C1792 C1790 1.389 . S
C1792 C1793 1.524 . S
C1792 C1806 1.377 . S
C1793 C1792 1.524 . S
C1793 C1794 1.397 . S
C1793 C1798 1.363 . S
C1794 H1771 0.950 . S
C1794 C1793 1.397 . S
C1794 C1795 1.334 . S
C1795 H1772 0.950 . S
C1795 C1794 1.334 . S
C1795 C1796 1.287 . S
C1796 C1795 1.287 . S
C1796 C1797 1.524 . S
C1796 H1815 0.913 . S
C1797 H1773 0.950 . S
C1797 C1796 1.524 . S
C1797 C1798 1.415 . S
C1798 H1774 0.950 . S
C1798 C1793 1.363 . S
C1798 C1797 1.415 . S
C1799 H1775 0.951 . S
C1799 C1800 1.366 . S
C1799 C1801 1.388 . S
C1800 C1799 1.366 . S
C1800 C1804 1.385 . S
C1801 H1776 0.951 . S
C1801 C1799 1.388 . S
C1801 C1802 1.366 . S
C1802 C1801 1.366 . S
C1802 C1803 1.414 . S
C1802 C1805 1.499 . S
C1803 H1777 0.950 . S
C1803 C1802 1.414 . S
C1803 C1804 1.374 . S
C1804 H1778 0.950 . S
C1804 C1800 1.385 . S
C1804 C1803 1.374 . S
C1805 C1802 1.499 . S
C1805 C1806 1.373 . S
C1805 C1807 1.389 . S
C1806 H1779 0.950 . S
C1806 C1792 1.377 . S
C1806 C1805 1.373 . S
C1807 C1791 1.377 . S
C1807 C1805 1.389 . S
C1807 C1808 1.524 . S
C1808 C1807 1.524 . S
C1808 C1809 1.397 . S
C1808 C1813 1.363 . S
C1809 H1780 0.950 . S
C1809 C1808 1.397 . S
C1809 C1810 1.334 . S
C1810 H1781 0.950 . S
C1810 C1809 1.334 . S
C1810 C1811 1.287 . S
C1811 C1810 1.287 . S
C1811 C1812 1.524 . S
C1811 H1814 0.999 . S
C1812 H1782 0.950 . S
C1812 C1811 1.524 . S
C1812 C1813 1.415 . S
C1813 H1783 0.950 . S
C1813 C1808 1.363 . S
C1813 C1812 1.415 . S
H1814 C1811 0.999 . S
H1815 C1796 0.913 . S
H1816 C1834 0.951 . S
H1817 C1836 0.951 . S
H1818 C1838 0.950 . S
H1819 C1839 0.950 . S
H1820 C1841 0.950 . S
H1821 C1844 0.950 . S
H1822 C1845 0.950 . S
H1823 C1847 0.950 . S
H1824 C1848 0.950 . S
H1825 C1849 0.951 . S
H1826 C1851 0.951 . S
H1827 C1853 0.950 . S
H1828 C1854 0.950 . S
H1829 C1856 0.950 . S
H1830 C1859 0.950 . S
H1831 C1860 0.950 . S
H1832 C1862 0.950 . S
H1833 C1863 0.950 . S
C1834 H1816 0.951 . S
C1834 C1835 1.366 . S
C1834 C1836 1.388 . S
C1835 C1834 1.366 . S
C1835 C1839 1.385 . S
C1836 H1817 0.951 . S
C1836 C1834 1.388 . S
C1836 C1837 1.366 . S
C1837 C1836 1.366 . S
C1837 C1838 1.414 . S
C1837 C1840 1.499 . S
C1838 H1818 0.950 . S
C1838 C1837 1.414 . S
C1838 C1839 1.374 . S
C1839 H1819 0.950 . S
C1839 C1835 1.385 . S
C1839 C1838 1.374 . S
C1840 C1837 1.499 . S
C1840 C1841 1.373 . S
C1840 C1842 1.389 . S
C1841 H1820 0.950 . S
C1841 C1840 1.373 . S
C1841 C1857 1.377 . S
C1842 C1840 1.389 . S
C1842 C1843 1.524 . S
C1842 C1856 1.377 . S
C1843 C1842 1.524 . S
C1843 C1844 1.397 . S
C1843 C1848 1.363 . S
C1844 H1821 0.950 . S
C1844 C1843 1.397 . S
C1844 C1845 1.334 . S
C1845 H1822 0.950 . S
C1845 C1844 1.334 . S
C1845 C1846 1.287 . S
C1846 C1845 1.287 . S
C1846 C1847 1.524 . S
C1846 H1865 0.913 . S
C1847 H1823 0.950 . S
C1847 C1846 1.524 . S
C1847 C1848 1.415 . S
C1848 H1824 0.950 . S
C1848 C1843 1.363 . S
C1848 C1847 1.415 . S
C1849 H1825 0.951 . S
C1849 C1850 1.366 . S
C1849 C1851 1.388 . S
C1850 C1849 1.366 . S
C1850 C1854 1.385 . S
C1851 H1826 0.951 . S
C1851 C1849 1.388 . S
C1851 C1852 1.366 . S
C1852 C1851 1.366 . S
C1852 C1853 1.414 . S
C1852 C1855 1.499 . S
C1853 H1827 0.950 . S
C1853 C1852 1.414 . S
C1853 C1854 1.374 . S
C1854 H1828 0.950 . S
C1854 C1850 1.385 . S
C1854 C1853 1.374 . S
C1855 C1852 1.499 . S
C1855 C1856 1.373 . S
C1855 C1857 1.389 . S
C1856 H1829 0.950 . S
C1856 C1842 1.377 . S
C1856 C1855 1.373 . S
C1857 C1841 1.377 . S
C1857 C1855 1.389 . S
C1857 C1858 1.524 . S
C1858 C1857 1.524 . S
C1858 C1859 1.397 . S
C1858 C1863 1.363 . S
C1859 H1830 0.950 . S
C1859 C1858 1.397 . S
C1859 C1860 1.334 . S
C1860 H1831 0.950 . S
C1860 C1859 1.334 . S
C1860 C1861 1.287 . S
C1861 C1860 1.287 . S
C1861 C1862 1.524 . S
C1861 H1864 0.999 . S
C1862 H1832 0.950 . S
C1862 C1861 1.524 . S
C1862 C1863 1.415 . S
C1863 H1833 0.950 . S
C1863 C1858 1.363 . S
C1863 C1862 1.415 . S
H1864 C1861 0.999 . S
H1865 C1846 0.913 . S
H1866 C1884 0.951 . S
H1867 C1886 0.951 . S
H1868 C1888 0.950 . S
H1869 C1889 0.950 . S
H1870 C1891 0.950 . S
H1871 C1894 0.950 . S
H1872 C1895 0.950 . S
H1873 C1897 0.950 . S
H1874 C1898 0.950 . S
H1875 C1899 0.951 . S
H1876 C1901 0.951 . S
H1877 C1903 0.950 . S
H1878 C1904 0.950 . S
H1879 C1906 0.950 . S
H1880 C1909 0.950 . S
H1881 C1910 0.950 . S
H1882 C1912 0.950 . S
H1883 C1913 0.950 . S
C1884 H1866 0.951 . S
C1884 C1885 1.366 . S
C1884 C1886 1.388 . S
C1885 C1884 1.366 . S
C1885 C1889 1.385 . S
C1886 H1867 0.951 . S
C1886 C1884 1.388 . S
C1886 C1887 1.366 . S
C1887 C1886 1.366 . S
C1887 C1888 1.414 . S
C1887 C1890 1.499 . S
C1888 H1868 0.950 . S
C1888 C1887 1.414 . S
C1888 C1889 1.374 . S
C1889 H1869 0.950 . S
C1889 C1885 1.385 . S
C1889 C1888 1.374 . S
C1890 C1887 1.499 . S
C1890 C1891 1.373 . S
C1890 C1892 1.389 . S
C1891 H1870 0.950 . S
C1891 C1890 1.373 . S
C1891 C1907 1.377 . S
C1892 C1890 1.389 . S
C1892 C1893 1.524 . S
C1892 C1906 1.377 . S
C1893 C1892 1.524 . S
C1893 C1894 1.397 . S
C1893 C1898 1.363 . S
C1894 H1871 0.950 . S
C1894 C1893 1.397 . S
C1894 C1895 1.334 . S
C1895 H1872 0.950 . S
C1895 C1894 1.334 . S
C1895 C1896 1.287 . S
C1896 C1895 1.287 . S
C1896 C1897 1.524 . S
C1896 H1915 0.913 . S
C1897 H1873 0.950 . S
C1897 C1896 1.524 . S
C1897 C1898 1.415 . S
C1898 H1874 0.950 . S
C1898 C1893 1.363 . S
C1898 C1897 1.415 . S
C1899 H1875 0.951 . S
C1899 C1900 1.366 . S
C1899 C1901 1.388 . S
C1900 C1899 1.366 . S
C1900 C1904 1.385 . S
C1901 H1876 0.951 . S
C1901 C1899 1.388 . S
C1901 C1902 1.366 . S
C1902 C1901 1.366 . S
C1902 C1903 1.414 . S
C1902 C1905 1.499 . S
C1903 H1877 0.950 . S
C1903 C1902 1.414 . S
C1903 C1904 1.374 . S
C1904 H1878 0.950 . S
C1904 C1900 1.385 . S
C1904 C1903 1.374 . S
C1905 C1902 1.499 . S
C1905 C1906 1.373 . S
C1905 C1907 1.389 . S
C1906 H1879 0.950 . S
C1906 C1892 1.377 . S
C1906 C1905 1.373 . S
C1907 C1891 1.377 . S
C1907 C1905 1.389 . S
C1907 C1908 1.524 . S
C1908 C1907 1.524 . S
C1908 C1909 1.397 . S
C1908 C1913 1.363 . S
C1909 H1880 0.950 . S
C1909 C1908 1.397 . S
C1909 C1910 1.334 . S
C1910 H1881 0.950 . S
C1910 C1909 1.334 . S
C1910 C1911 1.287 . S
C1911 C1910 1.287 . S
C1911 C1912 1.524 . S
C1911 H1914 0.999 . S
C1912 H1882 0.950 . S
C1912 C1911 1.524 . S
C1912 C1913 1.415 . S
C1913 H1883 0.950 . S
C1913 C1908 1.363 . S
C1913 C1912 1.415 . S
H1914 C1911 0.999 . S
H1915 C1896 0.913 . S
H1916 C1934 0.951 . S
H1917 C1936 0.951 . S
H1918 C1938 0.950 . S
H1919 C1939 0.950 . S
H1920 C1941 0.950 . S
H1921 C1944 0.950 . S
H1922 C1945 0.950 . S
H1923 C1947 0.950 . S
H1924 C1948 0.950 . S
H1925 C1949 0.951 . S
H1926 C1951 0.951 . S
H1927 C1953 0.957 . S
H1928 C1954 0.950 . S
H1929 C1956 0.950 . S
H1930 C1959 0.950 . S
H1931 C1960 0.950 . S
H1932 C1962 0.950 . S
H1933 C1963 0.950 . S
C1934 H1916 0.951 . S
C1934 C1935 1.366 . S
C1934 C1936 1.388 . S
C1935 C1934 1.366 . S
C1935 C1939 1.385 . S
C1936 H1917 0.951 . S
C1936 C1934 1.388 . S
C1936 C1937 1.366 . S
C1937 C1936 1.366 . S
C1937 C1938 1.414 . S
C1937 C1940 1.499 . S
C1938 H1918 0.950 . S
C1938 C1937 1.414 . S
C1938 C1939 1.374 . S
C1939 H1919 0.950 . S
C1939 C1935 1.385 . S
C1939 C1938 1.374 . S
C1940 C1937 1.499 . S
C1940 C1941 1.373 . S
C1940 C1942 1.389 . S
C1941 H1920 0.950 . S
C1941 C1940 1.373 . S
C1941 C1957 1.377 . S
C1942 C1940 1.389 . S
C1942 C1943 1.524 . S
C1942 C1956 1.377 . S
C1943 C1942 1.524 . S
C1943 C1944 1.397 . S
C1943 C1948 1.363 . S
C1944 H1921 0.950 . S
C1944 C1943 1.397 . S
C1944 C1945 1.334 . S
C1945 H1922 0.950 . S
C1945 C1944 1.334 . S
C1945 C1946 1.287 . S
C1946 C1945 1.287 . S
C1946 C1947 1.524 . S
C1946 H1965 0.913 . S
C1947 H1923 0.950 . S
C1947 C1946 1.524 . S
C1947 C1948 1.415 . S
C1948 H1924 0.950 . S
C1948 C1943 1.363 . S
C1948 C1947 1.415 . S
C1949 H1925 0.951 . S
C1949 C1950 1.366 1_554 S
C1949 C1951 1.388 . S
C1950 C1949 1.366 1_556 S
C1950 C1954 1.385 . S
C1951 H1926 0.951 . S
C1951 C1949 1.388 . S
C1951 C1952 1.366 . S
C1952 C1951 1.366 . S
C1952 C1953 1.381 1_554 S
C1952 C1955 1.499 . S
C1953 H1927 0.957 . S
C1953 C1952 1.381 1_556 S
C1953 C1954 1.401 . S
C1954 H1928 0.950 . S
C1954 C1950 1.385 . S
C1954 C1953 1.401 . S
C1955 C1952 1.499 . S
C1955 C1956 1.373 . S
C1955 C1957 1.389 . S
C1956 H1929 0.950 . S
C1956 C1942 1.377 . S
C1956 C1955 1.373 . S
C1957 C1941 1.377 . S
C1957 C1955 1.389 . S
C1957 C1958 1.524 . S
C1958 C1957 1.524 . S
C1958 C1959 1.397 . S
C1958 C1963 1.363 . S
C1959 H1930 0.950 . S
C1959 C1958 1.397 . S
C1959 C1960 1.334 . S
C1960 H1931 0.950 . S
C1960 C1959 1.334 . S
C1960 C1961 1.287 . S
C1961 C1960 1.287 . S
C1961 C1962 1.524 . S
C1961 H1964 0.999 . S
C1962 H1932 0.950 . S
C1962 C1961 1.524 . S
C1962 C1963 1.415 . S
C1963 H1933 0.950 . S
C1963 C1958 1.363 . S
C1963 C1962 1.415 . S
H1964 C1961 0.999 . S
H1965 C1946 0.913 . S
H1966 C1984 0.951 . S
H1967 C1986 0.951 . S
H1968 C1988 0.950 . S
H1969 C1989 0.950 . S
H1970 C1991 0.950 . S
H1971 C1994 0.950 . S
H1972 C1995 0.950 . S
H1973 C1997 0.950 . S
H1974 C1998 0.950 . S
H1975 C1999 0.951 . S
H1976 C2001 0.951 . S
H1977 C2003 0.950 . S
H1978 C2004 0.950 . S
H1979 C2006 0.950 . S
H1980 C2009 0.950 . S
H1981 C2010 0.950 . S
H1982 C2012 0.950 . S
H1983 C2013 0.950 . S
C1984 H1966 0.951 . S
C1984 C1985 1.366 . S
C1984 C1986 1.388 . S
C1985 C1984 1.366 . S
C1985 C1989 1.385 . S
C1986 H1967 0.951 . S
C1986 C1984 1.388 . S
C1986 C1987 1.366 . S
C1987 C1986 1.366 . S
C1987 C1988 1.414 . S
C1987 C1990 1.499 . S
C1988 H1968 0.950 . S
C1988 C1987 1.414 . S
C1988 C1989 1.374 . S
C1989 H1969 0.950 . S
C1989 C1985 1.385 . S
C1989 C1988 1.374 . S
C1990 C1987 1.499 . S
C1990 C1991 1.373 . S
C1990 C1992 1.389 . S
C1991 H1970 0.950 . S
C1991 C1990 1.373 . S
C1991 C2007 1.377 . S
C1992 C1990 1.389 . S
C1992 C1993 1.524 . S
C1992 C2006 1.377 . S
C1993 C1992 1.524 . S
C1993 C1994 1.397 . S
C1993 C1998 1.363 . S
C1994 H1971 0.950 . S
C1994 C1993 1.397 . S
C1994 C1995 1.334 . S
C1995 H1972 0.950 . S
C1995 C1994 1.334 . S
C1995 C1996 1.287 . S
C1996 C1995 1.287 . S
C1996 C1997 1.524 . S
C1996 H2015 0.913 . S
C1997 H1973 0.950 . S
C1997 C1996 1.524 . S
C1997 C1998 1.415 . S
C1998 H1974 0.950 . S
C1998 C1993 1.363 . S
C1998 C1997 1.415 . S
C1999 H1975 0.951 . S
C1999 C2000 1.366 . S
C1999 C2001 1.388 . S
C2000 C1999 1.366 . S
C2000 C2004 1.385 . S
C2001 H1976 0.951 . S
C2001 C1999 1.388 . S
C2001 C2002 1.366 . S
C2002 C2001 1.366 . S
C2002 C2003 1.414 . S
C2002 C2005 1.499 . S
C2003 H1977 0.950 . S
C2003 C2002 1.414 . S
C2003 C2004 1.374 . S
C2004 H1978 0.950 . S
C2004 C2000 1.385 . S
C2004 C2003 1.374 . S
C2005 C2002 1.499 . S
C2005 C2006 1.373 . S
C2005 C2007 1.389 . S
C2006 H1979 0.950 . S
C2006 C1992 1.377 . S
C2006 C2005 1.373 . S
C2007 C1991 1.377 . S
C2007 C2005 1.389 . S
C2007 C2008 1.524 . S
C2008 C2007 1.524 . S
C2008 C2009 1.397 . S
C2008 C2013 1.363 . S
C2009 H1980 0.950 . S
C2009 C2008 1.397 . S
C2009 C2010 1.334 . S
C2010 H1981 0.950 . S
C2010 C2009 1.334 . S
C2010 C2011 1.287 . S
C2011 C2010 1.287 . S
C2011 C2012 1.524 . S
C2011 H2014 0.999 . S
C2012 H1982 0.950 . S
C2012 C2011 1.524 . S
C2012 C2013 1.415 . S
C2013 H1983 0.950 . S
C2013 C2008 1.363 . S
C2013 C2012 1.415 . S
H2014 C2011 0.999 . S
H2015 C1996 0.913 . S
C850 C757 1.602 . S
C835 C45 1.608 . S
C885 C84 1.599 . S
C900 C317 1.604 . S
C935 C126 1.562 . S
C950 C405 1.604 . S
C985 C189 1.607 . S
C1000 C484 1.601 . S
C1050 C581 1.604 . S
C1035 C228 1.600 . S
C1085 C270 1.562 . S
C1100 C660 1.604 . S
C1135 C69 1.582 . S
C1150 C425 1.603 . S
C1185 C141 1.608 . S
C1200 C521 1.602 . S
C1235 C174 1.561 . S
C1250 C601 1.604 . S
C1300 C697 1.604 . S
C1285 C213 1.582 . S
C1350 C777 1.602 . S
C1335 C285 1.607 . S
C1400 C337 1.604 . S
C1385 C30 1.561 . S
C1435 C36 1.469 . S
C1450 C433 1.467 . S
C1485 C93 1.465 . S
C1500 C513 1.463 . S
C1550 C609 1.466 . S
C1535 C117 1.467 . S
C1585 C180 1.469 . S
C1600 C689 1.467 . S
C1650 C785 1.463 . S
C1635 C237 1.465 . S
C1700 C345 1.466 . S
C1685 C261 1.467 . S
C1750 C748 1.464 . S
C1735 C78 1.462 . S
C1785 C132 1.469 . S
C1800 C308 1.467 . S
C1850 C396 1.466 . S
C1835 C165 1.467 . S
C1885 C222 1.461 . S
C1900 C493 1.463 . S
C1935 C276 1.469 . S
C1950 C572 1.467 . S
C1985 C21 1.467 . S
C2000 C669 1.466 . S
