# Generated by pormake.
# Topology nom, (4,4)-cn, num edge types: 1
# Building blocks:
#     Node 0, Type 0, BuildingBlock: MIFKUJ_clean_linker_1, # of connection points: 4
#     Node 1, Type 0, BuildingBlock: MIFKUJ_clean_linker_1, # of connection points: 4
#     Node 2, Type 0, BuildingBlock: MIFKUJ_clean_linker_1, # of connection points: 4
#     Node 3, Type 0, BuildingBlock: MIFKUJ_clean_linker_1, # of connection points: 4
#     Node 4, Type 0, BuildingBlock: MIFKUJ_clean_linker_1, # of connection points: 4
#     Node 5, Type 0, BuildingBlock: MIFKUJ_clean_linker_1, # of connection points: 4
#     Node 6, Type 1, BuildingBlock: QUQFOY_clean_sbu_3, # of connection points: 4
#     Node 7, Type 1, BuildingBlock: QUQFOY_clean_sbu_3, # of connection points: 4
#     Node 8, Type 1, BuildingBlock: QUQFOY_clean_sbu_3, # of connection points: 4
#     Node 9, Type 1, BuildingBlock: QUQFOY_clean_sbu_3, # of connection points: 4
#     Node 10, Type 1, BuildingBlock: QUQFOY_clean_sbu_3, # of connection points: 4
#     Node 11, Type 1, BuildingBlock: QUQFOY_clean_sbu_3, # of connection points: 4
#     Edge 12, Type (0, 1), BuildingBlock: UVAHIK_clean_linker_0, # of connection points: 2
#     Edge 13, Type (0, 1), BuildingBlock: UVAHIK_clean_linker_0, # of connection points: 2
#     Edge 14, Type (0, 1), BuildingBlock: UVAHIK_clean_linker_0, # of connection points: 2
#     Edge 15, Type (0, 1), BuildingBlock: UVAHIK_clean_linker_0, # of connection points: 2
#     Edge 16, Type (0, 1), BuildingBlock: UVAHIK_clean_linker_0, # of connection points: 2
#     Edge 17, Type (0, 1), BuildingBlock: UVAHIK_clean_linker_0, # of connection points: 2
#     Edge 18, Type (0, 1), BuildingBlock: UVAHIK_clean_linker_0, # of connection points: 2
#     Edge 19, Type (0, 1), BuildingBlock: UVAHIK_clean_linker_0, # of connection points: 2
#     Edge 20, Type (0, 1), BuildingBlock: UVAHIK_clean_linker_0, # of connection points: 2
#     Edge 21, Type (0, 1), BuildingBlock: UVAHIK_clean_linker_0, # of connection points: 2
#     Edge 22, Type (0, 1), BuildingBlock: UVAHIK_clean_linker_0, # of connection points: 2
#     Edge 23, Type (0, 1), BuildingBlock: UVAHIK_clean_linker_0, # of connection points: 2
#     Edge 24, Type (0, 1), BuildingBlock: UVAHIK_clean_linker_0, # of connection points: 2
#     Edge 25, Type (0, 1), BuildingBlock: UVAHIK_clean_linker_0, # of connection points: 2
#     Edge 26, Type (0, 1), BuildingBlock: UVAHIK_clean_linker_0, # of connection points: 2
#     Edge 27, Type (0, 1), BuildingBlock: UVAHIK_clean_linker_0, # of connection points: 2
#     Edge 28, Type (0, 1), BuildingBlock: UVAHIK_clean_linker_0, # of connection points: 2
#     Edge 29, Type (0, 1), BuildingBlock: UVAHIK_clean_linker_0, # of connection points: 2
#     Edge 30, Type (0, 1), BuildingBlock: UVAHIK_clean_linker_0, # of connection points: 2
#     Edge 31, Type (0, 1), BuildingBlock: UVAHIK_clean_linker_0, # of connection points: 2
#     Edge 32, Type (0, 1), BuildingBlock: UVAHIK_clean_linker_0, # of connection points: 2
#     Edge 33, Type (0, 1), BuildingBlock: UVAHIK_clean_linker_0, # of connection points: 2
#     Edge 34, Type (0, 1), BuildingBlock: UVAHIK_clean_linker_0, # of connection points: 2
#     Edge 35, Type (0, 1), BuildingBlock: UVAHIK_clean_linker_0, # of connection points: 2
# Relax obj value: 0.002
# Max RMSD: 0.098
# Mean RMSD: 0.065
data_MOF--net-nom--node1-QUQFOY_clean_sbu_3--node2-MIFKUJ_clean_linker_1--edge1-UVAHIK_clean_linker_0
_symmetry_space_group_name_H-M    P1
_symmetry_Int_Tables_number       1
_symmetry_cell_setting            triclinic
loop_
_symmetry_equiv_pos_as_xyz
'x, y, z'
_cell_length_a     66.274795
_cell_length_b     67.80849
_cell_length_c     70.565026
_cell_angle_alpha  89.995873
_cell_angle_beta   90.023185
_cell_angle_gamma 120.03728
loop_
_atom_site_label
_atom_site_type_symbol
_atom_site_fract_x
_atom_site_fract_y
_atom_site_fract_z
_atom_type_partial_charge
H0 H 0.98273 0.45805 0.27597 0.0
H1 H 0.95568 0.44391 0.2491 0.0
H2 H 0.92254 0.48074 0.2695 0.0
H3 H 0.95019 0.49567 0.29586 0.0
H4 H 0.01429 0.50181 0.28444 0.0
H5 H 0.94276 0.44069 0.31902 0.0
H6 H 0.90141 0.42603 0.32689 0.0
H7 H 0.91844 0.4927 0.34709 0.0
H8 H 0.9595 0.50709 0.33963 0.0
H9 H 0.0203 0.5306 0.36326 0.0
H10 H 0.04926 0.54628 0.3885 0.0
H11 H 0.08762 0.51765 0.36188 0.0
H12 H 0.05782 0.50086 0.33731 0.0
H13 H 0.99047 0.49138 0.35199 0.0
H14 H 0.05451 0.55299 0.32546 0.0
H15 H 0.09432 0.57979 0.31547 0.0
H16 H 0.09217 0.52993 0.27631 0.0
H17 H 0.05266 0.5024 0.28715 0.0
C18 C 0.96823 0.47756 0.28816 0.0
C19 C 0.96961 0.46304 0.27469 0.0
C20 C 0.95418 0.45497 0.25938 0.0
C21 C 0.93697 0.46111 0.25739 0.0
C22 C 0.93543 0.47547 0.27093 0.0
C23 C 0.95115 0.48389 0.28604 0.0
C24 C 0.98543 0.48682 0.30385 0.0
C25 C 0.0092 0.49907 0.29925 0.0
C26 C 0.97868 0.48467 0.32308 0.0
C27 C 0.95406 0.47494 0.32877 0.0
C28 C 0.93753 0.45201 0.32533 0.0
C29 C 0.91405 0.4437 0.32979 0.0
C30 C 0.9069 0.45837 0.3374 0.0
C31 C 0.92356 0.48117 0.34105 0.0
C32 C 0.94697 0.48933 0.33694 0.0
C33 C 0.03693 0.51466 0.34829 0.0
C34 C 0.03477 0.52743 0.363 0.0
C35 C 0.05155 0.53666 0.3773 0.0
C36 C 0.07093 0.53343 0.37716 0.0
C37 C 0.07284 0.52032 0.36256 0.0
C38 C 0.05592 0.51089 0.34837 0.0
C39 C 0.01958 0.50572 0.33266 0.0
C40 C -0.00421 0.49364 0.33724 0.0
C41 C 0.02634 0.5093 0.31334 0.0
C42 C 0.0507 0.5254 0.30742 0.0
C43 C 0.06274 0.54748 0.31513 0.0
C44 C 0.08541 0.56286 0.30934 0.0
C45 C 0.09617 0.55674 0.29527 0.0
C46 C 0.08411 0.53489 0.28725 0.0
C47 C 0.0616 0.51926 0.2934 0.0
H48 H 0.45854 0.96477 0.51576 0.0
H49 H 0.43692 0.92624 0.52855 0.0
H50 H 0.48847 0.91162 0.50542 0.0
H51 H 0.50961 0.95009 0.49217 0.0
H52 H 0.50335 -0.00092 0.52228 0.0
H53 H 0.45647 0.9553 0.46959 0.0
H54 H 0.44031 0.92586 0.44505 0.0
H55 H 0.50984 0.94794 0.42457 0.0
H56 H 0.52593 0.97722 0.44931 0.0
H57 H 0.55804 0.0514 0.45729 0.0
H58 H 0.57247 0.08924 0.44332 0.0
H59 H 0.51684 0.09403 0.47084 0.0
H60 H 0.50233 0.05617 0.48444 0.0
H61 H 0.51559 0.01252 0.45305 0.0
H62 H 0.56035 0.06234 0.50311 0.0
H63 H 0.57354 0.09332 0.526 0.0
H64 H 0.50547 0.05938 0.5523 0.0
H65 H 0.492 0.02926 0.52861 0.0
C66 C 0.48557 0.9602 0.50294 0.0
C67 C 0.46521 0.95326 0.51353 0.0
C68 C 0.45296 0.93126 0.52093 0.0
C69 C 0.46097 0.91579 0.51807 0.0
C70 C 0.48161 0.92295 0.50766 0.0
C71 C 0.49376 0.94495 0.50013 0.0
C72 C 0.49808 0.98343 0.49484 0.0
C73 C 0.5059 0.00208 0.50713 0.0
C74 C 0.50196 0.98725 0.47516 0.0
C75 C 0.4924 0.96831 0.46132 0.0
C76 C 0.46825 0.95353 0.46002 0.0
C77 C 0.45904 0.93686 0.44592 0.0
C78 C 0.47383 0.93466 0.43289 0.0
C79 C 0.49806 0.9491 0.43454 0.0
C80 C 0.50725 0.96589 0.44857 0.0
C81 C 0.5293 0.05113 0.47206 0.0
C82 C 0.54896 0.06062 0.46024 0.0
C83 C 0.55723 0.08224 0.45236 0.0
C84 C 0.54576 0.09456 0.45598 0.0
C85 C 0.52589 0.08484 0.46762 0.0
C86 C 0.51772 0.06332 0.47556 0.0
C87 C 0.52045 0.02826 0.48046 0.0
C88 C 0.5134 0.00964 0.46823 0.0
C89 C 0.51705 0.02449 0.50022 0.0
C90 C 0.5251 0.04354 0.51399 0.0
C91 C 0.54813 0.06179 0.51357 0.0
C92 C 0.55575 0.07937 0.52686 0.0
C93 C 0.5406 0.07888 0.54106 0.0
C94 C 0.51752 0.06057 0.5414 0.0
C95 C 0.50986 0.04315 0.52799 0.0
H96 H 0.54769 0.56893 0.70322 0.0
H97 H 0.53562 0.58428 0.72951 0.0
H98 H 0.4638 0.54308 0.71223 0.0
H99 H 0.47577 0.52705 0.6864 0.0
H100 H 0.53567 0.52499 0.69872 0.0
H101 H 0.51857 0.57815 0.6628 0.0
H102 H 0.49034 0.58968 0.65337 0.0
H103 H 0.44703 0.52339 0.62813 0.0
H104 H 0.47436 0.51166 0.63847 0.0
H105 H 0.50478 0.48361 0.62425 0.0
H106 H 0.51483 0.46372 0.60066 0.0
H107 H 0.58459 0.49454 0.62371 0.0
H108 H 0.57486 0.51558 0.6464 0.0
H109 H 0.51724 0.52465 0.63058 0.0
H110 H 0.51522 0.46708 0.66816 0.0
H111 H 0.5273 0.44111 0.68094 0.0
H112 H 0.58925 0.49831 0.70427 0.0
H113 H 0.57705 0.52437 0.69129 0.0
C114 C 0.51269 0.5471 0.69265 0.0
C115 C 0.52936 0.56331 0.705 0.0
C116 C 0.52248 0.57207 0.71998 0.0
C117 C 0.49883 0.56492 0.72276 0.0
C118 C 0.48218 0.54908 0.71018 0.0
C119 C 0.48902 0.54 0.6954 0.0
C120 C 0.52009 0.5365 0.67786 0.0
C121 C 0.53211 0.52541 0.68376 0.0
C122 C 0.51404 0.53565 0.65849 0.0
C123 C 0.49845 0.54393 0.65157 0.0
C124 C 0.50291 0.56612 0.65532 0.0
C125 C 0.48686 0.57273 0.64979 0.0
C126 C 0.46623 0.55733 0.64025 0.0
C127 C 0.46239 0.53549 0.63589 0.0
C128 C 0.47822 0.52885 0.64157 0.0
C129 C 0.53901 0.50105 0.6372 0.0
C130 C 0.52232 0.48628 0.6241 0.0
C131 C 0.52802 0.47464 0.61076 0.0
C132 C 0.5505 0.47737 0.61031 0.0
C133 C 0.56719 0.49219 0.62347 0.0
C134 C 0.56156 0.50404 0.63664 0.0
C135 C 0.53279 0.51324 0.65147 0.0
C136 C 0.52124 0.52472 0.6455 0.0
C137 C 0.53761 0.51303 0.67096 0.0
C138 C 0.54539 0.49763 0.67863 0.0
C139 C 0.53146 0.47404 0.67595 0.0
C140 C 0.53827 0.45923 0.68339 0.0
C141 C 0.55916 0.46772 0.69365 0.0
C142 C 0.57313 0.49136 0.69632 0.0
C143 C 0.56617 0.50621 0.689 0.0
H144 H 0.03562 0.56229 0.78076 0.0
H145 H 0.06264 0.57559 0.75383 0.0
H146 H 0.08048 0.52366 0.7657 0.0
H147 H 0.05334 0.51037 0.79247 0.0
H148 H -0.00343 0.51474 0.7854 0.0
H149 H 0.072 0.56885 0.8159 0.0
H150 H 0.11258 0.57996 0.82276 0.0
H151 H 0.08917 0.5151 0.85031 0.0
H152 H 0.04905 0.50374 0.8426 0.0
H153 H 0.98773 0.47542 0.85896 0.0
H154 H 0.95778 0.45698 0.88326 0.0
H155 H 0.92839 0.49893 0.86711 0.0
H156 H 0.95777 0.51645 0.84231 0.0
H157 H 0.02133 0.51911 0.85239 0.0
H158 H 0.961 0.46039 0.82156 0.0
H159 H 0.92157 0.43268 0.81183 0.0
H160 H 0.91547 0.48577 0.78314 0.0
H161 H 0.9551 0.51382 0.79353 0.0
C162 C 0.04265 0.53549 0.78861 0.0
C163 C 0.04546 0.55388 0.77756 0.0
C164 C 0.06097 0.56153 0.7623 0.0
C165 C 0.07365 0.55066 0.7577 0.0
C166 C 0.07081 0.53224 0.76884 0.0
C167 C 0.05543 0.52472 0.78417 0.0
C168 C 0.02582 0.52708 0.80445 0.0
C169 C 0.00198 0.51634 0.8001 0.0
C170 C 0.03291 0.5275 0.82344 0.0
C171 C 0.05749 0.53537 0.82856 0.0
C172 C 0.07568 0.557 0.8233 0.0
C173 C 0.09884 0.56339 0.82737 0.0
C174 C 0.10414 0.54831 0.8369 0.0
C175 C 0.08578 0.52694 0.84257 0.0
C176 C 0.06277 0.52053 0.83839 0.0
C177 C 0.97491 0.49725 0.84886 0.0
C178 C 0.97488 0.48069 0.86078 0.0
C179 C 0.95776 0.47022 0.8747 0.0
C180 C 0.94056 0.47639 0.87718 0.0
C181 C 0.94101 0.49336 0.86539 0.0
C182 C 0.95792 0.50357 0.85131 0.0
C183 C 0.99218 0.50737 0.83337 0.0
C184 C 0.01597 0.51831 0.83775 0.0
C185 C 0.98511 0.50552 0.81425 0.0
C186 C 0.96083 0.48923 0.80853 0.0
C187 C 0.95108 0.46618 0.81343 0.0
C188 C 0.92864 0.45029 0.80765 0.0
C189 C 0.91548 0.45702 0.79661 0.0
C190 C 0.92517 0.48015 0.79176 0.0
C191 C 0.94778 0.49614 0.79758 0.0
H192 H 0.55519 0.05324 0.01004 0.0
H193 H 0.57594 0.09223 0.02191 0.0
H194 H 0.51826 0.10113 0.005 0.0
H195 H 0.49789 0.06218 0.99262 0.0
H196 H 0.51302 0.01714 0.02004 0.0
H197 H 0.54891 0.0641 0.96603 0.0
H198 H 0.55853 0.09247 0.94109 0.0
H199 H 0.48679 0.05732 0.92268 0.0
H200 H 0.47691 0.02947 0.94819 0.0
H201 H 0.44939 0.96092 0.96091 0.0
H202 H 0.43337 0.92231 0.94806 0.0
H203 H 0.4939 0.9204 0.96836 0.0
H204 H 0.50993 0.95899 0.98081 0.0
H205 H 0.49054 9e-05 0.95239 0.0
H206 H 0.45383 0.95631 0.00817 0.0
H207 H 0.44368 0.92679 0.03202 0.0
H208 H 0.51685 0.95442 0.04466 0.0
H209 H 0.52671 0.98445 0.0212 0.0
C210 C 0.52511 0.05492 0.00034 0.0
C211 C 0.54699 0.06358 0.00898 0.0
C212 C 0.55876 0.08585 0.01587 0.0
C213 C 0.54876 0.09984 0.01447 0.0
C214 C 0.52662 0.09095 0.00606 0.0
C215 C 0.51491 0.06868 -0.00096 0.0
C216 C 0.5131 0.03143 0.99273 0.0
C217 C 0.50828 0.01348 0.0052 0.0
C218 C 0.50637 0.0266 0.97347 0.0
C219 C 0.51208 0.04478 0.95922 0.0
C220 C 0.53507 0.06284 0.95704 0.0
C221 C 0.5406 0.07899 0.94273 0.0
C222 C 0.52337 0.07703 0.93004 0.0
C223 C 0.50037 0.05913 0.93229 0.0
C224 C 0.49475 0.04323 0.94682 0.0
C225 C 0.48072 0.96268 0.97196 0.0
C226 C 0.45918 0.95215 0.96252 0.0
C227 C 0.45002 0.9301 0.95529 0.0
C228 C 0.46241 0.91838 0.95719 0.0
C229 C 0.48407 0.9291 0.96649 0.0
C230 C 0.49314 0.95105 0.97378 0.0
C231 C 0.49054 0.98601 0.97968 0.0
C232 C 0.49503 0.00386 0.96725 0.0
C233 C 0.49692 0.99085 -0.00107 0.0
C234 C 0.491 0.9725 0.01294 0.0
C235 C 0.46766 0.95589 0.01603 0.0
C236 C 0.46192 0.93893 0.02959 0.0
C237 C 0.47945 0.93812 0.04027 0.0
C238 C 0.50288 0.95469 0.03693 0.0
C239 C 0.50857 0.97182 0.02348 0.0
H240 H 0.47849 0.45731 0.20468 0.0
H241 H 0.4922 0.44355 0.23105 0.0
H242 H 0.56319 0.4951 0.21858 0.0
H243 H 0.54934 0.50889 0.19235 0.0
H244 H 0.48723 0.50363 0.20107 0.0
H245 H 0.50787 0.45167 0.16838 0.0
H246 H 0.5363 0.44035 0.15933 0.0
H247 H 0.57822 0.50562 0.13208 0.0
H248 H 0.5506 0.51721 0.14204 0.0
H249 H 0.5166 0.54215 0.12552 0.0
H250 H 0.50468 0.55925 0.10076 0.0
H251 H 0.43444 0.52459 0.12297 0.0
H252 H 0.44618 0.50642 0.14697 0.0
H253 H 0.50706 0.50205 0.13352 0.0
H254 H 0.50294 0.55895 0.16682 0.0
H255 H 0.48724 0.58303 0.17671 0.0
H256 H 0.42923 0.52507 0.20352 0.0
H257 H 0.44524 0.50096 0.1936 0.0
C258 C 0.51293 0.48398 0.19654 0.0
C259 C 0.49701 0.46552 0.20759 0.0
C260 C 0.50486 0.45761 0.22254 0.0
C261 C 0.52876 0.46825 0.22683 0.0
C262 C 0.54467 0.48669 0.21566 0.0
C263 C 0.53681 0.49448 0.20063 0.0
C264 C 0.50443 0.49282 0.18122 0.0
C265 C 0.49111 0.50284 0.18625 0.0
C266 C 0.51085 0.49313 0.16206 0.0
C267 C 0.52722 0.4854 0.15608 0.0
C268 C 0.52333 0.4636 0.16064 0.0
C269 C 0.53948 0.45707 0.15529 0.0
C270 C 0.55967 0.47215 0.14512 0.0
C271 C 0.56318 0.49376 0.14027 0.0
C272 C 0.54721 0.50031 0.14575 0.0
C273 C 0.48234 0.52307 0.1382 0.0
C274 C 0.49857 0.53803 0.12493 0.0
C275 C 0.49178 0.54805 0.11092 0.0
C276 C 0.46861 0.54345 0.10992 0.0
C277 C 0.45236 0.52835 0.12317 0.0
C278 C 0.45911 0.51813 0.13706 0.0
C279 C 0.48978 0.51281 0.15332 0.0
C280 C 0.50278 0.50248 0.1483 0.0
C281 C 0.48458 0.51368 0.17265 0.0
C282 C 0.47501 0.52809 0.17918 0.0
C283 C 0.48675 0.55138 0.17472 0.0
C284 C 0.47774 0.56511 0.18036 0.0
C285 C 0.45685 0.55589 0.1907 0.0
C286 C 0.44541 0.53267 0.19562 0.0
C287 C 0.45447 0.51888 0.18993 0.0
C288 C 0.68499 0.41269 0.40875 0.0
O289 O 0.68459 0.42898 0.41729 0.0
Cd290 Cd 0.64954 0.4255 0.43025 0.0
O291 O 0.66667 0.39317 0.40764 0.0
Cd292 Cd 0.62566 0.3727 0.4186 0.0
C293 C 0.61401 0.4065 0.3908 0.0
O294 O 0.63313 0.39168 0.44912 0.0
O295 O 0.59691 0.36966 0.44222 0.0
O296 O 0.63382 0.34218 0.42463 0.0
C297 C 0.612 0.38283 0.4541 0.0
O298 O 0.62567 0.42228 0.40274 0.0
C299 C 0.61535 0.32657 0.41701 0.0
O300 O 0.61188 0.38687 0.39272 0.0
O301 O 0.60147 0.3324 0.40993 0.0
C302 C 0.28482 0.5972 0.57305 0.0
O303 O 0.26627 0.58002 0.56706 0.0
Cd304 Cd 0.23348 0.58192 0.55477 0.0
O305 O 0.28705 0.61698 0.57276 0.0
Cd306 Cd 0.26488 0.63584 0.5633 0.0
C307 C 0.22051 0.60397 0.59374 0.0
O308 O 0.24907 0.61428 0.5342 0.0
O309 O 0.2365 0.63707 0.54183 0.0
O310 O 0.30144 0.66716 0.55186 0.0
C311 C 0.23651 0.62291 0.5301 0.0
O312 O 0.21493 0.58737 0.58245 0.0
C313 C 0.30074 0.68246 0.56172 0.0
O314 O 0.23856 0.62329 0.59072 0.0
O315 O 0.28322 0.67608 0.57254 0.0
C316 C 0.68744 0.27652 0.74346 0.0
O317 O 0.68525 0.25763 0.73816 0.0
Cd318 Cd 0.64936 0.22648 0.72625 0.0
O319 O 0.67015 0.27981 0.74282 0.0
Cd320 Cd 0.62866 0.25962 0.7335 0.0
C321 C 0.61416 0.21643 0.76478 0.0
O322 O 0.63511 0.24393 0.70467 0.0
O323 O 0.59922 0.23314 0.71092 0.0
O324 O 0.63637 0.29739 0.72443 0.0
C325 C 0.61393 0.23275 0.69968 0.0
O326 O 0.6237 0.20889 0.75348 0.0
C327 C 0.61847 0.29576 0.73247 0.0
O328 O 0.61495 0.23528 0.7616 0.0
O329 O 0.60522 0.27722 0.74105 0.0
C330 C 0.32977 0.59892 0.90403 0.0
O331 O 0.33245 0.58275 0.91013 0.0
Cd332 Cd 0.36766 0.58843 0.92503 0.0
O333 O 0.34623 0.61951 0.90532 0.0
Cd334 Cd 0.38675 0.64153 0.91677 0.0
C335 C 0.40494 0.61349 0.8878 0.0
O336 O 0.37955 0.62005 0.94602 0.0
O337 O 0.41542 0.64522 0.94062 0.0
O338 O 0.37667 0.67047 0.92464 0.0
C339 C 0.40051 0.6303 0.95166 0.0
O340 O 0.39544 0.59688 0.89937 0.0
C341 C 0.39465 0.68691 0.91716 0.0
O342 O 0.40295 0.63109 0.88993 0.0
O343 O 0.409 0.68221 0.90934 0.0
C344 C 0.73069 0.42045 0.07214 0.0
O345 O 0.74973 0.43656 0.0657 0.0
Cd346 Cd 0.78001 0.4307 0.05312 0.0
O347 O 0.72684 0.40008 0.07213 0.0
Cd348 Cd 0.74654 0.37891 0.06264 0.0
C349 C 0.79138 0.40857 0.09265 0.0
O350 O 0.76247 0.39819 0.03262 0.0
O351 O 0.77611 0.37723 0.04297 0.0
O352 O 0.70902 0.34926 0.0512 0.0
C353 C 0.77505 0.38929 0.0297 0.0
O354 O 0.79879 0.4244 0.08034 0.0
C355 C 0.70891 0.3331 0.06035 0.0
O356 O 0.77162 0.39056 0.09074 0.0
O357 O 0.72639 0.33824 0.07093 0.0
C358 C 0.31963 0.73985 0.23754 0.0
O359 O 0.32112 0.75727 0.2295 0.0
Cd360 Cd 0.35842 0.78906 0.22167 0.0
O361 O 0.33773 0.73817 0.24012 0.0
Cd362 Cd 0.37987 0.75846 0.23239 0.0
C363 C 0.38803 0.79876 0.2641 0.0
O364 O 0.37706 0.7739 0.20201 0.0
O365 O 0.41182 0.78782 0.21335 0.0
O366 O 0.37191 0.72096 0.22277 0.0
C367 C 0.39883 0.78653 0.19965 0.0
O368 O 0.37802 0.80501 0.25204 0.0
C369 C 0.38905 0.72163 0.23136 0.0
O370 O 0.39043 0.78159 0.26089 0.0
O371 O 0.40223 0.73966 0.24063 0.0
C372 C 0.12303 0.58095 0.26965 0.0
C373 C 0.11963 0.57358 0.28856 0.0
C374 C 0.14483 0.59836 0.26367 0.0
C375 C 0.20649 0.62569 0.27179 0.0
H376 H 0.21013 0.68144 0.25385 0.0
C377 C 0.29506 0.70635 0.25819 0.0
C378 C 0.29668 0.72101 0.24349 0.0
C379 C 0.27341 0.68824 0.26361 0.0
C380 C 0.20947 0.6659 0.25845 0.0
H381 H 0.13606 0.57786 0.31594 0.0
H382 H 0.17461 0.60788 0.30525 0.0
H383 H 0.17247 0.6491 0.26258 0.0
H384 H 0.27708 0.72813 0.22273 0.0
H385 H 0.23945 0.69592 0.23148 0.0
H386 H 0.24316 0.64184 0.26705 0.0
C387 C 0.16035 0.60037 0.29519 0.0
C388 C 0.18788 0.64746 0.26356 0.0
C389 C 0.13842 0.58333 0.30128 0.0
C390 C 0.27628 0.7172 0.23425 0.0
C391 C 0.25468 0.69878 0.23938 0.0
C392 C 0.22803 0.64393 0.26628 0.0
C393 C 0.16358 0.60824 0.27643 0.0
C394 C 0.18629 0.62732 0.27038 0.0
C395 C 0.25291 0.68404 0.25416 0.0
C396 C 0.22987 0.66439 0.25968 0.0
H397 H 0.10866 0.57372 0.25968 0.0
H398 H 0.14704 0.60422 0.24913 0.0
H399 H 0.20555 0.6102 0.27693 0.0
H400 H 0.31051 0.70903 0.26566 0.0
H401 H 0.27281 0.67768 0.27536 0.0
C402 C 0.57859 0.13382 0.44877 0.0
C403 C 0.55469 0.1177 0.44804 0.0
C404 C 0.58676 0.15615 0.44266 0.0
C405 C 0.57126 0.19269 0.41454 0.0
H406 H 0.61273 0.23987 0.4494 0.0
C407 C 0.5878 0.28487 0.4121 0.0
C408 C 0.61006 0.30266 0.41706 0.0
C409 C 0.58242 0.26219 0.41361 0.0
C410 C 0.60151 0.22699 0.4393 0.0
H411 H 0.52074 0.112 0.43951 0.0
H412 H 0.53497 0.15106 0.429 0.0
H413 H 0.60116 0.20038 0.45579 0.0
H414 H 0.64449 0.31074 0.42658 0.0
H415 H 0.63529 0.27129 0.42881 0.0
H416 H 0.57145 0.21935 0.39813 0.0
C417 C 0.5474 0.14643 0.43424 0.0
C418 C 0.59486 0.20433 0.44299 0.0
C419 C 0.53923 0.12414 0.44045 0.0
C420 C 0.62708 0.29738 0.42286 0.0
C421 C 0.62177 0.27476 0.42423 0.0
C422 C 0.57802 0.21542 0.41078 0.0
C423 C 0.5712 0.16277 0.43559 0.0
C424 C 0.57948 0.18691 0.43077 0.0
C425 C 0.59925 0.25687 0.41999 0.0
C426 C 0.59304 0.23282 0.42323 0.0
H427 H 0.59089 0.12938 0.45465 0.0
H428 H 0.60522 0.16833 0.44369 0.0
H429 H 0.55957 0.17962 0.40477 0.0
H430 H 0.57431 0.28843 0.40759 0.0
H431 H 0.56483 0.24884 0.41042 0.0
C432 C 0.4246 0.54732 0.63638 0.0
C433 C 0.44845 0.56359 0.63496 0.0
C434 C 0.40773 0.55229 0.63006 0.0
C435 C 0.39537 0.59779 0.61987 0.0
H436 H 0.34906 0.55372 0.58549 0.0
C437 C 0.32649 0.61318 0.58284 0.0
C438 C 0.30406 0.59426 0.58037 0.0
C439 C 0.34474 0.61033 0.58947 0.0
C440 C 0.36161 0.56606 0.59529 0.0
H441 H 0.47315 0.59824 0.62646 0.0
H442 H 0.44338 0.6071 0.61581 0.0
H443 H 0.37971 0.54744 0.59774 0.0
H444 H 0.28308 0.55758 0.58333 0.0
H445 H 0.31462 0.55265 0.59544 0.0
H446 H 0.37694 0.61612 0.61788 0.0
C447 C 0.43796 0.59042 0.6217 0.0
C448 C 0.37924 0.56249 0.60221 0.0
C449 C 0.45495 0.58536 0.62785 0.0
C450 C 0.30021 0.57248 0.58489 0.0
C451 C 0.31836 0.56965 0.59173 0.0
C452 C 0.37752 0.60124 0.61312 0.0
C453 C 0.41423 0.57374 0.62241 0.0
C454 C 0.39617 0.57822 0.61466 0.0
C455 C 0.34092 0.58851 0.59397 0.0
C456 C 0.36032 0.58531 0.60084 0.0
H457 H 0.41893 0.5306 0.64228 0.0
H458 H 0.38952 0.53928 0.6311 0.0
H459 H 0.40818 0.61009 0.62955 0.0
H460 H 0.33005 0.6302 0.57938 0.0
H461 H 0.36193 0.6252 0.59076 0.0
C462 C 0.87308 0.44369 0.79107 0.0
C463 C 0.8919 0.43967 0.79007 0.0
C464 C 0.85061 0.42657 0.78607 0.0
C465 C 0.8153 0.36416 0.78169 0.0
H466 H 0.77379 0.37649 0.75176 0.0
C467 C 0.73007 0.29241 0.74969 0.0
C468 C 0.71041 0.29515 0.74988 0.0
C469 C 0.75188 0.31029 0.7551 0.0
C470 C 0.78507 0.37282 0.76034 0.0
H471 H 0.90217 0.41505 0.78208 0.0
H472 H 0.86311 0.38529 0.77338 0.0
H473 H 0.81258 0.40765 0.75989 0.0
H474 H 0.69823 0.3188 0.75618 0.0
H475 H 0.73623 0.34987 0.76583 0.0
H476 H 0.78791 0.32938 0.78218 0.0
C477 C 0.86556 0.40143 0.77844 0.0
C478 C 0.80728 0.39067 0.76497 0.0
C479 C 0.88793 0.41849 0.78341 0.0
C480 C 0.71302 0.31611 0.75581 0.0
C481 C 0.73483 0.33399 0.76123 0.0
C482 C 0.79312 0.34635 0.7771 0.0
C483 C 0.84659 0.40514 0.77998 0.0
C484 C 0.8227 0.38647 0.77554 0.0
C485 C 0.75453 0.33132 0.76085 0.0
C486 C 0.77781 0.35043 0.76624 0.0
H487 H 0.87559 0.4598 0.79627 0.0
H488 H 0.8363 0.42987 0.78749 0.0
H489 H 0.82663 0.36046 0.79018 0.0
H490 H 0.7287 0.27653 0.74514 0.0
H491 H 0.76676 0.30778 0.75442 0.0
C492 C 0.42931 0.87843 0.9529 0.0
C493 C 0.45276 0.89491 0.94976 0.0
C494 C 0.42071 0.85592 0.94707 0.0
C495 C 0.4329 0.81934 0.91576 0.0
H496 H 0.39779 0.77272 0.95322 0.0
C497 C 0.42017 0.72881 0.91175 0.0
C498 C 0.39895 0.71047 0.91807 0.0
C499 C 0.42474 0.75118 0.9137 0.0
C500 C 0.4072 0.78544 0.94244 0.0
H501 H 0.48529 0.90099 0.9373 0.0
H502 H 0.47035 0.86167 0.9273 0.0
H503 H 0.40905 0.81213 0.95982 0.0
H504 H 0.36551 0.70113 0.93073 0.0
H505 H 0.37334 0.74012 0.93387 0.0
H506 H 0.43131 0.79264 0.89848 0.0
C507 C 0.45858 0.86613 0.9342 0.0
C508 C 0.41367 0.80804 0.94624 0.0
C509 C 0.46721 0.88859 0.94012 0.0
C510 C 0.38212 0.71491 0.92587 0.0
C511 C 0.38665 0.73727 0.92775 0.0
C512 C 0.42636 0.79669 0.91192 0.0
C513 C 0.43534 0.84948 0.93787 0.0
C514 C 0.42686 0.82528 0.93306 0.0
C515 C 0.40815 0.75569 0.92195 0.0
C516 C 0.4137 0.77952 0.92533 0.0
H517 H 0.4178 0.88278 0.96038 0.0
H518 H 0.40265 0.84349 0.94993 0.0
H519 H 0.44281 0.83223 0.90523 0.0
H520 H 0.43349 0.72593 0.90569 0.0
H521 H 0.44159 0.76497 0.9093 0.0
C522 C 0.601 0.48174 0.13969 0.0
C523 C 0.57706 0.46556 0.13936 0.0
C524 C 0.61734 0.47621 0.13299 0.0
C525 C 0.62762 0.42907 0.12329 0.0
H526 H 0.67294 0.47078 0.08709 0.0
C527 C 0.69007 0.4075 0.08324 0.0
C528 C 0.7129 0.42531 0.07986 0.0
C529 C 0.67326 0.41204 0.0906 0.0
C530 C 0.66067 0.45911 0.09739 0.0
H531 H 0.55164 0.43061 0.13222 0.0
H532 H 0.5804 0.42081 0.12092 0.0
H533 H 0.64422 0.47921 0.10045 0.0
H534 H 0.73607 0.46184 0.08178 0.0
H535 H 0.70698 0.46972 0.09512 0.0
H536 H 0.64432 0.40918 0.12061 0.0
C537 C 0.58637 0.43781 0.12631 0.0
C538 C 0.64416 0.46391 0.10498 0.0
C539 C 0.56994 0.44342 0.13284 0.0
C540 C 0.71858 0.44775 0.08407 0.0
C541 C 0.70184 0.45227 0.09163 0.0
C542 C 0.64433 0.42437 0.11587 0.0
C543 C 0.61017 0.4543 0.12603 0.0
C544 C 0.62751 0.44896 0.118 0.0
C545 C 0.67894 0.43448 0.09494 0.0
C546 C 0.66107 0.43935 0.10283 0.0
H547 H 0.60716 0.49878 0.14505 0.0
H548 H 0.63564 0.48911 0.13323 0.0
H549 H 0.61508 0.41737 0.13344 0.0
H550 H 0.6851 0.39002 0.08003 0.0
H551 H 0.65572 0.39796 0.09265 0.0
C552 C 0.44507 0.87367 0.51473 0.0
C553 C 0.44745 0.89215 0.52552 0.0
C554 C 0.43127 0.85136 0.52123 0.0
C555 C 0.38074 0.81685 0.5509 0.0
H556 H 0.39996 0.77161 0.54661 0.0
C557 C 0.31961 0.72313 0.57244 0.0
C558 C 0.31924 0.70658 0.56024 0.0
C559 C 0.33679 0.74603 0.57051 0.0
C560 C 0.39425 0.78399 0.54776 0.0
H561 H 0.4379 0.90162 0.55201 0.0
H562 H 0.41333 0.86258 0.56308 0.0
H563 H 0.42746 0.81129 0.53882 0.0
H564 H 0.33669 0.70099 0.53659 0.0
H565 H 0.36614 0.74083 0.53289 0.0
H566 H 0.3473 0.78957 0.55911 0.0
C567 C 0.42209 0.86545 0.54955 0.0
C568 C 0.41003 0.80671 0.54336 0.0
C569 C 0.43608 0.88778 0.54315 0.0
C570 C 0.33654 0.71332 0.54626 0.0
C571 C 0.35357 0.73618 0.54424 0.0
C572 C 0.36487 0.7941 0.55512 0.0
C573 C 0.41939 0.84703 0.53856 0.0
C574 C 0.40333 0.82329 0.54466 0.0
C575 C 0.35386 0.75286 0.55626 0.0
C576 C 0.37132 0.77732 0.55334 0.0
H577 H 0.45326 0.87634 0.50097 0.0
H578 H 0.42925 0.83744 0.51236 0.0
H579 H 0.37504 0.82926 0.55183 0.0
H580 H 0.30658 0.71841 0.58343 0.0
H581 H 0.33668 0.75837 0.58019 0.0
C582 C 0.54998 0.43184 0.71068 0.0
C583 C 0.56627 0.45178 0.7013 0.0
C584 C 0.55608 0.4159 0.71667 0.0
C585 C 0.60652 0.40736 0.72517 0.0
H586 H 0.56078 0.34399 0.71583 0.0
C587 C 0.62896 0.33534 0.72312 0.0
C588 C 0.61313 0.31444 0.73154 0.0
C589 C 0.62358 0.35273 0.72157 0.0
C590 C 0.57362 0.36158 0.71878 0.0
H591 H 0.60184 0.47099 0.69117 0.0
H592 H 0.61246 0.44295 0.70131 0.0
H593 H 0.5509 0.37337 0.70931 0.0
H594 H 0.57945 0.29551 0.7453 0.0
H595 H 0.57001 0.3259 0.74251 0.0
H596 H 0.62944 0.39543 0.73415 0.0
C597 C 0.59507 0.43978 0.70437 0.0
C598 C 0.56796 0.37844 0.71508 0.0
C599 C 0.589 0.45583 0.69851 0.0
C600 C 0.59197 0.31141 0.73868 0.0
C601 C 0.58653 0.32875 0.73702 0.0
C602 C 0.61223 0.39047 0.72877 0.0
C603 C 0.57856 0.41946 0.71326 0.0
C604 C 0.58438 0.40156 0.71811 0.0
C605 C 0.6022 0.34952 0.72831 0.0
C606 C 0.59588 0.36742 0.72549 0.0
H607 H 0.53243 0.42849 0.71328 0.0
H608 H 0.54308 0.40068 0.72384 0.0
H609 H 0.61945 0.42496 0.72793 0.0
H610 H 0.64543 0.33821 0.71752 0.0
H611 H 0.63589 0.36846 0.71462 0.0
C612 C 0.14493 0.57668 0.84721 0.0
C613 C 0.12861 0.55461 0.84106 0.0
C614 C 0.16746 0.58195 0.85238 0.0
C615 C 0.199 0.55482 0.87079 0.0
H616 H 0.25462 0.61007 0.85509 0.0
C617 C 0.29054 0.57158 0.89052 0.0
C618 C 0.30731 0.59395 0.89552 0.0
C619 C 0.26924 0.56693 0.8827 0.0
C620 C 0.23924 0.59469 0.85979 0.0
H621 H 0.12364 0.52118 0.83444 0.0
H622 H 0.16274 0.5303 0.84383 0.0
H623 H 0.21655 0.60211 0.84345 0.0
H624 H 0.31489 0.62901 0.89623 0.0
H625 H 0.27754 0.62082 0.88314 0.0
H626 H 0.22136 0.54758 0.88753 0.0
C627 C 0.15798 0.5434 0.84489 0.0
C628 C 0.21748 0.59013 0.85307 0.0
C629 C 0.13557 0.53818 0.83958 0.0
C630 C 0.30238 0.61159 0.89244 0.0
C631 C 0.28099 0.60691 0.88481 0.0
C632 C 0.22069 0.55947 0.87767 0.0
C633 C 0.17402 0.56522 0.85159 0.0
C634 C 0.19718 0.57013 0.85849 0.0
C635 C 0.26412 0.58452 0.87988 0.0
C636 C 0.2411 0.57946 0.87225 0.0
H637 H 0.14007 0.58966 0.84866 0.0
H638 H 0.17948 0.59888 0.85762 0.0
H639 H 0.18357 0.53943 0.87542 0.0
H640 H 0.29389 0.55764 0.89256 0.0
H641 H 0.25683 0.54955 0.87876 0.0
C642 C 0.57557 0.12953 0.03773 0.0
C643 C 0.56179 0.12381 0.02126 0.0
C644 C 0.58927 0.15225 0.04328 0.0
C645 C 0.61692 0.2103 0.02327 0.0
H646 H 0.629 0.22876 0.076 0.0
C647 C 0.67195 0.30427 0.0448 0.0
C648 C 0.68975 0.30937 0.05804 0.0
C649 C 0.65466 0.28176 0.04152 0.0
C650 C 0.62583 0.22379 0.06122 0.0
H651 H 0.5511 0.13756 -0.00193 0.0
H652 H 0.57425 0.17704 0.00815 0.0
H653 H 0.6011 0.18915 0.06805 0.0
H654 H 0.70292 0.29493 0.07871 0.0
H655 H 0.67254 0.25545 0.07297 0.0
H656 H 0.64157 0.24491 0.01645 0.0
C657 C 0.57491 0.164 0.01654 0.0
C658 C 0.60991 0.20112 0.05665 0.0
C659 C 0.56136 0.1413 0.0109 0.0
C660 C 0.68946 0.29152 0.06839 0.0
C661 C 0.67202 0.26895 0.06518 0.0
C662 C 0.63264 0.23294 0.02783 0.0
C663 C 0.58938 0.1698 0.03259 0.0
C664 C 0.60537 0.19408 0.0376 0.0
C665 C 0.65469 0.26385 0.05147 0.0
C666 C 0.63737 0.2399 0.04684 0.0
H667 H 0.576 0.11646 0.04624 0.0
H668 H 0.60031 0.15606 0.05563 0.0
H669 H 0.61428 0.20543 0.00846 0.0
H670 H 0.6716 0.31764 0.03665 0.0
H671 H 0.64133 0.27833 0.03104 0.0
C672 C 0.44736 0.58636 0.18304 0.0
C673 C 0.44708 0.57057 0.19609 0.0
C674 C 0.43907 0.60087 0.18816 0.0
C675 C 0.42771 0.62678 0.22959 0.0
H676 H 0.3937 0.64139 0.1928 0.0
C677 C 0.41467 0.70471 0.23666 0.0
C678 C 0.39361 0.70246 0.23008 0.0
C679 C 0.41946 0.687 0.23415 0.0
C680 C 0.4029 0.63731 0.20337 0.0
H681 H 0.43762 0.55744 0.22469 0.0
H682 H 0.42269 0.58264 0.23356 0.0
H683 H 0.40433 0.61283 0.1852 0.0
H684 H 0.3606 0.67954 0.21656 0.0
H685 H 0.36874 0.64857 0.21254 0.0
H686 H 0.42605 0.65118 0.24783 0.0
C687 C 0.42962 0.58392 0.21943 0.0
C688 C 0.40926 0.62113 0.1989 0.0
C689 C 0.43793 0.56935 0.2143 0.0
C690 C 0.37711 0.6819 0.22159 0.0
C691 C 0.38182 0.66417 0.2192 0.0
C692 C 0.42129 0.64298 0.23409 0.0
C693 C 0.43019 0.59991 0.20643 0.0
C694 C 0.42201 0.61589 0.21184 0.0
C695 C 0.40322 0.66666 0.22512 0.0
C696 C 0.40902 0.64859 0.22094 0.0
H697 H 0.45402 0.58752 0.16882 0.0
H698 H 0.44003 0.61316 0.17786 0.0
H699 H 0.43768 0.62324 0.23982 0.0
H700 H 0.42772 0.72038 0.24326 0.0
H701 H 0.43621 0.68956 0.23871 0.0
C702 C 0.8715 0.46191 0.33385 0.0
C703 C 0.88215 0.4503 0.34148 0.0
C704 C 0.84894 0.45608 0.33922 0.0
C705 C 0.79606 0.41226 0.36461 0.0
H706 H 0.78619 0.46343 0.37234 0.0
C707 C 0.70681 0.40028 0.38747 0.0
C708 C 0.70694 0.41629 0.4002 0.0
C709 C 0.72756 0.40371 0.37937 0.0
C710 C 0.78868 0.44894 0.37045 0.0
H711 H 0.87762 0.4231 0.36018 0.0
H712 H 0.83835 0.41326 0.37017 0.0
H713 H 0.82314 0.47004 0.35991 0.0
H714 H 0.72899 0.44826 0.41465 0.0
H715 H 0.7652 0.45392 0.40102 0.0
H716 H 0.76192 0.39133 0.37609 0.0
C717 C 0.84713 0.42654 0.35969 0.0
C718 C 0.80979 0.45269 0.36298 0.0
C719 C 0.86962 0.43218 0.35406 0.0
C720 C 0.72827 0.43571 0.40476 0.0
C721 C 0.74903 0.43901 0.39684 0.0
C722 C 0.77498 0.40854 0.37228 0.0
C723 C 0.8367 0.43875 0.35263 0.0
C724 C 0.81379 0.43442 0.35998 0.0
C725 C 0.74894 0.42312 0.38396 0.0
C726 C 0.77109 0.42687 0.37539 0.0
H727 H 0.88081 0.47579 0.32394 0.0
H728 H 0.84126 0.46543 0.33309 0.0
H729 H 0.79842 0.39776 0.36231 0.0
H730 H 0.69063 0.38518 0.38358 0.0
H731 H 0.72677 0.39129 0.3693 0.0
C732 C 0.0959 0.56563 0.39927 0.0
C733 C 0.0891 0.54379 0.39213 0.0
C734 C 0.11272 0.57524 0.41352 0.0
C735 C 0.16173 0.57284 0.43512 0.0
H736 H 0.14869 0.59885 0.47913 0.0
C737 C 0.21764 0.5963 0.50288 0.0
C738 C 0.22121 0.61546 0.51327 0.0
C739 C 0.20239 0.58862 0.48746 0.0
C740 C 0.15283 0.59203 0.46681 0.0
H741 H 0.09473 0.51498 0.39451 0.0
H742 H 0.12447 0.53205 0.4191 0.0
H743 H 0.12057 0.58364 0.45328 0.0
H744 H 0.21214 0.64198 0.51535 0.0
H745 H 0.18602 0.62898 0.4881 0.0
H746 H 0.19408 0.58142 0.44845 0.0
C747 C 0.11678 0.54169 0.41356 0.0
C748 C 0.13665 0.58324 0.45204 0.0
C749 C 0.09978 0.53196 0.39944 0.0
C750 C 0.2096 0.62706 0.50769 0.0
C751 C 0.19452 0.61951 0.49214 0.0
C752 C 0.17803 0.58184 0.44979 0.0
C753 C 0.12331 0.56337 0.4208 0.0
C754 C 0.14086 0.57339 0.43613 0.0
C755 C 0.19054 0.60006 0.48194 0.0
C756 C 0.17369 0.59137 0.46591 0.0
H757 H 0.08841 0.57543 0.39372 0.0
H758 H 0.11766 0.59211 0.4187 0.0
H759 H 0.16553 0.5656 0.42288 0.0
H760 H 0.22626 0.58693 0.50691 0.0
H761 H 0.1995 0.57338 0.48015 0.0
C762 C 0.5343 0.1045 0.56309 0.0
C763 C 0.549 0.09687 0.5559 0.0
C764 C 0.54174 0.12037 0.57784 0.0
C765 C 0.58526 0.14352 0.6166 0.0
H766 H 0.5668 0.18943 0.61959 0.0
C767 C 0.62297 0.2151 0.67233 0.0
C768 C 0.60674 0.21862 0.68236 0.0
C769 C 0.61612 0.20108 0.65635 0.0
C770 C 0.57194 0.17659 0.61897 0.0
H771 H 0.58329 0.10038 0.55847 0.0
H772 H 0.59658 0.1287 0.58353 0.0
H773 H 0.55498 0.16388 0.59229 0.0
H774 H 0.57072 0.21066 0.6833 0.0
H775 H 0.55879 0.18626 0.65518 0.0
H776 H 0.60247 0.15648 0.64315 0.0
C777 C 0.57907 0.12202 0.57809 0.0
C778 C 0.56514 0.16191 0.60337 0.0
C779 C 0.57156 0.106 0.56348 0.0
C780 C 0.5836 0.2082 0.67588 0.0
C781 C 0.5768 0.19436 0.65975 0.0
C782 C 0.59223 0.15833 0.63206 0.0
C783 C 0.56414 0.12915 0.58566 0.0
C784 C 0.57169 0.14515 0.60201 0.0
C785 C 0.59296 0.19048 0.64996 0.0
C786 C 0.58562 0.17497 0.63342 0.0
H787 H 0.51695 0.09812 0.5574 0.0
H788 H 0.52969 0.12531 0.5834 0.0
H789 H 0.59019 0.13052 0.61628 0.0
H790 H 0.64094 0.22291 0.67696 0.0
H791 H 0.62898 0.19856 0.64896 0.0
C792 C 0.47642 0.58172 0.73748 0.0
C793 C 0.49141 0.57281 0.73946 0.0
C794 C 0.46873 0.58826 0.75348 0.0
C795 C 0.45476 0.57398 0.80261 0.0
H796 H 0.46236 0.6341 0.80925 0.0
C797 C 0.42758 0.59772 0.87216 0.0
C798 C 0.4176 0.61171 0.87129 0.0
C799 C 0.4382 0.5947 0.85623 0.0
C800 C 0.45975 0.61711 0.80752 0.0
H801 H 0.51011 0.56366 0.75952 0.0
H802 H 0.49616 0.57453 0.78754 0.0
H803 H 0.47726 0.62546 0.78062 0.0
H804 H 0.41114 0.63377 0.85319 0.0
H805 H 0.42871 0.62771 0.82507 0.0
H806 H 0.43642 0.56504 0.82886 0.0
C807 C 0.49066 0.57675 0.77362 0.0
C808 C 0.46841 0.61227 0.79117 0.0
C809 C 0.4987 0.57065 0.75765 0.0
C810 C 0.41884 0.62299 0.85428 0.0
C811 C 0.42903 0.61958 0.83818 0.0
C812 C 0.44571 0.57864 0.81874 0.0
C813 C 0.47554 0.58549 0.77167 0.0
C814 C 0.46612 0.59072 0.7887 0.0
C815 C 0.43861 0.60515 0.83888 0.0
C816 C 0.44824 0.60033 0.82153 0.0
H817 H 0.47063 0.58357 0.72357 0.0
H818 H 0.45696 0.59486 0.75169 0.0
H819 H 0.45253 0.55713 0.80085 0.0
H820 H 0.42714 0.58905 0.88518 0.0
H821 H 0.44598 0.58402 0.85755 0.0
C822 C 0.92741 0.45894 0.90953 0.0
C823 C 0.92222 0.46518 0.89194 0.0
C824 C 0.91025 0.44872 0.92346 0.0
C825 C 0.85745 0.44604 0.9405 0.0
H826 H 0.84593 0.39094 0.96643 0.0
C827 C 0.78537 0.40451 -0.00325 0.0
C828 C 0.79002 0.39515 0.01277 0.0
C829 C 0.80018 0.41116 0.98107 0.0
C830 C 0.84911 0.4065 0.95952 0.0
H831 H 0.89457 0.46487 0.87515 0.0
H832 H 0.86497 0.44787 0.89981 0.0
H833 H 0.87479 0.40646 0.94105 0.0
H834 H 0.81361 0.38517 0.02491 0.0
H835 H 0.84001 0.39762 -0.00208 0.0
H836 H 0.83269 0.44685 0.95933 0.0
C837 C 0.88236 0.45092 0.90269 0.0
C838 C 0.86555 0.41528 0.94493 0.0
C839 C 0.89939 0.4608 0.88864 0.0
C840 C 0.80954 0.39223 0.0127 0.0
C841 C 0.82459 0.39925 -0.00285 0.0
C842 C 0.8413 0.4375 0.95528 0.0
C843 C 0.88766 0.44485 0.92022 0.0
C844 C 0.86986 0.43514 0.93533 0.0
C845 C 0.82023 0.409 0.98118 0.0
C846 C 0.83692 0.41762 0.96502 0.0
H847 H 0.94485 0.46237 0.91273 0.0
H848 H 0.91481 0.44441 0.93697 0.0
H849 H 0.86069 0.46155 0.93344 0.0
H850 H 0.77029 0.40673 0.99635 0.0
H851 H 0.79591 0.41808 0.96888 0.0
C852 C 0.45416 0.89839 0.05279 0.0
C853 C 0.47316 0.92055 0.05526 0.0
C854 C 0.44712 0.88244 0.06743 0.0
C855 C 0.46594 0.86769 0.11137 0.0
H856 H 0.40079 0.83922 0.12555 0.0
C857 C 0.43116 0.81882 0.18186 0.0
C858 C 0.40834 0.8002 0.18225 0.0
C859 C 0.43968 0.83235 0.16563 0.0
C860 C 0.41894 0.84661 0.12161 0.0
H861 H 0.49997 0.94303 0.07506 0.0
H862 H 0.48802 0.91492 0.10038 0.0
H863 H 0.41484 0.86435 0.09818 0.0
H864 H 0.37684 0.78054 0.16579 0.0
H865 H 0.39191 0.80351 0.13727 0.0
H866 H 0.47008 0.84975 0.13461 0.0
C867 C 0.47862 0.91 0.08706 0.0
C868 C 0.42698 0.86109 0.10595 0.0
C869 C 0.48549 0.92606 0.07251 0.0
C870 C 0.39443 0.79496 0.16596 0.0
C871 C 0.40304 0.80825 0.14965 0.0
C872 C 0.45784 0.85292 0.12691 0.0
C873 C 0.45912 0.88819 0.08477 0.0
C874 C 0.45057 0.87191 0.10078 0.0
C875 C 0.42566 0.82734 0.14934 0.0
C876 C 0.43426 0.84233 0.13234 0.0
H877 H 0.44458 0.89336 0.03957 0.0
H878 H 0.4322 0.86561 0.06525 0.0
H879 H 0.4842 0.87571 0.10757 0.0
H880 H 0.44225 0.8233 0.19425 0.0
H881 H 0.45705 0.84708 0.16606 0.0
C882 C 0.55305 0.47682 0.25611 0.0
C883 C 0.53694 0.4607 0.24337 0.0
C884 C 0.56017 0.4698 0.27211 0.0
C885 C 0.56557 0.42261 0.29166 0.0
H886 H 0.5676 0.45087 0.33994 0.0
C887 C 0.58885 0.394 0.36165 0.0
C888 C 0.60342 0.41138 0.37429 0.0
C889 C 0.57934 0.3989 0.34586 0.0
C890 C 0.56738 0.44298 0.32655 0.0
H891 H 0.51601 0.42465 0.23715 0.0
H892 H 0.52858 0.41234 0.26517 0.0
H893 H 0.55416 0.46172 0.31179 0.0
H894 H 0.61945 0.44758 0.38018 0.0
H895 H 0.60335 0.45615 0.35258 0.0
H896 H 0.57928 0.40423 0.3063 0.0
C897 C 0.53563 0.4304 0.26275 0.0
C898 C 0.55963 0.44917 0.31044 0.0
C899 C 0.52833 0.43742 0.24682 0.0
C900 C 0.60818 0.43373 0.37082 0.0
C901 C 0.59881 0.43863 0.35503 0.0
C902 C 0.5735 0.41653 0.30777 0.0
C903 C 0.55147 0.44652 0.27563 0.0
C904 C 0.55885 0.43921 0.2928 0.0
C905 C 0.58428 0.42131 0.34234 0.0
C906 C 0.57471 0.42681 0.32537 0.0
H907 H 0.55981 0.49486 0.25391 0.0
H908 H 0.57258 0.48261 0.28169 0.0
H909 H 0.56531 0.4148 0.27821 0.0
H910 H 0.58475 0.37659 0.36394 0.0
H911 H 0.56799 0.38511 0.3365 0.0
C912 C 0.4454 0.91692 0.40629 0.0
C913 C 0.46396 0.91831 0.41695 0.0
C914 C 0.43675 0.90243 0.39065 0.0
C915 C 0.45301 0.87169 0.35611 0.0
H916 H 0.38718 0.84165 0.34375 0.0
C917 C 0.41151 0.80776 0.294 0.0
C918 C 0.39666 0.81144 0.28212 0.0
C919 C 0.41958 0.81972 0.31104 0.0
C920 C 0.40562 0.85003 0.347 0.0
H921 H 0.48764 0.90521 0.41995 0.0
H922 H 0.47219 0.87943 0.39284 0.0
H923 H 0.40118 0.86374 0.3729 0.0
H924 H 0.37854 0.83047 0.2789 0.0
H925 H 0.39247 0.85115 0.30872 0.0
H926 H 0.45729 0.85769 0.3302 0.0
C927 C 0.46465 0.88994 0.39629 0.0
C928 C 0.41368 0.86274 0.36366 0.0
C929 C 0.47346 0.90462 0.41185 0.0
C930 C 0.38998 0.82725 0.2877 0.0
C931 C 0.39783 0.83899 0.30482 0.0
C932 C 0.44489 0.85876 0.33953 0.0
C933 C 0.4463 0.8888 0.3854 0.0
C934 C 0.43753 0.87401 0.3683 0.0
C935 C 0.41272 0.83537 0.31665 0.0
C936 C 0.42117 0.84806 0.3347 0.0
H937 H 0.438 0.92756 0.4097 0.0
H938 H 0.42294 0.90238 0.3824 0.0
H939 H 0.47153 0.88038 0.35906 0.0
H940 H 0.41701 0.79572 0.29011 0.0
H941 H 0.43095 0.81652 0.31995 0.0
C942 C 0.54017 0.4428 0.59037 0.0
C943 C 0.5566 0.46511 0.59597 0.0
C944 C 0.54564 0.43166 0.57637 0.0
C945 C 0.59447 0.43107 0.55255 0.0
H946 H 0.55197 0.40505 0.51011 0.0
C947 C 0.62201 0.40802 0.48249 0.0
C948 C 0.60532 0.38941 0.47195 0.0
C949 C 0.61554 0.41515 0.49879 0.0
C950 C 0.56385 0.4118 0.52201 0.0
H951 H 0.59176 0.49309 0.59117 0.0
H952 H 0.60141 0.47336 0.56714 0.0
H953 H 0.54157 0.4211 0.53671 0.0
H954 H 0.56893 0.36315 0.47054 0.0
H955 H 0.55772 0.37516 0.49932 0.0
H956 H 0.61671 0.42169 0.53802 0.0
C957 C 0.58434 0.46453 0.57367 0.0
C958 C 0.55789 0.42107 0.53721 0.0
C959 C 0.5788 0.47579 0.58749 0.0
C960 C 0.58214 0.37767 0.47831 0.0
C961 C 0.5757 0.38465 0.49475 0.0
C962 C 0.60031 0.42155 0.53747 0.0
C963 C 0.56774 0.44246 0.56786 0.0
C964 C 0.57331 0.43111 0.55247 0.0
C965 C 0.59228 0.40368 0.50506 0.0
C966 C 0.58525 0.41213 0.52184 0.0
H967 H 0.52308 0.43386 0.59684 0.0
H968 H 0.53262 0.41453 0.57225 0.0
H969 H 0.60652 0.43845 0.56429 0.0
H970 H 0.64 0.41748 0.47789 0.0
H971 H 0.62873 0.4301 0.50613 0.0
C972 C 0.10471 0.58115 0.7374 0.0
C973 C 0.08918 0.55795 0.74093 0.0
C974 C 0.11912 0.58789 0.72141 0.0
C975 C 0.12342 0.56841 0.67385 0.0
H976 H 0.18963 0.61144 0.67813 0.0
C977 C 0.18713 0.57861 0.61477 0.0
C978 C 0.20572 0.60047 0.61057 0.0
C979 C 0.17299 0.57503 0.63051 0.0
C980 C 0.17112 0.59969 0.67663 0.0
H981 H 0.07634 0.52365 0.73045 0.0
H982 H 0.10145 0.53537 0.70259 0.0
H983 H 0.16467 0.60234 0.70604 0.0
H984 H 0.22402 0.63578 0.61969 0.0
H985 H 0.19902 0.62954 0.64713 0.0
H986 H 0.12968 0.56569 0.64454 0.0
C987 C 0.10249 0.54836 0.71214 0.0
C988 C 0.15685 0.59445 0.69262 0.0
C989 C 0.08829 0.54163 0.72818 0.0
C990 C 0.20987 0.61871 0.62255 0.0
C991 C 0.19561 0.61512 0.63831 0.0
C992 C 0.13761 0.57374 0.65788 0.0
C993 C 0.11802 0.57154 0.70857 0.0
C994 C 0.13294 0.57845 0.69144 0.0
C995 C 0.17696 0.59323 0.64243 0.0
C996 C 0.1617 0.5891 0.65914 0.0
H997 H 0.10584 0.59407 0.74707 0.0
H998 H 0.13087 0.60587 0.71895 0.0
H999 H 0.10496 0.55635 0.67245 0.0
H1000 H 0.1835 0.56412 0.60596 0.0
H1001 H 0.1591 0.55787 0.63346 0.0
C1002 C 0.5427 0.11639 0.9163 0.0
C1003 C 0.52972 0.09271 0.91372 0.0
C1004 C 0.54961 0.13103 0.90068 0.0
C1005 C 0.53958 0.13202 0.84848 0.0
H1006 H 0.6009 0.18604 0.84995 0.0
C1007 C 0.5936 0.17958 0.78245 0.0
C1008 C 0.60231 0.20321 0.78194 0.0
C1009 C 0.58285 0.16709 0.79878 0.0
C1010 C 0.58365 0.17112 0.84945 0.0
H1011 H 0.51389 0.06567 0.89295 0.0
H1012 H 0.52668 0.09095 0.86567 0.0
H1013 H 0.58571 0.1623 0.87815 0.0
H1014 H 0.60666 0.23229 0.7981 0.0
H1015 H 0.58846 0.21041 0.82695 0.0
H1016 H 0.53832 0.14036 0.81935 0.0
C1017 C 0.53088 0.09847 0.87968 0.0
C1018 C 0.57483 0.15755 0.86563 0.0
C1019 C 0.52363 0.0839 0.8953 0.0
C1020 C 0.60002 0.21409 0.79807 0.0
C1021 C 0.58971 0.20165 0.81456 0.0
C1022 C 0.54862 0.14535 0.83223 0.0
C1023 C 0.54407 0.12226 0.88211 0.0
C1024 C 0.55276 0.13764 0.86531 0.0
C1025 C 0.58104 0.17805 0.81502 0.0
C1026 C 0.5708 0.16488 0.83254 0.0
H1027 H 0.54745 0.12355 0.93042 0.0
H1028 H 0.55933 0.14921 0.90319 0.0
H1029 H 0.52231 0.11719 0.84777 0.0
H1030 H 0.59504 0.17073 0.7702 0.0
H1031 H 0.57641 0.14892 0.79887 0.0
C1032 C 0.47656 0.5768 0.08924 0.0
C1033 C 0.46144 0.55419 0.09499 0.0
C1034 C 0.47011 0.58663 0.07479 0.0
C1035 C 0.41956 0.58215 0.04961 0.0
H1036 H 0.46306 0.61193 0.00836 0.0
C1037 C 0.39146 0.60383 0.97905 0.0
C1038 C 0.40745 0.62364 0.96935 0.0
C1039 C 0.39823 0.59686 0.99529 0.0
C1040 C 0.45084 0.60406 0.01991 0.0
H1041 H 0.42759 0.52428 0.08997 0.0
H1042 H 0.4162 0.54168 0.06507 0.0
H1043 H 0.47454 0.59721 0.03526 0.0
H1044 H 0.44287 0.65209 0.96933 0.0
H1045 H 0.45456 0.6403 -0.002 0.0
H1046 H 0.39589 0.58911 0.03443 0.0
C1047 C 0.43301 0.55176 0.07184 0.0
C1048 C 0.45742 0.59556 0.03529 0.0
C1049 C 0.43953 0.54183 0.08615 0.0
C1050 C 0.43021 0.63664 0.97644 0.0
C1051 C 0.43694 0.6298 0.99281 0.0
C1052 C 0.41305 0.59086 0.03433 0.0
C1053 C 0.44831 0.57418 0.06592 0.0
C1054 C 0.44175 0.58429 0.05017 0.0
C1055 C 0.42109 0.60969 0.00233 0.0
C1056 C 0.4285 0.60167 0.01916 0.0
H1057 H 0.49336 0.58699 0.09597 0.0
H1058 H 0.48213 0.60405 0.07063 0.0
H1059 H 0.40726 0.57379 0.06103 0.0
H1060 H 0.37381 0.59338 0.97388 0.0
H1061 H 0.38566 0.58109 0.00203 0.0
C1062 C 0.8971 0.44334 0.24298 0.0
C1063 C 0.92134 0.45344 0.24073 0.0
C1064 C 0.8825 0.43681 0.22712 0.0
C1065 C 0.88178 0.4519 0.17819 0.0
H1066 H 0.82911 0.39096 0.17159 0.0
C1067 C 0.83008 0.4263 0.10869 0.0
C1068 C 0.80589 0.41155 0.10948 0.0
C1069 C 0.84387 0.43009 0.12472 0.0
C1070 C 0.84351 0.40816 0.17332 0.0
H1071 H 0.94938 0.4647 0.22032 0.0
H1072 H 0.92386 0.45375 0.19255 0.0
H1073 H 0.85339 0.40014 0.19995 0.0
H1074 H 0.77711 0.38899 0.12761 0.0
H1075 H 0.80103 0.39633 0.15591 0.0
H1076 H 0.8717 0.46043 0.15215 0.0
C1077 C 0.91619 0.45067 0.20657 0.0
C1078 C 0.85745 0.41333 0.18952 0.0
C1079 C 0.93073 0.4568 0.2224 0.0
C1080 C 0.79576 0.40038 0.12658 0.0
C1081 C 0.80952 0.40452 0.14277 0.0
C1082 C 0.86765 0.4469 0.16221 0.0
C1083 C 0.89198 0.44071 0.20879 0.0
C1084 C 0.87681 0.43518 0.19196 0.0
C1085 C 0.83376 0.41961 0.14209 0.0
C1086 C 0.84845 0.42489 0.15942 0.0
H1087 H 0.88949 0.44052 0.25701 0.0
H1088 H 0.86387 0.42925 0.22915 0.0
H1089 H 0.89644 0.46898 0.17993 0.0
H1090 H 0.83842 0.4349 0.09562 0.0
H1091 H 0.86251 0.44129 0.12343 0.0
loop_
_geom_bond_atom_site_label_1
_geom_bond_atom_site_label_2
_geom_bond_distance
_geom_bond_site_symmetry_2
_ccdc_geom_bond_type
H0 C19 0.949 . S
H1 C20 0.950 . S
H2 C22 0.950 . S
H3 C23 0.950 . S
H4 C25 0.950 . S
H5 C28 0.950 . S
H6 C29 0.950 . S
H7 C31 0.951 . S
H8 C32 0.949 . S
H9 C34 0.949 . S
H10 C35 0.950 . S
H11 C37 0.950 . S
H12 C38 0.950 . S
H13 C40 0.960 . S
H14 C43 0.950 . S
H15 C44 0.950 . S
H16 C46 0.951 . S
H17 C47 0.949 . S
C18 C19 1.376 . S
C18 C23 1.386 . S
C18 C24 1.483 . S
C19 H0 0.949 . S
C19 C18 1.376 . S
C19 C20 1.397 . S
C20 H1 0.950 . S
C20 C19 1.397 . S
C20 C21 1.391 . S
C21 C20 1.391 . S
C21 C22 1.405 . S
C22 H2 0.950 . S
C22 C21 1.405 . S
C22 C23 1.367 . S
C23 H3 0.950 . S
C23 C18 1.386 . S
C23 C22 1.367 . S
C24 C18 1.483 . S
C24 C25 1.382 1_655 S
C24 C26 1.403 . S
C25 H4 0.950 . S
C25 C24 1.382 1_455 S
C25 C41 1.411 . S
C26 C24 1.403 . S
C26 C27 1.489 . S
C26 C40 1.411 1_655 S
C27 C26 1.489 . S
C27 C28 1.383 . S
C27 C32 1.382 . S
C28 H5 0.950 . S
C28 C27 1.383 . S
C28 C29 1.395 . S
C29 H6 0.950 . S
C29 C28 1.395 . S
C29 C30 1.288 . S
C30 C29 1.288 . S
C30 C31 1.392 . S
C31 H7 0.951 . S
C31 C30 1.392 . S
C31 C32 1.392 . S
C32 H8 0.949 . S
C32 C27 1.382 . S
C32 C31 1.392 . S
C33 C34 1.376 . S
C33 C38 1.386 . S
C33 C39 1.483 . S
C34 H9 0.949 . S
C34 C33 1.376 . S
C34 C35 1.397 . S
C35 H10 0.950 . S
C35 C34 1.397 . S
C35 C36 1.391 . S
C36 C35 1.391 . S
C36 C37 1.405 . S
C37 H11 0.950 . S
C37 C36 1.405 . S
C37 C38 1.367 . S
C38 H12 0.950 . S
C38 C33 1.386 . S
C38 C37 1.367 . S
C39 C33 1.483 . S
C39 C40 1.382 . S
C39 C41 1.403 . S
C40 H13 0.960 . S
C40 C26 1.411 1_455 S
C40 C39 1.382 . S
C41 C25 1.411 . S
C41 C39 1.403 . S
C41 C42 1.489 . S
C42 C41 1.489 . S
C42 C43 1.383 . S
C42 C47 1.382 . S
C43 H14 0.950 . S
C43 C42 1.383 . S
C43 C44 1.395 . S
C44 H15 0.950 . S
C44 C43 1.395 . S
C44 C45 1.288 . S
C45 C44 1.288 . S
C45 C46 1.392 . S
C46 H16 0.951 . S
C46 C45 1.392 . S
C46 C47 1.392 . S
C47 H17 0.949 . S
C47 C42 1.382 . S
C47 C46 1.392 . S
H48 C67 0.949 . S
H49 C68 0.950 . S
H50 C70 0.950 . S
H51 C71 0.950 . S
H52 C73 0.941 1_565 S
H53 C76 0.950 . S
H54 C77 0.950 . S
H55 C79 0.951 . S
H56 C80 0.949 . S
H57 C82 0.949 . S
H58 C83 0.950 . S
H59 C85 0.950 . S
H60 C86 0.950 . S
H61 C88 0.950 . S
H62 C91 0.950 . S
H63 C92 0.950 . S
H64 C94 0.951 . S
H65 C95 0.949 . S
C66 C67 1.376 . S
C66 C71 1.386 . S
C66 C72 1.483 . S
C67 H48 0.949 . S
C67 C66 1.376 . S
C67 C68 1.397 . S
C68 H49 0.950 . S
C68 C67 1.397 . S
C68 C69 1.391 . S
C69 C68 1.391 . S
C69 C70 1.405 . S
C70 H50 0.950 . S
C70 C69 1.405 . S
C70 C71 1.367 . S
C71 H51 0.950 . S
C71 C66 1.386 . S
C71 C70 1.367 . S
C72 C66 1.483 . S
C72 C73 1.382 1_565 S
C72 C74 1.403 . S
C73 H52 0.941 1_545 S
C73 C72 1.382 1_545 S
C73 C89 1.411 . S
C74 C72 1.403 . S
C74 C75 1.489 . S
C74 C88 1.411 1_565 S
C75 C74 1.489 . S
C75 C76 1.383 . S
C75 C80 1.382 . S
C76 H53 0.950 . S
C76 C75 1.383 . S
C76 C77 1.395 . S
C77 H54 0.950 . S
C77 C76 1.395 . S
C77 C78 1.288 . S
C78 C77 1.288 . S
C78 C79 1.392 . S
C79 H55 0.951 . S
C79 C78 1.392 . S
C79 C80 1.392 . S
C80 H56 0.949 . S
C80 C75 1.382 . S
C80 C79 1.392 . S
C81 C82 1.376 . S
C81 C86 1.386 . S
C81 C87 1.483 . S
C82 H57 0.949 . S
C82 C81 1.376 . S
C82 C83 1.397 . S
C83 H58 0.950 . S
C83 C82 1.397 . S
C83 C84 1.391 . S
C84 C83 1.391 . S
C84 C85 1.405 . S
C85 H59 0.950 . S
C85 C84 1.405 . S
C85 C86 1.367 . S
C86 H60 0.950 . S
C86 C81 1.386 . S
C86 C85 1.367 . S
C87 C81 1.483 . S
C87 C88 1.382 . S
C87 C89 1.403 . S
C88 H61 0.950 . S
C88 C74 1.411 1_545 S
C88 C87 1.382 . S
C89 C73 1.411 . S
C89 C87 1.403 . S
C89 C90 1.489 . S
C90 C89 1.489 . S
C90 C91 1.383 . S
C90 C95 1.382 . S
C91 H62 0.950 . S
C91 C90 1.383 . S
C91 C92 1.395 . S
C92 H63 0.950 . S
C92 C91 1.395 . S
C92 C93 1.288 . S
C93 C92 1.288 . S
C93 C94 1.392 . S
C94 H64 0.951 . S
C94 C93 1.392 . S
C94 C95 1.392 . S
C95 H65 0.949 . S
C95 C90 1.382 . S
C95 C94 1.392 . S
H96 C115 0.949 . S
H97 C116 0.950 . S
H98 C118 0.950 . S
H99 C119 0.950 . S
H100 C121 0.950 . S
H101 C124 0.950 . S
H102 C125 0.950 . S
H103 C127 0.951 . S
H104 C128 0.949 . S
H105 C130 0.949 . S
H106 C131 0.950 . S
H107 C133 0.950 . S
H108 C134 0.950 . S
H109 C136 0.950 . S
H110 C139 0.950 . S
H111 C140 0.950 . S
H112 C142 0.951 . S
H113 C143 0.949 . S
C114 C115 1.376 . S
C114 C119 1.386 . S
C114 C120 1.483 . S
C115 H96 0.949 . S
C115 C114 1.376 . S
C115 C116 1.397 . S
C116 H97 0.950 . S
C116 C115 1.397 . S
C116 C117 1.391 . S
C117 C116 1.391 . S
C117 C118 1.405 . S
C118 H98 0.950 . S
C118 C117 1.405 . S
C118 C119 1.367 . S
C119 H99 0.950 . S
C119 C114 1.386 . S
C119 C118 1.367 . S
C120 C114 1.483 . S
C120 C121 1.382 . S
C120 C122 1.403 . S
C121 H100 0.950 . S
C121 C120 1.382 . S
C121 C137 1.411 . S
C122 C120 1.403 . S
C122 C123 1.489 . S
C122 C136 1.411 . S
C123 C122 1.489 . S
C123 C124 1.383 . S
C123 C128 1.382 . S
C124 H101 0.950 . S
C124 C123 1.383 . S
C124 C125 1.395 . S
C125 H102 0.950 . S
C125 C124 1.395 . S
C125 C126 1.288 . S
C126 C125 1.288 . S
C126 C127 1.392 . S
C127 H103 0.951 . S
C127 C126 1.392 . S
C127 C128 1.392 . S
C128 H104 0.949 . S
C128 C123 1.382 . S
C128 C127 1.392 . S
C129 C130 1.376 . S
C129 C134 1.386 . S
C129 C135 1.483 . S
C130 H105 0.949 . S
C130 C129 1.376 . S
C130 C131 1.397 . S
C131 H106 0.950 . S
C131 C130 1.397 . S
C131 C132 1.391 . S
C132 C131 1.391 . S
C132 C133 1.405 . S
C133 H107 0.950 . S
C133 C132 1.405 . S
C133 C134 1.367 . S
C134 H108 0.950 . S
C134 C129 1.386 . S
C134 C133 1.367 . S
C135 C129 1.483 . S
C135 C136 1.382 . S
C135 C137 1.403 . S
C136 H109 0.950 . S
C136 C122 1.411 . S
C136 C135 1.382 . S
C137 C121 1.411 . S
C137 C135 1.403 . S
C137 C138 1.489 . S
C138 C137 1.489 . S
C138 C139 1.383 . S
C138 C143 1.382 . S
C139 H110 0.950 . S
C139 C138 1.383 . S
C139 C140 1.395 . S
C140 H111 0.950 . S
C140 C139 1.395 . S
C140 C141 1.288 . S
C141 C140 1.288 . S
C141 C142 1.392 . S
C142 H112 0.951 . S
C142 C141 1.392 . S
C142 C143 1.392 . S
C143 H113 0.949 . S
C143 C138 1.382 . S
C143 C142 1.392 . S
H144 C163 0.949 . S
H145 C164 0.950 . S
H146 C166 0.950 . S
H147 C167 0.950 . S
H148 C169 0.950 1_655 S
H149 C172 0.950 . S
H150 C173 0.950 . S
H151 C175 0.951 . S
H152 C176 0.949 . S
H153 C178 0.949 . S
H154 C179 0.950 . S
H155 C181 0.950 . S
H156 C182 0.950 . S
H157 C184 0.950 . S
H158 C187 0.950 . S
H159 C188 0.950 . S
H160 C190 0.951 . S
H161 C191 0.949 . S
C162 C163 1.376 . S
C162 C167 1.386 . S
C162 C168 1.483 . S
C163 H144 0.949 . S
C163 C162 1.376 . S
C163 C164 1.397 . S
C164 H145 0.950 . S
C164 C163 1.397 . S
C164 C165 1.391 . S
C165 C164 1.391 . S
C165 C166 1.405 . S
C166 H146 0.950 . S
C166 C165 1.405 . S
C166 C167 1.367 . S
C167 H147 0.950 . S
C167 C162 1.386 . S
C167 C166 1.367 . S
C168 C162 1.483 . S
C168 C169 1.382 . S
C168 C170 1.403 . S
C169 H148 0.950 1_455 S
C169 C168 1.382 . S
C169 C185 1.411 1_455 S
C170 C168 1.403 . S
C170 C171 1.489 . S
C170 C184 1.411 . S
C171 C170 1.489 . S
C171 C172 1.383 . S
C171 C176 1.382 . S
C172 H149 0.950 . S
C172 C171 1.383 . S
C172 C173 1.395 . S
C173 H150 0.950 . S
C173 C172 1.395 . S
C173 C174 1.288 . S
C174 C173 1.288 . S
C174 C175 1.392 . S
C175 H151 0.951 . S
C175 C174 1.392 . S
C175 C176 1.392 . S
C176 H152 0.949 . S
C176 C171 1.382 . S
C176 C175 1.392 . S
C177 C178 1.376 . S
C177 C182 1.386 . S
C177 C183 1.483 . S
C178 H153 0.949 . S
C178 C177 1.376 . S
C178 C179 1.397 . S
C179 H154 0.950 . S
C179 C178 1.397 . S
C179 C180 1.391 . S
C180 C179 1.391 . S
C180 C181 1.405 . S
C181 H155 0.950 . S
C181 C180 1.405 . S
C181 C182 1.367 . S
C182 H156 0.950 . S
C182 C177 1.386 . S
C182 C181 1.367 . S
C183 C177 1.483 . S
C183 C184 1.382 1_655 S
C183 C185 1.403 . S
C184 H157 0.950 . S
C184 C170 1.411 . S
C184 C183 1.382 1_455 S
C185 C169 1.411 1_655 S
C185 C183 1.403 . S
C185 C186 1.489 . S
C186 C185 1.489 . S
C186 C187 1.383 . S
C186 C191 1.382 . S
C187 H158 0.950 . S
C187 C186 1.383 . S
C187 C188 1.395 . S
C188 H159 0.950 . S
C188 C187 1.395 . S
C188 C189 1.288 . S
C189 C188 1.288 . S
C189 C190 1.392 . S
C190 H160 0.951 . S
C190 C189 1.392 . S
C190 C191 1.392 . S
C191 H161 0.949 . S
C191 C186 1.382 . S
C191 C190 1.392 . S
H192 C211 0.949 . S
H193 C212 0.950 . S
H194 C214 0.950 . S
H195 C215 0.985 . S
H196 C217 0.950 . S
H197 C220 0.950 . S
H198 C221 0.950 . S
H199 C223 0.951 . S
H200 C224 0.949 . S
H201 C226 0.949 . S
H202 C227 0.950 . S
H203 C229 0.950 . S
H204 C230 0.950 . S
H205 C232 0.950 1_565 S
H206 C235 0.950 . S
H207 C236 0.950 . S
H208 C238 0.951 . S
H209 C239 0.949 . S
C210 C211 1.376 . S
C210 C215 1.374 1_554 S
C210 C216 1.483 1_554 S
C211 H192 0.949 . S
C211 C210 1.376 . S
C211 C212 1.397 . S
C212 H193 0.950 . S
C212 C211 1.397 . S
C212 C213 1.391 . S
C213 C212 1.391 . S
C213 C214 1.405 . S
C214 H194 0.950 . S
C214 C213 1.405 . S
C214 C215 1.348 1_554 S
C215 H195 0.985 . S
C215 C210 1.374 1_556 S
C215 C214 1.348 1_556 S
C216 C210 1.483 1_556 S
C216 C217 1.382 1_556 S
C216 C218 1.403 . S
C217 H196 0.950 . S
C217 C216 1.382 1_554 S
C217 C233 1.411 1_545 S
C218 C216 1.403 . S
C218 C219 1.489 . S
C218 C232 1.411 . S
C219 C218 1.489 . S
C219 C220 1.383 . S
C219 C224 1.382 . S
C220 H197 0.950 . S
C220 C219 1.383 . S
C220 C221 1.395 . S
C221 H198 0.950 . S
C221 C220 1.395 . S
C221 C222 1.288 . S
C222 C221 1.288 . S
C222 C223 1.392 . S
C223 H199 0.951 . S
C223 C222 1.392 . S
C223 C224 1.392 . S
C224 H200 0.949 . S
C224 C219 1.382 . S
C224 C223 1.392 . S
C225 C226 1.376 . S
C225 C230 1.386 . S
C225 C231 1.483 . S
C226 H201 0.949 . S
C226 C225 1.376 . S
C226 C227 1.397 . S
C227 H202 0.950 . S
C227 C226 1.397 . S
C227 C228 1.391 . S
C228 C227 1.391 . S
C228 C229 1.405 . S
C229 H203 0.950 . S
C229 C228 1.405 . S
C229 C230 1.367 . S
C230 H204 0.950 . S
C230 C225 1.386 . S
C230 C229 1.367 . S
C231 C225 1.483 . S
C231 C232 1.382 1_565 S
C231 C233 1.403 1_556 S
C232 H205 0.950 1_545 S
C232 C218 1.411 . S
C232 C231 1.382 1_545 S
C233 C217 1.411 1_565 S
C233 C231 1.403 1_554 S
C233 C234 1.489 . S
C234 C233 1.489 . S
C234 C235 1.383 . S
C234 C239 1.382 . S
C235 H206 0.950 . S
C235 C234 1.383 . S
C235 C236 1.395 . S
C236 H207 0.950 . S
C236 C235 1.395 . S
C236 C237 1.288 . S
C237 C236 1.288 . S
C237 C238 1.392 . S
C238 H208 0.951 . S
C238 C237 1.392 . S
C238 C239 1.392 . S
C239 H209 0.949 . S
C239 C234 1.382 . S
C239 C238 1.392 . S
H240 C259 0.949 . S
H241 C260 0.950 . S
H242 C262 0.950 . S
H243 C263 0.950 . S
H244 C265 0.950 . S
H245 C268 0.950 . S
H246 C269 0.950 . S
H247 C271 0.951 . S
H248 C272 0.949 . S
H249 C274 0.949 . S
H250 C275 0.950 . S
H251 C277 0.950 . S
H252 C278 0.950 . S
H253 C280 0.950 . S
H254 C283 0.950 . S
H255 C284 0.950 . S
H256 C286 0.951 . S
H257 C287 0.949 . S
C258 C259 1.376 . S
C258 C263 1.386 . S
C258 C264 1.483 . S
C259 H240 0.949 . S
C259 C258 1.376 . S
C259 C260 1.397 . S
C260 H241 0.950 . S
C260 C259 1.397 . S
C260 C261 1.391 . S
C261 C260 1.391 . S
C261 C262 1.405 . S
C262 H242 0.950 . S
C262 C261 1.405 . S
C262 C263 1.367 . S
C263 H243 0.950 . S
C263 C258 1.386 . S
C263 C262 1.367 . S
C264 C258 1.483 . S
C264 C265 1.382 . S
C264 C266 1.403 . S
C265 H244 0.950 . S
C265 C264 1.382 . S
C265 C281 1.411 . S
C266 C264 1.403 . S
C266 C267 1.489 . S
C266 C280 1.411 . S
C267 C266 1.489 . S
C267 C268 1.383 . S
C267 C272 1.382 . S
C268 H245 0.950 . S
C268 C267 1.383 . S
C268 C269 1.395 . S
C269 H246 0.950 . S
C269 C268 1.395 . S
C269 C270 1.288 . S
C270 C269 1.288 . S
C270 C271 1.392 . S
C271 H247 0.951 . S
C271 C270 1.392 . S
C271 C272 1.392 . S
C272 H248 0.949 . S
C272 C267 1.382 . S
C272 C271 1.392 . S
C273 C274 1.376 . S
C273 C278 1.386 . S
C273 C279 1.483 . S
C274 H249 0.949 . S
C274 C273 1.376 . S
C274 C275 1.397 . S
C275 H250 0.950 . S
C275 C274 1.397 . S
C275 C276 1.391 . S
C276 C275 1.391 . S
C276 C277 1.405 . S
C277 H251 0.950 . S
C277 C276 1.405 . S
C277 C278 1.367 . S
C278 H252 0.950 . S
C278 C273 1.386 . S
C278 C277 1.367 . S
C279 C273 1.483 . S
C279 C280 1.382 . S
C279 C281 1.403 . S
C280 H253 0.950 . S
C280 C266 1.411 . S
C280 C279 1.382 . S
C281 C265 1.411 . S
C281 C279 1.403 . S
C281 C282 1.489 . S
C282 C281 1.489 . S
C282 C283 1.383 . S
C282 C287 1.382 . S
C283 H254 0.950 . S
C283 C282 1.383 . S
C283 C284 1.395 . S
C284 H255 0.950 . S
C284 C283 1.395 . S
C284 C285 1.288 . S
C285 C284 1.288 . S
C285 C286 1.392 . S
C286 H256 0.951 . S
C286 C285 1.392 . S
C286 C287 1.392 . S
C287 H257 0.949 . S
C287 C282 1.382 . S
C287 C286 1.392 . S
C288 O289 1.306 . S
C288 O291 1.160 . S
O289 C288 1.306 . S
O289 Cd290 2.228 . S
Cd290 O289 2.228 . S
Cd290 O294 2.273 . S
Cd290 O298 2.277 . S
O291 C288 1.160 . S
O291 Cd292 2.203 . S
Cd292 O291 2.203 . S
Cd292 O294 2.411 . S
Cd292 O295 2.333 . S
Cd292 O296 2.352 . S
Cd292 O300 2.277 . S
Cd292 O301 2.356 . S
C293 O298 1.209 . S
C293 O300 1.226 . S
O294 Cd290 2.273 . S
O294 Cd292 2.411 . S
O294 C297 1.320 . S
O295 Cd292 2.333 . S
O295 C297 1.214 . S
O296 Cd292 2.352 . S
O296 C299 1.258 . S
C297 O294 1.320 . S
C297 O295 1.214 . S
O298 Cd290 2.277 . S
O298 C293 1.209 . S
C299 O296 1.258 . S
C299 O301 1.282 . S
O300 Cd292 2.277 . S
O300 C293 1.226 . S
O301 Cd292 2.356 . S
O301 C299 1.282 . S
C302 O303 1.306 . S
C302 O305 1.160 . S
O303 C302 1.306 . S
O303 Cd304 2.228 . S
Cd304 O303 2.228 . S
Cd304 O308 2.273 . S
Cd304 O312 2.277 . S
O305 C302 1.160 . S
O305 Cd306 2.203 . S
Cd306 O305 2.203 . S
Cd306 O308 2.411 . S
Cd306 O309 2.333 . S
Cd306 O310 2.352 . S
Cd306 O314 2.277 . S
Cd306 O315 2.356 . S
C307 O312 1.209 . S
C307 O314 1.226 . S
O308 Cd304 2.273 . S
O308 Cd306 2.411 . S
O308 C311 1.320 . S
O309 Cd306 2.333 . S
O309 C311 1.214 . S
O310 Cd306 2.352 . S
O310 C313 1.258 . S
C311 O308 1.320 . S
C311 O309 1.214 . S
O312 Cd304 2.277 . S
O312 C307 1.209 . S
C313 O310 1.258 . S
C313 O315 1.282 . S
O314 Cd306 2.277 . S
O314 C307 1.226 . S
O315 Cd306 2.356 . S
O315 C313 1.282 . S
C316 O317 1.306 . S
C316 O319 1.160 . S
O317 C316 1.306 . S
O317 Cd318 2.228 . S
Cd318 O317 2.228 . S
Cd318 O322 2.273 . S
Cd318 O326 2.277 . S
O319 C316 1.160 . S
O319 Cd320 2.203 . S
Cd320 O319 2.203 . S
Cd320 O322 2.411 . S
Cd320 O323 2.333 . S
Cd320 O324 2.352 . S
Cd320 O328 2.277 . S
Cd320 O329 2.356 . S
C321 O326 1.209 . S
C321 O328 1.226 . S
O322 Cd318 2.273 . S
O322 Cd320 2.411 . S
O322 C325 1.320 . S
O323 Cd320 2.333 . S
O323 C325 1.214 . S
O324 Cd320 2.352 . S
O324 C327 1.258 . S
C325 O322 1.320 . S
C325 O323 1.214 . S
O326 Cd318 2.277 . S
O326 C321 1.209 . S
C327 O324 1.258 . S
C327 O329 1.282 . S
O328 Cd320 2.277 . S
O328 C321 1.226 . S
O329 Cd320 2.356 . S
O329 C327 1.282 . S
C330 O331 1.306 . S
C330 O333 1.160 . S
O331 C330 1.306 . S
O331 Cd332 2.228 . S
Cd332 O331 2.228 . S
Cd332 O336 2.273 . S
Cd332 O340 2.277 . S
O333 C330 1.160 . S
O333 Cd334 2.203 . S
Cd334 O333 2.203 . S
Cd334 O336 2.411 . S
Cd334 O337 2.333 . S
Cd334 O338 2.352 . S
Cd334 O342 2.277 . S
Cd334 O343 2.356 . S
C335 O340 1.209 . S
C335 O342 1.226 . S
O336 Cd332 2.273 . S
O336 Cd334 2.411 . S
O336 C339 1.320 . S
O337 Cd334 2.333 . S
O337 C339 1.214 . S
O338 Cd334 2.352 . S
O338 C341 1.258 . S
C339 O336 1.320 . S
C339 O337 1.214 . S
O340 Cd332 2.277 . S
O340 C335 1.209 . S
C341 O338 1.258 . S
C341 O343 1.282 . S
O342 Cd334 2.277 . S
O342 C335 1.226 . S
O343 Cd334 2.356 . S
O343 C341 1.282 . S
C344 O345 1.306 . S
C344 O347 1.160 . S
O345 C344 1.306 . S
O345 Cd346 2.228 . S
Cd346 O345 2.228 . S
Cd346 O350 2.273 . S
Cd346 O354 2.277 . S
O347 C344 1.160 . S
O347 Cd348 2.203 . S
Cd348 O347 2.203 . S
Cd348 O350 2.411 . S
Cd348 O351 2.333 . S
Cd348 O352 2.352 . S
Cd348 O356 2.277 . S
Cd348 O357 2.356 . S
C349 O354 1.209 . S
C349 O356 1.226 . S
O350 Cd346 2.273 . S
O350 Cd348 2.411 . S
O350 C353 1.320 . S
O351 Cd348 2.333 . S
O351 C353 1.214 . S
O352 Cd348 2.352 . S
O352 C355 1.258 . S
C353 O350 1.320 . S
C353 O351 1.214 . S
O354 Cd346 2.277 . S
O354 C349 1.209 . S
C355 O352 1.258 . S
C355 O357 1.282 . S
O356 Cd348 2.277 . S
O356 C349 1.226 . S
O357 Cd348 2.356 . S
O357 C355 1.282 . S
C358 O359 1.306 . S
C358 O361 1.160 . S
O359 C358 1.306 . S
O359 Cd360 2.228 . S
Cd360 O359 2.228 . S
Cd360 O364 2.273 . S
Cd360 O368 2.277 . S
O361 C358 1.160 . S
O361 Cd362 2.203 . S
Cd362 O361 2.203 . S
Cd362 O364 2.411 . S
Cd362 O365 2.333 . S
Cd362 O366 2.352 . S
Cd362 O370 2.277 . S
Cd362 O371 2.356 . S
C363 O368 1.209 . S
C363 O370 1.226 . S
O364 Cd360 2.273 . S
O364 Cd362 2.411 . S
O364 C367 1.320 . S
O365 Cd362 2.333 . S
O365 C367 1.214 . S
O366 Cd362 2.352 . S
O366 C369 1.258 . S
C367 O364 1.320 . S
C367 O365 1.214 . S
O368 Cd360 2.277 . S
O368 C363 1.209 . S
C369 O366 1.258 . S
C369 O371 1.282 . S
O370 Cd362 2.277 . S
O370 C363 1.226 . S
O371 Cd362 2.356 . S
O371 C369 1.282 . S
C372 C373 1.349 . S
C372 C374 1.327 . S
C372 H397 0.950 . S
C373 C372 1.349 . S
C373 C389 1.349 . S
C374 C372 1.327 . S
C374 C393 1.429 . S
C374 H398 0.950 . S
C375 C392 1.574 . S
C375 C394 1.368 . S
C375 H399 0.949 . S
H376 C380 0.949 . S
C377 C378 1.349 . S
C377 C379 1.327 . S
C377 H400 0.950 . S
C378 C377 1.349 . S
C378 C390 1.349 . S
C379 C377 1.327 . S
C379 C395 1.429 . S
C379 H401 0.950 . S
C380 H376 0.949 . S
C380 C388 1.574 . S
C380 C396 1.368 . S
H381 C389 0.950 . S
H382 C387 0.950 . S
H383 C388 0.949 . S
H384 C390 0.950 . S
H385 C391 0.950 . S
H386 C392 0.949 . S
C387 H382 0.950 . S
C387 C389 1.327 . S
C387 C393 1.429 . S
C388 C380 1.574 . S
C388 H383 0.949 . S
C388 C394 1.368 . S
C389 C373 1.349 . S
C389 H381 0.950 . S
C389 C387 1.327 . S
C390 C378 1.349 . S
C390 H384 0.950 . S
C390 C391 1.327 . S
C391 H385 0.950 . S
C391 C390 1.327 . S
C391 C395 1.429 . S
C392 C375 1.574 . S
C392 H386 0.949 . S
C392 C396 1.368 . S
C393 C374 1.429 . S
C393 C387 1.429 . S
C393 C394 1.523 . S
C394 C375 1.368 . S
C394 C388 1.368 . S
C394 C393 1.523 . S
C395 C379 1.429 . S
C395 C391 1.429 . S
C395 C396 1.523 . S
C396 C380 1.368 . S
C396 C392 1.368 . S
C396 C395 1.523 . S
H397 C372 0.950 . S
H398 C374 0.950 . S
H399 C375 0.949 . S
H400 C377 0.950 . S
H401 C379 0.950 . S
C402 C403 1.349 . S
C402 C404 1.327 . S
C402 H427 0.950 . S
C403 C402 1.349 . S
C403 C419 1.349 . S
C404 C402 1.327 . S
C404 C423 1.429 . S
C404 H428 0.950 . S
C405 C422 1.574 . S
C405 C424 1.368 . S
C405 H429 0.949 . S
H406 C410 0.949 . S
C407 C408 1.349 . S
C407 C409 1.327 . S
C407 H430 0.950 . S
C408 C407 1.349 . S
C408 C420 1.349 . S
C409 C407 1.327 . S
C409 C425 1.429 . S
C409 H431 0.950 . S
C410 H406 0.949 . S
C410 C418 1.574 . S
C410 C426 1.368 . S
H411 C419 0.950 . S
H412 C417 0.950 . S
H413 C418 0.949 . S
H414 C420 0.950 . S
H415 C421 0.950 . S
H416 C422 0.949 . S
C417 H412 0.950 . S
C417 C419 1.327 . S
C417 C423 1.429 . S
C418 C410 1.574 . S
C418 H413 0.949 . S
C418 C424 1.368 . S
C419 C403 1.349 . S
C419 H411 0.950 . S
C419 C417 1.327 . S
C420 C408 1.349 . S
C420 H414 0.950 . S
C420 C421 1.327 . S
C421 H415 0.950 . S
C421 C420 1.327 . S
C421 C425 1.429 . S
C422 C405 1.574 . S
C422 H416 0.949 . S
C422 C426 1.368 . S
C423 C404 1.429 . S
C423 C417 1.429 . S
C423 C424 1.523 . S
C424 C405 1.368 . S
C424 C418 1.368 . S
C424 C423 1.523 . S
C425 C409 1.429 . S
C425 C421 1.429 . S
C425 C426 1.523 . S
C426 C410 1.368 . S
C426 C422 1.368 . S
C426 C425 1.523 . S
H427 C402 0.950 . S
H428 C404 0.950 . S
H429 C405 0.949 . S
H430 C407 0.950 . S
H431 C409 0.950 . S
C432 C433 1.349 . S
C432 C434 1.327 . S
C432 H457 0.950 . S
C433 C432 1.349 . S
C433 C449 1.349 . S
C434 C432 1.327 . S
C434 C453 1.429 . S
C434 H458 0.950 . S
C435 C452 1.574 . S
C435 C454 1.368 . S
C435 H459 0.949 . S
H436 C440 0.949 . S
C437 C438 1.349 . S
C437 C439 1.327 . S
C437 H460 0.950 . S
C438 C437 1.349 . S
C438 C450 1.349 . S
C439 C437 1.327 . S
C439 C455 1.429 . S
C439 H461 0.950 . S
C440 H436 0.949 . S
C440 C448 1.574 . S
C440 C456 1.368 . S
H441 C449 0.950 . S
H442 C447 0.950 . S
H443 C448 0.949 . S
H444 C450 0.950 . S
H445 C451 0.950 . S
H446 C452 0.949 . S
C447 H442 0.950 . S
C447 C449 1.327 . S
C447 C453 1.429 . S
C448 C440 1.574 . S
C448 H443 0.949 . S
C448 C454 1.368 . S
C449 C433 1.349 . S
C449 H441 0.950 . S
C449 C447 1.327 . S
C450 C438 1.349 . S
C450 H444 0.950 . S
C450 C451 1.327 . S
C451 H445 0.950 . S
C451 C450 1.327 . S
C451 C455 1.429 . S
C452 C435 1.574 . S
C452 H446 0.949 . S
C452 C456 1.368 . S
C453 C434 1.429 . S
C453 C447 1.429 . S
C453 C454 1.523 . S
C454 C435 1.368 . S
C454 C448 1.368 . S
C454 C453 1.523 . S
C455 C439 1.429 . S
C455 C451 1.429 . S
C455 C456 1.523 . S
C456 C440 1.368 . S
C456 C452 1.368 . S
C456 C455 1.523 . S
H457 C432 0.950 . S
H458 C434 0.950 . S
H459 C435 0.949 . S
H460 C437 0.950 . S
H461 C439 0.950 . S
C462 C463 1.349 . S
C462 C464 1.327 . S
C462 H487 0.950 . S
C463 C462 1.349 . S
C463 C479 1.349 . S
C464 C462 1.327 . S
C464 C483 1.429 . S
C464 H488 0.950 . S
C465 C482 1.574 . S
C465 C484 1.368 . S
C465 H489 0.949 . S
H466 C470 0.949 . S
C467 C468 1.349 . S
C467 C469 1.327 . S
C467 H490 0.950 . S
C468 C467 1.349 . S
C468 C480 1.349 . S
C469 C467 1.327 . S
C469 C485 1.429 . S
C469 H491 0.950 . S
C470 H466 0.949 . S
C470 C478 1.574 . S
C470 C486 1.368 . S
H471 C479 0.950 . S
H472 C477 0.950 . S
H473 C478 0.949 . S
H474 C480 0.950 . S
H475 C481 0.950 . S
H476 C482 0.949 . S
C477 H472 0.950 . S
C477 C479 1.327 . S
C477 C483 1.429 . S
C478 C470 1.574 . S
C478 H473 0.949 . S
C478 C484 1.368 . S
C479 C463 1.349 . S
C479 H471 0.950 . S
C479 C477 1.327 . S
C480 C468 1.349 . S
C480 H474 0.950 . S
C480 C481 1.327 . S
C481 H475 0.950 . S
C481 C480 1.327 . S
C481 C485 1.429 . S
C482 C465 1.574 . S
C482 H476 0.949 . S
C482 C486 1.368 . S
C483 C464 1.429 . S
C483 C477 1.429 . S
C483 C484 1.523 . S
C484 C465 1.368 . S
C484 C478 1.368 . S
C484 C483 1.523 . S
C485 C469 1.429 . S
C485 C481 1.429 . S
C485 C486 1.523 . S
C486 C470 1.368 . S
C486 C482 1.368 . S
C486 C485 1.523 . S
H487 C462 0.950 . S
H488 C464 0.950 . S
H489 C465 0.949 . S
H490 C467 0.950 . S
H491 C469 0.950 . S
C492 C493 1.349 . S
C492 C494 1.327 . S
C492 H517 0.950 . S
C493 C492 1.349 . S
C493 C509 1.349 . S
C494 C492 1.327 . S
C494 C513 1.429 . S
C494 H518 0.950 . S
C495 C512 1.574 . S
C495 C514 1.368 . S
C495 H519 0.949 . S
H496 C500 0.949 . S
C497 C498 1.349 . S
C497 C499 1.327 . S
C497 H520 0.950 . S
C498 C497 1.349 . S
C498 C510 1.349 . S
C499 C497 1.327 . S
C499 C515 1.429 . S
C499 H521 0.950 . S
C500 H496 0.949 . S
C500 C508 1.574 . S
C500 C516 1.368 . S
H501 C509 0.950 . S
H502 C507 0.950 . S
H503 C508 0.949 . S
H504 C510 0.950 . S
H505 C511 0.950 . S
H506 C512 0.949 . S
C507 H502 0.950 . S
C507 C509 1.327 . S
C507 C513 1.429 . S
C508 C500 1.574 . S
C508 H503 0.949 . S
C508 C514 1.368 . S
C509 C493 1.349 . S
C509 H501 0.950 . S
C509 C507 1.327 . S
C510 C498 1.349 . S
C510 H504 0.950 . S
C510 C511 1.327 . S
C511 H505 0.950 . S
C511 C510 1.327 . S
C511 C515 1.429 . S
C512 C495 1.574 . S
C512 H506 0.949 . S
C512 C516 1.368 . S
C513 C494 1.429 . S
C513 C507 1.429 . S
C513 C514 1.523 . S
C514 C495 1.368 . S
C514 C508 1.368 . S
C514 C513 1.523 . S
C515 C499 1.429 . S
C515 C511 1.429 . S
C515 C516 1.523 . S
C516 C500 1.368 . S
C516 C512 1.368 . S
C516 C515 1.523 . S
H517 C492 0.950 . S
H518 C494 0.950 . S
H519 C495 0.949 . S
H520 C497 0.950 . S
H521 C499 0.950 . S
C522 C523 1.349 . S
C522 C524 1.327 . S
C522 H547 0.950 . S
C523 C522 1.349 . S
C523 C539 1.349 . S
C524 C522 1.327 . S
C524 C543 1.429 . S
C524 H548 0.950 . S
C525 C542 1.574 . S
C525 C544 1.368 . S
C525 H549 0.949 . S
H526 C530 0.949 . S
C527 C528 1.349 . S
C527 C529 1.327 . S
C527 H550 0.950 . S
C528 C527 1.349 . S
C528 C540 1.349 . S
C529 C527 1.327 . S
C529 C545 1.429 . S
C529 H551 0.950 . S
C530 H526 0.949 . S
C530 C538 1.574 . S
C530 C546 1.368 . S
H531 C539 0.950 . S
H532 C537 0.950 . S
H533 C538 0.949 . S
H534 C540 0.950 . S
H535 C541 0.950 . S
H536 C542 0.949 . S
C537 H532 0.950 . S
C537 C539 1.327 . S
C537 C543 1.429 . S
C538 C530 1.574 . S
C538 H533 0.949 . S
C538 C544 1.368 . S
C539 C523 1.349 . S
C539 H531 0.950 . S
C539 C537 1.327 . S
C540 C528 1.349 . S
C540 H534 0.950 . S
C540 C541 1.327 . S
C541 H535 0.950 . S
C541 C540 1.327 . S
C541 C545 1.429 . S
C542 C525 1.574 . S
C542 H536 0.949 . S
C542 C546 1.368 . S
C543 C524 1.429 . S
C543 C537 1.429 . S
C543 C544 1.523 . S
C544 C525 1.368 . S
C544 C538 1.368 . S
C544 C543 1.523 . S
C545 C529 1.429 . S
C545 C541 1.429 . S
C545 C546 1.523 . S
C546 C530 1.368 . S
C546 C542 1.368 . S
C546 C545 1.523 . S
H547 C522 0.950 . S
H548 C524 0.950 . S
H549 C525 0.949 . S
H550 C527 0.950 . S
H551 C529 0.950 . S
C552 C553 1.349 . S
C552 C554 1.327 . S
C552 H577 0.950 . S
C553 C552 1.349 . S
C553 C569 1.349 . S
C554 C552 1.327 . S
C554 C573 1.429 . S
C554 H578 0.950 . S
C555 C572 1.574 . S
C555 C574 1.368 . S
C555 H579 0.949 . S
H556 C560 0.949 . S
C557 C558 1.349 . S
C557 C559 1.327 . S
C557 H580 0.950 . S
C558 C557 1.349 . S
C558 C570 1.349 . S
C559 C557 1.327 . S
C559 C575 1.429 . S
C559 H581 0.950 . S
C560 H556 0.949 . S
C560 C568 1.574 . S
C560 C576 1.368 . S
H561 C569 0.950 . S
H562 C567 0.950 . S
H563 C568 0.949 . S
H564 C570 0.950 . S
H565 C571 0.950 . S
H566 C572 0.949 . S
C567 H562 0.950 . S
C567 C569 1.327 . S
C567 C573 1.429 . S
C568 C560 1.574 . S
C568 H563 0.949 . S
C568 C574 1.368 . S
C569 C553 1.349 . S
C569 H561 0.950 . S
C569 C567 1.327 . S
C570 C558 1.349 . S
C570 H564 0.950 . S
C570 C571 1.327 . S
C571 H565 0.950 . S
C571 C570 1.327 . S
C571 C575 1.429 . S
C572 C555 1.574 . S
C572 H566 0.949 . S
C572 C576 1.368 . S
C573 C554 1.429 . S
C573 C567 1.429 . S
C573 C574 1.523 . S
C574 C555 1.368 . S
C574 C568 1.368 . S
C574 C573 1.523 . S
C575 C559 1.429 . S
C575 C571 1.429 . S
C575 C576 1.523 . S
C576 C560 1.368 . S
C576 C572 1.368 . S
C576 C575 1.523 . S
H577 C552 0.950 . S
H578 C554 0.950 . S
H579 C555 0.949 . S
H580 C557 0.950 . S
H581 C559 0.950 . S
C582 C583 1.349 . S
C582 C584 1.327 . S
C582 H607 0.950 . S
C583 C582 1.349 . S
C583 C599 1.349 . S
C584 C582 1.327 . S
C584 C603 1.429 . S
C584 H608 0.950 . S
C585 C602 1.574 . S
C585 C604 1.368 . S
C585 H609 0.949 . S
H586 C590 0.949 . S
C587 C588 1.349 . S
C587 C589 1.327 . S
C587 H610 0.950 . S
C588 C587 1.349 . S
C588 C600 1.349 . S
C589 C587 1.327 . S
C589 C605 1.429 . S
C589 H611 0.950 . S
C590 H586 0.949 . S
C590 C598 1.574 . S
C590 C606 1.368 . S
H591 C599 0.950 . S
H592 C597 0.950 . S
H593 C598 0.949 . S
H594 C600 0.950 . S
H595 C601 0.950 . S
H596 C602 0.949 . S
C597 H592 0.950 . S
C597 C599 1.327 . S
C597 C603 1.429 . S
C598 C590 1.574 . S
C598 H593 0.949 . S
C598 C604 1.368 . S
C599 C583 1.349 . S
C599 H591 0.950 . S
C599 C597 1.327 . S
C600 C588 1.349 . S
C600 H594 0.950 . S
C600 C601 1.327 . S
C601 H595 0.950 . S
C601 C600 1.327 . S
C601 C605 1.429 . S
C602 C585 1.574 . S
C602 H596 0.949 . S
C602 C606 1.368 . S
C603 C584 1.429 . S
C603 C597 1.429 . S
C603 C604 1.523 . S
C604 C585 1.368 . S
C604 C598 1.368 . S
C604 C603 1.523 . S
C605 C589 1.429 . S
C605 C601 1.429 . S
C605 C606 1.523 . S
C606 C590 1.368 . S
C606 C602 1.368 . S
C606 C605 1.523 . S
H607 C582 0.950 . S
H608 C584 0.950 . S
H609 C585 0.949 . S
H610 C587 0.950 . S
H611 C589 0.950 . S
C612 C613 1.349 . S
C612 C614 1.327 . S
C612 H637 0.950 . S
C613 C612 1.349 . S
C613 C629 1.349 . S
C614 C612 1.327 . S
C614 C633 1.429 . S
C614 H638 0.950 . S
C615 C632 1.574 . S
C615 C634 1.368 . S
C615 H639 0.949 . S
H616 C620 0.949 . S
C617 C618 1.349 . S
C617 C619 1.327 . S
C617 H640 0.950 . S
C618 C617 1.349 . S
C618 C630 1.349 . S
C619 C617 1.327 . S
C619 C635 1.429 . S
C619 H641 0.950 . S
C620 H616 0.949 . S
C620 C628 1.574 . S
C620 C636 1.368 . S
H621 C629 0.950 . S
H622 C627 0.950 . S
H623 C628 0.949 . S
H624 C630 0.950 . S
H625 C631 0.950 . S
H626 C632 0.949 . S
C627 H622 0.950 . S
C627 C629 1.327 . S
C627 C633 1.429 . S
C628 C620 1.574 . S
C628 H623 0.949 . S
C628 C634 1.368 . S
C629 C613 1.349 . S
C629 H621 0.950 . S
C629 C627 1.327 . S
C630 C618 1.349 . S
C630 H624 0.950 . S
C630 C631 1.327 . S
C631 H625 0.950 . S
C631 C630 1.327 . S
C631 C635 1.429 . S
C632 C615 1.574 . S
C632 H626 0.949 . S
C632 C636 1.368 . S
C633 C614 1.429 . S
C633 C627 1.429 . S
C633 C634 1.523 . S
C634 C615 1.368 . S
C634 C628 1.368 . S
C634 C633 1.523 . S
C635 C619 1.429 . S
C635 C631 1.429 . S
C635 C636 1.523 . S
C636 C620 1.368 . S
C636 C632 1.368 . S
C636 C635 1.523 . S
H637 C612 0.950 . S
H638 C614 0.950 . S
H639 C615 0.949 . S
H640 C617 0.950 . S
H641 C619 0.950 . S
C642 C643 1.349 . S
C642 C644 1.327 . S
C642 H667 0.950 . S
C643 C642 1.349 . S
C643 C659 1.349 . S
C644 C642 1.327 . S
C644 C663 1.429 . S
C644 H668 0.950 . S
C645 C662 1.574 . S
C645 C664 1.368 . S
C645 H669 0.949 . S
H646 C650 0.949 . S
C647 C648 1.349 . S
C647 C649 1.327 . S
C647 H670 0.950 . S
C648 C647 1.349 . S
C648 C660 1.349 . S
C649 C647 1.327 . S
C649 C665 1.429 . S
C649 H671 0.950 . S
C650 H646 0.949 . S
C650 C658 1.574 . S
C650 C666 1.368 . S
H651 C659 0.950 1_556 S
H652 C657 0.950 . S
H653 C658 0.949 . S
H654 C660 0.950 . S
H655 C661 0.950 . S
H656 C662 0.949 . S
C657 H652 0.950 . S
C657 C659 1.327 . S
C657 C663 1.429 . S
C658 C650 1.574 . S
C658 H653 0.949 . S
C658 C664 1.368 . S
C659 C643 1.349 . S
C659 H651 0.950 1_554 S
C659 C657 1.327 . S
C660 C648 1.349 . S
C660 H654 0.950 . S
C660 C661 1.327 . S
C661 H655 0.950 . S
C661 C660 1.327 . S
C661 C665 1.429 . S
C662 C645 1.574 . S
C662 H656 0.949 . S
C662 C666 1.368 . S
C663 C644 1.429 . S
C663 C657 1.429 . S
C663 C664 1.523 . S
C664 C645 1.368 . S
C664 C658 1.368 . S
C664 C663 1.523 . S
C665 C649 1.429 . S
C665 C661 1.429 . S
C665 C666 1.523 . S
C666 C650 1.368 . S
C666 C662 1.368 . S
C666 C665 1.523 . S
H667 C642 0.950 . S
H668 C644 0.950 . S
H669 C645 0.949 . S
H670 C647 0.950 . S
H671 C649 0.950 . S
C672 C673 1.349 . S
C672 C674 1.327 . S
C672 H697 0.950 . S
C673 C672 1.349 . S
C673 C689 1.349 . S
C674 C672 1.327 . S
C674 C693 1.429 . S
C674 H698 0.950 . S
C675 C692 1.574 . S
C675 C694 1.368 . S
C675 H699 0.949 . S
H676 C680 0.949 . S
C677 C678 1.349 . S
C677 C679 1.327 . S
C677 H700 0.950 . S
C678 C677 1.349 . S
C678 C690 1.349 . S
C679 C677 1.327 . S
C679 C695 1.429 . S
C679 H701 0.950 . S
C680 H676 0.949 . S
C680 C688 1.574 . S
C680 C696 1.368 . S
H681 C689 0.950 . S
H682 C687 0.950 . S
H683 C688 0.949 . S
H684 C690 0.950 . S
H685 C691 0.950 . S
H686 C692 0.949 . S
C687 H682 0.950 . S
C687 C689 1.327 . S
C687 C693 1.429 . S
C688 C680 1.574 . S
C688 H683 0.949 . S
C688 C694 1.368 . S
C689 C673 1.349 . S
C689 H681 0.950 . S
C689 C687 1.327 . S
C690 C678 1.349 . S
C690 H684 0.950 . S
C690 C691 1.327 . S
C691 H685 0.950 . S
C691 C690 1.327 . S
C691 C695 1.429 . S
C692 C675 1.574 . S
C692 H686 0.949 . S
C692 C696 1.368 . S
C693 C674 1.429 . S
C693 C687 1.429 . S
C693 C694 1.523 . S
C694 C675 1.368 . S
C694 C688 1.368 . S
C694 C693 1.523 . S
C695 C679 1.429 . S
C695 C691 1.429 . S
C695 C696 1.523 . S
C696 C680 1.368 . S
C696 C692 1.368 . S
C696 C695 1.523 . S
H697 C672 0.950 . S
H698 C674 0.950 . S
H699 C675 0.949 . S
H700 C677 0.950 . S
H701 C679 0.950 . S
C702 C703 1.349 . S
C702 C704 1.327 . S
C702 H727 0.950 . S
C703 C702 1.349 . S
C703 C719 1.349 . S
C704 C702 1.327 . S
C704 C723 1.429 . S
C704 H728 0.950 . S
C705 C722 1.574 . S
C705 C724 1.368 . S
C705 H729 0.949 . S
H706 C710 0.949 . S
C707 C708 1.349 . S
C707 C709 1.327 . S
C707 H730 0.950 . S
C708 C707 1.349 . S
C708 C720 1.349 . S
C709 C707 1.327 . S
C709 C725 1.429 . S
C709 H731 0.950 . S
C710 H706 0.949 . S
C710 C718 1.574 . S
C710 C726 1.368 . S
H711 C719 0.950 . S
H712 C717 0.950 . S
H713 C718 0.949 . S
H714 C720 0.950 . S
H715 C721 0.950 . S
H716 C722 0.949 . S
C717 H712 0.950 . S
C717 C719 1.327 . S
C717 C723 1.429 . S
C718 C710 1.574 . S
C718 H713 0.949 . S
C718 C724 1.368 . S
C719 C703 1.349 . S
C719 H711 0.950 . S
C719 C717 1.327 . S
C720 C708 1.349 . S
C720 H714 0.950 . S
C720 C721 1.327 . S
C721 H715 0.950 . S
C721 C720 1.327 . S
C721 C725 1.429 . S
C722 C705 1.574 . S
C722 H716 0.949 . S
C722 C726 1.368 . S
C723 C704 1.429 . S
C723 C717 1.429 . S
C723 C724 1.523 . S
C724 C705 1.368 . S
C724 C718 1.368 . S
C724 C723 1.523 . S
C725 C709 1.429 . S
C725 C721 1.429 . S
C725 C726 1.523 . S
C726 C710 1.368 . S
C726 C722 1.368 . S
C726 C725 1.523 . S
H727 C702 0.950 . S
H728 C704 0.950 . S
H729 C705 0.949 . S
H730 C707 0.950 . S
H731 C709 0.950 . S
C732 C733 1.349 . S
C732 C734 1.327 . S
C732 H757 0.950 . S
C733 C732 1.349 . S
C733 C749 1.349 . S
C734 C732 1.327 . S
C734 C753 1.429 . S
C734 H758 0.950 . S
C735 C752 1.574 . S
C735 C754 1.368 . S
C735 H759 0.949 . S
H736 C740 0.949 . S
C737 C738 1.349 . S
C737 C739 1.327 . S
C737 H760 0.950 . S
C738 C737 1.349 . S
C738 C750 1.349 . S
C739 C737 1.327 . S
C739 C755 1.429 . S
C739 H761 0.950 . S
C740 H736 0.949 . S
C740 C748 1.574 . S
C740 C756 1.368 . S
H741 C749 0.950 . S
H742 C747 0.950 . S
H743 C748 0.949 . S
H744 C750 0.950 . S
H745 C751 0.950 . S
H746 C752 0.949 . S
C747 H742 0.950 . S
C747 C749 1.327 . S
C747 C753 1.429 . S
C748 C740 1.574 . S
C748 H743 0.949 . S
C748 C754 1.368 . S
C749 C733 1.349 . S
C749 H741 0.950 . S
C749 C747 1.327 . S
C750 C738 1.349 . S
C750 H744 0.950 . S
C750 C751 1.327 . S
C751 H745 0.950 . S
C751 C750 1.327 . S
C751 C755 1.429 . S
C752 C735 1.574 . S
C752 H746 0.949 . S
C752 C756 1.368 . S
C753 C734 1.429 . S
C753 C747 1.429 . S
C753 C754 1.523 . S
C754 C735 1.368 . S
C754 C748 1.368 . S
C754 C753 1.523 . S
C755 C739 1.429 . S
C755 C751 1.429 . S
C755 C756 1.523 . S
C756 C740 1.368 . S
C756 C752 1.368 . S
C756 C755 1.523 . S
H757 C732 0.950 . S
H758 C734 0.950 . S
H759 C735 0.949 . S
H760 C737 0.950 . S
H761 C739 0.950 . S
C762 C763 1.349 . S
C762 C764 1.327 . S
C762 H787 0.950 . S
C763 C762 1.349 . S
C763 C779 1.349 . S
C764 C762 1.327 . S
C764 C783 1.429 . S
C764 H788 0.950 . S
C765 C782 1.574 . S
C765 C784 1.368 . S
C765 H789 0.949 . S
H766 C770 0.949 . S
C767 C768 1.349 . S
C767 C769 1.327 . S
C767 H790 0.950 . S
C768 C767 1.349 . S
C768 C780 1.349 . S
C769 C767 1.327 . S
C769 C785 1.429 . S
C769 H791 0.950 . S
C770 H766 0.949 . S
C770 C778 1.574 . S
C770 C786 1.368 . S
H771 C779 0.950 . S
H772 C777 0.950 . S
H773 C778 0.949 . S
H774 C780 0.950 . S
H775 C781 0.950 . S
H776 C782 0.949 . S
C777 H772 0.950 . S
C777 C779 1.327 . S
C777 C783 1.429 . S
C778 C770 1.574 . S
C778 H773 0.949 . S
C778 C784 1.368 . S
C779 C763 1.349 . S
C779 H771 0.950 . S
C779 C777 1.327 . S
C780 C768 1.349 . S
C780 H774 0.950 . S
C780 C781 1.327 . S
C781 H775 0.950 . S
C781 C780 1.327 . S
C781 C785 1.429 . S
C782 C765 1.574 . S
C782 H776 0.949 . S
C782 C786 1.368 . S
C783 C764 1.429 . S
C783 C777 1.429 . S
C783 C784 1.523 . S
C784 C765 1.368 . S
C784 C778 1.368 . S
C784 C783 1.523 . S
C785 C769 1.429 . S
C785 C781 1.429 . S
C785 C786 1.523 . S
C786 C770 1.368 . S
C786 C782 1.368 . S
C786 C785 1.523 . S
H787 C762 0.950 . S
H788 C764 0.950 . S
H789 C765 0.949 . S
H790 C767 0.950 . S
H791 C769 0.950 . S
C792 C793 1.349 . S
C792 C794 1.327 . S
C792 H817 0.950 . S
C793 C792 1.349 . S
C793 C809 1.349 . S
C794 C792 1.327 . S
C794 C813 1.429 . S
C794 H818 0.950 . S
C795 C812 1.574 . S
C795 C814 1.368 . S
C795 H819 0.949 . S
H796 C800 0.949 . S
C797 C798 1.349 . S
C797 C799 1.327 . S
C797 H820 0.950 . S
C798 C797 1.349 . S
C798 C810 1.349 . S
C799 C797 1.327 . S
C799 C815 1.429 . S
C799 H821 0.950 . S
C800 H796 0.949 . S
C800 C808 1.574 . S
C800 C816 1.368 . S
H801 C809 0.950 . S
H802 C807 0.950 . S
H803 C808 0.949 . S
H804 C810 0.950 . S
H805 C811 0.950 . S
H806 C812 0.949 . S
C807 H802 0.950 . S
C807 C809 1.327 . S
C807 C813 1.429 . S
C808 C800 1.574 . S
C808 H803 0.949 . S
C808 C814 1.368 . S
C809 C793 1.349 . S
C809 H801 0.950 . S
C809 C807 1.327 . S
C810 C798 1.349 . S
C810 H804 0.950 . S
C810 C811 1.327 . S
C811 H805 0.950 . S
C811 C810 1.327 . S
C811 C815 1.429 . S
C812 C795 1.574 . S
C812 H806 0.949 . S
C812 C816 1.368 . S
C813 C794 1.429 . S
C813 C807 1.429 . S
C813 C814 1.523 . S
C814 C795 1.368 . S
C814 C808 1.368 . S
C814 C813 1.523 . S
C815 C799 1.429 . S
C815 C811 1.429 . S
C815 C816 1.523 . S
C816 C800 1.368 . S
C816 C812 1.368 . S
C816 C815 1.523 . S
H817 C792 0.950 . S
H818 C794 0.950 . S
H819 C795 0.949 . S
H820 C797 0.950 . S
H821 C799 0.950 . S
C822 C823 1.349 . S
C822 C824 1.327 . S
C822 H847 0.950 . S
C823 C822 1.349 . S
C823 C839 1.349 . S
C824 C822 1.327 . S
C824 C843 1.429 . S
C824 H848 0.950 . S
C825 C842 1.574 . S
C825 C844 1.368 . S
C825 H849 0.949 . S
H826 C830 0.949 . S
C827 C828 1.349 . S
C827 C829 1.327 . S
C827 H850 0.950 . S
C828 C827 1.349 . S
C828 C840 1.349 . S
C829 C827 1.327 . S
C829 C845 1.429 . S
C829 H851 0.950 1_554 S
C830 H826 0.949 . S
C830 C838 1.574 . S
C830 C846 1.368 . S
H831 C839 0.950 . S
H832 C837 0.950 . S
H833 C838 0.949 . S
H834 C840 0.950 . S
H835 C841 0.950 . S
H836 C842 0.949 . S
C837 H832 0.950 . S
C837 C839 1.327 . S
C837 C843 1.429 . S
C838 C830 1.574 . S
C838 H833 0.949 . S
C838 C844 1.368 . S
C839 C823 1.349 . S
C839 H831 0.950 . S
C839 C837 1.327 . S
C840 C828 1.349 . S
C840 H834 0.950 . S
C840 C841 1.327 . S
C841 H835 0.950 . S
C841 C840 1.327 . S
C841 C845 1.429 . S
C842 C825 1.574 . S
C842 H836 0.949 . S
C842 C846 1.368 . S
C843 C824 1.429 . S
C843 C837 1.429 . S
C843 C844 1.523 . S
C844 C825 1.368 . S
C844 C838 1.368 . S
C844 C843 1.523 . S
C845 C829 1.429 . S
C845 C841 1.429 . S
C845 C846 1.523 1_554 S
C846 C830 1.368 . S
C846 C842 1.368 . S
C846 C845 1.523 1_556 S
H847 C822 0.950 . S
H848 C824 0.950 . S
H849 C825 0.949 . S
H850 C827 0.950 . S
H851 C829 0.950 1_556 S
C852 C853 1.349 . S
C852 C854 1.327 . S
C852 H877 0.950 . S
C853 C852 1.349 . S
C853 C869 1.349 . S
C854 C852 1.327 . S
C854 C873 1.429 . S
C854 H878 0.950 . S
C855 C872 1.574 . S
C855 C874 1.368 . S
C855 H879 0.949 . S
H856 C860 0.949 . S
C857 C858 1.349 . S
C857 C859 1.327 . S
C857 H880 0.950 . S
C858 C857 1.349 . S
C858 C870 1.349 . S
C859 C857 1.327 . S
C859 C875 1.429 . S
C859 H881 0.950 . S
C860 H856 0.949 . S
C860 C868 1.574 . S
C860 C876 1.368 . S
H861 C869 0.950 . S
H862 C867 0.950 . S
H863 C868 0.949 . S
H864 C870 0.950 . S
H865 C871 0.950 . S
H866 C872 0.949 . S
C867 H862 0.950 . S
C867 C869 1.327 . S
C867 C873 1.429 . S
C868 C860 1.574 . S
C868 H863 0.949 . S
C868 C874 1.368 . S
C869 C853 1.349 . S
C869 H861 0.950 . S
C869 C867 1.327 . S
C870 C858 1.349 . S
C870 H864 0.950 . S
C870 C871 1.327 . S
C871 H865 0.950 . S
C871 C870 1.327 . S
C871 C875 1.429 . S
C872 C855 1.574 . S
C872 H866 0.949 . S
C872 C876 1.368 . S
C873 C854 1.429 . S
C873 C867 1.429 . S
C873 C874 1.523 . S
C874 C855 1.368 . S
C874 C868 1.368 . S
C874 C873 1.523 . S
C875 C859 1.429 . S
C875 C871 1.429 . S
C875 C876 1.523 . S
C876 C860 1.368 . S
C876 C872 1.368 . S
C876 C875 1.523 . S
H877 C852 0.950 . S
H878 C854 0.950 . S
H879 C855 0.949 . S
H880 C857 0.950 . S
H881 C859 0.950 . S
C882 C883 1.349 . S
C882 C884 1.327 . S
C882 H907 0.950 . S
C883 C882 1.349 . S
C883 C899 1.349 . S
C884 C882 1.327 . S
C884 C903 1.429 . S
C884 H908 0.950 . S
C885 C902 1.574 . S
C885 C904 1.368 . S
C885 H909 0.949 . S
H886 C890 0.949 . S
C887 C888 1.349 . S
C887 C889 1.327 . S
C887 H910 0.950 . S
C888 C887 1.349 . S
C888 C900 1.349 . S
C889 C887 1.327 . S
C889 C905 1.429 . S
C889 H911 0.950 . S
C890 H886 0.949 . S
C890 C898 1.574 . S
C890 C906 1.368 . S
H891 C899 0.950 . S
H892 C897 0.950 . S
H893 C898 0.949 . S
H894 C900 0.950 . S
H895 C901 0.950 . S
H896 C902 0.949 . S
C897 H892 0.950 . S
C897 C899 1.327 . S
C897 C903 1.429 . S
C898 C890 1.574 . S
C898 H893 0.949 . S
C898 C904 1.368 . S
C899 C883 1.349 . S
C899 H891 0.950 . S
C899 C897 1.327 . S
C900 C888 1.349 . S
C900 H894 0.950 . S
C900 C901 1.327 . S
C901 H895 0.950 . S
C901 C900 1.327 . S
C901 C905 1.429 . S
C902 C885 1.574 . S
C902 H896 0.949 . S
C902 C906 1.368 . S
C903 C884 1.429 . S
C903 C897 1.429 . S
C903 C904 1.523 . S
C904 C885 1.368 . S
C904 C898 1.368 . S
C904 C903 1.523 . S
C905 C889 1.429 . S
C905 C901 1.429 . S
C905 C906 1.523 . S
C906 C890 1.368 . S
C906 C902 1.368 . S
C906 C905 1.523 . S
H907 C882 0.950 . S
H908 C884 0.950 . S
H909 C885 0.949 . S
H910 C887 0.950 . S
H911 C889 0.950 . S
C912 C913 1.349 . S
C912 C914 1.327 . S
C912 H937 0.950 . S
C913 C912 1.349 . S
C913 C929 1.349 . S
C914 C912 1.327 . S
C914 C933 1.429 . S
C914 H938 0.950 . S
C915 C932 1.574 . S
C915 C934 1.368 . S
C915 H939 0.949 . S
H916 C920 0.949 . S
C917 C918 1.349 . S
C917 C919 1.327 . S
C917 H940 0.950 . S
C918 C917 1.349 . S
C918 C930 1.349 . S
C919 C917 1.327 . S
C919 C935 1.429 . S
C919 H941 0.950 . S
C920 H916 0.949 . S
C920 C928 1.574 . S
C920 C936 1.368 . S
H921 C929 0.950 . S
H922 C927 0.950 . S
H923 C928 0.949 . S
H924 C930 0.950 . S
H925 C931 0.950 . S
H926 C932 0.949 . S
C927 H922 0.950 . S
C927 C929 1.327 . S
C927 C933 1.429 . S
C928 C920 1.574 . S
C928 H923 0.949 . S
C928 C934 1.368 . S
C929 C913 1.349 . S
C929 H921 0.950 . S
C929 C927 1.327 . S
C930 C918 1.349 . S
C930 H924 0.950 . S
C930 C931 1.327 . S
C931 H925 0.950 . S
C931 C930 1.327 . S
C931 C935 1.429 . S
C932 C915 1.574 . S
C932 H926 0.949 . S
C932 C936 1.368 . S
C933 C914 1.429 . S
C933 C927 1.429 . S
C933 C934 1.523 . S
C934 C915 1.368 . S
C934 C928 1.368 . S
C934 C933 1.523 . S
C935 C919 1.429 . S
C935 C931 1.429 . S
C935 C936 1.523 . S
C936 C920 1.368 . S
C936 C932 1.368 . S
C936 C935 1.523 . S
H937 C912 0.950 . S
H938 C914 0.950 . S
H939 C915 0.949 . S
H940 C917 0.950 . S
H941 C919 0.950 . S
C942 C943 1.349 . S
C942 C944 1.327 . S
C942 H967 0.950 . S
C943 C942 1.349 . S
C943 C959 1.349 . S
C944 C942 1.327 . S
C944 C963 1.429 . S
C944 H968 0.950 . S
C945 C962 1.574 . S
C945 C964 1.368 . S
C945 H969 0.949 . S
H946 C950 0.949 . S
C947 C948 1.349 . S
C947 C949 1.327 . S
C947 H970 0.950 . S
C948 C947 1.349 . S
C948 C960 1.349 . S
C949 C947 1.327 . S
C949 C965 1.429 . S
C949 H971 0.950 . S
C950 H946 0.949 . S
C950 C958 1.574 . S
C950 C966 1.368 . S
H951 C959 0.950 . S
H952 C957 0.950 . S
H953 C958 0.949 . S
H954 C960 0.950 . S
H955 C961 0.950 . S
H956 C962 0.949 . S
C957 H952 0.950 . S
C957 C959 1.327 . S
C957 C963 1.429 . S
C958 C950 1.574 . S
C958 H953 0.949 . S
C958 C964 1.368 . S
C959 C943 1.349 . S
C959 H951 0.950 . S
C959 C957 1.327 . S
C960 C948 1.349 . S
C960 H954 0.950 . S
C960 C961 1.327 . S
C961 H955 0.950 . S
C961 C960 1.327 . S
C961 C965 1.429 . S
C962 C945 1.574 . S
C962 H956 0.949 . S
C962 C966 1.368 . S
C963 C944 1.429 . S
C963 C957 1.429 . S
C963 C964 1.523 . S
C964 C945 1.368 . S
C964 C958 1.368 . S
C964 C963 1.523 . S
C965 C949 1.429 . S
C965 C961 1.429 . S
C965 C966 1.523 . S
C966 C950 1.368 . S
C966 C962 1.368 . S
C966 C965 1.523 . S
H967 C942 0.950 . S
H968 C944 0.950 . S
H969 C945 0.949 . S
H970 C947 0.950 . S
H971 C949 0.950 . S
C972 C973 1.349 . S
C972 C974 1.327 . S
C972 H997 0.950 . S
C973 C972 1.349 . S
C973 C989 1.349 . S
C974 C972 1.327 . S
C974 C993 1.429 . S
C974 H998 0.950 . S
C975 C992 1.574 . S
C975 C994 1.368 . S
C975 H999 0.949 . S
H976 C980 0.949 . S
C977 C978 1.349 . S
C977 C979 1.327 . S
C977 H1000 0.950 . S
C978 C977 1.349 . S
C978 C990 1.349 . S
C979 C977 1.327 . S
C979 C995 1.429 . S
C979 H1001 0.950 . S
C980 H976 0.949 . S
C980 C988 1.574 . S
C980 C996 1.368 . S
H981 C989 0.950 . S
H982 C987 0.950 . S
H983 C988 0.949 . S
H984 C990 0.950 . S
H985 C991 0.950 . S
H986 C992 0.949 . S
C987 H982 0.950 . S
C987 C989 1.327 . S
C987 C993 1.429 . S
C988 C980 1.574 . S
C988 H983 0.949 . S
C988 C994 1.368 . S
C989 C973 1.349 . S
C989 H981 0.950 . S
C989 C987 1.327 . S
C990 C978 1.349 . S
C990 H984 0.950 . S
C990 C991 1.327 . S
C991 H985 0.950 . S
C991 C990 1.327 . S
C991 C995 1.429 . S
C992 C975 1.574 . S
C992 H986 0.949 . S
C992 C996 1.368 . S
C993 C974 1.429 . S
C993 C987 1.429 . S
C993 C994 1.523 . S
C994 C975 1.368 . S
C994 C988 1.368 . S
C994 C993 1.523 . S
C995 C979 1.429 . S
C995 C991 1.429 . S
C995 C996 1.523 . S
C996 C980 1.368 . S
C996 C992 1.368 . S
C996 C995 1.523 . S
H997 C972 0.950 . S
H998 C974 0.950 . S
H999 C975 0.949 . S
H1000 C977 0.950 . S
H1001 C979 0.950 . S
C1002 C1003 1.349 . S
C1002 C1004 1.327 . S
C1002 H1027 0.950 . S
C1003 C1002 1.349 . S
C1003 C1019 1.349 . S
C1004 C1002 1.327 . S
C1004 C1023 1.429 . S
C1004 H1028 0.950 . S
C1005 C1022 1.574 . S
C1005 C1024 1.368 . S
C1005 H1029 0.949 . S
H1006 C1010 0.949 . S
C1007 C1008 1.349 . S
C1007 C1009 1.327 . S
C1007 H1030 0.950 . S
C1008 C1007 1.349 . S
C1008 C1020 1.349 . S
C1009 C1007 1.327 . S
C1009 C1025 1.429 . S
C1009 H1031 0.950 . S
C1010 H1006 0.949 . S
C1010 C1018 1.574 . S
C1010 C1026 1.368 . S
H1011 C1019 0.950 . S
H1012 C1017 0.950 . S
H1013 C1018 0.949 . S
H1014 C1020 0.950 . S
H1015 C1021 0.950 . S
H1016 C1022 0.949 . S
C1017 H1012 0.950 . S
C1017 C1019 1.327 . S
C1017 C1023 1.429 . S
C1018 C1010 1.574 . S
C1018 H1013 0.949 . S
C1018 C1024 1.368 . S
C1019 C1003 1.349 . S
C1019 H1011 0.950 . S
C1019 C1017 1.327 . S
C1020 C1008 1.349 . S
C1020 H1014 0.950 . S
C1020 C1021 1.327 . S
C1021 H1015 0.950 . S
C1021 C1020 1.327 . S
C1021 C1025 1.429 . S
C1022 C1005 1.574 . S
C1022 H1016 0.949 . S
C1022 C1026 1.368 . S
C1023 C1004 1.429 . S
C1023 C1017 1.429 . S
C1023 C1024 1.523 . S
C1024 C1005 1.368 . S
C1024 C1018 1.368 . S
C1024 C1023 1.523 . S
C1025 C1009 1.429 . S
C1025 C1021 1.429 . S
C1025 C1026 1.523 . S
C1026 C1010 1.368 . S
C1026 C1022 1.368 . S
C1026 C1025 1.523 . S
H1027 C1002 0.950 . S
H1028 C1004 0.950 . S
H1029 C1005 0.949 . S
H1030 C1007 0.950 . S
H1031 C1009 0.950 . S
C1032 C1033 1.349 . S
C1032 C1034 1.327 . S
C1032 H1057 0.950 . S
C1033 C1032 1.349 . S
C1033 C1049 1.349 . S
C1034 C1032 1.327 . S
C1034 C1053 1.429 . S
C1034 H1058 0.950 . S
C1035 C1052 1.574 . S
C1035 C1054 1.368 . S
C1035 H1059 0.949 . S
H1036 C1040 0.949 1_556 S
C1037 C1038 1.349 . S
C1037 C1039 1.327 . S
C1037 H1060 0.950 . S
C1038 C1037 1.349 . S
C1038 C1050 1.349 . S
C1039 C1037 1.327 . S
C1039 C1055 1.429 . S
C1039 H1061 0.950 . S
C1040 H1036 0.949 1_554 S
C1040 C1048 1.574 . S
C1040 C1056 1.375 . S
H1041 C1049 0.950 . S
H1042 C1047 0.950 . S
H1043 C1048 0.949 . S
H1044 C1050 0.950 . S
H1045 C1051 0.950 . S
H1046 C1052 0.949 . S
C1047 H1042 0.950 . S
C1047 C1049 1.327 . S
C1047 C1053 1.429 . S
C1048 C1040 1.574 . S
C1048 H1043 0.949 . S
C1048 C1054 1.368 . S
C1049 C1033 1.349 . S
C1049 H1041 0.950 . S
C1049 C1047 1.327 . S
C1050 C1038 1.349 . S
C1050 H1044 0.950 . S
C1050 C1051 1.327 . S
C1051 H1045 0.950 . S
C1051 C1050 1.327 . S
C1051 C1055 1.429 . S
C1052 C1035 1.574 . S
C1052 H1046 0.949 . S
C1052 C1056 1.382 . S
C1053 C1034 1.429 . S
C1053 C1047 1.429 . S
C1053 C1054 1.523 . S
C1054 C1035 1.368 . S
C1054 C1048 1.368 . S
C1054 C1053 1.523 . S
C1055 C1039 1.429 . S
C1055 C1051 1.429 . S
C1055 C1056 1.497 1_556 S
C1056 C1040 1.375 . S
C1056 C1052 1.382 . S
C1056 C1055 1.497 1_554 S
H1057 C1032 0.950 . S
H1058 C1034 0.950 . S
H1059 C1035 0.949 . S
H1060 C1037 0.950 . S
H1061 C1039 0.950 . S
C1062 C1063 1.349 . S
C1062 C1064 1.327 . S
C1062 H1087 0.950 . S
C1063 C1062 1.349 . S
C1063 C1079 1.349 . S
C1064 C1062 1.327 . S
C1064 C1083 1.429 . S
C1064 H1088 0.950 . S
C1065 C1082 1.574 . S
C1065 C1084 1.368 . S
C1065 H1089 0.949 . S
H1066 C1070 0.949 . S
C1067 C1068 1.349 . S
C1067 C1069 1.327 . S
C1067 H1090 0.950 . S
C1068 C1067 1.349 . S
C1068 C1080 1.349 . S
C1069 C1067 1.327 . S
C1069 C1085 1.429 . S
C1069 H1091 0.950 . S
C1070 H1066 0.949 . S
C1070 C1078 1.574 . S
C1070 C1086 1.368 . S
H1071 C1079 0.950 . S
H1072 C1077 0.950 . S
H1073 C1078 0.949 . S
H1074 C1080 0.950 . S
H1075 C1081 0.950 . S
H1076 C1082 0.949 . S
C1077 H1072 0.950 . S
C1077 C1079 1.327 . S
C1077 C1083 1.429 . S
C1078 C1070 1.574 . S
C1078 H1073 0.949 . S
C1078 C1084 1.368 . S
C1079 C1063 1.349 . S
C1079 H1071 0.950 . S
C1079 C1077 1.327 . S
C1080 C1068 1.349 . S
C1080 H1074 0.950 . S
C1080 C1081 1.327 . S
C1081 H1075 0.950 . S
C1081 C1080 1.327 . S
C1081 C1085 1.429 . S
C1082 C1065 1.574 . S
C1082 H1076 0.949 . S
C1082 C1086 1.368 . S
C1083 C1064 1.429 . S
C1083 C1077 1.429 . S
C1083 C1084 1.523 . S
C1084 C1065 1.368 . S
C1084 C1078 1.368 . S
C1084 C1083 1.523 . S
C1085 C1069 1.429 . S
C1085 C1081 1.429 . S
C1085 C1086 1.523 . S
C1086 C1070 1.368 . S
C1086 C1082 1.368 . S
C1086 C1085 1.523 . S
H1087 C1062 0.950 . S
H1088 C1064 0.950 . S
H1089 C1065 0.949 . S
H1090 C1067 0.950 . S
H1091 C1069 0.950 . S
C378 C358 1.617 . S
C373 C45 1.619 . S
C403 C84 1.616 . S
C408 C299 1.624 . S
C433 C126 1.571 . S
C438 C302 1.600 . S
C463 C189 1.619 . S
C468 C316 1.617 . S
C498 C341 1.624 . S
C493 C228 1.615 . S
C523 C270 1.571 . S
C528 C344 1.600 . S
C553 C69 1.565 . S
C558 C313 1.584 . S
C583 C141 1.600 . S
C588 C327 1.599 . S
C613 C174 1.554 . S
C618 C330 1.578 . S
C648 C355 1.584 . S
C643 C213 1.565 . S
C678 C369 1.599 . S
C673 C285 1.600 . S
C708 C288 1.578 . S
C703 C30 1.553 . S
C733 C36 1.480 . S
C738 C311 1.475 . S
C763 C93 1.492 . S
C768 C325 1.491 . S
C798 C335 1.500 . S
C793 C117 1.497 . S
C823 C180 1.480 . S
C828 C353 1.475 . S
C858 C367 1.491 . S
C853 C237 1.492 . S
C888 C293 1.500 . S
C883 C261 1.497 . S
C918 C363 1.529 . S
C913 C78 1.522 . S
C943 C132 1.507 . S
C948 C297 1.504 . S
C978 C307 1.512 . S
C973 C165 1.507 . S
C1003 C222 1.522 . S
C1008 C321 1.529 . S
C1033 C276 1.507 . S
C1038 C339 1.504 . S
C1063 C21 1.508 . S
C1068 C349 1.512 . S
