# Generated by pormake.
# Topology pyr, (3,6)-cn, num edge types: 1
# Building blocks:
#     Node 0, Type 0, BuildingBlock: PAMTOO_clean_linker_0, # of connection points: 3
#     Node 1, Type 0, BuildingBlock: PAMTOO_clean_linker_0, # of connection points: 3
#     Node 2, Type 0, BuildingBlock: PAMTOO_clean_linker_0, # of connection points: 3
#     Node 3, Type 0, BuildingBlock: PAMTOO_clean_linker_0, # of connection points: 3
#     Node 4, Type 0, BuildingBlock: PAMTOO_clean_linker_0, # of connection points: 3
#     Node 5, Type 0, BuildingBlock: PAMTOO_clean_linker_0, # of connection points: 3
#     Node 6, Type 0, BuildingBlock: PAMTOO_clean_linker_0, # of connection points: 3
#     Node 7, Type 0, BuildingBlock: PAMTOO_clean_linker_0, # of connection points: 3
#     Node 8, Type 1, BuildingBlock: BETDEL_clean_sbu_0, # of connection points: 6
#     Node 9, Type 1, BuildingBlock: BETDEL_clean_sbu_0, # of connection points: 6
#     Node 10, Type 1, BuildingBlock: BETDEL_clean_sbu_0, # of connection points: 6
#     Node 11, Type 1, BuildingBlock: BETDEL_clean_sbu_0, # of connection points: 6
#     Edge 12, Type (0, 1), BuildingBlock: UVAHIK_clean_linker_0, # of connection points: 2
#     Edge 13, Type (0, 1), BuildingBlock: UVAHIK_clean_linker_0, # of connection points: 2
#     Edge 14, Type (0, 1), BuildingBlock: UVAHIK_clean_linker_0, # of connection points: 2
#     Edge 15, Type (0, 1), BuildingBlock: UVAHIK_clean_linker_0, # of connection points: 2
#     Edge 16, Type (0, 1), BuildingBlock: UVAHIK_clean_linker_0, # of connection points: 2
#     Edge 17, Type (0, 1), BuildingBlock: UVAHIK_clean_linker_0, # of connection points: 2
#     Edge 18, Type (0, 1), BuildingBlock: UVAHIK_clean_linker_0, # of connection points: 2
#     Edge 19, Type (0, 1), BuildingBlock: UVAHIK_clean_linker_0, # of connection points: 2
#     Edge 20, Type (0, 1), BuildingBlock: UVAHIK_clean_linker_0, # of connection points: 2
#     Edge 21, Type (0, 1), BuildingBlock: UVAHIK_clean_linker_0, # of connection points: 2
#     Edge 22, Type (0, 1), BuildingBlock: UVAHIK_clean_linker_0, # of connection points: 2
#     Edge 23, Type (0, 1), BuildingBlock: UVAHIK_clean_linker_0, # of connection points: 2
#     Edge 24, Type (0, 1), BuildingBlock: UVAHIK_clean_linker_0, # of connection points: 2
#     Edge 25, Type (0, 1), BuildingBlock: UVAHIK_clean_linker_0, # of connection points: 2
#     Edge 26, Type (0, 1), BuildingBlock: UVAHIK_clean_linker_0, # of connection points: 2
#     Edge 27, Type (0, 1), BuildingBlock: UVAHIK_clean_linker_0, # of connection points: 2
#     Edge 28, Type (0, 1), BuildingBlock: UVAHIK_clean_linker_0, # of connection points: 2
#     Edge 29, Type (0, 1), BuildingBlock: UVAHIK_clean_linker_0, # of connection points: 2
#     Edge 30, Type (0, 1), BuildingBlock: UVAHIK_clean_linker_0, # of connection points: 2
#     Edge 31, Type (0, 1), BuildingBlock: UVAHIK_clean_linker_0, # of connection points: 2
#     Edge 32, Type (0, 1), BuildingBlock: UVAHIK_clean_linker_0, # of connection points: 2
#     Edge 33, Type (0, 1), BuildingBlock: UVAHIK_clean_linker_0, # of connection points: 2
#     Edge 34, Type (0, 1), BuildingBlock: UVAHIK_clean_linker_0, # of connection points: 2
#     Edge 35, Type (0, 1), BuildingBlock: UVAHIK_clean_linker_0, # of connection points: 2
# Relax obj value: 0.080
# Max RMSD: 0.195
# Mean RMSD: 0.138
data_MOF--net-pyr--node1-BETDEL_clean_sbu_0--node2-PAMTOO_clean_linker_0--edge1-UVAHIK_clean_linker_0
_symmetry_space_group_name_H-M    P1
_symmetry_Int_Tables_number       1
_symmetry_cell_setting            triclinic
loop_
_symmetry_equiv_pos_as_xyz
'x, y, z'
_cell_length_a     46.611269
_cell_length_b     50.185912
_cell_length_c     45.522083
_cell_angle_alpha  91.89233
_cell_angle_beta   90.580199
_cell_angle_gamma 99.359206
loop_
_atom_site_label
_atom_site_type_symbol
_atom_site_fract_x
_atom_site_fract_y
_atom_site_fract_z
_atom_type_partial_charge
H0 H 0.16854 0.22011 0.20913 0.0
H1 H 0.23255 0.16707 0.20781 0.0
H2 H 0.23219 0.22463 0.14069 0.0
H3 H 0.24884 0.1764 0.11653 0.0
C4 C 0.25294 0.16653 0.13732 0.0
O5 O 0.25724 0.18575 0.16002 0.0
H6 H 0.23362 0.15105 0.14178 0.0
C7 C 0.18717 0.21325 0.19918 0.0
C8 C 0.19893 0.2253 0.17353 0.0
C9 C 0.19891 0.1921 0.21179 0.0
C10 C 0.22293 0.18322 0.19853 0.0
C11 C 0.23479 0.19508 0.17308 0.0
C12 C 0.22303 0.21614 0.16077 0.0
H13 H 0.28972 0.88057 0.7151 0.0
H14 H 0.28935 0.83014 0.63628 0.0
H15 H 0.35024 0.8248 0.70594 0.0
H16 H 0.36856 0.83064 0.64155 0.0
C17 C 0.35324 0.81223 0.63393 0.0
O18 O 0.33141 0.80585 0.654 0.0
H19 H 0.34351 0.81673 0.61262 0.0
C20 C 0.29838 0.86536 0.70206 0.0
C21 C 0.32153 0.85403 0.71367 0.0
C22 C 0.28625 0.857 0.67412 0.0
C23 C 0.29757 0.83665 0.65812 0.0
C24 C 0.3204 0.82503 0.66975 0.0
C25 C 0.3322 0.83358 0.69748 0.0
H26 H 0.70332 0.32075 0.92222 0.0
H27 H 0.62828 0.31639 0.86531 0.0
H28 H 0.69861 0.38255 0.8596 0.0
H29 H 0.63571 0.393 0.86311 0.0
C30 C 0.62728 0.3782 0.84502 0.0
O31 O 0.64727 0.36133 0.83905 0.0
H32 H 0.6066 0.36601 0.85211 0.0
C33 C 0.6918 0.32916 0.9049 0.0
C34 C 0.70458 0.35321 0.89204 0.0
C35 C 0.66435 0.31568 0.89541 0.0
C36 C 0.6495 0.32652 0.8729 0.0
C37 C 0.66172 0.35085 0.86051 0.0
C38 C 0.68918 0.36408 0.86994 0.0
H39 H 0.85593 0.70701 0.40922 0.0
H40 H 0.85139 0.64295 0.34328 0.0
H41 H 0.91587 0.71386 0.33728 0.0
H42 H 0.8872 0.6944 0.28093 0.0
C43 C 0.882 0.67246 0.28528 0.0
O44 O 0.89381 0.66751 0.31205 0.0
H45 H 0.85789 0.66675 0.2855 0.0
C46 C 0.86421 0.69868 0.38936 0.0
C47 C 0.88778 0.71357 0.37495 0.0
C48 C 0.85103 0.67316 0.37822 0.0
C49 C 0.86155 0.66248 0.35238 0.0
C50 C 0.88454 0.67743 0.3375 0.0
C51 C 0.89776 0.70277 0.34883 0.0
H52 H 0.82535 0.88426 0.85954 0.0
H53 H 0.81077 0.83042 0.93148 0.0
H54 H 0.87682 0.82088 0.86903 0.0
H55 H 0.83124 0.77293 0.88606 0.0
C56 C 0.83619 0.77613 0.91005 0.0
O57 O 0.85067 0.80195 0.91619 0.0
H58 H 0.81517 0.77308 0.9218 0.0
C59 C 0.83052 0.86702 0.87104 0.0
C60 C 0.8531 0.85372 0.86104 0.0
C61 C 0.81524 0.85889 0.89651 0.0
C62 C 0.82251 0.83713 0.91193 0.0
C63 C 0.84446 0.82341 0.90177 0.0
C64 C 0.85988 0.83178 0.87659 0.0
H65 H 0.79173 0.16434 0.34927 0.0
H66 H 0.73368 0.22305 0.35214 0.0
H67 H 0.79616 0.22281 0.42139 0.0
H68 H 0.7423 0.23691 0.444 0.0
C69 C 0.73239 0.24128 0.42273 0.0
O70 O 0.75379 0.24576 0.4019 0.0
H71 H 0.71588 0.2234 0.41607 0.0
C72 C 0.78419 0.18146 0.35994 0.0
C73 C 0.7967 0.19181 0.38712 0.0
C74 C 0.76156 0.19263 0.34676 0.0
C75 C 0.75163 0.21453 0.36118 0.0
C76 C 0.7641 0.22517 0.38797 0.0
C77 C 0.78673 0.21411 0.40069 0.0
H78 H 0.36622 0.71319 0.12997 0.0
H79 H 0.38153 0.645 0.17988 0.0
H80 H 0.44193 0.71874 0.18615 0.0
H81 H 0.46989 0.67252 0.19172 0.0
C82 C 0.45165 0.65768 0.19993 0.0
O83 O 0.42824 0.67041 0.20611 0.0
H84 H 0.44535 0.64147 0.18267 0.0
C85 C 0.37961 0.70377 0.14474 0.0
C86 C 0.40549 0.71902 0.15627 0.0
C87 C 0.37042 0.67697 0.15309 0.0
C88 C 0.3877 0.66563 0.17321 0.0
C89 C 0.4131 0.68086 0.18522 0.0
C90 C 0.42199 0.70739 0.17679 0.0
H91 H 0.13808 0.32975 0.73231 0.0
H92 H 0.19787 0.40419 0.72558 0.0
H93 H 0.20308 0.33836 0.6648 0.0
H94 H 0.25795 0.36502 0.69077 0.0
C95 C 0.2539 0.38629 0.69159 0.0
O96 O 0.22619 0.38736 0.68139 0.0
H97 H 0.25624 0.39385 0.71491 0.0
C98 C 0.15622 0.34159 0.72151 0.0
C99 C 0.16885 0.33067 0.69685 0.0
C100 C 0.16641 0.36818 0.73178 0.0
C101 C 0.18951 0.38379 0.71757 0.0
C102 C 0.20275 0.37284 0.6937 0.0
C103 C 0.19232 0.34653 0.6832 0.0
Dy104 Dy 0.04627 0.02867 0.50959 0.0
C105 C 0.99717 0.98316 0.61492 0.0
C106 C 0.0646 0.05505 0.46002 0.0
Dy107 Dy 0.01885 0.01043 0.56702 0.0
O108 O 0.07011 0.03151 0.4669 0.0
O109 O 0.04893 0.06425 0.48018 0.0
O110 O 0.07424 0.9964 0.51069 0.0
O111 O 0.06291 0.01425 0.55031 0.0
C112 C 0.07506 0.99576 0.53912 0.0
C113 C 0.991 0.04409 0.5375 0.0
O114 O 0.04761 0.04721 0.58511 0.0
O115 O 0.06101 0.06491 0.53976 0.0
O116 O 0.98177 0.99192 0.5946 0.0
O117 O 0.02467 0.98945 0.60929 0.0
O118 O 0.99237 0.04385 0.566 0.0
O119 O 0.00248 0.02513 0.52632 0.0
O120 O 0.01308 0.99428 0.49303 0.0
O121 O 0.01018 0.97317 0.53743 0.0
C122 C 0.06032 0.06709 0.5689 0.0
C123 C 0.00572 0.9725 0.50861 0.0
Dy124 Dy 0.56512 0.03245 0.05789 0.0
C125 C 0.48708 0.97569 0.96406 0.0
C126 C 0.60549 0.06475 0.09232 0.0
Dy127 Dy 0.52097 0.00553 0.0063 0.0
O128 O 0.60501 0.03915 0.08661 0.0
O129 O 0.58399 0.07303 0.07873 0.0
O130 O 0.55276 -0.00044 0.09084 0.0
O131 O 0.53466 0.99642 0.04925 0.0
C132 C 0.53474 0.98443 0.07289 0.0
C133 C 0.54372 0.05781 0.00241 0.0
O134 O 0.49066 0.01881 0.03931 0.0
O135 O 0.52456 0.05021 0.06606 0.0
O136 O 0.50667 0.99659 0.95941 0.0
O137 O 0.48601 0.9708 0.99197 0.0
O138 O 0.51788 0.04747 0.99266 0.0
O139 O 0.55675 0.03959 0.01177 0.0
O140 O 0.59486 0.01435 0.02774 0.0
O141 O 0.56062 0.98671 0.99741 0.0
C142 C 0.49734 0.03935 0.0587 0.0
C143 C 0.58769 0.99493 0.00718 0.0
Dy144 Dy 0.55481 0.50441 0.51022 0.0
C145 C 0.50896 0.59276 0.56641 0.0
C146 C 0.58511 0.46663 0.48735 0.0
Dy147 Dy 0.53904 0.55461 0.54385 0.0
O148 O 0.55699 0.46488 0.48617 0.0
O149 O 0.59664 0.48911 0.50079 0.0
O150 O 0.50748 0.48651 0.50545 0.0
O151 O 0.52219 0.51171 0.54199 0.0
C152 C 0.49993 0.49948 0.52856 0.0
C153 C 0.59386 0.55931 0.52519 0.0
O154 O 0.54867 0.53065 0.58231 0.0
O155 O 0.57163 0.49979 0.55605 0.0
O156 O 0.53688 0.59359 0.56916 0.0
O157 O 0.49753 0.57102 0.55157 0.0
O158 O 0.58658 0.57213 0.54854 0.0
O159 O 0.57141 0.54735 0.51194 0.0
O160 O 0.5444 0.52763 0.4717 0.0
O161 O 0.52236 0.55929 0.49781 0.0
C162 C 0.56462 0.511 0.58127 0.0
C163 C 0.52874 0.54746 0.47267 0.0
Dy164 Dy 0.04347 0.4825 0.03953 0.0
C165 C 0.00947 0.58067 0.00148 0.0
C166 C 0.06589 0.43737 0.05265 0.0
Dy167 Dy 0.0324 0.5358 0.01459 0.0
O168 O 0.04155 0.4433 0.06244 0.0
O169 O 0.07792 0.456 0.03548 0.0
O170 O 0.01041 0.48536 0.07452 0.0
O171 O 0.03467 0.52067 0.05852 0.0
C172 C 0.01385 0.51155 0.07464 0.0
C173 C 0.06257 0.50658 0.98011 0.0
O174 O 0.07345 0.5519 0.0389 0.0
O175 O 0.08602 0.5101 0.04934 0.0
O176 O 0.02533 0.56845 0.98397 0.0
O177 O 0.00635 0.56853 0.02625 0.0
O178 O 0.06686 0.53285 0.9811 0.0
O179 O 0.04119 0.49753 0.99559 0.0
O180 O 0.00454 0.46711 0.01117 0.0
O181 O 0.98936 0.5086 0.00725 0.0
C182 C 0.09221 0.53688 0.04855 0.0
C183 C 0.9844 0.48185 0.00444 0.0
C184 C 0.17465 0.19389 0.26076 0.0
C185 C 0.18536 0.17872 0.23807 0.0
C186 C 0.16063 0.18111 0.28472 0.0
C187 C 0.12341 0.11411 0.30743 0.0
H188 H 0.13481 0.14672 0.38598 0.0
C189 C 0.08991 0.05624 0.41212 0.0
C190 C 0.07579 0.06952 0.43386 0.0
C191 C 0.10167 0.07007 0.3878 0.0
C192 C 0.13118 0.13755 0.3641 0.0
H193 H 0.18991 0.13815 0.22301 0.0
H194 H 0.16661 0.11604 0.26529 0.0
H195 H 0.15956 0.16985 0.34474 0.0
H196 H 0.06256 0.10746 0.44732 0.0
H197 H 0.08351 0.13186 0.40477 0.0
H198 H 0.09561 0.08149 0.32704 0.0
C199 C 0.16842 0.13778 0.26428 0.0
C200 C 0.14532 0.15078 0.34045 0.0
C201 C 0.18222 0.15052 0.24022 0.0
C202 C 0.07336 0.0968 0.4308 0.0
C203 C 0.08544 0.11076 0.4066 0.0
C204 C 0.10952 0.10078 0.3311 0.0
C205 C 0.15718 0.15287 0.28668 0.0
C206 C 0.14174 0.13914 0.31184 0.0
C207 C 0.09978 0.09752 0.38493 0.0
C208 C 0.1134 0.1123 0.35968 0.0
H209 H 0.17704 0.21568 0.26002 0.0
H210 H 0.15205 0.19337 0.30143 0.0
H211 H 0.11962 0.10482 0.28563 0.0
H212 H 0.09209 0.0352 0.41401 0.0
H213 H 0.11284 0.05945 0.37157 0.0
C214 C 0.34118 0.84699 0.76392 0.0
C215 C 0.33547 0.86458 0.74204 0.0
C216 C 0.35484 0.85722 0.79041 0.0
C217 C 0.37453 0.92152 0.83523 0.0
H218 H 0.43145 0.88373 0.87104 0.0
C219 C 0.46574 0.97266 0.91362 0.0
C220 C 0.46799 0.96088 0.94091 0.0
C221 C 0.44727 0.95933 0.8916 0.0
C222 C 0.41534 0.89428 0.86142 0.0
H223 H 0.34004 0.9065 0.7303 0.0
H224 H 0.36467 0.92434 0.77579 0.0
H225 H 0.4035 0.86346 0.8279 0.0
H226 H 0.45321 0.92583 0.96658 0.0
H227 H 0.42136 0.90191 0.92734 0.0
H228 H 0.38769 0.95298 0.86789 0.0
C229 C 0.35775 0.90272 0.77323 0.0
C230 C 0.39922 0.88268 0.83678 0.0
C231 C 0.34376 0.89252 0.74702 0.0
C232 C 0.45175 0.93531 0.9457 0.0
C233 C 0.43367 0.92166 0.92334 0.0
C234 C 0.39099 0.93327 0.85947 0.0
C235 C 0.36344 0.88524 0.79537 0.0
C236 C 0.37893 0.89638 0.82304 0.0
C237 C 0.43111 0.93374 0.89623 0.0
C238 C 0.4118 0.91994 0.8725 0.0
H239 H 0.33482 0.82535 0.76065 0.0
H240 H 0.35846 0.84314 0.80704 0.0
H241 H 0.35858 0.93237 0.82584 0.0
H242 H 0.47799 0.99238 0.90938 0.0
H243 H 0.44581 0.96892 0.87078 0.0
C244 C 0.61591 0.41967 0.82039 0.0
C245 C 0.62131 0.39297 0.81792 0.0
C246 C 0.60946 0.43321 0.79542 0.0
C247 C 0.58433 0.42071 0.7177 0.0
H248 H 0.61565 0.49666 0.71056 0.0
C249 C 0.58306 0.47451 0.60834 0.0
C250 C 0.57261 0.49927 0.60901 0.0
C251 C 0.5889 0.46239 0.6344 0.0
C252 C 0.60658 0.47551 0.71241 0.0
H253 H 0.62285 0.35904 0.78761 0.0
H254 H 0.61275 0.38287 0.74391 0.0
H255 H 0.62596 0.47359 0.75493 0.0
H256 H 0.56092 0.5311 0.63765 0.0
H257 H 0.57161 0.50997 0.68332 0.0
H258 H 0.56559 0.42255 0.67484 0.0
C259 C 0.61324 0.39341 0.7651 0.0
C260 C 0.61238 0.46228 0.73784 0.0
C261 C 0.6194 0.37982 0.79009 0.0
C262 C 0.56887 0.51199 0.63638 0.0
C263 C 0.57507 0.49998 0.66251 0.0
C264 C 0.57883 0.43385 0.6922 0.0
C265 C 0.60816 0.42029 0.76742 0.0
C266 C 0.60145 0.43465 0.74073 0.0
C267 C 0.58476 0.47487 0.66173 0.0
C268 C 0.59003 0.46132 0.68923 0.0
H269 H 0.61656 0.43003 0.84171 0.0
H270 H 0.60507 0.45368 0.79816 0.0
H271 H 0.57497 0.39962 0.71939 0.0
H272 H 0.58621 0.46411 0.58769 0.0
H273 H 0.59668 0.44319 0.63318 0.0
C274 C 0.91734 0.6678 0.24456 0.0
C275 C 0.89406 0.65608 0.26166 0.0
C276 C 0.92916 0.65221 0.22332 0.0
C277 C 0.93641 0.58195 0.20379 0.0
H278 H 0.95652 0.61017 0.12707 0.0
C279 C 0.97531 0.51613 0.11113 0.0
C280 C 0.9987 0.52824 0.09443 0.0
C281 C 0.96143 0.53177 0.13061 0.0
C282 C 0.95128 0.60211 0.14849 0.0
H283 H 0.86532 0.61902 0.27079 0.0
H284 H 0.88581 0.59164 0.23345 0.0
H285 H 0.93448 0.63747 0.16305 0.0
H286 H 0.02593 0.56608 0.08472 0.0
H287 H 0.00189 0.59343 0.11893 0.0
H288 H 0.95347 0.54675 0.18946 0.0
C289 C 0.89491 0.61285 0.23637 0.0
C290 C 0.93865 0.61774 0.16908 0.0
C291 C 0.88305 0.62848 0.25753 0.0
C292 C 0.00779 0.55628 0.09723 0.0
C293 C 0.99395 0.57193 0.11673 0.0
C294 C 0.9491 0.56637 0.18325 0.0
C295 C 0.91812 0.62454 0.21904 0.0
C296 C 0.93113 0.60784 0.19697 0.0
C297 C 0.97074 0.55982 0.13381 0.0
C298 C 0.95674 0.57627 0.15538 0.0
H299 H 0.92648 0.68897 0.24777 0.0
H300 H 0.94734 0.66168 0.21065 0.0
H301 H 0.93128 0.57393 0.22525 0.0
H302 H 0.96778 0.49455 0.10923 0.0
H303 H 0.94334 0.52188 0.14309 0.0
C304 C 0.27622 0.12564 0.12554 0.0
C305 C 0.27942 0.15319 0.13367 0.0
C306 C 0.30062 0.11337 0.12045 0.0
C307 C 0.37843 0.12952 0.10185 0.0
H308 H 0.37919 0.05558 0.1237 0.0
C309 C 0.47889 0.07721 0.08583 0.0
C310 C 0.47332 0.05156 0.07161 0.0
C311 C 0.456 0.08958 0.09616 0.0
C312 C 0.37921 0.07622 0.11741 0.0
H313 H 0.31053 0.1898 0.14186 0.0
H314 H 0.35327 0.16825 0.13394 0.0
H315 H 0.33788 0.07758 0.13686 0.0
H316 H 0.4394 0.01839 0.05799 0.0
H317 H 0.3995 0.03995 0.07622 0.0
H318 H 0.41984 0.1281 0.08248 0.0
C319 C 0.33192 0.15608 0.13134 0.0
C320 C 0.35553 0.0888 0.12484 0.0
C321 C 0.30748 0.16838 0.1362 0.0
C322 C 0.44444 0.0382 0.06874 0.0
C323 C 0.42158 0.05046 0.07934 0.0
C324 C 0.40221 0.11701 0.09466 0.0
C325 C 0.32879 0.12843 0.12326 0.0
C326 C 0.35469 0.11551 0.11684 0.0
C327 C 0.42711 0.07642 0.09278 0.0
C328 C 0.40268 0.09014 0.10208 0.0
H329 H 0.25479 0.11364 0.12276 0.0
H330 H 0.29734 0.09221 0.11361 0.0
H331 H 0.37834 0.14993 0.09489 0.0
H332 H 0.50089 0.08808 0.08837 0.0
H333 H 0.46087 0.10951 0.10667 0.0
C334 C 0.24072 0.85507 0.64295 0.0
C335 C 0.26237 0.86994 0.66154 0.0
C336 C 0.21879 0.86743 0.63071 0.0
C337 C 0.17669 0.9213 0.64151 0.0
H338 H 0.17011 0.92188 0.55662 0.0
C339 C 0.10456 0.98786 0.58328 0.0
C340 C 0.09287 0.97933 0.55539 0.0
C341 C 0.12365 0.97331 0.59727 0.0
C342 C 0.17104 0.92147 0.58036 0.0
H343 H 0.27765 0.90984 0.68136 0.0
H344 H 0.23852 0.93077 0.66114 0.0
H345 H 0.2057 0.89812 0.57919 0.0
H346 H 0.09031 0.94825 0.52094 0.0
H347 H 0.12204 0.92196 0.54588 0.0
H348 H 0.14152 0.94381 0.643 0.0
C349 C 0.2388 0.90956 0.65609 0.0
C350 C 0.19167 0.90798 0.59322 0.0
C351 C 0.26111 0.89742 0.66781 0.0
C352 C 0.09942 0.95542 0.54231 0.0
C353 C 0.11788 0.94051 0.55654 0.0
C354 C 0.15557 0.9343 0.62868 0.0
C355 C 0.21762 0.89473 0.63728 0.0
C356 C 0.19484 0.908 0.62386 0.0
C357 C 0.13088 0.94956 0.58393 0.0
C358 C 0.15258 0.9348 0.59787 0.0
H359 H 0.24049 0.8338 0.63798 0.0
H360 H 0.20254 0.85557 0.61633 0.0
H361 H 0.17869 0.92141 0.66525 0.0
H362 H 0.09986 0.00633 0.59377 0.0
H363 H 0.13339 0.98124 0.61809 0.0
C364 C 0.74033 0.39479 0.90618 0.0
C365 C 0.73409 0.36661 0.90156 0.0
C366 C 0.76791 0.40718 0.91611 0.0
C367 C 0.83258 0.39263 0.95563 0.0
H368 H 0.87007 0.46009 0.92402 0.0
C369 C 0.95059 0.44022 0.98682 0.0
C370 C 0.95607 0.46835 0.99213 0.0
C371 C 0.92384 0.42761 0.97498 0.0
C372 C 0.85975 0.44139 0.93326 0.0
H373 H 0.75215 0.32945 0.90263 0.0
H374 H 0.80021 0.35106 0.91999 0.0
H375 H 0.82271 0.43858 0.90445 0.0
H376 H 0.93764 0.50526 0.98931 0.0
H377 H 0.89099 0.48321 0.96902 0.0
H378 H 0.86948 0.3955 0.98457 0.0
C379 C 0.78365 0.36352 0.91648 0.0
C380 C 0.83264 0.42908 0.92205 0.0
C381 C 0.75613 0.35115 0.90655 0.0
C382 C 0.93422 0.48356 0.98539 0.0
C383 C 0.90751 0.47096 0.97358 0.0
C384 C 0.85966 0.40495 0.96686 0.0
C385 C 0.78978 0.39164 0.9216 0.0
C386 C 0.81874 0.4046 0.93316 0.0
C387 C 0.90202 0.44285 0.96822 0.0
C388 C 0.87351 0.4295 0.95586 0.0
H389 H 0.7237 0.4072 0.90279 0.0
H390 H 0.77188 0.42887 0.92017 0.0
H391 H 0.82222 0.37398 0.96497 0.0
H392 H 0.96698 0.42791 0.99165 0.0
H393 H 0.92039 0.40594 0.97078 0.0
C394 C 0.80179 0.67105 0.39984 0.0
C395 C 0.82562 0.65821 0.39309 0.0
C396 C 0.77765 0.65712 0.41377 0.0
C397 C 0.72342 0.61576 0.42464 0.0
H398 H 0.73258 0.58147 0.49856 0.0
C399 C 0.62605 0.55577 0.48237 0.0
C400 C 0.62261 0.56472 0.51148 0.0
C401 C 0.65222 0.56356 0.46799 0.0
C402 C 0.7298 0.59086 0.47786 0.0
H403 H 0.84322 0.62098 0.39579 0.0
H404 H 0.80095 0.59662 0.42089 0.0
H405 H 0.77576 0.60266 0.47245 0.0
H406 H 0.64421 0.58738 0.54903 0.0
H407 H 0.69027 0.60081 0.5239 0.0
H408 H 0.67759 0.60427 0.43 0.0
C409 C 0.801 0.6174 0.41513 0.0
C410 C 0.75441 0.6028 0.4629 0.0
C411 C 0.825 0.63122 0.40069 0.0
C412 C 0.6463 0.58034 0.52653 0.0
C413 C 0.67264 0.58789 0.51222 0.0
C414 C 0.69891 0.60347 0.4393 0.0
C415 C 0.77707 0.63021 0.4216 0.0
C416 C 0.75136 0.61573 0.43641 0.0
C417 C 0.67554 0.58016 0.48259 0.0
C418 C 0.70183 0.59122 0.46623 0.0
H419 H 0.80172 0.69181 0.39403 0.0
H420 H 0.75952 0.66747 0.41872 0.0
H421 H 0.72055 0.62549 0.40416 0.0
H422 H 0.60818 0.54355 0.47031 0.0
H423 H 0.65403 0.55711 0.44523 0.0
C424 C 0.15505 0.24525 0.15897 0.0
C425 C 0.18546 0.24678 0.15966 0.0
C426 C 0.14232 0.2655 0.1463 0.0
C427 C 0.15392 0.31856 0.09273 0.0
H428 H 0.09583 0.34929 0.13699 0.0
C429 C 0.10814 0.41274 0.05568 0.0
C430 C 0.07896 0.4141 0.06172 0.0
C431 C 0.12115 0.39173 0.06641 0.0
C432 C 0.11163 0.34065 0.12407 0.0
H433 H 0.22627 0.27087 0.14733 0.0
H434 H 0.20383 0.30595 0.12451 0.0
H435 H 0.11854 0.31376 0.15801 0.0
H436 H 0.04005 0.39424 0.08253 0.0
H437 H 0.06232 0.35702 0.10035 0.0
H438 H 0.14666 0.34501 0.05851 0.0
C439 C 0.18998 0.28899 0.13388 0.0
C440 C 0.12474 0.32039 0.13622 0.0
C441 C 0.20278 0.26887 0.14689 0.0
C442 C 0.06269 0.39371 0.07778 0.0
C443 C 0.07555 0.37254 0.08818 0.0
C444 C 0.14055 0.33864 0.08038 0.0
C445 C 0.15965 0.28756 0.13368 0.0
C446 C 0.146 0.30916 0.12069 0.0
C447 C 0.10509 0.37152 0.08309 0.0
C448 C 0.11921 0.34993 0.09591 0.0
H449 H 0.14098 0.22823 0.16793 0.0
H450 H 0.11884 0.26374 0.14605 0.0
H451 H 0.17009 0.31003 0.08021 0.0
H452 H 0.12117 0.42834 0.04343 0.0
H453 H 0.14401 0.39181 0.06233 0.0
C454 C 0.64112 0.2671 0.89121 0.0
C455 C 0.65157 0.29014 0.90891 0.0
C456 C 0.63052 0.24261 0.90404 0.0
C457 C 0.59803 0.21348 0.97059 0.0
H458 H 0.62559 0.14835 0.94282 0.0
C459 C 0.53998 0.10507 0.99037 0.0
C460 C 0.55732 0.08594 0.99813 0.0
C461 C 0.55278 0.13112 0.98329 0.0
C462 C 0.61794 0.16643 0.95097 0.0
H463 H 0.6585 0.30597 0.95374 0.0
H464 H 0.63942 0.26316 0.97621 0.0
H465 H 0.64503 0.19172 0.92181 0.0
H466 H 0.60147 0.0791 0.00574 0.0
H467 H 0.624 0.12471 0.99269 0.0
H468 H 0.57039 0.18804 0.99922 0.0
C469 C 0.63968 0.26404 0.95247 0.0
C470 C 0.62882 0.19113 0.93877 0.0
C471 C 0.65069 0.28842 0.93964 0.0
C472 C 0.58766 0.09352 -0.00027 0.0
C473 C 0.60051 0.11949 0.99218 0.0
C474 C 0.58682 0.18869 0.98248 0.0
C475 C 0.62978 0.24085 0.93478 0.0
C476 C 0.61882 0.21484 0.94833 0.0
C477 C 0.58317 0.13837 0.98347 0.0
C478 C 0.59656 0.16493 0.97266 0.0
H479 H 0.64176 0.2679 0.86747 0.0
H480 H 0.62276 0.22505 0.88994 0.0
H481 H 0.58992 0.23148 0.97825 0.0
H482 H 0.51651 0.09971 0.98911 0.0
H483 H 0.53894 0.14524 0.97647 0.0
C484 C 0.90723 0.74431 0.41754 0.0
C485 C 0.90169 0.74039 0.38718 0.0
C486 C 0.91955 0.76966 0.42931 0.0
C487 C 0.92925 0.8421 0.41424 0.0
H488 H 0.98747 0.84778 0.47658 0.0
C489 C 0.98905 0.94468 0.46292 0.0
C490 C 0.99308 0.94659 0.49362 0.0
C491 C 0.9783 0.91983 0.44882 0.0
C492 C 0.97103 0.8465 0.45937 0.0
H493 H 0.9048 0.75997 0.34532 0.0
H494 H 0.92676 0.80429 0.36587 0.0
H495 H 0.96869 0.80373 0.45375 0.0
H496 H 0.98844 0.92394 0.5336 0.0
H497 H 0.96949 0.88083 0.50906 0.0
H498 H 0.93149 0.88492 0.42006 0.0
C499 C 0.92131 0.78775 0.38057 0.0
C500 C 0.9603 0.82127 0.44628 0.0
C501 C 0.90903 0.76233 0.36878 0.0
C502 C 0.98574 0.92322 0.50992 0.0
C503 C 0.97506 0.89843 0.49583 0.0
C504 C 0.94001 0.86738 0.42735 0.0
C505 C 0.92662 0.7917 0.41099 0.0
C506 C 0.93907 0.81874 0.42378 0.0
C507 C 0.97145 0.89639 0.46512 0.0
C508 C 0.96079 0.8698 0.45028 0.0
H509 H 0.9021 0.72772 0.43225 0.0
H510 H 0.92308 0.77209 0.45286 0.0
H511 H 0.91265 0.84076 0.39719 0.0
H512 H 0.99453 0.96229 0.44971 0.0
H513 H 0.97595 0.91887 0.42509 0.0
C514 C 0.39769 0.79001 0.64079 0.0
C515 C 0.36932 0.78876 0.62953 0.0
C516 C 0.41275 0.76836 0.63607 0.0
C517 C 0.40232 0.69528 0.61711 0.0
H518 H 0.48236 0.71066 0.59193 0.0
C519 C 0.46308 0.61219 0.57014 0.0
C520 C 0.49282 0.61413 0.57683 0.0
C521 C 0.44801 0.63306 0.57854 0.0
C522 C 0.46018 0.70598 0.59939 0.0
H523 H 0.33405 0.76381 0.60543 0.0
H524 H 0.36033 0.72582 0.59709 0.0
H525 H 0.45604 0.74782 0.6031 0.0
H526 H 0.53006 0.639 0.59809 0.0
H527 H 0.50369 0.67528 0.61333 0.0
H528 H 0.40643 0.65345 0.61344 0.0
C529 C 0.37097 0.7435 0.60955 0.0
C530 C 0.44507 0.72731 0.60574 0.0
C531 C 0.35599 0.76523 0.61414 0.0
C532 C 0.50714 0.63705 0.59257 0.0
C533 C 0.49206 0.6579 0.6011 0.0
C534 C 0.41748 0.67394 0.6109 0.0
C535 C 0.39961 0.74491 0.62026 0.0
C536 C 0.41591 0.72221 0.61447 0.0
C537 C 0.46235 0.65629 0.59394 0.0
C538 C 0.44655 0.679 0.60175 0.0
H539 H 0.4083 0.80784 0.65304 0.0
H540 H 0.43462 0.76991 0.64495 0.0
H541 H 0.38001 0.6907 0.6242 0.0
H542 H 0.45153 0.59475 0.55791 0.0
H543 H 0.42529 0.63125 0.57228 0.0
C544 C 0.85534 0.87052 0.80973 0.0
C545 C 0.86976 0.86309 0.83467 0.0
C546 C 0.87106 0.88059 0.78545 0.0
C547 C 0.94333 0.91503 0.7649 0.0
H548 H 0.91398 0.89632 0.68562 0.0
C549 C 0.00278 0.95891 0.66133 0.0
C550 C 0.98479 0.9677 0.64003 0.0
C551 C 0.99057 0.94398 0.68488 0.0
C552 C 0.92238 0.90184 0.70765 0.0
H553 H 0.91197 0.86009 0.85356 0.0
H554 H 0.93946 0.87741 0.8109 0.0
H555 H 0.88923 0.87354 0.727 0.0
H556 H 0.94012 0.96796 0.62649 0.0
H557 H 0.91886 0.9422 0.66752 0.0
H558 H 0.9762 0.94367 0.74551 0.0
C559 C 0.91599 0.87563 0.81028 0.0
C560 C 0.9082 0.8888 0.73133 0.0
C561 C 0.90023 0.86547 0.83457 0.0
C562 C 0.9545 0.96136 0.64259 0.0
C563 C 0.94233 0.94643 0.66597 0.0
C564 C 0.95753 0.92808 0.74117 0.0
C565 C 0.90158 0.88349 0.78554 0.0
C566 C 0.91819 0.8956 0.76026 0.0
C567 C 0.96019 0.93751 0.68735 0.0
C568 C 0.94687 0.92198 0.71234 0.0
H569 H 0.83186 0.86864 0.80902 0.0
H570 H 0.85932 0.88673 0.76686 0.0
H571 H 0.95139 0.92091 0.78696 0.0
H572 H 0.02623 0.96351 0.65977 0.0
H573 H 0.00488 0.93725 0.70095 0.0
C574 C 0.73778 0.19744 0.29764 0.0
C575 C 0.74753 0.18083 0.31863 0.0
C576 C 0.72351 0.18622 0.27184 0.0
C577 C 0.68436 0.12085 0.24031 0.0
H578 H 0.69392 0.15741 0.16641 0.0
C579 C 0.64387 0.06765 0.13108 0.0
C580 C 0.62515 0.08065 0.11436 0.0
C581 C 0.66004 0.08135 0.15449 0.0
C582 C 0.69098 0.14712 0.18698 0.0
H583 H 0.74991 0.13921 0.32856 0.0
H584 H 0.72668 0.11991 0.28314 0.0
H585 H 0.72019 0.17811 0.21041 0.0
H586 H 0.60964 0.1185 0.10799 0.0
H587 H 0.63859 0.1428 0.14892 0.0
H588 H 0.65583 0.08955 0.21664 0.0
C589 C 0.72928 0.14159 0.28689 0.0
C590 C 0.70589 0.15897 0.21223 0.0
C591 C 0.74315 0.15276 0.31283 0.0
C592 C 0.62393 0.10804 0.12058 0.0
C593 C 0.64047 0.12191 0.14389 0.0
C594 C 0.66987 0.10889 0.21506 0.0
C595 C 0.7189 0.15811 0.2662 0.0
C596 C 0.70288 0.1459 0.23922 0.0
C597 C 0.65809 0.10843 0.16149 0.0
C598 C 0.67314 0.12181 0.18815 0.0
H599 H 0.74112 0.21918 0.30109 0.0
H600 H 0.71564 0.1996 0.25662 0.0
H601 H 0.68078 0.11049 0.26076 0.0
H602 H 0.64532 0.04656 0.12673 0.0
H603 H 0.67373 0.07061 0.16751 0.0
C604 C 0.46546 0.619 0.22827 0.0
C605 C 0.4614 0.6461 0.22767 0.0
C606 C 0.47351 0.60822 0.25446 0.0
C607 C 0.46903 0.61726 0.33404 0.0
H608 H 0.53111 0.57451 0.33739 0.0
C609 C 0.51106 0.5835 0.44404 0.0
C610 C 0.51989 0.55807 0.44466 0.0
C611 C 0.50394 0.59402 0.4174 0.0
C612 C 0.5134 0.58604 0.33678 0.0
H613 H 0.46381 0.68351 0.25335 0.0
H614 H 0.47741 0.66454 0.29934 0.0
H615 H 0.51911 0.5932 0.29088 0.0
H616 H 0.52745 0.52339 0.41789 0.0
H617 H 0.51412 0.54131 0.37157 0.0
H618 H 0.46271 0.60971 0.37962 0.0
C619 C 0.47406 0.6516 0.27967 0.0
C620 C 0.50666 0.59683 0.31015 0.0
C621 C 0.46638 0.66244 0.25344 0.0
C622 C 0.52096 0.54316 0.41813 0.0
C623 C 0.5135 0.55354 0.39152 0.0
C624 C 0.47551 0.60622 0.36058 0.0
C625 C 0.47746 0.62433 0.28049 0.0
C626 C 0.48452 0.61265 0.30858 0.0
C627 C 0.50512 0.5792 0.39077 0.0
C628 C 0.49788 0.59057 0.36235 0.0
H629 H 0.46203 0.60608 0.20859 0.0
H630 H 0.47595 0.58712 0.25453 0.0
H631 H 0.45157 0.62909 0.33331 0.0
H632 H 0.51024 0.5956 0.46408 0.0
H633 H 0.49807 0.61403 0.41767 0.0
C634 C 0.1421 0.40377 0.75562 0.0
C635 C 0.15355 0.37975 0.75774 0.0
C636 C 0.13199 0.41597 0.78059 0.0
C637 C 0.11207 0.40431 0.85897 0.0
H638 H 0.12352 0.48258 0.86259 0.0
C639 C 0.06128 0.46422 0.94958 0.0
C640 C 0.07548 0.4902 0.95806 0.0
C641 C 0.07199 0.44972 0.9266 0.0
C642 C 0.12057 0.46073 0.86231 0.0
H643 H 0.16338 0.34939 0.78718 0.0
H644 H 0.14691 0.3712 0.83121 0.0
H645 H 0.1397 0.45934 0.82007 0.0
H646 H 0.11278 0.52086 0.95065 0.0
H647 H 0.13245 0.49511 0.91156 0.0
H648 H 0.09434 0.40582 0.90199 0.0
C649 C 0.14479 0.38031 0.81024 0.0
C650 C 0.12933 0.4473 0.83749 0.0
C651 C 0.15435 0.36782 0.78509 0.0
C652 C 0.10128 0.50096 0.9442 0.0
C653 C 0.11235 0.48625 0.92163 0.0
C654 C 0.10379 0.41778 0.88409 0.0
C655 C 0.13377 0.40475 0.80838 0.0
C656 C 0.12489 0.4189 0.83527 0.0
C657 C 0.09747 0.4607 0.91199 0.0
C658 C 0.10767 0.44619 0.88599 0.0
H659 H 0.14113 0.41316 0.73462 0.0
H660 H 0.12292 0.4343 0.77803 0.0
H661 H 0.10802 0.38244 0.85805 0.0
H662 H 0.04126 0.45549 0.95992 0.0
H663 H 0.05964 0.43034 0.91966 0.0
C664 C 0.79157 0.88248 0.93647 0.0
C665 C 0.79179 0.87321 0.90704 0.0
C666 C 0.76959 0.89626 0.94635 0.0
C667 C 0.69454 0.90388 0.93259 0.0
H668 H 0.71486 0.97271 0.97512 0.0
C669 C 0.60719 0.96755 0.96736 0.0
C670 C 0.61114 0.98177 0.99458 0.0
C671 C 0.62937 0.95494 0.95567 0.0
C672 C 0.70874 0.95333 0.96368 0.0
H673 H 0.76917 0.87061 0.86497 0.0
H674 H 0.73028 0.89433 0.88248 0.0
H675 H 0.75323 0.94899 0.95718 0.0
H676 H 0.64125 0.99362 0.0311 0.0
H677 H 0.67942 0.97088 0.01135 0.0
H678 H 0.65012 0.90756 0.93984 0.0
C679 C 0.74726 0.8911 0.89774 0.0
C680 C 0.73076 0.93985 0.9533 0.0
C681 C 0.76952 0.87771 0.88773 0.0
C682 C 0.63765 0.98305 0.00992 0.0
C683 C 0.65963 0.97012 0.99847 0.0
C684 C 0.67248 0.91714 0.94336 0.0
C685 C 0.74721 0.90061 0.9271 0.0
C686 C 0.72385 0.91501 0.9377 0.0
C687 C 0.65584 0.95593 0.97116 0.0
C688 C 0.67929 0.94203 0.95912 0.0
H689 H 0.80861 0.87935 0.95171 0.0
H690 H 0.76989 0.90326 0.96914 0.0
H691 H 0.6887 0.8846 0.92083 0.0
H692 H 0.58707 0.96638 0.9549 0.0
H693 H 0.62581 0.94464 0.93436 0.0
C694 C 0.8401 0.16755 0.38573 0.0
C695 C 0.81899 0.17849 0.40199 0.0
C696 C 0.85985 0.1537 0.39967 0.0
C697 C 0.8698 0.11871 0.46888 0.0
H698 H 0.94941 0.12314 0.443 0.0
C699 C 0.95662 0.07723 0.53634 0.0
C700 C 0.97345 0.06073 0.52105 0.0
C701 C 0.93877 0.09204 0.52109 0.0
C702 C 0.92717 0.12159 0.45029 0.0
H703 H 0.8025 0.18354 0.44591 0.0
H704 H 0.83762 0.16068 0.47025 0.0
H705 H 0.91658 0.14871 0.41806 0.0
H706 H 0.98555 0.0473 0.47786 0.0
H707 H 0.95453 0.07363 0.45106 0.0
H708 H 0.88062 0.09205 0.50147 0.0
C709 C 0.83852 0.16216 0.44659 0.0
C710 C 0.9083 0.13616 0.43598 0.0
C711 C 0.81862 0.17574 0.43264 0.0
C712 C 0.97273 0.05985 0.49017 0.0
C713 C 0.95509 0.07496 0.47486 0.0
C714 C 0.88872 0.10443 0.48335 0.0
C715 C 0.85916 0.15062 0.43028 0.0
C716 C 0.87938 0.135 0.44518 0.0
C717 C 0.93763 0.0909 0.49021 0.0
C718 C 0.91761 0.10579 0.4743 0.0
H719 H 0.84135 0.16959 0.36215 0.0
H720 H 0.87525 0.14494 0.38632 0.0
H721 H 0.84754 0.11671 0.47616 0.0
H722 H 0.95686 0.07839 0.56014 0.0
H723 H 0.92583 0.10441 0.53348 0.0
C724 C 0.33258 0.66479 0.11282 0.0
C725 C 0.34246 0.66123 0.14155 0.0
C726 C 0.3058 0.65086 0.10251 0.0
C727 C 0.25416 0.5901 0.10847 0.0
H728 H 0.19485 0.63187 0.08622 0.0
C729 C 0.13661 0.53887 0.08036 0.0
C730 C 0.121 0.55058 0.05916 0.0
C731 C 0.16376 0.55215 0.09054 0.0
C732 C 0.21125 0.6198 0.09176 0.0
H733 H 0.33151 0.63994 0.18181 0.0
H734 H 0.28553 0.61467 0.16304 0.0
H735 H 0.24267 0.65505 0.10249 0.0
H736 H 0.12172 0.58485 0.0313 0.0
H737 H 0.16955 0.60735 0.0478 0.0
H738 H 0.22351 0.55483 0.09672 0.0
C739 C 0.29861 0.6285 0.1488 0.0
C740 C 0.23855 0.63315 0.10127 0.0
C741 C 0.32508 0.64286 0.15939 0.0
C742 C 0.13315 0.57554 0.04797 0.0
C743 C 0.16054 0.58852 0.05763 0.0
C744 C 0.22707 0.57668 0.09832 0.0
C745 C 0.28867 0.63263 0.12043 0.0
C746 C 0.26011 0.6184 0.1098 0.0
C747 C 0.17616 0.57715 0.07924 0.0
C748 C 0.20516 0.59135 0.08993 0.0
H749 H 0.34555 0.67826 0.09817 0.0
H750 H 0.29853 0.65414 0.08043 0.0
H751 H 0.27064 0.57838 0.11484 0.0
H752 H 0.12761 0.5197 0.08949 0.0
H753 H 0.17477 0.54294 0.10758 0.0
C754 C 0.29171 0.42738 0.68366 0.0
C755 C 0.27573 0.40287 0.67274 0.0
C756 C 0.31316 0.44191 0.66659 0.0
C757 C 0.3407 0.44964 0.5909 0.0
H758 H 0.41519 0.47199 0.63045 0.0
C759 C 0.44899 0.4746 0.5293 0.0
C760 C 0.47103 0.49409 0.54196 0.0
C761 C 0.4228 0.46726 0.54391 0.0
C762 C 0.39443 0.46644 0.61911 0.0
H763 H 0.26832 0.3749 0.63523 0.0
H764 H 0.30603 0.40022 0.60528 0.0
H765 H 0.37346 0.45236 0.6585 0.0
H766 H 0.48252 0.52233 0.57888 0.0
H767 H 0.43656 0.51019 0.60394 0.0
H768 H 0.36187 0.46344 0.55136 0.0
C769 C 0.302 0.40826 0.62695 0.0
C770 C 0.3705 0.45511 0.63523 0.0
C771 C 0.28062 0.39368 0.64408 0.0
C772 C 0.46592 0.50713 0.56869 0.0
C773 C 0.43968 0.5 0.58315 0.0
C774 C 0.36466 0.46114 0.57474 0.0
C775 C 0.31884 0.43228 0.63824 0.0
C776 C 0.34347 0.44626 0.62126 0.0
C777 C 0.41811 0.47945 0.57135 0.0
C778 C 0.39191 0.46935 0.58861 0.0
H779 H 0.28801 0.43502 0.70559 0.0
H780 H 0.32552 0.46055 0.6757 0.0
H781 H 0.32002 0.44328 0.57961 0.0
H782 H 0.45239 0.46426 0.50868 0.0
H783 H 0.4068 0.45119 0.5343 0.0
C784 C 0.87596 0.74865 0.9008 0.0
C785 C 0.85487 0.75625 0.91967 0.0
C786 C 0.89402 0.7308 0.90999 0.0
C787 C 0.92286 0.70355 0.97641 0.0
H788 H 0.93684 0.64552 0.92283 0.0
C789 C 0.97588 0.61339 0.01299 0.0
C790 C 0.99499 0.6034 0.99344 0.0
C791 C 0.96036 0.63351 0.00445 0.0
C792 C 0.93351 0.66184 0.93792 0.0
H793 H 0.83675 0.75233 0.9632 0.0
H794 H 0.86809 0.72074 0.97929 0.0
H795 H 0.90644 0.67764 0.90693 0.0
H796 H 0.0137 0.60702 0.9501 0.0
H797 H 0.98694 0.64246 0.93527 0.0
H798 H 0.94985 0.68762 0.00746 0.0
C799 C 0.87067 0.7285 0.95739 0.0
C800 C 0.91605 0.68022 0.92881 0.0
C801 C 0.85259 0.74633 0.94815 0.0
C802 C -0.00102 0.61433 0.96553 0.0
C803 C 0.98351 0.63447 0.95699 0.0
C804 C 0.94037 0.68517 0.98552 0.0
C805 C 0.89152 0.72047 0.93837 0.0
C806 C 0.91046 0.70123 0.94798 0.0
C807 C 0.96371 0.644 0.9762 0.0
C808 C 0.94583 0.66407 0.96639 0.0
H809 H 0.87846 0.75659 0.87897 0.0
H810 H 0.91021 0.72536 0.89503 0.0
H811 H 0.91928 0.71976 0.99154 0.0
H812 H 0.97239 0.60521 0.03464 0.0
H813 H 0.94507 0.64022 0.01965 0.0
C814 C 0.41387 0.75358 0.11728 0.0
C815 C 0.4153 0.74708 0.14701 0.0
C816 C 0.42455 0.77969 0.10841 0.0
C817 C 0.47677 0.83969 0.13192 0.0
H818 H 0.43729 0.87666 0.07428 0.0
C819 C 0.51581 0.95087 0.10953 0.0
C820 C 0.51736 0.9584 0.08013 0.0
C821 C 0.50138 0.92549 0.11687 0.0
C822 C 0.44868 0.86646 0.09018 0.0
H823 H 0.42775 0.76317 0.19092 0.0
H824 H 0.44641 0.80866 0.17548 0.0
H825 H 0.41547 0.8314 0.08884 0.0
H826 H 0.50498 0.94561 0.03532 0.0
H827 H 0.47962 0.90086 0.04806 0.0
H828 H 0.51001 0.87442 0.13325 0.0
C829 C 0.43756 0.79345 0.15893 0.0
C830 C 0.4362 0.84058 0.09852 0.0
C831 C 0.4269 0.7674 0.16778 0.0
C832 C 0.50365 0.94036 0.05816 0.0
C833 C 0.48922 0.91479 0.06549 0.0
C834 C 0.48921 0.86542 0.12359 0.0
C835 C 0.43689 0.7998 0.12911 0.0
C836 C 0.45003 0.82705 0.11969 0.0
C837 C 0.4884 0.90694 0.09491 0.0
C838 C 0.47521 0.87923 0.10286 0.0
H839 H 0.40529 0.73828 0.10072 0.0
H840 H 0.42397 0.78391 0.08525 0.0
H841 H 0.48831 0.82954 0.14776 0.0
H842 H 0.52608 0.96451 0.12692 0.0
H843 H 0.50064 0.92029 0.13978 0.0
C844 C 0.15568 0.29725 0.65478 0.0
C845 C 0.15778 0.30282 0.68527 0.0
C846 C 0.14617 0.27102 0.64368 0.0
C847 C 0.10431 0.20544 0.66221 0.0
H848 H 0.14537 0.17872 0.59669 0.0
C849 C 0.07446 0.09601 0.61447 0.0
C850 C 0.07381 0.0929 0.58364 0.0
C851 C 0.08607 0.12083 0.62819 0.0
C852 C 0.1335 0.18595 0.61481 0.0
H853 H 0.15133 0.28509 0.72801 0.0
H854 H 0.13434 0.23921 0.70853 0.0
H855 H 0.16247 0.22368 0.61817 0.0
H856 H 0.08508 0.11346 0.5431 0.0
H857 H 0.10487 0.15662 0.56696 0.0
H858 H 0.07502 0.16789 0.65852 0.0
C859 C 0.13998 0.25528 0.69328 0.0
C860 C 0.14332 0.21169 0.62713 0.0
C861 C 0.14965 0.28156 0.70442 0.0
C862 C 0.08534 0.11505 0.56689 0.0
C863 C 0.09687 0.13982 0.58059 0.0
C864 C 0.0944 0.17969 0.6498 0.0
C865 C 0.13838 0.24972 0.66279 0.0
C866 C 0.12866 0.22184 0.65075 0.0
C867 C 0.09725 0.14306 0.61139 0.0
C868 C 0.1087 0.16976 0.62574 0.0
H869 H 0.16119 0.31324 0.63941 0.0
H870 H 0.14462 0.26747 0.62008 0.0
H871 H 0.09242 0.21282 0.68023 0.0
H872 H 0.06584 0.07936 0.62806 0.0
H873 H 0.08637 0.12256 0.65197 0.0
C874 C 0.68931 0.26562 0.41747 0.0
C875 C 0.71819 0.26598 0.42673 0.0
C876 C 0.67597 0.28839 0.42205 0.0
C877 C 0.68201 0.35112 0.46831 0.0
H878 H 0.62772 0.37071 0.41091 0.0
C879 C 0.63148 0.44822 0.4822 0.0
C880 C 0.60138 0.44535 0.47705 0.0
C881 C 0.64666 0.42731 0.47425 0.0
C882 C 0.6427 0.36538 0.42722 0.0
H883 H 0.75615 0.29043 0.44702 0.0
H884 H 0.7331 0.33053 0.45463 0.0
H885 H 0.6528 0.3325 0.40026 0.0
H886 H 0.56358 0.4188 0.45896 0.0
H887 H 0.59008 0.38222 0.445 0.0
H888 H 0.67189 0.38398 0.49525 0.0
C889 C 0.72047 0.31251 0.44445 0.0
C890 C 0.65703 0.34345 0.42116 0.0
C891 C 0.73375 0.28968 0.43997 0.0
C892 C 0.58681 0.42152 0.46314 0.0
C893 C 0.60201 0.40065 0.45504 0.0
C894 C 0.66779 0.3731 0.47429 0.0
C895 C 0.69132 0.31207 0.43579 0.0
C896 C 0.67675 0.33595 0.44171 0.0
C897 C 0.63204 0.40318 0.46085 0.0
C898 C 0.64786 0.38039 0.4539 0.0
H899 H 0.67691 0.24759 0.40708 0.0
H900 H 0.65341 0.2872 0.4154 0.0
H901 H 0.69663 0.34565 0.48487 0.0
H902 H 0.64325 0.46644 0.49284 0.0
H903 H 0.66985 0.43 0.47867 0.0
loop_
_geom_bond_atom_site_label_1
_geom_bond_atom_site_label_2
_geom_bond_distance
_geom_bond_site_symmetry_2
_ccdc_geom_bond_type
H0 C7 0.929 . S
H1 C10 0.930 . S
H2 C12 0.929 . S
H3 C4 0.969 . S
C4 H3 0.969 . S
C4 O5 1.550 . S
C4 H6 0.973 . S
O5 C4 1.550 . S
O5 C11 1.412 . S
H6 C4 0.973 . S
C7 H0 0.929 . S
C7 C8 1.400 . S
C7 C9 1.364 . S
C8 C7 1.400 . S
C8 C12 1.377 . S
C9 C7 1.364 . S
C9 C10 1.374 . S
C10 H1 0.930 . S
C10 C9 1.374 . S
C10 C11 1.383 . S
C11 O5 1.412 . S
C11 C10 1.383 . S
C11 C12 1.394 . S
C12 H2 0.929 . S
C12 C8 1.377 . S
C12 C11 1.394 . S
H13 C20 0.929 . S
H14 C23 0.930 . S
H15 C25 0.929 . S
H16 C17 0.969 . S
C17 H16 0.969 . S
C17 O18 1.550 . S
C17 H19 0.973 . S
O18 C17 1.550 . S
O18 C24 1.412 . S
H19 C17 0.973 . S
C20 H13 0.929 . S
C20 C21 1.400 . S
C20 C22 1.364 . S
C21 C20 1.400 . S
C21 C25 1.377 . S
C22 C20 1.364 . S
C22 C23 1.374 . S
C23 H14 0.930 . S
C23 C22 1.374 . S
C23 C24 1.383 . S
C24 O18 1.412 . S
C24 C23 1.383 . S
C24 C25 1.394 . S
C25 H15 0.929 . S
C25 C21 1.377 . S
C25 C24 1.394 . S
H26 C33 0.929 . S
H27 C36 0.930 . S
H28 C38 0.929 . S
H29 C30 0.969 . S
C30 H29 0.969 . S
C30 O31 1.550 . S
C30 H32 0.973 . S
O31 C30 1.550 . S
O31 C37 1.412 . S
H32 C30 0.973 . S
C33 H26 0.929 . S
C33 C34 1.400 . S
C33 C35 1.364 . S
C34 C33 1.400 . S
C34 C38 1.377 . S
C35 C33 1.364 . S
C35 C36 1.374 . S
C36 H27 0.930 . S
C36 C35 1.374 . S
C36 C37 1.383 . S
C37 O31 1.412 . S
C37 C36 1.383 . S
C37 C38 1.394 . S
C38 H28 0.929 . S
C38 C34 1.377 . S
C38 C37 1.394 . S
H39 C46 0.929 . S
H40 C49 0.930 . S
H41 C51 0.929 . S
H42 C43 0.969 . S
C43 H42 0.969 . S
C43 O44 1.550 . S
C43 H45 0.973 . S
O44 C43 1.550 . S
O44 C50 1.412 . S
H45 C43 0.973 . S
C46 H39 0.929 . S
C46 C47 1.400 . S
C46 C48 1.364 . S
C47 C46 1.400 . S
C47 C51 1.377 . S
C48 C46 1.364 . S
C48 C49 1.374 . S
C49 H40 0.930 . S
C49 C48 1.374 . S
C49 C50 1.383 . S
C50 O44 1.412 . S
C50 C49 1.383 . S
C50 C51 1.394 . S
C51 H41 0.929 . S
C51 C47 1.377 . S
C51 C50 1.394 . S
H52 C59 0.929 . S
H53 C62 0.930 . S
H54 C64 0.929 . S
H55 C56 0.969 . S
C56 H55 0.969 . S
C56 O57 1.550 . S
C56 H58 0.973 . S
O57 C56 1.550 . S
O57 C63 1.412 . S
H58 C56 0.973 . S
C59 H52 0.929 . S
C59 C60 1.400 . S
C59 C61 1.364 . S
C60 C59 1.400 . S
C60 C64 1.377 . S
C61 C59 1.364 . S
C61 C62 1.374 . S
C62 H53 0.930 . S
C62 C61 1.374 . S
C62 C63 1.383 . S
C63 O57 1.412 . S
C63 C62 1.383 . S
C63 C64 1.394 . S
C64 H54 0.929 . S
C64 C60 1.377 . S
C64 C63 1.394 . S
H65 C72 0.929 . S
H66 C75 0.930 . S
H67 C77 0.929 . S
H68 C69 0.969 . S
C69 H68 0.969 . S
C69 O70 1.550 . S
C69 H71 0.973 . S
O70 C69 1.550 . S
O70 C76 1.412 . S
H71 C69 0.973 . S
C72 H65 0.929 . S
C72 C73 1.400 . S
C72 C74 1.364 . S
C73 C72 1.400 . S
C73 C77 1.377 . S
C74 C72 1.364 . S
C74 C75 1.374 . S
C75 H66 0.930 . S
C75 C74 1.374 . S
C75 C76 1.383 . S
C76 O70 1.412 . S
C76 C75 1.383 . S
C76 C77 1.394 . S
C77 H67 0.929 . S
C77 C73 1.377 . S
C77 C76 1.394 . S
H78 C85 0.929 . S
H79 C88 0.930 . S
H80 C90 0.929 . S
H81 C82 0.969 . S
C82 H81 0.969 . S
C82 O83 1.550 . S
C82 H84 0.973 . S
O83 C82 1.550 . S
O83 C89 1.412 . S
H84 C82 0.973 . S
C85 H78 0.929 . S
C85 C86 1.400 . S
C85 C87 1.364 . S
C86 C85 1.400 . S
C86 C90 1.377 . S
C87 C85 1.364 . S
C87 C88 1.374 . S
C88 H79 0.930 . S
C88 C87 1.374 . S
C88 C89 1.383 . S
C89 O83 1.412 . S
C89 C88 1.383 . S
C89 C90 1.394 . S
C90 H80 0.929 . S
C90 C86 1.377 . S
C90 C89 1.394 . S
H91 C98 0.929 . S
H92 C101 0.930 . S
H93 C103 0.929 . S
H94 C95 0.969 . S
C95 H94 0.969 . S
C95 O96 1.550 . S
C95 H97 0.973 . S
O96 C95 1.550 . S
O96 C102 1.412 . S
H97 C95 0.973 . S
C98 H91 0.929 . S
C98 C99 1.400 . S
C98 C100 1.364 . S
C99 C98 1.400 . S
C99 C103 1.377 . S
C100 C98 1.364 . S
C100 C101 1.374 . S
C101 H92 0.930 . S
C101 C100 1.374 . S
C101 C102 1.383 . S
C102 O96 1.412 . S
C102 C101 1.383 . S
C102 C103 1.394 . S
C103 H93 0.929 . S
C103 C99 1.377 . S
C103 C102 1.394 . S
Dy104 O108 2.398 . S
Dy104 O109 2.491 . S
Dy104 O110 2.403 . S
Dy104 O111 2.664 . S
Dy104 O115 2.326 . S
Dy104 O119 2.311 1_455 S
Dy104 O120 2.351 1_545 S
C105 O116 1.185 . S
C105 O117 1.355 . S
C106 O108 1.185 . S
C106 O109 1.355 . S
Dy107 O111 2.314 1_655 S
Dy107 O114 2.353 1_655 S
Dy107 O116 2.395 1_545 S
Dy107 O117 2.492 1_545 S
Dy107 O118 2.399 . S
Dy107 O119 2.664 . S
Dy107 O121 2.325 1_545 S
O108 Dy104 2.398 . S
O108 C106 1.185 . S
O109 Dy104 2.491 . S
O109 C106 1.355 . S
O110 Dy104 2.403 . S
O110 C112 1.254 . S
O111 Dy104 2.664 . S
O111 Dy107 2.314 1_455 S
O111 C112 1.268 . S
C112 O110 1.254 . S
C112 O111 1.268 . S
C113 O118 1.254 . S
C113 O119 1.266 . S
O114 Dy107 2.353 1_455 S
O114 C122 1.249 . S
O115 Dy104 2.326 . S
O115 C122 1.267 . S
O116 C105 1.185 . S
O116 Dy107 2.395 1_565 S
O117 C105 1.355 . S
O117 Dy107 2.492 1_565 S
O118 Dy107 2.399 . S
O118 C113 1.254 . S
O119 Dy104 2.311 1_655 S
O119 Dy107 2.664 . S
O119 C113 1.266 . S
O120 Dy104 2.351 1_565 S
O120 C123 1.249 1_455 S
O121 Dy107 2.325 1_565 S
O121 C123 1.267 . S
C122 O114 1.249 . S
C122 O115 1.267 . S
C123 O120 1.249 1_655 S
C123 O121 1.267 . S
Dy124 O128 2.398 . S
Dy124 O129 2.491 . S
Dy124 O130 2.403 1_545 S
Dy124 O131 2.664 1_545 S
Dy124 O135 2.326 . S
Dy124 O139 2.310 . S
Dy124 O140 2.361 . S
C125 O136 1.185 1_565 S
C125 O137 1.355 . S
C126 O128 1.185 . S
C126 O129 1.355 . S
Dy127 O131 2.310 1_546 S
Dy127 O134 2.351 1_556 S
Dy127 O136 2.398 . S
Dy127 O137 2.491 1_545 S
Dy127 O138 2.403 . S
Dy127 O139 2.664 1_556 S
Dy127 O141 2.326 . S
O128 Dy124 2.398 . S
O128 C126 1.185 . S
O129 Dy124 2.491 . S
O129 C126 1.355 . S
O130 Dy124 2.403 1_565 S
O130 C132 1.254 . S
O131 Dy124 2.664 1_565 S
O131 Dy127 2.310 1_564 S
O131 C132 1.268 . S
C132 O130 1.254 . S
C132 O131 1.268 . S
C133 O138 1.254 . S
C133 O139 1.268 1_556 S
O134 Dy127 2.351 1_554 S
O134 C142 1.249 . S
O135 Dy124 2.326 . S
O135 C142 1.267 . S
O136 C125 1.185 1_545 S
O136 Dy127 2.398 . S
O137 C125 1.355 . S
O137 Dy127 2.491 1_565 S
O138 Dy127 2.403 . S
O138 C133 1.254 . S
O139 Dy124 2.310 . S
O139 Dy127 2.664 1_554 S
O139 C133 1.268 1_554 S
O140 Dy124 2.361 . S
O140 C143 1.247 1_544 S
O141 Dy127 2.326 . S
O141 C143 1.267 1_545 S
C142 O134 1.249 . S
C142 O135 1.267 . S
C143 O140 1.247 1_566 S
C143 O141 1.267 1_565 S
Dy144 O148 2.398 . S
Dy144 O149 2.491 . S
Dy144 O150 2.403 . S
Dy144 O151 2.664 . S
Dy144 O155 2.326 . S
Dy144 O159 2.310 . S
Dy144 O160 2.351 . S
C145 O156 1.185 . S
C145 O157 1.355 . S
C146 O148 1.185 . S
C146 O149 1.355 . S
Dy147 O151 2.310 . S
Dy147 O154 2.351 . S
Dy147 O156 2.398 . S
Dy147 O157 2.491 . S
Dy147 O158 2.403 . S
Dy147 O159 2.664 . S
Dy147 O161 2.326 . S
O148 Dy144 2.398 . S
O148 C146 1.185 . S
O149 Dy144 2.491 . S
O149 C146 1.355 . S
O150 Dy144 2.403 . S
O150 C152 1.254 . S
O151 Dy144 2.664 . S
O151 Dy147 2.310 . S
O151 C152 1.268 . S
C152 O150 1.254 . S
C152 O151 1.268 . S
C153 O158 1.254 . S
C153 O159 1.268 . S
O154 Dy147 2.351 . S
O154 C162 1.249 . S
O155 Dy144 2.326 . S
O155 C162 1.267 . S
O156 C145 1.185 . S
O156 Dy147 2.398 . S
O157 C145 1.355 . S
O157 Dy147 2.491 . S
O158 Dy147 2.403 . S
O158 C153 1.254 . S
O159 Dy144 2.310 . S
O159 Dy147 2.664 . S
O159 C153 1.268 . S
O160 Dy144 2.351 . S
O160 C163 1.249 . S
O161 Dy147 2.326 . S
O161 C163 1.267 . S
C162 O154 1.249 . S
C162 O155 1.267 . S
C163 O160 1.249 . S
C163 O161 1.267 . S
Dy164 O168 2.398 . S
Dy164 O169 2.491 . S
Dy164 O170 2.403 . S
Dy164 O171 2.664 . S
Dy164 O175 2.326 . S
Dy164 O179 2.310 . S
Dy164 O180 2.351 1_455 S
C165 O176 1.185 1_655 S
C165 O177 1.355 1_556 S
C166 O168 1.185 . S
C166 O169 1.355 . S
Dy167 O171 2.310 . S
Dy167 O174 2.351 . S
Dy167 O176 2.398 1_554 S
Dy167 O177 2.491 1_455 S
Dy167 O178 2.403 1_554 S
Dy167 O179 2.664 . S
Dy167 O181 2.326 1_455 S
O168 Dy164 2.398 . S
O168 C166 1.185 . S
O169 Dy164 2.491 . S
O169 C166 1.355 . S
O170 Dy164 2.403 . S
O170 C172 1.254 . S
O171 Dy164 2.664 . S
O171 Dy167 2.310 . S
O171 C172 1.268 . S
C172 O170 1.254 . S
C172 O171 1.268 . S
C173 O178 1.254 . S
C173 O179 1.268 1_556 S
O174 Dy167 2.351 . S
O174 C182 1.249 . S
O175 Dy164 2.326 . S
O175 C182 1.267 . S
O176 C165 1.185 1_455 S
O176 Dy167 2.398 1_556 S
O177 C165 1.355 1_554 S
O177 Dy167 2.491 1_655 S
O178 Dy167 2.403 1_556 S
O178 C173 1.254 . S
O179 Dy164 2.310 . S
O179 Dy167 2.664 . S
O179 C173 1.268 1_554 S
O180 Dy164 2.351 1_655 S
O180 C183 1.249 . S
O181 Dy167 2.326 1_655 S
O181 C183 1.267 . S
C182 O174 1.249 . S
C182 O175 1.267 . S
C183 O180 1.249 . S
C183 O181 1.267 . S
C184 C185 1.349 . S
C184 C186 1.327 . S
C184 H209 0.950 . S
C185 C184 1.349 . S
C185 C201 1.349 . S
C186 C184 1.327 . S
C186 C205 1.429 . S
C186 H210 0.950 . S
C187 C204 1.574 . S
C187 C206 1.368 . S
C187 H211 0.949 . S
H188 C192 0.949 . S
C189 C190 1.349 . S
C189 C191 1.327 . S
C189 H212 0.950 . S
C190 C189 1.349 . S
C190 C202 1.349 . S
C191 C189 1.327 . S
C191 C207 1.429 . S
C191 H213 0.950 . S
C192 H188 0.949 . S
C192 C200 1.574 . S
C192 C208 1.368 . S
H193 C201 0.950 . S
H194 C199 0.950 . S
H195 C200 0.949 . S
H196 C202 0.950 . S
H197 C203 0.950 . S
H198 C204 0.949 . S
C199 H194 0.950 . S
C199 C201 1.327 . S
C199 C205 1.429 . S
C200 C192 1.574 . S
C200 H195 0.949 . S
C200 C206 1.368 . S
C201 C185 1.349 . S
C201 H193 0.950 . S
C201 C199 1.327 . S
C202 C190 1.349 . S
C202 H196 0.950 . S
C202 C203 1.327 . S
C203 H197 0.950 . S
C203 C202 1.327 . S
C203 C207 1.429 . S
C204 C187 1.574 . S
C204 H198 0.949 . S
C204 C208 1.368 . S
C205 C186 1.429 . S
C205 C199 1.429 . S
C205 C206 1.523 . S
C206 C187 1.368 . S
C206 C200 1.368 . S
C206 C205 1.523 . S
C207 C191 1.429 . S
C207 C203 1.429 . S
C207 C208 1.523 . S
C208 C192 1.368 . S
C208 C204 1.368 . S
C208 C207 1.523 . S
H209 C184 0.950 . S
H210 C186 0.950 . S
H211 C187 0.949 . S
H212 C189 0.950 . S
H213 C191 0.950 . S
C214 C215 1.349 . S
C214 C216 1.327 . S
C214 H239 0.950 . S
C215 C214 1.349 . S
C215 C231 1.349 . S
C216 C214 1.327 . S
C216 C235 1.429 . S
C216 H240 0.950 . S
C217 C234 1.574 . S
C217 C236 1.368 . S
C217 H241 0.949 . S
H218 C222 0.949 . S
C219 C220 1.349 . S
C219 C221 1.327 . S
C219 H242 0.923 1_565 S
C220 C219 1.349 . S
C220 C232 1.349 . S
C221 C219 1.327 . S
C221 C237 1.429 . S
C221 H243 0.950 . S
C222 H218 0.949 . S
C222 C230 1.574 . S
C222 C238 1.368 . S
H223 C231 0.950 . S
H224 C229 0.950 . S
H225 C230 0.949 . S
H226 C232 0.950 . S
H227 C233 0.950 . S
H228 C234 0.949 . S
C229 H224 0.950 . S
C229 C231 1.327 . S
C229 C235 1.429 . S
C230 C222 1.574 . S
C230 H225 0.949 . S
C230 C236 1.368 . S
C231 C215 1.349 . S
C231 H223 0.950 . S
C231 C229 1.327 . S
C232 C220 1.349 . S
C232 H226 0.950 . S
C232 C233 1.327 . S
C233 H227 0.950 . S
C233 C232 1.327 . S
C233 C237 1.429 . S
C234 C217 1.574 . S
C234 H228 0.949 . S
C234 C238 1.368 . S
C235 C216 1.429 . S
C235 C229 1.429 . S
C235 C236 1.523 . S
C236 C217 1.368 . S
C236 C230 1.368 . S
C236 C235 1.523 . S
C237 C221 1.429 . S
C237 C233 1.429 . S
C237 C238 1.523 . S
C238 C222 1.368 . S
C238 C234 1.368 . S
C238 C237 1.523 . S
H239 C214 0.950 . S
H240 C216 0.950 . S
H241 C217 0.949 . S
H242 C219 0.923 1_545 S
H243 C221 0.950 . S
C244 C245 1.349 . S
C244 C246 1.327 . S
C244 H269 0.950 . S
C245 C244 1.349 . S
C245 C261 1.349 . S
C246 C244 1.327 . S
C246 C265 1.429 . S
C246 H270 0.950 . S
C247 C264 1.574 . S
C247 C266 1.368 . S
C247 H271 0.949 . S
H248 C252 0.949 . S
C249 C250 1.349 . S
C249 C251 1.327 . S
C249 H272 0.950 . S
C250 C249 1.349 . S
C250 C262 1.349 . S
C251 C249 1.327 . S
C251 C267 1.429 . S
C251 H273 0.950 . S
C252 H248 0.949 . S
C252 C260 1.574 . S
C252 C268 1.368 . S
H253 C261 0.950 . S
H254 C259 0.950 . S
H255 C260 0.949 . S
H256 C262 0.950 . S
H257 C263 0.950 . S
H258 C264 0.949 . S
C259 H254 0.950 . S
C259 C261 1.327 . S
C259 C265 1.429 . S
C260 C252 1.574 . S
C260 H255 0.949 . S
C260 C266 1.368 . S
C261 C245 1.349 . S
C261 H253 0.950 . S
C261 C259 1.327 . S
C262 C250 1.349 . S
C262 H256 0.950 . S
C262 C263 1.327 . S
C263 H257 0.950 . S
C263 C262 1.327 . S
C263 C267 1.429 . S
C264 C247 1.574 . S
C264 H258 0.949 . S
C264 C268 1.368 . S
C265 C246 1.429 . S
C265 C259 1.429 . S
C265 C266 1.523 . S
C266 C247 1.368 . S
C266 C260 1.368 . S
C266 C265 1.523 . S
C267 C251 1.429 . S
C267 C263 1.429 . S
C267 C268 1.523 . S
C268 C252 1.368 . S
C268 C264 1.368 . S
C268 C267 1.523 . S
H269 C244 0.950 . S
H270 C246 0.950 . S
H271 C247 0.949 . S
H272 C249 0.950 . S
H273 C251 0.950 . S
C274 C275 1.349 . S
C274 C276 1.327 . S
C274 H299 0.950 . S
C275 C274 1.349 . S
C275 C291 1.349 . S
C276 C274 1.327 . S
C276 C295 1.429 . S
C276 H300 0.950 . S
C277 C294 1.574 . S
C277 C296 1.368 . S
C277 H301 0.949 . S
H278 C282 0.949 . S
C279 C280 1.349 1_455 S
C279 C281 1.327 . S
C279 H302 0.950 . S
C280 C279 1.349 1_655 S
C280 C292 1.349 . S
C281 C279 1.327 . S
C281 C297 1.429 1_455 S
C281 H303 0.950 . S
C282 H278 0.949 . S
C282 C290 1.574 . S
C282 C298 1.368 . S
H283 C291 0.950 . S
H284 C289 0.950 . S
H285 C290 0.949 . S
H286 C292 0.950 . S
H287 C293 0.950 . S
H288 C294 0.949 1_455 S
C289 H284 0.950 . S
C289 C291 1.327 . S
C289 C295 1.429 . S
C290 C282 1.574 . S
C290 H285 0.949 . S
C290 C296 1.368 . S
C291 C275 1.349 . S
C291 H283 0.950 . S
C291 C289 1.327 . S
C292 C280 1.349 . S
C292 H286 0.950 . S
C292 C293 1.327 . S
C293 H287 0.950 . S
C293 C292 1.327 . S
C293 C297 1.429 . S
C294 C277 1.574 . S
C294 H288 0.949 1_655 S
C294 C298 1.368 . S
C295 C276 1.429 . S
C295 C289 1.429 . S
C295 C296 1.523 . S
C296 C277 1.368 . S
C296 C290 1.368 . S
C296 C295 1.523 . S
C297 C281 1.429 1_655 S
C297 C293 1.429 . S
C297 C298 1.523 . S
C298 C282 1.368 . S
C298 C294 1.368 . S
C298 C297 1.523 . S
H299 C274 0.950 . S
H300 C276 0.950 . S
H301 C277 0.949 . S
H302 C279 0.950 . S
H303 C281 0.950 . S
C304 C305 1.349 . S
C304 C306 1.327 . S
C304 H329 0.950 . S
C305 C304 1.349 . S
C305 C321 1.349 . S
C306 C304 1.327 . S
C306 C325 1.429 . S
C306 H330 0.950 . S
C307 C324 1.574 . S
C307 C326 1.368 . S
C307 H331 0.949 . S
H308 C312 0.949 . S
C309 C310 1.349 . S
C309 C311 1.327 . S
C309 H332 0.950 . S
C310 C309 1.349 . S
C310 C322 1.349 . S
C311 C309 1.327 . S
C311 C327 1.429 . S
C311 H333 0.950 . S
C312 H308 0.949 . S
C312 C320 1.574 . S
C312 C328 1.368 . S
H313 C321 0.950 . S
H314 C319 0.950 . S
H315 C320 0.949 . S
H316 C322 0.950 . S
H317 C323 0.950 . S
H318 C324 0.949 . S
C319 H314 0.950 . S
C319 C321 1.327 . S
C319 C325 1.429 . S
C320 C312 1.574 . S
C320 H315 0.949 . S
C320 C326 1.368 . S
C321 C305 1.349 . S
C321 H313 0.950 . S
C321 C319 1.327 . S
C322 C310 1.349 . S
C322 H316 0.950 . S
C322 C323 1.327 . S
C323 H317 0.950 . S
C323 C322 1.327 . S
C323 C327 1.429 . S
C324 C307 1.574 . S
C324 H318 0.949 . S
C324 C328 1.368 . S
C325 C306 1.429 . S
C325 C319 1.429 . S
C325 C326 1.523 . S
C326 C307 1.368 . S
C326 C320 1.368 . S
C326 C325 1.523 . S
C327 C311 1.429 . S
C327 C323 1.429 . S
C327 C328 1.523 . S
C328 C312 1.368 . S
C328 C324 1.368 . S
C328 C327 1.523 . S
H329 C304 0.950 . S
H330 C306 0.950 . S
H331 C307 0.949 . S
H332 C309 0.950 . S
H333 C311 0.950 . S
C334 C335 1.349 . S
C334 C336 1.327 . S
C334 H359 0.950 . S
C335 C334 1.349 . S
C335 C351 1.349 . S
C336 C334 1.327 . S
C336 C355 1.429 . S
C336 H360 0.950 . S
C337 C354 1.574 . S
C337 C356 1.368 . S
C337 H361 0.949 . S
H338 C342 0.949 . S
C339 C340 1.349 1_545 S
C339 C341 1.327 1_545 S
C339 H362 0.950 . S
C340 C339 1.349 1_565 S
C340 C352 1.349 . S
C341 C339 1.327 1_565 S
C341 C357 1.429 . S
C341 H363 0.950 1_565 S
C342 H338 0.949 . S
C342 C350 1.574 . S
C342 C358 1.368 . S
H343 C351 0.950 . S
H344 C349 0.950 . S
H345 C350 0.949 . S
H346 C352 0.950 . S
H347 C353 0.950 . S
H348 C354 0.949 . S
C349 H344 0.950 . S
C349 C351 1.327 . S
C349 C355 1.429 . S
C350 C342 1.574 . S
C350 H345 0.949 . S
C350 C356 1.368 . S
C351 C335 1.349 . S
C351 H343 0.950 . S
C351 C349 1.327 . S
C352 C340 1.349 . S
C352 H346 0.950 . S
C352 C353 1.327 . S
C353 H347 0.950 . S
C353 C352 1.327 . S
C353 C357 1.429 . S
C354 C337 1.574 . S
C354 H348 0.949 . S
C354 C358 1.368 . S
C355 C336 1.429 . S
C355 C349 1.429 . S
C355 C356 1.523 . S
C356 C337 1.368 . S
C356 C350 1.368 . S
C356 C355 1.523 . S
C357 C341 1.429 . S
C357 C353 1.429 . S
C357 C358 1.523 . S
C358 C342 1.368 . S
C358 C354 1.368 . S
C358 C357 1.523 . S
H359 C334 0.950 . S
H360 C336 0.950 . S
H361 C337 0.949 . S
H362 C339 0.950 . S
H363 C341 0.950 1_545 S
C364 C365 1.349 . S
C364 C366 1.327 . S
C364 H389 0.950 . S
C365 C364 1.349 . S
C365 C381 1.349 . S
C366 C364 1.327 . S
C366 C385 1.429 . S
C366 H390 0.950 . S
C367 C384 1.574 . S
C367 C386 1.368 . S
C367 H391 0.949 . S
H368 C372 0.949 . S
C369 C370 1.349 1_556 S
C369 C371 1.327 . S
C369 H392 0.950 . S
C370 C369 1.349 1_554 S
C370 C382 1.349 . S
C371 C369 1.327 . S
C371 C387 1.429 . S
C371 H393 0.950 . S
C372 H368 0.949 . S
C372 C380 1.574 . S
C372 C388 1.368 . S
H373 C381 0.950 . S
H374 C379 0.950 . S
H375 C380 0.949 . S
H376 C382 0.950 . S
H377 C383 0.950 . S
H378 C384 0.949 . S
C379 H374 0.950 . S
C379 C381 1.327 . S
C379 C385 1.429 . S
C380 C372 1.574 . S
C380 H375 0.949 . S
C380 C386 1.368 . S
C381 C365 1.349 . S
C381 H373 0.950 . S
C381 C379 1.327 . S
C382 C370 1.349 . S
C382 H376 0.950 . S
C382 C383 1.327 1_554 S
C383 H377 0.950 . S
C383 C382 1.327 1_556 S
C383 C387 1.429 . S
C384 C367 1.574 . S
C384 H378 0.949 . S
C384 C388 1.368 . S
C385 C366 1.429 . S
C385 C379 1.429 . S
C385 C386 1.523 . S
C386 C367 1.368 . S
C386 C380 1.368 . S
C386 C385 1.523 . S
C387 C371 1.429 . S
C387 C383 1.429 . S
C387 C388 1.523 . S
C388 C372 1.368 . S
C388 C384 1.368 . S
C388 C387 1.523 . S
H389 C364 0.950 . S
H390 C366 0.950 . S
H391 C367 0.949 . S
H392 C369 0.950 . S
H393 C371 0.950 . S
C394 C395 1.349 . S
C394 C396 1.327 . S
C394 H419 0.950 . S
C395 C394 1.349 . S
C395 C411 1.349 . S
C396 C394 1.327 . S
C396 C415 1.429 . S
C396 H420 0.950 . S
C397 C414 1.574 . S
C397 C416 1.368 . S
C397 H421 0.949 . S
H398 C402 0.949 . S
C399 C400 1.349 . S
C399 C401 1.327 . S
C399 H422 0.950 . S
C400 C399 1.349 . S
C400 C412 1.349 . S
C401 C399 1.327 . S
C401 C417 1.429 . S
C401 H423 0.950 . S
C402 H398 0.949 . S
C402 C410 1.574 . S
C402 C418 1.368 . S
H403 C411 0.950 . S
H404 C409 0.950 . S
H405 C410 0.949 . S
H406 C412 0.950 . S
H407 C413 0.950 . S
H408 C414 0.949 . S
C409 H404 0.950 . S
C409 C411 1.327 . S
C409 C415 1.429 . S
C410 C402 1.574 . S
C410 H405 0.949 . S
C410 C416 1.368 . S
C411 C395 1.349 . S
C411 H403 0.950 . S
C411 C409 1.327 . S
C412 C400 1.349 . S
C412 H406 0.950 . S
C412 C413 1.327 . S
C413 H407 0.950 . S
C413 C412 1.327 . S
C413 C417 1.429 . S
C414 C397 1.574 . S
C414 H408 0.949 . S
C414 C418 1.368 . S
C415 C396 1.429 . S
C415 C409 1.429 . S
C415 C416 1.523 . S
C416 C397 1.368 . S
C416 C410 1.368 . S
C416 C415 1.523 . S
C417 C401 1.429 . S
C417 C413 1.429 . S
C417 C418 1.523 . S
C418 C402 1.368 . S
C418 C414 1.368 . S
C418 C417 1.523 . S
H419 C394 0.950 . S
H420 C396 0.950 . S
H421 C397 0.949 . S
H422 C399 0.950 . S
H423 C401 0.950 . S
C424 C425 1.349 . S
C424 C426 1.327 . S
C424 H449 0.950 . S
C425 C424 1.349 . S
C425 C441 1.349 . S
C426 C424 1.327 . S
C426 C445 1.429 . S
C426 H450 0.950 . S
C427 C444 1.574 . S
C427 C446 1.368 . S
C427 H451 0.949 . S
H428 C432 0.949 . S
C429 C430 1.349 . S
C429 C431 1.327 . S
C429 H452 0.950 . S
C430 C429 1.349 . S
C430 C442 1.349 . S
C431 C429 1.327 . S
C431 C447 1.429 . S
C431 H453 0.950 . S
C432 H428 0.949 . S
C432 C440 1.574 . S
C432 C448 1.368 . S
H433 C441 0.950 . S
H434 C439 0.950 . S
H435 C440 0.949 . S
H436 C442 0.950 . S
H437 C443 0.950 . S
H438 C444 0.949 . S
C439 H434 0.950 . S
C439 C441 1.327 . S
C439 C445 1.429 . S
C440 C432 1.574 . S
C440 H435 0.949 . S
C440 C446 1.368 . S
C441 C425 1.349 . S
C441 H433 0.950 . S
C441 C439 1.327 . S
C442 C430 1.349 . S
C442 H436 0.950 . S
C442 C443 1.327 . S
C443 H437 0.950 . S
C443 C442 1.327 . S
C443 C447 1.429 . S
C444 C427 1.574 . S
C444 H438 0.949 . S
C444 C448 1.368 . S
C445 C426 1.429 . S
C445 C439 1.429 . S
C445 C446 1.523 . S
C446 C427 1.368 . S
C446 C440 1.368 . S
C446 C445 1.523 . S
C447 C431 1.429 . S
C447 C443 1.429 . S
C447 C448 1.523 . S
C448 C432 1.368 . S
C448 C444 1.368 . S
C448 C447 1.523 . S
H449 C424 0.950 . S
H450 C426 0.950 . S
H451 C427 0.949 . S
H452 C429 0.950 . S
H453 C431 0.950 . S
C454 C455 1.349 . S
C454 C456 1.327 . S
C454 H479 0.950 . S
C455 C454 1.349 . S
C455 C471 1.349 . S
C456 C454 1.327 . S
C456 C475 1.429 . S
C456 H480 0.950 . S
C457 C474 1.574 . S
C457 C476 1.368 . S
C457 H481 0.949 . S
H458 C462 0.949 . S
C459 C460 1.349 . S
C459 C461 1.327 . S
C459 H482 0.950 1_556 S
C460 C459 1.349 . S
C460 C472 1.349 . S
C461 C459 1.327 . S
C461 C477 1.429 . S
C461 H483 0.950 . S
C462 H458 0.949 . S
C462 C470 1.574 . S
C462 C478 1.368 . S
H463 C471 0.950 . S
H464 C469 0.950 . S
H465 C470 0.949 . S
H466 C472 0.950 . S
H467 C473 0.950 . S
H468 C474 0.949 . S
C469 H464 0.950 . S
C469 C471 1.327 . S
C469 C475 1.429 . S
C470 C462 1.574 . S
C470 H465 0.949 . S
C470 C476 1.368 . S
C471 C455 1.349 . S
C471 H463 0.950 . S
C471 C469 1.327 . S
C472 C460 1.349 . S
C472 H466 0.950 . S
C472 C473 1.327 . S
C473 H467 0.950 . S
C473 C472 1.327 . S
C473 C477 1.429 . S
C474 C457 1.574 . S
C474 H468 0.949 . S
C474 C478 1.368 . S
C475 C456 1.429 . S
C475 C469 1.429 . S
C475 C476 1.523 . S
C476 C457 1.368 . S
C476 C470 1.368 . S
C476 C475 1.523 . S
C477 C461 1.429 . S
C477 C473 1.429 . S
C477 C478 1.523 . S
C478 C462 1.368 . S
C478 C474 1.368 . S
C478 C477 1.523 . S
H479 C454 0.950 . S
H480 C456 0.950 . S
H481 C457 0.949 . S
H482 C459 0.950 1_554 S
H483 C461 0.950 . S
C484 C485 1.349 . S
C484 C486 1.327 . S
C484 H509 0.950 . S
C485 C484 1.349 . S
C485 C501 1.349 . S
C486 C484 1.327 . S
C486 C505 1.429 . S
C486 H510 0.950 . S
C487 C504 1.574 . S
C487 C506 1.368 . S
C487 H511 0.949 . S
H488 C492 0.949 . S
C489 C490 1.349 . S
C489 C491 1.327 . S
C489 H512 0.950 . S
C490 C489 1.349 . S
C490 C502 1.349 . S
C491 C489 1.327 . S
C491 C507 1.429 . S
C491 H513 0.950 . S
C492 H488 0.949 . S
C492 C500 1.574 . S
C492 C508 1.368 . S
H493 C501 0.950 . S
H494 C499 0.950 . S
H495 C500 0.949 . S
H496 C502 0.950 1_455 S
H497 C503 0.950 . S
H498 C504 0.949 . S
C499 H494 0.950 . S
C499 C501 1.327 . S
C499 C505 1.429 . S
C500 C492 1.574 . S
C500 H495 0.949 . S
C500 C506 1.368 . S
C501 C485 1.349 . S
C501 H493 0.950 . S
C501 C499 1.327 . S
C502 C490 1.349 . S
C502 H496 0.950 1_655 S
C502 C503 1.327 . S
C503 H497 0.950 . S
C503 C502 1.327 . S
C503 C507 1.429 . S
C504 C487 1.574 . S
C504 H498 0.949 . S
C504 C508 1.368 . S
C505 C486 1.429 . S
C505 C499 1.429 . S
C505 C506 1.523 . S
C506 C487 1.368 . S
C506 C500 1.368 . S
C506 C505 1.523 . S
C507 C491 1.429 . S
C507 C503 1.429 . S
C507 C508 1.523 . S
C508 C492 1.368 . S
C508 C504 1.368 . S
C508 C507 1.523 . S
H509 C484 0.950 . S
H510 C486 0.950 . S
H511 C487 0.949 . S
H512 C489 0.950 . S
H513 C491 0.950 . S
C514 C515 1.349 . S
C514 C516 1.327 . S
C514 H539 0.950 . S
C515 C514 1.349 . S
C515 C531 1.349 . S
C516 C514 1.327 . S
C516 C535 1.429 . S
C516 H540 0.950 . S
C517 C534 1.574 . S
C517 C536 1.368 . S
C517 H541 0.949 . S
H518 C522 0.949 . S
C519 C520 1.349 . S
C519 C521 1.327 . S
C519 H542 0.950 . S
C520 C519 1.349 . S
C520 C532 1.349 . S
C521 C519 1.327 . S
C521 C537 1.429 . S
C521 H543 0.950 . S
C522 H518 0.949 . S
C522 C530 1.574 . S
C522 C538 1.368 . S
H523 C531 0.950 . S
H524 C529 0.950 . S
H525 C530 0.949 . S
H526 C532 0.950 . S
H527 C533 0.950 . S
H528 C534 0.949 . S
C529 H524 0.950 . S
C529 C531 1.327 . S
C529 C535 1.429 . S
C530 C522 1.574 . S
C530 H525 0.949 . S
C530 C536 1.368 . S
C531 C515 1.349 . S
C531 H523 0.950 . S
C531 C529 1.327 . S
C532 C520 1.349 . S
C532 H526 0.950 . S
C532 C533 1.327 . S
C533 H527 0.950 . S
C533 C532 1.327 . S
C533 C537 1.429 . S
C534 C517 1.574 . S
C534 H528 0.949 . S
C534 C538 1.368 . S
C535 C516 1.429 . S
C535 C529 1.429 . S
C535 C536 1.523 . S
C536 C517 1.368 . S
C536 C530 1.368 . S
C536 C535 1.523 . S
C537 C521 1.429 . S
C537 C533 1.429 . S
C537 C538 1.523 . S
C538 C522 1.368 . S
C538 C534 1.368 . S
C538 C537 1.523 . S
H539 C514 0.950 . S
H540 C516 0.950 . S
H541 C517 0.949 . S
H542 C519 0.950 . S
H543 C521 0.950 . S
C544 C545 1.349 . S
C544 C546 1.327 . S
C544 H569 0.950 . S
C545 C544 1.349 . S
C545 C561 1.349 . S
C546 C544 1.327 . S
C546 C565 1.429 . S
C546 H570 0.950 . S
C547 C564 1.574 . S
C547 C566 1.368 . S
C547 H571 0.949 . S
H548 C552 0.949 . S
C549 C550 1.349 . S
C549 C551 1.327 . S
C549 H572 0.950 . S
C550 C549 1.349 . S
C550 C562 1.349 . S
C551 C549 1.327 . S
C551 C567 1.429 . S
C551 H573 0.950 . S
C552 H548 0.949 . S
C552 C560 1.574 . S
C552 C568 1.368 . S
H553 C561 0.950 . S
H554 C559 0.950 . S
H555 C560 0.949 . S
H556 C562 0.950 . S
H557 C563 0.950 . S
H558 C564 0.949 . S
C559 H554 0.950 . S
C559 C561 1.327 . S
C559 C565 1.429 . S
C560 C552 1.574 . S
C560 H555 0.949 . S
C560 C566 1.368 . S
C561 C545 1.349 . S
C561 H553 0.950 . S
C561 C559 1.327 . S
C562 C550 1.349 . S
C562 H556 0.950 . S
C562 C563 1.327 . S
C563 H557 0.950 . S
C563 C562 1.327 . S
C563 C567 1.429 . S
C564 C547 1.574 . S
C564 H558 0.949 . S
C564 C568 1.368 . S
C565 C546 1.429 . S
C565 C559 1.429 . S
C565 C566 1.523 . S
C566 C547 1.368 . S
C566 C560 1.368 . S
C566 C565 1.523 . S
C567 C551 1.429 . S
C567 C563 1.429 . S
C567 C568 1.523 . S
C568 C552 1.368 . S
C568 C564 1.368 . S
C568 C567 1.523 . S
H569 C544 0.950 . S
H570 C546 0.950 . S
H571 C547 0.949 . S
H572 C549 0.950 . S
H573 C551 0.950 . S
C574 C575 1.349 . S
C574 C576 1.327 . S
C574 H599 0.950 . S
C575 C574 1.349 . S
C575 C591 1.349 . S
C576 C574 1.327 . S
C576 C595 1.429 . S
C576 H600 0.950 . S
C577 C594 1.574 . S
C577 C596 1.368 . S
C577 H601 0.949 . S
H578 C582 0.949 . S
C579 C580 1.349 . S
C579 C581 1.327 . S
C579 H602 0.950 . S
C580 C579 1.349 . S
C580 C592 1.349 . S
C581 C579 1.327 . S
C581 C597 1.429 . S
C581 H603 0.950 . S
C582 H578 0.949 . S
C582 C590 1.574 . S
C582 C598 1.368 . S
H583 C591 0.950 . S
H584 C589 0.950 . S
H585 C590 0.949 . S
H586 C592 0.950 . S
H587 C593 0.950 . S
H588 C594 0.949 . S
C589 H584 0.950 . S
C589 C591 1.327 . S
C589 C595 1.429 . S
C590 C582 1.574 . S
C590 H585 0.949 . S
C590 C596 1.368 . S
C591 C575 1.349 . S
C591 H583 0.950 . S
C591 C589 1.327 . S
C592 C580 1.349 . S
C592 H586 0.950 . S
C592 C593 1.327 . S
C593 H587 0.950 . S
C593 C592 1.327 . S
C593 C597 1.429 . S
C594 C577 1.574 . S
C594 H588 0.949 . S
C594 C598 1.368 . S
C595 C576 1.429 . S
C595 C589 1.429 . S
C595 C596 1.523 . S
C596 C577 1.368 . S
C596 C590 1.368 . S
C596 C595 1.523 . S
C597 C581 1.429 . S
C597 C593 1.429 . S
C597 C598 1.523 . S
C598 C582 1.368 . S
C598 C594 1.368 . S
C598 C597 1.523 . S
H599 C574 0.950 . S
H600 C576 0.950 . S
H601 C577 0.949 . S
H602 C579 0.950 . S
H603 C581 0.950 . S
C604 C605 1.349 . S
C604 C606 1.327 . S
C604 H629 0.950 . S
C605 C604 1.349 . S
C605 C621 1.349 . S
C606 C604 1.327 . S
C606 C625 1.429 . S
C606 H630 0.950 . S
C607 C624 1.574 . S
C607 C626 1.368 . S
C607 H631 0.949 . S
H608 C612 0.949 . S
C609 C610 1.349 . S
C609 C611 1.327 . S
C609 H632 0.950 . S
C610 C609 1.349 . S
C610 C622 1.349 . S
C611 C609 1.327 . S
C611 C627 1.429 . S
C611 H633 0.950 . S
C612 H608 0.949 . S
C612 C620 1.574 . S
C612 C628 1.368 . S
H613 C621 0.950 . S
H614 C619 0.950 . S
H615 C620 0.949 . S
H616 C622 0.950 . S
H617 C623 0.950 . S
H618 C624 0.949 . S
C619 H614 0.950 . S
C619 C621 1.327 . S
C619 C625 1.429 . S
C620 C612 1.574 . S
C620 H615 0.949 . S
C620 C626 1.368 . S
C621 C605 1.349 . S
C621 H613 0.950 . S
C621 C619 1.327 . S
C622 C610 1.349 . S
C622 H616 0.950 . S
C622 C623 1.327 . S
C623 H617 0.950 . S
C623 C622 1.327 . S
C623 C627 1.429 . S
C624 C607 1.574 . S
C624 H618 0.949 . S
C624 C628 1.368 . S
C625 C606 1.429 . S
C625 C619 1.429 . S
C625 C626 1.523 . S
C626 C607 1.368 . S
C626 C620 1.368 . S
C626 C625 1.523 . S
C627 C611 1.429 . S
C627 C623 1.429 . S
C627 C628 1.523 . S
C628 C612 1.368 . S
C628 C624 1.368 . S
C628 C627 1.523 . S
H629 C604 0.950 . S
H630 C606 0.950 . S
H631 C607 0.949 . S
H632 C609 0.950 . S
H633 C611 0.950 . S
C634 C635 1.349 . S
C634 C636 1.327 . S
C634 H659 0.950 . S
C635 C634 1.349 . S
C635 C651 1.349 . S
C636 C634 1.327 . S
C636 C655 1.429 . S
C636 H660 0.950 . S
C637 C654 1.574 . S
C637 C656 1.368 . S
C637 H661 0.949 . S
H638 C642 0.949 . S
C639 C640 1.349 . S
C639 C641 1.327 . S
C639 H662 0.950 . S
C640 C639 1.349 . S
C640 C652 1.349 . S
C641 C639 1.327 . S
C641 C657 1.429 . S
C641 H663 0.950 . S
C642 H638 0.949 . S
C642 C650 1.574 . S
C642 C658 1.368 . S
H643 C651 0.950 . S
H644 C649 0.950 . S
H645 C650 0.949 . S
H646 C652 0.950 . S
H647 C653 0.950 . S
H648 C654 0.949 . S
C649 H644 0.950 . S
C649 C651 1.327 . S
C649 C655 1.429 . S
C650 C642 1.574 . S
C650 H645 0.949 . S
C650 C656 1.368 . S
C651 C635 1.349 . S
C651 H643 0.950 . S
C651 C649 1.327 . S
C652 C640 1.349 . S
C652 H646 0.950 . S
C652 C653 1.327 . S
C653 H647 0.950 . S
C653 C652 1.327 . S
C653 C657 1.429 . S
C654 C637 1.574 . S
C654 H648 0.949 . S
C654 C658 1.368 . S
C655 C636 1.429 . S
C655 C649 1.429 . S
C655 C656 1.523 . S
C656 C637 1.368 . S
C656 C650 1.368 . S
C656 C655 1.523 . S
C657 C641 1.429 . S
C657 C653 1.429 . S
C657 C658 1.523 . S
C658 C642 1.368 . S
C658 C654 1.368 . S
C658 C657 1.523 . S
H659 C634 0.950 . S
H660 C636 0.950 . S
H661 C637 0.949 . S
H662 C639 0.950 . S
H663 C641 0.950 . S
C664 C665 1.349 . S
C664 C666 1.327 . S
C664 H689 0.950 . S
C665 C664 1.349 . S
C665 C681 1.349 . S
C666 C664 1.327 . S
C666 C685 1.429 . S
C666 H690 0.950 . S
C667 C684 1.574 . S
C667 C686 1.368 . S
C667 H691 0.949 . S
H668 C672 0.949 . S
C669 C670 1.349 . S
C669 C671 1.327 . S
C669 H692 0.950 . S
C670 C669 1.349 . S
C670 C682 1.349 . S
C671 C669 1.327 . S
C671 C687 1.429 . S
C671 H693 0.950 . S
C672 H668 0.949 . S
C672 C680 1.574 . S
C672 C688 1.368 . S
H673 C681 0.950 . S
H674 C679 0.950 . S
H675 C680 0.949 . S
H676 C682 0.950 . S
H677 C683 0.950 . S
H678 C684 0.949 . S
C679 H674 0.950 . S
C679 C681 1.327 . S
C679 C685 1.429 . S
C680 C672 1.574 . S
C680 H675 0.949 . S
C680 C686 1.368 . S
C681 C665 1.349 . S
C681 H673 0.950 . S
C681 C679 1.327 . S
C682 C670 1.349 . S
C682 H676 0.950 . S
C682 C683 1.327 . S
C683 H677 0.950 . S
C683 C682 1.327 . S
C683 C687 1.429 . S
C684 C667 1.574 . S
C684 H678 0.949 . S
C684 C688 1.368 . S
C685 C666 1.429 . S
C685 C679 1.429 . S
C685 C686 1.523 . S
C686 C667 1.368 . S
C686 C680 1.368 . S
C686 C685 1.523 . S
C687 C671 1.429 . S
C687 C683 1.429 . S
C687 C688 1.523 . S
C688 C672 1.368 . S
C688 C684 1.368 . S
C688 C687 1.523 . S
H689 C664 0.950 . S
H690 C666 0.950 . S
H691 C667 0.949 . S
H692 C669 0.950 . S
H693 C671 0.950 . S
C694 C695 1.349 . S
C694 C696 1.327 . S
C694 H719 0.950 . S
C695 C694 1.349 . S
C695 C711 1.349 . S
C696 C694 1.327 . S
C696 C715 1.429 . S
C696 H720 0.950 . S
C697 C714 1.574 . S
C697 C716 1.368 . S
C697 H721 0.949 . S
H698 C702 0.949 . S
C699 C700 1.349 . S
C699 C701 1.327 . S
C699 H722 0.950 . S
C700 C699 1.349 . S
C700 C712 1.349 . S
C701 C699 1.327 . S
C701 C717 1.429 . S
C701 H723 0.950 . S
C702 H698 0.949 . S
C702 C710 1.574 . S
C702 C718 1.368 . S
H703 C711 0.950 . S
H704 C709 0.950 . S
H705 C710 0.949 . S
H706 C712 0.950 . S
H707 C713 0.950 . S
H708 C714 0.949 . S
C709 H704 0.950 . S
C709 C711 1.327 . S
C709 C715 1.429 . S
C710 C702 1.574 . S
C710 H705 0.949 . S
C710 C716 1.368 . S
C711 C695 1.349 . S
C711 H703 0.950 . S
C711 C709 1.327 . S
C712 C700 1.349 . S
C712 H706 0.950 . S
C712 C713 1.327 . S
C713 H707 0.950 . S
C713 C712 1.327 . S
C713 C717 1.429 . S
C714 C697 1.574 . S
C714 H708 0.949 . S
C714 C718 1.368 . S
C715 C696 1.429 . S
C715 C709 1.429 . S
C715 C716 1.523 . S
C716 C697 1.368 . S
C716 C710 1.368 . S
C716 C715 1.523 . S
C717 C701 1.429 . S
C717 C713 1.429 . S
C717 C718 1.523 . S
C718 C702 1.368 . S
C718 C714 1.368 . S
C718 C717 1.523 . S
H719 C694 0.950 . S
H720 C696 0.950 . S
H721 C697 0.949 . S
H722 C699 0.950 . S
H723 C701 0.950 . S
C724 C725 1.349 . S
C724 C726 1.327 . S
C724 H749 0.950 . S
C725 C724 1.349 . S
C725 C741 1.349 . S
C726 C724 1.327 . S
C726 C745 1.429 . S
C726 H750 0.950 . S
C727 C744 1.574 . S
C727 C746 1.368 . S
C727 H751 0.949 . S
H728 C732 0.949 . S
C729 C730 1.349 . S
C729 C731 1.327 . S
C729 H752 0.950 . S
C730 C729 1.349 . S
C730 C742 1.349 . S
C731 C729 1.327 . S
C731 C747 1.429 . S
C731 H753 0.950 . S
C732 H728 0.949 . S
C732 C740 1.574 . S
C732 C748 1.368 . S
H733 C741 0.950 . S
H734 C739 0.950 . S
H735 C740 0.949 . S
H736 C742 0.950 . S
H737 C743 0.950 . S
H738 C744 0.949 . S
C739 H734 0.950 . S
C739 C741 1.327 . S
C739 C745 1.429 . S
C740 C732 1.574 . S
C740 H735 0.949 . S
C740 C746 1.368 . S
C741 C725 1.349 . S
C741 H733 0.950 . S
C741 C739 1.327 . S
C742 C730 1.349 . S
C742 H736 0.950 . S
C742 C743 1.327 . S
C743 H737 0.950 . S
C743 C742 1.327 . S
C743 C747 1.429 . S
C744 C727 1.574 . S
C744 H738 0.949 . S
C744 C748 1.368 . S
C745 C726 1.429 . S
C745 C739 1.429 . S
C745 C746 1.523 . S
C746 C727 1.368 . S
C746 C740 1.368 . S
C746 C745 1.523 . S
C747 C731 1.429 . S
C747 C743 1.429 . S
C747 C748 1.523 . S
C748 C732 1.368 . S
C748 C744 1.368 . S
C748 C747 1.523 . S
H749 C724 0.950 . S
H750 C726 0.950 . S
H751 C727 0.949 . S
H752 C729 0.950 . S
H753 C731 0.950 . S
C754 C755 1.349 . S
C754 C756 1.327 . S
C754 H779 0.950 . S
C755 C754 1.349 . S
C755 C771 1.349 . S
C756 C754 1.327 . S
C756 C775 1.429 . S
C756 H780 0.950 . S
C757 C774 1.574 . S
C757 C776 1.368 . S
C757 H781 0.949 . S
H758 C762 0.949 . S
C759 C760 1.349 . S
C759 C761 1.327 . S
C759 H782 0.950 . S
C760 C759 1.349 . S
C760 C772 1.349 . S
C761 C759 1.327 . S
C761 C777 1.429 . S
C761 H783 0.950 . S
C762 H758 0.949 . S
C762 C770 1.574 . S
C762 C778 1.368 . S
H763 C771 0.950 . S
H764 C769 0.950 . S
H765 C770 0.949 . S
H766 C772 0.950 . S
H767 C773 0.950 . S
H768 C774 0.949 . S
C769 H764 0.950 . S
C769 C771 1.327 . S
C769 C775 1.429 . S
C770 C762 1.574 . S
C770 H765 0.949 . S
C770 C776 1.368 . S
C771 C755 1.349 . S
C771 H763 0.950 . S
C771 C769 1.327 . S
C772 C760 1.349 . S
C772 H766 0.950 . S
C772 C773 1.327 . S
C773 H767 0.950 . S
C773 C772 1.327 . S
C773 C777 1.429 . S
C774 C757 1.574 . S
C774 H768 0.949 . S
C774 C778 1.368 . S
C775 C756 1.429 . S
C775 C769 1.429 . S
C775 C776 1.523 . S
C776 C757 1.368 . S
C776 C770 1.368 . S
C776 C775 1.523 . S
C777 C761 1.429 . S
C777 C773 1.429 . S
C777 C778 1.523 . S
C778 C762 1.368 . S
C778 C774 1.368 . S
C778 C777 1.523 . S
H779 C754 0.950 . S
H780 C756 0.950 . S
H781 C757 0.949 . S
H782 C759 0.950 . S
H783 C761 0.950 . S
C784 C785 1.349 . S
C784 C786 1.327 . S
C784 H809 0.950 . S
C785 C784 1.349 . S
C785 C801 1.349 . S
C786 C784 1.327 . S
C786 C805 1.429 . S
C786 H810 0.950 . S
C787 C804 1.574 . S
C787 C806 1.368 . S
C787 H811 0.949 . S
H788 C792 0.949 . S
C789 C790 1.349 . S
C789 C791 1.327 . S
C789 H812 0.950 1_556 S
C790 C789 1.349 . S
C790 C802 1.349 . S
C791 C789 1.327 . S
C791 C807 1.429 . S
C791 H813 0.950 . S
C792 H788 0.949 . S
C792 C800 1.574 . S
C792 C808 1.368 . S
H793 C801 0.950 . S
H794 C799 0.950 . S
H795 C800 0.949 . S
H796 C802 0.950 . S
H797 C803 0.950 . S
H798 C804 0.949 . S
C799 H794 0.950 . S
C799 C801 1.327 . S
C799 C805 1.429 . S
C800 C792 1.574 . S
C800 H795 0.949 . S
C800 C806 1.368 . S
C801 C785 1.349 . S
C801 H793 0.950 . S
C801 C799 1.327 . S
C802 C790 1.349 . S
C802 H796 0.950 . S
C802 C803 1.327 . S
C803 H797 0.950 . S
C803 C802 1.327 . S
C803 C807 1.429 . S
C804 C787 1.574 . S
C804 H798 0.949 . S
C804 C808 1.368 . S
C805 C786 1.429 . S
C805 C799 1.429 . S
C805 C806 1.523 . S
C806 C787 1.368 . S
C806 C800 1.368 . S
C806 C805 1.523 . S
C807 C791 1.429 . S
C807 C803 1.429 . S
C807 C808 1.523 . S
C808 C792 1.368 . S
C808 C804 1.368 . S
C808 C807 1.523 . S
H809 C784 0.950 . S
H810 C786 0.950 . S
H811 C787 0.949 . S
H812 C789 0.950 1_554 S
H813 C791 0.950 . S
C814 C815 1.349 . S
C814 C816 1.327 . S
C814 H839 0.950 . S
C815 C814 1.349 . S
C815 C831 1.349 . S
C816 C814 1.327 . S
C816 C835 1.429 . S
C816 H840 0.950 . S
C817 C834 1.574 . S
C817 C836 1.368 . S
C817 H841 0.949 . S
H818 C822 0.949 . S
C819 C820 1.349 . S
C819 C821 1.327 . S
C819 H842 0.950 . S
C820 C819 1.349 . S
C820 C832 1.349 . S
C821 C819 1.327 . S
C821 C837 1.429 . S
C821 H843 0.950 . S
C822 H818 0.949 . S
C822 C830 1.574 . S
C822 C838 1.368 . S
H823 C831 0.950 . S
H824 C829 0.950 . S
H825 C830 0.949 . S
H826 C832 0.950 . S
H827 C833 0.950 . S
H828 C834 0.949 . S
C829 H824 0.950 . S
C829 C831 1.327 . S
C829 C835 1.429 . S
C830 C822 1.574 . S
C830 H825 0.949 . S
C830 C836 1.368 . S
C831 C815 1.349 . S
C831 H823 0.950 . S
C831 C829 1.327 . S
C832 C820 1.349 . S
C832 H826 0.950 . S
C832 C833 1.327 . S
C833 H827 0.950 . S
C833 C832 1.327 . S
C833 C837 1.429 . S
C834 C817 1.574 . S
C834 H828 0.949 . S
C834 C838 1.368 . S
C835 C816 1.429 . S
C835 C829 1.429 . S
C835 C836 1.523 . S
C836 C817 1.368 . S
C836 C830 1.368 . S
C836 C835 1.523 . S
C837 C821 1.429 . S
C837 C833 1.429 . S
C837 C838 1.523 . S
C838 C822 1.368 . S
C838 C834 1.368 . S
C838 C837 1.523 . S
H839 C814 0.950 . S
H840 C816 0.950 . S
H841 C817 0.949 . S
H842 C819 0.950 . S
H843 C821 0.950 . S
C844 C845 1.349 . S
C844 C846 1.327 . S
C844 H869 0.950 . S
C845 C844 1.349 . S
C845 C861 1.349 . S
C846 C844 1.327 . S
C846 C865 1.429 . S
C846 H870 0.950 . S
C847 C864 1.574 . S
C847 C866 1.368 . S
C847 H871 0.949 . S
H848 C852 0.949 . S
C849 C850 1.349 . S
C849 C851 1.327 . S
C849 H872 0.950 . S
C850 C849 1.349 . S
C850 C862 1.349 . S
C851 C849 1.327 . S
C851 C867 1.429 . S
C851 H873 0.950 . S
C852 H848 0.949 . S
C852 C860 1.574 . S
C852 C868 1.368 . S
H853 C861 0.950 . S
H854 C859 0.950 . S
H855 C860 0.949 . S
H856 C862 0.950 . S
H857 C863 0.950 . S
H858 C864 0.949 . S
C859 H854 0.950 . S
C859 C861 1.327 . S
C859 C865 1.429 . S
C860 C852 1.574 . S
C860 H855 0.949 . S
C860 C866 1.368 . S
C861 C845 1.349 . S
C861 H853 0.950 . S
C861 C859 1.327 . S
C862 C850 1.349 . S
C862 H856 0.950 . S
C862 C863 1.327 . S
C863 H857 0.950 . S
C863 C862 1.327 . S
C863 C867 1.429 . S
C864 C847 1.574 . S
C864 H858 0.949 . S
C864 C868 1.368 . S
C865 C846 1.429 . S
C865 C859 1.429 . S
C865 C866 1.523 . S
C866 C847 1.368 . S
C866 C860 1.368 . S
C866 C865 1.523 . S
C867 C851 1.429 . S
C867 C863 1.429 . S
C867 C868 1.523 . S
C868 C852 1.368 . S
C868 C864 1.368 . S
C868 C867 1.523 . S
H869 C844 0.950 . S
H870 C846 0.950 . S
H871 C847 0.949 . S
H872 C849 0.950 . S
H873 C851 0.950 . S
C874 C875 1.349 . S
C874 C876 1.327 . S
C874 H899 0.950 . S
C875 C874 1.349 . S
C875 C891 1.349 . S
C876 C874 1.327 . S
C876 C895 1.429 . S
C876 H900 0.950 . S
C877 C894 1.574 . S
C877 C896 1.368 . S
C877 H901 0.949 . S
H878 C882 0.949 . S
C879 C880 1.349 . S
C879 C881 1.327 . S
C879 H902 0.950 . S
C880 C879 1.349 . S
C880 C892 1.349 . S
C881 C879 1.327 . S
C881 C897 1.429 . S
C881 H903 0.950 . S
C882 H878 0.949 . S
C882 C890 1.574 . S
C882 C898 1.368 . S
H883 C891 0.950 . S
H884 C889 0.950 . S
H885 C890 0.949 . S
H886 C892 0.950 . S
H887 C893 0.950 . S
H888 C894 0.949 . S
C889 H884 0.950 . S
C889 C891 1.327 . S
C889 C895 1.429 . S
C890 C882 1.574 . S
C890 H885 0.949 . S
C890 C896 1.368 . S
C891 C875 1.349 . S
C891 H883 0.950 . S
C891 C889 1.327 . S
C892 C880 1.349 . S
C892 H886 0.950 . S
C892 C893 1.327 . S
C893 H887 0.950 . S
C893 C892 1.327 . S
C893 C897 1.429 . S
C894 C877 1.574 . S
C894 H888 0.949 . S
C894 C898 1.368 . S
C895 C876 1.429 . S
C895 C889 1.429 . S
C895 C896 1.523 . S
C896 C877 1.368 . S
C896 C890 1.368 . S
C896 C895 1.523 . S
C897 C881 1.429 . S
C897 C893 1.429 . S
C897 C898 1.523 . S
C898 C882 1.368 . S
C898 C894 1.368 . S
C898 C897 1.523 . S
H899 C874 0.950 . S
H900 C876 0.950 . S
H901 C877 0.949 . S
H902 C879 0.950 . S
H903 C881 0.950 . S
C185 C9 1.846 . S
C190 C106 1.828 . S
C215 C21 1.410 . S
C220 C125 1.373 . S
C250 C162 1.392 . S
C245 C30 1.388 . S
C275 C43 1.404 . S
C280 C172 1.452 1_655 S
C310 C142 1.791 . S
C305 C4 1.669 . S
C340 C112 2.061 1_565 S
C335 C22 2.129 . S
C370 C183 1.094 . S
C365 C34 1.110 . S
C400 C153 1.169 . S
C395 C48 1.183 . S
C425 C8 1.737 . S
C430 C166 1.744 . S
C460 C133 1.699 . S
C455 C35 1.750 . S
C485 C47 1.901 . S
C490 C123 1.899 . S
C515 C17 1.083 . S
C520 C145 1.082 . S
C550 C105 1.451 . S
C545 C60 1.454 . S
C575 C74 1.595 . S
C580 C126 1.570 . S
C605 C82 1.170 . S
C610 C163 1.194 . S
C635 C100 1.973 . S
C640 C173 1.916 . S
C665 C61 2.279 . S
C670 C143 2.315 . S
C700 C113 1.531 . S
C695 C73 1.575 . S
C730 C182 1.703 . S
C725 C87 1.737 . S
C760 C152 0.911 . S
C755 C95 0.902 . S
C785 C56 1.738 . S
C790 C165 1.735 . S
C820 C132 1.814 . S
C815 C86 1.861 . S
C850 C122 1.658 . S
C845 C99 1.660 . S
C875 C69 1.090 . S
C880 C146 1.117 . S
