# Generated by pormake.
# Topology eea, (3,6)-cn, num edge types: 1
# Building blocks:
#     Node 0, Type 0, BuildingBlock: KAKCAD_clean_linker_0, # of connection points: 3
#     Node 1, Type 0, BuildingBlock: KAKCAD_clean_linker_0, # of connection points: 3
#     Node 2, Type 0, BuildingBlock: KAKCAD_clean_linker_0, # of connection points: 3
#     Node 3, Type 0, BuildingBlock: KAKCAD_clean_linker_0, # of connection points: 3
#     Node 4, Type 0, BuildingBlock: KAKCAD_clean_linker_0, # of connection points: 3
#     Node 5, Type 0, BuildingBlock: KAKCAD_clean_linker_0, # of connection points: 3
#     Node 6, Type 0, BuildingBlock: KAKCAD_clean_linker_0, # of connection points: 3
#     Node 7, Type 0, BuildingBlock: KAKCAD_clean_linker_0, # of connection points: 3
#     Node 8, Type 0, BuildingBlock: KAKCAD_clean_linker_0, # of connection points: 3
#     Node 9, Type 0, BuildingBlock: KAKCAD_clean_linker_0, # of connection points: 3
#     Node 10, Type 0, BuildingBlock: KAKCAD_clean_linker_0, # of connection points: 3
#     Node 11, Type 0, BuildingBlock: KAKCAD_clean_linker_0, # of connection points: 3
#     Node 12, Type 0, BuildingBlock: KAKCAD_clean_linker_0, # of connection points: 3
#     Node 13, Type 0, BuildingBlock: KAKCAD_clean_linker_0, # of connection points: 3
#     Node 14, Type 0, BuildingBlock: KAKCAD_clean_linker_0, # of connection points: 3
#     Node 15, Type 0, BuildingBlock: KAKCAD_clean_linker_0, # of connection points: 3
#     Node 16, Type 0, BuildingBlock: KAKCAD_clean_linker_0, # of connection points: 3
#     Node 17, Type 0, BuildingBlock: KAKCAD_clean_linker_0, # of connection points: 3
#     Node 18, Type 1, BuildingBlock: KUMBUR_clean_sbu_0, # of connection points: 6
#     Node 19, Type 1, BuildingBlock: KUMBUR_clean_sbu_0, # of connection points: 6
#     Node 20, Type 1, BuildingBlock: KUMBUR_clean_sbu_0, # of connection points: 6
#     Node 21, Type 1, BuildingBlock: KUMBUR_clean_sbu_0, # of connection points: 6
#     Node 22, Type 1, BuildingBlock: KUMBUR_clean_sbu_0, # of connection points: 6
#     Node 23, Type 1, BuildingBlock: KUMBUR_clean_sbu_0, # of connection points: 6
#     Node 24, Type 1, BuildingBlock: KUMBUR_clean_sbu_0, # of connection points: 6
#     Node 25, Type 1, BuildingBlock: KUMBUR_clean_sbu_0, # of connection points: 6
#     Node 26, Type 1, BuildingBlock: KUMBUR_clean_sbu_0, # of connection points: 6
#     Edge 27, Type (0, 1), BuildingBlock: TEMPAE_clean_linker_10, # of connection points: 2
#     Edge 28, Type (0, 1), BuildingBlock: TEMPAE_clean_linker_10, # of connection points: 2
#     Edge 29, Type (0, 1), BuildingBlock: TEMPAE_clean_linker_10, # of connection points: 2
#     Edge 30, Type (0, 1), BuildingBlock: TEMPAE_clean_linker_10, # of connection points: 2
#     Edge 31, Type (0, 1), BuildingBlock: TEMPAE_clean_linker_10, # of connection points: 2
#     Edge 32, Type (0, 1), BuildingBlock: TEMPAE_clean_linker_10, # of connection points: 2
#     Edge 33, Type (0, 1), BuildingBlock: TEMPAE_clean_linker_10, # of connection points: 2
#     Edge 34, Type (0, 1), BuildingBlock: TEMPAE_clean_linker_10, # of connection points: 2
#     Edge 35, Type (0, 1), BuildingBlock: TEMPAE_clean_linker_10, # of connection points: 2
#     Edge 36, Type (0, 1), BuildingBlock: TEMPAE_clean_linker_10, # of connection points: 2
#     Edge 37, Type (0, 1), BuildingBlock: TEMPAE_clean_linker_10, # of connection points: 2
#     Edge 38, Type (0, 1), BuildingBlock: TEMPAE_clean_linker_10, # of connection points: 2
#     Edge 39, Type (0, 1), BuildingBlock: TEMPAE_clean_linker_10, # of connection points: 2
#     Edge 40, Type (0, 1), BuildingBlock: TEMPAE_clean_linker_10, # of connection points: 2
#     Edge 41, Type (0, 1), BuildingBlock: TEMPAE_clean_linker_10, # of connection points: 2
#     Edge 42, Type (0, 1), BuildingBlock: TEMPAE_clean_linker_10, # of connection points: 2
#     Edge 43, Type (0, 1), BuildingBlock: TEMPAE_clean_linker_10, # of connection points: 2
#     Edge 44, Type (0, 1), BuildingBlock: TEMPAE_clean_linker_10, # of connection points: 2
#     Edge 45, Type (0, 1), BuildingBlock: TEMPAE_clean_linker_10, # of connection points: 2
#     Edge 46, Type (0, 1), BuildingBlock: TEMPAE_clean_linker_10, # of connection points: 2
#     Edge 47, Type (0, 1), BuildingBlock: TEMPAE_clean_linker_10, # of connection points: 2
#     Edge 48, Type (0, 1), BuildingBlock: TEMPAE_clean_linker_10, # of connection points: 2
#     Edge 49, Type (0, 1), BuildingBlock: TEMPAE_clean_linker_10, # of connection points: 2
#     Edge 50, Type (0, 1), BuildingBlock: TEMPAE_clean_linker_10, # of connection points: 2
#     Edge 51, Type (0, 1), BuildingBlock: TEMPAE_clean_linker_10, # of connection points: 2
#     Edge 52, Type (0, 1), BuildingBlock: TEMPAE_clean_linker_10, # of connection points: 2
#     Edge 53, Type (0, 1), BuildingBlock: TEMPAE_clean_linker_10, # of connection points: 2
#     Edge 54, Type (0, 1), BuildingBlock: TEMPAE_clean_linker_10, # of connection points: 2
#     Edge 55, Type (0, 1), BuildingBlock: TEMPAE_clean_linker_10, # of connection points: 2
#     Edge 56, Type (0, 1), BuildingBlock: TEMPAE_clean_linker_10, # of connection points: 2
#     Edge 57, Type (0, 1), BuildingBlock: TEMPAE_clean_linker_10, # of connection points: 2
#     Edge 58, Type (0, 1), BuildingBlock: TEMPAE_clean_linker_10, # of connection points: 2
#     Edge 59, Type (0, 1), BuildingBlock: TEMPAE_clean_linker_10, # of connection points: 2
#     Edge 60, Type (0, 1), BuildingBlock: TEMPAE_clean_linker_10, # of connection points: 2
#     Edge 61, Type (0, 1), BuildingBlock: TEMPAE_clean_linker_10, # of connection points: 2
#     Edge 62, Type (0, 1), BuildingBlock: TEMPAE_clean_linker_10, # of connection points: 2
#     Edge 63, Type (0, 1), BuildingBlock: TEMPAE_clean_linker_10, # of connection points: 2
#     Edge 64, Type (0, 1), BuildingBlock: TEMPAE_clean_linker_10, # of connection points: 2
#     Edge 65, Type (0, 1), BuildingBlock: TEMPAE_clean_linker_10, # of connection points: 2
#     Edge 66, Type (0, 1), BuildingBlock: TEMPAE_clean_linker_10, # of connection points: 2
#     Edge 67, Type (0, 1), BuildingBlock: TEMPAE_clean_linker_10, # of connection points: 2
#     Edge 68, Type (0, 1), BuildingBlock: TEMPAE_clean_linker_10, # of connection points: 2
#     Edge 69, Type (0, 1), BuildingBlock: TEMPAE_clean_linker_10, # of connection points: 2
#     Edge 70, Type (0, 1), BuildingBlock: TEMPAE_clean_linker_10, # of connection points: 2
#     Edge 71, Type (0, 1), BuildingBlock: TEMPAE_clean_linker_10, # of connection points: 2
#     Edge 72, Type (0, 1), BuildingBlock: TEMPAE_clean_linker_10, # of connection points: 2
#     Edge 73, Type (0, 1), BuildingBlock: TEMPAE_clean_linker_10, # of connection points: 2
#     Edge 74, Type (0, 1), BuildingBlock: TEMPAE_clean_linker_10, # of connection points: 2
#     Edge 75, Type (0, 1), BuildingBlock: TEMPAE_clean_linker_10, # of connection points: 2
#     Edge 76, Type (0, 1), BuildingBlock: TEMPAE_clean_linker_10, # of connection points: 2
#     Edge 77, Type (0, 1), BuildingBlock: TEMPAE_clean_linker_10, # of connection points: 2
#     Edge 78, Type (0, 1), BuildingBlock: TEMPAE_clean_linker_10, # of connection points: 2
#     Edge 79, Type (0, 1), BuildingBlock: TEMPAE_clean_linker_10, # of connection points: 2
#     Edge 80, Type (0, 1), BuildingBlock: TEMPAE_clean_linker_10, # of connection points: 2
# Relax obj value: 0.009
# Max RMSD: 0.094
# Mean RMSD: 0.061
data_MOF--net-eea--node1-KUMBUR_clean_sbu_0--node2-KAKCAD_clean_linker_0--edge1-TEMPAE_clean_linker_10
_symmetry_space_group_name_H-M    P1
_symmetry_Int_Tables_number       1
_symmetry_cell_setting            triclinic
loop_
_symmetry_equiv_pos_as_xyz
'x, y, z'
_cell_length_a     63.292647
_cell_length_b     64.505061
_cell_length_c     89.503007
_cell_angle_alpha  90.356223
_cell_angle_beta   90.197861
_cell_angle_gamma 120.02562
loop_
_atom_site_label
_atom_site_type_symbol
_atom_site_fract_x
_atom_site_fract_y
_atom_site_fract_z
_atom_type_partial_charge
C0 C 0.2669 0.14485 0.4827 0.0
C1 C 0.28836 0.1439 0.48521 0.0
C2 C 0.25578 0.13954 0.4686 0.0
C3 C 0.26569 0.13286 0.45677 0.0
C4 C 0.28718 0.13205 0.45918 0.0
C5 C 0.2985 0.13768 0.47322 0.0
C6 C 0.25318 0.12607 0.44206 0.0
C7 C 0.24563 0.14077 0.43514 0.0
C8 C 0.23304 0.13406 0.42138 0.0
C9 C 0.22765 0.11209 0.41479 0.0
C10 C 0.23543 0.09743 0.4215 0.0
C11 C 0.24837 0.10461 0.43506 0.0
C12 C 0.22992 0.07455 0.41434 0.0
C13 C 0.20591 0.05782 0.41004 0.0
C14 C 0.24866 0.06937 0.41171 0.0
C15 C 0.24351 0.04789 0.40473 0.0
C16 C 0.21947 0.03109 0.40052 0.0
C17 C 0.22606 0.15019 0.41372 0.0
C18 C 0.21814 0.16366 0.42194 0.0
C19 C 0.22769 0.15256 0.39809 0.0
C20 C 0.22161 0.168 0.39087 0.0
C21 C 0.21405 0.18175 0.39911 0.0
C22 C 0.21234 0.17933 0.41473 0.0
C23 C 0.20069 0.03617 0.4033 0.0
H24 H 0.25832 0.14915 0.4917 0.0
H25 H 0.23905 0.14003 0.46705 0.0
H26 H 0.29531 0.12719 0.45018 0.0
H27 H 0.31527 0.13724 0.47464 0.0
H28 H 0.25018 0.15774 0.44033 0.0
H29 H 0.25399 0.09308 0.4404 0.0
H30 H 0.21753 0.10637 0.40435 0.0
H31 H 0.19116 0.06141 0.41203 0.0
H32 H 0.26733 0.08208 0.41487 0.0
H33 H 0.25824 0.04428 0.40275 0.0
H34 H 0.21636 0.16207 0.43397 0.0
H35 H 0.23405 0.14276 0.39139 0.0
H36 H 0.18204 0.0235 0.40008 0.0
H37 H 0.20686 0.18983 0.42146 0.0
H38 H 0.22282 0.16912 0.37881 0.0
C39 C 0.88387 0.15889 0.47608 0.0
C40 C 0.8807 0.14374 0.4882 0.0
C41 C 0.88931 0.15391 0.46182 0.0
C42 C 0.89119 0.13344 0.45925 0.0
C43 C 0.88827 0.11838 0.47126 0.0
C44 C 0.88339 0.12361 0.4856 0.0
C45 C 0.89505 0.12714 0.44395 0.0
C46 C 0.91561 0.14304 0.43571 0.0
C47 C 0.91921 0.13713 0.42111 0.0
C48 C 0.90166 0.11492 0.4149 0.0
C49 C 0.88081 0.09879 0.42297 0.0
C50 C 0.8778 0.10519 0.43753 0.0
C51 C 0.86205 0.07546 0.4162 0.0
C52 C 0.85656 0.07346 0.40082 0.0
C53 C 0.8492 0.05498 0.42509 0.0
C54 C 0.8312 0.03331 0.41886 0.0
C55 C 0.82584 0.03126 0.40347 0.0
C56 C 0.94115 0.15413 0.41234 0.0
C57 C 0.95099 0.17906 0.41378 0.0
C58 C 0.95242 0.14566 0.40238 0.0
C59 C 0.97276 0.16162 0.39407 0.0
C60 C 0.98263 0.18643 0.39571 0.0
C61 C 0.97158 0.19498 0.40567 0.0
C62 C 0.83893 0.05165 0.39453 0.0
H63 H 0.88151 0.17428 0.47746 0.0
H64 H 0.89126 0.16565 0.45267 0.0
H65 H 0.88982 0.10255 0.46954 0.0
H66 H 0.88172 0.11179 0.49461 0.0
H67 H 0.92902 0.15976 0.44089 0.0
H68 H 0.86162 0.09344 0.44384 0.0
H69 H 0.90419 0.1102 0.40369 0.0
H70 H 0.86566 0.0888 0.39358 0.0
H71 H 0.85308 0.05555 0.43692 0.0
H72 H 0.82135 0.01824 0.42621 0.0
H73 H 0.94264 0.18637 0.42103 0.0
H74 H 0.9458 0.12668 0.40114 0.0
H75 H 0.83576 0.05082 0.38259 0.0
H76 H 0.9787 0.21405 0.40702 0.0
H77 H 0.9811 0.15458 0.38656 0.0
C78 C 0.89648 0.74655 0.48213 0.0
C79 C 0.87257 0.73372 0.48756 0.0
C80 C 0.9011 0.75682 0.46788 0.0
C81 C 0.88184 0.754 0.45849 0.0
C82 C 0.85783 0.74083 0.46402 0.0
C83 C 0.85332 0.7311 0.47841 0.0
C84 C 0.88678 0.76476 0.44309 0.0
C85 C 0.9069 0.76751 0.43475 0.0
C86 C 0.91262 0.77866 0.42063 0.0
C87 C 0.89655 0.78566 0.41449 0.0
C88 C 0.87555 0.78203 0.42217 0.0
C89 C 0.87141 0.77231 0.43665 0.0
C90 C 0.85758 0.78777 0.41496 0.0
C91 C 0.8652 0.80704 0.40498 0.0
C92 C 0.83235 0.77341 0.41763 0.0
C93 C 0.81539 0.77809 0.41056 0.0
C94 C 0.82305 0.79701 0.40041 0.0
C95 C 0.93534 0.78305 0.41241 0.0
C96 C 0.9559 0.78555 0.42022 0.0
C97 C 0.93704 0.78519 0.39672 0.0
C98 C 0.95851 0.79015 0.38923 0.0
C99 C 0.97891 0.79224 0.39704 0.0
C100 C 0.97697 0.78953 0.41269 0.0
C101 C 0.84816 0.81144 0.39772 0.0
H102 H 0.91167 0.74892 0.48901 0.0
H103 H 0.91989 0.76721 0.46436 0.0
H104 H 0.84233 0.73763 0.45718 0.0
H105 H 0.83467 0.72106 0.4823 0.0
H106 H 0.91787 0.76043 0.43919 0.0
H107 H 0.85629 0.77099 0.44301 0.0
H108 H 0.90021 0.79385 0.40362 0.0
H109 H 0.88438 0.81889 0.4028 0.0
H110 H 0.82552 0.75811 0.42493 0.0
H111 H 0.79615 0.76645 0.41275 0.0
H112 H 0.95606 0.78469 0.43228 0.0
H113 H 0.9218 0.78293 0.39 0.0
H114 H 0.85466 0.82632 0.39007 0.0
H115 H 0.99163 0.79027 0.41933 0.0
H116 H 0.95891 0.79249 0.37727 0.0
C117 C 0.13027 0.2373 0.52952 0.0
C118 C 0.13087 0.25897 0.52626 0.0
C119 C 0.12571 0.2281 0.54407 0.0
C120 C 0.12107 0.24001 0.55567 0.0
C121 C 0.1213 0.2614 0.55247 0.0
C122 C 0.12639 0.27088 0.53803 0.0
C123 C 0.1165 0.23055 0.57118 0.0
C124 C 0.13311 0.22536 0.57832 0.0
C125 C 0.12987 0.21806 0.59332 0.0
C126 C 0.10933 0.2154 0.60107 0.0
C127 C 0.09189 0.21966 0.594 0.0
C128 C 0.09591 0.22747 0.57904 0.0
C129 C 0.06955 0.21588 0.60218 0.0
C130 C 0.0582 0.19757 0.61285 0.0
C131 C 0.05913 0.23034 0.59932 0.0
C132 C 0.03795 0.22642 0.60668 0.0
C133 C 0.02677 0.2082 0.61732 0.0
C134 C 0.14827 0.21375 0.60102 0.0
C135 C 0.15691 0.19974 0.59422 0.0
C136 C 0.1575 0.22384 0.61518 0.0
C137 C 0.1751 0.22019 0.62232 0.0
C138 C 0.18374 0.20605 0.6156 0.0
C139 C 0.17426 0.19579 0.60145 0.0
C140 C 0.03724 0.19394 0.6204 0.0
H141 H 0.13311 0.22722 0.52084 0.0
H142 H 0.12549 0.21149 0.54621 0.0
H143 H 0.11811 0.27113 0.56124 0.0
H144 H 0.12726 0.28786 0.53624 0.0
H145 H 0.14913 0.22795 0.57236 0.0
H146 H 0.08278 0.23072 0.57329 0.0
H147 H 0.10701 0.21001 0.61265 0.0
H148 H 0.0652 0.18569 0.61522 0.0
H149 H 0.06746 0.24496 0.59149 0.0
H150 H 0.03049 0.23792 0.60421 0.0
H151 H 0.14997 0.19154 0.58338 0.0
H152 H 0.15146 0.23499 0.62062 0.0
H153 H 0.02891 0.17961 0.62844 0.0
H154 H 0.17999 0.18443 0.59598 0.0
H155 H 0.18222 0.22888 0.63301 0.0
C156 C 0.70813 0.84101 0.54057 0.0
C157 C 0.72013 0.85655 0.52868 0.0
C158 C 0.71819 0.84655 0.55495 0.0
C159 C 0.74012 0.86797 0.55771 0.0
C160 C 0.75217 0.88347 0.5458 0.0
C161 C 0.74237 0.87768 0.53136 0.0
C162 C 0.75003 0.87447 0.57307 0.0
C163 C 0.75435 0.8587 0.58151 0.0
C164 C 0.76349 0.86466 0.59621 0.0
C165 C 0.76808 0.88668 0.60233 0.0
C166 C 0.76387 0.9027 0.59402 0.0
C167 C 0.75486 0.8964 0.57934 0.0
C168 C 0.76906 0.92598 0.60072 0.0
C169 C 0.76495 0.9277 0.61599 0.0
C170 C 0.77872 0.94679 0.59201 0.0
C171 C 0.78436 0.96876 0.59845 0.0
C172 C 0.7809 0.97059 0.61382 0.0
C173 C 0.76834 0.8481 0.60522 0.0
C174 C 0.75328 0.82314 0.60382 0.0
C175 C 0.78797 0.85714 0.61544 0.0
C176 C 0.79221 0.84172 0.62416 0.0
C177 C 0.77737 0.81675 0.62262 0.0
C178 C 0.75789 0.80768 0.61228 0.0
C179 C 0.77107 0.94973 0.62249 0.0
H180 H 0.69098 0.82459 0.5387 0.0
H181 H 0.70856 0.83441 0.564 0.0
H182 H 0.76915 0.90005 0.5477 0.0
H183 H 0.75184 0.88995 0.52234 0.0
H184 H 0.7511 0.84205 0.57643 0.0
H185 H 0.75093 0.90823 0.57286 0.0
H186 H 0.77502 0.89141 0.61364 0.0
H187 H 0.75704 0.91203 0.62302 0.0
H188 H 0.78238 0.94626 0.58025 0.0
H189 H 0.79144 0.98431 0.59134 0.0
H190 H 0.73778 0.81543 0.59625 0.0
H191 H 0.80033 0.87621 0.61667 0.0
H192 H 0.76841 0.95038 0.63439 0.0
H193 H 0.74631 0.7886 0.61052 0.0
H194 H 0.80717 0.84947 0.63212 0.0
C195 C 0.11504 0.84726 0.53154 0.0
C196 C 0.13939 0.85687 0.52713 0.0
C197 C 0.10951 0.85259 0.54568 0.0
C198 C 0.12824 0.86728 0.55584 0.0
C199 C 0.15265 0.87622 0.55146 0.0
C200 C 0.15813 0.87131 0.53721 0.0
C201 C 0.12241 0.874 0.57065 0.0
C202 C 0.10125 0.85792 0.5785 0.0
C203 C 0.09476 0.86472 0.59198 0.0
C204 C 0.11037 0.88791 0.59775 0.0
C205 C 0.13217 0.90367 0.59052 0.0
C206 C 0.13783 0.89679 0.57692 0.0
C207 C 0.14954 0.92714 0.59738 0.0
C208 C 0.14184 0.94319 0.6019 0.0
C209 C 0.17402 0.93343 0.59963 0.0
C210 C 0.19045 0.95524 0.60643 0.0
C211 C 0.18283 0.97136 0.61087 0.0
C212 C 0.07187 0.84767 0.60004 0.0
C213 C 0.05117 0.83036 0.59214 0.0
C214 C 0.07036 0.84859 0.61571 0.0
C215 C 0.04878 0.83314 0.62317 0.0
C216 C 0.02815 0.81569 0.61528 0.0
C217 C 0.02985 0.81442 0.59965 0.0
C218 C 0.15842 0.96525 0.60845 0.0
H219 H 0.10029 0.83615 0.52389 0.0
H220 H 0.09052 0.84566 0.54846 0.0
H221 H 0.16763 0.88705 0.55901 0.0
H222 H 0.17707 0.87866 0.5341 0.0
H223 H 0.09008 0.83989 0.57419 0.0
H224 H 0.15413 0.90958 0.5711 0.0
H225 H 0.10585 0.8938 0.60798 0.0
H226 H 0.12306 0.93874 0.60024 0.0
H227 H 0.18035 0.92129 0.59632 0.0
H228 H 0.2092 0.95961 0.60812 0.0
H229 H 0.05119 0.82914 0.58008 0.0
H230 H 0.08589 0.86118 0.62236 0.0
H231 H 0.15212 0.97738 0.61184 0.0
H232 H 0.01474 0.80099 0.59308 0.0
H233 H 0.04834 0.83515 0.63516 0.0
C234 C 0.93974 0.49024 0.81205 0.0
C235 C 0.96027 0.48833 0.81577 0.0
C236 C 0.93029 0.48523 0.79749 0.0
C237 C 0.94095 0.47778 0.78652 0.0
C238 C 0.9616 0.47607 0.79022 0.0
C239 C 0.97129 0.48149 0.80469 0.0
C240 C 0.92995 0.47079 0.77141 0.0
C241 C 0.92478 0.48616 0.7631 0.0
C242 C 0.9142 0.47936 0.74877 0.0
C243 C 0.90803 0.45668 0.74309 0.0
C244 C 0.91296 0.44117 0.75131 0.0
C245 C 0.92428 0.44844 0.76536 0.0
C246 C 0.90595 0.41726 0.74521 0.0
C247 C 0.88191 0.40193 0.74028 0.0
C248 C 0.9233 0.40988 0.74393 0.0
C249 C 0.91681 0.38767 0.7375 0.0
C250 C 0.89278 0.37238 0.73253 0.0
C251 C 0.90961 0.49579 0.7396 0.0
C252 C 0.89914 0.50848 0.74595 0.0
C253 C 0.91518 0.49843 0.72429 0.0
C254 C 0.9101 0.51319 0.71546 0.0
C255 C 0.89926 0.52558 0.72175 0.0
C256 C 0.89397 0.52318 0.73711 0.0
C257 C 0.87533 0.37957 0.7341 0.0
H258 H 0.93099 0.49555 0.82041 0.0
H259 H 0.91426 0.48653 0.7949 0.0
H260 H 0.97016 0.47044 0.78192 0.0
H261 H 0.98704 0.47973 0.80733 0.0
H262 H 0.92961 0.50362 0.76762 0.0
H263 H 0.92791 0.43635 0.77179 0.0
H264 H 0.89935 0.45103 0.7322 0.0
H265 H 0.86823 0.40726 0.74123 0.0
H266 H 0.94196 0.4215 0.74762 0.0
H267 H 0.93052 0.38238 0.73644 0.0
H268 H 0.89452 0.50669 0.7577 0.0
H269 H 0.92353 0.48909 0.71912 0.0
H270 H 0.85672 0.36807 0.73028 0.0
H271 H 0.88591 0.53278 0.74231 0.0
H272 H 0.91429 0.51461 0.70366 0.0
C273 C 0.55332 0.49624 0.81039 0.0
C274 C 0.5407 0.47756 0.82057 0.0
C275 C 0.55892 0.49148 0.7961 0.0
C276 C 0.55225 0.46795 0.79175 0.0
C277 C 0.54031 0.44945 0.80218 0.0
C278 C 0.53445 0.45417 0.81635 0.0
C279 C 0.55713 0.46244 0.77634 0.0
C280 C 0.57872 0.47821 0.7688 0.0
C281 C 0.58338 0.47266 0.75439 0.0
C282 C 0.56634 0.45081 0.74764 0.0
C283 C 0.54449 0.43486 0.75487 0.0
C284 C 0.53999 0.44111 0.7691 0.0
C285 C 0.52631 0.41172 0.74765 0.0
C286 C 0.52236 0.40995 0.73209 0.0
C287 C 0.51258 0.39114 0.75631 0.0
C288 C 0.49516 0.36958 0.74968 0.0
C289 C 0.49128 0.36776 0.73412 0.0
C290 C 0.60586 0.4898 0.74627 0.0
C291 C 0.61362 0.51438 0.74623 0.0
C292 C 0.61934 0.48167 0.73814 0.0
C293 C 0.63998 0.49772 0.7301 0.0
C294 C 0.64761 0.52229 0.72993 0.0
C295 C 0.6342 0.53041 0.73815 0.0
C296 C 0.50526 0.38825 0.72542 0.0
H297 H 0.55822 0.51443 0.81334 0.0
H298 H 0.5679 0.50615 0.78835 0.0
H299 H 0.53543 0.43122 0.79942 0.0
H300 H 0.52506 0.43949 0.82406 0.0
H301 H 0.59221 0.49461 0.77427 0.0
H302 H 0.52277 0.42952 0.77449 0.0
H303 H 0.57009 0.44632 0.73666 0.0
H304 H 0.53227 0.4254 0.72502 0.0
H305 H 0.51532 0.39155 0.76828 0.0
H306 H 0.48458 0.35441 0.75683 0.0
H307 H 0.60344 0.52117 0.75219 0.0
H308 H 0.61406 0.4629 0.7381 0.0
H309 H 0.50316 0.38756 0.71338 0.0
H310 H 0.6393 0.54913 0.73811 0.0
H311 H 0.6501 0.49089 0.72412 0.0
C312 C 0.56175 0.08691 0.81479 0.0
C313 C 0.53767 0.07325 0.81989 0.0
C314 C 0.56655 0.09685 0.80045 0.0
C315 C 0.54736 0.09299 0.79068 0.0
C316 C 0.52322 0.07897 0.79581 0.0
C317 C 0.51847 0.06947 0.81025 0.0
C318 C 0.55246 0.10365 0.7753 0.0
C319 C 0.57279 0.10663 0.76713 0.0
C320 C 0.57847 0.11758 0.75294 0.0
C321 C 0.56225 0.12427 0.74665 0.0
C322 C 0.54111 0.12046 0.75423 0.0
C323 C 0.53694 0.11087 0.76872 0.0
C324 C 0.523 0.12585 0.74691 0.0
C325 C 0.53047 0.14505 0.7369 0.0
C326 C 0.4978 0.11125 0.74956 0.0
C327 C 0.4807 0.11567 0.74248 0.0
C328 C 0.4882 0.13455 0.73232 0.0
C329 C 0.60125 0.12205 0.74479 0.0
C330 C 0.62186 0.12482 0.75267 0.0
C331 C 0.60294 0.12397 0.72909 0.0
C332 C 0.62445 0.129 0.72166 0.0
C333 C 0.6449 0.13136 0.72952 0.0
C334 C 0.64298 0.12885 0.74519 0.0
C335 C 0.51328 0.14919 0.72961 0.0
H336 H 0.57693 0.09027 0.82202 0.0
H337 H 0.5854 0.10786 0.79715 0.0
H338 H 0.50783 0.07501 0.78863 0.0
H339 H 0.4997 0.05873 0.8138 0.0
H340 H 0.58393 0.09986 0.77177 0.0
H341 H 0.52167 0.10937 0.77501 0.0
H342 H 0.56589 0.13236 0.73575 0.0
H343 H 0.54962 0.15705 0.73473 0.0
H344 H 0.4911 0.09596 0.75687 0.0
H345 H 0.46148 0.10389 0.74466 0.0
H346 H 0.62202 0.12412 0.76474 0.0
H347 H 0.58765 0.12147 0.72233 0.0
H348 H 0.51961 0.16402 0.72194 0.0
H349 H 0.65769 0.12978 0.75188 0.0
H350 H 0.62484 0.13118 0.70968 0.0
C351 C 0.80257 0.5733 0.86269 0.0
C352 C 0.79464 0.58902 0.85781 0.0
C353 C 0.79766 0.56402 0.8772 0.0
C354 C 0.78493 0.57039 0.88742 0.0
C355 C 0.77678 0.58593 0.88248 0.0
C356 C 0.78139 0.59493 0.86791 0.0
C357 C 0.78076 0.5615 0.90322 0.0
C358 C 0.79831 0.558 0.91077 0.0
C359 C 0.7951 0.55061 0.92574 0.0
C360 C 0.77415 0.54706 0.93337 0.0
C361 C 0.756 0.54999 0.9261 0.0
C362 C 0.75949 0.55696 0.91096 0.0
C363 C 0.7335 0.54586 0.93426 0.0
C364 C 0.72287 0.52821 0.94537 0.0
C365 C 0.72237 0.55958 0.93101 0.0
C366 C 0.70124 0.5556 0.93847 0.0
C367 C 0.6908 0.53807 0.94958 0.0
C368 C 0.81377 0.54667 0.9334 0.0
C369 C 0.82245 0.53272 0.92656 0.0
C370 C 0.82312 0.55684 0.94752 0.0
C371 C 0.84094 0.55338 0.95455 0.0
C372 C 0.84964 0.5393 0.94778 0.0
C373 C 0.83996 0.52892 0.93369 0.0
C374 C 0.70195 0.52452 0.95301 0.0
H375 H 0.81307 0.56845 0.85542 0.0
H376 H 0.80392 0.55181 0.88037 0.0
H377 H 0.76721 0.59161 0.88996 0.0
H378 H 0.77452 0.60659 0.86461 0.0
H379 H 0.81497 0.56171 0.90517 0.0
H380 H 0.74535 0.55844 0.90507 0.0
H381 H 0.77204 0.54194 0.94501 0.0
H382 H 0.73046 0.51691 0.94807 0.0
H383 H 0.73014 0.57371 0.92282 0.0
H384 H 0.69328 0.56657 0.93571 0.0
H385 H 0.81538 0.52441 0.91575 0.0
H386 H 0.81699 0.56789 0.953 0.0
H387 H 0.69421 0.51072 0.96142 0.0
H388 H 0.84565 0.51755 0.92818 0.0
H389 H 0.84817 0.56215 0.96522 0.0
C390 C 0.37756 0.17969 0.87134 0.0
C391 C 0.38919 0.19473 0.85918 0.0
C392 C 0.389 0.18483 0.88534 0.0
C393 C 0.41195 0.20538 0.88745 0.0
C394 C 0.42345 0.22054 0.87532 0.0
C395 C 0.41226 0.21511 0.86124 0.0
C396 C 0.42404 0.21102 0.90225 0.0
C397 C 0.42865 0.1944 0.9094 0.0
C398 C 0.44115 0.20014 0.92313 0.0
C399 C 0.44852 0.22248 0.92984 0.0
C400 C 0.44321 0.239 0.9231 0.0
C401 C 0.43121 0.23318 0.90915 0.0
C402 C 0.44958 0.26194 0.93082 0.0
C403 C 0.44764 0.26278 0.94644 0.0
C404 C 0.45718 0.28307 0.92268 0.0
C405 C 0.46235 0.30436 0.92995 0.0
C406 C 0.46038 0.30516 0.94557 0.0
C407 C 0.44654 0.18284 0.93053 0.0
C408 C 0.428 0.15901 0.93256 0.0
C409 C 0.47018 0.19018 0.93585 0.0
C410 C 0.47521 0.17399 0.94307 0.0
C411 C 0.4566 0.15025 0.94529 0.0
C412 C 0.43295 0.14289 0.93997 0.0
C413 C 0.45317 0.28412 0.95372 0.0
H414 H 0.35977 0.16385 0.86994 0.0
H415 H 0.37983 0.17295 0.89458 0.0
H416 H 0.44121 0.23643 0.87671 0.0
H417 H 0.42147 0.22697 0.852 0.0
H418 H 0.42318 0.17729 0.90405 0.0
H419 H 0.42674 0.24552 0.90379 0.0
H420 H 0.45823 0.22684 0.94043 0.0
H421 H 0.44148 0.24684 0.9531 0.0
H422 H 0.4592 0.28324 0.91067 0.0
H423 H 0.46754 0.32009 0.92326 0.0
H424 H 0.40959 0.15297 0.92863 0.0
H425 H 0.48481 0.20844 0.93434 0.0
H426 H 0.45181 0.28409 0.96578 0.0
H427 H 0.41834 0.12462 0.94146 0.0
H428 H 0.49356 0.1801 0.94714 0.0
C429 C 0.77293 0.18949 0.86303 0.0
C430 C 0.79494 0.18978 0.8603 0.0
C431 C 0.76756 0.19426 0.87738 0.0
C432 C 0.78432 0.19986 0.88918 0.0
C433 C 0.80624 0.2 0.88645 0.0
C434 C 0.8114 0.19483 0.8722 0.0
C435 C 0.7795 0.20644 0.90419 0.0
C436 C 0.75736 0.19172 0.91154 0.0
C437 C 0.75331 0.19774 0.92598 0.0
C438 C 0.77116 0.21915 0.93273 0.0
C439 C 0.79311 0.2342 0.92541 0.0
C440 C 0.79733 0.22755 0.91126 0.0
C441 C 0.81151 0.25706 0.93244 0.0
C442 C 0.80483 0.27368 0.93738 0.0
C443 C 0.83585 0.26253 0.93408 0.0
C444 C 0.85319 0.28421 0.94067 0.0
C445 C 0.84657 0.30096 0.94542 0.0
C446 C 0.73091 0.18134 0.93431 0.0
C447 C 0.70771 0.17257 0.92785 0.0
C448 C 0.73272 0.17438 0.94887 0.0
C449 C 0.71177 0.15872 0.95678 0.0
C450 C 0.68841 0.14991 0.95041 0.0
C451 C 0.68669 0.15723 0.93586 0.0
C452 C 0.82227 0.29555 0.94368 0.0
H453 H 0.75989 0.18556 0.85406 0.0
H454 H 0.75059 0.19416 0.87918 0.0
H455 H 0.81941 0.20416 0.89537 0.0
H456 H 0.82857 0.19533 0.87039 0.0
H457 H 0.74372 0.17517 0.90628 0.0
H458 H 0.81427 0.23919 0.90556 0.0
H459 H 0.76801 0.22407 0.94377 0.0
H460 H 0.7862 0.2699 0.93615 0.0
H461 H 0.84138 0.24994 0.93038 0.0
H462 H 0.87186 0.28806 0.94186 0.0
H463 H 0.70584 0.17787 0.91668 0.0
H464 H 0.75043 0.18069 0.95405 0.0
H465 H 0.81675 0.30817 0.94733 0.0
H466 H 0.66909 0.15124 0.93064 0.0
H467 H 0.71401 0.15316 0.96777 0.0
C468 C 0.60349 0.81649 0.15077 0.0
C469 C 0.61793 0.80668 0.1553 0.0
C470 C 0.59223 0.81104 0.13671 0.0
C471 C 0.59546 0.796 0.12668 0.0
C472 C 0.61004 0.78633 0.13118 0.0
C473 C 0.6209 0.79139 0.14534 0.0
C474 C 0.58382 0.79048 0.11156 0.0
C475 C 0.58128 0.80786 0.10363 0.0
C476 C 0.5702 0.80275 0.08942 0.0
C477 C 0.56255 0.78023 0.08287 0.0
C478 C 0.56519 0.76265 0.09048 0.0
C479 C 0.57534 0.76781 0.10495 0.0
C480 C 0.55778 0.73912 0.08321 0.0
C481 C 0.5374 0.72817 0.07353 0.0
C482 C 0.57151 0.72769 0.08559 0.0
C483 C 0.56507 0.70599 0.07845 0.0
C484 C 0.54512 0.69554 0.0686 0.0
C485 C 0.56601 0.82068 0.08158 0.0
C486 C 0.55863 0.83474 0.08962 0.0
C487 C 0.56843 0.82326 0.06599 0.0
C488 C 0.56296 0.83903 0.05858 0.0
C489 C 0.55521 0.85281 0.06661 0.0
C490 C 0.55344 0.85069 0.08225 0.0
C491 C 0.53131 0.70671 0.06616 0.0
H492 H 0.60102 0.82861 0.15801 0.0
H493 H 0.58085 0.81856 0.13378 0.0
H494 H 0.61333 0.77498 0.12373 0.0
H495 H 0.63151 0.78314 0.14847 0.0
H496 H 0.58832 0.82561 0.10839 0.0
H497 H 0.57629 0.75397 0.11118 0.0
H498 H 0.55445 0.77636 0.07181 0.0
H499 H 0.52607 0.73609 0.07165 0.0
H500 H 0.58757 0.73572 0.0927 0.0
H501 H 0.576 0.69761 0.08036 0.0
H502 H 0.55631 0.83306 0.10162 0.0
H503 H 0.57445 0.81303 0.05945 0.0
H504 H 0.51573 0.69874 0.05864 0.0
H505 H 0.54798 0.86134 0.08883 0.0
H506 H 0.56435 0.84003 0.04653 0.0
C507 C 0.21379 0.82163 0.14193 0.0
C508 C 0.21031 0.80622 0.15396 0.0
C509 C 0.21953 0.81693 0.12768 0.0
C510 C 0.22139 0.79646 0.12503 0.0
C511 C 0.21805 0.78107 0.13692 0.0
C512 C 0.21288 0.78604 0.15125 0.0
C513 C 0.22588 0.79066 0.10975 0.0
C514 C 0.24697 0.80672 0.10198 0.0
C515 C 0.25123 0.80131 0.08741 0.0
C516 C 0.23381 0.7795 0.08073 0.0
C517 C 0.21243 0.76325 0.08831 0.0
C518 C 0.20877 0.76906 0.10288 0.0
C519 C 0.19384 0.74044 0.08094 0.0
C520 C 0.18928 0.73944 0.06547 0.0
C521 C 0.18039 0.71945 0.0893 0.0
C522 C 0.16278 0.69819 0.08243 0.0
C523 C 0.15841 0.69713 0.06694 0.0
C524 C 0.27366 0.81841 0.0791 0.0
C525 C 0.28357 0.84332 0.08071 0.0
C526 C 0.28519 0.81003 0.06929 0.0
C527 C 0.30576 0.82605 0.06119 0.0
C528 C 0.3156 0.85084 0.06292 0.0
C529 C 0.3044 0.85932 0.07281 0.0
C530 C 0.17204 0.71807 0.05856 0.0
H531 H 0.21152 0.83706 0.14338 0.0
H532 H 0.22181 0.82892 0.11862 0.0
H533 H 0.21957 0.76525 0.13512 0.0
H534 H 0.21096 0.77401 0.16019 0.0
H535 H 0.26026 0.82318 0.10748 0.0
H536 H 0.19221 0.75715 0.10882 0.0
H537 H 0.23685 0.7752 0.06953 0.0
H538 H 0.19885 0.75523 0.05864 0.0
H539 H 0.18354 0.71929 0.10118 0.0
H540 H 0.15246 0.68264 0.08936 0.0
H541 H 0.27504 0.85055 0.08788 0.0
H542 H 0.27852 0.79105 0.06796 0.0
H543 H 0.1696 0.71801 0.04658 0.0
H544 H 0.31152 0.87838 0.07423 0.0
H545 H 0.31424 0.81908 0.05375 0.0
C546 C 0.22967 0.42513 0.14801 0.0
C547 C 0.20565 0.41072 0.15303 0.0
C548 C 0.23425 0.43451 0.13352 0.0
C549 C 0.21489 0.4293 0.12352 0.0
C550 C 0.19082 0.41474 0.12865 0.0
C551 C 0.18629 0.40582 0.14323 0.0
C552 C 0.21964 0.4385 0.10777 0.0
C553 C 0.24042 0.44177 0.09998 0.0
C554 C 0.24448 0.44948 0.08506 0.0
C555 C 0.22716 0.45347 0.0777 0.0
C556 C 0.20637 0.45073 0.08521 0.0
C557 C 0.20311 0.44361 0.1003 0.0
C558 C 0.18797 0.45515 0.07736 0.0
C559 C 0.19516 0.47304 0.06642 0.0
C560 C 0.16294 0.44143 0.08073 0.0
C561 C 0.14574 0.44562 0.07354 0.0
C562 C 0.15297 0.46338 0.06259 0.0
C563 C 0.26693 0.4534 0.07718 0.0
C564 C 0.29001 0.46718 0.0839 0.0
C565 C 0.26551 0.44351 0.06292 0.0
C566 C 0.28665 0.44705 0.05565 0.0
C567 C 0.30989 0.46095 0.06232 0.0
C568 C 0.31118 0.47108 0.07654 0.0
C569 C 0.17787 0.47696 0.05906 0.0
H570 H 0.24495 0.42933 0.15537 0.0
H571 H 0.25302 0.446 0.13025 0.0
H572 H 0.17533 0.40971 0.12133 0.0
H573 H 0.16758 0.39451 0.14674 0.0
H574 H 0.25326 0.43768 0.10534 0.0
H575 H 0.1878 0.44245 0.10636 0.0
H576 H 0.23003 0.4588 0.0661 0.0
H577 H 0.21421 0.48432 0.06364 0.0
H578 H 0.15645 0.42713 0.08879 0.0
H579 H 0.12665 0.43461 0.07636 0.0
H580 H 0.29172 0.4753 0.09481 0.0
H581 H 0.24796 0.43262 0.05751 0.0
H582 H 0.18404 0.49092 0.05076 0.0
H583 H 0.32861 0.48233 0.08199 0.0
H584 H 0.28465 0.43849 0.04489 0.0
C585 C 0.4673 0.90301 0.19714 0.0
C586 C 0.46726 0.92437 0.19387 0.0
C587 C 0.46285 0.89376 0.21168 0.0
C588 C 0.45772 0.90531 0.22329 0.0
C589 C 0.45745 0.92645 0.22008 0.0
C590 C 0.4624 0.93598 0.20566 0.0
C591 C 0.45286 0.89559 0.23876 0.0
C592 C 0.46931 0.89027 0.24602 0.0
C593 C 0.46569 0.88266 0.26098 0.0
C594 C 0.44492 0.87985 0.26854 0.0
C595 C 0.42767 0.88427 0.26135 0.0
C596 C 0.43207 0.89234 0.24645 0.0
C597 C 0.4051 0.8804 0.26933 0.0
C598 C 0.3934 0.86192 0.27984 0.0
C599 C 0.3948 0.89495 0.26638 0.0
C600 C 0.3734 0.89093 0.27351 0.0
C601 C 0.36186 0.87253 0.284 0.0
C602 C 0.48388 0.87814 0.26881 0.0
C603 C 0.49292 0.86451 0.26196 0.0
C604 C 0.49249 0.88761 0.28318 0.0
C605 C 0.50986 0.88374 0.29046 0.0
C606 C 0.51891 0.86998 0.28368 0.0
C607 C 0.51004 0.86033 0.26932 0.0
C608 C 0.37222 0.85818 0.28716 0.0
H609 H 0.47048 0.89317 0.18845 0.0
H610 H 0.46302 0.87733 0.2138 0.0
H611 H 0.45387 0.93593 0.22885 0.0
H612 H 0.46279 0.95275 0.20387 0.0
H613 H 0.48547 0.89298 0.24019 0.0
H614 H 0.41906 0.89566 0.24061 0.0
H615 H 0.44226 0.8742 0.28008 0.0
H616 H 0.40031 0.84997 0.28228 0.0
H617 H 0.40339 0.90971 0.25866 0.0
H618 H 0.36607 0.90252 0.27099 0.0
H619 H 0.48647 0.85674 0.25096 0.0
H620 H 0.48615 0.89847 0.2887 0.0
H621 H 0.36363 0.84371 0.29509 0.0
H622 H 0.51608 0.84928 0.26377 0.0
H623 H 0.51649 0.89197 0.30133 0.0
C624 C 0.05079 0.50836 0.20062 0.0
C625 C 0.05723 0.52661 0.19008 0.0
C626 C 0.06118 0.51366 0.21493 0.0
C627 C 0.0785 0.5373 0.21901 0.0
C628 C 0.08527 0.55547 0.20837 0.0
C629 C 0.07466 0.55023 0.19414 0.0
C630 C 0.08924 0.54306 0.23434 0.0
C631 C 0.09454 0.52714 0.24194 0.0
C632 C 0.10467 0.53257 0.2564 0.0
C633 C 0.10938 0.554 0.26335 0.0
C634 C 0.10422 0.56998 0.25594 0.0
C635 C 0.09423 0.56456 0.24149 0.0
C636 C 0.10943 0.5925 0.26331 0.0
C637 C 0.09524 0.59221 0.27536 0.0
C638 C 0.12889 0.61429 0.25847 0.0
C639 C 0.13435 0.63563 0.26574 0.0
C640 C 0.12011 0.63559 0.27782 0.0
C641 C 0.11062 0.516 0.2642 0.0
C642 C 0.09302 0.49167 0.26552 0.0
C643 C 0.13392 0.52451 0.27049 0.0
C644 C 0.13959 0.5089 0.27788 0.0
C645 C 0.12193 0.48463 0.27933 0.0
C646 C 0.09857 0.47614 0.27314 0.0
C647 C 0.10037 0.61359 0.28247 0.0
H648 H 0.03771 0.48991 0.19784 0.0
H649 H 0.05528 0.49922 0.22286 0.0
H650 H 0.09885 0.57383 0.211 0.0
H651 H 0.07985 0.56482 0.18642 0.0
H652 H 0.09144 0.51079 0.23649 0.0
H653 H 0.08991 0.57693 0.23602 0.0
H654 H 0.11708 0.55828 0.27455 0.0
H655 H 0.08007 0.57547 0.27918 0.0
H656 H 0.14012 0.61473 0.24923 0.0
H657 H 0.14997 0.65209 0.26202 0.0
H658 H 0.0749 0.48476 0.26082 0.0
H659 H 0.14781 0.54319 0.26953 0.0
H660 H 0.08869 0.61283 0.29151 0.0
H661 H 0.08472 0.45744 0.27406 0.0
H662 H 0.1577 0.51583 0.28262 0.0
C663 C 0.4418 0.5245 0.19695 0.0
C664 C 0.46369 0.52463 0.19406 0.0
C665 C 0.43667 0.5293 0.21136 0.0
C666 C 0.45356 0.53478 0.22308 0.0
C667 C 0.47537 0.53479 0.22018 0.0
C668 C 0.4803 0.5296 0.20586 0.0
C669 C 0.44897 0.5413 0.23818 0.0
C670 C 0.42678 0.52677 0.24553 0.0
C671 C 0.4229 0.5327 0.26003 0.0
C672 C 0.44105 0.55387 0.26689 0.0
C673 C 0.46309 0.56876 0.25957 0.0
C674 C 0.46706 0.56217 0.24534 0.0
C675 C 0.48186 0.59141 0.26667 0.0
C676 C 0.47567 0.60828 0.27184 0.0
C677 C 0.50612 0.59652 0.26804 0.0
C678 C 0.52387 0.61808 0.27457 0.0
C679 C 0.51775 0.6351 0.27952 0.0
C680 C 0.40033 0.51641 0.2683 0.0
C681 C 0.37723 0.50792 0.26176 0.0
C682 C 0.40187 0.50912 0.28282 0.0
C683 C 0.38076 0.49335 0.29057 0.0
C684 C 0.35749 0.48476 0.2841 0.0
C685 C 0.35605 0.49247 0.26961 0.0
C686 C 0.49351 0.63004 0.27808 0.0
H687 H 0.42864 0.52063 0.18806 0.0
H688 H 0.41978 0.5293 0.21328 0.0
H689 H 0.48865 0.53883 0.22902 0.0
H690 H 0.49739 0.53 0.20393 0.0
H691 H 0.41293 0.5104 0.24019 0.0
H692 H 0.48404 0.57368 0.23964 0.0
H693 H 0.43806 0.55873 0.27798 0.0
H694 H 0.45711 0.6048 0.27082 0.0
H695 H 0.5113 0.58375 0.26417 0.0
H696 H 0.54246 0.62163 0.27553 0.0
H697 H 0.37554 0.51346 0.25063 0.0
H698 H 0.41949 0.5152 0.28806 0.0
H699 H 0.48835 0.64285 0.2819 0.0
H700 H 0.33855 0.4867 0.26432 0.0
H701 H 0.3828 0.48751 0.30152 0.0
Tb702 Tb 0.49347 0.98311 0.98904 0.0
C703 C 0.53871 0.07172 0.03003 0.0
C704 C 0.58193 0.08566 0.02919 0.0
C705 C 0.5679 0.11419 0.03283 0.0
C706 C 0.55746 0.06698 0.02831 0.0
C707 C 0.54362 0.09528 0.0327 0.0
C708 C 0.58705 0.10938 0.03106 0.0
C709 C 0.50037 0.07931 0.03613 0.0
N710 N 0.51559 0.05293 0.02983 0.0
C711 C 0.49647 0.05626 0.03342 0.0
C712 C 0.52401 0.09896 0.03556 0.0
Tb713 Tb 0.51086 0.01602 0.02446 0.0
N714 N 0.55164 0.04382 0.02664 0.0
C715 C 0.56963 0.03794 0.02703 0.0
C716 C 0.60042 0.07983 0.02867 0.0
C717 C 0.59422 0.05583 0.02782 0.0
H718 H 0.47811 0.04125 0.03378 0.0
H719 H 0.60837 0.05107 0.02771 0.0
H720 H 0.60574 0.12403 0.03157 0.0
H721 H 0.48512 0.08191 0.0386 0.0
H722 H 0.56528 0.01954 0.02627 0.0
H723 H 0.3961 0.94866 0.98539 0.0
H724 H 0.61946 0.09363 0.02935 0.0
H725 H 0.52595 0.95753 0.97994 0.0
H726 H 0.43927 0.98 0.9869 0.0
H727 H 0.51869 0.91673 0.97527 0.0
H728 H 0.57208 0.13248 0.03468 0.0
H729 H 0.38472 0.906 0.98399 0.0
H730 H 0.39817 0.87536 0.98205 0.0
H731 H 0.52698 0.11678 0.03766 0.0
H732 H 0.43166 0.86661 0.97915 0.0
N733 N 0.45265 0.9555 0.9868 0.0
C734 C 0.43478 0.96154 0.98624 0.0
C735 C 0.40379 0.91971 0.9847 0.0
C736 C 0.42217 0.91371 0.98433 0.0
C737 C 0.41015 0.94377 0.98541 0.0
C738 C 0.44669 0.93229 0.98525 0.0
H739 H 0.47673 0.88202 0.97626 0.0
N740 N 0.48851 0.94606 0.98386 0.0
C741 C 0.50351 0.91946 0.97769 0.0
C742 C 0.46534 0.92737 0.98367 0.0
C743 C 0.50755 0.94258 0.98032 0.0
C744 C 0.47981 0.8999 0.9783 0.0
C745 C 0.46029 0.90375 0.98109 0.0
O746 O 0.51388 0.99187 0.96921 0.0
O747 O 0.52037 0.01336 1.00174 0.0
O748 O 0.50645 0.03867 0.00821 0.0
O749 O 0.4815 0.00988 0.99048 0.0
O750 O 0.53296 0.99748 0.98748 0.0
O751 O 0.47966 0.9912 0.96982 0.0
O752 O 0.4904 0.00671 0.04428 0.0
O753 O 0.48393 0.98584 0.01173 0.0
O754 O 0.49787 0.96052 0.00536 0.0
O755 O 0.52312 0.98952 0.02286 0.0
O756 O 0.47139 0.00177 0.02598 0.0
O757 O 0.52489 0.00795 0.0436 0.0
C758 C 0.53971 0.01506 0.99671 0.0
C759 C 0.49182 0.98296 0.94655 0.0
C760 C 0.49339 0.98669 0.9192 0.0
C761 C 0.49787 0.99722 0.93364 0.0
C762 C 0.48286 0.96161 0.9181 0.0
C763 C 0.48092 0.95807 0.94503 0.0
C764 C 0.47653 0.94751 0.93089 0.0
C765 C 0.49155 0.03171 0.99647 0.0
C766 C 0.49784 0.99433 0.9615 0.0
C767 C 0.43595 0.88495 0.98094 0.0
C768 C 0.4169 0.88992 0.98258 0.0
C769 C 0.46461 0.98425 0.0167 0.0
C770 C 0.51235 0.01542 0.06699 0.0
C771 C 0.50677 0.00093 0.07978 0.0
C772 C 0.51093 0.0111 0.09431 0.0
C773 C 0.52067 0.03607 0.09562 0.0
C774 C 0.5225 0.04019 0.06872 0.0
C775 C 0.52657 0.05041 0.08296 0.0
C776 C 0.51306 0.96765 0.01695 0.0
C777 C 0.50658 0.00437 0.05194 0.0
H778 H 0.50593 0.01643 0.9349 0.0
H779 H 0.47978 0.95277 0.90734 0.0
H780 H 0.47605 0.94681 0.95476 0.0
H781 H 0.46841 0.92828 0.92982 0.0
H782 H 0.4993 0.98182 0.07834 0.0
H783 H 0.52344 0.04465 0.10645 0.0
H784 H 0.527 0.05162 0.05909 0.0
H785 H 0.53409 0.06954 0.0842 0.0
Tb786 Tb 0.02054 0.50805 0.98775 0.0
C787 C 0.9259 0.46763 0.02351 0.0
C788 C 0.91413 0.4979 0.0225 0.0
C789 C 0.88308 0.45606 0.02518 0.0
C790 C 0.93218 0.49122 0.02183 0.0
C791 C 0.90135 0.44977 0.0255 0.0
C792 C 0.88948 0.48014 0.02375 0.0
C793 C 0.91511 0.42143 0.02964 0.0
N794 N 0.94416 0.46246 0.02417 0.0
C795 C 0.93921 0.43986 0.02776 0.0
C796 C 0.89605 0.42634 0.02833 0.0
Tb797 Tb 0.98304 0.49366 0.02075 0.0
N798 N 0.95621 0.50781 0.02089 0.0
C799 C 0.9635 0.53168 0.02144 0.0
C800 C 0.92151 0.52226 0.02261 0.0
C801 C 0.9463 0.53922 0.02211 0.0
H802 H 0.95379 0.43585 0.02874 0.0
H803 H 0.9522 0.55813 0.02237 0.0
H804 H 0.87532 0.4849 0.02407 0.0
H805 H 0.91125 0.40347 0.0321 0.0
H806 H 0.98254 0.54514 0.02116 0.0
H807 H 0.05129 0.44346 0.98681 0.0
H808 H 0.90829 0.52817 0.02358 0.0
H809 H 0.04996 0.56578 0.97957 0.0
H810 H 0.02097 0.4565 0.9875 0.0
H811 H 0.09257 0.5981 0.97632 0.0
H812 H 0.86407 0.44259 0.02655 0.0
H813 H 0.09525 0.47338 0.98596 0.0
H814 H 0.12827 0.51664 0.98533 0.0
H815 H 0.87741 0.41208 0.02988 0.0
H816 H 0.13959 0.55893 0.98258 0.0
N817 N 0.04733 0.49382 0.98779 0.0
C818 C 0.04002 0.46995 0.98734 0.0
C819 C 0.08203 0.47931 0.98665 0.0
C820 C 0.08942 0.50367 0.98658 0.0
C821 C 0.05721 0.46237 0.98696 0.0
C822 C 0.07138 0.51038 0.98697 0.0
H823 H 0.12634 0.58945 0.97887 0.0
N824 N 0.05948 0.53915 0.98434 0.0
C825 C 0.08865 0.58014 0.97885 0.0
C826 C 0.07771 0.53396 0.98516 0.0
C827 C 0.06451 0.56175 0.98066 0.0
C828 C 0.10767 0.57521 0.98035 0.0
C829 C 0.1023 0.55179 0.98328 0.0
O830 O 0.01841 0.52108 0.96659 0.0
O831 O 0.98856 0.5055 0.99797 0.0
O832 O 0.96114 0.46745 1.00356 0.0
O833 O 0.99201 0.46979 0.98827 0.0
O834 O 0.00718 0.53326 0.98397 0.0
O835 O 0.01141 0.48499 0.96921 0.0
O836 O 0.98532 0.48062 0.04187 0.0
O837 O 0.01501 0.49624 0.01053 0.0
O838 O 0.04243 0.53433 0.00493 0.0
O839 O 0.01158 0.53192 0.02027 0.0
O840 O 0.99649 0.46852 0.02454 0.0
O841 O 0.99213 0.51666 0.03932 0.0
C842 C 0.98815 0.52305 0.99221 0.0
C843 C 0.02796 0.50376 0.9463 0.0
C844 C 0.03032 0.50394 0.91911 0.0
C845 C 0.01775 0.50305 0.93223 0.0
C846 C 0.05342 0.50593 0.92023 0.0
C847 C 0.05108 0.50585 0.9472 0.0
C848 C 0.06377 0.50703 0.93421 0.0
C849 C 0.96902 0.45874 0.99288 0.0
C850 C 0.01378 0.50132 0.9598 0.0
C851 C 0.12055 0.54547 0.98386 0.0
C852 C 0.11411 0.52141 0.98544 0.0
C853 C 0.01554 0.47878 0.01632 0.0
C854 C 0.97598 0.49788 0.06227 0.0
C855 C 0.987 0.5 0.07624 0.0
C856 C 0.97461 0.49902 0.08945 0.0
C857 C 0.95089 0.49556 0.08854 0.0
C858 C 0.95225 0.49432 0.06155 0.0
C859 C 0.93975 0.49309 0.07463 0.0
C860 C 0.0346 0.54292 0.0157 0.0
C861 C 0.98996 0.50036 0.04868 0.0
H862 H 0.99975 0.50115 0.9315 0.0
H863 H 0.06349 0.50676 0.91027 0.0
H864 H 0.05922 0.50628 0.95787 0.0
H865 H 0.08158 0.50859 0.935 0.0
H866 H 0.00547 0.50305 0.07681 0.0
H867 H 0.94095 0.49465 0.09857 0.0
H868 H 0.94348 0.49277 0.05094 0.0
H869 H 0.92147 0.4904 0.07399 0.0
Tb870 Tb 0.51267 0.49426 0.02405 0.0
C871 C 0.45903 0.53222 0.98643 0.0
C872 C 0.41659 0.50132 0.98703 0.0
C873 C 0.42743 0.54303 0.98479 0.0
C874 C 0.44158 0.50846 0.98775 0.0
C875 C 0.45227 0.54982 0.9847 0.0
C876 C 0.4096 0.51878 0.98589 0.0
C877 C 0.49492 0.57906 0.9816 0.0
N878 N 0.48274 0.53792 0.98619 0.0
C879 C 0.50066 0.56087 0.98319 0.0
C880 C 0.47063 0.57357 0.98254 0.0
Tb881 Tb 0.49054 0.50723 0.98995 0.0
N882 N 0.44914 0.49221 0.9888 0.0
C883 C 0.43244 0.46824 0.98821 0.0
C884 C 0.39947 0.47685 0.98696 0.0
C885 C 0.40744 0.46025 0.98745 0.0
H886 H 0.5195 0.56531 0.98258 0.0
H887 H 0.39434 0.44126 0.98722 0.0
H888 H 0.39049 0.51367 0.9855 0.0
H889 H 0.50922 0.5973 0.97967 0.0
H890 H 0.43812 0.45505 0.98859 0.0
H891 H 0.60938 0.55884 0.0251 0.0
H892 H 0.38012 0.4706 0.98611 0.0
H893 H 0.48307 0.43692 0.03331 0.0
H894 H 0.56575 0.54581 0.02425 0.0
H895 H 0.49261 0.40476 0.03765 0.0
H896 H 0.42182 0.55629 0.9836 0.0
H897 H 0.62281 0.52894 0.02682 0.0
H898 H 0.61158 0.48573 0.02885 0.0
H899 H 0.46621 0.58766 0.98122 0.0
H900 H 0.5797 0.44363 0.0323 0.0
N901 N 0.55399 0.50851 0.0249 0.0
C902 C 0.57107 0.53238 0.02493 0.0
C903 C 0.60351 0.52302 0.02624 0.0
C904 C 0.58602 0.4987 0.02691 0.0
C905 C 0.59599 0.53994 0.02539 0.0
C906 C 0.56114 0.49202 0.0264 0.0
H907 H 0.53524 0.4133 0.03591 0.0
N908 N 0.51988 0.46344 0.02885 0.0
C909 C 0.50709 0.42263 0.03504 0.0
C910 C 0.54341 0.46858 0.02848 0.0
C911 C 0.50176 0.44096 0.03261 0.0
C912 C 0.53116 0.4275 0.034 0.0
C913 C 0.54975 0.45081 0.03092 0.0
O914 O 0.49609 0.48245 0.04505 0.0
O915 O 0.48334 0.49574 0.01275 0.0
O916 O 0.49381 0.53293 0.00696 0.0
O917 O 0.52331 0.53243 0.02233 0.0
O918 O 0.47357 0.46868 0.02732 0.0
O919 O 0.52613 0.5183 0.04222 0.0
O920 O 0.50723 0.52065 0.96918 0.0
O921 O 0.51972 0.50532 1.00111 0.0
O922 O 0.50843 0.46742 0.00753 0.0
O923 O 0.48066 0.46924 0.9911 0.0
O924 O 0.52965 0.53279 0.9868 0.0
O925 O 0.47762 0.48433 0.97123 0.0
C926 C 0.46496 0.47821 0.01843 0.0
C927 C 0.52159 0.50108 0.06599 0.0
C928 C 0.52214 0.50355 0.09325 0.0
C929 C 0.51161 0.50369 0.0794 0.0
C930 C 0.5426 0.50045 0.0935 0.0
C931 C 0.54191 0.49785 0.06648 0.0
C932 C 0.5523 0.49749 0.08019 0.0
C933 C 0.51088 0.54262 0.01743 0.0
C934 C 0.51107 0.50262 0.05166 0.0
C935 C 0.57443 0.45705 0.03061 0.0
C936 C 0.59256 0.481 0.02863 0.0
C937 C 0.53814 0.52279 0.99541 0.0
C938 C 0.48217 0.50301 0.94795 0.0
C939 C 0.49272 0.50172 0.93445 0.0
C940 C 0.48262 0.50282 0.92061 0.0
C941 C 0.46184 0.50549 0.92062 0.0
C942 C 0.46161 0.50582 0.94767 0.0
C943 C 0.45156 0.5071 0.93406 0.0
C944 C 0.49234 0.45851 0.99643 0.0
C945 C 0.4926 0.50079 0.96214 0.0
H946 H 0.49602 0.50639 0.07903 0.0
H947 H 0.55096 0.50011 0.10401 0.0
H948 H 0.54986 0.49584 0.0563 0.0
H949 H 0.56801 0.49504 0.0805 0.0
H950 H 0.50884 0.49991 0.93478 0.0
H951 H 0.45321 0.50591 0.91025 0.0
H952 H 0.45322 0.50681 0.95793 0.0
H953 H 0.43555 0.50908 0.93391 0.0
Tb954 Tb 0.16077 0.31826 0.32163 0.0
C955 C 0.207 0.40647 0.36289 0.0
C956 C 0.25008 0.41976 0.36208 0.0
C957 C 0.2367 0.44875 0.36593 0.0
C958 C 0.22549 0.40136 0.36111 0.0
C959 C 0.21229 0.4301 0.36573 0.0
C960 C 0.25559 0.44358 0.36408 0.0
C961 C 0.16915 0.41468 0.36927 0.0
N962 N 0.18375 0.38791 0.36265 0.0
C963 C 0.16487 0.39154 0.36638 0.0
C964 C 0.19293 0.43411 0.36873 0.0
Tb965 Tb 0.17839 0.35081 0.35713 0.0
N966 N 0.21931 0.37812 0.35933 0.0
C967 C 0.23701 0.37185 0.35969 0.0
C968 C 0.26829 0.41354 0.36152 0.0
C969 C 0.2617 0.38944 0.36056 0.0
H970 H 0.1464 0.3767 0.36673 0.0
H971 H 0.27563 0.38438 0.36043 0.0
H972 H 0.27438 0.45802 0.36466 0.0
H973 H 0.15409 0.41753 0.37186 0.0
H974 H 0.23234 0.35336 0.35886 0.0
H975 H 0.06359 0.2849 0.31807 0.0
H976 H 0.2874 0.42711 0.36229 0.0
H977 H 0.19272 0.2921 0.31252 0.0
H978 H 0.10689 0.31588 0.31959 0.0
H979 H 0.18494 0.25115 0.30774 0.0
H980 H 0.24118 0.4671 0.36791 0.0
H981 H 0.0517 0.24212 0.3165 0.0
H982 H 0.06464 0.21112 0.31436 0.0
H983 H 0.1962 0.45201 0.37097 0.0
H984 H 0.09777 0.20188 0.31138 0.0
N985 N 0.11985 0.29105 0.31931 0.0
C986 C 0.10219 0.29736 0.31885 0.0
C987 C 0.07083 0.25567 0.3172 0.0
C988 C 0.08901 0.2494 0.31673 0.0
C989 C 0.07748 0.2798 0.31801 0.0
C990 C 0.11361 0.26777 0.31766 0.0
H991 H 0.14276 0.21679 0.30857 0.0
N992 N 0.15535 0.28107 0.31631 0.0
C993 C 0.16989 0.2541 0.31014 0.0
C994 C 0.13206 0.26257 0.31604 0.0
C995 C 0.17422 0.27731 0.31282 0.0
C996 C 0.14606 0.23474 0.31064 0.0
C997 C 0.12672 0.23888 0.3134 0.0
O998 O 0.18126 0.32705 0.30183 0.0
O999 O 0.18792 0.34828 0.33439 0.0
O1000 O 0.17431 0.37384 0.34101 0.0
O1001 O 0.14923 0.34532 0.32319 0.0
O1002 O 0.20019 0.33209 0.32015 0.0
O1003 O 0.14717 0.32669 0.30244 0.0
O1004 O 0.15793 0.3417 0.37694 0.0
O1005 O 0.15123 0.32094 0.34431 0.0
O1006 O 0.16442 0.29519 0.33788 0.0
O1007 O 0.18995 0.32375 0.3555 0.0
O1008 O 0.13898 0.33697 0.35867 0.0
O1009 O 0.19219 0.34244 0.37624 0.0
C1010 C 0.20716 0.34969 0.32939 0.0
C1011 C 0.15938 0.31862 0.27913 0.0
C1012 C 0.16112 0.32283 0.25181 0.0
C1013 C 0.16544 0.33309 0.26631 0.0
C1014 C 0.15069 0.29777 0.25054 0.0
C1015 C 0.14858 0.29376 0.27745 0.0
C1016 C 0.14432 0.28345 0.26323 0.0
C1017 C 0.15944 0.36709 0.32926 0.0
C1018 C 0.16536 0.32977 0.29413 0.0
C1019 C 0.10229 0.22027 0.31321 0.0
C1020 C 0.08343 0.22553 0.3149 0.0
C1021 C 0.13198 0.3195 0.34933 0.0
C1022 C 0.17991 0.35025 0.39961 0.0
C1023 C 0.17374 0.33576 0.41241 0.0
C1024 C 0.17801 0.34601 0.42692 0.0
C1025 C 0.1885 0.37108 0.4282 0.0
C1026 C 0.1908 0.37512 0.4013 0.0
C1027 C 0.195 0.38542 0.41551 0.0
C1028 C 0.17939 0.30187 0.34956 0.0
C1029 C 0.17397 0.33914 0.38459 0.0
H1030 H 0.17341 0.35227 0.26771 0.0
H1031 H 0.14774 0.28911 0.23973 0.0
H1032 H 0.14371 0.28235 0.2871 0.0
H1033 H 0.13627 0.26425 0.26204 0.0
H1034 H 0.16571 0.31658 0.41101 0.0
H1035 H 0.19141 0.37973 0.43901 0.0
H1036 H 0.19578 0.38656 0.39166 0.0
H1037 H 0.20311 0.40463 0.41672 0.0
Tb1038 Tb 0.69053 0.84193 0.3252 0.0
C1039 C 0.59474 0.79653 0.35962 0.0
C1040 C 0.58175 0.82594 0.35912 0.0
C1041 C 0.55153 0.78362 0.36058 0.0
C1042 C 0.60039 0.82004 0.35865 0.0
C1043 C 0.57032 0.77804 0.361 0.0
C1044 C 0.55725 0.80757 0.35967 0.0
C1045 C 0.58511 0.75043 0.36479 0.0
N1046 N 0.61346 0.79201 0.36031 0.0
C1047 C 0.60906 0.76945 0.36348 0.0
C1048 C 0.56562 0.75468 0.36334 0.0
Tb1049 Tb 0.65203 0.82421 0.35784 0.0
N1050 N 0.62428 0.83722 0.3583 0.0
C1051 C 0.6308 0.86087 0.35931 0.0
C1052 C 0.58836 0.85011 0.35962 0.0
C1053 C 0.61299 0.86764 0.35979 0.0
H1054 H 0.62398 0.76595 0.36458 0.0
H1055 H 0.6183 0.8864 0.36036 0.0
H1056 H 0.54265 0.81173 0.35984 0.0
H1057 H 0.58171 0.73252 0.36691 0.0
H1058 H 0.64972 0.87473 0.35948 0.0
H1059 H 0.72427 0.77972 0.32298 0.0
H1060 H 0.57463 0.8554 0.36033 0.0
H1061 H 0.71863 0.90014 0.31832 0.0
H1062 H 0.69285 0.7914 0.3236 0.0
H1063 H 0.76091 0.93355 0.31599 0.0
H1064 H 0.53261 0.76966 0.36146 0.0
H1065 H 0.76795 0.8107 0.32321 0.0
H1066 H 0.79993 0.85438 0.32358 0.0
H1067 H 0.5471 0.73995 0.36444 0.0
H1068 H 0.80998 0.89644 0.32181 0.0
N1069 N 0.71829 0.82891 0.32481 0.0
C1070 C 0.71177 0.80525 0.32384 0.0
C1071 C 0.75422 0.816 0.32377 0.0
C1072 C 0.76082 0.84017 0.32417 0.0
C1073 C 0.72958 0.79847 0.3235 0.0
C1074 C 0.74218 0.84608 0.32451 0.0
H1075 H 0.7955 0.92613 0.31861 0.0
N1076 N 0.72912 0.87409 0.3227 0.0
C1077 C 0.75749 0.91565 0.31816 0.0
C1078 C 0.74783 0.86958 0.32347 0.0
C1079 C 0.73354 0.89664 0.31947 0.0
C1080 C 0.77697 0.9114 0.3197 0.0
C1081 C 0.77227 0.88806 0.32212 0.0
O1082 O 0.68637 0.85549 0.30479 0.0
O1083 O 0.65778 0.83756 0.33541 0.0
O1084 O 0.63109 0.79884 0.34005 0.0
O1085 O 0.6626 0.80336 0.32449 0.0
O1086 O 0.67646 0.86673 0.32242 0.0
O1087 O 0.68508 0.8215 0.30564 0.0
O1088 O 0.65623 0.8106 0.37821 0.0
O1089 O 0.68474 0.8286 0.34761 0.0
O1090 O 0.71146 0.86732 0.34296 0.0
O1091 O 0.67999 0.86277 0.35857 0.0
O1092 O 0.66621 0.79948 0.36062 0.0
O1093 O 0.65742 0.84454 0.37744 0.0
C1094 C 0.65705 0.85533 0.33026 0.0
C1095 C 0.69946 0.84379 0.28345 0.0
C1096 C 0.70118 0.84519 0.25629 0.0
C1097 C 0.6876 0.83808 0.26953 0.0
C1098 C 0.72677 0.8579 0.25709 0.0
C1099 C 0.72504 0.85615 0.28409 0.0
C1100 C 0.73861 0.86316 0.27095 0.0
C1101 C 0.63954 0.7914 0.32897 0.0
C1102 C 0.68475 0.83758 0.29708 0.0
C1103 C 0.79105 0.88248 0.32265 0.0
C1104 C 0.78533 0.85854 0.32366 0.0
C1105 C 0.6856 0.81091 0.35278 0.0
C1106 C 0.64308 0.82214 0.39959 0.0
C1107 C 0.65491 0.82763 0.41354 0.0
C1108 C 0.64128 0.8203 0.42675 0.0
C1109 C 0.61569 0.80762 0.42592 0.0
C1110 C 0.61751 0.80983 0.39893 0.0
C1111 C 0.60389 0.80262 0.41205 0.0
C1112 C 0.70304 0.87474 0.35407 0.0
C1113 C 0.65781 0.82846 0.38597 0.0
H1114 H 0.66782 0.82859 0.26898 0.0
H1115 H 0.73755 0.86352 0.247 0.0
H1116 H 0.73453 0.86055 0.29466 0.0
H1117 H 0.75835 0.87281 0.27152 0.0
H1118 H 0.67469 0.83709 0.41411 0.0
H1119 H 0.60488 0.80184 0.436 0.0
H1120 H 0.60805 0.80562 0.38836 0.0
H1121 H 0.58415 0.793 0.41145 0.0
Tb1122 Tb 0.1814 0.82527 0.35649 0.0
C1123 C 0.13115 0.86835 0.31899 0.0
C1124 C 0.08808 0.83925 0.31981 0.0
C1125 C 0.10133 0.88141 0.31662 0.0
C1126 C 0.11269 0.84502 0.32051 0.0
C1127 C 0.12576 0.88682 0.31672 0.0
C1128 C 0.0825 0.85763 0.31814 0.0
C1129 C 0.16888 0.9141 0.3135 0.0
N1130 N 0.15444 0.87272 0.31899 0.0
C1131 C 0.17325 0.89512 0.31571 0.0
C1132 C 0.14505 0.91001 0.31419 0.0
Tb1133 Tb 0.15988 0.8406 0.32307 0.0
N1134 N 0.1189 0.82784 0.32208 0.0
C1135 C 0.10113 0.8042 0.32215 0.0
C1136 C 0.06987 0.81518 0.32046 0.0
C1137 C 0.07644 0.79757 0.32155 0.0
H1138 H 0.19177 0.89859 0.3152 0.0
H1139 H 0.06249 0.77886 0.3219 0.0
H1140 H 0.0637 0.8536 0.31774 0.0
H1141 H 0.18389 0.93188 0.31129 0.0
H1142 H 0.10574 0.79028 0.32298 0.0
H1143 H 0.27806 0.88937 0.35976 0.0
H1144 H 0.05076 0.80998 0.31981 0.0
H1145 H 0.15117 0.7667 0.36268 0.0
H1146 H 0.23449 0.87662 0.35844 0.0
H1147 H 0.16043 0.7339 0.36446 0.0
H1148 H 0.09679 0.89537 0.31502 0.0
H1149 H 0.29123 0.8592 0.36004 0.0
H1150 H 0.27981 0.81581 0.35945 0.0
H1151 H 0.1417 0.92472 0.31242 0.0
H1152 H 0.24773 0.77336 0.36043 0.0
N1153 N 0.22261 0.8393 0.35749 0.0
C1154 C 0.23975 0.86311 0.35845 0.0
C1155 C 0.27199 0.85343 0.3592 0.0
C1156 C 0.25442 0.8291 0.35862 0.0
C1157 C 0.26461 0.8705 0.35918 0.0
C1158 C 0.22959 0.82257 0.35798 0.0
H1159 H 0.20308 0.74261 0.36246 0.0
N1160 N 0.18815 0.79368 0.35914 0.0
C1161 C 0.17503 0.7521 0.36279 0.0
C1162 C 0.2117 0.79886 0.35872 0.0
C1163 C 0.16986 0.77076 0.36183 0.0
C1164 C 0.19912 0.75707 0.36161 0.0
C1165 C 0.21788 0.78076 0.35986 0.0
O1166 O 0.16341 0.81169 0.37684 0.0
O1167 O 0.15246 0.82851 0.34591 0.0
O1168 O 0.16455 0.86682 0.34011 0.0
O1169 O 0.1919 0.86354 0.35619 0.0
O1170 O 0.14239 0.79992 0.3594 0.0
O1171 O 0.19606 0.84625 0.376 0.0
O1172 O 0.17839 0.85178 0.30264 0.0
O1173 O 0.18873 0.83772 0.33393 0.0
O1174 O 0.17737 0.80015 0.33885 0.0
O1175 O 0.1481 0.8021 0.32406 0.0
O1176 O 0.19916 0.86571 0.32005 0.0
O1177 O 0.14419 0.81877 0.30397 0.0
C1178 C 0.134 0.81072 0.35143 0.0
C1179 C 0.18786 0.82456 0.39852 0.0
C1180 C 0.18757 0.8238 0.42588 0.0
C1181 C 0.18141 0.83044 0.41225 0.0
C1182 C 0.20058 0.81134 0.42538 0.0
C1183 C 0.20111 0.8125 0.39835 0.0
C1184 C 0.20745 0.80597 0.41173 0.0
C1185 C 0.18077 0.87501 0.35116 0.0
C1186 C 0.17946 0.83007 0.38455 0.0
C1187 C 0.24256 0.78701 0.35969 0.0
C1188 C 0.26082 0.81117 0.35914 0.0
C1189 C 0.20738 0.85533 0.32854 0.0
C1190 C 0.15424 0.83913 0.28086 0.0
C1191 C 0.16141 0.83299 0.26748 0.0
C1192 C 0.15642 0.83978 0.25352 0.0
C1193 C 0.14387 0.85271 0.25334 0.0
C1194 C 0.14142 0.8516 0.28033 0.0
C1195 C 0.13627 0.85832 0.26663 0.0
C1196 C 0.16008 0.79121 0.32848 0.0
C1197 C 0.16154 0.83356 0.29522 0.0
H1198 H 0.17156 0.84017 0.41224 0.0
H1199 H 0.20516 0.80533 0.43551 0.0
H1200 H 0.20628 0.80787 0.38793 0.0
H1201 H 0.21744 0.7964 0.41151 0.0
H1202 H 0.1709 0.82293 0.26803 0.0
H1203 H 0.14022 0.85889 0.24296 0.0
H1204 H 0.13566 0.85639 0.29046 0.0
H1205 H 0.12663 0.86823 0.26632 0.0
Tb1206 Tb 0.82656 0.65417 0.65182 0.0
C1207 C 0.87556 0.73544 0.69635 0.0
C1208 C 0.91805 0.74813 0.69254 0.0
C1209 C 0.90651 0.7769 0.70109 0.0
C1210 C 0.89321 0.73027 0.69208 0.0
C1211 C 0.88194 0.75862 0.70137 0.0
C1212 C 0.92458 0.77164 0.69668 0.0
C1213 C 0.83995 0.74298 0.70855 0.0
N1214 N 0.85225 0.71714 0.69679 0.0
C1215 C 0.8347 0.72025 0.70361 0.0
C1216 C 0.86362 0.76237 0.70718 0.0
Tb1217 Tb 0.84493 0.68043 0.68852 0.0
N1218 N 0.88607 0.70732 0.68828 0.0
C1219 C 0.90316 0.70077 0.68546 0.0
C1220 C 0.93555 0.74164 0.68921 0.0
C1221 C 0.92806 0.71781 0.68574 0.0
H1222 H 0.8164 0.70528 0.70478 0.0
H1223 H 0.94146 0.71255 0.68327 0.0
H1224 H 0.94354 0.78571 0.69691 0.0
H1225 H 0.82578 0.74549 0.71346 0.0
H1226 H 0.89779 0.68253 0.68265 0.0
H1227 H 0.77587 0.67341 0.61115 0.0
H1228 H 0.95482 0.75473 0.68964 0.0
H1229 H 0.81264 0.60185 0.66736 0.0
H1230 H 0.81284 0.67886 0.62424 0.0
H1231 H 0.77662 0.56221 0.6704 0.0
H1232 H 0.91181 0.79491 0.70474 0.0
H1233 H 0.73549 0.63865 0.61714 0.0
H1234 H 0.71166 0.59929 0.63048 0.0
H1235 H 0.86772 0.77991 0.71115 0.0
H1236 H 0.71215 0.56829 0.64618 0.0
N1237 N 0.7932 0.64948 0.63878 0.0
C1238 C 0.79515 0.66428 0.62734 0.0
C1239 C 0.75158 0.6414 0.62317 0.0
C1240 C 0.75022 0.62465 0.63356 0.0
C1241 C 0.77432 0.66102 0.61976 0.0
C1242 C 0.77174 0.62916 0.64107 0.0
H1243 H 0.73669 0.55377 0.66027 0.0
N1244 N 0.79379 0.61647 0.65562 0.0
C1245 C 0.77505 0.57605 0.66458 0.0
C1246 C 0.7721 0.61182 0.64968 0.0
C1247 C 0.7956 0.59872 0.66276 0.0
C1248 C 0.75249 0.57141 0.65899 0.0
C1249 C 0.7508 0.58935 0.65134 0.0
O1250 O 0.83082 0.62963 0.63833 0.0
O1251 O 0.85658 0.67956 0.66591 0.0
O1252 O 0.83347 0.70249 0.67598 0.0
O1253 O 0.81118 0.67783 0.65549 0.0
O1254 O 0.85154 0.69085 0.64541 0.0
O1255 O 0.84415 0.66551 0.63101 0.0
O1256 O 0.82597 0.66912 0.70899 0.0
O1257 O 0.81819 0.65007 0.67541 0.0
O1258 O 0.84809 0.63938 0.66149 0.0
O1259 O 0.8549 0.65284 0.68624 0.0
O1260 O 0.8059 0.66612 0.69025 0.0
O1261 O 0.86108 0.67252 0.70655 0.0
C1262 C 0.86521 0.69728 0.65713 0.0
C1263 C 0.8291 0.63549 0.61208 0.0
C1264 C 0.8268 0.64263 0.58522 0.0
C1265 C 0.83602 0.65127 0.59978 0.0
C1266 C 0.8107 0.61785 0.5833 0.0
C1267 C 0.81267 0.61101 0.60968 0.0
C1268 C 0.80359 0.60235 0.59541 0.0
C1269 C 0.81853 0.69707 0.66426 0.0
C1270 C 0.83985 0.64435 0.6272 0.0
C1271 C 0.72879 0.5853 0.64485 0.0
C1272 C 0.72849 0.60297 0.63596 0.0
C1273 C 0.79907 0.6488 0.68083 0.0
C1274 C 0.85029 0.67815 0.73085 0.0
C1275 C 0.8406 0.66346 0.7435 0.0
C1276 C 0.84841 0.673 0.75803 0.0
C1277 C 0.86558 0.69751 0.75967 0.0
C1278 C 0.86741 0.70251 0.73284 0.0
C1279 C 0.87487 0.71212 0.74717 0.0
C1280 C 0.85616 0.63984 0.67522 0.0
C1281 C 0.84334 0.66763 0.71569 0.0
H1282 H 0.84848 0.6702 0.60161 0.0
H1283 H 0.80381 0.61017 0.57235 0.0
H1284 H 0.80701 0.59841 0.61879 0.0
H1285 H 0.79118 0.58339 0.59368 0.0
H1286 H 0.82757 0.64455 0.74204 0.0
H1287 H 0.87176 0.70539 0.77067 0.0
H1288 H 0.87529 0.71405 0.72332 0.0
H1289 H 0.8881 0.73095 0.74859 0.0
Tb1290 Tb 0.3552 0.17706 0.65656 0.0
C1291 C 0.25985 0.13415 0.6915 0.0
C1292 C 0.24732 0.1639 0.69081 0.0
C1293 C 0.21678 0.12174 0.69277 0.0
C1294 C 0.26574 0.15771 0.69027 0.0
C1295 C 0.23538 0.1159 0.69314 0.0
C1296 C 0.22275 0.14574 0.69167 0.0
C1297 C 0.24979 0.08803 0.6971 0.0
N1298 N 0.27841 0.12939 0.69219 0.0
C1299 C 0.2738 0.10683 0.69557 0.0
C1300 C 0.23046 0.09252 0.69568 0.0
Tb1301 Tb 0.3171 0.16127 0.68938 0.0
N1302 N 0.28968 0.17469 0.68963 0.0
C1303 C 0.29648 0.19843 0.69032 0.0
C1304 C 0.2542 0.18814 0.69111 0.0
C1305 C 0.27889 0.20548 0.69089 0.0
H1306 H 0.2886 0.10315 0.69665 0.0
H1307 H 0.28441 0.22429 0.69126 0.0
H1308 H 0.20831 0.15012 0.6919 0.0
H1309 H 0.24622 0.0701 0.69937 0.0
H1310 H 0.31545 0.21214 0.69023 0.0
H1311 H 0.38659 0.11297 0.6553 0.0
H1312 H 0.24066 0.19365 0.69194 0.0
H1313 H 0.38447 0.23494 0.64885 0.0
H1314 H 0.35602 0.12572 0.65577 0.0
H1315 H 0.42708 0.26757 0.64613 0.0
H1316 H 0.19782 0.10796 0.69386 0.0
H1317 H 0.43052 0.14312 0.65514 0.0
H1318 H 0.46334 0.1865 0.65499 0.0
H1319 H 0.21189 0.07796 0.69697 0.0
H1320 H 0.47445 0.22878 0.6526 0.0
N1321 N 0.38219 0.16307 0.6566 0.0
C1322 C 0.37505 0.13925 0.65588 0.0
C1323 C 0.41717 0.14891 0.6557 0.0
C1324 C 0.42441 0.17324 0.65584 0.0
C1325 C 0.39238 0.13185 0.65562 0.0
C1326 C 0.40623 0.17978 0.65611 0.0
H1327 H 0.46099 0.25917 0.64894 0.0
N1328 N 0.39413 0.2084 0.65357 0.0
C1329 C 0.42323 0.24959 0.64854 0.0
C1330 C 0.41245 0.20336 0.65453 0.0
C1331 C 0.39909 0.23103 0.65005 0.0
C1332 C 0.44233 0.2448 0.65019 0.0
C1333 C 0.43705 0.22136 0.65296 0.0
O1334 O 0.3535 0.19067 0.63552 0.0
O1335 O 0.32303 0.17397 0.66679 0.0
O1336 O 0.2956 0.13555 0.67188 0.0
O1337 O 0.32674 0.1387 0.65652 0.0
O1338 O 0.34147 0.20201 0.65297 0.0
O1339 O 0.34652 0.15452 0.63779 0.0
O1340 O 0.32128 0.14829 0.71002 0.0
O1341 O 0.34951 0.16479 0.67921 0.0
O1342 O 0.37647 0.20309 0.67397 0.0
O1343 O 0.34533 0.19971 0.68946 0.0
O1344 O 0.33088 0.13631 0.69269 0.0
O1345 O 0.32308 0.18247 0.70864 0.0
C1346 C 0.3224 0.19149 0.66117 0.0
C1347 C 0.36348 0.17391 0.61512 0.0
C1348 C 0.36569 0.17307 0.5879 0.0
C1349 C 0.35284 0.17175 0.60101 0.0
C1350 C 0.38959 0.17696 0.5892 0.0
C1351 C 0.38731 0.17785 0.61615 0.0
C1352 C 0.40031 0.17946 0.60325 0.0
C1353 C 0.30367 0.12742 0.66098 0.0
C1354 C 0.34903 0.1711 0.62854 0.0
C1355 C 0.4554 0.2152 0.65364 0.0
C1356 C 0.44908 0.19114 0.65502 0.0
C1357 C 0.35018 0.14721 0.68471 0.0
C1358 C 0.30864 0.16098 0.73112 0.0
C1359 C 0.32048 0.16616 0.74505 0.0
C1360 C 0.30687 0.15955 0.75829 0.0
C1361 C 0.2813 0.14788 0.75748 0.0
C1362 C 0.2831 0.14968 0.73049 0.0
C1363 C 0.26952 0.14316 0.74362 0.0
C1364 C 0.36834 0.21121 0.68484 0.0
C1365 C 0.32324 0.16657 0.71746 0.0
H1366 H 0.33451 0.16901 0.6003 0.0
H1367 H 0.39987 0.17762 0.5794 0.0
H1368 H 0.39578 0.17942 0.62687 0.0
H1369 H 0.41865 0.18233 0.60414 0.0
H1370 H 0.34022 0.17484 0.7456 0.0
H1371 H 0.2705 0.14266 0.76757 0.0
H1372 H 0.27365 0.14572 0.71992 0.0
H1373 H 0.2498 0.13432 0.74305 0.0
Tb1374 Tb 0.84745 0.16401 0.69054 0.0
C1375 C 0.79796 0.2064 0.65181 0.0
C1376 C 0.7549 0.17723 0.65248 0.0
C1377 C 0.76808 0.21928 0.64883 0.0
C1378 C 0.77952 0.18307 0.65342 0.0
C1379 C 0.79254 0.22476 0.64915 0.0
C1380 C 0.74927 0.19553 0.65049 0.0
C1381 C 0.83567 0.252 0.64591 0.0
N1382 N 0.82128 0.21085 0.65201 0.0
C1383 C 0.84008 0.23313 0.64852 0.0
C1384 C 0.81182 0.24788 0.64642 0.0
Tb1385 Tb 0.82674 0.1789 0.65659 0.0
N1386 N 0.78575 0.16596 0.65526 0.0
C1387 C 0.76803 0.14231 0.65535 0.0
C1388 C 0.73672 0.15315 0.65321 0.0
C1389 C 0.74334 0.1356 0.65455 0.0
H1390 H 0.8586 0.23659 0.64814 0.0
H1391 H 0.72942 0.11688 0.65494 0.0
H1392 H 0.73047 0.19143 0.6499 0.0
H1393 H 0.85067 0.26972 0.64352 0.0
H1394 H 0.77269 0.12842 0.65635 0.0
H1395 H 0.94427 0.22812 0.69286 0.0
H1396 H 0.71761 0.14789 0.65241 0.0
H1397 H 0.81739 0.10649 0.69923 0.0
H1398 H 0.90075 0.21541 0.69173 0.0
H1399 H 0.82657 0.07401 0.70329 0.0
H1400 H 0.76352 0.23316 0.64695 0.0
H1401 H 0.95739 0.19795 0.69407 0.0
H1402 H 0.94583 0.15458 0.69537 0.0
H1403 H 0.80844 0.26251 0.64434 0.0
H1404 H 0.91368 0.11244 0.69822 0.0
N1405 N 0.88872 0.17802 0.69166 0.0
C1406 C 0.90591 0.20185 0.69216 0.0
C1407 C 0.93813 0.19216 0.69334 0.0
C1408 C 0.92051 0.16786 0.69356 0.0
C1409 C 0.93078 0.20924 0.69279 0.0
C1410 C 0.89568 0.16135 0.69288 0.0
H1411 H 0.8691 0.08226 0.70153 0.0
N1412 N 0.85431 0.13287 0.69491 0.0
C1413 C 0.84116 0.09189 0.7008 0.0
C1414 C 0.87778 0.13786 0.69459 0.0
C1415 C 0.83605 0.11038 0.69853 0.0
C1416 C 0.86517 0.09659 0.69974 0.0
C1417 C 0.88392 0.11991 0.69686 0.0
O1418 O 0.8303 0.15127 0.71131 0.0
O1419 O 0.81875 0.167 0.67944 0.0
O1420 O 0.83131 0.20554 0.67332 0.0
O1421 O 0.85848 0.2023 0.68952 0.0
O1422 O 0.80841 0.13881 0.69331 0.0
O1423 O 0.86067 0.18709 0.70916 0.0
O1424 O 0.84581 0.1899 0.63632 0.0
O1425 O 0.85512 0.17558 0.66778 0.0
O1426 O 0.84256 0.13736 0.67365 0.0
O1427 O 0.81509 0.14053 0.65771 0.0
O1428 O 0.86606 0.20383 0.65395 0.0
O1429 O 0.81136 0.15715 0.63744 0.0
C1430 C 0.80019 0.14935 0.68497 0.0
C1431 C 0.85535 0.16871 0.73259 0.0
C1432 C 0.8553 0.17008 0.75986 0.0
C1433 C 0.84515 0.17089 0.74601 0.0
C1434 C 0.8756 0.16672 0.76009 0.0
C1435 C 0.87549 0.16521 0.73304 0.0
C1436 C 0.88551 0.16417 0.74675 0.0
C1437 C 0.84745 0.21378 0.6844 0.0
C1438 C 0.84527 0.17105 0.71829 0.0
C1439 C 0.90856 0.126 0.69666 0.0
C1440 C 0.92685 0.14998 0.69503 0.0
C1441 C 0.87391 0.19312 0.66245 0.0
C1442 C 0.82227 0.17737 0.61429 0.0
C1443 C 0.82989 0.17123 0.60108 0.0
C1444 C 0.82528 0.17795 0.58698 0.0
C1445 C 0.81271 0.19085 0.58649 0.0
C1446 C 0.80943 0.18979 0.61344 0.0
C1447 C 0.8047 0.19648 0.5996 0.0
C1448 C 0.82628 0.12911 0.66263 0.0
C1449 C 0.82905 0.17175 0.62882 0.0
H1450 H 0.8297 0.17381 0.74567 0.0
H1451 H 0.88367 0.16589 0.7706 0.0
H1452 H 0.88362 0.16353 0.72284 0.0
H1453 H 0.9011 0.16152 0.74703 0.0
H1454 H 0.8394 0.16122 0.60186 0.0
H1455 H 0.80935 0.19697 0.57599 0.0
H1456 H 0.80331 0.19456 0.62343 0.0
H1457 H 0.79503 0.20635 0.59904 0.0
C1458 C 0.35754 0.88649 0.06207 0.0
C1459 C 0.33758 0.86792 0.0545 0.0
C1460 C 0.37813 0.90342 0.05429 0.0
C1461 C 0.37856 0.90204 0.03849 0.0
C1462 C 0.35861 0.88305 0.03079 0.0
C1463 C 0.33841 0.86606 0.03891 0.0
C1464 C 0.39924 0.92309 0.06296 0.0
C1465 C 0.35828 0.88117 0.01396 0.0
C1466 C 0.42029 0.96281 0.02176 0.0
C1467 C 0.44157 0.96179 0.01934 0.0
C1468 C 0.39901 0.9428 0.02692 0.0
C1469 C 0.39927 0.92147 0.03016 0.0
C1470 C 0.42042 0.91999 0.02703 0.0
C1471 C 0.44138 0.94024 0.02168 0.0
C1472 C 0.37669 0.94498 0.02972 0.0
C1473 C 0.4216 0.89768 0.03033 0.0
H1474 H 0.35702 0.88776 0.07414 0.0
H1475 H 0.32291 0.85173 0.03305 0.0
H1476 H 0.41652 0.92374 0.05987 0.0
H1477 H 0.40117 0.94067 0.06011 0.0
H1478 H 0.3968 0.92063 0.07524 0.0
H1479 H 0.34193 0.86474 0.0097 0.0
H1480 H 0.3585 0.89701 0.00902 0.0
H1481 H 0.37486 0.88113 0.01001 0.0
H1482 H 0.42055 0.97956 0.02002 0.0
H1483 H 0.45794 0.93952 0.02014 0.0
H1484 H 0.3739 0.94532 0.04194 0.0
H1485 H 0.36018 0.92929 0.02497 0.0
H1486 H 0.3784 0.96154 0.02483 0.0
H1487 H 0.42321 0.89627 0.04259 0.0
H1488 H 0.43751 0.89796 0.02491 0.0
H1489 H 0.4047 0.88143 0.02653 0.0
C1490 C 0.13429 0.46889 0.03917 0.0
C1491 C 0.13449 0.46747 0.0548 0.0
C1492 C 0.11624 0.47159 0.03164 0.0
C1493 C 0.09816 0.47339 0.03992 0.0
C1494 C 0.09871 0.47262 0.05574 0.0
C1495 C 0.11668 0.46945 0.06296 0.0
C1496 C 0.11623 0.47197 0.01482 0.0
C1497 C 0.08012 0.47488 0.06506 0.0
C1498 C 0.06025 0.49854 0.02287 0.0
C1499 C 0.03773 0.47767 0.02038 0.0
C1500 C 0.0804 0.49744 0.02864 0.0
C1501 C 0.07795 0.47492 0.03214 0.0
C1502 C 0.05543 0.45377 0.02916 0.0
C1503 C 0.03556 0.45544 0.02352 0.0
C1504 C 0.10394 0.52048 0.03163 0.0
C1505 C 0.05204 0.42936 0.03239 0.0
H1506 H 0.14789 0.4672 0.03279 0.0
H1507 H 0.11689 0.46864 0.07505 0.0
H1508 H 0.09867 0.45712 0.01048 0.0
H1509 H 0.11791 0.489 0.01091 0.0
H1510 H 0.13137 0.47016 0.00999 0.0
H1511 H 0.08384 0.47529 0.07723 0.0
H1512 H 0.07994 0.49148 0.06211 0.0
H1513 H 0.06162 0.45957 0.06267 0.0
H1514 H 0.06194 0.51581 0.02085 0.0
H1515 H 0.01811 0.43929 0.02173 0.0
H1516 H 0.11956 0.51962 0.02674 0.0
H1517 H 0.10718 0.52312 0.04387 0.0
H1518 H 0.10363 0.53627 0.02699 0.0
H1519 H 0.06683 0.42742 0.02713 0.0
H1520 H 0.03419 0.41466 0.02824 0.0
H1521 H 0.05317 0.42729 0.04461 0.0
C1522 C 0.53005 0.6518 0.06857 0.0
C1523 C 0.53903 0.67317 0.06067 0.0
C1524 C 0.52471 0.63046 0.06121 0.0
C1525 C 0.52911 0.63079 0.04568 0.0
C1526 C 0.53824 0.65244 0.03767 0.0
C1527 C 0.54284 0.6734 0.04527 0.0
C1528 C 0.51449 0.6076 0.07004 0.0
C1529 C 0.54367 0.65357 0.02119 0.0
C1530 C 0.53846 0.58069 0.03103 0.0
C1531 C 0.51591 0.56556 0.02416 0.0
C1532 C 0.54321 0.60231 0.03775 0.0
C1533 C 0.52472 0.60857 0.03791 0.0
C1534 C 0.50193 0.59336 0.03094 0.0
C1535 C 0.4979 0.57215 0.02398 0.0
C1536 C 0.56797 0.61839 0.04474 0.0
C1537 C 0.48159 0.59917 0.03114 0.0
H1538 H 0.52711 0.65183 0.0805 0.0
H1539 H 0.54996 0.69011 0.03927 0.0
H1540 H 0.49718 0.59362 0.06485 0.0
H1541 H 0.52745 0.60077 0.06987 0.0
H1542 H 0.51093 0.61018 0.08186 0.0
H1543 H 0.55055 0.67179 0.0166 0.0
H1544 H 0.55755 0.64816 0.01922 0.0
H1545 H 0.527 0.64081 0.01488 0.0
H1546 H 0.55249 0.57575 0.03106 0.0
H1547 H 0.48039 0.56043 0.01872 0.0
H1548 H 0.56606 0.62005 0.05693 0.0
H1549 H 0.57614 0.63664 0.04 0.0
H1550 H 0.58075 0.61153 0.04294 0.0
H1551 H 0.4765 0.6002 0.04285 0.0
H1552 H 0.46508 0.58558 0.02501 0.0
H1553 H 0.4878 0.61692 0.02605 0.0
C1554 C 0.87879 0.32462 0.96454 0.0
C1555 C 0.86497 0.32411 0.95213 0.0
C1556 C 0.89585 0.34645 0.97125 0.0
C1557 C 0.89954 0.36823 0.96516 0.0
C1558 C 0.8859 0.36776 0.95246 0.0
C1559 C 0.86855 0.34567 0.9462 0.0
C1560 C 0.90964 0.34619 0.98498 0.0
C1561 C 0.88968 0.3906 0.94546 0.0
C1562 C 0.92653 0.42417 0.98957 0.0
C1563 C 0.9513 0.43562 0.98572 0.0
C1564 C 0.9096 0.40207 0.98317 0.0
C1565 C 0.91741 0.3915 0.97222 0.0
C1566 C 0.94224 0.40322 0.96796 0.0
C1567 C 0.95893 0.42502 0.97487 0.0
C1568 C 0.88336 0.38999 0.98819 0.0
C1569 C 0.95115 0.39281 0.95605 0.0
H1570 H 0.87584 0.3079 0.96917 0.0
H1571 H 0.85796 0.34521 0.93652 0.0
H1572 H 0.92955 0.35628 0.98287 0.0
H1573 H 0.90608 0.35525 0.99441 0.0
H1574 H 0.90444 0.32773 0.98841 0.0
H1575 H 0.87823 0.38716 0.93529 0.0
H1576 H 0.88521 0.40084 0.9536 0.0
H1577 H 0.90913 0.40212 0.9424 0.0
H1578 H 0.92024 0.43247 0.99758 0.0
H1579 H 0.97795 0.43376 0.97168 0.0
H1580 H 0.87784 0.37193 0.99257 0.0
H1581 H 0.87121 0.38754 0.97857 0.0
H1582 H 0.88036 0.4004 0.99703 0.0
H1583 H 0.948 0.37503 0.95957 0.0
H1584 H 0.97089 0.40451 0.95371 0.0
H1585 H 0.9407 0.39007 0.94554 0.0
C1586 C 0.64821 0.53165 0.94947 0.0
C1587 C 0.66836 0.53403 0.95754 0.0
C1588 C 0.62715 0.52846 0.95678 0.0
C1589 C 0.62629 0.52811 0.97262 0.0
C1590 C 0.64651 0.53028 0.98082 0.0
C1591 C 0.66717 0.53297 0.97319 0.0
C1592 C 0.6059 0.52576 0.94754 0.0
C1593 C 0.64656 0.53032 0.99767 0.0
C1594 C 0.58202 0.54617 0.98854 0.0
C1595 C 0.5616 0.52398 0.99182 0.0
C1596 C 0.60362 0.54782 0.9831 0.0
C1597 C 0.60469 0.52668 0.98045 0.0
C1598 C 0.58432 0.50421 0.98418 0.0
C1599 C 0.56303 0.50314 0.98979 0.0
C1600 C 0.62501 0.5722 0.97967 0.0
C1601 C 0.58446 0.48116 0.98151 0.0
H1602 H 0.64888 0.53215 0.93737 0.0
H1603 H 0.68273 0.53493 0.9795 0.0
H1604 H 0.58895 0.50921 0.95073 0.0
H1605 H 0.60297 0.54107 0.94976 0.0
H1606 H 0.60882 0.52497 0.93537 0.0
H1607 H 0.66368 0.53224 1.00243 0.0
H1608 H 0.64427 0.54528 1.0019 0.0
H1609 H 0.63095 0.51343 1.00179 0.0
H1610 H 0.5809 0.5623 0.99001 0.0
H1611 H 0.54719 0.48588 0.99194 0.0
H1612 H 0.62788 0.57402 0.96741 0.0
H1613 H 0.64193 0.5743 0.98485 0.0
H1614 H 0.62218 0.58693 0.98374 0.0
H1615 H 0.58427 0.47791 0.9693 0.0
H1616 H 0.56842 0.46554 0.98656 0.0
H1617 H 0.60132 0.4824 0.98616 0.0
C1618 C 0.48171 0.13065 0.94889 0.0
C1619 C 0.46185 0.13321 0.95316 0.0
C1620 C 0.48671 0.11434 0.95612 0.0
C1621 C 0.47168 0.10056 0.96804 0.0
C1622 C 0.45181 0.10334 0.97253 0.0
C1623 C 0.44701 0.11952 0.96495 0.0
C1624 C 0.50783 0.11157 0.95086 0.0
C1625 C 0.43565 0.08922 0.98535 0.0
C1626 C 0.46959 0.04231 0.97741 0.0
C1627 C 0.48599 0.04921 0.98949 0.0
C1628 C 0.46481 0.05886 0.97032 0.0
C1629 C 0.47643 0.08283 0.97557 0.0
C1630 C 0.49281 0.08988 0.98785 0.0
C1631 C 0.49761 0.07306 0.99454 0.0
C1632 C 0.44754 0.05076 0.95709 0.0
C1633 C 0.50536 0.11523 0.99386 0.0
H1634 H 0.49306 0.14112 0.93969 0.0
H1635 H 0.43181 0.1217 0.96835 0.0
H1636 H 0.52083 0.11529 0.96021 0.0
H1637 H 0.50107 0.09284 0.94712 0.0
H1638 H 0.51783 0.12375 0.9415 0.0
H1639 H 0.42145 0.09407 0.98777 0.0
H1640 H 0.42648 0.06979 0.98274 0.0
H1641 H 0.44684 0.09235 0.99558 0.0
H1642 H 0.46059 0.02398 0.97334 0.0
H1643 H 0.5107 0.07874 1.00363 0.0
H1644 H 0.45709 0.06153 0.94714 0.0
H1645 H 0.43204 0.05373 0.95941 0.0
H1646 H 0.44015 0.03153 0.95432 0.0
H1647 H 0.51704 0.1278 0.98511 0.0
H1648 H 0.5169 0.11758 1.00383 0.0
H1649 H 0.49158 0.12031 0.99695 0.0
C1650 C 0.66494 0.13413 0.97438 0.0
C1651 C 0.66609 0.1326 0.95875 0.0
C1652 C 0.64477 0.1169 0.98241 0.0
C1653 C 0.62501 0.09791 0.97463 0.0
C1654 C 0.62556 0.09679 0.95884 0.0
C1655 C 0.64614 0.11393 0.95113 0.0
C1656 C 0.64492 0.1186 0.99925 0.0
C1657 C 0.60465 0.07702 0.95008 0.0
C1658 C 0.58396 0.03691 0.99135 0.0
C1659 C 0.56256 0.03765 0.99392 0.0
C1660 C 0.60503 0.05705 0.98609 0.0
C1661 C 0.60441 0.07822 0.98289 0.0
C1662 C 0.58313 0.07939 0.98612 0.0
C1663 C 0.56241 0.05903 0.99159 0.0
C1664 C 0.62752 0.05521 0.98319 0.0
C1665 C 0.58155 0.1015 0.98283 0.0
H1666 H 0.67992 0.14872 0.98042 0.0
H1667 H 0.64681 0.11221 0.93911 0.0
H1668 H 0.62822 0.11842 1.00316 0.0
H1669 H 0.64482 0.10279 1.00414 0.0
H1670 H 0.66113 0.13506 1.00361 0.0
H1671 H 0.60699 0.07978 0.93782 0.0
H1672 H 0.6032 0.05957 0.95272 0.0
H1673 H 0.58717 0.07584 0.95329 0.0
H1674 H 0.58397 0.02029 0.99308 0.0
H1675 H 0.54576 0.05955 0.99322 0.0
H1676 H 0.64391 0.07094 0.98802 0.0
H1677 H 0.63036 0.05513 0.97097 0.0
H1678 H 0.62602 0.03867 0.98796 0.0
H1679 H 0.59832 0.11789 0.98661 0.0
H1680 H 0.56553 0.10098 0.98827 0.0
H1681 H 0.57987 0.10288 0.97058 0.0
C1682 C 0.86963 0.53427 0.97095 0.0
C1683 C 0.86878 0.53563 0.95531 0.0
C1684 C 0.88793 0.53163 0.97817 0.0
C1685 C 0.90566 0.52969 0.96962 0.0
C1686 C 0.90461 0.53044 0.95382 0.0
C1687 C 0.88644 0.53365 0.9469 0.0
C1688 C 0.8884 0.53115 0.99499 0.0
C1689 C 0.92292 0.52819 0.94421 0.0
C1690 C 0.96847 0.54685 0.98535 0.0
C1691 C 0.96607 0.52448 0.98835 0.0
C1692 C 0.94865 0.54882 0.97995 0.0
C1693 C 0.92593 0.52785 0.97708 0.0
C1694 C 0.92327 0.50519 0.98042 0.0
C1695 C 0.94338 0.50379 0.98596 0.0
C1696 C 0.95226 0.57337 0.97692 0.0
C1697 C 0.89951 0.48232 0.97753 0.0
H1698 H 0.8559 0.5352 0.97764 0.0
H1699 H 0.88642 0.53504 0.93485 0.0
H1700 H 0.88588 0.51371 0.99873 0.0
H1701 H 0.90641 0.54541 0.99921 0.0
H1702 H 0.87394 0.53381 1.00008 0.0
H1703 H 0.9188 0.5277 0.93209 0.0
H1704 H 0.94148 0.54354 0.9464 0.0
H1705 H 0.92326 0.51164 0.94706 0.0
H1706 H 0.98606 0.56287 0.98707 0.0
H1707 H 0.94151 0.48641 0.98789 0.0
H1708 H 0.93778 0.57549 0.98245 0.0
H1709 H 0.95078 0.57552 0.96474 0.0
H1710 H 0.97032 0.58791 0.98091 0.0
H1711 H 0.88415 0.4833 0.98273 0.0
H1712 H 0.89976 0.46637 0.98193 0.0
H1713 H 0.89588 0.47987 0.96533 0.0
C1714 C 0.48435 0.34996 0.94844 0.0
C1715 C 0.46549 0.32772 0.95332 0.0
C1716 C 0.48898 0.37136 0.95547 0.0
C1717 C 0.47473 0.37048 0.96786 0.0
C1718 C 0.45595 0.34813 0.973 0.0
C1719 C 0.45139 0.32706 0.96558 0.0
C1720 C 0.50898 0.39492 0.94955 0.0
C1721 C 0.44057 0.34649 0.9863 0.0
C1722 C 0.50065 0.42458 0.99378 0.0
C1723 C 0.48753 0.43575 0.98932 0.0
C1724 C 0.49644 0.40315 0.98705 0.0
C1725 C 0.47917 0.39298 0.97527 0.0
C1726 C 0.46612 0.40432 0.97054 0.0
C1727 C 0.4703 0.42545 0.97771 0.0
C1728 C 0.51049 0.39141 0.99254 0.0
C1729 C 0.44787 0.39423 0.95783 0.0
H1730 H 0.49564 0.3507 0.93916 0.0
H1731 H 0.43649 0.31006 0.9693 0.0
H1732 H 0.50129 0.40637 0.94628 0.0
H1733 H 0.52282 0.40469 0.95842 0.0
H1734 H 0.51826 0.39253 0.93973 0.0
H1735 H 0.42742 0.32766 0.98932 0.0
H1736 H 0.45246 0.35562 0.99612 0.0
H1737 H 0.43021 0.35578 0.98386 0.0
H1738 H 0.51439 0.43262 1.00248 0.0
H1739 H 0.46015 0.43397 0.97407 0.0
H1740 H 0.52153 0.39021 0.98335 0.0
H1741 H 0.49761 0.37286 0.99615 0.0
H1742 H 0.52286 0.40136 1.00205 0.0
H1743 H 0.45688 0.39272 0.9476 0.0
H1744 H 0.4396 0.4055 0.95532 0.0
H1745 H 0.43305 0.37595 0.96059 0.0
C1746 C 0.13585 0.65211 0.06461 0.0
C1747 C 0.13981 0.67435 0.05954 0.0
C1748 C 0.11835 0.63058 0.0578 0.0
C1749 C 0.10489 0.63124 0.04534 0.0
C1750 C 0.10887 0.65353 0.04005 0.0
C1751 C 0.126 0.67475 0.04733 0.0
C1752 C 0.11432 0.60712 0.06393 0.0
C1753 C 0.09516 0.65498 0.02663 0.0
C1754 C 0.07723 0.57713 0.01932 0.0
C1755 C 0.05248 0.56564 0.02321 0.0
C1756 C 0.09438 0.59866 0.02624 0.0
C1757 C 0.08679 0.6086 0.03773 0.0
C1758 C 0.06196 0.59685 0.04198 0.0
C1759 C 0.04506 0.57567 0.03457 0.0
C1760 C 0.1206 0.61082 0.02119 0.0
C1761 C 0.05327 0.60655 0.05446 0.0
H1762 H 0.14663 0.65145 0.07382 0.0
H1763 H 0.1284 0.69167 0.04345 0.0
H1764 H 0.09478 0.59536 0.06669 0.0
H1765 H 0.11901 0.59761 0.05536 0.0
H1766 H 0.12546 0.60962 0.07412 0.0
H1767 H 0.10088 0.67375 0.02365 0.0
H1768 H 0.09818 0.64614 0.01685 0.0
H1769 H 0.07528 0.64531 0.02885 0.0
H1770 H 0.08336 0.56928 0.01089 0.0
H1771 H 0.02605 0.56689 0.03779 0.0
H1772 H 0.13266 0.61225 0.03063 0.0
H1773 H 0.12643 0.6293 0.0175 0.0
H1774 H 0.1234 0.60103 0.01185 0.0
H1775 H 0.06361 0.60825 0.06487 0.0
H1776 H 0.03348 0.59493 0.05669 0.0
H1777 H 0.05677 0.62471 0.05163 0.0
C1778 C 0.33451 0.46618 0.03894 0.0
C1779 C 0.33258 0.46464 0.0546 0.0
C1780 C 0.35541 0.46896 0.03158 0.0
C1781 C 0.37525 0.47077 0.04001 0.0
C1782 C 0.3737 0.46977 0.05581 0.0
C1783 C 0.3524 0.46646 0.06286 0.0
C1784 C 0.35611 0.46966 0.01475 0.0
C1785 C 0.3945 0.47192 0.0653 0.0
C1786 C 0.42073 0.45407 0.02434 0.0
C1787 C 0.44115 0.47654 0.02162 0.0
C1788 C 0.39875 0.45191 0.02949 0.0
C1789 C 0.3973 0.47278 0.03244 0.0
C1790 C 0.41771 0.49554 0.02928 0.0
C1791 C 0.43938 0.49712 0.02396 0.0
C1792 C 0.37736 0.42727 0.03232 0.0
C1793 C 0.41719 0.51832 0.03228 0.0
H1794 H 0.3197 0.46532 0.03236 0.0
H1795 H 0.35119 0.46489 0.07491 0.0
H1796 H 0.37197 0.48667 0.011 0.0
H1797 H 0.35844 0.45479 0.0104 0.0
H1798 H 0.33926 0.46807 0.00977 0.0
H1799 H 0.39108 0.47221 0.07744 0.0
H1800 H 0.39739 0.45662 0.06293 0.0
H1801 H 0.41165 0.48854 0.06248 0.0
H1802 H 0.42213 0.43814 0.02267 0.0
H1803 H 0.45524 0.51456 0.02231 0.0
H1804 H 0.36061 0.4253 0.02695 0.0
H1805 H 0.37391 0.42475 0.0445 0.0
H1806 H 0.38055 0.41287 0.02803 0.0
H1807 H 0.40037 0.51708 0.02756 0.0
H1808 H 0.43326 0.53424 0.02751 0.0
H1809 H 0.41703 0.52105 0.04453 0.0
C1810 C 0.52883 0.87135 0.06355 0.0
C1811 C 0.54867 0.86909 0.05873 0.0
C1812 C 0.52272 0.88699 0.05647 0.0
C1813 C 0.53653 0.90042 0.0441 0.0
C1814 C 0.55624 0.89789 0.03895 0.0
C1815 C 0.5622 0.8824 0.0464 0.0
C1816 C 0.50169 0.88938 0.06236 0.0
C1817 C 0.57121 0.91177 0.02569 0.0
C1818 C 0.50766 0.92654 0.0188 0.0
C1819 C 0.51933 0.95048 0.02366 0.0
C1820 C 0.51342 0.91013 0.02513 0.0
C1821 C 0.53081 0.91771 0.03687 0.0
C1822 C 0.54245 0.94176 0.04196 0.0
C1823 C 0.5367 0.95789 0.03523 0.0
C1824 C 0.50081 0.88468 0.0193 0.0
C1825 C 0.5608 0.95041 0.05464 0.0
H1826 H 0.51793 0.86078 0.07285 0.0
H1827 H 0.57774 0.88103 0.04269 0.0
H1828 H 0.50828 0.90819 0.06586 0.0
H1829 H 0.48786 0.88493 0.05341 0.0
H1830 H 0.49269 0.87755 0.07204 0.0
H1831 H 0.58511 0.90682 0.0226 0.0
H1832 H 0.55913 0.90856 0.01589 0.0
H1833 H 0.58067 0.93124 0.02823 0.0
H1834 H 0.49383 0.92048 0.01013 0.0
H1835 H 0.54575 0.97629 0.03916 0.0
H1836 H 0.4901 0.87217 0.02834 0.0
H1837 H 0.51457 0.87991 0.0156 0.0
H1838 H 0.48832 0.88188 0.00977 0.0
H1839 H 0.55217 0.93986 0.06483 0.0
H1840 H 0.56816 0.96968 0.05729 0.0
H1841 H 0.57624 0.94762 0.05177 0.0
C1842 C 0.02465 0.22198 0.39478 0.0
C1843 C 0.00458 0.20348 0.38723 0.0
C1844 C 0.04524 0.23888 0.38697 0.0
C1845 C 0.04558 0.23755 0.37117 0.0
C1846 C 0.02552 0.21865 0.36348 0.0
C1847 C 0.00532 0.20167 0.37164 0.0
C1848 C 0.06645 0.25844 0.39564 0.0
C1849 C 0.02509 0.21682 0.34666 0.0
C1850 C 0.08766 0.29832 0.35447 0.0
C1851 C 0.10883 0.29711 0.35197 0.0
C1852 C 0.0663 0.27839 0.35964 0.0
C1853 C 0.06636 0.25693 0.36282 0.0
C1854 C 0.08738 0.25528 0.35962 0.0
C1855 C 0.10842 0.27545 0.35425 0.0
C1856 C 0.04412 0.28078 0.36253 0.0
C1857 C 0.08837 0.23285 0.36287 0.0
H1858 H 0.02421 0.22321 0.40686 0.0
H1859 H 0.98975 0.18739 0.36578 0.0
H1860 H 0.08366 0.25897 0.3925 0.0
H1861 H 0.0685 0.27608 0.39283 0.0
H1862 H 0.06406 0.25596 0.40791 0.0
H1863 H 0.00867 0.20045 0.3424 0.0
H1864 H 0.02536 0.23272 0.34177 0.0
H1865 H 0.0416 0.21673 0.34264 0.0
H1866 H 0.08807 0.31515 0.35278 0.0
H1867 H 0.12487 0.27456 0.35267 0.0
H1868 H 0.04141 0.28112 0.37475 0.0
H1869 H 0.02752 0.26517 0.35778 0.0
H1870 H 0.04596 0.2974 0.35766 0.0
H1871 H 0.08996 0.23136 0.37512 0.0
H1872 H 0.10422 0.23302 0.35743 0.0
H1873 H 0.07141 0.21668 0.35905 0.0
C1874 C 0.78601 0.8019 0.40041 0.0
C1875 C 0.80478 0.80128 0.39248 0.0
C1876 C 0.76813 0.80502 0.39303 0.0
C1877 C 0.76862 0.80708 0.37725 0.0
C1878 C 0.78769 0.8067 0.36921 0.0
C1879 C 0.80563 0.80405 0.37692 0.0
C1880 C 0.74848 0.80579 0.40212 0.0
C1881 C 0.78878 0.80845 0.35241 0.0
C1882 C 0.70659 0.78832 0.35962 0.0
C1883 C 0.70806 0.8104 0.35702 0.0
C1884 C 0.72657 0.78704 0.36546 0.0
C1885 C 0.74846 0.80839 0.36922 0.0
C1886 C 0.75024 0.83079 0.36626 0.0
C1887 C 0.73001 0.83151 0.36024 0.0
C1888 C 0.72394 0.76276 0.36807 0.0
C1889 C 0.77307 0.85403 0.37011 0.0
H1890 H 0.78539 0.80003 0.41246 0.0
H1891 H 0.81997 0.8034 0.3707 0.0
H1892 H 0.74776 0.82223 0.39952 0.0
H1893 H 0.73042 0.79023 0.39915 0.0
H1894 H 0.75149 0.80544 0.41433 0.0
H1895 H 0.80483 0.80803 0.34779 0.0
H1896 H 0.77196 0.79336 0.34747 0.0
H1897 H 0.78963 0.8253 0.34891 0.0
H1898 H 0.68958 0.77196 0.35725 0.0
H1899 H 0.73115 0.84864 0.35863 0.0
H1900 H 0.7243 0.7598 0.38024 0.0
H1901 H 0.73946 0.76189 0.36302 0.0
H1902 H 0.70665 0.74801 0.36331 0.0
H1903 H 0.77537 0.85585 0.38243 0.0
H1904 H 0.77244 0.86982 0.36576 0.0
H1905 H 0.78937 0.85416 0.36551 0.0
C1906 C 0.19567 0.98648 0.39895 0.0
C1907 C 0.21396 0.00828 0.39325 0.0
C1908 C 0.19034 0.96469 0.39222 0.0
C1909 C 0.20334 0.96481 0.37934 0.0
C1910 C 0.22168 0.98683 0.37346 0.0
C1911 C 0.22694 0.00833 0.38059 0.0
C1912 C 0.17094 0.94154 0.39894 0.0
C1913 C 0.23559 0.98766 0.35959 0.0
C1914 C 0.20513 0.9085 0.36924 0.0
C1915 C 0.18672 0.89808 0.3583 0.0
C1916 C 0.2107 0.93021 0.37621 0.0
C1917 C 0.19772 0.94188 0.37202 0.0
C1918 C 0.17918 0.93153 0.36096 0.0
C1919 C 0.17372 0.90962 0.35437 0.0
C1920 C 0.23035 0.94056 0.38812 0.0
C1921 C 0.16509 0.94355 0.35609 0.0
H1922 H 0.1858 0.98651 0.40882 0.0
H1923 H 0.24094 0.02526 0.37613 0.0
H1924 H 0.15616 0.93139 0.39065 0.0
H1925 H 0.17886 0.93014 0.40191 0.0
H1926 H 0.16281 0.94455 0.40912 0.0
H1927 H 0.249 0.00627 0.35632 0.0
H1928 H 0.24545 0.97772 0.36145 0.0
H1929 H 0.22268 0.97874 0.35015 0.0
H1930 H 0.2152 0.89969 0.37243 0.0
H1931 H 0.15911 0.90151 0.34619 0.0
H1932 H 0.22265 0.94272 0.39874 0.0
H1933 H 0.24503 0.9586 0.38479 0.0
H1934 H 0.23857 0.92913 0.39018 0.0
H1935 H 0.15516 0.94539 0.36573 0.0
H1936 H 0.15168 0.93342 0.34705 0.0
H1937 H 0.17786 0.96186 0.35205 0.0
C1938 C 0.54021 0.67985 0.28049 0.0
C1939 C 0.53658 0.65813 0.28619 0.0
C1940 C 0.55776 0.70182 0.28681 0.0
C1941 C 0.57157 0.702 0.29936 0.0
C1942 C 0.56796 0.68007 0.30513 0.0
C1943 C 0.55069 0.65839 0.29836 0.0
C1944 C 0.56141 0.72482 0.28014 0.0
C1945 C 0.58192 0.67949 0.31869 0.0
C1946 C 0.63037 0.75893 0.31006 0.0
C1947 C 0.62227 0.76865 0.32122 0.0
C1948 C 0.61403 0.73741 0.3027 0.0
C1949 C 0.58911 0.72509 0.30679 0.0
C1950 C 0.58083 0.73485 0.31799 0.0
C1951 C 0.5974 0.75666 0.32486 0.0
C1952 C 0.62342 0.72789 0.29053 0.0
C1953 C 0.55449 0.72217 0.32283 0.0
H1954 H 0.52942 0.67962 0.27099 0.0
H1955 H 0.54774 0.64155 0.30281 0.0
H1956 H 0.55652 0.73457 0.28842 0.0
H1957 H 0.5809 0.73667 0.27731 0.0
H1958 H 0.55018 0.72163 0.2699 0.0
H1959 H 0.57713 0.66097 0.32171 0.0
H1960 H 0.60182 0.69006 0.31662 0.0
H1961 H 0.57804 0.68786 0.32837 0.0
H1962 H 0.64947 0.76813 0.30702 0.0
H1963 H 0.59073 0.7643 0.33308 0.0
H1964 H 0.61307 0.72549 0.28001 0.0
H1965 H 0.62055 0.71006 0.29366 0.0
H1966 H 0.64315 0.73999 0.28835 0.0
H1967 H 0.5424 0.71963 0.31316 0.0
H1968 H 0.55101 0.73216 0.33173 0.0
H1969 H 0.5493 0.70412 0.32708 0.0
C1970 C 0.31965 0.86715 0.28334 0.0
C1971 C 0.33913 0.8684 0.29162 0.0
C1972 C 0.29827 0.86368 0.29038 0.0
C1973 C 0.29641 0.8619 0.30616 0.0
C1974 C 0.31599 0.86302 0.31456 0.0
C1975 C 0.33696 0.866 0.3072 0.0
C1976 C 0.27773 0.86213 0.28091 0.0
C1977 C 0.31503 0.86157 0.33136 0.0
C1978 C 0.25162 0.879 0.32256 0.0
C1979 C 0.23093 0.85661 0.32503 0.0
C1980 C 0.27341 0.88094 0.3172 0.0
C1981 C 0.27441 0.85996 0.31379 0.0
C1982 C 0.25371 0.83726 0.31665 0.0
C1983 C 0.23222 0.83587 0.32217 0.0
C1984 C 0.2951 0.90552 0.31467 0.0
C1985 C 0.25376 0.81437 0.31318 0.0
H1986 H 0.32108 0.8687 0.27128 0.0
H1987 H 0.352 0.86711 0.31368 0.0
H1988 H 0.26049 0.84539 0.28339 0.0
H1989 H 0.27484 0.87733 0.28364 0.0
H1990 H 0.28143 0.86251 0.26876 0.0
H1991 H 0.33169 0.86267 0.3363 0.0
H1992 H 0.3129 0.8764 0.33601 0.0
H1993 H 0.29896 0.84451 0.33483 0.0
H1994 H 0.2506 0.89506 0.32462 0.0
H1995 H 0.21615 0.81852 0.32363 0.0
H1996 H 0.2987 0.90843 0.30252 0.0
H1997 H 0.31166 0.907 0.32 0.0
H1998 H 0.29218 0.91997 0.31919 0.0
H1999 H 0.25423 0.81226 0.30089 0.0
H2000 H 0.23736 0.79837 0.31761 0.0
H2001 H 0.27027 0.81499 0.31794 0.0
C2002 C 0.14847 0.46669 0.28308 0.0
C2003 C 0.12791 0.46814 0.28719 0.0
C2004 C 0.154 0.45063 0.29015 0.0
C2005 C 0.13883 0.43606 0.30178 0.0
C2006 C 0.11834 0.43785 0.30619 0.0
C2007 C 0.11297 0.45373 0.29872 0.0
C2008 C 0.17574 0.44887 0.28496 0.0
C2009 C 0.10204 0.42292 0.31874 0.0
C2010 C 0.13784 0.37808 0.31019 0.0
C2011 C 0.1539 0.3847 0.32244 0.0
C2012 C 0.13292 0.39467 0.30332 0.0
C2013 C 0.14395 0.41837 0.309 0.0
C2014 C 0.16001 0.42516 0.32142 0.0
C2015 C 0.16507 0.40834 0.32785 0.0
C2016 C 0.11608 0.3869 0.28988 0.0
C2017 C 0.17187 0.45019 0.32791 0.0
H2018 H 0.15989 0.47775 0.27408 0.0
H2019 H 0.09721 0.45508 0.30197 0.0
H2020 H 0.18847 0.45239 0.29444 0.0
H2021 H 0.16961 0.43046 0.28082 0.0
H2022 H 0.18585 0.4617 0.2759 0.0
H2023 H 0.08754 0.4273 0.32127 0.0
H2024 H 0.09325 0.40364 0.31574 0.0
H2025 H 0.11305 0.42572 0.32901 0.0
H2026 H 0.12923 0.35993 0.30582 0.0
H2027 H 0.17794 0.41383 0.33704 0.0
H2028 H 0.12572 0.39839 0.2802 0.0
H2029 H 0.10012 0.38912 0.29223 0.0
H2030 H 0.10935 0.36793 0.28668 0.0
H2031 H 0.18351 0.46335 0.3194 0.0
H2032 H 0.1833 0.45236 0.3379 0.0
H2033 H 0.15767 0.45463 0.33112 0.0
C2034 C 0.3336 0.46832 0.3079 0.0
C2035 C 0.33498 0.46727 0.29225 0.0
C2036 C 0.31321 0.45098 0.31572 0.0
C2037 C 0.29343 0.43234 0.30772 0.0
C2038 C 0.29423 0.43168 0.29192 0.0
C2039 C 0.31503 0.44892 0.28442 0.0
C2040 C 0.31311 0.4522 0.33257 0.0
C2041 C 0.27335 0.41232 0.28293 0.0
C2042 C 0.25142 0.37109 0.32394 0.0
C2043 C 0.23021 0.37214 0.32659 0.0
C2044 C 0.2727 0.39114 0.31878 0.0
C2045 C 0.2725 0.41258 0.31576 0.0
C2046 C 0.25138 0.41403 0.31903 0.0
C2047 C 0.23045 0.39375 0.32439 0.0
C2048 C 0.29499 0.38897 0.31584 0.0
C2049 C 0.25024 0.43642 0.31592 0.0
H2050 H 0.34856 0.48265 0.3141 0.0
H2051 H 0.31586 0.44755 0.27239 0.0
H2052 H 0.29652 0.45226 0.33646 0.0
H2053 H 0.31257 0.43607 0.33728 0.0
H2054 H 0.32943 0.46835 0.33712 0.0
H2055 H 0.27592 0.41541 0.27071 0.0
H2056 H 0.27158 0.39469 0.2854 0.0
H2057 H 0.25592 0.41131 0.28611 0.0
H2058 H 0.25115 0.35431 0.32557 0.0
H2059 H 0.21395 0.39452 0.32608 0.0
H2060 H 0.31145 0.40441 0.32085 0.0
H2061 H 0.29798 0.3892 0.30363 0.0
H2062 H 0.29313 0.37217 0.32042 0.0
H2063 H 0.26702 0.45257 0.31996 0.0
H2064 H 0.23418 0.43597 0.32126 0.0
H2065 H 0.24896 0.43822 0.30368 0.0
C2066 C 0.55601 0.86478 0.28335 0.0
C2067 C 0.53768 0.86602 0.29147 0.0
C2068 C 0.57403 0.86163 0.29055 0.0
C2069 C 0.57419 0.86009 0.30634 0.0
C2070 C 0.55569 0.86113 0.3146 0.0
C2071 C 0.53761 0.86382 0.3071 0.0
C2072 C 0.59321 0.86036 0.28123 0.0
C2073 C 0.55515 0.85971 0.33141 0.0
C2074 C 0.61252 0.83512 0.32308 0.0
C2075 C 0.6347 0.85611 0.32611 0.0
C2076 C 0.59234 0.83608 0.3172 0.0
C2077 C 0.59442 0.85858 0.31413 0.0
C2078 C 0.61658 0.87981 0.31765 0.0
C2079 C 0.63647 0.8783 0.32341 0.0
C2080 C 0.5692 0.81296 0.31365 0.0
C2081 C 0.61955 0.90419 0.3149 0.0
H2082 H 0.55668 0.86678 0.27133 0.0
H2083 H 0.52334 0.86416 0.31356 0.0
H2084 H 0.61144 0.87592 0.28388 0.0
H2085 H 0.59389 0.84394 0.28394 0.0
H2086 H 0.58972 0.86032 0.26905 0.0
H2087 H 0.53998 0.86144 0.33627 0.0
H2088 H 0.55309 0.84234 0.33489 0.0
H2089 H 0.57264 0.87412 0.33613 0.0
H2090 H 0.61114 0.81791 0.32478 0.0
H2091 H 0.65365 0.89455 0.32562 0.0
H2092 H 0.56647 0.81093 0.30136 0.0
H2093 H 0.55319 0.81319 0.31844 0.0
H2094 H 0.56969 0.79711 0.31802 0.0
H2095 H 0.63717 0.91889 0.31933 0.0
H2096 H 0.60444 0.90553 0.3202 0.0
H2097 H 0.61865 0.90682 0.30273 0.0
C2098 C 0.12278 0.65892 0.30106 0.0
C2099 C 0.12589 0.65837 0.28556 0.0
C2100 C 0.12793 0.68021 0.30845 0.0
C2101 C 0.137 0.7016 0.30021 0.0
C2102 C 0.14052 0.70131 0.28462 0.0
C2103 C 0.13461 0.67966 0.27746 0.0
C2104 C 0.12357 0.67979 0.32505 0.0
C2105 C 0.15054 0.72388 0.27551 0.0
C2106 C 0.13083 0.75341 0.31521 0.0
C2107 C 0.15395 0.76809 0.32155 0.0
C2108 C 0.12487 0.73142 0.30852 0.0
C2109 C 0.14271 0.72431 0.30785 0.0
C2110 C 0.16611 0.73912 0.31423 0.0
C2111 C 0.17135 0.76072 0.32117 0.0
C2112 C 0.09952 0.71579 0.30219 0.0
C2113 C 0.18577 0.7324 0.31347 0.0
H2114 H 0.1165 0.64274 0.3075 0.0
H2115 H 0.13666 0.67943 0.26546 0.0
H2116 H 0.14094 0.69186 0.33098 0.0
H2117 H 0.11084 0.68652 0.32739 0.0
H2118 H 0.11582 0.66154 0.32976 0.0
H2119 H 0.15314 0.7208 0.2636 0.0
H2120 H 0.13796 0.73116 0.27603 0.0
H2121 H 0.16834 0.73777 0.28023 0.0
H2122 H 0.11727 0.75896 0.31563 0.0
H2123 H 0.1893 0.77211 0.32601 0.0
H2124 H 0.09107 0.69772 0.30722 0.0
H2125 H 0.10048 0.71347 0.28996 0.0
H2126 H 0.08746 0.72342 0.30423 0.0
H2127 H 0.17943 0.71483 0.31884 0.0
H2128 H 0.20298 0.74591 0.31904 0.0
H2129 H 0.18972 0.73054 0.30163 0.0
C2130 C 0.80307 0.98611 0.40235 0.0
C2131 C 0.80679 0.008 0.39676 0.0
C2132 C 0.78534 0.96415 0.39611 0.0
C2133 C 0.77138 0.96397 0.38367 0.0
C2134 C 0.77497 0.98589 0.37793 0.0
C2135 C 0.79234 0.00757 0.38466 0.0
C2136 C 0.78178 0.94113 0.4027 0.0
C2137 C 0.76075 0.98646 0.36451 0.0
C2138 C 0.74522 0.90938 0.35813 0.0
C2139 C 0.72038 0.89743 0.36183 0.0
C2140 C 0.76188 0.93114 0.365 0.0
C2141 C 0.75374 0.9409 0.37628 0.0
C2142 C 0.72885 0.92862 0.38044 0.0
C2143 C 0.71241 0.90714 0.37307 0.0
C2144 C 0.78818 0.94381 0.36004 0.0
C2145 C 0.71961 0.9381 0.39272 0.0
H2146 H 0.81431 0.98604 0.41148 0.0
H2147 H 0.79452 0.0242 0.38041 0.0
H2148 H 0.76225 0.92907 0.40537 0.0
H2149 H 0.78701 0.93164 0.39444 0.0
H2150 H 0.7928 0.94426 0.41303 0.0
H2151 H 0.76577 0.005 0.36137 0.0
H2152 H 0.76411 0.97772 0.35481 0.0
H2153 H 0.7409 0.97623 0.36681 0.0
H2154 H 0.75181 0.90175 0.34985 0.0
H2155 H 0.69333 0.89796 0.37617 0.0
H2156 H 0.8004 0.9465 0.36967 0.0
H2157 H 0.79326 0.96179 0.35572 0.0
H2158 H 0.79158 0.93374 0.35117 0.0
H2159 H 0.73007 0.94045 0.40318 0.0
H2160 H 0.6999 0.92602 0.39497 0.0
H2161 H 0.72247 0.95596 0.38966 0.0
C2162 C 1.00123 0.79034 0.37387 0.0
C2163 C 1.00186 0.79694 0.38898 0.0
C2164 C 0.02243 0.7942 0.36637 0.0
C2165 C 0.04492 0.80407 0.37421 0.0
C2166 C 0.04586 0.81084 0.38939 0.0
C2167 C 0.02463 0.80779 0.39642 0.0
C2168 C 0.02075 0.78798 0.34996 0.0
C2169 C 0.0692 0.82064 0.39841 0.0
C2170 C 0.09175 0.78736 0.36112 0.0
C2171 C 0.11042 0.80905 0.35549 0.0
C2172 C 0.07036 0.7855 0.36707 0.0
C2173 C 0.06704 0.80566 0.36699 0.0
C2174 C 0.08542 0.82741 0.36076 0.0
C2175 C 0.10722 0.82906 0.35556 0.0
C2176 C 0.05163 0.76211 0.37388 0.0
C2177 C 0.08216 0.84897 0.35968 0.0
H2178 H 0.9841 0.78172 0.36779 0.0
H2179 H 0.02609 0.81392 0.40785 0.0
H2180 H 0.02989 0.80484 0.34352 0.0
H2181 H 0.03024 0.77786 0.34745 0.0
H2182 H 1.00155 0.77734 0.34597 0.0
H2183 H 0.06685 0.82459 0.41018 0.0
H2184 H 0.07568 0.80751 0.39836 0.0
H2185 H 0.0837 0.8373 0.3933 0.0
H2186 H 0.09425 0.77192 0.36133 0.0
H2187 H 0.1218 0.84608 0.35172 0.0
H2188 H 0.03388 0.75507 0.36797 0.0
H2189 H 0.0487 0.76505 0.38575 0.0
H2190 H 0.0572 0.7483 0.37338 0.0
H2191 H 0.06481 0.84398 0.35374 0.0
H2192 H 0.09742 0.86398 0.35365 0.0
H2193 H 0.08095 0.85531 0.37101 0.0
C2194 C 0.2225 0.21231 0.37933 0.0
C2195 C 0.20837 0.1988 0.39144 0.0
C2196 C 0.21755 0.22863 0.37208 0.0
C2197 C 0.19826 0.23184 0.3772 0.0
C2198 C 0.18389 0.21831 0.38939 0.0
C2199 C 0.189 0.20182 0.39629 0.0
C2200 C 0.23311 0.24261 0.35902 0.0
C2201 C 0.16328 0.22143 0.39524 0.0
C2202 C 0.2013 0.29067 0.36829 0.0
C2203 C 0.18449 0.28402 0.35646 0.0
C2204 C 0.20582 0.27382 0.37521 0.0
C2205 C 0.19347 0.2498 0.37003 0.0
C2206 C 0.17658 0.24297 0.35805 0.0
C2207 C 0.17208 0.2601 0.35153 0.0
C2208 C 0.22369 0.28169 0.38812 0.0
C2209 C 0.16325 0.21757 0.35212 0.0
H2210 H 0.23776 0.21043 0.37565 0.0
H2211 H 0.17772 0.1912 0.40545 0.0
H2212 H 0.2214 0.24 0.34912 0.0
H2213 H 0.243 0.26202 0.36176 0.0
H2214 H 0.24669 0.2372 0.35598 0.0
H2215 H 0.15382 0.2095 0.4048 0.0
H2216 H 0.17044 0.24026 0.39889 0.0
H2217 H 0.14972 0.21763 0.38622 0.0
H2218 H 0.21089 0.30906 0.37227 0.0
H2219 H 0.15866 0.25462 0.34265 0.0
H2220 H 0.23888 0.27845 0.38538 0.0
H2221 H 0.21453 0.27098 0.39816 0.0
H2222 H 0.23148 0.30096 0.39094 0.0
H2223 H 0.17659 0.21226 0.34839 0.0
H2224 H 0.15095 0.21528 0.34258 0.0
H2225 H 0.15222 0.20512 0.36111 0.0
C2226 C 0.68593 0.56209 0.72715 0.0
C2227 C 0.66945 0.5394 0.72124 0.0
C2228 C 0.70651 0.57846 0.71908 0.0
C2229 C 0.71089 0.57201 0.70475 0.0
C2230 C 0.69436 0.54916 0.69869 0.0
C2231 C 0.67387 0.53314 0.707 0.0
C2232 C 0.72365 0.60266 0.72596 0.0
C2233 C 0.69845 0.54148 0.68354 0.0
C2234 C 0.75389 0.62518 0.6811 0.0
C2235 C 0.77627 0.62656 0.68403 0.0
C2236 C 0.73213 0.60654 0.68697 0.0
C2237 C 0.73297 0.58928 0.6963 0.0
C2238 C 0.75554 0.59019 0.69881 0.0
C2239 C 0.77698 0.60906 0.69282 0.0
C2240 C 0.70847 0.60613 0.68389 0.0
C2241 C 0.75729 0.57205 0.70851 0.0
H2242 H 0.68292 0.56698 0.73821 0.0
H2243 H 0.66113 0.51576 0.70225 0.0
H2244 H 0.74213 0.60492 0.72725 0.0
H2245 H 0.72532 0.61707 0.7185 0.0
H2246 H 0.71741 0.60508 0.73709 0.0
H2247 H 0.68258 0.52431 0.6797 0.0
H2248 H 0.70216 0.55542 0.67512 0.0
H2249 H 0.71469 0.53921 0.68409 0.0
H2250 H 0.75354 0.63916 0.67462 0.0
H2251 H 0.79448 0.61067 0.69548 0.0
H2252 H 0.70208 0.61059 0.69431 0.0
H2253 H 0.69414 0.58796 0.68027 0.0
H2254 H 0.71048 0.61913 0.67515 0.0
H2255 H 0.75391 0.5748 0.72032 0.0
H2256 H 0.77551 0.57351 0.70783 0.0
H2257 H 0.74317 0.55362 0.7052 0.0
C2258 C 0.47031 0.14069 0.7088 0.0
C2259 C 0.46979 0.13853 0.72439 0.0
C2260 C 0.45218 0.143 0.70109 0.0
C2261 C 0.43329 0.14367 0.70916 0.0
C2262 C 0.43315 0.14223 0.72497 0.0
C2263 C 0.45121 0.13941 0.73236 0.0
C2264 C 0.45286 0.14404 0.68427 0.0
C2265 C 0.41371 0.14335 0.73408 0.0
C2266 C 0.39463 0.16778 0.69194 0.0
C2267 C 0.37255 0.14663 0.68902 0.0
C2268 C 0.4149 0.16714 0.69793 0.0
C2269 C 0.41303 0.14479 0.70117 0.0
C2270 C 0.391 0.12338 0.69774 0.0
C2271 C 0.37097 0.12459 0.69192 0.0
C2272 C 0.43789 0.19044 0.70143 0.0
C2273 C 0.3883 0.09915 0.70065 0.0
H2274 H 0.48451 0.13981 0.70258 0.0
H2275 H 0.45086 0.13798 0.74443 0.0
H2276 H 0.43612 0.12848 0.67962 0.0
H2277 H 0.45315 0.1605 0.68049 0.0
H2278 H 0.46902 0.14384 0.67964 0.0
H2279 H 0.41698 0.14342 0.74629 0.0
H2280 H 0.41297 0.15971 0.73127 0.0
H2281 H 0.39558 0.12772 0.73134 0.0
H2282 H 0.39585 0.18489 0.69011 0.0
H2283 H 0.35386 0.10822 0.68978 0.0
H2284 H 0.45401 0.19036 0.69668 0.0
H2285 H 0.44059 0.19261 0.71372 0.0
H2286 H 0.4372 0.20615 0.69698 0.0
H2287 H 0.40367 0.09802 0.69559 0.0
H2288 H 0.37088 0.0843 0.69611 0.0
H2289 H 0.3889 0.0966 0.71286 0.0
C2290 C 0.86601 0.32804 0.73077 0.0
C2291 C 0.88597 0.34909 0.72547 0.0
C2292 C 0.85934 0.30581 0.72416 0.0
C2293 C 0.87268 0.3048 0.71179 0.0
C2294 C 0.89266 0.3261 0.70628 0.0
C2295 C 0.89924 0.34801 0.7133 0.0
C2296 C 0.83823 0.2834 0.73052 0.0
C2297 C 0.90702 0.32574 0.69293 0.0
C2298 C 0.87138 0.24668 0.70287 0.0
C2299 C 0.8538 0.23706 0.6914 0.0
C2300 C 0.87746 0.26858 0.70972 0.0
C2301 C 0.86605 0.2814 0.70479 0.0
C2302 C 0.84835 0.27187 0.69321 0.0
C2303 C 0.84217 0.24962 0.68681 0.0
C2304 C 0.89606 0.27795 0.72226 0.0
C2305 C 0.83604 0.2852 0.68751 0.0
H2306 H 0.85588 0.32896 0.74025 0.0
H2307 H 0.91451 0.3644 0.70914 0.0
H2308 H 0.82398 0.27398 0.72182 0.0
H2309 H 0.84455 0.27095 0.73412 0.0
H2310 H 0.82984 0.28729 0.74023 0.0
H2311 H 0.92152 0.34398 0.68973 0.0
H2312 H 0.91564 0.31481 0.69541 0.0
H2313 H 0.89459 0.31726 0.68322 0.0
H2314 H 0.88039 0.23709 0.7066 0.0
H2315 H 0.82815 0.24212 0.67825 0.0
H2316 H 0.888 0.28107 0.73243 0.0
H2317 H 0.91194 0.2954 0.71912 0.0
H2318 H 0.90269 0.26542 0.72507 0.0
H2319 H 0.82593 0.28793 0.69668 0.0
H2320 H 0.82309 0.27555 0.67818 0.0
H2321 H 0.84997 0.30318 0.68356 0.0
C2322 C 0.21379 0.99473 0.63067 0.0
C2323 C 0.20033 0.99441 0.61812 0.0
C2324 C 0.23052 0.0164 0.63766 0.0
C2325 C 0.23425 0.03829 0.63174 0.0
C2326 C 0.22084 0.03806 0.61897 0.0
C2327 C 0.20381 0.01607 0.61241 0.0
C2328 C 0.24405 0.01587 0.65145 0.0
C2329 C 0.22465 0.06103 0.61216 0.0
C2330 C 0.2611 0.09334 0.65696 0.0
C2331 C 0.28597 0.10473 0.65336 0.0
C2332 C 0.24414 0.07165 0.65012 0.0
C2333 C 0.25205 0.06141 0.63901 0.0
C2334 C 0.27699 0.07313 0.63498 0.0
C2335 C 0.29369 0.09452 0.64229 0.0
C2336 C 0.21779 0.05957 0.65493 0.0
C2337 C 0.28603 0.06307 0.62292 0.0
H2338 H 0.21094 0.97794 0.63514 0.0
H2339 H 0.19353 0.01579 0.60262 0.0
H2340 H 0.26399 0.02585 0.64944 0.0
H2341 H 0.24046 0.0249 0.66089 0.0
H2342 H 0.23867 0.99733 0.65482 0.0
H2343 H 0.21316 0.05778 0.60204 0.0
H2344 H 0.22031 0.07119 0.62044 0.0
H2345 H 0.24409 0.07252 0.60908 0.0
H2346 H 0.25475 0.10135 0.66514 0.0
H2347 H 0.31279 0.10324 0.63928 0.0
H2348 H 0.21222 0.04154 0.65937 0.0
H2349 H 0.20582 0.05704 0.6452 0.0
H2350 H 0.21459 0.06998 0.66366 0.0
H2351 H 0.28291 0.04522 0.62626 0.0
H2352 H 0.30578 0.07487 0.62066 0.0
H2353 H 0.27564 0.06055 0.61241 0.0
C2354 C 0.98446 0.20242 0.61697 0.0
C2355 C 0.00423 0.20411 0.62513 0.0
C2356 C 0.96327 0.1991 0.62417 0.0
C2357 C 0.96193 0.19794 0.63998 0.0
C2358 C 0.98177 0.19942 0.64827 0.0
C2359 C 0.00256 0.20225 0.64075 0.0
C2360 C 0.94241 0.19714 0.61484 0.0
C2361 C 0.98132 0.19865 0.6651 0.0
C2362 C 0.91797 0.2162 0.65611 0.0
C2363 C 0.89725 0.19401 0.65896 0.0
C2364 C 0.93955 0.21773 0.65075 0.0
C2365 C 0.94028 0.1965 0.64774 0.0
C2366 C 0.91958 0.17402 0.65104 0.0
C2367 C 0.8983 0.17305 0.65658 0.0
C2368 C 0.96129 0.2421 0.64778 0.0
C2369 C 0.91939 0.1509 0.64797 0.0
H2370 H 0.98552 0.20355 0.60489 0.0
H2371 H 0.01784 0.20368 0.64712 0.0
H2372 H 0.92523 0.18059 0.61772 0.0
H2373 H 0.93971 0.21253 0.6173 0.0
H2374 H 0.94564 0.19683 0.60267 0.0
H2375 H 0.99797 0.19957 0.66992 0.0
H2376 H 0.97973 0.21389 0.66958 0.0
H2377 H 0.96514 0.18194 0.66892 0.0
H2378 H 0.91712 0.23242 0.65785 0.0
H2379 H 0.88221 0.15583 0.65842 0.0
H2380 H 0.9645 0.24448 0.63557 0.0
H2381 H 0.97795 0.24367 0.65301 0.0
H2382 H 0.95865 0.25682 0.65211 0.0
H2383 H 0.91945 0.14818 0.63572 0.0
H2384 H 0.90308 0.1352 0.65274 0.0
H2385 H 0.936 0.15165 0.65266 0.0
C2386 C 0.76366 0.77792 0.63602 0.0
C2387 C 0.78267 0.80025 0.63136 0.0
C2388 C 0.76855 0.76131 0.64295 0.0
C2389 C 0.79303 0.76742 0.64568 0.0
C2390 C 0.81225 0.79043 0.64189 0.0
C2391 C 0.80688 0.80641 0.63458 0.0
C2392 C 0.74759 0.73676 0.64658 0.0
C2393 C 0.8386 0.79778 0.6449 0.0
C2394 C 0.80636 0.72761 0.6705 0.0
C2395 C 0.81117 0.71457 0.65983 0.0
C2396 C 0.80047 0.74502 0.66615 0.0
C2397 C 0.79872 0.74889 0.65075 0.0
C2398 C 0.80319 0.73547 0.63996 0.0
C2399 C 0.80989 0.71894 0.64466 0.0
C2400 C 0.79649 0.75947 0.67798 0.0
C2401 C 0.8013 0.7388 0.6234 0.0
H2402 H 0.74487 0.77315 0.63399 0.0
H2403 H 0.82182 0.8234 0.6309 0.0
H2404 H 0.74845 0.72319 0.63932 0.0
H2405 H 0.74895 0.73212 0.65831 0.0
H2406 H 0.72957 0.73546 0.64488 0.0
H2407 H 0.85102 0.81728 0.64331 0.0
H2408 H 0.84091 0.79312 0.65647 0.0
H2409 H 0.84425 0.78794 0.63719 0.0
H2410 H 0.80705 0.72415 0.68222 0.0
H2411 H 0.8149 0.71 0.63641 0.0
H2412 H 0.7778 0.75675 0.67695 0.0
H2413 H 0.80944 0.77883 0.67635 0.0
H2414 H 0.79901 0.75457 0.68946 0.0
H2415 H 0.78337 0.73709 0.6207 0.0
H2416 H 0.80342 0.72554 0.61654 0.0
H2417 H 0.81563 0.75703 0.62012 0.0
C2418 C 0.98223 0.79021 0.61617 0.0
C2419 C 0.00503 0.79898 0.62326 0.0
C2420 C 0.96047 0.7739 0.62326 0.0
C2421 C 0.96122 0.76677 0.63809 0.0
C2422 C 0.98398 0.77595 0.64551 0.0
C2423 C 0.00557 0.79162 0.63796 0.0
C2424 C 0.93665 0.76401 0.61474 0.0
C2425 C 0.9856 0.76967 0.66152 0.0
C2426 C 0.89925 0.7394 0.65672 0.0
C2427 C 0.89116 0.71495 0.65532 0.0
C2428 C 0.92293 0.75659 0.65235 0.0
C2429 C 0.93812 0.74903 0.64547 0.0
C2430 C 0.93 0.72424 0.64424 0.0
C2431 C 0.90666 0.7075 0.64931 0.0
C2432 C 0.93134 0.78279 0.6546 0.0
C2433 C 0.94535 0.71536 0.63674 0.0
H2434 H 0.98123 0.79611 0.60503 0.0
H2435 H 0.02288 0.79784 0.64361 0.0
H2436 H 0.92718 0.74415 0.61449 0.0
H2437 H 0.92444 0.7692 0.62045 0.0
H2438 H 0.93929 0.77052 0.60306 0.0
H2439 H 0.00457 0.77499 0.66488 0.0
H2440 H 0.97915 0.77923 0.66888 0.0
H2441 H 0.97374 0.75021 0.66345 0.0
H2442 H 0.88692 0.74505 0.66106 0.0
H2443 H 0.89997 0.6885 0.64785 0.0
H2444 H 0.93247 0.79121 0.64365 0.0
H2445 H 0.94985 0.79214 0.65971 0.0
H2446 H 0.91875 0.78556 0.66188 0.0
H2447 H 0.94796 0.72071 0.62483 0.0
H2448 H 0.93686 0.69558 0.63729 0.0
H2449 H 0.96369 0.72366 0.64204 0.0
C2450 C 0.20313 0.20064 0.63891 0.0
C2451 C 0.20269 0.20227 0.62326 0.0
C2452 C 0.22139 0.19813 0.64628 0.0
C2453 C 0.23952 0.19666 0.63788 0.0
C2454 C 0.23886 0.19764 0.62208 0.0
C2455 C 0.22068 0.20065 0.615 0.0
C2456 C 0.2214 0.19732 0.6631 0.0
C2457 C 0.25763 0.19589 0.61264 0.0
C2458 C 0.30214 0.21473 0.65429 0.0
C2459 C 0.30014 0.1925 0.6572 0.0
C2460 C 0.28223 0.21634 0.64868 0.0
C2461 C 0.25983 0.19515 0.64553 0.0
C2462 C 0.25754 0.17263 0.6488 0.0
C2463 C 0.27775 0.17159 0.65452 0.0
C2464 C 0.28541 0.24074 0.64571 0.0
C2465 C 0.23413 0.14955 0.64563 0.0
H2466 H 0.18911 0.20127 0.64547 0.0
H2467 H 0.22093 0.20222 0.60295 0.0
H2468 H 0.21902 0.17989 0.66676 0.0
H2469 H 0.23919 0.21164 0.66754 0.0
H2470 H 0.20663 0.19962 0.66807 0.0
H2471 H 0.2538 0.19552 0.60049 0.0
H2472 H 0.27601 0.2114 0.61503 0.0
H2473 H 0.25821 0.17945 0.61547 0.0
H2474 H 0.31951 0.23092 0.65622 0.0
H2475 H 0.2762 0.15433 0.65634 0.0
H2476 H 0.27059 0.24245 0.65111 0.0
H2477 H 0.28416 0.24301 0.63352 0.0
H2478 H 0.30325 0.25544 0.64988 0.0
H2479 H 0.2184 0.15014 0.65058 0.0
H2480 H 0.23456 0.13373 0.6501 0.0
H2481 H 0.23097 0.14718 0.63338 0.0
C2482 C 0.8084 0.01517 0.61598 0.0
C2483 C 0.78778 0.99414 0.62086 0.0
C2484 C 0.81511 0.03744 0.62254 0.0
C2485 C 0.80127 0.03865 0.63454 0.0
C2486 C 0.78067 0.01755 0.63967 0.0
C2487 C 0.77396 0.99562 0.63262 0.0
C2488 C 0.83692 0.05969 0.61658 0.0
C2489 C 0.7657 0.01813 0.65261 0.0
C2490 C 0.83131 0.09314 0.66009 0.0
C2491 C 0.82012 0.10606 0.65539 0.0
C2492 C 0.82515 0.07102 0.65353 0.0
C2493 C 0.80808 0.06206 0.64159 0.0
C2494 C 0.79731 0.07536 0.63646 0.0
C2495 C 0.80322 0.09705 0.64353 0.0
C2496 C 0.8367 0.05712 0.65949 0.0
C2497 C 0.77954 0.06669 0.62347 0.0
H2498 H 0.81953 0.01426 0.60712 0.0
H2499 H 0.75773 0.97965 0.63631 0.0
H2500 H 0.8314 0.07278 0.61307 0.0
H2501 H 0.85095 0.0684 0.62549 0.0
H2502 H 0.84534 0.05576 0.6069 0.0
H2503 H 0.75093 -4e-05 0.65571 0.0
H2504 H 0.77764 0.02659 0.66252 0.0
H2505 H 0.75735 0.02916 0.64972 0.0
H2506 H 0.8449 0.10024 0.66891 0.0
H2507 H 0.79465 0.10698 0.63967 0.0
H2508 H 0.847 0.05421 0.65052 0.0
H2509 H 0.82229 0.03922 0.66325 0.0
H2510 H 0.84932 0.06643 0.66902 0.0
H2511 H 0.788 0.06346 0.61355 0.0
H2512 H 0.77364 0.0797 0.62042 0.0
H2513 H 0.76313 0.04942 0.62627 0.0
C2514 C 0.45911 0.3444 0.71455 0.0
C2515 C 0.47275 0.34463 0.72704 0.0
C2516 C 0.44189 0.3228 0.70768 0.0
C2517 C 0.43771 0.30079 0.71362 0.0
C2518 C 0.45105 0.3008 0.72635 0.0
C2519 C 0.46859 0.32267 0.73277 0.0
C2520 C 0.42832 0.32353 0.69396 0.0
C2521 C 0.44688 0.27768 0.73314 0.0
C2522 C 0.37821 0.24447 0.70323 0.0
C2523 C 0.38595 0.2341 0.69229 0.0
C2524 C 0.39488 0.26605 0.71039 0.0
C2525 C 0.4198 0.27776 0.70631 0.0
C2526 C 0.42771 0.26738 0.6953 0.0
C2527 C 0.41079 0.24554 0.68862 0.0
C2528 C 0.38586 0.27625 0.72237 0.0
C2529 C 0.45405 0.27942 0.69047 0.0
H2530 H 0.46171 0.36112 0.71016 0.0
H2531 H 0.47926 0.32249 0.7422 0.0
H2532 H 0.43157 0.31431 0.68449 0.0
H2533 H 0.4084 0.31384 0.69608 0.0
H2534 H 0.43397 0.34212 0.69058 0.0
H2535 H 0.45783 0.28072 0.74349 0.0
H2536 H 0.42729 0.26606 0.73583 0.0
H2537 H 0.45173 0.26774 0.72499 0.0
H2538 H 0.35912 0.2357 0.70629 0.0
H2539 H 0.41717 0.23741 0.68054 0.0
H2540 H 0.38938 0.29424 0.71908 0.0
H2541 H 0.39599 0.27847 0.73296 0.0
H2542 H 0.36603 0.26467 0.72448 0.0
H2543 H 0.45973 0.29753 0.68613 0.0
H2544 H 0.45718 0.26906 0.68166 0.0
H2545 H 0.46601 0.28174 0.70018 0.0
C2546 C 0.66731 0.12932 0.70645 0.0
C2547 C 0.6679 0.1361 0.72152 0.0
C2548 C 0.68856 0.1332 0.69902 0.0
C2549 C 0.71102 0.14322 0.70689 0.0
C2550 C 0.71192 0.1502 0.72202 0.0
C2551 C 0.69065 0.14718 0.72897 0.0
C2552 C 0.68696 0.12676 0.68264 0.0
C2553 C 0.73524 0.16016 0.73107 0.0
C2554 C 0.75778 0.12617 0.69435 0.0
C2555 C 0.77656 0.14777 0.6887 0.0
C2556 C 0.73636 0.12444 0.70011 0.0
C2557 C 0.73311 0.14463 0.6998 0.0
C2558 C 0.75159 0.16627 0.69352 0.0
C2559 C 0.77343 0.16781 0.68852 0.0
C2560 C 0.71755 0.10118 0.70704 0.0
C2561 C 0.7484 0.18785 0.69218 0.0
H2562 H 0.65019 0.12053 0.70037 0.0
H2563 H 0.69206 0.15346 0.74036 0.0
H2564 H 0.69666 0.14351 0.67613 0.0
H2565 H 0.696 0.11614 0.68036 0.0
H2566 H 0.6678 0.11652 0.67854 0.0
H2567 H 0.73286 0.16433 0.7428 0.0
H2568 H 0.74171 0.14703 0.7312 0.0
H2569 H 0.74976 0.17673 0.72588 0.0
H2570 H 0.76025 0.11071 0.69474 0.0
H2571 H 0.78811 0.18477 0.68467 0.0
H2572 H 0.69982 0.09409 0.7011 0.0
H2573 H 0.71462 0.10433 0.71886 0.0
H2574 H 0.72306 0.08731 0.70669 0.0
H2575 H 0.73104 0.18278 0.68623 0.0
H2576 H 0.76365 0.20269 0.68605 0.0
H2577 H 0.74725 0.19446 0.70344 0.0
C2578 C 0.87108 0.54022 0.71394 0.0
C2579 C 0.89348 0.54097 0.71236 0.0
C2580 C 0.86588 0.55566 0.70583 0.0
C2581 C 0.88353 0.5723 0.69593 0.0
C2582 C 0.90577 0.57249 0.69381 0.0
C2583 C 0.9105 0.5568 0.70207 0.0
C2584 C 0.84189 0.55485 0.70836 0.0
C2585 C 0.92503 0.59001 0.68337 0.0
C2586 C 0.86083 0.60395 0.67036 0.0
C2587 C 0.86632 0.62426 0.67901 0.0
C2588 C 0.8673 0.58724 0.67536 0.0
C2589 C 0.8797 0.59116 0.68921 0.0
C2590 C 0.88669 0.61243 0.69745 0.0
C2591 C 0.87989 0.62867 0.69226 0.0
C2592 C 0.85968 0.56479 0.66626 0.0
C2593 C 0.90016 0.61746 0.71219 0.0
H2594 H 0.85769 0.52767 0.72166 0.0
H2595 H 0.92789 0.55752 0.70086 0.0
H2596 H 0.84527 0.57169 0.7139 0.0
H2597 H 0.83269 0.55347 0.69752 0.0
H2598 H 0.82933 0.53955 0.71545 0.0
H2599 H 0.93994 0.58593 0.6816 0.0
H2600 H 0.91683 0.58993 0.67238 0.0
H2601 H 0.93308 0.60839 0.68809 0.0
H2602 H 0.85049 0.60051 0.66007 0.0
H2603 H 0.88462 0.64454 0.6989 0.0
H2604 H 0.84477 0.54923 0.67208 0.0
H2605 H 0.8751 0.56134 0.66513 0.0
H2606 H 0.8531 0.56588 0.65493 0.0
H2607 H 0.88815 0.60428 0.72059 0.0
H2608 H 0.90605 0.63574 0.71655 0.0
H2609 H 0.91651 0.61548 0.71101 0.0
C2610 C 0.48873 0.93208 0.1689 0.0
C2611 C 0.4725 0.9347 0.17839 0.0
C2612 C 0.49435 0.94239 0.15459 0.0
C2613 C 0.48409 0.95629 0.14966 0.0
C2614 C 0.4675 0.95879 0.15903 0.0
C2615 C 0.46166 0.94774 0.1731 0.0
C2616 C 0.5117 0.93878 0.14485 0.0
C2617 C 0.45636 0.97372 0.15436 0.0
C2618 C 0.51897 0.00549 0.12124 0.0
C2619 C 0.50487 0.99608 0.10814 0.0
C2620 C 0.51249 0.99271 0.1347 0.0
C2621 C 0.49177 0.96945 0.13513 0.0
C2622 C 0.47806 0.9593 0.12185 0.0
C2623 C 0.48457 0.97279 0.10859 0.0
C2624 C 0.52752 0.00443 0.14859 0.0
C2625 C 0.45621 0.93433 0.12169 0.0
H2626 H 0.49758 0.92241 0.17275 0.0
H2627 H 0.44858 0.94946 0.17999 0.0
H2628 H 0.50372 0.93262 0.13352 0.0
H2629 H 0.52893 0.95604 0.14355 0.0
H2630 H 0.51613 0.92552 0.1496 0.0
H2631 H 0.44356 0.97369 0.16283 0.0
H2632 H 0.47101 0.99249 0.15256 0.0
H2633 H 0.44638 0.96693 0.14362 0.0
H2634 H 0.53512 0.02309 0.12107 0.0
H2635 H 0.47331 0.96522 0.0987 0.0
H2636 H 0.5348 0.99331 0.1532 0.0
H2637 H 0.51584 0.00581 0.1573 0.0
H2638 H 0.54307 0.02264 0.14642 0.0
H2639 H 0.46116 0.92153 0.12655 0.0
H2640 H 0.44883 0.92816 0.11023 0.0
H2641 H 0.44155 0.93383 0.1287 0.0
C2642 C 0.02055 0.50429 0.17335 0.0
C2643 C 0.04545 0.5212 0.17504 0.0
C2644 C 0.009 0.49963 0.15933 0.0
C2645 C 0.02254 0.51248 0.14673 0.0
C2646 C 0.0477 0.52937 0.14828 0.0
C2647 C 0.05889 0.53336 0.16238 0.0
C2648 C 0.98219 0.48125 0.15806 0.0
C2649 C 0.06269 0.54357 0.13511 0.0
C2650 C 0.99785 0.48884 0.10779 0.0
C2651 C 0.98668 0.50222 0.10415 0.0
C2652 C 0.00943 0.49182 0.12168 0.0
C2653 C 0.01018 0.50888 0.13202 0.0
C2654 C 0.99908 0.52257 0.12833 0.0
C2655 C 0.98728 0.51893 0.11447 0.0
C2656 C 0.02072 0.47663 0.12533 0.0
C2657 C 0.99986 0.54122 0.13896 0.0
H2658 H 0.00987 0.49504 0.18305 0.0
H2659 H 0.07822 0.5461 0.16349 0.0
H2660 H 0.97176 0.49012 0.15474 0.0
H2661 H 0.97921 0.46788 0.14924 0.0
H2662 H 0.97466 0.4717 0.16873 0.0
H2663 H 0.08212 0.55583 0.13816 0.0
H2664 H 0.06186 0.53129 0.1261 0.0
H2665 H 0.05503 0.55436 0.13046 0.0
H2666 H 0.99722 0.4758 0.09982 0.0
H2667 H 0.97888 0.52947 0.11156 0.0
H2668 H 0.01237 0.4662 0.13559 0.0
H2669 H 0.04052 0.48824 0.12762 0.0
H2670 H 0.01833 0.46399 0.11612 0.0
H2671 H 0.99091 0.53272 0.14961 0.0
H2672 H 0.99065 0.55059 0.13429 0.0
H2673 H 0.01909 0.55471 0.14163 0.0
C2674 C 0.47793 0.50398 0.17639 0.0
C2675 C 0.46963 0.52021 0.17874 0.0
C2676 C 0.48497 0.50059 0.16213 0.0
C2677 C 0.4841 0.51409 0.14995 0.0
C2678 C 0.47536 0.53024 0.15222 0.0
C2679 C 0.46803 0.53296 0.16657 0.0
C2680 C 0.49377 0.48289 0.16015 0.0
C2681 C 0.4745 0.54522 0.1396 0.0
C2682 C 0.52766 0.52359 0.11815 0.0
C2683 C 0.51208 0.50691 0.10746 0.0
C2684 C 0.51866 0.52651 0.13185 0.0
C2685 C 0.49351 0.51212 0.13505 0.0
C2686 C 0.47762 0.4954 0.12422 0.0
C2687 C 0.48707 0.49314 0.11049 0.0
C2688 C 0.53615 0.54486 0.14295 0.0
C2689 C 0.45076 0.47949 0.12729 0.0
H2690 H 0.47896 0.49393 0.18576 0.0
H2691 H 0.46183 0.54568 0.16838 0.0
H2692 H 0.48338 0.47003 0.15101 0.0
H2693 H 0.51326 0.49247 0.15691 0.0
H2694 H 0.49183 0.47269 0.1705 0.0
H2695 H 0.46624 0.55617 0.14304 0.0
H2696 H 0.49326 0.5574 0.13556 0.0
H2697 H 0.46385 0.53359 0.13004 0.0
H2698 H 0.54695 0.53447 0.11575 0.0
H2699 H 0.47501 0.48013 0.10228 0.0
H2700 H 0.53693 0.5358 0.15326 0.0
H2701 H 0.52963 0.55733 0.14619 0.0
H2702 H 0.55492 0.55546 0.13845 0.0
H2703 H 0.44834 0.46789 0.13698 0.0
H2704 H 0.44074 0.46792 0.11754 0.0
H2705 H 0.44241 0.49051 0.13026 0.0
C2706 C 0.99463 0.50786 0.83419 0.0
C2707 C 0.96974 0.49255 0.8313 0.0
C2708 C 0.00411 0.51086 0.84874 0.0
C2709 C 0.98836 0.49784 0.86059 0.0
C2710 C 0.9631 0.48265 0.85776 0.0
C2711 C 0.95405 0.48035 0.84314 0.0
C2712 C 0.03105 0.52756 0.85136 0.0
C2713 C 0.94581 0.46818 0.87006 0.0
C2714 C 0.01785 0.48545 0.89372 0.0
C2715 C 0.01914 0.50219 0.90427 0.0
C2716 C 0.00746 0.48359 0.87956 0.0
C2717 C 0.99856 0.49914 0.87578 0.0
C2718 C 0.9998 0.51607 0.88642 0.0
C2719 C 0.0099 0.51724 0.90061 0.0
C2720 C 0.00605 0.46499 0.86863 0.0
C2721 C 0.99084 0.53318 0.88272 0.0
H2722 H 0.0067 0.51743 0.82502 0.0
H2723 H 0.93483 0.46834 0.84086 0.0
H2724 H 0.03391 0.54054 0.86043 0.0
H2725 H 0.03975 0.51716 0.85502 0.0
H2726 H 0.04046 0.53765 0.84117 0.0
H2727 H 0.92655 0.45802 0.86613 0.0
H2728 H 0.95099 0.45531 0.87452 0.0
H2729 H 0.94711 0.48007 0.87945 0.0
H2730 H 0.02474 0.47362 0.89662 0.0
H2731 H 0.01104 0.53027 0.90877 0.0
H2732 H 0.01687 0.47388 0.85854 0.0
H2733 H 0.98688 0.45318 0.86492 0.0
H2734 H 0.01298 0.45371 0.8735 0.0
H2735 H 1.00111 0.54437 0.87307 0.0
H2736 H 0.99295 0.54516 0.89228 0.0
H2737 H 0.97131 0.52306 0.87939 0.0
C2738 C 0.50928 0.46797 0.84026 0.0
C2739 C 0.53337 0.4822 0.83541 0.0
C2740 C 0.50187 0.472 0.85422 0.0
C2741 C 0.51906 0.49051 0.86366 0.0
C2742 C 0.54349 0.50485 0.85886 0.0
C2743 C 0.5503 0.50066 0.84472 0.0
C2744 C 0.47558 0.45655 0.8588 0.0
C2745 C 0.56244 0.52448 0.86872 0.0
C2746 C 0.49377 0.51391 0.89369 0.0
C2747 C 0.49329 0.50066 0.90622 0.0
C2748 C 0.50245 0.51106 0.87985 0.0
C2749 C 0.5113 0.49487 0.87851 0.0
C2750 C 0.51162 0.482 0.89118 0.0
C2751 C 0.50243 0.48489 0.90483 0.0
C2752 C 0.50161 0.52498 0.86658 0.0
C2753 C 0.52116 0.46476 0.89025 0.0
H2754 H 0.49609 0.45385 0.83301 0.0
H2755 H 0.56899 0.51156 0.84103 0.0
H2756 H 0.47457 0.44701 0.86927 0.0
H2757 H 0.46737 0.46794 0.86108 0.0
H2758 H 0.46444 0.44309 0.85008 0.0
H2759 H 0.58071 0.5338 0.86343 0.0
H2760 H 0.55683 0.53787 0.87131 0.0
H2761 H 0.56393 0.51689 0.8795 0.0
H2762 H 0.48725 0.52651 0.89467 0.0
H2763 H 0.50188 0.47429 0.91432 0.0
H2764 H 0.4896 0.51239 0.85775 0.0
H2765 H 0.52008 0.53565 0.86173 0.0
H2766 H 0.49471 0.53726 0.86955 0.0
H2767 H 0.50926 0.44955 0.88274 0.0
H2768 H 0.5219 0.45753 0.90136 0.0
H2769 H 0.53974 0.47376 0.88541 0.0
C2770 C 0.51693 0.06591 0.84478 0.0
C2771 C 0.53248 0.06267 0.83512 0.0
C2772 C 0.51133 0.05543 0.85904 0.0
C2773 C 0.521 0.04084 0.86363 0.0
C2774 C 0.53689 0.0377 0.85395 0.0
C2775 C 0.54265 0.04885 0.8399 0.0
C2776 C 0.49482 0.05977 0.86911 0.0
C2777 C 0.54721 0.02191 0.85822 0.0
C2778 C 0.52078 0.02434 0.90465 0.0
C2779 C 0.49987 0.00147 0.90527 0.0
C2780 C 0.52755 0.03763 0.89132 0.0
C2781 C 0.51341 0.02772 0.87815 0.0
C2782 C 0.49213 0.00487 0.87874 0.0
C2783 C 0.48547 0.99226 0.89226 0.0
C2784 C 0.55007 0.06216 0.89129 0.0
C2785 C 0.47659 0.99345 0.86498 0.0
H2786 H 0.50924 0.07678 0.84119 0.0
H2787 H 0.55454 0.04617 0.83244 0.0
H2788 H 0.47755 0.04272 0.8709 0.0
H2789 H 0.50359 0.06632 0.88022 0.0
H2790 H 0.49035 0.07301 0.86438 0.0
H2791 H 0.55976 0.02177 0.84962 0.0
H2792 H 0.55725 0.02804 0.86899 0.0
H2793 H 0.5321 0.00328 0.8598 0.0
H2794 H 0.53228 0.03169 0.91448 0.0
H2795 H 0.46889 0.975 0.89258 0.0
H2796 H 0.54563 0.07549 0.88671 0.0
H2797 H 0.56407 0.06203 0.88393 0.0
H2798 H 0.55807 0.06809 0.90265 0.0
H2799 H 0.46968 0.00499 0.86056 0.0
H2800 H 0.46075 0.97545 0.86724 0.0
H2801 H 0.48777 0.99167 0.85609 0.0
C2802 C 0.1263 0.28294 0.50548 0.0
C2803 C 0.13649 0.26934 0.5108 0.0
C2804 C 0.13259 0.29407 0.49144 0.0
C2805 C 0.14895 0.29106 0.48216 0.0
C2806 C 0.15853 0.27659 0.48712 0.0
C2807 C 0.15249 0.26623 0.5014 0.0
C2808 C 0.1222 0.30963 0.48674 0.0
C2809 C 0.17559 0.27243 0.47745 0.0
C2810 C 0.15051 0.30797 0.44112 0.0
C2811 C 0.17129 0.33096 0.44075 0.0
C2812 C 0.14345 0.29444 0.45434 0.0
C2813 C 0.15711 0.30425 0.46768 0.0
C2814 C 0.17829 0.3272 0.46735 0.0
C2815 C 0.1853 0.34002 0.45391 0.0
C2816 C 0.12112 0.26978 0.45409 0.0
C2817 C 0.19328 0.33856 0.48131 0.0
H2818 H 0.11341 0.28506 0.51231 0.0
H2819 H 0.16086 0.25613 0.50529 0.0
H2820 H 0.13726 0.32824 0.48501 0.0
H2821 H 0.1123 0.30313 0.47594 0.0
H2822 H 0.1095 0.30995 0.49515 0.0
H2823 H 0.17942 0.25877 0.48221 0.0
H2824 H 0.16769 0.26652 0.46609 0.0
H2825 H 0.19313 0.28941 0.47624 0.0
H2826 H 0.13931 0.3007 0.43117 0.0
H2827 H 0.2018 0.35736 0.4538 0.0
H2828 H 0.10663 0.26971 0.46106 0.0
H2829 H 0.1255 0.25657 0.45895 0.0
H2830 H 0.11377 0.26382 0.4426 0.0
H2831 H 0.18171 0.34026 0.48997 0.0
H2832 H 0.20918 0.35659 0.47921 0.0
H2833 H 0.20003 0.32702 0.48594 0.0
C2834 C 0.68557 0.84754 0.51141 0.0
C2835 C 0.70907 0.85108 0.51358 0.0
C2836 C 0.67496 0.84286 0.49712 0.0
C2837 C 0.68797 0.84113 0.48479 0.0
C2838 C 0.71164 0.84442 0.48697 0.0
C2839 C 0.72206 0.84968 0.50135 0.0
C2840 C 0.64991 0.84 0.49519 0.0
C2841 C 0.72583 0.84216 0.47416 0.0
C2842 C 0.64967 0.80695 0.45099 0.0
C2843 C 0.65374 0.82563 0.4414 0.0
C2844 C 0.66125 0.81173 0.46501 0.0
C2845 C 0.6767 0.83578 0.46963 0.0
C2846 C 0.68082 0.85471 0.45994 0.0
C2847 C 0.6695 0.84937 0.44583 0.0
C2848 C 0.65689 0.79107 0.47487 0.0
C2849 C 0.69675 0.88058 0.46461 0.0
H2850 H 0.6757 0.84887 0.5209 0.0
H2851 H 0.74021 0.85232 0.50311 0.0
H2852 H 0.65064 0.85315 0.48697 0.0
H2853 H 0.63702 0.82188 0.49071 0.0
H2854 H 0.64256 0.84258 0.50585 0.0
H2855 H 0.74379 0.84471 0.4778 0.0
H2856 H 0.71515 0.82422 0.46883 0.0
H2857 H 0.72896 0.85561 0.4655 0.0
H2858 H 0.6376 0.78859 0.44744 0.0
H2859 H 0.67248 0.86376 0.43837 0.0
H2860 H 0.6477 0.79154 0.48529 0.0
H2861 H 0.67457 0.79265 0.47814 0.0
H2862 H 0.64544 0.77345 0.46927 0.0
H2863 H 0.68924 0.8843 0.47482 0.0
H2864 H 0.69812 0.89316 0.45574 0.0
H2865 H 0.71538 0.88421 0.46743 0.0
C2866 C 0.15978 0.87123 0.50248 0.0
C2867 C 0.14535 0.85214 0.51196 0.0
C2868 C 0.16593 0.8671 0.48814 0.0
C2869 C 0.15799 0.84332 0.48335 0.0
C2870 C 0.14335 0.82398 0.49291 0.0
C2871 C 0.13694 0.82862 0.50704 0.0
C2872 C 0.181 0.88817 0.47815 0.0
C2873 C 0.13497 0.79843 0.48835 0.0
C2874 C 0.15789 0.8291 0.44198 0.0
C2875 C 0.18016 0.8294 0.44054 0.0
C2876 C 0.15065 0.83403 0.45576 0.0
C2877 C 0.16567 0.83875 0.46854 0.0
C2878 C 0.18808 0.83901 0.46722 0.0
C2879 C 0.19519 0.8347 0.45323 0.0
C2880 C 0.12685 0.83408 0.45664 0.0
C2881 C 0.20448 0.84365 0.48062 0.0
H2882 H 0.16608 0.88941 0.50628 0.0
H2883 H 0.12588 0.81389 0.51444 0.0
H2884 H 0.19879 0.88939 0.47584 0.0
H2885 H 0.17155 0.88565 0.46726 0.0
H2886 H 0.18449 0.90538 0.48322 0.0
H2887 H 0.12357 0.78542 0.49703 0.0
H2888 H 0.12428 0.7939 0.4778 0.0
H2889 H 0.15106 0.79631 0.48622 0.0
H2890 H 0.14584 0.82464 0.4324 0.0
H2891 H 0.21267 0.83557 0.45228 0.0
H2892 H 0.13005 0.85134 0.46142 0.0
H2893 H 0.11413 0.81971 0.4642 0.0
H2894 H 0.11789 0.83133 0.44554 0.0
H2895 H 0.21045 0.86171 0.48533 0.0
H2896 H 0.22094 0.84248 0.47781 0.0
H2897 H 0.19428 0.83048 0.48949 0.0
C2898 C 0.65315 0.81491 0.17221 0.0
C2899 C 0.62995 0.81244 0.17031 0.0
C2900 C 0.66453 0.81993 0.18628 0.0
C2901 C 0.65277 0.82321 0.19874 0.0
C2902 C 0.62956 0.82111 0.19692 0.0
C2903 C 0.61831 0.81546 0.18278 0.0
C2904 C 0.68915 0.82168 0.18784 0.0
C2905 C 0.61664 0.82489 0.2099 0.0
C2906 C 0.67194 0.81583 0.23768 0.0
C2907 C 0.6886 0.83958 0.24165 0.0
C2908 C 0.66019 0.8102 0.2237 0.0
C2909 C 0.66483 0.82888 0.21366 0.0
C2910 C 0.68133 0.85297 0.21778 0.0
C2911 C 0.69327 0.858 0.23168 0.0
C2912 C 0.64314 0.78429 0.21958 0.0
C2913 C 0.68629 0.8734 0.20752 0.0
H2914 H 0.66261 0.81314 0.16265 0.0
H2915 H 0.60023 0.8132 0.18156 0.0
H2916 H 0.70295 0.83992 0.19167 0.0
H2917 H 0.68832 0.80894 0.19641 0.0
H2918 H 0.69542 0.81775 0.17716 0.0
H2919 H 0.59907 0.82348 0.20651 0.0
H2920 H 0.61297 0.81144 0.21866 0.0
H2921 H 0.62848 0.84282 0.21501 0.0
H2922 H 0.6685 0.80162 0.24542 0.0
H2923 H 0.70602 0.87639 0.23487 0.0
H2924 H 0.64971 0.77959 0.20933 0.0
H2925 H 0.62467 0.78137 0.21705 0.0
H2926 H 0.64162 0.77191 0.22863 0.0
H2927 H 0.69442 0.87168 0.19696 0.0
H2928 H 0.69888 0.89114 0.21265 0.0
H2929 H 0.66892 0.87274 0.20457 0.0
C2930 C 0.21213 0.8344 0.17429 0.0
C2931 C 0.2035 0.81087 0.16911 0.0
C2932 C 0.20489 0.83898 0.18817 0.0
C2933 C 0.18917 0.81961 0.19737 0.0
C2934 C 0.18099 0.79586 0.19249 0.0
C2935 C 0.18793 0.79177 0.17837 0.0
C2936 C 0.21369 0.86457 0.19286 0.0
C2937 C 0.16461 0.77471 0.2021 0.0
C2938 C 0.18653 0.83344 0.23855 0.0
C2939 C 0.16456 0.83388 0.23923 0.0
C2940 C 0.1945 0.82831 0.2251 0.0
C2941 C 0.18058 0.82418 0.21187 0.0
C2942 C 0.15847 0.82464 0.21243 0.0
C2943 C 0.15057 0.82908 0.22609 0.0
C2944 C 0.2179 0.82743 0.22505 0.0
C2945 C 0.14326 0.82071 0.19853 0.0
H2946 H 0.22459 0.84937 0.1675 0.0
H2947 H 0.18068 0.7735 0.17451 0.0
H2948 H 0.19783 0.86717 0.19467 0.0
H2949 H 0.22383 0.86862 0.2036 0.0
H2950 H 0.22577 0.87763 0.1844 0.0
H2951 H 0.1614 0.75748 0.19721 0.0
H2952 H 0.17279 0.77691 0.2134 0.0
H2953 H 0.14673 0.77372 0.20351 0.0
H2954 H 0.19781 0.83748 0.24847 0.0
H2955 H 0.1333 0.82875 0.22644 0.0
H2956 H 0.23152 0.84176 0.21782 0.0
H2957 H 0.21451 0.81007 0.22033 0.0
H2958 H 0.22589 0.8297 0.23643 0.0
H2959 H 0.15441 0.83398 0.18992 0.0
H2960 H 0.12688 0.82231 0.20076 0.0
H2961 H 0.13721 0.80267 0.19375 0.0
C2962 C 0.21114 0.38672 0.17306 0.0
C2963 C 0.20068 0.40027 0.16828 0.0
C2964 C 0.20535 0.37538 0.18704 0.0
C2965 C 0.18913 0.37809 0.19667 0.0
C2966 C 0.17921 0.39249 0.1921 0.0
C2967 C 0.18483 0.40311 0.17789 0.0
C2968 C 0.21592 0.35979 0.19127 0.0
C2969 C 0.16237 0.3964 0.20214 0.0
C2970 C 0.15351 0.32881 0.22488 0.0
C2971 C 0.16769 0.33786 0.23798 0.0
C2972 C 0.16029 0.34169 0.21147 0.0
C2973 C 0.18141 0.36468 0.21109 0.0
C2974 C 0.19531 0.37443 0.22436 0.0
C2975 C 0.18847 0.36085 0.23757 0.0
C2976 C 0.14503 0.33043 0.19759 0.0
C2977 C 0.21764 0.39909 0.22455 0.0
H2978 H 0.22325 0.38434 0.16561 0.0
H2979 H 0.17687 0.41374 0.17429 0.0
H2980 H 0.22573 0.3658 0.20213 0.0
H2981 H 0.20095 0.34104 0.19268 0.0
H2982 H 0.22873 0.36002 0.18274 0.0
H2983 H 0.15786 0.40966 0.19749 0.0
H2984 H 0.14514 0.37923 0.20372 0.0
H2985 H 0.17088 0.40271 0.21333 0.0
H2986 H 0.13704 0.31146 0.22504 0.0
H2987 H 0.1998 0.3681 0.24747 0.0
H2988 H 0.15648 0.32903 0.18872 0.0
H2989 H 0.13796 0.34186 0.19323 0.0
H2990 H 0.12931 0.31227 0.19968 0.0
H2991 H 0.23188 0.39929 0.21726 0.0
H2992 H 0.22539 0.40487 0.23598 0.0
H2993 H 0.21307 0.41235 0.22002 0.0
C2994 C 0.80565 0.62321 0.84002 0.0
C2995 C 0.80066 0.59966 0.84245 0.0
C2996 C 0.81194 0.63368 0.8258 0.0
C2997 C 0.81383 0.62059 0.81362 0.0
C2998 C 0.80867 0.59679 0.8159 0.0
C2999 C 0.80196 0.58658 0.83019 0.0
C3000 C 0.81704 0.65902 0.82388 0.0
C3001 C 0.81072 0.58227 0.80328 0.0
C3002 C 0.81418 0.64348 0.77422 0.0
C3003 C 0.83927 0.65773 0.77157 0.0
C3004 C 0.80556 0.63093 0.78773 0.0
C3005 C 0.82243 0.63232 0.79874 0.0
C3006 C 0.84777 0.64594 0.79581 0.0
C3007 C 0.85584 0.6586 0.78235 0.0
C3008 C 0.77844 0.61691 0.79046 0.0
C3009 C 0.86643 0.64759 0.80703 0.0
H3010 H 0.80521 0.63379 0.84933 0.0
H3011 H 0.79773 0.56826 0.83174 0.0
H3012 H 0.83649 0.67087 0.82096 0.0
H3013 H 0.80587 0.65981 0.81456 0.0
H3014 H 0.8131 0.6662 0.83416 0.0
H3015 H 0.80554 0.56382 0.80675 0.0
H3016 H 0.79886 0.58111 0.79379 0.0
H3017 H 0.82975 0.59126 0.79914 0.0
H3018 H 0.80131 0.64288 0.76597 0.0
H3019 H 0.87525 0.6694 0.78029 0.0
H3020 H 0.77384 0.62507 0.79994 0.0
H3021 H 0.77278 0.59825 0.79361 0.0
H3022 H 0.76768 0.61647 0.7805 0.0
H3023 H 0.86552 0.65677 0.81733 0.0
H3024 H 0.88532 0.65756 0.80265 0.0
H3025 H 0.86239 0.62939 0.81025 0.0
C3026 C 0.38865 0.18587 0.83198 0.0
C3027 C 0.37722 0.18927 0.84436 0.0
C3028 C 0.37744 0.18063 0.81783 0.0
C3029 C 0.3546 0.17941 0.81602 0.0
C3030 C 0.34315 0.18311 0.8285 0.0
C3031 C 0.35448 0.1877 0.84259 0.0
C3032 C 0.38993 0.17622 0.80486 0.0
C3033 C 0.31907 0.18248 0.82695 0.0
C3034 C 0.33665 0.18811 0.77702 0.0
C3035 C 0.31934 0.1646 0.77295 0.0
C3036 C 0.34819 0.19322 0.79106 0.0
C3037 C 0.34266 0.17427 0.80106 0.0
C3038 C 0.32551 0.15042 0.79684 0.0
C3039 C 0.3138 0.14591 0.78288 0.0
C3040 C 0.36598 0.21892 0.79528 0.0
C3041 C 0.3196 0.12968 0.80705 0.0
H3042 H 0.4062 0.18698 0.83345 0.0
H3043 H 0.34581 0.19052 0.8522 0.0
H3044 H 0.37767 0.15831 0.79986 0.0
H3045 H 0.39391 0.18964 0.79603 0.0
H3046 H 0.40729 0.17716 0.80825 0.0
H3047 H 0.3129 0.18632 0.83769 0.0
H3048 H 0.32068 0.19583 0.81859 0.0
H3049 H 0.30482 0.16462 0.82281 0.0
H3050 H 0.34076 0.20252 0.76931 0.0
H3051 H 0.30053 0.12771 0.77962 0.0
H3052 H 0.38416 0.2211 0.79778 0.0
H3053 H 0.35975 0.22389 0.80557 0.0
H3054 H 0.36802 0.23158 0.78629 0.0
H3055 H 0.33656 0.12958 0.81008 0.0
H3056 H 0.30656 0.11215 0.80184 0.0
H3057 H 0.31158 0.1317 0.81758 0.0
C3058 C 0.80944 0.1692 0.84277 0.0
C3059 C 0.80117 0.18547 0.84505 0.0
C3060 C 0.81677 0.16595 0.82857 0.0
C3061 C 0.81627 0.17964 0.8164 0.0
C3062 C 0.80757 0.19584 0.8186 0.0
C3063 C 0.79992 0.19841 0.83288 0.0
C3064 C 0.8255 0.14818 0.82666 0.0
C3065 C 0.8071 0.21104 0.80598 0.0
C3066 C 0.86046 0.18947 0.78494 0.0
C3067 C 0.84503 0.17307 0.77408 0.0
C3068 C 0.85122 0.19217 0.7986 0.0
C3069 C 0.82597 0.17781 0.80159 0.0
C3070 C 0.81027 0.16133 0.7906 0.0
C3071 C 0.81996 0.15931 0.77691 0.0
C3072 C 0.86852 0.21028 0.80988 0.0
C3073 C 0.78333 0.14545 0.79344 0.0
H3074 H 0.81021 0.15903 0.85215 0.0
H3075 H 0.79374 0.21116 0.83465 0.0
H3076 H 0.8153 0.13547 0.81742 0.0
H3077 H 0.84508 0.15772 0.8236 0.0
H3078 H 0.82324 0.13782 0.83698 0.0
H3079 H 0.79888 0.22205 0.80937 0.0
H3080 H 0.82598 0.22318 0.8021 0.0
H3081 H 0.79662 0.19956 0.79634 0.0
H3082 H 0.8798 0.20033 0.78269 0.0
H3083 H 0.80803 0.14651 0.76856 0.0
H3084 H 0.86897 0.20103 0.82018 0.0
H3085 H 0.86205 0.22281 0.81307 0.0
H3086 H 0.8874 0.22084 0.80555 0.0
H3087 H 0.78065 0.13378 0.80315 0.0
H3088 H 0.7735 0.13395 0.78364 0.0
H3089 H 0.77497 0.1565 0.7963 0.0
C3090 C 0.31017 0.13551 0.5057 0.0
C3091 C 0.29985 0.1489 0.50034 0.0
C3092 C 0.32099 0.13992 0.51993 0.0
C3093 C 0.32113 0.15787 0.52916 0.0
C3094 C 0.3106 0.17135 0.52391 0.0
C3095 C 0.30028 0.16684 0.50952 0.0
C3096 C 0.33223 0.12531 0.5251 0.0
C3097 C 0.31017 0.19045 0.53352 0.0
C3098 C 0.32924 0.15289 0.57077 0.0
C3099 C 0.35403 0.16981 0.57293 0.0
C3100 C 0.31816 0.14923 0.55666 0.0
C3101 C 0.33229 0.16248 0.54433 0.0
C3102 C 0.35726 0.17966 0.5464 0.0
C3103 C 0.36777 0.18327 0.5607 0.0
C3104 C 0.2914 0.13093 0.55491 0.0
C3105 C 0.37296 0.19398 0.53348 0.0
H3106 H 0.30953 0.1213 0.49885 0.0
H3107 H 0.2927 0.17754 0.50543 0.0
H3108 H 0.35167 0.13734 0.52817 0.0
H3109 H 0.32279 0.11513 0.53524 0.0
H3110 H 0.33119 0.11246 0.5164 0.0
H3111 H 0.30084 0.19901 0.5279 0.0
H3112 H 0.3007 0.18258 0.54417 0.0
H3113 H 0.32908 0.20453 0.5364 0.0
H3114 H 0.31853 0.1421 0.58006 0.0
H3115 H 0.3868 0.19668 0.56228 0.0
H3116 H 0.28915 0.11624 0.54736 0.0
H3117 H 0.28156 0.13927 0.54969 0.0
H3118 H 0.28268 0.12308 0.56575 0.0
H3119 H 0.37326 0.1817 0.52486 0.0
H3120 H 0.39204 0.20676 0.53699 0.0
H3121 H 0.36515 0.20416 0.52816 0.0
C3122 C 0.88244 0.1721 0.50839 0.0
C3123 C 0.87395 0.14853 0.50334 0.0
C3124 C 0.87511 0.17678 0.52221 0.0
C3125 C 0.85941 0.15749 0.53147 0.0
C3126 C 0.85143 0.13371 0.52673 0.0
C3127 C 0.85848 0.12952 0.51268 0.0
C3128 C 0.88373 0.2024 0.52674 0.0
C3129 C 0.83509 0.11264 0.5364 0.0
C3130 C 0.85586 0.17167 0.57248 0.0
C3131 C 0.8338 0.17197 0.57287 0.0
C3132 C 0.86418 0.1665 0.55918 0.0
C3133 C 0.8505 0.16215 0.54582 0.0
C3134 C 0.82829 0.16243 0.54609 0.0
C3135 C 0.82006 0.16695 0.55961 0.0
C3136 C 0.88768 0.16583 0.55943 0.0
C3137 C 0.8133 0.15821 0.53205 0.0
H3138 H 0.89481 0.18702 0.50153 0.0
H3139 H 0.85135 0.11121 0.50891 0.0
H3140 H 0.86777 0.20494 0.5283 0.0
H3141 H 0.8936 0.20658 0.53759 0.0
H3142 H 0.89597 0.2154 0.51832 0.0
H3143 H 0.83216 0.09542 0.53168 0.0
H3144 H 0.84309 0.1151 0.54778 0.0
H3145 H 0.81708 0.11144 0.53761 0.0
H3146 H 0.86693 0.17586 0.58251 0.0
H3147 H 0.80272 0.16651 0.55974 0.0
H3148 H 0.90135 0.18009 0.5522 0.0
H3149 H 0.88451 0.14845 0.55488 0.0
H3150 H 0.89549 0.16832 0.57088 0.0
H3151 H 0.82453 0.17142 0.52344 0.0
H3152 H 0.79679 0.15968 0.53407 0.0
H3153 H 0.80748 0.14015 0.5274 0.0
C3154 C 0.85681 0.72966 0.51373 0.0
C3155 C 0.86762 0.72266 0.50263 0.0
C3156 C 0.8515 0.71889 0.52791 0.0
C3157 C 0.85637 0.7001 0.53091 0.0
C3158 C 0.86742 0.69311 0.51971 0.0
C3159 C 0.87322 0.7047 0.5058 0.0
C3160 C 0.84044 0.72744 0.53962 0.0
C3161 C 0.87237 0.6728 0.52223 0.0
C3162 C 0.85764 0.67884 0.57061 0.0
C3163 C 0.83405 0.65887 0.57189 0.0
C3164 C 0.8649 0.69296 0.5576 0.0
C3165 C 0.84848 0.68669 0.54535 0.0
C3166 C 0.82455 0.66694 0.54669 0.0
C3167 C 0.81754 0.65367 0.55996 0.0
C3168 C 0.89035 0.71431 0.55686 0.0
C3169 C 0.80646 0.65933 0.53391 0.0
H3170 H 0.85264 0.74368 0.51131 0.0
H3171 H 0.88148 0.69922 0.4972 0.0
H3172 H 0.82156 0.71309 0.54203 0.0
H3173 H 0.85103 0.73161 0.55021 0.0
H3174 H 0.8399 0.74363 0.53604 0.0
H3175 H 0.88141 0.66978 0.51251 0.0
H3176 H 0.88414 0.67652 0.53224 0.0
H3177 H 0.85495 0.65605 0.52436 0.0
H3178 H 0.87075 0.68315 0.57958 0.0
H3179 H 0.79901 0.63891 0.56087 0.0
H3180 H 0.88969 0.73035 0.55312 0.0
H3181 H 0.90118 0.71084 0.54854 0.0
H3182 H 0.89998 0.71838 0.56781 0.0
H3183 H 0.80328 0.67418 0.53084 0.0
H3184 H 0.78863 0.64339 0.53664 0.0
H3185 H 0.81396 0.65505 0.52392 0.0
loop_
_geom_bond_atom_site_label_1
_geom_bond_atom_site_label_2
_geom_bond_distance
_geom_bond_site_symmetry_2
_ccdc_geom_bond_type
C0 C1 1.386 . S
C0 C2 1.397 . S
C0 H24 0.931 . S
C1 C0 1.386 . S
C1 C5 1.397 . S
C2 C0 1.397 . S
C2 C3 1.384 . S
C2 H25 0.930 . S
C3 C2 1.384 . S
C3 C4 1.377 . S
C3 C6 1.481 . S
C4 C3 1.377 . S
C4 C5 1.389 . S
C4 H26 0.929 . S
C5 C1 1.397 . S
C5 C4 1.389 . S
C5 H27 0.931 . S
C6 C3 1.481 . S
C6 C7 1.387 . S
C6 C11 1.390 . S
C7 C6 1.387 . S
C7 C8 1.401 . S
C7 H28 0.930 . S
C8 C7 1.401 . S
C8 C9 1.376 . S
C8 C17 1.511 . S
C9 C8 1.376 . S
C9 C10 1.392 . S
C9 H30 0.931 . S
C10 C9 1.392 . S
C10 C11 1.361 . S
C10 C12 1.500 . S
C11 C6 1.390 . S
C11 C10 1.361 . S
C11 H29 0.931 . S
C12 C10 1.500 . S
C12 C13 1.371 . S
C12 C14 1.365 . S
C13 C12 1.371 . S
C13 C23 1.386 . S
C13 H31 0.931 . S
C14 C12 1.365 . S
C14 C15 1.409 . S
C14 H32 0.929 . S
C15 C14 1.409 . S
C15 C16 1.380 . S
C15 H33 0.930 . S
C16 C15 1.380 . S
C16 C23 1.357 . S
C17 C8 1.511 . S
C17 C18 1.341 . S
C17 C19 1.371 . S
C18 C17 1.341 . S
C18 C22 1.394 . S
C18 H34 0.930 . S
C19 C17 1.371 . S
C19 C20 1.392 . S
C19 H35 0.931 . S
C20 C19 1.392 . S
C20 C21 1.331 . S
C20 H38 0.932 . S
C21 C20 1.331 . S
C21 C22 1.336 . S
C22 C18 1.394 . S
C22 C21 1.336 . S
C22 H37 0.929 . S
C23 C13 1.386 . S
C23 C16 1.357 . S
C23 H36 0.928 . S
H24 C0 0.931 . S
H25 C2 0.930 . S
H26 C4 0.929 . S
H27 C5 0.931 . S
H28 C7 0.930 . S
H29 C11 0.931 . S
H30 C9 0.931 . S
H31 C13 0.931 . S
H32 C14 0.929 . S
H33 C15 0.930 . S
H34 C18 0.930 . S
H35 C19 0.931 . S
H36 C23 0.928 . S
H37 C22 0.929 . S
H38 C20 0.932 . S
C39 C40 1.386 . S
C39 C41 1.397 . S
C39 H63 0.931 . S
C40 C39 1.386 . S
C40 C44 1.397 . S
C41 C39 1.397 . S
C41 C42 1.384 . S
C41 H64 0.930 . S
C42 C41 1.384 . S
C42 C43 1.377 . S
C42 C45 1.481 . S
C43 C42 1.377 . S
C43 C44 1.389 . S
C43 H65 0.929 . S
C44 C40 1.397 . S
C44 C43 1.389 . S
C44 H66 0.931 . S
C45 C42 1.481 . S
C45 C46 1.387 . S
C45 C50 1.390 . S
C46 C45 1.387 . S
C46 C47 1.401 . S
C46 H67 0.930 . S
C47 C46 1.401 . S
C47 C48 1.376 . S
C47 C56 1.511 . S
C48 C47 1.376 . S
C48 C49 1.392 . S
C48 H69 0.931 . S
C49 C48 1.392 . S
C49 C50 1.361 . S
C49 C51 1.500 . S
C50 C45 1.390 . S
C50 C49 1.361 . S
C50 H68 0.931 . S
C51 C49 1.500 . S
C51 C52 1.371 . S
C51 C53 1.365 . S
C52 C51 1.371 . S
C52 C62 1.386 . S
C52 H70 0.931 . S
C53 C51 1.365 . S
C53 C54 1.409 . S
C53 H71 0.929 . S
C54 C53 1.409 . S
C54 C55 1.380 . S
C54 H72 0.930 . S
C55 C54 1.380 . S
C55 C62 1.357 . S
C56 C47 1.511 . S
C56 C57 1.341 . S
C56 C58 1.371 . S
C57 C56 1.341 . S
C57 C61 1.394 . S
C57 H73 0.930 . S
C58 C56 1.371 . S
C58 C59 1.392 . S
C58 H74 0.931 . S
C59 C58 1.392 . S
C59 C60 1.331 . S
C59 H77 0.932 . S
C60 C59 1.331 . S
C60 C61 1.336 . S
C61 C57 1.394 . S
C61 C60 1.336 . S
C61 H76 0.929 . S
C62 C52 1.386 . S
C62 C55 1.357 . S
C62 H75 0.928 . S
H63 C39 0.931 . S
H64 C41 0.930 . S
H65 C43 0.929 . S
H66 C44 0.931 . S
H67 C46 0.930 . S
H68 C50 0.931 . S
H69 C48 0.931 . S
H70 C52 0.931 . S
H71 C53 0.929 . S
H72 C54 0.930 . S
H73 C57 0.930 . S
H74 C58 0.931 . S
H75 C62 0.928 . S
H76 C61 0.929 . S
H77 C59 0.932 . S
C78 C79 1.386 . S
C78 C80 1.397 . S
C78 H102 0.931 . S
C79 C78 1.386 . S
C79 C83 1.397 . S
C80 C78 1.397 . S
C80 C81 1.384 . S
C80 H103 0.930 . S
C81 C80 1.384 . S
C81 C82 1.377 . S
C81 C84 1.481 . S
C82 C81 1.377 . S
C82 C83 1.389 . S
C82 H104 0.929 . S
C83 C79 1.397 . S
C83 C82 1.389 . S
C83 H105 0.931 . S
C84 C81 1.481 . S
C84 C85 1.387 . S
C84 C89 1.390 . S
C85 C84 1.387 . S
C85 C86 1.401 . S
C85 H106 0.930 . S
C86 C85 1.401 . S
C86 C87 1.376 . S
C86 C95 1.511 . S
C87 C86 1.376 . S
C87 C88 1.392 . S
C87 H108 0.931 . S
C88 C87 1.392 . S
C88 C89 1.361 . S
C88 C90 1.500 . S
C89 C84 1.390 . S
C89 C88 1.361 . S
C89 H107 0.931 . S
C90 C88 1.500 . S
C90 C91 1.371 . S
C90 C92 1.365 . S
C91 C90 1.371 . S
C91 C101 1.386 . S
C91 H109 0.931 . S
C92 C90 1.365 . S
C92 C93 1.409 . S
C92 H110 0.929 . S
C93 C92 1.409 . S
C93 C94 1.380 . S
C93 H111 0.930 . S
C94 C93 1.380 . S
C94 C101 1.357 . S
C95 C86 1.511 . S
C95 C96 1.341 . S
C95 C97 1.371 . S
C96 C95 1.341 . S
C96 C100 1.394 . S
C96 H112 0.930 . S
C97 C95 1.371 . S
C97 C98 1.392 . S
C97 H113 0.931 . S
C98 C97 1.392 . S
C98 C99 1.331 . S
C98 H116 0.932 . S
C99 C98 1.331 . S
C99 C100 1.336 . S
C100 C96 1.394 . S
C100 C99 1.336 . S
C100 H115 0.929 . S
C101 C91 1.386 . S
C101 C94 1.357 . S
C101 H114 0.928 . S
H102 C78 0.931 . S
H103 C80 0.930 . S
H104 C82 0.929 . S
H105 C83 0.931 . S
H106 C85 0.930 . S
H107 C89 0.931 . S
H108 C87 0.931 . S
H109 C91 0.931 . S
H110 C92 0.929 . S
H111 C93 0.930 . S
H112 C96 0.930 . S
H113 C97 0.931 . S
H114 C101 0.928 . S
H115 C100 0.929 . S
H116 C98 0.932 . S
C117 C118 1.386 . S
C117 C119 1.397 . S
C117 H141 0.931 . S
C118 C117 1.386 . S
C118 C122 1.397 . S
C119 C117 1.397 . S
C119 C120 1.384 . S
C119 H142 0.930 . S
C120 C119 1.384 . S
C120 C121 1.377 . S
C120 C123 1.481 . S
C121 C120 1.377 . S
C121 C122 1.389 . S
C121 H143 0.929 . S
C122 C118 1.397 . S
C122 C121 1.389 . S
C122 H144 0.931 . S
C123 C120 1.481 . S
C123 C124 1.387 . S
C123 C128 1.390 . S
C124 C123 1.387 . S
C124 C125 1.401 . S
C124 H145 0.930 . S
C125 C124 1.401 . S
C125 C126 1.376 . S
C125 C134 1.511 . S
C126 C125 1.376 . S
C126 C127 1.392 . S
C126 H147 0.931 . S
C127 C126 1.392 . S
C127 C128 1.361 . S
C127 C129 1.500 . S
C128 C123 1.390 . S
C128 C127 1.361 . S
C128 H146 0.931 . S
C129 C127 1.500 . S
C129 C130 1.371 . S
C129 C131 1.365 . S
C130 C129 1.371 . S
C130 C140 1.386 . S
C130 H148 0.931 . S
C131 C129 1.365 . S
C131 C132 1.409 . S
C131 H149 0.929 . S
C132 C131 1.409 . S
C132 C133 1.380 . S
C132 H150 0.930 . S
C133 C132 1.380 . S
C133 C140 1.357 . S
C134 C125 1.511 . S
C134 C135 1.341 . S
C134 C136 1.371 . S
C135 C134 1.341 . S
C135 C139 1.394 . S
C135 H151 0.930 . S
C136 C134 1.371 . S
C136 C137 1.392 . S
C136 H152 0.931 . S
C137 C136 1.392 . S
C137 C138 1.331 . S
C137 H155 0.932 . S
C138 C137 1.331 . S
C138 C139 1.336 . S
C139 C135 1.394 . S
C139 C138 1.336 . S
C139 H154 0.929 . S
C140 C130 1.386 . S
C140 C133 1.357 . S
C140 H153 0.928 . S
H141 C117 0.931 . S
H142 C119 0.930 . S
H143 C121 0.929 . S
H144 C122 0.931 . S
H145 C124 0.930 . S
H146 C128 0.931 . S
H147 C126 0.931 . S
H148 C130 0.931 . S
H149 C131 0.929 . S
H150 C132 0.930 . S
H151 C135 0.930 . S
H152 C136 0.931 . S
H153 C140 0.928 . S
H154 C139 0.929 . S
H155 C137 0.932 . S
C156 C157 1.386 . S
C156 C158 1.397 . S
C156 H180 0.931 . S
C157 C156 1.386 . S
C157 C161 1.397 . S
C158 C156 1.397 . S
C158 C159 1.384 . S
C158 H181 0.930 . S
C159 C158 1.384 . S
C159 C160 1.377 . S
C159 C162 1.481 . S
C160 C159 1.377 . S
C160 C161 1.389 . S
C160 H182 0.929 . S
C161 C157 1.397 . S
C161 C160 1.389 . S
C161 H183 0.931 . S
C162 C159 1.481 . S
C162 C163 1.387 . S
C162 C167 1.390 . S
C163 C162 1.387 . S
C163 C164 1.401 . S
C163 H184 0.930 . S
C164 C163 1.401 . S
C164 C165 1.376 . S
C164 C173 1.511 . S
C165 C164 1.376 . S
C165 C166 1.392 . S
C165 H186 0.931 . S
C166 C165 1.392 . S
C166 C167 1.361 . S
C166 C168 1.500 . S
C167 C162 1.390 . S
C167 C166 1.361 . S
C167 H185 0.931 . S
C168 C166 1.500 . S
C168 C169 1.371 . S
C168 C170 1.365 . S
C169 C168 1.371 . S
C169 C179 1.386 . S
C169 H187 0.931 . S
C170 C168 1.365 . S
C170 C171 1.409 . S
C170 H188 0.929 . S
C171 C170 1.409 . S
C171 C172 1.380 . S
C171 H189 0.930 . S
C172 C171 1.380 . S
C172 C179 1.357 . S
C173 C164 1.511 . S
C173 C174 1.341 . S
C173 C175 1.371 . S
C174 C173 1.341 . S
C174 C178 1.394 . S
C174 H190 0.930 . S
C175 C173 1.371 . S
C175 C176 1.392 . S
C175 H191 0.931 . S
C176 C175 1.392 . S
C176 C177 1.331 . S
C176 H194 0.932 . S
C177 C176 1.331 . S
C177 C178 1.336 . S
C178 C174 1.394 . S
C178 C177 1.336 . S
C178 H193 0.929 . S
C179 C169 1.386 . S
C179 C172 1.357 . S
C179 H192 0.928 . S
H180 C156 0.931 . S
H181 C158 0.930 . S
H182 C160 0.929 . S
H183 C161 0.931 . S
H184 C163 0.930 . S
H185 C167 0.931 . S
H186 C165 0.931 . S
H187 C169 0.931 . S
H188 C170 0.929 . S
H189 C171 0.930 . S
H190 C174 0.930 . S
H191 C175 0.931 . S
H192 C179 0.928 . S
H193 C178 0.929 . S
H194 C176 0.932 . S
C195 C196 1.386 . S
C195 C197 1.397 . S
C195 H219 0.931 . S
C196 C195 1.386 . S
C196 C200 1.397 . S
C197 C195 1.397 . S
C197 C198 1.384 . S
C197 H220 0.930 . S
C198 C197 1.384 . S
C198 C199 1.377 . S
C198 C201 1.481 . S
C199 C198 1.377 . S
C199 C200 1.389 . S
C199 H221 0.929 . S
C200 C196 1.397 . S
C200 C199 1.389 . S
C200 H222 0.931 . S
C201 C198 1.481 . S
C201 C202 1.387 . S
C201 C206 1.390 . S
C202 C201 1.387 . S
C202 C203 1.401 . S
C202 H223 0.930 . S
C203 C202 1.401 . S
C203 C204 1.376 . S
C203 C212 1.511 . S
C204 C203 1.376 . S
C204 C205 1.392 . S
C204 H225 0.931 . S
C205 C204 1.392 . S
C205 C206 1.361 . S
C205 C207 1.500 . S
C206 C201 1.390 . S
C206 C205 1.361 . S
C206 H224 0.931 . S
C207 C205 1.500 . S
C207 C208 1.371 . S
C207 C209 1.365 . S
C208 C207 1.371 . S
C208 C218 1.386 . S
C208 H226 0.931 . S
C209 C207 1.365 . S
C209 C210 1.409 . S
C209 H227 0.929 . S
C210 C209 1.409 . S
C210 C211 1.380 . S
C210 H228 0.930 . S
C211 C210 1.380 . S
C211 C218 1.357 . S
C212 C203 1.511 . S
C212 C213 1.341 . S
C212 C214 1.371 . S
C213 C212 1.341 . S
C213 C217 1.394 . S
C213 H229 0.930 . S
C214 C212 1.371 . S
C214 C215 1.392 . S
C214 H230 0.931 . S
C215 C214 1.392 . S
C215 C216 1.331 . S
C215 H233 0.932 . S
C216 C215 1.331 . S
C216 C217 1.336 . S
C217 C213 1.394 . S
C217 C216 1.336 . S
C217 H232 0.929 . S
C218 C208 1.386 . S
C218 C211 1.357 . S
C218 H231 0.928 . S
H219 C195 0.931 . S
H220 C197 0.930 . S
H221 C199 0.929 . S
H222 C200 0.931 . S
H223 C202 0.930 . S
H224 C206 0.931 . S
H225 C204 0.931 . S
H226 C208 0.931 . S
H227 C209 0.929 . S
H228 C210 0.930 . S
H229 C213 0.930 . S
H230 C214 0.931 . S
H231 C218 0.928 . S
H232 C217 0.929 . S
H233 C215 0.932 . S
C234 C235 1.386 . S
C234 C236 1.397 . S
C234 H258 0.931 . S
C235 C234 1.386 . S
C235 C239 1.397 . S
C236 C234 1.397 . S
C236 C237 1.384 . S
C236 H259 0.930 . S
C237 C236 1.384 . S
C237 C238 1.377 . S
C237 C240 1.481 . S
C238 C237 1.377 . S
C238 C239 1.389 . S
C238 H260 0.929 . S
C239 C235 1.397 . S
C239 C238 1.389 . S
C239 H261 0.931 . S
C240 C237 1.481 . S
C240 C241 1.387 . S
C240 C245 1.390 . S
C241 C240 1.387 . S
C241 C242 1.401 . S
C241 H262 0.930 . S
C242 C241 1.401 . S
C242 C243 1.376 . S
C242 C251 1.511 . S
C243 C242 1.376 . S
C243 C244 1.392 . S
C243 H264 0.931 . S
C244 C243 1.392 . S
C244 C245 1.361 . S
C244 C246 1.500 . S
C245 C240 1.390 . S
C245 C244 1.361 . S
C245 H263 0.931 . S
C246 C244 1.500 . S
C246 C247 1.371 . S
C246 C248 1.365 . S
C247 C246 1.371 . S
C247 C257 1.386 . S
C247 H265 0.931 . S
C248 C246 1.365 . S
C248 C249 1.409 . S
C248 H266 0.929 . S
C249 C248 1.409 . S
C249 C250 1.380 . S
C249 H267 0.930 . S
C250 C249 1.380 . S
C250 C257 1.357 . S
C251 C242 1.511 . S
C251 C252 1.341 . S
C251 C253 1.371 . S
C252 C251 1.341 . S
C252 C256 1.394 . S
C252 H268 0.930 . S
C253 C251 1.371 . S
C253 C254 1.392 . S
C253 H269 0.931 . S
C254 C253 1.392 . S
C254 C255 1.331 . S
C254 H272 0.932 . S
C255 C254 1.331 . S
C255 C256 1.336 . S
C256 C252 1.394 . S
C256 C255 1.336 . S
C256 H271 0.929 . S
C257 C247 1.386 . S
C257 C250 1.357 . S
C257 H270 0.928 . S
H258 C234 0.931 . S
H259 C236 0.930 . S
H260 C238 0.929 . S
H261 C239 0.931 . S
H262 C241 0.930 . S
H263 C245 0.931 . S
H264 C243 0.931 . S
H265 C247 0.931 . S
H266 C248 0.929 . S
H267 C249 0.930 . S
H268 C252 0.930 . S
H269 C253 0.931 . S
H270 C257 0.928 . S
H271 C256 0.929 . S
H272 C254 0.932 . S
C273 C274 1.386 . S
C273 C275 1.397 . S
C273 H297 0.931 . S
C274 C273 1.386 . S
C274 C278 1.397 . S
C275 C273 1.397 . S
C275 C276 1.384 . S
C275 H298 0.930 . S
C276 C275 1.384 . S
C276 C277 1.377 . S
C276 C279 1.481 . S
C277 C276 1.377 . S
C277 C278 1.389 . S
C277 H299 0.929 . S
C278 C274 1.397 . S
C278 C277 1.389 . S
C278 H300 0.931 . S
C279 C276 1.481 . S
C279 C280 1.387 . S
C279 C284 1.390 . S
C280 C279 1.387 . S
C280 C281 1.401 . S
C280 H301 0.930 . S
C281 C280 1.401 . S
C281 C282 1.376 . S
C281 C290 1.511 . S
C282 C281 1.376 . S
C282 C283 1.392 . S
C282 H303 0.931 . S
C283 C282 1.392 . S
C283 C284 1.361 . S
C283 C285 1.500 . S
C284 C279 1.390 . S
C284 C283 1.361 . S
C284 H302 0.931 . S
C285 C283 1.500 . S
C285 C286 1.371 . S
C285 C287 1.365 . S
C286 C285 1.371 . S
C286 C296 1.386 . S
C286 H304 0.931 . S
C287 C285 1.365 . S
C287 C288 1.409 . S
C287 H305 0.929 . S
C288 C287 1.409 . S
C288 C289 1.380 . S
C288 H306 0.930 . S
C289 C288 1.380 . S
C289 C296 1.357 . S
C290 C281 1.511 . S
C290 C291 1.341 . S
C290 C292 1.371 . S
C291 C290 1.341 . S
C291 C295 1.394 . S
C291 H307 0.930 . S
C292 C290 1.371 . S
C292 C293 1.392 . S
C292 H308 0.931 . S
C293 C292 1.392 . S
C293 C294 1.331 . S
C293 H311 0.932 . S
C294 C293 1.331 . S
C294 C295 1.336 . S
C295 C291 1.394 . S
C295 C294 1.336 . S
C295 H310 0.929 . S
C296 C286 1.386 . S
C296 C289 1.357 . S
C296 H309 0.928 . S
H297 C273 0.931 . S
H298 C275 0.930 . S
H299 C277 0.929 . S
H300 C278 0.931 . S
H301 C280 0.930 . S
H302 C284 0.931 . S
H303 C282 0.931 . S
H304 C286 0.931 . S
H305 C287 0.929 . S
H306 C288 0.930 . S
H307 C291 0.930 . S
H308 C292 0.931 . S
H309 C296 0.928 . S
H310 C295 0.929 . S
H311 C293 0.932 . S
C312 C313 1.386 . S
C312 C314 1.397 . S
C312 H336 0.931 . S
C313 C312 1.386 . S
C313 C317 1.397 . S
C314 C312 1.397 . S
C314 C315 1.384 . S
C314 H337 0.930 . S
C315 C314 1.384 . S
C315 C316 1.377 . S
C315 C318 1.481 . S
C316 C315 1.377 . S
C316 C317 1.389 . S
C316 H338 0.929 . S
C317 C313 1.397 . S
C317 C316 1.389 . S
C317 H339 0.931 . S
C318 C315 1.481 . S
C318 C319 1.387 . S
C318 C323 1.390 . S
C319 C318 1.387 . S
C319 C320 1.401 . S
C319 H340 0.930 . S
C320 C319 1.401 . S
C320 C321 1.376 . S
C320 C329 1.511 . S
C321 C320 1.376 . S
C321 C322 1.392 . S
C321 H342 0.931 . S
C322 C321 1.392 . S
C322 C323 1.361 . S
C322 C324 1.500 . S
C323 C318 1.390 . S
C323 C322 1.361 . S
C323 H341 0.931 . S
C324 C322 1.500 . S
C324 C325 1.371 . S
C324 C326 1.365 . S
C325 C324 1.371 . S
C325 C335 1.386 . S
C325 H343 0.931 . S
C326 C324 1.365 . S
C326 C327 1.409 . S
C326 H344 0.929 . S
C327 C326 1.409 . S
C327 C328 1.380 . S
C327 H345 0.930 . S
C328 C327 1.380 . S
C328 C335 1.357 . S
C329 C320 1.511 . S
C329 C330 1.341 . S
C329 C331 1.371 . S
C330 C329 1.341 . S
C330 C334 1.394 . S
C330 H346 0.930 . S
C331 C329 1.371 . S
C331 C332 1.392 . S
C331 H347 0.931 . S
C332 C331 1.392 . S
C332 C333 1.331 . S
C332 H350 0.932 . S
C333 C332 1.331 . S
C333 C334 1.336 . S
C334 C330 1.394 . S
C334 C333 1.336 . S
C334 H349 0.929 . S
C335 C325 1.386 . S
C335 C328 1.357 . S
C335 H348 0.928 . S
H336 C312 0.931 . S
H337 C314 0.930 . S
H338 C316 0.929 . S
H339 C317 0.931 . S
H340 C319 0.930 . S
H341 C323 0.931 . S
H342 C321 0.931 . S
H343 C325 0.931 . S
H344 C326 0.929 . S
H345 C327 0.930 . S
H346 C330 0.930 . S
H347 C331 0.931 . S
H348 C335 0.928 . S
H349 C334 0.929 . S
H350 C332 0.932 . S
C351 C352 1.386 . S
C351 C353 1.397 . S
C351 H375 0.931 . S
C352 C351 1.386 . S
C352 C356 1.397 . S
C353 C351 1.397 . S
C353 C354 1.384 . S
C353 H376 0.930 . S
C354 C353 1.384 . S
C354 C355 1.377 . S
C354 C357 1.481 . S
C355 C354 1.377 . S
C355 C356 1.389 . S
C355 H377 0.929 . S
C356 C352 1.397 . S
C356 C355 1.389 . S
C356 H378 0.931 . S
C357 C354 1.481 . S
C357 C358 1.387 . S
C357 C362 1.390 . S
C358 C357 1.387 . S
C358 C359 1.401 . S
C358 H379 0.930 . S
C359 C358 1.401 . S
C359 C360 1.376 . S
C359 C368 1.511 . S
C360 C359 1.376 . S
C360 C361 1.392 . S
C360 H381 0.931 . S
C361 C360 1.392 . S
C361 C362 1.361 . S
C361 C363 1.500 . S
C362 C357 1.390 . S
C362 C361 1.361 . S
C362 H380 0.931 . S
C363 C361 1.500 . S
C363 C364 1.371 . S
C363 C365 1.365 . S
C364 C363 1.371 . S
C364 C374 1.386 . S
C364 H382 0.931 . S
C365 C363 1.365 . S
C365 C366 1.409 . S
C365 H383 0.929 . S
C366 C365 1.409 . S
C366 C367 1.380 . S
C366 H384 0.930 . S
C367 C366 1.380 . S
C367 C374 1.357 . S
C368 C359 1.511 . S
C368 C369 1.341 . S
C368 C370 1.371 . S
C369 C368 1.341 . S
C369 C373 1.394 . S
C369 H385 0.930 . S
C370 C368 1.371 . S
C370 C371 1.392 . S
C370 H386 0.931 . S
C371 C370 1.392 . S
C371 C372 1.331 . S
C371 H389 0.932 . S
C372 C371 1.331 . S
C372 C373 1.336 . S
C373 C369 1.394 . S
C373 C372 1.336 . S
C373 H388 0.929 . S
C374 C364 1.386 . S
C374 C367 1.357 . S
C374 H387 0.928 . S
H375 C351 0.931 . S
H376 C353 0.930 . S
H377 C355 0.929 . S
H378 C356 0.931 . S
H379 C358 0.930 . S
H380 C362 0.931 . S
H381 C360 0.931 . S
H382 C364 0.931 . S
H383 C365 0.929 . S
H384 C366 0.930 . S
H385 C369 0.930 . S
H386 C370 0.931 . S
H387 C374 0.928 . S
H388 C373 0.929 . S
H389 C371 0.932 . S
C390 C391 1.386 . S
C390 C392 1.397 . S
C390 H414 0.931 . S
C391 C390 1.386 . S
C391 C395 1.397 . S
C392 C390 1.397 . S
C392 C393 1.384 . S
C392 H415 0.930 . S
C393 C392 1.384 . S
C393 C394 1.377 . S
C393 C396 1.481 . S
C394 C393 1.377 . S
C394 C395 1.389 . S
C394 H416 0.929 . S
C395 C391 1.397 . S
C395 C394 1.389 . S
C395 H417 0.931 . S
C396 C393 1.481 . S
C396 C397 1.387 . S
C396 C401 1.390 . S
C397 C396 1.387 . S
C397 C398 1.401 . S
C397 H418 0.930 . S
C398 C397 1.401 . S
C398 C399 1.376 . S
C398 C407 1.511 . S
C399 C398 1.376 . S
C399 C400 1.392 . S
C399 H420 0.931 . S
C400 C399 1.392 . S
C400 C401 1.361 . S
C400 C402 1.500 . S
C401 C396 1.390 . S
C401 C400 1.361 . S
C401 H419 0.931 . S
C402 C400 1.500 . S
C402 C403 1.371 . S
C402 C404 1.365 . S
C403 C402 1.371 . S
C403 C413 1.386 . S
C403 H421 0.931 . S
C404 C402 1.365 . S
C404 C405 1.409 . S
C404 H422 0.929 . S
C405 C404 1.409 . S
C405 C406 1.380 . S
C405 H423 0.930 . S
C406 C405 1.380 . S
C406 C413 1.357 . S
C407 C398 1.511 . S
C407 C408 1.341 . S
C407 C409 1.371 . S
C408 C407 1.341 . S
C408 C412 1.394 . S
C408 H424 0.930 . S
C409 C407 1.371 . S
C409 C410 1.392 . S
C409 H425 0.931 . S
C410 C409 1.392 . S
C410 C411 1.331 . S
C410 H428 0.932 . S
C411 C410 1.331 . S
C411 C412 1.336 . S
C412 C408 1.394 . S
C412 C411 1.336 . S
C412 H427 0.929 . S
C413 C403 1.386 . S
C413 C406 1.357 . S
C413 H426 0.928 . S
H414 C390 0.931 . S
H415 C392 0.930 . S
H416 C394 0.929 . S
H417 C395 0.931 . S
H418 C397 0.930 . S
H419 C401 0.931 . S
H420 C399 0.931 . S
H421 C403 0.931 . S
H422 C404 0.929 . S
H423 C405 0.930 . S
H424 C408 0.930 . S
H425 C409 0.931 . S
H426 C413 0.928 . S
H427 C412 0.929 . S
H428 C410 0.932 . S
C429 C430 1.386 . S
C429 C431 1.397 . S
C429 H453 0.931 . S
C430 C429 1.386 . S
C430 C434 1.397 . S
C431 C429 1.397 . S
C431 C432 1.384 . S
C431 H454 0.930 . S
C432 C431 1.384 . S
C432 C433 1.377 . S
C432 C435 1.481 . S
C433 C432 1.377 . S
C433 C434 1.389 . S
C433 H455 0.929 . S
C434 C430 1.397 . S
C434 C433 1.389 . S
C434 H456 0.931 . S
C435 C432 1.481 . S
C435 C436 1.387 . S
C435 C440 1.390 . S
C436 C435 1.387 . S
C436 C437 1.401 . S
C436 H457 0.930 . S
C437 C436 1.401 . S
C437 C438 1.376 . S
C437 C446 1.511 . S
C438 C437 1.376 . S
C438 C439 1.392 . S
C438 H459 0.931 . S
C439 C438 1.392 . S
C439 C440 1.361 . S
C439 C441 1.500 . S
C440 C435 1.390 . S
C440 C439 1.361 . S
C440 H458 0.931 . S
C441 C439 1.500 . S
C441 C442 1.371 . S
C441 C443 1.365 . S
C442 C441 1.371 . S
C442 C452 1.386 . S
C442 H460 0.931 . S
C443 C441 1.365 . S
C443 C444 1.409 . S
C443 H461 0.929 . S
C444 C443 1.409 . S
C444 C445 1.380 . S
C444 H462 0.930 . S
C445 C444 1.380 . S
C445 C452 1.357 . S
C446 C437 1.511 . S
C446 C447 1.341 . S
C446 C448 1.371 . S
C447 C446 1.341 . S
C447 C451 1.394 . S
C447 H463 0.930 . S
C448 C446 1.371 . S
C448 C449 1.392 . S
C448 H464 0.931 . S
C449 C448 1.392 . S
C449 C450 1.331 . S
C449 H467 0.932 . S
C450 C449 1.331 . S
C450 C451 1.336 . S
C451 C447 1.394 . S
C451 C450 1.336 . S
C451 H466 0.929 . S
C452 C442 1.386 . S
C452 C445 1.357 . S
C452 H465 0.928 . S
H453 C429 0.931 . S
H454 C431 0.930 . S
H455 C433 0.929 . S
H456 C434 0.931 . S
H457 C436 0.930 . S
H458 C440 0.931 . S
H459 C438 0.931 . S
H460 C442 0.931 . S
H461 C443 0.929 . S
H462 C444 0.930 . S
H463 C447 0.930 . S
H464 C448 0.931 . S
H465 C452 0.928 . S
H466 C451 0.929 . S
H467 C449 0.932 . S
C468 C469 1.386 . S
C468 C470 1.397 . S
C468 H492 0.931 . S
C469 C468 1.386 . S
C469 C473 1.397 . S
C470 C468 1.397 . S
C470 C471 1.384 . S
C470 H493 0.930 . S
C471 C470 1.384 . S
C471 C472 1.377 . S
C471 C474 1.481 . S
C472 C471 1.377 . S
C472 C473 1.389 . S
C472 H494 0.929 . S
C473 C469 1.397 . S
C473 C472 1.389 . S
C473 H495 0.931 . S
C474 C471 1.481 . S
C474 C475 1.387 . S
C474 C479 1.390 . S
C475 C474 1.387 . S
C475 C476 1.401 . S
C475 H496 0.930 . S
C476 C475 1.401 . S
C476 C477 1.376 . S
C476 C485 1.511 . S
C477 C476 1.376 . S
C477 C478 1.392 . S
C477 H498 0.931 . S
C478 C477 1.392 . S
C478 C479 1.361 . S
C478 C480 1.500 . S
C479 C474 1.390 . S
C479 C478 1.361 . S
C479 H497 0.931 . S
C480 C478 1.500 . S
C480 C481 1.371 . S
C480 C482 1.365 . S
C481 C480 1.371 . S
C481 C491 1.386 . S
C481 H499 0.931 . S
C482 C480 1.365 . S
C482 C483 1.409 . S
C482 H500 0.929 . S
C483 C482 1.409 . S
C483 C484 1.380 . S
C483 H501 0.930 . S
C484 C483 1.380 . S
C484 C491 1.357 . S
C485 C476 1.511 . S
C485 C486 1.341 . S
C485 C487 1.371 . S
C486 C485 1.341 . S
C486 C490 1.394 . S
C486 H502 0.930 . S
C487 C485 1.371 . S
C487 C488 1.392 . S
C487 H503 0.931 . S
C488 C487 1.392 . S
C488 C489 1.331 . S
C488 H506 0.932 . S
C489 C488 1.331 . S
C489 C490 1.336 . S
C490 C486 1.394 . S
C490 C489 1.336 . S
C490 H505 0.929 . S
C491 C481 1.386 . S
C491 C484 1.357 . S
C491 H504 0.928 . S
H492 C468 0.931 . S
H493 C470 0.930 . S
H494 C472 0.929 . S
H495 C473 0.931 . S
H496 C475 0.930 . S
H497 C479 0.931 . S
H498 C477 0.931 . S
H499 C481 0.931 . S
H500 C482 0.929 . S
H501 C483 0.930 . S
H502 C486 0.930 . S
H503 C487 0.931 . S
H504 C491 0.928 . S
H505 C490 0.929 . S
H506 C488 0.932 . S
C507 C508 1.386 . S
C507 C509 1.397 . S
C507 H531 0.931 . S
C508 C507 1.386 . S
C508 C512 1.397 . S
C509 C507 1.397 . S
C509 C510 1.384 . S
C509 H532 0.930 . S
C510 C509 1.384 . S
C510 C511 1.377 . S
C510 C513 1.481 . S
C511 C510 1.377 . S
C511 C512 1.389 . S
C511 H533 0.929 . S
C512 C508 1.397 . S
C512 C511 1.389 . S
C512 H534 0.931 . S
C513 C510 1.481 . S
C513 C514 1.387 . S
C513 C518 1.390 . S
C514 C513 1.387 . S
C514 C515 1.401 . S
C514 H535 0.930 . S
C515 C514 1.401 . S
C515 C516 1.376 . S
C515 C524 1.511 . S
C516 C515 1.376 . S
C516 C517 1.392 . S
C516 H537 0.931 . S
C517 C516 1.392 . S
C517 C518 1.361 . S
C517 C519 1.500 . S
C518 C513 1.390 . S
C518 C517 1.361 . S
C518 H536 0.931 . S
C519 C517 1.500 . S
C519 C520 1.371 . S
C519 C521 1.365 . S
C520 C519 1.371 . S
C520 C530 1.386 . S
C520 H538 0.931 . S
C521 C519 1.365 . S
C521 C522 1.409 . S
C521 H539 0.929 . S
C522 C521 1.409 . S
C522 C523 1.380 . S
C522 H540 0.930 . S
C523 C522 1.380 . S
C523 C530 1.357 . S
C524 C515 1.511 . S
C524 C525 1.341 . S
C524 C526 1.371 . S
C525 C524 1.341 . S
C525 C529 1.394 . S
C525 H541 0.930 . S
C526 C524 1.371 . S
C526 C527 1.392 . S
C526 H542 0.931 . S
C527 C526 1.392 . S
C527 C528 1.331 . S
C527 H545 0.932 . S
C528 C527 1.331 . S
C528 C529 1.336 . S
C529 C525 1.394 . S
C529 C528 1.336 . S
C529 H544 0.929 . S
C530 C520 1.386 . S
C530 C523 1.357 . S
C530 H543 0.928 . S
H531 C507 0.931 . S
H532 C509 0.930 . S
H533 C511 0.929 . S
H534 C512 0.931 . S
H535 C514 0.930 . S
H536 C518 0.931 . S
H537 C516 0.931 . S
H538 C520 0.931 . S
H539 C521 0.929 . S
H540 C522 0.930 . S
H541 C525 0.930 . S
H542 C526 0.931 . S
H543 C530 0.928 . S
H544 C529 0.929 . S
H545 C527 0.932 . S
C546 C547 1.386 . S
C546 C548 1.397 . S
C546 H570 0.931 . S
C547 C546 1.386 . S
C547 C551 1.397 . S
C548 C546 1.397 . S
C548 C549 1.384 . S
C548 H571 0.930 . S
C549 C548 1.384 . S
C549 C550 1.377 . S
C549 C552 1.481 . S
C550 C549 1.377 . S
C550 C551 1.389 . S
C550 H572 0.929 . S
C551 C547 1.397 . S
C551 C550 1.389 . S
C551 H573 0.931 . S
C552 C549 1.481 . S
C552 C553 1.387 . S
C552 C557 1.390 . S
C553 C552 1.387 . S
C553 C554 1.401 . S
C553 H574 0.930 . S
C554 C553 1.401 . S
C554 C555 1.376 . S
C554 C563 1.511 . S
C555 C554 1.376 . S
C555 C556 1.392 . S
C555 H576 0.931 . S
C556 C555 1.392 . S
C556 C557 1.361 . S
C556 C558 1.500 . S
C557 C552 1.390 . S
C557 C556 1.361 . S
C557 H575 0.931 . S
C558 C556 1.500 . S
C558 C559 1.371 . S
C558 C560 1.365 . S
C559 C558 1.371 . S
C559 C569 1.386 . S
C559 H577 0.931 . S
C560 C558 1.365 . S
C560 C561 1.409 . S
C560 H578 0.929 . S
C561 C560 1.409 . S
C561 C562 1.380 . S
C561 H579 0.930 . S
C562 C561 1.380 . S
C562 C569 1.357 . S
C563 C554 1.511 . S
C563 C564 1.341 . S
C563 C565 1.371 . S
C564 C563 1.341 . S
C564 C568 1.394 . S
C564 H580 0.930 . S
C565 C563 1.371 . S
C565 C566 1.392 . S
C565 H581 0.931 . S
C566 C565 1.392 . S
C566 C567 1.331 . S
C566 H584 0.932 . S
C567 C566 1.331 . S
C567 C568 1.336 . S
C568 C564 1.394 . S
C568 C567 1.336 . S
C568 H583 0.929 . S
C569 C559 1.386 . S
C569 C562 1.357 . S
C569 H582 0.928 . S
H570 C546 0.931 . S
H571 C548 0.930 . S
H572 C550 0.929 . S
H573 C551 0.931 . S
H574 C553 0.930 . S
H575 C557 0.931 . S
H576 C555 0.931 . S
H577 C559 0.931 . S
H578 C560 0.929 . S
H579 C561 0.930 . S
H580 C564 0.930 . S
H581 C565 0.931 . S
H582 C569 0.928 . S
H583 C568 0.929 . S
H584 C566 0.932 . S
C585 C586 1.386 . S
C585 C587 1.397 . S
C585 H609 0.931 . S
C586 C585 1.386 . S
C586 C590 1.397 . S
C587 C585 1.397 . S
C587 C588 1.384 . S
C587 H610 0.930 . S
C588 C587 1.384 . S
C588 C589 1.377 . S
C588 C591 1.481 . S
C589 C588 1.377 . S
C589 C590 1.389 . S
C589 H611 0.929 . S
C590 C586 1.397 . S
C590 C589 1.389 . S
C590 H612 0.931 . S
C591 C588 1.481 . S
C591 C592 1.387 . S
C591 C596 1.390 . S
C592 C591 1.387 . S
C592 C593 1.401 . S
C592 H613 0.930 . S
C593 C592 1.401 . S
C593 C594 1.376 . S
C593 C602 1.511 . S
C594 C593 1.376 . S
C594 C595 1.392 . S
C594 H615 0.931 . S
C595 C594 1.392 . S
C595 C596 1.361 . S
C595 C597 1.500 . S
C596 C591 1.390 . S
C596 C595 1.361 . S
C596 H614 0.931 . S
C597 C595 1.500 . S
C597 C598 1.371 . S
C597 C599 1.365 . S
C598 C597 1.371 . S
C598 C608 1.386 . S
C598 H616 0.931 . S
C599 C597 1.365 . S
C599 C600 1.409 . S
C599 H617 0.929 . S
C600 C599 1.409 . S
C600 C601 1.380 . S
C600 H618 0.930 . S
C601 C600 1.380 . S
C601 C608 1.357 . S
C602 C593 1.511 . S
C602 C603 1.341 . S
C602 C604 1.371 . S
C603 C602 1.341 . S
C603 C607 1.394 . S
C603 H619 0.930 . S
C604 C602 1.371 . S
C604 C605 1.392 . S
C604 H620 0.931 . S
C605 C604 1.392 . S
C605 C606 1.331 . S
C605 H623 0.932 . S
C606 C605 1.331 . S
C606 C607 1.336 . S
C607 C603 1.394 . S
C607 C606 1.336 . S
C607 H622 0.929 . S
C608 C598 1.386 . S
C608 C601 1.357 . S
C608 H621 0.928 . S
H609 C585 0.931 . S
H610 C587 0.930 . S
H611 C589 0.929 . S
H612 C590 0.931 . S
H613 C592 0.930 . S
H614 C596 0.931 . S
H615 C594 0.931 . S
H616 C598 0.931 . S
H617 C599 0.929 . S
H618 C600 0.930 . S
H619 C603 0.930 . S
H620 C604 0.931 . S
H621 C608 0.928 . S
H622 C607 0.929 . S
H623 C605 0.932 . S
C624 C625 1.386 . S
C624 C626 1.397 . S
C624 H648 0.931 . S
C625 C624 1.386 . S
C625 C629 1.397 . S
C626 C624 1.397 . S
C626 C627 1.384 . S
C626 H649 0.930 . S
C627 C626 1.384 . S
C627 C628 1.377 . S
C627 C630 1.481 . S
C628 C627 1.377 . S
C628 C629 1.389 . S
C628 H650 0.929 . S
C629 C625 1.397 . S
C629 C628 1.389 . S
C629 H651 0.931 . S
C630 C627 1.481 . S
C630 C631 1.387 . S
C630 C635 1.390 . S
C631 C630 1.387 . S
C631 C632 1.401 . S
C631 H652 0.930 . S
C632 C631 1.401 . S
C632 C633 1.376 . S
C632 C641 1.511 . S
C633 C632 1.376 . S
C633 C634 1.392 . S
C633 H654 0.931 . S
C634 C633 1.392 . S
C634 C635 1.361 . S
C634 C636 1.500 . S
C635 C630 1.390 . S
C635 C634 1.361 . S
C635 H653 0.931 . S
C636 C634 1.500 . S
C636 C637 1.371 . S
C636 C638 1.365 . S
C637 C636 1.371 . S
C637 C647 1.386 . S
C637 H655 0.931 . S
C638 C636 1.365 . S
C638 C639 1.409 . S
C638 H656 0.929 . S
C639 C638 1.409 . S
C639 C640 1.380 . S
C639 H657 0.930 . S
C640 C639 1.380 . S
C640 C647 1.357 . S
C641 C632 1.511 . S
C641 C642 1.341 . S
C641 C643 1.371 . S
C642 C641 1.341 . S
C642 C646 1.394 . S
C642 H658 0.930 . S
C643 C641 1.371 . S
C643 C644 1.392 . S
C643 H659 0.931 . S
C644 C643 1.392 . S
C644 C645 1.331 . S
C644 H662 0.932 . S
C645 C644 1.331 . S
C645 C646 1.336 . S
C646 C642 1.394 . S
C646 C645 1.336 . S
C646 H661 0.929 . S
C647 C637 1.386 . S
C647 C640 1.357 . S
C647 H660 0.928 . S
H648 C624 0.931 . S
H649 C626 0.930 . S
H650 C628 0.929 . S
H651 C629 0.931 . S
H652 C631 0.930 . S
H653 C635 0.931 . S
H654 C633 0.931 . S
H655 C637 0.931 . S
H656 C638 0.929 . S
H657 C639 0.930 . S
H658 C642 0.930 . S
H659 C643 0.931 . S
H660 C647 0.928 . S
H661 C646 0.929 . S
H662 C644 0.932 . S
C663 C664 1.386 . S
C663 C665 1.397 . S
C663 H687 0.931 . S
C664 C663 1.386 . S
C664 C668 1.397 . S
C665 C663 1.397 . S
C665 C666 1.384 . S
C665 H688 0.930 . S
C666 C665 1.384 . S
C666 C667 1.377 . S
C666 C669 1.481 . S
C667 C666 1.377 . S
C667 C668 1.389 . S
C667 H689 0.929 . S
C668 C664 1.397 . S
C668 C667 1.389 . S
C668 H690 0.931 . S
C669 C666 1.481 . S
C669 C670 1.387 . S
C669 C674 1.390 . S
C670 C669 1.387 . S
C670 C671 1.401 . S
C670 H691 0.930 . S
C671 C670 1.401 . S
C671 C672 1.376 . S
C671 C680 1.511 . S
C672 C671 1.376 . S
C672 C673 1.392 . S
C672 H693 0.931 . S
C673 C672 1.392 . S
C673 C674 1.361 . S
C673 C675 1.500 . S
C674 C669 1.390 . S
C674 C673 1.361 . S
C674 H692 0.931 . S
C675 C673 1.500 . S
C675 C676 1.371 . S
C675 C677 1.365 . S
C676 C675 1.371 . S
C676 C686 1.386 . S
C676 H694 0.931 . S
C677 C675 1.365 . S
C677 C678 1.409 . S
C677 H695 0.929 . S
C678 C677 1.409 . S
C678 C679 1.380 . S
C678 H696 0.930 . S
C679 C678 1.380 . S
C679 C686 1.357 . S
C680 C671 1.511 . S
C680 C681 1.341 . S
C680 C682 1.371 . S
C681 C680 1.341 . S
C681 C685 1.394 . S
C681 H697 0.930 . S
C682 C680 1.371 . S
C682 C683 1.392 . S
C682 H698 0.931 . S
C683 C682 1.392 . S
C683 C684 1.331 . S
C683 H701 0.932 . S
C684 C683 1.331 . S
C684 C685 1.336 . S
C685 C681 1.394 . S
C685 C684 1.336 . S
C685 H700 0.929 . S
C686 C676 1.386 . S
C686 C679 1.357 . S
C686 H699 0.928 . S
H687 C663 0.931 . S
H688 C665 0.930 . S
H689 C667 0.929 . S
H690 C668 0.931 . S
H691 C670 0.930 . S
H692 C674 0.931 . S
H693 C672 0.931 . S
H694 C676 0.931 . S
H695 C677 0.929 . S
H696 C678 0.930 . S
H697 C681 0.930 . S
H698 C682 0.931 . S
H699 C686 0.928 . S
H700 C685 0.929 . S
H701 C683 0.932 . S
Tb702 N733 2.660 . S
Tb702 N740 2.600 . S
Tb702 O746 2.546 . S
Tb702 O747 2.610 1_565 S
Tb702 O749 2.320 1_565 S
Tb702 O750 2.552 1_565 S
Tb702 O751 2.413 . S
Tb702 O753 2.362 1_556 S
Tb702 O754 2.421 . S
Tb702 C766 2.833 . S
C703 C706 1.432 . S
C703 C707 1.414 . S
C703 N710 1.359 . S
C704 C706 1.417 . S
C704 C708 1.432 . S
C704 C716 1.410 . S
C705 C707 1.444 . S
C705 C708 1.317 . S
C705 H728 0.929 . S
C706 C703 1.432 . S
C706 C704 1.417 . S
C706 N714 1.360 . S
C707 C703 1.414 . S
C707 C705 1.444 . S
C707 C712 1.385 . S
C708 C704 1.432 . S
C708 C705 1.317 . S
C708 H720 0.930 . S
C709 C711 1.392 . S
C709 C712 1.370 . S
C709 H721 0.931 . S
N710 C703 1.359 . S
N710 C711 1.327 . S
N710 Tb713 2.600 . S
C711 C709 1.392 . S
C711 N710 1.327 . S
C711 H718 0.930 . S
C712 C707 1.385 . S
C712 C709 1.370 . S
C712 H731 0.930 . S
Tb713 N710 2.600 . S
Tb713 N714 2.660 . S
Tb713 O747 2.362 1_554 S
Tb713 O748 2.421 . S
Tb713 O752 2.546 . S
Tb713 O753 2.610 1_545 S
Tb713 O755 2.320 1_545 S
Tb713 O756 2.552 1_545 S
Tb713 O757 2.413 . S
Tb713 C777 2.833 . S
N714 C706 1.360 . S
N714 Tb713 2.660 . S
N714 C715 1.305 . S
C715 N714 1.305 . S
C715 C717 1.407 . S
C715 H722 0.930 . S
C716 C704 1.410 . S
C716 C717 1.345 . S
C716 H724 0.930 . S
C717 C715 1.407 . S
C717 C716 1.345 . S
C717 H719 0.930 . S
H718 C711 0.930 . S
H719 C717 0.930 . S
H720 C708 0.930 . S
H721 C709 0.931 . S
H722 C715 0.930 . S
H723 C737 0.930 . S
H724 C716 0.930 . S
H725 C743 0.930 . S
H726 C734 0.930 . S
H727 C741 0.931 . S
H728 C705 0.929 . S
H729 C735 0.930 . S
H730 C768 0.930 . S
H731 C712 0.930 . S
H732 C767 0.929 . S
N733 Tb702 2.660 . S
N733 C734 1.305 . S
N733 C738 1.360 . S
C734 H726 0.930 . S
C734 N733 1.305 . S
C734 C737 1.407 . S
C735 H729 0.930 . S
C735 C736 1.410 . S
C735 C737 1.345 . S
C736 C735 1.410 . S
C736 C738 1.417 . S
C736 C768 1.432 . S
C737 H723 0.930 . S
C737 C734 1.407 . S
C737 C735 1.345 . S
C738 N733 1.360 . S
C738 C736 1.417 . S
C738 C742 1.432 . S
H739 C744 0.930 . S
N740 Tb702 2.600 . S
N740 C742 1.359 . S
N740 C743 1.327 . S
C741 H727 0.931 . S
C741 C743 1.392 . S
C741 C744 1.370 . S
C742 C738 1.432 . S
C742 N740 1.359 . S
C742 C745 1.414 . S
C743 H725 0.930 . S
C743 N740 1.327 . S
C743 C741 1.392 . S
C744 H739 0.930 . S
C744 C741 1.370 . S
C744 C745 1.385 . S
C745 C742 1.414 . S
C745 C744 1.385 . S
C745 C767 1.444 . S
O746 Tb702 2.546 . S
O746 C766 1.251 . S
O747 Tb702 2.610 1_545 S
O747 Tb713 2.362 1_556 S
O747 C758 1.283 . S
O748 Tb713 2.421 . S
O748 C765 1.262 1_554 S
O749 Tb702 2.320 1_545 S
O749 C765 1.260 . S
O750 Tb702 2.552 1_545 S
O750 C758 1.243 . S
O751 Tb702 2.413 . S
O751 C766 1.256 . S
O752 Tb713 2.546 . S
O752 C777 1.251 . S
O753 Tb702 2.362 1_554 S
O753 Tb713 2.610 1_565 S
O753 C769 1.283 . S
O754 Tb702 2.421 . S
O754 C776 1.262 1_556 S
O755 Tb713 2.320 1_565 S
O755 C776 1.260 . S
O756 Tb713 2.552 1_565 S
O756 C769 1.243 . S
O757 Tb713 2.413 . S
O757 C777 1.256 . S
C758 O747 1.283 . S
C758 O750 1.243 . S
C759 C761 1.382 1_565 S
C759 C763 1.393 . S
C759 C766 1.500 . S
C760 C761 1.400 . S
C760 C762 1.384 1_545 S
C761 C759 1.382 1_545 S
C761 C760 1.400 . S
C761 H778 0.930 . S
C762 C760 1.384 1_565 S
C762 C764 1.392 . S
C762 H779 0.931 . S
C763 C759 1.393 . S
C763 C764 1.401 . S
C763 H780 0.930 . S
C764 C762 1.392 . S
C764 C763 1.401 . S
C764 H781 0.930 . S
C765 O748 1.262 1_556 S
C765 O749 1.260 . S
C766 Tb702 2.833 . S
C766 O746 1.251 . S
C766 O751 1.256 . S
C766 C759 1.500 . S
C767 H732 0.929 . S
C767 C745 1.444 . S
C767 C768 1.317 . S
C768 H730 0.930 . S
C768 C736 1.432 . S
C768 C767 1.317 . S
C769 O753 1.283 . S
C769 O756 1.243 . S
C770 C771 1.382 1_545 S
C770 C774 1.393 . S
C770 C777 1.500 . S
C771 C770 1.382 1_565 S
C771 C772 1.400 . S
C771 H782 0.930 . S
C772 C771 1.400 . S
C772 C773 1.384 1_565 S
C773 C772 1.384 1_545 S
C773 C775 1.392 . S
C773 H783 0.931 . S
C774 C770 1.393 . S
C774 C775 1.401 . S
C774 H784 0.930 . S
C775 C773 1.392 . S
C775 C774 1.401 . S
C775 H785 0.930 . S
C776 O754 1.262 1_554 S
C776 O755 1.260 . S
C777 Tb713 2.833 . S
C777 O752 1.251 . S
C777 O757 1.256 . S
C777 C770 1.500 . S
H778 C761 0.930 . S
H779 C762 0.931 . S
H780 C763 0.930 . S
H781 C764 0.930 . S
H782 C771 0.930 . S
H783 C773 0.931 . S
H784 C774 0.930 . S
H785 C775 0.930 . S
Tb786 N817 2.660 . S
Tb786 N824 2.600 . S
Tb786 O830 2.546 . S
Tb786 O831 2.610 1_455 S
Tb786 O833 2.320 1_455 S
Tb786 O834 2.552 1_455 S
Tb786 O835 2.413 . S
Tb786 O837 2.362 1_556 S
Tb786 O838 2.421 . S
Tb786 C850 2.833 . S
C787 C790 1.432 . S
C787 C791 1.414 . S
C787 N794 1.359 . S
C788 C790 1.417 . S
C788 C792 1.432 . S
C788 C800 1.410 . S
C789 C791 1.444 . S
C789 C792 1.317 . S
C789 H812 0.929 . S
C790 C787 1.432 . S
C790 C788 1.417 . S
C790 N798 1.360 . S
C791 C787 1.414 . S
C791 C789 1.444 . S
C791 C796 1.385 . S
C792 C788 1.432 . S
C792 C789 1.317 . S
C792 H804 0.930 . S
C793 C795 1.392 . S
C793 C796 1.370 . S
C793 H805 0.931 . S
N794 C787 1.359 . S
N794 C795 1.327 . S
N794 Tb797 2.600 . S
C795 C793 1.392 . S
C795 N794 1.327 . S
C795 H802 0.930 . S
C796 C791 1.385 . S
C796 C793 1.370 . S
C796 H815 0.930 . S
Tb797 N794 2.600 . S
Tb797 N798 2.660 . S
Tb797 O831 2.362 1_554 S
Tb797 O832 2.421 . S
Tb797 O836 2.546 . S
Tb797 O837 2.610 1_655 S
Tb797 O839 2.320 1_655 S
Tb797 O840 2.552 1_655 S
Tb797 O841 2.413 . S
Tb797 C861 2.833 . S
N798 C790 1.360 . S
N798 Tb797 2.660 . S
N798 C799 1.305 . S
C799 N798 1.305 . S
C799 C801 1.407 . S
C799 H806 0.930 . S
C800 C788 1.410 . S
C800 C801 1.345 . S
C800 H808 0.930 . S
C801 C799 1.407 . S
C801 C800 1.345 . S
C801 H803 0.930 . S
H802 C795 0.930 . S
H803 C801 0.930 . S
H804 C792 0.930 . S
H805 C793 0.931 . S
H806 C799 0.930 . S
H807 C821 0.930 . S
H808 C800 0.930 . S
H809 C827 0.930 . S
H810 C818 0.930 . S
H811 C825 0.931 . S
H812 C789 0.929 . S
H813 C819 0.930 . S
H814 C852 0.930 . S
H815 C796 0.930 . S
H816 C851 0.929 . S
N817 Tb786 2.660 . S
N817 C818 1.305 . S
N817 C822 1.360 . S
C818 H810 0.930 . S
C818 N817 1.305 . S
C818 C821 1.407 . S
C819 H813 0.930 . S
C819 C820 1.410 . S
C819 C821 1.345 . S
C820 C819 1.410 . S
C820 C822 1.417 . S
C820 C852 1.432 . S
C821 H807 0.930 . S
C821 C818 1.407 . S
C821 C819 1.345 . S
C822 N817 1.360 . S
C822 C820 1.417 . S
C822 C826 1.432 . S
H823 C828 0.930 . S
N824 Tb786 2.600 . S
N824 C826 1.359 . S
N824 C827 1.327 . S
C825 H811 0.931 . S
C825 C827 1.392 . S
C825 C828 1.370 . S
C826 C822 1.432 . S
C826 N824 1.359 . S
C826 C829 1.414 . S
C827 H809 0.930 . S
C827 N824 1.327 . S
C827 C825 1.392 . S
C828 H823 0.930 . S
C828 C825 1.370 . S
C828 C829 1.385 . S
C829 C826 1.414 . S
C829 C828 1.385 . S
C829 C851 1.444 . S
O830 Tb786 2.546 . S
O830 C850 1.251 . S
O831 Tb786 2.610 1_655 S
O831 Tb797 2.362 1_556 S
O831 C842 1.283 . S
O832 Tb797 2.421 . S
O832 C849 1.262 1_554 S
O833 Tb786 2.320 1_655 S
O833 C849 1.260 . S
O834 Tb786 2.552 1_655 S
O834 C842 1.243 . S
O835 Tb786 2.413 . S
O835 C850 1.256 . S
O836 Tb797 2.546 . S
O836 C861 1.251 . S
O837 Tb786 2.362 1_554 S
O837 Tb797 2.610 1_455 S
O837 C853 1.283 . S
O838 Tb786 2.421 . S
O838 C860 1.262 1_556 S
O839 Tb797 2.320 1_455 S
O839 C860 1.260 . S
O840 Tb797 2.552 1_455 S
O840 C853 1.243 . S
O841 Tb797 2.413 . S
O841 C861 1.256 . S
C842 O831 1.283 . S
C842 O834 1.243 . S
C843 C845 1.382 1_455 S
C843 C847 1.393 . S
C843 C850 1.500 . S
C844 C845 1.400 . S
C844 C846 1.384 1_655 S
C845 C843 1.382 1_655 S
C845 C844 1.400 . S
C845 H862 0.930 . S
C846 C844 1.384 1_455 S
C846 C848 1.392 . S
C846 H863 0.931 . S
C847 C843 1.393 . S
C847 C848 1.401 . S
C847 H864 0.930 . S
C848 C846 1.392 . S
C848 C847 1.401 . S
C848 H865 0.930 . S
C849 O832 1.262 1_556 S
C849 O833 1.260 . S
C850 Tb786 2.833 . S
C850 O830 1.251 . S
C850 O835 1.256 . S
C850 C843 1.500 . S
C851 H816 0.929 . S
C851 C829 1.444 . S
C851 C852 1.317 . S
C852 H814 0.930 . S
C852 C820 1.432 . S
C852 C851 1.317 . S
C853 O837 1.283 . S
C853 O840 1.243 . S
C854 C855 1.382 1_655 S
C854 C858 1.393 . S
C854 C861 1.500 . S
C855 C854 1.382 1_455 S
C855 C856 1.400 . S
C855 H866 0.930 . S
C856 C855 1.400 . S
C856 C857 1.384 1_455 S
C857 C856 1.384 1_655 S
C857 C859 1.392 . S
C857 H867 0.931 . S
C858 C854 1.393 . S
C858 C859 1.401 . S
C858 H868 0.930 . S
C859 C857 1.392 . S
C859 C858 1.401 . S
C859 H869 0.930 . S
C860 O838 1.262 1_554 S
C860 O839 1.260 . S
C861 Tb797 2.833 . S
C861 O836 1.251 . S
C861 O841 1.256 . S
C861 C854 1.500 . S
H862 C845 0.930 . S
H863 C846 0.931 . S
H864 C847 0.930 . S
H865 C848 0.930 . S
H866 C855 0.930 . S
H867 C857 0.931 . S
H868 C858 0.930 . S
H869 C859 0.930 . S
Tb870 N901 2.660 . S
Tb870 N908 2.600 . S
Tb870 O914 2.546 . S
Tb870 O915 2.610 . S
Tb870 O917 2.320 . S
Tb870 O918 2.552 . S
Tb870 O919 2.413 . S
Tb870 O921 2.362 1_554 S
Tb870 O922 2.421 . S
Tb870 C934 2.833 . S
C871 C874 1.432 . S
C871 C875 1.414 . S
C871 N878 1.359 . S
C872 C874 1.417 . S
C872 C876 1.432 . S
C872 C884 1.410 . S
C873 C875 1.444 . S
C873 C876 1.317 . S
C873 H896 0.929 . S
C874 C871 1.432 . S
C874 C872 1.417 . S
C874 N882 1.360 . S
C875 C871 1.414 . S
C875 C873 1.444 . S
C875 C880 1.385 . S
C876 C872 1.432 . S
C876 C873 1.317 . S
C876 H888 0.930 . S
C877 C879 1.392 . S
C877 C880 1.370 . S
C877 H889 0.931 . S
N878 C871 1.359 . S
N878 C879 1.327 . S
N878 Tb881 2.600 . S
C879 C877 1.392 . S
C879 N878 1.327 . S
C879 H886 0.930 . S
C880 C875 1.385 . S
C880 C877 1.370 . S
C880 H899 0.930 . S
Tb881 N878 2.600 . S
Tb881 N882 2.660 . S
Tb881 O915 2.362 1_556 S
Tb881 O916 2.421 . S
Tb881 O920 2.546 . S
Tb881 O921 2.610 . S
Tb881 O923 2.320 . S
Tb881 O924 2.552 . S
Tb881 O925 2.413 . S
Tb881 C945 2.833 . S
N882 C874 1.360 . S
N882 Tb881 2.660 . S
N882 C883 1.305 . S
C883 N882 1.305 . S
C883 C885 1.407 . S
C883 H890 0.930 . S
C884 C872 1.410 . S
C884 C885 1.345 . S
C884 H892 0.930 . S
C885 C883 1.407 . S
C885 C884 1.345 . S
C885 H887 0.930 . S
H886 C879 0.930 . S
H887 C885 0.930 . S
H888 C876 0.930 . S
H889 C877 0.931 . S
H890 C883 0.930 . S
H891 C905 0.930 . S
H892 C884 0.930 . S
H893 C911 0.930 . S
H894 C902 0.930 . S
H895 C909 0.931 . S
H896 C873 0.929 . S
H897 C903 0.930 . S
H898 C936 0.930 . S
H899 C880 0.930 . S
H900 C935 0.929 . S
N901 Tb870 2.660 . S
N901 C902 1.305 . S
N901 C906 1.360 . S
C902 H894 0.930 . S
C902 N901 1.305 . S
C902 C905 1.407 . S
C903 H897 0.930 . S
C903 C904 1.410 . S
C903 C905 1.345 . S
C904 C903 1.410 . S
C904 C906 1.417 . S
C904 C936 1.432 . S
C905 H891 0.930 . S
C905 C902 1.407 . S
C905 C903 1.345 . S
C906 N901 1.360 . S
C906 C904 1.417 . S
C906 C910 1.432 . S
H907 C912 0.930 . S
N908 Tb870 2.600 . S
N908 C910 1.359 . S
N908 C911 1.327 . S
C909 H895 0.931 . S
C909 C911 1.392 . S
C909 C912 1.370 . S
C910 C906 1.432 . S
C910 N908 1.359 . S
C910 C913 1.414 . S
C911 H893 0.930 . S
C911 N908 1.327 . S
C911 C909 1.392 . S
C912 H907 0.930 . S
C912 C909 1.370 . S
C912 C913 1.385 . S
C913 C910 1.414 . S
C913 C912 1.385 . S
C913 C935 1.444 . S
O914 Tb870 2.546 . S
O914 C934 1.251 . S
O915 Tb870 2.610 . S
O915 Tb881 2.362 1_554 S
O915 C926 1.283 . S
O916 Tb881 2.421 . S
O916 C933 1.262 1_556 S
O917 Tb870 2.320 . S
O917 C933 1.260 . S
O918 Tb870 2.552 . S
O918 C926 1.243 . S
O919 Tb870 2.413 . S
O919 C934 1.256 . S
O920 Tb881 2.546 . S
O920 C945 1.251 . S
O921 Tb870 2.362 1_556 S
O921 Tb881 2.610 . S
O921 C937 1.283 . S
O922 Tb870 2.421 . S
O922 C944 1.262 1_554 S
O923 Tb881 2.320 . S
O923 C944 1.260 . S
O924 Tb881 2.552 . S
O924 C937 1.243 . S
O925 Tb881 2.413 . S
O925 C945 1.256 . S
C926 O915 1.283 . S
C926 O918 1.243 . S
C927 C929 1.382 . S
C927 C931 1.393 . S
C927 C934 1.500 . S
C928 C929 1.400 . S
C928 C930 1.384 . S
C929 C927 1.382 . S
C929 C928 1.400 . S
C929 H946 0.930 . S
C930 C928 1.384 . S
C930 C932 1.392 . S
C930 H947 0.931 . S
C931 C927 1.393 . S
C931 C932 1.401 . S
C931 H948 0.930 . S
C932 C930 1.392 . S
C932 C931 1.401 . S
C932 H949 0.930 . S
C933 O916 1.262 1_554 S
C933 O917 1.260 . S
C934 Tb870 2.833 . S
C934 O914 1.251 . S
C934 O919 1.256 . S
C934 C927 1.500 . S
C935 H900 0.929 . S
C935 C913 1.444 . S
C935 C936 1.317 . S
C936 H898 0.930 . S
C936 C904 1.432 . S
C936 C935 1.317 . S
C937 O921 1.283 . S
C937 O924 1.243 . S
C938 C939 1.382 . S
C938 C942 1.393 . S
C938 C945 1.500 . S
C939 C938 1.382 . S
C939 C940 1.400 . S
C939 H950 0.930 . S
C940 C939 1.400 . S
C940 C941 1.384 . S
C941 C940 1.384 . S
C941 C943 1.392 . S
C941 H951 0.931 . S
C942 C938 1.393 . S
C942 C943 1.401 . S
C942 H952 0.930 . S
C943 C941 1.392 . S
C943 C942 1.401 . S
C943 H953 0.930 . S
C944 O922 1.262 1_556 S
C944 O923 1.260 . S
C945 Tb881 2.833 . S
C945 O920 1.251 . S
C945 O925 1.256 . S
C945 C938 1.500 . S
H946 C929 0.930 . S
H947 C930 0.931 . S
H948 C931 0.930 . S
H949 C932 0.930 . S
H950 C939 0.930 . S
H951 C941 0.931 . S
H952 C942 0.930 . S
H953 C943 0.930 . S
Tb954 N985 2.660 . S
Tb954 N992 2.600 . S
Tb954 O998 2.546 . S
Tb954 O999 2.610 . S
Tb954 O1001 2.320 . S
Tb954 O1002 2.552 . S
Tb954 O1003 2.413 . S
Tb954 O1005 2.362 . S
Tb954 O1006 2.421 . S
Tb954 C1018 2.833 . S
C955 C958 1.432 . S
C955 C959 1.414 . S
C955 N962 1.359 . S
C956 C958 1.417 . S
C956 C960 1.432 . S
C956 C968 1.410 . S
C957 C959 1.444 . S
C957 C960 1.317 . S
C957 H980 0.929 . S
C958 C955 1.432 . S
C958 C956 1.417 . S
C958 N966 1.360 . S
C959 C955 1.414 . S
C959 C957 1.444 . S
C959 C964 1.385 . S
C960 C956 1.432 . S
C960 C957 1.317 . S
C960 H972 0.930 . S
C961 C963 1.392 . S
C961 C964 1.370 . S
C961 H973 0.931 . S
N962 C955 1.359 . S
N962 C963 1.327 . S
N962 Tb965 2.600 . S
C963 C961 1.392 . S
C963 N962 1.327 . S
C963 H970 0.930 . S
C964 C959 1.385 . S
C964 C961 1.370 . S
C964 H983 0.930 . S
Tb965 N962 2.600 . S
Tb965 N966 2.660 . S
Tb965 O999 2.362 . S
Tb965 O1000 2.421 . S
Tb965 O1004 2.546 . S
Tb965 O1005 2.610 . S
Tb965 O1007 2.320 . S
Tb965 O1008 2.552 . S
Tb965 O1009 2.413 . S
Tb965 C1029 2.833 . S
N966 C958 1.360 . S
N966 Tb965 2.660 . S
N966 C967 1.305 . S
C967 N966 1.305 . S
C967 C969 1.407 . S
C967 H974 0.930 . S
C968 C956 1.410 . S
C968 C969 1.345 . S
C968 H976 0.930 . S
C969 C967 1.407 . S
C969 C968 1.345 . S
C969 H971 0.930 . S
H970 C963 0.930 . S
H971 C969 0.930 . S
H972 C960 0.930 . S
H973 C961 0.931 . S
H974 C967 0.930 . S
H975 C989 0.930 . S
H976 C968 0.930 . S
H977 C995 0.930 . S
H978 C986 0.930 . S
H979 C993 0.931 . S
H980 C957 0.929 . S
H981 C987 0.930 . S
H982 C1020 0.930 . S
H983 C964 0.930 . S
H984 C1019 0.929 . S
N985 Tb954 2.660 . S
N985 C986 1.305 . S
N985 C990 1.360 . S
C986 H978 0.930 . S
C986 N985 1.305 . S
C986 C989 1.407 . S
C987 H981 0.930 . S
C987 C988 1.410 . S
C987 C989 1.345 . S
C988 C987 1.410 . S
C988 C990 1.417 . S
C988 C1020 1.432 . S
C989 H975 0.930 . S
C989 C986 1.407 . S
C989 C987 1.345 . S
C990 N985 1.360 . S
C990 C988 1.417 . S
C990 C994 1.432 . S
H991 C996 0.930 . S
N992 Tb954 2.600 . S
N992 C994 1.359 . S
N992 C995 1.327 . S
C993 H979 0.931 . S
C993 C995 1.392 . S
C993 C996 1.370 . S
C994 C990 1.432 . S
C994 N992 1.359 . S
C994 C997 1.414 . S
C995 H977 0.930 . S
C995 N992 1.327 . S
C995 C993 1.392 . S
C996 H991 0.930 . S
C996 C993 1.370 . S
C996 C997 1.385 . S
C997 C994 1.414 . S
C997 C996 1.385 . S
C997 C1019 1.444 . S
O998 Tb954 2.546 . S
O998 C1018 1.251 . S
O999 Tb954 2.610 . S
O999 Tb965 2.362 . S
O999 C1010 1.283 . S
O1000 Tb965 2.421 . S
O1000 C1017 1.262 . S
O1001 Tb954 2.320 . S
O1001 C1017 1.260 . S
O1002 Tb954 2.552 . S
O1002 C1010 1.243 . S
O1003 Tb954 2.413 . S
O1003 C1018 1.256 . S
O1004 Tb965 2.546 . S
O1004 C1029 1.251 . S
O1005 Tb954 2.362 . S
O1005 Tb965 2.610 . S
O1005 C1021 1.283 . S
O1006 Tb954 2.421 . S
O1006 C1028 1.262 . S
O1007 Tb965 2.320 . S
O1007 C1028 1.260 . S
O1008 Tb965 2.552 . S
O1008 C1021 1.243 . S
O1009 Tb965 2.413 . S
O1009 C1029 1.256 . S
C1010 O999 1.283 . S
C1010 O1002 1.243 . S
C1011 C1013 1.382 . S
C1011 C1015 1.393 . S
C1011 C1018 1.500 . S
C1012 C1013 1.400 . S
C1012 C1014 1.384 . S
C1013 C1011 1.382 . S
C1013 C1012 1.400 . S
C1013 H1030 0.930 . S
C1014 C1012 1.384 . S
C1014 C1016 1.392 . S
C1014 H1031 0.931 . S
C1015 C1011 1.393 . S
C1015 C1016 1.401 . S
C1015 H1032 0.930 . S
C1016 C1014 1.392 . S
C1016 C1015 1.401 . S
C1016 H1033 0.930 . S
C1017 O1000 1.262 . S
C1017 O1001 1.260 . S
C1018 Tb954 2.833 . S
C1018 O998 1.251 . S
C1018 O1003 1.256 . S
C1018 C1011 1.500 . S
C1019 H984 0.929 . S
C1019 C997 1.444 . S
C1019 C1020 1.317 . S
C1020 H982 0.930 . S
C1020 C988 1.432 . S
C1020 C1019 1.317 . S
C1021 O1005 1.283 . S
C1021 O1008 1.243 . S
C1022 C1023 1.382 . S
C1022 C1026 1.393 . S
C1022 C1029 1.500 . S
C1023 C1022 1.382 . S
C1023 C1024 1.400 . S
C1023 H1034 0.930 . S
C1024 C1023 1.400 . S
C1024 C1025 1.384 . S
C1025 C1024 1.384 . S
C1025 C1027 1.392 . S
C1025 H1035 0.931 . S
C1026 C1022 1.393 . S
C1026 C1027 1.401 . S
C1026 H1036 0.930 . S
C1027 C1025 1.392 . S
C1027 C1026 1.401 . S
C1027 H1037 0.930 . S
C1028 O1006 1.262 . S
C1028 O1007 1.260 . S
C1029 Tb965 2.833 . S
C1029 O1004 1.251 . S
C1029 O1009 1.256 . S
C1029 C1022 1.500 . S
H1030 C1013 0.930 . S
H1031 C1014 0.931 . S
H1032 C1015 0.930 . S
H1033 C1016 0.930 . S
H1034 C1023 0.930 . S
H1035 C1025 0.931 . S
H1036 C1026 0.930 . S
H1037 C1027 0.930 . S
Tb1038 N1069 2.660 . S
Tb1038 N1076 2.600 . S
Tb1038 O1082 2.546 . S
Tb1038 O1083 2.610 . S
Tb1038 O1085 2.320 . S
Tb1038 O1086 2.552 . S
Tb1038 O1087 2.413 . S
Tb1038 O1089 2.362 . S
Tb1038 O1090 2.421 . S
Tb1038 C1102 2.833 . S
C1039 C1042 1.432 . S
C1039 C1043 1.414 . S
C1039 N1046 1.359 . S
C1040 C1042 1.417 . S
C1040 C1044 1.432 . S
C1040 C1052 1.410 . S
C1041 C1043 1.444 . S
C1041 C1044 1.317 . S
C1041 H1064 0.929 . S
C1042 C1039 1.432 . S
C1042 C1040 1.417 . S
C1042 N1050 1.360 . S
C1043 C1039 1.414 . S
C1043 C1041 1.444 . S
C1043 C1048 1.385 . S
C1044 C1040 1.432 . S
C1044 C1041 1.317 . S
C1044 H1056 0.930 . S
C1045 C1047 1.392 . S
C1045 C1048 1.370 . S
C1045 H1057 0.931 . S
N1046 C1039 1.359 . S
N1046 C1047 1.327 . S
N1046 Tb1049 2.600 . S
C1047 C1045 1.392 . S
C1047 N1046 1.327 . S
C1047 H1054 0.930 . S
C1048 C1043 1.385 . S
C1048 C1045 1.370 . S
C1048 H1067 0.930 . S
Tb1049 N1046 2.600 . S
Tb1049 N1050 2.660 . S
Tb1049 O1083 2.362 . S
Tb1049 O1084 2.421 . S
Tb1049 O1088 2.546 . S
Tb1049 O1089 2.610 . S
Tb1049 O1091 2.320 . S
Tb1049 O1092 2.552 . S
Tb1049 O1093 2.413 . S
Tb1049 C1113 2.833 . S
N1050 C1042 1.360 . S
N1050 Tb1049 2.660 . S
N1050 C1051 1.305 . S
C1051 N1050 1.305 . S
C1051 C1053 1.407 . S
C1051 H1058 0.930 . S
C1052 C1040 1.410 . S
C1052 C1053 1.345 . S
C1052 H1060 0.930 . S
C1053 C1051 1.407 . S
C1053 C1052 1.345 . S
C1053 H1055 0.930 . S
H1054 C1047 0.930 . S
H1055 C1053 0.930 . S
H1056 C1044 0.930 . S
H1057 C1045 0.931 . S
H1058 C1051 0.930 . S
H1059 C1073 0.930 . S
H1060 C1052 0.930 . S
H1061 C1079 0.930 . S
H1062 C1070 0.930 . S
H1063 C1077 0.931 . S
H1064 C1041 0.929 . S
H1065 C1071 0.930 . S
H1066 C1104 0.930 . S
H1067 C1048 0.930 . S
H1068 C1103 0.929 . S
N1069 Tb1038 2.660 . S
N1069 C1070 1.305 . S
N1069 C1074 1.360 . S
C1070 H1062 0.930 . S
C1070 N1069 1.305 . S
C1070 C1073 1.407 . S
C1071 H1065 0.930 . S
C1071 C1072 1.410 . S
C1071 C1073 1.345 . S
C1072 C1071 1.410 . S
C1072 C1074 1.417 . S
C1072 C1104 1.432 . S
C1073 H1059 0.930 . S
C1073 C1070 1.407 . S
C1073 C1071 1.345 . S
C1074 N1069 1.360 . S
C1074 C1072 1.417 . S
C1074 C1078 1.432 . S
H1075 C1080 0.930 . S
N1076 Tb1038 2.600 . S
N1076 C1078 1.359 . S
N1076 C1079 1.327 . S
C1077 H1063 0.931 . S
C1077 C1079 1.392 . S
C1077 C1080 1.370 . S
C1078 C1074 1.432 . S
C1078 N1076 1.359 . S
C1078 C1081 1.414 . S
C1079 H1061 0.930 . S
C1079 N1076 1.327 . S
C1079 C1077 1.392 . S
C1080 H1075 0.930 . S
C1080 C1077 1.370 . S
C1080 C1081 1.385 . S
C1081 C1078 1.414 . S
C1081 C1080 1.385 . S
C1081 C1103 1.444 . S
O1082 Tb1038 2.546 . S
O1082 C1102 1.251 . S
O1083 Tb1038 2.610 . S
O1083 Tb1049 2.362 . S
O1083 C1094 1.283 . S
O1084 Tb1049 2.421 . S
O1084 C1101 1.262 . S
O1085 Tb1038 2.320 . S
O1085 C1101 1.260 . S
O1086 Tb1038 2.552 . S
O1086 C1094 1.243 . S
O1087 Tb1038 2.413 . S
O1087 C1102 1.256 . S
O1088 Tb1049 2.546 . S
O1088 C1113 1.251 . S
O1089 Tb1038 2.362 . S
O1089 Tb1049 2.610 . S
O1089 C1105 1.283 . S
O1090 Tb1038 2.421 . S
O1090 C1112 1.262 . S
O1091 Tb1049 2.320 . S
O1091 C1112 1.260 . S
O1092 Tb1049 2.552 . S
O1092 C1105 1.243 . S
O1093 Tb1049 2.413 . S
O1093 C1113 1.256 . S
C1094 O1083 1.283 . S
C1094 O1086 1.243 . S
C1095 C1097 1.382 . S
C1095 C1099 1.393 . S
C1095 C1102 1.500 . S
C1096 C1097 1.400 . S
C1096 C1098 1.384 . S
C1097 C1095 1.382 . S
C1097 C1096 1.400 . S
C1097 H1114 0.930 . S
C1098 C1096 1.384 . S
C1098 C1100 1.392 . S
C1098 H1115 0.931 . S
C1099 C1095 1.393 . S
C1099 C1100 1.401 . S
C1099 H1116 0.930 . S
C1100 C1098 1.392 . S
C1100 C1099 1.401 . S
C1100 H1117 0.930 . S
C1101 O1084 1.262 . S
C1101 O1085 1.260 . S
C1102 Tb1038 2.833 . S
C1102 O1082 1.251 . S
C1102 O1087 1.256 . S
C1102 C1095 1.500 . S
C1103 H1068 0.929 . S
C1103 C1081 1.444 . S
C1103 C1104 1.317 . S
C1104 H1066 0.930 . S
C1104 C1072 1.432 . S
C1104 C1103 1.317 . S
C1105 O1089 1.283 . S
C1105 O1092 1.243 . S
C1106 C1107 1.382 . S
C1106 C1110 1.393 . S
C1106 C1113 1.500 . S
C1107 C1106 1.382 . S
C1107 C1108 1.400 . S
C1107 H1118 0.930 . S
C1108 C1107 1.400 . S
C1108 C1109 1.384 . S
C1109 C1108 1.384 . S
C1109 C1111 1.392 . S
C1109 H1119 0.931 . S
C1110 C1106 1.393 . S
C1110 C1111 1.401 . S
C1110 H1120 0.930 . S
C1111 C1109 1.392 . S
C1111 C1110 1.401 . S
C1111 H1121 0.930 . S
C1112 O1090 1.262 . S
C1112 O1091 1.260 . S
C1113 Tb1049 2.833 . S
C1113 O1088 1.251 . S
C1113 O1093 1.256 . S
C1113 C1106 1.500 . S
H1114 C1097 0.930 . S
H1115 C1098 0.931 . S
H1116 C1099 0.930 . S
H1117 C1100 0.930 . S
H1118 C1107 0.930 . S
H1119 C1109 0.931 . S
H1120 C1110 0.930 . S
H1121 C1111 0.930 . S
Tb1122 N1153 2.660 . S
Tb1122 N1160 2.600 . S
Tb1122 O1166 2.546 . S
Tb1122 O1167 2.610 . S
Tb1122 O1169 2.320 . S
Tb1122 O1170 2.552 . S
Tb1122 O1171 2.413 . S
Tb1122 O1173 2.362 . S
Tb1122 O1174 2.421 . S
Tb1122 C1186 2.833 . S
C1123 C1126 1.432 . S
C1123 C1127 1.414 . S
C1123 N1130 1.359 . S
C1124 C1126 1.417 . S
C1124 C1128 1.432 . S
C1124 C1136 1.410 . S
C1125 C1127 1.444 . S
C1125 C1128 1.317 . S
C1125 H1148 0.929 . S
C1126 C1123 1.432 . S
C1126 C1124 1.417 . S
C1126 N1134 1.360 . S
C1127 C1123 1.414 . S
C1127 C1125 1.444 . S
C1127 C1132 1.385 . S
C1128 C1124 1.432 . S
C1128 C1125 1.317 . S
C1128 H1140 0.930 . S
C1129 C1131 1.392 . S
C1129 C1132 1.370 . S
C1129 H1141 0.931 . S
N1130 C1123 1.359 . S
N1130 C1131 1.327 . S
N1130 Tb1133 2.600 . S
C1131 C1129 1.392 . S
C1131 N1130 1.327 . S
C1131 H1138 0.930 . S
C1132 C1127 1.385 . S
C1132 C1129 1.370 . S
C1132 H1151 0.930 . S
Tb1133 N1130 2.600 . S
Tb1133 N1134 2.660 . S
Tb1133 O1167 2.362 . S
Tb1133 O1168 2.421 . S
Tb1133 O1172 2.546 . S
Tb1133 O1173 2.610 . S
Tb1133 O1175 2.320 . S
Tb1133 O1176 2.552 . S
Tb1133 O1177 2.413 . S
Tb1133 C1197 2.833 . S
N1134 C1126 1.360 . S
N1134 Tb1133 2.660 . S
N1134 C1135 1.305 . S
C1135 N1134 1.305 . S
C1135 C1137 1.407 . S
C1135 H1142 0.930 . S
C1136 C1124 1.410 . S
C1136 C1137 1.345 . S
C1136 H1144 0.930 . S
C1137 C1135 1.407 . S
C1137 C1136 1.345 . S
C1137 H1139 0.930 . S
H1138 C1131 0.930 . S
H1139 C1137 0.930 . S
H1140 C1128 0.930 . S
H1141 C1129 0.931 . S
H1142 C1135 0.930 . S
H1143 C1157 0.930 . S
H1144 C1136 0.930 . S
H1145 C1163 0.930 . S
H1146 C1154 0.930 . S
H1147 C1161 0.931 . S
H1148 C1125 0.929 . S
H1149 C1155 0.930 . S
H1150 C1188 0.930 . S
H1151 C1132 0.930 . S
H1152 C1187 0.929 . S
N1153 Tb1122 2.660 . S
N1153 C1154 1.305 . S
N1153 C1158 1.360 . S
C1154 H1146 0.930 . S
C1154 N1153 1.305 . S
C1154 C1157 1.407 . S
C1155 H1149 0.930 . S
C1155 C1156 1.410 . S
C1155 C1157 1.345 . S
C1156 C1155 1.410 . S
C1156 C1158 1.417 . S
C1156 C1188 1.432 . S
C1157 H1143 0.930 . S
C1157 C1154 1.407 . S
C1157 C1155 1.345 . S
C1158 N1153 1.360 . S
C1158 C1156 1.417 . S
C1158 C1162 1.432 . S
H1159 C1164 0.930 . S
N1160 Tb1122 2.600 . S
N1160 C1162 1.359 . S
N1160 C1163 1.327 . S
C1161 H1147 0.931 . S
C1161 C1163 1.392 . S
C1161 C1164 1.370 . S
C1162 C1158 1.432 . S
C1162 N1160 1.359 . S
C1162 C1165 1.414 . S
C1163 H1145 0.930 . S
C1163 N1160 1.327 . S
C1163 C1161 1.392 . S
C1164 H1159 0.930 . S
C1164 C1161 1.370 . S
C1164 C1165 1.385 . S
C1165 C1162 1.414 . S
C1165 C1164 1.385 . S
C1165 C1187 1.444 . S
O1166 Tb1122 2.546 . S
O1166 C1186 1.251 . S
O1167 Tb1122 2.610 . S
O1167 Tb1133 2.362 . S
O1167 C1178 1.283 . S
O1168 Tb1133 2.421 . S
O1168 C1185 1.262 . S
O1169 Tb1122 2.320 . S
O1169 C1185 1.260 . S
O1170 Tb1122 2.552 . S
O1170 C1178 1.243 . S
O1171 Tb1122 2.413 . S
O1171 C1186 1.256 . S
O1172 Tb1133 2.546 . S
O1172 C1197 1.251 . S
O1173 Tb1122 2.362 . S
O1173 Tb1133 2.610 . S
O1173 C1189 1.283 . S
O1174 Tb1122 2.421 . S
O1174 C1196 1.262 . S
O1175 Tb1133 2.320 . S
O1175 C1196 1.260 . S
O1176 Tb1133 2.552 . S
O1176 C1189 1.243 . S
O1177 Tb1133 2.413 . S
O1177 C1197 1.256 . S
C1178 O1167 1.283 . S
C1178 O1170 1.243 . S
C1179 C1181 1.382 . S
C1179 C1183 1.393 . S
C1179 C1186 1.500 . S
C1180 C1181 1.400 . S
C1180 C1182 1.384 . S
C1181 C1179 1.382 . S
C1181 C1180 1.400 . S
C1181 H1198 0.930 . S
C1182 C1180 1.384 . S
C1182 C1184 1.392 . S
C1182 H1199 0.931 . S
C1183 C1179 1.393 . S
C1183 C1184 1.401 . S
C1183 H1200 0.930 . S
C1184 C1182 1.392 . S
C1184 C1183 1.401 . S
C1184 H1201 0.930 . S
C1185 O1168 1.262 . S
C1185 O1169 1.260 . S
C1186 Tb1122 2.833 . S
C1186 O1166 1.251 . S
C1186 O1171 1.256 . S
C1186 C1179 1.500 . S
C1187 H1152 0.929 . S
C1187 C1165 1.444 . S
C1187 C1188 1.317 . S
C1188 H1150 0.930 . S
C1188 C1156 1.432 . S
C1188 C1187 1.317 . S
C1189 O1173 1.283 . S
C1189 O1176 1.243 . S
C1190 C1191 1.382 . S
C1190 C1194 1.393 . S
C1190 C1197 1.500 . S
C1191 C1190 1.382 . S
C1191 C1192 1.400 . S
C1191 H1202 0.930 . S
C1192 C1191 1.400 . S
C1192 C1193 1.384 . S
C1193 C1192 1.384 . S
C1193 C1195 1.392 . S
C1193 H1203 0.931 . S
C1194 C1190 1.393 . S
C1194 C1195 1.401 . S
C1194 H1204 0.930 . S
C1195 C1193 1.392 . S
C1195 C1194 1.401 . S
C1195 H1205 0.930 . S
C1196 O1174 1.262 . S
C1196 O1175 1.260 . S
C1197 Tb1133 2.833 . S
C1197 O1172 1.251 . S
C1197 O1177 1.256 . S
C1197 C1190 1.500 . S
H1198 C1181 0.930 . S
H1199 C1182 0.931 . S
H1200 C1183 0.930 . S
H1201 C1184 0.930 . S
H1202 C1191 0.930 . S
H1203 C1193 0.931 . S
H1204 C1194 0.930 . S
H1205 C1195 0.930 . S
Tb1206 N1237 2.660 . S
Tb1206 N1244 2.600 . S
Tb1206 O1250 2.546 . S
Tb1206 O1251 2.610 . S
Tb1206 O1253 2.320 . S
Tb1206 O1254 2.552 . S
Tb1206 O1255 2.413 . S
Tb1206 O1257 2.362 . S
Tb1206 O1258 2.421 . S
Tb1206 C1270 2.833 . S
C1207 C1210 1.432 . S
C1207 C1211 1.414 . S
C1207 N1214 1.359 . S
C1208 C1210 1.417 . S
C1208 C1212 1.432 . S
C1208 C1220 1.410 . S
C1209 C1211 1.444 . S
C1209 C1212 1.317 . S
C1209 H1232 0.929 . S
C1210 C1207 1.432 . S
C1210 C1208 1.417 . S
C1210 N1218 1.360 . S
C1211 C1207 1.414 . S
C1211 C1209 1.444 . S
C1211 C1216 1.385 . S
C1212 C1208 1.432 . S
C1212 C1209 1.317 . S
C1212 H1224 0.930 . S
C1213 C1215 1.392 . S
C1213 C1216 1.370 . S
C1213 H1225 0.931 . S
N1214 C1207 1.359 . S
N1214 C1215 1.327 . S
N1214 Tb1217 2.600 . S
C1215 C1213 1.392 . S
C1215 N1214 1.327 . S
C1215 H1222 0.930 . S
C1216 C1211 1.385 . S
C1216 C1213 1.370 . S
C1216 H1235 0.930 . S
Tb1217 N1214 2.600 . S
Tb1217 N1218 2.660 . S
Tb1217 O1251 2.362 . S
Tb1217 O1252 2.421 . S
Tb1217 O1256 2.546 . S
Tb1217 O1257 2.610 . S
Tb1217 O1259 2.320 . S
Tb1217 O1260 2.552 . S
Tb1217 O1261 2.413 . S
Tb1217 C1281 2.833 . S
N1218 C1210 1.360 . S
N1218 Tb1217 2.660 . S
N1218 C1219 1.305 . S
C1219 N1218 1.305 . S
C1219 C1221 1.407 . S
C1219 H1226 0.930 . S
C1220 C1208 1.410 . S
C1220 C1221 1.345 . S
C1220 H1228 0.930 . S
C1221 C1219 1.407 . S
C1221 C1220 1.345 . S
C1221 H1223 0.930 . S
H1222 C1215 0.930 . S
H1223 C1221 0.930 . S
H1224 C1212 0.930 . S
H1225 C1213 0.931 . S
H1226 C1219 0.930 . S
H1227 C1241 0.930 . S
H1228 C1220 0.930 . S
H1229 C1247 0.930 . S
H1230 C1238 0.930 . S
H1231 C1245 0.931 . S
H1232 C1209 0.929 . S
H1233 C1239 0.930 . S
H1234 C1272 0.930 . S
H1235 C1216 0.930 . S
H1236 C1271 0.929 . S
N1237 Tb1206 2.660 . S
N1237 C1238 1.305 . S
N1237 C1242 1.360 . S
C1238 H1230 0.930 . S
C1238 N1237 1.305 . S
C1238 C1241 1.407 . S
C1239 H1233 0.930 . S
C1239 C1240 1.410 . S
C1239 C1241 1.345 . S
C1240 C1239 1.410 . S
C1240 C1242 1.417 . S
C1240 C1272 1.432 . S
C1241 H1227 0.930 . S
C1241 C1238 1.407 . S
C1241 C1239 1.345 . S
C1242 N1237 1.360 . S
C1242 C1240 1.417 . S
C1242 C1246 1.432 . S
H1243 C1248 0.930 . S
N1244 Tb1206 2.600 . S
N1244 C1246 1.359 . S
N1244 C1247 1.327 . S
C1245 H1231 0.931 . S
C1245 C1247 1.392 . S
C1245 C1248 1.370 . S
C1246 C1242 1.432 . S
C1246 N1244 1.359 . S
C1246 C1249 1.414 . S
C1247 H1229 0.930 . S
C1247 N1244 1.327 . S
C1247 C1245 1.392 . S
C1248 H1243 0.930 . S
C1248 C1245 1.370 . S
C1248 C1249 1.385 . S
C1249 C1246 1.414 . S
C1249 C1248 1.385 . S
C1249 C1271 1.444 . S
O1250 Tb1206 2.546 . S
O1250 C1270 1.251 . S
O1251 Tb1206 2.610 . S
O1251 Tb1217 2.362 . S
O1251 C1262 1.283 . S
O1252 Tb1217 2.421 . S
O1252 C1269 1.262 . S
O1253 Tb1206 2.320 . S
O1253 C1269 1.260 . S
O1254 Tb1206 2.552 . S
O1254 C1262 1.243 . S
O1255 Tb1206 2.413 . S
O1255 C1270 1.256 . S
O1256 Tb1217 2.546 . S
O1256 C1281 1.251 . S
O1257 Tb1206 2.362 . S
O1257 Tb1217 2.610 . S
O1257 C1273 1.283 . S
O1258 Tb1206 2.421 . S
O1258 C1280 1.262 . S
O1259 Tb1217 2.320 . S
O1259 C1280 1.260 . S
O1260 Tb1217 2.552 . S
O1260 C1273 1.243 . S
O1261 Tb1217 2.413 . S
O1261 C1281 1.256 . S
C1262 O1251 1.283 . S
C1262 O1254 1.243 . S
C1263 C1265 1.382 . S
C1263 C1267 1.393 . S
C1263 C1270 1.500 . S
C1264 C1265 1.400 . S
C1264 C1266 1.384 . S
C1265 C1263 1.382 . S
C1265 C1264 1.400 . S
C1265 H1282 0.930 . S
C1266 C1264 1.384 . S
C1266 C1268 1.392 . S
C1266 H1283 0.931 . S
C1267 C1263 1.393 . S
C1267 C1268 1.401 . S
C1267 H1284 0.930 . S
C1268 C1266 1.392 . S
C1268 C1267 1.401 . S
C1268 H1285 0.930 . S
C1269 O1252 1.262 . S
C1269 O1253 1.260 . S
C1270 Tb1206 2.833 . S
C1270 O1250 1.251 . S
C1270 O1255 1.256 . S
C1270 C1263 1.500 . S
C1271 H1236 0.929 . S
C1271 C1249 1.444 . S
C1271 C1272 1.317 . S
C1272 H1234 0.930 . S
C1272 C1240 1.432 . S
C1272 C1271 1.317 . S
C1273 O1257 1.283 . S
C1273 O1260 1.243 . S
C1274 C1275 1.382 . S
C1274 C1278 1.393 . S
C1274 C1281 1.500 . S
C1275 C1274 1.382 . S
C1275 C1276 1.400 . S
C1275 H1286 0.930 . S
C1276 C1275 1.400 . S
C1276 C1277 1.384 . S
C1277 C1276 1.384 . S
C1277 C1279 1.392 . S
C1277 H1287 0.931 . S
C1278 C1274 1.393 . S
C1278 C1279 1.401 . S
C1278 H1288 0.930 . S
C1279 C1277 1.392 . S
C1279 C1278 1.401 . S
C1279 H1289 0.930 . S
C1280 O1258 1.262 . S
C1280 O1259 1.260 . S
C1281 Tb1217 2.833 . S
C1281 O1256 1.251 . S
C1281 O1261 1.256 . S
C1281 C1274 1.500 . S
H1282 C1265 0.930 . S
H1283 C1266 0.931 . S
H1284 C1267 0.930 . S
H1285 C1268 0.930 . S
H1286 C1275 0.930 . S
H1287 C1277 0.931 . S
H1288 C1278 0.930 . S
H1289 C1279 0.930 . S
Tb1290 N1321 2.660 . S
Tb1290 N1328 2.600 . S
Tb1290 O1334 2.546 . S
Tb1290 O1335 2.610 . S
Tb1290 O1337 2.320 . S
Tb1290 O1338 2.552 . S
Tb1290 O1339 2.413 . S
Tb1290 O1341 2.362 . S
Tb1290 O1342 2.421 . S
Tb1290 C1354 2.833 . S
C1291 C1294 1.432 . S
C1291 C1295 1.414 . S
C1291 N1298 1.359 . S
C1292 C1294 1.417 . S
C1292 C1296 1.432 . S
C1292 C1304 1.410 . S
C1293 C1295 1.444 . S
C1293 C1296 1.317 . S
C1293 H1316 0.929 . S
C1294 C1291 1.432 . S
C1294 C1292 1.417 . S
C1294 N1302 1.360 . S
C1295 C1291 1.414 . S
C1295 C1293 1.444 . S
C1295 C1300 1.385 . S
C1296 C1292 1.432 . S
C1296 C1293 1.317 . S
C1296 H1308 0.930 . S
C1297 C1299 1.392 . S
C1297 C1300 1.370 . S
C1297 H1309 0.931 . S
N1298 C1291 1.359 . S
N1298 C1299 1.327 . S
N1298 Tb1301 2.600 . S
C1299 C1297 1.392 . S
C1299 N1298 1.327 . S
C1299 H1306 0.930 . S
C1300 C1295 1.385 . S
C1300 C1297 1.370 . S
C1300 H1319 0.930 . S
Tb1301 N1298 2.600 . S
Tb1301 N1302 2.660 . S
Tb1301 O1335 2.362 . S
Tb1301 O1336 2.421 . S
Tb1301 O1340 2.546 . S
Tb1301 O1341 2.610 . S
Tb1301 O1343 2.320 . S
Tb1301 O1344 2.552 . S
Tb1301 O1345 2.413 . S
Tb1301 C1365 2.833 . S
N1302 C1294 1.360 . S
N1302 Tb1301 2.660 . S
N1302 C1303 1.305 . S
C1303 N1302 1.305 . S
C1303 C1305 1.407 . S
C1303 H1310 0.930 . S
C1304 C1292 1.410 . S
C1304 C1305 1.345 . S
C1304 H1312 0.930 . S
C1305 C1303 1.407 . S
C1305 C1304 1.345 . S
C1305 H1307 0.930 . S
H1306 C1299 0.930 . S
H1307 C1305 0.930 . S
H1308 C1296 0.930 . S
H1309 C1297 0.931 . S
H1310 C1303 0.930 . S
H1311 C1325 0.930 . S
H1312 C1304 0.930 . S
H1313 C1331 0.930 . S
H1314 C1322 0.930 . S
H1315 C1329 0.931 . S
H1316 C1293 0.929 . S
H1317 C1323 0.930 . S
H1318 C1356 0.930 . S
H1319 C1300 0.930 . S
H1320 C1355 0.929 . S
N1321 Tb1290 2.660 . S
N1321 C1322 1.305 . S
N1321 C1326 1.360 . S
C1322 H1314 0.930 . S
C1322 N1321 1.305 . S
C1322 C1325 1.407 . S
C1323 H1317 0.930 . S
C1323 C1324 1.410 . S
C1323 C1325 1.345 . S
C1324 C1323 1.410 . S
C1324 C1326 1.417 . S
C1324 C1356 1.432 . S
C1325 H1311 0.930 . S
C1325 C1322 1.407 . S
C1325 C1323 1.345 . S
C1326 N1321 1.360 . S
C1326 C1324 1.417 . S
C1326 C1330 1.432 . S
H1327 C1332 0.930 . S
N1328 Tb1290 2.600 . S
N1328 C1330 1.359 . S
N1328 C1331 1.327 . S
C1329 H1315 0.931 . S
C1329 C1331 1.392 . S
C1329 C1332 1.370 . S
C1330 C1326 1.432 . S
C1330 N1328 1.359 . S
C1330 C1333 1.414 . S
C1331 H1313 0.930 . S
C1331 N1328 1.327 . S
C1331 C1329 1.392 . S
C1332 H1327 0.930 . S
C1332 C1329 1.370 . S
C1332 C1333 1.385 . S
C1333 C1330 1.414 . S
C1333 C1332 1.385 . S
C1333 C1355 1.444 . S
O1334 Tb1290 2.546 . S
O1334 C1354 1.251 . S
O1335 Tb1290 2.610 . S
O1335 Tb1301 2.362 . S
O1335 C1346 1.283 . S
O1336 Tb1301 2.421 . S
O1336 C1353 1.262 . S
O1337 Tb1290 2.320 . S
O1337 C1353 1.260 . S
O1338 Tb1290 2.552 . S
O1338 C1346 1.243 . S
O1339 Tb1290 2.413 . S
O1339 C1354 1.256 . S
O1340 Tb1301 2.546 . S
O1340 C1365 1.251 . S
O1341 Tb1290 2.362 . S
O1341 Tb1301 2.610 . S
O1341 C1357 1.283 . S
O1342 Tb1290 2.421 . S
O1342 C1364 1.262 . S
O1343 Tb1301 2.320 . S
O1343 C1364 1.260 . S
O1344 Tb1301 2.552 . S
O1344 C1357 1.243 . S
O1345 Tb1301 2.413 . S
O1345 C1365 1.256 . S
C1346 O1335 1.283 . S
C1346 O1338 1.243 . S
C1347 C1349 1.382 . S
C1347 C1351 1.393 . S
C1347 C1354 1.500 . S
C1348 C1349 1.400 . S
C1348 C1350 1.384 . S
C1349 C1347 1.382 . S
C1349 C1348 1.400 . S
C1349 H1366 0.930 . S
C1350 C1348 1.384 . S
C1350 C1352 1.392 . S
C1350 H1367 0.931 . S
C1351 C1347 1.393 . S
C1351 C1352 1.401 . S
C1351 H1368 0.930 . S
C1352 C1350 1.392 . S
C1352 C1351 1.401 . S
C1352 H1369 0.930 . S
C1353 O1336 1.262 . S
C1353 O1337 1.260 . S
C1354 Tb1290 2.833 . S
C1354 O1334 1.251 . S
C1354 O1339 1.256 . S
C1354 C1347 1.500 . S
C1355 H1320 0.929 . S
C1355 C1333 1.444 . S
C1355 C1356 1.317 . S
C1356 H1318 0.930 . S
C1356 C1324 1.432 . S
C1356 C1355 1.317 . S
C1357 O1341 1.283 . S
C1357 O1344 1.243 . S
C1358 C1359 1.382 . S
C1358 C1362 1.393 . S
C1358 C1365 1.500 . S
C1359 C1358 1.382 . S
C1359 C1360 1.400 . S
C1359 H1370 0.930 . S
C1360 C1359 1.400 . S
C1360 C1361 1.384 . S
C1361 C1360 1.384 . S
C1361 C1363 1.392 . S
C1361 H1371 0.931 . S
C1362 C1358 1.393 . S
C1362 C1363 1.401 . S
C1362 H1372 0.930 . S
C1363 C1361 1.392 . S
C1363 C1362 1.401 . S
C1363 H1373 0.930 . S
C1364 O1342 1.262 . S
C1364 O1343 1.260 . S
C1365 Tb1301 2.833 . S
C1365 O1340 1.251 . S
C1365 O1345 1.256 . S
C1365 C1358 1.500 . S
H1366 C1349 0.930 . S
H1367 C1350 0.931 . S
H1368 C1351 0.930 . S
H1369 C1352 0.930 . S
H1370 C1359 0.930 . S
H1371 C1361 0.931 . S
H1372 C1362 0.930 . S
H1373 C1363 0.930 . S
Tb1374 N1405 2.660 . S
Tb1374 N1412 2.600 . S
Tb1374 O1418 2.546 . S
Tb1374 O1419 2.610 . S
Tb1374 O1421 2.320 . S
Tb1374 O1422 2.552 . S
Tb1374 O1423 2.413 . S
Tb1374 O1425 2.362 . S
Tb1374 O1426 2.421 . S
Tb1374 C1438 2.833 . S
C1375 C1378 1.432 . S
C1375 C1379 1.414 . S
C1375 N1382 1.359 . S
C1376 C1378 1.417 . S
C1376 C1380 1.432 . S
C1376 C1388 1.410 . S
C1377 C1379 1.444 . S
C1377 C1380 1.317 . S
C1377 H1400 0.929 . S
C1378 C1375 1.432 . S
C1378 C1376 1.417 . S
C1378 N1386 1.360 . S
C1379 C1375 1.414 . S
C1379 C1377 1.444 . S
C1379 C1384 1.385 . S
C1380 C1376 1.432 . S
C1380 C1377 1.317 . S
C1380 H1392 0.930 . S
C1381 C1383 1.392 . S
C1381 C1384 1.370 . S
C1381 H1393 0.931 . S
N1382 C1375 1.359 . S
N1382 C1383 1.327 . S
N1382 Tb1385 2.600 . S
C1383 C1381 1.392 . S
C1383 N1382 1.327 . S
C1383 H1390 0.930 . S
C1384 C1379 1.385 . S
C1384 C1381 1.370 . S
C1384 H1403 0.930 . S
Tb1385 N1382 2.600 . S
Tb1385 N1386 2.660 . S
Tb1385 O1419 2.362 . S
Tb1385 O1420 2.421 . S
Tb1385 O1424 2.546 . S
Tb1385 O1425 2.610 . S
Tb1385 O1427 2.320 . S
Tb1385 O1428 2.552 . S
Tb1385 O1429 2.413 . S
Tb1385 C1449 2.833 . S
N1386 C1378 1.360 . S
N1386 Tb1385 2.660 . S
N1386 C1387 1.305 . S
C1387 N1386 1.305 . S
C1387 C1389 1.407 . S
C1387 H1394 0.930 . S
C1388 C1376 1.410 . S
C1388 C1389 1.345 . S
C1388 H1396 0.930 . S
C1389 C1387 1.407 . S
C1389 C1388 1.345 . S
C1389 H1391 0.930 . S
H1390 C1383 0.930 . S
H1391 C1389 0.930 . S
H1392 C1380 0.930 . S
H1393 C1381 0.931 . S
H1394 C1387 0.930 . S
H1395 C1409 0.930 . S
H1396 C1388 0.930 . S
H1397 C1415 0.930 . S
H1398 C1406 0.930 . S
H1399 C1413 0.931 . S
H1400 C1377 0.929 . S
H1401 C1407 0.930 . S
H1402 C1440 0.930 . S
H1403 C1384 0.930 . S
H1404 C1439 0.929 . S
N1405 Tb1374 2.660 . S
N1405 C1406 1.305 . S
N1405 C1410 1.360 . S
C1406 H1398 0.930 . S
C1406 N1405 1.305 . S
C1406 C1409 1.407 . S
C1407 H1401 0.930 . S
C1407 C1408 1.410 . S
C1407 C1409 1.345 . S
C1408 C1407 1.410 . S
C1408 C1410 1.417 . S
C1408 C1440 1.432 . S
C1409 H1395 0.930 . S
C1409 C1406 1.407 . S
C1409 C1407 1.345 . S
C1410 N1405 1.360 . S
C1410 C1408 1.417 . S
C1410 C1414 1.432 . S
H1411 C1416 0.930 . S
N1412 Tb1374 2.600 . S
N1412 C1414 1.359 . S
N1412 C1415 1.327 . S
C1413 H1399 0.931 . S
C1413 C1415 1.392 . S
C1413 C1416 1.370 . S
C1414 C1410 1.432 . S
C1414 N1412 1.359 . S
C1414 C1417 1.414 . S
C1415 H1397 0.930 . S
C1415 N1412 1.327 . S
C1415 C1413 1.392 . S
C1416 H1411 0.930 . S
C1416 C1413 1.370 . S
C1416 C1417 1.385 . S
C1417 C1414 1.414 . S
C1417 C1416 1.385 . S
C1417 C1439 1.444 . S
O1418 Tb1374 2.546 . S
O1418 C1438 1.251 . S
O1419 Tb1374 2.610 . S
O1419 Tb1385 2.362 . S
O1419 C1430 1.283 . S
O1420 Tb1385 2.421 . S
O1420 C1437 1.262 . S
O1421 Tb1374 2.320 . S
O1421 C1437 1.260 . S
O1422 Tb1374 2.552 . S
O1422 C1430 1.243 . S
O1423 Tb1374 2.413 . S
O1423 C1438 1.256 . S
O1424 Tb1385 2.546 . S
O1424 C1449 1.251 . S
O1425 Tb1374 2.362 . S
O1425 Tb1385 2.610 . S
O1425 C1441 1.283 . S
O1426 Tb1374 2.421 . S
O1426 C1448 1.262 . S
O1427 Tb1385 2.320 . S
O1427 C1448 1.260 . S
O1428 Tb1385 2.552 . S
O1428 C1441 1.243 . S
O1429 Tb1385 2.413 . S
O1429 C1449 1.256 . S
C1430 O1419 1.283 . S
C1430 O1422 1.243 . S
C1431 C1433 1.382 . S
C1431 C1435 1.393 . S
C1431 C1438 1.500 . S
C1432 C1433 1.400 . S
C1432 C1434 1.384 . S
C1433 C1431 1.382 . S
C1433 C1432 1.400 . S
C1433 H1450 0.930 . S
C1434 C1432 1.384 . S
C1434 C1436 1.392 . S
C1434 H1451 0.931 . S
C1435 C1431 1.393 . S
C1435 C1436 1.401 . S
C1435 H1452 0.930 . S
C1436 C1434 1.392 . S
C1436 C1435 1.401 . S
C1436 H1453 0.930 . S
C1437 O1420 1.262 . S
C1437 O1421 1.260 . S
C1438 Tb1374 2.833 . S
C1438 O1418 1.251 . S
C1438 O1423 1.256 . S
C1438 C1431 1.500 . S
C1439 H1404 0.929 . S
C1439 C1417 1.444 . S
C1439 C1440 1.317 . S
C1440 H1402 0.930 . S
C1440 C1408 1.432 . S
C1440 C1439 1.317 . S
C1441 O1425 1.283 . S
C1441 O1428 1.243 . S
C1442 C1443 1.382 . S
C1442 C1446 1.393 . S
C1442 C1449 1.500 . S
C1443 C1442 1.382 . S
C1443 C1444 1.400 . S
C1443 H1454 0.930 . S
C1444 C1443 1.400 . S
C1444 C1445 1.384 . S
C1445 C1444 1.384 . S
C1445 C1447 1.392 . S
C1445 H1455 0.931 . S
C1446 C1442 1.393 . S
C1446 C1447 1.401 . S
C1446 H1456 0.930 . S
C1447 C1445 1.392 . S
C1447 C1446 1.401 . S
C1447 H1457 0.930 . S
C1448 O1426 1.262 . S
C1448 O1427 1.260 . S
C1449 Tb1385 2.833 . S
C1449 O1424 1.251 . S
C1449 O1429 1.256 . S
C1449 C1442 1.500 . S
H1450 C1433 0.930 . S
H1451 C1434 0.931 . S
H1452 C1435 0.930 . S
H1453 C1436 0.930 . S
H1454 C1443 0.930 . S
H1455 C1445 0.931 . S
H1456 C1446 0.930 . S
H1457 C1447 0.930 . S
C1458 C1459 1.391 . S
C1458 C1460 1.394 . S
C1458 H1474 0.931 . S
C1459 C1458 1.391 . S
C1459 C1463 1.376 . S
C1460 C1458 1.394 . S
C1460 C1461 1.369 . S
C1460 C1464 1.531 . S
C1461 C1460 1.369 . S
C1461 C1462 1.410 . S
C1461 C1469 1.503 . S
C1462 C1461 1.410 . S
C1462 C1463 1.392 . S
C1462 C1465 1.511 . S
C1463 C1459 1.376 . S
C1463 C1462 1.392 . S
C1463 H1475 0.929 . S
C1464 C1460 1.531 . S
C1464 H1476 0.960 . S
C1464 H1477 0.962 . S
C1464 H1478 0.960 . S
C1465 C1462 1.511 . S
C1465 H1479 0.961 . S
C1465 H1480 0.961 . S
C1465 H1481 0.961 . S
C1466 C1467 1.370 . S
C1466 C1468 1.363 . S
C1466 H1482 0.977 . S
C1467 C1466 1.370 . S
C1467 C1471 1.408 . S
C1468 C1466 1.363 . S
C1468 C1469 1.370 . S
C1468 C1472 1.524 . S
C1469 C1461 1.503 . S
C1469 C1468 1.370 . S
C1469 C1470 1.403 . S
C1470 C1469 1.403 . S
C1470 C1471 1.404 . S
C1470 C1473 1.539 . S
C1471 C1467 1.408 . S
C1471 C1470 1.404 . S
C1471 H1483 0.930 . S
C1472 C1468 1.524 . S
C1472 H1484 0.956 . S
C1472 H1485 0.961 . S
C1472 H1486 0.961 1_554 S
C1473 C1470 1.539 . S
C1473 H1487 0.958 . S
C1473 H1488 0.961 . S
C1473 H1489 0.960 . S
H1474 C1458 0.931 . S
H1475 C1463 0.929 . S
H1476 C1464 0.960 . S
H1477 C1464 0.962 . S
H1478 C1464 0.960 . S
H1479 C1465 0.961 . S
H1480 C1465 0.961 . S
H1481 C1465 0.961 . S
H1482 C1466 0.977 . S
H1483 C1471 0.930 . S
H1484 C1472 0.956 . S
H1485 C1472 0.961 . S
H1486 C1472 0.961 1_556 S
H1487 C1473 0.958 . S
H1488 C1473 0.961 . S
H1489 C1473 0.960 . S
C1490 C1491 1.391 . S
C1490 C1492 1.394 . S
C1490 H1506 0.931 . S
C1491 C1490 1.391 . S
C1491 C1495 1.376 . S
C1492 C1490 1.394 . S
C1492 C1493 1.369 . S
C1492 C1496 1.531 . S
C1493 C1492 1.369 . S
C1493 C1494 1.410 . S
C1493 C1501 1.503 . S
C1494 C1493 1.410 . S
C1494 C1495 1.392 . S
C1494 C1497 1.511 . S
C1495 C1491 1.376 . S
C1495 C1494 1.392 . S
C1495 H1507 0.929 . S
C1496 C1492 1.531 . S
C1496 H1508 0.960 . S
C1496 H1509 0.962 . S
C1496 H1510 0.960 . S
C1497 C1494 1.511 . S
C1497 H1511 0.961 . S
C1497 H1512 0.961 . S
C1497 H1513 0.961 . S
C1498 C1499 1.370 . S
C1498 C1500 1.363 . S
C1498 H1514 0.931 . S
C1499 C1498 1.370 . S
C1499 C1503 1.408 . S
C1500 C1498 1.363 . S
C1500 C1501 1.370 . S
C1500 C1504 1.524 . S
C1501 C1493 1.503 . S
C1501 C1500 1.370 . S
C1501 C1502 1.403 . S
C1502 C1501 1.403 . S
C1502 C1503 1.404 . S
C1502 C1505 1.539 . S
C1503 C1499 1.408 . S
C1503 C1502 1.404 . S
C1503 H1515 0.930 . S
C1504 C1500 1.524 . S
C1504 H1516 0.956 . S
C1504 H1517 0.961 . S
C1504 H1518 0.961 . S
C1505 C1502 1.539 . S
C1505 H1519 0.958 . S
C1505 H1520 0.961 . S
C1505 H1521 0.960 . S
H1506 C1490 0.931 . S
H1507 C1495 0.929 . S
H1508 C1496 0.960 . S
H1509 C1496 0.962 . S
H1510 C1496 0.960 . S
H1511 C1497 0.961 . S
H1512 C1497 0.961 . S
H1513 C1497 0.961 . S
H1514 C1498 0.931 . S
H1515 C1503 0.930 . S
H1516 C1504 0.956 . S
H1517 C1504 0.961 . S
H1518 C1504 0.961 . S
H1519 C1505 0.958 . S
H1520 C1505 0.961 . S
H1521 C1505 0.960 . S
C1522 C1523 1.391 . S
C1522 C1524 1.394 . S
C1522 H1538 0.931 . S
C1523 C1522 1.391 . S
C1523 C1527 1.376 . S
C1524 C1522 1.394 . S
C1524 C1525 1.369 . S
C1524 C1528 1.531 . S
C1525 C1524 1.369 . S
C1525 C1526 1.410 . S
C1525 C1533 1.503 . S
C1526 C1525 1.410 . S
C1526 C1527 1.392 . S
C1526 C1529 1.511 . S
C1527 C1523 1.376 . S
C1527 C1526 1.392 . S
C1527 H1539 0.929 . S
C1528 C1524 1.531 . S
C1528 H1540 0.960 . S
C1528 H1541 0.962 . S
C1528 H1542 0.960 . S
C1529 C1526 1.511 . S
C1529 H1543 0.961 . S
C1529 H1544 0.961 . S
C1529 H1545 0.961 . S
C1530 C1531 1.370 . S
C1530 C1532 1.363 . S
C1530 H1546 0.931 . S
C1531 C1530 1.370 . S
C1531 C1535 1.408 . S
C1532 C1530 1.363 . S
C1532 C1533 1.370 . S
C1532 C1536 1.524 . S
C1533 C1525 1.503 . S
C1533 C1532 1.370 . S
C1533 C1534 1.403 . S
C1534 C1533 1.403 . S
C1534 C1535 1.404 . S
C1534 C1537 1.539 . S
C1535 C1531 1.408 . S
C1535 C1534 1.404 . S
C1535 H1547 0.930 . S
C1536 C1532 1.524 . S
C1536 H1548 0.956 . S
C1536 H1549 0.961 . S
C1536 H1550 0.961 . S
C1537 C1534 1.539 . S
C1537 H1551 0.958 . S
C1537 H1552 0.961 . S
C1537 H1553 0.960 . S
H1538 C1522 0.931 . S
H1539 C1527 0.929 . S
H1540 C1528 0.960 . S
H1541 C1528 0.962 . S
H1542 C1528 0.960 . S
H1543 C1529 0.961 . S
H1544 C1529 0.961 . S
H1545 C1529 0.961 . S
H1546 C1530 0.931 . S
H1547 C1535 0.930 . S
H1548 C1536 0.956 . S
H1549 C1536 0.961 . S
H1550 C1536 0.961 . S
H1551 C1537 0.958 . S
H1552 C1537 0.961 . S
H1553 C1537 0.960 . S
C1554 C1555 1.391 . S
C1554 C1556 1.394 . S
C1554 H1570 0.931 . S
C1555 C1554 1.391 . S
C1555 C1559 1.376 . S
C1556 C1554 1.394 . S
C1556 C1557 1.369 . S
C1556 C1560 1.531 . S
C1557 C1556 1.369 . S
C1557 C1558 1.410 . S
C1557 C1565 1.503 . S
C1558 C1557 1.410 . S
C1558 C1559 1.392 . S
C1558 C1561 1.511 . S
C1559 C1555 1.376 . S
C1559 C1558 1.392 . S
C1559 H1571 0.929 . S
C1560 C1556 1.531 . S
C1560 H1572 0.960 . S
C1560 H1573 0.962 . S
C1560 H1574 0.960 . S
C1561 C1558 1.511 . S
C1561 H1575 0.961 . S
C1561 H1576 0.961 . S
C1561 H1577 0.961 . S
C1562 C1563 1.370 . S
C1562 C1564 1.363 . S
C1562 H1578 0.931 1_556 S
C1563 C1562 1.370 . S
C1563 C1567 1.408 . S
C1564 C1562 1.363 . S
C1564 C1565 1.370 . S
C1564 C1568 1.524 . S
C1565 C1557 1.503 . S
C1565 C1564 1.370 . S
C1565 C1566 1.403 . S
C1566 C1565 1.403 . S
C1566 C1567 1.404 . S
C1566 C1569 1.539 . S
C1567 C1563 1.408 . S
C1567 C1566 1.404 . S
C1567 H1579 0.930 . S
C1568 C1564 1.524 . S
C1568 H1580 0.956 . S
C1568 H1581 0.961 . S
C1568 H1582 0.961 1_556 S
C1569 C1566 1.539 . S
C1569 H1583 0.958 . S
C1569 H1584 0.961 . S
C1569 H1585 0.960 . S
H1570 C1554 0.931 . S
H1571 C1559 0.929 . S
H1572 C1560 0.960 . S
H1573 C1560 0.962 . S
H1574 C1560 0.960 . S
H1575 C1561 0.961 . S
H1576 C1561 0.961 . S
H1577 C1561 0.961 . S
H1578 C1562 0.931 1_554 S
H1579 C1567 0.930 . S
H1580 C1568 0.956 . S
H1581 C1568 0.961 . S
H1582 C1568 0.961 1_554 S
H1583 C1569 0.958 . S
H1584 C1569 0.961 . S
H1585 C1569 0.960 . S
C1586 C1587 1.391 . S
C1586 C1588 1.394 . S
C1586 H1602 0.931 . S
C1587 C1586 1.391 . S
C1587 C1591 1.376 . S
C1588 C1586 1.394 . S
C1588 C1589 1.369 . S
C1588 C1592 1.531 . S
C1589 C1588 1.369 . S
C1589 C1590 1.410 . S
C1589 C1597 1.503 . S
C1590 C1589 1.410 . S
C1590 C1591 1.392 . S
C1590 C1593 1.511 . S
C1591 C1587 1.376 . S
C1591 C1590 1.392 . S
C1591 H1603 0.929 . S
C1592 C1588 1.531 . S
C1592 H1604 0.960 . S
C1592 H1605 0.962 . S
C1592 H1606 0.960 . S
C1593 C1590 1.511 . S
C1593 H1607 0.961 . S
C1593 H1608 0.961 . S
C1593 H1609 0.961 . S
C1594 C1595 1.370 . S
C1594 C1596 1.363 . S
C1594 H1610 0.931 . S
C1595 C1594 1.370 . S
C1595 C1599 1.408 . S
C1596 C1594 1.363 . S
C1596 C1597 1.370 . S
C1596 C1600 1.524 . S
C1597 C1589 1.503 . S
C1597 C1596 1.370 . S
C1597 C1598 1.403 . S
C1598 C1597 1.403 . S
C1598 C1599 1.404 . S
C1598 C1601 1.539 . S
C1599 C1595 1.408 . S
C1599 C1598 1.404 . S
C1599 H1611 0.930 . S
C1600 C1596 1.524 . S
C1600 H1612 0.956 . S
C1600 H1613 0.961 . S
C1600 H1614 0.961 . S
C1601 C1598 1.539 . S
C1601 H1615 0.958 . S
C1601 H1616 0.961 . S
C1601 H1617 0.960 . S
H1602 C1586 0.931 . S
H1603 C1591 0.929 . S
H1604 C1592 0.960 . S
H1605 C1592 0.962 . S
H1606 C1592 0.960 . S
H1607 C1593 0.961 . S
H1608 C1593 0.961 . S
H1609 C1593 0.961 . S
H1610 C1594 0.931 . S
H1611 C1599 0.930 . S
H1612 C1600 0.956 . S
H1613 C1600 0.961 . S
H1614 C1600 0.961 . S
H1615 C1601 0.958 . S
H1616 C1601 0.961 . S
H1617 C1601 0.960 . S
C1618 C1619 1.391 . S
C1618 C1620 1.394 . S
C1618 H1634 0.931 . S
C1619 C1618 1.391 . S
C1619 C1623 1.376 . S
C1620 C1618 1.394 . S
C1620 C1621 1.369 . S
C1620 C1624 1.531 . S
C1621 C1620 1.369 . S
C1621 C1622 1.410 . S
C1621 C1629 1.503 . S
C1622 C1621 1.410 . S
C1622 C1623 1.392 . S
C1622 C1625 1.511 . S
C1623 C1619 1.376 . S
C1623 C1622 1.392 . S
C1623 H1635 0.929 . S
C1624 C1620 1.531 . S
C1624 H1636 0.960 . S
C1624 H1637 0.962 . S
C1624 H1638 0.960 . S
C1625 C1622 1.511 . S
C1625 H1639 0.961 . S
C1625 H1640 0.961 . S
C1625 H1641 0.961 . S
C1626 C1627 1.370 . S
C1626 C1628 1.363 . S
C1626 H1642 0.931 . S
C1627 C1626 1.370 . S
C1627 C1631 1.408 . S
C1628 C1626 1.363 . S
C1628 C1629 1.370 . S
C1628 C1632 1.524 . S
C1629 C1621 1.503 . S
C1629 C1628 1.370 . S
C1629 C1630 1.403 . S
C1630 C1629 1.403 . S
C1630 C1631 1.404 . S
C1630 C1633 1.539 1_556 S
C1631 C1627 1.408 . S
C1631 C1630 1.404 . S
C1631 H1643 0.930 1_556 S
C1632 C1628 1.524 . S
C1632 H1644 0.956 . S
C1632 H1645 0.961 . S
C1632 H1646 0.961 . S
C1633 C1630 1.539 1_554 S
C1633 H1647 0.958 . S
C1633 H1648 0.961 . S
C1633 H1649 0.960 . S
H1634 C1618 0.931 . S
H1635 C1623 0.929 . S
H1636 C1624 0.960 . S
H1637 C1624 0.962 . S
H1638 C1624 0.960 . S
H1639 C1625 0.961 . S
H1640 C1625 0.961 . S
H1641 C1625 0.961 . S
H1642 C1626 0.931 . S
H1643 C1631 0.930 1_554 S
H1644 C1632 0.956 . S
H1645 C1632 0.961 . S
H1646 C1632 0.961 . S
H1647 C1633 0.958 . S
H1648 C1633 0.961 . S
H1649 C1633 0.960 . S
C1650 C1651 1.391 . S
C1650 C1652 1.394 . S
C1650 H1666 0.931 . S
C1651 C1650 1.391 . S
C1651 C1655 1.376 . S
C1652 C1650 1.394 . S
C1652 C1653 1.369 . S
C1652 C1656 1.531 . S
C1653 C1652 1.369 . S
C1653 C1654 1.410 . S
C1653 C1661 1.503 . S
C1654 C1653 1.410 . S
C1654 C1655 1.392 . S
C1654 C1657 1.511 . S
C1655 C1651 1.376 . S
C1655 C1654 1.392 . S
C1655 H1667 0.929 . S
C1656 C1652 1.531 . S
C1656 H1668 0.960 . S
C1656 H1669 0.962 . S
C1656 H1670 0.960 . S
C1657 C1654 1.511 . S
C1657 H1671 0.961 . S
C1657 H1672 0.961 . S
C1657 H1673 0.961 . S
C1658 C1659 1.370 . S
C1658 C1660 1.363 . S
C1658 H1674 0.931 1_556 S
C1659 C1658 1.370 . S
C1659 C1663 1.408 . S
C1660 C1658 1.363 . S
C1660 C1661 1.370 . S
C1660 C1664 1.524 . S
C1661 C1653 1.503 . S
C1661 C1660 1.370 . S
C1661 C1662 1.403 . S
C1662 C1661 1.403 . S
C1662 C1663 1.404 . S
C1662 C1665 1.539 . S
C1663 C1659 1.408 . S
C1663 C1662 1.404 . S
C1663 H1675 0.930 . S
C1664 C1660 1.524 . S
C1664 H1676 0.956 . S
C1664 H1677 0.961 . S
C1664 H1678 0.961 1_556 S
C1665 C1662 1.539 . S
C1665 H1679 0.958 . S
C1665 H1680 0.961 . S
C1665 H1681 0.960 . S
H1666 C1650 0.931 . S
H1667 C1655 0.929 . S
H1668 C1656 0.960 . S
H1669 C1656 0.962 . S
H1670 C1656 0.960 . S
H1671 C1657 0.961 . S
H1672 C1657 0.961 . S
H1673 C1657 0.961 . S
H1674 C1658 0.931 1_554 S
H1675 C1663 0.930 . S
H1676 C1664 0.956 . S
H1677 C1664 0.961 . S
H1678 C1664 0.961 1_554 S
H1679 C1665 0.958 . S
H1680 C1665 0.961 . S
H1681 C1665 0.960 . S
C1682 C1683 1.391 . S
C1682 C1684 1.394 . S
C1682 H1698 0.931 . S
C1683 C1682 1.391 . S
C1683 C1687 1.376 . S
C1684 C1682 1.394 . S
C1684 C1685 1.369 . S
C1684 C1688 1.531 . S
C1685 C1684 1.369 . S
C1685 C1686 1.410 . S
C1685 C1693 1.503 . S
C1686 C1685 1.410 . S
C1686 C1687 1.392 . S
C1686 C1689 1.511 . S
C1687 C1683 1.376 . S
C1687 C1686 1.392 . S
C1687 H1699 0.929 . S
C1688 C1684 1.531 . S
C1688 H1700 0.960 . S
C1688 H1701 0.962 . S
C1688 H1702 0.960 . S
C1689 C1686 1.511 . S
C1689 H1703 0.961 . S
C1689 H1704 0.961 . S
C1689 H1705 0.961 . S
C1690 C1691 1.370 . S
C1690 C1692 1.363 . S
C1690 H1706 0.931 1_556 S
C1691 C1690 1.370 . S
C1691 C1695 1.408 . S
C1692 C1690 1.363 . S
C1692 C1693 1.370 . S
C1692 C1696 1.524 . S
C1693 C1685 1.503 . S
C1693 C1692 1.370 . S
C1693 C1694 1.403 . S
C1694 C1693 1.403 . S
C1694 C1695 1.404 . S
C1694 C1697 1.539 . S
C1695 C1691 1.408 . S
C1695 C1694 1.404 . S
C1695 H1707 0.930 . S
C1696 C1692 1.524 . S
C1696 H1708 0.956 . S
C1696 H1709 0.961 . S
C1696 H1710 0.961 1_556 S
C1697 C1694 1.539 . S
C1697 H1711 0.958 . S
C1697 H1712 0.961 . S
C1697 H1713 0.960 . S
H1698 C1682 0.931 . S
H1699 C1687 0.929 . S
H1700 C1688 0.960 . S
H1701 C1688 0.962 . S
H1702 C1688 0.960 . S
H1703 C1689 0.961 . S
H1704 C1689 0.961 . S
H1705 C1689 0.961 . S
H1706 C1690 0.931 1_554 S
H1707 C1695 0.930 . S
H1708 C1696 0.956 . S
H1709 C1696 0.961 . S
H1710 C1696 0.961 1_554 S
H1711 C1697 0.958 . S
H1712 C1697 0.961 . S
H1713 C1697 0.960 . S
C1714 C1715 1.391 . S
C1714 C1716 1.394 . S
C1714 H1730 0.931 . S
C1715 C1714 1.391 . S
C1715 C1719 1.376 . S
C1716 C1714 1.394 . S
C1716 C1717 1.369 . S
C1716 C1720 1.531 . S
C1717 C1716 1.369 . S
C1717 C1718 1.410 . S
C1717 C1725 1.503 . S
C1718 C1717 1.410 . S
C1718 C1719 1.392 . S
C1718 C1721 1.511 . S
C1719 C1715 1.376 . S
C1719 C1718 1.392 . S
C1719 H1731 0.929 . S
C1720 C1716 1.531 . S
C1720 H1732 0.960 . S
C1720 H1733 0.962 . S
C1720 H1734 0.960 . S
C1721 C1718 1.511 . S
C1721 H1735 0.961 . S
C1721 H1736 0.961 . S
C1721 H1737 0.961 . S
C1722 C1723 1.370 . S
C1722 C1724 1.363 . S
C1722 H1738 0.931 1_556 S
C1723 C1722 1.370 . S
C1723 C1727 1.408 . S
C1724 C1722 1.363 . S
C1724 C1725 1.370 . S
C1724 C1728 1.524 . S
C1725 C1717 1.503 . S
C1725 C1724 1.370 . S
C1725 C1726 1.403 . S
C1726 C1725 1.403 . S
C1726 C1727 1.404 . S
C1726 C1729 1.539 . S
C1727 C1723 1.408 . S
C1727 C1726 1.404 . S
C1727 H1739 0.930 . S
C1728 C1724 1.524 . S
C1728 H1740 0.956 . S
C1728 H1741 0.961 . S
C1728 H1742 0.961 1_556 S
C1729 C1726 1.539 . S
C1729 H1743 0.958 . S
C1729 H1744 0.961 . S
C1729 H1745 0.960 . S
H1730 C1714 0.931 . S
H1731 C1719 0.929 . S
H1732 C1720 0.960 . S
H1733 C1720 0.962 . S
H1734 C1720 0.960 . S
H1735 C1721 0.961 . S
H1736 C1721 0.961 . S
H1737 C1721 0.961 . S
H1738 C1722 0.931 1_554 S
H1739 C1727 0.930 . S
H1740 C1728 0.956 . S
H1741 C1728 0.961 . S
H1742 C1728 0.961 1_554 S
H1743 C1729 0.958 . S
H1744 C1729 0.961 . S
H1745 C1729 0.960 . S
C1746 C1747 1.391 . S
C1746 C1748 1.394 . S
C1746 H1762 0.931 . S
C1747 C1746 1.391 . S
C1747 C1751 1.376 . S
C1748 C1746 1.394 . S
C1748 C1749 1.369 . S
C1748 C1752 1.531 . S
C1749 C1748 1.369 . S
C1749 C1750 1.410 . S
C1749 C1757 1.503 . S
C1750 C1749 1.410 . S
C1750 C1751 1.392 . S
C1750 C1753 1.511 . S
C1751 C1747 1.376 . S
C1751 C1750 1.392 . S
C1751 H1763 0.929 . S
C1752 C1748 1.531 . S
C1752 H1764 0.960 . S
C1752 H1765 0.962 . S
C1752 H1766 0.960 . S
C1753 C1750 1.511 . S
C1753 H1767 0.961 . S
C1753 H1768 0.961 . S
C1753 H1769 0.961 . S
C1754 C1755 1.370 . S
C1754 C1756 1.363 . S
C1754 H1770 0.931 . S
C1755 C1754 1.370 . S
C1755 C1759 1.408 . S
C1756 C1754 1.363 . S
C1756 C1757 1.370 . S
C1756 C1760 1.524 . S
C1757 C1749 1.503 . S
C1757 C1756 1.370 . S
C1757 C1758 1.403 . S
C1758 C1757 1.403 . S
C1758 C1759 1.404 . S
C1758 C1761 1.539 . S
C1759 C1755 1.408 . S
C1759 C1758 1.404 . S
C1759 H1771 0.930 . S
C1760 C1756 1.524 . S
C1760 H1772 0.956 . S
C1760 H1773 0.961 . S
C1760 H1774 0.961 1_554 S
C1761 C1758 1.539 . S
C1761 H1775 0.958 . S
C1761 H1776 0.961 . S
C1761 H1777 0.960 . S
H1762 C1746 0.931 . S
H1763 C1751 0.929 . S
H1764 C1752 0.960 . S
H1765 C1752 0.962 . S
H1766 C1752 0.960 . S
H1767 C1753 0.961 . S
H1768 C1753 0.961 . S
H1769 C1753 0.961 . S
H1770 C1754 0.931 . S
H1771 C1759 0.930 . S
H1772 C1760 0.956 . S
H1773 C1760 0.961 . S
H1774 C1760 0.961 1_556 S
H1775 C1761 0.958 . S
H1776 C1761 0.961 . S
H1777 C1761 0.960 . S
C1778 C1779 1.391 . S
C1778 C1780 1.394 . S
C1778 H1794 0.931 . S
C1779 C1778 1.391 . S
C1779 C1783 1.376 . S
C1780 C1778 1.394 . S
C1780 C1781 1.369 . S
C1780 C1784 1.531 . S
C1781 C1780 1.369 . S
C1781 C1782 1.410 . S
C1781 C1789 1.503 . S
C1782 C1781 1.410 . S
C1782 C1783 1.392 . S
C1782 C1785 1.511 . S
C1783 C1779 1.376 . S
C1783 C1782 1.392 . S
C1783 H1795 0.929 . S
C1784 C1780 1.531 . S
C1784 H1796 0.960 . S
C1784 H1797 0.962 . S
C1784 H1798 0.960 . S
C1785 C1782 1.511 . S
C1785 H1799 0.961 . S
C1785 H1800 0.961 . S
C1785 H1801 0.961 . S
C1786 C1787 1.370 . S
C1786 C1788 1.363 . S
C1786 H1802 0.931 . S
C1787 C1786 1.370 . S
C1787 C1791 1.408 . S
C1788 C1786 1.363 . S
C1788 C1789 1.370 . S
C1788 C1792 1.524 . S
C1789 C1781 1.503 . S
C1789 C1788 1.370 . S
C1789 C1790 1.403 . S
C1790 C1789 1.403 . S
C1790 C1791 1.404 . S
C1790 C1793 1.539 . S
C1791 C1787 1.408 . S
C1791 C1790 1.404 . S
C1791 H1803 0.930 . S
C1792 C1788 1.524 . S
C1792 H1804 0.956 . S
C1792 H1805 0.961 . S
C1792 H1806 0.961 . S
C1793 C1790 1.539 . S
C1793 H1807 0.958 . S
C1793 H1808 0.961 . S
C1793 H1809 0.960 . S
H1794 C1778 0.931 . S
H1795 C1783 0.929 . S
H1796 C1784 0.960 . S
H1797 C1784 0.962 . S
H1798 C1784 0.960 . S
H1799 C1785 0.961 . S
H1800 C1785 0.961 . S
H1801 C1785 0.961 . S
H1802 C1786 0.931 . S
H1803 C1791 0.930 . S
H1804 C1792 0.956 . S
H1805 C1792 0.961 . S
H1806 C1792 0.961 . S
H1807 C1793 0.958 . S
H1808 C1793 0.961 . S
H1809 C1793 0.960 . S
C1810 C1811 1.391 . S
C1810 C1812 1.394 . S
C1810 H1826 0.931 . S
C1811 C1810 1.391 . S
C1811 C1815 1.376 . S
C1812 C1810 1.394 . S
C1812 C1813 1.369 . S
C1812 C1816 1.531 . S
C1813 C1812 1.369 . S
C1813 C1814 1.410 . S
C1813 C1821 1.503 . S
C1814 C1813 1.410 . S
C1814 C1815 1.392 . S
C1814 C1817 1.511 . S
C1815 C1811 1.376 . S
C1815 C1814 1.392 . S
C1815 H1827 0.929 . S
C1816 C1812 1.531 . S
C1816 H1828 0.960 . S
C1816 H1829 0.962 . S
C1816 H1830 0.960 . S
C1817 C1814 1.511 . S
C1817 H1831 0.961 . S
C1817 H1832 0.961 . S
C1817 H1833 0.961 . S
C1818 C1819 1.370 . S
C1818 C1820 1.363 . S
C1818 H1834 0.886 1_554 S
C1819 C1818 1.370 . S
C1819 C1823 1.408 . S
C1820 C1818 1.363 . S
C1820 C1821 1.370 . S
C1820 C1824 1.524 . S
C1821 C1813 1.503 . S
C1821 C1820 1.370 . S
C1821 C1822 1.403 . S
C1822 C1821 1.403 . S
C1822 C1823 1.404 . S
C1822 C1825 1.539 . S
C1823 C1819 1.408 . S
C1823 C1822 1.404 . S
C1823 H1835 0.930 . S
C1824 C1820 1.524 . S
C1824 H1836 0.956 . S
C1824 H1837 0.961 . S
C1824 H1838 0.961 1_554 S
C1825 C1822 1.539 . S
C1825 H1839 0.958 . S
C1825 H1840 0.961 . S
C1825 H1841 0.960 . S
H1826 C1810 0.931 . S
H1827 C1815 0.929 . S
H1828 C1816 0.960 . S
H1829 C1816 0.962 . S
H1830 C1816 0.960 . S
H1831 C1817 0.961 . S
H1832 C1817 0.961 . S
H1833 C1817 0.961 . S
H1834 C1818 0.886 1_556 S
H1835 C1823 0.930 . S
H1836 C1824 0.956 . S
H1837 C1824 0.961 . S
H1838 C1824 0.961 1_556 S
H1839 C1825 0.958 . S
H1840 C1825 0.961 . S
H1841 C1825 0.960 . S
C1842 C1843 1.391 1_455 S
C1842 C1844 1.394 . S
C1842 H1858 0.931 . S
C1843 C1842 1.391 1_655 S
C1843 C1847 1.376 . S
C1844 C1842 1.394 . S
C1844 C1845 1.369 . S
C1844 C1848 1.531 . S
C1845 C1844 1.369 . S
C1845 C1846 1.410 . S
C1845 C1853 1.503 . S
C1846 C1845 1.410 . S
C1846 C1847 1.392 1_455 S
C1846 C1849 1.511 . S
C1847 C1843 1.376 . S
C1847 C1846 1.392 1_655 S
C1847 H1859 0.929 . S
C1848 C1844 1.531 . S
C1848 H1860 0.960 . S
C1848 H1861 0.962 . S
C1848 H1862 0.960 . S
C1849 C1846 1.511 . S
C1849 H1863 0.961 . S
C1849 H1864 0.961 . S
C1849 H1865 0.961 . S
C1850 C1851 1.370 . S
C1850 C1852 1.363 . S
C1850 H1866 0.931 . S
C1851 C1850 1.370 . S
C1851 C1855 1.408 . S
C1852 C1850 1.363 . S
C1852 C1853 1.370 . S
C1852 C1856 1.524 . S
C1853 C1845 1.503 . S
C1853 C1852 1.370 . S
C1853 C1854 1.403 . S
C1854 C1853 1.403 . S
C1854 C1855 1.404 . S
C1854 C1857 1.539 . S
C1855 C1851 1.408 . S
C1855 C1854 1.404 . S
C1855 H1867 0.930 . S
C1856 C1852 1.524 . S
C1856 H1868 0.956 . S
C1856 H1869 0.961 . S
C1856 H1870 0.961 . S
C1857 C1854 1.539 . S
C1857 H1871 0.958 . S
C1857 H1872 0.961 . S
C1857 H1873 0.960 . S
H1858 C1842 0.931 . S
H1859 C1847 0.929 . S
H1860 C1848 0.960 . S
H1861 C1848 0.962 . S
H1862 C1848 0.960 . S
H1863 C1849 0.961 . S
H1864 C1849 0.961 . S
H1865 C1849 0.961 . S
H1866 C1850 0.931 . S
H1867 C1855 0.930 . S
H1868 C1856 0.956 . S
H1869 C1856 0.961 . S
H1870 C1856 0.961 . S
H1871 C1857 0.958 . S
H1872 C1857 0.961 . S
H1873 C1857 0.960 . S
C1874 C1875 1.391 . S
C1874 C1876 1.394 . S
C1874 H1890 0.931 . S
C1875 C1874 1.391 . S
C1875 C1879 1.376 . S
C1876 C1874 1.394 . S
C1876 C1877 1.369 . S
C1876 C1880 1.531 . S
C1877 C1876 1.369 . S
C1877 C1878 1.410 . S
C1877 C1885 1.503 . S
C1878 C1877 1.410 . S
C1878 C1879 1.392 . S
C1878 C1881 1.511 . S
C1879 C1875 1.376 . S
C1879 C1878 1.392 . S
C1879 H1891 0.929 . S
C1880 C1876 1.531 . S
C1880 H1892 0.960 . S
C1880 H1893 0.962 . S
C1880 H1894 0.960 . S
C1881 C1878 1.511 . S
C1881 H1895 0.961 . S
C1881 H1896 0.961 . S
C1881 H1897 0.961 . S
C1882 C1883 1.370 . S
C1882 C1884 1.363 . S
C1882 H1898 0.931 . S
C1883 C1882 1.370 . S
C1883 C1887 1.408 . S
C1884 C1882 1.363 . S
C1884 C1885 1.370 . S
C1884 C1888 1.524 . S
C1885 C1877 1.503 . S
C1885 C1884 1.370 . S
C1885 C1886 1.403 . S
C1886 C1885 1.403 . S
C1886 C1887 1.404 . S
C1886 C1889 1.539 . S
C1887 C1883 1.408 . S
C1887 C1886 1.404 . S
C1887 H1899 0.930 . S
C1888 C1884 1.524 . S
C1888 H1900 0.956 . S
C1888 H1901 0.961 . S
C1888 H1902 0.961 . S
C1889 C1886 1.539 . S
C1889 H1903 0.958 . S
C1889 H1904 0.961 . S
C1889 H1905 0.960 . S
H1890 C1874 0.931 . S
H1891 C1879 0.929 . S
H1892 C1880 0.960 . S
H1893 C1880 0.962 . S
H1894 C1880 0.960 . S
H1895 C1881 0.961 . S
H1896 C1881 0.961 . S
H1897 C1881 0.961 . S
H1898 C1882 0.931 . S
H1899 C1887 0.930 . S
H1900 C1888 0.956 . S
H1901 C1888 0.961 . S
H1902 C1888 0.961 . S
H1903 C1889 0.958 . S
H1904 C1889 0.961 . S
H1905 C1889 0.960 . S
C1906 C1907 1.434 . S
C1906 C1908 1.347 1_545 S
C1906 H1922 0.937 . S
C1907 C1906 1.434 . S
C1907 C1911 1.376 . S
C1908 C1906 1.347 1_565 S
C1908 C1909 1.369 . S
C1908 C1912 1.531 . S
C1909 C1908 1.369 . S
C1909 C1910 1.410 . S
C1909 C1917 1.503 . S
C1910 C1909 1.410 . S
C1910 C1911 1.392 1_565 S
C1910 C1913 1.511 . S
C1911 C1907 1.376 . S
C1911 C1910 1.392 1_545 S
C1911 H1923 0.929 . S
C1912 C1908 1.531 . S
C1912 H1924 0.960 . S
C1912 H1925 0.962 . S
C1912 H1926 0.960 . S
C1913 C1910 1.511 . S
C1913 H1927 0.961 . S
C1913 H1928 0.961 . S
C1913 H1929 0.961 . S
C1914 C1915 1.370 . S
C1914 C1916 1.363 . S
C1914 H1930 0.931 . S
C1915 C1914 1.370 . S
C1915 C1919 1.408 . S
C1916 C1914 1.363 . S
C1916 C1917 1.370 . S
C1916 C1920 1.524 . S
C1917 C1909 1.503 . S
C1917 C1916 1.370 . S
C1917 C1918 1.403 . S
C1918 C1917 1.403 . S
C1918 C1919 1.404 . S
C1918 C1921 1.539 . S
C1919 C1915 1.408 . S
C1919 C1918 1.404 . S
C1919 H1931 0.930 . S
C1920 C1916 1.524 . S
C1920 H1932 0.956 . S
C1920 H1933 0.961 . S
C1920 H1934 0.961 . S
C1921 C1918 1.539 . S
C1921 H1935 0.958 . S
C1921 H1936 0.961 . S
C1921 H1937 0.960 . S
H1922 C1906 0.937 . S
H1923 C1911 0.929 . S
H1924 C1912 0.960 . S
H1925 C1912 0.962 . S
H1926 C1912 0.960 . S
H1927 C1913 0.961 . S
H1928 C1913 0.961 . S
H1929 C1913 0.961 . S
H1930 C1914 0.931 . S
H1931 C1919 0.930 . S
H1932 C1920 0.956 . S
H1933 C1920 0.961 . S
H1934 C1920 0.961 . S
H1935 C1921 0.958 . S
H1936 C1921 0.961 . S
H1937 C1921 0.960 . S
C1938 C1939 1.391 . S
C1938 C1940 1.394 . S
C1938 H1954 0.931 . S
C1939 C1938 1.391 . S
C1939 C1943 1.376 . S
C1940 C1938 1.394 . S
C1940 C1941 1.369 . S
C1940 C1944 1.531 . S
C1941 C1940 1.369 . S
C1941 C1942 1.410 . S
C1941 C1949 1.503 . S
C1942 C1941 1.410 . S
C1942 C1943 1.392 . S
C1942 C1945 1.511 . S
C1943 C1939 1.376 . S
C1943 C1942 1.392 . S
C1943 H1955 0.929 . S
C1944 C1940 1.531 . S
C1944 H1956 0.960 . S
C1944 H1957 0.962 . S
C1944 H1958 0.960 . S
C1945 C1942 1.511 . S
C1945 H1959 0.961 . S
C1945 H1960 0.961 . S
C1945 H1961 0.961 . S
C1946 C1947 1.370 . S
C1946 C1948 1.363 . S
C1946 H1962 0.931 . S
C1947 C1946 1.370 . S
C1947 C1951 1.408 . S
C1948 C1946 1.363 . S
C1948 C1949 1.370 . S
C1948 C1952 1.524 . S
C1949 C1941 1.503 . S
C1949 C1948 1.370 . S
C1949 C1950 1.403 . S
C1950 C1949 1.403 . S
C1950 C1951 1.404 . S
C1950 C1953 1.539 . S
C1951 C1947 1.408 . S
C1951 C1950 1.404 . S
C1951 H1963 0.930 . S
C1952 C1948 1.524 . S
C1952 H1964 0.956 . S
C1952 H1965 0.961 . S
C1952 H1966 0.961 . S
C1953 C1950 1.539 . S
C1953 H1967 0.958 . S
C1953 H1968 0.961 . S
C1953 H1969 0.960 . S
H1954 C1938 0.931 . S
H1955 C1943 0.929 . S
H1956 C1944 0.960 . S
H1957 C1944 0.962 . S
H1958 C1944 0.960 . S
H1959 C1945 0.961 . S
H1960 C1945 0.961 . S
H1961 C1945 0.961 . S
H1962 C1946 0.931 . S
H1963 C1951 0.930 . S
H1964 C1952 0.956 . S
H1965 C1952 0.961 . S
H1966 C1952 0.961 . S
H1967 C1953 0.958 . S
H1968 C1953 0.961 . S
H1969 C1953 0.960 . S
C1970 C1971 1.391 . S
C1970 C1972 1.394 . S
C1970 H1986 0.931 . S
C1971 C1970 1.391 . S
C1971 C1975 1.376 . S
C1972 C1970 1.394 . S
C1972 C1973 1.369 . S
C1972 C1976 1.531 . S
C1973 C1972 1.369 . S
C1973 C1974 1.410 . S
C1973 C1981 1.503 . S
C1974 C1973 1.410 . S
C1974 C1975 1.392 . S
C1974 C1977 1.511 . S
C1975 C1971 1.376 . S
C1975 C1974 1.392 . S
C1975 H1987 0.929 . S
C1976 C1972 1.531 . S
C1976 H1988 0.960 . S
C1976 H1989 0.962 . S
C1976 H1990 0.960 . S
C1977 C1974 1.511 . S
C1977 H1991 0.961 . S
C1977 H1992 0.961 . S
C1977 H1993 0.961 . S
C1978 C1979 1.370 . S
C1978 C1980 1.363 . S
C1978 H1994 0.931 . S
C1979 C1978 1.370 . S
C1979 C1983 1.408 . S
C1980 C1978 1.363 . S
C1980 C1981 1.370 . S
C1980 C1984 1.524 . S
C1981 C1973 1.503 . S
C1981 C1980 1.370 . S
C1981 C1982 1.403 . S
C1982 C1981 1.403 . S
C1982 C1983 1.404 . S
C1982 C1985 1.539 . S
C1983 C1979 1.408 . S
C1983 C1982 1.404 . S
C1983 H1995 0.930 . S
C1984 C1980 1.524 . S
C1984 H1996 0.956 . S
C1984 H1997 0.961 . S
C1984 H1998 0.961 . S
C1985 C1982 1.539 . S
C1985 H1999 0.958 . S
C1985 H2000 0.961 . S
C1985 H2001 0.960 . S
H1986 C1970 0.931 . S
H1987 C1975 0.929 . S
H1988 C1976 0.960 . S
H1989 C1976 0.962 . S
H1990 C1976 0.960 . S
H1991 C1977 0.961 . S
H1992 C1977 0.961 . S
H1993 C1977 0.961 . S
H1994 C1978 0.931 . S
H1995 C1983 0.930 . S
H1996 C1984 0.956 . S
H1997 C1984 0.961 . S
H1998 C1984 0.961 . S
H1999 C1985 0.958 . S
H2000 C1985 0.961 . S
H2001 C1985 0.960 . S
C2002 C2003 1.391 . S
C2002 C2004 1.394 . S
C2002 H2018 0.931 . S
C2003 C2002 1.391 . S
C2003 C2007 1.376 . S
C2004 C2002 1.394 . S
C2004 C2005 1.369 . S
C2004 C2008 1.531 . S
C2005 C2004 1.369 . S
C2005 C2006 1.410 . S
C2005 C2013 1.503 . S
C2006 C2005 1.410 . S
C2006 C2007 1.392 . S
C2006 C2009 1.511 . S
C2007 C2003 1.376 . S
C2007 C2006 1.392 . S
C2007 H2019 0.929 . S
C2008 C2004 1.531 . S
C2008 H2020 0.960 . S
C2008 H2021 0.962 . S
C2008 H2022 0.960 . S
C2009 C2006 1.511 . S
C2009 H2023 0.961 . S
C2009 H2024 0.961 . S
C2009 H2025 0.961 . S
C2010 C2011 1.370 . S
C2010 C2012 1.363 . S
C2010 H2026 0.931 . S
C2011 C2010 1.370 . S
C2011 C2015 1.408 . S
C2012 C2010 1.363 . S
C2012 C2013 1.370 . S
C2012 C2016 1.524 . S
C2013 C2005 1.503 . S
C2013 C2012 1.370 . S
C2013 C2014 1.403 . S
C2014 C2013 1.403 . S
C2014 C2015 1.404 . S
C2014 C2017 1.539 . S
C2015 C2011 1.408 . S
C2015 C2014 1.404 . S
C2015 H2027 0.930 . S
C2016 C2012 1.524 . S
C2016 H2028 0.956 . S
C2016 H2029 0.961 . S
C2016 H2030 0.961 . S
C2017 C2014 1.539 . S
C2017 H2031 0.958 . S
C2017 H2032 0.961 . S
C2017 H2033 0.960 . S
H2018 C2002 0.931 . S
H2019 C2007 0.929 . S
H2020 C2008 0.960 . S
H2021 C2008 0.962 . S
H2022 C2008 0.960 . S
H2023 C2009 0.961 . S
H2024 C2009 0.961 . S
H2025 C2009 0.961 . S
H2026 C2010 0.931 . S
H2027 C2015 0.930 . S
H2028 C2016 0.956 . S
H2029 C2016 0.961 . S
H2030 C2016 0.961 . S
H2031 C2017 0.958 . S
H2032 C2017 0.961 . S
H2033 C2017 0.960 . S
C2034 C2035 1.391 . S
C2034 C2036 1.394 . S
C2034 H2050 0.931 . S
C2035 C2034 1.391 . S
C2035 C2039 1.376 . S
C2036 C2034 1.394 . S
C2036 C2037 1.369 . S
C2036 C2040 1.531 . S
C2037 C2036 1.369 . S
C2037 C2038 1.410 . S
C2037 C2045 1.503 . S
C2038 C2037 1.410 . S
C2038 C2039 1.392 . S
C2038 C2041 1.511 . S
C2039 C2035 1.376 . S
C2039 C2038 1.392 . S
C2039 H2051 0.929 . S
C2040 C2036 1.531 . S
C2040 H2052 0.960 . S
C2040 H2053 0.962 . S
C2040 H2054 0.960 . S
C2041 C2038 1.511 . S
C2041 H2055 0.961 . S
C2041 H2056 0.961 . S
C2041 H2057 0.961 . S
C2042 C2043 1.370 . S
C2042 C2044 1.363 . S
C2042 H2058 0.931 . S
C2043 C2042 1.370 . S
C2043 C2047 1.408 . S
C2044 C2042 1.363 . S
C2044 C2045 1.370 . S
C2044 C2048 1.524 . S
C2045 C2037 1.503 . S
C2045 C2044 1.370 . S
C2045 C2046 1.403 . S
C2046 C2045 1.403 . S
C2046 C2047 1.404 . S
C2046 C2049 1.539 . S
C2047 C2043 1.408 . S
C2047 C2046 1.404 . S
C2047 H2059 0.930 . S
C2048 C2044 1.524 . S
C2048 H2060 0.956 . S
C2048 H2061 0.961 . S
C2048 H2062 0.961 . S
C2049 C2046 1.539 . S
C2049 H2063 0.958 . S
C2049 H2064 0.961 . S
C2049 H2065 0.960 . S
H2050 C2034 0.931 . S
H2051 C2039 0.929 . S
H2052 C2040 0.960 . S
H2053 C2040 0.962 . S
H2054 C2040 0.960 . S
H2055 C2041 0.961 . S
H2056 C2041 0.961 . S
H2057 C2041 0.961 . S
H2058 C2042 0.931 . S
H2059 C2047 0.930 . S
H2060 C2048 0.956 . S
H2061 C2048 0.961 . S
H2062 C2048 0.961 . S
H2063 C2049 0.958 . S
H2064 C2049 0.961 . S
H2065 C2049 0.960 . S
C2066 C2067 1.391 . S
C2066 C2068 1.394 . S
C2066 H2082 0.931 . S
C2067 C2066 1.391 . S
C2067 C2071 1.376 . S
C2068 C2066 1.394 . S
C2068 C2069 1.369 . S
C2068 C2072 1.531 . S
C2069 C2068 1.369 . S
C2069 C2070 1.410 . S
C2069 C2077 1.503 . S
C2070 C2069 1.410 . S
C2070 C2071 1.392 . S
C2070 C2073 1.511 . S
C2071 C2067 1.376 . S
C2071 C2070 1.392 . S
C2071 H2083 0.929 . S
C2072 C2068 1.531 . S
C2072 H2084 0.960 . S
C2072 H2085 0.962 . S
C2072 H2086 0.960 . S
C2073 C2070 1.511 . S
C2073 H2087 0.961 . S
C2073 H2088 0.961 . S
C2073 H2089 0.961 . S
C2074 C2075 1.370 . S
C2074 C2076 1.363 . S
C2074 H2090 0.931 . S
C2075 C2074 1.370 . S
C2075 C2079 1.408 . S
C2076 C2074 1.363 . S
C2076 C2077 1.370 . S
C2076 C2080 1.524 . S
C2077 C2069 1.503 . S
C2077 C2076 1.370 . S
C2077 C2078 1.403 . S
C2078 C2077 1.403 . S
C2078 C2079 1.404 . S
C2078 C2081 1.539 . S
C2079 C2075 1.408 . S
C2079 C2078 1.404 . S
C2079 H2091 0.930 . S
C2080 C2076 1.524 . S
C2080 H2092 0.956 . S
C2080 H2093 0.961 . S
C2080 H2094 0.961 . S
C2081 C2078 1.539 . S
C2081 H2095 0.958 . S
C2081 H2096 0.961 . S
C2081 H2097 0.960 . S
H2082 C2066 0.931 . S
H2083 C2071 0.929 . S
H2084 C2072 0.960 . S
H2085 C2072 0.962 . S
H2086 C2072 0.960 . S
H2087 C2073 0.961 . S
H2088 C2073 0.961 . S
H2089 C2073 0.961 . S
H2090 C2074 0.931 . S
H2091 C2079 0.930 . S
H2092 C2080 0.956 . S
H2093 C2080 0.961 . S
H2094 C2080 0.961 . S
H2095 C2081 0.958 . S
H2096 C2081 0.961 . S
H2097 C2081 0.960 . S
C2098 C2099 1.391 . S
C2098 C2100 1.394 . S
C2098 H2114 0.931 . S
C2099 C2098 1.391 . S
C2099 C2103 1.376 . S
C2100 C2098 1.394 . S
C2100 C2101 1.369 . S
C2100 C2104 1.531 . S
C2101 C2100 1.369 . S
C2101 C2102 1.410 . S
C2101 C2109 1.503 . S
C2102 C2101 1.410 . S
C2102 C2103 1.392 . S
C2102 C2105 1.511 . S
C2103 C2099 1.376 . S
C2103 C2102 1.392 . S
C2103 H2115 0.929 . S
C2104 C2100 1.531 . S
C2104 H2116 0.960 . S
C2104 H2117 0.962 . S
C2104 H2118 0.960 . S
C2105 C2102 1.511 . S
C2105 H2119 0.961 . S
C2105 H2120 0.961 . S
C2105 H2121 0.961 . S
C2106 C2107 1.370 . S
C2106 C2108 1.363 . S
C2106 H2122 0.931 . S
C2107 C2106 1.370 . S
C2107 C2111 1.408 . S
C2108 C2106 1.363 . S
C2108 C2109 1.370 . S
C2108 C2112 1.524 . S
C2109 C2101 1.503 . S
C2109 C2108 1.370 . S
C2109 C2110 1.403 . S
C2110 C2109 1.403 . S
C2110 C2111 1.404 . S
C2110 C2113 1.539 . S
C2111 C2107 1.408 . S
C2111 C2110 1.404 . S
C2111 H2123 0.930 . S
C2112 C2108 1.524 . S
C2112 H2124 0.956 . S
C2112 H2125 0.961 . S
C2112 H2126 0.961 . S
C2113 C2110 1.539 . S
C2113 H2127 0.958 . S
C2113 H2128 0.961 . S
C2113 H2129 0.960 . S
H2114 C2098 0.931 . S
H2115 C2103 0.929 . S
H2116 C2104 0.960 . S
H2117 C2104 0.962 . S
H2118 C2104 0.960 . S
H2119 C2105 0.961 . S
H2120 C2105 0.961 . S
H2121 C2105 0.961 . S
H2122 C2106 0.931 . S
H2123 C2111 0.930 . S
H2124 C2112 0.956 . S
H2125 C2112 0.961 . S
H2126 C2112 0.961 . S
H2127 C2113 0.958 . S
H2128 C2113 0.961 . S
H2129 C2113 0.960 . S
C2130 C2131 1.401 . S
C2130 C2132 1.385 1_545 S
C2130 H2146 0.929 . S
C2131 C2130 1.401 . S
C2131 C2135 1.376 . S
C2132 C2130 1.385 1_565 S
C2132 C2133 1.369 . S
C2132 C2136 1.531 . S
C2133 C2132 1.369 . S
C2133 C2134 1.410 . S
C2133 C2141 1.503 . S
C2134 C2133 1.410 . S
C2134 C2135 1.392 1_565 S
C2134 C2137 1.511 . S
C2135 C2131 1.376 . S
C2135 C2134 1.392 1_545 S
C2135 H2147 0.929 . S
C2136 C2132 1.531 . S
C2136 H2148 0.960 . S
C2136 H2149 0.962 . S
C2136 H2150 0.960 . S
C2137 C2134 1.511 . S
C2137 H2151 0.961 . S
C2137 H2152 0.961 . S
C2137 H2153 0.961 . S
C2138 C2139 1.370 . S
C2138 C2140 1.363 . S
C2138 H2154 0.931 . S
C2139 C2138 1.370 . S
C2139 C2143 1.408 . S
C2140 C2138 1.363 . S
C2140 C2141 1.370 . S
C2140 C2144 1.524 . S
C2141 C2133 1.503 . S
C2141 C2140 1.370 . S
C2141 C2142 1.403 . S
C2142 C2141 1.403 . S
C2142 C2143 1.404 . S
C2142 C2145 1.539 . S
C2143 C2139 1.408 . S
C2143 C2142 1.404 . S
C2143 H2155 0.930 . S
C2144 C2140 1.524 . S
C2144 H2156 0.956 . S
C2144 H2157 0.961 . S
C2144 H2158 0.961 . S
C2145 C2142 1.539 . S
C2145 H2159 0.958 . S
C2145 H2160 0.961 . S
C2145 H2161 0.960 . S
H2146 C2130 0.929 . S
H2147 C2135 0.929 . S
H2148 C2136 0.960 . S
H2149 C2136 0.962 . S
H2150 C2136 0.960 . S
H2151 C2137 0.961 . S
H2152 C2137 0.961 . S
H2153 C2137 0.961 . S
H2154 C2138 0.931 . S
H2155 C2143 0.930 . S
H2156 C2144 0.956 . S
H2157 C2144 0.961 . S
H2158 C2144 0.961 . S
H2159 C2145 0.958 . S
H2160 C2145 0.961 . S
H2161 C2145 0.960 . S
C2162 C2163 1.391 . S
C2162 C2164 1.394 1_655 S
C2162 H2178 0.931 . S
C2163 C2162 1.391 . S
C2163 C2167 1.376 1_655 S
C2164 C2162 1.394 1_455 S
C2164 C2165 1.369 . S
C2164 C2168 1.531 . S
C2165 C2164 1.369 . S
C2165 C2166 1.410 . S
C2165 C2173 1.503 . S
C2166 C2165 1.410 . S
C2166 C2167 1.392 . S
C2166 C2169 1.511 . S
C2167 C2163 1.376 1_455 S
C2167 C2166 1.392 . S
C2167 H2179 0.929 . S
C2168 C2164 1.531 . S
C2168 H2180 0.960 . S
C2168 H2181 0.962 . S
C2168 H2182 0.960 . S
C2169 C2166 1.511 . S
C2169 H2183 0.961 . S
C2169 H2184 0.961 . S
C2169 H2185 0.961 . S
C2170 C2171 1.370 . S
C2170 C2172 1.363 . S
C2170 H2186 0.931 . S
C2171 C2170 1.370 . S
C2171 C2175 1.408 . S
C2172 C2170 1.363 . S
C2172 C2173 1.370 . S
C2172 C2176 1.524 . S
C2173 C2165 1.503 . S
C2173 C2172 1.370 . S
C2173 C2174 1.403 . S
C2174 C2173 1.403 . S
C2174 C2175 1.404 . S
C2174 C2177 1.539 . S
C2175 C2171 1.408 . S
C2175 C2174 1.404 . S
C2175 H2187 0.930 . S
C2176 C2172 1.524 . S
C2176 H2188 0.956 . S
C2176 H2189 0.961 . S
C2176 H2190 0.961 . S
C2177 C2174 1.539 . S
C2177 H2191 0.958 . S
C2177 H2192 0.961 . S
C2177 H2193 0.960 . S
H2178 C2162 0.931 . S
H2179 C2167 0.929 . S
H2180 C2168 0.960 . S
H2181 C2168 0.962 . S
H2182 C2168 0.960 . S
H2183 C2169 0.961 . S
H2184 C2169 0.961 . S
H2185 C2169 0.961 . S
H2186 C2170 0.931 . S
H2187 C2175 0.930 . S
H2188 C2176 0.956 . S
H2189 C2176 0.961 . S
H2190 C2176 0.961 . S
H2191 C2177 0.958 . S
H2192 C2177 0.961 . S
H2193 C2177 0.960 . S
C2194 C2195 1.391 . S
C2194 C2196 1.394 . S
C2194 H2210 0.931 . S
C2195 C2194 1.391 . S
C2195 C2199 1.376 . S
C2196 C2194 1.394 . S
C2196 C2197 1.369 . S
C2196 C2200 1.531 . S
C2197 C2196 1.369 . S
C2197 C2198 1.410 . S
C2197 C2205 1.503 . S
C2198 C2197 1.410 . S
C2198 C2199 1.392 . S
C2198 C2201 1.511 . S
C2199 C2195 1.376 . S
C2199 C2198 1.392 . S
C2199 H2211 0.929 . S
C2200 C2196 1.531 . S
C2200 H2212 0.960 . S
C2200 H2213 0.962 . S
C2200 H2214 0.960 . S
C2201 C2198 1.511 . S
C2201 H2215 0.961 . S
C2201 H2216 0.961 . S
C2201 H2217 0.961 . S
C2202 C2203 1.370 . S
C2202 C2204 1.363 . S
C2202 H2218 0.931 . S
C2203 C2202 1.370 . S
C2203 C2207 1.408 . S
C2204 C2202 1.363 . S
C2204 C2205 1.370 . S
C2204 C2208 1.524 . S
C2205 C2197 1.503 . S
C2205 C2204 1.370 . S
C2205 C2206 1.403 . S
C2206 C2205 1.403 . S
C2206 C2207 1.404 . S
C2206 C2209 1.539 . S
C2207 C2203 1.408 . S
C2207 C2206 1.404 . S
C2207 H2219 0.930 . S
C2208 C2204 1.524 . S
C2208 H2220 0.956 . S
C2208 H2221 0.961 . S
C2208 H2222 0.961 . S
C2209 C2206 1.539 . S
C2209 H2223 0.958 . S
C2209 H2224 0.961 . S
C2209 H2225 0.960 . S
H2210 C2194 0.931 . S
H2211 C2199 0.929 . S
H2212 C2200 0.960 . S
H2213 C2200 0.962 . S
H2214 C2200 0.960 . S
H2215 C2201 0.961 . S
H2216 C2201 0.961 . S
H2217 C2201 0.961 . S
H2218 C2202 0.931 . S
H2219 C2207 0.930 . S
H2220 C2208 0.956 . S
H2221 C2208 0.961 . S
H2222 C2208 0.961 . S
H2223 C2209 0.958 . S
H2224 C2209 0.961 . S
H2225 C2209 0.960 . S
C2226 C2227 1.391 . S
C2226 C2228 1.394 . S
C2226 H2242 0.931 . S
C2227 C2226 1.391 . S
C2227 C2231 1.376 . S
C2228 C2226 1.394 . S
C2228 C2229 1.369 . S
C2228 C2232 1.531 . S
C2229 C2228 1.369 . S
C2229 C2230 1.410 . S
C2229 C2237 1.503 . S
C2230 C2229 1.410 . S
C2230 C2231 1.392 . S
C2230 C2233 1.511 . S
C2231 C2227 1.376 . S
C2231 C2230 1.392 . S
C2231 H2243 0.929 . S
C2232 C2228 1.531 . S
C2232 H2244 0.960 . S
C2232 H2245 0.962 . S
C2232 H2246 0.960 . S
C2233 C2230 1.511 . S
C2233 H2247 0.961 . S
C2233 H2248 0.961 . S
C2233 H2249 0.961 . S
C2234 C2235 1.370 . S
C2234 C2236 1.363 . S
C2234 H2250 0.931 . S
C2235 C2234 1.370 . S
C2235 C2239 1.408 . S
C2236 C2234 1.363 . S
C2236 C2237 1.370 . S
C2236 C2240 1.524 . S
C2237 C2229 1.503 . S
C2237 C2236 1.370 . S
C2237 C2238 1.403 . S
C2238 C2237 1.403 . S
C2238 C2239 1.404 . S
C2238 C2241 1.539 . S
C2239 C2235 1.408 . S
C2239 C2238 1.404 . S
C2239 H2251 0.930 . S
C2240 C2236 1.524 . S
C2240 H2252 0.956 . S
C2240 H2253 0.961 . S
C2240 H2254 0.961 . S
C2241 C2238 1.539 . S
C2241 H2255 0.958 . S
C2241 H2256 0.961 . S
C2241 H2257 0.960 . S
H2242 C2226 0.931 . S
H2243 C2231 0.929 . S
H2244 C2232 0.960 . S
H2245 C2232 0.962 . S
H2246 C2232 0.960 . S
H2247 C2233 0.961 . S
H2248 C2233 0.961 . S
H2249 C2233 0.961 . S
H2250 C2234 0.931 . S
H2251 C2239 0.930 . S
H2252 C2240 0.956 . S
H2253 C2240 0.961 . S
H2254 C2240 0.961 . S
H2255 C2241 0.958 . S
H2256 C2241 0.961 . S
H2257 C2241 0.960 . S
C2258 C2259 1.391 . S
C2258 C2260 1.394 . S
C2258 H2274 0.931 . S
C2259 C2258 1.391 . S
C2259 C2263 1.376 . S
C2260 C2258 1.394 . S
C2260 C2261 1.369 . S
C2260 C2264 1.531 . S
C2261 C2260 1.369 . S
C2261 C2262 1.410 . S
C2261 C2269 1.503 . S
C2262 C2261 1.410 . S
C2262 C2263 1.392 . S
C2262 C2265 1.511 . S
C2263 C2259 1.376 . S
C2263 C2262 1.392 . S
C2263 H2275 0.929 . S
C2264 C2260 1.531 . S
C2264 H2276 0.960 . S
C2264 H2277 0.962 . S
C2264 H2278 0.960 . S
C2265 C2262 1.511 . S
C2265 H2279 0.961 . S
C2265 H2280 0.961 . S
C2265 H2281 0.961 . S
C2266 C2267 1.370 . S
C2266 C2268 1.363 . S
C2266 H2282 0.931 . S
C2267 C2266 1.370 . S
C2267 C2271 1.408 . S
C2268 C2266 1.363 . S
C2268 C2269 1.370 . S
C2268 C2272 1.524 . S
C2269 C2261 1.503 . S
C2269 C2268 1.370 . S
C2269 C2270 1.403 . S
C2270 C2269 1.403 . S
C2270 C2271 1.404 . S
C2270 C2273 1.539 . S
C2271 C2267 1.408 . S
C2271 C2270 1.404 . S
C2271 H2283 0.930 . S
C2272 C2268 1.524 . S
C2272 H2284 0.956 . S
C2272 H2285 0.961 . S
C2272 H2286 0.961 . S
C2273 C2270 1.539 . S
C2273 H2287 0.958 . S
C2273 H2288 0.961 . S
C2273 H2289 0.960 . S
H2274 C2258 0.931 . S
H2275 C2263 0.929 . S
H2276 C2264 0.960 . S
H2277 C2264 0.962 . S
H2278 C2264 0.960 . S
H2279 C2265 0.961 . S
H2280 C2265 0.961 . S
H2281 C2265 0.961 . S
H2282 C2266 0.931 . S
H2283 C2271 0.930 . S
H2284 C2272 0.956 . S
H2285 C2272 0.961 . S
H2286 C2272 0.961 . S
H2287 C2273 0.958 . S
H2288 C2273 0.961 . S
H2289 C2273 0.960 . S
C2290 C2291 1.391 . S
C2290 C2292 1.394 . S
C2290 H2306 0.931 . S
C2291 C2290 1.391 . S
C2291 C2295 1.376 . S
C2292 C2290 1.394 . S
C2292 C2293 1.369 . S
C2292 C2296 1.531 . S
C2293 C2292 1.369 . S
C2293 C2294 1.410 . S
C2293 C2301 1.503 . S
C2294 C2293 1.410 . S
C2294 C2295 1.392 . S
C2294 C2297 1.511 . S
C2295 C2291 1.376 . S
C2295 C2294 1.392 . S
C2295 H2307 0.929 . S
C2296 C2292 1.531 . S
C2296 H2308 0.960 . S
C2296 H2309 0.962 . S
C2296 H2310 0.960 . S
C2297 C2294 1.511 . S
C2297 H2311 0.961 . S
C2297 H2312 0.961 . S
C2297 H2313 0.961 . S
C2298 C2299 1.370 . S
C2298 C2300 1.363 . S
C2298 H2314 0.931 . S
C2299 C2298 1.370 . S
C2299 C2303 1.408 . S
C2300 C2298 1.363 . S
C2300 C2301 1.370 . S
C2300 C2304 1.524 . S
C2301 C2293 1.503 . S
C2301 C2300 1.370 . S
C2301 C2302 1.403 . S
C2302 C2301 1.403 . S
C2302 C2303 1.404 . S
C2302 C2305 1.539 . S
C2303 C2299 1.408 . S
C2303 C2302 1.404 . S
C2303 H2315 0.930 . S
C2304 C2300 1.524 . S
C2304 H2316 0.956 . S
C2304 H2317 0.961 . S
C2304 H2318 0.961 . S
C2305 C2302 1.539 . S
C2305 H2319 0.958 . S
C2305 H2320 0.961 . S
C2305 H2321 0.960 . S
H2306 C2290 0.931 . S
H2307 C2295 0.929 . S
H2308 C2296 0.960 . S
H2309 C2296 0.962 . S
H2310 C2296 0.960 . S
H2311 C2297 0.961 . S
H2312 C2297 0.961 . S
H2313 C2297 0.961 . S
H2314 C2298 0.931 . S
H2315 C2303 0.930 . S
H2316 C2304 0.956 . S
H2317 C2304 0.961 . S
H2318 C2304 0.961 . S
H2319 C2305 0.958 . S
H2320 C2305 0.961 . S
H2321 C2305 0.960 . S
C2322 C2323 1.391 . S
C2322 C2324 1.397 1_565 S
C2322 H2338 0.927 . S
C2323 C2322 1.391 . S
C2323 C2327 1.415 . S
C2324 C2322 1.397 1_545 S
C2324 C2325 1.369 . S
C2324 C2328 1.531 . S
C2325 C2324 1.369 . S
C2325 C2326 1.410 . S
C2325 C2333 1.503 . S
C2326 C2325 1.410 . S
C2326 C2327 1.353 1_545 S
C2326 C2329 1.511 . S
C2327 C2323 1.415 . S
C2327 C2326 1.353 1_565 S
C2327 H2339 0.932 . S
C2328 C2324 1.531 . S
C2328 H2340 0.960 . S
C2328 H2341 0.962 . S
C2328 H2342 0.960 . S
C2329 C2326 1.511 . S
C2329 H2343 0.961 . S
C2329 H2344 0.961 . S
C2329 H2345 0.961 . S
C2330 C2331 1.370 . S
C2330 C2332 1.363 . S
C2330 H2346 0.931 . S
C2331 C2330 1.370 . S
C2331 C2335 1.408 . S
C2332 C2330 1.363 . S
C2332 C2333 1.370 . S
C2332 C2336 1.524 . S
C2333 C2325 1.503 . S
C2333 C2332 1.370 . S
C2333 C2334 1.403 . S
C2334 C2333 1.403 . S
C2334 C2335 1.404 . S
C2334 C2337 1.539 . S
C2335 C2331 1.408 . S
C2335 C2334 1.404 . S
C2335 H2347 0.930 . S
C2336 C2332 1.524 . S
C2336 H2348 0.956 . S
C2336 H2349 0.961 . S
C2336 H2350 0.961 . S
C2337 C2334 1.539 . S
C2337 H2351 0.958 . S
C2337 H2352 0.961 . S
C2337 H2353 0.960 . S
H2338 C2322 0.927 . S
H2339 C2327 0.932 . S
H2340 C2328 0.960 . S
H2341 C2328 0.962 . S
H2342 C2328 0.960 . S
H2343 C2329 0.961 . S
H2344 C2329 0.961 . S
H2345 C2329 0.961 . S
H2346 C2330 0.931 . S
H2347 C2335 0.930 . S
H2348 C2336 0.956 . S
H2349 C2336 0.961 . S
H2350 C2336 0.961 . S
H2351 C2337 0.958 . S
H2352 C2337 0.961 . S
H2353 C2337 0.960 . S
C2354 C2355 1.391 1_655 S
C2354 C2356 1.394 . S
C2354 H2370 0.931 1_655 S
C2355 C2354 1.391 1_455 S
C2355 C2359 1.376 1_455 S
C2356 C2354 1.394 . S
C2356 C2357 1.369 . S
C2356 C2360 1.531 . S
C2357 C2356 1.369 . S
C2357 C2358 1.410 . S
C2357 C2365 1.503 . S
C2358 C2357 1.410 . S
C2358 C2359 1.392 . S
C2358 C2361 1.511 . S
C2359 C2355 1.376 1_655 S
C2359 C2358 1.392 . S
C2359 H2371 0.929 1_655 S
C2360 C2356 1.531 . S
C2360 H2372 0.960 . S
C2360 H2373 0.962 . S
C2360 H2374 0.960 . S
C2361 C2358 1.511 . S
C2361 H2375 0.961 . S
C2361 H2376 0.961 . S
C2361 H2377 0.961 . S
C2362 C2363 1.370 . S
C2362 C2364 1.363 . S
C2362 H2378 0.931 . S
C2363 C2362 1.370 . S
C2363 C2367 1.408 . S
C2364 C2362 1.363 . S
C2364 C2365 1.370 . S
C2364 C2368 1.524 . S
C2365 C2357 1.503 . S
C2365 C2364 1.370 . S
C2365 C2366 1.403 . S
C2366 C2365 1.403 . S
C2366 C2367 1.404 . S
C2366 C2369 1.539 . S
C2367 C2363 1.408 . S
C2367 C2366 1.404 . S
C2367 H2379 0.930 . S
C2368 C2364 1.524 . S
C2368 H2380 0.956 . S
C2368 H2381 0.961 . S
C2368 H2382 0.961 . S
C2369 C2366 1.539 . S
C2369 H2383 0.958 . S
C2369 H2384 0.961 . S
C2369 H2385 0.960 . S
H2370 C2354 0.931 1_455 S
H2371 C2359 0.929 1_455 S
H2372 C2360 0.960 . S
H2373 C2360 0.962 . S
H2374 C2360 0.960 . S
H2375 C2361 0.961 . S
H2376 C2361 0.961 . S
H2377 C2361 0.961 . S
H2378 C2362 0.931 . S
H2379 C2367 0.930 . S
H2380 C2368 0.956 . S
H2381 C2368 0.961 . S
H2382 C2368 0.961 . S
H2383 C2369 0.958 . S
H2384 C2369 0.961 . S
H2385 C2369 0.960 . S
C2386 C2387 1.391 . S
C2386 C2388 1.394 . S
C2386 H2402 0.931 . S
C2387 C2386 1.391 . S
C2387 C2391 1.376 . S
C2388 C2386 1.394 . S
C2388 C2389 1.369 . S
C2388 C2392 1.531 . S
C2389 C2388 1.369 . S
C2389 C2390 1.410 . S
C2389 C2397 1.503 . S
C2390 C2389 1.410 . S
C2390 C2391 1.392 . S
C2390 C2393 1.511 . S
C2391 C2387 1.376 . S
C2391 C2390 1.392 . S
C2391 H2403 0.929 . S
C2392 C2388 1.531 . S
C2392 H2404 0.960 . S
C2392 H2405 0.962 . S
C2392 H2406 0.960 . S
C2393 C2390 1.511 . S
C2393 H2407 0.961 . S
C2393 H2408 0.961 . S
C2393 H2409 0.961 . S
C2394 C2395 1.370 . S
C2394 C2396 1.363 . S
C2394 H2410 0.931 . S
C2395 C2394 1.370 . S
C2395 C2399 1.408 . S
C2396 C2394 1.363 . S
C2396 C2397 1.370 . S
C2396 C2400 1.524 . S
C2397 C2389 1.503 . S
C2397 C2396 1.370 . S
C2397 C2398 1.403 . S
C2398 C2397 1.403 . S
C2398 C2399 1.404 . S
C2398 C2401 1.539 . S
C2399 C2395 1.408 . S
C2399 C2398 1.404 . S
C2399 H2411 0.930 . S
C2400 C2396 1.524 . S
C2400 H2412 0.956 . S
C2400 H2413 0.961 . S
C2400 H2414 0.961 . S
C2401 C2398 1.539 . S
C2401 H2415 0.958 . S
C2401 H2416 0.961 . S
C2401 H2417 0.960 . S
H2402 C2386 0.931 . S
H2403 C2391 0.929 . S
H2404 C2392 0.960 . S
H2405 C2392 0.962 . S
H2406 C2392 0.960 . S
H2407 C2393 0.961 . S
H2408 C2393 0.961 . S
H2409 C2393 0.961 . S
H2410 C2394 0.931 . S
H2411 C2399 0.930 . S
H2412 C2400 0.956 . S
H2413 C2400 0.961 . S
H2414 C2400 0.961 . S
H2415 C2401 0.958 . S
H2416 C2401 0.961 . S
H2417 C2401 0.960 . S
C2418 C2419 1.391 1_655 S
C2418 C2420 1.394 . S
C2418 H2434 0.931 . S
C2419 C2418 1.391 1_455 S
C2419 C2423 1.376 . S
C2420 C2418 1.394 . S
C2420 C2421 1.369 . S
C2420 C2424 1.531 . S
C2421 C2420 1.369 . S
C2421 C2422 1.410 . S
C2421 C2429 1.503 . S
C2422 C2421 1.410 . S
C2422 C2423 1.392 1_655 S
C2422 C2425 1.511 . S
C2423 C2419 1.376 . S
C2423 C2422 1.392 1_455 S
C2423 H2435 0.929 . S
C2424 C2420 1.531 . S
C2424 H2436 0.960 . S
C2424 H2437 0.962 . S
C2424 H2438 0.960 . S
C2425 C2422 1.511 . S
C2425 H2439 0.961 . S
C2425 H2440 0.961 . S
C2425 H2441 0.961 . S
C2426 C2427 1.370 . S
C2426 C2428 1.363 . S
C2426 H2442 0.931 . S
C2427 C2426 1.370 . S
C2427 C2431 1.408 . S
C2428 C2426 1.363 . S
C2428 C2429 1.370 . S
C2428 C2432 1.524 . S
C2429 C2421 1.503 . S
C2429 C2428 1.370 . S
C2429 C2430 1.403 . S
C2430 C2429 1.403 . S
C2430 C2431 1.404 . S
C2430 C2433 1.539 . S
C2431 C2427 1.408 . S
C2431 C2430 1.404 . S
C2431 H2443 0.930 . S
C2432 C2428 1.524 . S
C2432 H2444 0.956 . S
C2432 H2445 0.961 . S
C2432 H2446 0.961 . S
C2433 C2430 1.539 . S
C2433 H2447 0.958 . S
C2433 H2448 0.961 . S
C2433 H2449 0.960 . S
H2434 C2418 0.931 . S
H2435 C2423 0.929 . S
H2436 C2424 0.960 . S
H2437 C2424 0.962 . S
H2438 C2424 0.960 . S
H2439 C2425 0.961 . S
H2440 C2425 0.961 . S
H2441 C2425 0.961 . S
H2442 C2426 0.931 . S
H2443 C2431 0.930 . S
H2444 C2432 0.956 . S
H2445 C2432 0.961 . S
H2446 C2432 0.961 . S
H2447 C2433 0.958 . S
H2448 C2433 0.961 . S
H2449 C2433 0.960 . S
C2450 C2451 1.391 . S
C2450 C2452 1.394 . S
C2450 H2466 0.931 . S
C2451 C2450 1.391 . S
C2451 C2455 1.376 . S
C2452 C2450 1.394 . S
C2452 C2453 1.369 . S
C2452 C2456 1.531 . S
C2453 C2452 1.369 . S
C2453 C2454 1.410 . S
C2453 C2461 1.503 . S
C2454 C2453 1.410 . S
C2454 C2455 1.392 . S
C2454 C2457 1.511 . S
C2455 C2451 1.376 . S
C2455 C2454 1.392 . S
C2455 H2467 0.929 . S
C2456 C2452 1.531 . S
C2456 H2468 0.960 . S
C2456 H2469 0.962 . S
C2456 H2470 0.960 . S
C2457 C2454 1.511 . S
C2457 H2471 0.961 . S
C2457 H2472 0.961 . S
C2457 H2473 0.961 . S
C2458 C2459 1.370 . S
C2458 C2460 1.363 . S
C2458 H2474 0.931 . S
C2459 C2458 1.370 . S
C2459 C2463 1.408 . S
C2460 C2458 1.363 . S
C2460 C2461 1.370 . S
C2460 C2464 1.524 . S
C2461 C2453 1.503 . S
C2461 C2460 1.370 . S
C2461 C2462 1.403 . S
C2462 C2461 1.403 . S
C2462 C2463 1.404 . S
C2462 C2465 1.539 . S
C2463 C2459 1.408 . S
C2463 C2462 1.404 . S
C2463 H2475 0.930 . S
C2464 C2460 1.524 . S
C2464 H2476 0.956 . S
C2464 H2477 0.961 . S
C2464 H2478 0.961 . S
C2465 C2462 1.539 . S
C2465 H2479 0.958 . S
C2465 H2480 0.961 . S
C2465 H2481 0.960 . S
H2466 C2450 0.931 . S
H2467 C2455 0.929 . S
H2468 C2456 0.960 . S
H2469 C2456 0.962 . S
H2470 C2456 0.960 . S
H2471 C2457 0.961 . S
H2472 C2457 0.961 . S
H2473 C2457 0.961 . S
H2474 C2458 0.931 . S
H2475 C2463 0.930 . S
H2476 C2464 0.956 . S
H2477 C2464 0.961 . S
H2478 C2464 0.961 . S
H2479 C2465 0.958 . S
H2480 C2465 0.961 . S
H2481 C2465 0.960 . S
C2482 C2483 1.389 1_545 S
C2482 C2484 1.405 . S
C2482 H2498 0.921 1_545 S
C2483 C2482 1.389 1_565 S
C2483 C2487 1.376 . S
C2484 C2482 1.405 . S
C2484 C2485 1.369 . S
C2484 C2488 1.531 . S
C2485 C2484 1.369 . S
C2485 C2486 1.410 . S
C2485 C2493 1.503 . S
C2486 C2485 1.410 . S
C2486 C2487 1.392 1_545 S
C2486 C2489 1.511 . S
C2487 C2483 1.376 . S
C2487 C2486 1.392 1_565 S
C2487 H2499 0.929 . S
C2488 C2484 1.531 . S
C2488 H2500 0.960 . S
C2488 H2501 0.962 . S
C2488 H2502 0.960 . S
C2489 C2486 1.511 . S
C2489 H2503 0.961 . S
C2489 H2504 0.961 . S
C2489 H2505 0.961 . S
C2490 C2491 1.370 . S
C2490 C2492 1.363 . S
C2490 H2506 0.931 . S
C2491 C2490 1.370 . S
C2491 C2495 1.408 . S
C2492 C2490 1.363 . S
C2492 C2493 1.370 . S
C2492 C2496 1.524 . S
C2493 C2485 1.503 . S
C2493 C2492 1.370 . S
C2493 C2494 1.403 . S
C2494 C2493 1.403 . S
C2494 C2495 1.404 . S
C2494 C2497 1.539 . S
C2495 C2491 1.408 . S
C2495 C2494 1.404 . S
C2495 H2507 0.930 . S
C2496 C2492 1.524 . S
C2496 H2508 0.956 . S
C2496 H2509 0.961 . S
C2496 H2510 0.961 . S
C2497 C2494 1.539 . S
C2497 H2511 0.958 . S
C2497 H2512 0.961 . S
C2497 H2513 0.960 . S
H2498 C2482 0.921 1_565 S
H2499 C2487 0.929 . S
H2500 C2488 0.960 . S
H2501 C2488 0.962 . S
H2502 C2488 0.960 . S
H2503 C2489 0.961 . S
H2504 C2489 0.961 . S
H2505 C2489 0.961 . S
H2506 C2490 0.931 . S
H2507 C2495 0.930 . S
H2508 C2496 0.956 . S
H2509 C2496 0.961 . S
H2510 C2496 0.961 . S
H2511 C2497 0.958 . S
H2512 C2497 0.961 . S
H2513 C2497 0.960 . S
C2514 C2515 1.391 . S
C2514 C2516 1.394 . S
C2514 H2530 0.931 . S
C2515 C2514 1.391 . S
C2515 C2519 1.376 . S
C2516 C2514 1.394 . S
C2516 C2517 1.369 . S
C2516 C2520 1.531 . S
C2517 C2516 1.369 . S
C2517 C2518 1.410 . S
C2517 C2525 1.503 . S
C2518 C2517 1.410 . S
C2518 C2519 1.392 . S
C2518 C2521 1.511 . S
C2519 C2515 1.376 . S
C2519 C2518 1.392 . S
C2519 H2531 0.929 . S
C2520 C2516 1.531 . S
C2520 H2532 0.960 . S
C2520 H2533 0.962 . S
C2520 H2534 0.960 . S
C2521 C2518 1.511 . S
C2521 H2535 0.961 . S
C2521 H2536 0.961 . S
C2521 H2537 0.961 . S
C2522 C2523 1.370 . S
C2522 C2524 1.363 . S
C2522 H2538 0.931 . S
C2523 C2522 1.370 . S
C2523 C2527 1.408 . S
C2524 C2522 1.363 . S
C2524 C2525 1.370 . S
C2524 C2528 1.524 . S
C2525 C2517 1.503 . S
C2525 C2524 1.370 . S
C2525 C2526 1.403 . S
C2526 C2525 1.403 . S
C2526 C2527 1.404 . S
C2526 C2529 1.539 . S
C2527 C2523 1.408 . S
C2527 C2526 1.404 . S
C2527 H2539 0.930 . S
C2528 C2524 1.524 . S
C2528 H2540 0.956 . S
C2528 H2541 0.961 . S
C2528 H2542 0.961 . S
C2529 C2526 1.539 . S
C2529 H2543 0.958 . S
C2529 H2544 0.961 . S
C2529 H2545 0.960 . S
H2530 C2514 0.931 . S
H2531 C2519 0.929 . S
H2532 C2520 0.960 . S
H2533 C2520 0.962 . S
H2534 C2520 0.960 . S
H2535 C2521 0.961 . S
H2536 C2521 0.961 . S
H2537 C2521 0.961 . S
H2538 C2522 0.931 . S
H2539 C2527 0.930 . S
H2540 C2528 0.956 . S
H2541 C2528 0.961 . S
H2542 C2528 0.961 . S
H2543 C2529 0.958 . S
H2544 C2529 0.961 . S
H2545 C2529 0.960 . S
C2546 C2547 1.391 . S
C2546 C2548 1.394 . S
C2546 H2562 0.931 . S
C2547 C2546 1.391 . S
C2547 C2551 1.376 . S
C2548 C2546 1.394 . S
C2548 C2549 1.369 . S
C2548 C2552 1.531 . S
C2549 C2548 1.369 . S
C2549 C2550 1.410 . S
C2549 C2557 1.503 . S
C2550 C2549 1.410 . S
C2550 C2551 1.392 . S
C2550 C2553 1.511 . S
C2551 C2547 1.376 . S
C2551 C2550 1.392 . S
C2551 H2563 0.929 . S
C2552 C2548 1.531 . S
C2552 H2564 0.960 . S
C2552 H2565 0.962 . S
C2552 H2566 0.960 . S
C2553 C2550 1.511 . S
C2553 H2567 0.961 . S
C2553 H2568 0.961 . S
C2553 H2569 0.961 . S
C2554 C2555 1.370 . S
C2554 C2556 1.363 . S
C2554 H2570 0.931 . S
C2555 C2554 1.370 . S
C2555 C2559 1.408 . S
C2556 C2554 1.363 . S
C2556 C2557 1.370 . S
C2556 C2560 1.524 . S
C2557 C2549 1.503 . S
C2557 C2556 1.370 . S
C2557 C2558 1.403 . S
C2558 C2557 1.403 . S
C2558 C2559 1.404 . S
C2558 C2561 1.539 . S
C2559 C2555 1.408 . S
C2559 C2558 1.404 . S
C2559 H2571 0.930 . S
C2560 C2556 1.524 . S
C2560 H2572 0.956 . S
C2560 H2573 0.961 . S
C2560 H2574 0.961 . S
C2561 C2558 1.539 . S
C2561 H2575 0.958 . S
C2561 H2576 0.961 . S
C2561 H2577 0.960 . S
H2562 C2546 0.931 . S
H2563 C2551 0.929 . S
H2564 C2552 0.960 . S
H2565 C2552 0.962 . S
H2566 C2552 0.960 . S
H2567 C2553 0.961 . S
H2568 C2553 0.961 . S
H2569 C2553 0.961 . S
H2570 C2554 0.931 . S
H2571 C2559 0.930 . S
H2572 C2560 0.956 . S
H2573 C2560 0.961 . S
H2574 C2560 0.961 . S
H2575 C2561 0.958 . S
H2576 C2561 0.961 . S
H2577 C2561 0.960 . S
C2578 C2579 1.391 . S
C2578 C2580 1.394 . S
C2578 H2594 0.931 . S
C2579 C2578 1.391 . S
C2579 C2583 1.376 . S
C2580 C2578 1.394 . S
C2580 C2581 1.369 . S
C2580 C2584 1.531 . S
C2581 C2580 1.369 . S
C2581 C2582 1.410 . S
C2581 C2589 1.503 . S
C2582 C2581 1.410 . S
C2582 C2583 1.392 . S
C2582 C2585 1.511 . S
C2583 C2579 1.376 . S
C2583 C2582 1.392 . S
C2583 H2595 0.929 . S
C2584 C2580 1.531 . S
C2584 H2596 0.960 . S
C2584 H2597 0.962 . S
C2584 H2598 0.960 . S
C2585 C2582 1.511 . S
C2585 H2599 0.961 . S
C2585 H2600 0.961 . S
C2585 H2601 0.961 . S
C2586 C2587 1.370 . S
C2586 C2588 1.363 . S
C2586 H2602 0.931 . S
C2587 C2586 1.370 . S
C2587 C2591 1.408 . S
C2588 C2586 1.363 . S
C2588 C2589 1.370 . S
C2588 C2592 1.524 . S
C2589 C2581 1.503 . S
C2589 C2588 1.370 . S
C2589 C2590 1.403 . S
C2590 C2589 1.403 . S
C2590 C2591 1.404 . S
C2590 C2593 1.539 . S
C2591 C2587 1.408 . S
C2591 C2590 1.404 . S
C2591 H2603 0.930 . S
C2592 C2588 1.524 . S
C2592 H2604 0.956 . S
C2592 H2605 0.961 . S
C2592 H2606 0.961 . S
C2593 C2590 1.539 . S
C2593 H2607 0.958 . S
C2593 H2608 0.961 . S
C2593 H2609 0.960 . S
H2594 C2578 0.931 . S
H2595 C2583 0.929 . S
H2596 C2584 0.960 . S
H2597 C2584 0.962 . S
H2598 C2584 0.960 . S
H2599 C2585 0.961 . S
H2600 C2585 0.961 . S
H2601 C2585 0.961 . S
H2602 C2586 0.931 . S
H2603 C2591 0.930 . S
H2604 C2592 0.956 . S
H2605 C2592 0.961 . S
H2606 C2592 0.961 . S
H2607 C2593 0.958 . S
H2608 C2593 0.961 . S
H2609 C2593 0.960 . S
C2610 C2611 1.391 . S
C2610 C2612 1.394 . S
C2610 H2626 0.931 . S
C2611 C2610 1.391 . S
C2611 C2615 1.376 . S
C2612 C2610 1.394 . S
C2612 C2613 1.369 . S
C2612 C2616 1.531 . S
C2613 C2612 1.369 . S
C2613 C2614 1.410 . S
C2613 C2621 1.503 . S
C2614 C2613 1.410 . S
C2614 C2615 1.392 . S
C2614 C2617 1.511 . S
C2615 C2611 1.376 . S
C2615 C2614 1.392 . S
C2615 H2627 0.929 . S
C2616 C2612 1.531 . S
C2616 H2628 0.960 . S
C2616 H2629 0.962 . S
C2616 H2630 0.960 . S
C2617 C2614 1.511 . S
C2617 H2631 0.961 . S
C2617 H2632 0.961 . S
C2617 H2633 0.961 . S
C2618 C2619 1.370 . S
C2618 C2620 1.363 . S
C2618 H2634 0.935 . S
C2619 C2618 1.370 . S
C2619 C2623 1.408 . S
C2620 C2618 1.363 . S
C2620 C2621 1.370 . S
C2620 C2624 1.524 . S
C2621 C2613 1.503 . S
C2621 C2620 1.370 . S
C2621 C2622 1.403 . S
C2622 C2621 1.403 . S
C2622 C2623 1.404 . S
C2622 C2625 1.539 . S
C2623 C2619 1.408 . S
C2623 C2622 1.404 . S
C2623 H2635 0.930 . S
C2624 C2620 1.524 . S
C2624 H2636 0.956 . S
C2624 H2637 0.961 . S
C2624 H2638 0.961 1_565 S
C2625 C2622 1.539 . S
C2625 H2639 0.958 . S
C2625 H2640 0.961 . S
C2625 H2641 0.960 . S
H2626 C2610 0.931 . S
H2627 C2615 0.929 . S
H2628 C2616 0.960 . S
H2629 C2616 0.962 . S
H2630 C2616 0.960 . S
H2631 C2617 0.961 . S
H2632 C2617 0.961 . S
H2633 C2617 0.961 . S
H2634 C2618 0.935 . S
H2635 C2623 0.930 . S
H2636 C2624 0.956 . S
H2637 C2624 0.961 . S
H2638 C2624 0.961 1_545 S
H2639 C2625 0.958 . S
H2640 C2625 0.961 . S
H2641 C2625 0.960 . S
C2642 C2643 1.391 . S
C2642 C2644 1.394 . S
C2642 H2658 0.931 . S
C2643 C2642 1.391 . S
C2643 C2647 1.376 . S
C2644 C2642 1.394 . S
C2644 C2645 1.369 . S
C2644 C2648 1.531 1_455 S
C2645 C2644 1.369 . S
C2645 C2646 1.410 . S
C2645 C2653 1.503 . S
C2646 C2645 1.410 . S
C2646 C2647 1.392 . S
C2646 C2649 1.511 . S
C2647 C2643 1.376 . S
C2647 C2646 1.392 . S
C2647 H2659 0.929 . S
C2648 C2644 1.531 1_655 S
C2648 H2660 0.960 . S
C2648 H2661 0.962 . S
C2648 H2662 0.960 . S
C2649 C2646 1.511 . S
C2649 H2663 0.961 . S
C2649 H2664 0.961 . S
C2649 H2665 0.961 . S
C2650 C2651 1.370 . S
C2650 C2652 1.363 . S
C2650 H2666 0.931 . S
C2651 C2650 1.370 . S
C2651 C2655 1.408 . S
C2652 C2650 1.363 . S
C2652 C2653 1.370 . S
C2652 C2656 1.524 . S
C2653 C2645 1.503 . S
C2653 C2652 1.370 . S
C2653 C2654 1.403 . S
C2654 C2653 1.403 . S
C2654 C2655 1.404 . S
C2654 C2657 1.539 . S
C2655 C2651 1.408 . S
C2655 C2654 1.404 . S
C2655 H2667 0.930 . S
C2656 C2652 1.524 . S
C2656 H2668 0.956 . S
C2656 H2669 0.961 . S
C2656 H2670 0.961 . S
C2657 C2654 1.539 . S
C2657 H2671 0.958 . S
C2657 H2672 0.961 . S
C2657 H2673 0.960 . S
H2658 C2642 0.931 . S
H2659 C2647 0.929 . S
H2660 C2648 0.960 . S
H2661 C2648 0.962 . S
H2662 C2648 0.960 . S
H2663 C2649 0.961 . S
H2664 C2649 0.961 . S
H2665 C2649 0.961 . S
H2666 C2650 0.931 . S
H2667 C2655 0.930 . S
H2668 C2656 0.956 . S
H2669 C2656 0.961 . S
H2670 C2656 0.961 . S
H2671 C2657 0.958 . S
H2672 C2657 0.961 . S
H2673 C2657 0.960 . S
C2674 C2675 1.391 . S
C2674 C2676 1.394 . S
C2674 H2690 0.931 . S
C2675 C2674 1.391 . S
C2675 C2679 1.376 . S
C2676 C2674 1.394 . S
C2676 C2677 1.369 . S
C2676 C2680 1.531 . S
C2677 C2676 1.369 . S
C2677 C2678 1.410 . S
C2677 C2685 1.503 . S
C2678 C2677 1.410 . S
C2678 C2679 1.392 . S
C2678 C2681 1.511 . S
C2679 C2675 1.376 . S
C2679 C2678 1.392 . S
C2679 H2691 0.929 . S
C2680 C2676 1.531 . S
C2680 H2692 0.960 . S
C2680 H2693 0.962 . S
C2680 H2694 0.960 . S
C2681 C2678 1.511 . S
C2681 H2695 0.961 . S
C2681 H2696 0.961 . S
C2681 H2697 0.961 . S
C2682 C2683 1.370 . S
C2682 C2684 1.363 . S
C2682 H2698 0.931 . S
C2683 C2682 1.370 . S
C2683 C2687 1.408 . S
C2684 C2682 1.363 . S
C2684 C2685 1.370 . S
C2684 C2688 1.524 . S
C2685 C2677 1.503 . S
C2685 C2684 1.370 . S
C2685 C2686 1.403 . S
C2686 C2685 1.403 . S
C2686 C2687 1.404 . S
C2686 C2689 1.539 . S
C2687 C2683 1.408 . S
C2687 C2686 1.404 . S
C2687 H2699 0.930 . S
C2688 C2684 1.524 . S
C2688 H2700 0.956 . S
C2688 H2701 0.961 . S
C2688 H2702 0.961 . S
C2689 C2686 1.539 . S
C2689 H2703 0.958 . S
C2689 H2704 0.961 . S
C2689 H2705 0.960 . S
H2690 C2674 0.931 . S
H2691 C2679 0.929 . S
H2692 C2680 0.960 . S
H2693 C2680 0.962 . S
H2694 C2680 0.960 . S
H2695 C2681 0.961 . S
H2696 C2681 0.961 . S
H2697 C2681 0.961 . S
H2698 C2682 0.931 . S
H2699 C2687 0.930 . S
H2700 C2688 0.956 . S
H2701 C2688 0.961 . S
H2702 C2688 0.961 . S
H2703 C2689 0.958 . S
H2704 C2689 0.961 . S
H2705 C2689 0.960 . S
C2706 C2707 1.391 . S
C2706 C2708 1.394 . S
C2706 H2722 0.931 . S
C2707 C2706 1.391 . S
C2707 C2711 1.376 . S
C2708 C2706 1.394 . S
C2708 C2709 1.369 . S
C2708 C2712 1.531 . S
C2709 C2708 1.369 . S
C2709 C2710 1.410 . S
C2709 C2717 1.503 . S
C2710 C2709 1.410 . S
C2710 C2711 1.392 . S
C2710 C2713 1.511 . S
C2711 C2707 1.376 . S
C2711 C2710 1.392 . S
C2711 H2723 0.929 . S
C2712 C2708 1.531 . S
C2712 H2724 0.960 . S
C2712 H2725 0.962 1_655 S
C2712 H2726 0.960 . S
C2713 C2710 1.511 . S
C2713 H2727 0.961 . S
C2713 H2728 0.961 . S
C2713 H2729 0.961 . S
C2714 C2715 1.370 . S
C2714 C2716 1.363 . S
C2714 H2730 0.931 . S
C2715 C2714 1.370 . S
C2715 C2719 1.408 . S
C2716 C2714 1.363 . S
C2716 C2717 1.370 . S
C2716 C2720 1.524 . S
C2717 C2709 1.503 . S
C2717 C2716 1.370 . S
C2717 C2718 1.403 . S
C2718 C2717 1.403 . S
C2718 C2719 1.404 . S
C2718 C2721 1.539 . S
C2719 C2715 1.408 . S
C2719 C2718 1.404 . S
C2719 H2731 0.930 . S
C2720 C2716 1.524 . S
C2720 H2732 0.956 1_655 S
C2720 H2733 0.961 . S
C2720 H2734 0.961 1_655 S
C2721 C2718 1.539 . S
C2721 H2735 0.958 . S
C2721 H2736 0.961 . S
C2721 H2737 0.960 . S
H2722 C2706 0.931 . S
H2723 C2711 0.929 . S
H2724 C2712 0.960 . S
H2725 C2712 0.962 1_455 S
H2726 C2712 0.960 . S
H2727 C2713 0.961 . S
H2728 C2713 0.961 . S
H2729 C2713 0.961 . S
H2730 C2714 0.931 . S
H2731 C2719 0.930 . S
H2732 C2720 0.956 1_455 S
H2733 C2720 0.961 . S
H2734 C2720 0.961 1_455 S
H2735 C2721 0.958 . S
H2736 C2721 0.961 . S
H2737 C2721 0.960 . S
C2738 C2739 1.391 . S
C2738 C2740 1.394 . S
C2738 H2754 0.931 . S
C2739 C2738 1.391 . S
C2739 C2743 1.376 . S
C2740 C2738 1.394 . S
C2740 C2741 1.369 . S
C2740 C2744 1.531 . S
C2741 C2740 1.369 . S
C2741 C2742 1.410 . S
C2741 C2749 1.503 . S
C2742 C2741 1.410 . S
C2742 C2743 1.392 . S
C2742 C2745 1.511 . S
C2743 C2739 1.376 . S
C2743 C2742 1.392 . S
C2743 H2755 0.929 . S
C2744 C2740 1.531 . S
C2744 H2756 0.960 . S
C2744 H2757 0.962 . S
C2744 H2758 0.960 . S
C2745 C2742 1.511 . S
C2745 H2759 0.961 . S
C2745 H2760 0.961 . S
C2745 H2761 0.961 . S
C2746 C2747 1.370 . S
C2746 C2748 1.363 . S
C2746 H2762 0.931 . S
C2747 C2746 1.370 . S
C2747 C2751 1.408 . S
C2748 C2746 1.363 . S
C2748 C2749 1.370 . S
C2748 C2752 1.524 . S
C2749 C2741 1.503 . S
C2749 C2748 1.370 . S
C2749 C2750 1.403 . S
C2750 C2749 1.403 . S
C2750 C2751 1.404 . S
C2750 C2753 1.539 . S
C2751 C2747 1.408 . S
C2751 C2750 1.404 . S
C2751 H2763 0.930 . S
C2752 C2748 1.524 . S
C2752 H2764 0.956 . S
C2752 H2765 0.961 . S
C2752 H2766 0.961 . S
C2753 C2750 1.539 . S
C2753 H2767 0.958 . S
C2753 H2768 0.961 . S
C2753 H2769 0.960 . S
H2754 C2738 0.931 . S
H2755 C2743 0.929 . S
H2756 C2744 0.960 . S
H2757 C2744 0.962 . S
H2758 C2744 0.960 . S
H2759 C2745 0.961 . S
H2760 C2745 0.961 . S
H2761 C2745 0.961 . S
H2762 C2746 0.931 . S
H2763 C2751 0.930 . S
H2764 C2752 0.956 . S
H2765 C2752 0.961 . S
H2766 C2752 0.961 . S
H2767 C2753 0.958 . S
H2768 C2753 0.961 . S
H2769 C2753 0.960 . S
C2770 C2771 1.391 . S
C2770 C2772 1.394 . S
C2770 H2786 0.931 . S
C2771 C2770 1.391 . S
C2771 C2775 1.376 . S
C2772 C2770 1.394 . S
C2772 C2773 1.369 . S
C2772 C2776 1.531 . S
C2773 C2772 1.369 . S
C2773 C2774 1.410 . S
C2773 C2781 1.503 . S
C2774 C2773 1.410 . S
C2774 C2775 1.392 . S
C2774 C2777 1.511 . S
C2775 C2771 1.376 . S
C2775 C2774 1.392 . S
C2775 H2787 0.929 . S
C2776 C2772 1.531 . S
C2776 H2788 0.960 . S
C2776 H2789 0.962 . S
C2776 H2790 0.960 . S
C2777 C2774 1.511 . S
C2777 H2791 0.961 . S
C2777 H2792 0.961 . S
C2777 H2793 0.961 . S
C2778 C2779 1.370 . S
C2778 C2780 1.363 . S
C2778 H2794 0.931 . S
C2779 C2778 1.370 . S
C2779 C2783 1.408 . S
C2780 C2778 1.363 . S
C2780 C2781 1.370 . S
C2780 C2784 1.524 . S
C2781 C2773 1.503 . S
C2781 C2780 1.370 . S
C2781 C2782 1.403 . S
C2782 C2781 1.403 . S
C2782 C2783 1.404 . S
C2782 C2785 1.539 1_545 S
C2783 C2779 1.408 . S
C2783 C2782 1.404 . S
C2783 H2795 0.930 1_545 S
C2784 C2780 1.524 . S
C2784 H2796 0.956 . S
C2784 H2797 0.961 . S
C2784 H2798 0.961 . S
C2785 C2782 1.539 1_565 S
C2785 H2799 0.958 . S
C2785 H2800 0.961 . S
C2785 H2801 0.960 1_565 S
H2786 C2770 0.931 . S
H2787 C2775 0.929 . S
H2788 C2776 0.960 . S
H2789 C2776 0.962 . S
H2790 C2776 0.960 . S
H2791 C2777 0.961 . S
H2792 C2777 0.961 . S
H2793 C2777 0.961 . S
H2794 C2778 0.931 . S
H2795 C2783 0.930 1_565 S
H2796 C2784 0.956 . S
H2797 C2784 0.961 . S
H2798 C2784 0.961 . S
H2799 C2785 0.958 . S
H2800 C2785 0.961 . S
H2801 C2785 0.960 1_545 S
C2802 C2803 1.391 . S
C2802 C2804 1.394 . S
C2802 H2818 0.931 . S
C2803 C2802 1.391 . S
C2803 C2807 1.376 . S
C2804 C2802 1.394 . S
C2804 C2805 1.369 . S
C2804 C2808 1.531 . S
C2805 C2804 1.369 . S
C2805 C2806 1.410 . S
C2805 C2813 1.503 . S
C2806 C2805 1.410 . S
C2806 C2807 1.392 . S
C2806 C2809 1.511 . S
C2807 C2803 1.376 . S
C2807 C2806 1.392 . S
C2807 H2819 0.929 . S
C2808 C2804 1.531 . S
C2808 H2820 0.960 . S
C2808 H2821 0.962 . S
C2808 H2822 0.960 . S
C2809 C2806 1.511 . S
C2809 H2823 0.961 . S
C2809 H2824 0.961 . S
C2809 H2825 0.961 . S
C2810 C2811 1.370 . S
C2810 C2812 1.363 . S
C2810 H2826 0.931 . S
C2811 C2810 1.370 . S
C2811 C2815 1.408 . S
C2812 C2810 1.363 . S
C2812 C2813 1.370 . S
C2812 C2816 1.524 . S
C2813 C2805 1.503 . S
C2813 C2812 1.370 . S
C2813 C2814 1.403 . S
C2814 C2813 1.403 . S
C2814 C2815 1.404 . S
C2814 C2817 1.539 . S
C2815 C2811 1.408 . S
C2815 C2814 1.404 . S
C2815 H2827 0.930 . S
C2816 C2812 1.524 . S
C2816 H2828 0.956 . S
C2816 H2829 0.961 . S
C2816 H2830 0.961 . S
C2817 C2814 1.539 . S
C2817 H2831 0.958 . S
C2817 H2832 0.961 . S
C2817 H2833 0.960 . S
H2818 C2802 0.931 . S
H2819 C2807 0.929 . S
H2820 C2808 0.960 . S
H2821 C2808 0.962 . S
H2822 C2808 0.960 . S
H2823 C2809 0.961 . S
H2824 C2809 0.961 . S
H2825 C2809 0.961 . S
H2826 C2810 0.931 . S
H2827 C2815 0.930 . S
H2828 C2816 0.956 . S
H2829 C2816 0.961 . S
H2830 C2816 0.961 . S
H2831 C2817 0.958 . S
H2832 C2817 0.961 . S
H2833 C2817 0.960 . S
C2834 C2835 1.391 . S
C2834 C2836 1.394 . S
C2834 H2850 0.931 . S
C2835 C2834 1.391 . S
C2835 C2839 1.376 . S
C2836 C2834 1.394 . S
C2836 C2837 1.369 . S
C2836 C2840 1.531 . S
C2837 C2836 1.369 . S
C2837 C2838 1.410 . S
C2837 C2845 1.503 . S
C2838 C2837 1.410 . S
C2838 C2839 1.392 . S
C2838 C2841 1.511 . S
C2839 C2835 1.376 . S
C2839 C2838 1.392 . S
C2839 H2851 0.929 . S
C2840 C2836 1.531 . S
C2840 H2852 0.960 . S
C2840 H2853 0.962 . S
C2840 H2854 0.960 . S
C2841 C2838 1.511 . S
C2841 H2855 0.961 . S
C2841 H2856 0.961 . S
C2841 H2857 0.961 . S
C2842 C2843 1.370 . S
C2842 C2844 1.363 . S
C2842 H2858 0.931 . S
C2843 C2842 1.370 . S
C2843 C2847 1.408 . S
C2844 C2842 1.363 . S
C2844 C2845 1.370 . S
C2844 C2848 1.524 . S
C2845 C2837 1.503 . S
C2845 C2844 1.370 . S
C2845 C2846 1.403 . S
C2846 C2845 1.403 . S
C2846 C2847 1.404 . S
C2846 C2849 1.539 . S
C2847 C2843 1.408 . S
C2847 C2846 1.404 . S
C2847 H2859 0.930 . S
C2848 C2844 1.524 . S
C2848 H2860 0.956 . S
C2848 H2861 0.961 . S
C2848 H2862 0.961 . S
C2849 C2846 1.539 . S
C2849 H2863 0.958 . S
C2849 H2864 0.961 . S
C2849 H2865 0.960 . S
H2850 C2834 0.931 . S
H2851 C2839 0.929 . S
H2852 C2840 0.960 . S
H2853 C2840 0.962 . S
H2854 C2840 0.960 . S
H2855 C2841 0.961 . S
H2856 C2841 0.961 . S
H2857 C2841 0.961 . S
H2858 C2842 0.931 . S
H2859 C2847 0.930 . S
H2860 C2848 0.956 . S
H2861 C2848 0.961 . S
H2862 C2848 0.961 . S
H2863 C2849 0.958 . S
H2864 C2849 0.961 . S
H2865 C2849 0.960 . S
C2866 C2867 1.391 . S
C2866 C2868 1.394 . S
C2866 H2882 0.931 . S
C2867 C2866 1.391 . S
C2867 C2871 1.376 . S
C2868 C2866 1.394 . S
C2868 C2869 1.369 . S
C2868 C2872 1.531 . S
C2869 C2868 1.369 . S
C2869 C2870 1.410 . S
C2869 C2877 1.503 . S
C2870 C2869 1.410 . S
C2870 C2871 1.392 . S
C2870 C2873 1.511 . S
C2871 C2867 1.376 . S
C2871 C2870 1.392 . S
C2871 H2883 0.929 . S
C2872 C2868 1.531 . S
C2872 H2884 0.960 . S
C2872 H2885 0.962 . S
C2872 H2886 0.960 . S
C2873 C2870 1.511 . S
C2873 H2887 0.961 . S
C2873 H2888 0.961 . S
C2873 H2889 0.961 . S
C2874 C2875 1.370 . S
C2874 C2876 1.363 . S
C2874 H2890 0.931 . S
C2875 C2874 1.370 . S
C2875 C2879 1.408 . S
C2876 C2874 1.363 . S
C2876 C2877 1.370 . S
C2876 C2880 1.524 . S
C2877 C2869 1.503 . S
C2877 C2876 1.370 . S
C2877 C2878 1.403 . S
C2878 C2877 1.403 . S
C2878 C2879 1.404 . S
C2878 C2881 1.539 . S
C2879 C2875 1.408 . S
C2879 C2878 1.404 . S
C2879 H2891 0.930 . S
C2880 C2876 1.524 . S
C2880 H2892 0.956 . S
C2880 H2893 0.961 . S
C2880 H2894 0.961 . S
C2881 C2878 1.539 . S
C2881 H2895 0.958 . S
C2881 H2896 0.961 . S
C2881 H2897 0.960 . S
H2882 C2866 0.931 . S
H2883 C2871 0.929 . S
H2884 C2872 0.960 . S
H2885 C2872 0.962 . S
H2886 C2872 0.960 . S
H2887 C2873 0.961 . S
H2888 C2873 0.961 . S
H2889 C2873 0.961 . S
H2890 C2874 0.931 . S
H2891 C2879 0.930 . S
H2892 C2880 0.956 . S
H2893 C2880 0.961 . S
H2894 C2880 0.961 . S
H2895 C2881 0.958 . S
H2896 C2881 0.961 . S
H2897 C2881 0.960 . S
C2898 C2899 1.391 . S
C2898 C2900 1.394 . S
C2898 H2914 0.931 . S
C2899 C2898 1.391 . S
C2899 C2903 1.376 . S
C2900 C2898 1.394 . S
C2900 C2901 1.369 . S
C2900 C2904 1.531 . S
C2901 C2900 1.369 . S
C2901 C2902 1.410 . S
C2901 C2909 1.503 . S
C2902 C2901 1.410 . S
C2902 C2903 1.392 . S
C2902 C2905 1.511 . S
C2903 C2899 1.376 . S
C2903 C2902 1.392 . S
C2903 H2915 0.929 . S
C2904 C2900 1.531 . S
C2904 H2916 0.960 . S
C2904 H2917 0.962 . S
C2904 H2918 0.960 . S
C2905 C2902 1.511 . S
C2905 H2919 0.961 . S
C2905 H2920 0.961 . S
C2905 H2921 0.961 . S
C2906 C2907 1.370 . S
C2906 C2908 1.363 . S
C2906 H2922 0.931 . S
C2907 C2906 1.370 . S
C2907 C2911 1.408 . S
C2908 C2906 1.363 . S
C2908 C2909 1.370 . S
C2908 C2912 1.524 . S
C2909 C2901 1.503 . S
C2909 C2908 1.370 . S
C2909 C2910 1.403 . S
C2910 C2909 1.403 . S
C2910 C2911 1.404 . S
C2910 C2913 1.539 . S
C2911 C2907 1.408 . S
C2911 C2910 1.404 . S
C2911 H2923 0.930 . S
C2912 C2908 1.524 . S
C2912 H2924 0.956 . S
C2912 H2925 0.961 . S
C2912 H2926 0.961 . S
C2913 C2910 1.539 . S
C2913 H2927 0.958 . S
C2913 H2928 0.961 . S
C2913 H2929 0.960 . S
H2914 C2898 0.931 . S
H2915 C2903 0.929 . S
H2916 C2904 0.960 . S
H2917 C2904 0.962 . S
H2918 C2904 0.960 . S
H2919 C2905 0.961 . S
H2920 C2905 0.961 . S
H2921 C2905 0.961 . S
H2922 C2906 0.931 . S
H2923 C2911 0.930 . S
H2924 C2912 0.956 . S
H2925 C2912 0.961 . S
H2926 C2912 0.961 . S
H2927 C2913 0.958 . S
H2928 C2913 0.961 . S
H2929 C2913 0.960 . S
C2930 C2931 1.391 . S
C2930 C2932 1.394 . S
C2930 H2946 0.931 . S
C2931 C2930 1.391 . S
C2931 C2935 1.376 . S
C2932 C2930 1.394 . S
C2932 C2933 1.369 . S
C2932 C2936 1.531 . S
C2933 C2932 1.369 . S
C2933 C2934 1.410 . S
C2933 C2941 1.503 . S
C2934 C2933 1.410 . S
C2934 C2935 1.392 . S
C2934 C2937 1.511 . S
C2935 C2931 1.376 . S
C2935 C2934 1.392 . S
C2935 H2947 0.929 . S
C2936 C2932 1.531 . S
C2936 H2948 0.960 . S
C2936 H2949 0.962 . S
C2936 H2950 0.960 . S
C2937 C2934 1.511 . S
C2937 H2951 0.961 . S
C2937 H2952 0.961 . S
C2937 H2953 0.961 . S
C2938 C2939 1.370 . S
C2938 C2940 1.363 . S
C2938 H2954 0.931 . S
C2939 C2938 1.370 . S
C2939 C2943 1.408 . S
C2940 C2938 1.363 . S
C2940 C2941 1.370 . S
C2940 C2944 1.524 . S
C2941 C2933 1.503 . S
C2941 C2940 1.370 . S
C2941 C2942 1.403 . S
C2942 C2941 1.403 . S
C2942 C2943 1.404 . S
C2942 C2945 1.539 . S
C2943 C2939 1.408 . S
C2943 C2942 1.404 . S
C2943 H2955 0.930 . S
C2944 C2940 1.524 . S
C2944 H2956 0.956 . S
C2944 H2957 0.961 . S
C2944 H2958 0.961 . S
C2945 C2942 1.539 . S
C2945 H2959 0.958 . S
C2945 H2960 0.961 . S
C2945 H2961 0.960 . S
H2946 C2930 0.931 . S
H2947 C2935 0.929 . S
H2948 C2936 0.960 . S
H2949 C2936 0.962 . S
H2950 C2936 0.960 . S
H2951 C2937 0.961 . S
H2952 C2937 0.961 . S
H2953 C2937 0.961 . S
H2954 C2938 0.931 . S
H2955 C2943 0.930 . S
H2956 C2944 0.956 . S
H2957 C2944 0.961 . S
H2958 C2944 0.961 . S
H2959 C2945 0.958 . S
H2960 C2945 0.961 . S
H2961 C2945 0.960 . S
C2962 C2963 1.391 . S
C2962 C2964 1.394 . S
C2962 H2978 0.931 . S
C2963 C2962 1.391 . S
C2963 C2967 1.376 . S
C2964 C2962 1.394 . S
C2964 C2965 1.369 . S
C2964 C2968 1.531 . S
C2965 C2964 1.369 . S
C2965 C2966 1.410 . S
C2965 C2973 1.503 . S
C2966 C2965 1.410 . S
C2966 C2967 1.392 . S
C2966 C2969 1.511 . S
C2967 C2963 1.376 . S
C2967 C2966 1.392 . S
C2967 H2979 0.929 . S
C2968 C2964 1.531 . S
C2968 H2980 0.960 . S
C2968 H2981 0.962 . S
C2968 H2982 0.960 . S
C2969 C2966 1.511 . S
C2969 H2983 0.961 . S
C2969 H2984 0.961 . S
C2969 H2985 0.961 . S
C2970 C2971 1.370 . S
C2970 C2972 1.363 . S
C2970 H2986 0.931 . S
C2971 C2970 1.370 . S
C2971 C2975 1.408 . S
C2972 C2970 1.363 . S
C2972 C2973 1.370 . S
C2972 C2976 1.524 . S
C2973 C2965 1.503 . S
C2973 C2972 1.370 . S
C2973 C2974 1.403 . S
C2974 C2973 1.403 . S
C2974 C2975 1.404 . S
C2974 C2977 1.539 . S
C2975 C2971 1.408 . S
C2975 C2974 1.404 . S
C2975 H2987 0.930 . S
C2976 C2972 1.524 . S
C2976 H2988 0.956 . S
C2976 H2989 0.961 . S
C2976 H2990 0.961 . S
C2977 C2974 1.539 . S
C2977 H2991 0.958 . S
C2977 H2992 0.961 . S
C2977 H2993 0.960 . S
H2978 C2962 0.931 . S
H2979 C2967 0.929 . S
H2980 C2968 0.960 . S
H2981 C2968 0.962 . S
H2982 C2968 0.960 . S
H2983 C2969 0.961 . S
H2984 C2969 0.961 . S
H2985 C2969 0.961 . S
H2986 C2970 0.931 . S
H2987 C2975 0.930 . S
H2988 C2976 0.956 . S
H2989 C2976 0.961 . S
H2990 C2976 0.961 . S
H2991 C2977 0.958 . S
H2992 C2977 0.961 . S
H2993 C2977 0.960 . S
C2994 C2995 1.391 . S
C2994 C2996 1.394 . S
C2994 H3010 0.931 . S
C2995 C2994 1.391 . S
C2995 C2999 1.376 . S
C2996 C2994 1.394 . S
C2996 C2997 1.369 . S
C2996 C3000 1.531 . S
C2997 C2996 1.369 . S
C2997 C2998 1.410 . S
C2997 C3005 1.503 . S
C2998 C2997 1.410 . S
C2998 C2999 1.392 . S
C2998 C3001 1.511 . S
C2999 C2995 1.376 . S
C2999 C2998 1.392 . S
C2999 H3011 0.929 . S
C3000 C2996 1.531 . S
C3000 H3012 0.960 . S
C3000 H3013 0.962 . S
C3000 H3014 0.960 . S
C3001 C2998 1.511 . S
C3001 H3015 0.961 . S
C3001 H3016 0.961 . S
C3001 H3017 0.961 . S
C3002 C3003 1.370 . S
C3002 C3004 1.363 . S
C3002 H3018 0.931 . S
C3003 C3002 1.370 . S
C3003 C3007 1.408 . S
C3004 C3002 1.363 . S
C3004 C3005 1.370 . S
C3004 C3008 1.524 . S
C3005 C2997 1.503 . S
C3005 C3004 1.370 . S
C3005 C3006 1.403 . S
C3006 C3005 1.403 . S
C3006 C3007 1.404 . S
C3006 C3009 1.539 . S
C3007 C3003 1.408 . S
C3007 C3006 1.404 . S
C3007 H3019 0.930 . S
C3008 C3004 1.524 . S
C3008 H3020 0.956 . S
C3008 H3021 0.961 . S
C3008 H3022 0.961 . S
C3009 C3006 1.539 . S
C3009 H3023 0.958 . S
C3009 H3024 0.961 . S
C3009 H3025 0.960 . S
H3010 C2994 0.931 . S
H3011 C2999 0.929 . S
H3012 C3000 0.960 . S
H3013 C3000 0.962 . S
H3014 C3000 0.960 . S
H3015 C3001 0.961 . S
H3016 C3001 0.961 . S
H3017 C3001 0.961 . S
H3018 C3002 0.931 . S
H3019 C3007 0.930 . S
H3020 C3008 0.956 . S
H3021 C3008 0.961 . S
H3022 C3008 0.961 . S
H3023 C3009 0.958 . S
H3024 C3009 0.961 . S
H3025 C3009 0.960 . S
C3026 C3027 1.391 . S
C3026 C3028 1.394 . S
C3026 H3042 0.931 . S
C3027 C3026 1.391 . S
C3027 C3031 1.376 . S
C3028 C3026 1.394 . S
C3028 C3029 1.369 . S
C3028 C3032 1.531 . S
C3029 C3028 1.369 . S
C3029 C3030 1.410 . S
C3029 C3037 1.503 . S
C3030 C3029 1.410 . S
C3030 C3031 1.392 . S
C3030 C3033 1.511 . S
C3031 C3027 1.376 . S
C3031 C3030 1.392 . S
C3031 H3043 0.929 . S
C3032 C3028 1.531 . S
C3032 H3044 0.960 . S
C3032 H3045 0.962 . S
C3032 H3046 0.960 . S
C3033 C3030 1.511 . S
C3033 H3047 0.961 . S
C3033 H3048 0.961 . S
C3033 H3049 0.961 . S
C3034 C3035 1.370 . S
C3034 C3036 1.363 . S
C3034 H3050 0.931 . S
C3035 C3034 1.370 . S
C3035 C3039 1.408 . S
C3036 C3034 1.363 . S
C3036 C3037 1.370 . S
C3036 C3040 1.524 . S
C3037 C3029 1.503 . S
C3037 C3036 1.370 . S
C3037 C3038 1.403 . S
C3038 C3037 1.403 . S
C3038 C3039 1.404 . S
C3038 C3041 1.539 . S
C3039 C3035 1.408 . S
C3039 C3038 1.404 . S
C3039 H3051 0.930 . S
C3040 C3036 1.524 . S
C3040 H3052 0.956 . S
C3040 H3053 0.961 . S
C3040 H3054 0.961 . S
C3041 C3038 1.539 . S
C3041 H3055 0.958 . S
C3041 H3056 0.961 . S
C3041 H3057 0.960 . S
H3042 C3026 0.931 . S
H3043 C3031 0.929 . S
H3044 C3032 0.960 . S
H3045 C3032 0.962 . S
H3046 C3032 0.960 . S
H3047 C3033 0.961 . S
H3048 C3033 0.961 . S
H3049 C3033 0.961 . S
H3050 C3034 0.931 . S
H3051 C3039 0.930 . S
H3052 C3040 0.956 . S
H3053 C3040 0.961 . S
H3054 C3040 0.961 . S
H3055 C3041 0.958 . S
H3056 C3041 0.961 . S
H3057 C3041 0.960 . S
C3058 C3059 1.391 . S
C3058 C3060 1.394 . S
C3058 H3074 0.931 . S
C3059 C3058 1.391 . S
C3059 C3063 1.376 . S
C3060 C3058 1.394 . S
C3060 C3061 1.369 . S
C3060 C3064 1.531 . S
C3061 C3060 1.369 . S
C3061 C3062 1.410 . S
C3061 C3069 1.503 . S
C3062 C3061 1.410 . S
C3062 C3063 1.392 . S
C3062 C3065 1.511 . S
C3063 C3059 1.376 . S
C3063 C3062 1.392 . S
C3063 H3075 0.929 . S
C3064 C3060 1.531 . S
C3064 H3076 0.960 . S
C3064 H3077 0.962 . S
C3064 H3078 0.960 . S
C3065 C3062 1.511 . S
C3065 H3079 0.961 . S
C3065 H3080 0.961 . S
C3065 H3081 0.961 . S
C3066 C3067 1.370 . S
C3066 C3068 1.363 . S
C3066 H3082 0.931 . S
C3067 C3066 1.370 . S
C3067 C3071 1.408 . S
C3068 C3066 1.363 . S
C3068 C3069 1.370 . S
C3068 C3072 1.524 . S
C3069 C3061 1.503 . S
C3069 C3068 1.370 . S
C3069 C3070 1.403 . S
C3070 C3069 1.403 . S
C3070 C3071 1.404 . S
C3070 C3073 1.539 . S
C3071 C3067 1.408 . S
C3071 C3070 1.404 . S
C3071 H3083 0.930 . S
C3072 C3068 1.524 . S
C3072 H3084 0.956 . S
C3072 H3085 0.961 . S
C3072 H3086 0.961 . S
C3073 C3070 1.539 . S
C3073 H3087 0.958 . S
C3073 H3088 0.961 . S
C3073 H3089 0.960 . S
H3074 C3058 0.931 . S
H3075 C3063 0.929 . S
H3076 C3064 0.960 . S
H3077 C3064 0.962 . S
H3078 C3064 0.960 . S
H3079 C3065 0.961 . S
H3080 C3065 0.961 . S
H3081 C3065 0.961 . S
H3082 C3066 0.931 . S
H3083 C3071 0.930 . S
H3084 C3072 0.956 . S
H3085 C3072 0.961 . S
H3086 C3072 0.961 . S
H3087 C3073 0.958 . S
H3088 C3073 0.961 . S
H3089 C3073 0.960 . S
C3090 C3091 1.391 . S
C3090 C3092 1.394 . S
C3090 H3106 0.931 . S
C3091 C3090 1.391 . S
C3091 C3095 1.376 . S
C3092 C3090 1.394 . S
C3092 C3093 1.369 . S
C3092 C3096 1.531 . S
C3093 C3092 1.369 . S
C3093 C3094 1.410 . S
C3093 C3101 1.503 . S
C3094 C3093 1.410 . S
C3094 C3095 1.392 . S
C3094 C3097 1.511 . S
C3095 C3091 1.376 . S
C3095 C3094 1.392 . S
C3095 H3107 0.929 . S
C3096 C3092 1.531 . S
C3096 H3108 0.960 . S
C3096 H3109 0.962 . S
C3096 H3110 0.960 . S
C3097 C3094 1.511 . S
C3097 H3111 0.961 . S
C3097 H3112 0.961 . S
C3097 H3113 0.961 . S
C3098 C3099 1.370 . S
C3098 C3100 1.363 . S
C3098 H3114 0.931 . S
C3099 C3098 1.370 . S
C3099 C3103 1.408 . S
C3100 C3098 1.363 . S
C3100 C3101 1.370 . S
C3100 C3104 1.524 . S
C3101 C3093 1.503 . S
C3101 C3100 1.370 . S
C3101 C3102 1.403 . S
C3102 C3101 1.403 . S
C3102 C3103 1.404 . S
C3102 C3105 1.539 . S
C3103 C3099 1.408 . S
C3103 C3102 1.404 . S
C3103 H3115 0.930 . S
C3104 C3100 1.524 . S
C3104 H3116 0.956 . S
C3104 H3117 0.961 . S
C3104 H3118 0.961 . S
C3105 C3102 1.539 . S
C3105 H3119 0.958 . S
C3105 H3120 0.961 . S
C3105 H3121 0.960 . S
H3106 C3090 0.931 . S
H3107 C3095 0.929 . S
H3108 C3096 0.960 . S
H3109 C3096 0.962 . S
H3110 C3096 0.960 . S
H3111 C3097 0.961 . S
H3112 C3097 0.961 . S
H3113 C3097 0.961 . S
H3114 C3098 0.931 . S
H3115 C3103 0.930 . S
H3116 C3104 0.956 . S
H3117 C3104 0.961 . S
H3118 C3104 0.961 . S
H3119 C3105 0.958 . S
H3120 C3105 0.961 . S
H3121 C3105 0.960 . S
C3122 C3123 1.391 . S
C3122 C3124 1.394 . S
C3122 H3138 0.931 . S
C3123 C3122 1.391 . S
C3123 C3127 1.376 . S
C3124 C3122 1.394 . S
C3124 C3125 1.369 . S
C3124 C3128 1.531 . S
C3125 C3124 1.369 . S
C3125 C3126 1.410 . S
C3125 C3133 1.503 . S
C3126 C3125 1.410 . S
C3126 C3127 1.392 . S
C3126 C3129 1.511 . S
C3127 C3123 1.376 . S
C3127 C3126 1.392 . S
C3127 H3139 0.929 . S
C3128 C3124 1.531 . S
C3128 H3140 0.960 . S
C3128 H3141 0.962 . S
C3128 H3142 0.960 . S
C3129 C3126 1.511 . S
C3129 H3143 0.961 . S
C3129 H3144 0.961 . S
C3129 H3145 0.961 . S
C3130 C3131 1.370 . S
C3130 C3132 1.363 . S
C3130 H3146 0.931 . S
C3131 C3130 1.370 . S
C3131 C3135 1.408 . S
C3132 C3130 1.363 . S
C3132 C3133 1.370 . S
C3132 C3136 1.524 . S
C3133 C3125 1.503 . S
C3133 C3132 1.370 . S
C3133 C3134 1.403 . S
C3134 C3133 1.403 . S
C3134 C3135 1.404 . S
C3134 C3137 1.539 . S
C3135 C3131 1.408 . S
C3135 C3134 1.404 . S
C3135 H3147 0.930 . S
C3136 C3132 1.524 . S
C3136 H3148 0.956 . S
C3136 H3149 0.961 . S
C3136 H3150 0.961 . S
C3137 C3134 1.539 . S
C3137 H3151 0.958 . S
C3137 H3152 0.961 . S
C3137 H3153 0.960 . S
H3138 C3122 0.931 . S
H3139 C3127 0.929 . S
H3140 C3128 0.960 . S
H3141 C3128 0.962 . S
H3142 C3128 0.960 . S
H3143 C3129 0.961 . S
H3144 C3129 0.961 . S
H3145 C3129 0.961 . S
H3146 C3130 0.931 . S
H3147 C3135 0.930 . S
H3148 C3136 0.956 . S
H3149 C3136 0.961 . S
H3150 C3136 0.961 . S
H3151 C3137 0.958 . S
H3152 C3137 0.961 . S
H3153 C3137 0.960 . S
C3154 C3155 1.391 . S
C3154 C3156 1.394 . S
C3154 H3170 0.931 . S
C3155 C3154 1.391 . S
C3155 C3159 1.376 . S
C3156 C3154 1.394 . S
C3156 C3157 1.369 . S
C3156 C3160 1.531 . S
C3157 C3156 1.369 . S
C3157 C3158 1.410 . S
C3157 C3165 1.503 . S
C3158 C3157 1.410 . S
C3158 C3159 1.392 . S
C3158 C3161 1.511 . S
C3159 C3155 1.376 . S
C3159 C3158 1.392 . S
C3159 H3171 0.929 . S
C3160 C3156 1.531 . S
C3160 H3172 0.960 . S
C3160 H3173 0.962 . S
C3160 H3174 0.960 . S
C3161 C3158 1.511 . S
C3161 H3175 0.961 . S
C3161 H3176 0.961 . S
C3161 H3177 0.961 . S
C3162 C3163 1.370 . S
C3162 C3164 1.363 . S
C3162 H3178 0.931 . S
C3163 C3162 1.370 . S
C3163 C3167 1.408 . S
C3164 C3162 1.363 . S
C3164 C3165 1.370 . S
C3164 C3168 1.524 . S
C3165 C3157 1.503 . S
C3165 C3164 1.370 . S
C3165 C3166 1.403 . S
C3166 C3165 1.403 . S
C3166 C3167 1.404 . S
C3166 C3169 1.539 . S
C3167 C3163 1.408 . S
C3167 C3166 1.404 . S
C3167 H3179 0.930 . S
C3168 C3164 1.524 . S
C3168 H3180 0.956 . S
C3168 H3181 0.961 . S
C3168 H3182 0.961 . S
C3169 C3166 1.539 . S
C3169 H3183 0.958 . S
C3169 H3184 0.961 . S
C3169 H3185 0.960 . S
H3170 C3154 0.931 . S
H3171 C3159 0.929 . S
H3172 C3160 0.960 . S
H3173 C3160 0.962 . S
H3174 C3160 0.960 . S
H3175 C3161 0.961 . S
H3176 C3161 0.961 . S
H3177 C3161 0.961 . S
H3178 C3162 0.931 . S
H3179 C3167 0.930 . S
H3180 C3168 0.956 . S
H3181 C3168 0.961 . S
H3182 C3168 0.961 . S
H3183 C3169 0.958 . S
H3184 C3169 0.961 . S
H3185 C3169 0.960 . S
C1459 C528 1.411 . S
C1467 C769 1.337 . S
C1491 C562 1.482 . S
C1499 C853 1.402 . S
C1523 C484 1.457 . S
C1531 C933 1.443 . S
C1555 C445 1.416 . S
C1563 C849 1.401 . S
C1595 C937 1.351 . S
C1587 C367 1.414 . S
C1619 C411 1.397 . S
C1627 C765 1.342 . S
C1659 C758 1.350 . S
C1651 C450 1.424 . S
C1691 C842 1.391 . S
C1683 C372 1.457 . S
C1715 C406 1.456 . S
C1723 C944 1.437 . S
C1747 C523 1.418 . S
C1755 C860 1.390 . S
C1779 C567 1.392 . S
C1787 C926 1.327 . S
C1819 C776 1.370 . S
C1811 C489 1.398 . S
C1851 C1021 1.362 . S
C1843 C60 1.417 . S
C1875 C94 1.479 . S
C1883 C1105 1.427 . S
C1907 C16 1.458 . S
C1915 C1185 1.443 . S
C1939 C679 1.434 . S
C1947 C1101 1.380 . S
C1971 C601 1.418 . S
C1979 C1189 1.337 . S
C2003 C645 1.402 . S
C2011 C1017 1.337 . S
C2035 C684 1.419 . S
C2043 C1010 1.357 . S
C2067 C606 1.472 . S
C2075 C1094 1.413 . S
C2107 C1196 1.441 . S
C2099 C640 1.453 . S
C2131 C55 1.414 . S
C2139 C1112 1.394 . S
C2171 C1178 1.344 . S
C2163 C99 1.393 . S
C2195 C21 1.395 . S
C2203 C1028 1.380 . S
C2235 C1273 1.342 . S
C2227 C294 1.409 . S
C2259 C328 1.490 . S
C2267 C1357 1.402 . S
C2299 C1437 1.432 . S
C2291 C250 1.469 . S
C2331 C1353 1.401 . S
C2323 C211 1.415 . S
C2363 C1441 1.345 . S
C2355 C133 1.415 . S
C2387 C177 1.378 . S
C2395 C1269 1.364 . S
C2419 C216 1.436 . S
C2427 C1262 1.347 . S
C2451 C138 1.456 . S
C2459 C1346 1.394 . S
C2491 C1448 1.434 . S
C2483 C172 1.459 . S
C2515 C289 1.430 . S
C2523 C1364 1.386 . S
C2547 C333 1.395 . S
C2555 C1430 1.347 . S
C2579 C255 1.403 . S
C2587 C1280 1.365 . S
C2611 C586 1.457 . S
C2619 C772 1.349 . S
C2651 C856 1.356 . S
C2643 C625 1.495 . S
C2675 C664 1.470 . S
C2683 C928 1.344 . S
C2707 C235 1.500 . S
C2715 C844 1.371 . S
C2739 C274 1.459 . S
C2747 C940 1.350 . S
C2779 C760 1.322 . S
C2771 C313 1.456 . S
C2803 C118 1.456 . S
C2811 C1024 1.333 . S
C2835 C157 1.494 . S
C2843 C1108 1.365 . S
C2867 C196 1.475 . S
C2875 C1180 1.329 . S
C2899 C469 1.505 . S
C2907 C1096 1.352 . S
C2939 C1192 1.307 . S
C2931 C508 1.459 . S
C2963 C547 1.457 . S
C2971 C1012 1.361 . S
C2995 C352 1.455 . S
C3003 C1276 1.345 . S
C3027 C391 1.493 . S
C3035 C1360 1.329 . S
C3067 C1432 1.345 . S
C3059 C430 1.470 . S
C3091 C1 1.509 . S
C3099 C1348 1.342 . S
C3123 C40 1.459 . S
C3131 C1444 1.307 . S
C3155 C79 1.456 . S
C3163 C1264 1.322 . S
