# Generated by pormake.
# Topology nom, (4,4)-cn, num edge types: 1
# Building blocks:
#     Node 0, Type 0, BuildingBlock: NAWXER_clean_linker_0, # of connection points: 4
#     Node 1, Type 0, BuildingBlock: NAWXER_clean_linker_0, # of connection points: 4
#     Node 2, Type 0, BuildingBlock: NAWXER_clean_linker_0, # of connection points: 4
#     Node 3, Type 0, BuildingBlock: NAWXER_clean_linker_0, # of connection points: 4
#     Node 4, Type 0, BuildingBlock: NAWXER_clean_linker_0, # of connection points: 4
#     Node 5, Type 0, BuildingBlock: NAWXER_clean_linker_0, # of connection points: 4
#     Node 6, Type 1, BuildingBlock: NAHDIM_clean_sbu_0, # of connection points: 4
#     Node 7, Type 1, BuildingBlock: NAHDIM_clean_sbu_0, # of connection points: 4
#     Node 8, Type 1, BuildingBlock: NAHDIM_clean_sbu_0, # of connection points: 4
#     Node 9, Type 1, BuildingBlock: NAHDIM_clean_sbu_0, # of connection points: 4
#     Node 10, Type 1, BuildingBlock: NAHDIM_clean_sbu_0, # of connection points: 4
#     Node 11, Type 1, BuildingBlock: NAHDIM_clean_sbu_0, # of connection points: 4
#     Edge 12, Type (0, 1), None
#     Edge 13, Type (0, 1), None
#     Edge 14, Type (0, 1), None
#     Edge 15, Type (0, 1), None
#     Edge 16, Type (0, 1), None
#     Edge 17, Type (0, 1), None
#     Edge 18, Type (0, 1), None
#     Edge 19, Type (0, 1), None
#     Edge 20, Type (0, 1), None
#     Edge 21, Type (0, 1), None
#     Edge 22, Type (0, 1), None
#     Edge 23, Type (0, 1), None
#     Edge 24, Type (0, 1), None
#     Edge 25, Type (0, 1), None
#     Edge 26, Type (0, 1), None
#     Edge 27, Type (0, 1), None
#     Edge 28, Type (0, 1), None
#     Edge 29, Type (0, 1), None
#     Edge 30, Type (0, 1), None
#     Edge 31, Type (0, 1), None
#     Edge 32, Type (0, 1), None
#     Edge 33, Type (0, 1), None
#     Edge 34, Type (0, 1), None
#     Edge 35, Type (0, 1), None
# Relax obj value: 0.025
# Max RMSD: 0.119
# Mean RMSD: 0.110
data_MOF--net-nom--node1-NAHDIM_clean_sbu_0--node2-NAWXER_clean_linker_0--edge1-none
_symmetry_space_group_name_H-M    P1
_symmetry_Int_Tables_number       1
_symmetry_cell_setting            triclinic
loop_
_symmetry_equiv_pos_as_xyz
'x, y, z'
_cell_length_a     28.704358
_cell_length_b     29.691191
_cell_length_c     30.188296
_cell_angle_alpha  89.392435
_cell_angle_beta   91.344943
_cell_angle_gamma 121.44415
loop_
_atom_site_label
_atom_site_type_symbol
_atom_site_fract_x
_atom_site_fract_y
_atom_site_fract_z
_atom_type_partial_charge
C0 C 0.781 0.44956 0.35645 0.0
C1 C 0.75448 0.39685 0.3706 0.0
C2 C 0.83459 0.47463 0.34183 0.0
C3 C 0.86282 0.44777 0.34207 0.0
C4 C 0.78266 0.36982 0.37049 0.0
C5 C 0.83692 0.39549 0.35705 0.0
C6 C 0.92024 0.47577 0.32874 0.0
C7 C 0.82481 0.41564 0.20112 0.0
C8 C 0.82902 0.45471 0.1719 0.0
C9 C 0.85868 0.42955 0.23886 0.0
C10 C 0.8973 0.4828 0.24825 0.0
C11 C 0.86748 0.50801 0.1815 0.0
C12 C 0.90156 0.52185 0.21912 0.0
C13 C 0.93628 0.49746 0.28616 0.0
C14 C 0.1821 0.61292 0.2945 0.0
C15 C 0.19328 0.66038 0.27417 0.0
C16 C 0.12897 0.57505 0.30671 0.0
C17 C 0.08624 0.58434 0.2994 0.0
C18 C 0.1502 0.66906 0.26621 0.0
C19 C 0.09722 0.63133 0.27859 0.0
C20 C 0.02939 0.54477 0.31102 0.0
C21 C 0.12476 0.59078 0.44144 0.0
C22 C 0.11715 0.54819 0.46785 0.0
C23 C 0.09184 0.5821 0.40376 0.0
C24 C 0.05178 0.53052 0.39088 0.0
C25 C 0.07689 0.49667 0.45513 0.0
C26 C 0.04465 0.48797 0.417 0.0
C27 C 0.01349 0.52025 0.35309 0.0
H28 H 0.76002 0.4711 0.35594 0.0
H29 H 0.85433 0.51529 0.33086 0.0
H30 H 0.76299 0.32915 0.38137 0.0
H31 H 0.85844 0.37445 0.35779 0.0
H32 H 0.79576 0.37423 0.19462 0.0
H33 H 0.8557 0.39848 0.25998 0.0
H34 H 0.87186 0.53908 0.15963 0.0
H35 H 0.93144 0.56312 0.2254 0.0
H36 H 0.21433 0.60481 0.30076 0.0
H37 H 0.12125 0.53847 0.32155 0.0
H38 H 0.15736 0.70507 0.25056 0.0
H39 H 0.06472 0.63906 0.2722 0.0
H40 H 0.15488 0.63106 0.45073 0.0
H41 H 0.09681 0.61587 0.38552 0.0
H42 H 0.06995 0.46309 0.47482 0.0
H43 H 0.01353 0.44783 0.40816 0.0
N44 N 0.95929 0.48717 0.36034 0.0
N45 N -0.00986 0.53186 0.27916 0.0
C46 C 0.34367 0.81014 0.53141 0.0
C47 C 0.36533 0.78889 0.56142 0.0
C48 C 0.37643 0.86133 0.51524 0.0
C49 C 0.4315 0.89225 0.5287 0.0
C50 C 0.42044 0.81999 0.575 0.0
C51 C 0.45307 0.87143 0.55909 0.0
C52 C 0.46462 0.94808 0.51509 0.0
C53 C 0.43965 0.85617 0.39039 0.0
C54 C 0.40971 0.86327 0.35642 0.0
C55 C 0.4576 0.88867 0.42794 0.0
C56 C 0.4457 0.92871 0.43236 0.0
C57 C 0.39825 0.90362 0.36081 0.0
C58 C 0.41635 0.93616 0.39824 0.0
C59 C 0.46655 0.96511 0.47092 0.0
C60 C 0.60323 0.20357 0.48969 0.0
C61 C 0.57062 0.21654 0.46366 0.0
C62 C 0.5853 0.15092 0.49929 0.0
C63 C 0.53381 0.11035 0.48397 0.0
C64 C 0.52018 0.17577 0.44676 0.0
C65 C 0.50197 0.12316 0.45684 0.0
C66 C 0.51235 0.05451 0.49593 0.0
C67 C 0.5347 0.13961 0.62497 0.0
C68 C 0.57249 0.13805 0.65454 0.0
C69 C 0.51564 0.10734 0.58744 0.0
C70 C 0.53456 0.07342 0.57836 0.0
C71 C 0.59108 0.10376 0.64551 0.0
C72 C 0.572 0.07151 0.60787 0.0
C73 C 0.51302 0.03751 0.53976 0.0
H74 H 0.30141 0.78721 0.52023 0.0
H75 H 0.35833 0.87714 0.49298 0.0
H76 H 0.43832 0.80475 0.59809 0.0
H77 H 0.4952 0.89502 0.57053 0.0
H78 H 0.44934 0.82559 0.38797 0.0
H79 H 0.48155 0.88302 0.45314 0.0
H80 H 0.3754 0.91028 0.33526 0.0
H81 H 0.40712 0.96708 0.40063 0.0
H82 H 0.64275 0.23407 0.50257 0.0
H83 H 0.61152 0.14201 0.51897 0.0
H84 H 0.4943 0.18451 0.4264 0.0
H85 H 0.46234 0.09249 0.44424 0.0
H86 H 0.51921 0.16528 0.63105 0.0
H87 H 0.48559 0.10841 0.5658 0.0
H88 H 0.61993 0.10141 0.66771 0.0
H89 H 0.58653 0.04505 0.60172 0.0
N90 N 0.48882 0.98497 0.54761 0.0
N91 N 0.48954 0.01763 0.46321 0.0
C92 C 0.56051 0.42316 0.55158 0.0
C93 C 0.52121 0.3893 0.51999 0.0
C94 C 0.54522 0.44182 0.58751 0.0
C95 C 0.49047 0.42716 0.59218 0.0
C96 C 0.4663 0.37367 0.52556 0.0
C97 C 0.45124 0.39279 0.561 0.0
C98 C 0.47432 0.45141 0.62643 0.0
C99 C 0.50911 0.3423 0.70356 0.0
C100 C 0.55171 0.36613 0.73544 0.0
C101 C 0.48992 0.3715 0.68204 0.0
C102 C 0.51313 0.42535 0.69158 0.0
C103 C 0.57452 0.41991 0.74538 0.0
C104 C 0.55509 0.44912 0.72387 0.0
C105 C 0.48938 0.45498 0.67174 0.0
C106 C 0.35341 0.52092 0.76175 0.0
C107 C 0.39156 0.56149 0.79 0.0
C108 C 0.37079 0.50275 0.72717 0.0
C109 C 0.42668 0.5248 0.72005 0.0
C110 C 0.44757 0.58424 0.78237 0.0
C111 C 0.46497 0.56557 0.74793 0.0
C112 C 0.44502 0.50247 0.68591 0.0
C113 C 0.36585 0.58004 0.61444 0.0
C114 C 0.3209 0.54554 0.58712 0.0
C115 C 0.40108 0.56472 0.63176 0.0
C116 C 0.39156 0.51429 0.62267 0.0
C117 C 0.31253 0.4958 0.5769 0.0
C118 C 0.34758 0.48041 0.59444 0.0
C119 C 0.42768 0.49656 0.64098 0.0
H120 H 0.60312 0.43578 0.54825 0.0
H121 H 0.5764 0.46907 0.61071 0.0
H122 H 0.43497 0.34765 0.50188 0.0
H123 H 0.40883 0.38119 0.56379 0.0
H124 H 0.49043 0.30094 0.69515 0.0
H125 H 0.45596 0.35151 0.65868 0.0
H126 H 0.60739 0.43949 0.76974 0.0
H127 H 0.57284 0.49033 0.73245 0.0
H128 H 0.30995 0.50255 0.76671 0.0
H129 H 0.34052 0.47051 0.70666 0.0
H130 H 0.47789 0.61529 0.80374 0.0
H131 H 0.50832 0.58267 0.74324 0.0
H132 H 0.3738 0.61891 0.6226 0.0
H133 H 0.43577 0.59236 0.65214 0.0
H134 H 0.27842 0.46835 0.55593 0.0
H135 H 0.33972 0.44149 0.58653 0.0
N136 N 0.44351 0.47172 0.61308 0.0
N137 N 0.47489 0.48116 0.69955 0.0
C138 C 0.77896 0.34243 0.79541 0.0
C139 C 0.75971 0.36329 0.76284 0.0
C140 C 0.83267 0.37179 0.81134 0.0
C141 C 0.86816 0.4232 0.79583 0.0
C142 C 0.79564 0.41413 0.74624 0.0
C143 C 0.84952 0.44378 0.76255 0.0
C144 C 0.92564 0.45351 0.81199 0.0
C145 C 0.82801 0.43589 0.93325 0.0
C146 C 0.83232 0.40551 0.96735 0.0
C147 C 0.86234 0.4514 0.8968 0.0
C148 C 0.9014 0.43665 0.89384 0.0
C149 C 0.87136 0.39077 0.96412 0.0
C150 C 0.90572 0.40647 0.92792 0.0
C151 C 0.94059 0.45534 0.85719 0.0
C152 C 0.18686 0.57949 0.85863 0.0
C153 C 0.19558 0.54704 0.88769 0.0
C154 C 0.1345 0.56301 0.84204 0.0
C155 C 0.09005 0.51348 0.85375 0.0
C156 C 0.15082 0.49798 0.90001 0.0
C157 C 0.09858 0.48146 0.88327 0.0
C158 C 0.03393 0.4953 0.83762 0.0
C159 C 0.12908 0.51131 0.71589 0.0
C160 C 0.1339 0.55063 0.68658 0.0
C161 C 0.09218 0.49388 0.75051 0.0
C162 C 0.05949 0.51551 0.75666 0.0
C163 C 0.10087 0.57205 0.69266 0.0
C164 C 0.06362 0.55426 0.7272 0.0
C165 C 0.01953 0.49641 0.79268 0.0
H166 H 0.75264 0.30311 0.80848 0.0
H167 H 0.84657 0.35386 0.83546 0.0
H168 H 0.78204 0.43121 0.72104 0.0
H169 H 0.87652 0.48294 0.74943 0.0
H170 H 0.79837 0.44792 0.9348 0.0
H171 H 0.85905 0.47571 0.87142 0.0
H172 H 0.87582 0.36743 0.98978 0.0
H173 H 0.93578 0.39493 0.92652 0.0
H174 H 0.22046 0.61776 0.84875 0.0
H175 H 0.12874 0.58917 0.82047 0.0
H176 H 0.15612 0.47211 0.92233 0.0
H177 H 0.06474 0.44329 0.89314 0.0
H178 H 0.15373 0.49381 0.71209 0.0
H179 H 0.08884 0.46311 0.77227 0.0
H180 H 0.10334 0.60212 0.6705 0.0
H181 H 0.03831 0.57105 0.73114 0.0
N182 N 0.96583 0.47511 0.78154 0.0
N183 N -0.00604 0.47534 0.868 0.0
C184 C 0.44791 0.80743 0.96606 0.0
C185 C 0.40327 0.78746 0.93607 0.0
C186 C 0.468 0.85637 0.98648 0.0
C187 C 0.44388 0.88629 0.97728 0.0
C188 C 0.37905 0.81738 0.92711 0.0
C189 C 0.39955 0.86658 0.94719 0.0
C190 C 0.46902 0.94069 0.99446 0.0
C191 C 0.40205 0.84188 0.11913 0.0
C192 C 0.44231 0.84939 0.15077 0.0
C193 C 0.41601 0.8745 0.08172 0.0
C194 C 0.47039 0.91534 0.07549 0.0
C195 C 0.49679 0.88954 0.14379 0.0
C196 C 0.51053 0.92239 0.10682 0.0
C197 C 0.48522 0.95437 0.0393 0.0
C198 C 0.58695 0.19167 0.03674 0.0
C199 C 0.63454 0.20667 0.06223 0.0
C200 C 0.55219 0.13917 0.02392 0.0
C201 C 0.56482 0.10084 0.0357 0.0
C202 C 0.64583 0.16782 0.07561 0.0
C203 C 0.61118 0.11534 0.06251 0.0
C204 C 0.53022 0.04564 0.02026 0.0
C205 C 0.6049 0.14237 0.89816 0.0
C206 C 0.56706 0.14582 0.8701 0.0
C207 C 0.58718 0.10567 0.93256 0.0
C208 C 0.53122 0.0716 0.93974 0.0
C209 C 0.51093 0.11172 0.87736 0.0
C210 C 0.49317 0.07449 0.91166 0.0
C211 C 0.5128 0.03198 0.97566 0.0
H212 H 0.46737 0.78527 0.97381 0.0
H213 H 0.50339 0.87148 1.00847 0.0
H214 H 0.34459 0.80309 0.90419 0.0
H215 H 0.38097 0.88944 0.93902 0.0
H216 H 0.35973 0.81122 0.12351 0.0
H217 H 0.38408 0.86892 0.0585 0.0
H218 H 0.52885 0.89648 0.16743 0.0
H219 H 0.55267 0.95385 0.10294 0.0
H220 H 0.57666 0.22053 0.02641 0.0
H221 H 0.51568 0.12866 1.00451 0.0
H222 H 0.682 0.17807 0.09542 0.0
H223 H 0.62138 0.08626 0.07239 0.0
H224 H 0.64842 0.16793 0.89348 0.0
H225 H 0.61726 0.10352 0.95333 0.0
H226 H 0.48081 0.11314 0.8561 0.0
H227 H 0.44978 0.0482 0.91647 0.0
N228 N 0.48294 0.98005 0.96447 0.0
N229 N 0.51564 0.00635 0.05028 0.0
C230 C 0.44162 0.63263 0.23293 0.0
C231 C 0.39292 0.625 0.21375 0.0
C232 C 0.46064 0.59957 0.22167 0.0
C233 C 0.43155 0.55866 0.19083 0.0
C234 C 0.36276 0.58261 0.18423 0.0
C235 C 0.38176 0.54958 0.17305 0.0
C236 C 0.4548 0.52729 0.1761 0.0
C237 C 0.40176 0.53997 0.02451 0.0
C238 C 0.42599 0.59513 0.02359 0.0
C239 C 0.41322 0.51579 0.05959 0.0
C240 C 0.44817 0.54621 0.09466 0.0
C241 C 0.4612 0.62542 0.05875 0.0
C242 C 0.47223 0.60121 0.09389 0.0
C243 C 0.4617 0.52081 0.13089 0.0
C244 C 0.55337 0.37734 0.14075 0.0
C245 C 0.59656 0.40452 0.11117 0.0
C246 C 0.52214 0.39858 0.15299 0.0
C247 C 0.53407 0.44772 0.13635 0.0
C248 C 0.60685 0.45259 0.0931 0.0
C249 C 0.57576 0.4739 0.10552 0.0
C250 C 0.50436 0.47291 0.15132 0.0
C251 C 0.59993 0.4692 0.27033 0.0
C252 C 0.56607 0.43223 0.3021 0.0
C253 C 0.57766 0.48435 0.23593 0.0
C254 C 0.52111 0.46301 0.23271 0.0
C255 C 0.50935 0.41078 0.29875 0.0
C256 C 0.48713 0.42654 0.26456 0.0
C257 C 0.49781 0.47966 0.19655 0.0
H258 H 0.46557 0.66469 0.25602 0.0
H259 H 0.49904 0.60706 0.23594 0.0
H260 H 0.32474 0.57525 0.16926 0.0
H261 H 0.35802 0.51748 0.14994 0.0
H262 H 0.37473 0.5156 0.9978 0.0
H263 H 0.3947 0.47331 0.05943 0.0
H264 H 0.48063 0.66799 0.05905 0.0
H265 H 0.50021 0.62555 0.12017 0.0
H266 H 0.54399 0.33988 0.15484 0.0
H267 H 0.48912 0.37692 0.17583 0.0
H268 H 0.63963 0.47434 0.07007 0.0
H269 H 0.58537 0.51169 0.09201 0.0
H270 H 0.64378 0.48649 0.27197 0.0
H271 H 0.60464 0.51304 0.21196 0.0
H272 H 0.48229 0.38252 0.32292 0.0
H273 H 0.44339 0.40991 0.26269 0.0
N274 N 0.47322 0.50656 0.20729 0.0
N275 N 0.48612 0.49381 0.12022 0.0
C276 C 0.58929 0.27234 0.45439 0.0
O277 O 0.63121 0.31021 0.47656 0.0
O278 O 0.67841 0.39601 0.40139 0.0
Zn279 Zn 0.59825 0.36244 0.41444 0.0
O280 O 0.58652 0.39185 0.47017 0.0
C281 C 0.59052 0.41781 0.3391 0.0
O282 O 0.64296 0.44787 0.34833 0.0
O283 O 0.56612 0.28463 0.42431 0.0
C284 C 0.53681 0.37101 0.48074 0.0
O285 O 0.49884 0.3338 0.45516 0.0
C286 C 0.69718 0.36989 0.38418 0.0
O287 O 0.66449 0.31926 0.37622 0.0
O288 O 0.56148 0.37728 0.36288 0.0
C289 C 0.33118 0.73381 0.57685 0.0
O290 O 0.35385 0.71033 0.59699 0.0
O291 O 0.28568 0.60235 0.58574 0.0
Zn292 Zn 0.23431 0.62862 0.57439 0.0
O293 O 0.19142 0.60302 0.51685 0.0
C294 C 0.17249 0.56804 0.64952 0.0
O295 O 0.19651 0.54192 0.64046 0.0
O296 O 0.28043 0.70739 0.56707 0.0
C297 C 0.1491 0.55794 0.50963 0.0
O298 O 0.13173 0.52185 0.5408 0.0
C299 C 0.28201 0.56079 0.57084 0.0
O300 O 0.24135 0.5299 0.54377 0.0
O301 O 0.18236 0.60763 0.62572 0.0
C302 C 0.57364 0.33543 0.7564 0.0
O303 O 0.61707 0.35868 0.78264 0.0
O304 O 0.6686 0.29106 0.7687 0.0
Zn305 Zn 0.58754 0.24375 0.75814 0.0
O306 O 0.57167 0.19989 0.70346 0.0
C307 C 0.58687 0.18353 0.83264 0.0
O308 O 0.63781 0.20526 0.82051 0.0
O309 O 0.5537 0.28748 0.74537 0.0
C310 C 0.59086 0.17092 0.69513 0.0
O311 O 0.62522 0.16908 0.72351 0.0
C312 C 0.70208 0.3321 0.74738 0.0
O313 O 0.68461 0.34748 0.71325 0.0
O314 O 0.55534 0.19442 0.81099 0.0
C315 C 0.38075 0.73487 0.91556 0.0
O316 O 0.33221 0.71128 0.89626 0.0
O317 O 0.29175 0.60583 0.88914 0.0
Zn318 Zn 0.37088 0.63306 0.90357 0.0
O319 O 0.37973 0.59505 0.95632 0.0
C320 C 0.37225 0.57736 0.82842 0.0
O321 O 0.32206 0.54612 0.84175 0.0
O322 O 0.40618 0.71044 0.91944 0.0
C323 C 0.41641 0.62152 0.9857 0.0
O324 O 0.44722 0.67297 0.98141 0.0
C325 C 0.25123 0.56398 0.90422 0.0
O326 O 0.25962 0.53477 0.93239 0.0
O327 O 0.40362 0.6197 0.84997 0.0
C328 C 0.63159 0.38354 0.10036 0.0
O329 O 0.62526 0.34147 0.1208 0.0
O330 O 0.66608 0.298 0.05578 0.0
Zn331 Zn 0.71625 0.37589 0.06504 0.0
O332 O 0.76301 0.39193 0.12028 0.0
C333 C 0.79654 0.38895 1.00619 0.0
O334 O 0.79788 0.35668 0.0356 0.0
O335 O 0.66972 0.40701 0.07269 0.0
C336 C 0.79406 0.44007 0.13137 0.0
O337 O 0.7949 0.47681 0.10614 0.0
C338 C 0.67274 0.26277 0.07356 0.0
O339 O 0.71486 0.27684 0.10037 0.0
O340 O 0.76384 0.40506 1.01168 0.0
C341 C 0.37388 0.66134 0.2237 0.0
O342 O 0.32948 0.65498 0.20406 0.0
O343 O 0.28865 0.6939 0.27184 0.0
Zn344 Zn 0.36772 0.74439 0.25888 0.0
O345 O 0.37883 0.78611 0.20243 0.0
C346 C 0.38977 0.82857 0.31684 0.0
O347 O 0.35789 0.83276 0.2873 0.0
O348 O 0.40036 0.69966 0.25052 0.0
C349 C 0.42821 0.81643 0.19124 0.0
O350 O 0.46717 0.819 0.21688 0.0
C351 C 0.24957 0.70057 0.26153 0.0
O352 O 0.2598 0.74348 0.24018 0.0
O353 O 0.40177 0.7934 0.31141 0.0
loop_
_geom_bond_atom_site_label_1
_geom_bond_atom_site_label_2
_geom_bond_distance
_geom_bond_site_symmetry_2
_ccdc_geom_bond_type
C0 C1 1.384 . S
C0 C2 1.384 . S
C0 H28 0.931 . S
C1 C0 1.384 . S
C1 C4 1.382 . S
C2 C0 1.384 . S
C2 C3 1.381 . S
C2 H29 0.930 . S
C3 C2 1.381 . S
C3 C5 1.381 . S
C3 C6 1.487 . S
C4 C1 1.382 . S
C4 C5 1.387 . S
C4 H30 0.930 . S
C5 C3 1.381 . S
C5 C4 1.387 . S
C5 H31 0.931 . S
C6 C3 1.487 . S
C6 C13 1.399 . S
C6 N44 1.343 . S
C7 C8 1.384 . S
C7 C9 1.384 . S
C7 H32 0.931 . S
C8 C7 1.384 . S
C8 C11 1.382 . S
C9 C7 1.384 . S
C9 C10 1.381 . S
C9 H33 0.930 . S
C10 C9 1.381 . S
C10 C12 1.381 . S
C10 C13 1.487 . S
C11 C8 1.382 . S
C11 C12 1.387 . S
C11 H34 0.930 . S
C12 C10 1.381 . S
C12 C11 1.387 . S
C12 H35 0.931 . S
C13 C6 1.399 . S
C13 C10 1.487 . S
C13 N45 1.343 1_655 S
C14 C15 1.384 . S
C14 C16 1.384 . S
C14 H36 0.931 . S
C15 C14 1.384 . S
C15 C18 1.382 . S
C16 C14 1.384 . S
C16 C17 1.381 . S
C16 H37 0.930 . S
C17 C16 1.381 . S
C17 C19 1.381 . S
C17 C20 1.487 . S
C18 C15 1.382 . S
C18 C19 1.387 . S
C18 H38 0.930 . S
C19 C17 1.381 . S
C19 C18 1.387 . S
C19 H39 0.931 . S
C20 C17 1.487 . S
C20 C27 1.399 . S
C20 N45 1.343 . S
C21 C22 1.384 . S
C21 C23 1.384 . S
C21 H40 0.931 . S
C22 C21 1.384 . S
C22 C25 1.382 . S
C23 C21 1.384 . S
C23 C24 1.381 . S
C23 H41 0.930 . S
C24 C23 1.381 . S
C24 C26 1.381 . S
C24 C27 1.487 . S
C25 C22 1.382 . S
C25 C26 1.387 . S
C25 H42 0.930 . S
C26 C24 1.381 . S
C26 C25 1.387 . S
C26 H43 0.931 . S
C27 C20 1.399 . S
C27 C24 1.487 . S
C27 N44 1.343 1_455 S
H28 C0 0.931 . S
H29 C2 0.930 . S
H30 C4 0.930 . S
H31 C5 0.931 . S
H32 C7 0.931 . S
H33 C9 0.930 . S
H34 C11 0.930 . S
H35 C12 0.931 . S
H36 C14 0.931 . S
H37 C16 0.930 . S
H38 C18 0.930 . S
H39 C19 0.931 . S
H40 C21 0.931 . S
H41 C23 0.930 . S
H42 C25 0.930 . S
H43 C26 0.931 . S
N44 C6 1.343 . S
N44 C27 1.343 1_655 S
N45 C13 1.343 1_455 S
N45 C20 1.343 . S
C46 C47 1.384 . S
C46 C48 1.384 . S
C46 H74 0.931 . S
C47 C46 1.384 . S
C47 C50 1.382 . S
C48 C46 1.384 . S
C48 C49 1.381 . S
C48 H75 0.930 . S
C49 C48 1.381 . S
C49 C51 1.381 . S
C49 C52 1.487 . S
C50 C47 1.382 . S
C50 C51 1.387 . S
C50 H76 0.930 . S
C51 C49 1.381 . S
C51 C50 1.387 . S
C51 H77 0.931 . S
C52 C49 1.487 . S
C52 C59 1.399 . S
C52 N90 1.343 . S
C53 C54 1.384 . S
C53 C55 1.384 . S
C53 H78 0.931 . S
C54 C53 1.384 . S
C54 C57 1.382 . S
C55 C53 1.384 . S
C55 C56 1.381 . S
C55 H79 0.930 . S
C56 C55 1.381 . S
C56 C58 1.381 . S
C56 C59 1.487 . S
C57 C54 1.382 . S
C57 C58 1.387 . S
C57 H80 0.930 . S
C58 C56 1.381 . S
C58 C57 1.387 . S
C58 H81 0.931 . S
C59 C52 1.399 . S
C59 C56 1.487 . S
C59 N91 1.343 1_565 S
C60 C61 1.384 . S
C60 C62 1.384 . S
C60 H82 0.931 . S
C61 C60 1.384 . S
C61 C64 1.382 . S
C62 C60 1.384 . S
C62 C63 1.381 . S
C62 H83 0.930 . S
C63 C62 1.381 . S
C63 C65 1.381 . S
C63 C66 1.487 . S
C64 C61 1.382 . S
C64 C65 1.387 . S
C64 H84 0.930 . S
C65 C63 1.381 . S
C65 C64 1.387 . S
C65 H85 0.931 . S
C66 C63 1.487 . S
C66 C73 1.399 . S
C66 N91 1.343 . S
C67 C68 1.384 . S
C67 C69 1.384 . S
C67 H86 0.931 . S
C68 C67 1.384 . S
C68 C71 1.382 . S
C69 C67 1.384 . S
C69 C70 1.381 . S
C69 H87 0.930 . S
C70 C69 1.381 . S
C70 C72 1.381 . S
C70 C73 1.487 . S
C71 C68 1.382 . S
C71 C72 1.387 . S
C71 H88 0.930 . S
C72 C70 1.381 . S
C72 C71 1.387 . S
C72 H89 0.931 . S
C73 C66 1.399 . S
C73 C70 1.487 . S
C73 N90 1.343 1_545 S
H74 C46 0.931 . S
H75 C48 0.930 . S
H76 C50 0.930 . S
H77 C51 0.931 . S
H78 C53 0.931 . S
H79 C55 0.930 . S
H80 C57 0.930 . S
H81 C58 0.931 . S
H82 C60 0.931 . S
H83 C62 0.930 . S
H84 C64 0.930 . S
H85 C65 0.931 . S
H86 C67 0.931 . S
H87 C69 0.930 . S
H88 C71 0.930 . S
H89 C72 0.931 . S
N90 C52 1.343 . S
N90 C73 1.343 1_565 S
N91 C59 1.343 1_545 S
N91 C66 1.343 . S
C92 C93 1.384 . S
C92 C94 1.384 . S
C92 H120 0.931 . S
C93 C92 1.384 . S
C93 C96 1.382 . S
C94 C92 1.384 . S
C94 C95 1.381 . S
C94 H121 0.930 . S
C95 C94 1.381 . S
C95 C97 1.381 . S
C95 C98 1.487 . S
C96 C93 1.382 . S
C96 C97 1.387 . S
C96 H122 0.930 . S
C97 C95 1.381 . S
C97 C96 1.387 . S
C97 H123 0.931 . S
C98 C95 1.487 . S
C98 C105 1.399 . S
C98 N136 1.343 . S
C99 C100 1.384 . S
C99 C101 1.384 . S
C99 H124 0.931 . S
C100 C99 1.384 . S
C100 C103 1.382 . S
C101 C99 1.384 . S
C101 C102 1.381 . S
C101 H125 0.930 . S
C102 C101 1.381 . S
C102 C104 1.381 . S
C102 C105 1.487 . S
C103 C100 1.382 . S
C103 C104 1.387 . S
C103 H126 0.930 . S
C104 C102 1.381 . S
C104 C103 1.387 . S
C104 H127 0.931 . S
C105 C98 1.399 . S
C105 C102 1.487 . S
C105 N137 1.343 . S
C106 C107 1.384 . S
C106 C108 1.384 . S
C106 H128 0.931 . S
C107 C106 1.384 . S
C107 C110 1.382 . S
C108 C106 1.384 . S
C108 C109 1.381 . S
C108 H129 0.930 . S
C109 C108 1.381 . S
C109 C111 1.381 . S
C109 C112 1.487 . S
C110 C107 1.382 . S
C110 C111 1.387 . S
C110 H130 0.930 . S
C111 C109 1.381 . S
C111 C110 1.387 . S
C111 H131 0.931 . S
C112 C109 1.487 . S
C112 C119 1.399 . S
C112 N137 1.343 . S
C113 C114 1.384 . S
C113 C115 1.384 . S
C113 H132 0.931 . S
C114 C113 1.384 . S
C114 C117 1.382 . S
C115 C113 1.384 . S
C115 C116 1.381 . S
C115 H133 0.930 . S
C116 C115 1.381 . S
C116 C118 1.381 . S
C116 C119 1.487 . S
C117 C114 1.382 . S
C117 C118 1.387 . S
C117 H134 0.930 . S
C118 C116 1.381 . S
C118 C117 1.387 . S
C118 H135 0.931 . S
C119 C112 1.399 . S
C119 C116 1.487 . S
C119 N136 1.343 . S
H120 C92 0.931 . S
H121 C94 0.930 . S
H122 C96 0.930 . S
H123 C97 0.931 . S
H124 C99 0.931 . S
H125 C101 0.930 . S
H126 C103 0.930 . S
H127 C104 0.931 . S
H128 C106 0.931 . S
H129 C108 0.930 . S
H130 C110 0.930 . S
H131 C111 0.931 . S
H132 C113 0.931 . S
H133 C115 0.930 . S
H134 C117 0.930 . S
H135 C118 0.931 . S
N136 C98 1.343 . S
N136 C119 1.343 . S
N137 C105 1.343 . S
N137 C112 1.343 . S
C138 C139 1.384 . S
C138 C140 1.384 . S
C138 H166 0.931 . S
C139 C138 1.384 . S
C139 C142 1.382 . S
C140 C138 1.384 . S
C140 C141 1.381 . S
C140 H167 0.930 . S
C141 C140 1.381 . S
C141 C143 1.381 . S
C141 C144 1.487 . S
C142 C139 1.382 . S
C142 C143 1.387 . S
C142 H168 0.930 . S
C143 C141 1.381 . S
C143 C142 1.387 . S
C143 H169 0.931 . S
C144 C141 1.487 . S
C144 C151 1.399 . S
C144 N182 1.343 . S
C145 C146 1.384 . S
C145 C147 1.384 . S
C145 H170 0.931 . S
C146 C145 1.384 . S
C146 C149 1.382 . S
C147 C145 1.384 . S
C147 C148 1.381 . S
C147 H171 0.930 . S
C148 C147 1.381 . S
C148 C150 1.381 . S
C148 C151 1.487 . S
C149 C146 1.382 . S
C149 C150 1.387 . S
C149 H172 0.930 . S
C150 C148 1.381 . S
C150 C149 1.387 . S
C150 H173 0.931 . S
C151 C144 1.399 . S
C151 C148 1.487 . S
C151 N183 1.343 1_655 S
C152 C153 1.384 . S
C152 C154 1.384 . S
C152 H174 0.931 . S
C153 C152 1.384 . S
C153 C156 1.382 . S
C154 C152 1.384 . S
C154 C155 1.381 . S
C154 H175 0.930 . S
C155 C154 1.381 . S
C155 C157 1.381 . S
C155 C158 1.487 . S
C156 C153 1.382 . S
C156 C157 1.387 . S
C156 H176 0.930 . S
C157 C155 1.381 . S
C157 C156 1.387 . S
C157 H177 0.931 . S
C158 C155 1.487 . S
C158 C165 1.399 . S
C158 N183 1.343 . S
C159 C160 1.384 . S
C159 C161 1.384 . S
C159 H178 0.931 . S
C160 C159 1.384 . S
C160 C163 1.382 . S
C161 C159 1.384 . S
C161 C162 1.381 . S
C161 H179 0.930 . S
C162 C161 1.381 . S
C162 C164 1.381 . S
C162 C165 1.487 . S
C163 C160 1.382 . S
C163 C164 1.387 . S
C163 H180 0.930 . S
C164 C162 1.381 . S
C164 C163 1.387 . S
C164 H181 0.931 . S
C165 C158 1.399 . S
C165 C162 1.487 . S
C165 N182 1.343 1_455 S
H166 C138 0.931 . S
H167 C140 0.930 . S
H168 C142 0.930 . S
H169 C143 0.931 . S
H170 C145 0.931 . S
H171 C147 0.930 . S
H172 C149 0.930 . S
H173 C150 0.931 . S
H174 C152 0.931 . S
H175 C154 0.930 . S
H176 C156 0.930 . S
H177 C157 0.931 . S
H178 C159 0.931 . S
H179 C161 0.930 . S
H180 C163 0.930 . S
H181 C164 0.931 . S
N182 C144 1.343 . S
N182 C165 1.343 1_655 S
N183 C151 1.343 1_455 S
N183 C158 1.343 . S
C184 C185 1.384 . S
C184 C186 1.384 . S
C184 H212 0.931 . S
C185 C184 1.384 . S
C185 C188 1.382 . S
C186 C184 1.384 . S
C186 C187 1.381 . S
C186 H213 0.930 1_556 S
C187 C186 1.381 . S
C187 C189 1.381 . S
C187 C190 1.487 . S
C188 C185 1.382 . S
C188 C189 1.387 . S
C188 H214 0.930 . S
C189 C187 1.381 . S
C189 C188 1.387 . S
C189 H215 0.931 . S
C190 C187 1.487 . S
C190 C197 1.399 1_556 S
C190 N228 1.343 . S
C191 C192 1.384 . S
C191 C193 1.384 . S
C191 H216 0.931 . S
C192 C191 1.384 . S
C192 C195 1.382 . S
C193 C191 1.384 . S
C193 C194 1.381 . S
C193 H217 0.930 . S
C194 C193 1.381 . S
C194 C196 1.381 . S
C194 C197 1.487 . S
C195 C192 1.382 . S
C195 C196 1.387 . S
C195 H218 0.930 . S
C196 C194 1.381 . S
C196 C195 1.387 . S
C196 H219 0.931 . S
C197 C190 1.399 1_554 S
C197 C194 1.487 . S
C197 N229 1.343 1_565 S
C198 C199 1.384 . S
C198 C200 1.384 1_554 S
C198 H220 0.938 . S
C199 C198 1.384 . S
C199 C202 1.382 . S
C200 C198 1.384 1_556 S
C200 C201 1.381 1_556 S
C200 H221 0.930 . S
C201 C200 1.381 1_554 S
C201 C203 1.381 . S
C201 C204 1.487 1_554 S
C202 C199 1.382 . S
C202 C203 1.387 . S
C202 H222 0.930 . S
C203 C201 1.381 . S
C203 C202 1.387 . S
C203 H223 0.931 . S
C204 C201 1.487 1_556 S
C204 C211 1.399 . S
C204 N229 1.343 1_556 S
C205 C206 1.384 . S
C205 C207 1.384 . S
C205 H224 0.931 . S
C206 C205 1.384 . S
C206 C209 1.382 . S
C207 C205 1.384 . S
C207 C208 1.381 . S
C207 H225 0.930 . S
C208 C207 1.381 . S
C208 C210 1.381 . S
C208 C211 1.487 . S
C209 C206 1.382 . S
C209 C210 1.387 . S
C209 H226 0.930 . S
C210 C208 1.381 . S
C210 C209 1.387 . S
C210 H227 0.931 . S
C211 C204 1.399 . S
C211 C208 1.487 . S
C211 N228 1.343 1_545 S
H212 C184 0.931 . S
H213 C186 0.930 1_554 S
H214 C188 0.930 . S
H215 C189 0.931 . S
H216 C191 0.931 . S
H217 C193 0.930 . S
H218 C195 0.930 . S
H219 C196 0.931 . S
H220 C198 0.938 . S
H221 C200 0.930 . S
H222 C202 0.930 . S
H223 C203 0.931 . S
H224 C205 0.931 . S
H225 C207 0.930 . S
H226 C209 0.930 . S
H227 C210 0.931 . S
N228 C190 1.343 . S
N228 C211 1.343 1_565 S
N229 C197 1.343 1_545 S
N229 C204 1.343 1_554 S
C230 C231 1.384 . S
C230 C232 1.384 . S
C230 H258 0.931 . S
C231 C230 1.384 . S
C231 C234 1.382 . S
C232 C230 1.384 . S
C232 C233 1.381 . S
C232 H259 0.930 . S
C233 C232 1.381 . S
C233 C235 1.381 . S
C233 C236 1.487 . S
C234 C231 1.382 . S
C234 C235 1.387 . S
C234 H260 0.930 . S
C235 C233 1.381 . S
C235 C234 1.387 . S
C235 H261 0.931 . S
C236 C233 1.487 . S
C236 C243 1.399 . S
C236 N274 1.343 . S
C237 C238 1.384 1_554 S
C237 C239 1.384 . S
C237 H262 0.931 . S
C238 C237 1.384 1_556 S
C238 C241 1.382 1_556 S
C239 C237 1.384 . S
C239 C240 1.381 . S
C239 H263 0.930 . S
C240 C239 1.381 . S
C240 C242 1.381 . S
C240 C243 1.487 . S
C241 C238 1.382 1_554 S
C241 C242 1.387 . S
C241 H264 0.930 1_554 S
C242 C240 1.381 . S
C242 C241 1.387 . S
C242 H265 0.931 . S
C243 C236 1.399 . S
C243 C240 1.487 . S
C243 N275 1.343 . S
C244 C245 1.384 . S
C244 C246 1.384 . S
C244 H266 0.931 . S
C245 C244 1.384 . S
C245 C248 1.382 . S
C246 C244 1.384 . S
C246 C247 1.381 . S
C246 H267 0.930 . S
C247 C246 1.381 . S
C247 C249 1.381 . S
C247 C250 1.487 . S
C248 C245 1.382 . S
C248 C249 1.387 . S
C248 H268 0.930 . S
C249 C247 1.381 . S
C249 C248 1.387 . S
C249 H269 0.931 . S
C250 C247 1.487 . S
C250 C257 1.399 . S
C250 N275 1.343 . S
C251 C252 1.384 . S
C251 C253 1.384 . S
C251 H270 0.931 . S
C252 C251 1.384 . S
C252 C255 1.382 . S
C253 C251 1.384 . S
C253 C254 1.381 . S
C253 H271 0.930 . S
C254 C253 1.381 . S
C254 C256 1.381 . S
C254 C257 1.487 . S
C255 C252 1.382 . S
C255 C256 1.387 . S
C255 H272 0.930 . S
C256 C254 1.381 . S
C256 C255 1.387 . S
C256 H273 0.931 . S
C257 C250 1.399 . S
C257 C254 1.487 . S
C257 N274 1.343 . S
H258 C230 0.931 . S
H259 C232 0.930 . S
H260 C234 0.930 . S
H261 C235 0.931 . S
H262 C237 0.931 . S
H263 C239 0.930 . S
H264 C241 0.930 1_556 S
H265 C242 0.931 . S
H266 C244 0.931 . S
H267 C246 0.930 . S
H268 C248 0.930 . S
H269 C249 0.931 . S
H270 C251 0.931 . S
H271 C253 0.930 . S
H272 C255 0.930 . S
H273 C256 0.931 . S
N274 C236 1.343 . S
N274 C257 1.343 . S
N275 C243 1.343 . S
N275 C250 1.343 . S
C276 O277 1.160 . S
C276 O283 1.185 . S
O277 C276 1.160 . S
O278 Zn279 1.899 . S
O278 C286 1.284 . S
Zn279 O278 1.899 . S
Zn279 O280 2.032 . S
Zn279 O283 2.086 . S
Zn279 O288 1.977 . S
O280 Zn279 2.032 . S
O280 C284 1.278 . S
C281 O282 1.203 . S
C281 O288 1.267 . S
O282 C281 1.203 . S
O283 C276 1.185 . S
O283 Zn279 2.086 . S
C284 O280 1.278 . S
C284 O285 1.211 . S
O285 C284 1.211 . S
C286 O278 1.284 . S
C286 O287 1.273 . S
O287 C286 1.273 . S
O288 Zn279 1.977 . S
O288 C281 1.267 . S
C289 O290 1.160 . S
C289 O296 1.185 . S
O290 C289 1.160 . S
O291 Zn292 1.899 . S
O291 C299 1.284 . S
Zn292 O291 1.899 . S
Zn292 O293 2.032 . S
Zn292 O296 2.086 . S
Zn292 O301 1.977 . S
O293 Zn292 2.032 . S
O293 C297 1.278 . S
C294 O295 1.203 . S
C294 O301 1.267 . S
O295 C294 1.203 . S
O296 C289 1.185 . S
O296 Zn292 2.086 . S
C297 O293 1.278 . S
C297 O298 1.211 . S
O298 C297 1.211 . S
C299 O291 1.284 . S
C299 O300 1.273 . S
O300 C299 1.273 . S
O301 Zn292 1.977 . S
O301 C294 1.267 . S
C302 O303 1.160 . S
C302 O309 1.185 . S
O303 C302 1.160 . S
O304 Zn305 1.899 . S
O304 C312 1.284 . S
Zn305 O304 1.899 . S
Zn305 O306 2.032 . S
Zn305 O309 2.086 . S
Zn305 O314 1.977 . S
O306 Zn305 2.032 . S
O306 C310 1.278 . S
C307 O308 1.203 . S
C307 O314 1.267 . S
O308 C307 1.203 . S
O309 C302 1.185 . S
O309 Zn305 2.086 . S
C310 O306 1.278 . S
C310 O311 1.211 . S
O311 C310 1.211 . S
C312 O304 1.284 . S
C312 O313 1.273 . S
O313 C312 1.273 . S
O314 Zn305 1.977 . S
O314 C307 1.267 . S
C315 O316 1.160 . S
C315 O322 1.185 . S
O316 C315 1.160 . S
O317 Zn318 1.899 . S
O317 C325 1.284 . S
Zn318 O317 1.899 . S
Zn318 O319 2.032 . S
Zn318 O322 2.086 . S
Zn318 O327 1.977 . S
O319 Zn318 2.032 . S
O319 C323 1.278 . S
C320 O321 1.203 . S
C320 O327 1.267 . S
O321 C320 1.203 . S
O322 C315 1.185 . S
O322 Zn318 2.086 . S
C323 O319 1.278 . S
C323 O324 1.211 . S
O324 C323 1.211 . S
C325 O317 1.284 . S
C325 O326 1.273 . S
O326 C325 1.273 . S
O327 Zn318 1.977 . S
O327 C320 1.267 . S
C328 O329 1.160 . S
C328 O335 1.185 . S
O329 C328 1.160 . S
O330 Zn331 1.899 . S
O330 C338 1.284 . S
Zn331 O330 1.899 . S
Zn331 O332 2.032 . S
Zn331 O335 2.086 . S
Zn331 O340 1.977 . S
O332 Zn331 2.032 . S
O332 C336 1.278 . S
C333 O334 1.203 . S
C333 O340 1.267 1_556 S
O334 C333 1.203 . S
O335 C328 1.185 . S
O335 Zn331 2.086 . S
C336 O332 1.278 . S
C336 O337 1.211 . S
O337 C336 1.211 . S
C338 O330 1.284 . S
C338 O339 1.273 . S
O339 C338 1.273 . S
O340 Zn331 1.977 . S
O340 C333 1.267 1_554 S
C341 O342 1.160 . S
C341 O348 1.185 . S
O342 C341 1.160 . S
O343 Zn344 1.899 . S
O343 C351 1.284 . S
Zn344 O343 1.899 . S
Zn344 O345 2.032 . S
Zn344 O348 2.086 . S
Zn344 O353 1.977 . S
O345 Zn344 2.032 . S
O345 C349 1.278 . S
C346 O347 1.203 . S
C346 O353 1.267 . S
O347 C346 1.203 . S
O348 C341 1.185 . S
O348 Zn344 2.086 . S
C349 O345 1.278 . S
C349 O350 1.211 . S
O350 C349 1.211 . S
C351 O343 1.284 . S
C351 O352 1.273 . S
O352 C351 1.273 . S
O353 Zn344 1.977 . S
O353 C346 1.267 . S
C351 C15 2.189 . S
C61 C276 1.808 . S
C114 C299 2.251 . S
C139 C312 1.795 . S
C315 C185 1.948 . S
C245 C328 1.674 . S
C47 C289 1.726 . S
C100 C302 1.949 . S
C153 C325 1.746 . S
C338 C199 2.251 . S
C341 C231 1.860 . S
C286 C1 2.246 . S
C22 C297 1.558 . S
C68 C310 1.402 . S
C320 C107 1.406 . S
C146 C333 1.450 . S
C349 C192 1.484 . S
C281 C252 1.358 . S
C346 C54 1.356 . S
C93 C284 1.483 . S
C294 C160 1.425 . S
C206 C307 1.406 . S
C238 C323 1.415 . S
C8 C336 1.590 . S
