# Generated by pormake.
# Topology anh, (6,3)-cn, num edge types: 1
# Building blocks:
#     Node 0, Type 0, BuildingBlock: BETFAJ_clean_sbu_0, # of connection points: 6
#     Node 1, Type 0, BuildingBlock: BETFAJ_clean_sbu_0, # of connection points: 6
#     Node 2, Type 0, BuildingBlock: BETFAJ_clean_sbu_0, # of connection points: 6
#     Node 3, Type 1, BuildingBlock: CUQRIR_clean_linker_1, # of connection points: 3
#     Node 4, Type 1, BuildingBlock: CUQRIR_clean_linker_1, # of connection points: 3
#     Node 5, Type 1, BuildingBlock: CUQRIR_clean_linker_1, # of connection points: 3
#     Node 6, Type 1, BuildingBlock: CUQRIR_clean_linker_1, # of connection points: 3
#     Node 7, Type 1, BuildingBlock: CUQRIR_clean_linker_1, # of connection points: 3
#     Node 8, Type 1, BuildingBlock: CUQRIR_clean_linker_1, # of connection points: 3
#     Edge 9, Type (0, 1), BuildingBlock: OJICUG_clean_linker_0, # of connection points: 2
#     Edge 10, Type (0, 1), BuildingBlock: OJICUG_clean_linker_0, # of connection points: 2
#     Edge 11, Type (0, 1), BuildingBlock: OJICUG_clean_linker_0, # of connection points: 2
#     Edge 12, Type (0, 1), BuildingBlock: OJICUG_clean_linker_0, # of connection points: 2
#     Edge 13, Type (0, 1), BuildingBlock: OJICUG_clean_linker_0, # of connection points: 2
#     Edge 14, Type (0, 1), BuildingBlock: OJICUG_clean_linker_0, # of connection points: 2
#     Edge 15, Type (0, 1), BuildingBlock: OJICUG_clean_linker_0, # of connection points: 2
#     Edge 16, Type (0, 1), BuildingBlock: OJICUG_clean_linker_0, # of connection points: 2
#     Edge 17, Type (0, 1), BuildingBlock: OJICUG_clean_linker_0, # of connection points: 2
#     Edge 18, Type (0, 1), BuildingBlock: OJICUG_clean_linker_0, # of connection points: 2
#     Edge 19, Type (0, 1), BuildingBlock: OJICUG_clean_linker_0, # of connection points: 2
#     Edge 20, Type (0, 1), BuildingBlock: OJICUG_clean_linker_0, # of connection points: 2
#     Edge 21, Type (0, 1), BuildingBlock: OJICUG_clean_linker_0, # of connection points: 2
#     Edge 22, Type (0, 1), BuildingBlock: OJICUG_clean_linker_0, # of connection points: 2
#     Edge 23, Type (0, 1), BuildingBlock: OJICUG_clean_linker_0, # of connection points: 2
#     Edge 24, Type (0, 1), BuildingBlock: OJICUG_clean_linker_0, # of connection points: 2
#     Edge 25, Type (0, 1), BuildingBlock: OJICUG_clean_linker_0, # of connection points: 2
#     Edge 26, Type (0, 1), BuildingBlock: OJICUG_clean_linker_0, # of connection points: 2
# Relax obj value: 0.280
# Max RMSD: 0.228
# Mean RMSD: 0.174
data_MOF--net-anh--node1-BETFAJ_clean_sbu_0--node2-CUQRIR_clean_linker_1--edge1-OJICUG_clean_linker_0
_symmetry_space_group_name_H-M    P1
_symmetry_Int_Tables_number       1
_symmetry_cell_setting            triclinic
loop_
_symmetry_equiv_pos_as_xyz
'x, y, z'
_cell_length_a     20.119058
_cell_length_b     26.758658
_cell_length_c     33.188553
_cell_angle_alpha  87.268439
_cell_angle_beta   89.738839
_cell_angle_gamma 133.78594
loop_
_atom_site_label
_atom_site_type_symbol
_atom_site_fract_x
_atom_site_fract_y
_atom_site_fract_z
_atom_type_partial_charge
Sm0 Sm 0.20298 0.4254 0.16692 0.0
Sm1 Sm 1.07978 0.43991 0.15901 0.0
C2 C 0.35262 0.44803 0.16435 0.0
C3 C 0.44724 0.51507 0.16921 0.0
C4 C 0.48609 0.57267 0.14241 0.0
C5 C 0.57012 0.63811 0.14979 0.0
C6 C 0.61739 0.64782 0.18415 0.0
C7 C 0.57888 0.59039 0.21106 0.0
C8 C 0.49427 0.52452 0.20369 0.0
C9 C 1.12742 0.4105 0.24174 0.0
C10 C 0.28344 0.58324 0.17157 0.0
C11 C 0.94836 0.43887 0.15329 0.0
C12 C 0.95089 0.49086 0.13479 0.0
C13 C 0.90076 0.50256 0.15347 0.0
C14 C 0.91112 0.55741 0.13897 0.0
C15 C 0.97173 0.60129 0.10547 0.0
C16 C 1.02126 0.589 0.08651 0.0
C17 C 1.01091 0.53409 0.1011 0.0
C18 C 0.17795 0.47639 0.08685 0.0
C19 C 0.99579 0.2818 0.17062 0.0
O20 O 0.31298 0.4435 0.13171 0.0
O21 O 0.29788 0.42116 0.19663 0.0
O22 O 1.15534 0.45571 0.21381 0.0
O23 O 1.13755 0.37029 0.23048 0.0
O24 O 0.30307 0.54682 0.16275 0.0
O25 O 0.19666 0.55141 0.17702 0.0
O26 O 0.9588 0.40802 0.12849 0.0
O27 O 0.99658 0.45772 0.18526 0.0
O28 O 1.13898 0.42143 0.1091 0.0
O29 O 0.168 0.51363 0.10341 0.0
O30 O 0.98347 0.32265 0.17917 0.0
O31 O 1.07811 0.30997 0.15756 0.0
H32 H 0.45137 0.56765 0.1158 0.0
H33 H 0.59971 0.68082 0.12765 0.0
H34 H 0.61515 0.59629 0.23728 0.0
H35 H 0.46507 0.48108 0.22511 0.0
H36 H 0.85554 0.47046 0.1799 0.0
H37 H 0.87321 0.56646 0.1546 0.0
H38 H 1.06777 0.62172 0.06051 0.0
H39 H 1.05101 0.52625 0.08646 0.0
Sm40 Sm 0.76805 1.01956 0.49002 0.0
Sm41 Sm 0.62946 0.03624 0.46663 0.0
C42 C 0.84373 0.98092 0.52771 0.0
C43 C 0.81941 0.91531 0.53895 0.0
C44 C 0.78475 0.88329 0.57827 0.0
C45 C 0.76149 0.82128 0.58885 0.0
C46 C 0.77328 0.79027 0.56044 0.0
C47 C 0.80887 0.82278 0.5213 0.0
C48 C 0.83181 0.8845 0.51071 0.0
C49 C 0.75485 0.03549 0.40863 0.0
C50 C 0.54569 0.87785 0.4755 0.0
C51 C 0.54453 0.06869 0.43274 0.0
C52 C 0.53412 0.11514 0.44619 0.0
C53 C 0.57708 0.17742 0.42346 0.0
C54 C 0.58091 0.22704 0.4391 0.0
C55 C 0.54147 0.21526 0.47776 0.0
C56 C 0.49466 0.15147 0.49959 0.0
C57 C 0.49112 0.10209 0.48406 0.0
C58 C 0.65195 0.04304 0.54942 0.0
C59 C 0.85516 0.17589 0.4715 0.0
O60 O 0.79733 0.99133 0.5467 0.0
O61 O 0.86029 1.00149 0.48926 0.0
O62 O 0.68948 1.00139 0.4352 0.0
O63 O 0.83031 0.05847 0.4243 0.0
O64 O 0.62595 0.90429 0.48928 0.0
O65 O 0.53258 0.91799 0.46223 0.0
O66 O 0.62867 0.09954 0.4212 0.0
O67 O 0.50052 1.01054 0.45494 0.0
O68 O 0.68941 0.0362 0.52301 0.0
O69 O 0.59645 0.04498 0.53186 0.0
O70 O 0.776 0.14661 0.45529 0.0
O71 O 0.86628 0.13851 0.49207 0.0
H72 H 0.77549 0.90615 0.60092 0.0
H73 H 0.73519 0.798 0.61938 0.0
H74 H 0.81763 0.79986 0.49848 0.0
H75 H 0.85887 0.90778 0.48024 0.0
H76 H 0.6109 0.1889 0.39424 0.0
H77 H 0.61647 0.27527 0.42127 0.0
H78 H 0.46447 0.14089 0.52963 0.0
H79 H 0.45797 0.05497 0.50263 0.0
Sm80 Sm 0.78241 0.65858 0.82693 0.0
Sm81 Sm 0.66493 0.52778 0.86813 0.0
C82 C 0.84527 0.76455 0.77585 0.0
C83 C 0.8285 0.81046 0.77005 0.0
C84 C 0.79483 0.81262 0.73363 0.0
C85 C 0.77821 0.85545 0.72792 0.0
C86 C 0.79584 0.89763 0.7584 0.0
C87 C 0.82945 0.89529 0.79481 0.0
C88 C 0.84531 0.85218 0.80063 0.0
C89 C 0.81935 0.67619 0.90639 0.0
C90 C 0.57036 0.58755 0.86444 0.0
C91 C 0.59278 0.40702 0.90268 0.0
C92 C 0.60806 0.36448 0.88723 0.0
C93 C 0.57533 0.30393 0.90855 0.0
C94 C 0.59172 0.26519 0.8927 0.0
C95 C 0.64195 0.28689 0.85549 0.0
C96 C 0.67431 0.34764 0.83444 0.0
C97 C 0.65725 0.38564 0.85001 0.0
C98 C 0.64871 0.52397 0.78525 0.0
C99 C 0.87989 0.59961 0.84651 0.0
O100 O 0.77798 0.6997 0.76792 0.0
O101 O 0.88739 0.77121 0.80803 0.0
O102 O 0.73718 0.63233 0.8944 0.0
O103 O 0.88058 0.70773 0.87665 0.0
O104 O 0.64331 0.63412 0.83874 0.0
O105 O 0.56644 0.54197 0.88518 0.0
O106 O 0.66558 0.46638 0.91575 0.0
O107 O 0.54676 0.41356 0.87937 0.0
O108 O 0.72289 0.55975 0.80293 0.0
O109 O 0.57949 0.48969 0.81112 0.0
O110 O 0.80336 0.55445 0.86966 0.0
O111 O 0.88805 0.645 0.82215 0.0
H112 H 0.78135 0.78113 0.70951 0.0
H113 H 0.75288 0.85632 0.69942 0.0
H114 H 0.8424 0.92622 0.81916 0.0
H115 H 0.87052 0.85151 0.82922 0.0
H116 H 0.53719 0.28662 0.9373 0.0
H117 H 0.56599 0.21875 0.90974 0.0
H118 H 0.7116 0.36532 0.80542 0.0
H119 H 0.68255 0.43184 0.83279 0.0
C120 C 0.64586 0.93239 0.18528 0.0
N121 N 0.69742 0.9853 0.21038 0.0
N122 N 0.57637 0.8707 0.20642 0.0
C123 C 0.65967 0.9414 0.1401 0.0
C124 C 0.58831 0.88802 0.24519 0.0
N125 N 0.66035 0.95721 0.24758 0.0
C126 C 0.53398 0.83626 0.28117 0.0
H127 H 0.6859 0.99229 0.12867 0.0
H128 H 0.59446 0.8991 0.12576 0.0
H129 H 0.71154 0.93986 0.13144 0.0
H130 H 0.57754 0.85394 0.30755 0.0
H131 H 0.5058 0.78462 0.27424 0.0
H132 H 0.47561 0.83074 0.28951 0.0
C133 C 0.64134 0.48937 0.55174 0.0
N134 N 0.65305 0.52373 0.58395 0.0
N135 N 0.60358 0.42481 0.56377 0.0
C136 C 0.6608 0.51685 0.50836 0.0
C137 C 0.59249 0.42104 0.60445 0.0
N138 N 0.62161 0.48084 0.61668 0.0
C139 C 0.56095 0.36139 0.63248 0.0
H140 H 0.6167 0.47382 0.48808 0.0
H141 H 0.73402 0.54722 0.49966 0.0
H142 H 0.64897 0.55154 0.50416 0.0
H143 H 0.57661 0.33325 0.61885 0.0
H144 H 0.48528 0.32465 0.63843 0.0
H145 H 0.59432 0.37969 0.66175 0.0
C146 C 0.2251 0.59158 0.8616 0.0
N147 N 0.26104 0.57339 0.88717 0.0
N148 N 1.15139 0.57828 0.87956 0.0
C149 C 0.25749 0.61796 0.81833 0.0
C150 C 1.14511 0.55197 0.91701 0.0
N151 N 0.20861 0.54792 0.92142 0.0
C152 C 1.07993 0.53412 0.95088 0.0
H153 H 0.31614 0.67517 0.81686 0.0
H154 H 0.20167 0.60569 0.80055 0.0
H155 H 0.28132 0.59512 0.80492 0.0
H156 H 1.06047 0.56391 0.94657 0.0
H157 H 1.1112 0.54512 0.98057 0.0
H158 H 1.01661 0.47788 0.95171 0.0
C159 C 0.21134 0.52534 0.46296 0.0
N160 N 0.16014 0.47307 0.43744 0.0
N161 N 0.27126 0.58847 0.44193 0.0
C162 C 0.19879 0.51514 0.50817 0.0
C163 C 0.25491 0.57265 0.40287 0.0
N164 N 0.18713 0.50309 0.40006 0.0
C165 C 0.30978 0.62544 0.3674 0.0
H166 H 1.12505 0.47083 0.51765 0.0
H167 H 0.22456 0.56272 0.52161 0.0
H168 H 0.23834 0.50313 0.51981 0.0
H169 H 0.37971 0.67247 0.37596 0.0
H170 H 0.27381 0.64114 0.35689 0.0
H171 H 0.31651 0.60346 0.342 0.0
C172 C 0.72167 0.09961 0.78102 0.0
N173 N 0.72181 0.07086 0.74833 0.0
N174 N 0.69693 0.13433 0.77096 0.0
C175 C 0.74162 0.09149 0.82313 0.0
C176 C 0.68164 0.12564 0.73117 0.0
N177 N 0.69571 0.08648 0.71738 0.0
C178 C 0.6546 0.15675 0.70573 0.0
H179 H 0.70746 0.0975 0.84593 0.0
H180 H 0.81709 0.13232 0.82665 0.0
H181 H 0.71835 0.04005 0.82881 0.0
H182 H 0.67999 0.2049 0.71807 0.0
H183 H 0.57829 0.11901 0.70584 0.0
H184 H 0.68213 0.1686 0.67407 0.0
C185 C 1.01449 0.85707 0.1058 0.0
N186 N 1.00516 0.82836 0.07126 0.0
N187 N 0.94792 0.85745 0.11144 0.0
C188 C 1.08014 0.87476 0.13753 0.0
C189 C 0.91127 0.84192 0.07443 0.0
N190 N 0.94456 0.82319 0.05057 0.0
C191 C 0.83692 0.83953 0.06284 0.0
H192 H 1.06573 0.82814 0.1486 0.0
H193 H 1.07578 0.89749 0.16331 0.0
H194 H 1.15143 0.91259 0.12377 0.0
H195 H 0.85131 0.88432 0.07429 0.0
H196 H 0.76937 0.79103 0.07641 0.0
H197 H 0.83278 0.84142 0.02957 0.0
C198 C 0.74101 0.77749 0.17501 0.0
C199 C 0.7143 0.71408 0.18609 0.0
H200 H 0.84406 0.87826 0.14416 0.0
C201 C 0.78127 0.71151 0.18614 0.0
H202 H 0.69091 0.78126 0.17609 0.0
C203 C 0.86669 0.76529 0.16665 0.0
C204 C 0.88739 0.82344 0.14759 0.0
H205 H 0.76329 0.66374 0.19501 0.0
H206 H 0.90929 0.75516 0.16139 0.0
C207 C 0.82834 0.83271 0.15645 0.0
C208 C 1.0205 0.28918 0.48092 0.0
C209 C 0.93407 0.25314 0.46448 0.0
H210 H 0.16029 0.38762 0.48523 0.0
C211 C 0.92365 0.2918 0.44009 0.0
H212 H 1.03152 0.26154 0.4998 0.0
C213 C 0.9972 0.36359 0.43188 0.0
C214 C 1.08352 0.39928 0.44784 0.0
H215 H 0.8586 0.26658 0.42684 0.0
H216 H 0.98675 0.39148 0.41289 0.0
C217 C 1.09425 0.36145 0.47278 0.0
C218 C 0.69809 0.92008 0.73593 0.0
C219 C 0.77925 0.94389 0.7527 0.0
H220 H 0.61559 0.94185 0.72198 0.0
C221 C 0.8434 1.01179 0.76547 0.0
H222 H 0.647 0.86795 0.72603 0.0
C223 C 0.82568 0.05397 0.76271 0.0
C224 C 0.74315 0.02924 0.74748 0.0
H225 H 0.90733 0.03229 0.77782 0.0
H226 H 0.87603 0.10586 0.77298 0.0
C227 C 0.68008 0.96228 0.73352 0.0
C228 C 1.07004 0.72672 0.08182 0.0
C229 C 0.98238 0.65953 0.09085 0.0
H230 H 1.14634 0.83479 0.06795 0.0
C231 C 0.90381 0.64871 0.08891 0.0
H232 H 1.13179 0.7363 0.08338 0.0
C233 C 0.91251 0.70423 0.08087 0.0
C234 C 0.99969 0.77179 0.07334 0.0
H235 H 0.83545 0.59749 0.09514 0.0
H236 H 0.85087 0.69488 0.08247 0.0
C237 C 1.07865 0.78283 0.07312 0.0
C238 C 0.38905 0.77307 0.45244 0.0
C239 C 0.47027 0.80109 0.47138 0.0
H240 H 0.26203 0.68332 0.4288 0.0
C241 C 0.47995 0.75536 0.48412 0.0
H242 H 0.37839 0.80601 0.44219 0.0
C243 C 0.41202 0.68442 0.47667 0.0
C244 C 0.33321 0.65771 0.4562 0.0
H245 H 0.54121 0.77466 0.49884 0.0
H246 H 0.42287 0.65105 0.48526 0.0
C247 C 0.32189 0.70261 0.44486 0.0
C248 C 0.74494 0.28037 0.81806 0.0
C249 C 0.65913 0.24615 0.83767 0.0
H250 H 0.82396 0.27075 0.78166 0.0
C251 C 0.58842 0.17335 0.8376 0.0
H252 H 0.80133 0.33622 0.81792 0.0
C253 C 0.60203 0.13624 0.81693 0.0
C254 C 0.68668 0.17106 0.79635 0.0
H255 H 0.52132 0.14536 0.852 0.0
H256 H 0.54571 0.08061 0.81585 0.0
C257 C 0.75843 0.24316 0.7976 0.0
C258 C 0.66393 0.66836 0.59303 0.0
C259 C 0.747 0.72355 0.5709 0.0
H260 H 0.56878 0.56072 0.6144 0.0
C261 C 0.80248 0.71319 0.55673 0.0
H262 H 0.61936 0.67445 0.6042 0.0
C263 C 0.77344 0.64838 0.5627 0.0
C264 C 0.68834 0.5925 0.58286 0.0
H265 H 0.86777 0.75493 0.54037 0.0
H266 H 0.81629 0.64121 0.55069 0.0
C267 C 0.63489 0.60337 0.59893 0.0
C268 C 1.04975 0.65233 0.84103 0.0
C269 C 0.95328 0.59554 0.8493 0.0
H270 H 0.18777 0.69247 0.8438 0.0
C271 C 0.92592 0.53251 0.86362 0.0
H272 H 1.07558 0.70219 0.83023 0.0
C273 C 0.98997 0.52655 0.87039 0.0
C274 C 1.08645 0.58357 0.86429 0.0
H275 H 0.85359 0.48687 0.87043 0.0
H276 H 0.96356 0.47684 0.88202 0.0
C277 C 1.11486 0.64663 0.84865 0.0
C278 C 0.33946 0.69401 0.19642 0.0
C279 C 0.35871 0.65946 0.17677 0.0
H280 H 0.3937 0.78853 0.2206 0.0
C281 C 0.45061 0.6983 0.16326 0.0
H282 H 0.26973 0.6663 0.20704 0.0
C283 C 0.52174 0.7689 0.1708 0.0
C284 C 0.5027 0.80205 0.19236 0.0
H285 H 0.46761 0.67395 0.14717 0.0
H286 H 0.59199 0.79706 0.16106 0.0
C287 C 0.41043 0.76414 0.20418 0.0
C288 C 0.48314 0.25437 0.5209 0.0
C289 C 0.55448 0.27074 0.49672 0.0
H290 H 0.44315 0.29141 0.56096 0.0
C291 C 0.6407 0.3399 0.49318 0.0
H292 H 0.4156 0.2019 0.52389 0.0
C293 C 0.65599 0.39079 0.51437 0.0
C294 C 0.58553 0.37368 0.53945 0.0
H295 H 0.69761 0.35421 0.47536 0.0
H296 H 0.72381 0.44309 0.51232 0.0
C297 C 0.4986 0.30536 0.54205 0.0
C298 C 0.40609 0.52747 0.8902 0.0
C299 C 0.49107 0.58498 0.86953 0.0
H300 H 0.26849 0.47687 0.9101 0.0
C301 C 0.49707 0.63837 0.85371 0.0
H302 H 0.396 0.48435 0.90263 0.0
C303 C 0.42293 0.63476 0.85896 0.0
C304 C 0.33799 0.57708 0.87986 0.0
H305 H 0.56002 0.68389 0.83754 0.0
H306 H 0.4332 0.67817 0.84715 0.0
C307 C 0.33187 0.52338 0.89488 0.0
C308 C 0.83763 0.17721 0.20132 0.0
C309 C 0.91839 0.20479 0.17948 0.0
H310 H 0.70493 0.0863 0.22818 0.0
C311 C 0.92439 0.15809 0.16751 0.0
H312 H 0.83008 0.21109 0.21128 0.0
C313 C 0.85168 0.0861 0.17713 0.0
C314 C 0.77182 0.05917 0.19935 0.0
H315 H 0.98531 0.17714 0.15078 0.0
H316 H 0.85833 0.05145 0.1678 0.0
C317 C 0.76581 0.10563 0.21126 0.0
C318 C 0.27683 0.55729 0.02687 0.0
C319 C 0.203 0.48866 0.04286 0.0
H320 H 0.33851 0.62961 0.97461 0.0
C321 C 1.14242 0.43748 0.016 0.0
H322 H 0.32377 0.59803 0.04695 0.0
C323 C 1.15043 0.45606 0.9746 0.0
C324 C 0.22008 0.52574 0.95922 0.0
H325 H 1.08373 0.38459 0.02744 0.0
H326 H 1.09768 0.41709 0.95509 0.0
C327 C 0.28576 0.57551 0.98546 0.0
C328 C 0.65441 1.00233 0.35121 0.0
C329 C 0.7393 0.02944 0.36486 0.0
H330 H 0.56405 0.95988 0.30208 0.0
C331 C 0.8041 0.04325 0.337 0.0
H332 H 0.6035 0.99181 0.37186 0.0
C333 C 0.781 1.02455 0.29706 0.0
C334 C 0.69324 0.99233 0.28451 0.0
H335 H 0.87024 0.06439 0.34666 0.0
H336 H 0.82901 0.03079 0.27681 0.0
C337 C 0.63186 0.98429 0.31136 0.0
C338 C 0.55471 0.46621 0.725 0.0
C339 C 0.64128 0.5171 0.7412 0.0
H340 H 0.48109 0.41526 0.67191 0.0
C341 C 0.7207 0.56001 0.71505 0.0
H342 H 0.49236 0.43267 0.74441 0.0
C343 C 0.71378 0.5505 0.67363 0.0
C344 C 0.6276 0.49763 0.65787 0.0
H345 H 0.78825 0.59996 0.72673 0.0
H346 H 0.77584 0.58235 0.6541 0.0
C347 C 0.54805 0.45634 0.68369 0.0
C348 C 0.74343 0.07187 0.61101 0.0
C349 C 0.66071 0.04329 0.59362 0.0
H350 H 0.81986 0.10886 0.66511 0.0
C351 C 0.58692 1.02105 0.61869 0.0
H352 H 0.8014 0.08961 0.59222 0.0
C353 C 0.59686 0.03067 0.6599 0.0
C354 C 0.68146 0.06427 0.6769 0.0
H355 H 0.52205 0.9982 0.60617 0.0
H356 H 0.53973 1.01499 0.67831 0.0
C357 C 0.75395 0.08274 0.65252 0.0
C358 C 0.94166 0.76573 0.95026 0.0
C359 C 0.84689 0.71039 0.94482 0.0
H360 H 1.04552 0.84614 0.9874 0.0
C361 C 0.78299 0.69366 0.97446 0.0
H362 H 0.99317 0.77999 0.92822 0.0
C363 C 0.81403 0.73203 0.00884 0.0
C364 C 0.90922 0.78839 0.01348 0.0
H365 H 0.70967 0.65122 0.97112 0.0
H366 H 0.76393 0.7162 0.03224 0.0
C367 C 0.97212 0.80432 0.9839 0.0
C368 C 1.14396 0.39702 0.3155 0.0
C369 C 1.12389 0.42207 0.28454 0.0
H370 H 0.18081 0.40425 0.37719 0.0
C371 C 1.11193 0.46608 0.29402 0.0
H372 H 1.15361 0.36304 0.30905 0.0
C373 C 1.12603 0.4885 0.33295 0.0
C374 C 1.15386 0.46833 0.36297 0.0
H375 H 1.09575 0.48574 0.27085 0.0
H376 H 1.11997 0.5246 0.33916 0.0
C377 C 0.15931 0.42033 0.35444 0.0
loop_
_geom_bond_atom_site_label_1
_geom_bond_atom_site_label_2
_geom_bond_distance
_geom_bond_site_symmetry_2
_ccdc_geom_bond_type
Sm0 C2 2.846 . S
Sm0 O20 2.543 . S
Sm0 O21 2.450 . S
Sm0 O22 2.681 1_455 S
Sm0 O23 2.464 . S
Sm0 O24 2.396 . S
Sm0 O28 2.386 . S
Sm0 O31 2.408 1_455 S
Sm1 C11 2.846 . S
Sm1 O22 2.386 . S
Sm1 O25 2.408 1_655 S
Sm1 O26 2.543 . S
Sm1 O27 2.450 . S
Sm1 O28 2.681 1_655 S
Sm1 O29 2.464 . S
Sm1 O30 2.396 . S
C2 Sm0 2.846 . S
C2 C3 1.506 . S
C2 O20 1.261 . S
C2 O21 1.242 . S
C3 C2 1.506 . S
C3 C4 1.358 . S
C3 C8 1.382 . S
C4 C3 1.358 . S
C4 C5 1.385 . S
C4 H32 0.930 . S
C5 C4 1.385 . S
C5 C6 1.395 . S
C5 H33 0.929 . S
C6 C5 1.395 . S
C6 C7 1.335 . S
C7 C6 1.335 . S
C7 C8 1.398 . S
C7 H34 0.930 . S
C8 C3 1.382 . S
C8 C7 1.398 . S
C8 H35 0.929 . S
C9 O22 1.271 1_455 S
C9 O23 1.251 . S
C10 O24 1.252 . S
C10 O25 1.272 . S
C11 Sm1 2.846 . S
C11 C12 1.506 . S
C11 O26 1.261 . S
C11 O27 1.242 . S
C12 C11 1.506 . S
C12 C13 1.358 . S
C12 C17 1.382 . S
C13 C12 1.358 . S
C13 C14 1.385 . S
C13 H36 0.930 . S
C14 C13 1.385 . S
C14 C15 1.395 . S
C14 H37 0.929 . S
C15 C14 1.395 . S
C15 C16 1.335 . S
C16 C15 1.335 . S
C16 C17 1.398 . S
C16 H38 0.930 . S
C17 C12 1.382 . S
C17 C16 1.398 . S
C17 H39 0.929 . S
C18 O28 1.271 . S
C18 O29 1.251 1_455 S
C19 O30 1.252 . S
C19 O31 1.272 . S
O20 Sm0 2.543 . S
O20 C2 1.261 . S
O21 Sm0 2.450 . S
O21 C2 1.242 . S
O22 Sm0 2.681 1_655 S
O22 Sm1 2.386 . S
O22 C9 1.271 1_655 S
O23 Sm0 2.464 . S
O23 C9 1.251 . S
O24 Sm0 2.396 . S
O24 C10 1.252 . S
O25 Sm1 2.408 1_455 S
O25 C10 1.272 . S
O26 Sm1 2.543 . S
O26 C11 1.261 . S
O27 Sm1 2.450 . S
O27 C11 1.242 . S
O28 Sm0 2.386 . S
O28 Sm1 2.681 1_455 S
O28 C18 1.271 . S
O29 Sm1 2.464 . S
O29 C18 1.251 1_655 S
O30 Sm1 2.396 . S
O30 C19 1.252 . S
O31 Sm0 2.408 1_655 S
O31 C19 1.272 . S
H32 C4 0.930 . S
H33 C5 0.929 . S
H34 C7 0.930 . S
H35 C8 0.929 . S
H36 C13 0.930 . S
H37 C14 0.929 . S
H38 C16 0.930 . S
H39 C17 0.929 . S
Sm40 C42 2.846 1_545 S
Sm40 O60 2.543 1_545 S
Sm40 O61 2.450 1_545 S
Sm40 O62 2.681 . S
Sm40 O63 2.464 . S
Sm40 O64 2.396 1_545 S
Sm40 O68 2.386 . S
Sm40 O71 2.408 . S
Sm41 C51 2.846 . S
Sm41 O62 2.386 . S
Sm41 O65 2.408 1_545 S
Sm41 O66 2.543 . S
Sm41 O67 2.450 . S
Sm41 O68 2.681 . S
Sm41 O69 2.464 . S
Sm41 O70 2.396 . S
C42 Sm40 2.846 1_565 S
C42 C43 1.506 . S
C42 O60 1.261 . S
C42 O61 1.242 . S
C43 C42 1.506 . S
C43 C44 1.358 . S
C43 C48 1.382 . S
C44 C43 1.358 . S
C44 C45 1.385 . S
C44 H72 0.930 . S
C45 C44 1.385 . S
C45 C46 1.395 . S
C45 H73 0.929 . S
C46 C45 1.395 . S
C46 C47 1.335 . S
C47 C46 1.335 . S
C47 C48 1.398 . S
C47 H74 0.930 . S
C48 C43 1.382 . S
C48 C47 1.398 . S
C48 H75 0.929 . S
C49 O62 1.271 . S
C49 O63 1.251 . S
C50 O64 1.252 . S
C50 O65 1.272 . S
C51 Sm41 2.846 . S
C51 C52 1.506 . S
C51 O66 1.261 . S
C51 O67 1.242 . S
C52 C51 1.506 . S
C52 C53 1.358 . S
C52 C57 1.382 . S
C53 C52 1.358 . S
C53 C54 1.385 . S
C53 H76 0.930 . S
C54 C53 1.385 . S
C54 C55 1.395 . S
C54 H77 0.929 . S
C55 C54 1.395 . S
C55 C56 1.335 . S
C56 C55 1.335 . S
C56 C57 1.398 . S
C56 H78 0.930 . S
C57 C52 1.382 . S
C57 C56 1.398 . S
C57 H79 0.929 . S
C58 O68 1.271 . S
C58 O69 1.251 . S
C59 O70 1.252 . S
C59 O71 1.272 . S
O60 Sm40 2.543 1_565 S
O60 C42 1.261 . S
O61 Sm40 2.450 1_565 S
O61 C42 1.242 . S
O62 Sm40 2.681 . S
O62 Sm41 2.386 . S
O62 C49 1.271 . S
O63 Sm40 2.464 . S
O63 C49 1.251 . S
O64 Sm40 2.396 1_565 S
O64 C50 1.252 . S
O65 Sm41 2.408 1_565 S
O65 C50 1.272 . S
O66 Sm41 2.543 . S
O66 C51 1.261 . S
O67 Sm41 2.450 . S
O67 C51 1.242 . S
O68 Sm40 2.386 . S
O68 Sm41 2.681 . S
O68 C58 1.271 . S
O69 Sm41 2.464 . S
O69 C58 1.251 . S
O70 Sm41 2.396 . S
O70 C59 1.252 . S
O71 Sm40 2.408 . S
O71 C59 1.272 . S
H72 C44 0.930 . S
H73 C45 0.929 . S
H74 C47 0.930 . S
H75 C48 0.929 . S
H76 C53 0.930 . S
H77 C54 0.929 . S
H78 C56 0.930 . S
H79 C57 0.929 . S
Sm80 C82 2.846 . S
Sm80 O100 2.543 . S
Sm80 O101 2.450 . S
Sm80 O102 2.681 . S
Sm80 O103 2.464 . S
Sm80 O104 2.396 . S
Sm80 O108 2.386 . S
Sm80 O111 2.408 . S
Sm81 C91 2.846 . S
Sm81 O102 2.386 . S
Sm81 O105 2.408 . S
Sm81 O106 2.543 . S
Sm81 O107 2.450 . S
Sm81 O108 2.681 . S
Sm81 O109 2.464 . S
Sm81 O110 2.396 . S
C82 Sm80 2.846 . S
C82 C83 1.506 . S
C82 O100 1.261 . S
C82 O101 1.242 . S
C83 C82 1.506 . S
C83 C84 1.358 . S
C83 C88 1.382 . S
C84 C83 1.358 . S
C84 C85 1.385 . S
C84 H112 0.930 . S
C85 C84 1.385 . S
C85 C86 1.395 . S
C85 H113 0.929 . S
C86 C85 1.395 . S
C86 C87 1.335 . S
C87 C86 1.335 . S
C87 C88 1.398 . S
C87 H114 0.930 . S
C88 C83 1.382 . S
C88 C87 1.398 . S
C88 H115 0.929 . S
C89 O102 1.271 . S
C89 O103 1.251 . S
C90 O104 1.252 . S
C90 O105 1.272 . S
C91 Sm81 2.846 . S
C91 C92 1.506 . S
C91 O106 1.261 . S
C91 O107 1.242 . S
C92 C91 1.506 . S
C92 C93 1.358 . S
C92 C97 1.382 . S
C93 C92 1.358 . S
C93 C94 1.385 . S
C93 H116 0.930 . S
C94 C93 1.385 . S
C94 C95 1.395 . S
C94 H117 0.929 . S
C95 C94 1.395 . S
C95 C96 1.335 . S
C96 C95 1.335 . S
C96 C97 1.398 . S
C96 H118 0.930 . S
C97 C92 1.382 . S
C97 C96 1.398 . S
C97 H119 0.929 . S
C98 O108 1.271 . S
C98 O109 1.251 . S
C99 O110 1.252 . S
C99 O111 1.272 . S
O100 Sm80 2.543 . S
O100 C82 1.261 . S
O101 Sm80 2.450 . S
O101 C82 1.242 . S
O102 Sm80 2.681 . S
O102 Sm81 2.386 . S
O102 C89 1.271 . S
O103 Sm80 2.464 . S
O103 C89 1.251 . S
O104 Sm80 2.396 . S
O104 C90 1.252 . S
O105 Sm81 2.408 . S
O105 C90 1.272 . S
O106 Sm81 2.543 . S
O106 C91 1.261 . S
O107 Sm81 2.450 . S
O107 C91 1.242 . S
O108 Sm80 2.386 . S
O108 Sm81 2.681 . S
O108 C98 1.271 . S
O109 Sm81 2.464 . S
O109 C98 1.251 . S
O110 Sm81 2.396 . S
O110 C99 1.252 . S
O111 Sm80 2.408 . S
O111 C99 1.272 . S
H112 C84 0.930 . S
H113 C85 0.929 . S
H114 C87 0.930 . S
H115 C88 0.929 . S
H116 C93 0.930 . S
H117 C94 0.929 . S
H118 C96 0.930 . S
H119 C97 0.929 . S
C120 N121 1.317 1_565 S
C120 N122 1.348 . S
C120 C123 1.485 1_565 S
N121 C120 1.317 1_545 S
N121 N125 1.370 . S
N122 C120 1.348 . S
N122 C124 1.346 . S
C123 C120 1.485 1_545 S
C123 H127 0.960 . S
C123 H128 0.961 1_545 S
C123 H129 0.960 . S
C124 N122 1.346 . S
C124 N125 1.307 1_565 S
C124 C126 1.486 . S
N125 N121 1.370 . S
N125 C124 1.307 1_545 S
C126 C124 1.486 . S
C126 H130 0.960 . S
C126 H131 0.960 . S
C126 H132 0.959 . S
H127 C123 0.960 . S
H128 C123 0.961 1_565 S
H129 C123 0.960 . S
H130 C126 0.960 . S
H131 C126 0.960 . S
H132 C126 0.959 . S
C133 N134 1.317 . S
C133 N135 1.348 . S
C133 C136 1.485 . S
N134 C133 1.317 . S
N134 N138 1.370 . S
N135 C133 1.348 . S
N135 C137 1.346 . S
C136 C133 1.485 . S
C136 H140 0.960 . S
C136 H141 0.961 . S
C136 H142 0.960 . S
C137 N135 1.346 . S
C137 N138 1.307 . S
C137 C139 1.486 . S
N138 N134 1.370 . S
N138 C137 1.307 . S
C139 C137 1.486 . S
C139 H143 0.960 . S
C139 H144 0.960 . S
C139 H145 0.959 . S
H140 C136 0.960 . S
H141 C136 0.961 . S
H142 C136 0.960 . S
H143 C139 0.960 . S
H144 C139 0.960 . S
H145 C139 0.959 . S
C146 N147 1.317 . S
C146 N148 1.348 . S
C146 C149 1.485 . S
N147 C146 1.317 . S
N147 N151 1.370 . S
N148 C146 1.348 . S
N148 C150 1.346 . S
C149 C146 1.485 . S
C149 H153 0.960 . S
C149 H154 0.961 . S
C149 H155 0.960 . S
C150 N148 1.346 . S
C150 N151 1.307 . S
C150 C152 1.486 1_455 S
N151 N147 1.370 . S
N151 C150 1.307 . S
C152 C150 1.486 1_655 S
C152 H156 0.960 . S
C152 H157 0.960 . S
C152 H158 0.959 . S
H153 C149 0.960 . S
H154 C149 0.961 . S
H155 C149 0.960 . S
H156 C152 0.960 . S
H157 C152 0.960 . S
H158 C152 0.959 . S
C159 N160 1.317 . S
C159 N161 1.348 . S
C159 C162 1.485 . S
N160 C159 1.317 . S
N160 N164 1.370 . S
N161 C159 1.348 . S
N161 C163 1.346 . S
C162 C159 1.485 . S
C162 H166 0.960 . S
C162 H167 0.961 . S
C162 H168 0.960 . S
C163 N161 1.346 . S
C163 N164 1.307 . S
C163 C165 1.486 . S
N164 N160 1.370 . S
N164 C163 1.307 . S
C165 C163 1.486 . S
C165 H169 0.960 . S
C165 H170 0.960 . S
C165 H171 0.959 . S
H166 C162 0.960 . S
H167 C162 0.961 . S
H168 C162 0.960 . S
H169 C165 0.960 . S
H170 C165 0.960 . S
H171 C165 0.959 . S
C172 N173 1.317 . S
C172 N174 1.348 . S
C172 C175 1.485 . S
N173 C172 1.317 . S
N173 N177 1.370 . S
N174 C172 1.348 . S
N174 C176 1.346 . S
C175 C172 1.485 . S
C175 H179 0.960 . S
C175 H180 0.961 . S
C175 H181 0.960 . S
C176 N174 1.346 . S
C176 N177 1.307 . S
C176 C178 1.486 . S
N177 N173 1.370 . S
N177 C176 1.307 . S
C178 C176 1.486 . S
C178 H182 0.960 . S
C178 H183 0.960 . S
C178 H184 0.959 . S
H179 C175 0.960 . S
H180 C175 0.961 . S
H181 C175 0.960 . S
H182 C178 0.960 . S
H183 C178 0.960 . S
H184 C178 0.959 . S
C185 N186 1.317 . S
C185 N187 1.348 . S
C185 C188 1.485 . S
N186 C185 1.317 . S
N186 N190 1.370 . S
N187 C185 1.348 . S
N187 C189 1.346 . S
C188 C185 1.485 . S
C188 H192 0.960 . S
C188 H193 0.961 . S
C188 H194 0.960 . S
C189 N187 1.346 . S
C189 N190 1.307 . S
C189 C191 1.486 . S
N190 N186 1.370 . S
N190 C189 1.307 . S
C191 C189 1.486 . S
C191 H195 0.960 . S
C191 H196 0.960 . S
C191 H197 0.959 . S
H192 C188 0.960 . S
H193 C188 0.961 . S
H194 C188 0.960 . S
H195 C191 0.960 . S
H196 C191 0.960 . S
H197 C191 0.959 . S
C198 C199 1.387 . S
C198 H202 0.950 . S
C198 C207 1.390 . S
C199 C198 1.387 . S
C199 C201 1.387 . S
H200 C207 0.950 . S
C201 C199 1.387 . S
C201 C203 1.390 . S
C201 H205 0.950 . S
H202 C198 0.950 . S
C203 C201 1.390 . S
C203 C204 1.387 . S
C203 H206 0.950 . S
C204 C203 1.387 . S
C204 C207 1.387 . S
H205 C201 0.950 . S
H206 C203 0.950 . S
C207 C198 1.390 . S
C207 H200 0.950 . S
C207 C204 1.387 . S
C208 C209 1.387 . S
C208 H212 0.950 . S
C208 C217 1.390 . S
C209 C208 1.387 . S
C209 C211 1.387 . S
H210 C217 0.950 . S
C211 C209 1.387 . S
C211 C213 1.390 . S
C211 H215 0.950 . S
H212 C208 0.950 . S
C213 C211 1.390 . S
C213 C214 1.387 . S
C213 H216 0.950 . S
C214 C213 1.387 . S
C214 C217 1.387 . S
H215 C211 0.950 . S
H216 C213 0.950 . S
C217 C208 1.390 . S
C217 H210 0.950 . S
C217 C214 1.387 . S
C218 C219 1.387 . S
C218 H222 0.950 . S
C218 C227 1.390 . S
C219 C218 1.387 . S
C219 C221 1.387 . S
H220 C227 0.950 . S
C221 C219 1.387 . S
C221 C223 1.390 1_565 S
C221 H225 0.950 1_565 S
H222 C218 0.950 . S
C223 C221 1.390 1_545 S
C223 C224 1.387 1_545 S
C223 H226 0.950 . S
C224 C223 1.387 1_565 S
C224 C227 1.387 . S
H225 C221 0.950 1_545 S
H226 C223 0.950 . S
C227 C218 1.390 . S
C227 H220 0.950 . S
C227 C224 1.387 . S
C228 C229 1.387 . S
C228 H232 0.950 . S
C228 C237 1.390 . S
C229 C228 1.387 . S
C229 C231 1.387 . S
H230 C237 0.950 . S
C231 C229 1.387 . S
C231 C233 1.390 . S
C231 H235 0.950 . S
H232 C228 0.950 . S
C233 C231 1.390 . S
C233 C234 1.387 . S
C233 H236 0.950 . S
C234 C233 1.387 . S
C234 C237 1.387 . S
H235 C231 0.950 . S
H236 C233 0.950 . S
C237 C228 1.390 . S
C237 H230 0.950 . S
C237 C234 1.387 . S
C238 C239 1.387 . S
C238 H242 0.950 . S
C238 C247 1.390 . S
C239 C238 1.387 . S
C239 C241 1.387 . S
H240 C247 0.950 . S
C241 C239 1.387 . S
C241 C243 1.390 . S
C241 H245 0.950 . S
H242 C238 0.950 . S
C243 C241 1.390 . S
C243 C244 1.387 . S
C243 H246 0.950 . S
C244 C243 1.387 . S
C244 C247 1.387 . S
H245 C241 0.950 . S
H246 C243 0.950 . S
C247 C238 1.390 . S
C247 H240 0.950 . S
C247 C244 1.387 . S
C248 C249 1.387 . S
C248 H252 0.950 . S
C248 C257 1.390 . S
C249 C248 1.387 . S
C249 C251 1.387 . S
H250 C257 0.950 . S
C251 C249 1.387 . S
C251 C253 1.390 . S
C251 H255 0.950 . S
H252 C248 0.950 . S
C253 C251 1.390 . S
C253 C254 1.387 . S
C253 H256 0.950 . S
C254 C253 1.387 . S
C254 C257 1.387 . S
H255 C251 0.950 . S
H256 C253 0.950 . S
C257 C248 1.390 . S
C257 H250 0.950 . S
C257 C254 1.387 . S
C258 C259 1.387 . S
C258 H262 0.950 . S
C258 C267 1.390 . S
C259 C258 1.387 . S
C259 C261 1.387 . S
H260 C267 0.950 . S
C261 C259 1.387 . S
C261 C263 1.390 . S
C261 H265 0.950 . S
H262 C258 0.950 . S
C263 C261 1.390 . S
C263 C264 1.387 . S
C263 H266 0.950 . S
C264 C263 1.387 . S
C264 C267 1.387 . S
H265 C261 0.950 . S
H266 C263 0.950 . S
C267 C258 1.390 . S
C267 H260 0.950 . S
C267 C264 1.387 . S
C268 C269 1.387 . S
C268 H272 0.950 . S
C268 C277 1.390 . S
C269 C268 1.387 . S
C269 C271 1.387 . S
H270 C277 0.950 . S
C271 C269 1.387 . S
C271 C273 1.390 . S
C271 H275 0.950 . S
H272 C268 0.950 . S
C273 C271 1.390 . S
C273 C274 1.387 . S
C273 H276 0.950 . S
C274 C273 1.387 . S
C274 C277 1.387 . S
H275 C271 0.950 . S
H276 C273 0.950 . S
C277 C268 1.390 . S
C277 H270 0.950 . S
C277 C274 1.387 . S
C278 C279 1.387 . S
C278 H282 0.950 . S
C278 C287 1.390 . S
C279 C278 1.387 . S
C279 C281 1.387 . S
H280 C287 0.950 . S
C281 C279 1.387 . S
C281 C283 1.390 . S
C281 H285 0.950 . S
H282 C278 0.950 . S
C283 C281 1.390 . S
C283 C284 1.387 . S
C283 H286 0.950 . S
C284 C283 1.387 . S
C284 C287 1.387 . S
H285 C281 0.950 . S
H286 C283 0.950 . S
C287 C278 1.390 . S
C287 H280 0.950 . S
C287 C284 1.387 . S
C288 C289 1.387 . S
C288 H292 0.950 . S
C288 C297 1.390 . S
C289 C288 1.387 . S
C289 C291 1.387 . S
H290 C297 0.950 . S
C291 C289 1.387 . S
C291 C293 1.390 . S
C291 H295 0.950 . S
H292 C288 0.950 . S
C293 C291 1.390 . S
C293 C294 1.387 . S
C293 H296 0.950 . S
C294 C293 1.387 . S
C294 C297 1.387 . S
H295 C291 0.950 . S
H296 C293 0.950 . S
C297 C288 1.390 . S
C297 H290 0.950 . S
C297 C294 1.387 . S
C298 C299 1.387 . S
C298 H302 0.950 . S
C298 C307 1.390 . S
C299 C298 1.387 . S
C299 C301 1.387 . S
H300 C307 0.950 . S
C301 C299 1.387 . S
C301 C303 1.390 . S
C301 H305 0.950 . S
H302 C298 0.950 . S
C303 C301 1.390 . S
C303 C304 1.387 . S
C303 H306 0.950 . S
C304 C303 1.387 . S
C304 C307 1.387 . S
H305 C301 0.950 . S
H306 C303 0.950 . S
C307 C298 1.390 . S
C307 H300 0.950 . S
C307 C304 1.387 . S
C308 C309 1.387 . S
C308 H312 0.950 . S
C308 C317 1.390 . S
C309 C308 1.387 . S
C309 C311 1.387 . S
H310 C317 0.950 . S
C311 C309 1.387 . S
C311 C313 1.390 . S
C311 H315 0.950 . S
H312 C308 0.950 . S
C313 C311 1.390 . S
C313 C314 1.387 . S
C313 H316 0.950 . S
C314 C313 1.387 . S
C314 C317 1.387 . S
H315 C311 0.950 . S
H316 C313 0.950 . S
C317 C308 1.390 . S
C317 H310 0.950 . S
C317 C314 1.387 . S
C318 C319 1.387 . S
C318 H322 0.950 . S
C318 C327 1.390 1_554 S
C319 C318 1.387 . S
C319 C321 1.387 1_455 S
H320 C327 0.950 . S
C321 C319 1.387 1_655 S
C321 C323 1.390 1_554 S
C321 H325 0.950 . S
H322 C318 0.950 . S
C323 C321 1.390 1_556 S
C323 C324 1.387 1_655 S
C323 H326 0.950 . S
C324 C323 1.387 1_455 S
C324 C327 1.387 . S
H325 C321 0.950 . S
H326 C323 0.950 . S
C327 C318 1.390 1_556 S
C327 H320 0.950 . S
C327 C324 1.387 . S
C328 C329 1.387 . S
C328 H332 0.950 . S
C328 C337 1.390 . S
C329 C328 1.387 . S
C329 C331 1.387 . S
H330 C337 0.950 . S
C331 C329 1.387 . S
C331 C333 1.390 . S
C331 H335 0.950 . S
H332 C328 0.950 . S
C333 C331 1.390 . S
C333 C334 1.387 . S
C333 H336 0.950 . S
C334 C333 1.387 . S
C334 C337 1.387 . S
H335 C331 0.950 . S
H336 C333 0.950 . S
C337 C328 1.390 . S
C337 H330 0.950 . S
C337 C334 1.387 . S
C338 C339 1.387 . S
C338 H342 0.950 . S
C338 C347 1.390 . S
C339 C338 1.387 . S
C339 C341 1.387 . S
H340 C347 0.950 . S
C341 C339 1.387 . S
C341 C343 1.390 . S
C341 H345 0.950 . S
H342 C338 0.950 . S
C343 C341 1.390 . S
C343 C344 1.387 . S
C343 H346 0.950 . S
C344 C343 1.387 . S
C344 C347 1.387 . S
H345 C341 0.950 . S
H346 C343 0.950 . S
C347 C338 1.390 . S
C347 H340 0.950 . S
C347 C344 1.387 . S
C348 C349 1.387 . S
C348 H352 0.950 . S
C348 C357 1.390 . S
C349 C348 1.387 . S
C349 C351 1.387 1_545 S
H350 C357 0.950 . S
C351 C349 1.387 1_565 S
C351 C353 1.390 . S
C351 H355 0.950 . S
H352 C348 0.950 . S
C353 C351 1.390 . S
C353 C354 1.387 1_565 S
C353 H356 0.950 . S
C354 C353 1.387 1_545 S
C354 C357 1.387 . S
H355 C351 0.950 . S
H356 C353 0.950 . S
C357 C348 1.390 . S
C357 H350 0.950 . S
C357 C354 1.387 . S
C358 C359 1.387 . S
C358 H362 0.950 . S
C358 C367 1.390 1_556 S
C359 C358 1.387 . S
C359 C361 1.387 . S
H360 C367 0.950 . S
C361 C359 1.387 . S
C361 C363 1.390 1_556 S
C361 H365 0.950 . S
H362 C358 0.950 . S
C363 C361 1.390 1_554 S
C363 C364 1.387 . S
C363 H366 0.950 . S
C364 C363 1.387 . S
C364 C367 1.387 . S
H365 C361 0.950 . S
H366 C363 0.950 . S
C367 C358 1.390 1_554 S
C367 H360 0.950 . S
C367 C364 1.387 . S
C368 C369 1.387 . S
C368 H372 0.950 . S
C368 C377 1.390 . S
C369 C368 1.387 . S
C369 C371 1.387 1_655 S
H370 C377 0.950 . S
C371 C369 1.387 1_455 S
C371 C373 1.390 . S
C371 H375 0.950 . S
H372 C368 0.950 . S
C373 C371 1.390 . S
C373 C374 1.387 . S
C373 H376 0.950 . S
C374 C373 1.387 . S
C374 C377 1.387 1_455 S
H375 C371 0.950 . S
H376 C373 0.950 . S
C377 C368 1.390 . S
C377 H370 0.950 . S
C377 C374 1.387 1_655 S
C199 C6 0.788 . S
C204 N187 0.814 . S
C209 C59 1.863 . S
C214 N160 1.862 1_655 S
C219 C86 1.373 . S
C224 N173 1.373 1_565 S
C229 C15 1.041 . S
C234 N186 1.167 . S
C244 N161 1.985 . S
C239 C50 1.993 . S
C254 N174 1.507 . S
C249 C95 1.434 . S
C259 C46 1.187 . S
C264 N134 1.189 . S
C269 C99 2.945 . S
C274 N148 2.898 1_655 S
C279 C10 2.025 . S
C284 N122 2.040 . S
C294 N135 1.565 . S
C289 C55 1.475 . S
C304 N147 3.287 . S
C299 C90 3.242 . S
C309 C19 1.870 . S
C314 N121 1.905 . S
C324 N151 1.767 . S
C319 C18 1.773 . S
C329 C49 1.443 . S
C334 N125 1.454 . S
C339 C98 1.469 . S
C344 N138 1.580 . S
C354 N177 1.525 . S
C349 C58 1.444 . S
C364 N190 1.158 . S
C359 C89 1.179 . S
C369 C9 1.392 1_655 S
C374 N164 1.425 . S
