# Generated by pormake.
# Topology anh, (6,3)-cn, num edge types: 1
# Building blocks:
#     Node 0, Type 0, BuildingBlock: INOVEN_clean_sbu_0, # of connection points: 6
#     Node 1, Type 0, BuildingBlock: INOVEN_clean_sbu_0, # of connection points: 6
#     Node 2, Type 0, BuildingBlock: INOVEN_clean_sbu_0, # of connection points: 6
#     Node 3, Type 1, BuildingBlock: MIDCAF_clean_linker_0, # of connection points: 3
#     Node 4, Type 1, BuildingBlock: MIDCAF_clean_linker_0, # of connection points: 3
#     Node 5, Type 1, BuildingBlock: MIDCAF_clean_linker_0, # of connection points: 3
#     Node 6, Type 1, BuildingBlock: MIDCAF_clean_linker_0, # of connection points: 3
#     Node 7, Type 1, BuildingBlock: MIDCAF_clean_linker_0, # of connection points: 3
#     Node 8, Type 1, BuildingBlock: MIDCAF_clean_linker_0, # of connection points: 3
#     Edge 9, Type (0, 1), BuildingBlock: EZIPEK_clean_linker_0, # of connection points: 2
#     Edge 10, Type (0, 1), BuildingBlock: EZIPEK_clean_linker_0, # of connection points: 2
#     Edge 11, Type (0, 1), BuildingBlock: EZIPEK_clean_linker_0, # of connection points: 2
#     Edge 12, Type (0, 1), BuildingBlock: EZIPEK_clean_linker_0, # of connection points: 2
#     Edge 13, Type (0, 1), BuildingBlock: EZIPEK_clean_linker_0, # of connection points: 2
#     Edge 14, Type (0, 1), BuildingBlock: EZIPEK_clean_linker_0, # of connection points: 2
#     Edge 15, Type (0, 1), BuildingBlock: EZIPEK_clean_linker_0, # of connection points: 2
#     Edge 16, Type (0, 1), BuildingBlock: EZIPEK_clean_linker_0, # of connection points: 2
#     Edge 17, Type (0, 1), BuildingBlock: EZIPEK_clean_linker_0, # of connection points: 2
#     Edge 18, Type (0, 1), BuildingBlock: EZIPEK_clean_linker_0, # of connection points: 2
#     Edge 19, Type (0, 1), BuildingBlock: EZIPEK_clean_linker_0, # of connection points: 2
#     Edge 20, Type (0, 1), BuildingBlock: EZIPEK_clean_linker_0, # of connection points: 2
#     Edge 21, Type (0, 1), BuildingBlock: EZIPEK_clean_linker_0, # of connection points: 2
#     Edge 22, Type (0, 1), BuildingBlock: EZIPEK_clean_linker_0, # of connection points: 2
#     Edge 23, Type (0, 1), BuildingBlock: EZIPEK_clean_linker_0, # of connection points: 2
#     Edge 24, Type (0, 1), BuildingBlock: EZIPEK_clean_linker_0, # of connection points: 2
#     Edge 25, Type (0, 1), BuildingBlock: EZIPEK_clean_linker_0, # of connection points: 2
#     Edge 26, Type (0, 1), BuildingBlock: EZIPEK_clean_linker_0, # of connection points: 2
# Relax obj value: 0.210
# Max RMSD: 0.229
# Mean RMSD: 0.167
data_MOF--net-anh--node1-INOVEN_clean_sbu_0--node2-MIDCAF_clean_linker_0--edge1-EZIPEK_clean_linker_0
_symmetry_space_group_name_H-M    P1
_symmetry_Int_Tables_number       1
_symmetry_cell_setting            triclinic
loop_
_symmetry_equiv_pos_as_xyz
'x, y, z'
_cell_length_a     30.518258
_cell_length_b     35.628377
_cell_length_c     52.204828
_cell_angle_alpha  92.580353
_cell_angle_beta   89.86183
_cell_angle_gamma 130.49442
loop_
_atom_site_label
_atom_site_type_symbol
_atom_site_fract_x
_atom_site_fract_y
_atom_site_fract_z
_atom_type_partial_charge
Gd0 Gd 0.1036 0.51514 0.14837 0.0
Gd1 Gd 1.0328 0.54524 0.15059 0.0
C2 C 0.17079 0.63376 0.14904 0.0
C3 C 0.17314 0.49886 0.13942 0.0
C4 C 0.23237 0.5241 0.13238 0.0
C5 C 0.24686 0.49507 0.12565 0.0
C6 C 0.27554 0.57587 0.13498 0.0
C7 C 0.34779 0.56855 0.12624 0.0
C8 C 0.33334 0.59815 0.13182 0.0
C9 C 0.3042 0.51714 0.1226 0.0
C10 C 0.0663 0.51475 0.19553 0.0
C11 C 0.96663 0.42855 0.14877 0.0
C12 C 0.97579 0.57051 0.1676 0.0
C13 C 0.91703 0.53791 0.17763 0.0
C14 C 0.87034 0.52302 0.16198 0.0
C15 C 0.90612 0.51619 0.20139 0.0
C16 C 0.80343 0.46199 0.19209 0.0
C17 C 0.8496 0.47855 0.2086 0.0
C18 C 0.81406 0.48525 0.16911 0.0
C19 C 1.04251 0.52012 0.10231 0.0
O20 O 0.17541 0.59921 0.14998 0.0
O21 O 0.11964 0.62186 0.14751 0.0
O22 O 0.16724 0.51182 0.16211 0.0
O23 O 0.13777 0.49195 0.12174 0.0
O24 O 0.06864 0.48149 0.18697 0.0
O25 O 0.08522 0.54631 0.17916 0.0
O26 O 0.96637 0.46341 0.15851 0.0
O27 O 1.01433 0.44107 0.13895 0.0
O28 O 0.97987 0.56462 0.14299 0.0
O29 O 1.01492 0.5754 0.18151 0.0
O30 O 0.99604 0.51002 0.11077 0.0
O31 O 0.08219 0.54477 0.11948 0.0
H32 H 0.21402 0.45512 0.12372 0.0
H33 H 0.26479 0.59871 0.14029 0.0
H34 H 0.36667 0.63792 0.1345 0.0
H35 H 0.31484 0.49391 0.11816 0.0
H36 H 0.87732 0.53907 0.14368 0.0
H37 H 0.94111 0.52684 0.21402 0.0
H38 H 0.84193 0.46142 0.22658 0.0
H39 H 0.77859 0.47317 0.15632 0.0
Gd40 Gd 0.62041 0.02475 0.46897 0.0
Gd41 Gd 0.5453 0.05109 0.46307 0.0
C42 C 0.47962 0.93472 0.46174 0.0
C43 C 0.66761 0.9906 0.48567 0.0
C44 C 0.6537 0.94306 0.48971 0.0
C45 C 0.68354 0.93117 0.47624 0.0
C46 C 0.61441 0.91113 0.50818 0.0
C47 C 0.63808 0.85833 0.50068 0.0
C48 C 0.6068 0.86916 0.51364 0.0
C49 C 0.67558 0.88902 0.48157 0.0
C50 C 0.60491 0.03678 0.42014 0.0
C51 C 0.68709 0.14059 0.46711 0.0
C52 C 0.50207 0.09021 0.44944 0.0
C53 C 0.51654 0.13737 0.4574 0.0
C54 C 0.544 0.16093 0.48141 0.0
C55 C 0.50383 0.15953 0.44099 0.0
C56 C 0.54344 0.22707 0.47301 0.0
C57 C 0.51741 0.20429 0.44871 0.0
C58 C 0.55703 0.20531 0.48921 0.0
C59 C 0.56394 0.04285 0.51236 0.0
O60 O 0.53022 0.94856 0.46886 0.0
O61 O 0.47554 0.96813 0.45555 0.0
O62 O 0.67092 1.00238 0.46194 0.0
O63 O 0.64354 1.00282 0.50058 0.0
O64 O 0.652 0.04812 0.42916 0.0
O65 O 0.56632 0.01546 0.43663 0.0
O66 O 0.63578 0.12652 0.46142 0.0
O67 O 0.69211 0.10793 0.47353 0.0
O68 O 0.48019 0.05795 0.4671 0.0
O69 O 0.54108 0.09371 0.43634 0.0
O70 O 0.5174 0.03289 0.50384 0.0
O71 O 0.60027 0.06143 0.49494 0.0
H72 H 0.71426 0.95524 0.46203 0.0
H73 H 0.59067 0.91917 0.5189 0.0
H74 H 0.57768 0.84584 0.52845 0.0
H75 H 0.70009 0.8812 0.47141 0.0
H76 H 0.55493 0.14478 0.49421 0.0
H77 H 0.48319 0.1421 0.42231 0.0
H78 H 0.50684 0.22077 0.43598 0.0
H79 H 0.57744 0.2226 0.50794 0.0
Gd80 Gd 0.62812 0.57948 0.84031 0.0
Gd81 Gd 0.54708 0.472 0.84227 0.0
C82 C 0.48401 0.52205 0.84458 0.0
C83 C 0.67986 0.66855 0.82699 0.0
C84 C 0.66558 0.70034 0.82185 0.0
C85 C 0.69288 0.74483 0.8366 0.0
C86 C 0.62742 0.68834 0.80152 0.0
C87 C 0.64606 0.7654 0.81021 0.0
C88 C 0.61777 0.72054 0.79578 0.0
C89 C 0.68307 0.77698 0.8309 0.0
C90 C 0.61093 0.54763 0.8882 0.0
C91 C 0.69234 0.53137 0.84199 0.0
C92 C 0.49545 0.38104 0.85211 0.0
C93 C 0.50544 0.34615 0.84599 0.0
C94 C 0.45827 0.29548 0.84172 0.0
C95 C 0.56138 0.36308 0.84284 0.0
C96 C 0.52264 0.27984 0.82968 0.0
C97 C 0.5699 0.33035 0.83456 0.0
C98 C 0.46678 0.26252 0.83384 0.0
C99 C 0.56366 0.50253 0.79436 0.0
O100 O 0.5386 0.56323 0.84049 0.0
O101 O 0.4771 0.48111 0.84767 0.0
O102 O 0.67842 0.65777 0.85077 0.0
O103 O 0.6594 0.6312 0.81057 0.0
O104 O 0.66094 0.58428 0.87981 0.0
O105 O 0.57287 0.53029 0.87063 0.0
O106 O 0.63732 0.48964 0.84452 0.0
O107 O 0.69999 0.57245 0.83844 0.0
O108 O 0.4812 0.39327 0.83261 0.0
O109 O 0.53256 0.41889 0.86803 0.0
O110 O 0.51456 0.46477 0.80252 0.0
O111 O 0.60297 0.52101 0.81145 0.0
H112 H 0.7227 0.7552 0.85227 0.0
H113 H 0.60577 0.65454 0.78969 0.0
H114 H 0.58906 0.7109 0.77975 0.0
H115 H 0.70535 0.81144 0.84226 0.0
H116 H 0.41473 0.28151 0.84404 0.0
H117 H 0.59849 0.40169 0.8464 0.0
H118 H 0.61336 0.34453 0.83163 0.0
H119 H 0.4297 0.2237 0.83028 0.0
C120 C 0.4259 0.85116 0.17713 0.0
C121 C 0.38525 0.842 0.15929 0.0
C122 C 0.3975 0.88289 0.14769 0.0
C123 C 0.44793 0.9319 0.1549 0.0
H124 H 0.66181 0.10049 0.14105 0.0
H125 H 0.74543 0.18302 0.12704 0.0
H126 H 0.74842 0.25024 0.19836 0.0
H127 H 0.66599 0.16943 0.21227 0.0
H128 H 0.66536 0.10002 0.26084 0.0
H129 H 0.6682 0.09757 0.3076 0.0
H130 H 0.48773 0.96805 0.30513 0.0
H131 H 0.48492 0.96921 0.25828 0.0
H132 H 0.50449 0.90492 0.19904 0.0
H133 H 0.41792 0.82069 0.18637 0.0
H134 H 0.36683 0.87699 0.13391 0.0
H135 H 0.45435 0.96257 0.14683 0.0
N136 N 0.57116 0.03434 0.17496 0.0
N137 N 0.61192 0.07724 0.21533 0.0
N138 N 0.5342 0.99238 0.21327 0.0
C139 C 0.61156 0.07807 0.18928 0.0
C140 C 0.57355 0.03492 0.22744 0.0
C141 C 0.53214 0.99103 0.18724 0.0
C142 C 0.65677 0.12757 0.17795 0.0
C143 C 0.67953 0.13289 0.15352 0.0
C144 C 0.72765 0.18019 0.14554 0.0
C145 C 0.75395 0.22325 0.16174 0.0
C146 C 0.72962 0.21801 0.18552 0.0
C147 C 0.68211 0.17127 0.19345 0.0
C148 C 0.57498 0.03472 0.25583 0.0
C149 C 0.62625 0.07104 0.27024 0.0
C150 C 0.62799 0.06962 0.29693 0.0
C151 C 0.57824 0.03247 0.30982 0.0
C152 C 0.52666 0.99679 0.29555 0.0
C153 C 0.5252 0.99754 0.26879 0.0
C154 C 0.48705 0.94098 0.17388 0.0
C155 C 0.47576 0.89964 0.18428 0.0
C156 C 0.6156 0.41462 0.54345 0.0
C157 C 0.59537 0.40387 0.51788 0.0
C158 C 0.58619 0.43332 0.50653 0.0
C159 C 0.59582 0.47243 0.52087 0.0
H160 H 0.62364 0.60547 0.5165 0.0
H161 H 0.62623 0.66921 0.49837 0.0
H162 H 0.61897 0.71729 0.57427 0.0
H163 H 0.61652 0.65426 0.59266 0.0
H164 H 0.60272 0.598 0.64041 0.0
H165 H 0.58805 0.58423 0.68547 0.0
H166 H 0.62844 0.4887 0.67809 0.0
H167 H 0.6416 0.50146 0.6331 0.0
H168 H 0.63931 0.45995 0.5777 0.0
H169 H 0.62282 0.39217 0.55247 0.0
H170 H 0.57039 0.42531 0.48678 0.0
H171 H 0.58708 0.49384 0.51183 0.0
N172 N 0.61866 0.55424 0.55238 0.0
N173 N 0.62147 0.58556 0.59347 0.0
N174 N 0.62062 0.51946 0.58901 0.0
C175 C 0.62029 0.58731 0.56753 0.0
C176 C 0.62187 0.55191 0.60437 0.0
C177 C 0.61897 0.52023 0.56305 0.0
C178 C 0.62012 0.62471 0.5561 0.0
C179 C 0.62231 0.6294 0.52937 0.0
C180 C 0.62368 0.66569 0.51893 0.0
C181 C 0.62263 0.69771 0.53502 0.0
C182 C 0.61965 0.69276 0.56158 0.0
C183 C 0.61842 0.6567 0.57202 0.0
C184 C 0.61892 0.54778 0.63259 0.0
C185 C 0.60603 0.57226 0.64826 0.0
C186 C 0.59547 0.56274 0.67424 0.0
C187 C 0.5941 0.52629 0.68515 0.0
C188 C 0.6173 0.50906 0.6702 0.0
C189 C 0.62739 0.51808 0.64416 0.0
C190 C 0.61416 0.48225 0.54686 0.0
C191 C 0.62479 0.45332 0.55782 0.0
C192 C 0.93492 0.55109 0.87338 0.0
C193 C 0.90034 0.53221 0.85035 0.0
C194 C 0.91891 0.51415 0.8317 0.0
C195 C 0.96654 0.51412 0.83617 0.0
H196 H 0.18772 0.53984 0.82183 0.0
H197 H 0.26786 0.53919 0.81416 0.0
H198 H 0.26671 0.50875 0.89278 0.0
H199 H 0.18836 0.50794 0.90031 0.0
H200 H 0.13614 0.50631 0.94324 0.0
H201 H 0.1296 0.5041 0.99014 0.0
H202 H 1.01321 0.53328 0.9869 0.0
H203 H 1.01879 0.5352 0.94026 0.0
H204 H 1.00441 0.56717 0.89619 0.0
H205 H 0.92499 0.56545 0.88889 0.0
H206 H 0.89593 0.4992 0.81329 0.0
H207 H 0.97532 0.49792 0.82126 0.0
N208 N 0.0886 0.52774 0.85674 0.0
N209 N 0.12044 0.52238 0.8968 0.0
N210 N 1.04635 0.52547 0.8955 0.0
C211 C 0.12662 0.52478 0.87092 0.0
C212 C 0.0816 0.52268 0.90918 0.0
C213 C 1.04709 0.52811 0.86963 0.0
C214 C 0.17727 0.52386 0.86205 0.0
C215 C 0.20354 0.53256 0.8377 0.0
C216 C 0.25126 0.53251 0.83327 0.0
C217 C 0.27721 0.52393 0.85272 0.0
C218 C 0.25074 0.51543 0.87667 0.0
C219 C 0.20381 0.5152 0.88099 0.0
C220 C 0.078 0.52092 0.93775 0.0
C221 C 0.10907 0.51223 0.95244 0.0
C222 C 0.10538 0.51087 0.97927 0.0
C223 C 0.07095 0.51856 0.99197 0.0
C224 C 1.04001 0.52726 0.97746 0.0
C225 C 1.0433 0.52827 0.95072 0.0
C226 C 1.00063 0.53297 0.85964 0.0
C227 C 0.98224 0.55183 0.87762 0.0
C228 C 0.27206 0.69536 0.4294 0.0
C229 C 0.27186 0.72308 0.44929 0.0
C230 C 0.22152 0.69926 0.4636 0.0
C231 C 0.17169 0.64957 0.45722 0.0
H232 H 1.02452 0.45461 0.47012 0.0
H233 H 0.94547 0.37104 0.48474 0.0
H234 H 0.83746 0.34354 0.42081 0.0
H235 H 0.91425 0.42575 0.40653 0.0
H236 H 0.97375 0.45913 0.35319 0.0
H237 H 0.96505 0.45751 0.30758 0.0
H238 H 0.13184 0.60468 0.30776 0.0
H239 H 0.1399 0.60564 0.35324 0.0
H240 H 0.22404 0.62713 0.40673 0.0
H241 H 0.31 0.71242 0.41809 0.0
H242 H 0.22005 0.71969 0.47905 0.0
H243 H 0.13269 0.63328 0.46756 0.0
N244 N 0.07378 0.53546 0.43773 0.0
N245 N 1.02078 0.49455 0.39874 0.0
N246 N 0.10993 0.5741 0.39852 0.0
C247 C 1.02531 0.4942 0.42462 0.0
C248 C 0.06249 0.53398 0.38554 0.0
C249 C 0.11649 0.57586 0.42437 0.0
C250 C 0.97653 0.44739 0.43697 0.0
C251 C 0.98355 0.43119 0.45953 0.0
C252 C 0.93839 0.3832 0.46781 0.0
C253 C 0.88535 0.35045 0.45371 0.0
C254 C 0.87773 0.36755 0.43196 0.0
C255 C 0.92222 0.41499 0.42381 0.0
C256 C 0.05636 0.5334 0.35725 0.0
C257 C 1.00748 0.49203 0.3435 0.0
C258 C 1.00174 0.49193 0.31689 0.0
C259 C 1.04338 0.53413 0.30306 0.0
C260 C 0.0945 0.57372 0.31702 0.0
C261 C 0.10026 0.57385 0.34356 0.0
C262 C 0.17119 0.62279 0.43635 0.0
C263 C 0.22269 0.64626 0.42303 0.0
C264 C 0.59625 0.16852 0.7632 0.0
C265 C 0.56628 0.15367 0.7861 0.0
C266 C 0.54777 0.10973 0.79633 0.0
C267 C 0.5582 0.08075 0.78356 0.0
H268 H 0.60387 0.98671 0.79302 0.0
H269 H 0.61404 0.93063 0.81187 0.0
H270 H 0.61402 0.87719 0.7362 0.0
H271 H 0.60399 0.93259 0.71717 0.0
H272 H 0.59878 0.97555 0.66808 0.0
H273 H 0.59473 0.97663 0.62125 0.0
H274 H 0.59879 0.09976 0.62869 0.0
H275 H 0.6028 0.09924 0.67539 0.0
H276 H 0.62788 0.1514 0.73233 0.0
H277 H 0.61107 0.20228 0.75499 0.0
H278 H 0.52443 0.0975 0.81395 0.0
H279 H 0.54246 0.04659 0.79158 0.0
N280 N 0.59431 0.02941 0.75612 0.0
N281 N 0.60186 1.00274 0.7156 0.0
N282 N 0.59542 0.06469 0.71889 0.0
C283 C 0.59943 0.99968 0.74155 0.0
C284 C 0.59983 0.03505 0.70409 0.0
C285 C 0.59251 0.06221 0.74482 0.0
C286 C 0.60324 0.96452 0.75351 0.0
C287 C 0.60567 0.96286 0.78035 0.0
C288 C 0.61145 0.93081 0.79119 0.0
C289 C 0.61468 0.89973 0.77541 0.0
C290 C 0.6115 0.9008 0.74871 0.0
C291 C 0.60584 0.93271 0.73789 0.0
C292 C 0.60076 0.03713 0.67565 0.0
C293 C 0.59928 1.00317 0.65983 0.0
C294 C 0.59703 1.00369 0.63305 0.0
C295 C 0.59639 0.03823 0.6216 0.0
C296 C 0.5993 0.07288 0.63722 0.0
C297 C 0.60141 0.07235 0.66395 0.0
C298 C 0.58628 0.09472 0.76008 0.0
C299 C 0.60571 0.13926 0.75025 0.0
C300 C 0.62614 0.3641 0.13207 0.0
C301 C 0.59593 0.34539 0.15486 0.0
C302 C 0.53808 0.32454 0.15504 0.0
C303 C 0.51471 0.33108 0.13447 0.0
H304 H 0.44348 0.42275 0.12618 0.0
H305 H 0.42486 0.47916 0.13614 0.0
H306 H 0.58511 0.59769 0.10264 0.0
H307 H 0.60256 0.54069 0.09167 0.0
H308 H 0.47604 0.42123 0.02618 0.0
H309 H 0.49886 0.44817 0.9828 0.0
H310 H 0.62351 0.42764 0.9807 0.0
H311 H 0.60233 0.40237 0.02545 0.0
H312 H 0.62848 0.38803 0.09488 0.0
H313 H 0.67061 0.37967 0.13133 0.0
H314 H 0.51335 0.30831 0.1721 0.0
H315 H 0.4727 0.32066 0.1362 0.0
N316 N 0.52861 0.41132 0.10931 0.0
N317 N 0.5301 0.44052 0.06993 0.0
N318 N 0.53987 0.38055 0.07114 0.0
C319 C 0.52709 0.44183 0.09566 0.0
C320 C 0.5354 0.40961 0.05744 0.0
C321 C 0.53508 0.38065 0.09716 0.0
C322 C 0.52401 0.47763 0.10806 0.0
C323 C 0.47543 0.4612 0.12173 0.0
C324 C 0.46482 0.49329 0.1273 0.0
C325 C 0.50313 0.5421 0.11955 0.0
C326 C 0.55492 0.55998 0.10844 0.0
C327 C 0.56476 0.52754 0.10226 0.0
C328 C 0.53838 0.41082 0.02931 0.0
C329 C 0.50763 0.42151 0.01641 0.0
C330 C 0.52057 0.43686 0.99156 0.0
C331 C 0.56388 0.44109 0.97879 0.0
C332 C 0.5905 0.42523 0.99049 0.0
C333 C 0.57808 0.41045 0.01586 0.0
C334 C 0.54799 0.35581 0.11307 0.0
C335 C 0.602 0.36872 0.11115 0.0
C336 C 0.43605 0.59179 0.14731 0.0
C337 C 0.40805 0.58915 0.12486 0.0
C338 C 0.46173 0.575 0.09794 0.0
C339 C 0.4845 0.57147 0.12055 0.0
N340 N 0.51015 0.59281 0.16547 0.0
N341 N 0.40962 0.59824 0.07967 0.0
C342 C 0.47782 0.5861 0.14486 0.0
C343 C 0.42727 0.58852 0.10043 0.0
N344 N 0.41929 0.5958 0.17082 0.0
N345 N 0.46835 0.56109 0.07441 0.0
H346 H 0.38342 0.6074 0.0816 0.0
H347 H 0.42519 0.60193 0.06137 0.0
H348 H 0.49308 0.55075 0.07157 0.0
H349 H 0.44669 0.55714 0.05776 0.0
H350 H 0.43285 0.59201 0.18804 0.0
H351 H 0.39011 0.60167 0.17291 0.0
H352 H 0.51027 0.60656 0.18351 0.0
H353 H 0.54085 0.58856 0.16373 0.0
C354 C 0.78844 0.20898 0.45144 0.0
C355 C 0.74029 0.19473 0.46577 0.0
C356 C 0.78853 0.28345 0.47322 0.0
C357 C 0.83797 0.29739 0.46039 0.0
N358 N 0.88888 0.27327 0.44129 0.0
N359 N 0.70012 0.21989 0.49438 0.0
C360 C 0.83917 0.26003 0.45097 0.0
C361 C 0.74196 0.23247 0.47778 0.0
N362 N 0.78442 0.17425 0.43654 0.0
N363 N 0.78549 0.31896 0.48064 0.0
H364 H 0.66608 0.18354 0.49868 0.0
H365 H 0.7018 0.2456 0.50574 0.0
H366 H 0.81972 0.35661 0.47895 0.0
H367 H 0.748 0.31102 0.48697 0.0
H368 H 0.81512 0.18295 0.42338 0.0
H369 H 0.74773 0.13704 0.43518 0.0
H370 H 0.89485 0.24807 0.43693 0.0
H371 H 0.92608 0.30998 0.43969 0.0
C372 C 0.5859 0.79076 0.80699 0.0
C373 C 0.63883 0.80122 0.80284 0.0
C374 C 0.67842 0.88015 0.78509 0.0
C375 C 0.62357 0.86707 0.7865 0.0
N376 N 0.52295 0.80754 0.79612 0.0
N377 N 0.73279 0.85231 0.78443 0.0
C378 C 0.57671 0.82178 0.79685 0.0
C379 C 0.68451 0.8451 0.79104 0.0
N380 N 0.54498 0.75183 0.82116 0.0
N381 N 0.72507 0.92658 0.77855 0.0
H382 H 0.7389 0.82748 0.78823 0.0
H383 H 0.76461 0.88068 0.7732 0.0
H384 H 0.72226 0.95322 0.77408 0.0
H385 H 0.76727 0.9402 0.77984 0.0
H386 H 0.508 0.74515 0.82714 0.0
H387 H 0.55026 0.7284 0.82884 0.0
H388 H 0.48579 0.77255 0.80061 0.0
H389 H 0.51474 0.82953 0.7892 0.0
C390 C 0.71829 0.37193 0.18898 0.0
C391 C 0.74297 0.42028 0.19793 0.0
C392 C 0.65002 0.39971 0.1942 0.0
C393 C 0.62991 0.35694 0.17878 0.0
N394 N 0.63439 0.29341 0.16859 0.0
N395 N 0.73047 0.47339 0.21916 0.0
C396 C 0.66015 0.33933 0.17941 0.0
C397 C 0.70753 0.43138 0.20437 0.0
N398 N 0.7515 0.35879 0.1886 0.0
N399 N 0.61625 0.41212 0.19697 0.0
H400 H 0.77296 0.49635 0.22643 0.0
H401 H 0.70721 0.48367 0.22574 0.0
H402 H 0.57295 0.3883 0.19117 0.0
H403 H 0.63042 0.44555 0.20532 0.0
H404 H 0.73622 0.32359 0.18318 0.0
H405 H 0.79432 0.38302 0.19539 0.0
H406 H 0.65407 0.27821 0.16688 0.0
H407 H 0.59157 0.27002 0.16171 0.0
C408 C 0.41288 0.84665 0.47812 0.0
C409 C 0.42677 0.87998 0.45887 0.0
C410 C 0.33499 0.81153 0.4357 0.0
C411 C 0.3236 0.77759 0.4537 0.0
N412 N 0.35697 0.76146 0.48977 0.0
N413 N 0.40718 0.88845 0.41565 0.0
C414 C 0.36404 0.79485 0.47429 0.0
C415 C 0.38932 0.86085 0.4367 0.0
N416 N 0.44493 0.86429 0.50057 0.0
N417 N 0.29341 0.79687 0.4177 0.0
H418 H 0.44807 0.92299 0.4146 0.0
H419 H 0.3843 0.87463 0.3981 0.0
H420 H 0.25328 0.76127 0.4163 0.0
H421 H 0.29664 0.82128 0.40585 0.0
H422 H 0.43259 0.84318 0.51648 0.0
H423 H 0.48175 0.90097 0.50425 0.0
H424 H 0.38837 0.77047 0.50304 0.0
H425 H 0.32145 0.72371 0.48795 0.0
C426 C 0.51069 0.22317 0.79404 0.0
C427 C 0.53166 0.24556 0.8192 0.0
C428 C 0.57758 0.20919 0.82258 0.0
C429 C 0.55213 0.18329 0.79839 0.0
N430 N 0.48314 0.15668 0.76402 0.0
N431 N 0.57512 0.25168 0.85945 0.0
C432 C 0.51521 0.18757 0.78502 0.0
C433 C 0.5622 0.23612 0.83409 0.0
N434 N 0.48886 0.2375 0.77822 0.0
N435 N 0.61823 0.20984 0.83411 0.0
H436 H 0.56379 0.27078 0.86863 0.0
H437 H 0.59211 0.24159 0.8719 0.0
H438 H 0.6311 0.19106 0.82621 0.0
H439 H 0.64278 0.23244 0.85033 0.0
H440 H 0.47872 0.22623 0.75883 0.0
H441 H 0.48624 0.26448 0.78371 0.0
H442 H 0.45124 0.1548 0.75507 0.0
H443 H 0.48418 0.12932 0.75714 0.0
C444 C 0.58401 0.76711 0.50224 0.0
C445 C 0.63452 0.81672 0.50836 0.0
C446 C 0.67992 0.78754 0.52791 0.0
C447 C 0.62727 0.73817 0.52441 0.0
N448 N 0.52674 0.68063 0.51108 0.0
N449 N 0.72715 0.8745 0.53071 0.0
C450 C 0.5786 0.72778 0.51225 0.0
C451 C 0.68169 0.82707 0.52213 0.0
N452 N 0.54193 0.75761 0.48634 0.0
N453 N 0.72862 0.79659 0.53623 0.0
H454 H 0.72996 0.90457 0.52719 0.0
H455 H 0.75962 0.88355 0.54326 0.0
H456 H 0.72902 0.76853 0.54062 0.0
H457 H 0.76956 0.83138 0.53651 0.0
H458 H 0.50687 0.72232 0.479 0.0
H459 H 0.5445 0.78553 0.4787 0.0
H460 H 0.48822 0.6716 0.5051 0.0
H461 H 0.52132 0.65083 0.51791 0.0
C462 C 0.80189 0.57219 0.85529 0.0
C463 C 0.74623 0.5318 0.8434 0.0
C464 C 0.78953 0.48963 0.83756 0.0
C465 C 0.84699 0.53215 0.84679 0.0
N466 N 0.90611 0.61924 0.85821 0.0
N467 N 0.69712 0.45598 0.81738 0.0
C468 C 0.85211 0.57464 0.85388 0.0
C469 C 0.74329 0.49177 0.83304 0.0
N470 N 0.80714 0.60815 0.86942 0.0
N471 N 0.77716 0.44543 0.83406 0.0
H472 H 0.66475 0.45683 0.81249 0.0
H473 H 0.69444 0.42885 0.80699 0.0
H474 H 0.80735 0.44136 0.8378 0.0
H475 H 0.7355 0.4121 0.83021 0.0
H476 H 0.84366 0.63547 0.88081 0.0
H477 H 0.77272 0.6073 0.87222 0.0
H478 H 0.91411 0.65241 0.86079 0.0
H479 H 0.94327 0.62381 0.85603 0.0
C480 C 0.26949 0.70626 0.13286 0.0
C481 C 0.22478 0.68781 0.15056 0.0
C482 C 0.28141 0.7725 0.17063 0.0
C483 C 0.32841 0.78979 0.15468 0.0
N484 N 0.3696 0.77178 0.1223 0.0
N485 N 0.19311 0.70255 0.18918 0.0
C486 C 0.32301 0.7562 0.13625 0.0
C487 C 0.23191 0.72086 0.17009 0.0
N488 N 0.25998 0.67669 0.11212 0.0
N489 N 0.28389 0.80563 0.18634 0.0
H490 H 0.15705 0.66523 0.18998 0.0
H491 H 0.19932 0.72346 0.20558 0.0
H492 H 0.31977 0.84328 0.18787 0.0
H493 H 0.24875 0.79662 0.19621 0.0
H494 H 0.28809 0.68918 0.09708 0.0
H495 H 0.22141 0.64054 0.10873 0.0
H496 H 0.37123 0.74804 0.11086 0.0
H497 H 0.4083 0.8083 0.12346 0.0
C498 C 0.51075 0.27004 0.4933 0.0
C499 C 0.55535 0.27319 0.48201 0.0
C500 C 0.62341 0.36337 0.4902 0.0
C501 C 0.5804 0.35953 0.50373 0.0
N502 N 0.48443 0.30994 0.51988 0.0
N503 N 0.65462 0.32134 0.47061 0.0
C504 C 0.52422 0.31307 0.50556 0.0
C505 C 0.61182 0.31954 0.48057 0.0
N506 N 0.45546 0.22583 0.49218 0.0
N507 N 0.67502 0.40907 0.48632 0.0
H508 H 0.64713 0.29034 0.46233 0.0
H509 H 0.69808 0.35281 0.4717 0.0
H510 H 0.68506 0.44176 0.4935 0.0
H511 H 0.7063 0.41506 0.47449 0.0
H512 H 0.41981 0.22196 0.49736 0.0
H513 H 0.44429 0.19303 0.48441 0.0
H514 H 0.44522 0.27675 0.52474 0.0
H515 H 0.49186 0.34082 0.52831 0.0
C516 C 0.37718 0.4862 0.85918 0.0
C517 C 0.43018 0.52226 0.84603 0.0
C518 C 0.38471 0.56204 0.83865 0.0
C519 C 0.32973 0.5229 0.84912 0.0
N520 N 0.27373 0.44037 0.8633 0.0
N521 N 0.4719 0.589 0.81748 0.0
C522 C 0.32658 0.4832 0.85759 0.0
C523 C 0.43006 0.55854 0.8343 0.0
N524 N 0.37484 0.45534 0.87481 0.0
N525 N 0.39556 0.60455 0.83353 0.0
H526 H 0.50275 0.58657 0.81207 0.0
H527 H 0.47157 0.61243 0.8064 0.0
H528 H 0.36555 0.60921 0.83658 0.0
H529 H 0.43615 0.63669 0.82889 0.0
H530 H 0.34102 0.43253 0.88702 0.0
H531 H 0.40934 0.45672 0.87815 0.0
H532 H 0.26627 0.40807 0.86675 0.0
H533 H 0.23619 0.43537 0.86151 0.0
C534 C 0.85856 0.35754 0.13988 0.0
C535 C 0.91264 0.37435 0.1497 0.0
C536 C 0.86328 0.28885 0.16199 0.0
C537 C 0.80872 0.27382 0.15503 0.0
N538 N 0.75368 0.2942 0.13812 0.0
N539 N 0.96454 0.35578 0.17283 0.0
C540 C 0.80629 0.30835 0.14413 0.0
C541 C 0.91452 0.33973 0.16119 0.0
N542 N 0.85738 0.38796 0.12544 0.0
N543 N 0.8663 0.25416 0.16926 0.0
H544 H 1.00314 0.39195 0.17267 0.0
H545 H 0.96699 0.33424 0.18452 0.0
H546 H 0.82994 0.21712 0.17086 0.0
H547 H 0.90485 0.261 0.17155 0.0
H548 H 0.82074 0.37689 0.11558 0.0
H549 H 0.89443 0.42328 0.12127 0.0
H550 H 0.74773 0.31858 0.13305 0.0
H551 H 0.71512 0.25813 0.13975 0.0
C552 C 1.01724 0.47377 0.05939 0.0
C553 C 0.05237 0.51941 0.07427 0.0
C554 C 0.10581 0.56257 0.03578 0.0
C555 C 0.06704 0.5179 0.02054 0.0
N556 N 0.98257 0.43152 0.01707 0.0
N557 N 0.12209 0.60875 0.07534 0.0
C558 C 1.0219 0.47359 0.03216 0.0
C559 C 0.09494 0.56424 0.0622 0.0
N560 N 0.98037 0.43041 0.07136 0.0
N561 N 0.15317 0.60358 0.02499 0.0
H562 H 0.1131 0.61214 0.09413 0.0
H563 H 0.14909 0.64253 0.06681 0.0
H564 H 0.16165 0.6042 0.00558 0.0
H565 H 0.18655 0.63557 0.03567 0.0
H566 H 0.95833 0.39569 0.06211 0.0
H567 H 0.97494 0.42902 0.09111 0.0
H568 H 0.94466 0.39955 0.02384 0.0
H569 H 0.98602 0.42945 -0.00274 0.0
C570 C 0.57252 0.99078 0.37702 0.0
C571 C 0.59325 0.03379 0.39223 0.0
C572 C 0.59366 0.07144 0.35396 0.0
C573 C 0.58046 0.03142 0.33832 0.0
N574 N 0.56635 0.95633 0.33474 0.0
N575 N 0.63369 0.11876 0.39456 0.0
C576 C 0.57186 0.9917 0.34978 0.0
C577 C 0.60662 0.07517 0.38054 0.0
N578 N 0.55366 0.94909 0.38856 0.0
N579 N 0.59224 0.10519 0.34358 0.0
H580 H 0.64462 0.12313 0.41396 0.0
H581 H 0.64999 0.15162 0.38643 0.0
H582 H 0.58154 0.10302 0.32429 0.0
H583 H 0.59587 0.13229 0.35458 0.0
H584 H 0.53217 0.91502 0.3786 0.0
H585 H 0.55514 0.94746 0.40841 0.0
H586 H 0.56619 0.92955 0.34209 0.0
H587 H 0.56728 0.95634 0.31478 0.0
C588 C 0.58628 0.4836 0.75212 0.0
C589 C 0.57289 0.50946 0.76657 0.0
C590 C 0.54833 0.52647 0.72661 0.0
C591 C 0.57394 0.51052 0.71241 0.0
N592 N 0.56525 0.43828 0.71198 0.0
N593 N 0.54092 0.55605 0.76758 0.0
C594 C 0.57933 0.47907 0.72499 0.0
C595 C 0.55381 0.53105 0.75379 0.0
N596 N 0.60402 0.46205 0.76417 0.0
N597 N 0.51042 0.52862 0.71457 0.0
H598 H 0.54429 0.55991 0.78755 0.0
H599 H 0.53192 0.57638 0.75904 0.0
H600 H 0.49701 0.51606 0.69543 0.0
H601 H 0.48624 0.53555 0.72429 0.0
H602 H 0.61923 0.44673 0.75417 0.0
H603 H 0.60753 0.4628 0.78407 0.0
H604 H 0.56349 0.41162 0.72074 0.0
H605 H 0.54594 0.42716 0.6936 0.0
C606 C 0.52875 0.99983 0.55388 0.0
C607 C 0.57467 0.04021 0.53994 0.0
C608 C 0.63764 0.07328 0.57883 0.0
C609 C 0.58975 0.03688 0.59324 0.0
N610 N 0.48747 0.96945 0.59533 0.0
N611 N 0.6702 0.12124 0.54136 0.0
C612 C 0.5347 1.00115 0.58099 0.0
C613 C 0.62872 0.07836 0.55289 0.0
N614 N 0.47986 0.95924 0.54125 0.0
N615 N 0.69185 0.10298 0.58991 0.0
H616 H 0.66483 0.12874 0.5232 0.0
H617 H 0.70766 0.15198 0.55096 0.0
H618 H 0.6998 0.10058 0.60894 0.0
H619 H 0.72909 0.12655 0.57959 0.0
H620 H 0.44823 0.92661 0.5501 0.0
H621 H 0.47316 0.9559 0.52146 0.0
H622 H 0.44531 0.9468 0.58783 0.0
H623 H 0.4899 0.96863 0.6152 0.0
C624 C 0.54557 0.4778 0.91711 0.0
C625 C 0.60073 0.52394 0.91313 0.0
C626 C 0.63534 0.5158 0.95341 0.0
C627 C 0.58275 0.46621 0.95421 0.0
N628 N 0.49378 0.39658 0.93285 0.0
N629 N 0.69895 0.58905 0.92959 0.0
C630 C 0.54041 0.44595 0.9344 0.0
C631 C 0.64622 0.54338 0.93168 0.0
N632 N 0.49703 0.46628 0.90658 0.0
N633 N 0.6729 0.5381 0.97423 0.0
H634 H 0.70565 0.61625 0.91894 0.0
H635 H 0.73592 0.60043 0.93934 0.0
H636 H 0.66703 0.51982 0.99058 0.0
H637 H 0.70804 0.57586 0.97615 0.0
H638 H 0.45565 0.43379 0.91008 0.0
H639 H 0.49775 0.49286 0.89852 0.0
H640 H 0.46358 0.37969 0.91756 0.0
H641 H 0.48905 0.37226 0.94543 0.0
C642 C 1.00291 0.48329 0.23394 0.0
C643 C 0.05573 0.52144 0.22248 0.0
C644 C 0.08185 0.57599 0.26043 0.0
C645 C 1.03785 0.53463 0.27403 0.0
N646 N 0.93666 0.46675 0.26641 0.0
N647 N 0.14865 0.6046 0.22654 0.0
C648 C 0.99192 0.4925 0.25892 0.0
C649 C 0.09575 0.56827 0.23599 0.0
N650 N 0.96319 0.43831 0.22126 0.0
N651 N 0.10491 0.62233 0.26927 0.0
H652 H 0.16331 0.59984 0.2097 0.0
H653 H 0.18027 0.63768 0.23705 0.0
H654 H 0.08919 0.62793 0.28546 0.0
H655 H 0.13345 0.6535 0.25877 0.0
H656 H 0.92682 0.40813 0.22998 0.0
H657 H 0.96856 0.43016 0.20276 0.0
H658 H 0.9007 0.43859 0.25498 0.0
H659 H 0.92732 0.47896 0.28237 0.0
loop_
_geom_bond_atom_site_label_1
_geom_bond_atom_site_label_2
_geom_bond_distance
_geom_bond_site_symmetry_2
_ccdc_geom_bond_type
Gd0 C3 2.818 . S
Gd0 O20 2.377 . S
Gd0 O22 2.448 . S
Gd0 O23 2.506 . S
Gd0 O24 2.435 . S
Gd0 O25 2.717 . S
Gd0 O27 2.395 1_455 S
Gd0 O31 2.327 . S
Gd1 C12 2.818 . S
Gd1 O21 2.395 1_655 S
Gd1 O25 2.327 1_655 S
Gd1 O26 2.377 . S
Gd1 O28 2.448 . S
Gd1 O29 2.506 . S
Gd1 O30 2.435 1_655 S
Gd1 O31 2.717 1_655 S
C2 O20 1.240 . S
C2 O21 1.240 . S
C3 Gd0 2.818 . S
C3 C4 1.510 . S
C3 O22 1.249 . S
C3 O23 1.252 . S
C4 C3 1.510 . S
C4 C5 1.404 . S
C4 C6 1.352 . S
C5 C4 1.404 . S
C5 C9 1.389 . S
C5 H32 0.930 . S
C6 C4 1.352 . S
C6 C8 1.374 . S
C6 H33 0.931 . S
C7 C8 1.359 . S
C7 C9 1.364 . S
C8 C6 1.374 . S
C8 C7 1.359 . S
C8 H34 0.931 . S
C9 C5 1.389 . S
C9 C7 1.364 . S
C9 H35 0.931 . S
C10 O24 1.256 . S
C10 O25 1.257 . S
C11 O26 1.240 . S
C11 O27 1.240 . S
C12 Gd1 2.818 . S
C12 C13 1.510 . S
C12 O28 1.249 . S
C12 O29 1.252 . S
C13 C12 1.510 . S
C13 C14 1.404 . S
C13 C15 1.352 . S
C14 C13 1.404 . S
C14 C18 1.389 . S
C14 H36 0.930 . S
C15 C13 1.352 . S
C15 C17 1.374 . S
C15 H37 0.931 . S
C16 C17 1.359 . S
C16 C18 1.364 . S
C17 C15 1.374 . S
C17 C16 1.359 . S
C17 H38 0.931 . S
C18 C14 1.389 . S
C18 C16 1.364 . S
C18 H39 0.931 . S
C19 O30 1.256 . S
C19 O31 1.257 . S
O20 Gd0 2.377 . S
O20 C2 1.240 . S
O21 Gd1 2.395 1_455 S
O21 C2 1.240 . S
O22 Gd0 2.448 . S
O22 C3 1.249 . S
O23 Gd0 2.506 . S
O23 C3 1.252 . S
O24 Gd0 2.435 . S
O24 C10 1.256 . S
O25 Gd0 2.717 . S
O25 Gd1 2.327 1_455 S
O25 C10 1.257 . S
O26 Gd1 2.377 . S
O26 C11 1.240 . S
O27 Gd0 2.395 1_655 S
O27 C11 1.240 . S
O28 Gd1 2.448 . S
O28 C12 1.249 . S
O29 Gd1 2.506 . S
O29 C12 1.252 . S
O30 Gd1 2.435 1_455 S
O30 C19 1.256 . S
O31 Gd0 2.327 . S
O31 Gd1 2.717 1_455 S
O31 C19 1.257 . S
H32 C5 0.930 . S
H33 C6 0.931 . S
H34 C8 0.931 . S
H35 C9 0.931 . S
H36 C14 0.930 . S
H37 C15 0.931 . S
H38 C17 0.931 . S
H39 C18 0.931 . S
Gd40 C43 2.818 . S
Gd40 O60 2.377 . S
Gd40 O62 2.448 . S
Gd40 O63 2.506 . S
Gd40 O64 2.435 . S
Gd40 O65 2.717 1_565 S
Gd40 O67 2.395 1_565 S
Gd40 O71 2.327 1_565 S
Gd41 C52 2.818 . S
Gd41 O61 2.395 1_545 S
Gd41 O65 2.327 . S
Gd41 O66 2.377 . S
Gd41 O68 2.448 . S
Gd41 O69 2.506 . S
Gd41 O70 2.435 . S
Gd41 O71 2.717 . S
C42 O60 1.240 . S
C42 O61 1.240 . S
C43 Gd40 2.818 . S
C43 C44 1.510 . S
C43 O62 1.249 . S
C43 O63 1.252 . S
C44 C43 1.510 . S
C44 C45 1.404 . S
C44 C46 1.352 . S
C45 C44 1.404 . S
C45 C49 1.389 . S
C45 H72 0.930 . S
C46 C44 1.352 . S
C46 C48 1.374 . S
C46 H73 0.931 . S
C47 C48 1.359 . S
C47 C49 1.364 . S
C48 C46 1.374 . S
C48 C47 1.359 . S
C48 H74 0.931 . S
C49 C45 1.389 . S
C49 C47 1.364 . S
C49 H75 0.931 . S
C50 O64 1.256 1_545 S
C50 O65 1.257 . S
C51 O66 1.240 . S
C51 O67 1.240 . S
C52 Gd41 2.818 . S
C52 C53 1.510 . S
C52 O68 1.249 . S
C52 O69 1.252 . S
C53 C52 1.510 . S
C53 C54 1.404 . S
C53 C55 1.352 . S
C54 C53 1.404 . S
C54 C58 1.389 . S
C54 H76 0.930 . S
C55 C53 1.352 . S
C55 C57 1.374 . S
C55 H77 0.931 . S
C56 C57 1.359 . S
C56 C58 1.364 . S
C57 C55 1.374 . S
C57 C56 1.359 . S
C57 H78 0.931 . S
C58 C54 1.389 . S
C58 C56 1.364 . S
C58 H79 0.931 . S
C59 O70 1.256 . S
C59 O71 1.257 . S
O60 Gd40 2.377 . S
O60 C42 1.240 . S
O61 Gd41 2.395 1_565 S
O61 C42 1.240 . S
O62 Gd40 2.448 . S
O62 C43 1.249 . S
O63 Gd40 2.506 . S
O63 C43 1.252 . S
O64 Gd40 2.435 . S
O64 C50 1.256 1_565 S
O65 Gd40 2.717 1_545 S
O65 Gd41 2.327 . S
O65 C50 1.257 . S
O66 Gd41 2.377 . S
O66 C51 1.240 . S
O67 Gd40 2.395 1_545 S
O67 C51 1.240 . S
O68 Gd41 2.448 . S
O68 C52 1.249 . S
O69 Gd41 2.506 . S
O69 C52 1.252 . S
O70 Gd41 2.435 . S
O70 C59 1.256 . S
O71 Gd40 2.327 1_545 S
O71 Gd41 2.717 . S
O71 C59 1.257 . S
H72 C45 0.930 . S
H73 C46 0.931 . S
H74 C48 0.931 . S
H75 C49 0.931 . S
H76 C54 0.930 . S
H77 C55 0.931 . S
H78 C57 0.931 . S
H79 C58 0.931 . S
Gd80 C83 2.818 . S
Gd80 O100 2.377 . S
Gd80 O102 2.448 . S
Gd80 O103 2.506 . S
Gd80 O104 2.435 . S
Gd80 O105 2.717 . S
Gd80 O107 2.395 . S
Gd80 O111 2.327 . S
Gd81 C92 2.818 . S
Gd81 O101 2.395 . S
Gd81 O105 2.327 . S
Gd81 O106 2.377 . S
Gd81 O108 2.448 . S
Gd81 O109 2.506 . S
Gd81 O110 2.435 . S
Gd81 O111 2.717 . S
C82 O100 1.240 . S
C82 O101 1.240 . S
C83 Gd80 2.818 . S
C83 C84 1.510 . S
C83 O102 1.249 . S
C83 O103 1.252 . S
C84 C83 1.510 . S
C84 C85 1.404 . S
C84 C86 1.352 . S
C85 C84 1.404 . S
C85 C89 1.389 . S
C85 H112 0.930 . S
C86 C84 1.352 . S
C86 C88 1.374 . S
C86 H113 0.931 . S
C87 C88 1.359 . S
C87 C89 1.364 . S
C88 C86 1.374 . S
C88 C87 1.359 . S
C88 H114 0.931 . S
C89 C85 1.389 . S
C89 C87 1.364 . S
C89 H115 0.931 . S
C90 O104 1.256 . S
C90 O105 1.257 . S
C91 O106 1.240 . S
C91 O107 1.240 . S
C92 Gd81 2.818 . S
C92 C93 1.510 . S
C92 O108 1.249 . S
C92 O109 1.252 . S
C93 C92 1.510 . S
C93 C94 1.404 . S
C93 C95 1.352 . S
C94 C93 1.404 . S
C94 C98 1.389 . S
C94 H116 0.930 . S
C95 C93 1.352 . S
C95 C97 1.374 . S
C95 H117 0.931 . S
C96 C97 1.359 . S
C96 C98 1.364 . S
C97 C95 1.374 . S
C97 C96 1.359 . S
C97 H118 0.931 . S
C98 C94 1.389 . S
C98 C96 1.364 . S
C98 H119 0.931 . S
C99 O110 1.256 . S
C99 O111 1.257 . S
O100 Gd80 2.377 . S
O100 C82 1.240 . S
O101 Gd81 2.395 . S
O101 C82 1.240 . S
O102 Gd80 2.448 . S
O102 C83 1.249 . S
O103 Gd80 2.506 . S
O103 C83 1.252 . S
O104 Gd80 2.435 . S
O104 C90 1.256 . S
O105 Gd80 2.717 . S
O105 Gd81 2.327 . S
O105 C90 1.257 . S
O106 Gd81 2.377 . S
O106 C91 1.240 . S
O107 Gd80 2.395 . S
O107 C91 1.240 . S
O108 Gd81 2.448 . S
O108 C92 1.249 . S
O109 Gd81 2.506 . S
O109 C92 1.252 . S
O110 Gd81 2.435 . S
O110 C99 1.256 . S
O111 Gd80 2.327 . S
O111 Gd81 2.717 . S
O111 C99 1.257 . S
H112 C85 0.930 . S
H113 C86 0.931 . S
H114 C88 0.931 . S
H115 C89 0.931 . S
H116 C94 0.930 . S
H117 C95 0.931 . S
H118 C97 0.931 . S
H119 C98 0.931 . S
C120 C121 1.384 . S
C120 H133 0.947 . S
C120 C155 1.382 . S
C121 C120 1.384 . S
C121 C122 1.378 . S
C122 C121 1.378 . S
C122 C123 1.378 . S
C122 H134 0.952 . S
C123 C122 1.378 . S
C123 H135 0.950 . S
C123 C154 1.383 . S
H124 C143 0.947 . S
H125 C144 0.946 . S
H126 C146 0.953 . S
H127 C147 0.945 . S
H128 C149 0.952 . S
H129 C150 0.949 . S
H130 C152 0.950 . S
H131 C153 0.948 . S
H132 C155 0.951 . S
H133 C120 0.947 . S
H134 C122 0.952 . S
H135 C123 0.950 . S
N136 C139 1.382 . S
N136 C141 1.363 1_545 S
N137 C139 1.371 . S
N137 C140 1.372 . S
N138 C140 1.361 1_565 S
N138 C141 1.377 . S
C139 N136 1.382 . S
C139 N137 1.371 . S
C139 C142 1.480 . S
C140 N137 1.372 . S
C140 N138 1.361 1_545 S
C140 C148 1.457 . S
C141 N136 1.363 1_565 S
C141 N138 1.377 . S
C141 C154 1.479 . S
C142 C139 1.480 . S
C142 C143 1.383 . S
C142 C147 1.385 . S
C143 H124 0.947 . S
C143 C142 1.383 . S
C143 C144 1.388 . S
C144 H125 0.946 . S
C144 C143 1.388 . S
C144 C145 1.384 . S
C145 C144 1.384 . S
C145 C146 1.377 . S
C146 H126 0.953 . S
C146 C145 1.377 . S
C146 C147 1.369 . S
C147 H127 0.945 . S
C147 C142 1.385 . S
C147 C146 1.369 . S
C148 C140 1.457 . S
C148 C149 1.372 . S
C148 C153 1.364 1_545 S
C149 H128 0.952 . S
C149 C148 1.372 . S
C149 C150 1.389 . S
C150 H129 0.949 . S
C150 C149 1.389 . S
C150 C151 1.387 . S
C151 C150 1.387 . S
C151 C152 1.372 1_545 S
C152 H130 0.950 . S
C152 C151 1.372 1_565 S
C152 C153 1.379 . S
C153 H131 0.948 . S
C153 C148 1.364 1_565 S
C153 C152 1.379 . S
C154 C123 1.383 . S
C154 C141 1.479 . S
C154 C155 1.398 . S
C155 C120 1.382 . S
C155 H132 0.951 . S
C155 C154 1.398 . S
C156 C157 1.384 . S
C156 H169 0.947 . S
C156 C191 1.382 . S
C157 C156 1.384 . S
C157 C158 1.378 . S
C158 C157 1.378 . S
C158 C159 1.378 . S
C158 H170 0.952 . S
C159 C158 1.378 . S
C159 H171 0.950 . S
C159 C190 1.383 . S
H160 C179 0.947 . S
H161 C180 0.946 . S
H162 C182 0.953 . S
H163 C183 0.945 . S
H164 C185 0.952 . S
H165 C186 0.949 . S
H166 C188 0.950 . S
H167 C189 0.948 . S
H168 C191 0.951 . S
H169 C156 0.947 . S
H170 C158 0.952 . S
H171 C159 0.950 . S
N172 C175 1.382 . S
N172 C177 1.363 . S
N173 C175 1.371 . S
N173 C176 1.372 . S
N174 C176 1.361 . S
N174 C177 1.377 . S
C175 N172 1.382 . S
C175 N173 1.371 . S
C175 C178 1.480 . S
C176 N173 1.372 . S
C176 N174 1.361 . S
C176 C184 1.457 . S
C177 N172 1.363 . S
C177 N174 1.377 . S
C177 C190 1.479 . S
C178 C175 1.480 . S
C178 C179 1.383 . S
C178 C183 1.385 . S
C179 H160 0.947 . S
C179 C178 1.383 . S
C179 C180 1.388 . S
C180 H161 0.946 . S
C180 C179 1.388 . S
C180 C181 1.384 . S
C181 C180 1.384 . S
C181 C182 1.377 . S
C182 H162 0.953 . S
C182 C181 1.377 . S
C182 C183 1.369 . S
C183 H163 0.945 . S
C183 C178 1.385 . S
C183 C182 1.369 . S
C184 C176 1.457 . S
C184 C185 1.372 . S
C184 C189 1.364 . S
C185 H164 0.952 . S
C185 C184 1.372 . S
C185 C186 1.389 . S
C186 H165 0.949 . S
C186 C185 1.389 . S
C186 C187 1.387 . S
C187 C186 1.387 . S
C187 C188 1.372 . S
C188 H166 0.950 . S
C188 C187 1.372 . S
C188 C189 1.379 . S
C189 H167 0.948 . S
C189 C184 1.364 . S
C189 C188 1.379 . S
C190 C159 1.383 . S
C190 C177 1.479 . S
C190 C191 1.398 . S
C191 C156 1.382 . S
C191 H168 0.951 . S
C191 C190 1.398 . S
C192 C193 1.384 . S
C192 H205 0.947 . S
C192 C227 1.382 . S
C193 C192 1.384 . S
C193 C194 1.378 . S
C194 C193 1.378 . S
C194 C195 1.378 . S
C194 H206 0.952 . S
C195 C194 1.378 . S
C195 H207 0.950 1_655 S
C195 C226 1.383 . S
H196 C215 0.947 . S
H197 C216 0.946 . S
H198 C218 0.953 . S
H199 C219 0.945 . S
H200 C221 0.952 . S
H201 C222 0.949 . S
H202 C224 0.950 1_655 S
H203 C225 0.948 1_655 S
H204 C227 0.951 . S
H205 C192 0.947 . S
H206 C194 0.952 . S
H207 C195 0.950 1_455 S
N208 C211 1.382 . S
N208 C213 1.363 . S
N209 C211 1.371 . S
N209 C212 1.372 . S
N210 C212 1.361 . S
N210 C213 1.377 . S
C211 N208 1.382 . S
C211 N209 1.371 . S
C211 C214 1.480 . S
C212 N209 1.372 . S
C212 N210 1.361 . S
C212 C220 1.457 . S
C213 N208 1.363 . S
C213 N210 1.377 . S
C213 C226 1.479 1_455 S
C214 C211 1.480 . S
C214 C215 1.383 . S
C214 C219 1.385 . S
C215 H196 0.947 . S
C215 C214 1.383 . S
C215 C216 1.388 . S
C216 H197 0.946 . S
C216 C215 1.388 . S
C216 C217 1.384 . S
C217 C216 1.384 . S
C217 C218 1.377 . S
C218 H198 0.953 . S
C218 C217 1.377 . S
C218 C219 1.369 . S
C219 H199 0.945 . S
C219 C214 1.385 . S
C219 C218 1.369 . S
C220 C212 1.457 . S
C220 C221 1.372 . S
C220 C225 1.364 . S
C221 H200 0.952 . S
C221 C220 1.372 . S
C221 C222 1.389 . S
C222 H201 0.949 . S
C222 C221 1.389 . S
C222 C223 1.407 . S
C223 C222 1.407 . S
C223 C224 1.395 . S
C224 H202 0.950 1_455 S
C224 C223 1.395 . S
C224 C225 1.379 . S
C225 H203 0.948 1_455 S
C225 C220 1.364 . S
C225 C224 1.379 . S
C226 C195 1.383 . S
C226 C213 1.479 1_655 S
C226 C227 1.398 . S
C227 C192 1.382 . S
C227 H204 0.951 . S
C227 C226 1.398 . S
C228 C229 1.384 . S
C228 H241 0.947 . S
C228 C263 1.382 . S
C229 C228 1.384 . S
C229 C230 1.378 . S
C230 C229 1.378 . S
C230 C231 1.378 . S
C230 H242 0.952 . S
C231 C230 1.378 . S
C231 H243 0.950 . S
C231 C262 1.383 . S
H232 C251 0.947 . S
H233 C252 0.946 . S
H234 C254 0.953 . S
H235 C255 0.945 . S
H236 C257 0.952 . S
H237 C258 0.949 . S
H238 C260 0.950 . S
H239 C261 0.948 . S
H240 C263 0.951 . S
H241 C228 0.947 . S
H242 C230 0.952 . S
H243 C231 0.950 . S
N244 C247 1.382 1_455 S
N244 C249 1.363 . S
N245 C247 1.371 . S
N245 C248 1.372 1_655 S
N246 C248 1.361 . S
N246 C249 1.377 . S
C247 N244 1.382 1_655 S
C247 N245 1.371 . S
C247 C250 1.480 . S
C248 N245 1.372 1_455 S
C248 N246 1.361 . S
C248 C256 1.457 . S
C249 N244 1.363 . S
C249 N246 1.377 . S
C249 C262 1.479 . S
C250 C247 1.480 . S
C250 C251 1.383 . S
C250 C255 1.385 . S
C251 H232 0.947 . S
C251 C250 1.383 . S
C251 C252 1.388 . S
C252 H233 0.946 . S
C252 C251 1.388 . S
C252 C253 1.384 . S
C253 C252 1.384 . S
C253 C254 1.377 . S
C254 H234 0.953 . S
C254 C253 1.377 . S
C254 C255 1.369 . S
C255 H235 0.945 . S
C255 C250 1.385 . S
C255 C254 1.369 . S
C256 C248 1.457 . S
C256 C257 1.372 1_455 S
C256 C261 1.364 . S
C257 H236 0.952 . S
C257 C256 1.372 1_655 S
C257 C258 1.389 . S
C258 H237 0.949 . S
C258 C257 1.389 . S
C258 C259 1.387 1_655 S
C259 C258 1.387 1_455 S
C259 C260 1.372 . S
C260 H238 0.950 . S
C260 C259 1.372 . S
C260 C261 1.379 . S
C261 H239 0.948 . S
C261 C256 1.364 . S
C261 C260 1.379 . S
C262 C231 1.383 . S
C262 C249 1.479 . S
C262 C263 1.398 . S
C263 C228 1.382 . S
C263 H240 0.951 . S
C263 C262 1.398 . S
C264 C265 1.384 . S
C264 H277 0.947 . S
C264 C299 1.382 . S
C265 C264 1.384 . S
C265 C266 1.378 . S
C266 C265 1.378 . S
C266 C267 1.378 . S
C266 H278 0.952 . S
C267 C266 1.378 . S
C267 H279 0.950 . S
C267 C298 1.383 . S
H268 C287 0.947 . S
H269 C288 0.946 . S
H270 C290 0.953 . S
H271 C291 0.945 . S
H272 C293 0.952 . S
H273 C294 0.949 . S
H274 C296 0.950 . S
H275 C297 0.948 . S
H276 C299 0.951 . S
H277 C264 0.947 . S
H278 C266 0.952 . S
H279 C267 0.950 . S
N280 C283 1.382 1_545 S
N280 C285 1.363 . S
N281 C283 1.371 . S
N281 C284 1.372 1_565 S
N282 C284 1.361 . S
N282 C285 1.377 . S
C283 N280 1.382 1_565 S
C283 N281 1.371 . S
C283 C286 1.480 . S
C284 N281 1.372 1_545 S
C284 N282 1.361 . S
C284 C292 1.457 . S
C285 N280 1.363 . S
C285 N282 1.377 . S
C285 C298 1.479 . S
C286 C283 1.480 . S
C286 C287 1.383 . S
C286 C291 1.385 . S
C287 H268 0.947 . S
C287 C286 1.383 . S
C287 C288 1.388 . S
C288 H269 0.946 . S
C288 C287 1.388 . S
C288 C289 1.384 . S
C289 C288 1.384 . S
C289 C290 1.377 . S
C290 H270 0.953 . S
C290 C289 1.377 . S
C290 C291 1.369 . S
C291 H271 0.945 . S
C291 C286 1.385 . S
C291 C290 1.369 . S
C292 C284 1.457 . S
C292 C293 1.372 1_545 S
C292 C297 1.364 . S
C293 H272 0.952 . S
C293 C292 1.372 1_565 S
C293 C294 1.389 . S
C294 H273 0.949 . S
C294 C293 1.389 . S
C294 C295 1.387 . S
C295 C294 1.387 . S
C295 C296 1.372 1_565 S
C296 H274 0.950 . S
C296 C295 1.372 1_545 S
C296 C297 1.379 . S
C297 H275 0.948 . S
C297 C292 1.364 . S
C297 C296 1.379 . S
C298 C267 1.383 . S
C298 C285 1.479 . S
C298 C299 1.398 . S
C299 C264 1.382 . S
C299 H276 0.951 . S
C299 C298 1.398 . S
C300 C301 1.384 . S
C300 H313 0.947 . S
C300 C335 1.382 . S
C301 C300 1.384 . S
C301 C302 1.378 . S
C302 C301 1.378 . S
C302 C303 1.378 . S
C302 H314 0.952 . S
C303 C302 1.378 . S
C303 H315 0.950 . S
C303 C334 1.383 . S
H304 C323 0.947 . S
H305 C324 0.946 . S
H306 C326 0.953 . S
H307 C327 0.945 . S
H308 C329 0.952 . S
H309 C330 0.949 . S
H310 C332 0.950 . S
H311 C333 0.948 . S
H312 C335 0.951 . S
H313 C300 0.947 . S
H314 C302 0.952 . S
H315 C303 0.950 . S
N316 C319 1.382 . S
N316 C321 1.363 . S
N317 C319 1.371 . S
N317 C320 1.372 . S
N318 C320 1.361 . S
N318 C321 1.377 . S
C319 N316 1.382 . S
C319 N317 1.371 . S
C319 C322 1.480 . S
C320 N317 1.372 . S
C320 N318 1.361 . S
C320 C328 1.457 . S
C321 N316 1.363 . S
C321 N318 1.377 . S
C321 C334 1.479 . S
C322 C319 1.480 . S
C322 C323 1.383 . S
C322 C327 1.385 . S
C323 H304 0.947 . S
C323 C322 1.383 . S
C323 C324 1.388 . S
C324 H305 0.946 . S
C324 C323 1.388 . S
C324 C325 1.384 . S
C325 C324 1.384 . S
C325 C326 1.377 . S
C326 H306 0.953 . S
C326 C325 1.377 . S
C326 C327 1.369 . S
C327 H307 0.945 . S
C327 C322 1.385 . S
C327 C326 1.369 . S
C328 C320 1.457 . S
C328 C329 1.372 . S
C328 C333 1.364 . S
C329 H308 0.952 . S
C329 C328 1.372 . S
C329 C330 1.389 1_554 S
C330 H309 0.949 . S
C330 C329 1.389 1_556 S
C330 C331 1.387 . S
C331 C330 1.387 . S
C331 C332 1.372 . S
C332 H310 0.950 . S
C332 C331 1.372 . S
C332 C333 1.379 1_556 S
C333 H311 0.948 . S
C333 C328 1.364 . S
C333 C332 1.379 1_554 S
C334 C303 1.383 . S
C334 C321 1.479 . S
C334 C335 1.398 . S
C335 C300 1.382 . S
C335 H312 0.951 . S
C335 C334 1.398 . S
C336 C337 1.363 . S
C336 C342 1.379 . S
C336 N344 1.356 . S
C337 C336 1.363 . S
C337 C343 1.363 . S
C338 C339 1.363 . S
C338 C343 1.379 . S
C338 N345 1.356 . S
C339 C338 1.363 . S
C339 C342 1.363 . S
N340 C342 1.356 . S
N340 H352 0.984 . S
N340 H353 0.985 . S
N341 C343 1.356 . S
N341 H346 0.984 . S
N341 H347 0.985 . S
C342 C336 1.379 . S
C342 C339 1.363 . S
C342 N340 1.356 . S
C343 C337 1.363 . S
C343 C338 1.379 . S
C343 N341 1.356 . S
N344 C336 1.356 . S
N344 H350 0.984 . S
N344 H351 0.984 . S
N345 C338 1.356 . S
N345 H348 0.984 . S
N345 H349 0.985 . S
H346 N341 0.984 . S
H347 N341 0.985 . S
H348 N345 0.984 . S
H349 N345 0.985 . S
H350 N344 0.984 . S
H351 N344 0.984 . S
H352 N340 0.984 . S
H353 N340 0.985 . S
C354 C355 1.363 . S
C354 C360 1.379 . S
C354 N362 1.356 . S
C355 C354 1.363 . S
C355 C361 1.363 . S
C356 C357 1.363 . S
C356 C361 1.379 . S
C356 N363 1.356 . S
C357 C356 1.363 . S
C357 C360 1.363 . S
N358 C360 1.356 . S
N358 H370 0.984 . S
N358 H371 0.985 . S
N359 C361 1.356 . S
N359 H364 0.984 . S
N359 H365 0.985 . S
C360 C354 1.379 . S
C360 C357 1.363 . S
C360 N358 1.356 . S
C361 C355 1.363 . S
C361 C356 1.379 . S
C361 N359 1.356 . S
N362 C354 1.356 . S
N362 H368 0.984 . S
N362 H369 0.984 . S
N363 C356 1.356 . S
N363 H366 0.984 . S
N363 H367 0.985 . S
H364 N359 0.984 . S
H365 N359 0.985 . S
H366 N363 0.984 . S
H367 N363 0.985 . S
H368 N362 0.984 . S
H369 N362 0.984 . S
H370 N358 0.984 . S
H371 N358 0.985 . S
C372 C373 1.363 . S
C372 C378 1.379 . S
C372 N380 1.356 . S
C373 C372 1.363 . S
C373 C379 1.363 . S
C374 C375 1.363 . S
C374 C379 1.379 . S
C374 N381 1.356 . S
C375 C374 1.363 . S
C375 C378 1.363 . S
N376 C378 1.356 . S
N376 H388 0.984 . S
N376 H389 0.985 . S
N377 C379 1.356 . S
N377 H382 0.984 . S
N377 H383 0.985 . S
C378 C372 1.379 . S
C378 C375 1.363 . S
C378 N376 1.356 . S
C379 C373 1.363 . S
C379 C374 1.379 . S
C379 N377 1.356 . S
N380 C372 1.356 . S
N380 H386 0.984 . S
N380 H387 0.984 . S
N381 C374 1.356 . S
N381 H384 0.984 . S
N381 H385 0.985 . S
H382 N377 0.984 . S
H383 N377 0.985 . S
H384 N381 0.984 . S
H385 N381 0.985 . S
H386 N380 0.984 . S
H387 N380 0.984 . S
H388 N376 0.984 . S
H389 N376 0.985 . S
C390 C391 1.363 . S
C390 C396 1.379 . S
C390 N398 1.356 . S
C391 C390 1.363 . S
C391 C397 1.363 . S
C392 C393 1.363 . S
C392 C397 1.379 . S
C392 N399 1.356 . S
C393 C392 1.363 . S
C393 C396 1.363 . S
N394 C396 1.356 . S
N394 H406 0.984 . S
N394 H407 0.985 . S
N395 C397 1.356 . S
N395 H400 0.984 . S
N395 H401 0.985 . S
C396 C390 1.379 . S
C396 C393 1.363 . S
C396 N394 1.356 . S
C397 C391 1.363 . S
C397 C392 1.379 . S
C397 N395 1.356 . S
N398 C390 1.356 . S
N398 H404 0.984 . S
N398 H405 0.984 . S
N399 C392 1.356 . S
N399 H402 0.984 . S
N399 H403 0.985 . S
H400 N395 0.984 . S
H401 N395 0.985 . S
H402 N399 0.984 . S
H403 N399 0.985 . S
H404 N398 0.984 . S
H405 N398 0.984 . S
H406 N394 0.984 . S
H407 N394 0.985 . S
C408 C409 1.363 . S
C408 C414 1.379 . S
C408 N416 1.356 . S
C409 C408 1.363 . S
C409 C415 1.363 . S
C410 C411 1.363 . S
C410 C415 1.379 . S
C410 N417 1.356 . S
C411 C410 1.363 . S
C411 C414 1.363 . S
N412 C414 1.356 . S
N412 H424 0.984 . S
N412 H425 0.985 . S
N413 C415 1.356 . S
N413 H418 0.984 . S
N413 H419 0.985 . S
C414 C408 1.379 . S
C414 C411 1.363 . S
C414 N412 1.356 . S
C415 C409 1.363 . S
C415 C410 1.379 . S
C415 N413 1.356 . S
N416 C408 1.356 . S
N416 H422 0.984 . S
N416 H423 0.984 . S
N417 C410 1.356 . S
N417 H420 0.984 . S
N417 H421 0.985 . S
H418 N413 0.984 . S
H419 N413 0.985 . S
H420 N417 0.984 . S
H421 N417 0.985 . S
H422 N416 0.984 . S
H423 N416 0.984 . S
H424 N412 0.984 . S
H425 N412 0.985 . S
C426 C427 1.363 . S
C426 C432 1.379 . S
C426 N434 1.356 . S
C427 C426 1.363 . S
C427 C433 1.363 . S
C428 C429 1.363 . S
C428 C433 1.379 . S
C428 N435 1.356 . S
C429 C428 1.363 . S
C429 C432 1.363 . S
N430 C432 1.356 . S
N430 H442 0.984 . S
N430 H443 0.985 . S
N431 C433 1.356 . S
N431 H436 0.984 . S
N431 H437 0.985 . S
C432 C426 1.379 . S
C432 C429 1.363 . S
C432 N430 1.356 . S
C433 C427 1.363 . S
C433 C428 1.379 . S
C433 N431 1.356 . S
N434 C426 1.356 . S
N434 H440 0.984 . S
N434 H441 0.984 . S
N435 C428 1.356 . S
N435 H438 0.984 . S
N435 H439 0.985 . S
H436 N431 0.984 . S
H437 N431 0.985 . S
H438 N435 0.984 . S
H439 N435 0.985 . S
H440 N434 0.984 . S
H441 N434 0.984 . S
H442 N430 0.984 . S
H443 N430 0.985 . S
C444 C445 1.363 . S
C444 C450 1.379 . S
C444 N452 1.356 . S
C445 C444 1.363 . S
C445 C451 1.363 . S
C446 C447 1.363 . S
C446 C451 1.379 . S
C446 N453 1.356 . S
C447 C446 1.363 . S
C447 C450 1.363 . S
N448 C450 1.356 . S
N448 H460 0.984 . S
N448 H461 0.985 . S
N449 C451 1.356 . S
N449 H454 0.984 . S
N449 H455 0.985 . S
C450 C444 1.379 . S
C450 C447 1.363 . S
C450 N448 1.356 . S
C451 C445 1.363 . S
C451 C446 1.379 . S
C451 N449 1.356 . S
N452 C444 1.356 . S
N452 H458 0.984 . S
N452 H459 0.984 . S
N453 C446 1.356 . S
N453 H456 0.984 . S
N453 H457 0.985 . S
H454 N449 0.984 . S
H455 N449 0.985 . S
H456 N453 0.984 . S
H457 N453 0.985 . S
H458 N452 0.984 . S
H459 N452 0.984 . S
H460 N448 0.984 . S
H461 N448 0.985 . S
C462 C463 1.363 . S
C462 C468 1.379 . S
C462 N470 1.356 . S
C463 C462 1.363 . S
C463 C469 1.363 . S
C464 C465 1.363 . S
C464 C469 1.379 . S
C464 N471 1.356 . S
C465 C464 1.363 . S
C465 C468 1.363 . S
N466 C468 1.356 . S
N466 H478 0.984 . S
N466 H479 0.985 . S
N467 C469 1.356 . S
N467 H472 0.984 . S
N467 H473 0.985 . S
C468 C462 1.379 . S
C468 C465 1.363 . S
C468 N466 1.356 . S
C469 C463 1.363 . S
C469 C464 1.379 . S
C469 N467 1.356 . S
N470 C462 1.356 . S
N470 H476 0.984 . S
N470 H477 0.984 . S
N471 C464 1.356 . S
N471 H474 0.984 . S
N471 H475 0.985 . S
H472 N467 0.984 . S
H473 N467 0.985 . S
H474 N471 0.984 . S
H475 N471 0.985 . S
H476 N470 0.984 . S
H477 N470 0.984 . S
H478 N466 0.984 . S
H479 N466 0.985 . S
C480 C481 1.363 . S
C480 C486 1.379 . S
C480 N488 1.356 . S
C481 C480 1.363 . S
C481 C487 1.363 . S
C482 C483 1.363 . S
C482 C487 1.379 . S
C482 N489 1.356 . S
C483 C482 1.363 . S
C483 C486 1.363 . S
N484 C486 1.356 . S
N484 H496 0.984 . S
N484 H497 0.985 . S
N485 C487 1.356 . S
N485 H490 0.984 . S
N485 H491 0.985 . S
C486 C480 1.379 . S
C486 C483 1.363 . S
C486 N484 1.356 . S
C487 C481 1.363 . S
C487 C482 1.379 . S
C487 N485 1.356 . S
N488 C480 1.356 . S
N488 H494 0.984 . S
N488 H495 0.984 . S
N489 C482 1.356 . S
N489 H492 0.984 . S
N489 H493 0.985 . S
H490 N485 0.984 . S
H491 N485 0.985 . S
H492 N489 0.984 . S
H493 N489 0.985 . S
H494 N488 0.984 . S
H495 N488 0.984 . S
H496 N484 0.984 . S
H497 N484 0.985 . S
C498 C499 1.363 . S
C498 C504 1.379 . S
C498 N506 1.356 . S
C499 C498 1.363 . S
C499 C505 1.363 . S
C500 C501 1.363 . S
C500 C505 1.379 . S
C500 N507 1.356 . S
C501 C500 1.363 . S
C501 C504 1.363 . S
N502 C504 1.356 . S
N502 H514 0.984 . S
N502 H515 0.985 . S
N503 C505 1.356 . S
N503 H508 0.984 . S
N503 H509 0.985 . S
C504 C498 1.379 . S
C504 C501 1.363 . S
C504 N502 1.356 . S
C505 C499 1.363 . S
C505 C500 1.379 . S
C505 N503 1.356 . S
N506 C498 1.356 . S
N506 H512 0.984 . S
N506 H513 0.984 . S
N507 C500 1.356 . S
N507 H510 0.984 . S
N507 H511 0.985 . S
H508 N503 0.984 . S
H509 N503 0.985 . S
H510 N507 0.984 . S
H511 N507 0.985 . S
H512 N506 0.984 . S
H513 N506 0.984 . S
H514 N502 0.984 . S
H515 N502 0.985 . S
C516 C517 1.363 . S
C516 C522 1.379 . S
C516 N524 1.356 . S
C517 C516 1.363 . S
C517 C523 1.363 . S
C518 C519 1.363 . S
C518 C523 1.379 . S
C518 N525 1.356 . S
C519 C518 1.363 . S
C519 C522 1.363 . S
N520 C522 1.356 . S
N520 H532 0.984 . S
N520 H533 0.985 . S
N521 C523 1.356 . S
N521 H526 0.984 . S
N521 H527 0.985 . S
C522 C516 1.379 . S
C522 C519 1.363 . S
C522 N520 1.356 . S
C523 C517 1.363 . S
C523 C518 1.379 . S
C523 N521 1.356 . S
N524 C516 1.356 . S
N524 H530 0.984 . S
N524 H531 0.984 . S
N525 C518 1.356 . S
N525 H528 0.984 . S
N525 H529 0.985 . S
H526 N521 0.984 . S
H527 N521 0.985 . S
H528 N525 0.984 . S
H529 N525 0.985 . S
H530 N524 0.984 . S
H531 N524 0.984 . S
H532 N520 0.984 . S
H533 N520 0.985 . S
C534 C535 1.363 . S
C534 C540 1.379 . S
C534 N542 1.356 . S
C535 C534 1.363 . S
C535 C541 1.363 . S
C536 C537 1.363 . S
C536 C541 1.379 . S
C536 N543 1.356 . S
C537 C536 1.363 . S
C537 C540 1.363 . S
N538 C540 1.356 . S
N538 H550 0.984 . S
N538 H551 0.985 . S
N539 C541 1.356 . S
N539 H544 0.984 . S
N539 H545 0.985 . S
C540 C534 1.379 . S
C540 C537 1.363 . S
C540 N538 1.356 . S
C541 C535 1.363 . S
C541 C536 1.379 . S
C541 N539 1.356 . S
N542 C534 1.356 . S
N542 H548 0.984 . S
N542 H549 0.984 . S
N543 C536 1.356 . S
N543 H546 0.984 . S
N543 H547 0.985 . S
H544 N539 0.984 . S
H545 N539 0.985 . S
H546 N543 0.984 . S
H547 N543 0.985 . S
H548 N542 0.984 . S
H549 N542 0.984 . S
H550 N538 0.984 . S
H551 N538 0.985 . S
C552 C553 1.363 . S
C552 C558 1.379 . S
C552 N560 1.356 . S
C553 C552 1.363 . S
C553 C559 1.363 . S
C554 C555 1.363 . S
C554 C559 1.379 . S
C554 N561 1.356 . S
C555 C554 1.363 . S
C555 C558 1.363 . S
N556 C558 1.356 . S
N556 H568 0.984 . S
N556 H569 0.985 . S
N557 C559 1.356 . S
N557 H562 0.984 . S
N557 H563 0.985 . S
C558 C552 1.379 . S
C558 C555 1.363 . S
C558 N556 1.356 . S
C559 C553 1.363 . S
C559 C554 1.379 . S
C559 N557 1.356 . S
N560 C552 1.356 . S
N560 H566 0.984 . S
N560 H567 0.984 . S
N561 C554 1.356 . S
N561 H564 0.984 . S
N561 H565 0.985 . S
H562 N557 0.984 . S
H563 N557 0.985 . S
H564 N561 0.984 . S
H565 N561 0.985 . S
H566 N560 0.984 . S
H567 N560 0.984 . S
H568 N556 0.984 . S
H569 N556 0.985 . S
C570 C571 1.363 1_565 S
C570 C576 1.379 . S
C570 N578 1.356 . S
C571 C570 1.363 1_545 S
C571 C577 1.363 . S
C572 C573 1.363 . S
C572 C577 1.379 . S
C572 N579 1.356 . S
C573 C572 1.363 . S
C573 C576 1.363 1_545 S
N574 C576 1.356 . S
N574 H586 0.984 . S
N574 H587 0.985 . S
N575 C577 1.356 . S
N575 H580 0.984 . S
N575 H581 0.985 . S
C576 C570 1.379 . S
C576 C573 1.363 1_565 S
C576 N574 1.356 . S
C577 C571 1.363 . S
C577 C572 1.379 . S
C577 N575 1.356 . S
N578 C570 1.356 . S
N578 H584 0.984 . S
N578 H585 0.984 . S
N579 C572 1.356 . S
N579 H582 0.984 . S
N579 H583 0.985 . S
H580 N575 0.984 . S
H581 N575 0.985 . S
H582 N579 0.984 . S
H583 N579 0.985 . S
H584 N578 0.984 . S
H585 N578 0.984 . S
H586 N574 0.984 . S
H587 N574 0.985 . S
C588 C589 1.363 . S
C588 C594 1.379 . S
C588 N596 1.356 . S
C589 C588 1.363 . S
C589 C595 1.363 . S
C590 C591 1.363 . S
C590 C595 1.379 . S
C590 N597 1.356 . S
C591 C590 1.363 . S
C591 C594 1.363 . S
N592 C594 1.356 . S
N592 H604 0.984 . S
N592 H605 0.985 . S
N593 C595 1.356 . S
N593 H598 0.984 . S
N593 H599 0.985 . S
C594 C588 1.379 . S
C594 C591 1.363 . S
C594 N592 1.356 . S
C595 C589 1.363 . S
C595 C590 1.379 . S
C595 N593 1.356 . S
N596 C588 1.356 . S
N596 H602 0.984 . S
N596 H603 0.984 . S
N597 C590 1.356 . S
N597 H600 0.984 . S
N597 H601 0.985 . S
H598 N593 0.984 . S
H599 N593 0.985 . S
H600 N597 0.984 . S
H601 N597 0.985 . S
H602 N596 0.984 . S
H603 N596 0.984 . S
H604 N592 0.984 . S
H605 N592 0.985 . S
C606 C607 1.363 1_565 S
C606 C612 1.379 . S
C606 N614 1.356 . S
C607 C606 1.363 1_545 S
C607 C613 1.363 . S
C608 C609 1.363 1_545 S
C608 C613 1.379 . S
C608 N615 1.356 . S
C609 C608 1.363 1_565 S
C609 C612 1.363 . S
N610 C612 1.356 . S
N610 H622 0.984 . S
N610 H623 0.985 . S
N611 C613 1.356 . S
N611 H616 0.984 . S
N611 H617 0.985 . S
C612 C606 1.379 . S
C612 C609 1.363 . S
C612 N610 1.356 . S
C613 C607 1.363 . S
C613 C608 1.379 . S
C613 N611 1.356 . S
N614 C606 1.356 . S
N614 H620 0.984 . S
N614 H621 0.984 . S
N615 C608 1.356 . S
N615 H618 0.984 . S
N615 H619 0.985 . S
H616 N611 0.984 . S
H617 N611 0.985 . S
H618 N615 0.984 . S
H619 N615 0.985 . S
H620 N614 0.984 . S
H621 N614 0.984 . S
H622 N610 0.984 . S
H623 N610 0.985 . S
C624 C625 1.363 . S
C624 C630 1.379 . S
C624 N632 1.356 . S
C625 C624 1.363 . S
C625 C631 1.363 . S
C626 C627 1.363 . S
C626 C631 1.379 . S
C626 N633 1.356 . S
C627 C626 1.363 . S
C627 C630 1.363 . S
N628 C630 1.356 . S
N628 H640 0.984 . S
N628 H641 0.985 . S
N629 C631 1.356 . S
N629 H634 0.984 . S
N629 H635 0.985 . S
C630 C624 1.379 . S
C630 C627 1.363 . S
C630 N628 1.356 . S
C631 C625 1.363 . S
C631 C626 1.379 . S
C631 N629 1.356 . S
N632 C624 1.356 . S
N632 H638 0.984 . S
N632 H639 0.984 . S
N633 C626 1.356 . S
N633 H636 0.984 . S
N633 H637 0.985 . S
H634 N629 0.984 . S
H635 N629 0.985 . S
H636 N633 0.984 . S
H637 N633 0.985 . S
H638 N632 0.984 . S
H639 N632 0.984 . S
H640 N628 0.984 . S
H641 N628 0.985 . S
C642 C643 1.363 1_655 S
C642 C648 1.379 . S
C642 N650 1.356 . S
C643 C642 1.363 1_455 S
C643 C649 1.363 . S
C644 C645 1.363 . S
C644 C649 1.379 . S
C644 N651 1.356 . S
C645 C644 1.363 . S
C645 C648 1.363 1_455 S
N646 C648 1.356 . S
N646 H658 0.984 . S
N646 H659 0.985 . S
N647 C649 1.356 . S
N647 H652 0.984 . S
N647 H653 0.985 . S
C648 C642 1.379 . S
C648 C645 1.363 1_655 S
C648 N646 1.356 . S
C649 C643 1.363 . S
C649 C644 1.379 . S
C649 N647 1.356 . S
N650 C642 1.356 . S
N650 H656 0.984 . S
N650 H657 0.984 . S
N651 C644 1.356 . S
N651 H654 0.984 . S
N651 H655 0.985 . S
H652 N647 0.984 . S
H653 N647 0.985 . S
H654 N651 0.984 . S
H655 N651 0.985 . S
H656 N650 0.984 . S
H657 N650 0.984 . S
H658 N646 0.984 . S
H659 N646 0.985 . S
C337 C7 0.978 . S
C339 C325 1.080 . S
C355 C51 2.013 . S
C357 C253 1.912 . S
C373 C87 1.365 . S
C375 C289 1.394 . S
C391 C16 0.660 . S
C393 C301 0.607 . S
C411 C229 2.081 . S
C409 C42 2.177 . S
C429 C265 1.410 . S
C427 C96 1.393 . S
C445 C47 1.277 . S
C447 C181 1.315 . S
C463 C91 3.190 . S
C465 C193 3.129 . S
C481 C2 2.214 . S
C483 C121 2.135 . S
C501 C157 1.419 . S
C499 C56 1.384 . S
C519 C217 2.999 . S
C517 C82 3.100 . S
C535 C11 2.008 . S
C537 C145 1.926 . S
C555 C223 1.740 1_554 S
C553 C19 1.724 . S
C571 C50 1.337 . S
C573 C151 1.365 . S
C589 C99 1.462 . S
C591 C187 1.509 . S
C609 C295 1.480 . S
C607 C59 1.459 . S
C627 C331 1.133 . S
C625 C90 1.134 . S
C643 C10 1.331 . S
C645 C259 1.350 . S
