# Generated by pormake.
# Topology anh, (6,3)-cn, num edge types: 1
# Building blocks:
#     Node 0, Type 0, BuildingBlock: INOVEN_clean_sbu_0, # of connection points: 6
#     Node 1, Type 0, BuildingBlock: INOVEN_clean_sbu_0, # of connection points: 6
#     Node 2, Type 0, BuildingBlock: INOVEN_clean_sbu_0, # of connection points: 6
#     Node 3, Type 1, BuildingBlock: BETDIP_clean_linker_0, # of connection points: 3
#     Node 4, Type 1, BuildingBlock: BETDIP_clean_linker_0, # of connection points: 3
#     Node 5, Type 1, BuildingBlock: BETDIP_clean_linker_0, # of connection points: 3
#     Node 6, Type 1, BuildingBlock: BETDIP_clean_linker_0, # of connection points: 3
#     Node 7, Type 1, BuildingBlock: BETDIP_clean_linker_0, # of connection points: 3
#     Node 8, Type 1, BuildingBlock: BETDIP_clean_linker_0, # of connection points: 3
#     Edge 9, Type (0, 1), BuildingBlock: XIVTED_clean_linker_0, # of connection points: 2
#     Edge 10, Type (0, 1), BuildingBlock: XIVTED_clean_linker_0, # of connection points: 2
#     Edge 11, Type (0, 1), BuildingBlock: XIVTED_clean_linker_0, # of connection points: 2
#     Edge 12, Type (0, 1), BuildingBlock: XIVTED_clean_linker_0, # of connection points: 2
#     Edge 13, Type (0, 1), BuildingBlock: XIVTED_clean_linker_0, # of connection points: 2
#     Edge 14, Type (0, 1), BuildingBlock: XIVTED_clean_linker_0, # of connection points: 2
#     Edge 15, Type (0, 1), BuildingBlock: XIVTED_clean_linker_0, # of connection points: 2
#     Edge 16, Type (0, 1), BuildingBlock: XIVTED_clean_linker_0, # of connection points: 2
#     Edge 17, Type (0, 1), BuildingBlock: XIVTED_clean_linker_0, # of connection points: 2
#     Edge 18, Type (0, 1), BuildingBlock: XIVTED_clean_linker_0, # of connection points: 2
#     Edge 19, Type (0, 1), BuildingBlock: XIVTED_clean_linker_0, # of connection points: 2
#     Edge 20, Type (0, 1), BuildingBlock: XIVTED_clean_linker_0, # of connection points: 2
#     Edge 21, Type (0, 1), BuildingBlock: XIVTED_clean_linker_0, # of connection points: 2
#     Edge 22, Type (0, 1), BuildingBlock: XIVTED_clean_linker_0, # of connection points: 2
#     Edge 23, Type (0, 1), BuildingBlock: XIVTED_clean_linker_0, # of connection points: 2
#     Edge 24, Type (0, 1), BuildingBlock: XIVTED_clean_linker_0, # of connection points: 2
#     Edge 25, Type (0, 1), BuildingBlock: XIVTED_clean_linker_0, # of connection points: 2
#     Edge 26, Type (0, 1), BuildingBlock: XIVTED_clean_linker_0, # of connection points: 2
# Relax obj value: 0.153
# Max RMSD: 0.183
# Mean RMSD: 0.125
data_MOF--net-anh--node1-INOVEN_clean_sbu_0--node2-BETDIP_clean_linker_0--edge1-XIVTED_clean_linker_0
_symmetry_space_group_name_H-M    P1
_symmetry_Int_Tables_number       1
_symmetry_cell_setting            triclinic
loop_
_symmetry_equiv_pos_as_xyz
'x, y, z'
_cell_length_a     30.779832
_cell_length_b     38.541925
_cell_length_c     49.907723
_cell_angle_alpha  95.072022
_cell_angle_beta   88.181684
_cell_angle_gamma 130.24167
loop_
_atom_site_label
_atom_site_type_symbol
_atom_site_fract_x
_atom_site_fract_y
_atom_site_fract_z
_atom_type_partial_charge
Gd0 Gd 0.19038 0.55216 0.14355 0.0
Gd1 Gd 0.12794 0.58484 0.14795 0.0
C2 C 0.26063 0.66135 0.14619 0.0
C3 C 0.2642 0.5442 0.1328 0.0
C4 C 0.32163 0.57808 0.14426 0.0
C5 C 0.33041 0.59548 0.17138 0.0
C6 C 0.36744 0.59883 0.12728 0.0
C7 C 0.43217 0.64537 0.16595 0.0
C8 C 0.42227 0.63292 0.13786 0.0
C9 C 0.3854 0.62929 0.1821 0.0
C10 C 0.15853 0.55357 0.19418 0.0
C11 C 1.05783 0.47687 0.14217 0.0
C12 C 1.07743 0.61024 0.17134 0.0
C13 C 1.01978 0.5775 0.18057 0.0
C14 C 0.97435 0.54882 0.16168 0.0
C15 C 1.01121 0.56873 0.20778 0.0
C16 C 0.911 0.50803 0.19771 0.0
C17 C 0.95703 0.53387 0.21628 0.0
C18 C 0.92048 0.51396 0.17016 0.0
C19 C 0.12653 0.56463 0.09473 0.0
O20 O 0.26319 0.62917 0.14996 0.0
O21 O 0.21175 0.65124 0.14205 0.0
O22 O 0.22473 0.5192 0.15004 0.0
O23 O 0.25074 0.56004 0.11573 0.0
O24 O 0.15658 0.52112 0.1827 0.0
O25 O 0.1788 0.58464 0.17836 0.0
O26 O 1.05818 0.50974 0.15278 0.0
O27 O 0.10398 0.48632 0.13186 0.0
O28 O 1.08288 0.61005 0.14524 0.0
O29 O 0.11475 0.61138 0.18407 0.0
O30 O 0.10142 0.57916 0.10526 0.0
O31 O 0.15005 0.56003 0.11269 0.0
H32 H 0.29496 0.58211 0.18453 0.0
H33 H 0.36091 0.58789 0.10595 0.0
H34 H 0.45671 0.64545 0.12423 0.0
H35 H 0.3914 0.63912 0.20355 0.0
H36 H 0.97996 0.55354 0.14038 0.0
H37 H 1.04625 0.58918 0.22252 0.0
H38 H 0.95017 0.52966 0.23758 0.0
H39 H 0.88538 0.49476 0.15544 0.0
Gd40 Gd 0.6203 0.0268 0.47089 0.0
Gd41 Gd 0.54461 0.04804 0.47117 0.0
C42 C 0.48223 0.94484 0.46808 0.0
C43 C 0.66251 0.98734 0.47423 0.0
C44 C 0.63677 0.93887 0.47248 0.0
C45 C 0.63925 0.91825 0.44847 0.0
C46 C 0.60977 0.91279 0.49458 0.0
C47 C 0.59348 0.84801 0.46954 0.0
C48 C 0.58829 0.86781 0.4931 0.0
C49 C 0.61766 0.87323 0.44699 0.0
C50 C 0.60381 0.04334 0.4226 0.0
C51 C 0.68348 0.13079 0.47605 0.0
C52 C 0.50383 0.08722 0.46203 0.0
C53 C 0.52695 0.13514 0.46537 0.0
C54 C 0.53184 0.15617 0.49092 0.0
C55 C 0.54449 0.16041 0.44284 0.0
C56 C 0.5697 0.22613 0.47124 0.0
C57 C 0.56557 0.20542 0.44574 0.0
C58 C 0.55312 0.20116 0.49381 0.0
C59 C 0.56121 0.03356 0.52031 0.0
O60 O 0.53219 0.95889 0.4761 0.0
O61 O 0.47655 0.97346 0.46029 0.0
O62 O 0.66093 1.00202 0.452 0.0
O63 O 0.65164 1.0029 0.4954 0.0
O64 O 0.65296 0.05984 0.43217 0.0
O65 O 0.56513 0.01858 0.43885 0.0
O66 O 0.63253 0.11629 0.46962 0.0
O67 O 0.69062 0.10185 0.48148 0.0
O68 O 0.49425 0.06724 0.48395 0.0
O69 O 0.52639 0.07769 0.4434 0.0
O70 O 0.51352 0.02135 0.51152 0.0
O71 O 0.59968 0.05584 0.50343 0.0
H72 H 0.65903 0.93725 0.43096 0.0
H73 H 0.60651 0.92741 0.51328 0.0
H74 H 0.5703 0.84938 0.51091 0.0
H75 H 0.6214 0.85858 0.42844 0.0
H76 H 0.51884 0.13785 0.50874 0.0
H77 H 0.54161 0.14526 0.42292 0.0
H78 H 0.57865 0.22405 0.42804 0.0
H79 H 0.55523 0.21604 0.5137 0.0
Gd80 Gd 0.67523 0.57352 0.81721 0.0
Gd81 Gd 0.59373 0.47247 0.81456 0.0
C82 C 0.53674 0.51855 0.81854 0.0
C83 C 0.72538 0.65754 0.81158 0.0
C84 C 0.70524 0.68349 0.81294 0.0
C85 C 0.72448 0.71726 0.83424 0.0
C86 C 0.66588 0.67425 0.79363 0.0
C87 C 0.66827 0.73399 0.816 0.0
C88 C 0.64745 0.69925 0.79522 0.0
C89 C 0.70628 0.74244 0.8357 0.0
C90 C 0.64998 0.53793 0.86457 0.0
C91 C 0.73301 0.52847 0.81584 0.0
C92 C 0.54249 0.38922 0.82345 0.0
C93 C 0.55721 0.3594 0.82022 0.0
C94 C 0.5537 0.33885 0.79474 0.0
C95 C 0.57542 0.35152 0.84264 0.0
C96 C 0.58755 0.30407 0.81403 0.0
C97 C 0.59041 0.32405 0.83957 0.0
C98 C 0.56884 0.31161 0.79169 0.0
C99 C 0.60915 0.504 0.76658 0.0
O100 O 0.58894 0.55699 0.81476 0.0
O101 O 0.52784 0.48084 0.82228 0.0
O102 O 0.72619 0.64353 0.83431 0.0
O103 O 0.70674 0.62687 0.79111 0.0
O104 O 0.70125 0.57301 0.85899 0.0
O105 O 0.61559 0.52485 0.8456 0.0
O106 O 0.68023 0.48925 0.81712 0.0
O107 O 0.74269 0.5668 0.81334 0.0
O108 O 0.53458 0.40062 0.80132 0.0
O109 O 0.57104 0.42319 0.84227 0.0
O110 O 0.56134 0.4677 0.77443 0.0
O111 O 0.64919 0.52109 0.78386 0.0
H112 H 0.75413 0.72455 0.84959 0.0
H113 H 0.64977 0.64814 0.77711 0.0
H114 H 0.61854 0.69259 0.77966 0.0
H115 H 0.72253 0.769 0.85196 0.0
H116 H 0.53942 0.34383 0.77706 0.0
H117 H 0.57842 0.36681 0.86253 0.0
H118 H 0.60505 0.31899 0.85708 0.0
H119 H 0.56538 0.29603 0.77182 0.0
H120 H 0.63005 0.02983 0.14563 0.0
H121 H 0.68723 0.11201 0.22133 0.0
H122 H 0.53774 0.96971 0.21692 0.0
H123 H 0.68301 0.1556 0.18572 0.0
C124 C 0.71546 0.15687 0.1752 0.0
C125 C 0.62503 0.03305 0.16706 0.0
C126 C 0.58029 0.9948 0.17997 0.0
C127 C 0.66226 0.07586 0.18189 0.0
C128 C 0.65637 0.07945 0.20987 0.0
C129 C 0.61232 0.04116 0.22303 0.0
C130 C 0.5735 0.99941 0.20754 0.0
N131 N 0.70531 0.11544 0.16874 0.0
H132 H 0.63223 0.53586 0.4923 0.0
H133 H 0.62445 0.59568 0.56744 0.0
H134 H 0.63428 0.48967 0.56735 0.0
H135 H 0.55141 0.58168 0.53779 0.0
C136 C 0.58062 0.6008 0.52189 0.0
C137 C 0.63235 0.53819 0.5141 0.0
C138 C 0.63539 0.50978 0.52814 0.0
C139 C 0.62742 0.5686 0.52814 0.0
C140 C 0.62789 0.57204 0.55646 0.0
C141 C 0.63041 0.54359 0.57058 0.0
C142 C 0.63394 0.51254 0.55634 0.0
N143 N 0.61917 0.59388 0.51348 0.0
H144 H 0.09142 0.52394 0.81489 0.0
H145 H 0.16951 0.52895 0.8873 0.0
H146 H 1.0363 0.53543 0.89357 0.0
H147 H 0.24844 0.57513 0.86015 0.0
C148 C 0.23203 0.54778 0.84429 0.0
C149 C 0.09443 0.52606 0.83662 0.0
C150 C 1.05847 0.53043 0.85264 0.0
C151 C 0.13626 0.52666 0.84905 0.0
C152 C 0.13958 0.52992 0.87734 0.0
C153 C 0.10403 0.53327 0.89323 0.0
C154 C 1.06365 0.53303 0.88087 0.0
N155 N 0.17524 0.52435 0.83379 0.0
H156 H 0.13399 0.5786 0.47217 0.0
H157 H 1.03902 0.49141 0.4002 0.0
H158 H 0.17738 0.63433 0.3953 0.0
H159 H 0.96768 0.47539 0.43752 0.0
C160 C 0.98461 0.46315 0.44864 0.0
C161 C 0.1262 0.57425 0.45063 0.0
C162 C 0.16114 0.61178 0.43513 0.0
C163 C 1.08121 0.53087 0.43809 0.0
C164 C 1.07255 0.52509 0.4099 0.0
C165 C 0.10714 0.56227 0.39421 0.0
C166 C 0.15015 0.60545 0.40721 0.0
N167 N 1.04444 0.49293 0.45366 0.0
H168 H 0.64315 0.05336 0.79483 0.0
H169 H 0.61049 0.9747 0.71972 0.0
H170 H 0.6191 0.09083 0.72168 0.0
H171 H 0.55183 0.91728 0.75696 0.0
C172 C 0.59162 0.93431 0.76814 0.0
C173 C 0.63494 0.04751 0.77325 0.0
C174 C 0.63183 0.07628 0.75989 0.0
C175 C 0.6268 0.01076 0.75889 0.0
C176 C 0.61632 1.00298 0.73082 0.0
C177 C 0.61338 0.03182 0.7172 0.0
C178 C 0.62134 0.06837 0.73197 0.0
N179 N 0.63036 0.98245 0.77304 0.0
H180 H 0.6034 0.53096 0.12545 0.0
H181 H 0.64217 0.49635 0.05059 0.0
H182 H 0.47968 0.46376 0.05973 0.0
H183 H 0.68078 0.47954 0.08452 0.0
C184 C 0.69533 0.50561 0.101 0.0
C185 C 0.58913 0.51376 0.1053 0.0
C186 C 0.53599 0.49571 0.09481 0.0
C187 C 0.62642 0.51336 0.08939 0.0
C188 C 0.61082 0.49383 0.06296 0.0
C189 C 0.5576 0.47522 0.05197 0.0
C190 C 0.51965 0.47561 0.06823 0.0
N191 N 0.67993 0.53282 0.10046 0.0
H192 H 0.44256 0.61156 0.20964 0.0
H193 H 0.51767 0.54871 0.07634 0.0
H194 H 0.54688 0.70799 0.15183 0.0
H195 H 0.4982 0.48206 0.14626 0.0
H196 H 0.51846 0.60352 0.10518 0.0
H197 H 0.46867 0.5667 0.19223 0.0
C198 C 0.47361 0.62496 0.19403 0.0
C199 C 0.48458 0.65839 0.17839 0.0
C200 C 0.51367 0.57671 0.11421 0.0
C201 C 0.51746 0.60995 0.15992 0.0
C202 C 0.51112 0.54451 0.09768 0.0
C203 C 0.50842 0.51134 0.10912 0.0
C204 C 0.51246 0.575 0.14221 0.0
C205 C 0.50055 0.50749 0.13688 0.0
C206 C 0.48741 0.59846 0.18376 0.0
C207 C 0.53152 0.67825 0.16184 0.0
N208 N 0.50346 0.53949 0.15269 0.0
N209 N 0.54269 0.65135 0.15084 0.0
H210 H 0.79855 0.18153 0.49 0.0
H211 H 0.87266 0.40534 0.43864 0.0
H212 H 0.67924 0.19345 0.45948 0.0
H213 H 1.00401 0.41178 0.47396 0.0
H214 H 0.80291 0.32601 0.447 0.0
H215 H 0.87608 0.26401 0.48558 0.0
C216 C 0.78858 0.20128 0.48251 0.0
C217 C 0.73213 0.18031 0.47513 0.0
C218 C 0.84676 0.34436 0.4532 0.0
C219 C 0.81995 0.2738 0.46988 0.0
C220 C 0.88674 0.38993 0.4484 0.0
C221 C 0.94407 0.41524 0.45565 0.0
C222 C 0.86366 0.3231 0.46544 0.0
C223 C 0.95997 0.39334 0.46811 0.0
C224 C 0.83274 0.24822 0.48 0.0
C225 C 0.72167 0.20756 0.46557 0.0
N226 N 0.91982 0.34823 0.4726 0.0
N227 N 0.76487 0.25235 0.46319 0.0
H228 H 0.56343 0.71066 0.81477 0.0
H229 H 0.69381 0.96211 0.7859 0.0
H230 H 0.74323 0.82581 0.81513 0.0
H231 H 0.51485 0.84479 0.77705 0.0
H232 H 0.71154 0.91469 0.80299 0.0
H233 H 0.54338 0.7615 0.80804 0.0
C234 C 0.59853 0.74676 0.81366 0.0
C235 C 0.65495 0.76433 0.81539 0.0
C236 C 0.66827 0.89935 0.7976 0.0
C237 C 0.63272 0.82218 0.80719 0.0
C238 C 0.65815 0.92642 0.78789 0.0
C239 C 0.60278 0.90704 0.77998 0.0
C240 C 0.62264 0.8527 0.79953 0.0
C241 C 0.55818 0.86068 0.78274 0.0
C242 C 0.58721 0.77569 0.80979 0.0
C243 C 0.69916 0.81122 0.81406 0.0
N244 N 0.56906 0.83495 0.79225 0.0
N245 N 0.68712 0.83849 0.80972 0.0
H246 H 0.88667 0.55464 0.22671 0.0
H247 H 0.64824 0.42386 0.11824 0.0
H248 H 0.80893 0.42211 0.18638 0.0
H249 H 0.75607 0.56736 0.14413 0.0
H250 H 0.66855 0.41013 0.16119 0.0
H251 H 0.80206 0.54383 0.21667 0.0
C252 C 0.84991 0.52165 0.21758 0.0
C253 C 0.85475 0.4895 0.20676 0.0
C254 C 0.687 0.44454 0.15768 0.0
C255 C 0.75891 0.47754 0.19457 0.0
C256 C 0.67632 0.45239 0.13309 0.0
C257 C 0.70346 0.49698 0.12741 0.0
C258 C 0.7269 0.48184 0.17599 0.0
C259 C 0.7366 0.5327 0.14757 0.0
C260 C 0.80175 0.51576 0.21152 0.0
C261 C 0.80664 0.44781 0.19467 0.0
N262 N 0.74892 0.52457 0.17083 0.0
N263 N 0.76097 0.44353 0.1881 0.0
H264 H 0.41577 0.89326 0.50889 0.0
H265 H 0.26821 0.662 0.41729 0.0
H266 H 0.43899 0.88549 0.42367 0.0
H267 H 0.16968 0.66633 0.47872 0.0
H268 H 0.34643 0.74312 0.42804 0.0
H269 H 0.3374 0.80955 0.50541 0.0
C270 C 0.40391 0.87382 0.48948 0.0
C271 C 0.43307 0.89578 0.46643 0.0
C272 C 0.30799 0.72631 0.43942 0.0
C273 C 0.34592 0.80118 0.46252 0.0
C274 C 0.26345 0.68 0.4334 0.0
C275 C 0.21191 0.65769 0.44666 0.0
C276 C 0.30173 0.75079 0.45918 0.0
C277 C 0.20857 0.68245 0.46783 0.0
C278 C 0.35952 0.82639 0.48754 0.0
C279 C 0.41707 0.86961 0.44179 0.0
N280 N 0.25289 0.72811 0.47333 0.0
N281 N 0.37491 0.82363 0.44052 0.0
H282 H 0.65413 0.30707 0.77544 0.0
H283 H 0.57323 0.07279 0.80355 0.0
H284 H 0.55799 0.23585 0.84426 0.0
H285 H 0.70269 0.16505 0.74923 0.0
H286 H 0.57065 0.13292 0.82144 0.0
H287 H 0.67461 0.25581 0.76714 0.0
C288 C 0.63758 0.28069 0.78889 0.0
C289 C 0.60391 0.27538 0.8104 0.0
C290 C 0.60039 0.14024 0.80598 0.0
C291 C 0.62737 0.21651 0.80113 0.0
C292 C 0.60204 0.10609 0.79589 0.0
C293 C 0.63765 0.11405 0.77466 0.0
C294 C 0.63445 0.18225 0.79457 0.0
C295 C 0.67397 0.15748 0.76529 0.0
C296 C 0.64962 0.25161 0.78429 0.0
C297 C 0.58422 0.24106 0.82747 0.0
N298 N 0.67092 0.18976 0.77507 0.0
N299 N 0.59564 0.21245 0.82227 0.0
H300 H 0.50163 0.7701 0.49089 0.0
H301 H 0.65199 0.66151 0.48485 0.0
H302 H 0.65691 0.82575 0.44945 0.0
H303 H 0.50135 0.61015 0.52934 0.0
H304 H 0.64682 0.71531 0.46601 0.0
H305 H 0.49193 0.7037 0.49875 0.0
C306 C 0.53324 0.76803 0.48314 0.0
C307 C 0.58058 0.80379 0.46986 0.0
C308 C 0.6145 0.69191 0.47965 0.0
C309 C 0.57011 0.72829 0.47895 0.0
C310 C 0.61748 0.66125 0.49041 0.0
C311 C 0.57711 0.63166 0.50875 0.0
C312 C 0.57088 0.69282 0.48735 0.0
C313 C 0.53343 0.63272 0.51535 0.0
C314 C 0.52773 0.73016 0.48762 0.0
C315 C 0.6197 0.79898 0.45977 0.0
N316 N 0.53161 0.66301 0.50477 0.0
N317 N 0.61406 0.76227 0.46487 0.0
H318 H 0.83376 0.59388 0.84405 0.0
H319 H 0.97552 0.4772 0.81089 0.0
H320 H 0.74579 0.46611 0.79548 0.0
H321 H 1.04283 0.59114 0.86979 0.0
H322 H 0.89711 0.47675 0.80025 0.0
H323 H 0.91413 0.59601 0.85032 0.0
C324 C 0.83165 0.56653 0.83433 0.0
C325 C 0.78285 0.53003 0.81893 0.0
C326 C 0.92921 0.50189 0.81546 0.0
C327 C 0.87619 0.53247 0.82577 0.0
C328 C 0.97449 0.5025 0.82132 0.0
C329 C 1.01599 0.53384 0.8416 0.0
C330 C 0.92535 0.53307 0.82979 0.0
C331 C 1.01173 0.56573 0.85434 0.0
C332 C 0.87768 0.56766 0.83799 0.0
C333 C 0.78243 0.49503 0.80744 0.0
N334 N 0.96757 0.56427 0.84842 0.0
N335 N 0.8283 0.49727 0.81088 0.0
H336 H 0.37323 0.70268 0.15795 0.0
H337 H 0.47674 0.95448 0.15727 0.0
H338 H 0.26511 0.73254 0.13869 0.0
H339 H 0.59083 0.92995 0.17387 0.0
H340 H 0.40038 0.87244 0.14635 0.0
H341 H 0.45523 0.78517 0.16151 0.0
C342 C 0.36674 0.72635 0.15425 0.0
C343 C 0.31215 0.71044 0.14781 0.0
C344 C 0.44238 0.8849 0.1518 0.0
C345 C 0.40538 0.80448 0.15177 0.0
C346 C 0.48604 0.93178 0.15763 0.0
C347 C 0.54014 0.94874 0.16585 0.0
C348 C 0.45275 0.85474 0.15465 0.0
C349 C 0.54979 0.91797 0.16701 0.0
C350 C 0.41349 0.77338 0.15626 0.0
C351 C 0.30623 0.74283 0.14353 0.0
N352 N 0.50636 0.87234 0.16174 0.0
N353 N 0.352 0.78799 0.14563 0.0
H354 H 0.53777 0.26291 0.44095 0.0
H355 H 0.70542 0.49257 0.53935 0.0
H356 H 0.64517 0.2957 0.50898 0.0
H357 H 0.56879 0.44821 0.48493 0.0
H358 H 0.69796 0.42801 0.52114 0.0
H359 H 0.5623 0.33752 0.44996 0.0
C360 C 0.56718 0.28608 0.45752 0.0
C361 C 0.58901 0.27293 0.47445 0.0
C362 C 0.66991 0.43254 0.51295 0.0
C363 C 0.61707 0.358 0.48483 0.0
C364 C 0.67422 0.4694 0.52332 0.0
C365 C 0.63714 0.47531 0.5139 0.0
C366 C 0.62803 0.40105 0.49303 0.0
C367 C 0.59815 0.4448 0.49277 0.0
C368 C 0.58086 0.32848 0.46272 0.0
C369 C 0.62665 0.30414 0.4957 0.0
N370 N 0.59406 0.40852 0.48323 0.0
N371 N 0.63923 0.34505 0.50035 0.0
H372 H 0.52577 0.56632 0.8575 0.0
H373 H 0.23671 0.50044 0.79879 0.0
H374 H 0.43878 0.47316 0.7866 0.0
H375 H 0.31304 0.567 0.87752 0.0
H376 H 0.30858 0.4905 0.79169 0.0
H377 H 0.4482 0.56848 0.86302 0.0
C378 C 0.49032 0.54643 0.84299 0.0
C379 C 0.48888 0.51951 0.82161 0.0
C380 C 0.30906 0.50688 0.81059 0.0
C381 C 0.3991 0.52218 0.8275 0.0
C382 C 0.2678 0.51235 0.81469 0.0
C383 C 0.26877 0.53488 0.8388 0.0
C384 C 0.35147 0.52403 0.83075 0.0
C385 C 0.31066 0.54987 0.8585 0.0
C386 C 0.4457 0.54751 0.84615 0.0
C387 C 0.44143 0.49418 0.80349 0.0
N388 N 0.34987 0.54441 0.85403 0.0
N389 N 0.39874 0.49638 0.80669 0.0
H390 H 0.94791 0.44151 0.14871 0.0
H391 H 0.82249 0.1857 0.16338 0.0
H392 H 1.05181 0.40268 0.14119 0.0
H393 H 0.72411 0.22954 0.16902 0.0
H394 H 0.907 0.26343 0.15365 0.0
H395 H 0.86494 0.36241 0.15453 0.0
C396 C 0.95317 0.41624 0.14814 0.0
C397 C 1.00667 0.42861 0.14418 0.0
C398 C 0.8667 0.2558 0.15672 0.0
C399 C 0.91188 0.3378 0.15128 0.0
C400 C 0.81854 0.21148 0.16212 0.0
C401 C 0.76638 0.20141 0.16686 0.0
C402 C 0.86212 0.28978 0.15589 0.0
C403 C 0.76361 0.23604 0.16551 0.0
C404 C 0.90579 0.37101 0.1515 0.0
C405 C 1.01106 0.39442 0.14375 0.0
N406 N 0.81062 0.27851 0.16014 0.0
N407 N 0.96434 0.35058 0.14741 0.0
H408 H 1.04346 0.48933 0.06262 0.0
H409 H 0.19922 0.59718 0.92517 0.0
H410 H 0.2101 0.62126 0.06069 0.0
H411 H 1.02165 0.47908 0.92878 0.0
H412 H 0.20785 0.60326 0.97444 0.0
H413 H 1.03925 0.48031 0.01318 0.0
C414 C 1.07952 0.51602 0.05167 0.0
C415 C 0.12749 0.55576 0.06551 0.0
C416 C 0.16705 0.57589 0.96448 0.0
C417 C 0.1225 0.54654 0.00916 0.0
C418 C 0.16217 0.5724 0.93641 0.0
C419 C 0.10966 0.53753 0.92301 0.0
C420 C 0.11924 0.54382 0.97922 0.0
C421 C 1.06278 0.50656 0.93842 0.0
C422 C 1.07698 0.51111 0.02352 0.0
C423 C 0.17281 0.58979 0.05059 0.0
N424 N 1.06873 0.51028 0.96568 0.0
N425 N 0.16915 0.58453 0.02318 0.0
H426 H 0.52251 0.97223 0.38727 0.0
H427 H 0.64011 0.11355 0.25796 0.0
H428 H 0.66592 0.11651 0.39336 0.0
H429 H 0.57461 0.97473 0.25681 0.0
H430 H 0.63229 0.11566 0.30704 0.0
H431 H 0.5202 0.97287 0.33812 0.0
C432 C 0.55244 1.00419 0.37826 0.0
C433 C 0.59455 0.04437 0.3941 0.0
C434 C 0.61916 0.08472 0.29579 0.0
C435 C 0.59214 0.04544 0.3384 0.0
C436 C 0.62403 0.08352 0.26781 0.0
C437 C 0.6075 0.04371 0.25288 0.0
C438 C 0.59652 0.04561 0.30884 0.0
C439 C 0.58625 0.00577 0.26703 0.0
C440 C 0.55148 0.0045 0.35032 0.0
C441 C 0.63304 0.08487 0.38159 0.0
N442 N 0.58106 0.0076 0.29408 0.0
N443 N 0.63101 0.08446 0.35438 0.0
H444 H 0.6991 0.5822 0.74316 0.0
H445 H 0.54663 0.47243 0.59737 0.0
H446 H 0.53207 0.4512 0.72606 0.0
H447 H 0.70064 0.61261 0.61023 0.0
H448 H 0.54125 0.46681 0.64566 0.0
H449 H 0.70272 0.59711 0.69561 0.0
C450 C 0.66346 0.55671 0.72948 0.0
C451 C 0.61534 0.51538 0.73851 0.0
C452 C 0.57622 0.49907 0.63816 0.0
C453 C 0.61916 0.53185 0.68464 0.0
C454 C 0.57913 0.50216 0.61057 0.0
C455 C 0.62439 0.5428 0.6 0.0
C456 C 0.61942 0.53674 0.65546 0.0
C457 C 0.66525 0.58062 0.61783 0.0
C458 C 0.66538 0.56525 0.70247 0.0
C459 C 0.57009 0.48357 0.72009 0.0
N460 N 0.66229 0.57656 0.64483 0.0
N461 N 0.57332 0.49237 0.69417 0.0
H462 H 0.52003 0.05135 0.56283 0.0
H463 H 0.66227 0.01507 0.67657 0.0
H464 H 0.62617 0.01701 0.54296 0.0
H465 H 0.53836 0.03271 0.69069 0.0
H466 H 0.65103 0.01464 0.62784 0.0
H467 H 0.53129 0.04768 0.61028 0.0
C468 C 0.54562 0.04283 0.56854 0.0
C469 C 0.57195 0.03422 0.54902 0.0
C470 C 0.62617 0.01836 0.64166 0.0
C471 C 0.5842 0.02886 0.60344 0.0
C472 C 0.63222 0.01824 0.6694 0.0
C473 C 0.60187 0.02471 0.68769 0.0
C474 C 0.58955 0.02501 0.63234 0.0
C475 C 0.56355 0.02867 0.67737 0.0
C476 C 0.55196 0.04058 0.59565 0.0
C477 C 0.60542 0.02407 0.55748 0.0
N478 N 0.5589 0.02913 0.65052 0.0
N479 N 0.61032 0.0213 0.58414 0.0
H480 H 0.69436 0.51628 0.89922 0.0
H481 H 0.51274 0.49835 0.01888 0.0
H482 H 0.56146 0.52313 0.88936 0.0
H483 H 0.58534 0.43269 0.01781 0.0
H484 H 0.52692 0.50496 0.97099 0.0
H485 H 0.65657 0.48619 0.94324 0.0
C486 C 0.65758 0.51172 0.90655 0.0
C487 C 0.63102 0.52238 0.89122 0.0
C488 C 0.53851 0.48808 0.98108 0.0
C489 C 0.58787 0.48831 0.94063 0.0
C490 C 0.52966 0.48369 0.00845 0.0
C491 C 0.54868 0.46554 0.02248 0.0
C492 C 0.56742 0.475 0.96784 0.0
C493 C 0.57133 0.44791 0.0078 0.0
C494 C 0.6356 0.49406 0.9313 0.0
C495 C 0.58291 0.51526 0.9009 0.0
N496 N 0.58156 0.45419 0.9813 0.0
N497 N 0.56319 0.49914 0.92522 0.0
H498 H 0.16926 0.6218 0.22653 0.0
H499 H 0.09087 0.49411 0.36075 0.0
H500 H 0.12036 0.48899 0.22847 0.0
H501 H 0.11488 0.61723 0.35899 0.0
H502 H 0.09814 0.4908 0.31189 0.0
H503 H 0.14781 0.6209 0.27452 0.0
C504 C 0.15353 0.59231 0.23687 0.0
C505 C 0.14609 0.55522 0.22322 0.0
C506 C 0.10132 0.51838 0.3221 0.0
C507 C 0.12277 0.55439 0.27837 0.0
C508 C 0.0966 0.52002 0.35006 0.0
C509 C 0.10272 0.55619 0.36415 0.0
C510 C 0.11251 0.55326 0.3079 0.0
C511 C 0.11097 0.58914 0.34907 0.0
C512 C 0.1415 0.59187 0.26434 0.0
C513 C 0.12667 0.51837 0.238 0.0
N514 N 0.11613 0.58713 0.32186 0.0
N515 N 0.11606 0.51902 0.26461 0.0
loop_
_geom_bond_atom_site_label_1
_geom_bond_atom_site_label_2
_geom_bond_distance
_geom_bond_site_symmetry_2
_ccdc_geom_bond_type
Gd0 C3 2.818 . S
Gd0 O20 2.377 . S
Gd0 O22 2.448 . S
Gd0 O23 2.506 . S
Gd0 O24 2.435 . S
Gd0 O25 2.717 . S
Gd0 O27 2.395 . S
Gd0 O31 2.327 . S
Gd1 C12 2.818 1_455 S
Gd1 O21 2.395 . S
Gd1 O25 2.327 . S
Gd1 O26 2.377 1_455 S
Gd1 O28 2.448 1_455 S
Gd1 O29 2.506 1_455 S
Gd1 O30 2.435 . S
Gd1 O31 2.717 . S
C2 O20 1.240 . S
C2 O21 1.240 . S
C3 Gd0 2.818 . S
C3 C4 1.510 . S
C3 O22 1.249 . S
C3 O23 1.252 . S
C4 C3 1.510 . S
C4 C5 1.404 . S
C4 C6 1.352 . S
C5 C4 1.404 . S
C5 C9 1.389 . S
C5 H32 0.930 . S
C6 C4 1.352 . S
C6 C8 1.374 . S
C6 H33 0.931 . S
C7 C8 1.359 . S
C7 C9 1.364 . S
C8 C6 1.374 . S
C8 C7 1.359 . S
C8 H34 0.931 . S
C9 C5 1.389 . S
C9 C7 1.364 . S
C9 H35 0.931 . S
C10 O24 1.256 . S
C10 O25 1.257 . S
C11 O26 1.240 . S
C11 O27 1.240 1_655 S
C12 Gd1 2.818 1_655 S
C12 C13 1.510 . S
C12 O28 1.249 . S
C12 O29 1.252 . S
C13 C12 1.510 . S
C13 C14 1.404 . S
C13 C15 1.352 . S
C14 C13 1.404 . S
C14 C18 1.389 . S
C14 H36 0.930 . S
C15 C13 1.352 . S
C15 C17 1.374 . S
C15 H37 0.931 . S
C16 C17 1.359 . S
C16 C18 1.364 . S
C17 C15 1.374 . S
C17 C16 1.359 . S
C17 H38 0.931 . S
C18 C14 1.389 . S
C18 C16 1.364 . S
C18 H39 0.931 . S
C19 O30 1.256 . S
C19 O31 1.257 . S
O20 Gd0 2.377 . S
O20 C2 1.240 . S
O21 Gd1 2.395 . S
O21 C2 1.240 . S
O22 Gd0 2.448 . S
O22 C3 1.249 . S
O23 Gd0 2.506 . S
O23 C3 1.252 . S
O24 Gd0 2.435 . S
O24 C10 1.256 . S
O25 Gd0 2.717 . S
O25 Gd1 2.327 . S
O25 C10 1.257 . S
O26 Gd1 2.377 1_655 S
O26 C11 1.240 . S
O27 Gd0 2.395 . S
O27 C11 1.240 1_455 S
O28 Gd1 2.448 1_655 S
O28 C12 1.249 . S
O29 Gd1 2.506 1_655 S
O29 C12 1.252 . S
O30 Gd1 2.435 . S
O30 C19 1.256 . S
O31 Gd0 2.327 . S
O31 Gd1 2.717 . S
O31 C19 1.257 . S
H32 C5 0.930 . S
H33 C6 0.931 . S
H34 C8 0.931 . S
H35 C9 0.931 . S
H36 C14 0.930 . S
H37 C15 0.931 . S
H38 C17 0.931 . S
H39 C18 0.931 . S
Gd40 C43 2.818 1_545 S
Gd40 O60 2.377 1_545 S
Gd40 O62 2.448 1_545 S
Gd40 O63 2.506 1_545 S
Gd40 O64 2.435 . S
Gd40 O65 2.717 . S
Gd40 O67 2.395 . S
Gd40 O71 2.327 . S
Gd41 C52 2.818 . S
Gd41 O61 2.395 1_545 S
Gd41 O65 2.327 . S
Gd41 O66 2.377 . S
Gd41 O68 2.448 . S
Gd41 O69 2.506 . S
Gd41 O70 2.435 . S
Gd41 O71 2.717 . S
C42 O60 1.240 . S
C42 O61 1.240 . S
C43 Gd40 2.818 1_565 S
C43 C44 1.510 . S
C43 O62 1.249 . S
C43 O63 1.252 . S
C44 C43 1.510 . S
C44 C45 1.404 . S
C44 C46 1.352 . S
C45 C44 1.404 . S
C45 C49 1.389 . S
C45 H72 0.930 . S
C46 C44 1.352 . S
C46 C48 1.374 . S
C46 H73 0.931 . S
C47 C48 1.359 . S
C47 C49 1.364 . S
C48 C46 1.374 . S
C48 C47 1.359 . S
C48 H74 0.931 . S
C49 C45 1.389 . S
C49 C47 1.364 . S
C49 H75 0.931 . S
C50 O64 1.256 . S
C50 O65 1.257 . S
C51 O66 1.240 . S
C51 O67 1.240 . S
C52 Gd41 2.818 . S
C52 C53 1.510 . S
C52 O68 1.249 . S
C52 O69 1.252 . S
C53 C52 1.510 . S
C53 C54 1.404 . S
C53 C55 1.352 . S
C54 C53 1.404 . S
C54 C58 1.389 . S
C54 H76 0.930 . S
C55 C53 1.352 . S
C55 C57 1.374 . S
C55 H77 0.931 . S
C56 C57 1.359 . S
C56 C58 1.364 . S
C57 C55 1.374 . S
C57 C56 1.359 . S
C57 H78 0.931 . S
C58 C54 1.389 . S
C58 C56 1.364 . S
C58 H79 0.931 . S
C59 O70 1.256 . S
C59 O71 1.257 . S
O60 Gd40 2.377 1_565 S
O60 C42 1.240 . S
O61 Gd41 2.395 1_565 S
O61 C42 1.240 . S
O62 Gd40 2.448 1_565 S
O62 C43 1.249 . S
O63 Gd40 2.506 1_565 S
O63 C43 1.252 . S
O64 Gd40 2.435 . S
O64 C50 1.256 . S
O65 Gd40 2.717 . S
O65 Gd41 2.327 . S
O65 C50 1.257 . S
O66 Gd41 2.377 . S
O66 C51 1.240 . S
O67 Gd40 2.395 . S
O67 C51 1.240 . S
O68 Gd41 2.448 . S
O68 C52 1.249 . S
O69 Gd41 2.506 . S
O69 C52 1.252 . S
O70 Gd41 2.435 . S
O70 C59 1.256 . S
O71 Gd40 2.327 . S
O71 Gd41 2.717 . S
O71 C59 1.257 . S
H72 C45 0.930 . S
H73 C46 0.931 . S
H74 C48 0.931 . S
H75 C49 0.931 . S
H76 C54 0.930 . S
H77 C55 0.931 . S
H78 C57 0.931 . S
H79 C58 0.931 . S
Gd80 C83 2.818 . S
Gd80 O100 2.377 . S
Gd80 O102 2.448 . S
Gd80 O103 2.506 . S
Gd80 O104 2.435 . S
Gd80 O105 2.717 . S
Gd80 O107 2.395 . S
Gd80 O111 2.327 . S
Gd81 C92 2.818 . S
Gd81 O101 2.395 . S
Gd81 O105 2.327 . S
Gd81 O106 2.377 . S
Gd81 O108 2.448 . S
Gd81 O109 2.506 . S
Gd81 O110 2.435 . S
Gd81 O111 2.717 . S
C82 O100 1.240 . S
C82 O101 1.240 . S
C83 Gd80 2.818 . S
C83 C84 1.510 . S
C83 O102 1.249 . S
C83 O103 1.252 . S
C84 C83 1.510 . S
C84 C85 1.404 . S
C84 C86 1.352 . S
C85 C84 1.404 . S
C85 C89 1.389 . S
C85 H112 0.930 . S
C86 C84 1.352 . S
C86 C88 1.374 . S
C86 H113 0.931 . S
C87 C88 1.359 . S
C87 C89 1.364 . S
C88 C86 1.374 . S
C88 C87 1.359 . S
C88 H114 0.931 . S
C89 C85 1.389 . S
C89 C87 1.364 . S
C89 H115 0.931 . S
C90 O104 1.256 . S
C90 O105 1.257 . S
C91 O106 1.240 . S
C91 O107 1.240 . S
C92 Gd81 2.818 . S
C92 C93 1.510 . S
C92 O108 1.249 . S
C92 O109 1.252 . S
C93 C92 1.510 . S
C93 C94 1.404 . S
C93 C95 1.352 . S
C94 C93 1.404 . S
C94 C98 1.389 . S
C94 H116 0.930 . S
C95 C93 1.352 . S
C95 C97 1.374 . S
C95 H117 0.931 . S
C96 C97 1.359 . S
C96 C98 1.364 . S
C97 C95 1.374 . S
C97 C96 1.359 . S
C97 H118 0.931 . S
C98 C94 1.389 . S
C98 C96 1.364 . S
C98 H119 0.931 . S
C99 O110 1.256 . S
C99 O111 1.257 . S
O100 Gd80 2.377 . S
O100 C82 1.240 . S
O101 Gd81 2.395 . S
O101 C82 1.240 . S
O102 Gd80 2.448 . S
O102 C83 1.249 . S
O103 Gd80 2.506 . S
O103 C83 1.252 . S
O104 Gd80 2.435 . S
O104 C90 1.256 . S
O105 Gd80 2.717 . S
O105 Gd81 2.327 . S
O105 C90 1.257 . S
O106 Gd81 2.377 . S
O106 C91 1.240 . S
O107 Gd80 2.395 . S
O107 C91 1.240 . S
O108 Gd81 2.448 . S
O108 C92 1.249 . S
O109 Gd81 2.506 . S
O109 C92 1.252 . S
O110 Gd81 2.435 . S
O110 C99 1.256 . S
O111 Gd80 2.327 . S
O111 Gd81 2.717 . S
O111 C99 1.257 . S
H112 C85 0.930 . S
H113 C86 0.931 . S
H114 C88 0.931 . S
H115 C89 0.931 . S
H116 C94 0.930 . S
H117 C95 0.931 . S
H118 C97 0.931 . S
H119 C98 0.931 . S
H120 C125 0.930 . S
H121 C128 0.930 . S
H122 C130 0.930 1_565 S
H123 C124 1.016 . S
C124 H123 1.016 . S
C124 N131 1.286 . S
C125 H120 0.930 . S
C125 C126 1.397 1_545 S
C125 C127 1.361 . S
C126 C125 1.397 1_565 S
C126 C130 1.390 1_565 S
C127 C125 1.361 . S
C127 C128 1.393 . S
C127 N131 1.413 . S
C128 H121 0.930 . S
C128 C127 1.393 . S
C128 C129 1.399 . S
C129 C128 1.399 . S
C129 C130 1.381 . S
C130 H122 0.930 1_545 S
C130 C126 1.390 1_545 S
C130 C129 1.381 . S
N131 C124 1.286 . S
N131 C127 1.413 . S
H132 C137 0.930 . S
H133 C140 0.930 . S
H134 C142 0.930 . S
H135 C136 1.016 . S
C136 H135 1.016 . S
C136 N143 1.286 . S
C137 H132 0.930 . S
C137 C138 1.397 . S
C137 C139 1.361 . S
C138 C137 1.397 . S
C138 C142 1.390 . S
C139 C137 1.361 . S
C139 C140 1.393 . S
C139 N143 1.413 . S
C140 H133 0.930 . S
C140 C139 1.393 . S
C140 C141 1.399 . S
C141 C140 1.399 . S
C141 C142 1.381 . S
C142 H134 0.930 . S
C142 C138 1.390 . S
C142 C141 1.381 . S
N143 C136 1.286 . S
N143 C139 1.413 . S
H144 C149 0.930 . S
H145 C152 0.930 . S
H146 C154 0.945 . S
H147 C148 1.016 . S
C148 H147 1.016 . S
C148 N155 1.286 . S
C149 H144 0.930 . S
C149 C150 1.397 . S
C149 C151 1.361 . S
C150 C149 1.397 . S
C150 C154 1.390 . S
C151 C149 1.361 . S
C151 C152 1.393 . S
C151 N155 1.413 . S
C152 H145 0.930 . S
C152 C151 1.393 . S
C152 C153 1.399 . S
C153 C152 1.399 . S
C153 C154 1.381 . S
C154 H146 0.945 . S
C154 C150 1.390 . S
C154 C153 1.381 . S
N155 C148 1.286 . S
N155 C151 1.413 . S
H156 C161 0.930 . S
H157 C164 0.930 . S
H158 C166 0.930 . S
H159 C160 1.016 . S
C160 H159 1.016 . S
C160 N167 1.286 . S
C161 H156 0.930 . S
C161 C162 1.397 . S
C161 C163 1.361 1_455 S
C162 C161 1.397 . S
C162 C166 1.390 . S
C163 C161 1.361 1_655 S
C163 C164 1.393 . S
C163 N167 1.413 . S
C164 H157 0.930 . S
C164 C163 1.393 . S
C164 C165 1.399 1_655 S
C165 C164 1.399 1_455 S
C165 C166 1.381 . S
C166 H158 0.930 . S
C166 C162 1.390 . S
C166 C165 1.381 . S
N167 C160 1.286 . S
N167 C163 1.413 . S
H168 C173 0.930 . S
H169 C176 0.930 1_565 S
H170 C178 0.930 . S
H171 C172 1.016 . S
C172 H171 1.016 . S
C172 N179 1.286 . S
C173 H168 0.930 . S
C173 C174 1.397 . S
C173 C175 1.361 . S
C174 C173 1.397 . S
C174 C178 1.390 . S
C175 C173 1.361 . S
C175 C176 1.393 . S
C175 N179 1.413 1_545 S
C176 H169 0.930 1_545 S
C176 C175 1.393 . S
C176 C177 1.399 . S
C177 C176 1.399 . S
C177 C178 1.381 . S
C178 H170 0.930 . S
C178 C174 1.390 . S
C178 C177 1.381 . S
N179 C172 1.286 . S
N179 C175 1.413 1_565 S
H180 C185 0.930 . S
H181 C188 0.930 . S
H182 C190 0.930 . S
H183 C184 1.016 . S
C184 H183 1.016 . S
C184 N191 1.286 . S
C185 H180 0.930 . S
C185 C186 1.397 . S
C185 C187 1.361 . S
C186 C185 1.397 . S
C186 C190 1.390 . S
C187 C185 1.361 . S
C187 C188 1.393 . S
C187 N191 1.413 . S
C188 H181 0.930 . S
C188 C187 1.393 . S
C188 C189 1.399 . S
C189 C188 1.399 . S
C189 C190 1.381 . S
C190 H182 0.930 . S
C190 C186 1.390 . S
C190 C189 1.381 . S
N191 C184 1.286 . S
N191 C187 1.413 . S
H192 C198 0.930 . S
H193 C202 0.930 . S
H194 C207 0.929 . S
H195 C205 0.929 . S
H196 C200 0.929 . S
H197 C206 0.929 . S
C198 H192 0.930 . S
C198 C199 1.367 . S
C198 C206 1.378 . S
C199 C198 1.367 . S
C199 C207 1.433 . S
C200 H196 0.929 . S
C200 C202 1.378 . S
C200 C204 1.350 . S
C201 C204 1.463 . S
C201 C206 1.350 . S
C201 N209 1.427 . S
C202 H193 0.930 . S
C202 C200 1.378 . S
C202 C203 1.367 . S
C203 C202 1.367 . S
C203 C205 1.433 . S
C204 C200 1.350 . S
C204 C201 1.463 . S
C204 N208 1.427 . S
C205 H195 0.929 . S
C205 C203 1.433 . S
C205 N208 1.384 . S
C206 H197 0.929 . S
C206 C198 1.378 . S
C206 C201 1.350 . S
C207 H194 0.929 . S
C207 C199 1.433 . S
C207 N209 1.384 . S
N208 C204 1.427 . S
N208 C205 1.384 . S
N209 C201 1.427 . S
N209 C207 1.384 . S
H210 C216 0.930 . S
H211 C220 0.930 . S
H212 C225 0.929 . S
H213 C223 0.929 . S
H214 C218 0.929 . S
H215 C224 0.929 . S
C216 H210 0.930 . S
C216 C217 1.367 . S
C216 C224 1.378 . S
C217 C216 1.367 . S
C217 C225 1.433 . S
C218 H214 0.929 . S
C218 C220 1.378 . S
C218 C222 1.350 . S
C219 C222 1.463 . S
C219 C224 1.350 . S
C219 N227 1.427 . S
C220 H211 0.930 . S
C220 C218 1.378 . S
C220 C221 1.367 . S
C221 C220 1.367 . S
C221 C223 1.433 . S
C222 C218 1.350 . S
C222 C219 1.463 . S
C222 N226 1.427 . S
C223 H213 0.929 . S
C223 C221 1.433 . S
C223 N226 1.384 . S
C224 H215 0.929 . S
C224 C216 1.378 . S
C224 C219 1.350 . S
C225 H212 0.929 . S
C225 C217 1.433 . S
C225 N227 1.384 . S
N226 C222 1.427 . S
N226 C223 1.384 . S
N227 C219 1.427 . S
N227 C225 1.384 . S
H228 C234 0.930 . S
H229 C238 0.930 . S
H230 C243 0.929 . S
H231 C241 0.929 . S
H232 C236 0.929 . S
H233 C242 0.929 . S
C234 H228 0.930 . S
C234 C235 1.367 . S
C234 C242 1.378 . S
C235 C234 1.367 . S
C235 C243 1.433 . S
C236 H232 0.929 . S
C236 C238 1.378 . S
C236 C240 1.350 . S
C237 C240 1.463 . S
C237 C242 1.350 . S
C237 N245 1.427 . S
C238 H229 0.930 . S
C238 C236 1.378 . S
C238 C239 1.367 . S
C239 C238 1.367 . S
C239 C241 1.433 . S
C240 C236 1.350 . S
C240 C237 1.463 . S
C240 N244 1.427 . S
C241 H231 0.929 . S
C241 C239 1.433 . S
C241 N244 1.384 . S
C242 H233 0.929 . S
C242 C234 1.378 . S
C242 C237 1.350 . S
C243 H230 0.929 . S
C243 C235 1.433 . S
C243 N245 1.384 . S
N244 C240 1.427 . S
N244 C241 1.384 . S
N245 C237 1.427 . S
N245 C243 1.384 . S
H246 C252 0.930 . S
H247 C256 0.930 . S
H248 C261 0.929 . S
H249 C259 0.929 . S
H250 C254 0.929 . S
H251 C260 0.929 . S
C252 H246 0.930 . S
C252 C253 1.367 . S
C252 C260 1.378 . S
C253 C252 1.367 . S
C253 C261 1.433 . S
C254 H250 0.929 . S
C254 C256 1.378 . S
C254 C258 1.350 . S
C255 C258 1.463 . S
C255 C260 1.350 . S
C255 N263 1.427 . S
C256 H247 0.930 . S
C256 C254 1.378 . S
C256 C257 1.367 . S
C257 C256 1.367 . S
C257 C259 1.433 . S
C258 C254 1.350 . S
C258 C255 1.463 . S
C258 N262 1.427 . S
C259 H249 0.929 . S
C259 C257 1.433 . S
C259 N262 1.384 . S
C260 H251 0.929 . S
C260 C252 1.378 . S
C260 C255 1.350 . S
C261 H248 0.929 . S
C261 C253 1.433 . S
C261 N263 1.384 . S
N262 C258 1.427 . S
N262 C259 1.384 . S
N263 C255 1.427 . S
N263 C261 1.384 . S
H264 C270 0.930 . S
H265 C274 0.930 . S
H266 C279 0.929 . S
H267 C277 0.929 . S
H268 C272 0.929 . S
H269 C278 0.929 . S
C270 H264 0.930 . S
C270 C271 1.367 . S
C270 C278 1.378 . S
C271 C270 1.367 . S
C271 C279 1.433 . S
C272 H268 0.929 . S
C272 C274 1.378 . S
C272 C276 1.350 . S
C273 C276 1.463 . S
C273 C278 1.350 . S
C273 N281 1.427 . S
C274 H265 0.930 . S
C274 C272 1.378 . S
C274 C275 1.367 . S
C275 C274 1.367 . S
C275 C277 1.433 . S
C276 C272 1.350 . S
C276 C273 1.463 . S
C276 N280 1.427 . S
C277 H267 0.929 . S
C277 C275 1.433 . S
C277 N280 1.384 . S
C278 H269 0.929 . S
C278 C270 1.378 . S
C278 C273 1.350 . S
C279 H266 0.929 . S
C279 C271 1.433 . S
C279 N281 1.384 . S
N280 C276 1.427 . S
N280 C277 1.384 . S
N281 C273 1.427 . S
N281 C279 1.384 . S
H282 C288 0.930 . S
H283 C292 0.930 . S
H284 C297 0.929 . S
H285 C295 0.929 . S
H286 C290 0.929 . S
H287 C296 0.929 . S
C288 H282 0.930 . S
C288 C289 1.367 . S
C288 C296 1.378 . S
C289 C288 1.367 . S
C289 C297 1.433 . S
C290 H286 0.929 . S
C290 C292 1.378 . S
C290 C294 1.350 . S
C291 C294 1.463 . S
C291 C296 1.350 . S
C291 N299 1.427 . S
C292 H283 0.930 . S
C292 C290 1.378 . S
C292 C293 1.367 . S
C293 C292 1.367 . S
C293 C295 1.433 . S
C294 C290 1.350 . S
C294 C291 1.463 . S
C294 N298 1.427 . S
C295 H285 0.929 . S
C295 C293 1.433 . S
C295 N298 1.384 . S
C296 H287 0.929 . S
C296 C288 1.378 . S
C296 C291 1.350 . S
C297 H284 0.929 . S
C297 C289 1.433 . S
C297 N299 1.384 . S
N298 C294 1.427 . S
N298 C295 1.384 . S
N299 C291 1.427 . S
N299 C297 1.384 . S
H300 C306 0.930 . S
H301 C310 0.930 . S
H302 C315 0.929 . S
H303 C313 0.929 . S
H304 C308 0.929 . S
H305 C314 0.929 . S
C306 H300 0.930 . S
C306 C307 1.367 . S
C306 C314 1.378 . S
C307 C306 1.367 . S
C307 C315 1.433 . S
C308 H304 0.929 . S
C308 C310 1.378 . S
C308 C312 1.350 . S
C309 C312 1.463 . S
C309 C314 1.350 . S
C309 N317 1.427 . S
C310 H301 0.930 . S
C310 C308 1.378 . S
C310 C311 1.367 . S
C311 C310 1.367 . S
C311 C313 1.433 . S
C312 C308 1.350 . S
C312 C309 1.463 . S
C312 N316 1.427 . S
C313 H303 0.929 . S
C313 C311 1.433 . S
C313 N316 1.384 . S
C314 H305 0.929 . S
C314 C306 1.378 . S
C314 C309 1.350 . S
C315 H302 0.929 . S
C315 C307 1.433 . S
C315 N317 1.384 . S
N316 C312 1.427 . S
N316 C313 1.384 . S
N317 C309 1.427 . S
N317 C315 1.384 . S
H318 C324 0.930 . S
H319 C328 0.930 . S
H320 C333 0.929 . S
H321 C331 0.929 . S
H322 C326 0.929 . S
H323 C332 0.929 . S
C324 H318 0.930 . S
C324 C325 1.367 . S
C324 C332 1.378 . S
C325 C324 1.367 . S
C325 C333 1.433 . S
C326 H322 0.929 . S
C326 C328 1.378 . S
C326 C330 1.350 . S
C327 C330 1.463 . S
C327 C332 1.350 . S
C327 N335 1.427 . S
C328 H319 0.930 . S
C328 C326 1.378 . S
C328 C329 1.367 . S
C329 C328 1.367 . S
C329 C331 1.433 . S
C330 C326 1.350 . S
C330 C327 1.463 . S
C330 N334 1.427 . S
C331 H321 0.929 . S
C331 C329 1.433 . S
C331 N334 1.384 . S
C332 H323 0.929 . S
C332 C324 1.378 . S
C332 C327 1.350 . S
C333 H320 0.929 . S
C333 C325 1.433 . S
C333 N335 1.384 . S
N334 C330 1.427 . S
N334 C331 1.384 . S
N335 C327 1.427 . S
N335 C333 1.384 . S
H336 C342 0.930 . S
H337 C346 0.930 . S
H338 C351 0.929 . S
H339 C349 0.929 . S
H340 C344 0.929 . S
H341 C350 0.929 . S
C342 H336 0.930 . S
C342 C343 1.367 . S
C342 C350 1.378 . S
C343 C342 1.367 . S
C343 C351 1.433 . S
C344 H340 0.929 . S
C344 C346 1.378 . S
C344 C348 1.350 . S
C345 C348 1.463 . S
C345 C350 1.350 . S
C345 N353 1.427 . S
C346 H337 0.930 . S
C346 C344 1.378 . S
C346 C347 1.367 . S
C347 C346 1.367 . S
C347 C349 1.433 . S
C348 C344 1.350 . S
C348 C345 1.463 . S
C348 N352 1.427 . S
C349 H339 0.929 . S
C349 C347 1.433 . S
C349 N352 1.384 . S
C350 H341 0.929 . S
C350 C342 1.378 . S
C350 C345 1.350 . S
C351 H338 0.929 . S
C351 C343 1.433 . S
C351 N353 1.384 . S
N352 C348 1.427 . S
N352 C349 1.384 . S
N353 C345 1.427 . S
N353 C351 1.384 . S
H354 C360 0.930 . S
H355 C364 0.930 . S
H356 C369 0.929 . S
H357 C367 0.929 . S
H358 C362 0.929 . S
H359 C368 0.929 . S
C360 H354 0.930 . S
C360 C361 1.367 . S
C360 C368 1.378 . S
C361 C360 1.367 . S
C361 C369 1.433 . S
C362 H358 0.929 . S
C362 C364 1.378 . S
C362 C366 1.350 . S
C363 C366 1.463 . S
C363 C368 1.350 . S
C363 N371 1.427 . S
C364 H355 0.930 . S
C364 C362 1.378 . S
C364 C365 1.367 . S
C365 C364 1.367 . S
C365 C367 1.433 . S
C366 C362 1.350 . S
C366 C363 1.463 . S
C366 N370 1.427 . S
C367 H357 0.929 . S
C367 C365 1.433 . S
C367 N370 1.384 . S
C368 H359 0.929 . S
C368 C360 1.378 . S
C368 C363 1.350 . S
C369 H356 0.929 . S
C369 C361 1.433 . S
C369 N371 1.384 . S
N370 C366 1.427 . S
N370 C367 1.384 . S
N371 C363 1.427 . S
N371 C369 1.384 . S
H372 C378 0.930 . S
H373 C382 0.930 . S
H374 C387 0.929 . S
H375 C385 0.929 . S
H376 C380 0.929 . S
H377 C386 0.929 . S
C378 H372 0.930 . S
C378 C379 1.367 . S
C378 C386 1.378 . S
C379 C378 1.367 . S
C379 C387 1.433 . S
C380 H376 0.929 . S
C380 C382 1.378 . S
C380 C384 1.350 . S
C381 C384 1.463 . S
C381 C386 1.350 . S
C381 N389 1.427 . S
C382 H373 0.930 . S
C382 C380 1.378 . S
C382 C383 1.367 . S
C383 C382 1.367 . S
C383 C385 1.433 . S
C384 C380 1.350 . S
C384 C381 1.463 . S
C384 N388 1.427 . S
C385 H375 0.929 . S
C385 C383 1.433 . S
C385 N388 1.384 . S
C386 H377 0.929 . S
C386 C378 1.378 . S
C386 C381 1.350 . S
C387 H374 0.929 . S
C387 C379 1.433 . S
C387 N389 1.384 . S
N388 C384 1.427 . S
N388 C385 1.384 . S
N389 C381 1.427 . S
N389 C387 1.384 . S
H390 C396 0.930 . S
H391 C400 0.930 . S
H392 C405 0.929 . S
H393 C403 0.929 . S
H394 C398 0.929 . S
H395 C404 0.929 . S
C396 H390 0.930 . S
C396 C397 1.367 . S
C396 C404 1.378 . S
C397 C396 1.367 . S
C397 C405 1.433 . S
C398 H394 0.929 . S
C398 C400 1.378 . S
C398 C402 1.350 . S
C399 C402 1.463 . S
C399 C404 1.350 . S
C399 N407 1.427 . S
C400 H391 0.930 . S
C400 C398 1.378 . S
C400 C401 1.367 . S
C401 C400 1.367 . S
C401 C403 1.433 . S
C402 C398 1.350 . S
C402 C399 1.463 . S
C402 N406 1.427 . S
C403 H393 0.929 . S
C403 C401 1.433 . S
C403 N406 1.384 . S
C404 H395 0.929 . S
C404 C396 1.378 . S
C404 C399 1.350 . S
C405 H392 0.929 . S
C405 C397 1.433 . S
C405 N407 1.384 . S
N406 C402 1.427 . S
N406 C403 1.384 . S
N407 C399 1.427 . S
N407 C405 1.384 . S
H408 C414 0.938 . S
H409 C418 0.930 . S
H410 C423 0.929 . S
H411 C421 0.929 1_655 S
H412 C416 0.929 . S
H413 C422 0.929 1_655 S
C414 H408 0.938 . S
C414 C415 1.367 . S
C414 C422 1.378 . S
C415 C414 1.367 . S
C415 C423 1.433 . S
C416 H412 0.929 . S
C416 C418 1.378 . S
C416 C420 1.350 . S
C417 C420 1.463 1_554 S
C417 C422 1.350 . S
C417 N425 1.427 . S
C418 H409 0.930 . S
C418 C416 1.378 . S
C418 C419 1.367 . S
C419 C418 1.367 . S
C419 C421 1.433 . S
C420 C416 1.350 . S
C420 C417 1.463 1_556 S
C420 N424 1.427 . S
C421 H411 0.929 1_455 S
C421 C419 1.433 . S
C421 N424 1.384 . S
C422 H413 0.929 1_455 S
C422 C414 1.378 . S
C422 C417 1.350 . S
C423 H410 0.929 . S
C423 C415 1.433 . S
C423 N425 1.384 . S
N424 C420 1.427 . S
N424 C421 1.384 . S
N425 C417 1.427 . S
N425 C423 1.384 . S
H426 C432 0.930 . S
H427 C436 0.930 . S
H428 C441 0.929 . S
H429 C439 0.929 1_565 S
H430 C434 0.929 . S
H431 C440 0.929 . S
C432 H426 0.930 . S
C432 C433 1.367 1_565 S
C432 C440 1.378 . S
C433 C432 1.367 1_545 S
C433 C441 1.433 . S
C434 H430 0.929 . S
C434 C436 1.378 . S
C434 C438 1.350 . S
C435 C438 1.463 . S
C435 C440 1.350 1_545 S
C435 N443 1.427 . S
C436 H427 0.930 . S
C436 C434 1.378 . S
C436 C437 1.367 . S
C437 C436 1.367 . S
C437 C439 1.433 . S
C438 C434 1.350 . S
C438 C435 1.463 . S
C438 N442 1.427 . S
C439 H429 0.929 1_545 S
C439 C437 1.433 . S
C439 N442 1.384 . S
C440 H431 0.929 . S
C440 C432 1.378 . S
C440 C435 1.350 1_565 S
C441 H428 0.929 . S
C441 C433 1.433 . S
C441 N443 1.384 . S
N442 C438 1.427 . S
N442 C439 1.384 . S
N443 C435 1.427 . S
N443 C441 1.384 . S
H444 C450 0.930 . S
H445 C454 0.930 . S
H446 C459 0.929 . S
H447 C457 0.929 . S
H448 C452 0.929 . S
H449 C458 0.929 . S
C450 H444 0.930 . S
C450 C451 1.367 . S
C450 C458 1.378 . S
C451 C450 1.367 . S
C451 C459 1.433 . S
C452 H448 0.929 . S
C452 C454 1.378 . S
C452 C456 1.350 . S
C453 C456 1.463 . S
C453 C458 1.350 . S
C453 N461 1.427 . S
C454 H445 0.930 . S
C454 C452 1.378 . S
C454 C455 1.367 . S
C455 C454 1.367 . S
C455 C457 1.433 . S
C456 C452 1.350 . S
C456 C453 1.463 . S
C456 N460 1.427 . S
C457 H447 0.929 . S
C457 C455 1.433 . S
C457 N460 1.384 . S
C458 H449 0.929 . S
C458 C450 1.378 . S
C458 C453 1.350 . S
C459 H446 0.929 . S
C459 C451 1.433 . S
C459 N461 1.384 . S
N460 C456 1.427 . S
N460 C457 1.384 . S
N461 C453 1.427 . S
N461 C459 1.384 . S
H462 C468 0.930 . S
H463 C472 0.935 . S
H464 C477 0.929 1_565 S
H465 C475 0.929 . S
H466 C470 0.929 1_565 S
H467 C476 0.929 . S
C468 H462 0.930 . S
C468 C469 1.367 . S
C468 C476 1.378 . S
C469 C468 1.367 . S
C469 C477 1.433 . S
C470 H466 0.929 1_545 S
C470 C472 1.377 1_545 S
C470 C474 1.350 . S
C471 C474 1.463 . S
C471 C476 1.350 . S
C471 N479 1.427 . S
C472 H463 0.935 . S
C472 C470 1.377 1_565 S
C472 C473 1.364 1_565 S
C473 C472 1.364 1_545 S
C473 C475 1.433 . S
C474 C470 1.350 . S
C474 C471 1.463 . S
C474 N478 1.427 . S
C475 H465 0.929 . S
C475 C473 1.433 . S
C475 N478 1.384 . S
C476 H467 0.929 . S
C476 C468 1.378 . S
C476 C471 1.350 . S
C477 H464 0.929 1_545 S
C477 C469 1.433 . S
C477 N479 1.384 . S
N478 C474 1.427 . S
N478 C475 1.384 . S
N479 C471 1.427 . S
N479 C477 1.384 . S
H480 C486 0.930 . S
H481 C490 0.930 . S
H482 C495 0.929 . S
H483 C493 0.929 . S
H484 C488 0.929 1_556 S
H485 C494 0.929 . S
C486 H480 0.930 . S
C486 C487 1.367 . S
C486 C494 1.378 . S
C487 C486 1.367 . S
C487 C495 1.433 . S
C488 H484 0.929 1_554 S
C488 C490 1.378 . S
C488 C492 1.350 1_554 S
C489 C492 1.463 . S
C489 C494 1.350 . S
C489 N497 1.427 . S
C490 H481 0.930 . S
C490 C488 1.378 . S
C490 C491 1.367 . S
C491 C490 1.367 . S
C491 C493 1.433 . S
C492 C488 1.350 1_556 S
C492 C489 1.463 . S
C492 N496 1.427 1_556 S
C493 H483 0.929 . S
C493 C491 1.433 . S
C493 N496 1.384 . S
C494 H485 0.929 . S
C494 C486 1.378 . S
C494 C489 1.350 . S
C495 H482 0.929 . S
C495 C487 1.433 . S
C495 N497 1.384 . S
N496 C492 1.427 1_554 S
N496 C493 1.384 . S
N497 C489 1.427 . S
N497 C495 1.384 . S
H498 C504 0.930 . S
H499 C508 0.930 . S
H500 C513 0.929 . S
H501 C511 0.929 . S
H502 C506 0.929 . S
H503 C512 0.929 . S
C504 H498 0.930 . S
C504 C505 1.367 . S
C504 C512 1.378 . S
C505 C504 1.367 . S
C505 C513 1.433 . S
C506 H502 0.929 . S
C506 C508 1.378 . S
C506 C510 1.350 . S
C507 C510 1.463 . S
C507 C512 1.350 . S
C507 N515 1.427 . S
C508 H499 0.930 . S
C508 C506 1.378 . S
C508 C509 1.367 . S
C509 C508 1.367 . S
C509 C511 1.433 . S
C510 C506 1.350 . S
C510 C507 1.463 . S
C510 N514 1.427 . S
C511 H501 0.929 . S
C511 C509 1.433 . S
C511 N514 1.384 . S
C512 H503 0.929 . S
C512 C504 1.378 . S
C512 C507 1.350 . S
C513 H500 0.929 . S
C513 C505 1.433 . S
C513 N515 1.384 . S
N514 C510 1.427 . S
N514 C511 1.384 . S
N515 C507 1.427 . S
N515 C513 1.384 . S
C199 C7 0.870 . S
C203 C186 0.882 . S
C217 C51 1.939 . S
C221 C160 1.871 . S
C235 C87 1.274 . S
C239 C172 1.271 . S
C253 C16 0.286 . S
C257 C184 0.260 . S
C275 C162 1.844 . S
C271 C42 1.888 . S
C293 C174 1.167 . S
C289 C96 1.164 . S
C307 C47 1.289 . S
C311 C136 1.289 . S
C325 C91 3.354 . S
C329 C150 3.324 1_655 S
C343 C2 1.911 . S
C347 C126 1.888 . S
C365 C138 1.168 . S
C361 C56 1.173 . S
C383 C148 2.680 . S
C379 C82 2.777 . S
C397 C11 1.949 . S
C401 C124 1.888 . S
C419 C153 1.772 . S
C415 C19 1.689 . S
C433 C50 1.415 . S
C437 C129 1.477 . S
C451 C99 1.507 . S
C455 C141 1.520 . S
C473 C177 1.528 . S
C469 C59 1.510 . S
C491 C189 1.254 . S
C487 C90 1.233 . S
C505 C10 1.415 . S
C509 C165 1.441 . S
