# Generated by pormake.
# Topology pth, (4,4)-cn, num edge types: 1
# Building blocks:
#     Node 0, Type 0, BuildingBlock: TATPOV_clean_sbu_0, # of connection points: 4
#     Node 1, Type 0, BuildingBlock: TATPOV_clean_sbu_0, # of connection points: 4
#     Node 2, Type 0, BuildingBlock: TATPOV_clean_sbu_0, # of connection points: 4
#     Node 3, Type 1, BuildingBlock: NAWXER_clean_linker_0, # of connection points: 4
#     Node 4, Type 1, BuildingBlock: NAWXER_clean_linker_0, # of connection points: 4
#     Node 5, Type 1, BuildingBlock: NAWXER_clean_linker_0, # of connection points: 4
#     Edge 6, Type (0, 1), BuildingBlock: CIFDUS_clean_linker_0, # of connection points: 2
#     Edge 7, Type (0, 1), BuildingBlock: CIFDUS_clean_linker_0, # of connection points: 2
#     Edge 8, Type (0, 1), BuildingBlock: CIFDUS_clean_linker_0, # of connection points: 2
#     Edge 9, Type (0, 1), BuildingBlock: CIFDUS_clean_linker_0, # of connection points: 2
#     Edge 10, Type (0, 1), BuildingBlock: CIFDUS_clean_linker_0, # of connection points: 2
#     Edge 11, Type (0, 1), BuildingBlock: CIFDUS_clean_linker_0, # of connection points: 2
#     Edge 12, Type (0, 1), BuildingBlock: CIFDUS_clean_linker_0, # of connection points: 2
#     Edge 13, Type (0, 1), BuildingBlock: CIFDUS_clean_linker_0, # of connection points: 2
#     Edge 14, Type (0, 1), BuildingBlock: CIFDUS_clean_linker_0, # of connection points: 2
#     Edge 15, Type (0, 1), BuildingBlock: CIFDUS_clean_linker_0, # of connection points: 2
#     Edge 16, Type (0, 1), BuildingBlock: CIFDUS_clean_linker_0, # of connection points: 2
#     Edge 17, Type (0, 1), BuildingBlock: CIFDUS_clean_linker_0, # of connection points: 2
# Relax obj value: 0.037
# Max RMSD: 0.161
# Mean RMSD: 0.080
data_MOF--net-pth--node1-TATPOV_clean_sbu_0--node2-NAWXER_clean_linker_0--edge1-CIFDUS_clean_linker_0
_symmetry_space_group_name_H-M    P1
_symmetry_Int_Tables_number       1
_symmetry_cell_setting            triclinic
loop_
_symmetry_equiv_pos_as_xyz
'x, y, z'
_cell_length_a     26.200858
_cell_length_b     25.980735
_cell_length_c     57.355241
_cell_angle_alpha  92.647746
_cell_angle_beta   92.240388
_cell_angle_gamma 120.83899
loop_
_atom_site_label
_atom_site_type_symbol
_atom_site_fract_x
_atom_site_fract_y
_atom_site_fract_z
_atom_type_partial_charge
Zn0 Zn 0.14815 0.01204 0.0367 0.0
Zn1 Zn 0.09454 0.06472 0.05582 0.0
O2 O 0.10004 0.01252 0.08092 0.0
O3 O 0.15439 0.97786 0.06665 0.0
O4 O 0.06635 0.11336 0.07344 0.0
O5 O 0.2156 0.08882 0.02682 0.0
O6 O 0.16921 0.13171 0.04166 0.0
C7 C 0.1255 0.9821 0.08303 0.0
C8 C 0.02932 0.97454 0.01503 0.0
O9 O 0.02977 0.01236 0.03012 0.0
O10 O 0.07308 0.96637 0.0148 0.0
C11 C 0.01392 0.09352 0.07977 0.0
O12 O 0.97292 0.03687 0.07439 0.0
C13 C 0.21209 0.13519 0.03065 0.0
Zn14 Zn 0.15177 0.10752 0.34638 0.0
Zn15 Zn 0.07681 0.08511 0.38026 0.0
O16 O 0.15522 0.10438 0.39822 0.0
O17 O 0.21748 0.12466 0.37062 0.0
O18 O 0.02014 0.0759 0.40492 0.0
O19 O 0.13954 0.17169 0.33441 0.0
O20 O 0.07554 0.1505 0.36139 0.0
C21 C 0.20677 0.11868 0.39198 0.0
C22 C 0.0491 0.9862 0.34279 0.0
O23 O 0.03598 0.00236 0.36184 0.0
O24 O 0.09508 0.02277 0.33292 0.0
C25 C 0.03382 0.09058 0.42672 0.0
O26 O 0.08889 0.1114 0.43505 0.0
C27 C 0.10128 0.17975 0.34399 0.0
Zn28 Zn 0.09409 0.928 0.72533 0.0
Zn29 Zn 0.05177 0.99386 0.70736 0.0
O30 O 0.09652 0.97834 0.68167 0.0
O31 O 0.12421 0.91751 0.69476 0.0
O32 O 0.0104 0.03029 0.6902 0.0
O33 O 0.01304 0.86626 0.73493 0.0
O34 O 0.98079 0.92313 0.72144 0.0
C35 C 0.12203 0.94817 0.67867 0.0
C36 C 0.14633 0.05198 0.74697 0.0
O37 O 0.11018 0.05633 0.73284 0.0
O38 O 0.14758 0.00374 0.74674 0.0
C39 C 0.02821 0.05701 0.67156 0.0
O40 O 0.07901 0.06702 0.66407 0.0
C41 C 0.97129 0.87675 0.7316 0.0
C42 C 0.95133 0.32405 0.24206 0.0
C43 C 0.99028 0.34837 0.26238 0.0
C44 C 0.93645 0.35995 0.22947 0.0
C45 C 0.96191 0.42121 0.23661 0.0
C46 C 0.01253 0.40848 0.27031 0.0
C47 C -0.00142 0.44454 0.25752 0.0
C48 C 0.95269 0.46255 0.22252 0.0
C49 C 0.03447 0.38418 0.17552 0.0
C50 C 0.99537 0.34827 0.15623 0.0
C51 C 0.02279 0.4225 0.18912 0.0
C52 C 0.97149 0.4252 0.18384 0.0
C53 C 0.94451 0.35184 0.1508 0.0
C54 C 0.93295 0.39032 0.16439 0.0
C55 C 0.9587 0.46555 0.19811 0.0
C56 C 0.02616 0.71594 0.1855 0.0
C57 C 0.99293 0.71226 0.16503 0.0
C58 C 0.01192 0.66427 0.19681 0.0
C59 C 0.96427 0.6079 0.18783 0.0
C60 C 0.94499 0.65585 0.15612 0.0
C61 C 0.93121 0.60393 0.1673 0.0
C62 C 0.9512 0.55329 0.19949 0.0
C63 C 0.89719 0.66064 0.24251 0.0
C64 C 0.93172 0.68562 0.26382 0.0
C65 C 0.89763 0.61364 0.22987 0.0
C66 C 0.93379 0.59191 0.23808 0.0
C67 C 0.96399 0.66054 0.27291 0.0
C68 C 0.96498 0.61406 0.26014 0.0
C69 C 0.94148 0.5481 0.22354 0.0
H70 H 0.93293 0.27747 0.23582 0.0
H71 H 0.90615 0.34012 0.21395 0.0
H72 H 0.04282 0.42833 0.28586 0.0
H73 H 0.01836 0.49148 0.26356 0.0
H74 H 0.07385 0.38223 0.18024 0.0
H75 H 0.05372 0.44991 0.20382 0.0
H76 H 0.91406 0.3255 0.13584 0.0
H77 H 0.89356 0.39243 0.15986 0.0
H78 H 0.06328 0.75882 0.19273 0.0
H79 H 0.03868 0.66818 0.21243 0.0
H80 H 0.91918 0.65175 0.14018 0.0
H81 H 0.8947 0.56077 0.15999 0.0
H82 H 0.87132 0.67872 0.23529 0.0
H83 H 0.87123 0.59566 0.21334 0.0
H84 H 0.99137 0.67925 0.28921 0.0
H85 H 0.99265 0.59759 0.267 0.0
N86 N 0.94372 0.50364 0.23416 0.0
N87 N 0.95808 0.51107 0.18756 0.0
C88 C 0.77561 0.11281 0.51106 0.0
C89 C 0.76015 0.07128 0.49157 0.0
C90 C 0.73155 0.11033 0.52487 0.0
C91 C 0.67143 0.06583 0.51956 0.0
C92 C 0.69983 0.02711 0.48632 0.0
C93 C 0.65603 0.02469 0.50008 0.0
C94 C 0.62346 0.06199 0.53351 0.0
C95 C 0.74281 0.02944 0.58204 0.0
C96 C 0.76198 0.0656 0.60323 0.0
C97 C 0.69751 0.02645 0.56723 0.0
C98 C 0.67194 0.0611 0.573 0.0
C99 C 0.73556 0.09919 0.60922 0.0
C100 C 0.69109 0.09703 0.59424 0.0
C101 C 0.62282 0.05792 0.55804 0.0
C102 C 0.36664 0.95572 0.57311 0.0
C103 C 0.3685 0.98898 0.59343 0.0
C104 C 0.41769 0.97499 0.56087 0.0
C105 C 0.4715 0.02718 0.56903 0.0
C106 C 0.42209 0.04151 0.60144 0.0
C107 C 0.47351 0.06001 0.5895 0.0
C108 C 0.52602 0.04577 0.55668 0.0
C109 C 0.41745 0.10023 0.51409 0.0
C110 C 0.4012 0.07558 0.49083 0.0
C111 C 0.45845 0.09312 0.52774 0.0
C112 C 0.48272 0.0597 0.51863 0.0
C113 C 0.42592 0.04282 0.48159 0.0
C114 C 0.46625 0.03494 0.49536 0.0
C115 C 0.52861 0.05446 0.53257 0.0
H116 H 0.82157 0.1479 0.51537 0.0
H117 H 0.74434 0.14336 0.53954 0.0
H118 H 0.68641 0.99394 0.47166 0.0
H119 H 0.60991 0.99006 0.49562 0.0
H120 H 0.76173 0.00221 0.57726 0.0
H121 H 0.68194 -0.00367 0.55149 0.0
H122 H 0.74956 0.12739 0.62547 0.0
H123 H 0.67158 0.12358 0.59924 0.0
H124 H 0.32575 0.91491 0.56677 0.0
H125 H 0.41551 0.94857 0.54527 0.0
H126 H 0.42441 0.0674 0.61723 0.0
H127 H 0.51472 0.10011 0.59612 0.0
H128 H 0.39988 0.1266 0.52149 0.0
H129 H 0.47227 0.11527 0.54521 0.0
H130 H 0.41393 0.02318 0.46371 0.0
H131 H 0.48475 0.00961 0.48779 0.0
N132 N 0.57663 0.0608 0.52183 0.0
N133 N 0.57367 0.04926 0.56859 0.0
C134 C 0.37974 0.33988 0.85069 0.0
C135 C 0.34745 0.34806 0.83253 0.0
C136 C 0.42707 0.38925 0.86369 0.0
C137 C 0.44189 0.44796 0.85944 0.0
C138 C 0.36184 0.40688 0.82853 0.0
C139 C 0.4086 0.45624 0.84183 0.0
C140 C 0.49638 0.50085 0.87091 0.0
C141 C 0.38737 0.39865 0.9305 0.0
C142 C 0.41785 0.37865 0.94467 0.0
C143 C 0.4176 0.44119 0.91431 0.0
C144 C 0.47864 0.46413 0.91214 0.0
C145 C 0.47914 0.40305 0.94283 0.0
C146 C 0.50917 0.44542 0.92683 0.0
C147 C 0.51273 0.50842 0.89519 0.0
C148 C 0.73796 0.75097 0.90828 0.0
C149 C 0.77074 0.73582 0.92349 0.0
C150 C 0.68446 0.70576 0.89658 0.0
C151 C 0.66287 0.64518 0.90035 0.0
C152 C 0.74927 0.67519 0.92697 0.0
C153 C 0.69551 0.63034 0.9157 0.0
C154 C 0.60522 0.59665 0.88929 0.0
C155 C 0.73128 0.65065 0.83287 0.0
C156 C 0.71636 0.67095 0.8129 0.0
C157 C 0.69086 0.62479 0.8499 0.0
C158 C 0.63496 0.61997 0.84778 0.0
C159 C 0.66024 0.66592 0.81067 0.0
C160 C 0.61976 0.64028 0.8279 0.0
C161 C 0.59049 0.58767 0.86495 0.0
H162 H 0.36951 0.29528 0.85451 0.0
H163 H 0.45334 0.3813 0.87644 0.0
H164 H 0.33872 0.41508 0.81447 0.0
H165 H 0.41992 0.50114 0.83791 0.0
H166 H 0.34002 0.3804 0.93157 0.0
H167 H 0.39341 0.45586 0.90346 0.0
H168 H 0.50394 0.38916 0.95374 0.0
H169 H 0.55638 0.46286 0.92563 0.0
H170 H 0.75382 0.79758 0.90543 0.0
H171 H 0.65946 0.71805 0.88498 0.0
H172 H 0.77354 0.66258 0.93882 0.0
H173 H 0.67947 0.58385 0.91888 0.0
H174 H 0.7743 0.65443 0.83536 0.0
H175 H 0.70297 0.60709 0.86443 0.0
H176 H 0.6471 0.68051 0.79537 0.0
H177 H 0.57636 0.63576 0.82561 0.0
N178 N 0.53611 0.54081 0.85676 0.0
N179 N 0.5662 0.55636 0.90333 0.0
H180 H 0.09075 0.20949 0.09616 0.0
H181 H 0.9059 0.06834 0.0946 0.0
H182 H 0.88373 0.13479 0.11787 0.0
H183 H 0.91723 0.23268 0.13917 0.0
H184 H 0.10221 0.37319 0.14061 0.0
H185 H 0.12396 0.30699 0.11707 0.0
C186 C 0.04552 0.19317 0.10084 0.0
C187 C 7e-05 0.13394 0.0936 0.0
C188 C 0.03315 0.23144 0.11431 0.0
C189 C 0.94179 0.11366 0.09992 0.0
C190 C 0.92905 0.15165 0.11324 0.0
C191 C 0.96219 0.24894 0.13415 0.0
C192 C 0.00803 0.30779 0.14169 0.0
C193 C 0.97441 0.2106 0.12057 0.0
C194 C 0.06624 0.32789 0.13531 0.0
C195 C 0.07867 0.29017 0.12174 0.0
H196 H 0.92334 0.06907 0.41386 0.0
H197 H 0.04307 0.1062 0.47458 0.0
H198 H 0.96941 0.10415 0.50003 0.0
H199 H 0.87062 0.09155 0.50501 0.0
H200 H 0.75305 0.05756 0.44389 0.0
H201 H 0.82615 0.05832 0.41871 0.0
C202 C 0.93335 0.07646 0.43267 0.0
C203 C 0.98863 0.08758 0.44227 0.0
C204 C 0.89113 0.07582 0.44717 0.0
C205 C 0.00087 0.09751 0.46669 0.0
C206 C 0.95879 0.0964 0.48127 0.0
C207 C 0.86127 0.08491 0.48617 0.0
C208 C 0.80619 0.07413 0.47641 0.0
C209 C 0.90381 0.0858 0.4717 0.0
C210 C 0.79459 0.06494 0.45194 0.0
C211 C 0.83651 0.06565 0.43749 0.0
H212 H 0.92993 0.76677 0.74789 0.0
H213 H 0.88404 0.90261 0.73907 0.0
H214 H 0.79788 0.84837 0.76209 0.0
H215 H 0.74226 0.76819 0.78831 0.0
H216 H 0.7876 0.63157 0.7962 0.0
H217 H 0.86748 0.68064 0.77012 0.0
C218 C 0.90065 0.78414 0.75073 0.0
C219 C 0.91389 0.83903 0.74202 0.0
C220 C 0.85155 0.75307 0.76413 0.0
C221 C 0.87502 0.8605 0.74561 0.0
C222 C 0.82589 0.82969 0.75891 0.0
C223 C 0.76881 0.74848 0.78396 0.0
C224 C 0.75969 0.69699 0.79465 0.0
C225 C 0.81467 0.77677 0.76878 0.0
C226 C 0.7947 0.67216 0.7888 0.0
C227 C 0.84021 0.69995 0.77374 0.0
H228 H 0.02249 0.92078 0.10409 0.0
H229 H 0.20205 0.95542 0.10491 0.0
H230 H 0.17783 0.87792 0.13231 0.0
H231 H 0.10291 0.79339 0.15263 0.0
H232 H 0.92103 0.75234 0.1489 0.0
H233 H 0.94842 0.83884 0.1259 0.0
C234 C 0.0566 0.91229 0.11076 0.0
C235 C 0.11409 0.94397 0.10273 0.0
C236 C 0.04153 0.86573 0.1256 0.0
C237 C 0.15761 0.9317 0.11101 0.0
C238 C 0.14366 0.88719 0.12653 0.0
C239 C 0.06954 0.80402 0.14706 0.0
C240 C 0.01008 0.76669 0.15239 0.0
C241 C 0.08536 0.85281 0.13341 0.0
C242 C 0.96699 0.78026 0.14481 0.0
C243 C 0.98268 0.82976 0.13175 0.0
H244 H 0.19572 0.09389 0.43795 0.0
H245 H 0.32088 0.15024 0.38425 0.0
H246 H 0.39219 0.14304 0.41029 0.0
H247 H 0.41705 0.11494 0.44737 0.0
H248 H 0.29327 0.05913 0.50133 0.0
H249 H 0.22353 0.07211 0.47618 0.0
C250 C 0.23887 0.10537 0.43204 0.0
C251 C 0.25255 0.12211 0.40907 0.0
C252 C 0.27976 0.10065 0.44706 0.0
C253 C 0.30885 0.1369 0.40177 0.0
C254 C 0.34972 0.13261 0.41662 0.0
C255 C 0.37471 0.10553 0.45356 0.0
C256 C 0.35988 0.08544 0.47599 0.0
C257 C 0.33518 0.11336 0.4391 0.0
C258 C 0.30552 0.07459 0.48407 0.0
C259 C 0.26567 0.0819 0.4697 0.0
H260 H 0.139 0.14907 0.76227 0.0
H261 H 0.24867 0.07002 0.76871 0.0
H262 H 0.31977 0.15412 0.79564 0.0
H263 H 0.35216 0.25061 0.81661 0.0
H264 H 0.24103 0.3284 0.81257 0.0
H265 H 0.16974 0.24477 0.78515 0.0
C266 C 0.1785 0.15039 0.76958 0.0
C267 C 0.18852 0.10339 0.76344 0.0
C268 C 0.21907 0.19868 0.7854 0.0
C269 C 0.23967 0.10544 0.7732 0.0
C270 C 0.2805 0.15359 0.78858 0.0
C271 C 0.31183 0.24893 0.81018 0.0
C272 C 0.3021 0.29585 0.81679 0.0
C273 C 0.27064 0.20037 0.79479 0.0
C274 C 0.25017 0.29334 0.80762 0.0
C275 C 0.20917 0.24535 0.79201 0.0
H276 H 0.92497 0.04978 0.68301 0.0
H277 H 0.04074 0.08903 0.62653 0.0
H278 H 0.96901 0.09602 0.60047 0.0
H279 H 0.87071 0.08552 0.59307 0.0
H280 H 0.75611 0.0485 0.64971 0.0
H281 H 0.82998 0.04613 0.67635 0.0
C282 C 0.93479 0.06041 0.66507 0.0
C283 C 0.98799 0.0684 0.65672 0.0
C284 C 0.89331 0.06431 0.65014 0.0
C285 C 0.00017 0.08264 0.63345 0.0
C286 C 0.95902 0.08635 0.61847 0.0
C287 C 0.86212 0.077 0.61126 0.0
C288 C 0.80805 0.06676 0.61943 0.0
C289 C 0.90501 0.07626 0.62651 0.0
C290 C 0.79759 0.05665 0.64309 0.0
C291 C 0.83969 0.05515 0.65829 0.0
H292 H 0.0171 0.89282 0.98089 0.0
H293 H 0.92553 0.97635 0.0104 0.0
H294 H 0.8389 0.9134 0.98291 0.0
H295 H 0.78695 0.8298 0.95212 0.0
H296 H 0.87832 0.74464 0.92424 0.0
H297 H 0.96779 0.81366 0.94935 0.0
C298 C 0.97838 0.89762 0.98131 0.0
C299 C 0.97768 0.93894 0.99782 0.0
C300 C 0.92878 0.86104 0.9657 0.0
C301 C 0.92716 0.94467 0.99795 0.0
C302 C 0.87762 0.90872 0.98223 0.0
C303 C 0.82694 0.82731 0.95133 0.0
C304 C 0.82648 0.78254 0.93645 0.0
C305 C 0.87767 0.8662 0.96623 0.0
C306 C 0.87797 0.77883 0.93567 0.0
C307 C 0.92891 0.81808 0.95003 0.0
H308 H 0.02346 0.9535 0.29686 0.0
H309 H 0.99287 0.88135 0.36448 0.0
H310 H 0.94709 0.77907 0.34569 0.0
H311 H 0.92731 0.71231 0.31 0.0
H312 H 0.95801 0.78653 0.24266 0.0
H313 H 0.99115 0.88591 0.26132 0.0
C314 C 0.0059 0.9152 0.30744 0.0
C315 C 0.01217 0.92453 0.33193 0.0
C316 C 0.97989 0.85712 0.29656 0.0
C317 C 0.98849 0.8749 0.34555 0.0
C318 C 0.96272 0.81662 0.33482 0.0
C319 C 0.94037 0.75019 0.29947 0.0
C320 C 0.94069 0.74235 0.27505 0.0
C321 C 0.95991 0.80745 0.31035 0.0
C322 C 0.95699 0.79142 0.26148 0.0
C323 C 0.97644 0.84834 0.27213 0.0
H324 H 0.1652 0.87859 0.66279 0.0
H325 H 0.1591 0.03717 0.64865 0.0
H326 H 0.23293 0.06227 0.6199 0.0
H327 H 0.30741 0.04506 0.6019 0.0
H328 H 0.31175 0.88545 0.61508 0.0
H329 H 0.23056 0.85475 0.64111 0.0
C330 C 0.17927 0.91808 0.65313 0.0
C331 C 0.15712 0.95627 0.65809 0.0
C332 C 0.22206 0.93249 0.63668 0.0
C333 C 0.17532 0.00692 0.64521 0.0
C334 C 0.21798 0.02165 0.62888 0.0
C335 C 0.28988 0.00328 0.61032 0.0
C336 C 0.31546 0.96772 0.60694 0.0
C337 C 0.24295 0.98576 0.625 0.0
C338 C 0.29245 0.91335 0.61759 0.0
C339 C 0.24626 0.89595 0.63246 0.0
H340 H 0.30297 0.15379 0.00444 0.0
H341 H 0.21121 0.24044 0.03073 0.0
H342 H 0.26746 0.32433 0.0066 0.0
H343 H 0.33823 0.36975 0.97594 0.0
H344 H 0.42682 0.28013 0.94936 0.0
H345 H 0.37591 0.20054 0.97559 0.0
C346 C 0.29566 0.19131 0.00518 0.0
C347 C 0.25263 0.19054 0.01929 0.0
C348 C 0.32707 0.23856 0.99094 0.0
C349 C 0.24407 0.23979 0.02003 0.0
C350 C 0.27591 0.2876 0.0061 0.0
C351 C 0.3461 0.33263 0.9759 0.0
C352 C 0.3861 0.33073 0.96073 0.0
C353 C 0.31655 0.28679 0.99107 0.0
C354 C 0.39658 0.28283 0.96102 0.0
C355 C 0.36744 0.23726 0.97598 0.0
H356 H 0.10181 0.1997 0.29838 0.0
H357 H 0.05278 0.24057 0.36458 0.0
H358 H 0.01366 0.29671 0.3451 0.0
H359 H 0.99238 0.3328 0.30892 0.0
H360 H 0.03609 0.28536 0.24272 0.0
H361 H 0.07764 0.23219 0.26248 0.0
C362 C 0.08321 0.22151 0.3086 0.0
C363 C 0.08098 0.21693 0.33291 0.0
C364 C 0.05917 0.2517 0.29722 0.0
C365 C 0.05537 0.24401 0.34586 0.0
C366 C 0.03286 0.27584 0.33472 0.0
C367 C 0.01092 0.31061 0.29891 0.0
C368 C 0.01119 0.31275 0.27444 0.0
C369 C 0.03423 0.27967 0.31038 0.0
C370 C 0.03483 0.2836 0.26154 0.0
C371 C 0.05898 0.25367 0.27283 0.0
loop_
_geom_bond_atom_site_label_1
_geom_bond_atom_site_label_2
_geom_bond_distance
_geom_bond_site_symmetry_2
_ccdc_geom_bond_type
Zn0 O3 2.031 . S
Zn0 O5 2.049 1_565 S
Zn0 O10 2.067 . S
Zn1 O2 1.962 . S
Zn1 O4 1.986 . S
Zn1 O6 1.996 . S
Zn1 O9 1.943 . S
O2 Zn1 1.962 . S
O2 C7 1.254 1_545 S
O3 Zn0 2.031 . S
O3 C7 1.269 . S
O4 Zn1 1.986 . S
O4 C11 1.262 . S
O5 Zn0 2.049 1_545 S
O5 C13 1.260 . S
O6 Zn1 1.996 . S
O6 C13 1.257 . S
C7 O2 1.254 1_565 S
C7 O3 1.269 . S
C8 O9 1.249 1_565 S
C8 O10 1.270 . S
O9 Zn1 1.943 . S
O9 C8 1.249 1_545 S
O10 Zn0 2.067 . S
O10 C8 1.270 . S
C11 O4 1.262 . S
C11 O12 1.232 . S
O12 C11 1.232 . S
C13 O5 1.260 . S
C13 O6 1.257 . S
Zn14 O17 2.031 . S
Zn14 O19 2.049 . S
Zn14 O24 2.067 . S
Zn15 O16 1.962 . S
Zn15 O18 1.986 1_455 S
Zn15 O20 1.996 . S
Zn15 O23 1.943 . S
O16 Zn15 1.962 . S
O16 C21 1.254 . S
O17 Zn14 2.031 . S
O17 C21 1.269 . S
O18 Zn15 1.986 1_655 S
O18 C25 1.262 . S
O19 Zn14 2.049 . S
O19 C27 1.260 . S
O20 Zn15 1.996 . S
O20 C27 1.257 . S
C21 O16 1.254 . S
C21 O17 1.269 . S
C22 O23 1.249 1_565 S
C22 O24 1.270 1_565 S
O23 Zn15 1.943 . S
O23 C22 1.249 1_545 S
O24 Zn14 2.067 . S
O24 C22 1.270 1_545 S
C25 O18 1.262 . S
C25 O26 1.232 . S
O26 C25 1.232 . S
C27 O19 1.260 . S
C27 O20 1.257 . S
Zn28 O31 2.031 1_565 S
Zn28 O33 2.049 . S
Zn28 O38 2.067 1_565 S
Zn29 O30 1.962 1_545 S
Zn29 O32 1.992 1_445 S
Zn29 O34 1.996 1_445 S
Zn29 O37 1.943 . S
O30 Zn29 1.962 1_565 S
O30 C35 1.247 . S
O31 Zn28 2.031 1_545 S
O31 C35 1.270 1_545 S
O32 Zn29 1.992 1_665 S
O32 C39 1.251 1_565 S
O33 Zn28 2.049 . S
O33 C41 1.260 1_455 S
O34 Zn29 1.996 1_665 S
O34 C41 1.257 . S
C35 O30 1.247 . S
C35 O31 1.270 1_565 S
C36 O37 1.249 . S
C36 O38 1.270 . S
O37 Zn29 1.943 . S
O37 C36 1.249 . S
O38 Zn28 2.067 1_545 S
O38 C36 1.270 . S
C39 O32 1.251 1_545 S
C39 O40 1.232 1_655 S
O40 C39 1.232 1_455 S
C41 O33 1.260 1_655 S
C41 O34 1.257 . S
C42 C43 1.384 . S
C42 C44 1.384 . S
C42 H70 0.931 1_455 S
C43 C42 1.384 . S
C43 C46 1.382 . S
C44 C42 1.384 . S
C44 C45 1.381 . S
C44 H71 0.930 1_455 S
C45 C44 1.381 . S
C45 C47 1.381 . S
C45 C48 1.487 . S
C46 C43 1.382 . S
C46 C47 1.387 . S
C46 H72 0.930 . S
C47 C45 1.381 . S
C47 C46 1.387 . S
C47 H73 0.931 . S
C48 C45 1.487 . S
C48 C55 1.399 . S
C48 N86 1.343 . S
C49 C50 1.384 . S
C49 C51 1.384 . S
C49 H74 0.931 . S
C50 C49 1.384 . S
C50 C53 1.382 . S
C51 C49 1.384 . S
C51 C52 1.381 . S
C51 H75 0.930 . S
C52 C51 1.381 . S
C52 C54 1.381 . S
C52 C55 1.487 . S
C53 C50 1.382 . S
C53 C54 1.387 . S
C53 H76 0.930 1_455 S
C54 C52 1.381 . S
C54 C53 1.387 . S
C54 H77 0.931 1_455 S
C55 C48 1.399 . S
C55 C52 1.487 . S
C55 N87 1.343 . S
C56 C57 1.384 . S
C56 C58 1.384 . S
C56 H78 0.931 . S
C57 C56 1.384 . S
C57 C60 1.382 . S
C58 C56 1.384 . S
C58 C59 1.381 . S
C58 H79 0.930 . S
C59 C58 1.381 . S
C59 C61 1.381 . S
C59 C62 1.487 . S
C60 C57 1.382 . S
C60 C61 1.387 . S
C60 H80 0.930 1_455 S
C61 C59 1.381 . S
C61 C60 1.387 . S
C61 H81 0.931 1_455 S
C62 C59 1.487 . S
C62 C69 1.399 . S
C62 N87 1.343 . S
C63 C64 1.384 . S
C63 C65 1.384 . S
C63 H82 0.931 1_455 S
C64 C63 1.384 . S
C64 C67 1.382 . S
C65 C63 1.384 . S
C65 C66 1.381 . S
C65 H83 0.930 1_455 S
C66 C65 1.381 . S
C66 C68 1.381 . S
C66 C69 1.487 . S
C67 C64 1.382 . S
C67 C68 1.387 . S
C67 H84 0.930 . S
C68 C66 1.381 . S
C68 C67 1.387 . S
C68 H85 0.931 . S
C69 C62 1.399 . S
C69 C66 1.487 . S
C69 N86 1.343 . S
H70 C42 0.931 1_655 S
H71 C44 0.930 1_655 S
H72 C46 0.930 . S
H73 C47 0.931 . S
H74 C49 0.931 . S
H75 C51 0.930 . S
H76 C53 0.930 1_655 S
H77 C54 0.931 1_655 S
H78 C56 0.931 . S
H79 C58 0.930 . S
H80 C60 0.930 1_655 S
H81 C61 0.931 1_655 S
H82 C63 0.931 1_655 S
H83 C65 0.930 1_655 S
H84 C67 0.930 . S
H85 C68 0.931 . S
N86 C48 1.343 . S
N86 C69 1.343 . S
N87 C55 1.343 . S
N87 C62 1.343 . S
C88 C89 1.384 . S
C88 C90 1.384 . S
C88 H116 0.931 . S
C89 C88 1.384 . S
C89 C92 1.382 . S
C90 C88 1.384 . S
C90 C91 1.381 . S
C90 H117 0.930 . S
C91 C90 1.381 . S
C91 C93 1.381 . S
C91 C94 1.487 . S
C92 C89 1.382 . S
C92 C93 1.387 . S
C92 H118 0.930 1_545 S
C93 C91 1.381 . S
C93 C92 1.387 . S
C93 H119 0.931 1_545 S
C94 C91 1.487 . S
C94 C101 1.399 . S
C94 N132 1.343 . S
C95 C96 1.384 1_565 S
C95 C97 1.388 . S
C95 H120 0.931 . S
C96 C95 1.384 1_545 S
C96 C99 1.382 . S
C97 C95 1.388 . S
C97 C98 1.374 1_565 S
C97 H121 0.933 . S
C98 C97 1.374 1_545 S
C98 C100 1.381 . S
C98 C101 1.487 . S
C99 C96 1.382 . S
C99 C100 1.387 . S
C99 H122 0.930 . S
C100 C98 1.381 . S
C100 C99 1.387 . S
C100 H123 0.931 . S
C101 C94 1.399 . S
C101 C98 1.487 . S
C101 N133 1.343 . S
C102 C103 1.384 1_565 S
C102 C104 1.382 . S
C102 H124 0.931 . S
C103 C102 1.384 1_545 S
C103 C106 1.382 . S
C104 C102 1.382 . S
C104 C105 1.380 1_565 S
C104 H125 0.934 . S
C105 C104 1.380 1_545 S
C105 C107 1.381 . S
C105 C108 1.487 . S
C106 C103 1.382 . S
C106 C107 1.387 . S
C106 H126 0.930 . S
C107 C105 1.381 . S
C107 C106 1.387 . S
C107 H127 0.931 . S
C108 C105 1.487 . S
C108 C115 1.399 . S
C108 N133 1.343 . S
C109 C110 1.384 . S
C109 C111 1.384 . S
C109 H128 0.931 . S
C110 C109 1.384 . S
C110 C113 1.382 . S
C111 C109 1.384 . S
C111 C112 1.381 . S
C111 H129 0.930 . S
C112 C111 1.381 . S
C112 C114 1.381 . S
C112 C115 1.487 . S
C113 C110 1.382 . S
C113 C114 1.387 . S
C113 H130 0.930 1_545 S
C114 C112 1.381 . S
C114 C113 1.387 . S
C114 H131 0.931 1_545 S
C115 C108 1.399 . S
C115 C112 1.487 . S
C115 N132 1.343 . S
H116 C88 0.931 . S
H117 C90 0.930 . S
H118 C92 0.930 1_565 S
H119 C93 0.931 1_565 S
H120 C95 0.931 . S
H121 C97 0.933 . S
H122 C99 0.930 . S
H123 C100 0.931 . S
H124 C102 0.931 . S
H125 C104 0.934 . S
H126 C106 0.930 . S
H127 C107 0.931 . S
H128 C109 0.931 . S
H129 C111 0.930 . S
H130 C113 0.930 1_565 S
H131 C114 0.931 1_565 S
N132 C94 1.343 . S
N132 C115 1.343 . S
N133 C101 1.343 . S
N133 C108 1.343 . S
C134 C135 1.384 . S
C134 C136 1.384 . S
C134 H162 0.931 . S
C135 C134 1.384 . S
C135 C138 1.382 . S
C136 C134 1.384 . S
C136 C137 1.381 . S
C136 H163 0.930 . S
C137 C136 1.381 . S
C137 C139 1.381 . S
C137 C140 1.487 . S
C138 C135 1.382 . S
C138 C139 1.387 . S
C138 H164 0.930 . S
C139 C137 1.381 . S
C139 C138 1.387 . S
C139 H165 0.931 . S
C140 C137 1.487 . S
C140 C147 1.399 . S
C140 N178 1.343 . S
C141 C142 1.384 . S
C141 C143 1.384 . S
C141 H166 0.931 . S
C142 C141 1.384 . S
C142 C145 1.382 . S
C143 C141 1.384 . S
C143 C144 1.381 . S
C143 H167 0.930 . S
C144 C143 1.381 . S
C144 C146 1.381 . S
C144 C147 1.487 . S
C145 C142 1.382 . S
C145 C146 1.387 . S
C145 H168 0.930 . S
C146 C144 1.381 . S
C146 C145 1.387 . S
C146 H169 0.931 . S
C147 C140 1.399 . S
C147 C144 1.487 . S
C147 N179 1.343 . S
C148 C149 1.384 . S
C148 C150 1.384 . S
C148 H170 0.931 . S
C149 C148 1.384 . S
C149 C152 1.382 . S
C150 C148 1.384 . S
C150 C151 1.381 . S
C150 H171 0.930 . S
C151 C150 1.381 . S
C151 C153 1.381 . S
C151 C154 1.487 . S
C152 C149 1.382 . S
C152 C153 1.387 . S
C152 H172 0.930 . S
C153 C151 1.381 . S
C153 C152 1.387 . S
C153 H173 0.931 . S
C154 C151 1.487 . S
C154 C161 1.399 . S
C154 N179 1.343 . S
C155 C156 1.384 . S
C155 C157 1.384 . S
C155 H174 0.931 . S
C156 C155 1.384 . S
C156 C159 1.382 . S
C157 C155 1.384 . S
C157 C158 1.381 . S
C157 H175 0.930 . S
C158 C157 1.381 . S
C158 C160 1.381 . S
C158 C161 1.487 . S
C159 C156 1.382 . S
C159 C160 1.387 . S
C159 H176 0.930 . S
C160 C158 1.381 . S
C160 C159 1.387 . S
C160 H177 0.931 . S
C161 C154 1.399 . S
C161 C158 1.487 . S
C161 N178 1.343 . S
H162 C134 0.931 . S
H163 C136 0.930 . S
H164 C138 0.930 . S
H165 C139 0.931 . S
H166 C141 0.931 . S
H167 C143 0.930 . S
H168 C145 0.930 . S
H169 C146 0.931 . S
H170 C148 0.931 . S
H171 C150 0.930 . S
H172 C152 0.930 . S
H173 C153 0.931 . S
H174 C155 0.931 . S
H175 C157 0.930 . S
H176 C159 0.930 . S
H177 C160 0.931 . S
N178 C140 1.343 . S
N178 C161 1.343 . S
N179 C147 1.343 . S
N179 C154 1.343 . S
H180 C186 0.930 . S
H181 C189 0.930 . S
H182 C190 0.930 . S
H183 C191 0.930 1_655 S
H184 C194 0.930 . S
H185 C195 0.930 . S
C186 H180 0.930 . S
C186 C187 1.355 . S
C186 C188 1.415 . S
C187 C186 1.355 . S
C187 C189 1.419 1_455 S
C188 C186 1.415 . S
C188 C193 1.425 . S
C188 C195 1.409 . S
C189 H181 0.930 . S
C189 C187 1.419 1_655 S
C189 C190 1.362 . S
C190 H182 0.930 . S
C190 C189 1.362 . S
C190 C193 1.409 1_655 S
C191 H183 0.930 1_455 S
C191 C192 1.355 . S
C191 C193 1.415 . S
C192 C191 1.355 . S
C192 C194 1.419 . S
C193 C188 1.425 . S
C193 C190 1.409 1_455 S
C193 C191 1.415 . S
C194 H184 0.930 . S
C194 C192 1.419 . S
C194 C195 1.362 . S
C195 H185 0.930 . S
C195 C188 1.409 . S
C195 C194 1.362 . S
H196 C202 0.930 . S
H197 C205 0.930 . S
H198 C206 0.930 . S
H199 C207 0.930 . S
H200 C210 0.930 . S
H201 C211 0.930 . S
C202 H196 0.930 . S
C202 C203 1.355 . S
C202 C204 1.415 . S
C203 C202 1.355 . S
C203 C205 1.419 . S
C204 C202 1.415 . S
C204 C209 1.425 . S
C204 C211 1.409 . S
C205 H197 0.930 . S
C205 C203 1.419 . S
C205 C206 1.362 . S
C206 H198 0.930 . S
C206 C205 1.362 . S
C206 C209 1.409 . S
C207 H199 0.930 . S
C207 C208 1.355 . S
C207 C209 1.415 . S
C208 C207 1.355 . S
C208 C210 1.419 . S
C209 C204 1.425 . S
C209 C206 1.409 . S
C209 C207 1.415 . S
C210 H200 0.930 . S
C210 C208 1.419 . S
C210 C211 1.362 . S
C211 H201 0.930 . S
C211 C204 1.409 . S
C211 C210 1.362 . S
H212 C218 0.930 . S
H213 C221 0.930 . S
H214 C222 0.930 . S
H215 C223 0.930 . S
H216 C226 0.930 . S
H217 C227 0.930 . S
C218 H212 0.930 . S
C218 C219 1.355 . S
C218 C220 1.415 . S
C219 C218 1.355 . S
C219 C221 1.419 . S
C220 C218 1.415 . S
C220 C225 1.425 . S
C220 C227 1.409 . S
C221 H213 0.930 . S
C221 C219 1.419 . S
C221 C222 1.362 . S
C222 H214 0.930 . S
C222 C221 1.362 . S
C222 C225 1.409 . S
C223 H215 0.930 . S
C223 C224 1.355 . S
C223 C225 1.415 . S
C224 C223 1.355 . S
C224 C226 1.419 . S
C225 C220 1.425 . S
C225 C222 1.409 . S
C225 C223 1.415 . S
C226 H216 0.930 . S
C226 C224 1.419 . S
C226 C227 1.362 . S
C227 H217 0.930 . S
C227 C220 1.409 . S
C227 C226 1.362 . S
H228 C234 0.930 . S
H229 C237 0.930 . S
H230 C238 0.930 . S
H231 C239 0.930 . S
H232 C242 0.930 1_655 S
H233 C243 0.930 1_655 S
C234 H228 0.930 . S
C234 C235 1.355 . S
C234 C236 1.415 . S
C235 C234 1.355 . S
C235 C237 1.419 . S
C236 C234 1.415 . S
C236 C241 1.425 . S
C236 C243 1.409 . S
C237 H229 0.930 . S
C237 C235 1.419 . S
C237 C238 1.362 . S
C238 H230 0.930 . S
C238 C237 1.362 . S
C238 C241 1.409 . S
C239 H231 0.930 . S
C239 C240 1.355 . S
C239 C241 1.415 . S
C240 C239 1.355 . S
C240 C242 1.419 . S
C241 C236 1.425 . S
C241 C238 1.409 . S
C241 C239 1.415 . S
C242 H232 0.930 1_455 S
C242 C240 1.419 . S
C242 C243 1.362 . S
C243 H233 0.930 1_455 S
C243 C236 1.409 . S
C243 C242 1.362 . S
H244 C250 0.930 . S
H245 C253 0.930 . S
H246 C254 0.930 . S
H247 C255 0.930 . S
H248 C258 0.930 . S
H249 C259 0.930 . S
C250 H244 0.930 . S
C250 C251 1.355 . S
C250 C252 1.415 . S
C251 C250 1.355 . S
C251 C253 1.419 . S
C252 C250 1.415 . S
C252 C257 1.425 . S
C252 C259 1.409 . S
C253 H245 0.930 . S
C253 C251 1.419 . S
C253 C254 1.362 . S
C254 H246 0.930 . S
C254 C253 1.362 . S
C254 C257 1.409 . S
C255 H247 0.930 . S
C255 C256 1.355 . S
C255 C257 1.415 . S
C256 C255 1.355 . S
C256 C258 1.419 . S
C257 C252 1.425 . S
C257 C254 1.409 . S
C257 C255 1.415 . S
C258 H248 0.930 . S
C258 C256 1.419 . S
C258 C259 1.362 . S
C259 H249 0.930 . S
C259 C252 1.409 . S
C259 C258 1.362 . S
H260 C266 0.930 . S
H261 C269 0.930 . S
H262 C270 0.930 . S
H263 C271 0.930 . S
H264 C274 0.930 . S
H265 C275 0.930 . S
C266 H260 0.930 . S
C266 C267 1.355 . S
C266 C268 1.415 . S
C267 C266 1.355 . S
C267 C269 1.419 . S
C268 C266 1.415 . S
C268 C273 1.425 . S
C268 C275 1.409 . S
C269 H261 0.930 . S
C269 C267 1.419 . S
C269 C270 1.362 . S
C270 H262 0.930 . S
C270 C269 1.362 . S
C270 C273 1.409 . S
C271 H263 0.930 . S
C271 C272 1.355 . S
C271 C273 1.415 . S
C272 C271 1.355 . S
C272 C274 1.419 . S
C273 C268 1.425 . S
C273 C270 1.409 . S
C273 C271 1.415 . S
C274 H264 0.930 . S
C274 C272 1.419 . S
C274 C275 1.362 . S
C275 H265 0.930 . S
C275 C268 1.409 . S
C275 C274 1.362 . S
H276 C282 0.930 . S
H277 C285 0.930 . S
H278 C286 0.930 . S
H279 C287 0.930 1_565 S
H280 C290 0.930 . S
H281 C291 0.930 . S
C282 H276 0.930 . S
C282 C283 1.355 . S
C282 C284 1.415 . S
C283 C282 1.355 . S
C283 C285 1.419 1_545 S
C284 C282 1.415 . S
C284 C289 1.425 . S
C284 C291 1.409 . S
C285 H277 0.930 . S
C285 C283 1.419 1_565 S
C285 C286 1.362 . S
C286 H278 0.930 . S
C286 C285 1.362 . S
C286 C289 1.409 1_565 S
C287 H279 0.930 1_545 S
C287 C288 1.355 . S
C287 C289 1.415 . S
C288 C287 1.355 . S
C288 C290 1.419 . S
C289 C284 1.425 . S
C289 C286 1.409 1_545 S
C289 C287 1.415 . S
C290 H280 0.930 . S
C290 C288 1.419 . S
C290 C291 1.362 . S
C291 H281 0.930 . S
C291 C284 1.409 . S
C291 C290 1.362 . S
H292 C298 0.930 1_455 S
H293 C301 0.930 . S
H294 C302 0.930 . S
H295 C303 0.930 . S
H296 C306 0.930 . S
H297 C307 0.930 . S
C298 H292 0.930 1_655 S
C298 C299 1.355 1_556 S
C298 C300 1.415 . S
C299 C298 1.355 1_554 S
C299 C301 1.419 . S
C300 C298 1.415 . S
C300 C305 1.425 . S
C300 C307 1.409 . S
C301 H293 0.930 . S
C301 C299 1.419 . S
C301 C302 1.362 1_554 S
C302 H294 0.930 . S
C302 C301 1.362 1_556 S
C302 C305 1.409 . S
C303 H295 0.930 . S
C303 C304 1.355 . S
C303 C305 1.415 . S
C304 C303 1.355 . S
C304 C306 1.419 . S
C305 C300 1.425 . S
C305 C302 1.409 . S
C305 C303 1.415 . S
C306 H296 0.930 . S
C306 C304 1.419 . S
C306 C307 1.362 . S
C307 H297 0.930 . S
C307 C300 1.409 . S
C307 C306 1.362 . S
H308 C314 0.930 . S
H309 C317 0.930 . S
H310 C318 0.930 . S
H311 C319 0.930 1_655 S
H312 C322 0.930 . S
H313 C323 0.930 . S
C314 H308 0.930 . S
C314 C315 1.355 . S
C314 C316 1.415 . S
C315 C314 1.355 . S
C315 C317 1.419 1_455 S
C316 C314 1.415 . S
C316 C321 1.425 . S
C316 C323 1.409 . S
C317 H309 0.930 . S
C317 C315 1.419 1_655 S
C317 C318 1.362 . S
C318 H310 0.930 . S
C318 C317 1.362 . S
C318 C321 1.409 1_655 S
C319 H311 0.930 1_455 S
C319 C320 1.355 . S
C319 C321 1.415 . S
C320 C319 1.355 . S
C320 C322 1.419 . S
C321 C316 1.425 . S
C321 C318 1.409 1_455 S
C321 C319 1.415 . S
C322 H312 0.930 . S
C322 C320 1.419 . S
C322 C323 1.362 . S
C323 H313 0.930 . S
C323 C316 1.409 . S
C323 C322 1.362 . S
H324 C330 0.930 . S
H325 C333 0.930 . S
H326 C334 0.930 . S
H327 C335 0.930 . S
H328 C338 0.930 . S
H329 C339 0.930 . S
C330 H324 0.930 . S
C330 C331 1.355 1_565 S
C330 C332 1.415 . S
C331 C330 1.355 1_545 S
C331 C333 1.419 . S
C332 C330 1.415 . S
C332 C337 1.425 1_565 S
C332 C339 1.409 . S
C333 H325 0.930 . S
C333 C331 1.419 . S
C333 C334 1.362 . S
C334 H326 0.930 . S
C334 C333 1.362 . S
C334 C337 1.409 . S
C335 H327 0.930 . S
C335 C336 1.355 . S
C335 C337 1.415 . S
C336 C335 1.355 . S
C336 C338 1.419 1_545 S
C337 C332 1.425 1_545 S
C337 C334 1.409 . S
C337 C335 1.415 . S
C338 H328 0.930 . S
C338 C336 1.419 1_565 S
C338 C339 1.362 . S
C339 H329 0.930 . S
C339 C332 1.409 . S
C339 C338 1.362 . S
H340 C346 0.904 1_554 S
H341 C349 0.930 . S
H342 C350 0.930 . S
H343 C351 0.930 . S
H344 C354 0.930 . S
H345 C355 0.930 . S
C346 H340 0.904 1_556 S
C346 C347 1.344 1_556 S
C346 C348 1.453 . S
C347 C346 1.344 1_554 S
C347 C349 1.419 1_554 S
C348 C346 1.453 . S
C348 C353 1.425 . S
C348 C355 1.409 . S
C349 H341 0.930 . S
C349 C347 1.419 1_556 S
C349 C350 1.362 . S
C350 H342 0.930 . S
C350 C349 1.362 . S
C350 C353 1.409 . S
C351 H343 0.930 . S
C351 C352 1.355 . S
C351 C353 1.415 . S
C352 C351 1.355 . S
C352 C354 1.419 . S
C353 C348 1.425 . S
C353 C350 1.409 . S
C353 C351 1.415 . S
C354 H344 0.930 . S
C354 C352 1.419 . S
C354 C355 1.362 . S
C355 H345 0.930 . S
C355 C348 1.409 . S
C355 C354 1.362 . S
H356 C362 0.930 . S
H357 C365 0.930 . S
H358 C366 0.930 . S
H359 C367 0.930 . S
H360 C370 0.930 . S
H361 C371 0.930 . S
C362 H356 0.930 . S
C362 C363 1.355 . S
C362 C364 1.415 . S
C363 C362 1.355 . S
C363 C365 1.419 . S
C364 C362 1.415 . S
C364 C369 1.425 . S
C364 C371 1.409 . S
C365 H357 0.930 . S
C365 C363 1.419 . S
C365 C366 1.362 . S
C366 H358 0.930 . S
C366 C365 1.362 . S
C366 C369 1.409 . S
C367 H359 0.930 . S
C367 C368 1.355 . S
C367 C369 1.415 . S
C368 C367 1.355 . S
C368 C370 1.419 . S
C369 C364 1.425 . S
C369 C366 1.409 . S
C369 C367 1.415 . S
C370 H360 0.930 . S
C370 C368 1.419 . S
C370 C371 1.362 . S
C371 H361 0.930 . S
C371 C364 1.409 . S
C371 C370 1.362 . S
C192 C50 1.354 . S
C187 C11 1.336 . S
C203 C25 1.377 . S
C208 C89 1.412 . S
C219 C41 1.422 . S
C224 C156 1.447 . S
C235 C7 1.374 . S
C240 C57 1.375 . S
C256 C110 1.432 . S
C251 C21 1.423 . S
C267 C36 1.364 . S
C272 C135 1.448 . S
C288 C96 1.394 . S
C283 C39 1.366 . S
C299 C8 1.436 1_655 S
C304 C149 1.481 . S
C320 C64 1.508 . S
C315 C22 1.482 . S
C336 C103 1.425 . S
C331 C35 1.420 1_545 S
C352 C142 1.442 . S
C347 C13 1.412 . S
C363 C27 1.445 . S
C368 C43 1.477 . S
