# Generated by pormake.
# Topology tsx, (6,3)-cn, num edge types: 1
# Building blocks:
#     Node 0, Type 0, BuildingBlock: FUNLAD_clean_sbu_0, # of connection points: 6
#     Node 1, Type 0, BuildingBlock: FUNLAD_clean_sbu_0, # of connection points: 6
#     Node 2, Type 1, BuildingBlock: INOVEN_clean_linker_0, # of connection points: 3
#     Node 3, Type 1, BuildingBlock: INOVEN_clean_linker_0, # of connection points: 3
#     Node 4, Type 1, BuildingBlock: INOVEN_clean_linker_0, # of connection points: 3
#     Node 5, Type 1, BuildingBlock: INOVEN_clean_linker_0, # of connection points: 3
#     Edge 6, Type (0, 1), BuildingBlock: TEMPAE_clean_linker_10, # of connection points: 2
#     Edge 7, Type (0, 1), BuildingBlock: TEMPAE_clean_linker_10, # of connection points: 2
#     Edge 8, Type (0, 1), BuildingBlock: TEMPAE_clean_linker_10, # of connection points: 2
#     Edge 9, Type (0, 1), BuildingBlock: TEMPAE_clean_linker_10, # of connection points: 2
#     Edge 10, Type (0, 1), BuildingBlock: TEMPAE_clean_linker_10, # of connection points: 2
#     Edge 11, Type (0, 1), BuildingBlock: TEMPAE_clean_linker_10, # of connection points: 2
#     Edge 12, Type (0, 1), BuildingBlock: TEMPAE_clean_linker_10, # of connection points: 2
#     Edge 13, Type (0, 1), BuildingBlock: TEMPAE_clean_linker_10, # of connection points: 2
#     Edge 14, Type (0, 1), BuildingBlock: TEMPAE_clean_linker_10, # of connection points: 2
#     Edge 15, Type (0, 1), BuildingBlock: TEMPAE_clean_linker_10, # of connection points: 2
#     Edge 16, Type (0, 1), BuildingBlock: TEMPAE_clean_linker_10, # of connection points: 2
#     Edge 17, Type (0, 1), BuildingBlock: TEMPAE_clean_linker_10, # of connection points: 2
# Relax obj value: 0.103
# Max RMSD: 0.111
# Mean RMSD: 0.105
data_MOF--net-tsx--node1-FUNLAD_clean_sbu_0--node2-INOVEN_clean_linker_0--edge1-TEMPAE_clean_linker_10
_symmetry_space_group_name_H-M    P1
_symmetry_Int_Tables_number       1
_symmetry_cell_setting            triclinic
loop_
_symmetry_equiv_pos_as_xyz
'x, y, z'
_cell_length_a     19.608557
_cell_length_b     21.690305
_cell_length_c     39.597873
_cell_angle_alpha  90.994793
_cell_angle_beta   101.66004
_cell_angle_gamma 89.955043
loop_
_atom_site_label
_atom_site_type_symbol
_atom_site_fract_x
_atom_site_fract_y
_atom_site_fract_z
_atom_type_partial_charge
C0 C 0.88751 0.89328 0.00146 0.0
N1 N 0.02846 0.99028 0.07771 0.0
C2 C 0.97877 0.98592 0.09702 0.0
C3 C 0.99682 0.99104 0.13285 0.0
C4 C 0.06656 0.00192 0.14905 0.0
C5 C 0.1168 0.00589 0.12839 0.0
C6 C 0.09659 -0.00055 0.09265 0.0
Zn7 Zn -0.00046 0.98621 0.02539 0.0
C8 C 0.0841 0.89562 0.99429 0.0
N9 N 0.93964 0.98032 0.91591 0.0
C10 C 0.87227 0.9907 0.90016 0.0
C11 C 0.99064 0.97406 0.89736 0.0
C12 C 0.97497 0.97921 0.86162 0.0
C13 C 0.90658 0.99229 0.84499 0.0
C14 C 0.85461 0.99767 0.86446 0.0
Zn15 Zn 0.96778 0.98184 0.96838 0.0
O16 O 0.92735 0.91565 0.02819 0.0
C17 C 0.88479 0.0738 -0.00051 0.0
O18 O 0.89241 0.91279 0.97192 0.0
H19 H 0.04401 0.96697 0.91034 0.0
H20 H 0.92489 0.97884 0.08462 0.0
H21 H 0.83247 0.99534 0.91536 0.0
O22 O 0.92178 0.05436 0.02737 0.0
O23 O 0.89369 0.051 0.97097 0.0
H24 H 0.13533 0.00262 0.07681 0.0
O25 O 0.04287 0.05191 0.96528 0.0
O26 O 0.07062 0.05651 0.02167 0.0
O27 O 0.04334 0.91267 0.9669 0.0
O28 O 0.07761 0.91914 0.02309 0.0
C29 C 0.07887 0.07572 0.99269 0.0
H30 H 0.95641 0.98624 0.14765 0.0
H31 H 0.17102 0.01492 0.13959 0.0
H32 H 0.01634 0.97543 0.84723 0.0
H33 H 0.8013 0.00771 0.85223 0.0
C34 C 0.45636 0.39561 0.51046 0.0
N35 N 0.59386 0.49286 0.58811 0.0
C36 C 0.54347 0.48551 0.60681 0.0
C37 C 0.55982 0.49048 0.64266 0.0
C38 C 0.62829 0.5044 0.65928 0.0
C39 C 0.67946 0.5116 0.63957 0.0
C40 C 0.66113 0.50488 0.60374 0.0
Zn41 Zn 0.56569 0.49043 0.53568 0.0
C42 C 0.65301 0.40523 0.5031 0.0
N43 N 0.50512 0.48853 0.4261 0.0
C44 C 0.43752 0.4785 0.41052 0.0
C45 C 0.55424 0.50087 0.40734 0.0
C46 C 0.53585 0.50514 0.37159 0.0
C47 C 0.46646 0.49474 0.35461 0.0
C48 C 0.41716 0.48059 0.37468 0.0
Zn49 Zn 0.53355 0.4889 0.47859 0.0
O50 O 0.49484 0.41783 0.53763 0.0
C51 C 0.4469 0.57509 0.51058 0.0
O52 O 0.46205 0.41628 0.48132 0.0
H53 H 0.6078 0.50838 0.42012 0.0
H54 H 0.49019 0.47692 0.59391 0.0
H55 H 0.39907 0.46921 0.42589 0.0
O56 O 0.48604 0.55658 0.53813 0.0
O57 O 0.45554 0.55356 0.48172 0.0
H58 H 0.70045 0.5103 0.5884 0.0
O59 O 0.60496 0.56264 0.47678 0.0
O60 O 0.63539 0.5628 0.53307 0.0
O61 O 0.61243 0.42407 0.47606 0.0
O62 O 0.64531 0.42532 0.53247 0.0
C63 C 0.64171 0.58488 0.50441 0.0
H64 H 0.51901 0.48527 0.65721 0.0
H65 H 0.73283 0.52223 0.65176 0.0
H66 H 0.57575 0.5175 0.3576 0.0
H67 H 0.36335 0.47097 0.36296 0.0
H68 H 0.12274 0.98728 0.50128 0.0
H69 H 0.21533 0.9298 0.4161 0.0
H70 H 0.07796 0.08521 0.40573 0.0
N71 N 0.04961 0.07972 0.46902 0.0
N72 N 0.03679 0.13328 0.45869 0.0
C73 C 0.13085 0.99373 0.4753 0.0
C74 C 0.17603 0.95464 0.46167 0.0
C75 C 0.09696 0.042 0.45552 0.0
C76 C 0.10654 0.04979 0.42165 0.0
C77 C 0.1481 0.00865 0.40727 0.0
C78 C 0.18357 0.96192 0.42746 0.0
H79 H 0.97392 0.99269 0.51216 0.0
H80 H 0.84622 0.96371 0.58664 0.0
H81 H 0.99274 0.11391 0.60069 0.0
N82 N 0.04328 0.08892 0.54383 0.0
N83 N 0.05938 0.14286 0.55362 0.0
C84 C 0.95723 0.00655 0.53564 0.0
C85 C 0.90319 0.97468 0.54619 0.0
C86 C 0.98874 0.05741 0.55494 0.0
C87 C 0.96762 0.07511 0.58558 0.0
C88 C 0.91687 0.04102 0.59766 0.0
C89 C 0.8841 0.99168 0.57733 0.0
H90 H 0.56445 0.48717 0.99205 0.0
H91 H 0.69122 0.458 0.9166 0.0
H92 H 0.55351 0.61367 0.90876 0.0
N93 N 0.5002 0.58692 0.96401 0.0
N94 N 0.48637 0.64147 0.95587 0.0
C95 C 0.58218 0.50166 0.96921 0.0
C96 C 0.63467 0.46863 0.95749 0.0
C97 C 0.55364 0.5545 0.95199 0.0
C98 C 0.57621 0.57321 0.92224 0.0
C99 C 0.62497 0.53809 0.90878 0.0
C100 C 0.65486 0.48662 0.92705 0.0
H101 H 0.41374 0.48171 0.00314 0.0
H102 H 0.2979 0.44247 0.08166 0.0
H103 H 0.46583 0.57425 0.10147 0.0
N104 N 0.49436 0.56846 0.03872 0.0
N105 N 0.50959 0.62185 0.04987 0.0
C106 C 0.40355 0.48996 0.02874 0.0
C107 C 0.35038 0.45748 0.03974 0.0
C108 C 0.44261 0.53426 0.05051 0.0
C109 C 0.43164 0.54316 0.08419 0.0
C110 C 0.38054 0.50929 0.09616 0.0
C111 C 0.33838 0.46831 0.07314 0.0
C112 C 0.16939 0.14975 0.02209 0.0
C113 C 0.12675 0.12796 0.99146 0.0
C114 C 0.2089 0.20357 0.02273 0.0
C115 C 0.206 0.23654 0.99192 0.0
C116 C 0.16628 0.21298 0.96048 0.0
C117 C 0.12686 0.15885 0.96061 0.0
C118 C 0.25095 0.22682 0.05685 0.0
C119 C 0.1626 0.24642 0.92707 0.0
C120 C 0.23849 0.40433 0.01505 0.0
C121 C 0.31081 0.40786 0.01822 0.0
C122 C 0.20212 0.35017 0.00302 0.0
C123 C 0.2392 0.29842 0.994 0.0
C124 C 0.31099 0.30409 0.99359 0.0
C125 C 0.34614 0.35898 0.00579 0.0
C126 C 0.1254 0.34642 0.00345 0.0
C127 C 0.35212 0.25041 0.98356 0.0
H128 H 0.17032 0.12576 0.04597 0.0
H129 H 0.09425 0.14209 0.93679 0.0
H130 H 0.30563 0.23549 0.0547 0.0
H131 H 0.22916 0.27123 0.06409 0.0
H132 H 0.25099 0.19378 0.07799 0.0
H133 H 0.14058 0.21678 0.90432 0.0
H134 H 0.12898 0.28764 0.92678 0.0
H135 H 0.21497 0.26267 0.92458 0.0
H136 H 0.21109 0.44263 0.02417 0.0
H137 H 0.40214 0.36171 0.00817 0.0
H138 H 0.11789 0.31814 0.02552 0.0
H139 H 0.09639 0.3237 0.97954 0.0
H140 H 0.10247 0.39267 0.00613 0.0
H141 H 0.36351 0.21779 0.00524 0.0
H142 H 0.4024 0.26562 0.97757 0.0
H143 H 0.32188 0.22498 0.96087 0.0
C144 C 0.14447 0.82251 0.96075 0.0
C145 C 0.14095 0.85156 0.99226 0.0
C146 C 0.20088 0.78468 0.95752 0.0
C147 C 0.2554 0.77592 0.98646 0.0
C148 C 0.25122 0.80347 0.01864 0.0
C149 C 0.19388 0.84089 0.0212 0.0
C150 C 0.20317 0.75566 0.92281 0.0
C151 C 0.30843 0.79512 0.05003 0.0
C152 C 0.37794 0.64343 0.97823 0.0
C153 C 0.43131 0.67404 0.96637 0.0
C154 C 0.32157 0.6763 0.98638 0.0
C155 C 0.31851 0.74105 0.98222 0.0
C156 C 0.37365 0.77212 0.97134 0.0
C157 C 0.42919 0.73799 0.96335 0.0
C158 C 0.26411 0.64143 -0.00196 0.0
C159 C 0.37291 0.84116 0.96703 0.0
H160 H 0.10365 0.83019 0.93831 0.0
H161 H 0.19158 0.86317 0.04565 0.0
H162 H 0.24784 0.77468 0.91302 0.0
H163 H 0.21113 0.70516 0.92531 0.0
H164 H 0.15474 0.76403 0.90342 0.0
H165 H 0.29513 0.81609 0.07366 0.0
H166 H 0.31926 0.74538 0.05447 0.0
H167 H 0.35718 0.81667 0.0457 0.0
H168 H 0.37912 0.5937 0.98011 0.0
H169 H 0.47096 0.76111 0.95431 0.0
H170 H 0.21638 0.64224 0.97749 0.0
H171 H 0.25121 0.66375 0.02137 0.0
H172 H 0.27832 0.59259 0.00387 0.0
H173 H 0.32944 0.85397 0.94575 0.0
H174 H 0.42236 0.85863 0.96111 0.0
H175 H 0.36397 0.86473 0.99084 0.0
C176 C 0.78236 0.82856 0.97697 0.0
C177 C 0.83417 0.84703 0.00524 0.0
C178 C 0.72866 0.78831 0.98123 0.0
C179 C 0.72708 0.76612 0.01448 0.0
C180 C 0.7805 0.783 0.04281 0.0
C181 C 0.83325 0.82325 0.03786 0.0
C182 C 0.67248 0.77109 0.95045 0.0
C183 C 0.78089 0.75994 0.07864 0.0
C184 C 0.5583 0.72065 0.04002 0.0
C185 C 0.56255 0.6565 0.03938 0.0
C186 C 0.60995 0.75696 0.03031 0.0
C187 C 0.66785 0.728 0.02039 0.0
C188 C 0.67174 0.66281 0.0192 0.0
C189 C 0.61919 0.62775 0.02906 0.0
C190 C 0.60339 0.82629 0.03153 0.0
C191 C 0.73228 0.63016 0.00856 0.0
H192 H 0.78274 0.8467 0.95168 0.0
H193 H 0.87327 0.83692 0.05982 0.0
H194 H 0.66642 0.72024 0.94812 0.0
H195 H 0.62184 0.79017 0.95401 0.0
H196 H 0.68377 0.78874 0.92598 0.0
H197 H 0.82808 0.77489 0.09756 0.0
H198 H 0.7343 0.77738 0.08765 0.0
H199 H 0.77824 0.70884 0.07832 0.0
H200 H 0.51411 0.74224 0.04802 0.0
H201 H 0.62307 0.57798 0.02945 0.0
H202 H 0.60944 0.84604 0.00665 0.0
H203 H 0.64552 0.84582 0.05189 0.0
H204 H 0.55244 0.84123 0.037 0.0
H205 H 0.7402 0.64746 0.98343 0.0
H206 H 0.72446 0.5794 0.00626 0.0
H207 H 0.78067 0.63997 0.02785 0.0
C208 C 0.79772 0.14753 0.96829 0.0
C209 C 0.83591 0.12585 -0.00035 0.0
C210 C 0.75877 0.20185 0.96703 0.0
C211 C 0.7574 0.23526 -0.00208 0.0
C212 C 0.79184 0.21149 0.02992 0.0
C213 C 0.83105 0.15707 0.03042 0.0
C214 C 0.72278 0.22551 0.93229 0.0
C215 C 0.79053 0.24523 0.06343 0.0
C216 C 0.73911 0.40538 0.98042 0.0
C217 C 0.66683 0.4131 0.97531 0.0
C218 C 0.76997 0.34861 0.99043 0.0
C219 C 0.72745 0.29841 0.99571 0.0
C220 C 0.65517 0.30753 0.99369 0.0
C221 C 0.62553 0.36497 0.98338 0.0
C222 C 0.84731 0.34114 0.99247 0.0
C223 C 0.60833 0.25552 -0.00019 0.0
H224 H 0.80049 0.1234 0.9444 0.0
H225 H 0.85994 0.14036 0.0548 0.0
H226 H 0.66759 0.23649 0.93242 0.0
H227 H 0.74837 0.26875 0.92675 0.0
H228 H 0.72438 0.19173 0.91105 0.0
H229 H 0.80866 0.21563 0.08609 0.0
H230 H 0.8251 0.28621 0.06582 0.0
H231 H 0.73726 0.26188 0.06402 0.0
H232 H 0.7712 0.44305 0.97481 0.0
H233 H 0.5696 0.3709 0.97954 0.0
H234 H 0.8562 0.31142 0.97068 0.0
H235 H 0.87184 0.31816 0.01669 0.0
H236 H 0.87389 0.38603 0.99126 0.0
H237 H 0.59882 0.22388 0.97702 0.0
H238 H 0.55723 0.2727 0.004 0.0
H239 H 0.6333 0.22834 0.02245 0.0
C240 C 0.69452 0.6653 0.47255 0.0
C241 C 0.68892 0.63787 0.50373 0.0
C242 C 0.73458 0.71899 0.47231 0.0
C243 C 0.76908 0.7459 0.50398 0.0
C244 C 0.76614 0.71671 0.53537 0.0
C245 C 0.72637 0.66303 0.53483 0.0
C246 C 0.73741 0.74829 0.43834 0.0
C247 C 0.80213 0.74386 0.56977 0.0
C248 C 0.90745 0.87041 0.51864 0.0
C249 C 0.86847 0.92085 0.52655 0.0
C250 C 0.87485 0.81371 0.5079 0.0
C251 C 0.80197 0.80783 0.50527 0.0
C252 C 0.76192 0.86047 0.50992 0.0
C253 C 0.79574 0.9164 0.52045 0.0
C254 C 0.91918 0.75899 0.50245 0.0
C255 C 0.68407 0.85648 0.50716 0.0
H256 H 0.6662 0.64582 0.44837 0.0
H257 H 0.72293 0.64188 0.55904 0.0
H258 H 0.70467 0.79034 0.43526 0.0
H259 H 0.7914 0.76262 0.43761 0.0
H260 H 0.71813 0.7166 0.41612 0.0
H261 H 0.79814 0.7135 0.59161 0.0
H262 H 0.85801 0.75208 0.56995 0.0
H263 H 0.77849 0.78907 0.57413 0.0
H264 H 0.96376 0.87391 0.52327 0.0
H265 H 0.76562 0.95585 0.52608 0.0
H266 H 0.89304 0.73024 0.48014 0.0
H267 H 0.92722 0.72976 0.52563 0.0
H268 H 0.97107 0.77347 0.49815 0.0
H269 H 0.65919 0.83095 0.48336 0.0
H270 H 0.65973 0.90277 0.50706 0.0
H271 H 0.67285 0.83081 0.52943 0.0
C272 C 0.71366 0.33612 0.46773 0.0
C273 C 0.70985 0.36186 0.50003 0.0
C274 C 0.76861 0.2972 0.46375 0.0
C275 C 0.82137 0.28384 0.49274 0.0
C276 C 0.81748 0.30881 0.52555 0.0
C277 C 0.76156 0.34749 0.52884 0.0
C278 C 0.77065 0.27103 0.42835 0.0
C279 C 0.87297 0.29549 0.55697 0.0
C280 C 0.92901 0.14312 0.48081 0.0
C281 C 0.98593 0.16998 0.47014 0.0
C282 C 0.87673 0.17981 0.49015 0.0
C283 C 0.88114 0.24476 0.48814 0.0
C284 C 0.93973 0.27197 0.47833 0.0
C285 C 0.99117 0.234 0.46912 0.0
C286 C 0.81539 0.14892 0.50062 0.0
C287 C 0.94687 0.34102 0.47632 0.0
H288 H 0.67383 0.34672 0.44535 0.0
H289 H 0.75903 0.36729 0.55388 0.0
H290 H 0.81824 0.28731 0.42007 0.0
H291 H 0.77305 0.21995 0.42913 0.0
H292 H 0.72452 0.28455 0.40867 0.0
H293 H 0.86127 0.31699 0.58082 0.0
H294 H 0.87842 0.245 0.56062 0.0
H295 H 0.92402 0.31305 0.55324 0.0
H296 H 0.92426 0.0934 0.48073 0.0
H297 H 0.0355 0.25417 0.46082 0.0
H298 H 0.76815 0.15528 0.48022 0.0
H299 H 0.80496 0.17032 0.52471 0.0
H300 H 0.82388 0.0987 0.50471 0.0
H301 H 0.90644 0.35858 0.45491 0.0
H302 H 0.99886 0.35482 0.47187 0.0
H303 H 0.9385 0.36368 0.50048 0.0
C304 C 0.4007 0.32299 0.54504 0.0
C305 C 0.40184 0.34987 0.5132 0.0
C306 C 0.34539 0.28497 0.54927 0.0
C307 C 0.28953 0.27386 0.52105 0.0
C308 C 0.29153 0.29883 0.48847 0.0
C309 C 0.34789 0.33643 0.48489 0.0
C310 C 0.34549 0.25862 0.58435 0.0
C311 C 0.2328 0.28796 0.45782 0.0
C312 C 0.16778 0.1426 0.53128 0.0
C313 C 0.11508 0.17437 0.54352 0.0
C314 C 0.22377 0.17454 0.52254 0.0
C315 C 0.22716 0.23956 0.52648 0.0
C316 C 0.17298 0.27171 0.53804 0.0
C317 C 0.11784 0.23849 0.54667 0.0
C318 C 0.28026 0.13854 0.51022 0.0
C319 C 0.17407 0.34107 0.54211 0.0
H320 H 0.44238 0.33282 0.56699 0.0
H321 H 0.34832 0.35712 0.46021 0.0
H322 H 0.30199 0.27876 0.59492 0.0
H323 H 0.33713 0.208 0.58217 0.0
H324 H 0.395 0.26813 0.60297 0.0
H325 H 0.24471 0.30659 0.4337 0.0
H326 H 0.22155 0.23792 0.45396 0.0
H327 H 0.18471 0.31035 0.46268 0.0
H328 H 0.16612 0.09277 0.52935 0.0
H329 H 0.07657 0.2625 0.55599 0.0
H330 H 0.32902 0.14125 0.53008 0.0
H331 H 0.29137 0.15869 0.48634 0.0
H332 H 0.26605 0.08919 0.50503 0.0
H333 H 0.21888 0.35538 0.56262 0.0
H334 H 0.12552 0.35919 0.54897 0.0
H335 H 0.18099 0.36273 0.51785 0.0
C336 C 0.34965 0.64082 0.48093 0.0
C337 C 0.39557 0.62483 0.51144 0.0
C338 C 0.30822 0.69364 0.47952 0.0
C339 C 0.31266 0.73148 0.50939 0.0
C340 C 0.35486 0.71313 0.54095 0.0
C341 C 0.39606 0.6599 0.54161 0.0
C342 C 0.26349 0.71123 0.44534 0.0
C343 C 0.36007 0.75173 0.57344 0.0
C344 C 0.28501 0.89701 0.48312 0.0
C345 C 0.21355 0.90387 0.4818 0.0
C346 C 0.31938 0.84265 0.49501 0.0
C347 C 0.28114 0.79395 0.50576 0.0
C348 C 0.2103 0.80288 0.50747 0.0
C349 C 0.17713 0.85805 0.49538 0.0
C350 C 0.39515 0.83543 0.49308 0.0
C351 C 0.16806 0.75251 0.5193 0.0
H352 H 0.34813 0.61344 0.45762 0.0
H353 H 0.43101 0.64754 0.56538 0.0
H354 H 0.20982 0.72217 0.44844 0.0
H355 H 0.28517 0.75323 0.43576 0.0
H356 H 0.26078 0.67402 0.42547 0.0
H357 H 0.38341 0.72553 0.59679 0.0
H358 H 0.3933 0.79263 0.5721 0.0
H359 H 0.30804 0.76871 0.57617 0.0
H360 H 0.31317 0.933 0.47298 0.0
H361 H 0.12177 0.86349 0.49437 0.0
H362 H 0.39971 0.80232 0.47196 0.0
H363 H 0.42529 0.81654 0.51742 0.0
H364 H 0.41917 0.87983 0.48804 0.0
H365 H 0.15325 0.71772 0.49822 0.0
H366 H 0.1196 0.7708 0.52619 0.0
H367 H 0.19888 0.72861 0.54189 0.0
C368 C 0.04139 0.03834 0.20569 0.0
C369 C 0.08645 0.00884 0.18721 0.0
C370 C 0.0568 0.04135 0.24179 0.0
C371 C 0.1197 0.01563 0.25988 0.0
C372 C 0.16712 0.98855 0.24146 0.0
C373 C 0.14958 0.98481 0.20534 0.0
C374 C 0.00444 0.0699 0.26058 0.0
C375 C 0.23531 0.9617 0.25993 0.0
C376 C 0.17012 0.06076 0.35472 0.0
C377 C 0.1468 0.0093 0.36999 0.0
C378 C 0.16445 0.06253 0.31883 0.0
C379 C 0.13272 0.01248 0.29803 0.0
C380 C 0.10975 0.96021 0.31357 0.0
C381 C 0.11787 0.95901 0.34947 0.0
C382 C 0.19119 0.11822 0.30315 0.0
C383 C 0.07417 0.90657 0.29224 0.0
H384 H 0.99341 0.05856 0.19195 0.0
H385 H 0.18457 0.96143 0.19143 0.0
H386 H 0.98509 0.03443 0.27622 0.0
H387 H 0.02938 0.10682 0.27861 0.0
H388 H 0.95914 0.08981 0.24266 0.0
H389 H 0.26989 0.94905 0.24189 0.0
H390 H 0.2631 0.99507 0.27948 0.0
H391 H 0.22518 0.91973 0.27378 0.0
H392 H 0.1925 0.0995 0.37087 0.0
H393 H 0.09923 0.91961 0.36152 0.0
H394 H 0.14699 0.14326 0.28734 0.0
H395 H 0.2262 0.10361 0.28573 0.0
H396 H 0.21994 0.15058 0.32307 0.0
H397 H 0.02581 0.92264 0.27503 0.0
H398 H 0.06042 0.86907 0.30845 0.0
H399 H 0.10835 0.88727 0.27556 0.0
C400 C 0.86915 0.06179 0.79535 0.0
C401 C 0.89124 0.00346 0.80766 0.0
C402 C 0.86446 0.07586 0.76049 0.0
C403 C 0.88119 0.03003 0.73763 0.0
C404 C 0.89954 0.96995 0.74973 0.0
C405 C 0.90521 0.95764 0.78478 0.0
C406 C 0.84582 0.14061 0.74867 0.0
C407 C 0.91635 0.91943 0.72599 0.0
C408 C 0.83772 0.04074 0.64032 0.0
C409 C 0.90396 0.05127 0.6331 0.0
C410 C 0.82832 0.03704 0.67442 0.0
C411 C 0.88622 0.04562 0.70187 0.0
C412 C 0.95169 0.06198 0.6948 0.0
C413 C 0.95998 0.06393 0.66053 0.0
C414 C 0.75772 0.01936 0.68094 0.0
C415 C 0.01441 0.07293 0.72344 0.0
H416 H 0.85904 0.09724 0.81334 0.0
H417 H 0.92212 0.91255 0.79453 0.0
H418 H 0.89281 0.16395 0.74339 0.0
H419 H 0.80623 0.13995 0.72431 0.0
H420 H 0.82559 0.16833 0.76835 0.0
H421 H 0.92277 0.87392 0.73869 0.0
H422 H 0.87452 0.91557 0.70255 0.0
H423 H 0.96537 0.93084 0.71752 0.0
H424 H 0.79369 0.03251 0.6193 0.0
H425 H 0.01155 0.07158 0.65547 0.0
H426 H 0.74363 0.0488 0.70166 0.0
H427 H 0.75936 0.97098 0.68975 0.0
H428 H 0.71624 0.02307 0.65738 0.0
H429 H 0.00091 0.10391 0.74368 0.0
H430 H 0.0586 0.09356 0.71386 0.0
H431 H 0.03186 0.02847 0.73569 0.0
C432 C 0.62961 0.46637 0.71818 0.0
C433 C 0.64489 0.51319 0.69703 0.0
C434 C 0.63706 0.47629 0.75376 0.0
C435 C 0.6588 0.53496 0.76827 0.0
C436 C 0.67708 0.58165 0.74716 0.0
C437 C 0.67038 0.56997 0.71165 0.0
C438 C 0.61839 0.42488 0.77553 0.0
C439 C 0.69954 0.64494 0.76161 0.0
C440 C 0.58282 0.56611 0.84705 0.0
C441 C 0.63823 0.54987 0.87375 0.0
C442 C 0.59073 0.5663 0.8127 0.0
C443 C 0.65515 0.54851 0.80471 0.0
C444 C 0.71267 0.53624 0.83159 0.0
C445 C 0.70371 0.53773 0.86587 0.0
C446 C 0.52844 0.581 0.78477 0.0
C447 C 0.78217 0.51705 0.82406 0.0
H448 H 0.61032 0.42238 0.70669 0.0
H449 H 0.68169 0.6062 0.69505 0.0
H450 H 0.6605 0.41837 0.79852 0.0
H451 H 0.57037 0.43715 0.78487 0.0
H452 H 0.60929 0.38043 0.76094 0.0
H453 H 0.72096 0.67305 0.74297 0.0
H454 H 0.65407 0.6695 0.76809 0.0
H455 H 0.73936 0.64154 0.78576 0.0
H456 H 0.53177 0.57497 0.85257 0.0
H457 H 0.74733 0.52664 0.88639 0.0
H458 H 0.50858 0.53797 0.77061 0.0
H459 H 0.54333 0.61289 0.76586 0.0
H460 H 0.48548 0.60222 0.7954 0.0
H461 H 0.77809 0.46928 0.81332 0.0
H462 H 0.82404 0.51832 0.84762 0.0
H463 H 0.79738 0.5472 0.80447 0.0
C464 C 0.49325 0.48206 0.29547 0.0
C465 C 0.44598 0.49886 0.31633 0.0
C466 C 0.476 0.4876 0.25959 0.0
C467 C 0.40874 0.50807 0.24385 0.0
C468 C 0.36002 0.52375 0.26445 0.0
C469 C 0.3796 0.52002 0.30048 0.0
C470 C 0.52992 0.4714 0.2385 0.0
C471 C 0.28709 0.54391 0.24843 0.0
C472 C 0.39315 0.56648 0.15301 0.0
C473 C 0.37647 0.51199 0.13338 0.0
C474 C 0.40125 0.56664 0.18903 0.0
C475 C 0.38972 0.51158 0.20571 0.0
C476 C 0.36713 0.45785 0.18591 0.0
C477 C 0.36211 0.45832 0.15013 0.0
C478 C 0.42671 0.62461 0.20934 0.0
C479 C 0.35212 0.3987 0.20267 0.0
H480 H 0.54393 0.46405 0.30708 0.0
H481 H 0.34285 0.53421 0.31614 0.0
H482 H 0.51211 0.43101 0.22145 0.0
H483 H 0.53684 0.51037 0.2217 0.0
H484 H 0.58129 0.4603 0.25489 0.0
H485 H 0.25475 0.55273 0.26802 0.0
H486 H 0.28889 0.58655 0.23359 0.0
H487 H 0.26121 0.5079 0.23 0.0
H488 H 0.4024 0.60869 0.1404 0.0
H489 H 0.35019 0.41552 0.13566 0.0
H490 H 0.48037 0.61714 0.22419 0.0
H491 H 0.39357 0.63577 0.22821 0.0
H492 H 0.42736 0.66489 0.19245 0.0
H493 H 0.40174 0.3779 0.21605 0.0
H494 H 0.32444 0.36449 0.18354 0.0
H495 H 0.3201 0.40795 0.22232 0.0
loop_
_geom_bond_atom_site_label_1
_geom_bond_atom_site_label_2
_geom_bond_distance
_geom_bond_site_symmetry_2
_ccdc_geom_bond_type
C0 O16 1.251 . S
C0 O18 1.254 1_554 S
N1 C2 1.333 1_445 S
N1 C6 1.307 . S
N1 Zn7 2.020 . S
C2 N1 1.333 1_665 S
C2 C3 1.379 . S
C2 H20 0.952 . S
C3 C2 1.379 . S
C3 C4 1.390 1_665 S
C3 H30 0.949 . S
C4 C3 1.390 1_445 S
C4 C5 1.357 . S
C5 C4 1.357 . S
C5 C6 1.370 . S
C5 H31 0.950 . S
C6 N1 1.307 . S
C6 C5 1.370 . S
C6 H24 0.948 . S
Zn7 N1 2.020 . S
Zn7 O16 2.039 1_445 S
Zn7 O22 2.034 1_455 S
Zn7 O26 2.025 . S
Zn7 O28 2.024 1_545 S
C8 O27 1.246 1_554 S
C8 O28 1.249 . S
N9 C10 1.318 1_545 S
N9 C11 1.319 1_655 S
N9 Zn15 2.022 1_655 S
C10 N9 1.318 1_565 S
C10 C14 1.370 . S
C10 H21 0.948 . S
C11 N9 1.319 1_455 S
C11 C12 1.379 . S
C11 H19 0.952 . S
C12 C11 1.379 . S
C12 C13 1.390 1_455 S
C12 H32 0.949 . S
C13 C12 1.390 1_655 S
C13 C14 1.357 1_545 S
C14 C10 1.370 . S
C14 C13 1.357 1_565 S
C14 H33 0.950 . S
Zn15 N9 2.022 1_455 S
Zn15 O18 2.025 1_445 S
Zn15 O23 2.024 1_455 S
Zn15 O25 2.039 . S
Zn15 O27 2.034 1_545 S
O16 C0 1.251 . S
O16 Zn7 2.039 1_665 S
C17 O22 1.246 . S
C17 O23 1.249 1_554 S
O18 C0 1.254 1_556 S
O18 Zn15 2.025 1_665 S
H19 C11 0.952 . S
H20 C2 0.952 . S
H21 C10 0.948 . S
O22 Zn7 2.034 1_655 S
O22 C17 1.246 . S
O23 Zn15 2.024 1_655 S
O23 C17 1.249 1_556 S
H24 C6 0.948 . S
O25 Zn15 2.039 . S
O25 C29 1.251 1_556 S
O26 Zn7 2.025 . S
O26 C29 1.254 . S
O27 C8 1.246 1_556 S
O27 Zn15 2.034 1_565 S
O28 Zn7 2.024 1_565 S
O28 C8 1.249 . S
C29 O25 1.251 1_554 S
C29 O26 1.254 . S
H30 C3 0.949 . S
H31 C5 0.950 . S
H32 C12 0.949 . S
H33 C14 0.950 . S
C34 O50 1.251 . S
C34 O52 1.254 . S
N35 C36 1.333 . S
N35 C40 1.307 . S
N35 Zn41 2.020 . S
C36 N35 1.333 . S
C36 C37 1.379 . S
C36 H54 0.952 . S
C37 C36 1.379 . S
C37 C38 1.390 . S
C37 H64 0.949 . S
C38 C37 1.390 . S
C38 C39 1.357 . S
C39 C38 1.357 . S
C39 C40 1.370 . S
C39 H65 0.950 . S
C40 N35 1.307 . S
C40 C39 1.370 . S
C40 H58 0.948 . S
Zn41 N35 2.020 . S
Zn41 O50 2.039 . S
Zn41 O56 2.034 . S
Zn41 O60 2.025 . S
Zn41 O62 2.024 . S
C42 O61 1.246 . S
C42 O62 1.249 . S
N43 C44 1.307 . S
N43 C45 1.333 . S
N43 Zn49 2.020 . S
C44 N43 1.307 . S
C44 C48 1.370 . S
C44 H55 0.948 . S
C45 N43 1.333 . S
C45 C46 1.379 . S
C45 H53 0.952 . S
C46 C45 1.379 . S
C46 C47 1.390 . S
C46 H66 0.949 . S
C47 C46 1.390 . S
C47 C48 1.357 . S
C48 C44 1.370 . S
C48 C47 1.357 . S
C48 H67 0.950 . S
Zn49 N43 2.020 . S
Zn49 O52 2.025 . S
Zn49 O57 2.024 . S
Zn49 O59 2.039 . S
Zn49 O61 2.034 . S
O50 C34 1.251 . S
O50 Zn41 2.039 . S
C51 O56 1.246 . S
C51 O57 1.249 . S
O52 C34 1.254 . S
O52 Zn49 2.025 . S
H53 C45 0.952 . S
H54 C36 0.952 . S
H55 C44 0.948 . S
O56 Zn41 2.034 . S
O56 C51 1.246 . S
O57 Zn49 2.024 . S
O57 C51 1.249 . S
H58 C40 0.948 . S
O59 Zn49 2.039 . S
O59 C63 1.251 . S
O60 Zn41 2.025 . S
O60 C63 1.254 . S
O61 C42 1.246 . S
O61 Zn49 2.034 . S
O62 Zn41 2.024 . S
O62 C42 1.249 . S
C63 O59 1.251 . S
C63 O60 1.254 . S
H64 C37 0.949 . S
H65 C39 0.950 . S
H66 C46 0.949 . S
H67 C48 0.950 . S
H68 C73 0.929 . S
H69 C78 0.931 . S
H70 C76 0.930 1_655 S
N71 N72 1.234 . S
N71 C75 1.453 1_655 S
N72 N71 1.234 . S
C73 H68 0.929 . S
C73 C74 1.373 . S
C73 C75 1.368 1_565 S
C74 C73 1.373 . S
C74 C78 1.397 . S
C75 N71 1.453 1_455 S
C75 C73 1.368 1_545 S
C75 C76 1.373 . S
C76 H70 0.930 1_455 S
C76 C75 1.373 . S
C76 C77 1.371 . S
C77 C76 1.371 . S
C77 C78 1.383 1_545 S
C78 H69 0.931 . S
C78 C74 1.397 . S
C78 C77 1.383 1_565 S
H79 C84 0.929 . S
H80 C89 0.931 . S
H81 C87 0.930 . S
N82 N83 1.234 . S
N82 C86 1.453 . S
N83 N82 1.234 . S
C84 H79 0.929 . S
C84 C85 1.373 . S
C84 C86 1.368 1_665 S
C85 C84 1.373 . S
C85 C89 1.397 . S
C86 N82 1.453 . S
C86 C84 1.368 1_445 S
C86 C87 1.373 . S
C87 H81 0.930 . S
C87 C86 1.373 . S
C87 C88 1.371 1_455 S
C88 C87 1.371 1_655 S
C88 C89 1.383 1_545 S
C89 H80 0.931 . S
C89 C85 1.397 . S
C89 C88 1.383 1_565 S
H90 C95 0.929 1_554 S
H91 C100 0.931 . S
H92 C98 0.930 . S
N93 N94 1.234 . S
N93 C97 1.453 . S
N94 N93 1.234 . S
C95 H90 0.929 1_556 S
C95 C96 1.373 . S
C95 C97 1.368 . S
C96 C95 1.373 . S
C96 C100 1.397 . S
C97 N93 1.453 . S
C97 C95 1.368 . S
C97 C98 1.373 . S
C98 H92 0.930 . S
C98 C97 1.373 . S
C98 C99 1.371 . S
C99 C98 1.371 . S
C99 C100 1.383 . S
C100 H91 0.931 . S
C100 C96 1.397 . S
C100 C99 1.383 . S
H101 C106 0.929 1_556 S
H102 C111 0.931 . S
H103 C109 0.930 . S
N104 N105 1.234 . S
N104 C108 1.453 . S
N105 N104 1.234 . S
C106 H101 0.929 1_554 S
C106 C107 1.373 . S
C106 C108 1.368 . S
C107 C106 1.373 . S
C107 C111 1.397 . S
C108 N104 1.453 . S
C108 C106 1.368 . S
C108 C109 1.373 . S
C109 H103 0.930 . S
C109 C108 1.373 . S
C109 C110 1.371 . S
C110 C109 1.371 . S
C110 C111 1.383 . S
C111 H102 0.931 . S
C111 C107 1.397 . S
C111 C110 1.383 . S
C112 C113 1.391 . S
C112 C114 1.394 . S
C112 H128 0.931 . S
C113 C112 1.391 . S
C113 C117 1.376 1_554 S
C114 C112 1.394 . S
C114 C115 1.369 . S
C114 C118 1.531 . S
C115 C114 1.369 . S
C115 C116 1.410 1_554 S
C115 C123 1.503 . S
C116 C115 1.410 1_556 S
C116 C117 1.392 . S
C116 C119 1.511 . S
C117 C113 1.376 1_556 S
C117 C116 1.392 . S
C117 H129 0.929 . S
C118 C114 1.531 . S
C118 H130 0.960 . S
C118 H131 0.962 . S
C118 H132 0.960 . S
C119 C116 1.511 . S
C119 H133 0.961 . S
C119 H134 0.961 . S
C119 H135 0.961 . S
C120 C121 1.370 . S
C120 C122 1.363 . S
C120 H136 0.931 . S
C121 C120 1.370 . S
C121 C125 1.408 1_554 S
C122 C120 1.363 . S
C122 C123 1.370 . S
C122 C126 1.524 . S
C123 C115 1.503 . S
C123 C122 1.370 . S
C123 C124 1.403 1_554 S
C124 C123 1.403 1_556 S
C124 C125 1.404 . S
C124 C127 1.539 . S
C125 C121 1.408 1_556 S
C125 C124 1.404 . S
C125 H137 0.930 . S
C126 C122 1.524 . S
C126 H138 0.956 . S
C126 H139 0.961 . S
C126 H140 0.961 . S
C127 C124 1.539 . S
C127 H141 0.958 . S
C127 H142 0.961 . S
C127 H143 0.960 . S
H128 C112 0.931 . S
H129 C117 0.929 . S
H130 C118 0.960 . S
H131 C118 0.962 . S
H132 C118 0.960 . S
H133 C119 0.961 . S
H134 C119 0.961 . S
H135 C119 0.961 . S
H136 C120 0.931 . S
H137 C125 0.930 . S
H138 C126 0.956 . S
H139 C126 0.961 . S
H140 C126 0.961 . S
H141 C127 0.958 . S
H142 C127 0.961 . S
H143 C127 0.960 . S
C144 C145 1.390 1_556 S
C144 C146 1.396 . S
C144 H160 0.929 . S
C145 C144 1.390 1_554 S
C145 C149 1.376 . S
C146 C144 1.396 . S
C146 C147 1.369 . S
C146 C150 1.531 . S
C147 C146 1.369 . S
C147 C148 1.410 1_556 S
C147 C155 1.503 . S
C148 C147 1.410 1_554 S
C148 C149 1.392 . S
C148 C151 1.511 . S
C149 C145 1.376 . S
C149 C148 1.392 . S
C149 H161 0.929 . S
C150 C146 1.531 . S
C150 H162 0.960 . S
C150 H163 0.962 1_556 S
C150 H164 0.960 . S
C151 C148 1.511 . S
C151 H165 0.961 . S
C151 H166 0.961 . S
C151 H167 0.961 1_554 S
C152 C153 1.370 1_554 S
C152 C154 1.363 . S
C152 H168 0.931 . S
C153 C152 1.370 1_556 S
C153 C157 1.408 . S
C154 C152 1.363 . S
C154 C155 1.370 1_554 S
C154 C158 1.524 . S
C155 C147 1.503 . S
C155 C154 1.370 1_556 S
C155 C156 1.403 . S
C156 C155 1.403 . S
C156 C157 1.404 . S
C156 C159 1.539 . S
C157 C153 1.408 . S
C157 C156 1.404 . S
C157 H169 0.930 . S
C158 C154 1.524 . S
C158 H170 0.956 . S
C158 H171 0.961 . S
C158 H172 0.961 . S
C159 C156 1.539 . S
C159 H173 0.958 . S
C159 H174 0.961 . S
C159 H175 0.960 . S
H160 C144 0.929 . S
H161 C149 0.929 . S
H162 C150 0.960 . S
H163 C150 0.962 1_554 S
H164 C150 0.960 . S
H165 C151 0.961 . S
H166 C151 0.961 . S
H167 C151 0.961 1_556 S
H168 C152 0.931 . S
H169 C157 0.930 . S
H170 C158 0.956 . S
H171 C158 0.961 . S
H172 C158 0.961 . S
H173 C159 0.958 . S
H174 C159 0.961 . S
H175 C159 0.960 . S
C176 C177 1.391 1_556 S
C176 C178 1.394 . S
C176 H192 0.931 . S
C177 C176 1.391 1_554 S
C177 C181 1.376 . S
C178 C176 1.394 . S
C178 C179 1.369 1_556 S
C178 C182 1.531 . S
C179 C178 1.369 1_554 S
C179 C180 1.410 . S
C179 C187 1.503 . S
C180 C179 1.410 . S
C180 C181 1.392 . S
C180 C183 1.511 . S
C181 C177 1.376 . S
C181 C180 1.392 . S
C181 H193 0.929 . S
C182 C178 1.531 . S
C182 H194 0.960 . S
C182 H195 0.962 . S
C182 H196 0.960 . S
C183 C180 1.511 . S
C183 H197 0.961 . S
C183 H198 0.961 . S
C183 H199 0.961 . S
C184 C185 1.370 . S
C184 C186 1.363 . S
C184 H200 0.931 . S
C185 C184 1.370 . S
C185 C189 1.408 . S
C186 C184 1.363 . S
C186 C187 1.370 . S
C186 C190 1.524 . S
C187 C179 1.503 . S
C187 C186 1.370 . S
C187 C188 1.403 . S
C188 C187 1.403 . S
C188 C189 1.404 . S
C188 C191 1.539 1_554 S
C189 C185 1.408 . S
C189 C188 1.404 . S
C189 H201 0.930 . S
C190 C186 1.524 . S
C190 H202 0.956 . S
C190 H203 0.961 . S
C190 H204 0.961 . S
C191 C188 1.539 1_556 S
C191 H205 0.958 . S
C191 H206 0.961 1_556 S
C191 H207 0.960 1_556 S
H192 C176 0.931 . S
H193 C181 0.929 . S
H194 C182 0.960 . S
H195 C182 0.962 . S
H196 C182 0.960 . S
H197 C183 0.961 . S
H198 C183 0.961 . S
H199 C183 0.961 . S
H200 C184 0.931 . S
H201 C189 0.930 . S
H202 C190 0.956 . S
H203 C190 0.961 . S
H204 C190 0.961 . S
H205 C191 0.958 . S
H206 C191 0.961 1_554 S
H207 C191 0.960 1_554 S
C208 C209 1.391 . S
C208 C210 1.394 . S
C208 H224 0.931 . S
C209 C208 1.391 . S
C209 C213 1.376 . S
C210 C208 1.394 . S
C210 C211 1.369 . S
C210 C214 1.531 . S
C211 C210 1.369 . S
C211 C212 1.410 . S
C211 C219 1.503 . S
C212 C211 1.410 . S
C212 C213 1.392 . S
C212 C215 1.511 . S
C213 C209 1.376 . S
C213 C212 1.392 . S
C213 H225 0.929 1_556 S
C214 C210 1.531 . S
C214 H226 0.960 . S
C214 H227 0.962 1_556 S
C214 H228 0.960 . S
C215 C212 1.511 . S
C215 H229 0.961 1_556 S
C215 H230 0.956 1_556 S
C215 H231 0.961 . S
C216 C217 1.370 1_554 S
C216 C218 1.363 . S
C216 H232 0.931 . S
C217 C216 1.370 1_556 S
C217 C221 1.408 . S
C218 C216 1.363 . S
C218 C219 1.370 1_554 S
C218 C222 1.524 . S
C219 C211 1.503 . S
C219 C218 1.370 1_556 S
C219 C220 1.403 . S
C220 C219 1.403 . S
C220 C221 1.404 . S
C220 C223 1.539 . S
C221 C217 1.408 . S
C221 C220 1.404 . S
C221 H233 0.930 . S
C222 C218 1.524 . S
C222 H234 0.956 . S
C222 H235 0.961 . S
C222 H236 0.961 . S
C223 C220 1.539 . S
C223 H237 0.958 . S
C223 H238 0.961 . S
C223 H239 0.960 . S
H224 C208 0.931 . S
H225 C213 0.929 1_554 S
H226 C214 0.960 . S
H227 C214 0.962 1_554 S
H228 C214 0.960 . S
H229 C215 0.961 1_554 S
H230 C215 0.956 1_554 S
H231 C215 0.961 . S
H232 C216 0.931 . S
H233 C221 0.930 . S
H234 C222 0.956 . S
H235 C222 0.961 . S
H236 C222 0.961 . S
H237 C223 0.958 . S
H238 C223 0.961 . S
H239 C223 0.960 . S
C240 C241 1.391 . S
C240 C242 1.394 . S
C240 H256 0.931 . S
C241 C240 1.391 . S
C241 C245 1.376 . S
C242 C240 1.394 . S
C242 C243 1.369 . S
C242 C246 1.531 . S
C243 C242 1.369 . S
C243 C244 1.410 . S
C243 C251 1.503 . S
C244 C243 1.410 . S
C244 C245 1.392 . S
C244 C247 1.511 . S
C245 C241 1.376 . S
C245 C244 1.392 . S
C245 H257 0.929 . S
C246 C242 1.531 . S
C246 H258 0.960 . S
C246 H259 0.962 . S
C246 H260 0.960 . S
C247 C244 1.511 . S
C247 H261 0.961 . S
C247 H262 0.961 . S
C247 H263 0.961 . S
C248 C249 1.370 . S
C248 C250 1.363 . S
C248 H264 0.931 . S
C249 C248 1.370 . S
C249 C253 1.408 . S
C250 C248 1.363 . S
C250 C251 1.370 . S
C250 C254 1.524 . S
C251 C243 1.503 . S
C251 C250 1.370 . S
C251 C252 1.403 . S
C252 C251 1.403 . S
C252 C253 1.404 . S
C252 C255 1.539 . S
C253 C249 1.408 . S
C253 C252 1.404 . S
C253 H265 0.930 . S
C254 C250 1.524 . S
C254 H266 0.956 . S
C254 H267 0.961 . S
C254 H268 0.961 . S
C255 C252 1.539 . S
C255 H269 0.958 . S
C255 H270 0.961 . S
C255 H271 0.960 . S
H256 C240 0.931 . S
H257 C245 0.929 . S
H258 C246 0.960 . S
H259 C246 0.962 . S
H260 C246 0.960 . S
H261 C247 0.961 . S
H262 C247 0.961 . S
H263 C247 0.961 . S
H264 C248 0.931 . S
H265 C253 0.930 . S
H266 C254 0.956 . S
H267 C254 0.961 . S
H268 C254 0.961 . S
H269 C255 0.958 . S
H270 C255 0.961 . S
H271 C255 0.960 . S
C272 C273 1.391 . S
C272 C274 1.394 . S
C272 H288 0.931 . S
C273 C272 1.391 . S
C273 C277 1.376 . S
C274 C272 1.394 . S
C274 C275 1.369 . S
C274 C278 1.531 . S
C275 C274 1.369 . S
C275 C276 1.410 . S
C275 C283 1.503 . S
C276 C275 1.410 . S
C276 C277 1.392 . S
C276 C279 1.511 . S
C277 C273 1.376 . S
C277 C276 1.392 . S
C277 H289 0.929 . S
C278 C274 1.531 . S
C278 H290 0.960 . S
C278 H291 0.962 . S
C278 H292 0.960 . S
C279 C276 1.511 . S
C279 H293 0.961 . S
C279 H294 0.961 . S
C279 H295 0.961 . S
C280 C281 1.370 . S
C280 C282 1.363 . S
C280 H296 0.931 . S
C281 C280 1.370 . S
C281 C285 1.408 . S
C282 C280 1.363 . S
C282 C283 1.370 . S
C282 C286 1.524 . S
C283 C275 1.503 . S
C283 C282 1.370 . S
C283 C284 1.403 . S
C284 C283 1.403 . S
C284 C285 1.404 . S
C284 C287 1.539 . S
C285 C281 1.408 . S
C285 C284 1.404 . S
C285 H297 0.930 . S
C286 C282 1.524 . S
C286 H298 0.956 . S
C286 H299 0.961 . S
C286 H300 0.961 . S
C287 C284 1.539 . S
C287 H301 0.958 . S
C287 H302 0.961 . S
C287 H303 0.960 . S
H288 C272 0.931 . S
H289 C277 0.929 . S
H290 C278 0.960 . S
H291 C278 0.962 . S
H292 C278 0.960 . S
H293 C279 0.961 . S
H294 C279 0.961 . S
H295 C279 0.961 . S
H296 C280 0.931 . S
H297 C285 0.930 . S
H298 C286 0.956 . S
H299 C286 0.961 . S
H300 C286 0.961 . S
H301 C287 0.958 . S
H302 C287 0.961 . S
H303 C287 0.960 . S
C304 C305 1.391 . S
C304 C306 1.394 . S
C304 H320 0.931 . S
C305 C304 1.391 . S
C305 C309 1.376 . S
C306 C304 1.394 . S
C306 C307 1.369 . S
C306 C310 1.531 . S
C307 C306 1.369 . S
C307 C308 1.410 . S
C307 C315 1.503 . S
C308 C307 1.410 . S
C308 C309 1.392 . S
C308 C311 1.511 . S
C309 C305 1.376 . S
C309 C308 1.392 . S
C309 H321 0.929 . S
C310 C306 1.531 . S
C310 H322 0.960 . S
C310 H323 0.962 . S
C310 H324 0.960 . S
C311 C308 1.511 . S
C311 H325 0.961 . S
C311 H326 0.961 . S
C311 H327 0.961 . S
C312 C313 1.370 . S
C312 C314 1.363 . S
C312 H328 0.931 . S
C313 C312 1.370 . S
C313 C317 1.408 . S
C314 C312 1.363 . S
C314 C315 1.370 . S
C314 C318 1.524 . S
C315 C307 1.503 . S
C315 C314 1.370 . S
C315 C316 1.403 . S
C316 C315 1.403 . S
C316 C317 1.404 . S
C316 C319 1.539 . S
C317 C313 1.408 . S
C317 C316 1.404 . S
C317 H329 0.930 . S
C318 C314 1.524 . S
C318 H330 0.956 . S
C318 H331 0.961 . S
C318 H332 0.961 . S
C319 C316 1.539 . S
C319 H333 0.958 . S
C319 H334 0.961 . S
C319 H335 0.960 . S
H320 C304 0.931 . S
H321 C309 0.929 . S
H322 C310 0.960 . S
H323 C310 0.962 . S
H324 C310 0.960 . S
H325 C311 0.961 . S
H326 C311 0.961 . S
H327 C311 0.961 . S
H328 C312 0.931 . S
H329 C317 0.930 . S
H330 C318 0.956 . S
H331 C318 0.961 . S
H332 C318 0.961 . S
H333 C319 0.958 . S
H334 C319 0.961 . S
H335 C319 0.960 . S
C336 C337 1.391 . S
C336 C338 1.394 . S
C336 H352 0.931 . S
C337 C336 1.391 . S
C337 C341 1.376 . S
C338 C336 1.394 . S
C338 C339 1.369 . S
C338 C342 1.531 . S
C339 C338 1.369 . S
C339 C340 1.410 . S
C339 C347 1.503 . S
C340 C339 1.410 . S
C340 C341 1.392 . S
C340 C343 1.511 . S
C341 C337 1.376 . S
C341 C340 1.392 . S
C341 H353 0.929 . S
C342 C338 1.531 . S
C342 H354 0.960 . S
C342 H355 0.962 . S
C342 H356 0.960 . S
C343 C340 1.511 . S
C343 H357 0.961 . S
C343 H358 0.961 . S
C343 H359 0.961 . S
C344 C345 1.370 . S
C344 C346 1.363 . S
C344 H360 0.931 . S
C345 C344 1.370 . S
C345 C349 1.408 . S
C346 C344 1.363 . S
C346 C347 1.370 . S
C346 C350 1.524 . S
C347 C339 1.503 . S
C347 C346 1.370 . S
C347 C348 1.403 . S
C348 C347 1.403 . S
C348 C349 1.404 . S
C348 C351 1.539 . S
C349 C345 1.408 . S
C349 C348 1.404 . S
C349 H361 0.930 . S
C350 C346 1.524 . S
C350 H362 0.956 . S
C350 H363 0.961 . S
C350 H364 0.961 . S
C351 C348 1.539 . S
C351 H365 0.958 . S
C351 H366 0.961 . S
C351 H367 0.960 . S
H352 C336 0.931 . S
H353 C341 0.929 . S
H354 C342 0.960 . S
H355 C342 0.962 . S
H356 C342 0.960 . S
H357 C343 0.961 . S
H358 C343 0.961 . S
H359 C343 0.961 . S
H360 C344 0.931 . S
H361 C349 0.930 . S
H362 C350 0.956 . S
H363 C350 0.961 . S
H364 C350 0.961 . S
H365 C351 0.958 . S
H366 C351 0.961 . S
H367 C351 0.960 . S
C368 C369 1.391 . S
C368 C370 1.394 . S
C368 H384 0.931 1_455 S
C369 C368 1.391 . S
C369 C373 1.376 1_545 S
C370 C368 1.394 . S
C370 C371 1.369 . S
C370 C374 1.531 1_455 S
C371 C370 1.369 . S
C371 C372 1.410 1_545 S
C371 C379 1.503 . S
C372 C371 1.410 1_565 S
C372 C373 1.392 . S
C372 C375 1.511 . S
C373 C369 1.376 1_565 S
C373 C372 1.392 . S
C373 H385 0.929 . S
C374 C370 1.531 1_655 S
C374 H386 0.960 . S
C374 H387 0.962 1_655 S
C374 H388 0.960 . S
C375 C372 1.511 . S
C375 H389 0.961 . S
C375 H390 0.961 . S
C375 H391 0.961 . S
C376 C377 1.370 . S
C376 C378 1.363 . S
C376 H392 0.931 . S
C377 C376 1.370 . S
C377 C381 1.408 1_445 S
C378 C376 1.363 . S
C378 C379 1.370 . S
C378 C382 1.524 . S
C379 C371 1.503 . S
C379 C378 1.370 . S
C379 C380 1.403 1_445 S
C380 C379 1.403 1_665 S
C380 C381 1.404 . S
C380 C383 1.539 . S
C381 C377 1.408 1_665 S
C381 C380 1.404 . S
C381 H393 0.930 . S
C382 C378 1.524 . S
C382 H394 0.956 . S
C382 H395 0.961 . S
C382 H396 0.961 . S
C383 C380 1.539 . S
C383 H397 0.958 . S
C383 H398 0.961 . S
C383 H399 0.960 . S
H384 C368 0.931 1_655 S
H385 C373 0.929 . S
H386 C374 0.960 . S
H387 C374 0.962 1_455 S
H388 C374 0.960 . S
H389 C375 0.961 . S
H390 C375 0.961 . S
H391 C375 0.961 . S
H392 C376 0.931 . S
H393 C381 0.930 . S
H394 C382 0.956 . S
H395 C382 0.961 . S
H396 C382 0.961 . S
H397 C383 0.958 . S
H398 C383 0.961 . S
H399 C383 0.960 . S
C400 C401 1.391 . S
C400 C402 1.394 . S
C400 H416 0.931 . S
C401 C400 1.391 . S
C401 C405 1.376 1_645 S
C402 C400 1.394 . S
C402 C403 1.369 1_655 S
C402 C406 1.531 . S
C403 C402 1.369 1_455 S
C403 C404 1.410 1_545 S
C403 C411 1.503 . S
C404 C403 1.410 1_565 S
C404 C405 1.392 . S
C404 C407 1.511 . S
C405 C401 1.376 1_465 S
C405 C404 1.392 . S
C405 H417 0.929 . S
C406 C402 1.531 . S
C406 H418 0.960 . S
C406 H419 0.962 . S
C406 H420 0.960 . S
C407 C404 1.511 . S
C407 H421 0.961 . S
C407 H422 0.961 . S
C407 H423 0.961 . S
C408 C409 1.370 1_565 S
C408 C410 1.363 . S
C408 H424 0.931 . S
C409 C408 1.370 1_545 S
C409 C413 1.408 1_655 S
C410 C408 1.363 . S
C410 C411 1.370 1_665 S
C410 C414 1.524 . S
C411 C403 1.503 . S
C411 C410 1.370 1_445 S
C411 C412 1.403 . S
C412 C411 1.403 . S
C412 C413 1.404 . S
C412 C415 1.539 . S
C413 C409 1.408 1_455 S
C413 C412 1.404 . S
C413 H425 0.930 . S
C414 C410 1.524 . S
C414 H426 0.956 . S
C414 H427 0.961 . S
C414 H428 0.961 . S
C415 C412 1.539 . S
C415 H429 0.958 . S
C415 H430 0.961 . S
C415 H431 0.960 . S
H416 C400 0.931 . S
H417 C405 0.929 . S
H418 C406 0.960 . S
H419 C406 0.962 . S
H420 C406 0.960 . S
H421 C407 0.961 . S
H422 C407 0.961 . S
H423 C407 0.961 . S
H424 C408 0.931 . S
H425 C413 0.930 . S
H426 C414 0.956 . S
H427 C414 0.961 . S
H428 C414 0.961 . S
H429 C415 0.958 . S
H430 C415 0.961 . S
H431 C415 0.960 . S
C432 C433 1.391 . S
C432 C434 1.394 . S
C432 H448 0.931 . S
C433 C432 1.391 . S
C433 C437 1.376 . S
C434 C432 1.394 . S
C434 C435 1.369 . S
C434 C438 1.531 . S
C435 C434 1.369 . S
C435 C436 1.410 . S
C435 C443 1.503 . S
C436 C435 1.410 . S
C436 C437 1.392 . S
C436 C439 1.511 . S
C437 C433 1.376 . S
C437 C436 1.392 . S
C437 H449 0.929 . S
C438 C434 1.531 . S
C438 H450 0.960 . S
C438 H451 0.962 . S
C438 H452 0.960 . S
C439 C436 1.511 . S
C439 H453 0.961 . S
C439 H454 0.961 . S
C439 H455 0.961 . S
C440 C441 1.370 . S
C440 C442 1.363 . S
C440 H456 0.931 . S
C441 C440 1.370 . S
C441 C445 1.408 . S
C442 C440 1.363 . S
C442 C443 1.370 . S
C442 C446 1.524 . S
C443 C435 1.503 . S
C443 C442 1.370 . S
C443 C444 1.403 . S
C444 C443 1.403 . S
C444 C445 1.404 . S
C444 C447 1.539 . S
C445 C441 1.408 . S
C445 C444 1.404 . S
C445 H457 0.930 . S
C446 C442 1.524 . S
C446 H458 0.956 . S
C446 H459 0.961 . S
C446 H460 0.961 . S
C447 C444 1.539 . S
C447 H461 0.958 . S
C447 H462 0.961 . S
C447 H463 0.960 . S
H448 C432 0.931 . S
H449 C437 0.929 . S
H450 C438 0.960 . S
H451 C438 0.962 . S
H452 C438 0.960 . S
H453 C439 0.961 . S
H454 C439 0.961 . S
H455 C439 0.961 . S
H456 C440 0.931 . S
H457 C445 0.930 . S
H458 C446 0.956 . S
H459 C446 0.961 . S
H460 C446 0.961 . S
H461 C447 0.958 . S
H462 C447 0.961 . S
H463 C447 0.960 . S
C464 C465 1.391 . S
C464 C466 1.394 . S
C464 H480 0.931 . S
C465 C464 1.391 . S
C465 C469 1.376 . S
C466 C464 1.394 . S
C466 C467 1.369 . S
C466 C470 1.531 . S
C467 C466 1.369 . S
C467 C468 1.410 . S
C467 C475 1.503 . S
C468 C467 1.410 . S
C468 C469 1.392 . S
C468 C471 1.511 . S
C469 C465 1.376 . S
C469 C468 1.392 . S
C469 H481 0.929 . S
C470 C466 1.531 . S
C470 H482 0.960 . S
C470 H483 0.962 . S
C470 H484 0.960 . S
C471 C468 1.511 . S
C471 H485 0.961 . S
C471 H486 0.961 . S
C471 H487 0.961 . S
C472 C473 1.370 . S
C472 C474 1.363 . S
C472 H488 0.931 . S
C473 C472 1.370 . S
C473 C477 1.408 . S
C474 C472 1.363 . S
C474 C475 1.370 . S
C474 C478 1.524 . S
C475 C467 1.503 . S
C475 C474 1.370 . S
C475 C476 1.403 . S
C476 C475 1.403 . S
C476 C477 1.404 . S
C476 C479 1.539 . S
C477 C473 1.408 . S
C477 C476 1.404 . S
C477 H489 0.930 . S
C478 C474 1.524 . S
C478 H490 0.956 . S
C478 H491 0.961 . S
C478 H492 0.961 . S
C479 C476 1.539 . S
C479 H493 0.958 . S
C479 H494 0.961 . S
C479 H495 0.960 . S
H480 C464 0.931 . S
H481 C469 0.929 . S
H482 C470 0.960 . S
H483 C470 0.962 . S
H484 C470 0.960 . S
H485 C471 0.961 . S
H486 C471 0.961 . S
H487 C471 0.961 . S
H488 C472 0.931 . S
H489 C477 0.930 . S
H490 C478 0.956 . S
H491 C478 0.961 . S
H492 C478 0.961 . S
H493 C479 0.958 . S
H494 C479 0.961 . S
H495 C479 0.960 . S
C121 C107 1.462 . S
C113 C29 1.483 . S
C145 C8 1.395 . S
C153 N94 1.341 . S
C177 C0 1.412 . S
C185 N105 1.365 . S
C209 C17 1.475 1_556 S
C217 C96 1.449 . S
C241 C63 1.483 . S
C249 C85 1.463 . S
C273 C42 1.390 . S
C281 N72 1.351 . S
C313 N83 1.355 . S
C305 C34 1.399 . S
C345 C74 1.460 . S
C337 C51 1.478 . S
C369 C4 1.512 . S
C377 C77 1.509 . S
C401 C13 1.507 . S
C409 C88 1.506 . S
C441 C99 1.507 . S
C433 C38 1.513 . S
C465 C47 1.500 . S
C473 C110 1.497 . S
