# Generated by pormake.
# Topology pyr, (3,6)-cn, num edge types: 1
# Building blocks:
#     Node 0, Type 0, BuildingBlock: VETTIZ_charged_linker_0, # of connection points: 3
#     Node 1, Type 0, BuildingBlock: VETTIZ_charged_linker_0, # of connection points: 3
#     Node 2, Type 0, BuildingBlock: VETTIZ_charged_linker_0, # of connection points: 3
#     Node 3, Type 0, BuildingBlock: VETTIZ_charged_linker_0, # of connection points: 3
#     Node 4, Type 0, BuildingBlock: VETTIZ_charged_linker_0, # of connection points: 3
#     Node 5, Type 0, BuildingBlock: VETTIZ_charged_linker_0, # of connection points: 3
#     Node 6, Type 0, BuildingBlock: VETTIZ_charged_linker_0, # of connection points: 3
#     Node 7, Type 0, BuildingBlock: VETTIZ_charged_linker_0, # of connection points: 3
#     Node 8, Type 1, BuildingBlock: BETDIP_clean_sbu_0, # of connection points: 6
#     Node 9, Type 1, BuildingBlock: BETDIP_clean_sbu_0, # of connection points: 6
#     Node 10, Type 1, BuildingBlock: BETDIP_clean_sbu_0, # of connection points: 6
#     Node 11, Type 1, BuildingBlock: BETDIP_clean_sbu_0, # of connection points: 6
#     Edge 12, Type (0, 1), BuildingBlock: XIVTED_clean_linker_0, # of connection points: 2
#     Edge 13, Type (0, 1), BuildingBlock: XIVTED_clean_linker_0, # of connection points: 2
#     Edge 14, Type (0, 1), BuildingBlock: XIVTED_clean_linker_0, # of connection points: 2
#     Edge 15, Type (0, 1), BuildingBlock: XIVTED_clean_linker_0, # of connection points: 2
#     Edge 16, Type (0, 1), BuildingBlock: XIVTED_clean_linker_0, # of connection points: 2
#     Edge 17, Type (0, 1), BuildingBlock: XIVTED_clean_linker_0, # of connection points: 2
#     Edge 18, Type (0, 1), BuildingBlock: XIVTED_clean_linker_0, # of connection points: 2
#     Edge 19, Type (0, 1), BuildingBlock: XIVTED_clean_linker_0, # of connection points: 2
#     Edge 20, Type (0, 1), BuildingBlock: XIVTED_clean_linker_0, # of connection points: 2
#     Edge 21, Type (0, 1), BuildingBlock: XIVTED_clean_linker_0, # of connection points: 2
#     Edge 22, Type (0, 1), BuildingBlock: XIVTED_clean_linker_0, # of connection points: 2
#     Edge 23, Type (0, 1), BuildingBlock: XIVTED_clean_linker_0, # of connection points: 2
#     Edge 24, Type (0, 1), BuildingBlock: XIVTED_clean_linker_0, # of connection points: 2
#     Edge 25, Type (0, 1), BuildingBlock: XIVTED_clean_linker_0, # of connection points: 2
#     Edge 26, Type (0, 1), BuildingBlock: XIVTED_clean_linker_0, # of connection points: 2
#     Edge 27, Type (0, 1), BuildingBlock: XIVTED_clean_linker_0, # of connection points: 2
#     Edge 28, Type (0, 1), BuildingBlock: XIVTED_clean_linker_0, # of connection points: 2
#     Edge 29, Type (0, 1), BuildingBlock: XIVTED_clean_linker_0, # of connection points: 2
#     Edge 30, Type (0, 1), BuildingBlock: XIVTED_clean_linker_0, # of connection points: 2
#     Edge 31, Type (0, 1), BuildingBlock: XIVTED_clean_linker_0, # of connection points: 2
#     Edge 32, Type (0, 1), BuildingBlock: XIVTED_clean_linker_0, # of connection points: 2
#     Edge 33, Type (0, 1), BuildingBlock: XIVTED_clean_linker_0, # of connection points: 2
#     Edge 34, Type (0, 1), BuildingBlock: XIVTED_clean_linker_0, # of connection points: 2
#     Edge 35, Type (0, 1), BuildingBlock: XIVTED_clean_linker_0, # of connection points: 2
# Relax obj value: 0.120
# Max RMSD: 0.193
# Mean RMSD: 0.087
data_MOF--net-pyr--node1-BETDIP_clean_sbu_0--node2-VETTIZ_charged_linker_0--edge1-XIVTED_clean_linker_0
_symmetry_space_group_name_H-M    P1
_symmetry_Int_Tables_number       1
_symmetry_cell_setting            triclinic
loop_
_symmetry_equiv_pos_as_xyz
'x, y, z'
_cell_length_a     45.570722
_cell_length_b     46.631683
_cell_length_c     44.474231
_cell_angle_alpha  89.425595
_cell_angle_beta   92.888678
_cell_angle_gamma 101.00653
loop_
_atom_site_label
_atom_site_type_symbol
_atom_site_fract_x
_atom_site_fract_y
_atom_site_fract_z
_atom_type_partial_charge
C0 C 0.28367 0.25511 0.35756 0.0
C1 C 0.2606 0.26751 0.3688 0.0
C2 C 0.25349 0.29276 0.35483 0.0
C3 C 0.28932 0.29052 0.3169 0.0
C4 C 0.29763 0.26688 0.33164 0.0
C5 C 0.32079 0.2549 0.31529 0.0
H6 H 0.3924 0.24702 0.18739 0.0
C7 C 0.3053 0.29507 0.28864 0.0
C8 C 0.32397 0.27447 0.28764 0.0
H9 H 0.39879 0.19832 0.26996 0.0
H10 H 0.36804 0.22707 0.29406 0.0
H11 H 0.39856 0.31263 0.22159 0.0
H12 H 0.32486 0.24696 0.18766 0.0
H13 H 0.31578 0.28114 0.17922 0.0
H14 H 0.34792 0.27118 0.163 0.0
H15 H 0.39116 0.3047 0.1822 0.0
H16 H 0.37291 0.33003 0.20098 0.0
C17 C 0.35005 0.25928 0.33549 0.0
C18 C 0.30762 0.22263 0.30705 0.0
C19 C 0.27619 0.36682 0.21191 0.0
C20 C 0.28223 0.37211 0.18151 0.0
C21 C 0.3028 0.35772 0.16818 0.0
C22 C 0.31694 0.33807 0.18497 0.0
C23 C 0.30987 0.33231 0.21518 0.0
C24 C 0.28986 0.34674 0.2281 0.0
C25 C 0.28289 0.33632 0.25945 0.0
C26 C 0.30246 0.31358 0.26359 0.0
C27 C 0.31834 0.31137 0.23771 0.0
C28 C 0.2931 0.36238 0.28128 0.0
C29 C 0.24898 0.32269 0.25959 0.0
C30 C 0.38766 0.24297 0.21084 0.0
C31 C 0.39772 0.22014 0.2267 0.0
C32 C 0.39084 0.21542 0.25712 0.0
C33 C 0.373 0.23214 0.27108 0.0
C34 C 0.3616 0.25365 0.25442 0.0
C35 C 0.36968 0.25942 0.22512 0.0
C36 C 0.35546 0.28326 0.21107 0.0
C37 C 0.3375 0.29071 0.23677 0.0
C38 C 0.34081 0.27289 0.26189 0.0
C39 C 0.38069 0.30907 0.20328 0.0
C40 C 0.33505 0.27025 0.18366 0.0
H41 H 0.26084 0.32316 0.31904 0.0
H42 H 0.28961 0.23565 0.36767 0.0
H43 H 0.28391 0.22028 0.29851 0.0
H44 H 0.31922 0.2141 0.28898 0.0
H45 H 0.30816 0.20823 0.32703 0.0
H46 H 0.35157 0.27798 0.35121 0.0
H47 H 0.35137 0.23956 0.34932 0.0
H48 H 0.37033 0.26486 0.3223 0.0
H49 H 0.25979 0.37688 0.22249 0.0
H50 H 0.3076 0.36141 0.14469 0.0
H51 H 0.3322 0.32755 0.17358 0.0
H52 H 0.31462 0.37591 0.27454 0.0
H53 H 0.27627 0.37676 0.28124 0.0
H54 H 0.29756 0.35543 0.30461 0.0
H55 H 0.24014 0.314 0.23703 0.0
H56 H 0.24408 0.3036 0.27467 0.0
H57 H 0.23564 0.3391 0.26593 0.0
H58 H 0.23625 0.3031 0.3634 0.0
C59 C 0.26781 0.30438 0.32906 0.0
C60 C 0.10067 0.81938 0.71105 0.0
C61 C 0.08467 0.83892 0.7237 0.0
C62 C 0.08248 0.83928 0.75519 0.0
C63 C 0.11456 0.80355 0.761 0.0
C64 C 0.11516 0.80175 0.73008 0.0
C65 C 0.1338 0.78031 0.72058 0.0
H66 H 0.23101 0.69182 0.76018 0.0
C67 C 0.13373 0.78418 0.77449 0.0
C68 C 0.14443 0.7698 0.75096 0.0
H69 H 0.20295 0.71554 0.67043 0.0
H70 H 0.16757 0.74133 0.69118 0.0
H71 H 0.24255 0.747 0.78484 0.0
H72 H 0.16278 0.68304 0.79082 0.0
H73 H 0.17212 0.69902 0.82673 0.0
H74 H 0.19872 0.68165 0.80869 0.0
H75 H 0.23678 0.72419 0.81735 0.0
H76 H 0.22599 0.75945 0.81559 0.0
C77 C 0.16003 0.79727 0.70277 0.0
C78 C 0.11313 0.75543 0.70264 0.0
C79 C 0.17193 0.79888 0.88302 0.0
C80 C 0.19437 0.78775 0.8996 0.0
C81 C 0.203 0.76221 0.8895 0.0
C82 C 0.19205 0.75001 0.86153 0.0
C83 C 0.17262 0.76373 0.84345 0.0
C84 C 0.16148 0.78668 0.85493 0.0
C85 C 0.1411 0.79854 0.83235 0.0
C86 C 0.14406 0.78056 0.80468 0.0
C87 C 0.16285 0.76051 0.8113 0.0
C88 C 0.15378 0.8315 0.82774 0.0
C89 C 0.10887 0.79193 0.8437 0.0
C90 C 0.21726 0.70248 0.74486 0.0
C91 C 0.22021 0.7018 0.71356 0.0
C92 C 0.20121 0.71549 0.69462 0.0
C93 C 0.18085 0.7308 0.70674 0.0
C94 C 0.17976 0.73292 0.73817 0.0
C95 C 0.19748 0.71848 0.75662 0.0
C96 C 0.19509 0.72462 0.78941 0.0
C97 C 0.17301 0.74526 0.78765 0.0
C98 C 0.16395 0.74993 0.75762 0.0
C99 C 0.22658 0.73942 0.80266 0.0
C100 C 0.18164 0.6956 0.80497 0.0
H101 H 0.09531 0.82331 0.79767 0.0
H102 H 0.10226 0.81816 0.6869 0.0
H103 H 0.09081 0.74989 0.71257 0.0
H104 H 0.12174 0.73483 0.70318 0.0
H105 H 0.10955 0.76192 0.67884 0.0
H106 H 0.16805 0.81953 0.71227 0.0
H107 H 0.153 0.79981 0.67876 0.0
H108 H 0.17995 0.78701 0.70396 0.0
H109 H 0.16455 0.81818 0.89067 0.0
H110 H 0.22013 0.75313 0.90195 0.0
H111 H 0.20059 0.73151 0.85421 0.0
H112 H 0.17827 0.83515 0.82454 0.0
H113 H 0.15013 0.84442 0.84759 0.0
H114 H 0.14387 0.84086 0.80777 0.0
H115 H 0.1059 0.77383 0.86044 0.0
H116 H 0.0919 0.78441 0.82531 0.0
H117 H 0.10326 0.81135 0.85468 0.0
H118 H 0.07035 0.85411 0.76553 0.0
C119 C 0.09718 0.82158 0.77386 0.0
C120 C 0.59734 0.27785 0.93711 0.0
C121 C 0.57104 0.26064 0.9243 0.0
C122 C 0.55789 0.271 0.89785 0.0
C123 C 0.59719 0.31448 0.8977 0.0
C124 C 0.60998 0.30422 0.92349 0.0
C125 C 0.63821 0.32424 0.9344 0.0
H126 H 0.74049 0.44846 0.92059 0.0
C127 C 0.61639 0.34274 0.88943 0.0
C128 C 0.64052 0.34824 0.91093 0.0
H129 H 0.73768 0.38117 0.98866 0.0
H130 H 0.69269 0.35394 0.96487 0.0
H131 H 0.66883 0.44862 0.91788 0.0
H132 H 0.72409 0.40556 0.8652 0.0
H133 H 0.69606 0.41422 0.84017 0.0
H134 H 0.72199 0.44324 0.85935 0.0
H135 H 0.69551 0.46756 0.89267 0.0
H136 H 0.65781 0.45201 0.87976 0.0
C137 C 0.63317 0.33549 0.96609 0.0
C138 C 0.66433 0.30729 0.93331 0.0
C139 C 0.58787 0.40347 0.79959 0.0
C140 C 0.60204 0.43032 0.78718 0.0
C141 C 0.63032 0.4438 0.79981 0.0
C142 C 0.6436 0.43177 0.82472 0.0
C143 C 0.6288 0.40566 0.83743 0.0
C144 C 0.6017 0.39154 0.82459 0.0
C145 C 0.59018 0.36317 0.84066 0.0
C146 C 0.61438 0.36324 0.86567 0.0
C147 C 0.63685 0.38841 0.86364 0.0
C148 C 0.5596 0.36491 0.85331 0.0
C149 C 0.58897 0.33776 0.81827 0.0
C150 C 0.73025 0.42777 0.93024 0.0
C151 C 0.74265 0.41721 0.95684 0.0
C152 C 0.7284 0.39021 0.96863 0.0
C153 C 0.70227 0.37424 0.9546 0.0
C154 C 0.68995 0.38517 0.92831 0.0
C155 C 0.70393 0.41146 0.91647 0.0
C156 C 0.68738 0.41956 0.8884 0.0
C157 C 0.66121 0.39381 0.88548 0.0
C158 C 0.66293 0.37382 0.90895 0.0
C159 C 0.67689 0.44854 0.89468 0.0
C160 C 0.70835 0.42098 0.8618 0.0
H161 H 0.55966 0.30438 0.86456 0.0
H162 H 0.60793 0.27121 0.95767 0.0
H163 H 0.66064 0.29152 0.91424 0.0
H164 H 0.68605 0.32161 0.92926 0.0
H165 H 0.66653 0.29469 0.95435 0.0
H166 H 0.60953 0.33801 0.96798 0.0
H167 H 0.63815 0.32007 0.98396 0.0
H168 H 0.6465 0.35744 0.97112 0.0
H169 H 0.5663 0.39226 0.7905 0.0
H170 H 0.64247 0.4638 0.79034 0.0
H171 H 0.66495 0.44341 0.83319 0.0
H172 H 0.56048 0.38652 0.86406 0.0
H173 H 0.54171 0.36215 0.83508 0.0
H174 H 0.55295 0.34852 0.87095 0.0
H175 H 0.60848 0.34208 0.80369 0.0
H176 H 0.59027 0.31685 0.82959 0.0
H177 H 0.56831 0.33489 0.80336 0.0
H178 H 0.53783 0.25826 0.8871 0.0
C179 C 0.57074 0.29776 0.88458 0.0
C180 C 0.88909 0.7942 0.40589 0.0
C181 C 0.87972 0.80814 0.43074 0.0
C182 C 0.85351 0.79453 0.44465 0.0
C183 C 0.84742 0.75341 0.4106 0.0
C184 C 0.87263 0.76685 0.39627 0.0
C185 C 0.87929 0.74852 0.37055 0.0
H186 H 0.84495 0.6216 0.29071 0.0
C187 C 0.8358 0.72492 0.39594 0.0
C188 C 0.85426 0.72177 0.37236 0.0
H189 H 0.91537 0.69592 0.2757 0.0
H190 H 0.89986 0.72132 0.31741 0.0
H191 H 0.85196 0.62234 0.36443 0.0
H192 H 0.79449 0.65969 0.30153 0.0
H193 H 0.77313 0.64476 0.3317 0.0
H194 H 0.78926 0.62107 0.30832 0.0
H195 H 0.82233 0.60034 0.34202 0.0
H196 H 0.81546 0.61552 0.37751 0.0
C197 C 0.91049 0.74075 0.37728 0.0
C198 C 0.87661 0.76577 0.34092 0.0
C199 C 0.7442 0.65989 0.43662 0.0
C200 C 0.72748 0.63227 0.42849 0.0
C201 C 0.73708 0.61708 0.40468 0.0
C202 C 0.76252 0.62948 0.38898 0.0
C203 C 0.77862 0.65741 0.39713 0.0
C204 C 0.76934 0.67195 0.42072 0.0
C205 C 0.78883 0.70134 0.42651 0.0
C206 C 0.8113 0.70231 0.40234 0.0
C207 C 0.80537 0.67657 0.38515 0.0
C208 C 0.80372 0.70092 0.45863 0.0
C209 C 0.76921 0.72493 0.42142 0.0
C210 C 0.85716 0.64325 0.29659 0.0
C211 C 0.88151 0.6567 0.27991 0.0
C212 C 0.89643 0.68514 0.28799 0.0
C213 C 0.88746 0.69983 0.31232 0.0
C214 C 0.8631 0.68611 0.32876 0.0
C215 C 0.84824 0.65835 0.32063 0.0
C216 C 0.82217 0.64759 0.33995 0.0
C217 C 0.82399 0.67326 0.36117 0.0
C218 C 0.84818 0.69578 0.35467 0.0
C219 C 0.82797 0.61986 0.35683 0.0
C220 C 0.79313 0.64276 0.31949 0.0
H221 H 0.81791 0.75837 0.44666 0.0
H222 H 0.90907 0.80401 0.3946 0.0
H223 H 0.85879 0.77901 0.3419 0.0
H224 H 0.86992 0.75141 0.32117 0.0
H225 H 0.89792 0.78096 0.33667 0.0
H226 H 0.91328 0.73478 0.4014 0.0
H227 H 0.92858 0.7596 0.37253 0.0
H228 H 0.914 0.72167 0.36447 0.0
H229 H 0.73796 0.67201 0.45513 0.0
H230 H 0.72458 0.59585 0.39776 0.0
H231 H 0.76853 0.61695 0.37095 0.0
H232 H 0.80847 0.67889 0.46427 0.0
H233 H 0.78894 0.70653 0.47588 0.0
H234 H 0.82573 0.7157 0.46112 0.0
H235 H 0.75112 0.71798 0.40377 0.0
H236 H 0.78186 0.74581 0.41299 0.0
H237 H 0.75839 0.72907 0.44235 0.0
H238 H 0.84521 0.80496 0.46324 0.0
C239 C 0.83747 0.76741 0.43482 0.0
C240 C 0.67337 0.69627 0.92307 0.0
C241 C 0.69332 0.68051 0.91071 0.0
C242 C 0.69945 0.68426 0.88 0.0
C243 C 0.66935 0.72165 0.87556 0.0
C244 C 0.66138 0.71646 0.90496 0.0
C245 C 0.6403 0.73561 0.91431 0.0
H246 H 0.57482 0.85214 0.88451 0.0
C247 C 0.6559 0.7461 0.86381 0.0
C248 C 0.63813 0.75394 0.88607 0.0
H249 H 0.56886 0.79827 0.96439 0.0
H250 H 0.59727 0.76616 0.94155 0.0
H251 H 0.56704 0.79734 0.83379 0.0
H252 H 0.63957 0.85622 0.87866 0.0
H253 H 0.65275 0.84947 0.84365 0.0
H254 H 0.62068 0.86682 0.84525 0.0
H255 H 0.57561 0.83598 0.82694 0.0
H256 H 0.59328 0.81102 0.80686 0.0
C257 C 0.60993 0.7158 0.92083 0.0
C258 C 0.65534 0.75437 0.94144 0.0
C259 C 0.69498 0.79812 0.76905 0.0
C260 C 0.69093 0.82456 0.75549 0.0
C261 C 0.66828 0.83841 0.76559 0.0
C262 C 0.65121 0.827 0.78982 0.0
C263 C 0.65707 0.80172 0.80447 0.0
C264 C 0.67814 0.78732 0.79359 0.0
C265 C 0.68212 0.76133 0.81254 0.0
C266 C 0.66061 0.76308 0.83719 0.0
C267 C 0.64612 0.78682 0.83237 0.0
C268 C 0.67233 0.73335 0.79316 0.0
C269 C 0.71516 0.76647 0.82484 0.0
C270 C 0.57892 0.83295 0.89671 0.0
C271 C 0.56951 0.82755 0.92615 0.0
C272 C 0.576 0.80283 0.94168 0.0
C273 C 0.59254 0.7843 0.92841 0.0
C274 C 0.60315 0.79086 0.89952 0.0
C275 C 0.59584 0.81456 0.88399 0.0
C276 C 0.6104 0.81925 0.85431 0.0
C277 C 0.62717 0.79411 0.85428 0.0
C278 C 0.62302 0.77764 0.88089 0.0
C279 C 0.58543 0.81595 0.82898 0.0
C280 C 0.63184 0.8495 0.8552 0.0
H281 H 0.69362 0.70701 0.83942 0.0
H282 H 0.66781 0.69343 0.94644 0.0
H283 H 0.6795 0.76253 0.9379 0.0
H284 H 0.64588 0.77408 0.94483 0.0
H285 H 0.65368 0.74136 0.96256 0.0
H286 H 0.60561 0.69596 0.90636 0.0
H287 H 0.60949 0.70841 0.94465 0.0
H288 H 0.59068 0.72659 0.91561 0.0
H289 H 0.71169 0.78654 0.76144 0.0
H290 H 0.66466 0.85886 0.75576 0.0
H291 H 0.63489 0.83897 0.79693 0.0
H292 H 0.65652 0.73673 0.77415 0.0
H293 H 0.69186 0.7265 0.78337 0.0
H294 H 0.65993 0.71492 0.80612 0.0
H295 H 0.72234 0.78919 0.83341 0.0
H296 H 0.71913 0.75223 0.84389 0.0
H297 H 0.73029 0.76323 0.80688 0.0
H298 H 0.71479 0.6725 0.86992 0.0
C299 C 0.68744 0.70459 0.86237 0.0
C300 C 0.87611 0.25047 0.42133 0.0
C301 C 0.89005 0.23027 0.40697 0.0
C302 C 0.88923 0.22954 0.37527 0.0
C303 C 0.85815 0.26635 0.37288 0.0
C304 C 0.86049 0.26836 0.40389 0.0
C305 C 0.84341 0.29021 0.41552 0.0
H306 H 0.7365 0.37033 0.38866 0.0
C307 C 0.83846 0.28619 0.36151 0.0
C308 C 0.83034 0.30087 0.38632 0.0
H309 H 0.77996 0.35496 0.47409 0.0
H310 H 0.81539 0.33202 0.44866 0.0
H311 H 0.73598 0.30666 0.3598 0.0
H312 H 0.79403 0.3904 0.35336 0.0
H313 H 0.79851 0.37201 0.32004 0.0
H314 H 0.76234 0.38013 0.32759 0.0
H315 H 0.72529 0.33934 0.34484 0.0
H316 H 0.74124 0.31608 0.32163 0.0
C317 C 0.81888 0.27354 0.43554 0.0
C318 C 0.86585 0.31489 0.43199 0.0
C319 C 0.79292 0.27442 0.25473 0.0
C320 C 0.77162 0.28807 0.23912 0.0
C321 C 0.76519 0.31398 0.25104 0.0
C322 C 0.77693 0.32408 0.27949 0.0
C323 C 0.79502 0.308 0.29635 0.0
C324 C 0.80449 0.28491 0.2832 0.0
C325 C 0.82588 0.27214 0.30388 0.0
C326 C 0.82562 0.29 0.33233 0.0
C327 C 0.80669 0.31028 0.32792 0.0
C328 C 0.81258 0.23937 0.30864 0.0
C329 C 0.85706 0.2779 0.2901 0.0
C330 C 0.75388 0.3622 0.40175 0.0
C331 C 0.75529 0.36382 0.43326 0.0
C332 C 0.77848 0.35372 0.44974 0.0
C333 C 0.79874 0.34018 0.43495 0.0
C334 C 0.79552 0.3366 0.40347 0.0
C335 C 0.77411 0.3486 0.38735 0.0
C336 C 0.77389 0.34309 0.35413 0.0
C337 C 0.79818 0.32493 0.35294 0.0
C338 C 0.81034 0.32068 0.38196 0.0
C339 C 0.74253 0.32544 0.34434 0.0
C340 C 0.78245 0.37285 0.33778 0.0
H341 H 0.87293 0.2455 0.33416 0.0
H342 H 0.87685 0.25191 0.44566 0.0
H343 H 0.88797 0.31863 0.42159 0.0
H344 H 0.85864 0.33621 0.4304 0.0
H345 H 0.86953 0.30937 0.45607 0.0
H346 H 0.80789 0.25249 0.42483 0.0
H347 H 0.82862 0.26848 0.45792 0.0
H348 H 0.80062 0.28537 0.43902 0.0
H349 H 0.79889 0.25483 0.24603 0.0
H350 H 0.74991 0.3257 0.23899 0.0
H351 H 0.77024 0.34316 0.28795 0.0
H352 H 0.78863 0.23646 0.3141 0.0
H353 H 0.81389 0.22657 0.28799 0.0
H354 H 0.82384 0.22942 0.32736 0.0
H355 H 0.85935 0.29606 0.27343 0.0
H356 H 0.87542 0.28492 0.30731 0.0
H357 H 0.86118 0.25826 0.27832 0.0
H358 H 0.89976 0.21417 0.36368 0.0
C359 C 0.87345 0.24756 0.35816 0.0
C360 C 0.38289 0.67328 0.33754 0.0
C361 C 0.36966 0.64593 0.34952 0.0
C362 C 0.34346 0.63022 0.33459 0.0
C363 C 0.34405 0.66859 0.29726 0.0
C364 C 0.36986 0.68405 0.31144 0.0
C365 C 0.3814 0.71225 0.2952 0.0
H366 H 0.36487 0.80361 0.17773 0.0
C367 C 0.33642 0.68533 0.27045 0.0
C368 C 0.35842 0.71095 0.26893 0.0
H369 H 0.43524 0.81585 0.24798 0.0
H370 H 0.41271 0.7701 0.27092 0.0
H371 H 0.3106 0.77916 0.22078 0.0
H372 H 0.36599 0.73945 0.16521 0.0
H373 H 0.33124 0.71551 0.16373 0.0
H374 H 0.33384 0.75239 0.14971 0.0
H375 H 0.30873 0.78051 0.18038 0.0
H376 H 0.28704 0.75085 0.20056 0.0
C377 C 0.3806 0.73794 0.31667 0.0
C378 C 0.41294 0.71112 0.28448 0.0
C379 C 0.24171 0.64761 0.20472 0.0
C380 C 0.22986 0.65789 0.17758 0.0
C381 C 0.24642 0.68301 0.16408 0.0
C382 C 0.27314 0.6982 0.17766 0.0
C383 C 0.28416 0.68816 0.205 0.0
C384 C 0.26893 0.66291 0.21781 0.0
C385 C 0.28543 0.65464 0.2459 0.0
C386 C 0.31241 0.67968 0.24821 0.0
C387 C 0.31122 0.69933 0.22433 0.0
C388 C 0.265 0.65458 0.27266 0.0
C389 C 0.29466 0.62488 0.24026 0.0
C390 C 0.37578 0.79646 0.19786 0.0
C391 C 0.40208 0.81354 0.2108 0.0
C392 C 0.41486 0.80339 0.23752 0.0
C393 C 0.40183 0.77667 0.25074 0.0
C394 C 0.37569 0.75976 0.23718 0.0
C395 C 0.3632 0.76992 0.21118 0.0
C396 C 0.33563 0.74941 0.19947 0.0
C397 C 0.33333 0.7252 0.22273 0.0
C398 C 0.3568 0.73118 0.24489 0.0
C399 C 0.30898 0.76567 0.20005 0.0
C400 C 0.34169 0.73867 0.16783 0.0
H401 H 0.31073 0.62827 0.29874 0.0
H402 H 0.40286 0.68621 0.34827 0.0
H403 H 0.41378 0.68893 0.27602 0.0
H404 H 0.41937 0.726 0.26549 0.0
H405 H 0.43016 0.71633 0.30321 0.0
H406 H 0.35985 0.73368 0.32947 0.0
H407 H 0.40003 0.74111 0.33323 0.0
H408 H 0.38023 0.75869 0.30467 0.0
H409 H 0.23001 0.62832 0.21582 0.0
H410 H 0.23895 0.69102 0.14266 0.0
H411 H 0.28418 0.71725 0.1662 0.0
H412 H 0.25425 0.6741 0.27171 0.0
H413 H 0.24692 0.63485 0.27211 0.0
H414 H 0.2773 0.65561 0.29475 0.0
H415 H 0.29733 0.62143 0.2159 0.0
H416 H 0.3167 0.62347 0.25114 0.0
H417 H 0.27759 0.60639 0.24805 0.0
H418 H 0.333 0.60884 0.34243 0.0
C419 C 0.33061 0.6414 0.30882 0.0
C420 C 0.08913 0.27207 0.72391 0.0
C421 C 0.09989 0.25809 0.69988 0.0
C422 C 0.12752 0.27101 0.68822 0.0
C423 C 0.1322 0.31184 0.72245 0.0
C424 C 0.10566 0.29893 0.7348 0.0
C425 C 0.09763 0.31739 0.75976 0.0
H426 H 0.13298 0.44141 0.84456 0.0
C427 C 0.14336 0.34015 0.73761 0.0
C428 C 0.12338 0.34365 0.75969 0.0
H429 H 0.0566 0.37121 0.85139 0.0
H430 H 0.07316 0.34599 0.81004 0.0
H431 H 0.12735 0.44549 0.77431 0.0
H432 H 0.18342 0.40066 0.83116 0.0
H433 H 0.20517 0.42113 0.80374 0.0
H434 H 0.18688 0.43969 0.83027 0.0
H435 H 0.16128 0.46461 0.79272 0.0
H436 H 0.1611 0.44762 0.75636 0.0
C437 C 0.06723 0.32601 0.75077 0.0
C438 C 0.09774 0.29979 0.78943 0.0
C439 C 0.23666 0.40537 0.70054 0.0
C440 C 0.2514 0.43413 0.70726 0.0
C441 C 0.24064 0.44915 0.73054 0.0
C442 C 0.21568 0.43589 0.74644 0.0
C443 C 0.20097 0.40735 0.73889 0.0
C444 C 0.21153 0.39274 0.71616 0.0
C445 C 0.19245 0.36324 0.7099 0.0
C446 C 0.16856 0.36245 0.73261 0.0
C447 C 0.17378 0.38812 0.74984 0.0
C448 C 0.17939 0.36321 0.67696 0.0
C449 C 0.21188 0.33982 0.71683 0.0
C450 C 0.12008 0.42041 0.83738 0.0
C451 C 0.09363 0.40813 0.85147 0.0
C452 C 0.07703 0.38113 0.8409 0.0
C453 C 0.08675 0.36647 0.81696 0.0
C454 C 0.11324 0.37901 0.8031 0.0
C455 C 0.12928 0.4057 0.81322 0.0
C456 C 0.15604 0.41652 0.79485 0.0
C457 C 0.15409 0.39149 0.7728 0.0
C458 C 0.12897 0.36945 0.7777 0.0
C459 C 0.15152 0.44515 0.7788 0.0
C460 C 0.18451 0.4199 0.81598 0.0
H461 H 0.1643 0.3062 0.68913 0.0
H462 H 0.06804 0.26272 0.73348 0.0
H463 H 0.11659 0.2877 0.79063 0.0
H464 H 0.10115 0.31376 0.80965 0.0
H465 H 0.07661 0.28354 0.79106 0.0
H466 H 0.06574 0.33103 0.72629 0.0
H467 H 0.0483 0.30797 0.75551 0.0
H468 H 0.06399 0.346 0.76217 0.0
H469 H 0.24436 0.39272 0.68335 0.0
H470 H 0.25109 0.47141 0.73615 0.0
H471 H 0.20859 0.4485 0.76378 0.0
H472 H 0.17572 0.38533 0.67012 0.0
H473 H 0.19481 0.35655 0.66097 0.0
H474 H 0.15711 0.34905 0.67365 0.0
H475 H 0.22843 0.34676 0.73588 0.0
H476 H 0.19867 0.31876 0.7242 0.0
H477 H 0.22457 0.33603 0.69704 0.0
H478 H 0.13682 0.26046 0.67037 0.0
C479 C 0.14362 0.29763 0.69931 0.0
Tb480 Tb 0.95868 1.02668 0.57551 0.0
Tb481 Tb 0.01953 0.04238 0.55087 0.0
C482 C 0.90343 1.00966 0.58082 0.0
C483 C 0.88311 0.98649 0.59613 0.0
C484 C 0.85503 0.97524 0.58232 0.0
C485 C 0.8345 0.95444 0.59707 0.0
C486 C 0.84165 0.94462 0.62604 0.0
C487 C 0.87021 0.95545 0.63949 0.0
C488 C 0.89082 0.97614 0.62461 0.0
C489 C -0.0042 0.06825 0.60517 0.0
C490 C 0.00663 0.99428 0.60372 0.0
C491 C 0.07465 0.05986 0.54497 0.0
C492 C 0.09371 0.08537 0.53192 0.0
C493 C 0.08278 0.11098 0.52528 0.0
C494 C 0.10092 0.13459 0.5116 0.0
C495 C 0.13023 0.13287 0.5042 0.0
C496 C 0.14109 0.1072 0.51133 0.0
C497 C 0.12297 0.0837 0.52508 0.0
C498 C 0.98231 1.00024 0.52174 0.0
C499 C 0.97157 0.07466 0.52289 0.0
O500 O 0.91807 1.00133 0.55898 0.0
O501 O 0.92014 1.02961 0.59798 0.0
O502 O -0.00674 0.06476 0.57704 0.0
O503 O 0.97569 0.04899 0.61769 0.0
O504 O 0.97754 0.99351 0.59993 0.0
O505 O 0.02633 1.01287 0.58857 0.0
O506 O 0.06083 0.06467 0.56899 0.0
O507 O 0.05725 0.04261 0.52573 0.0
O508 O 0.98515 1.00438 0.54969 0.0
O509 O 0.00246 1.01917 0.50891 0.0
O510 O 0.00066 0.07623 0.52765 0.0
O511 O 0.95191 0.0552 0.53705 0.0
H512 H 0.84882 0.98285 0.56023 0.0
H513 H 0.81297 0.94617 0.5858 0.0
H514 H 0.87638 0.94861 0.66189 0.0
H515 H 0.9125 0.98445 0.63559 0.0
H516 H 0.06015 0.1126 0.53038 0.0
H517 H 0.09196 0.15413 0.50672 0.0
H518 H 0.1633 0.10489 0.50548 0.0
H519 H 0.13165 0.06398 0.52992 0.0
Tb520 Tb 0.52413 0.04427 0.07869 0.0
Tb521 Tb 0.45703 1.02412 1.05659 0.0
C522 C 0.57963 0.06345 0.08183 0.0
C523 C 0.59986 0.09112 0.08929 0.0
C524 C 0.58917 0.1173 0.09083 0.0
C525 C 0.60855 0.14309 0.09981 0.0
C526 C 0.63885 0.143 0.10782 0.0
C527 C 0.64945 0.1167 0.10559 0.0
C528 C 0.63012 0.09103 0.09634 0.0
C529 C 0.49151 1.00262 0.11017 0.0
C530 C 0.47657 0.07505 0.10481 0.0
C531 C 0.4037 0.99767 1.05563 0.0
C532 C 0.38673 0.96802 1.04996 0.0
C533 C 0.35755 0.96036 1.05985 0.0
C534 C 0.33874 0.93478 1.04943 0.0
C535 C 0.34887 0.91674 1.02875 0.0
C536 C 0.3789 0.92329 1.02084 0.0
C537 C 0.39777 0.94871 1.03149 0.0
C538 C 0.48204 0.0733 1.02894 0.0
C539 C 0.5056 0.99395 1.02824 0.0
O540 O 0.56292 0.06303 1.05696 0.0
O541 O 0.56476 0.05047 0.10418 0.0
O542 O 0.49006 1.00611 0.0821 0.0
O543 O 0.51345 1.02192 0.12163 0.0
O544 O 0.5047 0.07904 0.09688 0.0
O545 O 0.45587 0.0526 0.09512 0.0
O546 O 0.42084 1.00184 0.08042 0.0
O547 O 0.41655 1.01098 1.03221 0.0
O548 O 0.49312 0.05837 1.04848 0.0
O549 O 0.45458 0.06001 1.02395 0.0
O550 O 0.47672 0.99455 1.02971 0.0
O551 O 0.52679 1.01123 1.04479 0.0
H552 H 0.56577 0.1177 0.08565 0.0
H553 H 0.59968 0.16298 0.10089 0.0
H554 H 0.67243 0.11561 0.11208 0.0
H555 H 0.63865 0.07091 0.09544 0.0
H556 H 0.34873 0.97504 0.07414 0.0
H557 H 0.31564 0.93033 1.05571 0.0
H558 H 0.38727 0.90958 1.00509 0.0
H559 H 0.42035 0.95416 1.02382 0.0
Tb560 Tb 0.48814 0.56655 0.57796 0.0
Tb561 Tb 0.48647 0.507 0.55381 0.0
C562 C 0.47312 0.61424 0.58923 0.0
C563 C 0.44753 0.62225 0.60383 0.0
C564 C 0.43262 0.64294 0.59004 0.0
C565 C 0.40709 0.64953 0.60236 0.0
C566 C 0.39611 0.63562 0.62882 0.0
C567 C 0.41123 0.61504 0.64275 0.0
C568 C 0.43663 0.60828 0.63027 0.0
C569 C 0.51778 0.53409 0.61223 0.0
C570 C 0.43294 0.51443 0.59149 0.0
C571 C 0.49948 0.45906 0.53985 0.0
C572 C 0.52713 0.44953 0.53208 0.0
C573 C 0.5547 0.4605 0.54734 0.0
C574 C 0.58069 0.45122 0.53941 0.0
C575 C 0.57965 0.43098 0.51593 0.0
C576 C 0.55199 0.42045 0.50049 0.0
C577 C 0.52602 0.42955 0.50859 0.0
C578 C 0.45669 0.54001 0.52045 0.0
C579 C 0.5421 0.55851 0.54189 0.0
O580 O 0.46642 0.6004 0.56362 0.0
O581 O 0.49218 0.60288 0.60636 0.0
O582 O 0.49316 0.52557 0.59775 0.0
O583 O 0.52562 0.56221 0.60923 0.0
O584 O 0.44443 0.54277 0.59189 0.0
O585 O 0.44667 0.49524 0.57928 0.0
O586 O 0.49826 0.46752 0.56766 0.0
O587 O 0.48915 0.4763 0.52034 0.0
O588 O 0.48174 0.54792 0.53418 0.0
O589 O 0.44801 0.51208 0.52396 0.0
O590 O 0.53224 0.53007 0.54515 0.0
O591 O 0.52626 0.57774 0.55021 0.0
H592 H 0.44056 0.65379 0.56951 0.0
H593 H 0.39607 0.66569 0.59132 0.0
H594 H 0.40308 0.60377 0.66298 0.0
H595 H 0.44747 0.59189 0.6411 0.0
H596 H 0.55616 0.47618 0.56542 0.0
H597 H 0.6015 0.45963 0.55194 0.0
H598 H 0.5504 0.4054 0.48184 0.0
H599 H 0.50504 0.4211 0.49634 0.0
Tb600 Tb 0.98096 0.55753 1.04355 0.0
Tb601 Tb -0.00492 0.51085 0.0856 0.0
C602 C 0.95521 0.5904 1.01075 0.0
C603 C 0.9248 0.59649 1.00657 0.0
C604 C 0.90628 0.59678 1.03085 0.0
C605 C 0.87694 0.60135 1.02576 0.0
C606 C 0.86563 0.60521 0.9963 0.0
C607 C 0.88431 0.60487 0.97215 0.0
C608 C 0.91361 0.60061 0.97728 0.0
C609 C 0.03645 0.56809 0.0673 0.0
C610 C 0.95994 0.55513 0.11102 0.0
C611 C 0.0205 0.47655 0.11655 0.0
C612 C 0.0503 0.46862 0.11699 0.0
C613 C 0.06732 0.47022 0.14426 0.0
C614 C 0.0962 0.46425 0.14523 0.0
C615 C 0.10865 0.45645 0.11892 0.0
C616 C 0.09148 0.4546 0.0916 0.0
C617 C 0.06258 0.46076 0.0906 0.0
C618 C 0.93981 0.50113 1.06149 0.0
C619 C 0.01537 0.51263 1.01821 0.0
O620 O 0.95794 0.56415 1.00296 0.0
O621 O 0.97028 0.59896 1.03596 0.0
O622 O 0.01326 0.55613 0.08016 0.0
O623 O 0.02841 0.57722 1.04112 0.0
O624 O 0.95442 0.56219 0.08262 0.0
O625 O 0.97833 0.53714 0.11823 0.0
O626 O 0.0203 0.5034 0.12457 0.0
O627 O 0.00231 0.46822 0.09319 0.0
O628 O 0.9633 0.51242 1.04897 0.0
O629 O 0.9471 0.49225 0.08802 0.0
O630 O 0.02198 0.50656 1.04662 0.0
O631 O -0.00371 0.52993 1.01124 0.0
H632 H 0.91435 0.59326 1.05363 0.0
H633 H 0.86297 0.6014 1.04474 0.0
H634 H 0.87638 0.60824 0.94926 0.0
H635 H 0.92752 0.6003 0.95826 0.0
H636 H 0.05829 0.47628 0.16484 0.0
H637 H 0.10865 0.46535 0.16672 0.0
H638 H 0.10054 0.44877 0.07095 0.0
H639 H 0.04998 0.45954 0.0692 0.0
H640 H 0.27907 0.24143 0.42029 0.0
H641 H 0.11248 0.16684 0.45869 0.0
H642 H 0.19981 0.25878 0.37189 0.0
H643 H 0.19074 0.15387 0.51198 0.0
H644 H 0.1441 0.20363 0.42924 0.0
H645 H 0.24726 0.212 0.45637 0.0
C646 C 0.255 0.23925 0.41739 0.0
C647 C 0.2421 0.25252 0.39296 0.0
C648 C 0.15436 0.19292 0.44753 0.0
C649 C 0.20557 0.21886 0.43409 0.0
C650 C 0.13626 0.172 0.46452 0.0
C651 C 0.14895 0.15703 0.48778 0.0
C652 C 0.18547 0.19887 0.45364 0.0
C653 C 0.18003 0.16442 0.4939 0.0
C654 C 0.23686 0.22253 0.43804 0.0
C655 C 0.21079 0.24924 0.39053 0.0
N656 N 0.19724 0.18465 0.4768 0.0
N657 N 0.19363 0.23255 0.41065 0.0
H658 H 0.21454 0.77126 0.95562 0.0
H659 H 0.34225 0.91081 0.96824 0.0
H660 H 0.21816 0.84533 0.89602 0.0
H661 H 0.30529 0.87307 1.05032 0.0
H662 H 0.30271 0.87847 0.93929 0.0
H663 H 0.25237 0.80136 0.98975 0.0
C664 C 0.2229 0.79391 0.95002 0.0
C665 C 0.21308 0.80593 0.92312 0.0
C666 C 0.3034 0.8771 0.96365 0.0
C667 C 0.25655 0.83972 0.96115 0.0
C668 C 0.32612 0.89527 0.98015 0.0
C669 C 0.32707 0.89446 1.01168 0.0
C670 C 0.28164 0.85766 0.97868 0.0
C671 C 0.30522 0.87429 1.026 0.0
C672 C 0.24437 0.81095 0.96939 0.0
C673 C 0.22472 0.8353 0.91672 0.0
N674 N 0.28331 0.85647 1.00933 0.0
N675 N 0.24614 0.85102 0.93534 0.0
H676 H 0.60444 0.48903 0.77783 0.0
H677 H 0.49959 0.4762 0.62742 0.0
H678 H 0.56669 0.40521 0.73795 0.0
H679 H 0.564 0.55348 0.65283 0.0
H680 H 0.51936 0.44977 0.66958 0.0
H681 H 0.58468 0.51299 0.73471 0.0
C682 C 0.59221 0.47553 0.75994 0.0
C683 C 0.58787 0.44486 0.76153 0.0
C684 C 0.52924 0.47245 0.66577 0.0
C685 C 0.56427 0.47261 0.71191 0.0
C686 C 0.51806 0.48753 0.64166 0.0
C687 C 0.53026 0.51708 0.63648 0.0
C688 C 0.55245 0.4872 0.68515 0.0
C689 C 0.5539 0.53074 0.65592 0.0
C690 C 0.58076 0.48935 0.73528 0.0
C691 C 0.57067 0.42883 0.73791 0.0
N692 N 0.56403 0.5158 0.67943 0.0
N693 N 0.55954 0.44288 0.71409 0.0
H694 H 0.89591 0.67825 0.2238 0.0
H695 H 0.95454 0.53733 0.16981 0.0
H696 H 0.88967 0.59994 0.27741 0.0
H697 H 0.93376 0.60353 0.1082 0.0
H698 H 0.93396 0.56121 0.21043 0.0
H699 H 0.91317 0.65276 0.18219 0.0
C700 C 0.89824 0.6557 0.22684 0.0
C701 C 0.89139 0.64124 0.25419 0.0
C702 C 0.93372 0.5704 0.18798 0.0
C703 C 0.91122 0.6119 0.2066 0.0
C704 C 0.94553 0.55681 0.16476 0.0
C705 C 0.94588 0.56839 0.13547 0.0
C706 C 0.92257 0.59608 0.18207 0.0
C707 C 0.93381 0.59369 0.13034 0.0
C708 C 0.90791 0.64111 0.20301 0.0
C709 C 0.89449 0.61189 0.25669 0.0
N710 N 0.92291 0.6068 0.15343 0.0
N711 N 0.90439 0.59828 0.23333 0.0
H712 H 0.44279 0.23264 0.18686 0.0
H713 H 0.42806 0.06638 0.13929 0.0
H714 H 0.38656 0.16079 0.23033 0.0
H715 H 0.50391 0.13204 0.11611 0.0
H716 H 0.41131 0.10187 0.17077 0.0
H717 H 0.46454 0.19736 0.15873 0.0
C718 C 0.43518 0.20949 0.1906 0.0
C719 C 0.4129 0.19961 0.211 0.0
C720 C 0.43173 0.10855 0.15897 0.0
C721 C 0.4374 0.15935 0.17892 0.0
C722 C 0.44124 0.08831 0.14086 0.0
C723 C 0.46736 0.09631 0.12497 0.0
C724 C 0.44816 0.13722 0.16096 0.0
C725 C 0.48366 0.12498 0.12807 0.0
C726 C 0.44767 0.18942 0.17469 0.0
C727 C 0.40393 0.1694 0.21514 0.0
N728 N 0.47363 0.14456 0.14553 0.0
N729 N 0.41602 0.15039 0.19908 0.0
H730 H 0.11098 0.87181 0.67771 0.0
H731 H 0.97456 0.95416 0.64118 0.0
H732 H 0.02993 0.85508 0.72643 0.0
H733 H 0.06334 0.98284 0.6092 0.0
H734 H -0.00734 0.91534 0.66983 0.0
H735 H 0.09163 0.90948 0.64868 0.0
C736 C 0.08894 0.87582 0.68204 0.0
C737 C 0.07203 0.86026 0.70452 0.0
C738 C 0.00815 0.93023 0.65662 0.0
C739 C 0.04989 0.90369 0.67163 0.0
C740 C -0.00214 0.95242 0.64028 0.0
C741 C 0.01745 0.97184 0.62274 0.0
C742 C 0.03815 0.92727 0.65516 0.0
C743 C 0.04741 0.96848 0.62243 0.0
C744 C 0.07802 0.89754 0.66567 0.0
C745 C 0.0438 0.86674 0.70949 0.0
N746 N 0.05677 0.94656 0.63825 0.0
N747 N 0.03359 0.88796 0.69316 0.0
H748 H 0.75479 0.42498 1.01751 0.0
H749 H 0.92425 0.50835 1.00201 0.0
H750 H 0.79372 0.44738 0.93191 0.0
H751 H 0.88758 0.47502 0.08572 0.0
H752 H 0.87518 0.49156 0.97631 0.0
H753 H 0.80171 0.4484 1.04306 0.0
C754 C 0.77322 0.43482 1.00404 0.0
C755 C 0.77035 0.43379 0.97244 0.0
C756 C 0.87782 0.48806 1.00032 0.0
C757 C 0.82432 0.46104 1.00173 0.0
C758 C 0.90578 0.49773 1.01501 0.0
C759 C 0.90996 0.4929 1.046 0.0
C760 C 0.85385 0.47351 1.01678 0.0
C761 C 0.88534 0.47898 1.06176 0.0
C762 C 0.80002 0.44833 1.01868 0.0
C763 C 0.79483 0.44766 0.95627 0.0
N764 N 0.8584 0.46968 1.04697 0.0
N765 N 0.82084 0.46051 0.97108 0.0
H766 H 0.70688 0.57523 0.44594 0.0
H767 H 0.56772 0.61491 0.52904 0.0
H768 H 0.68498 0.66125 0.44771 0.0
H769 H 0.58107 0.52626 0.51974 0.0
H770 H 0.61253 0.63204 0.50152 0.0
H771 H 0.66224 0.55652 0.47411 0.0
C772 C 0.69265 0.59016 0.45206 0.0
C773 C 0.69993 0.61995 0.44459 0.0
C774 C 0.60576 0.60883 0.50549 0.0
C775 C 0.64904 0.59873 0.47716 0.0
C776 C 0.58013 0.59899 0.52136 0.0
C777 C 0.57046 0.56905 0.52673 0.0
C778 C 0.62207 0.58866 0.49482 0.0
C779 C 0.58763 0.54955 0.51612 0.0
C780 C 0.66727 0.57948 0.46831 0.0
C781 C 0.68074 0.63826 0.45343 0.0
N782 N 0.61257 0.55969 0.50063 0.0
N783 N 0.65634 0.62739 0.46924 0.0
H784 H 0.25033 0.35849 0.1282 0.0
H785 H 0.15879 0.48602 0.14936 0.0
H786 H 0.27306 0.42653 0.19499 0.0
H787 H 0.1279 0.4111 0.09207 0.0
H788 H 0.20682 0.47055 0.15749 0.0
H789 H 0.21214 0.38382 0.10569 0.0
C790 C 0.24784 0.3792 0.13757 0.0
C791 C 0.26455 0.39034 0.16365 0.0
C792 C 0.18968 0.45765 0.14285 0.0
C793 C 0.22077 0.41908 0.13846 0.0
C794 C 0.16221 0.4664 0.13833 0.0
C795 C 0.13912 0.4495 0.12051 0.0
C796 C 0.1941 0.43169 0.12961 0.0
C797 C 0.14505 0.42471 0.10609 0.0
C798 C 0.22589 0.3935 0.1249 0.0
C799 C 0.26032 0.41707 0.1751 0.0
N800 N 0.17183 0.41631 0.11131 0.0
N801 N 0.2386 0.43035 0.16266 0.0
H802 H 0.5113 0.23536 0.9279 0.0
H803 H 0.53998 0.10426 1.0363 0.0
H804 H 0.59988 0.2208 0.95401 0.0
H805 H 0.45585 0.10527 0.98807 0.0
H806 H 0.56196 0.14943 1.01036 0.0
H807 H 0.49008 0.18987 0.95314 0.0
C808 C 0.52638 0.22261 0.93867 0.0
C809 C 0.55756 0.23229 0.93875 0.0
C810 C 0.53871 0.13968 1.00538 0.0
C811 C 0.53317 0.18021 0.96846 0.0
C812 C 0.52622 0.11387 1.02019 0.0
C813 C 0.4962 0.10079 1.01415 0.0
C814 C 0.52087 0.15271 0.98465 0.0
C815 C 0.47917 0.11451 0.99333 0.0
C816 C 0.51417 0.19666 0.9533 0.0
C817 C 0.57573 0.21479 0.95374 0.0
N818 N 0.49168 0.13968 0.97943 0.0
N819 N 0.56331 0.18978 0.96805 0.0
H820 H 0.90736 0.85667 0.3996 0.0
H821 H 0.94897 0.95355 0.54925 0.0
H822 H 0.89137 0.82433 0.48973 0.0
H823 H 0.97919 0.98424 0.46222 0.0
H824 H 0.92494 0.90702 0.52657 0.0
H825 H 0.93229 0.90404 0.42088 0.0
C826 C 0.90927 0.85941 0.42381 0.0
C827 C 0.89688 0.8365 0.44285 0.0
C828 C 0.93677 0.92387 0.51233 0.0
C829 C 0.92498 0.89072 0.4673 0.0
C830 C 0.95038 0.95054 0.52528 0.0
C831 C 0.96613 0.97277 0.50759 0.0
C832 C 0.93879 0.91929 0.48136 0.0
C833 C 0.96728 0.96762 0.47665 0.0
C834 C 0.92333 0.88651 0.43593 0.0
C835 C 0.8999 0.84146 0.47407 0.0
N836 N 0.95381 0.94139 0.46448 0.0
N837 N 0.91345 0.86794 0.48523 0.0
H838 H 0.21999 0.67184 0.66019 0.0
H839 H 0.38807 0.64665 0.68777 0.0
H840 H 0.27686 0.70342 0.73825 0.0
H841 H 0.34292 0.64099 0.59979 0.0
H842 H 0.3441 0.66022 0.70886 0.0
H843 H 0.26195 0.65383 0.63959 0.0
C844 C 0.24117 0.67497 0.67305 0.0
C845 C 0.2447 0.68912 0.70113 0.0
C846 C 0.34378 0.65595 0.68494 0.0
C847 C 0.29259 0.66815 0.67784 0.0
C848 C 0.36879 0.64805 0.67294 0.0
C849 C 0.36917 0.64284 0.64198 0.0
C850 C 0.31883 0.65841 0.66591 0.0
C851 C 0.34366 0.64519 0.62374 0.0
C852 C 0.26505 0.66458 0.66131 0.0
C853 C 0.27266 0.69212 0.71688 0.0
N854 N 0.31948 0.65279 0.63598 0.0
N855 N 0.29543 0.68173 0.70505 0.0
H856 H 0.67875 0.85604 0.70514 0.0
H857 H 0.85035 0.89899 0.6629 0.0
H858 H 0.75136 0.82654 0.75481 0.0
H859 H 0.78126 0.94341 0.62712 0.0
H860 H 0.8131 0.86733 0.69204 0.0
H861 H 0.7149 0.88325 0.67143 0.0
C862 C 0.70222 0.85515 0.70892 0.0
C863 C 0.71195 0.83898 0.73296 0.0
C864 C 0.8061 0.88393 0.67769 0.0
C865 C 0.75338 0.86986 0.69428 0.0
C866 C 0.82738 0.90213 0.66115 0.0
C867 C 0.81902 0.92405 0.6426 0.0
C868 C 0.77617 0.88757 0.67562 0.0
C869 C 0.78874 0.92663 0.6408 0.0
C870 C 0.72283 0.87062 0.6896 0.0
C871 C 0.74265 0.83829 0.73638 0.0
N872 N 0.76846 0.90869 0.65718 0.0
N873 N 0.76223 0.85359 0.71736 0.0
H874 H 0.7118 0.28502 0.22665 0.0
H875 H 0.69895 0.16287 0.09979 0.0
H876 H 0.78871 0.25636 0.19301 0.0
H877 H 0.62436 0.18349 0.14582 0.0
H878 H 0.73216 0.20292 0.12665 0.0
H879 H 0.67996 0.2549 0.18919 0.0
C880 C 0.72221 0.27294 0.21095 0.0
C881 C 0.75313 0.27323 0.2132 0.0
C882 C 0.70845 0.19884 0.13054 0.0
C883 C 0.71628 0.23772 0.1706 0.0
C884 C 0.68947 0.17589 0.11535 0.0
C885 C 0.65877 0.16949 0.12074 0.0
C886 C 0.69664 0.21559 0.1512 0.0
C887 C 0.64774 0.18761 0.14064 0.0
C888 C 0.70384 0.25541 0.18971 0.0
C889 C 0.76497 0.25647 0.19249 0.0
N890 N 0.66667 0.20962 0.15528 0.0
N891 N 0.74647 0.23914 0.17223 0.0
H892 H 0.42941 0.6514 0.3684 0.0
H893 H 0.40032 0.52819 0.49431 0.0
H894 H 0.34066 0.61139 0.39392 0.0
H895 H 0.48248 0.59183 0.4945 0.0
H896 H 0.37902 0.55597 0.45455 0.0
H897 H 0.45036 0.62804 0.41182 0.0
C898 C 0.41422 0.63801 0.38314 0.0
C899 C 0.38305 0.63328 0.37697 0.0
C900 C 0.40165 0.56399 0.4634 0.0
C901 C 0.40719 0.60581 0.42652 0.0
C902 C 0.41382 0.5481 0.48604 0.0
C903 C 0.44319 0.55771 0.49768 0.0
C904 C 0.41914 0.58943 0.45182 0.0
C905 C 0.4597 0.5837 0.48617 0.0
C906 C 0.42629 0.62453 0.4079 0.0
C907 C 0.36478 0.6152 0.39697 0.0
N908 N 0.44758 0.5985 0.46365 0.0
N909 N 0.37709 0.60199 0.42052 0.0
H910 H 0.12571 0.43261 0.90183 0.0
H911 H -0.00575 0.50562 0.9597 0.0
H912 H 0.03749 0.41925 0.85826 0.0
H913 H 0.06533 0.48713 1.02023 0.0
H914 H 0.01366 0.48038 0.91949 0.0
H915 H 0.1076 0.45856 0.94283 0.0
C916 C 0.10257 0.43521 0.90088 0.0
C917 C 0.08304 0.42369 0.87664 0.0
C918 C 0.02504 0.48186 0.94156 0.0
C919 C 0.06233 0.45359 0.9232 0.0
C920 C 0.0141 0.49644 0.96453 0.0
C921 C 0.02814 0.49849 0.99348 0.0
C922 C 0.05057 0.46955 0.94729 0.0
C923 C 0.05369 0.48594 0.99833 0.0
C924 C 0.09224 0.44987 0.92432 0.0
C925 C 0.05323 0.42754 0.87662 0.0
N926 N 0.06418 0.47213 0.97543 0.0
N927 N 0.04386 0.44233 0.89938 0.0
H928 H 0.52348 0.85423 0.90582 0.0
H929 H 0.55961 0.9768 1.03144 0.0
H930 H 0.58631 0.85165 0.9812 0.0
H931 H 0.47192 0.95672 0.98632 0.0
H932 H 0.57295 0.93503 1.00696 0.0
H933 H 0.50646 0.89502 0.92993 0.0
C934 C 0.53341 0.86206 0.92757 0.0
C935 C 0.55623 0.84956 0.94166 0.0
C936 C 0.5508 0.93979 1.00238 0.0
C937 C 0.53748 0.89628 0.96877 0.0
C938 C 0.5432 0.96383 1.01613 0.0
C939 C 0.51453 0.97032 1.01099 0.0
C940 C 0.52981 0.92224 0.98294 0.0
C941 C 0.49425 0.95248 0.99098 0.0
C942 C 0.52371 0.88522 0.94125 0.0
C943 C 0.56844 0.86045 0.96976 0.0
N944 N 0.50232 0.92923 0.97755 0.0
N945 N 0.55916 0.8834 0.98222 0.0
H946 H 0.86629 0.19785 0.45426 0.0
H947 H 0.00337 0.11598 0.48628 0.0
H948 H 0.94366 0.21278 0.40004 0.0
H949 H 0.91446 0.08468 0.51687 0.0
H950 H 0.98446 0.15466 0.45794 0.0
H951 H 0.88667 0.16 0.48188 0.0
C952 C 0.88776 0.19337 0.4484 0.0
C953 C 0.90335 0.20852 0.42487 0.0
C954 C 0.96915 0.13918 0.47076 0.0
C955 C 0.92669 0.16494 0.4562 0.0
C956 C 0.97989 0.11711 0.48693 0.0
C957 C 0.96047 0.09702 0.50399 0.0
C958 C 0.93892 0.14136 0.47206 0.0
C959 C 0.93027 0.09958 0.50402 0.0
C960 C 0.89925 0.17157 0.46397 0.0
C961 C 0.93086 0.20146 0.41791 0.0
N962 N 0.92051 0.12143 0.4885 0.0
N963 N 0.94173 0.18021 0.43358 0.0
H964 H 0.20355 0.59895 0.1776 0.0
H965 H 0.07952 0.61332 1.05024 0.0
H966 H 0.18848 0.68265 0.14438 0.0
H967 H 0.05996 0.54894 0.12026 0.0
H968 H 0.12643 0.63416 0.07794 0.0
H969 H 0.15646 0.57565 0.15138 0.0
C970 C 0.19049 0.61254 0.16505 0.0
C971 C 0.2006 0.64296 0.16303 0.0
C972 C 0.11189 0.61535 0.08714 0.0
C973 C 0.14722 0.61611 0.13221 0.0
C974 C 0.08521 0.60337 0.07131 0.0
C975 C 0.06572 0.57941 0.08306 0.0
C976 C 0.11953 0.60291 0.1146 0.0
C977 C 0.07427 0.56742 0.11048 0.0
C978 C 0.1637 0.59912 0.14995 0.0
C979 C 0.18252 0.65912 0.14596 0.0
N980 N 0.10067 0.57919 0.12532 0.0
N981 N 0.15704 0.6455 0.13099 0.0
H982 H 0.30141 0.4744 0.72662 0.0
H983 H 0.39272 0.4634 0.58179 0.0
H984 H 0.26128 0.42637 0.64749 0.0
H985 H 0.4097 0.54105 0.63684 0.0
H986 H 0.34762 0.44529 0.60933 0.0
H987 H 0.3444 0.49566 0.6975 0.0
C988 C 0.30137 0.46842 0.70317 0.0
C989 C 0.27752 0.44821 0.68975 0.0
C990 C 0.36117 0.46636 0.61523 0.0
C991 C 0.32724 0.47197 0.65661 0.0
C992 C 0.38693 0.47665 0.59962 0.0
C993 C 0.40495 0.50379 0.60701 0.0
C994 C 0.35374 0.48299 0.63885 0.0
C995 C 0.39634 0.5201 0.63029 0.0
C996 C 0.32606 0.4805 0.68663 0.0
C997 C 0.27931 0.44111 0.65927 0.0
N998 N 0.37151 0.50931 0.64563 0.0
N999 N 0.30381 0.45271 0.64389 0.0
H1000 H 0.70481 0.62632 0.89877 0.0
H1001 H 0.83672 0.64216 1.02588 0.0
H1002 H 0.72129 0.69434 0.96595 0.0
H1003 H 0.82432 0.57986 0.95313 0.0
H1004 H 0.78833 0.65497 1.011 0.0
H1005 H 0.74181 0.60242 0.92528 0.0
C1006 C 0.71589 0.63595 0.9194 0.0
C1007 C 0.71035 0.66258 0.92992 0.0
C1008 C 0.79602 0.63822 0.99855 0.0
C1009 C 0.75296 0.63557 0.96023 0.0
C1010 C 0.82356 0.63082 1.00712 0.0
C1011 C 0.83473 0.61029 0.99038 0.0
C1012 C 0.77958 0.62492 0.97312 0.0
C1013 C 0.81681 0.59629 0.96623 0.0
C1014 C 0.73702 0.62233 0.93453 0.0
C1015 C 0.72492 0.67385 0.95704 0.0
N1016 N 0.79029 0.60407 0.95815 0.0
N1017 N 0.74596 0.66055 0.971 0.0
H1018 H 0.40581 0.82568 0.15034 0.0
H1019 H 0.49485 0.9904 0.17045 0.0
H1020 H 0.4301 0.86562 0.23749 0.0
H1021 H 0.45506 0.95413 0.08579 0.0
H1022 H 0.47313 0.9447 0.19558 0.0
H1023 H 0.42589 0.87202 0.12651 0.0
C1024 C 0.41518 0.8442 0.16457 0.0
C1025 C 0.41588 0.84159 0.19613 0.0
C1026 C 0.46902 0.9468 0.17154 0.0
C1027 C 0.43959 0.89503 0.16865 0.0
C1028 C 0.48138 0.97287 0.1572 0.0
C1029 C 0.47677 0.97603 0.126 0.0
C1030 C 0.45214 0.9236 0.1545 0.0
C1031 C 0.45916 0.95265 0.1099 0.0
C1032 C 0.42681 0.87072 0.15086 0.0
C1033 C 0.4292 0.86637 0.21315 0.0
N1034 N 0.44765 0.92741 0.12428 0.0
N1035 N 0.44049 0.89201 0.19921 0.0
H1036 H 0.09163 0.24387 0.64018 0.0
H1037 H -0.00193 0.08227 0.665 0.0
H1038 H 0.06882 0.20934 0.72813 0.0
H1039 H 0.03001 0.11579 0.57949 0.0
H1040 H 0.02243 0.12857 0.68878 0.0
H1041 H 0.06714 0.19751 0.61778 0.0
C1042 C 0.08153 0.22647 0.65486 0.0
C1043 C 0.08269 0.23048 0.6862 0.0
C1044 C 0.02419 0.12576 0.66485 0.0
C1045 C 0.05414 0.17704 0.66046 0.0
C1046 C 0.01036 0.09933 0.65128 0.0
C1047 C 0.012 0.09523 0.62023 0.0
C1048 C 0.03967 0.14829 0.64718 0.0
C1049 C 0.02818 0.11802 0.60349 0.0
C1050 C 0.06744 0.19996 0.64199 0.0
C1051 C 0.06844 0.2073 0.70389 0.0
N1052 N 0.04126 0.14355 0.61715 0.0
N1053 N 0.05487 0.18152 0.69079 0.0
H1054 H 0.6966 0.33982 0.42648 0.0
H1055 H 0.63734 0.46252 0.51432 0.0
H1056 H 0.75774 0.40808 0.47435 0.0
H1057 H 0.58489 0.37615 0.49811 0.0
H1058 H 0.68145 0.44546 0.49757 0.0
H1059 H 0.65475 0.35542 0.4495 0.0
C1060 C 0.70111 0.35813 0.44195 0.0
C1061 C 0.73049 0.37284 0.4485 0.0
C1062 C 0.66028 0.43028 0.49793 0.0
C1063 C 0.68278 0.39096 0.47478 0.0
C1064 C 0.63508 0.43993 0.50757 0.0
C1065 C 0.60715 0.42085 0.50735 0.0
C1066 C 0.65743 0.40149 0.48766 0.0
C1067 C 0.60566 0.39191 0.49796 0.0
C1068 C 0.67729 0.36693 0.45518 0.0
C1069 C 0.7353 0.39625 0.46884 0.0
N1070 N 0.63033 0.38323 0.48826 0.0
N1071 N 0.71157 0.40487 0.48108 0.0
loop_
_geom_bond_atom_site_label_1
_geom_bond_atom_site_label_2
_geom_bond_distance
_geom_bond_site_symmetry_2
_ccdc_geom_bond_type
C0 C1 1.391 . S
C0 C4 1.391 . S
C0 H42 0.948 . S
C1 C0 1.391 . S
C1 C2 1.391 . S
C2 C1 1.391 . S
C2 H58 0.947 . S
C2 C59 1.392 . S
C3 C4 1.391 . S
C3 C7 1.397 . S
C3 C59 1.419 . S
C4 C0 1.391 . S
C4 C3 1.391 . S
C4 C5 1.399 . S
C5 C4 1.399 . S
C5 C8 1.396 . S
C5 C17 1.453 . S
C5 C18 1.684 . S
H6 C30 0.948 . S
C7 C3 1.397 . S
C7 C8 1.394 . S
C7 C26 1.723 . S
C8 C5 1.396 . S
C8 C7 1.394 . S
C8 C38 1.723 . S
H9 C32 0.947 . S
H10 C33 0.948 . S
H11 C39 0.982 . S
H12 C40 0.979 . S
H13 C40 0.980 . S
H14 C40 0.983 . S
H15 C39 0.979 . S
H16 C39 0.977 . S
C17 C5 1.453 . S
C17 H46 0.982 . S
C17 H47 0.979 . S
C17 H48 0.977 . S
C18 C5 1.684 . S
C18 H43 0.979 . S
C18 H44 0.980 . S
C18 H45 0.983 . S
C19 C20 1.391 . S
C19 C24 1.391 . S
C19 H49 0.948 . S
C20 C19 1.391 . S
C20 C21 1.391 . S
C21 C20 1.391 . S
C21 C22 1.392 . S
C21 H50 0.947 . S
C22 C21 1.392 . S
C22 C23 1.419 . S
C22 H51 0.948 . S
C23 C22 1.419 . S
C23 C24 1.391 . S
C23 C27 1.397 . S
C24 C19 1.391 . S
C24 C23 1.391 . S
C24 C25 1.399 . S
C25 C24 1.399 . S
C25 C26 1.396 . S
C25 C28 1.453 . S
C25 C29 1.684 . S
C26 C7 1.723 . S
C26 C25 1.396 . S
C26 C27 1.394 . S
C27 C23 1.397 . S
C27 C26 1.394 . S
C27 C37 1.723 . S
C28 C25 1.453 . S
C28 H52 0.982 . S
C28 H53 0.979 . S
C28 H54 0.977 . S
C29 C25 1.684 . S
C29 H55 0.979 . S
C29 H56 0.980 . S
C29 H57 0.983 . S
C30 H6 0.948 . S
C30 C31 1.391 . S
C30 C35 1.391 . S
C31 C30 1.391 . S
C31 C32 1.391 . S
C32 H9 0.947 . S
C32 C31 1.391 . S
C32 C33 1.392 . S
C33 H10 0.948 . S
C33 C32 1.392 . S
C33 C34 1.419 . S
C34 C33 1.419 . S
C34 C35 1.391 . S
C34 C38 1.397 . S
C35 C30 1.391 . S
C35 C34 1.391 . S
C35 C36 1.399 . S
C36 C35 1.399 . S
C36 C37 1.396 . S
C36 C39 1.453 . S
C36 C40 1.684 . S
C37 C27 1.723 . S
C37 C36 1.396 . S
C37 C38 1.394 . S
C38 C8 1.723 . S
C38 C34 1.397 . S
C38 C37 1.394 . S
C39 H11 0.982 . S
C39 H15 0.979 . S
C39 H16 0.977 . S
C39 C36 1.453 . S
C40 H12 0.979 . S
C40 H13 0.980 . S
C40 H14 0.983 . S
C40 C36 1.684 . S
H41 C59 0.948 . S
H42 C0 0.948 . S
H43 C18 0.979 . S
H44 C18 0.980 . S
H45 C18 0.983 . S
H46 C17 0.982 . S
H47 C17 0.979 . S
H48 C17 0.977 . S
H49 C19 0.948 . S
H50 C21 0.947 . S
H51 C22 0.948 . S
H52 C28 0.982 . S
H53 C28 0.979 . S
H54 C28 0.977 . S
H55 C29 0.979 . S
H56 C29 0.980 . S
H57 C29 0.983 . S
H58 C2 0.947 . S
C59 C2 1.392 . S
C59 C3 1.419 . S
C59 H41 0.948 . S
C60 C61 1.391 . S
C60 C64 1.391 . S
C60 H102 0.948 . S
C61 C60 1.391 . S
C61 C62 1.391 . S
C62 C61 1.391 . S
C62 H118 0.947 . S
C62 C119 1.392 . S
C63 C64 1.391 . S
C63 C67 1.397 . S
C63 C119 1.419 . S
C64 C60 1.391 . S
C64 C63 1.391 . S
C64 C65 1.399 . S
C65 C64 1.399 . S
C65 C68 1.396 . S
C65 C77 1.453 . S
C65 C78 1.684 . S
H66 C90 0.948 . S
C67 C63 1.397 . S
C67 C68 1.394 . S
C67 C86 1.723 . S
C68 C65 1.396 . S
C68 C67 1.394 . S
C68 C98 1.723 . S
H69 C92 0.947 . S
H70 C93 0.948 . S
H71 C99 0.982 . S
H72 C100 0.979 . S
H73 C100 0.980 . S
H74 C100 0.983 . S
H75 C99 0.979 . S
H76 C99 0.977 . S
C77 C65 1.453 . S
C77 H106 0.982 . S
C77 H107 0.979 . S
C77 H108 0.977 . S
C78 C65 1.684 . S
C78 H103 0.979 . S
C78 H104 0.980 . S
C78 H105 0.983 . S
C79 C80 1.391 . S
C79 C84 1.391 . S
C79 H109 0.948 . S
C80 C79 1.391 . S
C80 C81 1.391 . S
C81 C80 1.391 . S
C81 C82 1.392 . S
C81 H110 0.947 . S
C82 C81 1.392 . S
C82 C83 1.419 . S
C82 H111 0.948 . S
C83 C82 1.419 . S
C83 C84 1.391 . S
C83 C87 1.397 . S
C84 C79 1.391 . S
C84 C83 1.391 . S
C84 C85 1.399 . S
C85 C84 1.399 . S
C85 C86 1.396 . S
C85 C88 1.453 . S
C85 C89 1.684 . S
C86 C67 1.723 . S
C86 C85 1.396 . S
C86 C87 1.394 . S
C87 C83 1.397 . S
C87 C86 1.394 . S
C87 C97 1.723 . S
C88 C85 1.453 . S
C88 H112 0.982 . S
C88 H113 0.979 . S
C88 H114 0.977 . S
C89 C85 1.684 . S
C89 H115 0.979 . S
C89 H116 0.980 . S
C89 H117 0.983 . S
C90 H66 0.948 . S
C90 C91 1.391 . S
C90 C95 1.391 . S
C91 C90 1.391 . S
C91 C92 1.391 . S
C92 H69 0.947 . S
C92 C91 1.391 . S
C92 C93 1.392 . S
C93 H70 0.948 . S
C93 C92 1.392 . S
C93 C94 1.419 . S
C94 C93 1.419 . S
C94 C95 1.391 . S
C94 C98 1.397 . S
C95 C90 1.391 . S
C95 C94 1.391 . S
C95 C96 1.399 . S
C96 C95 1.399 . S
C96 C97 1.396 . S
C96 C99 1.453 . S
C96 C100 1.684 . S
C97 C87 1.723 . S
C97 C96 1.396 . S
C97 C98 1.394 . S
C98 C68 1.723 . S
C98 C94 1.397 . S
C98 C97 1.394 . S
C99 H71 0.982 . S
C99 H75 0.979 . S
C99 H76 0.977 . S
C99 C96 1.453 . S
C100 H72 0.979 . S
C100 H73 0.980 . S
C100 H74 0.983 . S
C100 C96 1.684 . S
H101 C119 0.948 . S
H102 C60 0.948 . S
H103 C78 0.979 . S
H104 C78 0.980 . S
H105 C78 0.983 . S
H106 C77 0.982 . S
H107 C77 0.979 . S
H108 C77 0.977 . S
H109 C79 0.948 . S
H110 C81 0.947 . S
H111 C82 0.948 . S
H112 C88 0.982 . S
H113 C88 0.979 . S
H114 C88 0.977 . S
H115 C89 0.979 . S
H116 C89 0.980 . S
H117 C89 0.983 . S
H118 C62 0.947 . S
C119 C62 1.392 . S
C119 C63 1.419 . S
C119 H101 0.948 . S
C120 C121 1.391 . S
C120 C124 1.391 . S
C120 H162 0.948 . S
C121 C120 1.391 . S
C121 C122 1.391 . S
C122 C121 1.391 . S
C122 H178 0.947 . S
C122 C179 1.392 . S
C123 C124 1.391 . S
C123 C127 1.397 . S
C123 C179 1.419 . S
C124 C120 1.391 . S
C124 C123 1.391 . S
C124 C125 1.399 . S
C125 C124 1.399 . S
C125 C128 1.396 . S
C125 C137 1.453 . S
C125 C138 1.684 . S
H126 C150 0.948 . S
C127 C123 1.397 . S
C127 C128 1.394 . S
C127 C146 1.723 . S
C128 C125 1.396 . S
C128 C127 1.394 . S
C128 C158 1.723 . S
H129 C152 0.947 . S
H130 C153 0.948 . S
H131 C159 0.982 . S
H132 C160 0.979 . S
H133 C160 0.980 . S
H134 C160 0.983 . S
H135 C159 0.979 . S
H136 C159 0.977 . S
C137 C125 1.453 . S
C137 H166 0.982 . S
C137 H167 0.979 . S
C137 H168 0.977 . S
C138 C125 1.684 . S
C138 H163 0.979 . S
C138 H164 0.980 . S
C138 H165 0.983 . S
C139 C140 1.391 . S
C139 C144 1.391 . S
C139 H169 0.948 . S
C140 C139 1.391 . S
C140 C141 1.391 . S
C141 C140 1.391 . S
C141 C142 1.392 . S
C141 H170 0.947 . S
C142 C141 1.392 . S
C142 C143 1.419 . S
C142 H171 0.948 . S
C143 C142 1.419 . S
C143 C144 1.391 . S
C143 C147 1.397 . S
C144 C139 1.391 . S
C144 C143 1.391 . S
C144 C145 1.399 . S
C145 C144 1.399 . S
C145 C146 1.396 . S
C145 C148 1.453 . S
C145 C149 1.684 . S
C146 C127 1.723 . S
C146 C145 1.396 . S
C146 C147 1.394 . S
C147 C143 1.397 . S
C147 C146 1.394 . S
C147 C157 1.723 . S
C148 C145 1.453 . S
C148 H172 0.982 . S
C148 H173 0.979 . S
C148 H174 0.977 . S
C149 C145 1.684 . S
C149 H175 0.979 . S
C149 H176 0.980 . S
C149 H177 0.983 . S
C150 H126 0.948 . S
C150 C151 1.391 . S
C150 C155 1.391 . S
C151 C150 1.391 . S
C151 C152 1.391 . S
C152 H129 0.947 . S
C152 C151 1.391 . S
C152 C153 1.392 . S
C153 H130 0.948 . S
C153 C152 1.392 . S
C153 C154 1.419 . S
C154 C153 1.419 . S
C154 C155 1.391 . S
C154 C158 1.397 . S
C155 C150 1.391 . S
C155 C154 1.391 . S
C155 C156 1.399 . S
C156 C155 1.399 . S
C156 C157 1.396 . S
C156 C159 1.453 . S
C156 C160 1.684 . S
C157 C147 1.723 . S
C157 C156 1.396 . S
C157 C158 1.394 . S
C158 C128 1.723 . S
C158 C154 1.397 . S
C158 C157 1.394 . S
C159 H131 0.982 . S
C159 H135 0.979 . S
C159 H136 0.977 . S
C159 C156 1.453 . S
C160 H132 0.979 . S
C160 H133 0.980 . S
C160 H134 0.983 . S
C160 C156 1.684 . S
H161 C179 0.948 . S
H162 C120 0.948 . S
H163 C138 0.979 . S
H164 C138 0.980 . S
H165 C138 0.983 . S
H166 C137 0.982 . S
H167 C137 0.979 . S
H168 C137 0.977 . S
H169 C139 0.948 . S
H170 C141 0.947 . S
H171 C142 0.948 . S
H172 C148 0.982 . S
H173 C148 0.979 . S
H174 C148 0.977 . S
H175 C149 0.979 . S
H176 C149 0.980 . S
H177 C149 0.983 . S
H178 C122 0.947 . S
C179 C122 1.392 . S
C179 C123 1.419 . S
C179 H161 0.948 . S
C180 C181 1.391 . S
C180 C184 1.391 . S
C180 H222 0.948 . S
C181 C180 1.391 . S
C181 C182 1.391 . S
C182 C181 1.391 . S
C182 H238 0.947 . S
C182 C239 1.392 . S
C183 C184 1.391 . S
C183 C187 1.397 . S
C183 C239 1.419 . S
C184 C180 1.391 . S
C184 C183 1.391 . S
C184 C185 1.399 . S
C185 C184 1.399 . S
C185 C188 1.396 . S
C185 C197 1.453 . S
C185 C198 1.684 . S
H186 C210 0.948 . S
C187 C183 1.397 . S
C187 C188 1.394 . S
C187 C206 1.723 . S
C188 C185 1.396 . S
C188 C187 1.394 . S
C188 C218 1.723 . S
H189 C212 0.947 . S
H190 C213 0.948 . S
H191 C219 0.982 . S
H192 C220 0.979 . S
H193 C220 0.980 . S
H194 C220 0.983 . S
H195 C219 0.979 . S
H196 C219 0.977 . S
C197 C185 1.453 . S
C197 H226 0.982 . S
C197 H227 0.979 . S
C197 H228 0.977 . S
C198 C185 1.684 . S
C198 H223 0.979 . S
C198 H224 0.980 . S
C198 H225 0.983 . S
C199 C200 1.391 . S
C199 C204 1.391 . S
C199 H229 0.948 . S
C200 C199 1.391 . S
C200 C201 1.391 . S
C201 C200 1.391 . S
C201 C202 1.392 . S
C201 H230 0.947 . S
C202 C201 1.392 . S
C202 C203 1.419 . S
C202 H231 0.948 . S
C203 C202 1.419 . S
C203 C204 1.391 . S
C203 C207 1.397 . S
C204 C199 1.391 . S
C204 C203 1.391 . S
C204 C205 1.399 . S
C205 C204 1.399 . S
C205 C206 1.396 . S
C205 C208 1.453 . S
C205 C209 1.684 . S
C206 C187 1.723 . S
C206 C205 1.396 . S
C206 C207 1.394 . S
C207 C203 1.397 . S
C207 C206 1.394 . S
C207 C217 1.723 . S
C208 C205 1.453 . S
C208 H232 0.982 . S
C208 H233 0.979 . S
C208 H234 0.977 . S
C209 C205 1.684 . S
C209 H235 0.979 . S
C209 H236 0.980 . S
C209 H237 0.983 . S
C210 H186 0.948 . S
C210 C211 1.391 . S
C210 C215 1.391 . S
C211 C210 1.391 . S
C211 C212 1.391 . S
C212 H189 0.947 . S
C212 C211 1.391 . S
C212 C213 1.392 . S
C213 H190 0.948 . S
C213 C212 1.392 . S
C213 C214 1.419 . S
C214 C213 1.419 . S
C214 C215 1.391 . S
C214 C218 1.397 . S
C215 C210 1.391 . S
C215 C214 1.391 . S
C215 C216 1.399 . S
C216 C215 1.399 . S
C216 C217 1.396 . S
C216 C219 1.453 . S
C216 C220 1.684 . S
C217 C207 1.723 . S
C217 C216 1.396 . S
C217 C218 1.394 . S
C218 C188 1.723 . S
C218 C214 1.397 . S
C218 C217 1.394 . S
C219 H191 0.982 . S
C219 H195 0.979 . S
C219 H196 0.977 . S
C219 C216 1.453 . S
C220 H192 0.979 . S
C220 H193 0.980 . S
C220 H194 0.983 . S
C220 C216 1.684 . S
H221 C239 0.948 . S
H222 C180 0.948 . S
H223 C198 0.979 . S
H224 C198 0.980 . S
H225 C198 0.983 . S
H226 C197 0.982 . S
H227 C197 0.979 . S
H228 C197 0.977 . S
H229 C199 0.948 . S
H230 C201 0.947 . S
H231 C202 0.948 . S
H232 C208 0.982 . S
H233 C208 0.979 . S
H234 C208 0.977 . S
H235 C209 0.979 . S
H236 C209 0.980 . S
H237 C209 0.983 . S
H238 C182 0.947 . S
C239 C182 1.392 . S
C239 C183 1.419 . S
C239 H221 0.948 . S
C240 C241 1.391 . S
C240 C244 1.391 . S
C240 H282 0.948 . S
C241 C240 1.391 . S
C241 C242 1.391 . S
C242 C241 1.391 . S
C242 H298 0.947 . S
C242 C299 1.392 . S
C243 C244 1.391 . S
C243 C247 1.397 . S
C243 C299 1.419 . S
C244 C240 1.391 . S
C244 C243 1.391 . S
C244 C245 1.399 . S
C245 C244 1.399 . S
C245 C248 1.396 . S
C245 C257 1.453 . S
C245 C258 1.684 . S
H246 C270 0.948 . S
C247 C243 1.397 . S
C247 C248 1.394 . S
C247 C266 1.723 . S
C248 C245 1.396 . S
C248 C247 1.394 . S
C248 C278 1.723 . S
H249 C272 0.947 . S
H250 C273 0.948 . S
H251 C279 0.982 . S
H252 C280 0.979 . S
H253 C280 0.980 . S
H254 C280 0.983 . S
H255 C279 0.979 . S
H256 C279 0.977 . S
C257 C245 1.453 . S
C257 H286 0.982 . S
C257 H287 0.979 . S
C257 H288 0.977 . S
C258 C245 1.684 . S
C258 H283 0.979 . S
C258 H284 0.980 . S
C258 H285 0.983 . S
C259 C260 1.391 . S
C259 C264 1.391 . S
C259 H289 0.948 . S
C260 C259 1.391 . S
C260 C261 1.391 . S
C261 C260 1.391 . S
C261 C262 1.392 . S
C261 H290 0.947 . S
C262 C261 1.392 . S
C262 C263 1.419 . S
C262 H291 0.948 . S
C263 C262 1.419 . S
C263 C264 1.391 . S
C263 C267 1.397 . S
C264 C259 1.391 . S
C264 C263 1.391 . S
C264 C265 1.399 . S
C265 C264 1.399 . S
C265 C266 1.396 . S
C265 C268 1.453 . S
C265 C269 1.684 . S
C266 C247 1.723 . S
C266 C265 1.396 . S
C266 C267 1.394 . S
C267 C263 1.397 . S
C267 C266 1.394 . S
C267 C277 1.723 . S
C268 C265 1.453 . S
C268 H292 0.982 . S
C268 H293 0.979 . S
C268 H294 0.977 . S
C269 C265 1.684 . S
C269 H295 0.979 . S
C269 H296 0.980 . S
C269 H297 0.983 . S
C270 H246 0.948 . S
C270 C271 1.391 . S
C270 C275 1.391 . S
C271 C270 1.391 . S
C271 C272 1.391 . S
C272 H249 0.947 . S
C272 C271 1.391 . S
C272 C273 1.392 . S
C273 H250 0.948 . S
C273 C272 1.392 . S
C273 C274 1.419 . S
C274 C273 1.419 . S
C274 C275 1.391 . S
C274 C278 1.397 . S
C275 C270 1.391 . S
C275 C274 1.391 . S
C275 C276 1.399 . S
C276 C275 1.399 . S
C276 C277 1.396 . S
C276 C279 1.453 . S
C276 C280 1.684 . S
C277 C267 1.723 . S
C277 C276 1.396 . S
C277 C278 1.394 . S
C278 C248 1.723 . S
C278 C274 1.397 . S
C278 C277 1.394 . S
C279 H251 0.982 . S
C279 H255 0.979 . S
C279 H256 0.977 . S
C279 C276 1.453 . S
C280 H252 0.979 . S
C280 H253 0.980 . S
C280 H254 0.983 . S
C280 C276 1.684 . S
H281 C299 0.948 . S
H282 C240 0.948 . S
H283 C258 0.979 . S
H284 C258 0.980 . S
H285 C258 0.983 . S
H286 C257 0.982 . S
H287 C257 0.979 . S
H288 C257 0.977 . S
H289 C259 0.948 . S
H290 C261 0.947 . S
H291 C262 0.948 . S
H292 C268 0.982 . S
H293 C268 0.979 . S
H294 C268 0.977 . S
H295 C269 0.979 . S
H296 C269 0.980 . S
H297 C269 0.983 . S
H298 C242 0.947 . S
C299 C242 1.392 . S
C299 C243 1.419 . S
C299 H281 0.948 . S
C300 C301 1.391 . S
C300 C304 1.391 . S
C300 H342 0.948 . S
C301 C300 1.391 . S
C301 C302 1.391 . S
C302 C301 1.391 . S
C302 H358 0.947 . S
C302 C359 1.392 . S
C303 C304 1.391 . S
C303 C307 1.397 . S
C303 C359 1.419 . S
C304 C300 1.391 . S
C304 C303 1.391 . S
C304 C305 1.399 . S
C305 C304 1.399 . S
C305 C308 1.396 . S
C305 C317 1.453 . S
C305 C318 1.684 . S
H306 C330 0.948 . S
C307 C303 1.397 . S
C307 C308 1.394 . S
C307 C326 1.723 . S
C308 C305 1.396 . S
C308 C307 1.394 . S
C308 C338 1.723 . S
H309 C332 0.947 . S
H310 C333 0.948 . S
H311 C339 0.982 . S
H312 C340 0.979 . S
H313 C340 0.980 . S
H314 C340 0.983 . S
H315 C339 0.979 . S
H316 C339 0.977 . S
C317 C305 1.453 . S
C317 H346 0.982 . S
C317 H347 0.979 . S
C317 H348 0.977 . S
C318 C305 1.684 . S
C318 H343 0.979 . S
C318 H344 0.980 . S
C318 H345 0.983 . S
C319 C320 1.391 . S
C319 C324 1.391 . S
C319 H349 0.948 . S
C320 C319 1.391 . S
C320 C321 1.391 . S
C321 C320 1.391 . S
C321 C322 1.392 . S
C321 H350 0.947 . S
C322 C321 1.392 . S
C322 C323 1.419 . S
C322 H351 0.948 . S
C323 C322 1.419 . S
C323 C324 1.391 . S
C323 C327 1.397 . S
C324 C319 1.391 . S
C324 C323 1.391 . S
C324 C325 1.399 . S
C325 C324 1.399 . S
C325 C326 1.396 . S
C325 C328 1.453 . S
C325 C329 1.684 . S
C326 C307 1.723 . S
C326 C325 1.396 . S
C326 C327 1.394 . S
C327 C323 1.397 . S
C327 C326 1.394 . S
C327 C337 1.723 . S
C328 C325 1.453 . S
C328 H352 0.982 . S
C328 H353 0.979 . S
C328 H354 0.977 . S
C329 C325 1.684 . S
C329 H355 0.979 . S
C329 H356 0.980 . S
C329 H357 0.983 . S
C330 H306 0.948 . S
C330 C331 1.391 . S
C330 C335 1.391 . S
C331 C330 1.391 . S
C331 C332 1.391 . S
C332 H309 0.947 . S
C332 C331 1.391 . S
C332 C333 1.392 . S
C333 H310 0.948 . S
C333 C332 1.392 . S
C333 C334 1.419 . S
C334 C333 1.419 . S
C334 C335 1.391 . S
C334 C338 1.397 . S
C335 C330 1.391 . S
C335 C334 1.391 . S
C335 C336 1.399 . S
C336 C335 1.399 . S
C336 C337 1.396 . S
C336 C339 1.453 . S
C336 C340 1.684 . S
C337 C327 1.723 . S
C337 C336 1.396 . S
C337 C338 1.394 . S
C338 C308 1.723 . S
C338 C334 1.397 . S
C338 C337 1.394 . S
C339 H311 0.982 . S
C339 H315 0.979 . S
C339 H316 0.977 . S
C339 C336 1.453 . S
C340 H312 0.979 . S
C340 H313 0.980 . S
C340 H314 0.983 . S
C340 C336 1.684 . S
H341 C359 0.948 . S
H342 C300 0.948 . S
H343 C318 0.979 . S
H344 C318 0.980 . S
H345 C318 0.983 . S
H346 C317 0.982 . S
H347 C317 0.979 . S
H348 C317 0.977 . S
H349 C319 0.948 . S
H350 C321 0.947 . S
H351 C322 0.948 . S
H352 C328 0.982 . S
H353 C328 0.979 . S
H354 C328 0.977 . S
H355 C329 0.979 . S
H356 C329 0.980 . S
H357 C329 0.983 . S
H358 C302 0.947 . S
C359 C302 1.392 . S
C359 C303 1.419 . S
C359 H341 0.948 . S
C360 C361 1.391 . S
C360 C364 1.391 . S
C360 H402 0.948 . S
C361 C360 1.391 . S
C361 C362 1.391 . S
C362 C361 1.391 . S
C362 H418 0.947 . S
C362 C419 1.392 . S
C363 C364 1.391 . S
C363 C367 1.397 . S
C363 C419 1.419 . S
C364 C360 1.391 . S
C364 C363 1.391 . S
C364 C365 1.399 . S
C365 C364 1.399 . S
C365 C368 1.396 . S
C365 C377 1.453 . S
C365 C378 1.684 . S
H366 C390 0.948 . S
C367 C363 1.397 . S
C367 C368 1.394 . S
C367 C386 1.723 . S
C368 C365 1.396 . S
C368 C367 1.394 . S
C368 C398 1.723 . S
H369 C392 0.947 . S
H370 C393 0.948 . S
H371 C399 0.982 . S
H372 C400 0.979 . S
H373 C400 0.980 . S
H374 C400 0.983 . S
H375 C399 0.979 . S
H376 C399 0.977 . S
C377 C365 1.453 . S
C377 H406 0.982 . S
C377 H407 0.979 . S
C377 H408 0.977 . S
C378 C365 1.684 . S
C378 H403 0.979 . S
C378 H404 0.980 . S
C378 H405 0.983 . S
C379 C380 1.391 . S
C379 C384 1.391 . S
C379 H409 0.948 . S
C380 C379 1.391 . S
C380 C381 1.391 . S
C381 C380 1.391 . S
C381 C382 1.392 . S
C381 H410 0.947 . S
C382 C381 1.392 . S
C382 C383 1.419 . S
C382 H411 0.948 . S
C383 C382 1.419 . S
C383 C384 1.391 . S
C383 C387 1.397 . S
C384 C379 1.391 . S
C384 C383 1.391 . S
C384 C385 1.399 . S
C385 C384 1.399 . S
C385 C386 1.396 . S
C385 C388 1.453 . S
C385 C389 1.684 . S
C386 C367 1.723 . S
C386 C385 1.396 . S
C386 C387 1.394 . S
C387 C383 1.397 . S
C387 C386 1.394 . S
C387 C397 1.723 . S
C388 C385 1.453 . S
C388 H412 0.982 . S
C388 H413 0.979 . S
C388 H414 0.977 . S
C389 C385 1.684 . S
C389 H415 0.979 . S
C389 H416 0.980 . S
C389 H417 0.983 . S
C390 H366 0.948 . S
C390 C391 1.391 . S
C390 C395 1.391 . S
C391 C390 1.391 . S
C391 C392 1.391 . S
C392 H369 0.947 . S
C392 C391 1.391 . S
C392 C393 1.392 . S
C393 H370 0.948 . S
C393 C392 1.392 . S
C393 C394 1.419 . S
C394 C393 1.419 . S
C394 C395 1.391 . S
C394 C398 1.397 . S
C395 C390 1.391 . S
C395 C394 1.391 . S
C395 C396 1.399 . S
C396 C395 1.399 . S
C396 C397 1.396 . S
C396 C399 1.453 . S
C396 C400 1.684 . S
C397 C387 1.723 . S
C397 C396 1.396 . S
C397 C398 1.394 . S
C398 C368 1.723 . S
C398 C394 1.397 . S
C398 C397 1.394 . S
C399 H371 0.982 . S
C399 H375 0.979 . S
C399 H376 0.977 . S
C399 C396 1.453 . S
C400 H372 0.979 . S
C400 H373 0.980 . S
C400 H374 0.983 . S
C400 C396 1.684 . S
H401 C419 0.948 . S
H402 C360 0.948 . S
H403 C378 0.979 . S
H404 C378 0.980 . S
H405 C378 0.983 . S
H406 C377 0.982 . S
H407 C377 0.979 . S
H408 C377 0.977 . S
H409 C379 0.948 . S
H410 C381 0.947 . S
H411 C382 0.948 . S
H412 C388 0.982 . S
H413 C388 0.979 . S
H414 C388 0.977 . S
H415 C389 0.979 . S
H416 C389 0.980 . S
H417 C389 0.983 . S
H418 C362 0.947 . S
C419 C362 1.392 . S
C419 C363 1.419 . S
C419 H401 0.948 . S
C420 C421 1.391 . S
C420 C424 1.391 . S
C420 H462 0.948 . S
C421 C420 1.391 . S
C421 C422 1.391 . S
C422 C421 1.391 . S
C422 H478 0.947 . S
C422 C479 1.392 . S
C423 C424 1.391 . S
C423 C427 1.397 . S
C423 C479 1.419 . S
C424 C420 1.391 . S
C424 C423 1.391 . S
C424 C425 1.399 . S
C425 C424 1.399 . S
C425 C428 1.396 . S
C425 C437 1.453 . S
C425 C438 1.684 . S
H426 C450 0.948 . S
C427 C423 1.397 . S
C427 C428 1.394 . S
C427 C446 1.723 . S
C428 C425 1.396 . S
C428 C427 1.394 . S
C428 C458 1.723 . S
H429 C452 0.947 . S
H430 C453 0.948 . S
H431 C459 0.982 . S
H432 C460 0.979 . S
H433 C460 0.980 . S
H434 C460 0.983 . S
H435 C459 0.979 . S
H436 C459 0.977 . S
C437 C425 1.453 . S
C437 H466 0.982 . S
C437 H467 0.979 . S
C437 H468 0.977 . S
C438 C425 1.684 . S
C438 H463 0.979 . S
C438 H464 0.980 . S
C438 H465 0.983 . S
C439 C440 1.391 . S
C439 C444 1.391 . S
C439 H469 0.948 . S
C440 C439 1.391 . S
C440 C441 1.391 . S
C441 C440 1.391 . S
C441 C442 1.392 . S
C441 H470 0.947 . S
C442 C441 1.392 . S
C442 C443 1.419 . S
C442 H471 0.948 . S
C443 C442 1.419 . S
C443 C444 1.391 . S
C443 C447 1.397 . S
C444 C439 1.391 . S
C444 C443 1.391 . S
C444 C445 1.399 . S
C445 C444 1.399 . S
C445 C446 1.396 . S
C445 C448 1.453 . S
C445 C449 1.684 . S
C446 C427 1.723 . S
C446 C445 1.396 . S
C446 C447 1.394 . S
C447 C443 1.397 . S
C447 C446 1.394 . S
C447 C457 1.723 . S
C448 C445 1.453 . S
C448 H472 0.982 . S
C448 H473 0.979 . S
C448 H474 0.977 . S
C449 C445 1.684 . S
C449 H475 0.979 . S
C449 H476 0.980 . S
C449 H477 0.983 . S
C450 H426 0.948 . S
C450 C451 1.391 . S
C450 C455 1.391 . S
C451 C450 1.391 . S
C451 C452 1.391 . S
C452 H429 0.947 . S
C452 C451 1.391 . S
C452 C453 1.392 . S
C453 H430 0.948 . S
C453 C452 1.392 . S
C453 C454 1.419 . S
C454 C453 1.419 . S
C454 C455 1.391 . S
C454 C458 1.397 . S
C455 C450 1.391 . S
C455 C454 1.391 . S
C455 C456 1.399 . S
C456 C455 1.399 . S
C456 C457 1.396 . S
C456 C459 1.453 . S
C456 C460 1.684 . S
C457 C447 1.723 . S
C457 C456 1.396 . S
C457 C458 1.394 . S
C458 C428 1.723 . S
C458 C454 1.397 . S
C458 C457 1.394 . S
C459 H431 0.982 . S
C459 H435 0.979 . S
C459 H436 0.977 . S
C459 C456 1.453 . S
C460 H432 0.979 . S
C460 H433 0.980 . S
C460 H434 0.983 . S
C460 C456 1.684 . S
H461 C479 0.948 . S
H462 C420 0.948 . S
H463 C438 0.979 . S
H464 C438 0.980 . S
H465 C438 0.983 . S
H466 C437 0.982 . S
H467 C437 0.979 . S
H468 C437 0.977 . S
H469 C439 0.948 . S
H470 C441 0.947 . S
H471 C442 0.948 . S
H472 C448 0.982 . S
H473 C448 0.979 . S
H474 C448 0.977 . S
H475 C449 0.979 . S
H476 C449 0.980 . S
H477 C449 0.983 . S
H478 C422 0.947 . S
C479 C422 1.392 . S
C479 C423 1.419 . S
C479 H461 0.948 . S
Tb480 C482 2.809 . S
Tb480 O500 2.484 . S
Tb480 O501 2.440 . S
Tb480 O502 2.658 1_665 S
Tb480 O503 2.409 1_565 S
Tb480 O504 2.378 1_655 S
Tb480 O508 2.325 . S
Tb480 O511 2.341 1_565 S
Tb481 C491 2.809 . S
Tb481 O502 2.325 . S
Tb481 O505 2.341 1_545 S
Tb481 O506 2.484 . S
Tb481 O507 2.440 . S
Tb481 O508 2.658 1_445 S
Tb481 O509 2.409 1_545 S
Tb481 O510 2.378 1_455 S
C482 Tb480 2.809 . S
C482 C483 1.514 . S
C482 O500 1.248 . S
C482 O501 1.266 . S
C483 C482 1.514 . S
C483 C484 1.359 . S
C483 C488 1.348 . S
C484 C483 1.359 . S
C484 C485 1.380 . S
C484 H512 0.929 . S
C485 C484 1.380 . S
C485 C486 1.347 . S
C485 H513 0.931 . S
C486 C485 1.347 . S
C486 C487 1.369 . S
C487 C486 1.369 . S
C487 C488 1.408 . S
C487 H514 0.930 . S
C488 C483 1.348 . S
C488 C487 1.408 . S
C488 H515 0.930 . S
C489 O502 1.281 . S
C489 O503 1.254 1_455 S
C490 O504 1.236 . S
C490 O505 1.266 . S
C491 Tb481 2.809 . S
C491 C492 1.514 . S
C491 O506 1.248 . S
C491 O507 1.266 . S
C492 C491 1.514 . S
C492 C493 1.359 . S
C492 C497 1.348 . S
C493 C492 1.359 . S
C493 C494 1.380 . S
C493 H516 0.929 . S
C494 C493 1.380 . S
C494 C495 1.347 . S
C494 H517 0.931 . S
C495 C494 1.347 . S
C495 C496 1.369 . S
C496 C495 1.369 . S
C496 C497 1.408 . S
C496 H518 0.930 . S
C497 C492 1.348 . S
C497 C496 1.408 . S
C497 H519 0.930 . S
C498 O508 1.281 . S
C498 O509 1.254 1_655 S
C499 O510 1.236 . S
C499 O511 1.266 . S
O500 Tb480 2.484 . S
O500 C482 1.248 . S
O501 Tb480 2.440 . S
O501 C482 1.266 . S
O502 Tb480 2.658 1_445 S
O502 Tb481 2.325 . S
O502 C489 1.281 . S
O503 Tb480 2.409 1_545 S
O503 C489 1.254 1_655 S
O504 Tb480 2.378 1_455 S
O504 C490 1.236 . S
O505 Tb481 2.341 1_565 S
O505 C490 1.266 . S
O506 Tb481 2.484 . S
O506 C491 1.248 . S
O507 Tb481 2.440 . S
O507 C491 1.266 . S
O508 Tb480 2.325 . S
O508 Tb481 2.658 1_665 S
O508 C498 1.281 . S
O509 Tb481 2.409 1_565 S
O509 C498 1.254 1_455 S
O510 Tb481 2.378 1_655 S
O510 C499 1.236 . S
O511 Tb480 2.341 1_545 S
O511 C499 1.266 . S
H512 C484 0.929 . S
H513 C485 0.931 . S
H514 C487 0.930 . S
H515 C488 0.930 . S
H516 C493 0.929 . S
H517 C494 0.931 . S
H518 C496 0.930 . S
H519 C497 0.930 . S
Tb520 C522 2.809 . S
Tb520 O540 2.484 . S
Tb520 O541 2.440 . S
Tb520 O542 2.658 1_545 S
Tb520 O543 2.409 1_545 S
Tb520 O544 2.378 . S
Tb520 O548 2.325 1_554 S
Tb520 O551 2.341 1_544 S
Tb521 C531 2.809 . S
Tb521 O542 2.325 1_556 S
Tb521 O545 2.341 1_566 S
Tb521 O546 2.484 . S
Tb521 O547 2.440 . S
Tb521 O548 2.658 1_565 S
Tb521 O549 2.409 1_565 S
Tb521 O550 2.378 . S
C522 Tb520 2.809 . S
C522 C523 1.514 . S
C522 O540 1.248 . S
C522 O541 1.266 . S
C523 C522 1.514 . S
C523 C524 1.359 . S
C523 C528 1.348 . S
C524 C523 1.359 . S
C524 C525 1.380 . S
C524 H552 0.929 . S
C525 C524 1.380 . S
C525 C526 1.347 . S
C525 H553 0.931 . S
C526 C525 1.347 . S
C526 C527 1.369 . S
C527 C526 1.369 . S
C527 C528 1.408 . S
C527 H554 0.930 . S
C528 C523 1.348 . S
C528 C527 1.408 . S
C528 H555 0.930 . S
C529 O542 1.281 . S
C529 O543 1.254 . S
C530 O544 1.236 . S
C530 O545 1.266 . S
C531 Tb521 2.809 . S
C531 C532 1.514 . S
C531 O546 1.248 . S
C531 O547 1.266 . S
C532 C531 1.514 . S
C532 C533 1.359 . S
C532 C537 1.348 . S
C533 C532 1.359 . S
C533 C534 1.380 . S
C533 H556 0.929 . S
C534 C533 1.380 . S
C534 C535 1.347 . S
C534 H557 0.931 . S
C535 C534 1.347 . S
C535 C536 1.369 . S
C536 C535 1.369 . S
C536 C537 1.408 . S
C536 H558 0.930 . S
C537 C532 1.348 . S
C537 C536 1.408 . S
C537 H559 0.930 . S
C538 O548 1.281 . S
C538 O549 1.254 . S
C539 O550 1.236 . S
C539 O551 1.266 . S
O540 Tb520 2.484 . S
O540 C522 1.248 . S
O541 Tb520 2.440 . S
O541 C522 1.266 . S
O542 Tb520 2.658 1_565 S
O542 Tb521 2.325 1_554 S
O542 C529 1.281 . S
O543 Tb520 2.409 1_565 S
O543 C529 1.254 . S
O544 Tb520 2.378 . S
O544 C530 1.236 . S
O545 Tb521 2.341 1_544 S
O545 C530 1.266 . S
O546 Tb521 2.484 . S
O546 C531 1.248 . S
O547 Tb521 2.440 . S
O547 C531 1.266 . S
O548 Tb520 2.325 1_556 S
O548 Tb521 2.658 1_545 S
O548 C538 1.281 . S
O549 Tb521 2.409 1_545 S
O549 C538 1.254 . S
O550 Tb521 2.378 . S
O550 C539 1.236 . S
O551 Tb520 2.341 1_566 S
O551 C539 1.266 . S
H552 C524 0.929 . S
H553 C525 0.931 . S
H554 C527 0.930 . S
H555 C528 0.930 . S
H556 C533 0.929 . S
H557 C534 0.931 . S
H558 C536 0.930 . S
H559 C537 0.930 . S
Tb560 C562 2.809 . S
Tb560 O580 2.484 . S
Tb560 O581 2.440 . S
Tb560 O582 2.658 . S
Tb560 O583 2.409 . S
Tb560 O584 2.378 . S
Tb560 O588 2.325 . S
Tb560 O591 2.341 . S
Tb561 C571 2.809 . S
Tb561 O582 2.325 . S
Tb561 O585 2.341 . S
Tb561 O586 2.484 . S
Tb561 O587 2.440 . S
Tb561 O588 2.658 . S
Tb561 O589 2.409 . S
Tb561 O590 2.378 . S
C562 Tb560 2.809 . S
C562 C563 1.514 . S
C562 O580 1.248 . S
C562 O581 1.266 . S
C563 C562 1.514 . S
C563 C564 1.359 . S
C563 C568 1.348 . S
C564 C563 1.359 . S
C564 C565 1.380 . S
C564 H592 0.929 . S
C565 C564 1.380 . S
C565 C566 1.347 . S
C565 H593 0.931 . S
C566 C565 1.347 . S
C566 C567 1.369 . S
C567 C566 1.369 . S
C567 C568 1.408 . S
C567 H594 0.930 . S
C568 C563 1.348 . S
C568 C567 1.408 . S
C568 H595 0.930 . S
C569 O582 1.281 . S
C569 O583 1.254 . S
C570 O584 1.236 . S
C570 O585 1.266 . S
C571 Tb561 2.809 . S
C571 C572 1.514 . S
C571 O586 1.248 . S
C571 O587 1.266 . S
C572 C571 1.514 . S
C572 C573 1.359 . S
C572 C577 1.348 . S
C573 C572 1.359 . S
C573 C574 1.380 . S
C573 H596 0.929 . S
C574 C573 1.380 . S
C574 C575 1.347 . S
C574 H597 0.931 . S
C575 C574 1.347 . S
C575 C576 1.369 . S
C576 C575 1.369 . S
C576 C577 1.408 . S
C576 H598 0.930 . S
C577 C572 1.348 . S
C577 C576 1.408 . S
C577 H599 0.930 . S
C578 O588 1.281 . S
C578 O589 1.254 . S
C579 O590 1.236 . S
C579 O591 1.266 . S
O580 Tb560 2.484 . S
O580 C562 1.248 . S
O581 Tb560 2.440 . S
O581 C562 1.266 . S
O582 Tb560 2.658 . S
O582 Tb561 2.325 . S
O582 C569 1.281 . S
O583 Tb560 2.409 . S
O583 C569 1.254 . S
O584 Tb560 2.378 . S
O584 C570 1.236 . S
O585 Tb561 2.341 . S
O585 C570 1.266 . S
O586 Tb561 2.484 . S
O586 C571 1.248 . S
O587 Tb561 2.440 . S
O587 C571 1.266 . S
O588 Tb560 2.325 . S
O588 Tb561 2.658 . S
O588 C578 1.281 . S
O589 Tb561 2.409 . S
O589 C578 1.254 . S
O590 Tb561 2.378 . S
O590 C579 1.236 . S
O591 Tb560 2.341 . S
O591 C579 1.266 . S
H592 C564 0.929 . S
H593 C565 0.931 . S
H594 C567 0.930 . S
H595 C568 0.930 . S
H596 C573 0.929 . S
H597 C574 0.931 . S
H598 C576 0.930 . S
H599 C577 0.930 . S
Tb600 C602 2.809 . S
Tb600 O620 2.484 . S
Tb600 O621 2.440 . S
Tb600 O622 2.658 1_656 S
Tb600 O623 2.408 1_656 S
Tb600 O624 2.378 1_556 S
Tb600 O628 2.325 . S
Tb600 O631 2.341 1_655 S
Tb601 C611 2.809 . S
Tb601 O622 2.325 . S
Tb601 O625 2.341 1_455 S
Tb601 O626 2.484 . S
Tb601 O627 2.440 . S
Tb601 O628 2.658 1_454 S
Tb601 O629 2.408 1_455 S
Tb601 O630 2.378 1_554 S
C602 Tb600 2.809 . S
C602 C603 1.514 . S
C602 O620 1.248 . S
C602 O621 1.266 . S
C603 C602 1.514 . S
C603 C604 1.359 . S
C603 C608 1.348 . S
C604 C603 1.359 . S
C604 C605 1.380 . S
C604 H632 0.929 . S
C605 C604 1.380 . S
C605 C606 1.347 . S
C605 H633 0.931 . S
C606 C605 1.347 . S
C606 C607 1.369 . S
C607 C606 1.369 . S
C607 C608 1.408 . S
C607 H634 0.930 . S
C608 C603 1.348 . S
C608 C607 1.408 . S
C608 H635 0.930 . S
C609 O622 1.281 . S
C609 O623 1.255 . S
C610 O624 1.236 . S
C610 O625 1.266 . S
C611 Tb601 2.809 . S
C611 C612 1.514 . S
C611 O626 1.248 . S
C611 O627 1.266 . S
C612 C611 1.514 . S
C612 C613 1.359 . S
C612 C617 1.348 . S
C613 C612 1.359 . S
C613 C614 1.380 . S
C613 H636 0.929 . S
C614 C613 1.380 . S
C614 C615 1.347 . S
C614 H637 0.931 . S
C615 C614 1.347 . S
C615 C616 1.369 . S
C616 C615 1.369 . S
C616 C617 1.408 . S
C616 H638 0.930 . S
C617 C612 1.348 . S
C617 C616 1.408 . S
C617 H639 0.930 . S
C618 O628 1.281 . S
C618 O629 1.255 1_556 S
C619 O630 1.236 . S
C619 O631 1.266 . S
O620 Tb600 2.484 . S
O620 C602 1.248 . S
O621 Tb600 2.440 . S
O621 C602 1.266 . S
O622 Tb600 2.658 1_454 S
O622 Tb601 2.325 . S
O622 C609 1.281 . S
O623 Tb600 2.408 1_454 S
O623 C609 1.255 . S
O624 Tb600 2.378 1_554 S
O624 C610 1.236 . S
O625 Tb601 2.341 1_655 S
O625 C610 1.266 . S
O626 Tb601 2.484 . S
O626 C611 1.248 . S
O627 Tb601 2.440 . S
O627 C611 1.266 . S
O628 Tb600 2.325 . S
O628 Tb601 2.658 1_656 S
O628 C618 1.281 . S
O629 Tb601 2.408 1_655 S
O629 C618 1.255 1_554 S
O630 Tb601 2.378 1_556 S
O630 C619 1.236 . S
O631 Tb600 2.341 1_455 S
O631 C619 1.266 . S
H632 C604 0.929 . S
H633 C605 0.931 . S
H634 C607 0.930 . S
H635 C608 0.930 . S
H636 C613 0.929 . S
H637 C614 0.931 . S
H638 C616 0.930 . S
H639 C617 0.930 . S
H640 C646 0.930 . S
H641 C650 0.930 . S
H642 C655 0.929 . S
H643 C653 0.929 . S
H644 C648 0.929 . S
H645 C654 0.929 . S
C646 H640 0.930 . S
C646 C647 1.367 . S
C646 C654 1.378 . S
C647 C646 1.367 . S
C647 C655 1.433 . S
C648 H644 0.929 . S
C648 C650 1.378 . S
C648 C652 1.350 . S
C649 C652 1.463 . S
C649 C654 1.350 . S
C649 N657 1.427 . S
C650 H641 0.930 . S
C650 C648 1.378 . S
C650 C651 1.367 . S
C651 C650 1.367 . S
C651 C653 1.433 . S
C652 C648 1.350 . S
C652 C649 1.463 . S
C652 N656 1.427 . S
C653 H643 0.929 . S
C653 C651 1.433 . S
C653 N656 1.384 . S
C654 H645 0.929 . S
C654 C646 1.378 . S
C654 C649 1.350 . S
C655 H642 0.929 . S
C655 C647 1.433 . S
C655 N657 1.384 . S
N656 C652 1.427 . S
N656 C653 1.384 . S
N657 C649 1.427 . S
N657 C655 1.384 . S
H658 C664 0.930 . S
H659 C668 0.930 . S
H660 C673 0.929 . S
H661 C671 0.929 . S
H662 C666 0.929 . S
H663 C672 0.929 . S
C664 H658 0.930 . S
C664 C665 1.367 . S
C664 C672 1.378 . S
C665 C664 1.367 . S
C665 C673 1.433 . S
C666 H662 0.929 . S
C666 C668 1.378 . S
C666 C670 1.350 . S
C667 C670 1.463 . S
C667 C672 1.350 . S
C667 N675 1.427 . S
C668 H659 0.930 . S
C668 C666 1.378 . S
C668 C669 1.367 . S
C669 C668 1.367 . S
C669 C671 1.433 . S
C670 C666 1.350 . S
C670 C667 1.463 . S
C670 N674 1.427 . S
C671 H661 0.929 . S
C671 C669 1.433 . S
C671 N674 1.384 . S
C672 H663 0.929 . S
C672 C664 1.378 . S
C672 C667 1.350 . S
C673 H660 0.929 . S
C673 C665 1.433 . S
C673 N675 1.384 . S
N674 C670 1.427 . S
N674 C671 1.384 . S
N675 C667 1.427 . S
N675 C673 1.384 . S
H676 C682 0.930 . S
H677 C686 0.930 . S
H678 C691 0.929 . S
H679 C689 0.929 . S
H680 C684 0.929 . S
H681 C690 0.929 . S
C682 H676 0.930 . S
C682 C683 1.367 . S
C682 C690 1.378 . S
C683 C682 1.367 . S
C683 C691 1.433 . S
C684 H680 0.929 . S
C684 C686 1.378 . S
C684 C688 1.350 . S
C685 C688 1.463 . S
C685 C690 1.350 . S
C685 N693 1.427 . S
C686 H677 0.930 . S
C686 C684 1.378 . S
C686 C687 1.367 . S
C687 C686 1.367 . S
C687 C689 1.433 . S
C688 C684 1.350 . S
C688 C685 1.463 . S
C688 N692 1.427 . S
C689 H679 0.929 . S
C689 C687 1.433 . S
C689 N692 1.384 . S
C690 H681 0.929 . S
C690 C682 1.378 . S
C690 C685 1.350 . S
C691 H678 0.929 . S
C691 C683 1.433 . S
C691 N693 1.384 . S
N692 C688 1.427 . S
N692 C689 1.384 . S
N693 C685 1.427 . S
N693 C691 1.384 . S
H694 C700 0.930 . S
H695 C704 0.930 . S
H696 C709 0.929 . S
H697 C707 0.929 . S
H698 C702 0.929 . S
H699 C708 0.929 . S
C700 H694 0.930 . S
C700 C701 1.367 . S
C700 C708 1.378 . S
C701 C700 1.367 . S
C701 C709 1.433 . S
C702 H698 0.929 . S
C702 C704 1.378 . S
C702 C706 1.350 . S
C703 C706 1.463 . S
C703 C708 1.350 . S
C703 N711 1.427 . S
C704 H695 0.930 . S
C704 C702 1.378 . S
C704 C705 1.367 . S
C705 C704 1.367 . S
C705 C707 1.433 . S
C706 C702 1.350 . S
C706 C703 1.463 . S
C706 N710 1.427 . S
C707 H697 0.929 . S
C707 C705 1.433 . S
C707 N710 1.384 . S
C708 H699 0.929 . S
C708 C700 1.378 . S
C708 C703 1.350 . S
C709 H696 0.929 . S
C709 C701 1.433 . S
C709 N711 1.384 . S
N710 C706 1.427 . S
N710 C707 1.384 . S
N711 C703 1.427 . S
N711 C709 1.384 . S
H712 C718 0.930 . S
H713 C722 0.930 . S
H714 C727 0.929 . S
H715 C725 0.929 . S
H716 C720 0.929 . S
H717 C726 0.929 . S
C718 H712 0.930 . S
C718 C719 1.367 . S
C718 C726 1.378 . S
C719 C718 1.367 . S
C719 C727 1.433 . S
C720 H716 0.929 . S
C720 C722 1.378 . S
C720 C724 1.350 . S
C721 C724 1.463 . S
C721 C726 1.350 . S
C721 N729 1.427 . S
C722 H713 0.930 . S
C722 C720 1.378 . S
C722 C723 1.367 . S
C723 C722 1.367 . S
C723 C725 1.433 . S
C724 C720 1.350 . S
C724 C721 1.463 . S
C724 N728 1.427 . S
C725 H715 0.929 . S
C725 C723 1.433 . S
C725 N728 1.384 . S
C726 H717 0.929 . S
C726 C718 1.378 . S
C726 C721 1.350 . S
C727 H714 0.929 . S
C727 C719 1.433 . S
C727 N729 1.384 . S
N728 C724 1.427 . S
N728 C725 1.384 . S
N729 C721 1.427 . S
N729 C727 1.384 . S
H730 C736 0.930 . S
H731 C740 0.930 1_655 S
H732 C745 0.929 . S
H733 C743 0.929 . S
H734 C738 0.929 . S
H735 C744 0.929 . S
C736 H730 0.930 . S
C736 C737 1.367 . S
C736 C744 1.378 . S
C737 C736 1.367 . S
C737 C745 1.433 . S
C738 H734 0.929 . S
C738 C740 1.378 . S
C738 C742 1.350 . S
C739 C742 1.463 . S
C739 C744 1.350 . S
C739 N747 1.427 . S
C740 H731 0.930 1_455 S
C740 C738 1.378 . S
C740 C741 1.367 . S
C741 C740 1.367 . S
C741 C743 1.433 . S
C742 C738 1.350 . S
C742 C739 1.463 . S
C742 N746 1.427 . S
C743 H733 0.929 . S
C743 C741 1.433 . S
C743 N746 1.384 . S
C744 H735 0.929 . S
C744 C736 1.378 . S
C744 C739 1.350 . S
C745 H732 0.929 . S
C745 C737 1.433 . S
C745 N747 1.384 . S
N746 C742 1.427 . S
N746 C743 1.384 . S
N747 C739 1.427 . S
N747 C745 1.384 . S
H748 C754 0.930 . S
H749 C758 0.930 . S
H750 C763 0.929 . S
H751 C761 0.929 . S
H752 C756 0.929 . S
H753 C762 0.929 . S
C754 H748 0.930 . S
C754 C755 1.367 . S
C754 C762 1.378 . S
C755 C754 1.367 . S
C755 C763 1.433 . S
C756 H752 0.929 . S
C756 C758 1.378 . S
C756 C760 1.350 . S
C757 C760 1.463 . S
C757 C762 1.350 . S
C757 N765 1.427 . S
C758 H749 0.930 . S
C758 C756 1.378 . S
C758 C759 1.367 . S
C759 C758 1.367 . S
C759 C761 1.433 . S
C760 C756 1.350 . S
C760 C757 1.463 . S
C760 N764 1.427 . S
C761 H751 0.929 . S
C761 C759 1.433 . S
C761 N764 1.384 . S
C762 H753 0.929 . S
C762 C754 1.378 . S
C762 C757 1.350 . S
C763 H750 0.929 . S
C763 C755 1.433 . S
C763 N765 1.384 . S
N764 C760 1.427 . S
N764 C761 1.384 . S
N765 C757 1.427 . S
N765 C763 1.384 . S
H766 C772 0.930 . S
H767 C776 0.930 . S
H768 C781 0.929 . S
H769 C779 0.929 . S
H770 C774 0.929 . S
H771 C780 0.929 . S
C772 H766 0.930 . S
C772 C773 1.367 . S
C772 C780 1.378 . S
C773 C772 1.367 . S
C773 C781 1.433 . S
C774 H770 0.929 . S
C774 C776 1.378 . S
C774 C778 1.350 . S
C775 C778 1.463 . S
C775 C780 1.350 . S
C775 N783 1.427 . S
C776 H767 0.930 . S
C776 C774 1.378 . S
C776 C777 1.367 . S
C777 C776 1.367 . S
C777 C779 1.433 . S
C778 C774 1.350 . S
C778 C775 1.463 . S
C778 N782 1.427 . S
C779 H769 0.929 . S
C779 C777 1.433 . S
C779 N782 1.384 . S
C780 H771 0.929 . S
C780 C772 1.378 . S
C780 C775 1.350 . S
C781 H768 0.929 . S
C781 C773 1.433 . S
C781 N783 1.384 . S
N782 C778 1.427 . S
N782 C779 1.384 . S
N783 C775 1.427 . S
N783 C781 1.384 . S
H784 C790 0.930 . S
H785 C794 0.930 . S
H786 C799 0.929 . S
H787 C797 0.929 . S
H788 C792 0.929 . S
H789 C798 0.929 . S
C790 H784 0.930 . S
C790 C791 1.367 . S
C790 C798 1.378 . S
C791 C790 1.367 . S
C791 C799 1.433 . S
C792 H788 0.929 . S
C792 C794 1.378 . S
C792 C796 1.350 . S
C793 C796 1.463 . S
C793 C798 1.350 . S
C793 N801 1.427 . S
C794 H785 0.930 . S
C794 C792 1.378 . S
C794 C795 1.367 . S
C795 C794 1.367 . S
C795 C797 1.433 . S
C796 C792 1.350 . S
C796 C793 1.463 . S
C796 N800 1.427 . S
C797 H787 0.929 . S
C797 C795 1.433 . S
C797 N800 1.384 . S
C798 H789 0.929 . S
C798 C790 1.378 . S
C798 C793 1.350 . S
C799 H786 0.929 . S
C799 C791 1.433 . S
C799 N801 1.384 . S
N800 C796 1.427 . S
N800 C797 1.384 . S
N801 C793 1.427 . S
N801 C799 1.384 . S
H802 C808 0.930 . S
H803 C812 0.930 . S
H804 C817 0.929 . S
H805 C815 0.929 . S
H806 C810 0.929 . S
H807 C816 0.929 . S
C808 H802 0.930 . S
C808 C809 1.367 . S
C808 C816 1.378 . S
C809 C808 1.367 . S
C809 C817 1.433 . S
C810 H806 0.929 . S
C810 C812 1.378 . S
C810 C814 1.350 . S
C811 C814 1.463 . S
C811 C816 1.350 . S
C811 N819 1.427 . S
C812 H803 0.930 . S
C812 C810 1.378 . S
C812 C813 1.367 . S
C813 C812 1.367 . S
C813 C815 1.433 . S
C814 C810 1.350 . S
C814 C811 1.463 . S
C814 N818 1.427 . S
C815 H805 0.929 . S
C815 C813 1.433 . S
C815 N818 1.384 . S
C816 H807 0.929 . S
C816 C808 1.378 . S
C816 C811 1.350 . S
C817 H804 0.929 . S
C817 C809 1.433 . S
C817 N819 1.384 . S
N818 C814 1.427 . S
N818 C815 1.384 . S
N819 C811 1.427 . S
N819 C817 1.384 . S
H820 C826 0.930 . S
H821 C830 0.930 . S
H822 C835 0.929 . S
H823 C833 0.929 . S
H824 C828 0.929 . S
H825 C834 0.929 . S
C826 H820 0.930 . S
C826 C827 1.367 . S
C826 C834 1.378 . S
C827 C826 1.367 . S
C827 C835 1.433 . S
C828 H824 0.929 . S
C828 C830 1.378 . S
C828 C832 1.350 . S
C829 C832 1.463 . S
C829 C834 1.350 . S
C829 N837 1.427 . S
C830 H821 0.930 . S
C830 C828 1.378 . S
C830 C831 1.367 . S
C831 C830 1.367 . S
C831 C833 1.433 . S
C832 C828 1.350 . S
C832 C829 1.463 . S
C832 N836 1.427 . S
C833 H823 0.929 . S
C833 C831 1.433 . S
C833 N836 1.384 . S
C834 H825 0.929 . S
C834 C826 1.378 . S
C834 C829 1.350 . S
C835 H822 0.929 . S
C835 C827 1.433 . S
C835 N837 1.384 . S
N836 C832 1.427 . S
N836 C833 1.384 . S
N837 C829 1.427 . S
N837 C835 1.384 . S
H838 C844 0.930 . S
H839 C848 0.930 . S
H840 C853 0.929 . S
H841 C851 0.929 . S
H842 C846 0.929 . S
H843 C852 0.929 . S
C844 H838 0.930 . S
C844 C845 1.367 . S
C844 C852 1.378 . S
C845 C844 1.367 . S
C845 C853 1.433 . S
C846 H842 0.929 . S
C846 C848 1.378 . S
C846 C850 1.350 . S
C847 C850 1.463 . S
C847 C852 1.350 . S
C847 N855 1.427 . S
C848 H839 0.930 . S
C848 C846 1.378 . S
C848 C849 1.367 . S
C849 C848 1.367 . S
C849 C851 1.433 . S
C850 C846 1.350 . S
C850 C847 1.463 . S
C850 N854 1.427 . S
C851 H841 0.929 . S
C851 C849 1.433 . S
C851 N854 1.384 . S
C852 H843 0.929 . S
C852 C844 1.378 . S
C852 C847 1.350 . S
C853 H840 0.929 . S
C853 C845 1.433 . S
C853 N855 1.384 . S
N854 C850 1.427 . S
N854 C851 1.384 . S
N855 C847 1.427 . S
N855 C853 1.384 . S
H856 C862 0.930 . S
H857 C866 0.930 . S
H858 C871 0.929 . S
H859 C869 0.929 . S
H860 C864 0.929 . S
H861 C870 0.929 . S
C862 H856 0.930 . S
C862 C863 1.367 . S
C862 C870 1.378 . S
C863 C862 1.367 . S
C863 C871 1.433 . S
C864 H860 0.929 . S
C864 C866 1.378 . S
C864 C868 1.350 . S
C865 C868 1.463 . S
C865 C870 1.350 . S
C865 N873 1.427 . S
C866 H857 0.930 . S
C866 C864 1.378 . S
C866 C867 1.367 . S
C867 C866 1.367 . S
C867 C869 1.433 . S
C868 C864 1.350 . S
C868 C865 1.463 . S
C868 N872 1.427 . S
C869 H859 0.929 . S
C869 C867 1.433 . S
C869 N872 1.384 . S
C870 H861 0.929 . S
C870 C862 1.378 . S
C870 C865 1.350 . S
C871 H858 0.929 . S
C871 C863 1.433 . S
C871 N873 1.384 . S
N872 C868 1.427 . S
N872 C869 1.384 . S
N873 C865 1.427 . S
N873 C871 1.384 . S
H874 C880 0.930 . S
H875 C884 0.930 . S
H876 C889 0.929 . S
H877 C887 0.929 . S
H878 C882 0.929 . S
H879 C888 0.929 . S
C880 H874 0.930 . S
C880 C881 1.367 . S
C880 C888 1.378 . S
C881 C880 1.367 . S
C881 C889 1.433 . S
C882 H878 0.929 . S
C882 C884 1.378 . S
C882 C886 1.350 . S
C883 C886 1.463 . S
C883 C888 1.350 . S
C883 N891 1.427 . S
C884 H875 0.930 . S
C884 C882 1.378 . S
C884 C885 1.367 . S
C885 C884 1.367 . S
C885 C887 1.433 . S
C886 C882 1.350 . S
C886 C883 1.463 . S
C886 N890 1.427 . S
C887 H877 0.929 . S
C887 C885 1.433 . S
C887 N890 1.384 . S
C888 H879 0.929 . S
C888 C880 1.378 . S
C888 C883 1.350 . S
C889 H876 0.929 . S
C889 C881 1.433 . S
C889 N891 1.384 . S
N890 C886 1.427 . S
N890 C887 1.384 . S
N891 C883 1.427 . S
N891 C889 1.384 . S
H892 C898 0.930 . S
H893 C902 0.930 . S
H894 C907 0.929 . S
H895 C905 0.929 . S
H896 C900 0.929 . S
H897 C906 0.929 . S
C898 H892 0.930 . S
C898 C899 1.367 . S
C898 C906 1.378 . S
C899 C898 1.367 . S
C899 C907 1.433 . S
C900 H896 0.929 . S
C900 C902 1.378 . S
C900 C904 1.350 . S
C901 C904 1.463 . S
C901 C906 1.350 . S
C901 N909 1.427 . S
C902 H893 0.930 . S
C902 C900 1.378 . S
C902 C903 1.367 . S
C903 C902 1.367 . S
C903 C905 1.433 . S
C904 C900 1.350 . S
C904 C901 1.463 . S
C904 N908 1.427 . S
C905 H895 0.929 . S
C905 C903 1.433 . S
C905 N908 1.384 . S
C906 H897 0.929 . S
C906 C898 1.378 . S
C906 C901 1.350 . S
C907 H894 0.929 . S
C907 C899 1.433 . S
C907 N909 1.384 . S
N908 C904 1.427 . S
N908 C905 1.384 . S
N909 C901 1.427 . S
N909 C907 1.384 . S
H910 C916 0.930 . S
H911 C920 0.930 . S
H912 C925 0.929 . S
H913 C923 0.929 . S
H914 C918 0.929 . S
H915 C924 0.929 . S
C916 H910 0.930 . S
C916 C917 1.367 . S
C916 C924 1.378 . S
C917 C916 1.367 . S
C917 C925 1.433 . S
C918 H914 0.929 . S
C918 C920 1.378 . S
C918 C922 1.350 . S
C919 C922 1.463 . S
C919 C924 1.350 . S
C919 N927 1.427 . S
C920 H911 0.930 . S
C920 C918 1.378 . S
C920 C921 1.367 . S
C921 C920 1.367 . S
C921 C923 1.433 . S
C922 C918 1.350 . S
C922 C919 1.463 . S
C922 N926 1.427 . S
C923 H913 0.929 . S
C923 C921 1.433 . S
C923 N926 1.384 . S
C924 H915 0.929 . S
C924 C916 1.378 . S
C924 C919 1.350 . S
C925 H912 0.929 . S
C925 C917 1.433 . S
C925 N927 1.384 . S
N926 C922 1.427 . S
N926 C923 1.384 . S
N927 C919 1.427 . S
N927 C925 1.384 . S
H928 C934 0.930 . S
H929 C938 0.930 . S
H930 C943 0.929 . S
H931 C941 0.929 . S
H932 C936 0.929 . S
H933 C942 0.929 . S
C934 H928 0.930 . S
C934 C935 1.367 . S
C934 C942 1.378 . S
C935 C934 1.367 . S
C935 C943 1.433 . S
C936 H932 0.929 . S
C936 C938 1.378 . S
C936 C940 1.350 . S
C937 C940 1.463 . S
C937 C942 1.350 . S
C937 N945 1.427 . S
C938 H929 0.930 . S
C938 C936 1.378 . S
C938 C939 1.367 . S
C939 C938 1.367 . S
C939 C941 1.433 . S
C940 C936 1.350 . S
C940 C937 1.463 . S
C940 N944 1.427 . S
C941 H931 0.929 . S
C941 C939 1.433 . S
C941 N944 1.384 . S
C942 H933 0.929 . S
C942 C934 1.378 . S
C942 C937 1.350 . S
C943 H930 0.929 . S
C943 C935 1.433 . S
C943 N945 1.384 . S
N944 C940 1.427 . S
N944 C941 1.384 . S
N945 C937 1.427 . S
N945 C943 1.384 . S
H946 C952 0.930 . S
H947 C956 0.930 . S
H948 C961 0.929 . S
H949 C959 0.929 . S
H950 C954 0.929 . S
H951 C960 0.929 . S
C952 H946 0.930 . S
C952 C953 1.367 . S
C952 C960 1.378 . S
C953 C952 1.367 . S
C953 C961 1.433 . S
C954 H950 0.929 . S
C954 C956 1.378 . S
C954 C958 1.350 . S
C955 C958 1.463 . S
C955 C960 1.350 . S
C955 N963 1.427 . S
C956 H947 0.930 . S
C956 C954 1.378 . S
C956 C957 1.367 . S
C957 C956 1.367 . S
C957 C959 1.433 . S
C958 C954 1.350 . S
C958 C955 1.463 . S
C958 N962 1.427 . S
C959 H949 0.929 . S
C959 C957 1.433 . S
C959 N962 1.384 . S
C960 H951 0.929 . S
C960 C952 1.378 . S
C960 C955 1.350 . S
C961 H948 0.929 . S
C961 C953 1.433 . S
C961 N963 1.384 . S
N962 C958 1.427 . S
N962 C959 1.384 . S
N963 C955 1.427 . S
N963 C961 1.384 . S
H964 C970 0.930 . S
H965 C974 0.930 . S
H966 C979 0.929 . S
H967 C977 0.929 . S
H968 C972 0.929 . S
H969 C978 0.929 . S
C970 H964 0.930 . S
C970 C971 1.367 . S
C970 C978 1.378 . S
C971 C970 1.367 . S
C971 C979 1.433 . S
C972 H968 0.929 . S
C972 C974 1.378 . S
C972 C976 1.350 . S
C973 C976 1.463 . S
C973 C978 1.350 . S
C973 N981 1.427 . S
C974 H965 0.930 . S
C974 C972 1.378 . S
C974 C975 1.367 . S
C975 C974 1.367 . S
C975 C977 1.433 . S
C976 C972 1.350 . S
C976 C973 1.463 . S
C976 N980 1.427 . S
C977 H967 0.929 . S
C977 C975 1.433 . S
C977 N980 1.384 . S
C978 H969 0.929 . S
C978 C970 1.378 . S
C978 C973 1.350 . S
C979 H966 0.929 . S
C979 C971 1.433 . S
C979 N981 1.384 . S
N980 C976 1.427 . S
N980 C977 1.384 . S
N981 C973 1.427 . S
N981 C979 1.384 . S
H982 C988 0.930 . S
H983 C992 0.930 . S
H984 C997 0.929 . S
H985 C995 0.929 . S
H986 C990 0.929 . S
H987 C996 0.929 . S
C988 H982 0.930 . S
C988 C989 1.367 . S
C988 C996 1.378 . S
C989 C988 1.367 . S
C989 C997 1.433 . S
C990 H986 0.929 . S
C990 C992 1.378 . S
C990 C994 1.350 . S
C991 C994 1.463 . S
C991 C996 1.350 . S
C991 N999 1.427 . S
C992 H983 0.930 . S
C992 C990 1.378 . S
C992 C993 1.367 . S
C993 C992 1.367 . S
C993 C995 1.433 . S
C994 C990 1.350 . S
C994 C991 1.463 . S
C994 N998 1.427 . S
C995 H985 0.929 . S
C995 C993 1.433 . S
C995 N998 1.384 . S
C996 H987 0.929 . S
C996 C988 1.378 . S
C996 C991 1.350 . S
C997 H984 0.929 . S
C997 C989 1.433 . S
C997 N999 1.384 . S
N998 C994 1.427 . S
N998 C995 1.384 . S
N999 C991 1.427 . S
N999 C997 1.384 . S
H1000 C1006 0.930 . S
H1001 C1010 0.930 . S
H1002 C1015 0.929 . S
H1003 C1013 0.929 . S
H1004 C1008 0.929 . S
H1005 C1014 0.929 . S
C1006 H1000 0.930 . S
C1006 C1007 1.367 . S
C1006 C1014 1.378 . S
C1007 C1006 1.367 . S
C1007 C1015 1.433 . S
C1008 H1004 0.929 . S
C1008 C1010 1.378 . S
C1008 C1012 1.350 . S
C1009 C1012 1.463 . S
C1009 C1014 1.350 . S
C1009 N1017 1.427 . S
C1010 H1001 0.930 . S
C1010 C1008 1.378 . S
C1010 C1011 1.367 . S
C1011 C1010 1.367 . S
C1011 C1013 1.433 . S
C1012 C1008 1.350 . S
C1012 C1009 1.463 . S
C1012 N1016 1.427 . S
C1013 H1003 0.929 . S
C1013 C1011 1.433 . S
C1013 N1016 1.384 . S
C1014 H1005 0.929 . S
C1014 C1006 1.378 . S
C1014 C1009 1.350 . S
C1015 H1002 0.929 . S
C1015 C1007 1.433 . S
C1015 N1017 1.384 . S
N1016 C1012 1.427 . S
N1016 C1013 1.384 . S
N1017 C1009 1.427 . S
N1017 C1015 1.384 . S
H1018 C1024 0.930 . S
H1019 C1028 0.930 . S
H1020 C1033 0.929 . S
H1021 C1031 0.929 . S
H1022 C1026 0.929 . S
H1023 C1032 0.929 . S
C1024 H1018 0.930 . S
C1024 C1025 1.367 . S
C1024 C1032 1.378 . S
C1025 C1024 1.367 . S
C1025 C1033 1.433 . S
C1026 H1022 0.929 . S
C1026 C1028 1.378 . S
C1026 C1030 1.350 . S
C1027 C1030 1.463 . S
C1027 C1032 1.350 . S
C1027 N1035 1.427 . S
C1028 H1019 0.930 . S
C1028 C1026 1.378 . S
C1028 C1029 1.367 . S
C1029 C1028 1.367 . S
C1029 C1031 1.433 . S
C1030 C1026 1.350 . S
C1030 C1027 1.463 . S
C1030 N1034 1.427 . S
C1031 H1021 0.929 . S
C1031 C1029 1.433 . S
C1031 N1034 1.384 . S
C1032 H1023 0.929 . S
C1032 C1024 1.378 . S
C1032 C1027 1.350 . S
C1033 H1020 0.929 . S
C1033 C1025 1.433 . S
C1033 N1035 1.384 . S
N1034 C1030 1.427 . S
N1034 C1031 1.384 . S
N1035 C1027 1.427 . S
N1035 C1033 1.384 . S
H1036 C1042 0.930 . S
H1037 C1046 0.930 . S
H1038 C1051 0.929 . S
H1039 C1049 0.929 . S
H1040 C1044 0.929 . S
H1041 C1050 0.929 . S
C1042 H1036 0.930 . S
C1042 C1043 1.367 . S
C1042 C1050 1.378 . S
C1043 C1042 1.367 . S
C1043 C1051 1.433 . S
C1044 H1040 0.929 . S
C1044 C1046 1.378 . S
C1044 C1048 1.350 . S
C1045 C1048 1.463 . S
C1045 C1050 1.350 . S
C1045 N1053 1.427 . S
C1046 H1037 0.930 . S
C1046 C1044 1.378 . S
C1046 C1047 1.367 . S
C1047 C1046 1.367 . S
C1047 C1049 1.433 . S
C1048 C1044 1.350 . S
C1048 C1045 1.463 . S
C1048 N1052 1.427 . S
C1049 H1039 0.929 . S
C1049 C1047 1.433 . S
C1049 N1052 1.384 . S
C1050 H1041 0.929 . S
C1050 C1042 1.378 . S
C1050 C1045 1.350 . S
C1051 H1038 0.929 . S
C1051 C1043 1.433 . S
C1051 N1053 1.384 . S
N1052 C1048 1.427 . S
N1052 C1049 1.384 . S
N1053 C1045 1.427 . S
N1053 C1051 1.384 . S
H1054 C1060 0.930 . S
H1055 C1064 0.930 . S
H1056 C1069 0.929 . S
H1057 C1067 0.929 . S
H1058 C1062 0.929 . S
H1059 C1068 0.929 . S
C1060 H1054 0.930 . S
C1060 C1061 1.367 . S
C1060 C1068 1.378 . S
C1061 C1060 1.367 . S
C1061 C1069 1.433 . S
C1062 H1058 0.929 . S
C1062 C1064 1.378 . S
C1062 C1066 1.350 . S
C1063 C1066 1.463 . S
C1063 C1068 1.350 . S
C1063 N1071 1.427 . S
C1064 H1055 0.930 . S
C1064 C1062 1.378 . S
C1064 C1065 1.367 . S
C1065 C1064 1.367 . S
C1065 C1067 1.433 . S
C1066 C1062 1.350 . S
C1066 C1063 1.463 . S
C1066 N1070 1.427 . S
C1067 H1057 0.929 . S
C1067 C1065 1.433 . S
C1067 N1070 1.384 . S
C1068 H1059 0.929 . S
C1068 C1060 1.378 . S
C1068 C1063 1.350 . S
C1069 H1056 0.929 . S
C1069 C1061 1.433 . S
C1069 N1071 1.384 . S
N1070 C1066 1.427 . S
N1070 C1067 1.384 . S
N1071 C1063 1.427 . S
N1071 C1069 1.384 . S
C647 C1 1.245 . S
C651 C495 1.336 . S
C665 C80 1.308 . S
C669 C535 1.335 . S
C687 C569 2.267 . S
C683 C140 2.235 . S
C701 C211 2.653 . S
C705 C610 2.607 . S
C723 C530 1.449 . S
C719 C31 1.339 . S
C741 C490 2.194 . S
C737 C61 2.069 . S
C759 C618 1.570 . S
C755 C151 1.548 . S
C777 C579 1.828 . S
C773 C200 1.916 . S
C791 C20 1.333 . S
C795 C615 1.390 . S
C813 C538 1.998 . S
C809 C121 2.056 . S
C827 C181 2.416 . S
C831 C498 2.398 . S
C845 C91 1.629 . S
C849 C566 1.636 . S
C867 C486 1.334 . S
C863 C260 1.315 . S
C881 C320 1.298 . S
C885 C526 1.327 . S
C899 C361 2.216 . S
C903 C578 2.267 . S
C917 C451 2.655 . S
C921 C619 2.602 . S
C935 C271 1.377 . S
C939 C539 1.450 . S
C957 C499 2.194 . S
C953 C301 2.072 . S
C975 C609 1.570 . S
C971 C380 1.521 . S
C993 C570 1.834 . S
C989 C440 1.917 . S
C1007 C241 1.279 . S
C1011 C606 1.401 . S
C1029 C529 1.992 . S
C1025 C391 2.031 . S
C1047 C489 2.393 . S
C1043 C421 2.410 . S
C1061 C331 1.627 . S
C1065 C575 1.629 . S
