# Generated by pormake.
# Topology pyr, (3,6)-cn, num edge types: 1
# Building blocks:
#     Node 0, Type 0, BuildingBlock: CUQRIR_clean_linker_1, # of connection points: 3
#     Node 1, Type 0, BuildingBlock: CUQRIR_clean_linker_1, # of connection points: 3
#     Node 2, Type 0, BuildingBlock: CUQRIR_clean_linker_1, # of connection points: 3
#     Node 3, Type 0, BuildingBlock: CUQRIR_clean_linker_1, # of connection points: 3
#     Node 4, Type 0, BuildingBlock: CUQRIR_clean_linker_1, # of connection points: 3
#     Node 5, Type 0, BuildingBlock: CUQRIR_clean_linker_1, # of connection points: 3
#     Node 6, Type 0, BuildingBlock: CUQRIR_clean_linker_1, # of connection points: 3
#     Node 7, Type 0, BuildingBlock: CUQRIR_clean_linker_1, # of connection points: 3
#     Node 8, Type 1, BuildingBlock: JUFBIX_clean_sbu_0, # of connection points: 6
#     Node 9, Type 1, BuildingBlock: JUFBIX_clean_sbu_0, # of connection points: 6
#     Node 10, Type 1, BuildingBlock: JUFBIX_clean_sbu_0, # of connection points: 6
#     Node 11, Type 1, BuildingBlock: JUFBIX_clean_sbu_0, # of connection points: 6
#     Edge 12, Type (0, 1), BuildingBlock: UVAHIK_clean_linker_0, # of connection points: 2
#     Edge 13, Type (0, 1), BuildingBlock: UVAHIK_clean_linker_0, # of connection points: 2
#     Edge 14, Type (0, 1), BuildingBlock: UVAHIK_clean_linker_0, # of connection points: 2
#     Edge 15, Type (0, 1), BuildingBlock: UVAHIK_clean_linker_0, # of connection points: 2
#     Edge 16, Type (0, 1), BuildingBlock: UVAHIK_clean_linker_0, # of connection points: 2
#     Edge 17, Type (0, 1), BuildingBlock: UVAHIK_clean_linker_0, # of connection points: 2
#     Edge 18, Type (0, 1), BuildingBlock: UVAHIK_clean_linker_0, # of connection points: 2
#     Edge 19, Type (0, 1), BuildingBlock: UVAHIK_clean_linker_0, # of connection points: 2
#     Edge 20, Type (0, 1), BuildingBlock: UVAHIK_clean_linker_0, # of connection points: 2
#     Edge 21, Type (0, 1), BuildingBlock: UVAHIK_clean_linker_0, # of connection points: 2
#     Edge 22, Type (0, 1), BuildingBlock: UVAHIK_clean_linker_0, # of connection points: 2
#     Edge 23, Type (0, 1), BuildingBlock: UVAHIK_clean_linker_0, # of connection points: 2
#     Edge 24, Type (0, 1), BuildingBlock: UVAHIK_clean_linker_0, # of connection points: 2
#     Edge 25, Type (0, 1), BuildingBlock: UVAHIK_clean_linker_0, # of connection points: 2
#     Edge 26, Type (0, 1), BuildingBlock: UVAHIK_clean_linker_0, # of connection points: 2
#     Edge 27, Type (0, 1), BuildingBlock: UVAHIK_clean_linker_0, # of connection points: 2
#     Edge 28, Type (0, 1), BuildingBlock: UVAHIK_clean_linker_0, # of connection points: 2
#     Edge 29, Type (0, 1), BuildingBlock: UVAHIK_clean_linker_0, # of connection points: 2
#     Edge 30, Type (0, 1), BuildingBlock: UVAHIK_clean_linker_0, # of connection points: 2
#     Edge 31, Type (0, 1), BuildingBlock: UVAHIK_clean_linker_0, # of connection points: 2
#     Edge 32, Type (0, 1), BuildingBlock: UVAHIK_clean_linker_0, # of connection points: 2
#     Edge 33, Type (0, 1), BuildingBlock: UVAHIK_clean_linker_0, # of connection points: 2
#     Edge 34, Type (0, 1), BuildingBlock: UVAHIK_clean_linker_0, # of connection points: 2
#     Edge 35, Type (0, 1), BuildingBlock: UVAHIK_clean_linker_0, # of connection points: 2
# Relax obj value: 0.121
# Max RMSD: 0.216
# Mean RMSD: 0.151
data_MOF--net-pyr--node1-JUFBIX_clean_sbu_0--node2-CUQRIR_clean_linker_1--edge1-UVAHIK_clean_linker_0
_symmetry_space_group_name_H-M    P1
_symmetry_Int_Tables_number       1
_symmetry_cell_setting            triclinic
loop_
_symmetry_equiv_pos_as_xyz
'x, y, z'
_cell_length_a     45.419613
_cell_length_b     43.440072
_cell_length_c     44.516163
_cell_angle_alpha  82.731578
_cell_angle_beta   90.251216
_cell_angle_gamma 93.872764
loop_
_atom_site_label
_atom_site_type_symbol
_atom_site_fract_x
_atom_site_fract_y
_atom_site_fract_z
_atom_type_partial_charge
C0 C 0.1745 0.206 0.18228 0.0
N1 N 0.19514 0.18559 0.19111 0.0
N2 N 0.18384 0.22594 0.15778 0.0
C3 C 0.14555 0.2072 0.1983 0.0
C4 C 0.21113 0.21701 0.15213 0.0
N5 N 0.21821 0.19254 0.1725 0.0
C6 C 0.22986 0.23076 0.12534 0.0
H7 H 0.1286 0.19213 0.18813 0.0
H8 H 0.13825 0.23126 0.19574 0.0
H9 H 0.14708 0.19855 0.22275 0.0
H10 H 0.24579 0.24894 0.13243 0.0
H11 H 0.21611 0.24166 0.10681 0.0
H12 H 0.24246 0.21269 0.11669 0.0
C13 C 0.42927 0.86894 0.6329 0.0
N14 N 0.4226 0.88893 0.65243 0.0
N15 N 0.45037 0.85041 0.64461 0.0
C16 C 0.41237 0.86481 0.60431 0.0
C17 C 0.45597 0.85947 0.67213 0.0
N18 N 0.43908 0.88288 0.67687 0.0
C19 C 0.47733 0.84487 0.69457 0.0
H20 H 0.3883 0.86292 0.60907 0.0
H21 H 0.41824 0.84396 0.59427 0.0
H22 H 0.41709 0.88566 0.58749 0.0
H23 H 0.49445 0.83358 0.68296 0.0
H24 H 0.46511 0.82689 0.71059 0.0
H25 H 0.488 0.86256 0.70776 0.0
C26 C 0.65307 0.38144 0.84736 0.0
N27 N 0.66776 0.37591 0.87383 0.0
N28 N 0.66045 0.41048 0.83362 0.0
C29 C 0.62969 0.35952 0.83602 0.0
C30 C 0.67986 0.42266 0.85278 0.0
N31 N 0.68405 0.40175 0.87748 0.0
C32 C 0.69663 0.45385 0.84604 0.0
H33 H 0.64033 0.34366 0.82238 0.0
H34 H 0.61357 0.37246 0.82147 0.0
H35 H 0.61771 0.34528 0.85518 0.0
H36 H 0.68509 0.47126 0.85694 0.0
H37 H 0.69785 0.46153 0.82132 0.0
H38 H 0.71935 0.45305 0.85523 0.0
C39 C 0.94692 0.62222 0.41129 0.0
N40 N 0.97088 0.6424 0.40547 0.0
N41 N 0.93101 0.62949 0.43479 0.0
C42 C 0.93685 0.59798 0.3914 0.0
C43 C 0.94637 0.65474 0.44326 0.0
N44 N 0.97044 0.66266 0.42542 0.0
C45 C 0.93554 0.67425 0.466 0.0
H46 H 0.9298 0.60967 0.36917 0.0
H47 H 0.91828 0.58244 0.40186 0.0
H48 H 0.95536 0.58366 0.38728 0.0
H49 H 0.92434 0.65933 0.48521 0.0
H50 H 0.91932 0.68996 0.4549 0.0
H51 H 0.95398 0.6886 0.47479 0.0
C52 C 0.82066 0.87156 0.88252 0.0
N53 N 0.84381 0.86701 0.86478 0.0
N54 N 0.80863 0.89876 0.87277 0.0
C55 C 0.81127 0.85054 0.91088 0.0
C56 C 0.82565 0.9108 0.84851 0.0
N57 N 0.84727 0.89168 0.84373 0.0
C58 C 0.81959 0.93994 0.82802 0.0
H59 H 0.79497 0.83215 0.90483 0.0
H60 H 0.8009 0.86368 0.92735 0.0
H61 H 0.83038 0.83911 0.92182 0.0
H62 H 0.83283 0.95989 0.83566 0.0
H63 H 0.79592 0.94466 0.82876 0.0
H64 H 0.82589 0.93807 0.8043 0.0
C65 C 0.64615 0.15819 0.46987 0.0
N66 N 0.65103 0.13352 0.45532 0.0
N67 N 0.62059 0.17053 0.46065 0.0
C68 C 0.66686 0.17106 0.49237 0.0
C69 C 0.60986 0.15216 0.44016 0.0
N70 N 0.62828 0.1295 0.43707 0.0
C71 C 0.5843 0.15979 0.41954 0.0
H72 H 0.65453 0.18298 0.50847 0.0
H73 H 0.68323 0.18827 0.48022 0.0
H74 H 0.67895 0.1522 0.50502 0.0
H75 H 0.59039 0.1814 0.40413 0.0
H76 H 0.56496 0.1642 0.4331 0.0
H77 H 0.57797 0.14083 0.40581 0.0
C78 C 0.34733 0.63783 0.14421 0.0
N79 N 0.37001 0.65478 0.15536 0.0
N80 N 0.33964 0.65119 0.11639 0.0
C81 C 0.3315 0.60933 0.16116 0.0
C82 C 0.35863 0.67667 0.11095 0.0
N83 N 0.37734 0.67863 0.13446 0.0
C84 C 0.35716 0.70115 0.08397 0.0
H85 H 0.32317 0.59287 0.14553 0.0
H86 H 0.31228 0.61646 0.17326 0.0
H87 H 0.34622 0.59707 0.17791 0.0
H88 H 0.3481 0.72214 0.09124 0.0
H89 H 0.34305 0.69283 0.06585 0.0
H90 H 0.3796 0.70797 0.0747 0.0
C91 C 0.08398 0.38267 0.62004 0.0
N92 N 0.09969 0.37512 0.59659 0.0
N93 N 0.09763 0.40721 0.63164 0.0
C94 C 0.05683 0.36433 0.63334 0.0
C95 C 0.12224 0.41423 0.61449 0.0
N96 N 0.12358 0.39463 0.5933 0.0
C97 C 0.14647 0.43797 0.62076 0.0
H98 H 0.04167 0.35828 0.61507 0.0
H99 H 0.04502 0.37752 0.64874 0.0
H100 H 0.06339 0.34228 0.64618 0.0
H101 H 0.15551 0.43137 0.6437 0.0
H102 H 0.13731 0.46101 0.62057 0.0
H103 H 0.16458 0.44017 0.60385 0.0
Co104 Co 0.02055 0.01316 0.50721 0.0
C105 C 0.04747 0.95598 0.50576 0.0
Co106 Co 0.06334 0.00815 0.53048 0.0
C107 C 0.95897 0.02336 0.49261 0.0
C108 C 0.98083 1.00013 0.46037 0.0
N109 N 0.98513 0.01239 0.48651 0.0
N110 N 0.93855 0.01841 0.47117 0.0
C111 C 0.95236 1.00364 0.45099 0.0
H112 H 0.95526 0.03527 0.51204 0.0
H113 H 0.99748 0.98942 0.4487 0.0
C114 C 0.03655 0.06563 0.53103 0.0
N115 N 0.09994 0.01003 0.54956 0.0
C116 C 0.11751 0.98761 0.5614 0.0
C117 C 0.11676 0.0369 0.54977 0.0
N118 N 0.14443 0.99975 0.56862 0.0
C119 C 0.14385 0.03068 0.5615 0.0
C120 C 0.06846 0.03309 0.46912 0.0
O121 O 0.01586 0.05445 0.51556 0.0
O122 O 0.05762 0.04891 0.53957 0.0
O123 O 0.08281 0.02511 0.49311 0.0
O124 O 0.04045 0.02975 0.47012 0.0
O125 O 0.06838 0.96723 0.52099 0.0
H126 H 0.1106 0.05966 0.54018 0.0
H127 H 0.11149 0.96293 0.56277 0.0
O128 O 0.02557 0.97209 0.49867 0.0
O129 O 1.00096 0.9966 0.54478 0.0
O130 O 0.04364 0.99116 0.56768 0.0
C131 C 0.01547 0.9883 0.56876 0.0
H132 H 0.94264 0.9957 0.43088 0.0
H133 H 0.16231 0.04747 0.56327 0.0
Co134 Co 0.50699 0.0365 0.02764 0.0
C135 C 0.50226 0.98447 0.07213 0.0
Co136 Co 0.53447 0.04022 0.06824 0.0
C137 C 0.48687 0.02758 0.96679 0.0
C138 C 0.45157 0.02645 0.99869 0.0
N139 N 0.48113 0.03171 0.99575 0.0
N140 N 0.46211 0.0195 0.95192 0.0
C141 C 0.43989 0.01896 0.97189 0.0
H142 H 0.50889 0.02824 0.95742 0.0
H143 H 0.43936 0.02608 0.01954 0.0
C144 C 0.5396 0.09211 0.02391 0.0
N145 N 0.56012 0.04443 0.10013 0.0
C146 C 0.55489 0.04027 0.13027 0.0
C147 C 0.58941 0.05176 0.09734 0.0
N148 N 0.5799 0.04433 0.14626 0.0
C149 C 0.60162 0.05155 0.12561 0.0
C150 C 0.56197 0.01465 0.02066 0.0
O151 O 0.52158 0.07635 1.0089 0.0
O152 O 0.54733 0.08074 0.05025 0.0
O153 O 0.56531 0.02288 0.04698 0.0
O154 O 0.53721 0.01793 1.00767 0.0
O155 O 0.52154 0.99977 0.08604 0.0
H156 H 0.6012 0.057 0.07605 0.0
H157 H 0.5333 0.03399 0.1403 0.0
O158 O 0.49282 0.99652 0.04668 0.0
O159 O 0.47713 0.05536 0.04791 0.0
O160 O 0.50322 0.05739 0.08911 0.0
C161 C 0.47927 0.06223 0.07478 0.0
H162 H 0.41699 0.01215 0.96782 0.0
H163 H 0.62461 0.05693 0.13062 0.0
Co164 Co 0.53716 0.5396 0.48465 0.0
C165 C 0.49267 0.54152 0.44143 0.0
Co166 Co 0.49476 0.51565 0.50114 0.0
C167 C 0.59952 0.55739 0.47629 0.0
C168 C 0.57184 0.59171 0.45496 0.0
N169 N 0.57099 0.56312 0.47092 0.0
N170 N 0.61806 0.5815 0.46462 0.0
C171 C 0.60071 0.60308 0.45113 0.0
H172 H 0.60648 0.53645 0.48943 0.0
H173 H 0.55263 0.60381 0.44722 0.0
C174 C 0.53958 0.51446 0.54434 0.0
N175 N 0.46115 0.49132 0.51482 0.0
C176 C 0.43244 0.49385 0.50731 0.0
C177 C 0.46186 0.46328 0.53171 0.0
N178 N 0.41557 0.4682 0.51849 0.0
C179 C 0.43396 0.44901 0.53389 0.0
C180 C 0.5346 0.47891 0.47591 0.0
O181 O 0.55454 0.53029 0.52307 0.0
O182 O 0.51301 0.50542 0.53944 0.0
O183 O 0.50924 0.48025 0.48729 0.0
O184 O 0.55195 0.5033 0.47219 0.0
O185 O 0.47696 0.52654 0.46272 0.0
H186 H 0.48169 0.45309 0.54059 0.0
H187 H 0.42436 0.5132 0.49256 0.0
O188 O 0.51964 0.54885 0.4463 0.0
O189 O 0.52206 0.57557 0.49753 0.0
O190 O 0.48056 0.55111 0.51512 0.0
C191 C 0.4973 0.57593 0.51066 0.0
H192 H 0.60836 0.62556 0.43944 0.0
H193 H 0.42772 0.42597 0.54523 0.0
Co194 Co 1.00771 0.53603 0.98717 0.0
C195 C 0.95033 0.51122 1.00071 0.0
Co196 Co 0.99296 0.54036 0.03353 0.0
C197 C 0.03925 0.52187 0.9336 0.0
C198 C 1.00106 0.54767 0.92362 0.0
N199 N 0.01713 0.53465 0.94688 0.0
N200 N 0.03773 0.52723 0.90309 0.0
C201 C 0.01377 0.54339 0.89683 0.0
H202 H 0.05602 0.50897 0.94594 0.0
H203 H 0.98095 0.55916 0.92588 0.0
C204 C 0.0504 0.56472 0.01959 0.0
N205 N 0.9825 0.54208 0.07346 0.0
C206 C 0.98995 0.56428 0.09135 0.0
C207 C 0.96623 0.51998 0.09135 0.0
N208 N 0.9788 0.55691 0.11963 0.0
C209 C 0.96381 0.52907 0.11964 0.0
C210 C 0.02198 0.48566 0.02724 0.0
O211 O 0.04508 0.55568 0.99393 0.0
O212 O 0.03042 0.56067 0.03992 0.0
O213 O 1.00941 0.50101 0.0455 0.0
O214 O 0.02316 0.49631 0.99922 0.0
O215 O 0.95559 0.5197 0.02658 0.0
H216 H 0.95709 0.49835 0.0844 0.0
H217 H 1.00323 0.58545 0.08377 0.0
O218 O 0.9702 0.51632 0.9804 0.0
O219 O 0.99271 0.57581 0.97591 0.0
O220 O 0.97673 0.58007 0.02129 0.0
C221 C 0.97975 0.59131 0.99356 0.0
H222 H 1.00548 0.55062 0.87438 0.0
H223 H 0.95254 0.51582 0.13895 0.0
C224 C 0.20154 0.17268 0.246 0.0
C225 C 0.19314 0.16327 0.21803 0.0
C226 C 0.19158 0.15531 0.27322 0.0
C227 C 0.12991 0.09769 0.30166 0.0
H228 H 0.17048 0.0996 0.37817 0.0
C229 C 0.0686 0.06022 0.41561 0.0
C230 C 0.08416 0.04616 0.44048 0.0
C231 C 0.08335 0.07275 0.38875 0.0
C232 C 0.15885 0.09838 0.35704 0.0
H233 H 0.16884 0.12788 0.19639 0.0
H234 H 0.15291 0.09623 0.24365 0.0
H235 H 0.19542 0.12177 0.3314 0.0
H236 H 0.12758 0.03402 0.45627 0.0
H237 H 0.15314 0.05484 0.40928 0.0
H238 H 0.09374 0.0734 0.32706 0.0
C239 C 0.16646 0.1175 0.24491 0.0
C240 C 0.17311 0.11159 0.33006 0.0
C241 C 0.17609 0.13518 0.21774 0.0
C242 C 0.11488 0.04481 0.43766 0.0
C243 C 0.12961 0.05701 0.41065 0.0
C244 C 0.1158 0.08419 0.32855 0.0
C245 C 0.17302 0.12791 0.27312 0.0
C246 C 0.15878 0.11178 0.30189 0.0
C247 C 0.11412 0.07127 0.38571 0.0
C248 C 0.12984 0.08463 0.35679 0.0
H249 H 0.21393 0.19478 0.24666 0.0
H250 H 0.19695 0.16454 0.29419 0.0
H251 H 0.1177 0.09766 0.28073 0.0
H252 H 0.04497 0.0619 0.417 0.0
H253 H 0.07055 0.08404 0.37052 0.0
C254 C 0.44833 0.93016 0.70127 0.0
C255 C 0.43884 0.89864 0.70328 0.0
C256 C 0.45101 0.94486 0.72743 0.0
C257 C 0.45704 0.9257 0.8111 0.0
H258 H 0.44308 0.01278 0.81136 0.0
C259 C 0.44144 0.98162 0.91956 0.0
C260 C 0.46027 0.00791 0.92309 0.0
C261 C 0.43995 0.96962 0.89197 0.0
C262 C 0.44729 0.98852 0.81142 0.0
H263 H 0.42306 0.85793 0.73314 0.0
H264 H 0.42622 0.88365 0.77891 0.0
H265 H 0.43632 0.98911 0.76458 0.0
H266 H 0.49206 0.0425 0.90065 0.0
H267 H 0.48882 0.02183 0.85158 0.0
H268 H 0.46673 0.92496 0.8583 0.0
C269 C 0.4329 0.89696 0.75753 0.0
C270 C 0.44351 0.97492 0.78467 0.0
C271 C 0.43078 0.88222 0.73143 0.0
C272 C 0.47743 0.02219 0.89837 0.0
C273 C 0.47548 0.01051 0.87044 0.0
C274 C 0.46027 0.93915 0.83786 0.0
C275 C 0.44373 0.92831 0.75601 0.0
C276 C 0.44812 0.94322 0.78422 0.0
C277 C 0.4569 0.98395 0.86719 0.0
C278 C 0.45526 0.97058 0.83829 0.0
H279 H 0.45471 0.943 0.67957 0.0
H280 H 0.45968 0.96887 0.72529 0.0
H281 H 0.46165 0.90152 0.81155 0.0
H282 H 0.42828 0.96995 0.93837 0.0
H283 H 0.42542 0.94916 0.88993 0.0
C284 C 0.65433 0.40919 0.77894 0.0
C285 C 0.65091 0.42437 0.80454 0.0
C286 C 0.6439 0.4218 0.75084 0.0
C287 C 0.6333 0.46159 0.69132 0.0
H288 H 0.55489 0.49208 0.68796 0.0
C289 C 0.58248 0.51626 0.57972 0.0
C290 C 0.55294 0.50663 0.57443 0.0
C291 C 0.5952 0.5086 0.60806 0.0
C292 C 0.57678 0.48356 0.68854 0.0
H293 H 0.63455 0.46457 0.82127 0.0
H294 H 0.61634 0.4871 0.77186 0.0
H295 H 0.57636 0.47433 0.73692 0.0
H296 H 0.51354 0.48159 0.59479 0.0
H297 H 0.53586 0.46801 0.64417 0.0
H298 H 0.63339 0.46996 0.64293 0.0
C299 C 0.62684 0.4653 0.77353 0.0
C300 C 0.58921 0.47374 0.71659 0.0
C301 C 0.63739 0.45265 0.80165 0.0
C302 C 0.53634 0.4894 0.59815 0.0
C303 C 0.54906 0.48179 0.6265 0.0
C304 C 0.6209 0.47149 0.6633 0.0
C305 C 0.62982 0.44987 0.74787 0.0
C306 C 0.61746 0.46231 0.71825 0.0
C307 C 0.57866 0.49121 0.63174 0.0
C308 C 0.59238 0.48225 0.66158 0.0
H309 H 0.66488 0.38741 0.78084 0.0
H310 H 0.64623 0.40917 0.73161 0.0
H311 H 0.65524 0.4532 0.69191 0.0
H312 H 0.59585 0.52966 0.56194 0.0
H313 H 0.61797 0.51646 0.6115 0.0
C314 C 1.00359 0.62435 0.36854 0.0
C315 C 0.98621 0.64736 0.3769 0.0
C316 C 1.01036 0.62341 0.33806 0.0
C317 C 0.97454 0.64469 0.26545 0.0
H318 H 0.0397 0.60542 0.23347 0.0
C319 C 0.96038 0.57234 0.16713 0.0
C320 C 0.98262 0.5743 0.14504 0.0
C321 C 0.96443 0.58768 0.19268 0.0
C322 C 0.02154 0.61687 0.24189 0.0
H323 H 0.96431 0.68882 0.36065 0.0
H324 H 0.97732 0.68836 0.3076 0.0
H325 H 0.04385 0.62305 0.2835 0.0
H326 H 0.02653 0.59411 0.13228 0.0
H327 H 0.03372 0.62104 0.17727 0.0
H328 H 0.95196 0.6379 0.22431 0.0
C329 C 0.98522 0.67054 0.32435 0.0
C330 C 0.02382 0.62673 0.27064 0.0
C331 C 0.97824 0.67122 0.35478 0.0
C332 C 1.00892 0.5924 0.14883 0.0
C333 C 1.01312 0.60757 0.17466 0.0
C334 C 0.97227 0.63482 0.23686 0.0
C335 C 0.9999 0.64563 0.31544 0.0
C336 C 1.00002 0.64003 0.2831 0.0
C337 C 0.99092 0.60526 0.1969 0.0
C338 C 0.99535 0.61995 0.22512 0.0
H339 H 1.00965 0.60559 0.38533 0.0
H340 H 0.02156 0.60378 0.33212 0.0
H341 H 0.95556 0.65442 0.27434 0.0
H342 H 0.9398 0.55883 0.16469 0.0
H343 H 0.94703 0.58509 0.20956 0.0
C344 C 0.24365 0.14428 0.16934 0.0
C345 C 0.24494 0.17609 0.17249 0.0
C346 C 0.2694 0.12971 0.16354 0.0
C347 C 0.35257 0.14088 0.16122 0.0
H348 H 0.34454 0.08258 0.1022 0.0
C349 C 0.45324 0.07966 0.11954 0.0
C350 C 0.45356 0.07496 0.08883 0.0
C351 C 0.42824 0.09055 0.1324 0.0
C352 C 0.34737 0.09899 0.11855 0.0
H353 H 0.27429 0.21713 0.17376 0.0
H354 H 0.31905 0.19222 0.16323 0.0
H355 H 0.30085 0.10369 0.12053 0.0
H356 H 0.42772 0.07877 0.04756 0.0
H357 H 0.38495 0.09809 0.06954 0.0
H358 H 0.39931 0.13704 0.15821 0.0
C359 C 0.29839 0.17815 0.16546 0.0
C360 C 0.32207 0.11079 0.12951 0.0
C361 C 0.27269 0.19259 0.17135 0.0
C362 C 0.42838 0.08183 0.07133 0.0
C363 C 0.40357 0.09274 0.08408 0.0
C364 C 0.37794 0.12911 0.15016 0.0
C365 C 0.29714 0.14663 0.16065 0.0
C366 C 0.3242 0.13223 0.15079 0.0
C367 C 0.40288 0.09704 0.11489 0.0
C368 C 0.37579 0.1083 0.12829 0.0
H369 H 0.22254 0.13108 0.16981 0.0
H370 H 0.26741 0.10529 0.16062 0.0
H371 H 0.3553 0.15696 0.17788 0.0
H372 H 0.47215 0.07454 0.13377 0.0
H373 H 0.42863 0.0933 0.15624 0.0
C374 C 0.3924 0.92878 0.62653 0.0
C375 C 0.39642 0.90579 0.65092 0.0
C376 C 0.36443 0.93937 0.62025 0.0
C377 C 0.28794 0.9392 0.64912 0.0
H378 H 0.26881 0.9419 0.56386 0.0
C379 C 0.17037 0.96013 0.60144 0.0
C380 C 0.17048 0.98384 0.57692 0.0
C381 C 0.19694 0.94781 0.61163 0.0
C382 C 0.27383 0.94129 0.58773 0.0
H383 H 0.37537 0.87704 0.689 0.0
H384 H 0.32623 0.89561 0.67829 0.0
H385 H 0.31801 0.92954 0.5811 0.0
H386 H 0.19762 0.01217 0.54279 0.0
H387 H 0.24368 0.99072 0.56014 0.0
H388 H 0.24354 0.9512 0.65551 0.0
C389 C 0.34459 0.9057 0.66409 0.0
C390 C 0.30208 0.93447 0.59759 0.0
C391 C 0.37265 0.89519 0.67036 0.0
C392 C 0.19712 0.99402 0.56189 0.0
C393 C 0.22341 0.98159 0.57172 0.0
C394 C 0.25954 0.94606 0.6392 0.0
C395 C 0.33999 0.92693 0.63821 0.0
C396 C 0.30965 0.93389 0.62829 0.0
C397 C 0.22375 0.95873 0.59698 0.0
C398 C 0.25241 0.94769 0.60831 0.0
H399 H 0.41059 0.93708 0.61134 0.0
H400 H 0.3617 0.95629 0.60055 0.0
H401 H 0.29312 0.93884 0.67293 0.0
H402 H 0.15001 0.95213 0.61337 0.0
H403 H 0.1966 0.93005 0.63105 0.0
C404 C 0.72853 0.38667 0.90599 0.0
C405 C 0.70482 0.40577 0.90137 0.0
C406 C 0.75232 0.39491 0.92415 0.0
C407 C 0.79055 0.46602 0.94166 0.0
H408 H 0.83781 0.41298 0.99638 0.0
C409 C 0.9128 0.49602 0.96329 0.0
C410 C 0.9212 0.4966 0.99364 0.0
C411 C 0.88498 0.48343 0.95616 0.0
C412 C 0.82463 0.42803 0.98133 0.0
H413 H 0.68567 0.4465 0.91393 0.0
H414 H 0.72722 0.46115 0.94562 0.0
H415 H 0.78997 0.39225 0.97862 0.0
H416 H 0.90734 0.48363 0.04035 0.0
H417 H 0.85858 0.46079 0.02766 0.0
H418 H 0.82551 0.50135 0.9433 0.0
C419 C 0.72772 0.44006 0.93504 0.0
C420 C 0.79743 0.41619 0.9711 0.0
C421 C 0.70398 0.43171 0.91707 0.0
C422 C 0.90139 0.48361 0.01676 0.0
C423 C 0.87363 0.47044 1.00956 0.0
C424 C 0.81781 0.47762 0.95143 0.0
C425 C 0.75266 0.42246 0.93775 0.0
C426 C 0.78024 0.43507 0.95101 0.0
C427 C 0.8651 0.47067 0.97917 0.0
C428 C 0.83525 0.45867 0.97105 0.0
H429 H 0.72959 0.36668 0.89386 0.0
H430 H 0.7713 0.381 0.92573 0.0
H431 H 0.77801 0.48099 0.92585 0.0
H432 H 0.92752 0.50586 0.94496 0.0
H433 H 0.87894 0.48367 0.93255 0.0
C434 C 0.87989 0.62913 0.41682 0.0
C435 C 0.90005 0.62171 0.4401 0.0
C436 C 0.84969 0.62317 0.42189 0.0
C437 C 0.79395 0.57864 0.47353 0.0
H438 H 0.74372 0.64106 0.43576 0.0
C439 C 0.66653 0.5587 0.46579 0.0
C440 C 0.64969 0.58447 0.46693 0.0
C441 C 0.6974 0.56233 0.46567 0.0
C442 C 0.75735 0.62353 0.44686 0.0
H443 H 0.90495 0.60228 0.48679 0.0
H444 H 0.85162 0.59233 0.49623 0.0
H445 H 0.79676 0.64925 0.42992 0.0
H446 H 0.65172 0.63371 0.47096 0.0
H447 H 0.70534 0.64003 0.47152 0.0
H448 H 0.75427 0.55329 0.49106 0.0
C449 C 0.85921 0.60222 0.47383 0.0
C450 C 0.78784 0.62803 0.44309 0.0
C451 C 0.88959 0.60804 0.4686 0.0
C452 C 0.6642 0.61361 0.46934 0.0
C453 C 0.69493 0.61719 0.46961 0.0
C454 C 0.7633 0.5742 0.47746 0.0
C455 C 0.83889 0.61006 0.45057 0.0
C456 C 0.80653 0.60551 0.45604 0.0
C457 C 0.71196 0.59179 0.46702 0.0
C458 C 0.74463 0.59655 0.46401 0.0
H459 H 0.88762 0.63995 0.39475 0.0
H460 H 0.83478 0.62897 0.4033 0.0
H461 H 0.80772 0.56076 0.48368 0.0
H462 H 0.65583 0.53601 0.46382 0.0
H463 H 0.70979 0.54231 0.46339 0.0
C464 C 0.13997 0.24605 0.1306 0.0
C465 C 0.16847 0.25133 0.14208 0.0
C466 C 0.12447 0.27084 0.11668 0.0
C467 C 0.12077 0.3562 0.11351 0.0
H468 H 0.07267 0.34821 0.04237 0.0
C469 C 0.03812 0.44752 0.07051 0.0
C470 C 0.03687 0.45698 0.03912 0.0
C471 C 0.05394 0.42207 0.08213 0.0
C472 C 0.08611 0.35092 0.06213 0.0
H473 H 0.20322 0.28653 0.14781 0.0
H474 H 0.17634 0.33002 0.12341 0.0
H475 H 0.10139 0.30505 0.06366 0.0
H476 H 0.05099 0.44636 0.99534 0.0
H477 H 0.07841 0.40176 0.01563 0.0
H478 H 0.10562 0.40203 0.112 0.0
C479 C 0.16579 0.30675 0.12528 0.0
C480 C 0.1024 0.32603 0.07454 0.0
C481 C 0.18133 0.28188 0.13901 0.0
C482 C 0.05136 0.43974 0.01962 0.0
C483 C 0.06704 0.41408 0.03127 0.0
C484 C 0.10432 0.38094 0.10128 0.0
C485 C 0.13703 0.30163 0.11407 0.0
C486 C 0.11997 0.3283 0.10043 0.0
C487 C 0.06888 0.40513 0.06274 0.0
C488 C 0.08667 0.37868 0.07546 0.0
H489 H 0.12965 0.22267 0.13261 0.0
H490 H 0.10233 0.26596 0.1086 0.0
H491 H 0.13377 0.35877 0.1336 0.0
H492 H 0.02727 0.46012 0.0863 0.0
H493 H 0.05441 0.41563 0.10643 0.0
C494 C 0.66747 0.31906 0.88411 0.0
C495 C 0.66487 0.34777 0.89472 0.0
C496 C 0.6581 0.29145 0.90192 0.0
C497 C 0.60644 0.26418 0.96546 0.0
H498 H 0.63418 0.18401 0.95378 0.0
C499 C 0.56326 0.1445 0.02979 0.0
C500 C 0.55289 0.12273 1.01072 0.0
C501 C 0.57807 0.17254 0.01773 0.0
C502 C 0.62626 0.2063 0.95716 0.0
H503 H 0.6533 0.37039 0.93309 0.0
H504 H 0.63837 0.32193 0.96531 0.0
H505 H 0.66199 0.23152 0.93194 0.0
H506 H 0.54971 0.11313 0.96418 0.0
H507 H 0.5765 0.16201 0.94312 0.0
H508 H 0.57114 0.23849 0.99148 0.0
C509 C 0.6464 0.32066 0.94267 0.0
C510 C 0.64207 0.23356 0.9446 0.0
C511 C 0.65539 0.3484 0.92452 0.0
C512 C 0.55729 0.12963 0.97933 0.0
C513 C 0.57275 0.15738 0.96734 0.0
C514 C 0.59103 0.23688 0.97858 0.0
C515 C 0.64645 0.29189 0.93111 0.0
C516 C 0.63201 0.26293 0.94794 0.0
C517 C 0.58338 0.17892 0.98649 0.0
C518 C 0.60047 0.20777 0.97396 0.0
H519 H 0.67511 0.3182 0.86124 0.0
H520 H 0.65838 0.27002 0.89193 0.0
H521 H 0.59758 0.28618 0.96816 0.0
H522 H 0.56014 0.13974 0.05409 0.0
H523 H 0.5861 0.18885 0.03288 0.0
C524 C 0.97712 0.71937 0.4141 0.0
C525 C 0.98874 0.691 0.42471 0.0
C526 C 0.99238 0.74739 0.41849 0.0
C527 C 0.04171 0.77951 0.47268 0.0
H528 H 0.03994 0.8541 0.415 0.0
C529 C 0.07006 0.90451 0.50459 0.0
C530 C 0.04832 0.92514 0.49499 0.0
C531 C 0.07006 0.87547 0.49383 0.0
C532 C 0.04075 0.83346 0.43134 0.0
H533 H 0.02528 0.66908 0.44762 0.0
H534 H 0.05232 0.71842 0.45574 0.0
H535 H 0.02742 0.80344 0.39843 0.0
H536 H 1.00977 0.93146 0.46635 0.0
H537 H 1.00986 0.8815 0.44788 0.0
H538 H 0.05362 0.80979 0.50592 0.0
C539 C 0.03154 0.71901 0.44372 0.0
C540 C 0.03361 0.80447 0.42183 0.0
C541 C 0.01633 0.69091 0.4389 0.0
C542 C 0.02688 0.91626 0.47429 0.0
C543 C 0.02708 0.88764 0.46341 0.0
C544 C 0.04882 0.8086 0.48223 0.0
C545 C 0.0194 0.74754 0.43407 0.0
C546 C 0.0329 0.77728 0.44264 0.0
C547 C 0.04861 0.86687 0.47296 0.0
C548 C 0.04724 0.83595 0.46189 0.0
H549 H 0.95552 0.71971 0.40371 0.0
H550 H 0.98215 0.76889 0.41125 0.0
H551 H 0.04119 0.75898 0.4893 0.0
H552 H 0.08687 0.9107 0.52051 0.0
H553 H 0.08689 0.85986 0.50163 0.0
C554 C 0.47555 0.82453 0.60719 0.0
C555 C 0.4587 0.82264 0.63366 0.0
C556 C 0.48035 0.79764 0.59425 0.0
C557 C 0.4743 0.7112 0.60946 0.0
H558 H 0.47056 0.7174 0.52184 0.0
C559 C 0.46808 0.60351 0.54522 0.0
C560 C 0.48932 0.60461 0.5222 0.0
C561 C 0.46307 0.63026 0.55837 0.0
C562 C 0.47172 0.71539 0.54631 0.0
H563 H 0.43386 0.79204 0.66784 0.0
H564 H 0.44158 0.74481 0.64513 0.0
H565 H 0.46604 0.76375 0.54668 0.0
H566 H 0.521 0.63473 0.49392 0.0
H567 H 0.51184 0.68146 0.51655 0.0
H568 H 0.47944 0.66262 0.6089 0.0
C569 C 0.45179 0.76674 0.63457 0.0
C570 C 0.46938 0.74195 0.56057 0.0
C571 C 0.4473 0.79362 0.6476 0.0
C572 C 0.50455 0.63316 0.51171 0.0
C573 C 0.49925 0.65993 0.52454 0.0
C574 C 0.47631 0.68459 0.59518 0.0
C575 C 0.46797 0.76848 0.60743 0.0
C576 C 0.47082 0.74022 0.59232 0.0
C577 C 0.47888 0.6586 0.54836 0.0
C578 C 0.47519 0.68649 0.56349 0.0
H579 H 0.4843 0.84693 0.59622 0.0
H580 H 0.49339 0.79977 0.5737 0.0
H581 H 0.47591 0.70908 0.6339 0.0
H582 H 0.45608 0.58179 0.5538 0.0
H583 H 0.44707 0.62875 0.57656 0.0
C584 C 0.87048 0.8754 0.79834 0.0
C585 C 0.86891 0.89669 0.81944 0.0
C586 C 0.88827 0.88268 0.77224 0.0
C587 C 0.94953 0.93822 0.73745 0.0
H588 H 0.91712 0.91631 0.66173 0.0
C589 C 0.01539 0.96609 0.62414 0.0
C590 C 0.99967 0.97575 0.59766 0.0
C591 C 1.00054 0.95471 0.65134 0.0
C592 C 0.92651 0.92285 0.68259 0.0
H593 H 0.88566 0.94157 0.83052 0.0
H594 H 0.91647 0.9545 0.78527 0.0
H595 H 0.89024 0.89954 0.70888 0.0
H596 H 0.95568 0.9808 0.5794 0.0
H597 H 0.92989 0.96141 0.62665 0.0
H598 H 0.98533 0.96234 0.71111 0.0
C599 C 0.90424 0.93206 0.78863 0.0
C600 C 0.91121 0.9128 0.70984 0.0
C601 C 0.88646 0.92477 0.81458 0.0
C602 C 0.96862 0.97352 0.59921 0.0
C603 C 0.95377 0.96215 0.6264 0.0
C604 C 0.96483 0.94825 0.71022 0.0
C605 C 0.90505 0.91141 0.76668 0.0
C606 C 0.92232 0.92053 0.73773 0.0
C607 C 0.96945 0.9526 0.65298 0.0
C608 C 0.95349 0.94097 0.68227 0.0
H609 H 0.85701 0.85369 0.80143 0.0
H610 H 0.88856 0.86591 0.75622 0.0
H611 H 0.95911 0.94443 0.75836 0.0
H612 H 0.03929 0.96732 0.62391 0.0
H613 H 0.01351 0.94724 0.67106 0.0
C614 C 0.60904 0.08496 0.41223 0.0
C615 C 0.62814 0.11164 0.4121 0.0
C616 C 0.60541 0.07044 0.38603 0.0
C617 C 0.63663 0.06943 0.30865 0.0
H618 H 0.5558 0.04505 0.28912 0.0
C619 C 0.60844 0.03124 0.19267 0.0
C620 C 0.58313 0.04295 0.17851 0.0
C621 C 0.61343 0.03302 0.22338 0.0
C622 C 0.57848 0.05187 0.29414 0.0
H623 H 0.6589 0.14398 0.3856 0.0
H624 H 0.65244 0.11926 0.33948 0.0
H625 H 0.56716 0.06082 0.33863 0.0
H626 H 0.54268 0.06472 0.18535 0.0
H627 H 0.5517 0.06894 0.23882 0.0
H628 H 0.64773 0.06259 0.26359 0.0
C629 C 0.64069 0.1088 0.35974 0.0
C630 C 0.5851 0.06046 0.32277 0.0
C631 C 0.64442 0.12308 0.386 0.0
C632 C 0.56225 0.05534 0.19587 0.0
C633 C 0.56745 0.05761 0.22653 0.0
C634 C 0.62998 0.0612 0.27996 0.0
C635 C 0.62065 0.08267 0.3592 0.0
C636 C 0.61418 0.06994 0.33018 0.0
C637 C 0.59345 0.04708 0.24053 0.0
C638 C 0.60074 0.05282 0.27211 0.0
H639 H 0.59623 0.07611 0.43231 0.0
H640 H 0.59016 0.05011 0.38658 0.0
H641 H 0.65934 0.07608 0.31371 0.0
H642 H 0.62461 0.02111 0.1798 0.0
H643 H 0.63328 0.02389 0.23349 0.0
C644 C 0.41382 0.64603 0.18714 0.0
C645 C 0.38336 0.64894 0.18469 0.0
C646 C 0.42637 0.63673 0.21528 0.0
C647 C 0.4111 0.62507 0.29838 0.0
H648 H 0.47035 0.56477 0.29886 0.0
C649 C 0.44905 0.55209 0.40788 0.0
C650 C 0.47976 0.5518 0.41164 0.0
C651 C 0.43722 0.56427 0.38017 0.0
C652 C 0.45394 0.58172 0.29904 0.0
H653 H 0.34236 0.64708 0.2095 0.0
H654 H 0.36381 0.62972 0.25856 0.0
H655 H 0.45063 0.58765 0.25081 0.0
H656 H 0.52212 0.5632 0.38914 0.0
H657 H 0.50143 0.58393 0.34079 0.0
H658 H 0.41408 0.61841 0.34681 0.0
C659 C 0.37825 0.63468 0.23901 0.0
C660 C 0.44277 0.59504 0.27151 0.0
C661 C 0.36584 0.64425 0.21093 0.0
C662 C 0.49835 0.56312 0.38696 0.0
C663 C 0.48653 0.57489 0.35924 0.0
C664 C 0.42208 0.61149 0.32594 0.0
C665 C 0.40858 0.6301 0.24145 0.0
C666 C 0.42123 0.61692 0.2708 0.0
C667 C 0.45589 0.57593 0.35565 0.0
C668 C 0.44363 0.58972 0.32652 0.0
H669 H 0.42766 0.64985 0.1671 0.0
H670 H 0.44991 0.63418 0.21642 0.0
H671 H 0.39485 0.64215 0.29871 0.0
H672 H 0.43419 0.54363 0.42652 0.0
H673 H 0.41348 0.56457 0.37788 0.0
C674 C 0.08806 0.44978 0.66088 0.0
C675 C 0.09193 0.41823 0.65997 0.0
C676 C 0.08523 0.46114 0.6886 0.0
C677 C 0.10006 0.44253 0.77066 0.0
H678 H 0.04528 0.50606 0.77704 0.0
C679 C 0.06007 0.48417 0.88251 0.0
C680 C 0.0553 0.51593 0.88072 0.0
C681 C 0.06968 0.47189 0.8569 0.0
C682 C 0.06098 0.48861 0.77551 0.0
H683 H 0.09589 0.37361 0.68674 0.0
H684 H 0.0898 0.39309 0.73549 0.0
H685 H 0.04945 0.48463 0.7296 0.0
H686 H 0.05967 0.56028 0.85248 0.0
H687 H 0.07703 0.53914 0.80802 0.0
H688 H 0.11088 0.44625 0.81716 0.0
C689 C 0.08948 0.40926 0.7149 0.0
C690 C 0.06337 0.47632 0.7483 0.0
C691 C 0.09251 0.398 0.68711 0.0
C692 C 0.063 0.53567 0.85413 0.0
C693 C 0.07269 0.52354 0.82873 0.0
C694 C 0.09746 0.45473 0.7981 0.0
C695 C 0.086 0.44103 0.71597 0.0
C696 C 0.08309 0.45332 0.7454 0.0
C697 C 0.07465 0.49135 0.82939 0.0
C698 C 0.0781 0.47814 0.80064 0.0
H699 H 0.08765 0.46565 0.6401 0.0
H700 H 0.083 0.4858 0.68856 0.0
H701 H 0.11568 0.42504 0.76909 0.0
H702 H 0.05403 0.46858 0.9028 0.0
H703 H 0.07105 0.44698 0.85801 0.0
C704 C 0.75691 0.89306 0.89139 0.0
C705 C 0.78336 0.91148 0.88537 0.0
C706 C 0.73293 0.90461 0.90511 0.0
C707 C 0.71378 0.96747 0.95057 0.0
H708 H 0.6337 0.94072 0.93078 0.0
C709 C 0.61352 0.99627 0.02024 0.0
C710 C 0.58689 1.0023 1.00504 0.0
C711 C 0.63719 0.98537 1.00536 0.0
C712 C 0.65586 0.94878 0.93647 0.0
H713 H 0.80522 0.95667 0.8886 0.0
H714 H 0.76316 0.97743 0.91159 0.0
H715 H 0.67485 0.92291 0.90446 0.0
H716 H 0.56453 1.00162 0.96198 0.0
H717 H 0.60578 0.98335 0.93592 0.0
H718 H 0.69476 0.99414 0.98188 0.0
C719 C 0.761 0.95371 0.90639 0.0
C720 C 0.67964 0.93813 0.92157 0.0
C721 C 0.78506 0.94202 0.89283 0.0
C722 C 0.58459 0.99706 0.97453 0.0
C723 C 0.60832 0.98636 0.95958 0.0
C724 C 0.68999 0.97826 0.96534 0.0
C725 C 0.73457 0.93511 0.91302 0.0
C726 C 0.70905 0.94716 0.92844 0.0
C727 C 0.63508 0.98035 0.97471 0.0
C728 C 0.66059 0.96902 0.95865 0.0
H729 H 0.75489 0.86952 0.88566 0.0
H730 H 0.71329 0.88928 0.91007 0.0
H731 H 0.73596 0.97476 0.95691 0.0
H732 H 0.61613 0.99992 0.04376 0.0
H733 H 0.65707 0.98056 0.0181 0.0
C734 C 0.67995 0.08715 0.46194 0.0
C735 C 0.67855 0.11927 0.45412 0.0
C736 C 0.7072 0.07381 0.4625 0.0
C737 C 0.78415 0.08925 0.43447 0.0
H738 H 0.80283 0.02955 0.50307 0.0
C739 C 0.8941 0.03112 0.44115 0.0
C740 C 0.90863 0.02772 0.46924 0.0
C741 C 0.86521 0.04007 0.43898 0.0
C742 C 0.79799 0.04635 0.48388 0.0
H743 H 0.70352 0.16251 0.43901 0.0
H744 H 0.75116 0.13966 0.4405 0.0
H745 H 0.7536 0.04912 0.49889 0.0
H746 H 0.90374 0.03087 0.51718 0.0
H747 H 0.85345 0.04751 0.51322 0.0
H748 H 0.82866 0.08749 0.41996 0.0
C749 C 0.73151 0.12455 0.44623 0.0
C750 C 0.76967 0.05722 0.48126 0.0
C751 C 0.70438 0.13774 0.44571 0.0
C752 C 0.89339 0.03353 0.49516 0.0
C753 C 0.86441 0.04268 0.49294 0.0
C754 C 0.81239 0.07848 0.43712 0.0
C755 C 0.73332 0.09248 0.45492 0.0
C756 C 0.76256 0.07904 0.45668 0.0
C757 C 0.85006 0.04619 0.46477 0.0
C758 C 0.81973 0.05704 0.46193 0.0
H759 H 0.66006 0.07262 0.46821 0.0
H760 H 0.70784 0.04897 0.46888 0.0
H761 H 0.77929 0.10578 0.41507 0.0
H762 H 0.90511 0.0273 0.42059 0.0
H763 H 0.85472 0.04215 0.41699 0.0
C764 C 0.30751 0.61634 0.08902 0.0
C765 C 0.31274 0.64469 0.10066 0.0
C766 C 0.28011 0.60882 0.07648 0.0
C767 C 0.21311 0.64091 0.04324 0.0
H768 H 0.17347 0.56328 0.07959 0.0
C769 C 0.10094 0.58702 1.0033 0.0
C770 C 0.08014 0.5777 0.02653 0.0
C771 C 0.12981 0.5969 1.01024 0.0
C772 C 0.18434 0.58499 0.06925 0.0
H773 H 0.29451 0.68798 0.10745 0.0
H774 H 0.24666 0.6753 0.08472 0.0
H775 H 0.22426 0.57698 0.09387 0.0
H776 H 0.07307 0.57205 0.07517 0.0
H777 H 0.12365 0.58875 0.08722 0.0
H778 H 0.17302 0.64884 0.01862 0.0
C779 C 0.2636 0.65883 0.0854 0.0
C780 C 0.2134 0.59268 0.07719 0.0
C781 C 0.29081 0.66608 0.09836 0.0
C782 C 0.08857 0.5791 0.05676 0.0
C783 C 0.11752 0.58848 0.0637 0.0
C784 C 0.18415 0.63295 0.03488 0.0
C785 C 0.25781 0.62987 0.07494 0.0
C786 C 0.22791 0.62085 0.06453 0.0
C787 C 0.13844 0.59709 0.04053 0.0
C788 C 0.16943 0.60513 0.04818 0.0
H789 H 0.32441 0.5998 0.09032 0.0
H790 H 0.27619 0.58644 0.06834 0.0
H791 H 0.22392 0.66276 0.03317 0.0
H792 H 0.09503 0.58624 0.97979 0.0
H793 H 0.14564 0.6034 0.99203 0.0
C794 C 0.15086 0.40722 0.54539 0.0
C795 C 0.14887 0.3918 0.57496 0.0
C796 C 0.17809 0.41147 0.53027 0.0
C797 C 0.25624 0.38913 0.53591 0.0
H798 H 0.27421 0.47426 0.4997 0.0
C799 C 0.37547 0.43161 0.50535 0.0
C800 C 0.38483 0.4609 0.51333 0.0
C801 C 0.34548 0.4225 0.5043 0.0
C802 C 0.26962 0.45041 0.5098 0.0
H803 H 0.17263 0.36764 0.61172 0.0
H804 H 0.22016 0.3748 0.58576 0.0
H805 H 0.2236 0.45673 0.51401 0.0
H806 H 0.37062 0.50425 0.52517 0.0
H807 H 0.31797 0.48806 0.52478 0.0
H808 H 0.30236 0.38333 0.53399 0.0
C809 C 0.20098 0.38321 0.57366 0.0
C810 C 0.24045 0.44017 0.51755 0.0
C811 C 0.17383 0.379 0.58861 0.0
C812 C 0.36374 0.48161 0.51884 0.0
C813 C 0.33363 0.47228 0.51844 0.0
C814 C 0.28538 0.39943 0.5285 0.0
C815 C 0.20369 0.40045 0.5447 0.0
C816 C 0.23354 0.40964 0.53152 0.0
C817 C 0.32414 0.44222 0.51197 0.0
C818 C 0.29261 0.43045 0.51603 0.0
H819 H 0.13176 0.41758 0.53482 0.0
H820 H 0.17932 0.4245 0.50786 0.0
H821 H 0.25167 0.36533 0.54617 0.0
H822 H 0.39149 0.4155 0.50057 0.0
H823 H 0.3391 0.39959 0.49833 0.0
C824 C 0.89101 0.84409 0.87943 0.0
C825 C 0.86178 0.84062 0.8694 0.0
C826 C 0.90587 0.81793 0.89141 0.0
C827 C 0.8889 0.7377 0.92946 0.0
H828 H 0.97185 0.72715 0.91741 0.0
C829 C 0.94941 0.63749 0.99788 0.0
C830 C 0.96824 0.62168 0.98106 0.0
C831 C 0.93774 0.66529 0.98488 0.0
C832 C 0.94862 0.72968 0.921 0.0
H833 H 0.82575 0.80737 0.86228 0.0
H834 H 0.85162 0.76167 0.88247 0.0
H835 H 0.9495 0.77271 0.89125 0.0
H836 H 0.98995 0.62331 0.93746 0.0
H837 H 0.96982 0.67131 0.91512 0.0
H838 H 0.88785 0.69457 0.95889 0.0
C839 C 0.86304 0.78445 0.88176 0.0
C840 C 0.93586 0.75597 0.90613 0.0
C841 C 0.84834 0.81051 0.86978 0.0
C842 C 0.97552 0.63472 0.9512 0.0
C843 C 0.96411 0.66249 0.93836 0.0
C844 C 0.90169 0.71158 0.94448 0.0
C845 C 0.89166 0.78781 0.89371 0.0
C846 C 0.90571 0.76018 0.90988 0.0
C847 C 0.94486 0.67811 0.95486 0.0
C848 C 0.93167 0.707 0.94027 0.0
H849 H 0.90159 0.86714 0.87979 0.0
H850 H 0.92786 0.82146 0.9004 0.0
H851 H 0.86574 0.74036 0.93336 0.0
H852 H 0.94332 0.62816 0.0209 0.0
H853 H 0.92318 0.67679 0.99838 0.0
C854 C 0.42081 0.71429 0.12065 0.0
C855 C 0.39601 0.70558 0.13913 0.0
C856 C 0.43565 0.74348 0.12099 0.0
C857 C 0.4682 0.80492 0.13193 0.0
H858 H 0.41343 0.87021 0.12233 0.0
C859 C 0.50532 0.93659 0.10967 0.0
C860 C 0.49103 0.95288 0.08511 0.0
C861 C 0.49504 0.90633 0.12122 0.0
C862 C 0.42899 0.85224 0.12514 0.0
H863 H 0.36808 0.71897 0.17369 0.0
H864 H 0.39408 0.77024 0.17459 0.0
H865 H 0.39475 0.81628 0.1354 0.0
H866 H 0.4545 0.95044 0.05372 0.0
H867 H 0.43646 0.89789 0.07405 0.0
H868 H 0.50234 0.84103 0.12058 0.0
C869 C 0.402 0.75472 0.15967 0.0
C870 C 0.41835 0.82139 0.13295 0.0
C871 C 0.3873 0.72545 0.15939 0.0
C872 C 0.46603 0.93851 0.07264 0.0
C873 C 0.45557 0.90849 0.0844 0.0
C874 C 0.47889 0.83589 0.12438 0.0
C875 C 0.42572 0.76444 0.13973 0.0
C876 C 0.43775 0.79731 0.13577 0.0
C877 C 0.47003 0.89203 0.10869 0.0
C878 C 0.45928 0.85974 0.12018 0.0
H879 H 0.42767 0.69909 0.1049 0.0
H880 H 0.45368 0.75035 0.1052 0.0
H881 H 0.48366 0.78685 0.13411 0.0
H882 H 0.52468 0.94704 0.11973 0.0
H883 H 0.50651 0.89417 0.14003 0.0
C884 C 0.11236 0.3222 0.5908 0.0
C885 C 0.09486 0.34719 0.58264 0.0
C886 C 0.10528 0.29349 0.58067 0.0
C887 C 0.0418 0.24645 0.55502 0.0
H888 H 0.10258 0.19291 0.53707 0.0
C889 C 0.02 0.12029 0.52213 0.0
C890 C 0.03827 0.09842 0.53713 0.0
C891 C 0.02496 0.152 0.52517 0.0
C892 C 0.08535 0.20759 0.54209 0.0
H893 H 0.05686 0.36265 0.55723 0.0
H894 H 0.04439 0.31237 0.53891 0.0
H895 H 0.11621 0.24652 0.5448 0.0
H896 H 0.07482 0.09244 0.56851 0.0
H897 H 0.08328 0.14721 0.57368 0.0
H898 H 1.01101 0.2071 0.55256 0.0
C899 C 0.06346 0.31475 0.55334 0.0
C900 C 0.09316 0.23828 0.54655 0.0
C901 C 0.07064 0.34349 0.56351 0.0
C902 C 0.06056 0.10865 0.55627 0.0
C903 C 0.06557 0.1401 0.55914 0.0
C904 C 0.03395 0.21567 0.55038 0.0
C905 C 0.08044 0.28925 0.56221 0.0
C906 C 0.0716 0.25787 0.55383 0.0
C907 C 0.04836 0.16221 0.54307 0.0
C908 C 0.05578 0.19574 0.54466 0.0
H909 H 0.13071 0.32455 0.60612 0.0
H910 H 0.11854 0.27426 0.58841 0.0
H911 H 0.02465 0.26083 0.56084 0.0
H912 H 1.00266 0.11311 0.50722 0.0
H913 H 1.01129 0.1686 0.51263 0.0
C914 C 0.63278 0.22689 0.45292 0.0
C915 C 0.61287 0.20164 0.46296 0.0
C916 C 0.62508 0.25729 0.45373 0.0
C917 C 0.57227 0.30331 0.4888 0.0
H918 H 0.59537 0.36661 0.42202 0.0
C919 C 0.52389 0.4222 0.47445 0.0
C920 C 0.54397 0.44845 0.46961 0.0
C921 C 0.53299 0.39265 0.47215 0.0
C922 C 0.58904 0.3492 0.44091 0.0
H923 H 0.56945 0.18784 0.48147 0.0
H924 H 0.55534 0.24121 0.48233 0.0
H925 H 0.60952 0.31341 0.42149 0.0
H926 H 0.58908 0.46442 0.45724 0.0
H927 H 0.60502 0.41231 0.45293 0.0
H928 H 0.55135 0.339 0.50792 0.0
C929 C 0.5772 0.2376 0.47442 0.0
C930 C 0.59715 0.31877 0.44069 0.0
C931 C 0.58507 0.20713 0.47377 0.0
C932 C 0.57312 0.44463 0.46108 0.0
C933 C 0.58222 0.41488 0.4586 0.0
C934 C 0.56399 0.33362 0.4889 0.0
C935 C 0.59713 0.26304 0.46431 0.0
C936 C 0.58876 0.29545 0.4646 0.0
C937 C 0.56235 0.3886 0.46483 0.0
C938 C 0.57214 0.3568 0.46489 0.0
H939 H 0.65417 0.22302 0.44399 0.0
H940 H 0.64109 0.27627 0.44615 0.0
H941 H 0.56597 0.2861 0.50786 0.0
H942 H 0.50118 0.42429 0.48083 0.0
H943 H 0.51709 0.37285 0.47649 0.0
loop_
_geom_bond_atom_site_label_1
_geom_bond_atom_site_label_2
_geom_bond_distance
_geom_bond_site_symmetry_2
_ccdc_geom_bond_type
C0 N1 1.317 . S
C0 N2 1.348 . S
C0 C3 1.485 . S
N1 C0 1.317 . S
N1 N5 1.370 . S
N2 C0 1.348 . S
N2 C4 1.346 . S
C3 C0 1.485 . S
C3 H7 0.960 . S
C3 H8 0.961 . S
C3 H9 0.960 . S
C4 N2 1.346 . S
C4 N5 1.307 . S
C4 C6 1.486 . S
N5 N1 1.370 . S
N5 C4 1.307 . S
C6 C4 1.486 . S
C6 H10 0.960 . S
C6 H11 0.960 . S
C6 H12 0.959 . S
H7 C3 0.960 . S
H8 C3 0.961 . S
H9 C3 0.960 . S
H10 C6 0.960 . S
H11 C6 0.960 . S
H12 C6 0.959 . S
C13 N14 1.317 . S
C13 N15 1.348 . S
C13 C16 1.485 . S
N14 C13 1.317 . S
N14 N18 1.370 . S
N15 C13 1.348 . S
N15 C17 1.346 . S
C16 C13 1.485 . S
C16 H20 0.960 . S
C16 H21 0.961 . S
C16 H22 0.960 . S
C17 N15 1.346 . S
C17 N18 1.307 . S
C17 C19 1.486 . S
N18 N14 1.370 . S
N18 C17 1.307 . S
C19 C17 1.486 . S
C19 H23 0.960 . S
C19 H24 0.960 . S
C19 H25 0.959 . S
H20 C16 0.960 . S
H21 C16 0.961 . S
H22 C16 0.960 . S
H23 C19 0.960 . S
H24 C19 0.960 . S
H25 C19 0.959 . S
C26 N27 1.317 . S
C26 N28 1.348 . S
C26 C29 1.485 . S
N27 C26 1.317 . S
N27 N31 1.370 . S
N28 C26 1.348 . S
N28 C30 1.346 . S
C29 C26 1.485 . S
C29 H33 0.960 . S
C29 H34 0.961 . S
C29 H35 0.960 . S
C30 N28 1.346 . S
C30 N31 1.307 . S
C30 C32 1.486 . S
N31 N27 1.370 . S
N31 C30 1.307 . S
C32 C30 1.486 . S
C32 H36 0.960 . S
C32 H37 0.960 . S
C32 H38 0.959 . S
H33 C29 0.960 . S
H34 C29 0.961 . S
H35 C29 0.960 . S
H36 C32 0.960 . S
H37 C32 0.960 . S
H38 C32 0.959 . S
C39 N40 1.317 . S
C39 N41 1.348 . S
C39 C42 1.485 . S
N40 C39 1.317 . S
N40 N44 1.370 . S
N41 C39 1.348 . S
N41 C43 1.346 . S
C42 C39 1.485 . S
C42 H46 0.960 . S
C42 H47 0.961 . S
C42 H48 0.960 . S
C43 N41 1.346 . S
C43 N44 1.307 . S
C43 C45 1.486 . S
N44 N40 1.370 . S
N44 C43 1.307 . S
C45 C43 1.486 . S
C45 H49 0.960 . S
C45 H50 0.960 . S
C45 H51 0.959 . S
H46 C42 0.960 . S
H47 C42 0.961 . S
H48 C42 0.960 . S
H49 C45 0.960 . S
H50 C45 0.960 . S
H51 C45 0.959 . S
C52 N53 1.317 . S
C52 N54 1.348 . S
C52 C55 1.485 . S
N53 C52 1.317 . S
N53 N57 1.370 . S
N54 C52 1.348 . S
N54 C56 1.346 . S
C55 C52 1.485 . S
C55 H59 0.960 . S
C55 H60 0.961 . S
C55 H61 0.960 . S
C56 N54 1.346 . S
C56 N57 1.307 . S
C56 C58 1.486 . S
N57 N53 1.370 . S
N57 C56 1.307 . S
C58 C56 1.486 . S
C58 H62 0.960 . S
C58 H63 0.960 . S
C58 H64 0.959 . S
H59 C55 0.960 . S
H60 C55 0.961 . S
H61 C55 0.960 . S
H62 C58 0.960 . S
H63 C58 0.960 . S
H64 C58 0.959 . S
C65 N66 1.317 . S
C65 N67 1.348 . S
C65 C68 1.485 . S
N66 C65 1.317 . S
N66 N70 1.370 . S
N67 C65 1.348 . S
N67 C69 1.346 . S
C68 C65 1.485 . S
C68 H72 0.960 . S
C68 H73 0.961 . S
C68 H74 0.960 . S
C69 N67 1.346 . S
C69 N70 1.307 . S
C69 C71 1.486 . S
N70 N66 1.370 . S
N70 C69 1.307 . S
C71 C69 1.486 . S
C71 H75 0.960 . S
C71 H76 0.960 . S
C71 H77 0.959 . S
H72 C68 0.960 . S
H73 C68 0.961 . S
H74 C68 0.960 . S
H75 C71 0.960 . S
H76 C71 0.960 . S
H77 C71 0.959 . S
C78 N79 1.317 . S
C78 N80 1.348 . S
C78 C81 1.485 . S
N79 C78 1.317 . S
N79 N83 1.370 . S
N80 C78 1.348 . S
N80 C82 1.346 . S
C81 C78 1.485 . S
C81 H85 0.960 . S
C81 H86 0.961 . S
C81 H87 0.960 . S
C82 N80 1.346 . S
C82 N83 1.307 . S
C82 C84 1.486 . S
N83 N79 1.370 . S
N83 C82 1.307 . S
C84 C82 1.486 . S
C84 H88 0.960 . S
C84 H89 0.960 . S
C84 H90 0.959 . S
H85 C81 0.960 . S
H86 C81 0.961 . S
H87 C81 0.960 . S
H88 C84 0.960 . S
H89 C84 0.960 . S
H90 C84 0.959 . S
C91 N92 1.317 . S
C91 N93 1.348 . S
C91 C94 1.485 . S
N92 C91 1.317 . S
N92 N96 1.370 . S
N93 C91 1.348 . S
N93 C95 1.346 . S
C94 C91 1.485 . S
C94 H98 0.960 . S
C94 H99 0.961 . S
C94 H100 0.960 . S
C95 N93 1.346 . S
C95 N96 1.307 . S
C95 C97 1.486 . S
N96 N92 1.370 . S
N96 C95 1.307 . S
C97 C95 1.486 . S
C97 H101 0.960 . S
C97 H102 0.960 . S
C97 H103 0.959 . S
H98 C94 0.960 . S
H99 C94 0.961 . S
H100 C94 0.960 . S
H101 C97 0.960 . S
H102 C97 0.960 . S
H103 C97 0.959 . S
Co104 N109 2.057 1_455 S
Co104 O121 2.021 . S
Co104 O124 2.062 . S
Co104 O128 2.117 1_545 S
Co104 O129 2.020 . S
C105 O125 1.259 . S
C105 O128 1.258 . S
Co106 N115 2.057 1_545 S
Co106 O122 2.117 . S
Co106 O123 2.020 . S
Co106 O125 2.021 1_545 S
Co106 O130 2.062 1_545 S
C107 N109 1.316 . S
C107 N110 1.347 . S
C107 H112 0.931 . S
C108 N109 1.375 . S
C108 C111 1.350 . S
C108 H113 0.930 1_545 S
N109 Co104 2.057 1_655 S
N109 C107 1.316 . S
N109 C108 1.375 . S
N110 C107 1.347 . S
N110 C111 1.373 . S
C111 C108 1.350 . S
C111 N110 1.373 . S
C111 H132 0.931 . S
H112 C107 0.931 . S
H113 C108 0.930 1_565 S
C114 O121 1.259 . S
C114 O122 1.258 . S
N115 Co106 2.057 1_565 S
N115 C116 1.316 . S
N115 C117 1.375 1_565 S
C116 N115 1.316 . S
C116 N118 1.347 . S
C116 H127 0.931 . S
C117 N115 1.375 1_545 S
C117 C119 1.350 . S
C117 H126 0.930 . S
N118 C116 1.347 . S
N118 C119 1.373 1_565 S
C119 C117 1.350 . S
C119 N118 1.373 1_545 S
C119 H133 0.931 . S
C120 O123 1.256 . S
C120 O124 1.255 . S
O121 Co104 2.021 . S
O121 C114 1.259 . S
O122 Co106 2.117 . S
O122 C114 1.258 . S
O123 Co106 2.020 . S
O123 C120 1.256 . S
O124 Co104 2.062 . S
O124 C120 1.255 . S
O125 C105 1.259 . S
O125 Co106 2.021 1_565 S
H126 C117 0.930 . S
H127 C116 0.931 . S
O128 Co104 2.117 1_565 S
O128 C105 1.258 . S
O129 Co104 2.020 . S
O129 C131 1.256 1_545 S
O130 Co106 2.062 1_565 S
O130 C131 1.255 . S
C131 O129 1.256 1_565 S
C131 O130 1.255 . S
H132 C111 0.931 . S
H133 C119 0.931 . S
Co134 N139 2.057 1_545 S
Co134 O151 2.021 . S
Co134 O154 2.062 . S
Co134 O158 2.117 1_546 S
Co134 O159 2.020 1_556 S
C135 O155 1.259 . S
C135 O158 1.258 . S
Co136 N145 2.057 . S
Co136 O152 2.117 . S
Co136 O153 2.020 . S
Co136 O155 2.021 1_545 S
Co136 O160 2.062 . S
C137 N139 1.316 1_545 S
C137 N140 1.347 1_545 S
C137 H142 0.931 . S
C138 N139 1.375 . S
C138 C141 1.350 . S
C138 H143 0.930 . S
N139 Co134 2.057 1_565 S
N139 C137 1.316 1_565 S
N139 C138 1.375 . S
N140 C137 1.347 1_565 S
N140 C141 1.373 . S
C141 C138 1.350 . S
C141 N140 1.373 . S
C141 H162 0.931 . S
H142 C137 0.931 . S
H143 C138 0.930 . S
C144 O151 1.259 1_554 S
C144 O152 1.258 . S
N145 Co136 2.057 . S
N145 C146 1.316 . S
N145 C147 1.375 . S
C146 N145 1.316 . S
C146 N148 1.347 . S
C146 H157 0.931 . S
C147 N145 1.375 . S
C147 C149 1.350 . S
C147 H156 0.930 . S
N148 C146 1.347 . S
N148 C149 1.373 . S
C149 C147 1.350 . S
C149 N148 1.373 . S
C149 H163 0.931 . S
C150 O153 1.256 . S
C150 O154 1.255 1_554 S
O151 Co134 2.021 . S
O151 C144 1.259 1_556 S
O152 Co136 2.117 . S
O152 C144 1.258 . S
O153 Co136 2.020 . S
O153 C150 1.256 . S
O154 Co134 2.062 . S
O154 C150 1.255 1_556 S
O155 C135 1.259 . S
O155 Co136 2.021 1_565 S
H156 C147 0.930 . S
H157 C146 0.931 . S
O158 Co134 2.117 1_564 S
O158 C135 1.258 . S
O159 Co134 2.020 1_554 S
O159 C161 1.256 . S
O160 Co136 2.062 . S
O160 C161 1.255 . S
C161 O159 1.256 . S
C161 O160 1.255 . S
H162 C141 0.931 . S
H163 C149 0.931 . S
Co164 N169 2.057 . S
Co164 O181 2.021 . S
Co164 O184 2.062 . S
Co164 O188 2.117 . S
Co164 O189 2.020 . S
C165 O185 1.259 . S
C165 O188 1.258 . S
Co166 N175 2.057 . S
Co166 O182 2.117 . S
Co166 O183 2.020 . S
Co166 O185 2.021 . S
Co166 O190 2.062 . S
C167 N169 1.316 . S
C167 N170 1.347 . S
C167 H172 0.931 . S
C168 N169 1.375 . S
C168 C171 1.350 . S
C168 H173 0.930 . S
N169 Co164 2.057 . S
N169 C167 1.316 . S
N169 C168 1.375 . S
N170 C167 1.347 . S
N170 C171 1.373 . S
C171 C168 1.350 . S
C171 N170 1.373 . S
C171 H192 0.931 . S
H172 C167 0.931 . S
H173 C168 0.930 . S
C174 O181 1.259 . S
C174 O182 1.258 . S
N175 Co166 2.057 . S
N175 C176 1.316 . S
N175 C177 1.375 . S
C176 N175 1.316 . S
C176 N178 1.347 . S
C176 H187 0.931 . S
C177 N175 1.375 . S
C177 C179 1.350 . S
C177 H186 0.930 . S
N178 C176 1.347 . S
N178 C179 1.373 . S
C179 C177 1.350 . S
C179 N178 1.373 . S
C179 H193 0.931 . S
C180 O183 1.256 . S
C180 O184 1.255 . S
O181 Co164 2.021 . S
O181 C174 1.259 . S
O182 Co166 2.117 . S
O182 C174 1.258 . S
O183 Co166 2.020 . S
O183 C180 1.256 . S
O184 Co164 2.062 . S
O184 C180 1.255 . S
O185 C165 1.259 . S
O185 Co166 2.021 . S
H186 C177 0.930 . S
H187 C176 0.931 . S
O188 Co164 2.117 . S
O188 C165 1.258 . S
O189 Co164 2.020 . S
O189 C191 1.256 . S
O190 Co166 2.062 . S
O190 C191 1.255 . S
C191 O189 1.256 . S
C191 O190 1.255 . S
H192 C171 0.931 . S
H193 C179 0.931 . S
Co194 N199 2.057 . S
Co194 O211 2.021 . S
Co194 O214 2.062 . S
Co194 O218 2.117 1_455 S
Co194 O219 2.020 1_455 S
C195 O215 1.259 1_556 S
C195 O218 1.258 . S
Co196 N205 2.057 . S
Co196 O212 2.117 1_655 S
Co196 O213 2.020 1_655 S
Co196 O215 2.021 . S
Co196 O220 2.062 . S
C197 N199 1.316 . S
C197 N200 1.347 . S
C197 H202 0.931 . S
C198 N199 1.375 1_655 S
C198 C201 1.350 1_655 S
C198 H203 0.930 . S
N199 Co194 2.057 . S
N199 C197 1.316 . S
N199 C198 1.375 1_455 S
N200 C197 1.347 . S
N200 C201 1.373 . S
C201 C198 1.350 1_455 S
C201 N200 1.373 . S
C201 H222 0.931 1_455 S
H202 C197 0.931 . S
H203 C198 0.930 . S
C204 O211 1.259 1_554 S
C204 O212 1.258 . S
N205 Co196 2.057 . S
N205 C206 1.316 . S
N205 C207 1.375 1_655 S
C206 N205 1.316 . S
C206 N208 1.347 . S
C206 H217 0.931 . S
C207 N205 1.375 1_455 S
C207 C209 1.350 1_455 S
C207 H216 0.930 . S
N208 C206 1.347 . S
N208 C209 1.373 . S
C209 C207 1.350 1_655 S
C209 N208 1.373 . S
C209 H223 0.931 1_655 S
C210 O213 1.256 . S
C210 O214 1.255 1_554 S
O211 Co194 2.021 . S
O211 C204 1.259 1_556 S
O212 Co196 2.117 1_455 S
O212 C204 1.258 . S
O213 Co196 2.020 1_455 S
O213 C210 1.256 . S
O214 Co194 2.062 . S
O214 C210 1.255 1_556 S
O215 C195 1.259 1_554 S
O215 Co196 2.021 . S
H216 C207 0.930 . S
H217 C206 0.931 . S
O218 Co194 2.117 1_655 S
O218 C195 1.258 . S
O219 Co194 2.020 1_655 S
O219 C221 1.256 . S
O220 Co196 2.062 . S
O220 C221 1.255 1_554 S
C221 O219 1.256 . S
C221 O220 1.255 1_556 S
H222 C201 0.931 1_655 S
H223 C209 0.931 1_455 S
C224 C225 1.349 . S
C224 C226 1.327 . S
C224 H249 0.950 . S
C225 C224 1.349 . S
C225 C241 1.349 . S
C226 C224 1.327 . S
C226 C245 1.429 . S
C226 H250 0.950 . S
C227 C244 1.574 . S
C227 C246 1.368 . S
C227 H251 0.949 . S
H228 C232 0.949 . S
C229 C230 1.349 . S
C229 C231 1.327 . S
C229 H252 0.950 . S
C230 C229 1.349 . S
C230 C242 1.349 . S
C231 C229 1.327 . S
C231 C247 1.429 . S
C231 H253 0.950 . S
C232 H228 0.949 . S
C232 C240 1.574 . S
C232 C248 1.368 . S
H233 C241 0.950 . S
H234 C239 0.950 . S
H235 C240 0.949 . S
H236 C242 0.950 . S
H237 C243 0.950 . S
H238 C244 0.949 . S
C239 H234 0.950 . S
C239 C241 1.327 . S
C239 C245 1.429 . S
C240 C232 1.574 . S
C240 H235 0.949 . S
C240 C246 1.368 . S
C241 C225 1.349 . S
C241 H233 0.950 . S
C241 C239 1.327 . S
C242 C230 1.349 . S
C242 H236 0.950 . S
C242 C243 1.327 . S
C243 H237 0.950 . S
C243 C242 1.327 . S
C243 C247 1.429 . S
C244 C227 1.574 . S
C244 H238 0.949 . S
C244 C248 1.368 . S
C245 C226 1.429 . S
C245 C239 1.429 . S
C245 C246 1.523 . S
C246 C227 1.368 . S
C246 C240 1.368 . S
C246 C245 1.523 . S
C247 C231 1.429 . S
C247 C243 1.429 . S
C247 C248 1.523 . S
C248 C232 1.368 . S
C248 C244 1.368 . S
C248 C247 1.523 . S
H249 C224 0.950 . S
H250 C226 0.950 . S
H251 C227 0.949 . S
H252 C229 0.950 . S
H253 C231 0.950 . S
C254 C255 1.349 . S
C254 C256 1.327 . S
C254 H279 0.950 . S
C255 C254 1.349 . S
C255 C271 1.349 . S
C256 C254 1.327 . S
C256 C275 1.429 . S
C256 H280 0.950 . S
C257 C274 1.574 . S
C257 C276 1.368 . S
C257 H281 0.949 . S
H258 C262 0.949 . S
C259 C260 1.349 . S
C259 C261 1.327 . S
C259 H282 0.950 . S
C260 C259 1.349 . S
C260 C272 1.349 . S
C261 C259 1.327 . S
C261 C277 1.429 . S
C261 H283 0.950 . S
C262 H258 0.949 . S
C262 C270 1.574 . S
C262 C278 1.368 . S
H263 C271 0.950 . S
H264 C269 0.950 . S
H265 C270 0.949 . S
H266 C272 0.950 1_545 S
H267 C273 0.950 . S
H268 C274 0.949 . S
C269 H264 0.950 . S
C269 C271 1.327 . S
C269 C275 1.429 . S
C270 C262 1.574 . S
C270 H265 0.949 . S
C270 C276 1.368 . S
C271 C255 1.349 . S
C271 H263 0.950 . S
C271 C269 1.327 . S
C272 C260 1.349 . S
C272 H266 0.950 1_565 S
C272 C273 1.327 . S
C273 H267 0.950 . S
C273 C272 1.327 . S
C273 C277 1.429 . S
C274 C257 1.574 . S
C274 H268 0.949 . S
C274 C278 1.368 . S
C275 C256 1.429 . S
C275 C269 1.429 . S
C275 C276 1.523 . S
C276 C257 1.368 . S
C276 C270 1.368 . S
C276 C275 1.523 . S
C277 C261 1.429 . S
C277 C273 1.429 . S
C277 C278 1.523 . S
C278 C262 1.368 . S
C278 C274 1.368 . S
C278 C277 1.523 . S
H279 C254 0.950 . S
H280 C256 0.950 . S
H281 C257 0.949 . S
H282 C259 0.950 . S
H283 C261 0.950 . S
C284 C285 1.349 . S
C284 C286 1.327 . S
C284 H309 0.950 . S
C285 C284 1.349 . S
C285 C301 1.349 . S
C286 C284 1.327 . S
C286 C305 1.429 . S
C286 H310 0.950 . S
C287 C304 1.574 . S
C287 C306 1.368 . S
C287 H311 0.949 . S
H288 C292 0.949 . S
C289 C290 1.349 . S
C289 C291 1.327 . S
C289 H312 0.950 . S
C290 C289 1.349 . S
C290 C302 1.349 . S
C291 C289 1.327 . S
C291 C307 1.429 . S
C291 H313 0.950 . S
C292 H288 0.949 . S
C292 C300 1.574 . S
C292 C308 1.368 . S
H293 C301 0.950 . S
H294 C299 0.950 . S
H295 C300 0.949 . S
H296 C302 0.950 . S
H297 C303 0.950 . S
H298 C304 0.949 . S
C299 H294 0.950 . S
C299 C301 1.327 . S
C299 C305 1.429 . S
C300 C292 1.574 . S
C300 H295 0.949 . S
C300 C306 1.368 . S
C301 C285 1.349 . S
C301 H293 0.950 . S
C301 C299 1.327 . S
C302 C290 1.349 . S
C302 H296 0.950 . S
C302 C303 1.327 . S
C303 H297 0.950 . S
C303 C302 1.327 . S
C303 C307 1.429 . S
C304 C287 1.574 . S
C304 H298 0.949 . S
C304 C308 1.368 . S
C305 C286 1.429 . S
C305 C299 1.429 . S
C305 C306 1.523 . S
C306 C287 1.368 . S
C306 C300 1.368 . S
C306 C305 1.523 . S
C307 C291 1.429 . S
C307 C303 1.429 . S
C307 C308 1.523 . S
C308 C292 1.368 . S
C308 C304 1.368 . S
C308 C307 1.523 . S
H309 C284 0.950 . S
H310 C286 0.950 . S
H311 C287 0.949 . S
H312 C289 0.950 . S
H313 C291 0.950 . S
C314 C315 1.349 . S
C314 C316 1.327 . S
C314 H339 0.950 . S
C315 C314 1.349 . S
C315 C331 1.349 . S
C316 C314 1.327 . S
C316 C335 1.429 . S
C316 H340 0.950 . S
C317 C334 1.574 . S
C317 C336 1.368 . S
C317 H341 0.949 . S
H318 C322 0.949 . S
C319 C320 1.349 . S
C319 C321 1.327 . S
C319 H342 0.950 . S
C320 C319 1.349 . S
C320 C332 1.349 . S
C321 C319 1.327 . S
C321 C337 1.429 . S
C321 H343 0.950 . S
C322 H318 0.949 . S
C322 C330 1.574 . S
C322 C338 1.368 . S
H323 C331 0.950 . S
H324 C329 0.950 . S
H325 C330 0.949 . S
H326 C332 0.950 . S
H327 C333 0.950 . S
H328 C334 0.949 . S
C329 H324 0.950 . S
C329 C331 1.327 . S
C329 C335 1.429 . S
C330 C322 1.574 . S
C330 H325 0.949 . S
C330 C336 1.368 . S
C331 C315 1.349 . S
C331 H323 0.950 . S
C331 C329 1.327 . S
C332 C320 1.349 . S
C332 H326 0.950 . S
C332 C333 1.327 . S
C333 H327 0.950 . S
C333 C332 1.327 . S
C333 C337 1.429 . S
C334 C317 1.574 . S
C334 H328 0.949 . S
C334 C338 1.368 . S
C335 C316 1.429 . S
C335 C329 1.429 . S
C335 C336 1.523 . S
C336 C317 1.368 . S
C336 C330 1.368 . S
C336 C335 1.523 . S
C337 C321 1.429 . S
C337 C333 1.429 . S
C337 C338 1.523 . S
C338 C322 1.368 . S
C338 C334 1.368 . S
C338 C337 1.523 . S
H339 C314 0.950 . S
H340 C316 0.950 . S
H341 C317 0.949 . S
H342 C319 0.950 . S
H343 C321 0.950 . S
C344 C345 1.349 . S
C344 C346 1.327 . S
C344 H369 0.950 . S
C345 C344 1.349 . S
C345 C361 1.349 . S
C346 C344 1.327 . S
C346 C365 1.429 . S
C346 H370 0.950 . S
C347 C364 1.574 . S
C347 C366 1.368 . S
C347 H371 0.949 . S
H348 C352 0.949 . S
C349 C350 1.349 . S
C349 C351 1.327 . S
C349 H372 0.950 . S
C350 C349 1.349 . S
C350 C362 1.349 . S
C351 C349 1.327 . S
C351 C367 1.429 . S
C351 H373 0.950 . S
C352 H348 0.949 . S
C352 C360 1.574 . S
C352 C368 1.368 . S
H353 C361 0.950 . S
H354 C359 0.950 . S
H355 C360 0.949 . S
H356 C362 0.950 . S
H357 C363 0.950 . S
H358 C364 0.949 . S
C359 H354 0.950 . S
C359 C361 1.327 . S
C359 C365 1.429 . S
C360 C352 1.574 . S
C360 H355 0.949 . S
C360 C366 1.368 . S
C361 C345 1.349 . S
C361 H353 0.950 . S
C361 C359 1.327 . S
C362 C350 1.349 . S
C362 H356 0.950 . S
C362 C363 1.327 . S
C363 H357 0.950 . S
C363 C362 1.327 . S
C363 C367 1.429 . S
C364 C347 1.574 . S
C364 H358 0.949 . S
C364 C368 1.368 . S
C365 C346 1.429 . S
C365 C359 1.429 . S
C365 C366 1.523 . S
C366 C347 1.368 . S
C366 C360 1.368 . S
C366 C365 1.523 . S
C367 C351 1.429 . S
C367 C363 1.429 . S
C367 C368 1.523 . S
C368 C352 1.368 . S
C368 C364 1.368 . S
C368 C367 1.523 . S
H369 C344 0.950 . S
H370 C346 0.950 . S
H371 C347 0.949 . S
H372 C349 0.950 . S
H373 C351 0.950 . S
C374 C375 1.349 . S
C374 C376 1.327 . S
C374 H399 0.950 . S
C375 C374 1.349 . S
C375 C391 1.349 . S
C376 C374 1.327 . S
C376 C395 1.429 . S
C376 H400 0.950 . S
C377 C394 1.574 . S
C377 C396 1.368 . S
C377 H401 0.949 . S
H378 C382 0.949 . S
C379 C380 1.349 . S
C379 C381 1.327 . S
C379 H402 0.950 . S
C380 C379 1.349 . S
C380 C392 1.349 . S
C381 C379 1.327 . S
C381 C397 1.429 . S
C381 H403 0.950 . S
C382 H378 0.949 . S
C382 C390 1.574 . S
C382 C398 1.368 . S
H383 C391 0.950 . S
H384 C389 0.950 . S
H385 C390 0.949 . S
H386 C392 0.950 . S
H387 C393 0.950 . S
H388 C394 0.949 . S
C389 H384 0.950 . S
C389 C391 1.327 . S
C389 C395 1.429 . S
C390 C382 1.574 . S
C390 H385 0.949 . S
C390 C396 1.368 . S
C391 C375 1.349 . S
C391 H383 0.950 . S
C391 C389 1.327 . S
C392 C380 1.349 . S
C392 H386 0.950 . S
C392 C393 1.327 . S
C393 H387 0.950 . S
C393 C392 1.327 . S
C393 C397 1.429 . S
C394 C377 1.574 . S
C394 H388 0.949 . S
C394 C398 1.368 . S
C395 C376 1.429 . S
C395 C389 1.429 . S
C395 C396 1.523 . S
C396 C377 1.368 . S
C396 C390 1.368 . S
C396 C395 1.523 . S
C397 C381 1.429 . S
C397 C393 1.429 . S
C397 C398 1.523 . S
C398 C382 1.368 . S
C398 C394 1.368 . S
C398 C397 1.523 . S
H399 C374 0.950 . S
H400 C376 0.950 . S
H401 C377 0.949 . S
H402 C379 0.950 . S
H403 C381 0.950 . S
C404 C405 1.349 . S
C404 C406 1.327 . S
C404 H429 0.950 . S
C405 C404 1.349 . S
C405 C421 1.349 . S
C406 C404 1.327 . S
C406 C425 1.429 . S
C406 H430 0.950 . S
C407 C424 1.574 . S
C407 C426 1.368 . S
C407 H431 0.949 . S
H408 C412 0.949 . S
C409 C410 1.349 . S
C409 C411 1.327 . S
C409 H432 0.950 . S
C410 C409 1.349 . S
C410 C422 1.349 . S
C411 C409 1.327 . S
C411 C427 1.429 . S
C411 H433 0.950 . S
C412 H408 0.949 . S
C412 C420 1.574 . S
C412 C428 1.368 . S
H413 C421 0.950 . S
H414 C419 0.950 . S
H415 C420 0.949 . S
H416 C422 0.950 . S
H417 C423 0.950 . S
H418 C424 0.949 . S
C419 H414 0.950 . S
C419 C421 1.327 . S
C419 C425 1.429 . S
C420 C412 1.574 . S
C420 H415 0.949 . S
C420 C426 1.368 . S
C421 C405 1.349 . S
C421 H413 0.950 . S
C421 C419 1.327 . S
C422 C410 1.349 . S
C422 H416 0.950 . S
C422 C423 1.327 . S
C423 H417 0.950 . S
C423 C422 1.327 . S
C423 C427 1.429 . S
C424 C407 1.574 . S
C424 H418 0.949 . S
C424 C428 1.368 . S
C425 C406 1.429 . S
C425 C419 1.429 . S
C425 C426 1.523 . S
C426 C407 1.368 . S
C426 C420 1.368 . S
C426 C425 1.523 . S
C427 C411 1.429 . S
C427 C423 1.429 . S
C427 C428 1.523 . S
C428 C412 1.368 . S
C428 C424 1.368 . S
C428 C427 1.523 . S
H429 C404 0.950 . S
H430 C406 0.950 . S
H431 C407 0.949 . S
H432 C409 0.950 . S
H433 C411 0.950 . S
C434 C435 1.349 . S
C434 C436 1.327 . S
C434 H459 0.950 . S
C435 C434 1.349 . S
C435 C451 1.349 . S
C436 C434 1.327 . S
C436 C455 1.429 . S
C436 H460 0.950 . S
C437 C454 1.574 . S
C437 C456 1.368 . S
C437 H461 0.949 . S
H438 C442 0.949 . S
C439 C440 1.349 . S
C439 C441 1.327 . S
C439 H462 0.950 . S
C440 C439 1.349 . S
C440 C452 1.349 . S
C441 C439 1.327 . S
C441 C457 1.429 . S
C441 H463 0.950 . S
C442 H438 0.949 . S
C442 C450 1.574 . S
C442 C458 1.368 . S
H443 C451 0.950 . S
H444 C449 0.950 . S
H445 C450 0.949 . S
H446 C452 0.950 . S
H447 C453 0.950 . S
H448 C454 0.949 . S
C449 H444 0.950 . S
C449 C451 1.327 . S
C449 C455 1.429 . S
C450 C442 1.574 . S
C450 H445 0.949 . S
C450 C456 1.368 . S
C451 C435 1.349 . S
C451 H443 0.950 . S
C451 C449 1.327 . S
C452 C440 1.349 . S
C452 H446 0.950 . S
C452 C453 1.327 . S
C453 H447 0.950 . S
C453 C452 1.327 . S
C453 C457 1.429 . S
C454 C437 1.574 . S
C454 H448 0.949 . S
C454 C458 1.368 . S
C455 C436 1.429 . S
C455 C449 1.429 . S
C455 C456 1.523 . S
C456 C437 1.368 . S
C456 C450 1.368 . S
C456 C455 1.523 . S
C457 C441 1.429 . S
C457 C453 1.429 . S
C457 C458 1.523 . S
C458 C442 1.368 . S
C458 C454 1.368 . S
C458 C457 1.523 . S
H459 C434 0.950 . S
H460 C436 0.950 . S
H461 C437 0.949 . S
H462 C439 0.950 . S
H463 C441 0.950 . S
C464 C465 1.349 . S
C464 C466 1.327 . S
C464 H489 0.950 . S
C465 C464 1.349 . S
C465 C481 1.349 . S
C466 C464 1.327 . S
C466 C485 1.429 . S
C466 H490 0.950 . S
C467 C484 1.574 . S
C467 C486 1.368 . S
C467 H491 0.949 . S
H468 C472 0.949 . S
C469 C470 1.349 . S
C469 C471 1.327 . S
C469 H492 0.950 . S
C470 C469 1.349 . S
C470 C482 1.349 . S
C471 C469 1.327 . S
C471 C487 1.429 . S
C471 H493 0.950 . S
C472 H468 0.949 . S
C472 C480 1.574 . S
C472 C488 1.368 . S
H473 C481 0.950 . S
H474 C479 0.950 . S
H475 C480 0.949 . S
H476 C482 0.950 1_655 S
H477 C483 0.950 . S
H478 C484 0.949 . S
C479 H474 0.950 . S
C479 C481 1.327 . S
C479 C485 1.429 . S
C480 C472 1.574 . S
C480 H475 0.949 . S
C480 C486 1.368 . S
C481 C465 1.349 . S
C481 H473 0.950 . S
C481 C479 1.327 . S
C482 C470 1.349 . S
C482 H476 0.950 1_455 S
C482 C483 1.327 . S
C483 H477 0.950 . S
C483 C482 1.327 . S
C483 C487 1.429 . S
C484 C467 1.574 . S
C484 H478 0.949 . S
C484 C488 1.368 . S
C485 C466 1.429 . S
C485 C479 1.429 . S
C485 C486 1.523 . S
C486 C467 1.368 . S
C486 C480 1.368 . S
C486 C485 1.523 . S
C487 C471 1.429 . S
C487 C483 1.429 . S
C487 C488 1.523 . S
C488 C472 1.368 . S
C488 C484 1.368 . S
C488 C487 1.523 . S
H489 C464 0.950 . S
H490 C466 0.950 . S
H491 C467 0.949 . S
H492 C469 0.950 . S
H493 C471 0.950 . S
C494 C495 1.349 . S
C494 C496 1.327 . S
C494 H519 0.950 . S
C495 C494 1.349 . S
C495 C511 1.349 . S
C496 C494 1.327 . S
C496 C515 1.429 . S
C496 H520 0.950 . S
C497 C514 1.574 . S
C497 C516 1.368 . S
C497 H521 0.949 . S
H498 C502 0.949 . S
C499 C500 1.349 . S
C499 C501 1.327 . S
C499 H522 0.950 1_556 S
C500 C499 1.349 . S
C500 C512 1.349 . S
C501 C499 1.327 . S
C501 C517 1.429 . S
C501 H523 0.950 . S
C502 H498 0.949 . S
C502 C510 1.574 . S
C502 C518 1.368 . S
H503 C511 0.950 . S
H504 C509 0.950 . S
H505 C510 0.949 . S
H506 C512 0.950 . S
H507 C513 0.950 . S
H508 C514 0.949 . S
C509 H504 0.950 . S
C509 C511 1.327 . S
C509 C515 1.429 . S
C510 C502 1.574 . S
C510 H505 0.949 . S
C510 C516 1.368 . S
C511 C495 1.349 . S
C511 H503 0.950 . S
C511 C509 1.327 . S
C512 C500 1.349 . S
C512 H506 0.950 . S
C512 C513 1.327 . S
C513 H507 0.950 . S
C513 C512 1.327 . S
C513 C517 1.429 . S
C514 C497 1.574 . S
C514 H508 0.949 . S
C514 C518 1.368 . S
C515 C496 1.429 . S
C515 C509 1.429 . S
C515 C516 1.523 . S
C516 C497 1.368 . S
C516 C510 1.368 . S
C516 C515 1.523 . S
C517 C501 1.429 . S
C517 C513 1.429 . S
C517 C518 1.523 . S
C518 C502 1.368 . S
C518 C514 1.368 . S
C518 C517 1.523 . S
H519 C494 0.950 . S
H520 C496 0.950 . S
H521 C497 0.949 . S
H522 C499 0.950 1_554 S
H523 C501 0.950 . S
C524 C525 1.349 . S
C524 C526 1.327 . S
C524 H549 0.950 . S
C525 C524 1.349 . S
C525 C541 1.349 . S
C526 C524 1.327 . S
C526 C545 1.429 . S
C526 H550 0.950 . S
C527 C544 1.574 . S
C527 C546 1.368 . S
C527 H551 0.949 . S
H528 C532 0.949 . S
C529 C530 1.349 . S
C529 C531 1.327 . S
C529 H552 0.950 . S
C530 C529 1.349 . S
C530 C542 1.349 1_455 S
C531 C529 1.327 . S
C531 C547 1.429 1_455 S
C531 H553 0.950 . S
C532 H528 0.949 . S
C532 C540 1.574 . S
C532 C548 1.368 . S
H533 C541 0.950 . S
H534 C539 0.950 . S
H535 C540 0.949 . S
H536 C542 0.950 . S
H537 C543 0.950 . S
H538 C544 0.949 . S
C539 H534 0.950 . S
C539 C541 1.327 . S
C539 C545 1.429 . S
C540 C532 1.574 . S
C540 H535 0.949 . S
C540 C546 1.368 . S
C541 C525 1.349 . S
C541 H533 0.950 . S
C541 C539 1.327 . S
C542 C530 1.349 1_655 S
C542 H536 0.950 . S
C542 C543 1.327 . S
C543 H537 0.950 . S
C543 C542 1.327 . S
C543 C547 1.429 . S
C544 C527 1.574 . S
C544 H538 0.949 . S
C544 C548 1.368 . S
C545 C526 1.429 . S
C545 C539 1.429 . S
C545 C546 1.523 . S
C546 C527 1.368 . S
C546 C540 1.368 . S
C546 C545 1.523 . S
C547 C531 1.429 1_655 S
C547 C543 1.429 . S
C547 C548 1.523 . S
C548 C532 1.368 . S
C548 C544 1.368 . S
C548 C547 1.523 . S
H549 C524 0.950 . S
H550 C526 0.950 . S
H551 C527 0.949 . S
H552 C529 0.950 . S
H553 C531 0.950 . S
C554 C555 1.349 . S
C554 C556 1.327 . S
C554 H579 0.950 . S
C555 C554 1.349 . S
C555 C571 1.349 . S
C556 C554 1.327 . S
C556 C575 1.429 . S
C556 H580 0.950 . S
C557 C574 1.574 . S
C557 C576 1.368 . S
C557 H581 0.949 . S
H558 C562 0.949 . S
C559 C560 1.349 . S
C559 C561 1.327 . S
C559 H582 0.950 . S
C560 C559 1.349 . S
C560 C572 1.349 . S
C561 C559 1.327 . S
C561 C577 1.429 . S
C561 H583 0.950 . S
C562 H558 0.949 . S
C562 C570 1.574 . S
C562 C578 1.368 . S
H563 C571 0.950 . S
H564 C569 0.950 . S
H565 C570 0.949 . S
H566 C572 0.950 . S
H567 C573 0.950 . S
H568 C574 0.949 . S
C569 H564 0.950 . S
C569 C571 1.327 . S
C569 C575 1.429 . S
C570 C562 1.574 . S
C570 H565 0.949 . S
C570 C576 1.368 . S
C571 C555 1.349 . S
C571 H563 0.950 . S
C571 C569 1.327 . S
C572 C560 1.349 . S
C572 H566 0.950 . S
C572 C573 1.327 . S
C573 H567 0.950 . S
C573 C572 1.327 . S
C573 C577 1.429 . S
C574 C557 1.574 . S
C574 H568 0.949 . S
C574 C578 1.368 . S
C575 C556 1.429 . S
C575 C569 1.429 . S
C575 C576 1.523 . S
C576 C557 1.368 . S
C576 C570 1.368 . S
C576 C575 1.523 . S
C577 C561 1.429 . S
C577 C573 1.429 . S
C577 C578 1.523 . S
C578 C562 1.368 . S
C578 C574 1.368 . S
C578 C577 1.523 . S
H579 C554 0.950 . S
H580 C556 0.950 . S
H581 C557 0.949 . S
H582 C559 0.950 . S
H583 C561 0.950 . S
C584 C585 1.349 . S
C584 C586 1.327 . S
C584 H609 0.950 . S
C585 C584 1.349 . S
C585 C601 1.349 . S
C586 C584 1.327 . S
C586 C605 1.429 . S
C586 H610 0.950 . S
C587 C604 1.574 . S
C587 C606 1.368 . S
C587 H611 0.949 . S
H588 C592 0.949 . S
C589 C590 1.349 . S
C589 C591 1.327 . S
C589 H612 0.950 1_565 S
C590 C589 1.349 . S
C590 C602 1.349 1_455 S
C591 C589 1.327 . S
C591 C607 1.429 1_455 S
C591 H613 0.950 1_565 S
C592 H588 0.949 . S
C592 C600 1.574 . S
C592 C608 1.368 . S
H593 C601 0.950 . S
H594 C599 0.950 . S
H595 C600 0.949 . S
H596 C602 0.950 . S
H597 C603 0.950 . S
H598 C604 0.946 1_545 S
C599 H594 0.950 . S
C599 C601 1.327 . S
C599 C605 1.429 . S
C600 C592 1.574 . S
C600 H595 0.949 . S
C600 C606 1.368 . S
C601 C585 1.349 . S
C601 H593 0.950 . S
C601 C599 1.327 . S
C602 C590 1.349 1_655 S
C602 H596 0.950 . S
C602 C603 1.327 . S
C603 H597 0.950 . S
C603 C602 1.327 . S
C603 C607 1.429 . S
C604 C587 1.574 . S
C604 H598 0.946 1_565 S
C604 C608 1.368 . S
C605 C586 1.429 . S
C605 C599 1.429 . S
C605 C606 1.523 . S
C606 C587 1.368 . S
C606 C600 1.368 . S
C606 C605 1.523 . S
C607 C591 1.429 1_655 S
C607 C603 1.429 . S
C607 C608 1.523 . S
C608 C592 1.368 . S
C608 C604 1.368 . S
C608 C607 1.523 . S
H609 C584 0.950 . S
H610 C586 0.950 . S
H611 C587 0.949 . S
H612 C589 0.950 1_545 S
H613 C591 0.950 1_545 S
C614 C615 1.349 . S
C614 C616 1.327 . S
C614 H639 0.950 . S
C615 C614 1.349 . S
C615 C631 1.349 . S
C616 C614 1.327 . S
C616 C635 1.429 . S
C616 H640 0.950 . S
C617 C634 1.574 . S
C617 C636 1.368 . S
C617 H641 0.949 . S
H618 C622 0.949 . S
C619 C620 1.349 . S
C619 C621 1.327 . S
C619 H642 0.950 . S
C620 C619 1.349 . S
C620 C632 1.349 . S
C621 C619 1.327 . S
C621 C637 1.429 . S
C621 H643 0.950 . S
C622 H618 0.949 . S
C622 C630 1.574 . S
C622 C638 1.368 . S
H623 C631 0.950 . S
H624 C629 0.950 . S
H625 C630 0.949 . S
H626 C632 0.950 . S
H627 C633 0.950 . S
H628 C634 0.949 . S
C629 H624 0.950 . S
C629 C631 1.327 . S
C629 C635 1.429 . S
C630 C622 1.574 . S
C630 H625 0.949 . S
C630 C636 1.368 . S
C631 C615 1.349 . S
C631 H623 0.950 . S
C631 C629 1.327 . S
C632 C620 1.349 . S
C632 H626 0.950 . S
C632 C633 1.327 . S
C633 H627 0.950 . S
C633 C632 1.327 . S
C633 C637 1.429 . S
C634 C617 1.574 . S
C634 H628 0.949 . S
C634 C638 1.368 . S
C635 C616 1.429 . S
C635 C629 1.429 . S
C635 C636 1.523 . S
C636 C617 1.368 . S
C636 C630 1.368 . S
C636 C635 1.523 . S
C637 C621 1.429 . S
C637 C633 1.429 . S
C637 C638 1.523 . S
C638 C622 1.368 . S
C638 C634 1.368 . S
C638 C637 1.523 . S
H639 C614 0.950 . S
H640 C616 0.950 . S
H641 C617 0.949 . S
H642 C619 0.950 . S
H643 C621 0.950 . S
C644 C645 1.349 . S
C644 C646 1.327 . S
C644 H669 0.950 . S
C645 C644 1.349 . S
C645 C661 1.349 . S
C646 C644 1.327 . S
C646 C665 1.429 . S
C646 H670 0.950 . S
C647 C664 1.574 . S
C647 C666 1.368 . S
C647 H671 0.949 . S
H648 C652 0.949 . S
C649 C650 1.349 . S
C649 C651 1.327 . S
C649 H672 0.950 . S
C650 C649 1.349 . S
C650 C662 1.349 . S
C651 C649 1.327 . S
C651 C667 1.429 . S
C651 H673 0.950 . S
C652 H648 0.949 . S
C652 C660 1.574 . S
C652 C668 1.368 . S
H653 C661 0.950 . S
H654 C659 0.950 . S
H655 C660 0.949 . S
H656 C662 0.950 . S
H657 C663 0.950 . S
H658 C664 0.949 . S
C659 H654 0.950 . S
C659 C661 1.327 . S
C659 C665 1.429 . S
C660 C652 1.574 . S
C660 H655 0.949 . S
C660 C666 1.368 . S
C661 C645 1.349 . S
C661 H653 0.950 . S
C661 C659 1.327 . S
C662 C650 1.349 . S
C662 H656 0.950 . S
C662 C663 1.327 . S
C663 H657 0.950 . S
C663 C662 1.327 . S
C663 C667 1.429 . S
C664 C647 1.574 . S
C664 H658 0.949 . S
C664 C668 1.368 . S
C665 C646 1.429 . S
C665 C659 1.429 . S
C665 C666 1.523 . S
C666 C647 1.368 . S
C666 C660 1.368 . S
C666 C665 1.523 . S
C667 C651 1.429 . S
C667 C663 1.429 . S
C667 C668 1.523 . S
C668 C652 1.368 . S
C668 C664 1.368 . S
C668 C667 1.523 . S
H669 C644 0.950 . S
H670 C646 0.950 . S
H671 C647 0.949 . S
H672 C649 0.950 . S
H673 C651 0.950 . S
C674 C675 1.349 . S
C674 C676 1.327 . S
C674 H699 0.950 . S
C675 C674 1.349 . S
C675 C691 1.349 . S
C676 C674 1.327 . S
C676 C695 1.429 . S
C676 H700 0.950 . S
C677 C694 1.574 . S
C677 C696 1.368 . S
C677 H701 0.949 . S
H678 C682 0.949 . S
C679 C680 1.349 . S
C679 C681 1.327 . S
C679 H702 0.950 . S
C680 C679 1.349 . S
C680 C692 1.349 . S
C681 C679 1.327 . S
C681 C697 1.429 . S
C681 H703 0.950 . S
C682 H678 0.949 . S
C682 C690 1.574 . S
C682 C698 1.368 . S
H683 C691 0.950 . S
H684 C689 0.950 . S
H685 C690 0.949 . S
H686 C692 0.950 . S
H687 C693 0.950 . S
H688 C694 0.949 . S
C689 H684 0.950 . S
C689 C691 1.327 . S
C689 C695 1.429 . S
C690 C682 1.574 . S
C690 H685 0.949 . S
C690 C696 1.368 . S
C691 C675 1.349 . S
C691 H683 0.950 . S
C691 C689 1.327 . S
C692 C680 1.349 . S
C692 H686 0.950 . S
C692 C693 1.327 . S
C693 H687 0.950 . S
C693 C692 1.327 . S
C693 C697 1.429 . S
C694 C677 1.574 . S
C694 H688 0.949 . S
C694 C698 1.368 . S
C695 C676 1.429 . S
C695 C689 1.429 . S
C695 C696 1.523 . S
C696 C677 1.368 . S
C696 C690 1.368 . S
C696 C695 1.523 . S
C697 C681 1.429 . S
C697 C693 1.429 . S
C697 C698 1.523 . S
C698 C682 1.368 . S
C698 C694 1.368 . S
C698 C697 1.523 . S
H699 C674 0.950 . S
H700 C676 0.950 . S
H701 C677 0.949 . S
H702 C679 0.950 . S
H703 C681 0.950 . S
C704 C705 1.349 . S
C704 C706 1.327 . S
C704 H729 0.950 . S
C705 C704 1.349 . S
C705 C721 1.349 . S
C706 C704 1.327 . S
C706 C725 1.429 . S
C706 H730 0.950 . S
C707 C724 1.574 . S
C707 C726 1.368 . S
C707 H731 0.949 1_565 S
H708 C712 0.949 . S
C709 C710 1.339 1_546 S
C709 C711 1.327 . S
C709 H732 0.950 . S
C710 C709 1.339 1_564 S
C710 C722 1.350 . S
C711 C709 1.327 . S
C711 C727 1.429 1_545 S
C711 H733 0.950 . S
C712 H708 0.949 . S
C712 C720 1.574 . S
C712 C728 1.368 . S
H713 C721 0.950 . S
H714 C719 0.950 . S
H715 C720 0.949 . S
H716 C722 0.950 . S
H717 C723 0.953 . S
H718 C724 0.949 1_545 S
C719 H714 0.950 . S
C719 C721 1.327 . S
C719 C725 1.429 . S
C720 C712 1.574 . S
C720 H715 0.949 . S
C720 C726 1.368 . S
C721 C705 1.349 . S
C721 H713 0.950 . S
C721 C719 1.327 . S
C722 C710 1.350 . S
C722 H716 0.950 . S
C722 C723 1.327 1_554 S
C723 H717 0.953 . S
C723 C722 1.327 1_556 S
C723 C727 1.429 . S
C724 C707 1.574 . S
C724 H718 0.949 1_565 S
C724 C728 1.368 . S
C725 C706 1.429 . S
C725 C719 1.429 . S
C725 C726 1.523 . S
C726 C707 1.368 . S
C726 C720 1.368 . S
C726 C725 1.523 . S
C727 C711 1.429 1_565 S
C727 C723 1.429 . S
C727 C728 1.523 . S
C728 C712 1.368 . S
C728 C724 1.368 . S
C728 C727 1.523 . S
H729 C704 0.950 . S
H730 C706 0.950 . S
H731 C707 0.949 1_545 S
H732 C709 0.950 . S
H733 C711 0.950 . S
C734 C735 1.349 . S
C734 C736 1.327 . S
C734 H759 0.950 . S
C735 C734 1.349 . S
C735 C751 1.349 . S
C736 C734 1.327 . S
C736 C755 1.429 . S
C736 H760 0.950 . S
C737 C754 1.574 . S
C737 C756 1.368 . S
C737 H761 0.949 . S
H738 C742 0.949 . S
C739 C740 1.349 . S
C739 C741 1.327 . S
C739 H762 0.950 . S
C740 C739 1.349 . S
C740 C752 1.349 . S
C741 C739 1.327 . S
C741 C757 1.429 . S
C741 H763 0.950 . S
C742 H738 0.949 . S
C742 C750 1.574 . S
C742 C758 1.368 . S
H743 C751 0.950 . S
H744 C749 0.950 . S
H745 C750 0.949 . S
H746 C752 0.950 . S
H747 C753 0.950 . S
H748 C754 0.949 . S
C749 H744 0.950 . S
C749 C751 1.327 . S
C749 C755 1.429 . S
C750 C742 1.574 . S
C750 H745 0.949 . S
C750 C756 1.368 . S
C751 C735 1.349 . S
C751 H743 0.950 . S
C751 C749 1.327 . S
C752 C740 1.349 . S
C752 H746 0.950 . S
C752 C753 1.327 . S
C753 H747 0.950 . S
C753 C752 1.327 . S
C753 C757 1.429 . S
C754 C737 1.574 . S
C754 H748 0.949 . S
C754 C758 1.368 . S
C755 C736 1.429 . S
C755 C749 1.429 . S
C755 C756 1.523 . S
C756 C737 1.368 . S
C756 C750 1.368 . S
C756 C755 1.523 . S
C757 C741 1.429 . S
C757 C753 1.429 . S
C757 C758 1.523 . S
C758 C742 1.368 . S
C758 C754 1.368 . S
C758 C757 1.523 . S
H759 C734 0.950 . S
H760 C736 0.950 . S
H761 C737 0.949 . S
H762 C739 0.950 . S
H763 C741 0.950 . S
C764 C765 1.349 . S
C764 C766 1.327 . S
C764 H789 0.950 . S
C765 C764 1.349 . S
C765 C781 1.349 . S
C766 C764 1.327 . S
C766 C785 1.429 . S
C766 H790 0.950 . S
C767 C784 1.574 . S
C767 C786 1.368 . S
C767 H791 0.949 . S
H768 C772 0.949 . S
C769 C770 1.349 . S
C769 C771 1.327 . S
C769 H792 0.938 1_554 S
C770 C769 1.349 . S
C770 C782 1.349 . S
C771 C769 1.327 . S
C771 C787 1.429 . S
C771 H793 0.950 . S
C772 H768 0.949 . S
C772 C780 1.574 . S
C772 C788 1.368 . S
H773 C781 0.950 . S
H774 C779 0.950 . S
H775 C780 0.949 . S
H776 C782 0.950 . S
H777 C783 0.950 . S
H778 C784 0.949 . S
C779 H774 0.950 . S
C779 C781 1.327 . S
C779 C785 1.429 . S
C780 C772 1.574 . S
C780 H775 0.949 . S
C780 C786 1.368 . S
C781 C765 1.349 . S
C781 H773 0.950 . S
C781 C779 1.327 . S
C782 C770 1.349 . S
C782 H776 0.950 . S
C782 C783 1.327 . S
C783 H777 0.950 . S
C783 C782 1.327 . S
C783 C787 1.429 . S
C784 C767 1.574 . S
C784 H778 0.949 . S
C784 C788 1.368 . S
C785 C766 1.429 . S
C785 C779 1.429 . S
C785 C786 1.523 . S
C786 C767 1.368 . S
C786 C780 1.368 . S
C786 C785 1.523 . S
C787 C771 1.429 . S
C787 C783 1.429 . S
C787 C788 1.523 . S
C788 C772 1.368 . S
C788 C784 1.368 . S
C788 C787 1.523 . S
H789 C764 0.950 . S
H790 C766 0.950 . S
H791 C767 0.949 . S
H792 C769 0.938 1_556 S
H793 C771 0.950 . S
C794 C795 1.349 . S
C794 C796 1.327 . S
C794 H819 0.950 . S
C795 C794 1.349 . S
C795 C811 1.349 . S
C796 C794 1.327 . S
C796 C815 1.429 . S
C796 H820 0.950 . S
C797 C814 1.574 . S
C797 C816 1.368 . S
C797 H821 0.949 . S
H798 C802 0.949 . S
C799 C800 1.349 . S
C799 C801 1.327 . S
C799 H822 0.950 . S
C800 C799 1.349 . S
C800 C812 1.349 . S
C801 C799 1.327 . S
C801 C817 1.429 . S
C801 H823 0.950 . S
C802 H798 0.949 . S
C802 C810 1.574 . S
C802 C818 1.368 . S
H803 C811 0.950 . S
H804 C809 0.950 . S
H805 C810 0.949 . S
H806 C812 0.950 . S
H807 C813 0.950 . S
H808 C814 0.949 . S
C809 H804 0.950 . S
C809 C811 1.327 . S
C809 C815 1.429 . S
C810 C802 1.574 . S
C810 H805 0.949 . S
C810 C816 1.368 . S
C811 C795 1.349 . S
C811 H803 0.950 . S
C811 C809 1.327 . S
C812 C800 1.349 . S
C812 H806 0.950 . S
C812 C813 1.327 . S
C813 H807 0.950 . S
C813 C812 1.327 . S
C813 C817 1.429 . S
C814 C797 1.574 . S
C814 H808 0.949 . S
C814 C818 1.368 . S
C815 C796 1.429 . S
C815 C809 1.429 . S
C815 C816 1.523 . S
C816 C797 1.368 . S
C816 C810 1.368 . S
C816 C815 1.523 . S
C817 C801 1.429 . S
C817 C813 1.429 . S
C817 C818 1.523 . S
C818 C802 1.368 . S
C818 C814 1.368 . S
C818 C817 1.523 . S
H819 C794 0.950 . S
H820 C796 0.950 . S
H821 C797 0.949 . S
H822 C799 0.950 . S
H823 C801 0.950 . S
C824 C825 1.349 . S
C824 C826 1.327 . S
C824 H849 0.950 . S
C825 C824 1.349 . S
C825 C841 1.349 . S
C826 C824 1.327 . S
C826 C845 1.429 . S
C826 H850 0.950 . S
C827 C844 1.574 . S
C827 C846 1.368 . S
C827 H851 0.949 . S
H828 C832 0.949 . S
C829 C830 1.349 . S
C829 C831 1.327 . S
C829 H852 0.950 1_556 S
C830 C829 1.349 . S
C830 C842 1.349 . S
C831 C829 1.327 . S
C831 C847 1.429 . S
C831 H853 0.950 . S
C832 H828 0.949 . S
C832 C840 1.574 . S
C832 C848 1.368 . S
H833 C841 0.950 . S
H834 C839 0.950 . S
H835 C840 0.949 . S
H836 C842 0.936 1_455 S
H837 C843 0.950 . S
H838 C844 0.949 . S
C839 H834 0.950 . S
C839 C841 1.327 . S
C839 C845 1.429 . S
C840 C832 1.574 . S
C840 H835 0.949 . S
C840 C846 1.368 . S
C841 C825 1.349 . S
C841 H833 0.950 . S
C841 C839 1.327 . S
C842 C830 1.349 . S
C842 H836 0.936 1_655 S
C842 C843 1.327 . S
C843 H837 0.950 . S
C843 C842 1.327 . S
C843 C847 1.429 . S
C844 C827 1.574 . S
C844 H838 0.949 . S
C844 C848 1.368 . S
C845 C826 1.429 . S
C845 C839 1.429 . S
C845 C846 1.523 . S
C846 C827 1.368 . S
C846 C840 1.368 . S
C846 C845 1.523 . S
C847 C831 1.429 . S
C847 C843 1.429 . S
C847 C848 1.523 . S
C848 C832 1.368 . S
C848 C844 1.368 . S
C848 C847 1.523 . S
H849 C824 0.950 . S
H850 C826 0.950 . S
H851 C827 0.949 . S
H852 C829 0.950 1_554 S
H853 C831 0.950 . S
C854 C855 1.349 . S
C854 C856 1.327 . S
C854 H879 0.950 . S
C855 C854 1.349 . S
C855 C871 1.349 . S
C856 C854 1.327 . S
C856 C875 1.429 . S
C856 H880 0.950 . S
C857 C874 1.574 . S
C857 C876 1.368 . S
C857 H881 0.949 . S
H858 C862 0.949 . S
C859 C860 1.349 . S
C859 C861 1.327 . S
C859 H882 0.950 . S
C860 C859 1.349 . S
C860 C872 1.349 . S
C861 C859 1.327 . S
C861 C877 1.429 . S
C861 H883 0.950 . S
C862 H858 0.949 . S
C862 C870 1.574 . S
C862 C878 1.368 . S
H863 C871 0.950 . S
H864 C869 0.950 . S
H865 C870 0.949 . S
H866 C872 0.950 . S
H867 C873 0.950 . S
H868 C874 0.949 . S
C869 H864 0.950 . S
C869 C871 1.327 . S
C869 C875 1.429 . S
C870 C862 1.574 . S
C870 H865 0.949 . S
C870 C876 1.368 . S
C871 C855 1.349 . S
C871 H863 0.950 . S
C871 C869 1.327 . S
C872 C860 1.349 . S
C872 H866 0.950 . S
C872 C873 1.327 . S
C873 H867 0.950 . S
C873 C872 1.327 . S
C873 C877 1.429 . S
C874 C857 1.574 . S
C874 H868 0.949 . S
C874 C878 1.368 . S
C875 C856 1.429 . S
C875 C869 1.429 . S
C875 C876 1.523 . S
C876 C857 1.368 . S
C876 C870 1.368 . S
C876 C875 1.523 . S
C877 C861 1.429 . S
C877 C873 1.429 . S
C877 C878 1.523 . S
C878 C862 1.368 . S
C878 C874 1.368 . S
C878 C877 1.523 . S
H879 C854 0.950 . S
H880 C856 0.950 . S
H881 C857 0.949 . S
H882 C859 0.950 . S
H883 C861 0.950 . S
C884 C885 1.349 . S
C884 C886 1.327 . S
C884 H909 0.950 . S
C885 C884 1.349 . S
C885 C901 1.349 . S
C886 C884 1.327 . S
C886 C905 1.429 . S
C886 H910 0.950 . S
C887 C904 1.574 . S
C887 C906 1.368 . S
C887 H911 0.949 . S
H888 C892 0.949 . S
C889 C890 1.349 . S
C889 C891 1.327 . S
C889 H912 0.950 . S
C890 C889 1.349 . S
C890 C902 1.349 . S
C891 C889 1.327 . S
C891 C907 1.429 . S
C891 H913 0.950 . S
C892 H888 0.949 . S
C892 C900 1.574 . S
C892 C908 1.368 . S
H893 C901 0.950 . S
H894 C899 0.950 . S
H895 C900 0.949 . S
H896 C902 0.950 . S
H897 C903 0.950 . S
H898 C904 0.949 . S
C899 H894 0.950 . S
C899 C901 1.327 . S
C899 C905 1.429 . S
C900 C892 1.574 . S
C900 H895 0.949 . S
C900 C906 1.368 . S
C901 C885 1.349 . S
C901 H893 0.950 . S
C901 C899 1.327 . S
C902 C890 1.349 . S
C902 H896 0.950 . S
C902 C903 1.327 . S
C903 H897 0.950 . S
C903 C902 1.327 . S
C903 C907 1.429 . S
C904 C887 1.574 . S
C904 H898 0.949 . S
C904 C908 1.368 . S
C905 C886 1.429 . S
C905 C899 1.429 . S
C905 C906 1.523 . S
C906 C887 1.368 . S
C906 C900 1.368 . S
C906 C905 1.523 . S
C907 C891 1.429 . S
C907 C903 1.429 . S
C907 C908 1.523 . S
C908 C892 1.368 . S
C908 C904 1.368 . S
C908 C907 1.523 . S
H909 C884 0.950 . S
H910 C886 0.950 . S
H911 C887 0.949 . S
H912 C889 0.950 . S
H913 C891 0.950 . S
C914 C915 1.349 . S
C914 C916 1.327 . S
C914 H939 0.950 . S
C915 C914 1.349 . S
C915 C931 1.349 . S
C916 C914 1.327 . S
C916 C935 1.429 . S
C916 H940 0.950 . S
C917 C934 1.574 . S
C917 C936 1.368 . S
C917 H941 0.949 . S
H918 C922 0.949 . S
C919 C920 1.349 . S
C919 C921 1.327 . S
C919 H942 0.950 . S
C920 C919 1.349 . S
C920 C932 1.349 . S
C921 C919 1.327 . S
C921 C937 1.429 . S
C921 H943 0.950 . S
C922 H918 0.949 . S
C922 C930 1.574 . S
C922 C938 1.368 . S
H923 C931 0.950 . S
H924 C929 0.950 . S
H925 C930 0.949 . S
H926 C932 0.950 . S
H927 C933 0.950 . S
H928 C934 0.949 . S
C929 H924 0.950 . S
C929 C931 1.327 . S
C929 C935 1.429 . S
C930 C922 1.574 . S
C930 H925 0.949 . S
C930 C936 1.368 . S
C931 C915 1.349 . S
C931 H923 0.950 . S
C931 C929 1.327 . S
C932 C920 1.349 . S
C932 H926 0.950 . S
C932 C933 1.327 . S
C933 H927 0.950 . S
C933 C932 1.327 . S
C933 C937 1.429 . S
C934 C917 1.574 . S
C934 H928 0.949 . S
C934 C938 1.368 . S
C935 C916 1.429 . S
C935 C929 1.429 . S
C935 C936 1.523 . S
C936 C917 1.368 . S
C936 C930 1.368 . S
C936 C935 1.523 . S
C937 C921 1.429 . S
C937 C933 1.429 . S
C937 C938 1.523 . S
C938 C922 1.368 . S
C938 C934 1.368 . S
C938 C937 1.523 . S
H939 C914 0.950 . S
H940 C916 0.950 . S
H941 C917 0.949 . S
H942 C919 0.950 . S
H943 C921 0.950 . S
C225 N1 2.049 . S
C230 C120 2.116 . S
C255 N18 1.450 . S
C260 N140 1.424 . S
C290 C174 1.387 . S
C285 N28 1.386 . S
C315 N40 1.406 . S
C320 N208 1.387 . S
C350 C161 2.752 . S
C345 N5 2.712 . S
C380 N118 1.199 . S
C375 N14 1.218 . S
C410 C195 1.881 . S
C405 N31 1.846 . S
C440 N170 0.588 . S
C435 N41 0.579 . S
C465 N2 1.699 . S
C470 C210 1.715 . S
C500 C144 1.742 1_556 S
C495 N27 1.714 . S
C525 N44 1.557 . S
C530 C105 1.601 . S
C555 N15 1.188 . S
C560 C191 1.194 . S
C590 C131 2.522 . S
C585 N57 2.504 . S
C615 N70 0.916 . S
C620 N148 0.906 . S
C645 N79 1.728 . S
C650 C165 1.776 . S
C675 N93 1.054 . S
C680 N200 1.031 . S
C705 N54 2.262 . S
C710 C150 2.274 1_565 S
C740 N110 1.639 . S
C735 N66 1.669 . S
C770 C204 1.288 . S
C765 N80 1.279 . S
C800 N178 0.941 . S
C795 N96 0.942 . S
C825 N53 1.753 . S
C830 C221 1.780 . S
C860 C135 1.594 . S
C855 N83 1.560 . S
C890 C114 1.610 . S
C885 N92 1.587 . S
C915 N67 1.210 . S
C920 C180 1.219 . S
