# Generated by pormake.
# Topology zzz, (3,6)-cn, num edge types: 1
# Building blocks:
#     Node 0, Type 0, BuildingBlock: MIDCAF_clean_linker_0, # of connection points: 3
#     Node 1, Type 0, BuildingBlock: MIDCAF_clean_linker_0, # of connection points: 3
#     Node 2, Type 0, BuildingBlock: MIDCAF_clean_linker_0, # of connection points: 3
#     Node 3, Type 0, BuildingBlock: MIDCAF_clean_linker_0, # of connection points: 3
#     Node 4, Type 0, BuildingBlock: MIDCAF_clean_linker_0, # of connection points: 3
#     Node 5, Type 0, BuildingBlock: MIDCAF_clean_linker_0, # of connection points: 3
#     Node 6, Type 0, BuildingBlock: MIDCAF_clean_linker_0, # of connection points: 3
#     Node 7, Type 0, BuildingBlock: MIDCAF_clean_linker_0, # of connection points: 3
#     Node 8, Type 1, BuildingBlock: BETDAH_clean_sbu_0, # of connection points: 6
#     Node 9, Type 1, BuildingBlock: BETDAH_clean_sbu_0, # of connection points: 6
#     Node 10, Type 1, BuildingBlock: BETDAH_clean_sbu_0, # of connection points: 6
#     Node 11, Type 1, BuildingBlock: BETDAH_clean_sbu_0, # of connection points: 6
#     Edge 12, Type (0, 1), BuildingBlock: UVAHIK_clean_linker_0, # of connection points: 2
#     Edge 13, Type (0, 1), BuildingBlock: UVAHIK_clean_linker_0, # of connection points: 2
#     Edge 14, Type (0, 1), BuildingBlock: UVAHIK_clean_linker_0, # of connection points: 2
#     Edge 15, Type (0, 1), BuildingBlock: UVAHIK_clean_linker_0, # of connection points: 2
#     Edge 16, Type (0, 1), BuildingBlock: UVAHIK_clean_linker_0, # of connection points: 2
#     Edge 17, Type (0, 1), BuildingBlock: UVAHIK_clean_linker_0, # of connection points: 2
#     Edge 18, Type (0, 1), BuildingBlock: UVAHIK_clean_linker_0, # of connection points: 2
#     Edge 19, Type (0, 1), BuildingBlock: UVAHIK_clean_linker_0, # of connection points: 2
#     Edge 20, Type (0, 1), BuildingBlock: UVAHIK_clean_linker_0, # of connection points: 2
#     Edge 21, Type (0, 1), BuildingBlock: UVAHIK_clean_linker_0, # of connection points: 2
#     Edge 22, Type (0, 1), BuildingBlock: UVAHIK_clean_linker_0, # of connection points: 2
#     Edge 23, Type (0, 1), BuildingBlock: UVAHIK_clean_linker_0, # of connection points: 2
#     Edge 24, Type (0, 1), BuildingBlock: UVAHIK_clean_linker_0, # of connection points: 2
#     Edge 25, Type (0, 1), BuildingBlock: UVAHIK_clean_linker_0, # of connection points: 2
#     Edge 26, Type (0, 1), BuildingBlock: UVAHIK_clean_linker_0, # of connection points: 2
#     Edge 27, Type (0, 1), BuildingBlock: UVAHIK_clean_linker_0, # of connection points: 2
#     Edge 28, Type (0, 1), BuildingBlock: UVAHIK_clean_linker_0, # of connection points: 2
#     Edge 29, Type (0, 1), BuildingBlock: UVAHIK_clean_linker_0, # of connection points: 2
#     Edge 30, Type (0, 1), BuildingBlock: UVAHIK_clean_linker_0, # of connection points: 2
#     Edge 31, Type (0, 1), BuildingBlock: UVAHIK_clean_linker_0, # of connection points: 2
#     Edge 32, Type (0, 1), BuildingBlock: UVAHIK_clean_linker_0, # of connection points: 2
#     Edge 33, Type (0, 1), BuildingBlock: UVAHIK_clean_linker_0, # of connection points: 2
#     Edge 34, Type (0, 1), BuildingBlock: UVAHIK_clean_linker_0, # of connection points: 2
#     Edge 35, Type (0, 1), BuildingBlock: UVAHIK_clean_linker_0, # of connection points: 2
# Relax obj value: 0.414
# Max RMSD: 0.277
# Mean RMSD: 0.254
data_MOF--net-zzz--node1-BETDAH_clean_sbu_0--node2-MIDCAF_clean_linker_0--edge1-UVAHIK_clean_linker_0
_symmetry_space_group_name_H-M    P1
_symmetry_Int_Tables_number       1
_symmetry_cell_setting            triclinic
loop_
_symmetry_equiv_pos_as_xyz
'x, y, z'
_cell_length_a     73.851519
_cell_length_b     73.821811
_cell_length_c     22.384751
_cell_angle_alpha  90.02889
_cell_angle_beta   89.958023
_cell_angle_gamma 90.244532
loop_
_atom_site_label
_atom_site_type_symbol
_atom_site_fract_x
_atom_site_fract_y
_atom_site_fract_z
_atom_type_partial_charge
C0 C 0.77899 0.55358 0.39625 0.0
C1 C 0.78085 0.53644 0.42281 0.0
C2 C 0.76749 0.52319 0.41147 0.0
C3 C 0.75321 0.5267 0.37173 0.0
H4 H 0.68243 0.54717 0.29211 0.0
H5 H 0.65184 0.54001 0.25566 0.0
H6 H 0.6751 0.50742 0.11492 0.0
H7 H 0.70525 0.51448 0.15169 0.0
H8 H 0.72324 0.56035 0.07785 0.0
H9 H 0.73941 0.56677 0.98533 0.0
H10 H 0.78889 0.57432 0.08558 0.0
H11 H 0.77275 0.56852 0.17759 0.0
H12 H 0.76453 0.57001 0.33397 0.0
H13 H 0.78906 0.56406 0.40336 0.0
H14 H 0.76844 0.5099 0.43165 0.0
H15 H 0.74371 0.51594 0.36127 0.0
N16 N 0.72357 0.53816 0.28529 0.0
N17 N 0.72141 0.54836 0.1859 0.0
N18 N 0.74739 0.55473 0.24124 0.0
C19 C 0.71401 0.53963 0.23336 0.0
C20 C 0.73803 0.55603 0.18942 0.0
C21 C 0.74038 0.5459 0.28927 0.0
C22 C 0.69609 0.53122 0.22492 0.0
C23 C 0.68083 0.53787 0.25504 0.0
C24 C 0.66338 0.53396 0.23359 0.0
C25 C 0.66098 0.52326 0.18194 0.0
C26 C 0.67632 0.5155 0.15511 0.0
C27 C 0.69365 0.51953 0.17615 0.0
C28 C 0.74679 0.56349 0.13514 0.0
C29 C 0.73749 0.56381 0.08028 0.0
C30 C 0.74676 0.56744 0.02713 0.0
C31 C 0.76551 0.57078 0.02773 0.0
C32 C 0.77442 0.57198 0.08315 0.0
C33 C 0.76516 0.56845 0.1362 0.0
C34 C 0.75222 0.54342 0.34201 0.0
C35 C 0.76493 0.55698 0.35621 0.0
C36 C 0.0188 0.77863 0.42691 0.0
C37 C 1.0011 0.78423 0.4407 0.0
C38 C 0.98645 0.77408 0.41766 0.0
C39 C 0.98946 0.75956 0.37835 0.0
H40 H 0.03832 0.69469 0.21495 0.0
H41 H 0.03377 0.66539 0.16684 0.0
H42 H 0.9773 0.66642 0.2157 0.0
H43 H 0.98188 0.69609 0.26414 0.0
H44 H 0.0341 0.73194 0.1009 0.0
H45 H 0.04193 0.74915 0.01115 0.0
H46 H 0.02763 0.79878 0.10136 0.0
H47 H 0.01978 0.78179 0.19071 0.0
H48 H 0.03551 0.76122 0.37393 0.0
H49 H 0.03041 0.78618 0.44301 0.0
H50 H 0.97264 0.7779 0.42779 0.0
H51 H 0.97797 0.75286 0.35777 0.0
N52 N 0.00795 0.72616 0.30291 0.0
N53 N 0.01844 0.72696 0.20349 0.0
N54 N 0.0166 0.75377 0.25812 0.0
C55 C 0.01223 0.71737 0.25103 0.0
C56 C 0.0205 0.74513 0.20637 0.0
C57 C 0.01043 0.7445 0.30638 0.0
C58 C 0.01046 0.69759 0.24335 0.0
C59 C 0.0251 0.6883 0.21778 0.0
C60 C 0.02249 0.67159 0.18997 0.0
C61 C 1.00517 0.66379 0.1871 0.0
C62 C 0.99081 0.67215 0.21775 0.0
C63 C 0.99344 0.68903 0.24573 0.0
C64 C 0.02622 0.75548 0.15298 0.0
C65 C 0.03267 0.74653 0.10166 0.0
C66 C 0.03721 0.75634 0.05033 0.0
C67 C 0.03517 0.77522 0.04922 0.0
C68 C 0.02903 0.78417 0.10074 0.0
C69 C 0.02467 0.77443 0.1521 0.0
C70 C 0.00714 0.75496 0.36143 0.0
C71 C 0.02176 0.76426 0.38743 0.0
C72 C 0.71381 0.97419 0.38869 0.0
C73 C 0.7148 0.98692 0.43532 0.0
C74 C 0.73071 0.99747 0.44065 0.0
C75 C 0.74485 0.99584 0.39876 0.0
H76 H 0.81277 0.97656 0.31657 0.0
H77 H 0.84481 0.9804 0.28992 0.0
H78 H 0.82984 0.02126 0.16086 0.0
H79 H 0.79836 0.01765 0.18876 0.0
H80 H 0.7767 0.98177 0.0856 0.0
H81 H 0.76255 0.97908 0.9876 0.0
H82 H 0.71125 0.96725 0.07251 0.0
H83 H 0.72536 0.96938 0.16959 0.0
H84 H 0.72613 0.96298 0.31104 0.0
H85 H 0.7018 0.96599 0.38205 0.0
H86 H 0.73208 0.00727 0.47638 0.0
H87 H 0.75655 1.00466 0.40247 0.0
N88 N 0.77362 0.98977 0.30407 0.0
N89 N 0.77722 0.9859 0.20019 0.0
N90 N 0.74951 0.97913 0.24475 0.0
C91 C 0.78421 0.99064 0.25402 0.0
C92 C 0.75994 0.98003 0.19512 0.0
C93 C 0.75607 0.98393 0.29923 0.0
C94 C 0.80319 0.9969 0.2549 0.0
C95 C 0.81656 0.98694 0.28469 0.0
C96 C 0.83486 0.98895 0.26858 0.0
C97 C 0.84 1.00095 0.22244 0.0
C98 C 0.82662 0.01203 0.19693 0.0
C99 C 0.80848 0.00998 0.21289 0.0
C100 C 0.75211 0.97607 0.13563 0.0
C101 C 0.76247 0.97827 0.08329 0.0
C102 C 0.75436 0.97677 0.02704 0.0
C103 C 0.73575 0.97304 0.02201 0.0
C104 C 0.72568 0.96985 0.07438 0.0
C105 C 0.73376 0.97128 0.1304 0.0
C106 C 0.74327 0.98371 0.35057 0.0
C107 C 0.72781 0.97257 0.34729 0.0
C108 C 0.54705 0.74521 0.0914 0.0
C109 C 0.54279 0.75407 0.03762 0.0
C110 C 0.5381 0.7725 0.03955 0.0
C111 C 0.53637 0.78144 0.09436 0.0
H112 H 0.48998 0.81554 0.21344 0.0
H113 H 0.48378 0.84601 0.17731 0.0
H114 H 0.53238 0.86549 0.26394 0.0
H115 H 0.53855 0.83472 0.29955 0.0
H116 H 0.5551 0.7557 0.34953 0.0
H117 H 0.55222 0.72851 0.41037 0.0
H118 H 0.49571 0.74039 0.44019 0.0
H119 H 0.49885 0.76807 0.38012 0.0
H120 H 0.54798 0.74654 0.18645 0.0
H121 H 0.55049 0.73097 0.09201 0.0
H122 H 0.53501 0.77981 0.9989 0.0
H123 H 0.53188 0.79539 0.0944 0.0
N124 N 0.52772 0.79735 0.20906 0.0
N125 N 0.52122 0.79382 0.31158 0.0
N126 N 0.5344 0.7701 0.25661 0.0
C127 C 0.52141 0.80426 0.2612 0.0
C128 C 0.52795 0.77662 0.3091 0.0
C129 C 0.53428 0.78029 0.20636 0.0
C130 C 0.51454 0.82292 0.26007 0.0
C131 C 0.49883 0.82654 0.22715 0.0
C132 C 0.49535 0.84402 0.20623 0.0
C133 C 0.5077 0.85821 0.21708 0.0
C134 C 0.52271 0.85482 0.2542 0.0
C135 C 0.52611 0.8373 0.27545 0.0
C136 C 0.52721 0.76397 0.3602 0.0
C137 C 0.54223 0.75285 0.37092 0.0
C138 C 0.5405 0.73715 0.40518 0.0
C139 C 0.52362 0.73199 0.42885 0.0
C140 C 0.50891 0.74396 0.42258 0.0
C141 C 0.51071 0.75987 0.38851 0.0
C142 C 0.53931 0.77211 0.14828 0.0
C143 C 0.5454 0.75413 0.14596 0.0
C144 C 0.22676 0.51232 0.90446 0.0
C145 C 0.22119 0.49438 0.89379 0.0
C146 C 0.23155 0.48015 0.91789 0.0
C147 C 0.24638 0.48386 0.95521 0.0
H148 H 0.31874 0.524 0.04456 0.0
H149 H 0.34909 0.52093 0.08731 0.0
H150 H 0.33193 0.47226 0.17869 0.0
H151 H 0.30173 0.47539 0.13535 0.0
H152 H 0.27836 0.53999 0.20765 0.0
H153 H 0.26217 0.55473 0.2906 0.0
H154 H 0.21159 0.53367 0.22317 0.0
H155 H 0.22739 0.51939 0.14036 0.0
H156 H 0.24445 0.52995 0.95323 0.0
H157 H 0.21903 0.52361 0.88733 0.0
H158 H 0.22767 0.46618 0.91014 0.0
H159 H 0.25336 0.47274 0.97658 0.0
N160 N 0.27965 0.50057 0.02739 0.0
N161 N 0.28096 0.51428 0.12255 0.0
N162 N 0.2542 0.51532 0.06723 0.0
C163 C 0.28911 0.50491 0.07783 0.0
C164 C 0.26345 0.51944 0.11761 0.0
C165 C 0.2621 0.50602 0.02208 0.0
C166 C 0.30811 0.49976 0.08607 0.0
C167 C 0.32179 0.51222 0.07157 0.0
C168 C 0.33905 0.51057 0.09664 0.0
C169 C 0.34286 0.49647 0.13697 0.0
C170 C 0.32953 0.48317 0.14738 0.0
C171 C 0.31225 0.48489 0.12247 0.0
C172 C 0.25412 0.52858 0.16748 0.0
C173 C 0.26378 0.53857 0.21065 0.0
C174 C 0.2546 0.547 0.25783 0.0
C175 C 0.23576 0.54514 0.26299 0.0
C176 C 0.22617 0.53515 0.22007 0.0
C177 C 0.23522 0.52708 0.17257 0.0
C178 C 0.25091 0.50183 0.96938 0.0
C179 C 0.24136 0.51598 0.94218 0.0
C180 C 0.03974 0.23196 0.92107 0.0
C181 C 0.02405 0.23019 0.88599 0.0
C182 C 0.01144 0.24448 0.88595 0.0
C183 C 0.01385 0.25954 0.92357 0.0
H184 H 0.05029 0.32557 0.04575 0.0
H185 H 0.04987 0.35626 0.08747 0.0
H186 H 0.99337 0.34948 0.13237 0.0
H187 H 0.99396 0.31888 0.09099 0.0
H188 H 0.01542 0.28619 0.22816 0.0
H189 H 0.01102 0.26856 0.31947 0.0
H190 H 0.03618 0.22244 0.23482 0.0
H191 H 0.04078 0.23996 0.1446 0.0
H192 H 0.05351 0.24706 0.989 0.0
H193 H 0.04964 0.2212 0.92281 0.0
H194 H 0.9993 0.2436 0.85901 0.0
H195 H 1.00331 0.26967 0.926 0.0
N196 N 0.02556 0.29049 0.01215 0.0
N197 N 0.02538 0.29184 0.11743 0.0
N198 N 0.02983 0.26416 0.06953 0.0
C199 C 0.02424 0.30029 0.06376 0.0
C200 C 0.02824 0.27379 0.12067 0.0
C201 C 0.02844 0.27225 0.01538 0.0
C202 C 0.02208 0.32006 0.06439 0.0
C203 C 0.03758 0.33107 0.06161 0.0
C204 C 0.03738 0.34851 0.08626 0.0
C205 C 0.02164 0.3552 0.1139 0.0
C206 C 1.00566 0.34481 0.11101 0.0
C207 C 1.00594 0.32732 0.08699 0.0
C208 C 0.02819 0.26436 0.17884 0.0
C209 C 0.02039 0.27242 0.22963 0.0
C210 C 0.01781 0.26233 0.28184 0.0
C211 C 0.02318 0.24411 0.28428 0.0
C212 C 0.03208 0.23651 0.23479 0.0
C213 C 0.03454 0.24651 0.18268 0.0
C214 C 0.02878 0.2604 0.96226 0.0
C215 C 0.04199 0.24682 0.95902 0.0
C216 C 0.27252 0.98991 0.94665 0.0
C217 C 0.27773 0.00822 0.94394 0.0
C218 C 0.26732 0.02109 0.97515 0.0
C219 C 0.25277 0.01558 0.01134 0.0
H220 H 0.18417 0.00678 0.07111 0.0
H221 H 0.15507 0.01744 0.11155 0.0
H222 H 0.17603 0.01188 0.29062 0.0
H223 H 0.20466 1.00117 0.25063 0.0
H224 H 0.22523 0.96152 0.26484 0.0
H225 H 0.24273 0.94313 0.33421 0.0
H226 H 0.28072 0.93074 0.19333 0.0
H227 H 0.26318 0.94874 0.12389 0.0
H228 H 0.25533 0.97006 0.98741 0.0
H229 H 0.28029 0.97961 0.92373 0.0
H230 H 0.27091 0.03532 0.97353 0.0
H231 H 0.24572 0.02562 0.03777 0.0
N232 N 0.22196 0.99948 0.08553 0.0
N233 N 0.21966 0.97982 0.16806 0.0
N234 N 0.24333 0.97637 0.10001 0.0
C235 C 0.21305 0.9939 0.13577 0.0
C236 C 0.23472 0.9709 0.15032 0.0
C237 C 0.23718 0.99057 0.06748 0.0
C238 C 0.19661 1.00312 0.15779 0.0
C239 C 0.1826 0.00825 0.11898 0.0
C240 C 0.16595 0.01419 0.1421 0.0
C241 C 0.16328 0.01549 0.20426 0.0
C242 C 0.17769 0.01123 0.24258 0.0
C243 C 0.19408 1.005 0.21966 0.0
C244 C 0.24302 0.95695 0.18905 0.0
C245 C 0.23705 0.9545 0.24822 0.0
C246 C 0.2471 0.944 0.28809 0.0
C247 C 0.26324 0.93568 0.26952 0.0
C248 C 0.2683 0.93685 0.2091 0.0
C249 C 0.25831 0.94737 0.16933 0.0
C250 C 0.2486 0.99709 0.01757 0.0
C251 C 0.25822 0.98441 0.98329 0.0
C252 C 0.57187 0.27416 0.20321 0.0
C253 C 0.57124 0.2688 0.2634 0.0
C254 C 0.5616 0.25301 0.27865 0.0
C255 C 0.55138 0.2438 0.23566 0.0
H256 H 0.49614 0.22141 0.22439 0.0
H257 H 0.48288 0.19443 0.26909 0.0
H258 H 0.48846 0.16602 0.10132 0.0
H259 H 0.50173 0.19347 0.05625 0.0
H260 H 0.54145 0.26731 0.97973 0.0
H261 H 0.53455 0.29391 0.91998 0.0
H262 H 0.47746 0.28545 0.95128 0.0
H263 H 0.48441 0.2585 0.01117 0.0
H264 H 0.56156 0.27022 0.11505 0.0
H265 H 0.57908 0.28632 0.18994 0.0
H266 H 0.56108 0.2484 0.32457 0.0
H267 H 0.54322 0.23236 0.24977 0.0
N268 N 0.52572 0.22937 0.15047 0.0
N269 N 0.50744 0.23417 0.06581 0.0
N270 N 0.53268 0.25284 0.08459 0.0
C271 C 0.51141 0.22447 0.11596 0.0
C272 C 0.51826 0.24841 0.04986 0.0
C273 C 0.53654 0.24345 0.13488 0.0
C274 C 0.49983 0.20947 0.13696 0.0
C275 C 0.49401 0.20956 0.19659 0.0
C276 C 0.48637 0.19411 0.22208 0.0
C277 C 0.48464 0.17804 0.1888 0.0
C278 C 0.48968 0.17819 0.12808 0.0
C279 C 0.49709 0.19388 0.10215 0.0
C280 C 0.51348 0.26095 1.00074 0.0
C281 C 0.52738 0.27081 0.97257 0.0
C282 C 0.52344 0.28613 0.93866 0.0
C283 C 0.5055 0.29203 0.9322 0.0
C284 C 0.49143 0.28124 0.95563 0.0
C285 C 0.49539 0.26577 0.98968 0.0
C286 C 0.55055 0.25029 0.17664 0.0
C287 C 0.56164 0.26501 0.16028 0.0
Ho288 Ho 0.01101 1.00217 0.73931 0.0
Ho289 Ho 0.98305 0.00948 0.64793 0.0
C290 C 0.99531 0.96871 0.65656 0.0
C291 C 0.03037 0.98809 0.82258 0.0
C292 C 0.04088 0.97128 0.82082 0.0
C293 C 0.04231 0.96053 0.87198 0.0
C294 C 0.04969 0.94317 0.86806 0.0
C295 C 0.05575 0.93632 0.81279 0.0
C296 C 0.05501 0.94752 0.76215 0.0
C297 C 0.04755 0.9648 0.76606 0.0
C298 C 0.02475 0.01326 0.63364 0.0
C299 C 0.99971 0.04246 0.72679 0.0
C300 C 0.96425 0.02384 0.5633 0.0
C301 C 0.96453 0.04248 0.54062 0.0
C302 C 0.98065 0.05258 0.54307 0.0
C303 C 0.98056 0.07102 0.53051 0.0
C304 C 0.96438 0.07969 0.51492 0.0
C305 C 0.94837 0.06949 0.50973 0.0
C306 C 0.94841 0.05096 0.52309 0.0
C307 C 0.96969 0.99855 0.75464 0.0
O308 O 1.0047 0.97393 0.70401 0.0
O309 O 0.98642 0.98045 0.62343 0.0
O310 O 0.03623 1.00113 0.78803 0.0
O311 O 0.01283 0.98578 0.81913 0.0
O312 O 0.03125 0.01784 0.68517 0.0
O313 O 0.01179 1.00225 0.64041 0.0
O314 O 0.99407 0.03719 0.67343 0.0
O315 O 1.00421 0.03037 0.76743 0.0
O316 O 0.95833 0.02221 0.61802 0.0
O317 O 0.97891 0.01437 0.55371 0.0
O318 O 0.96325 0.99347 0.70338 0.0
O319 O 0.98247 0.00966 0.74675 0.0
H320 H 0.03698 0.96521 0.91434 0.0
H321 H 0.04974 0.9348 0.90777 0.0
H322 H 0.05969 0.94273 0.71911 0.0
H323 H 0.04634 0.97282 0.72573 0.0
H324 H 0.99326 0.04635 0.55651 0.0
H325 H 0.99312 0.0786 0.53364 0.0
H326 H 0.93579 0.07596 0.49728 0.0
H327 H 0.93583 0.04338 0.52144 0.0
Ho328 Ho 0.5028 0.02796 0.7398 0.0
Ho329 Ho 0.49116 1.00292 0.63003 0.0
C330 C 0.53332 0.01046 0.64984 0.0
C331 C 0.52129 0.04141 0.82585 0.0
C332 C 0.54031 0.03699 0.83891 0.0
C333 C 0.54615 0.01892 0.83472 0.0
C334 C 0.56453 0.01492 0.8315 0.0
C335 C 0.5775 0.02886 0.83233 0.0
C336 C 0.57174 0.04686 0.84003 0.0
C337 C 0.55326 0.05089 0.84308 0.0
C338 C 0.49032 0.04471 0.64156 0.0
C339 C 0.46131 0.01686 0.72928 0.0
C340 C 0.47704 0.99272 0.53064 0.0
C341 C 0.46111 0.9814 0.51616 0.0
C342 C 0.4462 0.98934 0.48774 0.0
C343 C 0.43022 0.9795 0.47946 0.0
C344 C 0.42891 0.96145 0.49886 0.0
C345 C 0.44404 0.95323 0.52517 0.0
C346 C 0.45998 0.96315 0.53411 0.0
C347 C 0.49569 0.98286 0.73111 0.0
O348 O 0.52926 0.01773 0.70225 0.0
O349 O 0.52088 1.00506 0.61115 0.0
O350 O 0.51898 0.04994 0.77516 0.0
O351 O 0.50944 0.02836 0.83396 0.0
O352 O 0.48738 0.05042 0.69564 0.0
O353 O 0.50048 0.031 0.64229 0.0
O354 O 0.46473 0.01088 0.67432 0.0
O355 O 0.47417 0.02243 0.7664 0.0
O356 O 0.49096 0.98453 0.55499 0.0
O357 O 0.47339 0.00835 0.55578 0.0
O358 O 0.4908 0.97604 0.68012 0.0
O359 O 0.4978 0.99957 0.72343 0.0
H360 H 0.53652 0.00789 0.83046 0.0
H361 H 0.56858 1.0009 0.82676 0.0
H362 H 0.58146 0.05788 0.84069 0.0
H363 H 0.54907 0.06492 0.84521 0.0
H364 H 0.44674 1.00334 0.47332 0.0
H365 H 0.41882 0.98606 0.4582 0.0
H366 H 0.44334 0.93934 0.5406 0.0
H367 H 0.47122 0.95663 0.55637 0.0
Ho368 Ho 0.48755 0.51637 0.71764 0.0
Ho369 Ho 0.512 0.50464 0.61636 0.0
C370 C 0.50475 0.54633 0.62725 0.0
C371 C 0.47506 0.53466 0.80603 0.0
C372 C 0.47972 0.55349 0.8216 0.0
C373 C 0.49776 0.5595 0.8168 0.0
C374 C 0.50189 0.57789 0.82014 0.0
C375 C 0.4881 0.59069 0.82817 0.0
C376 C 0.47014 0.58464 0.83556 0.0
C377 C 0.46598 0.56616 0.83208 0.0
C378 C 0.47001 0.50558 0.61837 0.0
C379 C 0.49487 0.47434 0.70986 0.0
C380 C 0.52639 0.48881 0.52486 0.0
C381 C 0.534 0.47072 0.51423 0.0
C382 C 0.52715 0.45562 0.54476 0.0
C383 C 0.53511 0.43866 0.53787 0.0
C384 C 0.54987 0.4363 0.49885 0.0
C385 C 0.5565 0.45147 0.46735 0.0
C386 C 0.54871 0.46855 0.47539 0.0
C387 C 0.52939 0.51507 0.71701 0.0
O388 O 0.49985 0.54246 0.6826 0.0
O389 O 0.5078 0.53335 0.58802 0.0
O390 O 0.46627 0.53283 0.75569 0.0
O391 O 0.48809 0.52281 0.81185 0.0
O392 O 0.46413 0.50268 0.67224 0.0
O393 O 0.4843 0.51503 0.61978 0.0
O394 O 0.50341 0.47789 0.65885 0.0
O395 O 0.4883 0.48732 0.74412 0.0
O396 O 0.53554 0.49904 0.5618 0.0
O397 O 0.50891 0.48948 0.53437 0.0
O398 O 0.53545 0.51815 0.66357 0.0
O399 O 0.51513 0.50575 0.71398 0.0
H400 H 0.50864 0.55007 0.80794 0.0
H401 H 0.51588 0.58213 0.81532 0.0
H402 H 0.45924 0.59423 0.84161 0.0
H403 H 0.45197 0.56183 0.83498 0.0
H404 H 0.51564 0.45698 0.57411 0.0
H405 H 0.52974 0.42748 0.56373 0.0
H406 H 0.56758 0.45018 0.43598 0.0
H407 H 0.55417 0.48007 0.45129 0.0
Ho408 Ho 0.99384 0.49391 0.71056 0.0
Ho409 Ho 0.00705 0.51812 0.60006 0.0
C410 C 0.9647 0.51405 0.62258 0.0
C411 C 0.97476 0.48264 0.79861 0.0
C412 C 0.95734 0.49042 0.81755 0.0
C413 C 0.95505 0.5093 0.81665 0.0
C414 C 0.93786 0.51684 0.8206 0.0
C415 C 0.92248 0.50568 0.82528 0.0
C416 C 0.92481 0.48679 0.82895 0.0
C417 C 0.94212 0.47922 0.82503 0.0
C418 C 1.00396 0.47634 0.61052 0.0
C419 C 0.03606 0.50154 0.69776 0.0
C420 C 0.02178 0.52797 0.50126 0.0
C421 C 0.03906 0.53744 0.49031 0.0
C422 C 0.05428 0.5333 0.52512 0.0
C423 C 0.07035 0.54299 0.51832 0.0
C424 C 0.07162 0.55704 0.47627 0.0
C425 C 0.05645 0.56109 0.44075 0.0
C426 C 0.04023 0.55141 0.44802 0.0
C427 C 1.00362 0.53836 0.70154 0.0
O428 O 0.96867 0.50793 0.67666 0.0
O429 O 0.97727 0.51706 0.58154 0.0
O430 O 0.9743 0.47485 0.74604 0.0
O431 O 0.98908 0.49301 0.80586 0.0
O432 O 0.00644 0.46998 0.66405 0.0
O433 O 0.99531 0.491 0.61291 0.0
O434 O 0.0329 0.50812 0.64341 0.0
O435 O 0.023 0.49667 0.7352 0.0
O436 O 0.00934 0.53762 0.52824 0.0
O437 O 0.0231 0.51147 0.5227 0.0
O438 O 0.0084 0.54502 0.65025 0.0
O439 O 1.00105 0.52174 0.69386 0.0
H440 H 0.96642 0.5183 0.80919 0.0
H441 H 0.93659 0.53139 0.81656 0.0
H442 H 0.91323 0.47784 0.83341 0.0
H443 H 0.94354 0.46462 0.82485 0.0
H444 H 0.05377 0.52253 0.55774 0.0
H445 H 0.08191 0.53925 0.54535 0.0
H446 H 0.05709 0.57184 0.40789 0.0
H447 H 0.02858 0.55492 0.42106 0.0
C448 C 0.12965 0.0106 0.21113 0.0
C449 C 0.14529 0.01984 0.23033 0.0
C450 C 0.11336 0.01225 0.24277 0.0
C451 C 0.08993 0.03916 0.36055 0.0
H452 H 0.0678 0.99316 0.40243 0.0
C453 C 0.04909 0.02882 0.57607 0.0
C454 C 0.03445 0.01664 0.57692 0.0
C455 C 0.05957 0.03099 0.52463 0.0
C456 C 0.07352 1.00619 0.39032 0.0
H457 H 0.15579 0.03898 0.2951 0.0
H458 H 0.1275 0.04187 0.35021 0.0
H459 H 0.09163 0.99414 0.32718 0.0
H460 H 0.01874 0.99774 0.52385 0.0
H461 H 0.03713 1.00152 0.43334 0.0
H462 H 0.07222 0.05112 0.4251 0.0
C463 C 0.12772 0.03335 0.31081 0.0
C464 C 0.08722 0.00675 0.34708 0.0
C465 C 0.144 0.03161 0.27949 0.0
C466 C 0.03003 0.00716 0.52446 0.0
C467 C 0.04061 0.00927 0.47283 0.0
C468 C 0.07623 0.0386 0.4037 0.0
C469 C 0.11233 0.02329 0.29393 0.0
C470 C 0.09594 0.02317 0.33286 0.0
C471 C 0.0557 0.02102 0.47262 0.0
C472 C 0.06821 0.02203 0.42039 0.0
H473 H 0.13025 1.00134 0.17363 0.0
H474 H 0.1017 1.00448 0.22819 0.0
H475 H 0.09614 0.05208 0.34989 0.0
H476 H 0.05278 0.03637 0.6158 0.0
H477 H 0.0712 0.03997 0.52652 0.0
C478 C 0.46579 0.16105 0.26358 0.0
C479 C 0.47952 0.16099 0.22006 0.0
C480 C 0.46351 0.14631 0.30206 0.0
C481 C 0.47649 0.09859 0.33229 0.0
H482 H 0.47479 0.11442 0.49733 0.0
C483 C 0.49404 0.05178 0.53265 0.0
C484 C 0.48538 0.05501 0.58748 0.0
C485 C 0.49081 0.06308 0.48354 0.0
C486 C 0.47488 0.10963 0.45161 0.0
H487 H 0.50079 0.14485 0.18015 0.0
H488 H 0.49677 0.11906 0.24725 0.0
H489 H 0.47291 0.13661 0.41793 0.0
H490 H 0.46566 0.07168 0.633 0.0
H491 H 0.4595 0.09095 0.5472 0.0
H492 H 0.47864 0.07154 0.36638 0.0
C493 C 0.48772 0.13049 0.25147 0.0
C494 C 0.47382 0.12243 0.40591 0.0
C495 C 0.49 0.14527 0.21289 0.0
C496 C 0.47271 0.06905 0.59145 0.0
C497 C 0.4693 0.08017 0.54231 0.0
C498 C 0.47741 0.0857 0.37821 0.0
C499 C 0.47492 0.13116 0.29797 0.0
C500 C 0.47474 0.11712 0.3457 0.0
C501 C 0.4787 0.07771 0.48817 0.0
C502 C 0.47674 0.09108 0.43857 0.0
H503 H 0.4573 0.17284 0.26958 0.0
H504 H 0.45326 0.14708 0.33657 0.0
H505 H 0.47715 0.09407 0.28631 0.0
H506 H 0.50387 0.041 0.52841 0.0
H507 H 0.4984 0.0608 0.44285 0.0
C508 C 0.36449 0.51353 0.20228 0.0
C509 C 0.3594 0.49713 0.17488 0.0
C510 C 0.37822 0.51395 0.24509 0.0
C511 C 0.41741 0.49018 0.30743 0.0
H512 H 0.40282 0.51308 0.45582 0.0
C513 C 0.46565 0.50704 0.50727 0.0
C514 C 0.459 0.50247 0.56419 0.0
C515 C 0.4546 0.50519 0.45672 0.0
C516 C 0.40708 0.50661 0.41473 0.0
H517 H 0.36543 0.46848 0.16878 0.0
H518 H 0.38971 0.46929 0.24354 0.0
H519 H 0.38205 0.51265 0.37114 0.0
H520 H 0.43584 0.49191 0.61269 0.0
H521 H 0.4165 0.48904 0.52477 0.0
H522 H 0.44258 0.48431 0.35143 0.0
C523 C 0.38294 0.48177 0.23176 0.0
C524 C 0.39526 0.50649 0.36612 0.0
C525 C 0.36901 0.4813 0.18926 0.0
C526 C 0.44131 0.49562 0.56945 0.0
C527 C 0.43022 0.49402 0.51919 0.0
C528 C 0.42941 0.49057 0.35597 0.0
C529 C 0.38732 0.49802 0.26127 0.0
C530 C 0.40025 0.49825 0.31201 0.0
C531 C 0.43666 0.49901 0.46243 0.0
C532 C 0.42427 0.49868 0.41023 0.0
H533 H 0.35724 0.52593 0.19294 0.0
H534 H 0.38142 0.52669 0.26679 0.0
H535 H 0.4216 0.48377 0.26616 0.0
H536 H 0.47924 0.51236 0.50196 0.0
H537 H 0.45987 0.50922 0.41352 0.0
C538 C 0.00851 0.38406 0.15576 0.0
C539 C 0.02254 0.37123 0.15418 0.0
C540 C 0.00813 0.39742 0.20031 0.0
C541 C 0.02131 0.40341 0.35486 0.0
H542 H 0.01316 0.45473 0.33114 0.0
C543 C 0.02033 0.45189 0.55594 0.0
C544 C 0.00813 0.46638 0.55498 0.0
C545 C 0.02347 0.44165 0.50441 0.0
C546 C 0.01519 0.4404 0.33877 0.0
H547 H 0.04736 0.36267 0.19737 0.0
H548 H 0.04656 0.38582 0.27506 0.0
H549 H 0.01577 0.43466 0.24461 0.0
H550 H 0.98989 0.48185 0.49932 0.0
H551 H 0.99466 0.46354 0.41 0.0
H552 H 0.01992 0.40866 0.44839 0.0
C553 C 0.03596 0.38562 0.24163 0.0
C554 C 0.01678 0.42895 0.28904 0.0
C555 C 0.0365 0.37248 0.19673 0.0
C556 C 0.9994 0.47073 0.5012 0.0
C557 C 1.00226 0.46027 0.44985 0.0
C558 C 0.0194 0.41474 0.40443 0.0
C559 C 0.02158 0.39797 0.24468 0.0
C560 C 0.01997 0.41036 0.29669 0.0
C561 C 0.01417 0.4454 0.45085 0.0
C562 C 0.0164 0.43344 0.39731 0.0
H563 H 0.99758 0.38343 0.1236 0.0
H564 H 0.99686 0.40675 0.20177 0.0
H565 H 0.02345 0.38906 0.36208 0.0
H566 H 0.0274 0.44839 0.5967 0.0
H567 H 0.03315 0.43071 0.50686 0.0
C568 C 0.86625 0.01594 0.16939 0.0
C569 C 0.85842 1.0003 0.1947 0.0
C570 C 0.88141 0.01471 0.1321 0.0
C571 C 0.90397 0.98097 0.03445 0.0
H572 H 0.93711 0.02086 0.00571 0.0
C573 C 0.94275 0.98791 0.8126 0.0
C574 C 0.95982 0.99633 0.81175 0.0
C575 C 0.93263 0.98711 0.86534 0.0
C576 C 0.9282 0.00942 0.01356 0.0
H577 H 0.86159 0.97122 0.20419 0.0
H578 H 0.88852 0.96924 0.14226 0.0
H579 H 0.91675 0.02194 0.09106 0.0
H580 H 0.98005 0.00988 0.8659 0.0
H581 H 0.96264 0.008 0.95869 0.0
H582 H 0.91568 0.96826 0.95793 0.0
C583 C 0.88249 0.98241 0.14918 0.0
C584 C 0.91628 0.01017 0.06223 0.0
C585 C 0.86716 0.98361 0.18582 0.0
C586 C 0.96686 1.0034 0.86522 0.0
C587 C 0.9568 1.00244 0.91828 0.0
C588 C 0.91602 0.98013 0.98631 0.0
C589 C 0.88939 0.99783 0.11976 0.0
C590 C 0.90368 0.99614 0.07261 0.0
C591 C 0.93941 0.9945 0.91892 0.0
C592 C 0.928 0.99454 0.97418 0.0
H593 H 0.86017 0.0291 0.17617 0.0
H594 H 0.88619 0.02693 0.11045 0.0
H595 H 0.89441 0.96996 0.04015 0.0
H596 H 0.93694 0.9824 0.77203 0.0
H597 H 0.91922 0.98117 0.86344 0.0
C598 C 0.52159 0.88308 0.15536 0.0
C599 C 0.50619 0.87549 0.18289 0.0
C600 C 0.51993 0.89741 0.11489 0.0
C601 C 0.48652 0.91625 0.01032 0.0
H602 H 0.52311 0.95335 0.98578 0.0
C603 C 0.49338 0.95382 0.78697 0.0
C604 C 0.497 0.9725 0.78755 0.0
C605 C 0.494 0.94371 0.83963 0.0
C606 C 0.51266 0.94321 0.99239 0.0
H607 H 0.4771 0.87796 0.19248 0.0
H608 H 0.47421 0.90309 0.12227 0.0
H609 H 0.52484 0.93363 0.07333 0.0
H610 H 0.50422 0.99519 0.84373 0.0
H611 H 0.50541 0.97755 0.93637 0.0
H612 H 0.47437 0.92572 0.92952 0.0
C613 C 0.48755 0.89767 0.13102 0.0
C614 C 0.51374 0.93179 0.04229 0.0
C615 C 0.4892 0.8833 0.17145 0.0
C616 C 0.50145 0.98085 0.84196 0.0
C617 C 0.50216 0.9707 0.89492 0.0
C618 C 0.48547 0.92761 0.96053 0.0
C619 C 0.50283 0.90456 0.10087 0.0
C620 C 0.50083 0.91797 0.05142 0.0
C621 C 0.49828 0.95201 0.89441 0.0
C622 C 0.4987 0.94102 0.95027 0.0
H623 H 0.53485 0.87726 0.16229 0.0
H624 H 0.53198 0.9022 0.09214 0.0
H625 H 0.47643 0.90567 0.01534 0.0
H626 H 0.48997 0.94696 0.74566 0.0
H627 H 0.49128 0.9293 0.83726 0.0
C628 C 0.63228 0.5375 0.1444 0.0
C629 C 0.6431 0.522 0.15115 0.0
C630 C 0.61727 0.53729 0.10624 0.0
C631 C 0.58705 0.50699 0.01654 0.0
H632 H 0.58372 0.54891 0.91293 0.0
C633 C 0.53379 0.51114 0.82725 0.0
C634 C 0.54002 0.51788 0.77224 0.0
C635 C 0.54446 0.51273 0.8787 0.0
C636 C 0.58448 0.53707 0.94133 0.0
H637 H 0.64574 0.49373 0.12636 0.0
H638 H 0.61987 0.49346 0.05906 0.0
H639 H 0.60535 0.54895 0.99482 0.0
H640 H 0.56207 0.53194 0.72811 0.0
H641 H 0.58081 0.53452 0.81737 0.0
H642 H 0.56674 0.4948 0.96122 0.0
C643 C 0.62288 0.50579 0.08339 0.0
C644 C 0.59673 0.53718 0.98895 0.0
C645 C 0.63785 0.50598 0.12165 0.0
C646 C 0.55691 0.52663 0.76992 0.0
C647 C 0.5676 0.5282 0.82127 0.0
C648 C 0.57481 0.50686 0.96879 0.0
C649 C 0.6127 0.52159 0.07376 0.0
C650 C 0.59838 0.52204 0.02672 0.0
C651 C 0.56161 0.52109 0.87625 0.0
C652 C 0.57356 0.52179 0.92995 0.0
H653 H 0.63595 0.55012 0.16597 0.0
H654 H 0.60955 0.54962 0.10085 0.0
H655 H 0.58779 0.49517 0.04504 0.0
H656 H 0.52081 0.50433 0.83036 0.0
H657 H 0.5393 0.50733 0.92035 0.0
C658 C 1.00577 0.6521 0.08307 0.0
C659 C 1.0018 0.649 0.14356 0.0
C660 C 1.00311 0.63851 0.04066 0.0
C661 C 1.00276 0.59016 0.01719 0.0
H662 H 0.97808 0.60257 0.87004 0.0
C663 C 0.99867 0.54092 0.81283 0.0
C664 C 1.00108 0.54909 0.75675 0.0
C665 C 0.9964 0.55159 0.86429 0.0
C666 C 0.98513 0.59887 0.91061 0.0
H667 H 0.99189 0.62931 0.20739 0.0
H668 H 0.98763 0.60505 0.13256 0.0
H669 H 0.97833 0.62397 0.95281 0.0
H670 H 1.00352 0.57477 0.71062 0.0
H671 H 1.00005 0.59326 0.79947 0.0
H672 H 0.01035 0.56539 0.97383 0.0
C673 C 0.99268 0.61816 0.11834 0.0
C674 C 0.98515 0.61111 0.95818 0.0
C675 C 0.99503 0.63198 0.16095 0.0
C676 C 1.00148 0.56806 0.75314 0.0
C677 C 0.9993 0.57868 0.8042 0.0
C678 C 1.00292 0.57792 0.96914 0.0
C679 C 0.99662 0.62137 0.05769 0.0
C680 C 0.99434 0.60711 0.0114 0.0
C681 C 0.99661 0.57065 0.86053 0.0
C682 C 0.99454 0.58237 0.91457 0.0
H683 H 0.01093 0.66513 0.0685 0.0
H684 H 0.00642 0.64134 0.99441 0.0
H685 H 0.01002 0.58677 0.05766 0.0
H686 H 0.99874 0.52635 0.81702 0.0
H687 H 0.99438 0.54492 0.90685 0.0
C688 C 0.99943 0.23252 0.35439 0.0
C689 C 0.01747 0.23218 0.33409 0.0
C690 C 0.99256 0.21826 0.38873 0.0
C691 C 0.99826 0.17057 0.38976 0.0
H692 H 0.96775 0.16876 0.5308 0.0
C693 C 0.95952 0.10626 0.44834 0.0
C694 C 0.96463 0.09936 0.50409 0.0
C695 C 0.96314 0.12434 0.4342 0.0
C696 C 0.97617 0.16919 0.49117 0.0
H697 H 0.04301 0.21793 0.34012 0.0
H698 H 0.03088 0.19285 0.39912 0.0
H699 H 0.9817 0.1977 0.50023 0.0
H700 H 0.97595 0.10594 0.59065 0.0
H701 H 0.98216 0.13767 0.56614 0.0
H702 H 0.9927 0.14232 0.37976 0.0
C703 C 0.02207 0.20404 0.3879 0.0
C704 C 0.98415 0.18563 0.47394 0.0
C705 C 0.02897 0.21834 0.35407 0.0
C706 C 0.97206 0.11105 0.54719 0.0
C707 C 0.97547 0.12916 0.53336 0.0
C708 C 0.99007 0.15433 0.40621 0.0
C709 C 1.00362 0.20347 0.40286 0.0
C710 C 0.99543 0.18633 0.42347 0.0
C711 C 0.9717 0.13574 0.47596 0.0
C712 C 0.97902 0.15346 0.4571 0.0
H713 H 0.9902 0.24294 0.3395 0.0
H714 H 0.97827 0.21805 0.39971 0.0
H715 H 0.00667 0.17086 0.35007 0.0
H716 H 0.9538 0.09743 0.41451 0.0
H717 H 0.96005 0.1292 0.38972 0.0
C718 C 0.28012 0.93848 0.36563 0.0
C719 C 0.27627 0.92842 0.31385 0.0
C720 C 0.29529 0.9345 0.40017 0.0
C721 C 0.34053 0.9168 0.37428 0.0
H722 H 0.34699 0.93143 0.53928 0.0
C723 C 0.41107 0.93401 0.46782 0.0
C724 C 0.41159 0.95147 0.49277 0.0
C725 C 0.39447 0.92533 0.45776 0.0
C726 C 0.34538 0.92712 0.49331 0.0
H727 H 0.28412 0.90503 0.26151 0.0
H728 H 0.31062 0.89792 0.32234 0.0
H729 H 0.31656 0.92526 0.50149 0.0
H730 H 0.39539 0.97307 0.53028 0.0
H731 H 0.36646 0.95804 0.51255 0.0
H732 H 0.36924 0.91945 0.36538 0.0
C733 C 0.30213 0.90918 0.33536 0.0
C734 C 0.32798 0.92361 0.47163 0.0
C735 C 0.28695 0.91322 0.30059 0.0
C736 C 0.39533 0.95971 0.51022 0.0
C737 C 0.3788 0.95099 0.5008 0.0
C738 C 0.35793 0.92017 0.39608 0.0
C739 C 0.30696 0.92032 0.38385 0.0
C740 C 0.32529 0.91927 0.41108 0.0
C741 C 0.37815 0.93388 0.47331 0.0
C742 C 0.36044 0.92618 0.45502 0.0
H743 H 0.27231 0.9504 0.37684 0.0
H744 H 0.29863 0.94353 0.43671 0.0
H745 H 0.33903 0.91367 0.32727 0.0
H746 H 0.42344 0.92737 0.45404 0.0
H747 H 0.39435 0.91213 0.43661 0.0
C748 C 0.59377 0.29148 0.30292 0.0
C749 C 0.57772 0.28143 0.31041 0.0
C750 C 0.59742 0.30642 0.33954 0.0
C751 C 0.57936 0.33268 0.47056 0.0
H752 H 0.59138 0.374 0.37101 0.0
C753 C 0.54698 0.40241 0.49264 0.0
C754 C 0.55798 0.41802 0.4903 0.0
C755 C 0.55438 0.38528 0.48374 0.0
C756 C 0.58838 0.36259 0.39984 0.0
H757 H 0.55361 0.27838 0.36498 0.0
H758 H 0.55972 0.3043 0.42756 0.0
H759 H 0.59646 0.34355 0.33341 0.0
H760 H 0.58561 0.42757 0.4779 0.0
H761 H 0.59827 0.39754 0.45904 0.0
H762 H 0.56976 0.35196 0.53472 0.0
C763 C 0.56977 0.30064 0.39452 0.0
C764 C 0.59137 0.34507 0.37849 0.0
C765 C 0.56622 0.28567 0.35836 0.0
C766 C 0.57663 0.41595 0.47898 0.0
C767 C 0.58396 0.39877 0.46884 0.0
C768 C 0.57609 0.35019 0.49143 0.0
C769 C 0.585 0.31169 0.38392 0.0
C770 C 0.58616 0.32988 0.41254 0.0
C771 C 0.57287 0.38331 0.47113 0.0
C772 C 0.57994 0.36524 0.45525 0.0
H773 H 0.60302 0.28835 0.26682 0.0
H774 H 0.6095 0.31438 0.33102 0.0
H775 H 0.57562 0.32132 0.49864 0.0
H776 H 0.53252 0.40337 0.49971 0.0
H777 H 0.54547 0.37358 0.48442 0.0
C778 C 0.21532 0.5424 0.35024 0.0
C779 C 0.22561 0.55349 0.31236 0.0
C780 C 0.20214 0.54991 0.38712 0.0
C781 C 0.17048 0.58684 0.37854 0.0
H782 H 0.15203 0.56351 0.5213 0.0
C783 C 0.09635 0.56876 0.41024 0.0
C784 C 0.08915 0.56652 0.46779 0.0
C785 C 0.11425 0.57448 0.40266 0.0
C786 C 0.15703 0.57061 0.48228 0.0
H787 H 0.23138 0.5811 0.28595 0.0
H788 H 0.20812 0.59442 0.35072 0.0
H789 H 0.18369 0.55997 0.4943 0.0
H790 H 0.09436 0.57025 0.56231 0.0
H791 H 0.12561 0.58041 0.54908 0.0
H792 H 0.14364 0.59687 0.36522 0.0
C793 C 0.21024 0.57991 0.3519 0.0
C794 C 0.17519 0.56843 0.46655 0.0
C795 C 0.22359 0.57235 0.31524 0.0
C796 C 0.09971 0.57153 0.51743 0.0
C797 C 0.11758 0.57735 0.50986 0.0
C798 C 0.15234 0.5891 0.39443 0.0
C799 C 0.19887 0.56867 0.38631 0.0
C800 C 0.18182 0.57563 0.41271 0.0
C801 C 0.12529 0.57819 0.4525 0.0
C802 C 0.14518 0.58016 0.44463 0.0
H803 H 0.21666 0.5278 0.34836 0.0
H804 H 0.19352 0.5408 0.41237 0.0
H805 H 0.17514 0.59259 0.33673 0.0
H806 H 0.08858 0.56489 0.37121 0.0
H807 H 0.11976 0.57474 0.35783 0.0
C808 C 0.02724 0.7992 0.9757 0.0
C809 C 0.03932 0.7858 0.99481 0.0
C810 C 0.03201 0.81096 0.92969 0.0
C811 C 0.04294 0.83326 0.82407 0.0
H812 H 0.08953 0.85538 0.85743 0.0
C813 C 0.05495 0.90656 0.75865 0.0
C814 C 0.06105 0.91701 0.80727 0.0
C815 C 0.05705 0.88776 0.75865 0.0
C816 C 0.07653 0.8493 0.84708 0.0
H817 H 0.06533 0.77329 0.97825 0.0
H818 H 0.07376 0.79398 0.89717 0.0
H819 H 0.08236 0.82582 0.89925 0.0
H820 H 0.07575 0.91615 0.89097 0.0
H821 H 0.0787 0.88347 0.89251 0.0
H822 H 0.03633 0.85744 0.7772 0.0
C823 C 0.06064 0.79544 0.91824 0.0
C824 C 0.0725 0.83221 0.87041 0.0
C825 C 0.0558 0.78357 0.96437 0.0
C826 C 0.07055 0.90843 0.85349 0.0
C827 C 0.07251 0.88966 0.85377 0.0
C828 C 0.04687 0.85042 0.80137 0.0
C829 C 0.049 0.8096 0.90164 0.0
C830 C 0.05524 0.82452 0.86214 0.0
C831 C 0.06514 0.87901 0.80753 0.0
C832 C 0.06331 0.85909 0.81568 0.0
H833 H 0.01433 0.80102 0.99789 0.0
H834 H 0.02278 0.82183 0.9188 0.0
H835 H 0.02968 0.82746 0.81564 0.0
H836 H 0.04753 0.91271 0.72226 0.0
H837 H 0.05149 0.88002 0.72182 0.0
C838 C 0.71102 0.96379 0.95162 0.0
C839 C 0.72619 0.9747 0.9639 0.0
C840 C 0.69888 0.96865 0.90682 0.0
C841 C 0.68372 0.01147 0.84156 0.0
H842 H 0.64499 0.97991 0.78798 0.0
C843 C 0.6102 0.0326 0.85929 0.0
C844 C 0.59688 0.02457 0.8233 0.0
C845 C 0.62831 0.02762 0.85327 0.0
C846 C 0.65576 0.98907 0.80113 0.0
H847 H 0.74195 0.99773 0.93269 0.0
H848 H 0.72132 1.00558 0.8524 0.0
H849 H 0.67438 0.96719 0.8105 0.0
H850 H 0.59217 1.00565 0.75079 0.0
H851 H 0.62384 0.99753 0.73835 0.0
H852 H 0.66517 0.03336 0.83168 0.0
C853 C 0.71829 0.99378 0.87933 0.0
C854 C 0.67262 0.98168 0.81491 0.0
C855 C 0.73029 0.9891 0.92498 0.0
C856 C 0.60214 0.012 0.77942 0.0
C857 C 0.62031 0.00729 0.7725 0.0
C858 C 0.66701 0.01889 0.82653 0.0
C859 C 0.70181 0.98437 0.87246 0.0
C860 C 0.68642 0.99261 0.83924 0.0
C861 C 0.6336 0.01469 0.81034 0.0
C862 C 0.65245 0.00764 0.81006 0.0
H863 H 0.70778 0.95226 0.97961 0.0
H864 H 0.68644 0.96093 0.90319 0.0
H865 H 0.69393 0.02046 0.85975 0.0
H866 H 0.60653 0.04218 0.89388 0.0
H867 H 0.63801 0.03333 0.88432 0.0
C868 C 0.52565 0.74592 0.94472 0.0
C869 C 0.54076 0.74329 0.98192 0.0
C870 C 0.52084 0.73287 0.90238 0.0
C871 C 0.53431 0.6875 0.8404 0.0
H872 H 0.48316 0.67737 0.86153 0.0
C873 C 0.50462 0.61731 0.78475 0.0
C874 C 0.4925 0.61028 0.82739 0.0
C875 C 0.50944 0.63561 0.78546 0.0
C876 C 0.49748 0.67996 0.85522 0.0
H877 H 0.56407 0.72621 0.99779 0.0
H878 H 0.55524 0.70307 0.92684 0.0
H879 H 0.4952 0.70652 0.89141 0.0
H880 H 0.4758 0.61691 0.90381 0.0
H881 H 0.48463 0.64867 0.9066 0.0
H882 H 0.53681 0.66028 0.80945 0.0
C883 C 0.54708 0.71518 0.92953 0.0
C884 C 0.50438 0.69688 0.87132 0.0
C885 C 0.55205 0.72838 0.97108 0.0
C886 C 0.48502 0.62199 0.87002 0.0
C887 C 0.49001 0.64025 0.87125 0.0
C888 C 0.52744 0.67046 0.8252 0.0
C889 C 0.53085 0.71678 0.89705 0.0
C890 C 0.52303 0.70063 0.86645 0.0
C891 C 0.50244 0.64726 0.82935 0.0
C892 C 0.50906 0.66625 0.83478 0.0
H893 H 0.51666 0.75729 0.95147 0.0
H894 H 0.50857 0.73483 0.87676 0.0
H895 H 0.54865 0.69004 0.83464 0.0
H896 H 0.51049 0.60862 0.75099 0.0
H897 H 0.51884 0.64057 0.75205 0.0
C898 C 0.79224 0.58053 0.96615 0.0
C899 C 0.77632 0.57017 0.97174 0.0
C900 C 0.80514 0.57615 0.92295 0.0
C901 C 0.8201 0.53444 0.85151 0.0
H902 H 0.85969 0.56544 0.80078 0.0
C903 C 0.89013 0.50562 0.79037 0.0
C904 C 0.90416 0.51383 0.82329 0.0
C905 C 0.87305 0.51367 0.78723 0.0
C906 C 0.84864 0.55663 0.8141 0.0
H907 H 0.7604 0.54869 0.93084 0.0
H908 H 0.78248 0.54168 0.85398 0.0
H909 H 0.83066 0.5789 0.82794 0.0
H910 H 0.91119 0.53691 0.87888 0.0
H911 H 0.8815 0.55088 0.87338 0.0
H912 H 0.8383 0.51227 0.8401 0.0
C913 C 0.78533 0.55272 0.88449 0.0
C914 C 0.83204 0.56431 0.82974 0.0
C915 C 0.77254 0.55693 0.92823 0.0
C916 C 0.90078 0.53034 0.85245 0.0
C917 C 0.88379 0.53842 0.849 0.0
C918 C 0.83661 0.52677 0.83534 0.0
C919 C 0.80227 0.56148 0.88389 0.0
C920 C 0.81787 0.55338 0.85157 0.0
C921 C 0.86973 0.53013 0.8167 0.0
C922 C 0.85129 0.53786 0.81935 0.0
H923 H 0.79535 0.59115 0.99795 0.0
H924 H 0.81797 0.58329 0.92393 0.0
H925 H 0.80963 0.52553 0.86865 0.0
H926 H 0.89239 0.49309 0.76638 0.0
H927 H 0.86243 0.50703 0.76194 0.0
C928 C 1.00277 0.20455 0.86171 0.0
C929 C 0.02001 0.21256 0.85608 0.0
C930 C 0.99967 0.18676 0.84239 0.0
C931 C 0.01828 0.14948 0.74944 0.0
H932 H 0.99201 0.1187 0.86027 0.0
C933 C 0.99942 0.07501 0.69422 0.0
C934 C 1.00142 0.06213 0.74002 0.0
C935 C 1.00125 0.09354 0.70608 0.0
C936 C 0.99946 0.12707 0.82896 0.0
H937 H 0.04722 0.20842 0.82246 0.0
H938 H 0.04183 0.17739 0.78889 0.0
H939 H 0.99576 0.15084 0.88234 0.0
H940 H 0.0069 0.05875 0.83449 0.0
H941 H 0.01006 0.0911 0.85528 0.0
H942 H 0.02227 0.1256 0.69663 0.0
C943 C 0.03069 0.18486 0.80828 0.0
C944 C 1.00141 0.14557 0.84122 0.0
C945 C 0.03382 0.20262 0.82787 0.0
C946 C 1.00524 0.06828 0.79814 0.0
C947 C 0.00694 0.08684 0.81012 0.0
C948 C 0.01624 0.13098 0.73699 0.0
C949 C 0.0137 0.17654 0.81668 0.0
C950 C 0.01093 0.15701 0.80182 0.0
C951 C 1.005 0.09972 0.7642 0.0
C952 C 0.0069 0.1195 0.77681 0.0
H953 H 0.99187 0.2117 0.88375 0.0
H954 H 0.98635 0.18088 0.84873 0.0
H955 H 0.02559 0.1579 0.71792 0.0
H956 H 0.99658 0.07078 0.64894 0.0
H957 H 0.99954 0.10305 0.66974 0.0
C958 C 0.30026 1.00528 0.85997 0.0
C959 C 0.29512 0.0133 0.9144 0.0
C960 C 0.31773 0.00783 0.83705 0.0
C961 C 0.36397 0.01764 0.88859 0.0
H962 H 0.37467 0.02323 0.72004 0.0
C963 C 0.43744 0.02623 0.80321 0.0
C964 C 0.44214 0.01757 0.74946 0.0
C965 C 0.41937 0.02699 0.82192 0.0
C966 C 0.37195 0.02146 0.76722 0.0
H967 H 0.30418 0.03084 0.98621 0.0
H968 H 0.33456 0.03547 0.94587 0.0
H969 H 0.34324 0.02292 0.75383 0.0
H970 H 0.43137 1.00279 0.67342 0.0
H971 H 0.40001 1.00375 0.70666 0.0
H972 H 0.39256 0.01573 0.90211 0.0
C973 C 0.32511 0.02706 0.9212 0.0
C974 C 0.3539 0.02136 0.78657 0.0
C975 C 0.30761 0.0246 0.94392 0.0
C976 C 0.42828 0.00967 0.71494 0.0
C977 C 0.41023 0.01033 0.73384 0.0
C978 C 0.38199 0.01763 0.86924 0.0
C979 C 0.33052 0.01837 0.86821 0.0
C980 C 0.34969 0.01938 0.8475 0.0
C981 C 0.4055 0.019 0.78761 0.0
C982 C 0.38625 0.01947 0.80825 0.0
H983 H 0.29093 0.99658 0.83593 0.0
H984 H 0.32146 1.00088 0.79626 0.0
H985 H 0.36122 0.01576 0.93572 0.0
H986 H 0.44771 0.03259 0.83078 0.0
H987 H 0.41626 0.03404 0.86308 0.0
C988 C 0.48804 0.3134 0.86555 0.0
C989 C 0.50191 0.31035 0.90732 0.0
C990 C 0.48501 0.33087 0.84298 0.0
C991 C 0.49275 0.37917 0.87836 0.0
H992 H 0.48896 0.38715 0.70767 0.0
C993 C 0.48198 0.45064 0.77874 0.0
C994 C 0.49321 0.45523 0.7302 0.0
C995 C 0.48086 0.43273 0.79902 0.0
C996 C 0.48997 0.38513 0.75547 0.0
H997 H 0.52304 0.32332 0.95953 0.0
H998 H 0.51778 0.35355 0.92041 0.0
H999 H 0.49093 0.3562 0.74634 0.0
H1000 H 0.51228 0.44442 0.66591 0.0
H1001 H 0.51013 0.41329 0.70045 0.0
H1002 H 0.49225 0.40802 0.88763 0.0
C1003 C 0.50928 0.34253 0.90481 0.0
C1004 C 0.49093 0.36741 0.77761 0.0
C1005 C 0.51243 0.32514 0.9267 0.0
C1006 C 0.50316 0.44141 0.70227 0.0
C1007 C 0.50195 0.42349 0.72223 0.0
C1008 C 0.49164 0.39685 0.85632 0.0
C1009 C 0.49557 0.34563 0.86267 0.0
C1010 C 0.49268 0.36426 0.83924 0.0
C1011 C 0.49089 0.41895 0.77112 0.0
C1012 C 0.49054 0.40007 0.79455 0.0
H1013 H 0.47972 0.30226 0.84988 0.0
H1014 H 0.4743 0.33288 0.81068 0.0
H1015 H 0.49391 0.37718 0.92614 0.0
H1016 H 0.47408 0.4609 0.80136 0.0
H1017 H 0.47211 0.42966 0.83656 0.0
C1018 C 0.191 0.47863 0.8894 0.0
C1019 C 0.20345 0.4909 0.86412 0.0
C1020 C 0.17322 0.47756 0.86803 0.0
C1021 C 0.14322 0.4903 0.74171 0.0
H1022 H 0.10586 0.49093 0.86353 0.0
C1023 C 0.06916 0.50871 0.68733 0.0
C1024 C 0.05519 0.49928 0.71673 0.0
C1025 C 0.08724 0.50635 0.704 0.0
C1026 C 0.11607 0.49047 0.82881 0.0
H1027 H 0.20725 0.51084 0.79414 0.0
H1028 H 0.17625 0.50902 0.75699 0.0
H1029 H 0.1375 0.48832 0.89268 0.0
H1030 H 0.04934 0.48001 0.78729 0.0
H1031 H 0.08091 0.47572 0.81608 0.0
H1032 H 0.12179 0.49259 0.67784 0.0
C1033 C 0.1802 0.50021 0.79335 0.0
C1034 C 0.13425 0.48896 0.84556 0.0
C1035 C 0.19796 0.50135 0.81488 0.0
C1036 C 0.05975 0.48755 0.7638 0.0
C1037 C 0.07787 0.48513 0.7804 0.0
C1038 C 0.12502 0.49175 0.72493 0.0
C1039 C 0.16747 0.48865 0.82068 0.0
C1040 C 0.14808 0.48902 0.80228 0.0
C1041 C 0.09187 0.49446 0.75057 0.0
C1042 C 0.1112 0.49205 0.7683 0.0
H1043 H 0.1947 0.47051 0.92775 0.0
H1044 H 0.16384 0.46831 0.88954 0.0
H1045 H 0.1535 0.49015 0.70718 0.0
H1046 H 0.06616 0.51817 0.6519 0.0
H1047 H 0.09757 0.5141 0.68089 0.0
C1048 C 0.98508 0.81407 0.4521 0.0
C1049 C 0.99815 0.80175 0.47275 0.0
C1050 C 0.98394 0.83152 0.47626 0.0
C1051 C 0.99776 0.86054 0.60442 0.0
H1052 H 0.99251 0.89929 0.489 0.0
C1053 C 0.00649 0.93663 0.66776 0.0
C1054 C 0.99515 0.94923 0.6392 0.0
C1055 C 0.00656 0.91839 0.65006 0.0
C1056 C 0.99371 0.88868 0.52212 0.0
H1057 H 0.01963 0.79798 0.53752 0.0
H1058 H 0.0177 0.82848 0.57942 0.0
H1059 H 0.99247 0.868 0.45524 0.0
H1060 H 0.97472 0.95232 0.57044 0.0
H1061 H 0.97458 0.92067 0.54059 0.0
H1062 H 0.99898 0.8813 0.67137 0.0
C1063 C 0.00831 0.8246 0.54447 0.0
C1064 C 0.9937 0.87067 0.50266 0.0
C1065 C 0.00951 0.80714 0.52011 0.0
C1066 C 0.98375 0.94307 0.59315 0.0
C1067 C 0.98375 0.92487 0.57572 0.0
C1068 C 0.99769 0.87861 0.62401 0.0
C1069 C 0.99579 0.83717 0.52187 0.0
C1070 C 0.99565 0.85633 0.54348 0.0
C1071 C 0.99526 0.91227 0.60349 0.0
C1072 C 0.99559 0.89295 0.58311 0.0
H1073 H 0.97623 0.81053 0.41531 0.0
H1074 H 0.97393 0.84072 0.4584 0.0
H1075 H 0.99917 0.84985 0.63718 0.0
H1076 H 0.0155 0.94087 0.70331 0.0
H1077 H 0.01575 0.90918 0.67214 0.0
C1078 C 0.6872 0.97521 0.48961 0.0
C1079 C 0.69864 0.98981 0.47463 0.0
C1080 C 0.6705 0.97812 0.51743 0.0
C1081 C 0.63647 0.01475 0.54109 0.0
H1082 H 0.61229 0.97722 0.63277 0.0
C1083 C 0.56533 0.02173 0.65363 0.0
C1084 C 0.55272 0.00868 0.63408 0.0
C1085 C 0.58367 0.02023 0.63852 0.0
C1086 C 0.61891 0.98779 0.60716 0.0
H1087 H 0.70182 0.01896 0.48165 0.0
H1088 H 0.67327 0.02395 0.53339 0.0
H1089 H 0.644 0.97351 0.60492 0.0
H1090 H 0.54945 0.98367 0.58462 0.0
H1091 H 0.58176 0.98052 0.56106 0.0
H1092 H 0.61132 0.0292 0.54549 0.0
C1093 C 0.67683 0.01023 0.52121 0.0
C1094 C 0.63709 0.98567 0.59077 0.0
C1095 C 0.69345 0.00733 0.49238 0.0
C1096 C 0.55886 0.99395 0.60003 0.0
C1097 C 0.57731 0.99211 0.5868 0.0
C1098 C 0.61842 0.01704 0.55877 0.0
C1099 C 0.66482 0.99572 0.5325 0.0
C1100 C 0.64606 0.99891 0.55614 0.0
C1101 C 0.58987 1.00527 0.60574 0.0
C1102 C 0.60937 1.00342 0.59083 0.0
H1103 H 0.69085 0.96145 0.47809 0.0
H1104 H 0.66177 0.96651 0.52463 0.0
H1105 H 0.64263 0.02518 0.51375 0.0
H1106 H 0.56098 0.03324 0.67996 0.0
H1107 H 0.5931 0.03053 0.65369 0.0
C1108 C 0.52901 0.69852 0.42405 0.0
C1109 C 0.52108 0.71335 0.45349 0.0
C1110 C 0.5264 0.68087 0.44481 0.0
C1111 C 0.5141 0.65391 0.57735 0.0
H1112 H 0.50538 0.61622 0.45993 0.0
C1113 C 0.49887 0.57941 0.64467 0.0
C1114 C 0.50633 0.56562 0.609 0.0
C1115 C 0.49986 0.59757 0.6268 0.0
C1116 C 0.50803 0.6265 0.49335 0.0
H1117 H 0.50417 0.72113 0.52829 0.0
H1118 H 0.4996 0.69009 0.56488 0.0
H1119 H 0.50834 0.64757 0.42774 0.0
H1120 H 0.52093 0.5602 0.52696 0.0
H1121 H 0.52321 0.59186 0.49677 0.0
H1122 H 0.51404 0.63275 0.64287 0.0
C1123 C 0.50794 0.69226 0.5257 0.0
C1124 C 0.50967 0.64453 0.47486 0.0
C1125 C 0.51045 0.71002 0.50455 0.0
C1126 C 0.51496 0.57046 0.55535 0.0
C1127 C 0.51616 0.58864 0.53786 0.0
C1128 C 0.51253 0.63582 0.59588 0.0
C1129 C 0.51578 0.67746 0.49569 0.0
C1130 C 0.51294 0.65845 0.51647 0.0
C1131 C 0.50856 0.60246 0.57321 0.0
C1132 C 0.50966 0.62184 0.55402 0.0
H1133 H 0.53701 0.70048 0.38399 0.0
H1134 H 0.53282 0.66985 0.42098 0.0
H1135 H 0.51676 0.66427 0.61053 0.0
H1136 H 0.49193 0.57618 0.68597 0.0
H1137 H 0.4935 0.60775 0.6545 0.0
C1138 C 0.80566 0.54491 0.49514 0.0
C1139 C 0.79769 0.53209 0.4566 0.0
C1140 C 0.82288 0.54199 0.51942 0.0
C1141 C 0.86488 0.51746 0.48513 0.0
H1142 H 0.87946 0.53232 0.64424 0.0
C1143 C 0.93158 0.51251 0.64861 0.0
C1144 C 0.94531 0.51693 0.60733 0.0
C1145 C 0.91329 0.5143 0.63344 0.0
C1146 C 0.8756 0.52801 0.59975 0.0
H1147 H 0.80139 0.50575 0.41556 0.0
H1148 H 0.83125 0.50053 0.45858 0.0
H1149 H 0.84764 0.53435 0.6149 0.0
H1150 H 0.95039 0.52703 0.51789 0.0
H1151 H 0.91854 0.53028 0.49164 0.0
H1152 H 0.89272 0.51103 0.46988 0.0
C1153 C 0.82426 0.51297 0.46944 0.0
C1154 C 0.85738 0.5293 0.5828 0.0
C1155 C 0.80701 0.51586 0.44539 0.0
C1156 C 0.94024 0.52344 0.55078 0.0
C1157 C 0.92193 0.52519 0.53557 0.0
C1158 C 0.88308 0.51627 0.50191 0.0
C1159 C 0.83261 0.5262 0.50553 0.0
C1160 C 0.8518 0.52409 0.52516 0.0
C1161 C 0.90821 0.52049 0.5765 0.0
C1162 C 0.88872 0.52163 0.55927 0.0
H1163 H 0.79879 0.55749 0.50516 0.0
H1164 H 0.82889 0.55249 0.54686 0.0
H1165 H 0.86115 0.51354 0.44016 0.0
H1166 H 0.93491 0.50729 0.69239 0.0
H1167 H 0.90311 0.51036 0.6658 0.0
loop_
_geom_bond_atom_site_label_1
_geom_bond_atom_site_label_2
_geom_bond_distance
_geom_bond_site_symmetry_2
_ccdc_geom_bond_type
C0 C1 1.384 . S
C0 H13 0.947 . S
C0 C35 1.382 . S
C1 C0 1.384 . S
C1 C2 1.378 . S
C2 C1 1.378 . S
C2 C3 1.378 . S
C2 H14 0.952 . S
C3 C2 1.378 . S
C3 H15 0.950 . S
C3 C34 1.383 . S
H4 C23 0.947 . S
H5 C24 0.946 . S
H6 C26 0.953 . S
H7 C27 0.945 . S
H8 C29 0.952 . S
H9 C30 0.949 . S
H10 C32 0.950 . S
H11 C33 0.948 . S
H12 C35 0.951 . S
H13 C0 0.947 . S
H14 C2 0.952 . S
H15 C3 0.950 . S
N16 C19 1.382 . S
N16 C21 1.363 . S
N17 C19 1.371 . S
N17 C20 1.372 . S
N18 C20 1.361 . S
N18 C21 1.377 . S
C19 N16 1.382 . S
C19 N17 1.371 . S
C19 C22 1.480 . S
C20 N17 1.372 . S
C20 N18 1.361 . S
C20 C28 1.457 . S
C21 N16 1.363 . S
C21 N18 1.377 . S
C21 C34 1.479 . S
C22 C19 1.480 . S
C22 C23 1.383 . S
C22 C27 1.385 . S
C23 H4 0.947 . S
C23 C22 1.383 . S
C23 C24 1.388 . S
C24 H5 0.946 . S
C24 C23 1.388 . S
C24 C25 1.384 . S
C25 C24 1.384 . S
C25 C26 1.377 . S
C26 H6 0.953 . S
C26 C25 1.377 . S
C26 C27 1.369 . S
C27 H7 0.945 . S
C27 C22 1.385 . S
C27 C26 1.369 . S
C28 C20 1.457 . S
C28 C29 1.372 . S
C28 C33 1.364 . S
C29 H8 0.952 . S
C29 C28 1.372 . S
C29 C30 1.389 . S
C30 H9 0.949 . S
C30 C29 1.389 . S
C30 C31 1.387 . S
C31 C30 1.387 . S
C31 C32 1.372 . S
C32 H10 0.950 . S
C32 C31 1.372 . S
C32 C33 1.379 . S
C33 H11 0.948 . S
C33 C28 1.364 . S
C33 C32 1.379 . S
C34 C3 1.383 . S
C34 C21 1.479 . S
C34 C35 1.398 . S
C35 C0 1.382 . S
C35 H12 0.951 . S
C35 C34 1.398 . S
C36 C37 1.381 1_655 S
C36 H49 0.948 . S
C36 C71 1.382 1_655 S
C37 C36 1.381 1_455 S
C37 C38 1.388 . S
C38 C37 1.388 . S
C38 C39 1.378 . S
C38 H50 0.952 . S
C39 C38 1.378 . S
C39 H51 0.950 . S
C39 C70 1.383 . S
H40 C59 0.947 . S
H41 C60 0.952 . S
H42 C62 0.953 . S
H43 C63 0.945 . S
H44 C65 0.949 1_655 S
H45 C66 0.956 . S
H46 C68 0.950 . S
H47 C69 0.948 . S
H48 C71 0.952 1_655 S
H49 C36 0.948 . S
H50 C38 0.952 . S
H51 C39 0.950 . S
N52 C55 1.382 . S
N52 C57 1.363 . S
N53 C55 1.371 . S
N53 C56 1.372 . S
N54 C56 1.361 . S
N54 C57 1.377 . S
C55 N52 1.382 . S
C55 N53 1.371 . S
C55 C58 1.480 . S
C56 N53 1.372 . S
C56 N54 1.361 . S
C56 C64 1.457 . S
C57 N52 1.363 . S
C57 N54 1.377 . S
C57 C70 1.479 . S
C58 C55 1.480 . S
C58 C59 1.383 . S
C58 C63 1.385 . S
C59 H40 0.947 . S
C59 C58 1.383 . S
C59 C60 1.386 1_455 S
C60 H41 0.952 . S
C60 C59 1.386 1_655 S
C60 C61 1.381 1_655 S
C61 C60 1.381 1_455 S
C61 C62 1.377 . S
C62 H42 0.953 . S
C62 C61 1.377 . S
C62 C63 1.369 . S
C63 H43 0.945 . S
C63 C58 1.385 . S
C63 C62 1.369 . S
C64 C56 1.457 . S
C64 C65 1.375 . S
C64 C69 1.364 . S
C65 H44 0.949 1_455 S
C65 C64 1.375 . S
C65 C66 1.386 1_455 S
C66 H45 0.956 . S
C66 C65 1.386 1_655 S
C66 C67 1.383 1_655 S
C67 C66 1.383 1_455 S
C67 C68 1.372 . S
C68 H46 0.950 . S
C68 C67 1.372 . S
C68 C69 1.379 . S
C69 H47 0.948 . S
C69 C64 1.364 . S
C69 C68 1.379 . S
C70 C39 1.383 . S
C70 C57 1.479 . S
C70 C71 1.397 . S
C71 C36 1.382 1_455 S
C71 H48 0.952 1_455 S
C71 C70 1.397 . S
C72 C73 1.384 . S
C72 H85 0.947 . S
C72 C107 1.382 . S
C73 C72 1.384 . S
C73 C74 1.378 . S
C74 C73 1.378 . S
C74 C75 1.381 . S
C74 H86 0.952 . S
C75 C74 1.381 . S
C75 H87 0.944 1_565 S
C75 C106 1.387 . S
H76 C95 0.947 . S
H77 C96 0.946 . S
H78 C98 0.953 . S
H79 C99 0.943 1_545 S
H80 C101 0.952 . S
H81 C102 0.949 . S
H82 C104 0.945 1_545 S
H83 C105 0.951 . S
H84 C107 0.951 . S
H85 C72 0.947 . S
H86 C74 0.952 . S
H87 C75 0.944 1_545 S
N88 C91 1.382 . S
N88 C93 1.367 . S
N89 C91 1.371 . S
N89 C92 1.376 . S
N90 C92 1.363 . S
N90 C93 1.380 . S
C91 N88 1.382 . S
C91 N89 1.371 . S
C91 C94 1.480 . S
C92 N89 1.376 . S
C92 N90 1.363 . S
C92 C100 1.457 . S
C93 N88 1.367 . S
C93 N90 1.380 . S
C93 C106 1.486 . S
C94 C91 1.480 . S
C94 C95 1.383 . S
C94 C99 1.386 . S
C95 H76 0.947 . S
C95 C94 1.383 . S
C95 C96 1.388 . S
C96 H77 0.946 . S
C96 C95 1.388 . S
C96 C97 1.384 . S
C97 C96 1.384 . S
C97 C98 1.377 . S
C98 H78 0.953 . S
C98 C97 1.377 . S
C98 C99 1.370 . S
C99 H79 0.943 1_565 S
C99 C94 1.386 . S
C99 C98 1.370 . S
C100 C92 1.457 . S
C100 C101 1.387 . S
C100 C105 1.360 1_565 S
C101 H80 0.952 . S
C101 C100 1.387 . S
C101 C102 1.389 . S
C102 H81 0.949 . S
C102 C101 1.389 . S
C102 C103 1.387 . S
C103 C102 1.387 . S
C103 C104 1.382 . S
C104 H82 0.945 1_565 S
C104 C103 1.382 . S
C104 C105 1.376 1_565 S
C105 H83 0.951 . S
C105 C100 1.360 1_545 S
C105 C104 1.376 1_545 S
C106 C75 1.387 . S
C106 C93 1.486 . S
C106 C107 1.398 . S
C107 C72 1.382 . S
C107 H84 0.951 . S
C107 C106 1.398 . S
C108 C109 1.384 . S
C108 H121 0.947 . S
C108 C143 1.382 . S
C109 C108 1.384 . S
C109 C110 1.378 . S
C110 C109 1.378 . S
C110 C111 1.378 . S
C110 H122 0.952 . S
C111 C110 1.378 . S
C111 H123 0.950 . S
C111 C142 1.383 . S
H112 C131 0.947 . S
H113 C132 0.946 . S
H114 C134 0.953 . S
H115 C135 0.945 . S
H116 C137 0.952 . S
H117 C138 0.949 . S
H118 C140 0.950 . S
H119 C141 0.948 . S
H120 C143 0.951 . S
H121 C108 0.947 . S
H122 C110 0.952 . S
H123 C111 0.950 . S
N124 C127 1.382 . S
N124 C129 1.363 . S
N125 C127 1.371 . S
N125 C128 1.372 . S
N126 C128 1.361 . S
N126 C129 1.377 . S
C127 N124 1.382 . S
C127 N125 1.371 . S
C127 C130 1.480 . S
C128 N125 1.372 . S
C128 N126 1.361 . S
C128 C136 1.457 . S
C129 N124 1.363 . S
C129 N126 1.377 . S
C129 C142 1.479 . S
C130 C127 1.480 . S
C130 C131 1.383 . S
C130 C135 1.385 . S
C131 H112 0.947 . S
C131 C130 1.383 . S
C131 C132 1.388 . S
C132 H113 0.946 . S
C132 C131 1.388 . S
C132 C133 1.384 . S
C133 C132 1.384 . S
C133 C134 1.377 . S
C134 H114 0.953 . S
C134 C133 1.377 . S
C134 C135 1.369 . S
C135 H115 0.945 . S
C135 C130 1.385 . S
C135 C134 1.369 . S
C136 C128 1.457 . S
C136 C137 1.372 . S
C136 C141 1.364 . S
C137 H116 0.952 . S
C137 C136 1.372 . S
C137 C138 1.389 . S
C138 H117 0.949 . S
C138 C137 1.389 . S
C138 C139 1.387 . S
C139 C138 1.387 . S
C139 C140 1.372 . S
C140 H118 0.950 . S
C140 C139 1.372 . S
C140 C141 1.379 . S
C141 H119 0.948 . S
C141 C136 1.364 . S
C141 C140 1.379 . S
C142 C111 1.383 . S
C142 C129 1.479 . S
C142 C143 1.398 . S
C143 C108 1.382 . S
C143 H120 0.951 . S
C143 C142 1.398 . S
C144 C145 1.384 . S
C144 H157 0.947 . S
C144 C179 1.382 . S
C145 C144 1.384 . S
C145 C146 1.378 . S
C146 C145 1.378 . S
C146 C147 1.378 . S
C146 H158 0.952 . S
C147 C146 1.378 . S
C147 H159 0.950 . S
C147 C178 1.383 . S
H148 C167 0.947 1_556 S
H149 C168 0.946 . S
H150 C170 0.953 . S
H151 C171 0.945 . S
H152 C173 0.952 . S
H153 C174 0.949 . S
H154 C176 0.950 . S
H155 C177 0.948 . S
H156 C179 0.951 . S
H157 C144 0.947 . S
H158 C146 0.952 . S
H159 C147 0.950 . S
N160 C163 1.382 1_556 S
N160 C165 1.363 . S
N161 C163 1.371 . S
N161 C164 1.372 . S
N162 C164 1.361 . S
N162 C165 1.377 1_554 S
C163 N160 1.382 1_554 S
C163 N161 1.371 . S
C163 C166 1.480 . S
C164 N161 1.372 . S
C164 N162 1.361 . S
C164 C172 1.457 . S
C165 N160 1.363 . S
C165 N162 1.377 1_556 S
C165 C178 1.479 . S
C166 C163 1.480 . S
C166 C167 1.383 . S
C166 C171 1.385 . S
C167 H148 0.947 1_554 S
C167 C166 1.383 . S
C167 C168 1.388 . S
C168 H149 0.946 . S
C168 C167 1.388 . S
C168 C169 1.384 . S
C169 C168 1.384 . S
C169 C170 1.377 . S
C170 H150 0.953 . S
C170 C169 1.377 . S
C170 C171 1.369 . S
C171 H151 0.945 . S
C171 C166 1.385 . S
C171 C170 1.369 . S
C172 C164 1.457 . S
C172 C173 1.372 . S
C172 C177 1.364 . S
C173 H152 0.952 . S
C173 C172 1.372 . S
C173 C174 1.389 . S
C174 H153 0.949 . S
C174 C173 1.389 . S
C174 C175 1.387 . S
C175 C174 1.387 . S
C175 C176 1.372 . S
C176 H154 0.950 . S
C176 C175 1.372 . S
C176 C177 1.379 . S
C177 H155 0.948 . S
C177 C172 1.364 . S
C177 C176 1.379 . S
C178 C147 1.383 . S
C178 C165 1.479 . S
C178 C179 1.398 . S
C179 C144 1.382 . S
C179 H156 0.951 . S
C179 C178 1.398 . S
C180 C181 1.384 . S
C180 H193 0.948 1_455 S
C180 C215 1.382 . S
C181 C180 1.384 . S
C181 C182 1.378 . S
C182 C181 1.378 . S
C182 C183 1.378 . S
C182 H194 0.952 . S
C183 C182 1.378 . S
C183 H195 0.950 . S
C183 C214 1.383 . S
H184 C203 0.947 1_556 S
H185 C204 0.948 . S
H186 C206 0.953 . S
H187 C207 0.945 . S
H188 C209 0.947 1_655 S
H189 C210 0.954 . S
H190 C212 0.950 . S
H191 C213 0.948 . S
H192 C215 0.950 1_655 S
H193 C180 0.948 1_655 S
H194 C182 0.952 . S
H195 C183 0.950 . S
N196 C199 1.382 1_556 S
N196 C201 1.363 . S
N197 C199 1.371 . S
N197 C200 1.372 . S
N198 C200 1.361 . S
N198 C201 1.377 1_554 S
C199 N196 1.382 1_554 S
C199 N197 1.371 . S
C199 C202 1.480 . S
C200 N197 1.372 . S
C200 N198 1.361 . S
C200 C208 1.457 . S
C201 N196 1.363 . S
C201 N198 1.377 1_556 S
C201 C214 1.479 . S
C202 C199 1.480 . S
C202 C203 1.383 . S
C202 C207 1.385 . S
C203 H184 0.947 1_554 S
C203 C202 1.383 . S
C203 C204 1.387 1_455 S
C204 H185 0.948 . S
C204 C203 1.387 1_655 S
C204 C205 1.383 1_655 S
C205 C204 1.383 1_455 S
C205 C206 1.377 . S
C206 H186 0.953 . S
C206 C205 1.377 . S
C206 C207 1.369 . S
C207 H187 0.945 . S
C207 C202 1.385 . S
C207 C206 1.369 . S
C208 C200 1.457 . S
C208 C209 1.379 . S
C208 C213 1.364 . S
C209 H188 0.947 1_455 S
C209 C208 1.379 . S
C209 C210 1.387 1_455 S
C210 H189 0.954 . S
C210 C209 1.387 1_655 S
C210 C211 1.384 1_655 S
C211 C210 1.384 1_455 S
C211 C212 1.372 . S
C212 H190 0.950 . S
C212 C211 1.372 . S
C212 C213 1.379 . S
C213 H191 0.948 . S
C213 C208 1.364 . S
C213 C212 1.379 . S
C214 C183 1.383 . S
C214 C201 1.479 . S
C214 C215 1.399 . S
C215 C180 1.382 . S
C215 H192 0.950 1_455 S
C215 C214 1.399 . S
C216 C217 1.384 . S
C216 H229 0.947 . S
C216 C251 1.382 . S
C217 C216 1.384 . S
C217 C218 1.378 . S
C218 C217 1.378 . S
C218 C219 1.378 . S
C218 H230 0.952 . S
C219 C218 1.378 . S
C219 H231 0.950 . S
C219 C250 1.383 . S
H220 C239 0.947 1_556 S
H221 C240 0.946 . S
H222 C242 0.953 . S
H223 C243 0.945 . S
H224 C245 0.952 . S
H225 C246 0.949 . S
H226 C248 0.950 . S
H227 C249 0.948 . S
H228 C251 0.951 . S
H229 C216 0.947 . S
H230 C218 0.952 . S
H231 C219 0.950 . S
N232 C235 1.382 1_556 S
N232 C237 1.363 . S
N233 C235 1.371 . S
N233 C236 1.372 . S
N234 C236 1.361 . S
N234 C237 1.377 1_554 S
C235 N232 1.382 1_554 S
C235 N233 1.371 . S
C235 C238 1.480 . S
C236 N233 1.372 . S
C236 N234 1.361 . S
C236 C244 1.457 . S
C237 N232 1.363 . S
C237 N234 1.377 1_556 S
C237 C250 1.479 . S
C238 C235 1.480 . S
C238 C239 1.383 . S
C238 C243 1.385 . S
C239 H220 0.947 1_554 S
C239 C238 1.383 . S
C239 C240 1.388 . S
C240 H221 0.946 . S
C240 C239 1.388 . S
C240 C241 1.384 . S
C241 C240 1.384 . S
C241 C242 1.377 . S
C242 H222 0.953 . S
C242 C241 1.377 . S
C242 C243 1.369 . S
C243 H223 0.945 . S
C243 C238 1.385 . S
C243 C242 1.369 . S
C244 C236 1.457 . S
C244 C245 1.372 . S
C244 C249 1.364 . S
C245 H224 0.952 . S
C245 C244 1.372 . S
C245 C246 1.389 . S
C246 H225 0.949 . S
C246 C245 1.389 . S
C246 C247 1.387 . S
C247 C246 1.387 . S
C247 C248 1.372 . S
C248 H226 0.950 . S
C248 C247 1.372 . S
C248 C249 1.379 . S
C249 H227 0.948 . S
C249 C244 1.364 . S
C249 C248 1.379 . S
C250 C219 1.383 . S
C250 C237 1.479 . S
C250 C251 1.398 . S
C251 C216 1.382 . S
C251 H228 0.951 . S
C251 C250 1.398 . S
C252 C253 1.384 . S
C252 H265 0.947 . S
C252 C287 1.382 . S
C253 C252 1.384 . S
C253 C254 1.378 . S
C254 C253 1.378 . S
C254 C255 1.378 . S
C254 H266 0.952 . S
C255 C254 1.378 . S
C255 H267 0.950 . S
C255 C286 1.383 . S
H256 C275 0.947 . S
H257 C276 0.946 . S
H258 C278 0.953 1_556 S
H259 C279 0.945 1_556 S
H260 C281 0.952 . S
H261 C282 0.949 . S
H262 C284 0.950 . S
H263 C285 0.948 . S
H264 C287 0.951 . S
H265 C252 0.947 . S
H266 C254 0.952 . S
H267 C255 0.950 . S
N268 C271 1.382 . S
N268 C273 1.363 . S
N269 C271 1.371 1_556 S
N269 C272 1.372 . S
N270 C272 1.361 1_554 S
N270 C273 1.377 . S
C271 N268 1.382 . S
C271 N269 1.371 1_554 S
C271 C274 1.480 . S
C272 N269 1.372 . S
C272 N270 1.361 1_556 S
C272 C280 1.457 . S
C273 N268 1.363 . S
C273 N270 1.377 . S
C273 C286 1.479 . S
C274 C271 1.480 . S
C274 C275 1.383 . S
C274 C279 1.385 . S
C275 H256 0.947 . S
C275 C274 1.383 . S
C275 C276 1.388 . S
C276 H257 0.946 . S
C276 C275 1.388 . S
C276 C277 1.384 . S
C277 C276 1.384 . S
C277 C278 1.377 . S
C278 H258 0.953 1_554 S
C278 C277 1.377 . S
C278 C279 1.369 . S
C279 H259 0.945 1_554 S
C279 C274 1.385 . S
C279 C278 1.369 . S
C280 C272 1.457 . S
C280 C281 1.372 . S
C280 C285 1.364 . S
C281 H260 0.952 . S
C281 C280 1.372 . S
C281 C282 1.389 . S
C282 H261 0.949 . S
C282 C281 1.389 . S
C282 C283 1.387 . S
C283 C282 1.387 . S
C283 C284 1.372 . S
C284 H262 0.950 . S
C284 C283 1.372 . S
C284 C285 1.379 . S
C285 H263 0.948 . S
C285 C280 1.364 . S
C285 C284 1.379 . S
C286 C255 1.383 . S
C286 C273 1.479 . S
C286 C287 1.398 . S
C287 C252 1.382 . S
C287 H264 0.951 . S
C287 C286 1.398 . S
Ho288 C291 2.811 . S
Ho288 O308 2.322 . S
Ho288 O310 2.378 . S
Ho288 O311 2.541 . S
Ho288 O312 2.381 . S
Ho288 O313 2.669 1_565 S
Ho288 O315 2.346 1_565 S
Ho288 O319 2.305 1_455 S
Ho289 C300 2.811 . S
Ho289 O309 2.346 1_545 S
Ho289 O313 2.305 1_655 S
Ho289 O314 2.322 . S
Ho289 O316 2.378 . S
Ho289 O317 2.535 . S
Ho289 O318 2.381 . S
Ho289 O319 2.669 1_545 S
C290 O308 1.259 1_655 S
C290 O309 1.268 . S
C291 Ho288 2.811 . S
C291 C292 1.488 . S
C291 O310 1.215 . S
C291 O311 1.331 . S
C292 C291 1.488 . S
C292 C293 1.348 . S
C292 C297 1.413 . S
C293 C292 1.348 . S
C293 C294 1.442 . S
C293 H320 0.930 1_455 S
C294 C293 1.442 . S
C294 C295 1.381 . S
C294 H321 0.931 1_455 S
C295 C294 1.381 . S
C295 C296 1.321 . S
C296 C295 1.321 . S
C296 C297 1.403 . S
C296 H322 0.934 . S
C297 C292 1.413 . S
C297 C296 1.403 . S
C297 H323 0.930 . S
C298 O312 1.275 1_545 S
C298 O313 1.256 . S
C299 O314 1.259 1_455 S
C299 O315 1.268 . S
C300 Ho289 2.811 . S
C300 C301 1.488 . S
C300 O316 1.215 . S
C300 O317 1.317 . S
C301 C300 1.488 . S
C301 C302 1.348 . S
C301 C306 1.413 . S
C302 C301 1.348 . S
C302 C303 1.442 . S
C302 H324 0.930 1_655 S
C303 C302 1.442 . S
C303 C304 1.381 . S
C303 H325 0.931 1_655 S
C304 C303 1.381 . S
C304 C305 1.321 . S
C305 C304 1.321 . S
C305 C306 1.403 . S
C305 H326 0.934 . S
C306 C301 1.413 . S
C306 C305 1.403 . S
C306 H327 0.930 . S
C307 O318 1.275 . S
C307 O319 1.256 1_545 S
O308 Ho288 2.322 . S
O308 C290 1.259 1_455 S
O309 Ho289 2.346 1_565 S
O309 C290 1.268 . S
O310 Ho288 2.378 . S
O310 C291 1.215 . S
O311 Ho288 2.541 . S
O311 C291 1.331 . S
O312 Ho288 2.381 . S
O312 C298 1.275 1_565 S
O313 Ho288 2.669 1_545 S
O313 Ho289 2.305 1_455 S
O313 C298 1.256 . S
O314 Ho289 2.322 . S
O314 C299 1.259 1_655 S
O315 Ho288 2.346 1_545 S
O315 C299 1.268 . S
O316 Ho289 2.378 . S
O316 C300 1.215 . S
O317 Ho289 2.535 . S
O317 C300 1.317 . S
O318 Ho289 2.381 . S
O318 C307 1.275 . S
O319 Ho288 2.305 1_655 S
O319 Ho289 2.669 1_565 S
O319 C307 1.256 1_565 S
H320 C293 0.930 1_655 S
H321 C294 0.931 1_655 S
H322 C296 0.934 . S
H323 C297 0.930 . S
H324 C302 0.930 1_455 S
H325 C303 0.931 1_455 S
H326 C305 0.934 . S
H327 C306 0.930 . S
Ho328 C331 2.811 . S
Ho328 O348 2.322 . S
Ho328 O350 2.378 . S
Ho328 O351 2.524 . S
Ho328 O352 2.381 . S
Ho328 O353 2.669 . S
Ho328 O355 2.346 . S
Ho328 O359 2.305 1_545 S
Ho329 C340 2.811 . S
Ho329 O349 2.346 . S
Ho329 O353 2.305 1_565 S
Ho329 O354 2.322 . S
Ho329 O356 2.378 . S
Ho329 O357 2.524 1_565 S
Ho329 O358 2.381 . S
Ho329 O359 2.669 . S
C330 O348 1.259 1_565 S
C330 O349 1.268 . S
C331 Ho328 2.811 . S
C331 C332 1.488 . S
C331 O350 1.215 . S
C331 O351 1.289 . S
C332 C331 1.488 . S
C332 C333 1.348 . S
C332 C337 1.413 . S
C333 C332 1.348 . S
C333 C334 1.442 . S
C333 H360 0.930 1_545 S
C334 C333 1.442 . S
C334 C335 1.381 . S
C334 H361 0.931 1_545 S
C335 C334 1.381 . S
C335 C336 1.321 . S
C336 C335 1.321 . S
C336 C337 1.403 . S
C336 H362 0.934 . S
C337 C332 1.413 . S
C337 C336 1.403 . S
C337 H363 0.930 . S
C338 O352 1.275 . S
C338 O353 1.256 . S
C339 O354 1.259 1_545 S
C339 O355 1.268 . S
C340 Ho329 2.811 . S
C340 C341 1.488 . S
C340 O356 1.215 . S
C340 O357 1.289 1_565 S
C341 C340 1.488 . S
C341 C342 1.348 1_565 S
C341 C346 1.413 . S
C342 C341 1.348 1_545 S
C342 C343 1.439 1_545 S
C342 H364 0.930 . S
C343 C342 1.439 1_565 S
C343 C344 1.409 . S
C343 H365 0.907 1_565 S
C344 C343 1.409 . S
C344 C345 1.321 . S
C345 C344 1.321 . S
C345 C346 1.403 . S
C345 H366 0.934 . S
C346 C341 1.413 . S
C346 C345 1.403 . S
C346 H367 0.930 . S
C347 O358 1.275 . S
C347 O359 1.256 . S
O348 Ho328 2.322 . S
O348 C330 1.259 1_545 S
O349 Ho329 2.346 . S
O349 C330 1.268 . S
O350 Ho328 2.378 . S
O350 C331 1.215 . S
O351 Ho328 2.524 . S
O351 C331 1.289 . S
O352 Ho328 2.381 . S
O352 C338 1.275 . S
O353 Ho328 2.669 . S
O353 Ho329 2.305 1_545 S
O353 C338 1.256 . S
O354 Ho329 2.322 . S
O354 C339 1.259 1_565 S
O355 Ho328 2.346 . S
O355 C339 1.268 . S
O356 Ho329 2.378 . S
O356 C340 1.215 . S
O357 Ho329 2.524 1_545 S
O357 C340 1.289 1_545 S
O358 Ho329 2.381 . S
O358 C347 1.275 . S
O359 Ho328 2.305 1_565 S
O359 Ho329 2.669 . S
O359 C347 1.256 . S
H360 C333 0.930 1_565 S
H361 C334 0.931 1_565 S
H362 C336 0.934 . S
H363 C337 0.930 . S
H364 C342 0.930 . S
H365 C343 0.907 1_545 S
H366 C345 0.934 . S
H367 C346 0.930 . S
Ho368 C371 2.811 . S
Ho368 O388 2.322 . S
Ho368 O390 2.378 . S
Ho368 O391 2.524 . S
Ho368 O392 2.381 . S
Ho368 O393 2.669 . S
Ho368 O395 2.346 . S
Ho368 O399 2.305 . S
Ho369 C380 2.811 . S
Ho369 O389 2.346 . S
Ho369 O393 2.305 . S
Ho369 O394 2.322 . S
Ho369 O396 2.378 . S
Ho369 O397 2.524 . S
Ho369 O398 2.381 . S
Ho369 O399 2.669 . S
C370 O388 1.259 . S
C370 O389 1.268 . S
C371 Ho368 2.811 . S
C371 C372 1.488 . S
C371 O390 1.215 . S
C371 O391 1.289 . S
C372 C371 1.488 . S
C372 C373 1.348 . S
C372 C377 1.413 . S
C373 C372 1.348 . S
C373 C374 1.442 . S
C373 H400 0.930 . S
C374 C373 1.442 . S
C374 C375 1.381 . S
C374 H401 0.931 . S
C375 C374 1.381 . S
C375 C376 1.321 . S
C376 C375 1.321 . S
C376 C377 1.403 . S
C376 H402 0.934 . S
C377 C372 1.413 . S
C377 C376 1.403 . S
C377 H403 0.930 . S
C378 O392 1.275 . S
C378 O393 1.256 . S
C379 O394 1.259 . S
C379 O395 1.268 . S
C380 Ho369 2.811 . S
C380 C381 1.488 . S
C380 O396 1.215 . S
C380 O397 1.289 . S
C381 C380 1.488 . S
C381 C382 1.348 . S
C381 C386 1.413 . S
C382 C381 1.348 . S
C382 C383 1.442 . S
C382 H404 0.930 . S
C383 C382 1.442 . S
C383 C384 1.381 . S
C383 H405 0.931 . S
C384 C383 1.381 . S
C384 C385 1.321 . S
C385 C384 1.321 . S
C385 C386 1.403 . S
C385 H406 0.934 . S
C386 C381 1.413 . S
C386 C385 1.403 . S
C386 H407 0.930 . S
C387 O398 1.275 . S
C387 O399 1.256 . S
O388 Ho368 2.322 . S
O388 C370 1.259 . S
O389 Ho369 2.346 . S
O389 C370 1.268 . S
O390 Ho368 2.378 . S
O390 C371 1.215 . S
O391 Ho368 2.524 . S
O391 C371 1.289 . S
O392 Ho368 2.381 . S
O392 C378 1.275 . S
O393 Ho368 2.669 . S
O393 Ho369 2.305 . S
O393 C378 1.256 . S
O394 Ho369 2.322 . S
O394 C379 1.259 . S
O395 Ho368 2.346 . S
O395 C379 1.268 . S
O396 Ho369 2.378 . S
O396 C380 1.215 . S
O397 Ho369 2.524 . S
O397 C380 1.289 . S
O398 Ho369 2.381 . S
O398 C387 1.275 . S
O399 Ho368 2.305 . S
O399 Ho369 2.669 . S
O399 C387 1.256 . S
H400 C373 0.930 . S
H401 C374 0.931 . S
H402 C376 0.934 . S
H403 C377 0.930 . S
H404 C382 0.930 . S
H405 C383 0.931 . S
H406 C385 0.934 . S
H407 C386 0.930 . S
Ho408 C411 2.811 . S
Ho408 O428 2.322 . S
Ho408 O430 2.378 . S
Ho408 O431 2.524 . S
Ho408 O432 2.381 . S
Ho408 O433 2.669 1_655 S
Ho408 O435 2.346 1_655 S
Ho408 O439 2.305 . S
Ho409 C420 2.811 . S
Ho409 O429 2.346 1_455 S
Ho409 O433 2.305 . S
Ho409 O434 2.322 . S
Ho409 O436 2.378 . S
Ho409 O437 2.524 . S
Ho409 O438 2.381 . S
Ho409 O439 2.669 1_455 S
C410 O428 1.259 . S
C410 O429 1.268 . S
C411 Ho408 2.811 . S
C411 C412 1.488 . S
C411 O430 1.215 . S
C411 O431 1.289 . S
C412 C411 1.488 . S
C412 C413 1.348 . S
C412 C417 1.413 . S
C413 C412 1.348 . S
C413 C414 1.442 . S
C413 H440 0.930 . S
C414 C413 1.442 . S
C414 C415 1.381 . S
C414 H441 0.931 . S
C415 C414 1.381 . S
C415 C416 1.321 . S
C416 C415 1.321 . S
C416 C417 1.403 . S
C416 H442 0.934 . S
C417 C412 1.413 . S
C417 C416 1.403 . S
C417 H443 0.930 . S
C418 O432 1.275 . S
C418 O433 1.256 1_655 S
C419 O434 1.259 . S
C419 O435 1.268 . S
C420 Ho409 2.811 . S
C420 C421 1.488 . S
C420 O436 1.215 . S
C420 O437 1.289 . S
C421 C420 1.488 . S
C421 C422 1.348 . S
C421 C426 1.413 . S
C422 C421 1.348 . S
C422 C423 1.442 . S
C422 H444 0.930 . S
C423 C422 1.442 . S
C423 C424 1.381 . S
C423 H445 0.931 . S
C424 C423 1.381 . S
C424 C425 1.321 . S
C425 C424 1.321 . S
C425 C426 1.403 . S
C425 H446 0.934 . S
C426 C421 1.413 . S
C426 C425 1.403 . S
C426 H447 0.930 . S
C427 O438 1.275 . S
C427 O439 1.256 1_455 S
O428 Ho408 2.322 . S
O428 C410 1.259 . S
O429 Ho409 2.346 1_655 S
O429 C410 1.268 . S
O430 Ho408 2.378 . S
O430 C411 1.215 . S
O431 Ho408 2.524 . S
O431 C411 1.289 . S
O432 Ho408 2.381 . S
O432 C418 1.275 . S
O433 Ho408 2.669 1_455 S
O433 Ho409 2.305 . S
O433 C418 1.256 1_455 S
O434 Ho409 2.322 . S
O434 C419 1.259 . S
O435 Ho408 2.346 1_455 S
O435 C419 1.268 . S
O436 Ho409 2.378 . S
O436 C420 1.215 . S
O437 Ho409 2.524 . S
O437 C420 1.289 . S
O438 Ho409 2.381 . S
O438 C427 1.275 . S
O439 Ho408 2.305 . S
O439 Ho409 2.669 1_655 S
O439 C427 1.256 1_655 S
H440 C413 0.930 . S
H441 C414 0.931 . S
H442 C416 0.934 . S
H443 C417 0.930 . S
H444 C422 0.930 . S
H445 C423 0.931 . S
H446 C425 0.934 . S
H447 C426 0.930 . S
C448 C449 1.349 1_565 S
C448 C450 1.327 . S
C448 H473 0.950 . S
C449 C448 1.349 1_545 S
C449 C465 1.349 . S
C450 C448 1.327 . S
C450 C469 1.429 1_565 S
C450 H474 0.950 . S
C451 C468 1.574 . S
C451 C470 1.368 . S
C451 H475 0.949 . S
H452 C456 0.949 . S
C453 C454 1.349 . S
C453 C455 1.327 . S
C453 H476 0.950 . S
C454 C453 1.349 . S
C454 C466 1.349 1_545 S
C455 C453 1.327 . S
C455 C471 1.429 . S
C455 H477 0.950 . S
C456 H452 0.949 . S
C456 C464 1.574 . S
C456 C472 1.368 1_565 S
H457 C465 0.950 . S
H458 C463 0.950 . S
H459 C464 0.949 . S
H460 C466 0.950 . S
H461 C467 0.950 . S
H462 C468 0.949 . S
C463 H458 0.950 . S
C463 C465 1.327 . S
C463 C469 1.429 . S
C464 C456 1.574 . S
C464 H459 0.949 . S
C464 C470 1.368 1_565 S
C465 C449 1.349 . S
C465 H457 0.950 . S
C465 C463 1.327 . S
C466 C454 1.349 1_565 S
C466 H460 0.950 . S
C466 C467 1.327 . S
C467 H461 0.950 . S
C467 C466 1.327 . S
C467 C471 1.429 1_565 S
C468 C451 1.574 . S
C468 H462 0.949 . S
C468 C472 1.368 . S
C469 C450 1.429 1_545 S
C469 C463 1.429 . S
C469 C470 1.523 . S
C470 C451 1.368 . S
C470 C464 1.368 1_545 S
C470 C469 1.523 . S
C471 C455 1.429 . S
C471 C467 1.429 1_545 S
C471 C472 1.523 . S
C472 C456 1.368 1_545 S
C472 C468 1.368 . S
C472 C471 1.523 . S
H473 C448 0.950 . S
H474 C450 0.950 . S
H475 C451 0.949 . S
H476 C453 0.950 . S
H477 C455 0.950 . S
C478 C479 1.349 . S
C478 C480 1.327 . S
C478 H503 0.950 . S
C479 C478 1.349 . S
C479 C495 1.349 . S
C480 C478 1.327 . S
C480 C499 1.429 . S
C480 H504 0.950 . S
C481 C498 1.574 . S
C481 C500 1.368 . S
C481 H505 0.949 . S
H482 C486 0.949 . S
C483 C484 1.349 . S
C483 C485 1.327 . S
C483 H506 0.950 . S
C484 C483 1.349 . S
C484 C496 1.349 . S
C485 C483 1.327 . S
C485 C501 1.429 . S
C485 H507 0.950 . S
C486 H482 0.949 . S
C486 C494 1.574 . S
C486 C502 1.368 . S
H487 C495 0.950 . S
H488 C493 0.950 . S
H489 C494 0.949 . S
H490 C496 0.950 . S
H491 C497 0.950 . S
H492 C498 0.949 . S
C493 H488 0.950 . S
C493 C495 1.327 . S
C493 C499 1.429 . S
C494 C486 1.574 . S
C494 H489 0.949 . S
C494 C500 1.368 . S
C495 C479 1.349 . S
C495 H487 0.950 . S
C495 C493 1.327 . S
C496 C484 1.349 . S
C496 H490 0.950 . S
C496 C497 1.327 . S
C497 H491 0.950 . S
C497 C496 1.327 . S
C497 C501 1.429 . S
C498 C481 1.574 . S
C498 H492 0.949 . S
C498 C502 1.368 . S
C499 C480 1.429 . S
C499 C493 1.429 . S
C499 C500 1.523 . S
C500 C481 1.368 . S
C500 C494 1.368 . S
C500 C499 1.523 . S
C501 C485 1.429 . S
C501 C497 1.429 . S
C501 C502 1.523 . S
C502 C486 1.368 . S
C502 C498 1.368 . S
C502 C501 1.523 . S
H503 C478 0.950 . S
H504 C480 0.950 . S
H505 C481 0.949 . S
H506 C483 0.950 . S
H507 C485 0.950 . S
C508 C509 1.349 . S
C508 C510 1.327 . S
C508 H533 0.950 . S
C509 C508 1.349 . S
C509 C525 1.349 . S
C510 C508 1.327 . S
C510 C529 1.429 . S
C510 H534 0.950 . S
C511 C528 1.574 . S
C511 C530 1.368 . S
C511 H535 0.949 . S
H512 C516 0.949 . S
C513 C514 1.349 . S
C513 C515 1.327 . S
C513 H536 0.950 . S
C514 C513 1.349 . S
C514 C526 1.349 . S
C515 C513 1.327 . S
C515 C531 1.429 . S
C515 H537 0.950 . S
C516 H512 0.949 . S
C516 C524 1.574 . S
C516 C532 1.368 . S
H517 C525 0.950 . S
H518 C523 0.950 . S
H519 C524 0.949 . S
H520 C526 0.950 . S
H521 C527 0.950 . S
H522 C528 0.949 . S
C523 H518 0.950 . S
C523 C525 1.327 . S
C523 C529 1.429 . S
C524 C516 1.574 . S
C524 H519 0.949 . S
C524 C530 1.368 . S
C525 C509 1.349 . S
C525 H517 0.950 . S
C525 C523 1.327 . S
C526 C514 1.349 . S
C526 H520 0.950 . S
C526 C527 1.327 . S
C527 H521 0.950 . S
C527 C526 1.327 . S
C527 C531 1.429 . S
C528 C511 1.574 . S
C528 H522 0.949 . S
C528 C532 1.368 . S
C529 C510 1.429 . S
C529 C523 1.429 . S
C529 C530 1.523 . S
C530 C511 1.368 . S
C530 C524 1.368 . S
C530 C529 1.523 . S
C531 C515 1.429 . S
C531 C527 1.429 . S
C531 C532 1.523 . S
C532 C516 1.368 . S
C532 C528 1.368 . S
C532 C531 1.523 . S
H533 C508 0.950 . S
H534 C510 0.950 . S
H535 C511 0.949 . S
H536 C513 0.950 . S
H537 C515 0.950 . S
C538 C539 1.346 1_655 S
C538 C540 1.327 . S
C538 H563 0.950 . S
C539 C538 1.346 1_455 S
C539 C555 1.352 . S
C540 C538 1.327 . S
C540 C559 1.421 1_655 S
C540 H564 0.950 . S
C541 C558 1.574 . S
C541 C560 1.381 . S
C541 H565 0.949 . S
H542 C546 0.949 . S
C543 C544 1.375 . S
C543 C545 1.327 . S
C543 H566 0.950 . S
C544 C543 1.375 . S
C544 C556 1.324 1_455 S
C545 C543 1.327 . S
C545 C561 1.448 . S
C545 H567 0.950 . S
C546 H542 0.949 . S
C546 C554 1.574 . S
C546 C562 1.351 1_655 S
H547 C555 0.950 . S
H548 C553 0.950 . S
H549 C554 0.949 . S
H550 C556 0.950 . S
H551 C557 0.950 . S
H552 C558 0.949 . S
C553 H548 0.950 . S
C553 C555 1.327 . S
C553 C559 1.437 . S
C554 C546 1.574 . S
C554 H549 0.949 . S
C554 C560 1.356 1_655 S
C555 C539 1.352 . S
C555 H547 0.950 . S
C555 C553 1.327 . S
C556 C544 1.324 1_655 S
C556 H550 0.950 . S
C556 C557 1.327 . S
C557 H551 0.950 . S
C557 C556 1.327 . S
C557 C561 1.410 1_655 S
C558 C541 1.574 . S
C558 H552 0.949 . S
C558 C562 1.386 . S
C559 C540 1.421 1_455 S
C559 C553 1.437 . S
C559 C560 1.523 . S
C560 C541 1.381 . S
C560 C554 1.356 1_455 S
C560 C559 1.523 . S
C561 C545 1.448 . S
C561 C557 1.410 1_455 S
C561 C562 1.523 . S
C562 C546 1.351 1_455 S
C562 C558 1.386 . S
C562 C561 1.523 . S
H563 C538 0.950 . S
H564 C540 0.950 . S
H565 C541 0.949 . S
H566 C543 0.950 . S
H567 C545 0.950 . S
C568 C569 1.349 1_545 S
C568 C570 1.327 . S
C568 H593 0.950 . S
C569 C568 1.349 1_565 S
C569 C585 1.349 . S
C570 C568 1.327 . S
C570 C589 1.429 1_545 S
C570 H594 0.950 . S
C571 C588 1.574 . S
C571 C590 1.368 1_556 S
C571 H595 0.949 1_556 S
H572 C576 0.949 . S
C573 C574 1.316 1_565 S
C573 C575 1.327 . S
C573 H596 0.950 . S
C574 C573 1.316 1_545 S
C574 C586 1.381 . S
C575 C573 1.327 . S
C575 C591 1.456 . S
C575 H597 0.950 . S
C576 H572 0.949 . S
C576 C584 1.574 1_556 S
C576 C592 1.368 1_545 S
H577 C585 0.950 . S
H578 C583 0.950 . S
H579 C584 0.949 . S
H580 C586 0.950 . S
H581 C587 0.950 . S
H582 C588 0.949 . S
C583 H578 0.950 . S
C583 C585 1.327 . S
C583 C589 1.429 . S
C584 C576 1.574 1_554 S
C584 H579 0.949 . S
C584 C590 1.368 1_545 S
C585 C569 1.349 . S
C585 H577 0.950 . S
C585 C583 1.327 . S
C586 C574 1.381 . S
C586 H580 0.950 . S
C586 C587 1.327 . S
C587 H581 0.950 . S
C587 C586 1.327 . S
C587 C591 1.400 1_545 S
C588 C571 1.574 . S
C588 H582 0.949 . S
C588 C592 1.368 . S
C589 C570 1.429 1_565 S
C589 C583 1.429 . S
C589 C590 1.523 . S
C590 C571 1.368 1_554 S
C590 C584 1.368 1_565 S
C590 C589 1.523 . S
C591 C575 1.456 . S
C591 C587 1.400 1_565 S
C591 C592 1.525 . S
C592 C576 1.368 1_565 S
C592 C588 1.368 . S
C592 C591 1.525 . S
H593 C568 0.950 . S
H594 C570 0.950 . S
H595 C571 0.949 1_554 S
H596 C573 0.950 . S
H597 C575 0.950 . S
C598 C599 1.349 . S
C598 C600 1.327 . S
C598 H623 0.950 . S
C599 C598 1.349 . S
C599 C615 1.349 . S
C600 C598 1.327 . S
C600 C619 1.429 . S
C600 H624 0.950 . S
C601 C618 1.574 . S
C601 C620 1.368 1_556 S
C601 H625 0.949 1_556 S
H602 C606 0.949 . S
C603 C604 1.349 . S
C603 C605 1.327 . S
C603 H626 0.950 . S
C604 C603 1.349 . S
C604 C616 1.349 . S
C605 C603 1.327 . S
C605 C621 1.429 . S
C605 H627 0.950 . S
C606 H602 0.949 . S
C606 C614 1.574 1_556 S
C606 C622 1.368 . S
H607 C615 0.950 . S
H608 C613 0.950 . S
H609 C614 0.949 . S
H610 C616 0.950 . S
H611 C617 0.950 . S
H612 C618 0.949 . S
C613 H608 0.950 . S
C613 C615 1.327 . S
C613 C619 1.429 . S
C614 C606 1.574 1_554 S
C614 H609 0.949 . S
C614 C620 1.368 . S
C615 C599 1.349 . S
C615 H607 0.950 . S
C615 C613 1.327 . S
C616 C604 1.349 . S
C616 H610 0.950 . S
C616 C617 1.327 . S
C617 H611 0.950 . S
C617 C616 1.327 . S
C617 C621 1.429 . S
C618 C601 1.574 . S
C618 H612 0.949 . S
C618 C622 1.368 . S
C619 C600 1.429 . S
C619 C613 1.429 . S
C619 C620 1.523 . S
C620 C601 1.368 1_554 S
C620 C614 1.368 . S
C620 C619 1.523 . S
C621 C605 1.429 . S
C621 C617 1.429 . S
C621 C622 1.523 . S
C622 C606 1.368 . S
C622 C618 1.368 . S
C622 C621 1.523 . S
H623 C598 0.950 . S
H624 C600 0.950 . S
H625 C601 0.949 1_554 S
H626 C603 0.950 . S
H627 C605 0.950 . S
C628 C629 1.349 . S
C628 C630 1.327 . S
C628 H653 0.950 . S
C629 C628 1.349 . S
C629 C645 1.349 . S
C630 C628 1.327 . S
C630 C649 1.429 . S
C630 H654 0.950 . S
C631 C648 1.574 1_554 S
C631 C650 1.368 . S
C631 H655 0.949 . S
H632 C636 0.949 . S
C633 C634 1.349 . S
C633 C635 1.327 . S
C633 H656 0.950 . S
C634 C633 1.349 . S
C634 C646 1.349 . S
C635 C633 1.327 . S
C635 C651 1.429 . S
C635 H657 0.950 . S
C636 H632 0.949 . S
C636 C644 1.574 . S
C636 C652 1.368 . S
H637 C645 0.950 . S
H638 C643 0.950 . S
H639 C644 0.949 . S
H640 C646 0.950 . S
H641 C647 0.950 . S
H642 C648 0.949 . S
C643 H638 0.950 . S
C643 C645 1.327 . S
C643 C649 1.429 . S
C644 C636 1.574 . S
C644 H639 0.949 . S
C644 C650 1.368 1_556 S
C645 C629 1.349 . S
C645 H637 0.950 . S
C645 C643 1.327 . S
C646 C634 1.349 . S
C646 H640 0.950 . S
C646 C647 1.327 . S
C647 H641 0.950 . S
C647 C646 1.327 . S
C647 C651 1.429 . S
C648 C631 1.574 1_556 S
C648 H642 0.949 . S
C648 C652 1.368 . S
C649 C630 1.429 . S
C649 C643 1.429 . S
C649 C650 1.523 . S
C650 C631 1.368 . S
C650 C644 1.368 1_554 S
C650 C649 1.523 . S
C651 C635 1.429 . S
C651 C647 1.429 . S
C651 C652 1.523 . S
C652 C636 1.368 . S
C652 C648 1.368 . S
C652 C651 1.523 . S
H653 C628 0.950 . S
H654 C630 0.950 . S
H655 C631 0.949 . S
H656 C633 0.950 . S
H657 C635 0.950 . S
C658 C659 1.347 1_455 S
C658 C660 1.327 . S
C658 H683 0.950 . S
C659 C658 1.347 1_655 S
C659 C675 1.351 . S
C660 C658 1.327 . S
C660 C679 1.423 1_455 S
C660 H684 0.950 . S
C661 C678 1.574 1_554 S
C661 C680 1.377 . S
C661 H685 0.949 . S
H662 C666 0.949 . S
C663 C664 1.367 . S
C663 C665 1.327 . S
C663 H686 0.950 . S
C664 C663 1.367 . S
C664 C676 1.332 1_655 S
C665 C663 1.327 . S
C665 C681 1.442 . S
C665 H687 0.950 . S
C666 H662 0.949 . S
C666 C674 1.574 . S
C666 C682 1.357 1_455 S
H667 C675 0.950 . S
H668 C673 0.950 . S
H669 C674 0.949 . S
H670 C676 0.950 . S
H671 C677 0.950 . S
H672 C678 0.949 . S
C673 H668 0.950 . S
C673 C675 1.327 . S
C673 C679 1.434 . S
C674 C666 1.574 . S
C674 H669 0.949 . S
C674 C680 1.360 1_456 S
C675 C659 1.351 . S
C675 H667 0.950 . S
C675 C673 1.327 . S
C676 C664 1.332 1_455 S
C676 H670 0.950 . S
C676 C677 1.327 . S
C677 H671 0.950 . S
C677 C676 1.327 . S
C677 C681 1.416 1_455 S
C678 C661 1.574 1_556 S
C678 H672 0.949 . S
C678 C682 1.381 . S
C679 C660 1.423 1_655 S
C679 C673 1.434 . S
C679 C680 1.523 . S
C680 C661 1.377 . S
C680 C674 1.360 1_654 S
C680 C679 1.523 . S
C681 C665 1.442 . S
C681 C677 1.416 1_655 S
C681 C682 1.523 . S
C682 C666 1.357 1_655 S
C682 C678 1.381 . S
C682 C681 1.523 . S
H683 C658 0.950 . S
H684 C660 0.950 . S
H685 C661 0.949 . S
H686 C663 0.950 . S
H687 C665 0.950 . S
C688 C689 1.349 1_655 S
C688 C690 1.327 . S
C688 H713 0.950 . S
C689 C688 1.349 1_455 S
C689 C705 1.349 . S
C690 C688 1.327 . S
C690 C709 1.429 . S
C690 H714 0.950 . S
C691 C708 1.572 1_455 S
C691 C710 1.362 1_455 S
C691 H715 0.956 . S
H692 C696 0.949 . S
C693 C694 1.349 . S
C693 C695 1.327 . S
C693 H716 0.950 . S
C694 C693 1.349 . S
C694 C706 1.349 . S
C695 C693 1.327 . S
C695 C711 1.429 . S
C695 H717 0.950 . S
C696 H692 0.949 . S
C696 C704 1.574 . S
C696 C712 1.368 . S
H697 C705 0.950 . S
H698 C703 0.950 . S
H699 C704 0.949 . S
H700 C706 0.950 . S
H701 C707 0.950 . S
H702 C708 0.949 1_455 S
C703 H698 0.950 . S
C703 C705 1.327 . S
C703 C709 1.429 1_455 S
C704 C696 1.574 . S
C704 H699 0.949 . S
C704 C710 1.368 . S
C705 C689 1.349 . S
C705 H697 0.950 . S
C705 C703 1.327 . S
C706 C694 1.349 . S
C706 H700 0.950 . S
C706 C707 1.327 . S
C707 H701 0.950 . S
C707 C706 1.327 . S
C707 C711 1.429 . S
C708 C691 1.572 1_655 S
C708 H702 0.949 1_655 S
C708 C712 1.368 . S
C709 C690 1.429 . S
C709 C703 1.429 1_655 S
C709 C710 1.523 . S
C710 C691 1.362 1_655 S
C710 C704 1.368 . S
C710 C709 1.523 . S
C711 C695 1.429 . S
C711 C707 1.429 . S
C711 C712 1.523 . S
C712 C696 1.368 . S
C712 C708 1.368 . S
C712 C711 1.523 . S
H713 C688 0.950 . S
H714 C690 0.950 . S
H715 C691 0.956 . S
H716 C693 0.950 . S
H717 C695 0.950 . S
C718 C719 1.349 . S
C718 C720 1.327 . S
C718 H743 0.950 . S
C719 C718 1.349 . S
C719 C735 1.349 . S
C720 C718 1.327 . S
C720 C739 1.429 . S
C720 H744 0.950 . S
C721 C738 1.574 . S
C721 C740 1.352 1_565 S
C721 H745 0.949 . S
H722 C726 0.954 . S
C723 C724 1.349 . S
C723 C725 1.327 . S
C723 H746 0.950 . S
C724 C723 1.349 . S
C724 C736 1.349 . S
C725 C723 1.327 . S
C725 C741 1.429 . S
C725 H747 0.950 . S
C726 H722 0.954 . S
C726 C734 1.574 1_565 S
C726 C742 1.368 . S
H727 C735 0.950 . S
H728 C733 0.948 . S
H729 C734 0.949 . S
H730 C736 0.950 . S
H731 C737 0.950 . S
H732 C738 0.949 . S
C733 H728 0.948 . S
C733 C735 1.327 . S
C733 C739 1.429 . S
C734 C726 1.574 1_545 S
C734 H729 0.949 . S
C734 C740 1.376 . S
C735 C719 1.349 . S
C735 H727 0.950 . S
C735 C733 1.327 . S
C736 C724 1.349 . S
C736 H730 0.950 . S
C736 C737 1.327 . S
C737 H731 0.950 . S
C737 C736 1.327 . S
C737 C741 1.429 . S
C738 C721 1.574 . S
C738 H732 0.949 . S
C738 C742 1.368 . S
C739 C720 1.429 . S
C739 C733 1.429 . S
C739 C740 1.536 . S
C740 C721 1.352 1_545 S
C740 C734 1.376 . S
C740 C739 1.536 . S
C741 C725 1.429 . S
C741 C737 1.429 . S
C741 C742 1.523 . S
C742 C726 1.368 . S
C742 C738 1.368 . S
C742 C741 1.523 . S
H743 C718 0.950 . S
H744 C720 0.950 . S
H745 C721 0.949 . S
H746 C723 0.950 . S
H747 C725 0.950 . S
C748 C749 1.349 . S
C748 C750 1.327 . S
C748 H773 0.950 . S
C749 C748 1.349 . S
C749 C765 1.349 . S
C750 C748 1.327 . S
C750 C769 1.429 . S
C750 H774 0.950 . S
C751 C768 1.574 . S
C751 C770 1.368 . S
C751 H775 0.949 . S
H752 C756 0.949 . S
C753 C754 1.349 . S
C753 C755 1.327 . S
C753 H776 0.950 . S
C754 C753 1.349 . S
C754 C766 1.349 . S
C755 C753 1.327 . S
C755 C771 1.429 . S
C755 H777 0.950 . S
C756 H752 0.949 . S
C756 C764 1.574 . S
C756 C772 1.368 . S
H757 C765 0.950 . S
H758 C763 0.950 . S
H759 C764 0.949 . S
H760 C766 0.950 . S
H761 C767 0.950 . S
H762 C768 0.949 . S
C763 H758 0.950 . S
C763 C765 1.327 . S
C763 C769 1.429 . S
C764 C756 1.574 . S
C764 H759 0.949 . S
C764 C770 1.368 . S
C765 C749 1.349 . S
C765 H757 0.950 . S
C765 C763 1.327 . S
C766 C754 1.349 . S
C766 H760 0.950 . S
C766 C767 1.327 . S
C767 H761 0.950 . S
C767 C766 1.327 . S
C767 C771 1.429 . S
C768 C751 1.574 . S
C768 H762 0.949 . S
C768 C772 1.368 . S
C769 C750 1.429 . S
C769 C763 1.429 . S
C769 C770 1.523 . S
C770 C751 1.368 . S
C770 C764 1.368 . S
C770 C769 1.523 . S
C771 C755 1.429 . S
C771 C767 1.429 . S
C771 C772 1.523 . S
C772 C756 1.368 . S
C772 C768 1.368 . S
C772 C771 1.523 . S
H773 C748 0.950 . S
H774 C750 0.950 . S
H775 C751 0.949 . S
H776 C753 0.950 . S
H777 C755 0.950 . S
C778 C779 1.349 . S
C778 C780 1.327 . S
C778 H803 0.950 . S
C779 C778 1.349 . S
C779 C795 1.349 . S
C780 C778 1.327 . S
C780 C799 1.429 . S
C780 H804 0.950 . S
C781 C798 1.574 . S
C781 C800 1.368 . S
C781 H805 0.949 . S
H782 C786 0.949 . S
C783 C784 1.349 . S
C783 C785 1.327 . S
C783 H806 0.950 . S
C784 C783 1.349 . S
C784 C796 1.349 . S
C785 C783 1.327 . S
C785 C801 1.429 . S
C785 H807 0.950 . S
C786 H782 0.949 . S
C786 C794 1.574 . S
C786 C802 1.368 . S
H787 C795 0.950 . S
H788 C793 0.950 . S
H789 C794 0.949 . S
H790 C796 0.950 . S
H791 C797 0.950 . S
H792 C798 0.949 . S
C793 H788 0.950 . S
C793 C795 1.327 . S
C793 C799 1.429 . S
C794 C786 1.574 . S
C794 H789 0.949 . S
C794 C800 1.368 . S
C795 C779 1.349 . S
C795 H787 0.950 . S
C795 C793 1.327 . S
C796 C784 1.349 . S
C796 H790 0.950 . S
C796 C797 1.327 . S
C797 H791 0.950 . S
C797 C796 1.327 . S
C797 C801 1.429 . S
C798 C781 1.574 . S
C798 H792 0.949 . S
C798 C802 1.368 . S
C799 C780 1.429 . S
C799 C793 1.429 . S
C799 C800 1.523 . S
C800 C781 1.368 . S
C800 C794 1.368 . S
C800 C799 1.523 . S
C801 C785 1.429 . S
C801 C797 1.429 . S
C801 C802 1.523 . S
C802 C786 1.368 . S
C802 C798 1.368 . S
C802 C801 1.523 . S
H803 C778 0.950 . S
H804 C780 0.950 . S
H805 C781 0.949 . S
H806 C783 0.950 . S
H807 C785 0.950 . S
C808 C809 1.349 . S
C808 C810 1.327 . S
C808 H833 0.950 . S
C809 C808 1.349 . S
C809 C825 1.349 1_655 S
C810 C808 1.327 . S
C810 C829 1.428 1_655 S
C810 H834 0.950 . S
C811 C828 1.574 . S
C811 C830 1.368 1_556 S
C811 H835 0.949 . S
H812 C816 0.949 . S
C813 C814 1.349 . S
C813 C815 1.327 . S
C813 H836 0.950 . S
C814 C813 1.349 . S
C814 C826 1.349 . S
C815 C813 1.327 . S
C815 C831 1.429 . S
C815 H837 0.950 . S
C816 H812 0.949 . S
C816 C824 1.574 . S
C816 C832 1.368 1_554 S
H817 C825 0.950 . S
H818 C823 0.950 1_556 S
H819 C824 0.949 . S
H820 C826 0.950 . S
H821 C827 0.950 . S
H822 C828 0.949 . S
C823 H818 0.950 1_554 S
C823 C825 1.327 . S
C823 C829 1.429 . S
C824 C816 1.574 . S
C824 H819 0.949 . S
C824 C830 1.368 . S
C825 C809 1.349 1_455 S
C825 H817 0.950 . S
C825 C823 1.327 . S
C826 C814 1.349 . S
C826 H820 0.950 . S
C826 C827 1.327 . S
C827 H821 0.950 . S
C827 C826 1.327 . S
C827 C831 1.429 . S
C828 C811 1.574 . S
C828 H822 0.949 . S
C828 C832 1.368 . S
C829 C810 1.428 1_455 S
C829 C823 1.429 . S
C829 C830 1.523 . S
C830 C811 1.368 1_554 S
C830 C824 1.368 . S
C830 C829 1.523 . S
C831 C815 1.429 . S
C831 C827 1.429 . S
C831 C832 1.523 . S
C832 C816 1.368 1_556 S
C832 C828 1.368 . S
C832 C831 1.523 . S
H833 C808 0.950 . S
H834 C810 0.950 . S
H835 C811 0.949 . S
H836 C813 0.950 . S
H837 C815 0.950 . S
C838 C839 1.349 . S
C838 C840 1.327 . S
C838 H863 0.950 . S
C839 C838 1.349 . S
C839 C855 1.349 1_565 S
C840 C838 1.327 . S
C840 C859 1.429 1_565 S
C840 H864 0.950 1_554 S
C841 C858 1.568 1_554 S
C841 C860 1.368 . S
C841 H865 0.949 . S
H842 C846 0.952 1_565 S
C843 C844 1.349 . S
C843 C845 1.327 . S
C843 H866 0.950 . S
C844 C843 1.349 . S
C844 C856 1.349 . S
C845 C843 1.327 . S
C845 C861 1.429 . S
C845 H867 0.950 . S
C846 H842 0.952 1_545 S
C846 C854 1.575 1_545 S
C846 C862 1.363 . S
H847 C855 0.950 . S
H848 C853 0.950 . S
H849 C854 0.949 . S
H850 C856 0.950 . S
H851 C857 0.931 1_565 S
H852 C858 0.946 1_554 S
C853 H848 0.950 . S
C853 C855 1.327 . S
C853 C859 1.429 . S
C854 C846 1.575 1_565 S
C854 H849 0.949 . S
C854 C860 1.368 1_566 S
C855 C839 1.349 1_545 S
C855 H847 0.950 . S
C855 C853 1.327 . S
C856 C844 1.349 . S
C856 H850 0.950 . S
C856 C857 1.327 . S
C857 H851 0.931 1_545 S
C857 C856 1.327 . S
C857 C861 1.429 . S
C858 C841 1.568 1_556 S
C858 H852 0.946 1_556 S
C858 C862 1.378 . S
C859 C840 1.429 1_545 S
C859 C853 1.429 . S
C859 C860 1.523 . S
C860 C841 1.368 . S
C860 C854 1.368 1_544 S
C860 C859 1.523 . S
C861 C845 1.429 . S
C861 C857 1.429 . S
C861 C862 1.523 . S
C862 C846 1.363 . S
C862 C858 1.378 . S
C862 C861 1.523 . S
H863 C838 0.950 . S
H864 C840 0.950 1_556 S
H865 C841 0.949 . S
H866 C843 0.950 . S
H867 C845 0.950 . S
C868 C869 1.349 . S
C868 C870 1.327 . S
C868 H893 0.950 . S
C869 C868 1.349 . S
C869 C885 1.349 . S
C870 C868 1.327 . S
C870 C889 1.429 . S
C870 H894 0.950 . S
C871 C888 1.574 . S
C871 C890 1.368 1_556 S
C871 H895 0.949 . S
H872 C876 0.949 . S
C873 C874 1.349 . S
C873 C875 1.327 . S
C873 H896 0.950 . S
C874 C873 1.349 . S
C874 C886 1.349 . S
C875 C873 1.327 . S
C875 C891 1.429 . S
C875 H897 0.950 . S
C876 H872 0.949 . S
C876 C884 1.574 1_556 S
C876 C892 1.368 . S
H877 C885 0.950 . S
H878 C883 0.950 . S
H879 C884 0.949 . S
H880 C886 0.950 . S
H881 C887 0.950 . S
H882 C888 0.949 . S
C883 H878 0.950 . S
C883 C885 1.327 . S
C883 C889 1.429 . S
C884 C876 1.574 1_554 S
C884 H879 0.949 . S
C884 C890 1.368 . S
C885 C869 1.349 . S
C885 H877 0.950 . S
C885 C883 1.327 . S
C886 C874 1.349 . S
C886 H880 0.950 . S
C886 C887 1.327 . S
C887 H881 0.950 . S
C887 C886 1.327 . S
C887 C891 1.429 . S
C888 C871 1.574 . S
C888 H882 0.949 . S
C888 C892 1.368 . S
C889 C870 1.429 . S
C889 C883 1.429 . S
C889 C890 1.523 . S
C890 C871 1.368 1_554 S
C890 C884 1.368 . S
C890 C889 1.523 . S
C891 C875 1.429 . S
C891 C887 1.429 . S
C891 C892 1.523 . S
C892 C876 1.368 . S
C892 C888 1.368 . S
C892 C891 1.523 . S
H893 C868 0.950 . S
H894 C870 0.950 . S
H895 C871 0.949 . S
H896 C873 0.950 . S
H897 C875 0.950 . S
C898 C899 1.349 . S
C898 C900 1.327 . S
C898 H923 0.950 . S
C899 C898 1.349 . S
C899 C915 1.349 . S
C900 C898 1.327 . S
C900 C919 1.429 . S
C900 H924 0.950 . S
C901 C918 1.574 . S
C901 C920 1.368 1_556 S
C901 H925 0.949 1_556 S
H902 C906 0.949 . S
C903 C904 1.349 . S
C903 C905 1.327 . S
C903 H926 0.950 . S
C904 C903 1.349 . S
C904 C916 1.349 . S
C905 C903 1.327 . S
C905 C921 1.429 . S
C905 H927 0.950 . S
C906 H902 0.949 . S
C906 C914 1.574 . S
C906 C922 1.368 . S
H907 C915 0.950 . S
H908 C913 0.950 . S
H909 C914 0.949 1_554 S
H910 C916 0.950 . S
H911 C917 0.950 . S
H912 C918 0.949 . S
C913 H908 0.950 . S
C913 C915 1.327 . S
C913 C919 1.429 . S
C914 C906 1.574 . S
C914 H909 0.949 1_556 S
C914 C920 1.368 1_556 S
C915 C899 1.349 . S
C915 H907 0.950 . S
C915 C913 1.327 . S
C916 C904 1.349 . S
C916 H910 0.950 . S
C916 C917 1.327 . S
C917 H911 0.950 . S
C917 C916 1.327 . S
C917 C921 1.429 . S
C918 C901 1.574 . S
C918 H912 0.949 . S
C918 C922 1.368 . S
C919 C900 1.429 . S
C919 C913 1.429 . S
C919 C920 1.523 . S
C920 C901 1.368 1_554 S
C920 C914 1.368 1_554 S
C920 C919 1.523 . S
C921 C905 1.429 . S
C921 C917 1.429 . S
C921 C922 1.523 . S
C922 C906 1.368 . S
C922 C918 1.368 . S
C922 C921 1.523 . S
H923 C898 0.950 . S
H924 C900 0.950 . S
H925 C901 0.949 1_554 S
H926 C903 0.950 . S
H927 C905 0.950 . S
C928 C929 1.349 1_655 S
C928 C930 1.327 . S
C928 H953 0.950 . S
C929 C928 1.349 1_455 S
C929 C945 1.349 . S
C930 C928 1.327 . S
C930 C949 1.429 1_655 S
C930 H954 0.950 . S
C931 C948 1.574 . S
C931 C950 1.368 . S
C931 H955 0.949 . S
H932 C936 0.949 . S
C933 C934 1.349 . S
C933 C935 1.327 . S
C933 H956 0.950 . S
C934 C933 1.349 . S
C934 C946 1.362 . S
C935 C933 1.327 . S
C935 C951 1.429 . S
C935 H957 0.950 . S
C936 H932 0.949 . S
C936 C944 1.574 . S
C936 C952 1.368 1_655 S
H937 C945 0.950 . S
H938 C943 0.950 . S
H939 C944 0.949 . S
H940 C946 0.939 1_655 S
H941 C947 0.960 . S
H942 C948 0.949 . S
C943 H938 0.950 . S
C943 C945 1.327 . S
C943 C949 1.429 . S
C944 C936 1.574 . S
C944 H939 0.949 . S
C944 C950 1.368 1_655 S
C945 C929 1.349 . S
C945 H937 0.950 . S
C945 C943 1.327 . S
C946 C934 1.362 . S
C946 H940 0.939 1_455 S
C946 C947 1.325 1_455 S
C947 H941 0.960 . S
C947 C946 1.325 1_655 S
C947 C951 1.420 1_655 S
C948 C931 1.574 . S
C948 H942 0.949 . S
C948 C952 1.368 . S
C949 C930 1.429 1_455 S
C949 C943 1.429 . S
C949 C950 1.523 . S
C950 C931 1.368 . S
C950 C944 1.368 1_455 S
C950 C949 1.523 . S
C951 C935 1.429 . S
C951 C947 1.420 1_455 S
C951 C952 1.523 . S
C952 C936 1.368 1_455 S
C952 C948 1.368 . S
C952 C951 1.523 . S
H953 C928 0.950 . S
H954 C930 0.950 . S
H955 C931 0.949 . S
H956 C933 0.950 . S
H957 C935 0.950 . S
C958 C959 1.349 . S
C958 C960 1.327 . S
C958 H983 0.950 1_545 S
C959 C958 1.349 . S
C959 C975 1.349 . S
C960 C958 1.327 . S
C960 C979 1.429 . S
C960 H984 0.950 1_545 S
C961 C978 1.574 . S
C961 C980 1.368 . S
C961 H985 0.949 . S
H962 C966 0.949 1_565 S
C963 C964 1.349 . S
C963 C965 1.327 . S
C963 H986 0.950 . S
C964 C963 1.349 . S
C964 C976 1.349 . S
C965 C963 1.327 . S
C965 C981 1.429 . S
C965 H987 0.950 . S
C966 H962 0.949 1_545 S
C966 C974 1.574 . S
C966 C982 1.368 . S
H967 C975 0.950 . S
H968 C973 0.950 . S
H969 C974 0.949 1_565 S
H970 C976 0.940 1_565 S
H971 C977 0.950 1_565 S
H972 C978 0.949 . S
C973 H968 0.950 . S
C973 C975 1.327 . S
C973 C979 1.429 . S
C974 C966 1.574 . S
C974 H969 0.949 1_545 S
C974 C980 1.368 . S
C975 C959 1.349 . S
C975 H967 0.950 . S
C975 C973 1.327 . S
C976 C964 1.349 . S
C976 H970 0.940 1_545 S
C976 C977 1.327 . S
C977 H971 0.950 1_545 S
C977 C976 1.327 . S
C977 C981 1.429 . S
C978 C961 1.574 . S
C978 H972 0.949 . S
C978 C982 1.368 . S
C979 C960 1.429 . S
C979 C973 1.429 . S
C979 C980 1.523 . S
C980 C961 1.368 . S
C980 C974 1.368 . S
C980 C979 1.523 . S
C981 C965 1.429 . S
C981 C977 1.429 . S
C981 C982 1.523 . S
C982 C966 1.368 . S
C982 C978 1.368 . S
C982 C981 1.523 . S
H983 C958 0.950 1_565 S
H984 C960 0.950 1_565 S
H985 C961 0.949 . S
H986 C963 0.950 . S
H987 C965 0.950 . S
C988 C989 1.349 . S
C988 C990 1.327 . S
C988 H1013 0.950 . S
C989 C988 1.349 . S
C989 C1005 1.349 . S
C990 C988 1.327 . S
C990 C1009 1.429 . S
C990 H1014 0.950 . S
C991 C1008 1.574 . S
C991 C1010 1.368 . S
C991 H1015 0.949 . S
H992 C996 0.949 . S
C993 C994 1.349 . S
C993 C995 1.327 . S
C993 H1016 0.950 . S
C994 C993 1.349 . S
C994 C1006 1.349 . S
C995 C993 1.327 . S
C995 C1011 1.429 . S
C995 H1017 0.950 . S
C996 H992 0.949 . S
C996 C1004 1.574 . S
C996 C1012 1.368 . S
H997 C1005 0.950 . S
H998 C1003 0.950 . S
H999 C1004 0.949 . S
H1000 C1006 0.950 . S
H1001 C1007 0.950 . S
H1002 C1008 0.949 . S
C1003 H998 0.950 . S
C1003 C1005 1.327 . S
C1003 C1009 1.429 . S
C1004 C996 1.574 . S
C1004 H999 0.949 . S
C1004 C1010 1.368 . S
C1005 C989 1.349 . S
C1005 H997 0.950 . S
C1005 C1003 1.327 . S
C1006 C994 1.349 . S
C1006 H1000 0.950 . S
C1006 C1007 1.327 . S
C1007 H1001 0.950 . S
C1007 C1006 1.327 . S
C1007 C1011 1.429 . S
C1008 C991 1.574 . S
C1008 H1002 0.949 . S
C1008 C1012 1.368 . S
C1009 C990 1.429 . S
C1009 C1003 1.429 . S
C1009 C1010 1.523 . S
C1010 C991 1.368 . S
C1010 C1004 1.368 . S
C1010 C1009 1.523 . S
C1011 C995 1.429 . S
C1011 C1007 1.429 . S
C1011 C1012 1.523 . S
C1012 C996 1.368 . S
C1012 C1008 1.368 . S
C1012 C1011 1.523 . S
H1013 C988 0.950 . S
H1014 C990 0.950 . S
H1015 C991 0.949 . S
H1016 C993 0.950 . S
H1017 C995 0.950 . S
C1018 C1019 1.349 . S
C1018 C1020 1.327 . S
C1018 H1043 0.950 . S
C1019 C1018 1.349 . S
C1019 C1035 1.349 . S
C1020 C1018 1.327 . S
C1020 C1039 1.429 . S
C1020 H1044 0.950 . S
C1021 C1038 1.574 . S
C1021 C1040 1.368 . S
C1021 H1045 0.949 . S
H1022 C1026 0.949 . S
C1023 C1024 1.349 . S
C1023 C1025 1.327 . S
C1023 H1046 0.950 . S
C1024 C1023 1.349 . S
C1024 C1036 1.349 . S
C1025 C1023 1.327 . S
C1025 C1041 1.429 . S
C1025 H1047 0.950 . S
C1026 H1022 0.949 . S
C1026 C1034 1.574 . S
C1026 C1042 1.368 . S
H1027 C1035 0.950 . S
H1028 C1033 0.950 . S
H1029 C1034 0.949 . S
H1030 C1036 0.950 . S
H1031 C1037 0.950 . S
H1032 C1038 0.949 . S
C1033 H1028 0.950 . S
C1033 C1035 1.327 . S
C1033 C1039 1.429 . S
C1034 C1026 1.574 . S
C1034 H1029 0.949 . S
C1034 C1040 1.368 . S
C1035 C1019 1.349 . S
C1035 H1027 0.950 . S
C1035 C1033 1.327 . S
C1036 C1024 1.349 . S
C1036 H1030 0.950 . S
C1036 C1037 1.327 . S
C1037 H1031 0.950 . S
C1037 C1036 1.327 . S
C1037 C1041 1.429 . S
C1038 C1021 1.574 . S
C1038 H1032 0.949 . S
C1038 C1042 1.368 . S
C1039 C1020 1.429 . S
C1039 C1033 1.429 . S
C1039 C1040 1.523 . S
C1040 C1021 1.368 . S
C1040 C1034 1.368 . S
C1040 C1039 1.523 . S
C1041 C1025 1.429 . S
C1041 C1037 1.429 . S
C1041 C1042 1.523 . S
C1042 C1026 1.368 . S
C1042 C1038 1.368 . S
C1042 C1041 1.523 . S
H1043 C1018 0.950 . S
H1044 C1020 0.950 . S
H1045 C1021 0.949 . S
H1046 C1023 0.950 . S
H1047 C1025 0.950 . S
C1048 C1049 1.349 . S
C1048 C1050 1.327 . S
C1048 H1073 0.950 . S
C1049 C1048 1.349 . S
C1049 C1065 1.349 1_655 S
C1050 C1048 1.327 . S
C1050 C1069 1.429 . S
C1050 H1074 0.950 . S
C1051 C1068 1.574 . S
C1051 C1070 1.368 1_455 S
C1051 H1075 0.949 . S
H1052 C1056 0.949 . S
C1053 C1054 1.349 1_455 S
C1053 C1055 1.327 . S
C1053 H1076 0.950 . S
C1054 C1053 1.349 1_655 S
C1054 C1066 1.349 . S
C1055 C1053 1.327 . S
C1055 C1071 1.429 1_455 S
C1055 H1077 0.950 . S
C1056 H1052 0.949 . S
C1056 C1064 1.574 . S
C1056 C1072 1.368 . S
H1057 C1065 0.950 . S
H1058 C1063 0.950 . S
H1059 C1064 0.949 . S
H1060 C1066 0.950 . S
H1061 C1067 0.950 . S
H1062 C1068 0.949 . S
C1063 H1058 0.950 . S
C1063 C1065 1.327 . S
C1063 C1069 1.429 1_455 S
C1064 C1056 1.574 . S
C1064 H1059 0.949 . S
C1064 C1070 1.368 . S
C1065 C1049 1.349 1_455 S
C1065 H1057 0.950 . S
C1065 C1063 1.327 . S
C1066 C1054 1.349 . S
C1066 H1060 0.950 . S
C1066 C1067 1.327 . S
C1067 H1061 0.950 . S
C1067 C1066 1.327 . S
C1067 C1071 1.429 . S
C1068 C1051 1.574 . S
C1068 H1062 0.949 . S
C1068 C1072 1.368 1_455 S
C1069 C1050 1.429 . S
C1069 C1063 1.429 1_655 S
C1069 C1070 1.523 . S
C1070 C1051 1.368 1_655 S
C1070 C1064 1.368 . S
C1070 C1069 1.523 . S
C1071 C1055 1.429 1_655 S
C1071 C1067 1.429 . S
C1071 C1072 1.523 . S
C1072 C1056 1.368 . S
C1072 C1068 1.368 1_655 S
C1072 C1071 1.523 . S
H1073 C1048 0.950 . S
H1074 C1050 0.950 . S
H1075 C1051 0.949 . S
H1076 C1053 0.950 . S
H1077 C1055 0.950 . S
C1078 C1079 1.349 . S
C1078 C1080 1.327 . S
C1078 H1103 0.950 . S
C1079 C1078 1.349 . S
C1079 C1095 1.349 1_565 S
C1080 C1078 1.327 . S
C1080 C1099 1.429 . S
C1080 H1104 0.950 . S
C1081 C1098 1.574 . S
C1081 C1100 1.368 1_545 S
C1081 H1105 0.949 . S
H1082 C1086 0.949 . S
C1083 C1084 1.349 1_545 S
C1083 C1085 1.327 . S
C1083 H1106 0.950 . S
C1084 C1083 1.349 1_565 S
C1084 C1096 1.349 . S
C1085 C1083 1.327 . S
C1085 C1101 1.429 1_545 S
C1085 H1107 0.950 . S
C1086 H1082 0.949 . S
C1086 C1094 1.574 . S
C1086 C1102 1.368 . S
H1087 C1095 0.950 . S
H1088 C1093 0.950 . S
H1089 C1094 0.949 . S
H1090 C1096 0.950 . S
H1091 C1097 0.950 . S
H1092 C1098 0.949 . S
C1093 H1088 0.950 . S
C1093 C1095 1.327 . S
C1093 C1099 1.429 1_545 S
C1094 C1086 1.574 . S
C1094 H1089 0.949 . S
C1094 C1100 1.368 . S
C1095 C1079 1.349 1_545 S
C1095 H1087 0.950 . S
C1095 C1093 1.327 . S
C1096 C1084 1.349 . S
C1096 H1090 0.950 . S
C1096 C1097 1.327 . S
C1097 H1091 0.950 . S
C1097 C1096 1.327 . S
C1097 C1101 1.429 . S
C1098 C1081 1.574 . S
C1098 H1092 0.949 . S
C1098 C1102 1.368 1_545 S
C1099 C1080 1.429 . S
C1099 C1093 1.429 1_565 S
C1099 C1100 1.523 . S
C1100 C1081 1.368 1_565 S
C1100 C1094 1.368 . S
C1100 C1099 1.523 . S
C1101 C1085 1.429 1_565 S
C1101 C1097 1.429 . S
C1101 C1102 1.523 . S
C1102 C1086 1.368 . S
C1102 C1098 1.368 1_565 S
C1102 C1101 1.523 . S
H1103 C1078 0.950 . S
H1104 C1080 0.950 . S
H1105 C1081 0.949 . S
H1106 C1083 0.950 . S
H1107 C1085 0.950 . S
C1108 C1109 1.349 . S
C1108 C1110 1.327 . S
C1108 H1133 0.950 . S
C1109 C1108 1.349 . S
C1109 C1125 1.349 . S
C1110 C1108 1.327 . S
C1110 C1129 1.429 . S
C1110 H1134 0.950 . S
C1111 C1128 1.574 . S
C1111 C1130 1.368 . S
C1111 H1135 0.949 . S
H1112 C1116 0.949 . S
C1113 C1114 1.349 . S
C1113 C1115 1.327 . S
C1113 H1136 0.950 . S
C1114 C1113 1.349 . S
C1114 C1126 1.349 . S
C1115 C1113 1.327 . S
C1115 C1131 1.429 . S
C1115 H1137 0.950 . S
C1116 H1112 0.949 . S
C1116 C1124 1.574 . S
C1116 C1132 1.368 . S
H1117 C1125 0.950 . S
H1118 C1123 0.950 . S
H1119 C1124 0.949 . S
H1120 C1126 0.950 . S
H1121 C1127 0.950 . S
H1122 C1128 0.949 . S
C1123 H1118 0.950 . S
C1123 C1125 1.327 . S
C1123 C1129 1.429 . S
C1124 C1116 1.574 . S
C1124 H1119 0.949 . S
C1124 C1130 1.368 . S
C1125 C1109 1.349 . S
C1125 H1117 0.950 . S
C1125 C1123 1.327 . S
C1126 C1114 1.349 . S
C1126 H1120 0.950 . S
C1126 C1127 1.327 . S
C1127 H1121 0.950 . S
C1127 C1126 1.327 . S
C1127 C1131 1.429 . S
C1128 C1111 1.574 . S
C1128 H1122 0.949 . S
C1128 C1132 1.368 . S
C1129 C1110 1.429 . S
C1129 C1123 1.429 . S
C1129 C1130 1.523 . S
C1130 C1111 1.368 . S
C1130 C1124 1.368 . S
C1130 C1129 1.523 . S
C1131 C1115 1.429 . S
C1131 C1127 1.429 . S
C1131 C1132 1.523 . S
C1132 C1116 1.368 . S
C1132 C1128 1.368 . S
C1132 C1131 1.523 . S
H1133 C1108 0.950 . S
H1134 C1110 0.950 . S
H1135 C1111 0.949 . S
H1136 C1113 0.950 . S
H1137 C1115 0.950 . S
C1138 C1139 1.349 . S
C1138 C1140 1.327 . S
C1138 H1163 0.950 . S
C1139 C1138 1.349 . S
C1139 C1155 1.349 . S
C1140 C1138 1.327 . S
C1140 C1159 1.429 . S
C1140 H1164 0.950 . S
C1141 C1158 1.574 . S
C1141 C1160 1.368 . S
C1141 H1165 0.949 . S
H1142 C1146 0.949 . S
C1143 C1144 1.349 . S
C1143 C1145 1.327 . S
C1143 H1166 0.950 . S
C1144 C1143 1.349 . S
C1144 C1156 1.349 . S
C1145 C1143 1.327 . S
C1145 C1161 1.429 . S
C1145 H1167 0.950 . S
C1146 H1142 0.949 . S
C1146 C1154 1.574 . S
C1146 C1162 1.368 . S
H1147 C1155 0.950 . S
H1148 C1153 0.950 . S
H1149 C1154 0.949 . S
H1150 C1156 0.950 . S
H1151 C1157 0.950 . S
H1152 C1158 0.949 . S
C1153 H1148 0.950 . S
C1153 C1155 1.327 . S
C1153 C1159 1.429 . S
C1154 C1146 1.574 . S
C1154 H1149 0.949 . S
C1154 C1160 1.368 . S
C1155 C1139 1.349 . S
C1155 H1147 0.950 . S
C1155 C1153 1.327 . S
C1156 C1144 1.349 . S
C1156 H1150 0.950 . S
C1156 C1157 1.327 . S
C1157 H1151 0.950 . S
C1157 C1156 1.327 . S
C1157 C1161 1.429 . S
C1158 C1141 1.574 . S
C1158 H1152 0.949 . S
C1158 C1162 1.368 . S
C1159 C1140 1.429 . S
C1159 C1153 1.429 . S
C1159 C1160 1.523 . S
C1160 C1141 1.368 . S
C1160 C1154 1.368 . S
C1160 C1159 1.523 . S
C1161 C1145 1.429 . S
C1161 C1157 1.429 . S
C1161 C1162 1.523 . S
C1162 C1146 1.368 . S
C1162 C1158 1.368 . S
C1162 C1161 1.523 . S
H1163 C1138 0.950 . S
H1164 C1140 0.950 . S
H1165 C1141 0.949 . S
H1166 C1143 0.950 . S
H1167 C1145 0.950 . S
C449 C241 1.863 . S
C454 C298 2.006 . S
C484 C338 2.020 . S
C479 C277 1.918 . S
C514 C378 2.010 . S
C509 C169 1.863 . S
C544 C418 2.013 1_455 S
C539 C205 1.868 . S
C574 C307 2.015 . S
C569 C97 1.863 . S
C599 C133 1.916 . S
C604 C347 2.020 . S
C629 C25 1.860 . S
C634 C387 2.012 . S
C659 C61 1.868 1_655 S
C664 C427 2.014 1_655 S
C694 C304 0.268 . S
C689 C211 0.273 . S
C724 C344 0.280 . S
C719 C247 0.281 . S
C754 C384 0.264 . S
C749 C253 0.281 . S
C779 C175 0.280 . S
C784 C424 0.278 . S
C809 C67 0.354 1_655 S
C814 C295 0.255 . S
C844 C335 0.280 . S
C839 C103 0.371 . S
C874 C375 0.264 . S
C869 C109 0.201 . S
C899 C31 0.371 . S
C904 C415 0.285 . S
C929 C181 2.546 . S
C934 C299 2.828 . S
C959 C217 2.532 . S
C964 C339 2.812 . S
C994 C379 2.822 . S
C989 C283 2.477 . S
C1024 C419 2.819 . S
C1019 C145 2.532 . S
C1049 C37 2.548 1_655 S
C1054 C290 2.829 . S
C1084 C330 2.811 . S
C1079 C73 2.532 . S
C1114 C370 2.822 . S
C1109 C139 2.468 . S
C1139 C1 2.541 . S
C1144 C410 2.828 . S
