# Generated by pormake.
# Topology rtl, (3,6)-cn, num edge types: 1
# Building blocks:
#     Node 0, Type 0, BuildingBlock: CUQRIR_clean_linker_1, # of connection points: 3
#     Node 1, Type 0, BuildingBlock: CUQRIR_clean_linker_1, # of connection points: 3
#     Node 2, Type 0, BuildingBlock: CUQRIR_clean_linker_1, # of connection points: 3
#     Node 3, Type 0, BuildingBlock: CUQRIR_clean_linker_1, # of connection points: 3
#     Node 4, Type 1, BuildingBlock: KUMBUR_clean_sbu_1, # of connection points: 6
#     Node 5, Type 1, BuildingBlock: KUMBUR_clean_sbu_1, # of connection points: 6
#     Edge 6, Type (0, 1), BuildingBlock: XUDNAN_clean_linker_2, # of connection points: 2
#     Edge 7, Type (0, 1), BuildingBlock: XUDNAN_clean_linker_2, # of connection points: 2
#     Edge 8, Type (0, 1), BuildingBlock: XUDNAN_clean_linker_2, # of connection points: 2
#     Edge 9, Type (0, 1), BuildingBlock: XUDNAN_clean_linker_2, # of connection points: 2
#     Edge 10, Type (0, 1), BuildingBlock: XUDNAN_clean_linker_2, # of connection points: 2
#     Edge 11, Type (0, 1), BuildingBlock: XUDNAN_clean_linker_2, # of connection points: 2
#     Edge 12, Type (0, 1), BuildingBlock: XUDNAN_clean_linker_2, # of connection points: 2
#     Edge 13, Type (0, 1), BuildingBlock: XUDNAN_clean_linker_2, # of connection points: 2
#     Edge 14, Type (0, 1), BuildingBlock: XUDNAN_clean_linker_2, # of connection points: 2
#     Edge 15, Type (0, 1), BuildingBlock: XUDNAN_clean_linker_2, # of connection points: 2
#     Edge 16, Type (0, 1), BuildingBlock: XUDNAN_clean_linker_2, # of connection points: 2
#     Edge 17, Type (0, 1), BuildingBlock: XUDNAN_clean_linker_2, # of connection points: 2
# Relax obj value: 0.064
# Max RMSD: 0.226
# Mean RMSD: 0.176
data_MOF--net-rtl--node1-KUMBUR_clean_sbu_1--node2-CUQRIR_clean_linker_1--edge1-XUDNAN_clean_linker_2
_symmetry_space_group_name_H-M    P1
_symmetry_Int_Tables_number       1
_symmetry_cell_setting            triclinic
loop_
_symmetry_equiv_pos_as_xyz
'x, y, z'
_cell_length_a     32.800846
_cell_length_b     33.042632
_cell_length_c     24.593579
_cell_angle_alpha  76.228896
_cell_angle_beta   98.28246
_cell_angle_gamma 91.617993
loop_
_atom_site_label
_atom_site_type_symbol
_atom_site_fract_x
_atom_site_fract_y
_atom_site_fract_z
_atom_type_partial_charge
C0 C 0.23317 0.79326 0.99518 0.0
N1 N 0.20799 0.81823 1.01178 0.0
N2 N 0.2672 0.78306 0.03395 0.0
C3 C 0.22546 0.7805 0.93976 0.0
C4 C 0.26184 0.80286 0.07481 0.0
N5 N 0.22595 0.82473 0.06086 0.0
C6 C 0.29211 0.802 0.12722 0.0
H7 H 0.19223 0.77507 0.92785 0.0
H8 H 0.24283 0.75175 0.94171 0.0
H9 H 0.23543 0.80603 0.90617 0.0
H10 H 0.31188 0.83 0.11952 0.0
H11 H 0.31239 0.77417 0.1385 0.0
H12 H 0.27568 0.80272 0.16339 0.0
C13 C 0.73144 0.73522 0.69815 0.0
N14 N 0.69825 0.71168 0.686 0.0
N15 N 0.74817 0.75256 0.65063 0.0
C16 C 0.74836 0.73991 0.75644 0.0
C17 C 0.72375 0.73903 0.6094 0.0
N18 N 0.69338 0.71454 0.6306 0.0
C19 C 0.73039 0.74834 0.54835 0.0
H20 H 0.76761 0.76813 0.75497 0.0
H21 H 0.76784 0.71236 0.77861 0.0
H22 H 0.72293 0.74138 0.78119 0.0
H23 H 0.74897 0.72283 0.54171 0.0
H24 H 0.74697 0.77818 0.5365 0.0
H25 H 0.70051 0.74993 0.52028 0.0
C26 C 0.80602 0.22759 0.14677 0.0
N27 N 0.82912 0.19772 0.13602 0.0
N28 N 0.78337 0.24895 0.09848 0.0
C29 C 0.8062 0.23641 0.20415 0.0
C30 C 0.79317 0.23075 0.05815 0.0
N31 N 0.82062 0.19937 0.08104 0.0
C32 C 0.77695 0.24421 0.99605 0.0
H33 H 0.77777 0.25259 0.20693 0.0
H34 H 0.83266 0.25684 0.21232 0.0
H35 H 0.80971 0.20708 0.23769 0.0
H36 H 0.80311 0.25321 0.97172 0.0
H37 H 0.75478 0.27048 0.98638 0.0
H38 H 0.76111 0.21776 0.98163 0.0
C39 C 0.30159 0.29287 0.43512 0.0
N40 N 0.32398 0.32785 0.43689 0.0
N41 N 0.28613 0.27811 0.48441 0.0
C42 C 0.29498 0.27311 0.38548 0.0
C43 C 0.29976 0.30564 0.51585 0.0
N44 N 0.32285 0.33563 0.48729 0.0
C45 C 0.28786 0.30534 0.5729 0.0
H46 H 0.26642 0.28618 0.3576 0.0
H47 H 0.29138 0.23889 0.39971 0.0
H48 H 0.32094 0.27977 0.36042 0.0
H49 H 0.31113 0.28726 0.60648 0.0
H50 H 0.25725 0.29083 0.57756 0.0
H51 H 0.28698 0.33749 0.57906 0.0
Tb52 Tb 0.06289 0.96897 0.54348 0.0
C53 C 0.96756 0.13451 0.55151 0.0
N54 N 1.00066 0.11395 0.58532 0.0
C55 C 0.03389 0.17902 0.58925 0.0
C56 C 0.96624 0.17839 0.53533 0.0
C57 C 0.03353 0.13546 0.60482 0.0
C58 C 1.0001 0.2006 0.55439 0.0
C59 C 0.90009 0.1314 0.49742 0.0
C60 C 0.93499 0.11137 0.53268 0.0
C61 C 0.89818 0.17514 0.48216 0.0
C62 C 0.93128 0.19858 0.50079 0.0
Tb63 Tb 0.99602 0.04308 0.60845 0.0
N64 N 0.93821 0.0691 0.54771 0.0
C65 C 0.8683 0.10687 0.47832 0.0
C66 C 0.90684 0.04499 0.5302 0.0
C67 C 0.8717 0.06349 0.49484 0.0
H68 H 0.05915 0.11913 0.63341 0.0
H69 H 0.84713 0.04426 0.48062 0.0
H70 H 0.03464 0.87178 0.59679 0.0
H71 H 0.21488 0.03811 0.56102 0.0
H72 H 0.90857 0.01155 0.54323 0.0
H73 H 0.84102 0.12107 0.45094 0.0
H74 H 0.14496 0.02922 0.51408 0.0
H75 H 0.06004 0.19593 0.60465 0.0
H76 H 0.87153 0.19113 0.45527 0.0
H77 H 0.92959 0.23228 0.48807 0.0
H78 H 0.0609 0.81248 0.67521 0.0
H79 H 1.00036 0.23435 0.54272 0.0
H80 H 0.24183 0.98932 0.65126 0.0
N81 N 0.08567 0.91071 0.6119 0.0
C82 C 0.12328 0.91359 0.64206 0.0
C83 C 0.07869 0.84078 0.66642 0.0
C84 C 0.13949 0.88059 0.68709 0.0
C85 C 0.064 0.87425 0.62188 0.0
C86 C 0.11635 0.84417 0.69968 0.0
N87 N 0.12964 0.97957 0.58107 0.0
C88 C 0.15527 0.00895 0.55494 0.0
C89 C 0.18626 0.95237 0.65393 0.0
C90 C 0.14579 0.94947 0.62653 0.0
C91 C 0.21056 0.98596 0.63161 0.0
C92 C 0.19546 0.01357 0.58076 0.0
H93 H 0.12766 0.8182 0.73416 0.0
H94 H 0.19141 0.85985 0.75227 0.0
H95 H 0.23275 0.92244 0.72254 0.0
O96 O 0.09456 0.97411 0.47327 0.0
O97 O 0.04802 0.95059 0.6303 0.0
O98 O 0.05194 0.01188 0.65713 0.0
O99 O 0.0628 0.91837 0.50527 0.0
O100 O 0.07426 0.03689 0.52652 0.0
O101 O 0.0623 0.05052 0.60975 0.0
O102 O 0.95926 0.01511 0.67045 0.0
O103 O 0.99298 0.05879 0.51578 0.0
O104 O 1.00925 0.99957 0.48677 0.0
O105 O 0.98924 0.07343 0.67287 0.0
O106 O 0.97025 0.98083 0.60631 0.0
O107 O 0.99786 0.95199 0.54087 0.0
C108 C 0.05483 0.97134 0.66976 0.0
C109 C 0.06492 0.93681 0.40733 0.0
C110 C 0.07444 0.92941 0.31347 0.0
C111 C 0.03161 0.93364 0.29678 0.0
C112 C 0.02227 0.94076 0.38996 0.0
C113 C 1.00578 0.93939 0.33484 0.0
C114 C 0.09086 0.93129 0.36898 0.0
C115 C 0.07949 0.06029 0.56347 0.0
C116 C 0.08278 0.93796 0.46534 0.0
C117 C 0.17855 0.88467 0.71714 0.0
C118 C 0.20198 0.92043 0.70043 0.0
C119 C 0.99163 0.03636 0.47783 0.0
C120 C 0.92601 0.06269 0.70839 0.0
C121 C 0.89111 0.09025 0.77366 0.0
C122 C 0.8556 0.09712 0.73285 0.0
C123 C 0.89005 0.06931 0.66892 0.0
C124 C 0.92636 0.07298 0.76076 0.0
C125 C 0.85512 0.08652 0.68111 0.0
C126 C 0.97046 0.95321 0.57507 0.0
C127 C 0.96367 0.04598 0.69534 0.0
H128 H 0.01813 0.93275 0.25421 0.0
H129 H 1.00176 0.9445 0.41916 0.0
H130 H 0.97286 0.94261 0.32165 0.0
H131 H 0.12374 0.92758 0.38282 0.0
H132 H 0.82825 0.11131 0.7404 0.0
H133 H 0.88889 0.0613 0.6287 0.0
H134 H 0.95404 0.0672 0.79146 0.0
H135 H 0.82761 0.09192 0.65017 0.0
Tb136 Tb 0.48125 0.48332 1.01278 0.0
C137 C 0.62259 0.60055 0.08084 0.0
N138 N 0.61798 0.55879 0.09835 0.0
C139 C 0.68833 0.54787 0.0893 0.0
C140 C 0.65985 0.61771 0.06406 0.0
C141 C 0.65055 0.5324 0.10515 0.0
C142 C 0.6929 0.5907 0.06818 0.0
C143 C 0.59406 0.66958 0.06651 0.0
C144 C 0.59028 0.62591 0.08239 0.0
C145 C 0.63023 0.68705 0.04646 0.0
C146 C 0.66316 0.66115 0.04546 0.0
Tb147 Tb 0.55558 0.53626 0.12304 0.0
N148 N 0.55643 0.6077 0.10349 0.0
C149 C 0.56209 0.69425 0.07339 0.0
C150 C 0.52692 0.63168 0.1149 0.0
C151 C 0.52871 0.67518 0.09864 0.0
H152 H 0.64725 0.49946 0.12268 0.0
H153 H 0.50464 0.69397 0.10637 0.0
H154 H 0.39836 0.54753 0.9786 0.0
H155 H 0.49566 0.31911 0.10955 0.0
H156 H 0.50198 0.6175 0.13689 0.0
H157 H 0.56368 0.72795 0.06156 0.0
H158 H 0.51826 0.38768 0.05691 0.0
H159 H 0.71395 0.52682 0.09378 0.0
H160 H 0.63356 0.72055 0.03347 0.0
H161 H 0.69134 0.67503 0.03157 0.0
H162 H 0.32904 0.5468 1.00513 0.0
H163 H 0.7223 0.60265 0.05644 0.0
H164 H 0.42674 0.31214 0.14073 0.0
N165 N 0.41419 0.48631 0.02865 0.0
C166 C 0.39926 0.45016 0.05825 0.0
C167 C 0.3487 0.51955 1.02107 0.0
C168 C 0.35903 0.44787 0.07265 0.0
C169 C 0.38865 0.52012 1.00726 0.0
C170 C 0.33402 0.48348 0.05464 0.0
N171 N 0.4631 0.41881 0.05992 0.0
C172 C 0.48815 0.38467 0.07038 0.0
C173 C 0.41015 0.37684 0.1038 0.0
C174 C 0.42428 0.41507 0.07356 0.0
C175 C 0.43642 0.3421 0.11741 0.0
C176 C 0.4754 0.34593 0.10003 0.0
H177 H 0.30299 0.4831 0.06504 0.0
H178 H 0.31436 0.40787 0.11602 0.0
H179 H 0.35909 0.34564 0.14314 0.0
O180 O 0.49966 0.45262 0.95452 0.0
O181 O 0.49264 0.4573 0.1054 0.0
O182 O 0.49504 0.51405 0.14264 0.0
O183 O 0.44019 0.48124 0.93897 0.0
O184 O 0.54638 0.46694 0.02556 0.0
O185 O 0.57063 0.47298 0.11699 0.0
O186 O 0.57459 0.55857 0.19702 0.0
O187 O 0.57302 0.54301 0.03766 0.0
O188 O 0.51136 0.54225 0.97869 0.0
O189 O 0.57888 0.49279 0.19741 0.0
O190 O 0.49097 0.55747 0.09796 0.0
O191 O 0.47011 0.54989 1.00671 0.0
C192 C 0.48209 0.47628 0.14248 0.0
C193 C 0.47318 0.48214 0.85957 0.0
C194 C 0.45784 0.48669 0.75794 0.0
C195 C 0.48506 0.52044 0.74819 0.0
C196 C 0.50079 0.51532 0.84871 0.0
C197 C 0.50654 0.53444 0.79337 0.0
C198 C 0.45205 0.46752 0.81402 0.0
C199 C 0.57302 0.45829 0.07215 0.0
C200 C 0.46657 0.4628 0.91823 0.0
C201 C 0.34501 0.4101 0.10404 0.0
C202 C 0.37047 0.37464 0.11946 0.0
C203 C 0.54981 0.55463 0.98819 0.0
C204 C 0.60173 0.51082 0.28721 0.0
C205 C 0.61836 0.52995 0.37832 0.0
C206 C 0.63068 0.48845 0.40358 0.0
C207 C 0.61463 0.4698 0.31369 0.0
C208 C 0.60386 0.54091 0.3197 0.0
C209 C 0.629 0.45881 0.37141 0.0
C210 C 0.47031 0.5703 0.04687 0.0
C211 C 0.58453 0.52112 0.22648 0.0
H212 H 0.49024 0.53553 0.70558 0.0
H213 H 0.5181 0.52624 0.88307 0.0
H214 H 0.52787 0.56007 0.78551 0.0
H215 H 0.43086 0.44171 0.82211 0.0
H216 H 0.64107 0.47859 0.44857 0.0
H217 H 0.61326 0.44597 0.28992 0.0
H218 H 0.59429 0.57267 0.29939 0.0
H219 H 0.63851 0.42701 0.39145 0.0
H220 H 0.21647 0.2524 0.42657 0.0
H221 H 0.30242 0.21944 0.58165 0.0
H222 H 0.25766 0.16125 0.61916 0.0
H223 H 0.12377 0.22801 0.48418 0.0
H224 H 0.0987 0.20451 0.42924 0.0
H225 H 0.13725 0.24385 0.41367 0.0
H226 H 0.1791 0.19331 0.37655 0.0
H227 H 0.14027 0.15409 0.39124 0.0
H228 H 0.19332 0.14261 0.4212 0.0
H229 H 0.20004 0.11287 0.64425 0.0
H230 H 0.1397 0.0664 0.64862 0.0
H231 H 0.09536 0.1225 0.47264 0.0
C232 C 0.22621 0.23233 0.46784 0.0
C233 C 0.26247 0.24093 0.50188 0.0
C234 C 0.27417 0.21404 0.55574 0.0
C235 C 0.24905 0.18088 0.57725 0.0
C236 C 0.21285 0.17408 0.5436 0.0
C237 C 0.20198 0.19811 0.48938 0.0
C238 C 0.162 0.1828 0.46164 0.0
C239 C 0.12846 0.21683 0.44628 0.0
C240 C 0.16911 0.16727 0.40957 0.0
C241 C 0.15187 0.14705 0.50919 0.0
C242 C 0.18128 0.14325 0.55642 0.0
C243 C 0.17726 0.11488 0.60721 0.0
C244 C 0.14276 0.08892 0.60945 0.0
C245 C 0.11346 0.0906 0.56074 0.0
C246 C 0.11791 0.12017 0.51005 0.0
H247 H 0.2955 0.71058 0.1049 0.0
H248 H 0.31585 0.80096 0.95232 0.0
H249 H 0.37111 0.75623 0.93858 0.0
H250 H 0.4047 0.68282 0.15349 0.0
H251 H 0.39359 0.62882 0.18195 0.0
H252 H 0.35648 0.66855 0.17983 0.0
H253 H 0.30131 0.6305 0.12369 0.0
H254 H 0.33848 0.59105 0.1251 0.0
H255 H 0.31163 0.61963 0.05849 0.0
H256 H 0.41967 0.69877 0.93768 0.0
H257 H 0.46387 0.63605 0.95543 0.0
H258 H 0.41623 0.58644 0.11319 0.0
C259 C 0.31239 0.72119 0.06947 0.0
C260 C 0.30198 0.7591 0.02974 0.0
C261 C 0.32378 0.7719 0.98302 0.0
C262 C 0.35501 0.74675 0.97497 0.0
C263 C 0.36431 0.70921 1.01457 0.0
C264 C 0.34414 0.69677 0.06143 0.0
C265 C 0.36012 0.65504 0.09768 0.0
C266 C 0.37991 0.65907 0.15674 0.0
C267 C 0.32583 0.62213 0.10144 0.0
C268 C 0.39209 0.64581 0.06362 0.0
C269 C 0.39368 0.67715 1.01544 0.0
C270 C 0.41913 0.67432 0.97568 0.0
C271 C 0.44386 0.63862 0.98581 0.0
C272 C 0.44337 0.6069 0.03566 0.0
C273 C 0.41733 0.61061 0.07504 0.0
H274 H 0.76921 0.82808 0.67273 0.0
H275 H 0.8133 0.72603 0.614 0.0
H276 H 0.87478 0.76687 0.58783 0.0
H277 H 0.80126 0.91076 0.57007 0.0
H278 H 0.81863 0.94429 0.61671 0.0
H279 H 0.7788 0.90673 0.63388 0.0
H280 H 0.82173 0.8746 0.73087 0.0
H281 H 0.86135 0.91264 0.71441 0.0
H282 H 0.87396 0.85786 0.73351 0.0
H283 H 0.9253 0.82148 0.55618 0.0
H284 H 0.97082 0.88184 0.53717 0.0
H285 H 0.90019 0.9468 0.62723 0.0
C286 C 0.79253 0.81409 0.65593 0.0
C287 C 0.78673 0.77404 0.64505 0.0
C288 C 0.81735 0.75678 0.62215 0.0
C289 C 0.85219 0.77973 0.60716 0.0
C290 C 0.85647 0.81962 0.61665 0.0
C291 C 0.82823 0.83633 0.64199 0.0
C292 C 0.84086 0.8799 0.64776 0.0
C293 C 0.80792 0.91232 0.61516 0.0
C294 C 0.85003 0.88132 0.71036 0.0
C295 C 0.87989 0.88531 0.62027 0.0
C296 C 0.88785 0.85027 0.60204 0.0
C297 C 0.92017 0.84866 0.5717 0.0
C298 C 0.94589 0.8833 0.56107 0.0
C299 C 0.93999 0.91886 0.582 0.0
C300 C 0.90612 0.91989 0.61152 0.0
H301 H 0.71302 0.25381 0.14236 0.0
H302 H 0.7969 0.3256 0.03658 0.0
H303 H 0.75222 0.38804 1.01898 0.0
H304 H 0.61928 0.30022 0.06388 0.0
H305 H 0.59491 0.30055 0.12494 0.0
H306 H 0.63332 0.26165 0.12901 0.0
H307 H 0.67579 0.2838 0.2144 0.0
H308 H 0.63736 0.32262 0.21079 0.0
H309 H 0.69042 0.33757 0.20782 0.0
H310 H 0.69601 0.44057 1.00772 0.0
H311 H 0.63497 0.48213 1.01049 0.0
H312 H 0.59112 0.37847 0.13155 0.0
C313 C 0.72202 0.28294 0.11616 0.0
C314 C 0.75814 0.28534 0.09063 0.0
C315 C 0.76911 0.32355 0.05609 0.0
C316 C 0.74403 0.35895 0.04603 0.0
C317 C 0.70847 0.35563 0.0717 0.0
C318 C 0.69774 0.31878 0.10671 0.0
C319 C 0.65823 0.32381 0.12978 0.0
C320 C 0.62445 0.29483 0.11075 0.0
C321 C 0.66593 0.31652 0.19455 0.0
C322 C 0.64816 0.36908 0.10171 0.0
C323 C 0.67733 0.3867 0.06788 0.0
C324 C 0.67337 0.42737 0.03481 0.0
C325 C 0.63874 0.45065 0.03652 0.0
C326 C 0.60926 0.43348 0.07202 0.0
C327 C 0.61398 0.39233 0.10511 0.0
H328 H 0.15082 0.81517 0.09411 0.0
H329 H 0.26214 0.88827 0.10147 0.0
H330 H 0.23423 0.9258 0.16432 0.0
H331 H 0.07956 0.89941 0.094 0.0
H332 H 0.04697 0.86463 0.13679 0.0
H333 H 0.07505 0.84568 0.08996 0.0
H334 H 0.10821 0.78787 0.17433 0.0
H335 H 0.08049 0.80676 0.22143 0.0
H336 H 0.13584 0.80216 0.23581 0.0
H337 H 0.19581 0.95162 0.23133 0.0
H338 H 0.14899 0.96575 0.29503 0.0
H339 H 0.06207 0.87629 0.2423 0.0
C340 C 0.16883 0.83963 0.10828 0.0
C341 C 0.20863 0.84881 0.09368 0.0
C342 C 0.23182 0.88055 0.1132 0.0
C343 C 0.2161 0.9021 0.14848 0.0
C344 C 0.17697 0.89172 0.16317 0.0
C345 C 0.15349 0.86148 0.14328 0.0
C346 C 0.11296 0.85526 0.16675 0.0
C347 C 0.07648 0.86695 0.11903 0.0
C348 C 0.10918 0.81035 0.20166 0.0
C349 C 0.11764 0.88609 0.20395 0.0
C350 C 0.15468 0.90695 0.20112 0.0
C351 C 0.16657 0.93574 0.23352 0.0
C352 C 0.13992 0.94335 0.26984 0.0
C353 C 0.10184 0.92224 0.2735 0.0
C354 C 0.09063 0.89345 0.23972 0.0
H355 H 0.71744 0.65412 0.78621 0.0
H356 H 0.61638 0.72269 0.67182 0.0
H357 H 0.56778 0.69015 0.73736 0.0
H358 H 0.66064 0.55908 0.83424 0.0
H359 H 0.68589 0.54973 0.90625 0.0
H360 H 0.71255 0.57698 0.84926 0.0
H361 H 0.72508 0.64015 0.89599 0.0
H362 H 0.69995 0.61125 0.9533 0.0
H363 H 0.68183 0.66279 0.9161 0.0
H364 H 0.53064 0.65148 0.81481 0.0
H365 H 0.50589 0.6075 0.89893 0.0
H366 H 0.63098 0.56519 0.96765 0.0
C367 C 0.68507 0.66219 0.77526 0.0
C368 C 0.6704 0.69076 0.72388 0.0
C369 C 0.62789 0.70033 0.71048 0.0
C370 C 0.60023 0.68228 0.74766 0.0
C371 C 0.61564 0.65472 0.79833 0.0
C372 C 0.65699 0.6445 0.81223 0.0
C373 C 0.66529 0.61421 0.86979 0.0
C374 C 0.68209 0.57253 0.86455 0.0
C375 C 0.69476 0.63331 0.91124 0.0
C376 C 0.62219 0.60932 0.88627 0.0
C377 C 0.59413 0.63291 0.84407 0.0
C378 C 0.55231 0.63302 0.84824 0.0
C379 C 0.53858 0.60794 0.89638 0.0
C380 C 0.56645 0.58305 0.94017 0.0
C381 C 0.60899 0.58423 0.93527 0.0
H382 H 0.89089 0.21253 0.21477 0.0
H383 H 0.82557 0.11435 0.15008 0.0
H384 H 0.86435 0.0614 0.22743 0.0
H385 H 0.99014 0.15665 0.26867 0.0
H386 H 0.99845 0.17798 0.33033 0.0
H387 H 0.97005 0.20753 0.26545 0.0
H388 H 0.90816 0.21385 0.31812 0.0
H389 H 0.93719 0.18489 0.38261 0.0
H390 H 0.88682 0.16719 0.35814 0.0
H391 H 0.90576 0.01982 0.31627 0.0
H392 H 0.94663 0.99237 0.40981 0.0
H393 H 0.98178 0.11815 0.42004 0.0
C394 C 0.88512 0.17985 0.21681 0.0
C395 C 0.85528 0.16727 0.17685 0.0
C396 C 0.84873 0.12435 0.18011 0.0
C397 C 0.87043 0.09421 0.22397 0.0
C398 C 0.89856 0.10767 0.26408 0.0
C399 C 0.9061 0.14949 0.26074 0.0
C400 C 0.93567 0.15586 0.31126 0.0
C401 C 0.97597 0.17567 0.29281 0.0
C402 C 0.91571 0.18198 0.3445 0.0
C403 C 0.94255 0.11118 0.34455 0.0
C404 C 0.92151 0.08381 0.31605 0.0
C405 C 0.92274 0.04092 0.33863 0.0
C406 C 0.94621 0.0256 0.3916 0.0
C407 C 0.96779 0.05309 0.42162 0.0
C408 C 0.96568 0.09644 0.39784 0.0
H409 H 0.38161 0.32012 0.5776 0.0
H410 H 0.31301 0.41974 0.45546 0.0
H411 H 0.34425 0.4706 0.50816 0.0
H412 H 0.36311 0.35488 0.69445 0.0
H413 H 0.41225 0.3392 0.73653 0.0
H414 H 0.39113 0.31194 0.68374 0.0
H415 H 0.45708 0.32661 0.63575 0.0
H416 H 0.47884 0.35327 0.68903 0.0
H417 H 0.47491 0.37942 0.61523 0.0
H418 H 0.37877 0.50948 0.57922 0.0
H419 H 0.41316 0.53327 0.66239 0.0
H420 H 0.45382 0.40679 0.74326 0.0
C421 C 0.37445 0.35292 0.5611 0.0
C422 C 0.34631 0.36637 0.51118 0.0
C423 C 0.3361 0.40914 0.49179 0.0
C424 C 0.35324 0.4381 0.52209 0.0
C425 C 0.37997 0.42357 0.57221 0.0
C426 C 0.39051 0.38191 0.59158 0.0
C427 C 0.41629 0.37346 0.64948 0.0
C428 C 0.39438 0.34308 0.69364 0.0
C429 C 0.45934 0.35724 0.64721 0.0
C430 C 0.41834 0.41681 0.66009 0.0
C431 C 0.39764 0.44538 0.61471 0.0
C432 C 0.39519 0.4874 0.61482 0.0
C433 C 0.41472 0.50061 0.6622 0.0
C434 C 0.43592 0.47183 0.70924 0.0
C435 C 0.43746 0.42936 0.70813 0.0
H436 H 0.71753 0.64018 0.62171 0.0
H437 H 0.61833 0.73031 0.56836 0.0
H438 H 0.58487 0.69026 0.50059 0.0
H439 H 0.72715 0.6305 0.48742 0.0
H440 H 0.73984 0.57574 0.50691 0.0
H441 H 0.75176 0.60692 0.55786 0.0
H442 H 0.70996 0.55721 0.62742 0.0
H443 H 0.6985 0.5253 0.57713 0.0
H444 H 0.6572 0.5457 0.60404 0.0
H445 H 0.56652 0.64348 0.43207 0.0
H446 H 0.56336 0.59335 0.37127 0.0
H447 H 0.6782 0.53731 0.46592 0.0
C448 C 0.68781 0.65016 0.59741 0.0
C449 C 0.66939 0.68711 0.6014 0.0
C450 C 0.63176 0.70106 0.56708 0.0
C451 C 0.61293 0.67874 0.52826 0.0
C452 C 0.63256 0.64289 0.52402 0.0
C453 C 0.66911 0.6286 0.55801 0.0
C454 C 0.68623 0.59184 0.54162 0.0
C455 C 0.72875 0.60187 0.5223 0.0
C456 C 0.68806 0.55269 0.59046 0.0
C457 C 0.65389 0.58782 0.49273 0.0
C458 C 0.62301 0.61728 0.48335 0.0
C459 C 0.59043 0.62012 0.43934 0.0
C460 C 0.58914 0.59176 0.40459 0.0
C461 C 0.62042 0.56112 0.41372 0.0
C462 C 0.65328 0.55965 0.45828 0.0
H463 H 0.78627 0.14697 1.01873 0.0
H464 H 0.90151 0.20241 0.07185 0.0
H465 H 0.93532 0.17365 1.00493 0.0
H466 H 0.83093 0.05175 0.99167 0.0
H467 H 0.79267 0.05278 0.93087 0.0
H468 H 0.78006 0.07199 0.98917 0.0
H469 H 0.75751 0.14258 0.92022 0.0
H470 H 0.7705 0.12389 0.86188 0.0
H471 H 0.79339 0.17111 0.87648 0.0
H472 H 0.95308 0.14773 0.92219 0.0
H473 H 0.95464 0.12415 0.83455 0.0
H474 H 0.8276 0.08391 0.83725 0.0
C475 C 0.81884 0.15207 1.01694 0.0
C476 C 0.84157 0.17668 0.05 0.0
C477 C 0.88401 0.18314 0.04698 0.0
C478 C 0.90326 0.16707 1.00906 0.0
C479 C 0.87955 0.14424 0.97514 0.0
C480 C 0.83836 0.13623 0.9794 0.0
C481 C 0.81886 0.11376 0.93534 0.0
C482 C 0.80481 0.06996 0.96345 0.0
C483 C 0.78296 0.13937 0.89618 0.0
C484 C 0.85504 0.11168 0.90421 0.0
C485 C 0.88989 0.12904 0.92802 0.0
C486 C 0.92622 0.13323 0.90397 0.0
C487 C 0.92684 0.11955 0.85418 0.0
C488 C 0.89132 0.10192 0.82875 0.0
C489 C 0.85526 0.09747 0.85504 0.0
H490 H 0.39406 0.31459 0.39639 0.0
H491 H 0.29128 0.39935 0.371 0.0
H492 H 0.3199 0.44605 0.29097 0.0
H493 H 0.47264 0.39007 0.36145 0.0
H494 H 0.49803 0.36014 0.32354 0.0
H495 H 0.46994 0.33397 0.37948 0.0
H496 H 0.42631 0.29628 0.31037 0.0
H497 H 0.45375 0.32273 0.25376 0.0
H498 H 0.3984 0.32649 0.2456 0.0
H499 H 0.36183 0.48535 0.21853 0.0
H500 H 0.4119 0.51274 0.15292 0.0
H501 H 0.48427 0.39937 0.2168 0.0
C502 C 0.37797 0.34317 0.37389 0.0
C503 C 0.34137 0.35456 0.39072 0.0
C504 C 0.32022 0.39134 0.3598 0.0
C505 C 0.336 0.41763 0.31405 0.0
C506 C 0.37243 0.40597 0.29874 0.0
C507 C 0.39291 0.36933 0.3271 0.0
C508 C 0.43094 0.3638 0.3008 0.0
C509 C 0.47021 0.36189 0.34389 0.0
C510 C 0.42711 0.32502 0.27617 0.0
C511 C 0.42915 0.4035 0.25423 0.0
C512 C 0.39518 0.4274 0.2541 0.0
C513 C 0.38821 0.46666 0.21772 0.0
C514 C 0.41685 0.48207 0.18086 0.0
C515 C 0.45149 0.45797 0.17965 0.0
C516 C 0.45751 0.41798 0.21633 0.0
H517 H 0.20519 0.89859 0.95587 0.0
H518 H 0.1336 0.78586 0.98711 0.0
H519 H 0.07942 0.81823 0.90897 0.0
H520 H 0.11284 0.97479 0.90559 0.0
H521 H 0.14065 0.00749 0.85372 0.0
H522 H 0.16803 0.97914 0.92022 0.0
H523 H 0.2144 0.94773 0.86524 0.0
H524 H 0.18622 0.97235 0.79771 0.0
H525 H 0.19217 0.91644 0.81804 0.0
H526 H 0.04253 0.85579 0.8165 0.0
H527 H 0.02058 0.89937 0.72062 0.0
H528 H 0.11434 0.98983 0.74964 0.0
C529 C 0.17699 0.88186 0.94773 0.0
C530 C 0.17278 0.8402 0.97718 0.0
C531 C 0.13657 0.81806 0.96493 0.0
C532 C 0.10589 0.83621 0.92077 0.0
C533 C 0.11182 0.87673 0.89018 0.0
C534 C 0.14599 0.89978 0.90394 0.0
C535 C 0.14732 0.94072 0.8604 0.0
C536 C 0.14187 0.97773 0.88655 0.0
C537 C 0.18736 0.94455 0.83371 0.0
C538 C 0.11003 0.93594 0.81831 0.0
C539 C 0.08972 0.89902 0.83671 0.0
C540 C 0.05724 0.88541 0.80246 0.0
C541 C 0.04514 0.91017 0.74809 0.0
C542 C 0.0653 0.94813 0.72876 0.0
C543 C 0.09768 0.96152 0.76451 0.0
loop_
_geom_bond_atom_site_label_1
_geom_bond_atom_site_label_2
_geom_bond_distance
_geom_bond_site_symmetry_2
_ccdc_geom_bond_type
C0 N1 1.317 . S
C0 N2 1.348 1_556 S
C0 C3 1.485 . S
N1 C0 1.317 . S
N1 N5 1.370 1_556 S
N2 C0 1.348 1_554 S
N2 C4 1.346 . S
C3 C0 1.485 . S
C3 H7 0.960 . S
C3 H8 0.961 . S
C3 H9 0.960 . S
C4 N2 1.346 . S
C4 N5 1.307 . S
C4 C6 1.486 . S
N5 N1 1.370 1_554 S
N5 C4 1.307 . S
C6 C4 1.486 . S
C6 H10 0.960 . S
C6 H11 0.960 . S
C6 H12 0.959 . S
H7 C3 0.960 . S
H8 C3 0.961 . S
H9 C3 0.960 . S
H10 C6 0.960 . S
H11 C6 0.960 . S
H12 C6 0.959 . S
C13 N14 1.317 . S
C13 N15 1.348 . S
C13 C16 1.485 . S
N14 C13 1.317 . S
N14 N18 1.370 . S
N15 C13 1.348 . S
N15 C17 1.346 . S
C16 C13 1.485 . S
C16 H20 0.960 . S
C16 H21 0.961 . S
C16 H22 0.960 . S
C17 N15 1.346 . S
C17 N18 1.307 . S
C17 C19 1.486 . S
N18 N14 1.370 . S
N18 C17 1.307 . S
C19 C17 1.486 . S
C19 H23 0.960 . S
C19 H24 0.960 . S
C19 H25 0.959 . S
H20 C16 0.960 . S
H21 C16 0.961 . S
H22 C16 0.960 . S
H23 C19 0.960 . S
H24 C19 0.960 . S
H25 C19 0.959 . S
C26 N27 1.317 . S
C26 N28 1.348 . S
C26 C29 1.485 . S
N27 C26 1.317 . S
N27 N31 1.370 . S
N28 C26 1.348 . S
N28 C30 1.346 . S
C29 C26 1.485 . S
C29 H33 0.960 . S
C29 H34 0.961 . S
C29 H35 0.960 . S
C30 N28 1.346 . S
C30 N31 1.307 . S
C30 C32 1.486 1_554 S
N31 N27 1.370 . S
N31 C30 1.307 . S
C32 C30 1.486 1_556 S
C32 H36 0.960 . S
C32 H37 0.960 . S
C32 H38 0.959 . S
H33 C29 0.960 . S
H34 C29 0.961 . S
H35 C29 0.960 . S
H36 C32 0.960 . S
H37 C32 0.960 . S
H38 C32 0.959 . S
C39 N40 1.317 . S
C39 N41 1.348 . S
C39 C42 1.485 . S
N40 C39 1.317 . S
N40 N44 1.370 . S
N41 C39 1.348 . S
N41 C43 1.346 . S
C42 C39 1.485 . S
C42 H46 0.960 . S
C42 H47 0.961 . S
C42 H48 0.960 . S
C43 N41 1.346 . S
C43 N44 1.307 . S
C43 C45 1.486 . S
N44 N40 1.370 . S
N44 C43 1.307 . S
C45 C43 1.486 . S
C45 H49 0.960 . S
C45 H50 0.960 . S
C45 H51 0.959 . S
H46 C42 0.960 . S
H47 C42 0.961 . S
H48 C42 0.960 . S
H49 C45 0.960 . S
H50 C45 0.960 . S
H51 C45 0.959 . S
Tb52 N81 2.617 . S
Tb52 N87 2.572 . S
Tb52 O96 2.465 . S
Tb52 O97 2.387 . S
Tb52 O99 2.428 . S
Tb52 O100 2.308 1_565 S
Tb52 O104 2.349 1_465 S
Tb52 O107 2.393 1_455 S
Tb52 C116 2.802 . S
C53 N54 1.379 . S
C53 C56 1.416 . S
C53 C60 1.424 . S
N54 C53 1.379 . S
N54 C57 1.334 1_655 S
N54 Tb63 2.617 . S
C55 C57 1.390 . S
C55 C58 1.339 1_455 S
C55 H75 0.930 . S
C56 C53 1.416 . S
C56 C58 1.416 . S
C56 C62 1.448 . S
C57 N54 1.334 1_455 S
C57 C55 1.390 . S
C57 H68 0.930 . S
C58 C55 1.339 1_655 S
C58 C56 1.416 . S
C58 H79 0.930 . S
C59 C60 1.413 . S
C59 C61 1.427 . S
C59 C65 1.416 . S
C60 C53 1.424 . S
C60 C59 1.413 . S
C60 N64 1.361 . S
C61 C59 1.427 . S
C61 C62 1.328 . S
C61 H76 0.929 . S
C62 C56 1.448 . S
C62 C61 1.328 . S
C62 H77 0.930 . S
Tb63 N54 2.617 . S
Tb63 N64 2.572 . S
Tb63 O98 2.349 1_655 S
Tb63 O101 2.393 1_655 S
Tb63 O102 2.465 . S
Tb63 O103 2.387 . S
Tb63 O105 2.428 . S
Tb63 O106 2.308 1_545 S
Tb63 C127 2.802 . S
N64 C60 1.361 . S
N64 Tb63 2.572 . S
N64 C66 1.340 . S
C65 C59 1.416 . S
C65 C67 1.332 . S
C65 H73 0.931 . S
C66 N64 1.340 . S
C66 C67 1.407 . S
C66 H72 0.930 . S
C67 C65 1.332 . S
C67 C66 1.407 . S
C67 H69 0.929 . S
H68 C57 0.930 . S
H69 C67 0.929 . S
H70 C85 0.930 1_655 S
H71 C92 0.929 . S
H72 C66 0.930 . S
H73 C65 0.931 . S
H74 C88 0.930 . S
H75 C55 0.930 . S
H76 C61 0.929 . S
H77 C62 0.930 . S
H78 C83 0.930 1_655 S
H79 C58 0.930 . S
H80 C91 0.931 . S
N81 Tb52 2.617 . S
N81 C82 1.379 . S
N81 C85 1.334 . S
C82 N81 1.379 . S
C82 C84 1.416 . S
C82 C90 1.424 . S
C83 H78 0.930 1_455 S
C83 C85 1.390 . S
C83 C86 1.339 . S
C84 C82 1.416 . S
C84 C86 1.416 . S
C84 C117 1.448 . S
C85 H70 0.930 1_455 S
C85 N81 1.334 . S
C85 C83 1.390 . S
C86 C83 1.339 . S
C86 C84 1.416 . S
C86 H93 0.930 . S
N87 Tb52 2.572 . S
N87 C88 1.340 . S
N87 C90 1.361 . S
C88 H74 0.930 . S
C88 N87 1.340 . S
C88 C92 1.407 . S
C89 C90 1.413 . S
C89 C91 1.416 . S
C89 C118 1.427 . S
C90 C82 1.424 . S
C90 N87 1.361 . S
C90 C89 1.413 . S
C91 H80 0.931 . S
C91 C89 1.416 . S
C91 C92 1.332 . S
C92 H71 0.929 . S
C92 C88 1.407 . S
C92 C91 1.332 . S
H93 C86 0.930 . S
H94 C117 0.930 . S
H95 C118 0.929 . S
O96 Tb52 2.465 . S
O96 C116 1.264 . S
O97 Tb52 2.387 . S
O97 C108 1.264 . S
O98 Tb63 2.349 1_455 S
O98 C108 1.243 1_545 S
O99 Tb52 2.428 . S
O99 C116 1.256 . S
O100 Tb52 2.308 1_545 S
O100 C115 1.266 . S
O101 Tb63 2.393 1_455 S
O101 C115 1.248 . S
O102 Tb63 2.465 . S
O102 C127 1.264 . S
O103 Tb63 2.387 . S
O103 C119 1.264 . S
O104 Tb52 2.349 1_645 S
O104 C119 1.243 . S
O105 Tb63 2.428 . S
O105 C127 1.256 . S
O106 Tb63 2.308 1_565 S
O106 C126 1.266 . S
O107 Tb52 2.393 1_655 S
O107 C126 1.248 . S
C108 O97 1.264 . S
C108 O98 1.243 1_565 S
C109 C112 1.399 . S
C109 C114 1.383 . S
C109 C116 1.496 . S
C110 C111 1.399 . S
C110 C114 1.389 . S
C111 C110 1.399 . S
C111 C113 1.380 . S
C111 H128 0.929 . S
C112 C109 1.399 . S
C112 C113 1.392 . S
C112 H129 0.929 . S
C113 C111 1.380 . S
C113 C112 1.392 . S
C113 H130 0.929 . S
C114 C109 1.383 . S
C114 C110 1.389 . S
C114 H131 0.931 . S
C115 O100 1.266 . S
C115 O101 1.248 . S
C116 Tb52 2.802 . S
C116 O96 1.264 . S
C116 O99 1.256 . S
C116 C109 1.496 . S
C117 C84 1.448 . S
C117 H94 0.930 . S
C117 C118 1.328 . S
C118 C89 1.427 . S
C118 H95 0.929 . S
C118 C117 1.328 . S
C119 O103 1.264 . S
C119 O104 1.243 . S
C120 C123 1.399 . S
C120 C124 1.383 . S
C120 C127 1.496 . S
C121 C122 1.399 . S
C121 C124 1.389 . S
C122 C121 1.399 . S
C122 C125 1.380 . S
C122 H132 0.929 . S
C123 C120 1.399 . S
C123 C125 1.392 . S
C123 H133 0.929 . S
C124 C120 1.383 . S
C124 C121 1.389 . S
C124 H134 0.931 . S
C125 C122 1.380 . S
C125 C123 1.392 . S
C125 H135 0.929 . S
C126 O106 1.266 . S
C126 O107 1.248 . S
C127 Tb63 2.802 . S
C127 O102 1.264 . S
C127 O105 1.256 . S
C127 C120 1.496 . S
H128 C111 0.929 . S
H129 C112 0.929 . S
H130 C113 0.929 . S
H131 C114 0.931 . S
H132 C122 0.929 . S
H133 C123 0.929 . S
H134 C124 0.931 . S
H135 C125 0.929 . S
Tb136 N165 2.616 1_556 S
Tb136 N171 2.572 1_556 S
Tb136 O180 2.465 . S
Tb136 O181 2.387 1_556 S
Tb136 O183 2.428 . S
Tb136 O184 2.308 1_556 S
Tb136 O188 2.349 . S
Tb136 O191 2.393 1_556 S
Tb136 C200 2.802 . S
C137 N138 1.379 . S
C137 C140 1.416 . S
C137 C144 1.424 . S
N138 C137 1.379 . S
N138 C141 1.334 . S
N138 Tb147 2.617 . S
C139 C141 1.390 . S
C139 C142 1.339 . S
C139 H159 0.930 . S
C140 C137 1.416 . S
C140 C142 1.416 . S
C140 C146 1.448 . S
C141 N138 1.334 . S
C141 C139 1.390 . S
C141 H152 0.930 . S
C142 C139 1.339 . S
C142 C140 1.416 . S
C142 H163 0.930 . S
C143 C144 1.413 . S
C143 C145 1.427 . S
C143 C149 1.416 . S
C144 C137 1.424 . S
C144 C143 1.413 . S
C144 N148 1.361 . S
C145 C143 1.427 . S
C145 C146 1.328 . S
C145 H160 0.929 . S
C146 C140 1.448 . S
C146 C145 1.328 . S
C146 H161 0.930 . S
Tb147 N138 2.617 . S
Tb147 N148 2.572 . S
Tb147 O182 2.349 . S
Tb147 O185 2.393 . S
Tb147 O186 2.465 . S
Tb147 O187 2.387 . S
Tb147 O189 2.428 . S
Tb147 O190 2.308 . S
Tb147 C211 2.802 . S
N148 C144 1.361 . S
N148 Tb147 2.572 . S
N148 C150 1.340 . S
C149 C143 1.416 . S
C149 C151 1.332 . S
C149 H157 0.931 . S
C150 N148 1.340 . S
C150 C151 1.407 . S
C150 H156 0.930 . S
C151 C149 1.332 . S
C151 C150 1.407 . S
C151 H153 0.929 . S
H152 C141 0.930 . S
H153 C151 0.929 . S
H154 C169 0.930 . S
H155 C176 0.929 . S
H156 C150 0.930 . S
H157 C149 0.931 . S
H158 C172 0.930 . S
H159 C139 0.930 . S
H160 C145 0.929 . S
H161 C146 0.930 . S
H162 C167 0.930 . S
H163 C142 0.930 . S
H164 C175 0.931 . S
N165 Tb136 2.616 1_554 S
N165 C166 1.380 . S
N165 C169 1.335 1_554 S
C166 N165 1.380 . S
C166 C168 1.416 . S
C166 C174 1.424 . S
C167 H162 0.930 . S
C167 C169 1.390 . S
C167 C170 1.339 1_556 S
C168 C166 1.416 . S
C168 C170 1.416 . S
C168 C201 1.448 . S
C169 H154 0.930 . S
C169 N165 1.335 1_556 S
C169 C167 1.390 . S
C170 C167 1.339 1_554 S
C170 C168 1.416 . S
C170 H177 0.930 . S
N171 Tb136 2.572 1_554 S
N171 C172 1.340 . S
N171 C174 1.361 . S
C172 H158 0.930 . S
C172 N171 1.340 . S
C172 C176 1.407 . S
C173 C174 1.413 . S
C173 C175 1.416 . S
C173 C202 1.427 . S
C174 C166 1.424 . S
C174 N171 1.361 . S
C174 C173 1.413 . S
C175 H164 0.931 . S
C175 C173 1.416 . S
C175 C176 1.332 . S
C176 H155 0.929 . S
C176 C172 1.407 . S
C176 C175 1.332 . S
H177 C170 0.930 . S
H178 C201 0.930 . S
H179 C202 0.929 . S
O180 Tb136 2.465 . S
O180 C200 1.264 . S
O181 Tb136 2.387 1_554 S
O181 C192 1.264 . S
O182 Tb147 2.349 . S
O182 C192 1.243 . S
O183 Tb136 2.428 . S
O183 C200 1.256 . S
O184 Tb136 2.308 1_554 S
O184 C199 1.266 . S
O185 Tb147 2.393 . S
O185 C199 1.248 . S
O186 Tb147 2.465 . S
O186 C211 1.264 . S
O187 Tb147 2.387 . S
O187 C203 1.264 1_554 S
O188 Tb136 2.349 . S
O188 C203 1.243 . S
O189 Tb147 2.428 . S
O189 C211 1.256 . S
O190 Tb147 2.308 . S
O190 C210 1.266 . S
O191 Tb136 2.393 1_554 S
O191 C210 1.248 . S
C192 O181 1.264 . S
C192 O182 1.243 . S
C193 C196 1.399 . S
C193 C198 1.383 . S
C193 C200 1.496 . S
C194 C195 1.399 . S
C194 C198 1.389 . S
C195 C194 1.399 . S
C195 C197 1.380 . S
C195 H212 0.929 . S
C196 C193 1.399 . S
C196 C197 1.392 . S
C196 H213 0.929 . S
C197 C195 1.380 . S
C197 C196 1.392 . S
C197 H214 0.929 . S
C198 C193 1.383 . S
C198 C194 1.389 . S
C198 H215 0.931 . S
C199 O184 1.266 . S
C199 O185 1.248 . S
C200 Tb136 2.802 . S
C200 O180 1.264 . S
C200 O183 1.256 . S
C200 C193 1.496 . S
C201 C168 1.448 . S
C201 H178 0.930 . S
C201 C202 1.328 . S
C202 C173 1.427 . S
C202 H179 0.929 . S
C202 C201 1.328 . S
C203 O187 1.264 1_556 S
C203 O188 1.243 . S
C204 C207 1.399 . S
C204 C208 1.383 . S
C204 C211 1.496 . S
C205 C206 1.399 . S
C205 C208 1.389 . S
C206 C205 1.399 . S
C206 C209 1.380 . S
C206 H216 0.929 . S
C207 C204 1.399 . S
C207 C209 1.392 . S
C207 H217 0.929 . S
C208 C204 1.383 . S
C208 C205 1.389 . S
C208 H218 0.931 . S
C209 C206 1.380 . S
C209 C207 1.392 . S
C209 H219 0.929 . S
C210 O190 1.266 . S
C210 O191 1.248 . S
C211 Tb147 2.802 . S
C211 O186 1.264 . S
C211 O189 1.256 . S
C211 C204 1.496 . S
H212 C195 0.929 . S
H213 C196 0.929 . S
H214 C197 0.929 . S
H215 C198 0.931 . S
H216 C206 0.929 . S
H217 C207 0.929 . S
H218 C208 0.931 . S
H219 C209 0.929 . S
H220 C232 0.930 . S
H221 C234 0.930 . S
H222 C235 0.930 . S
H223 C239 0.959 . S
H224 C239 0.959 . S
H225 C239 0.961 . S
H226 C240 0.960 . S
H227 C240 0.961 . S
H228 C240 0.959 . S
H229 C243 0.929 . S
H230 C244 0.931 . S
H231 C246 0.930 . S
C232 H220 0.930 . S
C232 C233 1.399 . S
C232 C237 1.399 . S
C233 C232 1.399 . S
C233 C234 1.376 . S
C234 H221 0.930 . S
C234 C233 1.376 . S
C234 C235 1.388 . S
C235 H222 0.930 . S
C235 C234 1.388 . S
C235 C236 1.390 . S
C236 C235 1.390 . S
C236 C237 1.394 . S
C236 C242 1.465 . S
C237 C232 1.399 . S
C237 C236 1.394 . S
C237 C238 1.516 . S
C238 C237 1.516 . S
C238 C239 1.502 . S
C238 C240 1.561 . S
C238 C241 1.526 . S
C239 H223 0.959 . S
C239 H224 0.959 . S
C239 H225 0.961 . S
C239 C238 1.502 . S
C240 H226 0.960 . S
C240 H227 0.961 . S
C240 H228 0.959 . S
C240 C238 1.561 . S
C241 C238 1.526 . S
C241 C242 1.396 . S
C241 C246 1.390 . S
C242 C236 1.465 . S
C242 C241 1.396 . S
C242 C243 1.399 . S
C243 H229 0.929 . S
C243 C242 1.399 . S
C243 C244 1.385 . S
C244 H230 0.931 . S
C244 C243 1.385 . S
C244 C245 1.389 . S
C245 C244 1.389 . S
C245 C246 1.387 . S
C246 H231 0.930 . S
C246 C241 1.390 . S
C246 C245 1.387 . S
H247 C259 0.930 . S
H248 C261 0.930 . S
H249 C262 0.930 . S
H250 C266 0.959 . S
H251 C266 0.959 . S
H252 C266 0.961 . S
H253 C267 0.960 . S
H254 C267 0.961 . S
H255 C267 0.959 . S
H256 C270 0.929 . S
H257 C271 0.931 . S
H258 C273 0.930 . S
C259 H247 0.930 . S
C259 C260 1.399 . S
C259 C264 1.399 . S
C260 C259 1.399 . S
C260 C261 1.376 . S
C261 H248 0.930 . S
C261 C260 1.376 . S
C261 C262 1.388 . S
C262 H249 0.930 . S
C262 C261 1.388 . S
C262 C263 1.390 . S
C263 C262 1.390 . S
C263 C264 1.394 . S
C263 C269 1.465 . S
C264 C259 1.399 . S
C264 C263 1.394 . S
C264 C265 1.516 . S
C265 C264 1.516 . S
C265 C266 1.502 . S
C265 C267 1.561 1_554 S
C265 C268 1.526 . S
C266 H250 0.959 . S
C266 H251 0.959 . S
C266 H252 0.961 . S
C266 C265 1.502 . S
C267 H253 0.960 . S
C267 H254 0.961 . S
C267 H255 0.959 . S
C267 C265 1.561 1_556 S
C268 C265 1.526 . S
C268 C269 1.396 . S
C268 C273 1.390 . S
C269 C263 1.465 . S
C269 C268 1.396 . S
C269 C270 1.399 . S
C270 H256 0.929 . S
C270 C269 1.399 . S
C270 C271 1.385 . S
C271 H257 0.931 . S
C271 C270 1.385 . S
C271 C272 1.389 . S
C272 C271 1.389 . S
C272 C273 1.387 . S
C273 H258 0.930 . S
C273 C268 1.390 . S
C273 C272 1.387 . S
H274 C286 0.930 . S
H275 C288 0.930 . S
H276 C289 0.930 . S
H277 C293 0.959 . S
H278 C293 0.959 . S
H279 C293 0.961 . S
H280 C294 0.960 . S
H281 C294 0.961 . S
H282 C294 0.959 . S
H283 C297 0.929 . S
H284 C298 0.931 . S
H285 C300 0.930 . S
C286 H274 0.930 . S
C286 C287 1.399 . S
C286 C291 1.399 . S
C287 C286 1.399 . S
C287 C288 1.376 . S
C288 H275 0.930 . S
C288 C287 1.376 . S
C288 C289 1.388 . S
C289 H276 0.930 . S
C289 C288 1.388 . S
C289 C290 1.390 . S
C290 C289 1.390 . S
C290 C291 1.394 . S
C290 C296 1.465 . S
C291 C286 1.399 . S
C291 C290 1.394 . S
C291 C292 1.516 . S
C292 C291 1.516 . S
C292 C293 1.502 . S
C292 C294 1.561 . S
C292 C295 1.526 . S
C293 H277 0.959 . S
C293 H278 0.959 . S
C293 H279 0.961 . S
C293 C292 1.502 . S
C294 H280 0.960 . S
C294 H281 0.961 . S
C294 H282 0.959 . S
C294 C292 1.561 . S
C295 C292 1.526 . S
C295 C296 1.396 . S
C295 C300 1.390 . S
C296 C290 1.465 . S
C296 C295 1.396 . S
C296 C297 1.399 . S
C297 H283 0.929 . S
C297 C296 1.399 . S
C297 C298 1.385 . S
C298 H284 0.931 . S
C298 C297 1.385 . S
C298 C299 1.389 . S
C299 C298 1.389 . S
C299 C300 1.387 . S
C300 H285 0.930 . S
C300 C295 1.390 . S
C300 C299 1.387 . S
H301 C313 0.930 . S
H302 C315 0.930 1_556 S
H303 C316 0.930 . S
H304 C320 0.959 . S
H305 C320 0.959 . S
H306 C320 0.961 . S
H307 C321 0.960 . S
H308 C321 0.961 . S
H309 C321 0.959 . S
H310 C324 0.929 . S
H311 C325 0.931 . S
H312 C327 0.930 . S
C313 H301 0.930 . S
C313 C314 1.399 . S
C313 C318 1.399 . S
C314 C313 1.399 . S
C314 C315 1.376 . S
C315 H302 0.930 1_554 S
C315 C314 1.376 . S
C315 C316 1.388 1_554 S
C316 H303 0.930 . S
C316 C315 1.388 1_556 S
C316 C317 1.390 1_556 S
C317 C316 1.390 1_554 S
C317 C318 1.394 . S
C317 C323 1.465 . S
C318 C313 1.399 . S
C318 C317 1.394 . S
C318 C319 1.516 . S
C319 C318 1.516 . S
C319 C320 1.502 . S
C319 C321 1.561 . S
C319 C322 1.526 . S
C320 H304 0.959 . S
C320 H305 0.959 . S
C320 H306 0.961 . S
C320 C319 1.502 . S
C321 H307 0.960 . S
C321 H308 0.961 . S
C321 H309 0.959 . S
C321 C319 1.561 . S
C322 C319 1.526 . S
C322 C323 1.396 . S
C322 C327 1.390 . S
C323 C317 1.465 . S
C323 C322 1.396 . S
C323 C324 1.399 1_554 S
C324 H310 0.929 . S
C324 C323 1.399 1_556 S
C324 C325 1.385 . S
C325 H311 0.931 . S
C325 C324 1.385 . S
C325 C326 1.389 1_556 S
C326 C325 1.389 1_554 S
C326 C327 1.387 . S
C327 H312 0.930 . S
C327 C322 1.390 . S
C327 C326 1.387 . S
H328 C340 0.930 . S
H329 C342 0.930 . S
H330 C343 0.930 . S
H331 C347 0.959 . S
H332 C347 0.959 . S
H333 C347 0.961 . S
H334 C348 0.960 . S
H335 C348 0.961 . S
H336 C348 0.959 . S
H337 C351 0.929 . S
H338 C352 0.931 . S
H339 C354 0.930 . S
C340 H328 0.930 . S
C340 C341 1.399 . S
C340 C345 1.399 . S
C341 C340 1.399 . S
C341 C342 1.376 . S
C342 H329 0.930 . S
C342 C341 1.376 . S
C342 C343 1.388 . S
C343 H330 0.930 . S
C343 C342 1.388 . S
C343 C344 1.390 . S
C344 C343 1.390 . S
C344 C345 1.394 . S
C344 C350 1.465 . S
C345 C340 1.399 . S
C345 C344 1.394 . S
C345 C346 1.516 . S
C346 C345 1.516 . S
C346 C347 1.502 . S
C346 C348 1.561 . S
C346 C349 1.526 . S
C347 H331 0.959 . S
C347 H332 0.959 . S
C347 H333 0.961 . S
C347 C346 1.502 . S
C348 H334 0.960 . S
C348 H335 0.961 . S
C348 H336 0.959 . S
C348 C346 1.561 . S
C349 C346 1.526 . S
C349 C350 1.396 . S
C349 C354 1.390 . S
C350 C344 1.465 . S
C350 C349 1.396 . S
C350 C351 1.399 . S
C351 H337 0.929 . S
C351 C350 1.399 . S
C351 C352 1.385 . S
C352 H338 0.931 . S
C352 C351 1.385 . S
C352 C353 1.389 . S
C353 C352 1.389 . S
C353 C354 1.387 . S
C354 H339 0.930 . S
C354 C349 1.390 . S
C354 C353 1.387 . S
H355 C367 0.930 . S
H356 C369 0.930 . S
H357 C370 0.930 . S
H358 C374 0.959 . S
H359 C374 0.959 . S
H360 C374 0.961 . S
H361 C375 0.960 . S
H362 C375 0.961 . S
H363 C375 0.959 . S
H364 C378 0.929 . S
H365 C379 0.931 . S
H366 C381 0.930 . S
C367 H355 0.930 . S
C367 C368 1.399 . S
C367 C372 1.399 . S
C368 C367 1.399 . S
C368 C369 1.376 . S
C369 H356 0.930 . S
C369 C368 1.376 . S
C369 C370 1.388 . S
C370 H357 0.930 . S
C370 C369 1.388 . S
C370 C371 1.390 . S
C371 C370 1.390 . S
C371 C372 1.394 . S
C371 C377 1.465 . S
C372 C367 1.399 . S
C372 C371 1.394 . S
C372 C373 1.516 . S
C373 C372 1.516 . S
C373 C374 1.502 . S
C373 C375 1.561 . S
C373 C376 1.526 . S
C374 H358 0.959 . S
C374 H359 0.959 . S
C374 H360 0.961 . S
C374 C373 1.502 . S
C375 H361 0.960 . S
C375 H362 0.961 . S
C375 H363 0.959 . S
C375 C373 1.561 . S
C376 C373 1.526 . S
C376 C377 1.396 . S
C376 C381 1.390 . S
C377 C371 1.465 . S
C377 C376 1.396 . S
C377 C378 1.399 . S
C378 H364 0.929 . S
C378 C377 1.399 . S
C378 C379 1.385 . S
C379 H365 0.931 . S
C379 C378 1.385 . S
C379 C380 1.389 . S
C380 C379 1.389 . S
C380 C381 1.387 . S
C381 H366 0.930 . S
C381 C376 1.390 . S
C381 C380 1.387 . S
H382 C394 0.930 . S
H383 C396 0.930 . S
H384 C397 0.930 . S
H385 C401 0.959 . S
H386 C401 0.959 . S
H387 C401 0.961 . S
H388 C402 0.960 . S
H389 C402 0.961 . S
H390 C402 0.959 . S
H391 C405 0.929 . S
H392 C406 0.931 1_565 S
H393 C408 0.930 . S
C394 H382 0.930 . S
C394 C395 1.399 . S
C394 C399 1.399 . S
C395 C394 1.399 . S
C395 C396 1.376 . S
C396 H383 0.930 . S
C396 C395 1.376 . S
C396 C397 1.388 . S
C397 H384 0.930 . S
C397 C396 1.388 . S
C397 C398 1.390 . S
C398 C397 1.390 . S
C398 C399 1.394 . S
C398 C404 1.465 . S
C399 C394 1.399 . S
C399 C398 1.394 . S
C399 C400 1.516 . S
C400 C399 1.516 . S
C400 C401 1.502 . S
C400 C402 1.561 . S
C400 C403 1.526 . S
C401 H385 0.959 . S
C401 H386 0.959 . S
C401 H387 0.961 . S
C401 C400 1.502 . S
C402 H388 0.960 . S
C402 H389 0.961 . S
C402 H390 0.959 . S
C402 C400 1.561 . S
C403 C400 1.526 . S
C403 C404 1.396 . S
C403 C408 1.390 . S
C404 C398 1.465 . S
C404 C403 1.396 . S
C404 C405 1.399 . S
C405 H391 0.929 . S
C405 C404 1.399 . S
C405 C406 1.385 . S
C406 H392 0.931 1_545 S
C406 C405 1.385 . S
C406 C407 1.389 . S
C407 C406 1.389 . S
C407 C408 1.387 . S
C408 H393 0.930 . S
C408 C403 1.390 . S
C408 C407 1.387 . S
H409 C421 0.930 . S
H410 C423 0.930 . S
H411 C424 0.930 . S
H412 C428 0.959 . S
H413 C428 0.959 . S
H414 C428 0.961 . S
H415 C429 0.960 . S
H416 C429 0.961 . S
H417 C429 0.959 . S
H418 C432 0.929 . S
H419 C433 0.931 . S
H420 C435 0.930 . S
C421 H409 0.930 . S
C421 C422 1.399 . S
C421 C426 1.399 . S
C422 C421 1.399 . S
C422 C423 1.376 . S
C423 H410 0.930 . S
C423 C422 1.376 . S
C423 C424 1.388 . S
C424 H411 0.930 . S
C424 C423 1.388 . S
C424 C425 1.390 . S
C425 C424 1.390 . S
C425 C426 1.394 . S
C425 C431 1.465 . S
C426 C421 1.399 . S
C426 C425 1.394 . S
C426 C427 1.516 . S
C427 C426 1.516 . S
C427 C428 1.502 . S
C427 C429 1.561 . S
C427 C430 1.526 . S
C428 H412 0.959 . S
C428 H413 0.959 . S
C428 H414 0.961 . S
C428 C427 1.502 . S
C429 H415 0.960 . S
C429 H416 0.961 . S
C429 H417 0.959 . S
C429 C427 1.561 . S
C430 C427 1.526 . S
C430 C431 1.396 . S
C430 C435 1.390 . S
C431 C425 1.465 . S
C431 C430 1.396 . S
C431 C432 1.399 . S
C432 H418 0.929 . S
C432 C431 1.399 . S
C432 C433 1.385 . S
C433 H419 0.931 . S
C433 C432 1.385 . S
C433 C434 1.389 . S
C434 C433 1.389 . S
C434 C435 1.387 . S
C435 H420 0.930 . S
C435 C430 1.390 . S
C435 C434 1.387 . S
H436 C448 0.930 . S
H437 C450 0.930 . S
H438 C451 0.930 . S
H439 C455 0.959 . S
H440 C455 0.959 . S
H441 C455 0.961 . S
H442 C456 0.960 . S
H443 C456 0.961 . S
H444 C456 0.959 . S
H445 C459 0.929 . S
H446 C460 0.931 . S
H447 C462 0.930 . S
C448 H436 0.930 . S
C448 C449 1.399 . S
C448 C453 1.399 . S
C449 C448 1.399 . S
C449 C450 1.376 . S
C450 H437 0.930 . S
C450 C449 1.376 . S
C450 C451 1.388 . S
C451 H438 0.930 . S
C451 C450 1.388 . S
C451 C452 1.390 . S
C452 C451 1.390 . S
C452 C453 1.394 . S
C452 C458 1.465 . S
C453 C448 1.399 . S
C453 C452 1.394 . S
C453 C454 1.516 . S
C454 C453 1.516 . S
C454 C455 1.502 . S
C454 C456 1.561 . S
C454 C457 1.526 . S
C455 H439 0.959 . S
C455 H440 0.959 . S
C455 H441 0.961 . S
C455 C454 1.502 . S
C456 H442 0.960 . S
C456 H443 0.961 . S
C456 H444 0.959 . S
C456 C454 1.561 . S
C457 C454 1.526 . S
C457 C458 1.396 . S
C457 C462 1.390 . S
C458 C452 1.465 . S
C458 C457 1.396 . S
C458 C459 1.399 . S
C459 H445 0.929 . S
C459 C458 1.399 . S
C459 C460 1.385 . S
C460 H446 0.931 . S
C460 C459 1.385 . S
C460 C461 1.389 . S
C461 C460 1.389 . S
C461 C462 1.387 . S
C462 H447 0.930 . S
C462 C457 1.390 . S
C462 C461 1.387 . S
H463 C475 0.930 . S
H464 C477 0.930 . S
H465 C478 0.930 1_554 S
H466 C482 0.959 . S
H467 C482 0.959 . S
H468 C482 0.961 . S
H469 C483 0.960 . S
H470 C483 0.961 . S
H471 C483 0.959 . S
H472 C486 0.929 . S
H473 C487 0.931 . S
H474 C489 0.930 . S
C475 H463 0.930 . S
C475 C476 1.399 1_556 S
C475 C480 1.399 . S
C476 C475 1.399 1_554 S
C476 C477 1.376 . S
C477 H464 0.930 . S
C477 C476 1.376 . S
C477 C478 1.388 1_554 S
C478 H465 0.930 1_556 S
C478 C477 1.388 1_556 S
C478 C479 1.390 . S
C479 C478 1.390 . S
C479 C480 1.394 . S
C479 C485 1.465 . S
C480 C475 1.399 . S
C480 C479 1.394 . S
C480 C481 1.516 . S
C481 C480 1.516 . S
C481 C482 1.502 . S
C481 C483 1.561 . S
C481 C484 1.526 . S
C482 H466 0.959 . S
C482 H467 0.959 . S
C482 H468 0.961 . S
C482 C481 1.502 . S
C483 H469 0.960 . S
C483 H470 0.961 . S
C483 H471 0.959 . S
C483 C481 1.561 . S
C484 C481 1.526 . S
C484 C485 1.396 . S
C484 C489 1.390 . S
C485 C479 1.465 . S
C485 C484 1.396 . S
C485 C486 1.399 . S
C486 H472 0.929 . S
C486 C485 1.399 . S
C486 C487 1.385 . S
C487 H473 0.931 . S
C487 C486 1.385 . S
C487 C488 1.389 . S
C488 C487 1.389 . S
C488 C489 1.387 . S
C489 H474 0.930 . S
C489 C484 1.390 . S
C489 C488 1.387 . S
H490 C502 0.930 . S
H491 C504 0.930 . S
H492 C505 0.930 . S
H493 C509 0.959 . S
H494 C509 0.959 . S
H495 C509 0.961 . S
H496 C510 0.960 . S
H497 C510 0.961 . S
H498 C510 0.959 . S
H499 C513 0.929 . S
H500 C514 0.931 . S
H501 C516 0.930 . S
C502 H490 0.930 . S
C502 C503 1.399 . S
C502 C507 1.399 . S
C503 C502 1.399 . S
C503 C504 1.376 . S
C504 H491 0.930 . S
C504 C503 1.376 . S
C504 C505 1.388 . S
C505 H492 0.930 . S
C505 C504 1.388 . S
C505 C506 1.390 . S
C506 C505 1.390 . S
C506 C507 1.394 . S
C506 C512 1.465 . S
C507 C502 1.399 . S
C507 C506 1.394 . S
C507 C508 1.516 . S
C508 C507 1.516 . S
C508 C509 1.502 . S
C508 C510 1.561 . S
C508 C511 1.526 . S
C509 H493 0.959 . S
C509 H494 0.959 . S
C509 H495 0.961 . S
C509 C508 1.502 . S
C510 H496 0.960 . S
C510 H497 0.961 . S
C510 H498 0.959 . S
C510 C508 1.561 . S
C511 C508 1.526 . S
C511 C512 1.396 . S
C511 C516 1.390 . S
C512 C506 1.465 . S
C512 C511 1.396 . S
C512 C513 1.399 . S
C513 H499 0.929 . S
C513 C512 1.399 . S
C513 C514 1.385 . S
C514 H500 0.931 . S
C514 C513 1.385 . S
C514 C515 1.389 . S
C515 C514 1.389 . S
C515 C516 1.387 . S
C516 H501 0.930 . S
C516 C511 1.390 . S
C516 C515 1.387 . S
H517 C529 0.930 . S
H518 C531 0.930 . S
H519 C532 0.930 . S
H520 C536 0.959 . S
H521 C536 0.959 1_545 S
H522 C536 0.961 . S
H523 C537 0.960 . S
H524 C537 0.961 1_545 S
H525 C537 0.959 . S
H526 C540 0.929 . S
H527 C541 0.931 . S
H528 C543 0.930 1_545 S
C529 H517 0.930 . S
C529 C530 1.399 . S
C529 C534 1.399 . S
C530 C529 1.399 . S
C530 C531 1.376 . S
C531 H518 0.930 . S
C531 C530 1.376 . S
C531 C532 1.388 . S
C532 H519 0.930 . S
C532 C531 1.388 . S
C532 C533 1.390 . S
C533 C532 1.390 . S
C533 C534 1.394 . S
C533 C539 1.465 . S
C534 C529 1.399 . S
C534 C533 1.394 . S
C534 C535 1.516 . S
C535 C534 1.516 . S
C535 C536 1.502 . S
C535 C537 1.561 . S
C535 C538 1.526 . S
C536 H520 0.959 . S
C536 H521 0.959 1_565 S
C536 H522 0.961 . S
C536 C535 1.502 . S
C537 H523 0.960 . S
C537 H524 0.961 1_565 S
C537 H525 0.959 . S
C537 C535 1.561 . S
C538 C535 1.526 . S
C538 C539 1.396 . S
C538 C543 1.390 . S
C539 C533 1.465 . S
C539 C538 1.396 . S
C539 C540 1.399 . S
C540 H526 0.929 . S
C540 C539 1.399 . S
C540 C541 1.385 . S
C541 H527 0.931 . S
C541 C540 1.385 . S
C541 C542 1.389 . S
C542 C541 1.389 . S
C542 C543 1.387 . S
C543 H528 0.930 1_565 S
C543 C538 1.390 . S
C543 C542 1.387 . S
C245 C115 1.632 . S
C233 N41 1.681 . S
C260 N2 1.639 . S
C272 C210 1.624 . S
C287 N15 1.666 . S
C299 C126 1.635 . S
C314 N28 1.623 . S
C326 C199 1.636 . S
C353 C110 1.433 . S
C341 N5 1.579 . S
C380 C203 1.672 . S
C368 N14 1.671 . S
C395 N27 1.593 . S
C407 C119 1.611 . S
C422 N44 1.565 . S
C434 C194 1.350 . S
C461 C205 1.434 . S
C449 N18 1.587 . S
C488 C121 1.359 . S
C476 N31 1.588 . S
C515 C192 1.660 . S
C503 N40 1.654 . S
C530 N1 1.563 . S
C542 C108 1.600 . S
