# Generated by pormake.
# Topology ctn, (3,4)-cn, num edge types: 1
# Building blocks:
#     Node 0, Type 0, BuildingBlock: QEWDON_clean_linker_0, # of connection points: 3
#     Node 1, Type 0, BuildingBlock: QEWDON_clean_linker_0, # of connection points: 3
#     Node 2, Type 0, BuildingBlock: QEWDON_clean_linker_0, # of connection points: 3
#     Node 3, Type 0, BuildingBlock: QEWDON_clean_linker_0, # of connection points: 3
#     Node 4, Type 0, BuildingBlock: QEWDON_clean_linker_0, # of connection points: 3
#     Node 5, Type 0, BuildingBlock: QEWDON_clean_linker_0, # of connection points: 3
#     Node 6, Type 0, BuildingBlock: QEWDON_clean_linker_0, # of connection points: 3
#     Node 7, Type 0, BuildingBlock: QEWDON_clean_linker_0, # of connection points: 3
#     Node 8, Type 0, BuildingBlock: QEWDON_clean_linker_0, # of connection points: 3
#     Node 9, Type 0, BuildingBlock: QEWDON_clean_linker_0, # of connection points: 3
#     Node 10, Type 0, BuildingBlock: QEWDON_clean_linker_0, # of connection points: 3
#     Node 11, Type 0, BuildingBlock: QEWDON_clean_linker_0, # of connection points: 3
#     Node 12, Type 0, BuildingBlock: QEWDON_clean_linker_0, # of connection points: 3
#     Node 13, Type 0, BuildingBlock: QEWDON_clean_linker_0, # of connection points: 3
#     Node 14, Type 0, BuildingBlock: QEWDON_clean_linker_0, # of connection points: 3
#     Node 15, Type 0, BuildingBlock: QEWDON_clean_linker_0, # of connection points: 3
#     Node 16, Type 1, BuildingBlock: NAHDIM_clean_sbu_0, # of connection points: 4
#     Node 17, Type 1, BuildingBlock: NAHDIM_clean_sbu_0, # of connection points: 4
#     Node 18, Type 1, BuildingBlock: NAHDIM_clean_sbu_0, # of connection points: 4
#     Node 19, Type 1, BuildingBlock: NAHDIM_clean_sbu_0, # of connection points: 4
#     Node 20, Type 1, BuildingBlock: NAHDIM_clean_sbu_0, # of connection points: 4
#     Node 21, Type 1, BuildingBlock: NAHDIM_clean_sbu_0, # of connection points: 4
#     Node 22, Type 1, BuildingBlock: NAHDIM_clean_sbu_0, # of connection points: 4
#     Node 23, Type 1, BuildingBlock: NAHDIM_clean_sbu_0, # of connection points: 4
#     Node 24, Type 1, BuildingBlock: NAHDIM_clean_sbu_0, # of connection points: 4
#     Node 25, Type 1, BuildingBlock: NAHDIM_clean_sbu_0, # of connection points: 4
#     Node 26, Type 1, BuildingBlock: NAHDIM_clean_sbu_0, # of connection points: 4
#     Node 27, Type 1, BuildingBlock: NAHDIM_clean_sbu_0, # of connection points: 4
#     Edge 28, Type (0, 1), BuildingBlock: MIFKUJ_clean_linker_0, # of connection points: 2
#     Edge 29, Type (0, 1), BuildingBlock: MIFKUJ_clean_linker_0, # of connection points: 2
#     Edge 30, Type (0, 1), BuildingBlock: MIFKUJ_clean_linker_0, # of connection points: 2
#     Edge 31, Type (0, 1), BuildingBlock: MIFKUJ_clean_linker_0, # of connection points: 2
#     Edge 32, Type (0, 1), BuildingBlock: MIFKUJ_clean_linker_0, # of connection points: 2
#     Edge 33, Type (0, 1), BuildingBlock: MIFKUJ_clean_linker_0, # of connection points: 2
#     Edge 34, Type (0, 1), BuildingBlock: MIFKUJ_clean_linker_0, # of connection points: 2
#     Edge 35, Type (0, 1), BuildingBlock: MIFKUJ_clean_linker_0, # of connection points: 2
#     Edge 36, Type (0, 1), BuildingBlock: MIFKUJ_clean_linker_0, # of connection points: 2
#     Edge 37, Type (0, 1), BuildingBlock: MIFKUJ_clean_linker_0, # of connection points: 2
#     Edge 38, Type (0, 1), BuildingBlock: MIFKUJ_clean_linker_0, # of connection points: 2
#     Edge 39, Type (0, 1), BuildingBlock: MIFKUJ_clean_linker_0, # of connection points: 2
#     Edge 40, Type (0, 1), BuildingBlock: MIFKUJ_clean_linker_0, # of connection points: 2
#     Edge 41, Type (0, 1), BuildingBlock: MIFKUJ_clean_linker_0, # of connection points: 2
#     Edge 42, Type (0, 1), BuildingBlock: MIFKUJ_clean_linker_0, # of connection points: 2
#     Edge 43, Type (0, 1), BuildingBlock: MIFKUJ_clean_linker_0, # of connection points: 2
#     Edge 44, Type (0, 1), BuildingBlock: MIFKUJ_clean_linker_0, # of connection points: 2
#     Edge 45, Type (0, 1), BuildingBlock: MIFKUJ_clean_linker_0, # of connection points: 2
#     Edge 46, Type (0, 1), BuildingBlock: MIFKUJ_clean_linker_0, # of connection points: 2
#     Edge 47, Type (0, 1), BuildingBlock: MIFKUJ_clean_linker_0, # of connection points: 2
#     Edge 48, Type (0, 1), BuildingBlock: MIFKUJ_clean_linker_0, # of connection points: 2
#     Edge 49, Type (0, 1), BuildingBlock: MIFKUJ_clean_linker_0, # of connection points: 2
#     Edge 50, Type (0, 1), BuildingBlock: MIFKUJ_clean_linker_0, # of connection points: 2
#     Edge 51, Type (0, 1), BuildingBlock: MIFKUJ_clean_linker_0, # of connection points: 2
#     Edge 52, Type (0, 1), BuildingBlock: MIFKUJ_clean_linker_0, # of connection points: 2
#     Edge 53, Type (0, 1), BuildingBlock: MIFKUJ_clean_linker_0, # of connection points: 2
#     Edge 54, Type (0, 1), BuildingBlock: MIFKUJ_clean_linker_0, # of connection points: 2
#     Edge 55, Type (0, 1), BuildingBlock: MIFKUJ_clean_linker_0, # of connection points: 2
#     Edge 56, Type (0, 1), BuildingBlock: MIFKUJ_clean_linker_0, # of connection points: 2
#     Edge 57, Type (0, 1), BuildingBlock: MIFKUJ_clean_linker_0, # of connection points: 2
#     Edge 58, Type (0, 1), BuildingBlock: MIFKUJ_clean_linker_0, # of connection points: 2
#     Edge 59, Type (0, 1), BuildingBlock: MIFKUJ_clean_linker_0, # of connection points: 2
#     Edge 60, Type (0, 1), BuildingBlock: MIFKUJ_clean_linker_0, # of connection points: 2
#     Edge 61, Type (0, 1), BuildingBlock: MIFKUJ_clean_linker_0, # of connection points: 2
#     Edge 62, Type (0, 1), BuildingBlock: MIFKUJ_clean_linker_0, # of connection points: 2
#     Edge 63, Type (0, 1), BuildingBlock: MIFKUJ_clean_linker_0, # of connection points: 2
#     Edge 64, Type (0, 1), BuildingBlock: MIFKUJ_clean_linker_0, # of connection points: 2
#     Edge 65, Type (0, 1), BuildingBlock: MIFKUJ_clean_linker_0, # of connection points: 2
#     Edge 66, Type (0, 1), BuildingBlock: MIFKUJ_clean_linker_0, # of connection points: 2
#     Edge 67, Type (0, 1), BuildingBlock: MIFKUJ_clean_linker_0, # of connection points: 2
#     Edge 68, Type (0, 1), BuildingBlock: MIFKUJ_clean_linker_0, # of connection points: 2
#     Edge 69, Type (0, 1), BuildingBlock: MIFKUJ_clean_linker_0, # of connection points: 2
#     Edge 70, Type (0, 1), BuildingBlock: MIFKUJ_clean_linker_0, # of connection points: 2
#     Edge 71, Type (0, 1), BuildingBlock: MIFKUJ_clean_linker_0, # of connection points: 2
#     Edge 72, Type (0, 1), BuildingBlock: MIFKUJ_clean_linker_0, # of connection points: 2
#     Edge 73, Type (0, 1), BuildingBlock: MIFKUJ_clean_linker_0, # of connection points: 2
#     Edge 74, Type (0, 1), BuildingBlock: MIFKUJ_clean_linker_0, # of connection points: 2
#     Edge 75, Type (0, 1), BuildingBlock: MIFKUJ_clean_linker_0, # of connection points: 2
# Relax obj value: 0.113
# Max RMSD: 0.276
# Mean RMSD: 0.159
data_MOF--net-ctn--node1-NAHDIM_clean_sbu_0--node2-QEWDON_clean_linker_0--edge1-MIFKUJ_clean_linker_0
_symmetry_space_group_name_H-M    P1
_symmetry_Int_Tables_number       1
_symmetry_cell_setting            triclinic
loop_
_symmetry_equiv_pos_as_xyz
'x, y, z'
_cell_length_a     68.586245
_cell_length_b     71.628621
_cell_length_c     75.544387
_cell_angle_alpha  99.139108
_cell_angle_beta   91.938989
_cell_angle_gamma 97.470122
loop_
_atom_site_label
_atom_site_type_symbol
_atom_site_fract_x
_atom_site_fract_y
_atom_site_fract_z
_atom_type_partial_charge
H0 H 0.08684 0.04565 0.05667 0.0
C1 C 0.07856 0.04272 0.06812 0.0
C2 C 0.08043 0.02617 0.07558 0.0
C3 C 0.06664 0.05599 0.07581 0.0
H4 H 0.07177 0.01072 0.09701 0.0
C5 C 0.06973 0.02291 0.09067 0.0
C6 C 0.05726 0.03581 0.09823 0.0
C7 C 0.05577 0.05224 0.09056 0.0
C8 C 0.06702 0.07475 0.0698 0.0
H9 H 0.04623 0.06235 0.09611 0.0
C10 C 0.06328 0.07621 0.05164 0.0
C11 C 0.064 0.0943 0.04646 0.0
C12 C 0.0715 0.0915 0.08255 0.0
H13 H 0.07458 0.09073 0.09656 0.0
C14 C 0.07237 0.10939 0.07733 0.0
H15 H 0.05967 0.06343 0.04168 0.0
C16 C 0.06868 0.11081 0.05938 0.0
H17 H 0.06928 0.12483 0.05557 0.0
H18 H 0.07592 0.12219 0.08724 0.0
H19 H 0.33792 0.74297 0.24273 0.0
C20 C 0.32734 0.73021 0.23879 0.0
C21 C 0.33055 0.71322 0.24471 0.0
C22 C 0.31013 0.73115 0.22853 0.0
H23 H 0.3186 0.68411 0.24529 0.0
C24 C 0.31636 0.69701 0.24019 0.0
C25 C 0.29912 0.6975 0.2297 0.0
C26 C 0.29628 0.71467 0.22371 0.0
C27 C 0.30568 0.74987 0.22471 0.0
H28 H 0.28298 0.71547 0.21587 0.0
C29 C 0.30063 0.75264 0.20717 0.0
C30 C 0.29615 0.77055 0.20402 0.0
C31 C 0.3062 0.76512 0.23902 0.0
H32 H 0.30989 0.76329 0.25264 0.0
C33 C 0.30165 0.78278 0.23596 0.0
H34 H 0.30024 0.74096 0.19605 0.0
C35 C 0.29664 0.78551 0.21862 0.0
H36 H 0.29348 0.79946 0.21657 0.0
H37 H 0.30205 0.79442 0.24708 0.0
H38 H 0.02901 0.47202 0.03546 0.0
C39 C 0.01805 0.48156 0.03489 0.0
C40 C 0.01086 0.49052 0.05084 0.0
C41 C 0.0117 0.48536 0.01816 0.0
H42 H 0.99107 0.51005 0.06186 0.0
C43 C 0.99648 0.50276 0.04971 0.0
C44 C 0.98987 0.5065 0.03295 0.0
C45 C 0.99765 0.49777 0.01729 0.0
C46 C 0.02055 0.47737 1.00154 0.0
H47 H 0.99265 0.50051 0.0043 0.0
C48 C 0.01937 0.45752 0.99606 0.0
C49 C 0.0269 0.45016 0.97966 0.0
C50 C 0.02973 0.48981 0.99077 0.0
H51 H 0.03082 0.50513 0.9948 0.0
C52 C 0.03767 0.48259 0.97479 0.0
H53 H 0.01193 0.44791 0.00418 0.0
C54 C 0.03624 0.46293 0.96921 0.0
H55 H 0.04248 0.45769 0.9567 0.0
H56 H 0.04484 0.49228 0.96662 0.0
H57 H 0.78048 0.79385 0.24332 0.0
C58 C 0.77984 0.78735 0.22931 0.0
C59 C 0.78741 0.79801 0.21632 0.0
C60 C 0.77271 0.76785 0.22448 0.0
H61 H 0.79237 0.79702 0.18808 0.0
C62 C 0.78705 0.78894 0.19833 0.0
C63 C 0.78012 0.76942 0.19339 0.0
C64 C 0.7729 0.75899 0.20656 0.0
C65 C 0.76694 0.75614 0.23837 0.0
H66 H 0.76802 0.74379 0.20301 0.0
C67 C 0.75046 0.75914 0.2485 0.0
C68 C 0.74475 0.74736 0.26124 0.0
C69 C 0.77783 0.74148 0.24116 0.0
H70 H 0.79056 0.73897 0.23346 0.0
C71 C 0.77245 0.73 0.25393 0.0
H72 H 0.74201 0.77042 0.24628 0.0
C73 C 0.75601 0.73284 0.26387 0.0
H74 H 0.75184 0.72334 0.27333 0.0
H75 H 0.78091 0.7187 0.25599 0.0
H76 H 0.10324 0.95239 0.48212 0.0
C77 C 0.09114 0.9561 0.47438 0.0
C78 C 0.09251 0.97418 0.46911 0.0
C79 C 0.07497 0.94216 0.46833 0.0
H80 H 0.07825 0.99212 0.4539 0.0
C81 C 0.07711 0.97832 0.45823 0.0
C82 C 0.06083 0.9645 0.45205 0.0
C83 C 0.05987 0.94644 0.45729 0.0
C84 C 0.07536 0.92223 0.47095 0.0
H85 H 0.04764 0.93545 0.4524 0.0
C86 C 0.07173 0.91643 0.48761 0.0
C87 C 0.07216 0.89723 0.48962 0.0
C88 C 0.07942 0.90885 0.45635 0.0
H89 H 0.08222 0.91311 0.44343 0.0
C90 C 0.08 0.88991 0.4583 0.0
H91 H 0.06855 0.92676 0.49889 0.0
C92 C 0.0764 0.88411 0.47479 0.0
H93 H 0.07657 0.86922 0.47583 0.0
H94 H 0.08313 0.87966 0.44697 0.0
H95 H 0.26803 0.68616 0.78345 0.0
C96 C 0.26451 0.69546 0.79534 0.0
C97 C 0.27178 0.69304 0.81229 0.0
C98 C 0.25319 0.71007 0.79344 0.0
H99 H 0.27349 0.70397 0.84064 0.0
C100 C 0.26756 0.70551 0.82756 0.0
C101 C 0.25609 0.72019 0.82599 0.0
C102 C 0.24878 0.72222 0.80884 0.0
C103 C 0.24698 0.71305 0.7752 0.0
H104 H 0.24005 0.73351 0.80739 0.0
C105 C 0.22738 0.71535 0.77081 0.0
C106 C 0.22157 0.71668 0.75306 0.0
C107 C 0.26074 0.71291 0.76179 0.0
H108 H 0.27597 0.71148 0.76486 0.0
C109 C 0.25503 0.71458 0.74429 0.0
H110 H 0.21655 0.71532 0.78094 0.0
C111 C 0.23552 0.71627 0.73988 0.0
H112 H 0.23128 0.71732 0.72616 0.0
H113 H 0.26572 0.71439 0.73407 0.0
H114 H 0.97505 0.57657 0.45775 0.0
C115 C 0.96636 0.56473 0.4624 0.0
C116 C 0.96226 0.56602 0.48065 0.0
C117 C 0.95783 0.54889 0.44987 0.0
H118 H 0.94721 0.55171 0.50038 0.0
C119 C 0.95018 0.55091 0.4863 0.0
C120 C 0.9417 0.53492 0.47395 0.0
C121 C 0.94564 0.53402 0.45574 0.0
C122 C 0.95894 0.54919 0.43041 0.0
H123 H 0.93851 0.52216 0.44594 0.0
C124 C 0.97672 0.54807 0.42174 0.0
C125 C 0.9772 0.54856 0.40316 0.0
C126 C 0.94175 0.55073 0.42044 0.0
H127 H 0.92795 0.55161 0.42691 0.0
C128 C 0.94222 0.55135 0.40213 0.0
H129 H 0.99001 0.5468 0.42937 0.0
C130 C 0.95979 0.5503 0.39352 0.0
H131 H 0.9597 0.55051 0.37921 0.0
H132 H 0.92889 0.55257 0.39455 0.0
H133 H 0.83374 0.81508 0.79957 0.0
C134 C 0.83038 0.80395 0.80762 0.0
C135 C 0.83906 0.78705 0.80415 0.0
C136 C 0.81872 0.80727 0.82243 0.0
H137 H 0.84239 0.76041 0.81312 0.0
C138 C 0.83548 0.77328 0.8155 0.0
C139 C 0.82383 0.77637 0.83036 0.0
C140 C 0.81522 0.79327 0.83344 0.0
C141 C 0.81239 0.82628 0.82801 0.0
H142 H 0.80612 0.79585 0.84479 0.0
C143 C 0.80217 0.8353 0.816 0.0
C144 C 0.79657 0.85346 0.82183 0.0
C145 C 0.81696 0.83563 0.84577 0.0
H146 H 0.825 0.82912 0.8552 0.0
C147 C 0.81147 0.85354 0.85153 0.0
H148 H 0.79856 0.82822 0.80229 0.0
C149 C 0.80134 0.8624 0.8397 0.0
H150 H 0.79695 0.87619 0.84464 0.0
H151 H 0.81504 0.86057 0.86524 0.0
H152 H 0.33275 0.31376 0.29719 0.0
C153 C 0.32978 0.30269 0.30537 0.0
C154 C 0.33931 0.28625 0.30238 0.0
C155 C 0.31751 0.30557 0.31977 0.0
H156 H 0.34327 0.25993 0.31173 0.0
C157 C 0.33592 0.27253 0.31382 0.0
C158 C 0.32367 0.27522 0.32831 0.0
C159 C 0.31436 0.29172 0.33096 0.0
C160 C 0.30957 0.32387 0.32461 0.0
H161 H 0.30474 0.29401 0.34196 0.0
C162 C 0.29675 0.33041 0.31271 0.0
C163 C 0.28807 0.34697 0.31846 0.0
C164 C 0.31421 0.33444 0.3419 0.0
H165 H 0.32412 0.32973 0.35122 0.0
C166 C 0.30604 0.35109 0.34739 0.0
H167 H 0.29289 0.32225 0.29942 0.0
C168 C 0.29292 0.35725 0.33583 0.0
H169 H 0.28651 0.37009 0.34044 0.0
H170 H 0.3097 0.35912 0.36074 0.0
H171 H 0.5305 0.97167 0.53539 0.0
C172 C 0.51943 0.98103 0.53451 0.0
C173 C 0.51196 0.99012 0.55026 0.0
C174 C 0.51311 0.98438 0.51759 0.0
H175 H 0.49187 0.00952 0.56079 0.0
C176 C 0.49747 0.00214 0.54878 0.0
C177 C 0.49093 0.0055 0.53186 0.0
C178 C 0.49888 0.99656 0.51639 0.0
C179 C 0.52197 0.97594 0.5011 0.0
H180 H 0.49382 0.99892 0.50327 0.0
C181 C 0.52271 0.95618 0.49715 0.0
C182 C 0.53065 0.94824 0.48114 0.0
C183 C 0.52949 0.98777 0.48907 0.0
H184 H 0.52918 0.00303 0.49189 0.0
C185 C 0.53759 0.98004 0.47334 0.0
H186 H 0.51691 0.94702 0.5064 0.0
C187 C 0.53813 0.96043 0.46935 0.0
H188 H 0.54403 0.95477 0.4568 0.0
H189 H 0.54331 0.98926 0.46413 0.0
H190 H 0.27226 0.29025 0.74231 0.0
C191 C 0.27144 0.28355 0.72834 0.0
C192 C 0.2794 0.29381 0.71525 0.0
C193 C 0.26382 0.26417 0.72369 0.0
H194 H 0.28495 0.29238 0.68713 0.0
C195 C 0.2788 0.28461 0.6973 0.0
C196 C 0.27119 0.26522 0.69249 0.0
C197 C 0.26378 0.25509 0.70582 0.0
C198 C 0.2578 0.25277 0.73772 0.0
H199 H 0.2581 0.24004 0.70235 0.0
C200 C 0.24106 0.25585 0.74744 0.0
C201 C 0.23524 0.24446 0.76045 0.0
C202 C 0.2688 0.23841 0.74115 0.0
H203 H 0.28172 0.23585 0.73375 0.0
C204 C 0.26328 0.22731 0.75419 0.0
H205 H 0.23252 0.2669 0.74473 0.0
C206 C 0.24661 0.23025 0.76376 0.0
H207 H 0.24236 0.22108 0.77348 0.0
H208 H 0.27184 0.21625 0.75676 0.0
H209 H 0.82976 0.24521 0.74415 0.0
C210 C 0.81994 0.23203 0.73973 0.0
C211 C 0.82453 0.21495 0.74458 0.0
C212 C 0.80263 0.23232 0.72939 0.0
H213 H 0.81453 0.18522 0.74398 0.0
C214 C 0.81144 0.19808 0.73924 0.0
C215 C 0.79382 0.19806 0.72906 0.0
C216 C 0.78981 0.21528 0.72381 0.0
C217 C 0.79707 0.25085 0.72626 0.0
H218 H 0.77635 0.21569 0.71603 0.0
C219 C 0.79454 0.25505 0.7088 0.0
C220 C 0.79029 0.27325 0.70629 0.0
C221 C 0.7948 0.26472 0.74113 0.0
H222 H 0.79661 0.26173 0.75466 0.0
C223 C 0.79006 0.28251 0.7387 0.0
H224 H 0.79663 0.24448 0.69731 0.0
C225 C 0.78787 0.28679 0.72144 0.0
H226 H 0.78421 0.30075 0.71995 0.0
H227 H 0.7882 0.29307 0.75024 0.0
H228 H 0.59396 0.55367 0.56132 0.0
C229 C 0.58469 0.55075 0.57218 0.0
C230 C 0.58413 0.53323 0.57854 0.0
C231 C 0.57402 0.56489 0.58032 0.0
H232 H 0.57209 0.51667 0.59818 0.0
C233 C 0.57216 0.52984 0.59282 0.0
C234 C 0.56137 0.54392 0.60105 0.0
C235 C 0.56236 0.56134 0.59462 0.0
C236 C 0.57638 0.58415 0.57526 0.0
H237 H 0.55415 0.57234 0.60087 0.0
C238 C 0.57101 0.587 0.55782 0.0
C239 C 0.57188 0.60567 0.55387 0.0
C240 C 0.5833 0.6 0.58843 0.0
H241 H 0.58758 0.59808 0.6019 0.0
C242 C 0.58473 0.61842 0.58439 0.0
H243 H 0.56538 0.57485 0.54767 0.0
C244 C 0.57895 0.62128 0.56728 0.0
H245 H 0.57999 0.63575 0.5645 0.0
H246 H 0.59012 0.63054 0.59462 0.0
H247 H 0.59811 0.45138 0.98014 0.0
C248 C 0.58667 0.45526 0.97173 0.0
C249 C 0.58926 0.47302 0.96579 0.0
C250 C 0.57017 0.44176 0.96552 0.0
H251 H 0.57676 0.49097 0.94936 0.0
C252 C 0.5747 0.47741 0.95416 0.0
C253 C 0.55806 0.46409 0.94789 0.0
C254 C 0.55591 0.4463 0.95373 0.0
C255 C 0.56923 0.42196 0.96906 0.0
H256 H 0.54334 0.43571 0.94879 0.0
C257 C 0.56797 0.41765 0.98658 0.0
C258 C 0.56737 0.39862 0.98947 0.0
C259 C 0.56982 0.40718 0.95454 0.0
H260 H 0.57083 0.41023 0.94098 0.0
C261 C 0.5694 0.38839 0.95739 0.0
H262 H 0.56739 0.42899 0.99783 0.0
C263 C 0.56821 0.38411 0.97471 0.0
H264 H 0.56754 0.36934 0.97655 0.0
H265 H 0.56991 0.37709 0.94612 0.0
H266 H 0.76552 0.18878 0.28295 0.0
C267 C 0.76273 0.19726 0.29559 0.0
C268 C 0.77021 0.19292 0.31174 0.0
C269 C 0.75181 0.21253 0.29548 0.0
H270 H 0.77241 0.20093 0.34054 0.0
C271 C 0.76639 0.20395 0.32801 0.0
C272 C 0.75543 0.2193 0.32821 0.0
C273 C 0.7479 0.22331 0.31187 0.0
C274 C 0.74614 0.218 0.27809 0.0
H275 H 0.74 0.23546 0.31182 0.0
C276 C 0.72667 0.2208 0.27384 0.0
C277 C 0.72148 0.22463 0.25669 0.0
C278 C 0.76042 0.21984 0.26532 0.0
H279 H 0.77555 0.21801 0.26835 0.0
C280 C 0.75539 0.22406 0.24853 0.0
H281 H 0.7155 0.21924 0.28351 0.0
C282 C 0.73604 0.22631 0.24417 0.0
H283 H 0.73244 0.22947 0.23098 0.0
H284 H 0.7665 0.22546 0.23881 0.0
H285 H 0.47714 0.07349 0.95917 0.0
C286 C 0.4676 0.06218 0.96381 0.0
C287 C 0.46534 0.06263 0.98231 0.0
C288 C 0.45677 0.04768 0.95122 0.0
H289 H 0.4506 0.04849 0.00228 0.0
C290 C 0.45252 0.04809 0.98805 0.0
C291 C 0.44144 0.03358 0.97563 0.0
C292 C 0.44374 0.03349 0.95721 0.0
C293 C 0.45709 0.04859 0.9318 0.0
H294 H 0.43482 0.0228 0.94741 0.0
C295 C 0.47446 0.04743 0.92247 0.0
C296 C 0.47427 0.04831 0.90394 0.0
C297 C 0.43962 0.05062 0.9225 0.0
H298 H 0.42612 0.05156 0.92945 0.0
C299 C 0.43943 0.05167 0.90424 0.0
H300 H 0.48796 0.04577 0.92957 0.0
C301 C 0.4566 0.05054 0.895 0.0
H302 H 0.45596 0.05104 0.88074 0.0
H303 H 0.4259 0.05327 0.8972 0.0
C304 C 0.2275 0.90536 0.02077 0.0
O305 O 0.24194 0.91166 0.01135 0.0
O306 O 0.24464 0.85389 1.00009 0.0
Zn307 Zn 0.25054 0.87397 0.0223 0.0
O308 O 0.27565 0.89074 0.01856 0.0
C309 C 0.26841 0.85078 0.04443 0.0
O310 O 0.28025 0.84914 0.03112 0.0
O311 O 0.22795 0.88963 0.0265 0.0
C312 C 0.28253 0.90604 0.02904 0.0
O313 O 0.27318 0.91148 0.04346 0.0
C314 C 0.24636 0.85875 0.98468 0.0
O315 O 0.25103 0.8769 0.98361 0.0
O316 O 0.25456 0.8609 0.04371 0.0
C317 C 0.15498 0.46185 0.25737 0.0
O318 O 0.13844 0.46193 0.26566 0.0
O319 O 0.12734 0.50092 0.26771 0.0
Zn320 Zn 0.14359 0.49607 0.24572 0.0
O321 O 0.16248 0.51979 0.24362 0.0
C322 C 0.10732 0.48808 0.22225 0.0
O323 O 0.09828 0.49029 0.23734 0.0
O324 O 0.1599 0.47478 0.24799 0.0
C325 C 0.15755 0.53237 0.23483 0.0
O326 O 0.1397 0.53015 0.22725 0.0
C327 C 0.12095 0.5168 0.27227 0.0
O328 O 0.1251 0.53039 0.26265 0.0
O329 O 0.12602 0.48934 0.22282 0.0
C330 C 0.84109 0.61952 0.9917 0.0
O331 O 0.84544 0.63281 0.98177 0.0
O332 O 0.80656 0.64466 0.96975 0.0
Zn333 Zn 0.80126 0.63062 0.99093 0.0
O334 O 0.77662 0.61154 0.98547 0.0
C335 C 0.81077 0.65992 0.0225 0.0
O336 O 0.82881 0.66018 0.01713 0.0
O337 O 0.82362 0.61634 0.99668 0.0
C338 C 0.76986 0.60347 0.99825 0.0
O339 O 0.77927 0.60779 0.01412 0.0
C340 C 0.80452 0.66221 0.9708 0.0
O341 O 0.799 0.67136 0.98586 0.0
O342 O 0.79685 0.64876 0.01328 0.0
C343 C 0.89199 0.04236 0.29824 0.0
O344 O 0.88926 0.02853 0.3078 0.0
O345 O 0.93525 0.01611 0.30333 0.0
Zn346 Zn 0.91913 0.01871 0.28109 0.0
O347 O 0.89918 0.99497 0.27441 0.0
C348 C 0.94567 0.00853 0.25287 0.0
O349 O 0.94271 0.99178 0.25806 0.0
O350 O 0.9044 0.04143 0.28611 0.0
C351 C 0.89369 0.98747 0.25833 0.0
O352 O 0.90075 0.99556 0.24503 0.0
C353 C 0.93868 0.9996 0.30563 0.0
O354 O 0.93161 0.98477 0.29356 0.0
O355 O 0.93723 0.02209 0.26076 0.0
C356 C 0.34331 0.11963 0.49009 0.0
O357 O 0.34797 0.13336 0.48071 0.0
O358 O 0.30949 0.14666 0.46996 0.0
Zn359 Zn 0.30422 0.1323 0.49083 0.0
O360 O 0.2787 0.11435 0.48618 0.0
C361 C 0.29393 0.16543 0.51513 0.0
O362 O 0.2863 0.17021 0.50059 0.0
O363 O 0.32589 0.11672 0.49523 0.0
C364 C 0.27214 0.10624 0.499 0.0
O365 O 0.28221 0.10986 0.51455 0.0
C366 C 0.29521 0.15095 0.46092 0.0
O367 O 0.27712 0.1457 0.46513 0.0
O368 O 0.3023 0.15048 0.51383 0.0
C369 C 0.40374 0.55195 0.79295 0.0
O370 O 0.42073 0.55373 0.80205 0.0
O371 O 0.4315 0.51355 0.79832 0.0
Zn372 Zn 0.4143 0.51507 0.77642 0.0
O373 O 0.39512 0.49064 0.77059 0.0
C374 C 0.4447 0.53154 0.75488 0.0
O375 O 0.44805 0.54526 0.76883 0.0
O376 O 0.39842 0.53703 0.7814 0.0
C377 C 0.39789 0.47734 0.75801 0.0
O378 O 0.41347 0.47959 0.74851 0.0
C379 C 0.43874 0.4982 0.79901 0.0
O380 O 0.43512 0.48413 0.78538 0.0
O381 O 0.43114 0.51773 0.75524 0.0
C382 C 0.73076 0.41017 0.5335 0.0
O383 O 0.74892 0.41873 0.53701 0.0
O384 O 0.74576 0.35784 0.50063 0.0
Zn385 Zn 0.75124 0.37767 0.52333 0.0
O386 O 0.7751 0.39633 0.51958 0.0
C387 C 0.7647 0.34993 0.54381 0.0
O388 O 0.77143 0.34313 0.52838 0.0
O389 O 0.72785 0.39233 0.52751 0.0
C390 C 0.79216 0.39767 0.52719 0.0
O391 O 0.79528 0.38639 0.5388 0.0
C392 C 0.76012 0.35329 0.49139 0.0
O393 O 0.77803 0.36154 0.49679 0.0
O394 O 0.75584 0.3646 0.54488 0.0
C395 C 0.67302 0.97801 0.76002 0.0
O396 O 0.67836 0.99596 0.76722 0.0
O397 O 0.62426 1.00006 0.76808 0.0
Zn398 Zn 0.64113 0.9948 0.74662 0.0
O399 O 0.66001 0.01849 0.74428 0.0
C400 C 0.60546 0.98539 0.72241 0.0
O401 O 0.59597 0.98694 0.73728 0.0
O402 O 0.65707 0.97358 0.75028 0.0
C403 C 0.65515 0.03079 0.73512 0.0
O404 O 0.63742 0.02827 0.72724 0.0
C405 C 0.61714 0.01567 0.77185 0.0
O406 O 0.62087 0.0288 0.76166 0.0
O407 O 0.62419 0.98748 0.72339 0.0
C408 C 0.01963 0.18934 0.90222 0.0
O409 O 1.00142 0.19238 0.89921 0.0
O410 O 0.00566 0.21262 0.8636 0.0
Zn411 Zn 0.03024 0.21929 0.88033 0.0
O412 O 0.02901 0.24431 0.89667 0.0
C413 C 0.05399 0.22651 0.85006 0.0
O414 O 0.03701 0.22784 0.8421 0.0
O415 O 0.03357 0.19884 0.89541 0.0
C416 C 0.02639 0.25887 0.88968 0.0
O417 O 0.02453 0.25713 0.87211 0.0
C418 C 0.98962 0.21855 0.86833 0.0
O419 O 0.98883 0.22799 0.88463 0.0
O420 O 0.0544 0.22278 0.86597 0.0
C421 C 0.5308 0.69923 0.40863 0.0
O422 O 0.52138 0.71374 0.41412 0.0
O423 O 0.51447 0.71443 0.36101 0.0
Zn424 Zn 0.53786 0.71975 0.379 0.0
O425 O 0.53584 0.74433 0.39565 0.0
C426 C 0.56333 0.72841 0.35059 0.0
O427 O 0.54675 0.73103 0.34274 0.0
O428 O 0.53883 0.6984 0.39363 0.0
C429 C 0.53225 0.75895 0.3892 0.0
O430 O 0.52998 0.75774 0.3717 0.0
C431 C 0.49685 0.71117 0.36558 0.0
O432 O 0.49361 0.71022 0.38248 0.0
O433 O 0.56306 0.72335 0.36599 0.0
C434 C 0.01024 0.79223 0.62891 0.0
O435 O 0.99184 0.79051 0.63342 0.0
O436 O 0.98987 0.76466 0.66234 0.0
Zn437 Zn 0.01292 0.7592 0.64698 0.0
O438 O 0.00525 0.73576 0.62806 0.0
C439 C 0.04025 0.73896 0.66442 0.0
O440 O 0.02889 0.7238 0.65589 0.0
O441 O 0.02152 0.78097 0.6337 0.0
C442 C 0.01789 0.73107 0.61681 0.0
O443 O 0.03534 0.74139 0.61817 0.0
C444 C 0.98748 0.75713 0.67642 0.0
O445 O 0.99989 0.74578 0.68054 0.0
O446 O 0.03622 0.75545 0.66273 0.0
C447 C 0.51295 0.29468 0.13029 0.0
O448 O 0.49556 0.29509 0.137 0.0
O449 O 0.49064 0.26464 0.161 0.0
Zn450 Zn 0.51347 0.25921 0.14542 0.0
O451 O 0.5054 0.23618 0.12611 0.0
C452 C 0.54273 0.26425 0.17548 0.0
O453 O 0.53406 0.27909 0.18164 0.0
O454 O 0.52276 0.2813 0.1327 0.0
C455 C 0.50819 0.21942 0.12817 0.0
O456 O 0.51572 0.21676 0.14365 0.0
C457 C 0.4872 0.25555 0.17398 0.0
O458 O 0.49839 0.24263 0.1768 0.0
O459 O 0.53645 0.25403 0.16055 0.0
H460 H 0.2575 0.75895 0.82911 0.0
H461 H 0.25354 0.78177 0.85596 0.0
H462 H 0.24385 0.73573 0.88654 0.0
H463 H 0.24708 0.71268 0.85952 0.0
H464 H 0.21901 0.76175 0.89548 0.0
H465 H 0.28838 0.76283 0.88906 0.0
H466 H 0.31925 0.76553 0.87327 0.0
H467 H 0.3118 0.82248 0.86603 0.0
H468 H 0.28071 0.82003 0.88155 0.0
H469 H 0.23926 0.8198 0.98214 0.0
H470 H 0.23877 0.79583 0.9551 0.0
H471 H 0.24904 0.84055 0.92306 0.0
H472 H 0.2498 0.86457 0.95 0.0
H473 H 0.27342 0.81457 0.91519 0.0
H474 H 0.20386 0.81334 0.92199 0.0
H475 H 0.17317 0.81038 0.93802 0.0
H476 H 0.18129 0.75352 0.94508 0.0
H477 H 0.21218 0.75624 0.9293 0.0
C478 C 0.25419 0.75361 0.84146 0.0
C479 C 0.25267 0.73397 0.84216 0.0
C480 C 0.25213 0.76671 0.85685 0.0
C481 C 0.2487 0.76049 0.87333 0.0
C482 C 0.24659 0.74086 0.87399 0.0
C483 C 0.24861 0.72773 0.85857 0.0
C484 C 0.24787 0.77454 0.88994 0.0
C485 C 0.231 0.77317 0.89993 0.0
C486 C 0.26338 0.78962 0.89559 0.0
C487 C 0.28212 0.79117 0.88632 0.0
C488 C 0.29325 0.77588 0.88398 0.0
C489 C 0.31079 0.77737 0.8751 0.0
C490 C 0.31746 0.79415 0.86861 0.0
C491 C 0.3066 0.80949 0.87104 0.0
C492 C 0.28903 0.80806 0.87989 0.0
C493 C 0.24124 0.82454 0.96931 0.0
C494 C 0.24461 0.84412 0.96824 0.0
C495 C 0.24089 0.81081 0.95385 0.0
C496 C 0.24376 0.81639 0.93702 0.0
C497 C 0.24682 0.83591 0.9359 0.0
C498 C 0.24719 0.84963 0.95133 0.0
C499 C 0.24446 0.80195 0.92067 0.0
C500 C 0.26138 0.8032 0.91074 0.0
C501 C 0.22903 0.78675 0.91516 0.0
C502 C 0.21044 0.78507 0.92462 0.0
C503 C 0.19919 0.80026 0.92709 0.0
C504 C 0.18174 0.79862 0.93611 0.0
C505 C 0.17531 0.78179 0.94261 0.0
C506 C 0.1863 0.76656 0.94006 0.0
C507 C 0.20377 0.76814 0.93107 0.0
H508 H 0.16179 0.78055 0.94959 0.0
H509 H 0.33105 0.79528 0.86174 0.0
H510 H 0.00192 0.52149 0.40357 0.0
H511 H 0.02871 0.51567 0.38355 0.0
H512 H 0.02013 0.56564 0.36056 0.0
H513 H 0.99321 0.57122 0.38024 0.0
H514 H 0.0203 0.5365 0.33502 0.0
H515 H 0.06152 0.56322 0.38819 0.0
H516 H 0.0737 0.56585 0.4197 0.0
H517 H 0.08874 0.50894 0.40877 0.0
H518 H 0.07639 0.50589 0.37724 0.0
H519 H 0.10254 0.54784 0.28321 0.0
H520 H 0.08025 0.55235 0.30753 0.0
H521 H 0.08795 0.49726 0.32065 0.0
H522 H 0.11042 0.49255 0.2962 0.0
H523 H 0.08831 0.52617 0.35128 0.0
H524 H 0.04796 0.5001 0.29786 0.0
H525 H 0.03628 0.49791 0.26627 0.0
H526 H 0.01971 0.55417 0.27792 0.0
H527 H 0.03158 0.55682 0.30954 0.0
C528 C 0.00609 0.53144 0.39451 0.0
C529 C 0.99544 0.54674 0.39337 0.0
C530 C 0.02139 0.52811 0.38306 0.0
C531 C 0.02646 0.5402 0.37048 0.0
C532 C 0.01642 0.55601 0.37001 0.0
C533 C 1.00107 0.55922 0.38129 0.0
C534 C 0.0411 0.53575 0.35685 0.0
C535 C 0.03524 0.53451 0.33866 0.0
C536 C 0.06042 0.53244 0.36146 0.0
C537 C 0.06783 0.53425 0.38041 0.0
C538 C 0.06726 0.55121 0.39255 0.0
C539 C 0.07423 0.55279 0.4104 0.0
C540 C 0.08194 0.53755 0.41625 0.0
C541 C 0.08274 0.52072 0.40423 0.0
C542 C 0.07577 0.51906 0.38637 0.0
C543 C 0.09963 0.53668 0.29129 0.0
C544 C 0.10818 0.51976 0.28765 0.0
C545 C 0.08684 0.53929 0.30519 0.0
C546 C 0.0823 0.52507 0.31579 0.0
C547 C 0.09126 0.5084 0.31261 0.0
C548 C 0.10402 0.50571 0.29859 0.0
C549 C 0.06755 0.52745 0.32963 0.0
C550 C 0.07333 0.52816 0.34775 0.0
C551 C 0.04813 0.53032 0.32502 0.0
C552 C 0.04082 0.52872 0.30604 0.0
C553 C 0.04197 0.51207 0.29366 0.0
C554 C 0.03529 0.51073 0.27575 0.0
C555 C 0.0273 0.52591 0.27008 0.0
C556 C 0.02592 0.54244 0.28233 0.0
C557 C 0.03261 0.54385 0.30025 0.0
H558 H 0.02214 0.52485 0.25622 0.0
H559 H 0.08733 0.5388 0.43007 0.0
H560 H 0.82435 0.78512 0.86701 0.0
H561 H 0.82206 0.76344 0.88877 0.0
H562 H 0.81839 0.71532 0.84591 0.0
H563 H 0.81956 0.73701 0.82381 0.0
H564 H 0.79344 0.70739 0.87048 0.0
H565 H 0.8615 0.73157 0.87206 0.0
H566 H 0.89071 0.75596 0.87392 0.0
H567 H 0.87654 0.7807 0.92668 0.0
H568 H 0.84708 0.75662 0.92504 0.0
H569 H 0.80979 0.64691 0.93582 0.0
H570 H 0.81444 0.66397 0.91023 0.0
H571 H 0.81167 0.7173 0.94511 0.0
H572 H 0.80698 0.70046 0.97062 0.0
H573 H 0.84239 0.7194 0.9223 0.0
H574 H 0.77247 0.69616 0.91873 0.0
H575 H 0.74368 0.67121 0.91639 0.0
H576 H 0.76276 0.64354 0.86657 0.0
H577 H 0.79182 0.66821 0.86875 0.0
C578 C 0.82269 0.76993 0.86209 0.0
C579 C 0.82205 0.76286 0.84357 0.0
C580 C 0.8217 0.75752 0.87463 0.0
C581 C 0.82045 0.73773 0.86904 0.0
C582 C 0.8195 0.73054 0.85057 0.0
C583 C 0.82032 0.74298 0.83795 0.0
C584 C 0.82004 0.72472 0.88261 0.0
C585 C 0.80437 0.7098 0.88162 0.0
C586 C 0.8342 0.72789 0.89726 0.0
C587 C 0.85199 0.74235 0.89837 0.0
C588 C 0.86454 0.74228 0.88401 0.0
C589 C 0.88115 0.75605 0.88503 0.0
C590 C 0.88546 0.76989 0.90039 0.0
C591 C 0.87318 0.76997 0.91479 0.0
C592 C 0.85653 0.75625 0.91383 0.0
C593 C 0.81024 0.66227 0.93804 0.0
C594 C 0.80795 0.67231 0.95526 0.0
C595 C 0.81283 0.67199 0.92339 0.0
C596 C 0.81329 0.6919 0.92575 0.0
C597 C 0.81137 0.70194 0.94298 0.0
C598 C 0.80862 0.69226 0.95755 0.0
C599 C 0.81557 0.70244 0.91036 0.0
C600 C 0.83163 0.71687 0.91102 0.0
C601 C 0.80191 0.69868 0.89534 0.0
C602 C 0.78443 0.68389 0.89401 0.0
C603 C 0.77062 0.68466 0.90736 0.0
C604 C 0.75423 0.67059 0.90604 0.0
C605 C 0.75143 0.65576 0.89137 0.0
C606 C 0.76497 0.65501 0.87795 0.0
C607 C 0.78139 0.66904 0.87921 0.0
H608 H 0.73873 0.64488 0.89037 0.0
H609 H 0.89833 0.78053 0.90116 0.0
H610 H 0.04382 0.94032 0.42221 0.0
H611 H 0.02191 0.94745 0.39887 0.0
H612 H 0.0233 0.0048 0.4274 0.0
H613 H 0.04454 0.99749 0.45137 0.0
H614 H 0.98708 0.9912 0.41284 0.0
H615 H 0.05229 0.99561 0.39223 0.0
H616 H 0.08436 0.98487 0.38551 0.0
H617 H 0.05554 0.93723 0.34782 0.0
H618 H 0.02325 0.94753 0.35452 0.0
H619 H 0.9529 0.02637 0.33493 0.0
H620 H 0.97282 0.02161 0.36099 0.0
H621 H 0.9713 0.96222 0.33832 0.0
H622 H 0.95151 0.96681 0.31231 0.0
H623 H 0.00843 0.97922 0.35042 0.0
H624 H 0.94286 0.97509 0.37222 0.0
H625 H 0.91122 0.98672 0.37912 0.0
H626 H 0.94161 0.03544 0.41451 0.0
H627 H 0.97346 0.02423 0.40762 0.0
C628 C 0.03912 0.95432 0.4238 0.0
C629 C 0.04603 0.96836 0.43868 0.0
C630 C 0.02678 0.95846 0.41029 0.0
C631 C 0.0213 0.97679 0.41119 0.0
C632 C 0.02747 0.99061 0.42635 0.0
C633 C 0.03973 0.98644 0.43997 0.0
C634 C 0.00974 0.98163 0.39597 0.0
C635 C 0.99188 0.98884 0.39923 0.0
C636 C 0.01592 0.97842 0.37817 0.0
C637 C 0.03533 0.97225 0.374 0.0
C638 C 0.05278 0.98277 0.3826 0.0
C639 C 0.071 0.97677 0.37878 0.0
C640 C 0.07198 0.96035 0.36627 0.0
C641 C 0.05475 0.94993 0.35752 0.0
C642 C 0.03648 0.95585 0.36131 0.0
C643 C 0.95679 0.0123 0.33551 0.0
C644 C 0.95061 0.99697 0.32154 0.0
C645 C 0.9681 0.00959 0.35044 0.0
C646 C 0.97343 0.99153 0.35163 0.0
C647 C 0.96735 0.97627 0.33767 0.0
C648 C 0.95599 0.97892 0.32283 0.0
C649 C 0.98562 0.98845 0.36723 0.0
C650 C 0.00367 0.98164 0.36404 0.0
C651 C 0.97969 0.99221 0.38507 0.0
C652 C 0.96055 0.99893 0.38925 0.0
C653 C 0.9428 0.98837 0.38135 0.0
C654 C 0.92483 0.99487 0.38528 0.0
C655 C 0.92441 0.01184 0.3972 0.0
C656 C 0.94196 0.02232 0.40525 0.0
C657 C 0.95997 0.01589 0.40135 0.0
H658 H 0.91048 0.01685 0.40023 0.0
H659 H 0.0861 0.95573 0.36334 0.0
H660 H 0.28365 0.23075 0.68175 0.0
H661 H 0.28708 0.21499 0.65108 0.0
H662 H 0.26533 0.26157 0.63037 0.0
H663 H 0.26158 0.27735 0.66112 0.0
H664 H 0.24905 0.2257 0.61177 0.0
H665 H 0.31297 0.25991 0.63139 0.0
H666 H 0.34247 0.26973 0.65198 0.0
H667 H 0.35414 0.21165 0.64579 0.0
H668 H 0.32452 0.20143 0.62536 0.0
H669 H 0.27831 0.19891 0.52285 0.0
H670 H 0.27433 0.217 0.55251 0.0
H671 H 0.30087 0.17558 0.57745 0.0
H672 H 0.30525 0.15764 0.54791 0.0
H673 H 0.31481 0.21059 0.59351 0.0
H674 H 0.25068 0.17582 0.57539 0.0
H675 H 0.22081 0.16513 0.55539 0.0
H676 H 0.20918 0.22307 0.55922 0.0
H677 H 0.23915 0.23414 0.57907 0.0
C678 C 0.27934 0.23752 0.67067 0.0
C679 C 0.27233 0.25528 0.67383 0.0
C680 C 0.28146 0.22858 0.65316 0.0
C681 C 0.27665 0.23722 0.63848 0.0
C682 C 0.26918 0.25472 0.64154 0.0
C683 C 0.26716 0.26374 0.65908 0.0
C684 C 0.27976 0.22807 0.61997 0.0
C685 C 0.26347 0.22265 0.60765 0.0
C686 C 0.29851 0.22376 0.61478 0.0
C687 C 0.31642 0.22988 0.62696 0.0
C688 C 0.32174 0.24921 0.63452 0.0
C689 C 0.33849 0.25485 0.64615 0.0
C690 C 0.35015 0.24132 0.65022 0.0
C691 C 0.34509 0.22212 0.64264 0.0
C692 C 0.32833 0.21639 0.63102 0.0
C693 C 0.28335 0.19368 0.53465 0.0
C694 C 0.29203 0.17679 0.53301 0.0
C695 C 0.28099 0.204 0.55159 0.0
C696 C 0.28707 0.19751 0.56721 0.0
C697 C 0.29605 0.18085 0.56559 0.0
C698 C 0.29851 0.17059 0.54867 0.0
C699 C 0.28405 0.208 0.58529 0.0
C700 C 0.30039 0.21371 0.59755 0.0
C701 C 0.26531 0.21245 0.59045 0.0
C702 C 0.24727 0.20583 0.57856 0.0
C703 C 0.24184 0.1863 0.57185 0.0
C704 C 0.22488 0.18017 0.56056 0.0
C705 C 0.21314 0.19342 0.55599 0.0
C706 C 0.21831 0.21283 0.56275 0.0
C707 C 0.23527 0.21904 0.57403 0.0
H708 H 0.20001 0.18865 0.54725 0.0
H709 H 0.36312 0.24572 0.65923 0.0
H710 H 0.5604 0.56915 0.63205 0.0
H711 H 0.54082 0.56511 0.65788 0.0
H712 H 0.51714 0.50806 0.63238 0.0
H713 H 0.53649 0.5122 0.60616 0.0
H714 H 0.48845 0.52819 0.64677 0.0
H715 H 0.55124 0.51448 0.66661 0.0
H716 H 0.58729 0.52024 0.67239 0.0
H717 H 0.58239 0.57186 0.70859 0.0
H718 H 0.54631 0.56656 0.70283 0.0
H719 H 0.44367 0.50396 0.72515 0.0
H720 H 0.46372 0.5045 0.69908 0.0
H721 H 0.49285 0.56053 0.72227 0.0
H722 H 0.47312 0.55993 0.7486 0.0
H723 H 0.51894 0.53878 0.70868 0.0
H724 H 0.45677 0.55375 0.68776 0.0
H725 H 0.42075 0.54876 0.68176 0.0
H726 H 0.42448 0.49559 0.6475 0.0
H727 H 0.46052 0.50014 0.65349 0.0
C728 C 0.55095 0.55577 0.63186 0.0
C729 C 0.54991 0.54102 0.617 0.0
C730 C 0.5399 0.55341 0.64673 0.0
C731 C 0.52764 0.53622 0.64714 0.0
C732 C 0.52655 0.52143 0.63235 0.0
C733 C 0.53769 0.52376 0.61745 0.0
C734 C 0.5157 0.53398 0.66291 0.0
C735 C 0.49512 0.53016 0.66028 0.0
C736 C 0.52439 0.53703 0.68058 0.0
C737 C 0.54608 0.5402 0.68417 0.0
C738 C 0.55786 0.52714 0.6757 0.0
C739 C 0.5783 0.5303 0.67899 0.0
C740 C 0.58713 0.54642 0.69082 0.0
C741 C 0.57553 0.55939 0.69942 0.0
C742 C 0.55508 0.5563 0.69616 0.0
C743 C 0.45431 0.51643 0.72471 0.0
C744 C 0.45673 0.53195 0.73895 0.0
C745 C 0.46572 0.51674 0.70974 0.0
C746 C 0.47964 0.53265 0.70858 0.0
C747 C 0.4822 0.54809 0.72285 0.0
C748 C 0.47086 0.54776 0.73787 0.0
C749 C 0.49164 0.53318 0.69258 0.0
C750 C 0.51225 0.53668 0.69517 0.0
C751 C 0.48297 0.52993 0.67487 0.0
C752 C 0.46132 0.52719 0.67122 0.0
C753 C 0.44989 0.54092 0.67906 0.0
C754 C 0.42947 0.53819 0.67564 0.0
C755 C 0.42032 0.52184 0.66429 0.0
C756 C 0.43158 0.50822 0.6563 0.0
C757 C 0.45201 0.51088 0.65969 0.0
H758 H 0.40451 0.51975 0.66166 0.0
H759 H 0.60296 0.54885 0.69335 0.0
H760 H 0.77112 0.25216 0.67557 0.0
H761 H 0.7674 0.26211 0.64612 0.0
H762 H 0.80196 0.31642 0.66675 0.0
H763 H 0.8061 0.30645 0.69588 0.0
H764 H 0.75004 0.29135 0.63703 0.0
H765 H 0.82825 0.3326 0.63414 0.0
H766 H 0.8625 0.33078 0.64404 0.0
H767 H 0.84814 0.27051 0.64344 0.0
H768 H 0.81389 0.27191 0.6333 0.0
H769 H 0.75079 0.35869 0.57733 0.0
H770 H 0.75526 0.34284 0.60331 0.0
H771 H 0.78907 0.30402 0.57221 0.0
H772 H 0.78481 0.31983 0.54624 0.0
H773 H 0.80667 0.31708 0.60477 0.0
H774 H 0.74221 0.28907 0.58105 0.0
H775 H 0.70794 0.28881 0.56995 0.0
H776 H 0.69476 0.31835 0.62125 0.0
H777 H 0.72905 0.31902 0.63259 0.0
C778 C 0.77815 0.2661 0.67371 0.0
C779 C 0.78883 0.27855 0.68808 0.0
C780 C 0.77589 0.27182 0.65694 0.0
C781 C 0.78449 0.28998 0.65419 0.0
C782 C 0.79537 0.30228 0.66846 0.0
C783 C 0.79758 0.29661 0.68517 0.0
C784 C 0.78166 0.29646 0.63665 0.0
C785 C 0.76242 0.2969 0.62993 0.0
C786 C 0.7978 0.30344 0.62723 0.0
C787 C 0.81845 0.3024 0.6331 0.0
C788 C 0.83242 0.31894 0.63603 0.0
C789 C 0.85184 0.31799 0.64171 0.0
C790 C 0.85748 0.30055 0.64441 0.0
C791 C 0.84374 0.28402 0.6414 0.0
C792 C 0.82431 0.28489 0.63571 0.0
C793 C 0.75917 0.34678 0.57601 0.0
C794 C 0.76741 0.34052 0.55968 0.0
C795 C 0.76164 0.33767 0.59085 0.0
C796 C 0.77234 0.32211 0.58966 0.0
C797 C 0.78073 0.31597 0.57344 0.0
C798 C 0.77823 0.32502 0.55859 0.0
C799 C 0.77505 0.31243 0.6054 0.0
C800 C 0.79428 0.31143 0.6118 0.0
C801 C 0.7589 0.30467 0.61436 0.0
C802 C 0.73825 0.30423 0.60762 0.0
C803 C 0.73204 0.29564 0.58993 0.0
C804 C 0.71261 0.29539 0.5836 0.0
C805 C 0.69919 0.30359 0.59488 0.0
C806 C 0.70518 0.31202 0.61252 0.0
C807 C 0.72461 0.31231 0.61891 0.0
H808 H 0.68415 0.30339 0.58995 0.0
H809 H 0.87251 0.29985 0.64881 0.0
H810 H 0.55047 0.98977 0.56062 0.0
H811 H 0.56409 0.98631 0.58997 0.0
H812 H 0.50588 0.98241 0.61015 0.0
H813 H 0.49203 0.9857 0.58063 0.0
H814 H 0.53241 0.00635 0.6334 0.0
H815 H 0.52837 0.94282 0.60115 0.0
H816 H 0.53337 0.91793 0.57581 0.0
H817 H 0.59604 0.93311 0.58415 0.0
H818 H 0.59142 0.95829 0.60939 0.0
H819 H 0.56552 0.98116 0.71544 0.0
H820 H 0.54778 0.97941 0.68646 0.0
H821 H 0.60286 0.98275 0.66045 0.0
H822 H 0.62068 0.9842 0.68929 0.0
H823 H 0.57537 0.95709 0.64061 0.0
H824 H 0.57941 0.02208 0.671 0.0
H825 H 0.57476 0.04739 0.69609 0.0
H826 H 0.51229 0.02965 0.691 0.0
H827 H 0.5166 0.00405 0.66601 0.0
C828 C 0.54048 0.98788 0.5712 0.0
C829 C 0.52011 0.98782 0.5682 0.0
C830 C 0.54832 0.98595 0.588 0.0
C831 C 0.53598 0.98383 0.60221 0.0
C832 C 0.51567 0.98398 0.59937 0.0
C833 C 0.50778 0.98591 0.58251 0.0
C834 C 0.54449 0.9819 0.62008 0.0
C835 C 0.5415 0.99535 0.63504 0.0
C836 C 0.55668 0.9678 0.62216 0.0
C837 C 0.55954 0.95255 0.60708 0.0
C838 C 0.54322 0.94094 0.59751 0.0
C839 C 0.54598 0.92677 0.58317 0.0
C840 C 0.56501 0.92396 0.57835 0.0
C841 C 0.58131 0.9353 0.58789 0.0
C842 C 0.57863 0.94951 0.60223 0.0
C843 C 0.57387 0.98136 0.70354 0.0
C844 C 0.59455 0.98293 0.70472 0.0
C845 C 0.5637 0.98044 0.68699 0.0
C846 C 0.574 0.98123 0.67131 0.0
C847 C 0.59459 0.98216 0.67236 0.0
C848 C 0.60477 0.98303 0.68889 0.0
C849 C 0.56347 0.98167 0.65388 0.0
C850 C 0.56611 0.96795 0.639 0.0
C851 C 0.55098 0.99555 0.65186 0.0
C852 C 0.54835 0.01102 0.66678 0.0
C853 C 0.56469 0.02349 0.67532 0.0
C854 C 0.56212 0.0379 0.68951 0.0
C855 C 0.54324 0.04009 0.69517 0.0
C856 C 0.5269 0.02791 0.68662 0.0
C857 C 0.5294 0.01346 0.67244 0.0
H858 H 0.54128 0.05125 0.70616 0.0
H859 H 0.56712 0.91299 0.56724 0.0
H860 H 0.83663 0.23884 0.77589 0.0
H861 H 0.8654 0.23834 0.79568 0.0
H862 H 0.88156 0.19064 0.75938 0.0
H863 H 0.8523 0.19073 0.73984 0.0
H864 H 0.88661 0.1845 0.79182 0.0
H865 H 0.90634 0.2375 0.76258 0.0
H866 H 0.90369 0.26775 0.75161 0.0
H867 H 0.90202 0.29652 0.80581 0.0
H868 H 0.90438 0.26636 0.8171 0.0
H869 H 0.98425 0.19664 0.83482 0.0
H870 H 0.95674 0.19477 0.81271 0.0
H871 H 0.92934 0.2341 0.84993 0.0
H872 H 0.95656 0.23592 0.8721 0.0
H873 H 0.93191 0.24377 0.81519 0.0
H874 H 0.91112 0.18892 0.84349 0.0
H875 H 0.91502 0.1583 0.85326 0.0
H876 H 0.92085 0.13276 0.79864 0.0
H877 H 0.91727 0.16333 0.78857 0.0
C878 C 0.84643 0.22837 0.77207 0.0
C879 C 0.84235 0.21493 0.75627 0.0
C880 C 0.86291 0.22811 0.78336 0.0
C881 C 0.87593 0.21469 0.77889 0.0
C882 C 0.8718 0.20117 0.76312 0.0
C883 C 0.85512 0.20124 0.75195 0.0
C884 C 0.89357 0.21456 0.79088 0.0
C885 C 0.89669 0.19742 0.79666 0.0
C886 C 0.9067 0.23142 0.7974 0.0
C887 C 0.90537 0.24962 0.79067 0.0
C888 C 0.90527 0.25024 0.77215 0.0
C889 C 0.90384 0.26738 0.76588 0.0
C890 C 0.90264 0.28404 0.778 0.0
C891 C 0.90293 0.2836 0.79643 0.0
C892 C 0.90433 0.26649 0.80278 0.0
C893 C 0.97229 0.20477 0.83834 0.0
C894 C 0.97259 0.21641 0.85523 0.0
C895 C 0.95659 0.20367 0.82571 0.0
C896 C 0.94102 0.2143 0.82971 0.0
C897 C 0.94124 0.22582 0.84658 0.0
C898 C 0.95678 0.22676 0.85926 0.0
C899 C 0.92466 0.21384 0.81624 0.0
C900 C 0.92186 0.23087 0.81019 0.0
C901 C 0.91205 0.19685 0.80926 0.0
C902 C 0.91415 0.17847 0.81531 0.0
C903 C 0.91342 0.17683 0.83358 0.0
C904 C 0.91553 0.15947 0.83917 0.0
C905 C 0.91824 0.14361 0.82659 0.0
C906 C 0.91879 0.14507 0.80838 0.0
C907 C 0.9167 0.1624 0.80272 0.0
H908 H 0.91987 0.13018 0.83094 0.0
H909 H 0.90154 0.29729 0.77311 0.0
H910 H 0.50104 0.91968 0.48476 0.0
H911 H 0.49981 0.88542 0.4741 0.0
H912 H 0.5582 0.89534 0.45493 0.0
H913 H 0.55982 0.92939 0.46616 0.0
H914 H 0.50011 0.86787 0.4411 0.0
H915 H 0.58194 0.85745 0.45493 0.0
H916 H 0.60873 0.86917 0.47819 0.0
H917 H 0.56635 0.88204 0.51729 0.0
H918 H 0.53929 0.87014 0.49434 0.0
H919 H 0.52752 0.79327 0.37952 0.0
H920 H 0.52538 0.82335 0.39916 0.0
H921 H 0.53113 0.79597 0.44562 0.0
H922 H 0.53369 0.7658 0.42601 0.0
H923 H 0.55346 0.82936 0.45077 0.0
H924 H 0.48652 0.80739 0.43246 0.0
H925 H 0.45797 0.79443 0.41138 0.0
H926 H 0.46715 0.84397 0.38571 0.0
H927 H 0.49594 0.85712 0.40648 0.0
C928 C 0.5138 0.9145 0.47867 0.0
C929 C 0.53051 0.92728 0.47625 0.0
C930 C 0.51301 0.89493 0.47245 0.0
C931 C 0.52894 0.88776 0.4638 0.0
C932 C 0.54582 0.90045 0.4618 0.0
C933 C 0.54665 0.91997 0.46804 0.0
C934 C 0.52751 0.86729 0.45569 0.0
C935 C 0.5117 0.85941 0.44333 0.0
C936 C 0.54238 0.85605 0.4589 0.0
C937 C 0.55858 0.86302 0.47285 0.0
C938 C 0.57832 0.86268 0.46851 0.0
C939 C 0.59356 0.86938 0.48164 0.0
C940 C 0.58925 0.87639 0.4992 0.0
C941 C 0.56968 0.87667 0.50367 0.0
C942 C 0.55438 0.86997 0.4906 0.0
C943 C 0.52827 0.7936 0.39391 0.0
C944 C 0.53073 0.77712 0.40119 0.0
C945 C 0.52695 0.81081 0.40514 0.0
C946 C 0.5278 0.81187 0.42388 0.0
C947 C 0.53038 0.79547 0.43121 0.0
C948 C 0.5318 0.77824 0.41997 0.0
C949 C 0.52646 0.83026 0.43571 0.0
C950 C 0.54175 0.83774 0.44874 0.0
C951 C 0.51086 0.84097 0.43345 0.0
C952 C 0.49348 0.83318 0.42097 0.0
C953 C 0.48253 0.81547 0.42225 0.0
C954 C 0.46629 0.80809 0.41036 0.0
C955 C 0.46077 0.81835 0.3972 0.0
C956 C 0.47145 0.83603 0.39592 0.0
C957 C 0.48771 0.84347 0.40776 0.0
H958 H 0.44819 0.81262 0.38801 0.0
H959 H 0.60106 0.88158 0.50934 0.0
H960 H 0.22995 0.24458 0.79615 0.0
H961 H 0.19895 0.24382 0.81121 0.0
H962 H 0.16804 0.24822 0.76169 0.0
H963 H 0.19907 0.24896 0.74648 0.0
H964 H 0.15398 0.26951 0.79108 0.0
H965 H 0.16811 0.20547 0.77359 0.0
H966 H 0.18859 0.17944 0.77166 0.0
H967 H 0.19203 0.18482 0.82915 0.0
H968 H 0.1718 0.2111 0.83143 0.0
H969 H 0.05841 0.23386 0.81582 0.0
H970 H 0.08906 0.23896 0.80057 0.0
H971 H 0.12213 0.23165 0.848 0.0
H972 H 0.09157 0.22622 0.86323 0.0
H973 H 0.13472 0.21198 0.81882 0.0
H974 H 0.12052 0.27604 0.8364 0.0
H975 H 0.10024 0.30223 0.83834 0.0
H976 H 0.09681 0.29686 0.78086 0.0
H977 H 0.11686 0.27045 0.77856 0.0
C978 C 0.21657 0.24551 0.78848 0.0
C979 C 0.21691 0.24659 0.77007 0.0
C980 C 0.19888 0.2451 0.79711 0.0
C981 C 0.18114 0.24561 0.78749 0.0
C982 C 0.18156 0.24776 0.76935 0.0
C983 C 0.1993 0.24823 0.76069 0.0
C984 C 0.16211 0.24272 0.79612 0.0
C985 C 0.14963 0.25684 0.79696 0.0
C986 C 0.1566 0.2263 0.80403 0.0
C987 C 0.16859 0.21037 0.80269 0.0
C988 C 0.17335 0.20119 0.78583 0.0
C989 C 0.1849 0.18638 0.78467 0.0
C990 C 0.19165 0.18051 0.80027 0.0
C991 C 0.18681 0.1894 0.81707 0.0
C992 C 0.17529 0.20425 0.81831 0.0
C993 C 0.0722 0.23336 0.82302 0.0
C994 C 0.07252 0.22964 0.84076 0.0
C995 C 0.08973 0.23638 0.81431 0.0
C996 C 0.10793 0.23591 0.82321 0.0
C997 C 0.10827 0.23211 0.84088 0.0
C998 C 0.09077 0.22903 0.84957 0.0
C999 C 0.12662 0.23887 0.81401 0.0
C1000 C 0.13904 0.22469 0.81298 0.0
C1001 C 0.13202 0.25522 0.80595 0.0
C1002 C 0.12003 0.27114 0.8073 0.0
C1003 C 0.11531 0.28034 0.82417 0.0
C1004 C 0.10388 0.29525 0.82533 0.0
C1005 C 0.09719 0.30117 0.80973 0.0
C1006 C 0.10197 0.29224 0.79293 0.0
C1007 C 0.11339 0.27731 0.79169 0.0
H1008 H 0.08835 0.31271 0.81067 0.0
H1009 H 0.20059 0.16904 0.79935 0.0
H1010 H 0.58225 0.59019 0.52049 0.0
H1011 H 0.57338 0.59952 0.49159 0.0
H1012 H 0.53709 0.63877 0.51863 0.0
H1013 H 0.54585 0.62952 0.54731 0.0
H1014 H 0.5197 0.61956 0.48615 0.0
H1015 H 0.58329 0.65436 0.51021 0.0
H1016 H 0.61801 0.65667 0.52096 0.0
H1017 H 0.6315 0.62613 0.47021 0.0
H1018 H 0.59676 0.62342 0.45925 0.0
H1019 H 0.51465 0.69684 0.44082 0.0
H1020 H 0.51982 0.67455 0.46117 0.0
H1021 H 0.55695 0.64645 0.42357 0.0
H1022 H 0.55203 0.669 0.4031 0.0
H1023 H 0.57396 0.65344 0.45669 0.0
H1024 H 0.51147 0.62403 0.43068 0.0
H1025 H 0.47683 0.62202 0.41986 0.0
H1026 H 0.46097 0.6417 0.47343 0.0
H1027 H 0.49557 0.64411 0.48455 0.0
C1028 C 0.57212 0.60055 0.52014 0.0
C1029 C 0.56488 0.60929 0.5361 0.0
C1030 C 0.56713 0.60592 0.50369 0.0
C1031 C 0.55471 0.61997 0.503 0.0
C1032 C 0.54668 0.62792 0.51883 0.0
C1033 C 0.5518 0.62272 0.53522 0.0
C1034 C 0.55104 0.62761 0.48622 0.0
C1035 C 0.53153 0.62696 0.47967 0.0
C1036 C 0.56654 0.63677 0.47745 0.0
C1037 C 0.5874 0.63847 0.48401 0.0
C1038 C 0.59363 0.648 0.50141 0.0
C1039 C 0.61331 0.6494 0.50753 0.0
C1040 C 0.62694 0.64149 0.4963 0.0
C1041 C 0.62092 0.63221 0.47891 0.0
C1042 C 0.60124 0.63074 0.47274 0.0
C1043 C 0.52378 0.68583 0.43675 0.0
C1044 C 0.53294 0.68474 0.42032 0.0
C1045 C 0.52663 0.67299 0.44838 0.0
C1046 C 0.53858 0.65864 0.44383 0.0
C1047 C 0.54759 0.65735 0.42733 0.0
C1048 C 0.54473 0.67022 0.41564 0.0
C1049 C 0.54251 0.6459 0.45689 0.0
C1050 C 0.56209 0.64563 0.4628 0.0
C1051 C 0.52706 0.63584 0.46502 0.0
C1052 C 0.50617 0.63435 0.45843 0.0
C1053 C 0.50063 0.62806 0.44014 0.0
C1054 C 0.48099 0.62683 0.43395 0.0
C1055 C 0.46671 0.63175 0.44594 0.0
C1056 C 0.47204 0.63789 0.46416 0.0
C1057 C 0.49167 0.63916 0.47042 0.0
H1058 H 0.45151 0.63079 0.44113 0.0
H1059 H 0.64218 0.6426 0.50106 0.0
H1060 H 0.83659 0.79609 0.77013 0.0
H1061 H 0.86077 0.79293 0.74708 0.0
H1062 H 0.89761 0.76884 0.78238 0.0
H1063 H 0.87408 0.77275 0.80565 0.0
H1064 H 0.91918 0.79422 0.76736 0.0
H1065 H 0.86872 0.74117 0.74627 0.0
H1066 H 0.835 0.72566 0.73653 0.0
H1067 H 0.83425 0.75825 0.69351 0.0
H1068 H 0.8679 0.77414 0.70315 0.0
H1069 H 0.98187 0.74713 0.7094 0.0
H1070 H 0.95569 0.75423 0.72942 0.0
H1071 H 0.93011 0.78354 0.69072 0.0
H1072 H 0.95645 0.77651 0.67047 0.0
H1073 H 0.90222 0.7587 0.70571 0.0
H1074 H 0.95433 0.80964 0.72585 0.0
H1075 H 0.98839 0.82402 0.73559 0.0
H1076 H 0.98622 0.79423 0.78068 0.0
H1077 H 0.95222 0.77945 0.77106 0.0
C1078 C 0.84988 0.7902 0.773 0.0
C1079 C 0.85326 0.78452 0.78972 0.0
C1080 C 0.86362 0.78824 0.75974 0.0
C1081 C 0.88095 0.78044 0.7629 0.0
C1082 C 0.88435 0.77483 0.77958 0.0
C1083 C 0.87072 0.77687 0.79282 0.0
C1084 C 0.89582 0.77837 0.74907 0.0
C1085 C 0.91546 0.7863 0.75394 0.0
C1086 C 0.89094 0.76853 0.73135 0.0
C1087 C 0.87073 0.759 0.72556 0.0
C1088 C 0.8613 0.74515 0.73482 0.0
C1089 C 0.84222 0.73626 0.72931 0.0
C1090 C 0.83246 0.74101 0.71445 0.0
C1091 C 0.8418 0.75461 0.70504 0.0
C1092 C 0.86088 0.76355 0.71052 0.0
C1093 C 0.9707 0.75507 0.70507 0.0
C1094 C 0.9713 0.76131 0.68834 0.0
C1095 C 0.95576 0.75917 0.71658 0.0
C1096 C 0.94106 0.76956 0.71163 0.0
C1097 C 0.94136 0.77554 0.6948 0.0
C1098 C 0.95644 0.77157 0.68329 0.0
C1099 C 0.92554 0.77416 0.7242 0.0
C1100 C 0.90584 0.76676 0.71909 0.0
C1101 C 0.93035 0.78438 0.74175 0.0
C1102 C 0.95077 0.79332 0.74764 0.0
C1103 C 0.96116 0.80604 0.73776 0.0
C1104 C 0.98045 0.81428 0.74328 0.0
C1105 C 0.98948 0.81001 0.75873 0.0
C1106 C 0.97921 0.79752 0.76871 0.0
C1107 C 0.95992 0.78922 0.76324 0.0
H1108 H 0.00442 0.81641 0.76297 0.0
H1109 H 0.81769 0.73411 0.71019 0.0
H1110 H 0.04175 0.90465 0.51112 0.0
H1111 H 0.03188 0.88972 0.53706 0.0
H1112 H 0.08229 0.85931 0.53261 0.0
H1113 H 0.0921 0.87407 0.50669 0.0
H1114 H 0.04986 0.83553 0.5344 0.0
H1115 H 0.07898 0.89624 0.56741 0.0
H1116 H 0.08392 0.93131 0.57565 0.0
H1117 H 0.0236 0.93013 0.58945 0.0
H1118 H 0.01822 0.89505 0.58105 0.0
H1119 H 0.04584 0.79605 0.61373 0.0
H1120 H 0.05657 0.81672 0.59215 0.0
H1121 H 1.00174 0.84013 0.59537 0.0
H1122 H 0.9908 0.81944 0.61707 0.0
H1123 H 0.03493 0.86792 0.59448 0.0
H1124 H 0.0059 0.80736 0.56143 0.0
H1125 H 1.001 0.77225 0.5536 0.0
H1126 H 0.06133 0.77332 0.53987 0.0
H1127 H 0.06667 0.80844 0.54788 0.0
C1128 C 0.05094 0.8951 0.51594 0.0
C1129 C 0.06762 0.89042 0.5068 0.0
C1130 C 0.04528 0.88655 0.53075 0.0
C1131 C 0.05633 0.87335 0.5368 0.0
C1132 C 0.07344 0.86932 0.52812 0.0
C1133 C 0.07903 0.87776 0.51331 0.0
C1134 C 0.04946 0.8627 0.55131 0.0
C1135 C 0.04688 0.84266 0.54761 0.0
C1136 C 0.04495 0.87195 0.56838 0.0
C1137 C 0.04814 0.89303 0.57342 0.0
C1138 C 0.06672 0.90347 0.57205 0.0
C1139 C 0.06961 0.92335 0.57678 0.0
C1140 C 0.05407 0.93295 0.58302 0.0
C1141 C 0.03562 0.92268 0.58458 0.0
C1142 C 0.03264 0.9028 0.57986 0.0
C1143 C 0.0361 0.80571 0.61002 0.0
C1144 C 0.01737 0.80597 0.61703 0.0
C1145 C 0.04226 0.8175 0.59765 0.0
C1146 C 0.02986 0.8298 0.59202 0.0
C1147 C 0.01151 0.83071 0.59953 0.0
C1148 C 0.00526 0.81883 0.61187 0.0
C1149 C 0.03572 0.84087 0.57758 0.0
C1150 C 0.03797 0.86089 0.58125 0.0
C1151 C 0.03994 0.83164 0.56044 0.0
C1152 C 0.03673 0.81053 0.55542 0.0
C1153 C 0.01816 0.8001 0.55687 0.0
C1154 C 0.0153 0.7802 0.55238 0.0
C1155 C 0.03086 0.77056 0.54628 0.0
C1156 C 0.0493 0.78081 0.54461 0.0
C1157 C 0.05225 0.80071 0.54912 0.0
H1158 H 0.02861 0.75515 0.54282 0.0
H1159 H 0.05634 0.94834 0.58668 0.0
H1160 H 0.20041 0.74591 0.76327 0.0
H1161 H 0.168 0.74975 0.75062 0.0
H1162 H 0.16407 0.69376 0.71841 0.0
H1163 H 0.19677 0.6904 0.73045 0.0
H1164 H 0.15567 0.71711 0.6982 0.0
H1165 H 0.13472 0.70516 0.75576 0.0
H1166 H 0.13494 0.70993 0.78883 0.0
H1167 H 0.12239 0.76727 0.78987 0.0
H1168 H 0.12234 0.76293 0.75681 0.0
H1169 H 0.05617 0.70631 0.66644 0.0
H1170 H 0.08569 0.70284 0.68397 0.0
H1171 H 0.09334 0.76297 0.70539 0.0
H1172 H 0.0638 0.76665 0.68778 0.0
H1173 H 0.09938 0.73871 0.73151 0.0
H1174 H 0.12049 0.74962 0.67334 0.0
H1175 H 0.11935 0.7436 0.64024 0.0
H1176 H 0.13081 0.68615 0.64074 0.0
H1177 H 0.13172 0.69175 0.67386 0.0
C1178 C 0.19237 0.73435 0.75374 0.0
C1179 C 0.20091 0.71787 0.74779 0.0
C1180 C 0.17385 0.73649 0.74655 0.0
C1181 C 0.16346 0.72199 0.73359 0.0
C1182 C 0.17177 0.70519 0.72829 0.0
C1183 C 0.19037 0.70321 0.73522 0.0
C1184 C 0.14474 0.7248 0.72444 0.0
C1185 C 0.14329 0.72154 0.70557 0.0
C1186 C 0.1287 0.73112 0.73394 0.0
C1187 C 0.12873 0.73378 0.75382 0.0
C1188 C 0.13216 0.71884 0.76305 0.0
C1189 C 0.13223 0.72146 0.78179 0.0
C1190 C 0.12874 0.73891 0.79145 0.0
C1191 C 0.12512 0.75377 0.78238 0.0
C1192 C 0.12505 0.75123 0.76364 0.0
C1193 C 0.06404 0.71881 0.67494 0.0
C1194 C 0.0577 0.73679 0.67562 0.0
C1195 C 0.08092 0.71678 0.68494 0.0
C1196 C 0.09174 0.73267 0.69588 0.0
C1197 C 0.08516 0.75055 0.69703 0.0
C1198 C 0.06836 0.75263 0.68688 0.0
C1199 C 0.11039 0.73067 0.70545 0.0
C1200 C 0.11182 0.73421 0.72429 0.0
C1201 C 0.12639 0.72439 0.69598 0.0
C1202 C 0.12599 0.72105 0.67607 0.0
C1203 C 0.12261 0.73565 0.66639 0.0
C1204 C 0.12203 0.73233 0.64762 0.0
C1205 C 0.12496 0.71449 0.63839 0.0
C1206 C 0.12852 0.69995 0.64791 0.0
C1207 C 0.12909 0.7032 0.66667 0.0
H1208 H 0.12451 0.71194 0.62386 0.0
H1209 H 0.12879 0.74091 0.80595 0.0
H1210 H 0.99917 0.58687 0.48532 0.0
H1211 H 0.01017 0.61581 0.50731 0.0
H1212 H 0.95181 0.61393 0.5271 0.0
H1213 H 0.94074 0.58529 0.50515 0.0
H1214 H 0.96731 0.6501 0.52264 0.0
H1215 H 0.98738 0.59841 0.54978 0.0
H1216 H 0.00457 0.57044 0.55104 0.0
H1217 H 0.05996 0.60426 0.54602 0.0
H1218 H 0.04304 0.63239 0.54448 0.0
H1219 H 0.98223 0.70886 0.60783 0.0
H1220 H 0.97441 0.68165 0.58351 0.0
H1221 H 0.0348 0.68818 0.56871 0.0
H1222 H 0.04277 0.71538 0.59301 0.0
H1223 H 0.02039 0.65077 0.56913 0.0
H1224 H 1.00122 0.70285 0.54379 0.0
H1225 H 0.98457 0.73114 0.54248 0.0
H1226 H 0.92833 0.69718 0.54349 0.0
H1227 H 0.94468 0.66873 0.5451 0.0
C1228 C 0.9887 0.59272 0.49432 0.0
C1229 C 0.96915 0.5837 0.49365 0.0
C1230 C 0.99501 0.60917 0.50691 0.0
C1231 C 0.98184 0.61693 0.51894 0.0
C1232 C 0.96223 0.60818 0.51799 0.0
C1233 C 0.95598 0.59171 0.50554 0.0
C1234 C 0.98838 0.634 0.53274 0.0
C1235 C 0.9788 0.65019 0.53289 0.0
C1236 C 0.00374 0.63431 0.54583 0.0
C1237 C 0.01392 0.61744 0.5468 0.0
C1238 C 0.00321 0.59984 0.54879 0.0
C1239 C 0.0129 0.58397 0.54958 0.0
C1240 C 0.03334 0.58556 0.54855 0.0
C1241 C 0.04413 0.60304 0.54678 0.0
C1242 C 0.0345 0.61895 0.54595 0.0
C1243 C 0.99386 0.7045 0.59943 0.0
C1244 C 0.01311 0.71435 0.60233 0.0
C1245 C 0.98936 0.68899 0.58549 0.0
C1246 C 0.00399 0.683 0.57419 0.0
C1247 C 0.02328 0.69258 0.57725 0.0
C1248 C 0.02778 0.70817 0.59111 0.0
C1249 C 0.99911 0.66675 0.55918 0.0
C1250 C 0.009 0.65074 0.55879 0.0
C1251 C 0.98412 0.66664 0.54581 0.0
C1252 C 0.97419 0.68369 0.54473 0.0
C1253 C 0.98531 0.70144 0.54388 0.0
C1254 C 0.97593 0.7175 0.54306 0.0
C1255 C 0.9554 0.71596 0.54294 0.0
C1256 C 0.94423 0.69835 0.5436 0.0
C1257 C 0.95354 0.68225 0.54445 0.0
H1258 H 0.94816 0.72841 0.54231 0.0
H1259 H 0.04082 0.57325 0.54917 0.0
H1260 H 0.77662 0.82622 0.2419 0.0
H1261 H 0.7933 0.85886 0.25086 0.0
H1262 H 0.83598 0.84825 0.2111 0.0
H1263 H 0.82034 0.81543 0.20298 0.0
H1264 H 0.85425 0.86655 0.23983 0.0
H1265 H 0.79647 0.87474 0.2057 0.0
H1266 H 0.76091 0.87177 0.19775 0.0
H1267 H 0.75177 0.9031 0.24946 0.0
H1268 H 0.78727 0.90604 0.25781 0.0
H1269 H 0.88974 0.96132 0.22755 0.0
H1270 H 0.86997 0.92972 0.22224 0.0
H1271 H 0.8482 0.94038 0.27525 0.0
H1272 H 0.86837 0.97187 0.28089 0.0
H1273 H 0.8188 0.92299 0.24248 0.0
H1274 H 0.87845 0.91518 0.27519 0.0
H1275 H 0.91449 0.91901 0.28074 0.0
H1276 H 0.92021 0.88726 0.2284 0.0
H1277 H 0.88419 0.88354 0.22242 0.0
C1278 C 0.78966 0.83078 0.23517 0.0
C1279 C 0.79697 0.81816 0.22157 0.0
C1280 C 0.79906 0.84955 0.24017 0.0
C1281 C 0.81576 0.85616 0.23148 0.0
C1282 C 0.82309 0.84356 0.21798 0.0
C1283 C 0.81391 0.8248 0.21317 0.0
C1284 C 0.82595 0.87605 0.23652 0.0
C1285 C 0.84644 0.87883 0.24025 0.0
C1286 C 0.81582 0.8922 0.23742 0.0
C1287 C 0.79448 0.89042 0.23245 0.0
C1288 C 0.78685 0.88086 0.21543 0.0
C1289 C 0.76671 0.8792 0.21084 0.0
C1290 C 0.75408 0.88718 0.22311 0.0
C1291 C 0.76157 0.89689 0.23998 0.0
C1292 C 0.7817 0.89856 0.24465 0.0
C1293 C 0.88061 0.95702 0.23802 0.0
C1294 C 0.88063 0.96903 0.25465 0.0
C1295 C 0.86937 0.93899 0.23497 0.0
C1296 C 0.8577 0.93281 0.24837 0.0
C1297 C 0.85711 0.94498 0.26476 0.0
C1298 C 0.86868 0.96289 0.26797 0.0
C1299 C 0.8469 0.91323 0.24547 0.0
C1300 C 0.82642 0.91059 0.24217 0.0
C1301 C 0.85702 0.89719 0.24466 0.0
C1302 C 0.87865 0.89926 0.24829 0.0
C1303 C 0.88741 0.90918 0.26479 0.0
C1304 C 0.90783 0.9113 0.26804 0.0
C1305 C 0.91964 0.90343 0.25491 0.0
C1306 C 0.91104 0.89338 0.23854 0.0
C1307 C 0.89062 0.89125 0.23522 0.0
H1308 H 0.93544 0.90508 0.25745 0.0
H1309 H 0.73849 0.88589 0.21953 0.0
H1310 H 0.76955 0.16567 0.33359 0.0
H1311 H 0.79027 0.14014 0.3326 0.0
H1312 H 0.82015 0.15994 0.28833 0.0
H1313 H 0.7996 0.18541 0.28927 0.0
H1314 H 0.81049 0.12215 0.28175 0.0
H1315 H 0.84165 0.16856 0.33104 0.0
H1316 H 0.84291 0.1901 0.3601 0.0
H1317 H 0.82461 0.14232 0.38638 0.0
H1318 H 0.82297 0.12052 0.35742 0.0
H1319 H 0.89275 0.07232 0.27973 0.0
H1320 H 0.87204 0.09781 0.28336 0.0
H1321 H 0.84343 0.07409 0.32634 0.0
H1322 H 0.86425 0.04861 0.32294 0.0
H1323 H 0.85138 0.11287 0.33427 0.0
H1324 H 0.82082 0.06643 0.28519 0.0
H1325 H 0.81939 0.04484 0.25616 0.0
H1326 H 0.8363 0.09266 0.22953 0.0
H1327 H 0.83811 0.11453 0.25846 0.0
C1328 C 0.78065 0.16465 0.32375 0.0
C1329 C 0.78285 0.1775 0.31145 0.0
C1330 C 0.79248 0.15006 0.3232 0.0
C1331 C 0.80685 0.14818 0.31045 0.0
C1332 C 0.8091 0.16104 0.29822 0.0
C1333 C 0.79728 0.17556 0.29874 0.0
C1334 C 0.81939 0.13266 0.30955 0.0
C1335 C 0.81961 0.12028 0.29319 0.0
C1336 C 0.83089 0.12987 0.32459 0.0
C1337 C 0.83199 0.14294 0.34203 0.0
C1338 C 0.83775 0.16267 0.34299 0.0
C1339 C 0.83855 0.17492 0.35945 0.0
C1340 C 0.83378 0.16759 0.37506 0.0
C1341 C 0.82826 0.14798 0.37427 0.0
C1342 C 0.82741 0.13567 0.35784 0.0
C1343 C 0.88213 0.07255 0.29002 0.0
C1344 C 0.88008 0.05834 0.30097 0.0
C1345 C 0.87025 0.08711 0.29203 0.0
C1346 C 0.856 0.08771 0.30496 0.0
C1347 C 0.85429 0.07387 0.31625 0.0
C1348 C 0.86617 0.05928 0.31424 0.0
C1349 C 0.84265 0.10257 0.30641 0.0
C1350 C 0.84223 0.11475 0.32286 0.0
C1351 C 0.83093 0.1052 0.29145 0.0
C1352 C 0.82978 0.0921 0.27402 0.0
C1353 C 0.82439 0.07233 0.27316 0.0
C1354 C 0.82348 0.06005 0.25672 0.0
C1355 C 0.8278 0.06737 0.24101 0.0
C1356 C 0.83298 0.08701 0.24171 0.0
C1357 C 0.83393 0.09935 0.25812 0.0
H1358 H 0.82709 0.05784 0.2283 0.0
H1359 H 0.83441 0.1771 0.38779 0.0
H1360 H 0.43235 0.99528 0.96251 0.0
H1361 H 0.4066 0.97252 0.97197 0.0
H1362 H 0.39098 0.01695 0.01233 0.0
H1363 H 0.4163 0.03985 0.00275 0.0
H1364 H 0.39269 0.98326 0.02527 0.0
H1365 H 0.36365 0.0041 0.97405 0.0
H1366 H 0.36191 0.00975 0.94271 0.0
H1367 H 0.36128 0.94987 0.92381 0.0
H1368 H 0.36331 0.9439 0.95507 0.0
H1369 H 0.29808 0.94199 0.04553 0.0
H1370 H 0.32636 0.96237 0.03692 0.0
H1371 H 0.33552 0.91777 0.99367 0.0
H1372 H 0.30695 0.8975 1.00192 0.0
H1373 H 0.33825 0.95041 0.98199 0.0
H1374 H 0.366 0.92897 0.0328 0.0
H1375 H 0.36826 0.92294 0.06399 0.0
H1376 H 0.37204 0.98302 0.08356 0.0
H1377 H 0.36953 0.98939 0.05248 0.0
C1378 C 0.42338 1.00023 0.97335 0.0
C1379 C 0.42644 0.01942 0.98186 0.0
C1380 C 0.40872 0.98719 0.97877 0.0
C1381 C 0.3968 0.99308 0.99279 0.0
C1382 C 0.40008 0.01208 1.00155 0.0
C1383 C 0.41465 0.02514 0.99609 0.0
C1384 C 0.38059 0.97959 0.99808 0.0
C1385 C 0.38068 0.9762 0.01587 0.0
C1386 C 0.3652 0.97003 0.98569 0.0
C1387 C 0.36385 0.97359 0.9669 0.0
C1388 C 0.3633 0.99216 0.96321 0.0
C1389 C 0.36224 0.99542 0.94547 0.0
C1390 C 0.36154 0.98019 0.93128 0.0
C1391 C 0.36185 0.96166 0.93482 0.0
C1392 C 0.36295 0.95833 0.95254 0.0
C1393 C 0.30618 0.93646 0.03425 0.0
C1394 C 0.30025 0.9181 0.02443 0.0
C1395 C 0.32243 0.94811 0.02939 0.0
C1396 C 0.33326 0.94155 0.01476 0.0
C1397 C 0.32743 0.92317 0.005 0.0
C1398 C 0.3111 0.91157 0.00977 0.0
C1399 C 0.35025 0.95406 0.00926 0.0
C1400 C 0.35031 0.95733 0.99141 0.0
C1401 C 0.36584 0.96341 0.02159 0.0
C1402 C 0.36739 0.95964 0.0403 0.0
C1403 C 0.36716 0.94088 0.04375 0.0
C1404 C 0.36852 0.9374 0.06142 0.0
C1405 C 0.37025 0.95258 0.07575 0.0
C1406 C 0.37068 0.97127 0.07245 0.0
C1407 C 0.36931 0.97483 0.05481 0.0
H1408 H 0.3713 0.94986 0.08942 0.0
H1409 H 0.36071 0.98273 0.91755 0.0
H1410 H 0.29305 0.35869 0.28596 0.0
H1411 H 0.27013 0.37484 0.26992 0.0
H1412 H 0.22738 0.36655 0.30953 0.0
H1413 H 0.25024 0.35069 0.32557 0.0
H1414 H 0.21031 0.3613 0.27439 0.0
H1415 H 0.25705 0.40687 0.31463 0.0
H1416 H 0.29048 0.42193 0.32592 0.0
H1417 H 0.30222 0.43712 0.27419 0.0
H1418 H 0.26892 0.42187 0.26252 0.0
H1419 H 0.15028 0.4343 0.27871 0.0
H1420 H 0.17272 0.41165 0.28371 0.0
H1421 H 0.21187 0.43372 0.24611 0.0
H1422 H 0.18964 0.45679 0.24133 0.0
H1423 H 0.2322 0.43022 0.27505 0.0
H1424 H 0.18385 0.38894 0.23579 0.0
H1425 H 0.15058 0.37378 0.22415 0.0
H1426 H 0.14188 0.35014 0.27253 0.0
H1427 H 0.17501 0.36539 0.28459 0.0
C1428 C 0.27857 0.35996 0.29093 0.0
C1429 C 0.27335 0.35355 0.30697 0.0
C1430 C 0.26555 0.36922 0.28184 0.0
C1431 C 0.24711 0.37202 0.28863 0.0
C1432 C 0.24149 0.36453 0.30404 0.0
C1433 C 0.25455 0.35552 0.31321 0.0
C1434 C 0.23431 0.3842 0.28083 0.0
C1435 C 0.21503 0.37638 0.27453 0.0
C1436 C 0.24067 0.40376 0.28061 0.0
C1437 C 0.26061 0.41303 0.28765 0.0
C1438 C 0.26682 0.41328 0.30563 0.0
C1439 C 0.28574 0.42187 0.3121 0.0
C1440 C 0.29849 0.43042 0.30076 0.0
C1441 C 0.29234 0.43045 0.28294 0.0
C1442 C 0.27345 0.42184 0.27639 0.0
C1443 C 0.16358 0.43427 0.27138 0.0
C1444 C 0.16814 0.44739 0.25962 0.0
C1445 C 0.17637 0.42119 0.27417 0.0
C1446 C 0.1939 0.42075 0.26511 0.0
C1447 C 0.19842 0.43373 0.25323 0.0
C1448 C 0.18566 0.44689 0.25049 0.0
C1449 C 0.20794 0.40745 0.26883 0.0
C1450 C 0.22748 0.41508 0.27448 0.0
C1451 C 0.20183 0.38768 0.26834 0.0
C1452 C 0.18189 0.37843 0.26114 0.0
C1453 C 0.1748 0.38063 0.244 0.0
C1454 C 0.15597 0.372 0.23732 0.0
C1455 C 0.14411 0.36103 0.24761 0.0
C1456 C 0.15108 0.35864 0.26458 0.0
C1457 C 0.1699 0.36726 0.27134 0.0
H1458 H 0.12954 0.35436 0.24241 0.0
H1459 H 0.31313 0.43707 0.3058 0.0
H1460 H 0.11203 0.99538 0.44656 0.0
H1461 H 0.14233 0.0177 0.453 0.0
H1462 H 0.14548 0.00621 0.50729 0.0
H1463 H 0.11462 0.98412 0.50107 0.0
H1464 H 0.15425 0.04443 0.50597 0.0
H1465 H 0.1745 0.98629 0.47698 0.0
H1466 H 0.17374 0.95812 0.45338 0.0
H1467 H 0.18743 0.99458 0.41426 0.0
H1468 H 0.188 0.023 0.43759 0.0
H1469 H 0.25424 0.08697 0.52382 0.0
H1470 H 0.22375 0.06459 0.51969 0.0
H1471 H 0.21733 0.07276 0.46454 0.0
H1472 H 0.24798 0.09504 0.4685 0.0
H1473 H 0.21065 0.03543 0.46752 0.0
H1474 H 0.18944 0.09354 0.49632 0.0
H1475 H 0.19024 0.12175 0.5199 0.0
H1476 H 0.17846 0.08535 0.55939 0.0
H1477 H 0.17787 0.0569 0.53607 0.0
C1478 C 0.11896 0.99779 0.45997 0.0
C1479 C 0.11082 0.98805 0.47335 0.0
C1480 C 0.13643 0.01041 0.46357 0.0
C1481 C 0.1463 0.01346 0.48056 0.0
C1482 C 0.13812 0.00401 0.49407 0.0
C1483 C 0.12058 0.99132 0.49047 0.0
C1484 C 0.16524 0.02642 0.48403 0.0
C1485 C 0.1667 0.04231 0.49776 0.0
C1486 C 0.18134 0.02385 0.47307 0.0
C1487 C 0.18113 0.00678 0.45902 0.0
C1488 C 0.17721 0.98831 0.46332 0.0
C1489 C 0.17683 0.97229 0.45 0.0
C1490 C 0.18049 0.97455 0.43233 0.0
C1491 C 0.18458 0.99285 0.42795 0.0
C1492 C 0.18495 0.00891 0.44123 0.0
C1493 C 0.24635 0.08405 0.51081 0.0
C1494 C 0.25354 0.09282 0.49649 0.0
C1495 C 0.22886 0.0713 0.5085 0.0
C1496 C 0.21815 0.06714 0.49186 0.0
C1497 C 0.22535 0.07578 0.47751 0.0
C1498 C 0.24284 0.08855 0.47981 0.0
C1499 C 0.1996 0.05356 0.48933 0.0
C1500 C 0.19823 0.03753 0.47577 0.0
C1501 C 0.18361 0.05601 0.50046 0.0
C1502 C 0.18382 0.07309 0.51448 0.0
C1503 C 0.18718 0.09155 0.51005 0.0
C1504 C 0.18757 0.10758 0.52337 0.0
C1505 C 0.18446 0.10535 0.54114 0.0
C1506 C 0.1809 0.08706 0.54562 0.0
C1507 C 0.18052 0.07098 0.53236 0.0
H1508 H 0.18477 0.11778 0.55142 0.0
H1509 H 0.1802 0.96213 0.42203 0.0
H1510 H 0.75342 0.19564 0.72865 0.0
H1511 H 0.72947 0.1671 0.72672 0.0
H1512 H 0.7763 0.13212 0.72159 0.0
H1513 H 0.80024 0.16049 0.7219 0.0
H1514 H 0.74651 0.11365 0.70253 0.0
H1515 H 0.75509 0.14663 0.76302 0.0
H1516 H 0.7562 0.17392 0.78764 0.0
H1517 H 0.69513 0.17725 0.77609 0.0
H1518 H 0.69373 0.15012 0.75123 0.0
H1519 H 0.69531 0.03571 0.74012 0.0
H1520 H 0.71843 0.06392 0.73671 0.0
H1521 H 0.66985 0.09263 0.72326 0.0
H1522 H 0.64668 0.06437 0.72619 0.0
H1523 H 0.69995 0.11378 0.75141 0.0
H1524 H 0.69289 0.07838 0.69082 0.0
H1525 H 0.69355 0.04969 0.6681 0.0
H1526 H 0.75452 0.04932 0.68277 0.0
H1527 H 0.75413 0.07786 0.70578 0.0
C1528 C 0.75867 0.1819 0.72655 0.0
C1529 C 0.77893 0.18052 0.72567 0.0
C1530 C 0.74491 0.16553 0.72577 0.0
C1531 C 0.75109 0.14745 0.72461 0.0
C1532 C 0.77113 0.1459 0.72272 0.0
C1533 C 0.78487 0.16222 0.72312 0.0
C1534 C 0.73682 0.13029 0.72613 0.0
C1535 C 0.7365 0.11368 0.71334 0.0
C1536 C 0.7236 0.13021 0.74018 0.0
C1537 C 0.72436 0.14647 0.75515 0.0
C1538 C 0.74193 0.15326 0.76566 0.0
C1539 C 0.74261 0.16869 0.77966 0.0
C1540 C 0.72576 0.17735 0.78339 0.0
C1541 C 0.70818 0.17055 0.77316 0.0
C1542 C 0.70743 0.15515 0.75912 0.0
C1543 C 0.68956 0.04803 0.73643 0.0
C1544 C 0.66919 0.04784 0.7334 0.0
C1545 C 0.70277 0.06408 0.73444 0.0
C1546 C 0.6958 0.08027 0.72968 0.0
C1547 C 0.67547 0.08023 0.72691 0.0
C1548 C 0.66229 0.06407 0.72854 0.0
C1549 C 0.7097 0.09739 0.72781 0.0
C1550 C 0.70996 0.1139 0.74059 0.0
C1551 C 0.72315 0.09722 0.71404 0.0
C1552 C 0.72342 0.08013 0.70015 0.0
C1553 C 0.70638 0.07208 0.68932 0.0
C1554 C 0.70672 0.05587 0.67636 0.0
C1555 C 0.72405 0.04765 0.67403 0.0
C1556 C 0.74109 0.05568 0.68461 0.0
C1557 C 0.74083 0.07188 0.6976 0.0
H1558 H 0.72428 0.03511 0.66399 0.0
H1559 H 0.72631 0.18929 0.79424 0.0
H1560 H 0.4922 0.03334 0.51098 0.0
H1561 H 0.4669 0.05332 0.50618 0.0
H1562 H 0.43099 0.0276 0.54403 0.0
H1563 H 0.45624 0.00721 0.54867 0.0
H1564 H 0.41005 0.02882 0.51283 0.0
H1565 H 0.45366 0.0727 0.55542 0.0
H1566 H 0.48562 0.0905 0.56799 0.0
H1567 H 0.4916 0.11741 0.5212 0.0
H1568 H 0.45979 0.09957 0.50822 0.0
H1569 H 0.33969 0.09336 0.51281 0.0
H1570 H 0.36459 0.07472 0.52175 0.0
H1571 H 0.40569 0.10063 0.48778 0.0
H1572 H 0.38098 0.11973 0.47911 0.0
H1573 H 0.42346 0.09938 0.51906 0.0
H1574 H 0.38134 0.05437 0.47558 0.0
H1575 H 0.34979 0.03624 0.46229 0.0
H1576 H 0.34142 0.0112 0.50996 0.0
H1577 H 0.37281 0.02937 0.52363 0.0
C1578 C 0.47893 0.03195 0.51831 0.0
C1579 C 0.47615 0.01864 0.53013 0.0
C1580 C 0.46455 0.04349 0.51566 0.0
C1581 C 0.44711 0.04205 0.52484 0.0
C1582 C 0.44437 0.02896 0.53685 0.0
C1583 C 0.45884 0.01743 0.53958 0.0
C1584 C 0.43147 0.05371 0.52124 0.0
C1585 C 0.41285 0.04428 0.51451 0.0
C1586 C 0.43531 0.07383 0.52298 0.0
C1587 C 0.4544 0.08467 0.53079 0.0
C1588 C 0.46185 0.0823 0.54775 0.0
C1589 C 0.47993 0.09242 0.55496 0.0
C1590 C 0.49065 0.10505 0.54538 0.0
C1591 C 0.48329 0.10762 0.5286 0.0
C1592 C 0.46522 0.09752 0.52132 0.0
C1593 C 0.354 0.09507 0.50718 0.0
C1594 C 0.35831 0.10799 0.49517 0.0
C1595 C 0.36822 0.08434 0.51227 0.0
C1596 C 0.38696 0.08607 0.50527 0.0
C1597 C 0.39133 0.09903 0.49335 0.0
C1598 C 0.37716 0.10989 0.48836 0.0
C1599 C 0.40205 0.0745 0.51047 0.0
C1600 C 0.42059 0.08394 0.5175 0.0
C1601 C 0.39817 0.05437 0.50891 0.0
C1602 C 0.37932 0.04338 0.50069 0.0
C1603 C 0.3727 0.04511 0.48328 0.0
C1604 C 0.35486 0.03481 0.47567 0.0
C1605 C 0.34358 0.02262 0.4853 0.0
C1606 C 0.35016 0.02067 0.50253 0.0
C1607 C 0.36798 0.03095 0.51021 0.0
H1608 H 0.32978 0.01466 0.47938 0.0
H1609 H 0.50464 0.11286 0.55099 0.0
H1610 H 0.62283 0.54049 0.57122 0.0
H1611 H 0.6451 0.51758 0.56109 0.0
H1612 H 0.59786 0.47123 0.55987 0.0
H1613 H 0.57544 0.49421 0.57021 0.0
H1614 H 0.63007 0.46311 0.57536 0.0
H1615 H 0.61541 0.48478 0.5207 0.0
H1616 H 0.61128 0.50825 0.50075 0.0
H1617 H 0.67263 0.5306 0.50957 0.0
H1618 H 0.67709 0.50744 0.5298 0.0
H1619 H 0.6912 0.39688 0.53238 0.0
H1620 H 0.66397 0.41578 0.53781 0.0
H1621 H 0.70536 0.46753 0.54663 0.0
H1622 H 0.73254 0.44887 0.54128 0.0
H1623 H 0.67314 0.47007 0.52469 0.0
H1624 H 0.68639 0.44991 0.58159 0.0
H1625 H 0.69012 0.4262 0.6014 0.0
H1626 H 0.63042 0.40028 0.58739 0.0
H1627 H 0.62643 0.4237 0.56729 0.0
C1628 C 0.61705 0.52545 0.56849 0.0
C1629 C 0.59729 0.51919 0.57137 0.0
C1630 C 0.62983 0.51233 0.56271 0.0
C1631 C 0.62312 0.49265 0.55944 0.0
C1632 C 0.60338 0.48633 0.56226 0.0
C1633 C 0.59059 0.49947 0.56817 0.0
C1634 C 0.63699 0.47876 0.55374 0.0
C1635 C 0.63919 0.4644 0.56404 0.0
C1636 C 0.64912 0.48055 0.53912 0.0
C1637 C 0.64655 0.49445 0.52688 0.0
C1638 C 0.628 0.49478 0.51849 0.0
C1639 C 0.6256 0.50802 0.50711 0.0
C1640 C 0.64167 0.52093 0.50392 0.0
C1641 C 0.66019 0.52059 0.51207 0.0
C1642 C 0.66267 0.5074 0.52347 0.0
C1643 C 0.69449 0.41228 0.53544 0.0
C1644 C 0.71406 0.42135 0.53646 0.0
C1645 C 0.67892 0.42305 0.53859 0.0
C1646 C 0.68265 0.44307 0.54271 0.0
C1647 C 0.70213 0.45212 0.54344 0.0
C1648 C 0.71767 0.4414 0.54046 0.0
C1649 C 0.66641 0.45472 0.5465 0.0
C1650 C 0.66379 0.46865 0.53583 0.0
C1651 C 0.65381 0.45245 0.56069 0.0
C1652 C 0.65619 0.4384 0.57278 0.0
C1653 C 0.67412 0.43905 0.58261 0.0
C1654 C 0.67626 0.42568 0.59391 0.0
C1655 C 0.66053 0.4117 0.5956 0.0
C1656 C 0.6426 0.41109 0.58603 0.0
C1657 C 0.64039 0.42441 0.5747 0.0
H1658 H 0.66222 0.40137 0.60436 0.0
H1659 H 0.63979 0.53117 0.49511 0.0
H1660 H 0.78402 0.23441 0.35429 0.0
H1661 H 0.78098 0.25551 0.38243 0.0
H1662 H 0.71906 0.25425 0.36924 0.0
H1663 H 0.72216 0.23326 0.34071 0.0
H1664 H 0.73497 0.28941 0.38257 0.0
H1665 H 0.7352 0.22914 0.40131 0.0
H1666 H 0.74678 0.19834 0.40337 0.0
H1667 H 0.80186 0.22771 0.42831 0.0
H1668 H 0.79072 0.2587 0.42617 0.0
H1669 H 0.7252 0.33688 0.47306 0.0
H1670 H 0.72072 0.31267 0.44578 0.0
H1671 H 0.78352 0.31214 0.44574 0.0
H1672 H 0.78814 0.33626 0.47276 0.0
H1673 H 0.76209 0.2757 0.44013 0.0
H1674 H 0.76229 0.33573 0.41801 0.0
H1675 H 0.75018 0.36629 0.41588 0.0
H1676 H 0.69285 0.33642 0.39771 0.0
H1677 H 0.70456 0.30568 0.39998 0.0
C1678 C 0.7697 0.23843 0.35746 0.0
C1679 C 0.75327 0.23198 0.3454 0.0
C1680 C 0.76796 0.2505 0.37358 0.0
C1681 C 0.7497 0.25617 0.37818 0.0
C1682 C 0.73328 0.24998 0.36604 0.0
C1683 C 0.73506 0.238 0.34977 0.0
C1684 C 0.74805 0.26892 0.39548 0.0
C1685 C 0.74052 0.28621 0.3952 0.0
C1686 C 0.75544 0.26488 0.412 0.0
C1687 C 0.76215 0.24626 0.41347 0.0
C1688 C 0.74983 0.22904 0.40714 0.0
C1689 C 0.75631 0.21154 0.40833 0.0
C1690 C 0.77505 0.21107 0.41594 0.0
C1691 C 0.78734 0.2281 0.42242 0.0
C1692 C 0.78094 0.24563 0.42124 0.0
C1693 C 0.73804 0.33157 0.46723 0.0
C1694 C 0.75703 0.33853 0.47505 0.0
C1695 C 0.73545 0.31779 0.45165 0.0
C1696 C 0.75181 0.31066 0.44373 0.0
C1697 C 0.77071 0.31742 0.45165 0.0
C1698 C 0.77331 0.33128 0.46707 0.0
C1699 C 0.74948 0.29628 0.42708 0.0
C1700 C 0.75625 0.2787 0.42751 0.0
C1701 C 0.74124 0.29998 0.41078 0.0
C1702 C 0.73423 0.31844 0.40938 0.0
C1703 C 0.74705 0.33569 0.41372 0.0
C1704 C 0.74027 0.35304 0.41246 0.0
C1705 C 0.72074 0.3533 0.40672 0.0
C1706 C 0.70796 0.3362 0.40219 0.0
C1707 C 0.71466 0.31881 0.40345 0.0
H1708 H 0.71552 0.36675 0.40575 0.0
H1709 H 0.78005 0.19751 0.41684 0.0
H1710 H 0.49915 0.02129 0.90375 0.0
H1711 H 0.52549 0.01549 0.88322 0.0
H1712 H 0.51568 0.065 0.86 0.0
H1713 H 0.48924 0.0706 0.88022 0.0
H1714 H 0.51611 0.03576 0.83454 0.0
H1715 H 0.55756 0.06351 0.88726 0.0
H1716 H 0.57009 0.06671 0.91873 0.0
H1717 H 0.58591 0.01008 0.90835 0.0
H1718 H 0.57323 0.00645 0.87685 0.0
H1719 H 0.59773 0.04632 0.78156 0.0
H1720 H 0.57535 0.05121 0.80577 0.0
H1721 H 0.58457 0.99731 0.82088 0.0
H1722 H 0.60716 0.99228 0.7966 0.0
H1723 H 0.58451 0.02639 0.85054 0.0
H1724 H 0.54384 0.99923 0.79756 0.0
H1725 H 0.53185 0.99647 0.76599 0.0
H1726 H 0.51471 0.05254 0.77705 0.0
H1727 H 0.52688 0.05575 0.80865 0.0
C1728 C 0.50293 0.03114 0.89451 0.0
C1729 C 0.49209 0.04634 0.89351 0.0
C1730 C 0.51797 0.02782 0.88277 0.0
C1731 C 0.5226 0.03981 0.87002 0.0
C1732 C 0.51231 0.05546 0.86959 0.0
C1733 C 0.49722 0.05867 0.88118 0.0
C1734 C 0.53718 0.03548 0.85629 0.0
C1735 C 0.53114 0.03398 0.83811 0.0
C1736 C 0.55663 0.03248 0.86083 0.0
C1737 C 0.56424 0.03464 0.87975 0.0
C1738 C 0.56355 0.05168 0.89173 0.0
C1739 C 0.57072 0.05358 0.90956 0.0
C1740 C 0.57874 0.03858 0.91555 0.0
C1741 C 0.57966 0.02167 0.9037 0.0
C1742 C 0.5725 0.01969 0.88585 0.0
C1743 C 0.59511 0.0355 0.79005 0.0
C1744 C 0.60416 0.01884 0.78705 0.0
C1745 C 0.58226 0.03832 0.80388 0.0
C1746 C 0.57813 0.02454 0.81501 0.0
C1747 C 0.58754 0.00812 0.81242 0.0
C1748 C 0.60037 0.00523 0.7985 0.0
C1749 C 0.56348 0.02714 0.82894 0.0
C1750 C 0.56946 0.02817 0.84707 0.0
C1751 C 0.54395 0.02976 0.8244 0.0
C1752 C 0.53643 0.02779 0.80544 0.0
C1753 C 0.53765 0.01103 0.79323 0.0
C1754 C 0.5308 0.00938 0.77534 0.0
C1755 C 0.52256 0.02434 0.76951 0.0
C1756 C 0.52111 0.04097 0.78158 0.0
C1757 C 0.52796 0.04271 0.79949 0.0
H1758 H 0.51728 0.02303 0.75564 0.0
H1759 H 0.58428 0.04009 0.92936 0.0
H1760 H 0.32092 0.23595 0.32135 0.0
H1761 H 0.31774 0.2138 0.34293 0.0
H1762 H 0.31722 0.26105 0.38607 0.0
H1763 H 0.32174 0.28329 0.36486 0.0
H1764 H 0.33821 0.23778 0.39696 0.0
H1765 H 0.27416 0.23076 0.36706 0.0
H1766 H 0.25003 0.22446 0.34113 0.0
H1767 H 0.26565 0.16809 0.3267 0.0
H1768 H 0.29005 0.17415 0.35244 0.0
H1769 H 0.26861 0.16808 0.44377 0.0
H1770 H 0.27455 0.18807 0.42068 0.0
H1771 H 0.33564 0.17938 0.42151 0.0
H1772 H 0.32992 0.15985 0.44513 0.0
H1773 H 0.28498 0.18269 0.38814 0.0
H1774 H 0.36419 0.21833 0.41167 0.0
H1775 H 0.38529 0.22742 0.43963 0.0
H1776 H 0.33405 0.23138 0.47039 0.0
H1777 H 0.31267 0.22255 0.44261 0.0
C1778 C 0.32038 0.24167 0.33545 0.0
C1779 C 0.3214 0.26147 0.34127 0.0
C1780 C 0.31832 0.22894 0.34778 0.0
C1781 C 0.31693 0.23568 0.36615 0.0
C1782 C 0.3182 0.25543 0.37199 0.0
C1783 C 0.3205 0.26815 0.35975 0.0
C1784 C 0.31404 0.22232 0.37938 0.0
C1785 C 0.32661 0.22569 0.39497 0.0
C1786 C 0.29874 0.20667 0.37701 0.0
C1787 C 0.28407 0.20298 0.36155 0.0
C1788 C 0.27254 0.21707 0.35828 0.0
C1789 C 0.25881 0.21354 0.34363 0.0
C1790 C 0.25635 0.19591 0.33225 0.0
C1791 C 0.26759 0.18176 0.33552 0.0
C1792 C 0.28137 0.18523 0.35013 0.0
C1793 C 0.28332 0.17039 0.43904 0.0
C1794 C 0.29882 0.16246 0.44638 0.0
C1795 C 0.28669 0.1818 0.42577 0.0
C1796 C 0.30559 0.18545 0.41943 0.0
C1797 C 0.321 0.17711 0.4264 0.0
C1798 C 0.3177 0.16588 0.43987 0.0
C1799 C 0.30908 0.19823 0.40576 0.0
C1800 C 0.29668 0.19469 0.39005 0.0
C1801 C 0.32413 0.2141 0.4083 0.0
C1802 C 0.33685 0.21956 0.42508 0.0
C1803 C 0.35744 0.22118 0.4244 0.0
C1804 C 0.36944 0.22629 0.44021 0.0
C1805 C 0.36101 0.2299 0.45678 0.0
C1806 C 0.34056 0.2285 0.45756 0.0
C1807 C 0.32849 0.22342 0.44179 0.0
H1808 H 0.37033 0.23384 0.46901 0.0
H1809 H 0.2457 0.1932 0.32092 0.0
H1810 H 0.54329 0.49762 0.94599 0.0
H1811 H 0.52263 0.50486 0.9216 0.0
H1812 H 0.52022 0.44695 0.89409 0.0
H1813 H 0.54146 0.43984 0.91798 0.0
H1814 H 0.5288 0.47159 0.87178 0.0
H1815 H 0.4805 0.46328 0.91585 0.0
H1816 H 0.4667 0.46971 0.94558 0.0
H1817 H 0.46621 0.52838 0.93998 0.0
H1818 H 0.48026 0.52235 0.9103 0.0
H1819 H 0.45304 0.46605 0.8056 0.0
H1820 H 0.47278 0.46197 0.83178 0.0
H1821 H 0.47176 0.52092 0.85478 0.0
H1822 H 0.45153 0.52505 0.82865 0.0
H1823 H 0.46587 0.4983 0.8798 0.0
H1824 H 0.5129 0.50661 0.83547 0.0
H1825 H 0.52688 0.50056 0.80579 0.0
H1826 H 0.53029 0.4425 0.81203 0.0
H1827 H 0.51607 0.44813 0.84165 0.0
C1828 C 0.53834 0.48643 0.93475 0.0
C1829 C 0.54402 0.46814 0.93398 0.0
C1830 C 0.52639 0.49054 0.92089 0.0
C1831 C 0.51975 0.47641 0.90606 0.0
C1832 C 0.52513 0.45808 0.90541 0.0
C1833 C 0.53711 0.45397 0.9192 0.0
C1834 C 0.5079 0.48082 0.8908 0.0
C1835 C 0.51491 0.4772 0.87352 0.0
C1836 C 0.49014 0.48879 0.89313 0.0
C1837 C 0.48162 0.49241 0.91094 0.0
C1838 C 0.47759 0.47759 0.92102 0.0
C1839 C 0.4697 0.48115 0.93785 0.0
C1840 C 0.46564 0.49945 0.94469 0.0
C1841 C 0.4694 0.51421 0.93468 0.0
C1842 C 0.47731 0.51073 0.91785 0.0
C1843 C 0.45701 0.47819 0.81618 0.0
C1844 C 0.4508 0.49592 0.81497 0.0
C1845 C 0.46838 0.47584 0.83114 0.0
C1846 C 0.47403 0.49122 0.84512 0.0
C1847 C 0.46763 0.50888 0.84411 0.0
C1848 C 0.45613 0.51123 0.82915 0.0
C1849 C 0.48659 0.48869 0.86075 0.0
C1850 C 0.47979 0.49275 0.87809 0.0
C1851 C 0.50461 0.48118 0.85851 0.0
C1852 C 0.51327 0.47776 0.84073 0.0
C1853 C 0.5165 0.49252 0.83046 0.0
C1854 C 0.52449 0.48917 0.81366 0.0
C1855 C 0.52943 0.47115 0.80701 0.0
C1856 C 0.52644 0.45645 0.81719 0.0
C1857 C 0.51844 0.45972 0.834 0.0
H1858 H 0.53561 0.46858 0.794 0.0
H1859 H 0.45953 0.50218 0.95772 0.0
H1860 H 0.75245 0.74366 0.17228 0.0
H1861 H 0.75615 0.72616 0.14226 0.0
H1862 H 0.81543 0.75521 0.14272 0.0
H1863 H 0.81168 0.77291 0.17256 0.0
H1864 H 0.79773 0.75256 0.11071 0.0
H1865 H 0.80573 0.70932 0.15213 0.0
H1866 H 0.79621 0.69137 0.17649 0.0
H1867 H 0.74467 0.66266 0.14477 0.0
H1868 H 0.75374 0.68066 0.12031 0.0
H1869 H 0.83632 0.68747 0.044 0.0
H1870 H 0.82957 0.70716 0.07206 0.0
H1871 H 0.7693 0.6799 0.06701 0.0
H1872 H 0.77591 0.66012 0.03899 0.0
H1873 H 0.78619 0.68175 0.1007 0.0
H1874 H 0.77977 0.72443 0.05851 0.0
H1875 H 0.79031 0.74225 0.03434 0.0
H1876 H 0.84031 0.77179 0.06775 0.0
H1877 H 0.83022 0.75393 0.09205 0.0
C1878 C 0.76623 0.74632 0.16593 0.0
C1879 C 0.78179 0.75961 0.17477 0.0
C1880 C 0.76835 0.73632 0.1488 0.0
C1881 C 0.78618 0.73916 0.14034 0.0
C1882 C 0.80153 0.75278 0.14897 0.0
C1883 C 0.79936 0.76291 0.16601 0.0
C1884 C 0.7891 0.72761 0.12272 0.0
C1885 C 0.7954 0.73708 0.10858 0.0
C1886 C 0.78573 0.7074 0.11982 0.0
C1887 C 0.78031 0.69648 0.13447 0.0
C1888 C 0.79229 0.69928 0.1504 0.0
C1889 C 0.78699 0.68909 0.16422 0.0
C1890 C 0.76982 0.67592 0.1622 0.0
C1891 C 0.75795 0.67289 0.14633 0.0
C1892 C 0.76317 0.68307 0.13248 0.0
C1893 C 0.82161 0.68571 0.04881 0.0
C1894 C 0.80665 0.67223 0.03925 0.0
C1895 C 0.81776 0.69703 0.06482 0.0
C1896 C 0.79889 0.69508 0.07154 0.0
C1897 C 0.78395 0.68164 0.06204 0.0
C1898 C 0.78775 0.67039 0.046 0.0
C1899 C 0.79488 0.70671 0.08875 0.0
C1900 C 0.78841 0.69724 0.10281 0.0
C1901 C 0.79826 0.7269 0.09161 0.0
C1902 C 0.80433 0.73771 0.07704 0.0
C1903 C 0.7931 0.73461 0.06066 0.0
C1904 C 0.79898 0.74474 0.04694 0.0
C1905 C 0.816 0.75811 0.04949 0.0
C1906 C 0.82715 0.76141 0.06578 0.0
C1907 C 0.82134 0.7513 0.07954 0.0
H1908 H 0.82053 0.76594 0.03885 0.0
H1909 H 0.76574 0.66804 0.17292 0.0
H1910 H 0.04963 0.06253 0.12661 0.0
H1911 H 0.031 0.05743 0.15262 0.0
H1912 H 0.02286 0.99666 0.13393 0.0
H1913 H 0.04018 1.00177 0.10702 0.0
H1914 H 0.99038 0.00596 0.14595 0.0
H1915 H 0.05706 0.01986 0.16975 0.0
H1916 H 0.09035 0.03804 0.1756 0.0
H1917 H 0.06608 0.08615 0.2032 0.0
H1918 H 0.0326 0.06834 0.19731 0.0
H1919 H 0.96031 0.9812 0.2296 0.0
H1920 H 0.97983 0.98558 0.20371 0.0
H1921 H 0.97852 0.0463 0.21537 0.0
H1922 H 0.95887 0.04206 0.24129 0.0
H1923 H 0.01612 0.03627 0.20739 0.0
H1924 H 0.94903 0.02112 0.18273 0.0
H1925 H 0.91636 1.00162 0.17739 0.0
H1926 H 0.94281 0.95388 0.15194 0.0
H1927 H 0.97569 0.97303 0.15737 0.0
C1928 C 0.04363 0.04807 0.12779 0.0
C1929 C 0.0464 0.03257 0.11454 0.0
C1930 C 0.03324 0.04514 0.14292 0.0
C1931 C 0.0258 0.02662 0.1455 0.0
C1932 C 0.02852 0.0111 0.13233 0.0
C1933 C 0.03864 0.01404 0.11701 0.0
C1934 C 0.01483 0.02351 0.16171 0.0
C1935 C 0.99621 0.01236 0.15938 0.0
C1936 C 0.02217 0.03209 0.1793 0.0
C1937 C 0.0423 0.04281 0.18295 0.0
C1938 C 0.05881 0.03436 0.17696 0.0
C1939 C 0.07771 0.04459 0.1803 0.0
C1940 C 0.08032 0.06325 0.18972 0.0
C1941 C 0.06403 0.0717 0.19588 0.0
C1942 C 0.04509 0.06153 0.19256 0.0
C1943 C 0.96421 0.99551 0.22671 0.0
C1944 C 0.95797 0.01128 0.23749 0.0
C1945 C 0.97532 0.99797 0.21187 0.0
C1946 C 0.9805 0.01624 0.20756 0.0
C1947 C 0.97465 0.03207 0.21848 0.0
C1948 C 0.96337 0.02961 0.23324 0.0
C1949 C 0.99181 0.01881 0.19152 0.0
C1950 C 0.01044 0.02985 0.19391 0.0
C1951 C 0.98461 0.00992 0.17403 0.0
C1952 C 0.96484 0.99846 0.17062 0.0
C1953 C 0.9479 0.00642 0.17612 0.0
C1954 C 0.92934 0.99544 0.17306 0.0
C1955 C 0.92752 0.97651 0.16438 0.0
C1956 C 0.94425 0.96854 0.15869 0.0
C1957 C 0.96284 0.97946 0.16174 0.0
H1958 H 0.91314 0.96802 0.16202 0.0
H1959 H 0.09497 0.07115 0.19229 0.0
H1960 H 0.26575 0.78762 0.19285 0.0
H1961 H 0.26064 0.7976 0.16376 0.0
H1962 H 0.3112 0.77209 0.14461 0.0
H1963 H 0.31647 0.76215 0.17387 0.0
H1964 H 0.31253 0.80911 0.13884 0.0
H1965 H 0.26614 0.75228 0.12779 0.0
H1966 H 0.23834 0.72924 0.13409 0.0
H1967 H 0.19966 0.77188 0.13475 0.0
H1968 H 0.22729 0.79528 0.12871 0.0
H1969 H 0.29696 0.82877 0.05036 0.0
H1970 H 0.30125 0.81227 0.07588 0.0
H1971 H 0.25029 0.83366 0.09913 0.0
H1972 H 0.24576 0.85007 0.07356 0.0
H1973 H 0.24996 0.7963 0.10133 0.0
H1974 H 0.29629 0.85362 0.115 0.0
H1975 H 0.32387 0.8773 0.1094 0.0
H1976 H 0.3624 0.83428 0.10455 0.0
H1977 H 0.33497 0.81027 0.10988 0.0
C1978 C 0.27563 0.78393 0.18236 0.0
C1979 C 0.29154 0.77416 0.18562 0.0
C1980 C 0.27263 0.78955 0.16571 0.0
C1981 C 0.2855 0.78554 0.15198 0.0
C1982 C 0.30108 0.7753 0.15502 0.0
C1983 C 0.30399 0.76951 0.17166 0.0
C1984 C 0.28337 0.79326 0.13499 0.0
C1985 C 0.299 0.80599 0.13042 0.0
C1986 C 0.26552 0.78961 0.1243 0.0
C1987 C 0.24884 0.77558 0.12794 0.0
C1988 C 0.25174 0.7568 0.12942 0.0
C1989 C 0.23601 0.74366 0.13292 0.0
C1990 C 0.21726 0.7491 0.13486 0.0
C1991 C 0.2142 0.76769 0.13326 0.0
C1992 C 0.22989 0.78089 0.12978 0.0
C1993 C 0.28665 0.82999 0.0609 0.0
C1994 C 0.27105 0.84081 0.05994 0.0
C1995 C 0.28916 0.82057 0.07551 0.0
C1996 C 0.27619 0.82185 0.0895 0.0
C1997 C 0.26047 0.83246 0.08848 0.0
C1998 C 0.25796 0.8419 0.07389 0.0
C1999 C 0.27906 0.81226 0.10528 0.0
C2000 C 0.26357 0.79923 0.10964 0.0
C2001 C 0.29701 0.8157 0.11585 0.0
C2002 C 0.31352 0.8301 0.11263 0.0
C2003 C 0.3106 0.84917 0.11258 0.0
C2004 C 0.32622 0.86266 0.10949 0.0
C2005 C 0.34486 0.85729 0.10657 0.0
C2006 C 0.34794 0.83842 0.10678 0.0
C2007 C 0.33237 0.82486 0.10985 0.0
H2008 H 0.35693 0.86775 0.10418 0.0
H2009 H 0.20509 0.73891 0.13756 0.0
H2010 H 0.9915 0.48641 0.08159 0.0
H2011 H 0.00591 0.48369 0.11105 0.0
H2012 H 0.06359 0.48633 0.08978 0.0
H2013 H 0.04942 0.4893 0.06048 0.0
H2014 H 0.05779 0.45888 0.11069 0.0
H2015 H 0.04914 0.52518 0.11466 0.0
H2016 H 0.03019 0.55187 0.11284 0.0
H2017 H 0.99275 0.53397 0.15317 0.0
H2018 H 0.01132 0.50699 0.15505 0.0
H2019 H 0.12165 0.48533 0.18869 0.0
H2020 H 0.10321 0.48316 0.16007 0.0
H2021 H 0.04897 0.48293 0.18738 0.0
H2022 H 0.06737 0.48542 0.21617 0.0
H2023 H 0.05046 0.50715 0.16404 0.0
H2024 H 0.06067 0.44217 0.16178 0.0
H2025 H 0.07962 0.41549 0.16361 0.0
H2026 H 0.11394 0.43058 0.12023 0.0
H2027 H 0.09537 0.45753 0.11829 0.0
C2028 C 0.00726 0.48648 0.08321 0.0
C2029 C 0.01928 0.48805 0.06863 0.0
C2030 C 0.01546 0.48488 0.10004 0.0
C2031 C 0.03585 0.48492 0.10265 0.0
C2032 C 0.04781 0.48615 0.08806 0.0
C2033 C 0.03965 0.48778 0.07128 0.0
C2034 C 0.04492 0.48411 0.12061 0.0
C2035 C 0.05632 0.46951 0.12234 0.0
C2036 C 0.04258 0.49769 0.13591 0.0
C2037 C 0.03147 0.51394 0.13484 0.0
C2038 C 0.03676 0.52684 0.12303 0.0
C2039 C 0.02611 0.54204 0.12201 0.0
C2040 C 0.01024 0.54458 0.13284 0.0
C2041 C 0.00502 0.53196 0.14476 0.0
C2042 C 0.01561 0.51672 0.14582 0.0
C2043 C 0.10578 0.48465 0.18863 0.0
C2044 C 0.096 0.48552 0.20475 0.0
C2045 C 0.09523 0.48333 0.17221 0.0
C2046 C 0.07466 0.48267 0.17152 0.0
C2047 C 0.06483 0.48339 0.18757 0.0
C2048 C 0.07538 0.48475 0.20401 0.0
C2049 C 0.06355 0.48202 0.15412 0.0
C2050 C 0.05178 0.49637 0.15248 0.0
C2051 C 0.06554 0.46819 0.1389 0.0
C2052 C 0.07672 0.45197 0.14 0.0
C2053 C 0.07236 0.43989 0.15272 0.0
C2054 C 0.08302 0.4247 0.15376 0.0
C2055 C 0.09801 0.42137 0.14207 0.0
C2056 C 0.10234 0.43319 0.12929 0.0
C2057 C 0.09173 0.44841 0.1282 0.0
H2058 H 0.10624 0.4096 0.1429 0.0
H2059 H 0.00201 0.55636 0.13203 0.0
H2060 H 0.33173 0.6989 0.27606 0.0
H2061 H 0.3606 0.69824 0.29576 0.0
H2062 H 0.39792 0.72575 0.25996 0.0
H2063 H 0.36901 0.72638 0.24009 0.0
H2064 H 0.41278 0.69441 0.27162 0.0
H2065 H 0.38744 0.75167 0.2968 0.0
H2066 H 0.36182 0.77067 0.30865 0.0
H2067 H 0.3529 0.737 0.35065 0.0
H2068 H 0.37827 0.71761 0.33889 0.0
H2069 H 0.49806 0.71907 0.33133 0.0
H2070 H 0.47027 0.71884 0.31017 0.0
H2071 H 0.43006 0.69981 0.34842 0.0
H2072 H 0.45777 0.70055 0.36985 0.0
H2073 H 0.41688 0.72729 0.33487 0.0
H2074 H 0.44131 0.66959 0.30999 0.0
H2075 H 0.46614 0.64961 0.29812 0.0
H2076 H 0.47605 0.68266 0.25577 0.0
H2077 H 0.45146 0.70301 0.26753 0.0
C2078 C 0.3461 0.70467 0.27231 0.0
C2079 C 0.34814 0.71267 0.25652 0.0
C2080 C 0.36255 0.70439 0.28362 0.0
C2081 C 0.38136 0.71205 0.27936 0.0
C2082 C 0.38351 0.71979 0.26348 0.0
C2083 C 0.36701 0.72025 0.25222 0.0
C2084 C 0.39871 0.7121 0.29163 0.0
C2085 C 0.41386 0.70181 0.28538 0.0
C2086 C 0.39981 0.72136 0.30969 0.0
C2087 C 0.38463 0.73307 0.31686 0.0
C2088 C 0.3799 0.74822 0.30848 0.0
C2089 C 0.36544 0.75907 0.31519 0.0
C2090 C 0.35571 0.75501 0.33037 0.0
C2091 C 0.36044 0.74011 0.33889 0.0
C2092 C 0.37487 0.7292 0.33221 0.0
C2093 C 0.48331 0.71468 0.33519 0.0
C2094 C 0.48013 0.7098 0.35228 0.0
C2095 C 0.46742 0.71448 0.32304 0.0
C2096 C 0.44804 0.70911 0.3276 0.0
C2097 C 0.44486 0.70403 0.34459 0.0
C2098 C 0.46073 0.7044 0.35681 0.0
C2099 C 0.43102 0.70944 0.31496 0.0
C2100 C 0.41589 0.71986 0.32112 0.0
C2101 C 0.42989 0.70015 0.29685 0.0
C2102 C 0.44468 0.68794 0.28975 0.0
C2103 C 0.4489 0.6727 0.29823 0.0
C2104 C 0.46291 0.66129 0.29151 0.0
C2105 C 0.4727 0.6649 0.27623 0.0
C2106 C 0.46847 0.6799 0.26762 0.0
C2107 C 0.45449 0.69136 0.27429 0.0
H2108 H 0.48354 0.65605 0.27104 0.0
H2109 H 0.34452 0.76344 0.33555 0.0
H2110 H 0.01574 0.4318 0.94573 0.0
H2111 H 0.01354 0.39781 0.9341 0.0
H2112 H 0.03009 0.38706 0.98678 0.0
H2113 H 0.03278 0.42137 0.99849 0.0
H2114 H 0.05075 0.3688 0.96102 0.0
H2115 H 0.98327 0.37362 0.97003 0.0
H2116 H 0.95198 0.38689 0.96836 0.0
H2117 H 0.95022 0.37455 0.91078 0.0
H2118 H 0.98167 0.36145 0.91208 0.0
H2119 H 0.03234 0.26838 0.92629 0.0
H2120 H 0.03046 0.29938 0.94482 0.0
H2121 H 0.01569 0.32228 0.89739 0.0
H2122 H 0.01744 0.29144 0.87884 0.0
H2123 H 0.99224 0.33245 0.92488 0.0
H2124 H 0.06179 0.33161 0.91629 0.0
H2125 H 0.09324 0.31857 0.91796 0.0
H2126 H 0.09072 0.32339 0.9752 0.0
H2127 H 0.0591 0.33623 0.97383 0.0
C2128 C 0.01897 0.42224 0.95486 0.0
C2129 C 0.02456 0.42929 0.97301 0.0
C2130 C 0.0175 0.40277 0.94823 0.0
C2131 C 0.02144 0.38985 0.9596 0.0
C2132 C 0.02689 0.39678 0.97779 0.0
C2133 C 0.02831 0.41634 0.98448 0.0
C2134 C 0.02067 0.3693 0.95212 0.0
C2135 C 0.03781 0.3607 0.95346 0.0
C2136 C 0.00388 0.35882 0.94203 0.0
C2137 C 0.98492 0.36666 0.94116 0.0
C2138 C 0.9763 0.37386 0.957 0.0
C2139 C 0.95851 0.38133 0.95612 0.0
C2140 C 0.94914 0.38159 0.93947 0.0
C2141 C 0.95751 0.37435 0.92367 0.0
C2142 C 0.9753 0.36687 0.92447 0.0
C2143 C 0.02866 0.28001 0.91981 0.0
C2144 C 0.02511 0.27746 0.90107 0.0
C2145 C 0.02763 0.29772 0.93042 0.0
C2146 C 0.02304 0.31316 0.92246 0.0
C2147 C 0.01922 0.31055 0.90381 0.0
C2148 C 0.02032 0.29292 0.89321 0.0
C2149 C 0.02245 0.33218 0.9334 0.0
C2150 C 0.00505 0.34046 0.93271 0.0
C2151 C 0.03897 0.34234 0.9441 0.0
C2152 C 0.05798 0.33465 0.94493 0.0
C2153 C 0.06786 0.32973 0.92921 0.0
C2154 C 0.08573 0.32241 0.93011 0.0
C2155 C 0.09394 0.32009 0.94667 0.0
C2156 C 0.08432 0.32515 0.96238 0.0
C2157 C 0.06643 0.33246 0.96155 0.0
H2158 H 0.10778 0.31443 0.94734 0.0
H2159 H 0.93537 0.38738 0.93882 0.0
H2160 H 0.73985 0.74584 0.29677 0.0
H2161 H 0.70911 0.74488 0.31224 0.0
H2162 H 0.67788 0.75243 0.26394 0.0
H2163 H 0.70861 0.75325 0.24828 0.0
H2164 H 0.66497 0.773 0.2946 0.0
H2165 H 0.67691 0.70883 0.27354 0.0
H2166 H 0.69645 0.68205 0.26988 0.0
H2167 H 0.70043 0.68414 0.32703 0.0
H2168 H 0.68115 0.71115 0.33105 0.0
H2169 H 0.56874 0.738 0.3173 0.0
H2170 H 0.59971 0.74331 0.30264 0.0
H2171 H 0.63146 0.73176 0.34908 0.0
H2172 H 0.6005 0.72608 0.36373 0.0
H2173 H 0.6441 0.71367 0.31912 0.0
H2174 H 0.63172 0.77758 0.34029 0.0
H2175 H 0.61233 0.80448 0.34399 0.0
H2176 H 0.60912 0.80301 0.28691 0.0
H2177 H 0.62827 0.77591 0.28285 0.0
C2178 C 0.72646 0.74739 0.28945 0.0
C2179 C 0.72663 0.74938 0.27123 0.0
C2180 C 0.70892 0.74688 0.29832 0.0
C2181 C 0.69116 0.74825 0.28915 0.0
C2182 C 0.69142 0.7513 0.27125 0.0
C2183 C 0.709 0.75182 0.26234 0.0
C2184 C 0.67224 0.74538 0.29795 0.0
C2185 C 0.66027 0.75995 0.29979 0.0
C2186 C 0.6663 0.72848 0.30499 0.0
C2187 C 0.67775 0.71213 0.3026 0.0
C2188 C 0.68207 0.70367 0.28534 0.0
C2189 C 0.69309 0.68844 0.28319 0.0
C2190 C 0.69972 0.68143 0.29822 0.0
C2191 C 0.6953 0.6896 0.31541 0.0
C2192 C 0.68432 0.70487 0.31763 0.0
C2193 C 0.5823 0.7366 0.32442 0.0
C2194 C 0.58213 0.73163 0.3417 0.0
C2195 C 0.60002 0.73975 0.31605 0.0
C2196 C 0.61796 0.73818 0.32485 0.0
C2197 C 0.61781 0.7331 0.34205 0.0
C2198 C 0.60009 0.72988 0.35041 0.0
C2199 C 0.63682 0.74136 0.31595 0.0
C2200 C 0.64878 0.72677 0.31401 0.0
C2201 C 0.64272 0.75825 0.30885 0.0
C2202 C 0.63127 0.77459 0.31126 0.0
C2203 C 0.62675 0.78289 0.32851 0.0
C2204 C 0.61582 0.79819 0.33068 0.0
C2205 C 0.60945 0.80542 0.31569 0.0
C2206 C 0.61404 0.79739 0.29851 0.0
C2207 C 0.62495 0.78207 0.29627 0.0
H2208 H 0.60099 0.81726 0.31739 0.0
H2209 H 0.70824 0.66963 0.29653 0.0
H2210 H 0.09003 0.10339 0.02197 0.0
H2211 H 0.0826 0.11449 0.99373 0.0
H2212 H 0.02042 0.10311 1.0016 0.0
H2213 H 0.02793 0.09146 0.0296 0.0
H2214 H 0.02745 0.09671 0.96598 0.0
H2215 H 0.04554 0.14662 0.01659 0.0
H2216 H 0.0669 0.1641 0.04245 0.0
H2217 H 0.11344 0.17555 0.00743 0.0
H2218 H 0.09245 0.15784 0.98139 0.0
H2219 H 0.99369 0.16767 0.92015 0.0
H2220 H 1.00144 0.14701 0.94152 0.0
H2221 H 0.06327 0.15955 0.93285 0.0
H2222 H 0.0557 0.18038 0.91166 0.0
H2223 H 0.05687 0.1641 0.96782 0.0
H2224 H 0.03716 0.11564 0.91659 0.0
H2225 H 0.01508 0.0983 0.89117 0.0
H2226 H 0.97059 0.08477 0.92752 0.0
H2227 H 0.99231 0.10226 0.95315 0.0
C2228 C 0.0748 0.10266 0.01728 0.0
C2229 C 0.05951 0.09653 0.02776 0.0
C2230 C 0.07055 0.10911 1.00126 0.0
C2231 C 0.05096 0.10999 0.99574 0.0
C2232 C 0.03563 0.10258 0.00559 0.0
C2233 C 0.0399 0.09592 0.02154 0.0
C2234 C 0.04659 0.12059 0.981 0.0
C2235 C 0.03376 0.11148 0.96641 0.0
C2236 C 0.05496 0.13983 0.98148 0.0
C2237 C 0.0675 0.15075 0.99708 0.0
C2238 C 0.06037 0.15277 0.01442 0.0
C2239 C 0.07241 0.16272 0.02911 0.0
C2240 C 0.09153 0.1709 0.02659 0.0
C2241 C 0.09863 0.16918 0.00936 0.0
C2242 C 0.08667 0.15919 0.99464 0.0
C2243 C 0.00893 0.1659 0.92266 0.0
C2244 C 0.02408 0.17576 0.91424 0.0
C2245 C 0.01332 0.15399 0.93481 0.0
C2246 C 0.03294 0.15161 0.93871 0.0
C2247 C 0.04804 0.16116 0.93006 0.0
C2248 C 0.04366 0.17306 0.91792 0.0
C2249 C 0.03787 0.1402 0.95263 0.0
C2250 C 0.0507 0.14926 0.96721 0.0
C2251 C 0.02937 0.121 0.95216 0.0
C2252 C 0.0163 0.11041 0.93678 0.0
C2253 C 0.02261 0.1091 0.91915 0.0
C2254 C 0.01017 0.09922 0.9047 0.0
C2255 C 0.99143 0.09048 0.90772 0.0
C2256 C 0.9851 0.09156 0.9252 0.0
C2257 C 0.99748 0.10144 0.93969 0.0
H2258 H 0.98182 0.08284 0.89652 0.0
H2259 H 0.10083 0.1786 0.03797 0.0
H2260 H 0.33728 0.29542 0.26835 0.0
H2261 H 0.36165 0.29224 0.24552 0.0
H2262 H 0.39814 0.26814 0.28111 0.0
H2263 H 0.37455 0.27231 0.30426 0.0
H2264 H 0.42023 0.29225 0.26601 0.0
H2265 H 0.36862 0.24058 0.24448 0.0
H2266 H 0.33468 0.22579 0.23469 0.0
H2267 H 0.33476 0.25897 0.19207 0.0
H2268 H 0.36864 0.27414 0.20177 0.0
H2269 H 0.48093 0.2438 0.20617 0.0
H2270 H 0.45508 0.25101 0.22661 0.0
H2271 H 0.43133 0.28376 0.18994 0.0
H2272 H 0.45736 0.27675 0.16936 0.0
H2273 H 0.40244 0.25802 0.20402 0.0
H2274 H 0.45596 0.30758 0.22503 0.0
H2275 H 0.49036 0.32058 0.23487 0.0
H2276 H 0.48692 0.28922 0.27887 0.0
H2277 H 0.45256 0.2758 0.26913 0.0
C2278 C 0.35057 0.28959 0.27137 0.0
C2279 C 0.3538 0.28396 0.28814 0.0
C2280 C 0.36441 0.28758 0.25822 0.0
C2281 C 0.38166 0.27969 0.26145 0.0
C2282 C 0.38495 0.2742 0.27822 0.0
C2283 C 0.37126 0.27637 0.2914 0.0
C2284 C 0.3965 0.2773 0.24761 0.0
C2285 C 0.4163 0.2846 0.25252 0.0
C2286 C 0.39143 0.26775 0.22981 0.0
C2287 C 0.37107 0.25866 0.22398 0.0
C2288 C 0.36134 0.24484 0.23311 0.0
C2289 C 0.34212 0.23637 0.22757 0.0
C2290 C 0.33255 0.24148 0.2128 0.0
C2291 C 0.34219 0.25505 0.20353 0.0
C2292 C 0.36139 0.26358 0.20904 0.0
C2293 C 0.47021 0.25252 0.20239 0.0
C2294 C 0.47124 0.25974 0.18614 0.0
C2295 C 0.45547 0.25666 0.21413 0.0
C2296 C 0.44138 0.26802 0.20984 0.0
C2297 C 0.4421 0.27499 0.19349 0.0
C2298 C 0.45701 0.27102 0.1818 0.0
C2299 C 0.42605 0.27264 0.22261 0.0
C2300 C 0.40624 0.2658 0.21749 0.0
C2301 C 0.43111 0.28241 0.24028 0.0
C2302 C 0.45173 0.29057 0.24625 0.0
C2303 C 0.46258 0.30334 0.23672 0.0
C2304 C 0.48207 0.3108 0.2423 0.0
C2305 C 0.49084 0.3057 0.25747 0.0
C2306 C 0.48011 0.29315 0.26712 0.0
C2307 C 0.46063 0.28563 0.26158 0.0
H2308 H 0.50592 0.31149 0.26176 0.0
H2309 H 0.31767 0.2349 0.20853 0.0
H2310 H 0.58959 0.37699 0.00606 0.0
H2311 H 0.58227 0.36326 0.03312 0.0
H2312 H 0.53219 0.39387 0.0404 0.0
H2313 H 0.53976 0.40798 0.01341 0.0
H2314 H 0.55024 0.39104 0.07284 0.0
H2315 H 0.52568 0.349 0.01866 0.0
H2316 H 0.52785 0.33121 0.98821 0.0
H2317 H 0.57076 0.29996 0.0082 0.0
H2318 H 0.56909 0.3178 0.03874 0.0
H2319 H 0.49584 0.32493 0.12184 0.0
H2320 H 0.50705 0.34623 0.10078 0.0
H2321 H 0.55808 0.31737 0.09154 0.0
H2322 H 0.54699 0.29601 0.11244 0.0
H2323 H 0.53887 0.32022 0.06049 0.0
H2324 H 0.56249 0.36218 0.11524 0.0
H2325 H 0.55971 0.38012 0.14551 0.0
H2326 H 0.51729 0.41121 0.1245 0.0
H2327 H 0.51961 0.39326 0.09411 0.0
C2328 C 0.57726 0.38108 0.01365 0.0
C2329 C 0.5651 0.39336 0.00757 0.0
C2330 C 0.57306 0.37321 0.02907 0.0
C2331 C 0.55641 0.37719 0.03854 0.0
C2332 C 0.54506 0.39054 0.03325 0.0
C2333 C 0.54939 0.3986 0.01786 0.0
C2334 C 0.54992 0.36601 0.05278 0.0
C2335 C 0.54754 0.37557 0.07013 0.0
C2336 C 0.54655 0.3458 0.04927 0.0
C2337 C 0.54739 0.33486 0.03096 0.0
C2338 C 0.53568 0.33842 0.01654 0.0
C2339 C 0.53681 0.32833 0.99927 0.0
C2340 C 0.54947 0.3145 0.99626 0.0
C2341 C 0.56098 0.3107 0.01054 0.0
C2342 C 0.55994 0.32079 0.02784 0.0
C2343 C 0.50956 0.32325 0.11548 0.0
C2344 C 0.52046 0.30868 0.11877 0.0
C2345 C 0.51599 0.3355 0.1035 0.0
C2346 C 0.53345 0.33343 0.09463 0.0
C2347 C 0.54456 0.31921 0.09822 0.0
C2348 C 0.5382 0.30702 0.11021 0.0
C2349 C 0.53951 0.34519 0.0807 0.0
C2350 C 0.54164 0.33569 0.06329 0.0
C2351 C 0.54248 0.3654 0.08418 0.0
C2352 C 0.54107 0.37623 0.10243 0.0
C2353 C 0.55243 0.37272 0.11709 0.0
C2354 C 0.55097 0.38292 0.13427 0.0
C2355 C 0.53829 0.39676 0.13694 0.0
C2356 C 0.52708 0.40046 0.12242 0.0
C2357 C 0.52848 0.3903 0.10521 0.0
H2358 H 0.53718 0.40464 0.15025 0.0
H2359 H 0.55033 0.30669 0.98288 0.0
H2360 H 0.69708 0.24802 0.27406 0.0
H2361 H 0.66495 0.25412 0.26261 0.0
H2362 H 0.66765 0.21136 0.21588 0.0
H2363 H 0.69981 0.20566 0.22705 0.0
H2364 H 0.65959 0.24269 0.20591 0.0
H2365 H 0.63496 0.20521 0.24991 0.0
H2366 H 0.63216 0.19662 0.28016 0.0
H2367 H 0.61336 0.2507 0.29956 0.0
H2368 H 0.6163 0.25972 0.26947 0.0
H2369 H 0.56424 0.23501 0.16608 0.0
H2370 H 0.59307 0.22789 0.18224 0.0
H2371 H 0.58885 0.27555 0.22403 0.0
H2372 H 0.5598 0.28272 0.20799 0.0
H2373 H 0.59751 0.2436 0.23766 0.0
H2374 H 0.62182 0.2806 0.19336 0.0
H2375 H 0.62436 0.2888 0.16296 0.0
H2376 H 0.64379 0.23489 0.1441 0.0
H2377 H 0.64111 0.22625 0.17435 0.0
C2378 C 0.69057 0.23972 0.26152 0.0
C2379 C 0.70093 0.22649 0.25135 0.0
C2380 C 0.67223 0.24318 0.25499 0.0
C2381 C 0.66385 0.23321 0.23835 0.0
C2382 C 0.67385 0.21935 0.22866 0.0
C2383 C 0.6922 0.21607 0.23506 0.0
C2384 C 0.64548 0.23807 0.23022 0.0
C2385 C 0.64597 0.2426 0.21281 0.0
C2386 C 0.62783 0.23861 0.23938 0.0
C2387 C 0.62606 0.23322 0.25748 0.0
C2388 C 0.63039 0.21534 0.26066 0.0
C2389 C 0.62874 0.21038 0.27777 0.0
C2390 C 0.62264 0.22313 0.29178 0.0
C2391 C 0.61812 0.24085 0.2887 0.0
C2392 C 0.61976 0.24588 0.27162 0.0
C2393 C 0.56936 0.24396 0.17873 0.0
C2394 C 0.5598 0.25955 0.18565 0.0
C2395 C 0.58587 0.23988 0.18796 0.0
C2396 C 0.59324 0.25133 0.20424 0.0
C2397 C 0.58342 0.26655 0.21147 0.0
C2398 C 0.56688 0.27068 0.20223 0.0
C2399 C 0.61163 0.24774 0.21329 0.0
C2400 C 0.61118 0.24363 0.23085 0.0
C2401 C 0.62936 0.2475 0.20427 0.0
C2402 C 0.6311 0.25271 0.18609 0.0
C2403 C 0.6265 0.27044 0.1827 0.0
C2404 C 0.62798 0.27517 0.1655 0.0
C2405 C 0.63419 0.26236 0.15159 0.0
C2406 C 0.63897 0.2448 0.15488 0.0
C2407 C 0.63749 0.23998 0.17205 0.0
H2408 H 0.63533 0.26605 0.13829 0.0
H2409 H 0.62137 0.21927 0.30502 0.0
H2410 H 0.48418 0.06212 0.0147 0.0
H2411 H 0.49394 0.0892 0.03882 0.0
H2412 H 0.47639 0.12759 0.00459 0.0
H2413 H 0.46668 0.10056 0.9804 0.0
H2414 H 0.50938 0.14347 0.02545 0.0
H2415 H 0.44524 0.11148 0.03388 0.0
H2416 H 0.42103 0.08364 0.03674 0.0
H2417 H 0.45377 0.07488 0.08348 0.0
H2418 H 0.47839 0.10248 0.08071 0.0
H2419 H 0.49512 0.22042 0.09368 0.0
H2420 H 0.48986 0.19403 0.0684 0.0
H2421 H 0.50716 0.15568 0.10279 0.0
H2422 H 0.51227 0.18194 0.12818 0.0
H2423 H 0.47479 0.13984 0.08172 0.0
H2424 H 0.53872 0.17252 0.07343 0.0
H2425 H 0.56282 0.20031 0.07018 0.0
H2426 H 0.53002 0.20813 0.02311 0.0
H2427 H 0.50556 0.18053 0.02622 0.0
C2428 C 0.48267 0.07637 0.01224 0.0
C2429 C 0.4745 0.07919 0.99571 0.0
C2430 C 0.48822 0.09182 0.02603 0.0
C2431 C 0.48551 0.11038 0.02363 0.0
C2432 C 0.47855 0.11339 0.00676 0.0
C2433 C 0.47307 0.09793 0.99292 0.0
C2434 C 0.48858 0.12636 0.03904 0.0
C2435 C 0.50167 0.14277 0.03769 0.0
C2436 C 0.47871 0.12535 0.05511 0.0
C2437 C 0.46376 0.10893 0.05698 0.0
C2438 C 0.44735 0.10354 0.0447 0.0
C2439 C 0.43355 0.08781 0.04631 0.0
C2440 C 0.43589 0.07747 0.06026 0.0
C2441 C 0.452 0.08288 0.07267 0.0
C2442 C 0.46588 0.09857 0.07108 0.0
C2443 C 0.49774 0.20636 0.0959 0.0
C2444 C 0.50418 0.20332 0.11297 0.0
C2445 C 0.49483 0.19131 0.0814 0.0
C2446 C 0.49837 0.17292 0.08364 0.0
C2447 C 0.5044 0.16976 0.10073 0.0
C2448 C 0.50734 0.1848 0.11523 0.0
C2449 C 0.49569 0.15695 0.0682 0.0
C2450 C 0.48258 0.14054 0.06953 0.0
C2451 C 0.50548 0.15802 0.0521 0.0
C2452 C 0.5202 0.17457 0.05016 0.0
C2453 C 0.53656 0.18026 0.06246 0.0
C2454 C 0.5503 0.19596 0.06063 0.0
C2455 C 0.54792 0.20601 0.04647 0.0
C2456 C 0.53182 0.20034 0.03409 0.0
C2457 C 0.51803 0.18467 0.03587 0.0
H2458 H 0.55858 0.21816 0.04508 0.0
H2459 H 0.42519 0.06529 0.06148 0.0
H2460 H 0.26857 0.32354 0.73888 0.0
H2461 H 0.2871 0.35552 0.74812 0.0
H2462 H 0.33258 0.3404 0.71263 0.0
H2463 H 0.31455 0.30845 0.7038 0.0
H2464 H 0.34807 0.35778 0.74494 0.0
H2465 H 0.29904 0.36866 0.70172 0.0
H2466 H 0.26528 0.36817 0.68917 0.0
H2467 H 0.25166 0.40373 0.73721 0.0
H2468 H 0.28529 0.40422 0.75014 0.0
H2469 H 0.40162 0.44524 0.73427 0.0
H2470 H 0.37977 0.41495 0.72912 0.0
H2471 H 0.34147 0.43782 0.76865 0.0
H2472 H 0.36328 0.46835 0.77389 0.0
H2473 H 0.32094 0.41726 0.73781 0.0
H2474 H 0.37096 0.40842 0.77999 0.0
H2475 H 0.40494 0.40928 0.79215 0.0
H2476 H 0.41676 0.36991 0.74598 0.0
H2477 H 0.38293 0.36904 0.7334 0.0
C2478 C 0.28254 0.32706 0.73309 0.0
C2479 C 0.29 0.3135 0.72049 0.0
C2480 C 0.29303 0.34535 0.73828 0.0
C2481 C 0.31115 0.35039 0.73095 0.0
C2482 C 0.31861 0.33685 0.71843 0.0
C2483 C 0.30817 0.31864 0.71325 0.0
C2484 C 0.32268 0.36959 0.73642 0.0
C2485 C 0.34217 0.37077 0.74324 0.0
C2486 C 0.3148 0.38658 0.73473 0.0
C2487 C 0.29459 0.38628 0.72698 0.0
C2488 C 0.28879 0.37624 0.70967 0.0
C2489 C 0.26969 0.37599 0.70247 0.0
C2490 C 0.25631 0.38586 0.71241 0.0
C2491 C 0.26202 0.39605 0.72954 0.0
C2492 C 0.2811 0.39633 0.73681 0.0
C2493 C 0.38853 0.4439 0.74186 0.0
C2494 C 0.38425 0.4592 0.75456 0.0
C2495 C 0.37609 0.42654 0.73893 0.0
C2496 C 0.35914 0.42408 0.74866 0.0
C2497 C 0.35453 0.43943 0.76105 0.0
C2498 C 0.36704 0.45682 0.76406 0.0
C2499 C 0.34643 0.40535 0.7459 0.0
C2500 C 0.32674 0.40427 0.73967 0.0
C2501 C 0.35411 0.38842 0.74811 0.0
C2502 C 0.37444 0.38879 0.75569 0.0
C2503 C 0.38085 0.40006 0.77236 0.0
C2504 C 0.40008 0.40053 0.77934 0.0
C2505 C 0.41301 0.38968 0.76983 0.0
C2506 C 0.40673 0.37831 0.75333 0.0
C2507 C 0.38752 0.37781 0.74628 0.0
H2508 H 0.4279 0.39007 0.77525 0.0
H2509 H 0.24153 0.38566 0.70681 0.0
H2510 H 0.30632 0.69611 0.8326 0.0
H2511 H 0.32883 0.67222 0.8325 0.0
H2512 H 0.28909 0.63251 0.79453 0.0
H2513 H 0.26627 0.65607 0.79501 0.0
H2514 H 0.30443 0.61458 0.81911 0.0
H2515 H 0.32905 0.65913 0.78082 0.0
H2516 H 0.34062 0.69101 0.77369 0.0
H2517 H 0.38774 0.69857 0.81418 0.0
H2518 H 0.37626 0.66682 0.82172 0.0
H2519 H 0.36682 0.55157 0.77791 0.0
H2520 H 0.34485 0.57574 0.78415 0.0
H2521 H 0.38861 0.61016 0.82224 0.0
H2522 H 0.41082 0.58606 0.81597 0.0
H2523 H 0.3723 0.63146 0.80049 0.0
H2524 H 0.34897 0.58544 0.83702 0.0
H2525 H 0.33733 0.55336 0.84361 0.0
H2526 H 0.28778 0.54828 0.80604 0.0
H2527 H 0.29927 0.58024 0.79903 0.0
C2528 C 0.3022 0.68216 0.82451 0.0
C2529 C 0.28458 0.67803 0.81369 0.0
C2530 C 0.31517 0.66858 0.82433 0.0
C2531 C 0.3108 0.65068 0.81327 0.0
C2532 C 0.29283 0.64625 0.80309 0.0
C2533 C 0.27987 0.65978 0.80328 0.0
C2534 C 0.32523 0.6368 0.81164 0.0
C2535 C 0.31922 0.61822 0.81492 0.0
C2536 C 0.34469 0.64167 0.80655 0.0
C2537 C 0.35167 0.6607 0.80197 0.0
C2538 C 0.34179 0.66765 0.7883 0.0
C2539 C 0.34834 0.68569 0.78417 0.0
C2540 C 0.36487 0.69683 0.79352 0.0
C2541 C 0.37491 0.68994 0.80698 0.0
C2542 C 0.3684 0.67192 0.81118 0.0
C2543 C 0.37182 0.56427 0.78761 0.0
C2544 C 0.39058 0.56684 0.79648 0.0
C2545 C 0.35918 0.57804 0.79123 0.0
C2546 C 0.36498 0.59464 0.80384 0.0
C2547 C 0.38381 0.59742 0.81251 0.0
C2548 C 0.39646 0.58361 0.80893 0.0
C2549 C 0.35142 0.60917 0.80775 0.0
C2550 C 0.35759 0.62785 0.80488 0.0
C2551 C 0.33209 0.60438 0.81316 0.0
C2552 C 0.32508 0.58518 0.81739 0.0
C2553 C 0.33567 0.57743 0.83006 0.0
C2554 C 0.32909 0.55927 0.83389 0.0
C2555 C 0.31185 0.54877 0.82522 0.0
C2556 C 0.30114 0.55642 0.81273 0.0
C2557 C 0.30767 0.57457 0.80884 0.0
H2558 H 0.30678 0.53472 0.8282 0.0
H2559 H 0.36993 0.71079 0.7903 0.0
H2560 H 0.91192 0.53968 0.49664 0.0
H2561 H 0.8884 0.51506 0.50608 0.0
H2562 H 0.9159 0.47142 0.47407 0.0
H2563 H 0.93944 0.4961 0.46442 0.0
H2564 H 0.87739 0.46323 0.46955 0.0
H2565 H 0.92312 0.48078 0.52027 0.0
H2566 H 0.94349 0.50275 0.54434 0.0
H2567 H 0.89142 0.52148 0.56709 0.0
H2568 H 0.87074 0.49982 0.54301 0.0
H2569 H 0.83098 0.40271 0.53909 0.0
H2570 H 0.85803 0.42452 0.53024 0.0
H2571 H 0.81735 0.4455 0.4959 0.0
H2572 H 0.79035 0.42357 0.50442 0.0
H2573 H 0.86536 0.46228 0.53383 0.0
H2574 H 0.83964 0.45614 0.45883 0.0
H2575 H 0.82125 0.43231 0.43486 0.0
H2576 H 0.83731 0.38697 0.46088 0.0
H2577 H 0.85604 0.4105 0.48485 0.0
C2578 C 0.91313 0.52484 0.49178 0.0
C2579 C 0.92766 0.51983 0.47991 0.0
C2580 C 0.89965 0.51076 0.49718 0.0
C2581 C 0.90054 0.49135 0.491 0.0
C2582 C 0.91494 0.4863 0.47903 0.0
C2583 C 0.92837 0.5004 0.47352 0.0
C2584 C 0.88616 0.47642 0.49679 0.0
C2585 C 0.87481 0.463 0.4836 0.0
C2586 C 0.88302 0.47584 0.51515 0.0
C2587 C 0.89539 0.48877 0.52975 0.0
C2588 C 0.91602 0.48968 0.53034 0.0
C2589 C 0.92762 0.50206 0.54399 0.0
C2590 C 0.91876 0.51353 0.55721 0.0
C2591 C 0.89827 0.5126 0.55683 0.0
C2592 C 0.8866 0.50025 0.5432 0.0
C2593 C 0.82778 0.41197 0.52965 0.0
C2594 C 0.8085 0.41131 0.52238 0.0
C2595 C 0.84326 0.42446 0.52464 0.0
C2596 C 0.83978 0.43647 0.51222 0.0
C2597 C 0.82048 0.43612 0.50524 0.0
C2598 C 0.80502 0.42361 0.51019 0.0
C2599 C 0.85628 0.44942 0.50657 0.0
C2600 C 0.86801 0.46247 0.51978 0.0
C2601 C 0.86006 0.44939 0.48825 0.0
C2602 C 0.84909 0.43511 0.47372 0.0
C2603 C 0.83933 0.44108 0.45939 0.0
C2604 C 0.82883 0.42763 0.44581 0.0
C2605 C 0.82806 0.40814 0.44638 0.0
C2606 C 0.83786 0.40207 0.46049 0.0
C2607 C 0.8484 0.41546 0.47409 0.0
H2608 H 0.8199 0.39775 0.43587 0.0
H2609 H 0.92776 0.52311 0.56777 0.0
H2610 H 0.80402 0.89042 0.81682 0.0
H2611 H 0.78206 0.90843 0.80239 0.0
H2612 H 0.74136 0.85698 0.78557 0.0
H2613 H 0.76338 0.83877 0.80018 0.0
H2614 H 0.74514 0.88401 0.75968 0.0
H2615 H 0.73156 0.88165 0.82129 0.0
H2616 H 0.74054 0.88416 0.85354 0.0
H2617 H 0.76376 0.94322 0.85608 0.0
H2618 H 0.75524 0.94097 0.82374 0.0
H2619 H 0.66535 0.93903 0.74963 0.0
H2620 H 0.68553 0.91504 0.75672 0.0
H2621 H 0.72878 0.95979 0.78522 0.0
H2622 H 0.70866 0.98368 0.7785 0.0
H2623 H 0.72069 0.93265 0.80466 0.0
H2624 H 0.73604 0.93495 0.7431 0.0
H2625 H 0.72843 0.93263 0.71062 0.0
H2626 H 0.70243 0.87428 0.70773 0.0
H2627 H 0.70967 0.87634 0.74026 0.0
C2628 C 0.79056 0.88286 0.80977 0.0
C2629 C 0.78526 0.86325 0.80986 0.0
C2630 C 0.77806 0.89315 0.8015 0.0
C2631 C 0.75996 0.88409 0.79318 0.0
C2632 C 0.75527 0.86423 0.79196 0.0
C2633 C 0.76786 0.85385 0.80027 0.0
C2634 C 0.74524 0.89585 0.78771 0.0
C2635 C 0.7395 0.89445 0.76949 0.0
C2636 C 0.73808 0.90959 0.80053 0.0
C2637 C 0.7429 0.9111 0.82006 0.0
C2638 C 0.73871 0.89514 0.82869 0.0
C2639 C 0.7437 0.89652 0.84699 0.0
C2640 C 0.75275 0.91383 0.85684 0.0
C2641 C 0.75677 0.92982 0.84842 0.0
C2642 C 0.75184 0.9285 0.83011 0.0
C2643 C 0.67921 0.94375 0.75734 0.0
C2644 C 0.68535 0.96329 0.76355 0.0
C2645 C 0.69077 0.93002 0.76131 0.0
C2646 C 0.70875 0.9356 0.77144 0.0
C2647 C 0.71495 0.95511 0.77744 0.0
C2648 C 0.70342 0.96878 0.77355 0.0
C2649 C 0.72091 0.92129 0.7765 0.0
C2650 C 0.72613 0.92214 0.79476 0.0
C2651 C 0.72755 0.90713 0.76369 0.0
C2652 C 0.72318 0.90588 0.74415 0.0
C2653 C 0.72855 0.92168 0.73557 0.0
C2654 C 0.72433 0.9204 0.71714 0.0
C2655 C 0.71489 0.90334 0.70713 0.0
C2656 C 0.7097 0.8875 0.71551 0.0
C2657 C 0.71387 0.88871 0.73394 0.0
H2658 H 0.71165 0.90237 0.69287 0.0
H2659 H 0.75661 0.91487 0.87101 0.0
H2660 H 0.6101 0.48359 0.99835 0.0
H2661 H 0.6413 0.50506 0.00503 0.0
H2662 H 0.64177 0.51365 0.94979 0.0
H2663 H 0.61106 0.49193 0.94296 0.0
H2664 H 0.67729 0.50752 0.96159 0.0
H2665 H 0.62854 0.54731 0.98257 0.0
H2666 H 0.60073 0.55622 1.00042 0.0
H2667 H 0.63492 0.55632 0.04912 0.0
H2668 H 0.66286 0.54715 0.03154 0.0
H2669 H 0.74721 0.59053 0.96706 0.0
H2670 H 0.717 0.56767 0.96272 0.0
H2671 H 0.72102 0.56205 0.01869 0.0
H2672 H 0.75111 0.58502 0.02319 0.0
H2673 H 0.68394 0.56569 0.008 0.0
H2674 H 0.73325 0.5273 0.98704 0.0
H2675 H 0.76111 0.51859 0.96918 0.0
H2676 H 0.72595 0.51581 0.92047 0.0
H2677 H 0.69795 0.52478 0.93805 0.0
C2678 C 0.61692 0.49003 0.98765 0.0
C2679 C 0.60799 0.48623 0.97018 0.0
C2680 C 0.63466 0.50238 0.9915 0.0
C2681 C 0.64377 0.51111 0.97794 0.0
C2682 C 0.63499 0.50713 0.96048 0.0
C2683 C 0.61731 0.49486 0.95664 0.0
C2684 C 0.6625 0.52434 0.98176 0.0
C2685 C 0.67869 0.52034 0.97162 0.0
C2686 C 0.66448 0.54081 0.99515 0.0
C2687 C 0.6477 0.54633 0.00574 0.0
C2688 C 0.63007 0.54907 0.99708 0.0
C2689 C 0.61429 0.5542 0.00715 0.0
C2690 C 0.61603 0.55678 0.02589 0.0
C2691 C 0.63358 0.55428 0.0346 0.0
C2692 C 0.64939 0.54913 0.0246 0.0
C2693 C 0.74169 0.58441 0.97844 0.0
C2694 C 0.75162 0.58956 0.99546 0.0
C2695 C 0.72446 0.5713 0.97593 0.0
C2696 C 0.71686 0.56301 0.99034 0.0
C2697 C 0.72663 0.56825 0.00737 0.0
C2698 C 0.74387 0.58134 0.0099 0.0
C2699 C 0.69864 0.54898 0.98768 0.0
C2700 C 0.68258 0.55282 0.99804 0.0
C2701 C 0.69677 0.53235 0.97449 0.0
C2702 C 0.71356 0.52689 0.96387 0.0
C2703 C 0.7315 0.52498 0.97252 0.0
C2704 C 0.74731 0.51997 0.96245 0.0
C2705 C 0.74531 0.51669 0.9437 0.0
C2706 C 0.72748 0.51838 0.93499 0.0
C2707 C 0.71163 0.52341 0.94501 0.0
H2708 H 0.75757 0.51281 0.93592 0.0
H2709 H 0.60381 0.56075 0.03366 0.0
H2710 H 0.30413 0.65964 0.2229 0.0
H2711 H 0.2792 0.63199 0.22179 0.0
H2712 H 0.23383 0.66869 0.22658 0.0
H2713 H 0.25888 0.6966 0.22922 0.0
H2714 H 0.22693 0.64509 0.24792 0.0
H2715 H 0.24131 0.63721 0.18625 0.0
H2716 H 0.26178 0.63485 0.15999 0.0
H2717 H 0.28313 0.58545 0.17489 0.0
H2718 H 0.26299 0.58766 0.20139 0.0
H2719 H 0.14935 0.5661 0.22597 0.0
H2720 H 0.17272 0.59427 0.22317 0.0
H2721 H 0.221 0.56514 0.2366 0.0
H2722 H 0.19769 0.53702 0.23981 0.0
H2723 H 0.22475 0.5849 0.20465 0.0
H2724 H 0.21011 0.5951 0.26757 0.0
H2725 H 0.18773 0.59777 0.29244 0.0
H2726 H 0.16433 0.64371 0.27257 0.0
H2727 H 0.18639 0.64112 0.24741 0.0
C2728 C 0.28886 0.6619 0.22378 0.0
C2729 C 0.28363 0.68047 0.22632 0.0
C2730 C 0.27453 0.64598 0.22285 0.0
C2731 C 0.25451 0.64813 0.22389 0.0
C2732 C 0.24915 0.6666 0.22573 0.0
C2733 C 0.26353 0.68258 0.227 0.0
C2734 C 0.23939 0.63128 0.22428 0.0
C2735 C 0.22628 0.63209 0.23821 0.0
C2736 C 0.23861 0.6141 0.21184 0.0
C2737 C 0.25076 0.61271 0.1959 0.0
C2738 C 0.25048 0.62593 0.18401 0.0
C2739 C 0.26201 0.6246 0.16906 0.0
C2740 C 0.27378 0.61004 0.1658 0.0
C2741 C 0.27402 0.59674 0.17745 0.0
C2742 C 0.26253 0.598 0.19242 0.0
C2743 C 0.16494 0.56568 0.22832 0.0
C2744 C 0.1717 0.54937 0.23315 0.0
C2745 C 0.17825 0.58178 0.22673 0.0
C2746 C 0.19854 0.58173 0.22967 0.0
C2747 C 0.20537 0.56539 0.23424 0.0
C2748 C 0.19205 0.54941 0.23616 0.0
C2749 C 0.21261 0.59887 0.22825 0.0
C2750 C 0.22545 0.59804 0.21418 0.0
C2751 C 0.2129 0.61614 0.24032 0.0
C2752 C 0.19973 0.61777 0.2555 0.0
C2753 C 0.20006 0.60565 0.26841 0.0
C2754 C 0.18746 0.60717 0.28258 0.0
C2755 C 0.17457 0.62086 0.28406 0.0
C2756 C 0.1743 0.6331 0.27139 0.0
C2757 C 0.18685 0.63162 0.25718 0.0
H2758 H 0.16483 0.62202 0.29504 0.0
H2759 H 0.28269 0.60904 0.15422 0.0
H2760 H 0.95534 0.50811 0.05003 0.0
H2761 H 0.93 0.52846 0.04567 0.0
H2762 H 0.96583 0.55495 0.00821 0.0
H2763 H 0.99125 0.53496 0.01274 0.0
H2764 H 0.94873 0.58109 0.03055 0.0
H2765 H 0.92873 0.5198 0.99322 0.0
H2766 H 0.92021 0.48477 0.98731 0.0
H2767 H 0.87304 0.48865 0.0231 0.0
H2768 H 0.88147 0.52371 0.02942 0.0
H2769 H 0.87916 0.62066 0.98162 0.0
H2770 H 0.90428 0.60242 0.99098 0.0
H2771 H 0.86302 0.57554 0.0242 0.0
H2772 H 0.83769 0.5934 0.01459 0.0
H2773 H 0.88226 0.54985 0.00635 0.0
H2774 H 0.90067 0.6112 0.0424 0.0
H2775 H 0.90911 0.64622 0.04858 0.0
H2776 H 0.95898 0.64248 0.01598 0.0
H2777 H 0.95069 0.60743 0.00939 0.0
C2778 C 0.9579 0.51847 0.04108 0.0
C2779 C 0.97517 0.51981 0.03159 0.0
C2780 C 0.94338 0.52999 0.0385 0.0
C2781 C 0.94592 0.54305 0.02643 0.0
C2782 C 0.96351 0.54493 0.01753 0.0
C2783 C 0.97795 0.53339 0.02003 0.0
C2784 C 0.93005 0.55429 0.02246 0.0
C2785 C 0.93423 0.57427 0.02513 0.0
C2786 C 0.911 0.54541 0.01579 0.0
C2787 C 0.90587 0.52435 0.01195 0.0
C2788 C 0.91664 0.51317 0.99994 0.0
C2789 C 0.91181 0.49332 0.9965 0.0
C2790 C 0.89613 0.48449 0.00487 0.0
C2791 C 0.88521 0.49551 0.01666 0.0
C2792 C 0.89 0.51537 0.02017 0.0
C2793 C 0.87542 0.61089 0.99093 0.0
C2794 C 0.85641 0.60853 0.99737 0.0
C2795 C 0.88985 0.60054 0.99636 0.0
C2796 C 0.88565 0.58778 0.00851 0.0
C2797 C 0.86664 0.58531 0.01485 0.0
C2798 C 0.85217 0.59557 0.00935 0.0
C2799 C 0.90094 0.57671 0.01429 0.0
C2800 C 0.89667 0.55673 0.01193 0.0
C2801 C 0.91989 0.58562 0.02131 0.0
C2802 C 0.92495 0.60669 0.02527 0.0
C2803 C 0.91335 0.61785 0.03643 0.0
C2804 C 0.91812 0.63771 0.04003 0.0
C2805 C 0.93454 0.64658 0.03264 0.0
C2806 C 0.94626 0.6356 0.02168 0.0
C2807 C 0.94154 0.61573 0.01802 0.0
H2808 H 0.93821 0.66195 0.03544 0.0
H2809 H 0.8924 0.46911 0.00218 0.0
H2810 H 0.11691 0.03505 0.06268 0.0
H2811 H 0.14013 0.01333 0.05183 0.0
H2812 H 0.09959 0.96551 0.06209 0.0
H2813 H 0.07585 0.98702 0.07233 0.0
H2814 H 0.13855 0.96627 0.07612 0.0
H2815 H 0.10484 0.97091 0.02049 0.0
H2816 H 0.09186 0.98788 0.99769 0.0
H2817 H 0.15039 0.01405 0.99051 0.0
H2818 H 0.1637 0.99744 0.01347 0.0
H2819 H 0.19267 0.8946 0.03549 0.0
H2820 H 0.16647 0.91399 0.04354 0.0
H2821 H 0.19986 0.96172 0.02491 0.0
H2822 H 0.22576 0.94223 0.0163 0.0
H2823 H 0.16317 0.96016 0.01476 0.0
H2824 H 0.19723 0.95795 0.07065 0.0
H2825 H 0.21136 0.94285 0.09434 0.0
H2826 H 0.154 0.9144 0.10218 0.0
H2827 H 0.13956 0.92915 0.07836 0.0
C2828 C 0.11267 0.01989 0.06229 0.0
C2829 C 0.09438 0.01285 0.06835 0.0
C2830 C 0.12606 0.0075 0.05619 0.0
C2831 C 0.12155 0.98781 0.0561 0.0
C2832 C 0.10338 0.98068 0.0621 0.0
C2833 C 0.08986 0.99303 0.06803 0.0
C2834 C 0.13606 0.97476 0.05016 0.0
C2835 C 0.14372 0.96467 0.06262 0.0
C2836 C 0.1432 0.97315 0.03271 0.0
C2837 C 0.13524 0.98306 0.01882 0.0
C2838 C 0.11493 0.9804 0.01416 0.0
C2839 C 0.10751 0.98994 1.00118 0.0
C2840 C 0.12028 0.00207 0.99269 0.0
C2841 C 0.14051 0.00466 0.99711 0.0
C2842 C 0.148 0.99517 0.01009 0.0
C2843 C 0.19441 0.90921 0.03307 0.0
C2844 C 0.21135 0.91688 0.02532 0.0
C2845 C 0.17945 0.92033 0.03776 0.0
C2846 C 0.18129 0.93946 0.03512 0.0
C2847 C 0.19807 0.94702 0.02711 0.0
C2848 C 0.21291 0.93586 0.02222 0.0
C2849 C 0.16583 0.95165 0.04076 0.0
C2850 C 0.15798 0.96164 0.02825 0.0
C2851 C 0.15872 0.95339 0.05827 0.0
C2852 C 0.16735 0.94449 0.07259 0.0
C2853 C 0.18766 0.94836 0.07733 0.0
C2854 C 0.19572 0.93988 0.09079 0.0
C2855 C 0.18359 0.92763 0.09972 0.0
C2856 C 0.16337 0.92387 0.09523 0.0
C2857 C 0.15524 0.93229 0.08176 0.0
H2858 H 0.18986 0.92108 0.11014 0.0
H2859 H 0.11451 0.00944 0.98265 0.0
loop_
_geom_bond_atom_site_label_1
_geom_bond_atom_site_label_2
_geom_bond_distance
_geom_bond_site_symmetry_2
_ccdc_geom_bond_type
H0 C1 0.949 . S
C1 H0 0.949 . S
C1 C2 1.395 . S
C1 C3 1.391 . S
C2 C1 1.395 . S
C2 C5 1.390 . S
C3 C1 1.391 . S
C3 C7 1.387 . S
C3 C8 1.491 . S
H4 C5 0.950 . S
C5 C2 1.390 . S
C5 H4 0.950 . S
C5 C6 1.378 . S
C6 C5 1.378 . S
C6 C7 1.409 . S
C7 C3 1.387 . S
C7 C6 1.409 . S
C7 H9 0.951 . S
C8 C3 1.491 . S
C8 C10 1.382 . S
C8 C12 1.404 . S
H9 C7 0.951 . S
C10 C8 1.382 . S
C10 C11 1.390 . S
C10 H15 0.949 . S
C11 C10 1.390 . S
C11 C16 1.399 . S
C12 C8 1.404 . S
C12 H13 0.950 . S
C12 C14 1.375 . S
H13 C12 0.950 . S
C14 C12 1.375 . S
C14 C16 1.382 . S
C14 H18 0.950 . S
H15 C10 0.949 . S
C16 C11 1.399 . S
C16 C14 1.382 . S
C16 H17 0.952 . S
H17 C16 0.952 . S
H18 C14 0.950 . S
H19 C20 0.949 . S
C20 H19 0.949 . S
C20 C21 1.395 . S
C20 C22 1.391 . S
C21 C20 1.395 . S
C21 C24 1.390 . S
C22 C20 1.391 . S
C22 C26 1.387 . S
C22 C27 1.491 . S
H23 C24 0.950 . S
C24 C21 1.390 . S
C24 H23 0.950 . S
C24 C25 1.378 . S
C25 C24 1.378 . S
C25 C26 1.409 . S
C26 C22 1.387 . S
C26 C25 1.409 . S
C26 H28 0.951 . S
C27 C22 1.491 . S
C27 C29 1.382 . S
C27 C31 1.404 . S
H28 C26 0.951 . S
C29 C27 1.382 . S
C29 C30 1.390 . S
C29 H34 0.949 . S
C30 C29 1.390 . S
C30 C35 1.399 . S
C31 C27 1.404 . S
C31 H32 0.950 . S
C31 C33 1.375 . S
H32 C31 0.950 . S
C33 C31 1.375 . S
C33 C35 1.382 . S
C33 H37 0.950 . S
H34 C29 0.949 . S
C35 C30 1.399 . S
C35 C33 1.382 . S
C35 H36 0.952 . S
H36 C35 0.952 . S
H37 C33 0.950 . S
H38 C39 0.949 . S
C39 H38 0.949 . S
C39 C40 1.395 . S
C39 C41 1.391 1_455 S
C40 C39 1.395 . S
C40 C43 1.390 1_455 S
C41 C39 1.391 1_655 S
C41 C45 1.387 . S
C41 C46 1.488 1_654 S
H42 C43 0.950 . S
C43 C40 1.390 1_655 S
C43 H42 0.950 . S
C43 C44 1.378 . S
C44 C43 1.378 . S
C44 C45 1.409 . S
C45 C41 1.387 . S
C45 C44 1.409 . S
C45 H47 0.951 1_554 S
C46 C41 1.488 1_456 S
C46 C48 1.385 . S
C46 C50 1.404 . S
H47 C45 0.951 1_556 S
C48 C46 1.385 . S
C48 C49 1.390 . S
C48 H53 0.949 1_556 S
C49 C48 1.390 . S
C49 C54 1.399 . S
C50 C46 1.404 . S
C50 H51 0.938 1_455 S
C50 C52 1.383 . S
H51 C50 0.938 1_655 S
C52 C50 1.383 . S
C52 C54 1.382 . S
C52 H56 0.950 . S
H53 C48 0.949 1_554 S
C54 C49 1.399 . S
C54 C52 1.382 . S
C54 H55 0.952 . S
H55 C54 0.952 . S
H56 C52 0.950 . S
H57 C58 0.949 . S
C58 H57 0.949 . S
C58 C59 1.395 . S
C58 C60 1.391 . S
C59 C58 1.395 . S
C59 C62 1.390 . S
C60 C58 1.391 . S
C60 C64 1.387 . S
C60 C65 1.491 . S
H61 C62 0.950 . S
C62 C59 1.390 . S
C62 H61 0.950 . S
C62 C63 1.378 . S
C63 C62 1.378 . S
C63 C64 1.409 . S
C64 C60 1.387 . S
C64 C63 1.409 . S
C64 H66 0.951 . S
C65 C60 1.491 . S
C65 C67 1.382 . S
C65 C69 1.404 . S
H66 C64 0.951 . S
C67 C65 1.382 . S
C67 C68 1.390 . S
C67 H72 0.949 . S
C68 C67 1.390 . S
C68 C73 1.399 . S
C69 C65 1.404 . S
C69 H70 0.950 . S
C69 C71 1.375 . S
H70 C69 0.950 . S
C71 C69 1.375 . S
C71 C73 1.382 . S
C71 H75 0.950 . S
H72 C67 0.949 . S
C73 C68 1.399 . S
C73 C71 1.382 . S
C73 H74 0.952 . S
H74 C73 0.952 . S
H75 C71 0.950 . S
H76 C77 0.949 . S
C77 H76 0.949 . S
C77 C78 1.395 . S
C77 C79 1.391 . S
C78 C77 1.395 . S
C78 C81 1.390 . S
C79 C77 1.391 . S
C79 C83 1.387 . S
C79 C84 1.491 . S
H80 C81 0.950 . S
C81 C78 1.390 . S
C81 H80 0.950 . S
C81 C82 1.378 . S
C82 C81 1.378 . S
C82 C83 1.409 . S
C83 C79 1.387 . S
C83 C82 1.409 . S
C83 H85 0.951 . S
C84 C79 1.491 . S
C84 C86 1.382 . S
C84 C88 1.404 . S
H85 C83 0.951 . S
C86 C84 1.382 . S
C86 C87 1.390 . S
C86 H91 0.949 . S
C87 C86 1.390 . S
C87 C92 1.399 . S
C88 C84 1.404 . S
C88 H89 0.950 . S
C88 C90 1.375 . S
H89 C88 0.950 . S
C90 C88 1.375 . S
C90 C92 1.382 . S
C90 H94 0.950 . S
H91 C86 0.949 . S
C92 C87 1.399 . S
C92 C90 1.382 . S
C92 H93 0.952 . S
H93 C92 0.952 . S
H94 C90 0.950 . S
H95 C96 0.949 . S
C96 H95 0.949 . S
C96 C97 1.395 . S
C96 C98 1.391 . S
C97 C96 1.395 . S
C97 C100 1.390 . S
C98 C96 1.391 . S
C98 C102 1.387 . S
C98 C103 1.491 . S
H99 C100 0.950 . S
C100 C97 1.390 . S
C100 H99 0.950 . S
C100 C101 1.378 . S
C101 C100 1.378 . S
C101 C102 1.409 . S
C102 C98 1.387 . S
C102 C101 1.409 . S
C102 H104 0.951 . S
C103 C98 1.491 . S
C103 C105 1.382 . S
C103 C107 1.404 . S
H104 C102 0.951 . S
C105 C103 1.382 . S
C105 C106 1.390 . S
C105 H110 0.949 . S
C106 C105 1.390 . S
C106 C111 1.399 . S
C107 C103 1.404 . S
C107 H108 0.950 . S
C107 C109 1.375 . S
H108 C107 0.950 . S
C109 C107 1.375 . S
C109 C111 1.382 . S
C109 H113 0.950 . S
H110 C105 0.949 . S
C111 C106 1.399 . S
C111 C109 1.382 . S
C111 H112 0.952 . S
H112 C111 0.952 . S
H113 C109 0.950 . S
H114 C115 0.949 . S
C115 H114 0.949 . S
C115 C116 1.395 . S
C115 C117 1.391 . S
C116 C115 1.395 . S
C116 C119 1.390 . S
C117 C115 1.391 . S
C117 C121 1.387 . S
C117 C122 1.491 . S
H118 C119 0.950 . S
C119 C116 1.390 . S
C119 H118 0.950 . S
C119 C120 1.378 . S
C120 C119 1.378 . S
C120 C121 1.409 . S
C121 C117 1.387 . S
C121 C120 1.409 . S
C121 H123 0.951 . S
C122 C117 1.491 . S
C122 C124 1.382 . S
C122 C126 1.404 . S
H123 C121 0.951 . S
C124 C122 1.382 . S
C124 C125 1.394 . S
C124 H129 0.949 1_655 S
C125 C124 1.394 . S
C125 C130 1.407 . S
C126 C122 1.404 . S
C126 H127 0.950 . S
C126 C128 1.375 . S
H127 C126 0.950 . S
C128 C126 1.375 . S
C128 C130 1.382 . S
C128 H132 0.950 . S
H129 C124 0.949 1_455 S
C130 C125 1.407 . S
C130 C128 1.382 . S
C130 H131 0.952 . S
H131 C130 0.952 . S
H132 C128 0.950 . S
H133 C134 0.949 . S
C134 H133 0.949 . S
C134 C135 1.395 . S
C134 C136 1.391 . S
C135 C134 1.395 . S
C135 C138 1.390 . S
C136 C134 1.391 . S
C136 C140 1.387 . S
C136 C141 1.491 . S
H137 C138 0.950 . S
C138 C135 1.390 . S
C138 H137 0.950 . S
C138 C139 1.378 . S
C139 C138 1.378 . S
C139 C140 1.409 . S
C140 C136 1.387 . S
C140 C139 1.409 . S
C140 H142 0.951 . S
C141 C136 1.491 . S
C141 C143 1.382 . S
C141 C145 1.404 . S
H142 C140 0.951 . S
C143 C141 1.382 . S
C143 C144 1.390 . S
C143 H148 0.949 . S
C144 C143 1.390 . S
C144 C149 1.399 . S
C145 C141 1.404 . S
C145 H146 0.950 . S
C145 C147 1.375 . S
H146 C145 0.950 . S
C147 C145 1.375 . S
C147 C149 1.382 . S
C147 H151 0.950 . S
H148 C143 0.949 . S
C149 C144 1.399 . S
C149 C147 1.382 . S
C149 H150 0.952 . S
H150 C149 0.952 . S
H151 C147 0.950 . S
H152 C153 0.949 . S
C153 H152 0.949 . S
C153 C154 1.395 . S
C153 C155 1.391 . S
C154 C153 1.395 . S
C154 C157 1.390 . S
C155 C153 1.391 . S
C155 C159 1.387 . S
C155 C160 1.491 . S
H156 C157 0.950 . S
C157 C154 1.390 . S
C157 H156 0.950 . S
C157 C158 1.378 . S
C158 C157 1.378 . S
C158 C159 1.409 . S
C159 C155 1.387 . S
C159 C158 1.409 . S
C159 H161 0.951 . S
C160 C155 1.491 . S
C160 C162 1.382 . S
C160 C164 1.404 . S
H161 C159 0.951 . S
C162 C160 1.382 . S
C162 C163 1.390 . S
C162 H167 0.949 . S
C163 C162 1.390 . S
C163 C168 1.399 . S
C164 C160 1.404 . S
C164 H165 0.950 . S
C164 C166 1.375 . S
H165 C164 0.950 . S
C166 C164 1.375 . S
C166 C168 1.382 . S
C166 H170 0.950 . S
H167 C162 0.949 . S
C168 C163 1.399 . S
C168 C166 1.382 . S
C168 H169 0.952 . S
H169 C168 0.952 . S
H170 C166 0.950 . S
H171 C172 0.949 . S
C172 H171 0.949 . S
C172 C173 1.395 . S
C172 C174 1.391 . S
C173 C172 1.395 . S
C173 C176 1.390 . S
C174 C172 1.391 . S
C174 C178 1.387 . S
C174 C179 1.491 . S
H175 C176 0.950 . S
C176 C173 1.390 . S
C176 H175 0.950 . S
C176 C177 1.378 . S
C177 C176 1.378 . S
C177 C178 1.409 . S
C178 C174 1.387 . S
C178 C177 1.409 . S
C178 H180 0.951 . S
C179 C174 1.491 . S
C179 C181 1.382 . S
C179 C183 1.404 . S
H180 C178 0.951 . S
C181 C179 1.382 . S
C181 C182 1.390 . S
C181 H186 0.949 . S
C182 C181 1.390 . S
C182 C187 1.399 . S
C183 C179 1.404 . S
C183 H184 0.950 . S
C183 C185 1.375 . S
H184 C183 0.950 . S
C185 C183 1.375 . S
C185 C187 1.382 . S
C185 H189 0.950 . S
H186 C181 0.949 . S
C187 C182 1.399 . S
C187 C185 1.382 . S
C187 H188 0.952 . S
H188 C187 0.952 . S
H189 C185 0.950 . S
H190 C191 0.949 . S
C191 H190 0.949 . S
C191 C192 1.395 . S
C191 C193 1.391 . S
C192 C191 1.395 . S
C192 C195 1.390 . S
C193 C191 1.391 . S
C193 C197 1.387 . S
C193 C198 1.491 . S
H194 C195 0.950 . S
C195 C192 1.390 . S
C195 H194 0.950 . S
C195 C196 1.378 . S
C196 C195 1.378 . S
C196 C197 1.409 . S
C197 C193 1.387 . S
C197 C196 1.409 . S
C197 H199 0.951 . S
C198 C193 1.491 . S
C198 C200 1.382 . S
C198 C202 1.404 . S
H199 C197 0.951 . S
C200 C198 1.382 . S
C200 C201 1.390 . S
C200 H205 0.949 . S
C201 C200 1.390 . S
C201 C206 1.399 . S
C202 C198 1.404 . S
C202 H203 0.950 . S
C202 C204 1.375 . S
H203 C202 0.950 . S
C204 C202 1.375 . S
C204 C206 1.382 . S
C204 H208 0.950 . S
H205 C200 0.949 . S
C206 C201 1.399 . S
C206 C204 1.382 . S
C206 H207 0.952 . S
H207 C206 0.952 . S
H208 C204 0.950 . S
H209 C210 0.949 . S
C210 H209 0.949 . S
C210 C211 1.395 . S
C210 C212 1.391 . S
C211 C210 1.395 . S
C211 C214 1.390 . S
C212 C210 1.391 . S
C212 C216 1.387 . S
C212 C217 1.491 . S
H213 C214 0.950 . S
C214 C211 1.390 . S
C214 H213 0.950 . S
C214 C215 1.378 . S
C215 C214 1.378 . S
C215 C216 1.409 . S
C216 C212 1.387 . S
C216 C215 1.409 . S
C216 H218 0.951 . S
C217 C212 1.491 . S
C217 C219 1.382 . S
C217 C221 1.404 . S
H218 C216 0.951 . S
C219 C217 1.382 . S
C219 C220 1.390 . S
C219 H224 0.949 . S
C220 C219 1.390 . S
C220 C225 1.399 . S
C221 C217 1.404 . S
C221 H222 0.950 . S
C221 C223 1.375 . S
H222 C221 0.950 . S
C223 C221 1.375 . S
C223 C225 1.382 . S
C223 H227 0.950 . S
H224 C219 0.949 . S
C225 C220 1.399 . S
C225 C223 1.382 . S
C225 H226 0.952 . S
H226 C225 0.952 . S
H227 C223 0.950 . S
H228 C229 0.949 . S
C229 H228 0.949 . S
C229 C230 1.395 . S
C229 C231 1.391 . S
C230 C229 1.395 . S
C230 C233 1.390 . S
C231 C229 1.391 . S
C231 C235 1.387 . S
C231 C236 1.491 . S
H232 C233 0.950 . S
C233 C230 1.390 . S
C233 H232 0.950 . S
C233 C234 1.378 . S
C234 C233 1.378 . S
C234 C235 1.409 . S
C235 C231 1.387 . S
C235 C234 1.409 . S
C235 H237 0.951 . S
C236 C231 1.491 . S
C236 C238 1.382 . S
C236 C240 1.404 . S
H237 C235 0.951 . S
C238 C236 1.382 . S
C238 C239 1.390 . S
C238 H243 0.949 . S
C239 C238 1.390 . S
C239 C244 1.399 . S
C240 C236 1.404 . S
C240 H241 0.950 . S
C240 C242 1.375 . S
H241 C240 0.950 . S
C242 C240 1.375 . S
C242 C244 1.382 . S
C242 H246 0.950 . S
H243 C238 0.949 . S
C244 C239 1.399 . S
C244 C242 1.382 . S
C244 H245 0.952 . S
H245 C244 0.952 . S
H246 C242 0.950 . S
H247 C248 0.949 . S
C248 H247 0.949 . S
C248 C249 1.395 . S
C248 C250 1.391 . S
C249 C248 1.395 . S
C249 C252 1.390 . S
C250 C248 1.391 . S
C250 C254 1.387 . S
C250 C255 1.491 . S
H251 C252 0.950 . S
C252 C249 1.390 . S
C252 H251 0.950 . S
C252 C253 1.378 . S
C253 C252 1.378 . S
C253 C254 1.409 . S
C254 C250 1.387 . S
C254 C253 1.409 . S
C254 H256 0.951 . S
C255 C250 1.491 . S
C255 C257 1.382 1_556 S
C255 C259 1.404 . S
H256 C254 0.951 . S
C257 C255 1.382 1_554 S
C257 C258 1.390 . S
C257 H262 0.949 . S
C258 C257 1.390 . S
C258 C263 1.421 . S
C259 C255 1.404 . S
C259 H260 0.950 . S
C259 C261 1.375 . S
H260 C259 0.950 . S
C261 C259 1.375 . S
C261 C263 1.341 1_556 S
C261 H265 0.950 . S
H262 C257 0.949 . S
C263 C258 1.421 . S
C263 C261 1.341 1_554 S
C263 H264 0.972 . S
H264 C263 0.972 . S
H265 C261 0.950 . S
H266 C267 0.949 . S
C267 H266 0.949 . S
C267 C268 1.395 . S
C267 C269 1.391 . S
C268 C267 1.395 . S
C268 C271 1.390 . S
C269 C267 1.391 . S
C269 C273 1.387 . S
C269 C274 1.491 . S
H270 C271 0.950 . S
C271 C268 1.390 . S
C271 H270 0.950 . S
C271 C272 1.378 . S
C272 C271 1.378 . S
C272 C273 1.409 . S
C273 C269 1.387 . S
C273 C272 1.409 . S
C273 H275 0.951 . S
C274 C269 1.491 . S
C274 C276 1.382 . S
C274 C278 1.404 . S
H275 C273 0.951 . S
C276 C274 1.382 . S
C276 C277 1.390 . S
C276 H281 0.949 . S
C277 C276 1.390 . S
C277 C282 1.399 . S
C278 C274 1.404 . S
C278 H279 0.950 . S
C278 C280 1.375 . S
H279 C278 0.950 . S
C280 C278 1.375 . S
C280 C282 1.382 . S
C280 H284 0.950 . S
H281 C276 0.949 . S
C282 C277 1.399 . S
C282 C280 1.382 . S
C282 H283 0.952 . S
H283 C282 0.952 . S
H284 C280 0.950 . S
H285 C286 0.949 . S
C286 H285 0.949 . S
C286 C287 1.395 . S
C286 C288 1.391 . S
C287 C286 1.395 . S
C287 C290 1.390 . S
C288 C286 1.391 . S
C288 C292 1.387 . S
C288 C293 1.491 . S
H289 C290 0.950 . S
C290 C287 1.390 . S
C290 H289 0.950 . S
C290 C291 1.378 . S
C291 C290 1.378 . S
C291 C292 1.409 . S
C292 C288 1.387 . S
C292 C291 1.409 . S
C292 H294 0.951 . S
C293 C288 1.491 . S
C293 C295 1.382 . S
C293 C297 1.404 . S
H294 C292 0.951 . S
C295 C293 1.382 . S
C295 C296 1.390 . S
C295 H300 0.949 . S
C296 C295 1.390 . S
C296 C301 1.399 . S
C297 C293 1.404 . S
C297 H298 0.950 . S
C297 C299 1.375 . S
H298 C297 0.950 . S
C299 C297 1.375 . S
C299 C301 1.382 . S
C299 H303 0.950 . S
H300 C295 0.949 . S
C301 C296 1.399 . S
C301 C299 1.382 . S
C301 H302 0.952 . S
H302 C301 0.952 . S
H303 C299 0.950 . S
C304 O305 1.160 . S
C304 O311 1.185 . S
O305 C304 1.160 . S
O306 Zn307 1.899 . S
O306 C314 1.284 . S
Zn307 O306 1.899 . S
Zn307 O308 2.032 . S
Zn307 O311 2.086 . S
Zn307 O316 1.977 . S
O308 Zn307 2.032 . S
O308 C312 1.278 . S
C309 O310 1.203 . S
C309 O316 1.267 . S
O310 C309 1.203 . S
O311 C304 1.185 . S
O311 Zn307 2.086 . S
C312 O308 1.278 . S
C312 O313 1.211 . S
O313 C312 1.211 . S
C314 O306 1.284 . S
C314 O315 1.273 . S
O315 C314 1.273 . S
O316 Zn307 1.977 . S
O316 C309 1.267 . S
C317 O318 1.160 . S
C317 O324 1.185 . S
O318 C317 1.160 . S
O319 Zn320 1.899 . S
O319 C327 1.284 . S
Zn320 O319 1.899 . S
Zn320 O321 2.032 . S
Zn320 O324 2.086 . S
Zn320 O329 1.977 . S
O321 Zn320 2.032 . S
O321 C325 1.278 . S
C322 O323 1.203 . S
C322 O329 1.267 . S
O323 C322 1.203 . S
O324 C317 1.185 . S
O324 Zn320 2.086 . S
C325 O321 1.278 . S
C325 O326 1.211 . S
O326 C325 1.211 . S
C327 O319 1.284 . S
C327 O328 1.273 . S
O328 C327 1.273 . S
O329 Zn320 1.977 . S
O329 C322 1.267 . S
C330 O331 1.160 . S
C330 O337 1.185 1_556 S
O331 C330 1.160 . S
O332 Zn333 1.899 1_556 S
O332 C340 1.284 . S
Zn333 O332 1.899 1_554 S
Zn333 O334 2.032 1_554 S
Zn333 O337 2.086 . S
Zn333 O342 1.977 . S
O334 Zn333 2.032 1_556 S
O334 C338 1.290 . S
C335 O336 1.203 . S
C335 O342 1.267 . S
O336 C335 1.203 . S
O337 C330 1.185 1_554 S
O337 Zn333 2.086 . S
C338 O334 1.290 . S
C338 O339 1.194 1_556 S
O339 C338 1.194 1_554 S
C340 O332 1.284 . S
C340 O341 1.273 . S
O341 C340 1.273 . S
O342 Zn333 1.977 . S
O342 C335 1.267 . S
C343 O344 1.160 . S
C343 O350 1.185 . S
O344 C343 1.160 . S
O345 Zn346 1.899 . S
O345 C353 1.284 . S
Zn346 O345 1.899 . S
Zn346 O347 2.032 . S
Zn346 O350 2.086 . S
Zn346 O355 1.977 . S
O347 Zn346 2.032 . S
O347 C351 1.278 1_545 S
C348 O349 1.203 . S
C348 O355 1.267 . S
O349 C348 1.203 . S
O350 C343 1.185 . S
O350 Zn346 2.086 . S
C351 O347 1.278 1_565 S
C351 O352 1.211 . S
O352 C351 1.211 . S
C353 O345 1.284 . S
C353 O354 1.273 . S
O354 C353 1.273 . S
O355 Zn346 1.977 . S
O355 C348 1.267 . S
C356 O357 1.160 . S
C356 O363 1.185 . S
O357 C356 1.160 . S
O358 Zn359 1.899 . S
O358 C366 1.284 . S
Zn359 O358 1.899 . S
Zn359 O360 2.032 . S
Zn359 O363 2.086 . S
Zn359 O368 1.977 . S
O360 Zn359 2.032 . S
O360 C364 1.278 . S
C361 O362 1.203 . S
C361 O368 1.267 . S
O362 C361 1.203 . S
O363 C356 1.185 . S
O363 Zn359 2.086 . S
C364 O360 1.278 . S
C364 O365 1.211 . S
O365 C364 1.211 . S
C366 O358 1.284 . S
C366 O367 1.273 . S
O367 C366 1.273 . S
O368 Zn359 1.977 . S
O368 C361 1.267 . S
C369 O370 1.160 . S
C369 O376 1.185 . S
O370 C369 1.160 . S
O371 Zn372 1.899 . S
O371 C379 1.284 . S
Zn372 O371 1.899 . S
Zn372 O373 2.032 . S
Zn372 O376 2.086 . S
Zn372 O381 1.977 . S
O373 Zn372 2.032 . S
O373 C377 1.278 . S
C374 O375 1.203 . S
C374 O381 1.267 . S
O375 C374 1.203 . S
O376 C369 1.185 . S
O376 Zn372 2.086 . S
C377 O373 1.278 . S
C377 O378 1.211 . S
O378 C377 1.211 . S
C379 O371 1.284 . S
C379 O380 1.273 . S
O380 C379 1.273 . S
O381 Zn372 1.977 . S
O381 C374 1.267 . S
C382 O383 1.160 . S
C382 O389 1.185 . S
O383 C382 1.160 . S
O384 Zn385 1.899 . S
O384 C392 1.284 . S
Zn385 O384 1.899 . S
Zn385 O386 2.032 . S
Zn385 O389 2.086 . S
Zn385 O394 1.977 . S
O386 Zn385 2.032 . S
O386 C390 1.278 . S
C387 O388 1.203 . S
C387 O394 1.267 . S
O388 C387 1.203 . S
O389 C382 1.185 . S
O389 Zn385 2.086 . S
C390 O386 1.278 . S
C390 O391 1.211 . S
O391 C390 1.211 . S
C392 O384 1.284 . S
C392 O393 1.273 . S
O393 C392 1.273 . S
O394 Zn385 1.977 . S
O394 C387 1.267 . S
C395 O396 1.160 . S
C395 O402 1.185 . S
O396 C395 1.160 . S
O397 Zn398 1.899 . S
O397 C405 1.284 . S
Zn398 O397 1.899 . S
Zn398 O399 2.032 . S
Zn398 O402 2.086 1_545 S
Zn398 O407 1.978 . S
O399 Zn398 2.032 . S
O399 C403 1.278 . S
C400 O401 1.203 . S
C400 O407 1.271 . S
O401 C400 1.203 . S
O402 C395 1.185 . S
O402 Zn398 2.086 1_565 S
C403 O399 1.278 . S
C403 O404 1.211 . S
O404 C403 1.211 . S
C405 O397 1.284 . S
C405 O406 1.273 . S
O406 C405 1.273 . S
O407 Zn398 1.978 . S
O407 C400 1.271 . S
C408 O409 1.160 1_455 S
C408 O415 1.185 . S
O409 C408 1.160 1_655 S
O410 Zn411 1.899 1_655 S
O410 C418 1.284 . S
Zn411 O410 1.899 1_455 S
Zn411 O412 2.032 . S
Zn411 O415 2.086 . S
Zn411 O420 1.977 . S
O412 Zn411 2.032 . S
O412 C416 1.278 . S
C413 O414 1.203 . S
C413 O420 1.267 . S
O414 C413 1.203 . S
O415 C408 1.185 . S
O415 Zn411 2.086 . S
C416 O412 1.278 . S
C416 O417 1.211 . S
O417 C416 1.211 . S
C418 O410 1.284 . S
C418 O419 1.273 . S
O419 C418 1.273 . S
O420 Zn411 1.977 . S
O420 C413 1.267 . S
C421 O422 1.160 . S
C421 O428 1.185 . S
O422 C421 1.160 . S
O423 Zn424 1.899 . S
O423 C431 1.284 . S
Zn424 O423 1.899 . S
Zn424 O425 2.032 . S
Zn424 O428 2.086 . S
Zn424 O433 1.977 . S
O425 Zn424 2.032 . S
O425 C429 1.278 . S
C426 O427 1.203 . S
C426 O433 1.267 . S
O427 C426 1.203 . S
O428 C421 1.185 . S
O428 Zn424 2.086 . S
C429 O425 1.278 . S
C429 O430 1.211 . S
O430 C429 1.211 . S
C431 O423 1.284 . S
C431 O432 1.273 . S
O432 C431 1.273 . S
O433 Zn424 1.977 . S
O433 C426 1.267 . S
C434 O435 1.160 1_455 S
C434 O441 1.185 . S
O435 C434 1.160 1_655 S
O436 Zn437 1.899 1_655 S
O436 C444 1.284 . S
Zn437 O436 1.899 1_455 S
Zn437 O438 2.032 1_455 S
Zn437 O441 2.086 . S
Zn437 O446 1.977 . S
O438 Zn437 2.032 1_655 S
O438 C442 1.278 . S
C439 O440 1.203 . S
C439 O446 1.267 . S
O440 C439 1.203 . S
O441 C434 1.185 . S
O441 Zn437 2.086 . S
C442 O438 1.278 . S
C442 O443 1.211 1_655 S
O443 C442 1.211 1_455 S
C444 O436 1.284 . S
C444 O445 1.273 . S
O445 C444 1.273 . S
O446 Zn437 1.977 . S
O446 C439 1.267 . S
C447 O448 1.160 . S
C447 O454 1.185 . S
O448 C447 1.160 . S
O449 Zn450 1.899 . S
O449 C457 1.284 . S
Zn450 O449 1.899 . S
Zn450 O451 2.032 . S
Zn450 O454 2.086 . S
Zn450 O459 1.977 . S
O451 Zn450 2.032 . S
O451 C455 1.278 . S
C452 O453 1.203 . S
C452 O459 1.267 . S
O453 C452 1.203 . S
O454 C447 1.185 . S
O454 Zn450 2.086 . S
C455 O451 1.278 . S
C455 O456 1.211 . S
O456 C455 1.211 . S
C457 O449 1.284 . S
C457 O458 1.273 . S
O458 C457 1.273 . S
O459 Zn450 1.977 . S
O459 C452 1.267 . S
H460 C478 0.951 . S
H461 C480 0.951 . S
H462 C482 0.950 . S
H463 C483 0.950 . S
H464 C485 0.950 . S
H465 C488 0.950 . S
H466 C489 0.950 . S
H467 C491 0.950 . S
H468 C492 0.950 . S
H469 C493 0.951 1_554 S
H470 C495 0.951 . S
H471 C497 0.950 . S
H472 C498 0.950 . S
H473 C500 0.950 . S
H474 C503 0.950 . S
H475 C504 0.950 . S
H476 C506 0.950 . S
H477 C507 0.950 . S
C478 H460 0.951 . S
C478 C479 1.366 . S
C478 C480 1.388 . S
C479 C478 1.366 . S
C479 C483 1.385 . S
C480 H461 0.951 . S
C480 C478 1.388 . S
C480 C481 1.366 . S
C481 C480 1.366 . S
C481 C482 1.414 . S
C481 C484 1.499 . S
C482 H462 0.950 . S
C482 C481 1.414 . S
C482 C483 1.374 . S
C483 H463 0.950 . S
C483 C479 1.385 . S
C483 C482 1.374 . S
C484 C481 1.499 . S
C484 C485 1.373 . S
C484 C486 1.389 . S
C485 H464 0.950 . S
C485 C484 1.373 . S
C485 C501 1.377 . S
C486 C484 1.389 . S
C486 C487 1.524 . S
C486 C500 1.377 . S
C487 C486 1.524 . S
C487 C488 1.397 . S
C487 C492 1.363 . S
C488 H465 0.950 . S
C488 C487 1.397 . S
C488 C489 1.334 . S
C489 H466 0.950 . S
C489 C488 1.334 . S
C489 C490 1.287 . S
C490 C489 1.287 . S
C490 C491 1.524 . S
C490 H509 0.913 . S
C491 H467 0.950 . S
C491 C490 1.524 . S
C491 C492 1.415 . S
C492 H468 0.950 . S
C492 C487 1.363 . S
C492 C491 1.415 . S
C493 H469 0.951 1_556 S
C493 C494 1.366 . S
C493 C495 1.388 . S
C494 C493 1.366 . S
C494 C498 1.385 . S
C495 H470 0.951 . S
C495 C493 1.388 . S
C495 C496 1.366 . S
C496 C495 1.366 . S
C496 C497 1.414 . S
C496 C499 1.499 . S
C497 H471 0.950 . S
C497 C496 1.414 . S
C497 C498 1.374 . S
C498 H472 0.950 . S
C498 C494 1.385 . S
C498 C497 1.374 . S
C499 C496 1.499 . S
C499 C500 1.373 . S
C499 C501 1.389 . S
C500 H473 0.950 . S
C500 C486 1.377 . S
C500 C499 1.373 . S
C501 C485 1.377 . S
C501 C499 1.389 . S
C501 C502 1.524 . S
C502 C501 1.524 . S
C502 C503 1.397 . S
C502 C507 1.363 . S
C503 H474 0.950 . S
C503 C502 1.397 . S
C503 C504 1.334 . S
C504 H475 0.950 . S
C504 C503 1.334 . S
C504 C505 1.287 . S
C505 C504 1.287 . S
C505 C506 1.524 . S
C505 H508 0.999 . S
C506 H476 0.950 . S
C506 C505 1.524 . S
C506 C507 1.415 . S
C507 H477 0.950 . S
C507 C502 1.363 . S
C507 C506 1.415 . S
H508 C505 0.999 . S
H509 C490 0.913 . S
H510 C528 0.951 . S
H511 C530 0.951 . S
H512 C532 0.950 . S
H513 C533 0.950 1_655 S
H514 C535 0.950 . S
H515 C538 0.950 . S
H516 C539 0.950 . S
H517 C541 0.950 . S
H518 C542 0.950 . S
H519 C543 0.951 . S
H520 C545 0.951 . S
H521 C547 0.950 . S
H522 C548 0.950 . S
H523 C550 0.950 . S
H524 C553 0.950 . S
H525 C554 0.950 . S
H526 C556 0.950 . S
H527 C557 0.950 . S
C528 H510 0.951 . S
C528 C529 1.366 . S
C528 C530 1.388 . S
C529 C528 1.366 . S
C529 C533 1.385 . S
C530 H511 0.951 . S
C530 C528 1.388 . S
C530 C531 1.366 . S
C531 C530 1.366 . S
C531 C532 1.414 . S
C531 C534 1.499 . S
C532 H512 0.950 . S
C532 C531 1.414 . S
C532 C533 1.374 . S
C533 H513 0.950 1_455 S
C533 C529 1.385 . S
C533 C532 1.374 . S
C534 C531 1.499 . S
C534 C535 1.373 . S
C534 C536 1.389 . S
C535 H514 0.950 . S
C535 C534 1.373 . S
C535 C551 1.377 . S
C536 C534 1.389 . S
C536 C537 1.524 . S
C536 C550 1.377 . S
C537 C536 1.524 . S
C537 C538 1.397 . S
C537 C542 1.363 . S
C538 H515 0.950 . S
C538 C537 1.397 . S
C538 C539 1.334 . S
C539 H516 0.950 . S
C539 C538 1.334 . S
C539 C540 1.287 . S
C540 C539 1.287 . S
C540 C541 1.524 . S
C540 H559 0.913 . S
C541 H517 0.950 . S
C541 C540 1.524 . S
C541 C542 1.415 . S
C542 H518 0.950 . S
C542 C537 1.363 . S
C542 C541 1.415 . S
C543 H519 0.951 . S
C543 C544 1.366 . S
C543 C545 1.388 . S
C544 C543 1.366 . S
C544 C548 1.385 . S
C545 H520 0.951 . S
C545 C543 1.388 . S
C545 C546 1.366 . S
C546 C545 1.366 . S
C546 C547 1.414 . S
C546 C549 1.499 . S
C547 H521 0.950 . S
C547 C546 1.414 . S
C547 C548 1.374 . S
C548 H522 0.950 . S
C548 C544 1.385 . S
C548 C547 1.374 . S
C549 C546 1.499 . S
C549 C550 1.373 . S
C549 C551 1.389 . S
C550 H523 0.950 . S
C550 C536 1.377 . S
C550 C549 1.373 . S
C551 C535 1.377 . S
C551 C549 1.389 . S
C551 C552 1.524 . S
C552 C551 1.524 . S
C552 C553 1.397 . S
C552 C557 1.363 . S
C553 H524 0.950 . S
C553 C552 1.397 . S
C553 C554 1.334 . S
C554 H525 0.950 . S
C554 C553 1.334 . S
C554 C555 1.287 . S
C555 C554 1.287 . S
C555 C556 1.524 . S
C555 H558 0.999 . S
C556 H526 0.950 . S
C556 C555 1.524 . S
C556 C557 1.415 . S
C557 H527 0.950 . S
C557 C552 1.363 . S
C557 C556 1.415 . S
H558 C555 0.999 . S
H559 C540 0.913 . S
H560 C578 0.951 . S
H561 C580 0.951 . S
H562 C582 0.950 . S
H563 C583 0.950 . S
H564 C585 0.950 . S
H565 C588 0.950 . S
H566 C589 0.950 . S
H567 C591 0.950 . S
H568 C592 0.950 . S
H569 C593 0.951 . S
H570 C595 0.951 . S
H571 C597 0.950 . S
H572 C598 0.950 . S
H573 C600 0.950 . S
H574 C603 0.950 . S
H575 C604 0.950 . S
H576 C606 0.950 . S
H577 C607 0.950 . S
C578 H560 0.951 . S
C578 C579 1.366 . S
C578 C580 1.388 . S
C579 C578 1.366 . S
C579 C583 1.385 . S
C580 H561 0.951 . S
C580 C578 1.388 . S
C580 C581 1.366 . S
C581 C580 1.366 . S
C581 C582 1.414 . S
C581 C584 1.499 . S
C582 H562 0.950 . S
C582 C581 1.414 . S
C582 C583 1.374 . S
C583 H563 0.950 . S
C583 C579 1.385 . S
C583 C582 1.374 . S
C584 C581 1.499 . S
C584 C585 1.373 . S
C584 C586 1.389 . S
C585 H564 0.950 . S
C585 C584 1.373 . S
C585 C601 1.377 . S
C586 C584 1.389 . S
C586 C587 1.524 . S
C586 C600 1.377 . S
C587 C586 1.524 . S
C587 C588 1.397 . S
C587 C592 1.363 . S
C588 H565 0.950 . S
C588 C587 1.397 . S
C588 C589 1.334 . S
C589 H566 0.950 . S
C589 C588 1.334 . S
C589 C590 1.287 . S
C590 C589 1.287 . S
C590 C591 1.524 . S
C590 H609 0.913 . S
C591 H567 0.950 . S
C591 C590 1.524 . S
C591 C592 1.415 . S
C592 H568 0.950 . S
C592 C587 1.363 . S
C592 C591 1.415 . S
C593 H569 0.951 . S
C593 C594 1.366 . S
C593 C595 1.388 . S
C594 C593 1.366 . S
C594 C598 1.385 . S
C595 H570 0.951 . S
C595 C593 1.388 . S
C595 C596 1.366 . S
C596 C595 1.366 . S
C596 C597 1.414 . S
C596 C599 1.499 . S
C597 H571 0.950 . S
C597 C596 1.414 . S
C597 C598 1.374 . S
C598 H572 0.950 . S
C598 C594 1.385 . S
C598 C597 1.374 . S
C599 C596 1.499 . S
C599 C600 1.373 . S
C599 C601 1.389 . S
C600 H573 0.950 . S
C600 C586 1.377 . S
C600 C599 1.373 . S
C601 C585 1.377 . S
C601 C599 1.389 . S
C601 C602 1.524 . S
C602 C601 1.524 . S
C602 C603 1.397 . S
C602 C607 1.363 . S
C603 H574 0.950 . S
C603 C602 1.397 . S
C603 C604 1.334 . S
C604 H575 0.950 . S
C604 C603 1.334 . S
C604 C605 1.287 . S
C605 C604 1.287 . S
C605 C606 1.524 . S
C605 H608 0.999 . S
C606 H576 0.950 . S
C606 C605 1.524 . S
C606 C607 1.415 . S
C607 H577 0.950 . S
C607 C602 1.363 . S
C607 C606 1.415 . S
H608 C605 0.999 . S
H609 C590 0.913 . S
H610 C628 0.951 . S
H611 C630 0.951 . S
H612 C632 0.950 . S
H613 C633 0.950 1_545 S
H614 C635 0.950 . S
H615 C638 0.950 1_545 S
H616 C639 0.950 . S
H617 C641 0.950 . S
H618 C642 0.950 . S
H619 C643 0.951 . S
H620 C645 0.951 . S
H621 C647 0.950 . S
H622 C648 0.950 . S
H623 C650 0.950 . S
H624 C653 0.950 1_565 S
H625 C654 0.947 1_565 S
H626 C656 0.950 . S
H627 C657 0.950 . S
C628 H610 0.951 . S
C628 C629 1.366 . S
C628 C630 1.388 . S
C629 C628 1.366 . S
C629 C633 1.385 . S
C630 H611 0.951 . S
C630 C628 1.388 . S
C630 C631 1.366 . S
C631 C630 1.366 . S
C631 C632 1.414 1_565 S
C631 C634 1.499 . S
C632 H612 0.950 . S
C632 C631 1.414 1_545 S
C632 C633 1.374 1_545 S
C633 H613 0.950 1_565 S
C633 C629 1.385 . S
C633 C632 1.374 1_565 S
C634 C631 1.499 . S
C634 C635 1.373 1_565 S
C634 C636 1.389 . S
C635 H614 0.950 . S
C635 C634 1.373 1_545 S
C635 C651 1.377 . S
C636 C634 1.389 . S
C636 C637 1.524 . S
C636 C650 1.377 . S
C637 C636 1.524 . S
C637 C638 1.397 . S
C637 C642 1.363 . S
C638 H615 0.950 1_565 S
C638 C637 1.397 . S
C638 C639 1.334 . S
C639 H616 0.950 . S
C639 C638 1.334 . S
C639 C640 1.287 . S
C640 C639 1.287 . S
C640 C641 1.524 . S
C640 H659 0.913 . S
C641 H617 0.950 . S
C641 C640 1.524 . S
C641 C642 1.415 . S
C642 H618 0.950 . S
C642 C637 1.363 . S
C642 C641 1.415 . S
C643 H619 0.951 . S
C643 C644 1.366 . S
C643 C645 1.388 . S
C644 C643 1.366 . S
C644 C648 1.385 1_545 S
C645 H620 0.951 . S
C645 C643 1.388 . S
C645 C646 1.366 . S
C646 C645 1.366 . S
C646 C647 1.414 1_545 S
C646 C649 1.499 1_655 S
C647 H621 0.950 . S
C647 C646 1.414 1_565 S
C647 C648 1.374 . S
C648 H622 0.950 . S
C648 C644 1.385 1_565 S
C648 C647 1.374 . S
C649 C646 1.499 1_455 S
C649 C650 1.373 1_545 S
C649 C651 1.389 . S
C650 H623 0.950 . S
C650 C636 1.377 . S
C650 C649 1.373 1_565 S
C651 C635 1.377 . S
C651 C649 1.389 . S
C651 C652 1.524 1_455 S
C652 C651 1.524 1_655 S
C652 C653 1.397 . S
C652 C657 1.363 . S
C653 H624 0.950 1_545 S
C653 C652 1.397 . S
C653 C654 1.334 . S
C654 H625 0.947 1_545 S
C654 C653 1.334 . S
C654 C655 1.287 . S
C655 C654 1.287 . S
C655 C656 1.524 . S
C655 H658 0.999 . S
C656 H626 0.950 . S
C656 C655 1.524 . S
C656 C657 1.415 . S
C657 H627 0.950 . S
C657 C652 1.363 . S
C657 C656 1.415 . S
H658 C655 0.999 . S
H659 C640 0.913 . S
H660 C678 0.951 . S
H661 C680 0.951 . S
H662 C682 0.950 . S
H663 C683 0.950 . S
H664 C685 0.950 . S
H665 C688 0.950 . S
H666 C689 0.950 . S
H667 C691 0.950 . S
H668 C692 0.950 . S
H669 C693 0.951 . S
H670 C695 0.951 . S
H671 C697 0.950 . S
H672 C698 0.950 . S
H673 C700 0.950 . S
H674 C703 0.950 . S
H675 C704 0.950 . S
H676 C706 0.950 . S
H677 C707 0.950 . S
C678 H660 0.951 . S
C678 C679 1.366 . S
C678 C680 1.388 . S
C679 C678 1.366 . S
C679 C683 1.385 . S
C680 H661 0.951 . S
C680 C678 1.388 . S
C680 C681 1.366 . S
C681 C680 1.366 . S
C681 C682 1.414 . S
C681 C684 1.499 . S
C682 H662 0.950 . S
C682 C681 1.414 . S
C682 C683 1.374 . S
C683 H663 0.950 . S
C683 C679 1.385 . S
C683 C682 1.374 . S
C684 C681 1.499 . S
C684 C685 1.373 . S
C684 C686 1.389 . S
C685 H664 0.950 . S
C685 C684 1.373 . S
C685 C701 1.377 . S
C686 C684 1.389 . S
C686 C687 1.524 . S
C686 C700 1.377 . S
C687 C686 1.524 . S
C687 C688 1.397 . S
C687 C692 1.363 . S
C688 H665 0.950 . S
C688 C687 1.397 . S
C688 C689 1.334 . S
C689 H666 0.950 . S
C689 C688 1.334 . S
C689 C690 1.287 . S
C690 C689 1.287 . S
C690 C691 1.524 . S
C690 H709 0.913 . S
C691 H667 0.950 . S
C691 C690 1.524 . S
C691 C692 1.415 . S
C692 H668 0.950 . S
C692 C687 1.363 . S
C692 C691 1.415 . S
C693 H669 0.951 . S
C693 C694 1.366 . S
C693 C695 1.388 . S
C694 C693 1.366 . S
C694 C698 1.385 . S
C695 H670 0.951 . S
C695 C693 1.388 . S
C695 C696 1.366 . S
C696 C695 1.366 . S
C696 C697 1.414 . S
C696 C699 1.499 . S
C697 H671 0.950 . S
C697 C696 1.414 . S
C697 C698 1.374 . S
C698 H672 0.950 . S
C698 C694 1.385 . S
C698 C697 1.374 . S
C699 C696 1.499 . S
C699 C700 1.373 . S
C699 C701 1.389 . S
C700 H673 0.950 . S
C700 C686 1.377 . S
C700 C699 1.373 . S
C701 C685 1.377 . S
C701 C699 1.389 . S
C701 C702 1.524 . S
C702 C701 1.524 . S
C702 C703 1.397 . S
C702 C707 1.363 . S
C703 H674 0.950 . S
C703 C702 1.397 . S
C703 C704 1.334 . S
C704 H675 0.950 . S
C704 C703 1.334 . S
C704 C705 1.287 . S
C705 C704 1.287 . S
C705 C706 1.524 . S
C705 H708 0.999 . S
C706 H676 0.950 . S
C706 C705 1.524 . S
C706 C707 1.415 . S
C707 H677 0.950 . S
C707 C702 1.363 . S
C707 C706 1.415 . S
H708 C705 0.999 . S
H709 C690 0.913 . S
H710 C728 0.951 . S
H711 C730 0.951 . S
H712 C732 0.950 . S
H713 C733 0.950 . S
H714 C735 0.950 . S
H715 C738 0.950 . S
H716 C739 0.950 . S
H717 C741 0.950 . S
H718 C742 0.950 . S
H719 C743 0.951 . S
H720 C745 0.951 . S
H721 C747 0.950 . S
H722 C748 0.950 . S
H723 C750 0.950 . S
H724 C753 0.950 . S
H725 C754 0.950 . S
H726 C756 0.950 . S
H727 C757 0.950 . S
C728 H710 0.951 . S
C728 C729 1.366 . S
C728 C730 1.388 . S
C729 C728 1.366 . S
C729 C733 1.385 . S
C730 H711 0.951 . S
C730 C728 1.388 . S
C730 C731 1.366 . S
C731 C730 1.366 . S
C731 C732 1.414 . S
C731 C734 1.499 . S
C732 H712 0.950 . S
C732 C731 1.414 . S
C732 C733 1.374 . S
C733 H713 0.950 . S
C733 C729 1.385 . S
C733 C732 1.374 . S
C734 C731 1.499 . S
C734 C735 1.373 . S
C734 C736 1.389 . S
C735 H714 0.950 . S
C735 C734 1.373 . S
C735 C751 1.377 . S
C736 C734 1.389 . S
C736 C737 1.524 . S
C736 C750 1.377 . S
C737 C736 1.524 . S
C737 C738 1.397 . S
C737 C742 1.363 . S
C738 H715 0.950 . S
C738 C737 1.397 . S
C738 C739 1.334 . S
C739 H716 0.950 . S
C739 C738 1.334 . S
C739 C740 1.287 . S
C740 C739 1.287 . S
C740 C741 1.524 . S
C740 H759 0.913 . S
C741 H717 0.950 . S
C741 C740 1.524 . S
C741 C742 1.415 . S
C742 H718 0.950 . S
C742 C737 1.363 . S
C742 C741 1.415 . S
C743 H719 0.951 . S
C743 C744 1.366 . S
C743 C745 1.388 . S
C744 C743 1.366 . S
C744 C748 1.385 . S
C745 H720 0.951 . S
C745 C743 1.388 . S
C745 C746 1.366 . S
C746 C745 1.366 . S
C746 C747 1.414 . S
C746 C749 1.499 . S
C747 H721 0.950 . S
C747 C746 1.414 . S
C747 C748 1.374 . S
C748 H722 0.950 . S
C748 C744 1.385 . S
C748 C747 1.374 . S
C749 C746 1.499 . S
C749 C750 1.373 . S
C749 C751 1.389 . S
C750 H723 0.950 . S
C750 C736 1.377 . S
C750 C749 1.373 . S
C751 C735 1.377 . S
C751 C749 1.389 . S
C751 C752 1.524 . S
C752 C751 1.524 . S
C752 C753 1.397 . S
C752 C757 1.363 . S
C753 H724 0.950 . S
C753 C752 1.397 . S
C753 C754 1.334 . S
C754 H725 0.950 . S
C754 C753 1.334 . S
C754 C755 1.287 . S
C755 C754 1.287 . S
C755 C756 1.524 . S
C755 H758 0.999 . S
C756 H726 0.950 . S
C756 C755 1.524 . S
C756 C757 1.415 . S
C757 H727 0.950 . S
C757 C752 1.363 . S
C757 C756 1.415 . S
H758 C755 0.999 . S
H759 C740 0.913 . S
H760 C778 0.951 . S
H761 C780 0.951 . S
H762 C782 0.950 . S
H763 C783 0.950 . S
H764 C785 0.950 . S
H765 C788 0.950 . S
H766 C789 0.950 . S
H767 C791 0.950 . S
H768 C792 0.950 . S
H769 C793 0.951 . S
H770 C795 0.951 . S
H771 C797 0.950 . S
H772 C798 0.950 . S
H773 C800 0.950 . S
H774 C803 0.950 . S
H775 C804 0.950 . S
H776 C806 0.950 . S
H777 C807 0.950 . S
C778 H760 0.951 . S
C778 C779 1.366 . S
C778 C780 1.388 . S
C779 C778 1.366 . S
C779 C783 1.385 . S
C780 H761 0.951 . S
C780 C778 1.388 . S
C780 C781 1.366 . S
C781 C780 1.366 . S
C781 C782 1.414 . S
C781 C784 1.499 . S
C782 H762 0.950 . S
C782 C781 1.414 . S
C782 C783 1.374 . S
C783 H763 0.950 . S
C783 C779 1.385 . S
C783 C782 1.374 . S
C784 C781 1.499 . S
C784 C785 1.373 . S
C784 C786 1.389 . S
C785 H764 0.950 . S
C785 C784 1.373 . S
C785 C801 1.377 . S
C786 C784 1.389 . S
C786 C787 1.524 . S
C786 C800 1.377 . S
C787 C786 1.524 . S
C787 C788 1.397 . S
C787 C792 1.363 . S
C788 H765 0.950 . S
C788 C787 1.397 . S
C788 C789 1.334 . S
C789 H766 0.950 . S
C789 C788 1.334 . S
C789 C790 1.287 . S
C790 C789 1.287 . S
C790 C791 1.524 . S
C790 H809 0.913 . S
C791 H767 0.950 . S
C791 C790 1.524 . S
C791 C792 1.415 . S
C792 H768 0.950 . S
C792 C787 1.363 . S
C792 C791 1.415 . S
C793 H769 0.951 . S
C793 C794 1.366 . S
C793 C795 1.388 . S
C794 C793 1.366 . S
C794 C798 1.385 . S
C795 H770 0.951 . S
C795 C793 1.388 . S
C795 C796 1.366 . S
C796 C795 1.366 . S
C796 C797 1.414 . S
C796 C799 1.499 . S
C797 H771 0.950 . S
C797 C796 1.414 . S
C797 C798 1.374 . S
C798 H772 0.950 . S
C798 C794 1.385 . S
C798 C797 1.374 . S
C799 C796 1.499 . S
C799 C800 1.373 . S
C799 C801 1.389 . S
C800 H773 0.950 . S
C800 C786 1.377 . S
C800 C799 1.373 . S
C801 C785 1.377 . S
C801 C799 1.389 . S
C801 C802 1.524 . S
C802 C801 1.524 . S
C802 C803 1.397 . S
C802 C807 1.363 . S
C803 H774 0.950 . S
C803 C802 1.397 . S
C803 C804 1.334 . S
C804 H775 0.950 . S
C804 C803 1.334 . S
C804 C805 1.287 . S
C805 C804 1.287 . S
C805 C806 1.524 . S
C805 H808 0.999 . S
C806 H776 0.950 . S
C806 C805 1.524 . S
C806 C807 1.415 . S
C807 H777 0.950 . S
C807 C802 1.363 . S
C807 C806 1.415 . S
H808 C805 0.999 . S
H809 C790 0.913 . S
H810 C828 0.951 . S
H811 C830 0.951 . S
H812 C832 0.950 . S
H813 C833 0.950 . S
H814 C835 0.950 1_545 S
H815 C838 0.950 . S
H816 C839 0.950 . S
H817 C841 0.950 . S
H818 C842 0.950 . S
H819 C843 0.951 . S
H820 C845 0.951 . S
H821 C847 0.950 . S
H822 C848 0.951 1_545 S
H823 C850 0.950 . S
H824 C853 0.950 . S
H825 C854 0.950 . S
H826 C856 0.950 . S
H827 C857 0.950 . S
C828 H810 0.951 . S
C828 C829 1.366 . S
C828 C830 1.388 . S
C829 C828 1.366 . S
C829 C833 1.385 . S
C830 H811 0.951 . S
C830 C828 1.388 . S
C830 C831 1.366 . S
C831 C830 1.366 . S
C831 C832 1.414 . S
C831 C834 1.499 . S
C832 H812 0.950 . S
C832 C831 1.414 . S
C832 C833 1.374 . S
C833 H813 0.950 . S
C833 C829 1.385 . S
C833 C832 1.374 . S
C834 C831 1.499 . S
C834 C835 1.373 . S
C834 C836 1.389 . S
C835 H814 0.950 1_565 S
C835 C834 1.373 . S
C835 C851 1.376 1_565 S
C836 C834 1.389 . S
C836 C837 1.524 . S
C836 C850 1.377 . S
C837 C836 1.524 . S
C837 C838 1.397 . S
C837 C842 1.363 . S
C838 H815 0.950 . S
C838 C837 1.397 . S
C838 C839 1.334 . S
C839 H816 0.950 . S
C839 C838 1.334 . S
C839 C840 1.287 . S
C840 C839 1.287 . S
C840 C841 1.524 . S
C840 H859 0.913 . S
C841 H817 0.950 . S
C841 C840 1.524 . S
C841 C842 1.415 . S
C842 H818 0.950 . S
C842 C837 1.363 . S
C842 C841 1.415 . S
C843 H819 0.951 . S
C843 C844 1.366 1_565 S
C843 C845 1.388 . S
C844 C843 1.366 1_545 S
C844 C848 1.386 1_545 S
C845 H820 0.951 . S
C845 C843 1.388 . S
C845 C846 1.366 . S
C846 C845 1.366 . S
C846 C847 1.414 . S
C846 C849 1.499 . S
C847 H821 0.950 . S
C847 C846 1.414 . S
C847 C848 1.373 . S
C848 H822 0.951 1_565 S
C848 C844 1.386 1_565 S
C848 C847 1.373 . S
C849 C846 1.499 . S
C849 C850 1.373 . S
C849 C851 1.362 1_565 S
C850 H823 0.950 . S
C850 C836 1.377 . S
C850 C849 1.373 . S
C851 C835 1.376 1_545 S
C851 C849 1.362 1_545 S
C851 C852 1.557 . S
C852 C851 1.557 . S
C852 C853 1.397 . S
C852 C857 1.363 . S
C853 H824 0.950 . S
C853 C852 1.397 . S
C853 C854 1.334 . S
C854 H825 0.950 . S
C854 C853 1.334 . S
C854 C855 1.287 . S
C855 C854 1.287 . S
C855 C856 1.524 . S
C855 H858 0.999 . S
C856 H826 0.950 . S
C856 C855 1.524 . S
C856 C857 1.415 . S
C857 H827 0.950 . S
C857 C852 1.363 . S
C857 C856 1.415 . S
H858 C855 0.999 . S
H859 C840 0.913 . S
H860 C878 0.951 . S
H861 C880 0.951 . S
H862 C882 0.950 . S
H863 C883 0.950 . S
H864 C885 0.950 . S
H865 C888 0.950 . S
H866 C889 0.950 . S
H867 C891 0.950 . S
H868 C892 0.950 . S
H869 C893 0.951 . S
H870 C895 0.951 . S
H871 C897 0.950 . S
H872 C898 0.950 . S
H873 C900 0.950 . S
H874 C903 0.950 . S
H875 C904 0.950 . S
H876 C906 0.950 . S
H877 C907 0.950 . S
C878 H860 0.951 . S
C878 C879 1.366 . S
C878 C880 1.388 . S
C879 C878 1.366 . S
C879 C883 1.385 . S
C880 H861 0.951 . S
C880 C878 1.388 . S
C880 C881 1.366 . S
C881 C880 1.366 . S
C881 C882 1.414 . S
C881 C884 1.499 . S
C882 H862 0.950 . S
C882 C881 1.414 . S
C882 C883 1.374 . S
C883 H863 0.950 . S
C883 C879 1.385 . S
C883 C882 1.374 . S
C884 C881 1.499 . S
C884 C885 1.373 . S
C884 C886 1.389 . S
C885 H864 0.950 . S
C885 C884 1.373 . S
C885 C901 1.377 . S
C886 C884 1.389 . S
C886 C887 1.524 . S
C886 C900 1.377 . S
C887 C886 1.524 . S
C887 C888 1.397 . S
C887 C892 1.363 . S
C888 H865 0.950 . S
C888 C887 1.397 . S
C888 C889 1.334 . S
C889 H866 0.950 . S
C889 C888 1.334 . S
C889 C890 1.287 . S
C890 C889 1.287 . S
C890 C891 1.524 . S
C890 H909 0.913 . S
C891 H867 0.950 . S
C891 C890 1.524 . S
C891 C892 1.415 . S
C892 H868 0.950 . S
C892 C887 1.363 . S
C892 C891 1.415 . S
C893 H869 0.951 . S
C893 C894 1.366 . S
C893 C895 1.388 . S
C894 C893 1.366 . S
C894 C898 1.385 . S
C895 H870 0.951 . S
C895 C893 1.388 . S
C895 C896 1.366 . S
C896 C895 1.366 . S
C896 C897 1.414 . S
C896 C899 1.499 . S
C897 H871 0.950 . S
C897 C896 1.414 . S
C897 C898 1.374 . S
C898 H872 0.950 . S
C898 C894 1.385 . S
C898 C897 1.374 . S
C899 C896 1.499 . S
C899 C900 1.373 . S
C899 C901 1.389 . S
C900 H873 0.950 . S
C900 C886 1.377 . S
C900 C899 1.373 . S
C901 C885 1.377 . S
C901 C899 1.389 . S
C901 C902 1.524 . S
C902 C901 1.524 . S
C902 C903 1.397 . S
C902 C907 1.363 . S
C903 H874 0.950 . S
C903 C902 1.397 . S
C903 C904 1.334 . S
C904 H875 0.950 . S
C904 C903 1.334 . S
C904 C905 1.287 . S
C905 C904 1.287 . S
C905 C906 1.524 . S
C905 H908 0.999 . S
C906 H876 0.950 . S
C906 C905 1.524 . S
C906 C907 1.415 . S
C907 H877 0.950 . S
C907 C902 1.363 . S
C907 C906 1.415 . S
H908 C905 0.999 . S
H909 C890 0.913 . S
H910 C928 0.951 . S
H911 C930 0.951 . S
H912 C932 0.950 . S
H913 C933 0.950 . S
H914 C935 0.950 . S
H915 C938 0.950 . S
H916 C939 0.950 . S
H917 C941 0.950 . S
H918 C942 0.950 . S
H919 C943 0.951 . S
H920 C945 0.951 . S
H921 C947 0.950 . S
H922 C948 0.950 . S
H923 C950 0.950 . S
H924 C953 0.950 . S
H925 C954 0.950 . S
H926 C956 0.950 . S
H927 C957 0.950 . S
C928 H910 0.951 . S
C928 C929 1.366 . S
C928 C930 1.388 . S
C929 C928 1.366 . S
C929 C933 1.385 . S
C930 H911 0.951 . S
C930 C928 1.388 . S
C930 C931 1.366 . S
C931 C930 1.366 . S
C931 C932 1.414 . S
C931 C934 1.499 . S
C932 H912 0.950 . S
C932 C931 1.414 . S
C932 C933 1.374 . S
C933 H913 0.950 . S
C933 C929 1.385 . S
C933 C932 1.374 . S
C934 C931 1.499 . S
C934 C935 1.373 . S
C934 C936 1.389 . S
C935 H914 0.950 . S
C935 C934 1.373 . S
C935 C951 1.377 . S
C936 C934 1.389 . S
C936 C937 1.524 . S
C936 C950 1.377 . S
C937 C936 1.524 . S
C937 C938 1.397 . S
C937 C942 1.363 . S
C938 H915 0.950 . S
C938 C937 1.397 . S
C938 C939 1.334 . S
C939 H916 0.950 . S
C939 C938 1.334 . S
C939 C940 1.287 . S
C940 C939 1.287 . S
C940 C941 1.524 . S
C940 H959 0.913 . S
C941 H917 0.950 . S
C941 C940 1.524 . S
C941 C942 1.415 . S
C942 H918 0.950 . S
C942 C937 1.363 . S
C942 C941 1.415 . S
C943 H919 0.951 . S
C943 C944 1.366 . S
C943 C945 1.388 . S
C944 C943 1.366 . S
C944 C948 1.385 . S
C945 H920 0.951 . S
C945 C943 1.388 . S
C945 C946 1.366 . S
C946 C945 1.366 . S
C946 C947 1.414 . S
C946 C949 1.499 . S
C947 H921 0.950 . S
C947 C946 1.414 . S
C947 C948 1.374 . S
C948 H922 0.950 . S
C948 C944 1.385 . S
C948 C947 1.374 . S
C949 C946 1.499 . S
C949 C950 1.373 . S
C949 C951 1.389 . S
C950 H923 0.950 . S
C950 C936 1.377 . S
C950 C949 1.373 . S
C951 C935 1.377 . S
C951 C949 1.389 . S
C951 C952 1.524 . S
C952 C951 1.524 . S
C952 C953 1.397 . S
C952 C957 1.363 . S
C953 H924 0.950 . S
C953 C952 1.397 . S
C953 C954 1.334 . S
C954 H925 0.950 . S
C954 C953 1.334 . S
C954 C955 1.287 . S
C955 C954 1.287 . S
C955 C956 1.524 . S
C955 H958 0.999 . S
C956 H926 0.950 . S
C956 C955 1.524 . S
C956 C957 1.415 . S
C957 H927 0.950 . S
C957 C952 1.363 . S
C957 C956 1.415 . S
H958 C955 0.999 . S
H959 C940 0.913 . S
H960 C978 0.951 . S
H961 C980 0.951 . S
H962 C982 0.950 . S
H963 C983 0.950 . S
H964 C985 0.950 . S
H965 C988 0.950 . S
H966 C989 0.950 . S
H967 C991 0.950 . S
H968 C992 0.950 . S
H969 C993 0.951 . S
H970 C995 0.951 . S
H971 C997 0.950 . S
H972 C998 0.950 . S
H973 C1000 0.950 . S
H974 C1003 0.950 . S
H975 C1004 0.950 . S
H976 C1006 0.950 . S
H977 C1007 0.950 . S
C978 H960 0.951 . S
C978 C979 1.366 . S
C978 C980 1.388 . S
C979 C978 1.366 . S
C979 C983 1.385 . S
C980 H961 0.951 . S
C980 C978 1.388 . S
C980 C981 1.366 . S
C981 C980 1.366 . S
C981 C982 1.414 . S
C981 C984 1.499 . S
C982 H962 0.950 . S
C982 C981 1.414 . S
C982 C983 1.374 . S
C983 H963 0.950 . S
C983 C979 1.385 . S
C983 C982 1.374 . S
C984 C981 1.499 . S
C984 C985 1.373 . S
C984 C986 1.389 . S
C985 H964 0.950 . S
C985 C984 1.373 . S
C985 C1001 1.377 . S
C986 C984 1.389 . S
C986 C987 1.524 . S
C986 C1000 1.377 . S
C987 C986 1.524 . S
C987 C988 1.397 . S
C987 C992 1.363 . S
C988 H965 0.950 . S
C988 C987 1.397 . S
C988 C989 1.334 . S
C989 H966 0.950 . S
C989 C988 1.334 . S
C989 C990 1.287 . S
C990 C989 1.287 . S
C990 C991 1.524 . S
C990 H1009 0.913 . S
C991 H967 0.950 . S
C991 C990 1.524 . S
C991 C992 1.415 . S
C992 H968 0.950 . S
C992 C987 1.363 . S
C992 C991 1.415 . S
C993 H969 0.951 . S
C993 C994 1.366 . S
C993 C995 1.388 . S
C994 C993 1.366 . S
C994 C998 1.385 . S
C995 H970 0.951 . S
C995 C993 1.388 . S
C995 C996 1.366 . S
C996 C995 1.366 . S
C996 C997 1.414 . S
C996 C999 1.499 . S
C997 H971 0.950 . S
C997 C996 1.414 . S
C997 C998 1.374 . S
C998 H972 0.950 . S
C998 C994 1.385 . S
C998 C997 1.374 . S
C999 C996 1.499 . S
C999 C1000 1.373 . S
C999 C1001 1.389 . S
C1000 H973 0.950 . S
C1000 C986 1.377 . S
C1000 C999 1.373 . S
C1001 C985 1.377 . S
C1001 C999 1.389 . S
C1001 C1002 1.524 . S
C1002 C1001 1.524 . S
C1002 C1003 1.397 . S
C1002 C1007 1.363 . S
C1003 H974 0.950 . S
C1003 C1002 1.397 . S
C1003 C1004 1.334 . S
C1004 H975 0.950 . S
C1004 C1003 1.334 . S
C1004 C1005 1.287 . S
C1005 C1004 1.287 . S
C1005 C1006 1.524 . S
C1005 H1008 0.999 . S
C1006 H976 0.950 . S
C1006 C1005 1.524 . S
C1006 C1007 1.415 . S
C1007 H977 0.950 . S
C1007 C1002 1.363 . S
C1007 C1006 1.415 . S
H1008 C1005 0.999 . S
H1009 C990 0.913 . S
H1010 C1028 0.951 . S
H1011 C1030 0.951 . S
H1012 C1032 0.950 . S
H1013 C1033 0.950 . S
H1014 C1035 0.950 . S
H1015 C1038 0.950 . S
H1016 C1039 0.950 . S
H1017 C1041 0.950 . S
H1018 C1042 0.950 . S
H1019 C1043 0.951 . S
H1020 C1045 0.951 . S
H1021 C1047 0.950 . S
H1022 C1048 0.950 . S
H1023 C1050 0.950 . S
H1024 C1053 0.950 . S
H1025 C1054 0.950 . S
H1026 C1056 0.950 . S
H1027 C1057 0.950 . S
C1028 H1010 0.951 . S
C1028 C1029 1.366 . S
C1028 C1030 1.388 . S
C1029 C1028 1.366 . S
C1029 C1033 1.385 . S
C1030 H1011 0.951 . S
C1030 C1028 1.388 . S
C1030 C1031 1.366 . S
C1031 C1030 1.366 . S
C1031 C1032 1.414 . S
C1031 C1034 1.499 . S
C1032 H1012 0.950 . S
C1032 C1031 1.414 . S
C1032 C1033 1.374 . S
C1033 H1013 0.950 . S
C1033 C1029 1.385 . S
C1033 C1032 1.374 . S
C1034 C1031 1.499 . S
C1034 C1035 1.373 . S
C1034 C1036 1.389 . S
C1035 H1014 0.950 . S
C1035 C1034 1.373 . S
C1035 C1051 1.377 . S
C1036 C1034 1.389 . S
C1036 C1037 1.524 . S
C1036 C1050 1.377 . S
C1037 C1036 1.524 . S
C1037 C1038 1.397 . S
C1037 C1042 1.363 . S
C1038 H1015 0.950 . S
C1038 C1037 1.397 . S
C1038 C1039 1.334 . S
C1039 H1016 0.950 . S
C1039 C1038 1.334 . S
C1039 C1040 1.287 . S
C1040 C1039 1.287 . S
C1040 C1041 1.524 . S
C1040 H1059 0.913 . S
C1041 H1017 0.950 . S
C1041 C1040 1.524 . S
C1041 C1042 1.415 . S
C1042 H1018 0.950 . S
C1042 C1037 1.363 . S
C1042 C1041 1.415 . S
C1043 H1019 0.951 . S
C1043 C1044 1.366 . S
C1043 C1045 1.388 . S
C1044 C1043 1.366 . S
C1044 C1048 1.385 . S
C1045 H1020 0.951 . S
C1045 C1043 1.388 . S
C1045 C1046 1.366 . S
C1046 C1045 1.366 . S
C1046 C1047 1.414 . S
C1046 C1049 1.499 . S
C1047 H1021 0.950 . S
C1047 C1046 1.414 . S
C1047 C1048 1.374 . S
C1048 H1022 0.950 . S
C1048 C1044 1.385 . S
C1048 C1047 1.374 . S
C1049 C1046 1.499 . S
C1049 C1050 1.373 . S
C1049 C1051 1.389 . S
C1050 H1023 0.950 . S
C1050 C1036 1.377 . S
C1050 C1049 1.373 . S
C1051 C1035 1.377 . S
C1051 C1049 1.389 . S
C1051 C1052 1.524 . S
C1052 C1051 1.524 . S
C1052 C1053 1.397 . S
C1052 C1057 1.363 . S
C1053 H1024 0.950 . S
C1053 C1052 1.397 . S
C1053 C1054 1.334 . S
C1054 H1025 0.950 . S
C1054 C1053 1.334 . S
C1054 C1055 1.287 . S
C1055 C1054 1.287 . S
C1055 C1056 1.524 . S
C1055 H1058 0.999 . S
C1056 H1026 0.950 . S
C1056 C1055 1.524 . S
C1056 C1057 1.415 . S
C1057 H1027 0.950 . S
C1057 C1052 1.363 . S
C1057 C1056 1.415 . S
H1058 C1055 0.999 . S
H1059 C1040 0.913 . S
H1060 C1078 0.951 . S
H1061 C1080 0.951 . S
H1062 C1082 0.950 . S
H1063 C1083 0.950 . S
H1064 C1085 0.950 . S
H1065 C1088 0.950 . S
H1066 C1089 0.950 . S
H1067 C1091 0.950 . S
H1068 C1092 0.950 . S
H1069 C1093 0.951 . S
H1070 C1095 0.951 . S
H1071 C1097 0.950 . S
H1072 C1098 0.950 . S
H1073 C1100 0.950 . S
H1074 C1103 0.950 . S
H1075 C1104 0.950 . S
H1076 C1106 0.950 . S
H1077 C1107 0.950 . S
C1078 H1060 0.951 . S
C1078 C1079 1.366 . S
C1078 C1080 1.388 . S
C1079 C1078 1.366 . S
C1079 C1083 1.385 . S
C1080 H1061 0.951 . S
C1080 C1078 1.388 . S
C1080 C1081 1.366 . S
C1081 C1080 1.366 . S
C1081 C1082 1.414 . S
C1081 C1084 1.499 . S
C1082 H1062 0.950 . S
C1082 C1081 1.414 . S
C1082 C1083 1.374 . S
C1083 H1063 0.950 . S
C1083 C1079 1.385 . S
C1083 C1082 1.374 . S
C1084 C1081 1.499 . S
C1084 C1085 1.373 . S
C1084 C1086 1.389 . S
C1085 H1064 0.950 . S
C1085 C1084 1.373 . S
C1085 C1101 1.377 . S
C1086 C1084 1.389 . S
C1086 C1087 1.524 . S
C1086 C1100 1.377 . S
C1087 C1086 1.524 . S
C1087 C1088 1.397 . S
C1087 C1092 1.363 . S
C1088 H1065 0.950 . S
C1088 C1087 1.397 . S
C1088 C1089 1.334 . S
C1089 H1066 0.950 . S
C1089 C1088 1.334 . S
C1089 C1090 1.287 . S
C1090 C1089 1.287 . S
C1090 C1091 1.524 . S
C1090 H1109 0.913 . S
C1091 H1067 0.950 . S
C1091 C1090 1.524 . S
C1091 C1092 1.415 . S
C1092 H1068 0.950 . S
C1092 C1087 1.363 . S
C1092 C1091 1.415 . S
C1093 H1069 0.951 . S
C1093 C1094 1.366 . S
C1093 C1095 1.388 . S
C1094 C1093 1.366 . S
C1094 C1098 1.385 . S
C1095 H1070 0.951 . S
C1095 C1093 1.388 . S
C1095 C1096 1.366 . S
C1096 C1095 1.366 . S
C1096 C1097 1.414 . S
C1096 C1099 1.499 . S
C1097 H1071 0.950 . S
C1097 C1096 1.414 . S
C1097 C1098 1.374 . S
C1098 H1072 0.950 . S
C1098 C1094 1.385 . S
C1098 C1097 1.374 . S
C1099 C1096 1.499 . S
C1099 C1100 1.373 . S
C1099 C1101 1.389 . S
C1100 H1073 0.950 . S
C1100 C1086 1.377 . S
C1100 C1099 1.373 . S
C1101 C1085 1.377 . S
C1101 C1099 1.389 . S
C1101 C1102 1.524 . S
C1102 C1101 1.524 . S
C1102 C1103 1.397 . S
C1102 C1107 1.363 . S
C1103 H1074 0.950 . S
C1103 C1102 1.397 . S
C1103 C1104 1.334 . S
C1104 H1075 0.950 . S
C1104 C1103 1.334 . S
C1104 C1105 1.287 . S
C1105 C1104 1.287 . S
C1105 C1106 1.524 . S
C1105 H1108 0.999 . S
C1106 H1076 0.950 . S
C1106 C1105 1.524 . S
C1106 C1107 1.415 . S
C1107 H1077 0.950 . S
C1107 C1102 1.363 . S
C1107 C1106 1.415 . S
H1108 C1105 0.999 . S
H1109 C1090 0.913 . S
H1110 C1128 0.951 . S
H1111 C1130 0.951 . S
H1112 C1132 0.950 . S
H1113 C1133 0.950 . S
H1114 C1135 0.950 . S
H1115 C1138 0.950 . S
H1116 C1139 0.950 . S
H1117 C1141 0.950 . S
H1118 C1142 0.950 . S
H1119 C1143 0.951 . S
H1120 C1145 0.951 . S
H1121 C1147 0.950 . S
H1122 C1148 0.950 . S
H1123 C1150 0.950 . S
H1124 C1153 0.950 . S
H1125 C1154 0.950 . S
H1126 C1156 0.950 . S
H1127 C1157 0.950 . S
C1128 H1110 0.951 . S
C1128 C1129 1.366 . S
C1128 C1130 1.388 . S
C1129 C1128 1.366 . S
C1129 C1133 1.385 . S
C1130 H1111 0.951 . S
C1130 C1128 1.388 . S
C1130 C1131 1.366 . S
C1131 C1130 1.366 . S
C1131 C1132 1.414 . S
C1131 C1134 1.499 . S
C1132 H1112 0.950 . S
C1132 C1131 1.414 . S
C1132 C1133 1.374 . S
C1133 H1113 0.950 . S
C1133 C1129 1.385 . S
C1133 C1132 1.374 . S
C1134 C1131 1.499 . S
C1134 C1135 1.373 . S
C1134 C1136 1.389 . S
C1135 H1114 0.950 . S
C1135 C1134 1.373 . S
C1135 C1151 1.377 . S
C1136 C1134 1.389 . S
C1136 C1137 1.524 . S
C1136 C1150 1.377 . S
C1137 C1136 1.524 . S
C1137 C1138 1.397 . S
C1137 C1142 1.363 . S
C1138 H1115 0.950 . S
C1138 C1137 1.397 . S
C1138 C1139 1.334 . S
C1139 H1116 0.950 . S
C1139 C1138 1.334 . S
C1139 C1140 1.287 . S
C1140 C1139 1.287 . S
C1140 C1141 1.524 . S
C1140 H1159 0.913 . S
C1141 H1117 0.950 . S
C1141 C1140 1.524 . S
C1141 C1142 1.415 . S
C1142 H1118 0.950 . S
C1142 C1137 1.363 . S
C1142 C1141 1.415 . S
C1143 H1119 0.951 . S
C1143 C1144 1.366 . S
C1143 C1145 1.388 . S
C1144 C1143 1.366 . S
C1144 C1148 1.385 . S
C1145 H1120 0.951 . S
C1145 C1143 1.388 . S
C1145 C1146 1.366 . S
C1146 C1145 1.366 . S
C1146 C1147 1.414 . S
C1146 C1149 1.499 . S
C1147 H1121 0.950 . S
C1147 C1146 1.414 . S
C1147 C1148 1.374 . S
C1148 H1122 0.950 . S
C1148 C1144 1.385 . S
C1148 C1147 1.374 . S
C1149 C1146 1.499 . S
C1149 C1150 1.373 . S
C1149 C1151 1.389 . S
C1150 H1123 0.950 . S
C1150 C1136 1.377 . S
C1150 C1149 1.373 . S
C1151 C1135 1.377 . S
C1151 C1149 1.389 . S
C1151 C1152 1.524 . S
C1152 C1151 1.524 . S
C1152 C1153 1.397 . S
C1152 C1157 1.363 . S
C1153 H1124 0.950 . S
C1153 C1152 1.397 . S
C1153 C1154 1.334 1_455 S
C1154 H1125 0.950 . S
C1154 C1153 1.334 1_655 S
C1154 C1155 1.287 1_655 S
C1155 C1154 1.287 1_455 S
C1155 C1156 1.524 . S
C1155 H1158 0.999 1_455 S
C1156 H1126 0.950 . S
C1156 C1155 1.524 . S
C1156 C1157 1.415 . S
C1157 H1127 0.950 . S
C1157 C1152 1.363 . S
C1157 C1156 1.415 . S
H1158 C1155 0.999 1_655 S
H1159 C1140 0.913 . S
H1160 C1178 0.951 . S
H1161 C1180 0.951 . S
H1162 C1182 0.950 . S
H1163 C1183 0.950 . S
H1164 C1185 0.950 . S
H1165 C1188 0.950 . S
H1166 C1189 0.950 . S
H1167 C1191 0.950 . S
H1168 C1192 0.950 . S
H1169 C1193 0.951 . S
H1170 C1195 0.951 . S
H1171 C1197 0.950 . S
H1172 C1198 0.950 . S
H1173 C1200 0.950 . S
H1174 C1203 0.950 . S
H1175 C1204 0.950 . S
H1176 C1206 0.950 . S
H1177 C1207 0.950 . S
C1178 H1160 0.951 . S
C1178 C1179 1.366 . S
C1178 C1180 1.388 . S
C1179 C1178 1.366 . S
C1179 C1183 1.385 . S
C1180 H1161 0.951 . S
C1180 C1178 1.388 . S
C1180 C1181 1.366 . S
C1181 C1180 1.366 . S
C1181 C1182 1.414 . S
C1181 C1184 1.499 . S
C1182 H1162 0.950 . S
C1182 C1181 1.414 . S
C1182 C1183 1.374 . S
C1183 H1163 0.950 . S
C1183 C1179 1.385 . S
C1183 C1182 1.374 . S
C1184 C1181 1.499 . S
C1184 C1185 1.373 . S
C1184 C1186 1.389 . S
C1185 H1164 0.950 . S
C1185 C1184 1.373 . S
C1185 C1201 1.377 . S
C1186 C1184 1.389 . S
C1186 C1187 1.524 . S
C1186 C1200 1.377 . S
C1187 C1186 1.524 . S
C1187 C1188 1.397 . S
C1187 C1192 1.363 . S
C1188 H1165 0.950 . S
C1188 C1187 1.397 . S
C1188 C1189 1.334 . S
C1189 H1166 0.950 . S
C1189 C1188 1.334 . S
C1189 C1190 1.287 . S
C1190 C1189 1.287 . S
C1190 C1191 1.524 . S
C1190 H1209 0.913 . S
C1191 H1167 0.950 . S
C1191 C1190 1.524 . S
C1191 C1192 1.415 . S
C1192 H1168 0.950 . S
C1192 C1187 1.363 . S
C1192 C1191 1.415 . S
C1193 H1169 0.951 . S
C1193 C1194 1.366 . S
C1193 C1195 1.388 . S
C1194 C1193 1.366 . S
C1194 C1198 1.385 . S
C1195 H1170 0.951 . S
C1195 C1193 1.388 . S
C1195 C1196 1.366 . S
C1196 C1195 1.366 . S
C1196 C1197 1.414 . S
C1196 C1199 1.499 . S
C1197 H1171 0.950 . S
C1197 C1196 1.414 . S
C1197 C1198 1.374 . S
C1198 H1172 0.950 . S
C1198 C1194 1.385 . S
C1198 C1197 1.374 . S
C1199 C1196 1.499 . S
C1199 C1200 1.373 . S
C1199 C1201 1.389 . S
C1200 H1173 0.950 . S
C1200 C1186 1.377 . S
C1200 C1199 1.373 . S
C1201 C1185 1.377 . S
C1201 C1199 1.389 . S
C1201 C1202 1.524 . S
C1202 C1201 1.524 . S
C1202 C1203 1.397 . S
C1202 C1207 1.363 . S
C1203 H1174 0.950 . S
C1203 C1202 1.397 . S
C1203 C1204 1.334 . S
C1204 H1175 0.950 . S
C1204 C1203 1.334 . S
C1204 C1205 1.287 . S
C1205 C1204 1.287 . S
C1205 C1206 1.524 . S
C1205 H1208 0.999 . S
C1206 H1176 0.950 . S
C1206 C1205 1.524 . S
C1206 C1207 1.415 . S
C1207 H1177 0.950 . S
C1207 C1202 1.363 . S
C1207 C1206 1.415 . S
H1208 C1205 0.999 . S
H1209 C1190 0.913 . S
H1210 C1228 0.951 1_455 S
H1211 C1230 0.951 1_455 S
H1212 C1232 0.950 . S
H1213 C1233 0.950 . S
H1214 C1235 0.950 . S
H1215 C1238 0.950 . S
H1216 C1239 0.950 . S
H1217 C1241 0.950 . S
H1218 C1242 0.950 . S
H1219 C1243 0.951 . S
H1220 C1245 0.951 . S
H1221 C1247 0.950 . S
H1222 C1248 0.950 . S
H1223 C1250 0.969 . S
H1224 C1253 0.950 . S
H1225 C1254 0.950 . S
H1226 C1256 0.950 . S
H1227 C1257 0.950 . S
C1228 H1210 0.951 1_655 S
C1228 C1229 1.366 . S
C1228 C1230 1.388 . S
C1229 C1228 1.366 . S
C1229 C1233 1.385 . S
C1230 H1211 0.951 1_655 S
C1230 C1228 1.388 . S
C1230 C1231 1.366 . S
C1231 C1230 1.366 . S
C1231 C1232 1.414 . S
C1231 C1234 1.499 . S
C1232 H1212 0.950 . S
C1232 C1231 1.414 . S
C1232 C1233 1.374 . S
C1233 H1213 0.950 . S
C1233 C1229 1.385 . S
C1233 C1232 1.374 . S
C1234 C1231 1.499 . S
C1234 C1235 1.373 . S
C1234 C1236 1.389 . S
C1235 H1214 0.950 . S
C1235 C1234 1.373 . S
C1235 C1251 1.377 . S
C1236 C1234 1.389 . S
C1236 C1237 1.524 . S
C1236 C1250 1.377 . S
C1237 C1236 1.524 . S
C1237 C1238 1.397 . S
C1237 C1242 1.363 1_655 S
C1238 H1215 0.950 . S
C1238 C1237 1.397 . S
C1238 C1239 1.334 . S
C1239 H1216 0.950 . S
C1239 C1238 1.334 . S
C1239 C1240 1.287 1_655 S
C1240 C1239 1.287 1_455 S
C1240 C1241 1.524 . S
C1240 H1259 0.913 . S
C1241 H1217 0.950 . S
C1241 C1240 1.524 . S
C1241 C1242 1.415 . S
C1242 H1218 0.950 . S
C1242 C1237 1.363 1_455 S
C1242 C1241 1.415 . S
C1243 H1219 0.951 . S
C1243 C1244 1.366 . S
C1243 C1245 1.388 . S
C1244 C1243 1.366 . S
C1244 C1248 1.385 1_655 S
C1245 H1220 0.951 . S
C1245 C1243 1.388 . S
C1245 C1246 1.366 . S
C1246 C1245 1.366 . S
C1246 C1247 1.414 1_655 S
C1246 C1249 1.499 . S
C1247 H1221 0.950 . S
C1247 C1246 1.414 1_455 S
C1247 C1248 1.374 . S
C1248 H1222 0.950 . S
C1248 C1244 1.385 1_455 S
C1248 C1247 1.374 . S
C1249 C1246 1.499 . S
C1249 C1250 1.373 . S
C1249 C1251 1.389 . S
C1250 H1223 0.969 . S
C1250 C1236 1.377 . S
C1250 C1249 1.373 . S
C1251 C1235 1.377 . S
C1251 C1249 1.389 . S
C1251 C1252 1.524 . S
C1252 C1251 1.524 . S
C1252 C1253 1.397 . S
C1252 C1257 1.363 . S
C1253 H1224 0.950 . S
C1253 C1252 1.397 . S
C1253 C1254 1.334 . S
C1254 H1225 0.950 . S
C1254 C1253 1.334 . S
C1254 C1255 1.287 . S
C1255 C1254 1.287 . S
C1255 C1256 1.524 . S
C1255 H1258 0.999 . S
C1256 H1226 0.950 . S
C1256 C1255 1.524 . S
C1256 C1257 1.415 . S
C1257 H1227 0.950 . S
C1257 C1252 1.363 . S
C1257 C1256 1.415 . S
H1258 C1255 0.999 . S
H1259 C1240 0.913 . S
H1260 C1278 0.951 . S
H1261 C1280 0.951 . S
H1262 C1282 0.950 . S
H1263 C1283 0.950 . S
H1264 C1285 0.950 . S
H1265 C1288 0.950 . S
H1266 C1289 0.950 . S
H1267 C1291 0.950 . S
H1268 C1292 0.950 . S
H1269 C1293 0.951 . S
H1270 C1295 0.951 . S
H1271 C1297 0.950 . S
H1272 C1298 0.950 . S
H1273 C1300 0.950 . S
H1274 C1303 0.950 . S
H1275 C1304 0.950 . S
H1276 C1306 0.950 . S
H1277 C1307 0.950 . S
C1278 H1260 0.951 . S
C1278 C1279 1.366 . S
C1278 C1280 1.388 . S
C1279 C1278 1.366 . S
C1279 C1283 1.385 . S
C1280 H1261 0.951 . S
C1280 C1278 1.388 . S
C1280 C1281 1.366 . S
C1281 C1280 1.366 . S
C1281 C1282 1.414 . S
C1281 C1284 1.499 . S
C1282 H1262 0.950 . S
C1282 C1281 1.414 . S
C1282 C1283 1.374 . S
C1283 H1263 0.950 . S
C1283 C1279 1.385 . S
C1283 C1282 1.374 . S
C1284 C1281 1.499 . S
C1284 C1285 1.373 . S
C1284 C1286 1.389 . S
C1285 H1264 0.950 . S
C1285 C1284 1.373 . S
C1285 C1301 1.377 . S
C1286 C1284 1.389 . S
C1286 C1287 1.524 . S
C1286 C1300 1.377 . S
C1287 C1286 1.524 . S
C1287 C1288 1.397 . S
C1287 C1292 1.363 . S
C1288 H1265 0.950 . S
C1288 C1287 1.397 . S
C1288 C1289 1.334 . S
C1289 H1266 0.950 . S
C1289 C1288 1.334 . S
C1289 C1290 1.287 . S
C1290 C1289 1.287 . S
C1290 C1291 1.524 . S
C1290 H1309 0.913 . S
C1291 H1267 0.950 . S
C1291 C1290 1.524 . S
C1291 C1292 1.415 . S
C1292 H1268 0.950 . S
C1292 C1287 1.363 . S
C1292 C1291 1.415 . S
C1293 H1269 0.951 . S
C1293 C1294 1.366 . S
C1293 C1295 1.388 . S
C1294 C1293 1.366 . S
C1294 C1298 1.385 . S
C1295 H1270 0.951 . S
C1295 C1293 1.388 . S
C1295 C1296 1.366 . S
C1296 C1295 1.366 . S
C1296 C1297 1.414 . S
C1296 C1299 1.499 . S
C1297 H1271 0.950 . S
C1297 C1296 1.414 . S
C1297 C1298 1.374 . S
C1298 H1272 0.950 . S
C1298 C1294 1.385 . S
C1298 C1297 1.374 . S
C1299 C1296 1.499 . S
C1299 C1300 1.373 . S
C1299 C1301 1.389 . S
C1300 H1273 0.950 . S
C1300 C1286 1.377 . S
C1300 C1299 1.373 . S
C1301 C1285 1.377 . S
C1301 C1299 1.389 . S
C1301 C1302 1.524 . S
C1302 C1301 1.524 . S
C1302 C1303 1.397 . S
C1302 C1307 1.363 . S
C1303 H1274 0.950 . S
C1303 C1302 1.397 . S
C1303 C1304 1.334 . S
C1304 H1275 0.950 . S
C1304 C1303 1.334 . S
C1304 C1305 1.287 . S
C1305 C1304 1.287 . S
C1305 C1306 1.524 . S
C1305 H1308 0.999 . S
C1306 H1276 0.950 . S
C1306 C1305 1.524 . S
C1306 C1307 1.415 . S
C1307 H1277 0.950 . S
C1307 C1302 1.363 . S
C1307 C1306 1.415 . S
H1308 C1305 0.999 . S
H1309 C1290 0.913 . S
H1310 C1328 0.951 . S
H1311 C1330 0.951 . S
H1312 C1332 0.950 . S
H1313 C1333 0.950 . S
H1314 C1335 0.950 . S
H1315 C1338 0.950 . S
H1316 C1339 0.950 . S
H1317 C1341 0.950 . S
H1318 C1342 0.950 . S
H1319 C1343 0.951 . S
H1320 C1345 0.951 . S
H1321 C1347 0.950 . S
H1322 C1348 0.950 . S
H1323 C1350 0.950 . S
H1324 C1353 0.950 . S
H1325 C1354 0.950 . S
H1326 C1356 0.950 . S
H1327 C1357 0.950 . S
C1328 H1310 0.951 . S
C1328 C1329 1.366 . S
C1328 C1330 1.388 . S
C1329 C1328 1.366 . S
C1329 C1333 1.385 . S
C1330 H1311 0.951 . S
C1330 C1328 1.388 . S
C1330 C1331 1.366 . S
C1331 C1330 1.366 . S
C1331 C1332 1.414 . S
C1331 C1334 1.499 . S
C1332 H1312 0.950 . S
C1332 C1331 1.414 . S
C1332 C1333 1.374 . S
C1333 H1313 0.950 . S
C1333 C1329 1.385 . S
C1333 C1332 1.374 . S
C1334 C1331 1.499 . S
C1334 C1335 1.373 . S
C1334 C1336 1.389 . S
C1335 H1314 0.950 . S
C1335 C1334 1.373 . S
C1335 C1351 1.377 . S
C1336 C1334 1.389 . S
C1336 C1337 1.524 . S
C1336 C1350 1.377 . S
C1337 C1336 1.524 . S
C1337 C1338 1.397 . S
C1337 C1342 1.363 . S
C1338 H1315 0.950 . S
C1338 C1337 1.397 . S
C1338 C1339 1.334 . S
C1339 H1316 0.950 . S
C1339 C1338 1.334 . S
C1339 C1340 1.287 . S
C1340 C1339 1.287 . S
C1340 C1341 1.524 . S
C1340 H1359 0.913 . S
C1341 H1317 0.950 . S
C1341 C1340 1.524 . S
C1341 C1342 1.415 . S
C1342 H1318 0.950 . S
C1342 C1337 1.363 . S
C1342 C1341 1.415 . S
C1343 H1319 0.951 . S
C1343 C1344 1.366 . S
C1343 C1345 1.388 . S
C1344 C1343 1.366 . S
C1344 C1348 1.385 . S
C1345 H1320 0.951 . S
C1345 C1343 1.388 . S
C1345 C1346 1.366 . S
C1346 C1345 1.366 . S
C1346 C1347 1.414 . S
C1346 C1349 1.499 . S
C1347 H1321 0.950 . S
C1347 C1346 1.414 . S
C1347 C1348 1.374 . S
C1348 H1322 0.950 . S
C1348 C1344 1.385 . S
C1348 C1347 1.374 . S
C1349 C1346 1.499 . S
C1349 C1350 1.373 . S
C1349 C1351 1.389 . S
C1350 H1323 0.950 . S
C1350 C1336 1.377 . S
C1350 C1349 1.373 . S
C1351 C1335 1.377 . S
C1351 C1349 1.389 . S
C1351 C1352 1.524 . S
C1352 C1351 1.524 . S
C1352 C1353 1.397 . S
C1352 C1357 1.363 . S
C1353 H1324 0.950 . S
C1353 C1352 1.397 . S
C1353 C1354 1.334 . S
C1354 H1325 0.950 . S
C1354 C1353 1.334 . S
C1354 C1355 1.287 . S
C1355 C1354 1.287 . S
C1355 C1356 1.524 . S
C1355 H1358 0.999 . S
C1356 H1326 0.950 . S
C1356 C1355 1.524 . S
C1356 C1357 1.415 . S
C1357 H1327 0.950 . S
C1357 C1352 1.363 . S
C1357 C1356 1.415 . S
H1358 C1355 0.999 . S
H1359 C1340 0.913 . S
H1360 C1378 0.951 . S
H1361 C1380 0.951 . S
H1362 C1382 0.950 1_554 S
H1363 C1383 0.950 . S
H1364 C1385 0.950 . S
H1365 C1388 0.950 . S
H1366 C1389 0.950 . S
H1367 C1391 0.950 . S
H1368 C1392 0.950 . S
H1369 C1393 0.951 . S
H1370 C1395 0.951 . S
H1371 C1397 0.950 . S
H1372 C1398 0.950 . S
H1373 C1400 0.950 . S
H1374 C1403 0.950 . S
H1375 C1404 0.950 . S
H1376 C1406 0.950 1_545 S
H1377 C1407 0.950 1_545 S
C1378 H1360 0.951 . S
C1378 C1379 1.366 1_565 S
C1378 C1380 1.388 . S
C1379 C1378 1.366 1_545 S
C1379 C1383 1.385 . S
C1380 H1361 0.951 . S
C1380 C1378 1.388 . S
C1380 C1381 1.366 . S
C1381 C1380 1.366 . S
C1381 C1382 1.414 1_565 S
C1381 C1384 1.499 . S
C1382 H1362 0.950 1_556 S
C1382 C1381 1.414 1_545 S
C1382 C1383 1.374 . S
C1383 H1363 0.950 . S
C1383 C1379 1.385 . S
C1383 C1382 1.374 . S
C1384 C1381 1.499 . S
C1384 C1385 1.373 1_556 S
C1384 C1386 1.389 . S
C1385 H1364 0.950 . S
C1385 C1384 1.373 1_554 S
C1385 C1401 1.377 . S
C1386 C1384 1.389 . S
C1386 C1387 1.524 . S
C1386 C1400 1.377 . S
C1387 C1386 1.524 . S
C1387 C1388 1.397 . S
C1387 C1392 1.363 . S
C1388 H1365 0.950 . S
C1388 C1387 1.397 . S
C1388 C1389 1.334 . S
C1389 H1366 0.950 . S
C1389 C1388 1.334 . S
C1389 C1390 1.287 . S
C1390 C1389 1.287 . S
C1390 C1391 1.524 . S
C1390 H1409 0.913 . S
C1391 H1367 0.950 . S
C1391 C1390 1.524 . S
C1391 C1392 1.415 . S
C1392 H1368 0.950 . S
C1392 C1387 1.363 . S
C1392 C1391 1.415 . S
C1393 H1369 0.951 . S
C1393 C1394 1.366 . S
C1393 C1395 1.388 . S
C1394 C1393 1.366 . S
C1394 C1398 1.385 . S
C1395 H1370 0.951 . S
C1395 C1393 1.388 . S
C1395 C1396 1.366 . S
C1396 C1395 1.366 . S
C1396 C1397 1.414 . S
C1396 C1399 1.499 . S
C1397 H1371 0.950 . S
C1397 C1396 1.414 . S
C1397 C1398 1.374 . S
C1398 H1372 0.950 . S
C1398 C1394 1.385 . S
C1398 C1397 1.374 . S
C1399 C1396 1.499 . S
C1399 C1400 1.373 1_554 S
C1399 C1401 1.389 . S
C1400 H1373 0.950 . S
C1400 C1386 1.377 . S
C1400 C1399 1.373 1_556 S
C1401 C1385 1.377 . S
C1401 C1399 1.389 . S
C1401 C1402 1.524 . S
C1402 C1401 1.524 . S
C1402 C1403 1.397 . S
C1402 C1407 1.363 . S
C1403 H1374 0.950 . S
C1403 C1402 1.397 . S
C1403 C1404 1.334 . S
C1404 H1375 0.950 . S
C1404 C1403 1.334 . S
C1404 C1405 1.287 . S
C1405 C1404 1.287 . S
C1405 C1406 1.524 . S
C1405 H1408 0.999 . S
C1406 H1376 0.950 1_565 S
C1406 C1405 1.524 . S
C1406 C1407 1.415 . S
C1407 H1377 0.950 1_565 S
C1407 C1402 1.363 . S
C1407 C1406 1.415 . S
H1408 C1405 0.999 . S
H1409 C1390 0.913 . S
H1410 C1428 0.951 . S
H1411 C1430 0.951 . S
H1412 C1432 0.950 . S
H1413 C1433 0.950 . S
H1414 C1435 0.950 . S
H1415 C1438 0.950 . S
H1416 C1439 0.950 . S
H1417 C1441 0.950 . S
H1418 C1442 0.950 . S
H1419 C1443 0.951 . S
H1420 C1445 0.951 . S
H1421 C1447 0.950 . S
H1422 C1448 0.950 . S
H1423 C1450 0.950 . S
H1424 C1453 0.950 . S
H1425 C1454 0.950 . S
H1426 C1456 0.950 . S
H1427 C1457 0.950 . S
C1428 H1410 0.951 . S
C1428 C1429 1.366 . S
C1428 C1430 1.388 . S
C1429 C1428 1.366 . S
C1429 C1433 1.385 . S
C1430 H1411 0.951 . S
C1430 C1428 1.388 . S
C1430 C1431 1.366 . S
C1431 C1430 1.366 . S
C1431 C1432 1.414 . S
C1431 C1434 1.499 . S
C1432 H1412 0.950 . S
C1432 C1431 1.414 . S
C1432 C1433 1.374 . S
C1433 H1413 0.950 . S
C1433 C1429 1.385 . S
C1433 C1432 1.374 . S
C1434 C1431 1.499 . S
C1434 C1435 1.373 . S
C1434 C1436 1.389 . S
C1435 H1414 0.950 . S
C1435 C1434 1.373 . S
C1435 C1451 1.377 . S
C1436 C1434 1.389 . S
C1436 C1437 1.524 . S
C1436 C1450 1.377 . S
C1437 C1436 1.524 . S
C1437 C1438 1.397 . S
C1437 C1442 1.363 . S
C1438 H1415 0.950 . S
C1438 C1437 1.397 . S
C1438 C1439 1.334 . S
C1439 H1416 0.950 . S
C1439 C1438 1.334 . S
C1439 C1440 1.287 . S
C1440 C1439 1.287 . S
C1440 C1441 1.524 . S
C1440 H1459 0.913 . S
C1441 H1417 0.950 . S
C1441 C1440 1.524 . S
C1441 C1442 1.415 . S
C1442 H1418 0.950 . S
C1442 C1437 1.363 . S
C1442 C1441 1.415 . S
C1443 H1419 0.951 . S
C1443 C1444 1.366 . S
C1443 C1445 1.388 . S
C1444 C1443 1.366 . S
C1444 C1448 1.385 . S
C1445 H1420 0.951 . S
C1445 C1443 1.388 . S
C1445 C1446 1.366 . S
C1446 C1445 1.366 . S
C1446 C1447 1.414 . S
C1446 C1449 1.499 . S
C1447 H1421 0.950 . S
C1447 C1446 1.414 . S
C1447 C1448 1.374 . S
C1448 H1422 0.950 . S
C1448 C1444 1.385 . S
C1448 C1447 1.374 . S
C1449 C1446 1.499 . S
C1449 C1450 1.373 . S
C1449 C1451 1.389 . S
C1450 H1423 0.950 . S
C1450 C1436 1.377 . S
C1450 C1449 1.373 . S
C1451 C1435 1.377 . S
C1451 C1449 1.389 . S
C1451 C1452 1.524 . S
C1452 C1451 1.524 . S
C1452 C1453 1.397 . S
C1452 C1457 1.363 . S
C1453 H1424 0.950 . S
C1453 C1452 1.397 . S
C1453 C1454 1.334 . S
C1454 H1425 0.950 . S
C1454 C1453 1.334 . S
C1454 C1455 1.287 . S
C1455 C1454 1.287 . S
C1455 C1456 1.524 . S
C1455 H1458 0.999 . S
C1456 H1426 0.950 . S
C1456 C1455 1.524 . S
C1456 C1457 1.415 . S
C1457 H1427 0.950 . S
C1457 C1452 1.363 . S
C1457 C1456 1.415 . S
H1458 C1455 0.999 . S
H1459 C1440 0.913 . S
H1460 C1478 0.951 . S
H1461 C1480 0.951 . S
H1462 C1482 0.950 . S
H1463 C1483 0.972 . S
H1464 C1485 0.950 . S
H1465 C1488 0.950 . S
H1466 C1489 0.950 . S
H1467 C1491 0.950 . S
H1468 C1492 0.950 . S
H1469 C1493 0.951 . S
H1470 C1495 0.951 . S
H1471 C1497 0.950 . S
H1472 C1498 0.950 . S
H1473 C1500 0.950 . S
H1474 C1503 0.950 . S
H1475 C1504 0.950 . S
H1476 C1506 0.950 . S
H1477 C1507 0.950 . S
C1478 H1460 0.951 . S
C1478 C1479 1.330 1_545 S
C1478 C1480 1.388 . S
C1479 C1478 1.330 1_565 S
C1479 C1483 1.388 . S
C1480 H1461 0.951 . S
C1480 C1478 1.388 . S
C1480 C1481 1.366 . S
C1481 C1480 1.366 . S
C1481 C1482 1.414 . S
C1481 C1484 1.499 . S
C1482 H1462 0.950 . S
C1482 C1481 1.414 . S
C1482 C1483 1.358 1_545 S
C1483 H1463 0.972 . S
C1483 C1479 1.388 . S
C1483 C1482 1.358 1_565 S
C1484 C1481 1.499 . S
C1484 C1485 1.373 . S
C1484 C1486 1.389 . S
C1485 H1464 0.950 . S
C1485 C1484 1.373 . S
C1485 C1501 1.377 . S
C1486 C1484 1.389 . S
C1486 C1487 1.524 . S
C1486 C1500 1.377 . S
C1487 C1486 1.524 . S
C1487 C1488 1.397 . S
C1487 C1492 1.363 . S
C1488 H1465 0.950 . S
C1488 C1487 1.397 . S
C1488 C1489 1.334 1_545 S
C1489 H1466 0.950 . S
C1489 C1488 1.334 1_565 S
C1489 C1490 1.287 1_565 S
C1490 C1489 1.287 1_545 S
C1490 C1491 1.524 . S
C1490 H1509 0.913 1_545 S
C1491 H1467 0.950 . S
C1491 C1490 1.524 . S
C1491 C1492 1.415 . S
C1492 H1468 0.950 . S
C1492 C1487 1.363 . S
C1492 C1491 1.415 . S
C1493 H1469 0.951 . S
C1493 C1494 1.366 . S
C1493 C1495 1.388 . S
C1494 C1493 1.366 . S
C1494 C1498 1.385 . S
C1495 H1470 0.951 . S
C1495 C1493 1.388 . S
C1495 C1496 1.366 . S
C1496 C1495 1.366 . S
C1496 C1497 1.414 . S
C1496 C1499 1.499 . S
C1497 H1471 0.950 . S
C1497 C1496 1.414 . S
C1497 C1498 1.374 . S
C1498 H1472 0.950 . S
C1498 C1494 1.385 . S
C1498 C1497 1.374 . S
C1499 C1496 1.499 . S
C1499 C1500 1.373 . S
C1499 C1501 1.389 . S
C1500 H1473 0.950 . S
C1500 C1486 1.377 . S
C1500 C1499 1.373 . S
C1501 C1485 1.377 . S
C1501 C1499 1.389 . S
C1501 C1502 1.524 . S
C1502 C1501 1.524 . S
C1502 C1503 1.397 . S
C1502 C1507 1.363 . S
C1503 H1474 0.950 . S
C1503 C1502 1.397 . S
C1503 C1504 1.334 . S
C1504 H1475 0.950 . S
C1504 C1503 1.334 . S
C1504 C1505 1.287 . S
C1505 C1504 1.287 . S
C1505 C1506 1.524 . S
C1505 H1508 0.999 . S
C1506 H1476 0.950 . S
C1506 C1505 1.524 . S
C1506 C1507 1.415 . S
C1507 H1477 0.950 . S
C1507 C1502 1.363 . S
C1507 C1506 1.415 . S
H1508 C1505 0.999 . S
H1509 C1490 0.913 1_565 S
H1510 C1528 0.951 . S
H1511 C1530 0.951 . S
H1512 C1532 0.950 . S
H1513 C1533 0.950 . S
H1514 C1535 0.950 . S
H1515 C1538 0.950 . S
H1516 C1539 0.950 . S
H1517 C1541 0.950 . S
H1518 C1542 0.950 . S
H1519 C1543 0.951 . S
H1520 C1545 0.951 . S
H1521 C1547 0.950 . S
H1522 C1548 0.950 . S
H1523 C1550 0.950 . S
H1524 C1553 0.950 . S
H1525 C1554 0.950 . S
H1526 C1556 0.950 . S
H1527 C1557 0.950 . S
C1528 H1510 0.951 . S
C1528 C1529 1.366 . S
C1528 C1530 1.388 . S
C1529 C1528 1.366 . S
C1529 C1533 1.385 . S
C1530 H1511 0.951 . S
C1530 C1528 1.388 . S
C1530 C1531 1.366 . S
C1531 C1530 1.366 . S
C1531 C1532 1.414 . S
C1531 C1534 1.499 . S
C1532 H1512 0.950 . S
C1532 C1531 1.414 . S
C1532 C1533 1.374 . S
C1533 H1513 0.950 . S
C1533 C1529 1.385 . S
C1533 C1532 1.374 . S
C1534 C1531 1.499 . S
C1534 C1535 1.373 . S
C1534 C1536 1.389 . S
C1535 H1514 0.950 . S
C1535 C1534 1.373 . S
C1535 C1551 1.377 . S
C1536 C1534 1.389 . S
C1536 C1537 1.524 . S
C1536 C1550 1.377 . S
C1537 C1536 1.524 . S
C1537 C1538 1.397 . S
C1537 C1542 1.363 . S
C1538 H1515 0.950 . S
C1538 C1537 1.397 . S
C1538 C1539 1.334 . S
C1539 H1516 0.950 . S
C1539 C1538 1.334 . S
C1539 C1540 1.287 . S
C1540 C1539 1.287 . S
C1540 C1541 1.524 . S
C1540 H1559 0.913 . S
C1541 H1517 0.950 . S
C1541 C1540 1.524 . S
C1541 C1542 1.415 . S
C1542 H1518 0.950 . S
C1542 C1537 1.363 . S
C1542 C1541 1.415 . S
C1543 H1519 0.951 . S
C1543 C1544 1.366 . S
C1543 C1545 1.388 . S
C1544 C1543 1.366 . S
C1544 C1548 1.385 . S
C1545 H1520 0.951 . S
C1545 C1543 1.388 . S
C1545 C1546 1.366 . S
C1546 C1545 1.366 . S
C1546 C1547 1.414 . S
C1546 C1549 1.499 . S
C1547 H1521 0.950 . S
C1547 C1546 1.414 . S
C1547 C1548 1.374 . S
C1548 H1522 0.950 . S
C1548 C1544 1.385 . S
C1548 C1547 1.374 . S
C1549 C1546 1.499 . S
C1549 C1550 1.373 . S
C1549 C1551 1.389 . S
C1550 H1523 0.950 . S
C1550 C1536 1.377 . S
C1550 C1549 1.373 . S
C1551 C1535 1.377 . S
C1551 C1549 1.389 . S
C1551 C1552 1.524 . S
C1552 C1551 1.524 . S
C1552 C1553 1.397 . S
C1552 C1557 1.363 . S
C1553 H1524 0.950 . S
C1553 C1552 1.397 . S
C1553 C1554 1.334 . S
C1554 H1525 0.950 . S
C1554 C1553 1.334 . S
C1554 C1555 1.287 . S
C1555 C1554 1.287 . S
C1555 C1556 1.524 . S
C1555 H1558 0.999 . S
C1556 H1526 0.950 . S
C1556 C1555 1.524 . S
C1556 C1557 1.415 . S
C1557 H1527 0.950 . S
C1557 C1552 1.363 . S
C1557 C1556 1.415 . S
H1558 C1555 0.999 . S
H1559 C1540 0.913 . S
H1560 C1578 0.951 . S
H1561 C1580 0.951 . S
H1562 C1582 0.950 . S
H1563 C1583 0.905 1_565 S
H1564 C1585 0.950 . S
H1565 C1588 0.950 . S
H1566 C1589 0.950 . S
H1567 C1591 0.950 . S
H1568 C1592 0.950 . S
H1569 C1593 0.951 . S
H1570 C1595 0.951 . S
H1571 C1597 0.950 . S
H1572 C1598 0.950 . S
H1573 C1600 0.950 . S
H1574 C1603 0.950 . S
H1575 C1604 0.950 . S
H1576 C1606 0.950 . S
H1577 C1607 0.950 . S
C1578 H1560 0.951 . S
C1578 C1579 1.393 . S
C1578 C1580 1.388 . S
C1579 C1578 1.393 . S
C1579 C1583 1.383 . S
C1580 H1561 0.951 . S
C1580 C1578 1.388 . S
C1580 C1581 1.366 . S
C1581 C1580 1.366 . S
C1581 C1582 1.414 . S
C1581 C1584 1.499 . S
C1582 H1562 0.950 . S
C1582 C1581 1.414 . S
C1582 C1583 1.423 . S
C1583 H1563 0.905 1_545 S
C1583 C1579 1.383 . S
C1583 C1582 1.423 . S
C1584 C1581 1.499 . S
C1584 C1585 1.373 . S
C1584 C1586 1.389 . S
C1585 H1564 0.950 . S
C1585 C1584 1.373 . S
C1585 C1601 1.377 . S
C1586 C1584 1.389 . S
C1586 C1587 1.524 . S
C1586 C1600 1.377 . S
C1587 C1586 1.524 . S
C1587 C1588 1.397 . S
C1587 C1592 1.363 . S
C1588 H1565 0.950 . S
C1588 C1587 1.397 . S
C1588 C1589 1.334 . S
C1589 H1566 0.950 . S
C1589 C1588 1.334 . S
C1589 C1590 1.287 . S
C1590 C1589 1.287 . S
C1590 C1591 1.524 . S
C1590 H1609 0.913 . S
C1591 H1567 0.950 . S
C1591 C1590 1.524 . S
C1591 C1592 1.415 . S
C1592 H1568 0.950 . S
C1592 C1587 1.363 . S
C1592 C1591 1.415 . S
C1593 H1569 0.951 . S
C1593 C1594 1.366 . S
C1593 C1595 1.388 . S
C1594 C1593 1.366 . S
C1594 C1598 1.385 . S
C1595 H1570 0.951 . S
C1595 C1593 1.388 . S
C1595 C1596 1.366 . S
C1596 C1595 1.366 . S
C1596 C1597 1.414 . S
C1596 C1599 1.499 . S
C1597 H1571 0.950 . S
C1597 C1596 1.414 . S
C1597 C1598 1.374 . S
C1598 H1572 0.950 . S
C1598 C1594 1.385 . S
C1598 C1597 1.374 . S
C1599 C1596 1.499 . S
C1599 C1600 1.373 . S
C1599 C1601 1.389 . S
C1600 H1573 0.950 . S
C1600 C1586 1.377 . S
C1600 C1599 1.373 . S
C1601 C1585 1.377 . S
C1601 C1599 1.389 . S
C1601 C1602 1.524 . S
C1602 C1601 1.524 . S
C1602 C1603 1.397 . S
C1602 C1607 1.363 . S
C1603 H1574 0.950 . S
C1603 C1602 1.397 . S
C1603 C1604 1.334 . S
C1604 H1575 0.950 . S
C1604 C1603 1.334 . S
C1604 C1605 1.287 . S
C1605 C1604 1.287 . S
C1605 C1606 1.524 . S
C1605 H1608 0.999 . S
C1606 H1576 0.950 . S
C1606 C1605 1.524 . S
C1606 C1607 1.415 . S
C1607 H1577 0.950 . S
C1607 C1602 1.363 . S
C1607 C1606 1.415 . S
H1608 C1605 0.999 . S
H1609 C1590 0.913 . S
H1610 C1628 0.951 . S
H1611 C1630 0.951 . S
H1612 C1632 0.950 . S
H1613 C1633 0.950 . S
H1614 C1635 0.950 . S
H1615 C1638 0.950 . S
H1616 C1639 0.950 . S
H1617 C1641 0.950 . S
H1618 C1642 0.950 . S
H1619 C1643 0.951 . S
H1620 C1645 0.951 . S
H1621 C1647 0.950 . S
H1622 C1648 0.950 . S
H1623 C1650 0.950 . S
H1624 C1653 0.950 . S
H1625 C1654 0.950 . S
H1626 C1656 0.950 . S
H1627 C1657 0.950 . S
C1628 H1610 0.951 . S
C1628 C1629 1.366 . S
C1628 C1630 1.388 . S
C1629 C1628 1.366 . S
C1629 C1633 1.385 . S
C1630 H1611 0.951 . S
C1630 C1628 1.388 . S
C1630 C1631 1.366 . S
C1631 C1630 1.366 . S
C1631 C1632 1.414 . S
C1631 C1634 1.499 . S
C1632 H1612 0.950 . S
C1632 C1631 1.414 . S
C1632 C1633 1.374 . S
C1633 H1613 0.950 . S
C1633 C1629 1.385 . S
C1633 C1632 1.374 . S
C1634 C1631 1.499 . S
C1634 C1635 1.373 . S
C1634 C1636 1.389 . S
C1635 H1614 0.950 . S
C1635 C1634 1.373 . S
C1635 C1651 1.377 . S
C1636 C1634 1.389 . S
C1636 C1637 1.524 . S
C1636 C1650 1.377 . S
C1637 C1636 1.524 . S
C1637 C1638 1.397 . S
C1637 C1642 1.363 . S
C1638 H1615 0.950 . S
C1638 C1637 1.397 . S
C1638 C1639 1.334 . S
C1639 H1616 0.950 . S
C1639 C1638 1.334 . S
C1639 C1640 1.287 . S
C1640 C1639 1.287 . S
C1640 C1641 1.524 . S
C1640 H1659 0.913 . S
C1641 H1617 0.950 . S
C1641 C1640 1.524 . S
C1641 C1642 1.415 . S
C1642 H1618 0.950 . S
C1642 C1637 1.363 . S
C1642 C1641 1.415 . S
C1643 H1619 0.951 . S
C1643 C1644 1.366 . S
C1643 C1645 1.388 . S
C1644 C1643 1.366 . S
C1644 C1648 1.385 . S
C1645 H1620 0.951 . S
C1645 C1643 1.388 . S
C1645 C1646 1.366 . S
C1646 C1645 1.366 . S
C1646 C1647 1.414 . S
C1646 C1649 1.499 . S
C1647 H1621 0.950 . S
C1647 C1646 1.414 . S
C1647 C1648 1.374 . S
C1648 H1622 0.950 . S
C1648 C1644 1.385 . S
C1648 C1647 1.374 . S
C1649 C1646 1.499 . S
C1649 C1650 1.373 . S
C1649 C1651 1.389 . S
C1650 H1623 0.950 . S
C1650 C1636 1.377 . S
C1650 C1649 1.373 . S
C1651 C1635 1.377 . S
C1651 C1649 1.389 . S
C1651 C1652 1.524 . S
C1652 C1651 1.524 . S
C1652 C1653 1.397 . S
C1652 C1657 1.363 . S
C1653 H1624 0.950 . S
C1653 C1652 1.397 . S
C1653 C1654 1.334 . S
C1654 H1625 0.950 . S
C1654 C1653 1.334 . S
C1654 C1655 1.287 . S
C1655 C1654 1.287 . S
C1655 C1656 1.524 . S
C1655 H1658 0.999 . S
C1656 H1626 0.950 . S
C1656 C1655 1.524 . S
C1656 C1657 1.415 . S
C1657 H1627 0.950 . S
C1657 C1652 1.363 . S
C1657 C1656 1.415 . S
H1658 C1655 0.999 . S
H1659 C1640 0.913 . S
H1660 C1678 0.951 . S
H1661 C1680 0.951 . S
H1662 C1682 0.950 . S
H1663 C1683 0.950 . S
H1664 C1685 0.950 . S
H1665 C1688 0.950 . S
H1666 C1689 0.950 . S
H1667 C1691 0.950 . S
H1668 C1692 0.950 . S
H1669 C1693 0.951 . S
H1670 C1695 0.951 . S
H1671 C1697 0.950 . S
H1672 C1698 0.950 . S
H1673 C1700 0.950 . S
H1674 C1703 0.950 . S
H1675 C1704 0.950 . S
H1676 C1706 0.950 . S
H1677 C1707 0.950 . S
C1678 H1660 0.951 . S
C1678 C1679 1.366 . S
C1678 C1680 1.388 . S
C1679 C1678 1.366 . S
C1679 C1683 1.385 . S
C1680 H1661 0.951 . S
C1680 C1678 1.388 . S
C1680 C1681 1.366 . S
C1681 C1680 1.366 . S
C1681 C1682 1.414 . S
C1681 C1684 1.499 . S
C1682 H1662 0.950 . S
C1682 C1681 1.414 . S
C1682 C1683 1.374 . S
C1683 H1663 0.950 . S
C1683 C1679 1.385 . S
C1683 C1682 1.374 . S
C1684 C1681 1.499 . S
C1684 C1685 1.373 . S
C1684 C1686 1.389 . S
C1685 H1664 0.950 . S
C1685 C1684 1.373 . S
C1685 C1701 1.377 . S
C1686 C1684 1.389 . S
C1686 C1687 1.524 . S
C1686 C1700 1.377 . S
C1687 C1686 1.524 . S
C1687 C1688 1.397 . S
C1687 C1692 1.363 . S
C1688 H1665 0.950 . S
C1688 C1687 1.397 . S
C1688 C1689 1.334 . S
C1689 H1666 0.950 . S
C1689 C1688 1.334 . S
C1689 C1690 1.287 . S
C1690 C1689 1.287 . S
C1690 C1691 1.524 . S
C1690 H1709 0.913 . S
C1691 H1667 0.950 . S
C1691 C1690 1.524 . S
C1691 C1692 1.415 . S
C1692 H1668 0.950 . S
C1692 C1687 1.363 . S
C1692 C1691 1.415 . S
C1693 H1669 0.951 . S
C1693 C1694 1.366 . S
C1693 C1695 1.388 . S
C1694 C1693 1.366 . S
C1694 C1698 1.385 . S
C1695 H1670 0.951 . S
C1695 C1693 1.388 . S
C1695 C1696 1.366 . S
C1696 C1695 1.366 . S
C1696 C1697 1.414 . S
C1696 C1699 1.499 . S
C1697 H1671 0.950 . S
C1697 C1696 1.414 . S
C1697 C1698 1.374 . S
C1698 H1672 0.950 . S
C1698 C1694 1.385 . S
C1698 C1697 1.374 . S
C1699 C1696 1.499 . S
C1699 C1700 1.373 . S
C1699 C1701 1.389 . S
C1700 H1673 0.950 . S
C1700 C1686 1.377 . S
C1700 C1699 1.373 . S
C1701 C1685 1.377 . S
C1701 C1699 1.389 . S
C1701 C1702 1.524 . S
C1702 C1701 1.524 . S
C1702 C1703 1.397 . S
C1702 C1707 1.363 . S
C1703 H1674 0.950 . S
C1703 C1702 1.397 . S
C1703 C1704 1.334 . S
C1704 H1675 0.950 . S
C1704 C1703 1.334 . S
C1704 C1705 1.287 . S
C1705 C1704 1.287 . S
C1705 C1706 1.524 . S
C1705 H1708 0.999 . S
C1706 H1676 0.950 . S
C1706 C1705 1.524 . S
C1706 C1707 1.415 . S
C1707 H1677 0.950 . S
C1707 C1702 1.363 . S
C1707 C1706 1.415 . S
H1708 C1705 0.999 . S
H1709 C1690 0.913 . S
H1710 C1728 0.951 . S
H1711 C1730 0.951 . S
H1712 C1732 0.950 . S
H1713 C1733 0.950 . S
H1714 C1735 0.950 . S
H1715 C1738 0.950 . S
H1716 C1739 0.950 . S
H1717 C1741 0.950 . S
H1718 C1742 0.950 . S
H1719 C1743 0.951 . S
H1720 C1745 0.951 . S
H1721 C1747 0.950 . S
H1722 C1748 0.950 . S
H1723 C1750 0.950 . S
H1724 C1753 0.950 . S
H1725 C1754 0.950 . S
H1726 C1756 0.950 . S
H1727 C1757 0.950 . S
C1728 H1710 0.951 . S
C1728 C1729 1.366 . S
C1728 C1730 1.388 . S
C1729 C1728 1.366 . S
C1729 C1733 1.385 . S
C1730 H1711 0.951 . S
C1730 C1728 1.388 . S
C1730 C1731 1.366 . S
C1731 C1730 1.366 . S
C1731 C1732 1.414 . S
C1731 C1734 1.499 . S
C1732 H1712 0.950 . S
C1732 C1731 1.414 . S
C1732 C1733 1.374 . S
C1733 H1713 0.950 . S
C1733 C1729 1.385 . S
C1733 C1732 1.374 . S
C1734 C1731 1.499 . S
C1734 C1735 1.373 . S
C1734 C1736 1.389 . S
C1735 H1714 0.950 . S
C1735 C1734 1.373 . S
C1735 C1751 1.377 . S
C1736 C1734 1.389 . S
C1736 C1737 1.524 . S
C1736 C1750 1.377 . S
C1737 C1736 1.524 . S
C1737 C1738 1.397 . S
C1737 C1742 1.363 . S
C1738 H1715 0.950 . S
C1738 C1737 1.397 . S
C1738 C1739 1.334 . S
C1739 H1716 0.950 . S
C1739 C1738 1.334 . S
C1739 C1740 1.287 . S
C1740 C1739 1.287 . S
C1740 C1741 1.524 . S
C1740 H1759 0.913 . S
C1741 H1717 0.950 . S
C1741 C1740 1.524 . S
C1741 C1742 1.415 . S
C1742 H1718 0.950 . S
C1742 C1737 1.363 . S
C1742 C1741 1.415 . S
C1743 H1719 0.951 . S
C1743 C1744 1.366 . S
C1743 C1745 1.388 . S
C1744 C1743 1.366 . S
C1744 C1748 1.385 . S
C1745 H1720 0.951 . S
C1745 C1743 1.388 . S
C1745 C1746 1.366 . S
C1746 C1745 1.366 . S
C1746 C1747 1.414 . S
C1746 C1749 1.499 . S
C1747 H1721 0.950 . S
C1747 C1746 1.414 . S
C1747 C1748 1.374 . S
C1748 H1722 0.950 . S
C1748 C1744 1.385 . S
C1748 C1747 1.374 . S
C1749 C1746 1.499 . S
C1749 C1750 1.373 . S
C1749 C1751 1.389 . S
C1750 H1723 0.950 . S
C1750 C1736 1.377 . S
C1750 C1749 1.373 . S
C1751 C1735 1.377 . S
C1751 C1749 1.389 . S
C1751 C1752 1.524 . S
C1752 C1751 1.524 . S
C1752 C1753 1.397 1_545 S
C1752 C1757 1.363 . S
C1753 H1724 0.950 . S
C1753 C1752 1.397 1_565 S
C1753 C1754 1.334 . S
C1754 H1725 0.950 . S
C1754 C1753 1.334 . S
C1754 C1755 1.287 . S
C1755 C1754 1.287 . S
C1755 C1756 1.524 1_565 S
C1755 H1758 0.999 . S
C1756 H1726 0.950 . S
C1756 C1755 1.524 1_545 S
C1756 C1757 1.415 . S
C1757 H1727 0.950 . S
C1757 C1752 1.363 . S
C1757 C1756 1.415 . S
H1758 C1755 0.999 . S
H1759 C1740 0.913 . S
H1760 C1778 0.951 . S
H1761 C1780 0.951 . S
H1762 C1782 0.950 . S
H1763 C1783 0.950 . S
H1764 C1785 0.950 . S
H1765 C1788 0.950 . S
H1766 C1789 0.950 . S
H1767 C1791 0.950 . S
H1768 C1792 0.950 . S
H1769 C1793 0.951 . S
H1770 C1795 0.951 . S
H1771 C1797 0.950 . S
H1772 C1798 0.950 . S
H1773 C1800 0.950 . S
H1774 C1803 0.950 . S
H1775 C1804 0.950 . S
H1776 C1806 0.950 . S
H1777 C1807 0.950 . S
C1778 H1760 0.951 . S
C1778 C1779 1.366 . S
C1778 C1780 1.388 . S
C1779 C1778 1.366 . S
C1779 C1783 1.385 . S
C1780 H1761 0.951 . S
C1780 C1778 1.388 . S
C1780 C1781 1.366 . S
C1781 C1780 1.366 . S
C1781 C1782 1.414 . S
C1781 C1784 1.499 . S
C1782 H1762 0.950 . S
C1782 C1781 1.414 . S
C1782 C1783 1.374 . S
C1783 H1763 0.950 . S
C1783 C1779 1.385 . S
C1783 C1782 1.374 . S
C1784 C1781 1.499 . S
C1784 C1785 1.373 . S
C1784 C1786 1.389 . S
C1785 H1764 0.950 . S
C1785 C1784 1.373 . S
C1785 C1801 1.377 . S
C1786 C1784 1.389 . S
C1786 C1787 1.524 . S
C1786 C1800 1.377 . S
C1787 C1786 1.524 . S
C1787 C1788 1.397 . S
C1787 C1792 1.363 . S
C1788 H1765 0.950 . S
C1788 C1787 1.397 . S
C1788 C1789 1.334 . S
C1789 H1766 0.950 . S
C1789 C1788 1.334 . S
C1789 C1790 1.287 . S
C1790 C1789 1.287 . S
C1790 C1791 1.524 . S
C1790 H1809 0.913 . S
C1791 H1767 0.950 . S
C1791 C1790 1.524 . S
C1791 C1792 1.415 . S
C1792 H1768 0.950 . S
C1792 C1787 1.363 . S
C1792 C1791 1.415 . S
C1793 H1769 0.951 . S
C1793 C1794 1.366 . S
C1793 C1795 1.388 . S
C1794 C1793 1.366 . S
C1794 C1798 1.385 . S
C1795 H1770 0.951 . S
C1795 C1793 1.388 . S
C1795 C1796 1.366 . S
C1796 C1795 1.366 . S
C1796 C1797 1.414 . S
C1796 C1799 1.499 . S
C1797 H1771 0.950 . S
C1797 C1796 1.414 . S
C1797 C1798 1.374 . S
C1798 H1772 0.950 . S
C1798 C1794 1.385 . S
C1798 C1797 1.374 . S
C1799 C1796 1.499 . S
C1799 C1800 1.373 . S
C1799 C1801 1.389 . S
C1800 H1773 0.950 . S
C1800 C1786 1.377 . S
C1800 C1799 1.373 . S
C1801 C1785 1.377 . S
C1801 C1799 1.389 . S
C1801 C1802 1.524 . S
C1802 C1801 1.524 . S
C1802 C1803 1.397 . S
C1802 C1807 1.363 . S
C1803 H1774 0.950 . S
C1803 C1802 1.397 . S
C1803 C1804 1.334 . S
C1804 H1775 0.950 . S
C1804 C1803 1.334 . S
C1804 C1805 1.287 . S
C1805 C1804 1.287 . S
C1805 C1806 1.524 . S
C1805 H1808 0.999 . S
C1806 H1776 0.950 . S
C1806 C1805 1.524 . S
C1806 C1807 1.415 . S
C1807 H1777 0.950 . S
C1807 C1802 1.363 . S
C1807 C1806 1.415 . S
H1808 C1805 0.999 . S
H1809 C1790 0.913 . S
H1810 C1828 0.951 . S
H1811 C1830 0.951 . S
H1812 C1832 0.950 . S
H1813 C1833 0.950 . S
H1814 C1835 0.950 . S
H1815 C1838 0.950 . S
H1816 C1839 0.950 . S
H1817 C1841 0.950 . S
H1818 C1842 0.950 . S
H1819 C1843 0.951 . S
H1820 C1845 0.951 . S
H1821 C1847 0.950 . S
H1822 C1848 0.950 . S
H1823 C1850 0.950 . S
H1824 C1853 0.950 . S
H1825 C1854 0.950 . S
H1826 C1856 0.950 . S
H1827 C1857 0.950 . S
C1828 H1810 0.951 . S
C1828 C1829 1.366 . S
C1828 C1830 1.388 . S
C1829 C1828 1.366 . S
C1829 C1833 1.385 . S
C1830 H1811 0.951 . S
C1830 C1828 1.388 . S
C1830 C1831 1.366 . S
C1831 C1830 1.366 . S
C1831 C1832 1.414 . S
C1831 C1834 1.499 . S
C1832 H1812 0.950 . S
C1832 C1831 1.414 . S
C1832 C1833 1.374 . S
C1833 H1813 0.950 . S
C1833 C1829 1.385 . S
C1833 C1832 1.374 . S
C1834 C1831 1.499 . S
C1834 C1835 1.373 . S
C1834 C1836 1.389 . S
C1835 H1814 0.950 . S
C1835 C1834 1.373 . S
C1835 C1851 1.377 . S
C1836 C1834 1.389 . S
C1836 C1837 1.524 . S
C1836 C1850 1.377 . S
C1837 C1836 1.524 . S
C1837 C1838 1.397 . S
C1837 C1842 1.363 . S
C1838 H1815 0.950 . S
C1838 C1837 1.397 . S
C1838 C1839 1.334 . S
C1839 H1816 0.950 . S
C1839 C1838 1.334 . S
C1839 C1840 1.287 . S
C1840 C1839 1.287 . S
C1840 C1841 1.524 . S
C1840 H1859 0.913 . S
C1841 H1817 0.950 . S
C1841 C1840 1.524 . S
C1841 C1842 1.415 . S
C1842 H1818 0.950 . S
C1842 C1837 1.363 . S
C1842 C1841 1.415 . S
C1843 H1819 0.951 . S
C1843 C1844 1.366 . S
C1843 C1845 1.388 . S
C1844 C1843 1.366 . S
C1844 C1848 1.385 . S
C1845 H1820 0.951 . S
C1845 C1843 1.388 . S
C1845 C1846 1.366 . S
C1846 C1845 1.366 . S
C1846 C1847 1.414 . S
C1846 C1849 1.499 . S
C1847 H1821 0.950 . S
C1847 C1846 1.414 . S
C1847 C1848 1.374 . S
C1848 H1822 0.950 . S
C1848 C1844 1.385 . S
C1848 C1847 1.374 . S
C1849 C1846 1.499 . S
C1849 C1850 1.373 . S
C1849 C1851 1.389 . S
C1850 H1823 0.950 . S
C1850 C1836 1.377 . S
C1850 C1849 1.373 . S
C1851 C1835 1.377 . S
C1851 C1849 1.389 . S
C1851 C1852 1.524 . S
C1852 C1851 1.524 . S
C1852 C1853 1.397 . S
C1852 C1857 1.363 . S
C1853 H1824 0.950 . S
C1853 C1852 1.397 . S
C1853 C1854 1.334 . S
C1854 H1825 0.950 . S
C1854 C1853 1.334 . S
C1854 C1855 1.287 . S
C1855 C1854 1.287 . S
C1855 C1856 1.524 . S
C1855 H1858 0.999 . S
C1856 H1826 0.950 . S
C1856 C1855 1.524 . S
C1856 C1857 1.415 . S
C1857 H1827 0.950 . S
C1857 C1852 1.363 . S
C1857 C1856 1.415 . S
H1858 C1855 0.999 . S
H1859 C1840 0.913 . S
H1860 C1878 0.951 . S
H1861 C1880 0.951 . S
H1862 C1882 0.950 . S
H1863 C1883 0.950 . S
H1864 C1885 0.950 . S
H1865 C1888 0.950 . S
H1866 C1889 0.950 . S
H1867 C1891 0.950 . S
H1868 C1892 0.950 . S
H1869 C1893 0.951 . S
H1870 C1895 0.951 . S
H1871 C1897 0.950 . S
H1872 C1898 0.950 . S
H1873 C1900 0.950 . S
H1874 C1903 0.950 . S
H1875 C1904 0.950 . S
H1876 C1906 0.950 . S
H1877 C1907 0.950 . S
C1878 H1860 0.951 . S
C1878 C1879 1.366 . S
C1878 C1880 1.388 . S
C1879 C1878 1.366 . S
C1879 C1883 1.385 . S
C1880 H1861 0.951 . S
C1880 C1878 1.388 . S
C1880 C1881 1.366 . S
C1881 C1880 1.366 . S
C1881 C1882 1.414 . S
C1881 C1884 1.499 . S
C1882 H1862 0.950 . S
C1882 C1881 1.414 . S
C1882 C1883 1.374 . S
C1883 H1863 0.950 . S
C1883 C1879 1.385 . S
C1883 C1882 1.374 . S
C1884 C1881 1.499 . S
C1884 C1885 1.373 . S
C1884 C1886 1.389 . S
C1885 H1864 0.950 . S
C1885 C1884 1.373 . S
C1885 C1901 1.377 . S
C1886 C1884 1.389 . S
C1886 C1887 1.524 . S
C1886 C1900 1.377 . S
C1887 C1886 1.524 . S
C1887 C1888 1.397 . S
C1887 C1892 1.363 . S
C1888 H1865 0.950 . S
C1888 C1887 1.397 . S
C1888 C1889 1.334 . S
C1889 H1866 0.950 . S
C1889 C1888 1.334 . S
C1889 C1890 1.287 . S
C1890 C1889 1.287 . S
C1890 C1891 1.524 . S
C1890 H1909 0.913 . S
C1891 H1867 0.950 . S
C1891 C1890 1.524 . S
C1891 C1892 1.415 . S
C1892 H1868 0.950 . S
C1892 C1887 1.363 . S
C1892 C1891 1.415 . S
C1893 H1869 0.951 . S
C1893 C1894 1.366 . S
C1893 C1895 1.388 . S
C1894 C1893 1.366 . S
C1894 C1898 1.385 . S
C1895 H1870 0.951 . S
C1895 C1893 1.388 . S
C1895 C1896 1.366 . S
C1896 C1895 1.366 . S
C1896 C1897 1.414 . S
C1896 C1899 1.499 . S
C1897 H1871 0.950 . S
C1897 C1896 1.414 . S
C1897 C1898 1.374 . S
C1898 H1872 0.950 . S
C1898 C1894 1.385 . S
C1898 C1897 1.374 . S
C1899 C1896 1.499 . S
C1899 C1900 1.373 . S
C1899 C1901 1.389 . S
C1900 H1873 0.950 . S
C1900 C1886 1.377 . S
C1900 C1899 1.373 . S
C1901 C1885 1.377 . S
C1901 C1899 1.389 . S
C1901 C1902 1.524 . S
C1902 C1901 1.524 . S
C1902 C1903 1.397 . S
C1902 C1907 1.363 . S
C1903 H1874 0.950 . S
C1903 C1902 1.397 . S
C1903 C1904 1.334 . S
C1904 H1875 0.950 . S
C1904 C1903 1.334 . S
C1904 C1905 1.287 . S
C1905 C1904 1.287 . S
C1905 C1906 1.524 . S
C1905 H1908 0.999 . S
C1906 H1876 0.950 . S
C1906 C1905 1.524 . S
C1906 C1907 1.415 . S
C1907 H1877 0.950 . S
C1907 C1902 1.363 . S
C1907 C1906 1.415 . S
H1908 C1905 0.999 . S
H1909 C1890 0.913 . S
H1910 C1928 0.951 . S
H1911 C1930 0.951 . S
H1912 C1932 0.950 . S
H1913 C1933 0.950 . S
H1914 C1935 0.950 . S
H1915 C1938 0.950 . S
H1916 C1939 0.950 . S
H1917 C1941 0.950 . S
H1918 C1942 0.950 . S
H1919 C1943 0.951 . S
H1920 C1945 0.951 . S
H1921 C1947 0.950 . S
H1922 C1948 0.950 . S
H1923 C1950 0.950 . S
H1924 C1953 0.950 1_545 S
H1925 C1954 0.950 . S
H1926 C1956 0.950 . S
H1927 C1957 0.950 1_455 S
C1928 H1910 0.951 . S
C1928 C1929 1.366 . S
C1928 C1930 1.388 . S
C1929 C1928 1.366 . S
C1929 C1933 1.385 . S
C1930 H1911 0.951 . S
C1930 C1928 1.388 . S
C1930 C1931 1.366 . S
C1931 C1930 1.366 . S
C1931 C1932 1.414 . S
C1931 C1934 1.499 . S
C1932 H1912 0.950 . S
C1932 C1931 1.414 . S
C1932 C1933 1.374 . S
C1933 H1913 0.950 . S
C1933 C1929 1.385 . S
C1933 C1932 1.374 . S
C1934 C1931 1.499 . S
C1934 C1935 1.373 . S
C1934 C1936 1.389 . S
C1935 H1914 0.950 . S
C1935 C1934 1.373 . S
C1935 C1951 1.377 1_455 S
C1936 C1934 1.389 . S
C1936 C1937 1.524 . S
C1936 C1950 1.377 . S
C1937 C1936 1.524 . S
C1937 C1938 1.397 . S
C1937 C1942 1.363 . S
C1938 H1915 0.950 . S
C1938 C1937 1.397 . S
C1938 C1939 1.334 . S
C1939 H1916 0.950 . S
C1939 C1938 1.334 . S
C1939 C1940 1.287 . S
C1940 C1939 1.287 . S
C1940 C1941 1.524 . S
C1940 H1959 0.913 . S
C1941 H1917 0.950 . S
C1941 C1940 1.524 . S
C1941 C1942 1.415 . S
C1942 H1918 0.950 . S
C1942 C1937 1.363 . S
C1942 C1941 1.415 . S
C1943 H1919 0.951 . S
C1943 C1944 1.366 . S
C1943 C1945 1.388 . S
C1944 C1943 1.366 . S
C1944 C1948 1.385 . S
C1945 H1920 0.951 . S
C1945 C1943 1.388 . S
C1945 C1946 1.366 . S
C1946 C1945 1.366 . S
C1946 C1947 1.414 . S
C1946 C1949 1.499 . S
C1947 H1921 0.950 . S
C1947 C1946 1.414 . S
C1947 C1948 1.374 . S
C1948 H1922 0.950 . S
C1948 C1944 1.385 . S
C1948 C1947 1.374 . S
C1949 C1946 1.499 . S
C1949 C1950 1.373 1_655 S
C1949 C1951 1.389 . S
C1950 H1923 0.950 . S
C1950 C1936 1.377 . S
C1950 C1949 1.373 1_455 S
C1951 C1935 1.377 1_655 S
C1951 C1949 1.389 . S
C1951 C1952 1.524 1_545 S
C1952 C1951 1.524 1_565 S
C1952 C1953 1.397 . S
C1952 C1957 1.363 . S
C1953 H1924 0.950 1_565 S
C1953 C1952 1.397 . S
C1953 C1954 1.334 . S
C1954 H1925 0.950 . S
C1954 C1953 1.334 . S
C1954 C1955 1.287 . S
C1955 C1954 1.287 . S
C1955 C1956 1.524 . S
C1955 H1958 0.999 . S
C1956 H1926 0.950 . S
C1956 C1955 1.524 . S
C1956 C1957 1.415 . S
C1957 H1927 0.950 1_655 S
C1957 C1952 1.363 . S
C1957 C1956 1.415 . S
H1958 C1955 0.999 . S
H1959 C1940 0.913 . S
H1960 C1978 0.951 . S
H1961 C1980 0.951 . S
H1962 C1982 0.950 . S
H1963 C1983 0.950 . S
H1964 C1985 0.950 . S
H1965 C1988 0.950 . S
H1966 C1989 0.950 . S
H1967 C1991 0.950 . S
H1968 C1992 0.950 . S
H1969 C1993 0.951 . S
H1970 C1995 0.951 . S
H1971 C1997 0.950 . S
H1972 C1998 0.950 . S
H1973 C2000 0.950 . S
H1974 C2003 0.950 . S
H1975 C2004 0.950 . S
H1976 C2006 0.950 . S
H1977 C2007 0.950 . S
C1978 H1960 0.951 . S
C1978 C1979 1.366 . S
C1978 C1980 1.388 . S
C1979 C1978 1.366 . S
C1979 C1983 1.385 . S
C1980 H1961 0.951 . S
C1980 C1978 1.388 . S
C1980 C1981 1.366 . S
C1981 C1980 1.366 . S
C1981 C1982 1.414 . S
C1981 C1984 1.499 . S
C1982 H1962 0.950 . S
C1982 C1981 1.414 . S
C1982 C1983 1.374 . S
C1983 H1963 0.950 . S
C1983 C1979 1.385 . S
C1983 C1982 1.374 . S
C1984 C1981 1.499 . S
C1984 C1985 1.373 . S
C1984 C1986 1.389 . S
C1985 H1964 0.950 . S
C1985 C1984 1.373 . S
C1985 C2001 1.377 . S
C1986 C1984 1.389 . S
C1986 C1987 1.524 . S
C1986 C2000 1.377 . S
C1987 C1986 1.524 . S
C1987 C1988 1.397 . S
C1987 C1992 1.363 . S
C1988 H1965 0.950 . S
C1988 C1987 1.397 . S
C1988 C1989 1.334 . S
C1989 H1966 0.950 . S
C1989 C1988 1.334 . S
C1989 C1990 1.287 . S
C1990 C1989 1.287 . S
C1990 C1991 1.524 . S
C1990 H2009 0.913 . S
C1991 H1967 0.950 . S
C1991 C1990 1.524 . S
C1991 C1992 1.415 . S
C1992 H1968 0.950 . S
C1992 C1987 1.363 . S
C1992 C1991 1.415 . S
C1993 H1969 0.951 . S
C1993 C1994 1.366 . S
C1993 C1995 1.388 . S
C1994 C1993 1.366 . S
C1994 C1998 1.385 . S
C1995 H1970 0.951 . S
C1995 C1993 1.388 . S
C1995 C1996 1.366 . S
C1996 C1995 1.366 . S
C1996 C1997 1.414 . S
C1996 C1999 1.499 . S
C1997 H1971 0.950 . S
C1997 C1996 1.414 . S
C1997 C1998 1.374 . S
C1998 H1972 0.950 . S
C1998 C1994 1.385 . S
C1998 C1997 1.374 . S
C1999 C1996 1.499 . S
C1999 C2000 1.373 . S
C1999 C2001 1.389 . S
C2000 H1973 0.950 . S
C2000 C1986 1.377 . S
C2000 C1999 1.373 . S
C2001 C1985 1.377 . S
C2001 C1999 1.389 . S
C2001 C2002 1.524 . S
C2002 C2001 1.524 . S
C2002 C2003 1.397 . S
C2002 C2007 1.363 . S
C2003 H1974 0.950 . S
C2003 C2002 1.397 . S
C2003 C2004 1.334 . S
C2004 H1975 0.950 . S
C2004 C2003 1.334 . S
C2004 C2005 1.287 . S
C2005 C2004 1.287 . S
C2005 C2006 1.524 . S
C2005 H2008 0.999 . S
C2006 H1976 0.950 . S
C2006 C2005 1.524 . S
C2006 C2007 1.415 . S
C2007 H1977 0.950 . S
C2007 C2002 1.363 . S
C2007 C2006 1.415 . S
H2008 C2005 0.999 . S
H2009 C1990 0.913 . S
H2010 C2028 0.908 1_655 S
H2011 C2030 0.951 . S
H2012 C2032 0.950 . S
H2013 C2033 0.950 . S
H2014 C2035 0.950 . S
H2015 C2038 0.950 . S
H2016 C2039 0.950 . S
H2017 C2041 0.950 . S
H2018 C2042 0.950 . S
H2019 C2043 0.951 . S
H2020 C2045 0.951 . S
H2021 C2047 0.950 . S
H2022 C2048 0.950 . S
H2023 C2050 0.950 . S
H2024 C2053 0.950 . S
H2025 C2054 0.950 . S
H2026 C2056 0.950 . S
H2027 C2057 0.950 . S
C2028 H2010 0.908 1_455 S
C2028 C2029 1.366 . S
C2028 C2030 1.388 . S
C2029 C2028 1.366 . S
C2029 C2033 1.385 . S
C2030 H2011 0.951 . S
C2030 C2028 1.388 . S
C2030 C2031 1.366 . S
C2031 C2030 1.366 . S
C2031 C2032 1.414 . S
C2031 C2034 1.499 . S
C2032 H2012 0.950 . S
C2032 C2031 1.414 . S
C2032 C2033 1.374 . S
C2033 H2013 0.950 . S
C2033 C2029 1.385 . S
C2033 C2032 1.374 . S
C2034 C2031 1.499 . S
C2034 C2035 1.373 . S
C2034 C2036 1.389 . S
C2035 H2014 0.950 . S
C2035 C2034 1.373 . S
C2035 C2051 1.377 . S
C2036 C2034 1.389 . S
C2036 C2037 1.524 . S
C2036 C2050 1.377 . S
C2037 C2036 1.524 . S
C2037 C2038 1.397 . S
C2037 C2042 1.363 . S
C2038 H2015 0.950 . S
C2038 C2037 1.397 . S
C2038 C2039 1.334 . S
C2039 H2016 0.950 . S
C2039 C2038 1.334 . S
C2039 C2040 1.287 . S
C2040 C2039 1.287 . S
C2040 C2041 1.524 . S
C2040 H2059 0.913 . S
C2041 H2017 0.950 . S
C2041 C2040 1.524 . S
C2041 C2042 1.415 . S
C2042 H2018 0.950 . S
C2042 C2037 1.363 . S
C2042 C2041 1.415 . S
C2043 H2019 0.951 . S
C2043 C2044 1.366 . S
C2043 C2045 1.388 . S
C2044 C2043 1.366 . S
C2044 C2048 1.385 . S
C2045 H2020 0.951 . S
C2045 C2043 1.388 . S
C2045 C2046 1.366 . S
C2046 C2045 1.366 . S
C2046 C2047 1.414 . S
C2046 C2049 1.499 . S
C2047 H2021 0.950 . S
C2047 C2046 1.414 . S
C2047 C2048 1.374 . S
C2048 H2022 0.950 . S
C2048 C2044 1.385 . S
C2048 C2047 1.374 . S
C2049 C2046 1.499 . S
C2049 C2050 1.373 . S
C2049 C2051 1.389 . S
C2050 H2023 0.950 . S
C2050 C2036 1.377 . S
C2050 C2049 1.373 . S
C2051 C2035 1.377 . S
C2051 C2049 1.389 . S
C2051 C2052 1.524 . S
C2052 C2051 1.524 . S
C2052 C2053 1.397 . S
C2052 C2057 1.363 . S
C2053 H2024 0.950 . S
C2053 C2052 1.397 . S
C2053 C2054 1.334 . S
C2054 H2025 0.950 . S
C2054 C2053 1.334 . S
C2054 C2055 1.287 . S
C2055 C2054 1.287 . S
C2055 C2056 1.524 . S
C2055 H2058 0.999 . S
C2056 H2026 0.950 . S
C2056 C2055 1.524 . S
C2056 C2057 1.415 . S
C2057 H2027 0.950 . S
C2057 C2052 1.363 . S
C2057 C2056 1.415 . S
H2058 C2055 0.999 . S
H2059 C2040 0.913 . S
H2060 C2078 0.951 . S
H2061 C2080 0.951 . S
H2062 C2082 0.950 . S
H2063 C2083 0.950 . S
H2064 C2085 0.950 . S
H2065 C2088 0.950 . S
H2066 C2089 0.950 . S
H2067 C2091 0.950 . S
H2068 C2092 0.950 . S
H2069 C2093 0.951 . S
H2070 C2095 0.951 . S
H2071 C2097 0.950 . S
H2072 C2098 0.950 . S
H2073 C2100 0.950 . S
H2074 C2103 0.950 . S
H2075 C2104 0.950 . S
H2076 C2106 0.950 . S
H2077 C2107 0.950 . S
C2078 H2060 0.951 . S
C2078 C2079 1.366 . S
C2078 C2080 1.388 . S
C2079 C2078 1.366 . S
C2079 C2083 1.385 . S
C2080 H2061 0.951 . S
C2080 C2078 1.388 . S
C2080 C2081 1.366 . S
C2081 C2080 1.366 . S
C2081 C2082 1.414 . S
C2081 C2084 1.499 . S
C2082 H2062 0.950 . S
C2082 C2081 1.414 . S
C2082 C2083 1.374 . S
C2083 H2063 0.950 . S
C2083 C2079 1.385 . S
C2083 C2082 1.374 . S
C2084 C2081 1.499 . S
C2084 C2085 1.373 . S
C2084 C2086 1.389 . S
C2085 H2064 0.950 . S
C2085 C2084 1.373 . S
C2085 C2101 1.377 . S
C2086 C2084 1.389 . S
C2086 C2087 1.524 . S
C2086 C2100 1.377 . S
C2087 C2086 1.524 . S
C2087 C2088 1.397 . S
C2087 C2092 1.363 . S
C2088 H2065 0.950 . S
C2088 C2087 1.397 . S
C2088 C2089 1.334 . S
C2089 H2066 0.950 . S
C2089 C2088 1.334 . S
C2089 C2090 1.287 . S
C2090 C2089 1.287 . S
C2090 C2091 1.524 . S
C2090 H2109 0.913 . S
C2091 H2067 0.950 . S
C2091 C2090 1.524 . S
C2091 C2092 1.415 . S
C2092 H2068 0.950 . S
C2092 C2087 1.363 . S
C2092 C2091 1.415 . S
C2093 H2069 0.951 . S
C2093 C2094 1.366 . S
C2093 C2095 1.388 . S
C2094 C2093 1.366 . S
C2094 C2098 1.385 . S
C2095 H2070 0.951 . S
C2095 C2093 1.388 . S
C2095 C2096 1.366 . S
C2096 C2095 1.366 . S
C2096 C2097 1.414 . S
C2096 C2099 1.499 . S
C2097 H2071 0.950 . S
C2097 C2096 1.414 . S
C2097 C2098 1.374 . S
C2098 H2072 0.950 . S
C2098 C2094 1.385 . S
C2098 C2097 1.374 . S
C2099 C2096 1.499 . S
C2099 C2100 1.373 . S
C2099 C2101 1.389 . S
C2100 H2073 0.950 . S
C2100 C2086 1.377 . S
C2100 C2099 1.373 . S
C2101 C2085 1.377 . S
C2101 C2099 1.389 . S
C2101 C2102 1.524 . S
C2102 C2101 1.524 . S
C2102 C2103 1.397 . S
C2102 C2107 1.363 . S
C2103 H2074 0.950 . S
C2103 C2102 1.397 . S
C2103 C2104 1.334 . S
C2104 H2075 0.950 . S
C2104 C2103 1.334 . S
C2104 C2105 1.287 . S
C2105 C2104 1.287 . S
C2105 C2106 1.524 . S
C2105 H2108 0.999 . S
C2106 H2076 0.950 . S
C2106 C2105 1.524 . S
C2106 C2107 1.415 . S
C2107 H2077 0.950 . S
C2107 C2102 1.363 . S
C2107 C2106 1.415 . S
H2108 C2105 0.999 . S
H2109 C2090 0.913 . S
H2110 C2128 0.951 . S
H2111 C2130 0.951 . S
H2112 C2132 0.950 . S
H2113 C2133 0.950 . S
H2114 C2135 0.950 . S
H2115 C2138 0.950 . S
H2116 C2139 0.950 . S
H2117 C2141 0.950 . S
H2118 C2142 0.950 . S
H2119 C2143 0.951 . S
H2120 C2145 0.951 . S
H2121 C2147 0.950 . S
H2122 C2148 0.950 . S
H2123 C2150 0.950 . S
H2124 C2153 0.950 . S
H2125 C2154 0.950 . S
H2126 C2156 0.950 . S
H2127 C2157 0.950 . S
C2128 H2110 0.951 . S
C2128 C2129 1.366 1_655 S
C2128 C2130 1.388 . S
C2129 C2128 1.366 1_455 S
C2129 C2133 1.385 . S
C2130 H2111 0.951 . S
C2130 C2128 1.388 . S
C2130 C2131 1.366 1_655 S
C2131 C2130 1.366 1_455 S
C2131 C2132 1.414 . S
C2131 C2134 1.499 . S
C2132 H2112 0.950 . S
C2132 C2131 1.414 . S
C2132 C2133 1.374 . S
C2133 H2113 0.950 . S
C2133 C2129 1.385 . S
C2133 C2132 1.374 . S
C2134 C2131 1.499 . S
C2134 C2135 1.373 . S
C2134 C2136 1.389 1_455 S
C2135 H2114 0.950 . S
C2135 C2134 1.373 . S
C2135 C2151 1.377 . S
C2136 C2134 1.389 1_655 S
C2136 C2137 1.524 . S
C2136 C2150 1.377 . S
C2137 C2136 1.524 . S
C2137 C2138 1.397 . S
C2137 C2142 1.363 . S
C2138 H2115 0.950 . S
C2138 C2137 1.397 . S
C2138 C2139 1.334 . S
C2139 H2116 0.950 . S
C2139 C2138 1.334 . S
C2139 C2140 1.287 . S
C2140 C2139 1.287 . S
C2140 C2141 1.524 . S
C2140 H2159 0.913 . S
C2141 H2117 0.950 . S
C2141 C2140 1.524 . S
C2141 C2142 1.415 . S
C2142 H2118 0.950 . S
C2142 C2137 1.363 . S
C2142 C2141 1.415 . S
C2143 H2119 0.951 . S
C2143 C2144 1.366 . S
C2143 C2145 1.388 . S
C2144 C2143 1.366 . S
C2144 C2148 1.385 1_455 S
C2145 H2120 0.951 . S
C2145 C2143 1.388 . S
C2145 C2146 1.366 . S
C2146 C2145 1.366 . S
C2146 C2147 1.414 1_455 S
C2146 C2149 1.499 . S
C2147 H2121 0.950 . S
C2147 C2146 1.414 1_655 S
C2147 C2148 1.374 . S
C2148 H2122 0.950 . S
C2148 C2144 1.385 1_655 S
C2148 C2147 1.374 . S
C2149 C2146 1.499 . S
C2149 C2150 1.373 1_455 S
C2149 C2151 1.389 . S
C2150 H2123 0.950 . S
C2150 C2136 1.377 . S
C2150 C2149 1.373 1_655 S
C2151 C2135 1.377 . S
C2151 C2149 1.389 . S
C2151 C2152 1.524 . S
C2152 C2151 1.524 . S
C2152 C2153 1.397 . S
C2152 C2157 1.363 . S
C2153 H2124 0.950 . S
C2153 C2152 1.397 . S
C2153 C2154 1.334 . S
C2154 H2125 0.950 . S
C2154 C2153 1.334 . S
C2154 C2155 1.287 . S
C2155 C2154 1.287 . S
C2155 C2156 1.524 . S
C2155 H2158 0.999 . S
C2156 H2126 0.950 . S
C2156 C2155 1.524 . S
C2156 C2157 1.415 . S
C2157 H2127 0.950 . S
C2157 C2152 1.363 . S
C2157 C2156 1.415 . S
H2158 C2155 0.999 . S
H2159 C2140 0.913 . S
H2160 C2178 0.951 . S
H2161 C2180 0.951 . S
H2162 C2182 0.950 . S
H2163 C2183 0.950 . S
H2164 C2185 0.950 . S
H2165 C2188 0.950 . S
H2166 C2189 0.950 . S
H2167 C2191 0.950 . S
H2168 C2192 0.950 . S
H2169 C2193 0.951 . S
H2170 C2195 0.951 . S
H2171 C2197 0.950 . S
H2172 C2198 0.950 . S
H2173 C2200 0.950 . S
H2174 C2203 0.950 . S
H2175 C2204 0.950 . S
H2176 C2206 0.950 . S
H2177 C2207 0.950 . S
C2178 H2160 0.951 . S
C2178 C2179 1.366 . S
C2178 C2180 1.388 . S
C2179 C2178 1.366 . S
C2179 C2183 1.385 . S
C2180 H2161 0.951 . S
C2180 C2178 1.388 . S
C2180 C2181 1.366 . S
C2181 C2180 1.366 . S
C2181 C2182 1.414 . S
C2181 C2184 1.499 . S
C2182 H2162 0.950 . S
C2182 C2181 1.414 . S
C2182 C2183 1.374 . S
C2183 H2163 0.950 . S
C2183 C2179 1.385 . S
C2183 C2182 1.374 . S
C2184 C2181 1.499 . S
C2184 C2185 1.373 . S
C2184 C2186 1.389 . S
C2185 H2164 0.950 . S
C2185 C2184 1.373 . S
C2185 C2201 1.377 . S
C2186 C2184 1.389 . S
C2186 C2187 1.524 . S
C2186 C2200 1.377 . S
C2187 C2186 1.524 . S
C2187 C2188 1.397 . S
C2187 C2192 1.363 . S
C2188 H2165 0.950 . S
C2188 C2187 1.397 . S
C2188 C2189 1.334 . S
C2189 H2166 0.950 . S
C2189 C2188 1.334 . S
C2189 C2190 1.287 . S
C2190 C2189 1.287 . S
C2190 C2191 1.524 . S
C2190 H2209 0.913 . S
C2191 H2167 0.950 . S
C2191 C2190 1.524 . S
C2191 C2192 1.415 . S
C2192 H2168 0.950 . S
C2192 C2187 1.363 . S
C2192 C2191 1.415 . S
C2193 H2169 0.951 . S
C2193 C2194 1.366 . S
C2193 C2195 1.388 . S
C2194 C2193 1.366 . S
C2194 C2198 1.385 . S
C2195 H2170 0.951 . S
C2195 C2193 1.388 . S
C2195 C2196 1.366 . S
C2196 C2195 1.366 . S
C2196 C2197 1.414 . S
C2196 C2199 1.499 . S
C2197 H2171 0.950 . S
C2197 C2196 1.414 . S
C2197 C2198 1.374 . S
C2198 H2172 0.950 . S
C2198 C2194 1.385 . S
C2198 C2197 1.374 . S
C2199 C2196 1.499 . S
C2199 C2200 1.373 . S
C2199 C2201 1.389 . S
C2200 H2173 0.950 . S
C2200 C2186 1.377 . S
C2200 C2199 1.373 . S
C2201 C2185 1.377 . S
C2201 C2199 1.389 . S
C2201 C2202 1.524 . S
C2202 C2201 1.524 . S
C2202 C2203 1.397 . S
C2202 C2207 1.363 . S
C2203 H2174 0.950 . S
C2203 C2202 1.397 . S
C2203 C2204 1.334 . S
C2204 H2175 0.950 . S
C2204 C2203 1.334 . S
C2204 C2205 1.287 . S
C2205 C2204 1.287 . S
C2205 C2206 1.524 . S
C2205 H2208 0.999 . S
C2206 H2176 0.950 . S
C2206 C2205 1.524 . S
C2206 C2207 1.415 . S
C2207 H2177 0.950 . S
C2207 C2202 1.363 . S
C2207 C2206 1.415 . S
H2208 C2205 0.999 . S
H2209 C2190 0.913 . S
H2210 C2228 0.951 . S
H2211 C2230 0.951 . S
H2212 C2232 0.950 . S
H2213 C2233 0.950 . S
H2214 C2235 0.950 . S
H2215 C2238 0.950 . S
H2216 C2239 0.950 . S
H2217 C2241 0.950 . S
H2218 C2242 0.950 . S
H2219 C2243 0.951 . S
H2220 C2245 0.951 1_655 S
H2221 C2247 0.950 . S
H2222 C2248 0.950 . S
H2223 C2250 0.950 . S
H2224 C2253 0.950 . S
H2225 C2254 0.950 . S
H2226 C2256 0.950 . S
H2227 C2257 0.950 . S
C2228 H2210 0.951 . S
C2228 C2229 1.366 . S
C2228 C2230 1.388 . S
C2229 C2228 1.366 . S
C2229 C2233 1.385 . S
C2230 H2211 0.951 . S
C2230 C2228 1.388 . S
C2230 C2231 1.366 . S
C2231 C2230 1.366 . S
C2231 C2232 1.414 . S
C2231 C2234 1.499 . S
C2232 H2212 0.950 . S
C2232 C2231 1.414 . S
C2232 C2233 1.374 . S
C2233 H2213 0.950 . S
C2233 C2229 1.385 . S
C2233 C2232 1.374 . S
C2234 C2231 1.499 . S
C2234 C2235 1.373 . S
C2234 C2236 1.389 . S
C2235 H2214 0.950 . S
C2235 C2234 1.373 . S
C2235 C2251 1.377 . S
C2236 C2234 1.389 . S
C2236 C2237 1.524 . S
C2236 C2250 1.377 . S
C2237 C2236 1.524 . S
C2237 C2238 1.397 . S
C2237 C2242 1.363 . S
C2238 H2215 0.950 . S
C2238 C2237 1.397 . S
C2238 C2239 1.334 1_556 S
C2239 H2216 0.950 . S
C2239 C2238 1.334 1_554 S
C2239 C2240 1.287 . S
C2240 C2239 1.287 . S
C2240 C2241 1.524 1_554 S
C2240 H2259 0.913 . S
C2241 H2217 0.950 . S
C2241 C2240 1.524 1_556 S
C2241 C2242 1.415 . S
C2242 H2218 0.950 . S
C2242 C2237 1.363 . S
C2242 C2241 1.415 . S
C2243 H2219 0.951 . S
C2243 C2244 1.366 1_655 S
C2243 C2245 1.388 1_655 S
C2244 C2243 1.366 1_455 S
C2244 C2248 1.385 . S
C2245 H2220 0.951 1_455 S
C2245 C2243 1.388 1_455 S
C2245 C2246 1.366 . S
C2246 C2245 1.366 . S
C2246 C2247 1.414 . S
C2246 C2249 1.499 . S
C2247 H2221 0.950 . S
C2247 C2246 1.414 . S
C2247 C2248 1.374 . S
C2248 H2222 0.950 . S
C2248 C2244 1.385 . S
C2248 C2247 1.374 . S
C2249 C2246 1.499 . S
C2249 C2250 1.373 . S
C2249 C2251 1.389 . S
C2250 H2223 0.950 . S
C2250 C2236 1.377 . S
C2250 C2249 1.373 . S
C2251 C2235 1.377 . S
C2251 C2249 1.389 . S
C2251 C2252 1.524 . S
C2252 C2251 1.524 . S
C2252 C2253 1.397 . S
C2252 C2257 1.363 1_455 S
C2253 H2224 0.950 . S
C2253 C2252 1.397 . S
C2253 C2254 1.334 . S
C2254 H2225 0.950 . S
C2254 C2253 1.334 . S
C2254 C2255 1.287 1_455 S
C2255 C2254 1.287 1_655 S
C2255 C2256 1.524 . S
C2255 H2258 0.999 . S
C2256 H2226 0.950 . S
C2256 C2255 1.524 . S
C2256 C2257 1.415 . S
C2257 H2227 0.950 . S
C2257 C2252 1.363 1_655 S
C2257 C2256 1.415 . S
H2258 C2255 0.999 . S
H2259 C2240 0.913 . S
H2260 C2278 0.951 . S
H2261 C2280 0.951 . S
H2262 C2282 0.950 . S
H2263 C2283 0.950 . S
H2264 C2285 0.950 . S
H2265 C2288 0.950 . S
H2266 C2289 0.950 . S
H2267 C2291 0.950 . S
H2268 C2292 0.950 . S
H2269 C2293 0.951 . S
H2270 C2295 0.951 . S
H2271 C2297 0.950 . S
H2272 C2298 0.950 . S
H2273 C2300 0.950 . S
H2274 C2303 0.950 . S
H2275 C2304 0.950 . S
H2276 C2306 0.950 . S
H2277 C2307 0.950 . S
C2278 H2260 0.951 . S
C2278 C2279 1.366 . S
C2278 C2280 1.388 . S
C2279 C2278 1.366 . S
C2279 C2283 1.385 . S
C2280 H2261 0.951 . S
C2280 C2278 1.388 . S
C2280 C2281 1.366 . S
C2281 C2280 1.366 . S
C2281 C2282 1.414 . S
C2281 C2284 1.499 . S
C2282 H2262 0.950 . S
C2282 C2281 1.414 . S
C2282 C2283 1.374 . S
C2283 H2263 0.950 . S
C2283 C2279 1.385 . S
C2283 C2282 1.374 . S
C2284 C2281 1.499 . S
C2284 C2285 1.373 . S
C2284 C2286 1.389 . S
C2285 H2264 0.950 . S
C2285 C2284 1.373 . S
C2285 C2301 1.377 . S
C2286 C2284 1.389 . S
C2286 C2287 1.524 . S
C2286 C2300 1.377 . S
C2287 C2286 1.524 . S
C2287 C2288 1.397 . S
C2287 C2292 1.363 . S
C2288 H2265 0.950 . S
C2288 C2287 1.397 . S
C2288 C2289 1.334 . S
C2289 H2266 0.950 . S
C2289 C2288 1.334 . S
C2289 C2290 1.287 . S
C2290 C2289 1.287 . S
C2290 C2291 1.524 . S
C2290 H2309 0.913 . S
C2291 H2267 0.950 . S
C2291 C2290 1.524 . S
C2291 C2292 1.415 . S
C2292 H2268 0.950 . S
C2292 C2287 1.363 . S
C2292 C2291 1.415 . S
C2293 H2269 0.951 . S
C2293 C2294 1.366 . S
C2293 C2295 1.388 . S
C2294 C2293 1.366 . S
C2294 C2298 1.385 . S
C2295 H2270 0.951 . S
C2295 C2293 1.388 . S
C2295 C2296 1.366 . S
C2296 C2295 1.366 . S
C2296 C2297 1.414 . S
C2296 C2299 1.499 . S
C2297 H2271 0.950 . S
C2297 C2296 1.414 . S
C2297 C2298 1.374 . S
C2298 H2272 0.950 . S
C2298 C2294 1.385 . S
C2298 C2297 1.374 . S
C2299 C2296 1.499 . S
C2299 C2300 1.373 . S
C2299 C2301 1.389 . S
C2300 H2273 0.950 . S
C2300 C2286 1.377 . S
C2300 C2299 1.373 . S
C2301 C2285 1.377 . S
C2301 C2299 1.389 . S
C2301 C2302 1.524 . S
C2302 C2301 1.524 . S
C2302 C2303 1.397 . S
C2302 C2307 1.363 . S
C2303 H2274 0.950 . S
C2303 C2302 1.397 . S
C2303 C2304 1.334 . S
C2304 H2275 0.950 . S
C2304 C2303 1.334 . S
C2304 C2305 1.287 . S
C2305 C2304 1.287 . S
C2305 C2306 1.524 . S
C2305 H2308 0.999 . S
C2306 H2276 0.950 . S
C2306 C2305 1.524 . S
C2306 C2307 1.415 . S
C2307 H2277 0.950 . S
C2307 C2302 1.363 . S
C2307 C2306 1.415 . S
H2308 C2305 0.999 . S
H2309 C2290 0.913 . S
H2310 C2328 0.951 . S
H2311 C2330 0.951 . S
H2312 C2332 0.950 . S
H2313 C2333 0.950 . S
H2314 C2335 0.950 . S
H2315 C2338 0.950 . S
H2316 C2339 0.950 1_556 S
H2317 C2341 0.976 . S
H2318 C2342 0.950 . S
H2319 C2343 0.951 . S
H2320 C2345 0.951 . S
H2321 C2347 0.950 . S
H2322 C2348 0.950 . S
H2323 C2350 0.950 . S
H2324 C2353 0.950 . S
H2325 C2354 0.950 . S
H2326 C2356 0.950 . S
H2327 C2357 0.950 . S
C2328 H2310 0.951 . S
C2328 C2329 1.366 . S
C2328 C2330 1.388 . S
C2329 C2328 1.366 . S
C2329 C2333 1.385 . S
C2330 H2311 0.951 . S
C2330 C2328 1.388 . S
C2330 C2331 1.366 . S
C2331 C2330 1.366 . S
C2331 C2332 1.414 . S
C2331 C2334 1.499 . S
C2332 H2312 0.950 . S
C2332 C2331 1.414 . S
C2332 C2333 1.374 . S
C2333 H2313 0.950 . S
C2333 C2329 1.385 . S
C2333 C2332 1.374 . S
C2334 C2331 1.499 . S
C2334 C2335 1.373 . S
C2334 C2336 1.389 . S
C2335 H2314 0.950 . S
C2335 C2334 1.373 . S
C2335 C2351 1.377 . S
C2336 C2334 1.389 . S
C2336 C2337 1.524 . S
C2336 C2350 1.377 . S
C2337 C2336 1.524 . S
C2337 C2338 1.397 . S
C2337 C2342 1.363 . S
C2338 H2315 0.950 . S
C2338 C2337 1.397 . S
C2338 C2339 1.334 . S
C2339 H2316 0.950 1_554 S
C2339 C2338 1.334 . S
C2339 C2340 1.287 1_554 S
C2340 C2339 1.287 1_556 S
C2340 C2341 1.524 1_556 S
C2340 H2359 0.913 . S
C2341 H2317 0.976 . S
C2341 C2340 1.524 1_554 S
C2341 C2342 1.415 . S
C2342 H2318 0.950 . S
C2342 C2337 1.363 . S
C2342 C2341 1.415 . S
C2343 H2319 0.951 . S
C2343 C2344 1.366 . S
C2343 C2345 1.388 . S
C2344 C2343 1.366 . S
C2344 C2348 1.385 . S
C2345 H2320 0.951 . S
C2345 C2343 1.388 . S
C2345 C2346 1.366 . S
C2346 C2345 1.366 . S
C2346 C2347 1.414 . S
C2346 C2349 1.499 . S
C2347 H2321 0.950 . S
C2347 C2346 1.414 . S
C2347 C2348 1.374 . S
C2348 H2322 0.950 . S
C2348 C2344 1.385 . S
C2348 C2347 1.374 . S
C2349 C2346 1.499 . S
C2349 C2350 1.373 . S
C2349 C2351 1.389 . S
C2350 H2323 0.950 . S
C2350 C2336 1.377 . S
C2350 C2349 1.373 . S
C2351 C2335 1.377 . S
C2351 C2349 1.389 . S
C2351 C2352 1.524 . S
C2352 C2351 1.524 . S
C2352 C2353 1.397 . S
C2352 C2357 1.363 . S
C2353 H2324 0.950 . S
C2353 C2352 1.397 . S
C2353 C2354 1.334 . S
C2354 H2325 0.950 . S
C2354 C2353 1.334 . S
C2354 C2355 1.287 . S
C2355 C2354 1.287 . S
C2355 C2356 1.524 . S
C2355 H2358 0.999 . S
C2356 H2326 0.950 . S
C2356 C2355 1.524 . S
C2356 C2357 1.415 . S
C2357 H2327 0.950 . S
C2357 C2352 1.363 . S
C2357 C2356 1.415 . S
H2358 C2355 0.999 . S
H2359 C2340 0.913 . S
H2360 C2378 0.951 . S
H2361 C2380 0.951 . S
H2362 C2382 0.950 . S
H2363 C2383 0.950 . S
H2364 C2385 0.950 . S
H2365 C2388 0.950 . S
H2366 C2389 0.950 . S
H2367 C2391 0.950 . S
H2368 C2392 0.950 . S
H2369 C2393 0.951 . S
H2370 C2395 0.951 . S
H2371 C2397 0.950 . S
H2372 C2398 0.950 . S
H2373 C2400 0.950 . S
H2374 C2403 0.950 . S
H2375 C2404 0.950 . S
H2376 C2406 0.950 . S
H2377 C2407 0.950 . S
C2378 H2360 0.951 . S
C2378 C2379 1.366 . S
C2378 C2380 1.388 . S
C2379 C2378 1.366 . S
C2379 C2383 1.385 . S
C2380 H2361 0.951 . S
C2380 C2378 1.388 . S
C2380 C2381 1.366 . S
C2381 C2380 1.366 . S
C2381 C2382 1.414 . S
C2381 C2384 1.499 . S
C2382 H2362 0.950 . S
C2382 C2381 1.414 . S
C2382 C2383 1.374 . S
C2383 H2363 0.950 . S
C2383 C2379 1.385 . S
C2383 C2382 1.374 . S
C2384 C2381 1.499 . S
C2384 C2385 1.373 . S
C2384 C2386 1.389 . S
C2385 H2364 0.950 . S
C2385 C2384 1.373 . S
C2385 C2401 1.377 . S
C2386 C2384 1.389 . S
C2386 C2387 1.524 . S
C2386 C2400 1.377 . S
C2387 C2386 1.524 . S
C2387 C2388 1.397 . S
C2387 C2392 1.363 . S
C2388 H2365 0.950 . S
C2388 C2387 1.397 . S
C2388 C2389 1.334 . S
C2389 H2366 0.950 . S
C2389 C2388 1.334 . S
C2389 C2390 1.287 . S
C2390 C2389 1.287 . S
C2390 C2391 1.524 . S
C2390 H2409 0.913 . S
C2391 H2367 0.950 . S
C2391 C2390 1.524 . S
C2391 C2392 1.415 . S
C2392 H2368 0.950 . S
C2392 C2387 1.363 . S
C2392 C2391 1.415 . S
C2393 H2369 0.951 . S
C2393 C2394 1.366 . S
C2393 C2395 1.388 . S
C2394 C2393 1.366 . S
C2394 C2398 1.385 . S
C2395 H2370 0.951 . S
C2395 C2393 1.388 . S
C2395 C2396 1.366 . S
C2396 C2395 1.366 . S
C2396 C2397 1.414 . S
C2396 C2399 1.499 . S
C2397 H2371 0.950 . S
C2397 C2396 1.414 . S
C2397 C2398 1.374 . S
C2398 H2372 0.950 . S
C2398 C2394 1.385 . S
C2398 C2397 1.374 . S
C2399 C2396 1.499 . S
C2399 C2400 1.373 . S
C2399 C2401 1.389 . S
C2400 H2373 0.950 . S
C2400 C2386 1.377 . S
C2400 C2399 1.373 . S
C2401 C2385 1.377 . S
C2401 C2399 1.389 . S
C2401 C2402 1.524 . S
C2402 C2401 1.524 . S
C2402 C2403 1.397 . S
C2402 C2407 1.363 . S
C2403 H2374 0.950 . S
C2403 C2402 1.397 . S
C2403 C2404 1.334 . S
C2404 H2375 0.950 . S
C2404 C2403 1.334 . S
C2404 C2405 1.287 . S
C2405 C2404 1.287 . S
C2405 C2406 1.524 . S
C2405 H2408 0.999 . S
C2406 H2376 0.950 . S
C2406 C2405 1.524 . S
C2406 C2407 1.415 . S
C2407 H2377 0.950 . S
C2407 C2402 1.363 . S
C2407 C2406 1.415 . S
H2408 C2405 0.999 . S
H2409 C2390 0.913 . S
H2410 C2428 0.951 . S
H2411 C2430 0.951 . S
H2412 C2432 0.950 . S
H2413 C2433 0.950 . S
H2414 C2435 0.950 . S
H2415 C2438 0.950 . S
H2416 C2439 0.950 . S
H2417 C2441 0.950 . S
H2418 C2442 0.950 . S
H2419 C2443 0.951 . S
H2420 C2445 0.951 . S
H2421 C2447 0.950 . S
H2422 C2448 0.950 . S
H2423 C2450 0.950 . S
H2424 C2453 0.950 . S
H2425 C2454 0.950 . S
H2426 C2456 0.950 . S
H2427 C2457 0.950 . S
C2428 H2410 0.951 . S
C2428 C2429 1.366 1_554 S
C2428 C2430 1.388 . S
C2429 C2428 1.366 1_556 S
C2429 C2433 1.385 . S
C2430 H2411 0.951 . S
C2430 C2428 1.388 . S
C2430 C2431 1.366 . S
C2431 C2430 1.366 . S
C2431 C2432 1.414 1_554 S
C2431 C2434 1.499 . S
C2432 H2412 0.950 . S
C2432 C2431 1.414 1_556 S
C2432 C2433 1.374 . S
C2433 H2413 0.950 . S
C2433 C2429 1.385 . S
C2433 C2432 1.374 . S
C2434 C2431 1.499 . S
C2434 C2435 1.373 . S
C2434 C2436 1.389 . S
C2435 H2414 0.950 . S
C2435 C2434 1.373 . S
C2435 C2451 1.377 . S
C2436 C2434 1.389 . S
C2436 C2437 1.524 . S
C2436 C2450 1.377 . S
C2437 C2436 1.524 . S
C2437 C2438 1.397 . S
C2437 C2442 1.363 . S
C2438 H2415 0.950 . S
C2438 C2437 1.397 . S
C2438 C2439 1.334 . S
C2439 H2416 0.950 . S
C2439 C2438 1.334 . S
C2439 C2440 1.287 . S
C2440 C2439 1.287 . S
C2440 C2441 1.524 . S
C2440 H2459 0.913 . S
C2441 H2417 0.950 . S
C2441 C2440 1.524 . S
C2441 C2442 1.415 . S
C2442 H2418 0.950 . S
C2442 C2437 1.363 . S
C2442 C2441 1.415 . S
C2443 H2419 0.951 . S
C2443 C2444 1.366 . S
C2443 C2445 1.388 . S
C2444 C2443 1.366 . S
C2444 C2448 1.385 . S
C2445 H2420 0.951 . S
C2445 C2443 1.388 . S
C2445 C2446 1.366 . S
C2446 C2445 1.366 . S
C2446 C2447 1.414 . S
C2446 C2449 1.499 . S
C2447 H2421 0.950 . S
C2447 C2446 1.414 . S
C2447 C2448 1.374 . S
C2448 H2422 0.950 . S
C2448 C2444 1.385 . S
C2448 C2447 1.374 . S
C2449 C2446 1.499 . S
C2449 C2450 1.373 . S
C2449 C2451 1.389 . S
C2450 H2423 0.950 . S
C2450 C2436 1.377 . S
C2450 C2449 1.373 . S
C2451 C2435 1.377 . S
C2451 C2449 1.389 . S
C2451 C2452 1.524 . S
C2452 C2451 1.524 . S
C2452 C2453 1.397 . S
C2452 C2457 1.363 . S
C2453 H2424 0.950 . S
C2453 C2452 1.397 . S
C2453 C2454 1.334 . S
C2454 H2425 0.950 . S
C2454 C2453 1.334 . S
C2454 C2455 1.287 . S
C2455 C2454 1.287 . S
C2455 C2456 1.524 . S
C2455 H2458 0.999 . S
C2456 H2426 0.950 . S
C2456 C2455 1.524 . S
C2456 C2457 1.415 . S
C2457 H2427 0.950 . S
C2457 C2452 1.363 . S
C2457 C2456 1.415 . S
H2458 C2455 0.999 . S
H2459 C2440 0.913 . S
H2460 C2478 0.951 . S
H2461 C2480 0.951 . S
H2462 C2482 0.950 . S
H2463 C2483 0.950 . S
H2464 C2485 0.950 . S
H2465 C2488 0.950 . S
H2466 C2489 0.950 . S
H2467 C2491 0.950 . S
H2468 C2492 0.950 . S
H2469 C2493 0.951 . S
H2470 C2495 0.951 . S
H2471 C2497 0.950 . S
H2472 C2498 0.950 . S
H2473 C2500 0.950 . S
H2474 C2503 0.950 . S
H2475 C2504 0.950 . S
H2476 C2506 0.950 . S
H2477 C2507 0.950 . S
C2478 H2460 0.951 . S
C2478 C2479 1.366 . S
C2478 C2480 1.388 . S
C2479 C2478 1.366 . S
C2479 C2483 1.385 . S
C2480 H2461 0.951 . S
C2480 C2478 1.388 . S
C2480 C2481 1.366 . S
C2481 C2480 1.366 . S
C2481 C2482 1.414 . S
C2481 C2484 1.499 . S
C2482 H2462 0.950 . S
C2482 C2481 1.414 . S
C2482 C2483 1.374 . S
C2483 H2463 0.950 . S
C2483 C2479 1.385 . S
C2483 C2482 1.374 . S
C2484 C2481 1.499 . S
C2484 C2485 1.373 . S
C2484 C2486 1.389 . S
C2485 H2464 0.950 . S
C2485 C2484 1.373 . S
C2485 C2501 1.377 . S
C2486 C2484 1.389 . S
C2486 C2487 1.524 . S
C2486 C2500 1.377 . S
C2487 C2486 1.524 . S
C2487 C2488 1.397 . S
C2487 C2492 1.363 . S
C2488 H2465 0.950 . S
C2488 C2487 1.397 . S
C2488 C2489 1.334 . S
C2489 H2466 0.950 . S
C2489 C2488 1.334 . S
C2489 C2490 1.287 . S
C2490 C2489 1.287 . S
C2490 C2491 1.524 . S
C2490 H2509 0.913 . S
C2491 H2467 0.950 . S
C2491 C2490 1.524 . S
C2491 C2492 1.415 . S
C2492 H2468 0.950 . S
C2492 C2487 1.363 . S
C2492 C2491 1.415 . S
C2493 H2469 0.951 . S
C2493 C2494 1.366 . S
C2493 C2495 1.388 . S
C2494 C2493 1.366 . S
C2494 C2498 1.385 . S
C2495 H2470 0.951 . S
C2495 C2493 1.388 . S
C2495 C2496 1.366 . S
C2496 C2495 1.366 . S
C2496 C2497 1.414 . S
C2496 C2499 1.499 . S
C2497 H2471 0.950 . S
C2497 C2496 1.414 . S
C2497 C2498 1.374 . S
C2498 H2472 0.950 . S
C2498 C2494 1.385 . S
C2498 C2497 1.374 . S
C2499 C2496 1.499 . S
C2499 C2500 1.373 . S
C2499 C2501 1.389 . S
C2500 H2473 0.950 . S
C2500 C2486 1.377 . S
C2500 C2499 1.373 . S
C2501 C2485 1.377 . S
C2501 C2499 1.389 . S
C2501 C2502 1.524 . S
C2502 C2501 1.524 . S
C2502 C2503 1.397 . S
C2502 C2507 1.363 . S
C2503 H2474 0.950 . S
C2503 C2502 1.397 . S
C2503 C2504 1.334 . S
C2504 H2475 0.950 . S
C2504 C2503 1.334 . S
C2504 C2505 1.287 . S
C2505 C2504 1.287 . S
C2505 C2506 1.524 . S
C2505 H2508 0.999 . S
C2506 H2476 0.950 . S
C2506 C2505 1.524 . S
C2506 C2507 1.415 . S
C2507 H2477 0.950 . S
C2507 C2502 1.363 . S
C2507 C2506 1.415 . S
H2508 C2505 0.999 . S
H2509 C2490 0.913 . S
H2510 C2528 0.951 . S
H2511 C2530 0.951 . S
H2512 C2532 0.950 . S
H2513 C2533 0.950 . S
H2514 C2535 0.950 . S
H2515 C2538 0.950 . S
H2516 C2539 0.950 . S
H2517 C2541 0.950 . S
H2518 C2542 0.950 . S
H2519 C2543 0.951 . S
H2520 C2545 0.951 . S
H2521 C2547 0.950 . S
H2522 C2548 0.950 . S
H2523 C2550 0.950 . S
H2524 C2553 0.950 . S
H2525 C2554 0.950 . S
H2526 C2556 0.950 . S
H2527 C2557 0.950 . S
C2528 H2510 0.951 . S
C2528 C2529 1.366 . S
C2528 C2530 1.388 . S
C2529 C2528 1.366 . S
C2529 C2533 1.385 . S
C2530 H2511 0.951 . S
C2530 C2528 1.388 . S
C2530 C2531 1.366 . S
C2531 C2530 1.366 . S
C2531 C2532 1.414 . S
C2531 C2534 1.499 . S
C2532 H2512 0.950 . S
C2532 C2531 1.414 . S
C2532 C2533 1.374 . S
C2533 H2513 0.950 . S
C2533 C2529 1.385 . S
C2533 C2532 1.374 . S
C2534 C2531 1.499 . S
C2534 C2535 1.373 . S
C2534 C2536 1.389 . S
C2535 H2514 0.950 . S
C2535 C2534 1.373 . S
C2535 C2551 1.377 . S
C2536 C2534 1.389 . S
C2536 C2537 1.524 . S
C2536 C2550 1.377 . S
C2537 C2536 1.524 . S
C2537 C2538 1.397 . S
C2537 C2542 1.363 . S
C2538 H2515 0.950 . S
C2538 C2537 1.397 . S
C2538 C2539 1.334 . S
C2539 H2516 0.950 . S
C2539 C2538 1.334 . S
C2539 C2540 1.287 . S
C2540 C2539 1.287 . S
C2540 C2541 1.524 . S
C2540 H2559 0.913 . S
C2541 H2517 0.950 . S
C2541 C2540 1.524 . S
C2541 C2542 1.415 . S
C2542 H2518 0.950 . S
C2542 C2537 1.363 . S
C2542 C2541 1.415 . S
C2543 H2519 0.951 . S
C2543 C2544 1.366 . S
C2543 C2545 1.388 . S
C2544 C2543 1.366 . S
C2544 C2548 1.385 . S
C2545 H2520 0.951 . S
C2545 C2543 1.388 . S
C2545 C2546 1.366 . S
C2546 C2545 1.366 . S
C2546 C2547 1.414 . S
C2546 C2549 1.499 . S
C2547 H2521 0.950 . S
C2547 C2546 1.414 . S
C2547 C2548 1.374 . S
C2548 H2522 0.950 . S
C2548 C2544 1.385 . S
C2548 C2547 1.374 . S
C2549 C2546 1.499 . S
C2549 C2550 1.373 . S
C2549 C2551 1.389 . S
C2550 H2523 0.950 . S
C2550 C2536 1.377 . S
C2550 C2549 1.373 . S
C2551 C2535 1.377 . S
C2551 C2549 1.389 . S
C2551 C2552 1.524 . S
C2552 C2551 1.524 . S
C2552 C2553 1.397 . S
C2552 C2557 1.363 . S
C2553 H2524 0.950 . S
C2553 C2552 1.397 . S
C2553 C2554 1.334 . S
C2554 H2525 0.950 . S
C2554 C2553 1.334 . S
C2554 C2555 1.287 . S
C2555 C2554 1.287 . S
C2555 C2556 1.524 . S
C2555 H2558 0.999 . S
C2556 H2526 0.950 . S
C2556 C2555 1.524 . S
C2556 C2557 1.415 . S
C2557 H2527 0.950 . S
C2557 C2552 1.363 . S
C2557 C2556 1.415 . S
H2558 C2555 0.999 . S
H2559 C2540 0.913 . S
H2560 C2578 0.951 . S
H2561 C2580 0.951 . S
H2562 C2582 0.950 . S
H2563 C2583 0.950 . S
H2564 C2585 0.950 . S
H2565 C2588 0.950 . S
H2566 C2589 0.950 . S
H2567 C2591 0.950 . S
H2568 C2592 0.950 . S
H2569 C2593 0.951 . S
H2570 C2595 0.951 . S
H2571 C2597 0.950 . S
H2572 C2598 0.950 . S
H2573 C2600 0.950 . S
H2574 C2603 0.950 . S
H2575 C2604 0.950 . S
H2576 C2606 0.950 . S
H2577 C2607 0.950 . S
C2578 H2560 0.951 . S
C2578 C2579 1.366 . S
C2578 C2580 1.388 . S
C2579 C2578 1.366 . S
C2579 C2583 1.385 . S
C2580 H2561 0.951 . S
C2580 C2578 1.388 . S
C2580 C2581 1.366 . S
C2581 C2580 1.366 . S
C2581 C2582 1.414 . S
C2581 C2584 1.499 . S
C2582 H2562 0.950 . S
C2582 C2581 1.414 . S
C2582 C2583 1.374 . S
C2583 H2563 0.950 . S
C2583 C2579 1.385 . S
C2583 C2582 1.374 . S
C2584 C2581 1.499 . S
C2584 C2585 1.373 . S
C2584 C2586 1.389 . S
C2585 H2564 0.950 . S
C2585 C2584 1.373 . S
C2585 C2601 1.377 . S
C2586 C2584 1.389 . S
C2586 C2587 1.524 . S
C2586 C2600 1.377 . S
C2587 C2586 1.524 . S
C2587 C2588 1.397 . S
C2587 C2592 1.363 . S
C2588 H2565 0.950 . S
C2588 C2587 1.397 . S
C2588 C2589 1.334 . S
C2589 H2566 0.950 . S
C2589 C2588 1.334 . S
C2589 C2590 1.287 . S
C2590 C2589 1.287 . S
C2590 C2591 1.524 . S
C2590 H2609 0.913 . S
C2591 H2567 0.950 . S
C2591 C2590 1.524 . S
C2591 C2592 1.415 . S
C2592 H2568 0.950 . S
C2592 C2587 1.363 . S
C2592 C2591 1.415 . S
C2593 H2569 0.951 . S
C2593 C2594 1.366 . S
C2593 C2595 1.388 . S
C2594 C2593 1.366 . S
C2594 C2598 1.385 . S
C2595 H2570 0.951 . S
C2595 C2593 1.388 . S
C2595 C2596 1.366 . S
C2596 C2595 1.366 . S
C2596 C2597 1.414 . S
C2596 C2599 1.499 . S
C2597 H2571 0.950 . S
C2597 C2596 1.414 . S
C2597 C2598 1.374 . S
C2598 H2572 0.950 . S
C2598 C2594 1.385 . S
C2598 C2597 1.374 . S
C2599 C2596 1.499 . S
C2599 C2600 1.373 . S
C2599 C2601 1.389 . S
C2600 H2573 0.950 . S
C2600 C2586 1.377 . S
C2600 C2599 1.373 . S
C2601 C2585 1.377 . S
C2601 C2599 1.389 . S
C2601 C2602 1.524 . S
C2602 C2601 1.524 . S
C2602 C2603 1.397 . S
C2602 C2607 1.363 . S
C2603 H2574 0.950 . S
C2603 C2602 1.397 . S
C2603 C2604 1.334 . S
C2604 H2575 0.950 . S
C2604 C2603 1.334 . S
C2604 C2605 1.287 . S
C2605 C2604 1.287 . S
C2605 C2606 1.524 . S
C2605 H2608 0.999 . S
C2606 H2576 0.950 . S
C2606 C2605 1.524 . S
C2606 C2607 1.415 . S
C2607 H2577 0.950 . S
C2607 C2602 1.363 . S
C2607 C2606 1.415 . S
H2608 C2605 0.999 . S
H2609 C2590 0.913 . S
H2610 C2628 0.951 . S
H2611 C2630 0.951 . S
H2612 C2632 0.950 . S
H2613 C2633 0.950 . S
H2614 C2635 0.950 . S
H2615 C2638 0.950 . S
H2616 C2639 0.950 . S
H2617 C2641 0.950 . S
H2618 C2642 0.950 . S
H2619 C2643 0.951 . S
H2620 C2645 0.951 . S
H2621 C2647 0.950 . S
H2622 C2648 0.950 . S
H2623 C2650 0.950 . S
H2624 C2653 0.950 . S
H2625 C2654 0.950 . S
H2626 C2656 0.950 . S
H2627 C2657 0.950 . S
C2628 H2610 0.951 . S
C2628 C2629 1.366 . S
C2628 C2630 1.388 . S
C2629 C2628 1.366 . S
C2629 C2633 1.385 . S
C2630 H2611 0.951 . S
C2630 C2628 1.388 . S
C2630 C2631 1.366 . S
C2631 C2630 1.366 . S
C2631 C2632 1.414 . S
C2631 C2634 1.499 . S
C2632 H2612 0.950 . S
C2632 C2631 1.414 . S
C2632 C2633 1.374 . S
C2633 H2613 0.950 . S
C2633 C2629 1.385 . S
C2633 C2632 1.374 . S
C2634 C2631 1.499 . S
C2634 C2635 1.373 . S
C2634 C2636 1.389 . S
C2635 H2614 0.950 . S
C2635 C2634 1.373 . S
C2635 C2651 1.377 . S
C2636 C2634 1.389 . S
C2636 C2637 1.524 . S
C2636 C2650 1.377 . S
C2637 C2636 1.524 . S
C2637 C2638 1.397 . S
C2637 C2642 1.363 . S
C2638 H2615 0.950 . S
C2638 C2637 1.397 . S
C2638 C2639 1.334 . S
C2639 H2616 0.950 . S
C2639 C2638 1.334 . S
C2639 C2640 1.287 . S
C2640 C2639 1.287 . S
C2640 C2641 1.524 . S
C2640 H2659 0.913 . S
C2641 H2617 0.950 . S
C2641 C2640 1.524 . S
C2641 C2642 1.415 . S
C2642 H2618 0.950 . S
C2642 C2637 1.363 . S
C2642 C2641 1.415 . S
C2643 H2619 0.951 . S
C2643 C2644 1.366 . S
C2643 C2645 1.388 . S
C2644 C2643 1.366 . S
C2644 C2648 1.385 . S
C2645 H2620 0.951 . S
C2645 C2643 1.388 . S
C2645 C2646 1.366 . S
C2646 C2645 1.366 . S
C2646 C2647 1.414 . S
C2646 C2649 1.499 . S
C2647 H2621 0.950 . S
C2647 C2646 1.414 . S
C2647 C2648 1.374 . S
C2648 H2622 0.950 . S
C2648 C2644 1.385 . S
C2648 C2647 1.374 . S
C2649 C2646 1.499 . S
C2649 C2650 1.373 . S
C2649 C2651 1.389 . S
C2650 H2623 0.950 . S
C2650 C2636 1.377 . S
C2650 C2649 1.373 . S
C2651 C2635 1.377 . S
C2651 C2649 1.389 . S
C2651 C2652 1.524 . S
C2652 C2651 1.524 . S
C2652 C2653 1.397 . S
C2652 C2657 1.363 . S
C2653 H2624 0.950 . S
C2653 C2652 1.397 . S
C2653 C2654 1.334 . S
C2654 H2625 0.950 . S
C2654 C2653 1.334 . S
C2654 C2655 1.287 . S
C2655 C2654 1.287 . S
C2655 C2656 1.524 . S
C2655 H2658 0.999 . S
C2656 H2626 0.950 . S
C2656 C2655 1.524 . S
C2656 C2657 1.415 . S
C2657 H2627 0.950 . S
C2657 C2652 1.363 . S
C2657 C2656 1.415 . S
H2658 C2655 0.999 . S
H2659 C2640 0.913 . S
H2660 C2678 0.956 1_554 S
H2661 C2680 0.973 . S
H2662 C2682 0.950 . S
H2663 C2683 0.950 . S
H2664 C2685 0.950 . S
H2665 C2688 0.950 . S
H2666 C2689 0.950 . S
H2667 C2691 0.976 . S
H2668 C2692 0.950 . S
H2669 C2693 0.951 . S
H2670 C2695 0.951 . S
H2671 C2697 0.950 . S
H2672 C2698 0.950 . S
H2673 C2700 0.950 . S
H2674 C2703 0.950 . S
H2675 C2704 0.950 . S
H2676 C2706 0.950 . S
H2677 C2707 0.950 . S
C2678 H2660 0.956 1_556 S
C2678 C2679 1.362 . S
C2678 C2680 1.391 1_556 S
C2679 C2678 1.362 . S
C2679 C2683 1.385 . S
C2680 H2661 0.973 . S
C2680 C2678 1.391 1_554 S
C2680 C2681 1.340 1_554 S
C2681 C2680 1.340 1_556 S
C2681 C2682 1.414 . S
C2681 C2684 1.499 . S
C2682 H2662 0.950 . S
C2682 C2681 1.414 . S
C2682 C2683 1.374 . S
C2683 H2663 0.950 . S
C2683 C2679 1.385 . S
C2683 C2682 1.374 . S
C2684 C2681 1.499 . S
C2684 C2685 1.373 . S
C2684 C2686 1.389 . S
C2685 H2664 0.950 . S
C2685 C2684 1.373 . S
C2685 C2701 1.377 . S
C2686 C2684 1.389 . S
C2686 C2687 1.524 . S
C2686 C2700 1.377 . S
C2687 C2686 1.524 . S
C2687 C2688 1.397 . S
C2687 C2692 1.363 1_556 S
C2688 H2665 0.950 . S
C2688 C2687 1.397 . S
C2688 C2689 1.334 . S
C2689 H2666 0.950 . S
C2689 C2688 1.334 . S
C2689 C2690 1.287 . S
C2690 C2689 1.287 . S
C2690 C2691 1.489 1_556 S
C2690 H2709 0.913 . S
C2691 H2667 0.976 . S
C2691 C2690 1.489 1_554 S
C2691 C2692 1.421 . S
C2692 H2668 0.950 . S
C2692 C2687 1.363 1_554 S
C2692 C2691 1.421 . S
C2693 H2669 0.951 . S
C2693 C2694 1.366 . S
C2693 C2695 1.388 . S
C2694 C2693 1.366 . S
C2694 C2698 1.385 1_556 S
C2695 H2670 0.951 . S
C2695 C2693 1.388 . S
C2695 C2696 1.366 . S
C2696 C2695 1.366 . S
C2696 C2697 1.414 1_556 S
C2696 C2699 1.499 . S
C2697 H2671 0.950 . S
C2697 C2696 1.414 1_554 S
C2697 C2698 1.374 . S
C2698 H2672 0.950 . S
C2698 C2694 1.385 1_554 S
C2698 C2697 1.374 . S
C2699 C2696 1.499 . S
C2699 C2700 1.373 . S
C2699 C2701 1.389 . S
C2700 H2673 0.950 . S
C2700 C2686 1.377 . S
C2700 C2699 1.373 . S
C2701 C2685 1.377 . S
C2701 C2699 1.389 . S
C2701 C2702 1.524 . S
C2702 C2701 1.524 . S
C2702 C2703 1.397 1_556 S
C2702 C2707 1.363 . S
C2703 H2674 0.950 . S
C2703 C2702 1.397 1_554 S
C2703 C2704 1.334 . S
C2704 H2675 0.950 . S
C2704 C2703 1.334 . S
C2704 C2705 1.287 1_554 S
C2705 C2704 1.287 1_556 S
C2705 C2706 1.524 . S
C2705 H2708 0.999 . S
C2706 H2676 0.950 . S
C2706 C2705 1.524 . S
C2706 C2707 1.415 . S
C2707 H2677 0.950 . S
C2707 C2702 1.363 . S
C2707 C2706 1.415 . S
H2708 C2705 0.999 . S
H2709 C2690 0.913 . S
H2710 C2728 0.951 . S
H2711 C2730 0.951 . S
H2712 C2732 0.950 . S
H2713 C2733 0.950 . S
H2714 C2735 0.950 . S
H2715 C2738 0.950 . S
H2716 C2739 0.950 . S
H2717 C2741 0.950 . S
H2718 C2742 0.950 . S
H2719 C2743 0.951 . S
H2720 C2745 0.951 . S
H2721 C2747 0.950 . S
H2722 C2748 0.950 . S
H2723 C2750 0.950 . S
H2724 C2753 0.950 . S
H2725 C2754 0.950 . S
H2726 C2756 0.950 . S
H2727 C2757 0.950 . S
C2728 H2710 0.951 . S
C2728 C2729 1.366 . S
C2728 C2730 1.388 . S
C2729 C2728 1.366 . S
C2729 C2733 1.385 . S
C2730 H2711 0.951 . S
C2730 C2728 1.388 . S
C2730 C2731 1.366 . S
C2731 C2730 1.366 . S
C2731 C2732 1.414 . S
C2731 C2734 1.499 . S
C2732 H2712 0.950 . S
C2732 C2731 1.414 . S
C2732 C2733 1.374 . S
C2733 H2713 0.950 . S
C2733 C2729 1.385 . S
C2733 C2732 1.374 . S
C2734 C2731 1.499 . S
C2734 C2735 1.373 . S
C2734 C2736 1.389 . S
C2735 H2714 0.950 . S
C2735 C2734 1.373 . S
C2735 C2751 1.377 . S
C2736 C2734 1.389 . S
C2736 C2737 1.524 . S
C2736 C2750 1.377 . S
C2737 C2736 1.524 . S
C2737 C2738 1.397 . S
C2737 C2742 1.363 . S
C2738 H2715 0.950 . S
C2738 C2737 1.397 . S
C2738 C2739 1.334 . S
C2739 H2716 0.950 . S
C2739 C2738 1.334 . S
C2739 C2740 1.287 . S
C2740 C2739 1.287 . S
C2740 C2741 1.524 . S
C2740 H2759 0.913 . S
C2741 H2717 0.950 . S
C2741 C2740 1.524 . S
C2741 C2742 1.415 . S
C2742 H2718 0.950 . S
C2742 C2737 1.363 . S
C2742 C2741 1.415 . S
C2743 H2719 0.951 . S
C2743 C2744 1.366 . S
C2743 C2745 1.388 . S
C2744 C2743 1.366 . S
C2744 C2748 1.385 . S
C2745 H2720 0.951 . S
C2745 C2743 1.388 . S
C2745 C2746 1.366 . S
C2746 C2745 1.366 . S
C2746 C2747 1.414 . S
C2746 C2749 1.499 . S
C2747 H2721 0.950 . S
C2747 C2746 1.414 . S
C2747 C2748 1.374 . S
C2748 H2722 0.950 . S
C2748 C2744 1.385 . S
C2748 C2747 1.374 . S
C2749 C2746 1.499 . S
C2749 C2750 1.373 . S
C2749 C2751 1.389 . S
C2750 H2723 0.950 . S
C2750 C2736 1.377 . S
C2750 C2749 1.373 . S
C2751 C2735 1.377 . S
C2751 C2749 1.389 . S
C2751 C2752 1.524 . S
C2752 C2751 1.524 . S
C2752 C2753 1.397 . S
C2752 C2757 1.363 . S
C2753 H2724 0.950 . S
C2753 C2752 1.397 . S
C2753 C2754 1.334 . S
C2754 H2725 0.950 . S
C2754 C2753 1.334 . S
C2754 C2755 1.287 . S
C2755 C2754 1.287 . S
C2755 C2756 1.524 . S
C2755 H2758 0.999 . S
C2756 H2726 0.950 . S
C2756 C2755 1.524 . S
C2756 C2757 1.415 . S
C2757 H2727 0.950 . S
C2757 C2752 1.363 . S
C2757 C2756 1.415 . S
H2758 C2755 0.999 . S
H2759 C2740 0.913 . S
H2760 C2778 0.951 . S
H2761 C2780 0.951 . S
H2762 C2782 0.950 . S
H2763 C2783 0.950 . S
H2764 C2785 0.950 . S
H2765 C2788 0.950 . S
H2766 C2789 0.950 . S
H2767 C2791 0.947 1_554 S
H2768 C2792 0.950 . S
H2769 C2793 0.951 . S
H2770 C2795 0.951 . S
H2771 C2797 0.950 . S
H2772 C2798 0.950 . S
H2773 C2800 0.950 . S
H2774 C2803 0.950 . S
H2775 C2804 0.950 . S
H2776 C2806 0.950 . S
H2777 C2807 0.950 . S
C2778 H2760 0.951 . S
C2778 C2779 1.366 . S
C2778 C2780 1.388 . S
C2779 C2778 1.366 . S
C2779 C2783 1.385 . S
C2780 H2761 0.951 . S
C2780 C2778 1.388 . S
C2780 C2781 1.366 . S
C2781 C2780 1.366 . S
C2781 C2782 1.414 . S
C2781 C2784 1.499 . S
C2782 H2762 0.950 . S
C2782 C2781 1.414 . S
C2782 C2783 1.374 . S
C2783 H2763 0.950 . S
C2783 C2779 1.385 . S
C2783 C2782 1.374 . S
C2784 C2781 1.499 . S
C2784 C2785 1.373 . S
C2784 C2786 1.389 . S
C2785 H2764 0.950 . S
C2785 C2784 1.373 . S
C2785 C2801 1.377 . S
C2786 C2784 1.389 . S
C2786 C2787 1.524 1_554 S
C2786 C2800 1.377 . S
C2787 C2786 1.524 1_556 S
C2787 C2788 1.397 . S
C2787 C2792 1.363 1_556 S
C2788 H2765 0.950 . S
C2788 C2787 1.397 . S
C2788 C2789 1.334 . S
C2789 H2766 0.950 . S
C2789 C2788 1.334 . S
C2789 C2790 1.287 . S
C2790 C2789 1.287 . S
C2790 C2791 1.524 . S
C2790 H2809 0.913 . S
C2791 H2767 0.947 1_556 S
C2791 C2790 1.524 . S
C2791 C2792 1.415 1_556 S
C2792 H2768 0.950 . S
C2792 C2787 1.363 1_554 S
C2792 C2791 1.415 1_554 S
C2793 H2769 0.951 . S
C2793 C2794 1.366 1_556 S
C2793 C2795 1.388 . S
C2794 C2793 1.366 1_554 S
C2794 C2798 1.385 . S
C2795 H2770 0.951 . S
C2795 C2793 1.388 . S
C2795 C2796 1.366 1_556 S
C2796 C2795 1.366 1_554 S
C2796 C2797 1.414 . S
C2796 C2799 1.499 . S
C2797 H2771 0.950 . S
C2797 C2796 1.414 . S
C2797 C2798 1.374 . S
C2798 H2772 0.950 . S
C2798 C2794 1.385 . S
C2798 C2797 1.374 . S
C2799 C2796 1.499 . S
C2799 C2800 1.373 . S
C2799 C2801 1.389 . S
C2800 H2773 0.950 . S
C2800 C2786 1.377 . S
C2800 C2799 1.373 . S
C2801 C2785 1.377 . S
C2801 C2799 1.389 . S
C2801 C2802 1.524 . S
C2802 C2801 1.524 . S
C2802 C2803 1.397 . S
C2802 C2807 1.363 . S
C2803 H2774 0.950 . S
C2803 C2802 1.397 . S
C2803 C2804 1.334 . S
C2804 H2775 0.950 . S
C2804 C2803 1.334 . S
C2804 C2805 1.287 . S
C2805 C2804 1.287 . S
C2805 C2806 1.524 . S
C2805 H2808 0.999 . S
C2806 H2776 0.950 . S
C2806 C2805 1.524 . S
C2806 C2807 1.415 . S
C2807 H2777 0.950 . S
C2807 C2802 1.363 . S
C2807 C2806 1.415 . S
H2808 C2805 0.999 . S
H2809 C2790 0.913 . S
H2810 C2828 0.951 . S
H2811 C2830 0.951 . S
H2812 C2832 0.950 . S
H2813 C2833 0.950 . S
H2814 C2835 0.950 . S
H2815 C2838 0.950 . S
H2816 C2839 0.987 1_565 S
H2817 C2841 0.950 . S
H2818 C2842 0.950 . S
H2819 C2843 0.951 . S
H2820 C2845 0.951 . S
H2821 C2847 0.950 . S
H2822 C2848 0.950 . S
H2823 C2850 0.950 . S
H2824 C2853 0.950 . S
H2825 C2854 0.950 . S
H2826 C2856 0.950 . S
H2827 C2857 0.950 . S
C2828 H2810 0.951 . S
C2828 C2829 1.366 . S
C2828 C2830 1.388 . S
C2829 C2828 1.366 . S
C2829 C2833 1.385 1_545 S
C2830 H2811 0.951 . S
C2830 C2828 1.388 . S
C2830 C2831 1.366 1_545 S
C2831 C2830 1.366 1_565 S
C2831 C2832 1.414 . S
C2831 C2834 1.499 . S
C2832 H2812 0.950 . S
C2832 C2831 1.414 . S
C2832 C2833 1.374 . S
C2833 H2813 0.950 . S
C2833 C2829 1.385 1_565 S
C2833 C2832 1.374 . S
C2834 C2831 1.499 . S
C2834 C2835 1.373 . S
C2834 C2836 1.389 . S
C2835 H2814 0.950 . S
C2835 C2834 1.373 . S
C2835 C2851 1.377 . S
C2836 C2834 1.389 . S
C2836 C2837 1.524 . S
C2836 C2850 1.377 . S
C2837 C2836 1.524 . S
C2837 C2838 1.397 . S
C2837 C2842 1.363 1_565 S
C2838 H2815 0.950 . S
C2838 C2837 1.397 . S
C2838 C2839 1.284 1_564 S
C2839 H2816 0.987 1_545 S
C2839 C2838 1.284 1_546 S
C2839 C2840 1.301 . S
C2840 C2839 1.301 . S
C2840 C2841 1.524 1_556 S
C2840 H2859 0.913 . S
C2841 H2817 0.950 . S
C2841 C2840 1.524 1_554 S
C2841 C2842 1.415 . S
C2842 H2818 0.950 . S
C2842 C2837 1.363 1_545 S
C2842 C2841 1.415 . S
C2843 H2819 0.951 . S
C2843 C2844 1.366 . S
C2843 C2845 1.388 . S
C2844 C2843 1.366 . S
C2844 C2848 1.385 . S
C2845 H2820 0.951 . S
C2845 C2843 1.388 . S
C2845 C2846 1.366 . S
C2846 C2845 1.366 . S
C2846 C2847 1.414 . S
C2846 C2849 1.499 . S
C2847 H2821 0.950 . S
C2847 C2846 1.414 . S
C2847 C2848 1.374 . S
C2848 H2822 0.950 . S
C2848 C2844 1.385 . S
C2848 C2847 1.374 . S
C2849 C2846 1.499 . S
C2849 C2850 1.373 . S
C2849 C2851 1.389 . S
C2850 H2823 0.950 . S
C2850 C2836 1.377 . S
C2850 C2849 1.373 . S
C2851 C2835 1.377 . S
C2851 C2849 1.389 . S
C2851 C2852 1.524 . S
C2852 C2851 1.524 . S
C2852 C2853 1.397 . S
C2852 C2857 1.363 . S
C2853 H2824 0.950 . S
C2853 C2852 1.397 . S
C2853 C2854 1.334 . S
C2854 H2825 0.950 . S
C2854 C2853 1.334 . S
C2854 C2855 1.287 . S
C2855 C2854 1.287 . S
C2855 C2856 1.524 . S
C2855 H2858 0.999 . S
C2856 H2826 0.950 . S
C2856 C2855 1.524 . S
C2856 C2857 1.415 . S
C2857 H2827 0.950 . S
C2857 C2852 1.363 . S
C2857 C2856 1.415 . S
H2858 C2855 0.999 . S
H2859 C2840 0.913 . S
C494 C314 1.856 1_556 S
C479 C101 1.864 . S
C544 C327 1.092 . S
C529 C125 1.021 1_455 S
C579 C139 2.045 . S
C594 C340 2.005 . S
C644 C353 1.821 . S
C629 C82 1.870 . S
C694 C361 1.500 . S
C679 C196 1.529 . S
C744 C374 1.785 . S
C729 C234 1.804 . S
C779 C220 0.738 . S
C794 C387 0.736 . S
C844 C400 1.676 . S
C829 C173 1.683 . S
C879 C211 0.957 . S
C894 C418 0.943 . S
C944 C429 0.995 . S
C929 C182 0.971 . S
C979 C201 1.226 . S
C994 C413 1.323 . S
C1044 C421 1.278 . S
C1029 C239 1.189 . S
C1079 C135 1.633 . S
C1094 C444 1.638 . S
C1129 C87 1.883 . S
C1144 C434 2.021 . S
C1179 C106 1.155 . S
C1194 C439 1.284 . S
C1229 C116 1.228 . S
C1244 C442 1.229 . S
C1279 C59 1.897 . S
C1294 C351 1.882 . S
C1329 C268 2.283 . S
C1344 C343 2.287 . S
C1394 C312 1.224 . S
C1379 C291 1.229 . S
C1444 C317 1.414 . S
C1429 C163 1.339 . S
C1479 C78 2.204 . S
C1494 C364 2.156 . S
C1544 C403 1.102 . S
C1529 C215 1.122 . S
C1594 C356 1.601 . S
C1579 C177 1.577 1_545 S
C1644 C382 1.771 . S
C1629 C230 1.811 . S
C1694 C392 1.856 . S
C1679 C272 1.864 . S
C1729 C296 1.032 . S
C1744 C405 1.093 . S
C1779 C158 2.045 . S
C1794 C366 2.004 . S
C1844 C379 1.820 . S
C1829 C253 1.870 . S
C1879 C63 1.529 . S
C1894 C335 1.500 . S
C1944 C348 1.786 . S
C1929 C6 1.804 . S
C1994 C309 0.734 . S
C1979 C30 0.738 . S
C2044 C322 1.675 . S
C2029 C40 1.686 . S
C2079 C21 0.958 . S
C2094 C431 0.943 . S
C2129 C49 0.971 . S
C2144 C416 0.997 . S
C2179 C68 1.226 . S
C2194 C426 1.323 . S
C2229 C11 1.189 1_556 S
C2244 C408 1.278 . S
C2294 C457 1.638 . S
C2279 C154 1.633 . S
C2344 C447 2.021 . S
C2329 C258 1.884 . S
C2394 C452 1.284 . S
C2379 C277 1.155 . S
C2429 C287 1.228 . S
C2444 C455 1.230 . S
C2479 C192 1.897 . S
C2494 C377 1.882 . S
C2544 C369 2.287 . S
C2529 C97 2.283 . S
C2594 C390 1.224 . S
C2579 C120 1.229 . S
C2644 C395 1.413 . S
C2629 C144 1.339 . S
C2679 C249 2.180 . S
C2694 C338 2.157 . S
C2744 C325 1.101 . S
C2729 C25 1.122 . S
C2779 C44 1.607 . S
C2794 C330 1.598 1_554 S
C2844 C304 1.771 . S
C2829 C2 1.811 . S
