# Generated by pormake.
# Topology dag, (6,3)-cn, num edge types: 1
# Building blocks:
#     Node 0, Type 0, BuildingBlock: OJICUG_clean_sbu_0, # of connection points: 6
#     Node 1, Type 0, BuildingBlock: OJICUG_clean_sbu_0, # of connection points: 6
#     Node 2, Type 0, BuildingBlock: OJICUG_clean_sbu_0, # of connection points: 6
#     Node 3, Type 0, BuildingBlock: OJICUG_clean_sbu_0, # of connection points: 6
#     Node 4, Type 1, BuildingBlock: PAMTOO_clean_linker_0, # of connection points: 3
#     Node 5, Type 1, BuildingBlock: PAMTOO_clean_linker_0, # of connection points: 3
#     Node 6, Type 1, BuildingBlock: PAMTOO_clean_linker_0, # of connection points: 3
#     Node 7, Type 1, BuildingBlock: PAMTOO_clean_linker_0, # of connection points: 3
#     Node 8, Type 1, BuildingBlock: PAMTOO_clean_linker_0, # of connection points: 3
#     Node 9, Type 1, BuildingBlock: PAMTOO_clean_linker_0, # of connection points: 3
#     Node 10, Type 1, BuildingBlock: PAMTOO_clean_linker_0, # of connection points: 3
#     Node 11, Type 1, BuildingBlock: PAMTOO_clean_linker_0, # of connection points: 3
#     Edge 12, Type (0, 1), BuildingBlock: TEMPAE_clean_linker_10, # of connection points: 2
#     Edge 13, Type (0, 1), BuildingBlock: TEMPAE_clean_linker_10, # of connection points: 2
#     Edge 14, Type (0, 1), BuildingBlock: TEMPAE_clean_linker_10, # of connection points: 2
#     Edge 15, Type (0, 1), BuildingBlock: TEMPAE_clean_linker_10, # of connection points: 2
#     Edge 16, Type (0, 1), BuildingBlock: TEMPAE_clean_linker_10, # of connection points: 2
#     Edge 17, Type (0, 1), BuildingBlock: TEMPAE_clean_linker_10, # of connection points: 2
#     Edge 18, Type (0, 1), BuildingBlock: TEMPAE_clean_linker_10, # of connection points: 2
#     Edge 19, Type (0, 1), BuildingBlock: TEMPAE_clean_linker_10, # of connection points: 2
#     Edge 20, Type (0, 1), BuildingBlock: TEMPAE_clean_linker_10, # of connection points: 2
#     Edge 21, Type (0, 1), BuildingBlock: TEMPAE_clean_linker_10, # of connection points: 2
#     Edge 22, Type (0, 1), BuildingBlock: TEMPAE_clean_linker_10, # of connection points: 2
#     Edge 23, Type (0, 1), BuildingBlock: TEMPAE_clean_linker_10, # of connection points: 2
#     Edge 24, Type (0, 1), BuildingBlock: TEMPAE_clean_linker_10, # of connection points: 2
#     Edge 25, Type (0, 1), BuildingBlock: TEMPAE_clean_linker_10, # of connection points: 2
#     Edge 26, Type (0, 1), BuildingBlock: TEMPAE_clean_linker_10, # of connection points: 2
#     Edge 27, Type (0, 1), BuildingBlock: TEMPAE_clean_linker_10, # of connection points: 2
#     Edge 28, Type (0, 1), BuildingBlock: TEMPAE_clean_linker_10, # of connection points: 2
#     Edge 29, Type (0, 1), BuildingBlock: TEMPAE_clean_linker_10, # of connection points: 2
#     Edge 30, Type (0, 1), BuildingBlock: TEMPAE_clean_linker_10, # of connection points: 2
#     Edge 31, Type (0, 1), BuildingBlock: TEMPAE_clean_linker_10, # of connection points: 2
#     Edge 32, Type (0, 1), BuildingBlock: TEMPAE_clean_linker_10, # of connection points: 2
#     Edge 33, Type (0, 1), BuildingBlock: TEMPAE_clean_linker_10, # of connection points: 2
#     Edge 34, Type (0, 1), BuildingBlock: TEMPAE_clean_linker_10, # of connection points: 2
#     Edge 35, Type (0, 1), BuildingBlock: TEMPAE_clean_linker_10, # of connection points: 2
# Relax obj value: 0.096
# Max RMSD: 0.116
# Mean RMSD: 0.093
data_MOF--net-dag--node1-OJICUG_clean_sbu_0--node2-PAMTOO_clean_linker_0--edge1-TEMPAE_clean_linker_10
_symmetry_space_group_name_H-M    P1
_symmetry_Int_Tables_number       1
_symmetry_cell_setting            triclinic
loop_
_symmetry_equiv_pos_as_xyz
'x, y, z'
_cell_length_a     37.745472
_cell_length_b     38.835448
_cell_length_c     39.671694
_cell_angle_alpha  90.013054
_cell_angle_beta   94.743102
_cell_angle_gamma 89.962844
loop_
_atom_site_label
_atom_site_type_symbol
_atom_site_fract_x
_atom_site_fract_y
_atom_site_fract_z
_atom_type_partial_charge
Sc0 Sc 0.11696 0.88517 0.9969 0.0
Sc1 Sc 0.13329 0.80116 0.96996 0.0
Sc2 Sc 0.20511 0.85513 -0.00092 0.0
O3 O 0.15187 0.84711 0.98868 0.0
C4 C 0.17908 0.92732 0.96654 0.0
C5 C 0.08158 0.85283 0.92793 0.0
C6 C 0.20259 0.81287 0.93019 0.0
C7 C 0.07611 0.81986 0.0222 0.0
C8 C 0.1742 0.89409 0.06061 0.0
C9 C 0.19563 0.77756 0.02418 0.0
O10 O 0.14649 0.92234 0.97086 0.0
O11 O 0.09863 0.82458 0.93025 0.0
O12 O 0.21729 0.83454 0.95093 0.0
O13 O 0.08401 0.85166 0.02378 0.0
O14 O 0.19885 0.87677 0.04859 0.0
O15 O 0.16584 0.7727 0.00744 0.0
O16 O 0.14431 0.89944 0.04431 0.0
O17 O 0.09087 0.79881 0.00316 0.0
O18 O 0.21316 0.80543 0.02284 0.0
O19 O 0.08497 0.87608 0.95047 0.0
O20 O 0.2034 0.90596 0.97638 0.0
O21 O 0.17315 0.79838 0.93453 0.0
Sc22 Sc 0.69755 0.64378 0.4961 0.0
Sc23 Sc 0.627 0.70057 0.46976 0.0
Sc24 Sc 0.60851 0.61636 0.49495 0.0
O25 O 0.6444 0.65359 0.48699 0.0
C26 C 0.66942 0.57206 0.46447 0.0
C27 C 0.69332 0.68567 0.4268 0.0
C28 C 0.57325 0.65052 0.42711 0.0
C29 C 0.69186 0.72115 0.52277 0.0
C30 C 0.6655 0.60681 0.55855 0.0
C31 C 0.5698 0.68323 0.52155 0.0
O32 O 0.69424 0.59338 0.47264 0.0
O33 O 0.66453 0.70091 0.43218 0.0
O34 O 0.57832 0.62546 0.44752 0.0
O35 O 0.70787 0.69249 0.52101 0.0
O36 O 0.63491 0.60288 0.54308 0.0
O37 O 0.58692 0.70465 0.50498 0.0
O38 O 0.69103 0.62188 0.5455 0.0
O39 O 0.66246 0.72756 0.50598 0.0
O40 O 0.5751 0.65092 0.52049 0.0
O41 O 0.70893 0.6645 0.44757 0.0
O42 O 0.63734 0.57755 0.4703 0.0
O43 O 0.58874 0.6794 0.43177 0.0
Sc44 Sc 0.86416 0.19737 0.06173 0.0
Sc45 Sc 0.79424 0.14168 0.03103 0.0
Sc46 Sc 0.88291 0.11261 0.03824 0.0
O47 O 0.84704 0.15058 0.04366 0.0
C48 C 0.92457 0.17835 0.01357 0.0
C49 C 0.80375 0.21844 0.00409 0.0
C50 C 0.83005 0.10255 0.97181 0.0
C51 C 0.79323 0.1857 0.09894 0.0
C52 C 0.91398 0.14662 0.10778 0.0
C53 C 0.81888 0.07034 0.06578 0.0
O54 O 0.90702 0.20012 0.02935 0.0
O55 O 0.78718 0.18997 0.00454 0.0
O56 O 0.85969 0.09869 0.98901 0.0
O57 O 0.82336 0.19954 0.09621 0.0
O58 O 0.91006 0.12172 0.08707 0.0
O59 O 0.79482 0.09193 0.05593 0.0
O60 O 0.89926 0.17578 0.10228 0.0
O61 O 0.77913 0.1644 0.07743 0.0
O62 O 0.85148 0.075 0.06145 0.0
O63 O 0.8318 0.2246 0.02313 0.0
O64 O 0.91857 0.14616 0.01434 0.0
O65 O 0.80378 0.11814 0.98305 0.0
Sc66 Sc 0.38563 0.37736 0.53615 0.0
Sc67 Sc 0.29799 0.34848 0.5427 0.0
Sc68 Sc 0.37142 0.29504 0.56877 0.0
O69 O 0.35163 0.34025 0.54913 0.0
C70 C 0.42522 0.30985 0.5128 0.0
C71 C 0.32439 0.38142 0.47545 0.0
C72 C 0.30469 0.2696 0.52055 0.0
C73 C 0.32577 0.42257 0.56763 0.0
C74 C 0.42481 0.34967 0.60527 0.0
C75 C 0.30727 0.31088 0.61414 0.0
O76 O 0.41825 0.34184 0.5112 0.0
O77 O 0.30019 0.36784 0.49165 0.0
O78 O 0.3354 0.26485 0.53559 0.0
O79 O 0.35727 0.41751 0.55967 0.0
O80 O 0.40943 0.32051 0.60416 0.0
O81 O 0.29017 0.33072 0.59311 0.0
O82 O 0.41902 0.37245 0.58248 0.0
O83 O 0.30138 0.40012 0.56289 0.0
O84 O 0.33586 0.29574 0.60804 0.0
O85 O 0.35592 0.38616 0.48851 0.0
O86 O 0.41035 0.28949 0.53233 0.0
O87 O 0.28796 0.29796 0.52169 0.0
H88 H 0.12429 0.04184 0.2244 0.0
H89 H 0.13397 0.12125 0.30032 0.0
H90 H 0.21286 0.04127 0.29985 0.0
H91 H 0.19425 0.06446 0.37044 0.0
C92 C 0.18614 0.09124 0.36342 0.0
O93 O 0.19334 0.0973 0.3304 0.0
H94 H 0.15717 0.0942 0.36603 0.0
C95 C 0.13817 0.05305 0.24682 0.0
C96 C 0.1696 0.03769 0.26083 0.0
C97 C 0.12515 0.08331 0.26063 0.0
C98 C 0.14342 0.09768 0.2895 0.0
C99 C 0.17482 0.08228 0.30381 0.0
C100 C 0.18809 0.05248 0.2893 0.0
H101 H 0.33934 0.66766 0.59352 0.0
H102 H 0.27445 0.67329 0.67745 0.0
H103 H 0.34309 0.75741 0.6572 0.0
H104 H 0.3471 0.74438 0.72472 0.0
C105 C 0.32236 0.7295 0.72757 0.0
O106 O 0.29959 0.73294 0.6987 0.0
H107 H 0.32976 0.70191 0.73149 0.0
C108 C 0.32881 0.68247 0.61362 0.0
C109 C 0.34359 0.7148 0.62221 0.0
C110 C 0.30363 0.66724 0.6331 0.0
C111 C 0.29279 0.68506 0.66127 0.0
C112 C 0.30691 0.71761 0.6696 0.0
C113 C 0.33156 0.73274 0.64971 0.0
H114 H 0.84361 0.8332 0.0985 0.0
H115 H 0.77263 0.81885 0.17674 0.0
H116 H 0.85266 0.74317 0.16172 0.0
H117 H 0.78449 0.71347 0.18328 0.0
C118 C 0.77527 0.73654 0.19673 0.0
O119 O 0.80176 0.76101 0.19856 0.0
H120 H 0.75083 0.74681 0.1826 0.0
C121 C 0.83342 0.81717 0.11788 0.0
C122 C 0.85096 0.78627 0.12712 0.0
C123 C 0.80503 0.82926 0.13538 0.0
C124 C 0.79392 0.80971 0.16232 0.0
C125 C 0.8109 0.77854 0.17133 0.0
C126 C 0.83922 0.76684 0.1538 0.0
H127 H 0.60956 0.47086 0.7384 0.0
H128 H 0.63354 0.38871 0.80936 0.0
H129 H 0.70835 0.471 0.80079 0.0
H130 H 0.74647 0.40881 0.82076 0.0
C131 C 0.72276 0.39271 0.82438 0.0
O132 O 0.69523 0.41377 0.83258 0.0
H133 H 0.71517 0.37879 0.80027 0.0
C134 C 0.62666 0.45982 0.75895 0.0
C135 C 0.65968 0.47511 0.76831 0.0
C136 C 0.61706 0.42856 0.77336 0.0
C137 C 0.64031 0.41314 0.79836 0.0
C138 C 0.67279 0.42892 0.80877 0.0
C139 C 0.68256 0.45974 0.79362 0.0
H140 H 0.65229 0.32835 0.43401 0.0
H141 H 0.64737 0.2388 0.36999 0.0
H142 H 0.71555 0.323 0.34887 0.0
H143 H 0.65929 0.29402 0.29519 0.0
C144 C 0.66723 0.26657 0.299 0.0
O145 O 0.69014 0.26338 0.32782 0.0
H146 H 0.6428 0.25123 0.30188 0.0
C147 C 0.66229 0.31367 0.41356 0.0
C148 C 0.68717 0.32896 0.39376 0.0
C149 C 0.64744 0.2813 0.40519 0.0
C150 C 0.65881 0.26356 0.37726 0.0
C151 C 0.683 0.27881 0.35694 0.0
C152 C 0.69735 0.31129 0.36522 0.0
H153 H 0.15777 0.16614 0.94034 0.0
H154 H 0.15201 0.25858 0.88054 0.0
H155 H 0.23057 0.18186 0.86389 0.0
H156 H 0.25443 0.25347 0.86218 0.0
C157 C 0.23095 0.26468 0.84725 0.0
O158 O 0.2035 0.24125 0.84411 0.0
H159 H 0.22209 0.28801 0.86051 0.0
C160 C 0.16874 0.18264 0.92177 0.0
C161 C 0.19711 0.17061 0.90422 0.0
C162 C 0.15212 0.21419 0.91341 0.0
C163 C 0.16485 0.23442 0.88779 0.0
C164 C 0.19332 0.22286 0.87038 0.0
C165 C 0.20927 0.19095 0.87833 0.0
H166 H 0.35394 0.55902 0.32884 0.0
H167 H 0.3424 0.62689 0.24304 0.0
H168 H 0.26809 0.54404 0.25196 0.0
H169 H 0.28366 0.56532 0.17525 0.0
C170 C 0.29415 0.59097 0.18354 0.0
O171 O 0.28454 0.59741 0.21578 0.0
H172 H 0.32361 0.59078 0.18314 0.0
C173 C 0.3396 0.5669 0.30526 0.0
C174 C 0.30937 0.54843 0.29287 0.0
C175 C 0.35197 0.59499 0.28746 0.0
C176 C 0.33364 0.60479 0.2568 0.0
C177 C 0.30351 0.58631 0.244 0.0
C178 C 0.29168 0.55783 0.26174 0.0
H179 H 0.89614 0.96546 0.7927 0.0
H180 H 0.87364 0.8838 0.72088 0.0
H181 H 0.79719 0.96451 0.73055 0.0
H182 H 0.76094 0.90213 0.71215 0.0
C183 C 0.78426 0.88635 0.70638 0.0
O184 O 0.81133 0.90792 0.69817 0.0
H185 H 0.79308 0.87093 0.72925 0.0
C186 C 0.87919 0.95436 0.77209 0.0
C187 C 0.84582 0.96913 0.76302 0.0
C188 C 0.88941 0.92352 0.75724 0.0
C189 C 0.8664 0.90795 0.73216 0.0
C190 C 0.83356 0.92322 0.72203 0.0
C191 C 0.82322 0.95366 0.73755 0.0
C192 C 0.20641 0.89827 0.11876 0.0
C193 C 0.18052 0.91056 0.09426 0.0
C194 C 0.2116 0.91415 0.15073 0.0
C195 C 0.19079 0.9432 0.15793 0.0
C196 C 0.1651 0.95596 0.133 0.0
C197 C 0.16015 0.93937 0.10171 0.0
C198 C 0.23879 0.89958 0.17691 0.0
C199 C 0.14261 0.98721 0.13932 0.0
C200 C 0.16487 0.9772 0.24095 0.0
C201 C 0.18384 0.00816 0.24295 0.0
C202 C 0.17042 0.95303 0.21564 0.0
C203 C 0.19479 0.96067 0.19139 0.0
C204 C 0.21673 0.99021 0.19571 0.0
C205 C 0.21102 0.01366 0.22164 0.0
C206 C 0.14705 0.9215 0.21246 0.0
C207 C 0.24295 0.99945 0.17045 0.0
H208 H 0.22216 0.87595 0.11315 0.0
H209 H 0.14041 0.94935 0.0828 0.0
H210 H 0.25746 0.92001 0.18663 0.0
H211 H 0.22524 0.88979 0.19875 0.0
H212 H 0.2543 0.8782 0.16669 0.0
H213 H 0.12475 0.99449 0.11678 0.0
H214 H 0.12601 0.98207 0.16057 0.0
H215 H 0.15991 0.00954 0.14659 0.0
H216 H 0.14375 0.97315 0.25748 0.0
H217 H 0.22541 0.03785 0.22313 0.0
H218 H 0.16213 0.89883 0.20439 0.0
H219 H 0.12478 0.92616 0.19293 0.0
H220 H 0.13562 0.91537 0.23667 0.0
H221 H 0.25717 0.97629 0.16229 0.0
H222 H 0.26278 0.01857 0.18095 0.0
H223 H 0.22838 0.01081 0.14765 0.0
C224 C 0.52027 0.67276 0.55822 0.0
C225 C 0.54016 0.696 0.5404 0.0
C226 C 0.48916 0.68319 0.57217 0.0
C227 C 0.47771 0.71781 0.56847 0.0
C228 C 0.49861 0.74191 0.55224 0.0
C229 C 0.52961 0.7307 0.53829 0.0
C230 C 0.46771 0.65668 0.58959 0.0
C231 C 0.48744 0.77911 0.54824 0.0
C232 C 0.37846 0.72124 0.57173 0.0
C233 C 0.37593 0.72599 0.60646 0.0
C234 C 0.41155 0.72186 0.55816 0.0
C235 C 0.44266 0.72759 0.5799 0.0
C236 C 0.43979 0.73642 0.61415 0.0
C237 C 0.40638 0.73539 0.62711 0.0
C238 C 0.41347 0.71277 0.52135 0.0
C239 C 0.47228 0.74336 0.63797 0.0
H240 H 0.5283 0.64599 0.56031 0.0
H241 H 0.54485 0.74894 0.52472 0.0
H242 H 0.46295 0.66552 0.61542 0.0
H243 H 0.44137 0.65337 0.57534 0.0
H244 H 0.48111 0.6312 0.59158 0.0
H245 H 0.50925 0.79556 0.54011 0.0
H246 H 0.46453 0.78105 0.52894 0.0
H247 H 0.4787 0.78941 0.57229 0.0
H248 H 0.35484 0.71458 0.55562 0.0
H249 H 0.40469 0.73901 0.65403 0.0
H250 H 0.42364 0.68608 0.51939 0.0
H251 H 0.43213 0.7301 0.50941 0.0
H252 H 0.38703 0.71431 0.50689 0.0
H253 H 0.48532 0.71856 0.64536 0.0
H254 H 0.46533 0.75666 0.66133 0.0
H255 H 0.49186 0.75925 0.62556 0.0
C256 C 0.77318 0.02818 0.08373 0.0
C257 C 0.8089 0.03726 0.08123 0.0
C258 C 0.76404 0.99535 0.09531 0.0
C259 C 0.79122 0.97106 0.10414 0.0
C260 C 0.82728 0.98064 0.10302 0.0
C261 C 0.83562 0.01356 0.09184 0.0
C262 C 0.72533 0.98631 0.0968 0.0
C263 C 0.85723 0.95558 0.11223 0.0
C264 C 0.78811 0.88839 0.15355 0.0
C265 C 0.79063 0.8642 0.12759 0.0
C266 C 0.78401 0.9236 0.14612 0.0
C267 C 0.78286 0.93468 0.11204 0.0
C268 C 0.78129 0.90997 0.08572 0.0
C269 C 0.78501 0.87498 0.09385 0.0
C270 C 0.78468 0.94909 0.17486 0.0
C271 C 0.77976 0.92057 0.04902 0.0
H272 H 0.7523 0.04633 0.07583 0.0
H273 H 0.86333 0.02028 0.09046 0.0
H274 H 0.71654 0.96986 0.07482 0.0
H275 H 0.72119 0.97149 0.12006 0.0
H276 H 0.70823 0.00963 0.09605 0.0
H277 H 0.88385 0.96748 0.11099 0.0
H278 H 0.85533 0.94555 0.13819 0.0
H279 H 0.85515 0.93325 0.09471 0.0
H280 H 0.79227 0.88025 0.17972 0.0
H281 H 0.78612 0.85621 0.07371 0.0
H282 H 0.76606 0.97072 0.16863 0.0
H283 H 0.8118 0.96005 0.17935 0.0
H284 H 0.77762 0.93673 0.19866 0.0
H285 H 0.75972 0.94114 0.04359 0.0
H286 H 0.77325 0.89855 0.03172 0.0
H287 H 0.806 0.93105 0.04342 0.0
C288 C 0.47888 0.38061 0.62931 0.0
C289 C 0.45119 0.35751 0.63392 0.0
C290 C 0.50421 0.38873 0.65591 0.0
C291 C 0.50139 0.37398 0.68823 0.0
C292 C 0.47337 0.35077 0.69318 0.0
C293 C 0.44877 0.34246 0.6658 0.0
C294 C 0.53402 0.41319 0.64936 0.0
C295 C 0.4691 0.33516 0.72744 0.0
C296 C 0.58824 0.37851 0.74303 0.0
C297 C 0.58491 0.41055 0.75865 0.0
C298 C 0.56014 0.36484 0.72177 0.0
C299 C 0.5279 0.38352 0.71654 0.0
C300 C 0.52342 0.41436 0.73477 0.0
C301 C 0.55218 0.42775 0.75532 0.0
C302 C 0.5662 0.33211 0.70253 0.0
C303 C 0.48923 0.43468 0.73051 0.0
H304 H 0.48105 0.39206 0.60464 0.0
H305 H 0.42721 0.32479 0.66951 0.0
H306 H 0.53248 0.43652 0.66531 0.0
H307 H 0.5601 0.4008 0.65633 0.0
H308 H 0.53315 0.42134 0.62247 0.0
H309 H 0.44574 0.31773 0.72714 0.0
H310 H 0.4933 0.32041 0.7362 0.0
H311 H 0.46596 0.35588 0.74623 0.0
H312 H 0.61371 0.36541 0.74536 0.0
H313 H 0.54968 0.45253 0.76751 0.0
H314 H 0.56939 0.33851 0.67568 0.0
H315 H 0.54302 0.31464 0.70294 0.0
H316 H 0.59039 0.3182 0.71297 0.0
H317 H 0.48732 0.44784 0.7056 0.0
H318 H 0.48782 0.45452 0.75054 0.0
H319 H 0.46591 0.41737 0.73099 0.0
C320 C 0.71315 0.52976 0.44321 0.0
C321 C 0.67808 0.53843 0.44926 0.0
C322 C 0.7215 0.4968 0.4314 0.0
C323 C 0.69422 0.47195 0.42586 0.0
C324 C 0.65869 0.48092 0.43089 0.0
C325 C 0.65108 0.51398 0.44232 0.0
C326 C 0.75959 0.48826 0.42585 0.0
C327 C 0.62873 0.45518 0.42534 0.0
C328 C 0.69599 0.38975 0.37501 0.0
C329 C 0.69831 0.36508 0.40093 0.0
C330 C 0.69811 0.42506 0.38255 0.0
C331 C 0.70235 0.4358 0.41676 0.0
C332 C 0.70811 0.41093 0.44272 0.0
C333 C 0.70616 0.37586 0.43446 0.0
C334 C 0.69253 0.45078 0.35409 0.0
C335 C 0.71288 0.42121 0.47952 0.0
H336 H 0.73421 0.54846 0.44831 0.0
H337 H 0.62385 0.5203 0.44666 0.0
H338 H 0.77027 0.4698 0.44547 0.0
H339 H 0.76121 0.47567 0.40092 0.0
H340 H 0.7768 0.5115 0.42711 0.0
H341 H 0.60243 0.4666 0.42944 0.0
H342 H 0.62765 0.44483 0.39922 0.0
H343 H 0.6335 0.43314 0.44293 0.0
H344 H 0.68987 0.38165 0.34904 0.0
H345 H 0.70864 0.35681 0.4545 0.0
H346 H 0.71075 0.47305 0.35833 0.0
H347 H 0.66491 0.46077 0.35309 0.0
H348 H 0.69671 0.43899 0.32921 0.0
H349 H 0.73221 0.44263 0.48332 0.0
H350 H 0.72215 0.39936 0.49605 0.0
H351 H 0.6871 0.43045 0.4877 0.0
C352 C 0.97502 0.16705 0.97813 0.0
C353 C 0.95479 0.19064 0.99524 0.0
C354 C 0.00591 0.17737 0.96374 0.0
C355 C 0.01685 0.2122 0.96635 0.0
C356 C 0.99575 0.23654 0.98209 0.0
C357 C 0.96494 0.22546 0.99644 0.0
C358 C 0.02764 0.15061 0.94694 0.0
C359 C 0.00644 0.27394 0.98499 0.0
C360 C 0.11608 0.21806 0.96317 0.0
C361 C 0.11871 0.22297 0.92849 0.0
C362 C 0.0829 0.2175 0.97652 0.0
C363 C 0.05172 0.22205 0.95458 0.0
C364 C 0.05446 0.23047 0.92019 0.0
C365 C 0.08804 0.23078 0.90748 0.0
C366 C 0.08112 0.20879 0.01344 0.0
C367 C 0.02184 0.23594 0.89612 0.0
H368 H 0.9673 0.14018 0.97675 0.0
H369 H 0.94941 0.24396 0.00942 0.0
H370 H 0.0323 0.15885 0.92091 0.0
H371 H 0.05403 0.14785 0.96125 0.0
H372 H 0.01453 0.12499 0.94558 0.0
H373 H 0.98489 0.2903 0.99383 0.0
H374 H 0.0302 0.27651 0.00322 0.0
H375 H 0.01375 0.28385 0.96028 0.0
H376 H 0.13988 0.21252 0.9795 0.0
H377 H 0.08995 0.23447 0.88061 0.0
H378 H 0.07133 0.18202 0.01573 0.0
H379 H 0.06219 0.22604 0.02517 0.0
H380 H 0.10752 0.21082 0.02791 0.0
H381 H 0.00944 0.21066 0.88956 0.0
H382 H 0.02844 0.24864 0.87234 0.0
H383 H 0.00183 0.25179 0.90803 0.0
C384 C 0.27972 0.39999 0.42825 0.0
C385 C 0.31525 0.39561 0.44108 0.0
C386 C 0.27117 0.41962 0.39888 0.0
C387 C 0.29877 0.43547 0.3824 0.0
C388 C 0.33466 0.42847 0.3935 0.0
C389 C 0.34241 0.40846 0.4225 0.0
C390 C 0.23262 0.42545 0.38709 0.0
C391 C 0.36503 0.44464 0.37662 0.0
C392 C 0.29409 0.48626 0.30066 0.0
C393 C 0.29694 0.51984 0.31352 0.0
C394 C 0.29094 0.45809 0.32252 0.0
C395 C 0.29102 0.46393 0.3578 0.0
C396 C 0.29027 0.4981 0.37021 0.0
C397 C 0.2931 0.52561 0.34786 0.0
C398 C 0.29061 0.42212 0.30818 0.0
C399 C 0.29014 0.50567 0.40757 0.0
H400 H 0.25849 0.38975 0.44208 0.0
H401 H 0.36998 0.40459 0.43167 0.0
H402 H 0.22386 0.45056 0.39684 0.0
H403 H 0.22872 0.42628 0.35907 0.0
H404 H 0.21536 0.40502 0.39651 0.0
H405 H 0.39127 0.43414 0.38643 0.0
H406 H 0.36172 0.44044 0.34891 0.0
H407 H 0.36514 0.47287 0.38107 0.0
H408 H 0.29686 0.48183 0.27402 0.0
H409 H 0.29471 0.5517 0.35763 0.0
H410 H 0.27322 0.40492 0.32188 0.0
H411 H 0.31792 0.41135 0.31105 0.0
H412 H 0.28142 0.42196 0.28084 0.0
H413 H 0.26906 0.49067 0.41877 0.0
H414 H 0.28586 0.53344 0.41261 0.0
H415 H 0.31602 0.49788 0.42068 0.0
C416 C 0.02686 0.88116 0.90187 0.0
C417 C 0.05561 0.8589 0.89848 0.0
C418 C 0.00178 0.88774 0.87466 0.0
C419 C 0.00582 0.87221 0.84291 0.0
C420 C 0.03478 0.84969 0.83918 0.0
C421 C 0.0592 0.84298 0.86719 0.0
C422 C 0.97095 0.91146 0.87996 0.0
C423 C 0.04026 0.83323 0.80555 0.0
C424 C 0.91942 0.87399 0.78743 0.0
C425 C 0.92202 0.90601 0.77161 0.0
C426 C 0.94783 0.86101 0.80878 0.0
C427 C 0.97962 0.88039 0.81391 0.0
C428 C 0.98347 0.91108 0.79527 0.0
C429 C 0.9544 0.92377 0.77464 0.0
C430 C 0.94243 0.82841 0.82842 0.0
C431 C 0.01714 0.93213 0.79942 0.0
H432 H 0.02369 0.89323 0.92609 0.0
H433 H 0.08149 0.82588 0.86442 0.0
H434 H 0.97209 0.93445 0.86349 0.0
H435 H 0.94541 0.89818 0.8728 0.0
H436 H 0.97091 0.92028 0.9066 0.0
H437 H 0.06365 0.81575 0.80701 0.0
H438 H 0.01631 0.81837 0.79632 0.0
H439 H 0.04413 0.85352 0.78651 0.0
H440 H 0.89421 0.86044 0.7853 0.0
H441 H 0.95634 0.94852 0.76228 0.0
H442 H 0.9382 0.83514 0.85498 0.0
H443 H 0.96628 0.81167 0.82894 0.0
H444 H 0.919 0.8136 0.81763 0.0
H445 H 0.01837 0.94597 0.82396 0.0
H446 H 0.01834 0.95148 0.77891 0.0
H447 H 0.0409 0.91528 0.79966 0.0
C448 C 0.84601 0.05739 0.93143 0.0
C449 C 0.82614 0.08684 0.93775 0.0
C450 C 0.84382 0.04204 0.89943 0.0
C451 C 0.82171 0.05687 0.87272 0.0
C452 C 0.80137 0.08656 0.87886 0.0
C453 C 0.80352 0.10104 0.91152 0.0
C454 C 0.86549 0.00998 0.89424 0.0
C455 C 0.77808 0.10341 0.85083 0.0
C456 C 0.85453 0.02654 0.79066 0.0
C457 C 0.83332 0.99734 0.7841 0.0
C458 C 0.84838 0.04879 0.81742 0.0
C459 C 0.82094 0.04105 0.83851 0.0
C460 C 0.79742 0.0134 0.82996 0.0
C461 C 0.80379 0.99195 0.80262 0.0
C462 C 0.87352 0.07849 0.82513 0.0
C463 C 0.76804 0.00403 0.85187 0.0
H464 H 0.8632 0.04606 0.95172 0.0
H465 H 0.78828 0.12393 0.91632 0.0
H466 H 0.84793 0.98892 0.88391 0.0
H467 H 0.88516 0.01516 0.87559 0.0
H468 H 0.88002 0.00084 0.91807 0.0
H469 H 0.76246 0.1252 0.86012 0.0
H470 H 0.79483 0.11322 0.83123 0.0
H471 H 0.75945 0.08434 0.83838 0.0
H472 H 0.87728 0.03074 0.77618 0.0
H473 H 0.78754 0.96919 0.79769 0.0
H474 H 0.89296 0.07142 0.84653 0.0
H475 H 0.85889 0.10162 0.83279 0.0
H476 H 0.88848 0.08515 0.80306 0.0
H477 H 0.77971 0.99097 0.87508 0.0
H478 H 0.74837 0.98635 0.83862 0.0
H479 H 0.75399 0.02734 0.85987 0.0
C480 C 0.47262 0.31953 0.47361 0.0
C481 C 0.45429 0.29671 0.49335 0.0
C482 C 0.50335 0.30924 0.45893 0.0
C483 C 0.51593 0.27509 0.46367 0.0
C484 C 0.49647 0.25125 0.48178 0.0
C485 C 0.46591 0.2624 0.49661 0.0
C486 C 0.52326 0.33552 0.43966 0.0
C487 C 0.5087 0.21447 0.48678 0.0
C488 C 0.5854 0.25843 0.4029 0.0
C489 C 0.61611 0.26943 0.42227 0.0
C490 C 0.5527 0.25625 0.41717 0.0
C491 C 0.55076 0.26577 0.45138 0.0
C492 C 0.58233 0.2731 0.47191 0.0
C493 C 0.61473 0.27463 0.45711 0.0
C494 C 0.51976 0.24734 0.3947 0.0
C495 C 0.58146 0.28305 0.50862 0.0
H496 H 0.46378 0.34599 0.47061 0.0
H497 H 0.45184 0.24447 0.51163 0.0
H498 H 0.55006 0.33979 0.45269 0.0
H499 H 0.52698 0.3259 0.41386 0.0
H500 H 0.50924 0.36068 0.43738 0.0
H501 H 0.48738 0.19777 0.49549 0.0
H502 H 0.51765 0.20367 0.46301 0.0
H503 H 0.53168 0.21362 0.5061 0.0
H504 H 0.58614 0.25431 0.37594 0.0
H505 H 0.63859 0.28234 0.47233 0.0
H506 H 0.50546 0.27138 0.38686 0.0
H507 H 0.50141 0.23121 0.40839 0.0
H508 H 0.52639 0.23349 0.37153 0.0
H509 H 0.57031 0.3094 0.51024 0.0
H510 H 0.60841 0.28283 0.52221 0.0
H511 H 0.56407 0.26537 0.52171 0.0
C512 C 0.22468 0.96954 0.94878 0.0
C513 C 0.18896 0.96062 0.9515 0.0
C514 C 0.23398 0.0026 0.93801 0.0
C515 C 0.20695 0.0273 0.93021 0.0
C516 C 0.17084 0.01791 0.93141 0.0
C517 C 0.16233 0.98474 0.94181 0.0
C518 C 0.27272 0.01148 0.93641 0.0
C519 C 0.14109 0.04344 0.92325 0.0
C520 C 0.2154 0.12288 0.944 0.0
C521 C 0.21027 0.13502 0.91069 0.0
C522 C 0.21797 0.08754 0.9508 0.0
C523 C 0.21568 0.06386 0.92357 0.0
C524 C 0.21477 0.07619 0.88992 0.0
C525 C 0.21189 0.11175 0.88382 0.0
C526 C 0.21922 0.07556 0.98709 0.0
C527 C 0.21322 0.05179 0.86023 0.0
H528 H 0.24549 0.95107 0.95595 0.0
H529 H 0.13462 0.97815 0.94342 0.0
H530 H 0.27677 0.02638 0.91318 0.0
H531 H 0.28169 0.02784 0.9584 0.0
H532 H 0.28973 0.9881 0.93697 0.0
H533 H 0.11439 0.0316 0.92409 0.0
H534 H 0.1434 0.06502 0.94164 0.0
H535 H 0.14302 0.05452 0.89771 0.0
H536 H 0.21486 0.14093 0.96481 0.0
H537 H 0.20802 0.12098 0.85799 0.0
H538 H 0.23887 0.05452 0.99177 0.0
H539 H 0.19279 0.06525 0.99227 0.0
H540 H 0.22612 0.09682 0.0052 0.0
H541 H 0.23129 0.02955 0.86552 0.0
H542 H 0.22041 0.06486 0.83684 0.0
H543 H 0.1858 0.04159 0.85556 0.0
C544 C 0.53254 0.61357 0.38981 0.0
C545 C 0.54582 0.64643 0.39839 0.0
C546 C 0.50275 0.60937 0.36669 0.0
C547 C 0.48571 0.63876 0.35174 0.0
C548 C 0.50044 0.67182 0.35835 0.0
C549 C 0.53041 0.67529 0.38162 0.0
C550 C 0.48815 0.57357 0.36006 0.0
C551 C 0.48324 0.70371 0.34263 0.0
C552 C 0.41388 0.61639 0.28255 0.0
C553 C 0.38431 0.61324 0.30147 0.0
C554 C 0.44692 0.62709 0.298 0.0
C555 C 0.45014 0.63479 0.33303 0.0
C556 C 0.41958 0.63426 0.35147 0.0
C557 C 0.38706 0.62343 0.33545 0.0
C558 C 0.4788 0.62767 0.27744 0.0
C559 C 0.4217 0.6426 0.38878 0.0
H560 H 0.54459 0.59106 0.40219 0.0
H561 H 0.54057 0.70079 0.38792 0.0
H562 H 0.46235 0.57096 0.37137 0.0
H563 H 0.48314 0.56898 0.33249 0.0
H564 H 0.50644 0.55328 0.37095 0.0
H565 H 0.50108 0.72645 0.34554 0.0
H566 H 0.47552 0.69961 0.31534 0.0
H567 H 0.45863 0.70954 0.35503 0.0
H568 H 0.41174 0.60841 0.25626 0.0
H569 H 0.36402 0.62135 0.34994 0.0
H570 H 0.49557 0.60472 0.28378 0.0
H571 H 0.49536 0.65079 0.28349 0.0
H572 H 0.4709 0.6273 0.24983 0.0
H573 H 0.43693 0.62215 0.40315 0.0
H574 H 0.39499 0.64451 0.39849 0.0
H575 H 0.43595 0.66726 0.3939 0.0
C576 C 0.28203 0.46518 0.58806 0.0
C577 C 0.31702 0.45677 0.58151 0.0
C578 C 0.27335 0.49841 0.59884 0.0
C579 C 0.30027 0.52375 0.60302 0.0
C580 C 0.33575 0.51514 0.5974 0.0
C581 C 0.34368 0.48182 0.58683 0.0
C582 C 0.2353 0.50665 0.60484 0.0
C583 C 0.36532 0.54143 0.60163 0.0
C584 C 0.28576 0.61946 0.59311 0.0
C585 C 0.29343 0.63083 0.62646 0.0
C586 C 0.28486 0.58425 0.58536 0.0
C587 C 0.2917 0.5599 0.61164 0.0
C588 C 0.29601 0.57115 0.64568 0.0
C589 C 0.2969 0.60658 0.65271 0.0
C590 C 0.27988 0.57335 0.54873 0.0
C591 C 0.30296 0.54597 0.67445 0.0
H592 H 0.26122 0.44603 0.58414 0.0
H593 H 0.37083 0.47567 0.58208 0.0
H594 H 0.23395 0.51901 0.62991 0.0
H595 H 0.2243 0.52525 0.58549 0.0
H596 H 0.21821 0.48333 0.60362 0.0
H597 H 0.39167 0.53026 0.59731 0.0
H598 H 0.35977 0.56292 0.58352 0.0
H599 H 0.36677 0.55252 0.62748 0.0
H600 H 0.28258 0.63821 0.57282 0.0
H601 H 0.30301 0.6152 0.67853 0.0
H602 H 0.26116 0.55137 0.54552 0.0
H603 H 0.30576 0.56469 0.54033 0.0
H604 H 0.26973 0.59473 0.532 0.0
H605 H 0.28517 0.5233 0.67101 0.0
H606 H 0.29921 0.55802 0.69931 0.0
H607 H 0.33075 0.53653 0.67489 0.0
C608 C 0.03593 0.77286 0.04009 0.0
C609 C 0.0466 0.80753 0.04148 0.0
C610 C 0.00552 0.76196 0.05524 0.0
C611 C 0.98524 0.78638 0.07183 0.0
C612 C 0.99676 0.82102 0.07463 0.0
C613 C 0.02734 0.8311 0.0596 0.0
C614 C 0.99434 0.7247 0.0523 0.0
C615 C 0.97587 0.84789 0.0922 0.0
C616 C 0.88614 0.78193 0.07671 0.0
C617 C 0.88409 0.77727 0.11152 0.0
C618 C 0.91903 0.78199 0.06277 0.0
C619 C 0.9505 0.77693 0.08418 0.0
C620 C 0.94827 0.76861 0.11866 0.0
C621 C 0.915 0.76903 0.13201 0.0
C622 C 0.92024 0.79074 0.02579 0.0
C623 C 0.98119 0.76239 0.14213 0.0
H624 H 0.05077 0.75435 0.0264 0.0
H625 H 0.0354 0.85788 0.06109 0.0
H626 H 0.98704 0.71481 0.07702 0.0
H627 H 0.97047 0.72245 0.03415 0.0
H628 H 0.01563 0.70813 0.04329 0.0
H629 H 0.98929 0.87336 0.09342 0.0
H630 H 0.94919 0.85103 0.07854 0.0
H631 H 0.97184 0.83953 0.11833 0.0
H632 H 0.86217 0.78763 0.0607 0.0
H633 H 0.91362 0.76544 0.15897 0.0
H634 H 0.93846 0.77309 0.01363 0.0
H635 H 0.93062 0.81729 0.02342 0.0
H636 H 0.89355 0.78934 0.01178 0.0
H637 H 0.00064 0.74631 0.12972 0.0
H638 H 0.97481 0.7496 0.16594 0.0
H639 H 0.99416 0.7874 0.14874 0.0
C640 C 0.69492 0.60658 0.61782 0.0
C641 C 0.6714 0.59168 0.59274 0.0
C642 C 0.69882 0.59268 0.65072 0.0
C643 C 0.67932 0.56287 0.65823 0.0
C644 C 0.65632 0.54732 0.63261 0.0
C645 C 0.65241 0.5621 0.60039 0.0
C646 C 0.72298 0.61033 0.67758 0.0
C647 C 0.6355 0.5151 0.63924 0.0
C648 C 0.70063 0.49871 0.72822 0.0
C649 C 0.67162 0.50376 0.74751 0.0
C650 C 0.70592 0.52025 0.70068 0.0
C651 C 0.68185 0.54763 0.69274 0.0
C652 C 0.65517 0.55521 0.71473 0.0
C653 C 0.65006 0.53285 0.74166 0.0
C654 C 0.73457 0.51108 0.67785 0.0
C655 C 0.62953 0.58467 0.70772 0.0
H656 H 0.70947 0.62959 0.61199 0.0
H657 H 0.63452 0.55025 0.58095 0.0
H658 H 0.7069 0.62085 0.69738 0.0
H659 H 0.74198 0.59161 0.6901 0.0
H660 H 0.7382 0.63175 0.66712 0.0
H661 H 0.62015 0.50535 0.61609 0.0
H662 H 0.65375 0.49444 0.64929 0.0
H663 H 0.61661 0.5204 0.6586 0.0
H664 H 0.71716 0.47604 0.73263 0.0
H665 H 0.6277 0.53676 0.75674 0.0
H666 H 0.74781 0.5345 0.66904 0.0
H667 H 0.72234 0.49751 0.65517 0.0
H668 H 0.75501 0.4939 0.69071 0.0
H669 H 0.64351 0.6078 0.69919 0.0
H670 H 0.61559 0.59146 0.7304 0.0
H671 H 0.60924 0.57722 0.68716 0.0
C672 C 0.94769 0.10828 0.14945 0.0
C673 C 0.9391 0.14171 0.13813 0.0
C674 C 0.97573 0.10237 0.17416 0.0
C675 C 0.99594 0.13055 0.18776 0.0
C676 C 0.9858 0.16455 0.17829 0.0
C677 C 0.95734 0.16976 0.15362 0.0
C678 C 0.98528 0.0657 0.18387 0.0
C679 C 0.00659 0.19527 0.1923 0.0
C680 C 0.06366 0.10796 0.26086 0.0
C681 C 0.09346 0.10023 0.2434 0.0
C682 C 0.03194 0.11962 0.24339 0.0
C683 C 0.03034 0.1238 0.2078 0.0
C684 C 0.06115 0.118 0.1905 0.0
C685 C 0.09225 0.1062 0.2085 0.0
C686 C -0.00031 0.12558 0.26269 0.0
C687 C 0.06079 0.12248 0.15264 0.0
H688 H 0.93333 0.08649 0.13799 0.0
H689 H 0.95082 0.19568 0.14507 0.0
H690 H 0.01062 0.05858 0.17333 0.0
H691 H 0.98936 0.06311 0.21176 0.0
H692 H 0.96448 0.04713 0.17423 0.0
H693 H 0.992 0.21978 0.187 0.0
H694 H 0.01275 0.19273 0.22002 0.0
H695 H 0.03226 0.19665 0.18061 0.0
H696 H 0.06464 0.10331 0.28787 0.0
H697 H 0.11551 0.10069 0.1951 0.0
H698 H 0.98025 0.10454 0.25697 0.0
H699 H 0.9864 0.15011 0.2548 0.0
H700 H 0.00658 0.12623 0.29046 0.0
H701 H 0.04319 0.1028 0.13973 0.0
H702 H 0.08772 0.11982 0.14355 0.0
H703 H 0.04999 0.14814 0.145 0.0
C704 C 0.18798 0.72486 0.05905 0.0
C705 C 0.2105 0.74954 0.04635 0.0
C706 C 0.2016 0.69867 0.08079 0.0
C707 C 0.23869 0.69672 0.08948 0.0
C708 C 0.26164 0.72112 0.07616 0.0
C709 C 0.24722 0.74747 0.05504 0.0
C710 C 0.17623 0.67351 0.09501 0.0
C711 C 0.3014 0.71949 0.08435 0.0
C712 C 0.27127 0.65155 0.17102 0.0
C713 C 0.27941 0.61853 0.15942 0.0
C714 C 0.25769 0.67708 0.14853 0.0
C715 C 0.25331 0.66986 0.11347 0.0
C716 C 0.2627 0.63703 0.10146 0.0
C717 C 0.27556 0.61172 0.12463 0.0
C718 C 0.24775 0.7117 0.16235 0.0
C719 C 0.2592 0.62868 0.06416 0.0
H720 H 0.15955 0.72645 0.05259 0.0
H721 H 0.26479 0.76629 0.04504 0.0
H722 H 0.1833 0.64679 0.08829 0.0
H723 H 0.17845 0.67522 0.12303 0.0
H724 H 0.14815 0.67839 0.08554 0.0
H725 H 0.31569 0.73934 0.07056 0.0
H726 H 0.30786 0.72322 0.11189 0.0
H727 H 0.31153 0.69371 0.0778 0.0
H728 H 0.27517 0.65746 0.19776 0.0
H729 H 0.28271 0.58651 0.11558 0.0
H730 H 0.21934 0.71728 0.15488 0.0
H731 H 0.26363 0.73231 0.15145 0.0
H732 H 0.25213 0.71295 0.19036 0.0
H733 H 0.23101 0.631 0.05405 0.0
H734 H 0.26863 0.60227 0.05887 0.0
H735 H 0.27469 0.6474 0.05021 0.0
C736 C 0.68599 0.77456 0.55727 0.0
C737 C 0.70719 0.7475 0.5468 0.0
C738 C 0.69922 0.79807 0.58206 0.0
C739 C 0.73465 0.79474 0.59643 0.0
C740 C 0.75656 0.76822 0.5852 0.0
C741 C 0.74252 0.74478 0.56068 0.0
C742 C 0.67489 0.82578 0.59366 0.0
C743 C 0.79463 0.76416 0.59961 0.0
C744 C 0.77613 0.87183 0.64375 0.0
C745 C 0.77309 0.86234 0.67753 0.0
C746 C 0.76432 0.8498 0.61707 0.0
C747 C 0.74822 0.81803 0.62433 0.0
C748 C 0.7445 0.80865 0.65834 0.0
C749 C 0.75695 0.83095 0.6845 0.0
C750 C 0.76887 0.86059 0.58112 0.0
C751 C 0.72699 0.77523 0.6671 0.0
H752 H 0.65862 0.77679 0.54686 0.0
H753 H 0.75917 0.72412 0.5526 0.0
H754 H 0.67087 0.82201 0.62081 0.0
H755 H 0.68716 0.8515 0.59119 0.0
H756 H 0.64849 0.82571 0.57902 0.0
H757 H 0.80881 0.74357 0.58667 0.0
H758 H 0.80924 0.78874 0.59739 0.0
H759 H 0.79532 0.75782 0.62692 0.0
H760 H 0.78771 0.89647 0.63812 0.0
H761 H 0.75382 0.82399 0.71055 0.0
H762 H 0.74249 0.86296 0.56677 0.0
H763 H 0.78398 0.84064 0.56831 0.0
H764 H 0.78303 0.88557 0.57981 0.0
H765 H 0.69938 0.77441 0.65511 0.0
H766 H 0.72618 0.77177 0.69483 0.0
H767 H 0.7415 0.75316 0.657 0.0
C768 C 0.73748 0.18826 0.12911 0.0
C769 C 0.77391 0.19512 0.12858 0.0
C770 C 0.71886 0.19845 0.15665 0.0
C771 C 0.73724 0.21554 0.18435 0.0
C772 C 0.77414 0.22179 0.18432 0.0
C773 C 0.79198 0.21165 0.15639 0.0
C774 C 0.67943 0.19158 0.15582 0.0
C775 C 0.79471 0.23962 0.2136 0.0
C776 C 0.68765 0.27412 0.24063 0.0
C777 C 0.68477 0.25321 0.26902 0.0
C778 C 0.70399 0.26186 0.21252 0.0
C779 C 0.71784 0.22796 0.21302 0.0
C780 C 0.71452 0.20656 0.24146 0.0
C781 C 0.69778 0.21943 0.26911 0.0
C782 C 0.70687 0.28532 0.18251 0.0
C783 C 0.72918 0.17036 0.24293 0.0
H784 H 0.72332 0.17556 0.10771 0.0
H785 H 0.82022 0.21673 0.15639 0.0
H786 H 0.67334 0.17674 0.17851 0.0
H787 H 0.6648 0.21634 0.15642 0.0
H788 H 0.6693 0.17706 0.13288 0.0
H789 H 0.82358 0.24131 0.2102 0.0
H790 H 0.78427 0.26608 0.21647 0.0
H791 H 0.79125 0.22566 0.2375 0.0
H792 H 0.67725 0.30015 0.24047 0.0
H793 H 0.69513 0.20326 0.29104 0.0
H794 H 0.69509 0.27272 0.15911 0.0
H795 H 0.73526 0.29033 0.17901 0.0
H796 H 0.6933 0.31039 0.18553 0.0
H797 H 0.71777 0.15528 0.2209 0.0
H798 H 0.72342 0.15674 0.26648 0.0
H799 H 0.75841 0.17105 0.24151 0.0
C800 C 0.31987 0.30063 0.67572 0.0
C801 C 0.2949 0.30651 0.64815 0.0
C802 C 0.30918 0.29613 0.70834 0.0
C803 C 0.27254 0.29679 0.7134 0.0
C804 C 0.24716 0.30313 0.68575 0.0
C805 C 0.25871 0.30835 0.65339 0.0
C806 C 0.3371 0.29016 0.7373 0.0
C807 C 0.20783 0.30347 0.69022 0.0
C808 C 0.24664 0.24695 0.7895 0.0
C809 C 0.24146 0.27343 0.81258 0.0
C810 C 0.2558 0.25432 0.75681 0.0
C811 C 0.2609 0.28898 0.74735 0.0
C812 C 0.25644 0.31584 0.77078 0.0
C813 C 0.24664 0.30771 0.8032 0.0
C814 C 0.26018 0.22501 0.73245 0.0
C815 C 0.26246 0.35302 0.76174 0.0
H816 H 0.34797 0.29983 0.67182 0.0
H817 H 0.23941 0.31294 0.63208 0.0
H818 H 0.33347 0.30861 0.7581 0.0
H819 H 0.33422 0.26387 0.74763 0.0
H820 H 0.36454 0.29298 0.72947 0.0
H821 H 0.19163 0.30992 0.6664 0.0
H822 H 0.19951 0.2778 0.699 0.0
H823 H 0.20192 0.32242 0.70991 0.0
H824 H 0.24316 0.2204 0.79703 0.0
H825 H 0.24311 0.32812 0.82127 0.0
H826 H 0.28805 0.22401 0.72556 0.0
H827 H 0.24295 0.22924 0.70877 0.0
H828 H 0.25342 0.19969 0.74324 0.0
H829 H 0.29028 0.35658 0.75531 0.0
H830 H 0.25737 0.37085 0.7827 0.0
H831 H 0.24488 0.36026 0.73906 0.0
C832 C 0.74384 0.68679 0.3895 0.0
C833 C 0.70767 0.69154 0.39378 0.0
C834 C 0.75715 0.69275 0.35798 0.0
C835 C 0.73354 0.70295 0.33015 0.0
C836 C 0.69691 0.70693 0.33421 0.0
C837 C 0.6845 0.70148 0.36601 0.0
C838 C 0.79648 0.68879 0.35457 0.0
C839 C 0.67078 0.71718 0.305 0.0
C840 C 0.76474 0.75309 0.25645 0.0
C841 C 0.7665 0.72731 0.2319 0.0
C842 C 0.75567 0.74516 0.28906 0.0
C843 C 0.747 0.71081 0.29694 0.0
C844 C 0.74844 0.68469 0.27218 0.0
C845 C 0.75822 0.69328 0.23987 0.0
C846 C 0.75452 0.7737 0.31483 0.0
C847 C 0.73859 0.64792 0.2795 0.0
H848 H 0.76179 0.67909 0.41092 0.0
H849 H 0.65639 0.70462 0.36902 0.0
H850 H 0.80102 0.67006 0.33425 0.0
H851 H 0.80776 0.71379 0.34717 0.0
H852 H 0.81115 0.67997 0.37844 0.0
H853 H 0.6429 0.71745 0.31205 0.0
H854 H 0.67737 0.74322 0.2959 0.0
H855 H 0.67259 0.6991 0.28355 0.0
H856 H 0.77037 0.77957 0.25008 0.0
H857 H 0.75894 0.67349 0.22066 0.0
H858 H 0.77033 0.76645 0.3386 0.0
H859 H 0.72673 0.77782 0.3211 0.0
H860 H 0.76492 0.7984 0.30557 0.0
H861 H 0.75437 0.63849 0.30248 0.0
H862 H 0.74298 0.63036 0.25812 0.0
H863 H 0.71016 0.64662 0.28461 0.0
C864 C 0.81272 0.27217 0.97096 0.0
C865 C 0.79044 0.24517 0.97952 0.0
C866 C 0.80117 0.29665 0.94645 0.0
C867 C 0.76632 0.29437 0.93042 0.0
C868 C 0.74341 0.26769 0.93948 0.0
C869 C 0.75582 0.24327 0.96374 0.0
C870 C 0.82653 0.32449 0.93717 0.0
C871 C 0.70592 0.26471 0.92324 0.0
C872 C 0.72793 0.37448 0.88608 0.0
C873 C 0.73233 0.3669 0.85208 0.0
C874 C 0.73826 0.35083 0.91182 0.0
C875 C 0.75425 0.31932 0.90343 0.0
C876 C 0.75934 0.31183 0.86923 0.0
C877 C 0.74835 0.33575 0.84401 0.0
C878 C 0.73227 0.35963 0.94798 0.0
C879 C 0.77679 0.27874 0.85933 0.0
H880 H 0.83959 0.27374 0.98284 0.0
H881 H 0.73834 0.22265 0.97034 0.0
H882 H 0.83132 0.32226 0.91004 0.0
H883 H 0.81472 0.35024 0.94083 0.0
H884 H 0.85252 0.32307 0.95246 0.0
H885 H 0.69095 0.24339 0.93416 0.0
H886 H 0.69132 0.28916 0.92639 0.0
H887 H 0.70649 0.26019 0.89567 0.0
H888 H 0.71644 0.39892 0.89262 0.0
H889 H 0.75253 0.33024 0.81783 0.0
H890 H 0.75812 0.3609 0.9634 0.0
H891 H 0.7163 0.33916 0.95902 0.0
H892 H 0.71834 0.38465 0.95014 0.0
H893 H 0.80396 0.27694 0.87223 0.0
H894 H 0.7787 0.2768 0.8316 0.0
H895 H 0.76153 0.25632 0.86764 0.0
C896 C 0.25098 0.2412 0.49175 0.0
C897 C 0.28786 0.24129 0.49995 0.0
C898 C 0.23473 0.21559 0.4709 0.0
C899 C 0.25593 0.18973 0.45744 0.0
C900 C 0.2931 0.18934 0.466 0.0
C901 C 0.3086 0.21498 0.4874 0.0
C902 C 0.19493 0.21656 0.46279 0.0
C903 C 0.31661 0.16243 0.45176 0.0
C904 C 0.21021 0.10882 0.42184 0.0
C905 C 0.20585 0.11639 0.38721 0.0
C906 C 0.22677 0.13227 0.44503 0.0
C907 C 0.23931 0.16405 0.43322 0.0
C908 C 0.23499 0.17187 0.39827 0.0
C909 C 0.21785 0.14819 0.37575 0.0
C910 C 0.23028 0.12333 0.48219 0.0
C911 C 0.24818 0.20542 0.38468 0.0
H912 H 0.23472 0.26127 0.5016 0.0
H913 H 0.33713 0.21499 0.49347 0.0
H914 H 0.18872 0.22109 0.43533 0.0
H915 H 0.18306 0.19142 0.46888 0.0
H916 H 0.18203 0.23711 0.47696 0.0
H917 H 0.34485 0.165 0.46179 0.0
H918 H 0.3072 0.13626 0.45777 0.0
H919 H 0.31511 0.16469 0.4238 0.0
H920 H 0.20027 0.08458 0.43079 0.0
H921 H 0.21383 0.15472 0.34916 0.0
H922 H 0.21578 0.14256 0.49652 0.0
H923 H 0.2586 0.12432 0.49213 0.0
H924 H 0.21965 0.09732 0.48718 0.0
H925 H 0.2339 0.22731 0.39539 0.0
H926 H 0.24432 0.20684 0.35665 0.0
H927 H 0.27688 0.20873 0.39254 0.0
C928 C 0.20124 0.78731 0.87241 0.0
C929 C 0.22048 0.80363 0.89968 0.0
C930 C 0.2179 0.77696 0.84384 0.0
C931 C 0.25475 0.78277 0.84264 0.0
C932 C 0.27423 0.79983 0.86971 0.0
C933 C 0.2568 0.81025 0.8979 0.0
C934 C 0.19617 0.75921 0.81522 0.0
C935 C 0.31365 0.80624 0.86929 0.0
C936 C 0.30236 0.7228 0.78616 0.0
C937 C 0.30504 0.74331 0.75747 0.0
C938 C 0.28655 0.73559 0.81433 0.0
C939 C 0.27306 0.76963 0.81361 0.0
C940 C 0.27606 0.79058 0.7848 0.0
C941 C 0.29228 0.77719 0.75708 0.0
C942 C 0.28399 0.7126 0.84474 0.0
C943 C 0.26177 0.82692 0.78312 0.0
H944 H 0.17306 0.78247 0.87341 0.0
H945 H 0.27182 0.82281 0.91889 0.0
H946 H 0.19933 0.7727 0.79101 0.0
H947 H 0.20587 0.73246 0.81247 0.0
H948 H 0.16743 0.75828 0.81935 0.0
H949 H 0.32462 0.82112 0.8917 0.0
H950 H 0.32794 0.7813 0.86879 0.0
H951 H 0.31918 0.82052 0.84609 0.0
H952 H 0.3126 0.6967 0.78653 0.0
H953 H 0.2948 0.79306 0.73492 0.0
H954 H 0.25567 0.70824 0.84903 0.0
H955 H 0.29667 0.72526 0.86773 0.0
H956 H 0.29692 0.6872 0.84168 0.0
H957 H 0.23268 0.82663 0.78546 0.0
H958 H 0.26686 0.84002 0.7591 0.0
H959 H 0.27407 0.84228 0.80457 0.0
loop_
_geom_bond_atom_site_label_1
_geom_bond_atom_site_label_2
_geom_bond_distance
_geom_bond_site_symmetry_2
_ccdc_geom_bond_type
Sc0 O3 2.030 . S
Sc0 O10 2.105 1_554 S
Sc0 O13 2.105 . S
Sc0 O16 2.105 . S
Sc0 O19 2.105 1_554 S
Sc1 O3 2.020 1_556 S
Sc1 O11 2.105 . S
Sc1 O15 2.105 1_556 S
Sc1 O17 2.105 1_556 S
Sc1 O21 2.105 . S
Sc2 O3 2.027 . S
Sc2 O12 2.105 1_554 S
Sc2 O14 2.105 . S
Sc2 O18 2.105 . S
Sc2 O20 2.105 1_554 S
O3 Sc0 2.030 . S
O3 Sc1 2.020 1_554 S
O3 Sc2 2.027 . S
C4 O10 1.268 . S
C4 O20 1.268 . S
C5 O11 1.268 . S
C5 O19 1.268 . S
C6 O12 1.268 . S
C6 O21 1.268 . S
C7 O13 1.268 . S
C7 O17 1.268 . S
C8 O14 1.268 . S
C8 O16 1.268 . S
C9 O15 1.268 . S
C9 O18 1.268 . S
O10 Sc0 2.105 1_556 S
O10 C4 1.268 . S
O11 Sc1 2.105 . S
O11 C5 1.268 . S
O12 Sc2 2.105 1_556 S
O12 C6 1.268 . S
O13 Sc0 2.105 . S
O13 C7 1.268 . S
O14 Sc2 2.105 . S
O14 C8 1.268 . S
O15 Sc1 2.105 1_554 S
O15 C9 1.268 . S
O16 Sc0 2.105 . S
O16 C8 1.268 . S
O17 Sc1 2.105 1_554 S
O17 C7 1.268 . S
O18 Sc2 2.105 . S
O18 C9 1.268 . S
O19 Sc0 2.105 1_556 S
O19 C5 1.268 . S
O20 Sc2 2.105 1_556 S
O20 C4 1.268 . S
O21 Sc1 2.105 . S
O21 C6 1.268 . S
Sc22 O25 2.025 . S
Sc22 O32 2.105 . S
Sc22 O35 2.105 . S
Sc22 O38 2.105 . S
Sc22 O41 2.105 . S
Sc23 O25 2.025 . S
Sc23 O33 2.105 . S
Sc23 O37 2.105 . S
Sc23 O39 2.105 . S
Sc23 O43 2.105 . S
Sc24 O25 2.025 . S
Sc24 O34 2.105 . S
Sc24 O36 2.105 . S
Sc24 O40 2.105 . S
Sc24 O42 2.105 . S
O25 Sc22 2.025 . S
O25 Sc23 2.025 . S
O25 Sc24 2.025 . S
C26 O32 1.268 . S
C26 O42 1.268 . S
C27 O33 1.268 . S
C27 O41 1.268 . S
C28 O34 1.268 . S
C28 O43 1.268 . S
C29 O35 1.268 . S
C29 O39 1.268 . S
C30 O36 1.268 . S
C30 O38 1.268 . S
C31 O37 1.268 . S
C31 O40 1.268 . S
O32 Sc22 2.105 . S
O32 C26 1.268 . S
O33 Sc23 2.105 . S
O33 C27 1.268 . S
O34 Sc24 2.105 . S
O34 C28 1.268 . S
O35 Sc22 2.105 . S
O35 C29 1.268 . S
O36 Sc24 2.105 . S
O36 C30 1.268 . S
O37 Sc23 2.105 . S
O37 C31 1.268 . S
O38 Sc22 2.105 . S
O38 C30 1.268 . S
O39 Sc23 2.105 . S
O39 C29 1.268 . S
O40 Sc24 2.105 . S
O40 C31 1.268 . S
O41 Sc22 2.105 . S
O41 C27 1.268 . S
O42 Sc24 2.105 . S
O42 C26 1.268 . S
O43 Sc23 2.105 . S
O43 C28 1.268 . S
Sc44 O47 2.025 . S
Sc44 O54 2.105 . S
Sc44 O57 2.105 . S
Sc44 O60 2.105 . S
Sc44 O63 2.105 . S
Sc45 O47 2.025 . S
Sc45 O55 2.105 . S
Sc45 O59 2.105 . S
Sc45 O61 2.105 . S
Sc45 O65 2.105 1_554 S
Sc46 O47 2.025 . S
Sc46 O56 2.105 1_554 S
Sc46 O58 2.105 . S
Sc46 O62 2.105 . S
Sc46 O64 2.105 . S
O47 Sc44 2.025 . S
O47 Sc45 2.025 . S
O47 Sc46 2.025 . S
C48 O54 1.268 1_556 S
C48 O64 1.268 1_556 S
C49 O55 1.268 1_556 S
C49 O63 1.268 1_556 S
C50 O56 1.268 . S
C50 O65 1.268 . S
C51 O57 1.268 . S
C51 O61 1.268 . S
C52 O58 1.268 . S
C52 O60 1.268 . S
C53 O59 1.268 . S
C53 O62 1.268 . S
O54 Sc44 2.105 . S
O54 C48 1.268 1_554 S
O55 Sc45 2.105 . S
O55 C49 1.268 1_554 S
O56 Sc46 2.105 1_556 S
O56 C50 1.268 . S
O57 Sc44 2.105 . S
O57 C51 1.268 . S
O58 Sc46 2.105 . S
O58 C52 1.268 . S
O59 Sc45 2.105 . S
O59 C53 1.268 . S
O60 Sc44 2.105 . S
O60 C52 1.268 . S
O61 Sc45 2.105 . S
O61 C51 1.268 . S
O62 Sc46 2.105 . S
O62 C53 1.268 . S
O63 Sc44 2.105 . S
O63 C49 1.268 1_554 S
O64 Sc46 2.105 . S
O64 C48 1.268 1_554 S
O65 Sc45 2.105 1_556 S
O65 C50 1.268 . S
Sc66 O69 2.025 . S
Sc66 O76 2.105 . S
Sc66 O79 2.105 . S
Sc66 O82 2.105 . S
Sc66 O85 2.105 . S
Sc67 O69 2.025 . S
Sc67 O77 2.105 . S
Sc67 O81 2.105 . S
Sc67 O83 2.105 . S
Sc67 O87 2.105 . S
Sc68 O69 2.025 . S
Sc68 O78 2.105 . S
Sc68 O80 2.105 . S
Sc68 O84 2.105 . S
Sc68 O86 2.105 . S
O69 Sc66 2.025 . S
O69 Sc67 2.025 . S
O69 Sc68 2.025 . S
C70 O76 1.268 . S
C70 O86 1.268 . S
C71 O77 1.268 . S
C71 O85 1.268 . S
C72 O78 1.268 . S
C72 O87 1.268 . S
C73 O79 1.268 . S
C73 O83 1.268 . S
C74 O80 1.268 . S
C74 O82 1.268 . S
C75 O81 1.268 . S
C75 O84 1.268 . S
O76 Sc66 2.105 . S
O76 C70 1.268 . S
O77 Sc67 2.105 . S
O77 C71 1.268 . S
O78 Sc68 2.105 . S
O78 C72 1.268 . S
O79 Sc66 2.105 . S
O79 C73 1.268 . S
O80 Sc68 2.105 . S
O80 C74 1.268 . S
O81 Sc67 2.105 . S
O81 C75 1.268 . S
O82 Sc66 2.105 . S
O82 C74 1.268 . S
O83 Sc67 2.105 . S
O83 C73 1.268 . S
O84 Sc68 2.105 . S
O84 C75 1.268 . S
O85 Sc66 2.105 . S
O85 C71 1.268 . S
O86 Sc68 2.105 . S
O86 C70 1.268 . S
O87 Sc67 2.105 . S
O87 C72 1.268 . S
H88 C95 0.929 . S
H89 C98 0.930 . S
H90 C100 0.929 . S
H91 C92 0.969 . S
C92 H91 0.969 . S
C92 O93 1.550 . S
C92 H94 0.973 . S
O93 C92 1.550 . S
O93 C99 1.412 . S
H94 C92 0.973 . S
C95 H88 0.929 . S
C95 C96 1.400 . S
C95 C97 1.364 . S
C96 C95 1.400 . S
C96 C100 1.377 . S
C97 C95 1.364 . S
C97 C98 1.374 . S
C98 H89 0.930 . S
C98 C97 1.374 . S
C98 C99 1.383 . S
C99 O93 1.412 . S
C99 C98 1.383 . S
C99 C100 1.394 . S
C100 H90 0.929 . S
C100 C96 1.377 . S
C100 C99 1.394 . S
H101 C108 0.929 . S
H102 C111 0.930 . S
H103 C113 0.929 . S
H104 C105 0.969 . S
C105 H104 0.969 . S
C105 O106 1.550 . S
C105 H107 0.973 . S
O106 C105 1.550 . S
O106 C112 1.412 . S
H107 C105 0.973 . S
C108 H101 0.929 . S
C108 C109 1.400 . S
C108 C110 1.364 . S
C109 C108 1.400 . S
C109 C113 1.377 . S
C110 C108 1.364 . S
C110 C111 1.374 . S
C111 H102 0.930 . S
C111 C110 1.374 . S
C111 C112 1.383 . S
C112 O106 1.412 . S
C112 C111 1.383 . S
C112 C113 1.394 . S
C113 H103 0.929 . S
C113 C109 1.377 . S
C113 C112 1.394 . S
H114 C121 0.929 . S
H115 C124 0.930 . S
H116 C126 0.929 . S
H117 C118 0.969 . S
C118 H117 0.969 . S
C118 O119 1.550 . S
C118 H120 0.973 . S
O119 C118 1.550 . S
O119 C125 1.412 . S
H120 C118 0.973 . S
C121 H114 0.929 . S
C121 C122 1.400 . S
C121 C123 1.364 . S
C122 C121 1.400 . S
C122 C126 1.377 . S
C123 C121 1.364 . S
C123 C124 1.374 . S
C124 H115 0.930 . S
C124 C123 1.374 . S
C124 C125 1.383 . S
C125 O119 1.412 . S
C125 C124 1.383 . S
C125 C126 1.394 . S
C126 H116 0.929 . S
C126 C122 1.377 . S
C126 C125 1.394 . S
H127 C134 0.929 . S
H128 C137 0.930 . S
H129 C139 0.929 . S
H130 C131 0.969 . S
C131 H130 0.969 . S
C131 O132 1.550 . S
C131 H133 0.973 . S
O132 C131 1.550 . S
O132 C138 1.412 . S
H133 C131 0.973 . S
C134 H127 0.929 . S
C134 C135 1.400 . S
C134 C136 1.364 . S
C135 C134 1.400 . S
C135 C139 1.377 . S
C136 C134 1.364 . S
C136 C137 1.374 . S
C137 H128 0.930 . S
C137 C136 1.374 . S
C137 C138 1.383 . S
C138 O132 1.412 . S
C138 C137 1.383 . S
C138 C139 1.394 . S
C139 H129 0.929 . S
C139 C135 1.377 . S
C139 C138 1.394 . S
H140 C147 0.929 . S
H141 C150 0.930 . S
H142 C152 0.929 . S
H143 C144 0.969 . S
C144 H143 0.969 . S
C144 O145 1.550 . S
C144 H146 0.973 . S
O145 C144 1.550 . S
O145 C151 1.412 . S
H146 C144 0.973 . S
C147 H140 0.929 . S
C147 C148 1.400 . S
C147 C149 1.364 . S
C148 C147 1.400 . S
C148 C152 1.377 . S
C149 C147 1.364 . S
C149 C150 1.374 . S
C150 H141 0.930 . S
C150 C149 1.374 . S
C150 C151 1.383 . S
C151 O145 1.412 . S
C151 C150 1.383 . S
C151 C152 1.394 . S
C152 H142 0.929 . S
C152 C148 1.377 . S
C152 C151 1.394 . S
H153 C160 0.929 . S
H154 C163 0.930 . S
H155 C165 0.929 . S
H156 C157 0.969 . S
C157 H156 0.969 . S
C157 O158 1.550 . S
C157 H159 0.973 . S
O158 C157 1.550 . S
O158 C164 1.412 . S
H159 C157 0.973 . S
C160 H153 0.929 . S
C160 C161 1.400 . S
C160 C162 1.364 . S
C161 C160 1.400 . S
C161 C165 1.377 . S
C162 C160 1.364 . S
C162 C163 1.374 . S
C163 H154 0.930 . S
C163 C162 1.374 . S
C163 C164 1.383 . S
C164 O158 1.412 . S
C164 C163 1.383 . S
C164 C165 1.394 . S
C165 H155 0.929 . S
C165 C161 1.377 . S
C165 C164 1.394 . S
H166 C173 0.929 . S
H167 C176 0.930 . S
H168 C178 0.929 . S
H169 C170 0.969 . S
C170 H169 0.969 . S
C170 O171 1.550 . S
C170 H172 0.973 . S
O171 C170 1.550 . S
O171 C177 1.412 . S
H172 C170 0.973 . S
C173 H166 0.929 . S
C173 C174 1.400 . S
C173 C175 1.364 . S
C174 C173 1.400 . S
C174 C178 1.377 . S
C175 C173 1.364 . S
C175 C176 1.374 . S
C176 H167 0.930 . S
C176 C175 1.374 . S
C176 C177 1.383 . S
C177 O171 1.412 . S
C177 C176 1.383 . S
C177 C178 1.394 . S
C178 H168 0.929 . S
C178 C174 1.377 . S
C178 C177 1.394 . S
H179 C186 0.929 . S
H180 C189 0.930 . S
H181 C191 0.929 . S
H182 C183 0.969 . S
C183 H182 0.969 . S
C183 O184 1.550 . S
C183 H185 0.973 . S
O184 C183 1.550 . S
O184 C190 1.412 . S
H185 C183 0.973 . S
C186 H179 0.929 . S
C186 C187 1.400 . S
C186 C188 1.364 . S
C187 C186 1.400 . S
C187 C191 1.377 . S
C188 C186 1.364 . S
C188 C189 1.374 . S
C189 H180 0.930 . S
C189 C188 1.374 . S
C189 C190 1.383 . S
C190 O184 1.412 . S
C190 C189 1.383 . S
C190 C191 1.394 . S
C191 H181 0.929 . S
C191 C187 1.377 . S
C191 C190 1.394 . S
C192 C193 1.391 . S
C192 C194 1.394 . S
C192 H208 0.931 . S
C193 C192 1.391 . S
C193 C197 1.376 . S
C194 C192 1.394 . S
C194 C195 1.369 . S
C194 C198 1.531 . S
C195 C194 1.369 . S
C195 C196 1.410 . S
C195 C203 1.503 . S
C196 C195 1.410 . S
C196 C197 1.392 . S
C196 C199 1.511 . S
C197 C193 1.376 . S
C197 C196 1.392 . S
C197 H209 0.929 . S
C198 C194 1.531 . S
C198 H210 0.960 . S
C198 H211 0.962 . S
C198 H212 0.960 . S
C199 C196 1.511 . S
C199 H213 0.961 . S
C199 H214 0.961 . S
C199 H215 0.961 . S
C200 C201 1.370 1_565 S
C200 C202 1.363 . S
C200 H216 0.931 . S
C201 C200 1.370 1_545 S
C201 C205 1.408 . S
C202 C200 1.363 . S
C202 C203 1.370 . S
C202 C206 1.524 . S
C203 C195 1.503 . S
C203 C202 1.370 . S
C203 C204 1.403 1_565 S
C204 C203 1.403 1_545 S
C204 C205 1.404 . S
C204 C207 1.539 . S
C205 C201 1.408 . S
C205 C204 1.404 . S
C205 H217 0.930 . S
C206 C202 1.524 . S
C206 H218 0.956 . S
C206 H219 0.961 . S
C206 H220 0.961 . S
C207 C204 1.539 . S
C207 H221 0.958 . S
C207 H222 0.961 . S
C207 H223 0.960 . S
H208 C192 0.931 . S
H209 C197 0.929 . S
H210 C198 0.960 . S
H211 C198 0.962 . S
H212 C198 0.960 . S
H213 C199 0.961 . S
H214 C199 0.961 . S
H215 C199 0.961 . S
H216 C200 0.931 . S
H217 C205 0.930 . S
H218 C206 0.956 . S
H219 C206 0.961 . S
H220 C206 0.961 . S
H221 C207 0.958 . S
H222 C207 0.961 . S
H223 C207 0.960 . S
C224 C225 1.391 . S
C224 C226 1.394 . S
C224 H240 0.931 . S
C225 C224 1.391 . S
C225 C229 1.376 . S
C226 C224 1.394 . S
C226 C227 1.369 . S
C226 C230 1.531 . S
C227 C226 1.369 . S
C227 C228 1.410 . S
C227 C235 1.503 . S
C228 C227 1.410 . S
C228 C229 1.392 . S
C228 C231 1.511 . S
C229 C225 1.376 . S
C229 C228 1.392 . S
C229 H241 0.929 . S
C230 C226 1.531 . S
C230 H242 0.960 . S
C230 H243 0.962 . S
C230 H244 0.960 . S
C231 C228 1.511 . S
C231 H245 0.961 . S
C231 H246 0.961 . S
C231 H247 0.961 . S
C232 C233 1.370 . S
C232 C234 1.363 . S
C232 H248 0.931 . S
C233 C232 1.370 . S
C233 C237 1.408 . S
C234 C232 1.363 . S
C234 C235 1.370 . S
C234 C238 1.524 . S
C235 C227 1.503 . S
C235 C234 1.370 . S
C235 C236 1.403 . S
C236 C235 1.403 . S
C236 C237 1.404 . S
C236 C239 1.539 . S
C237 C233 1.408 . S
C237 C236 1.404 . S
C237 H249 0.930 . S
C238 C234 1.524 . S
C238 H250 0.956 . S
C238 H251 0.961 . S
C238 H252 0.961 . S
C239 C236 1.539 . S
C239 H253 0.958 . S
C239 H254 0.961 . S
C239 H255 0.960 . S
H240 C224 0.931 . S
H241 C229 0.929 . S
H242 C230 0.960 . S
H243 C230 0.962 . S
H244 C230 0.960 . S
H245 C231 0.961 . S
H246 C231 0.961 . S
H247 C231 0.961 . S
H248 C232 0.931 . S
H249 C237 0.930 . S
H250 C238 0.956 . S
H251 C238 0.961 . S
H252 C238 0.961 . S
H253 C239 0.958 . S
H254 C239 0.961 . S
H255 C239 0.960 . S
C256 C257 1.391 . S
C256 C258 1.394 1_545 S
C256 H272 0.931 . S
C257 C256 1.391 . S
C257 C261 1.376 . S
C258 C256 1.394 1_565 S
C258 C259 1.369 . S
C258 C262 1.531 . S
C259 C258 1.369 . S
C259 C260 1.410 . S
C259 C267 1.503 . S
C260 C259 1.410 . S
C260 C261 1.392 1_565 S
C260 C263 1.511 . S
C261 C257 1.376 . S
C261 C260 1.392 1_545 S
C261 H273 0.929 . S
C262 C258 1.531 . S
C262 H274 0.960 . S
C262 H275 0.962 . S
C262 H276 0.960 . S
C263 C260 1.511 . S
C263 H277 0.961 . S
C263 H278 0.961 . S
C263 H279 0.961 . S
C264 C265 1.370 . S
C264 C266 1.363 . S
C264 H280 0.931 . S
C265 C264 1.370 . S
C265 C269 1.408 . S
C266 C264 1.363 . S
C266 C267 1.370 . S
C266 C270 1.524 . S
C267 C259 1.503 . S
C267 C266 1.370 . S
C267 C268 1.403 . S
C268 C267 1.403 . S
C268 C269 1.404 . S
C268 C271 1.539 . S
C269 C265 1.408 . S
C269 C268 1.404 . S
C269 H281 0.930 . S
C270 C266 1.524 . S
C270 H282 0.956 . S
C270 H283 0.961 . S
C270 H284 0.961 . S
C271 C268 1.539 . S
C271 H285 0.958 . S
C271 H286 0.961 . S
C271 H287 0.960 . S
H272 C256 0.931 . S
H273 C261 0.929 . S
H274 C262 0.960 . S
H275 C262 0.962 . S
H276 C262 0.960 . S
H277 C263 0.961 . S
H278 C263 0.961 . S
H279 C263 0.961 . S
H280 C264 0.931 . S
H281 C269 0.930 . S
H282 C270 0.956 . S
H283 C270 0.961 . S
H284 C270 0.961 . S
H285 C271 0.958 . S
H286 C271 0.961 . S
H287 C271 0.960 . S
C288 C289 1.391 . S
C288 C290 1.394 . S
C288 H304 0.931 . S
C289 C288 1.391 . S
C289 C293 1.376 . S
C290 C288 1.394 . S
C290 C291 1.369 . S
C290 C294 1.531 . S
C291 C290 1.369 . S
C291 C292 1.410 . S
C291 C299 1.503 . S
C292 C291 1.410 . S
C292 C293 1.392 . S
C292 C295 1.511 . S
C293 C289 1.376 . S
C293 C292 1.392 . S
C293 H305 0.929 . S
C294 C290 1.531 . S
C294 H306 0.960 . S
C294 H307 0.962 . S
C294 H308 0.960 . S
C295 C292 1.511 . S
C295 H309 0.961 . S
C295 H310 0.961 . S
C295 H311 0.961 . S
C296 C297 1.370 . S
C296 C298 1.363 . S
C296 H312 0.931 . S
C297 C296 1.370 . S
C297 C301 1.408 . S
C298 C296 1.363 . S
C298 C299 1.370 . S
C298 C302 1.524 . S
C299 C291 1.503 . S
C299 C298 1.370 . S
C299 C300 1.403 . S
C300 C299 1.403 . S
C300 C301 1.404 . S
C300 C303 1.539 . S
C301 C297 1.408 . S
C301 C300 1.404 . S
C301 H313 0.930 . S
C302 C298 1.524 . S
C302 H314 0.956 . S
C302 H315 0.961 . S
C302 H316 0.961 . S
C303 C300 1.539 . S
C303 H317 0.958 . S
C303 H318 0.961 . S
C303 H319 0.960 . S
H304 C288 0.931 . S
H305 C293 0.929 . S
H306 C294 0.960 . S
H307 C294 0.962 . S
H308 C294 0.960 . S
H309 C295 0.961 . S
H310 C295 0.961 . S
H311 C295 0.961 . S
H312 C296 0.931 . S
H313 C301 0.930 . S
H314 C302 0.956 . S
H315 C302 0.961 . S
H316 C302 0.961 . S
H317 C303 0.958 . S
H318 C303 0.961 . S
H319 C303 0.960 . S
C320 C321 1.391 . S
C320 C322 1.394 . S
C320 H336 0.931 . S
C321 C320 1.391 . S
C321 C325 1.376 . S
C322 C320 1.394 . S
C322 C323 1.369 . S
C322 C326 1.531 . S
C323 C322 1.369 . S
C323 C324 1.410 . S
C323 C331 1.503 . S
C324 C323 1.410 . S
C324 C325 1.392 . S
C324 C327 1.511 . S
C325 C321 1.376 . S
C325 C324 1.392 . S
C325 H337 0.929 . S
C326 C322 1.531 . S
C326 H338 0.960 . S
C326 H339 0.962 . S
C326 H340 0.960 . S
C327 C324 1.511 . S
C327 H341 0.961 . S
C327 H342 0.961 . S
C327 H343 0.961 . S
C328 C329 1.370 . S
C328 C330 1.363 . S
C328 H344 0.931 . S
C329 C328 1.370 . S
C329 C333 1.408 . S
C330 C328 1.363 . S
C330 C331 1.370 . S
C330 C334 1.524 . S
C331 C323 1.503 . S
C331 C330 1.370 . S
C331 C332 1.403 . S
C332 C331 1.403 . S
C332 C333 1.404 . S
C332 C335 1.539 . S
C333 C329 1.408 . S
C333 C332 1.404 . S
C333 H345 0.930 . S
C334 C330 1.524 . S
C334 H346 0.956 . S
C334 H347 0.961 . S
C334 H348 0.961 . S
C335 C332 1.539 . S
C335 H349 0.958 . S
C335 H350 0.961 . S
C335 H351 0.960 . S
H336 C320 0.931 . S
H337 C325 0.929 . S
H338 C326 0.960 . S
H339 C326 0.962 . S
H340 C326 0.960 . S
H341 C327 0.961 . S
H342 C327 0.961 . S
H343 C327 0.961 . S
H344 C328 0.931 . S
H345 C333 0.930 . S
H346 C334 0.956 . S
H347 C334 0.961 . S
H348 C334 0.961 . S
H349 C335 0.958 . S
H350 C335 0.961 . S
H351 C335 0.960 . S
C352 C353 1.391 . S
C352 C354 1.394 1_655 S
C352 H368 0.931 1_556 S
C353 C352 1.391 . S
C353 C357 1.376 . S
C354 C352 1.394 1_455 S
C354 C355 1.369 . S
C354 C358 1.531 . S
C355 C354 1.369 . S
C355 C356 1.410 1_455 S
C355 C363 1.503 . S
C356 C355 1.410 1_655 S
C356 C357 1.392 . S
C356 C359 1.511 . S
C357 C353 1.376 . S
C357 C356 1.392 . S
C357 H369 0.929 . S
C358 C354 1.531 . S
C358 H370 0.960 . S
C358 H371 0.962 . S
C358 H372 0.960 1_556 S
C359 C356 1.511 . S
C359 H373 0.961 . S
C359 H374 0.961 1_655 S
C359 H375 0.961 . S
C360 C361 1.370 . S
C360 C362 1.363 . S
C360 H376 0.931 . S
C361 C360 1.370 . S
C361 C365 1.408 . S
C362 C360 1.363 . S
C362 C363 1.370 . S
C362 C366 1.524 . S
C363 C355 1.503 . S
C363 C362 1.370 . S
C363 C364 1.403 . S
C364 C363 1.403 . S
C364 C365 1.404 . S
C364 C367 1.539 . S
C365 C361 1.408 . S
C365 C364 1.404 . S
C365 H377 0.930 . S
C366 C362 1.524 . S
C366 H378 0.956 . S
C366 H379 0.961 . S
C366 H380 0.961 . S
C367 C364 1.539 . S
C367 H381 0.958 . S
C367 H382 0.961 . S
C367 H383 0.960 . S
H368 C352 0.931 1_554 S
H369 C357 0.929 . S
H370 C358 0.960 . S
H371 C358 0.962 . S
H372 C358 0.960 1_554 S
H373 C359 0.961 . S
H374 C359 0.961 1_455 S
H375 C359 0.961 . S
H376 C360 0.931 . S
H377 C365 0.930 . S
H378 C366 0.956 . S
H379 C366 0.961 . S
H380 C366 0.961 . S
H381 C367 0.958 . S
H382 C367 0.961 . S
H383 C367 0.960 . S
C384 C385 1.391 . S
C384 C386 1.394 . S
C384 H400 0.931 . S
C385 C384 1.391 . S
C385 C389 1.376 . S
C386 C384 1.394 . S
C386 C387 1.369 . S
C386 C390 1.531 . S
C387 C386 1.369 . S
C387 C388 1.410 . S
C387 C395 1.503 . S
C388 C387 1.410 . S
C388 C389 1.392 . S
C388 C391 1.511 . S
C389 C385 1.376 . S
C389 C388 1.392 . S
C389 H401 0.929 . S
C390 C386 1.531 . S
C390 H402 0.960 . S
C390 H403 0.962 . S
C390 H404 0.960 . S
C391 C388 1.511 . S
C391 H405 0.961 . S
C391 H406 0.961 . S
C391 H407 0.961 . S
C392 C393 1.370 . S
C392 C394 1.363 . S
C392 H408 0.931 . S
C393 C392 1.370 . S
C393 C397 1.408 . S
C394 C392 1.363 . S
C394 C395 1.370 . S
C394 C398 1.524 . S
C395 C387 1.503 . S
C395 C394 1.370 . S
C395 C396 1.403 . S
C396 C395 1.403 . S
C396 C397 1.404 . S
C396 C399 1.539 . S
C397 C393 1.408 . S
C397 C396 1.404 . S
C397 H409 0.930 . S
C398 C394 1.524 . S
C398 H410 0.956 . S
C398 H411 0.961 . S
C398 H412 0.961 . S
C399 C396 1.539 . S
C399 H413 0.958 . S
C399 H414 0.961 . S
C399 H415 0.960 . S
H400 C384 0.931 . S
H401 C389 0.929 . S
H402 C390 0.960 . S
H403 C390 0.962 . S
H404 C390 0.960 . S
H405 C391 0.961 . S
H406 C391 0.961 . S
H407 C391 0.961 . S
H408 C392 0.931 . S
H409 C397 0.930 . S
H410 C398 0.956 . S
H411 C398 0.961 . S
H412 C398 0.961 . S
H413 C399 0.958 . S
H414 C399 0.961 . S
H415 C399 0.960 . S
C416 C417 1.391 . S
C416 C418 1.383 1_455 S
C416 H432 0.931 . S
C417 C416 1.391 . S
C417 C421 1.376 . S
C418 C416 1.383 1_655 S
C418 C419 1.370 . S
C418 C422 1.540 . S
C419 C418 1.370 . S
C419 C420 1.410 1_655 S
C419 C427 1.503 . S
C420 C419 1.410 1_455 S
C420 C421 1.392 . S
C420 C423 1.511 . S
C421 C417 1.376 . S
C421 C420 1.392 . S
C421 H433 0.929 . S
C422 C418 1.540 . S
C422 H434 0.960 . S
C422 H435 0.962 . S
C422 H436 0.960 . S
C423 C420 1.511 . S
C423 H437 0.961 . S
C423 H438 0.961 1_455 S
C423 H439 0.961 . S
C424 C425 1.370 . S
C424 C426 1.363 . S
C424 H440 0.931 . S
C425 C424 1.370 . S
C425 C429 1.408 . S
C426 C424 1.363 . S
C426 C427 1.370 . S
C426 C430 1.524 . S
C427 C419 1.503 . S
C427 C426 1.370 . S
C427 C428 1.403 . S
C428 C427 1.403 . S
C428 C429 1.404 . S
C428 C431 1.539 1_655 S
C429 C425 1.408 . S
C429 C428 1.404 . S
C429 H441 0.930 . S
C430 C426 1.524 . S
C430 H442 0.956 . S
C430 H443 0.961 . S
C430 H444 0.961 . S
C431 C428 1.539 1_455 S
C431 H445 0.958 . S
C431 H446 0.961 . S
C431 H447 0.960 . S
H432 C416 0.931 . S
H433 C421 0.929 . S
H434 C422 0.960 . S
H435 C422 0.962 . S
H436 C422 0.960 . S
H437 C423 0.961 . S
H438 C423 0.961 1_655 S
H439 C423 0.961 . S
H440 C424 0.931 . S
H441 C429 0.930 . S
H442 C430 0.956 . S
H443 C430 0.961 . S
H444 C430 0.961 . S
H445 C431 0.958 . S
H446 C431 0.961 . S
H447 C431 0.960 . S
C448 C449 1.391 . S
C448 C450 1.394 . S
C448 H464 0.931 . S
C449 C448 1.391 . S
C449 C453 1.376 . S
C450 C448 1.394 . S
C450 C451 1.369 . S
C450 C454 1.531 1_545 S
C451 C450 1.369 . S
C451 C452 1.410 . S
C451 C459 1.503 . S
C452 C451 1.410 . S
C452 C453 1.392 . S
C452 C455 1.511 . S
C453 C449 1.376 . S
C453 C452 1.392 . S
C453 H465 0.929 . S
C454 C450 1.531 1_565 S
C454 H466 0.960 . S
C454 H467 0.962 . S
C454 H468 0.960 . S
C455 C452 1.511 . S
C455 H469 0.961 . S
C455 H470 0.961 . S
C455 H471 0.961 . S
C456 C457 1.370 . S
C456 C458 1.363 . S
C456 H472 0.931 . S
C457 C456 1.370 . S
C457 C461 1.408 . S
C458 C456 1.363 . S
C458 C459 1.370 1_565 S
C458 C462 1.524 . S
C459 C451 1.503 . S
C459 C458 1.370 1_545 S
C459 C460 1.403 . S
C460 C459 1.403 . S
C460 C461 1.404 1_545 S
C460 C463 1.539 . S
C461 C457 1.408 . S
C461 C460 1.404 1_565 S
C461 H473 0.930 . S
C462 C458 1.524 . S
C462 H474 0.956 . S
C462 H475 0.961 1_565 S
C462 H476 0.961 . S
C463 C460 1.539 . S
C463 H477 0.958 . S
C463 H478 0.961 . S
C463 H479 0.960 . S
H464 C448 0.931 . S
H465 C453 0.929 . S
H466 C454 0.960 . S
H467 C454 0.962 . S
H468 C454 0.960 . S
H469 C455 0.961 . S
H470 C455 0.961 . S
H471 C455 0.961 . S
H472 C456 0.931 . S
H473 C461 0.930 . S
H474 C462 0.956 . S
H475 C462 0.961 1_545 S
H476 C462 0.961 . S
H477 C463 0.958 . S
H478 C463 0.961 . S
H479 C463 0.960 . S
C480 C481 1.391 . S
C480 C482 1.394 . S
C480 H496 0.931 . S
C481 C480 1.391 . S
C481 C485 1.376 . S
C482 C480 1.394 . S
C482 C483 1.369 . S
C482 C486 1.531 . S
C483 C482 1.369 . S
C483 C484 1.410 . S
C483 C491 1.503 . S
C484 C483 1.410 . S
C484 C485 1.392 . S
C484 C487 1.511 . S
C485 C481 1.376 . S
C485 C484 1.392 . S
C485 H497 0.929 . S
C486 C482 1.531 . S
C486 H498 0.960 . S
C486 H499 0.962 . S
C486 H500 0.960 . S
C487 C484 1.511 . S
C487 H501 0.961 . S
C487 H502 0.961 . S
C487 H503 0.961 . S
C488 C489 1.370 . S
C488 C490 1.363 . S
C488 H504 0.931 . S
C489 C488 1.370 . S
C489 C493 1.408 . S
C490 C488 1.363 . S
C490 C491 1.370 . S
C490 C494 1.524 . S
C491 C483 1.503 . S
C491 C490 1.370 . S
C491 C492 1.403 . S
C492 C491 1.403 . S
C492 C493 1.404 . S
C492 C495 1.539 . S
C493 C489 1.408 . S
C493 C492 1.404 . S
C493 H505 0.930 . S
C494 C490 1.524 . S
C494 H506 0.956 . S
C494 H507 0.961 . S
C494 H508 0.961 . S
C495 C492 1.539 . S
C495 H509 0.958 . S
C495 H510 0.961 . S
C495 H511 0.960 . S
H496 C480 0.931 . S
H497 C485 0.929 . S
H498 C486 0.960 . S
H499 C486 0.962 . S
H500 C486 0.960 . S
H501 C487 0.961 . S
H502 C487 0.961 . S
H503 C487 0.961 . S
H504 C488 0.931 . S
H505 C493 0.930 . S
H506 C494 0.956 . S
H507 C494 0.961 . S
H508 C494 0.961 . S
H509 C495 0.958 . S
H510 C495 0.961 . S
H511 C495 0.960 . S
C512 C513 1.391 . S
C512 C514 1.394 . S
C512 H528 0.931 . S
C513 C512 1.391 . S
C513 C517 1.376 . S
C514 C512 1.394 . S
C514 C515 1.369 1_565 S
C514 C518 1.531 1_565 S
C515 C514 1.369 1_545 S
C515 C516 1.410 . S
C515 C523 1.503 . S
C516 C515 1.410 . S
C516 C517 1.392 1_545 S
C516 C519 1.511 . S
C517 C513 1.376 . S
C517 C516 1.392 1_565 S
C517 H529 0.929 . S
C518 C514 1.531 1_545 S
C518 H530 0.960 . S
C518 H531 0.962 . S
C518 H532 0.960 1_545 S
C519 C516 1.511 . S
C519 H533 0.961 . S
C519 H534 0.961 . S
C519 H535 0.961 . S
C520 C521 1.370 . S
C520 C522 1.363 . S
C520 H536 0.931 . S
C521 C520 1.370 . S
C521 C525 1.408 . S
C522 C520 1.363 . S
C522 C523 1.370 . S
C522 C526 1.524 . S
C523 C515 1.503 . S
C523 C522 1.370 . S
C523 C524 1.403 . S
C524 C523 1.403 . S
C524 C525 1.404 . S
C524 C527 1.539 . S
C525 C521 1.408 . S
C525 C524 1.404 . S
C525 H537 0.930 . S
C526 C522 1.524 . S
C526 H538 0.956 . S
C526 H539 0.961 . S
C526 H540 0.961 . S
C527 C524 1.539 . S
C527 H541 0.958 . S
C527 H542 0.961 . S
C527 H543 0.960 . S
H528 C512 0.931 . S
H529 C517 0.929 . S
H530 C518 0.960 . S
H531 C518 0.962 . S
H532 C518 0.960 1_565 S
H533 C519 0.961 . S
H534 C519 0.961 . S
H535 C519 0.961 . S
H536 C520 0.931 . S
H537 C525 0.930 . S
H538 C526 0.956 . S
H539 C526 0.961 . S
H540 C526 0.961 . S
H541 C527 0.958 . S
H542 C527 0.961 . S
H543 C527 0.960 . S
C544 C545 1.391 . S
C544 C546 1.394 . S
C544 H560 0.931 . S
C545 C544 1.391 . S
C545 C549 1.376 . S
C546 C544 1.394 . S
C546 C547 1.369 . S
C546 C550 1.531 . S
C547 C546 1.369 . S
C547 C548 1.410 . S
C547 C555 1.503 . S
C548 C547 1.410 . S
C548 C549 1.392 . S
C548 C551 1.511 . S
C549 C545 1.376 . S
C549 C548 1.392 . S
C549 H561 0.929 . S
C550 C546 1.531 . S
C550 H562 0.960 . S
C550 H563 0.962 . S
C550 H564 0.960 . S
C551 C548 1.511 . S
C551 H565 0.961 . S
C551 H566 0.961 . S
C551 H567 0.961 . S
C552 C553 1.370 . S
C552 C554 1.363 . S
C552 H568 0.931 . S
C553 C552 1.370 . S
C553 C557 1.408 . S
C554 C552 1.363 . S
C554 C555 1.370 . S
C554 C558 1.524 . S
C555 C547 1.503 . S
C555 C554 1.370 . S
C555 C556 1.403 . S
C556 C555 1.403 . S
C556 C557 1.404 . S
C556 C559 1.539 . S
C557 C553 1.408 . S
C557 C556 1.404 . S
C557 H569 0.930 . S
C558 C554 1.524 . S
C558 H570 0.956 . S
C558 H571 0.961 . S
C558 H572 0.961 . S
C559 C556 1.539 . S
C559 H573 0.958 . S
C559 H574 0.961 . S
C559 H575 0.960 . S
H560 C544 0.931 . S
H561 C549 0.929 . S
H562 C550 0.960 . S
H563 C550 0.962 . S
H564 C550 0.960 . S
H565 C551 0.961 . S
H566 C551 0.961 . S
H567 C551 0.961 . S
H568 C552 0.931 . S
H569 C557 0.930 . S
H570 C558 0.956 . S
H571 C558 0.961 . S
H572 C558 0.961 . S
H573 C559 0.958 . S
H574 C559 0.961 . S
H575 C559 0.960 . S
C576 C577 1.391 . S
C576 C578 1.394 . S
C576 H592 0.931 . S
C577 C576 1.391 . S
C577 C581 1.376 . S
C578 C576 1.394 . S
C578 C579 1.369 . S
C578 C582 1.531 . S
C579 C578 1.369 . S
C579 C580 1.410 . S
C579 C587 1.503 . S
C580 C579 1.410 . S
C580 C581 1.392 . S
C580 C583 1.511 . S
C581 C577 1.376 . S
C581 C580 1.392 . S
C581 H593 0.929 . S
C582 C578 1.531 . S
C582 H594 0.960 . S
C582 H595 0.962 . S
C582 H596 0.960 . S
C583 C580 1.511 . S
C583 H597 0.961 . S
C583 H598 0.961 . S
C583 H599 0.961 . S
C584 C585 1.370 . S
C584 C586 1.363 . S
C584 H600 0.931 . S
C585 C584 1.370 . S
C585 C589 1.408 . S
C586 C584 1.363 . S
C586 C587 1.370 . S
C586 C590 1.524 . S
C587 C579 1.503 . S
C587 C586 1.370 . S
C587 C588 1.403 . S
C588 C587 1.403 . S
C588 C589 1.404 . S
C588 C591 1.539 . S
C589 C585 1.408 . S
C589 C588 1.404 . S
C589 H601 0.930 . S
C590 C586 1.524 . S
C590 H602 0.956 . S
C590 H603 0.961 . S
C590 H604 0.961 . S
C591 C588 1.539 . S
C591 H605 0.958 . S
C591 H606 0.961 . S
C591 H607 0.960 . S
H592 C576 0.931 . S
H593 C581 0.929 . S
H594 C582 0.960 . S
H595 C582 0.962 . S
H596 C582 0.960 . S
H597 C583 0.961 . S
H598 C583 0.961 . S
H599 C583 0.961 . S
H600 C584 0.931 . S
H601 C589 0.930 . S
H602 C590 0.956 . S
H603 C590 0.961 . S
H604 C590 0.961 . S
H605 C591 0.958 . S
H606 C591 0.961 . S
H607 C591 0.960 . S
C608 C609 1.391 . S
C608 C610 1.394 . S
C608 H624 0.931 . S
C609 C608 1.391 . S
C609 C613 1.376 . S
C610 C608 1.394 . S
C610 C611 1.369 1_455 S
C610 C614 1.531 . S
C611 C610 1.369 1_655 S
C611 C612 1.410 . S
C611 C619 1.503 . S
C612 C611 1.410 . S
C612 C613 1.392 1_655 S
C612 C615 1.511 . S
C613 C609 1.376 . S
C613 C612 1.392 1_455 S
C613 H625 0.929 . S
C614 C610 1.531 . S
C614 H626 0.960 . S
C614 H627 0.962 . S
C614 H628 0.960 . S
C615 C612 1.511 . S
C615 H629 0.961 . S
C615 H630 0.961 . S
C615 H631 0.961 . S
C616 C617 1.370 . S
C616 C618 1.363 . S
C616 H632 0.931 . S
C617 C616 1.370 . S
C617 C621 1.408 . S
C618 C616 1.363 . S
C618 C619 1.370 . S
C618 C622 1.524 . S
C619 C611 1.503 . S
C619 C618 1.370 . S
C619 C620 1.403 . S
C620 C619 1.403 . S
C620 C621 1.404 . S
C620 C623 1.539 . S
C621 C617 1.408 . S
C621 C620 1.404 . S
C621 H633 0.930 . S
C622 C618 1.524 . S
C622 H634 0.956 . S
C622 H635 0.961 . S
C622 H636 0.961 . S
C623 C620 1.539 . S
C623 H637 0.958 . S
C623 H638 0.961 . S
C623 H639 0.960 . S
H624 C608 0.931 . S
H625 C613 0.929 . S
H626 C614 0.960 . S
H627 C614 0.962 . S
H628 C614 0.960 . S
H629 C615 0.961 . S
H630 C615 0.961 . S
H631 C615 0.961 . S
H632 C616 0.931 . S
H633 C621 0.930 . S
H634 C622 0.956 . S
H635 C622 0.961 . S
H636 C622 0.961 . S
H637 C623 0.958 . S
H638 C623 0.961 . S
H639 C623 0.960 . S
C640 C641 1.391 . S
C640 C642 1.394 . S
C640 H656 0.931 . S
C641 C640 1.391 . S
C641 C645 1.376 . S
C642 C640 1.394 . S
C642 C643 1.369 . S
C642 C646 1.531 . S
C643 C642 1.369 . S
C643 C644 1.410 . S
C643 C651 1.503 . S
C644 C643 1.410 . S
C644 C645 1.392 . S
C644 C647 1.511 . S
C645 C641 1.376 . S
C645 C644 1.392 . S
C645 H657 0.929 . S
C646 C642 1.531 . S
C646 H658 0.960 . S
C646 H659 0.962 . S
C646 H660 0.960 . S
C647 C644 1.511 . S
C647 H661 0.961 . S
C647 H662 0.961 . S
C647 H663 0.961 . S
C648 C649 1.370 . S
C648 C650 1.363 . S
C648 H664 0.931 . S
C649 C648 1.370 . S
C649 C653 1.408 . S
C650 C648 1.363 . S
C650 C651 1.370 . S
C650 C654 1.524 . S
C651 C643 1.503 . S
C651 C650 1.370 . S
C651 C652 1.403 . S
C652 C651 1.403 . S
C652 C653 1.404 . S
C652 C655 1.539 . S
C653 C649 1.408 . S
C653 C652 1.404 . S
C653 H665 0.930 . S
C654 C650 1.524 . S
C654 H666 0.956 . S
C654 H667 0.961 . S
C654 H668 0.961 . S
C655 C652 1.539 . S
C655 H669 0.958 . S
C655 H670 0.961 . S
C655 H671 0.960 . S
H656 C640 0.931 . S
H657 C645 0.929 . S
H658 C646 0.960 . S
H659 C646 0.962 . S
H660 C646 0.960 . S
H661 C647 0.961 . S
H662 C647 0.961 . S
H663 C647 0.961 . S
H664 C648 0.931 . S
H665 C653 0.930 . S
H666 C654 0.956 . S
H667 C654 0.961 . S
H668 C654 0.961 . S
H669 C655 0.958 . S
H670 C655 0.961 . S
H671 C655 0.960 . S
C672 C673 1.391 . S
C672 C674 1.394 . S
C672 H688 0.931 . S
C673 C672 1.391 . S
C673 C677 1.376 . S
C674 C672 1.394 . S
C674 C675 1.369 1_655 S
C674 C678 1.531 . S
C675 C674 1.369 1_455 S
C675 C676 1.410 . S
C675 C683 1.503 . S
C676 C675 1.410 . S
C676 C677 1.392 1_455 S
C676 C679 1.511 . S
C677 C673 1.376 . S
C677 C676 1.392 1_655 S
C677 H689 0.929 . S
C678 C674 1.531 . S
C678 H690 0.960 . S
C678 H691 0.962 . S
C678 H692 0.960 . S
C679 C676 1.511 . S
C679 H693 0.961 . S
C679 H694 0.961 . S
C679 H695 0.961 . S
C680 C681 1.370 . S
C680 C682 1.363 . S
C680 H696 0.931 . S
C681 C680 1.370 . S
C681 C685 1.408 . S
C682 C680 1.363 . S
C682 C683 1.370 . S
C682 C686 1.524 . S
C683 C675 1.503 . S
C683 C682 1.370 . S
C683 C684 1.403 . S
C684 C683 1.403 . S
C684 C685 1.404 . S
C684 C687 1.539 . S
C685 C681 1.408 . S
C685 C684 1.404 . S
C685 H697 0.930 . S
C686 C682 1.524 . S
C686 H698 0.956 1_455 S
C686 H699 0.961 . S
C686 H700 0.961 . S
C687 C684 1.539 . S
C687 H701 0.958 . S
C687 H702 0.961 . S
C687 H703 0.960 . S
H688 C672 0.931 . S
H689 C677 0.929 . S
H690 C678 0.960 . S
H691 C678 0.962 . S
H692 C678 0.960 . S
H693 C679 0.961 . S
H694 C679 0.961 . S
H695 C679 0.961 . S
H696 C680 0.931 . S
H697 C685 0.930 . S
H698 C686 0.956 1_655 S
H699 C686 0.961 . S
H700 C686 0.961 . S
H701 C687 0.958 . S
H702 C687 0.961 . S
H703 C687 0.960 . S
C704 C705 1.391 . S
C704 C706 1.394 . S
C704 H720 0.931 . S
C705 C704 1.391 . S
C705 C709 1.376 . S
C706 C704 1.394 . S
C706 C707 1.369 . S
C706 C710 1.531 . S
C707 C706 1.369 . S
C707 C708 1.410 . S
C707 C715 1.503 . S
C708 C707 1.410 . S
C708 C709 1.392 . S
C708 C711 1.511 . S
C709 C705 1.376 . S
C709 C708 1.392 . S
C709 H721 0.929 . S
C710 C706 1.531 . S
C710 H722 0.960 . S
C710 H723 0.962 . S
C710 H724 0.960 . S
C711 C708 1.511 . S
C711 H725 0.961 . S
C711 H726 0.961 . S
C711 H727 0.961 . S
C712 C713 1.370 . S
C712 C714 1.363 . S
C712 H728 0.931 . S
C713 C712 1.370 . S
C713 C717 1.408 . S
C714 C712 1.363 . S
C714 C715 1.370 . S
C714 C718 1.524 . S
C715 C707 1.503 . S
C715 C714 1.370 . S
C715 C716 1.403 . S
C716 C715 1.403 . S
C716 C717 1.404 . S
C716 C719 1.539 . S
C717 C713 1.408 . S
C717 C716 1.404 . S
C717 H729 0.930 . S
C718 C714 1.524 . S
C718 H730 0.956 . S
C718 H731 0.961 . S
C718 H732 0.961 . S
C719 C716 1.539 . S
C719 H733 0.958 . S
C719 H734 0.961 . S
C719 H735 0.960 . S
H720 C704 0.931 . S
H721 C709 0.929 . S
H722 C710 0.960 . S
H723 C710 0.962 . S
H724 C710 0.960 . S
H725 C711 0.961 . S
H726 C711 0.961 . S
H727 C711 0.961 . S
H728 C712 0.931 . S
H729 C717 0.930 . S
H730 C718 0.956 . S
H731 C718 0.961 . S
H732 C718 0.961 . S
H733 C719 0.958 . S
H734 C719 0.961 . S
H735 C719 0.960 . S
C736 C737 1.391 . S
C736 C738 1.394 . S
C736 H752 0.931 . S
C737 C736 1.391 . S
C737 C741 1.376 . S
C738 C736 1.394 . S
C738 C739 1.369 . S
C738 C742 1.531 . S
C739 C738 1.369 . S
C739 C740 1.410 . S
C739 C747 1.503 . S
C740 C739 1.410 . S
C740 C741 1.392 . S
C740 C743 1.511 . S
C741 C737 1.376 . S
C741 C740 1.392 . S
C741 H753 0.929 . S
C742 C738 1.531 . S
C742 H754 0.960 . S
C742 H755 0.962 . S
C742 H756 0.960 . S
C743 C740 1.511 . S
C743 H757 0.961 . S
C743 H758 0.961 . S
C743 H759 0.961 . S
C744 C745 1.370 . S
C744 C746 1.363 . S
C744 H760 0.931 . S
C745 C744 1.370 . S
C745 C749 1.408 . S
C746 C744 1.363 . S
C746 C747 1.370 . S
C746 C750 1.524 . S
C747 C739 1.503 . S
C747 C746 1.370 . S
C747 C748 1.403 . S
C748 C747 1.403 . S
C748 C749 1.404 . S
C748 C751 1.539 . S
C749 C745 1.408 . S
C749 C748 1.404 . S
C749 H761 0.930 . S
C750 C746 1.524 . S
C750 H762 0.956 . S
C750 H763 0.961 . S
C750 H764 0.961 . S
C751 C748 1.539 . S
C751 H765 0.958 . S
C751 H766 0.961 . S
C751 H767 0.960 . S
H752 C736 0.931 . S
H753 C741 0.929 . S
H754 C742 0.960 . S
H755 C742 0.962 . S
H756 C742 0.960 . S
H757 C743 0.961 . S
H758 C743 0.961 . S
H759 C743 0.961 . S
H760 C744 0.931 . S
H761 C749 0.930 . S
H762 C750 0.956 . S
H763 C750 0.961 . S
H764 C750 0.961 . S
H765 C751 0.958 . S
H766 C751 0.961 . S
H767 C751 0.960 . S
C768 C769 1.391 . S
C768 C770 1.394 . S
C768 H784 0.931 . S
C769 C768 1.391 . S
C769 C773 1.376 . S
C770 C768 1.394 . S
C770 C771 1.369 . S
C770 C774 1.531 . S
C771 C770 1.369 . S
C771 C772 1.410 . S
C771 C779 1.503 . S
C772 C771 1.410 . S
C772 C773 1.392 . S
C772 C775 1.511 . S
C773 C769 1.376 . S
C773 C772 1.392 . S
C773 H785 0.929 . S
C774 C770 1.531 . S
C774 H786 0.960 . S
C774 H787 0.962 . S
C774 H788 0.960 . S
C775 C772 1.511 . S
C775 H789 0.961 . S
C775 H790 0.961 . S
C775 H791 0.961 . S
C776 C777 1.370 . S
C776 C778 1.363 . S
C776 H792 0.931 . S
C777 C776 1.370 . S
C777 C781 1.408 . S
C778 C776 1.363 . S
C778 C779 1.370 . S
C778 C782 1.524 . S
C779 C771 1.503 . S
C779 C778 1.370 . S
C779 C780 1.403 . S
C780 C779 1.403 . S
C780 C781 1.404 . S
C780 C783 1.539 . S
C781 C777 1.408 . S
C781 C780 1.404 . S
C781 H793 0.930 . S
C782 C778 1.524 . S
C782 H794 0.956 . S
C782 H795 0.961 . S
C782 H796 0.961 . S
C783 C780 1.539 . S
C783 H797 0.958 . S
C783 H798 0.961 . S
C783 H799 0.960 . S
H784 C768 0.931 . S
H785 C773 0.929 . S
H786 C774 0.960 . S
H787 C774 0.962 . S
H788 C774 0.960 . S
H789 C775 0.961 . S
H790 C775 0.961 . S
H791 C775 0.961 . S
H792 C776 0.931 . S
H793 C781 0.930 . S
H794 C782 0.956 . S
H795 C782 0.961 . S
H796 C782 0.961 . S
H797 C783 0.958 . S
H798 C783 0.961 . S
H799 C783 0.960 . S
C800 C801 1.391 . S
C800 C802 1.394 . S
C800 H816 0.931 . S
C801 C800 1.391 . S
C801 C805 1.376 . S
C802 C800 1.394 . S
C802 C803 1.369 . S
C802 C806 1.531 . S
C803 C802 1.369 . S
C803 C804 1.410 . S
C803 C811 1.503 . S
C804 C803 1.410 . S
C804 C805 1.392 . S
C804 C807 1.511 . S
C805 C801 1.376 . S
C805 C804 1.392 . S
C805 H817 0.929 . S
C806 C802 1.531 . S
C806 H818 0.960 . S
C806 H819 0.962 . S
C806 H820 0.960 . S
C807 C804 1.511 . S
C807 H821 0.961 . S
C807 H822 0.961 . S
C807 H823 0.961 . S
C808 C809 1.370 . S
C808 C810 1.363 . S
C808 H824 0.931 . S
C809 C808 1.370 . S
C809 C813 1.408 . S
C810 C808 1.363 . S
C810 C811 1.370 . S
C810 C814 1.524 . S
C811 C803 1.503 . S
C811 C810 1.370 . S
C811 C812 1.403 . S
C812 C811 1.403 . S
C812 C813 1.404 . S
C812 C815 1.539 . S
C813 C809 1.408 . S
C813 C812 1.404 . S
C813 H825 0.930 . S
C814 C810 1.524 . S
C814 H826 0.956 . S
C814 H827 0.961 . S
C814 H828 0.961 . S
C815 C812 1.539 . S
C815 H829 0.958 . S
C815 H830 0.961 . S
C815 H831 0.960 . S
H816 C800 0.931 . S
H817 C805 0.929 . S
H818 C806 0.960 . S
H819 C806 0.962 . S
H820 C806 0.960 . S
H821 C807 0.961 . S
H822 C807 0.961 . S
H823 C807 0.961 . S
H824 C808 0.931 . S
H825 C813 0.930 . S
H826 C814 0.956 . S
H827 C814 0.961 . S
H828 C814 0.961 . S
H829 C815 0.958 . S
H830 C815 0.961 . S
H831 C815 0.960 . S
C832 C833 1.391 . S
C832 C834 1.394 . S
C832 H848 0.931 . S
C833 C832 1.391 . S
C833 C837 1.376 . S
C834 C832 1.394 . S
C834 C835 1.369 . S
C834 C838 1.531 . S
C835 C834 1.369 . S
C835 C836 1.410 . S
C835 C843 1.503 . S
C836 C835 1.410 . S
C836 C837 1.392 . S
C836 C839 1.511 . S
C837 C833 1.376 . S
C837 C836 1.392 . S
C837 H849 0.929 . S
C838 C834 1.531 . S
C838 H850 0.960 . S
C838 H851 0.962 . S
C838 H852 0.960 . S
C839 C836 1.511 . S
C839 H853 0.961 . S
C839 H854 0.961 . S
C839 H855 0.961 . S
C840 C841 1.370 . S
C840 C842 1.363 . S
C840 H856 0.931 . S
C841 C840 1.370 . S
C841 C845 1.408 . S
C842 C840 1.363 . S
C842 C843 1.370 . S
C842 C846 1.524 . S
C843 C835 1.503 . S
C843 C842 1.370 . S
C843 C844 1.403 . S
C844 C843 1.403 . S
C844 C845 1.404 . S
C844 C847 1.539 . S
C845 C841 1.408 . S
C845 C844 1.404 . S
C845 H857 0.930 . S
C846 C842 1.524 . S
C846 H858 0.956 . S
C846 H859 0.961 . S
C846 H860 0.961 . S
C847 C844 1.539 . S
C847 H861 0.958 . S
C847 H862 0.961 . S
C847 H863 0.960 . S
H848 C832 0.931 . S
H849 C837 0.929 . S
H850 C838 0.960 . S
H851 C838 0.962 . S
H852 C838 0.960 . S
H853 C839 0.961 . S
H854 C839 0.961 . S
H855 C839 0.961 . S
H856 C840 0.931 . S
H857 C845 0.930 . S
H858 C846 0.956 . S
H859 C846 0.961 . S
H860 C846 0.961 . S
H861 C847 0.958 . S
H862 C847 0.961 . S
H863 C847 0.960 . S
C864 C865 1.391 . S
C864 C866 1.394 . S
C864 H880 0.931 . S
C865 C864 1.391 . S
C865 C869 1.376 . S
C866 C864 1.394 . S
C866 C867 1.369 . S
C866 C870 1.531 . S
C867 C866 1.369 . S
C867 C868 1.410 . S
C867 C875 1.503 . S
C868 C867 1.410 . S
C868 C869 1.392 . S
C868 C871 1.511 . S
C869 C865 1.376 . S
C869 C868 1.392 . S
C869 H881 0.929 . S
C870 C866 1.531 . S
C870 H882 0.960 . S
C870 H883 0.962 . S
C870 H884 0.960 . S
C871 C868 1.511 . S
C871 H885 0.961 . S
C871 H886 0.961 . S
C871 H887 0.961 . S
C872 C873 1.370 . S
C872 C874 1.363 . S
C872 H888 0.931 . S
C873 C872 1.370 . S
C873 C877 1.408 . S
C874 C872 1.363 . S
C874 C875 1.370 . S
C874 C878 1.524 . S
C875 C867 1.503 . S
C875 C874 1.370 . S
C875 C876 1.403 . S
C876 C875 1.403 . S
C876 C877 1.404 . S
C876 C879 1.539 . S
C877 C873 1.408 . S
C877 C876 1.404 . S
C877 H889 0.930 . S
C878 C874 1.524 . S
C878 H890 0.956 . S
C878 H891 0.961 . S
C878 H892 0.961 . S
C879 C876 1.539 . S
C879 H893 0.958 . S
C879 H894 0.961 . S
C879 H895 0.960 . S
H880 C864 0.931 . S
H881 C869 0.929 . S
H882 C870 0.960 . S
H883 C870 0.962 . S
H884 C870 0.960 . S
H885 C871 0.961 . S
H886 C871 0.961 . S
H887 C871 0.961 . S
H888 C872 0.931 . S
H889 C877 0.930 . S
H890 C878 0.956 . S
H891 C878 0.961 . S
H892 C878 0.961 . S
H893 C879 0.958 . S
H894 C879 0.961 . S
H895 C879 0.960 . S
C896 C897 1.391 . S
C896 C898 1.394 . S
C896 H912 0.931 . S
C897 C896 1.391 . S
C897 C901 1.376 . S
C898 C896 1.394 . S
C898 C899 1.369 . S
C898 C902 1.531 . S
C899 C898 1.369 . S
C899 C900 1.410 . S
C899 C907 1.503 . S
C900 C899 1.410 . S
C900 C901 1.392 . S
C900 C903 1.511 . S
C901 C897 1.376 . S
C901 C900 1.392 . S
C901 H913 0.929 . S
C902 C898 1.531 . S
C902 H914 0.960 . S
C902 H915 0.962 . S
C902 H916 0.960 . S
C903 C900 1.511 . S
C903 H917 0.961 . S
C903 H918 0.961 . S
C903 H919 0.961 . S
C904 C905 1.370 . S
C904 C906 1.363 . S
C904 H920 0.931 . S
C905 C904 1.370 . S
C905 C909 1.408 . S
C906 C904 1.363 . S
C906 C907 1.370 . S
C906 C910 1.524 . S
C907 C899 1.503 . S
C907 C906 1.370 . S
C907 C908 1.403 . S
C908 C907 1.403 . S
C908 C909 1.404 . S
C908 C911 1.539 . S
C909 C905 1.408 . S
C909 C908 1.404 . S
C909 H921 0.930 . S
C910 C906 1.524 . S
C910 H922 0.956 . S
C910 H923 0.961 . S
C910 H924 0.961 . S
C911 C908 1.539 . S
C911 H925 0.958 . S
C911 H926 0.961 . S
C911 H927 0.960 . S
H912 C896 0.931 . S
H913 C901 0.929 . S
H914 C902 0.960 . S
H915 C902 0.962 . S
H916 C902 0.960 . S
H917 C903 0.961 . S
H918 C903 0.961 . S
H919 C903 0.961 . S
H920 C904 0.931 . S
H921 C909 0.930 . S
H922 C910 0.956 . S
H923 C910 0.961 . S
H924 C910 0.961 . S
H925 C911 0.958 . S
H926 C911 0.961 . S
H927 C911 0.960 . S
C928 C929 1.391 . S
C928 C930 1.394 . S
C928 H944 0.931 . S
C929 C928 1.391 . S
C929 C933 1.376 . S
C930 C928 1.394 . S
C930 C931 1.369 . S
C930 C934 1.531 . S
C931 C930 1.369 . S
C931 C932 1.410 . S
C931 C939 1.503 . S
C932 C931 1.410 . S
C932 C933 1.392 . S
C932 C935 1.511 . S
C933 C929 1.376 . S
C933 C932 1.392 . S
C933 H945 0.929 . S
C934 C930 1.531 . S
C934 H946 0.960 . S
C934 H947 0.962 . S
C934 H948 0.960 . S
C935 C932 1.511 . S
C935 H949 0.961 . S
C935 H950 0.961 . S
C935 H951 0.961 . S
C936 C937 1.370 . S
C936 C938 1.363 . S
C936 H952 0.931 . S
C937 C936 1.370 . S
C937 C941 1.408 . S
C938 C936 1.363 . S
C938 C939 1.370 . S
C938 C942 1.524 . S
C939 C931 1.503 . S
C939 C938 1.370 . S
C939 C940 1.403 . S
C940 C939 1.403 . S
C940 C941 1.404 . S
C940 C943 1.539 . S
C941 C937 1.408 . S
C941 C940 1.404 . S
C941 H953 0.930 . S
C942 C938 1.524 . S
C942 H954 0.956 . S
C942 H955 0.961 . S
C942 H956 0.961 . S
C943 C940 1.539 . S
C943 H957 0.958 . S
C943 H958 0.961 . S
C943 H959 0.960 . S
H944 C928 0.931 . S
H945 C933 0.929 . S
H946 C934 0.960 . S
H947 C934 0.962 . S
H948 C934 0.960 . S
H949 C935 0.961 . S
H950 C935 0.961 . S
H951 C935 0.961 . S
H952 C936 0.931 . S
H953 C941 0.930 . S
H954 C942 0.956 . S
H955 C942 0.961 . S
H956 C942 0.961 . S
H957 C943 0.958 . S
H958 C943 0.961 . S
H959 C943 0.960 . S
C193 C8 1.289 . S
C201 C96 1.268 . S
C225 C31 1.200 . S
C233 C109 1.183 . S
C257 C53 1.391 . S
C265 C123 1.389 . S
C297 C136 1.338 . S
C289 C74 1.361 . S
C329 C148 1.260 . S
C321 C26 1.226 . S
C353 C48 1.409 . S
C361 C162 1.349 . S
C385 C71 1.244 . S
C393 C174 1.222 . S
C417 C5 1.382 . S
C425 C188 1.352 . S
C449 C50 1.280 . S
C457 C187 1.249 . S
C489 C149 1.374 . S
C481 C70 1.402 . S
C521 C161 1.267 . S
C513 C4 1.281 . S
C545 C28 1.344 . S
C553 C175 1.334 . S
C585 C110 1.388 . S
C577 C73 1.427 . S
C609 C7 1.209 . S
C617 C122 1.188 . S
C649 C135 1.277 . S
C641 C30 1.323 . S
C681 C97 1.332 . S
C673 C52 1.349 . S
C713 C170 1.310 . S
C705 C9 1.330 . S
C745 C183 1.252 . S
C737 C29 1.367 . S
C769 C51 1.420 . S
C777 C144 1.371 . S
C809 C157 1.394 . S
C801 C75 1.417 . S
C841 C118 1.318 . S
C833 C27 1.362 . S
C865 C49 1.413 . S
C873 C131 1.295 . S
C905 C92 1.357 . S
C897 C72 1.414 . S
C937 C105 1.284 . S
C929 C6 1.355 . S
