# Generated by pormake.
# Topology pyr, (3,6)-cn, num edge types: 1
# Building blocks:
#     Node 0, Type 0, BuildingBlock: KAKCAD_clean_linker_0, # of connection points: 3
#     Node 1, Type 0, BuildingBlock: KAKCAD_clean_linker_0, # of connection points: 3
#     Node 2, Type 0, BuildingBlock: KAKCAD_clean_linker_0, # of connection points: 3
#     Node 3, Type 0, BuildingBlock: KAKCAD_clean_linker_0, # of connection points: 3
#     Node 4, Type 0, BuildingBlock: KAKCAD_clean_linker_0, # of connection points: 3
#     Node 5, Type 0, BuildingBlock: KAKCAD_clean_linker_0, # of connection points: 3
#     Node 6, Type 0, BuildingBlock: KAKCAD_clean_linker_0, # of connection points: 3
#     Node 7, Type 0, BuildingBlock: KAKCAD_clean_linker_0, # of connection points: 3
#     Node 8, Type 1, BuildingBlock: BETDEL_clean_sbu_0, # of connection points: 6
#     Node 9, Type 1, BuildingBlock: BETDEL_clean_sbu_0, # of connection points: 6
#     Node 10, Type 1, BuildingBlock: BETDEL_clean_sbu_0, # of connection points: 6
#     Node 11, Type 1, BuildingBlock: BETDEL_clean_sbu_0, # of connection points: 6
#     Edge 12, Type (0, 1), BuildingBlock: XUDNAN_clean_linker_2, # of connection points: 2
#     Edge 13, Type (0, 1), BuildingBlock: XUDNAN_clean_linker_2, # of connection points: 2
#     Edge 14, Type (0, 1), BuildingBlock: XUDNAN_clean_linker_2, # of connection points: 2
#     Edge 15, Type (0, 1), BuildingBlock: XUDNAN_clean_linker_2, # of connection points: 2
#     Edge 16, Type (0, 1), BuildingBlock: XUDNAN_clean_linker_2, # of connection points: 2
#     Edge 17, Type (0, 1), BuildingBlock: XUDNAN_clean_linker_2, # of connection points: 2
#     Edge 18, Type (0, 1), BuildingBlock: XUDNAN_clean_linker_2, # of connection points: 2
#     Edge 19, Type (0, 1), BuildingBlock: XUDNAN_clean_linker_2, # of connection points: 2
#     Edge 20, Type (0, 1), BuildingBlock: XUDNAN_clean_linker_2, # of connection points: 2
#     Edge 21, Type (0, 1), BuildingBlock: XUDNAN_clean_linker_2, # of connection points: 2
#     Edge 22, Type (0, 1), BuildingBlock: XUDNAN_clean_linker_2, # of connection points: 2
#     Edge 23, Type (0, 1), BuildingBlock: XUDNAN_clean_linker_2, # of connection points: 2
#     Edge 24, Type (0, 1), BuildingBlock: XUDNAN_clean_linker_2, # of connection points: 2
#     Edge 25, Type (0, 1), BuildingBlock: XUDNAN_clean_linker_2, # of connection points: 2
#     Edge 26, Type (0, 1), BuildingBlock: XUDNAN_clean_linker_2, # of connection points: 2
#     Edge 27, Type (0, 1), BuildingBlock: XUDNAN_clean_linker_2, # of connection points: 2
#     Edge 28, Type (0, 1), BuildingBlock: XUDNAN_clean_linker_2, # of connection points: 2
#     Edge 29, Type (0, 1), BuildingBlock: XUDNAN_clean_linker_2, # of connection points: 2
#     Edge 30, Type (0, 1), BuildingBlock: XUDNAN_clean_linker_2, # of connection points: 2
#     Edge 31, Type (0, 1), BuildingBlock: XUDNAN_clean_linker_2, # of connection points: 2
#     Edge 32, Type (0, 1), BuildingBlock: XUDNAN_clean_linker_2, # of connection points: 2
#     Edge 33, Type (0, 1), BuildingBlock: XUDNAN_clean_linker_2, # of connection points: 2
#     Edge 34, Type (0, 1), BuildingBlock: XUDNAN_clean_linker_2, # of connection points: 2
#     Edge 35, Type (0, 1), BuildingBlock: XUDNAN_clean_linker_2, # of connection points: 2
# Relax obj value: 0.027
# Max RMSD: 0.089
# Mean RMSD: 0.037
data_MOF--net-pyr--node1-BETDEL_clean_sbu_0--node2-KAKCAD_clean_linker_0--edge1-XUDNAN_clean_linker_2
_symmetry_space_group_name_H-M    P1
_symmetry_Int_Tables_number       1
_symmetry_cell_setting            triclinic
loop_
_symmetry_equiv_pos_as_xyz
'x, y, z'
_cell_length_a     45.178132
_cell_length_b     46.545303
_cell_length_c     42.787308
_cell_angle_alpha  90.321446
_cell_angle_beta   87.941608
_cell_angle_gamma 94.807475
loop_
_atom_site_label
_atom_site_type_symbol
_atom_site_fract_x
_atom_site_fract_y
_atom_site_fract_z
_atom_type_partial_charge
C0 C 0.17046 0.19616 0.29043 0.0
C1 C 0.18373 0.17985 0.31272 0.0
C2 C 0.18769 0.21187 0.26779 0.0
C3 C 0.2189 0.21238 0.26704 0.0
C4 C 0.23238 0.19685 0.29001 0.0
C5 C 0.21496 0.18074 0.31264 0.0
C6 C 0.23672 0.22832 0.24154 0.0
C7 C 0.22684 0.25373 0.2296 0.0
C8 C 0.23993 0.26666 0.20248 0.0
C9 C 0.26526 0.25549 0.18863 0.0
C10 C 0.27601 0.22989 0.20002 0.0
C11 C 0.26134 0.21662 0.22665 0.0
C12 C 0.2998 0.21504 0.1821 0.0
C13 C 0.30349 0.21826 0.14944 0.0
C14 C 0.3175 0.19575 0.19676 0.0
C15 C 0.33626 0.17869 0.17908 0.0
C16 C 0.33831 0.18081 0.14627 0.0
C17 C 0.22433 0.28925 0.18675 0.0
C18 C 0.19384 0.28406 0.18107 0.0
C19 C 0.23906 0.31586 0.17773 0.0
C20 C 0.22331 0.33712 0.16416 0.0
C21 C 0.19278 0.33183 0.15864 0.0
C22 C 0.17833 0.30498 0.16699 0.0
C23 C 0.32272 0.20186 0.13202 0.0
H24 H 0.14653 0.19654 0.29016 0.0
H25 H 0.17626 0.223 0.2503 0.0
H26 H 0.25635 0.19696 0.29039 0.0
H27 H 0.22592 0.16839 0.32948 0.0
H28 H 0.20794 0.26306 0.24071 0.0
H29 H 0.26766 0.19606 0.23463 0.0
H30 H 0.27551 0.26616 0.16811 0.0
H31 H 0.29053 0.23241 0.13665 0.0
H32 H 0.31635 0.19313 0.2219 0.0
H33 H 0.34808 0.16298 0.19107 0.0
H34 H 0.18193 0.26367 0.18757 0.0
H35 H 0.2625 0.32044 0.18184 0.0
H36 H 0.32445 0.20503 0.10695 0.0
H37 H 0.15479 0.30043 0.16334 0.0
H38 H 0.23496 0.3577 0.15795 0.0
C39 C 0.35264 0.90995 0.72786 0.0
C40 C 0.38297 0.91231 0.73428 0.0
C41 C 0.34326 0.90217 0.69821 0.0
C42 C 0.36402 0.89695 0.67403 0.0
C43 C 0.39455 0.90097 0.67995 0.0
C44 C 0.40395 0.90857 0.70989 0.0
C45 C 0.35337 0.8846 0.64403 0.0
C46 C 0.32681 0.89262 0.63197 0.0
C47 C 0.3131 0.87693 0.60753 0.0
C48 C 0.32749 0.85424 0.59367 0.0
C49 C 0.355 0.84724 0.60405 0.0
C50 C 0.36764 0.86223 0.62949 0.0
C51 C 0.36955 0.82272 0.59018 0.0
C52 C 0.3529 0.79648 0.58428 0.0
C53 C 0.40055 0.82464 0.58531 0.0
C54 C 0.41487 0.80017 0.57733 0.0
C55 C 0.39835 0.77357 0.57379 0.0
C56 C 0.28389 0.88434 0.59654 0.0
C57 C 0.263 0.89588 0.6173 0.0
C58 C 0.27711 0.88105 0.56487 0.0
C59 C 0.25118 0.89079 0.5539 0.0
C60 C 0.23201 0.90509 0.57403 0.0
C61 C 0.23744 0.90648 0.60607 0.0
C62 C 0.36724 0.77206 0.57597 0.0
H63 H 0.336 0.91339 0.74605 0.0
H64 H 0.31959 0.89894 0.69476 0.0
H65 H 0.41112 0.89752 0.66169 0.0
H66 H 0.42751 0.91039 0.71421 0.0
H67 H 0.31661 0.9109 0.64211 0.0
H68 H 0.38769 0.85523 0.63912 0.0
H69 H 0.31722 0.84167 0.575 0.0
H70 H 0.32898 0.79432 0.58805 0.0
H71 H 0.41381 0.84477 0.58906 0.0
H72 H 0.43894 0.80167 0.57552 0.0
H73 H 0.26681 0.89769 0.6421 0.0
H74 H 0.29243 0.87237 0.54801 0.0
H75 H 0.3542 0.75159 0.57359 0.0
H76 H 0.22295 0.91727 0.62217 0.0
H77 H 0.24709 0.88876 0.52916 0.0
C78 C 0.75338 0.40765 0.89359 0.0
C79 C 0.77406 0.38838 0.9022 0.0
C80 C 0.72799 0.39772 0.87743 0.0
C81 C 0.72294 0.36837 0.86955 0.0
C82 C 0.74449 0.34956 0.87675 0.0
C83 C 0.76962 0.3594 0.8929 0.0
C84 C 0.69448 0.35656 0.85609 0.0
C85 C 0.68142 0.37039 0.83164 0.0
C86 C 0.65441 0.35871 0.8192 0.0
C87 C 0.64109 0.3323 0.8313 0.0
C88 C 0.65426 0.31799 0.85544 0.0
C89 C 0.6804 0.3308 0.86806 0.0
C90 C 0.64144 0.28957 0.86794 0.0
C91 C 0.61064 0.2835 0.87336 0.0
C92 C 0.66057 0.26872 0.87629 0.0
C93 C 0.64951 0.24331 0.89119 0.0
C94 C 0.61894 0.23771 0.89769 0.0
C95 C 0.64006 0.37435 0.79401 0.0
C96 C 0.64234 0.40468 0.79337 0.0
C97 C 0.62367 0.35937 0.77068 0.0
C98 C 0.60948 0.37432 0.74792 0.0
C99 C 0.61149 0.40467 0.74768 0.0
C100 C 0.62859 0.41955 0.77043 0.0
C101 C 0.59947 0.25771 0.88798 0.0
H102 H 0.75623 0.43014 0.90038 0.0
H103 H 0.71176 0.41272 0.87227 0.0
H104 H 0.74164 0.32697 0.87036 0.0
H105 H 0.78552 0.34416 0.89839 0.0
H106 H 0.69273 0.38996 0.82197 0.0
H107 H 0.68981 0.32074 0.88777 0.0
H108 H 0.62048 0.32286 0.82207 0.0
H109 H 0.59527 0.29907 0.86734 0.0
H110 H 0.68432 0.27219 0.87167 0.0
H111 H 0.66497 0.228 0.89773 0.0
H112 H 0.65432 0.41719 0.81099 0.0
H113 H 0.62177 0.33605 0.76987 0.0
H114 H 0.57576 0.25386 0.89266 0.0
H115 H 0.63135 0.44288 0.7707 0.0
H116 H 0.59644 0.36203 0.73093 0.0
C117 C 0.88198 0.60158 0.25917 0.0
C118 C 0.91281 0.60682 0.25336 0.0
C119 C 0.8679 0.61471 0.28443 0.0
C120 C 0.88433 0.63307 0.30492 0.0
C121 C 0.9152 0.638 0.29932 0.0
C122 C 0.92916 0.62536 0.27373 0.0
C123 C 0.86933 0.64729 0.33177 0.0
C124 C 0.84496 0.63293 0.34819 0.0
C125 C 0.83009 0.64643 0.37299 0.0
C126 C 0.84079 0.67451 0.38193 0.0
C127 C 0.86595 0.68868 0.36676 0.0
C128 C 0.87955 0.67521 0.34129 0.0
C129 C 0.87914 0.71689 0.37845 0.0
C130 C 0.86116 0.73904 0.38732 0.0
C131 C 0.91005 0.72136 0.38192 0.0
C132 C 0.92261 0.74707 0.39462 0.0
C133 C 0.90458 0.7689 0.40378 0.0
C134 C 0.80393 0.63091 0.38986 0.0
C135 C 0.78444 0.61102 0.3741 0.0
C136 C 0.79829 0.6356 0.42196 0.0
C137 C 0.77387 0.62112 0.43769 0.0
C138 C 0.75473 0.6008 0.4221 0.0
C139 C 0.76043 0.59596 0.39004 0.0
C140 C 0.87382 0.7649 0.39983 0.0
H141 H 0.86863 0.58711 0.24439 0.0
H142 H 0.84405 0.61064 0.28765 0.0
H143 H 0.92879 0.65153 0.3148 0.0
H144 H 0.95283 0.63041 0.26988 0.0
H145 H 0.83807 0.61084 0.34211 0.0
H146 H 0.89806 0.68677 0.32873 0.0
H147 H 0.82992 0.68529 0.40107 0.0
H148 H 0.83733 0.73628 0.38477 0.0
H149 H 0.92445 0.70458 0.37577 0.0
H150 H 0.94634 0.74967 0.39798 0.0
H151 H 0.78751 0.60708 0.34929 0.0
H152 H 0.81287 0.65026 0.43526 0.0
H153 H 0.85957 0.78145 0.4072 0.0
H154 H 0.74656 0.58032 0.37715 0.0
H155 H 0.77001 0.62614 0.46214 0.0
C156 C 0.81191 0.82311 0.70173 0.0
C157 C 0.82535 0.84925 0.71334 0.0
C158 C 0.79548 0.80359 0.72206 0.0
C159 C 0.79244 0.81007 0.75408 0.0
C160 C 0.80684 0.8355 0.76568 0.0
C161 C 0.82322 0.8547 0.74567 0.0
C162 C 0.77316 0.79185 0.77598 0.0
C163 C 0.78347 0.76712 0.789 0.0
C164 C 0.76888 0.75385 0.81555 0.0
C165 C 0.74303 0.7655 0.82817 0.0
C166 C 0.73288 0.79073 0.8157 0.0
C167 C 0.74774 0.80316 0.78909 0.0
C168 C 0.70975 0.80655 0.8328 0.0
C169 C 0.68375 0.79206 0.84596 0.0
C170 C 0.71438 0.83658 0.83719 0.0
C171 C 0.69393 0.85165 0.85463 0.0
C172 C 0.66813 0.83721 0.86831 0.0
C173 C 0.78351 0.73124 0.83287 0.0
C174 C 0.80044 0.71114 0.81705 0.0
C175 C 0.78336 0.73171 0.86577 0.0
C176 C 0.80091 0.71409 0.88218 0.0
C177 C 0.81948 0.69561 0.86633 0.0
C178 C 0.81823 0.69351 0.8336 0.0
C179 C 0.66313 0.80722 0.86336 0.0
H180 H 0.81328 0.81824 0.67697 0.0
H181 H 0.7845 0.78398 0.71272 0.0
H182 H 0.80501 0.84073 0.79035 0.0
H183 H 0.834 0.87414 0.75559 0.0
H184 H 0.80436 0.75992 0.78008 0.0
H185 H 0.74063 0.8229 0.77956 0.0
H186 H 0.73188 0.75607 0.84896 0.0
H187 H 0.67936 0.76901 0.84283 0.0
H188 H 0.73444 0.84843 0.828 0.0
H189 H 0.69901 0.87454 0.85833 0.0
H190 H 0.80079 0.70974 0.79177 0.0
H191 H 0.77108 0.74693 0.87904 0.0
H192 H 0.64331 0.79535 0.87307 0.0
H193 H 0.83218 0.67943 0.82067 0.0
H194 H 0.80092 0.71587 0.90744 0.0
C195 C 0.61824 0.08992 0.3144 0.0
C196 C 0.61835 0.11039 0.2903 0.0
C197 C 0.63076 0.09762 0.34305 0.0
C198 C 0.6432 0.12587 0.34784 0.0
C199 C 0.64423 0.14588 0.32343 0.0
C200 C 0.63214 0.13819 0.29493 0.0
C201 C 0.65485 0.13536 0.37818 0.0
C202 C 0.67854 0.12244 0.39078 0.0
C203 C 0.69299 0.13488 0.41672 0.0
C204 C 0.68326 0.16025 0.43003 0.0
C205 C 0.65938 0.17326 0.41758 0.0
C206 C 0.64483 0.16012 0.39218 0.0
C207 C 0.65069 0.2014 0.42962 0.0
C208 C 0.65182 0.20817 0.46161 0.0
C209 C 0.641 0.22175 0.40896 0.0
C210 C 0.63105 0.24746 0.42017 0.0
C211 C 0.63139 0.25395 0.45225 0.0
C212 C 0.7201 0.123 0.42767 0.0
C213 C 0.72178 0.09304 0.42904 0.0
C214 C 0.74525 0.14153 0.43456 0.0
C215 C 0.77189 0.1303 0.44139 0.0
C216 C 0.77388 0.10042 0.44106 0.0
C217 C 0.74852 0.08185 0.43553 0.0
C218 C 0.64262 0.23432 0.47275 0.0
H219 H 0.60784 0.06831 0.31141 0.0
H220 H 0.62999 0.08187 0.36166 0.0
H221 H 0.65438 0.16761 0.32647 0.0
H222 H 0.63354 0.15415 0.27649 0.0
H223 H 0.68693 0.10391 0.37906 0.0
H224 H 0.62608 0.16958 0.38243 0.0
H225 H 0.69497 0.17033 0.4494 0.0
H226 H 0.65913 0.19305 0.47824 0.0
H227 H 0.64075 0.21778 0.38401 0.0
H228 H 0.62223 0.26174 0.40363 0.0
H229 H 0.70261 0.07828 0.42438 0.0
H230 H 0.7448 0.16472 0.43324 0.0
H231 H 0.64385 0.23887 0.49753 0.0
H232 H 0.74956 0.05868 0.43565 0.0
H233 H 0.79129 0.14498 0.44542 0.0
C234 C 0.24402 0.62298 0.15562 0.0
C235 C 0.23787 0.625 0.12375 0.0
C236 C 0.27131 0.63413 0.16684 0.0
C237 C 0.29347 0.64731 0.14645 0.0
C238 C 0.28783 0.64811 0.1143 0.0
C239 C 0.26036 0.63718 0.10311 0.0
C240 C 0.3216 0.66135 0.15899 0.0
C241 C 0.33477 0.64964 0.1848 0.0
C242 C 0.35985 0.66393 0.19852 0.0
C243 C 0.37256 0.68986 0.18502 0.0
C244 C 0.36035 0.70144 0.1585 0.0
C245 C 0.33468 0.68724 0.14606 0.0
C246 C 0.37386 0.72859 0.14374 0.0
C247 C 0.38373 0.75247 0.16203 0.0
C248 C 0.37601 0.73109 0.11097 0.0
C249 C 0.38691 0.75701 0.09683 0.0
C250 C 0.39606 0.78111 0.11507 0.0
C251 C 0.37258 0.65138 0.22672 0.0
C252 C 0.35378 0.63643 0.24927 0.0
C253 C 0.40351 0.65305 0.23083 0.0
C254 C 0.41525 0.63905 0.25594 0.0
C255 C 0.39637 0.62278 0.27718 0.0
C256 C 0.36554 0.62203 0.27393 0.0
C257 C 0.39472 0.77844 0.14784 0.0
H258 H 0.2275 0.6132 0.17214 0.0
H259 H 0.27457 0.63324 0.19175 0.0
H260 H 0.3045 0.65755 0.09773 0.0
H261 H 0.25642 0.6392 0.07843 0.0
H262 H 0.32559 0.62906 0.19403 0.0
H263 H 0.32431 0.69699 0.12678 0.0
H264 H 0.39194 0.70107 0.19509 0.0
H265 H 0.38212 0.75137 0.18732 0.0
H266 H 0.36917 0.71295 0.09618 0.0
H267 H 0.38822 0.75815 0.07153 0.0
H268 H 0.32985 0.63537 0.24763 0.0
H269 H 0.41878 0.66414 0.21397 0.0
H270 H 0.40137 0.79668 0.16257 0.0
H271 H 0.35053 0.60981 0.2902 0.0
H272 H 0.43914 0.63975 0.25789 0.0
C273 C 0.13071 0.25805 0.61651 0.0
C274 C 0.10015 0.25493 0.61111 0.0
C275 C 0.14384 0.2841 0.62805 0.0
C276 C 0.12649 0.30716 0.63497 0.0
C277 C 0.09582 0.30379 0.63022 0.0
C278 C 0.08282 0.278 0.61805 0.0
C279 C 0.14035 0.33456 0.64753 0.0
C280 C 0.16459 0.3494 0.63138 0.0
C281 C 0.17898 0.37475 0.64386 0.0
C282 C 0.16859 0.38459 0.67312 0.0
C283 C 0.14393 0.37041 0.68917 0.0
C284 C 0.1297 0.34553 0.67602 0.0
C285 C 0.1336 0.38178 0.71985 0.0
C286 C 0.15449 0.39171 0.74181 0.0
C287 C 0.10324 0.38452 0.72668 0.0
C288 C 0.09423 0.39839 0.75418 0.0
C289 C 0.11547 0.40981 0.77508 0.0
C290 C 0.205 0.39078 0.62702 0.0
C291 C 0.22414 0.37654 0.60663 0.0
C292 C 0.21148 0.42057 0.63185 0.0
C293 C 0.23698 0.4352 0.6184 0.0
C294 C 0.25631 0.421 0.59817 0.0
C295 C 0.24899 0.3915 0.59199 0.0
C296 C 0.14554 0.40566 0.769 0.0
H297 H 0.14453 0.24066 0.61097 0.0
H298 H 0.16752 0.2862 0.63175 0.0
H299 H 0.08204 0.3213 0.63535 0.0
H300 H 0.05922 0.27608 0.61391 0.0
H301 H 0.17168 0.34125 0.60883 0.0
H302 H 0.11106 0.33406 0.68851 0.0
H303 H 0.17973 0.40343 0.68381 0.0
H304 H 0.17794 0.3893 0.73764 0.0
H305 H 0.08664 0.37713 0.71015 0.0
H306 H 0.0709 0.40145 0.75833 0.0
H307 H 0.22045 0.35364 0.60223 0.0
H308 H 0.19702 0.43294 0.6463 0.0
H309 H 0.1623 0.41391 0.78499 0.0
H310 H 0.26238 0.37958 0.57594 0.0
H311 H 0.24152 0.45762 0.62461 0.0
Dy312 Dy 0.0169 0.01869 0.47458 0.0
C313 C 0.97214 0.97406 0.592 0.0
C314 C 0.02945 0.0532 0.42328 0.0
Dy315 Dy 0.99647 1.00276 0.54005 0.0
O316 O 0.03368 0.02591 0.42491 0.0
O317 O 0.01439 0.05982 0.44836 0.0
O318 O 0.0637 0.01026 0.47265 0.0
O319 O 0.04001 1.00321 0.51578 0.0
C320 C 0.06519 1.0035 0.50165 0.0
C321 C 0.95777 0.0294 0.50659 0.0
O322 O 0.02629 0.04192 0.5517 0.0
O323 O 0.01929 0.05938 0.50264 0.0
O324 O 0.97624 1.00185 0.58905 0.0
O325 O 0.98357 0.96212 0.56756 0.0
O326 O 0.9611 0.0336 0.5361 0.0
O327 O 0.97361 0.01019 0.49696 0.0
O328 O 0.99535 0.97495 0.463 0.0
O329 O 0.99316 0.96043 0.51483 0.0
C330 C 0.02754 0.06361 0.53172 0.0
C331 C 0.99045 0.95464 0.48466 0.0
Dy332 Dy 0.52781 0.01646 0.03686 0.0
C333 C 0.45852 0.98183 0.93439 0.0
C334 C 0.55869 0.04451 0.08289 0.0
Dy335 Dy 0.4896 1.00434 0.98317 0.0
O336 O 0.55548 0.01672 0.07959 0.0
O337 O 0.54601 0.05679 0.06045 0.0
O338 O 0.51995 0.97172 0.05534 0.0
O339 O 0.48595 0.98967 0.03156 0.0
C340 C 0.49404 0.96688 0.0434 0.0
C341 C 0.52285 0.05453 0.97837 0.0
O342 O 0.45706 0.02824 0.0113 0.0
O343 O 0.48986 0.04378 0.04935 0.0
O344 O 0.48324 0.99798 0.93188 0.0
O345 O 0.45049 0.97813 0.9636 0.0
O346 O 0.4961 0.05024 0.96835 0.0
O347 O 0.53157 0.03133 0.98862 0.0
O348 O 0.55998 0.99397 1.00588 0.0
O349 O 0.52251 0.97112 0.97726 0.0
C350 C 0.46372 0.0441 0.03629 0.0
C351 C 0.55042 0.97387 0.98568 0.0
Dy352 Dy 0.51174 0.48294 0.49531 0.0
C353 C 0.47824 0.58696 0.54461 0.0
C354 C 0.53103 0.43016 0.48407 0.0
Dy355 Dy 0.50136 0.53844 0.52317 0.0
O356 O 0.50962 0.43575 0.50337 0.0
O357 O 0.54169 0.45349 0.4696 0.0
O358 O 0.46338 0.47329 0.48702 0.0
O359 O 0.4763 0.49691 0.52693 0.0
C360 C 0.45449 0.48787 0.51097 0.0
C361 C 0.55878 0.53435 0.50854 0.0
O362 O 0.50334 0.51237 0.5666 0.0
O363 O 0.53293 0.48109 0.54189 0.0
O364 O 0.50214 0.57708 0.55449 0.0
O365 O 0.46689 0.57048 0.52288 0.0
O366 O 0.54913 0.54878 0.53214 0.0
O367 O 0.53756 0.52495 0.49178 0.0
O368 O 0.50122 0.50339 0.45049 0.0
O369 O 0.48704 0.54532 0.4741 0.0
C370 C 0.52221 0.49225 0.56788 0.0
C371 C 0.48974 0.52861 0.44916 0.0
Dy372 Dy 0.01978 0.48691 0.02363 0.0
C373 C 0.95894 0.57619 0.96845 0.0
C374 C 0.05639 0.45399 0.0558 0.0
Dy375 Dy 0.99399 0.53613 0.9915 0.0
O376 O 0.04623 0.47787 0.06508 0.0
O377 O 0.0461 0.44724 0.02832 0.0
O378 O 0.98247 0.48632 0.05962 0.0
O379 O 0.99888 0.52526 0.04032 0.0
C380 C 0.97966 0.51382 0.05946 0.0
C381 C 0.03552 0.51186 0.95647 0.0
O382 O 0.03006 0.56012 0.01798 0.0
O383 O 0.05805 0.521 0.01895 0.0
O384 O 0.97473 0.57945 0.99321 0.0
O385 O 0.96246 0.55114 0.95618 0.0
O386 O 0.03123 0.53907 0.95591 0.0
O387 O 0.01615 0.49837 0.97416 0.0
O388 O 0.98133 0.46127 1.00271 0.0
O389 O 0.95608 0.50189 0.99438 0.0
C390 C 0.05542 0.54886 0.0229 0.0
C391 C 0.95719 0.47354 0.99484 0.0
H392 H 0.13236 0.14717 0.30003 0.0
H393 H 0.19171 0.1702 0.37541 0.0
H394 H 0.1583 0.14043 0.41189 0.0
H395 H 0.06444 0.15011 0.34609 0.0
H396 H 0.04546 0.12043 0.32567 0.0
H397 H 0.0744 0.14309 0.30577 0.0
H398 H 0.10261 0.09818 0.29177 0.0
H399 H 0.07379 0.07534 0.31158 0.0
H400 H 0.11187 0.07457 0.32256 0.0
H401 H 0.11716 0.10933 0.44021 0.0
H402 H 0.07342 0.07725 0.45767 0.0
H403 H 0.04121 0.07444 0.36341 0.0
C404 C 0.13831 0.14624 0.32427 0.0
C405 C 0.1646 0.16126 0.33487 0.0
C406 C 0.17181 0.15878 0.36666 0.0
C407 C 0.15286 0.14209 0.38758 0.0
C408 C 0.12685 0.12801 0.37629 0.0
C409 C 0.11969 0.12985 0.34534 0.0
C410 C 0.0905 0.11276 0.33893 0.0
C411 C 0.06733 0.13279 0.32849 0.0
C412 C 0.09497 0.08879 0.31478 0.0
C413 C 0.08237 0.10049 0.37104 0.0
C414 C 0.10349 0.10986 0.39236 0.0
C415 C 0.1006 0.1019 0.42368 0.0
C416 C 0.07565 0.0838 0.43336 0.0
C417 C 0.05402 0.07365 0.41181 0.0
C418 C 0.05742 0.08203 0.38026 0.0
H419 H 0.42907 0.94902 0.75504 0.0
H420 H 0.35759 0.88664 0.78678 0.0
H421 H 0.36958 0.89748 0.84148 0.0
H422 H 0.48056 0.9332 0.81644 0.0
H423 H 0.49493 0.97035 0.81977 0.0
H424 H 0.48172 0.9566 0.7829 0.0
H425 H 0.44575 0.99707 0.78141 0.0
H426 H 0.45854 0.01069 0.81845 0.0
H427 H 0.41951 1.00093 0.81361 0.0
H428 H 0.38661 0.91708 0.89228 0.0
H429 H 0.4108 0.94207 0.93695 0.0
H430 H 0.47219 0.99051 0.87255 0.0
C431 C 0.4163 0.93734 0.77351 0.0
C432 C 0.39213 0.91733 0.76677 0.0
C433 C 0.37578 0.90254 0.79152 0.0
C434 C 0.38251 0.90838 0.82263 0.0
C435 C 0.40588 0.92879 0.82854 0.0
C436 C 0.42283 0.94279 0.80478 0.0
C437 C 0.44644 0.96412 0.81773 0.0
C438 C 0.47776 0.95554 0.80867 0.0
C439 C 0.44229 0.99503 0.80717 0.0
C440 C 0.43959 0.96028 0.8524 0.0
C441 C 0.41614 0.93978 0.8581 0.0
C442 C 0.4052 0.93299 0.88824 0.0
C443 C 0.41892 0.94734 0.91338 0.0
C444 C 0.44324 0.96803 0.90799 0.0
C445 C 0.45362 0.97465 0.87719 0.0
H446 H 0.60111 0.39162 0.68528 0.0
H447 H 0.58444 0.45467 0.75775 0.0
H448 H 0.55956 0.48309 0.71996 0.0
H449 H 0.61552 0.43997 0.62193 0.0
H450 H 0.59599 0.41745 0.59363 0.0
H451 H 0.61213 0.40131 0.62641 0.0
H452 H 0.56094 0.37518 0.64215 0.0
H453 H 0.54472 0.39121 0.60929 0.0
H454 H 0.52925 0.39591 0.64821 0.0
H455 H 0.53701 0.5054 0.67464 0.0
H456 H 0.51855 0.52018 0.62405 0.0
H457 H 0.54875 0.44277 0.5807 0.0
C458 C 0.59194 0.4112 0.69337 0.0
C459 C 0.59527 0.42097 0.72462 0.0
C460 C 0.58301 0.44693 0.73391 0.0
C461 C 0.56851 0.46317 0.71265 0.0
C462 C 0.56594 0.45312 0.68211 0.0
C463 C 0.57709 0.42766 0.67244 0.0
C464 C 0.57127 0.42189 0.63812 0.0
C465 C 0.60048 0.42007 0.6189 0.0
C466 C 0.5503 0.39442 0.63422 0.0
C467 C 0.55603 0.44858 0.62993 0.0
C468 C 0.55281 0.46606 0.6558 0.0
C469 C 0.53928 0.49183 0.65422 0.0
C470 C 0.52879 0.50003 0.6254 0.0
C471 C 0.53219 0.48268 0.59844 0.0
C472 C 0.54595 0.45658 0.60087 0.0
H473 H 0.89106 0.59333 0.19487 0.0
H474 H 0.96894 0.58798 0.25075 0.0
H475 H 0.9946 0.56607 0.20623 0.0
H476 H 0.89573 0.52389 0.15821 0.0
H477 H 0.8829 0.53522 0.12119 0.0
H478 H 0.87103 0.5523 0.15683 0.0
H479 H 0.89074 0.60215 0.13442 0.0
H480 H 0.90281 0.58521 0.09876 0.0
H481 H 0.92896 0.6079 0.12068 0.0
H482 H 0.01207 0.54477 0.15635 0.0
H483 H 0.01912 0.52212 0.10457 0.0
H484 H 0.92917 0.53768 0.08163 0.0
C485 C 0.9134 0.58737 0.19797 0.0
C486 C 0.92799 0.59289 0.22644 0.0
C487 C 0.95741 0.58486 0.22909 0.0
C488 C 0.97218 0.57215 0.20396 0.0
C489 C 0.95717 0.56717 0.17637 0.0
C490 C 0.92836 0.57421 0.17326 0.0
C491 C 0.91694 0.56533 0.14139 0.0
C492 C 0.89006 0.54285 0.14461 0.0
C493 C 0.90943 0.59173 0.12271 0.0
C494 C 0.9439 0.55216 0.12714 0.0
C495 C 0.96691 0.55375 0.14773 0.0
C496 C 0.99419 0.54324 0.1401 0.0
C497 C 0.99798 0.53043 0.11076 0.0
C498 C 0.97458 0.52808 0.08957 0.0
C499 C 0.94725 0.53919 0.09767 0.0
H500 H 0.39105 0.15501 0.15708 0.0
H501 H 0.32077 0.15758 0.09056 0.0
H502 H 0.3455 0.12396 0.05646 0.0
H503 H 0.45194 0.14979 0.10106 0.0
H504 H 0.47042 0.12419 0.1232 0.0
H505 H 0.44773 0.14908 0.14312 0.0
H506 H 0.41657 0.10647 0.17008 0.0
H507 H 0.43918 0.08144 0.15023 0.0
H508 H 0.39942 0.07792 0.14653 0.0
H509 H 0.37644 0.09023 0.02908 0.0
H510 H 0.41294 0.05764 1.00944 0.0
H511 H 0.46412 0.07445 0.09265 0.0
C512 C 0.38082 0.14844 0.1354 0.0
C513 C 0.35411 0.15977 0.12639 0.0
C514 C 0.3416 0.15029 0.09778 0.0
C515 C 0.35534 0.13083 0.07824 0.0
C516 C 0.38157 0.12042 0.08753 0.0
C517 C 0.39427 0.12866 0.11543 0.0
C518 C 0.42253 0.11352 0.11957 0.0
C519 C 0.44977 0.13546 0.12186 0.0
C520 C 0.41922 0.09366 0.14831 0.0
C521 C 0.42378 0.09605 0.08936 0.0
C522 C 0.39969 0.10032 0.07151 0.0
C523 C 0.39542 0.08661 0.04283 0.0
C524 C 0.41631 0.06802 0.03189 0.0
C525 C 0.44147 0.06326 0.04939 0.0
C526 C 0.44517 0.07757 0.07862 0.0
H527 H 0.17443 0.9117 0.59609 0.0
H528 H 0.23966 0.93841 0.52244 0.0
H529 H 0.2046 0.9691 0.50017 0.0
H530 H 0.11055 0.90843 0.54968 0.0
H531 H 0.08646 0.92349 0.57883 0.0
H532 H 0.11704 0.90415 0.59068 0.0
H533 H 0.13688 0.9484 0.62299 0.0
H534 H 0.10642 0.968 0.61102 0.0
H535 H 0.14418 0.98291 0.60409 0.0
H536 H 0.16514 0.99651 0.48569 0.0
H537 H 0.11841 0.01607 0.47424 0.0
H538 H 0.07532 0.97223 0.55532 0.0
C539 C 0.18122 0.92413 0.57535 0.0
C540 C 0.20963 0.92234 0.56072 0.0
C541 C 0.21781 0.93884 0.53361 0.0
C542 C 0.19823 0.95672 0.52102 0.0
C543 C 0.17064 0.95816 0.53598 0.0
C544 C 0.16177 0.94229 0.56231 0.0
C545 C 0.13006 0.94746 0.57255 0.0
C546 C 0.10984 0.91919 0.57293 0.0
C547 C 0.12935 0.96259 0.60457 0.0
C548 C 0.1223 0.9676 0.54682 0.0
C549 C 0.14663 0.97398 0.52679 0.0
C550 C 0.14584 0.99177 0.50108 0.0
C551 C 0.11909 1.00272 0.49482 0.0
C552 C 0.09323 0.99539 0.51375 0.0
C553 C 0.09487 0.97822 0.54067 0.0
H554 H 0.81229 0.43762 0.89604 0.0
H555 H 0.79404 0.36042 0.95223 0.0
H556 H 0.83882 0.37359 0.98221 0.0
H557 H 0.89087 0.43585 0.89143 0.0
H558 H 0.89882 0.47436 0.89409 0.0
H559 H 0.86466 0.45961 0.87764 0.0
H560 H 0.83438 0.48833 0.91774 0.0
H561 H 0.86848 0.50343 0.93402 0.0
H562 H 0.84029 0.48463 0.95893 0.0
H563 H 0.8877 0.39335 1.00373 0.0
H564 H 0.93457 0.42109 0.01831 0.0
H565 H 0.91946 0.48626 0.94999 0.0
C566 C 0.81749 0.42373 0.91495 0.0
C567 C 0.79983 0.39782 0.92155 0.0
C568 C 0.80755 0.38009 0.94634 0.0
C569 C 0.83288 0.38744 0.96361 0.0
C570 C 0.85024 0.41271 0.95599 0.0
C571 C 0.84272 0.43078 0.93251 0.0
C572 C 0.86548 0.45645 0.92871 0.0
C573 C 0.88086 0.45656 0.89603 0.0
C574 C 0.8513 0.48489 0.93526 0.0
C575 C 0.88677 0.45002 0.95384 0.0
C576 C 0.87784 0.42452 0.96908 0.0
C577 C 0.89478 0.41352 0.9922 0.0
C578 C 0.9214 0.42924 1.00021 0.0
C579 C 0.93037 0.4558 0.98547 0.0
C580 C 0.91284 0.46616 0.96196 0.0
H581 H 0.6996 0.58174 0.39964 0.0
H582 H 0.75104 0.58366 0.48374 0.0
H583 H 0.70735 0.56198 0.51336 0.0
H584 H 0.63301 0.59877 0.43186 0.0
H585 H 0.6096 0.5738 0.40936 0.0
H586 H 0.6456 0.58708 0.39375 0.0
H587 H 0.66007 0.53473 0.38638 0.0
H588 H 0.62396 0.52121 0.40191 0.0
H589 H 0.65707 0.5105 0.41927 0.0
H590 H 0.6573 0.54629 0.53529 0.0
H591 H 0.60385 0.53552 0.54782 0.0
H592 H 0.58506 0.53891 0.44933 0.0
C593 C 0.70211 0.57691 0.42406 0.0
C594 C 0.72895 0.58501 0.43926 0.0
C595 C 0.7307 0.57861 0.47151 0.0
C596 C 0.70606 0.56584 0.48855 0.0
C597 C 0.67995 0.55871 0.47295 0.0
C598 C 0.67788 0.56351 0.44134 0.0
C599 C 0.64674 0.55467 0.4306 0.0
C600 C 0.63294 0.58011 0.41553 0.0
C601 C 0.64698 0.52874 0.40821 0.0
C602 C 0.63117 0.54606 0.46155 0.0
C603 C 0.65098 0.54813 0.48555 0.0
C604 C 0.6417 0.54386 0.51666 0.0
C605 C 0.61134 0.53783 0.52355 0.0
C606 C 0.5906 0.53597 0.49949 0.0
C607 C 0.60066 0.53944 0.46801 0.0
H608 H 0.15689 0.32826 0.10778 0.0
H609 H 0.18912 0.38642 0.18086 0.0
H610 H 0.15765 0.42339 0.16225 0.0
H611 H 0.15501 0.38415 0.0481 0.0
H612 H 0.1221 0.36741 0.03073 0.0
H613 H 0.14717 0.34556 0.04975 0.0
H614 H 0.1037 0.32373 0.08557 0.0
H615 H 0.0785 0.3456 0.06681 0.0
H616 H 0.08196 0.34738 0.10863 0.0
H617 H 0.12102 0.45274 0.13785 0.0
H618 H 0.08458 0.475 0.10659 0.0
H619 H 0.0772 0.39951 0.04642 0.0
C620 C 0.15739 0.34888 0.11967 0.0
C621 C 0.17547 0.35458 0.14575 0.0
C622 C 0.17568 0.38179 0.16069 0.0
C623 C 0.15776 0.40281 0.15037 0.0
C624 C 0.14007 0.39648 0.12475 0.0
C625 C 0.14003 0.37038 0.10926 0.0
C626 C 0.11938 0.36947 0.08188 0.0
C627 C 0.13696 0.36647 0.05077 0.0
C628 C 0.0944 0.3451 0.08598 0.0
C629 C 0.10733 0.39894 0.08475 0.0
C630 C 0.11957 0.41399 0.10981 0.0
C631 C 0.11154 0.44129 0.118 0.0
C632 C 0.09069 0.45371 0.10006 0.0
C633 C 0.07807 0.43911 0.07389 0.0
C634 C 0.08658 0.41128 0.06612 0.0
H635 H 0.57256 0.19839 0.88334 0.0
H636 H 0.64057 0.21723 0.95123 0.0
H637 H 0.62431 0.17185 0.97895 0.0
H638 H 0.51546 0.16701 0.93612 0.0
H639 H 0.50232 0.13954 0.90889 0.0
H640 H 0.51947 0.17347 0.8946 0.0
H641 H 0.55753 0.14639 0.86149 0.0
H642 H 0.54065 0.11236 0.87593 0.0
H643 H 0.57978 0.12171 0.88043 0.0
H644 H 0.60206 0.12288 0.99775 0.0
H645 H 0.57232 0.07656 1.00872 0.0
H646 H 0.51734 0.09148 0.93043 0.0
C647 C 0.58377 0.19309 0.90423 0.0
C648 C 0.60787 0.21123 0.91511 0.0
C649 C 0.62227 0.20341 0.94232 0.0
C650 C 0.61318 0.17773 0.95823 0.0
C651 C 0.58971 0.16002 0.94658 0.0
C652 C 0.57508 0.16745 0.92032 0.0
C653 C 0.55071 0.14452 0.91246 0.0
C654 C 0.52018 0.15688 0.91308 0.0
C655 C 0.55758 0.13042 0.8807 0.0
C656 C 0.55318 0.1236 0.93903 0.0
C657 C 0.57626 0.13251 0.95806 0.0
C658 C 0.58368 0.11587 0.98323 0.0
C659 C 0.56672 0.08964 0.98933 0.0
C660 C 0.54224 0.08085 0.97086 0.0
C661 C 0.53564 0.09799 0.9453 0.0
H662 H 0.92127 0.82288 0.38014 0.0
H663 H 0.91738 0.77175 0.46474 0.0
H664 H 0.94033 0.8135 0.49375 0.0
H665 H 0.99271 0.86213 0.39436 0.0
H666 H 0.98263 0.8956 0.37848 0.0
H667 H 0.96592 0.86178 0.36411 0.0
H668 H 0.91352 0.87828 0.3772 0.0
H669 H 0.93007 0.91216 0.39147 0.0
H670 H 0.90454 0.89004 0.41637 0.0
H671 H 0.96304 0.85964 0.51338 0.0
H672 H 0.98351 0.90883 0.52414 0.0
H673 H 0.97354 0.93194 0.42693 0.0
C674 C 0.92525 0.82072 0.40479 0.0
C675 C 0.9176 0.79438 0.4205 0.0
C676 C 0.92315 0.79192 0.45259 0.0
C677 C 0.93618 0.81542 0.46913 0.0
C678 C 0.94368 0.84111 0.45307 0.0
C679 C 0.93847 0.84404 0.42167 0.0
C680 C 0.94878 0.87425 0.41033 0.0
C681 C 0.97401 0.87338 0.38533 0.0
C682 C 0.92267 0.88958 0.39813 0.0
C683 C 0.96009 0.88792 0.44043 0.0
C684 C 0.95706 0.86818 0.46459 0.0
C685 C 0.96558 0.87531 0.49468 0.0
C686 C 0.97723 0.90348 0.50049 0.0
C687 C 0.98018 0.9245 0.47639 0.0
C688 C 0.97173 0.91643 0.44581 0.0
H689 H 0.39382 0.7295 0.53089 0.0
H690 H 0.43595 0.75773 0.6166 0.0
H691 H 0.45893 0.71167 0.61956 0.0
H692 H 0.37795 0.65505 0.55107 0.0
H693 H 0.38707 0.64145 0.51269 0.0
H694 H 0.37356 0.67663 0.51694 0.0
H695 H 0.42028 0.69942 0.48655 0.0
H696 H 0.43373 0.66425 0.4819 0.0
H697 H 0.45665 0.693 0.49957 0.0
H698 H 0.47715 0.66376 0.61375 0.0
H699 H 0.49274 0.61625 0.59737 0.0
H700 H 0.43914 0.61833 0.51536 0.0
C701 C 0.40804 0.72586 0.55008 0.0
C702 C 0.41349 0.74695 0.57341 0.0
C703 C 0.43207 0.7418 0.59831 0.0
C704 C 0.44495 0.71572 0.60032 0.0
C705 C 0.43911 0.69524 0.57712 0.0
C706 C 0.42145 0.70001 0.55224 0.0
C707 C 0.41978 0.67458 0.52997 0.0
C708 C 0.38767 0.66114 0.52755 0.0
C709 C 0.43343 0.68334 0.49759 0.0
C710 C 0.43891 0.65475 0.5466 0.0
C711 C 0.44979 0.66719 0.57372 0.0
C712 C 0.46881 0.65367 0.59261 0.0
C713 C 0.47751 0.6268 0.58317 0.0
C714 C 0.46698 0.61391 0.55529 0.0
C715 C 0.44713 0.62777 0.537 0.0
H716 H 0.86546 0.84232 0.66357 0.0
H717 H 0.82055 0.90699 0.71613 0.0
H718 H 0.85283 0.94533 0.69002 0.0
H719 H 0.93658 0.87355 0.66437 0.0
H720 H 0.94773 0.86628 0.62441 0.0
H721 H 0.91884 0.84325 0.64379 0.0
H722 H 0.88263 0.8522 0.60013 0.0
H723 H 0.91163 0.87476 0.58011 0.0
H724 H 0.87638 0.88864 0.58983 0.0
H725 H 0.89423 0.97601 0.66564 0.0
H726 H 0.93744 0.99893 0.63572 0.0
H727 H 0.95455 0.91594 0.59522 0.0
C728 C 0.86192 0.86457 0.66887 0.0
C729 C 0.84102 0.87163 0.69258 0.0
C730 C 0.837 0.90102 0.69878 0.0
C731 C 0.85512 0.92301 0.68394 0.0
C732 C 0.8767 0.9154 0.66221 0.0
C733 C 0.8796 0.88703 0.65373 0.0
C734 C 0.90506 0.88519 0.62975 0.0
C735 C 0.92843 0.86593 0.6413 0.0
C736 C 0.89322 0.87457 0.59808 0.0
C737 C 0.91716 0.91666 0.62803 0.0
C738 C 0.90018 0.93362 0.64679 0.0
C739 C 0.90745 0.9631 0.65039 0.0
C740 C 0.93226 0.97587 0.63362 0.0
C741 C 0.94947 0.95923 0.61339 0.0
C742 C 0.94193 0.92916 0.61077 0.0
H743 H 0.61956 0.06049 0.25535 0.0
H744 H 0.58462 0.14468 0.2576 0.0
H745 H 0.56684 0.13687 0.20437 0.0
H746 H 0.64476 0.06077 0.17744 0.0
H747 H 0.63306 0.02362 0.16913 0.0
H748 H 0.64178 0.03448 0.20842 0.0
H749 H 0.58968 0.01377 0.22877 0.0
H750 H 0.58101 1.00222 0.18964 0.0
H751 H 0.55703 0.02508 0.21095 0.0
H752 H 0.55787 0.1229 0.14984 0.0
H753 H 0.54992 0.09955 0.0987 0.0
H754 H 0.58691 0.02272 0.1321 0.0
C755 C 0.6076 0.07698 0.24489 0.0
C756 C 0.60407 0.10347 0.26031 0.0
C757 C 0.58834 0.12457 0.24583 0.0
C758 C 0.57801 0.1203 0.21569 0.0
C759 C 0.58303 0.09458 0.2006 0.0
C760 C 0.59668 0.0729 0.21486 0.0
C761 C 0.59899 0.04726 0.19317 0.0
C762 C 0.63159 0.04119 0.18666 0.0
C763 C 0.58058 0.0205 0.20642 0.0
C764 C 0.58535 0.05844 0.16427 0.0
C765 C 0.57649 0.08585 0.16914 0.0
C766 C 0.56431 0.10128 0.14576 0.0
C767 C 0.56017 0.08796 0.11674 0.0
C768 C 0.56787 0.05944 0.11162 0.0
C769 C 0.58093 0.0446 0.13552 0.0
H770 H 0.43295 0.63901 0.32563 0.0
H771 H 0.38712 0.56476 0.2816 0.0
H772 H 0.40807 0.53257 0.31927 0.0
H773 H 0.49955 0.6059 0.3446 0.0
H774 H 0.50315 0.62323 0.3822 0.0
H775 H 0.48551 0.64063 0.3512 0.0
H776 H 0.43844 0.64449 0.38684 0.0
H777 H 0.45601 0.62733 0.41803 0.0
H778 H 0.42047 0.61242 0.40493 0.0
H779 H 0.43559 0.5083 0.35991 0.0
H780 H 0.46244 0.4937 0.40578 0.0
H781 H 0.48722 0.58361 0.42681 0.0
C782 C 0.42749 0.61596 0.32401 0.0
C783 C 0.40865 0.6042 0.30065 0.0
C784 C 0.40155 0.57404 0.29936 0.0
C785 C 0.41343 0.55564 0.32053 0.0
C786 C 0.43208 0.56777 0.34318 0.0
C787 C 0.43868 0.59725 0.34549 0.0
C788 C 0.45814 0.60464 0.3731 0.0
C789 C 0.48838 0.61948 0.36211 0.0
C790 C 0.44231 0.62332 0.39715 0.0
C791 C 0.46144 0.57473 0.38581 0.0
C792 C 0.44667 0.55378 0.36782 0.0
C793 C 0.44712 0.5245 0.3743 0.0
C794 C 0.46262 0.5164 0.40023 0.0
C795 C 0.47695 0.53749 0.41973 0.0
C796 C 0.47642 0.56703 0.41228 0.0
H797 H 0.07238 0.39824 0.82198 0.0
H798 H 0.13978 0.46346 0.78762 0.0
H799 H 0.1283 0.49488 0.83218 0.0
H800 H 0.01934 0.447 0.85007 0.0
H801 H 0.00786 0.42616 0.88444 0.0
H802 H 0.02141 0.40848 0.84989 0.0
H803 H 0.06101 0.38643 0.88251 0.0
H804 H 0.04779 0.40434 0.9171 0.0
H805 H 0.08636 0.40986 0.90458 0.0
H806 H 0.10971 0.51955 0.8788 0.0
H807 H 0.08293 0.53772 0.92499 0.0
H808 H 0.02777 0.45688 0.93145 0.0
C809 C 0.08457 0.41918 0.82394 0.0
C810 C 0.10717 0.42842 0.8016 0.0
C811 C 0.12273 0.45589 0.80478 0.0
C812 C 0.11635 0.47387 0.82995 0.0
C813 C 0.09445 0.46402 0.85191 0.0
C814 C 0.07867 0.43742 0.84928 0.0
C815 C 0.05611 0.43246 0.87633 0.0
C816 C 0.02429 0.42829 0.86447 0.0
C817 C 0.06325 0.40674 0.89631 0.0
C818 C 0.06137 0.46069 0.89407 0.0
C819 C 0.08378 0.47838 0.87953 0.0
C820 C 0.09224 0.5059 0.89056 0.0
C821 C 0.07694 0.51601 0.9168 0.0
C822 C 0.0535 0.49866 0.93177 0.0
C823 C 0.04595 0.4704 0.92066 0.0
H824 H 0.6515 0.89288 0.86178 0.0
H825 H 0.63874 0.81814 0.92262 0.0
H826 H 0.60826 0.84536 0.95921 0.0
H827 H 0.65946 0.94554 0.92244 0.0
H828 H 0.63974 0.97198 0.903 0.0
H829 H 0.65921 0.94629 0.88033 0.0
H830 H 0.61088 0.92954 0.85234 0.0
H831 H 0.59133 0.95544 0.87458 0.0
H832 H 0.57786 0.91788 0.8753 0.0
H833 H 0.58091 0.88126 0.99067 0.0
H834 H 0.55551 0.92239 0.01265 0.0
H835 H 0.58628 0.97428 0.93237 0.0
C836 C 0.64235 0.88217 0.88279 0.0
C837 C 0.6477 0.85319 0.88914 0.0
C838 C 0.63477 0.84006 0.91678 0.0
C839 C 0.61759 0.85547 0.93795 0.0
C840 C 0.61341 0.8841 0.93131 0.0
C841 C 0.62514 0.89727 0.90424 0.0
C842 C 0.61739 0.92838 0.90281 0.0
C843 C 0.64564 0.94928 0.90211 0.0
C844 C 0.59822 0.93308 0.87459 0.0
C845 C 0.59971 0.93073 0.93346 0.0
C846 C 0.59777 0.90491 0.94955 0.0
C847 C 0.58243 0.9016 0.97836 0.0
C848 C 0.56833 0.9251 0.99082 0.0
C849 C 0.56973 0.95159 0.97462 0.0
C850 C 0.58563 0.95444 0.94558 0.0
H851 H 0.81367 0.11242 0.4869 0.0
H852 H 0.79888 0.06215 0.40238 0.0
H853 H 0.84751 0.04231 0.40721 0.0
H854 H 0.89459 0.12793 0.4747 0.0
H855 H 0.90169 0.12415 0.5156 0.0
H856 H 0.86706 0.1367 0.50397 0.0
H857 H 0.8379 0.09568 0.53585 0.0
H858 H 0.87237 0.08317 0.5477 0.0
H859 H 0.84565 0.05883 0.52848 0.0
H860 H 0.89598 0.02645 0.42211 0.0
H861 H 0.93977 0.01191 0.44906 0.0
H862 H 0.92242 0.07135 0.52474 0.0
C863 C 0.82096 0.09752 0.46927 0.0
C864 C 0.80281 0.08872 0.44427 0.0
C865 C 0.81258 0.06887 0.42181 0.0
C866 C 0.8402 0.05777 0.42417 0.0
C867 C 0.8576 0.06679 0.44913 0.0
C868 C 0.84835 0.08603 0.47143 0.0
C869 C 0.87029 0.09036 0.49726 0.0
C870 C 0.88423 0.12164 0.4979 0.0
C871 C 0.85568 0.08146 0.52919 0.0
C872 C 0.89279 0.06983 0.48642 0.0
C873 C 0.88538 0.05697 0.45826 0.0
C874 C 0.90219 0.03647 0.44407 0.0
C875 C 0.92693 0.02836 0.4595 0.0
C876 C 0.93412 0.04047 0.48891 0.0
C877 C 0.91725 0.06184 0.50221 0.0
H878 H 0.2223 0.59741 0.06838 0.0
H879 H 0.18457 0.63265 0.1537 0.0
H880 H 0.13426 0.61888 0.13568 0.0
H881 H 0.16584 0.62081 0.01739 0.0
H882 H 0.16545 0.58903 0.9931 0.0
H883 H 0.19893 0.60195 0.01221 0.0
H884 H 0.20109 0.55209 0.03826 0.0
H885 H 0.16781 0.53899 0.01903 0.0
H886 H 0.16932 0.53671 0.06098 0.0
H887 H 0.08799 0.60279 0.10829 0.0
H888 H 0.04851 0.58045 0.07528 0.0
H889 H 0.11536 0.5538 1.00851 0.0
C890 C 0.20348 0.60241 0.08319 0.0
C891 C 0.20756 0.61604 0.1126 0.0
C892 C 0.1822 0.62183 0.13135 0.0
C893 C 0.15345 0.61437 0.12118 0.0
C894 C 0.15024 0.6012 0.09208 0.0
C895 C 0.17449 0.59505 0.0734 0.0
C896 C 0.16466 0.5802 0.04336 0.0
C897 C 0.1743 0.59912 0.01483 0.0
C898 C 0.17641 0.55021 0.04026 0.0
C899 C 0.13116 0.57818 0.04864 0.0
C900 C 0.12337 0.59114 0.07655 0.0
C901 C 0.09379 0.59265 0.08634 0.0
C902 C 0.07154 0.58016 0.06736 0.0
C903 C 0.07903 0.56584 0.03931 0.0
C904 C 0.10919 0.56489 0.02978 0.0
H905 H 0.3086 0.39844 0.57678 0.0
H906 H 0.26799 0.47981 0.58686 0.0
H907 H 0.31466 0.50555 0.56815 0.0
H908 H 0.38179 0.42155 0.59586 0.0
H909 H 0.39904 0.40085 0.56562 0.0
H910 H 0.36294 0.38852 0.58191 0.0
H911 H 0.34141 0.38695 0.52653 0.0
H912 H 0.37752 0.39906 0.51002 0.0
H913 H 0.34588 0.41879 0.50246 0.0
H914 H 0.36733 0.52303 0.55117 0.0
H915 H 0.41921 0.52977 0.52967 0.0
H916 H 0.42189 0.43717 0.52251 0.0
C917 C 0.30885 0.42158 0.57466 0.0
C918 C 0.28411 0.43673 0.58433 0.0
C919 C 0.28652 0.46728 0.58114 0.0
C920 C 0.31301 0.48229 0.57009 0.0
C921 C 0.33679 0.46658 0.5612 0.0
C922 C 0.33468 0.43686 0.56256 0.0
C923 C 0.36282 0.42493 0.54966 0.0
C924 C 0.3775 0.40797 0.57477 0.0
C925 C 0.35652 0.40634 0.52043 0.0
C926 C 0.38127 0.45265 0.54138 0.0
C927 C 0.36606 0.4765 0.54869 0.0
C928 C 0.37925 0.50452 0.5448 0.0
C929 C 0.40863 0.50818 0.53272 0.0
C930 C 0.42401 0.484 0.52409 0.0
C931 C 0.41019 0.45596 0.52845 0.0
H932 H 0.83575 0.63911 0.86189 0.0
H933 H 0.85526 0.7204 0.91024 0.0
H934 H 0.89239 0.6985 0.9409 0.0
H935 H 0.84319 0.59339 0.92901 0.0
H936 H 0.86064 0.56575 0.90724 0.0
H937 H 0.83538 0.58747 0.88834 0.0
H938 H 0.87594 0.60234 0.84594 0.0
H939 H 0.90129 0.58057 0.86462 0.0
H940 H 0.91165 0.61828 0.85752 0.0
H941 H 0.92659 0.66861 0.96724 0.0
H942 H 0.9574 0.63187 0.98716 0.0
H943 H 0.91778 0.56925 0.92213 0.0
C944 C 0.84796 0.65225 0.87885 0.0
C945 C 0.8422 0.68145 0.88394 0.0
C946 C 0.8587 0.69788 0.90637 0.0
C947 C 0.88003 0.68569 0.92382 0.0
C948 C 0.88487 0.65691 0.91867 0.0
C949 C 0.86946 0.64028 0.89676 0.0
C950 C 0.87916 0.60972 0.89635 0.0
C951 C 0.85304 0.58779 0.9058 0.0
C952 C 0.89283 0.6023 0.86419 0.0
C953 C 0.9025 0.61204 0.92126 0.0
C954 C 0.90521 0.63949 0.93384 0.0
C955 C 0.92479 0.64704 0.95753 0.0
C956 C 0.94217 0.62603 0.96874 0.0
C957 C 0.9401 0.59782 0.95615 0.0
C958 C 0.91997 0.59075 0.93205 0.0
H959 H 0.44353 0.8189 0.13023 0.0
H960 H 0.37171 0.80654 0.06554 0.0
H961 H 0.38848 0.85294 0.04026 0.0
H962 H 0.44067 0.89597 0.13942 0.0
H963 H 0.4804 0.90292 0.14147 0.0
H964 H 0.46249 0.86889 0.15467 0.0
H965 H 0.49681 0.8419 0.11686 0.0
H966 H 0.51482 0.87584 0.10359 0.0
H967 H 0.49844 0.85057 0.07578 0.0
H968 H 0.41223 0.90188 0.02319 0.0
H969 H 0.44336 0.9476 0.01362 0.0
H970 H 0.50063 0.9265 0.08779 0.0
C971 C 0.43119 0.82604 0.1109 0.0
C972 C 0.40629 0.80906 0.09989 0.0
C973 C 0.39103 0.81902 0.0742 0.0
C974 C 0.40026 0.84544 0.05981 0.0
C975 C 0.42485 0.86167 0.0713 0.0
C976 C 0.4402 0.85226 0.09615 0.0
C977 C 0.4662 0.87352 0.1037 0.0
C978 C 0.46219 0.88606 0.13678 0.0
C979 C 0.49582 0.85962 0.09972 0.0
C980 C 0.46331 0.89614 0.07896 0.0
C981 C 0.43907 0.88919 0.06079 0.0
C982 C 0.43141 0.90742 0.03713 0.0
C983 C 0.44917 0.93331 0.03182 0.0
C984 C 0.47451 0.94036 0.04966 0.0
C985 C 0.48154 0.9215 0.07352 0.0
H986 H 0.09957 0.19847 0.63078 0.0
H987 H 0.07066 0.2523 0.55723 0.0
H988 H 0.04857 0.20908 0.53037 0.0
H989 H 0.11811 0.13863 0.58286 0.0
H990 H 0.10364 0.11127 0.61031 0.0
H991 H 0.11719 0.14637 0.62421 0.0
H992 H 0.06662 0.15169 0.65316 0.0
H993 H 0.05288 0.11661 0.63931 0.0
H994 H 0.03295 0.14763 0.63164 0.0
H995 H 0.03144 0.16157 0.51073 0.0
H996 H 0.01783 0.11106 0.49872 0.0
H997 H 0.05546 0.08538 0.58546 0.0
C998 C 0.08853 0.20097 0.60903 0.0
C999 C 0.08669 0.22861 0.59594 0.0
C1000 C 0.07201 0.2313 0.56762 0.0
C1001 C 0.0595 0.20691 0.55223 0.0
C1002 C 0.06153 0.18 0.56569 0.0
C1003 C 0.07538 0.17673 0.59352 0.0
C1004 C 0.07378 0.14508 0.60281 0.0
C1005 C 0.10505 0.13473 0.60518 0.0
C1006 C 0.05547 0.13995 0.63356 0.0
C1007 C 0.0576 0.13113 0.57532 0.0
C1008 C 0.05078 0.15195 0.55442 0.0
C1009 C 0.03648 0.14503 0.52693 0.0
C1010 C 0.02893 0.11606 0.52033 0.0
C1011 C 0.03558 0.09396 0.54109 0.0
C1012 C 0.04995 0.10168 0.56919 0.0
H1013 H 0.63158 0.30715 0.42394 0.0
H1014 H 0.59983 0.25958 0.50752 0.0
H1015 H 0.57347 0.30094 0.52542 0.0
H1016 H 0.63876 0.37922 0.45763 0.0
H1017 H 0.62427 0.39566 0.42398 0.0
H1018 H 0.64394 0.36371 0.4193 0.0
H1019 H 0.59874 0.33809 0.39189 0.0
H1020 H 0.57884 0.36985 0.39673 0.0
H1021 H 0.56272 0.33572 0.41168 0.0
H1022 H 0.54678 0.34433 0.53212 0.0
H1023 H 0.52281 0.38962 0.5288 0.0
H1024 H 0.56983 0.40924 0.44017 0.0
C1025 C 0.61923 0.30538 0.44609 0.0
C1026 C 0.61807 0.28003 0.46439 0.0
C1027 C 0.60181 0.27889 0.49337 0.0
C1028 C 0.58647 0.30219 0.50365 0.0
C1029 C 0.58737 0.32635 0.48458 0.0
C1030 C 0.60333 0.32824 0.45647 0.0
C1031 C 0.59877 0.35591 0.43946 0.0
C1032 C 0.62819 0.37474 0.43485 0.0
C1033 C 0.58388 0.3495 0.40809 0.0
C1034 C 0.57784 0.3693 0.46262 0.0
C1035 C 0.57152 0.35169 0.48834 0.0
C1036 C 0.55169 0.35845 0.51227 0.0
C1037 C 0.53805 0.38409 0.51002 0.0
C1038 C 0.54454 0.4027 0.48418 0.0
C1039 C 0.5647 0.39532 0.46018 0.0
loop_
_geom_bond_atom_site_label_1
_geom_bond_atom_site_label_2
_geom_bond_distance
_geom_bond_site_symmetry_2
_ccdc_geom_bond_type
C0 C1 1.386 . S
C0 C2 1.397 . S
C0 H24 0.931 . S
C1 C0 1.386 . S
C1 C5 1.397 . S
C2 C0 1.397 . S
C2 C3 1.384 . S
C2 H25 0.930 . S
C3 C2 1.384 . S
C3 C4 1.377 . S
C3 C6 1.481 . S
C4 C3 1.377 . S
C4 C5 1.389 . S
C4 H26 0.929 . S
C5 C1 1.397 . S
C5 C4 1.389 . S
C5 H27 0.931 . S
C6 C3 1.481 . S
C6 C7 1.387 . S
C6 C11 1.390 . S
C7 C6 1.387 . S
C7 C8 1.401 . S
C7 H28 0.930 . S
C8 C7 1.401 . S
C8 C9 1.376 . S
C8 C17 1.511 . S
C9 C8 1.376 . S
C9 C10 1.392 . S
C9 H30 0.931 . S
C10 C9 1.392 . S
C10 C11 1.361 . S
C10 C12 1.500 . S
C11 C6 1.390 . S
C11 C10 1.361 . S
C11 H29 0.931 . S
C12 C10 1.500 . S
C12 C13 1.371 . S
C12 C14 1.365 . S
C13 C12 1.371 . S
C13 C23 1.386 . S
C13 H31 0.931 . S
C14 C12 1.365 . S
C14 C15 1.409 . S
C14 H32 0.929 . S
C15 C14 1.409 . S
C15 C16 1.380 . S
C15 H33 0.930 . S
C16 C15 1.380 . S
C16 C23 1.357 . S
C17 C8 1.511 . S
C17 C18 1.341 . S
C17 C19 1.371 . S
C18 C17 1.341 . S
C18 C22 1.394 . S
C18 H34 0.930 . S
C19 C17 1.371 . S
C19 C20 1.392 . S
C19 H35 0.931 . S
C20 C19 1.392 . S
C20 C21 1.331 . S
C20 H38 0.932 . S
C21 C20 1.331 . S
C21 C22 1.336 . S
C22 C18 1.394 . S
C22 C21 1.336 . S
C22 H37 0.929 . S
C23 C13 1.386 . S
C23 C16 1.357 . S
C23 H36 0.928 . S
H24 C0 0.931 . S
H25 C2 0.930 . S
H26 C4 0.929 . S
H27 C5 0.931 . S
H28 C7 0.930 . S
H29 C11 0.931 . S
H30 C9 0.931 . S
H31 C13 0.931 . S
H32 C14 0.929 . S
H33 C15 0.930 . S
H34 C18 0.930 . S
H35 C19 0.931 . S
H36 C23 0.928 . S
H37 C22 0.929 . S
H38 C20 0.932 . S
C39 C40 1.386 . S
C39 C41 1.397 . S
C39 H63 0.931 . S
C40 C39 1.386 . S
C40 C44 1.397 . S
C41 C39 1.397 . S
C41 C42 1.384 . S
C41 H64 0.930 . S
C42 C41 1.384 . S
C42 C43 1.377 . S
C42 C45 1.481 . S
C43 C42 1.377 . S
C43 C44 1.389 . S
C43 H65 0.929 . S
C44 C40 1.397 . S
C44 C43 1.389 . S
C44 H66 0.931 . S
C45 C42 1.481 . S
C45 C46 1.387 . S
C45 C50 1.390 . S
C46 C45 1.387 . S
C46 C47 1.401 . S
C46 H67 0.930 . S
C47 C46 1.401 . S
C47 C48 1.376 . S
C47 C56 1.511 . S
C48 C47 1.376 . S
C48 C49 1.392 . S
C48 H69 0.931 . S
C49 C48 1.392 . S
C49 C50 1.361 . S
C49 C51 1.500 . S
C50 C45 1.390 . S
C50 C49 1.361 . S
C50 H68 0.931 . S
C51 C49 1.500 . S
C51 C52 1.371 . S
C51 C53 1.365 . S
C52 C51 1.371 . S
C52 C62 1.386 . S
C52 H70 0.931 . S
C53 C51 1.365 . S
C53 C54 1.409 . S
C53 H71 0.929 . S
C54 C53 1.409 . S
C54 C55 1.380 . S
C54 H72 0.930 . S
C55 C54 1.380 . S
C55 C62 1.357 . S
C56 C47 1.511 . S
C56 C57 1.341 . S
C56 C58 1.371 . S
C57 C56 1.341 . S
C57 C61 1.394 . S
C57 H73 0.930 . S
C58 C56 1.371 . S
C58 C59 1.392 . S
C58 H74 0.931 . S
C59 C58 1.392 . S
C59 C60 1.331 . S
C59 H77 0.932 . S
C60 C59 1.331 . S
C60 C61 1.336 . S
C61 C57 1.394 . S
C61 C60 1.336 . S
C61 H76 0.929 . S
C62 C52 1.386 . S
C62 C55 1.357 . S
C62 H75 0.928 . S
H63 C39 0.931 . S
H64 C41 0.930 . S
H65 C43 0.929 . S
H66 C44 0.931 . S
H67 C46 0.930 . S
H68 C50 0.931 . S
H69 C48 0.931 . S
H70 C52 0.931 . S
H71 C53 0.929 . S
H72 C54 0.930 . S
H73 C57 0.930 . S
H74 C58 0.931 . S
H75 C62 0.928 . S
H76 C61 0.929 . S
H77 C59 0.932 . S
C78 C79 1.386 . S
C78 C80 1.397 . S
C78 H102 0.931 . S
C79 C78 1.386 . S
C79 C83 1.397 . S
C80 C78 1.397 . S
C80 C81 1.384 . S
C80 H103 0.930 . S
C81 C80 1.384 . S
C81 C82 1.377 . S
C81 C84 1.481 . S
C82 C81 1.377 . S
C82 C83 1.389 . S
C82 H104 0.929 . S
C83 C79 1.397 . S
C83 C82 1.389 . S
C83 H105 0.931 . S
C84 C81 1.481 . S
C84 C85 1.387 . S
C84 C89 1.390 . S
C85 C84 1.387 . S
C85 C86 1.401 . S
C85 H106 0.930 . S
C86 C85 1.401 . S
C86 C87 1.376 . S
C86 C95 1.511 . S
C87 C86 1.376 . S
C87 C88 1.392 . S
C87 H108 0.931 . S
C88 C87 1.392 . S
C88 C89 1.361 . S
C88 C90 1.500 . S
C89 C84 1.390 . S
C89 C88 1.361 . S
C89 H107 0.931 . S
C90 C88 1.500 . S
C90 C91 1.371 . S
C90 C92 1.365 . S
C91 C90 1.371 . S
C91 C101 1.386 . S
C91 H109 0.931 . S
C92 C90 1.365 . S
C92 C93 1.409 . S
C92 H110 0.929 . S
C93 C92 1.409 . S
C93 C94 1.380 . S
C93 H111 0.930 . S
C94 C93 1.380 . S
C94 C101 1.357 . S
C95 C86 1.511 . S
C95 C96 1.341 . S
C95 C97 1.371 . S
C96 C95 1.341 . S
C96 C100 1.394 . S
C96 H112 0.930 . S
C97 C95 1.371 . S
C97 C98 1.392 . S
C97 H113 0.931 . S
C98 C97 1.392 . S
C98 C99 1.331 . S
C98 H116 0.932 . S
C99 C98 1.331 . S
C99 C100 1.336 . S
C100 C96 1.394 . S
C100 C99 1.336 . S
C100 H115 0.929 . S
C101 C91 1.386 . S
C101 C94 1.357 . S
C101 H114 0.928 . S
H102 C78 0.931 . S
H103 C80 0.930 . S
H104 C82 0.929 . S
H105 C83 0.931 . S
H106 C85 0.930 . S
H107 C89 0.931 . S
H108 C87 0.931 . S
H109 C91 0.931 . S
H110 C92 0.929 . S
H111 C93 0.930 . S
H112 C96 0.930 . S
H113 C97 0.931 . S
H114 C101 0.928 . S
H115 C100 0.929 . S
H116 C98 0.932 . S
C117 C118 1.386 . S
C117 C119 1.397 . S
C117 H141 0.931 . S
C118 C117 1.386 . S
C118 C122 1.397 . S
C119 C117 1.397 . S
C119 C120 1.384 . S
C119 H142 0.930 . S
C120 C119 1.384 . S
C120 C121 1.377 . S
C120 C123 1.481 . S
C121 C120 1.377 . S
C121 C122 1.389 . S
C121 H143 0.929 . S
C122 C118 1.397 . S
C122 C121 1.389 . S
C122 H144 0.931 . S
C123 C120 1.481 . S
C123 C124 1.387 . S
C123 C128 1.390 . S
C124 C123 1.387 . S
C124 C125 1.401 . S
C124 H145 0.930 . S
C125 C124 1.401 . S
C125 C126 1.376 . S
C125 C134 1.511 . S
C126 C125 1.376 . S
C126 C127 1.392 . S
C126 H147 0.931 . S
C127 C126 1.392 . S
C127 C128 1.361 . S
C127 C129 1.500 . S
C128 C123 1.390 . S
C128 C127 1.361 . S
C128 H146 0.931 . S
C129 C127 1.500 . S
C129 C130 1.371 . S
C129 C131 1.365 . S
C130 C129 1.371 . S
C130 C140 1.386 . S
C130 H148 0.931 . S
C131 C129 1.365 . S
C131 C132 1.409 . S
C131 H149 0.929 . S
C132 C131 1.409 . S
C132 C133 1.380 . S
C132 H150 0.930 . S
C133 C132 1.380 . S
C133 C140 1.357 . S
C134 C125 1.511 . S
C134 C135 1.341 . S
C134 C136 1.371 . S
C135 C134 1.341 . S
C135 C139 1.394 . S
C135 H151 0.930 . S
C136 C134 1.371 . S
C136 C137 1.392 . S
C136 H152 0.931 . S
C137 C136 1.392 . S
C137 C138 1.331 . S
C137 H155 0.932 . S
C138 C137 1.331 . S
C138 C139 1.336 . S
C139 C135 1.394 . S
C139 C138 1.336 . S
C139 H154 0.929 . S
C140 C130 1.386 . S
C140 C133 1.357 . S
C140 H153 0.928 . S
H141 C117 0.931 . S
H142 C119 0.930 . S
H143 C121 0.929 . S
H144 C122 0.931 . S
H145 C124 0.930 . S
H146 C128 0.931 . S
H147 C126 0.931 . S
H148 C130 0.931 . S
H149 C131 0.929 . S
H150 C132 0.930 . S
H151 C135 0.930 . S
H152 C136 0.931 . S
H153 C140 0.928 . S
H154 C139 0.929 . S
H155 C137 0.932 . S
C156 C157 1.386 . S
C156 C158 1.397 . S
C156 H180 0.931 . S
C157 C156 1.386 . S
C157 C161 1.397 . S
C158 C156 1.397 . S
C158 C159 1.384 . S
C158 H181 0.930 . S
C159 C158 1.384 . S
C159 C160 1.377 . S
C159 C162 1.481 . S
C160 C159 1.377 . S
C160 C161 1.389 . S
C160 H182 0.929 . S
C161 C157 1.397 . S
C161 C160 1.389 . S
C161 H183 0.931 . S
C162 C159 1.481 . S
C162 C163 1.387 . S
C162 C167 1.390 . S
C163 C162 1.387 . S
C163 C164 1.401 . S
C163 H184 0.930 . S
C164 C163 1.401 . S
C164 C165 1.376 . S
C164 C173 1.511 . S
C165 C164 1.376 . S
C165 C166 1.392 . S
C165 H186 0.931 . S
C166 C165 1.392 . S
C166 C167 1.361 . S
C166 C168 1.500 . S
C167 C162 1.390 . S
C167 C166 1.361 . S
C167 H185 0.931 . S
C168 C166 1.500 . S
C168 C169 1.371 . S
C168 C170 1.365 . S
C169 C168 1.371 . S
C169 C179 1.386 . S
C169 H187 0.931 . S
C170 C168 1.365 . S
C170 C171 1.409 . S
C170 H188 0.929 . S
C171 C170 1.409 . S
C171 C172 1.380 . S
C171 H189 0.930 . S
C172 C171 1.380 . S
C172 C179 1.357 . S
C173 C164 1.511 . S
C173 C174 1.341 . S
C173 C175 1.371 . S
C174 C173 1.341 . S
C174 C178 1.394 . S
C174 H190 0.930 . S
C175 C173 1.371 . S
C175 C176 1.392 . S
C175 H191 0.931 . S
C176 C175 1.392 . S
C176 C177 1.331 . S
C176 H194 0.932 . S
C177 C176 1.331 . S
C177 C178 1.336 . S
C178 C174 1.394 . S
C178 C177 1.336 . S
C178 H193 0.929 . S
C179 C169 1.386 . S
C179 C172 1.357 . S
C179 H192 0.928 . S
H180 C156 0.931 . S
H181 C158 0.930 . S
H182 C160 0.929 . S
H183 C161 0.931 . S
H184 C163 0.930 . S
H185 C167 0.931 . S
H186 C165 0.931 . S
H187 C169 0.931 . S
H188 C170 0.929 . S
H189 C171 0.930 . S
H190 C174 0.930 . S
H191 C175 0.931 . S
H192 C179 0.928 . S
H193 C178 0.929 . S
H194 C176 0.932 . S
C195 C196 1.386 . S
C195 C197 1.397 . S
C195 H219 0.931 . S
C196 C195 1.386 . S
C196 C200 1.397 . S
C197 C195 1.397 . S
C197 C198 1.384 . S
C197 H220 0.930 . S
C198 C197 1.384 . S
C198 C199 1.377 . S
C198 C201 1.481 . S
C199 C198 1.377 . S
C199 C200 1.389 . S
C199 H221 0.929 . S
C200 C196 1.397 . S
C200 C199 1.389 . S
C200 H222 0.931 . S
C201 C198 1.481 . S
C201 C202 1.387 . S
C201 C206 1.390 . S
C202 C201 1.387 . S
C202 C203 1.401 . S
C202 H223 0.930 . S
C203 C202 1.401 . S
C203 C204 1.376 . S
C203 C212 1.511 . S
C204 C203 1.376 . S
C204 C205 1.392 . S
C204 H225 0.931 . S
C205 C204 1.392 . S
C205 C206 1.361 . S
C205 C207 1.500 . S
C206 C201 1.390 . S
C206 C205 1.361 . S
C206 H224 0.931 . S
C207 C205 1.500 . S
C207 C208 1.371 . S
C207 C209 1.365 . S
C208 C207 1.371 . S
C208 C218 1.386 . S
C208 H226 0.931 . S
C209 C207 1.365 . S
C209 C210 1.409 . S
C209 H227 0.929 . S
C210 C209 1.409 . S
C210 C211 1.380 . S
C210 H228 0.930 . S
C211 C210 1.380 . S
C211 C218 1.357 . S
C212 C203 1.511 . S
C212 C213 1.341 . S
C212 C214 1.371 . S
C213 C212 1.341 . S
C213 C217 1.394 . S
C213 H229 0.930 . S
C214 C212 1.371 . S
C214 C215 1.392 . S
C214 H230 0.931 . S
C215 C214 1.392 . S
C215 C216 1.331 . S
C215 H233 0.932 . S
C216 C215 1.331 . S
C216 C217 1.336 . S
C217 C213 1.394 . S
C217 C216 1.336 . S
C217 H232 0.929 . S
C218 C208 1.386 . S
C218 C211 1.357 . S
C218 H231 0.928 . S
H219 C195 0.931 . S
H220 C197 0.930 . S
H221 C199 0.929 . S
H222 C200 0.931 . S
H223 C202 0.930 . S
H224 C206 0.931 . S
H225 C204 0.931 . S
H226 C208 0.931 . S
H227 C209 0.929 . S
H228 C210 0.930 . S
H229 C213 0.930 . S
H230 C214 0.931 . S
H231 C218 0.928 . S
H232 C217 0.929 . S
H233 C215 0.932 . S
C234 C235 1.386 . S
C234 C236 1.397 . S
C234 H258 0.931 . S
C235 C234 1.386 . S
C235 C239 1.397 . S
C236 C234 1.397 . S
C236 C237 1.384 . S
C236 H259 0.930 . S
C237 C236 1.384 . S
C237 C238 1.377 . S
C237 C240 1.481 . S
C238 C237 1.377 . S
C238 C239 1.389 . S
C238 H260 0.929 . S
C239 C235 1.397 . S
C239 C238 1.389 . S
C239 H261 0.931 . S
C240 C237 1.481 . S
C240 C241 1.387 . S
C240 C245 1.390 . S
C241 C240 1.387 . S
C241 C242 1.401 . S
C241 H262 0.930 . S
C242 C241 1.401 . S
C242 C243 1.376 . S
C242 C251 1.511 . S
C243 C242 1.376 . S
C243 C244 1.392 . S
C243 H264 0.931 . S
C244 C243 1.392 . S
C244 C245 1.361 . S
C244 C246 1.500 . S
C245 C240 1.390 . S
C245 C244 1.361 . S
C245 H263 0.931 . S
C246 C244 1.500 . S
C246 C247 1.371 . S
C246 C248 1.365 . S
C247 C246 1.371 . S
C247 C257 1.386 . S
C247 H265 0.931 . S
C248 C246 1.365 . S
C248 C249 1.409 . S
C248 H266 0.929 . S
C249 C248 1.409 . S
C249 C250 1.380 . S
C249 H267 0.930 . S
C250 C249 1.380 . S
C250 C257 1.357 . S
C251 C242 1.511 . S
C251 C252 1.341 . S
C251 C253 1.371 . S
C252 C251 1.341 . S
C252 C256 1.394 . S
C252 H268 0.930 . S
C253 C251 1.371 . S
C253 C254 1.392 . S
C253 H269 0.931 . S
C254 C253 1.392 . S
C254 C255 1.331 . S
C254 H272 0.932 . S
C255 C254 1.331 . S
C255 C256 1.336 . S
C256 C252 1.394 . S
C256 C255 1.336 . S
C256 H271 0.929 . S
C257 C247 1.386 . S
C257 C250 1.357 . S
C257 H270 0.928 . S
H258 C234 0.931 . S
H259 C236 0.930 . S
H260 C238 0.929 . S
H261 C239 0.931 . S
H262 C241 0.930 . S
H263 C245 0.931 . S
H264 C243 0.931 . S
H265 C247 0.931 . S
H266 C248 0.929 . S
H267 C249 0.930 . S
H268 C252 0.930 . S
H269 C253 0.931 . S
H270 C257 0.928 . S
H271 C256 0.929 . S
H272 C254 0.932 . S
C273 C274 1.386 . S
C273 C275 1.397 . S
C273 H297 0.931 . S
C274 C273 1.386 . S
C274 C278 1.397 . S
C275 C273 1.397 . S
C275 C276 1.384 . S
C275 H298 0.930 . S
C276 C275 1.384 . S
C276 C277 1.377 . S
C276 C279 1.481 . S
C277 C276 1.377 . S
C277 C278 1.389 . S
C277 H299 0.929 . S
C278 C274 1.397 . S
C278 C277 1.389 . S
C278 H300 0.931 . S
C279 C276 1.481 . S
C279 C280 1.387 . S
C279 C284 1.390 . S
C280 C279 1.387 . S
C280 C281 1.401 . S
C280 H301 0.930 . S
C281 C280 1.401 . S
C281 C282 1.376 . S
C281 C290 1.511 . S
C282 C281 1.376 . S
C282 C283 1.392 . S
C282 H303 0.931 . S
C283 C282 1.392 . S
C283 C284 1.361 . S
C283 C285 1.500 . S
C284 C279 1.390 . S
C284 C283 1.361 . S
C284 H302 0.931 . S
C285 C283 1.500 . S
C285 C286 1.371 . S
C285 C287 1.365 . S
C286 C285 1.371 . S
C286 C296 1.386 . S
C286 H304 0.931 . S
C287 C285 1.365 . S
C287 C288 1.409 . S
C287 H305 0.929 . S
C288 C287 1.409 . S
C288 C289 1.380 . S
C288 H306 0.930 . S
C289 C288 1.380 . S
C289 C296 1.357 . S
C290 C281 1.511 . S
C290 C291 1.341 . S
C290 C292 1.371 . S
C291 C290 1.341 . S
C291 C295 1.394 . S
C291 H307 0.930 . S
C292 C290 1.371 . S
C292 C293 1.392 . S
C292 H308 0.931 . S
C293 C292 1.392 . S
C293 C294 1.331 . S
C293 H311 0.932 . S
C294 C293 1.331 . S
C294 C295 1.336 . S
C295 C291 1.394 . S
C295 C294 1.336 . S
C295 H310 0.929 . S
C296 C286 1.386 . S
C296 C289 1.357 . S
C296 H309 0.928 . S
H297 C273 0.931 . S
H298 C275 0.930 . S
H299 C277 0.929 . S
H300 C278 0.931 . S
H301 C280 0.930 . S
H302 C284 0.931 . S
H303 C282 0.931 . S
H304 C286 0.931 . S
H305 C287 0.929 . S
H306 C288 0.930 . S
H307 C291 0.930 . S
H308 C292 0.931 . S
H309 C296 0.928 . S
H310 C295 0.929 . S
H311 C293 0.932 . S
Dy312 O316 2.398 . S
Dy312 O317 2.491 . S
Dy312 O318 2.403 1_545 S
Dy312 O319 2.664 1_545 S
Dy312 O323 2.326 . S
Dy312 O327 2.310 1_455 S
Dy312 O328 2.351 1_445 S
C313 O324 1.185 . S
C313 O325 1.355 . S
C314 O316 1.185 . S
C314 O317 1.355 . S
Dy315 O319 2.310 1_655 S
Dy315 O322 2.351 1_665 S
Dy315 O324 2.398 . S
Dy315 O325 2.491 . S
Dy315 O326 2.403 1_565 S
Dy315 O327 2.664 1_565 S
Dy315 O329 2.326 . S
O316 Dy312 2.398 . S
O316 C314 1.185 . S
O317 Dy312 2.491 . S
O317 C314 1.355 . S
O318 Dy312 2.403 1_565 S
O318 C320 1.254 . S
O319 Dy312 2.664 1_565 S
O319 Dy315 2.310 1_455 S
O319 C320 1.268 . S
C320 O318 1.254 . S
C320 O319 1.268 . S
C321 O326 1.254 . S
C321 O327 1.268 . S
O322 Dy315 2.351 1_445 S
O322 C330 1.249 . S
O323 Dy312 2.326 . S
O323 C330 1.267 . S
O324 C313 1.185 . S
O324 Dy315 2.398 . S
O325 C313 1.355 . S
O325 Dy315 2.491 . S
O326 Dy315 2.403 1_545 S
O326 C321 1.254 . S
O327 Dy312 2.310 1_655 S
O327 Dy315 2.664 1_545 S
O327 C321 1.268 . S
O328 Dy312 2.351 1_665 S
O328 C331 1.249 . S
O329 Dy315 2.326 . S
O329 C331 1.267 . S
C330 O322 1.249 . S
C330 O323 1.267 . S
C331 O328 1.249 . S
C331 O329 1.267 . S
Dy332 O336 2.398 . S
Dy332 O337 2.491 . S
Dy332 O338 2.403 1_545 S
Dy332 O339 2.664 1_545 S
Dy332 O343 2.326 . S
Dy332 O347 2.310 1_554 S
Dy332 O348 2.351 1_544 S
C333 O344 1.185 . S
C333 O345 1.355 . S
C334 O336 1.185 . S
C334 O337 1.355 . S
Dy335 O339 2.286 1_546 S
Dy335 O342 2.372 1_556 S
Dy335 O344 2.394 1_545 S
Dy335 O345 2.458 1_545 S
Dy335 O346 2.433 . S
Dy335 O347 2.682 . S
Dy335 O349 2.311 1_545 S
O336 Dy332 2.398 . S
O336 C334 1.185 . S
O337 Dy332 2.491 . S
O337 C334 1.355 . S
O338 Dy332 2.403 1_565 S
O338 C340 1.254 . S
O339 Dy332 2.664 1_565 S
O339 Dy335 2.286 1_564 S
O339 C340 1.268 . S
C340 O338 1.254 . S
C340 O339 1.268 . S
C341 O346 1.254 . S
C341 O347 1.268 . S
O342 Dy335 2.372 1_554 S
O342 C350 1.249 . S
O343 Dy332 2.326 . S
O343 C350 1.267 . S
O344 C333 1.185 . S
O344 Dy335 2.394 1_565 S
O345 C333 1.355 . S
O345 Dy335 2.458 1_565 S
O346 Dy335 2.433 . S
O346 C341 1.254 . S
O347 Dy332 2.310 1_556 S
O347 Dy335 2.682 . S
O347 C341 1.268 . S
O348 Dy332 2.351 1_566 S
O348 C351 1.249 . S
O349 Dy335 2.311 1_565 S
O349 C351 1.267 . S
C350 O342 1.249 . S
C350 O343 1.267 . S
C351 O348 1.249 . S
C351 O349 1.267 . S
Dy352 O356 2.398 . S
Dy352 O357 2.491 . S
Dy352 O358 2.403 . S
Dy352 O359 2.664 . S
Dy352 O363 2.326 . S
Dy352 O367 2.310 . S
Dy352 O368 2.351 . S
C353 O364 1.185 . S
C353 O365 1.355 . S
C354 O356 1.185 . S
C354 O357 1.355 . S
Dy355 O359 2.310 . S
Dy355 O362 2.351 . S
Dy355 O364 2.398 . S
Dy355 O365 2.491 . S
Dy355 O366 2.403 . S
Dy355 O367 2.664 . S
Dy355 O369 2.326 . S
O356 Dy352 2.398 . S
O356 C354 1.185 . S
O357 Dy352 2.491 . S
O357 C354 1.355 . S
O358 Dy352 2.403 . S
O358 C360 1.254 . S
O359 Dy352 2.664 . S
O359 Dy355 2.310 . S
O359 C360 1.268 . S
C360 O358 1.254 . S
C360 O359 1.268 . S
C361 O366 1.254 . S
C361 O367 1.268 . S
O362 Dy355 2.351 . S
O362 C370 1.249 . S
O363 Dy352 2.326 . S
O363 C370 1.267 . S
O364 C353 1.185 . S
O364 Dy355 2.398 . S
O365 C353 1.355 . S
O365 Dy355 2.491 . S
O366 Dy355 2.403 . S
O366 C361 1.254 . S
O367 Dy352 2.310 . S
O367 Dy355 2.664 . S
O367 C361 1.268 . S
O368 Dy352 2.351 . S
O368 C371 1.249 . S
O369 Dy355 2.326 . S
O369 C371 1.267 . S
C370 O362 1.249 . S
C370 O363 1.267 . S
C371 O368 1.249 . S
C371 O369 1.267 . S
Dy372 O376 2.398 . S
Dy372 O377 2.491 . S
Dy372 O378 2.403 1_455 S
Dy372 O379 2.664 1_455 S
Dy372 O383 2.326 . S
Dy372 O387 2.310 1_554 S
Dy372 O388 2.351 1_454 S
C373 O384 1.185 . S
C373 O385 1.355 . S
C374 O376 1.185 . S
C374 O377 1.355 . S
Dy375 O379 2.310 1_556 S
Dy375 O382 2.351 1_656 S
Dy375 O384 2.398 . S
Dy375 O385 2.491 . S
Dy375 O386 2.403 1_655 S
Dy375 O387 2.664 1_655 S
Dy375 O389 2.326 . S
O376 Dy372 2.398 . S
O376 C374 1.185 . S
O377 Dy372 2.491 . S
O377 C374 1.355 . S
O378 Dy372 2.403 1_655 S
O378 C380 1.254 . S
O379 Dy372 2.664 1_655 S
O379 Dy375 2.310 1_554 S
O379 C380 1.268 . S
C380 O378 1.254 . S
C380 O379 1.268 . S
C381 O386 1.254 . S
C381 O387 1.268 . S
O382 Dy375 2.351 1_454 S
O382 C390 1.249 . S
O383 Dy372 2.326 . S
O383 C390 1.267 . S
O384 C373 1.185 . S
O384 Dy375 2.398 . S
O385 C373 1.355 . S
O385 Dy375 2.491 . S
O386 Dy375 2.403 1_455 S
O386 C381 1.254 . S
O387 Dy372 2.310 1_556 S
O387 Dy375 2.664 1_455 S
O387 C381 1.268 . S
O388 Dy372 2.351 1_656 S
O388 C391 1.249 . S
O389 Dy375 2.326 . S
O389 C391 1.267 . S
C390 O382 1.249 . S
C390 O383 1.267 . S
C391 O388 1.249 . S
C391 O389 1.267 . S
H392 C404 0.930 . S
H393 C406 0.930 . S
H394 C407 0.930 . S
H395 C411 0.959 . S
H396 C411 0.959 . S
H397 C411 0.961 . S
H398 C412 0.960 . S
H399 C412 0.961 . S
H400 C412 0.959 . S
H401 C415 0.929 . S
H402 C416 0.931 . S
H403 C418 0.930 . S
C404 H392 0.930 . S
C404 C405 1.399 . S
C404 C409 1.399 . S
C405 C404 1.399 . S
C405 C406 1.376 . S
C406 H393 0.930 . S
C406 C405 1.376 . S
C406 C407 1.388 . S
C407 H394 0.930 . S
C407 C406 1.388 . S
C407 C408 1.390 . S
C408 C407 1.390 . S
C408 C409 1.394 . S
C408 C414 1.465 . S
C409 C404 1.399 . S
C409 C408 1.394 . S
C409 C410 1.516 . S
C410 C409 1.516 . S
C410 C411 1.502 . S
C410 C412 1.561 . S
C410 C413 1.526 . S
C411 H395 0.959 . S
C411 H396 0.959 . S
C411 H397 0.961 . S
C411 C410 1.502 . S
C412 H398 0.960 . S
C412 H399 0.961 . S
C412 H400 0.959 . S
C412 C410 1.561 . S
C413 C410 1.526 . S
C413 C414 1.396 . S
C413 C418 1.390 . S
C414 C408 1.465 . S
C414 C413 1.396 . S
C414 C415 1.399 . S
C415 H401 0.929 . S
C415 C414 1.399 . S
C415 C416 1.385 . S
C416 H402 0.931 . S
C416 C415 1.385 . S
C416 C417 1.389 . S
C417 C416 1.389 . S
C417 C418 1.387 . S
C418 H403 0.930 . S
C418 C413 1.390 . S
C418 C417 1.387 . S
H419 C431 0.930 . S
H420 C433 0.930 . S
H421 C434 0.930 . S
H422 C438 0.959 . S
H423 C438 0.959 . S
H424 C438 0.961 . S
H425 C439 0.960 . S
H426 C439 0.961 1_545 S
H427 C439 0.959 . S
H428 C442 0.929 . S
H429 C443 0.931 . S
H430 C445 0.930 . S
C431 H419 0.930 . S
C431 C432 1.399 . S
C431 C436 1.399 . S
C432 C431 1.399 . S
C432 C433 1.376 . S
C433 H420 0.930 . S
C433 C432 1.376 . S
C433 C434 1.388 . S
C434 H421 0.930 . S
C434 C433 1.388 . S
C434 C435 1.390 . S
C435 C434 1.390 . S
C435 C436 1.394 . S
C435 C441 1.465 . S
C436 C431 1.399 . S
C436 C435 1.394 . S
C436 C437 1.516 . S
C437 C436 1.516 . S
C437 C438 1.502 . S
C437 C439 1.561 . S
C437 C440 1.526 . S
C438 H422 0.959 . S
C438 H423 0.959 . S
C438 H424 0.961 . S
C438 C437 1.502 . S
C439 H425 0.960 . S
C439 H426 0.961 1_565 S
C439 H427 0.959 . S
C439 C437 1.561 . S
C440 C437 1.526 . S
C440 C441 1.396 . S
C440 C445 1.390 . S
C441 C435 1.465 . S
C441 C440 1.396 . S
C441 C442 1.399 . S
C442 H428 0.929 . S
C442 C441 1.399 . S
C442 C443 1.385 . S
C443 H429 0.931 . S
C443 C442 1.385 . S
C443 C444 1.389 . S
C444 C443 1.389 . S
C444 C445 1.387 . S
C445 H430 0.930 . S
C445 C440 1.390 . S
C445 C444 1.387 . S
H446 C458 0.930 . S
H447 C460 0.930 . S
H448 C461 0.930 . S
H449 C465 0.959 . S
H450 C465 0.959 . S
H451 C465 0.961 . S
H452 C466 0.960 . S
H453 C466 0.961 . S
H454 C466 0.959 . S
H455 C469 0.929 . S
H456 C470 0.931 . S
H457 C472 0.930 . S
C458 H446 0.930 . S
C458 C459 1.399 . S
C458 C463 1.399 . S
C459 C458 1.399 . S
C459 C460 1.376 . S
C460 H447 0.930 . S
C460 C459 1.376 . S
C460 C461 1.388 . S
C461 H448 0.930 . S
C461 C460 1.388 . S
C461 C462 1.390 . S
C462 C461 1.390 . S
C462 C463 1.394 . S
C462 C468 1.465 . S
C463 C458 1.399 . S
C463 C462 1.394 . S
C463 C464 1.516 . S
C464 C463 1.516 . S
C464 C465 1.502 . S
C464 C466 1.561 . S
C464 C467 1.526 . S
C465 H449 0.959 . S
C465 H450 0.959 . S
C465 H451 0.961 . S
C465 C464 1.502 . S
C466 H452 0.960 . S
C466 H453 0.961 . S
C466 H454 0.959 . S
C466 C464 1.561 . S
C467 C464 1.526 . S
C467 C468 1.396 . S
C467 C472 1.390 . S
C468 C462 1.465 . S
C468 C467 1.396 . S
C468 C469 1.399 . S
C469 H455 0.929 . S
C469 C468 1.399 . S
C469 C470 1.385 . S
C470 H456 0.931 . S
C470 C469 1.385 . S
C470 C471 1.389 . S
C471 C470 1.389 . S
C471 C472 1.387 . S
C472 H457 0.930 . S
C472 C467 1.390 . S
C472 C471 1.387 . S
H473 C485 0.930 . S
H474 C487 0.930 . S
H475 C488 0.930 . S
H476 C492 0.959 . S
H477 C492 0.959 . S
H478 C492 0.961 . S
H479 C493 0.960 . S
H480 C493 0.961 . S
H481 C493 0.959 . S
H482 C496 0.929 1_455 S
H483 C497 0.931 1_455 S
H484 C499 0.930 . S
C485 H473 0.930 . S
C485 C486 1.399 . S
C485 C490 1.399 . S
C486 C485 1.399 . S
C486 C487 1.376 . S
C487 H474 0.930 . S
C487 C486 1.376 . S
C487 C488 1.388 . S
C488 H475 0.930 . S
C488 C487 1.388 . S
C488 C489 1.390 . S
C489 C488 1.390 . S
C489 C490 1.394 . S
C489 C495 1.465 . S
C490 C485 1.399 . S
C490 C489 1.394 . S
C490 C491 1.516 . S
C491 C490 1.516 . S
C491 C492 1.502 . S
C491 C493 1.561 . S
C491 C494 1.526 . S
C492 H476 0.959 . S
C492 H477 0.959 . S
C492 H478 0.961 . S
C492 C491 1.502 . S
C493 H479 0.960 . S
C493 H480 0.961 . S
C493 H481 0.959 . S
C493 C491 1.561 . S
C494 C491 1.526 . S
C494 C495 1.396 . S
C494 C499 1.390 . S
C495 C489 1.465 . S
C495 C494 1.396 . S
C495 C496 1.399 . S
C496 H482 0.929 1_655 S
C496 C495 1.399 . S
C496 C497 1.385 . S
C497 H483 0.931 1_655 S
C497 C496 1.385 . S
C497 C498 1.389 . S
C498 C497 1.389 . S
C498 C499 1.387 . S
C499 H484 0.930 . S
C499 C494 1.390 . S
C499 C498 1.387 . S
H500 C512 0.930 . S
H501 C514 0.930 . S
H502 C515 0.930 . S
H503 C519 0.959 . S
H504 C519 0.959 . S
H505 C519 0.961 . S
H506 C520 0.960 . S
H507 C520 0.961 . S
H508 C520 0.959 . S
H509 C523 0.929 . S
H510 C524 0.931 . S
H511 C526 0.930 . S
C512 H500 0.930 . S
C512 C513 1.399 . S
C512 C517 1.399 . S
C513 C512 1.399 . S
C513 C514 1.376 . S
C514 H501 0.930 . S
C514 C513 1.376 . S
C514 C515 1.388 . S
C515 H502 0.930 . S
C515 C514 1.388 . S
C515 C516 1.390 . S
C516 C515 1.390 . S
C516 C517 1.394 . S
C516 C522 1.465 . S
C517 C512 1.399 . S
C517 C516 1.394 . S
C517 C518 1.516 . S
C518 C517 1.516 . S
C518 C519 1.502 . S
C518 C520 1.561 . S
C518 C521 1.526 . S
C519 H503 0.959 . S
C519 H504 0.959 . S
C519 H505 0.961 . S
C519 C518 1.502 . S
C520 H506 0.960 . S
C520 H507 0.961 . S
C520 H508 0.959 . S
C520 C518 1.561 . S
C521 C518 1.526 . S
C521 C522 1.396 . S
C521 C526 1.390 . S
C522 C516 1.465 . S
C522 C521 1.396 . S
C522 C523 1.399 . S
C523 H509 0.929 . S
C523 C522 1.399 . S
C523 C524 1.385 . S
C524 H510 0.931 . S
C524 C523 1.385 . S
C524 C525 1.389 . S
C525 C524 1.389 . S
C525 C526 1.387 . S
C526 H511 0.930 . S
C526 C521 1.390 . S
C526 C525 1.387 . S
H527 C539 0.930 . S
H528 C541 0.930 . S
H529 C542 0.930 . S
H530 C546 0.959 . S
H531 C546 0.959 . S
H532 C546 0.961 . S
H533 C547 0.960 . S
H534 C547 0.961 . S
H535 C547 0.959 . S
H536 C550 0.929 . S
H537 C551 0.931 . S
H538 C553 0.930 . S
C539 H527 0.930 . S
C539 C540 1.399 . S
C539 C544 1.399 . S
C540 C539 1.399 . S
C540 C541 1.376 . S
C541 H528 0.930 . S
C541 C540 1.376 . S
C541 C542 1.388 . S
C542 H529 0.930 . S
C542 C541 1.388 . S
C542 C543 1.390 . S
C543 C542 1.390 . S
C543 C544 1.394 . S
C543 C549 1.465 . S
C544 C539 1.399 . S
C544 C543 1.394 . S
C544 C545 1.516 . S
C545 C544 1.516 . S
C545 C546 1.502 . S
C545 C547 1.561 . S
C545 C548 1.526 . S
C546 H530 0.959 . S
C546 H531 0.959 . S
C546 H532 0.961 . S
C546 C545 1.502 . S
C547 H533 0.960 . S
C547 H534 0.961 . S
C547 H535 0.959 . S
C547 C545 1.561 . S
C548 C545 1.526 . S
C548 C549 1.396 . S
C548 C553 1.390 . S
C549 C543 1.465 . S
C549 C548 1.396 . S
C549 C550 1.399 . S
C550 H536 0.929 . S
C550 C549 1.399 . S
C550 C551 1.385 . S
C551 H537 0.931 . S
C551 C550 1.385 . S
C551 C552 1.389 . S
C552 C551 1.389 . S
C552 C553 1.387 . S
C553 H538 0.930 . S
C553 C548 1.390 . S
C553 C552 1.387 . S
H554 C566 0.930 . S
H555 C568 0.930 . S
H556 C569 0.930 . S
H557 C573 0.959 . S
H558 C573 0.959 . S
H559 C573 0.961 . S
H560 C574 0.960 . S
H561 C574 0.961 . S
H562 C574 0.959 . S
H563 C577 0.929 . S
H564 C578 0.931 1_554 S
H565 C580 0.930 . S
C566 H554 0.930 . S
C566 C567 1.399 . S
C566 C571 1.399 . S
C567 C566 1.399 . S
C567 C568 1.376 . S
C568 H555 0.930 . S
C568 C567 1.376 . S
C568 C569 1.388 . S
C569 H556 0.930 . S
C569 C568 1.388 . S
C569 C570 1.390 . S
C570 C569 1.390 . S
C570 C571 1.394 . S
C570 C576 1.465 . S
C571 C566 1.399 . S
C571 C570 1.394 . S
C571 C572 1.516 . S
C572 C571 1.516 . S
C572 C573 1.502 . S
C572 C574 1.561 . S
C572 C575 1.526 . S
C573 H557 0.959 . S
C573 H558 0.959 . S
C573 H559 0.961 . S
C573 C572 1.502 . S
C574 H560 0.960 . S
C574 H561 0.961 . S
C574 H562 0.959 . S
C574 C572 1.561 . S
C575 C572 1.526 . S
C575 C576 1.396 . S
C575 C580 1.390 . S
C576 C570 1.465 . S
C576 C575 1.396 . S
C576 C577 1.399 . S
C577 H563 0.929 . S
C577 C576 1.399 . S
C577 C578 1.385 . S
C578 H564 0.931 1_556 S
C578 C577 1.385 . S
C578 C579 1.389 . S
C579 C578 1.389 . S
C579 C580 1.387 . S
C580 H565 0.930 . S
C580 C575 1.390 . S
C580 C579 1.387 . S
H581 C593 0.930 . S
H582 C595 0.930 . S
H583 C596 0.930 . S
H584 C600 0.959 . S
H585 C600 0.959 . S
H586 C600 0.961 . S
H587 C601 0.960 . S
H588 C601 0.961 . S
H589 C601 0.959 . S
H590 C604 0.929 . S
H591 C605 0.931 . S
H592 C607 0.930 . S
C593 H581 0.930 . S
C593 C594 1.399 . S
C593 C598 1.399 . S
C594 C593 1.399 . S
C594 C595 1.376 . S
C595 H582 0.930 . S
C595 C594 1.376 . S
C595 C596 1.388 . S
C596 H583 0.930 . S
C596 C595 1.388 . S
C596 C597 1.390 . S
C597 C596 1.390 . S
C597 C598 1.394 . S
C597 C603 1.465 . S
C598 C593 1.399 . S
C598 C597 1.394 . S
C598 C599 1.516 . S
C599 C598 1.516 . S
C599 C600 1.502 . S
C599 C601 1.561 . S
C599 C602 1.526 . S
C600 H584 0.959 . S
C600 H585 0.959 . S
C600 H586 0.961 . S
C600 C599 1.502 . S
C601 H587 0.960 . S
C601 H588 0.961 . S
C601 H589 0.959 . S
C601 C599 1.561 . S
C602 C599 1.526 . S
C602 C603 1.396 . S
C602 C607 1.390 . S
C603 C597 1.465 . S
C603 C602 1.396 . S
C603 C604 1.399 . S
C604 H590 0.929 . S
C604 C603 1.399 . S
C604 C605 1.385 . S
C605 H591 0.931 . S
C605 C604 1.385 . S
C605 C606 1.389 . S
C606 C605 1.389 . S
C606 C607 1.387 . S
C607 H592 0.930 . S
C607 C602 1.390 . S
C607 C606 1.387 . S
H608 C620 0.930 . S
H609 C622 0.930 . S
H610 C623 0.930 . S
H611 C627 0.959 . S
H612 C627 0.959 . S
H613 C627 0.961 . S
H614 C628 0.960 . S
H615 C628 0.961 . S
H616 C628 0.959 . S
H617 C631 0.929 . S
H618 C632 0.931 . S
H619 C634 0.930 . S
C620 H608 0.930 . S
C620 C621 1.399 . S
C620 C625 1.399 . S
C621 C620 1.399 . S
C621 C622 1.376 . S
C622 H609 0.930 . S
C622 C621 1.376 . S
C622 C623 1.388 . S
C623 H610 0.930 . S
C623 C622 1.388 . S
C623 C624 1.390 . S
C624 C623 1.390 . S
C624 C625 1.394 . S
C624 C630 1.465 . S
C625 C620 1.399 . S
C625 C624 1.394 . S
C625 C626 1.516 . S
C626 C625 1.516 . S
C626 C627 1.502 . S
C626 C628 1.561 . S
C626 C629 1.526 . S
C627 H611 0.959 . S
C627 H612 0.959 . S
C627 H613 0.961 . S
C627 C626 1.502 . S
C628 H614 0.960 . S
C628 H615 0.961 . S
C628 H616 0.959 . S
C628 C626 1.561 . S
C629 C626 1.526 . S
C629 C630 1.396 . S
C629 C634 1.390 . S
C630 C624 1.465 . S
C630 C629 1.396 . S
C630 C631 1.399 . S
C631 H617 0.929 . S
C631 C630 1.399 . S
C631 C632 1.385 . S
C632 H618 0.931 . S
C632 C631 1.385 . S
C632 C633 1.389 . S
C633 C632 1.389 . S
C633 C634 1.387 . S
C634 H619 0.930 . S
C634 C629 1.390 . S
C634 C633 1.387 . S
H635 C647 0.930 . S
H636 C649 0.930 . S
H637 C650 0.930 . S
H638 C654 0.959 . S
H639 C654 0.959 . S
H640 C654 0.961 . S
H641 C655 0.960 . S
H642 C655 0.961 . S
H643 C655 0.959 . S
H644 C658 0.929 . S
H645 C659 0.931 1_554 S
H646 C661 0.930 . S
C647 H635 0.930 . S
C647 C648 1.399 . S
C647 C652 1.399 . S
C648 C647 1.399 . S
C648 C649 1.376 . S
C649 H636 0.930 . S
C649 C648 1.376 . S
C649 C650 1.388 . S
C650 H637 0.930 . S
C650 C649 1.388 . S
C650 C651 1.390 . S
C651 C650 1.390 . S
C651 C652 1.394 . S
C651 C657 1.465 . S
C652 C647 1.399 . S
C652 C651 1.394 . S
C652 C653 1.516 . S
C653 C652 1.516 . S
C653 C654 1.502 . S
C653 C655 1.561 . S
C653 C656 1.526 . S
C654 H638 0.959 . S
C654 H639 0.959 . S
C654 H640 0.961 . S
C654 C653 1.502 . S
C655 H641 0.960 . S
C655 H642 0.961 . S
C655 H643 0.959 . S
C655 C653 1.561 . S
C656 C653 1.526 . S
C656 C657 1.396 . S
C656 C661 1.390 . S
C657 C651 1.465 . S
C657 C656 1.396 . S
C657 C658 1.399 . S
C658 H644 0.929 . S
C658 C657 1.399 . S
C658 C659 1.385 . S
C659 H645 0.931 1_556 S
C659 C658 1.385 . S
C659 C660 1.389 . S
C660 C659 1.389 . S
C660 C661 1.387 . S
C661 H646 0.930 . S
C661 C656 1.390 . S
C661 C660 1.387 . S
H662 C674 0.930 . S
H663 C676 0.930 . S
H664 C677 0.930 . S
H665 C681 0.959 . S
H666 C681 0.959 . S
H667 C681 0.961 . S
H668 C682 0.960 . S
H669 C682 0.961 . S
H670 C682 0.959 . S
H671 C685 0.929 . S
H672 C686 0.931 . S
H673 C688 0.930 . S
C674 H662 0.930 . S
C674 C675 1.399 . S
C674 C679 1.399 . S
C675 C674 1.399 . S
C675 C676 1.376 . S
C676 H663 0.930 . S
C676 C675 1.376 . S
C676 C677 1.388 . S
C677 H664 0.930 . S
C677 C676 1.388 . S
C677 C678 1.390 . S
C678 C677 1.390 . S
C678 C679 1.394 . S
C678 C684 1.465 . S
C679 C674 1.399 . S
C679 C678 1.394 . S
C679 C680 1.516 . S
C680 C679 1.516 . S
C680 C681 1.502 . S
C680 C682 1.561 . S
C680 C683 1.526 . S
C681 H665 0.959 . S
C681 H666 0.959 . S
C681 H667 0.961 . S
C681 C680 1.502 . S
C682 H668 0.960 . S
C682 H669 0.961 . S
C682 H670 0.959 . S
C682 C680 1.561 . S
C683 C680 1.526 . S
C683 C684 1.396 . S
C683 C688 1.390 . S
C684 C678 1.465 . S
C684 C683 1.396 . S
C684 C685 1.399 . S
C685 H671 0.929 . S
C685 C684 1.399 . S
C685 C686 1.385 . S
C686 H672 0.931 . S
C686 C685 1.385 . S
C686 C687 1.389 . S
C687 C686 1.389 . S
C687 C688 1.387 . S
C688 H673 0.930 . S
C688 C683 1.390 . S
C688 C687 1.387 . S
H689 C701 0.930 . S
H690 C703 0.930 . S
H691 C704 0.930 . S
H692 C708 0.959 . S
H693 C708 0.959 . S
H694 C708 0.961 . S
H695 C709 0.960 . S
H696 C709 0.961 . S
H697 C709 0.959 . S
H698 C712 0.929 . S
H699 C713 0.931 . S
H700 C715 0.930 . S
C701 H689 0.930 . S
C701 C702 1.399 . S
C701 C706 1.399 . S
C702 C701 1.399 . S
C702 C703 1.376 . S
C703 H690 0.930 . S
C703 C702 1.376 . S
C703 C704 1.388 . S
C704 H691 0.930 . S
C704 C703 1.388 . S
C704 C705 1.390 . S
C705 C704 1.390 . S
C705 C706 1.394 . S
C705 C711 1.465 . S
C706 C701 1.399 . S
C706 C705 1.394 . S
C706 C707 1.516 . S
C707 C706 1.516 . S
C707 C708 1.502 . S
C707 C709 1.561 . S
C707 C710 1.526 . S
C708 H692 0.959 . S
C708 H693 0.959 . S
C708 H694 0.961 . S
C708 C707 1.502 . S
C709 H695 0.960 . S
C709 H696 0.961 . S
C709 H697 0.959 . S
C709 C707 1.561 . S
C710 C707 1.526 . S
C710 C711 1.396 . S
C710 C715 1.390 . S
C711 C705 1.465 . S
C711 C710 1.396 . S
C711 C712 1.399 . S
C712 H698 0.929 . S
C712 C711 1.399 . S
C712 C713 1.385 . S
C713 H699 0.931 . S
C713 C712 1.385 . S
C713 C714 1.389 . S
C714 C713 1.389 . S
C714 C715 1.387 . S
C715 H700 0.930 . S
C715 C710 1.390 . S
C715 C714 1.387 . S
H716 C728 0.930 . S
H717 C730 0.930 . S
H718 C731 0.930 . S
H719 C735 0.959 . S
H720 C735 0.959 . S
H721 C735 0.961 . S
H722 C736 0.960 . S
H723 C736 0.961 . S
H724 C736 0.959 . S
H725 C739 0.929 . S
H726 C740 0.931 . S
H727 C742 0.930 . S
C728 H716 0.930 . S
C728 C729 1.399 . S
C728 C733 1.399 . S
C729 C728 1.399 . S
C729 C730 1.376 . S
C730 H717 0.930 . S
C730 C729 1.376 . S
C730 C731 1.388 . S
C731 H718 0.930 . S
C731 C730 1.388 . S
C731 C732 1.390 . S
C732 C731 1.390 . S
C732 C733 1.394 . S
C732 C738 1.465 . S
C733 C728 1.399 . S
C733 C732 1.394 . S
C733 C734 1.516 . S
C734 C733 1.516 . S
C734 C735 1.502 . S
C734 C736 1.561 . S
C734 C737 1.526 . S
C735 H719 0.959 . S
C735 H720 0.959 . S
C735 H721 0.961 . S
C735 C734 1.502 . S
C736 H722 0.960 . S
C736 H723 0.961 . S
C736 H724 0.959 . S
C736 C734 1.561 . S
C737 C734 1.526 . S
C737 C738 1.396 . S
C737 C742 1.390 . S
C738 C732 1.465 . S
C738 C737 1.396 . S
C738 C739 1.399 . S
C739 H725 0.929 . S
C739 C738 1.399 . S
C739 C740 1.385 . S
C740 H726 0.931 . S
C740 C739 1.385 . S
C740 C741 1.389 . S
C741 C740 1.389 . S
C741 C742 1.387 . S
C742 H727 0.930 . S
C742 C737 1.390 . S
C742 C741 1.387 . S
H743 C755 0.930 . S
H744 C757 0.930 . S
H745 C758 0.930 . S
H746 C762 0.959 . S
H747 C762 0.959 . S
H748 C762 0.961 . S
H749 C763 0.960 . S
H750 C763 0.961 1_565 S
H751 C763 0.959 . S
H752 C766 0.929 . S
H753 C767 0.931 . S
H754 C769 0.930 . S
C755 H743 0.930 . S
C755 C756 1.399 . S
C755 C760 1.399 . S
C756 C755 1.399 . S
C756 C757 1.376 . S
C757 H744 0.930 . S
C757 C756 1.376 . S
C757 C758 1.388 . S
C758 H745 0.930 . S
C758 C757 1.388 . S
C758 C759 1.390 . S
C759 C758 1.390 . S
C759 C760 1.394 . S
C759 C765 1.465 . S
C760 C755 1.399 . S
C760 C759 1.394 . S
C760 C761 1.516 . S
C761 C760 1.516 . S
C761 C762 1.502 . S
C761 C763 1.561 . S
C761 C764 1.526 . S
C762 H746 0.959 . S
C762 H747 0.959 . S
C762 H748 0.961 . S
C762 C761 1.502 . S
C763 H749 0.960 . S
C763 H750 0.961 1_545 S
C763 H751 0.959 . S
C763 C761 1.561 . S
C764 C761 1.526 . S
C764 C765 1.396 . S
C764 C769 1.390 . S
C765 C759 1.465 . S
C765 C764 1.396 . S
C765 C766 1.399 . S
C766 H752 0.929 . S
C766 C765 1.399 . S
C766 C767 1.385 . S
C767 H753 0.931 . S
C767 C766 1.385 . S
C767 C768 1.389 . S
C768 C767 1.389 . S
C768 C769 1.387 . S
C769 H754 0.930 . S
C769 C764 1.390 . S
C769 C768 1.387 . S
H770 C782 0.930 . S
H771 C784 0.930 . S
H772 C785 0.930 . S
H773 C789 0.959 . S
H774 C789 0.959 . S
H775 C789 0.961 . S
H776 C790 0.960 . S
H777 C790 0.961 . S
H778 C790 0.959 . S
H779 C793 0.929 . S
H780 C794 0.931 . S
H781 C796 0.930 . S
C782 H770 0.930 . S
C782 C783 1.399 . S
C782 C787 1.399 . S
C783 C782 1.399 . S
C783 C784 1.376 . S
C784 H771 0.930 . S
C784 C783 1.376 . S
C784 C785 1.388 . S
C785 H772 0.930 . S
C785 C784 1.388 . S
C785 C786 1.390 . S
C786 C785 1.390 . S
C786 C787 1.394 . S
C786 C792 1.465 . S
C787 C782 1.399 . S
C787 C786 1.394 . S
C787 C788 1.516 . S
C788 C787 1.516 . S
C788 C789 1.502 . S
C788 C790 1.561 . S
C788 C791 1.526 . S
C789 H773 0.959 . S
C789 H774 0.959 . S
C789 H775 0.961 . S
C789 C788 1.502 . S
C790 H776 0.960 . S
C790 H777 0.961 . S
C790 H778 0.959 . S
C790 C788 1.561 . S
C791 C788 1.526 . S
C791 C792 1.396 . S
C791 C796 1.390 . S
C792 C786 1.465 . S
C792 C791 1.396 . S
C792 C793 1.399 . S
C793 H779 0.929 . S
C793 C792 1.399 . S
C793 C794 1.385 . S
C794 H780 0.931 . S
C794 C793 1.385 . S
C794 C795 1.389 . S
C795 C794 1.389 . S
C795 C796 1.387 . S
C796 H781 0.930 . S
C796 C791 1.390 . S
C796 C795 1.387 . S
H797 C809 0.930 . S
H798 C811 0.930 . S
H799 C812 0.930 . S
H800 C816 0.959 . S
H801 C816 0.959 . S
H802 C816 0.961 . S
H803 C817 0.960 . S
H804 C817 0.961 . S
H805 C817 0.959 . S
H806 C820 0.929 . S
H807 C821 0.931 . S
H808 C823 0.930 . S
C809 H797 0.930 . S
C809 C810 1.399 . S
C809 C814 1.399 . S
C810 C809 1.399 . S
C810 C811 1.376 . S
C811 H798 0.930 . S
C811 C810 1.376 . S
C811 C812 1.388 . S
C812 H799 0.930 . S
C812 C811 1.388 . S
C812 C813 1.390 . S
C813 C812 1.390 . S
C813 C814 1.394 . S
C813 C819 1.465 . S
C814 C809 1.399 . S
C814 C813 1.394 . S
C814 C815 1.516 . S
C815 C814 1.516 . S
C815 C816 1.502 . S
C815 C817 1.561 . S
C815 C818 1.526 . S
C816 H800 0.959 . S
C816 H801 0.959 . S
C816 H802 0.961 . S
C816 C815 1.502 . S
C817 H803 0.960 . S
C817 H804 0.961 . S
C817 H805 0.959 . S
C817 C815 1.561 . S
C818 C815 1.526 . S
C818 C819 1.396 . S
C818 C823 1.390 . S
C819 C813 1.465 . S
C819 C818 1.396 . S
C819 C820 1.399 . S
C820 H806 0.929 . S
C820 C819 1.399 . S
C820 C821 1.385 . S
C821 H807 0.931 . S
C821 C820 1.385 . S
C821 C822 1.389 . S
C822 C821 1.389 . S
C822 C823 1.387 . S
C823 H808 0.930 . S
C823 C818 1.390 . S
C823 C822 1.387 . S
H824 C836 0.930 . S
H825 C838 0.930 . S
H826 C839 0.930 . S
H827 C843 0.959 . S
H828 C843 0.959 . S
H829 C843 0.961 . S
H830 C844 0.960 . S
H831 C844 0.961 . S
H832 C844 0.959 . S
H833 C847 0.929 . S
H834 C848 0.931 . S
H835 C850 0.930 . S
C836 H824 0.930 . S
C836 C837 1.399 . S
C836 C841 1.399 . S
C837 C836 1.399 . S
C837 C838 1.376 . S
C838 H825 0.930 . S
C838 C837 1.376 . S
C838 C839 1.388 . S
C839 H826 0.930 . S
C839 C838 1.388 . S
C839 C840 1.390 . S
C840 C839 1.390 . S
C840 C841 1.394 . S
C840 C846 1.465 . S
C841 C836 1.399 . S
C841 C840 1.394 . S
C841 C842 1.516 . S
C842 C841 1.516 . S
C842 C843 1.502 . S
C842 C844 1.561 . S
C842 C845 1.526 . S
C843 H827 0.959 . S
C843 H828 0.959 . S
C843 H829 0.961 . S
C843 C842 1.502 . S
C844 H830 0.960 . S
C844 H831 0.961 . S
C844 H832 0.959 . S
C844 C842 1.561 . S
C845 C842 1.526 . S
C845 C846 1.396 . S
C845 C850 1.390 . S
C846 C840 1.465 . S
C846 C845 1.396 . S
C846 C847 1.399 . S
C847 H833 0.929 . S
C847 C846 1.399 . S
C847 C848 1.385 . S
C848 H834 0.931 . S
C848 C847 1.385 . S
C848 C849 1.389 . S
C849 C848 1.389 . S
C849 C850 1.387 . S
C850 H835 0.930 . S
C850 C845 1.390 . S
C850 C849 1.387 . S
H851 C863 0.930 . S
H852 C865 0.930 . S
H853 C866 0.930 . S
H854 C870 0.959 . S
H855 C870 0.959 . S
H856 C870 0.961 . S
H857 C871 0.960 . S
H858 C871 0.961 . S
H859 C871 0.959 . S
H860 C874 0.929 . S
H861 C875 0.931 . S
H862 C877 0.930 . S
C863 H851 0.930 . S
C863 C864 1.399 . S
C863 C868 1.399 . S
C864 C863 1.399 . S
C864 C865 1.376 . S
C865 H852 0.930 . S
C865 C864 1.376 . S
C865 C866 1.388 . S
C866 H853 0.930 . S
C866 C865 1.388 . S
C866 C867 1.390 . S
C867 C866 1.390 . S
C867 C868 1.394 . S
C867 C873 1.465 . S
C868 C863 1.399 . S
C868 C867 1.394 . S
C868 C869 1.516 . S
C869 C868 1.516 . S
C869 C870 1.502 . S
C869 C871 1.561 . S
C869 C872 1.526 . S
C870 H854 0.959 . S
C870 H855 0.959 . S
C870 H856 0.961 . S
C870 C869 1.502 . S
C871 H857 0.960 . S
C871 H858 0.961 . S
C871 H859 0.959 . S
C871 C869 1.561 . S
C872 C869 1.526 . S
C872 C873 1.396 . S
C872 C877 1.390 . S
C873 C867 1.465 . S
C873 C872 1.396 . S
C873 C874 1.399 . S
C874 H860 0.929 . S
C874 C873 1.399 . S
C874 C875 1.385 . S
C875 H861 0.931 . S
C875 C874 1.385 . S
C875 C876 1.389 . S
C876 C875 1.389 . S
C876 C877 1.387 . S
C877 H862 0.930 . S
C877 C872 1.390 . S
C877 C876 1.387 . S
H878 C890 0.930 . S
H879 C892 0.930 . S
H880 C893 0.930 . S
H881 C897 0.959 . S
H882 C897 0.959 1_556 S
H883 C897 0.961 . S
H884 C898 0.960 . S
H885 C898 0.938 1_556 S
H886 C898 0.959 . S
H887 C901 0.929 . S
H888 C902 0.931 . S
H889 C904 0.930 . S
C890 H878 0.930 . S
C890 C891 1.399 . S
C890 C895 1.399 . S
C891 C890 1.399 . S
C891 C892 1.376 . S
C892 H879 0.930 . S
C892 C891 1.376 . S
C892 C893 1.388 . S
C893 H880 0.930 . S
C893 C892 1.388 . S
C893 C894 1.390 . S
C894 C893 1.390 . S
C894 C895 1.394 . S
C894 C900 1.465 . S
C895 C890 1.399 . S
C895 C894 1.394 . S
C895 C896 1.516 . S
C896 C895 1.516 . S
C896 C897 1.502 . S
C896 C898 1.561 . S
C896 C899 1.526 . S
C897 H881 0.959 . S
C897 H882 0.959 1_554 S
C897 H883 0.961 . S
C897 C896 1.502 . S
C898 H884 0.960 . S
C898 H885 0.938 1_554 S
C898 H886 0.959 . S
C898 C896 1.561 . S
C899 C896 1.526 . S
C899 C900 1.396 . S
C899 C904 1.390 . S
C900 C894 1.465 . S
C900 C899 1.396 . S
C900 C901 1.399 . S
C901 H887 0.929 . S
C901 C900 1.399 . S
C901 C902 1.385 . S
C902 H888 0.931 . S
C902 C901 1.385 . S
C902 C903 1.389 . S
C903 C902 1.389 . S
C903 C904 1.387 . S
C904 H889 0.930 . S
C904 C899 1.390 . S
C904 C903 1.387 . S
H905 C917 0.930 . S
H906 C919 0.930 . S
H907 C920 0.930 . S
H908 C924 0.959 . S
H909 C924 0.959 . S
H910 C924 0.961 . S
H911 C925 0.960 . S
H912 C925 0.961 . S
H913 C925 0.959 . S
H914 C928 0.929 . S
H915 C929 0.931 . S
H916 C931 0.930 . S
C917 H905 0.930 . S
C917 C918 1.399 . S
C917 C922 1.399 . S
C918 C917 1.399 . S
C918 C919 1.376 . S
C919 H906 0.930 . S
C919 C918 1.376 . S
C919 C920 1.388 . S
C920 H907 0.930 . S
C920 C919 1.388 . S
C920 C921 1.390 . S
C921 C920 1.390 . S
C921 C922 1.394 . S
C921 C927 1.465 . S
C922 C917 1.399 . S
C922 C921 1.394 . S
C922 C923 1.516 . S
C923 C922 1.516 . S
C923 C924 1.502 . S
C923 C925 1.561 . S
C923 C926 1.526 . S
C924 H908 0.959 . S
C924 H909 0.959 . S
C924 H910 0.961 . S
C924 C923 1.502 . S
C925 H911 0.960 . S
C925 H912 0.961 . S
C925 H913 0.959 . S
C925 C923 1.561 . S
C926 C923 1.526 . S
C926 C927 1.396 . S
C926 C931 1.390 . S
C927 C921 1.465 . S
C927 C926 1.396 . S
C927 C928 1.399 . S
C928 H914 0.929 . S
C928 C927 1.399 . S
C928 C929 1.385 . S
C929 H915 0.931 . S
C929 C928 1.385 . S
C929 C930 1.389 . S
C930 C929 1.389 . S
C930 C931 1.387 . S
C931 H916 0.930 . S
C931 C926 1.390 . S
C931 C930 1.387 . S
H932 C944 0.930 . S
H933 C946 0.930 . S
H934 C947 0.930 . S
H935 C951 0.959 . S
H936 C951 0.959 . S
H937 C951 0.961 . S
H938 C952 0.960 . S
H939 C952 0.961 . S
H940 C952 0.959 . S
H941 C955 0.929 . S
H942 C956 0.931 . S
H943 C958 0.930 . S
C944 H932 0.930 . S
C944 C945 1.399 . S
C944 C949 1.399 . S
C945 C944 1.399 . S
C945 C946 1.376 . S
C946 H933 0.930 . S
C946 C945 1.376 . S
C946 C947 1.388 . S
C947 H934 0.930 . S
C947 C946 1.388 . S
C947 C948 1.390 . S
C948 C947 1.390 . S
C948 C949 1.394 . S
C948 C954 1.465 . S
C949 C944 1.399 . S
C949 C948 1.394 . S
C949 C950 1.516 . S
C950 C949 1.516 . S
C950 C951 1.502 . S
C950 C952 1.561 . S
C950 C953 1.526 . S
C951 H935 0.959 . S
C951 H936 0.959 . S
C951 H937 0.961 . S
C951 C950 1.502 . S
C952 H938 0.960 . S
C952 H939 0.961 . S
C952 H940 0.959 . S
C952 C950 1.561 . S
C953 C950 1.526 . S
C953 C954 1.396 . S
C953 C958 1.390 . S
C954 C948 1.465 . S
C954 C953 1.396 . S
C954 C955 1.399 . S
C955 H941 0.929 . S
C955 C954 1.399 . S
C955 C956 1.385 . S
C956 H942 0.931 . S
C956 C955 1.385 . S
C956 C957 1.389 . S
C957 C956 1.389 . S
C957 C958 1.387 . S
C958 H943 0.930 . S
C958 C953 1.390 . S
C958 C957 1.387 . S
H959 C971 0.930 . S
H960 C973 0.930 . S
H961 C974 0.930 . S
H962 C978 0.959 . S
H963 C978 0.959 . S
H964 C978 0.961 . S
H965 C979 0.960 . S
H966 C979 0.961 . S
H967 C979 0.959 . S
H968 C982 0.929 . S
H969 C983 0.931 1_556 S
H970 C985 0.930 . S
C971 H959 0.930 . S
C971 C972 1.399 . S
C971 C976 1.399 . S
C972 C971 1.399 . S
C972 C973 1.376 . S
C973 H960 0.930 . S
C973 C972 1.376 . S
C973 C974 1.388 . S
C974 H961 0.930 . S
C974 C973 1.388 . S
C974 C975 1.390 . S
C975 C974 1.390 . S
C975 C976 1.394 . S
C975 C981 1.465 . S
C976 C971 1.399 . S
C976 C975 1.394 . S
C976 C977 1.516 . S
C977 C976 1.516 . S
C977 C978 1.502 . S
C977 C979 1.561 . S
C977 C980 1.526 . S
C978 H962 0.959 . S
C978 H963 0.959 . S
C978 H964 0.961 . S
C978 C977 1.502 . S
C979 H965 0.960 . S
C979 H966 0.961 . S
C979 H967 0.959 . S
C979 C977 1.561 . S
C980 C977 1.526 . S
C980 C981 1.396 . S
C980 C985 1.390 . S
C981 C975 1.465 . S
C981 C980 1.396 . S
C981 C982 1.399 . S
C982 H968 0.929 . S
C982 C981 1.399 . S
C982 C983 1.385 . S
C983 H969 0.931 1_554 S
C983 C982 1.385 . S
C983 C984 1.389 . S
C984 C983 1.389 . S
C984 C985 1.387 . S
C985 H970 0.930 . S
C985 C980 1.390 . S
C985 C984 1.387 . S
H986 C998 0.930 . S
H987 C1000 0.930 . S
H988 C1001 0.930 . S
H989 C1005 0.959 . S
H990 C1005 0.959 . S
H991 C1005 0.961 . S
H992 C1006 0.960 . S
H993 C1006 0.961 . S
H994 C1006 0.959 . S
H995 C1009 0.929 . S
H996 C1010 0.931 . S
H997 C1012 0.930 . S
C998 H986 0.930 . S
C998 C999 1.399 . S
C998 C1003 1.399 . S
C999 C998 1.399 . S
C999 C1000 1.376 . S
C1000 H987 0.930 . S
C1000 C999 1.376 . S
C1000 C1001 1.388 . S
C1001 H988 0.930 . S
C1001 C1000 1.388 . S
C1001 C1002 1.390 . S
C1002 C1001 1.390 . S
C1002 C1003 1.394 . S
C1002 C1008 1.465 . S
C1003 C998 1.399 . S
C1003 C1002 1.394 . S
C1003 C1004 1.516 . S
C1004 C1003 1.516 . S
C1004 C1005 1.502 . S
C1004 C1006 1.561 . S
C1004 C1007 1.526 . S
C1005 H989 0.959 . S
C1005 H990 0.959 . S
C1005 H991 0.961 . S
C1005 C1004 1.502 . S
C1006 H992 0.960 . S
C1006 H993 0.961 . S
C1006 H994 0.959 . S
C1006 C1004 1.561 . S
C1007 C1004 1.526 . S
C1007 C1008 1.396 . S
C1007 C1012 1.390 . S
C1008 C1002 1.465 . S
C1008 C1007 1.396 . S
C1008 C1009 1.399 . S
C1009 H995 0.929 . S
C1009 C1008 1.399 . S
C1009 C1010 1.385 . S
C1010 H996 0.931 . S
C1010 C1009 1.385 . S
C1010 C1011 1.389 . S
C1011 C1010 1.389 . S
C1011 C1012 1.387 . S
C1012 H997 0.930 . S
C1012 C1007 1.390 . S
C1012 C1011 1.387 . S
H1013 C1025 0.930 . S
H1014 C1027 0.930 . S
H1015 C1028 0.930 . S
H1016 C1032 0.959 . S
H1017 C1032 0.959 . S
H1018 C1032 0.961 . S
H1019 C1033 0.960 . S
H1020 C1033 0.961 . S
H1021 C1033 0.959 . S
H1022 C1036 0.929 . S
H1023 C1037 0.931 . S
H1024 C1039 0.930 . S
C1025 H1013 0.930 . S
C1025 C1026 1.399 . S
C1025 C1030 1.399 . S
C1026 C1025 1.399 . S
C1026 C1027 1.376 . S
C1027 H1014 0.930 . S
C1027 C1026 1.376 . S
C1027 C1028 1.388 . S
C1028 H1015 0.930 . S
C1028 C1027 1.388 . S
C1028 C1029 1.390 . S
C1029 C1028 1.390 . S
C1029 C1030 1.394 . S
C1029 C1035 1.465 . S
C1030 C1025 1.399 . S
C1030 C1029 1.394 . S
C1030 C1031 1.516 . S
C1031 C1030 1.516 . S
C1031 C1032 1.502 . S
C1031 C1033 1.561 . S
C1031 C1034 1.526 . S
C1032 H1016 0.959 . S
C1032 H1017 0.959 . S
C1032 H1018 0.961 . S
C1032 C1031 1.502 . S
C1033 H1019 0.960 . S
C1033 H1020 0.961 . S
C1033 H1021 0.959 . S
C1033 C1031 1.561 . S
C1034 C1031 1.526 . S
C1034 C1035 1.396 . S
C1034 C1039 1.390 . S
C1035 C1029 1.465 . S
C1035 C1034 1.396 . S
C1035 C1036 1.399 . S
C1036 H1022 0.929 . S
C1036 C1035 1.399 . S
C1036 C1037 1.385 . S
C1037 H1023 0.931 . S
C1037 C1036 1.385 . S
C1037 C1038 1.389 . S
C1038 C1037 1.389 . S
C1038 C1039 1.387 . S
C1039 H1024 0.930 . S
C1039 C1034 1.390 . S
C1039 C1038 1.387 . S
C405 C1 1.551 . S
C417 C314 1.545 . S
C432 C40 1.353 . S
C444 C333 1.329 . S
C471 C370 1.727 . S
C459 C99 1.765 . S
C486 C118 1.705 . S
C498 C380 1.633 . S
C525 C350 2.009 . S
C513 C16 1.943 . S
C552 C320 1.371 . S
C540 C60 1.501 . S
C579 C391 1.515 . S
C567 C79 1.533 . S
C606 C361 1.351 . S
C594 C138 1.406 . S
C621 C21 1.748 . S
C633 C374 1.772 . S
C660 C341 1.736 . S
C648 C94 1.758 . S
C675 C133 1.721 . S
C687 C331 1.723 . S
C702 C55 1.217 . S
C714 C353 1.210 . S
C741 C313 1.541 . S
C729 C157 1.528 . S
C756 C196 1.358 . S
C768 C334 1.370 . S
C783 C255 1.757 . S
C795 C371 1.745 . S
C810 C289 1.693 . S
C822 C381 1.622 . S
C837 C172 1.980 . S
C849 C351 2.010 . S
C876 C321 1.437 . S
C864 C216 1.485 . S
C903 C390 1.493 . S
C891 C235 1.531 . S
C930 C360 1.399 . S
C918 C294 1.409 . S
C945 C177 1.724 . S
C957 C373 1.764 . S
C984 C340 1.736 . S
C972 C250 1.761 . S
C1011 C330 1.732 . S
C999 C274 1.732 . S
C1026 C211 1.245 . S
C1038 C354 1.244 . S
