# Generated by pormake.
# Topology pyr, (3,6)-cn, num edge types: 1
# Building blocks:
#     Node 0, Type 0, BuildingBlock: QEWDON_clean_linker_0, # of connection points: 3
#     Node 1, Type 0, BuildingBlock: QEWDON_clean_linker_0, # of connection points: 3
#     Node 2, Type 0, BuildingBlock: QEWDON_clean_linker_0, # of connection points: 3
#     Node 3, Type 0, BuildingBlock: QEWDON_clean_linker_0, # of connection points: 3
#     Node 4, Type 0, BuildingBlock: QEWDON_clean_linker_0, # of connection points: 3
#     Node 5, Type 0, BuildingBlock: QEWDON_clean_linker_0, # of connection points: 3
#     Node 6, Type 0, BuildingBlock: QEWDON_clean_linker_0, # of connection points: 3
#     Node 7, Type 0, BuildingBlock: QEWDON_clean_linker_0, # of connection points: 3
#     Node 8, Type 1, BuildingBlock: BETFAJ_clean_sbu_0, # of connection points: 6
#     Node 9, Type 1, BuildingBlock: BETFAJ_clean_sbu_0, # of connection points: 6
#     Node 10, Type 1, BuildingBlock: BETFAJ_clean_sbu_0, # of connection points: 6
#     Node 11, Type 1, BuildingBlock: BETFAJ_clean_sbu_0, # of connection points: 6
#     Edge 12, Type (0, 1), BuildingBlock: AJUNOK_clean_linker_0, # of connection points: 2
#     Edge 13, Type (0, 1), BuildingBlock: AJUNOK_clean_linker_0, # of connection points: 2
#     Edge 14, Type (0, 1), BuildingBlock: AJUNOK_clean_linker_0, # of connection points: 2
#     Edge 15, Type (0, 1), BuildingBlock: AJUNOK_clean_linker_0, # of connection points: 2
#     Edge 16, Type (0, 1), BuildingBlock: AJUNOK_clean_linker_0, # of connection points: 2
#     Edge 17, Type (0, 1), BuildingBlock: AJUNOK_clean_linker_0, # of connection points: 2
#     Edge 18, Type (0, 1), BuildingBlock: AJUNOK_clean_linker_0, # of connection points: 2
#     Edge 19, Type (0, 1), BuildingBlock: AJUNOK_clean_linker_0, # of connection points: 2
#     Edge 20, Type (0, 1), BuildingBlock: AJUNOK_clean_linker_0, # of connection points: 2
#     Edge 21, Type (0, 1), BuildingBlock: AJUNOK_clean_linker_0, # of connection points: 2
#     Edge 22, Type (0, 1), BuildingBlock: AJUNOK_clean_linker_0, # of connection points: 2
#     Edge 23, Type (0, 1), BuildingBlock: AJUNOK_clean_linker_0, # of connection points: 2
#     Edge 24, Type (0, 1), BuildingBlock: AJUNOK_clean_linker_0, # of connection points: 2
#     Edge 25, Type (0, 1), BuildingBlock: AJUNOK_clean_linker_0, # of connection points: 2
#     Edge 26, Type (0, 1), BuildingBlock: AJUNOK_clean_linker_0, # of connection points: 2
#     Edge 27, Type (0, 1), BuildingBlock: AJUNOK_clean_linker_0, # of connection points: 2
#     Edge 28, Type (0, 1), BuildingBlock: AJUNOK_clean_linker_0, # of connection points: 2
#     Edge 29, Type (0, 1), BuildingBlock: AJUNOK_clean_linker_0, # of connection points: 2
#     Edge 30, Type (0, 1), BuildingBlock: AJUNOK_clean_linker_0, # of connection points: 2
#     Edge 31, Type (0, 1), BuildingBlock: AJUNOK_clean_linker_0, # of connection points: 2
#     Edge 32, Type (0, 1), BuildingBlock: AJUNOK_clean_linker_0, # of connection points: 2
#     Edge 33, Type (0, 1), BuildingBlock: AJUNOK_clean_linker_0, # of connection points: 2
#     Edge 34, Type (0, 1), BuildingBlock: AJUNOK_clean_linker_0, # of connection points: 2
#     Edge 35, Type (0, 1), BuildingBlock: AJUNOK_clean_linker_0, # of connection points: 2
# Relax obj value: 0.225
# Max RMSD: 0.266
# Mean RMSD: 0.197
data_MOF--net-pyr--node1-BETFAJ_clean_sbu_0--node2-QEWDON_clean_linker_0--edge1-AJUNOK_clean_linker_0
_symmetry_space_group_name_H-M    P1
_symmetry_Int_Tables_number       1
_symmetry_cell_setting            triclinic
loop_
_symmetry_equiv_pos_as_xyz
'x, y, z'
_cell_length_a     28.668251
_cell_length_b     31.803724
_cell_length_c     30.43137
_cell_angle_alpha  91.997245
_cell_angle_beta   89.870781
_cell_angle_gamma 111.09175
loop_
_atom_site_label
_atom_site_type_symbol
_atom_site_fract_x
_atom_site_fract_y
_atom_site_fract_z
_atom_type_partial_charge
H0 H 0.48024 0.358 0.19235 0.0
C1 C 0.46452 0.35595 0.22501 0.0
C2 C 0.46127 0.31926 0.25082 0.0
C3 C 0.44372 0.38772 0.23963 0.0
H4 H 0.43186 0.28454 0.30985 0.0
C5 C 0.43743 0.31459 0.29153 0.0
C6 C 0.41579 0.3457 0.30623 0.0
C7 C 0.42048 0.38289 0.28078 0.0
C8 C 0.44054 0.42258 0.20989 0.0
H9 H 0.40371 0.40687 0.29205 0.0
C10 C 0.39464 0.42851 0.20396 0.0
C11 C 0.39042 0.46075 0.17536 0.0
C12 C 0.48246 0.44916 0.18655 0.0
H13 H 0.51816 0.44517 0.19048 0.0
C14 C 0.4787 0.48164 0.15843 0.0
H15 H 0.36174 0.40713 0.22081 0.0
C16 C 0.43309 0.4876 0.15293 0.0
H17 H 0.43134 0.51347 0.13149 0.0
H18 H 0.51131 0.50239 0.14092 0.0
H19 H 0.16747 0.87773 0.78707 0.0
C20 C 0.19275 0.86265 0.77284 0.0
C21 C 0.23663 0.86682 0.79546 0.0
C22 C 0.18343 0.84234 0.73042 0.0
H23 H 0.30539 0.85431 0.79344 0.0
C24 C 0.27075 0.84986 0.77619 0.0
C25 C 0.26215 0.82985 0.73385 0.0
C26 C 0.21784 0.82508 0.7113 0.0
C27 C 0.14224 0.84586 0.70373 0.0
H28 H 0.21197 0.81107 0.67789 0.0
C29 C 0.13881 0.88838 0.69884 0.0
C30 C 0.1018 0.8934 0.67185 0.0
C31 C 0.10805 0.80798 0.68149 0.0
H32 H 0.1104 0.77497 0.68462 0.0
C33 C 0.07051 0.81263 0.65506 0.0
H34 H 0.16584 0.91788 0.71527 0.0
C35 C 0.06743 0.8551 0.65006 0.0
H36 H 0.03911 0.85815 0.62824 0.0
H37 H 0.04421 0.78336 0.63787 0.0
H38 H 0.7381 0.50169 0.93309 0.0
C39 C 0.72183 0.46666 0.94145 0.0
C40 C 0.74658 0.44893 0.9728 0.0
C41 C 0.67378 0.44087 0.92358 0.0
H42 H 0.73824 0.38941 1.00995 0.0
C43 C 0.72086 0.40384 0.98619 0.0
C44 C 0.67198 0.37738 0.97085 0.0
C45 C 0.64977 0.39641 0.93907 0.0
C46 C 0.64258 0.46295 0.89849 0.0
H47 H 0.61223 0.37697 0.9274 0.0
C48 C 0.65267 0.48274 0.85556 0.0
C49 C 0.61907 0.50193 0.83588 0.0
C50 C 0.59938 0.46347 0.92004 0.0
H51 H 0.59027 0.44947 0.95229 0.0
C52 C 0.56734 0.48202 0.90124 0.0
H53 H 0.68556 0.48299 0.83789 0.0
C54 C 0.57693 0.50083 0.86008 0.0
H55 H 0.55067 0.51466 0.84679 0.0
H56 H 0.53444 0.48181 0.91891 0.0
H57 H 0.93204 0.85016 0.40433 0.0
C58 C 0.90349 0.82644 0.42374 0.0
C59 C 0.89097 0.84121 0.46558 0.0
C60 C 0.87702 0.7823 0.40502 0.0
H61 H 0.84394 0.81806 0.52202 0.0
C62 C 0.85174 0.80941 0.48886 0.0
C63 C 0.82156 0.76667 0.47041 0.0
C64 C 0.83535 0.75362 0.42856 0.0
C65 C 0.88153 0.77206 0.35599 0.0
H66 H 0.81161 0.72232 0.41256 0.0
C67 C 0.90978 0.74665 0.3362 0.0
C68 C 0.90954 0.73878 0.28891 0.0
C69 C 0.85342 0.78802 0.32794 0.0
H70 H 0.83151 0.80694 0.3413 0.0
C71 C 0.85186 0.77934 0.28276 0.0
H72 H 0.93183 0.73383 0.35699 0.0
C73 C 0.87893 0.755 0.2637 0.0
H74 H 0.8754 0.74851 0.22845 0.0
H75 H 0.82903 0.79148 0.26214 0.0
H76 H 0.67793 0.80018 1.01597 0.0
C77 C 0.6941 0.815 0.98539 0.0
C78 C 0.74036 0.81335 0.97218 0.0
C79 C 0.67008 0.83776 0.96001 0.0
H80 H 0.79898 0.83412 0.92449 0.0
C81 C 0.76244 0.83418 0.93384 0.0
C82 C 0.73938 0.85726 0.90873 0.0
C83 C 0.69291 0.85845 0.92141 0.0
C84 C 0.62298 0.84265 0.97507 0.0
H85 H 0.67551 0.87693 0.9021 0.0
C86 C 0.61755 0.88495 0.97464 0.0
C87 C 0.57343 0.89025 0.98955 0.0
C88 C 0.58353 0.80542 0.99039 0.0
H89 H 0.58665 0.77249 0.99082 0.0
C90 C 0.53952 0.81035 1.00497 0.0
H91 H 0.64805 0.91401 0.96339 0.0
C92 C 0.5345 0.85243 1.00484 0.0
H93 H 0.50064 0.85556 1.0178 0.0
H94 H 0.50936 0.78152 1.01693 0.0
H95 H 0.83799 0.23359 0.57797 0.0
C96 C 0.82516 0.23242 0.54432 0.0
C97 C 0.85387 0.22452 0.50967 0.0
C98 C 0.77922 0.23721 0.53568 0.0
H99 H 0.85846 0.21514 0.43961 0.0
C100 C 0.83676 0.22188 0.46635 0.0
C101 C 0.79126 0.22676 0.45734 0.0
C102 C 0.76269 0.23446 0.49185 0.0
C103 C 0.74682 0.24265 0.57192 0.0
H104 H 0.72639 0.23608 0.48453 0.0
C105 C 0.71936 0.27092 0.56695 0.0
C106 C 0.68426 0.27289 0.59839 0.0
C107 C 0.74068 0.21792 0.61031 0.0
H108 H 0.76079 0.19535 0.61497 0.0
C109 C 0.70714 0.22103 0.64257 0.0
H110 H 0.72534 0.29156 0.53837 0.0
C111 C 0.67881 0.24817 0.63662 0.0
H112 H 0.65223 0.24937 0.66153 0.0
H113 H 0.70243 0.2017 0.67191 0.0
H114 H 0.46347 0.87049 0.26995 0.0
C115 C 0.4276 0.84798 0.2572 0.0
C116 C 0.40408 0.86381 0.22364 0.0
C117 C 0.40683 0.80335 0.2738 0.0
H118 H 0.34085 0.84375 0.17941 0.0
C119 C 0.35785 0.83328 0.2066 0.0
C120 C 0.33458 0.78872 0.22196 0.0
C121 C 0.35959 0.77471 0.2562 0.0
C122 C 0.44008 0.78564 0.30238 0.0
H123 H 0.34326 0.74104 0.26839 0.0
C124 C 0.42642 0.75957 0.34199 0.0
C125 C 0.4629 0.74639 0.36563 0.0
C126 C 0.48942 0.796 0.28766 0.0
H127 H 0.50168 0.81408 0.25772 0.0
C128 C 0.52406 0.78321 0.31018 0.0
H129 H 0.38874 0.75025 0.35431 0.0
C130 C 0.51121 0.75918 0.34839 0.0
H131 H 0.53964 0.75005 0.36466 0.0
H132 H 0.56164 0.79203 0.29766 0.0
H133 H 0.27083 0.50798 0.78035 0.0
C134 C 0.24981 0.47656 0.763 0.0
C135 C 0.26848 0.465 0.72236 0.0
C136 C 0.20648 0.44584 0.78325 0.0
H137 H 0.25699 0.41215 0.67252 0.0
C138 C 0.24232 0.42177 0.70239 0.0
C139 C 0.19889 0.39014 0.72065 0.0
C140 C 0.18147 0.40328 0.76072 0.0
C141 C 0.1934 0.45118 0.83184 0.0
H142 H 0.14892 0.37925 0.77576 0.0
C143 C 0.18031 0.48723 0.85285 0.0
C144 C 0.1658 0.48556 0.89894 0.0
C145 C 0.1928 0.41558 0.8582 0.0
H146 H 0.20329 0.38828 0.84471 0.0
C147 C 0.17814 0.41343 0.90177 0.0
H148 H 0.18121 0.51556 0.83376 0.0
C149 C 0.16424 0.4471 0.92145 0.0
H150 H 0.15155 0.44232 0.95507 0.0
H151 H 0.17706 0.38483 0.92058 0.0
Sm152 Sm 0.08765 0.12369 0.55786 0.0
Sm153 Sm 1.01799 0.10416 0.63047 0.0
C154 C 0.15196 0.15396 0.49357 0.0
C155 C 0.19318 0.19225 0.47654 0.0
C156 C 0.19074 0.23534 0.47305 0.0
C157 C 0.22975 0.26946 0.4531 0.0
C158 C 0.27139 0.26071 0.43654 0.0
C159 C 0.27434 0.2181 0.44201 0.0
C160 C 0.23562 0.18427 0.46173 0.0
C161 C 0.09916 0.06121 0.6123 0.0
C162 C 0.10776 0.20256 0.63953 0.0
C163 C 0.9562 0.07446 0.69671 0.0
C164 C 0.92298 0.03471 0.71934 0.0
C165 C 0.94265 1.01128 0.74775 0.0
C166 C 0.91096 0.97781 0.77369 0.0
C167 C 0.85909 0.96794 0.77269 0.0
C168 C 0.83923 0.99037 0.74332 0.0
C169 C 0.87094 1.02338 0.71677 0.0
C170 C 1.00383 0.16368 0.57377 0.0
C171 C 0.9952 1.02766 0.54569 0.0
O172 O 0.10638 0.15424 0.49237 0.0
O173 O 0.16183 0.13612 0.52869 0.0
O174 O 0.0924 0.0966 0.62584 0.0
O175 O 0.10237 0.05921 0.57007 0.0
O176 O 0.11625 0.19346 0.59798 0.0
O177 O 0.07516 0.17054 0.66229 0.0
O178 O 1.00451 0.08406 0.69961 0.0
O179 O 0.94172 0.08291 0.6584 0.0
O180 O 1.0108 0.12791 0.56188 0.0
O181 O 1.00451 0.16846 0.61612 0.0
O182 O 0.98557 0.03638 0.58711 0.0
O183 O 0.0304 0.05881 0.52413 0.0
H184 H 0.15845 0.2423 0.48475 0.0
H185 H 0.22686 0.30221 0.44963 0.0
H186 H 0.30557 0.21017 0.42909 0.0
H187 H 0.23816 0.15124 0.4642 0.0
H188 H 0.98262 1.01954 0.75091 0.0
H189 H 0.92724 0.96081 0.79586 0.0
H190 H 0.79956 0.98425 0.74256 0.0
H191 H 0.85487 0.04156 0.69575 0.0
Sm192 Sm 0.57318 0.12667 0.11036 0.0
Sm193 Sm 0.4867 0.11458 0.07487 0.0
C194 C 0.66329 0.1612 0.14706 0.0
C195 C 0.6815 0.17142 0.19237 0.0
C196 C 0.72487 0.20891 0.20188 0.0
C197 C 0.74136 0.22004 0.24531 0.0
C198 C 0.71467 0.19353 0.27941 0.0
C199 C 0.67107 0.15623 0.26989 0.0
C200 C 0.65426 0.14546 0.2266 0.0
C201 C 0.50826 0.04241 0.13942 0.0
C202 C 0.50135 0.1715 0.16265 0.0
C203 C 0.40007 0.09183 0.03201 0.0
C204 C 0.36455 0.05414 1.00669 0.0
C205 C 0.36507 1.01031 1.00895 0.0
C206 C 0.33606 0.97641 0.9794 0.0
C207 C 0.30692 0.98641 0.94731 0.0
C208 C 0.30454 1.02964 0.94674 0.0
C209 C 0.33307 0.06329 0.97644 0.0
C210 C 0.55605 0.1998 0.05165 0.0
C211 C 0.54983 0.06027 0.03006 0.0
O212 O 0.63896 0.18573 0.13299 0.0
O213 O 0.6419 0.11865 0.13565 0.0
O214 O 0.49639 0.07751 0.13648 0.0
O215 O 0.5541 0.05217 0.12736 0.0
O216 O 0.54739 0.1729 0.15761 0.0
O217 O 0.46616 0.14459 0.1369 0.0
O218 O 0.4036 0.0869 0.07405 0.0
O219 O 0.44336 0.11113 1.01377 0.0
O220 O 0.56361 0.16261 0.04922 0.0
O221 O 0.51301 0.19238 0.06952 0.0
O222 O 0.50467 0.05582 0.04273 0.0
O223 O 0.58711 0.09536 0.04535 0.0
H224 H 0.74582 0.22955 0.17575 0.0
H225 H 0.77533 0.24874 0.25225 0.0
H226 H 0.65007 0.13557 0.29598 0.0
H227 H 0.62007 0.11692 0.21987 0.0
H228 H 0.38957 1.00293 0.03204 0.0
H229 H 0.33879 0.94333 0.97973 0.0
H230 H 0.28261 0.0379 0.92182 0.0
H231 H 0.33252 0.09706 0.9743 0.0
Sm232 Sm 0.53268 0.58045 0.57194 0.0
Sm233 Sm 0.55341 0.65829 0.61934 0.0
C234 C 0.53868 0.50785 0.53064 0.0
C235 C 0.55495 0.47102 0.54348 0.0
C236 C 0.60028 0.48035 0.5664 0.0
C237 C 0.61625 0.44545 0.57724 0.0
C238 C 0.58713 0.4005 0.56571 0.0
C239 C 0.54095 0.39105 0.5441 0.0
C240 C 0.52514 0.42611 0.53286 0.0
C241 C 0.44785 0.57452 0.62169 0.0
C242 C 0.58477 0.58442 0.67157 0.0
C243 C 0.54824 0.73066 0.66167 0.0
C244 C 0.50687 0.74728 0.66892 0.0
C245 C 0.46867 0.72629 0.6987 0.0
C246 C 0.42815 0.74032 0.70353 0.0
C247 C 0.42496 0.77563 0.67884 0.0
C248 C 0.46307 0.79677 0.64914 0.0
C249 C 0.50384 0.78284 0.64438 0.0
C250 C 0.63867 0.66426 0.57072 0.0
C251 C 0.49699 0.65248 0.522 0.0
O252 O 0.5735 0.54781 0.52944 0.0
O253 O 0.4974 0.50875 0.548 0.0
O254 O 0.49306 0.59059 0.63513 0.0
O255 O 0.44737 0.56306 0.58023 0.0
O256 O 0.57244 0.56239 0.63303 0.0
O257 O 0.57992 0.62407 0.67599 0.0
O258 O 0.54486 0.69381 0.68106 0.0
O259 O 0.56408 0.7312 0.62146 0.0
O260 O 0.59366 0.64834 0.55671 0.0
O261 O 0.63865 0.67635 0.61182 0.0
O262 O 0.50317 0.67057 0.56256 0.0
O263 O 0.50962 0.61679 0.51502 0.0
H264 H 0.6238 0.51467 0.57556 0.0
H265 H 0.65202 0.45378 0.59381 0.0
H266 H 0.51718 0.35662 0.53572 0.0
H267 H 0.48979 0.41818 0.51566 0.0
H268 H 0.46974 0.69876 0.71815 0.0
H269 H 0.39954 0.72392 0.72709 0.0
H270 H 0.46119 0.82385 0.62945 0.0
H271 H 0.53268 0.7995 0.62111 0.0
Sm272 Sm 0.04143 0.5771 0.12386 0.0
Sm273 Sm 0.04561 0.65538 0.06559 0.0
C274 C 0.06123 0.50795 0.15345 0.0
C275 C 0.10724 0.49766 0.15299 0.0
C276 C 0.14947 0.52582 0.13112 0.0
C277 C 0.1945 0.51832 0.13287 0.0
C278 C 0.19818 0.4827 0.15688 0.0
C279 C 0.15578 0.45448 0.17878 0.0
C280 C 0.11053 0.46185 0.17672 0.0
C281 C 0.99638 0.62935 0.17261 0.0
C282 C 0.14231 0.67232 0.13241 0.0
C283 C 0.02646 0.72495 0.03636 0.0
C284 C 0.98273 0.73853 0.04025 0.0
C285 C 0.9369 0.70791 0.05471 0.0
C286 C 0.8938 0.71874 0.05341 0.0
C287 C 0.8961 0.76062 0.03829 0.0
C288 C 0.94252 0.79196 1.0257 0.0
C289 C 0.98552 0.78093 1.0266 0.0
C290 C 0.09156 0.60415 1.01674 0.0
C291 C 0.94354 0.56035 0.05859 0.0
O292 O 0.03999 0.50689 0.11516 0.0
O293 O 0.0636 0.54316 0.17807 0.0
O294 O 1.01462 0.63652 0.13397 0.0
O295 O 0.99914 0.59165 0.18485 0.0
O296 O 0.12234 0.62854 0.13958 0.0
O297 O 0.1189 0.69151 0.10676 0.0
O298 O 0.05202 0.72723 0.07247 0.0
O299 O 1.01904 0.68785 1.01297 0.0
O300 O 0.07312 0.59632 0.05532 0.0
O301 O 0.08785 0.64145 1.00449 0.0
O302 O 0.96523 0.60343 0.04903 0.0
O303 O 0.96542 0.54151 0.08616 0.0
H304 H 0.14783 0.55427 0.11354 0.0
H305 H 0.22682 0.54115 0.11648 0.0
H306 H 0.15774 0.42684 0.19758 0.0
H307 H 0.07843 0.44011 0.19421 0.0
H308 H 0.93415 0.67506 0.06564 0.0
H309 H 0.85847 0.69403 0.06316 0.0
H310 H 0.94512 0.82417 1.01313 0.0
H311 H 1.02054 0.80487 1.01523 0.0
C312 C 0.39561 0.32077 0.38328 0.0
C313 C 0.3811 0.33453 0.34385 0.0
C314 C 0.36034 0.30056 0.41539 0.0
C315 C 0.30931 0.29315 0.40902 0.0
H316 H 0.43401 0.32348 0.38827 0.0
H317 H 0.37257 0.28815 0.44423 0.0
S318 S 0.25281 0.32612 0.3128 0.0
N319 N 0.3129 0.3422 0.30148 0.0
N320 N 0.24667 0.30401 0.36173 0.0
C321 C 0.29495 0.30972 0.37118 0.0
C322 C 0.33085 0.3304 0.33854 0.0
C323 C 0.29191 0.93769 0.83177 0.0
C324 C 0.25199 0.89643 0.83499 0.0
C325 C 0.30882 0.96665 0.8685 0.0
C326 C 0.28671 0.955 0.90968 0.0
H327 H 0.31017 0.94757 0.80055 0.0
H328 H 0.33988 0.99817 0.86485 0.0
S329 S 0.18109 0.85081 0.93521 0.0
N330 N 0.19031 0.8453 0.882 0.0
N331 N 0.22308 0.89984 0.9519 0.0
C332 C 0.24683 0.91385 0.91348 0.0
C333 C 0.22907 0.88451 0.87577 0.0
C334 C 0.62939 0.56996 0.7893 0.0
C335 C 0.62388 0.5239 0.79105 0.0
C336 C 0.61874 0.5892 0.75071 0.0
C337 C 0.60136 0.56369 0.71103 0.0
H338 H 0.63955 0.59104 0.81907 0.0
H339 H 0.62257 0.62435 0.75267 0.0
S340 S 0.57968 0.44127 0.697 0.0
N341 N 0.59945 0.4534 0.7485 0.0
N342 N 0.58016 0.48889 0.67663 0.0
C343 C 0.59712 0.51783 0.71183 0.0
C344 C 0.60799 0.49825 0.75133 0.0
C345 C 0.93463 0.6693 0.27229 0.0
C346 C 0.93861 0.71368 0.26303 0.0
C347 C 0.95334 0.643 0.24313 0.0
C348 C 0.97677 0.6591 0.20261 0.0
H349 H 0.91517 0.65399 0.30153 0.0
H350 H 0.94844 0.60907 0.25222 0.0
S351 S 1.001 0.77432 0.16381 0.0
N352 N 0.97196 0.77339 0.21091 0.0
N353 N 1.00508 0.72405 0.15687 0.0
C354 C 0.98226 0.70376 0.19364 0.0
C355 C 0.96388 0.73076 0.22343 0.0
C356 C 0.43814 0.25192 0.20069 0.0
C357 C 0.47231 0.28085 0.23118 0.0
C358 C 0.44681 0.21522 0.18074 0.0
C359 C 0.49045 0.20631 0.19002 0.0
H360 H 0.40455 0.258 0.19191 0.0
H361 H 0.41973 0.19475 0.15656 0.0
S362 S 0.59003 0.27087 0.27019 0.0
N363 N 0.54974 0.29723 0.27217 0.0
N364 N 0.56713 0.2286 0.23374 0.0
C365 C 0.52439 0.23446 0.22152 0.0
C366 C 0.51505 0.27166 0.24235 0.0
C367 C 0.14598 0.97321 0.65106 0.0
C368 C 0.10169 0.9391 0.66404 0.0
C369 C 0.14577 1.01502 0.63827 0.0
C370 C 0.10167 1.02462 0.63918 0.0
H371 H 0.18043 0.96663 0.64824 0.0
H372 H 0.17974 0.03908 0.62522 0.0
S373 S 0.97669 0.94788 0.67324 0.0
N374 N 1.01321 0.91842 0.67908 0.0
N375 N 1.01324 0.99761 0.65628 0.0
C376 C 0.05788 0.99189 0.65463 0.0
C377 C 0.05778 0.94892 0.66673 0.0
C378 C 0.80977 0.47188 0.03799 0.0
C379 C 0.79759 0.47793 0.99394 0.0
C380 C 0.85646 0.49779 0.05832 0.0
C381 C 0.89366 0.53238 0.03646 0.0
H382 H 0.78271 0.44714 0.05765 0.0
H383 H 0.86302 0.49116 0.09197 0.0
S384 S 0.88456 0.56131 0.92027 0.0
N385 N 0.83061 0.52032 0.92857 0.0
N386 N 0.91567 0.57 0.96734 0.0
C387 C 0.88238 0.53903 0.99263 0.0
C388 C 0.83539 0.51188 0.97144 0.0
C389 C 0.74523 0.76001 0.51765 0.0
C390 C 0.77357 0.73841 0.49402 0.0
C391 C 0.70175 0.73581 0.54127 0.0
C392 C 0.68302 0.68836 0.54216 0.0
H393 H 0.75657 0.79637 0.51801 0.0
H394 H 0.68255 0.75466 0.55922 0.0
S395 S 0.74129 0.61393 0.48703 0.0
N396 N 0.77841 0.6652 0.47438 0.0
N397 N 0.69625 0.62036 0.51733 0.0
C398 C 0.70991 0.66592 0.51829 0.0
C399 C 0.75488 0.69061 0.49458 0.0
C400 C 0.31278 0.46852 0.20661 0.0
C401 C 0.34146 0.46633 0.16956 0.0
C402 C 0.26629 0.47328 0.20218 0.0
C403 C 0.24675 0.47621 0.16054 0.0
H404 H 0.32665 0.46707 0.2394 0.0
H405 H 0.24584 0.47545 0.23163 0.0
S406 S 0.30488 0.46872 0.05301 0.0
N407 N 0.34542 0.46489 0.08968 0.0
N408 N 0.25828 0.47442 0.08148 0.0
C409 C 0.27465 0.47357 0.1232 0.0
C410 C 0.32192 0.46851 0.12767 0.0
C411 C 0.66218 0.29672 0.99422 0.0
C412 C 0.64243 0.33156 0.99075 0.0
C413 C 0.63465 0.25434 1.01303 0.0
C414 C 0.58609 0.2446 0.03035 0.0
H415 H 0.69924 0.30205 0.98185 0.0
H416 H 0.65186 0.22917 1.01438 0.0
S417 S 0.51811 0.32495 0.03252 0.0
N418 N 0.57129 0.35294 1.00832 0.0
N419 N 0.52081 0.27545 0.04363 0.0
C420 C 0.56652 0.27958 1.02769 0.0
C421 C 0.59411 0.32216 1.00806 0.0
C422 C 0.96801 0.9152 0.47741 0.0
C423 C 0.91679 0.88992 0.48474 0.0
C424 C 0.99257 0.95952 0.49613 0.0
C425 C 0.96779 0.98114 0.52404 0.0
H426 H 0.98992 0.9004 0.45759 0.0
H427 H 0.03191 0.97657 0.48952 0.0
S428 S 0.83276 0.93406 0.55031 0.0
N429 N 0.84132 0.8943 0.51866 0.0
N430 N 0.8881 0.97464 0.55562 0.0
C431 C 0.91669 0.95692 0.53112 0.0
C432 C 0.89123 0.91245 0.51115 0.0
C433 C 0.2936 0.77292 0.69955 0.0
C434 C 0.3021 0.81783 0.71256 0.0
C435 C 0.33344 0.75978 0.68661 0.0
C436 C 0.38276 0.79127 0.68601 0.0
H437 H 0.25649 0.74748 0.70153 0.0
H438 H 0.32589 0.7245 0.67839 0.0
S439 S 0.42321 0.91385 0.71314 0.0
N440 N 0.36216 0.8945 0.72055 0.0
N441 N 0.4372 0.86973 0.69698 0.0
C442 C 0.39111 0.83674 0.69656 0.0
C443 C 0.35067 0.85004 0.7097 0.0
C444 C 0.8141 0.91881 0.88302 0.0
C445 C 0.76765 0.88507 0.873 0.0
C446 C 0.84314 0.94516 0.85022 0.0
C447 C 0.82705 0.93851 0.80604 0.0
H448 H 0.82799 0.92503 0.91663 0.0
H449 H 0.87832 0.97133 0.85972 0.0
S450 S 0.70848 0.85333 0.76277 0.0
N451 N 0.70653 0.84585 0.81631 0.0
N452 N 0.76181 0.89501 0.75389 0.0
C453 C 0.78045 0.90483 0.79555 0.0
C454 C 0.75057 0.87816 0.82924 0.0
C455 C 0.76597 0.17887 0.38914 0.0
C456 C 0.77152 0.21953 0.41205 0.0
C457 C 0.74702 0.17065 0.34622 0.0
C458 C 0.73369 0.20309 0.32478 0.0
H459 H 0.77594 0.15309 0.40471 0.0
H460 H 0.74321 0.13892 0.32949 0.0
S461 S 0.74057 0.3146 0.37057 0.0
N462 N 0.76173 0.29229 0.41065 0.0
N463 N 0.72649 0.27693 0.32921 0.0
C464 C 0.73901 0.24387 0.34719 0.0
C465 C 0.75774 0.25203 0.39116 0.0
C466 C 0.46888 0.74059 0.44957 0.0
C467 C 0.45545 0.71885 0.40748 0.0
C468 C 0.47946 0.71861 0.48653 0.0
C469 C 0.47873 0.67369 0.48367 0.0
H470 H 0.47418 0.776 0.45343 0.0
H471 H 0.49096 0.73803 0.51715 0.0
S472 S 0.44469 0.60056 0.38165 0.0
N473 N 0.44092 0.6486 0.36645 0.0
N474 N 0.4608 0.60799 0.43424 0.0
C475 C 0.46382 0.65119 0.44211 0.0
C476 C 0.45245 0.67341 0.4048 0.0
C477 C 0.16258 0.52786 0.97235 0.0
C478 C 0.15086 0.52074 0.92641 0.0
C479 C 0.14261 0.55312 1.00128 0.0
C480 C 0.11078 0.57458 0.98626 0.0
H481 H 0.18738 0.51313 0.98673 0.0
H482 H 0.15322 0.55661 0.03566 0.0
S483 S 0.06971 0.57078 0.8696 0.0
N484 N 0.10505 0.53961 0.86813 0.0
N485 N 0.0704 0.58884 0.92127 0.0
C486 C 0.10044 0.56982 0.94028 0.0
C487 C 0.11975 0.54294 0.91088 0.0
C488 C 0.60905 0.97261 1.01105 0.0
C489 C 0.5695 0.93572 0.99239 0.0
C490 C 0.60391 1.01431 1.01975 0.0
C491 C 0.55887 1.02063 1.01043 0.0
H492 H 0.64333 0.9686 1.02127 0.0
H493 H 0.63434 0.04073 0.03656 0.0
S494 S 0.44729 0.93742 0.95434 0.0
N495 N 0.48639 0.91029 0.95923 0.0
N496 N 0.47629 0.98833 0.97655 0.0
C497 C 0.52035 0.98508 0.98895 0.0
C498 C 0.52572 0.94271 0.97979 0.0
C499 C 0.9021 0.17332 0.50252 0.0
C500 C 0.89897 0.21416 0.51897 0.0
C501 C 0.93997 0.1588 0.51686 0.0
C502 C 0.97555 0.18475 0.5481 0.0
H503 H 0.87324 0.15106 0.48072 0.0
H504 H 0.93884 0.12557 0.50622 0.0
S505 S 0.9896 0.29818 0.59401 0.0
N506 N 0.93891 0.28331 0.56258 0.0
N507 N 1.01014 0.25591 0.58981 0.0
C508 C 0.97559 0.22748 0.56145 0.0
C509 C 0.93709 0.24219 0.54694 0.0
C510 C 0.24894 0.77483 0.18564 0.0
C511 C 0.28506 0.75734 0.20037 0.0
C512 C 0.20408 0.74768 0.16345 0.0
C513 C 0.19169 0.70092 0.15506 0.0
H514 H 0.25503 0.81019 0.19152 0.0
H515 H 0.17837 0.76358 0.15339 0.0
S516 S 0.27267 0.63703 0.18433 0.0
N517 N 0.30475 0.68906 0.20231 0.0
N518 N 0.22042 0.63845 0.1629 0.0
C519 C 0.22698 0.68266 0.16974 0.0
C520 C 0.27323 0.71049 0.19173 0.0
C521 C 0.35026 0.47685 0.68124 0.0
C522 C 0.31682 0.49564 0.7008 0.0
C523 C 0.39249 0.50266 0.65692 0.0
C524 C 0.40461 0.54913 0.65099 0.0
H525 H 0.34359 0.44135 0.68431 0.0
H526 H 0.41571 0.48578 0.6421 0.0
S527 S 0.33229 0.61673 0.696 0.0
N528 N 0.30095 0.56534 0.71266 0.0
N529 N 0.38045 0.61345 0.66804 0.0
C530 C 0.3729 0.56902 0.67134 0.0
C531 C 0.3294 0.5426 0.69598 0.0
C532 C 0.77279 0.75262 0.98745 0.0
C533 C 0.76987 0.79458 0.99963 0.0
C534 C 0.81187 0.74025 1.00308 0.0
C535 C 0.84971 0.7699 0.03066 0.0
H536 H 0.74679 0.73068 0.96332 0.0
H537 H 0.81452 0.7088 0.99084 0.0
S538 S 0.85562 0.88158 0.07543 0.0
N539 N 0.80515 0.864 0.04362 0.0
N540 N 0.87888 0.84098 0.07289 0.0
C541 C 0.84517 0.81061 0.04533 0.0
C542 C 0.80512 0.82291 0.0298 0.0
C543 C 0.48106 0.92708 0.19392 0.0
C544 C 0.42952 0.91077 0.20392 0.0
C545 C 0.50518 0.96906 0.17375 0.0
C546 C 0.47989 0.99834 0.16267 0.0
H547 H 0.50312 0.90663 0.20077 0.0
H548 H 0.54458 0.97853 0.16658 0.0
S549 S 0.34494 0.97381 0.18277 0.0
N550 N 0.35422 0.92923 0.20145 0.0
N551 N 0.39946 1.00736 0.16439 0.0
C552 C 0.42852 0.98301 0.17301 0.0
C553 C 0.4036 0.93979 0.19318 0.0
C554 C 0.15589 0.30358 0.72486 0.0
C555 C 0.17411 0.34248 0.69922 0.0
C556 C 0.135 0.25911 0.7057 0.0
C557 C 0.13156 0.25049 0.65962 0.0
H558 H 0.15849 0.30729 0.76036 0.0
H559 H 0.1219 0.23108 0.72744 0.0
S560 S 0.16826 0.33957 0.57672 0.0
N561 N 0.18244 0.36818 0.6242 0.0
N562 N 0.1456 0.28585 0.58894 0.0
C563 C 0.14881 0.28896 0.63355 0.0
C564 C 0.16934 0.33426 0.653 0.0
C565 C 0.65132 0.33231 0.62417 0.0
C566 C 0.65414 0.30142 0.59108 0.0
C567 C 0.628 0.3632 0.61616 0.0
C568 C 0.60643 0.36418 0.57487 0.0
H569 H 0.66897 0.33384 0.65593 0.0
H570 H 0.6279 0.38719 0.64223 0.0
S571 S 0.60084 0.28806 0.47815 0.0
N572 N 0.63028 0.27136 0.51648 0.0
N573 N 0.58797 0.33043 0.50095 0.0
C574 C 0.60735 0.3323 0.54202 0.0
C575 C 0.63088 0.30073 0.55023 0.0
loop_
_geom_bond_atom_site_label_1
_geom_bond_atom_site_label_2
_geom_bond_distance
_geom_bond_site_symmetry_2
_ccdc_geom_bond_type
H0 C1 0.949 . S
C1 H0 0.949 . S
C1 C2 1.395 . S
C1 C3 1.391 . S
C2 C1 1.395 . S
C2 C5 1.390 . S
C3 C1 1.391 . S
C3 C7 1.387 . S
C3 C8 1.491 . S
H4 C5 0.950 . S
C5 C2 1.390 . S
C5 H4 0.950 . S
C5 C6 1.378 . S
C6 C5 1.378 . S
C6 C7 1.409 . S
C7 C3 1.387 . S
C7 C6 1.409 . S
C7 H9 0.951 . S
C8 C3 1.491 . S
C8 C10 1.382 . S
C8 C12 1.404 . S
H9 C7 0.951 . S
C10 C8 1.382 . S
C10 C11 1.390 . S
C10 H15 0.949 . S
C11 C10 1.390 . S
C11 C16 1.399 . S
C12 C8 1.404 . S
C12 H13 0.950 . S
C12 C14 1.375 . S
H13 C12 0.950 . S
C14 C12 1.375 . S
C14 C16 1.382 . S
C14 H18 0.950 . S
H15 C10 0.949 . S
C16 C11 1.399 . S
C16 C14 1.382 . S
C16 H17 0.952 . S
H17 C16 0.952 . S
H18 C14 0.950 . S
H19 C20 0.949 . S
C20 H19 0.949 . S
C20 C21 1.395 . S
C20 C22 1.391 . S
C21 C20 1.395 . S
C21 C24 1.390 . S
C22 C20 1.391 . S
C22 C26 1.387 . S
C22 C27 1.491 . S
H23 C24 0.950 . S
C24 C21 1.390 . S
C24 H23 0.950 . S
C24 C25 1.378 . S
C25 C24 1.378 . S
C25 C26 1.409 . S
C26 C22 1.387 . S
C26 C25 1.409 . S
C26 H28 0.951 . S
C27 C22 1.491 . S
C27 C29 1.382 . S
C27 C31 1.404 . S
H28 C26 0.951 . S
C29 C27 1.382 . S
C29 C30 1.390 . S
C29 H34 0.949 . S
C30 C29 1.390 . S
C30 C35 1.399 . S
C31 C27 1.404 . S
C31 H32 0.950 . S
C31 C33 1.375 . S
H32 C31 0.950 . S
C33 C31 1.375 . S
C33 C35 1.382 . S
C33 H37 0.950 . S
H34 C29 0.949 . S
C35 C30 1.399 . S
C35 C33 1.382 . S
C35 H36 0.952 . S
H36 C35 0.952 . S
H37 C33 0.950 . S
H38 C39 0.949 . S
C39 H38 0.949 . S
C39 C40 1.395 . S
C39 C41 1.391 . S
C40 C39 1.395 . S
C40 C43 1.390 . S
C41 C39 1.391 . S
C41 C45 1.387 . S
C41 C46 1.491 . S
H42 C43 0.950 . S
C43 C40 1.390 . S
C43 H42 0.950 . S
C43 C44 1.378 . S
C44 C43 1.378 . S
C44 C45 1.409 . S
C45 C41 1.387 . S
C45 C44 1.409 . S
C45 H47 0.951 . S
C46 C41 1.491 . S
C46 C48 1.382 . S
C46 C50 1.404 . S
H47 C45 0.951 . S
C48 C46 1.382 . S
C48 C49 1.390 . S
C48 H53 0.949 . S
C49 C48 1.390 . S
C49 C54 1.399 . S
C50 C46 1.404 . S
C50 H51 0.950 . S
C50 C52 1.375 . S
H51 C50 0.950 . S
C52 C50 1.375 . S
C52 C54 1.382 . S
C52 H56 0.950 . S
H53 C48 0.949 . S
C54 C49 1.399 . S
C54 C52 1.382 . S
C54 H55 0.952 . S
H55 C54 0.952 . S
H56 C52 0.950 . S
H57 C58 0.949 . S
C58 H57 0.949 . S
C58 C59 1.395 . S
C58 C60 1.391 . S
C59 C58 1.395 . S
C59 C62 1.390 . S
C60 C58 1.391 . S
C60 C64 1.387 . S
C60 C65 1.491 . S
H61 C62 0.950 . S
C62 C59 1.390 . S
C62 H61 0.950 . S
C62 C63 1.378 . S
C63 C62 1.378 . S
C63 C64 1.409 . S
C64 C60 1.387 . S
C64 C63 1.409 . S
C64 H66 0.951 . S
C65 C60 1.491 . S
C65 C67 1.382 . S
C65 C69 1.404 . S
H66 C64 0.951 . S
C67 C65 1.382 . S
C67 C68 1.390 . S
C67 H72 0.949 . S
C68 C67 1.390 . S
C68 C73 1.399 . S
C69 C65 1.404 . S
C69 H70 0.950 . S
C69 C71 1.375 . S
H70 C69 0.950 . S
C71 C69 1.375 . S
C71 C73 1.382 . S
C71 H75 0.950 . S
H72 C67 0.949 . S
C73 C68 1.399 . S
C73 C71 1.382 . S
C73 H74 0.952 . S
H74 C73 0.952 . S
H75 C71 0.950 . S
H76 C77 0.949 . S
C77 H76 0.949 . S
C77 C78 1.395 . S
C77 C79 1.391 . S
C78 C77 1.395 . S
C78 C81 1.390 . S
C79 C77 1.391 . S
C79 C83 1.387 . S
C79 C84 1.491 . S
H80 C81 0.950 . S
C81 C78 1.390 . S
C81 H80 0.950 . S
C81 C82 1.378 . S
C82 C81 1.378 . S
C82 C83 1.409 . S
C83 C79 1.387 . S
C83 C82 1.409 . S
C83 H85 0.951 . S
C84 C79 1.491 . S
C84 C86 1.382 . S
C84 C88 1.404 . S
H85 C83 0.951 . S
C86 C84 1.382 . S
C86 C87 1.390 . S
C86 H91 0.949 . S
C87 C86 1.390 . S
C87 C92 1.399 . S
C88 C84 1.404 . S
C88 H89 0.950 . S
C88 C90 1.375 . S
H89 C88 0.950 . S
C90 C88 1.375 . S
C90 C92 1.382 . S
C90 H94 0.950 . S
H91 C86 0.949 . S
C92 C87 1.399 . S
C92 C90 1.382 . S
C92 H93 0.952 . S
H93 C92 0.952 . S
H94 C90 0.950 . S
H95 C96 0.949 . S
C96 H95 0.949 . S
C96 C97 1.395 . S
C96 C98 1.391 . S
C97 C96 1.395 . S
C97 C100 1.390 . S
C98 C96 1.391 . S
C98 C102 1.387 . S
C98 C103 1.491 . S
H99 C100 0.950 . S
C100 C97 1.390 . S
C100 H99 0.950 . S
C100 C101 1.378 . S
C101 C100 1.378 . S
C101 C102 1.409 . S
C102 C98 1.387 . S
C102 C101 1.409 . S
C102 H104 0.951 . S
C103 C98 1.491 . S
C103 C105 1.382 . S
C103 C107 1.404 . S
H104 C102 0.951 . S
C105 C103 1.382 . S
C105 C106 1.390 . S
C105 H110 0.949 . S
C106 C105 1.390 . S
C106 C111 1.399 . S
C107 C103 1.404 . S
C107 H108 0.950 . S
C107 C109 1.375 . S
H108 C107 0.950 . S
C109 C107 1.375 . S
C109 C111 1.382 . S
C109 H113 0.950 . S
H110 C105 0.949 . S
C111 C106 1.399 . S
C111 C109 1.382 . S
C111 H112 0.952 . S
H112 C111 0.952 . S
H113 C109 0.950 . S
H114 C115 0.949 . S
C115 H114 0.949 . S
C115 C116 1.395 . S
C115 C117 1.391 . S
C116 C115 1.395 . S
C116 C119 1.390 . S
C117 C115 1.391 . S
C117 C121 1.387 . S
C117 C122 1.491 . S
H118 C119 0.950 . S
C119 C116 1.390 . S
C119 H118 0.950 . S
C119 C120 1.378 . S
C120 C119 1.378 . S
C120 C121 1.409 . S
C121 C117 1.387 . S
C121 C120 1.409 . S
C121 H123 0.951 . S
C122 C117 1.491 . S
C122 C124 1.382 . S
C122 C126 1.404 . S
H123 C121 0.951 . S
C124 C122 1.382 . S
C124 C125 1.390 . S
C124 H129 0.949 . S
C125 C124 1.390 . S
C125 C130 1.399 . S
C126 C122 1.404 . S
C126 H127 0.950 . S
C126 C128 1.375 . S
H127 C126 0.950 . S
C128 C126 1.375 . S
C128 C130 1.382 . S
C128 H132 0.950 . S
H129 C124 0.949 . S
C130 C125 1.399 . S
C130 C128 1.382 . S
C130 H131 0.952 . S
H131 C130 0.952 . S
H132 C128 0.950 . S
H133 C134 0.949 . S
C134 H133 0.949 . S
C134 C135 1.395 . S
C134 C136 1.391 . S
C135 C134 1.395 . S
C135 C138 1.390 . S
C136 C134 1.391 . S
C136 C140 1.387 . S
C136 C141 1.491 . S
H137 C138 0.950 . S
C138 C135 1.390 . S
C138 H137 0.950 . S
C138 C139 1.378 . S
C139 C138 1.378 . S
C139 C140 1.409 . S
C140 C136 1.387 . S
C140 C139 1.409 . S
C140 H142 0.951 . S
C141 C136 1.491 . S
C141 C143 1.382 . S
C141 C145 1.404 . S
H142 C140 0.951 . S
C143 C141 1.382 . S
C143 C144 1.390 . S
C143 H148 0.949 . S
C144 C143 1.390 . S
C144 C149 1.399 . S
C145 C141 1.404 . S
C145 H146 0.950 . S
C145 C147 1.375 . S
H146 C145 0.950 . S
C147 C145 1.375 . S
C147 C149 1.382 . S
C147 H151 0.950 . S
H148 C143 0.949 . S
C149 C144 1.399 . S
C149 C147 1.382 . S
C149 H150 0.952 . S
H150 C149 0.952 . S
H151 C147 0.950 . S
Sm152 C154 2.846 . S
Sm152 O172 2.543 . S
Sm152 O173 2.450 . S
Sm152 O174 2.681 . S
Sm152 O175 2.464 . S
Sm152 O176 2.396 . S
Sm152 O180 2.386 1_455 S
Sm152 O183 2.408 1_445 S
Sm153 C163 2.846 1_545 S
Sm153 O174 2.386 1_655 S
Sm153 O177 2.408 1_655 S
Sm153 O178 2.543 1_545 S
Sm153 O179 2.450 1_545 S
Sm153 O180 2.681 . S
Sm153 O181 2.464 . S
Sm153 O182 2.396 1_545 S
C154 Sm152 2.846 . S
C154 C155 1.506 . S
C154 O172 1.261 . S
C154 O173 1.242 . S
C155 C154 1.506 . S
C155 C156 1.358 . S
C155 C160 1.382 . S
C156 C155 1.358 . S
C156 C157 1.385 . S
C156 H184 0.930 . S
C157 C156 1.385 . S
C157 C158 1.395 . S
C157 H185 0.929 . S
C158 C157 1.395 . S
C158 C159 1.335 . S
C159 C158 1.335 . S
C159 C160 1.398 . S
C159 H186 0.930 . S
C160 C155 1.382 . S
C160 C159 1.398 . S
C160 H187 0.929 . S
C161 O174 1.271 . S
C161 O175 1.251 . S
C162 O176 1.252 . S
C162 O177 1.272 . S
C163 Sm153 2.846 1_565 S
C163 C164 1.506 . S
C163 O178 1.261 . S
C163 O179 1.242 . S
C164 C163 1.506 . S
C164 C165 1.358 . S
C164 C169 1.382 . S
C165 C164 1.358 . S
C165 C166 1.385 . S
C165 H188 0.930 . S
C166 C165 1.385 . S
C166 C167 1.395 . S
C166 H189 0.929 . S
C167 C166 1.395 . S
C167 C168 1.335 . S
C168 C167 1.335 . S
C168 C169 1.398 . S
C168 H190 0.930 . S
C169 C164 1.382 . S
C169 C168 1.398 . S
C169 H191 0.929 . S
C170 O180 1.271 . S
C170 O181 1.251 . S
C171 O182 1.252 . S
C171 O183 1.272 . S
O172 Sm152 2.543 . S
O172 C154 1.261 . S
O173 Sm152 2.450 . S
O173 C154 1.242 . S
O174 Sm152 2.681 . S
O174 Sm153 2.386 1_455 S
O174 C161 1.271 . S
O175 Sm152 2.464 . S
O175 C161 1.251 . S
O176 Sm152 2.396 . S
O176 C162 1.252 . S
O177 Sm153 2.408 1_455 S
O177 C162 1.272 . S
O178 Sm153 2.543 1_565 S
O178 C163 1.261 . S
O179 Sm153 2.450 1_565 S
O179 C163 1.242 . S
O180 Sm152 2.386 1_655 S
O180 Sm153 2.681 . S
O180 C170 1.271 . S
O181 Sm153 2.464 . S
O181 C170 1.251 . S
O182 Sm153 2.396 1_565 S
O182 C171 1.252 . S
O183 Sm152 2.408 1_665 S
O183 C171 1.272 . S
H184 C156 0.930 . S
H185 C157 0.929 . S
H186 C159 0.930 . S
H187 C160 0.929 . S
H188 C165 0.930 . S
H189 C166 0.929 . S
H190 C168 0.930 . S
H191 C169 0.929 . S
Sm192 C194 2.846 . S
Sm192 O212 2.543 . S
Sm192 O213 2.450 . S
Sm192 O214 2.681 1_545 S
Sm192 O215 2.464 1_545 S
Sm192 O216 2.396 . S
Sm192 O220 2.386 . S
Sm192 O223 2.408 . S
Sm193 C203 2.846 1_544 S
Sm193 O214 2.384 1_545 S
Sm193 O217 2.408 . S
Sm193 O218 2.543 1_545 S
Sm193 O219 2.450 1_554 S
Sm193 O220 2.681 . S
Sm193 O221 2.464 . S
Sm193 O222 2.396 . S
C194 Sm192 2.846 . S
C194 C195 1.506 . S
C194 O212 1.261 . S
C194 O213 1.242 . S
C195 C194 1.506 . S
C195 C196 1.358 . S
C195 C200 1.382 . S
C196 C195 1.358 . S
C196 C197 1.385 . S
C196 H224 0.930 . S
C197 C196 1.385 . S
C197 C198 1.395 . S
C197 H225 0.929 . S
C198 C197 1.395 . S
C198 C199 1.335 . S
C199 C198 1.335 . S
C199 C200 1.398 . S
C199 H226 0.930 . S
C200 C195 1.382 . S
C200 C199 1.398 . S
C200 H227 0.929 . S
C201 O214 1.273 . S
C201 O215 1.251 . S
C202 O216 1.252 . S
C202 O217 1.272 . S
C203 Sm193 2.846 1_566 S
C203 C204 1.506 . S
C203 O218 1.261 1_556 S
C203 O219 1.242 1_565 S
C204 C203 1.506 . S
C204 C205 1.358 . S
C204 C209 1.382 . S
C205 C204 1.358 . S
C205 C206 1.385 . S
C205 H228 0.930 . S
C206 C205 1.385 . S
C206 C207 1.395 . S
C206 H229 0.929 . S
C207 C206 1.395 . S
C207 C208 1.335 . S
C208 C207 1.335 . S
C208 C209 1.398 . S
C208 H230 0.930 . S
C209 C204 1.382 . S
C209 C208 1.398 . S
C209 H231 0.929 1_565 S
C210 O220 1.271 . S
C210 O221 1.251 . S
C211 O222 1.252 1_565 S
C211 O223 1.272 1_565 S
O212 Sm192 2.543 . S
O212 C194 1.261 . S
O213 Sm192 2.450 . S
O213 C194 1.242 . S
O214 Sm192 2.681 1_565 S
O214 Sm193 2.384 1_565 S
O214 C201 1.273 . S
O215 Sm192 2.464 1_565 S
O215 C201 1.251 . S
O216 Sm192 2.396 . S
O216 C202 1.252 . S
O217 Sm193 2.408 . S
O217 C202 1.272 . S
O218 Sm193 2.543 1_565 S
O218 C203 1.261 1_554 S
O219 Sm193 2.450 1_556 S
O219 C203 1.242 1_545 S
O220 Sm192 2.386 . S
O220 Sm193 2.681 . S
O220 C210 1.271 . S
O221 Sm193 2.464 . S
O221 C210 1.251 . S
O222 Sm193 2.396 . S
O222 C211 1.252 1_545 S
O223 Sm192 2.408 . S
O223 C211 1.272 1_545 S
H224 C196 0.930 . S
H225 C197 0.929 . S
H226 C199 0.930 . S
H227 C200 0.929 . S
H228 C205 0.930 . S
H229 C206 0.929 . S
H230 C208 0.930 . S
H231 C209 0.929 1_545 S
Sm232 C234 2.846 . S
Sm232 O252 2.543 . S
Sm232 O253 2.450 . S
Sm232 O254 2.681 . S
Sm232 O255 2.464 . S
Sm232 O256 2.396 . S
Sm232 O260 2.386 . S
Sm232 O263 2.408 . S
Sm233 C243 2.846 . S
Sm233 O254 2.386 . S
Sm233 O257 2.408 . S
Sm233 O258 2.543 . S
Sm233 O259 2.450 . S
Sm233 O260 2.681 . S
Sm233 O261 2.464 . S
Sm233 O262 2.396 . S
C234 Sm232 2.846 . S
C234 C235 1.506 . S
C234 O252 1.261 . S
C234 O253 1.242 . S
C235 C234 1.506 . S
C235 C236 1.358 . S
C235 C240 1.382 . S
C236 C235 1.358 . S
C236 C237 1.385 . S
C236 H264 0.930 . S
C237 C236 1.385 . S
C237 C238 1.395 . S
C237 H265 0.929 . S
C238 C237 1.395 . S
C238 C239 1.335 . S
C239 C238 1.335 . S
C239 C240 1.398 . S
C239 H266 0.930 . S
C240 C235 1.382 . S
C240 C239 1.398 . S
C240 H267 0.929 . S
C241 O254 1.271 . S
C241 O255 1.251 . S
C242 O256 1.252 . S
C242 O257 1.272 . S
C243 Sm233 2.846 . S
C243 C244 1.506 . S
C243 O258 1.261 . S
C243 O259 1.242 . S
C244 C243 1.506 . S
C244 C245 1.358 . S
C244 C249 1.382 . S
C245 C244 1.358 . S
C245 C246 1.385 . S
C245 H268 0.930 . S
C246 C245 1.385 . S
C246 C247 1.395 . S
C246 H269 0.929 . S
C247 C246 1.395 . S
C247 C248 1.335 . S
C248 C247 1.335 . S
C248 C249 1.398 . S
C248 H270 0.930 . S
C249 C244 1.382 . S
C249 C248 1.398 . S
C249 H271 0.929 . S
C250 O260 1.271 . S
C250 O261 1.251 . S
C251 O262 1.252 . S
C251 O263 1.272 . S
O252 Sm232 2.543 . S
O252 C234 1.261 . S
O253 Sm232 2.450 . S
O253 C234 1.242 . S
O254 Sm232 2.681 . S
O254 Sm233 2.386 . S
O254 C241 1.271 . S
O255 Sm232 2.464 . S
O255 C241 1.251 . S
O256 Sm232 2.396 . S
O256 C242 1.252 . S
O257 Sm233 2.408 . S
O257 C242 1.272 . S
O258 Sm233 2.543 . S
O258 C243 1.261 . S
O259 Sm233 2.450 . S
O259 C243 1.242 . S
O260 Sm232 2.386 . S
O260 Sm233 2.681 . S
O260 C250 1.271 . S
O261 Sm233 2.464 . S
O261 C250 1.251 . S
O262 Sm233 2.396 . S
O262 C251 1.252 . S
O263 Sm232 2.408 . S
O263 C251 1.272 . S
H264 C236 0.930 . S
H265 C237 0.929 . S
H266 C239 0.930 . S
H267 C240 0.929 . S
H268 C245 0.930 . S
H269 C246 0.929 . S
H270 C248 0.930 . S
H271 C249 0.929 . S
Sm272 C274 2.846 . S
Sm272 O292 2.543 . S
Sm272 O293 2.450 . S
Sm272 O294 2.681 . S
Sm272 O295 2.464 . S
Sm272 O296 2.396 . S
Sm272 O300 2.396 . S
Sm272 O303 2.408 1_455 S
Sm273 C283 2.846 1_454 S
Sm273 O294 2.386 . S
Sm273 O297 2.408 . S
Sm273 O298 2.543 1_455 S
Sm273 O299 2.450 1_554 S
Sm273 O300 2.681 . S
Sm273 O301 2.464 1_554 S
Sm273 O302 2.396 1_454 S
C274 Sm272 2.846 . S
C274 C275 1.506 . S
C274 O292 1.261 . S
C274 O293 1.242 . S
C275 C274 1.506 . S
C275 C276 1.358 . S
C275 C280 1.382 . S
C276 C275 1.358 . S
C276 C277 1.385 . S
C276 H304 0.930 . S
C277 C276 1.385 . S
C277 C278 1.395 . S
C277 H305 0.929 . S
C278 C277 1.395 . S
C278 C279 1.335 . S
C279 C278 1.335 . S
C279 C280 1.398 . S
C279 H306 0.930 . S
C280 C275 1.382 . S
C280 C279 1.398 . S
C280 H307 0.929 . S
C281 O294 1.271 1_655 S
C281 O295 1.251 1_655 S
C282 O296 1.252 . S
C282 O297 1.272 . S
C283 Sm273 2.846 1_656 S
C283 C284 1.506 . S
C283 O298 1.261 1_556 S
C283 O299 1.242 1_655 S
C284 C283 1.506 . S
C284 C285 1.358 . S
C284 C289 1.382 . S
C285 C284 1.358 . S
C285 C286 1.385 . S
C285 H308 0.930 . S
C286 C285 1.385 . S
C286 C287 1.395 . S
C286 H309 0.929 . S
C287 C286 1.395 . S
C287 C288 1.335 . S
C288 C287 1.335 . S
C288 C289 1.398 . S
C288 H310 0.930 . S
C289 C284 1.382 . S
C289 C288 1.398 . S
C289 H311 0.929 . S
C290 O300 1.260 1_556 S
C290 O301 1.251 . S
C291 O302 1.252 . S
C291 O303 1.272 1_556 S
O292 Sm272 2.543 . S
O292 C274 1.261 . S
O293 Sm272 2.450 . S
O293 C274 1.242 . S
O294 Sm272 2.681 . S
O294 Sm273 2.386 . S
O294 C281 1.271 1_455 S
O295 Sm272 2.464 . S
O295 C281 1.251 1_455 S
O296 Sm272 2.396 . S
O296 C282 1.252 . S
O297 Sm273 2.408 . S
O297 C282 1.272 . S
O298 Sm273 2.543 1_655 S
O298 C283 1.261 1_554 S
O299 Sm273 2.450 1_556 S
O299 C283 1.242 1_455 S
O300 Sm272 2.396 . S
O300 Sm273 2.681 . S
O300 C290 1.260 1_554 S
O301 Sm273 2.464 1_556 S
O301 C290 1.251 . S
O302 Sm273 2.396 1_656 S
O302 C291 1.252 . S
O303 Sm272 2.408 1_655 S
O303 C291 1.272 1_554 S
H304 C276 0.930 . S
H305 C277 0.929 . S
H306 C279 0.930 . S
H307 C280 0.929 . S
H308 C285 0.930 . S
H309 C286 0.929 . S
H310 C288 0.930 . S
H311 C289 0.929 . S
C312 C313 1.369 . S
C312 C314 1.419 . S
C312 H316 0.930 . S
C313 C312 1.369 . S
C313 C322 1.429 . S
C314 C312 1.419 . S
C314 C315 1.363 . S
C314 H317 0.929 . S
C315 C314 1.363 . S
C315 C321 1.428 . S
H316 C312 0.930 . S
H317 C314 0.929 . S
S318 N319 1.613 . S
S318 N320 1.610 . S
N319 S318 1.613 . S
N319 C322 1.350 . S
N320 S318 1.610 . S
N320 C321 1.351 . S
C321 C315 1.428 . S
C321 N320 1.351 . S
C321 C322 1.434 . S
C322 C313 1.429 . S
C322 N319 1.350 . S
C322 C321 1.434 . S
C323 C324 1.369 . S
C323 C325 1.419 . S
C323 H327 0.930 . S
C324 C323 1.369 . S
C324 C333 1.429 . S
C325 C323 1.419 . S
C325 C326 1.363 . S
C325 H328 0.929 . S
C326 C325 1.363 . S
C326 C332 1.428 . S
H327 C323 0.930 . S
H328 C325 0.929 . S
S329 N330 1.613 . S
S329 N331 1.610 . S
N330 S329 1.613 . S
N330 C333 1.350 . S
N331 S329 1.610 . S
N331 C332 1.351 . S
C332 C326 1.428 . S
C332 N331 1.351 . S
C332 C333 1.434 . S
C333 C324 1.429 . S
C333 N330 1.350 . S
C333 C332 1.434 . S
C334 C335 1.369 . S
C334 C336 1.419 . S
C334 H338 0.930 . S
C335 C334 1.369 . S
C335 C344 1.429 . S
C336 C334 1.419 . S
C336 C337 1.363 . S
C336 H339 0.929 . S
C337 C336 1.363 . S
C337 C343 1.428 . S
H338 C334 0.930 . S
H339 C336 0.929 . S
S340 N341 1.613 . S
S340 N342 1.610 . S
N341 S340 1.613 . S
N341 C344 1.350 . S
N342 S340 1.610 . S
N342 C343 1.351 . S
C343 C337 1.428 . S
C343 N342 1.351 . S
C343 C344 1.434 . S
C344 C335 1.429 . S
C344 N341 1.350 . S
C344 C343 1.434 . S
C345 C346 1.369 . S
C345 C347 1.419 . S
C345 H349 0.930 . S
C346 C345 1.369 . S
C346 C355 1.429 . S
C347 C345 1.419 . S
C347 C348 1.363 . S
C347 H350 0.929 1_655 S
C348 C347 1.363 . S
C348 C354 1.428 . S
H349 C345 0.930 . S
H350 C347 0.929 1_455 S
S351 N352 1.613 . S
S351 N353 1.610 . S
N352 S351 1.613 . S
N352 C355 1.350 . S
N353 S351 1.610 . S
N353 C354 1.351 . S
C354 C348 1.428 . S
C354 N353 1.351 . S
C354 C355 1.434 . S
C355 C346 1.429 . S
C355 N352 1.350 . S
C355 C354 1.434 . S
C356 C357 1.369 . S
C356 C358 1.419 . S
C356 H360 0.930 . S
C357 C356 1.369 . S
C357 C366 1.429 . S
C358 C356 1.419 . S
C358 C359 1.363 . S
C358 H361 0.929 . S
C359 C358 1.363 . S
C359 C365 1.428 . S
H360 C356 0.930 . S
H361 C358 0.929 . S
S362 N363 1.613 . S
S362 N364 1.610 . S
N363 S362 1.613 . S
N363 C366 1.350 . S
N364 S362 1.610 . S
N364 C365 1.351 . S
C365 C359 1.428 . S
C365 N364 1.351 . S
C365 C366 1.434 . S
C366 C357 1.429 . S
C366 N363 1.350 . S
C366 C365 1.434 . S
C367 C368 1.369 . S
C367 C369 1.419 1_565 S
C367 H371 0.930 . S
C368 C367 1.369 . S
C368 C377 1.429 . S
C369 C367 1.419 1_545 S
C369 C370 1.363 . S
C369 H372 0.929 . S
C370 C369 1.363 . S
C370 C376 1.428 1_545 S
H371 C367 0.930 . S
H372 C369 0.929 . S
S373 N374 1.613 1_655 S
S373 N375 1.610 . S
N374 S373 1.613 1_455 S
N374 C377 1.350 . S
N375 S373 1.610 . S
N375 C376 1.351 1_655 S
C376 C370 1.428 1_565 S
C376 N375 1.351 1_455 S
C376 C377 1.434 . S
C377 C368 1.429 . S
C377 N374 1.350 . S
C377 C376 1.434 . S
C378 C379 1.369 . S
C378 C380 1.419 1_556 S
C378 H382 0.930 1_556 S
C379 C378 1.369 . S
C379 C388 1.429 . S
C380 C378 1.419 1_554 S
C380 C381 1.363 1_554 S
C380 H383 0.929 . S
C381 C380 1.363 1_556 S
C381 C387 1.428 . S
H382 C378 0.930 1_554 S
H383 C380 0.929 . S
S384 N385 1.613 . S
S384 N386 1.610 . S
N385 S384 1.613 . S
N385 C388 1.350 . S
N386 S384 1.610 . S
N386 C387 1.351 . S
C387 C381 1.428 . S
C387 N386 1.351 . S
C387 C388 1.434 . S
C388 C379 1.429 . S
C388 N385 1.350 . S
C388 C387 1.434 . S
C389 C390 1.369 . S
C389 C391 1.419 . S
C389 H393 0.930 . S
C390 C389 1.369 . S
C390 C399 1.429 . S
C391 C389 1.419 . S
C391 C392 1.363 . S
C391 H394 0.929 . S
C392 C391 1.363 . S
C392 C398 1.428 . S
H393 C389 0.930 . S
H394 C391 0.929 . S
S395 N396 1.613 . S
S395 N397 1.610 . S
N396 S395 1.613 . S
N396 C399 1.350 . S
N397 S395 1.610 . S
N397 C398 1.351 . S
C398 C392 1.428 . S
C398 N397 1.351 . S
C398 C399 1.434 . S
C399 C390 1.429 . S
C399 N396 1.350 . S
C399 C398 1.434 . S
C400 C401 1.369 . S
C400 C402 1.419 . S
C400 H404 0.930 . S
C401 C400 1.369 . S
C401 C410 1.429 . S
C402 C400 1.419 . S
C402 C403 1.363 . S
C402 H405 0.929 . S
C403 C402 1.363 . S
C403 C409 1.428 . S
H404 C400 0.930 . S
H405 C402 0.929 . S
S406 N407 1.613 . S
S406 N408 1.610 . S
N407 S406 1.613 . S
N407 C410 1.350 . S
N408 S406 1.610 . S
N408 C409 1.351 . S
C409 C403 1.428 . S
C409 N408 1.351 . S
C409 C410 1.434 . S
C410 C401 1.429 . S
C410 N407 1.350 . S
C410 C409 1.434 . S
C411 C412 1.369 . S
C411 C413 1.419 . S
C411 H415 0.930 . S
C412 C411 1.369 . S
C412 C421 1.429 1_556 S
C413 C411 1.419 . S
C413 C414 1.363 1_556 S
C413 H416 0.929 . S
C414 C413 1.363 1_554 S
C414 C420 1.428 . S
H415 C411 0.930 . S
H416 C413 0.929 . S
S417 N418 1.613 . S
S417 N419 1.610 . S
N418 S417 1.613 . S
N418 C421 1.350 . S
N419 S417 1.610 . S
N419 C420 1.351 . S
C420 C414 1.428 . S
C420 N419 1.351 . S
C420 C421 1.434 . S
C421 C412 1.429 1_554 S
C421 N418 1.350 . S
C421 C420 1.434 . S
C422 C423 1.369 . S
C422 C424 1.419 . S
C422 H426 0.930 . S
C423 C422 1.369 . S
C423 C432 1.429 . S
C424 C422 1.419 . S
C424 C425 1.363 . S
C424 H427 0.929 . S
C425 C424 1.363 . S
C425 C431 1.428 . S
H426 C422 0.930 . S
H427 C424 0.929 . S
S428 N429 1.613 . S
S428 N430 1.610 . S
N429 S428 1.613 . S
N429 C432 1.350 . S
N430 S428 1.610 . S
N430 C431 1.351 . S
C431 C425 1.428 . S
C431 N430 1.351 . S
C431 C432 1.434 . S
C432 C423 1.429 . S
C432 N429 1.350 . S
C432 C431 1.434 . S
C433 C434 1.369 . S
C433 C435 1.419 . S
C433 H437 0.930 . S
C434 C433 1.369 . S
C434 C443 1.429 . S
C435 C433 1.419 . S
C435 C436 1.363 . S
C435 H438 0.929 . S
C436 C435 1.363 . S
C436 C442 1.428 . S
H437 C433 0.930 . S
H438 C435 0.929 . S
S439 N440 1.613 . S
S439 N441 1.610 . S
N440 S439 1.613 . S
N440 C443 1.350 . S
N441 S439 1.610 . S
N441 C442 1.351 . S
C442 C436 1.428 . S
C442 N441 1.351 . S
C442 C443 1.434 . S
C443 C434 1.429 . S
C443 N440 1.350 . S
C443 C442 1.434 . S
C444 C445 1.369 . S
C444 C446 1.419 . S
C444 H448 0.930 . S
C445 C444 1.369 . S
C445 C454 1.429 . S
C446 C444 1.419 . S
C446 C447 1.363 . S
C446 H449 0.929 . S
C447 C446 1.363 . S
C447 C453 1.428 . S
H448 C444 0.930 . S
H449 C446 0.929 . S
S450 N451 1.613 . S
S450 N452 1.610 . S
N451 S450 1.613 . S
N451 C454 1.350 . S
N452 S450 1.610 . S
N452 C453 1.351 . S
C453 C447 1.428 . S
C453 N452 1.351 . S
C453 C454 1.434 . S
C454 C445 1.429 . S
C454 N451 1.350 . S
C454 C453 1.434 . S
C455 C456 1.369 . S
C455 C457 1.419 . S
C455 H459 0.930 . S
C456 C455 1.369 . S
C456 C465 1.429 . S
C457 C455 1.419 . S
C457 C458 1.363 . S
C457 H460 0.929 . S
C458 C457 1.363 . S
C458 C464 1.428 . S
H459 C455 0.930 . S
H460 C457 0.929 . S
S461 N462 1.613 . S
S461 N463 1.610 . S
N462 S461 1.613 . S
N462 C465 1.350 . S
N463 S461 1.610 . S
N463 C464 1.351 . S
C464 C458 1.428 . S
C464 N463 1.351 . S
C464 C465 1.434 . S
C465 C456 1.429 . S
C465 N462 1.350 . S
C465 C464 1.434 . S
C466 C467 1.369 . S
C466 C468 1.419 . S
C466 H470 0.930 . S
C467 C466 1.369 . S
C467 C476 1.429 . S
C468 C466 1.419 . S
C468 C469 1.363 . S
C468 H471 0.929 . S
C469 C468 1.363 . S
C469 C475 1.428 . S
H470 C466 0.930 . S
H471 C468 0.929 . S
S472 N473 1.613 . S
S472 N474 1.610 . S
N473 S472 1.613 . S
N473 C476 1.350 . S
N474 S472 1.610 . S
N474 C475 1.351 . S
C475 C469 1.428 . S
C475 N474 1.351 . S
C475 C476 1.434 . S
C476 C467 1.429 . S
C476 N473 1.350 . S
C476 C475 1.434 . S
C477 C478 1.369 . S
C477 C479 1.419 . S
C477 H481 0.930 . S
C478 C477 1.369 . S
C478 C487 1.429 . S
C479 C477 1.419 . S
C479 C480 1.363 . S
C479 H482 0.929 . S
C480 C479 1.363 . S
C480 C486 1.428 . S
H481 C477 0.930 . S
H482 C479 0.929 . S
S483 N484 1.613 1_655 S
S483 N485 1.610 1_655 S
N484 S483 1.613 1_455 S
N484 C487 1.350 . S
N485 S483 1.610 1_455 S
N485 C486 1.351 . S
C486 C480 1.428 . S
C486 N485 1.351 . S
C486 C487 1.434 . S
C487 C478 1.429 . S
C487 N484 1.350 . S
C487 C486 1.434 . S
C488 C489 1.369 . S
C488 C490 1.419 1_556 S
C488 H492 0.930 . S
C489 C488 1.369 . S
C489 C498 1.429 . S
C490 C488 1.419 1_554 S
C490 C491 1.364 . S
C490 H493 0.929 . S
C491 C490 1.364 . S
C491 C497 1.423 1_554 S
H492 C488 0.930 . S
H493 C490 0.929 . S
S494 N495 1.613 . S
S494 N496 1.610 . S
N495 S494 1.613 . S
N495 C498 1.350 . S
N496 S494 1.610 . S
N496 C497 1.351 . S
C497 C491 1.423 1_556 S
C497 N496 1.351 . S
C497 C498 1.434 . S
C498 C489 1.429 . S
C498 N495 1.350 . S
C498 C497 1.434 . S
C499 C500 1.369 . S
C499 C501 1.419 . S
C499 H503 0.930 . S
C500 C499 1.369 . S
C500 C509 1.429 . S
C501 C499 1.419 . S
C501 C502 1.363 . S
C501 H504 0.929 . S
C502 C501 1.363 . S
C502 C508 1.428 . S
H503 C499 0.930 . S
H504 C501 0.929 . S
S505 N506 1.613 . S
S505 N507 1.610 . S
N506 S505 1.613 . S
N506 C509 1.350 . S
N507 S505 1.610 . S
N507 C508 1.351 . S
C508 C502 1.428 . S
C508 N507 1.351 . S
C508 C509 1.434 . S
C509 C500 1.429 . S
C509 N506 1.350 . S
C509 C508 1.434 . S
C510 C511 1.369 . S
C510 C512 1.419 . S
C510 H514 0.930 . S
C511 C510 1.369 . S
C511 C520 1.429 . S
C512 C510 1.419 . S
C512 C513 1.363 . S
C512 H515 0.929 . S
C513 C512 1.363 . S
C513 C519 1.428 . S
H514 C510 0.930 . S
H515 C512 0.929 . S
S516 N517 1.613 . S
S516 N518 1.610 . S
N517 S516 1.613 . S
N517 C520 1.350 . S
N518 S516 1.610 . S
N518 C519 1.351 . S
C519 C513 1.428 . S
C519 N518 1.351 . S
C519 C520 1.434 . S
C520 C511 1.429 . S
C520 N517 1.350 . S
C520 C519 1.434 . S
C521 C522 1.369 . S
C521 C523 1.419 . S
C521 H525 0.930 . S
C522 C521 1.369 . S
C522 C531 1.429 . S
C523 C521 1.419 . S
C523 C524 1.363 . S
C523 H526 0.929 . S
C524 C523 1.363 . S
C524 C530 1.428 . S
H525 C521 0.930 . S
H526 C523 0.929 . S
S527 N528 1.613 . S
S527 N529 1.610 . S
N528 S527 1.613 . S
N528 C531 1.350 . S
N529 S527 1.610 . S
N529 C530 1.351 . S
C530 C524 1.428 . S
C530 N529 1.351 . S
C530 C531 1.434 . S
C531 C522 1.429 . S
C531 N528 1.350 . S
C531 C530 1.434 . S
C532 C533 1.369 . S
C532 C534 1.419 . S
C532 H536 0.930 . S
C533 C532 1.369 . S
C533 C542 1.429 . S
C534 C532 1.419 . S
C534 C535 1.363 . S
C534 H537 0.929 . S
C535 C534 1.363 . S
C535 C541 1.428 . S
H536 C532 0.930 . S
H537 C534 0.929 . S
S538 N539 1.613 . S
S538 N540 1.610 . S
N539 S538 1.613 . S
N539 C542 1.350 . S
N540 S538 1.610 . S
N540 C541 1.351 . S
C541 C535 1.428 . S
C541 N540 1.351 . S
C541 C542 1.434 . S
C542 C533 1.429 . S
C542 N539 1.350 . S
C542 C541 1.434 . S
C543 C544 1.369 . S
C543 C545 1.419 . S
C543 H547 0.930 . S
C544 C543 1.369 . S
C544 C553 1.429 . S
C545 C543 1.419 . S
C545 C546 1.363 . S
C545 H548 0.929 . S
C546 C545 1.363 . S
C546 C552 1.428 . S
H547 C543 0.930 . S
H548 C545 0.929 . S
S549 N550 1.613 . S
S549 N551 1.610 . S
N550 S549 1.613 . S
N550 C553 1.350 . S
N551 S549 1.610 . S
N551 C552 1.351 . S
C552 C546 1.428 . S
C552 N551 1.351 . S
C552 C553 1.434 . S
C553 C544 1.429 . S
C553 N550 1.350 . S
C553 C552 1.434 . S
C554 C555 1.369 . S
C554 C556 1.419 . S
C554 H558 0.930 . S
C555 C554 1.369 . S
C555 C564 1.429 . S
C556 C554 1.419 . S
C556 C557 1.363 . S
C556 H559 0.929 . S
C557 C556 1.363 . S
C557 C563 1.428 . S
H558 C554 0.930 . S
H559 C556 0.929 . S
S560 N561 1.613 . S
S560 N562 1.610 . S
N561 S560 1.613 . S
N561 C564 1.350 . S
N562 S560 1.610 . S
N562 C563 1.351 . S
C563 C557 1.428 . S
C563 N562 1.351 . S
C563 C564 1.434 . S
C564 C555 1.429 . S
C564 N561 1.350 . S
C564 C563 1.434 . S
C565 C566 1.369 . S
C565 C567 1.419 . S
C565 H569 0.930 . S
C566 C565 1.369 . S
C566 C575 1.429 . S
C567 C565 1.419 . S
C567 C568 1.363 . S
C567 H570 0.929 . S
C568 C567 1.363 . S
C568 C574 1.428 . S
H569 C565 0.930 . S
H570 C567 0.929 . S
S571 N572 1.613 . S
S571 N573 1.610 . S
N572 S571 1.613 . S
N572 C575 1.350 . S
N573 S571 1.610 . S
N573 C574 1.351 . S
C574 C568 1.428 . S
C574 N573 1.351 . S
C574 C575 1.434 . S
C575 C566 1.429 . S
C575 N572 1.350 . S
C575 C574 1.434 . S
C313 C6 1.229 . S
C315 C158 1.268 . S
C324 C21 1.452 . S
C326 C207 1.467 . S
C337 C242 2.017 . S
C335 C49 2.050 . S
C346 C68 2.183 . S
C348 C281 2.238 . S
C359 C202 2.842 . S
C357 C2 2.683 . S
C370 C161 0.476 . S
C368 C30 0.431 . S
C381 C291 2.019 . S
C379 C40 2.082 . S
C392 C250 1.740 . S
C390 C63 1.734 . S
C401 C11 1.366 . S
C403 C278 1.570 . S
C414 C210 2.609 . S
C412 C44 2.693 . S
C423 C59 2.034 . S
C425 C171 2.040 . S
C434 C25 1.569 . S
C436 C247 1.550 . S
C447 C167 1.365 . S
C445 C82 1.368 . S
C456 C101 1.354 . S
C458 C198 1.374 . S
C467 C125 2.301 . S
C469 C251 2.409 . S
C478 C144 2.006 . S
C480 C290 2.073 . S
C489 C87 1.967 . S
C491 C211 2.149 . S
C502 C170 1.605 . S
C500 C97 1.636 . S
C513 C282 1.775 . S
C511 C120 1.866 . S
C524 C241 1.751 . S
C522 C135 1.868 . S
C533 C78 1.882 . S
C535 C287 2.052 . S
C546 C201 1.962 . S
C544 C116 2.019 . S
C557 C162 2.643 . S
C555 C139 2.639 . S
C566 C106 0.884 . S
C568 C238 1.127 . S
