# Generated by pormake.
# Topology bpr, (3,3)-cn, num edge types: 1
# Building blocks:
#     Node 0, Type 0, BuildingBlock: WUSLED_clean_sbu_0, # of connection points: 3
#     Node 1, Type 0, BuildingBlock: WUSLED_clean_sbu_0, # of connection points: 3
#     Node 2, Type 0, BuildingBlock: WUSLED_clean_sbu_0, # of connection points: 3
#     Node 3, Type 0, BuildingBlock: WUSLED_clean_sbu_0, # of connection points: 3
#     Node 4, Type 0, BuildingBlock: WUSLED_clean_sbu_0, # of connection points: 3
#     Node 5, Type 0, BuildingBlock: WUSLED_clean_sbu_0, # of connection points: 3
#     Node 6, Type 0, BuildingBlock: WUSLED_clean_sbu_0, # of connection points: 3
#     Node 7, Type 0, BuildingBlock: WUSLED_clean_sbu_0, # of connection points: 3
#     Node 8, Type 0, BuildingBlock: WUSLED_clean_sbu_0, # of connection points: 3
#     Node 9, Type 0, BuildingBlock: WUSLED_clean_sbu_0, # of connection points: 3
#     Node 10, Type 0, BuildingBlock: WUSLED_clean_sbu_0, # of connection points: 3
#     Node 11, Type 0, BuildingBlock: WUSLED_clean_sbu_0, # of connection points: 3
#     Node 12, Type 0, BuildingBlock: WUSLED_clean_sbu_0, # of connection points: 3
#     Node 13, Type 0, BuildingBlock: WUSLED_clean_sbu_0, # of connection points: 3
#     Node 14, Type 0, BuildingBlock: WUSLED_clean_sbu_0, # of connection points: 3
#     Node 15, Type 0, BuildingBlock: WUSLED_clean_sbu_0, # of connection points: 3
#     Node 16, Type 0, BuildingBlock: WUSLED_clean_sbu_0, # of connection points: 3
#     Node 17, Type 0, BuildingBlock: WUSLED_clean_sbu_0, # of connection points: 3
#     Node 18, Type 0, BuildingBlock: WUSLED_clean_sbu_0, # of connection points: 3
#     Node 19, Type 0, BuildingBlock: WUSLED_clean_sbu_0, # of connection points: 3
#     Node 20, Type 0, BuildingBlock: WUSLED_clean_sbu_0, # of connection points: 3
#     Node 21, Type 0, BuildingBlock: WUSLED_clean_sbu_0, # of connection points: 3
#     Node 22, Type 0, BuildingBlock: WUSLED_clean_sbu_0, # of connection points: 3
#     Node 23, Type 0, BuildingBlock: WUSLED_clean_sbu_0, # of connection points: 3
#     Node 24, Type 0, BuildingBlock: WUSLED_clean_sbu_0, # of connection points: 3
#     Node 25, Type 0, BuildingBlock: WUSLED_clean_sbu_0, # of connection points: 3
#     Node 26, Type 0, BuildingBlock: WUSLED_clean_sbu_0, # of connection points: 3
#     Node 27, Type 0, BuildingBlock: WUSLED_clean_sbu_0, # of connection points: 3
#     Node 28, Type 0, BuildingBlock: WUSLED_clean_sbu_0, # of connection points: 3
#     Node 29, Type 0, BuildingBlock: WUSLED_clean_sbu_0, # of connection points: 3
#     Node 30, Type 0, BuildingBlock: WUSLED_clean_sbu_0, # of connection points: 3
#     Node 31, Type 0, BuildingBlock: WUSLED_clean_sbu_0, # of connection points: 3
#     Node 32, Type 0, BuildingBlock: WUSLED_clean_sbu_0, # of connection points: 3
#     Node 33, Type 0, BuildingBlock: WUSLED_clean_sbu_0, # of connection points: 3
#     Node 34, Type 0, BuildingBlock: WUSLED_clean_sbu_0, # of connection points: 3
#     Node 35, Type 0, BuildingBlock: WUSLED_clean_sbu_0, # of connection points: 3
#     Node 36, Type 0, BuildingBlock: WUSLED_clean_sbu_0, # of connection points: 3
#     Node 37, Type 0, BuildingBlock: WUSLED_clean_sbu_0, # of connection points: 3
#     Node 38, Type 0, BuildingBlock: WUSLED_clean_sbu_0, # of connection points: 3
#     Node 39, Type 0, BuildingBlock: WUSLED_clean_sbu_0, # of connection points: 3
#     Node 40, Type 0, BuildingBlock: WUSLED_clean_sbu_0, # of connection points: 3
#     Node 41, Type 0, BuildingBlock: WUSLED_clean_sbu_0, # of connection points: 3
#     Node 42, Type 0, BuildingBlock: WUSLED_clean_sbu_0, # of connection points: 3
#     Node 43, Type 0, BuildingBlock: WUSLED_clean_sbu_0, # of connection points: 3
#     Node 44, Type 0, BuildingBlock: WUSLED_clean_sbu_0, # of connection points: 3
#     Node 45, Type 0, BuildingBlock: WUSLED_clean_sbu_0, # of connection points: 3
#     Node 46, Type 0, BuildingBlock: WUSLED_clean_sbu_0, # of connection points: 3
#     Node 47, Type 0, BuildingBlock: WUSLED_clean_sbu_0, # of connection points: 3
#     Node 48, Type 1, BuildingBlock: PAMTOO_clean_linker_0, # of connection points: 3
#     Node 49, Type 1, BuildingBlock: PAMTOO_clean_linker_0, # of connection points: 3
#     Node 50, Type 1, BuildingBlock: PAMTOO_clean_linker_0, # of connection points: 3
#     Node 51, Type 1, BuildingBlock: PAMTOO_clean_linker_0, # of connection points: 3
#     Node 52, Type 1, BuildingBlock: PAMTOO_clean_linker_0, # of connection points: 3
#     Node 53, Type 1, BuildingBlock: PAMTOO_clean_linker_0, # of connection points: 3
#     Node 54, Type 1, BuildingBlock: PAMTOO_clean_linker_0, # of connection points: 3
#     Node 55, Type 1, BuildingBlock: PAMTOO_clean_linker_0, # of connection points: 3
#     Node 56, Type 1, BuildingBlock: PAMTOO_clean_linker_0, # of connection points: 3
#     Node 57, Type 1, BuildingBlock: PAMTOO_clean_linker_0, # of connection points: 3
#     Node 58, Type 1, BuildingBlock: PAMTOO_clean_linker_0, # of connection points: 3
#     Node 59, Type 1, BuildingBlock: PAMTOO_clean_linker_0, # of connection points: 3
#     Node 60, Type 1, BuildingBlock: PAMTOO_clean_linker_0, # of connection points: 3
#     Node 61, Type 1, BuildingBlock: PAMTOO_clean_linker_0, # of connection points: 3
#     Node 62, Type 1, BuildingBlock: PAMTOO_clean_linker_0, # of connection points: 3
#     Node 63, Type 1, BuildingBlock: PAMTOO_clean_linker_0, # of connection points: 3
#     Node 64, Type 1, BuildingBlock: PAMTOO_clean_linker_0, # of connection points: 3
#     Node 65, Type 1, BuildingBlock: PAMTOO_clean_linker_0, # of connection points: 3
#     Node 66, Type 1, BuildingBlock: PAMTOO_clean_linker_0, # of connection points: 3
#     Node 67, Type 1, BuildingBlock: PAMTOO_clean_linker_0, # of connection points: 3
#     Node 68, Type 1, BuildingBlock: PAMTOO_clean_linker_0, # of connection points: 3
#     Node 69, Type 1, BuildingBlock: PAMTOO_clean_linker_0, # of connection points: 3
#     Node 70, Type 1, BuildingBlock: PAMTOO_clean_linker_0, # of connection points: 3
#     Node 71, Type 1, BuildingBlock: PAMTOO_clean_linker_0, # of connection points: 3
#     Node 72, Type 1, BuildingBlock: PAMTOO_clean_linker_0, # of connection points: 3
#     Node 73, Type 1, BuildingBlock: PAMTOO_clean_linker_0, # of connection points: 3
#     Node 74, Type 1, BuildingBlock: PAMTOO_clean_linker_0, # of connection points: 3
#     Node 75, Type 1, BuildingBlock: PAMTOO_clean_linker_0, # of connection points: 3
#     Node 76, Type 1, BuildingBlock: PAMTOO_clean_linker_0, # of connection points: 3
#     Node 77, Type 1, BuildingBlock: PAMTOO_clean_linker_0, # of connection points: 3
#     Node 78, Type 1, BuildingBlock: PAMTOO_clean_linker_0, # of connection points: 3
#     Node 79, Type 1, BuildingBlock: PAMTOO_clean_linker_0, # of connection points: 3
#     Node 80, Type 1, BuildingBlock: PAMTOO_clean_linker_0, # of connection points: 3
#     Node 81, Type 1, BuildingBlock: PAMTOO_clean_linker_0, # of connection points: 3
#     Node 82, Type 1, BuildingBlock: PAMTOO_clean_linker_0, # of connection points: 3
#     Node 83, Type 1, BuildingBlock: PAMTOO_clean_linker_0, # of connection points: 3
#     Node 84, Type 1, BuildingBlock: PAMTOO_clean_linker_0, # of connection points: 3
#     Node 85, Type 1, BuildingBlock: PAMTOO_clean_linker_0, # of connection points: 3
#     Node 86, Type 1, BuildingBlock: PAMTOO_clean_linker_0, # of connection points: 3
#     Node 87, Type 1, BuildingBlock: PAMTOO_clean_linker_0, # of connection points: 3
#     Node 88, Type 1, BuildingBlock: PAMTOO_clean_linker_0, # of connection points: 3
#     Node 89, Type 1, BuildingBlock: PAMTOO_clean_linker_0, # of connection points: 3
#     Node 90, Type 1, BuildingBlock: PAMTOO_clean_linker_0, # of connection points: 3
#     Node 91, Type 1, BuildingBlock: PAMTOO_clean_linker_0, # of connection points: 3
#     Node 92, Type 1, BuildingBlock: PAMTOO_clean_linker_0, # of connection points: 3
#     Node 93, Type 1, BuildingBlock: PAMTOO_clean_linker_0, # of connection points: 3
#     Node 94, Type 1, BuildingBlock: PAMTOO_clean_linker_0, # of connection points: 3
#     Node 95, Type 1, BuildingBlock: PAMTOO_clean_linker_0, # of connection points: 3
#     Edge 96, Type (0, 1), BuildingBlock: UVAHIK_clean_linker_0, # of connection points: 2
#     Edge 97, Type (0, 1), BuildingBlock: UVAHIK_clean_linker_0, # of connection points: 2
#     Edge 98, Type (0, 1), BuildingBlock: UVAHIK_clean_linker_0, # of connection points: 2
#     Edge 99, Type (0, 1), BuildingBlock: UVAHIK_clean_linker_0, # of connection points: 2
#     Edge 100, Type (0, 1), BuildingBlock: UVAHIK_clean_linker_0, # of connection points: 2
#     Edge 101, Type (0, 1), BuildingBlock: UVAHIK_clean_linker_0, # of connection points: 2
#     Edge 102, Type (0, 1), BuildingBlock: UVAHIK_clean_linker_0, # of connection points: 2
#     Edge 103, Type (0, 1), BuildingBlock: UVAHIK_clean_linker_0, # of connection points: 2
#     Edge 104, Type (0, 1), BuildingBlock: UVAHIK_clean_linker_0, # of connection points: 2
#     Edge 105, Type (0, 1), BuildingBlock: UVAHIK_clean_linker_0, # of connection points: 2
#     Edge 106, Type (0, 1), BuildingBlock: UVAHIK_clean_linker_0, # of connection points: 2
#     Edge 107, Type (0, 1), BuildingBlock: UVAHIK_clean_linker_0, # of connection points: 2
#     Edge 108, Type (0, 1), BuildingBlock: UVAHIK_clean_linker_0, # of connection points: 2
#     Edge 109, Type (0, 1), BuildingBlock: UVAHIK_clean_linker_0, # of connection points: 2
#     Edge 110, Type (0, 1), BuildingBlock: UVAHIK_clean_linker_0, # of connection points: 2
#     Edge 111, Type (0, 1), BuildingBlock: UVAHIK_clean_linker_0, # of connection points: 2
#     Edge 112, Type (0, 1), BuildingBlock: UVAHIK_clean_linker_0, # of connection points: 2
#     Edge 113, Type (0, 1), BuildingBlock: UVAHIK_clean_linker_0, # of connection points: 2
#     Edge 114, Type (0, 1), BuildingBlock: UVAHIK_clean_linker_0, # of connection points: 2
#     Edge 115, Type (0, 1), BuildingBlock: UVAHIK_clean_linker_0, # of connection points: 2
#     Edge 116, Type (0, 1), BuildingBlock: UVAHIK_clean_linker_0, # of connection points: 2
#     Edge 117, Type (0, 1), BuildingBlock: UVAHIK_clean_linker_0, # of connection points: 2
#     Edge 118, Type (0, 1), BuildingBlock: UVAHIK_clean_linker_0, # of connection points: 2
#     Edge 119, Type (0, 1), BuildingBlock: UVAHIK_clean_linker_0, # of connection points: 2
#     Edge 120, Type (0, 1), BuildingBlock: UVAHIK_clean_linker_0, # of connection points: 2
#     Edge 121, Type (0, 1), BuildingBlock: UVAHIK_clean_linker_0, # of connection points: 2
#     Edge 122, Type (0, 1), BuildingBlock: UVAHIK_clean_linker_0, # of connection points: 2
#     Edge 123, Type (0, 1), BuildingBlock: UVAHIK_clean_linker_0, # of connection points: 2
#     Edge 124, Type (0, 1), BuildingBlock: UVAHIK_clean_linker_0, # of connection points: 2
#     Edge 125, Type (0, 1), BuildingBlock: UVAHIK_clean_linker_0, # of connection points: 2
#     Edge 126, Type (0, 1), BuildingBlock: UVAHIK_clean_linker_0, # of connection points: 2
#     Edge 127, Type (0, 1), BuildingBlock: UVAHIK_clean_linker_0, # of connection points: 2
#     Edge 128, Type (0, 1), BuildingBlock: UVAHIK_clean_linker_0, # of connection points: 2
#     Edge 129, Type (0, 1), BuildingBlock: UVAHIK_clean_linker_0, # of connection points: 2
#     Edge 130, Type (0, 1), BuildingBlock: UVAHIK_clean_linker_0, # of connection points: 2
#     Edge 131, Type (0, 1), BuildingBlock: UVAHIK_clean_linker_0, # of connection points: 2
#     Edge 132, Type (0, 1), BuildingBlock: UVAHIK_clean_linker_0, # of connection points: 2
#     Edge 133, Type (0, 1), BuildingBlock: UVAHIK_clean_linker_0, # of connection points: 2
#     Edge 134, Type (0, 1), BuildingBlock: UVAHIK_clean_linker_0, # of connection points: 2
#     Edge 135, Type (0, 1), BuildingBlock: UVAHIK_clean_linker_0, # of connection points: 2
#     Edge 136, Type (0, 1), BuildingBlock: UVAHIK_clean_linker_0, # of connection points: 2
#     Edge 137, Type (0, 1), BuildingBlock: UVAHIK_clean_linker_0, # of connection points: 2
#     Edge 138, Type (0, 1), BuildingBlock: UVAHIK_clean_linker_0, # of connection points: 2
#     Edge 139, Type (0, 1), BuildingBlock: UVAHIK_clean_linker_0, # of connection points: 2
#     Edge 140, Type (0, 1), BuildingBlock: UVAHIK_clean_linker_0, # of connection points: 2
#     Edge 141, Type (0, 1), BuildingBlock: UVAHIK_clean_linker_0, # of connection points: 2
#     Edge 142, Type (0, 1), BuildingBlock: UVAHIK_clean_linker_0, # of connection points: 2
#     Edge 143, Type (0, 1), BuildingBlock: UVAHIK_clean_linker_0, # of connection points: 2
#     Edge 144, Type (0, 1), BuildingBlock: UVAHIK_clean_linker_0, # of connection points: 2
#     Edge 145, Type (0, 1), BuildingBlock: UVAHIK_clean_linker_0, # of connection points: 2
#     Edge 146, Type (0, 1), BuildingBlock: UVAHIK_clean_linker_0, # of connection points: 2
#     Edge 147, Type (0, 1), BuildingBlock: UVAHIK_clean_linker_0, # of connection points: 2
#     Edge 148, Type (0, 1), BuildingBlock: UVAHIK_clean_linker_0, # of connection points: 2
#     Edge 149, Type (0, 1), BuildingBlock: UVAHIK_clean_linker_0, # of connection points: 2
#     Edge 150, Type (0, 1), BuildingBlock: UVAHIK_clean_linker_0, # of connection points: 2
#     Edge 151, Type (0, 1), BuildingBlock: UVAHIK_clean_linker_0, # of connection points: 2
#     Edge 152, Type (0, 1), BuildingBlock: UVAHIK_clean_linker_0, # of connection points: 2
#     Edge 153, Type (0, 1), BuildingBlock: UVAHIK_clean_linker_0, # of connection points: 2
#     Edge 154, Type (0, 1), BuildingBlock: UVAHIK_clean_linker_0, # of connection points: 2
#     Edge 155, Type (0, 1), BuildingBlock: UVAHIK_clean_linker_0, # of connection points: 2
#     Edge 156, Type (0, 1), BuildingBlock: UVAHIK_clean_linker_0, # of connection points: 2
#     Edge 157, Type (0, 1), BuildingBlock: UVAHIK_clean_linker_0, # of connection points: 2
#     Edge 158, Type (0, 1), BuildingBlock: UVAHIK_clean_linker_0, # of connection points: 2
#     Edge 159, Type (0, 1), BuildingBlock: UVAHIK_clean_linker_0, # of connection points: 2
#     Edge 160, Type (0, 1), BuildingBlock: UVAHIK_clean_linker_0, # of connection points: 2
#     Edge 161, Type (0, 1), BuildingBlock: UVAHIK_clean_linker_0, # of connection points: 2
#     Edge 162, Type (0, 1), BuildingBlock: UVAHIK_clean_linker_0, # of connection points: 2
#     Edge 163, Type (0, 1), BuildingBlock: UVAHIK_clean_linker_0, # of connection points: 2
#     Edge 164, Type (0, 1), BuildingBlock: UVAHIK_clean_linker_0, # of connection points: 2
#     Edge 165, Type (0, 1), BuildingBlock: UVAHIK_clean_linker_0, # of connection points: 2
#     Edge 166, Type (0, 1), BuildingBlock: UVAHIK_clean_linker_0, # of connection points: 2
#     Edge 167, Type (0, 1), BuildingBlock: UVAHIK_clean_linker_0, # of connection points: 2
#     Edge 168, Type (0, 1), BuildingBlock: UVAHIK_clean_linker_0, # of connection points: 2
#     Edge 169, Type (0, 1), BuildingBlock: UVAHIK_clean_linker_0, # of connection points: 2
#     Edge 170, Type (0, 1), BuildingBlock: UVAHIK_clean_linker_0, # of connection points: 2
#     Edge 171, Type (0, 1), BuildingBlock: UVAHIK_clean_linker_0, # of connection points: 2
#     Edge 172, Type (0, 1), BuildingBlock: UVAHIK_clean_linker_0, # of connection points: 2
#     Edge 173, Type (0, 1), BuildingBlock: UVAHIK_clean_linker_0, # of connection points: 2
#     Edge 174, Type (0, 1), BuildingBlock: UVAHIK_clean_linker_0, # of connection points: 2
#     Edge 175, Type (0, 1), BuildingBlock: UVAHIK_clean_linker_0, # of connection points: 2
#     Edge 176, Type (0, 1), BuildingBlock: UVAHIK_clean_linker_0, # of connection points: 2
#     Edge 177, Type (0, 1), BuildingBlock: UVAHIK_clean_linker_0, # of connection points: 2
#     Edge 178, Type (0, 1), BuildingBlock: UVAHIK_clean_linker_0, # of connection points: 2
#     Edge 179, Type (0, 1), BuildingBlock: UVAHIK_clean_linker_0, # of connection points: 2
#     Edge 180, Type (0, 1), BuildingBlock: UVAHIK_clean_linker_0, # of connection points: 2
#     Edge 181, Type (0, 1), BuildingBlock: UVAHIK_clean_linker_0, # of connection points: 2
#     Edge 182, Type (0, 1), BuildingBlock: UVAHIK_clean_linker_0, # of connection points: 2
#     Edge 183, Type (0, 1), BuildingBlock: UVAHIK_clean_linker_0, # of connection points: 2
#     Edge 184, Type (0, 1), BuildingBlock: UVAHIK_clean_linker_0, # of connection points: 2
#     Edge 185, Type (0, 1), BuildingBlock: UVAHIK_clean_linker_0, # of connection points: 2
#     Edge 186, Type (0, 1), BuildingBlock: UVAHIK_clean_linker_0, # of connection points: 2
#     Edge 187, Type (0, 1), BuildingBlock: UVAHIK_clean_linker_0, # of connection points: 2
#     Edge 188, Type (0, 1), BuildingBlock: UVAHIK_clean_linker_0, # of connection points: 2
#     Edge 189, Type (0, 1), BuildingBlock: UVAHIK_clean_linker_0, # of connection points: 2
#     Edge 190, Type (0, 1), BuildingBlock: UVAHIK_clean_linker_0, # of connection points: 2
#     Edge 191, Type (0, 1), BuildingBlock: UVAHIK_clean_linker_0, # of connection points: 2
#     Edge 192, Type (0, 1), BuildingBlock: UVAHIK_clean_linker_0, # of connection points: 2
#     Edge 193, Type (0, 1), BuildingBlock: UVAHIK_clean_linker_0, # of connection points: 2
#     Edge 194, Type (0, 1), BuildingBlock: UVAHIK_clean_linker_0, # of connection points: 2
#     Edge 195, Type (0, 1), BuildingBlock: UVAHIK_clean_linker_0, # of connection points: 2
#     Edge 196, Type (0, 1), BuildingBlock: UVAHIK_clean_linker_0, # of connection points: 2
#     Edge 197, Type (0, 1), BuildingBlock: UVAHIK_clean_linker_0, # of connection points: 2
#     Edge 198, Type (0, 1), BuildingBlock: UVAHIK_clean_linker_0, # of connection points: 2
#     Edge 199, Type (0, 1), BuildingBlock: UVAHIK_clean_linker_0, # of connection points: 2
#     Edge 200, Type (0, 1), BuildingBlock: UVAHIK_clean_linker_0, # of connection points: 2
#     Edge 201, Type (0, 1), BuildingBlock: UVAHIK_clean_linker_0, # of connection points: 2
#     Edge 202, Type (0, 1), BuildingBlock: UVAHIK_clean_linker_0, # of connection points: 2
#     Edge 203, Type (0, 1), BuildingBlock: UVAHIK_clean_linker_0, # of connection points: 2
#     Edge 204, Type (0, 1), BuildingBlock: UVAHIK_clean_linker_0, # of connection points: 2
#     Edge 205, Type (0, 1), BuildingBlock: UVAHIK_clean_linker_0, # of connection points: 2
#     Edge 206, Type (0, 1), BuildingBlock: UVAHIK_clean_linker_0, # of connection points: 2
#     Edge 207, Type (0, 1), BuildingBlock: UVAHIK_clean_linker_0, # of connection points: 2
#     Edge 208, Type (0, 1), BuildingBlock: UVAHIK_clean_linker_0, # of connection points: 2
#     Edge 209, Type (0, 1), BuildingBlock: UVAHIK_clean_linker_0, # of connection points: 2
#     Edge 210, Type (0, 1), BuildingBlock: UVAHIK_clean_linker_0, # of connection points: 2
#     Edge 211, Type (0, 1), BuildingBlock: UVAHIK_clean_linker_0, # of connection points: 2
#     Edge 212, Type (0, 1), BuildingBlock: UVAHIK_clean_linker_0, # of connection points: 2
#     Edge 213, Type (0, 1), BuildingBlock: UVAHIK_clean_linker_0, # of connection points: 2
#     Edge 214, Type (0, 1), BuildingBlock: UVAHIK_clean_linker_0, # of connection points: 2
#     Edge 215, Type (0, 1), BuildingBlock: UVAHIK_clean_linker_0, # of connection points: 2
#     Edge 216, Type (0, 1), BuildingBlock: UVAHIK_clean_linker_0, # of connection points: 2
#     Edge 217, Type (0, 1), BuildingBlock: UVAHIK_clean_linker_0, # of connection points: 2
#     Edge 218, Type (0, 1), BuildingBlock: UVAHIK_clean_linker_0, # of connection points: 2
#     Edge 219, Type (0, 1), BuildingBlock: UVAHIK_clean_linker_0, # of connection points: 2
#     Edge 220, Type (0, 1), BuildingBlock: UVAHIK_clean_linker_0, # of connection points: 2
#     Edge 221, Type (0, 1), BuildingBlock: UVAHIK_clean_linker_0, # of connection points: 2
#     Edge 222, Type (0, 1), BuildingBlock: UVAHIK_clean_linker_0, # of connection points: 2
#     Edge 223, Type (0, 1), BuildingBlock: UVAHIK_clean_linker_0, # of connection points: 2
#     Edge 224, Type (0, 1), BuildingBlock: UVAHIK_clean_linker_0, # of connection points: 2
#     Edge 225, Type (0, 1), BuildingBlock: UVAHIK_clean_linker_0, # of connection points: 2
#     Edge 226, Type (0, 1), BuildingBlock: UVAHIK_clean_linker_0, # of connection points: 2
#     Edge 227, Type (0, 1), BuildingBlock: UVAHIK_clean_linker_0, # of connection points: 2
#     Edge 228, Type (0, 1), BuildingBlock: UVAHIK_clean_linker_0, # of connection points: 2
#     Edge 229, Type (0, 1), BuildingBlock: UVAHIK_clean_linker_0, # of connection points: 2
#     Edge 230, Type (0, 1), BuildingBlock: UVAHIK_clean_linker_0, # of connection points: 2
#     Edge 231, Type (0, 1), BuildingBlock: UVAHIK_clean_linker_0, # of connection points: 2
#     Edge 232, Type (0, 1), BuildingBlock: UVAHIK_clean_linker_0, # of connection points: 2
#     Edge 233, Type (0, 1), BuildingBlock: UVAHIK_clean_linker_0, # of connection points: 2
#     Edge 234, Type (0, 1), BuildingBlock: UVAHIK_clean_linker_0, # of connection points: 2
#     Edge 235, Type (0, 1), BuildingBlock: UVAHIK_clean_linker_0, # of connection points: 2
#     Edge 236, Type (0, 1), BuildingBlock: UVAHIK_clean_linker_0, # of connection points: 2
#     Edge 237, Type (0, 1), BuildingBlock: UVAHIK_clean_linker_0, # of connection points: 2
#     Edge 238, Type (0, 1), BuildingBlock: UVAHIK_clean_linker_0, # of connection points: 2
#     Edge 239, Type (0, 1), BuildingBlock: UVAHIK_clean_linker_0, # of connection points: 2
# Relax obj value: 0.040
# Max RMSD: 0.112
# Mean RMSD: 0.050
data_MOF--net-bpr--node1-WUSLED_clean_sbu_0--node2-PAMTOO_clean_linker_0--edge1-UVAHIK_clean_linker_0
_symmetry_space_group_name_H-M    P1
_symmetry_Int_Tables_number       1
_symmetry_cell_setting            triclinic
loop_
_symmetry_equiv_pos_as_xyz
'x, y, z'
_cell_length_a     123.01466
_cell_length_b     130.85113
_cell_length_c     134.2193
_cell_angle_alpha  92.124228
_cell_angle_beta   99.867559
_cell_angle_gamma 103.65606
loop_
_atom_site_label
_atom_site_type_symbol
_atom_site_fract_x
_atom_site_fract_y
_atom_site_fract_z
_atom_type_partial_charge
C0 C 0.98522 0.39696 0.23558 0.0
C1 C 0.98549 0.39792 0.24607 0.0
C2 C 0.96802 0.40395 0.24327 0.0
C3 C 0.977 0.40141 0.24988 0.0
C4 C 0.96771 0.40286 0.23274 0.0
C5 C 0.97627 0.39942 0.22892 0.0
U6 U 0.00977 0.38437 0.24079 0.0
O7 O 0.01549 0.37277 0.23205 0.0
O8 O 0.02693 0.38841 0.23702 0.0
C9 C 0.0253 0.37936 0.23171 0.0
C10 C 0.99424 0.3933 0.23167 0.0
C11 C 0.02902 0.37992 0.22182 0.0
C12 C 0.02512 0.37794 0.20336 0.0
C13 C 0.02123 0.37791 0.21258 0.0
C14 C 0.0446 0.38221 0.2125 0.0
C15 C 0.03686 0.38004 0.20322 0.0
C16 C 0.0407 0.38214 0.22169 0.0
C17 C 0.01629 0.37645 0.26805 0.0
C18 C 0.03113 0.3676 0.27419 0.0
C19 C 0.02051 0.37356 0.28589 0.0
C20 C 0.01417 0.37741 0.27792 0.0
C21 C 0.02911 0.36866 0.28414 0.0
C22 C 0.02478 0.3715 0.26619 0.0
C23 C 0.00964 0.38081 0.2599 0.0
O24 O 1.00467 0.3986 0.23566 0.0
O25 O 0.993 0.38302 0.23115 0.0
O26 O 1.0037 0.37406 0.2523 0.0
O27 O 0.01494 0.38982 0.25699 0.0
H28 H 0.99227 0.39595 0.25133 0.0
H29 H 0.9774 0.402 0.25801 0.0
H30 H 0.96094 0.40482 0.22746 0.0
H31 H 0.97591 0.39869 0.2208 0.0
H32 H 0.01895 0.37634 0.19634 0.0
H33 H 0.01215 0.37622 0.21249 0.0
H34 H 0.05368 0.38372 0.21269 0.0
H35 H 0.04685 0.38366 0.22873 0.0
H36 H 0.03776 0.36395 0.27261 0.0
H37 H 0.01863 0.37436 0.29343 0.0
H38 H 0.00762 0.38119 0.27947 0.0
H39 H 0.02654 0.37073 0.2586 0.0
C40 C 0.92442 0.80643 0.55632 0.0
C41 C 0.92642 0.80688 0.56695 0.0
C42 C 0.92327 0.78775 0.5664 0.0
C43 C 0.92588 0.79764 0.57195 0.0
C44 C 0.92138 0.78737 0.55573 0.0
C45 C 0.92194 0.79664 0.55073 0.0
U46 U 0.92632 0.83556 0.55815 0.0
O47 O 0.9353 0.84869 0.55052 0.0
O48 O 0.91672 0.8453 0.54909 0.0
C49 C 0.92583 0.85102 0.54628 0.0
C50 C 0.92458 0.81616 0.55112 0.0
C51 C 0.92472 0.85276 0.53544 0.0
C52 C 0.92178 0.84636 0.51771 0.0
C53 C 0.92298 0.84442 0.528 0.0
C54 C 0.92413 0.86495 0.52228 0.0
C55 C 0.92234 0.85666 0.51473 0.0
C56 C 0.92532 0.863 0.53252 0.0
C57 C 0.9294 0.84872 0.58485 0.0
C58 C 0.92359 0.86449 0.58954 0.0
C59 C 0.93703 0.85804 0.60149 0.0
C60 C 0.93647 0.84977 0.59439 0.0
C61 C 0.93045 0.86541 0.59923 0.0
C62 C 0.9231 0.85624 0.5824 0.0
C63 C 0.92844 0.83953 0.57778 0.0
O64 O 0.91572 0.82006 0.55143 0.0
O65 O 0.93429 0.82336 0.55315 0.0
O66 O 0.93718 0.83979 0.5733 0.0
O67 O 0.91856 0.836 0.57167 0.0
H68 H 0.92834 0.81439 0.57139 0.0
H69 H 0.92755 0.79825 0.58016 0.0
H70 H 0.91924 0.77989 0.55122 0.0
H71 H 0.92031 0.79616 0.54251 0.0
H72 H 0.92051 0.83982 0.51211 0.0
H73 H 0.92252 0.83645 0.53014 0.0
H74 H 0.92442 0.87294 0.52027 0.0
H75 H 0.92662 0.86952 0.53817 0.0
H76 H 0.91834 0.86995 0.58755 0.0
H77 H 0.94259 0.85862 0.60879 0.0
H78 H 0.94146 0.84409 0.59639 0.0
H79 H 0.91762 0.85562 0.57505 0.0
C80 C 0.43469 0.62746 0.70752 0.0
C81 C 0.42552 0.63223 0.70596 0.0
C82 C 0.42521 0.63125 0.68776 0.0
C83 C 0.42085 0.63414 0.69618 0.0
C84 C 0.43454 0.62662 0.6894 0.0
C85 C 0.43923 0.62473 0.69921 0.0
U86 U 0.4318 0.62549 0.73492 0.0
O87 O 0.43427 0.61341 0.74542 0.0
O88 O 0.44441 0.62977 0.74912 0.0
C89 C 0.4427 0.61997 0.7516 0.0
C90 C 0.43919 0.62497 0.71776 0.0
C91 C 0.45301 0.61619 0.7549 0.0
C92 C 0.46588 0.60517 0.75237 0.0
C93 C 0.45629 0.60894 0.74877 0.0
C94 C 0.46913 0.61605 0.76811 0.0
C95 C 0.47239 0.60868 0.7621 0.0
C96 C 0.45954 0.61974 0.76455 0.0
C97 C 0.40625 0.63281 0.74307 0.0
C98 C 0.40369 0.63274 0.76061 0.0
C99 C 0.38884 0.6357 0.74748 0.0
C100 C 0.3955 0.63479 0.7402 0.0
C101 C 0.39283 0.63465 0.75777 0.0
C102 C 0.41034 0.63181 0.75331 0.0
C103 C 0.41301 0.63159 0.73529 0.0
O104 O 0.44279 0.63307 0.7246 0.0
O105 O 0.43287 0.61666 0.721 0.0
O106 O 0.41311 0.62182 0.73275 0.0
O107 O 0.42311 0.63818 0.73653 0.0
H108 H 0.42191 0.63438 0.71231 0.0
H109 H 0.41378 0.63785 0.6952 0.0
H110 H 0.43801 0.62418 0.68308 0.0
H111 H 0.44627 0.62099 0.70029 0.0
H112 H 0.46823 0.59957 0.74753 0.0
H113 H 0.45141 0.60613 0.74126 0.0
H114 H 0.47386 0.6188 0.77569 0.0
H115 H 0.45712 0.6253 0.7694 0.0
H116 H 0.40707 0.632 0.76847 0.0
H117 H 0.38045 0.63701 0.74501 0.0
H118 H 0.39221 0.63553 0.73231 0.0
H119 H 0.41864 0.63026 0.75564 0.0
C120 C 0.60005 0.20151 0.08466 0.0
C121 C 0.59631 0.20163 0.09396 0.0
C122 C 0.60168 0.22086 0.09554 0.0
C123 C 0.59706 0.21121 0.09933 0.0
C124 C 0.60537 0.22067 0.08618 0.0
C125 C 0.60455 0.21107 0.08079 0.0
U126 U 0.59893 0.17245 0.08511 0.0
O127 O 0.58993 0.15885 0.07428 0.0
O128 O 0.6086 0.1628 0.07833 0.0
C129 C 0.59944 0.15683 0.07251 0.0
C130 C 0.59982 0.19147 0.07925 0.0
C131 C 0.60025 0.15523 0.06181 0.0
C132 C 0.59835 0.1605 0.04455 0.0
C133 C 0.59732 0.16216 0.05468 0.0
C134 C 0.60533 0.14504 0.04865 0.0
C135 C 0.60238 0.15191 0.04142 0.0
C136 C 0.60425 0.14668 0.05873 0.0
C137 C 0.59814 0.15991 0.11018 0.0
C138 C 0.5937 0.14097 0.1116 0.0
C139 C 0.60392 0.15295 0.1262 0.0
C140 C 0.60343 0.16153 0.12041 0.0
C141 C 0.59906 0.14255 0.12188 0.0
C142 C 0.5933 0.14958 0.10579 0.0
C143 C 0.59821 0.16907 0.10414 0.0
O144 O 0.60892 0.18789 0.08197 0.0
O145 O 0.59025 0.18412 0.07834 0.0
O146 O 0.58906 0.1685 0.09724 0.0
O147 O 0.60774 0.17277 0.10087 0.0
H148 H 0.59288 0.19431 0.09711 0.0
H149 H 0.59399 0.21105 0.10643 0.0
H150 H 0.60912 0.22793 0.08311 0.0
H151 H 0.60759 0.21112 0.07368 0.0
H152 H 0.59591 0.16589 0.03917 0.0
H153 H 0.59426 0.16884 0.05694 0.0
H154 H 0.60867 0.13847 0.04658 0.0
H155 H 0.60663 0.1413 0.06417 0.0
H156 H 0.58976 0.1331 0.10805 0.0
H157 H 0.60831 0.15447 0.13402 0.0
H158 H 0.60732 0.16945 0.12389 0.0
H159 H 0.58926 0.14816 0.09786 0.0
C160 C 0.03891 0.63137 0.25959 0.0
C161 C 0.03763 0.63213 0.24908 0.0
C162 C 0.01705 0.62851 0.24765 0.0
C163 C 0.02679 0.63072 0.24316 0.0
C164 C 0.01842 0.62781 0.25822 0.0
C165 C 0.02927 0.62923 0.26413 0.0
U166 U 0.07091 0.63584 0.26194 0.0
O167 O 0.08498 0.64523 0.27346 0.0
O168 O 0.08286 0.62813 0.27099 0.0
C169 C 0.08829 0.63686 0.27662 0.0
C170 C 0.05024 0.6326 0.26583 0.0
C171 C 0.09 0.63588 0.28763 0.0
C172 C 0.08493 0.63819 0.30415 0.0
C173 C 0.08324 0.63948 0.29374 0.0
C174 C 0.10003 0.62963 0.30241 0.0
C175 C 0.09328 0.63317 0.30857 0.0
C176 C 0.09842 0.631 0.29204 0.0
C177 C 0.08454 0.63923 0.23865 0.0
C178 C 0.10511 0.64346 0.2403 0.0
C179 C 0.09309 0.639 0.22367 0.0
C180 C 0.08341 0.63768 0.22811 0.0
C181 C 0.10405 0.64192 0.22972 0.0
C182 C 0.09543 0.64209 0.24474 0.0
C183 C 0.07433 0.63765 0.24326 0.0
O184 O 0.05517 0.62494 0.26432 0.0
O185 O 0.05714 0.64204 0.26639 0.0
O186 O 0.07381 0.64565 0.24924 0.0
O187 O 0.07149 0.62851 0.24709 0.0
H188 H 0.04502 0.6338 0.24546 0.0
H189 H 0.02604 0.63144 0.23507 0.0
H190 H 0.0111 0.62599 0.2619 0.0
H191 H 0.03013 0.62857 0.27223 0.0
H192 H 0.07955 0.64092 0.30871 0.0
H193 H 0.07662 0.64319 0.29046 0.0
H194 H 0.10662 0.62584 0.30563 0.0
H195 H 0.1037 0.62817 0.28745 0.0
H196 H 0.11342 0.64559 0.24517 0.0
H197 H 0.09199 0.63788 0.21549 0.0
H198 H 0.07505 0.63545 0.22332 0.0
H199 H 0.09644 0.64323 0.25291 0.0
C200 C 0.63513 0.763 0.46807 0.0
C201 C 0.63217 0.75967 0.45769 0.0
C202 C 0.64475 0.74776 0.4599 0.0
C203 C 0.63687 0.7521 0.45367 0.0
C204 C 0.64761 0.75104 0.47034 0.0
C205 C 0.64285 0.75863 0.47439 0.0
U206 U 0.62044 0.78448 0.46205 0.0
O207 O 0.60662 0.78949 0.46775 0.0
O208 O 0.62322 0.80072 0.46868 0.0
C209 C 0.61297 0.79901 0.4709 0.0
C210 C 0.63051 0.7714 0.47203 0.0
C211 C 0.61231 0.80306 0.48108 0.0
C212 C 0.61555 0.80271 0.49944 0.0
C213 C 0.61628 0.79854 0.48987 0.0
C214 C 0.60686 0.81588 0.49147 0.0
C215 C 0.61089 0.81148 0.50035 0.0
C216 C 0.60758 0.81171 0.48196 0.0
C217 C 0.61353 0.78812 0.43359 0.0
C218 C 0.60466 0.8017 0.42669 0.0
C219 C 0.61068 0.79005 0.4155 0.0
C220 C 0.61451 0.78487 0.4238 0.0
C221 C 0.6058 0.79858 0.41684 0.0
C222 C 0.60853 0.79652 0.43501 0.0
C223 C 0.61808 0.7828 0.44219 0.0
O224 O 0.63592 0.78101 0.47061 0.0
O225 O 0.61937 0.76977 0.46968 0.0
O226 O 0.61056 0.77741 0.44712 0.0
O227 O 0.62727 0.78846 0.44821 0.0
H228 H 0.62626 0.76299 0.45267 0.0
H229 H 0.63429 0.74963 0.44565 0.0
H230 H 0.65371 0.74791 0.47534 0.0
H231 H 0.6453 0.76118 0.4824 0.0
H232 H 0.6188 0.79919 0.50613 0.0
H233 H 0.61997 0.79184 0.48931 0.0
H234 H 0.60304 0.8225 0.49187 0.0
H235 H 0.60442 0.81526 0.47524 0.0
H236 H 0.60104 0.80831 0.42799 0.0
H237 H 0.61152 0.78735 0.408 0.0
H238 H 0.61833 0.77838 0.42258 0.0
H239 H 0.60776 0.79913 0.44256 0.0
C240 C 0.49796 0.41547 0.75451 0.0
C241 C 0.49838 0.41804 0.7445 0.0
C242 C 0.51908 0.42158 0.74813 0.0
C243 C 0.50886 0.42111 0.74135 0.0
C244 C 0.51858 0.41896 0.75814 0.0
C245 C 0.5081 0.41595 0.7613 0.0
U246 U 0.46584 0.40537 0.74828 0.0
O247 O 0.45416 0.39342 0.75506 0.0
O248 O 0.45244 0.40976 0.75523 0.0
C249 C 0.44914 0.40034 0.7584 0.0
C250 C 0.48698 0.41211 0.75785 0.0
C251 C 0.44777 0.40011 0.7691 0.0
C252 C 0.45319 0.39563 0.78638 0.0
C253 C 0.45504 0.39617 0.77639 0.0
C254 C 0.43701 0.40323 0.782 0.0
C255 C 0.44412 0.39911 0.78928 0.0
C256 C 0.43881 0.40369 0.77201 0.0
C257 C 0.45119 0.40027 0.72044 0.0
C258 C 0.43174 0.38998 0.71465 0.0
C259 C 0.44169 0.40069 0.70309 0.0
C260 C 0.45129 0.40396 0.71078 0.0
C261 C 0.43183 0.39362 0.70492 0.0
C262 C 0.44132 0.39331 0.72236 0.0
C263 C 0.46144 0.4037 0.72837 0.0
O264 O 0.48005 0.41834 0.75586 0.0
O265 O 0.48187 0.40205 0.75578 0.0
O266 O 0.46428 0.39625 0.7338 0.0
O267 O 0.46226 0.41248 0.73383 0.0
H268 H 0.49061 0.41762 0.73912 0.0
H269 H 0.50894 0.42295 0.73355 0.0
H270 H 0.5263 0.41935 0.76357 0.0
H271 H 0.50792 0.41398 0.76905 0.0
H272 H 0.45886 0.39251 0.79185 0.0
H273 H 0.46208 0.39343 0.77435 0.0
H274 H 0.42988 0.40585 0.78397 0.0
H275 H 0.4331 0.40673 0.76651 0.0
H276 H 0.42421 0.38463 0.71632 0.0
H277 H 0.44206 0.40356 0.69566 0.0
H278 H 0.45884 0.40934 0.70917 0.0
H279 H 0.44105 0.39044 0.7298 0.0
C280 C 0.84417 0.21474 0.95402 0.0
C281 C 0.84473 0.20425 0.95511 0.0
C282 C 0.84862 0.20751 0.97352 0.0
C283 C 0.84686 0.20065 0.96474 0.0
C284 C 0.84818 0.21808 0.97237 0.0
C285 C 0.84596 0.22165 0.9627 0.0
U286 U 0.84503 0.21148 0.92627 0.0
O287 O 0.83232 0.2115 0.91262 0.0
O288 O 0.849 0.22286 0.91494 0.0
C289 C 0.83877 0.21969 0.90934 0.0
C290 C 0.84188 0.21846 0.94383 0.0
C291 C 0.83314 0.22805 0.90607 0.0
C292 C 0.82264 0.24101 0.90931 0.0
C293 C 0.82833 0.23335 0.91276 0.0
C294 C 0.82667 0.23817 0.89251 0.0
C295 C 0.82166 0.24344 0.89911 0.0
C296 C 0.83233 0.23054 0.89596 0.0
C297 C 0.85719 0.18893 0.91796 0.0
C298 C 0.85524 0.18271 0.90031 0.0
C299 C 0.86545 0.17465 0.91362 0.0
C300 C 0.86345 0.18154 0.9209 0.0
C301 C 0.86117 0.17501 0.90326 0.0
C302 C 0.85326 0.18961 0.90761 0.0
C303 C 0.85438 0.19545 0.92579 0.0
O304 O 0.85096 0.22252 0.94001 0.0
O305 O 0.83383 0.21191 0.9373 0.0
O306 O 0.84344 0.1944 0.92553 0.0
O307 O 0.86033 0.20531 0.9273 0.0
H308 H 0.84345 0.19879 0.9485 0.0
H309 H 0.84693 0.19243 0.96529 0.0
H310 H 0.84967 0.22363 0.97894 0.0
H311 H 0.84566 0.22981 0.96199 0.0
H312 H 0.81883 0.24487 0.91457 0.0
H313 H 0.82888 0.23148 0.9206 0.0
H314 H 0.82627 0.23999 0.88467 0.0
H315 H 0.83604 0.22654 0.89071 0.0
H316 H 0.85176 0.18312 0.8924 0.0
H317 H 0.8702 0.16893 0.91613 0.0
H318 H 0.8666 0.18096 0.92886 0.0
H319 H 0.8484 0.1953 0.90523 0.0
C320 C 0.20414 0.9962 0.34475 0.0
C321 C 0.20541 0.00705 0.34382 0.0
C322 C 0.18492 0.00474 0.34199 0.0
C323 C 0.19589 0.01128 0.34242 0.0
C324 C 0.18371 0.99389 0.34303 0.0
C325 C 0.19326 0.98966 0.34438 0.0
U326 U 0.2361 1.00023 0.35091 0.0
O327 O 0.24688 0.99145 0.35998 0.0
O328 O 0.24765 0.99297 0.34386 0.0
C329 C 0.25098 0.98866 0.35216 0.0
C330 C 0.21414 0.99172 0.34612 0.0
C331 C 0.25092 0.97744 0.35084 0.0
C332 C 0.24152 0.95881 0.35026 0.0
C333 C 0.24121 0.96943 0.35132 0.0
C334 C 0.26116 0.96415 0.34807 0.0
C335 C 0.25151 0.95606 0.34863 0.0
C336 C 0.26086 0.97473 0.34917 0.0
C337 C 0.25444 0.02845 0.3573 0.0
C338 C 0.27449 0.03443 0.35638 0.0
C339 C 0.26583 0.04493 0.36637 0.0
C340 C 0.25541 0.03747 0.36367 0.0
C341 C 0.2755 0.04356 0.36271 0.0
C342 C 0.26407 0.02692 0.35373 0.0
C343 C 0.24332 0.02078 0.3545 0.0
O344 O 0.22071 0.994 0.33934 0.0
O345 O 0.21989 0.99272 0.35546 0.0
O346 O 0.24042 0.01446 0.3615 0.0
O347 O 0.24101 0.01593 0.34535 0.0
H348 H 0.21378 0.01224 0.34418 0.0
H349 H 0.19712 0.01968 0.34178 0.0
H350 H 0.17537 0.98864 0.34265 0.0
H351 H 0.19213 0.98127 0.3451 0.0
H352 H 0.23391 0.95276 0.35062 0.0
H353 H 0.23344 0.97138 0.35255 0.0
H354 H 0.26902 0.96232 0.34696 0.0
H355 H 0.26843 0.98082 0.3488 0.0
H356 H 0.28171 0.03315 0.35333 0.0
H357 H 0.26632 0.05174 0.37142 0.0
H358 H 0.2481 0.03874 0.36656 0.0
H359 H 0.26353 0.01997 0.34885 0.0
C360 C 0.20885 0.96949 0.65457 0.0
C361 C 0.1972 0.96617 0.65041 0.0
C362 C 0.19656 0.94878 0.65655 0.0
C363 C 0.19113 0.95589 0.65135 0.0
C364 C 0.20827 0.95216 0.66064 0.0
C365 C 0.21436 0.96244 0.65966 0.0
U366 U 0.20895 0.99786 0.6499 0.0
O367 O 0.21988 0.01277 0.65766 0.0
O368 O 0.21924 0.00922 0.6414 0.0
C369 C 0.2242 0.01557 0.64957 0.0
C370 C 0.21518 0.98039 0.65389 0.0
C371 C 0.2367 0.01912 0.651 0.0
C372 C 0.2557 0.01969 0.66023 0.0
C373 C 0.24387 0.01599 0.659 0.0
C374 C 0.25333 0.0295 0.64538 0.0
C375 C 0.26055 0.02648 0.65341 0.0
C376 C 0.24153 0.02588 0.64421 0.0
C377 C 0.18091 0.00571 0.64359 0.0
C378 C 0.1803 0.02409 0.64293 0.0
C379 C 0.16309 0.01025 0.63731 0.0
C380 C 0.16923 1.00264 0.63961 0.0
C381 C 0.16855 0.02107 0.63899 0.0
C382 C 0.18644 0.01647 0.64518 0.0
C383 C 0.18726 0.99764 0.64604 0.0
O384 O 0.21396 0.98379 0.64477 0.0
O385 O 0.21446 0.98727 0.66098 0.0
O386 O 0.19329 0.99878 0.65527 0.0
O387 O 0.19278 0.99533 0.63905 0.0
H388 H 0.1928 0.97153 0.64648 0.0
H389 H 0.18217 0.95352 0.64797 0.0
H390 H 0.21269 0.94695 0.66481 0.0
H391 H 0.22333 0.96491 0.66297 0.0
H392 H 0.26106 0.01718 0.66644 0.0
H393 H 0.24034 0.01071 0.66431 0.0
H394 H 0.2568 0.03483 0.64009 0.0
H395 H 0.23615 0.0284 0.63801 0.0
H396 H 0.18477 0.03235 0.6442 0.0
H397 H 0.15402 0.00767 0.63438 0.0
H398 H 0.16484 0.99436 0.63833 0.0
H399 H 0.1955 0.01898 0.64817 0.0
C400 C 0.26159 0.03984 0.88668 0.0
C401 C 0.25122 0.03855 0.89009 0.0
C402 C 0.25255 0.05739 0.88967 0.0
C403 C 0.24672 0.04723 0.89153 0.0
C404 C 0.26302 0.05865 0.88636 0.0
C405 C 0.26748 0.04993 0.88485 0.0
U406 U 0.2613 0.01152 0.89106 0.0
O407 O 0.26181 0.99818 0.8809 0.0
O408 O 0.27511 1.00335 0.89451 0.0
C409 C 0.27152 0.99712 0.88608 0.0
C410 C 0.26629 0.03067 0.88514 0.0
C411 C 0.28025 0.99566 0.88019 0.0
C412 C 0.28633 0.99361 0.86404 0.0
C413 C 0.27881 0.99657 0.86966 0.0
C414 C 0.29716 0.98929 0.87943 0.0
C415 C 0.29544 0.98968 0.86882 0.0
C416 C 0.28962 0.9922 0.88503 0.0
C417 C 0.23949 0.9973 0.90653 0.0
C418 C 0.23973 0.98285 0.91743 0.0
C419 C 0.22176 0.98553 0.90883 0.0
C420 C 0.22757 0.99421 0.90448 0.0
C421 C 0.22775 0.97978 0.91542 0.0
C422 C 0.24555 0.99152 0.91301 0.0
C423 C 0.24529 0.00666 0.90196 0.0
O424 O 0.27189 0.02784 0.89339 0.0
O425 O 0.25922 0.02264 0.87942 0.0
O426 O 0.24317 0.00616 0.89199 0.0
O427 O 0.25603 0.01092 0.90592 0.0
H428 H 0.24661 0.03082 0.89163 0.0
H429 H 0.23874 0.04602 0.89423 0.0
H430 H 0.26766 0.06636 0.88479 0.0
H431 H 0.27552 0.05107 0.88225 0.0
H432 H 0.28468 0.99394 0.85589 0.0
H433 H 0.27166 0.99919 0.86569 0.0
H434 H 0.30419 0.98648 0.88339 0.0
H435 H 0.29091 0.9914 0.89312 0.0
H436 H 0.24462 0.97867 0.92254 0.0
H437 H 0.21255 0.98328 0.90692 0.0
H438 H 0.22272 0.99853 0.89949 0.0
H439 H 0.25477 0.99371 0.91473 0.0
C440 C 0.26584 0.021 0.14672 0.0
C441 C 0.26281 0.01011 0.14767 0.0
C442 C 0.25025 0.01262 0.15923 0.0
C443 C 0.25511 0.00596 0.15389 0.0
C444 C 0.25322 0.02354 0.15817 0.0
C445 C 0.26099 0.0277 0.15197 0.0
U446 U 0.28315 0.01644 0.12708 0.0
O447 O 0.28733 0.02511 0.11395 0.0
O448 O 0.30102 0.02339 0.12612 0.0
C449 C 0.29829 0.02787 0.11776 0.0
C450 C 0.27406 0.02534 0.14028 0.0
C451 C 0.3038 0.03915 0.11801 0.0
C452 C 0.30531 0.05746 0.12333 0.0
C453 C 0.29969 0.04677 0.12282 0.0
C454 C 0.31915 0.05299 0.1142 0.0
C455 C 0.31516 0.06069 0.1191 0.0
C456 C 0.3135 0.04232 0.11367 0.0
C457 C 0.28017 0.98789 0.11725 0.0
C458 C 0.29313 0.98252 0.10756 0.0
C459 C 0.27615 0.96982 0.11004 0.0
C460 C 0.27317 0.97763 0.11561 0.0
C461 C 0.28623 0.97215 0.10603 0.0
C462 C 0.29011 0.99034 0.11311 0.0
C463 C 0.27712 0.99583 0.12354 0.0
O464 O 0.28396 0.02299 0.14258 0.0
O465 O 0.26997 0.02417 0.13048 0.0
O466 O 0.27164 1.00213 0.11857 0.0
O467 O 0.28518 1.00079 0.13106 0.0
H468 H 0.26641 0.00481 0.14361 0.0
H469 H 0.25285 0.99751 0.1544 0.0
H470 H 0.24967 0.02887 0.16223 0.0
H471 H 0.26324 0.03613 0.1513 0.0
H472 H 0.30193 0.06318 0.12706 0.0
H473 H 0.2922 0.04444 0.12623 0.0
H474 H 0.3268 0.05517 0.11101 0.0
H475 H 0.31682 0.03652 0.10998 0.0
H476 H 0.30087 0.98459 0.10448 0.0
H477 H 0.27073 0.96189 0.10911 0.0
H478 H 0.26548 0.97561 0.11878 0.0
H479 H 0.29558 0.99826 0.11427 0.0
C480 C 0.4212 0.30044 0.05553 0.0
C481 C 0.41791 0.29971 0.06504 0.0
C482 C 0.42021 0.28174 0.06555 0.0
C483 C 0.41736 0.29043 0.06998 0.0
C484 C 0.42366 0.28256 0.05608 0.0
C485 C 0.42411 0.29183 0.0511 0.0
U486 U 0.42449 0.32998 0.05664 0.0
O487 O 0.43371 0.34227 0.04822 0.0
O488 O 0.41527 0.33981 0.04736 0.0
C489 C 0.42434 0.34477 0.04396 0.0
C490 C 0.42175 0.31018 0.05028 0.0
C491 C 0.42288 0.34579 0.03294 0.0
C492 C 0.41329 0.33969 0.01561 0.0
C493 C 0.41512 0.33809 0.02596 0.0
C494 C 0.42725 0.3565 0.01906 0.0
C495 C 0.41926 0.34897 0.01206 0.0
C496 C 0.42901 0.35492 0.02939 0.0
C497 C 0.42882 0.3447 0.08274 0.0
C498 C 0.42502 0.36182 0.08589 0.0
C499 C 0.43618 0.35454 0.09917 0.0
C500 C 0.43502 0.34562 0.09265 0.0
C501 C 0.43108 0.36269 0.0959 0.0
C502 C 0.42395 0.35292 0.07934 0.0
C503 C 0.42731 0.33502 0.07618 0.0
O504 O 0.41322 0.31457 0.05053 0.0
O505 O 0.43172 0.31703 0.05208 0.0
O506 O 0.4358 0.3346 0.07154 0.0
O507 O 0.41726 0.33155 0.07032 0.0
H508 H 0.41576 0.30632 0.06866 0.0
H509 H 0.41483 0.29009 0.07733 0.0
H510 H 0.42584 0.27598 0.05245 0.0
H511 H 0.42672 0.29227 0.04379 0.0
H512 H 0.40719 0.33368 0.01039 0.0
H513 H 0.41034 0.33094 0.02852 0.0
H514 H 0.43189 0.36377 0.01659 0.0
H515 H 0.43502 0.36097 0.03466 0.0
H516 H 0.42111 0.36803 0.08312 0.0
H517 H 0.44079 0.35493 0.10686 0.0
H518 H 0.43885 0.33935 0.0954 0.0
H519 H 0.41921 0.35241 0.07168 0.0
C520 C 1.00424 0.92076 0.2597 0.0
C521 C 1.00518 0.92316 0.24973 0.0
C522 C 0.02572 0.92552 0.25387 0.0
C523 C 0.01583 0.92557 0.24685 0.0
C524 C 0.02472 0.9231 0.26385 0.0
C525 C 0.01406 0.92076 0.26674 0.0
U526 U 0.97213 0.91152 0.25256 0.0
O527 O 0.95974 0.90018 0.25923 0.0
O528 O 0.9586 0.91666 0.25871 0.0
C529 C 0.95482 0.90741 0.26205 0.0
C530 C 0.99304 0.91796 0.26272 0.0
C531 C 0.95306 0.9076 0.27263 0.0
C532 C 0.9585 0.90457 0.29036 0.0
C533 C 0.96069 0.9048 0.28046 0.0
C534 C 0.94125 0.91028 0.28478 0.0
C535 C 0.94872 0.90726 0.29261 0.0
C536 C 0.94339 0.91042 0.27489 0.0
C537 C 0.95864 0.90558 0.2245 0.0
C538 C 0.93864 0.89696 0.2187 0.0
C539 C 0.95046 0.90375 0.20655 0.0
C540 C 0.95981 0.90723 0.21445 0.0
C541 C 0.93977 0.89851 0.20856 0.0
C542 C 0.948 0.90048 0.2266 0.0
C543 C 0.96863 0.90909 0.23267 0.0
O544 O 0.98645 0.92438 0.26016 0.0
O545 O 0.98764 0.90795 0.26091 0.0
O546 O 0.97093 0.90177 0.23855 0.0
O547 O 0.96943 0.91811 0.23774 0.0
H548 H 0.99765 0.92309 0.24416 0.0
H549 H 0.0163 0.92726 0.23907 0.0
H550 H 0.0322 0.92309 0.26945 0.0
H551 H 0.01348 0.91889 0.27446 0.0
H552 H 0.96447 0.90232 0.29626 0.0
H553 H 0.96827 0.90268 0.27892 0.0
H554 H 0.93357 0.91227 0.28624 0.0
H555 H 0.9374 0.9126 0.26895 0.0
H556 H 0.93058 0.89286 0.22052 0.0
H557 H 0.9516 0.90524 0.19886 0.0
H558 H 0.96796 0.91121 0.21271 0.0
H559 H 0.94696 0.89915 0.23434 0.0
C560 C 0.09831 0.69914 0.58916 0.0
C561 C 0.09317 0.69877 0.59775 0.0
C562 C 0.10076 0.71774 0.60158 0.0
C563 C 0.09433 0.70799 0.60387 0.0
C564 C 0.10573 0.71807 0.59286 0.0
C565 C 0.1045 0.70885 0.58671 0.0
U566 U 0.0961 0.66982 0.58775 0.0
O567 O 0.08751 0.65703 0.57593 0.0
O568 O 0.10606 0.66046 0.58096 0.0
C569 C 0.09712 0.65496 0.57453 0.0
C570 C 0.09799 0.68938 0.58319 0.0
C571 C 0.09867 0.65378 0.56397 0.0
C572 C 0.09619 0.65849 0.54652 0.0
C573 C 0.09476 0.66002 0.55656 0.0
C574 C 0.10561 0.64462 0.5513 0.0
C575 C 0.10159 0.65073 0.54377 0.0
C576 C 0.10413 0.64612 0.56128 0.0
C577 C 0.09324 0.65508 0.61123 0.0
C578 C 0.09657 0.63753 0.61203 0.0
C579 C 0.08931 0.64497 0.62555 0.0
C580 C 0.08948 0.65414 0.6205 0.0
C581 C 0.09298 0.63661 0.62142 0.0
C582 C 0.09665 0.64667 0.60695 0.0
C583 C 0.09387 0.6649 0.60617 0.0
O584 O 0.10681 0.68541 0.58594 0.0
O585 O 0.08822 0.68222 0.58151 0.0
O586 O 0.08515 0.66487 0.59897 0.0
O587 O 0.10374 0.66898 0.60363 0.0
H588 H 0.08843 0.69133 0.59983 0.0
H589 H 0.09024 0.70745 0.61043 0.0
H590 H 0.11087 0.72539 0.59094 0.0
H591 H 0.10863 0.70926 0.58017 0.0
H592 H 0.09292 0.66328 0.5409 0.0
H593 H 0.09056 0.66602 0.5585 0.0
H594 H 0.11002 0.63873 0.54952 0.0
H595 H 0.10726 0.64128 0.56692 0.0
H596 H 0.09931 0.63117 0.60861 0.0
H597 H 0.08659 0.64453 0.63282 0.0
H598 H 0.08681 0.66057 0.6239 0.0
H599 H 0.09951 0.64723 0.59974 0.0
C600 C 0.9858 0.61186 0.79789 0.0
C601 C 0.98121 0.6207 0.79822 0.0
C602 C 0.97383 0.61519 0.8134 0.0
C603 C 0.97533 0.62237 0.80591 0.0
C604 C 0.97843 0.60632 0.81304 0.0
C605 C 0.98439 0.60469 0.80535 0.0
U606 U 0.99099 0.61711 0.77153 0.0
O607 O 1.00651 0.62005 0.76489 0.0
O608 O 0.99207 0.60666 0.75873 0.0
C609 C 1.00261 0.61165 0.75843 0.0
C610 C 0.99159 0.60992 0.78954 0.0
C611 C 0.01059 0.60506 0.75744 0.0
C612 C 0.01842 0.58999 0.76162 0.0
C613 C 0.01102 0.59634 0.76315 0.0
C614 C 0.02511 0.60114 0.7488 0.0
C615 C 0.02553 0.59231 0.75439 0.0
C616 C 0.01773 0.60744 0.75032 0.0
C617 C 0.97499 0.63582 0.75764 0.0
C618 C 0.97312 0.63786 0.73955 0.0
C619 C 0.96573 0.64891 0.75019 0.0
C620 C 0.96952 0.64395 0.75867 0.0
C621 C 0.9673 0.6458 0.74049 0.0
C622 C 0.97694 0.63291 0.74806 0.0
C623 C 0.97812 0.63021 0.76655 0.0
O624 O 0.98482 0.60475 0.78134 0.0
O625 O 0.99923 0.61809 0.78755 0.0
O626 O 0.98875 0.63333 0.7713 0.0
O627 O 0.9743 0.61989 0.76541 0.0
H628 H 0.98207 0.62625 0.79244 0.0
H629 H 0.97174 0.62917 0.80587 0.0
H630 H 0.97748 0.60069 0.81873 0.0
H631 H 0.98782 0.5978 0.80519 0.0
H632 H 0.01859 0.58329 0.76609 0.0
H633 H 1.00559 0.5944 0.76871 0.0
H634 H 0.03028 0.60306 0.74305 0.0
H635 H 0.01748 0.6141 0.74581 0.0
H636 H 0.97439 0.63521 0.73219 0.0
H637 H 0.96146 0.65512 0.75122 0.0
H638 H 0.96801 0.64633 0.76603 0.0
H639 H 0.98118 0.62664 0.74714 0.0
C640 C 0.08531 0.20845 0.45893 0.0
C641 C 0.08935 0.20811 0.44979 0.0
C642 C 0.08946 0.22657 0.44806 0.0
C643 C 0.09145 0.21709 0.44444 0.0
C644 C 0.08524 0.22685 0.45715 0.0
C645 C 0.08322 0.21785 0.46256 0.0
U646 U 0.07986 0.17895 0.45867 0.0
O647 O 0.08681 0.16852 0.46904 0.0
O648 O 0.06836 0.16715 0.46587 0.0
C649 C 0.07683 0.16405 0.47121 0.0
C650 C 0.0831 0.19894 0.46453 0.0
C651 C 0.07642 0.16272 0.48201 0.0
C652 C 0.08496 0.16642 0.49991 0.0
C653 C 0.08482 0.16879 0.48981 0.0
C654 C 0.068 0.15223 0.4946 0.0
C655 C 0.07666 0.15799 0.50239 0.0
C656 C 0.06791 0.15456 0.48451 0.0
C657 C 0.07862 0.16381 0.43338 0.0
C658 C 0.08405 0.14746 0.43016 0.0
C659 C 0.06998 0.15267 0.41781 0.0
C660 C 0.07104 0.16178 0.42404 0.0
C661 C 0.07655 0.14547 0.42076 0.0
C662 C 0.08503 0.15652 0.43645 0.0
C663 C 0.07985 0.17367 0.43963 0.0
O664 O 0.07292 0.19257 0.4617 0.0
O665 O 0.09129 0.19395 0.46571 0.0
O666 O 0.08919 0.17677 0.44652 0.0
O667 O 0.07067 0.17475 0.44291 0.0
H668 H 0.09087 0.20087 0.44679 0.0
H669 H 0.09452 0.21658 0.43738 0.0
H670 H 0.08367 0.23406 0.46014 0.0
H671 H 0.08003 0.21823 0.46958 0.0
H672 H 0.09165 0.17108 0.50577 0.0
H673 H 0.09146 0.17516 0.48809 0.0
H674 H 0.06157 0.14562 0.49623 0.0
H675 H 0.06139 0.14975 0.47861 0.0
H676 H 0.08914 0.14199 0.43266 0.0
H677 H 0.06422 0.1514 0.41055 0.0
H678 H 0.06603 0.1673 0.42152 0.0
H679 H 0.09087 0.15784 0.44366 0.0
C680 C 0.51486 0.39602 0.29103 0.0
C681 C 0.51111 0.39227 0.28079 0.0
C682 C 0.4994 0.4049 0.2783 0.0
C683 C 0.50344 0.39663 0.2745 0.0
C684 C 0.50316 0.40864 0.28859 0.0
C685 C 0.51083 0.40422 0.29491 0.0
U686 U 0.53714 0.38085 0.29202 0.0
O687 O 0.55451 0.38358 0.30079 0.0
O688 O 0.54186 0.36886 0.3018 0.0
C689 C 0.5522 0.37472 0.3052 0.0
C690 C 0.52348 0.39178 0.29738 0.0
C691 C 0.55612 0.37554 0.31623 0.0
C692 C 0.55752 0.38364 0.33314 0.0
C693 C 0.55314 0.38266 0.3227 0.0
C694 C 0.56764 0.37021 0.33069 0.0
C695 C 0.56489 0.37747 0.33724 0.0
C696 C 0.56329 0.36927 0.32029 0.0
C697 C 0.54181 0.37124 0.26617 0.0
C698 C 0.55717 0.36304 0.26419 0.0
C699 C 0.54515 0.36714 0.24937 0.0
C700 C 0.53887 0.3711 0.25561 0.0
C701 C 0.5545 0.36325 0.25359 0.0
C702 C 0.55088 0.36705 0.27045 0.0
C703 C 0.53579 0.37641 0.27255 0.0
O704 O 0.52121 0.38142 0.29712 0.0
O705 O 0.53401 0.39611 0.29648 0.0
O706 O 0.54187 0.38536 0.27746 0.0
O707 O 0.52966 0.37029 0.27813 0.0
H708 H 0.51427 0.38606 0.27761 0.0
H709 H 0.5009 0.3937 0.26659 0.0
H710 H 0.50016 0.41497 0.29174 0.0
H711 H 0.51371 0.40727 0.30278 0.0
H712 H 0.55515 0.38923 0.33798 0.0
H713 H 0.54757 0.38755 0.31968 0.0
H714 H 0.57343 0.36547 0.33355 0.0
H715 H 0.56569 0.36375 0.31539 0.0
H716 H 0.56438 0.36016 0.26766 0.0
H717 H 0.54279 0.36727 0.24123 0.0
H718 H 0.53188 0.3743 0.2522 0.0
H719 H 0.55328 0.36715 0.27861 0.0
C720 C 0.28723 0.76699 0.89934 0.0
C721 C 0.28671 0.76642 0.88881 0.0
C722 C 0.28572 0.74761 0.88862 0.0
C723 C 0.28593 0.75682 0.88349 0.0
C724 C 0.28597 0.74818 0.89916 0.0
C725 C 0.28674 0.75782 0.90448 0.0
U726 U 0.29552 0.79647 0.8995 0.0
O727 O 0.28925 0.80905 0.90623 0.0
O728 O 0.30718 0.80867 0.91057 0.0
C729 C 0.29909 0.81317 0.91221 0.0
C730 C 0.28914 0.77729 0.90498 0.0
C731 C 0.29868 0.81538 0.92293 0.0
C732 C 0.29639 0.80954 0.93959 0.0
C733 C 0.2962 0.8072 0.92928 0.0
C734 C 0.30139 0.82822 0.9372 0.0
C735 C 0.29907 0.82009 0.94369 0.0
C736 C 0.30119 0.82588 0.92693 0.0
C737 C 0.30299 0.80771 0.87491 0.0
C738 C 0.31534 0.82489 0.87358 0.0
C739 C 0.30311 0.81498 0.85852 0.0
C740 C 0.29895 0.80688 0.86442 0.0
C741 C 0.31145 0.824 0.86303 0.0
C742 C 0.3111 0.81684 0.87948 0.0
C743 C 0.29897 0.79884 0.88087 0.0
O744 O 0.29979 0.78279 0.90678 0.0
O745 O 0.2819 0.78293 0.9017 0.0
O746 O 0.28901 0.79819 0.88344 0.0
O747 O 0.30663 0.79705 0.88826 0.0
H748 H 0.28714 0.77345 0.88472 0.0
H749 H 0.28558 0.75663 0.87537 0.0
H750 H 0.28593 0.74126 0.90334 0.0
H751 H 0.28724 0.75815 0.91262 0.0
H752 H 0.29446 0.8031 0.94434 0.0
H753 H 0.29423 0.79904 0.92629 0.0
H754 H 0.30367 0.83643 0.94012 0.0
H755 H 0.30319 0.83228 0.92213 0.0
H756 H 0.32164 0.83182 0.87727 0.0
H757 H 0.30001 0.81406 0.8504 0.0
H758 H 0.29269 0.7999 0.86076 0.0
H759 H 0.31426 0.81768 0.88759 0.0
C760 C 0.92194 0.34529 0.72294 0.0
C761 C 0.92379 0.35023 0.73276 0.0
C762 C 0.94334 0.34854 0.73582 0.0
C763 C 0.93441 0.35189 0.73911 0.0
C764 C 0.94143 0.34348 0.72603 0.0
C765 C 0.93082 0.34191 0.71962 0.0
U766 U 0.89006 0.33991 0.72026 0.0
O767 O 0.87737 0.34662 0.71102 0.0
O768 O 0.8761 0.32961 0.70918 0.0
C769 C 0.87218 0.33759 0.70577 0.0
C770 C 0.91069 0.34338 0.7163 0.0
C771 C 0.87016 0.33808 0.69471 0.0
C772 C 0.87695 0.34349 0.6793 0.0
C773 C 0.87916 0.34213 0.68968 0.0
C774 C 0.85679 0.33636 0.67882 0.0
C775 C 0.86572 0.34078 0.67379 0.0
C776 C 0.859 0.33504 0.6892 0.0
C777 C 0.8784 0.33784 0.74506 0.0
C778 C 0.85827 0.33385 0.74588 0.0
C779 C 0.87244 0.33813 0.76135 0.0
C780 C 0.88108 0.33937 0.75565 0.0
C781 C 0.86093 0.3353 0.75655 0.0
C782 C 0.86696 0.33511 0.74018 0.0
C783 C 0.8877 0.33921 0.73931 0.0
O784 O 0.90411 0.33385 0.71618 0.0
O785 O 0.90528 0.35086 0.71695 0.0
O786 O 0.88975 0.34803 0.73481 0.0
O787 O 0.88789 0.3309 0.7336 0.0
H788 H 0.91701 0.35275 0.73555 0.0
H789 H 0.93557 0.35566 0.74668 0.0
H790 H 0.94818 0.34084 0.72329 0.0
H791 H 0.92952 0.33802 0.71209 0.0
H792 H 0.88402 0.3468 0.67562 0.0
H793 H 0.88784 0.34449 0.69383 0.0
H794 H 0.84804 0.33431 0.67484 0.0
H795 H 0.85196 0.33193 0.69299 0.0
H796 H 0.8495 0.33159 0.74196 0.0
H797 H 0.8748 0.33951 0.76953 0.0
H798 H 0.88988 0.34156 0.75953 0.0
H799 H 0.86476 0.33392 0.73198 0.0
C800 C 0.36066 0.23463 0.54015 0.0
C801 C 0.36035 0.23496 0.55055 0.0
C802 C 0.35422 0.25135 0.54959 0.0
C803 C 0.35718 0.24324 0.55523 0.0
C804 C 0.35445 0.25093 0.53912 0.0
C805 C 0.35766 0.24264 0.53445 0.0
U806 U 0.36883 0.20887 0.54275 0.0
O807 O 0.36431 0.19415 0.53287 0.0
O808 O 0.38227 0.2027 0.53756 0.0
C809 C 0.37493 0.19464 0.53211 0.0
C810 C 0.36407 0.22589 0.53534 0.0
C811 C 0.37704 0.19215 0.52195 0.0
C812 C 0.37417 0.19344 0.5037 0.0
C813 C 0.37251 0.19659 0.51332 0.0
C814 C 0.38506 0.1816 0.51133 0.0
C815 C 0.38033 0.18579 0.5026 0.0
C816 C 0.38342 0.18475 0.52089 0.0
C817 C 0.36932 0.19771 0.56858 0.0
C818 C 0.37598 0.18196 0.57225 0.0
C819 C 0.36744 0.18992 0.5845 0.0
C820 C 0.36588 0.19775 0.57799 0.0
C821 C 0.37249 0.18192 0.5817 0.0
C822 C 0.37437 0.18978 0.56572 0.0
C823 C 0.36746 0.20591 0.56177 0.0
O824 O 0.37451 0.22523 0.5389 0.0
O825 O 0.35657 0.21673 0.53432 0.0
O826 O 0.3587 0.20295 0.55428 0.0
O827 O 0.37661 0.21151 0.55894 0.0
H828 H 0.36257 0.2288 0.55507 0.0
H829 H 0.35692 0.24321 0.56325 0.0
H830 H 0.3523 0.25709 0.53458 0.0
H831 H 0.35784 0.24249 0.5264 0.0
H832 H 0.37038 0.19678 0.49711 0.0
H833 H 0.36755 0.20232 0.51401 0.0
H834 H 0.39002 0.17585 0.51078 0.0
H835 H 0.38701 0.18127 0.52748 0.0
H836 H 0.37978 0.17584 0.56983 0.0
H837 H 0.36479 0.19019 0.59178 0.0
H838 H 0.36197 0.20383 0.5803 0.0
H839 H 0.37702 0.18962 0.55843 0.0
C840 C 0.50437 0.60666 0.26558 0.0
C841 C 0.50524 0.60855 0.27608 0.0
C842 C 0.4847 0.6021 0.27436 0.0
C843 C 0.49549 0.60632 0.28043 0.0
C844 C 0.4839 0.60014 0.26384 0.0
C845 C 0.49367 0.60243 0.25949 0.0
U846 U 0.53643 0.61412 0.26884 0.0
O847 O 0.54814 0.60855 0.26057 0.0
O848 O 0.5479 0.62529 0.26108 0.0
C849 C 0.55179 0.61781 0.2572 0.0
C850 C 0.51463 0.60904 0.26102 0.0
C851 C 0.55187 0.6178 0.24625 0.0
C852 C 0.54371 0.61086 0.22883 0.0
C853 C 0.54312 0.61113 0.23915 0.0
C854 C 0.56159 0.62418 0.23256 0.0
C855 C 0.553 0.61733 0.22544 0.0
C856 C 0.56103 0.62439 0.24288 0.0
C857 C 0.5538 0.6178 0.29574 0.0
C858 C 0.5741 0.62594 0.29994 0.0
C859 C 0.56455 0.61621 0.3123 0.0
C860 C 0.55425 0.61404 0.3054 0.0
C861 C 0.57458 0.62222 0.30967 0.0
C862 C 0.56379 0.6237 0.29301 0.0
C863 C 0.54287 0.61539 0.28861 0.0
O864 O 0.52074 0.61884 0.26281 0.0
O865 O 0.52081 0.60208 0.26219 0.0
O866 O 0.54053 0.60651 0.28287 0.0
O867 O 0.54046 0.62328 0.28363 0.0
H868 H 0.51347 0.61175 0.28091 0.0
H869 H 0.49642 0.60776 0.28856 0.0
H870 H 0.4757 0.59698 0.25896 0.0
H871 H 0.49287 0.60092 0.25137 0.0
H872 H 0.53691 0.60559 0.2235 0.0
H873 H 0.53592 0.60604 0.2416 0.0
H874 H 0.56891 0.62917 0.23021 0.0
H875 H 0.56786 0.62959 0.24825 0.0
H876 H 0.5817 0.6305 0.29766 0.0
H877 H 0.56462 0.61333 0.31977 0.0
H878 H 0.54661 0.60945 0.30762 0.0
H879 H 0.56362 0.62659 0.28553 0.0
C880 C 0.15159 0.80591 0.07264 0.0
C881 C 0.15071 0.81641 0.0726 0.0
C882 C 0.14929 0.81565 0.05427 0.0
C883 C 0.1496 0.82124 0.06351 0.0
C884 C 0.14999 0.80507 0.05432 0.0
C885 C 0.15117 0.80025 0.06346 0.0
U886 U 0.15106 0.8074 0.1005 0.0
O887 O 0.14485 0.79548 0.11071 0.0
O888 O 0.16279 0.80433 0.11368 0.0
C889 C 0.15504 0.79661 0.11623 0.0
C890 C 0.15297 0.80099 0.08229 0.0
C891 C 0.15856 0.7868 0.11825 0.0
C892 C 0.16742 0.77296 0.11374 0.0
C893 C 0.16386 0.78215 0.11148 0.0
C894 C 0.16023 0.77291 0.12947 0.0
C895 C 0.16564 0.76824 0.12278 0.0
C896 C 0.15673 0.7821 0.12722 0.0
C897 C 0.14361 0.83199 0.11108 0.0
C898 C 0.14634 0.83736 0.12905 0.0
C899 C 0.1381 0.8476 0.11651 0.0
C900 C 0.13891 0.84056 0.10877 0.0
C901 C 0.14201 0.84621 0.12673 0.0
C902 C 0.14715 0.8303 0.12126 0.0
C903 C 0.14528 0.82529 0.10275 0.0
O904 O 0.1617 0.80613 0.08916 0.0
O905 O 0.1436 0.7979 0.08598 0.0
O906 O 0.1378 0.81615 0.10046 0.0
O907 O 0.15582 0.82468 0.10294 0.0
H908 H 0.15092 0.82088 0.07962 0.0
H909 H 0.14889 0.82934 0.06371 0.0
H910 H 0.14983 0.80059 0.04733 0.0
H911 H 0.15181 0.79213 0.06337 0.0
H912 H 0.17147 0.7695 0.1084 0.0
H913 H 0.1653 0.78567 0.10448 0.0
H914 H 0.15887 0.76956 0.13655 0.0
H915 H 0.15268 0.7856 0.13254 0.0
H916 H 0.14949 0.83611 0.13683 0.0
H917 H 0.13455 0.85423 0.11449 0.0
H918 H 0.13609 0.84194 0.10094 0.0
H919 H 0.15079 0.82369 0.12317 0.0
C920 C 0.78766 0.01235 0.65398 0.0
C921 C 0.78694 1.00158 0.65203 0.0
C922 C 0.80725 1.00446 0.65859 0.0
C923 C 0.79664 0.99767 0.6543 0.0
C924 C 0.80793 0.01528 0.66046 0.0
C925 C 0.7982 0.01918 0.65816 0.0
U926 U 0.75575 0.00673 0.64637 0.0
O927 O 0.74311 0.01332 0.65244 0.0
O928 O 0.74465 0.01458 0.63645 0.0
C929 C 0.73981 0.01716 0.64385 0.0
C930 C 0.77736 0.01635 0.65192 0.0
C931 C 0.73883 0.02813 0.64469 0.0
C932 C 0.72697 0.04031 0.64619 0.0
C933 C 0.72825 0.03001 0.64545 0.0
C934 C 0.74689 0.04705 0.64539 0.0
C935 C 0.73626 0.04896 0.64616 0.0
C936 C 0.74818 0.0367 0.64469 0.0
C937 C 0.73917 0.97797 0.64067 0.0
C938 C 0.71881 0.97288 0.63415 0.0
C939 C 0.7289 0.95955 0.63928 0.0
C940 C 0.73906 0.96737 0.64191 0.0
C941 C 0.71864 0.9622 0.63534 0.0
C942 C 0.72899 0.9807 0.63682 0.0
C943 C 0.74993 0.98606 0.64354 0.0
O944 O 0.77205 0.01493 0.64241 0.0
O945 O 0.77044 0.01391 0.65839 0.0
O946 O 0.75144 0.99121 0.65246 0.0
O947 O 0.75281 0.99223 0.63643 0.0
H948 H 0.77884 0.99617 0.64887 0.0
H949 H 0.79577 0.98929 0.65291 0.0
H950 H 0.81598 0.02073 0.66366 0.0
H951 H 0.7989 0.02752 0.65972 0.0
H952 H 0.71863 0.04149 0.64661 0.0
H953 H 0.72094 0.02348 0.64544 0.0
H954 H 0.75423 0.05354 0.64544 0.0
H955 H 0.75644 0.03538 0.64415 0.0
H956 H 0.7111 0.97518 0.63104 0.0
H957 H 0.72906 0.95144 0.64045 0.0
H958 H 0.74684 0.96514 0.64495 0.0
H959 H 0.72893 0.98887 0.63584 0.0
C960 C 0.7196 0.96743 0.33898 0.0
C961 C 0.71778 0.9571 0.33461 0.0
C962 C 0.69757 0.95382 0.33514 0.0
C963 C 0.70684 0.95038 0.33265 0.0
C964 C 0.69943 0.96419 0.33944 0.0
C965 C 0.71034 0.97094 0.34131 0.0
U966 U 0.75164 0.97231 0.3482 0.0
O967 O 0.76598 0.98271 0.34295 0.0
O968 O 0.76339 0.98519 0.35855 0.0
C969 C 0.76902 0.98886 0.35143 0.0
C970 C 0.73108 0.97454 0.34146 0.0
C971 C 0.77051 1.00022 0.35029 0.0
C972 C 0.76467 0.01474 0.34196 0.0
C973 C 0.763 1.00392 0.34304 0.0
C974 C 0.78116 0.01827 0.35552 0.0
C975 C 0.77378 0.02203 0.34817 0.0
C976 C 0.77955 0.00745 0.35655 0.0
C977 C 0.76476 0.94946 0.35552 0.0
C978 C 0.78472 0.95234 0.36319 0.0
C979 C 0.77332 0.93459 0.35778 0.0
C980 C 0.76384 0.93859 0.35451 0.0
C981 C 0.78388 0.94143 0.36212 0.0
C982 C 0.77524 0.95633 0.35988 0.0
C983 C 0.75479 0.95355 0.35183 0.0
O984 O 0.73576 0.97578 0.35113 0.0
O985 O 0.73819 0.97337 0.33546 0.0
O986 O 0.75448 0.95723 0.34284 0.0
O987 O 0.75204 0.95966 0.35848 0.0
H988 H 0.72483 0.95418 0.33284 0.0
H989 H 0.70568 0.94239 0.32944 0.0
H990 H 0.69243 0.96708 0.34137 0.0
H991 H 0.71158 0.97887 0.34469 0.0
H992 H 0.75877 0.01741 0.33631 0.0
H993 H 0.75589 0.99846 0.33821 0.0
H994 H 0.78832 0.02369 0.36035 0.0
H995 H 0.7854 0.00473 0.36219 0.0
H996 H 0.79277 0.95781 0.36638 0.0
H997 H 0.77237 0.92615 0.35695 0.0
H998 H 0.7558 0.93318 0.35117 0.0
H999 H 0.77611 0.96477 0.36064 0.0
C1000 C 0.75267 0.96615 0.12264 0.0
C1001 C 0.76163 0.96792 0.1172 0.0
C1002 C 0.76373 0.95004 0.1194 0.0
C1003 C 0.7671 0.95995 0.11559 0.0
C1004 C 0.75465 0.94828 0.12475 0.0
C1005 C 0.74918 0.95628 0.12637 0.0
U1006 U 0.75127 0.99437 0.12 0.0
O1007 O 0.73686 1.00173 0.11633 0.0
O1008 O 0.74899 0.00645 0.13072 0.0
C1009 C 0.73953 0.00746 0.12505 0.0
C1010 C 0.74717 0.97467 0.12456 0.0
C1011 C 0.73007 0.00785 0.13032 0.0
C1012 C 0.71828 1.0018 0.14278 0.0
C1013 C 0.72693 1.00076 0.13753 0.0
C1014 C 0.71574 0.01687 0.13353 0.0
C1015 C 0.71262 0.00992 0.14088 0.0
C1016 C 0.72436 0.01584 0.12832 0.0
C1017 C 0.77268 0.01154 0.10642 0.0
C1018 C 0.7729 0.02995 0.10446 0.0
C1019 C 0.7871 0.02249 0.0985 0.0
C1020 C 0.7822 0.01273 0.10176 0.0
C1021 C 0.78255 0.03124 0.09987 0.0
C1022 C 0.76801 0.02018 0.10771 0.0
C1023 C 0.76784 1.00133 0.11009 0.0
O1024 O 0.75358 0.98255 0.13088 0.0
O1025 O 0.74168 0.9778 0.11641 0.0
O1026 O 0.75741 0.9966 0.10558 0.0
O1027 O 0.76942 1.00114 0.12001 0.0
H1028 H 0.76442 0.9755 0.11425 0.0
H1029 H 0.77393 0.96153 0.11131 0.0
H1030 H 0.75192 0.94078 0.12788 0.0
H1031 H 0.7423 0.9548 0.13061 0.0
H1032 H 0.71602 0.99625 0.14832 0.0
H1033 H 0.73124 0.99452 0.13916 0.0
H1034 H 0.71172 0.02332 0.13198 0.0
H1035 H 0.72671 0.02142 0.12282 0.0
H1036 H 0.7691 0.03649 0.10552 0.0
H1037 H 0.79461 0.02324 0.09512 0.0
H1038 H 0.78593 0.00613 0.10074 0.0
H1039 H 0.76063 0.01937 0.1113 0.0
C1040 C 0.71771 0.96541 0.89258 0.0
C1041 C 0.70878 0.96359 0.89804 0.0
C1042 C 0.70531 0.94465 0.8941 0.0
C1043 C 0.70265 0.95329 0.89882 0.0
C1044 C 0.71444 0.94654 0.88881 0.0
C1045 C 0.72058 0.95684 0.88805 0.0
U1046 U 0.72024 0.99482 0.89528 0.0
O1047 O 0.73528 0.00827 0.89896 0.0
O1048 O 0.72352 0.00679 0.8844 0.0
C1049 C 0.73333 0.01184 0.88997 0.0
C1050 C 0.72364 0.97622 0.89111 0.0
C1051 C 0.743 0.01393 0.88463 0.0
C1052 C 0.75452 0.00795 0.87373 0.0
C1053 C 0.74545 0.00578 0.87899 0.0
C1054 C 0.75889 0.02638 0.87987 0.0
C1055 C 0.76133 0.01828 0.8741 0.0
C1056 C 0.74979 0.02422 0.88507 0.0
C1057 C 0.69835 0.00468 0.90747 0.0
C1058 C 0.69896 0.02331 0.90998 0.0
C1059 C 0.68236 0.01008 0.91244 0.0
C1060 C 0.68752 1.00212 0.91003 0.0
C1061 C 0.68797 0.02077 0.91234 0.0
C1062 C 0.70409 0.01532 0.90752 0.0
C1063 C 0.70327 0.99617 0.90433 0.0
O1064 O 0.71777 0.98101 0.88456 0.0
O1065 O 0.72882 0.98221 0.89946 0.0
O1066 O 0.71349 0.99626 0.90929 0.0
O1067 O 0.70211 0.99428 0.89447 0.0
H1068 H 0.70641 0.97015 0.90152 0.0
H1069 H 0.69558 0.95212 0.90284 0.0
H1070 H 0.71677 0.94004 0.88519 0.0
H1071 H 0.72745 0.95813 0.8838 0.0
H1072 H 0.75626 1.00153 0.86945 0.0
H1073 H 0.74031 0.99776 0.87862 0.0
H1074 H 0.76388 0.03444 0.8802 0.0
H1075 H 0.748 0.0306 0.88938 0.0
H1076 H 0.70343 0.03146 0.90973 0.0
H1077 H 0.67395 0.00788 0.91434 0.0
H1078 H 0.68298 0.99394 0.91002 0.0
H1079 H 0.71245 0.01742 0.90548 0.0
C1080 C 0.58124 0.70719 0.95873 0.0
C1081 C 0.58047 0.70681 0.94817 0.0
C1082 C 0.58439 0.72598 0.94876 0.0
C1083 C 0.58201 0.71611 0.94323 0.0
C1084 C 0.58515 0.72631 0.95936 0.0
C1085 C 0.58357 0.71697 0.9643 0.0
U1086 U 0.57862 0.67793 0.95735 0.0
O1087 O 0.58621 0.66779 0.96762 0.0
O1088 O 0.56759 0.66495 0.96368 0.0
C1089 C 0.57629 0.66243 0.96927 0.0
C1090 C 0.57986 0.69738 0.9639 0.0
C1091 C 0.57543 0.66065 0.97993 0.0
C1092 C 0.58264 0.66461 0.99804 0.0
C1093 C 0.58289 0.66718 0.98804 0.0
C1094 C 0.56716 0.64925 0.99198 0.0
C1095 C 0.57488 0.65553 1.00011 0.0
C1096 C 0.56747 0.65177 0.982 0.0
C1097 C 0.57999 0.66458 0.932 0.0
C1098 C 0.57421 0.64564 0.92767 0.0
C1099 C 0.58631 0.65694 0.91796 0.0
C1100 C 0.58611 0.66575 0.92405 0.0
C1101 C 0.58034 0.64679 0.91968 0.0
C1102 C 0.57409 0.65446 0.93383 0.0
C1103 C 0.58005 0.67398 0.93838 0.0
O1104 O 0.57016 0.69036 0.9607 0.0
O1105 O 0.58872 0.69326 0.96496 0.0
O1106 O 0.58901 0.67721 0.94565 0.0
O1107 O 0.57042 0.67412 0.94132 0.0
H1108 H 0.57877 0.69932 0.94376 0.0
H1109 H 0.58155 0.71558 0.93509 0.0
H1110 H 0.58689 0.73377 0.96383 0.0
H1111 H 0.5842 0.71739 0.97247 0.0
H1112 H 0.5886 0.66966 1.00416 0.0
H1113 H 0.58908 0.67411 0.98665 0.0
H1114 H 0.56117 0.64214 0.99331 0.0
H1115 H 0.56168 0.64661 0.97585 0.0
H1116 H 0.56961 0.6379 0.92923 0.0
H1117 H 0.591 0.65809 0.91179 0.0
H1118 H 0.59074 0.6735 0.92256 0.0
H1119 H 0.56941 0.65338 0.94001 0.0
C1120 C 1.00391 0.10163 0.76489 0.0
C1121 C 1.00412 0.09767 0.77449 0.0
C1122 C 0.98387 0.09653 0.77312 0.0
C1123 C 0.99418 0.09509 0.77854 0.0
C1124 C 0.98372 0.10056 0.76354 0.0
C1125 C 0.99366 0.10306 0.75945 0.0
U1126 U 0.0361 0.11029 0.76869 0.0
O1127 O 0.04829 0.10538 0.76055 0.0
O1128 O 0.04724 0.12191 0.76106 0.0
C1129 C 0.05159 0.11474 0.75723 0.0
C1130 C 0.01437 0.10455 0.76064 0.0
C1131 C 0.05179 0.11488 0.74632 0.0
C1132 C 0.04385 0.10813 0.72881 0.0
C1133 C 0.04316 0.10821 0.73911 0.0
C1134 C 0.06159 0.12162 0.73279 0.0
C1135 C 0.05312 0.11478 0.72555 0.0
C1136 C 0.06094 0.12164 0.74308 0.0
C1137 C 0.05342 0.11472 0.79571 0.0
C1138 C 0.07245 0.11258 0.80207 0.0
C1139 C 0.06528 0.1256 0.81049 0.0
C1140 C 0.05504 0.12266 0.80351 0.0
C1141 C 0.07408 0.12057 0.80986 0.0
C1142 C 0.06223 0.10971 0.79502 0.0
C1143 C 0.04248 0.11179 0.78847 0.0
O1144 O 0.02005 0.11447 0.76263 0.0
O1145 O 0.02094 0.09791 0.76178 0.0
O1146 O 0.04036 0.10288 0.78278 0.0
O1147 O 0.03965 0.1195 0.78346 0.0
H1148 H 0.012 0.09664 0.77887 0.0
H1149 H 0.9946 0.09215 0.786 0.0
H1150 H 0.97589 0.10168 0.75916 0.0
H1151 H 0.99336 0.10615 0.75206 0.0
H1152 H 0.03714 0.10287 0.7234 0.0
H1153 H 0.03598 0.10299 0.74146 0.0
H1154 H 0.0689 0.12674 0.73054 0.0
H1155 H 0.06767 0.12683 0.74854 0.0
H1156 H 0.07912 0.10864 0.80135 0.0
H1157 H 0.06624 0.1317 0.81648 0.0
H1158 H 0.04835 0.1266 0.80422 0.0
H1159 H 0.06127 0.10359 0.78905 0.0
C1160 C 0.78929 0.27656 0.39615 0.0
C1161 C 0.78911 0.27597 0.38566 0.0
C1162 C 0.7886 0.25726 0.38567 0.0
C1163 C 0.78873 0.26642 0.38047 0.0
C1164 C 0.7885 0.25784 0.39615 0.0
C1165 C 0.78888 0.26743 0.40135 0.0
U1166 U 0.7971 0.30605 0.39629 0.0
O1167 O 0.79019 0.31843 0.40256 0.0
O1168 O 0.80813 0.31839 0.40757 0.0
C1169 C 0.79979 0.32272 0.40882 0.0
C1170 C 0.79077 0.28683 0.4017 0.0
C1171 C 0.79886 0.32501 0.41939 0.0
C1172 C 0.79789 0.3197 0.43644 0.0
C1173 C 0.79812 0.31716 0.42626 0.0
C1174 C 0.79886 0.33788 0.43287 0.0
C1175 C 0.79835 0.33013 0.43988 0.0
C1176 C 0.79911 0.33534 0.42273 0.0
C1177 C 0.80557 0.3175 0.3721 0.0
C1178 C 0.8182 0.3346 0.37102 0.0
C1179 C 0.80579 0.32508 0.35586 0.0
C1180 C 0.8015 0.3169 0.36163 0.0
C1181 C 0.8143 0.33394 0.36048 0.0
C1182 C 0.81383 0.32648 0.3768 0.0
C1183 C 0.8014 0.30855 0.37793 0.0
O1184 O 0.80135 0.2925 0.40384 0.0
O1185 O 0.78349 0.29231 0.3981 0.0
O1186 O 0.79121 0.30769 0.38009 0.0
O1187 O 0.80882 0.30684 0.38557 0.0
H1188 H 0.78949 0.28297 0.38153 0.0
H1189 H 0.78862 0.26622 0.37238 0.0
H1190 H 0.78852 0.25096 0.4004 0.0
H1191 H 0.78911 0.26777 0.40947 0.0
H1192 H 0.79737 0.31353 0.44162 0.0
H1193 H 0.79787 0.30912 0.42378 0.0
H1194 H 0.7994 0.34601 0.43528 0.0
H1195 H 0.79972 0.3415 0.41752 0.0
H1196 H 0.82464 0.34141 0.3748 0.0
H1197 H 0.80267 0.32434 0.34775 0.0
H1198 H 0.79512 0.31004 0.35788 0.0
H1199 H 0.81701 0.32716 0.3849 0.0
C1200 C 0.48002 0.89137 0.73715 0.0
C1201 C 0.4804 0.8924 0.74766 0.0
C1202 C 0.46253 0.89776 0.74494 0.0
C1203 C 0.47178 0.8956 0.75152 0.0
C1204 C 0.46211 0.89658 0.73439 0.0
C1205 C 0.47081 0.89344 0.73054 0.0
U1206 U 0.50547 0.87999 0.74236 0.0
O1207 O 0.51167 0.86864 0.73373 0.0
O1208 O 0.52251 0.8846 0.73839 0.0
C1209 C 0.52125 0.87552 0.73326 0.0
C1210 C 0.48922 0.88805 0.7332 0.0
C1211 C 0.52493 0.87605 0.72335 0.0
C1212 C 0.52102 0.87393 0.70489 0.0
C1213 C 0.51713 0.8739 0.71412 0.0
C1214 C 0.54051 0.87844 0.71402 0.0
C1215 C 0.53277 0.87615 0.70474 0.0
C1216 C 0.53662 0.87838 0.72321 0.0
C1217 C 0.51294 0.87288 0.76982 0.0
C1218 C 0.52787 0.86413 0.77592 0.0
C1219 C 0.51822 0.87119 0.78782 0.0
C1220 C 0.5115 0.87462 0.77981 0.0
C1221 C 0.52652 0.86595 0.78599 0.0
C1222 C 0.52115 0.86761 0.76788 0.0
C1223 C 0.50587 0.87677 0.7616 0.0
O1224 O 0.49953 0.89375 0.737 0.0
O1225 O 0.48847 0.87785 0.73287 0.0
O1226 O 0.50009 0.86975 0.75416 0.0
O1227 O 0.51068 0.88583 0.75846 0.0
H1228 H 0.4874 0.89074 0.75289 0.0
H1229 H 0.47228 0.89626 0.75966 0.0
H1230 H 0.45514 0.89825 0.72914 0.0
H1231 H 0.47036 0.89264 0.7224 0.0
H1232 H 0.51485 0.87224 0.69788 0.0
H1233 H 0.50806 0.87212 0.71405 0.0
H1234 H 0.54959 0.88003 0.71421 0.0
H1235 H 0.54277 0.88 0.73025 0.0
H1236 H 0.53426 0.86019 0.77428 0.0
H1237 H 0.51685 0.87259 0.79546 0.0
H1238 H 0.50518 0.87866 0.78141 0.0
H1239 H 0.5224 0.86625 0.76019 0.0
C1240 C 0.94963 0.14511 0.21252 0.0
C1241 C 0.94267 0.15223 0.21196 0.0
C1242 C 0.9394 0.15016 0.19351 0.0
C1243 C 0.93765 0.15478 0.20255 0.0
C1244 C 0.94674 0.14333 0.19412 0.0
C1245 C 0.9518 0.14082 0.20357 0.0
U1246 U 0.9463 0.14122 0.23956 0.0
O1247 O 0.94611 0.12738 0.24838 0.0
O1248 O 0.95862 0.14236 0.25378 0.0
C1249 C 0.95522 0.13224 0.25499 0.0
C1250 C 0.95361 0.14132 0.22233 0.0
C1251 C 0.9641 0.12633 0.25738 0.0
C1252 C 0.96905 0.11001 0.26213 0.0
C1253 C 0.96086 0.11565 0.25923 0.0
C1254 C 0.98398 0.12561 0.26136 0.0
C1255 C 0.98072 0.11495 0.26338 0.0
C1256 C 0.97576 0.13125 0.2584 0.0
C1257 C 0.9222 0.1507 0.24853 0.0
C1258 C 0.91895 0.15004 0.26587 0.0
C1259 C 0.90455 0.15343 0.25256 0.0
C1260 C 0.91153 0.15279 0.24549 0.0
C1261 C 0.90814 0.15201 0.26284 0.0
C1262 C 0.92591 0.14935 0.25876 0.0
C1263 C 0.92912 0.14956 0.24085 0.0
O1264 O 0.95816 0.14865 0.22984 0.0
O1265 O 0.94635 0.13322 0.22489 0.0
O1266 O 0.92786 0.13984 0.23714 0.0
O1267 O 0.9398 0.15501 0.24292 0.0
H1268 H 0.94082 0.15557 0.2188 0.0
H1269 H 0.93217 0.16017 0.20234 0.0
H1270 H 0.94817 0.13954 0.18732 0.0
H1271 H 0.95706 0.13522 0.20387 0.0
H1272 H 0.96623 0.10177 0.26347 0.0
H1273 H 0.95195 0.11166 0.25855 0.0
H1274 H 0.99289 0.1297 0.26236 0.0
H1275 H 0.97856 0.13949 0.25709 0.0
H1276 H 0.92204 0.14902 0.27373 0.0
H1277 H 0.89622 0.15478 0.24991 0.0
H1278 H 0.90851 0.15377 0.23759 0.0
H1279 H 0.93413 0.14769 0.26124 0.0
C1280 C 0.53882 0.13222 0.7581 0.0
C1281 C 0.53708 0.13678 0.74885 0.0
C1282 C 0.51679 0.12831 0.74618 0.0
C1283 C 0.52615 0.13489 0.74297 0.0
C1284 C 0.51863 0.12375 0.75547 0.0
C1285 C 0.52955 0.12571 0.76137 0.0
U1286 U 0.571 0.13796 0.7604 0.0
O1287 O 0.58483 0.14771 0.77191 0.0
O1288 O 0.58339 0.13071 0.76947 0.0
C1289 C 0.58844 0.13951 0.77515 0.0
C1290 C 0.55029 0.1339 0.76427 0.0
C1291 C 0.59012 0.1385 0.78618 0.0
C1292 C 0.58635 0.14227 0.80297 0.0
C1293 C 0.58477 0.14362 0.79257 0.0
C1294 C 0.59855 0.13063 0.8007 0.0
C1295 C 0.59317 0.13568 0.80711 0.0
C1296 C 0.59707 0.13206 0.79035 0.0
C1297 C 0.58432 0.14168 0.73688 0.0
C1298 C 0.60485 0.14622 0.73814 0.0
C1299 C 0.5925 0.14147 0.72168 0.0
C1300 C 0.58297 0.14005 0.72632 0.0
C1301 C 0.60355 0.14456 0.72753 0.0
C1302 C 0.59531 0.14475 0.74277 0.0
C1303 C 0.57424 0.13985 0.74168 0.0
O1304 O 0.55559 0.12652 0.7628 0.0
O1305 O 0.55686 0.14351 0.76486 0.0
O1306 O 0.57354 0.14778 0.74764 0.0
O1307 O 0.57178 0.13071 0.74558 0.0
H1308 H 0.54416 0.14178 0.74615 0.0
H1309 H 0.52504 0.13864 0.73594 0.0
H1310 H 0.51168 0.11851 0.75811 0.0
H1311 H 0.53077 0.12205 0.76845 0.0
H1312 H 0.58204 0.1462 0.80774 0.0
H1313 H 0.57929 0.14858 0.78954 0.0
H1314 H 0.60397 0.1256 0.80371 0.0
H1315 H 0.6013 0.12807 0.78556 0.0
H1316 H 0.61325 0.14849 0.74286 0.0
H1317 H 0.59121 0.14026 0.71349 0.0
H1318 H 0.57453 0.13765 0.72167 0.0
H1319 H 0.59649 0.14595 0.75096 0.0
C1320 C 0.13343 0.2602 0.96769 0.0
C1321 C 0.12998 0.25631 0.95746 0.0
C1322 C 0.142 0.24393 0.96004 0.0
C1323 C 0.13419 0.24824 0.95369 0.0
C1324 C 0.14556 0.24794 0.97027 0.0
C1325 C 0.14127 0.25601 0.97406 0.0
U1326 U 0.11834 0.28167 0.96189 0.0
O1327 O 0.10484 0.28655 0.96823 0.0
O1328 O 0.12126 0.29788 0.96865 0.0
C1329 C 0.11122 0.29607 0.97131 0.0
C1330 C 0.12899 0.26877 0.97154 0.0
C1331 C 0.111 0.29996 0.98166 0.0
C1332 C 0.11694 0.3008 0.99997 0.0
C1333 C 0.11734 0.29686 0.99022 0.0
C1334 C 0.10381 0.31089 0.99265 0.0
C1335 C 0.11014 0.30785 1.0013 0.0
C1336 C 0.10425 0.30697 0.98295 0.0
C1337 C 0.10927 0.28545 0.93391 0.0
C1338 C 0.09955 0.29899 0.92847 0.0
C1339 C 0.10458 0.28793 0.916 0.0
C1340 C 0.10933 0.2826 0.92376 0.0
C1341 C 0.09969 0.29624 0.91826 0.0
C1342 C 0.10431 0.29364 0.93624 0.0
C1343 C 0.11464 0.27999 0.94197 0.0
O1344 O 0.13423 0.27829 0.96969 0.0
O1345 O 0.11784 0.26708 0.96961 0.0
O1346 O 0.10772 0.2744 0.94731 0.0
O1347 O 0.12411 0.28567 0.94758 0.0
H1348 H 0.12404 0.25955 0.95239 0.0
H1349 H 0.13144 0.24546 0.94575 0.0
H1350 H 0.15153 0.24476 0.97535 0.0
H1351 H 0.14407 0.25896 0.98196 0.0
H1352 H 0.12184 0.29824 0.00647 0.0
H1353 H 0.12258 0.29141 0.98934 0.0
H1354 H 0.09865 0.31643 0.99337 0.0
H1355 H 0.09932 0.30948 0.97642 0.0
H1356 H 0.09574 0.30526 0.93047 0.0
H1357 H 0.10498 0.28572 0.90824 0.0
H1358 H 0.11317 0.27632 0.92185 0.0
H1359 H 0.10419 0.29592 0.94405 0.0
C1360 C 0.3323 0.70502 0.45452 0.0
C1361 C 0.3314 0.69412 0.45451 0.0
C1362 C 0.33469 0.69536 0.47299 0.0
C1363 C 0.3325 0.68934 0.46363 0.0
C1364 C 0.33568 0.70631 0.47296 0.0
C1365 C 0.33447 0.71108 0.4638 0.0
U1366 U 0.33653 0.70595 0.42735 0.0
O1367 O 0.32529 0.70799 0.41336 0.0
O1368 O 0.34198 0.71915 0.41816 0.0
C1369 C 0.33233 0.71669 0.41161 0.0
C1370 C 0.33125 0.71011 0.4449 0.0
C1371 C 0.32715 0.72544 0.40877 0.0
C1372 C 0.31718 0.73868 0.41251 0.0
C1373 C 0.32236 0.73057 0.41561 0.0
C1374 C 0.32166 0.73658 0.39577 0.0
C1375 C 0.31669 0.74171 0.40251 0.0
C1376 C 0.32682 0.72853 0.39888 0.0
C1377 C 0.34973 0.68547 0.41676 0.0
C1378 C 0.35073 0.68401 0.39886 0.0
C1379 C 0.35792 0.67209 0.41016 0.0
C1380 C 0.35492 0.67707 0.4183 0.0
C1381 C 0.35573 0.67542 0.40032 0.0
C1382 C 0.34777 0.689 0.40702 0.0
C1383 C 0.34604 0.69024 0.42525 0.0
O1384 O 0.34092 0.71488 0.44234 0.0
O1385 O 0.32387 0.70442 0.43727 0.0
O1386 O 0.33499 0.68901 0.42425 0.0
O1387 O 0.35189 0.69987 0.42858 0.0
H1388 H 0.32982 0.68929 0.44744 0.0
H1389 H 0.3315 0.68088 0.46332 0.0
H1390 H 0.33753 0.71123 0.48 0.0
H1391 H 0.3353 0.71952 0.46396 0.0
H1392 H 0.31338 0.74245 0.41785 0.0
H1393 H 0.32253 0.72825 0.42329 0.0
H1394 H 0.32163 0.73884 0.38809 0.0
H1395 H 0.33052 0.72466 0.39352 0.0
H1396 H 0.34905 0.68682 0.39141 0.0
H1397 H 0.3616 0.66541 0.41151 0.0
H1398 H 0.35647 0.67424 0.42577 0.0
H1399 H 0.34379 0.69551 0.40572 0.0
C1400 C 0.6959 0.49079 0.84599 0.0
C1401 C 0.69697 0.50144 0.84419 0.0
C1402 C 0.67647 0.49902 0.84258 0.0
C1403 C 0.68733 0.50551 0.84245 0.0
C1404 C 0.67548 0.48838 0.84452 0.0
C1405 C 0.68512 0.48429 0.84618 0.0
U1406 U 0.72787 0.495 0.85335 0.0
O1407 O 0.73828 0.48605 0.86267 0.0
O1408 O 0.73989 0.48799 0.84676 0.0
C1409 C 0.7429 0.48356 0.85508 0.0
C1410 C 0.706 0.48644 0.84776 0.0
C1411 C 0.74321 0.47246 0.85362 0.0
C1412 C 0.73411 0.45369 0.85175 0.0
C1413 C 0.73349 0.46418 0.85323 0.0
C1414 C 0.75413 0.45971 0.85099 0.0
C1415 C 0.74444 0.45135 0.85056 0.0
C1416 C 0.75351 0.47015 0.85251 0.0
C1417 C 0.74644 0.52283 0.86021 0.0
C1418 C 0.76631 0.52644 0.86845 0.0
C1419 C 0.75886 0.54031 0.86048 0.0
C1420 C 0.74814 0.5333 0.85767 0.0
C1421 C 0.76805 0.53696 0.86593 0.0
C1422 C 0.75561 0.51941 0.86556 0.0
C1423 C 0.73515 0.51552 0.8571 0.0
O1424 O 0.71294 0.48884 0.84129 0.0
O1425 O 0.71133 0.48738 0.85724 0.0
O1426 O 0.73171 0.50916 0.86391 0.0
O1427 O 0.73319 0.51076 0.84794 0.0
H1428 H 0.70525 0.50661 0.84412 0.0
H1429 H 0.6884 0.51378 0.84113 0.0
H1430 H 0.66722 0.48316 0.84459 0.0
H1431 H 0.68415 0.47606 0.8476 0.0
H1432 H 0.72648 0.44742 0.85138 0.0
H1433 H 0.72544 0.46583 0.85403 0.0
H1434 H 0.76225 0.45819 0.85026 0.0
H1435 H 0.7611 0.47646 0.85281 0.0
H1436 H 0.77325 0.5236 0.87254 0.0
H1437 H 0.75993 0.5484 0.85851 0.0
H1438 H 0.74117 0.53606 0.85351 0.0
H1439 H 0.75449 0.51131 0.8675 0.0
C1440 C 0.71102 0.47302 0.15039 0.0
C1441 C 0.6993 0.46966 0.14654 0.0
C1442 C 0.69922 0.45197 0.15161 0.0
C1443 C 0.69346 0.45922 0.14711 0.0
C1444 C 0.71103 0.45534 0.15528 0.0
C1445 C 0.71687 0.4658 0.15467 0.0
U1446 U 0.71012 0.50144 0.14728 0.0
O1447 O 0.72014 0.51603 0.15637 0.0
O1448 O 0.72055 0.51403 0.14013 0.0
C1449 C 0.72485 0.51979 0.14876 0.0
C1450 C 0.71702 0.48414 0.15041 0.0
C1451 C 0.73731 0.52368 0.151 0.0
C1452 C 0.75624 0.52148 0.15025 0.0
C1453 C 0.74443 0.51742 0.14846 0.0
C1454 C 0.75396 0.53794 0.15745 0.0
C1455 C 0.76112 0.53182 0.1547 0.0
C1456 C 0.74216 0.53391 0.1556 0.0
C1457 C 0.68156 0.5083 0.14066 0.0
C1458 C 0.68028 0.52654 0.14062 0.0
C1459 C 0.66345 0.51239 0.13459 0.0
C1460 C 0.66991 0.50498 0.13662 0.0
C1461 C 0.66855 0.52325 0.1366 0.0
C1462 C 0.68674 0.51912 0.1426 0.0
C1463 C 0.68826 0.50045 0.14277 0.0
O1464 O 0.71603 0.48814 0.14155 0.0
O1465 O 0.71567 0.49037 0.15777 0.0
O1466 O 0.69386 0.50108 0.15213 0.0
O1467 O 0.69436 0.49907 0.13593 0.0
H1468 H 0.69464 0.47516 0.14323 0.0
H1469 H 0.68441 0.45685 0.14409 0.0
H1470 H 0.71569 0.45 0.1589 0.0
H1471 H 0.72591 0.46829 0.15774 0.0
H1472 H 0.76155 0.51655 0.14814 0.0
H1473 H 0.74085 0.50946 0.145 0.0
H1474 H 0.75745 0.54596 0.16079 0.0
H1475 H 0.73679 0.53883 0.15762 0.0
H1476 H 0.68449 0.53485 0.14213 0.0
H1477 H 0.65441 0.50961 0.1316 0.0
H1478 H 0.66579 0.49665 0.13508 0.0
H1479 H 0.69577 0.52182 0.14566 0.0
C1480 C 0.76784 0.5467 0.38638 0.0
C1481 C 0.75854 0.54536 0.39139 0.0
C1482 C 0.7582 0.56378 0.38981 0.0
C1483 C 0.75375 0.5538 0.39307 0.0
C1484 C 0.76759 0.56508 0.38485 0.0
C1485 C 0.77235 0.5566 0.38315 0.0
U1486 U 0.76976 0.51891 0.39119 0.0
O1487 O 0.76979 0.50547 0.38092 0.0
O1488 O 0.78432 0.51158 0.39337 0.0
C1489 C 0.78013 0.50507 0.38518 0.0
C1490 C 0.77277 0.53777 0.38451 0.0
C1491 C 0.78808 0.50408 0.3783 0.0
C1492 C 0.79247 0.50294 0.36133 0.0
C1493 C 0.78538 0.50511 0.36783 0.0
C1494 C 0.8053 0.4991 0.37569 0.0
C1495 C 0.80241 0.49974 0.36517 0.0
C1496 C 0.79818 0.5012 0.38217 0.0
C1497 C 0.75139 0.50441 0.40902 0.0
C1498 C 0.74899 0.48569 0.41106 0.0
C1499 C 0.73939 0.49588 0.42042 0.0
C1500 C 0.74425 0.50494 0.41599 0.0
C1501 C 0.74159 0.48612 0.4179 0.0
C1502 C 0.75386 0.49477 0.40666 0.0
C1503 C 0.75574 0.51385 0.40393 0.0
O1504 O 0.77949 0.5355 0.39238 0.0
O1505 O 0.76553 0.52938 0.37949 0.0
O1506 O 0.75241 0.513 0.39403 0.0
O1507 O 0.76661 0.51844 0.40685 0.0
H1508 H 0.75495 0.53774 0.39395 0.0
H1509 H 0.74644 0.55245 0.39677 0.0
H1510 H 0.77133 0.57268 0.38237 0.0
H1511 H 0.77957 0.55779 0.37931 0.0
H1512 H 0.79008 0.50362 0.35328 0.0
H1513 H 0.77767 0.50735 0.3646 0.0
H1514 H 0.81283 0.49654 0.37887 0.0
H1515 H 0.80041 0.50026 0.39019 0.0
H1516 H 0.75096 0.47832 0.40906 0.0
H1517 H 0.73362 0.49646 0.42554 0.0
H1518 H 0.74222 0.51232 0.41786 0.0
H1519 H 0.7594 0.49425 0.40128 0.0
C1520 C 0.75788 0.52876 0.64124 0.0
C1521 C 0.75516 0.51776 0.64154 0.0
C1522 C 0.74134 0.51883 0.65228 0.0
C1523 C 0.74699 0.51284 0.64701 0.0
C1524 C 0.744 0.52986 0.65186 0.0
C1525 C 0.75225 0.53479 0.6464 0.0
U1526 U 0.77805 0.52584 0.62386 0.0
O1527 O 0.78316 0.53464 0.61107 0.0
O1528 O 0.79602 0.53371 0.62431 0.0
C1529 C 0.79386 0.53789 0.61566 0.0
C1530 C 0.76665 0.53385 0.6356 0.0
C1531 C 0.79902 0.54924 0.61585 0.0
C1532 C 0.7999 0.56748 0.6209 0.0
C1533 C 0.79447 0.55673 0.62032 0.0
C1534 C 0.8144 0.5633 0.61245 0.0
C1535 C 0.81 0.57089 0.61705 0.0
C1536 C 0.80895 0.55259 0.61185 0.0
C1537 C 0.77808 0.49732 0.61547 0.0
C1538 C 0.78029 0.4883 0.60001 0.0
C1539 C 0.7868 0.48244 0.61637 0.0
C1540 C 0.78316 0.49033 0.62117 0.0
C1541 C 0.78535 0.48129 0.60574 0.0
C1542 C 0.77671 0.49626 0.60482 0.0
C1543 C 0.77383 0.50523 0.6208 0.0
O1544 O 0.77681 0.53232 0.63885 0.0
O1545 O 0.7636 0.53252 0.62567 0.0
O1546 O 0.76816 0.51099 0.61518 0.0
O1547 O 0.7809 0.51067 0.62872 0.0
H1548 H 0.75939 0.51298 0.63754 0.0
H1549 H 0.745 0.50433 0.64702 0.0
H1550 H 0.73984 0.53468 0.65588 0.0
H1551 H 0.75426 0.54329 0.64624 0.0
H1552 H 0.79622 0.57311 0.6244 0.0
H1553 H 0.7868 0.55426 0.62347 0.0
H1554 H 0.82225 0.5656 0.60957 0.0
H1555 H 0.81261 0.54688 0.60844 0.0
H1556 H 0.77913 0.48764 0.59181 0.0
H1557 H 0.79049 0.47706 0.621 0.0
H1558 H 0.78418 0.49089 0.62937 0.0
H1559 H 0.7728 0.5015 0.6002 0.0
C1560 C 0.49615 0.11657 0.29944 0.0
C1561 C 0.49154 0.1254 0.2996 0.0
C1562 C 0.48416 0.12015 0.31485 0.0
C1563 C 0.48566 0.1272 0.30726 0.0
C1564 C 0.48878 0.11129 0.31465 0.0
C1565 C 0.49475 0.10953 0.30702 0.0
U1566 U 0.50059 0.12061 0.27269 0.0
O1567 O 0.51595 0.12378 0.26581 0.0
O1568 O 0.50201 0.10974 0.26037 0.0
C1569 C 0.5124 0.115 0.25984 0.0
C1570 C 0.50192 0.11445 0.29113 0.0
C1571 C 0.52085 0.10877 0.25926 0.0
C1572 C 0.52794 0.09307 0.26221 0.0
C1573 C 0.52012 0.09903 0.26351 0.0
C1574 C 0.53743 0.10663 0.25264 0.0
C1575 C 0.53665 0.09679 0.25671 0.0
C1576 C 0.52961 0.11254 0.25391 0.0
C1577 C 0.48319 0.13779 0.25791 0.0
C1578 C 0.48092 0.13895 0.23968 0.0
C1579 C 0.47278 0.1498 0.24984 0.0
C1580 C 0.4771 0.14549 0.25857 0.0
C1581 C 0.47445 0.14644 0.24026 0.0
C1582 C 0.48526 0.13465 0.24844 0.0
C1583 C 0.48684 0.1328 0.2671 0.0
O1584 O 0.4952 0.1087 0.28319 0.0
O1585 O 0.50916 0.12266 0.28868 0.0
O1586 O 0.49748 0.13648 0.27166 0.0
O1587 O 0.48351 0.12245 0.26647 0.0
H1588 H 0.49238 0.13085 0.29374 0.0
H1589 H 0.48205 0.134 0.30709 0.0
H1590 H 0.48782 0.10575 0.32043 0.0
H1591 H 0.49818 0.10263 0.30698 0.0
H1592 H 0.52717 0.08556 0.2655 0.0
H1593 H 0.51344 0.09598 0.26771 0.0
H1594 H 0.5439 0.10967 0.24823 0.0
H1595 H 0.53029 0.12001 0.25052 0.0
H1596 H 0.48229 0.13613 0.23242 0.0
H1597 H 0.46801 0.15567 0.25057 0.0
H1598 H 0.47549 0.14804 0.26584 0.0
H1599 H 0.48998 0.12871 0.24781 0.0
C1600 C 0.01254 0.89977 0.79269 0.0
C1601 C 0.01299 0.89985 0.78232 0.0
C1602 C 0.99994 0.9113 0.78004 0.0
C1603 C 1.00677 0.90556 0.77607 0.0
C1604 C 0.99938 0.9111 0.79043 0.0
C1605 C 1.00568 0.90539 0.79672 0.0
U1606 U 0.03118 0.88102 0.79377 0.0
O1607 O 0.03275 0.86754 0.80278 0.0
O1608 O 0.04754 0.88093 0.80331 0.0
C1609 C 0.04339 0.87194 0.80695 0.0
C1610 C 0.01931 0.89379 0.79912 0.0
C1611 C 0.04636 0.87174 0.818 0.0
C1612 C 0.04776 0.87921 0.83515 0.0
C1613 C 0.0441 0.87915 0.82467 0.0
C1614 C 0.05571 0.8643 0.83234 0.0
C1615 C 0.05373 0.87185 0.8391 0.0
C1616 C 0.05206 0.86426 0.8219 0.0
C1617 C 0.03645 0.87204 0.76785 0.0
C1618 C 0.05171 0.86388 0.76542 0.0
C1619 C 0.03813 0.86635 0.75091 0.0
C1620 C 0.03243 0.87082 0.75737 0.0
C1621 C 0.04798 0.86305 0.75484 0.0
C1622 C 0.04598 0.86835 0.77189 0.0
C1623 C 0.03101 0.87777 0.77432 0.0
O1624 O 0.01534 0.88349 0.79786 0.0
O1625 O 0.03032 0.89679 0.79926 0.0
O1626 O 0.0379 0.88585 0.78009 0.0
O1627 O 0.02354 0.87197 0.77904 0.0
H1628 H 0.01817 0.89549 0.77906 0.0
H1629 H 0.00722 0.90538 0.76808 0.0
H1630 H 0.9942 0.91546 0.7937 0.0
H1631 H 1.00523 0.90539 0.80471 0.0
H1632 H 0.046 0.88506 0.84015 0.0
H1633 H 0.03967 0.88497 0.82176 0.0
H1634 H 0.06043 0.85863 0.83509 0.0
H1635 H 0.05392 0.85852 0.81684 0.0
H1636 H 0.05931 0.86147 0.76867 0.0
H1637 H 0.03494 0.86566 0.74281 0.0
H1638 H 0.02505 0.87359 0.75414 0.0
H1639 H 0.04918 0.86924 0.77999 0.0
C1640 C 0.42725 0.84646 0.2287 0.0
C1641 C 0.4289 0.85104 0.23864 0.0
C1642 C 0.44888 0.85072 0.24135 0.0
C1643 C 0.43962 0.85321 0.24488 0.0
C1644 C 0.44717 0.84599 0.23143 0.0
C1645 C 0.43644 0.84392 0.22514 0.0
U1646 U 0.39538 0.84035 0.22637 0.0
O1647 O 0.38229 0.84644 0.21693 0.0
O1648 O 0.38151 0.8295 0.21566 0.0
C1649 C 0.37729 0.83721 0.21199 0.0
C1650 C 0.41592 0.84411 0.22216 0.0
C1651 C 0.37512 0.83728 0.20089 0.0
C1652 C 0.38174 0.84188 0.18522 0.0
C1653 C 0.38405 0.84096 0.19568 0.0
C1654 C 0.36158 0.83512 0.18506 0.0
C1655 C 0.37045 0.83913 0.17982 0.0
C1656 C 0.36391 0.83423 0.19551 0.0
C1657 C 0.38409 0.83885 0.25134 0.0
C1658 C 0.36399 0.83492 0.25227 0.0
C1659 C 0.37825 0.83933 0.26767 0.0
C1660 C 0.38684 0.84048 0.26192 0.0
C1661 C 0.36672 0.8365 0.26293 0.0
C1662 C 0.37262 0.83608 0.24651 0.0
C1663 C 0.39333 0.84022 0.24552 0.0
O1664 O 0.40962 0.83452 0.22239 0.0
O1665 O 0.41027 0.85143 0.22264 0.0
O1666 O 0.39505 0.84885 0.24071 0.0
O1667 O 0.39369 0.8318 0.24005 0.0
H1668 H 0.42188 0.85292 0.24159 0.0
H1669 H 0.44063 0.85669 0.25253 0.0
H1670 H 0.45417 0.84403 0.22851 0.0
H1671 H 0.4353 0.84032 0.21751 0.0
H1672 H 0.38876 0.84488 0.18138 0.0
H1673 H 0.39278 0.84333 0.19973 0.0
H1674 H 0.3528 0.83305 0.18116 0.0
H1675 H 0.35692 0.83141 0.19944 0.0
H1676 H 0.3552 0.83265 0.24839 0.0
H1677 H 0.38067 0.84079 0.27584 0.0
H1678 H 0.39566 0.84269 0.26575 0.0
H1679 H 0.37037 0.83482 0.23832 0.0
C1680 C 0.8614 0.7375 0.03966 0.0
C1681 C 0.86084 0.73782 0.05002 0.0
C1682 C 0.85616 0.75489 0.04916 0.0
C1683 C 0.85824 0.74641 0.05472 0.0
C1684 C 0.85664 0.75448 0.03874 0.0
C1685 C 0.85926 0.74585 0.03404 0.0
U1686 U 0.86915 0.71154 0.04242 0.0
O1687 O 0.86402 0.6966 0.03284 0.0
O1688 O 0.88209 0.70497 0.03681 0.0
C1689 C 0.87447 0.69692 0.03163 0.0
C1690 C 0.86437 0.72849 0.03486 0.0
C1691 C 0.87599 0.69431 0.02128 0.0
C1692 C 0.87176 0.69514 1.003 0.0
C1693 C 0.8706 0.69833 0.01277 0.0
C1694 C 0.88388 0.68411 0.01021 0.0
C1695 C 0.87836 0.68793 1.0016 0.0
C1696 C 0.8827 0.68728 0.01993 0.0
C1697 C 0.87088 0.70129 0.06873 0.0
C1698 C 0.87626 0.68491 0.07227 0.0
C1699 C 0.87171 0.69523 0.08563 0.0
C1700 C 0.86963 0.70267 0.07882 0.0
C1701 C 0.87508 0.68627 0.08245 0.0
C1702 C 0.87418 0.69237 0.06546 0.0
C1703 C 0.86874 0.70923 0.06171 0.0
O1704 O 0.87483 0.72772 0.03808 0.0
O1705 O 0.85676 0.71944 0.03426 0.0
O1706 O 0.85968 0.70613 0.05452 0.0
O1707 O 0.8777 0.71456 0.05841 0.0
H1708 H 0.86243 0.7314 0.05447 0.0
H1709 H 0.85777 0.74638 0.0627 0.0
H1710 H 0.85519 0.76091 0.03427 0.0
H1711 H 0.85969 0.74574 0.02604 0.0
H1712 H 0.86749 0.69831 0.99654 0.0
H1713 H 0.8654 0.7038 0.01368 0.0
H1714 H 0.88887 0.67842 0.00944 0.0
H1715 H 0.88688 0.68406 0.02641 0.0
H1716 H 0.87895 0.67816 0.06961 0.0
H1717 H 0.87054 0.69644 0.09337 0.0
H1718 H 0.86704 0.7095 0.08144 0.0
H1719 H 0.8752 0.69121 0.05767 0.0
C1720 C 0.66198 0.31399 0.57209 0.0
C1721 C 0.66124 0.32452 0.57218 0.0
C1722 C 0.66002 0.32404 0.55387 0.0
C1723 C 0.66031 0.32951 0.56316 0.0
C1724 C 0.66069 0.31344 0.55381 0.0
C1725 C 0.66168 0.30846 0.56286 0.0
U1726 U 0.65931 0.31396 0.5996 0.0
O1727 O 0.65219 0.30131 0.60873 0.0
O1728 O 0.67009 0.31011 0.61304 0.0
C1729 C 0.66201 0.30219 0.6148 0.0
C1730 C 0.66282 0.30874 0.58159 0.0
C1731 C 0.6653 0.29225 0.6167 0.0
C1732 C 0.67411 0.27835 0.61222 0.0
C1733 C 0.67098 0.28779 0.61013 0.0
C1734 C 0.6658 0.27775 0.62738 0.0
C1735 C 0.67152 0.27322 0.62087 0.0
C1736 C 0.66273 0.28717 0.6253 0.0
C1737 C 0.65006 0.33715 0.61078 0.0
C1738 C 0.65165 0.34142 0.62883 0.0
C1739 C 0.6409 0.35017 0.61657 0.0
C1740 C 0.64339 0.3444 0.60867 0.0
C1741 C 0.64508 0.34882 0.62674 0.0
C1742 C 0.65408 0.33559 0.6209 0.0
C1743 C 0.65284 0.33142 0.60232 0.0
O1744 O 0.67102 0.31379 0.58896 0.0
O1745 O 0.6531 0.30518 0.58459 0.0
O1746 O 0.64567 0.32232 0.59898 0.0
O1747 O 0.66356 0.33113 0.60316 0.0
H1748 H 0.66133 0.32888 0.57923 0.0
H1749 H 0.65963 0.33762 0.56345 0.0
H1750 H 0.66056 0.30904 0.54677 0.0
H1751 H 0.66221 0.30031 0.56266 0.0
H1752 H 0.67842 0.27502 0.60703 0.0
H1753 H 0.67299 0.2916 0.60341 0.0
H1754 H 0.66383 0.2741 0.63417 0.0
H1755 H 0.65838 0.29053 0.63046 0.0
H1756 H 0.65489 0.34013 0.63658 0.0
H1757 H 0.63595 0.35591 0.61471 0.0
H1758 H 0.64021 0.34568 0.6009 0.0
H1759 H 0.65917 0.32995 0.62267 0.0
C1760 C 0.29383 0.51287 0.15213 0.0
C1761 C 0.2926 0.50256 0.15514 0.0
C1762 C 0.31313 0.50478 0.15778 0.0
C1763 C 0.30216 0.49858 0.15799 0.0
C1764 C 0.31432 0.51506 0.15462 0.0
C1765 C 0.30473 0.51908 0.15185 0.0
U1766 U 0.26216 0.50799 0.14261 0.0
O1767 O 0.24927 0.51519 0.14735 0.0
O1768 O 0.25225 0.51606 0.13169 0.0
C1769 C 0.24697 0.51908 0.13856 0.0
C1770 C 0.28377 0.51707 0.14912 0.0
C1771 C 0.24651 0.53023 0.13899 0.0
C1772 C 0.25228 0.54798 0.14735 0.0
C1773 C 0.25361 0.53766 0.1466 0.0
C1774 C 0.23707 0.54366 0.13264 0.0
C1775 C 0.2439 0.55105 0.14044 0.0
C1776 C 0.23836 0.53334 0.13194 0.0
C1777 C 0.24468 0.47952 0.13715 0.0
C1778 C 0.22447 0.47512 0.13 0.0
C1779 C 0.23365 0.46134 0.13567 0.0
C1780 C 0.24402 0.46885 0.13853 0.0
C1781 C 0.22374 0.46437 0.13136 0.0
C1782 C 0.23485 0.48263 0.13288 0.0
C1783 C 0.25562 0.48731 0.14033 0.0
O1784 O 0.27914 0.51535 0.13944 0.0
O1785 O 0.27624 0.51524 0.15512 0.0
O1786 O 0.25675 0.49278 0.14902 0.0
O1787 O 0.25927 0.49312 0.13323 0.0
H1788 H 0.28423 0.49759 0.15528 0.0
H1789 H 0.30096 0.49058 0.16023 0.0
H1790 H 0.32266 0.52004 0.15444 0.0
H1791 H 0.30583 0.52703 0.1495 0.0
H1792 H 0.25775 0.55353 0.15337 0.0
H1793 H 0.26002 0.53544 0.15209 0.0
H1794 H 0.23046 0.54573 0.12727 0.0
H1795 H 0.23279 0.52771 0.12603 0.0
H1796 H 0.21704 0.47771 0.1266 0.0
H1797 H 0.23338 0.45318 0.13698 0.0
H1798 H 0.25153 0.46634 0.14187 0.0
H1799 H 0.23522 0.49086 0.13179 0.0
C1800 C 0.23943 0.48922 0.84101 0.0
C1801 C 0.24945 0.49477 0.84751 0.0
C1802 C 0.24713 0.51124 0.84062 0.0
C1803 C 0.25323 0.50571 0.84736 0.0
C1804 C 0.23709 0.50563 0.83414 0.0
C1805 C 0.23326 0.49471 0.83435 0.0
U1806 U 0.24536 0.46233 0.84543 0.0
O1807 O 0.23574 0.44857 0.85178 0.0
O1808 O 0.2384 0.44725 0.83608 0.0
C1809 C 0.23303 0.44281 0.84307 0.0
C1810 C 0.2355 0.47769 0.84083 0.0
C1811 C 0.22079 0.43813 0.83968 0.0
C1812 C 0.20135 0.43998 0.83619 0.0
C1813 C 0.21303 0.4445 0.83899 0.0
C1814 C 0.20509 0.42269 0.83441 0.0
C1815 C 0.19725 0.42901 0.83397 0.0
C1816 C 0.21678 0.42722 0.83727 0.0
C1817 C 0.27592 0.46081 0.85558 0.0
C1818 C 0.28136 0.44424 0.8578 0.0
C1819 C 0.29546 0.46084 0.8626 0.0
C1820 C 0.28714 0.46631 0.85957 0.0
C1821 C 0.2927 0.44974 0.86169 0.0
C1822 C 0.27303 0.44974 0.85477 0.0
C1823 C 0.26739 0.46675 0.85227 0.0
O1824 O 0.23908 0.47235 0.83413 0.0
O1825 O 0.23612 0.47377 0.84973 0.0
O1826 O 0.25989 0.46673 0.85816 0.0
O1827 O 0.26286 0.46532 0.84255 0.0
H1828 H 0.25439 0.49064 0.85263 0.0
H1829 H 0.26107 0.5098 0.85235 0.0
H1830 H 0.23216 0.5097 0.82893 0.0
H1831 H 0.22553 0.49054 0.82926 0.0
H1832 H 0.19552 0.44506 0.8358 0.0
H1833 H 0.216 0.45296 0.84074 0.0
H1834 H 0.20218 0.41421 0.83283 0.0
H1835 H 0.22268 0.4222 0.83775 0.0
H1836 H 0.27898 0.4357 0.85691 0.0
H1837 H 0.30405 0.46532 0.86571 0.0
H1838 H 0.28948 0.47486 0.8603 0.0
H1839 H 0.26438 0.44537 0.8517 0.0
C1840 C 0.23412 0.45147 0.62349 0.0
C1841 C 0.24181 0.45208 0.6168 0.0
C1842 C 0.24429 0.43463 0.62063 0.0
C1843 C 0.24682 0.44373 0.61536 0.0
C1844 C 0.23648 0.43402 0.62727 0.0
C1845 C 0.23144 0.44239 0.62868 0.0
U1846 U 0.23457 0.47993 0.62012 0.0
O1847 O 0.22104 0.48837 0.61681 0.0
O1848 O 0.23393 0.4929 0.63075 0.0
C1849 C 0.22454 0.4944 0.62537 0.0
C1850 C 0.22936 0.46053 0.62538 0.0
C1851 C 0.21569 0.49571 0.63106 0.0
C1852 C 0.19967 0.48866 0.63928 0.0
C1853 C 0.20817 0.48705 0.63408 0.0
C1854 C 0.20625 0.50754 0.63856 0.0
C1855 C 0.19856 0.49893 0.64152 0.0
C1856 C 0.21471 0.50593 0.63338 0.0
C1857 C 0.25651 0.49462 0.60527 0.0
C1858 C 0.26065 0.5136 0.60419 0.0
C1859 C 0.27047 0.50308 0.59547 0.0
C1860 C 0.26439 0.49397 0.59902 0.0
C1861 C 0.26879 0.51302 0.59813 0.0
C1862 C 0.25456 0.50446 0.60774 0.0
C1863 C 0.25076 0.48503 0.60943 0.0
O1864 O 0.23642 0.46835 0.63136 0.0
O1865 O 0.22382 0.46369 0.61728 0.0
O1866 O 0.24001 0.48109 0.60531 0.0
O1867 O 0.25271 0.48521 0.61937 0.0
H1868 H 0.24407 0.45909 0.6128 0.0
H1869 H 0.25292 0.44454 0.61033 0.0
H1870 H 0.23426 0.42709 0.63137 0.0
H1871 H 0.22555 0.44181 0.6339 0.0
H1872 H 0.19384 0.48186 0.64139 0.0
H1873 H 0.20882 0.47909 0.63235 0.0
H1874 H 0.20581 0.51556 0.64032 0.0
H1875 H 0.22048 0.5127 0.63115 0.0
H1876 H 0.25924 0.52113 0.60646 0.0
H1877 H 0.27654 0.50233 0.59069 0.0
H1878 H 0.26595 0.48641 0.59701 0.0
H1879 H 0.2485 0.50509 0.61257 0.0
C1880 C 0.24609 0.49696 0.38188 0.0
C1881 C 0.24968 0.508 0.38322 0.0
C1882 C 0.26448 0.5078 0.37332 0.0
C1883 C 0.25879 0.51337 0.37898 0.0
C1884 C 0.26076 0.49672 0.37192 0.0
C1885 C 0.25164 0.49135 0.37619 0.0
U1886 U 0.22266 0.49814 0.39634 0.0
O1887 O 0.20484 0.48905 0.39409 0.0
O1888 O 0.21642 0.4888 0.40842 0.0
C1889 C 0.20628 0.4849 0.40284 0.0
C1890 C 0.2365 0.49138 0.38636 0.0
C1891 C 0.20205 0.4734 0.40242 0.0
C1892 C 0.20187 0.45574 0.39604 0.0
C1893 C 0.20629 0.46667 0.39659 0.0
C1894 C 0.18907 0.4582 0.40728 0.0
C1895 C 0.19316 0.45138 0.40134 0.0
C1896 C 0.19348 0.46911 0.40781 0.0
C1897 C 0.21902 0.5251 0.40451 0.0
C1898 C 0.20259 0.52699 0.41151 0.0
C1899 C 0.21741 0.54246 0.41001 0.0
C1900 C 0.22342 0.53605 0.40591 0.0
C1901 C 0.20686 0.53802 0.41275 0.0
C1902 C 0.20864 0.52058 0.40744 0.0
C1903 C 0.22512 0.51852 0.39968 0.0
O1904 O 0.23815 0.49251 0.39633 0.0
O1905 O 0.22649 0.49252 0.382 0.0
O1906 O 0.21934 0.51305 0.39123 0.0
O1907 O 0.2306 0.51302 0.40579 0.0
H1908 H 0.24542 0.51246 0.38753 0.0
H1909 H 0.26131 0.5219 0.38006 0.0
H1910 H 0.26502 0.49221 0.36766 0.0
H1911 H 0.24894 0.48282 0.37508 0.0
H1912 H 0.20527 0.4507 0.39148 0.0
H1913 H 0.21295 0.46988 0.39242 0.0
H1914 H 0.18226 0.45512 0.41134 0.0
H1915 H 0.1901 0.47421 0.41233 0.0
H1916 H 0.19456 0.52332 0.41365 0.0
H1917 H 0.22086 0.55093 0.41075 0.0
H1918 H 0.23142 0.53965 0.40367 0.0
H1919 H 0.20515 0.51211 0.40644 0.0
H1920 H 0.12618 0.37591 0.09281 0.0
H1921 H 0.11237 0.38491 0.11823 0.0
H1922 H 0.09475 0.35689 0.09911 0.0
H1923 H 0.07865 0.36786 0.10664 0.0
C1924 C 0.08494 0.373 0.11285 0.0
O1925 O 0.09446 0.36903 0.11497 0.0
H1926 H 0.0872 0.38107 0.11021 0.0
C1927 C 0.11962 0.37444 0.0974 0.0
C1928 C 0.11041 0.36549 0.09487 0.0
C1929 C 0.12047 0.38149 0.10582 0.0
C1930 C 0.11194 0.37954 0.11175 0.0
C1931 C 0.10264 0.37076 0.10923 0.0
C1932 C 0.1019 0.36374 0.10085 0.0
H1933 H 0.88767 0.90466 0.37382 0.0
H1934 H 0.883 0.8981 0.40423 0.0
H1935 H 0.91216 0.89239 0.39355 0.0
H1936 H 0.90143 0.87585 0.40519 0.0
C1937 C 0.89785 0.88053 0.41031 0.0
O1938 O 0.90133 0.8911 0.40884 0.0
H1939 H 0.8884 0.87785 0.40837 0.0
C1940 C 0.89048 0.90183 0.38107 0.0
C1941 C 0.90066 0.89851 0.3827 0.0
C1942 C 0.88405 0.9018 0.38878 0.0
C1943 C 0.88792 0.89836 0.39823 0.0
C1944 C 0.89799 0.8949 0.3999 0.0
C1945 C 0.90442 0.89513 0.3922 0.0
H1946 H 0.35227 0.60877 0.59414 0.0
H1947 H 0.33421 0.61501 0.56552 0.0
H1948 H 0.36325 0.63839 0.58148 0.0
H1949 H 0.34306 0.64627 0.57159 0.0
C1950 C 0.34031 0.6406 0.56471 0.0
O1951 O 0.34743 0.63383 0.56512 0.0
H1952 H 0.33142 0.63602 0.56454 0.0
C1953 C 0.35137 0.6139 0.58805 0.0
C1954 C 0.35897 0.62389 0.5888 0.0
C1955 C 0.34238 0.61061 0.57974 0.0
C1956 C 0.34102 0.61745 0.57205 0.0
C1957 C 0.34854 0.62745 0.57272 0.0
C1958 C 0.35745 0.63068 0.58109 0.0
H1959 H 0.62632 0.10161 0.90546 0.0
H1960 H 0.63112 0.10576 0.938 0.0
H1961 H 0.61368 0.12532 0.91972 0.0
H1962 H 0.62934 0.13642 0.93865 0.0
C1963 C 0.62856 0.12966 0.9435 0.0
O1964 O 0.6207 0.12103 0.93823 0.0
H1965 H 0.63702 0.12784 0.94548 0.0
C1966 C 0.62503 0.10558 0.91224 0.0
C1967 C 0.61937 0.11375 0.91134 0.0
C1968 C 0.62931 0.10262 0.92178 0.0
C1969 C 0.62799 0.10801 0.93056 0.0
C1970 C 0.6224 0.1162 0.92977 0.0
C1971 C 0.61814 0.11909 0.9202 0.0
H1972 H 0.13465 0.6072 0.40882 0.0
H1973 H 0.13736 0.61169 0.44118 0.0
H1974 H 0.11476 0.62567 0.42133 0.0
H1975 H 0.1272 0.63932 0.44001 0.0
C1976 C 0.12859 0.63304 0.44509 0.0
O1977 O 0.12269 0.62334 0.44023 0.0
H1978 H 0.13787 0.63345 0.44686 0.0
C1979 C 0.13216 0.61053 0.41533 0.0
C1980 C 0.12408 0.6166 0.41381 0.0
C1981 C 0.13704 0.60869 0.42514 0.0
C1982 C 0.1337 0.61298 0.43353 0.0
C1983 C 0.12579 0.61919 0.43212 0.0
C1984 C 0.12099 0.62099 0.4223 0.0
H1985 H 0.62191 0.87388 0.59411 0.0
H1986 H 0.60852 0.88028 0.62066 0.0
H1987 H 0.58948 0.85519 0.59847 0.0
H1988 H 0.57404 0.86545 0.60772 0.0
C1989 C 0.5806 0.87006 0.61407 0.0
O1990 O 0.58972 0.86549 0.61568 0.0
H1991 H 0.58327 0.87826 0.61182 0.0
C1992 C 0.6153 0.87209 0.59862 0.0
C1993 C 0.60562 0.86379 0.59514 0.0
C1994 C 0.61652 0.8781 0.60783 0.0
C1995 C 0.60779 0.87579 0.61353 0.0
C1996 C 0.59808 0.86756 0.61015 0.0
C1997 C 0.59706 0.8615 0.60104 0.0
H1998 H 0.38734 0.39997 0.87209 0.0
H1999 H 0.38197 0.39368 0.90239 0.0
H2000 H 0.40885 0.384 0.89103 0.0
H2001 H 0.39782 0.36859 0.90323 0.0
C2002 C 0.39402 0.3736 0.90778 0.0
O2003 O 0.39842 0.38409 0.90649 0.0
H2004 H 0.38463 0.37144 0.90503 0.0
C2005 C 0.38969 0.39677 0.87926 0.0
C2006 C 0.39881 0.39191 0.88057 0.0
C2007 C 0.38358 0.39757 0.88708 0.0
C2008 C 0.38656 0.3932 0.89626 0.0
C2009 C 0.39565 0.38831 0.89765 0.0
C2010 C 0.40186 0.38782 0.88988 0.0
H2011 H 0.85854 0.13073 0.10178 0.0
H2012 H 0.84643 0.136 0.07082 0.0
H2013 H 0.87526 0.15823 0.08863 0.0
H2014 H 0.85859 0.16772 0.07627 0.0
C2015 C 0.85532 0.16157 0.0698 0.0
O2016 O 0.86143 0.15395 0.071 0.0
H2017 H 0.84617 0.15793 0.06975 0.0
C2018 C 0.85912 0.13554 0.0954 0.0
C2019 C 0.8678 0.14486 0.09635 0.0
C2020 C 0.85139 0.13221 0.08623 0.0
C2021 C 0.85242 0.13834 0.07792 0.0
C2022 C 0.86093 0.14777 0.07884 0.0
C2023 C 0.86872 0.15093 0.08799 0.0
H2024 H 0.05866 0.07906 0.33112 0.0
H2025 H 0.08678 0.06561 0.34206 0.0
H2026 H 0.07223 0.06198 0.31029 0.0
H2027 H 0.08062 0.04331 0.31622 0.0
C2028 C 0.0852 0.04665 0.32396 0.0
O2029 O 0.0878 0.05753 0.32424 0.0
H2030 H 0.07947 0.04381 0.3294 0.0
C2031 C 0.06457 0.07443 0.32974 0.0
C2032 C 0.0643 0.07059 0.31978 0.0
C2033 C 0.07266 0.07277 0.33785 0.0
C2034 C 0.08052 0.06707 0.33591 0.0
C2035 C 0.0803 0.06314 0.32599 0.0
C2036 C 0.07231 0.06502 0.31792 0.0
H2037 H 0.12218 0.85551 0.68432 0.0
H2038 H 0.10815 0.82193 0.67995 0.0
H2039 H 0.13235 0.83686 0.66216 0.0
H2040 H 0.12619 0.81068 0.67685 0.0
C2041 C 0.12672 0.81256 0.6689 0.0
O2042 O 0.11951 0.81893 0.66579 0.0
H2043 H 0.13564 0.81674 0.66864 0.0
C2044 C 0.12154 0.84795 0.68039 0.0
C2045 C 0.12811 0.84739 0.67288 0.0
C2046 C 0.11424 0.83887 0.68297 0.0
C2047 C 0.11381 0.82903 0.67816 0.0
C2048 C 0.1204 0.82834 0.67073 0.0
C2049 C 0.1275 0.83749 0.66808 0.0
H2050 H 0.34202 0.91947 0.81775 0.0
H2051 H 0.36761 0.91071 0.80344 0.0
H2052 H 0.3652 0.94295 0.80483 0.0
H2053 H 0.37491 0.9381 0.78601 0.0
C2054 C 0.37449 0.92986 0.78799 0.0
O2055 O 0.37605 0.92967 0.79842 0.0
H2056 H 0.36591 0.92496 0.78436 0.0
C2057 C 0.34891 0.92155 0.81356 0.0
C2058 C 0.35279 0.9321 0.8115 0.0
C2059 C 0.35423 0.91378 0.81079 0.0
C2060 C 0.36343 0.91661 0.80569 0.0
C2061 C 0.36726 0.92708 0.80343 0.0
C2062 C 0.36208 0.93485 0.80648 0.0
H2063 H 0.39945 0.1563 0.14995 0.0
H2064 H 0.42103 0.18534 0.14349 0.0
H2065 H 0.39032 0.17065 0.12242 0.0
H2066 H 0.40897 0.17992 0.11269 0.0
C2067 C 0.41367 0.18665 0.11829 0.0
O2068 O 0.40798 0.18692 0.12628 0.0
H2069 H 0.42232 0.18557 0.12121 0.0
C2070 C 0.40116 0.16268 0.14507 0.0
C2071 C 0.39364 0.16245 0.13588 0.0
C2072 C 0.41106 0.17086 0.1479 0.0
C2073 C 0.41349 0.1789 0.14138 0.0
C2074 C 0.40597 0.17883 0.13223 0.0
C2075 C 0.3961 0.1706 0.12948 0.0
H2076 H 0.1648 0.94086 0.19213 0.0
H2077 H 0.13297 0.92985 0.20225 0.0
H2078 H 0.15315 0.96145 0.21128 0.0
H2079 H 0.14077 0.95329 0.22759 0.0
C2080 C 0.13535 0.94599 0.22313 0.0
O2081 O 0.13448 0.94744 0.21291 0.0
H2082 H 0.13946 0.9394 0.22503 0.0
C2083 C 0.15849 0.94219 0.19644 0.0
C2084 C 0.16022 0.95204 0.20175 0.0
C2085 C 0.14863 0.93416 0.19639 0.0
C2086 C 0.14064 0.93593 0.20216 0.0
C2087 C 0.14233 0.94574 0.20756 0.0
C2088 C 0.152 0.95385 0.2072 0.0
H2089 H 0.29603 0.81924 0.3406 0.0
H2090 H 0.28841 0.8487 0.33253 0.0
H2091 H 0.27723 0.83418 0.35834 0.0
H2092 H 0.26025 0.84434 0.34698 0.0
C2093 C 0.26606 0.84977 0.34289 0.0
O2094 O 0.2772 0.85016 0.34713 0.0
H2095 H 0.26415 0.84663 0.33478 0.0
C2096 C 0.29217 0.82568 0.34195 0.0
C2097 C 0.28658 0.82569 0.35024 0.0
C2098 C 0.29302 0.83396 0.33551 0.0
C2099 C 0.28783 0.84218 0.33731 0.0
C2100 C 0.28208 0.84218 0.34546 0.0
C2101 C 0.28159 0.83403 0.35199 0.0
H2102 H 0.36675 0.09502 0.64789 0.0
H2103 H 0.4005 0.11246 0.66201 0.0
H2104 H 0.38398 0.08491 0.67502 0.0
H2105 H 0.39713 0.10279 0.68999 0.0
C2106 C 0.40362 0.10655 0.68553 0.0
O2107 O 0.40244 0.10019 0.67678 0.0
H2108 H 0.40225 0.11441 0.68361 0.0
C2109 C 0.37419 0.09604 0.65382 0.0
C2110 C 0.37421 0.08885 0.66134 0.0
C2111 C 0.38357 0.10463 0.65398 0.0
C2112 C 0.39319 0.10585 0.66168 0.0
C2113 C 0.39326 0.09878 0.66927 0.0
C2114 C 0.3838 0.09032 0.66911 0.0
H2115 H 0.16273 0.16399 0.89611 0.0
H2116 H 0.17905 0.1392 0.89042 0.0
H2117 H 0.19142 0.16001 0.91757 0.0
H2118 H 0.21057 0.15267 0.91001 0.0
C2119 C 0.20478 0.14656 0.90427 0.0
O2120 O 0.19425 0.14379 0.9071 0.0
H2121 H 0.20414 0.14998 0.89678 0.0
C2122 C 0.1694 0.15993 0.89828 0.0
C2123 C 0.17707 0.16317 0.90749 0.0
C2124 C 0.16995 0.15127 0.89203 0.0
C2125 C 0.17836 0.14583 0.89514 0.0
C2126 C 0.18611 0.14903 0.90429 0.0
C2127 C 0.1854 0.15761 0.9105 0.0
H2128 H 0.79207 0.31664 0.83513 0.0
H2129 H 0.78309 0.34559 0.82716 0.0
H2130 H 0.77362 0.33115 0.85359 0.0
H2131 H 0.75579 0.34057 0.84244 0.0
C2132 C 0.76131 0.34636 0.83842 0.0
O2133 O 0.77259 0.34691 0.8423 0.0
H2134 H 0.75926 0.34361 0.83021 0.0
C2135 C 0.78803 0.32292 0.83657 0.0
C2136 C 0.78286 0.32288 0.84513 0.0
C2137 C 0.7883 0.3311 0.83004 0.0
C2138 C 0.78292 0.33913 0.832 0.0
C2139 C 0.77755 0.33905 0.84041 0.0
C2140 C 0.77765 0.33103 0.84702 0.0
H2141 H 0.86874 0.60102 0.14908 0.0
H2142 H 0.90275 0.61682 0.16417 0.0
H2143 H 0.88386 0.59017 0.17673 0.0
H2144 H 0.89744 0.60671 0.19234 0.0
C2145 C 0.90386 0.61076 0.18794 0.0
O2146 O 0.90303 0.60466 0.17911 0.0
H2147 H 0.90207 0.61852 0.18617 0.0
C2148 C 0.87599 0.6016 0.15512 0.0
C2149 C 0.87515 0.59449 0.16271 0.0
C2150 C 0.88586 0.60977 0.15557 0.0
C2151 C 0.89501 0.61066 0.16368 0.0
C2152 C 0.89424 0.60362 0.17128 0.0
C2153 C 0.88435 0.59556 0.1708 0.0
H2154 H 0.66273 0.6658 0.3954 0.0
H2155 H 0.67976 0.64138 0.39035 0.0
H2156 H 0.69193 0.663 0.41695 0.0
H2157 H 0.71131 0.65625 0.40954 0.0
C2158 C 0.7057 0.64995 0.4039 0.0
O2159 O 0.69524 0.64682 0.4068 0.0
H2160 H 0.70482 0.65325 0.39635 0.0
C2161 C 0.66955 0.66195 0.3977 0.0
C2162 C 0.67726 0.66555 0.40685 0.0
C2163 C 0.67028 0.65319 0.3917 0.0
C2164 C 0.67895 0.64807 0.39492 0.0
C2165 C 0.68678 0.65167 0.40394 0.0
C2166 C 0.68585 0.6603 0.40996 0.0
H2167 H 0.84887 0.43038 0.3163 0.0
H2168 H 0.87324 0.41959 0.30183 0.0
H2169 H 0.87317 0.45242 0.30307 0.0
H2170 H 0.88172 0.44654 0.28419 0.0
C2171 C 0.88118 0.4383 0.28621 0.0
O2172 O 0.88281 0.43815 0.29664 0.0
H2173 H 0.87254 0.43346 0.28264 0.0
C2174 C 0.85576 0.43196 0.31205 0.0
C2175 C 0.8603 0.44236 0.3099 0.0
C2176 C 0.86041 0.4237 0.30929 0.0
C2177 C 0.86957 0.42587 0.30409 0.0
C2178 C 0.87406 0.43619 0.30174 0.0
C2179 C 0.86956 0.44445 0.3048 0.0
H2180 H 0.55834 0.58001 0.8319 0.0
H2181 H 0.58305 0.56209 0.84099 0.0
H2182 H 0.56596 0.55922 0.80993 0.0
H2183 H 0.57247 0.53874 0.81576 0.0
C2184 C 0.57771 0.54228 0.82322 0.0
O2185 O 0.58122 0.55307 0.82289 0.0
H2186 H 0.57233 0.54033 0.82911 0.0
C2187 C 0.56294 0.57428 0.83006 0.0
C2188 C 0.56116 0.56997 0.82 0.0
C2189 C 0.57076 0.57149 0.83771 0.0
C2190 C 0.57687 0.56426 0.83522 0.0
C2191 C 0.57502 0.55976 0.82525 0.0
C2192 C 0.56715 0.56257 0.81766 0.0
H2193 H 0.86668 0.62133 0.90973 0.0
H2194 H 0.88265 0.61261 0.88569 0.0
H2195 H 0.89942 0.64001 0.90598 0.0
H2196 H 0.90319 0.64277 0.88489 0.0
C2197 C 0.90103 0.63429 0.88208 0.0
O2198 O 0.90079 0.62821 0.89026 0.0
H2199 H 0.89251 0.63245 0.87703 0.0
C2200 C 0.87376 0.62279 0.90572 0.0
C2201 C 0.88303 0.63156 0.90893 0.0
C2202 C 0.87349 0.61591 0.89734 0.0
C2203 C 0.88267 0.61783 0.89215 0.0
C2204 C 0.892 0.62648 0.89531 0.0
C2205 C 0.8922 0.63329 0.9037 0.0
H2206 H 0.09536 0.09357 0.63721 0.0
H2207 H 0.10095 0.09934 0.60688 0.0
H2208 H 0.07815 0.11395 0.61966 0.0
H2209 H 0.07023 0.10596 0.59823 0.0
C2210 C 0.07857 0.10709 0.59571 0.0
O2211 O 0.08719 0.11185 0.60367 0.0
H2212 H 0.07965 0.09922 0.59329 0.0
C2213 C 0.09367 0.09736 0.63026 0.0
C2214 C 0.08608 0.10393 0.62946 0.0
C2215 C 0.09911 0.09564 0.62219 0.0
C2216 C 0.09682 0.10053 0.61319 0.0
C2217 C 0.08928 0.10711 0.61232 0.0
C2218 C 0.084 0.10887 0.62045 0.0
H2219 H 0.65054 0.40214 0.42676 0.0
H2220 H 0.66521 0.39389 0.45591 0.0
H2221 H 0.6308 0.37835 0.44224 0.0
H2222 H 0.63347 0.38195 0.46403 0.0
C2223 C 0.64281 0.38288 0.46624 0.0
O2224 O 0.64699 0.37973 0.45805 0.0
H2225 H 0.64682 0.39137 0.46864 0.0
C2226 C 0.6498 0.39749 0.43324 0.0
C2227 C 0.6395 0.39014 0.4335 0.0
C2228 C 0.65916 0.3989 0.44123 0.0
C2229 C 0.6581 0.39293 0.44965 0.0
C2230 C 0.64789 0.38552 0.44997 0.0
C2231 C 0.63866 0.38406 0.44187 0.0
H2232 H 0.32749 0.88178 0.08906 0.0
H2233 H 0.31388 0.87826 0.05699 0.0
H2234 H 0.32916 0.85469 0.07073 0.0
H2235 H 0.33523 0.85981 0.05126 0.0
C2236 C 0.32758 0.86235 0.04758 0.0
O2237 O 0.31948 0.86053 0.05368 0.0
H2238 H 0.3303 0.87094 0.04662 0.0
C2239 C 0.32589 0.87742 0.08171 0.0
C2240 C 0.32908 0.86783 0.08096 0.0
C2241 C 0.32032 0.88125 0.07315 0.0
C2242 C 0.318 0.87538 0.06372 0.0
C2243 C 0.32128 0.86587 0.06287 0.0
C2244 C 0.32665 0.86204 0.07149 0.0
H2245 H 0.82116 0.38684 0.58675 0.0
H2246 H 0.80805 0.38609 0.55477 0.0
H2247 H 0.82497 0.36253 0.5661 0.0
H2248 H 0.83112 0.37071 0.54731 0.0
C2249 C 0.82301 0.37258 0.54382 0.0
O2250 O 0.81496 0.36947 0.54982 0.0
H2251 H 0.82476 0.38127 0.54327 0.0
C2252 C 0.81975 0.38319 0.5791 0.0
C2253 C 0.82376 0.37419 0.57743 0.0
C2254 C 0.81399 0.38753 0.57102 0.0
C2255 C 0.81241 0.38284 0.56112 0.0
C2256 C 0.81638 0.37385 0.55938 0.0
C2257 C 0.8219 0.36945 0.56753 0.0
H2258 H 0.37329 0.129 0.40701 0.0
H2259 H 0.38987 0.11969 0.38369 0.0
H2260 H 0.40775 0.14537 0.40567 0.0
H2261 H 0.41302 0.14889 0.38529 0.0
C2262 C 0.41038 0.14057 0.38196 0.0
O2263 O 0.40898 0.13394 0.38966 0.0
H2264 H 0.40221 0.13952 0.37651 0.0
C2265 C 0.38065 0.13017 0.40335 0.0
C2266 C 0.3905 0.13809 0.40742 0.0
C2267 C 0.3803 0.12347 0.39481 0.0
C2268 C 0.38999 0.12471 0.39033 0.0
C2269 C 0.39981 0.13264 0.39422 0.0
C2270 C 0.4001 0.13925 0.40278 0.0
H2271 H 0.59353 0.59431 0.1364 0.0
H2272 H 0.5984 0.59969 0.10582 0.0
H2273 H 0.57581 0.61433 0.11886 0.0
H2274 H 0.56749 0.60616 0.09739 0.0
C2275 C 0.57578 0.6071 0.09483 0.0
O2276 O 0.58447 0.61203 0.10268 0.0
H2277 H 0.57679 0.59913 0.09264 0.0
C2278 C 0.59166 0.59798 0.12941 0.0
C2279 C 0.58403 0.60451 0.12867 0.0
C2280 C 0.59693 0.59617 0.12124 0.0
C2281 C 0.5944 0.60093 0.1122 0.0
C2282 C 0.58679 0.60744 0.11138 0.0
C2283 C 0.58169 0.60929 0.11961 0.0
H2284 H 0.13803 0.89444 0.92733 0.0
H2285 H 0.15473 0.88694 0.95605 0.0
H2286 H 0.12017 0.87055 0.94396 0.0
H2287 H 0.12404 0.87518 0.96555 0.0
C2288 C 0.13334 0.87577 0.96754 0.0
O2289 O 0.13716 0.87259 0.95915 0.0
H2290 H 0.13771 0.88417 0.97005 0.0
C2291 C 0.13787 0.88989 0.93391 0.0
C2292 C 0.12789 0.88231 0.93465 0.0
C2293 C 0.14766 0.89165 0.94153 0.0
C2294 C 0.14731 0.88578 0.95008 0.0
C2295 C 0.1374 0.87821 0.95091 0.0
C2296 C 0.12777 0.87641 0.94318 0.0
H2297 H 0.93777 0.93425 0.68954 0.0
H2298 H 0.90949 0.94369 0.67211 0.0
H2299 H 0.92084 0.9545 0.70362 0.0
H2300 H 0.8962 0.94981 0.69753 0.0
C2301 C 0.89552 0.95055 0.68923 0.0
O2302 O 0.90612 0.9551 0.68715 0.0
H2303 H 0.89221 0.94246 0.68534 0.0
C2304 C 0.93127 0.93863 0.68901 0.0
C2305 C 0.93029 0.94446 0.69767 0.0
C2306 C 0.92378 0.9382 0.67975 0.0
C2307 C 0.91542 0.94396 0.67915 0.0
C2308 C 0.91437 0.9498 0.68775 0.0
C2309 C 0.92176 0.95002 0.697 0.0
H2310 H 0.82023 0.12729 0.32425 0.0
H2311 H 0.82321 0.16075 0.32809 0.0
H2312 H 0.79799 0.13921 0.34056 0.0
H2313 H 0.7898 0.1563 0.33137 0.0
C2314 C 0.79788 0.16259 0.33253 0.0
O2315 O 0.80654 0.15903 0.33813 0.0
H2316 H 0.79987 0.16448 0.32493 0.0
C2317 C 0.81746 0.13389 0.32716 0.0
C2318 C 0.80849 0.13196 0.33261 0.0
C2319 C 0.82293 0.14424 0.32551 0.0
C2320 C 0.81913 0.1527 0.32922 0.0
C2321 C 0.81013 0.15085 0.33459 0.0
C2322 C 0.80493 0.14053 0.33638 0.0
H2323 H 0.60382 0.06933 0.19927 0.0
H2324 H 0.62456 0.05474 0.18338 0.0
H2325 H 0.61562 0.04305 0.21115 0.0
H2326 H 0.63884 0.03948 0.20837 0.0
C2327 C 0.63816 0.04261 0.20076 0.0
O2328 O 0.62675 0.04073 0.19644 0.0
H2329 H 0.64225 0.05123 0.2018 0.0
C2330 C 0.6087 0.06351 0.1987 0.0
C2331 C 0.60923 0.05643 0.20624 0.0
C2332 C 0.61414 0.06302 0.19037 0.0
C2333 C 0.62013 0.05519 0.18964 0.0
C2334 C 0.6207 0.04803 0.19713 0.0
C2335 C 0.61513 0.04857 0.20537 0.0
H2336 H 0.61202 0.85609 0.87004 0.0
H2337 H 0.59143 0.8259 0.87512 0.0
H2338 H 0.62403 0.8385 0.89424 0.0
H2339 H 0.61916 0.81607 0.88844 0.0
C2340 C 0.60976 0.81385 0.88789 0.0
O2341 O 0.60606 0.82257 0.89049 0.0
H2342 H 0.60584 0.81084 0.8799 0.0
C2343 C 0.61077 0.84915 0.87429 0.0
C2344 C 0.61929 0.84828 0.88241 0.0
C2345 C 0.60066 0.84117 0.8716 0.0
C2346 C 0.59917 0.83215 0.87706 0.0
C2347 C 0.60759 0.83123 0.88522 0.0
C2348 C 0.61756 0.83932 0.88795 0.0
H2349 H 0.84679 0.08095 0.83957 0.0
H2350 H 0.87831 0.09341 0.82944 0.0
H2351 H 0.85944 0.06145 0.82013 0.0
H2352 H 0.88446 0.06408 0.82424 0.0
C2353 C 0.88715 0.07268 0.82334 0.0
O2354 O 0.87778 0.07604 0.81885 0.0
H2355 H 0.89074 0.07689 0.83099 0.0
C2356 C 0.85314 0.07998 0.83515 0.0
C2357 C 0.85184 0.07026 0.82974 0.0
C2358 C 0.86269 0.08836 0.83522 0.0
C2359 C 0.87084 0.08706 0.82946 0.0
C2360 C 0.86967 0.07735 0.82406 0.0
C2361 C 0.86022 0.06895 0.82425 0.0
H2362 H 0.6873 0.18046 0.66682 0.0
H2363 H 0.69606 0.15051 0.66643 0.0
H2364 H 0.70812 0.17331 0.64611 0.0
H2365 H 0.70425 0.15112 0.63678 0.0
C2366 C 0.7029 0.14728 0.64388 0.0
O2367 O 0.70807 0.15445 0.6521 0.0
H2368 H 0.69354 0.14469 0.64359 0.0
C2369 C 0.69184 0.17519 0.66394 0.0
C2370 C 0.69791 0.17821 0.65613 0.0
C2371 C 0.69104 0.16521 0.66769 0.0
C2372 C 0.69654 0.15823 0.66362 0.0
C2373 C 0.70271 0.16119 0.65588 0.0
C2374 C 0.70336 0.17113 0.65212 0.0
H2375 H 0.59915 0.86974 0.33893 0.0
H2376 H 0.56451 0.85329 0.32642 0.0
H2377 H 0.5803 0.88138 0.31369 0.0
H2378 H 0.55677 0.8797 0.31711 0.0
C2379 C 0.55316 0.87107 0.31518 0.0
O2380 O 0.56153 0.86658 0.31272 0.0
H2381 H 0.5501 0.86753 0.32191 0.0
C2382 C 0.59139 0.86899 0.33342 0.0
C2383 C 0.59091 0.87655 0.3263 0.0
C2384 C 0.58196 0.86052 0.33352 0.0
C2385 C 0.5719 0.85973 0.32644 0.0
C2386 C 0.57133 0.86726 0.31934 0.0
C2387 C 0.58086 0.87557 0.31919 0.0
H2388 H 0.83972 0.8814 0.12826 0.0
H2389 H 0.84927 0.85374 0.11803 0.0
H2390 H 0.82098 0.863 0.10075 0.0
H2391 H 0.81748 0.83954 0.09943 0.0
C2392 C 0.82645 0.83946 0.10247 0.0
O2393 O 0.83346 0.84923 0.10176 0.0
H2394 H 0.82697 0.83758 0.11054 0.0
C2395 C 0.83837 0.8747 0.12281 0.0
C2396 C 0.82945 0.87308 0.11439 0.0
C2397 C 0.8456 0.86779 0.12426 0.0
C2398 C 0.84384 0.85919 0.11708 0.0
C2399 C 0.83495 0.85746 0.10867 0.0
C2400 C 0.82775 0.86437 0.10735 0.0
H2401 H 0.18793 0.6782 0.17006 0.0
H2402 H 0.19758 0.64866 0.16957 0.0
H2403 H 0.20811 0.67135 0.14864 0.0
H2404 H 0.20331 0.64916 0.13957 0.0
C2405 C 0.20339 0.64525 0.14679 0.0
O2406 O 0.20886 0.65269 0.15475 0.0
H2407 H 0.19442 0.64179 0.14756 0.0
C2408 C 0.19255 0.67304 0.16707 0.0
C2409 C 0.19821 0.67609 0.15902 0.0
C2410 C 0.19218 0.66315 0.17091 0.0
C2411 C 0.19775 0.65632 0.16671 0.0
C2412 C 0.20351 0.65932 0.15873 0.0
C2413 C 0.2037 0.66915 0.15486 0.0
H2414 H 0.08974 0.36462 0.83839 0.0
H2415 H 0.05495 0.34787 0.82687 0.0
H2416 H 0.07205 0.37209 0.81018 0.0
H2417 H 0.04892 0.37265 0.81416 0.0
C2418 C 0.04469 0.3641 0.81244 0.0
O2419 O 0.05269 0.35866 0.8109 0.0
H2420 H 0.04083 0.36119 0.81903 0.0
C2421 C 0.08206 0.36329 0.83267 0.0
C2422 C 0.08206 0.36923 0.82419 0.0
C2423 C 0.07239 0.3555 0.83371 0.0
C2424 C 0.06258 0.35372 0.82613 0.0
C2425 C 0.06242 0.35982 0.81774 0.0
C2426 C 0.07222 0.36742 0.81668 0.0
H2427 H 0.32684 0.37229 0.62887 0.0
H2428 H 0.33957 0.34742 0.6168 0.0
H2429 H 0.30739 0.3522 0.60253 0.0
H2430 H 0.30742 0.32944 0.60062 0.0
C2431 C 0.31674 0.33059 0.60322 0.0
O2432 O 0.32221 0.34083 0.60196 0.0
H2433 H 0.31815 0.32901 0.61138 0.0
C2434 C 0.32584 0.36576 0.6233 0.0
C2435 C 0.31601 0.36295 0.6157 0.0
C2436 C 0.33441 0.36024 0.6238 0.0
C2437 C 0.33304 0.35176 0.61659 0.0
C2438 C 0.32334 0.34892 0.60894 0.0
C2439 C 0.31489 0.35454 0.60845 0.0
H2440 H 0.08864 0.55955 0.69449 0.0
H2441 H 0.11108 0.54486 0.68113 0.0
H2442 H 0.09777 0.53222 0.70694 0.0
H2443 H 0.12162 0.52754 0.70624 0.0
C2444 C 0.12191 0.5314 0.69901 0.0
O2445 O 0.1109 0.53012 0.6938 0.0
H2446 H 0.1262 0.53991 0.70103 0.0
C2447 C 0.09323 0.55343 0.69437 0.0
C2448 C 0.09223 0.54588 0.70153 0.0
C2449 C 0.10004 0.5532 0.68703 0.0
C2450 C 0.10584 0.54519 0.6868 0.0
C2451 C 0.10514 0.53772 0.69404 0.0
C2452 C 0.09837 0.53808 0.70143 0.0
H2453 H 0.44106 0.43091 0.18604 0.0
H2454 H 0.41597 0.44455 0.16871 0.0
H2455 H 0.42498 0.45138 0.20093 0.0
H2456 H 0.40047 0.44691 0.19299 0.0
C2457 C 0.4006 0.44947 0.18518 0.0
O2458 O 0.41168 0.45417 0.18439 0.0
H2459 H 0.39718 0.44238 0.1797 0.0
C2460 C 0.43535 0.43611 0.18563 0.0
C2461 C 0.43408 0.44119 0.19463 0.0
C2462 C 0.42887 0.4372 0.1762 0.0
C2463 C 0.42106 0.44354 0.17586 0.0
C2464 C 0.41962 0.44852 0.18478 0.0
C2465 C 0.42616 0.44742 0.19411 0.0
H2466 H 0.62887 0.35805 0.18226 0.0
H2467 H 0.61197 0.32509 0.17594 0.0
H2468 H 0.63469 0.34021 0.15696 0.0
H2469 H 0.61244 0.32645 0.14698 0.0
C2470 C 0.61192 0.31991 0.15209 0.0
O2471 O 0.62105 0.32249 0.16007 0.0
H2472 H 0.60384 0.31882 0.15503 0.0
C2473 C 0.62723 0.35068 0.17764 0.0
C2474 C 0.63266 0.35031 0.16929 0.0
C2475 C 0.61966 0.3417 0.18009 0.0
C2476 C 0.6179 0.33209 0.1743 0.0
C2477 C 0.62334 0.3316 0.16599 0.0
C2478 C 0.63075 0.34066 0.16354 0.0
H2479 H 0.89659 0.66359 0.65079 0.0
H2480 H 0.92054 0.69152 0.64509 0.0
H2481 H 0.89003 0.67859 0.62315 0.0
H2482 H 0.91099 0.68608 0.61487 0.0
C2483 C 0.91505 0.69323 0.62018 0.0
O2484 O 0.90861 0.69386 0.62753 0.0
H2485 H 0.92366 0.69251 0.6238 0.0
C2486 C 0.89901 0.66993 0.64602 0.0
C2487 C 0.89198 0.67016 0.63665 0.0
C2488 C 0.90934 0.67754 0.64915 0.0
C2489 C 0.91265 0.68552 0.64277 0.0
C2490 C 0.90565 0.68589 0.63343 0.0
C2491 C 0.89538 0.6782 0.63036 0.0
H2492 H 0.65636 0.44102 0.68594 0.0
H2493 H 0.6256 0.43178 0.6981 0.0
H2494 H 0.6441 0.4643 0.70123 0.0
H2495 H 0.63167 0.45975 0.71868 0.0
C2496 C 0.62755 0.45147 0.71566 0.0
O2497 O 0.62623 0.45082 0.70521 0.0
H2498 H 0.63321 0.44646 0.71899 0.0
C2499 C 0.65026 0.44301 0.69015 0.0
C2500 C 0.65152 0.45358 0.69354 0.0
C2501 C 0.64093 0.43506 0.69167 0.0
C2502 C 0.63284 0.43779 0.69679 0.0
C2503 C 0.63405 0.44829 0.70027 0.0
C2504 C 0.64329 0.45619 0.69854 0.0
H2505 H 0.30852 0.6152 0.82289 0.0
H2506 H 0.3143 0.64894 0.8279 0.0
H2507 H 0.28824 0.62849 0.84041 0.0
H2508 H 0.28144 0.64641 0.83191 0.0
C2509 C 0.2898 0.65232 0.83313 0.0
O2510 O 0.29812 0.64811 0.83841 0.0
H2511 H 0.29179 0.65432 0.82554 0.0
C2512 C 0.30647 0.62204 0.82619 0.0
C2513 C 0.29768 0.62058 0.83184 0.0
C2514 C 0.31261 0.63222 0.82474 0.0
C2515 C 0.30971 0.64101 0.82891 0.0
C2516 C 0.30093 0.63963 0.83452 0.0
C2517 C 0.29505 0.62945 0.83609 0.0
H2518 H 0.11171 0.35673 0.36903 0.0
H2519 H 0.09209 0.32561 0.37257 0.0
H2520 H 0.12414 0.33848 0.39245 0.0
H2521 H 0.11925 0.31589 0.3843 0.0
C2522 C 0.11007 0.31348 0.38485 0.0
O2523 O 0.10663 0.32218 0.38797 0.0
H2524 H 0.10507 0.31018 0.37723 0.0
C2525 C 0.11071 0.34954 0.37291 0.0
C2526 C 0.11918 0.34864 0.38106 0.0
C2527 C 0.1009 0.34131 0.36976 0.0
C2528 C 0.09964 0.33202 0.37483 0.0
C2529 C 0.10802 0.33104 0.38299 0.0
C2530 C 0.11773 0.33934 0.38613 0.0
H2531 H 0.35017 0.58753 0.34077 0.0
H2532 H 0.37975 0.59653 0.327 0.0
H2533 H 0.36271 0.56375 0.32651 0.0
H2534 H 0.38738 0.56597 0.32659 0.0
C2535 C 0.38928 0.57463 0.32589 0.0
O2536 O 0.37961 0.57721 0.32096 0.0
H2537 H 0.39202 0.57858 0.33373 0.0
C2538 C 0.35621 0.58535 0.33659 0.0
C2539 C 0.35539 0.57465 0.33407 0.0
C2540 C 0.36492 0.59328 0.33408 0.0
C2541 C 0.37288 0.59049 0.32887 0.0
C2542 C 0.37194 0.57985 0.32601 0.0
C2543 C 0.36317 0.57196 0.32854 0.0
C2544 C 0.20251 0.45851 0.13014 0.0
C2545 C 0.21271 0.45635 0.12835 0.0
C2546 C 0.19219 0.45087 0.1275 0.0
C2547 C 0.17842 0.42602 0.11135 0.0
H2548 H 0.15687 0.42246 0.12968 0.0
C2549 C 0.13425 0.39695 0.10077 0.0
C2550 C 0.13034 0.39081 0.10842 0.0
C2551 C 0.14386 0.40541 0.10312 0.0
C2552 C 0.16282 0.42331 0.1245 0.0
H2553 H 0.21998 0.44449 0.12218 0.0
H2554 H 0.20208 0.43111 0.11782 0.0
H2555 H 0.1746 0.43614 0.13391 0.0
H2556 H 0.13339 0.38881 0.12453 0.0
H2557 H 0.15026 0.40352 0.12863 0.0
H2558 H 0.16684 0.41299 0.1021 0.0
C2559 C 0.20201 0.43875 0.12116 0.0
C2560 C 0.17293 0.43124 0.12687 0.0
C2561 C 0.21232 0.44639 0.12378 0.0
C2562 C 0.13613 0.39346 0.11849 0.0
C2563 C 0.14579 0.4019 0.12083 0.0
C2564 C 0.16833 0.41808 0.109 0.0
C2565 C 0.19182 0.44088 0.12301 0.0
C2566 C 0.18089 0.43266 0.12035 0.0
C2567 C 0.14984 0.40792 0.11316 0.0
C2568 C 0.16042 0.41659 0.11556 0.0
H2569 H 0.20251 0.46606 0.13373 0.0
H2570 H 0.18449 0.45282 0.12892 0.0
H2571 H 0.18428 0.42697 0.10609 0.0
H2572 H 0.12985 0.39521 0.09296 0.0
H2573 H 0.1466 0.41 0.09705 0.0
C2574 C 0.80156 0.94102 0.37455 0.0
C2575 C 0.79402 0.93719 0.36534 0.0
C2576 C 0.81116 0.93709 0.37748 0.0
C2577 C 0.83041 0.92377 0.36694 0.0
H2578 H 0.83894 0.91684 0.39457 0.0
C2579 C 0.86555 0.90191 0.37762 0.0
C2580 C 0.87327 0.90526 0.3868 0.0
C2581 C 0.85574 0.90563 0.3754 0.0
C2582 C 0.83675 0.91885 0.38686 0.0
H2583 H 0.79072 0.92629 0.35199 0.0
H2584 H 0.8074 0.91938 0.35714 0.0
H2585 H 0.82216 0.92383 0.38993 0.0
H2586 H 0.87666 0.91499 0.40093 0.0
H2587 H 0.85953 0.92162 0.39701 0.0
H2588 H 0.84498 0.91893 0.36385 0.0
C2589 C 0.80592 0.92545 0.36207 0.0
C2590 C 0.82713 0.92285 0.3842 0.0
C2591 C 0.79629 0.92933 0.35916 0.0
C2592 C 0.87081 0.91222 0.39383 0.0
C2593 C 0.861 0.916 0.39158 0.0
C2594 C 0.84002 0.91983 0.3696 0.0
C2595 C 0.81348 0.9293 0.37124 0.0
C2596 C 0.82381 0.92528 0.37419 0.0
C2597 C 0.85342 0.91286 0.38227 0.0
C2598 C 0.84327 0.91724 0.37957 0.0
H2599 H 0.79999 0.94701 0.37951 0.0
H2600 H 0.81687 0.94027 0.38456 0.0
H2601 H 0.8282 0.92576 0.35922 0.0
H2602 H 0.8671 0.8964 0.37213 0.0
H2603 H 0.84996 0.90284 0.36827 0.0
C2604 C 0.27114 0.53115 0.59176 0.0
C2605 C 0.27589 0.52277 0.59496 0.0
C2606 C 0.27798 0.54044 0.58915 0.0
C2607 C 0.30784 0.5558 0.59374 0.0
H2608 H 0.29815 0.57041 0.57051 0.0
C2609 C 0.33859 0.59124 0.58179 0.0
C2610 C 0.33437 0.6001 0.57936 0.0
C2611 C 0.33117 0.58159 0.58268 0.0
C2612 C 0.30093 0.56646 0.57707 0.0
H2613 H 0.29158 0.51762 0.59789 0.0
H2614 H 0.30343 0.5337 0.59318 0.0
H2615 H 0.28564 0.554 0.57414 0.0
H2616 H 0.31907 0.60571 0.57555 0.0
H2617 H 0.30605 0.58881 0.5772 0.0
H2618 H 0.32303 0.56823 0.59678 0.0
C2619 C 0.29443 0.53313 0.59277 0.0
C2620 C 0.29377 0.55708 0.57915 0.0
C2621 C 0.28761 0.52386 0.59536 0.0
C2622 C 0.32254 0.59898 0.57738 0.0
C2623 C 0.3151 0.58931 0.57832 0.0
C2624 C 0.31497 0.56515 0.59168 0.0
C2625 C 0.28973 0.54158 0.58973 0.0
C2626 C 0.29718 0.55161 0.58748 0.0
C2627 C 0.31936 0.58056 0.58123 0.0
C2628 C 0.31165 0.57058 0.58329 0.0
H2629 H 0.26212 0.53053 0.59129 0.0
H2630 H 0.27412 0.54683 0.58689 0.0
H2631 H 0.31063 0.55191 0.60034 0.0
H2632 H 0.34766 0.59183 0.58319 0.0
H2633 H 0.33472 0.57495 0.58467 0.0
C2634 C 0.68795 0.03845 0.92038 0.0
C2635 C 0.68213 0.02918 0.91424 0.0
C2636 C 0.68241 0.04642 0.92193 0.0
C2637 C 0.65851 0.05681 0.91005 0.0
H2638 H 0.66083 0.07057 0.93669 0.0
C2639 C 0.6301 0.08442 0.91624 0.0
C2640 C 0.63507 0.09384 0.92239 0.0
C2641 C 0.6359 0.07648 0.91597 0.0
C2642 C 0.6602 0.06689 0.92919 0.0
H2643 H 0.666 0.02103 0.90487 0.0
H2644 H 0.65637 0.03487 0.9076 0.0
H2645 H 0.67111 0.05694 0.93475 0.0
H2646 H 0.64983 0.10223 0.93335 0.0
H2647 H 0.66012 0.08838 0.93278 0.0
H2648 H 0.64778 0.06676 0.9044 0.0
C2649 C 0.6652 0.036 0.91121 0.0
C2650 C 0.66608 0.05908 0.92808 0.0
C2651 C 0.67068 0.02803 0.90972 0.0
C2652 C 0.64579 0.09501 0.92858 0.0
C2653 C 0.65166 0.08708 0.92825 0.0
C2654 C 0.65272 0.06463 0.91113 0.0
C2655 C 0.67101 0.04531 0.91728 0.0
C2656 C 0.66519 0.05388 0.91851 0.0
C2657 C 0.64687 0.07781 0.92178 0.0
C2658 C 0.65336 0.06968 0.92072 0.0
H2659 H 0.69675 0.03953 0.92402 0.0
H2660 H 0.68712 0.05354 0.9266 0.0
H2661 H 0.65784 0.0531 0.90254 0.0
H2662 H 0.62175 0.08324 0.91153 0.0
H2663 H 0.63181 0.06934 0.91112 0.0
C2664 C 0.20544 0.55378 0.42329 0.0
C2665 C 0.20011 0.54491 0.41644 0.0
C2666 C 0.19917 0.56063 0.42622 0.0
C2667 C 0.16961 0.56304 0.42621 0.0
H2668 H 0.1832 0.59298 0.4264 0.0
C2669 C 0.14489 0.59428 0.43327 0.0
C2670 C 0.14554 0.60222 0.42647 0.0
C2671 C 0.15231 0.5876 0.4338 0.0
C2672 C 0.17928 0.58465 0.42638 0.0
H2673 H 0.18401 0.53624 0.40737 0.0
H2674 H 0.17312 0.5482 0.4124 0.0
H2675 H 0.19439 0.58036 0.42391 0.0
H2676 H 0.15488 0.60976 0.41531 0.0
H2677 H 0.16762 0.59804 0.41607 0.0
H2678 H 0.15432 0.56732 0.42818 0.0
C2679 C 0.18209 0.54978 0.41568 0.0
C2680 C 0.18574 0.5774 0.42507 0.0
C2681 C 0.18834 0.54292 0.41278 0.0
C2682 C 0.15405 0.60361 0.42052 0.0
C2683 C 0.16145 0.59697 0.42105 0.0
C2684 C 0.16314 0.57028 0.4275 0.0
C2685 C 0.18745 0.55879 0.42235 0.0
C2686 C 0.18092 0.5665 0.42477 0.0
C2687 C 0.16057 0.58878 0.42757 0.0
C2688 C 0.16782 0.58117 0.42739 0.0
H2689 H 0.21446 0.55545 0.42636 0.0
H2690 H 0.20353 0.56741 0.43149 0.0
H2691 H 0.16568 0.5547 0.42617 0.0
H2692 H 0.1384 0.593 0.43794 0.0
H2693 H 0.15149 0.58144 0.43899 0.0
C2694 C 0.70781 0.94407 0.62767 0.0
C2695 C 0.70785 0.95382 0.63246 0.0
C2696 C 0.69775 0.93614 0.62509 0.0
C2697 C 0.66884 0.92729 0.63102 0.0
H2698 H 0.6631 0.90991 0.60574 0.0
C2699 C 0.6261 0.89654 0.6156 0.0
C2700 C 0.62688 0.88681 0.61134 0.0
C2701 C 0.63582 0.90488 0.61839 0.0
C2702 C 0.66463 0.91464 0.61287 0.0
H2703 H 0.69728 0.96284 0.63831 0.0
H2704 H 0.67964 0.94908 0.63356 0.0
H2705 H 0.68022 0.92426 0.60997 0.0
H2706 H 0.63859 0.8781 0.60711 0.0
H2707 H 0.65548 0.89263 0.61189 0.0
H2708 H 0.65316 0.91765 0.63386 0.0
C2709 C 0.68745 0.94752 0.63193 0.0
C2710 C 0.67445 0.92286 0.61531 0.0
C2711 C 0.69754 0.95546 0.63454 0.0
C2712 C 0.63764 0.88555 0.61016 0.0
C2713 C 0.64732 0.89388 0.6129 0.0
C2714 C 0.65897 0.91908 0.62856 0.0
C2715 C 0.68743 0.93775 0.62718 0.0
C2716 C 0.67675 0.92924 0.62445 0.0
C2717 C 0.64652 0.90367 0.61695 0.0
C2718 C 0.65681 0.9126 0.61949 0.0
H2719 H 0.71556 0.94258 0.62584 0.0
H2720 H 0.69809 0.92867 0.62155 0.0
H2721 H 0.6704 0.93196 0.63819 0.0
H2722 H 0.61793 0.89781 0.61653 0.0
H2723 H 0.63491 0.91235 0.62143 0.0
C2724 C 0.29957 0.43479 0.86981 0.0
C2725 C 0.30169 0.44397 0.86459 0.0
C2726 C 0.30811 0.42945 0.87254 0.0
C2727 C 0.33517 0.42626 0.86595 0.0
H2728 H 0.34013 0.41571 0.89255 0.0
C2729 C 0.37542 0.41242 0.88066 0.0
C2730 C 0.37415 0.403 0.88553 0.0
C2731 C 0.36637 0.4172 0.8785 0.0
C2732 C 0.33877 0.41851 0.88506 0.0
H2733 H 0.31442 0.45462 0.85801 0.0
H2734 H 0.32931 0.44545 0.86291 0.0
H2735 H 0.32458 0.42432 0.88787 0.0
H2736 H 0.36245 0.39136 0.8922 0.0
H2737 H 0.34658 0.39976 0.88843 0.0
H2738 H 0.34935 0.42053 0.86313 0.0
C2739 C 0.32103 0.44231 0.86483 0.0
C2740 C 0.32986 0.42343 0.88237 0.0
C2741 C 0.31252 0.44765 0.86213 0.0
C2742 C 0.36372 0.39865 0.8885 0.0
C2743 C 0.35463 0.40346 0.88633 0.0
C2744 C 0.34406 0.42137 0.86864 0.0
C2745 C 0.31893 0.43313 0.87005 0.0
C2746 C 0.32804 0.42747 0.87282 0.0
C2747 C 0.35581 0.41269 0.88115 0.0
C2748 C 0.34605 0.41754 0.87826 0.0
H2749 H 0.29135 0.4318 0.8719 0.0
H2750 H 0.30619 0.42236 0.87648 0.0
H2751 H 0.33386 0.42907 0.85845 0.0
H2752 H 0.38343 0.4161 0.87848 0.0
H2753 H 0.36765 0.42445 0.87472 0.0
C2754 C 0.79232 0.04264 0.08771 0.0
C2755 C 0.78806 0.04174 0.09681 0.0
C2756 C 0.79787 0.05249 0.08505 0.0
C2757 C 0.80201 0.08127 0.09081 0.0
H2758 H 0.83026 0.08348 0.08097 0.0
C2759 C 0.83609 0.12026 0.09341 0.0
C2760 C 0.84229 0.12234 0.08553 0.0
C2761 C 0.82825 0.11061 0.09331 0.0
C2762 C 0.82229 0.08298 0.08353 0.0
H2763 H 0.78635 0.05051 0.11024 0.0
H2764 H 0.79601 0.06765 0.10562 0.0
H2765 H 0.81889 0.06618 0.08361 0.0
H2766 H 0.84489 0.11605 0.0712 0.0
H2767 H 0.83108 0.0991 0.071 0.0
H2768 H 0.80556 0.09811 0.09098 0.0
C2769 C 0.79489 0.06077 0.10045 0.0
C2770 C 0.81576 0.07306 0.08506 0.0
C2771 C 0.78935 0.05094 0.1031 0.0
C2772 C 0.84019 0.11467 0.07736 0.0
C2773 C 0.83238 0.10495 0.07729 0.0
C2774 C 0.80853 0.09119 0.0893 0.0
C2775 C 0.79928 0.06167 0.09142 0.0
C2776 C 0.80566 0.07211 0.08891 0.0
C2777 C 0.82643 0.10276 0.08535 0.0
C2778 C 0.81886 0.09218 0.08583 0.0
H2779 H 0.79132 0.03573 0.08262 0.0
H2780 H 0.80102 0.05293 0.07799 0.0
H2781 H 0.79415 0.0808 0.09359 0.0
H2782 H 0.83744 0.12607 0.09975 0.0
H2783 H 0.82391 0.10915 0.09968 0.0
C2784 C 0.06524 0.12996 0.40882 0.0
C2785 C 0.07585 0.13612 0.41385 0.0
C2786 C 0.0646 0.12158 0.4018 0.0
C2787 C 0.08165 0.10454 0.39227 0.0
H2788 H 0.05927 0.10203 0.36758 0.0
C2789 C 0.08342 0.08298 0.35422 0.0
C2790 C 0.07304 0.07745 0.3482 0.0
C2791 C 0.08357 0.08869 0.36329 0.0
C2792 C 0.06545 0.1025 0.37449 0.0
H2793 H 0.09411 0.13826 0.41562 0.0
H2794 H 0.09303 0.1238 0.40321 0.0
H2795 H 0.05982 0.11479 0.38137 0.0
H2796 H 0.05475 0.07285 0.34737 0.0
H2797 H 0.05502 0.08282 0.36315 0.0
H2798 H 0.08749 0.09244 0.38513 0.0
C2799 C 0.08517 0.12526 0.40483 0.0
C2800 C 0.06576 0.10982 0.38242 0.0
C2801 C 0.0858 0.13358 0.41192 0.0
C2802 C 0.06287 0.07722 0.35174 0.0
C2803 C 0.06302 0.08293 0.36077 0.0
C2804 C 0.08138 0.09725 0.38427 0.0
C2805 C 0.07456 0.11925 0.39957 0.0
C2806 C 0.0739 0.11099 0.3914 0.0
C2807 C 0.07334 0.08897 0.3665 0.0
C2808 C 0.07331 0.0962 0.37528 0.0
H2809 H 0.05742 0.13164 0.41028 0.0
H2810 H 0.05627 0.11699 0.39805 0.0
H2811 H 0.08793 0.10513 0.39912 0.0
H2812 H 0.09139 0.08336 0.35167 0.0
H2813 H 0.09165 0.09332 0.36751 0.0
C2814 C 0.05955 0.85084 0.74979 0.0
C2815 C 0.05475 0.85948 0.74786 0.0
C2816 C 0.06619 0.84779 0.74327 0.0
C2817 C 0.08349 0.85851 0.72446 0.0
H2818 H 0.07927 0.82934 0.7146 0.0
C2819 C 0.10128 0.8481 0.68999 0.0
C2820 C 0.10689 0.8399 0.69045 0.0
C2821 C 0.09505 0.84974 0.69739 0.0
C2822 C 0.08064 0.8375 0.71739 0.0
H2823 H 0.05324 0.87174 0.73763 0.0
H2824 H 0.06461 0.86636 0.72626 0.0
H2825 H 0.06826 0.83367 0.72704 0.0
H2826 H 0.11 0.8267 0.69881 0.0
H2827 H 0.09902 0.82957 0.71184 0.0
H2828 H 0.09573 0.86241 0.71482 0.0
C2829 C 0.06333 0.86196 0.73282 0.0
C2830 C 0.07435 0.83998 0.72451 0.0
C2831 C 0.05668 0.86496 0.73927 0.0
C2832 C 0.10575 0.83308 0.69827 0.0
C2833 C 0.09948 0.83473 0.70571 0.0
C2834 C 0.08974 0.85605 0.7174 0.0
C2835 C 0.06823 0.8534 0.73477 0.0
C2836 C 0.07554 0.85054 0.72795 0.0
C2837 C 0.09426 0.84322 0.70545 0.0
C2838 C 0.08822 0.84556 0.7136 0.0
H2839 H 0.05815 0.84642 0.75632 0.0
H2840 H 0.06989 0.84118 0.74498 0.0
H2841 H 0.0848 0.8667 0.72715 0.0
H2842 H 0.10176 0.85333 0.68393 0.0
H2843 H 0.09088 0.85618 0.69682 0.0
C2844 C 0.30914 0.83612 0.84917 0.0
C2845 C 0.31628 0.83238 0.85672 0.0
C2846 C 0.31371 0.84409 0.84332 0.0
C2847 C 0.3396 0.86548 0.84345 0.0
H2848 H 0.32617 0.86584 0.81517 0.0
C2849 C 0.35842 0.89789 0.81898 0.0
C2850 C 0.35047 0.90292 0.81383 0.0
C2851 C 0.35475 0.88835 0.8232 0.0
C2852 C 0.33 0.86584 0.82306 0.0
H2853 H 0.33381 0.83378 0.86385 0.0
H2854 H 0.34183 0.84754 0.85355 0.0
H2855 H 0.31879 0.85101 0.82467 0.0
H2856 H 0.33251 0.90162 0.8085 0.0
H2857 H 0.32609 0.88495 0.81582 0.0
H2858 H 0.35077 0.88031 0.84184 0.0
C2859 C 0.33267 0.84454 0.8523 0.0
C2860 C 0.32574 0.85738 0.82853 0.0
C2861 C 0.32809 0.83665 0.8582 0.0
C2862 C 0.33882 0.89794 0.8125 0.0
C2863 C 0.33515 0.88837 0.81663 0.0
C2864 C 0.34391 0.87388 0.83797 0.0
C2865 C 0.32554 0.84843 0.84483 0.0
C2866 C 0.3304 0.85715 0.83883 0.0
C2867 C 0.34306 0.88362 0.82226 0.0
C2868 C 0.33908 0.87422 0.82775 0.0
H2869 H 0.29999 0.83304 0.84793 0.0
H2870 H 0.30794 0.847 0.83777 0.0
H2871 H 0.34328 0.86568 0.85141 0.0
H2872 H 0.36746 0.90158 0.82017 0.0
H2873 H 0.36104 0.88481 0.82741 0.0
C2874 C 0.45762 0.1512 0.22998 0.0
C2875 C 0.46889 0.15027 0.23089 0.0
C2876 C 0.4521 0.15434 0.22108 0.0
C2877 C 0.45663 0.16761 0.19782 0.0
H2878 H 0.42552 0.1518 0.18778 0.0
C2879 C 0.4304 0.17171 0.15823 0.0
C2880 C 0.4187 0.17079 0.15772 0.0
C2881 C 0.43719 0.17014 0.16727 0.0
C2882 C 0.43414 0.15641 0.19054 0.0
H2883 H 0.4833 0.15216 0.22322 0.0
H2884 H 0.47357 0.15754 0.20755 0.0
H2885 H 0.4361 0.14718 0.20322 0.0
H2886 H 0.4051 0.16831 0.16637 0.0
H2887 H 0.41692 0.1658 0.18214 0.0
H2888 H 0.45459 0.17686 0.18506 0.0
C2889 C 0.46905 0.15589 0.21379 0.0
C2890 C 0.44022 0.15374 0.19939 0.0
C2891 C 0.47458 0.15271 0.22272 0.0
C2892 C 0.41406 0.16889 0.16652 0.0
C2893 C 0.42082 0.16739 0.17553 0.0
C2894 C 0.45051 0.17032 0.18893 0.0
C2895 C 0.4577 0.15661 0.21283 0.0
C2896 C 0.45149 0.15936 0.2032 0.0
C2897 C 0.43239 0.16767 0.17595 0.0
C2898 C 0.43914 0.16481 0.18526 0.0
H2899 H 0.45293 0.14927 0.23607 0.0
H2900 H 0.4434 0.15494 0.22063 0.0
H2901 H 0.46529 0.17212 0.2006 0.0
H2902 H 0.43416 0.17313 0.15153 0.0
H2903 H 0.44606 0.17038 0.16733 0.0
C2904 C 0.13907 0.85157 0.14413 0.0
C2905 C 0.14225 0.85436 0.13482 0.0
C2906 C 0.13954 0.8594 0.15173 0.0
C2907 C 0.15365 0.88725 0.16004 0.0
H2908 H 0.1285 0.88678 0.1741 0.0
C2909 C 0.14906 0.92462 0.18007 0.0
C2910 C 0.14667 0.9242 0.18993 0.0
C2911 C 0.14823 0.9154 0.17416 0.0
C2912 C 0.13565 0.88693 0.17033 0.0
H2913 H 0.14857 0.86751 0.12627 0.0
H2914 H 0.14924 0.88106 0.13938 0.0
H2915 H 0.12782 0.87177 0.1623 0.0
H2916 H 0.14099 0.91373 0.20116 0.0
H2917 H 0.13944 0.89745 0.1907 0.0
H2918 H 0.1614 0.90243 0.16785 0.0
C2919 C 0.14644 0.87287 0.14086 0.0
C2920 C 0.13526 0.87835 0.16359 0.0
C2921 C 0.14591 0.86509 0.13329 0.0
C2922 C 0.14289 0.91428 0.19359 0.0
C2923 C 0.14202 0.90499 0.18762 0.0
C2924 C 0.15402 0.89578 0.16673 0.0
C2925 C 0.14333 0.87013 0.15019 0.0
C2926 C 0.14415 0.87856 0.15819 0.0
C2927 C 0.14494 0.90549 0.17793 0.0
C2928 C 0.14491 0.89585 0.17174 0.0
H2929 H 0.13615 0.84336 0.14551 0.0
H2930 H 0.13712 0.85706 0.15885 0.0
H2931 H 0.16075 0.88753 0.15619 0.0
H2932 H 0.15168 0.93212 0.17693 0.0
H2933 H 0.15024 0.91603 0.16663 0.0
C2934 C 0.35883 0.83043 0.27834 0.0
C2935 C 0.35765 0.83525 0.26916 0.0
C2936 C 0.35067 0.82972 0.2845 0.0
C2937 C 0.32808 0.84207 0.29002 0.0
H2938 H 0.32084 0.81773 0.3055 0.0
C2939 C 0.29578 0.83744 0.31762 0.0
C2940 C 0.29959 0.83408 0.32715 0.0
C2941 C 0.30193 0.8373 0.30977 0.0
C2942 C 0.32281 0.82459 0.30125 0.0
H2943 H 0.34681 0.84294 0.25918 0.0
H2944 H 0.33239 0.84148 0.26987 0.0
H2945 H 0.33297 0.81766 0.29294 0.0
H2946 H 0.31313 0.82835 0.33597 0.0
H2947 H 0.32366 0.82793 0.32227 0.0
H2948 H 0.31791 0.84899 0.29842 0.0
C2949 C 0.33974 0.83839 0.27235 0.0
C2950 C 0.32978 0.82457 0.29407 0.0
C2951 C 0.34794 0.83912 0.26618 0.0
C2952 C 0.30976 0.83073 0.32866 0.0
C2953 C 0.31583 0.83051 0.32082 0.0
C2954 C 0.32103 0.84206 0.29717 0.0
C2955 C 0.34106 0.83375 0.28163 0.0
C2956 C 0.33271 0.83339 0.28852 0.0
C2957 C 0.31196 0.83373 0.31127 0.0
C2958 C 0.31853 0.83341 0.30301 0.0
H2959 H 0.36612 0.82724 0.2808 0.0
H2960 H 0.35206 0.82622 0.29165 0.0
H2961 H 0.33025 0.84904 0.28596 0.0
H2962 H 0.28793 0.83998 0.31617 0.0
H2963 H 0.29873 0.83979 0.30247 0.0
C2964 C 0.36528 0.16888 0.59374 0.0
C2965 C 0.37401 0.17354 0.5886 0.0
C2966 C 0.36671 0.1611 0.60033 0.0
C2967 C 0.38867 0.15083 0.61608 0.0
H2968 H 0.36353 0.12657 0.61626 0.0
C2969 C 0.3924 0.11647 0.64162 0.0
C2970 C 0.38306 0.11249 0.6463 0.0
C2971 C 0.3917 0.12369 0.63423 0.0
C2972 C 0.3706 0.13334 0.61637 0.0
H2973 H 0.39109 0.17369 0.58638 0.0
H2974 H 0.39355 0.15999 0.59786 0.0
H2975 H 0.36152 0.13949 0.60391 0.0
H2976 H 0.36583 0.11327 0.64719 0.0
H2977 H 0.36462 0.12583 0.63439 0.0
H2978 H 0.39769 0.14473 0.62864 0.0
C2979 C 0.38563 0.16243 0.59682 0.0
C2980 C 0.36945 0.14074 0.60929 0.0
C2981 C 0.38418 0.17019 0.59017 0.0
C2982 C 0.37309 0.116 0.64357 0.0
C2983 C 0.37239 0.1232 0.63622 0.0
C2984 C 0.38982 0.14342 0.62319 0.0
C2985 C 0.3769 0.1578 0.60197 0.0
C2986 C 0.37841 0.14964 0.60914 0.0
C2987 C 0.38165 0.12708 0.6314 0.0
C2988 C 0.38074 0.13466 0.6235 0.0
H2989 H 0.3573 0.17121 0.59261 0.0
H2990 H 0.35987 0.15777 0.60427 0.0
H2991 H 0.39569 0.15765 0.61623 0.0
H2992 H 0.40016 0.11385 0.64351 0.0
H2993 H 0.39895 0.12647 0.63061 0.0
C2994 C 0.09021 0.13432 0.82017 0.0
C2995 C 0.08487 0.12363 0.81738 0.0
C2996 C 0.10013 0.13723 0.82755 0.0
C2997 C 0.12359 0.12706 0.84174 0.0
H2998 H 0.12616 0.15077 0.86095 0.0
C2999 C 0.15639 0.13715 0.87961 0.0
C3000 C 0.16154 0.14789 0.88243 0.0
C3001 C 0.14773 0.13409 0.87105 0.0
C3002 C 0.12564 0.14421 0.85557 0.0
H3003 H 0.08577 0.1076 0.82006 0.0
H3004 H 0.10297 0.11266 0.8331 0.0
H3005 H 0.10969 0.14562 0.84729 0.0
H3006 H 0.16211 0.16379 0.87809 0.0
H3007 H 0.14696 0.15846 0.86326 0.0
H3008 H 0.13949 0.12556 0.85026 0.0
C3009 C 0.09964 0.11881 0.82945 0.0
C3010 C 0.1162 0.14126 0.84772 0.0
C3011 C 0.08976 0.1159 0.822 0.0
C3012 C 0.15815 0.15547 0.87627 0.0
C3013 C 0.14948 0.15241 0.86776 0.0
C3014 C 0.13302 0.12997 0.84967 0.0
C3015 C 0.10488 0.12952 0.83239 0.0
C3016 C 0.11505 0.13266 0.84068 0.0
C3017 C 0.14403 0.14171 0.86517 0.0
C3018 C 0.13415 0.1386 0.85665 0.0
H3019 H 0.08674 0.14045 0.81662 0.0
H3020 H 0.10406 0.14555 0.82945 0.0
H3021 H 0.12306 0.12048 0.83639 0.0
H3022 H 0.15874 0.13112 0.88423 0.0
H3023 H 0.14364 0.12578 0.86927 0.0
C3024 C 0.84206 0.33767 0.75981 0.0
C3025 C 0.85181 0.33385 0.76274 0.0
C3026 C 0.83381 0.33674 0.76597 0.0
C3027 C 0.82392 0.32244 0.78748 0.0
H3028 H 0.81192 0.34667 0.79235 0.0
C3029 C 0.8049 0.32827 0.8227 0.0
C3030 C 0.79458 0.33137 0.82146 0.0
C3031 C 0.81071 0.32816 0.81466 0.0
C3032 C 0.81508 0.33979 0.79096 0.0
H3033 H 0.86031 0.32571 0.77424 0.0
H3034 H 0.84619 0.32435 0.78504 0.0
H3035 H 0.82413 0.347 0.77972 0.0
H3036 H 0.7824 0.33697 0.81073 0.0
H3037 H 0.79278 0.33701 0.79669 0.0
H3038 H 0.81521 0.31539 0.79896 0.0
C3039 C 0.84479 0.32796 0.77796 0.0
C3040 C 0.82205 0.33996 0.78371 0.0
C3041 C 0.85299 0.32888 0.77182 0.0
C3042 C 0.79036 0.33461 0.81199 0.0
C3043 C 0.79627 0.3346 0.80394 0.0
C3044 C 0.81705 0.32231 0.79476 0.0
C3045 C 0.83513 0.33194 0.77516 0.0
C3046 C 0.82675 0.33137 0.78204 0.0
C3047 C 0.80644 0.33126 0.80518 0.0
C3048 C 0.81275 0.33106 0.79672 0.0
H3049 H 0.84092 0.3416 0.75289 0.0
H3050 H 0.82643 0.33979 0.76353 0.0
H3051 H 0.82716 0.31558 0.78623 0.0
H3052 H 0.8086 0.32601 0.82995 0.0
H3053 H 0.81866 0.32577 0.81591 0.0
C3054 C 0.88305 0.68172 0.09975 0.0
C3055 C 0.8773 0.6784 0.08975 0.0
C3056 C 0.88482 0.67435 0.10673 0.0
C3057 C 0.8855 0.64639 0.10878 0.0
H3058 H 0.88003 0.65144 0.13593 0.0
C3059 C 0.88173 0.61442 0.13753 0.0
C3060 C 0.88633 0.61762 0.14781 0.0
C3061 C 0.88145 0.62188 0.13035 0.0
C3062 C 0.88176 0.64997 0.12843 0.0
H3063 H 0.86897 0.66471 0.07923 0.0
H3064 H 0.87208 0.65183 0.09142 0.0
H3065 H 0.87797 0.66433 0.12358 0.0
H3066 H 0.89443 0.63117 0.15857 0.0
H3067 H 0.89419 0.64414 0.14603 0.0
H3068 H 0.88923 0.63197 0.11364 0.0
C3069 C 0.87533 0.66014 0.09383 0.0
C3070 C 0.88057 0.65737 0.12134 0.0
C3071 C 0.87354 0.66753 0.08684 0.0
C3072 C 0.89091 0.62842 0.1507 0.0
C3073 C 0.89064 0.63588 0.14353 0.0
C3074 C 0.88671 0.63898 0.11588 0.0
C3075 C 0.8809 0.66347 0.10387 0.0
C3076 C 0.8824 0.65565 0.11143 0.0
C3077 C 0.88577 0.6327 0.13329 0.0
C3078 C 0.88483 0.64068 0.12579 0.0
H3079 H 0.88625 0.69003 0.10219 0.0
H3080 H 0.88933 0.67717 0.11436 0.0
H3081 H 0.88711 0.6449 0.10124 0.0
H3082 H 0.87825 0.60615 0.13503 0.0
H3083 H 0.87757 0.61916 0.12255 0.0
C3084 C 0.59257 0.63497 0.31852 0.0
C3085 C 0.58544 0.62471 0.31713 0.0
C3086 C 0.6025 0.63745 0.32592 0.0
C3087 C 0.61547 0.62825 0.34976 0.0
H3088 H 0.6428 0.64818 0.34557 0.0
C3089 C 0.65661 0.6385 0.38009 0.0
C3090 C 0.6618 0.64932 0.38224 0.0
C3091 C 0.64801 0.63496 0.37157 0.0
C3092 C 0.63521 0.64264 0.34686 0.0
H3093 H 0.58336 0.60892 0.32212 0.0
H3094 H 0.60074 0.61319 0.33493 0.0
H3095 H 0.62644 0.64293 0.33169 0.0
H3096 H 0.66239 0.66485 0.37694 0.0
H3097 H 0.64733 0.65868 0.36212 0.0
H3098 H 0.62421 0.62801 0.36494 0.0
C3099 C 0.59854 0.61939 0.33048 0.0
C3100 C 0.62582 0.63964 0.33892 0.0
C3101 C 0.58859 0.61693 0.32313 0.0
C3102 C 0.65846 0.65648 0.37553 0.0
C3103 C 0.64992 0.65293 0.36699 0.0
C3104 C 0.62486 0.63121 0.35767 0.0
C3105 C 0.60556 0.62971 0.33206 0.0
C3106 C 0.61579 0.63249 0.3403 0.0
C3107 C 0.64447 0.64215 0.36499 0.0
C3108 C 0.6348 0.63851 0.35635 0.0
H3109 H 0.59031 0.64116 0.3141 0.0
H3110 H 0.60759 0.64551 0.32701 0.0
H3111 H 0.60783 0.62287 0.35116 0.0
H3112 H 0.65896 0.6328 0.38515 0.0
H3113 H 0.64405 0.62659 0.37017 0.0
C3114 C 0.83114 0.34636 0.35575 0.0
C3115 C 0.81928 0.34237 0.35432 0.0
C3116 C 0.83588 0.35433 0.35 0.0
C3117 C 0.82925 0.36797 0.32669 0.0
H3118 H 0.85512 0.39 0.34022 0.0
C3119 C 0.84424 0.40862 0.31125 0.0
C3120 C 0.85603 0.41298 0.31243 0.0
C3121 C 0.84008 0.39913 0.31534 0.0
C3122 C 0.84801 0.38383 0.33629 0.0
H3123 H 0.8031 0.3436 0.34577 0.0
H3124 H 0.81134 0.35772 0.33588 0.0
H3125 H 0.84714 0.37534 0.34954 0.0
H3126 H 0.87268 0.41066 0.3185 0.0
H3127 H 0.8654 0.39405 0.32567 0.0
H3128 H 0.82995 0.37673 0.31353 0.0
C3129 C 0.81701 0.35453 0.34128 0.0
C3130 C 0.84342 0.3754 0.34163 0.0
C3131 C 0.81227 0.34647 0.34697 0.0
C3132 C 0.86356 0.40745 0.31742 0.0
C3133 C 0.8594 0.39801 0.3216 0.0
C3134 C 0.83379 0.37646 0.32138 0.0
C3135 C 0.82889 0.35858 0.34275 0.0
C3136 C 0.83395 0.36738 0.33692 0.0
C3137 C 0.84761 0.39386 0.32078 0.0
C3138 C 0.84318 0.3845 0.32614 0.0
H3139 H 0.83676 0.34322 0.36125 0.0
H3140 H 0.84506 0.35709 0.35121 0.0
H3141 H 0.82208 0.36185 0.32276 0.0
H3142 H 0.83825 0.41269 0.30737 0.0
H3143 H 0.83096 0.39617 0.31463 0.0
C3144 C 0.57021 0.6299 0.90916 0.0
C3145 C 0.58038 0.63749 0.91302 0.0
C3146 C 0.57014 0.62151 0.90237 0.0
C3147 C 0.58666 0.61422 0.88393 0.0
H3148 H 0.56613 0.5866 0.88323 0.0
C3149 C 0.58395 0.58134 0.85324 0.0
C3150 C 0.57282 0.57663 0.84813 0.0
C3151 C 0.58578 0.5875 0.8624 0.0
C3152 C 0.57191 0.59427 0.88334 0.0
H3153 H 0.59854 0.64197 0.91319 0.0
H3154 H 0.59847 0.62726 0.90146 0.0
H3155 H 0.5677 0.59988 0.89702 0.0
H3156 H 0.55493 0.57407 0.84889 0.0
H3157 H 0.55812 0.58481 0.86485 0.0
H3158 H 0.59074 0.60867 0.87018 0.0
C3159 C 0.59049 0.62791 0.90347 0.0
C3160 C 0.57278 0.6019 0.89122 0.0
C3161 C 0.59054 0.63634 0.9102 0.0
C3162 C 0.5636 0.57769 0.85263 0.0
C3163 C 0.56543 0.58377 0.86181 0.0
C3164 C 0.58584 0.60658 0.8761 0.0
C3165 C 0.58026 0.62048 0.89934 0.0
C3166 C 0.58002 0.61204 0.89151 0.0
C3167 C 0.57653 0.58897 0.86666 0.0
C3168 C 0.57831 0.59659 0.87562 0.0
H3169 H 0.56224 0.63064 0.91112 0.0
H3170 H 0.56208 0.61604 0.89923 0.0
H3171 H 0.59219 0.62198 0.8838 0.0
H3172 H 0.59121 0.58069 0.84992 0.0
H3173 H 0.59444 0.59132 0.86603 0.0
C3174 C 0.78562 0.54486 0.87892 0.0
C3175 C 0.77939 0.54446 0.86904 0.0
C3176 C 0.79617 0.55209 0.88193 0.0
C3177 C 0.82005 0.56859 0.87213 0.0
H3178 H 0.8258 0.58509 0.89792 0.0
C3179 C 0.85828 0.60489 0.88367 0.0
C3180 C 0.86348 0.60687 0.89395 0.0
C3181 C 0.8484 0.59681 0.88058 0.0
C3182 C 0.82444 0.58044 0.89077 0.0
H3183 H 0.77946 0.55113 0.8545 0.0
H3184 H 0.7979 0.56378 0.85977 0.0
H3185 H 0.80792 0.57182 0.89267 0.0
H3186 H 0.86273 0.60164 0.90899 0.0
H3187 H 0.84565 0.58739 0.90362 0.0
H3188 H 0.8366 0.57714 0.87025 0.0
C3189 C 0.79461 0.55849 0.86518 0.0
C3190 C 0.81416 0.57285 0.88775 0.0
C3191 C 0.78401 0.55133 0.86219 0.0
C3192 C 0.85879 0.6004 0.90104 0.0
C3193 C 0.84898 0.59226 0.89795 0.0
C3194 C 0.83038 0.57613 0.87519 0.0
C3195 C 0.80076 0.55901 0.8751 0.0
C3196 C 0.81183 0.56688 0.87838 0.0
C3197 C 0.84355 0.59045 0.88771 0.0
C3198 C 0.83269 0.58219 0.88453 0.0
H3199 H 0.78224 0.53972 0.88439 0.0
H3200 H 0.80075 0.55225 0.8896 0.0
H3201 H 0.81854 0.56402 0.86492 0.0
H3202 H 0.86165 0.60983 0.87805 0.0
H3203 H 0.84438 0.59575 0.87265 0.0
C3204 C 0.16373 0.03798 0.64373 0.0
C3205 C 0.16196 0.02915 0.63681 0.0
C3206 C 0.15734 0.04545 0.64183 0.0
C3207 C 0.13982 0.05583 0.62146 0.0
H3208 H 0.12725 0.06561 0.64353 0.0
C3209 C 0.10646 0.08087 0.61556 0.0
C3210 C 0.10714 0.0887 0.62325 0.0
C3211 C 0.11354 0.07389 0.61692 0.0
C3212 C 0.13083 0.06309 0.63731 0.0
H3213 H 0.15228 0.02137 0.62237 0.0
H3214 H 0.14105 0.03441 0.61909 0.0
H3215 H 0.13889 0.05296 0.64647 0.0
H3216 H 0.11612 0.0957 0.63817 0.0
H3217 H 0.12858 0.08368 0.64048 0.0
H3218 H 0.1318 0.06602 0.61231 0.0
C3219 C 0.14741 0.03556 0.62596 0.0
C3220 C 0.13748 0.05582 0.639 0.0
C3221 C 0.15376 0.02804 0.62789 0.0
C3222 C 0.11527 0.08962 0.63218 0.0
C3223 C 0.12238 0.0827 0.63351 0.0
C3224 C 0.1332 0.06316 0.61978 0.0
C3225 C 0.14907 0.0443 0.63295 0.0
C3226 C 0.14206 0.0521 0.6311 0.0
C3227 C 0.12149 0.07464 0.62597 0.0
C3228 C 0.12862 0.06689 0.62769 0.0
H3229 H 0.16992 0.03902 0.65071 0.0
H3230 H 0.15889 0.05216 0.64731 0.0
H3231 H 0.14333 0.05319 0.61525 0.0
H3232 H 0.10021 0.07993 0.60863 0.0
H3233 H 0.11254 0.06771 0.61099 0.0
C3234 C 0.73404 0.47644 0.43211 0.0
C3235 C 0.73567 0.47636 0.42199 0.0
C3236 C 0.72763 0.46749 0.43568 0.0
C3237 C 0.71506 0.4387 0.42958 0.0
H3238 H 0.69253 0.44349 0.44498 0.0
C3239 C 0.67426 0.40721 0.43163 0.0
C3240 C 0.66995 0.40668 0.44068 0.0
C3241 C 0.68381 0.4151 0.43071 0.0
C3242 C 0.6989 0.442 0.44085 0.0
H3243 H 0.73196 0.46674 0.40774 0.0
H3244 H 0.72077 0.45119 0.41392 0.0
H3245 H 0.70653 0.45848 0.44087 0.0
H3246 H 0.67249 0.41378 0.45601 0.0
H3247 H 0.68929 0.4276 0.45444 0.0
H3248 H 0.70718 0.42222 0.4293 0.0
C3249 C 0.7246 0.4581 0.41917 0.0
C3250 C 0.70694 0.4506 0.43849 0.0
C3251 C 0.73102 0.46703 0.41561 0.0
C3252 C 0.67565 0.41398 0.44895 0.0
C3253 C 0.6852 0.42193 0.44802 0.0
C3254 C 0.70701 0.4301 0.43193 0.0
C3255 C 0.72268 0.45827 0.4292 0.0
C3256 C 0.71497 0.44907 0.43264 0.0
C3257 C 0.68928 0.42267 0.43883 0.0
C3258 C 0.69869 0.43166 0.43741 0.0
H3259 H 0.73766 0.48345 0.43726 0.0
H3260 H 0.72646 0.46784 0.44349 0.0
H3261 H 0.72126 0.43723 0.42523 0.0
H3262 H 0.67012 0.40161 0.42516 0.0
H3263 H 0.68665 0.4155 0.4235 0.0
C3264 C 0.2816 0.95606 0.09375 0.0
C3265 C 0.28968 0.96366 0.10061 0.0
C3266 C 0.28473 0.94769 0.08917 0.0
C3267 C 0.3098 0.93852 0.08405 0.0
H3268 H 0.28956 0.91069 0.08301 0.0
C3269 C 0.32443 0.90009 0.08012 0.0
C3270 C 0.31691 0.89134 0.07422 0.0
C3271 C 0.32096 0.90931 0.08184 0.0
C3272 C 0.29522 0.91842 0.08308 0.0
H3273 H 0.30743 0.96847 0.10796 0.0
H3274 H 0.31288 0.95386 0.10004 0.0
H3275 H 0.28376 0.92609 0.08882 0.0
H3276 H 0.29996 0.88551 0.06526 0.0
H3277 H 0.2939 0.9017 0.06824 0.0
H3278 H 0.32138 0.93077 0.07855 0.0
C3279 C 0.30415 0.95445 0.09805 0.0
C3280 C 0.2919 0.92727 0.08641 0.0
C3281 C 0.30103 0.96283 0.10261 0.0
C3282 C 0.30595 0.89214 0.06981 0.0
C3283 C 0.30246 0.90136 0.07159 0.0
C3284 C 0.31313 0.92967 0.08074 0.0
C3285 C 0.29601 0.94671 0.09136 0.0
C3286 C 0.29921 0.93741 0.08708 0.0
C3287 C 0.30988 0.91001 0.07774 0.0
C3288 C 0.30595 0.9195 0.08036 0.0
H3289 H 0.27282 0.95657 0.09194 0.0
H3290 H 0.27829 0.94197 0.08393 0.0
H3291 H 0.31555 0.94623 0.08429 0.0
H3292 H 0.33297 0.89975 0.08352 0.0
H3293 H 0.32686 0.91578 0.08669 0.0
C3294 C 0.78158 0.46632 0.59232 0.0
C3295 C 0.78881 0.47257 0.60072 0.0
C3296 C 0.7844 0.45753 0.58819 0.0
C3297 C 0.80164 0.43858 0.59558 0.0
H3298 H 0.7951 0.4299 0.5668 0.0
C3299 C 0.80431 0.39763 0.58134 0.0
C3300 C 0.80981 0.39701 0.57308 0.0
C3301 C 0.80131 0.40687 0.58396 0.0
C3302 C 0.79704 0.43226 0.57485 0.0
H3303 H 0.80499 0.47487 0.611 0.0
H3304 H 0.80997 0.45962 0.60376 0.0
H3305 H 0.79141 0.44647 0.57267 0.0
H3306 H 0.81612 0.40547 0.56083 0.0
H3307 H 0.81094 0.42173 0.56546 0.0
H3308 H 0.80743 0.42454 0.5978 0.0
C3309 C 0.80198 0.46134 0.60051 0.0
C3310 C 0.79483 0.4417 0.57822 0.0
C3311 C 0.79914 0.47009 0.60465 0.0
C3312 C 0.81184 0.40571 0.56722 0.0
C3313 C 0.80886 0.41501 0.56986 0.0
C3314 C 0.80383 0.42918 0.59222 0.0
C3315 C 0.79454 0.45482 0.59237 0.0
C3316 C 0.7971 0.44496 0.58864 0.0
C3317 C 0.80378 0.41576 0.5784 0.0
C3318 C 0.8015 0.42586 0.58183 0.0
H3319 H 0.77351 0.46798 0.58918 0.0
H3320 H 0.77844 0.45263 0.58199 0.0
H3321 H 0.80335 0.44076 0.60366 0.0
H3322 H 0.80243 0.39098 0.58588 0.0
H3323 H 0.79715 0.40709 0.59043 0.0
C3324 C 0.28673 0.06245 0.36621 0.0
C3325 C 0.28653 0.05165 0.36546 0.0
C3326 C 0.29702 0.07007 0.36906 0.0
C3327 C 0.32788 0.07491 0.37021 0.0
H3328 H 0.32947 0.0972 0.39066 0.0
C3329 C 0.37023 0.1048 0.38826 0.0
C3330 C 0.36977 0.11521 0.39066 0.0
C3331 C 0.36021 0.09694 0.38488 0.0
C3332 C 0.32915 0.09114 0.38483 0.0
H3333 H 0.29709 0.04045 0.36706 0.0
H3334 H 0.31508 0.0538 0.37185 0.0
H3335 H 0.31178 0.08374 0.38526 0.0
H3336 H 0.35854 0.12567 0.39098 0.0
H3337 H 0.3411 0.11207 0.38487 0.0
H3338 H 0.34522 0.08238 0.36966 0.0
C3339 C 0.30723 0.05633 0.3702 0.0
C3340 C 0.319 0.0834 0.38177 0.0
C3341 C 0.29692 0.04869 0.36744 0.0
C3342 C 0.35913 0.11767 0.38935 0.0
C3343 C 0.34914 0.10985 0.38589 0.0
C3344 C 0.33803 0.08271 0.37322 0.0
C3345 C 0.30737 0.06709 0.37113 0.0
C3346 C 0.31824 0.07522 0.37441 0.0
C3347 C 0.34952 0.09935 0.38374 0.0
C3348 C 0.33878 0.09096 0.38054 0.0
H3349 H 0.27894 0.06506 0.36453 0.0
H3350 H 0.29688 0.07832 0.36955 0.0
H3351 H 0.32751 0.06874 0.36446 0.0
H3352 H 0.37832 0.10267 0.38928 0.0
H3353 H 0.36083 0.08892 0.38341 0.0
C3354 C 0.66313 0.53974 0.14172 0.0
C3355 C 0.66164 0.53112 0.13463 0.0
C3356 C 0.65646 0.54702 0.14 0.0
C3357 C 0.63852 0.5573 0.11986 0.0
H3358 H 0.62578 0.56636 0.14215 0.0
C3359 C 0.60438 0.58152 0.1145 0.0
C3360 C 0.60503 0.5893 0.12224 0.0
C3361 C 0.61161 0.57467 0.11575 0.0
C3362 C 0.6294 0.56404 0.13587 0.0
H3363 H 0.65215 0.52351 0.12007 0.0
H3364 H 0.64043 0.53618 0.1171 0.0
H3365 H 0.6378 0.55399 0.14484 0.0
H3366 H 0.6141 0.59632 0.13713 0.0
H3367 H 0.62679 0.5845 0.13926 0.0
H3368 H 0.63014 0.56738 0.1109 0.0
C3369 C 0.64679 0.53732 0.12397 0.0
C3370 C 0.63628 0.55693 0.13742 0.0
C3371 C 0.65342 0.53001 0.12572 0.0
C3372 C 0.61326 0.59028 0.13111 0.0
C3373 C 0.62051 0.58348 0.13234 0.0
C3374 C 0.63166 0.56445 0.11832 0.0
C3375 C 0.64819 0.54587 0.13112 0.0
C3376 C 0.64092 0.55348 0.12944 0.0
C3377 C 0.61968 0.57549 0.12473 0.0
C3378 C 0.62703 0.56792 0.12631 0.0
H3379 H 0.66932 0.54077 0.1487 0.0
H3380 H 0.65782 0.55358 0.14561 0.0
H3381 H 0.64208 0.55488 0.11359 0.0
H3382 H 0.59806 0.58053 0.10762 0.0
H3383 H 0.61065 0.56855 0.10978 0.0
C3384 C 0.21117 0.97088 0.92324 0.0
C3385 C 0.22145 0.97061 0.92011 0.0
C3386 C 0.20487 0.9621 0.92708 0.0
C3387 C 0.20064 0.93316 0.92681 0.0
H3388 H 0.18192 0.93634 0.94663 0.0
C3389 C 0.16142 0.90083 0.93098 0.0
C3390 C 0.15812 0.89969 0.94049 0.0
C3391 C 0.17061 0.90893 0.92972 0.0
C3392 C 0.18722 0.93525 0.94122 0.0
H3393 H 0.23329 0.96089 0.91888 0.0
H3394 H 0.22249 0.94568 0.92591 0.0
H3395 H 0.19552 0.9517 0.9427 0.0
H3396 H 0.16226 0.90597 0.95623 0.0
H3397 H 0.17858 0.91994 0.95409 0.0
H3398 H 0.19247 0.91669 0.92545 0.0
C3399 C 0.21918 0.95264 0.92518 0.0
C3400 C 0.19492 0.94411 0.93884 0.0
C3401 C 0.22545 0.96142 0.92125 0.0
C3402 C 0.16458 0.9066 0.94881 0.0
C3403 C 0.17386 0.91469 0.94755 0.0
C3404 C 0.19302 0.92429 0.92925 0.0
C3405 C 0.20872 0.95281 0.92801 0.0
C3406 C 0.20152 0.94323 0.93142 0.0
C3407 C 0.17687 0.91608 0.93794 0.0
C3408 C 0.18599 0.92526 0.9363 0.0
H3409 H 0.20792 0.97788 0.92265 0.0
H3410 H 0.1968 0.96251 0.92905 0.0
H3411 H 0.20552 0.93215 0.92101 0.0
H3412 H 0.15677 0.89553 0.92445 0.0
H3413 H 0.17256 0.90979 0.92218 0.0
C3414 C 0.92992 0.88397 0.60452 0.0
C3415 C 0.93043 0.87373 0.60709 0.0
C3416 C 0.92969 0.89167 0.61195 0.0
C3417 C 0.93685 0.8984 0.63961 0.0
H3418 H 0.91483 0.91538 0.63476 0.0
C3419 C 0.92606 0.92119 0.67229 0.0
C3420 C 0.9245 0.93137 0.67091 0.0
C3421 C 0.92712 0.9148 0.66414 0.0
C3422 C 0.92114 0.91082 0.63618 0.0
H3423 H 0.93083 0.86357 0.6195 0.0
H3424 H 0.93059 0.877 0.63241 0.0
H3425 H 0.91631 0.90314 0.62113 0.0
H3426 H 0.92264 0.94278 0.65984 0.0
H3427 H 0.92454 0.93158 0.64553 0.0
H3428 H 0.94168 0.90598 0.65463 0.0
C3429 C 0.93054 0.87911 0.62468 0.0
C3430 C 0.92198 0.9038 0.62838 0.0
C3431 C 0.9307 0.87141 0.61726 0.0
C3432 C 0.92378 0.93495 0.66112 0.0
C3433 C 0.92487 0.92853 0.65294 0.0
C3434 C 0.93604 0.90542 0.64737 0.0
C3435 C 0.93003 0.88932 0.62211 0.0
C3436 C 0.92971 0.89738 0.63007 0.0
C3437 C 0.92666 0.91842 0.65439 0.0
C3438 C 0.92804 0.91157 0.64583 0.0
H3439 H 0.92983 0.88607 0.59678 0.0
H3440 H 0.92939 0.8995 0.60976 0.0
H3441 H 0.94305 0.89372 0.64108 0.0
H3442 H 0.92639 0.91811 0.67969 0.0
H3443 H 0.92819 0.90695 0.66549 0.0
C3444 C 0.89351 0.15941 0.26967 0.0
C3445 C 0.90045 0.15222 0.27024 0.0
C3446 C 0.88577 0.15916 0.27622 0.0
C3447 C 0.87 0.14116 0.29236 0.0
H3448 H 0.86373 0.16667 0.30308 0.0
C3449 C 0.84079 0.14015 0.32167 0.0
C3450 C 0.83259 0.14609 0.31994 0.0
C3451 C 0.84952 0.14142 0.31607 0.0
C3452 C 0.86534 0.15948 0.30008 0.0
H3453 H 0.90479 0.13926 0.27833 0.0
H3454 H 0.89158 0.13904 0.28994 0.0
H3455 H 0.87834 0.16796 0.29261 0.0
H3456 H 0.82733 0.15821 0.31109 0.0
H3457 H 0.84268 0.16048 0.30135 0.0
H3458 H 0.85703 0.13268 0.29983 0.0
C3459 C 0.89196 0.14475 0.2843 0.0
C3460 C 0.87369 0.16021 0.29407 0.0
C3461 C 0.89967 0.14497 0.27772 0.0
C3462 C 0.83356 0.15357 0.31267 0.0
C3463 C 0.84234 0.15487 0.30709 0.0
C3464 C 0.8617 0.14044 0.29839 0.0
C3465 C 0.88481 0.15174 0.28354 0.0
C3466 C 0.87612 0.15105 0.29013 0.0
C3467 C 0.85033 0.1487 0.30863 0.0
C3468 C 0.85926 0.14958 0.30232 0.0
H3469 H 0.894 0.1652 0.2641 0.0
H3470 H 0.88034 0.16461 0.27536 0.0
H3471 H 0.87145 0.13394 0.28928 0.0
H3472 H 0.84045 0.13449 0.32736 0.0
H3473 H 0.85567 0.13669 0.31758 0.0
C3474 C 0.59869 0.13407 0.13834 0.0
C3475 C 0.59971 0.13344 0.12808 0.0
C3476 C 0.5998 0.12573 0.14431 0.0
C3477 C 0.61144 0.10203 0.14557 0.0
H3478 H 0.59403 0.09637 0.16711 0.0
C3479 C 0.61185 0.06756 0.17214 0.0
C3480 C 0.61343 0.07071 0.18254 0.0
C3481 C 0.61017 0.07468 0.16482 0.0
C3482 C 0.59896 0.09788 0.16113 0.0
H3483 H 0.60256 0.12341 0.11603 0.0
H3484 H 0.60404 0.1087 0.12636 0.0
H3485 H 0.59038 0.10944 0.15538 0.0
H3486 H 0.61523 0.08404 0.19336 0.0
H3487 H 0.61197 0.09626 0.18062 0.0
H3488 H 0.61989 0.09028 0.15135 0.0
C3489 C 0.60263 0.11575 0.12985 0.0
C3490 C 0.59692 0.10541 0.15443 0.0
C3491 C 0.60162 0.12414 0.12388 0.0
C3492 C 0.61372 0.08123 0.18543 0.0
C3493 C 0.61189 0.08826 0.17814 0.0
C3494 C 0.61337 0.09438 0.15221 0.0
C3495 C 0.60181 0.11647 0.14017 0.0
C3496 C 0.60331 0.10776 0.1467 0.0
C3497 C 0.60992 0.08501 0.16778 0.0
C3498 C 0.60731 0.09241 0.16017 0.0
H3499 H 0.59705 0.14102 0.1418 0.0
H3500 H 0.59928 0.12667 0.15225 0.0
H3501 H 0.61661 0.10369 0.13977 0.0
H3502 H 0.61151 0.05951 0.16964 0.0
H3503 H 0.60867 0.072 0.15686 0.0
C3504 C 0.53828 0.86927 0.80351 0.0
C3505 C 0.53378 0.86255 0.79461 0.0
C3506 C 0.54481 0.86604 0.81178 0.0
C3507 C 0.56201 0.84692 0.81908 0.0
H3508 H 0.55818 0.85491 0.84614 0.0
C3509 C 0.58663 0.83421 0.85547 0.0
C3510 C 0.59172 0.84241 0.86311 0.0
C3511 C 0.57876 0.83573 0.84715 0.0
C3512 C 0.55937 0.85265 0.83863 0.0
H3513 H 0.53269 0.84715 0.78738 0.0
H3514 H 0.54409 0.84145 0.80189 0.0
H3515 H 0.54609 0.85934 0.83142 0.0
H3516 H 0.59228 0.85846 0.86823 0.0
H3517 H 0.57859 0.86111 0.85376 0.0
H3518 H 0.57537 0.84029 0.82636 0.0
C3519 C 0.54265 0.84929 0.80242 0.0
C3520 C 0.55247 0.85522 0.8302 0.0
C3521 C 0.53612 0.85255 0.79411 0.0
C3522 C 0.58857 0.85203 0.86241 0.0
C3523 C 0.58065 0.85352 0.85417 0.0
C3524 C 0.56889 0.84431 0.82754 0.0
C3525 C 0.547 0.85597 0.81138 0.0
C3526 C 0.55384 0.85256 0.82031 0.0
C3527 C 0.57573 0.84543 0.84639 0.0
C3528 C 0.56777 0.84732 0.83741 0.0
H3529 H 0.53682 0.8771 0.80407 0.0
H3530 H 0.54825 0.87149 0.81847 0.0
H3531 H 0.56336 0.84483 0.81159 0.0
H3532 H 0.58896 0.82673 0.8558 0.0
H3533 H 0.57504 0.82933 0.84131 0.0
C3534 C 0.86481 0.1696 0.88614 0.0
C3535 C 0.86224 0.16692 0.89567 0.0
C3536 C 0.86536 0.16179 0.87894 0.0
C3537 C 0.85471 0.13325 0.87215 0.0
H3538 H 0.87936 0.1362 0.85706 0.0
C3539 C 0.86229 0.09742 0.85177 0.0
C3540 C 0.86422 0.09815 0.84178 0.0
C3541 C 0.86258 0.10642 0.85777 0.0
C3542 C 0.87236 0.13533 0.86113 0.0
H3543 H 0.8582 0.15393 0.90509 0.0
H3544 H 0.85931 0.14042 0.89266 0.0
H3545 H 0.87869 0.15094 0.86859 0.0
H3546 H 0.86853 0.10894 0.83039 0.0
H3547 H 0.86902 0.12483 0.84098 0.0
H3548 H 0.8484 0.11768 0.86484 0.0
C3549 C 0.86083 0.14853 0.8907 0.0
C3550 C 0.87197 0.14375 0.86771 0.0
C3551 C 0.86033 0.1563 0.89787 0.0
C3552 C 0.867 0.10817 0.83807 0.0
C3553 C 0.86728 0.11723 0.84412 0.0
C3554 C 0.8551 0.12488 0.8656 0.0
C3555 C 0.86324 0.15116 0.88112 0.0
C3556 C 0.86327 0.14269 0.87345 0.0
C3557 C 0.86479 0.1164 0.85395 0.0
C3558 C 0.86405 0.12573 0.86019 0.0
H3559 H 0.86639 0.17773 0.88425 0.0
H3560 H 0.8672 0.16404 0.87161 0.0
H3561 H 0.84774 0.13229 0.87627 0.0
H3562 H 0.86041 0.08983 0.85492 0.0
H3563 H 0.86093 0.10554 0.86541 0.0
C3564 C 0.62298 0.15484 0.72561 0.0
C3565 C 0.61367 0.14609 0.72257 0.0
C3566 C 0.63231 0.15647 0.72069 0.0
C3567 C 0.64683 0.14316 0.70415 0.0
H3568 H 0.65816 0.17139 0.69638 0.0
C3569 C 0.67587 0.15233 0.67428 0.0
C3570 C 0.684 0.16206 0.67552 0.0
C3571 C 0.66825 0.14996 0.68098 0.0
C3572 C 0.65526 0.16349 0.69864 0.0
H3573 H 0.60701 0.13202 0.71221 0.0
H3574 H 0.62325 0.13494 0.70355 0.0
H3575 H 0.64307 0.16809 0.70629 0.0
H3576 H 0.69103 0.17662 0.68511 0.0
H3577 H 0.67791 0.17241 0.69693 0.0
H3578 H 0.65898 0.13855 0.69642 0.0
C3579 C 0.62336 0.14051 0.70976 0.0
C3580 C 0.64658 0.1616 0.70432 0.0
C3581 C 0.614 0.1389 0.71465 0.0
C3582 C 0.68473 0.16913 0.68389 0.0
C3583 C 0.67718 0.16673 0.69062 0.0
C3584 C 0.65556 0.14506 0.6985 0.0
C3585 C 0.63257 0.14937 0.71266 0.0
C3586 C 0.6422 0.15141 0.70707 0.0
C3587 C 0.66866 0.15724 0.68911 0.0
C3588 C 0.65982 0.15524 0.69561 0.0
H3589 H 0.62295 0.16055 0.73164 0.0
H3590 H 0.63933 0.16333 0.72316 0.0
H3591 H 0.64372 0.13524 0.70627 0.0
H3592 H 0.67505 0.14678 0.66784 0.0
H3593 H 0.66174 0.14262 0.67953 0.0
C3594 C 0.59189 0.80745 0.40684 0.0
C3595 C 0.60219 0.80431 0.40801 0.0
C3596 C 0.5885 0.81272 0.39842 0.0
C3597 C 0.59386 0.81777 0.37244 0.0
H3598 H 0.58103 0.84175 0.37591 0.0
C3599 C 0.59238 0.84859 0.34311 0.0
C3600 C 0.58271 0.85268 0.34115 0.0
C3601 C 0.59355 0.8418 0.35078 0.0
C3602 C 0.58444 0.83497 0.37479 0.0
H3603 H 0.61714 0.80455 0.40141 0.0
H3604 H 0.6113 0.81377 0.38681 0.0
H3605 H 0.58545 0.83173 0.3904 0.0
H3606 H 0.56657 0.8527 0.34556 0.0
H3607 H 0.56859 0.84074 0.35899 0.0
H3608 H 0.59309 0.82116 0.3569 0.0
C3609 C 0.60569 0.81194 0.39225 0.0
C3610 C 0.58697 0.82923 0.38309 0.0
C3611 C 0.60905 0.80666 0.40063 0.0
C3612 C 0.57409 0.84962 0.34687 0.0
C3613 C 0.57529 0.84286 0.35461 0.0
C3614 C 0.59136 0.82353 0.36417 0.0
C3615 C 0.59535 0.81499 0.391 0.0
C3616 C 0.59188 0.82066 0.38205 0.0
C3617 C 0.58509 0.83896 0.3567 0.0
C3618 C 0.58678 0.83229 0.36528 0.0
H3619 H 0.58636 0.80566 0.41234 0.0
H3620 H 0.58044 0.81487 0.39764 0.0
H3621 H 0.5974 0.81108 0.37132 0.0
H3622 H 0.59912 0.85074 0.33877 0.0
H3623 H 0.60124 0.83901 0.35226 0.0
C3624 C 0.93128 0.89016 0.19089 0.0
C3625 C 0.92987 0.89468 0.20011 0.0
C3626 C 0.92204 0.88672 0.18289 0.0
C3627 C 0.89326 0.89027 0.1732 0.0
H3628 H 0.89007 0.86466 0.15628 0.0
C3629 C 0.85326 0.87306 0.14279 0.0
C3630 C 0.85501 0.86972 0.13323 0.0
C3631 C 0.86224 0.87554 0.15109 0.0
C3632 C 0.8909 0.87187 0.16089 0.0
H3633 H 0.91756 0.8991 0.20811 0.0
H3634 H 0.90138 0.89285 0.19426 0.0
H3635 H 0.90598 0.87007 0.17055 0.0
H3636 H 0.86755 0.86618 0.12499 0.0
H3637 H 0.88324 0.87045 0.13954 0.0
H3638 H 0.87819 0.89206 0.16355 0.0
C3639 C 0.90969 0.89211 0.19316 0.0
C3640 C 0.90002 0.87499 0.16906 0.0
C3641 C 0.91894 0.89557 0.20116 0.0
C3642 C 0.86589 0.86862 0.13227 0.0
C3643 C 0.87488 0.87109 0.1406 0.0
C3644 C 0.88413 0.88714 0.16506 0.0
C3645 C 0.91113 0.88768 0.18391 0.0
C3646 C 0.90133 0.88424 0.1753 0.0
C3647 C 0.87319 0.87471 0.15007 0.0
C3648 C 0.88284 0.87791 0.1588 0.0
H3649 H 0.93955 0.88922 0.18986 0.0
H3650 H 0.92349 0.88345 0.17585 0.0
H3651 H 0.89411 0.89754 0.17772 0.0
H3652 H 0.84494 0.87378 0.14385 0.0
H3653 H 0.86061 0.87811 0.15834 0.0
C3654 C 0.12364 0.65215 0.22823 0.0
C3655 C 0.11432 0.64345 0.22498 0.0
C3656 C 0.13313 0.65381 0.22353 0.0
C3657 C 0.14803 0.64066 0.20725 0.0
H3658 H 0.15952 0.66897 0.19973 0.0
C3659 C 0.17733 0.65008 0.17763 0.0
C3660 C 0.18535 0.65986 0.17886 0.0
C3661 C 0.16975 0.64762 0.18436 0.0
C3662 C 0.15659 0.66105 0.20193 0.0
H3663 H 0.1078 0.62951 0.21444 0.0
H3664 H 0.12433 0.63247 0.20615 0.0
H3665 H 0.14423 0.66558 0.2094 0.0
H3666 H 0.19229 0.67443 0.18845 0.0
H3667 H 0.17927 0.67006 0.20033 0.0
H3668 H 0.16036 0.63612 0.19969 0.0
C3669 C 0.12432 0.63798 0.21237 0.0
C3670 C 0.14779 0.65911 0.20746 0.0
C3671 C 0.1148 0.63634 0.21704 0.0
C3672 C 0.18607 0.66689 0.18725 0.0
C3673 C 0.17857 0.6644 0.19402 0.0
C3674 C 0.1569 0.64262 0.20175 0.0
C3675 C 0.13354 0.64679 0.21549 0.0
C3676 C 0.14333 0.64888 0.2101 0.0
C3677 C 0.1701 0.65487 0.1925 0.0
C3678 C 0.16122 0.65282 0.19894 0.0
H3679 H 0.1235 0.65781 0.23428 0.0
H3680 H 0.14015 0.66062 0.22616 0.0
H3681 H 0.14486 0.63272 0.20928 0.0
H3682 H 0.17652 0.64456 0.17117 0.0
H3683 H 0.16328 0.64025 0.1829 0.0
C3684 C 0.09725 0.31327 0.91128 0.0
C3685 C 0.09512 0.30222 0.91001 0.0
C3686 C 0.09356 0.31897 0.90334 0.0
C3687 C 0.07385 0.31652 0.87867 0.0
H3688 H 0.0955 0.34183 0.87396 0.0
C3689 C 0.06898 0.33827 0.84178 0.0
C3690 C 0.07273 0.34933 0.84277 0.0
C3691 C 0.07058 0.33246 0.85023 0.0
C3692 C 0.08927 0.33487 0.87525 0.0
H3693 H 0.08706 0.28847 0.89948 0.0
H3694 H 0.0808 0.29844 0.88555 0.0
H3695 H 0.10041 0.33186 0.88825 0.0
H3696 H 0.08032 0.36301 0.85345 0.0
H3697 H 0.08296 0.35293 0.86818 0.0
H3698 H 0.06275 0.31952 0.86555 0.0
C3699 C 0.08526 0.30269 0.89272 0.0
C3700 C 0.09209 0.32915 0.88345 0.0
C3701 C 0.08896 0.29699 0.90067 0.0
C3702 C 0.07755 0.35448 0.85243 0.0
C3703 C 0.0791 0.3487 0.86086 0.0
C3704 C 0.07101 0.32226 0.87044 0.0
C3705 C 0.08765 0.31376 0.89392 0.0
C3706 C 0.08443 0.31991 0.88527 0.0
C3707 C 0.0759 0.33761 0.85983 0.0
C3708 C 0.07869 0.33152 0.86864 0.0
H3709 H 0.10206 0.31756 0.91833 0.0
H3710 H 0.09542 0.32748 0.90456 0.0
H3711 H 0.06771 0.30948 0.87992 0.0
H3712 H 0.06528 0.3341 0.8344 0.0
H3713 H 0.06807 0.32393 0.84916 0.0
C3714 C 0.41577 0.37934 0.6951 0.0
C3715 C 0.4217 0.39003 0.69669 0.0
C3716 C 0.40637 0.37594 0.68722 0.0
C3717 C 0.38437 0.38542 0.67062 0.0
H3718 H 0.38146 0.36015 0.65333 0.0
C3719 C 0.35034 0.37413 0.63421 0.0
C3720 C 0.34476 0.36342 0.63186 0.0
C3721 C 0.35982 0.3772 0.64203 0.0
C3722 C 0.38206 0.36714 0.65816 0.0
H3723 H 0.4223 0.40556 0.69135 0.0
H3724 H 0.40591 0.39962 0.67759 0.0
H3725 H 0.39767 0.3658 0.6673 0.0
H3726 H 0.34477 0.34752 0.63583 0.0
H3727 H 0.36124 0.35288 0.6496 0.0
H3728 H 0.36873 0.38674 0.66161 0.0
C3729 C 0.40852 0.39387 0.68245 0.0
C3730 C 0.39136 0.37039 0.66616 0.0
C3731 C 0.41797 0.39726 0.69027 0.0
C3732 C 0.34896 0.35583 0.63741 0.0
C3733 C 0.35841 0.35891 0.64529 0.0
C3734 C 0.37504 0.38215 0.66268 0.0
C3735 C 0.40263 0.38317 0.68082 0.0
C3736 C 0.39265 0.37959 0.67244 0.0
C3737 C 0.36391 0.36965 0.64775 0.0
C3738 C 0.37379 0.373 0.6563 0.0
H3739 H 0.4185 0.37357 0.69986 0.0
H3740 H 0.40195 0.36766 0.68621 0.0
H3741 H 0.38503 0.39246 0.67543 0.0
H3742 H 0.34741 0.38014 0.62995 0.0
H3743 H 0.36398 0.38552 0.64354 0.0
C3744 C 0.08434 0.62239 0.63179 0.0
C3745 C 0.09339 0.62713 0.62706 0.0
C3746 C 0.08499 0.61379 0.63752 0.0
C3747 C 0.10104 0.59318 0.6429 0.0
H3748 H 0.08983 0.5932 0.66818 0.0
C3749 C 0.09878 0.55867 0.66922 0.0
C3750 C 0.10094 0.56141 0.67971 0.0
C3751 C 0.09827 0.56643 0.66236 0.0
C3752 C 0.09311 0.59312 0.6612 0.0
H3753 H 0.11017 0.6265 0.62453 0.0
H3754 H 0.1114 0.61159 0.63466 0.0
H3755 H 0.08789 0.60703 0.65696 0.0
H3756 H 0.10502 0.5744 0.69129 0.0
H3757 H 0.10443 0.58794 0.6794 0.0
H3758 H 0.10658 0.5794 0.64737 0.0
C3759 C 0.10369 0.61438 0.63379 0.0
C3760 C 0.09183 0.60097 0.65467 0.0
C3761 C 0.103 0.62294 0.628 0.0
C3762 C 0.10316 0.57207 0.68323 0.0
C3763 C 0.10275 0.57981 0.67641 0.0
C3764 C 0.10236 0.58532 0.64947 0.0
C3765 C 0.09475 0.60977 0.63872 0.0
C3766 C 0.0958 0.60113 0.64545 0.0
C3767 C 0.1 0.57706 0.6659 0.0
C3768 C 0.09849 0.58525 0.65874 0.0
H3769 H 0.07675 0.62535 0.63107 0.0
H3770 H 0.07785 0.6103 0.64104 0.0
H3771 H 0.10409 0.593 0.63581 0.0
H3772 H 0.09699 0.55049 0.66633 0.0
H3773 H 0.09609 0.56404 0.65431 0.0
C3774 C 0.44201 0.37676 0.10959 0.0
C3775 C 0.43174 0.37185 0.10305 0.0
C3776 C 0.44245 0.38497 0.11674 0.0
C3777 C 0.42638 0.4041 0.12384 0.0
H3778 H 0.44384 0.40373 0.15071 0.0
C3779 C 0.42014 0.42637 0.15964 0.0
C3780 C 0.42989 0.43128 0.16685 0.0
C3781 C 0.42099 0.42016 0.15125 0.0
C3782 C 0.43905 0.40404 0.14321 0.0
H3783 H 0.4139 0.37174 0.09883 0.0
H3784 H 0.41459 0.38591 0.11139 0.0
H3785 H 0.44419 0.39096 0.1372 0.0
H3786 H 0.44826 0.43387 0.17059 0.0
H3787 H 0.44971 0.42291 0.15601 0.0
H3788 H 0.42099 0.41703 0.13 0.0
C3789 C 0.42239 0.38361 0.11088 0.0
C3790 C 0.43926 0.39673 0.13544 0.0
C3791 C 0.42197 0.37546 0.10368 0.0
C3792 C 0.44055 0.43005 0.1653 0.0
C3793 C 0.44139 0.42379 0.15693 0.0
C3794 C 0.42611 0.41138 0.13164 0.0
C3795 C 0.4326 0.38839 0.11758 0.0
C3796 C 0.43285 0.3966 0.12567 0.0
C3797 C 0.43161 0.41867 0.14989 0.0
C3798 C 0.43237 0.41137 0.14143 0.0
H3799 H 0.44972 0.37425 0.10918 0.0
H3800 H 0.45051 0.3886 0.12163 0.0
H3801 H 0.42149 0.40436 0.11637 0.0
H3802 H 0.41178 0.42701 0.16066 0.0
H3803 H 0.41328 0.41622 0.14602 0.0
C3804 C 0.56575 0.35087 0.24829 0.0
C3805 C 0.56183 0.36008 0.24695 0.0
C3806 C 0.57271 0.34805 0.24197 0.0
C3807 C 0.59226 0.35959 0.22512 0.0
H3808 H 0.5854 0.33133 0.21194 0.0
C3809 C 0.60867 0.35152 0.1892 0.0
C3810 C 0.61317 0.34268 0.18831 0.0
C3811 C 0.60304 0.35289 0.19711 0.0
C3812 C 0.58753 0.33921 0.21569 0.0
H3813 H 0.56231 0.37364 0.23808 0.0
H3814 H 0.5743 0.36871 0.22706 0.0
H3815 H 0.5745 0.33518 0.22467 0.0
H3816 H 0.61493 0.32813 0.19487 0.0
H3817 H 0.60491 0.3305 0.20878 0.0
H3818 H 0.6051 0.36372 0.21607 0.0
C3819 C 0.57205 0.36367 0.23299 0.0
C3820 C 0.5813 0.34141 0.22297 0.0
C3821 C 0.56507 0.36643 0.23923 0.0
C3822 C 0.61155 0.33502 0.19536 0.0
C3823 C 0.60583 0.33638 0.20331 0.0
C3824 C 0.59846 0.3574 0.21789 0.0
C3825 C 0.57599 0.35447 0.23429 0.0
C3826 C 0.58341 0.3517 0.22754 0.0
C3827 C 0.60168 0.34543 0.20435 0.0
C3828 C 0.59596 0.34727 0.21289 0.0
H3829 H 0.56335 0.3458 0.25416 0.0
H3830 H 0.57565 0.34093 0.24316 0.0
H3831 H 0.59426 0.36754 0.22869 0.0
H3832 H 0.60949 0.35742 0.18374 0.0
H3833 H 0.59966 0.3598 0.19754 0.0
C3834 C 0.95135 0.65216 0.73051 0.0
C3835 C 0.96232 0.65043 0.73137 0.0
C3836 C 0.94637 0.65607 0.72182 0.0
C3837 C 0.95242 0.6701 0.69923 0.0
H3838 H 0.92071 0.6566 0.68856 0.0
C3839 C 0.9281 0.67697 0.65974 0.0
C3840 C 0.91655 0.67687 0.65904 0.0
C3841 C 0.93437 0.67475 0.66879 0.0
C3842 C 0.92952 0.66058 0.69151 0.0
H3843 H 0.97675 0.65171 0.7238 0.0
H3844 H 0.96795 0.65843 0.70848 0.0
H3845 H 0.93033 0.65069 0.70378 0.0
H3846 H 0.90273 0.67519 0.6674 0.0
H3847 H 0.91367 0.67156 0.6832 0.0
H3848 H 0.95155 0.67998 0.68685 0.0
C3849 C 0.96326 0.65681 0.71462 0.0
C3850 C 0.93505 0.65717 0.70024 0.0
C3851 C 0.96825 0.65287 0.72334 0.0
C3852 C 0.91158 0.67514 0.66769 0.0
C3853 C 0.91783 0.673 0.67672 0.0
C3854 C 0.94686 0.67354 0.69046 0.0
C3855 C 0.9522 0.65833 0.71371 0.0
C3856 C 0.94653 0.66193 0.70426 0.0
C3857 C 0.9292 0.67245 0.6773 0.0
C3858 C 0.93531 0.66887 0.68655 0.0
H3859 H 0.94648 0.65026 0.73648 0.0
H3860 H 0.9379 0.65728 0.72142 0.0
H3861 H 0.96126 0.67396 0.70218 0.0
H3862 H 0.93211 0.67823 0.65316 0.0
H3863 H 0.9431 0.67436 0.66897 0.0
C3864 C 0.63222 0.35757 0.63474 0.0
C3865 C 0.64296 0.35545 0.63508 0.0
C3866 C 0.6305 0.36453 0.64213 0.0
C3867 C 0.6433 0.37882 0.66751 0.0
H3868 H 0.62698 0.39936 0.65723 0.0
C3869 C 0.64889 0.41962 0.68817 0.0
C3870 C 0.63948 0.42409 0.6874 0.0
C3871 C 0.64794 0.40988 0.68304 0.0
C3872 C 0.63137 0.39358 0.66028 0.0
H3873 H 0.66023 0.3588 0.64357 0.0
H3874 H 0.65728 0.37103 0.65639 0.0
H3875 H 0.62788 0.38481 0.64586 0.0
H3876 H 0.62155 0.42161 0.68104 0.0
H3877 H 0.61984 0.4045 0.67213 0.0
H3878 H 0.6471 0.38785 0.68187 0.0
C3879 C 0.65012 0.36718 0.65052 0.0
C3880 C 0.63189 0.38521 0.65376 0.0
C3881 C 0.65183 0.36018 0.64316 0.0
C3882 C 0.62894 0.41835 0.6818 0.0
C3883 C 0.62799 0.40861 0.67663 0.0
C3884 C 0.6428 0.38721 0.67404 0.0
C3885 C 0.63949 0.36958 0.65 0.0
C3886 C 0.63803 0.37783 0.65723 0.0
C3887 C 0.63755 0.40439 0.67699 0.0
C3888 C 0.637 0.39479 0.67045 0.0
H3889 H 0.62517 0.35391 0.6287 0.0
H3890 H 0.62215 0.36606 0.6416 0.0
H3891 H 0.64793 0.37317 0.67048 0.0
H3892 H 0.65709 0.42381 0.69253 0.0
H3893 H 0.65548 0.4069 0.68343 0.0
C3894 C 0.385 0.62828 0.77316 0.0
C3895 C 0.38555 0.63527 0.76545 0.0
C3896 C 0.37779 0.62854 0.7801 0.0
C3897 C 0.36119 0.64516 0.79066 0.0
H3898 H 0.34395 0.61833 0.79744 0.0
C3899 C 0.323 0.64107 0.81156 0.0
C3900 C 0.32192 0.63356 0.81879 0.0
C3901 C 0.33133 0.64181 0.80553 0.0
C3902 C 0.3488 0.62589 0.79573 0.0
H3903 H 0.37918 0.64825 0.75922 0.0
H3904 H 0.36641 0.64854 0.7712 0.0
H3905 H 0.35743 0.61862 0.78608 0.0
H3906 H 0.32911 0.62133 0.8257 0.0
H3907 H 0.34361 0.62262 0.8152 0.0
H3908 H 0.35241 0.6524 0.80025 0.0
C3909 C 0.37164 0.64291 0.77193 0.0
C3910 C 0.35655 0.62606 0.78922 0.0
C3911 C 0.37886 0.64266 0.76498 0.0
C3912 C 0.32956 0.62704 0.82006 0.0
C3913 C 0.33787 0.62778 0.81404 0.0
C3914 C 0.35341 0.64499 0.79717 0.0
C3915 C 0.37093 0.63579 0.77951 0.0
C3916 C 0.36284 0.63569 0.7866 0.0
C3917 C 0.33875 0.63507 0.8066 0.0
C3918 C 0.34714 0.63534 0.79979 0.0
H3919 H 0.38995 0.62242 0.77369 0.0
H3920 H 0.37757 0.62303 0.78593 0.0
H3921 H 0.366 0.65271 0.78889 0.0
H3922 H 0.31717 0.64614 0.81034 0.0
H3923 H 0.33172 0.64744 0.79981 0.0
C3924 C 0.03866 0.35502 0.29183 0.0
C3925 C 0.03601 0.36486 0.29275 0.0
C3926 C 0.04487 0.35139 0.3001 0.0
C3927 C 0.05311 0.3556 0.32812 0.0
H3928 H 0.07713 0.34206 0.32441 0.0
C3929 C 0.08837 0.35198 0.3609 0.0
C3930 C 0.09203 0.34259 0.36124 0.0
C3931 C 0.08059 0.35358 0.3526 0.0
C3932 C 0.07033 0.34568 0.32555 0.0
H3933 H 0.03818 0.37875 0.30292 0.0
H3934 H 0.04905 0.37248 0.31725 0.0
H3935 H 0.06554 0.34709 0.30964 0.0
H3936 H 0.09026 0.32741 0.35327 0.0
H3937 H 0.07658 0.33021 0.33869 0.0
H3938 H 0.05807 0.35442 0.34404 0.0
C3939 C 0.04609 0.36743 0.31026 0.0
C3940 C 0.06369 0.34857 0.31709 0.0
C3941 C 0.03987 0.37104 0.30203 0.0
C3942 C 0.08754 0.33471 0.35321 0.0
C3943 C 0.0798 0.33635 0.34484 0.0
C3944 C 0.05976 0.35276 0.33656 0.0
C3945 C 0.04859 0.35753 0.30943 0.0
C3946 C 0.05513 0.35373 0.3183 0.0
C3947 C 0.07631 0.34584 0.34443 0.0
C3948 C 0.06857 0.34792 0.33539 0.0
H3949 H 0.03572 0.35004 0.2848 0.0
H3950 H 0.04658 0.34369 0.29923 0.0
H3951 H 0.04641 0.35934 0.32931 0.0
H3952 H 0.09162 0.35815 0.36703 0.0
H3953 H 0.07816 0.36102 0.35247 0.0
C3954 C 0.35002 0.66706 0.38248 0.0
C3955 C 0.35807 0.66954 0.39156 0.0
C3956 C 0.35163 0.66064 0.37458 0.0
C3957 C 0.37279 0.64902 0.36468 0.0
H3958 H 0.34648 0.62602 0.35429 0.0
C3959 C 0.37536 0.60998 0.34458 0.0
C3960 C 0.36585 0.60435 0.33754 0.0
C3961 C 0.37516 0.61952 0.34954 0.0
C3962 C 0.35387 0.6325 0.35689 0.0
H3963 H 0.37442 0.66771 0.39924 0.0
H3964 H 0.37716 0.65638 0.38549 0.0
H3965 H 0.34476 0.63984 0.36599 0.0
H3966 H 0.34909 0.60454 0.3295 0.0
H3967 H 0.34888 0.62139 0.33779 0.0
H3968 H 0.38194 0.64153 0.35567 0.0
C3969 C 0.36963 0.65944 0.38447 0.0
C3970 C 0.35287 0.64043 0.36365 0.0
C3971 C 0.368 0.66583 0.39239 0.0
C3972 C 0.3565 0.60875 0.33496 0.0
C3973 C 0.35635 0.61834 0.33979 0.0
C3974 C 0.37377 0.64109 0.35784 0.0
C3975 C 0.36134 0.65658 0.37557 0.0
C3976 C 0.36234 0.64871 0.36773 0.0
C3977 C 0.36547 0.62361 0.34746 0.0
C3978 C 0.36435 0.63265 0.35396 0.0
H3979 H 0.34224 0.66972 0.38161 0.0
H3980 H 0.34515 0.65867 0.36777 0.0
H3981 H 0.38021 0.65536 0.36764 0.0
H3982 H 0.38262 0.60666 0.34674 0.0
H3983 H 0.3823 0.6233 0.35544 0.0
C3984 C 0.11964 0.31558 0.01899 0.0
C3985 C 0.10969 0.3122 0.01159 0.0
C3986 C 0.11928 0.32034 0.02841 0.0
C3987 C 0.10206 0.3349 0.04051 0.0
H3988 H 0.12003 0.32966 0.06559 0.0
C3989 C 0.09937 0.35403 0.07921 0.0
C3990 C 0.10974 0.35811 0.08594 0.0
C3991 C 0.09892 0.3476 0.07049 0.0
C3992 C 0.11503 0.33128 0.05864 0.0
H3993 H 0.09146 0.3107 0.00848 0.0
H3994 H 0.09084 0.31899 0.02486 0.0
H3995 H 0.12016 0.31994 0.04974 0.0
H3996 H 0.12768 0.35828 0.08898 0.0
H3997 H 0.12695 0.34731 0.07372 0.0
H3998 H 0.09705 0.34634 0.04933 0.0
C3999 C 0.09897 0.31816 0.02333 0.0
C4000 C 0.11511 0.3257 0.04956 0.0
C4001 C 0.09933 0.31341 0.01393 0.0
C4002 C 0.11958 0.35539 0.08389 0.0
C4003 C 0.11914 0.34899 0.07519 0.0
C4004 C 0.10199 0.34048 0.04958 0.0
C4005 C 0.10896 0.32182 0.03063 0.0
C4006 C 0.10866 0.32748 0.04037 0.0
C4007 C 0.10883 0.3451 0.06832 0.0
C4008 C 0.10852 0.33879 0.05875 0.0
H4009 H 0.12778 0.31487 0.0174 0.0
H4010 H 0.12716 0.32316 0.03382 0.0
H4011 H 0.09714 0.3366 0.03355 0.0
H4012 H 0.09164 0.35601 0.08052 0.0
H4013 H 0.09081 0.34463 0.06544 0.0
C4014 C 0.94708 0.89774 0.3084 0.0
C4015 C 0.94605 0.90656 0.30299 0.0
C4016 C 0.94374 0.89669 0.31784 0.0
C4017 C 0.93724 0.91144 0.3392 0.0
H4018 H 0.91756 0.88448 0.34286 0.0
C4019 C 0.91894 0.90299 0.37599 0.0
C4020 C 0.90716 0.89849 0.37435 0.0
C4021 C 0.92484 0.90357 0.36789 0.0
C4022 C 0.92307 0.89205 0.34196 0.0
H4023 H 0.94114 0.92141 0.30343 0.0
H4024 H 0.93526 0.91956 0.31988 0.0
H4025 H 0.926 0.88663 0.32764 0.0
H4026 H 0.89239 0.89071 0.36307 0.0
H4027 H 0.90265 0.89168 0.34899 0.0
H4028 H 0.93405 0.91692 0.35342 0.0
C4029 C 0.93867 0.91346 0.31684 0.0
C4030 C 0.92798 0.89325 0.33329 0.0
C4031 C 0.94194 0.91447 0.30737 0.0
C4032 C 0.90146 0.8943 0.36454 0.0
C4033 C 0.90735 0.89478 0.35649 0.0
C4034 C 0.9324 0.91021 0.34792 0.0
C4035 C 0.93937 0.90448 0.32211 0.0
C4036 C 0.93497 0.90301 0.33173 0.0
C4037 C 0.91908 0.89952 0.35805 0.0
C4038 C 0.9251 0.90055 0.3493 0.0
H4039 H 0.95014 0.89148 0.3052 0.0
H4040 H 0.94446 0.88972 0.32176 0.0
H4041 H 0.94267 0.91903 0.33825 0.0
H4042 H 0.92353 0.90632 0.38347 0.0
H4043 H 0.93389 0.90721 0.36932 0.0
C4044 C 0.33161 0.6935 0.49101 0.0
C4045 C 0.33591 0.69019 0.48271 0.0
C4046 C 0.33248 0.68843 0.50001 0.0
C4047 C 0.33509 0.66314 0.50968 0.0
H4048 H 0.34527 0.67903 0.53594 0.0
C4049 C 0.34327 0.64249 0.54649 0.0
C4050 C 0.34055 0.6466 0.55532 0.0
C4051 C 0.34298 0.64799 0.53775 0.0
C4052 C 0.34225 0.67446 0.52869 0.0
H4053 H 0.34484 0.67912 0.47757 0.0
H4054 H 0.34607 0.67015 0.49315 0.0
H4055 H 0.34418 0.68837 0.52054 0.0
H4056 H 0.3348 0.65934 0.56172 0.0
H4057 H 0.334 0.66883 0.5464 0.0
H4058 H 0.33288 0.64924 0.51774 0.0
C4059 C 0.34195 0.67662 0.49264 0.0
C4060 C 0.34167 0.67982 0.51986 0.0
C4061 C 0.3412 0.68175 0.4837 0.0
C4062 C 0.33721 0.65614 0.5551 0.0
C4063 C 0.33681 0.66159 0.54633 0.0
C4064 C 0.33555 0.65777 0.5185 0.0
C4065 C 0.33756 0.67987 0.50088 0.0
C4066 C 0.33812 0.67422 0.51027 0.0
C4067 C 0.33971 0.6576 0.53753 0.0
C4068 C 0.33918 0.66335 0.52813 0.0
H4069 H 0.32734 0.69986 0.4905 0.0
H4070 H 0.32893 0.69104 0.5062 0.0
H4071 H 0.33216 0.65861 0.5024 0.0
H4072 H 0.34563 0.63503 0.54631 0.0
H4073 H 0.3454 0.64471 0.53118 0.0
C4074 C 0.59357 0.12359 0.82109 0.0
C4075 C 0.59458 0.13387 0.81805 0.0
C4076 C 0.5954 0.12183 0.83136 0.0
C4077 C 0.59775 0.1341 0.85731 0.0
H4078 H 0.61404 0.1127 0.86483 0.0
C4079 C 0.61629 0.12719 0.89888 0.0
C4080 C 0.61484 0.11658 0.90111 0.0
C4081 C 0.61302 0.12972 0.88894 0.0
C4082 C 0.60939 0.11864 0.86284 0.0
H4083 H 0.5981 0.15037 0.82336 0.0
H4084 H 0.60155 0.14733 0.84138 0.0
H4085 H 0.61005 0.11639 0.84716 0.0
H4086 H 0.60805 0.10035 0.89482 0.0
H4087 H 0.60249 0.10477 0.87754 0.0
H4088 H 0.59735 0.13643 0.87315 0.0
C4089 C 0.59915 0.1406 0.83581 0.0
C4090 C 0.60706 0.12073 0.8527 0.0
C4091 C 0.59721 0.14235 0.8255 0.0
C4092 C 0.60956 0.1086 0.89331 0.0
C4093 C 0.60635 0.11112 0.88341 0.0
C4094 C 0.60017 0.13205 0.86752 0.0
C4095 C 0.59841 0.13032 0.83886 0.0
C4096 C 0.6011 0.1284 0.84977 0.0
C4097 C 0.60828 0.12169 0.88107 0.0
C4098 C 0.6059 0.1242 0.87035 0.0
H4099 H 0.59133 0.11689 0.81551 0.0
H4100 H 0.59446 0.11379 0.83342 0.0
H4101 H 0.59307 0.14001 0.85531 0.0
H4102 H 0.62038 0.13352 0.90471 0.0
H4103 H 0.61462 0.13794 0.88733 0.0
C4104 C 0.1061 0.6575 0.52725 0.0
C4105 C 0.10311 0.64896 0.53313 0.0
C4106 C 0.10813 0.65579 0.51745 0.0
C4107 C 0.11699 0.63681 0.50185 0.0
H4108 H 0.10522 0.65099 0.47911 0.0
C4109 C 0.12249 0.62646 0.46125 0.0
C4110 C 0.12466 0.63473 0.45492 0.0
C4111 C 0.11937 0.62818 0.47058 0.0
C4112 C 0.1087 0.64706 0.4854 0.0
H4113 H 0.09935 0.63189 0.5331 0.0
H4114 H 0.10308 0.62897 0.51611 0.0
H4115 H 0.1006 0.65415 0.49576 0.0
H4116 H 0.12581 0.65137 0.45359 0.0
H4117 H 0.1206 0.65447 0.46999 0.0
H4118 H 0.1253 0.62989 0.49165 0.0
C4119 C 0.10401 0.63698 0.51914 0.0
C4120 C 0.10601 0.64886 0.49493 0.0
C4121 C 0.10191 0.63867 0.52888 0.0
C4122 C 0.12392 0.64481 0.45822 0.0
C4123 C 0.12088 0.64656 0.4676 0.0
C4124 C 0.11976 0.63508 0.49237 0.0
C4125 C 0.10727 0.64553 0.51336 0.0
C4126 C 0.1101 0.64371 0.50323 0.0
C4127 C 0.11858 0.63826 0.47391 0.0
C4128 C 0.11561 0.64015 0.484 0.0
H4129 H 0.10722 0.66553 0.53031 0.0
H4130 H 0.11071 0.66254 0.51319 0.0
H4131 H 0.12042 0.63286 0.50816 0.0
H4132 H 0.12323 0.61866 0.45898 0.0
H4133 H 0.11754 0.62157 0.47517 0.0
C4134 C 0.54673 0.8834 0.69354 0.0
C4135 C 0.53703 0.87584 0.69501 0.0
C4136 C 0.55115 0.88279 0.68467 0.0
C4137 C 0.55158 0.86388 0.66366 0.0
H4138 H 0.56346 0.8892 0.65091 0.0
C4139 C 0.56605 0.86267 0.62485 0.0
C4140 C 0.57572 0.87037 0.6236 0.0
C4141 C 0.56132 0.86321 0.63356 0.0
C4142 C 0.5603 0.88206 0.65444 0.0
H4143 H 0.52431 0.86176 0.68821 0.0
H4144 H 0.53191 0.86079 0.67264 0.0
H4145 H 0.55491 0.89053 0.66585 0.0
H4146 H 0.58837 0.88434 0.63063 0.0
H4147 H 0.5802 0.88526 0.64594 0.0
H4148 H 0.557 0.85541 0.65226 0.0
C4149 C 0.53617 0.86713 0.67842 0.0
C4150 C 0.55538 0.88282 0.66301 0.0
C4151 C 0.53173 0.86776 0.68729 0.0
C4152 C 0.5808 0.87841 0.63137 0.0
C4153 C 0.57608 0.87895 0.64009 0.0
C4154 C 0.5565 0.86312 0.65509 0.0
C4155 C 0.54599 0.87459 0.67703 0.0
C4156 C 0.55098 0.87375 0.66775 0.0
C4157 C 0.56621 0.87142 0.64126 0.0
C4158 C 0.56096 0.8722 0.65039 0.0
H4159 H 0.55095 0.8898 0.69928 0.0
H4160 H 0.55877 0.88862 0.6839 0.0
H4161 H 0.54844 0.85675 0.66721 0.0
H4162 H 0.56205 0.85634 0.61899 0.0
H4163 H 0.55369 0.85731 0.63417 0.0
C4164 C 0.40559 0.34892 0.99583 0.0
C4165 C 0.41686 0.35101 1.00117 0.0
C4166 C 0.40327 0.35139 0.98576 0.0
C4167 C 0.41615 0.35675 0.963 0.0
H4168 H 0.39161 0.37042 0.95508 0.0
C4169 C 0.40817 0.37309 0.92366 0.0
C4170 C 0.3968 0.37159 0.9188 0.0
C4171 C 0.41079 0.37083 0.93377 0.0
C4172 C 0.39841 0.36649 0.95712 0.0
H4173 H 0.43456 0.35708 1.00001 0.0
H4174 H 0.43051 0.36142 0.98243 0.0
H4175 H 0.39577 0.36566 0.97246 0.0
H4176 H 0.37923 0.36659 0.92066 0.0
H4177 H 0.38374 0.36248 0.93824 0.0
H4178 H 0.41872 0.35747 0.94764 0.0
C4179 C 0.42346 0.35785 0.98604 0.0
C4180 C 0.40079 0.36377 0.96709 0.0
C4181 C 0.42578 0.35545 0.99613 0.0
C4182 C 0.38808 0.36787 0.92425 0.0
C4183 C 0.39068 0.36557 0.93434 0.0
C4184 C 0.41373 0.35942 0.95301 0.0
C4185 C 0.41218 0.35595 0.98076 0.0
C4186 C 0.40968 0.35884 0.97015 0.0
C4187 C 0.40207 0.36698 0.93923 0.0
C4188 C 0.40481 0.36431 0.94993 0.0
H4189 H 0.39852 0.34561 0.99951 0.0
H4190 H 0.39449 0.34971 0.98187 0.0
H4191 H 0.42297 0.35285 0.96508 0.0
H4192 H 0.41503 0.37595 0.91959 0.0
H4193 H 0.41965 0.37216 0.93732 0.0
C4194 C 0.93786 0.15282 0.17485 0.0
C4195 C 0.93284 0.15174 0.18354 0.0
C4196 C 0.93134 0.15346 0.16536 0.0
C4197 C 0.90171 0.14548 0.15185 0.0
H4198 H 0.91197 0.16456 0.13206 0.0
C4199 C 0.87147 0.148 0.11521 0.0
C4200 C 0.87576 0.1481 0.10616 0.0
C4201 C 0.87883 0.14973 0.12458 0.0
C4202 C 0.90904 0.15913 0.13748 0.0
H4203 H 0.91706 0.15066 0.18906 0.0
H4204 H 0.90581 0.15197 0.17263 0.0
H4205 H 0.92425 0.16513 0.1486 0.0
H4206 H 0.8911 0.15054 0.09978 0.0
H4207 H 0.90404 0.15341 0.11623 0.0
H4208 H 0.88664 0.13932 0.1408 0.0
C4209 C 0.91475 0.15223 0.17312 0.0
C4210 C 0.91606 0.15946 0.14694 0.0
C4211 C 0.92125 0.15161 0.18257 0.0
C4212 C 0.8876 0.15047 0.10666 0.0
C4213 C 0.89499 0.15212 0.11607 0.0
C4214 C 0.89475 0.14512 0.14242 0.0
C4215 C 0.91966 0.15297 0.16438 0.0
C4216 C 0.91242 0.15268 0.15425 0.0
C4217 C 0.89065 0.15149 0.12514 0.0
C4218 C 0.89826 0.15199 0.13514 0.0
H4219 H 0.9468 0.15304 0.17536 0.0
H4220 H 0.93535 0.154 0.15875 0.0
H4221 H 0.89877 0.13997 0.15722 0.0
H4222 H 0.86238 0.14636 0.11503 0.0
H4223 H 0.87521 0.14948 0.13141 0.0
C4224 C 0.99959 0.11048 0.26339 0.0
C4225 C 0.98942 0.10911 0.2672 0.0
C4226 C 0.00782 0.10514 0.26723 0.0
C4227 C 0.01178 0.08242 0.28197 0.0
H4228 H 0.04327 0.09831 0.28917 0.0
C4229 C 0.04427 0.07088 0.3126 0.0
C4230 C 0.05568 0.07264 0.31144 0.0
C4231 C 0.03631 0.07401 0.30544 0.0
C4232 C 0.03456 0.09369 0.28703 0.0
H4233 H 0.98005 0.10114 0.27817 0.0
H4234 H 0.9943 0.09184 0.28479 0.0
H4235 H 0.0291 0.10649 0.27995 0.0
H4236 H 0.06764 0.07867 0.30169 0.0
H4237 H 0.05366 0.08417 0.28907 0.0
H4238 H 0.01716 0.06974 0.28932 0.0
C4239 C 0.99585 0.09688 0.27869 0.0
C4240 C 0.02643 0.09838 0.28175 0.0
C4241 C 0.98766 0.10223 0.27489 0.0
C4242 C 0.05888 0.07719 0.30273 0.0
C4243 C 0.05091 0.08041 0.29558 0.0
C4244 C 0.01989 0.07773 0.28724 0.0
C4245 C 1.00604 0.09828 0.27494 0.0
C4246 C 0.01489 0.09289 0.2794 0.0
C4247 C 0.03958 0.07901 0.29695 0.0
C4248 C 0.03132 0.08341 0.29006 0.0
H4249 H 1.00116 0.11563 0.25738 0.0
H4250 H 0.01555 0.10633 0.26412 0.0
H4251 H 1.003 0.0779 0.28008 0.0
H4252 H 0.04156 0.06733 0.31922 0.0
H4253 H 0.0277 0.07291 0.3068 0.0
C4254 C 0.10295 0.73731 0.60457 0.0
C4255 C 0.10265 0.72743 0.60848 0.0
C4256 C 0.10518 0.74645 0.61109 0.0
C4257 C 0.11795 0.75696 0.63764 0.0
H4258 H 0.10257 0.77916 0.63092 0.0
C4259 C 0.12183 0.79267 0.66583 0.0
C4260 C 0.1235 0.80261 0.66191 0.0
C4261 C 0.11909 0.78348 0.65932 0.0
C4262 C 0.107 0.77306 0.63285 0.0
H4263 H 0.10444 0.71949 0.62236 0.0
H4264 H 0.10791 0.73533 0.63368 0.0
H4265 H 0.09792 0.76311 0.61957 0.0
H4266 H 0.12389 0.81079 0.64821 0.0
H4267 H 0.11899 0.7947 0.63677 0.0
H4268 H 0.12694 0.76689 0.65098 0.0
C4269 C 0.10663 0.73605 0.62557 0.0
C4270 C 0.10435 0.76387 0.62634 0.0
C4271 C 0.10446 0.72693 0.61907 0.0
C4272 C 0.12248 0.8032 0.65138 0.0
C4273 C 0.11965 0.794 0.64486 0.0
C4274 C 0.12053 0.76611 0.64418 0.0
C4275 C 0.10712 0.74594 0.62168 0.0
C4276 C 0.10981 0.7557 0.62865 0.0
C4277 C 0.11794 0.78404 0.64876 0.0
C4278 C 0.1151 0.77427 0.64185 0.0
H4279 H 0.10146 0.73799 0.59647 0.0
H4280 H 0.1056 0.75394 0.60782 0.0
H4281 H 0.12249 0.75094 0.63958 0.0
H4282 H 0.12266 0.79202 0.67393 0.0
H4283 H 0.11775 0.77591 0.66254 0.0
C4284 C 0.45621 0.90866 0.75758 0.0
C4285 C 0.45342 0.90122 0.74913 0.0
C4286 C 0.44768 0.91173 0.76172 0.0
C4287 C 0.41736 0.90295 0.76347 0.0
H4288 H 0.42066 0.9324 0.77171 0.0
C4289 C 0.38082 0.918 0.77604 0.0
C4290 C 0.38367 0.92604 0.78395 0.0
C4291 C 0.38933 0.91486 0.77191 0.0
C4292 C 0.41966 0.92412 0.76959 0.0
H4293 H 0.43943 0.89118 0.73841 0.0
H4294 H 0.42451 0.8966 0.74561 0.0
H4295 H 0.43541 0.92724 0.76415 0.0
H4296 H 0.3976 0.93713 0.79373 0.0
H4297 H 0.41253 0.9315 0.78671 0.0
H4298 H 0.40168 0.8998 0.76899 0.0
C4299 C 0.43333 0.90001 0.74906 0.0
C4300 C 0.42812 0.92117 0.76523 0.0
C4301 C 0.44187 0.89698 0.74487 0.0
C4302 C 0.3952 0.93086 0.78768 0.0
C4303 C 0.40372 0.92769 0.78358 0.0
C4304 C 0.40893 0.90589 0.76789 0.0
C4305 C 0.43613 0.90741 0.75755 0.0
C4306 C 0.42707 0.91055 0.7621 0.0
C4307 C 0.4009 0.91969 0.77559 0.0
C4308 C 0.40996 0.91652 0.771 0.0
H4309 H 0.46502 0.91215 0.76098 0.0
H4310 H 0.45013 0.91738 0.7683 0.0
H4311 H 0.41638 0.89468 0.76129 0.0
H4312 H 0.37199 0.91424 0.77294 0.0
H4313 H 0.38681 0.90881 0.76566 0.0
C4314 C 0.41015 0.26766 0.07533 0.0
C4315 C 0.41956 0.27187 0.0708 0.0
C4316 C 0.40954 0.25841 0.08031 0.0
C4317 C 0.42728 0.24202 0.09312 0.0
H4318 H 0.39908 0.2202 0.08854 0.0
C4319 C 0.42444 0.2014 0.10946 0.0
C4320 C 0.41449 0.19673 0.11303 0.0
C4321 C 0.42509 0.21052 0.10423 0.0
C4322 C 0.40698 0.22627 0.09003 0.0
H4323 H 0.43576 0.2697 0.06805 0.0
H4324 H 0.4347 0.25352 0.07678 0.0
H4325 H 0.40016 0.23621 0.07964 0.0
H4326 H 0.39725 0.19765 0.11356 0.0
H4327 H 0.39847 0.21375 0.10475 0.0
H4328 H 0.43408 0.23221 0.10363 0.0
C4329 C 0.4278 0.2574 0.07647 0.0
C4330 C 0.4076 0.23543 0.0849 0.0
C4331 C 0.42836 0.26661 0.07139 0.0
C4332 C 0.40511 0.20121 0.11107 0.0
C4333 C 0.40578 0.21037 0.10591 0.0
C4334 C 0.42664 0.2329 0.09832 0.0
C4335 C 0.41837 0.25319 0.08097 0.0
C4336 C 0.41775 0.24341 0.08638 0.0
C4337 C 0.41578 0.21515 0.10241 0.0
C4338 C 0.41648 0.22489 0.09685 0.0
H4339 H 0.4032 0.27148 0.07493 0.0
H4340 H 0.40221 0.25541 0.08378 0.0
H4341 H 0.43519 0.2481 0.09452 0.0
H4342 H 0.4317 0.19796 0.11066 0.0
H4343 H 0.43285 0.21382 0.10147 0.0
C4344 C 0.0447 0.92158 0.25367 0.0
C4345 C 0.03701 0.92782 0.25073 0.0
C4346 C 0.05522 0.92359 0.25056 0.0
C4347 C 0.07624 0.94435 0.24149 0.0
H4348 H 0.08678 0.9209 0.23158 0.0
C4349 C 0.11668 0.95068 0.22367 0.0
C4350 C 0.12372 0.94373 0.22594 0.0
C4351 C 0.106 0.94876 0.22649 0.0
C4352 C 0.08404 0.92754 0.23444 0.0
H4353 H 0.03443 0.94117 0.24236 0.0
H4354 H 0.05283 0.94467 0.2369 0.0
H4355 H 0.06844 0.91757 0.23703 0.0
H4356 H 0.12527 0.92949 0.23316 0.0
H4357 H 0.10674 0.92621 0.23828 0.0
H4358 H 0.09188 0.95432 0.23904 0.0
C4359 C 0.0507 0.93823 0.24163 0.0
C4360 C 0.07352 0.92562 0.23755 0.0
C4361 C 0.04013 0.93617 0.24468 0.0
C4362 C 0.11994 0.9349 0.2312 0.0
C4363 C 0.10929 0.933 0.23408 0.0
C4364 C 0.0868 0.94627 0.23844 0.0
C4365 C 0.05834 0.93193 0.24449 0.0
C4366 C 0.0695 0.934 0.24113 0.0
C4367 C 0.10217 0.9399 0.23175 0.0
C4368 C 0.09085 0.93789 0.23489 0.0
H4369 H 0.0425 0.91503 0.25825 0.0
H4370 H 0.06097 0.91866 0.25297 0.0
H4371 H 0.07343 0.95097 0.24432 0.0
H4372 H 0.11946 0.9576 0.21969 0.0
H4373 H 0.1007 0.95418 0.22448 0.0
C4374 C 0.3128 0.75958 0.40509 0.0
C4375 C 0.31107 0.75016 0.39899 0.0
C4376 C 0.30822 0.76783 0.40137 0.0
C4377 C 0.28715 0.77416 0.38054 0.0
H4378 H 0.30771 0.80205 0.38464 0.0
C4379 C 0.28375 0.80655 0.35324 0.0
C4380 C 0.28643 0.81712 0.35719 0.0
C4381 C 0.28492 0.79854 0.35963 0.0
C4382 C 0.30177 0.79436 0.38358 0.0
H4383 H 0.30265 0.7418 0.38443 0.0
H4384 H 0.29492 0.75619 0.37788 0.0
H4385 H 0.31319 0.78767 0.39361 0.0
H4386 H 0.29204 0.82757 0.37096 0.0
H4387 H 0.2941 0.81353 0.38219 0.0
H4388 H 0.27593 0.7808 0.37018 0.0
C4389 C 0.29973 0.75723 0.38555 0.0
C4390 C 0.30491 0.7861 0.38873 0.0
C4391 C 0.3043 0.74902 0.38926 0.0
C4392 C 0.28986 0.81948 0.36773 0.0
C4393 C 0.29113 0.81146 0.37413 0.0
C4394 C 0.28404 0.78241 0.37536 0.0
C4395 C 0.30177 0.76681 0.39149 0.0
C4396 C 0.29776 0.77584 0.38708 0.0
C4397 C 0.28887 0.80093 0.37012 0.0
C4398 C 0.29143 0.79254 0.37664 0.0
H4399 H 0.318 0.76072 0.41261 0.0
H4400 H 0.30985 0.77506 0.40618 0.0
H4401 H 0.28134 0.76641 0.37926 0.0
H4402 H 0.28101 0.8045 0.34516 0.0
H4403 H 0.2832 0.79053 0.35629 0.0
C4404 C 0.50359 0.12477 0.72921 0.0
C4405 C 0.50517 0.12613 0.73986 0.0
C4406 C 0.49268 0.12261 0.72328 0.0
C4407 C 0.46255 0.11171 0.72431 0.0
H4408 H 0.45681 0.12672 0.70036 0.0
C4409 C 0.41706 0.10841 0.70232 0.0
C4410 C 0.41544 0.1082 0.6917 0.0
C4411 C 0.42803 0.11048 0.70813 0.0
C4412 C 0.45829 0.12234 0.70693 0.0
H4413 H 0.49643 0.12648 0.75256 0.0
H4414 H 0.47739 0.12254 0.74221 0.0
H4415 H 0.47592 0.13051 0.71057 0.0
H4416 H 0.42398 0.11042 0.67883 0.0
H4417 H 0.44315 0.1137 0.68891 0.0
H4418 H 0.44499 0.10342 0.72064 0.0
C4419 C 0.48462 0.12306 0.73848 0.0
C4420 C 0.46924 0.12454 0.7128 0.0
C4421 C 0.49554 0.12529 0.74441 0.0
C4422 C 0.425 0.11032 0.687 0.0
C4423 C 0.43597 0.11232 0.6928 0.0
C4424 C 0.45162 0.10944 0.7184 0.0
C4425 C 0.48308 0.12169 0.72785 0.0
C4426 C 0.47147 0.11928 0.72157 0.0
C4427 C 0.43764 0.11245 0.70345 0.0
C4428 C 0.44933 0.11475 0.70965 0.0
H4429 H 0.51078 0.12517 0.72544 0.0
H4430 H 0.49174 0.12147 0.71511 0.0
H4431 H 0.46406 0.10743 0.73095 0.0
H4432 H 0.40984 0.10706 0.70614 0.0
H4433 H 0.42898 0.11075 0.71631 0.0
C4434 C 0.15803 0.23551 0.95814 0.0
C4435 C 0.14639 0.23532 0.95591 0.0
C4436 C 0.16219 0.22776 0.95362 0.0
C4437 C 0.15472 0.20862 0.9311 0.0
H4438 H 0.17847 0.19673 0.94527 0.0
C4439 C 0.17461 0.18153 0.90948 0.0
C4440 C 0.17607 0.17227 0.91392 0.0
C4441 C 0.17223 0.18963 0.91513 0.0
C4442 C 0.1718 0.19995 0.94122 0.0
H4443 H 0.1299 0.22654 0.94763 0.0
H4444 H 0.1371 0.21301 0.93986 0.0
H4445 H 0.17142 0.20964 0.95435 0.0
H4446 H 0.17669 0.16443 0.92785 0.0
H4447 H 0.17237 0.17856 0.93775 0.0
H4448 H 0.15482 0.19881 0.91807 0.0
C4449 C 0.14309 0.21928 0.94488 0.0
C4450 C 0.16784 0.20741 0.9464 0.0
C4451 C 0.13895 0.22703 0.94935 0.0
C4452 C 0.17566 0.1715 0.92426 0.0
C4453 C 0.17319 0.17961 0.92992 0.0
C4454 C 0.15866 0.20119 0.92595 0.0
C4455 C 0.15478 0.21964 0.9468 0.0
C4456 C 0.15919 0.2118 0.9414 0.0
C4457 C 0.17117 0.18866 0.92534 0.0
C4458 C 0.16725 0.19675 0.93092 0.0
H4459 H 0.16398 0.24184 0.96311 0.0
H4460 H 0.17125 0.22832 0.95522 0.0
H4461 H 0.14818 0.21194 0.92696 0.0
H4462 H 0.17508 0.1824 0.90156 0.0
H4463 H 0.17102 0.1966 0.91143 0.0
C4464 C 0.32303 0.07822 0.12924 0.0
C4465 C 0.32154 0.07198 0.12012 0.0
C4466 C 0.32959 0.08862 0.13044 0.0
C4467 C 0.34267 0.11083 0.11641 0.0
H4468 H 0.36338 0.11941 0.14215 0.0
C4469 C 0.38075 0.14799 0.12345 0.0
C4470 C 0.38341 0.15351 0.13308 0.0
C4471 C 0.37208 0.13866 0.12138 0.0
C4472 C 0.35753 0.11722 0.13497 0.0
H4473 H 0.32545 0.07199 0.10496 0.0
H4474 H 0.33715 0.09006 0.10715 0.0
H4475 H 0.35043 0.10198 0.13951 0.0
H4476 H 0.37852 0.15407 0.14782 0.0
H4477 H 0.36335 0.13792 0.14419 0.0
H4478 H 0.35001 0.12608 0.11185 0.0
C4479 C 0.33314 0.08693 0.11335 0.0
C4480 C 0.35009 0.10721 0.13345 0.0
C4481 C 0.32655 0.07652 0.11214 0.0
C4482 C 0.3768 0.14987 0.14039 0.0
C4483 C 0.36814 0.1406 0.13832 0.0
C4484 C 0.35016 0.12088 0.11793 0.0
C4485 C 0.33487 0.09306 0.12257 0.0
C4486 C 0.34256 0.10387 0.12416 0.0
C4487 C 0.36589 0.13471 0.1289 0.0
C4488 C 0.35767 0.12418 0.12724 0.0
H4489 H 0.31938 0.07498 0.13558 0.0
H4490 H 0.3306 0.09317 0.1376 0.0
H4491 H 0.33691 0.10855 0.1092 0.0
H4492 H 0.38575 0.15058 0.1177 0.0
H4493 H 0.3706 0.13429 0.11406 0.0
C4494 C 0.74012 0.43235 0.85463 0.0
C4495 C 0.74523 0.44027 0.8489 0.0
C4496 C 0.74146 0.42207 0.85341 0.0
C4497 C 0.76046 0.4073 0.84411 0.0
H4498 H 0.73572 0.38281 0.84469 0.0
C4499 C 0.76343 0.36503 0.83357 0.0
C4500 C 0.7591 0.35712 0.83964 0.0
C4501 C 0.76155 0.3751 0.83472 0.0
C4502 C 0.74274 0.38957 0.84462 0.0
H4503 H 0.75531 0.44349 0.83709 0.0
H4504 H 0.75755 0.42559 0.83492 0.0
H4505 H 0.73257 0.40047 0.84652 0.0
H4506 H 0.74964 0.35352 0.8518 0.0
H4507 H 0.74635 0.37115 0.85384 0.0
H4508 H 0.77062 0.39643 0.84217 0.0
C4509 C 0.75275 0.42736 0.84053 0.0
C4510 C 0.74094 0.3997 0.84567 0.0
C4511 C 0.75145 0.43762 0.84176 0.0
C4512 C 0.75296 0.35947 0.84695 0.0
C4513 C 0.75104 0.36953 0.84808 0.0
C4514 C 0.76225 0.3972 0.84303 0.0
C4515 C 0.7479 0.41948 0.84643 0.0
C4516 C 0.74977 0.40868 0.84539 0.0
C4517 C 0.75533 0.37747 0.84199 0.0
C4518 C 0.75341 0.38821 0.84324 0.0
H4519 H 0.73537 0.43417 0.86026 0.0
H4520 H 0.7377 0.41623 0.85815 0.0
H4521 H 0.76752 0.41404 0.84407 0.0
H4522 H 0.76825 0.36338 0.82792 0.0
H4523 H 0.76488 0.381 0.82984 0.0
C4524 C 0.77956 0.54247 0.16505 0.0
C4525 C 0.77357 0.5364 0.15607 0.0
C4526 C 0.79113 0.54742 0.16603 0.0
C4527 C 0.81218 0.55813 0.15054 0.0
H4528 H 0.83425 0.55917 0.17517 0.0
C4529 C 0.85903 0.58015 0.15323 0.0
C4530 C 0.86445 0.58626 0.16233 0.0
C4531 C 0.84851 0.57296 0.15263 0.0
C4532 C 0.82817 0.55904 0.16827 0.0
H4533 H 0.77505 0.5306 0.14114 0.0
H4534 H 0.79525 0.53923 0.14285 0.0
H4535 H 0.81475 0.54861 0.1739 0.0
H4536 H 0.86323 0.58952 0.17798 0.0
H4537 H 0.84473 0.57715 0.17691 0.0
H4538 H 0.82537 0.56879 0.14499 0.0
C4539 C 0.79099 0.54018 0.14912 0.0
C4540 C 0.81702 0.55296 0.16754 0.0
C4541 C 0.77945 0.53516 0.14818 0.0
C4542 C 0.85928 0.58483 0.1709 0.0
C4543 C 0.84869 0.57772 0.17028 0.0
C4544 C 0.82328 0.56426 0.1513 0.0
C4545 C 0.79691 0.54647 0.158 0.0
C4546 C 0.80889 0.55248 0.15868 0.0
C4547 C 0.84309 0.5718 0.16109 0.0
C4548 C 0.83142 0.56484 0.16018 0.0
H4549 H 0.77527 0.54349 0.17129 0.0
H4550 H 0.79544 0.55227 0.17293 0.0
H4551 H 0.80606 0.55806 0.14368 0.0
H4552 H 0.86291 0.58099 0.14655 0.0
H4553 H 0.84458 0.56837 0.1455 0.0
C4554 C 0.75174 0.57982 0.38403 0.0
C4555 C 0.75298 0.57273 0.39151 0.0
C4556 C 0.74664 0.5881 0.38555 0.0
C4557 C 0.73905 0.60382 0.4057 0.0
H4558 H 0.71892 0.61124 0.38313 0.0
C4559 C 0.72212 0.64132 0.4079 0.0
C4560 C 0.71087 0.64066 0.40311 0.0
C4561 C 0.72713 0.63292 0.40667 0.0
C4562 C 0.72443 0.60922 0.38955 0.0
H4563 H 0.74998 0.56894 0.40657 0.0
H4564 H 0.74082 0.58317 0.40909 0.0
H4565 H 0.72777 0.59679 0.38067 0.0
H4566 H 0.69607 0.63082 0.39318 0.0
H4567 H 0.70469 0.616 0.39121 0.0
H4568 H 0.73547 0.61608 0.41464 0.0
C4569 C 0.74392 0.58242 0.40209 0.0
C4570 C 0.72964 0.60101 0.3881 0.0
C4571 C 0.74905 0.57417 0.40058 0.0
C4572 C 0.70472 0.63146 0.39704 0.0
C4573 C 0.70971 0.62303 0.39584 0.0
C4574 C 0.73381 0.61201 0.40716 0.0
C4575 C 0.74262 0.58949 0.39458 0.0
C4576 C 0.73704 0.59822 0.39614 0.0
C4577 C 0.721 0.62367 0.4006 0.0
C4578 C 0.72644 0.61483 0.3991 0.0
H4579 H 0.75456 0.5789 0.3769 0.0
H4580 H 0.74592 0.59346 0.37965 0.0
H4581 H 0.74479 0.60197 0.41204 0.0
H4582 H 0.7271 0.6484 0.41249 0.0
H4583 H 0.7359 0.63377 0.41031 0.0
C4584 C 0.24408 1.00013 0.17207 0.0
C4585 C 0.24204 0.00811 0.16581 0.0
C4586 C 0.23603 0.99529 0.17769 0.0
C4587 C 0.21005 0.99755 0.18729 0.0
H4588 H 0.2041 0.96704 0.18599 0.0
C4589 C 0.1694 0.96996 0.19704 0.0
C4590 C 0.17045 0.96041 0.20105 0.0
C4591 C 0.17885 0.97688 0.19441 0.0
C4592 C 0.20577 0.97557 0.18662 0.0
H4593 H 0.23007 0.01748 0.16079 0.0
H4594 H 0.21593 0.00896 0.17058 0.0
H4595 H 0.2192 0.97702 0.17819 0.0
H4596 H 0.18225 0.95098 0.20629 0.0
H4597 H 0.1988 0.96317 0.20203 0.0
H4598 H 0.1964 0.996 0.1956 0.0
C4599 C 0.22383 0.00654 0.17122 0.0
C4600 C 0.21445 0.9813 0.18211 0.0
C4601 C 0.23193 0.01141 0.16559 0.0
C4602 C 0.18123 0.95826 0.20311 0.0
C4603 C 0.19067 0.9652 0.20059 0.0
C4604 C 0.20134 0.99179 0.19183 0.0
C4605 C 0.2257 0.99828 0.17718 0.0
C4606 C 0.21669 0.99235 0.18236 0.0
C4607 C 0.18951 0.97438 0.19583 0.0
C4608 C 0.19909 0.98072 0.19153 0.0
H4609 H 0.2519 0.99757 0.17256 0.0
H4610 H 0.23784 0.98911 0.18238 0.0
H4611 H 0.21163 0.00607 0.18767 0.0
H4612 H 0.16115 0.97173 0.19532 0.0
H4613 H 0.17764 0.98386 0.19073 0.0
C4614 C 0.19464 0.92922 0.65725 0.0
C4615 C 0.18996 0.938 0.65792 0.0
C4616 C 0.18841 0.91913 0.65867 0.0
C4617 C 0.16397 0.90573 0.67003 0.0
H4618 H 0.16424 0.88122 0.65299 0.0
C4619 C 0.1313 0.8664 0.6693 0.0
C4620 C 0.13538 0.85724 0.67007 0.0
C4621 C 0.13832 0.87593 0.66752 0.0
C4622 C 0.16418 0.88798 0.65787 0.0
H4623 H 0.17506 0.943 0.66071 0.0
H4624 H 0.16413 0.92544 0.66288 0.0
H4625 H 0.17589 0.89856 0.65058 0.0
H4626 H 0.14993 0.85082 0.66916 0.0
H4627 H 0.16224 0.86755 0.66592 0.0
H4628 H 0.15215 0.89522 0.67722 0.0
C4629 C 0.17267 0.92635 0.6614 0.0
C4630 C 0.17086 0.89791 0.6565 0.0
C4631 C 0.17889 0.93642 0.66 0.0
C4632 C 0.14653 0.85773 0.66857 0.0
C4633 C 0.15357 0.8673 0.66673 0.0
C4634 C 0.15726 0.89585 0.67135 0.0
C4635 C 0.17737 0.91759 0.66081 0.0
C4636 C 0.17072 0.90692 0.6625 0.0
C4637 C 0.1496 0.87654 0.6664 0.0
C4638 C 0.15718 0.88689 0.66521 0.0
H4639 H 0.20309 0.93014 0.65555 0.0
H4640 H 0.19232 0.91257 0.65824 0.0
H4641 H 0.16386 0.91244 0.67495 0.0
H4642 H 0.12266 0.86624 0.67015 0.0
H4643 H 0.13494 0.88286 0.66706 0.0
C4644 C 0.80403 0.48979 0.34938 0.0
C4645 C 0.80936 0.49642 0.3582 0.0
C4646 C 0.81048 0.48592 0.34323 0.0
C4647 C 0.83887 0.48058 0.3443 0.0
H4648 H 0.82842 0.47457 0.31526 0.0
C4649 C 0.8626 0.45983 0.31945 0.0
C4650 C 0.85552 0.45094 0.31344 0.0
C4651 C 0.85787 0.46712 0.324 0.0
C4652 C 0.83145 0.47622 0.32336 0.0
H4653 H 0.82567 0.50454 0.36726 0.0
H4654 H 0.83698 0.49794 0.35643 0.0
H4655 H 0.81856 0.4843 0.32501 0.0
H4656 H 0.83804 0.443 0.30699 0.0
H4657 H 0.82979 0.45576 0.31481 0.0
H4658 H 0.85169 0.47239 0.34263 0.0
C4659 C 0.82779 0.49553 0.35438 0.0
C4660 C 0.82578 0.48175 0.32897 0.0
C4661 C 0.82131 0.49934 0.36057 0.0
C4662 C 0.84368 0.44977 0.31163 0.0
C4663 C 0.83897 0.45711 0.31606 0.0
C4664 C 0.8446 0.47513 0.33867 0.0
C4665 C 0.82245 0.48863 0.3457 0.0
C4666 C 0.82924 0.48379 0.33955 0.0
C4667 C 0.84599 0.46573 0.32249 0.0
C4668 C 0.84081 0.47269 0.32818 0.0
H4669 H 0.79483 0.48726 0.34743 0.0
H4670 H 0.80604 0.48047 0.33674 0.0
H4671 H 0.84171 0.48185 0.35244 0.0
H4672 H 0.87174 0.46087 0.32101 0.0
H4673 H 0.86348 0.47373 0.32887 0.0
C4674 C 0.65781 0.50093 0.84666 0.0
C4675 C 0.66624 0.50335 0.84065 0.0
C4676 C 0.64825 0.50511 0.84489 0.0
C4677 C 0.63768 0.52663 0.83227 0.0
H4678 H 0.60812 0.50951 0.83497 0.0
C4679 C 0.59586 0.53917 0.81884 0.0
C4680 C 0.58796 0.53773 0.82538 0.0
C4681 C 0.60541 0.53499 0.82079 0.0
C4682 C 0.61633 0.51442 0.83428 0.0
H4683 H 0.67109 0.51188 0.82792 0.0
H4684 H 0.65436 0.51904 0.82472 0.0
H4685 H 0.62473 0.50214 0.83814 0.0
H4686 H 0.58375 0.53073 0.83904 0.0
H4687 H 0.60042 0.52338 0.84245 0.0
H4688 H 0.62922 0.53886 0.82827 0.0
C4689 C 0.65525 0.51411 0.83097 0.0
C4690 C 0.62587 0.51021 0.83611 0.0
C4691 C 0.66484 0.50999 0.83278 0.0
C4692 C 0.58972 0.53196 0.83387 0.0
C4693 C 0.59923 0.52771 0.83579 0.0
C4694 C 0.62813 0.53081 0.83037 0.0
C4695 C 0.64684 0.51177 0.83702 0.0
C4696 C 0.63667 0.51626 0.83513 0.0
C4697 C 0.6072 0.52921 0.82928 0.0
C4698 C 0.61735 0.52476 0.83135 0.0
H4699 H 0.65872 0.49594 0.85286 0.0
H4700 H 0.64206 0.50326 0.84981 0.0
H4701 H 0.64588 0.5316 0.83162 0.0
H4702 H 0.59463 0.54353 0.81221 0.0
H4703 H 0.61132 0.53617 0.81557 0.0
C4704 C 0.88952 0.68232 0.98925 0.0
C4705 C 0.87919 0.68401 0.99126 0.0
C4706 C 0.89007 0.67776 0.97983 0.0
C4707 C 0.8717 0.66061 0.95794 0.0
H4708 H 0.89818 0.66885 0.94526 0.0
C4709 C 0.87296 0.6418 0.91882 0.0
C4710 C 0.88299 0.63884 0.91771 0.0
C4711 C 0.87264 0.64811 0.92734 0.0
C4712 C 0.89076 0.66641 0.94875 0.0
H4713 H 0.86143 0.68248 0.98478 0.0
H4714 H 0.86246 0.67474 0.96826 0.0
H4715 H 0.89728 0.67864 0.96083 0.0
H4716 H 0.90063 0.64041 0.92461 0.0
H4717 H 0.90009 0.65145 0.93952 0.0
H4718 H 0.86522 0.64834 0.94594 0.0
C4719 C 0.87009 0.67679 0.97404 0.0
C4720 C 0.89024 0.67202 0.95767 0.0
C4721 C 0.86953 0.68136 0.98348 0.0
C4722 C 0.8928 0.64262 0.9252 0.0
C4723 C 0.89249 0.64894 0.93374 0.0
C4724 C 0.87222 0.65502 0.94902 0.0
C4725 C 0.88033 0.67477 0.97215 0.0
C4726 C 0.88072 0.66915 0.96241 0.0
C4727 C 0.88235 0.65164 0.93498 0.0
C4728 C 0.88177 0.65782 0.94433 0.0
H4729 H 0.89716 0.6844 0.99502 0.0
H4730 H 0.89808 0.67626 0.97868 0.0
H4731 H 0.86434 0.65804 0.96147 0.0
H4732 H 0.86531 0.63922 0.91309 0.0
H4733 H 0.86477 0.65021 0.92794 0.0
C4734 C 0.05221 0.10453 0.70914 0.0
C4735 C 0.05426 0.11431 0.71472 0.0
C4736 C 0.0541 0.10404 0.69918 0.0
C4737 C 0.07061 0.11964 0.68196 0.0
H4738 H 0.05209 0.09776 0.66164 0.0
C4739 C 0.08022 0.11585 0.64151 0.0
C4740 C 0.08046 0.10563 0.6381 0.0
C4741 C 0.07572 0.11748 0.65016 0.0
C4742 C 0.05735 0.10391 0.66725 0.0
H4743 H 0.05941 0.13126 0.71407 0.0
H4744 H 0.06257 0.13043 0.69663 0.0
H4745 H 0.04647 0.09965 0.67806 0.0
H4746 H 0.0757 0.08908 0.64079 0.0
H4747 H 0.06789 0.0919 0.65588 0.0
H4748 H 0.08155 0.12381 0.67118 0.0
C4749 C 0.05975 0.12312 0.70002 0.0
C4750 C 0.05415 0.10497 0.67666 0.0
C4751 C 0.05791 0.1236 0.71001 0.0
C4752 C 0.07574 0.09705 0.6433 0.0
C4753 C 0.07116 0.09866 0.65189 0.0
C4754 C 0.07377 0.11861 0.67253 0.0
C4755 C 0.05803 0.11332 0.69453 0.0
C4756 C 0.06085 0.11274 0.6842 0.0
C4757 C 0.07126 0.1089 0.6555 0.0
C4758 C 0.06728 0.11062 0.66513 0.0
H4759 H 0.04953 0.09723 0.7126 0.0
H4760 H 0.05286 0.09636 0.69525 0.0
H4761 H 0.07607 0.12561 0.68762 0.0
H4762 H 0.08385 0.12262 0.63767 0.0
H4763 H 0.07582 0.12545 0.65272 0.0
C4764 C 0.65138 0.32421 0.53551 0.0
C4765 C 0.65891 0.32938 0.54429 0.0
C4766 C 0.65 0.32943 0.52664 0.0
C4767 C 0.66373 0.35211 0.51374 0.0
H4768 H 0.63306 0.35007 0.49933 0.0
C4769 C 0.65371 0.38029 0.48332 0.0
C4770 C 0.64511 0.3762 0.47486 0.0
C4771 C 0.65567 0.37411 0.49139 0.0
C4772 C 0.6417 0.35061 0.50316 0.0
H4773 H 0.67113 0.34396 0.55057 0.0
H4774 H 0.66865 0.35308 0.53514 0.0
H4775 H 0.63603 0.34004 0.51406 0.0
H4776 H 0.63215 0.36238 0.46796 0.0
H4777 H 0.63565 0.35147 0.48201 0.0
H4778 H 0.66941 0.36269 0.50286 0.0
C4779 C 0.66384 0.34499 0.53508 0.0
C4780 C 0.64339 0.34486 0.51162 0.0
C4781 C 0.66518 0.3398 0.54396 0.0
C4782 C 0.63872 0.36573 0.47448 0.0
C4783 C 0.6407 0.35953 0.48254 0.0
C4784 C 0.66204 0.35783 0.50526 0.0
C4785 C 0.65617 0.3399 0.52634 0.0
C4786 C 0.65442 0.34562 0.51706 0.0
C4787 C 0.64915 0.36367 0.49114 0.0
C4788 C 0.651 0.35723 0.49991 0.0
H4789 H 0.64637 0.31621 0.53555 0.0
H4790 H 0.64409 0.32527 0.52 0.0
H4791 H 0.67235 0.35274 0.51768 0.0
H4792 H 0.65881 0.38832 0.48374 0.0
H4793 H 0.66216 0.37761 0.49793 0.0
C4794 C 0.35934 0.8338 0.16207 0.0
C4795 C 0.36783 0.84107 0.16892 0.0
C4796 C 0.35621 0.83611 0.15204 0.0
C4797 C 0.35583 0.85888 0.137 0.0
H4798 H 0.34914 0.83843 0.11375 0.0
C4799 C 0.34393 0.87096 0.09676 0.0
C4800 C 0.33491 0.864 0.09015 0.0
C4801 C 0.34882 0.86772 0.10588 0.0
C4802 C 0.35088 0.8442 0.12018 0.0
H4803 H 0.37985 0.85638 0.17053 0.0
H4804 H 0.3745 0.86034 0.15304 0.0
H4805 H 0.35612 0.8335 0.13062 0.0
H4806 H 0.32417 0.84809 0.08774 0.0
H4807 H 0.33258 0.84243 0.1038 0.0
H4808 H 0.35038 0.86951 0.12672 0.0
C4809 C 0.3702 0.85288 0.15544 0.0
C4810 C 0.3549 0.84138 0.12983 0.0
C4811 C 0.37335 0.85056 0.16543 0.0
C4812 C 0.33116 0.8536 0.09268 0.0
C4813 C 0.336 0.85036 0.10187 0.0
C4814 C 0.35178 0.86168 0.1274 0.0
C4815 C 0.36146 0.84577 0.14868 0.0
C4816 C 0.35743 0.8487 0.13835 0.0
C4817 C 0.34475 0.85745 0.10867 0.0
C4818 C 0.34926 0.85439 0.11885 0.0
H4819 H 0.355 0.82637 0.1645 0.0
H4820 H 0.34941 0.83049 0.14703 0.0
H4821 H 0.35748 0.86464 0.14343 0.0
H4822 H 0.34713 0.87897 0.09491 0.0
H4823 H 0.35574 0.87331 0.11079 0.0
C4824 C 0.80564 0.32908 0.4584 0.0
C4825 C 0.79879 0.33306 0.45079 0.0
C4826 C 0.80681 0.33253 0.46861 0.0
C4827 C 0.80469 0.35521 0.48456 0.0
H4828 H 0.8069 0.33663 0.50625 0.0
C4829 C 0.81064 0.37051 0.52647 0.0
C4830 C 0.81874 0.36709 0.53334 0.0
C4831 C 0.80701 0.36575 0.51658 0.0
C4832 C 0.80638 0.34193 0.50028 0.0
H4833 H 0.78735 0.34339 0.44799 0.0
H4834 H 0.78939 0.3494 0.46579 0.0
H4835 H 0.80263 0.32931 0.48862 0.0
H4836 H 0.82901 0.35573 0.53548 0.0
H4837 H 0.82284 0.34749 0.51814 0.0
H4838 H 0.80864 0.36785 0.49617 0.0
C4839 C 0.79402 0.34376 0.46385 0.0
C4840 C 0.80393 0.33774 0.49018 0.0
C4841 C 0.79285 0.34031 0.45365 0.0
C4842 C 0.82283 0.35857 0.53027 0.0
C4843 C 0.81922 0.35381 0.52038 0.0
C4844 C 0.80715 0.3594 0.49465 0.0
C4845 C 0.80116 0.34004 0.47144 0.0
C4846 C 0.80314 0.34434 0.48219 0.0
C4847 C 0.81138 0.35743 0.51336 0.0
C4848 C 0.80813 0.35283 0.50264 0.0
H4849 H 0.81044 0.32359 0.45645 0.0
H4850 H 0.81248 0.32959 0.47424 0.0
H4851 H 0.80434 0.36055 0.4786 0.0
H4852 H 0.80725 0.37698 0.52874 0.0
H4853 H 0.8008 0.36861 0.51143 0.0
C4854 C 0.4694 0.11362 0.32552 0.0
C4855 C 0.47757 0.12197 0.32278 0.0
C4856 C 0.46274 0.11547 0.33254 0.0
C4857 C 0.45266 0.13705 0.34374 0.0
H4858 H 0.44379 0.11687 0.3631 0.0
C4859 C 0.42834 0.14616 0.37471 0.0
C4860 C 0.41909 0.13812 0.37621 0.0
C4861 C 0.43594 0.14405 0.36873 0.0
C4862 C 0.44613 0.12254 0.35768 0.0
H4863 H 0.48547 0.13872 0.32557 0.0
H4864 H 0.47399 0.14193 0.33789 0.0
H4865 H 0.45633 0.11346 0.35177 0.0
H4866 H 0.41047 0.12162 0.37266 0.0
H4867 H 0.42379 0.11789 0.36221 0.0
H4868 H 0.44249 0.14612 0.34965 0.0
C4869 C 0.47251 0.13399 0.33445 0.0
C4870 C 0.45331 0.12059 0.35118 0.0
C4871 C 0.47912 0.13215 0.3274 0.0
C4872 C 0.41764 0.12791 0.37171 0.0
C4873 C 0.42527 0.12578 0.36576 0.0
C4874 C 0.44555 0.13902 0.35027 0.0
C4875 C 0.46412 0.12571 0.33702 0.0
C4876 C 0.45665 0.12781 0.3441 0.0
C4877 C 0.43444 0.13387 0.36411 0.0
C4878 C 0.44218 0.13179 0.35731 0.0
H4879 H 0.46791 0.1057 0.32201 0.0
H4880 H 0.45627 0.10892 0.33423 0.0
H4881 H 0.45485 0.14269 0.33826 0.0
H4882 H 0.42962 0.15411 0.37804 0.0
H4883 H 0.44298 0.15042 0.3677 0.0
C4884 C 0.56514 0.64824 0.01425 0.0
C4885 C 0.57525 0.65222 0.01061 0.0
C4886 C 0.56549 0.64437 0.02384 0.0
C4887 C 0.5835 0.63274 0.04247 0.0
H4888 H 0.56399 0.63828 0.06077 0.0
C4889 C 0.58634 0.61721 0.08227 0.0
C4890 C 0.57607 0.61344 0.08569 0.0
C4891 C 0.58652 0.62265 0.0735 0.0
C4892 C 0.56941 0.63656 0.0557 0.0
H4893 H 0.59366 0.65538 0.01425 0.0
H4894 H 0.59428 0.64869 0.03102 0.0
H4895 H 0.56374 0.64663 0.04479 0.0
H4896 H 0.5579 0.61203 0.08247 0.0
H4897 H 0.55813 0.62134 0.06704 0.0
H4898 H 0.589 0.62249 0.0532 0.0
C4899 C 0.58608 0.64852 0.02643 0.0
C4900 C 0.56928 0.64137 0.04656 0.0
C4901 C 0.58573 0.65246 0.01687 0.0
C4902 C 0.56596 0.61505 0.0801 0.0
C4903 C 0.56612 0.62042 0.07129 0.0
C4904 C 0.58358 0.62787 0.05157 0.0
C4905 C 0.57596 0.64431 0.02997 0.0
C4906 C 0.57631 0.63949 0.03984 0.0
C4907 C 0.5764 0.62427 0.06786 0.0
C4908 C 0.57651 0.62969 0.05829 0.0
H4909 H 0.55694 0.64803 0.00963 0.0
H4910 H 0.55755 0.64112 0.02633 0.0
H4911 H 0.58888 0.63099 0.03737 0.0
H4912 H 0.59422 0.61592 0.08638 0.0
H4913 H 0.59461 0.62558 0.07116 0.0
C4914 C 0.05838 0.86302 0.85505 0.0
C4915 C 0.05844 0.87233 0.85013 0.0
C4916 C 0.0639 0.86343 0.86512 0.0
C4917 C 0.07656 0.88131 0.88845 0.0
H4918 H 0.09655 0.86242 0.89353 0.0
C4919 C 0.1146 0.88912 0.92176 0.0
C4920 C 0.11775 0.88053 0.92638 0.0
C4921 C 0.10576 0.88749 0.91337 0.0
C4922 C 0.09086 0.86762 0.89233 0.0
H4923 H 0.06407 0.88941 0.85207 0.0
H4924 H 0.07365 0.89013 0.86964 0.0
H4925 H 0.08385 0.86073 0.87721 0.0
H4926 H 0.11376 0.86345 0.92605 0.0
H4927 H 0.09815 0.86059 0.9115 0.0
H4928 H 0.08375 0.88832 0.90352 0.0
C4929 C 0.06924 0.8825 0.86574 0.0
C4930 C 0.08357 0.86666 0.88295 0.0
C4931 C 0.06374 0.88209 0.85566 0.0
C4932 C 0.11153 0.87025 0.92268 0.0
C4933 C 0.10266 0.86861 0.91427 0.0
C4934 C 0.08383 0.88225 0.89785 0.0
C4935 C 0.06958 0.87317 0.87052 0.0
C4936 C 0.07648 0.8736 0.88084 0.0
C4937 C 0.09981 0.87722 0.9094 0.0
C4938 C 0.09122 0.87554 0.89984 0.0
H4939 H 0.0542 0.85538 0.85107 0.0
H4940 H 0.06385 0.85611 0.86864 0.0
H4941 H 0.07108 0.88668 0.8871 0.0
H4942 H 0.1191 0.89715 0.92453 0.0
H4943 H 0.10389 0.89431 0.90977 0.0
C4944 C 0.98189 0.91678 0.77353 0.0
C4945 C 0.99338 0.91731 0.77322 0.0
C4946 C 0.97544 0.92149 0.76629 0.0
C4947 C 0.97469 0.92891 0.74016 0.0
H4948 H 0.95203 0.9435 0.74553 0.0
C4949 C 0.94972 0.94598 0.70781 0.0
C4950 C 0.93795 0.94422 0.70742 0.0
C4951 C 0.95683 0.94432 0.71656 0.0
C4952 C 0.95827 0.93938 0.7439 0.0
H4953 H 0.00731 0.92387 0.76557 0.0
H4954 H 0.9961 0.93205 0.753 0.0
H4955 H 0.96378 0.93753 0.75965 0.0
H4956 H 0.92441 0.9398 0.716 0.0
H4957 H 0.93678 0.93667 0.73129 0.0
H4958 H 0.96908 0.93042 0.72447 0.0
C4959 C 0.99199 0.9278 0.75867 0.0
C4960 C 0.965 0.93598 0.75199 0.0
C4961 C 0.99842 0.92311 0.76587 0.0
C4962 C 0.93348 0.94127 0.71614 0.0
C4963 C 0.94058 0.9395 0.72489 0.0
C4964 C 0.96795 0.93225 0.73211 0.0
C4965 C 0.98036 0.92682 0.75863 0.0
C4966 C 0.9733 0.93072 0.7502 0.0
C4967 C 0.9523 0.94072 0.7251 0.0
C4968 C 0.95966 0.93754 0.73385 0.0
H4969 H 0.97775 0.91233 0.77907 0.0
H4970 H 0.96648 0.92055 0.76643 0.0
H4971 H 0.98082 0.92467 0.73849 0.0
H4972 H 0.9534 0.94839 0.70123 0.0
H4973 H 0.96585 0.94562 0.71654 0.0
C4974 C 0.79611 0.24754 0.37302 0.0
C4975 C 0.78902 0.24729 0.38022 0.0
C4976 C 0.79662 0.23824 0.36789 0.0
C4977 C 0.79105 0.20944 0.36948 0.0
H4978 H 0.79245 0.20917 0.34082 0.0
C4979 C 0.7892 0.17135 0.34513 0.0
C4980 C 0.79649 0.17227 0.33806 0.0
C4981 C 0.78798 0.18036 0.35033 0.0
C4982 C 0.79218 0.20914 0.34885 0.0
H4983 H 0.77684 0.23703 0.38765 0.0
H4984 H 0.77772 0.22074 0.37867 0.0
H4985 H 0.79069 0.22509 0.34973 0.0
H4986 H 0.80862 0.18317 0.33118 0.0
H4987 H 0.80656 0.19895 0.34027 0.0
H4988 H 0.79259 0.19348 0.36859 0.0
C4989 C 0.78298 0.22815 0.37707 0.0
C4990 C 0.79117 0.21827 0.35395 0.0
C4991 C 0.78247 0.23749 0.38221 0.0
C4992 C 0.80278 0.1823 0.33646 0.0
C4993 C 0.80156 0.19131 0.34163 0.0
C4994 C 0.79207 0.20029 0.36436 0.0
C4995 C 0.79005 0.22843 0.36983 0.0
C4996 C 0.79068 0.21856 0.36434 0.0
C4997 C 0.7941 0.19045 0.34859 0.0
C4998 C 0.79273 0.20007 0.354 0.0
H4999 H 0.80145 0.25493 0.37145 0.0
H5000 H 0.80232 0.23872 0.36251 0.0
H5001 H 0.79084 0.20944 0.37751 0.0
H5002 H 0.78439 0.16366 0.34659 0.0
H5003 H 0.78212 0.17942 0.35559 0.0
C5004 C 0.55625 0.09518 0.25514 0.0
C5005 C 0.54469 0.09034 0.25481 0.0
C5006 C 0.56358 0.0894 0.25228 0.0
C5007 C 0.56292 0.06599 0.23597 0.0
H5008 H 0.59513 0.07272 0.24757 0.0
C5009 C 0.59442 0.04956 0.2167 0.0
C5010 C 0.60358 0.05756 0.21496 0.0
C5011 C 0.58769 0.05155 0.22363 0.0
C5012 C 0.58615 0.07071 0.24428 0.0
H5013 H 0.53189 0.07549 0.25159 0.0
H5014 H 0.54475 0.06534 0.24675 0.0
H5015 H 0.58222 0.07996 0.25603 0.0
H5016 H 0.61335 0.0736 0.21944 0.0
H5017 H 0.60176 0.07705 0.23158 0.0
H5018 H 0.5669 0.05702 0.22405 0.0
C5019 C 0.5481 0.07366 0.2491 0.0
C5020 C 0.57875 0.07489 0.2491 0.0
C5021 C 0.54075 0.07945 0.25198 0.0
C5022 C 0.60635 0.06731 0.2207 0.0
C5023 C 0.59973 0.06926 0.22768 0.0
C5024 C 0.57031 0.06178 0.23117 0.0
C5025 C 0.55956 0.07861 0.24903 0.0
C5026 C 0.5671 0.07285 0.24484 0.0
C5027 C 0.5901 0.06152 0.229 0.0
C5028 C 0.58206 0.06436 0.23509 0.0
H5029 H 0.5596 0.10352 0.25742 0.0
H5030 H 0.5723 0.09352 0.25223 0.0
H5031 H 0.55403 0.06433 0.2324 0.0
H5032 H 0.59209 0.04201 0.21229 0.0
H5033 H 0.58037 0.04541 0.22454 0.0
C5034 C 0.5794 0.73646 0.93411 0.0
C5035 C 0.5863 0.73585 0.94346 0.0
C5036 C 0.58155 0.74552 0.92884 0.0
C5037 C 0.60466 0.76834 0.92621 0.0
H5038 H 0.58012 0.77905 0.91174 0.0
C5039 C 0.61339 0.80589 0.90459 0.0
C5040 C 0.60664 0.80543 0.89495 0.0
C5041 C 0.61064 0.79797 0.9111 0.0
C5042 C 0.58706 0.7761 0.91567 0.0
H5043 H 0.60077 0.74436 0.95469 0.0
H5044 H 0.60445 0.76025 0.94555 0.0
H5045 H 0.57577 0.76421 0.9221 0.0
H5046 H 0.59145 0.79668 0.88471 0.0
H5047 H 0.5867 0.78272 0.89598 0.0
H5048 H 0.61594 0.7801 0.91967 0.0
C5049 C 0.59743 0.75366 0.94225 0.0
C5050 C 0.58457 0.76761 0.92162 0.0
C5051 C 0.59525 0.74461 0.94753 0.0
C5052 C 0.59686 0.79712 0.89206 0.0
C5053 C 0.59411 0.78919 0.89856 0.0
C5054 C 0.60715 0.77682 0.92026 0.0
C5055 C 0.59067 0.75419 0.9328 0.0
C5056 C 0.59333 0.76357 0.92689 0.0
C5057 C 0.60103 0.78946 0.90813 0.0
C5058 C 0.59838 0.78075 0.91484 0.0
H5059 H 0.57235 0.7299 0.93082 0.0
H5060 H 0.57624 0.74562 0.92155 0.0
H5061 H 0.61159 0.76533 0.93006 0.0
H5062 H 0.62086 0.81234 0.90703 0.0
H5063 H 0.61603 0.79852 0.91848 0.0
C5064 C 0.9705 0.08453 0.78228 0.0
C5065 C 0.97336 0.09393 0.77752 0.0
C5066 C 0.96072 0.08217 0.78659 0.0
C5067 C 0.94107 0.09467 0.79729 0.0
H5068 H 0.92115 0.06647 0.79339 0.0
C5069 C 0.89921 0.08472 0.81295 0.0
C5070 C 0.89632 0.07492 0.81701 0.0
C5071 C 0.90817 0.08701 0.80759 0.0
C5072 C 0.92669 0.07436 0.79466 0.0
H5073 H 0.96824 0.10824 0.77358 0.0
H5074 H 0.95114 0.10412 0.78112 0.0
H5075 H 0.93765 0.07049 0.78509 0.0
H5076 H 0.9008 0.06 0.81903 0.0
H5077 H 0.91658 0.06402 0.80984 0.0
H5078 H 0.93031 0.09851 0.80703 0.0
C5079 C 0.95648 0.09859 0.78152 0.0
C5080 C 0.93612 0.07666 0.78987 0.0
C5081 C 0.9662 0.1009 0.77713 0.0
C5082 C 0.90269 0.06752 0.81577 0.0
C5083 C 0.9117 0.06982 0.81047 0.0
C5084 C 0.93168 0.09235 0.80214 0.0
C5085 C 0.95364 0.0892 0.78632 0.0
C5086 C 0.94344 0.08683 0.79117 0.0
C5087 C 0.91458 0.07961 0.80632 0.0
C5088 C 0.92439 0.08215 0.80092 0.0
H5089 H 0.9758 0.07897 0.78263 0.0
H5090 H 0.95881 0.07493 0.79031 0.0
H5091 H 0.94663 0.10254 0.79854 0.0
H5092 H 0.89457 0.09064 0.81398 0.0
H5093 H 0.91007 0.09458 0.80443 0.0
C5094 C 0.68564 0.26196 0.6223 0.0
C5095 C 0.67481 0.26323 0.62323 0.0
C5096 C 0.68896 0.25283 0.62526 0.0
C5097 C 0.68233 0.23154 0.64213 0.0
H5098 H 0.69977 0.2175 0.62722 0.0
C5099 C 0.69975 0.19764 0.65857 0.0
C5100 C 0.698 0.18858 0.65197 0.0
C5101 C 0.69827 0.20711 0.6548 0.0
C5102 C 0.69488 0.22132 0.63145 0.0
H5103 H 0.65875 0.25565 0.62744 0.0
H5104 H 0.66451 0.23977 0.63255 0.0
H5105 H 0.69393 0.23301 0.62075 0.0
H5106 H 0.69385 0.18246 0.6362 0.0
H5107 H 0.69116 0.19902 0.62957 0.0
H5108 H 0.683 0.21979 0.65269 0.0
C5109 C 0.67055 0.24592 0.62978 0.0
C5110 C 0.69162 0.23025 0.62779 0.0
C5111 C 0.66724 0.25502 0.62684 0.0
C5112 C 0.69533 0.18934 0.64146 0.0
C5113 C 0.69379 0.19883 0.63767 0.0
C5114 C 0.6856 0.22266 0.64578 0.0
C5115 C 0.68151 0.24478 0.6292 0.0
C5116 C 0.68523 0.23541 0.63306 0.0
C5117 C 0.69494 0.20774 0.64433 0.0
C5118 C 0.69189 0.21742 0.64049 0.0
H5119 H 0.69169 0.26817 0.61962 0.0
H5120 H 0.69749 0.25223 0.62478 0.0
H5121 H 0.67756 0.2354 0.64646 0.0
H5122 H 0.702 0.19733 0.6667 0.0
H5123 H 0.69949 0.21389 0.66012 0.0
C5124 C 0.46455 0.86274 0.25387 0.0
C5125 C 0.46023 0.85301 0.24808 0.0
C5126 C 0.47496 0.86478 0.26059 0.0
C5127 C 0.50146 0.85552 0.26723 0.0
H5128 H 0.50366 0.87081 0.2931 0.0
C5129 C 0.53877 0.85914 0.30125 0.0
C5130 C 0.54316 0.86915 0.30651 0.0
C5131 C 0.52899 0.85721 0.2937 0.0
C5132 C 0.50322 0.86662 0.28587 0.0
H5133 H 0.4635 0.83782 0.2447 0.0
H5134 H 0.48163 0.84128 0.25656 0.0
H5135 H 0.48601 0.86732 0.28073 0.0
H5136 H 0.54063 0.8849 0.30823 0.0
H5137 H 0.52355 0.88156 0.29504 0.0
H5138 H 0.51867 0.85468 0.27254 0.0
C5139 C 0.47706 0.84743 0.25579 0.0
C5140 C 0.49311 0.86464 0.27875 0.0
C5141 C 0.46666 0.84543 0.24901 0.0
C5142 C 0.53752 0.87716 0.30417 0.0
C5143 C 0.52771 0.87522 0.29668 0.0
C5144 C 0.51157 0.85744 0.2744 0.0
C5145 C 0.48129 0.8571 0.26175 0.0
C5146 C 0.4921 0.85911 0.26931 0.0
C5147 C 0.52329 0.86521 0.2914 0.0
C5148 C 0.51258 0.86307 0.28377 0.0
H5149 H 0.45986 0.86881 0.2532 0.0
H5150 H 0.47806 0.8724 0.26486 0.0
H5151 H 0.50105 0.85135 0.26 0.0
H5152 H 0.54281 0.85276 0.30308 0.0
H5153 H 0.52569 0.84938 0.28986 0.0
C5154 C 0.85947 0.76817 0.06406 0.0
C5155 C 0.85356 0.76409 0.05427 0.0
C5156 C 0.85683 0.7766 0.06903 0.0
C5157 C 0.84267 0.79852 0.06469 0.0
H5158 H 0.84157 0.79747 0.09334 0.0
C5159 C 0.82442 0.82756 0.08662 0.0
C5160 C 0.82996 0.83112 0.09661 0.0
C5161 C 0.82757 0.81967 0.08127 0.0
C5162 C 0.84198 0.79797 0.08537 0.0
H5163 H 0.84024 0.76572 0.04202 0.0
H5164 H 0.83561 0.78043 0.05071 0.0
H5165 H 0.84648 0.78319 0.08435 0.0
H5166 H 0.8435 0.8297 0.10868 0.0
H5167 H 0.8491 0.81595 0.09936 0.0
H5168 H 0.83812 0.8133 0.06572 0.0
C5169 C 0.8424 0.77719 0.05449 0.0
C5170 C 0.84479 0.78976 0.08021 0.0
C5171 C 0.84505 0.76875 0.04951 0.0
C5172 C 0.83897 0.82693 0.10105 0.0
C5173 C 0.84212 0.81904 0.09572 0.0
C5174 C 0.83985 0.80673 0.06986 0.0
C5175 C 0.8482 0.78117 0.06435 0.0
C5176 C 0.84519 0.78993 0.0698 0.0
C5177 C 0.83639 0.81524 0.0858 0.0
C5178 C 0.83948 0.80656 0.08027 0.0
H5179 H 0.86622 0.76491 0.06788 0.0
H5180 H 0.86163 0.77959 0.07653 0.0
H5181 H 0.84304 0.79898 0.05671 0.0
H5182 H 0.81753 0.83078 0.08299 0.0
H5183 H 0.82292 0.8169 0.07368 0.0
C5184 C 0.69489 0.92689 0.88541 0.0
C5185 C 0.69824 0.93377 0.89428 0.0
C5186 C 0.6877 0.91687 0.88535 0.0
C5187 C 0.6661 0.90199 0.89881 0.0
H5188 H 0.66912 0.87815 0.88239 0.0
C5189 C 0.63412 0.86112 0.89506 0.0
C5190 C 0.62991 0.8568 0.885 0.0
C5191 C 0.6436 0.86976 0.89729 0.0
C5192 C 0.66816 0.88474 0.887 0.0
H5193 H 0.69694 0.93539 0.91014 0.0
H5194 H 0.68441 0.91785 0.91006 0.0
H5195 H 0.68372 0.89471 0.88437 0.0
H5196 H 0.63261 0.85777 0.86949 0.0
H5197 H 0.64909 0.87282 0.87336 0.0
H5198 H 0.65044 0.89204 0.9013 0.0
C5199 C 0.68722 0.92027 0.9031 0.0
C5200 C 0.67651 0.89424 0.88812 0.0
C5201 C 0.6944 0.93032 0.90315 0.0
C5202 C 0.6356 0.86101 0.87729 0.0
C5203 C 0.64511 0.86957 0.87953 0.0
C5204 C 0.65778 0.89247 0.89773 0.0
C5205 C 0.68369 0.91347 0.89417 0.0
C5206 C 0.67545 0.90305 0.89385 0.0
C5207 C 0.64911 0.87414 0.88952 0.0
C5208 C 0.6586 0.88381 0.89164 0.0
H5209 H 0.69754 0.92936 0.8784 0.0
H5210 H 0.685 0.91193 0.87829 0.0
H5211 H 0.66494 0.90864 0.90318 0.0
H5212 H 0.62987 0.85804 0.90113 0.0
H5213 H 0.64655 0.87309 0.90507 0.0
C5214 C 0.24143 0.56611 0.15126 0.0
C5215 C 0.24182 0.56173 0.14164 0.0
C5216 C 0.23853 0.57575 0.15231 0.0
C5217 C 0.23614 0.59981 0.13937 0.0
H5218 H 0.21358 0.60094 0.15605 0.0
C5219 C 0.21192 0.63273 0.13767 0.0
C5220 C 0.20934 0.63642 0.14672 0.0
C5221 C 0.2168 0.62411 0.13748 0.0
C5222 C 0.22003 0.60085 0.15149 0.0
H5223 H 0.23992 0.56426 0.12563 0.0
H5224 H 0.2348 0.58107 0.12744 0.0
H5225 H 0.22074 0.58518 0.15503 0.0
H5226 H 0.20964 0.63396 0.16261 0.0
H5227 H 0.21844 0.61906 0.16238 0.0
H5228 H 0.23541 0.61547 0.13581 0.0
C5229 C 0.23676 0.57705 0.13418 0.0
C5230 C 0.22412 0.5918 0.1509 0.0
C5231 C 0.23959 0.56738 0.13313 0.0
C5232 C 0.2117 0.63133 0.15557 0.0
C5233 C 0.21663 0.62274 0.1554 0.0
C5234 C 0.23209 0.6089 0.14 0.0
C5235 C 0.23602 0.58127 0.14376 0.0
C5236 C 0.23215 0.59113 0.14477 0.0
C5237 C 0.21917 0.61897 0.14633 0.0
C5238 C 0.2239 0.6095 0.146 0.0
H5239 H 0.24301 0.56192 0.15796 0.0
H5240 H 0.23815 0.57884 0.1598 0.0
H5241 H 0.24244 0.59959 0.13468 0.0
H5242 H 0.21001 0.63641 0.13071 0.0
H5243 H 0.21844 0.62131 0.13032 0.0
C5244 C 0.17763 0.42728 0.83761 0.0
C5245 C 0.18481 0.42414 0.83167 0.0
C5246 C 0.16603 0.4223 0.83591 0.0
C5247 C 0.14219 0.40601 0.81729 0.0
H5248 H 0.13016 0.39666 0.84118 0.0
C5249 C 0.09836 0.37641 0.81548 0.0
C5250 C 0.09246 0.37731 0.82341 0.0
C5251 C 0.10915 0.38307 0.8157 0.0
C5252 C 0.13327 0.39938 0.83443 0.0
H5253 H 0.1854 0.41357 0.81906 0.0
H5254 H 0.16506 0.40486 0.81608 0.0
H5255 H 0.14985 0.40652 0.84299 0.0
H5256 H 0.09272 0.3862 0.83739 0.0
H5257 H 0.11127 0.39814 0.8376 0.0
H5258 H 0.12555 0.3989 0.80873 0.0
C5259 C 0.16844 0.41118 0.82204 0.0
C5260 C 0.1446 0.405 0.83548 0.0
C5261 C 0.18009 0.4161 0.82381 0.0
C5262 C 0.09718 0.38533 0.83124 0.0
C5263 C 0.10785 0.39208 0.83139 0.0
C5264 C 0.13078 0.40045 0.81624 0.0
C5265 C 0.16134 0.41413 0.82819 0.0
C5266 C 0.1492 0.40836 0.82694 0.0
C5267 C 0.11416 0.39082 0.82382 0.0
C5268 C 0.12617 0.39706 0.82481 0.0
H5269 H 0.18103 0.43338 0.84378 0.0
H5270 H 0.16074 0.4248 0.84071 0.0
H5271 H 0.14551 0.40856 0.81058 0.0
H5272 H 0.09488 0.37021 0.80941 0.0
H5273 H 0.11377 0.3818 0.80978 0.0
C5274 C 0.25194 0.42286 0.60985 0.0
C5275 C 0.25007 0.42598 0.61942 0.0
C5276 C 0.25792 0.41514 0.6088 0.0
C5277 C 0.26791 0.39363 0.62198 0.0
H5278 H 0.29048 0.3987 0.60463 0.0
C5279 C 0.3037 0.37169 0.62443 0.0
C5280 C 0.30703 0.36887 0.61541 0.0
C5281 C 0.29578 0.37779 0.62432 0.0
C5282 C 0.28409 0.39707 0.60938 0.0
H5283 H 0.25301 0.42335 0.63541 0.0
H5284 H 0.26345 0.40993 0.63361 0.0
H5285 H 0.27846 0.41094 0.60557 0.0
H5286 H 0.30445 0.37009 0.59916 0.0
H5287 H 0.29049 0.38069 0.59894 0.0
H5288 H 0.2737 0.37985 0.62592 0.0
C5289 C 0.26014 0.41333 0.62687 0.0
C5290 C 0.27719 0.40409 0.60993 0.0
C5291 C 0.25414 0.42104 0.62791 0.0
C5292 C 0.30203 0.37209 0.60623 0.0
C5293 C 0.29412 0.37825 0.60612 0.0
C5294 C 0.27482 0.38661 0.62144 0.0
C5295 C 0.2622 0.41035 0.61732 0.0
C5296 C 0.26909 0.40253 0.61632 0.0
C5297 C 0.29098 0.38126 0.61518 0.0
C5298 C 0.28309 0.38831 0.61522 0.0
H5299 H 0.24876 0.42638 0.60313 0.0
H5300 H 0.25918 0.41291 0.60131 0.0
H5301 H 0.26162 0.39208 0.62684 0.0
H5302 H 0.30729 0.36922 0.63161 0.0
H5303 H 0.29365 0.38004 0.63145 0.0
C5304 C 0.76946 0.01643 0.85836 0.0
C5305 C 0.77086 0.02069 0.8684 0.0
C5306 C 0.77822 0.01924 0.85281 0.0
C5307 C 0.80916 0.03146 0.85554 0.0
H5308 H 0.8009 0.04025 0.8286 0.0
C5309 C 0.84365 0.05184 0.83391 0.0
C5310 C 0.84199 0.06147 0.8305 0.0
C5311 C 0.83467 0.04444 0.8367 0.0
C5312 C 0.80334 0.03775 0.83608 0.0
H5313 H 0.7827 0.0309 0.88063 0.0
H5314 H 0.7979 0.0359 0.87095 0.0
H5315 H 0.78599 0.03196 0.83769 0.0
H5316 H 0.82951 0.07058 0.82654 0.0
H5317 H 0.81388 0.05774 0.83138 0.0
H5318 H 0.82649 0.03775 0.85417 0.0
C5319 C 0.79007 0.03034 0.86735 0.0
C5320 C 0.7948 0.03292 0.84126 0.0
C5321 C 0.78131 0.02758 0.87287 0.0
C5322 C 0.83102 0.06323 0.8292 0.0
C5323 C 0.82205 0.05583 0.83191 0.0
C5324 C 0.8177 0.03626 0.85036 0.0
C5325 C 0.78859 0.02631 0.85722 0.0
C5326 C 0.79762 0.03001 0.85117 0.0
C5327 C 0.82387 0.04652 0.83604 0.0
C5328 C 0.81488 0.03975 0.84069 0.0
H5329 H 0.76147 0.01116 0.85468 0.0
H5330 H 0.77684 0.01595 0.84504 0.0
H5331 H 0.81161 0.02915 0.86311 0.0
H5332 H 0.85205 0.05033 0.83502 0.0
H5333 H 0.8363 0.03728 0.83974 0.0
C5334 C 0.77849 0.04087 0.35535 0.0
C5335 C 0.77575 0.0335 0.34687 0.0
C5336 C 0.78074 0.05169 0.35412 0.0
C5337 C 0.7776 0.07106 0.33485 0.0
H5338 H 0.80265 0.08954 0.35358 0.0
C5339 C 0.79995 0.11298 0.32643 0.0
C5340 C 0.80299 0.12098 0.33439 0.0
C5341 C 0.79543 0.10251 0.32821 0.0
C5342 C 0.79553 0.08451 0.34837 0.0
H5343 H 0.77322 0.03166 0.33046 0.0
H5344 H 0.77734 0.0505 0.3283 0.0
H5345 H 0.79709 0.07085 0.3562 0.0
H5346 H 0.80351 0.12436 0.35042 0.0
H5347 H 0.79561 0.10602 0.35355 0.0
H5348 H 0.77632 0.08473 0.32686 0.0
C5349 C 0.7775 0.04797 0.3359 0.0
C5350 C 0.79231 0.07379 0.34987 0.0
C5351 C 0.77517 0.03715 0.33713 0.0
C5352 C 0.80119 0.11835 0.34414 0.0
C5353 C 0.79676 0.10786 0.34594 0.0
C5354 C 0.78087 0.08178 0.33331 0.0
C5355 C 0.78039 0.05538 0.34438 0.0
C5356 C 0.78338 0.0669 0.34308 0.0
C5357 C 0.79394 0.09982 0.33801 0.0
C5358 C 0.78994 0.0886 0.34 0.0
H5359 H 0.77885 0.03828 0.36294 0.0
H5360 H 0.78273 0.05715 0.36081 0.0
H5361 H 0.77054 0.06604 0.32957 0.0
H5362 H 0.80115 0.1148 0.31883 0.0
H5363 H 0.79342 0.09649 0.32197 0.0
C5364 C 0.18369 0.5086 0.64393 0.0
C5365 C 0.18945 0.50079 0.64687 0.0
C5366 C 0.17557 0.5108 0.64924 0.0
C5367 C 0.16676 0.50828 0.6742 0.0
H5368 H 0.14004 0.51618 0.66016 0.0
C5369 C 0.13247 0.51769 0.69524 0.0
C5370 C 0.12872 0.52674 0.69257 0.0
C5371 C 0.13919 0.51367 0.68945 0.0
C5372 C 0.1475 0.51405 0.6642 0.0
H5373 H 0.19097 0.48901 0.65762 0.0
H5374 H 0.1766 0.4927 0.66677 0.0
H5375 H 0.15286 0.51047 0.65041 0.0
H5376 H 0.12885 0.53855 0.68172 0.0
H5377 H 0.14055 0.53153 0.67154 0.0
H5378 H 0.1614 0.51192 0.68799 0.0
C5379 C 0.17851 0.49724 0.66043 0.0
C5380 C 0.15486 0.51079 0.65861 0.0
C5381 C 0.18666 0.49504 0.65511 0.0
C5382 C 0.13161 0.53155 0.6839 0.0
C5383 C 0.13827 0.5275 0.67807 0.0
C5384 C 0.15936 0.5115 0.67978 0.0
C5385 C 0.17293 0.50522 0.65761 0.0
C5386 C 0.16467 0.50799 0.66354 0.0
C5387 C 0.14222 0.51856 0.68082 0.0
C5388 C 0.14972 0.51455 0.67485 0.0
H5389 H 0.18549 0.51308 0.63752 0.0
H5390 H 0.17156 0.51707 0.6469 0.0
H5391 H 0.1743 0.50633 0.67826 0.0
H5392 H 0.13031 0.5138 0.70187 0.0
H5393 H 0.14198 0.50671 0.69171 0.0
C5394 C 0.33189 0.50179 0.15502 0.0
C5395 C 0.32326 0.5005 0.16085 0.0
C5396 C 0.34119 0.49738 0.15774 0.0
C5397 C 0.35725 0.48718 0.17932 0.0
H5398 H 0.36595 0.47106 0.15853 0.0
C5399 C 0.38531 0.45806 0.18907 0.0
C5400 C 0.39311 0.457 0.18284 0.0
C5401 C 0.37769 0.46436 0.18648 0.0
C5402 C 0.36379 0.47568 0.16441 0.0
H5403 H 0.31778 0.49384 0.17425 0.0
H5404 H 0.33398 0.48615 0.17898 0.0
H5405 H 0.35108 0.48038 0.15385 0.0
H5406 H 0.39898 0.46152 0.16895 0.0
H5407 H 0.38585 0.47277 0.16452 0.0
H5408 H 0.3699 0.48249 0.1899 0.0
C5409 C 0.33357 0.49057 0.17232 0.0
C5410 C 0.35524 0.48101 0.16172 0.0
C5411 C 0.32424 0.49489 0.16955 0.0
C5412 C 0.39315 0.46235 0.17396 0.0
C5413 C 0.38555 0.46869 0.17139 0.0
C5414 C 0.36584 0.48192 0.182 0.0
C5415 C 0.34211 0.4917 0.16641 0.0
C5416 C 0.35176 0.48669 0.16916 0.0
C5417 C 0.37765 0.46971 0.17758 0.0
C5418 C 0.36911 0.47596 0.17461 0.0
H5419 H 0.33133 0.50601 0.14824 0.0
H5420 H 0.34768 0.49844 0.15308 0.0
H5421 H 0.35488 0.49163 0.1852 0.0
H5422 H 0.38495 0.45386 0.19585 0.0
H5423 H 0.37159 0.46476 0.19133 0.0
C5424 C 0.60681 0.80971 0.51809 0.0
C5425 C 0.61022 0.81615 0.51045 0.0
C5426 C 0.6056 0.8142 0.52735 0.0
C5427 C 0.60124 0.8388 0.53874 0.0
H5428 H 0.61188 0.82852 0.56442 0.0
C5429 C 0.6074 0.86295 0.57682 0.0
C5430 C 0.60454 0.85768 0.5853 0.0
C5431 C 0.6071 0.8573 0.56771 0.0
C5432 C 0.60871 0.83138 0.5573 0.0
H5433 H 0.61555 0.83236 0.50678 0.0
H5434 H 0.61346 0.84015 0.52286 0.0
H5435 H 0.61357 0.81972 0.54857 0.0
H5436 H 0.59894 0.84231 0.5908 0.0
H5437 H 0.59832 0.83237 0.57479 0.0
H5438 H 0.5965 0.85052 0.54742 0.0
C5439 C 0.61145 0.83164 0.52163 0.0
C5440 C 0.60969 0.82634 0.54822 0.0
C5441 C 0.61266 0.82716 0.5124 0.0
C5442 C 0.60113 0.84659 0.58438 0.0
C5443 C 0.60089 0.84091 0.57525 0.0
C5444 C 0.60027 0.84382 0.54779 0.0
C5445 C 0.60777 0.82522 0.52918 0.0
C5446 C 0.60614 0.83011 0.53884 0.0
C5447 C 0.60394 0.84621 0.56683 0.0
C5448 C 0.60415 0.84029 0.5572 0.0
H5449 H 0.60478 0.8012 0.5168 0.0
H5450 H 0.60269 0.80904 0.53298 0.0
H5451 H 0.59818 0.84176 0.53164 0.0
H5452 H 0.60994 0.87149 0.57725 0.0
H5453 H 0.60962 0.86164 0.56142 0.0
C5454 C 0.44195 0.38882 0.80456 0.0
C5455 C 0.4418 0.39817 0.79976 0.0
C5456 C 0.43891 0.38763 0.8141 0.0
C5457 C 0.43501 0.40237 0.83676 0.0
H5458 H 0.41296 0.37655 0.83959 0.0
C5459 C 0.41693 0.39442 0.87367 0.0
C5460 C 0.40499 0.39114 0.87212 0.0
C5461 C 0.4226 0.39455 0.86546 0.0
C5462 C 0.41915 0.38378 0.83893 0.0
H5463 H 0.4388 0.41376 0.80141 0.0
H5464 H 0.43345 0.41168 0.81805 0.0
H5465 H 0.42098 0.37854 0.82415 0.0
H5466 H 0.38967 0.38498 0.86088 0.0
H5467 H 0.39954 0.38513 0.84658 0.0
H5468 H 0.4329 0.40772 0.85143 0.0
C5469 C 0.43594 0.40527 0.81444 0.0
C5470 C 0.42382 0.38489 0.83013 0.0
C5471 C 0.43889 0.40643 0.80486 0.0
C5472 C 0.39888 0.38762 0.86228 0.0
C5473 C 0.40454 0.38763 0.85411 0.0
C5474 C 0.4304 0.40123 0.84561 0.0
C5475 C 0.43575 0.3958 0.8191 0.0
C5476 C 0.43165 0.39428 0.82886 0.0
C5477 C 0.41644 0.39124 0.85557 0.0
C5478 C 0.42226 0.392 0.8467 0.0
H5479 H 0.44407 0.38228 0.80079 0.0
H5480 H 0.43893 0.38027 0.81754 0.0
H5481 H 0.4411 0.40966 0.83604 0.0
H5482 H 0.42183 0.39721 0.88118 0.0
H5483 H 0.43179 0.3973 0.86682 0.0
C5484 C 0.85719 0.19604 0.98561 0.0
C5485 C 0.85073 0.20356 0.98377 0.0
C5486 C 0.85863 0.19186 0.99504 0.0
C5487 C 0.85753 0.19677 0.02196 0.0
H5488 H 0.85176 0.16635 0.02227 0.0
C5489 C 0.85208 0.17578 0.05847 0.0
C5490 C 0.85622 0.16674 0.05999 0.0
C5491 C 0.85217 0.18051 0.04931 0.0
C5492 C 0.8536 0.17487 0.02235 0.0
H5493 H 0.84084 0.21266 0.99056 0.0
H5494 H 0.84358 0.20554 0.00709 0.0
H5495 H 0.85076 0.17432 0.00612 0.0
H5496 H 0.86357 0.15542 0.05297 0.0
H5497 H 0.86407 0.16385 0.03713 0.0
H5498 H 0.86048 0.19737 0.03817 0.0
C5499 C 0.84754 0.2029 1.00119 0.0
C5500 C 0.85299 0.17943 0.01308 0.0
C5501 C 0.846 0.20701 0.99172 0.0
C5502 C 0.86044 0.16247 0.05212 0.0
C5503 C 0.86062 0.16725 0.04298 0.0
C5504 C 0.85826 0.19222 0.03124 0.0
C5505 C 0.85374 0.19519 1.00291 0.0
C5506 C 0.85485 0.19042 0.01278 0.0
C5507 C 0.85643 0.17631 0.04143 0.0
C5508 C 0.85619 0.1812 0.03156 0.0
H5509 H 0.86117 0.19336 0.97976 0.0
H5510 H 0.8636 0.18605 0.9962 0.0
H5511 H 0.85915 0.20528 0.02196 0.0
H5512 H 0.8486 0.17911 0.06435 0.0
H5513 H 0.84865 0.18733 0.04834 0.0
C5514 C 0.09618 0.62168 0.32276 0.0
C5515 C 0.09494 0.63149 0.31953 0.0
C5516 C 0.09833 0.62016 0.33308 0.0
C5517 C 0.09755 0.63135 0.3587 0.0
H5518 H 0.1195 0.61495 0.36711 0.0
C5519 C 0.11775 0.62835 0.40075 0.0
C5520 C 0.119 0.61831 0.40333 0.0
C5521 C 0.11391 0.63007 0.39066 0.0
C5522 C 0.11326 0.61945 0.36487 0.0
H5523 H 0.09476 0.64737 0.32456 0.0
H5524 H 0.09873 0.64479 0.34265 0.0
H5525 H 0.11462 0.61781 0.34929 0.0
H5526 H 0.11647 0.60208 0.39748 0.0
H5527 H 0.10989 0.6051 0.37993 0.0
H5528 H 0.09641 0.6331 0.37443 0.0
C5529 C 0.09786 0.63821 0.3372 0.0
C5530 C 0.11044 0.62108 0.35465 0.0
C5531 C 0.09562 0.6397 0.32684 0.0
C5532 C 0.11587 0.60996 0.3957 0.0
C5533 C 0.11209 0.61168 0.38565 0.0
C5534 C 0.10044 0.62977 0.36898 0.0
C5535 C 0.0994 0.62846 0.34043 0.0
C5536 C 0.10247 0.62696 0.3514 0.0
C5537 C 0.11128 0.62179 0.38298 0.0
C5538 C 0.10825 0.62371 0.37215 0.0
H5539 H 0.09548 0.61515 0.31729 0.0
H5540 H 0.09918 0.61247 0.33529 0.0
H5541 H 0.09131 0.63585 0.35646 0.0
H5542 H 0.12014 0.63495 0.40645 0.0
H5543 H 0.11341 0.63795 0.38881 0.0
C5544 C 0.60789 0.15869 0.02521 0.0
C5545 C 0.6037 0.15015 0.03071 0.0
C5546 C 0.60971 0.15695 0.01535 0.0
C5547 C 0.60277 0.13651 0.99363 0.0
H5548 H 0.63031 0.15324 0.9863 0.0
C5549 C 0.62109 0.12447 0.95946 0.0
C5550 C 0.62487 0.13241 0.95319 0.0
C5551 C 0.61791 0.12701 0.96856 0.0
C5552 C 0.62252 0.14859 0.98819 0.0
H5553 H 0.59774 0.13311 0.02997 0.0
H5554 H 0.60126 0.13007 0.01297 0.0
H5555 H 0.62565 0.15703 1.00276 0.0
H5556 H 0.62876 0.14925 0.95171 0.0
H5557 H 0.62325 0.15373 0.9677 0.0
H5558 H 0.59983 0.1279 0.97914 0.0
C5559 C 0.60301 0.13813 0.0162 0.0
C5560 C 0.61982 0.15077 0.99762 0.0
C5561 C 0.60114 0.13986 0.02602 0.0
C5562 C 0.6257 0.14297 0.95633 0.0
C5563 C 0.62262 0.14553 0.96549 0.0
C5564 C 0.60552 0.13428 0.98424 0.0
C5565 C 0.60742 0.14664 0.01076 0.0
C5566 C 0.60995 0.1447 1.0005 0.0
C5567 C 0.61864 0.13757 0.97168 0.0
C5568 C 0.61547 0.14024 0.98146 0.0
H5569 H 0.61003 0.16671 0.02861 0.0
H5570 H 0.61296 0.16371 0.01134 0.0
H5571 H 0.59499 0.13181 0.9955 0.0
H5572 H 0.62062 0.1163 0.95731 0.0
H5573 H 0.61507 0.12073 0.97326 0.0
C5574 C 0.03575 0.37162 0.18578 0.0
C5575 C 0.04111 0.3797 0.19349 0.0
C5576 C 0.04017 0.37095 0.1769 0.0
C5577 C 0.05935 0.38647 0.16141 0.0
H5578 H 0.06102 0.35899 0.1509 0.0
C5579 C 0.08483 0.38173 0.12989 0.0
C5580 C 0.07987 0.37354 0.12225 0.0
C5581 C 0.08003 0.38242 0.13854 0.0
C5582 C 0.0605 0.36672 0.15366 0.0
H5583 H 0.0551 0.39359 0.19774 0.0
H5584 H 0.06287 0.39234 0.18234 0.0
H5585 H 0.05248 0.36045 0.16583 0.0
H5586 H 0.06628 0.35942 0.11778 0.0
H5587 H 0.05776 0.36065 0.13282 0.0
H5588 H 0.06738 0.39274 0.14925 0.0
C5589 C 0.05523 0.38655 0.18312 0.0
C5590 C 0.05559 0.36755 0.16222 0.0
C5591 C 0.05084 0.38721 0.19201 0.0
C5592 C 0.0702 0.36587 0.12353 0.0
C5593 C 0.06538 0.36655 0.13218 0.0
C5594 C 0.06425 0.38564 0.15284 0.0
C5595 C 0.05001 0.37836 0.1755 0.0
C5596 C 0.05498 0.37745 0.16622 0.0
C5597 C 0.07019 0.37488 0.13976 0.0
C5598 C 0.06492 0.37575 0.14887 0.0
H5599 H 0.0283 0.36566 0.18671 0.0
H5600 H 0.03586 0.36461 0.17113 0.0
H5601 H 0.05887 0.3942 0.1642 0.0
H5602 H 0.0924 0.38765 0.12912 0.0
H5603 H 0.08409 0.38883 0.14431 0.0
C5604 C 0.9275 0.868 0.5007 0.0
C5605 C 0.92086 0.85881 0.50383 0.0
C5606 C 0.92568 0.87036 0.49057 0.0
C5607 C 0.91276 0.8586 0.46449 0.0
H5608 H 0.91246 0.88744 0.45901 0.0
C5609 C 0.90912 0.87224 0.42386 0.0
C5610 C 0.9016 0.87869 0.42123 0.0
C5611 C 0.91203 0.87003 0.43395 0.0
C5612 C 0.91247 0.87935 0.46041 0.0
H5613 H 0.90718 0.84485 0.49868 0.0
H5614 H 0.90405 0.84896 0.48099 0.0
H5615 H 0.91635 0.88291 0.47651 0.0
H5616 H 0.89135 0.88802 0.42702 0.0
H5617 H 0.89641 0.88419 0.4447 0.0
H5618 H 0.90866 0.855 0.4484 0.0
C5619 C 0.91073 0.85429 0.48637 0.0
C5620 C 0.91482 0.87677 0.47044 0.0
C5621 C 0.91254 0.85192 0.49652 0.0
C5622 C 0.89721 0.88306 0.42889 0.0
C5623 C 0.90014 0.88089 0.43899 0.0
C5624 C 0.91046 0.86119 0.45446 0.0
C5625 C 0.9172 0.86359 0.4833 0.0
C5626 C 0.91495 0.86636 0.47261 0.0
C5627 C 0.9075 0.87426 0.44163 0.0
C5628 C 0.91023 0.87158 0.4523 0.0
H5629 H 0.93413 0.87338 0.50608 0.0
H5630 H 0.93096 0.8775 0.48842 0.0
H5631 H 0.91289 0.85053 0.4659 0.0
H5632 H 0.91264 0.86879 0.41809 0.0
H5633 H 0.91784 0.86502 0.43574 0.0
C5634 C 0.40784 0.63046 0.67457 0.0
C5635 C 0.41977 0.63269 0.67729 0.0
C5636 C 0.40264 0.63147 0.66469 0.0
C5637 C 0.40755 0.63128 0.63845 0.0
H5638 H 0.37981 0.64099 0.63345 0.0
C5639 C 0.37038 0.63702 0.60316 0.0
C5640 C 0.36828 0.62712 0.59778 0.0
C5641 C 0.37819 0.63947 0.61233 0.0
C5642 C 0.38765 0.63843 0.63468 0.0
H5643 H 0.43557 0.63799 0.67178 0.0
H5644 H 0.42645 0.63972 0.65447 0.0
H5645 H 0.39045 0.64225 0.6507 0.0
H5646 H 0.37324 0.6123 0.59744 0.0
H5647 H 0.3867 0.61647 0.61344 0.0
H5648 H 0.40469 0.62738 0.62242 0.0
C5649 C 0.42114 0.63708 0.65999 0.0
C5650 C 0.39367 0.63902 0.64459 0.0
C5651 C 0.42636 0.63607 0.6699 0.0
C5652 C 0.37458 0.61995 0.60148 0.0
C5653 C 0.38239 0.62239 0.6106 0.0
C5654 C 0.40152 0.63069 0.62853 0.0
C5655 C 0.40921 0.63474 0.65726 0.0
C5656 C 0.40355 0.63522 0.64662 0.0
C5657 C 0.38411 0.63208 0.61626 0.0
C5658 C 0.39136 0.63403 0.62655 0.0
H5659 H 0.40249 0.62765 0.68001 0.0
H5660 H 0.39342 0.62939 0.6628 0.0
H5661 H 0.41509 0.62825 0.63974 0.0
H5662 H 0.36563 0.6427 0.6005 0.0
H5663 H 0.37942 0.64705 0.61645 0.0
C5664 C 0.49237 0.6114 0.77162 0.0
C5665 C 0.48239 0.60455 0.76614 0.0
C5666 C 0.50142 0.60746 0.77625 0.0
C5667 C 0.5137 0.58414 0.77714 0.0
H5668 H 0.52699 0.59606 0.80464 0.0
C5669 C 0.54451 0.56636 0.80545 0.0
C5670 C 0.55328 0.57359 0.81207 0.0
C5671 C 0.5363 0.56992 0.79886 0.0
C5672 C 0.52351 0.59273 0.79692 0.0
H5673 H 0.47424 0.58821 0.76094 0.0
H5674 H 0.49006 0.5813 0.76909 0.0
H5675 H 0.51196 0.60269 0.79493 0.0
H5676 H 0.56086 0.59019 0.81645 0.0
H5677 H 0.54672 0.59639 0.80491 0.0
H5678 H 0.52528 0.57409 0.77925 0.0
C5679 C 0.49092 0.58974 0.76972 0.0
C5680 C 0.51487 0.59655 0.79135 0.0
C5681 C 0.48185 0.5937 0.76506 0.0
C5682 C 0.55405 0.58443 0.81158 0.0
C5683 C 0.54593 0.58798 0.80499 0.0
C5684 C 0.5224 0.58031 0.78275 0.0
C5685 C 0.50071 0.59656 0.77556 0.0
C5686 C 0.50991 0.59236 0.78137 0.0
C5687 C 0.53676 0.58077 0.79876 0.0
C5688 C 0.52745 0.58463 0.79269 0.0
H5689 H 0.49315 0.61982 0.77242 0.0
H5690 H 0.50895 0.61296 0.78049 0.0
H5691 H 0.51008 0.58078 0.76946 0.0
H5692 H 0.54373 0.55795 0.8057 0.0
H5693 H 0.52933 0.56416 0.79418 0.0
C5694 C 0.60602 0.23207 0.11205 0.0
C5695 C 0.60281 0.23106 0.10142 0.0
C5696 C 0.60714 0.24165 0.11757 0.0
C5697 C 0.59871 0.26702 0.11568 0.0
H5698 H 0.62328 0.27639 0.13884 0.0
C5699 C 0.60963 0.30893 0.13566 0.0
C5700 C 0.61178 0.30977 0.14631 0.0
C5701 C 0.60874 0.29935 0.13024 0.0
C5702 C 0.61632 0.27383 0.13244 0.0
H5703 H 0.59816 0.23936 0.08828 0.0
H5704 H 0.60044 0.25613 0.09787 0.0
H5705 H 0.62133 0.25966 0.12922 0.0
H5706 H 0.61438 0.30123 0.15967 0.0
H5707 H 0.61295 0.28445 0.1502 0.0
H5708 H 0.59379 0.28126 0.11885 0.0
C5709 C 0.60193 0.24947 0.10197 0.0
C5710 C 0.61518 0.26423 0.12694 0.0
C5711 C 0.60077 0.23988 0.09645 0.0
C5712 C 0.61295 0.30083 0.15145 0.0
C5713 C 0.61214 0.29125 0.14604 0.0
C5714 C 0.5999 0.27664 0.12115 0.0
C5715 C 0.60513 0.25048 0.1126 0.0
C5716 C 0.60635 0.2607 0.11848 0.0
C5717 C 0.60994 0.2904 0.13537 0.0
C5718 C 0.60871 0.28016 0.12958 0.0
H5719 H 0.60781 0.22549 0.11613 0.0
H5720 H 0.60948 0.24209 0.12576 0.0
H5721 H 0.59169 0.26447 0.10934 0.0
H5722 H 0.60853 0.31567 0.13151 0.0
H5723 H 0.60713 0.29896 0.12203 0.0
C5724 C 0.94748 0.40381 0.24303 0.0
C5725 C 0.95904 0.4077 0.24741 0.0
C5726 C 0.93905 0.40708 0.24719 0.0
C5727 C 0.93441 0.42841 0.26352 0.0
H5728 H 0.90739 0.40756 0.26692 0.0
C5729 C 0.9018 0.43882 0.28593 0.0
C5730 C 0.89022 0.43428 0.28212 0.0
C5731 C 0.9102 0.43547 0.28182 0.0
C5732 C 0.91481 0.41352 0.26592 0.0
H5733 H 0.97082 0.41828 0.25943 0.0
H5734 H 0.95612 0.42394 0.26669 0.0
H5735 H 0.92191 0.40208 0.25924 0.0
H5736 H 0.87833 0.42283 0.27092 0.0
H5737 H 0.89295 0.41707 0.26362 0.0
H5738 H 0.9273 0.43988 0.27008 0.0
C5739 C 0.95357 0.41838 0.26004 0.0
C5740 C 0.92314 0.41036 0.26152 0.0
C5741 C 0.96198 0.41505 0.25594 0.0
C5742 C 0.8872 0.42636 0.27409 0.0
C5743 C 0.89559 0.42304 0.26995 0.0
C5744 C 0.92606 0.43158 0.26787 0.0
C5745 C 0.94199 0.41439 0.25575 0.0
C5746 C 0.93305 0.41777 0.26028 0.0
C5747 C 0.90721 0.42757 0.27373 0.0
C5748 C 0.91615 0.42417 0.26915 0.0
H5749 H 0.94493 0.39808 0.23651 0.0
H5750 H 0.93022 0.40394 0.24365 0.0
H5751 H 0.94188 0.43434 0.26255 0.0
H5752 H 0.90433 0.44501 0.29206 0.0
H5753 H 0.91905 0.43905 0.28501 0.0
C5754 C 0.92675 0.76965 0.56839 0.0
C5755 C 0.9224 0.77791 0.57177 0.0
C5756 C 0.92601 0.76046 0.57353 0.0
C5757 C 0.92222 0.75027 0.5984 0.0
H5758 H 0.91455 0.72289 0.58333 0.0
C5759 C 0.9248 0.71205 0.61798 0.0
C5760 C 0.91608 0.70297 0.61444 0.0
C5761 C 0.92565 0.72117 0.61274 0.0
C5762 C 0.91663 0.73047 0.58765 0.0
H5763 H 0.9136 0.78282 0.58307 0.0
H5764 H 0.91235 0.76686 0.59203 0.0
H5765 H 0.91572 0.73878 0.5742 0.0
H5766 H 0.90113 0.69639 0.60296 0.0
H5767 H 0.90254 0.71233 0.59379 0.0
H5768 H 0.92293 0.74196 0.61184 0.0
C5769 C 0.91651 0.76755 0.58551 0.0
C5770 C 0.91743 0.73959 0.58242 0.0
C5771 C 0.91723 0.77672 0.58037 0.0
C5772 C 0.90806 0.70324 0.60571 0.0
C5773 C 0.90891 0.71235 0.60046 0.0
C5774 C 0.92145 0.74116 0.60363 0.0
C5775 C 0.92092 0.75932 0.58218 0.0
C5776 C 0.9202 0.7496 0.58773 0.0
C5777 C 0.91773 0.72143 0.6039 0.0
C5778 C 0.91862 0.73114 0.59832 0.0
H5779 H 0.93091 0.77035 0.56187 0.0
H5780 H 0.92962 0.75434 0.57084 0.0
H5781 H 0.9245 0.75786 0.60273 0.0
H5782 H 0.93099 0.71206 0.62478 0.0
H5783 H 0.93259 0.72799 0.61557 0.0
C5784 C 0.5386 0.41915 0.74749 0.0
C5785 C 0.5302 0.4247 0.74474 0.0
C5786 C 0.54903 0.42203 0.74424 0.0
C5787 C 0.56307 0.43692 0.72497 0.0
H5788 H 0.59075 0.4358 0.74326 0.0
C5789 C 0.60812 0.45423 0.71649 0.0
C5790 C 0.6161 0.44816 0.71872 0.0
C5791 C 0.59754 0.45132 0.71949 0.0
C5792 C 0.58308 0.43606 0.73803 0.0
H5793 H 0.52624 0.43774 0.73656 0.0
H5794 H 0.5445 0.44285 0.731 0.0
H5795 H 0.57256 0.43097 0.74893 0.0
H5796 H 0.61927 0.43421 0.72566 0.0
H5797 H 0.6008 0.42911 0.73094 0.0
H5798 H 0.57367 0.44213 0.71412 0.0
C5799 C 0.54295 0.43613 0.73549 0.0
C5800 C 0.57264 0.43327 0.74127 0.0
C5801 C 0.53249 0.43322 0.73869 0.0
C5802 C 0.61328 0.43906 0.72391 0.0
C5803 C 0.60274 0.43618 0.72696 0.0
C5804 C 0.57353 0.43976 0.72176 0.0
C5805 C 0.55135 0.43056 0.73821 0.0
C5806 C 0.56249 0.43363 0.73478 0.0
C5807 C 0.59477 0.4423 0.72482 0.0
C5808 C 0.58365 0.43933 0.72824 0.0
H5809 H 0.53704 0.41246 0.75201 0.0
H5810 H 0.55522 0.41744 0.74633 0.0
H5811 H 0.55542 0.43713 0.71971 0.0
H5812 H 0.61012 0.46128 0.71249 0.0
H5813 H 0.59162 0.45625 0.7178 0.0
C5814 C 0.80841 0.24959 0.88564 0.0
C5815 C 0.81545 0.25139 0.89528 0.0
C5816 C 0.8031 0.25727 0.8817 0.0
C5817 C 0.80617 0.28595 0.88389 0.0
H5818 H 0.77649 0.27849 0.8663 0.0
C5819 C 0.78739 0.31727 0.86273 0.0
C5820 C 0.78353 0.31457 0.85228 0.0
C5821 C 0.78957 0.3096 0.86925 0.0
C5822 C 0.78479 0.2807 0.8712 0.0
H5823 H 0.82218 0.26261 0.90845 0.0
H5824 H 0.81272 0.276 0.90164 0.0
H5825 H 0.78357 0.26495 0.87554 0.0
H5826 H 0.77827 0.30164 0.84055 0.0
H5827 H 0.78208 0.28826 0.8519 0.0
H5828 H 0.80749 0.30164 0.87936 0.0
C5829 C 0.81144 0.26866 0.89707 0.0
C5830 C 0.78886 0.27294 0.87648 0.0
C5831 C 0.81677 0.26096 0.90102 0.0
C5832 C 0.78132 0.30396 0.84857 0.0
C5833 C 0.78342 0.29629 0.85508 0.0
C5834 C 0.80207 0.29371 0.87864 0.0
C5835 C 0.80465 0.26696 0.88731 0.0
C5836 C 0.79972 0.27542 0.88269 0.0
C5837 C 0.78784 0.29906 0.86546 0.0
C5838 C 0.79145 0.29112 0.87205 0.0
H5839 H 0.80707 0.24224 0.88107 0.0
H5840 H 0.79804 0.25572 0.87411 0.0
H5841 H 0.81462 0.28813 0.8885 0.0
H5842 H 0.78922 0.3254 0.86579 0.0
H5843 H 0.79287 0.31195 0.87723 0.0
C5844 C 1.0027 0.62095 0.23188 0.0
C5845 C 1.00549 0.62682 0.24135 0.0
C5846 C 0.99178 0.61924 0.22602 0.0
C5847 C 0.96214 0.61895 0.22795 0.0
H5848 H 0.95825 0.62059 0.19881 0.0
C5849 C 0.91804 0.60599 0.20177 0.0
C5850 C 0.91567 0.61254 0.19408 0.0
C5851 C 0.92905 0.60764 0.20744 0.0
C5852 C 0.95919 0.62017 0.20695 0.0
H5853 H 0.99905 0.63568 0.25198 0.0
H5854 H 0.98001 0.63267 0.24176 0.0
H5855 H 0.97738 0.62395 0.20895 0.0
H5856 H 0.9229 0.62565 0.18593 0.0
H5857 H 0.94216 0.62867 0.1959 0.0
H5858 H 0.94397 0.61535 0.22598 0.0
C5859 C 0.98621 0.62926 0.23894 0.0
C5860 C 0.97015 0.62198 0.21274 0.0
C5861 C 0.99713 0.63098 0.2448 0.0
C5862 C 0.92454 0.62059 0.19194 0.0
C5863 C 0.93555 0.62225 0.19759 0.0
C5864 C 0.95119 0.61712 0.22216 0.0
C5865 C 0.9834 0.62334 0.22949 0.0
C5866 C 0.97176 0.62141 0.22332 0.0
C5867 C 0.93792 0.61583 0.20545 0.0
C5868 C 0.94958 0.61771 0.21159 0.0
H5869 H 0.00888 0.61751 0.22907 0.0
H5870 H 0.98985 0.61452 0.21884 0.0
H5871 H 0.96307 0.61834 0.23606 0.0
H5872 H 0.91137 0.5996 0.20342 0.0
H5873 H 0.93063 0.60244 0.21331 0.0
C5874 C 0.65296 0.74114 0.44581 0.0
C5875 C 0.64992 0.73991 0.45541 0.0
C5876 C 0.65702 0.73344 0.44116 0.0
C5877 C 0.6698 0.71085 0.4456 0.0
H5878 H 0.65584 0.70232 0.41745 0.0
C5879 C 0.67591 0.67413 0.42351 0.0
C5880 C 0.67609 0.67469 0.4131 0.0
C5881 C 0.67364 0.68238 0.42912 0.0
C5882 C 0.65999 0.70471 0.42525 0.0
H5883 H 0.64918 0.72974 0.4678 0.0
H5884 H 0.6564 0.71631 0.45969 0.0
H5885 H 0.65035 0.71616 0.42646 0.0
H5886 H 0.67474 0.68452 0.40054 0.0
H5887 H 0.67109 0.69899 0.41033 0.0
H5888 H 0.67953 0.69941 0.44435 0.0
C5889 C 0.65562 0.72327 0.45579 0.0
C5890 C 0.6568 0.71263 0.43043 0.0
C5891 C 0.65149 0.73097 0.46043 0.0
C5892 C 0.67446 0.68382 0.40852 0.0
C5893 C 0.67231 0.69208 0.41413 0.0
C5894 C 0.67308 0.70294 0.44038 0.0
C5895 C 0.65821 0.72434 0.44601 0.0
C5896 C 0.66168 0.71583 0.44065 0.0
C5897 C 0.6716 0.69138 0.42444 0.0
C5898 C 0.66824 0.6998 0.43011 0.0
H5899 H 0.65215 0.74804 0.44182 0.0
H5900 H 0.65916 0.7346 0.43372 0.0
H5901 H 0.67376 0.7132 0.45346 0.0
H5902 H 0.67708 0.66715 0.42721 0.0
H5903 H 0.67307 0.68151 0.43702 0.0
C5904 C 0.82176 0.5868 0.61053 0.0
C5905 C 0.81627 0.58222 0.61824 0.0
C5906 C 0.82848 0.59716 0.612 0.0
C5907 C 0.84502 0.61689 0.6327 0.0
H5908 H 0.8472 0.63597 0.6113 0.0
C5909 C 0.87416 0.65857 0.64055 0.0
C5910 C 0.8813 0.66177 0.63353 0.0
C5911 C 0.86498 0.64973 0.6382 0.0
C5912 C 0.84671 0.63071 0.61733 0.0
H5913 H 0.81332 0.58511 0.63345 0.0
H5914 H 0.82477 0.60323 0.63592 0.0
H5915 H 0.83331 0.61887 0.60814 0.0
H5916 H 0.88407 0.65856 0.61834 0.0
H5917 H 0.86801 0.64302 0.61421 0.0
H5918 H 0.85848 0.62859 0.64185 0.0
C5919 C 0.82403 0.59875 0.62878 0.0
C5920 C 0.83877 0.62091 0.61552 0.0
C5921 C 0.81734 0.58839 0.62732 0.0
C5922 C 0.87867 0.6563 0.62387 0.0
C5923 C 0.86948 0.6474 0.62152 0.0
C5924 C 0.85291 0.62666 0.63451 0.0
C5925 C 0.82987 0.6032 0.62122 0.0
C5926 C 0.83787 0.61386 0.62318 0.0
C5927 C 0.86272 0.64385 0.62877 0.0
C5928 C 0.8539 0.63368 0.62684 0.0
H5929 H 0.82098 0.58233 0.60338 0.0
H5930 H 0.8329 0.6003 0.60604 0.0
H5931 H 0.84475 0.61158 0.63871 0.0
H5932 H 0.87586 0.66276 0.64798 0.0
H5933 H 0.85978 0.64736 0.64386 0.0
C5934 C 0.25752 0.9413 0.34035 0.0
C5935 C 0.25199 0.94482 0.34765 0.0
C5936 C 0.25844 0.93086 0.33971 0.0
C5937 C 0.25818 0.90792 0.35486 0.0
H5938 H 0.25443 0.89258 0.32872 0.0
C5939 C 0.25855 0.86382 0.35093 0.0
C5940 C 0.26412 0.86068 0.34349 0.0
C5941 C 0.25677 0.87398 0.35143 0.0
C5942 C 0.25563 0.89679 0.33608 0.0
H5943 H 0.24302 0.9401 0.35994 0.0
H5944 H 0.24452 0.92183 0.35874 0.0
H5945 H 0.25158 0.9104 0.32948 0.0
H5946 H 0.27256 0.86572 0.331 0.0
H5947 H 0.26958 0.88355 0.33191 0.0
H5948 H 0.26232 0.89436 0.36146 0.0
C5949 C 0.24822 0.92718 0.35357 0.0
C5950 C 0.25398 0.907 0.33651 0.0
C5951 C 0.24725 0.93762 0.35419 0.0
C5952 C 0.26809 0.86794 0.3367 0.0
C5953 C 0.26633 0.87811 0.3372 0.0
C5954 C 0.25985 0.89772 0.35442 0.0
C5955 C 0.25389 0.9237 0.34636 0.0
C5956 C 0.25528 0.91271 0.34591 0.0
C5957 C 0.26059 0.88124 0.34455 0.0
C5958 C 0.25864 0.89204 0.34503 0.0
H5959 H 0.26115 0.94662 0.33513 0.0
H5960 H 0.26295 0.92847 0.33413 0.0
H5961 H 0.25941 0.91215 0.36221 0.0
H5962 H 0.25551 0.85837 0.35631 0.0
H5963 H 0.25225 0.87609 0.35713 0.0
C5964 C 0.27962 0.03471 0.66428 0.0
C5965 C 0.27306 0.03062 0.65471 0.0
C5966 C 0.29124 0.03952 0.66528 0.0
C5967 C 0.31163 0.05304 0.65002 0.0
H5968 H 0.33445 0.05117 0.67325 0.0
C5969 C 0.35837 0.07422 0.65199 0.0
C5970 C 0.36398 0.08011 0.66116 0.0
C5971 C 0.34797 0.06688 0.65147 0.0
C5972 C 0.32815 0.05181 0.66675 0.0
H5973 H 0.27365 0.02776 0.63883 0.0
H5974 H 0.2939 0.03602 0.64059 0.0
H5975 H 0.31488 0.04062 0.67183 0.0
H5976 H 0.36337 0.0826 0.67709 0.0
H5977 H 0.34511 0.06981 0.67618 0.0
H5978 H 0.32474 0.06431 0.64499 0.0
C5979 C 0.29004 0.03577 0.64727 0.0
C5980 C 0.31695 0.04577 0.66593 0.0
C5981 C 0.27845 0.03103 0.64626 0.0
C5982 C 0.35926 0.07812 0.66993 0.0
C5983 C 0.34881 0.07079 0.6694 0.0
C5984 C 0.32278 0.05904 0.65083 0.0
C5985 C 0.29653 0.0403 0.65675 0.0
C5986 C 0.30855 0.04635 0.65756 0.0
C5987 C 0.34291 0.06529 0.6601 0.0
C5988 C 0.33118 0.05852 0.65919 0.0
H5989 H 0.27568 0.03458 0.67091 0.0
H5990 H 0.29595 0.04301 0.67268 0.0
H5991 H 0.30534 0.05388 0.6436 0.0
H5992 H 0.36191 0.07545 0.64515 0.0
H5993 H 0.34377 0.0626 0.64425 0.0
C5994 C 0.23603 0.0658 0.88782 0.0
C5995 C 0.24769 0.06659 0.89117 0.0
C5996 C 0.2314 0.07439 0.88931 0.0
C5997 C 0.23638 0.09919 0.90523 0.0
H5998 H 0.21493 0.10616 0.88345 0.0
C5999 C 0.22093 0.13752 0.90753 0.0
C6000 C 0.20951 0.137 0.9034 0.0
C6001 C 0.22552 0.12886 0.90619 0.0
C6002 C 0.22078 0.10425 0.88967 0.0
H6003 H 0.26363 0.07704 0.89878 0.0
H6004 H 0.25555 0.09209 0.90134 0.0
H6005 H 0.22308 0.09125 0.88079 0.0
H6006 H 0.194 0.12716 0.89442 0.0
H6007 H 0.20189 0.11191 0.8923 0.0
H6008 H 0.23401 0.11211 0.91416 0.0
C6009 C 0.24998 0.08478 0.89759 0.0
C6010 C 0.22548 0.09571 0.88813 0.0
C6011 C 0.25463 0.0762 0.89604 0.0
C6012 C 0.20279 0.1277 0.89782 0.0
C6013 C 0.20735 0.11901 0.89652 0.0
C6014 C 0.23163 0.1077 0.9068 0.0
C6015 C 0.23831 0.08398 0.89424 0.0
C6016 C 0.23334 0.09308 0.89589 0.0
C6017 C 0.2188 0.1195 0.90065 0.0
C6018 C 0.22377 0.11035 0.89903 0.0
H6019 H 0.23047 0.05853 0.88396 0.0
H6020 H 0.22236 0.07349 0.88671 0.0
H6021 H 0.24229 0.09728 0.91141 0.0
H6022 H 0.22636 0.14468 0.91169 0.0
H6023 H 0.23442 0.1296 0.90932 0.0
C6024 C 0.72228 0.51632 0.6576 0.0
C6025 C 0.73269 0.51348 0.65812 0.0
C6026 C 0.71387 0.51073 0.66254 0.0
C6027 C 0.7046 0.48461 0.67197 0.0
H6028 H 0.68548 0.49778 0.68565 0.0
C6029 C 0.67226 0.45999 0.6931 0.0
C6030 C 0.66131 0.4618 0.69149 0.0
C6031 C 0.68128 0.46707 0.6901 0.0
C6032 C 0.6907 0.49399 0.68179 0.0
H6033 H 0.74267 0.50296 0.66471 0.0
H6034 H 0.72805 0.49325 0.67332 0.0
H6035 H 0.70069 0.50877 0.67835 0.0
H6036 H 0.6513 0.47265 0.68585 0.0
H6037 H 0.66707 0.48502 0.68048 0.0
H6038 H 0.69461 0.46985 0.67522 0.0
C6039 C 0.72627 0.49963 0.66891 0.0
C6040 C 0.69941 0.50028 0.67761 0.0
C6041 C 0.73465 0.50519 0.66398 0.0
C6042 C 0.65967 0.4711 0.68724 0.0
C6043 C 0.66871 0.47818 0.68417 0.0
C6044 C 0.69593 0.47834 0.67612 0.0
C6045 C 0.71569 0.50219 0.66811 0.0
C6046 C 0.70648 0.49565 0.67268 0.0
C6047 C 0.67956 0.4761 0.68534 0.0
C6048 C 0.68888 0.48294 0.68111 0.0
H6049 H 0.72049 0.52262 0.65309 0.0
H6050 H 0.70578 0.51285 0.6617 0.0
H6051 H 0.70971 0.48076 0.66802 0.0
H6052 H 0.67381 0.45298 0.69653 0.0
H6053 H 0.68958 0.46536 0.69135 0.0
C6054 C 0.69741 0.43236 0.15145 0.0
C6055 C 0.69284 0.44108 0.1529 0.0
C6056 C 0.69146 0.42219 0.15297 0.0
C6057 C 0.66893 0.40849 0.16624 0.0
H6058 H 0.66675 0.38432 0.14771 0.0
C6059 C 0.6362 0.36958 0.16681 0.0
C6060 C 0.63984 0.36019 0.16645 0.0
C6061 C 0.64315 0.37908 0.16489 0.0
C6062 C 0.6674 0.39098 0.153 0.0
H6063 H 0.67843 0.44591 0.15713 0.0
H6064 H 0.66799 0.42822 0.15953 0.0
H6065 H 0.67808 0.4017 0.14492 0.0
H6066 H 0.65347 0.35334 0.1634 0.0
H6067 H 0.66568 0.37006 0.15995 0.0
H6068 H 0.65819 0.39787 0.17425 0.0
C6069 C 0.67623 0.42924 0.15733 0.0
C6070 C 0.67389 0.40092 0.15142 0.0
C6071 C 0.68215 0.43937 0.15582 0.0
C6072 C 0.65043 0.36045 0.16371 0.0
C6073 C 0.65741 0.37001 0.16175 0.0
C6074 C 0.66246 0.3986 0.1678 0.0
C6075 C 0.68084 0.42053 0.15601 0.0
C6076 C 0.67457 0.40982 0.15794 0.0
C6077 C 0.65391 0.37945 0.16252 0.0
C6078 C 0.66146 0.38976 0.16112 0.0
H6079 H 0.70558 0.43339 0.14911 0.0
H6080 H 0.69527 0.41565 0.15193 0.0
H6081 H 0.66951 0.41511 0.17155 0.0
H6082 H 0.62796 0.3696 0.16863 0.0
H6083 H 0.64009 0.38617 0.16529 0.0
C6084 C 0.3058 0.98994 0.85409 0.0
C6085 C 0.30252 0.98521 0.86272 0.0
C6086 C 0.31174 0.98522 0.84799 0.0
C6087 C 0.31628 0.95912 0.84146 0.0
H6088 H 0.3413 0.97477 0.82978 0.0
C6089 C 0.33534 0.93809 0.81336 0.0
C6090 C 0.34727 0.94012 0.81507 0.0
C6091 C 0.32998 0.94464 0.8181 0.0
C6092 C 0.33434 0.9703 0.83301 0.0
H6093 H 0.30306 0.97184 0.87172 0.0
H6094 H 0.31358 0.96379 0.86129 0.0
H6095 H 0.33215 0.98414 0.84071 0.0
H6096 H 0.36296 0.95091 0.82266 0.0
H6097 H 0.35357 0.96236 0.83109 0.0
H6098 H 0.31857 0.94527 0.83406 0.0
C6099 C 0.31146 0.97108 0.85915 0.0
C6100 C 0.32904 0.97567 0.8392 0.0
C6101 C 0.30556 0.97579 0.86522 0.0
C6102 C 0.35374 0.94921 0.82116 0.0
C6103 C 0.34836 0.95575 0.82599 0.0
C6104 C 0.32153 0.95378 0.83529 0.0
C6105 C 0.31447 0.97563 0.85037 0.0
C6106 C 0.32001 0.97012 0.84357 0.0
C6107 C 0.33641 0.95334 0.82476 0.0
C6108 C 0.33065 0.95927 0.831 0.0
H6109 H 0.30369 0.99725 0.85199 0.0
H6110 H 0.31389 0.98891 0.84127 0.0
H6111 H 0.30925 0.9546 0.84458 0.0
H6112 H 0.33015 0.93121 0.80858 0.0
H6113 H 0.32076 0.9427 0.81678 0.0
C6114 C 0.17373 0.01667 0.33321 0.0
C6115 C 0.17478 0.00924 0.34039 0.0
C6116 C 0.16419 0.02089 0.33167 0.0
C6117 C 0.13441 0.01591 0.33583 0.0
H6118 H 0.13788 0.04537 0.33068 0.0
C6119 C 0.09746 0.03638 0.33435 0.0
C6120 C 0.09595 0.04289 0.32639 0.0
C6121 C 0.10721 0.0325 0.33628 0.0
C6122 C 0.13677 0.0371 0.33202 0.0
H6123 H 0.16672 1.00057 0.35172 0.0
H6124 H 0.15014 0.00801 0.34914 0.0
H6125 H 0.15462 0.03816 0.3337 0.0
H6126 H 0.10338 0.05043 0.31422 0.0
H6127 H 0.1205 0.0437 0.31763 0.0
H6128 H 0.11656 0.01489 0.33422 0.0
C6129 C 0.15657 0.01042 0.34453 0.0
C6130 C 0.14636 0.03296 0.33374 0.0
C6131 C 0.16609 0.00616 0.34603 0.0
C6132 C 0.10441 0.04551 0.32046 0.0
C6133 C 0.1142 0.04168 0.32243 0.0
C6134 C 0.12484 0.02007 0.33417 0.0
C6135 C 0.15549 0.01783 0.33731 0.0
C6136 C 0.1453 0.02229 0.33563 0.0
C6137 C 0.11567 0.03507 0.33032 0.0
C6138 C 0.1259 0.03071 0.33222 0.0
H6139 H 0.1802 0.01909 0.32864 0.0
H6140 H 0.16357 0.02642 0.32592 0.0
H6141 H 0.13323 0.00762 0.33709 0.0
H6142 H 0.09105 0.03423 0.33902 0.0
H6143 H 0.10814 0.02753 0.34249 0.0
C6144 C 0.38051 0.17108 0.49016 0.0
C6145 C 0.38164 0.1819 0.49241 0.0
C6146 C 0.38214 0.16735 0.48079 0.0
C6147 C 0.38272 0.17407 0.45436 0.0
H6148 H 0.39829 0.15156 0.45391 0.0
C6149 C 0.3811 0.14859 0.41779 0.0
C6150 C 0.39071 0.14492 0.41662 0.0
C6151 C 0.38088 0.15423 0.42677 0.0
C6152 C 0.39406 0.15794 0.45388 0.0
H6153 H 0.38523 0.19728 0.48648 0.0
H6154 H 0.38813 0.19075 0.47006 0.0
H6155 H 0.39627 0.15922 0.47006 0.0
H6156 H 0.40777 0.14462 0.4239 0.0
H6157 H 0.40748 0.15467 0.43949 0.0
H6158 H 0.38061 0.17283 0.43814 0.0
C6159 C 0.38588 0.18514 0.47555 0.0
C6160 C 0.39276 0.16224 0.46315 0.0
C6161 C 0.38422 0.18889 0.48496 0.0
C6162 C 0.40026 0.14737 0.42452 0.0
C6163 C 0.40004 0.15303 0.43351 0.0
C6164 C 0.38403 0.16977 0.44506 0.0
C6165 C 0.38497 0.17433 0.4734 0.0
C6166 C 0.38693 0.17025 0.46352 0.0
C6167 C 0.39027 0.15638 0.43481 0.0
C6168 C 0.3896 0.16155 0.4447 0.0
H6169 H 0.37827 0.16545 0.49564 0.0
H6170 H 0.38108 0.15894 0.47931 0.0
H6171 H 0.37814 0.1802 0.45435 0.0
H6172 H 0.37366 0.14699 0.41179 0.0
H6173 H 0.37317 0.1566 0.42751 0.0
C6174 C 0.55772 0.6258 0.2097 0.0
C6175 C 0.55403 0.61663 0.21458 0.0
C6176 C 0.55941 0.62509 0.19969 0.0
C6177 C 0.55333 0.6065 0.17657 0.0
H6178 H 0.58057 0.62506 0.17047 0.0
C6179 C 0.57412 0.59789 0.14285 0.0
C6180 C 0.57866 0.60637 0.13744 0.0
C6181 C 0.56977 0.59966 0.15153 0.0
C6182 C 0.57283 0.61993 0.17199 0.0
H6183 H 0.54914 0.59954 0.21274 0.0
H6184 H 0.55224 0.59828 0.19534 0.0
H6185 H 0.57545 0.6272 0.18702 0.0
H6186 H 0.58198 0.62332 0.13676 0.0
H6187 H 0.57438 0.62643 0.15199 0.0
H6188 H 0.55096 0.59902 0.16161 0.0
C6189 C 0.5536 0.60604 0.19916 0.0
C6190 C 0.56987 0.62116 0.18149 0.0
C6191 C 0.55184 0.60675 0.20915 0.0
C6192 C 0.57849 0.61663 0.14075 0.0
C6193 C 0.57423 0.61842 0.1495 0.0
C6194 C 0.55633 0.60523 0.16709 0.0
C6195 C 0.55753 0.61519 0.19433 0.0
C6196 C 0.56017 0.61437 0.18395 0.0
C6197 C 0.56994 0.60996 0.15505 0.0
C6198 C 0.56619 0.61185 0.16475 0.0
H6199 H 0.55933 0.63353 0.21365 0.0
H6200 H 0.56225 0.63231 0.19616 0.0
H6201 H 0.54568 0.60126 0.17813 0.0
H6202 H 0.57403 0.58988 0.14041 0.0
H6203 H 0.56662 0.59298 0.15568 0.0
C6204 C 0.14071 0.8158 0.03588 0.0
C6205 C 0.14827 0.82093 0.04466 0.0
C6206 C 0.13942 0.82101 0.027 0.0
C6207 C 0.15352 0.84352 0.0141 0.0
H6208 H 0.12295 0.84221 0.99985 0.0
C6209 C 0.14416 0.87258 0.98443 0.0
C6210 C 0.13551 0.8688 0.97595 0.0
C6211 C 0.14598 0.86616 0.99233 0.0
C6212 C 0.13155 0.84254 1.00363 0.0
H6213 H 0.16068 0.83542 0.05091 0.0
H6214 H 0.15838 0.84451 0.03545 0.0
H6215 H 0.1257 0.83191 0.01443 0.0
H6216 H 0.12227 0.85529 0.96881 0.0
H6217 H 0.12551 0.84394 0.98254 0.0
H6218 H 0.15939 0.85418 1.00335 0.0
C6219 C 0.15346 0.83646 0.03541 0.0
C6220 C 0.13313 0.83663 0.012 0.0
C6221 C 0.15469 0.83129 0.0443 0.0
C6222 C 0.1289 0.8584 0.97535 0.0
C6223 C 0.13073 0.85194 0.98323 0.0
C6224 C 0.15195 0.84939 0.00571 0.0
C6225 C 0.14575 0.83142 0.02668 0.0
C6226 C 0.14412 0.83716 0.0174 0.0
C6227 C 0.13924 0.85577 0.99186 0.0
C6228 C 0.14095 0.84907 1.00044 0.0
H6229 H 0.13559 0.80784 0.03595 0.0
H6230 H 0.13347 0.81689 0.02036 0.0
H6231 H 0.16211 0.84397 0.01801 0.0
H6232 H 0.14942 0.88057 0.98502 0.0
H6233 H 0.15252 0.86941 0.99889 0.0
C6234 C 0.86861 0.35299 0.65999 0.0
C6235 C 0.86319 0.34322 0.66303 0.0
C6236 C 0.86549 0.35578 0.65016 0.0
C6237 C 0.85055 0.34546 0.62416 0.0
H6238 H 0.84522 0.37345 0.62262 0.0
C6239 C 0.82651 0.35923 0.58799 0.0
C6240 C 0.82989 0.3699 0.58614 0.0
C6241 C 0.8315 0.35555 0.59688 0.0
C6242 C 0.84685 0.36568 0.62285 0.0
H6243 H 0.8506 0.3285 0.65795 0.0
H6244 H 0.84508 0.33343 0.64076 0.0
H6245 H 0.85239 0.36779 0.63894 0.0
H6246 H 0.84163 0.38493 0.59171 0.0
H6247 H 0.85055 0.37849 0.60703 0.0
H6248 H 0.84497 0.34337 0.60802 0.0
C6249 C 0.85177 0.33891 0.64601 0.0
C6250 C 0.85095 0.36243 0.63224 0.0
C6251 C 0.85486 0.33614 0.65588 0.0
C6252 C 0.83873 0.3767 0.59305 0.0
C6253 C 0.8438 0.37301 0.60185 0.0
C6254 C 0.84651 0.34875 0.61472 0.0
C6255 C 0.85689 0.34886 0.64312 0.0
C6256 C 0.85284 0.35229 0.63301 0.0
C6257 C 0.84004 0.36246 0.60402 0.0
C6258 C 0.8446 0.35891 0.61395 0.0
H6259 H 0.87499 0.35867 0.66533 0.0
H6260 H 0.86969 0.36345 0.64812 0.0
H6261 H 0.85199 0.33762 0.62452 0.0
H6262 H 0.81967 0.35385 0.58279 0.0
H6263 H 0.82833 0.3474 0.59833 0.0
C6264 C 0.29603 0.83124 0.95814 0.0
C6265 C 0.29991 0.82269 0.95473 0.0
C6266 C 0.29768 0.83425 0.96849 0.0
C6267 C 0.31651 0.83269 0.99259 0.0
H6268 H 0.29459 0.84363 0.00455 0.0
C6269 C 0.32511 0.8467 0.03507 0.0
C6270 C 0.32281 0.85645 0.03734 0.0
C6271 C 0.32123 0.84155 0.02534 0.0
C6272 C 0.30082 0.84065 1.00131 0.0
H6273 H 0.30832 0.81042 0.95961 0.0
H6274 H 0.31097 0.81552 0.97769 0.0
H6275 H 0.28967 0.83635 0.98689 0.0
H6276 H 0.31412 0.86816 0.03152 0.0
H6277 H 0.30739 0.85923 0.01445 0.0
H6278 H 0.32772 0.83711 0.00694 0.0
C6279 C 0.30679 0.82 0.97233 0.0
C6280 C 0.29801 0.83647 0.99118 0.0
C6281 C 0.30515 0.817 0.96196 0.0
C6282 C 0.3161 0.86071 0.02988 0.0
C6283 C 0.31219 0.85555 0.02015 0.0
C6284 C 0.31931 0.83683 1.00271 0.0
C6285 C 0.30325 0.82878 0.97572 0.0
C6286 C 0.30587 0.83255 0.98667 0.0
C6287 C 0.31488 0.846 0.01772 0.0
C6288 C 0.31155 0.84097 0.00716 0.0
H6289 H 0.29182 0.83571 0.95278 0.0
H6290 H 0.29492 0.84109 0.97081 0.0
H6291 H 0.32286 0.82991 0.98933 0.0
H6292 H 0.33011 0.84319 0.04076 0.0
H6293 H 0.32327 0.83411 0.02377 0.0
C6294 C 0.95918 0.60847 0.82414 0.0
C6295 C 0.96728 0.61688 0.82141 0.0
C6296 C 0.95258 0.6102 0.83126 0.0
C6297 C 0.94251 0.63156 0.84285 0.0
H6298 H 0.93415 0.61118 0.86219 0.0
C6299 C 0.91865 0.6402 0.87437 0.0
C6300 C 0.90954 0.63206 0.87598 0.0
C6301 C 0.92612 0.63822 0.8682 0.0
C6302 C 0.93634 0.61691 0.85678 0.0
H6303 H 0.97512 0.63364 0.82432 0.0
H6304 H 0.96374 0.63665 0.8368 0.0
H6305 H 0.9465 0.60798 0.85061 0.0
H6306 H 0.90113 0.61551 0.87253 0.0
H6307 H 0.91422 0.61201 0.86172 0.0
H6308 H 0.93237 0.64049 0.84901 0.0
C6309 C 0.96227 0.62875 0.83327 0.0
C6310 C 0.94341 0.61507 0.85013 0.0
C6311 C 0.96882 0.62702 0.82613 0.0
C6312 C 0.90815 0.62188 0.87144 0.0
C6313 C 0.91566 0.61989 0.8653 0.0
C6314 C 0.93549 0.63342 0.84952 0.0
C6315 C 0.95396 0.62039 0.83584 0.0
C6316 C 0.94658 0.62237 0.84307 0.0
C6317 C 0.92466 0.62807 0.86351 0.0
C6318 C 0.9323 0.62611 0.85655 0.0
H6319 H 0.9577 0.60059 0.82056 0.0
H6320 H 0.94618 0.6036 0.83295 0.0
H6321 H 0.94457 0.63726 0.83739 0.0
H6322 H 0.9199 0.64812 0.87778 0.0
H6323 H 0.93305 0.64467 0.86709 0.0
C6324 C 0.06758 0.15157 0.51716 0.0
C6325 C 0.07742 0.15471 0.51292 0.0
C6326 C 0.06818 0.14756 0.5267 0.0
C6327 C 0.0856 0.13396 0.54386 0.0
H6328 H 0.06834 0.14075 0.56369 0.0
C6329 C 0.08904 0.11702 0.58303 0.0
C6330 C 0.07892 0.11376 0.58681 0.0
C6331 C 0.08928 0.1228 0.57448 0.0
C6332 C 0.07313 0.13869 0.55819 0.0
H6333 H 0.09565 0.15628 0.51548 0.0
H6334 H 0.09672 0.14939 0.53216 0.0
H6335 H 0.06799 0.14962 0.54799 0.0
H6336 H 0.06106 0.11378 0.58453 0.0
H6337 H 0.06139 0.12371 0.56949 0.0
H6338 H 0.09055 0.12288 0.55389 0.0
C6339 C 0.08853 0.14996 0.52807 0.0
C6340 C 0.07294 0.14379 0.54921 0.0
C6341 C 0.08793 0.15402 0.51856 0.0
C6342 C 0.06902 0.11633 0.58185 0.0
C6343 C 0.06923 0.12207 0.57327 0.0
C6344 C 0.08574 0.12883 0.5528 0.0
C6345 C 0.07864 0.14654 0.53219 0.0
C6346 C 0.07914 0.14146 0.54192 0.0
C6347 C 0.07935 0.12534 0.56944 0.0
C6348 C 0.07947 0.13109 0.56007 0.0
H6349 H 0.05937 0.15208 0.51304 0.0
H6350 H 0.0604 0.14493 0.52964 0.0
H6351 H 0.09031 0.13185 0.53832 0.0
H6352 H 0.09675 0.11504 0.58668 0.0
H6353 H 0.09725 0.12528 0.57182 0.0
C6354 C 0.57446 0.38906 0.35317 0.0
C6355 C 0.57019 0.3789 0.34819 0.0
C6356 C 0.58047 0.39047 0.36316 0.0
C6357 C 0.58704 0.37651 0.38622 0.0
H6358 H 0.61503 0.39861 0.39127 0.0
C6359 C 0.62357 0.37882 0.42056 0.0
C6360 C 0.62975 0.38889 0.42494 0.0
C6361 C 0.61514 0.37775 0.41186 0.0
C6362 C 0.60716 0.39251 0.39007 0.0
H6363 H 0.56835 0.36221 0.35 0.0
H6364 H 0.57902 0.36467 0.36734 0.0
H6365 H 0.6023 0.39657 0.37496 0.0
H6366 H 0.63145 0.40568 0.42407 0.0
H6367 H 0.61671 0.40382 0.409 0.0
H6368 H 0.59207 0.37236 0.40132 0.0
C6369 C 0.57768 0.37156 0.36356 0.0
C6370 C 0.59984 0.39134 0.3807 0.0
C6371 C 0.57167 0.37015 0.35357 0.0
C6372 C 0.62698 0.39783 0.42073 0.0
C6373 C 0.61855 0.39676 0.41209 0.0
C6374 C 0.59439 0.37768 0.39562 0.0
C6375 C 0.58234 0.38175 0.3684 0.0
C6376 C 0.58973 0.3833 0.37863 0.0
C6377 C 0.6127 0.38672 0.40741 0.0
C6378 C 0.60457 0.38566 0.39763 0.0
H6379 H 0.57354 0.39597 0.34924 0.0
H6380 H 0.58381 0.39842 0.36672 0.0
H6381 H 0.57926 0.3703 0.3849 0.0
H6382 H 0.62557 0.37179 0.4236 0.0
H6383 H 0.61086 0.3699 0.40841 0.0
C6384 C 0.48273 0.40336 0.26415 0.0
C6385 C 0.49157 0.40974 0.2714 0.0
C6386 C 0.47596 0.40788 0.25706 0.0
C6387 C 0.47664 0.43228 0.24419 0.0
H6388 H 0.44462 0.41911 0.23461 0.0
C6389 C 0.45221 0.43936 0.20546 0.0
C6390 C 0.44071 0.43955 0.20455 0.0
C6391 C 0.45822 0.437 0.21453 0.0
C6392 C 0.45351 0.42299 0.23728 0.0
H6393 H 0.50004 0.4259 0.27705 0.0
H6394 H 0.48808 0.43381 0.26475 0.0
H6395 H 0.45504 0.41259 0.24909 0.0
H6396 H 0.42658 0.43767 0.21259 0.0
H6397 H 0.43714 0.43373 0.2285 0.0
H6398 H 0.47511 0.44267 0.23236 0.0
C6399 C 0.48648 0.42529 0.26449 0.0
C6400 C 0.45952 0.41917 0.24551 0.0
C6401 C 0.49325 0.42076 0.2716 0.0
C6402 C 0.43546 0.43766 0.21305 0.0
C6403 C 0.44147 0.43528 0.22213 0.0
C6404 C 0.47063 0.4361 0.23595 0.0
C6405 C 0.47785 0.4189 0.25704 0.0
C6406 C 0.4712 0.42364 0.24895 0.0
C6407 C 0.45288 0.43478 0.22294 0.0
C6408 C 0.45904 0.43139 0.23228 0.0
H6409 H 0.48113 0.39484 0.26386 0.0
H6410 H 0.46947 0.40271 0.25138 0.0
H6411 H 0.48565 0.43586 0.24659 0.0
H6412 H 0.45655 0.44091 0.19909 0.0
H6413 H 0.46696 0.43658 0.21484 0.0
C6414 C 0.27902 0.72787 0.88506 0.0
C6415 C 0.28572 0.73759 0.88303 0.0
C6416 C 0.27911 0.71849 0.87975 0.0
C6417 C 0.28623 0.70847 0.85615 0.0
H6418 H 0.28714 0.68332 0.87033 0.0
C6419 C 0.29574 0.67199 0.8375 0.0
C6420 C 0.28912 0.66207 0.83903 0.0
C6421 C 0.2951 0.68106 0.84297 0.0
C6422 C 0.28675 0.69024 0.86624 0.0
H6423 H 0.298 0.745 0.87401 0.0
H6424 H 0.29814 0.7287 0.86478 0.0
H6425 H 0.28623 0.69939 0.87964 0.0
H6426 H 0.27708 0.65371 0.84774 0.0
H6427 H 0.27585 0.6696 0.85727 0.0
H6428 H 0.2868 0.69936 0.84277 0.0
C6429 C 0.29264 0.72833 0.87032 0.0
C6430 C 0.28623 0.69945 0.87157 0.0
C6431 C 0.29255 0.73769 0.87562 0.0
C6432 C 0.28213 0.66132 0.84635 0.0
C6433 C 0.2815 0.67039 0.85184 0.0
C6434 C 0.28676 0.69928 0.85083 0.0
C6435 C 0.2859 0.71862 0.8723 0.0
C6436 C 0.28604 0.7087 0.8666 0.0
C6437 C 0.28792 0.68038 0.85015 0.0
C6438 C 0.28711 0.69008 0.85582 0.0
H6439 H 0.27359 0.72754 0.89065 0.0
H6440 H 0.27373 0.71115 0.88137 0.0
H6441 H 0.28588 0.7154 0.85205 0.0
H6442 H 0.30136 0.67271 0.83203 0.0
H6443 H 0.30033 0.68861 0.84163 0.0
C6444 C 0.04398 0.58987 0.7503 0.0
C6445 C 0.03308 0.58541 0.75231 0.0
C6446 C 0.05058 0.58347 0.74716 0.0
C6447 C 0.04719 0.5574 0.73404 0.0
H6448 H 0.08018 0.56579 0.73931 0.0
C6449 C 0.0737 0.54767 0.70562 0.0
C6450 C 0.08473 0.54641 0.70899 0.0
C6451 C 0.06719 0.55001 0.71253 0.0
C6452 C 0.07098 0.56318 0.73788 0.0
H6453 H 0.02081 0.57066 0.75304 0.0
H6454 H 0.03246 0.55946 0.74776 0.0
H6455 H 0.06965 0.57464 0.74912 0.0
H6456 H 0.09735 0.54599 0.72225 0.0
H6457 H 0.08588 0.55 0.73445 0.0
H6458 H 0.04852 0.54601 0.72275 0.0
C6459 C 0.03582 0.56794 0.74845 0.0
C6460 C 0.06493 0.56836 0.74342 0.0
C6461 C 0.02919 0.57436 0.75159 0.0
C6462 C 0.08886 0.5469 0.71947 0.0
C6463 C 0.08234 0.5493 0.72643 0.0
C6464 C 0.05324 0.55219 0.72854 0.0
C6465 C 0.0465 0.57242 0.74597 0.0
C6466 C 0.05295 0.56579 0.74133 0.0
C6467 C 0.07153 0.55115 0.72302 0.0
C6468 C 0.06521 0.55526 0.73014 0.0
H6469 H 0.04733 0.59834 0.75094 0.0
H6470 H 0.0587 0.58724 0.74523 0.0
H6471 H 0.03798 0.55521 0.73217 0.0
H6472 H 0.07028 0.54727 0.69758 0.0
H6473 H 0.05899 0.55149 0.70959 0.0
C6474 C 0.0839 0.24235 0.44055 0.0
C6475 C 0.09178 0.23609 0.44231 0.0
C6476 C 0.0859 0.25099 0.43469 0.0
C6477 C 0.10288 0.26176 0.41541 0.0
H6478 H 0.09439 0.28757 0.42197 0.0
C6479 C 0.11649 0.29956 0.39524 0.0
C6480 C 0.10814 0.30507 0.39218 0.0
C6481 C 0.11448 0.29136 0.40159 0.0
C6482 C 0.09672 0.28037 0.42 0.0
H6483 H 0.10814 0.23426 0.43968 0.0
H6484 H 0.11173 0.24941 0.42964 0.0
H6485 H 0.09102 0.27296 0.43277 0.0
H6486 H 0.09104 0.30616 0.39309 0.0
H6487 H 0.08755 0.29187 0.40432 0.0
H6488 H 0.10868 0.26921 0.40271 0.0
C6489 C 0.10385 0.24749 0.43252 0.0
C6490 C 0.09477 0.27199 0.42618 0.0
C6491 C 0.10181 0.23882 0.4383 0.0
C6492 C 0.0977 0.30217 0.39552 0.0
C6493 C 0.09572 0.29401 0.40194 0.0
C6494 C 0.10489 0.27015 0.40929 0.0
C6495 C 0.09586 0.25362 0.43052 0.0
C6496 C 0.09785 0.26258 0.42397 0.0
C6497 C 0.10407 0.28847 0.40499 0.0
C6498 C 0.10186 0.27956 0.41152 0.0
H6499 H 0.07604 0.24038 0.44346 0.0
H6500 H 0.07949 0.25545 0.43322 0.0
H6501 H 0.10514 0.25456 0.41333 0.0
H6502 H 0.12455 0.30154 0.39266 0.0
H6503 H 0.12111 0.28729 0.40387 0.0
C6504 C 0.47297 0.60678 0.28658 0.0
C6505 C 0.47436 0.5997 0.27904 0.0
C6506 C 0.46343 0.60441 0.29122 0.0
C6507 C 0.43422 0.58717 0.28825 0.0
H6508 H 0.43872 0.59367 0.31732 0.0
C6509 C 0.39993 0.57101 0.31221 0.0
C6510 C 0.39872 0.57787 0.32 0.0
C6511 C 0.40883 0.57397 0.30684 0.0
C6512 C 0.43729 0.59192 0.30918 0.0
H6513 H 0.46681 0.5846 0.27044 0.0
H6514 H 0.4502 0.58041 0.27859 0.0
H6515 H 0.45486 0.59823 0.30867 0.0
H6516 H 0.40534 0.59339 0.32794 0.0
H6517 H 0.42092 0.59861 0.31857 0.0
H6518 H 0.41665 0.58074 0.28882 0.0
C6519 C 0.45639 0.58787 0.28081 0.0
C6520 C 0.44655 0.59454 0.30421 0.0
C6521 C 0.46591 0.59027 0.27614 0.0
C6522 C 0.40627 0.58789 0.32209 0.0
C6523 C 0.41518 0.59085 0.31676 0.0
C6524 C 0.42496 0.58452 0.29324 0.0
C6525 C 0.45507 0.59488 0.28846 0.0
C6526 C 0.44514 0.5922 0.29369 0.0
C6527 C 0.41663 0.58388 0.30913 0.0
C6528 C 0.4264 0.58686 0.30376 0.0
H6529 H 0.47922 0.6142 0.28886 0.0
H6530 H 0.46259 0.61008 0.29694 0.0
H6531 H 0.4328 0.58539 0.28012 0.0
H6532 H 0.39409 0.5633 0.31038 0.0
H6533 H 0.40973 0.56841 0.30105 0.0
C6534 C 0.18033 0.7576 0.12395 0.0
C6535 C 0.16954 0.75858 0.12536 0.0
C6536 C 0.18425 0.7488 0.12704 0.0
C6537 C 0.17971 0.72811 0.14487 0.0
H6538 H 0.19677 0.71436 0.12926 0.0
C6539 C 0.19945 0.69544 0.16119 0.0
C6540 C 0.19771 0.68629 0.15471 0.0
C6541 C 0.19738 0.70469 0.15732 0.0
C6542 C 0.19199 0.7181 0.13369 0.0
H6543 H 0.1542 0.75084 0.13064 0.0
H6544 H 0.16099 0.73551 0.13597 0.0
H6545 H 0.18983 0.72931 0.12272 0.0
H6546 H 0.19294 0.67979 0.13905 0.0
H6547 H 0.1892 0.69596 0.13228 0.0
H6548 H 0.18156 0.71681 0.1557 0.0
C6549 C 0.16654 0.74164 0.1327 0.0
C6550 C 0.1881 0.72672 0.12999 0.0
C6551 C 0.16264 0.75043 0.12964 0.0
C6552 C 0.19443 0.68675 0.14421 0.0
C6553 C 0.19229 0.69601 0.14034 0.0
C6554 C 0.1836 0.71953 0.14856 0.0
C6555 C 0.17746 0.7408 0.1316 0.0
C6556 C 0.18183 0.73176 0.13551 0.0
C6557 C 0.19344 0.705 0.14689 0.0
C6558 C 0.18976 0.7144 0.14302 0.0
H6559 H 0.18589 0.7638 0.12076 0.0
H6560 H 0.19274 0.74844 0.12615 0.0
H6561 H 0.17506 0.7319 0.1494 0.0
H6562 H 0.20214 0.69535 0.1693 0.0
H6563 H 0.19861 0.71155 0.16255 0.0
C6564 C 0.96017 0.3421 0.74401 0.0
C6565 C 0.95455 0.35027 0.74269 0.0
C6566 C 0.97038 0.34358 0.75099 0.0
C6567 C 0.98693 0.36072 0.77382 0.0
H6568 H 0.01133 0.34823 0.76888 0.0
C6569 C 0.03063 0.37102 0.80032 0.0
C6570 C 0.0353 0.36255 0.80327 0.0
C6571 C 0.02119 0.36949 0.79248 0.0
C6572 C 1.00454 0.3517 0.77038 0.0
H6573 H 0.95547 0.36655 0.74729 0.0
H6574 H 0.97335 0.36923 0.75927 0.0
H6575 H 0.99415 0.34573 0.7559 0.0
H6576 H 0.03363 0.34579 0.8005 0.0
H6577 H 0.01717 0.34312 0.78664 0.0
H6578 H 0.99735 0.36677 0.78825 0.0
C6579 C 0.96974 0.36156 0.75517 0.0
C6580 C 0.99469 0.35026 0.76296 0.0
C6581 C 0.95951 0.36004 0.74827 0.0
C6582 C 0.03035 0.3525 0.79821 0.0
C6583 C 0.02094 0.35098 0.7903 0.0
C6584 C 0.99679 0.36223 0.78119 0.0
C6585 C 0.97523 0.3533 0.75675 0.0
C6586 C 0.98576 0.35478 0.76458 0.0
C6587 C 0.01617 0.35944 0.78744 0.0
C6588 C 1.00572 0.35776 0.77955 0.0
H6589 H 0.95649 0.33445 0.73988 0.0
H6590 H 0.97428 0.337 0.75208 0.0
H6591 H 0.98014 0.36411 0.77546 0.0
H6592 H 0.03416 0.37881 0.8042 0.0
H6593 H 0.01776 0.37618 0.7904 0.0
C6594 C 0.34168 0.26399 0.55001 0.0
C6595 C 0.35091 0.26016 0.55466 0.0
C6596 C 0.33833 0.27199 0.555 0.0
C6597 C 0.34037 0.28444 0.58071 0.0
H6598 H 0.33044 0.30663 0.56611 0.0
C6599 C 0.331 0.31989 0.60151 0.0
C6600 C 0.32115 0.32299 0.59726 0.0
C6601 C 0.33495 0.3126 0.59611 0.0
C6602 C 0.33309 0.30043 0.57028 0.0
H6603 H 0.3641 0.26205 0.56805 0.0
H6604 H 0.35831 0.276 0.5767 0.0
H6605 H 0.3367 0.2932 0.55705 0.0
H6606 H 0.30803 0.32139 0.58391 0.0
H6607 H 0.31484 0.30856 0.57447 0.0
H6608 H 0.33674 0.29163 0.59393 0.0
C6609 C 0.35349 0.27267 0.56929 0.0
C6610 C 0.33667 0.29273 0.56508 0.0
C6611 C 0.35683 0.26467 0.56433 0.0
C6612 C 0.31557 0.319 0.58738 0.0
C6613 C 0.31952 0.31172 0.58197 0.0
C6614 C 0.33681 0.29214 0.5859 0.0
C6615 C 0.34414 0.27637 0.56474 0.0
C6616 C 0.34036 0.28463 0.57023 0.0
C6617 C 0.32919 0.30834 0.58632 0.0
C6618 C 0.33312 0.30024 0.58076 0.0
H6619 H 0.33686 0.26062 0.54262 0.0
H6620 H 0.331 0.27456 0.55131 0.0
H6621 H 0.34294 0.27822 0.58489 0.0
H6622 H 0.33556 0.32302 0.60905 0.0
H6623 H 0.34255 0.31033 0.59961 0.0
C6624 C 0.18545 0.43404 0.3909 0.0
C6625 C 0.188 0.43983 0.4004 0.0
C6626 C 0.17982 0.42334 0.38986 0.0
C6627 C 0.16044 0.404 0.40197 0.0
H6628 H 0.1667 0.38386 0.38316 0.0
C6629 C 0.13305 0.36118 0.39464 0.0
C6630 C 0.12932 0.3576 0.38434 0.0
C6631 C 0.14177 0.37036 0.39756 0.0
C6632 C 0.16483 0.3894 0.38843 0.0
H6633 H 0.18712 0.43878 0.41634 0.0
H6634 H 0.17728 0.4201 0.41452 0.0
H6635 H 0.17916 0.40163 0.38651 0.0
H6636 H 0.13224 0.36044 0.3691 0.0
H6637 H 0.1473 0.37648 0.37415 0.0
H6638 H 0.14596 0.39188 0.4037 0.0
C6639 C 0.17947 0.42389 0.40785 0.0
C6640 C 0.17196 0.39958 0.39034 0.0
C6641 C 0.1851 0.43459 0.40889 0.0
C6642 C 0.13484 0.36308 0.37708 0.0
C6643 C 0.14356 0.37222 0.38 0.0
C6644 C 0.15332 0.39382 0.40006 0.0
C6645 C 0.17661 0.41818 0.3983 0.0
C6646 C 0.16973 0.40706 0.39699 0.0
C6647 C 0.14697 0.3761 0.39025 0.0
C6648 C 0.1553 0.38647 0.39313 0.0
H6649 H 0.18744 0.43786 0.38419 0.0
H6650 H 0.1776 0.41923 0.38237 0.0
H6651 H 0.15837 0.4096 0.40703 0.0
H6652 H 0.12893 0.35714 0.4004 0.0
H6653 H 0.14429 0.37308 0.40553 0.0
C6654 C 0.72801 0.06276 0.6534 0.0
C6655 C 0.73472 0.0599 0.6468 0.0
C6656 C 0.72593 0.0728 0.65357 0.0
C6657 C 0.72499 0.095 0.63763 0.0
H6658 H 0.7233 0.10973 0.66272 0.0
C6659 C 0.71568 0.13629 0.63866 0.0
C6660 C 0.70779 0.13776 0.64465 0.0
C6661 C 0.72 0.12731 0.63928 0.0
C6662 C 0.72366 0.10568 0.65564 0.0
H6663 H 0.74468 0.06544 0.63534 0.0
H6664 H 0.74116 0.08305 0.63575 0.0
H6665 H 0.72921 0.09319 0.66322 0.0
H6666 H 0.69853 0.13132 0.65624 0.0
H6667 H 0.70596 0.11554 0.65729 0.0
H6668 H 0.7193 0.10742 0.63004 0.0
C6669 C 0.73742 0.07747 0.64071 0.0
C6670 C 0.72705 0.0962 0.65593 0.0
C6671 C 0.73953 0.06742 0.64056 0.0
C6672 C 0.70454 0.13028 0.65149 0.0
C6673 C 0.70886 0.1213 0.65213 0.0
C6674 C 0.72161 0.10448 0.63735 0.0
C6675 C 0.73049 0.08024 0.64715 0.0
C6676 C 0.72763 0.09068 0.64692 0.0
C6677 C 0.71658 0.11966 0.64597 0.0
C6678 C 0.72078 0.10988 0.64634 0.0
H6679 H 0.7243 0.0572 0.6584 0.0
H6680 H 0.72047 0.07462 0.65855 0.0
H6681 H 0.72518 0.09089 0.63054 0.0
H6682 H 0.71844 0.14205 0.63344 0.0
H6683 H 0.72606 0.12637 0.63455 0.0
C6684 C 0.67967 0.94575 0.34138 0.0
C6685 C 0.68609 0.94651 0.33361 0.0
C6686 C 0.66905 0.93858 0.34016 0.0
C6687 C 0.64512 0.92312 0.32125 0.0
H6688 H 0.63954 0.90523 0.34314 0.0
C6689 C 0.60552 0.88779 0.31775 0.0
C6690 C 0.60094 0.88548 0.32652 0.0
C6691 C 0.61561 0.89563 0.31825 0.0
C6692 C 0.64084 0.91027 0.33701 0.0
H6693 H 0.6863 0.94057 0.31837 0.0
H6694 H 0.66763 0.92805 0.31621 0.0
H6695 H 0.65762 0.91822 0.34468 0.0
H6696 H 0.60285 0.8899 0.34255 0.0
H6697 H 0.62017 0.90378 0.3434 0.0
H6698 H 0.62826 0.91529 0.31364 0.0
C6699 C 0.67086 0.933 0.32324 0.0
C6700 C 0.65124 0.91769 0.33789 0.0
C6701 C 0.68157 0.94009 0.32451 0.0
C6702 C 0.60633 0.89142 0.3357 0.0
C6703 C 0.61629 0.89933 0.33619 0.0
C6704 C 0.63463 0.91576 0.32041 0.0
C6705 C 0.66456 0.93209 0.33111 0.0
C6706 C 0.65349 0.9242 0.33004 0.0
C6707 C 0.62122 0.90139 0.32752 0.0
C6708 C 0.63234 0.90926 0.3283 0.0
H6709 H 0.68298 0.95053 0.3485 0.0
H6710 H 0.66434 0.93811 0.34631 0.0
H6711 H 0.64662 0.92811 0.31511 0.0
H6712 H 0.60154 0.88327 0.31058 0.0
H6713 H 0.61919 0.89692 0.31144 0.0
C6714 C 0.78174 0.9443 0.1189 0.0
C6715 C 0.76982 0.94168 0.11792 0.0
C6716 C 0.78752 0.93651 0.1175 0.0
C6717 C 0.78474 0.90778 0.11763 0.0
H6718 H 0.81066 0.9141 0.10404 0.0
C6719 C 0.81009 0.87688 0.1106 0.0
C6720 C 0.822 0.88056 0.11306 0.0
C6721 C 0.80312 0.88398 0.11014 0.0
C6722 C 0.80347 0.91223 0.1079 0.0
H6723 H 0.75464 0.9288 0.1146 0.0
H6724 H 0.76475 0.91519 0.11215 0.0
H6725 H 0.7996 0.92713 0.10535 0.0
H6726 H 0.83594 0.89459 0.1165 0.0
H6727 H 0.82383 0.90692 0.11577 0.0
H6728 H 0.78872 0.89291 0.12027 0.0
C6729 C 0.76963 0.92326 0.11412 0.0
C6730 C 0.79715 0.9197 0.10867 0.0
C6731 C 0.76383 0.93106 0.11553 0.0
C6732 C 0.82679 0.89149 0.11471 0.0
C6733 C 0.81984 0.89857 0.11418 0.0
C6734 C 0.79107 0.90029 0.11685 0.0
C6735 C 0.78155 0.9259 0.11507 0.0
C6736 C 0.78781 0.91765 0.11368 0.0
C6737 C 0.80792 0.8949 0.11201 0.0
C6738 C 0.80062 0.90249 0.1121 0.0
H6739 H 0.78665 0.95236 0.12092 0.0
H6740 H 0.79672 0.93881 0.1185 0.0
H6741 H 0.77767 0.90597 0.12164 0.0
H6742 H 0.80616 0.8685 0.10934 0.0
H6743 H 0.79397 0.88091 0.10835 0.0
C6744 C 0.28236 0.52212 0.37465 0.0
C6745 C 0.27425 0.5136 0.36894 0.0
C6746 C 0.29123 0.52798 0.37044 0.0
C6747 C 0.30758 0.52772 0.34981 0.0
H6748 H 0.31449 0.55809 0.35537 0.0
C6749 C 0.3398 0.55784 0.33122 0.0
C6750 C 0.34672 0.56646 0.33771 0.0
C6751 C 0.33102 0.55071 0.33461 0.0
C6752 C 0.31275 0.54961 0.35382 0.0
H6753 H 0.26926 0.5044 0.3544 0.0
H6754 H 0.28481 0.51469 0.34701 0.0
H6755 H 0.29908 0.54694 0.36205 0.0
H6756 H 0.35041 0.57397 0.353 0.0
H6757 H 0.33523 0.5616 0.35889 0.0
H6758 H 0.32135 0.5305 0.34156 0.0
C6759 C 0.28432 0.51677 0.35478 0.0
C6760 C 0.30391 0.54322 0.35765 0.0
C6761 C 0.27541 0.51088 0.35901 0.0
C6762 C 0.34503 0.56755 0.34775 0.0
C6763 C 0.33633 0.56047 0.35112 0.0
C6764 C 0.31646 0.53415 0.34595 0.0
C6765 C 0.29222 0.52548 0.36041 0.0
C6766 C 0.30132 0.53219 0.35584 0.0
C6767 C 0.32905 0.5521 0.34454 0.0
C6768 C 0.31925 0.54517 0.34806 0.0
H6769 H 0.28185 0.52427 0.38239 0.0
H6770 H 0.29732 0.53449 0.37506 0.0
H6771 H 0.30581 0.51924 0.34831 0.0
H6772 H 0.34092 0.55682 0.32345 0.0
H6773 H 0.32554 0.54434 0.32937 0.0
C6774 C 0.25151 0.52713 0.83077 0.0
C6775 C 0.25137 0.52278 0.84017 0.0
C6776 C 0.25572 0.53795 0.83031 0.0
C6777 C 0.27424 0.56178 0.84566 0.0
H6778 H 0.26053 0.57627 0.82412 0.0
C6779 C 0.28929 0.60681 0.84278 0.0
C6780 C 0.29124 0.60977 0.83315 0.0
C6781 C 0.28369 0.59645 0.84404 0.0
C6782 C 0.26446 0.57231 0.83016 0.0
H6783 H 0.25531 0.5264 0.85647 0.0
H6784 H 0.2625 0.54536 0.85569 0.0
H6785 H 0.25204 0.55771 0.82566 0.0
H6786 H 0.28853 0.60433 0.81726 0.0
H6787 H 0.27873 0.58626 0.81945 0.0
H6788 H 0.28665 0.57645 0.85014 0.0
C6789 C 0.25958 0.54037 0.84866 0.0
C6790 C 0.25964 0.56167 0.83103 0.0
C6791 C 0.25544 0.52952 0.84912 0.0
C6792 C 0.28724 0.60224 0.82478 0.0
C6793 C 0.28154 0.59193 0.82602 0.0
C6794 C 0.27902 0.57246 0.84483 0.0
C6795 C 0.25983 0.54472 0.83924 0.0
C6796 C 0.26456 0.55622 0.8387 0.0
C6797 C 0.27981 0.5889 0.83567 0.0
C6798 C 0.27426 0.57779 0.83699 0.0
H6799 H 0.24859 0.52211 0.82375 0.0
H6800 H 0.25599 0.54098 0.82293 0.0
H6801 H 0.27836 0.55782 0.85157 0.0
H6802 H 0.29233 0.61245 0.84936 0.0
H6803 H 0.28239 0.59434 0.85155 0.0
C6804 C 0.7052 0.01044 0.15722 0.0
C6805 C 0.70375 0.01143 0.1467 0.0
C6806 C 0.69733 0.01276 0.1628 0.0
C6807 C 0.67606 0.0285 0.16194 0.0
H6808 H 0.6664 0.01203 0.18369 0.0
C6809 C 0.64261 0.03824 0.18359 0.0
C6810 C 0.64447 0.0375 0.19413 0.0
C6811 C 0.64917 0.03428 0.17758 0.0
C6812 C 0.6691 0.01677 0.17771 0.0
H6813 H 0.69254 0.01509 0.13375 0.0
H6814 H 0.67888 0.01917 0.14348 0.0
H6815 H 0.67907 0.00641 0.17367 0.0
H6816 H 0.6549 0.03238 0.20669 0.0
H6817 H 0.66647 0.02559 0.19627 0.0
H6818 H 0.66632 0.03898 0.16605 0.0
C6819 C 0.68621 0.0168 0.14744 0.0
C6820 C 0.67635 0.01354 0.17195 0.0
C6821 C 0.69405 0.01446 0.14187 0.0
C6822 C 0.65311 0.03283 0.19855 0.0
C6823 C 0.6597 0.02891 0.19256 0.0
C6824 C 0.66886 0.03176 0.16771 0.0
C6825 C 0.68784 0.01614 0.158 0.0
C6826 C 0.67992 0.01937 0.16401 0.0
C6827 C 0.65788 0.02965 0.182 0.0
C6828 C 0.6653 0.02596 0.17569 0.0
H6829 H 0.71263 0.00825 0.16121 0.0
H6830 H 0.69889 0.01226 0.17094 0.0
H6831 H 0.67881 0.03329 0.15599 0.0
H6832 H 0.63615 0.04197 0.17999 0.0
H6833 H 0.64743 0.03489 0.16947 0.0
C6834 C 0.81947 0.99238 0.65489 0.0
C6835 C 0.81746 1.00019 0.66133 0.0
C6836 C 0.82873 0.98796 0.65771 0.0
C6837 C 0.84807 0.9834 0.68034 0.0
H6838 H 0.86557 0.97648 0.66077 0.0
C6839 C 0.88665 0.96568 0.69214 0.0
C6840 C 0.88741 0.95724 0.68575 0.0
C6841 C 0.87887 0.9717 0.68903 0.0
C6842 C 0.86071 0.97829 0.66631 0.0
H6843 H 0.82373 0.00955 0.67574 0.0
H6844 H 0.83998 1.00195 0.68059 0.0
H6845 H 0.85061 0.98561 0.65557 0.0
H6846 H 0.88116 0.94882 0.67092 0.0
H6847 H 0.8674 0.95921 0.66549 0.0
H6848 H 0.85802 0.97596 0.69105 0.0
C6849 C 0.83432 0.99918 0.6734 0.0
C6850 C 0.85214 0.98352 0.66333 0.0
C6851 C 0.82507 1.00362 0.67057 0.0
C6852 C 0.88059 0.9552 0.67603 0.0
C6853 C 0.8728 0.96121 0.67291 0.0
C6854 C 0.85662 0.97816 0.68332 0.0
C6855 C 0.8362 0.99122 0.66705 0.0
C6856 C 0.84567 0.98608 0.67029 0.0
C6857 C 0.87174 0.96946 0.67942 0.0
C6858 C 0.863 0.97547 0.67633 0.0
H6859 H 0.81385 0.98965 0.64767 0.0
H6860 H 0.82987 0.9818 0.65268 0.0
H6861 H 0.84313 0.9851 0.68586 0.0
H6862 H 0.89199 0.96751 0.6996 0.0
H6863 H 0.87844 0.97812 0.69416 0.0
loop_
_geom_bond_atom_site_label_1
_geom_bond_atom_site_label_2
_geom_bond_distance
_geom_bond_site_symmetry_2
_ccdc_geom_bond_type
C0 C1 1.264 . S
C0 C5 1.479 . S
C0 C10 1.465 . S
C1 C0 1.264 . S
C1 C3 1.339 . S
C1 H28 0.931 . S
C2 C3 1.395 . S
C2 C4 1.320 . S
C3 C1 1.339 . S
C3 C2 1.395 . S
C3 H29 0.929 . S
C4 C2 1.320 . S
C4 C5 1.405 . S
C4 H30 0.930 . S
C5 C0 1.479 . S
C5 C4 1.405 . S
C5 H31 0.931 . S
U6 O7 2.454 . S
U6 O8 2.458 . S
U6 C9 2.984 . S
U6 C10 2.847 1_455 S
U6 C23 2.882 . S
U6 O24 2.441 1_455 S
U6 O25 2.420 1_455 S
U6 O26 2.455 . S
U6 O27 2.449 . S
O7 U6 2.454 . S
O7 C9 1.353 . S
O8 U6 2.458 . S
O8 C9 1.286 . S
C9 U6 2.984 . S
C9 O7 1.353 . S
C9 O8 1.286 . S
C9 C11 1.363 . S
C10 C0 1.465 . S
C10 U6 2.847 1_655 S
C10 O24 1.249 . S
C10 O25 1.202 . S
C11 C9 1.363 . S
C11 C13 1.408 . S
C11 C16 1.342 . S
C12 C13 1.310 . S
C12 C15 1.461 . S
C12 H32 0.932 . S
C13 C11 1.408 . S
C13 C12 1.310 . S
C13 H33 0.930 . S
C14 C15 1.474 . S
C14 C16 1.285 . S
C14 H34 0.929 . S
C15 C12 1.461 . S
C15 C14 1.474 . S
C16 C11 1.342 . S
C16 C14 1.285 . S
C16 H35 0.930 . S
C17 C20 1.424 . S
C17 C22 1.245 . S
C17 C23 1.428 . S
C18 C21 1.260 . S
C18 C22 1.477 . S
C18 H36 0.932 . S
C19 C20 1.384 . S
C19 C21 1.479 . S
C19 H37 0.929 . S
C20 C17 1.424 . S
C20 C19 1.384 . S
C20 H38 0.928 . S
C21 C18 1.260 . S
C21 C19 1.479 . S
C22 C17 1.245 . S
C22 C18 1.477 . S
C22 H39 0.932 . S
C23 U6 2.882 . S
C23 C17 1.428 . S
C23 O26 1.301 . S
C23 O27 1.282 . S
O24 U6 2.441 1_655 S
O24 C10 1.249 . S
O25 U6 2.420 1_655 S
O25 C10 1.202 . S
O26 U6 2.455 . S
O26 C23 1.301 . S
O27 U6 2.449 . S
O27 C23 1.282 . S
H28 C1 0.931 . S
H29 C3 0.929 . S
H30 C4 0.930 . S
H31 C5 0.931 . S
H32 C12 0.932 . S
H33 C13 0.930 . S
H34 C14 0.929 . S
H35 C16 0.930 . S
H36 C18 0.932 . S
H37 C19 0.929 . S
H38 C20 0.928 . S
H39 C22 0.932 . S
C40 C41 1.264 . S
C40 C45 1.479 . S
C40 C50 1.465 . S
C41 C40 1.264 . S
C41 C43 1.339 . S
C41 H68 0.931 . S
C42 C43 1.395 . S
C42 C44 1.320 . S
C43 C41 1.339 . S
C43 C42 1.395 . S
C43 H69 0.929 . S
C44 C42 1.320 . S
C44 C45 1.405 . S
C44 H70 0.930 . S
C45 C40 1.479 . S
C45 C44 1.405 . S
C45 H71 0.931 . S
U46 O47 2.454 . S
U46 O48 2.458 . S
U46 C49 2.984 . S
U46 C50 2.847 . S
U46 C63 2.882 . S
U46 O64 2.441 . S
U46 O65 2.420 . S
U46 O66 2.455 . S
U46 O67 2.449 . S
O47 U46 2.454 . S
O47 C49 1.353 . S
O48 U46 2.458 . S
O48 C49 1.286 . S
C49 U46 2.984 . S
C49 O47 1.353 . S
C49 O48 1.286 . S
C49 C51 1.363 . S
C50 C40 1.465 . S
C50 U46 2.847 . S
C50 O64 1.249 . S
C50 O65 1.202 . S
C51 C49 1.363 . S
C51 C53 1.408 . S
C51 C56 1.342 . S
C52 C53 1.310 . S
C52 C55 1.461 . S
C52 H72 0.932 . S
C53 C51 1.408 . S
C53 C52 1.310 . S
C53 H73 0.930 . S
C54 C55 1.474 . S
C54 C56 1.285 . S
C54 H74 0.929 . S
C55 C52 1.461 . S
C55 C54 1.474 . S
C56 C51 1.342 . S
C56 C54 1.285 . S
C56 H75 0.930 . S
C57 C60 1.424 . S
C57 C62 1.245 . S
C57 C63 1.428 . S
C58 C61 1.260 . S
C58 C62 1.477 . S
C58 H76 0.932 . S
C59 C60 1.384 . S
C59 C61 1.479 . S
C59 H77 0.929 . S
C60 C57 1.424 . S
C60 C59 1.384 . S
C60 H78 0.928 . S
C61 C58 1.260 . S
C61 C59 1.479 . S
C62 C57 1.245 . S
C62 C58 1.477 . S
C62 H79 0.932 . S
C63 U46 2.882 . S
C63 C57 1.428 . S
C63 O66 1.301 . S
C63 O67 1.282 . S
O64 U46 2.441 . S
O64 C50 1.249 . S
O65 U46 2.420 . S
O65 C50 1.202 . S
O66 U46 2.455 . S
O66 C63 1.301 . S
O67 U46 2.449 . S
O67 C63 1.282 . S
H68 C41 0.931 . S
H69 C43 0.929 . S
H70 C44 0.930 . S
H71 C45 0.931 . S
H72 C52 0.932 . S
H73 C53 0.930 . S
H74 C54 0.929 . S
H75 C56 0.930 . S
H76 C58 0.932 . S
H77 C59 0.929 . S
H78 C60 0.928 . S
H79 C62 0.932 . S
C80 C81 1.264 . S
C80 C85 1.479 . S
C80 C90 1.465 . S
C81 C80 1.264 . S
C81 C83 1.339 . S
C81 H108 0.931 . S
C82 C83 1.395 . S
C82 C84 1.320 . S
C83 C81 1.339 . S
C83 C82 1.395 . S
C83 H109 0.929 . S
C84 C82 1.320 . S
C84 C85 1.405 . S
C84 H110 0.930 . S
C85 C80 1.479 . S
C85 C84 1.405 . S
C85 H111 0.931 . S
U86 O87 2.454 . S
U86 O88 2.458 . S
U86 C89 2.984 . S
U86 C90 2.847 . S
U86 C103 2.882 . S
U86 O104 2.441 . S
U86 O105 2.420 . S
U86 O106 2.455 . S
U86 O107 2.449 . S
O87 U86 2.454 . S
O87 C89 1.353 . S
O88 U86 2.458 . S
O88 C89 1.286 . S
C89 U86 2.984 . S
C89 O87 1.353 . S
C89 O88 1.286 . S
C89 C91 1.363 . S
C90 C80 1.465 . S
C90 U86 2.847 . S
C90 O104 1.249 . S
C90 O105 1.202 . S
C91 C89 1.363 . S
C91 C93 1.408 . S
C91 C96 1.342 . S
C92 C93 1.310 . S
C92 C95 1.461 . S
C92 H112 0.932 . S
C93 C91 1.408 . S
C93 C92 1.310 . S
C93 H113 0.930 . S
C94 C95 1.474 . S
C94 C96 1.285 . S
C94 H114 0.929 . S
C95 C92 1.461 . S
C95 C94 1.474 . S
C96 C91 1.342 . S
C96 C94 1.285 . S
C96 H115 0.930 . S
C97 C100 1.424 . S
C97 C102 1.245 . S
C97 C103 1.428 . S
C98 C101 1.260 . S
C98 C102 1.477 . S
C98 H116 0.932 . S
C99 C100 1.384 . S
C99 C101 1.479 . S
C99 H117 0.929 . S
C100 C97 1.424 . S
C100 C99 1.384 . S
C100 H118 0.928 . S
C101 C98 1.260 . S
C101 C99 1.479 . S
C102 C97 1.245 . S
C102 C98 1.477 . S
C102 H119 0.932 . S
C103 U86 2.882 . S
C103 C97 1.428 . S
C103 O106 1.301 . S
C103 O107 1.282 . S
O104 U86 2.441 . S
O104 C90 1.249 . S
O105 U86 2.420 . S
O105 C90 1.202 . S
O106 U86 2.455 . S
O106 C103 1.301 . S
O107 U86 2.449 . S
O107 C103 1.282 . S
H108 C81 0.931 . S
H109 C83 0.929 . S
H110 C84 0.930 . S
H111 C85 0.931 . S
H112 C92 0.932 . S
H113 C93 0.930 . S
H114 C94 0.929 . S
H115 C96 0.930 . S
H116 C98 0.932 . S
H117 C99 0.929 . S
H118 C100 0.928 . S
H119 C102 0.932 . S
C120 C121 1.264 . S
C120 C125 1.479 . S
C120 C130 1.465 . S
C121 C120 1.264 . S
C121 C123 1.339 . S
C121 H148 0.931 . S
C122 C123 1.395 . S
C122 C124 1.320 . S
C123 C121 1.339 . S
C123 C122 1.395 . S
C123 H149 0.929 . S
C124 C122 1.320 . S
C124 C125 1.405 . S
C124 H150 0.930 . S
C125 C120 1.479 . S
C125 C124 1.405 . S
C125 H151 0.931 . S
U126 O127 2.454 . S
U126 O128 2.458 . S
U126 C129 2.984 . S
U126 C130 2.847 . S
U126 C143 2.882 . S
U126 O144 2.441 . S
U126 O145 2.420 . S
U126 O146 2.455 . S
U126 O147 2.449 . S
O127 U126 2.454 . S
O127 C129 1.353 . S
O128 U126 2.458 . S
O128 C129 1.286 . S
C129 U126 2.984 . S
C129 O127 1.353 . S
C129 O128 1.286 . S
C129 C131 1.363 . S
C130 C120 1.465 . S
C130 U126 2.847 . S
C130 O144 1.249 . S
C130 O145 1.202 . S
C131 C129 1.363 . S
C131 C133 1.408 . S
C131 C136 1.342 . S
C132 C133 1.310 . S
C132 C135 1.461 . S
C132 H152 0.932 . S
C133 C131 1.408 . S
C133 C132 1.310 . S
C133 H153 0.930 . S
C134 C135 1.474 . S
C134 C136 1.285 . S
C134 H154 0.929 . S
C135 C132 1.461 . S
C135 C134 1.474 . S
C136 C131 1.342 . S
C136 C134 1.285 . S
C136 H155 0.930 . S
C137 C140 1.424 . S
C137 C142 1.245 . S
C137 C143 1.428 . S
C138 C141 1.260 . S
C138 C142 1.477 . S
C138 H156 0.932 . S
C139 C140 1.384 . S
C139 C141 1.479 . S
C139 H157 0.929 . S
C140 C137 1.424 . S
C140 C139 1.384 . S
C140 H158 0.928 . S
C141 C138 1.260 . S
C141 C139 1.479 . S
C142 C137 1.245 . S
C142 C138 1.477 . S
C142 H159 0.932 . S
C143 U126 2.882 . S
C143 C137 1.428 . S
C143 O146 1.301 . S
C143 O147 1.282 . S
O144 U126 2.441 . S
O144 C130 1.249 . S
O145 U126 2.420 . S
O145 C130 1.202 . S
O146 U126 2.455 . S
O146 C143 1.301 . S
O147 U126 2.449 . S
O147 C143 1.282 . S
H148 C121 0.931 . S
H149 C123 0.929 . S
H150 C124 0.930 . S
H151 C125 0.931 . S
H152 C132 0.932 . S
H153 C133 0.930 . S
H154 C134 0.929 . S
H155 C136 0.930 . S
H156 C138 0.932 . S
H157 C139 0.929 . S
H158 C140 0.928 . S
H159 C142 0.932 . S
C160 C161 1.264 . S
C160 C165 1.479 . S
C160 C170 1.465 . S
C161 C160 1.264 . S
C161 C163 1.339 . S
C161 H188 0.931 . S
C162 C163 1.395 . S
C162 C164 1.320 . S
C163 C161 1.339 . S
C163 C162 1.395 . S
C163 H189 0.929 . S
C164 C162 1.320 . S
C164 C165 1.405 . S
C164 H190 0.930 . S
C165 C160 1.479 . S
C165 C164 1.405 . S
C165 H191 0.931 . S
U166 O167 2.454 . S
U166 O168 2.458 . S
U166 C169 2.984 . S
U166 C170 2.847 . S
U166 C183 2.882 . S
U166 O184 2.441 . S
U166 O185 2.420 . S
U166 O186 2.455 . S
U166 O187 2.449 . S
O167 U166 2.454 . S
O167 C169 1.353 . S
O168 U166 2.458 . S
O168 C169 1.286 . S
C169 U166 2.984 . S
C169 O167 1.353 . S
C169 O168 1.286 . S
C169 C171 1.363 . S
C170 C160 1.465 . S
C170 U166 2.847 . S
C170 O184 1.249 . S
C170 O185 1.202 . S
C171 C169 1.363 . S
C171 C173 1.408 . S
C171 C176 1.342 . S
C172 C173 1.310 . S
C172 C175 1.461 . S
C172 H192 0.932 . S
C173 C171 1.408 . S
C173 C172 1.310 . S
C173 H193 0.930 . S
C174 C175 1.474 . S
C174 C176 1.285 . S
C174 H194 0.929 . S
C175 C172 1.461 . S
C175 C174 1.474 . S
C176 C171 1.342 . S
C176 C174 1.285 . S
C176 H195 0.930 . S
C177 C180 1.424 . S
C177 C182 1.245 . S
C177 C183 1.428 . S
C178 C181 1.260 . S
C178 C182 1.477 . S
C178 H196 0.932 . S
C179 C180 1.384 . S
C179 C181 1.479 . S
C179 H197 0.929 . S
C180 C177 1.424 . S
C180 C179 1.384 . S
C180 H198 0.928 . S
C181 C178 1.260 . S
C181 C179 1.479 . S
C182 C177 1.245 . S
C182 C178 1.477 . S
C182 H199 0.932 . S
C183 U166 2.882 . S
C183 C177 1.428 . S
C183 O186 1.301 . S
C183 O187 1.282 . S
O184 U166 2.441 . S
O184 C170 1.249 . S
O185 U166 2.420 . S
O185 C170 1.202 . S
O186 U166 2.455 . S
O186 C183 1.301 . S
O187 U166 2.449 . S
O187 C183 1.282 . S
H188 C161 0.931 . S
H189 C163 0.929 . S
H190 C164 0.930 . S
H191 C165 0.931 . S
H192 C172 0.932 . S
H193 C173 0.930 . S
H194 C174 0.929 . S
H195 C176 0.930 . S
H196 C178 0.932 . S
H197 C179 0.929 . S
H198 C180 0.928 . S
H199 C182 0.932 . S
C200 C201 1.264 . S
C200 C205 1.479 . S
C200 C210 1.465 . S
C201 C200 1.264 . S
C201 C203 1.339 . S
C201 H228 0.931 . S
C202 C203 1.395 . S
C202 C204 1.320 . S
C203 C201 1.339 . S
C203 C202 1.395 . S
C203 H229 0.929 . S
C204 C202 1.320 . S
C204 C205 1.405 . S
C204 H230 0.930 . S
C205 C200 1.479 . S
C205 C204 1.405 . S
C205 H231 0.931 . S
U206 O207 2.454 . S
U206 O208 2.458 . S
U206 C209 2.984 . S
U206 C210 2.847 . S
U206 C223 2.882 . S
U206 O224 2.441 . S
U206 O225 2.420 . S
U206 O226 2.455 . S
U206 O227 2.449 . S
O207 U206 2.454 . S
O207 C209 1.353 . S
O208 U206 2.458 . S
O208 C209 1.286 . S
C209 U206 2.984 . S
C209 O207 1.353 . S
C209 O208 1.286 . S
C209 C211 1.363 . S
C210 C200 1.465 . S
C210 U206 2.847 . S
C210 O224 1.249 . S
C210 O225 1.202 . S
C211 C209 1.363 . S
C211 C213 1.408 . S
C211 C216 1.342 . S
C212 C213 1.310 . S
C212 C215 1.461 . S
C212 H232 0.932 . S
C213 C211 1.408 . S
C213 C212 1.310 . S
C213 H233 0.930 . S
C214 C215 1.474 . S
C214 C216 1.285 . S
C214 H234 0.929 . S
C215 C212 1.461 . S
C215 C214 1.474 . S
C216 C211 1.342 . S
C216 C214 1.285 . S
C216 H235 0.930 . S
C217 C220 1.424 . S
C217 C222 1.245 . S
C217 C223 1.428 . S
C218 C221 1.260 . S
C218 C222 1.477 . S
C218 H236 0.932 . S
C219 C220 1.384 . S
C219 C221 1.479 . S
C219 H237 0.929 . S
C220 C217 1.424 . S
C220 C219 1.384 . S
C220 H238 0.928 . S
C221 C218 1.260 . S
C221 C219 1.479 . S
C222 C217 1.245 . S
C222 C218 1.477 . S
C222 H239 0.932 . S
C223 U206 2.882 . S
C223 C217 1.428 . S
C223 O226 1.301 . S
C223 O227 1.282 . S
O224 U206 2.441 . S
O224 C210 1.249 . S
O225 U206 2.420 . S
O225 C210 1.202 . S
O226 U206 2.455 . S
O226 C223 1.301 . S
O227 U206 2.449 . S
O227 C223 1.282 . S
H228 C201 0.931 . S
H229 C203 0.929 . S
H230 C204 0.930 . S
H231 C205 0.931 . S
H232 C212 0.932 . S
H233 C213 0.930 . S
H234 C214 0.929 . S
H235 C216 0.930 . S
H236 C218 0.932 . S
H237 C219 0.929 . S
H238 C220 0.928 . S
H239 C222 0.932 . S
C240 C241 1.264 . S
C240 C245 1.479 . S
C240 C250 1.465 . S
C241 C240 1.264 . S
C241 C243 1.339 . S
C241 H268 0.931 . S
C242 C243 1.395 . S
C242 C244 1.320 . S
C243 C241 1.339 . S
C243 C242 1.395 . S
C243 H269 0.929 . S
C244 C242 1.320 . S
C244 C245 1.405 . S
C244 H270 0.930 . S
C245 C240 1.479 . S
C245 C244 1.405 . S
C245 H271 0.931 . S
U246 O247 2.454 . S
U246 O248 2.458 . S
U246 C249 2.984 . S
U246 C250 2.847 . S
U246 C263 2.882 . S
U246 O264 2.441 . S
U246 O265 2.420 . S
U246 O266 2.455 . S
U246 O267 2.449 . S
O247 U246 2.454 . S
O247 C249 1.353 . S
O248 U246 2.458 . S
O248 C249 1.286 . S
C249 U246 2.984 . S
C249 O247 1.353 . S
C249 O248 1.286 . S
C249 C251 1.363 . S
C250 C240 1.465 . S
C250 U246 2.847 . S
C250 O264 1.249 . S
C250 O265 1.202 . S
C251 C249 1.363 . S
C251 C253 1.408 . S
C251 C256 1.342 . S
C252 C253 1.310 . S
C252 C255 1.461 . S
C252 H272 0.932 . S
C253 C251 1.408 . S
C253 C252 1.310 . S
C253 H273 0.930 . S
C254 C255 1.474 . S
C254 C256 1.285 . S
C254 H274 0.929 . S
C255 C252 1.461 . S
C255 C254 1.474 . S
C256 C251 1.342 . S
C256 C254 1.285 . S
C256 H275 0.930 . S
C257 C260 1.424 . S
C257 C262 1.245 . S
C257 C263 1.428 . S
C258 C261 1.260 . S
C258 C262 1.477 . S
C258 H276 0.932 . S
C259 C260 1.384 . S
C259 C261 1.479 . S
C259 H277 0.929 . S
C260 C257 1.424 . S
C260 C259 1.384 . S
C260 H278 0.928 . S
C261 C258 1.260 . S
C261 C259 1.479 . S
C262 C257 1.245 . S
C262 C258 1.477 . S
C262 H279 0.932 . S
C263 U246 2.882 . S
C263 C257 1.428 . S
C263 O266 1.301 . S
C263 O267 1.282 . S
O264 U246 2.441 . S
O264 C250 1.249 . S
O265 U246 2.420 . S
O265 C250 1.202 . S
O266 U246 2.455 . S
O266 C263 1.301 . S
O267 U246 2.449 . S
O267 C263 1.282 . S
H268 C241 0.931 . S
H269 C243 0.929 . S
H270 C244 0.930 . S
H271 C245 0.931 . S
H272 C252 0.932 . S
H273 C253 0.930 . S
H274 C254 0.929 . S
H275 C256 0.930 . S
H276 C258 0.932 . S
H277 C259 0.929 . S
H278 C260 0.928 . S
H279 C262 0.932 . S
C280 C281 1.264 . S
C280 C285 1.479 . S
C280 C290 1.465 . S
C281 C280 1.264 . S
C281 C283 1.339 . S
C281 H308 0.931 . S
C282 C283 1.395 . S
C282 C284 1.320 . S
C283 C281 1.339 . S
C283 C282 1.395 . S
C283 H309 0.929 . S
C284 C282 1.320 . S
C284 C285 1.405 . S
C284 H310 0.930 . S
C285 C280 1.479 . S
C285 C284 1.405 . S
C285 H311 0.931 . S
U286 O287 2.454 . S
U286 O288 2.458 . S
U286 C289 2.984 . S
U286 C290 2.847 . S
U286 C303 2.882 . S
U286 O304 2.441 . S
U286 O305 2.420 . S
U286 O306 2.455 . S
U286 O307 2.449 . S
O287 U286 2.454 . S
O287 C289 1.353 . S
O288 U286 2.458 . S
O288 C289 1.286 . S
C289 U286 2.984 . S
C289 O287 1.353 . S
C289 O288 1.286 . S
C289 C291 1.363 . S
C290 C280 1.465 . S
C290 U286 2.847 . S
C290 O304 1.249 . S
C290 O305 1.202 . S
C291 C289 1.363 . S
C291 C293 1.408 . S
C291 C296 1.342 . S
C292 C293 1.310 . S
C292 C295 1.461 . S
C292 H312 0.932 . S
C293 C291 1.408 . S
C293 C292 1.310 . S
C293 H313 0.930 . S
C294 C295 1.474 . S
C294 C296 1.285 . S
C294 H314 0.929 . S
C295 C292 1.461 . S
C295 C294 1.474 . S
C296 C291 1.342 . S
C296 C294 1.285 . S
C296 H315 0.930 . S
C297 C300 1.424 . S
C297 C302 1.245 . S
C297 C303 1.428 . S
C298 C301 1.260 . S
C298 C302 1.477 . S
C298 H316 0.932 . S
C299 C300 1.384 . S
C299 C301 1.479 . S
C299 H317 0.929 . S
C300 C297 1.424 . S
C300 C299 1.384 . S
C300 H318 0.928 . S
C301 C298 1.260 . S
C301 C299 1.479 . S
C302 C297 1.245 . S
C302 C298 1.477 . S
C302 H319 0.932 . S
C303 U286 2.882 . S
C303 C297 1.428 . S
C303 O306 1.301 . S
C303 O307 1.282 . S
O304 U286 2.441 . S
O304 C290 1.249 . S
O305 U286 2.420 . S
O305 C290 1.202 . S
O306 U286 2.455 . S
O306 C303 1.301 . S
O307 U286 2.449 . S
O307 C303 1.282 . S
H308 C281 0.931 . S
H309 C283 0.929 . S
H310 C284 0.930 . S
H311 C285 0.931 . S
H312 C292 0.932 . S
H313 C293 0.930 . S
H314 C294 0.929 . S
H315 C296 0.930 . S
H316 C298 0.932 . S
H317 C299 0.929 . S
H318 C300 0.928 . S
H319 C302 0.932 . S
C320 C321 1.264 . S
C320 C325 1.437 1_545 S
C320 C330 1.465 . S
C321 C320 1.264 . S
C321 C323 1.339 . S
C321 H348 0.931 . S
C322 C323 1.395 . S
C322 C324 1.320 . S
C323 C321 1.339 . S
C323 C322 1.395 . S
C323 H349 0.929 . S
C324 C322 1.320 . S
C324 C325 1.355 1_545 S
C324 H350 0.930 1_545 S
C325 C320 1.437 1_565 S
C325 C324 1.355 1_565 S
C325 H351 1.021 . S
U326 O327 2.454 . S
U326 O328 2.458 . S
U326 C329 2.984 . S
U326 C330 2.847 1_565 S
U326 C343 2.882 1_565 S
U326 O344 2.441 . S
U326 O345 2.420 1_565 S
U326 O346 2.455 1_565 S
U326 O347 2.449 1_565 S
O327 U326 2.454 . S
O327 C329 1.353 . S
O328 U326 2.458 . S
O328 C329 1.286 . S
C329 U326 2.984 . S
C329 O327 1.353 . S
C329 O328 1.286 . S
C329 C331 1.363 . S
C330 C320 1.465 . S
C330 U326 2.847 1_545 S
C330 O344 1.249 1_545 S
C330 O345 1.202 . S
C331 C329 1.363 . S
C331 C333 1.408 . S
C331 C336 1.342 . S
C332 C333 1.310 . S
C332 C335 1.461 . S
C332 H352 0.932 . S
C333 C331 1.408 . S
C333 C332 1.310 . S
C333 H353 0.930 . S
C334 C335 1.474 . S
C334 C336 1.285 . S
C334 H354 0.929 . S
C335 C332 1.461 . S
C335 C334 1.474 . S
C336 C331 1.342 . S
C336 C334 1.285 . S
C336 H355 0.930 . S
C337 C340 1.424 . S
C337 C342 1.245 . S
C337 C343 1.428 . S
C338 C341 1.260 . S
C338 C342 1.477 . S
C338 H356 0.932 . S
C339 C340 1.384 . S
C339 C341 1.479 . S
C339 H357 0.929 . S
C340 C337 1.424 . S
C340 C339 1.384 . S
C340 H358 0.928 . S
C341 C338 1.260 . S
C341 C339 1.479 . S
C342 C337 1.245 . S
C342 C338 1.477 . S
C342 H359 0.932 . S
C343 U326 2.882 1_545 S
C343 C337 1.428 . S
C343 O346 1.301 . S
C343 O347 1.282 . S
O344 U326 2.441 . S
O344 C330 1.249 1_565 S
O345 U326 2.420 1_545 S
O345 C330 1.202 . S
O346 U326 2.455 1_545 S
O346 C343 1.301 . S
O347 U326 2.449 1_545 S
O347 C343 1.282 . S
H348 C321 0.931 . S
H349 C323 0.929 . S
H350 C324 0.930 1_565 S
H351 C325 1.021 . S
H352 C332 0.932 . S
H353 C333 0.930 . S
H354 C334 0.929 . S
H355 C336 0.930 . S
H356 C338 0.932 . S
H357 C339 0.929 . S
H358 C340 0.928 . S
H359 C342 0.932 . S
C360 C361 1.264 . S
C360 C365 1.479 . S
C360 C370 1.465 . S
C361 C360 1.264 . S
C361 C363 1.339 . S
C361 H388 0.931 . S
C362 C363 1.395 . S
C362 C364 1.320 . S
C363 C361 1.339 . S
C363 C362 1.395 . S
C363 H389 0.929 . S
C364 C362 1.320 . S
C364 C365 1.405 . S
C364 H390 0.930 . S
C365 C360 1.479 . S
C365 C364 1.405 . S
C365 H391 0.931 . S
U366 O367 2.460 . S
U366 O368 2.458 . S
U366 C369 2.984 . S
U366 C370 2.847 1_545 S
U366 C383 2.882 . S
U366 O384 2.441 1_545 S
U366 O385 2.420 1_545 S
U366 O386 2.455 . S
U366 O387 2.449 . S
O367 U366 2.460 . S
O367 C369 1.371 . S
O368 U366 2.458 . S
O368 C369 1.286 . S
C369 U366 2.984 . S
C369 O367 1.371 . S
C369 O368 1.286 . S
C369 C371 1.363 . S
C370 C360 1.465 . S
C370 U366 2.847 1_565 S
C370 O384 1.249 . S
C370 O385 1.202 . S
C371 C369 1.363 . S
C371 C373 1.408 . S
C371 C376 1.342 . S
C372 C373 1.310 . S
C372 C375 1.461 . S
C372 H392 0.932 . S
C373 C371 1.408 . S
C373 C372 1.310 . S
C373 H393 0.930 . S
C374 C375 1.474 . S
C374 C376 1.285 . S
C374 H394 0.929 . S
C375 C372 1.461 . S
C375 C374 1.474 . S
C376 C371 1.342 . S
C376 C374 1.285 . S
C376 H395 0.930 . S
C377 C380 1.424 . S
C377 C382 1.245 . S
C377 C383 1.428 . S
C378 C381 1.260 . S
C378 C382 1.477 . S
C378 H396 0.932 . S
C379 C380 1.384 . S
C379 C381 1.479 . S
C379 H397 0.929 . S
C380 C377 1.424 . S
C380 C379 1.384 . S
C380 H398 0.928 . S
C381 C378 1.260 . S
C381 C379 1.479 . S
C382 C377 1.245 . S
C382 C378 1.477 . S
C382 H399 0.932 . S
C383 U366 2.882 . S
C383 C377 1.428 . S
C383 O386 1.301 . S
C383 O387 1.282 . S
O384 U366 2.441 1_565 S
O384 C370 1.249 . S
O385 U366 2.420 1_565 S
O385 C370 1.202 . S
O386 U366 2.455 . S
O386 C383 1.301 . S
O387 U366 2.449 . S
O387 C383 1.282 . S
H388 C361 0.931 . S
H389 C363 0.929 . S
H390 C364 0.930 . S
H391 C365 0.931 . S
H392 C372 0.932 . S
H393 C373 0.930 . S
H394 C374 0.929 . S
H395 C376 0.930 . S
H396 C378 0.932 . S
H397 C379 0.929 . S
H398 C380 0.928 . S
H399 C382 0.932 . S
C400 C401 1.264 . S
C400 C405 1.479 . S
C400 C410 1.465 . S
C401 C400 1.264 . S
C401 C403 1.339 . S
C401 H428 0.931 . S
C402 C403 1.395 . S
C402 C404 1.320 . S
C403 C401 1.339 . S
C403 C402 1.395 . S
C403 H429 0.929 . S
C404 C402 1.320 . S
C404 C405 1.405 . S
C404 H430 0.930 . S
C405 C400 1.479 . S
C405 C404 1.405 . S
C405 H431 0.931 . S
U406 O407 2.453 1_565 S
U406 O408 2.515 . S
U406 C409 3.017 . S
U406 C410 2.773 1_565 S
U406 C423 2.927 . S
U406 O424 2.371 1_565 S
U406 O425 2.357 1_565 S
U406 O426 2.522 . S
U406 O427 2.464 . S
O407 U406 2.453 1_545 S
O407 C409 1.353 1_545 S
O408 U406 2.515 . S
O408 C409 1.286 . S
C409 U406 3.017 . S
C409 O407 1.353 1_565 S
C409 O408 1.286 . S
C409 C411 1.363 . S
C410 C400 1.465 . S
C410 U406 2.773 1_545 S
C410 O424 1.249 . S
C410 O425 1.202 . S
C411 C409 1.363 . S
C411 C413 1.408 . S
C411 C416 1.342 . S
C412 C413 1.310 . S
C412 C415 1.461 . S
C412 H432 0.904 1_565 S
C413 C411 1.408 . S
C413 C412 1.310 . S
C413 H433 0.930 1_565 S
C414 C415 1.474 . S
C414 C416 1.285 . S
C414 H434 0.929 . S
C415 C412 1.461 . S
C415 C414 1.474 . S
C416 C411 1.342 . S
C416 C414 1.285 . S
C416 H435 0.930 . S
C417 C420 1.424 . S
C417 C422 1.245 . S
C417 C423 1.428 . S
C418 C421 1.260 . S
C418 C422 1.477 . S
C418 H436 0.932 . S
C419 C420 1.384 . S
C419 C421 1.479 . S
C419 H437 0.929 . S
C420 C417 1.424 . S
C420 C419 1.384 . S
C420 H438 0.928 . S
C421 C418 1.260 . S
C421 C419 1.479 . S
C422 C417 1.245 . S
C422 C418 1.477 . S
C422 H439 0.932 . S
C423 U406 2.927 . S
C423 C417 1.428 . S
C423 O426 1.301 . S
C423 O427 1.282 . S
O424 U406 2.371 1_545 S
O424 C410 1.249 . S
O425 U406 2.357 1_545 S
O425 C410 1.202 . S
O426 U406 2.522 . S
O426 C423 1.301 . S
O427 U406 2.464 . S
O427 C423 1.282 . S
H428 C401 0.931 . S
H429 C403 0.929 . S
H430 C404 0.930 . S
H431 C405 0.931 . S
H432 C412 0.904 1_545 S
H433 C413 0.930 1_545 S
H434 C414 0.929 . S
H435 C416 0.930 . S
H436 C418 0.932 . S
H437 C419 0.929 . S
H438 C420 0.928 . S
H439 C422 0.932 . S
C440 C441 1.264 . S
C440 C445 1.410 1_565 S
C440 C450 1.465 . S
C441 C440 1.264 . S
C441 C443 1.339 . S
C441 H468 0.931 . S
C442 C443 1.395 . S
C442 C444 1.320 . S
C443 C441 1.339 . S
C443 C442 1.395 . S
C443 H469 0.929 . S
C444 C442 1.320 . S
C444 C445 1.385 1_565 S
C444 H470 0.930 1_565 S
C445 C440 1.410 1_545 S
C445 C444 1.385 1_545 S
C445 H471 1.019 . S
U446 O447 2.454 . S
U446 O448 2.458 . S
U446 C449 2.984 . S
U446 C450 2.847 1_545 S
U446 C463 2.882 1_545 S
U446 O464 2.441 . S
U446 O465 2.420 1_545 S
U446 O466 2.455 1_545 S
U446 O467 2.449 1_545 S
O447 U446 2.454 . S
O447 C449 1.353 . S
O448 U446 2.458 . S
O448 C449 1.286 . S
C449 U446 2.984 . S
C449 O447 1.353 . S
C449 O448 1.286 . S
C449 C451 1.363 . S
C450 C440 1.465 . S
C450 U446 2.847 1_565 S
C450 O464 1.249 1_565 S
C450 O465 1.202 . S
C451 C449 1.363 . S
C451 C453 1.408 . S
C451 C456 1.342 . S
C452 C453 1.310 . S
C452 C455 1.461 . S
C452 H472 0.932 . S
C453 C451 1.408 . S
C453 C452 1.310 . S
C453 H473 0.930 . S
C454 C455 1.474 . S
C454 C456 1.285 . S
C454 H474 0.929 . S
C455 C452 1.461 . S
C455 C454 1.474 . S
C456 C451 1.342 . S
C456 C454 1.285 . S
C456 H475 0.930 . S
C457 C460 1.424 . S
C457 C462 1.245 . S
C457 C463 1.428 . S
C458 C461 1.260 . S
C458 C462 1.477 . S
C458 H476 0.932 . S
C459 C460 1.384 . S
C459 C461 1.479 . S
C459 H477 0.929 . S
C460 C457 1.424 . S
C460 C459 1.384 . S
C460 H478 0.928 . S
C461 C458 1.260 . S
C461 C459 1.479 . S
C462 C457 1.245 . S
C462 C458 1.477 . S
C462 H479 0.932 . S
C463 U446 2.882 1_565 S
C463 C457 1.428 . S
C463 O466 1.301 . S
C463 O467 1.282 . S
O464 U446 2.441 . S
O464 C450 1.249 1_545 S
O465 U446 2.420 1_565 S
O465 C450 1.202 . S
O466 U446 2.455 1_565 S
O466 C463 1.301 . S
O467 U446 2.449 1_565 S
O467 C463 1.282 . S
H468 C441 0.931 . S
H469 C443 0.929 . S
H470 C444 0.930 1_545 S
H471 C445 1.019 . S
H472 C452 0.932 . S
H473 C453 0.930 . S
H474 C454 0.929 . S
H475 C456 0.930 . S
H476 C458 0.932 . S
H477 C459 0.929 . S
H478 C460 0.928 . S
H479 C462 0.932 . S
C480 C481 1.264 . S
C480 C485 1.479 . S
C480 C490 1.465 . S
C481 C480 1.264 . S
C481 C483 1.339 . S
C481 H508 0.931 . S
C482 C483 1.395 . S
C482 C484 1.320 . S
C483 C481 1.339 . S
C483 C482 1.395 . S
C483 H509 0.929 . S
C484 C482 1.320 . S
C484 C485 1.405 . S
C484 H510 0.930 . S
C485 C480 1.479 . S
C485 C484 1.405 . S
C485 H511 0.931 . S
U486 O487 2.454 . S
U486 O488 2.458 . S
U486 C489 2.984 . S
U486 C490 2.847 . S
U486 C503 2.882 . S
U486 O504 2.441 . S
U486 O505 2.420 . S
U486 O506 2.455 . S
U486 O507 2.449 . S
O487 U486 2.454 . S
O487 C489 1.353 . S
O488 U486 2.458 . S
O488 C489 1.286 . S
C489 U486 2.984 . S
C489 O487 1.353 . S
C489 O488 1.286 . S
C489 C491 1.363 . S
C490 C480 1.465 . S
C490 U486 2.847 . S
C490 O504 1.249 . S
C490 O505 1.202 . S
C491 C489 1.363 . S
C491 C493 1.408 . S
C491 C496 1.342 . S
C492 C493 1.310 . S
C492 C495 1.461 . S
C492 H512 0.932 . S
C493 C491 1.408 . S
C493 C492 1.310 . S
C493 H513 0.930 . S
C494 C495 1.474 . S
C494 C496 1.285 . S
C494 H514 0.929 . S
C495 C492 1.461 . S
C495 C494 1.474 . S
C496 C491 1.342 . S
C496 C494 1.285 . S
C496 H515 0.930 . S
C497 C500 1.424 . S
C497 C502 1.245 . S
C497 C503 1.428 . S
C498 C501 1.260 . S
C498 C502 1.477 . S
C498 H516 0.932 . S
C499 C500 1.384 . S
C499 C501 1.479 . S
C499 H517 0.929 . S
C500 C497 1.424 . S
C500 C499 1.384 . S
C500 H518 0.928 . S
C501 C498 1.260 . S
C501 C499 1.479 . S
C502 C497 1.245 . S
C502 C498 1.477 . S
C502 H519 0.932 . S
C503 U486 2.882 . S
C503 C497 1.428 . S
C503 O506 1.301 . S
C503 O507 1.282 . S
O504 U486 2.441 . S
O504 C490 1.249 . S
O505 U486 2.420 . S
O505 C490 1.202 . S
O506 U486 2.455 . S
O506 C503 1.301 . S
O507 U486 2.449 . S
O507 C503 1.282 . S
H508 C481 0.931 . S
H509 C483 0.929 . S
H510 C484 0.930 . S
H511 C485 0.931 . S
H512 C492 0.932 . S
H513 C493 0.930 . S
H514 C494 0.929 . S
H515 C496 0.930 . S
H516 C498 0.932 . S
H517 C499 0.929 . S
H518 C500 0.928 . S
H519 C502 0.932 . S
C520 C521 1.264 . S
C520 C525 1.479 1_655 S
C520 C530 1.465 . S
C521 C520 1.264 . S
C521 C523 1.339 1_655 S
C521 H548 0.931 . S
C522 C523 1.395 . S
C522 C524 1.320 . S
C523 C521 1.339 1_455 S
C523 C522 1.395 . S
C523 H549 0.929 . S
C524 C522 1.320 . S
C524 C525 1.405 . S
C524 H550 0.930 . S
C525 C520 1.479 1_455 S
C525 C524 1.405 . S
C525 H551 0.943 . S
U526 O527 2.454 . S
U526 O528 2.458 . S
U526 C529 2.984 . S
U526 C530 2.847 . S
U526 C543 2.882 . S
U526 O544 2.441 . S
U526 O545 2.420 . S
U526 O546 2.455 . S
U526 O547 2.449 . S
O527 U526 2.454 . S
O527 C529 1.353 . S
O528 U526 2.458 . S
O528 C529 1.286 . S
C529 U526 2.984 . S
C529 O527 1.353 . S
C529 O528 1.286 . S
C529 C531 1.363 . S
C530 C520 1.465 . S
C530 U526 2.847 . S
C530 O544 1.249 . S
C530 O545 1.202 . S
C531 C529 1.363 . S
C531 C533 1.408 . S
C531 C536 1.342 . S
C532 C533 1.310 . S
C532 C535 1.461 . S
C532 H552 0.932 . S
C533 C531 1.408 . S
C533 C532 1.310 . S
C533 H553 0.930 . S
C534 C535 1.474 . S
C534 C536 1.285 . S
C534 H554 0.929 . S
C535 C532 1.461 . S
C535 C534 1.474 . S
C536 C531 1.342 . S
C536 C534 1.285 . S
C536 H555 0.930 . S
C537 C540 1.424 . S
C537 C542 1.245 . S
C537 C543 1.428 . S
C538 C541 1.260 . S
C538 C542 1.477 . S
C538 H556 0.932 . S
C539 C540 1.384 . S
C539 C541 1.479 . S
C539 H557 0.929 . S
C540 C537 1.424 . S
C540 C539 1.384 . S
C540 H558 0.928 . S
C541 C538 1.260 . S
C541 C539 1.479 . S
C542 C537 1.245 . S
C542 C538 1.477 . S
C542 H559 0.932 . S
C543 U526 2.882 . S
C543 C537 1.428 . S
C543 O546 1.301 . S
C543 O547 1.282 . S
O544 U526 2.441 . S
O544 C530 1.249 . S
O545 U526 2.420 . S
O545 C530 1.202 . S
O546 U526 2.455 . S
O546 C543 1.301 . S
O547 U526 2.449 . S
O547 C543 1.282 . S
H548 C521 0.931 . S
H549 C523 0.929 . S
H550 C524 0.930 . S
H551 C525 0.943 . S
H552 C532 0.932 . S
H553 C533 0.930 . S
H554 C534 0.929 . S
H555 C536 0.930 . S
H556 C538 0.932 . S
H557 C539 0.929 . S
H558 C540 0.928 . S
H559 C542 0.932 . S
C560 C561 1.264 . S
C560 C565 1.479 . S
C560 C570 1.465 . S
C561 C560 1.264 . S
C561 C563 1.339 . S
C561 H588 0.931 . S
C562 C563 1.395 . S
C562 C564 1.320 . S
C563 C561 1.339 . S
C563 C562 1.395 . S
C563 H589 0.929 . S
C564 C562 1.320 . S
C564 C565 1.405 . S
C564 H590 0.930 . S
C565 C560 1.479 . S
C565 C564 1.405 . S
C565 H591 0.931 . S
U566 O567 2.454 . S
U566 O568 2.458 . S
U566 C569 2.984 . S
U566 C570 2.847 . S
U566 C583 2.882 . S
U566 O584 2.441 . S
U566 O585 2.420 . S
U566 O586 2.455 . S
U566 O587 2.449 . S
O567 U566 2.454 . S
O567 C569 1.353 . S
O568 U566 2.458 . S
O568 C569 1.286 . S
C569 U566 2.984 . S
C569 O567 1.353 . S
C569 O568 1.286 . S
C569 C571 1.363 . S
C570 C560 1.465 . S
C570 U566 2.847 . S
C570 O584 1.249 . S
C570 O585 1.202 . S
C571 C569 1.363 . S
C571 C573 1.408 . S
C571 C576 1.342 . S
C572 C573 1.310 . S
C572 C575 1.461 . S
C572 H592 0.932 . S
C573 C571 1.408 . S
C573 C572 1.310 . S
C573 H593 0.930 . S
C574 C575 1.474 . S
C574 C576 1.285 . S
C574 H594 0.929 . S
C575 C572 1.461 . S
C575 C574 1.474 . S
C576 C571 1.342 . S
C576 C574 1.285 . S
C576 H595 0.930 . S
C577 C580 1.424 . S
C577 C582 1.245 . S
C577 C583 1.428 . S
C578 C581 1.260 . S
C578 C582 1.477 . S
C578 H596 0.932 . S
C579 C580 1.384 . S
C579 C581 1.479 . S
C579 H597 0.929 . S
C580 C577 1.424 . S
C580 C579 1.384 . S
C580 H598 0.928 . S
C581 C578 1.260 . S
C581 C579 1.479 . S
C582 C577 1.245 . S
C582 C578 1.477 . S
C582 H599 0.932 . S
C583 U566 2.882 . S
C583 C577 1.428 . S
C583 O586 1.301 . S
C583 O587 1.282 . S
O584 U566 2.441 . S
O584 C570 1.249 . S
O585 U566 2.420 . S
O585 C570 1.202 . S
O586 U566 2.455 . S
O586 C583 1.301 . S
O587 U566 2.449 . S
O587 C583 1.282 . S
H588 C561 0.931 . S
H589 C563 0.929 . S
H590 C564 0.930 . S
H591 C565 0.931 . S
H592 C572 0.932 . S
H593 C573 0.930 . S
H594 C574 0.929 . S
H595 C576 0.930 . S
H596 C578 0.932 . S
H597 C579 0.929 . S
H598 C580 0.928 . S
H599 C582 0.932 . S
C600 C601 1.264 . S
C600 C605 1.479 . S
C600 C610 1.465 . S
C601 C600 1.264 . S
C601 C603 1.339 . S
C601 H628 0.931 . S
C602 C603 1.395 . S
C602 C604 1.320 . S
C603 C601 1.339 . S
C603 C602 1.395 . S
C603 H629 0.929 . S
C604 C602 1.320 . S
C604 C605 1.405 . S
C604 H630 0.930 . S
C605 C600 1.479 . S
C605 C604 1.405 . S
C605 H631 0.931 1_655 S
U606 O607 2.454 . S
U606 O608 2.458 . S
U606 C609 2.984 . S
U606 C610 2.847 1_455 S
U606 C623 2.882 1_455 S
U606 O624 2.441 . S
U606 O625 2.420 1_455 S
U606 O626 2.455 . S
U606 O627 2.449 1_455 S
O607 U606 2.454 . S
O607 C609 1.353 . S
O608 U606 2.458 . S
O608 C609 1.286 . S
C609 U606 2.984 . S
C609 O607 1.353 . S
C609 O608 1.286 . S
C609 C611 1.363 . S
C610 C600 1.465 . S
C610 U606 2.847 1_655 S
C610 O624 1.249 1_655 S
C610 O625 1.202 . S
C611 C609 1.363 . S
C611 C613 1.408 . S
C611 C616 1.342 . S
C612 C613 1.310 . S
C612 C615 1.461 . S
C612 H632 0.932 . S
C613 C611 1.408 . S
C613 C612 1.310 . S
C613 H633 0.930 . S
C614 C615 1.474 . S
C614 C616 1.285 . S
C614 H634 0.929 . S
C615 C612 1.461 . S
C615 C614 1.474 . S
C616 C611 1.342 . S
C616 C614 1.285 . S
C616 H635 0.930 . S
C617 C620 1.424 . S
C617 C622 1.245 . S
C617 C623 1.428 . S
C618 C621 1.260 . S
C618 C622 1.477 . S
C618 H636 0.932 . S
C619 C620 1.384 . S
C619 C621 1.479 . S
C619 H637 0.929 . S
C620 C617 1.424 . S
C620 C619 1.384 . S
C620 H638 0.928 . S
C621 C618 1.260 . S
C621 C619 1.479 . S
C622 C617 1.245 . S
C622 C618 1.477 . S
C622 H639 0.932 . S
C623 U606 2.882 1_655 S
C623 C617 1.428 . S
C623 O626 1.301 1_655 S
C623 O627 1.282 . S
O624 U606 2.441 . S
O624 C610 1.249 1_455 S
O625 U606 2.420 1_655 S
O625 C610 1.202 . S
O626 U606 2.455 . S
O626 C623 1.301 1_455 S
O627 U606 2.449 1_655 S
O627 C623 1.282 . S
H628 C601 0.931 . S
H629 C603 0.929 . S
H630 C604 0.930 . S
H631 C605 0.931 1_455 S
H632 C612 0.932 . S
H633 C613 0.930 . S
H634 C614 0.929 . S
H635 C616 0.930 . S
H636 C618 0.932 . S
H637 C619 0.929 . S
H638 C620 0.928 . S
H639 C622 0.932 . S
C640 C641 1.264 . S
C640 C645 1.479 . S
C640 C650 1.465 . S
C641 C640 1.264 . S
C641 C643 1.339 . S
C641 H668 0.931 . S
C642 C643 1.395 . S
C642 C644 1.320 . S
C643 C641 1.339 . S
C643 C642 1.395 . S
C643 H669 0.929 . S
C644 C642 1.320 . S
C644 C645 1.405 . S
C644 H670 0.930 . S
C645 C640 1.479 . S
C645 C644 1.405 . S
C645 H671 0.931 . S
U646 O647 2.454 . S
U646 O648 2.458 . S
U646 C649 2.984 . S
U646 C650 2.847 . S
U646 C663 2.882 . S
U646 O664 2.441 . S
U646 O665 2.420 . S
U646 O666 2.455 . S
U646 O667 2.449 . S
O647 U646 2.454 . S
O647 C649 1.353 . S
O648 U646 2.458 . S
O648 C649 1.286 . S
C649 U646 2.984 . S
C649 O647 1.353 . S
C649 O648 1.286 . S
C649 C651 1.363 . S
C650 C640 1.465 . S
C650 U646 2.847 . S
C650 O664 1.249 . S
C650 O665 1.202 . S
C651 C649 1.363 . S
C651 C653 1.408 . S
C651 C656 1.342 . S
C652 C653 1.310 . S
C652 C655 1.461 . S
C652 H672 0.932 . S
C653 C651 1.408 . S
C653 C652 1.310 . S
C653 H673 0.930 . S
C654 C655 1.474 . S
C654 C656 1.285 . S
C654 H674 0.929 . S
C655 C652 1.461 . S
C655 C654 1.474 . S
C656 C651 1.342 . S
C656 C654 1.285 . S
C656 H675 0.930 . S
C657 C660 1.424 . S
C657 C662 1.245 . S
C657 C663 1.428 . S
C658 C661 1.260 . S
C658 C662 1.477 . S
C658 H676 0.932 . S
C659 C660 1.384 . S
C659 C661 1.479 . S
C659 H677 0.929 . S
C660 C657 1.424 . S
C660 C659 1.384 . S
C660 H678 0.928 . S
C661 C658 1.260 . S
C661 C659 1.479 . S
C662 C657 1.245 . S
C662 C658 1.477 . S
C662 H679 0.932 . S
C663 U646 2.882 . S
C663 C657 1.428 . S
C663 O666 1.301 . S
C663 O667 1.282 . S
O664 U646 2.441 . S
O664 C650 1.249 . S
O665 U646 2.420 . S
O665 C650 1.202 . S
O666 U646 2.455 . S
O666 C663 1.301 . S
O667 U646 2.449 . S
O667 C663 1.282 . S
H668 C641 0.931 . S
H669 C643 0.929 . S
H670 C644 0.930 . S
H671 C645 0.931 . S
H672 C652 0.932 . S
H673 C653 0.930 . S
H674 C654 0.929 . S
H675 C656 0.930 . S
H676 C658 0.932 . S
H677 C659 0.929 . S
H678 C660 0.928 . S
H679 C662 0.932 . S
C680 C681 1.264 . S
C680 C685 1.479 . S
C680 C690 1.465 . S
C681 C680 1.264 . S
C681 C683 1.339 . S
C681 H708 0.931 . S
C682 C683 1.395 . S
C682 C684 1.320 . S
C683 C681 1.339 . S
C683 C682 1.395 . S
C683 H709 0.929 . S
C684 C682 1.320 . S
C684 C685 1.405 . S
C684 H710 0.930 . S
C685 C680 1.479 . S
C685 C684 1.405 . S
C685 H711 0.931 . S
U686 O687 2.454 . S
U686 O688 2.458 . S
U686 C689 2.984 . S
U686 C690 2.847 . S
U686 C703 2.882 . S
U686 O704 2.441 . S
U686 O705 2.420 . S
U686 O706 2.455 . S
U686 O707 2.449 . S
O687 U686 2.454 . S
O687 C689 1.353 . S
O688 U686 2.458 . S
O688 C689 1.286 . S
C689 U686 2.984 . S
C689 O687 1.353 . S
C689 O688 1.286 . S
C689 C691 1.363 . S
C690 C680 1.465 . S
C690 U686 2.847 . S
C690 O704 1.249 . S
C690 O705 1.202 . S
C691 C689 1.363 . S
C691 C693 1.408 . S
C691 C696 1.342 . S
C692 C693 1.310 . S
C692 C695 1.461 . S
C692 H712 0.932 . S
C693 C691 1.408 . S
C693 C692 1.310 . S
C693 H713 0.930 . S
C694 C695 1.474 . S
C694 C696 1.285 . S
C694 H714 0.929 . S
C695 C692 1.461 . S
C695 C694 1.474 . S
C696 C691 1.342 . S
C696 C694 1.285 . S
C696 H715 0.930 . S
C697 C700 1.424 . S
C697 C702 1.245 . S
C697 C703 1.428 . S
C698 C701 1.260 . S
C698 C702 1.477 . S
C698 H716 0.932 . S
C699 C700 1.384 . S
C699 C701 1.479 . S
C699 H717 0.929 . S
C700 C697 1.424 . S
C700 C699 1.384 . S
C700 H718 0.928 . S
C701 C698 1.260 . S
C701 C699 1.479 . S
C702 C697 1.245 . S
C702 C698 1.477 . S
C702 H719 0.932 . S
C703 U686 2.882 . S
C703 C697 1.428 . S
C703 O706 1.301 . S
C703 O707 1.282 . S
O704 U686 2.441 . S
O704 C690 1.249 . S
O705 U686 2.420 . S
O705 C690 1.202 . S
O706 U686 2.455 . S
O706 C703 1.301 . S
O707 U686 2.449 . S
O707 C703 1.282 . S
H708 C681 0.931 . S
H709 C683 0.929 . S
H710 C684 0.930 . S
H711 C685 0.931 . S
H712 C692 0.932 . S
H713 C693 0.930 . S
H714 C694 0.929 . S
H715 C696 0.930 . S
H716 C698 0.932 . S
H717 C699 0.929 . S
H718 C700 0.928 . S
H719 C702 0.932 . S
C720 C721 1.264 . S
C720 C725 1.479 . S
C720 C730 1.465 . S
C721 C720 1.264 . S
C721 C723 1.339 . S
C721 H748 0.931 . S
C722 C723 1.395 . S
C722 C724 1.320 . S
C723 C721 1.339 . S
C723 C722 1.395 . S
C723 H749 0.929 . S
C724 C722 1.320 . S
C724 C725 1.405 . S
C724 H750 0.930 . S
C725 C720 1.479 . S
C725 C724 1.405 . S
C725 H751 0.931 . S
U726 O727 2.454 . S
U726 O728 2.458 . S
U726 C729 2.984 . S
U726 C730 2.847 . S
U726 C743 2.882 . S
U726 O744 2.441 . S
U726 O745 2.420 . S
U726 O746 2.455 . S
U726 O747 2.449 . S
O727 U726 2.454 . S
O727 C729 1.353 . S
O728 U726 2.458 . S
O728 C729 1.286 . S
C729 U726 2.984 . S
C729 O727 1.353 . S
C729 O728 1.286 . S
C729 C731 1.363 . S
C730 C720 1.465 . S
C730 U726 2.847 . S
C730 O744 1.249 . S
C730 O745 1.202 . S
C731 C729 1.363 . S
C731 C733 1.408 . S
C731 C736 1.342 . S
C732 C733 1.310 . S
C732 C735 1.461 . S
C732 H752 0.932 . S
C733 C731 1.408 . S
C733 C732 1.310 . S
C733 H753 0.930 . S
C734 C735 1.474 . S
C734 C736 1.285 . S
C734 H754 0.929 . S
C735 C732 1.461 . S
C735 C734 1.474 . S
C736 C731 1.342 . S
C736 C734 1.285 . S
C736 H755 0.930 . S
C737 C740 1.424 . S
C737 C742 1.245 . S
C737 C743 1.428 . S
C738 C741 1.260 . S
C738 C742 1.477 . S
C738 H756 0.932 . S
C739 C740 1.384 . S
C739 C741 1.479 . S
C739 H757 0.929 . S
C740 C737 1.424 . S
C740 C739 1.384 . S
C740 H758 0.928 . S
C741 C738 1.260 . S
C741 C739 1.479 . S
C742 C737 1.245 . S
C742 C738 1.477 . S
C742 H759 0.932 . S
C743 U726 2.882 . S
C743 C737 1.428 . S
C743 O746 1.301 . S
C743 O747 1.282 . S
O744 U726 2.441 . S
O744 C730 1.249 . S
O745 U726 2.420 . S
O745 C730 1.202 . S
O746 U726 2.455 . S
O746 C743 1.301 . S
O747 U726 2.449 . S
O747 C743 1.282 . S
H748 C721 0.931 . S
H749 C723 0.929 . S
H750 C724 0.930 . S
H751 C725 0.931 . S
H752 C732 0.932 . S
H753 C733 0.930 . S
H754 C734 0.929 . S
H755 C736 0.930 . S
H756 C738 0.932 . S
H757 C739 0.929 . S
H758 C740 0.928 . S
H759 C742 0.932 . S
C760 C761 1.264 . S
C760 C765 1.479 . S
C760 C770 1.465 . S
C761 C760 1.264 . S
C761 C763 1.339 . S
C761 H788 0.931 . S
C762 C763 1.395 . S
C762 C764 1.320 . S
C763 C761 1.339 . S
C763 C762 1.395 . S
C763 H789 0.929 . S
C764 C762 1.320 . S
C764 C765 1.405 . S
C764 H790 0.930 . S
C765 C760 1.479 . S
C765 C764 1.405 . S
C765 H791 0.931 . S
U766 O767 2.454 . S
U766 O768 2.458 . S
U766 C769 2.984 . S
U766 C770 2.847 . S
U766 C783 2.882 . S
U766 O784 2.441 . S
U766 O785 2.420 . S
U766 O786 2.455 . S
U766 O787 2.449 . S
O767 U766 2.454 . S
O767 C769 1.353 . S
O768 U766 2.458 . S
O768 C769 1.286 . S
C769 U766 2.984 . S
C769 O767 1.353 . S
C769 O768 1.286 . S
C769 C771 1.363 . S
C770 C760 1.465 . S
C770 U766 2.847 . S
C770 O784 1.249 . S
C770 O785 1.202 . S
C771 C769 1.363 . S
C771 C773 1.408 . S
C771 C776 1.342 . S
C772 C773 1.310 . S
C772 C775 1.461 . S
C772 H792 0.932 . S
C773 C771 1.408 . S
C773 C772 1.310 . S
C773 H793 0.930 . S
C774 C775 1.474 . S
C774 C776 1.285 . S
C774 H794 0.929 . S
C775 C772 1.461 . S
C775 C774 1.474 . S
C776 C771 1.342 . S
C776 C774 1.285 . S
C776 H795 0.930 . S
C777 C780 1.424 . S
C777 C782 1.245 . S
C777 C783 1.428 . S
C778 C781 1.260 . S
C778 C782 1.477 . S
C778 H796 0.932 . S
C779 C780 1.384 . S
C779 C781 1.479 . S
C779 H797 0.929 . S
C780 C777 1.424 . S
C780 C779 1.384 . S
C780 H798 0.928 . S
C781 C778 1.260 . S
C781 C779 1.479 . S
C782 C777 1.245 . S
C782 C778 1.477 . S
C782 H799 0.932 . S
C783 U766 2.882 . S
C783 C777 1.428 . S
C783 O786 1.301 . S
C783 O787 1.282 . S
O784 U766 2.441 . S
O784 C770 1.249 . S
O785 U766 2.420 . S
O785 C770 1.202 . S
O786 U766 2.455 . S
O786 C783 1.301 . S
O787 U766 2.449 . S
O787 C783 1.282 . S
H788 C761 0.931 . S
H789 C763 0.929 . S
H790 C764 0.930 . S
H791 C765 0.931 . S
H792 C772 0.932 . S
H793 C773 0.930 . S
H794 C774 0.929 . S
H795 C776 0.930 . S
H796 C778 0.932 . S
H797 C779 0.929 . S
H798 C780 0.928 . S
H799 C782 0.932 . S
C800 C801 1.264 . S
C800 C805 1.479 . S
C800 C810 1.465 . S
C801 C800 1.264 . S
C801 C803 1.339 . S
C801 H828 0.931 . S
C802 C803 1.395 . S
C802 C804 1.320 . S
C803 C801 1.339 . S
C803 C802 1.395 . S
C803 H829 0.929 . S
C804 C802 1.320 . S
C804 C805 1.405 . S
C804 H830 0.930 . S
C805 C800 1.479 . S
C805 C804 1.405 . S
C805 H831 0.931 . S
U806 O807 2.454 . S
U806 O808 2.458 . S
U806 C809 2.984 . S
U806 C810 2.847 . S
U806 C823 2.882 . S
U806 O824 2.441 . S
U806 O825 2.420 . S
U806 O826 2.455 . S
U806 O827 2.449 . S
O807 U806 2.454 . S
O807 C809 1.353 . S
O808 U806 2.458 . S
O808 C809 1.286 . S
C809 U806 2.984 . S
C809 O807 1.353 . S
C809 O808 1.286 . S
C809 C811 1.363 . S
C810 C800 1.465 . S
C810 U806 2.847 . S
C810 O824 1.249 . S
C810 O825 1.202 . S
C811 C809 1.363 . S
C811 C813 1.408 . S
C811 C816 1.342 . S
C812 C813 1.310 . S
C812 C815 1.461 . S
C812 H832 0.932 . S
C813 C811 1.408 . S
C813 C812 1.310 . S
C813 H833 0.930 . S
C814 C815 1.474 . S
C814 C816 1.285 . S
C814 H834 0.929 . S
C815 C812 1.461 . S
C815 C814 1.474 . S
C816 C811 1.342 . S
C816 C814 1.285 . S
C816 H835 0.930 . S
C817 C820 1.424 . S
C817 C822 1.245 . S
C817 C823 1.428 . S
C818 C821 1.260 . S
C818 C822 1.477 . S
C818 H836 0.932 . S
C819 C820 1.384 . S
C819 C821 1.479 . S
C819 H837 0.929 . S
C820 C817 1.424 . S
C820 C819 1.384 . S
C820 H838 0.928 . S
C821 C818 1.260 . S
C821 C819 1.479 . S
C822 C817 1.245 . S
C822 C818 1.477 . S
C822 H839 0.932 . S
C823 U806 2.882 . S
C823 C817 1.428 . S
C823 O826 1.301 . S
C823 O827 1.282 . S
O824 U806 2.441 . S
O824 C810 1.249 . S
O825 U806 2.420 . S
O825 C810 1.202 . S
O826 U806 2.455 . S
O826 C823 1.301 . S
O827 U806 2.449 . S
O827 C823 1.282 . S
H828 C801 0.931 . S
H829 C803 0.929 . S
H830 C804 0.930 . S
H831 C805 0.931 . S
H832 C812 0.932 . S
H833 C813 0.930 . S
H834 C814 0.929 . S
H835 C816 0.930 . S
H836 C818 0.932 . S
H837 C819 0.929 . S
H838 C820 0.928 . S
H839 C822 0.932 . S
C840 C841 1.264 . S
C840 C845 1.479 . S
C840 C850 1.465 . S
C841 C840 1.264 . S
C841 C843 1.339 . S
C841 H868 0.931 . S
C842 C843 1.395 . S
C842 C844 1.320 . S
C843 C841 1.339 . S
C843 C842 1.395 . S
C843 H869 0.929 . S
C844 C842 1.320 . S
C844 C845 1.405 . S
C844 H870 0.930 . S
C845 C840 1.479 . S
C845 C844 1.405 . S
C845 H871 0.931 . S
U846 O847 2.454 . S
U846 O848 2.458 . S
U846 C849 2.984 . S
U846 C850 2.847 . S
U846 C863 2.882 . S
U846 O864 2.441 . S
U846 O865 2.420 . S
U846 O866 2.455 . S
U846 O867 2.449 . S
O847 U846 2.454 . S
O847 C849 1.353 . S
O848 U846 2.458 . S
O848 C849 1.286 . S
C849 U846 2.984 . S
C849 O847 1.353 . S
C849 O848 1.286 . S
C849 C851 1.363 . S
C850 C840 1.465 . S
C850 U846 2.847 . S
C850 O864 1.249 . S
C850 O865 1.202 . S
C851 C849 1.363 . S
C851 C853 1.408 . S
C851 C856 1.342 . S
C852 C853 1.310 . S
C852 C855 1.461 . S
C852 H872 0.932 . S
C853 C851 1.408 . S
C853 C852 1.310 . S
C853 H873 0.930 . S
C854 C855 1.474 . S
C854 C856 1.285 . S
C854 H874 0.929 . S
C855 C852 1.461 . S
C855 C854 1.474 . S
C856 C851 1.342 . S
C856 C854 1.285 . S
C856 H875 0.930 . S
C857 C860 1.424 . S
C857 C862 1.245 . S
C857 C863 1.428 . S
C858 C861 1.260 . S
C858 C862 1.477 . S
C858 H876 0.932 . S
C859 C860 1.384 . S
C859 C861 1.479 . S
C859 H877 0.929 . S
C860 C857 1.424 . S
C860 C859 1.384 . S
C860 H878 0.928 . S
C861 C858 1.260 . S
C861 C859 1.479 . S
C862 C857 1.245 . S
C862 C858 1.477 . S
C862 H879 0.932 . S
C863 U846 2.882 . S
C863 C857 1.428 . S
C863 O866 1.301 . S
C863 O867 1.282 . S
O864 U846 2.441 . S
O864 C850 1.249 . S
O865 U846 2.420 . S
O865 C850 1.202 . S
O866 U846 2.455 . S
O866 C863 1.301 . S
O867 U846 2.449 . S
O867 C863 1.282 . S
H868 C841 0.931 . S
H869 C843 0.929 . S
H870 C844 0.930 . S
H871 C845 0.931 . S
H872 C852 0.932 . S
H873 C853 0.930 . S
H874 C854 0.929 . S
H875 C856 0.930 . S
H876 C858 0.932 . S
H877 C859 0.929 . S
H878 C860 0.928 . S
H879 C862 0.932 . S
C880 C881 1.264 . S
C880 C885 1.479 . S
C880 C890 1.465 . S
C881 C880 1.264 . S
C881 C883 1.339 . S
C881 H908 0.931 . S
C882 C883 1.395 . S
C882 C884 1.320 . S
C883 C881 1.339 . S
C883 C882 1.395 . S
C883 H909 0.929 . S
C884 C882 1.320 . S
C884 C885 1.405 . S
C884 H910 0.930 . S
C885 C880 1.479 . S
C885 C884 1.405 . S
C885 H911 0.931 . S
U886 O887 2.454 . S
U886 O888 2.458 . S
U886 C889 2.984 . S
U886 C890 2.847 . S
U886 C903 2.882 . S
U886 O904 2.441 . S
U886 O905 2.420 . S
U886 O906 2.455 . S
U886 O907 2.449 . S
O887 U886 2.454 . S
O887 C889 1.353 . S
O888 U886 2.458 . S
O888 C889 1.286 . S
C889 U886 2.984 . S
C889 O887 1.353 . S
C889 O888 1.286 . S
C889 C891 1.363 . S
C890 C880 1.465 . S
C890 U886 2.847 . S
C890 O904 1.249 . S
C890 O905 1.202 . S
C891 C889 1.363 . S
C891 C893 1.408 . S
C891 C896 1.342 . S
C892 C893 1.310 . S
C892 C895 1.461 . S
C892 H912 0.932 . S
C893 C891 1.408 . S
C893 C892 1.310 . S
C893 H913 0.930 . S
C894 C895 1.474 . S
C894 C896 1.285 . S
C894 H914 0.929 . S
C895 C892 1.461 . S
C895 C894 1.474 . S
C896 C891 1.342 . S
C896 C894 1.285 . S
C896 H915 0.930 . S
C897 C900 1.424 . S
C897 C902 1.245 . S
C897 C903 1.428 . S
C898 C901 1.260 . S
C898 C902 1.477 . S
C898 H916 0.932 . S
C899 C900 1.384 . S
C899 C901 1.479 . S
C899 H917 0.929 . S
C900 C897 1.424 . S
C900 C899 1.384 . S
C900 H918 0.928 . S
C901 C898 1.260 . S
C901 C899 1.479 . S
C902 C897 1.245 . S
C902 C898 1.477 . S
C902 H919 0.932 . S
C903 U886 2.882 . S
C903 C897 1.428 . S
C903 O906 1.301 . S
C903 O907 1.282 . S
O904 U886 2.441 . S
O904 C890 1.249 . S
O905 U886 2.420 . S
O905 C890 1.202 . S
O906 U886 2.455 . S
O906 C903 1.301 . S
O907 U886 2.449 . S
O907 C903 1.282 . S
H908 C881 0.931 . S
H909 C883 0.929 . S
H910 C884 0.930 . S
H911 C885 0.931 . S
H912 C892 0.932 . S
H913 C893 0.930 . S
H914 C894 0.929 . S
H915 C896 0.930 . S
H916 C898 0.932 . S
H917 C899 0.929 . S
H918 C900 0.928 . S
H919 C902 0.932 . S
C920 C921 1.264 . S
C920 C925 1.479 1_565 S
C920 C930 1.465 . S
C921 C920 1.264 . S
C921 C923 1.339 . S
C921 H948 0.931 . S
C922 C923 1.395 . S
C922 C924 1.245 1_565 S
C923 C921 1.339 . S
C923 C922 1.395 . S
C923 H949 0.929 . S
C924 C922 1.245 1_545 S
C924 C925 1.441 . S
C924 H950 0.973 . S
C925 C920 1.479 1_545 S
C925 C924 1.441 . S
C925 H951 0.931 . S
U926 O927 2.494 . S
U926 O928 2.494 . S
U926 C929 3.027 . S
U926 C930 2.831 1_545 S
U926 C943 2.857 1_545 S
U926 O944 2.443 . S
U926 O945 2.389 1_545 S
U926 O946 2.448 1_545 S
U926 O947 2.411 1_545 S
O927 U926 2.494 . S
O927 C929 1.353 . S
O928 U926 2.494 . S
O928 C929 1.286 . S
C929 U926 3.027 . S
C929 O927 1.353 . S
C929 O928 1.286 . S
C929 C931 1.363 . S
C930 C920 1.465 . S
C930 U926 2.831 1_565 S
C930 O944 1.249 1_565 S
C930 O945 1.202 . S
C931 C929 1.363 . S
C931 C933 1.408 . S
C931 C936 1.342 . S
C932 C933 1.310 . S
C932 C935 1.461 . S
C932 H952 0.932 . S
C933 C931 1.408 . S
C933 C932 1.310 . S
C933 H953 0.930 . S
C934 C935 1.474 . S
C934 C936 1.285 . S
C934 H954 0.929 . S
C935 C932 1.461 . S
C935 C934 1.474 . S
C936 C931 1.342 . S
C936 C934 1.285 . S
C936 H955 0.930 . S
C937 C940 1.424 . S
C937 C942 1.245 . S
C937 C943 1.428 . S
C938 C941 1.260 . S
C938 C942 1.477 . S
C938 H956 0.932 . S
C939 C940 1.384 . S
C939 C941 1.479 . S
C939 H957 0.929 . S
C940 C937 1.424 . S
C940 C939 1.384 . S
C940 H958 0.928 . S
C941 C938 1.260 . S
C941 C939 1.479 . S
C942 C937 1.245 . S
C942 C938 1.477 . S
C942 H959 0.932 . S
C943 U926 2.857 1_565 S
C943 C937 1.428 . S
C943 O946 1.301 . S
C943 O947 1.282 . S
O944 U926 2.443 . S
O944 C930 1.249 1_545 S
O945 U926 2.389 1_565 S
O945 C930 1.202 . S
O946 U926 2.448 1_565 S
O946 C943 1.301 . S
O947 U926 2.411 1_565 S
O947 C943 1.282 . S
H948 C921 0.931 . S
H949 C923 0.929 . S
H950 C924 0.973 . S
H951 C925 0.931 . S
H952 C932 0.932 . S
H953 C933 0.930 . S
H954 C934 0.929 . S
H955 C936 0.930 . S
H956 C938 0.932 . S
H957 C939 0.929 . S
H958 C940 0.928 . S
H959 C942 0.932 . S
C960 C961 1.264 . S
C960 C965 1.479 . S
C960 C970 1.465 . S
C961 C960 1.264 . S
C961 C963 1.339 . S
C961 H988 0.931 . S
C962 C963 1.395 . S
C962 C964 1.320 . S
C963 C961 1.339 . S
C963 C962 1.395 . S
C963 H989 0.929 . S
C964 C962 1.320 . S
C964 C965 1.405 . S
C964 H990 0.930 . S
C965 C960 1.479 . S
C965 C964 1.405 . S
C965 H991 0.931 . S
U966 O967 2.454 . S
U966 O968 2.458 . S
U966 C969 2.984 . S
U966 C970 2.847 . S
U966 C983 2.882 . S
U966 O984 2.441 . S
U966 O985 2.420 . S
U966 O986 2.455 . S
U966 O987 2.449 . S
O967 U966 2.454 . S
O967 C969 1.353 . S
O968 U966 2.458 . S
O968 C969 1.286 . S
C969 U966 2.984 . S
C969 O967 1.353 . S
C969 O968 1.286 . S
C969 C971 1.363 1_565 S
C970 C960 1.465 . S
C970 U966 2.847 . S
C970 O984 1.249 . S
C970 O985 1.202 . S
C971 C969 1.363 1_545 S
C971 C973 1.408 . S
C971 C976 1.342 . S
C972 C973 1.310 . S
C972 C975 1.461 . S
C972 H992 0.932 . S
C973 C971 1.408 . S
C973 C972 1.310 . S
C973 H993 0.930 . S
C974 C975 1.474 . S
C974 C976 1.285 . S
C974 H994 0.929 . S
C975 C972 1.461 . S
C975 C974 1.474 . S
C976 C971 1.342 . S
C976 C974 1.285 . S
C976 H995 0.930 . S
C977 C980 1.424 . S
C977 C982 1.245 . S
C977 C983 1.428 . S
C978 C981 1.260 . S
C978 C982 1.477 . S
C978 H996 0.932 . S
C979 C980 1.384 . S
C979 C981 1.479 . S
C979 H997 0.929 . S
C980 C977 1.424 . S
C980 C979 1.384 . S
C980 H998 0.928 . S
C981 C978 1.260 . S
C981 C979 1.479 . S
C982 C977 1.245 . S
C982 C978 1.477 . S
C982 H999 0.932 . S
C983 U966 2.882 . S
C983 C977 1.428 . S
C983 O986 1.301 . S
C983 O987 1.282 . S
O984 U966 2.441 . S
O984 C970 1.249 . S
O985 U966 2.420 . S
O985 C970 1.202 . S
O986 U966 2.455 . S
O986 C983 1.301 . S
O987 U966 2.449 . S
O987 C983 1.282 . S
H988 C961 0.931 . S
H989 C963 0.929 . S
H990 C964 0.930 . S
H991 C965 0.931 . S
H992 C972 0.932 . S
H993 C973 0.930 . S
H994 C974 0.929 . S
H995 C976 0.930 . S
H996 C978 0.932 . S
H997 C979 0.929 . S
H998 C980 0.928 . S
H999 C982 0.932 . S
C1000 C1001 1.264 . S
C1000 C1005 1.479 . S
C1000 C1010 1.465 . S
C1001 C1000 1.264 . S
C1001 C1003 1.339 . S
C1001 H1028 0.931 . S
C1002 C1003 1.395 . S
C1002 C1004 1.320 . S
C1003 C1001 1.339 . S
C1003 C1002 1.395 . S
C1003 H1029 0.929 . S
C1004 C1002 1.320 . S
C1004 C1005 1.405 . S
C1004 H1030 0.930 . S
C1005 C1000 1.479 . S
C1005 C1004 1.405 . S
C1005 H1031 0.931 . S
U1006 O1007 2.454 . S
U1006 O1008 2.458 1_565 S
U1006 C1009 2.984 1_565 S
U1006 C1010 2.847 . S
U1006 C1023 2.882 1_565 S
U1006 O1024 2.441 . S
U1006 O1025 2.420 . S
U1006 O1026 2.455 1_565 S
U1006 O1027 2.449 1_565 S
O1007 U1006 2.454 . S
O1007 C1009 1.351 1_565 S
O1008 U1006 2.458 1_545 S
O1008 C1009 1.287 . S
C1009 U1006 2.984 1_545 S
C1009 O1007 1.351 1_545 S
C1009 O1008 1.287 . S
C1009 C1011 1.364 . S
C1010 C1000 1.465 . S
C1010 U1006 2.847 . S
C1010 O1024 1.249 . S
C1010 O1025 1.202 . S
C1011 C1009 1.364 . S
C1011 C1013 1.408 1_545 S
C1011 C1016 1.342 . S
C1012 C1013 1.310 . S
C1012 C1015 1.461 1_565 S
C1012 H1032 0.932 . S
C1013 C1011 1.408 1_565 S
C1013 C1012 1.310 . S
C1013 H1033 0.930 . S
C1014 C1015 1.474 . S
C1014 C1016 1.285 . S
C1014 H1034 0.929 . S
C1015 C1012 1.461 1_545 S
C1015 C1014 1.474 . S
C1016 C1011 1.342 . S
C1016 C1014 1.285 . S
C1016 H1035 0.930 . S
C1017 C1020 1.424 . S
C1017 C1022 1.245 . S
C1017 C1023 1.428 . S
C1018 C1021 1.260 . S
C1018 C1022 1.477 . S
C1018 H1036 0.932 . S
C1019 C1020 1.384 . S
C1019 C1021 1.479 . S
C1019 H1037 0.929 . S
C1020 C1017 1.424 . S
C1020 C1019 1.384 . S
C1020 H1038 0.928 . S
C1021 C1018 1.260 . S
C1021 C1019 1.479 . S
C1022 C1017 1.245 . S
C1022 C1018 1.477 . S
C1022 H1039 0.932 . S
C1023 U1006 2.882 1_545 S
C1023 C1017 1.428 . S
C1023 O1026 1.301 . S
C1023 O1027 1.282 . S
O1024 U1006 2.441 . S
O1024 C1010 1.249 . S
O1025 U1006 2.420 . S
O1025 C1010 1.202 . S
O1026 U1006 2.455 1_545 S
O1026 C1023 1.301 . S
O1027 U1006 2.449 1_545 S
O1027 C1023 1.282 . S
H1028 C1001 0.931 . S
H1029 C1003 0.929 . S
H1030 C1004 0.930 . S
H1031 C1005 0.931 . S
H1032 C1012 0.932 . S
H1033 C1013 0.930 . S
H1034 C1014 0.929 . S
H1035 C1016 0.930 . S
H1036 C1018 0.932 . S
H1037 C1019 0.929 . S
H1038 C1020 0.928 . S
H1039 C1022 0.932 . S
C1040 C1041 1.264 . S
C1040 C1045 1.479 . S
C1040 C1050 1.465 . S
C1041 C1040 1.264 . S
C1041 C1043 1.339 . S
C1041 H1068 0.931 . S
C1042 C1043 1.395 . S
C1042 C1044 1.320 . S
C1043 C1041 1.339 . S
C1043 C1042 1.395 . S
C1043 H1069 0.929 . S
C1044 C1042 1.320 . S
C1044 C1045 1.405 . S
C1044 H1070 0.930 . S
C1045 C1040 1.479 . S
C1045 C1044 1.405 . S
C1045 H1071 0.931 . S
U1046 O1047 2.471 . S
U1046 O1048 2.423 1_565 S
U1046 C1049 2.974 1_565 S
U1046 C1050 2.904 . S
U1046 C1063 2.835 1_565 S
U1046 O1064 2.501 . S
U1046 O1065 2.464 . S
U1046 O1066 2.396 1_565 S
U1046 O1067 2.424 1_565 S
O1047 U1046 2.471 . S
O1047 C1049 1.353 1_565 S
O1048 U1046 2.423 1_545 S
O1048 C1049 1.286 . S
C1049 U1046 2.974 1_545 S
C1049 O1047 1.353 1_545 S
C1049 O1048 1.286 . S
C1049 C1051 1.363 . S
C1050 C1040 1.465 . S
C1050 U1046 2.904 . S
C1050 O1064 1.249 . S
C1050 O1065 1.202 . S
C1051 C1049 1.363 . S
C1051 C1053 1.408 . S
C1051 C1056 1.342 . S
C1052 C1053 1.310 . S
C1052 C1055 1.461 . S
C1052 H1072 0.932 . S
C1053 C1051 1.408 . S
C1053 C1052 1.310 . S
C1053 H1073 0.930 1_545 S
C1054 C1055 1.474 . S
C1054 C1056 1.285 . S
C1054 H1074 0.929 . S
C1055 C1052 1.461 . S
C1055 C1054 1.474 . S
C1056 C1051 1.342 . S
C1056 C1054 1.285 . S
C1056 H1075 0.930 . S
C1057 C1060 1.424 . S
C1057 C1062 1.245 . S
C1057 C1063 1.428 . S
C1058 C1061 1.260 . S
C1058 C1062 1.477 . S
C1058 H1076 0.932 . S
C1059 C1060 1.384 . S
C1059 C1061 1.479 . S
C1059 H1077 0.929 . S
C1060 C1057 1.424 . S
C1060 C1059 1.384 . S
C1060 H1078 0.928 . S
C1061 C1058 1.260 . S
C1061 C1059 1.479 . S
C1062 C1057 1.245 . S
C1062 C1058 1.477 . S
C1062 H1079 0.932 . S
C1063 U1046 2.835 1_545 S
C1063 C1057 1.428 . S
C1063 O1066 1.301 . S
C1063 O1067 1.282 . S
O1064 U1046 2.501 . S
O1064 C1050 1.249 . S
O1065 U1046 2.464 . S
O1065 C1050 1.202 . S
O1066 U1046 2.396 1_545 S
O1066 C1063 1.301 . S
O1067 U1046 2.424 1_545 S
O1067 C1063 1.282 . S
H1068 C1041 0.931 . S
H1069 C1043 0.929 . S
H1070 C1044 0.930 . S
H1071 C1045 0.931 . S
H1072 C1052 0.932 . S
H1073 C1053 0.930 1_565 S
H1074 C1054 0.929 . S
H1075 C1056 0.930 . S
H1076 C1058 0.932 . S
H1077 C1059 0.929 . S
H1078 C1060 0.928 . S
H1079 C1062 0.932 . S
C1080 C1081 1.264 . S
C1080 C1085 1.479 . S
C1080 C1090 1.465 . S
C1081 C1080 1.264 . S
C1081 C1083 1.339 . S
C1081 H1108 0.931 . S
C1082 C1083 1.395 . S
C1082 C1084 1.320 . S
C1083 C1081 1.339 . S
C1083 C1082 1.395 . S
C1083 H1109 0.929 . S
C1084 C1082 1.320 . S
C1084 C1085 1.405 . S
C1084 H1110 0.930 . S
C1085 C1080 1.479 . S
C1085 C1084 1.405 . S
C1085 H1111 0.931 . S
U1086 O1087 2.454 . S
U1086 O1088 2.458 . S
U1086 C1089 2.984 . S
U1086 C1090 2.847 . S
U1086 C1103 2.882 . S
U1086 O1104 2.441 . S
U1086 O1105 2.420 . S
U1086 O1106 2.455 . S
U1086 O1107 2.449 . S
O1087 U1086 2.454 . S
O1087 C1089 1.353 . S
O1088 U1086 2.458 . S
O1088 C1089 1.286 . S
C1089 U1086 2.984 . S
C1089 O1087 1.353 . S
C1089 O1088 1.286 . S
C1089 C1091 1.363 . S
C1090 C1080 1.465 . S
C1090 U1086 2.847 . S
C1090 O1104 1.249 . S
C1090 O1105 1.202 . S
C1091 C1089 1.363 . S
C1091 C1093 1.408 . S
C1091 C1096 1.342 . S
C1092 C1093 1.310 . S
C1092 C1095 1.461 . S
C1092 H1112 0.932 . S
C1093 C1091 1.408 . S
C1093 C1092 1.310 . S
C1093 H1113 0.930 . S
C1094 C1095 1.474 . S
C1094 C1096 1.285 . S
C1094 H1114 0.929 . S
C1095 C1092 1.461 . S
C1095 C1094 1.474 . S
C1096 C1091 1.342 . S
C1096 C1094 1.285 . S
C1096 H1115 0.930 . S
C1097 C1100 1.424 . S
C1097 C1102 1.245 . S
C1097 C1103 1.428 . S
C1098 C1101 1.260 . S
C1098 C1102 1.477 . S
C1098 H1116 0.932 . S
C1099 C1100 1.384 . S
C1099 C1101 1.479 . S
C1099 H1117 0.929 . S
C1100 C1097 1.424 . S
C1100 C1099 1.384 . S
C1100 H1118 0.928 . S
C1101 C1098 1.260 . S
C1101 C1099 1.479 . S
C1102 C1097 1.245 . S
C1102 C1098 1.477 . S
C1102 H1119 0.932 . S
C1103 U1086 2.882 . S
C1103 C1097 1.428 . S
C1103 O1106 1.301 . S
C1103 O1107 1.282 . S
O1104 U1086 2.441 . S
O1104 C1090 1.249 . S
O1105 U1086 2.420 . S
O1105 C1090 1.202 . S
O1106 U1086 2.455 . S
O1106 C1103 1.301 . S
O1107 U1086 2.449 . S
O1107 C1103 1.282 . S
H1108 C1081 0.931 . S
H1109 C1083 0.929 . S
H1110 C1084 0.930 . S
H1111 C1085 0.931 . S
H1112 C1092 0.932 . S
H1113 C1093 0.930 . S
H1114 C1094 0.929 . S
H1115 C1096 0.930 . S
H1116 C1098 0.932 . S
H1117 C1099 0.929 . S
H1118 C1100 0.928 . S
H1119 C1102 0.932 . S
C1120 C1121 1.264 . S
C1120 C1125 1.479 1_455 S
C1120 C1130 1.465 . S
C1121 C1120 1.264 . S
C1121 C1123 1.339 1_455 S
C1121 H1148 0.931 . S
C1122 C1123 1.395 . S
C1122 C1124 1.320 . S
C1123 C1121 1.339 1_655 S
C1123 C1122 1.395 . S
C1123 H1149 0.929 . S
C1124 C1122 1.320 . S
C1124 C1125 1.405 . S
C1124 H1150 0.930 . S
C1125 C1120 1.479 1_655 S
C1125 C1124 1.405 . S
C1125 H1151 0.931 . S
U1126 O1127 2.454 . S
U1126 O1128 2.458 . S
U1126 C1129 2.984 . S
U1126 C1130 2.847 . S
U1126 C1143 2.882 . S
U1126 O1144 2.441 . S
U1126 O1145 2.420 . S
U1126 O1146 2.455 . S
U1126 O1147 2.449 . S
O1127 U1126 2.454 . S
O1127 C1129 1.353 . S
O1128 U1126 2.458 . S
O1128 C1129 1.286 . S
C1129 U1126 2.984 . S
C1129 O1127 1.353 . S
C1129 O1128 1.286 . S
C1129 C1131 1.363 . S
C1130 C1120 1.465 . S
C1130 U1126 2.847 . S
C1130 O1144 1.249 . S
C1130 O1145 1.202 . S
C1131 C1129 1.363 . S
C1131 C1133 1.408 . S
C1131 C1136 1.342 . S
C1132 C1133 1.310 . S
C1132 C1135 1.461 . S
C1132 H1152 0.932 . S
C1133 C1131 1.408 . S
C1133 C1132 1.310 . S
C1133 H1153 0.930 . S
C1134 C1135 1.474 . S
C1134 C1136 1.285 . S
C1134 H1154 0.929 . S
C1135 C1132 1.461 . S
C1135 C1134 1.474 . S
C1136 C1131 1.342 . S
C1136 C1134 1.285 . S
C1136 H1155 0.930 . S
C1137 C1140 1.424 . S
C1137 C1142 1.245 . S
C1137 C1143 1.428 . S
C1138 C1141 1.260 . S
C1138 C1142 1.477 . S
C1138 H1156 0.932 . S
C1139 C1140 1.384 . S
C1139 C1141 1.479 . S
C1139 H1157 0.929 . S
C1140 C1137 1.424 . S
C1140 C1139 1.384 . S
C1140 H1158 0.928 . S
C1141 C1138 1.260 . S
C1141 C1139 1.479 . S
C1142 C1137 1.245 . S
C1142 C1138 1.477 . S
C1142 H1159 0.932 . S
C1143 U1126 2.882 . S
C1143 C1137 1.428 . S
C1143 O1146 1.301 . S
C1143 O1147 1.282 . S
O1144 U1126 2.441 . S
O1144 C1130 1.249 . S
O1145 U1126 2.420 . S
O1145 C1130 1.202 . S
O1146 U1126 2.455 . S
O1146 C1143 1.301 . S
O1147 U1126 2.449 . S
O1147 C1143 1.282 . S
H1148 C1121 0.931 . S
H1149 C1123 0.929 . S
H1150 C1124 0.930 . S
H1151 C1125 0.931 . S
H1152 C1132 0.932 . S
H1153 C1133 0.930 . S
H1154 C1134 0.929 . S
H1155 C1136 0.930 . S
H1156 C1138 0.932 . S
H1157 C1139 0.929 . S
H1158 C1140 0.928 . S
H1159 C1142 0.932 . S
C1160 C1161 1.264 . S
C1160 C1165 1.479 . S
C1160 C1170 1.465 . S
C1161 C1160 1.264 . S
C1161 C1163 1.339 . S
C1161 H1188 0.931 . S
C1162 C1163 1.395 . S
C1162 C1164 1.320 . S
C1163 C1161 1.339 . S
C1163 C1162 1.395 . S
C1163 H1189 0.929 . S
C1164 C1162 1.320 . S
C1164 C1165 1.405 . S
C1164 H1190 0.930 . S
C1165 C1160 1.479 . S
C1165 C1164 1.405 . S
C1165 H1191 0.931 . S
U1166 O1167 2.454 . S
U1166 O1168 2.458 . S
U1166 C1169 2.984 . S
U1166 C1170 2.847 . S
U1166 C1183 2.882 . S
U1166 O1184 2.441 . S
U1166 O1185 2.420 . S
U1166 O1186 2.455 . S
U1166 O1187 2.449 . S
O1167 U1166 2.454 . S
O1167 C1169 1.353 . S
O1168 U1166 2.458 . S
O1168 C1169 1.286 . S
C1169 U1166 2.984 . S
C1169 O1167 1.353 . S
C1169 O1168 1.286 . S
C1169 C1171 1.363 . S
C1170 C1160 1.465 . S
C1170 U1166 2.847 . S
C1170 O1184 1.249 . S
C1170 O1185 1.202 . S
C1171 C1169 1.363 . S
C1171 C1173 1.408 . S
C1171 C1176 1.342 . S
C1172 C1173 1.310 . S
C1172 C1175 1.461 . S
C1172 H1192 0.932 . S
C1173 C1171 1.408 . S
C1173 C1172 1.310 . S
C1173 H1193 0.930 . S
C1174 C1175 1.474 . S
C1174 C1176 1.285 . S
C1174 H1194 0.929 . S
C1175 C1172 1.461 . S
C1175 C1174 1.474 . S
C1176 C1171 1.342 . S
C1176 C1174 1.285 . S
C1176 H1195 0.930 . S
C1177 C1180 1.424 . S
C1177 C1182 1.245 . S
C1177 C1183 1.428 . S
C1178 C1181 1.260 . S
C1178 C1182 1.477 . S
C1178 H1196 0.932 . S
C1179 C1180 1.384 . S
C1179 C1181 1.479 . S
C1179 H1197 0.929 . S
C1180 C1177 1.424 . S
C1180 C1179 1.384 . S
C1180 H1198 0.928 . S
C1181 C1178 1.260 . S
C1181 C1179 1.479 . S
C1182 C1177 1.245 . S
C1182 C1178 1.477 . S
C1182 H1199 0.932 . S
C1183 U1166 2.882 . S
C1183 C1177 1.428 . S
C1183 O1186 1.301 . S
C1183 O1187 1.282 . S
O1184 U1166 2.441 . S
O1184 C1170 1.249 . S
O1185 U1166 2.420 . S
O1185 C1170 1.202 . S
O1186 U1166 2.455 . S
O1186 C1183 1.301 . S
O1187 U1166 2.449 . S
O1187 C1183 1.282 . S
H1188 C1161 0.931 . S
H1189 C1163 0.929 . S
H1190 C1164 0.930 . S
H1191 C1165 0.931 . S
H1192 C1172 0.932 . S
H1193 C1173 0.930 . S
H1194 C1174 0.929 . S
H1195 C1176 0.930 . S
H1196 C1178 0.932 . S
H1197 C1179 0.929 . S
H1198 C1180 0.928 . S
H1199 C1182 0.932 . S
C1200 C1201 1.264 . S
C1200 C1205 1.479 . S
C1200 C1210 1.465 . S
C1201 C1200 1.264 . S
C1201 C1203 1.339 . S
C1201 H1228 0.931 . S
C1202 C1203 1.395 . S
C1202 C1204 1.320 . S
C1203 C1201 1.339 . S
C1203 C1202 1.395 . S
C1203 H1229 0.929 . S
C1204 C1202 1.320 . S
C1204 C1205 1.405 . S
C1204 H1230 0.930 . S
C1205 C1200 1.479 . S
C1205 C1204 1.405 . S
C1205 H1231 0.931 . S
U1206 O1207 2.454 . S
U1206 O1208 2.458 . S
U1206 C1209 2.984 . S
U1206 C1210 2.847 . S
U1206 C1223 2.882 . S
U1206 O1224 2.441 . S
U1206 O1225 2.420 . S
U1206 O1226 2.455 . S
U1206 O1227 2.449 . S
O1207 U1206 2.454 . S
O1207 C1209 1.353 . S
O1208 U1206 2.458 . S
O1208 C1209 1.286 . S
C1209 U1206 2.984 . S
C1209 O1207 1.353 . S
C1209 O1208 1.286 . S
C1209 C1211 1.363 . S
C1210 C1200 1.465 . S
C1210 U1206 2.847 . S
C1210 O1224 1.249 . S
C1210 O1225 1.202 . S
C1211 C1209 1.363 . S
C1211 C1213 1.408 . S
C1211 C1216 1.342 . S
C1212 C1213 1.310 . S
C1212 C1215 1.461 . S
C1212 H1232 0.932 . S
C1213 C1211 1.408 . S
C1213 C1212 1.310 . S
C1213 H1233 0.930 . S
C1214 C1215 1.474 . S
C1214 C1216 1.285 . S
C1214 H1234 0.929 . S
C1215 C1212 1.461 . S
C1215 C1214 1.474 . S
C1216 C1211 1.342 . S
C1216 C1214 1.285 . S
C1216 H1235 0.930 . S
C1217 C1220 1.424 . S
C1217 C1222 1.245 . S
C1217 C1223 1.428 . S
C1218 C1221 1.260 . S
C1218 C1222 1.477 . S
C1218 H1236 0.932 . S
C1219 C1220 1.384 . S
C1219 C1221 1.479 . S
C1219 H1237 0.929 . S
C1220 C1217 1.424 . S
C1220 C1219 1.384 . S
C1220 H1238 0.928 . S
C1221 C1218 1.260 . S
C1221 C1219 1.479 . S
C1222 C1217 1.245 . S
C1222 C1218 1.477 . S
C1222 H1239 0.932 . S
C1223 U1206 2.882 . S
C1223 C1217 1.428 . S
C1223 O1226 1.301 . S
C1223 O1227 1.282 . S
O1224 U1206 2.441 . S
O1224 C1210 1.249 . S
O1225 U1206 2.420 . S
O1225 C1210 1.202 . S
O1226 U1206 2.455 . S
O1226 C1223 1.301 . S
O1227 U1206 2.449 . S
O1227 C1223 1.282 . S
H1228 C1201 0.931 . S
H1229 C1203 0.929 . S
H1230 C1204 0.930 . S
H1231 C1205 0.931 . S
H1232 C1212 0.932 . S
H1233 C1213 0.930 . S
H1234 C1214 0.929 . S
H1235 C1216 0.930 . S
H1236 C1218 0.932 . S
H1237 C1219 0.929 . S
H1238 C1220 0.928 . S
H1239 C1222 0.932 . S
C1240 C1241 1.264 . S
C1240 C1245 1.479 . S
C1240 C1250 1.465 . S
C1241 C1240 1.264 . S
C1241 C1243 1.339 . S
C1241 H1268 0.931 . S
C1242 C1243 1.395 . S
C1242 C1244 1.320 . S
C1243 C1241 1.339 . S
C1243 C1242 1.395 . S
C1243 H1269 0.929 . S
C1244 C1242 1.320 . S
C1244 C1245 1.405 . S
C1244 H1270 0.930 . S
C1245 C1240 1.479 . S
C1245 C1244 1.405 . S
C1245 H1271 0.931 . S
U1246 O1247 2.454 . S
U1246 O1248 2.458 . S
U1246 C1249 2.984 . S
U1246 C1250 2.847 . S
U1246 C1263 2.882 . S
U1246 O1264 2.441 . S
U1246 O1265 2.420 . S
U1246 O1266 2.455 . S
U1246 O1267 2.449 . S
O1247 U1246 2.454 . S
O1247 C1249 1.353 . S
O1248 U1246 2.458 . S
O1248 C1249 1.286 . S
C1249 U1246 2.984 . S
C1249 O1247 1.353 . S
C1249 O1248 1.286 . S
C1249 C1251 1.363 . S
C1250 C1240 1.465 . S
C1250 U1246 2.847 . S
C1250 O1264 1.249 . S
C1250 O1265 1.202 . S
C1251 C1249 1.363 . S
C1251 C1253 1.408 . S
C1251 C1256 1.342 . S
C1252 C1253 1.310 . S
C1252 C1255 1.461 . S
C1252 H1272 0.932 . S
C1253 C1251 1.408 . S
C1253 C1252 1.310 . S
C1253 H1273 0.930 . S
C1254 C1255 1.474 . S
C1254 C1256 1.285 . S
C1254 H1274 0.929 . S
C1255 C1252 1.461 . S
C1255 C1254 1.474 . S
C1256 C1251 1.342 . S
C1256 C1254 1.285 . S
C1256 H1275 0.930 . S
C1257 C1260 1.424 . S
C1257 C1262 1.245 . S
C1257 C1263 1.428 . S
C1258 C1261 1.260 . S
C1258 C1262 1.477 . S
C1258 H1276 0.932 . S
C1259 C1260 1.384 . S
C1259 C1261 1.479 . S
C1259 H1277 0.929 . S
C1260 C1257 1.424 . S
C1260 C1259 1.384 . S
C1260 H1278 0.928 . S
C1261 C1258 1.260 . S
C1261 C1259 1.479 . S
C1262 C1257 1.245 . S
C1262 C1258 1.477 . S
C1262 H1279 0.932 . S
C1263 U1246 2.882 . S
C1263 C1257 1.428 . S
C1263 O1266 1.301 . S
C1263 O1267 1.282 . S
O1264 U1246 2.441 . S
O1264 C1250 1.249 . S
O1265 U1246 2.420 . S
O1265 C1250 1.202 . S
O1266 U1246 2.455 . S
O1266 C1263 1.301 . S
O1267 U1246 2.449 . S
O1267 C1263 1.282 . S
H1268 C1241 0.931 . S
H1269 C1243 0.929 . S
H1270 C1244 0.930 . S
H1271 C1245 0.931 . S
H1272 C1252 0.932 . S
H1273 C1253 0.930 . S
H1274 C1254 0.929 . S
H1275 C1256 0.930 . S
H1276 C1258 0.932 . S
H1277 C1259 0.929 . S
H1278 C1260 0.928 . S
H1279 C1262 0.932 . S
C1280 C1281 1.264 . S
C1280 C1285 1.479 . S
C1280 C1290 1.465 . S
C1281 C1280 1.264 . S
C1281 C1283 1.339 . S
C1281 H1308 0.931 . S
C1282 C1283 1.395 . S
C1282 C1284 1.320 . S
C1283 C1281 1.339 . S
C1283 C1282 1.395 . S
C1283 H1309 0.929 . S
C1284 C1282 1.320 . S
C1284 C1285 1.405 . S
C1284 H1310 0.930 . S
C1285 C1280 1.479 . S
C1285 C1284 1.405 . S
C1285 H1311 0.931 . S
U1286 O1287 2.454 . S
U1286 O1288 2.458 . S
U1286 C1289 2.984 . S
U1286 C1290 2.847 . S
U1286 C1303 2.882 . S
U1286 O1304 2.441 . S
U1286 O1305 2.420 . S
U1286 O1306 2.455 . S
U1286 O1307 2.449 . S
O1287 U1286 2.454 . S
O1287 C1289 1.353 . S
O1288 U1286 2.458 . S
O1288 C1289 1.286 . S
C1289 U1286 2.984 . S
C1289 O1287 1.353 . S
C1289 O1288 1.286 . S
C1289 C1291 1.363 . S
C1290 C1280 1.465 . S
C1290 U1286 2.847 . S
C1290 O1304 1.249 . S
C1290 O1305 1.202 . S
C1291 C1289 1.363 . S
C1291 C1293 1.408 . S
C1291 C1296 1.342 . S
C1292 C1293 1.310 . S
C1292 C1295 1.461 . S
C1292 H1312 0.932 . S
C1293 C1291 1.408 . S
C1293 C1292 1.310 . S
C1293 H1313 0.930 . S
C1294 C1295 1.474 . S
C1294 C1296 1.285 . S
C1294 H1314 0.929 . S
C1295 C1292 1.461 . S
C1295 C1294 1.474 . S
C1296 C1291 1.342 . S
C1296 C1294 1.285 . S
C1296 H1315 0.930 . S
C1297 C1300 1.424 . S
C1297 C1302 1.245 . S
C1297 C1303 1.428 . S
C1298 C1301 1.260 . S
C1298 C1302 1.477 . S
C1298 H1316 0.932 . S
C1299 C1300 1.384 . S
C1299 C1301 1.479 . S
C1299 H1317 0.929 . S
C1300 C1297 1.424 . S
C1300 C1299 1.384 . S
C1300 H1318 0.928 . S
C1301 C1298 1.260 . S
C1301 C1299 1.479 . S
C1302 C1297 1.245 . S
C1302 C1298 1.477 . S
C1302 H1319 0.932 . S
C1303 U1286 2.882 . S
C1303 C1297 1.428 . S
C1303 O1306 1.301 . S
C1303 O1307 1.282 . S
O1304 U1286 2.441 . S
O1304 C1290 1.249 . S
O1305 U1286 2.420 . S
O1305 C1290 1.202 . S
O1306 U1286 2.455 . S
O1306 C1303 1.301 . S
O1307 U1286 2.449 . S
O1307 C1303 1.282 . S
H1308 C1281 0.931 . S
H1309 C1283 0.929 . S
H1310 C1284 0.930 . S
H1311 C1285 0.931 . S
H1312 C1292 0.932 . S
H1313 C1293 0.930 . S
H1314 C1294 0.929 . S
H1315 C1296 0.930 . S
H1316 C1298 0.932 . S
H1317 C1299 0.929 . S
H1318 C1300 0.928 . S
H1319 C1302 0.932 . S
C1320 C1321 1.264 . S
C1320 C1325 1.479 . S
C1320 C1330 1.465 . S
C1321 C1320 1.264 . S
C1321 C1323 1.339 . S
C1321 H1348 0.931 . S
C1322 C1323 1.395 . S
C1322 C1324 1.320 . S
C1323 C1321 1.339 . S
C1323 C1322 1.395 . S
C1323 H1349 0.929 . S
C1324 C1322 1.320 . S
C1324 C1325 1.405 . S
C1324 H1350 0.930 . S
C1325 C1320 1.479 . S
C1325 C1324 1.405 . S
C1325 H1351 0.931 . S
U1326 O1327 2.454 . S
U1326 O1328 2.458 . S
U1326 C1329 2.984 . S
U1326 C1330 2.847 . S
U1326 C1343 2.882 . S
U1326 O1344 2.441 . S
U1326 O1345 2.420 . S
U1326 O1346 2.455 . S
U1326 O1347 2.449 . S
O1327 U1326 2.454 . S
O1327 C1329 1.353 . S
O1328 U1326 2.458 . S
O1328 C1329 1.286 . S
C1329 U1326 2.984 . S
C1329 O1327 1.353 . S
C1329 O1328 1.286 . S
C1329 C1331 1.363 . S
C1330 C1320 1.465 . S
C1330 U1326 2.847 . S
C1330 O1344 1.249 . S
C1330 O1345 1.202 . S
C1331 C1329 1.363 . S
C1331 C1333 1.408 . S
C1331 C1336 1.342 . S
C1332 C1333 1.310 . S
C1332 C1335 1.461 . S
C1332 H1352 0.932 1_556 S
C1333 C1331 1.408 . S
C1333 C1332 1.310 . S
C1333 H1353 0.930 . S
C1334 C1335 1.474 . S
C1334 C1336 1.285 . S
C1334 H1354 0.929 . S
C1335 C1332 1.461 . S
C1335 C1334 1.474 . S
C1336 C1331 1.342 . S
C1336 C1334 1.285 . S
C1336 H1355 0.930 . S
C1337 C1340 1.424 . S
C1337 C1342 1.245 . S
C1337 C1343 1.428 . S
C1338 C1341 1.260 . S
C1338 C1342 1.477 . S
C1338 H1356 0.932 . S
C1339 C1340 1.384 . S
C1339 C1341 1.479 . S
C1339 H1357 0.929 . S
C1340 C1337 1.424 . S
C1340 C1339 1.384 . S
C1340 H1358 0.928 . S
C1341 C1338 1.260 . S
C1341 C1339 1.479 . S
C1342 C1337 1.245 . S
C1342 C1338 1.477 . S
C1342 H1359 0.932 . S
C1343 U1326 2.882 . S
C1343 C1337 1.428 . S
C1343 O1346 1.301 . S
C1343 O1347 1.282 . S
O1344 U1326 2.441 . S
O1344 C1330 1.249 . S
O1345 U1326 2.420 . S
O1345 C1330 1.202 . S
O1346 U1326 2.455 . S
O1346 C1343 1.301 . S
O1347 U1326 2.449 . S
O1347 C1343 1.282 . S
H1348 C1321 0.931 . S
H1349 C1323 0.929 . S
H1350 C1324 0.930 . S
H1351 C1325 0.931 . S
H1352 C1332 0.932 1_554 S
H1353 C1333 0.930 . S
H1354 C1334 0.929 . S
H1355 C1336 0.930 . S
H1356 C1338 0.932 . S
H1357 C1339 0.929 . S
H1358 C1340 0.928 . S
H1359 C1342 0.932 . S
C1360 C1361 1.264 . S
C1360 C1365 1.479 . S
C1360 C1370 1.465 . S
C1361 C1360 1.264 . S
C1361 C1363 1.339 . S
C1361 H1388 0.931 . S
C1362 C1363 1.395 . S
C1362 C1364 1.320 . S
C1363 C1361 1.339 . S
C1363 C1362 1.395 . S
C1363 H1389 0.929 . S
C1364 C1362 1.320 . S
C1364 C1365 1.405 . S
C1364 H1390 0.930 . S
C1365 C1360 1.479 . S
C1365 C1364 1.405 . S
C1365 H1391 0.931 . S
U1366 O1367 2.454 . S
U1366 O1368 2.458 . S
U1366 C1369 2.984 . S
U1366 C1370 2.847 . S
U1366 C1383 2.882 . S
U1366 O1384 2.441 . S
U1366 O1385 2.420 . S
U1366 O1386 2.455 . S
U1366 O1387 2.449 . S
O1367 U1366 2.454 . S
O1367 C1369 1.353 . S
O1368 U1366 2.458 . S
O1368 C1369 1.286 . S
C1369 U1366 2.984 . S
C1369 O1367 1.353 . S
C1369 O1368 1.286 . S
C1369 C1371 1.363 . S
C1370 C1360 1.465 . S
C1370 U1366 2.847 . S
C1370 O1384 1.249 . S
C1370 O1385 1.202 . S
C1371 C1369 1.363 . S
C1371 C1373 1.408 . S
C1371 C1376 1.342 . S
C1372 C1373 1.310 . S
C1372 C1375 1.461 . S
C1372 H1392 0.932 . S
C1373 C1371 1.408 . S
C1373 C1372 1.310 . S
C1373 H1393 0.930 . S
C1374 C1375 1.474 . S
C1374 C1376 1.285 . S
C1374 H1394 0.929 . S
C1375 C1372 1.461 . S
C1375 C1374 1.474 . S
C1376 C1371 1.342 . S
C1376 C1374 1.285 . S
C1376 H1395 0.930 . S
C1377 C1380 1.424 . S
C1377 C1382 1.245 . S
C1377 C1383 1.428 . S
C1378 C1381 1.260 . S
C1378 C1382 1.477 . S
C1378 H1396 0.932 . S
C1379 C1380 1.384 . S
C1379 C1381 1.479 . S
C1379 H1397 0.929 . S
C1380 C1377 1.424 . S
C1380 C1379 1.384 . S
C1380 H1398 0.928 . S
C1381 C1378 1.260 . S
C1381 C1379 1.479 . S
C1382 C1377 1.245 . S
C1382 C1378 1.477 . S
C1382 H1399 0.932 . S
C1383 U1366 2.882 . S
C1383 C1377 1.428 . S
C1383 O1386 1.301 . S
C1383 O1387 1.282 . S
O1384 U1366 2.441 . S
O1384 C1370 1.249 . S
O1385 U1366 2.420 . S
O1385 C1370 1.202 . S
O1386 U1366 2.455 . S
O1386 C1383 1.301 . S
O1387 U1366 2.449 . S
O1387 C1383 1.282 . S
H1388 C1361 0.931 . S
H1389 C1363 0.929 . S
H1390 C1364 0.930 . S
H1391 C1365 0.931 . S
H1392 C1372 0.932 . S
H1393 C1373 0.930 . S
H1394 C1374 0.929 . S
H1395 C1376 0.930 . S
H1396 C1378 0.932 . S
H1397 C1379 0.929 . S
H1398 C1380 0.928 . S
H1399 C1382 0.932 . S
C1400 C1401 1.264 . S
C1400 C1405 1.479 . S
C1400 C1410 1.465 . S
C1401 C1400 1.264 . S
C1401 C1403 1.339 . S
C1401 H1428 0.931 . S
C1402 C1403 1.395 . S
C1402 C1404 1.320 . S
C1403 C1401 1.339 . S
C1403 C1402 1.395 . S
C1403 H1429 0.929 . S
C1404 C1402 1.320 . S
C1404 C1405 1.405 . S
C1404 H1430 0.930 . S
C1405 C1400 1.479 . S
C1405 C1404 1.405 . S
C1405 H1431 0.931 . S
U1406 O1407 2.454 . S
U1406 O1408 2.458 . S
U1406 C1409 2.984 . S
U1406 C1410 2.847 . S
U1406 C1423 2.882 . S
U1406 O1424 2.441 . S
U1406 O1425 2.420 . S
U1406 O1426 2.455 . S
U1406 O1427 2.449 . S
O1407 U1406 2.454 . S
O1407 C1409 1.353 . S
O1408 U1406 2.458 . S
O1408 C1409 1.286 . S
C1409 U1406 2.984 . S
C1409 O1407 1.353 . S
C1409 O1408 1.286 . S
C1409 C1411 1.363 . S
C1410 C1400 1.465 . S
C1410 U1406 2.847 . S
C1410 O1424 1.249 . S
C1410 O1425 1.202 . S
C1411 C1409 1.363 . S
C1411 C1413 1.408 . S
C1411 C1416 1.342 . S
C1412 C1413 1.310 . S
C1412 C1415 1.461 . S
C1412 H1432 0.932 . S
C1413 C1411 1.408 . S
C1413 C1412 1.310 . S
C1413 H1433 0.930 . S
C1414 C1415 1.474 . S
C1414 C1416 1.285 . S
C1414 H1434 0.929 . S
C1415 C1412 1.461 . S
C1415 C1414 1.474 . S
C1416 C1411 1.342 . S
C1416 C1414 1.285 . S
C1416 H1435 0.930 . S
C1417 C1420 1.424 . S
C1417 C1422 1.245 . S
C1417 C1423 1.428 . S
C1418 C1421 1.260 . S
C1418 C1422 1.477 . S
C1418 H1436 0.932 . S
C1419 C1420 1.384 . S
C1419 C1421 1.479 . S
C1419 H1437 0.929 . S
C1420 C1417 1.424 . S
C1420 C1419 1.384 . S
C1420 H1438 0.928 . S
C1421 C1418 1.260 . S
C1421 C1419 1.479 . S
C1422 C1417 1.245 . S
C1422 C1418 1.477 . S
C1422 H1439 0.932 . S
C1423 U1406 2.882 . S
C1423 C1417 1.428 . S
C1423 O1426 1.301 . S
C1423 O1427 1.282 . S
O1424 U1406 2.441 . S
O1424 C1410 1.249 . S
O1425 U1406 2.420 . S
O1425 C1410 1.202 . S
O1426 U1406 2.455 . S
O1426 C1423 1.301 . S
O1427 U1406 2.449 . S
O1427 C1423 1.282 . S
H1428 C1401 0.931 . S
H1429 C1403 0.929 . S
H1430 C1404 0.930 . S
H1431 C1405 0.931 . S
H1432 C1412 0.932 . S
H1433 C1413 0.930 . S
H1434 C1414 0.929 . S
H1435 C1416 0.930 . S
H1436 C1418 0.932 . S
H1437 C1419 0.929 . S
H1438 C1420 0.928 . S
H1439 C1422 0.932 . S
C1440 C1441 1.264 . S
C1440 C1445 1.479 . S
C1440 C1450 1.465 . S
C1441 C1440 1.264 . S
C1441 C1443 1.339 . S
C1441 H1468 0.931 . S
C1442 C1443 1.395 . S
C1442 C1444 1.320 . S
C1443 C1441 1.339 . S
C1443 C1442 1.395 . S
C1443 H1469 0.929 . S
C1444 C1442 1.320 . S
C1444 C1445 1.405 . S
C1444 H1470 0.930 . S
C1445 C1440 1.479 . S
C1445 C1444 1.405 . S
C1445 H1471 0.931 . S
U1446 O1447 2.454 . S
U1446 O1448 2.458 . S
U1446 C1449 2.984 . S
U1446 C1450 2.847 . S
U1446 C1463 2.882 . S
U1446 O1464 2.441 . S
U1446 O1465 2.420 . S
U1446 O1466 2.455 . S
U1446 O1467 2.449 . S
O1447 U1446 2.454 . S
O1447 C1449 1.353 . S
O1448 U1446 2.458 . S
O1448 C1449 1.286 . S
C1449 U1446 2.984 . S
C1449 O1447 1.353 . S
C1449 O1448 1.286 . S
C1449 C1451 1.363 . S
C1450 C1440 1.465 . S
C1450 U1446 2.847 . S
C1450 O1464 1.249 . S
C1450 O1465 1.202 . S
C1451 C1449 1.363 . S
C1451 C1453 1.408 . S
C1451 C1456 1.342 . S
C1452 C1453 1.310 . S
C1452 C1455 1.461 . S
C1452 H1472 0.932 . S
C1453 C1451 1.408 . S
C1453 C1452 1.310 . S
C1453 H1473 0.930 . S
C1454 C1455 1.474 . S
C1454 C1456 1.285 . S
C1454 H1474 0.929 . S
C1455 C1452 1.461 . S
C1455 C1454 1.474 . S
C1456 C1451 1.342 . S
C1456 C1454 1.285 . S
C1456 H1475 0.930 . S
C1457 C1460 1.424 . S
C1457 C1462 1.245 . S
C1457 C1463 1.428 . S
C1458 C1461 1.260 . S
C1458 C1462 1.477 . S
C1458 H1476 0.932 . S
C1459 C1460 1.384 . S
C1459 C1461 1.479 . S
C1459 H1477 0.929 . S
C1460 C1457 1.424 . S
C1460 C1459 1.384 . S
C1460 H1478 0.928 . S
C1461 C1458 1.260 . S
C1461 C1459 1.479 . S
C1462 C1457 1.245 . S
C1462 C1458 1.477 . S
C1462 H1479 0.932 . S
C1463 U1446 2.882 . S
C1463 C1457 1.428 . S
C1463 O1466 1.301 . S
C1463 O1467 1.282 . S
O1464 U1446 2.441 . S
O1464 C1450 1.249 . S
O1465 U1446 2.420 . S
O1465 C1450 1.202 . S
O1466 U1446 2.455 . S
O1466 C1463 1.301 . S
O1467 U1446 2.449 . S
O1467 C1463 1.282 . S
H1468 C1441 0.931 . S
H1469 C1443 0.929 . S
H1470 C1444 0.930 . S
H1471 C1445 0.931 . S
H1472 C1452 0.932 . S
H1473 C1453 0.930 . S
H1474 C1454 0.929 . S
H1475 C1456 0.930 . S
H1476 C1458 0.932 . S
H1477 C1459 0.929 . S
H1478 C1460 0.928 . S
H1479 C1462 0.932 . S
C1480 C1481 1.264 . S
C1480 C1485 1.479 . S
C1480 C1490 1.465 . S
C1481 C1480 1.264 . S
C1481 C1483 1.339 . S
C1481 H1508 0.931 . S
C1482 C1483 1.395 . S
C1482 C1484 1.320 . S
C1483 C1481 1.339 . S
C1483 C1482 1.395 . S
C1483 H1509 0.929 . S
C1484 C1482 1.320 . S
C1484 C1485 1.405 . S
C1484 H1510 0.930 . S
C1485 C1480 1.479 . S
C1485 C1484 1.405 . S
C1485 H1511 0.931 . S
U1486 O1487 2.454 . S
U1486 O1488 2.458 . S
U1486 C1489 2.984 . S
U1486 C1490 2.847 . S
U1486 C1503 2.882 . S
U1486 O1504 2.441 . S
U1486 O1505 2.420 . S
U1486 O1506 2.455 . S
U1486 O1507 2.449 . S
O1487 U1486 2.454 . S
O1487 C1489 1.353 . S
O1488 U1486 2.458 . S
O1488 C1489 1.286 . S
C1489 U1486 2.984 . S
C1489 O1487 1.353 . S
C1489 O1488 1.286 . S
C1489 C1491 1.363 . S
C1490 C1480 1.465 . S
C1490 U1486 2.847 . S
C1490 O1504 1.249 . S
C1490 O1505 1.202 . S
C1491 C1489 1.363 . S
C1491 C1493 1.408 . S
C1491 C1496 1.342 . S
C1492 C1493 1.310 . S
C1492 C1495 1.461 . S
C1492 H1512 0.932 . S
C1493 C1491 1.408 . S
C1493 C1492 1.310 . S
C1493 H1513 0.930 . S
C1494 C1495 1.474 . S
C1494 C1496 1.285 . S
C1494 H1514 0.929 . S
C1495 C1492 1.461 . S
C1495 C1494 1.474 . S
C1496 C1491 1.342 . S
C1496 C1494 1.285 . S
C1496 H1515 0.930 . S
C1497 C1500 1.424 . S
C1497 C1502 1.245 . S
C1497 C1503 1.428 . S
C1498 C1501 1.260 . S
C1498 C1502 1.477 . S
C1498 H1516 0.932 . S
C1499 C1500 1.384 . S
C1499 C1501 1.479 . S
C1499 H1517 0.929 . S
C1500 C1497 1.424 . S
C1500 C1499 1.384 . S
C1500 H1518 0.928 . S
C1501 C1498 1.260 . S
C1501 C1499 1.479 . S
C1502 C1497 1.245 . S
C1502 C1498 1.477 . S
C1502 H1519 0.932 . S
C1503 U1486 2.882 . S
C1503 C1497 1.428 . S
C1503 O1506 1.301 . S
C1503 O1507 1.282 . S
O1504 U1486 2.441 . S
O1504 C1490 1.249 . S
O1505 U1486 2.420 . S
O1505 C1490 1.202 . S
O1506 U1486 2.455 . S
O1506 C1503 1.301 . S
O1507 U1486 2.449 . S
O1507 C1503 1.282 . S
H1508 C1481 0.931 . S
H1509 C1483 0.929 . S
H1510 C1484 0.930 . S
H1511 C1485 0.931 . S
H1512 C1492 0.932 . S
H1513 C1493 0.930 . S
H1514 C1494 0.929 . S
H1515 C1496 0.930 . S
H1516 C1498 0.932 . S
H1517 C1499 0.929 . S
H1518 C1500 0.928 . S
H1519 C1502 0.932 . S
C1520 C1521 1.264 . S
C1520 C1525 1.479 . S
C1520 C1530 1.465 . S
C1521 C1520 1.264 . S
C1521 C1523 1.339 . S
C1521 H1548 0.931 . S
C1522 C1523 1.395 . S
C1522 C1524 1.320 . S
C1523 C1521 1.339 . S
C1523 C1522 1.395 . S
C1523 H1549 0.929 . S
C1524 C1522 1.320 . S
C1524 C1525 1.405 . S
C1524 H1550 0.930 . S
C1525 C1520 1.479 . S
C1525 C1524 1.405 . S
C1525 H1551 0.931 . S
U1526 O1527 2.454 . S
U1526 O1528 2.458 . S
U1526 C1529 2.984 . S
U1526 C1530 2.847 . S
U1526 C1543 2.882 . S
U1526 O1544 2.441 . S
U1526 O1545 2.420 . S
U1526 O1546 2.455 . S
U1526 O1547 2.449 . S
O1527 U1526 2.454 . S
O1527 C1529 1.353 . S
O1528 U1526 2.458 . S
O1528 C1529 1.286 . S
C1529 U1526 2.984 . S
C1529 O1527 1.353 . S
C1529 O1528 1.286 . S
C1529 C1531 1.363 . S
C1530 C1520 1.465 . S
C1530 U1526 2.847 . S
C1530 O1544 1.249 . S
C1530 O1545 1.202 . S
C1531 C1529 1.363 . S
C1531 C1533 1.408 . S
C1531 C1536 1.342 . S
C1532 C1533 1.310 . S
C1532 C1535 1.461 . S
C1532 H1552 0.932 . S
C1533 C1531 1.408 . S
C1533 C1532 1.310 . S
C1533 H1553 0.930 . S
C1534 C1535 1.474 . S
C1534 C1536 1.285 . S
C1534 H1554 0.929 . S
C1535 C1532 1.461 . S
C1535 C1534 1.474 . S
C1536 C1531 1.342 . S
C1536 C1534 1.285 . S
C1536 H1555 0.930 . S
C1537 C1540 1.424 . S
C1537 C1542 1.245 . S
C1537 C1543 1.428 . S
C1538 C1541 1.260 . S
C1538 C1542 1.477 . S
C1538 H1556 0.932 . S
C1539 C1540 1.384 . S
C1539 C1541 1.479 . S
C1539 H1557 0.929 . S
C1540 C1537 1.424 . S
C1540 C1539 1.384 . S
C1540 H1558 0.928 . S
C1541 C1538 1.260 . S
C1541 C1539 1.479 . S
C1542 C1537 1.245 . S
C1542 C1538 1.477 . S
C1542 H1559 0.932 . S
C1543 U1526 2.882 . S
C1543 C1537 1.428 . S
C1543 O1546 1.301 . S
C1543 O1547 1.282 . S
O1544 U1526 2.441 . S
O1544 C1530 1.249 . S
O1545 U1526 2.420 . S
O1545 C1530 1.202 . S
O1546 U1526 2.455 . S
O1546 C1543 1.301 . S
O1547 U1526 2.449 . S
O1547 C1543 1.282 . S
H1548 C1521 0.931 . S
H1549 C1523 0.929 . S
H1550 C1524 0.930 . S
H1551 C1525 0.931 . S
H1552 C1532 0.932 . S
H1553 C1533 0.930 . S
H1554 C1534 0.929 . S
H1555 C1536 0.930 . S
H1556 C1538 0.932 . S
H1557 C1539 0.929 . S
H1558 C1540 0.928 . S
H1559 C1542 0.932 . S
C1560 C1561 1.264 . S
C1560 C1565 1.479 . S
C1560 C1570 1.465 . S
C1561 C1560 1.264 . S
C1561 C1563 1.339 . S
C1561 H1588 0.931 . S
C1562 C1563 1.395 . S
C1562 C1564 1.320 . S
C1563 C1561 1.339 . S
C1563 C1562 1.395 . S
C1563 H1589 0.929 . S
C1564 C1562 1.320 . S
C1564 C1565 1.405 . S
C1564 H1590 0.930 . S
C1565 C1560 1.479 . S
C1565 C1564 1.405 . S
C1565 H1591 0.931 . S
U1566 O1567 2.454 . S
U1566 O1568 2.458 . S
U1566 C1569 2.984 . S
U1566 C1570 2.847 . S
U1566 C1583 2.882 . S
U1566 O1584 2.441 . S
U1566 O1585 2.420 . S
U1566 O1586 2.455 . S
U1566 O1587 2.449 . S
O1567 U1566 2.454 . S
O1567 C1569 1.353 . S
O1568 U1566 2.458 . S
O1568 C1569 1.286 . S
C1569 U1566 2.984 . S
C1569 O1567 1.353 . S
C1569 O1568 1.286 . S
C1569 C1571 1.363 . S
C1570 C1560 1.465 . S
C1570 U1566 2.847 . S
C1570 O1584 1.249 . S
C1570 O1585 1.202 . S
C1571 C1569 1.363 . S
C1571 C1573 1.408 . S
C1571 C1576 1.342 . S
C1572 C1573 1.310 . S
C1572 C1575 1.461 . S
C1572 H1592 0.932 . S
C1573 C1571 1.408 . S
C1573 C1572 1.310 . S
C1573 H1593 0.930 . S
C1574 C1575 1.474 . S
C1574 C1576 1.285 . S
C1574 H1594 0.929 . S
C1575 C1572 1.461 . S
C1575 C1574 1.474 . S
C1576 C1571 1.342 . S
C1576 C1574 1.285 . S
C1576 H1595 0.930 . S
C1577 C1580 1.424 . S
C1577 C1582 1.245 . S
C1577 C1583 1.428 . S
C1578 C1581 1.260 . S
C1578 C1582 1.477 . S
C1578 H1596 0.932 . S
C1579 C1580 1.384 . S
C1579 C1581 1.479 . S
C1579 H1597 0.929 . S
C1580 C1577 1.424 . S
C1580 C1579 1.384 . S
C1580 H1598 0.928 . S
C1581 C1578 1.260 . S
C1581 C1579 1.479 . S
C1582 C1577 1.245 . S
C1582 C1578 1.477 . S
C1582 H1599 0.932 . S
C1583 U1566 2.882 . S
C1583 C1577 1.428 . S
C1583 O1586 1.301 . S
C1583 O1587 1.282 . S
O1584 U1566 2.441 . S
O1584 C1570 1.249 . S
O1585 U1566 2.420 . S
O1585 C1570 1.202 . S
O1586 U1566 2.455 . S
O1586 C1583 1.301 . S
O1587 U1566 2.449 . S
O1587 C1583 1.282 . S
H1588 C1561 0.931 . S
H1589 C1563 0.929 . S
H1590 C1564 0.930 . S
H1591 C1565 0.931 . S
H1592 C1572 0.932 . S
H1593 C1573 0.930 . S
H1594 C1574 0.929 . S
H1595 C1576 0.930 . S
H1596 C1578 0.932 . S
H1597 C1579 0.929 . S
H1598 C1580 0.928 . S
H1599 C1582 0.932 . S
C1600 C1601 1.264 . S
C1600 C1605 1.548 . S
C1600 C1610 1.465 . S
C1601 C1600 1.264 . S
C1601 C1603 1.339 1_455 S
C1601 H1628 0.931 . S
C1602 C1603 1.395 . S
C1602 C1604 1.320 . S
C1603 C1601 1.339 1_655 S
C1603 C1602 1.395 . S
C1603 H1629 0.929 . S
C1604 C1602 1.320 . S
C1604 C1605 1.330 1_655 S
C1604 H1630 0.930 . S
C1605 C1600 1.548 . S
C1605 C1604 1.330 1_455 S
C1605 H1631 0.943 . S
U1606 O1607 2.454 . S
U1606 O1608 2.458 . S
U1606 C1609 2.984 . S
U1606 C1610 2.847 . S
U1606 C1623 2.882 . S
U1606 O1624 2.441 . S
U1606 O1625 2.420 . S
U1606 O1626 2.455 . S
U1606 O1627 2.449 . S
O1607 U1606 2.454 . S
O1607 C1609 1.353 . S
O1608 U1606 2.458 . S
O1608 C1609 1.286 . S
C1609 U1606 2.984 . S
C1609 O1607 1.353 . S
C1609 O1608 1.286 . S
C1609 C1611 1.363 . S
C1610 C1600 1.465 . S
C1610 U1606 2.847 . S
C1610 O1624 1.249 . S
C1610 O1625 1.202 . S
C1611 C1609 1.363 . S
C1611 C1613 1.408 . S
C1611 C1616 1.342 . S
C1612 C1613 1.310 . S
C1612 C1615 1.461 . S
C1612 H1632 0.932 . S
C1613 C1611 1.408 . S
C1613 C1612 1.310 . S
C1613 H1633 0.930 . S
C1614 C1615 1.474 . S
C1614 C1616 1.285 . S
C1614 H1634 0.929 . S
C1615 C1612 1.461 . S
C1615 C1614 1.474 . S
C1616 C1611 1.342 . S
C1616 C1614 1.285 . S
C1616 H1635 0.930 . S
C1617 C1620 1.424 . S
C1617 C1622 1.245 . S
C1617 C1623 1.428 . S
C1618 C1621 1.260 . S
C1618 C1622 1.477 . S
C1618 H1636 0.932 . S
C1619 C1620 1.384 . S
C1619 C1621 1.479 . S
C1619 H1637 0.929 . S
C1620 C1617 1.424 . S
C1620 C1619 1.384 . S
C1620 H1638 0.928 . S
C1621 C1618 1.260 . S
C1621 C1619 1.479 . S
C1622 C1617 1.245 . S
C1622 C1618 1.477 . S
C1622 H1639 0.932 . S
C1623 U1606 2.882 . S
C1623 C1617 1.428 . S
C1623 O1626 1.301 . S
C1623 O1627 1.282 . S
O1624 U1606 2.441 . S
O1624 C1610 1.249 . S
O1625 U1606 2.420 . S
O1625 C1610 1.202 . S
O1626 U1606 2.455 . S
O1626 C1623 1.301 . S
O1627 U1606 2.449 . S
O1627 C1623 1.282 . S
H1628 C1601 0.931 . S
H1629 C1603 0.929 . S
H1630 C1604 0.930 . S
H1631 C1605 0.943 . S
H1632 C1612 0.932 . S
H1633 C1613 0.930 . S
H1634 C1614 0.929 . S
H1635 C1616 0.930 . S
H1636 C1618 0.932 . S
H1637 C1619 0.929 . S
H1638 C1620 0.928 . S
H1639 C1622 0.932 . S
C1640 C1641 1.264 . S
C1640 C1645 1.479 . S
C1640 C1650 1.465 . S
C1641 C1640 1.264 . S
C1641 C1643 1.339 . S
C1641 H1668 0.931 . S
C1642 C1643 1.395 . S
C1642 C1644 1.320 . S
C1643 C1641 1.339 . S
C1643 C1642 1.395 . S
C1643 H1669 0.929 . S
C1644 C1642 1.320 . S
C1644 C1645 1.405 . S
C1644 H1670 0.930 . S
C1645 C1640 1.479 . S
C1645 C1644 1.405 . S
C1645 H1671 0.931 . S
U1646 O1647 2.454 . S
U1646 O1648 2.458 . S
U1646 C1649 2.984 . S
U1646 C1650 2.847 . S
U1646 C1663 2.882 . S
U1646 O1664 2.441 . S
U1646 O1665 2.420 . S
U1646 O1666 2.455 . S
U1646 O1667 2.449 . S
O1647 U1646 2.454 . S
O1647 C1649 1.353 . S
O1648 U1646 2.458 . S
O1648 C1649 1.286 . S
C1649 U1646 2.984 . S
C1649 O1647 1.353 . S
C1649 O1648 1.286 . S
C1649 C1651 1.363 . S
C1650 C1640 1.465 . S
C1650 U1646 2.847 . S
C1650 O1664 1.249 . S
C1650 O1665 1.202 . S
C1651 C1649 1.363 . S
C1651 C1653 1.408 . S
C1651 C1656 1.342 . S
C1652 C1653 1.310 . S
C1652 C1655 1.461 . S
C1652 H1672 0.932 . S
C1653 C1651 1.408 . S
C1653 C1652 1.310 . S
C1653 H1673 0.930 . S
C1654 C1655 1.474 . S
C1654 C1656 1.285 . S
C1654 H1674 0.929 . S
C1655 C1652 1.461 . S
C1655 C1654 1.474 . S
C1656 C1651 1.342 . S
C1656 C1654 1.285 . S
C1656 H1675 0.930 . S
C1657 C1660 1.424 . S
C1657 C1662 1.245 . S
C1657 C1663 1.428 . S
C1658 C1661 1.260 . S
C1658 C1662 1.477 . S
C1658 H1676 0.932 . S
C1659 C1660 1.384 . S
C1659 C1661 1.479 . S
C1659 H1677 0.929 . S
C1660 C1657 1.424 . S
C1660 C1659 1.384 . S
C1660 H1678 0.928 . S
C1661 C1658 1.260 . S
C1661 C1659 1.479 . S
C1662 C1657 1.245 . S
C1662 C1658 1.477 . S
C1662 H1679 0.932 . S
C1663 U1646 2.882 . S
C1663 C1657 1.428 . S
C1663 O1666 1.301 . S
C1663 O1667 1.282 . S
O1664 U1646 2.441 . S
O1664 C1650 1.249 . S
O1665 U1646 2.420 . S
O1665 C1650 1.202 . S
O1666 U1646 2.455 . S
O1666 C1663 1.301 . S
O1667 U1646 2.449 . S
O1667 C1663 1.282 . S
H1668 C1641 0.931 . S
H1669 C1643 0.929 . S
H1670 C1644 0.930 . S
H1671 C1645 0.931 . S
H1672 C1652 0.932 . S
H1673 C1653 0.930 . S
H1674 C1654 0.929 . S
H1675 C1656 0.930 . S
H1676 C1658 0.932 . S
H1677 C1659 0.929 . S
H1678 C1660 0.928 . S
H1679 C1662 0.932 . S
C1680 C1681 1.264 . S
C1680 C1685 1.479 . S
C1680 C1690 1.465 . S
C1681 C1680 1.264 . S
C1681 C1683 1.339 . S
C1681 H1708 0.931 . S
C1682 C1683 1.395 . S
C1682 C1684 1.320 . S
C1683 C1681 1.339 . S
C1683 C1682 1.395 . S
C1683 H1709 0.929 . S
C1684 C1682 1.320 . S
C1684 C1685 1.405 . S
C1684 H1710 0.930 . S
C1685 C1680 1.479 . S
C1685 C1684 1.405 . S
C1685 H1711 0.931 . S
U1686 O1687 2.454 . S
U1686 O1688 2.458 . S
U1686 C1689 2.984 . S
U1686 C1690 2.847 . S
U1686 C1703 2.882 . S
U1686 O1704 2.441 . S
U1686 O1705 2.420 . S
U1686 O1706 2.455 . S
U1686 O1707 2.449 . S
O1687 U1686 2.454 . S
O1687 C1689 1.353 . S
O1688 U1686 2.458 . S
O1688 C1689 1.286 . S
C1689 U1686 2.984 . S
C1689 O1687 1.353 . S
C1689 O1688 1.286 . S
C1689 C1691 1.363 . S
C1690 C1680 1.465 . S
C1690 U1686 2.847 . S
C1690 O1704 1.249 . S
C1690 O1705 1.202 . S
C1691 C1689 1.363 . S
C1691 C1693 1.408 1_554 S
C1691 C1696 1.342 . S
C1692 C1693 1.310 . S
C1692 C1695 1.461 . S
C1692 H1712 0.932 . S
C1693 C1691 1.408 1_556 S
C1693 C1692 1.310 . S
C1693 H1713 0.954 . S
C1694 C1695 1.474 . S
C1694 C1696 1.285 1_556 S
C1694 H1714 0.929 . S
C1695 C1692 1.461 . S
C1695 C1694 1.474 . S
C1696 C1691 1.342 . S
C1696 C1694 1.285 1_554 S
C1696 H1715 0.930 . S
C1697 C1700 1.424 . S
C1697 C1702 1.245 . S
C1697 C1703 1.428 . S
C1698 C1701 1.260 . S
C1698 C1702 1.477 . S
C1698 H1716 0.932 . S
C1699 C1700 1.384 . S
C1699 C1701 1.479 . S
C1699 H1717 0.929 . S
C1700 C1697 1.424 . S
C1700 C1699 1.384 . S
C1700 H1718 0.928 . S
C1701 C1698 1.260 . S
C1701 C1699 1.479 . S
C1702 C1697 1.245 . S
C1702 C1698 1.477 . S
C1702 H1719 0.932 . S
C1703 U1686 2.882 . S
C1703 C1697 1.428 . S
C1703 O1706 1.301 . S
C1703 O1707 1.282 . S
O1704 U1686 2.441 . S
O1704 C1690 1.249 . S
O1705 U1686 2.420 . S
O1705 C1690 1.202 . S
O1706 U1686 2.455 . S
O1706 C1703 1.301 . S
O1707 U1686 2.449 . S
O1707 C1703 1.282 . S
H1708 C1681 0.931 . S
H1709 C1683 0.929 . S
H1710 C1684 0.930 . S
H1711 C1685 0.931 . S
H1712 C1692 0.932 . S
H1713 C1693 0.954 . S
H1714 C1694 0.929 . S
H1715 C1696 0.930 . S
H1716 C1698 0.932 . S
H1717 C1699 0.929 . S
H1718 C1700 0.928 . S
H1719 C1702 0.932 . S
C1720 C1721 1.264 . S
C1720 C1725 1.479 . S
C1720 C1730 1.465 . S
C1721 C1720 1.264 . S
C1721 C1723 1.339 . S
C1721 H1748 0.931 . S
C1722 C1723 1.395 . S
C1722 C1724 1.320 . S
C1723 C1721 1.339 . S
C1723 C1722 1.395 . S
C1723 H1749 0.929 . S
C1724 C1722 1.320 . S
C1724 C1725 1.405 . S
C1724 H1750 0.930 . S
C1725 C1720 1.479 . S
C1725 C1724 1.405 . S
C1725 H1751 0.931 . S
U1726 O1727 2.454 . S
U1726 O1728 2.458 . S
U1726 C1729 2.984 . S
U1726 C1730 2.847 . S
U1726 C1743 2.882 . S
U1726 O1744 2.441 . S
U1726 O1745 2.420 . S
U1726 O1746 2.455 . S
U1726 O1747 2.449 . S
O1727 U1726 2.454 . S
O1727 C1729 1.353 . S
O1728 U1726 2.458 . S
O1728 C1729 1.286 . S
C1729 U1726 2.984 . S
C1729 O1727 1.353 . S
C1729 O1728 1.286 . S
C1729 C1731 1.363 . S
C1730 C1720 1.465 . S
C1730 U1726 2.847 . S
C1730 O1744 1.249 . S
C1730 O1745 1.202 . S
C1731 C1729 1.363 . S
C1731 C1733 1.408 . S
C1731 C1736 1.342 . S
C1732 C1733 1.310 . S
C1732 C1735 1.461 . S
C1732 H1752 0.932 . S
C1733 C1731 1.408 . S
C1733 C1732 1.310 . S
C1733 H1753 0.930 . S
C1734 C1735 1.474 . S
C1734 C1736 1.285 . S
C1734 H1754 0.929 . S
C1735 C1732 1.461 . S
C1735 C1734 1.474 . S
C1736 C1731 1.342 . S
C1736 C1734 1.285 . S
C1736 H1755 0.930 . S
C1737 C1740 1.424 . S
C1737 C1742 1.245 . S
C1737 C1743 1.428 . S
C1738 C1741 1.260 . S
C1738 C1742 1.477 . S
C1738 H1756 0.932 . S
C1739 C1740 1.384 . S
C1739 C1741 1.479 . S
C1739 H1757 0.929 . S
C1740 C1737 1.424 . S
C1740 C1739 1.384 . S
C1740 H1758 0.928 . S
C1741 C1738 1.260 . S
C1741 C1739 1.479 . S
C1742 C1737 1.245 . S
C1742 C1738 1.477 . S
C1742 H1759 0.932 . S
C1743 U1726 2.882 . S
C1743 C1737 1.428 . S
C1743 O1746 1.301 . S
C1743 O1747 1.282 . S
O1744 U1726 2.441 . S
O1744 C1730 1.249 . S
O1745 U1726 2.420 . S
O1745 C1730 1.202 . S
O1746 U1726 2.455 . S
O1746 C1743 1.301 . S
O1747 U1726 2.449 . S
O1747 C1743 1.282 . S
H1748 C1721 0.931 . S
H1749 C1723 0.929 . S
H1750 C1724 0.930 . S
H1751 C1725 0.931 . S
H1752 C1732 0.932 . S
H1753 C1733 0.930 . S
H1754 C1734 0.929 . S
H1755 C1736 0.930 . S
H1756 C1738 0.932 . S
H1757 C1739 0.929 . S
H1758 C1740 0.928 . S
H1759 C1742 0.932 . S
C1760 C1761 1.264 . S
C1760 C1765 1.479 . S
C1760 C1770 1.465 . S
C1761 C1760 1.264 . S
C1761 C1763 1.339 . S
C1761 H1788 0.931 . S
C1762 C1763 1.395 . S
C1762 C1764 1.320 . S
C1763 C1761 1.339 . S
C1763 C1762 1.395 . S
C1763 H1789 0.929 . S
C1764 C1762 1.320 . S
C1764 C1765 1.405 . S
C1764 H1790 0.930 . S
C1765 C1760 1.479 . S
C1765 C1764 1.405 . S
C1765 H1791 0.931 . S
U1766 O1767 2.454 . S
U1766 O1768 2.458 . S
U1766 C1769 2.984 . S
U1766 C1770 2.847 . S
U1766 C1783 2.882 . S
U1766 O1784 2.441 . S
U1766 O1785 2.420 . S
U1766 O1786 2.455 . S
U1766 O1787 2.449 . S
O1767 U1766 2.454 . S
O1767 C1769 1.353 . S
O1768 U1766 2.458 . S
O1768 C1769 1.286 . S
C1769 U1766 2.984 . S
C1769 O1767 1.353 . S
C1769 O1768 1.286 . S
C1769 C1771 1.363 . S
C1770 C1760 1.465 . S
C1770 U1766 2.847 . S
C1770 O1784 1.249 . S
C1770 O1785 1.202 . S
C1771 C1769 1.363 . S
C1771 C1773 1.408 . S
C1771 C1776 1.342 . S
C1772 C1773 1.310 . S
C1772 C1775 1.461 . S
C1772 H1792 0.932 . S
C1773 C1771 1.408 . S
C1773 C1772 1.310 . S
C1773 H1793 0.930 . S
C1774 C1775 1.474 . S
C1774 C1776 1.285 . S
C1774 H1794 0.929 . S
C1775 C1772 1.461 . S
C1775 C1774 1.474 . S
C1776 C1771 1.342 . S
C1776 C1774 1.285 . S
C1776 H1795 0.930 . S
C1777 C1780 1.424 . S
C1777 C1782 1.245 . S
C1777 C1783 1.428 . S
C1778 C1781 1.260 . S
C1778 C1782 1.477 . S
C1778 H1796 0.932 . S
C1779 C1780 1.384 . S
C1779 C1781 1.479 . S
C1779 H1797 0.929 . S
C1780 C1777 1.424 . S
C1780 C1779 1.384 . S
C1780 H1798 0.928 . S
C1781 C1778 1.260 . S
C1781 C1779 1.479 . S
C1782 C1777 1.245 . S
C1782 C1778 1.477 . S
C1782 H1799 0.932 . S
C1783 U1766 2.882 . S
C1783 C1777 1.428 . S
C1783 O1786 1.301 . S
C1783 O1787 1.282 . S
O1784 U1766 2.441 . S
O1784 C1770 1.249 . S
O1785 U1766 2.420 . S
O1785 C1770 1.202 . S
O1786 U1766 2.455 . S
O1786 C1783 1.301 . S
O1787 U1766 2.449 . S
O1787 C1783 1.282 . S
H1788 C1761 0.931 . S
H1789 C1763 0.929 . S
H1790 C1764 0.930 . S
H1791 C1765 0.931 . S
H1792 C1772 0.932 . S
H1793 C1773 0.930 . S
H1794 C1774 0.929 . S
H1795 C1776 0.930 . S
H1796 C1778 0.932 . S
H1797 C1779 0.929 . S
H1798 C1780 0.928 . S
H1799 C1782 0.932 . S
C1800 C1801 1.264 . S
C1800 C1805 1.479 . S
C1800 C1810 1.465 . S
C1801 C1800 1.264 . S
C1801 C1803 1.339 . S
C1801 H1828 0.931 . S
C1802 C1803 1.395 . S
C1802 C1804 1.320 . S
C1803 C1801 1.339 . S
C1803 C1802 1.395 . S
C1803 H1829 0.929 . S
C1804 C1802 1.320 . S
C1804 C1805 1.405 . S
C1804 H1830 0.930 . S
C1805 C1800 1.479 . S
C1805 C1804 1.405 . S
C1805 H1831 0.931 . S
U1806 O1807 2.454 . S
U1806 O1808 2.458 . S
U1806 C1809 2.984 . S
U1806 C1810 2.847 . S
U1806 C1823 2.882 . S
U1806 O1824 2.441 . S
U1806 O1825 2.420 . S
U1806 O1826 2.455 . S
U1806 O1827 2.449 . S
O1807 U1806 2.454 . S
O1807 C1809 1.353 . S
O1808 U1806 2.458 . S
O1808 C1809 1.286 . S
C1809 U1806 2.984 . S
C1809 O1807 1.353 . S
C1809 O1808 1.286 . S
C1809 C1811 1.363 . S
C1810 C1800 1.465 . S
C1810 U1806 2.847 . S
C1810 O1824 1.249 . S
C1810 O1825 1.202 . S
C1811 C1809 1.363 . S
C1811 C1813 1.408 . S
C1811 C1816 1.342 . S
C1812 C1813 1.310 . S
C1812 C1815 1.461 . S
C1812 H1832 0.932 . S
C1813 C1811 1.408 . S
C1813 C1812 1.310 . S
C1813 H1833 0.930 . S
C1814 C1815 1.474 . S
C1814 C1816 1.285 . S
C1814 H1834 0.929 . S
C1815 C1812 1.461 . S
C1815 C1814 1.474 . S
C1816 C1811 1.342 . S
C1816 C1814 1.285 . S
C1816 H1835 0.930 . S
C1817 C1820 1.424 . S
C1817 C1822 1.245 . S
C1817 C1823 1.428 . S
C1818 C1821 1.260 . S
C1818 C1822 1.477 . S
C1818 H1836 0.932 . S
C1819 C1820 1.384 . S
C1819 C1821 1.479 . S
C1819 H1837 0.929 . S
C1820 C1817 1.424 . S
C1820 C1819 1.384 . S
C1820 H1838 0.928 . S
C1821 C1818 1.260 . S
C1821 C1819 1.479 . S
C1822 C1817 1.245 . S
C1822 C1818 1.477 . S
C1822 H1839 0.932 . S
C1823 U1806 2.882 . S
C1823 C1817 1.428 . S
C1823 O1826 1.301 . S
C1823 O1827 1.282 . S
O1824 U1806 2.441 . S
O1824 C1810 1.249 . S
O1825 U1806 2.420 . S
O1825 C1810 1.202 . S
O1826 U1806 2.455 . S
O1826 C1823 1.301 . S
O1827 U1806 2.449 . S
O1827 C1823 1.282 . S
H1828 C1801 0.931 . S
H1829 C1803 0.929 . S
H1830 C1804 0.930 . S
H1831 C1805 0.931 . S
H1832 C1812 0.932 . S
H1833 C1813 0.930 . S
H1834 C1814 0.929 . S
H1835 C1816 0.930 . S
H1836 C1818 0.932 . S
H1837 C1819 0.929 . S
H1838 C1820 0.928 . S
H1839 C1822 0.932 . S
C1840 C1841 1.264 . S
C1840 C1845 1.479 . S
C1840 C1850 1.465 . S
C1841 C1840 1.264 . S
C1841 C1843 1.339 . S
C1841 H1868 0.931 . S
C1842 C1843 1.395 . S
C1842 C1844 1.320 . S
C1843 C1841 1.339 . S
C1843 C1842 1.395 . S
C1843 H1869 0.929 . S
C1844 C1842 1.320 . S
C1844 C1845 1.405 . S
C1844 H1870 0.930 . S
C1845 C1840 1.479 . S
C1845 C1844 1.405 . S
C1845 H1871 0.931 . S
U1846 O1847 2.454 . S
U1846 O1848 2.458 . S
U1846 C1849 2.984 . S
U1846 C1850 2.847 . S
U1846 C1863 2.882 . S
U1846 O1864 2.441 . S
U1846 O1865 2.420 . S
U1846 O1866 2.455 . S
U1846 O1867 2.449 . S
O1847 U1846 2.454 . S
O1847 C1849 1.353 . S
O1848 U1846 2.458 . S
O1848 C1849 1.286 . S
C1849 U1846 2.984 . S
C1849 O1847 1.353 . S
C1849 O1848 1.286 . S
C1849 C1851 1.363 . S
C1850 C1840 1.465 . S
C1850 U1846 2.847 . S
C1850 O1864 1.249 . S
C1850 O1865 1.202 . S
C1851 C1849 1.363 . S
C1851 C1853 1.408 . S
C1851 C1856 1.342 . S
C1852 C1853 1.310 . S
C1852 C1855 1.461 . S
C1852 H1872 0.932 . S
C1853 C1851 1.408 . S
C1853 C1852 1.310 . S
C1853 H1873 0.930 . S
C1854 C1855 1.474 . S
C1854 C1856 1.285 . S
C1854 H1874 0.929 . S
C1855 C1852 1.461 . S
C1855 C1854 1.474 . S
C1856 C1851 1.342 . S
C1856 C1854 1.285 . S
C1856 H1875 0.930 . S
C1857 C1860 1.424 . S
C1857 C1862 1.245 . S
C1857 C1863 1.428 . S
C1858 C1861 1.260 . S
C1858 C1862 1.477 . S
C1858 H1876 0.932 . S
C1859 C1860 1.384 . S
C1859 C1861 1.479 . S
C1859 H1877 0.929 . S
C1860 C1857 1.424 . S
C1860 C1859 1.384 . S
C1860 H1878 0.928 . S
C1861 C1858 1.260 . S
C1861 C1859 1.479 . S
C1862 C1857 1.245 . S
C1862 C1858 1.477 . S
C1862 H1879 0.932 . S
C1863 U1846 2.882 . S
C1863 C1857 1.428 . S
C1863 O1866 1.301 . S
C1863 O1867 1.282 . S
O1864 U1846 2.441 . S
O1864 C1850 1.249 . S
O1865 U1846 2.420 . S
O1865 C1850 1.202 . S
O1866 U1846 2.455 . S
O1866 C1863 1.301 . S
O1867 U1846 2.449 . S
O1867 C1863 1.282 . S
H1868 C1841 0.931 . S
H1869 C1843 0.929 . S
H1870 C1844 0.930 . S
H1871 C1845 0.931 . S
H1872 C1852 0.932 . S
H1873 C1853 0.930 . S
H1874 C1854 0.929 . S
H1875 C1856 0.930 . S
H1876 C1858 0.932 . S
H1877 C1859 0.929 . S
H1878 C1860 0.928 . S
H1879 C1862 0.932 . S
C1880 C1881 1.264 . S
C1880 C1885 1.479 . S
C1880 C1890 1.465 . S
C1881 C1880 1.264 . S
C1881 C1883 1.339 . S
C1881 H1908 0.931 . S
C1882 C1883 1.395 . S
C1882 C1884 1.320 . S
C1883 C1881 1.339 . S
C1883 C1882 1.395 . S
C1883 H1909 0.929 . S
C1884 C1882 1.320 . S
C1884 C1885 1.405 . S
C1884 H1910 0.930 . S
C1885 C1880 1.479 . S
C1885 C1884 1.405 . S
C1885 H1911 0.931 . S
U1886 O1887 2.454 . S
U1886 O1888 2.458 . S
U1886 C1889 2.984 . S
U1886 C1890 2.847 . S
U1886 C1903 2.882 . S
U1886 O1904 2.441 . S
U1886 O1905 2.420 . S
U1886 O1906 2.455 . S
U1886 O1907 2.449 . S
O1887 U1886 2.454 . S
O1887 C1889 1.353 . S
O1888 U1886 2.458 . S
O1888 C1889 1.286 . S
C1889 U1886 2.984 . S
C1889 O1887 1.353 . S
C1889 O1888 1.286 . S
C1889 C1891 1.363 . S
C1890 C1880 1.465 . S
C1890 U1886 2.847 . S
C1890 O1904 1.249 . S
C1890 O1905 1.202 . S
C1891 C1889 1.363 . S
C1891 C1893 1.408 . S
C1891 C1896 1.342 . S
C1892 C1893 1.310 . S
C1892 C1895 1.461 . S
C1892 H1912 0.932 . S
C1893 C1891 1.408 . S
C1893 C1892 1.310 . S
C1893 H1913 0.930 . S
C1894 C1895 1.474 . S
C1894 C1896 1.285 . S
C1894 H1914 0.929 . S
C1895 C1892 1.461 . S
C1895 C1894 1.474 . S
C1896 C1891 1.342 . S
C1896 C1894 1.285 . S
C1896 H1915 0.930 . S
C1897 C1900 1.424 . S
C1897 C1902 1.245 . S
C1897 C1903 1.428 . S
C1898 C1901 1.260 . S
C1898 C1902 1.477 . S
C1898 H1916 0.932 . S
C1899 C1900 1.384 . S
C1899 C1901 1.479 . S
C1899 H1917 0.929 . S
C1900 C1897 1.424 . S
C1900 C1899 1.384 . S
C1900 H1918 0.928 . S
C1901 C1898 1.260 . S
C1901 C1899 1.479 . S
C1902 C1897 1.245 . S
C1902 C1898 1.477 . S
C1902 H1919 0.932 . S
C1903 U1886 2.882 . S
C1903 C1897 1.428 . S
C1903 O1906 1.301 . S
C1903 O1907 1.282 . S
O1904 U1886 2.441 . S
O1904 C1890 1.249 . S
O1905 U1886 2.420 . S
O1905 C1890 1.202 . S
O1906 U1886 2.455 . S
O1906 C1903 1.301 . S
O1907 U1886 2.449 . S
O1907 C1903 1.282 . S
H1908 C1881 0.931 . S
H1909 C1883 0.929 . S
H1910 C1884 0.930 . S
H1911 C1885 0.931 . S
H1912 C1892 0.932 . S
H1913 C1893 0.930 . S
H1914 C1894 0.929 . S
H1915 C1896 0.930 . S
H1916 C1898 0.932 . S
H1917 C1899 0.929 . S
H1918 C1900 0.928 . S
H1919 C1902 0.932 . S
H1920 C1927 0.929 . S
H1921 C1930 0.930 . S
H1922 C1932 0.929 . S
H1923 C1924 0.969 . S
C1924 H1923 0.969 . S
C1924 O1925 1.550 . S
C1924 H1926 0.973 . S
O1925 C1924 1.550 . S
O1925 C1931 1.412 . S
H1926 C1924 0.973 . S
C1927 H1920 0.929 . S
C1927 C1928 1.400 . S
C1927 C1929 1.364 . S
C1928 C1927 1.400 . S
C1928 C1932 1.377 . S
C1929 C1927 1.364 . S
C1929 C1930 1.374 . S
C1930 H1921 0.930 . S
C1930 C1929 1.374 . S
C1930 C1931 1.383 . S
C1931 O1925 1.412 . S
C1931 C1930 1.383 . S
C1931 C1932 1.394 . S
C1932 H1922 0.929 . S
C1932 C1928 1.377 . S
C1932 C1931 1.394 . S
H1933 C1940 0.929 . S
H1934 C1943 0.930 . S
H1935 C1945 0.929 . S
H1936 C1937 0.969 . S
C1937 H1936 0.969 . S
C1937 O1938 1.550 . S
C1937 H1939 0.973 . S
O1938 C1937 1.550 . S
O1938 C1944 1.412 . S
H1939 C1937 0.973 . S
C1940 H1933 0.929 . S
C1940 C1941 1.400 . S
C1940 C1942 1.364 . S
C1941 C1940 1.400 . S
C1941 C1945 1.377 . S
C1942 C1940 1.364 . S
C1942 C1943 1.374 . S
C1943 H1934 0.930 . S
C1943 C1942 1.374 . S
C1943 C1944 1.383 . S
C1944 O1938 1.412 . S
C1944 C1943 1.383 . S
C1944 C1945 1.394 . S
C1945 H1935 0.929 . S
C1945 C1941 1.377 . S
C1945 C1944 1.394 . S
H1946 C1953 0.929 . S
H1947 C1956 0.930 . S
H1948 C1958 0.929 . S
H1949 C1950 0.969 . S
C1950 H1949 0.969 . S
C1950 O1951 1.550 . S
C1950 H1952 0.973 . S
O1951 C1950 1.550 . S
O1951 C1957 1.412 . S
H1952 C1950 0.973 . S
C1953 H1946 0.929 . S
C1953 C1954 1.400 . S
C1953 C1955 1.364 . S
C1954 C1953 1.400 . S
C1954 C1958 1.377 . S
C1955 C1953 1.364 . S
C1955 C1956 1.374 . S
C1956 H1947 0.930 . S
C1956 C1955 1.374 . S
C1956 C1957 1.383 . S
C1957 O1951 1.412 . S
C1957 C1956 1.383 . S
C1957 C1958 1.394 . S
C1958 H1948 0.929 . S
C1958 C1954 1.377 . S
C1958 C1957 1.394 . S
H1959 C1966 0.929 . S
H1960 C1969 0.930 . S
H1961 C1971 0.929 . S
H1962 C1963 0.969 . S
C1963 H1962 0.969 . S
C1963 O1964 1.550 . S
C1963 H1965 0.973 . S
O1964 C1963 1.550 . S
O1964 C1970 1.412 . S
H1965 C1963 0.973 . S
C1966 H1959 0.929 . S
C1966 C1967 1.400 . S
C1966 C1968 1.364 . S
C1967 C1966 1.400 . S
C1967 C1971 1.377 . S
C1968 C1966 1.364 . S
C1968 C1969 1.374 . S
C1969 H1960 0.930 . S
C1969 C1968 1.374 . S
C1969 C1970 1.383 . S
C1970 O1964 1.412 . S
C1970 C1969 1.383 . S
C1970 C1971 1.394 . S
C1971 H1961 0.929 . S
C1971 C1967 1.377 . S
C1971 C1970 1.394 . S
H1972 C1979 0.929 . S
H1973 C1982 0.930 . S
H1974 C1984 0.929 . S
H1975 C1976 0.969 . S
C1976 H1975 0.969 . S
C1976 O1977 1.550 . S
C1976 H1978 0.973 . S
O1977 C1976 1.550 . S
O1977 C1983 1.412 . S
H1978 C1976 0.973 . S
C1979 H1972 0.929 . S
C1979 C1980 1.400 . S
C1979 C1981 1.364 . S
C1980 C1979 1.400 . S
C1980 C1984 1.377 . S
C1981 C1979 1.364 . S
C1981 C1982 1.374 . S
C1982 H1973 0.930 . S
C1982 C1981 1.374 . S
C1982 C1983 1.383 . S
C1983 O1977 1.412 . S
C1983 C1982 1.383 . S
C1983 C1984 1.394 . S
C1984 H1974 0.929 . S
C1984 C1980 1.377 . S
C1984 C1983 1.394 . S
H1985 C1992 0.929 . S
H1986 C1995 0.930 . S
H1987 C1997 0.929 . S
H1988 C1989 0.969 . S
C1989 H1988 0.969 . S
C1989 O1990 1.550 . S
C1989 H1991 0.973 . S
O1990 C1989 1.550 . S
O1990 C1996 1.412 . S
H1991 C1989 0.973 . S
C1992 H1985 0.929 . S
C1992 C1993 1.400 . S
C1992 C1994 1.364 . S
C1993 C1992 1.400 . S
C1993 C1997 1.377 . S
C1994 C1992 1.364 . S
C1994 C1995 1.374 . S
C1995 H1986 0.930 . S
C1995 C1994 1.374 . S
C1995 C1996 1.383 . S
C1996 O1990 1.412 . S
C1996 C1995 1.383 . S
C1996 C1997 1.394 . S
C1997 H1987 0.929 . S
C1997 C1993 1.377 . S
C1997 C1996 1.394 . S
H1998 C2005 0.929 . S
H1999 C2008 0.930 . S
H2000 C2010 0.929 . S
H2001 C2002 0.969 . S
C2002 H2001 0.969 . S
C2002 O2003 1.550 . S
C2002 H2004 0.973 . S
O2003 C2002 1.550 . S
O2003 C2009 1.412 . S
H2004 C2002 0.973 . S
C2005 H1998 0.929 . S
C2005 C2006 1.400 . S
C2005 C2007 1.364 . S
C2006 C2005 1.400 . S
C2006 C2010 1.377 . S
C2007 C2005 1.364 . S
C2007 C2008 1.374 . S
C2008 H1999 0.930 . S
C2008 C2007 1.374 . S
C2008 C2009 1.383 . S
C2009 O2003 1.412 . S
C2009 C2008 1.383 . S
C2009 C2010 1.394 . S
C2010 H2000 0.929 . S
C2010 C2006 1.377 . S
C2010 C2009 1.394 . S
H2011 C2018 0.929 . S
H2012 C2021 0.930 . S
H2013 C2023 0.929 . S
H2014 C2015 0.969 . S
C2015 H2014 0.969 . S
C2015 O2016 1.550 . S
C2015 H2017 0.973 . S
O2016 C2015 1.550 . S
O2016 C2022 1.412 . S
H2017 C2015 0.973 . S
C2018 H2011 0.929 . S
C2018 C2019 1.400 . S
C2018 C2020 1.364 . S
C2019 C2018 1.400 . S
C2019 C2023 1.377 . S
C2020 C2018 1.364 . S
C2020 C2021 1.374 . S
C2021 H2012 0.930 . S
C2021 C2020 1.374 . S
C2021 C2022 1.383 . S
C2022 O2016 1.412 . S
C2022 C2021 1.383 . S
C2022 C2023 1.394 . S
C2023 H2013 0.929 . S
C2023 C2019 1.377 . S
C2023 C2022 1.394 . S
H2024 C2031 0.929 . S
H2025 C2034 0.930 . S
H2026 C2036 0.929 . S
H2027 C2028 0.969 . S
C2028 H2027 0.969 . S
C2028 O2029 1.550 . S
C2028 H2030 0.973 . S
O2029 C2028 1.550 . S
O2029 C2035 1.412 . S
H2030 C2028 0.973 . S
C2031 H2024 0.929 . S
C2031 C2032 1.400 . S
C2031 C2033 1.364 . S
C2032 C2031 1.400 . S
C2032 C2036 1.377 . S
C2033 C2031 1.364 . S
C2033 C2034 1.374 . S
C2034 H2025 0.930 . S
C2034 C2033 1.374 . S
C2034 C2035 1.383 . S
C2035 O2029 1.412 . S
C2035 C2034 1.383 . S
C2035 C2036 1.394 . S
C2036 H2026 0.929 . S
C2036 C2032 1.377 . S
C2036 C2035 1.394 . S
H2037 C2044 0.929 . S
H2038 C2047 0.930 . S
H2039 C2049 0.929 . S
H2040 C2041 0.969 . S
C2041 H2040 0.969 . S
C2041 O2042 1.550 . S
C2041 H2043 0.973 . S
O2042 C2041 1.550 . S
O2042 C2048 1.412 . S
H2043 C2041 0.973 . S
C2044 H2037 0.929 . S
C2044 C2045 1.400 . S
C2044 C2046 1.364 . S
C2045 C2044 1.400 . S
C2045 C2049 1.377 . S
C2046 C2044 1.364 . S
C2046 C2047 1.374 . S
C2047 H2038 0.930 . S
C2047 C2046 1.374 . S
C2047 C2048 1.383 . S
C2048 O2042 1.412 . S
C2048 C2047 1.383 . S
C2048 C2049 1.394 . S
C2049 H2039 0.929 . S
C2049 C2045 1.377 . S
C2049 C2048 1.394 . S
H2050 C2057 0.929 . S
H2051 C2060 0.930 . S
H2052 C2062 0.929 . S
H2053 C2054 0.969 . S
C2054 H2053 0.969 . S
C2054 O2055 1.550 . S
C2054 H2056 0.973 . S
O2055 C2054 1.550 . S
O2055 C2061 1.412 . S
H2056 C2054 0.973 . S
C2057 H2050 0.929 . S
C2057 C2058 1.400 . S
C2057 C2059 1.364 . S
C2058 C2057 1.400 . S
C2058 C2062 1.377 . S
C2059 C2057 1.364 . S
C2059 C2060 1.374 . S
C2060 H2051 0.930 . S
C2060 C2059 1.374 . S
C2060 C2061 1.383 . S
C2061 O2055 1.412 . S
C2061 C2060 1.383 . S
C2061 C2062 1.394 . S
C2062 H2052 0.929 . S
C2062 C2058 1.377 . S
C2062 C2061 1.394 . S
H2063 C2070 0.929 . S
H2064 C2073 0.930 . S
H2065 C2075 0.929 . S
H2066 C2067 0.969 . S
C2067 H2066 0.969 . S
C2067 O2068 1.550 . S
C2067 H2069 0.973 . S
O2068 C2067 1.550 . S
O2068 C2074 1.412 . S
H2069 C2067 0.973 . S
C2070 H2063 0.929 . S
C2070 C2071 1.400 . S
C2070 C2072 1.364 . S
C2071 C2070 1.400 . S
C2071 C2075 1.377 . S
C2072 C2070 1.364 . S
C2072 C2073 1.374 . S
C2073 H2064 0.930 . S
C2073 C2072 1.374 . S
C2073 C2074 1.383 . S
C2074 O2068 1.412 . S
C2074 C2073 1.383 . S
C2074 C2075 1.394 . S
C2075 H2065 0.929 . S
C2075 C2071 1.377 . S
C2075 C2074 1.394 . S
H2076 C2083 0.929 . S
H2077 C2086 0.930 . S
H2078 C2088 0.929 . S
H2079 C2080 0.969 . S
C2080 H2079 0.969 . S
C2080 O2081 1.550 . S
C2080 H2082 0.973 . S
O2081 C2080 1.550 . S
O2081 C2087 1.412 . S
H2082 C2080 0.973 . S
C2083 H2076 0.929 . S
C2083 C2084 1.400 . S
C2083 C2085 1.364 . S
C2084 C2083 1.400 . S
C2084 C2088 1.377 . S
C2085 C2083 1.364 . S
C2085 C2086 1.374 . S
C2086 H2077 0.930 . S
C2086 C2085 1.374 . S
C2086 C2087 1.383 . S
C2087 O2081 1.412 . S
C2087 C2086 1.383 . S
C2087 C2088 1.394 . S
C2088 H2078 0.929 . S
C2088 C2084 1.377 . S
C2088 C2087 1.394 . S
H2089 C2096 0.929 . S
H2090 C2099 0.930 . S
H2091 C2101 0.929 . S
H2092 C2093 0.969 . S
C2093 H2092 0.969 . S
C2093 O2094 1.550 . S
C2093 H2095 0.973 . S
O2094 C2093 1.550 . S
O2094 C2100 1.412 . S
H2095 C2093 0.973 . S
C2096 H2089 0.929 . S
C2096 C2097 1.400 . S
C2096 C2098 1.364 . S
C2097 C2096 1.400 . S
C2097 C2101 1.377 . S
C2098 C2096 1.364 . S
C2098 C2099 1.374 . S
C2099 H2090 0.930 . S
C2099 C2098 1.374 . S
C2099 C2100 1.383 . S
C2100 O2094 1.412 . S
C2100 C2099 1.383 . S
C2100 C2101 1.394 . S
C2101 H2091 0.929 . S
C2101 C2097 1.377 . S
C2101 C2100 1.394 . S
H2102 C2109 0.929 . S
H2103 C2112 0.930 . S
H2104 C2114 0.929 . S
H2105 C2106 0.969 . S
C2106 H2105 0.969 . S
C2106 O2107 1.550 . S
C2106 H2108 0.973 . S
O2107 C2106 1.550 . S
O2107 C2113 1.412 . S
H2108 C2106 0.973 . S
C2109 H2102 0.929 . S
C2109 C2110 1.400 . S
C2109 C2111 1.364 . S
C2110 C2109 1.400 . S
C2110 C2114 1.377 . S
C2111 C2109 1.364 . S
C2111 C2112 1.374 . S
C2112 H2103 0.930 . S
C2112 C2111 1.374 . S
C2112 C2113 1.383 . S
C2113 O2107 1.412 . S
C2113 C2112 1.383 . S
C2113 C2114 1.394 . S
C2114 H2104 0.929 . S
C2114 C2110 1.377 . S
C2114 C2113 1.394 . S
H2115 C2122 0.929 . S
H2116 C2125 0.930 . S
H2117 C2127 0.929 . S
H2118 C2119 0.969 . S
C2119 H2118 0.969 . S
C2119 O2120 1.550 . S
C2119 H2121 0.973 . S
O2120 C2119 1.550 . S
O2120 C2126 1.412 . S
H2121 C2119 0.973 . S
C2122 H2115 0.929 . S
C2122 C2123 1.400 . S
C2122 C2124 1.364 . S
C2123 C2122 1.400 . S
C2123 C2127 1.377 . S
C2124 C2122 1.364 . S
C2124 C2125 1.374 . S
C2125 H2116 0.930 . S
C2125 C2124 1.374 . S
C2125 C2126 1.383 . S
C2126 O2120 1.412 . S
C2126 C2125 1.383 . S
C2126 C2127 1.394 . S
C2127 H2117 0.929 . S
C2127 C2123 1.377 . S
C2127 C2126 1.394 . S
H2128 C2135 0.929 . S
H2129 C2138 0.930 . S
H2130 C2140 0.929 . S
H2131 C2132 0.969 . S
C2132 H2131 0.969 . S
C2132 O2133 1.550 . S
C2132 H2134 0.973 . S
O2133 C2132 1.550 . S
O2133 C2139 1.412 . S
H2134 C2132 0.973 . S
C2135 H2128 0.929 . S
C2135 C2136 1.400 . S
C2135 C2137 1.364 . S
C2136 C2135 1.400 . S
C2136 C2140 1.377 . S
C2137 C2135 1.364 . S
C2137 C2138 1.374 . S
C2138 H2129 0.930 . S
C2138 C2137 1.374 . S
C2138 C2139 1.383 . S
C2139 O2133 1.412 . S
C2139 C2138 1.383 . S
C2139 C2140 1.394 . S
C2140 H2130 0.929 . S
C2140 C2136 1.377 . S
C2140 C2139 1.394 . S
H2141 C2148 0.929 . S
H2142 C2151 0.930 . S
H2143 C2153 0.929 . S
H2144 C2145 0.969 . S
C2145 H2144 0.969 . S
C2145 O2146 1.550 . S
C2145 H2147 0.973 . S
O2146 C2145 1.550 . S
O2146 C2152 1.412 . S
H2147 C2145 0.973 . S
C2148 H2141 0.929 . S
C2148 C2149 1.400 . S
C2148 C2150 1.364 . S
C2149 C2148 1.400 . S
C2149 C2153 1.377 . S
C2150 C2148 1.364 . S
C2150 C2151 1.374 . S
C2151 H2142 0.930 . S
C2151 C2150 1.374 . S
C2151 C2152 1.383 . S
C2152 O2146 1.412 . S
C2152 C2151 1.383 . S
C2152 C2153 1.394 . S
C2153 H2143 0.929 . S
C2153 C2149 1.377 . S
C2153 C2152 1.394 . S
H2154 C2161 0.929 . S
H2155 C2164 0.930 . S
H2156 C2166 0.929 . S
H2157 C2158 0.969 . S
C2158 H2157 0.969 . S
C2158 O2159 1.550 . S
C2158 H2160 0.973 . S
O2159 C2158 1.550 . S
O2159 C2165 1.412 . S
H2160 C2158 0.973 . S
C2161 H2154 0.929 . S
C2161 C2162 1.400 . S
C2161 C2163 1.364 . S
C2162 C2161 1.400 . S
C2162 C2166 1.377 . S
C2163 C2161 1.364 . S
C2163 C2164 1.374 . S
C2164 H2155 0.930 . S
C2164 C2163 1.374 . S
C2164 C2165 1.383 . S
C2165 O2159 1.412 . S
C2165 C2164 1.383 . S
C2165 C2166 1.394 . S
C2166 H2156 0.929 . S
C2166 C2162 1.377 . S
C2166 C2165 1.394 . S
H2167 C2174 0.929 . S
H2168 C2177 0.930 . S
H2169 C2179 0.929 . S
H2170 C2171 0.969 . S
C2171 H2170 0.969 . S
C2171 O2172 1.550 . S
C2171 H2173 0.973 . S
O2172 C2171 1.550 . S
O2172 C2178 1.412 . S
H2173 C2171 0.973 . S
C2174 H2167 0.929 . S
C2174 C2175 1.400 . S
C2174 C2176 1.364 . S
C2175 C2174 1.400 . S
C2175 C2179 1.377 . S
C2176 C2174 1.364 . S
C2176 C2177 1.374 . S
C2177 H2168 0.930 . S
C2177 C2176 1.374 . S
C2177 C2178 1.383 . S
C2178 O2172 1.412 . S
C2178 C2177 1.383 . S
C2178 C2179 1.394 . S
C2179 H2169 0.929 . S
C2179 C2175 1.377 . S
C2179 C2178 1.394 . S
H2180 C2187 0.929 . S
H2181 C2190 0.930 . S
H2182 C2192 0.929 . S
H2183 C2184 0.969 . S
C2184 H2183 0.969 . S
C2184 O2185 1.550 . S
C2184 H2186 0.973 . S
O2185 C2184 1.550 . S
O2185 C2191 1.412 . S
H2186 C2184 0.973 . S
C2187 H2180 0.929 . S
C2187 C2188 1.400 . S
C2187 C2189 1.364 . S
C2188 C2187 1.400 . S
C2188 C2192 1.377 . S
C2189 C2187 1.364 . S
C2189 C2190 1.374 . S
C2190 H2181 0.930 . S
C2190 C2189 1.374 . S
C2190 C2191 1.383 . S
C2191 O2185 1.412 . S
C2191 C2190 1.383 . S
C2191 C2192 1.394 . S
C2192 H2182 0.929 . S
C2192 C2188 1.377 . S
C2192 C2191 1.394 . S
H2193 C2200 0.929 . S
H2194 C2203 0.930 . S
H2195 C2205 0.929 . S
H2196 C2197 0.969 . S
C2197 H2196 0.969 . S
C2197 O2198 1.550 . S
C2197 H2199 0.973 . S
O2198 C2197 1.550 . S
O2198 C2204 1.412 . S
H2199 C2197 0.973 . S
C2200 H2193 0.929 . S
C2200 C2201 1.400 . S
C2200 C2202 1.364 . S
C2201 C2200 1.400 . S
C2201 C2205 1.377 . S
C2202 C2200 1.364 . S
C2202 C2203 1.374 . S
C2203 H2194 0.930 . S
C2203 C2202 1.374 . S
C2203 C2204 1.383 . S
C2204 O2198 1.412 . S
C2204 C2203 1.383 . S
C2204 C2205 1.394 . S
C2205 H2195 0.929 . S
C2205 C2201 1.377 . S
C2205 C2204 1.394 . S
H2206 C2213 0.929 . S
H2207 C2216 0.930 . S
H2208 C2218 0.929 . S
H2209 C2210 0.969 . S
C2210 H2209 0.969 . S
C2210 O2211 1.550 . S
C2210 H2212 0.973 . S
O2211 C2210 1.550 . S
O2211 C2217 1.412 . S
H2212 C2210 0.973 . S
C2213 H2206 0.929 . S
C2213 C2214 1.400 . S
C2213 C2215 1.364 . S
C2214 C2213 1.400 . S
C2214 C2218 1.377 . S
C2215 C2213 1.364 . S
C2215 C2216 1.374 . S
C2216 H2207 0.930 . S
C2216 C2215 1.374 . S
C2216 C2217 1.383 . S
C2217 O2211 1.412 . S
C2217 C2216 1.383 . S
C2217 C2218 1.394 . S
C2218 H2208 0.929 . S
C2218 C2214 1.377 . S
C2218 C2217 1.394 . S
H2219 C2226 0.929 . S
H2220 C2229 0.930 . S
H2221 C2231 0.929 . S
H2222 C2223 0.969 . S
C2223 H2222 0.969 . S
C2223 O2224 1.550 . S
C2223 H2225 0.973 . S
O2224 C2223 1.550 . S
O2224 C2230 1.412 . S
H2225 C2223 0.973 . S
C2226 H2219 0.929 . S
C2226 C2227 1.400 . S
C2226 C2228 1.364 . S
C2227 C2226 1.400 . S
C2227 C2231 1.377 . S
C2228 C2226 1.364 . S
C2228 C2229 1.374 . S
C2229 H2220 0.930 . S
C2229 C2228 1.374 . S
C2229 C2230 1.383 . S
C2230 O2224 1.412 . S
C2230 C2229 1.383 . S
C2230 C2231 1.394 . S
C2231 H2221 0.929 . S
C2231 C2227 1.377 . S
C2231 C2230 1.394 . S
H2232 C2239 0.929 . S
H2233 C2242 0.930 . S
H2234 C2244 0.929 . S
H2235 C2236 0.969 . S
C2236 H2235 0.969 . S
C2236 O2237 1.550 . S
C2236 H2238 0.973 . S
O2237 C2236 1.550 . S
O2237 C2243 1.412 . S
H2238 C2236 0.973 . S
C2239 H2232 0.929 . S
C2239 C2240 1.400 . S
C2239 C2241 1.364 . S
C2240 C2239 1.400 . S
C2240 C2244 1.377 . S
C2241 C2239 1.364 . S
C2241 C2242 1.374 . S
C2242 H2233 0.930 . S
C2242 C2241 1.374 . S
C2242 C2243 1.383 . S
C2243 O2237 1.412 . S
C2243 C2242 1.383 . S
C2243 C2244 1.394 . S
C2244 H2234 0.929 . S
C2244 C2240 1.377 . S
C2244 C2243 1.394 . S
H2245 C2252 0.929 . S
H2246 C2255 0.930 . S
H2247 C2257 0.929 . S
H2248 C2249 0.969 . S
C2249 H2248 0.969 . S
C2249 O2250 1.550 . S
C2249 H2251 0.973 . S
O2250 C2249 1.550 . S
O2250 C2256 1.412 . S
H2251 C2249 0.973 . S
C2252 H2245 0.929 . S
C2252 C2253 1.400 . S
C2252 C2254 1.364 . S
C2253 C2252 1.400 . S
C2253 C2257 1.377 . S
C2254 C2252 1.364 . S
C2254 C2255 1.374 . S
C2255 H2246 0.930 . S
C2255 C2254 1.374 . S
C2255 C2256 1.383 . S
C2256 O2250 1.412 . S
C2256 C2255 1.383 . S
C2256 C2257 1.394 . S
C2257 H2247 0.929 . S
C2257 C2253 1.377 . S
C2257 C2256 1.394 . S
H2258 C2265 0.929 . S
H2259 C2268 0.930 . S
H2260 C2270 0.929 . S
H2261 C2262 0.969 . S
C2262 H2261 0.969 . S
C2262 O2263 1.550 . S
C2262 H2264 0.973 . S
O2263 C2262 1.550 . S
O2263 C2269 1.412 . S
H2264 C2262 0.973 . S
C2265 H2258 0.929 . S
C2265 C2266 1.400 . S
C2265 C2267 1.364 . S
C2266 C2265 1.400 . S
C2266 C2270 1.377 . S
C2267 C2265 1.364 . S
C2267 C2268 1.374 . S
C2268 H2259 0.930 . S
C2268 C2267 1.374 . S
C2268 C2269 1.383 . S
C2269 O2263 1.412 . S
C2269 C2268 1.383 . S
C2269 C2270 1.394 . S
C2270 H2260 0.929 . S
C2270 C2266 1.377 . S
C2270 C2269 1.394 . S
H2271 C2278 0.929 . S
H2272 C2281 0.930 . S
H2273 C2283 0.929 . S
H2274 C2275 0.969 . S
C2275 H2274 0.969 . S
C2275 O2276 1.550 . S
C2275 H2277 0.973 . S
O2276 C2275 1.550 . S
O2276 C2282 1.412 . S
H2277 C2275 0.973 . S
C2278 H2271 0.929 . S
C2278 C2279 1.400 . S
C2278 C2280 1.364 . S
C2279 C2278 1.400 . S
C2279 C2283 1.377 . S
C2280 C2278 1.364 . S
C2280 C2281 1.374 . S
C2281 H2272 0.930 . S
C2281 C2280 1.374 . S
C2281 C2282 1.383 . S
C2282 O2276 1.412 . S
C2282 C2281 1.383 . S
C2282 C2283 1.394 . S
C2283 H2273 0.929 . S
C2283 C2279 1.377 . S
C2283 C2282 1.394 . S
H2284 C2291 0.929 . S
H2285 C2294 0.930 . S
H2286 C2296 0.929 . S
H2287 C2288 0.969 . S
C2288 H2287 0.969 . S
C2288 O2289 1.550 . S
C2288 H2290 0.973 . S
O2289 C2288 1.550 . S
O2289 C2295 1.412 . S
H2290 C2288 0.973 . S
C2291 H2284 0.929 . S
C2291 C2292 1.400 . S
C2291 C2293 1.364 . S
C2292 C2291 1.400 . S
C2292 C2296 1.377 . S
C2293 C2291 1.364 . S
C2293 C2294 1.374 . S
C2294 H2285 0.930 . S
C2294 C2293 1.374 . S
C2294 C2295 1.383 . S
C2295 O2289 1.412 . S
C2295 C2294 1.383 . S
C2295 C2296 1.394 . S
C2296 H2286 0.929 . S
C2296 C2292 1.377 . S
C2296 C2295 1.394 . S
H2297 C2304 0.929 . S
H2298 C2307 0.930 . S
H2299 C2309 0.929 . S
H2300 C2301 0.969 . S
C2301 H2300 0.969 . S
C2301 O2302 1.550 . S
C2301 H2303 0.973 . S
O2302 C2301 1.550 . S
O2302 C2308 1.412 . S
H2303 C2301 0.973 . S
C2304 H2297 0.929 . S
C2304 C2305 1.400 . S
C2304 C2306 1.364 . S
C2305 C2304 1.400 . S
C2305 C2309 1.377 . S
C2306 C2304 1.364 . S
C2306 C2307 1.374 . S
C2307 H2298 0.930 . S
C2307 C2306 1.374 . S
C2307 C2308 1.383 . S
C2308 O2302 1.412 . S
C2308 C2307 1.383 . S
C2308 C2309 1.394 . S
C2309 H2299 0.929 . S
C2309 C2305 1.377 . S
C2309 C2308 1.394 . S
H2310 C2317 0.929 . S
H2311 C2320 0.930 . S
H2312 C2322 0.929 . S
H2313 C2314 0.969 . S
C2314 H2313 0.969 . S
C2314 O2315 1.550 . S
C2314 H2316 0.973 . S
O2315 C2314 1.550 . S
O2315 C2321 1.412 . S
H2316 C2314 0.973 . S
C2317 H2310 0.929 . S
C2317 C2318 1.400 . S
C2317 C2319 1.364 . S
C2318 C2317 1.400 . S
C2318 C2322 1.377 . S
C2319 C2317 1.364 . S
C2319 C2320 1.374 . S
C2320 H2311 0.930 . S
C2320 C2319 1.374 . S
C2320 C2321 1.383 . S
C2321 O2315 1.412 . S
C2321 C2320 1.383 . S
C2321 C2322 1.394 . S
C2322 H2312 0.929 . S
C2322 C2318 1.377 . S
C2322 C2321 1.394 . S
H2323 C2330 0.929 . S
H2324 C2333 0.930 . S
H2325 C2335 0.929 . S
H2326 C2327 0.969 . S
C2327 H2326 0.969 . S
C2327 O2328 1.550 . S
C2327 H2329 0.973 . S
O2328 C2327 1.550 . S
O2328 C2334 1.412 . S
H2329 C2327 0.973 . S
C2330 H2323 0.929 . S
C2330 C2331 1.400 . S
C2330 C2332 1.364 . S
C2331 C2330 1.400 . S
C2331 C2335 1.377 . S
C2332 C2330 1.364 . S
C2332 C2333 1.374 . S
C2333 H2324 0.930 . S
C2333 C2332 1.374 . S
C2333 C2334 1.383 . S
C2334 O2328 1.412 . S
C2334 C2333 1.383 . S
C2334 C2335 1.394 . S
C2335 H2325 0.929 . S
C2335 C2331 1.377 . S
C2335 C2334 1.394 . S
H2336 C2343 0.929 . S
H2337 C2346 0.930 . S
H2338 C2348 0.929 . S
H2339 C2340 0.969 . S
C2340 H2339 0.969 . S
C2340 O2341 1.550 . S
C2340 H2342 0.973 . S
O2341 C2340 1.550 . S
O2341 C2347 1.412 . S
H2342 C2340 0.973 . S
C2343 H2336 0.929 . S
C2343 C2344 1.400 . S
C2343 C2345 1.364 . S
C2344 C2343 1.400 . S
C2344 C2348 1.377 . S
C2345 C2343 1.364 . S
C2345 C2346 1.374 . S
C2346 H2337 0.930 . S
C2346 C2345 1.374 . S
C2346 C2347 1.383 . S
C2347 O2341 1.412 . S
C2347 C2346 1.383 . S
C2347 C2348 1.394 . S
C2348 H2338 0.929 . S
C2348 C2344 1.377 . S
C2348 C2347 1.394 . S
H2349 C2356 0.929 . S
H2350 C2359 0.930 . S
H2351 C2361 0.929 . S
H2352 C2353 0.969 . S
C2353 H2352 0.969 . S
C2353 O2354 1.550 . S
C2353 H2355 0.973 . S
O2354 C2353 1.550 . S
O2354 C2360 1.412 . S
H2355 C2353 0.973 . S
C2356 H2349 0.929 . S
C2356 C2357 1.400 . S
C2356 C2358 1.364 . S
C2357 C2356 1.400 . S
C2357 C2361 1.377 . S
C2358 C2356 1.364 . S
C2358 C2359 1.374 . S
C2359 H2350 0.930 . S
C2359 C2358 1.374 . S
C2359 C2360 1.383 . S
C2360 O2354 1.412 . S
C2360 C2359 1.383 . S
C2360 C2361 1.394 . S
C2361 H2351 0.929 . S
C2361 C2357 1.377 . S
C2361 C2360 1.394 . S
H2362 C2369 0.929 . S
H2363 C2372 0.930 . S
H2364 C2374 0.929 . S
H2365 C2366 0.969 . S
C2366 H2365 0.969 . S
C2366 O2367 1.550 . S
C2366 H2368 0.973 . S
O2367 C2366 1.550 . S
O2367 C2373 1.412 . S
H2368 C2366 0.973 . S
C2369 H2362 0.929 . S
C2369 C2370 1.400 . S
C2369 C2371 1.364 . S
C2370 C2369 1.400 . S
C2370 C2374 1.377 . S
C2371 C2369 1.364 . S
C2371 C2372 1.374 . S
C2372 H2363 0.930 . S
C2372 C2371 1.374 . S
C2372 C2373 1.383 . S
C2373 O2367 1.412 . S
C2373 C2372 1.383 . S
C2373 C2374 1.394 . S
C2374 H2364 0.929 . S
C2374 C2370 1.377 . S
C2374 C2373 1.394 . S
H2375 C2382 0.929 . S
H2376 C2385 0.930 . S
H2377 C2387 0.929 . S
H2378 C2379 0.969 . S
C2379 H2378 0.969 . S
C2379 O2380 1.550 . S
C2379 H2381 0.973 . S
O2380 C2379 1.550 . S
O2380 C2386 1.412 . S
H2381 C2379 0.973 . S
C2382 H2375 0.929 . S
C2382 C2383 1.400 . S
C2382 C2384 1.364 . S
C2383 C2382 1.400 . S
C2383 C2387 1.377 . S
C2384 C2382 1.364 . S
C2384 C2385 1.374 . S
C2385 H2376 0.930 . S
C2385 C2384 1.374 . S
C2385 C2386 1.383 . S
C2386 O2380 1.412 . S
C2386 C2385 1.383 . S
C2386 C2387 1.394 . S
C2387 H2377 0.929 . S
C2387 C2383 1.377 . S
C2387 C2386 1.394 . S
H2388 C2395 0.929 . S
H2389 C2398 0.930 . S
H2390 C2400 0.929 . S
H2391 C2392 0.969 . S
C2392 H2391 0.969 . S
C2392 O2393 1.550 . S
C2392 H2394 0.973 . S
O2393 C2392 1.550 . S
O2393 C2399 1.412 . S
H2394 C2392 0.973 . S
C2395 H2388 0.929 . S
C2395 C2396 1.400 . S
C2395 C2397 1.364 . S
C2396 C2395 1.400 . S
C2396 C2400 1.377 . S
C2397 C2395 1.364 . S
C2397 C2398 1.374 . S
C2398 H2389 0.930 . S
C2398 C2397 1.374 . S
C2398 C2399 1.383 . S
C2399 O2393 1.412 . S
C2399 C2398 1.383 . S
C2399 C2400 1.394 . S
C2400 H2390 0.929 . S
C2400 C2396 1.377 . S
C2400 C2399 1.394 . S
H2401 C2408 0.929 . S
H2402 C2411 0.930 . S
H2403 C2413 0.929 . S
H2404 C2405 0.969 . S
C2405 H2404 0.969 . S
C2405 O2406 1.550 . S
C2405 H2407 0.973 . S
O2406 C2405 1.550 . S
O2406 C2412 1.412 . S
H2407 C2405 0.973 . S
C2408 H2401 0.929 . S
C2408 C2409 1.400 . S
C2408 C2410 1.364 . S
C2409 C2408 1.400 . S
C2409 C2413 1.377 . S
C2410 C2408 1.364 . S
C2410 C2411 1.374 . S
C2411 H2402 0.930 . S
C2411 C2410 1.374 . S
C2411 C2412 1.383 . S
C2412 O2406 1.412 . S
C2412 C2411 1.383 . S
C2412 C2413 1.394 . S
C2413 H2403 0.929 . S
C2413 C2409 1.377 . S
C2413 C2412 1.394 . S
H2414 C2421 0.929 . S
H2415 C2424 0.930 . S
H2416 C2426 0.929 . S
H2417 C2418 0.969 . S
C2418 H2417 0.969 . S
C2418 O2419 1.550 . S
C2418 H2420 0.973 . S
O2419 C2418 1.550 . S
O2419 C2425 1.412 . S
H2420 C2418 0.973 . S
C2421 H2414 0.929 . S
C2421 C2422 1.400 . S
C2421 C2423 1.364 . S
C2422 C2421 1.400 . S
C2422 C2426 1.377 . S
C2423 C2421 1.364 . S
C2423 C2424 1.374 . S
C2424 H2415 0.930 . S
C2424 C2423 1.374 . S
C2424 C2425 1.383 . S
C2425 O2419 1.412 . S
C2425 C2424 1.383 . S
C2425 C2426 1.394 . S
C2426 H2416 0.929 . S
C2426 C2422 1.377 . S
C2426 C2425 1.394 . S
H2427 C2434 0.929 . S
H2428 C2437 0.930 . S
H2429 C2439 0.929 . S
H2430 C2431 0.969 . S
C2431 H2430 0.969 . S
C2431 O2432 1.550 . S
C2431 H2433 0.973 . S
O2432 C2431 1.550 . S
O2432 C2438 1.412 . S
H2433 C2431 0.973 . S
C2434 H2427 0.929 . S
C2434 C2435 1.400 . S
C2434 C2436 1.364 . S
C2435 C2434 1.400 . S
C2435 C2439 1.377 . S
C2436 C2434 1.364 . S
C2436 C2437 1.374 . S
C2437 H2428 0.930 . S
C2437 C2436 1.374 . S
C2437 C2438 1.383 . S
C2438 O2432 1.412 . S
C2438 C2437 1.383 . S
C2438 C2439 1.394 . S
C2439 H2429 0.929 . S
C2439 C2435 1.377 . S
C2439 C2438 1.394 . S
H2440 C2447 0.929 . S
H2441 C2450 0.930 . S
H2442 C2452 0.929 . S
H2443 C2444 0.969 . S
C2444 H2443 0.969 . S
C2444 O2445 1.550 . S
C2444 H2446 0.973 . S
O2445 C2444 1.550 . S
O2445 C2451 1.412 . S
H2446 C2444 0.973 . S
C2447 H2440 0.929 . S
C2447 C2448 1.400 . S
C2447 C2449 1.364 . S
C2448 C2447 1.400 . S
C2448 C2452 1.377 . S
C2449 C2447 1.364 . S
C2449 C2450 1.374 . S
C2450 H2441 0.930 . S
C2450 C2449 1.374 . S
C2450 C2451 1.383 . S
C2451 O2445 1.412 . S
C2451 C2450 1.383 . S
C2451 C2452 1.394 . S
C2452 H2442 0.929 . S
C2452 C2448 1.377 . S
C2452 C2451 1.394 . S
H2453 C2460 0.929 . S
H2454 C2463 0.930 . S
H2455 C2465 0.929 . S
H2456 C2457 0.969 . S
C2457 H2456 0.969 . S
C2457 O2458 1.550 . S
C2457 H2459 0.973 . S
O2458 C2457 1.550 . S
O2458 C2464 1.412 . S
H2459 C2457 0.973 . S
C2460 H2453 0.929 . S
C2460 C2461 1.400 . S
C2460 C2462 1.364 . S
C2461 C2460 1.400 . S
C2461 C2465 1.377 . S
C2462 C2460 1.364 . S
C2462 C2463 1.374 . S
C2463 H2454 0.930 . S
C2463 C2462 1.374 . S
C2463 C2464 1.383 . S
C2464 O2458 1.412 . S
C2464 C2463 1.383 . S
C2464 C2465 1.394 . S
C2465 H2455 0.929 . S
C2465 C2461 1.377 . S
C2465 C2464 1.394 . S
H2466 C2473 0.929 . S
H2467 C2476 0.930 . S
H2468 C2478 0.929 . S
H2469 C2470 0.969 . S
C2470 H2469 0.969 . S
C2470 O2471 1.550 . S
C2470 H2472 0.973 . S
O2471 C2470 1.550 . S
O2471 C2477 1.412 . S
H2472 C2470 0.973 . S
C2473 H2466 0.929 . S
C2473 C2474 1.400 . S
C2473 C2475 1.364 . S
C2474 C2473 1.400 . S
C2474 C2478 1.377 . S
C2475 C2473 1.364 . S
C2475 C2476 1.374 . S
C2476 H2467 0.930 . S
C2476 C2475 1.374 . S
C2476 C2477 1.383 . S
C2477 O2471 1.412 . S
C2477 C2476 1.383 . S
C2477 C2478 1.394 . S
C2478 H2468 0.929 . S
C2478 C2474 1.377 . S
C2478 C2477 1.394 . S
H2479 C2486 0.929 . S
H2480 C2489 0.930 . S
H2481 C2491 0.929 . S
H2482 C2483 0.969 . S
C2483 H2482 0.969 . S
C2483 O2484 1.550 . S
C2483 H2485 0.973 . S
O2484 C2483 1.550 . S
O2484 C2490 1.412 . S
H2485 C2483 0.973 . S
C2486 H2479 0.929 . S
C2486 C2487 1.400 . S
C2486 C2488 1.364 . S
C2487 C2486 1.400 . S
C2487 C2491 1.377 . S
C2488 C2486 1.364 . S
C2488 C2489 1.374 . S
C2489 H2480 0.930 . S
C2489 C2488 1.374 . S
C2489 C2490 1.383 . S
C2490 O2484 1.412 . S
C2490 C2489 1.383 . S
C2490 C2491 1.394 . S
C2491 H2481 0.929 . S
C2491 C2487 1.377 . S
C2491 C2490 1.394 . S
H2492 C2499 0.929 . S
H2493 C2502 0.930 . S
H2494 C2504 0.929 . S
H2495 C2496 0.969 . S
C2496 H2495 0.969 . S
C2496 O2497 1.550 . S
C2496 H2498 0.973 . S
O2497 C2496 1.550 . S
O2497 C2503 1.412 . S
H2498 C2496 0.973 . S
C2499 H2492 0.929 . S
C2499 C2500 1.400 . S
C2499 C2501 1.364 . S
C2500 C2499 1.400 . S
C2500 C2504 1.377 . S
C2501 C2499 1.364 . S
C2501 C2502 1.374 . S
C2502 H2493 0.930 . S
C2502 C2501 1.374 . S
C2502 C2503 1.383 . S
C2503 O2497 1.412 . S
C2503 C2502 1.383 . S
C2503 C2504 1.394 . S
C2504 H2494 0.929 . S
C2504 C2500 1.377 . S
C2504 C2503 1.394 . S
H2505 C2512 0.929 . S
H2506 C2515 0.930 . S
H2507 C2517 0.929 . S
H2508 C2509 0.969 . S
C2509 H2508 0.969 . S
C2509 O2510 1.550 . S
C2509 H2511 0.973 . S
O2510 C2509 1.550 . S
O2510 C2516 1.412 . S
H2511 C2509 0.973 . S
C2512 H2505 0.929 . S
C2512 C2513 1.400 . S
C2512 C2514 1.364 . S
C2513 C2512 1.400 . S
C2513 C2517 1.377 . S
C2514 C2512 1.364 . S
C2514 C2515 1.374 . S
C2515 H2506 0.930 . S
C2515 C2514 1.374 . S
C2515 C2516 1.383 . S
C2516 O2510 1.412 . S
C2516 C2515 1.383 . S
C2516 C2517 1.394 . S
C2517 H2507 0.929 . S
C2517 C2513 1.377 . S
C2517 C2516 1.394 . S
H2518 C2525 0.929 . S
H2519 C2528 0.930 . S
H2520 C2530 0.929 . S
H2521 C2522 0.969 . S
C2522 H2521 0.969 . S
C2522 O2523 1.550 . S
C2522 H2524 0.973 . S
O2523 C2522 1.550 . S
O2523 C2529 1.412 . S
H2524 C2522 0.973 . S
C2525 H2518 0.929 . S
C2525 C2526 1.400 . S
C2525 C2527 1.364 . S
C2526 C2525 1.400 . S
C2526 C2530 1.377 . S
C2527 C2525 1.364 . S
C2527 C2528 1.374 . S
C2528 H2519 0.930 . S
C2528 C2527 1.374 . S
C2528 C2529 1.383 . S
C2529 O2523 1.412 . S
C2529 C2528 1.383 . S
C2529 C2530 1.394 . S
C2530 H2520 0.929 . S
C2530 C2526 1.377 . S
C2530 C2529 1.394 . S
H2531 C2538 0.929 . S
H2532 C2541 0.930 . S
H2533 C2543 0.929 . S
H2534 C2535 0.969 . S
C2535 H2534 0.969 . S
C2535 O2536 1.550 . S
C2535 H2537 0.973 . S
O2536 C2535 1.550 . S
O2536 C2542 1.412 . S
H2537 C2535 0.973 . S
C2538 H2531 0.929 . S
C2538 C2539 1.400 . S
C2538 C2540 1.364 . S
C2539 C2538 1.400 . S
C2539 C2543 1.377 . S
C2540 C2538 1.364 . S
C2540 C2541 1.374 . S
C2541 H2532 0.930 . S
C2541 C2540 1.374 . S
C2541 C2542 1.383 . S
C2542 O2536 1.412 . S
C2542 C2541 1.383 . S
C2542 C2543 1.394 . S
C2543 H2533 0.929 . S
C2543 C2539 1.377 . S
C2543 C2542 1.394 . S
C2544 C2545 1.349 . S
C2544 C2546 1.327 . S
C2544 H2569 0.950 . S
C2545 C2544 1.349 . S
C2545 C2561 1.349 . S
C2546 C2544 1.327 . S
C2546 C2565 1.429 . S
C2546 H2570 0.950 . S
C2547 C2564 1.574 . S
C2547 C2566 1.368 . S
C2547 H2571 0.949 . S
H2548 C2552 0.949 . S
C2549 C2550 1.349 . S
C2549 C2551 1.327 . S
C2549 H2572 0.950 . S
C2550 C2549 1.349 . S
C2550 C2562 1.349 . S
C2551 C2549 1.327 . S
C2551 C2567 1.429 . S
C2551 H2573 0.950 . S
C2552 H2548 0.949 . S
C2552 C2560 1.574 . S
C2552 C2568 1.368 . S
H2553 C2561 0.950 . S
H2554 C2559 0.950 . S
H2555 C2560 0.949 . S
H2556 C2562 0.950 . S
H2557 C2563 0.950 . S
H2558 C2564 0.949 . S
C2559 H2554 0.950 . S
C2559 C2561 1.327 . S
C2559 C2565 1.429 . S
C2560 C2552 1.574 . S
C2560 H2555 0.949 . S
C2560 C2566 1.368 . S
C2561 C2545 1.349 . S
C2561 H2553 0.950 . S
C2561 C2559 1.327 . S
C2562 C2550 1.349 . S
C2562 H2556 0.950 . S
C2562 C2563 1.327 . S
C2563 H2557 0.950 . S
C2563 C2562 1.327 . S
C2563 C2567 1.429 . S
C2564 C2547 1.574 . S
C2564 H2558 0.949 . S
C2564 C2568 1.368 . S
C2565 C2546 1.429 . S
C2565 C2559 1.429 . S
C2565 C2566 1.523 . S
C2566 C2547 1.368 . S
C2566 C2560 1.368 . S
C2566 C2565 1.523 . S
C2567 C2551 1.429 . S
C2567 C2563 1.429 . S
C2567 C2568 1.523 . S
C2568 C2552 1.368 . S
C2568 C2564 1.368 . S
C2568 C2567 1.523 . S
H2569 C2544 0.950 . S
H2570 C2546 0.950 . S
H2571 C2547 0.949 . S
H2572 C2549 0.950 . S
H2573 C2551 0.950 . S
C2574 C2575 1.349 . S
C2574 C2576 1.327 . S
C2574 H2599 0.950 . S
C2575 C2574 1.349 . S
C2575 C2591 1.349 . S
C2576 C2574 1.327 . S
C2576 C2595 1.429 . S
C2576 H2600 0.950 . S
C2577 C2594 1.574 . S
C2577 C2596 1.368 . S
C2577 H2601 0.949 . S
H2578 C2582 0.949 . S
C2579 C2580 1.349 . S
C2579 C2581 1.327 . S
C2579 H2602 0.950 . S
C2580 C2579 1.349 . S
C2580 C2592 1.349 . S
C2581 C2579 1.327 . S
C2581 C2597 1.429 . S
C2581 H2603 0.950 . S
C2582 H2578 0.949 . S
C2582 C2590 1.574 . S
C2582 C2598 1.368 . S
H2583 C2591 0.950 . S
H2584 C2589 0.950 . S
H2585 C2590 0.949 . S
H2586 C2592 0.950 . S
H2587 C2593 0.950 . S
H2588 C2594 0.949 . S
C2589 H2584 0.950 . S
C2589 C2591 1.327 . S
C2589 C2595 1.429 . S
C2590 C2582 1.574 . S
C2590 H2585 0.949 . S
C2590 C2596 1.368 . S
C2591 C2575 1.349 . S
C2591 H2583 0.950 . S
C2591 C2589 1.327 . S
C2592 C2580 1.349 . S
C2592 H2586 0.950 . S
C2592 C2593 1.327 . S
C2593 H2587 0.950 . S
C2593 C2592 1.327 . S
C2593 C2597 1.429 . S
C2594 C2577 1.574 . S
C2594 H2588 0.949 . S
C2594 C2598 1.368 . S
C2595 C2576 1.429 . S
C2595 C2589 1.429 . S
C2595 C2596 1.523 . S
C2596 C2577 1.368 . S
C2596 C2590 1.368 . S
C2596 C2595 1.523 . S
C2597 C2581 1.429 . S
C2597 C2593 1.429 . S
C2597 C2598 1.523 . S
C2598 C2582 1.368 . S
C2598 C2594 1.368 . S
C2598 C2597 1.523 . S
H2599 C2574 0.950 . S
H2600 C2576 0.950 . S
H2601 C2577 0.949 . S
H2602 C2579 0.950 . S
H2603 C2581 0.950 . S
C2604 C2605 1.349 . S
C2604 C2606 1.327 . S
C2604 H2629 0.950 . S
C2605 C2604 1.349 . S
C2605 C2621 1.349 . S
C2606 C2604 1.327 . S
C2606 C2625 1.429 . S
C2606 H2630 0.950 . S
C2607 C2624 1.574 . S
C2607 C2626 1.368 . S
C2607 H2631 0.949 . S
H2608 C2612 0.949 . S
C2609 C2610 1.349 . S
C2609 C2611 1.327 . S
C2609 H2632 0.950 . S
C2610 C2609 1.349 . S
C2610 C2622 1.349 . S
C2611 C2609 1.327 . S
C2611 C2627 1.429 . S
C2611 H2633 0.950 . S
C2612 H2608 0.949 . S
C2612 C2620 1.574 . S
C2612 C2628 1.368 . S
H2613 C2621 0.950 . S
H2614 C2619 0.950 . S
H2615 C2620 0.949 . S
H2616 C2622 0.950 . S
H2617 C2623 0.950 . S
H2618 C2624 0.949 . S
C2619 H2614 0.950 . S
C2619 C2621 1.327 . S
C2619 C2625 1.429 . S
C2620 C2612 1.574 . S
C2620 H2615 0.949 . S
C2620 C2626 1.368 . S
C2621 C2605 1.349 . S
C2621 H2613 0.950 . S
C2621 C2619 1.327 . S
C2622 C2610 1.349 . S
C2622 H2616 0.950 . S
C2622 C2623 1.327 . S
C2623 H2617 0.950 . S
C2623 C2622 1.327 . S
C2623 C2627 1.429 . S
C2624 C2607 1.574 . S
C2624 H2618 0.949 . S
C2624 C2628 1.368 . S
C2625 C2606 1.429 . S
C2625 C2619 1.429 . S
C2625 C2626 1.523 . S
C2626 C2607 1.368 . S
C2626 C2620 1.368 . S
C2626 C2625 1.523 . S
C2627 C2611 1.429 . S
C2627 C2623 1.429 . S
C2627 C2628 1.523 . S
C2628 C2612 1.368 . S
C2628 C2624 1.368 . S
C2628 C2627 1.523 . S
H2629 C2604 0.950 . S
H2630 C2606 0.950 . S
H2631 C2607 0.949 . S
H2632 C2609 0.950 . S
H2633 C2611 0.950 . S
C2634 C2635 1.349 . S
C2634 C2636 1.327 . S
C2634 H2659 0.950 . S
C2635 C2634 1.349 . S
C2635 C2651 1.349 . S
C2636 C2634 1.327 . S
C2636 C2655 1.429 . S
C2636 H2660 0.950 . S
C2637 C2654 1.574 . S
C2637 C2656 1.368 . S
C2637 H2661 0.949 . S
H2638 C2642 0.949 . S
C2639 C2640 1.349 . S
C2639 C2641 1.327 . S
C2639 H2662 0.950 . S
C2640 C2639 1.349 . S
C2640 C2652 1.349 . S
C2641 C2639 1.327 . S
C2641 C2657 1.429 . S
C2641 H2663 0.950 . S
C2642 H2638 0.949 . S
C2642 C2650 1.574 . S
C2642 C2658 1.368 . S
H2643 C2651 0.950 . S
H2644 C2649 0.950 . S
H2645 C2650 0.949 . S
H2646 C2652 0.950 . S
H2647 C2653 0.950 . S
H2648 C2654 0.949 . S
C2649 H2644 0.950 . S
C2649 C2651 1.327 . S
C2649 C2655 1.429 . S
C2650 C2642 1.574 . S
C2650 H2645 0.949 . S
C2650 C2656 1.368 . S
C2651 C2635 1.349 . S
C2651 H2643 0.950 . S
C2651 C2649 1.327 . S
C2652 C2640 1.349 . S
C2652 H2646 0.950 . S
C2652 C2653 1.327 . S
C2653 H2647 0.950 . S
C2653 C2652 1.327 . S
C2653 C2657 1.429 . S
C2654 C2637 1.574 . S
C2654 H2648 0.949 . S
C2654 C2658 1.368 . S
C2655 C2636 1.429 . S
C2655 C2649 1.429 . S
C2655 C2656 1.523 . S
C2656 C2637 1.368 . S
C2656 C2650 1.368 . S
C2656 C2655 1.523 . S
C2657 C2641 1.429 . S
C2657 C2653 1.429 . S
C2657 C2658 1.523 . S
C2658 C2642 1.368 . S
C2658 C2654 1.368 . S
C2658 C2657 1.523 . S
H2659 C2634 0.950 . S
H2660 C2636 0.950 . S
H2661 C2637 0.949 . S
H2662 C2639 0.950 . S
H2663 C2641 0.950 . S
C2664 C2665 1.349 . S
C2664 C2666 1.327 . S
C2664 H2689 0.950 . S
C2665 C2664 1.349 . S
C2665 C2681 1.349 . S
C2666 C2664 1.327 . S
C2666 C2685 1.429 . S
C2666 H2690 0.950 . S
C2667 C2684 1.574 . S
C2667 C2686 1.368 . S
C2667 H2691 0.949 . S
H2668 C2672 0.949 . S
C2669 C2670 1.349 . S
C2669 C2671 1.327 . S
C2669 H2692 0.950 . S
C2670 C2669 1.349 . S
C2670 C2682 1.349 . S
C2671 C2669 1.327 . S
C2671 C2687 1.429 . S
C2671 H2693 0.950 . S
C2672 H2668 0.949 . S
C2672 C2680 1.574 . S
C2672 C2688 1.368 . S
H2673 C2681 0.950 . S
H2674 C2679 0.950 . S
H2675 C2680 0.949 . S
H2676 C2682 0.950 . S
H2677 C2683 0.950 . S
H2678 C2684 0.949 . S
C2679 H2674 0.950 . S
C2679 C2681 1.327 . S
C2679 C2685 1.429 . S
C2680 C2672 1.574 . S
C2680 H2675 0.949 . S
C2680 C2686 1.368 . S
C2681 C2665 1.349 . S
C2681 H2673 0.950 . S
C2681 C2679 1.327 . S
C2682 C2670 1.349 . S
C2682 H2676 0.950 . S
C2682 C2683 1.327 . S
C2683 H2677 0.950 . S
C2683 C2682 1.327 . S
C2683 C2687 1.429 . S
C2684 C2667 1.574 . S
C2684 H2678 0.949 . S
C2684 C2688 1.368 . S
C2685 C2666 1.429 . S
C2685 C2679 1.429 . S
C2685 C2686 1.523 . S
C2686 C2667 1.368 . S
C2686 C2680 1.368 . S
C2686 C2685 1.523 . S
C2687 C2671 1.429 . S
C2687 C2683 1.429 . S
C2687 C2688 1.523 . S
C2688 C2672 1.368 . S
C2688 C2684 1.368 . S
C2688 C2687 1.523 . S
H2689 C2664 0.950 . S
H2690 C2666 0.950 . S
H2691 C2667 0.949 . S
H2692 C2669 0.950 . S
H2693 C2671 0.950 . S
C2694 C2695 1.349 . S
C2694 C2696 1.327 . S
C2694 H2719 0.950 . S
C2695 C2694 1.349 . S
C2695 C2711 1.349 . S
C2696 C2694 1.327 . S
C2696 C2715 1.429 . S
C2696 H2720 0.950 . S
C2697 C2714 1.574 . S
C2697 C2716 1.368 . S
C2697 H2721 0.949 . S
H2698 C2702 0.949 . S
C2699 C2700 1.349 . S
C2699 C2701 1.327 . S
C2699 H2722 0.950 . S
C2700 C2699 1.349 . S
C2700 C2712 1.349 . S
C2701 C2699 1.327 . S
C2701 C2717 1.429 . S
C2701 H2723 0.950 . S
C2702 H2698 0.949 . S
C2702 C2710 1.574 . S
C2702 C2718 1.368 . S
H2703 C2711 0.950 . S
H2704 C2709 0.950 . S
H2705 C2710 0.949 . S
H2706 C2712 0.950 . S
H2707 C2713 0.950 . S
H2708 C2714 0.949 . S
C2709 H2704 0.950 . S
C2709 C2711 1.327 . S
C2709 C2715 1.429 . S
C2710 C2702 1.574 . S
C2710 H2705 0.949 . S
C2710 C2716 1.368 . S
C2711 C2695 1.349 . S
C2711 H2703 0.950 . S
C2711 C2709 1.327 . S
C2712 C2700 1.349 . S
C2712 H2706 0.950 . S
C2712 C2713 1.327 . S
C2713 H2707 0.950 . S
C2713 C2712 1.327 . S
C2713 C2717 1.429 . S
C2714 C2697 1.574 . S
C2714 H2708 0.949 . S
C2714 C2718 1.368 . S
C2715 C2696 1.429 . S
C2715 C2709 1.429 . S
C2715 C2716 1.523 . S
C2716 C2697 1.368 . S
C2716 C2710 1.368 . S
C2716 C2715 1.523 . S
C2717 C2701 1.429 . S
C2717 C2713 1.429 . S
C2717 C2718 1.523 . S
C2718 C2702 1.368 . S
C2718 C2714 1.368 . S
C2718 C2717 1.523 . S
H2719 C2694 0.950 . S
H2720 C2696 0.950 . S
H2721 C2697 0.949 . S
H2722 C2699 0.950 . S
H2723 C2701 0.950 . S
C2724 C2725 1.349 . S
C2724 C2726 1.327 . S
C2724 H2749 0.950 . S
C2725 C2724 1.349 . S
C2725 C2741 1.349 . S
C2726 C2724 1.327 . S
C2726 C2745 1.429 . S
C2726 H2750 0.950 . S
C2727 C2744 1.574 . S
C2727 C2746 1.368 . S
C2727 H2751 0.949 . S
H2728 C2732 0.949 . S
C2729 C2730 1.349 . S
C2729 C2731 1.327 . S
C2729 H2752 0.950 . S
C2730 C2729 1.349 . S
C2730 C2742 1.349 . S
C2731 C2729 1.327 . S
C2731 C2747 1.429 . S
C2731 H2753 0.950 . S
C2732 H2728 0.949 . S
C2732 C2740 1.574 . S
C2732 C2748 1.368 . S
H2733 C2741 0.950 . S
H2734 C2739 0.950 . S
H2735 C2740 0.949 . S
H2736 C2742 0.950 . S
H2737 C2743 0.950 . S
H2738 C2744 0.949 . S
C2739 H2734 0.950 . S
C2739 C2741 1.327 . S
C2739 C2745 1.429 . S
C2740 C2732 1.574 . S
C2740 H2735 0.949 . S
C2740 C2746 1.368 . S
C2741 C2725 1.349 . S
C2741 H2733 0.950 . S
C2741 C2739 1.327 . S
C2742 C2730 1.349 . S
C2742 H2736 0.950 . S
C2742 C2743 1.327 . S
C2743 H2737 0.950 . S
C2743 C2742 1.327 . S
C2743 C2747 1.429 . S
C2744 C2727 1.574 . S
C2744 H2738 0.949 . S
C2744 C2748 1.368 . S
C2745 C2726 1.429 . S
C2745 C2739 1.429 . S
C2745 C2746 1.523 . S
C2746 C2727 1.368 . S
C2746 C2740 1.368 . S
C2746 C2745 1.523 . S
C2747 C2731 1.429 . S
C2747 C2743 1.429 . S
C2747 C2748 1.523 . S
C2748 C2732 1.368 . S
C2748 C2744 1.368 . S
C2748 C2747 1.523 . S
H2749 C2724 0.950 . S
H2750 C2726 0.950 . S
H2751 C2727 0.949 . S
H2752 C2729 0.950 . S
H2753 C2731 0.950 . S
C2754 C2755 1.349 . S
C2754 C2756 1.327 . S
C2754 H2779 0.950 . S
C2755 C2754 1.349 . S
C2755 C2771 1.349 . S
C2756 C2754 1.327 . S
C2756 C2775 1.429 . S
C2756 H2780 0.950 . S
C2757 C2774 1.574 . S
C2757 C2776 1.368 . S
C2757 H2781 0.949 . S
H2758 C2762 0.949 . S
C2759 C2760 1.349 . S
C2759 C2761 1.327 . S
C2759 H2782 0.950 . S
C2760 C2759 1.349 . S
C2760 C2772 1.349 . S
C2761 C2759 1.327 . S
C2761 C2777 1.429 . S
C2761 H2783 0.950 . S
C2762 H2758 0.949 . S
C2762 C2770 1.574 . S
C2762 C2778 1.368 . S
H2763 C2771 0.950 . S
H2764 C2769 0.950 . S
H2765 C2770 0.949 . S
H2766 C2772 0.950 . S
H2767 C2773 0.950 . S
H2768 C2774 0.949 . S
C2769 H2764 0.950 . S
C2769 C2771 1.327 . S
C2769 C2775 1.429 . S
C2770 C2762 1.574 . S
C2770 H2765 0.949 . S
C2770 C2776 1.368 . S
C2771 C2755 1.349 . S
C2771 H2763 0.950 . S
C2771 C2769 1.327 . S
C2772 C2760 1.349 . S
C2772 H2766 0.950 . S
C2772 C2773 1.327 . S
C2773 H2767 0.950 . S
C2773 C2772 1.327 . S
C2773 C2777 1.429 . S
C2774 C2757 1.574 . S
C2774 H2768 0.949 . S
C2774 C2778 1.368 . S
C2775 C2756 1.429 . S
C2775 C2769 1.429 . S
C2775 C2776 1.523 . S
C2776 C2757 1.368 . S
C2776 C2770 1.368 . S
C2776 C2775 1.523 . S
C2777 C2761 1.429 . S
C2777 C2773 1.429 . S
C2777 C2778 1.523 . S
C2778 C2762 1.368 . S
C2778 C2774 1.368 . S
C2778 C2777 1.523 . S
H2779 C2754 0.950 . S
H2780 C2756 0.950 . S
H2781 C2757 0.949 . S
H2782 C2759 0.950 . S
H2783 C2761 0.950 . S
C2784 C2785 1.349 . S
C2784 C2786 1.327 . S
C2784 H2809 0.950 . S
C2785 C2784 1.349 . S
C2785 C2801 1.349 . S
C2786 C2784 1.327 . S
C2786 C2805 1.429 . S
C2786 H2810 0.950 . S
C2787 C2804 1.574 . S
C2787 C2806 1.368 . S
C2787 H2811 0.949 . S
H2788 C2792 0.949 . S
C2789 C2790 1.349 . S
C2789 C2791 1.327 . S
C2789 H2812 0.950 . S
C2790 C2789 1.349 . S
C2790 C2802 1.349 . S
C2791 C2789 1.327 . S
C2791 C2807 1.429 . S
C2791 H2813 0.950 . S
C2792 H2788 0.949 . S
C2792 C2800 1.574 . S
C2792 C2808 1.368 . S
H2793 C2801 0.950 . S
H2794 C2799 0.950 . S
H2795 C2800 0.949 . S
H2796 C2802 0.950 . S
H2797 C2803 0.950 . S
H2798 C2804 0.949 . S
C2799 H2794 0.950 . S
C2799 C2801 1.327 . S
C2799 C2805 1.429 . S
C2800 C2792 1.574 . S
C2800 H2795 0.949 . S
C2800 C2806 1.368 . S
C2801 C2785 1.349 . S
C2801 H2793 0.950 . S
C2801 C2799 1.327 . S
C2802 C2790 1.349 . S
C2802 H2796 0.950 . S
C2802 C2803 1.327 . S
C2803 H2797 0.950 . S
C2803 C2802 1.327 . S
C2803 C2807 1.429 . S
C2804 C2787 1.574 . S
C2804 H2798 0.949 . S
C2804 C2808 1.368 . S
C2805 C2786 1.429 . S
C2805 C2799 1.429 . S
C2805 C2806 1.523 . S
C2806 C2787 1.368 . S
C2806 C2800 1.368 . S
C2806 C2805 1.523 . S
C2807 C2791 1.429 . S
C2807 C2803 1.429 . S
C2807 C2808 1.523 . S
C2808 C2792 1.368 . S
C2808 C2804 1.368 . S
C2808 C2807 1.523 . S
H2809 C2784 0.950 . S
H2810 C2786 0.950 . S
H2811 C2787 0.949 . S
H2812 C2789 0.950 . S
H2813 C2791 0.950 . S
C2814 C2815 1.349 . S
C2814 C2816 1.327 . S
C2814 H2839 0.950 . S
C2815 C2814 1.349 . S
C2815 C2831 1.349 . S
C2816 C2814 1.327 . S
C2816 C2835 1.429 . S
C2816 H2840 0.950 . S
C2817 C2834 1.574 . S
C2817 C2836 1.368 . S
C2817 H2841 0.949 . S
H2818 C2822 0.949 . S
C2819 C2820 1.349 . S
C2819 C2821 1.327 . S
C2819 H2842 0.950 . S
C2820 C2819 1.349 . S
C2820 C2832 1.349 . S
C2821 C2819 1.327 . S
C2821 C2837 1.429 . S
C2821 H2843 0.950 . S
C2822 H2818 0.949 . S
C2822 C2830 1.574 . S
C2822 C2838 1.368 . S
H2823 C2831 0.950 . S
H2824 C2829 0.950 . S
H2825 C2830 0.949 . S
H2826 C2832 0.950 . S
H2827 C2833 0.950 . S
H2828 C2834 0.949 . S
C2829 H2824 0.950 . S
C2829 C2831 1.327 . S
C2829 C2835 1.429 . S
C2830 C2822 1.574 . S
C2830 H2825 0.949 . S
C2830 C2836 1.368 . S
C2831 C2815 1.349 . S
C2831 H2823 0.950 . S
C2831 C2829 1.327 . S
C2832 C2820 1.349 . S
C2832 H2826 0.950 . S
C2832 C2833 1.327 . S
C2833 H2827 0.950 . S
C2833 C2832 1.327 . S
C2833 C2837 1.429 . S
C2834 C2817 1.574 . S
C2834 H2828 0.949 . S
C2834 C2838 1.368 . S
C2835 C2816 1.429 . S
C2835 C2829 1.429 . S
C2835 C2836 1.523 . S
C2836 C2817 1.368 . S
C2836 C2830 1.368 . S
C2836 C2835 1.523 . S
C2837 C2821 1.429 . S
C2837 C2833 1.429 . S
C2837 C2838 1.523 . S
C2838 C2822 1.368 . S
C2838 C2834 1.368 . S
C2838 C2837 1.523 . S
H2839 C2814 0.950 . S
H2840 C2816 0.950 . S
H2841 C2817 0.949 . S
H2842 C2819 0.950 . S
H2843 C2821 0.950 . S
C2844 C2845 1.349 . S
C2844 C2846 1.327 . S
C2844 H2869 0.950 . S
C2845 C2844 1.349 . S
C2845 C2861 1.349 . S
C2846 C2844 1.327 . S
C2846 C2865 1.429 . S
C2846 H2870 0.950 . S
C2847 C2864 1.574 . S
C2847 C2866 1.368 . S
C2847 H2871 0.949 . S
H2848 C2852 0.949 . S
C2849 C2850 1.349 . S
C2849 C2851 1.327 . S
C2849 H2872 0.950 . S
C2850 C2849 1.349 . S
C2850 C2862 1.349 . S
C2851 C2849 1.327 . S
C2851 C2867 1.429 . S
C2851 H2873 0.950 . S
C2852 H2848 0.949 . S
C2852 C2860 1.574 . S
C2852 C2868 1.368 . S
H2853 C2861 0.950 . S
H2854 C2859 0.950 . S
H2855 C2860 0.949 . S
H2856 C2862 0.950 . S
H2857 C2863 0.950 . S
H2858 C2864 0.949 . S
C2859 H2854 0.950 . S
C2859 C2861 1.327 . S
C2859 C2865 1.429 . S
C2860 C2852 1.574 . S
C2860 H2855 0.949 . S
C2860 C2866 1.368 . S
C2861 C2845 1.349 . S
C2861 H2853 0.950 . S
C2861 C2859 1.327 . S
C2862 C2850 1.349 . S
C2862 H2856 0.950 . S
C2862 C2863 1.327 . S
C2863 H2857 0.950 . S
C2863 C2862 1.327 . S
C2863 C2867 1.429 . S
C2864 C2847 1.574 . S
C2864 H2858 0.949 . S
C2864 C2868 1.368 . S
C2865 C2846 1.429 . S
C2865 C2859 1.429 . S
C2865 C2866 1.523 . S
C2866 C2847 1.368 . S
C2866 C2860 1.368 . S
C2866 C2865 1.523 . S
C2867 C2851 1.429 . S
C2867 C2863 1.429 . S
C2867 C2868 1.523 . S
C2868 C2852 1.368 . S
C2868 C2864 1.368 . S
C2868 C2867 1.523 . S
H2869 C2844 0.950 . S
H2870 C2846 0.950 . S
H2871 C2847 0.949 . S
H2872 C2849 0.950 . S
H2873 C2851 0.950 . S
C2874 C2875 1.349 . S
C2874 C2876 1.327 . S
C2874 H2899 0.950 . S
C2875 C2874 1.349 . S
C2875 C2891 1.349 . S
C2876 C2874 1.327 . S
C2876 C2895 1.429 . S
C2876 H2900 0.950 . S
C2877 C2894 1.574 . S
C2877 C2896 1.368 . S
C2877 H2901 0.949 . S
H2878 C2882 0.949 . S
C2879 C2880 1.349 . S
C2879 C2881 1.327 . S
C2879 H2902 0.950 . S
C2880 C2879 1.349 . S
C2880 C2892 1.349 . S
C2881 C2879 1.327 . S
C2881 C2897 1.429 . S
C2881 H2903 0.950 . S
C2882 H2878 0.949 . S
C2882 C2890 1.574 . S
C2882 C2898 1.368 . S
H2883 C2891 0.950 . S
H2884 C2889 0.950 . S
H2885 C2890 0.949 . S
H2886 C2892 0.950 . S
H2887 C2893 0.950 . S
H2888 C2894 0.949 . S
C2889 H2884 0.950 . S
C2889 C2891 1.327 . S
C2889 C2895 1.429 . S
C2890 C2882 1.574 . S
C2890 H2885 0.949 . S
C2890 C2896 1.368 . S
C2891 C2875 1.349 . S
C2891 H2883 0.950 . S
C2891 C2889 1.327 . S
C2892 C2880 1.349 . S
C2892 H2886 0.950 . S
C2892 C2893 1.327 . S
C2893 H2887 0.950 . S
C2893 C2892 1.327 . S
C2893 C2897 1.429 . S
C2894 C2877 1.574 . S
C2894 H2888 0.949 . S
C2894 C2898 1.368 . S
C2895 C2876 1.429 . S
C2895 C2889 1.429 . S
C2895 C2896 1.523 . S
C2896 C2877 1.368 . S
C2896 C2890 1.368 . S
C2896 C2895 1.523 . S
C2897 C2881 1.429 . S
C2897 C2893 1.429 . S
C2897 C2898 1.523 . S
C2898 C2882 1.368 . S
C2898 C2894 1.368 . S
C2898 C2897 1.523 . S
H2899 C2874 0.950 . S
H2900 C2876 0.950 . S
H2901 C2877 0.949 . S
H2902 C2879 0.950 . S
H2903 C2881 0.950 . S
C2904 C2905 1.349 . S
C2904 C2906 1.327 . S
C2904 H2929 0.950 . S
C2905 C2904 1.349 . S
C2905 C2921 1.349 . S
C2906 C2904 1.327 . S
C2906 C2925 1.429 . S
C2906 H2930 0.950 . S
C2907 C2924 1.574 . S
C2907 C2926 1.368 . S
C2907 H2931 0.949 . S
H2908 C2912 0.949 . S
C2909 C2910 1.349 . S
C2909 C2911 1.327 . S
C2909 H2932 0.950 . S
C2910 C2909 1.349 . S
C2910 C2922 1.349 . S
C2911 C2909 1.327 . S
C2911 C2927 1.429 . S
C2911 H2933 0.950 . S
C2912 H2908 0.949 . S
C2912 C2920 1.574 . S
C2912 C2928 1.368 . S
H2913 C2921 0.950 . S
H2914 C2919 0.950 . S
H2915 C2920 0.949 . S
H2916 C2922 0.950 . S
H2917 C2923 0.950 . S
H2918 C2924 0.949 . S
C2919 H2914 0.950 . S
C2919 C2921 1.327 . S
C2919 C2925 1.429 . S
C2920 C2912 1.574 . S
C2920 H2915 0.949 . S
C2920 C2926 1.368 . S
C2921 C2905 1.349 . S
C2921 H2913 0.950 . S
C2921 C2919 1.327 . S
C2922 C2910 1.349 . S
C2922 H2916 0.950 . S
C2922 C2923 1.327 . S
C2923 H2917 0.950 . S
C2923 C2922 1.327 . S
C2923 C2927 1.429 . S
C2924 C2907 1.574 . S
C2924 H2918 0.949 . S
C2924 C2928 1.368 . S
C2925 C2906 1.429 . S
C2925 C2919 1.429 . S
C2925 C2926 1.523 . S
C2926 C2907 1.368 . S
C2926 C2920 1.368 . S
C2926 C2925 1.523 . S
C2927 C2911 1.429 . S
C2927 C2923 1.429 . S
C2927 C2928 1.523 . S
C2928 C2912 1.368 . S
C2928 C2924 1.368 . S
C2928 C2927 1.523 . S
H2929 C2904 0.950 . S
H2930 C2906 0.950 . S
H2931 C2907 0.949 . S
H2932 C2909 0.950 . S
H2933 C2911 0.950 . S
C2934 C2935 1.349 . S
C2934 C2936 1.327 . S
C2934 H2959 0.950 . S
C2935 C2934 1.349 . S
C2935 C2951 1.349 . S
C2936 C2934 1.327 . S
C2936 C2955 1.429 . S
C2936 H2960 0.950 . S
C2937 C2954 1.574 . S
C2937 C2956 1.368 . S
C2937 H2961 0.949 . S
H2938 C2942 0.949 . S
C2939 C2940 1.349 . S
C2939 C2941 1.327 . S
C2939 H2962 0.950 . S
C2940 C2939 1.349 . S
C2940 C2952 1.349 . S
C2941 C2939 1.327 . S
C2941 C2957 1.429 . S
C2941 H2963 0.950 . S
C2942 H2938 0.949 . S
C2942 C2950 1.574 . S
C2942 C2958 1.368 . S
H2943 C2951 0.950 . S
H2944 C2949 0.950 . S
H2945 C2950 0.949 . S
H2946 C2952 0.950 . S
H2947 C2953 0.950 . S
H2948 C2954 0.949 . S
C2949 H2944 0.950 . S
C2949 C2951 1.327 . S
C2949 C2955 1.429 . S
C2950 C2942 1.574 . S
C2950 H2945 0.949 . S
C2950 C2956 1.368 . S
C2951 C2935 1.349 . S
C2951 H2943 0.950 . S
C2951 C2949 1.327 . S
C2952 C2940 1.349 . S
C2952 H2946 0.950 . S
C2952 C2953 1.327 . S
C2953 H2947 0.950 . S
C2953 C2952 1.327 . S
C2953 C2957 1.429 . S
C2954 C2937 1.574 . S
C2954 H2948 0.949 . S
C2954 C2958 1.368 . S
C2955 C2936 1.429 . S
C2955 C2949 1.429 . S
C2955 C2956 1.523 . S
C2956 C2937 1.368 . S
C2956 C2950 1.368 . S
C2956 C2955 1.523 . S
C2957 C2941 1.429 . S
C2957 C2953 1.429 . S
C2957 C2958 1.523 . S
C2958 C2942 1.368 . S
C2958 C2954 1.368 . S
C2958 C2957 1.523 . S
H2959 C2934 0.950 . S
H2960 C2936 0.950 . S
H2961 C2937 0.949 . S
H2962 C2939 0.950 . S
H2963 C2941 0.950 . S
C2964 C2965 1.349 . S
C2964 C2966 1.327 . S
C2964 H2989 0.950 . S
C2965 C2964 1.349 . S
C2965 C2981 1.349 . S
C2966 C2964 1.327 . S
C2966 C2985 1.429 . S
C2966 H2990 0.950 . S
C2967 C2984 1.574 . S
C2967 C2986 1.368 . S
C2967 H2991 0.949 . S
H2968 C2972 0.949 . S
C2969 C2970 1.349 . S
C2969 C2971 1.327 . S
C2969 H2992 0.950 . S
C2970 C2969 1.349 . S
C2970 C2982 1.349 . S
C2971 C2969 1.327 . S
C2971 C2987 1.429 . S
C2971 H2993 0.950 . S
C2972 H2968 0.949 . S
C2972 C2980 1.574 . S
C2972 C2988 1.368 . S
H2973 C2981 0.950 . S
H2974 C2979 0.950 . S
H2975 C2980 0.949 . S
H2976 C2982 0.950 . S
H2977 C2983 0.950 . S
H2978 C2984 0.949 . S
C2979 H2974 0.950 . S
C2979 C2981 1.327 . S
C2979 C2985 1.429 . S
C2980 C2972 1.574 . S
C2980 H2975 0.949 . S
C2980 C2986 1.368 . S
C2981 C2965 1.349 . S
C2981 H2973 0.950 . S
C2981 C2979 1.327 . S
C2982 C2970 1.349 . S
C2982 H2976 0.950 . S
C2982 C2983 1.327 . S
C2983 H2977 0.950 . S
C2983 C2982 1.327 . S
C2983 C2987 1.429 . S
C2984 C2967 1.574 . S
C2984 H2978 0.949 . S
C2984 C2988 1.368 . S
C2985 C2966 1.429 . S
C2985 C2979 1.429 . S
C2985 C2986 1.523 . S
C2986 C2967 1.368 . S
C2986 C2980 1.368 . S
C2986 C2985 1.523 . S
C2987 C2971 1.429 . S
C2987 C2983 1.429 . S
C2987 C2988 1.523 . S
C2988 C2972 1.368 . S
C2988 C2984 1.368 . S
C2988 C2987 1.523 . S
H2989 C2964 0.950 . S
H2990 C2966 0.950 . S
H2991 C2967 0.949 . S
H2992 C2969 0.950 . S
H2993 C2971 0.950 . S
C2994 C2995 1.349 . S
C2994 C2996 1.327 . S
C2994 H3019 0.950 . S
C2995 C2994 1.349 . S
C2995 C3011 1.349 . S
C2996 C2994 1.327 . S
C2996 C3015 1.429 . S
C2996 H3020 0.950 . S
C2997 C3014 1.574 . S
C2997 C3016 1.368 . S
C2997 H3021 0.949 . S
H2998 C3002 0.949 . S
C2999 C3000 1.349 . S
C2999 C3001 1.327 . S
C2999 H3022 0.950 . S
C3000 C2999 1.349 . S
C3000 C3012 1.349 . S
C3001 C2999 1.327 . S
C3001 C3017 1.429 . S
C3001 H3023 0.950 . S
C3002 H2998 0.949 . S
C3002 C3010 1.574 . S
C3002 C3018 1.368 . S
H3003 C3011 0.950 . S
H3004 C3009 0.950 . S
H3005 C3010 0.949 . S
H3006 C3012 0.950 . S
H3007 C3013 0.950 . S
H3008 C3014 0.949 . S
C3009 H3004 0.950 . S
C3009 C3011 1.327 . S
C3009 C3015 1.429 . S
C3010 C3002 1.574 . S
C3010 H3005 0.949 . S
C3010 C3016 1.368 . S
C3011 C2995 1.349 . S
C3011 H3003 0.950 . S
C3011 C3009 1.327 . S
C3012 C3000 1.349 . S
C3012 H3006 0.950 . S
C3012 C3013 1.327 . S
C3013 H3007 0.950 . S
C3013 C3012 1.327 . S
C3013 C3017 1.429 . S
C3014 C2997 1.574 . S
C3014 H3008 0.949 . S
C3014 C3018 1.368 . S
C3015 C2996 1.429 . S
C3015 C3009 1.429 . S
C3015 C3016 1.523 . S
C3016 C2997 1.368 . S
C3016 C3010 1.368 . S
C3016 C3015 1.523 . S
C3017 C3001 1.429 . S
C3017 C3013 1.429 . S
C3017 C3018 1.523 . S
C3018 C3002 1.368 . S
C3018 C3014 1.368 . S
C3018 C3017 1.523 . S
H3019 C2994 0.950 . S
H3020 C2996 0.950 . S
H3021 C2997 0.949 . S
H3022 C2999 0.950 . S
H3023 C3001 0.950 . S
C3024 C3025 1.349 . S
C3024 C3026 1.327 . S
C3024 H3049 0.950 . S
C3025 C3024 1.349 . S
C3025 C3041 1.349 . S
C3026 C3024 1.327 . S
C3026 C3045 1.429 . S
C3026 H3050 0.950 . S
C3027 C3044 1.574 . S
C3027 C3046 1.368 . S
C3027 H3051 0.949 . S
H3028 C3032 0.949 . S
C3029 C3030 1.349 . S
C3029 C3031 1.327 . S
C3029 H3052 0.950 . S
C3030 C3029 1.349 . S
C3030 C3042 1.349 . S
C3031 C3029 1.327 . S
C3031 C3047 1.429 . S
C3031 H3053 0.950 . S
C3032 H3028 0.949 . S
C3032 C3040 1.574 . S
C3032 C3048 1.368 . S
H3033 C3041 0.950 . S
H3034 C3039 0.950 . S
H3035 C3040 0.949 . S
H3036 C3042 0.950 . S
H3037 C3043 0.950 . S
H3038 C3044 0.949 . S
C3039 H3034 0.950 . S
C3039 C3041 1.327 . S
C3039 C3045 1.429 . S
C3040 C3032 1.574 . S
C3040 H3035 0.949 . S
C3040 C3046 1.368 . S
C3041 C3025 1.349 . S
C3041 H3033 0.950 . S
C3041 C3039 1.327 . S
C3042 C3030 1.349 . S
C3042 H3036 0.950 . S
C3042 C3043 1.327 . S
C3043 H3037 0.950 . S
C3043 C3042 1.327 . S
C3043 C3047 1.429 . S
C3044 C3027 1.574 . S
C3044 H3038 0.949 . S
C3044 C3048 1.368 . S
C3045 C3026 1.429 . S
C3045 C3039 1.429 . S
C3045 C3046 1.523 . S
C3046 C3027 1.368 . S
C3046 C3040 1.368 . S
C3046 C3045 1.523 . S
C3047 C3031 1.429 . S
C3047 C3043 1.429 . S
C3047 C3048 1.523 . S
C3048 C3032 1.368 . S
C3048 C3044 1.368 . S
C3048 C3047 1.523 . S
H3049 C3024 0.950 . S
H3050 C3026 0.950 . S
H3051 C3027 0.949 . S
H3052 C3029 0.950 . S
H3053 C3031 0.950 . S
C3054 C3055 1.349 . S
C3054 C3056 1.327 . S
C3054 H3079 0.950 . S
C3055 C3054 1.349 . S
C3055 C3071 1.349 . S
C3056 C3054 1.327 . S
C3056 C3075 1.429 . S
C3056 H3080 0.950 . S
C3057 C3074 1.574 . S
C3057 C3076 1.368 . S
C3057 H3081 0.949 . S
H3058 C3062 0.949 . S
C3059 C3060 1.349 . S
C3059 C3061 1.327 . S
C3059 H3082 0.950 . S
C3060 C3059 1.349 . S
C3060 C3072 1.349 . S
C3061 C3059 1.327 . S
C3061 C3077 1.429 . S
C3061 H3083 0.950 . S
C3062 H3058 0.949 . S
C3062 C3070 1.574 . S
C3062 C3078 1.368 . S
H3063 C3071 0.950 . S
H3064 C3069 0.950 . S
H3065 C3070 0.949 . S
H3066 C3072 0.950 . S
H3067 C3073 0.950 . S
H3068 C3074 0.949 . S
C3069 H3064 0.950 . S
C3069 C3071 1.327 . S
C3069 C3075 1.429 . S
C3070 C3062 1.574 . S
C3070 H3065 0.949 . S
C3070 C3076 1.368 . S
C3071 C3055 1.349 . S
C3071 H3063 0.950 . S
C3071 C3069 1.327 . S
C3072 C3060 1.349 . S
C3072 H3066 0.950 . S
C3072 C3073 1.327 . S
C3073 H3067 0.950 . S
C3073 C3072 1.327 . S
C3073 C3077 1.429 . S
C3074 C3057 1.574 . S
C3074 H3068 0.949 . S
C3074 C3078 1.368 . S
C3075 C3056 1.429 . S
C3075 C3069 1.429 . S
C3075 C3076 1.523 . S
C3076 C3057 1.368 . S
C3076 C3070 1.368 . S
C3076 C3075 1.523 . S
C3077 C3061 1.429 . S
C3077 C3073 1.429 . S
C3077 C3078 1.523 . S
C3078 C3062 1.368 . S
C3078 C3074 1.368 . S
C3078 C3077 1.523 . S
H3079 C3054 0.950 . S
H3080 C3056 0.950 . S
H3081 C3057 0.949 . S
H3082 C3059 0.950 . S
H3083 C3061 0.950 . S
C3084 C3085 1.349 . S
C3084 C3086 1.327 . S
C3084 H3109 0.950 . S
C3085 C3084 1.349 . S
C3085 C3101 1.349 . S
C3086 C3084 1.327 . S
C3086 C3105 1.429 . S
C3086 H3110 0.950 . S
C3087 C3104 1.574 . S
C3087 C3106 1.368 . S
C3087 H3111 0.949 . S
H3088 C3092 0.949 . S
C3089 C3090 1.349 . S
C3089 C3091 1.327 . S
C3089 H3112 0.950 . S
C3090 C3089 1.349 . S
C3090 C3102 1.349 . S
C3091 C3089 1.327 . S
C3091 C3107 1.429 . S
C3091 H3113 0.950 . S
C3092 H3088 0.949 . S
C3092 C3100 1.574 . S
C3092 C3108 1.368 . S
H3093 C3101 0.950 . S
H3094 C3099 0.950 . S
H3095 C3100 0.949 . S
H3096 C3102 0.950 . S
H3097 C3103 0.950 . S
H3098 C3104 0.949 . S
C3099 H3094 0.950 . S
C3099 C3101 1.327 . S
C3099 C3105 1.429 . S
C3100 C3092 1.574 . S
C3100 H3095 0.949 . S
C3100 C3106 1.368 . S
C3101 C3085 1.349 . S
C3101 H3093 0.950 . S
C3101 C3099 1.327 . S
C3102 C3090 1.349 . S
C3102 H3096 0.950 . S
C3102 C3103 1.327 . S
C3103 H3097 0.950 . S
C3103 C3102 1.327 . S
C3103 C3107 1.429 . S
C3104 C3087 1.574 . S
C3104 H3098 0.949 . S
C3104 C3108 1.368 . S
C3105 C3086 1.429 . S
C3105 C3099 1.429 . S
C3105 C3106 1.523 . S
C3106 C3087 1.368 . S
C3106 C3100 1.368 . S
C3106 C3105 1.523 . S
C3107 C3091 1.429 . S
C3107 C3103 1.429 . S
C3107 C3108 1.523 . S
C3108 C3092 1.368 . S
C3108 C3104 1.368 . S
C3108 C3107 1.523 . S
H3109 C3084 0.950 . S
H3110 C3086 0.950 . S
H3111 C3087 0.949 . S
H3112 C3089 0.950 . S
H3113 C3091 0.950 . S
C3114 C3115 1.349 . S
C3114 C3116 1.327 . S
C3114 H3139 0.950 . S
C3115 C3114 1.349 . S
C3115 C3131 1.349 . S
C3116 C3114 1.327 . S
C3116 C3135 1.429 . S
C3116 H3140 0.950 . S
C3117 C3134 1.574 . S
C3117 C3136 1.368 . S
C3117 H3141 0.949 . S
H3118 C3122 0.949 . S
C3119 C3120 1.349 . S
C3119 C3121 1.327 . S
C3119 H3142 0.950 . S
C3120 C3119 1.349 . S
C3120 C3132 1.349 . S
C3121 C3119 1.327 . S
C3121 C3137 1.429 . S
C3121 H3143 0.950 . S
C3122 H3118 0.949 . S
C3122 C3130 1.574 . S
C3122 C3138 1.368 . S
H3123 C3131 0.950 . S
H3124 C3129 0.950 . S
H3125 C3130 0.949 . S
H3126 C3132 0.950 . S
H3127 C3133 0.950 . S
H3128 C3134 0.949 . S
C3129 H3124 0.950 . S
C3129 C3131 1.327 . S
C3129 C3135 1.429 . S
C3130 C3122 1.574 . S
C3130 H3125 0.949 . S
C3130 C3136 1.368 . S
C3131 C3115 1.349 . S
C3131 H3123 0.950 . S
C3131 C3129 1.327 . S
C3132 C3120 1.349 . S
C3132 H3126 0.950 . S
C3132 C3133 1.327 . S
C3133 H3127 0.950 . S
C3133 C3132 1.327 . S
C3133 C3137 1.429 . S
C3134 C3117 1.574 . S
C3134 H3128 0.949 . S
C3134 C3138 1.368 . S
C3135 C3116 1.429 . S
C3135 C3129 1.429 . S
C3135 C3136 1.523 . S
C3136 C3117 1.368 . S
C3136 C3130 1.368 . S
C3136 C3135 1.523 . S
C3137 C3121 1.429 . S
C3137 C3133 1.429 . S
C3137 C3138 1.523 . S
C3138 C3122 1.368 . S
C3138 C3134 1.368 . S
C3138 C3137 1.523 . S
H3139 C3114 0.950 . S
H3140 C3116 0.950 . S
H3141 C3117 0.949 . S
H3142 C3119 0.950 . S
H3143 C3121 0.950 . S
C3144 C3145 1.349 . S
C3144 C3146 1.327 . S
C3144 H3169 0.950 . S
C3145 C3144 1.349 . S
C3145 C3161 1.349 . S
C3146 C3144 1.327 . S
C3146 C3165 1.429 . S
C3146 H3170 0.950 . S
C3147 C3164 1.574 . S
C3147 C3166 1.368 . S
C3147 H3171 0.949 . S
H3148 C3152 0.949 . S
C3149 C3150 1.349 . S
C3149 C3151 1.327 . S
C3149 H3172 0.950 . S
C3150 C3149 1.349 . S
C3150 C3162 1.349 . S
C3151 C3149 1.327 . S
C3151 C3167 1.429 . S
C3151 H3173 0.950 . S
C3152 H3148 0.949 . S
C3152 C3160 1.574 . S
C3152 C3168 1.368 . S
H3153 C3161 0.950 . S
H3154 C3159 0.950 . S
H3155 C3160 0.949 . S
H3156 C3162 0.950 . S
H3157 C3163 0.950 . S
H3158 C3164 0.949 . S
C3159 H3154 0.950 . S
C3159 C3161 1.327 . S
C3159 C3165 1.429 . S
C3160 C3152 1.574 . S
C3160 H3155 0.949 . S
C3160 C3166 1.368 . S
C3161 C3145 1.349 . S
C3161 H3153 0.950 . S
C3161 C3159 1.327 . S
C3162 C3150 1.349 . S
C3162 H3156 0.950 . S
C3162 C3163 1.327 . S
C3163 H3157 0.950 . S
C3163 C3162 1.327 . S
C3163 C3167 1.429 . S
C3164 C3147 1.574 . S
C3164 H3158 0.949 . S
C3164 C3168 1.368 . S
C3165 C3146 1.429 . S
C3165 C3159 1.429 . S
C3165 C3166 1.523 . S
C3166 C3147 1.368 . S
C3166 C3160 1.368 . S
C3166 C3165 1.523 . S
C3167 C3151 1.429 . S
C3167 C3163 1.429 . S
C3167 C3168 1.523 . S
C3168 C3152 1.368 . S
C3168 C3164 1.368 . S
C3168 C3167 1.523 . S
H3169 C3144 0.950 . S
H3170 C3146 0.950 . S
H3171 C3147 0.949 . S
H3172 C3149 0.950 . S
H3173 C3151 0.950 . S
C3174 C3175 1.349 . S
C3174 C3176 1.327 . S
C3174 H3199 0.950 . S
C3175 C3174 1.349 . S
C3175 C3191 1.349 . S
C3176 C3174 1.327 . S
C3176 C3195 1.429 . S
C3176 H3200 0.950 . S
C3177 C3194 1.574 . S
C3177 C3196 1.368 . S
C3177 H3201 0.949 . S
H3178 C3182 0.949 . S
C3179 C3180 1.349 . S
C3179 C3181 1.327 . S
C3179 H3202 0.950 . S
C3180 C3179 1.349 . S
C3180 C3192 1.349 . S
C3181 C3179 1.327 . S
C3181 C3197 1.429 . S
C3181 H3203 0.950 . S
C3182 H3178 0.949 . S
C3182 C3190 1.574 . S
C3182 C3198 1.368 . S
H3183 C3191 0.950 . S
H3184 C3189 0.950 . S
H3185 C3190 0.949 . S
H3186 C3192 0.950 . S
H3187 C3193 0.950 . S
H3188 C3194 0.949 . S
C3189 H3184 0.950 . S
C3189 C3191 1.327 . S
C3189 C3195 1.429 . S
C3190 C3182 1.574 . S
C3190 H3185 0.949 . S
C3190 C3196 1.368 . S
C3191 C3175 1.349 . S
C3191 H3183 0.950 . S
C3191 C3189 1.327 . S
C3192 C3180 1.349 . S
C3192 H3186 0.950 . S
C3192 C3193 1.327 . S
C3193 H3187 0.950 . S
C3193 C3192 1.327 . S
C3193 C3197 1.429 . S
C3194 C3177 1.574 . S
C3194 H3188 0.949 . S
C3194 C3198 1.368 . S
C3195 C3176 1.429 . S
C3195 C3189 1.429 . S
C3195 C3196 1.523 . S
C3196 C3177 1.368 . S
C3196 C3190 1.368 . S
C3196 C3195 1.523 . S
C3197 C3181 1.429 . S
C3197 C3193 1.429 . S
C3197 C3198 1.523 . S
C3198 C3182 1.368 . S
C3198 C3194 1.368 . S
C3198 C3197 1.523 . S
H3199 C3174 0.950 . S
H3200 C3176 0.950 . S
H3201 C3177 0.949 . S
H3202 C3179 0.950 . S
H3203 C3181 0.950 . S
C3204 C3205 1.349 . S
C3204 C3206 1.327 . S
C3204 H3229 0.950 . S
C3205 C3204 1.349 . S
C3205 C3221 1.349 . S
C3206 C3204 1.327 . S
C3206 C3225 1.429 . S
C3206 H3230 0.950 . S
C3207 C3224 1.574 . S
C3207 C3226 1.368 . S
C3207 H3231 0.949 . S
H3208 C3212 0.949 . S
C3209 C3210 1.349 . S
C3209 C3211 1.327 . S
C3209 H3232 0.950 . S
C3210 C3209 1.349 . S
C3210 C3222 1.349 . S
C3211 C3209 1.327 . S
C3211 C3227 1.429 . S
C3211 H3233 0.950 . S
C3212 H3208 0.949 . S
C3212 C3220 1.574 . S
C3212 C3228 1.368 . S
H3213 C3221 0.950 . S
H3214 C3219 0.950 . S
H3215 C3220 0.949 . S
H3216 C3222 0.950 . S
H3217 C3223 0.950 . S
H3218 C3224 0.949 . S
C3219 H3214 0.950 . S
C3219 C3221 1.327 . S
C3219 C3225 1.429 . S
C3220 C3212 1.574 . S
C3220 H3215 0.949 . S
C3220 C3226 1.368 . S
C3221 C3205 1.349 . S
C3221 H3213 0.950 . S
C3221 C3219 1.327 . S
C3222 C3210 1.349 . S
C3222 H3216 0.950 . S
C3222 C3223 1.327 . S
C3223 H3217 0.950 . S
C3223 C3222 1.327 . S
C3223 C3227 1.429 . S
C3224 C3207 1.574 . S
C3224 H3218 0.949 . S
C3224 C3228 1.368 . S
C3225 C3206 1.429 . S
C3225 C3219 1.429 . S
C3225 C3226 1.523 . S
C3226 C3207 1.368 . S
C3226 C3220 1.368 . S
C3226 C3225 1.523 . S
C3227 C3211 1.429 . S
C3227 C3223 1.429 . S
C3227 C3228 1.523 . S
C3228 C3212 1.368 . S
C3228 C3224 1.368 . S
C3228 C3227 1.523 . S
H3229 C3204 0.950 . S
H3230 C3206 0.950 . S
H3231 C3207 0.949 . S
H3232 C3209 0.950 . S
H3233 C3211 0.950 . S
C3234 C3235 1.349 . S
C3234 C3236 1.327 . S
C3234 H3259 0.950 . S
C3235 C3234 1.349 . S
C3235 C3251 1.349 . S
C3236 C3234 1.327 . S
C3236 C3255 1.429 . S
C3236 H3260 0.950 . S
C3237 C3254 1.574 . S
C3237 C3256 1.368 . S
C3237 H3261 0.949 . S
H3238 C3242 0.949 . S
C3239 C3240 1.349 . S
C3239 C3241 1.327 . S
C3239 H3262 0.950 . S
C3240 C3239 1.349 . S
C3240 C3252 1.349 . S
C3241 C3239 1.327 . S
C3241 C3257 1.429 . S
C3241 H3263 0.950 . S
C3242 H3238 0.949 . S
C3242 C3250 1.574 . S
C3242 C3258 1.368 . S
H3243 C3251 0.950 . S
H3244 C3249 0.950 . S
H3245 C3250 0.949 . S
H3246 C3252 0.950 . S
H3247 C3253 0.950 . S
H3248 C3254 0.949 . S
C3249 H3244 0.950 . S
C3249 C3251 1.327 . S
C3249 C3255 1.429 . S
C3250 C3242 1.574 . S
C3250 H3245 0.949 . S
C3250 C3256 1.368 . S
C3251 C3235 1.349 . S
C3251 H3243 0.950 . S
C3251 C3249 1.327 . S
C3252 C3240 1.349 . S
C3252 H3246 0.950 . S
C3252 C3253 1.327 . S
C3253 H3247 0.950 . S
C3253 C3252 1.327 . S
C3253 C3257 1.429 . S
C3254 C3237 1.574 . S
C3254 H3248 0.949 . S
C3254 C3258 1.368 . S
C3255 C3236 1.429 . S
C3255 C3249 1.429 . S
C3255 C3256 1.523 . S
C3256 C3237 1.368 . S
C3256 C3250 1.368 . S
C3256 C3255 1.523 . S
C3257 C3241 1.429 . S
C3257 C3253 1.429 . S
C3257 C3258 1.523 . S
C3258 C3242 1.368 . S
C3258 C3254 1.368 . S
C3258 C3257 1.523 . S
H3259 C3234 0.950 . S
H3260 C3236 0.950 . S
H3261 C3237 0.949 . S
H3262 C3239 0.950 . S
H3263 C3241 0.950 . S
C3264 C3265 1.349 . S
C3264 C3266 1.327 . S
C3264 H3289 0.950 . S
C3265 C3264 1.349 . S
C3265 C3281 1.349 . S
C3266 C3264 1.327 . S
C3266 C3285 1.429 . S
C3266 H3290 0.950 . S
C3267 C3284 1.574 . S
C3267 C3286 1.368 . S
C3267 H3291 0.949 . S
H3268 C3272 0.949 . S
C3269 C3270 1.349 . S
C3269 C3271 1.327 . S
C3269 H3292 0.950 . S
C3270 C3269 1.349 . S
C3270 C3282 1.349 . S
C3271 C3269 1.327 . S
C3271 C3287 1.429 . S
C3271 H3293 0.950 . S
C3272 H3268 0.949 . S
C3272 C3280 1.574 . S
C3272 C3288 1.368 . S
H3273 C3281 0.950 . S
H3274 C3279 0.950 . S
H3275 C3280 0.949 . S
H3276 C3282 0.950 . S
H3277 C3283 0.950 . S
H3278 C3284 0.949 . S
C3279 H3274 0.950 . S
C3279 C3281 1.327 . S
C3279 C3285 1.429 . S
C3280 C3272 1.574 . S
C3280 H3275 0.949 . S
C3280 C3286 1.368 . S
C3281 C3265 1.349 . S
C3281 H3273 0.950 . S
C3281 C3279 1.327 . S
C3282 C3270 1.349 . S
C3282 H3276 0.950 . S
C3282 C3283 1.327 . S
C3283 H3277 0.950 . S
C3283 C3282 1.327 . S
C3283 C3287 1.429 . S
C3284 C3267 1.574 . S
C3284 H3278 0.949 . S
C3284 C3288 1.368 . S
C3285 C3266 1.429 . S
C3285 C3279 1.429 . S
C3285 C3286 1.523 . S
C3286 C3267 1.368 . S
C3286 C3280 1.368 . S
C3286 C3285 1.523 . S
C3287 C3271 1.429 . S
C3287 C3283 1.429 . S
C3287 C3288 1.523 . S
C3288 C3272 1.368 . S
C3288 C3284 1.368 . S
C3288 C3287 1.523 . S
H3289 C3264 0.950 . S
H3290 C3266 0.950 . S
H3291 C3267 0.949 . S
H3292 C3269 0.950 . S
H3293 C3271 0.950 . S
C3294 C3295 1.349 . S
C3294 C3296 1.327 . S
C3294 H3319 0.950 . S
C3295 C3294 1.349 . S
C3295 C3311 1.349 . S
C3296 C3294 1.327 . S
C3296 C3315 1.429 . S
C3296 H3320 0.950 . S
C3297 C3314 1.574 . S
C3297 C3316 1.368 . S
C3297 H3321 0.949 . S
H3298 C3302 0.949 . S
C3299 C3300 1.349 . S
C3299 C3301 1.327 . S
C3299 H3322 0.950 . S
C3300 C3299 1.349 . S
C3300 C3312 1.349 . S
C3301 C3299 1.327 . S
C3301 C3317 1.429 . S
C3301 H3323 0.950 . S
C3302 H3298 0.949 . S
C3302 C3310 1.574 . S
C3302 C3318 1.368 . S
H3303 C3311 0.950 . S
H3304 C3309 0.950 . S
H3305 C3310 0.949 . S
H3306 C3312 0.950 . S
H3307 C3313 0.950 . S
H3308 C3314 0.949 . S
C3309 H3304 0.950 . S
C3309 C3311 1.327 . S
C3309 C3315 1.429 . S
C3310 C3302 1.574 . S
C3310 H3305 0.949 . S
C3310 C3316 1.368 . S
C3311 C3295 1.349 . S
C3311 H3303 0.950 . S
C3311 C3309 1.327 . S
C3312 C3300 1.349 . S
C3312 H3306 0.950 . S
C3312 C3313 1.327 . S
C3313 H3307 0.950 . S
C3313 C3312 1.327 . S
C3313 C3317 1.429 . S
C3314 C3297 1.574 . S
C3314 H3308 0.949 . S
C3314 C3318 1.368 . S
C3315 C3296 1.429 . S
C3315 C3309 1.429 . S
C3315 C3316 1.523 . S
C3316 C3297 1.368 . S
C3316 C3310 1.368 . S
C3316 C3315 1.523 . S
C3317 C3301 1.429 . S
C3317 C3313 1.429 . S
C3317 C3318 1.523 . S
C3318 C3302 1.368 . S
C3318 C3314 1.368 . S
C3318 C3317 1.523 . S
H3319 C3294 0.950 . S
H3320 C3296 0.950 . S
H3321 C3297 0.949 . S
H3322 C3299 0.950 . S
H3323 C3301 0.950 . S
C3324 C3325 1.349 . S
C3324 C3326 1.327 . S
C3324 H3349 0.950 . S
C3325 C3324 1.349 . S
C3325 C3341 1.349 . S
C3326 C3324 1.327 . S
C3326 C3345 1.429 . S
C3326 H3350 0.950 . S
C3327 C3344 1.574 . S
C3327 C3346 1.368 . S
C3327 H3351 0.949 . S
H3328 C3332 0.949 . S
C3329 C3330 1.349 . S
C3329 C3331 1.327 . S
C3329 H3352 0.950 . S
C3330 C3329 1.349 . S
C3330 C3342 1.349 . S
C3331 C3329 1.327 . S
C3331 C3347 1.429 . S
C3331 H3353 0.950 . S
C3332 H3328 0.949 . S
C3332 C3340 1.574 . S
C3332 C3348 1.368 . S
H3333 C3341 0.950 . S
H3334 C3339 0.950 . S
H3335 C3340 0.949 . S
H3336 C3342 0.950 . S
H3337 C3343 0.950 . S
H3338 C3344 0.949 . S
C3339 H3334 0.950 . S
C3339 C3341 1.327 . S
C3339 C3345 1.429 . S
C3340 C3332 1.574 . S
C3340 H3335 0.949 . S
C3340 C3346 1.368 . S
C3341 C3325 1.349 . S
C3341 H3333 0.950 . S
C3341 C3339 1.327 . S
C3342 C3330 1.349 . S
C3342 H3336 0.950 . S
C3342 C3343 1.327 . S
C3343 H3337 0.950 . S
C3343 C3342 1.327 . S
C3343 C3347 1.429 . S
C3344 C3327 1.574 . S
C3344 H3338 0.949 . S
C3344 C3348 1.368 . S
C3345 C3326 1.429 . S
C3345 C3339 1.429 . S
C3345 C3346 1.523 . S
C3346 C3327 1.368 . S
C3346 C3340 1.368 . S
C3346 C3345 1.523 . S
C3347 C3331 1.429 . S
C3347 C3343 1.429 . S
C3347 C3348 1.523 . S
C3348 C3332 1.368 . S
C3348 C3344 1.368 . S
C3348 C3347 1.523 . S
H3349 C3324 0.950 . S
H3350 C3326 0.950 . S
H3351 C3327 0.949 . S
H3352 C3329 0.950 . S
H3353 C3331 0.950 . S
C3354 C3355 1.349 . S
C3354 C3356 1.327 . S
C3354 H3379 0.950 . S
C3355 C3354 1.349 . S
C3355 C3371 1.349 . S
C3356 C3354 1.327 . S
C3356 C3375 1.429 . S
C3356 H3380 0.950 . S
C3357 C3374 1.574 . S
C3357 C3376 1.368 . S
C3357 H3381 0.949 . S
H3358 C3362 0.949 . S
C3359 C3360 1.349 . S
C3359 C3361 1.327 . S
C3359 H3382 0.950 . S
C3360 C3359 1.349 . S
C3360 C3372 1.349 . S
C3361 C3359 1.327 . S
C3361 C3377 1.429 . S
C3361 H3383 0.950 . S
C3362 H3358 0.949 . S
C3362 C3370 1.574 . S
C3362 C3378 1.368 . S
H3363 C3371 0.950 . S
H3364 C3369 0.950 . S
H3365 C3370 0.949 . S
H3366 C3372 0.950 . S
H3367 C3373 0.950 . S
H3368 C3374 0.949 . S
C3369 H3364 0.950 . S
C3369 C3371 1.327 . S
C3369 C3375 1.429 . S
C3370 C3362 1.574 . S
C3370 H3365 0.949 . S
C3370 C3376 1.368 . S
C3371 C3355 1.349 . S
C3371 H3363 0.950 . S
C3371 C3369 1.327 . S
C3372 C3360 1.349 . S
C3372 H3366 0.950 . S
C3372 C3373 1.327 . S
C3373 H3367 0.950 . S
C3373 C3372 1.327 . S
C3373 C3377 1.429 . S
C3374 C3357 1.574 . S
C3374 H3368 0.949 . S
C3374 C3378 1.368 . S
C3375 C3356 1.429 . S
C3375 C3369 1.429 . S
C3375 C3376 1.523 . S
C3376 C3357 1.368 . S
C3376 C3370 1.368 . S
C3376 C3375 1.523 . S
C3377 C3361 1.429 . S
C3377 C3373 1.429 . S
C3377 C3378 1.523 . S
C3378 C3362 1.368 . S
C3378 C3374 1.368 . S
C3378 C3377 1.523 . S
H3379 C3354 0.950 . S
H3380 C3356 0.950 . S
H3381 C3357 0.949 . S
H3382 C3359 0.950 . S
H3383 C3361 0.950 . S
C3384 C3385 1.349 . S
C3384 C3386 1.327 . S
C3384 H3409 0.950 . S
C3385 C3384 1.349 . S
C3385 C3401 1.349 . S
C3386 C3384 1.327 . S
C3386 C3405 1.429 . S
C3386 H3410 0.950 . S
C3387 C3404 1.574 . S
C3387 C3406 1.368 . S
C3387 H3411 0.949 . S
H3388 C3392 0.949 . S
C3389 C3390 1.349 . S
C3389 C3391 1.327 . S
C3389 H3412 0.950 . S
C3390 C3389 1.349 . S
C3390 C3402 1.349 . S
C3391 C3389 1.327 . S
C3391 C3407 1.429 . S
C3391 H3413 0.950 . S
C3392 H3388 0.949 . S
C3392 C3400 1.574 . S
C3392 C3408 1.368 . S
H3393 C3401 0.950 . S
H3394 C3399 0.950 . S
H3395 C3400 0.949 . S
H3396 C3402 0.950 . S
H3397 C3403 0.950 . S
H3398 C3404 0.949 . S
C3399 H3394 0.950 . S
C3399 C3401 1.327 . S
C3399 C3405 1.429 . S
C3400 C3392 1.574 . S
C3400 H3395 0.949 . S
C3400 C3406 1.368 . S
C3401 C3385 1.349 . S
C3401 H3393 0.950 . S
C3401 C3399 1.327 . S
C3402 C3390 1.349 . S
C3402 H3396 0.950 . S
C3402 C3403 1.327 . S
C3403 H3397 0.950 . S
C3403 C3402 1.327 . S
C3403 C3407 1.429 . S
C3404 C3387 1.574 . S
C3404 H3398 0.949 . S
C3404 C3408 1.368 . S
C3405 C3386 1.429 . S
C3405 C3399 1.429 . S
C3405 C3406 1.523 . S
C3406 C3387 1.368 . S
C3406 C3400 1.368 . S
C3406 C3405 1.523 . S
C3407 C3391 1.429 . S
C3407 C3403 1.429 . S
C3407 C3408 1.523 . S
C3408 C3392 1.368 . S
C3408 C3404 1.368 . S
C3408 C3407 1.523 . S
H3409 C3384 0.950 . S
H3410 C3386 0.950 . S
H3411 C3387 0.949 . S
H3412 C3389 0.950 . S
H3413 C3391 0.950 . S
C3414 C3415 1.349 . S
C3414 C3416 1.327 . S
C3414 H3439 0.950 . S
C3415 C3414 1.349 . S
C3415 C3431 1.349 . S
C3416 C3414 1.327 . S
C3416 C3435 1.429 . S
C3416 H3440 0.950 . S
C3417 C3434 1.574 . S
C3417 C3436 1.368 . S
C3417 H3441 0.949 . S
H3418 C3422 0.949 . S
C3419 C3420 1.349 . S
C3419 C3421 1.327 . S
C3419 H3442 0.950 . S
C3420 C3419 1.349 . S
C3420 C3432 1.349 . S
C3421 C3419 1.327 . S
C3421 C3437 1.429 . S
C3421 H3443 0.950 . S
C3422 H3418 0.949 . S
C3422 C3430 1.574 . S
C3422 C3438 1.368 . S
H3423 C3431 0.950 . S
H3424 C3429 0.950 . S
H3425 C3430 0.949 . S
H3426 C3432 0.950 . S
H3427 C3433 0.950 . S
H3428 C3434 0.949 . S
C3429 H3424 0.950 . S
C3429 C3431 1.327 . S
C3429 C3435 1.429 . S
C3430 C3422 1.574 . S
C3430 H3425 0.949 . S
C3430 C3436 1.368 . S
C3431 C3415 1.349 . S
C3431 H3423 0.950 . S
C3431 C3429 1.327 . S
C3432 C3420 1.349 . S
C3432 H3426 0.950 . S
C3432 C3433 1.327 . S
C3433 H3427 0.950 . S
C3433 C3432 1.327 . S
C3433 C3437 1.429 . S
C3434 C3417 1.574 . S
C3434 H3428 0.949 . S
C3434 C3438 1.368 . S
C3435 C3416 1.429 . S
C3435 C3429 1.429 . S
C3435 C3436 1.523 . S
C3436 C3417 1.368 . S
C3436 C3430 1.368 . S
C3436 C3435 1.523 . S
C3437 C3421 1.429 . S
C3437 C3433 1.429 . S
C3437 C3438 1.523 . S
C3438 C3422 1.368 . S
C3438 C3434 1.368 . S
C3438 C3437 1.523 . S
H3439 C3414 0.950 . S
H3440 C3416 0.950 . S
H3441 C3417 0.949 . S
H3442 C3419 0.950 . S
H3443 C3421 0.950 . S
C3444 C3445 1.349 . S
C3444 C3446 1.327 . S
C3444 H3469 0.950 . S
C3445 C3444 1.349 . S
C3445 C3461 1.349 . S
C3446 C3444 1.327 . S
C3446 C3465 1.429 . S
C3446 H3470 0.950 . S
C3447 C3464 1.574 . S
C3447 C3466 1.368 . S
C3447 H3471 0.949 . S
H3448 C3452 0.949 . S
C3449 C3450 1.349 . S
C3449 C3451 1.327 . S
C3449 H3472 0.950 . S
C3450 C3449 1.349 . S
C3450 C3462 1.349 . S
C3451 C3449 1.327 . S
C3451 C3467 1.429 . S
C3451 H3473 0.950 . S
C3452 H3448 0.949 . S
C3452 C3460 1.574 . S
C3452 C3468 1.368 . S
H3453 C3461 0.950 . S
H3454 C3459 0.950 . S
H3455 C3460 0.949 . S
H3456 C3462 0.950 . S
H3457 C3463 0.950 . S
H3458 C3464 0.949 . S
C3459 H3454 0.950 . S
C3459 C3461 1.327 . S
C3459 C3465 1.429 . S
C3460 C3452 1.574 . S
C3460 H3455 0.949 . S
C3460 C3466 1.368 . S
C3461 C3445 1.349 . S
C3461 H3453 0.950 . S
C3461 C3459 1.327 . S
C3462 C3450 1.349 . S
C3462 H3456 0.950 . S
C3462 C3463 1.327 . S
C3463 H3457 0.950 . S
C3463 C3462 1.327 . S
C3463 C3467 1.429 . S
C3464 C3447 1.574 . S
C3464 H3458 0.949 . S
C3464 C3468 1.368 . S
C3465 C3446 1.429 . S
C3465 C3459 1.429 . S
C3465 C3466 1.523 . S
C3466 C3447 1.368 . S
C3466 C3460 1.368 . S
C3466 C3465 1.523 . S
C3467 C3451 1.429 . S
C3467 C3463 1.429 . S
C3467 C3468 1.523 . S
C3468 C3452 1.368 . S
C3468 C3464 1.368 . S
C3468 C3467 1.523 . S
H3469 C3444 0.950 . S
H3470 C3446 0.950 . S
H3471 C3447 0.949 . S
H3472 C3449 0.950 . S
H3473 C3451 0.950 . S
C3474 C3475 1.349 . S
C3474 C3476 1.327 . S
C3474 H3499 0.950 . S
C3475 C3474 1.349 . S
C3475 C3491 1.349 . S
C3476 C3474 1.327 . S
C3476 C3495 1.429 . S
C3476 H3500 0.950 . S
C3477 C3494 1.574 . S
C3477 C3496 1.368 . S
C3477 H3501 0.949 . S
H3478 C3482 0.949 . S
C3479 C3480 1.349 . S
C3479 C3481 1.327 . S
C3479 H3502 0.950 . S
C3480 C3479 1.349 . S
C3480 C3492 1.349 . S
C3481 C3479 1.327 . S
C3481 C3497 1.429 . S
C3481 H3503 0.950 . S
C3482 H3478 0.949 . S
C3482 C3490 1.574 . S
C3482 C3498 1.368 . S
H3483 C3491 0.950 . S
H3484 C3489 0.950 . S
H3485 C3490 0.949 . S
H3486 C3492 0.950 . S
H3487 C3493 0.950 . S
H3488 C3494 0.949 . S
C3489 H3484 0.950 . S
C3489 C3491 1.327 . S
C3489 C3495 1.429 . S
C3490 C3482 1.574 . S
C3490 H3485 0.949 . S
C3490 C3496 1.368 . S
C3491 C3475 1.349 . S
C3491 H3483 0.950 . S
C3491 C3489 1.327 . S
C3492 C3480 1.349 . S
C3492 H3486 0.950 . S
C3492 C3493 1.327 . S
C3493 H3487 0.950 . S
C3493 C3492 1.327 . S
C3493 C3497 1.429 . S
C3494 C3477 1.574 . S
C3494 H3488 0.949 . S
C3494 C3498 1.368 . S
C3495 C3476 1.429 . S
C3495 C3489 1.429 . S
C3495 C3496 1.523 . S
C3496 C3477 1.368 . S
C3496 C3490 1.368 . S
C3496 C3495 1.523 . S
C3497 C3481 1.429 . S
C3497 C3493 1.429 . S
C3497 C3498 1.523 . S
C3498 C3482 1.368 . S
C3498 C3494 1.368 . S
C3498 C3497 1.523 . S
H3499 C3474 0.950 . S
H3500 C3476 0.950 . S
H3501 C3477 0.949 . S
H3502 C3479 0.950 . S
H3503 C3481 0.950 . S
C3504 C3505 1.349 . S
C3504 C3506 1.327 . S
C3504 H3529 0.950 . S
C3505 C3504 1.349 . S
C3505 C3521 1.349 . S
C3506 C3504 1.327 . S
C3506 C3525 1.429 . S
C3506 H3530 0.950 . S
C3507 C3524 1.574 . S
C3507 C3526 1.368 . S
C3507 H3531 0.949 . S
H3508 C3512 0.949 . S
C3509 C3510 1.349 . S
C3509 C3511 1.327 . S
C3509 H3532 0.950 . S
C3510 C3509 1.349 . S
C3510 C3522 1.349 . S
C3511 C3509 1.327 . S
C3511 C3527 1.429 . S
C3511 H3533 0.950 . S
C3512 H3508 0.949 . S
C3512 C3520 1.574 . S
C3512 C3528 1.368 . S
H3513 C3521 0.950 . S
H3514 C3519 0.950 . S
H3515 C3520 0.949 . S
H3516 C3522 0.950 . S
H3517 C3523 0.950 . S
H3518 C3524 0.949 . S
C3519 H3514 0.950 . S
C3519 C3521 1.327 . S
C3519 C3525 1.429 . S
C3520 C3512 1.574 . S
C3520 H3515 0.949 . S
C3520 C3526 1.368 . S
C3521 C3505 1.349 . S
C3521 H3513 0.950 . S
C3521 C3519 1.327 . S
C3522 C3510 1.349 . S
C3522 H3516 0.950 . S
C3522 C3523 1.327 . S
C3523 H3517 0.950 . S
C3523 C3522 1.327 . S
C3523 C3527 1.429 . S
C3524 C3507 1.574 . S
C3524 H3518 0.949 . S
C3524 C3528 1.368 . S
C3525 C3506 1.429 . S
C3525 C3519 1.429 . S
C3525 C3526 1.523 . S
C3526 C3507 1.368 . S
C3526 C3520 1.368 . S
C3526 C3525 1.523 . S
C3527 C3511 1.429 . S
C3527 C3523 1.429 . S
C3527 C3528 1.523 . S
C3528 C3512 1.368 . S
C3528 C3524 1.368 . S
C3528 C3527 1.523 . S
H3529 C3504 0.950 . S
H3530 C3506 0.950 . S
H3531 C3507 0.949 . S
H3532 C3509 0.950 . S
H3533 C3511 0.950 . S
C3534 C3535 1.349 . S
C3534 C3536 1.327 . S
C3534 H3559 0.950 . S
C3535 C3534 1.349 . S
C3535 C3551 1.349 . S
C3536 C3534 1.327 . S
C3536 C3555 1.429 . S
C3536 H3560 0.950 . S
C3537 C3554 1.574 . S
C3537 C3556 1.368 . S
C3537 H3561 0.949 . S
H3538 C3542 0.949 . S
C3539 C3540 1.349 . S
C3539 C3541 1.327 . S
C3539 H3562 0.950 . S
C3540 C3539 1.349 . S
C3540 C3552 1.349 . S
C3541 C3539 1.327 . S
C3541 C3557 1.429 . S
C3541 H3563 0.950 . S
C3542 H3538 0.949 . S
C3542 C3550 1.574 . S
C3542 C3558 1.368 . S
H3543 C3551 0.950 . S
H3544 C3549 0.950 . S
H3545 C3550 0.949 . S
H3546 C3552 0.950 . S
H3547 C3553 0.950 . S
H3548 C3554 0.949 . S
C3549 H3544 0.950 . S
C3549 C3551 1.327 . S
C3549 C3555 1.429 . S
C3550 C3542 1.574 . S
C3550 H3545 0.949 . S
C3550 C3556 1.368 . S
C3551 C3535 1.349 . S
C3551 H3543 0.950 . S
C3551 C3549 1.327 . S
C3552 C3540 1.349 . S
C3552 H3546 0.950 . S
C3552 C3553 1.327 . S
C3553 H3547 0.950 . S
C3553 C3552 1.327 . S
C3553 C3557 1.429 . S
C3554 C3537 1.574 . S
C3554 H3548 0.949 . S
C3554 C3558 1.368 . S
C3555 C3536 1.429 . S
C3555 C3549 1.429 . S
C3555 C3556 1.523 . S
C3556 C3537 1.368 . S
C3556 C3550 1.368 . S
C3556 C3555 1.523 . S
C3557 C3541 1.429 . S
C3557 C3553 1.429 . S
C3557 C3558 1.523 . S
C3558 C3542 1.368 . S
C3558 C3554 1.368 . S
C3558 C3557 1.523 . S
H3559 C3534 0.950 . S
H3560 C3536 0.950 . S
H3561 C3537 0.949 . S
H3562 C3539 0.950 . S
H3563 C3541 0.950 . S
C3564 C3565 1.349 . S
C3564 C3566 1.327 . S
C3564 H3589 0.950 . S
C3565 C3564 1.349 . S
C3565 C3581 1.349 . S
C3566 C3564 1.327 . S
C3566 C3585 1.429 . S
C3566 H3590 0.950 . S
C3567 C3584 1.574 . S
C3567 C3586 1.368 . S
C3567 H3591 0.949 . S
H3568 C3572 0.949 . S
C3569 C3570 1.349 . S
C3569 C3571 1.327 . S
C3569 H3592 0.950 . S
C3570 C3569 1.349 . S
C3570 C3582 1.349 . S
C3571 C3569 1.327 . S
C3571 C3587 1.429 . S
C3571 H3593 0.950 . S
C3572 H3568 0.949 . S
C3572 C3580 1.574 . S
C3572 C3588 1.368 . S
H3573 C3581 0.950 . S
H3574 C3579 0.950 . S
H3575 C3580 0.949 . S
H3576 C3582 0.950 . S
H3577 C3583 0.950 . S
H3578 C3584 0.949 . S
C3579 H3574 0.950 . S
C3579 C3581 1.327 . S
C3579 C3585 1.429 . S
C3580 C3572 1.574 . S
C3580 H3575 0.949 . S
C3580 C3586 1.368 . S
C3581 C3565 1.349 . S
C3581 H3573 0.950 . S
C3581 C3579 1.327 . S
C3582 C3570 1.349 . S
C3582 H3576 0.950 . S
C3582 C3583 1.327 . S
C3583 H3577 0.950 . S
C3583 C3582 1.327 . S
C3583 C3587 1.429 . S
C3584 C3567 1.574 . S
C3584 H3578 0.949 . S
C3584 C3588 1.368 . S
C3585 C3566 1.429 . S
C3585 C3579 1.429 . S
C3585 C3586 1.523 . S
C3586 C3567 1.368 . S
C3586 C3580 1.368 . S
C3586 C3585 1.523 . S
C3587 C3571 1.429 . S
C3587 C3583 1.429 . S
C3587 C3588 1.523 . S
C3588 C3572 1.368 . S
C3588 C3584 1.368 . S
C3588 C3587 1.523 . S
H3589 C3564 0.950 . S
H3590 C3566 0.950 . S
H3591 C3567 0.949 . S
H3592 C3569 0.950 . S
H3593 C3571 0.950 . S
C3594 C3595 1.349 . S
C3594 C3596 1.327 . S
C3594 H3619 0.950 . S
C3595 C3594 1.349 . S
C3595 C3611 1.349 . S
C3596 C3594 1.327 . S
C3596 C3615 1.429 . S
C3596 H3620 0.950 . S
C3597 C3614 1.574 . S
C3597 C3616 1.368 . S
C3597 H3621 0.949 . S
H3598 C3602 0.949 . S
C3599 C3600 1.349 . S
C3599 C3601 1.327 . S
C3599 H3622 0.950 . S
C3600 C3599 1.349 . S
C3600 C3612 1.349 . S
C3601 C3599 1.327 . S
C3601 C3617 1.429 . S
C3601 H3623 0.950 . S
C3602 H3598 0.949 . S
C3602 C3610 1.574 . S
C3602 C3618 1.368 . S
H3603 C3611 0.950 . S
H3604 C3609 0.950 . S
H3605 C3610 0.949 . S
H3606 C3612 0.950 . S
H3607 C3613 0.950 . S
H3608 C3614 0.949 . S
C3609 H3604 0.950 . S
C3609 C3611 1.327 . S
C3609 C3615 1.429 . S
C3610 C3602 1.574 . S
C3610 H3605 0.949 . S
C3610 C3616 1.368 . S
C3611 C3595 1.349 . S
C3611 H3603 0.950 . S
C3611 C3609 1.327 . S
C3612 C3600 1.349 . S
C3612 H3606 0.950 . S
C3612 C3613 1.327 . S
C3613 H3607 0.950 . S
C3613 C3612 1.327 . S
C3613 C3617 1.429 . S
C3614 C3597 1.574 . S
C3614 H3608 0.949 . S
C3614 C3618 1.368 . S
C3615 C3596 1.429 . S
C3615 C3609 1.429 . S
C3615 C3616 1.523 . S
C3616 C3597 1.368 . S
C3616 C3610 1.368 . S
C3616 C3615 1.523 . S
C3617 C3601 1.429 . S
C3617 C3613 1.429 . S
C3617 C3618 1.523 . S
C3618 C3602 1.368 . S
C3618 C3614 1.368 . S
C3618 C3617 1.523 . S
H3619 C3594 0.950 . S
H3620 C3596 0.950 . S
H3621 C3597 0.949 . S
H3622 C3599 0.950 . S
H3623 C3601 0.950 . S
C3624 C3625 1.349 . S
C3624 C3626 1.327 . S
C3624 H3649 0.950 . S
C3625 C3624 1.349 . S
C3625 C3641 1.349 . S
C3626 C3624 1.327 . S
C3626 C3645 1.429 . S
C3626 H3650 0.950 . S
C3627 C3644 1.574 . S
C3627 C3646 1.368 . S
C3627 H3651 0.949 . S
H3628 C3632 0.949 . S
C3629 C3630 1.349 . S
C3629 C3631 1.327 . S
C3629 H3652 0.950 . S
C3630 C3629 1.349 . S
C3630 C3642 1.349 . S
C3631 C3629 1.327 . S
C3631 C3647 1.429 . S
C3631 H3653 0.950 . S
C3632 H3628 0.949 . S
C3632 C3640 1.574 . S
C3632 C3648 1.368 . S
H3633 C3641 0.950 . S
H3634 C3639 0.950 . S
H3635 C3640 0.949 . S
H3636 C3642 0.950 . S
H3637 C3643 0.950 . S
H3638 C3644 0.949 . S
C3639 H3634 0.950 . S
C3639 C3641 1.327 . S
C3639 C3645 1.429 . S
C3640 C3632 1.574 . S
C3640 H3635 0.949 . S
C3640 C3646 1.368 . S
C3641 C3625 1.349 . S
C3641 H3633 0.950 . S
C3641 C3639 1.327 . S
C3642 C3630 1.349 . S
C3642 H3636 0.950 . S
C3642 C3643 1.327 . S
C3643 H3637 0.950 . S
C3643 C3642 1.327 . S
C3643 C3647 1.429 . S
C3644 C3627 1.574 . S
C3644 H3638 0.949 . S
C3644 C3648 1.368 . S
C3645 C3626 1.429 . S
C3645 C3639 1.429 . S
C3645 C3646 1.523 . S
C3646 C3627 1.368 . S
C3646 C3640 1.368 . S
C3646 C3645 1.523 . S
C3647 C3631 1.429 . S
C3647 C3643 1.429 . S
C3647 C3648 1.523 . S
C3648 C3632 1.368 . S
C3648 C3644 1.368 . S
C3648 C3647 1.523 . S
H3649 C3624 0.950 . S
H3650 C3626 0.950 . S
H3651 C3627 0.949 . S
H3652 C3629 0.950 . S
H3653 C3631 0.950 . S
C3654 C3655 1.349 . S
C3654 C3656 1.327 . S
C3654 H3679 0.950 . S
C3655 C3654 1.349 . S
C3655 C3671 1.349 . S
C3656 C3654 1.327 . S
C3656 C3675 1.429 . S
C3656 H3680 0.950 . S
C3657 C3674 1.574 . S
C3657 C3676 1.368 . S
C3657 H3681 0.949 . S
H3658 C3662 0.949 . S
C3659 C3660 1.349 . S
C3659 C3661 1.327 . S
C3659 H3682 0.950 . S
C3660 C3659 1.349 . S
C3660 C3672 1.349 . S
C3661 C3659 1.327 . S
C3661 C3677 1.429 . S
C3661 H3683 0.950 . S
C3662 H3658 0.949 . S
C3662 C3670 1.574 . S
C3662 C3678 1.368 . S
H3663 C3671 0.950 . S
H3664 C3669 0.950 . S
H3665 C3670 0.949 . S
H3666 C3672 0.950 . S
H3667 C3673 0.950 . S
H3668 C3674 0.949 . S
C3669 H3664 0.950 . S
C3669 C3671 1.327 . S
C3669 C3675 1.429 . S
C3670 C3662 1.574 . S
C3670 H3665 0.949 . S
C3670 C3676 1.368 . S
C3671 C3655 1.349 . S
C3671 H3663 0.950 . S
C3671 C3669 1.327 . S
C3672 C3660 1.349 . S
C3672 H3666 0.950 . S
C3672 C3673 1.327 . S
C3673 H3667 0.950 . S
C3673 C3672 1.327 . S
C3673 C3677 1.429 . S
C3674 C3657 1.574 . S
C3674 H3668 0.949 . S
C3674 C3678 1.368 . S
C3675 C3656 1.429 . S
C3675 C3669 1.429 . S
C3675 C3676 1.523 . S
C3676 C3657 1.368 . S
C3676 C3670 1.368 . S
C3676 C3675 1.523 . S
C3677 C3661 1.429 . S
C3677 C3673 1.429 . S
C3677 C3678 1.523 . S
C3678 C3662 1.368 . S
C3678 C3674 1.368 . S
C3678 C3677 1.523 . S
H3679 C3654 0.950 . S
H3680 C3656 0.950 . S
H3681 C3657 0.949 . S
H3682 C3659 0.950 . S
H3683 C3661 0.950 . S
C3684 C3685 1.349 . S
C3684 C3686 1.327 . S
C3684 H3709 0.950 . S
C3685 C3684 1.349 . S
C3685 C3701 1.349 . S
C3686 C3684 1.327 . S
C3686 C3705 1.429 . S
C3686 H3710 0.950 . S
C3687 C3704 1.574 . S
C3687 C3706 1.368 . S
C3687 H3711 0.949 . S
H3688 C3692 0.949 . S
C3689 C3690 1.349 . S
C3689 C3691 1.327 . S
C3689 H3712 0.950 . S
C3690 C3689 1.349 . S
C3690 C3702 1.349 . S
C3691 C3689 1.327 . S
C3691 C3707 1.429 . S
C3691 H3713 0.950 . S
C3692 H3688 0.949 . S
C3692 C3700 1.574 . S
C3692 C3708 1.368 . S
H3693 C3701 0.950 . S
H3694 C3699 0.950 . S
H3695 C3700 0.949 . S
H3696 C3702 0.950 . S
H3697 C3703 0.950 . S
H3698 C3704 0.949 . S
C3699 H3694 0.950 . S
C3699 C3701 1.327 . S
C3699 C3705 1.429 . S
C3700 C3692 1.574 . S
C3700 H3695 0.949 . S
C3700 C3706 1.368 . S
C3701 C3685 1.349 . S
C3701 H3693 0.950 . S
C3701 C3699 1.327 . S
C3702 C3690 1.349 . S
C3702 H3696 0.950 . S
C3702 C3703 1.327 . S
C3703 H3697 0.950 . S
C3703 C3702 1.327 . S
C3703 C3707 1.429 . S
C3704 C3687 1.574 . S
C3704 H3698 0.949 . S
C3704 C3708 1.368 . S
C3705 C3686 1.429 . S
C3705 C3699 1.429 . S
C3705 C3706 1.523 . S
C3706 C3687 1.368 . S
C3706 C3700 1.368 . S
C3706 C3705 1.523 . S
C3707 C3691 1.429 . S
C3707 C3703 1.429 . S
C3707 C3708 1.523 . S
C3708 C3692 1.368 . S
C3708 C3704 1.368 . S
C3708 C3707 1.523 . S
H3709 C3684 0.950 . S
H3710 C3686 0.950 . S
H3711 C3687 0.949 . S
H3712 C3689 0.950 . S
H3713 C3691 0.950 . S
C3714 C3715 1.349 . S
C3714 C3716 1.327 . S
C3714 H3739 0.950 . S
C3715 C3714 1.349 . S
C3715 C3731 1.349 . S
C3716 C3714 1.327 . S
C3716 C3735 1.429 . S
C3716 H3740 0.950 . S
C3717 C3734 1.574 . S
C3717 C3736 1.368 . S
C3717 H3741 0.949 . S
H3718 C3722 0.949 . S
C3719 C3720 1.349 . S
C3719 C3721 1.327 . S
C3719 H3742 0.950 . S
C3720 C3719 1.349 . S
C3720 C3732 1.349 . S
C3721 C3719 1.327 . S
C3721 C3737 1.429 . S
C3721 H3743 0.950 . S
C3722 H3718 0.949 . S
C3722 C3730 1.574 . S
C3722 C3738 1.368 . S
H3723 C3731 0.950 . S
H3724 C3729 0.950 . S
H3725 C3730 0.949 . S
H3726 C3732 0.950 . S
H3727 C3733 0.950 . S
H3728 C3734 0.949 . S
C3729 H3724 0.950 . S
C3729 C3731 1.327 . S
C3729 C3735 1.429 . S
C3730 C3722 1.574 . S
C3730 H3725 0.949 . S
C3730 C3736 1.368 . S
C3731 C3715 1.349 . S
C3731 H3723 0.950 . S
C3731 C3729 1.327 . S
C3732 C3720 1.349 . S
C3732 H3726 0.950 . S
C3732 C3733 1.327 . S
C3733 H3727 0.950 . S
C3733 C3732 1.327 . S
C3733 C3737 1.429 . S
C3734 C3717 1.574 . S
C3734 H3728 0.949 . S
C3734 C3738 1.368 . S
C3735 C3716 1.429 . S
C3735 C3729 1.429 . S
C3735 C3736 1.523 . S
C3736 C3717 1.368 . S
C3736 C3730 1.368 . S
C3736 C3735 1.523 . S
C3737 C3721 1.429 . S
C3737 C3733 1.429 . S
C3737 C3738 1.523 . S
C3738 C3722 1.368 . S
C3738 C3734 1.368 . S
C3738 C3737 1.523 . S
H3739 C3714 0.950 . S
H3740 C3716 0.950 . S
H3741 C3717 0.949 . S
H3742 C3719 0.950 . S
H3743 C3721 0.950 . S
C3744 C3745 1.349 . S
C3744 C3746 1.327 . S
C3744 H3769 0.950 . S
C3745 C3744 1.349 . S
C3745 C3761 1.349 . S
C3746 C3744 1.327 . S
C3746 C3765 1.429 . S
C3746 H3770 0.950 . S
C3747 C3764 1.574 . S
C3747 C3766 1.368 . S
C3747 H3771 0.949 . S
H3748 C3752 0.949 . S
C3749 C3750 1.349 . S
C3749 C3751 1.327 . S
C3749 H3772 0.950 . S
C3750 C3749 1.349 . S
C3750 C3762 1.349 . S
C3751 C3749 1.327 . S
C3751 C3767 1.429 . S
C3751 H3773 0.950 . S
C3752 H3748 0.949 . S
C3752 C3760 1.574 . S
C3752 C3768 1.368 . S
H3753 C3761 0.950 . S
H3754 C3759 0.950 . S
H3755 C3760 0.949 . S
H3756 C3762 0.950 . S
H3757 C3763 0.950 . S
H3758 C3764 0.949 . S
C3759 H3754 0.950 . S
C3759 C3761 1.327 . S
C3759 C3765 1.429 . S
C3760 C3752 1.574 . S
C3760 H3755 0.949 . S
C3760 C3766 1.368 . S
C3761 C3745 1.349 . S
C3761 H3753 0.950 . S
C3761 C3759 1.327 . S
C3762 C3750 1.349 . S
C3762 H3756 0.950 . S
C3762 C3763 1.327 . S
C3763 H3757 0.950 . S
C3763 C3762 1.327 . S
C3763 C3767 1.429 . S
C3764 C3747 1.574 . S
C3764 H3758 0.949 . S
C3764 C3768 1.368 . S
C3765 C3746 1.429 . S
C3765 C3759 1.429 . S
C3765 C3766 1.523 . S
C3766 C3747 1.368 . S
C3766 C3760 1.368 . S
C3766 C3765 1.523 . S
C3767 C3751 1.429 . S
C3767 C3763 1.429 . S
C3767 C3768 1.523 . S
C3768 C3752 1.368 . S
C3768 C3764 1.368 . S
C3768 C3767 1.523 . S
H3769 C3744 0.950 . S
H3770 C3746 0.950 . S
H3771 C3747 0.949 . S
H3772 C3749 0.950 . S
H3773 C3751 0.950 . S
C3774 C3775 1.349 . S
C3774 C3776 1.327 . S
C3774 H3799 0.950 . S
C3775 C3774 1.349 . S
C3775 C3791 1.349 . S
C3776 C3774 1.327 . S
C3776 C3795 1.429 . S
C3776 H3800 0.950 . S
C3777 C3794 1.574 . S
C3777 C3796 1.368 . S
C3777 H3801 0.949 . S
H3778 C3782 0.949 . S
C3779 C3780 1.349 . S
C3779 C3781 1.327 . S
C3779 H3802 0.950 . S
C3780 C3779 1.349 . S
C3780 C3792 1.349 . S
C3781 C3779 1.327 . S
C3781 C3797 1.429 . S
C3781 H3803 0.950 . S
C3782 H3778 0.949 . S
C3782 C3790 1.574 . S
C3782 C3798 1.368 . S
H3783 C3791 0.950 . S
H3784 C3789 0.950 . S
H3785 C3790 0.949 . S
H3786 C3792 0.950 . S
H3787 C3793 0.950 . S
H3788 C3794 0.949 . S
C3789 H3784 0.950 . S
C3789 C3791 1.327 . S
C3789 C3795 1.429 . S
C3790 C3782 1.574 . S
C3790 H3785 0.949 . S
C3790 C3796 1.368 . S
C3791 C3775 1.349 . S
C3791 H3783 0.950 . S
C3791 C3789 1.327 . S
C3792 C3780 1.349 . S
C3792 H3786 0.950 . S
C3792 C3793 1.327 . S
C3793 H3787 0.950 . S
C3793 C3792 1.327 . S
C3793 C3797 1.429 . S
C3794 C3777 1.574 . S
C3794 H3788 0.949 . S
C3794 C3798 1.368 . S
C3795 C3776 1.429 . S
C3795 C3789 1.429 . S
C3795 C3796 1.523 . S
C3796 C3777 1.368 . S
C3796 C3790 1.368 . S
C3796 C3795 1.523 . S
C3797 C3781 1.429 . S
C3797 C3793 1.429 . S
C3797 C3798 1.523 . S
C3798 C3782 1.368 . S
C3798 C3794 1.368 . S
C3798 C3797 1.523 . S
H3799 C3774 0.950 . S
H3800 C3776 0.950 . S
H3801 C3777 0.949 . S
H3802 C3779 0.950 . S
H3803 C3781 0.950 . S
C3804 C3805 1.349 . S
C3804 C3806 1.327 . S
C3804 H3829 0.950 . S
C3805 C3804 1.349 . S
C3805 C3821 1.349 . S
C3806 C3804 1.327 . S
C3806 C3825 1.429 . S
C3806 H3830 0.950 . S
C3807 C3824 1.574 . S
C3807 C3826 1.368 . S
C3807 H3831 0.949 . S
H3808 C3812 0.949 . S
C3809 C3810 1.349 . S
C3809 C3811 1.327 . S
C3809 H3832 0.950 . S
C3810 C3809 1.349 . S
C3810 C3822 1.349 . S
C3811 C3809 1.327 . S
C3811 C3827 1.429 . S
C3811 H3833 0.950 . S
C3812 H3808 0.949 . S
C3812 C3820 1.574 . S
C3812 C3828 1.368 . S
H3813 C3821 0.950 . S
H3814 C3819 0.950 . S
H3815 C3820 0.949 . S
H3816 C3822 0.950 . S
H3817 C3823 0.950 . S
H3818 C3824 0.949 . S
C3819 H3814 0.950 . S
C3819 C3821 1.327 . S
C3819 C3825 1.429 . S
C3820 C3812 1.574 . S
C3820 H3815 0.949 . S
C3820 C3826 1.368 . S
C3821 C3805 1.349 . S
C3821 H3813 0.950 . S
C3821 C3819 1.327 . S
C3822 C3810 1.349 . S
C3822 H3816 0.950 . S
C3822 C3823 1.327 . S
C3823 H3817 0.950 . S
C3823 C3822 1.327 . S
C3823 C3827 1.429 . S
C3824 C3807 1.574 . S
C3824 H3818 0.949 . S
C3824 C3828 1.368 . S
C3825 C3806 1.429 . S
C3825 C3819 1.429 . S
C3825 C3826 1.523 . S
C3826 C3807 1.368 . S
C3826 C3820 1.368 . S
C3826 C3825 1.523 . S
C3827 C3811 1.429 . S
C3827 C3823 1.429 . S
C3827 C3828 1.523 . S
C3828 C3812 1.368 . S
C3828 C3824 1.368 . S
C3828 C3827 1.523 . S
H3829 C3804 0.950 . S
H3830 C3806 0.950 . S
H3831 C3807 0.949 . S
H3832 C3809 0.950 . S
H3833 C3811 0.950 . S
C3834 C3835 1.349 . S
C3834 C3836 1.327 . S
C3834 H3859 0.950 . S
C3835 C3834 1.349 . S
C3835 C3851 1.349 . S
C3836 C3834 1.327 . S
C3836 C3855 1.429 . S
C3836 H3860 0.950 . S
C3837 C3854 1.574 . S
C3837 C3856 1.368 . S
C3837 H3861 0.949 . S
H3838 C3842 0.949 . S
C3839 C3840 1.349 . S
C3839 C3841 1.327 . S
C3839 H3862 0.950 . S
C3840 C3839 1.349 . S
C3840 C3852 1.349 . S
C3841 C3839 1.327 . S
C3841 C3857 1.429 . S
C3841 H3863 0.950 . S
C3842 H3838 0.949 . S
C3842 C3850 1.574 . S
C3842 C3858 1.368 . S
H3843 C3851 0.950 . S
H3844 C3849 0.950 . S
H3845 C3850 0.949 . S
H3846 C3852 0.950 . S
H3847 C3853 0.950 . S
H3848 C3854 0.949 . S
C3849 H3844 0.950 . S
C3849 C3851 1.327 . S
C3849 C3855 1.429 . S
C3850 C3842 1.574 . S
C3850 H3845 0.949 . S
C3850 C3856 1.368 . S
C3851 C3835 1.349 . S
C3851 H3843 0.950 . S
C3851 C3849 1.327 . S
C3852 C3840 1.349 . S
C3852 H3846 0.950 . S
C3852 C3853 1.327 . S
C3853 H3847 0.950 . S
C3853 C3852 1.327 . S
C3853 C3857 1.429 . S
C3854 C3837 1.574 . S
C3854 H3848 0.949 . S
C3854 C3858 1.368 . S
C3855 C3836 1.429 . S
C3855 C3849 1.429 . S
C3855 C3856 1.523 . S
C3856 C3837 1.368 . S
C3856 C3850 1.368 . S
C3856 C3855 1.523 . S
C3857 C3841 1.429 . S
C3857 C3853 1.429 . S
C3857 C3858 1.523 . S
C3858 C3842 1.368 . S
C3858 C3854 1.368 . S
C3858 C3857 1.523 . S
H3859 C3834 0.950 . S
H3860 C3836 0.950 . S
H3861 C3837 0.949 . S
H3862 C3839 0.950 . S
H3863 C3841 0.950 . S
C3864 C3865 1.349 . S
C3864 C3866 1.327 . S
C3864 H3889 0.950 . S
C3865 C3864 1.349 . S
C3865 C3881 1.349 . S
C3866 C3864 1.327 . S
C3866 C3885 1.429 . S
C3866 H3890 0.950 . S
C3867 C3884 1.574 . S
C3867 C3886 1.368 . S
C3867 H3891 0.949 . S
H3868 C3872 0.949 . S
C3869 C3870 1.349 . S
C3869 C3871 1.327 . S
C3869 H3892 0.950 . S
C3870 C3869 1.349 . S
C3870 C3882 1.349 . S
C3871 C3869 1.327 . S
C3871 C3887 1.429 . S
C3871 H3893 0.950 . S
C3872 H3868 0.949 . S
C3872 C3880 1.574 . S
C3872 C3888 1.368 . S
H3873 C3881 0.950 . S
H3874 C3879 0.950 . S
H3875 C3880 0.949 . S
H3876 C3882 0.950 . S
H3877 C3883 0.950 . S
H3878 C3884 0.949 . S
C3879 H3874 0.950 . S
C3879 C3881 1.327 . S
C3879 C3885 1.429 . S
C3880 C3872 1.574 . S
C3880 H3875 0.949 . S
C3880 C3886 1.368 . S
C3881 C3865 1.349 . S
C3881 H3873 0.950 . S
C3881 C3879 1.327 . S
C3882 C3870 1.349 . S
C3882 H3876 0.950 . S
C3882 C3883 1.327 . S
C3883 H3877 0.950 . S
C3883 C3882 1.327 . S
C3883 C3887 1.429 . S
C3884 C3867 1.574 . S
C3884 H3878 0.949 . S
C3884 C3888 1.368 . S
C3885 C3866 1.429 . S
C3885 C3879 1.429 . S
C3885 C3886 1.523 . S
C3886 C3867 1.368 . S
C3886 C3880 1.368 . S
C3886 C3885 1.523 . S
C3887 C3871 1.429 . S
C3887 C3883 1.429 . S
C3887 C3888 1.523 . S
C3888 C3872 1.368 . S
C3888 C3884 1.368 . S
C3888 C3887 1.523 . S
H3889 C3864 0.950 . S
H3890 C3866 0.950 . S
H3891 C3867 0.949 . S
H3892 C3869 0.950 . S
H3893 C3871 0.950 . S
C3894 C3895 1.349 . S
C3894 C3896 1.327 . S
C3894 H3919 0.950 . S
C3895 C3894 1.349 . S
C3895 C3911 1.349 . S
C3896 C3894 1.327 . S
C3896 C3915 1.429 . S
C3896 H3920 0.950 . S
C3897 C3914 1.574 . S
C3897 C3916 1.368 . S
C3897 H3921 0.949 . S
H3898 C3902 0.949 . S
C3899 C3900 1.349 . S
C3899 C3901 1.327 . S
C3899 H3922 0.950 . S
C3900 C3899 1.349 . S
C3900 C3912 1.349 . S
C3901 C3899 1.327 . S
C3901 C3917 1.429 . S
C3901 H3923 0.950 . S
C3902 H3898 0.949 . S
C3902 C3910 1.574 . S
C3902 C3918 1.368 . S
H3903 C3911 0.950 . S
H3904 C3909 0.950 . S
H3905 C3910 0.949 . S
H3906 C3912 0.950 . S
H3907 C3913 0.950 . S
H3908 C3914 0.949 . S
C3909 H3904 0.950 . S
C3909 C3911 1.327 . S
C3909 C3915 1.429 . S
C3910 C3902 1.574 . S
C3910 H3905 0.949 . S
C3910 C3916 1.368 . S
C3911 C3895 1.349 . S
C3911 H3903 0.950 . S
C3911 C3909 1.327 . S
C3912 C3900 1.349 . S
C3912 H3906 0.950 . S
C3912 C3913 1.327 . S
C3913 H3907 0.950 . S
C3913 C3912 1.327 . S
C3913 C3917 1.429 . S
C3914 C3897 1.574 . S
C3914 H3908 0.949 . S
C3914 C3918 1.368 . S
C3915 C3896 1.429 . S
C3915 C3909 1.429 . S
C3915 C3916 1.523 . S
C3916 C3897 1.368 . S
C3916 C3910 1.368 . S
C3916 C3915 1.523 . S
C3917 C3901 1.429 . S
C3917 C3913 1.429 . S
C3917 C3918 1.523 . S
C3918 C3902 1.368 . S
C3918 C3914 1.368 . S
C3918 C3917 1.523 . S
H3919 C3894 0.950 . S
H3920 C3896 0.950 . S
H3921 C3897 0.949 . S
H3922 C3899 0.950 . S
H3923 C3901 0.950 . S
C3924 C3925 1.349 . S
C3924 C3926 1.327 . S
C3924 H3949 0.950 . S
C3925 C3924 1.349 . S
C3925 C3941 1.349 . S
C3926 C3924 1.327 . S
C3926 C3945 1.429 . S
C3926 H3950 0.950 . S
C3927 C3944 1.574 . S
C3927 C3946 1.368 . S
C3927 H3951 0.949 . S
H3928 C3932 0.949 . S
C3929 C3930 1.349 . S
C3929 C3931 1.327 . S
C3929 H3952 0.950 . S
C3930 C3929 1.349 . S
C3930 C3942 1.349 . S
C3931 C3929 1.327 . S
C3931 C3947 1.429 . S
C3931 H3953 0.950 . S
C3932 H3928 0.949 . S
C3932 C3940 1.574 . S
C3932 C3948 1.368 . S
H3933 C3941 0.950 . S
H3934 C3939 0.950 . S
H3935 C3940 0.949 . S
H3936 C3942 0.950 . S
H3937 C3943 0.950 . S
H3938 C3944 0.949 . S
C3939 H3934 0.950 . S
C3939 C3941 1.327 . S
C3939 C3945 1.429 . S
C3940 C3932 1.574 . S
C3940 H3935 0.949 . S
C3940 C3946 1.368 . S
C3941 C3925 1.349 . S
C3941 H3933 0.950 . S
C3941 C3939 1.327 . S
C3942 C3930 1.349 . S
C3942 H3936 0.950 . S
C3942 C3943 1.327 . S
C3943 H3937 0.950 . S
C3943 C3942 1.327 . S
C3943 C3947 1.429 . S
C3944 C3927 1.574 . S
C3944 H3938 0.949 . S
C3944 C3948 1.368 . S
C3945 C3926 1.429 . S
C3945 C3939 1.429 . S
C3945 C3946 1.523 . S
C3946 C3927 1.368 . S
C3946 C3940 1.368 . S
C3946 C3945 1.523 . S
C3947 C3931 1.429 . S
C3947 C3943 1.429 . S
C3947 C3948 1.523 . S
C3948 C3932 1.368 . S
C3948 C3944 1.368 . S
C3948 C3947 1.523 . S
H3949 C3924 0.950 . S
H3950 C3926 0.950 . S
H3951 C3927 0.949 . S
H3952 C3929 0.950 . S
H3953 C3931 0.950 . S
C3954 C3955 1.349 . S
C3954 C3956 1.327 . S
C3954 H3979 0.950 . S
C3955 C3954 1.349 . S
C3955 C3971 1.349 . S
C3956 C3954 1.327 . S
C3956 C3975 1.429 . S
C3956 H3980 0.950 . S
C3957 C3974 1.574 . S
C3957 C3976 1.368 . S
C3957 H3981 0.949 . S
H3958 C3962 0.949 . S
C3959 C3960 1.349 . S
C3959 C3961 1.327 . S
C3959 H3982 0.950 . S
C3960 C3959 1.349 . S
C3960 C3972 1.349 . S
C3961 C3959 1.327 . S
C3961 C3977 1.429 . S
C3961 H3983 0.950 . S
C3962 H3958 0.949 . S
C3962 C3970 1.574 . S
C3962 C3978 1.368 . S
H3963 C3971 0.950 . S
H3964 C3969 0.950 . S
H3965 C3970 0.949 . S
H3966 C3972 0.950 . S
H3967 C3973 0.950 . S
H3968 C3974 0.949 . S
C3969 H3964 0.950 . S
C3969 C3971 1.327 . S
C3969 C3975 1.429 . S
C3970 C3962 1.574 . S
C3970 H3965 0.949 . S
C3970 C3976 1.368 . S
C3971 C3955 1.349 . S
C3971 H3963 0.950 . S
C3971 C3969 1.327 . S
C3972 C3960 1.349 . S
C3972 H3966 0.950 . S
C3972 C3973 1.327 . S
C3973 H3967 0.950 . S
C3973 C3972 1.327 . S
C3973 C3977 1.429 . S
C3974 C3957 1.574 . S
C3974 H3968 0.949 . S
C3974 C3978 1.368 . S
C3975 C3956 1.429 . S
C3975 C3969 1.429 . S
C3975 C3976 1.523 . S
C3976 C3957 1.368 . S
C3976 C3970 1.368 . S
C3976 C3975 1.523 . S
C3977 C3961 1.429 . S
C3977 C3973 1.429 . S
C3977 C3978 1.523 . S
C3978 C3962 1.368 . S
C3978 C3974 1.368 . S
C3978 C3977 1.523 . S
H3979 C3954 0.950 . S
H3980 C3956 0.950 . S
H3981 C3957 0.949 . S
H3982 C3959 0.950 . S
H3983 C3961 0.950 . S
C3984 C3985 1.349 . S
C3984 C3986 1.327 . S
C3984 H4009 0.950 . S
C3985 C3984 1.349 . S
C3985 C4001 1.349 . S
C3986 C3984 1.327 . S
C3986 C4005 1.429 . S
C3986 H4010 0.950 . S
C3987 C4004 1.574 . S
C3987 C4006 1.368 . S
C3987 H4011 0.949 . S
H3988 C3992 0.949 . S
C3989 C3990 1.349 . S
C3989 C3991 1.327 . S
C3989 H4012 0.950 . S
C3990 C3989 1.349 . S
C3990 C4002 1.349 . S
C3991 C3989 1.327 . S
C3991 C4007 1.429 . S
C3991 H4013 0.950 . S
C3992 H3988 0.949 . S
C3992 C4000 1.574 . S
C3992 C4008 1.368 . S
H3993 C4001 0.944 . S
H3994 C3999 0.950 . S
H3995 C4000 0.949 . S
H3996 C4002 0.950 . S
H3997 C4003 0.950 . S
H3998 C4004 0.949 . S
C3999 H3994 0.950 . S
C3999 C4001 1.327 . S
C3999 C4005 1.429 . S
C4000 C3992 1.574 . S
C4000 H3995 0.949 . S
C4000 C4006 1.368 . S
C4001 C3985 1.349 . S
C4001 H3993 0.944 . S
C4001 C3999 1.327 . S
C4002 C3990 1.349 . S
C4002 H3996 0.950 . S
C4002 C4003 1.327 . S
C4003 H3997 0.950 . S
C4003 C4002 1.327 . S
C4003 C4007 1.429 . S
C4004 C3987 1.574 . S
C4004 H3998 0.949 . S
C4004 C4008 1.368 . S
C4005 C3986 1.429 . S
C4005 C3999 1.429 . S
C4005 C4006 1.523 . S
C4006 C3987 1.368 . S
C4006 C4000 1.368 . S
C4006 C4005 1.523 . S
C4007 C3991 1.429 . S
C4007 C4003 1.429 . S
C4007 C4008 1.523 . S
C4008 C3992 1.368 . S
C4008 C4004 1.368 . S
C4008 C4007 1.523 . S
H4009 C3984 0.950 . S
H4010 C3986 0.950 . S
H4011 C3987 0.949 . S
H4012 C3989 0.950 . S
H4013 C3991 0.950 . S
C4014 C4015 1.349 . S
C4014 C4016 1.327 . S
C4014 H4039 0.950 . S
C4015 C4014 1.349 . S
C4015 C4031 1.349 . S
C4016 C4014 1.327 . S
C4016 C4035 1.429 . S
C4016 H4040 0.950 . S
C4017 C4034 1.574 . S
C4017 C4036 1.368 . S
C4017 H4041 0.949 . S
H4018 C4022 0.949 . S
C4019 C4020 1.349 . S
C4019 C4021 1.327 . S
C4019 H4042 0.950 . S
C4020 C4019 1.349 . S
C4020 C4032 1.349 . S
C4021 C4019 1.327 . S
C4021 C4037 1.429 . S
C4021 H4043 0.950 . S
C4022 H4018 0.949 . S
C4022 C4030 1.574 . S
C4022 C4038 1.368 . S
H4023 C4031 0.950 . S
H4024 C4029 0.950 . S
H4025 C4030 0.949 . S
H4026 C4032 0.950 . S
H4027 C4033 0.950 . S
H4028 C4034 0.949 . S
C4029 H4024 0.950 . S
C4029 C4031 1.327 . S
C4029 C4035 1.429 . S
C4030 C4022 1.574 . S
C4030 H4025 0.949 . S
C4030 C4036 1.368 . S
C4031 C4015 1.349 . S
C4031 H4023 0.950 . S
C4031 C4029 1.327 . S
C4032 C4020 1.349 . S
C4032 H4026 0.950 . S
C4032 C4033 1.327 . S
C4033 H4027 0.950 . S
C4033 C4032 1.327 . S
C4033 C4037 1.429 . S
C4034 C4017 1.574 . S
C4034 H4028 0.949 . S
C4034 C4038 1.368 . S
C4035 C4016 1.429 . S
C4035 C4029 1.429 . S
C4035 C4036 1.523 . S
C4036 C4017 1.368 . S
C4036 C4030 1.368 . S
C4036 C4035 1.523 . S
C4037 C4021 1.429 . S
C4037 C4033 1.429 . S
C4037 C4038 1.523 . S
C4038 C4022 1.368 . S
C4038 C4034 1.368 . S
C4038 C4037 1.523 . S
H4039 C4014 0.950 . S
H4040 C4016 0.950 . S
H4041 C4017 0.949 . S
H4042 C4019 0.950 . S
H4043 C4021 0.950 . S
C4044 C4045 1.349 . S
C4044 C4046 1.327 . S
C4044 H4069 0.950 . S
C4045 C4044 1.349 . S
C4045 C4061 1.349 . S
C4046 C4044 1.327 . S
C4046 C4065 1.429 . S
C4046 H4070 0.950 . S
C4047 C4064 1.574 . S
C4047 C4066 1.368 . S
C4047 H4071 0.949 . S
H4048 C4052 0.949 . S
C4049 C4050 1.349 . S
C4049 C4051 1.327 . S
C4049 H4072 0.950 . S
C4050 C4049 1.349 . S
C4050 C4062 1.349 . S
C4051 C4049 1.327 . S
C4051 C4067 1.429 . S
C4051 H4073 0.950 . S
C4052 H4048 0.949 . S
C4052 C4060 1.574 . S
C4052 C4068 1.368 . S
H4053 C4061 0.950 . S
H4054 C4059 0.950 . S
H4055 C4060 0.949 . S
H4056 C4062 0.950 . S
H4057 C4063 0.950 . S
H4058 C4064 0.949 . S
C4059 H4054 0.950 . S
C4059 C4061 1.327 . S
C4059 C4065 1.429 . S
C4060 C4052 1.574 . S
C4060 H4055 0.949 . S
C4060 C4066 1.368 . S
C4061 C4045 1.349 . S
C4061 H4053 0.950 . S
C4061 C4059 1.327 . S
C4062 C4050 1.349 . S
C4062 H4056 0.950 . S
C4062 C4063 1.327 . S
C4063 H4057 0.950 . S
C4063 C4062 1.327 . S
C4063 C4067 1.429 . S
C4064 C4047 1.574 . S
C4064 H4058 0.949 . S
C4064 C4068 1.368 . S
C4065 C4046 1.429 . S
C4065 C4059 1.429 . S
C4065 C4066 1.523 . S
C4066 C4047 1.368 . S
C4066 C4060 1.368 . S
C4066 C4065 1.523 . S
C4067 C4051 1.429 . S
C4067 C4063 1.429 . S
C4067 C4068 1.523 . S
C4068 C4052 1.368 . S
C4068 C4064 1.368 . S
C4068 C4067 1.523 . S
H4069 C4044 0.950 . S
H4070 C4046 0.950 . S
H4071 C4047 0.949 . S
H4072 C4049 0.950 . S
H4073 C4051 0.950 . S
C4074 C4075 1.349 . S
C4074 C4076 1.327 . S
C4074 H4099 0.950 . S
C4075 C4074 1.349 . S
C4075 C4091 1.349 . S
C4076 C4074 1.327 . S
C4076 C4095 1.429 . S
C4076 H4100 0.950 . S
C4077 C4094 1.574 . S
C4077 C4096 1.368 . S
C4077 H4101 0.949 . S
H4078 C4082 0.949 . S
C4079 C4080 1.349 . S
C4079 C4081 1.327 . S
C4079 H4102 0.950 . S
C4080 C4079 1.349 . S
C4080 C4092 1.349 . S
C4081 C4079 1.327 . S
C4081 C4097 1.429 . S
C4081 H4103 0.950 . S
C4082 H4078 0.949 . S
C4082 C4090 1.574 . S
C4082 C4098 1.368 . S
H4083 C4091 0.950 . S
H4084 C4089 0.950 . S
H4085 C4090 0.949 . S
H4086 C4092 0.950 . S
H4087 C4093 0.950 . S
H4088 C4094 0.949 . S
C4089 H4084 0.950 . S
C4089 C4091 1.327 . S
C4089 C4095 1.429 . S
C4090 C4082 1.574 . S
C4090 H4085 0.949 . S
C4090 C4096 1.368 . S
C4091 C4075 1.349 . S
C4091 H4083 0.950 . S
C4091 C4089 1.327 . S
C4092 C4080 1.349 . S
C4092 H4086 0.950 . S
C4092 C4093 1.327 . S
C4093 H4087 0.950 . S
C4093 C4092 1.327 . S
C4093 C4097 1.429 . S
C4094 C4077 1.574 . S
C4094 H4088 0.949 . S
C4094 C4098 1.368 . S
C4095 C4076 1.429 . S
C4095 C4089 1.429 . S
C4095 C4096 1.523 . S
C4096 C4077 1.368 . S
C4096 C4090 1.368 . S
C4096 C4095 1.523 . S
C4097 C4081 1.429 . S
C4097 C4093 1.429 . S
C4097 C4098 1.523 . S
C4098 C4082 1.368 . S
C4098 C4094 1.368 . S
C4098 C4097 1.523 . S
H4099 C4074 0.950 . S
H4100 C4076 0.950 . S
H4101 C4077 0.949 . S
H4102 C4079 0.950 . S
H4103 C4081 0.950 . S
C4104 C4105 1.349 . S
C4104 C4106 1.327 . S
C4104 H4129 0.950 . S
C4105 C4104 1.349 . S
C4105 C4121 1.349 . S
C4106 C4104 1.327 . S
C4106 C4125 1.429 . S
C4106 H4130 0.950 . S
C4107 C4124 1.574 . S
C4107 C4126 1.368 . S
C4107 H4131 0.949 . S
H4108 C4112 0.949 . S
C4109 C4110 1.349 . S
C4109 C4111 1.327 . S
C4109 H4132 0.950 . S
C4110 C4109 1.349 . S
C4110 C4122 1.349 . S
C4111 C4109 1.327 . S
C4111 C4127 1.429 . S
C4111 H4133 0.950 . S
C4112 H4108 0.949 . S
C4112 C4120 1.574 . S
C4112 C4128 1.368 . S
H4113 C4121 0.950 . S
H4114 C4119 0.950 . S
H4115 C4120 0.949 . S
H4116 C4122 0.950 . S
H4117 C4123 0.950 . S
H4118 C4124 0.949 . S
C4119 H4114 0.950 . S
C4119 C4121 1.327 . S
C4119 C4125 1.429 . S
C4120 C4112 1.574 . S
C4120 H4115 0.949 . S
C4120 C4126 1.368 . S
C4121 C4105 1.349 . S
C4121 H4113 0.950 . S
C4121 C4119 1.327 . S
C4122 C4110 1.349 . S
C4122 H4116 0.950 . S
C4122 C4123 1.327 . S
C4123 H4117 0.950 . S
C4123 C4122 1.327 . S
C4123 C4127 1.429 . S
C4124 C4107 1.574 . S
C4124 H4118 0.949 . S
C4124 C4128 1.368 . S
C4125 C4106 1.429 . S
C4125 C4119 1.429 . S
C4125 C4126 1.523 . S
C4126 C4107 1.368 . S
C4126 C4120 1.368 . S
C4126 C4125 1.523 . S
C4127 C4111 1.429 . S
C4127 C4123 1.429 . S
C4127 C4128 1.523 . S
C4128 C4112 1.368 . S
C4128 C4124 1.368 . S
C4128 C4127 1.523 . S
H4129 C4104 0.950 . S
H4130 C4106 0.950 . S
H4131 C4107 0.949 . S
H4132 C4109 0.950 . S
H4133 C4111 0.950 . S
C4134 C4135 1.349 . S
C4134 C4136 1.327 . S
C4134 H4159 0.950 . S
C4135 C4134 1.349 . S
C4135 C4151 1.349 . S
C4136 C4134 1.327 . S
C4136 C4155 1.429 . S
C4136 H4160 0.950 . S
C4137 C4154 1.574 . S
C4137 C4156 1.368 . S
C4137 H4161 0.949 . S
H4138 C4142 0.949 . S
C4139 C4140 1.349 . S
C4139 C4141 1.327 . S
C4139 H4162 0.950 . S
C4140 C4139 1.349 . S
C4140 C4152 1.349 . S
C4141 C4139 1.327 . S
C4141 C4157 1.429 . S
C4141 H4163 0.950 . S
C4142 H4138 0.949 . S
C4142 C4150 1.574 . S
C4142 C4158 1.368 . S
H4143 C4151 0.950 . S
H4144 C4149 0.950 . S
H4145 C4150 0.949 . S
H4146 C4152 0.950 . S
H4147 C4153 0.950 . S
H4148 C4154 0.949 . S
C4149 H4144 0.950 . S
C4149 C4151 1.327 . S
C4149 C4155 1.429 . S
C4150 C4142 1.574 . S
C4150 H4145 0.949 . S
C4150 C4156 1.368 . S
C4151 C4135 1.349 . S
C4151 H4143 0.950 . S
C4151 C4149 1.327 . S
C4152 C4140 1.349 . S
C4152 H4146 0.950 . S
C4152 C4153 1.327 . S
C4153 H4147 0.950 . S
C4153 C4152 1.327 . S
C4153 C4157 1.429 . S
C4154 C4137 1.574 . S
C4154 H4148 0.949 . S
C4154 C4158 1.368 . S
C4155 C4136 1.429 . S
C4155 C4149 1.429 . S
C4155 C4156 1.523 . S
C4156 C4137 1.368 . S
C4156 C4150 1.368 . S
C4156 C4155 1.523 . S
C4157 C4141 1.429 . S
C4157 C4153 1.429 . S
C4157 C4158 1.523 . S
C4158 C4142 1.368 . S
C4158 C4154 1.368 . S
C4158 C4157 1.523 . S
H4159 C4134 0.950 . S
H4160 C4136 0.950 . S
H4161 C4137 0.949 . S
H4162 C4139 0.950 . S
H4163 C4141 0.950 . S
C4164 C4165 1.342 1_556 S
C4164 C4166 1.327 . S
C4164 H4189 0.950 . S
C4165 C4164 1.342 1_554 S
C4165 C4181 1.335 1_554 S
C4166 C4164 1.327 . S
C4166 C4185 1.429 . S
C4166 H4190 0.950 . S
C4167 C4184 1.574 . S
C4167 C4186 1.368 . S
C4167 H4191 0.949 . S
H4168 C4172 0.949 . S
C4169 C4170 1.349 . S
C4169 C4171 1.327 . S
C4169 H4192 0.950 . S
C4170 C4169 1.349 . S
C4170 C4182 1.349 . S
C4171 C4169 1.327 . S
C4171 C4187 1.429 . S
C4171 H4193 0.950 . S
C4172 H4168 0.949 . S
C4172 C4180 1.574 . S
C4172 C4188 1.368 . S
H4173 C4181 0.981 . S
H4174 C4179 0.950 . S
H4175 C4180 0.949 . S
H4176 C4182 0.950 . S
H4177 C4183 0.950 . S
H4178 C4184 0.949 . S
C4179 H4174 0.950 . S
C4179 C4181 1.327 . S
C4179 C4185 1.429 . S
C4180 C4172 1.574 . S
C4180 H4175 0.949 . S
C4180 C4186 1.368 . S
C4181 C4165 1.335 1_556 S
C4181 H4173 0.981 . S
C4181 C4179 1.327 . S
C4182 C4170 1.349 . S
C4182 H4176 0.950 . S
C4182 C4183 1.327 . S
C4183 H4177 0.950 . S
C4183 C4182 1.327 . S
C4183 C4187 1.429 . S
C4184 C4167 1.574 . S
C4184 H4178 0.949 . S
C4184 C4188 1.368 . S
C4185 C4166 1.429 . S
C4185 C4179 1.429 . S
C4185 C4186 1.523 . S
C4186 C4167 1.368 . S
C4186 C4180 1.368 . S
C4186 C4185 1.523 . S
C4187 C4171 1.429 . S
C4187 C4183 1.429 . S
C4187 C4188 1.523 . S
C4188 C4172 1.368 . S
C4188 C4184 1.368 . S
C4188 C4187 1.523 . S
H4189 C4164 0.950 . S
H4190 C4166 0.950 . S
H4191 C4167 0.949 . S
H4192 C4169 0.950 . S
H4193 C4171 0.950 . S
C4194 C4195 1.349 . S
C4194 C4196 1.327 . S
C4194 H4219 0.950 . S
C4195 C4194 1.349 . S
C4195 C4211 1.349 . S
C4196 C4194 1.327 . S
C4196 C4215 1.429 . S
C4196 H4220 0.950 . S
C4197 C4214 1.574 . S
C4197 C4216 1.368 . S
C4197 H4221 0.949 . S
H4198 C4202 0.949 . S
C4199 C4200 1.349 . S
C4199 C4201 1.327 . S
C4199 H4222 0.950 . S
C4200 C4199 1.349 . S
C4200 C4212 1.349 . S
C4201 C4199 1.327 . S
C4201 C4217 1.429 . S
C4201 H4223 0.950 . S
C4202 H4198 0.949 . S
C4202 C4210 1.574 . S
C4202 C4218 1.368 . S
H4203 C4211 0.950 . S
H4204 C4209 0.950 . S
H4205 C4210 0.949 . S
H4206 C4212 0.950 . S
H4207 C4213 0.950 . S
H4208 C4214 0.949 . S
C4209 H4204 0.950 . S
C4209 C4211 1.327 . S
C4209 C4215 1.429 . S
C4210 C4202 1.574 . S
C4210 H4205 0.949 . S
C4210 C4216 1.368 . S
C4211 C4195 1.349 . S
C4211 H4203 0.950 . S
C4211 C4209 1.327 . S
C4212 C4200 1.349 . S
C4212 H4206 0.950 . S
C4212 C4213 1.327 . S
C4213 H4207 0.950 . S
C4213 C4212 1.327 . S
C4213 C4217 1.429 . S
C4214 C4197 1.574 . S
C4214 H4208 0.949 . S
C4214 C4218 1.368 . S
C4215 C4196 1.429 . S
C4215 C4209 1.429 . S
C4215 C4216 1.523 . S
C4216 C4197 1.368 . S
C4216 C4210 1.368 . S
C4216 C4215 1.523 . S
C4217 C4201 1.429 . S
C4217 C4213 1.429 . S
C4217 C4218 1.523 . S
C4218 C4202 1.368 . S
C4218 C4214 1.368 . S
C4218 C4217 1.523 . S
H4219 C4194 0.950 . S
H4220 C4196 0.950 . S
H4221 C4197 0.949 . S
H4222 C4199 0.950 . S
H4223 C4201 0.950 . S
C4224 C4225 1.349 1_455 S
C4224 C4226 1.327 . S
C4224 H4249 0.950 . S
C4225 C4224 1.349 1_655 S
C4225 C4241 1.349 . S
C4226 C4224 1.327 . S
C4226 C4245 1.429 . S
C4226 H4250 0.950 . S
C4227 C4244 1.574 . S
C4227 C4246 1.368 . S
C4227 H4251 0.949 . S
H4228 C4232 0.949 . S
C4229 C4230 1.349 . S
C4229 C4231 1.327 . S
C4229 H4252 0.950 . S
C4230 C4229 1.349 . S
C4230 C4242 1.349 . S
C4231 C4229 1.327 . S
C4231 C4247 1.429 . S
C4231 H4253 0.950 . S
C4232 H4228 0.949 . S
C4232 C4240 1.574 . S
C4232 C4248 1.368 . S
H4233 C4241 0.950 . S
H4234 C4239 0.950 . S
H4235 C4240 0.949 . S
H4236 C4242 0.950 . S
H4237 C4243 0.950 . S
H4238 C4244 0.949 . S
C4239 H4234 0.950 . S
C4239 C4241 1.327 . S
C4239 C4245 1.429 1_655 S
C4240 C4232 1.574 . S
C4240 H4235 0.949 . S
C4240 C4246 1.368 . S
C4241 C4225 1.349 . S
C4241 H4233 0.950 . S
C4241 C4239 1.327 . S
C4242 C4230 1.349 . S
C4242 H4236 0.950 . S
C4242 C4243 1.327 . S
C4243 H4237 0.950 . S
C4243 C4242 1.327 . S
C4243 C4247 1.429 . S
C4244 C4227 1.574 . S
C4244 H4238 0.949 . S
C4244 C4248 1.368 . S
C4245 C4226 1.429 . S
C4245 C4239 1.429 1_455 S
C4245 C4246 1.523 . S
C4246 C4227 1.368 . S
C4246 C4240 1.368 . S
C4246 C4245 1.523 . S
C4247 C4231 1.429 . S
C4247 C4243 1.429 . S
C4247 C4248 1.523 . S
C4248 C4232 1.368 . S
C4248 C4244 1.368 . S
C4248 C4247 1.523 . S
H4249 C4224 0.950 . S
H4250 C4226 0.950 . S
H4251 C4227 0.949 . S
H4252 C4229 0.950 . S
H4253 C4231 0.950 . S
C4254 C4255 1.349 . S
C4254 C4256 1.327 . S
C4254 H4279 0.950 . S
C4255 C4254 1.349 . S
C4255 C4271 1.349 . S
C4256 C4254 1.327 . S
C4256 C4275 1.429 . S
C4256 H4280 0.950 . S
C4257 C4274 1.574 . S
C4257 C4276 1.368 . S
C4257 H4281 0.949 . S
H4258 C4262 0.949 . S
C4259 C4260 1.349 . S
C4259 C4261 1.327 . S
C4259 H4282 0.950 . S
C4260 C4259 1.349 . S
C4260 C4272 1.349 . S
C4261 C4259 1.327 . S
C4261 C4277 1.429 . S
C4261 H4283 0.950 . S
C4262 H4258 0.949 . S
C4262 C4270 1.574 . S
C4262 C4278 1.368 . S
H4263 C4271 0.950 . S
H4264 C4269 0.950 . S
H4265 C4270 0.949 . S
H4266 C4272 0.950 . S
H4267 C4273 0.950 . S
H4268 C4274 0.949 . S
C4269 H4264 0.950 . S
C4269 C4271 1.327 . S
C4269 C4275 1.429 . S
C4270 C4262 1.574 . S
C4270 H4265 0.949 . S
C4270 C4276 1.368 . S
C4271 C4255 1.349 . S
C4271 H4263 0.950 . S
C4271 C4269 1.327 . S
C4272 C4260 1.349 . S
C4272 H4266 0.950 . S
C4272 C4273 1.327 . S
C4273 H4267 0.950 . S
C4273 C4272 1.327 . S
C4273 C4277 1.429 . S
C4274 C4257 1.574 . S
C4274 H4268 0.949 . S
C4274 C4278 1.368 . S
C4275 C4256 1.429 . S
C4275 C4269 1.429 . S
C4275 C4276 1.523 . S
C4276 C4257 1.368 . S
C4276 C4270 1.368 . S
C4276 C4275 1.523 . S
C4277 C4261 1.429 . S
C4277 C4273 1.429 . S
C4277 C4278 1.523 . S
C4278 C4262 1.368 . S
C4278 C4274 1.368 . S
C4278 C4277 1.523 . S
H4279 C4254 0.950 . S
H4280 C4256 0.950 . S
H4281 C4257 0.949 . S
H4282 C4259 0.950 . S
H4283 C4261 0.950 . S
C4284 C4285 1.349 . S
C4284 C4286 1.327 . S
C4284 H4309 0.950 . S
C4285 C4284 1.349 . S
C4285 C4301 1.349 . S
C4286 C4284 1.327 . S
C4286 C4305 1.429 . S
C4286 H4310 0.950 . S
C4287 C4304 1.574 . S
C4287 C4306 1.368 . S
C4287 H4311 0.949 . S
H4288 C4292 0.949 . S
C4289 C4290 1.349 . S
C4289 C4291 1.327 . S
C4289 H4312 0.950 . S
C4290 C4289 1.349 . S
C4290 C4302 1.349 . S
C4291 C4289 1.327 . S
C4291 C4307 1.429 . S
C4291 H4313 0.950 . S
C4292 H4288 0.949 . S
C4292 C4300 1.574 . S
C4292 C4308 1.368 . S
H4293 C4301 0.950 . S
H4294 C4299 0.950 . S
H4295 C4300 0.949 . S
H4296 C4302 0.950 . S
H4297 C4303 0.950 . S
H4298 C4304 0.949 . S
C4299 H4294 0.950 . S
C4299 C4301 1.327 . S
C4299 C4305 1.429 . S
C4300 C4292 1.574 . S
C4300 H4295 0.949 . S
C4300 C4306 1.368 . S
C4301 C4285 1.349 . S
C4301 H4293 0.950 . S
C4301 C4299 1.327 . S
C4302 C4290 1.349 . S
C4302 H4296 0.950 . S
C4302 C4303 1.327 . S
C4303 H4297 0.950 . S
C4303 C4302 1.327 . S
C4303 C4307 1.429 . S
C4304 C4287 1.574 . S
C4304 H4298 0.949 . S
C4304 C4308 1.368 . S
C4305 C4286 1.429 . S
C4305 C4299 1.429 . S
C4305 C4306 1.523 . S
C4306 C4287 1.368 . S
C4306 C4300 1.368 . S
C4306 C4305 1.523 . S
C4307 C4291 1.429 . S
C4307 C4303 1.429 . S
C4307 C4308 1.523 . S
C4308 C4292 1.368 . S
C4308 C4304 1.368 . S
C4308 C4307 1.523 . S
H4309 C4284 0.950 . S
H4310 C4286 0.950 . S
H4311 C4287 0.949 . S
H4312 C4289 0.950 . S
H4313 C4291 0.950 . S
C4314 C4315 1.349 . S
C4314 C4316 1.327 . S
C4314 H4339 0.950 . S
C4315 C4314 1.349 . S
C4315 C4331 1.349 . S
C4316 C4314 1.327 . S
C4316 C4335 1.429 . S
C4316 H4340 0.950 . S
C4317 C4334 1.574 . S
C4317 C4336 1.368 . S
C4317 H4341 0.949 . S
H4318 C4322 0.949 . S
C4319 C4320 1.349 . S
C4319 C4321 1.327 . S
C4319 H4342 0.950 . S
C4320 C4319 1.349 . S
C4320 C4332 1.349 . S
C4321 C4319 1.327 . S
C4321 C4337 1.429 . S
C4321 H4343 0.950 . S
C4322 H4318 0.949 . S
C4322 C4330 1.574 . S
C4322 C4338 1.368 . S
H4323 C4331 0.950 . S
H4324 C4329 0.950 . S
H4325 C4330 0.949 . S
H4326 C4332 0.950 . S
H4327 C4333 0.950 . S
H4328 C4334 0.949 . S
C4329 H4324 0.950 . S
C4329 C4331 1.327 . S
C4329 C4335 1.429 . S
C4330 C4322 1.574 . S
C4330 H4325 0.949 . S
C4330 C4336 1.368 . S
C4331 C4315 1.349 . S
C4331 H4323 0.950 . S
C4331 C4329 1.327 . S
C4332 C4320 1.349 . S
C4332 H4326 0.950 . S
C4332 C4333 1.327 . S
C4333 H4327 0.950 . S
C4333 C4332 1.327 . S
C4333 C4337 1.429 . S
C4334 C4317 1.574 . S
C4334 H4328 0.949 . S
C4334 C4338 1.368 . S
C4335 C4316 1.429 . S
C4335 C4329 1.429 . S
C4335 C4336 1.523 . S
C4336 C4317 1.368 . S
C4336 C4330 1.368 . S
C4336 C4335 1.523 . S
C4337 C4321 1.429 . S
C4337 C4333 1.429 . S
C4337 C4338 1.523 . S
C4338 C4322 1.368 . S
C4338 C4334 1.368 . S
C4338 C4337 1.523 . S
H4339 C4314 0.950 . S
H4340 C4316 0.950 . S
H4341 C4317 0.949 . S
H4342 C4319 0.950 . S
H4343 C4321 0.950 . S
C4344 C4345 1.349 . S
C4344 C4346 1.327 . S
C4344 H4369 0.950 . S
C4345 C4344 1.349 . S
C4345 C4361 1.349 . S
C4346 C4344 1.327 . S
C4346 C4365 1.429 . S
C4346 H4370 0.950 . S
C4347 C4364 1.574 . S
C4347 C4366 1.368 . S
C4347 H4371 0.949 . S
H4348 C4352 0.949 . S
C4349 C4350 1.349 . S
C4349 C4351 1.327 . S
C4349 H4372 0.950 . S
C4350 C4349 1.349 . S
C4350 C4362 1.349 . S
C4351 C4349 1.327 . S
C4351 C4367 1.429 . S
C4351 H4373 0.950 . S
C4352 H4348 0.949 . S
C4352 C4360 1.574 . S
C4352 C4368 1.368 . S
H4353 C4361 0.950 . S
H4354 C4359 0.950 . S
H4355 C4360 0.949 . S
H4356 C4362 0.950 . S
H4357 C4363 0.950 . S
H4358 C4364 0.949 . S
C4359 H4354 0.950 . S
C4359 C4361 1.327 . S
C4359 C4365 1.429 . S
C4360 C4352 1.574 . S
C4360 H4355 0.949 . S
C4360 C4366 1.368 . S
C4361 C4345 1.349 . S
C4361 H4353 0.950 . S
C4361 C4359 1.327 . S
C4362 C4350 1.349 . S
C4362 H4356 0.950 . S
C4362 C4363 1.327 . S
C4363 H4357 0.950 . S
C4363 C4362 1.327 . S
C4363 C4367 1.429 . S
C4364 C4347 1.574 . S
C4364 H4358 0.949 . S
C4364 C4368 1.368 . S
C4365 C4346 1.429 . S
C4365 C4359 1.429 . S
C4365 C4366 1.523 . S
C4366 C4347 1.368 . S
C4366 C4360 1.368 . S
C4366 C4365 1.523 . S
C4367 C4351 1.429 . S
C4367 C4363 1.429 . S
C4367 C4368 1.523 . S
C4368 C4352 1.368 . S
C4368 C4364 1.368 . S
C4368 C4367 1.523 . S
H4369 C4344 0.950 . S
H4370 C4346 0.950 . S
H4371 C4347 0.949 . S
H4372 C4349 0.950 . S
H4373 C4351 0.950 . S
C4374 C4375 1.349 . S
C4374 C4376 1.327 . S
C4374 H4399 0.950 . S
C4375 C4374 1.349 . S
C4375 C4391 1.349 . S
C4376 C4374 1.327 . S
C4376 C4395 1.429 . S
C4376 H4400 0.950 . S
C4377 C4394 1.574 . S
C4377 C4396 1.368 . S
C4377 H4401 0.949 . S
H4378 C4382 0.949 . S
C4379 C4380 1.349 . S
C4379 C4381 1.327 . S
C4379 H4402 0.950 . S
C4380 C4379 1.349 . S
C4380 C4392 1.349 . S
C4381 C4379 1.327 . S
C4381 C4397 1.429 . S
C4381 H4403 0.950 . S
C4382 H4378 0.949 . S
C4382 C4390 1.574 . S
C4382 C4398 1.368 . S
H4383 C4391 0.950 . S
H4384 C4389 0.950 . S
H4385 C4390 0.949 . S
H4386 C4392 0.950 . S
H4387 C4393 0.950 . S
H4388 C4394 0.949 . S
C4389 H4384 0.950 . S
C4389 C4391 1.327 . S
C4389 C4395 1.429 . S
C4390 C4382 1.574 . S
C4390 H4385 0.949 . S
C4390 C4396 1.368 . S
C4391 C4375 1.349 . S
C4391 H4383 0.950 . S
C4391 C4389 1.327 . S
C4392 C4380 1.349 . S
C4392 H4386 0.950 . S
C4392 C4393 1.327 . S
C4393 H4387 0.950 . S
C4393 C4392 1.327 . S
C4393 C4397 1.429 . S
C4394 C4377 1.574 . S
C4394 H4388 0.949 . S
C4394 C4398 1.368 . S
C4395 C4376 1.429 . S
C4395 C4389 1.429 . S
C4395 C4396 1.523 . S
C4396 C4377 1.368 . S
C4396 C4390 1.368 . S
C4396 C4395 1.523 . S
C4397 C4381 1.429 . S
C4397 C4393 1.429 . S
C4397 C4398 1.523 . S
C4398 C4382 1.368 . S
C4398 C4394 1.368 . S
C4398 C4397 1.523 . S
H4399 C4374 0.950 . S
H4400 C4376 0.950 . S
H4401 C4377 0.949 . S
H4402 C4379 0.950 . S
H4403 C4381 0.950 . S
C4404 C4405 1.349 . S
C4404 C4406 1.327 . S
C4404 H4429 0.950 . S
C4405 C4404 1.349 . S
C4405 C4421 1.349 . S
C4406 C4404 1.327 . S
C4406 C4425 1.429 . S
C4406 H4430 0.950 . S
C4407 C4424 1.574 . S
C4407 C4426 1.368 . S
C4407 H4431 0.949 . S
H4408 C4412 0.949 . S
C4409 C4410 1.349 . S
C4409 C4411 1.327 . S
C4409 H4432 0.950 . S
C4410 C4409 1.349 . S
C4410 C4422 1.349 . S
C4411 C4409 1.327 . S
C4411 C4427 1.429 . S
C4411 H4433 0.950 . S
C4412 H4408 0.949 . S
C4412 C4420 1.574 . S
C4412 C4428 1.368 . S
H4413 C4421 0.950 . S
H4414 C4419 0.950 . S
H4415 C4420 0.949 . S
H4416 C4422 0.950 . S
H4417 C4423 0.950 . S
H4418 C4424 0.949 . S
C4419 H4414 0.950 . S
C4419 C4421 1.327 . S
C4419 C4425 1.429 . S
C4420 C4412 1.574 . S
C4420 H4415 0.949 . S
C4420 C4426 1.368 . S
C4421 C4405 1.349 . S
C4421 H4413 0.950 . S
C4421 C4419 1.327 . S
C4422 C4410 1.349 . S
C4422 H4416 0.950 . S
C4422 C4423 1.327 . S
C4423 H4417 0.950 . S
C4423 C4422 1.327 . S
C4423 C4427 1.429 . S
C4424 C4407 1.574 . S
C4424 H4418 0.949 . S
C4424 C4428 1.368 . S
C4425 C4406 1.429 . S
C4425 C4419 1.429 . S
C4425 C4426 1.523 . S
C4426 C4407 1.368 . S
C4426 C4420 1.368 . S
C4426 C4425 1.523 . S
C4427 C4411 1.429 . S
C4427 C4423 1.429 . S
C4427 C4428 1.523 . S
C4428 C4412 1.368 . S
C4428 C4424 1.368 . S
C4428 C4427 1.523 . S
H4429 C4404 0.950 . S
H4430 C4406 0.950 . S
H4431 C4407 0.949 . S
H4432 C4409 0.950 . S
H4433 C4411 0.950 . S
C4434 C4435 1.349 . S
C4434 C4436 1.327 . S
C4434 H4459 0.950 . S
C4435 C4434 1.349 . S
C4435 C4451 1.349 . S
C4436 C4434 1.327 . S
C4436 C4455 1.429 . S
C4436 H4460 0.950 . S
C4437 C4454 1.574 . S
C4437 C4456 1.368 . S
C4437 H4461 0.949 . S
H4438 C4442 0.949 . S
C4439 C4440 1.349 . S
C4439 C4441 1.327 . S
C4439 H4462 0.950 . S
C4440 C4439 1.349 . S
C4440 C4452 1.349 . S
C4441 C4439 1.327 . S
C4441 C4457 1.429 . S
C4441 H4463 0.950 . S
C4442 H4438 0.949 . S
C4442 C4450 1.574 . S
C4442 C4458 1.368 . S
H4443 C4451 0.950 . S
H4444 C4449 0.950 . S
H4445 C4450 0.949 . S
H4446 C4452 0.950 . S
H4447 C4453 0.950 . S
H4448 C4454 0.949 . S
C4449 H4444 0.950 . S
C4449 C4451 1.327 . S
C4449 C4455 1.429 . S
C4450 C4442 1.574 . S
C4450 H4445 0.949 . S
C4450 C4456 1.368 . S
C4451 C4435 1.349 . S
C4451 H4443 0.950 . S
C4451 C4449 1.327 . S
C4452 C4440 1.349 . S
C4452 H4446 0.950 . S
C4452 C4453 1.327 . S
C4453 H4447 0.950 . S
C4453 C4452 1.327 . S
C4453 C4457 1.429 . S
C4454 C4437 1.574 . S
C4454 H4448 0.949 . S
C4454 C4458 1.368 . S
C4455 C4436 1.429 . S
C4455 C4449 1.429 . S
C4455 C4456 1.523 . S
C4456 C4437 1.368 . S
C4456 C4450 1.368 . S
C4456 C4455 1.523 . S
C4457 C4441 1.429 . S
C4457 C4453 1.429 . S
C4457 C4458 1.523 . S
C4458 C4442 1.368 . S
C4458 C4454 1.368 . S
C4458 C4457 1.523 . S
H4459 C4434 0.950 . S
H4460 C4436 0.950 . S
H4461 C4437 0.949 . S
H4462 C4439 0.950 . S
H4463 C4441 0.950 . S
C4464 C4465 1.349 . S
C4464 C4466 1.327 . S
C4464 H4489 0.950 . S
C4465 C4464 1.349 . S
C4465 C4481 1.349 . S
C4466 C4464 1.327 . S
C4466 C4485 1.429 . S
C4466 H4490 0.950 . S
C4467 C4484 1.574 . S
C4467 C4486 1.368 . S
C4467 H4491 0.949 . S
H4468 C4472 0.949 . S
C4469 C4470 1.349 . S
C4469 C4471 1.327 . S
C4469 H4492 0.950 . S
C4470 C4469 1.349 . S
C4470 C4482 1.349 . S
C4471 C4469 1.327 . S
C4471 C4487 1.429 . S
C4471 H4493 0.950 . S
C4472 H4468 0.949 . S
C4472 C4480 1.574 . S
C4472 C4488 1.368 . S
H4473 C4481 0.950 . S
H4474 C4479 0.950 . S
H4475 C4480 0.949 . S
H4476 C4482 0.950 . S
H4477 C4483 0.950 . S
H4478 C4484 0.949 . S
C4479 H4474 0.950 . S
C4479 C4481 1.327 . S
C4479 C4485 1.429 . S
C4480 C4472 1.574 . S
C4480 H4475 0.949 . S
C4480 C4486 1.368 . S
C4481 C4465 1.349 . S
C4481 H4473 0.950 . S
C4481 C4479 1.327 . S
C4482 C4470 1.349 . S
C4482 H4476 0.950 . S
C4482 C4483 1.327 . S
C4483 H4477 0.950 . S
C4483 C4482 1.327 . S
C4483 C4487 1.429 . S
C4484 C4467 1.574 . S
C4484 H4478 0.949 . S
C4484 C4488 1.368 . S
C4485 C4466 1.429 . S
C4485 C4479 1.429 . S
C4485 C4486 1.523 . S
C4486 C4467 1.368 . S
C4486 C4480 1.368 . S
C4486 C4485 1.523 . S
C4487 C4471 1.429 . S
C4487 C4483 1.429 . S
C4487 C4488 1.523 . S
C4488 C4472 1.368 . S
C4488 C4484 1.368 . S
C4488 C4487 1.523 . S
H4489 C4464 0.950 . S
H4490 C4466 0.950 . S
H4491 C4467 0.949 . S
H4492 C4469 0.950 . S
H4493 C4471 0.950 . S
C4494 C4495 1.349 . S
C4494 C4496 1.327 . S
C4494 H4519 0.950 . S
C4495 C4494 1.349 . S
C4495 C4511 1.349 . S
C4496 C4494 1.327 . S
C4496 C4515 1.429 . S
C4496 H4520 0.950 . S
C4497 C4514 1.574 . S
C4497 C4516 1.368 . S
C4497 H4521 0.949 . S
H4498 C4502 0.949 . S
C4499 C4500 1.349 . S
C4499 C4501 1.327 . S
C4499 H4522 0.950 . S
C4500 C4499 1.349 . S
C4500 C4512 1.349 . S
C4501 C4499 1.327 . S
C4501 C4517 1.429 . S
C4501 H4523 0.950 . S
C4502 H4498 0.949 . S
C4502 C4510 1.574 . S
C4502 C4518 1.368 . S
H4503 C4511 0.950 . S
H4504 C4509 0.950 . S
H4505 C4510 0.949 . S
H4506 C4512 0.950 . S
H4507 C4513 0.950 . S
H4508 C4514 0.949 . S
C4509 H4504 0.950 . S
C4509 C4511 1.327 . S
C4509 C4515 1.429 . S
C4510 C4502 1.574 . S
C4510 H4505 0.949 . S
C4510 C4516 1.368 . S
C4511 C4495 1.349 . S
C4511 H4503 0.950 . S
C4511 C4509 1.327 . S
C4512 C4500 1.349 . S
C4512 H4506 0.950 . S
C4512 C4513 1.327 . S
C4513 H4507 0.950 . S
C4513 C4512 1.327 . S
C4513 C4517 1.429 . S
C4514 C4497 1.574 . S
C4514 H4508 0.949 . S
C4514 C4518 1.368 . S
C4515 C4496 1.429 . S
C4515 C4509 1.429 . S
C4515 C4516 1.523 . S
C4516 C4497 1.368 . S
C4516 C4510 1.368 . S
C4516 C4515 1.523 . S
C4517 C4501 1.429 . S
C4517 C4513 1.429 . S
C4517 C4518 1.523 . S
C4518 C4502 1.368 . S
C4518 C4514 1.368 . S
C4518 C4517 1.523 . S
H4519 C4494 0.950 . S
H4520 C4496 0.950 . S
H4521 C4497 0.949 . S
H4522 C4499 0.950 . S
H4523 C4501 0.950 . S
C4524 C4525 1.349 . S
C4524 C4526 1.327 . S
C4524 H4549 0.950 . S
C4525 C4524 1.349 . S
C4525 C4541 1.349 . S
C4526 C4524 1.327 . S
C4526 C4545 1.429 . S
C4526 H4550 0.950 . S
C4527 C4544 1.574 . S
C4527 C4546 1.368 . S
C4527 H4551 0.949 . S
H4528 C4532 0.949 . S
C4529 C4530 1.349 . S
C4529 C4531 1.327 . S
C4529 H4552 0.950 . S
C4530 C4529 1.349 . S
C4530 C4542 1.349 . S
C4531 C4529 1.327 . S
C4531 C4547 1.429 . S
C4531 H4553 0.950 . S
C4532 H4528 0.949 . S
C4532 C4540 1.574 . S
C4532 C4548 1.368 . S
H4533 C4541 0.950 . S
H4534 C4539 0.950 . S
H4535 C4540 0.949 . S
H4536 C4542 0.950 . S
H4537 C4543 0.950 . S
H4538 C4544 0.949 . S
C4539 H4534 0.950 . S
C4539 C4541 1.327 . S
C4539 C4545 1.429 . S
C4540 C4532 1.574 . S
C4540 H4535 0.949 . S
C4540 C4546 1.368 . S
C4541 C4525 1.349 . S
C4541 H4533 0.950 . S
C4541 C4539 1.327 . S
C4542 C4530 1.349 . S
C4542 H4536 0.950 . S
C4542 C4543 1.327 . S
C4543 H4537 0.950 . S
C4543 C4542 1.327 . S
C4543 C4547 1.429 . S
C4544 C4527 1.574 . S
C4544 H4538 0.949 . S
C4544 C4548 1.368 . S
C4545 C4526 1.429 . S
C4545 C4539 1.429 . S
C4545 C4546 1.523 . S
C4546 C4527 1.368 . S
C4546 C4540 1.368 . S
C4546 C4545 1.523 . S
C4547 C4531 1.429 . S
C4547 C4543 1.429 . S
C4547 C4548 1.523 . S
C4548 C4532 1.368 . S
C4548 C4544 1.368 . S
C4548 C4547 1.523 . S
H4549 C4524 0.950 . S
H4550 C4526 0.950 . S
H4551 C4527 0.949 . S
H4552 C4529 0.950 . S
H4553 C4531 0.950 . S
C4554 C4555 1.349 . S
C4554 C4556 1.327 . S
C4554 H4579 0.950 . S
C4555 C4554 1.349 . S
C4555 C4571 1.349 . S
C4556 C4554 1.327 . S
C4556 C4575 1.429 . S
C4556 H4580 0.950 . S
C4557 C4574 1.574 . S
C4557 C4576 1.368 . S
C4557 H4581 0.949 . S
H4558 C4562 0.949 . S
C4559 C4560 1.349 . S
C4559 C4561 1.327 . S
C4559 H4582 0.950 . S
C4560 C4559 1.349 . S
C4560 C4572 1.349 . S
C4561 C4559 1.327 . S
C4561 C4577 1.429 . S
C4561 H4583 0.950 . S
C4562 H4558 0.949 . S
C4562 C4570 1.574 . S
C4562 C4578 1.368 . S
H4563 C4571 0.950 . S
H4564 C4569 0.950 . S
H4565 C4570 0.949 . S
H4566 C4572 0.950 . S
H4567 C4573 0.950 . S
H4568 C4574 0.949 . S
C4569 H4564 0.950 . S
C4569 C4571 1.327 . S
C4569 C4575 1.429 . S
C4570 C4562 1.574 . S
C4570 H4565 0.949 . S
C4570 C4576 1.368 . S
C4571 C4555 1.349 . S
C4571 H4563 0.950 . S
C4571 C4569 1.327 . S
C4572 C4560 1.349 . S
C4572 H4566 0.950 . S
C4572 C4573 1.327 . S
C4573 H4567 0.950 . S
C4573 C4572 1.327 . S
C4573 C4577 1.429 . S
C4574 C4557 1.574 . S
C4574 H4568 0.949 . S
C4574 C4578 1.368 . S
C4575 C4556 1.429 . S
C4575 C4569 1.429 . S
C4575 C4576 1.523 . S
C4576 C4557 1.368 . S
C4576 C4570 1.368 . S
C4576 C4575 1.523 . S
C4577 C4561 1.429 . S
C4577 C4573 1.429 . S
C4577 C4578 1.523 . S
C4578 C4562 1.368 . S
C4578 C4574 1.368 . S
C4578 C4577 1.523 . S
H4579 C4554 0.950 . S
H4580 C4556 0.950 . S
H4581 C4557 0.949 . S
H4582 C4559 0.950 . S
H4583 C4561 0.950 . S
C4584 C4585 1.349 . S
C4584 C4586 1.327 . S
C4584 H4609 0.950 . S
C4585 C4584 1.349 . S
C4585 C4601 1.349 . S
C4586 C4584 1.327 . S
C4586 C4605 1.429 . S
C4586 H4610 0.950 . S
C4587 C4604 1.574 . S
C4587 C4606 1.368 . S
C4587 H4611 0.949 . S
H4588 C4592 0.949 . S
C4589 C4590 1.349 . S
C4589 C4591 1.327 . S
C4589 H4612 0.950 . S
C4590 C4589 1.349 . S
C4590 C4602 1.349 . S
C4591 C4589 1.327 . S
C4591 C4607 1.429 . S
C4591 H4613 0.950 . S
C4592 H4588 0.949 . S
C4592 C4600 1.574 . S
C4592 C4608 1.368 . S
H4593 C4601 0.950 . S
H4594 C4599 0.950 . S
H4595 C4600 0.949 . S
H4596 C4602 0.950 . S
H4597 C4603 0.950 . S
H4598 C4604 0.949 . S
C4599 H4594 0.950 . S
C4599 C4601 1.327 . S
C4599 C4605 1.429 . S
C4600 C4592 1.574 . S
C4600 H4595 0.949 . S
C4600 C4606 1.368 . S
C4601 C4585 1.349 . S
C4601 H4593 0.950 . S
C4601 C4599 1.327 . S
C4602 C4590 1.349 . S
C4602 H4596 0.950 . S
C4602 C4603 1.327 . S
C4603 H4597 0.950 . S
C4603 C4602 1.327 . S
C4603 C4607 1.429 . S
C4604 C4587 1.574 . S
C4604 H4598 0.949 . S
C4604 C4608 1.368 . S
C4605 C4586 1.429 . S
C4605 C4599 1.429 . S
C4605 C4606 1.523 . S
C4606 C4587 1.368 . S
C4606 C4600 1.368 . S
C4606 C4605 1.523 . S
C4607 C4591 1.429 . S
C4607 C4603 1.429 . S
C4607 C4608 1.523 . S
C4608 C4592 1.368 . S
C4608 C4604 1.368 . S
C4608 C4607 1.523 . S
H4609 C4584 0.950 . S
H4610 C4586 0.950 . S
H4611 C4587 0.949 . S
H4612 C4589 0.950 . S
H4613 C4591 0.950 . S
C4614 C4615 1.349 . S
C4614 C4616 1.327 . S
C4614 H4639 0.950 . S
C4615 C4614 1.349 . S
C4615 C4631 1.349 . S
C4616 C4614 1.327 . S
C4616 C4635 1.429 . S
C4616 H4640 0.950 . S
C4617 C4634 1.574 . S
C4617 C4636 1.368 . S
C4617 H4641 0.949 . S
H4618 C4622 0.949 . S
C4619 C4620 1.349 . S
C4619 C4621 1.327 . S
C4619 H4642 0.950 . S
C4620 C4619 1.349 . S
C4620 C4632 1.349 . S
C4621 C4619 1.327 . S
C4621 C4637 1.429 . S
C4621 H4643 0.950 . S
C4622 H4618 0.949 . S
C4622 C4630 1.574 . S
C4622 C4638 1.368 . S
H4623 C4631 0.950 . S
H4624 C4629 0.950 . S
H4625 C4630 0.949 . S
H4626 C4632 0.950 . S
H4627 C4633 0.950 . S
H4628 C4634 0.949 . S
C4629 H4624 0.950 . S
C4629 C4631 1.327 . S
C4629 C4635 1.429 . S
C4630 C4622 1.574 . S
C4630 H4625 0.949 . S
C4630 C4636 1.368 . S
C4631 C4615 1.349 . S
C4631 H4623 0.950 . S
C4631 C4629 1.327 . S
C4632 C4620 1.349 . S
C4632 H4626 0.950 . S
C4632 C4633 1.327 . S
C4633 H4627 0.950 . S
C4633 C4632 1.327 . S
C4633 C4637 1.429 . S
C4634 C4617 1.574 . S
C4634 H4628 0.949 . S
C4634 C4638 1.368 . S
C4635 C4616 1.429 . S
C4635 C4629 1.429 . S
C4635 C4636 1.523 . S
C4636 C4617 1.368 . S
C4636 C4630 1.368 . S
C4636 C4635 1.523 . S
C4637 C4621 1.429 . S
C4637 C4633 1.429 . S
C4637 C4638 1.523 . S
C4638 C4622 1.368 . S
C4638 C4634 1.368 . S
C4638 C4637 1.523 . S
H4639 C4614 0.950 . S
H4640 C4616 0.950 . S
H4641 C4617 0.949 . S
H4642 C4619 0.950 . S
H4643 C4621 0.950 . S
C4644 C4645 1.349 . S
C4644 C4646 1.327 . S
C4644 H4669 0.950 . S
C4645 C4644 1.349 . S
C4645 C4661 1.349 . S
C4646 C4644 1.327 . S
C4646 C4665 1.429 . S
C4646 H4670 0.950 . S
C4647 C4664 1.574 . S
C4647 C4666 1.368 . S
C4647 H4671 0.949 . S
H4648 C4652 0.949 . S
C4649 C4650 1.349 . S
C4649 C4651 1.327 . S
C4649 H4672 0.950 . S
C4650 C4649 1.349 . S
C4650 C4662 1.349 . S
C4651 C4649 1.327 . S
C4651 C4667 1.429 . S
C4651 H4673 0.950 . S
C4652 H4648 0.949 . S
C4652 C4660 1.574 . S
C4652 C4668 1.368 . S
H4653 C4661 0.950 . S
H4654 C4659 0.950 . S
H4655 C4660 0.949 . S
H4656 C4662 0.950 . S
H4657 C4663 0.950 . S
H4658 C4664 0.949 . S
C4659 H4654 0.950 . S
C4659 C4661 1.327 . S
C4659 C4665 1.429 . S
C4660 C4652 1.574 . S
C4660 H4655 0.949 . S
C4660 C4666 1.368 . S
C4661 C4645 1.349 . S
C4661 H4653 0.950 . S
C4661 C4659 1.327 . S
C4662 C4650 1.349 . S
C4662 H4656 0.950 . S
C4662 C4663 1.327 . S
C4663 H4657 0.950 . S
C4663 C4662 1.327 . S
C4663 C4667 1.429 . S
C4664 C4647 1.574 . S
C4664 H4658 0.949 . S
C4664 C4668 1.368 . S
C4665 C4646 1.429 . S
C4665 C4659 1.429 . S
C4665 C4666 1.523 . S
C4666 C4647 1.368 . S
C4666 C4660 1.368 . S
C4666 C4665 1.523 . S
C4667 C4651 1.429 . S
C4667 C4663 1.429 . S
C4667 C4668 1.523 . S
C4668 C4652 1.368 . S
C4668 C4664 1.368 . S
C4668 C4667 1.523 . S
H4669 C4644 0.950 . S
H4670 C4646 0.950 . S
H4671 C4647 0.949 . S
H4672 C4649 0.950 . S
H4673 C4651 0.950 . S
C4674 C4675 1.349 . S
C4674 C4676 1.327 . S
C4674 H4699 0.950 . S
C4675 C4674 1.349 . S
C4675 C4691 1.349 . S
C4676 C4674 1.327 . S
C4676 C4695 1.429 . S
C4676 H4700 0.950 . S
C4677 C4694 1.574 . S
C4677 C4696 1.368 . S
C4677 H4701 0.949 . S
H4678 C4682 0.949 . S
C4679 C4680 1.349 . S
C4679 C4681 1.327 . S
C4679 H4702 0.950 . S
C4680 C4679 1.349 . S
C4680 C4692 1.349 . S
C4681 C4679 1.327 . S
C4681 C4697 1.429 . S
C4681 H4703 0.950 . S
C4682 H4678 0.949 . S
C4682 C4690 1.574 . S
C4682 C4698 1.368 . S
H4683 C4691 0.950 . S
H4684 C4689 0.950 . S
H4685 C4690 0.949 . S
H4686 C4692 0.950 . S
H4687 C4693 0.950 . S
H4688 C4694 0.949 . S
C4689 H4684 0.950 . S
C4689 C4691 1.327 . S
C4689 C4695 1.429 . S
C4690 C4682 1.574 . S
C4690 H4685 0.949 . S
C4690 C4696 1.368 . S
C4691 C4675 1.349 . S
C4691 H4683 0.950 . S
C4691 C4689 1.327 . S
C4692 C4680 1.349 . S
C4692 H4686 0.950 . S
C4692 C4693 1.327 . S
C4693 H4687 0.950 . S
C4693 C4692 1.327 . S
C4693 C4697 1.429 . S
C4694 C4677 1.574 . S
C4694 H4688 0.949 . S
C4694 C4698 1.368 . S
C4695 C4676 1.429 . S
C4695 C4689 1.429 . S
C4695 C4696 1.523 . S
C4696 C4677 1.368 . S
C4696 C4690 1.368 . S
C4696 C4695 1.523 . S
C4697 C4681 1.429 . S
C4697 C4693 1.429 . S
C4697 C4698 1.523 . S
C4698 C4682 1.368 . S
C4698 C4694 1.368 . S
C4698 C4697 1.523 . S
H4699 C4674 0.950 . S
H4700 C4676 0.950 . S
H4701 C4677 0.949 . S
H4702 C4679 0.950 . S
H4703 C4681 0.950 . S
C4704 C4705 1.349 . S
C4704 C4706 1.327 . S
C4704 H4729 0.950 . S
C4705 C4704 1.349 . S
C4705 C4721 1.349 . S
C4706 C4704 1.327 . S
C4706 C4725 1.429 . S
C4706 H4730 0.950 . S
C4707 C4724 1.574 . S
C4707 C4726 1.368 . S
C4707 H4731 0.949 . S
H4708 C4712 0.949 . S
C4709 C4710 1.349 . S
C4709 C4711 1.327 . S
C4709 H4732 0.950 . S
C4710 C4709 1.349 . S
C4710 C4722 1.349 . S
C4711 C4709 1.327 . S
C4711 C4727 1.429 . S
C4711 H4733 0.950 . S
C4712 H4708 0.949 . S
C4712 C4720 1.574 . S
C4712 C4728 1.368 . S
H4713 C4721 0.950 . S
H4714 C4719 0.950 . S
H4715 C4720 0.949 . S
H4716 C4722 0.950 . S
H4717 C4723 0.950 . S
H4718 C4724 0.949 . S
C4719 H4714 0.950 . S
C4719 C4721 1.327 . S
C4719 C4725 1.429 . S
C4720 C4712 1.574 . S
C4720 H4715 0.949 . S
C4720 C4726 1.368 . S
C4721 C4705 1.349 . S
C4721 H4713 0.950 . S
C4721 C4719 1.327 . S
C4722 C4710 1.349 . S
C4722 H4716 0.950 . S
C4722 C4723 1.327 . S
C4723 H4717 0.950 . S
C4723 C4722 1.327 . S
C4723 C4727 1.429 . S
C4724 C4707 1.574 . S
C4724 H4718 0.949 . S
C4724 C4728 1.368 . S
C4725 C4706 1.429 . S
C4725 C4719 1.429 . S
C4725 C4726 1.523 . S
C4726 C4707 1.368 . S
C4726 C4720 1.368 . S
C4726 C4725 1.523 . S
C4727 C4711 1.429 . S
C4727 C4723 1.429 . S
C4727 C4728 1.523 . S
C4728 C4712 1.368 . S
C4728 C4724 1.368 . S
C4728 C4727 1.523 . S
H4729 C4704 0.950 . S
H4730 C4706 0.950 . S
H4731 C4707 0.949 . S
H4732 C4709 0.950 . S
H4733 C4711 0.950 . S
C4734 C4735 1.349 . S
C4734 C4736 1.327 . S
C4734 H4759 0.950 . S
C4735 C4734 1.349 . S
C4735 C4751 1.349 . S
C4736 C4734 1.327 . S
C4736 C4755 1.429 . S
C4736 H4760 0.950 . S
C4737 C4754 1.574 . S
C4737 C4756 1.368 . S
C4737 H4761 0.949 . S
H4738 C4742 0.949 . S
C4739 C4740 1.349 . S
C4739 C4741 1.327 . S
C4739 H4762 0.950 . S
C4740 C4739 1.349 . S
C4740 C4752 1.349 . S
C4741 C4739 1.327 . S
C4741 C4757 1.429 . S
C4741 H4763 0.950 . S
C4742 H4738 0.949 . S
C4742 C4750 1.574 . S
C4742 C4758 1.368 . S
H4743 C4751 0.950 . S
H4744 C4749 0.950 . S
H4745 C4750 0.949 . S
H4746 C4752 0.950 . S
H4747 C4753 0.950 . S
H4748 C4754 0.949 . S
C4749 H4744 0.950 . S
C4749 C4751 1.327 . S
C4749 C4755 1.429 . S
C4750 C4742 1.574 . S
C4750 H4745 0.949 . S
C4750 C4756 1.368 . S
C4751 C4735 1.349 . S
C4751 H4743 0.950 . S
C4751 C4749 1.327 . S
C4752 C4740 1.349 . S
C4752 H4746 0.950 . S
C4752 C4753 1.327 . S
C4753 H4747 0.950 . S
C4753 C4752 1.327 . S
C4753 C4757 1.429 . S
C4754 C4737 1.574 . S
C4754 H4748 0.949 . S
C4754 C4758 1.368 . S
C4755 C4736 1.429 . S
C4755 C4749 1.429 . S
C4755 C4756 1.523 . S
C4756 C4737 1.368 . S
C4756 C4750 1.368 . S
C4756 C4755 1.523 . S
C4757 C4741 1.429 . S
C4757 C4753 1.429 . S
C4757 C4758 1.523 . S
C4758 C4742 1.368 . S
C4758 C4754 1.368 . S
C4758 C4757 1.523 . S
H4759 C4734 0.950 . S
H4760 C4736 0.950 . S
H4761 C4737 0.949 . S
H4762 C4739 0.950 . S
H4763 C4741 0.950 . S
C4764 C4765 1.349 . S
C4764 C4766 1.327 . S
C4764 H4789 0.950 . S
C4765 C4764 1.349 . S
C4765 C4781 1.349 . S
C4766 C4764 1.327 . S
C4766 C4785 1.429 . S
C4766 H4790 0.950 . S
C4767 C4784 1.574 . S
C4767 C4786 1.368 . S
C4767 H4791 0.949 . S
H4768 C4772 0.949 . S
C4769 C4770 1.349 . S
C4769 C4771 1.327 . S
C4769 H4792 0.950 . S
C4770 C4769 1.349 . S
C4770 C4782 1.349 . S
C4771 C4769 1.327 . S
C4771 C4787 1.429 . S
C4771 H4793 0.950 . S
C4772 H4768 0.949 . S
C4772 C4780 1.574 . S
C4772 C4788 1.368 . S
H4773 C4781 0.950 . S
H4774 C4779 0.950 . S
H4775 C4780 0.949 . S
H4776 C4782 0.950 . S
H4777 C4783 0.950 . S
H4778 C4784 0.949 . S
C4779 H4774 0.950 . S
C4779 C4781 1.327 . S
C4779 C4785 1.429 . S
C4780 C4772 1.574 . S
C4780 H4775 0.949 . S
C4780 C4786 1.368 . S
C4781 C4765 1.349 . S
C4781 H4773 0.950 . S
C4781 C4779 1.327 . S
C4782 C4770 1.349 . S
C4782 H4776 0.950 . S
C4782 C4783 1.327 . S
C4783 H4777 0.950 . S
C4783 C4782 1.327 . S
C4783 C4787 1.429 . S
C4784 C4767 1.574 . S
C4784 H4778 0.949 . S
C4784 C4788 1.368 . S
C4785 C4766 1.429 . S
C4785 C4779 1.429 . S
C4785 C4786 1.523 . S
C4786 C4767 1.368 . S
C4786 C4780 1.368 . S
C4786 C4785 1.523 . S
C4787 C4771 1.429 . S
C4787 C4783 1.429 . S
C4787 C4788 1.523 . S
C4788 C4772 1.368 . S
C4788 C4784 1.368 . S
C4788 C4787 1.523 . S
H4789 C4764 0.950 . S
H4790 C4766 0.950 . S
H4791 C4767 0.949 . S
H4792 C4769 0.950 . S
H4793 C4771 0.950 . S
C4794 C4795 1.349 . S
C4794 C4796 1.327 . S
C4794 H4819 0.950 . S
C4795 C4794 1.349 . S
C4795 C4811 1.349 . S
C4796 C4794 1.327 . S
C4796 C4815 1.429 . S
C4796 H4820 0.950 . S
C4797 C4814 1.574 . S
C4797 C4816 1.368 . S
C4797 H4821 0.949 . S
H4798 C4802 0.949 . S
C4799 C4800 1.349 . S
C4799 C4801 1.327 . S
C4799 H4822 0.950 . S
C4800 C4799 1.349 . S
C4800 C4812 1.349 . S
C4801 C4799 1.327 . S
C4801 C4817 1.429 . S
C4801 H4823 0.950 . S
C4802 H4798 0.949 . S
C4802 C4810 1.574 . S
C4802 C4818 1.368 . S
H4803 C4811 0.950 . S
H4804 C4809 0.950 . S
H4805 C4810 0.949 . S
H4806 C4812 0.950 . S
H4807 C4813 0.950 . S
H4808 C4814 0.949 . S
C4809 H4804 0.950 . S
C4809 C4811 1.327 . S
C4809 C4815 1.429 . S
C4810 C4802 1.574 . S
C4810 H4805 0.949 . S
C4810 C4816 1.368 . S
C4811 C4795 1.349 . S
C4811 H4803 0.950 . S
C4811 C4809 1.327 . S
C4812 C4800 1.349 . S
C4812 H4806 0.950 . S
C4812 C4813 1.327 . S
C4813 H4807 0.950 . S
C4813 C4812 1.327 . S
C4813 C4817 1.429 . S
C4814 C4797 1.574 . S
C4814 H4808 0.949 . S
C4814 C4818 1.368 . S
C4815 C4796 1.429 . S
C4815 C4809 1.429 . S
C4815 C4816 1.523 . S
C4816 C4797 1.368 . S
C4816 C4810 1.368 . S
C4816 C4815 1.523 . S
C4817 C4801 1.429 . S
C4817 C4813 1.429 . S
C4817 C4818 1.523 . S
C4818 C4802 1.368 . S
C4818 C4814 1.368 . S
C4818 C4817 1.523 . S
H4819 C4794 0.950 . S
H4820 C4796 0.950 . S
H4821 C4797 0.949 . S
H4822 C4799 0.950 . S
H4823 C4801 0.950 . S
C4824 C4825 1.349 . S
C4824 C4826 1.327 . S
C4824 H4849 0.950 . S
C4825 C4824 1.349 . S
C4825 C4841 1.349 . S
C4826 C4824 1.327 . S
C4826 C4845 1.429 . S
C4826 H4850 0.950 . S
C4827 C4844 1.574 . S
C4827 C4846 1.368 . S
C4827 H4851 0.949 . S
H4828 C4832 0.949 . S
C4829 C4830 1.349 . S
C4829 C4831 1.327 . S
C4829 H4852 0.950 . S
C4830 C4829 1.349 . S
C4830 C4842 1.349 . S
C4831 C4829 1.327 . S
C4831 C4847 1.429 . S
C4831 H4853 0.950 . S
C4832 H4828 0.949 . S
C4832 C4840 1.574 . S
C4832 C4848 1.368 . S
H4833 C4841 0.950 . S
H4834 C4839 0.950 . S
H4835 C4840 0.949 . S
H4836 C4842 0.950 . S
H4837 C4843 0.950 . S
H4838 C4844 0.949 . S
C4839 H4834 0.950 . S
C4839 C4841 1.327 . S
C4839 C4845 1.429 . S
C4840 C4832 1.574 . S
C4840 H4835 0.949 . S
C4840 C4846 1.368 . S
C4841 C4825 1.349 . S
C4841 H4833 0.950 . S
C4841 C4839 1.327 . S
C4842 C4830 1.349 . S
C4842 H4836 0.950 . S
C4842 C4843 1.327 . S
C4843 H4837 0.950 . S
C4843 C4842 1.327 . S
C4843 C4847 1.429 . S
C4844 C4827 1.574 . S
C4844 H4838 0.949 . S
C4844 C4848 1.368 . S
C4845 C4826 1.429 . S
C4845 C4839 1.429 . S
C4845 C4846 1.523 . S
C4846 C4827 1.368 . S
C4846 C4840 1.368 . S
C4846 C4845 1.523 . S
C4847 C4831 1.429 . S
C4847 C4843 1.429 . S
C4847 C4848 1.523 . S
C4848 C4832 1.368 . S
C4848 C4844 1.368 . S
C4848 C4847 1.523 . S
H4849 C4824 0.950 . S
H4850 C4826 0.950 . S
H4851 C4827 0.949 . S
H4852 C4829 0.950 . S
H4853 C4831 0.950 . S
C4854 C4855 1.349 . S
C4854 C4856 1.327 . S
C4854 H4879 0.950 . S
C4855 C4854 1.349 . S
C4855 C4871 1.349 . S
C4856 C4854 1.327 . S
C4856 C4875 1.429 . S
C4856 H4880 0.950 . S
C4857 C4874 1.574 . S
C4857 C4876 1.368 . S
C4857 H4881 0.949 . S
H4858 C4862 0.949 . S
C4859 C4860 1.349 . S
C4859 C4861 1.327 . S
C4859 H4882 0.950 . S
C4860 C4859 1.349 . S
C4860 C4872 1.349 . S
C4861 C4859 1.327 . S
C4861 C4877 1.429 . S
C4861 H4883 0.950 . S
C4862 H4858 0.949 . S
C4862 C4870 1.574 . S
C4862 C4878 1.368 . S
H4863 C4871 0.950 . S
H4864 C4869 0.950 . S
H4865 C4870 0.949 . S
H4866 C4872 0.950 . S
H4867 C4873 0.950 . S
H4868 C4874 0.949 . S
C4869 H4864 0.950 . S
C4869 C4871 1.327 . S
C4869 C4875 1.429 . S
C4870 C4862 1.574 . S
C4870 H4865 0.949 . S
C4870 C4876 1.368 . S
C4871 C4855 1.349 . S
C4871 H4863 0.950 . S
C4871 C4869 1.327 . S
C4872 C4860 1.349 . S
C4872 H4866 0.950 . S
C4872 C4873 1.327 . S
C4873 H4867 0.950 . S
C4873 C4872 1.327 . S
C4873 C4877 1.429 . S
C4874 C4857 1.574 . S
C4874 H4868 0.949 . S
C4874 C4878 1.368 . S
C4875 C4856 1.429 . S
C4875 C4869 1.429 . S
C4875 C4876 1.523 . S
C4876 C4857 1.368 . S
C4876 C4870 1.368 . S
C4876 C4875 1.523 . S
C4877 C4861 1.429 . S
C4877 C4873 1.429 . S
C4877 C4878 1.523 . S
C4878 C4862 1.368 . S
C4878 C4874 1.368 . S
C4878 C4877 1.523 . S
H4879 C4854 0.950 . S
H4880 C4856 0.950 . S
H4881 C4857 0.949 . S
H4882 C4859 0.950 . S
H4883 C4861 0.950 . S
C4884 C4885 1.422 . S
C4884 C4886 1.327 . S
C4884 H4909 0.950 . S
C4885 C4884 1.422 . S
C4885 C4901 1.351 . S
C4886 C4884 1.327 . S
C4886 C4905 1.429 . S
C4886 H4910 0.950 . S
C4887 C4904 1.574 . S
C4887 C4906 1.368 . S
C4887 H4911 0.949 . S
H4888 C4892 0.949 . S
C4889 C4890 1.349 . S
C4889 C4891 1.327 . S
C4889 H4912 0.950 . S
C4890 C4889 1.349 . S
C4890 C4902 1.349 . S
C4891 C4889 1.327 . S
C4891 C4907 1.429 . S
C4891 H4913 0.950 . S
C4892 H4888 0.949 . S
C4892 C4900 1.574 . S
C4892 C4908 1.368 . S
H4893 C4901 0.950 1_556 S
H4894 C4899 0.950 . S
H4895 C4900 0.949 . S
H4896 C4902 0.950 . S
H4897 C4903 0.950 . S
H4898 C4904 0.949 . S
C4899 H4894 0.950 . S
C4899 C4901 1.327 . S
C4899 C4905 1.429 . S
C4900 C4892 1.574 . S
C4900 H4895 0.949 . S
C4900 C4906 1.368 . S
C4901 C4885 1.351 . S
C4901 H4893 0.950 1_554 S
C4901 C4899 1.327 . S
C4902 C4890 1.349 . S
C4902 H4896 0.950 . S
C4902 C4903 1.327 . S
C4903 H4897 0.950 . S
C4903 C4902 1.327 . S
C4903 C4907 1.429 . S
C4904 C4887 1.574 . S
C4904 H4898 0.949 . S
C4904 C4908 1.368 . S
C4905 C4886 1.429 . S
C4905 C4899 1.429 . S
C4905 C4906 1.523 . S
C4906 C4887 1.368 . S
C4906 C4900 1.368 . S
C4906 C4905 1.523 . S
C4907 C4891 1.429 . S
C4907 C4903 1.429 . S
C4907 C4908 1.523 . S
C4908 C4892 1.368 . S
C4908 C4904 1.368 . S
C4908 C4907 1.523 . S
H4909 C4884 0.950 . S
H4910 C4886 0.950 . S
H4911 C4887 0.949 . S
H4912 C4889 0.950 . S
H4913 C4891 0.950 . S
C4914 C4915 1.349 . S
C4914 C4916 1.327 . S
C4914 H4939 0.950 . S
C4915 C4914 1.349 . S
C4915 C4931 1.349 . S
C4916 C4914 1.327 . S
C4916 C4935 1.429 . S
C4916 H4940 0.950 . S
C4917 C4934 1.574 . S
C4917 C4936 1.368 . S
C4917 H4941 0.949 . S
H4918 C4922 0.949 . S
C4919 C4920 1.349 . S
C4919 C4921 1.327 . S
C4919 H4942 0.950 . S
C4920 C4919 1.349 . S
C4920 C4932 1.349 . S
C4921 C4919 1.327 . S
C4921 C4937 1.429 . S
C4921 H4943 0.950 . S
C4922 H4918 0.949 . S
C4922 C4930 1.574 . S
C4922 C4938 1.368 . S
H4923 C4931 0.950 . S
H4924 C4929 0.950 . S
H4925 C4930 0.949 . S
H4926 C4932 0.950 . S
H4927 C4933 0.950 . S
H4928 C4934 0.949 . S
C4929 H4924 0.950 . S
C4929 C4931 1.327 . S
C4929 C4935 1.429 . S
C4930 C4922 1.574 . S
C4930 H4925 0.949 . S
C4930 C4936 1.368 . S
C4931 C4915 1.349 . S
C4931 H4923 0.950 . S
C4931 C4929 1.327 . S
C4932 C4920 1.349 . S
C4932 H4926 0.950 . S
C4932 C4933 1.327 . S
C4933 H4927 0.950 . S
C4933 C4932 1.327 . S
C4933 C4937 1.429 . S
C4934 C4917 1.574 . S
C4934 H4928 0.949 . S
C4934 C4938 1.368 . S
C4935 C4916 1.429 . S
C4935 C4929 1.429 . S
C4935 C4936 1.523 . S
C4936 C4917 1.368 . S
C4936 C4930 1.368 . S
C4936 C4935 1.523 . S
C4937 C4921 1.429 . S
C4937 C4933 1.429 . S
C4937 C4938 1.523 . S
C4938 C4922 1.368 . S
C4938 C4934 1.368 . S
C4938 C4937 1.523 . S
H4939 C4914 0.950 . S
H4940 C4916 0.950 . S
H4941 C4917 0.949 . S
H4942 C4919 0.950 . S
H4943 C4921 0.950 . S
C4944 C4945 1.349 . S
C4944 C4946 1.327 . S
C4944 H4969 0.950 . S
C4945 C4944 1.349 . S
C4945 C4961 1.349 . S
C4946 C4944 1.327 . S
C4946 C4965 1.429 . S
C4946 H4970 0.950 . S
C4947 C4964 1.574 . S
C4947 C4966 1.368 . S
C4947 H4971 0.949 . S
H4948 C4952 0.949 . S
C4949 C4950 1.349 . S
C4949 C4951 1.327 . S
C4949 H4972 0.950 . S
C4950 C4949 1.349 . S
C4950 C4962 1.349 . S
C4951 C4949 1.327 . S
C4951 C4967 1.429 . S
C4951 H4973 0.950 . S
C4952 H4948 0.949 . S
C4952 C4960 1.574 . S
C4952 C4968 1.368 . S
H4953 C4961 0.950 . S
H4954 C4959 0.950 . S
H4955 C4960 0.949 . S
H4956 C4962 0.950 . S
H4957 C4963 0.950 . S
H4958 C4964 0.949 . S
C4959 H4954 0.950 . S
C4959 C4961 1.327 . S
C4959 C4965 1.429 . S
C4960 C4952 1.574 . S
C4960 H4955 0.949 . S
C4960 C4966 1.368 . S
C4961 C4945 1.349 . S
C4961 H4953 0.950 . S
C4961 C4959 1.327 . S
C4962 C4950 1.349 . S
C4962 H4956 0.950 . S
C4962 C4963 1.327 . S
C4963 H4957 0.950 . S
C4963 C4962 1.327 . S
C4963 C4967 1.429 . S
C4964 C4947 1.574 . S
C4964 H4958 0.949 . S
C4964 C4968 1.368 . S
C4965 C4946 1.429 . S
C4965 C4959 1.429 . S
C4965 C4966 1.523 . S
C4966 C4947 1.368 . S
C4966 C4960 1.368 . S
C4966 C4965 1.523 . S
C4967 C4951 1.429 . S
C4967 C4963 1.429 . S
C4967 C4968 1.523 . S
C4968 C4952 1.368 . S
C4968 C4964 1.368 . S
C4968 C4967 1.523 . S
H4969 C4944 0.950 . S
H4970 C4946 0.950 . S
H4971 C4947 0.949 . S
H4972 C4949 0.950 . S
H4973 C4951 0.950 . S
C4974 C4975 1.349 . S
C4974 C4976 1.327 . S
C4974 H4999 0.950 . S
C4975 C4974 1.349 . S
C4975 C4991 1.349 . S
C4976 C4974 1.327 . S
C4976 C4995 1.429 . S
C4976 H5000 0.950 . S
C4977 C4994 1.574 . S
C4977 C4996 1.368 . S
C4977 H5001 0.949 . S
H4978 C4982 0.949 . S
C4979 C4980 1.349 . S
C4979 C4981 1.327 . S
C4979 H5002 0.950 . S
C4980 C4979 1.349 . S
C4980 C4992 1.349 . S
C4981 C4979 1.327 . S
C4981 C4997 1.429 . S
C4981 H5003 0.950 . S
C4982 H4978 0.949 . S
C4982 C4990 1.574 . S
C4982 C4998 1.368 . S
H4983 C4991 0.950 . S
H4984 C4989 0.950 . S
H4985 C4990 0.949 . S
H4986 C4992 0.950 . S
H4987 C4993 0.950 . S
H4988 C4994 0.949 . S
C4989 H4984 0.950 . S
C4989 C4991 1.327 . S
C4989 C4995 1.429 . S
C4990 C4982 1.574 . S
C4990 H4985 0.949 . S
C4990 C4996 1.368 . S
C4991 C4975 1.349 . S
C4991 H4983 0.950 . S
C4991 C4989 1.327 . S
C4992 C4980 1.349 . S
C4992 H4986 0.950 . S
C4992 C4993 1.327 . S
C4993 H4987 0.950 . S
C4993 C4992 1.327 . S
C4993 C4997 1.429 . S
C4994 C4977 1.574 . S
C4994 H4988 0.949 . S
C4994 C4998 1.368 . S
C4995 C4976 1.429 . S
C4995 C4989 1.429 . S
C4995 C4996 1.523 . S
C4996 C4977 1.368 . S
C4996 C4990 1.368 . S
C4996 C4995 1.523 . S
C4997 C4981 1.429 . S
C4997 C4993 1.429 . S
C4997 C4998 1.523 . S
C4998 C4982 1.368 . S
C4998 C4994 1.368 . S
C4998 C4997 1.523 . S
H4999 C4974 0.950 . S
H5000 C4976 0.950 . S
H5001 C4977 0.949 . S
H5002 C4979 0.950 . S
H5003 C4981 0.950 . S
C5004 C5005 1.349 . S
C5004 C5006 1.327 . S
C5004 H5029 0.950 . S
C5005 C5004 1.349 . S
C5005 C5021 1.349 . S
C5006 C5004 1.327 . S
C5006 C5025 1.429 . S
C5006 H5030 0.950 . S
C5007 C5024 1.574 . S
C5007 C5026 1.368 . S
C5007 H5031 0.949 . S
H5008 C5012 0.949 . S
C5009 C5010 1.349 . S
C5009 C5011 1.327 . S
C5009 H5032 0.950 . S
C5010 C5009 1.349 . S
C5010 C5022 1.349 . S
C5011 C5009 1.327 . S
C5011 C5027 1.429 . S
C5011 H5033 0.950 . S
C5012 H5008 0.949 . S
C5012 C5020 1.574 . S
C5012 C5028 1.368 . S
H5013 C5021 0.950 . S
H5014 C5019 0.950 . S
H5015 C5020 0.949 . S
H5016 C5022 0.950 . S
H5017 C5023 0.950 . S
H5018 C5024 0.949 . S
C5019 H5014 0.950 . S
C5019 C5021 1.327 . S
C5019 C5025 1.429 . S
C5020 C5012 1.574 . S
C5020 H5015 0.949 . S
C5020 C5026 1.368 . S
C5021 C5005 1.349 . S
C5021 H5013 0.950 . S
C5021 C5019 1.327 . S
C5022 C5010 1.349 . S
C5022 H5016 0.950 . S
C5022 C5023 1.327 . S
C5023 H5017 0.950 . S
C5023 C5022 1.327 . S
C5023 C5027 1.429 . S
C5024 C5007 1.574 . S
C5024 H5018 0.949 . S
C5024 C5028 1.368 . S
C5025 C5006 1.429 . S
C5025 C5019 1.429 . S
C5025 C5026 1.523 . S
C5026 C5007 1.368 . S
C5026 C5020 1.368 . S
C5026 C5025 1.523 . S
C5027 C5011 1.429 . S
C5027 C5023 1.429 . S
C5027 C5028 1.523 . S
C5028 C5012 1.368 . S
C5028 C5024 1.368 . S
C5028 C5027 1.523 . S
H5029 C5004 0.950 . S
H5030 C5006 0.950 . S
H5031 C5007 0.949 . S
H5032 C5009 0.950 . S
H5033 C5011 0.950 . S
C5034 C5035 1.349 . S
C5034 C5036 1.327 . S
C5034 H5059 0.950 . S
C5035 C5034 1.349 . S
C5035 C5051 1.349 . S
C5036 C5034 1.327 . S
C5036 C5055 1.429 . S
C5036 H5060 0.950 . S
C5037 C5054 1.574 . S
C5037 C5056 1.368 . S
C5037 H5061 0.949 . S
H5038 C5042 0.949 . S
C5039 C5040 1.349 . S
C5039 C5041 1.327 . S
C5039 H5062 0.950 . S
C5040 C5039 1.349 . S
C5040 C5052 1.349 . S
C5041 C5039 1.327 . S
C5041 C5057 1.429 . S
C5041 H5063 0.950 . S
C5042 H5038 0.949 . S
C5042 C5050 1.574 . S
C5042 C5058 1.368 . S
H5043 C5051 0.950 . S
H5044 C5049 0.950 . S
H5045 C5050 0.949 . S
H5046 C5052 0.950 . S
H5047 C5053 0.950 . S
H5048 C5054 0.949 . S
C5049 H5044 0.950 . S
C5049 C5051 1.327 . S
C5049 C5055 1.429 . S
C5050 C5042 1.574 . S
C5050 H5045 0.949 . S
C5050 C5056 1.368 . S
C5051 C5035 1.349 . S
C5051 H5043 0.950 . S
C5051 C5049 1.327 . S
C5052 C5040 1.349 . S
C5052 H5046 0.950 . S
C5052 C5053 1.327 . S
C5053 H5047 0.950 . S
C5053 C5052 1.327 . S
C5053 C5057 1.429 . S
C5054 C5037 1.574 . S
C5054 H5048 0.949 . S
C5054 C5058 1.368 . S
C5055 C5036 1.429 . S
C5055 C5049 1.429 . S
C5055 C5056 1.523 . S
C5056 C5037 1.368 . S
C5056 C5050 1.368 . S
C5056 C5055 1.523 . S
C5057 C5041 1.429 . S
C5057 C5053 1.429 . S
C5057 C5058 1.523 . S
C5058 C5042 1.368 . S
C5058 C5054 1.368 . S
C5058 C5057 1.523 . S
H5059 C5034 0.950 . S
H5060 C5036 0.950 . S
H5061 C5037 0.949 . S
H5062 C5039 0.950 . S
H5063 C5041 0.950 . S
C5064 C5065 1.349 . S
C5064 C5066 1.327 . S
C5064 H5089 0.950 . S
C5065 C5064 1.349 . S
C5065 C5081 1.349 . S
C5066 C5064 1.327 . S
C5066 C5085 1.429 . S
C5066 H5090 0.950 . S
C5067 C5084 1.574 . S
C5067 C5086 1.368 . S
C5067 H5091 0.949 . S
H5068 C5072 0.949 . S
C5069 C5070 1.349 . S
C5069 C5071 1.327 . S
C5069 H5092 0.950 . S
C5070 C5069 1.349 . S
C5070 C5082 1.349 . S
C5071 C5069 1.327 . S
C5071 C5087 1.429 . S
C5071 H5093 0.950 . S
C5072 H5068 0.949 . S
C5072 C5080 1.574 . S
C5072 C5088 1.368 . S
H5073 C5081 0.950 . S
H5074 C5079 0.950 . S
H5075 C5080 0.949 . S
H5076 C5082 0.950 . S
H5077 C5083 0.950 . S
H5078 C5084 0.949 . S
C5079 H5074 0.950 . S
C5079 C5081 1.327 . S
C5079 C5085 1.429 . S
C5080 C5072 1.574 . S
C5080 H5075 0.949 . S
C5080 C5086 1.368 . S
C5081 C5065 1.349 . S
C5081 H5073 0.950 . S
C5081 C5079 1.327 . S
C5082 C5070 1.349 . S
C5082 H5076 0.950 . S
C5082 C5083 1.327 . S
C5083 H5077 0.950 . S
C5083 C5082 1.327 . S
C5083 C5087 1.429 . S
C5084 C5067 1.574 . S
C5084 H5078 0.949 . S
C5084 C5088 1.368 . S
C5085 C5066 1.429 . S
C5085 C5079 1.429 . S
C5085 C5086 1.523 . S
C5086 C5067 1.368 . S
C5086 C5080 1.368 . S
C5086 C5085 1.523 . S
C5087 C5071 1.429 . S
C5087 C5083 1.429 . S
C5087 C5088 1.523 . S
C5088 C5072 1.368 . S
C5088 C5084 1.368 . S
C5088 C5087 1.523 . S
H5089 C5064 0.950 . S
H5090 C5066 0.950 . S
H5091 C5067 0.949 . S
H5092 C5069 0.950 . S
H5093 C5071 0.950 . S
C5094 C5095 1.349 . S
C5094 C5096 1.327 . S
C5094 H5119 0.950 . S
C5095 C5094 1.349 . S
C5095 C5111 1.349 . S
C5096 C5094 1.327 . S
C5096 C5115 1.429 . S
C5096 H5120 0.950 . S
C5097 C5114 1.574 . S
C5097 C5116 1.368 . S
C5097 H5121 0.949 . S
H5098 C5102 0.949 . S
C5099 C5100 1.349 . S
C5099 C5101 1.327 . S
C5099 H5122 0.950 . S
C5100 C5099 1.349 . S
C5100 C5112 1.349 . S
C5101 C5099 1.327 . S
C5101 C5117 1.429 . S
C5101 H5123 0.950 . S
C5102 H5098 0.949 . S
C5102 C5110 1.574 . S
C5102 C5118 1.368 . S
H5103 C5111 0.950 . S
H5104 C5109 0.950 . S
H5105 C5110 0.949 . S
H5106 C5112 0.950 . S
H5107 C5113 0.950 . S
H5108 C5114 0.949 . S
C5109 H5104 0.950 . S
C5109 C5111 1.327 . S
C5109 C5115 1.429 . S
C5110 C5102 1.574 . S
C5110 H5105 0.949 . S
C5110 C5116 1.368 . S
C5111 C5095 1.349 . S
C5111 H5103 0.950 . S
C5111 C5109 1.327 . S
C5112 C5100 1.349 . S
C5112 H5106 0.950 . S
C5112 C5113 1.327 . S
C5113 H5107 0.950 . S
C5113 C5112 1.327 . S
C5113 C5117 1.429 . S
C5114 C5097 1.574 . S
C5114 H5108 0.949 . S
C5114 C5118 1.368 . S
C5115 C5096 1.429 . S
C5115 C5109 1.429 . S
C5115 C5116 1.523 . S
C5116 C5097 1.368 . S
C5116 C5110 1.368 . S
C5116 C5115 1.523 . S
C5117 C5101 1.429 . S
C5117 C5113 1.429 . S
C5117 C5118 1.523 . S
C5118 C5102 1.368 . S
C5118 C5114 1.368 . S
C5118 C5117 1.523 . S
H5119 C5094 0.950 . S
H5120 C5096 0.950 . S
H5121 C5097 0.949 . S
H5122 C5099 0.950 . S
H5123 C5101 0.950 . S
C5124 C5125 1.349 . S
C5124 C5126 1.327 . S
C5124 H5149 0.950 . S
C5125 C5124 1.349 . S
C5125 C5141 1.349 . S
C5126 C5124 1.327 . S
C5126 C5145 1.429 . S
C5126 H5150 0.950 . S
C5127 C5144 1.574 . S
C5127 C5146 1.368 . S
C5127 H5151 0.949 . S
H5128 C5132 0.949 . S
C5129 C5130 1.349 . S
C5129 C5131 1.327 . S
C5129 H5152 0.950 . S
C5130 C5129 1.349 . S
C5130 C5142 1.349 . S
C5131 C5129 1.327 . S
C5131 C5147 1.429 . S
C5131 H5153 0.950 . S
C5132 H5128 0.949 . S
C5132 C5140 1.574 . S
C5132 C5148 1.368 . S
H5133 C5141 0.950 . S
H5134 C5139 0.950 . S
H5135 C5140 0.949 . S
H5136 C5142 0.950 . S
H5137 C5143 0.950 . S
H5138 C5144 0.949 . S
C5139 H5134 0.950 . S
C5139 C5141 1.327 . S
C5139 C5145 1.429 . S
C5140 C5132 1.574 . S
C5140 H5135 0.949 . S
C5140 C5146 1.368 . S
C5141 C5125 1.349 . S
C5141 H5133 0.950 . S
C5141 C5139 1.327 . S
C5142 C5130 1.349 . S
C5142 H5136 0.950 . S
C5142 C5143 1.327 . S
C5143 H5137 0.950 . S
C5143 C5142 1.327 . S
C5143 C5147 1.429 . S
C5144 C5127 1.574 . S
C5144 H5138 0.949 . S
C5144 C5148 1.368 . S
C5145 C5126 1.429 . S
C5145 C5139 1.429 . S
C5145 C5146 1.523 . S
C5146 C5127 1.368 . S
C5146 C5140 1.368 . S
C5146 C5145 1.523 . S
C5147 C5131 1.429 . S
C5147 C5143 1.429 . S
C5147 C5148 1.523 . S
C5148 C5132 1.368 . S
C5148 C5144 1.368 . S
C5148 C5147 1.523 . S
H5149 C5124 0.950 . S
H5150 C5126 0.950 . S
H5151 C5127 0.949 . S
H5152 C5129 0.950 . S
H5153 C5131 0.950 . S
C5154 C5155 1.349 . S
C5154 C5156 1.327 . S
C5154 H5179 0.950 . S
C5155 C5154 1.349 . S
C5155 C5171 1.349 . S
C5156 C5154 1.327 . S
C5156 C5175 1.429 . S
C5156 H5180 0.950 . S
C5157 C5174 1.574 . S
C5157 C5176 1.368 . S
C5157 H5181 0.949 . S
H5158 C5162 0.949 . S
C5159 C5160 1.349 . S
C5159 C5161 1.327 . S
C5159 H5182 0.950 . S
C5160 C5159 1.349 . S
C5160 C5172 1.349 . S
C5161 C5159 1.327 . S
C5161 C5177 1.429 . S
C5161 H5183 0.950 . S
C5162 H5158 0.949 . S
C5162 C5170 1.574 . S
C5162 C5178 1.368 . S
H5163 C5171 0.950 . S
H5164 C5169 0.950 . S
H5165 C5170 0.949 . S
H5166 C5172 0.950 . S
H5167 C5173 0.950 . S
H5168 C5174 0.949 . S
C5169 H5164 0.950 . S
C5169 C5171 1.327 . S
C5169 C5175 1.429 . S
C5170 C5162 1.574 . S
C5170 H5165 0.949 . S
C5170 C5176 1.368 . S
C5171 C5155 1.349 . S
C5171 H5163 0.950 . S
C5171 C5169 1.327 . S
C5172 C5160 1.349 . S
C5172 H5166 0.950 . S
C5172 C5173 1.327 . S
C5173 H5167 0.950 . S
C5173 C5172 1.327 . S
C5173 C5177 1.429 . S
C5174 C5157 1.574 . S
C5174 H5168 0.949 . S
C5174 C5178 1.368 . S
C5175 C5156 1.429 . S
C5175 C5169 1.429 . S
C5175 C5176 1.523 . S
C5176 C5157 1.368 . S
C5176 C5170 1.368 . S
C5176 C5175 1.523 . S
C5177 C5161 1.429 . S
C5177 C5173 1.429 . S
C5177 C5178 1.523 . S
C5178 C5162 1.368 . S
C5178 C5174 1.368 . S
C5178 C5177 1.523 . S
H5179 C5154 0.950 . S
H5180 C5156 0.950 . S
H5181 C5157 0.949 . S
H5182 C5159 0.950 . S
H5183 C5161 0.950 . S
C5184 C5185 1.349 . S
C5184 C5186 1.327 . S
C5184 H5209 0.950 . S
C5185 C5184 1.349 . S
C5185 C5201 1.349 . S
C5186 C5184 1.327 . S
C5186 C5205 1.429 . S
C5186 H5210 0.950 . S
C5187 C5204 1.574 . S
C5187 C5206 1.368 . S
C5187 H5211 0.949 . S
H5188 C5192 0.949 . S
C5189 C5190 1.349 . S
C5189 C5191 1.327 . S
C5189 H5212 0.950 . S
C5190 C5189 1.349 . S
C5190 C5202 1.349 . S
C5191 C5189 1.327 . S
C5191 C5207 1.429 . S
C5191 H5213 0.950 . S
C5192 H5188 0.949 . S
C5192 C5200 1.574 . S
C5192 C5208 1.368 . S
H5193 C5201 0.950 . S
H5194 C5199 0.950 . S
H5195 C5200 0.949 . S
H5196 C5202 0.950 . S
H5197 C5203 0.950 . S
H5198 C5204 0.949 . S
C5199 H5194 0.950 . S
C5199 C5201 1.327 . S
C5199 C5205 1.429 . S
C5200 C5192 1.574 . S
C5200 H5195 0.949 . S
C5200 C5206 1.368 . S
C5201 C5185 1.349 . S
C5201 H5193 0.950 . S
C5201 C5199 1.327 . S
C5202 C5190 1.349 . S
C5202 H5196 0.950 . S
C5202 C5203 1.327 . S
C5203 H5197 0.950 . S
C5203 C5202 1.327 . S
C5203 C5207 1.429 . S
C5204 C5187 1.574 . S
C5204 H5198 0.949 . S
C5204 C5208 1.368 . S
C5205 C5186 1.429 . S
C5205 C5199 1.429 . S
C5205 C5206 1.523 . S
C5206 C5187 1.368 . S
C5206 C5200 1.368 . S
C5206 C5205 1.523 . S
C5207 C5191 1.429 . S
C5207 C5203 1.429 . S
C5207 C5208 1.523 . S
C5208 C5192 1.368 . S
C5208 C5204 1.368 . S
C5208 C5207 1.523 . S
H5209 C5184 0.950 . S
H5210 C5186 0.950 . S
H5211 C5187 0.949 . S
H5212 C5189 0.950 . S
H5213 C5191 0.950 . S
C5214 C5215 1.349 . S
C5214 C5216 1.327 . S
C5214 H5239 0.950 . S
C5215 C5214 1.349 . S
C5215 C5231 1.349 . S
C5216 C5214 1.327 . S
C5216 C5235 1.429 . S
C5216 H5240 0.950 . S
C5217 C5234 1.574 . S
C5217 C5236 1.368 . S
C5217 H5241 0.949 . S
H5218 C5222 0.949 . S
C5219 C5220 1.349 . S
C5219 C5221 1.327 . S
C5219 H5242 0.950 . S
C5220 C5219 1.349 . S
C5220 C5232 1.349 . S
C5221 C5219 1.327 . S
C5221 C5237 1.429 . S
C5221 H5243 0.950 . S
C5222 H5218 0.949 . S
C5222 C5230 1.574 . S
C5222 C5238 1.368 . S
H5223 C5231 0.950 . S
H5224 C5229 0.950 . S
H5225 C5230 0.949 . S
H5226 C5232 0.950 . S
H5227 C5233 0.950 . S
H5228 C5234 0.949 . S
C5229 H5224 0.950 . S
C5229 C5231 1.327 . S
C5229 C5235 1.429 . S
C5230 C5222 1.574 . S
C5230 H5225 0.949 . S
C5230 C5236 1.368 . S
C5231 C5215 1.349 . S
C5231 H5223 0.950 . S
C5231 C5229 1.327 . S
C5232 C5220 1.349 . S
C5232 H5226 0.950 . S
C5232 C5233 1.327 . S
C5233 H5227 0.950 . S
C5233 C5232 1.327 . S
C5233 C5237 1.429 . S
C5234 C5217 1.574 . S
C5234 H5228 0.949 . S
C5234 C5238 1.368 . S
C5235 C5216 1.429 . S
C5235 C5229 1.429 . S
C5235 C5236 1.523 . S
C5236 C5217 1.368 . S
C5236 C5230 1.368 . S
C5236 C5235 1.523 . S
C5237 C5221 1.429 . S
C5237 C5233 1.429 . S
C5237 C5238 1.523 . S
C5238 C5222 1.368 . S
C5238 C5234 1.368 . S
C5238 C5237 1.523 . S
H5239 C5214 0.950 . S
H5240 C5216 0.950 . S
H5241 C5217 0.949 . S
H5242 C5219 0.950 . S
H5243 C5221 0.950 . S
C5244 C5245 1.349 . S
C5244 C5246 1.327 . S
C5244 H5269 0.950 . S
C5245 C5244 1.349 . S
C5245 C5261 1.349 . S
C5246 C5244 1.327 . S
C5246 C5265 1.429 . S
C5246 H5270 0.950 . S
C5247 C5264 1.574 . S
C5247 C5266 1.368 . S
C5247 H5271 0.949 . S
H5248 C5252 0.949 . S
C5249 C5250 1.349 . S
C5249 C5251 1.327 . S
C5249 H5272 0.950 . S
C5250 C5249 1.349 . S
C5250 C5262 1.349 . S
C5251 C5249 1.327 . S
C5251 C5267 1.429 . S
C5251 H5273 0.950 . S
C5252 H5248 0.949 . S
C5252 C5260 1.574 . S
C5252 C5268 1.368 . S
H5253 C5261 0.950 . S
H5254 C5259 0.950 . S
H5255 C5260 0.949 . S
H5256 C5262 0.950 . S
H5257 C5263 0.950 . S
H5258 C5264 0.949 . S
C5259 H5254 0.950 . S
C5259 C5261 1.327 . S
C5259 C5265 1.429 . S
C5260 C5252 1.574 . S
C5260 H5255 0.949 . S
C5260 C5266 1.368 . S
C5261 C5245 1.349 . S
C5261 H5253 0.950 . S
C5261 C5259 1.327 . S
C5262 C5250 1.349 . S
C5262 H5256 0.950 . S
C5262 C5263 1.327 . S
C5263 H5257 0.950 . S
C5263 C5262 1.327 . S
C5263 C5267 1.429 . S
C5264 C5247 1.574 . S
C5264 H5258 0.949 . S
C5264 C5268 1.368 . S
C5265 C5246 1.429 . S
C5265 C5259 1.429 . S
C5265 C5266 1.523 . S
C5266 C5247 1.368 . S
C5266 C5260 1.368 . S
C5266 C5265 1.523 . S
C5267 C5251 1.429 . S
C5267 C5263 1.429 . S
C5267 C5268 1.523 . S
C5268 C5252 1.368 . S
C5268 C5264 1.368 . S
C5268 C5267 1.523 . S
H5269 C5244 0.950 . S
H5270 C5246 0.950 . S
H5271 C5247 0.949 . S
H5272 C5249 0.950 . S
H5273 C5251 0.950 . S
C5274 C5275 1.349 . S
C5274 C5276 1.327 . S
C5274 H5299 0.950 . S
C5275 C5274 1.349 . S
C5275 C5291 1.349 . S
C5276 C5274 1.327 . S
C5276 C5295 1.429 . S
C5276 H5300 0.950 . S
C5277 C5294 1.574 . S
C5277 C5296 1.368 . S
C5277 H5301 0.949 . S
H5278 C5282 0.949 . S
C5279 C5280 1.349 . S
C5279 C5281 1.327 . S
C5279 H5302 0.950 . S
C5280 C5279 1.349 . S
C5280 C5292 1.349 . S
C5281 C5279 1.327 . S
C5281 C5297 1.429 . S
C5281 H5303 0.950 . S
C5282 H5278 0.949 . S
C5282 C5290 1.574 . S
C5282 C5298 1.368 . S
H5283 C5291 0.950 . S
H5284 C5289 0.950 . S
H5285 C5290 0.949 . S
H5286 C5292 0.950 . S
H5287 C5293 0.950 . S
H5288 C5294 0.949 . S
C5289 H5284 0.950 . S
C5289 C5291 1.327 . S
C5289 C5295 1.429 . S
C5290 C5282 1.574 . S
C5290 H5285 0.949 . S
C5290 C5296 1.368 . S
C5291 C5275 1.349 . S
C5291 H5283 0.950 . S
C5291 C5289 1.327 . S
C5292 C5280 1.349 . S
C5292 H5286 0.950 . S
C5292 C5293 1.327 . S
C5293 H5287 0.950 . S
C5293 C5292 1.327 . S
C5293 C5297 1.429 . S
C5294 C5277 1.574 . S
C5294 H5288 0.949 . S
C5294 C5298 1.368 . S
C5295 C5276 1.429 . S
C5295 C5289 1.429 . S
C5295 C5296 1.523 . S
C5296 C5277 1.368 . S
C5296 C5290 1.368 . S
C5296 C5295 1.523 . S
C5297 C5281 1.429 . S
C5297 C5293 1.429 . S
C5297 C5298 1.523 . S
C5298 C5282 1.368 . S
C5298 C5294 1.368 . S
C5298 C5297 1.523 . S
H5299 C5274 0.950 . S
H5300 C5276 0.950 . S
H5301 C5277 0.949 . S
H5302 C5279 0.950 . S
H5303 C5281 0.950 . S
C5304 C5305 1.349 . S
C5304 C5306 1.327 . S
C5304 H5329 0.950 . S
C5305 C5304 1.349 . S
C5305 C5321 1.349 . S
C5306 C5304 1.327 . S
C5306 C5325 1.429 . S
C5306 H5330 0.950 . S
C5307 C5324 1.574 . S
C5307 C5326 1.368 . S
C5307 H5331 0.949 . S
H5308 C5312 0.949 . S
C5309 C5310 1.349 . S
C5309 C5311 1.327 . S
C5309 H5332 0.950 . S
C5310 C5309 1.349 . S
C5310 C5322 1.349 . S
C5311 C5309 1.327 . S
C5311 C5327 1.429 . S
C5311 H5333 0.950 . S
C5312 H5308 0.949 . S
C5312 C5320 1.574 . S
C5312 C5328 1.368 . S
H5313 C5321 0.950 . S
H5314 C5319 0.950 . S
H5315 C5320 0.949 . S
H5316 C5322 0.950 . S
H5317 C5323 0.950 . S
H5318 C5324 0.949 . S
C5319 H5314 0.950 . S
C5319 C5321 1.327 . S
C5319 C5325 1.429 . S
C5320 C5312 1.574 . S
C5320 H5315 0.949 . S
C5320 C5326 1.368 . S
C5321 C5305 1.349 . S
C5321 H5313 0.950 . S
C5321 C5319 1.327 . S
C5322 C5310 1.349 . S
C5322 H5316 0.950 . S
C5322 C5323 1.327 . S
C5323 H5317 0.950 . S
C5323 C5322 1.327 . S
C5323 C5327 1.429 . S
C5324 C5307 1.574 . S
C5324 H5318 0.949 . S
C5324 C5328 1.368 . S
C5325 C5306 1.429 . S
C5325 C5319 1.429 . S
C5325 C5326 1.523 . S
C5326 C5307 1.368 . S
C5326 C5320 1.368 . S
C5326 C5325 1.523 . S
C5327 C5311 1.429 . S
C5327 C5323 1.429 . S
C5327 C5328 1.523 . S
C5328 C5312 1.368 . S
C5328 C5324 1.368 . S
C5328 C5327 1.523 . S
H5329 C5304 0.950 . S
H5330 C5306 0.950 . S
H5331 C5307 0.949 . S
H5332 C5309 0.950 . S
H5333 C5311 0.950 . S
C5334 C5335 1.349 . S
C5334 C5336 1.327 . S
C5334 H5359 0.950 . S
C5335 C5334 1.349 . S
C5335 C5351 1.349 . S
C5336 C5334 1.327 . S
C5336 C5355 1.429 . S
C5336 H5360 0.950 . S
C5337 C5354 1.574 . S
C5337 C5356 1.368 . S
C5337 H5361 0.949 . S
H5338 C5342 0.949 . S
C5339 C5340 1.349 . S
C5339 C5341 1.327 . S
C5339 H5362 0.950 . S
C5340 C5339 1.349 . S
C5340 C5352 1.349 . S
C5341 C5339 1.327 . S
C5341 C5357 1.429 . S
C5341 H5363 0.950 . S
C5342 H5338 0.949 . S
C5342 C5350 1.574 . S
C5342 C5358 1.368 . S
H5343 C5351 0.950 . S
H5344 C5349 0.950 . S
H5345 C5350 0.949 . S
H5346 C5352 0.950 . S
H5347 C5353 0.950 . S
H5348 C5354 0.949 . S
C5349 H5344 0.950 . S
C5349 C5351 1.327 . S
C5349 C5355 1.429 . S
C5350 C5342 1.574 . S
C5350 H5345 0.949 . S
C5350 C5356 1.368 . S
C5351 C5335 1.349 . S
C5351 H5343 0.950 . S
C5351 C5349 1.327 . S
C5352 C5340 1.349 . S
C5352 H5346 0.950 . S
C5352 C5353 1.327 . S
C5353 H5347 0.950 . S
C5353 C5352 1.327 . S
C5353 C5357 1.429 . S
C5354 C5337 1.574 . S
C5354 H5348 0.949 . S
C5354 C5358 1.368 . S
C5355 C5336 1.429 . S
C5355 C5349 1.429 . S
C5355 C5356 1.523 . S
C5356 C5337 1.368 . S
C5356 C5350 1.368 . S
C5356 C5355 1.523 . S
C5357 C5341 1.429 . S
C5357 C5353 1.429 . S
C5357 C5358 1.523 . S
C5358 C5342 1.368 . S
C5358 C5354 1.368 . S
C5358 C5357 1.523 . S
H5359 C5334 0.950 . S
H5360 C5336 0.950 . S
H5361 C5337 0.949 . S
H5362 C5339 0.950 . S
H5363 C5341 0.950 . S
C5364 C5365 1.349 . S
C5364 C5366 1.327 . S
C5364 H5389 0.950 . S
C5365 C5364 1.349 . S
C5365 C5381 1.349 . S
C5366 C5364 1.327 . S
C5366 C5385 1.429 . S
C5366 H5390 0.950 . S
C5367 C5384 1.574 . S
C5367 C5386 1.368 . S
C5367 H5391 0.949 . S
H5368 C5372 0.949 . S
C5369 C5370 1.349 . S
C5369 C5371 1.327 . S
C5369 H5392 0.950 . S
C5370 C5369 1.349 . S
C5370 C5382 1.349 . S
C5371 C5369 1.327 . S
C5371 C5387 1.429 . S
C5371 H5393 0.950 . S
C5372 H5368 0.949 . S
C5372 C5380 1.574 . S
C5372 C5388 1.368 . S
H5373 C5381 0.950 . S
H5374 C5379 0.950 . S
H5375 C5380 0.949 . S
H5376 C5382 0.950 . S
H5377 C5383 0.950 . S
H5378 C5384 0.949 . S
C5379 H5374 0.950 . S
C5379 C5381 1.327 . S
C5379 C5385 1.429 . S
C5380 C5372 1.574 . S
C5380 H5375 0.949 . S
C5380 C5386 1.368 . S
C5381 C5365 1.349 . S
C5381 H5373 0.950 . S
C5381 C5379 1.327 . S
C5382 C5370 1.349 . S
C5382 H5376 0.950 . S
C5382 C5383 1.327 . S
C5383 H5377 0.950 . S
C5383 C5382 1.327 . S
C5383 C5387 1.429 . S
C5384 C5367 1.574 . S
C5384 H5378 0.949 . S
C5384 C5388 1.368 . S
C5385 C5366 1.429 . S
C5385 C5379 1.429 . S
C5385 C5386 1.523 . S
C5386 C5367 1.368 . S
C5386 C5380 1.368 . S
C5386 C5385 1.523 . S
C5387 C5371 1.429 . S
C5387 C5383 1.429 . S
C5387 C5388 1.523 . S
C5388 C5372 1.368 . S
C5388 C5384 1.368 . S
C5388 C5387 1.523 . S
H5389 C5364 0.950 . S
H5390 C5366 0.950 . S
H5391 C5367 0.949 . S
H5392 C5369 0.950 . S
H5393 C5371 0.950 . S
C5394 C5395 1.349 . S
C5394 C5396 1.327 . S
C5394 H5419 0.950 . S
C5395 C5394 1.349 . S
C5395 C5411 1.349 . S
C5396 C5394 1.327 . S
C5396 C5415 1.429 . S
C5396 H5420 0.950 . S
C5397 C5414 1.574 . S
C5397 C5416 1.368 . S
C5397 H5421 0.949 . S
H5398 C5402 0.949 . S
C5399 C5400 1.349 . S
C5399 C5401 1.327 . S
C5399 H5422 0.950 . S
C5400 C5399 1.349 . S
C5400 C5412 1.349 . S
C5401 C5399 1.327 . S
C5401 C5417 1.429 . S
C5401 H5423 0.950 . S
C5402 H5398 0.949 . S
C5402 C5410 1.574 . S
C5402 C5418 1.368 . S
H5403 C5411 0.950 . S
H5404 C5409 0.950 . S
H5405 C5410 0.949 . S
H5406 C5412 0.950 . S
H5407 C5413 0.950 . S
H5408 C5414 0.949 . S
C5409 H5404 0.950 . S
C5409 C5411 1.327 . S
C5409 C5415 1.429 . S
C5410 C5402 1.574 . S
C5410 H5405 0.949 . S
C5410 C5416 1.368 . S
C5411 C5395 1.349 . S
C5411 H5403 0.950 . S
C5411 C5409 1.327 . S
C5412 C5400 1.349 . S
C5412 H5406 0.950 . S
C5412 C5413 1.327 . S
C5413 H5407 0.950 . S
C5413 C5412 1.327 . S
C5413 C5417 1.429 . S
C5414 C5397 1.574 . S
C5414 H5408 0.949 . S
C5414 C5418 1.368 . S
C5415 C5396 1.429 . S
C5415 C5409 1.429 . S
C5415 C5416 1.523 . S
C5416 C5397 1.368 . S
C5416 C5410 1.368 . S
C5416 C5415 1.523 . S
C5417 C5401 1.429 . S
C5417 C5413 1.429 . S
C5417 C5418 1.523 . S
C5418 C5402 1.368 . S
C5418 C5414 1.368 . S
C5418 C5417 1.523 . S
H5419 C5394 0.950 . S
H5420 C5396 0.950 . S
H5421 C5397 0.949 . S
H5422 C5399 0.950 . S
H5423 C5401 0.950 . S
C5424 C5425 1.349 . S
C5424 C5426 1.327 . S
C5424 H5449 0.950 . S
C5425 C5424 1.349 . S
C5425 C5441 1.349 . S
C5426 C5424 1.327 . S
C5426 C5445 1.429 . S
C5426 H5450 0.950 . S
C5427 C5444 1.574 . S
C5427 C5446 1.368 . S
C5427 H5451 0.949 . S
H5428 C5432 0.949 . S
C5429 C5430 1.349 . S
C5429 C5431 1.327 . S
C5429 H5452 0.950 . S
C5430 C5429 1.349 . S
C5430 C5442 1.349 . S
C5431 C5429 1.327 . S
C5431 C5447 1.429 . S
C5431 H5453 0.950 . S
C5432 H5428 0.949 . S
C5432 C5440 1.574 . S
C5432 C5448 1.368 . S
H5433 C5441 0.950 . S
H5434 C5439 0.950 . S
H5435 C5440 0.949 . S
H5436 C5442 0.950 . S
H5437 C5443 0.950 . S
H5438 C5444 0.949 . S
C5439 H5434 0.950 . S
C5439 C5441 1.327 . S
C5439 C5445 1.429 . S
C5440 C5432 1.574 . S
C5440 H5435 0.949 . S
C5440 C5446 1.368 . S
C5441 C5425 1.349 . S
C5441 H5433 0.950 . S
C5441 C5439 1.327 . S
C5442 C5430 1.349 . S
C5442 H5436 0.950 . S
C5442 C5443 1.327 . S
C5443 H5437 0.950 . S
C5443 C5442 1.327 . S
C5443 C5447 1.429 . S
C5444 C5427 1.574 . S
C5444 H5438 0.949 . S
C5444 C5448 1.368 . S
C5445 C5426 1.429 . S
C5445 C5439 1.429 . S
C5445 C5446 1.523 . S
C5446 C5427 1.368 . S
C5446 C5440 1.368 . S
C5446 C5445 1.523 . S
C5447 C5431 1.429 . S
C5447 C5443 1.429 . S
C5447 C5448 1.523 . S
C5448 C5432 1.368 . S
C5448 C5444 1.368 . S
C5448 C5447 1.523 . S
H5449 C5424 0.950 . S
H5450 C5426 0.950 . S
H5451 C5427 0.949 . S
H5452 C5429 0.950 . S
H5453 C5431 0.950 . S
C5454 C5455 1.349 . S
C5454 C5456 1.327 . S
C5454 H5479 0.950 . S
C5455 C5454 1.349 . S
C5455 C5471 1.349 . S
C5456 C5454 1.327 . S
C5456 C5475 1.429 . S
C5456 H5480 0.950 . S
C5457 C5474 1.574 . S
C5457 C5476 1.368 . S
C5457 H5481 0.949 . S
H5458 C5462 0.949 . S
C5459 C5460 1.349 . S
C5459 C5461 1.327 . S
C5459 H5482 0.950 . S
C5460 C5459 1.349 . S
C5460 C5472 1.349 . S
C5461 C5459 1.327 . S
C5461 C5477 1.429 . S
C5461 H5483 0.950 . S
C5462 H5458 0.949 . S
C5462 C5470 1.574 . S
C5462 C5478 1.368 . S
H5463 C5471 0.950 . S
H5464 C5469 0.950 . S
H5465 C5470 0.949 . S
H5466 C5472 0.950 . S
H5467 C5473 0.950 . S
H5468 C5474 0.949 . S
C5469 H5464 0.950 . S
C5469 C5471 1.327 . S
C5469 C5475 1.429 . S
C5470 C5462 1.574 . S
C5470 H5465 0.949 . S
C5470 C5476 1.368 . S
C5471 C5455 1.349 . S
C5471 H5463 0.950 . S
C5471 C5469 1.327 . S
C5472 C5460 1.349 . S
C5472 H5466 0.950 . S
C5472 C5473 1.327 . S
C5473 H5467 0.950 . S
C5473 C5472 1.327 . S
C5473 C5477 1.429 . S
C5474 C5457 1.574 . S
C5474 H5468 0.949 . S
C5474 C5478 1.368 . S
C5475 C5456 1.429 . S
C5475 C5469 1.429 . S
C5475 C5476 1.523 . S
C5476 C5457 1.368 . S
C5476 C5470 1.368 . S
C5476 C5475 1.523 . S
C5477 C5461 1.429 . S
C5477 C5473 1.429 . S
C5477 C5478 1.523 . S
C5478 C5462 1.368 . S
C5478 C5474 1.368 . S
C5478 C5477 1.523 . S
H5479 C5454 0.950 . S
H5480 C5456 0.950 . S
H5481 C5457 0.949 . S
H5482 C5459 0.950 . S
H5483 C5461 0.950 . S
C5484 C5485 1.349 . S
C5484 C5486 1.327 . S
C5484 H5509 0.950 . S
C5485 C5484 1.349 . S
C5485 C5501 1.349 . S
C5486 C5484 1.327 . S
C5486 C5505 1.429 . S
C5486 H5510 0.950 . S
C5487 C5504 1.574 . S
C5487 C5506 1.446 . S
C5487 H5511 0.949 . S
H5488 C5492 0.949 . S
C5489 C5490 1.349 . S
C5489 C5491 1.327 . S
C5489 H5512 0.950 . S
C5490 C5489 1.349 . S
C5490 C5502 1.349 . S
C5491 C5489 1.327 . S
C5491 C5507 1.429 . S
C5491 H5513 0.950 . S
C5492 H5488 0.949 . S
C5492 C5500 1.609 . S
C5492 C5508 1.368 . S
H5493 C5501 0.950 . S
H5494 C5499 0.950 . S
H5495 C5500 0.915 1_556 S
H5496 C5502 0.950 . S
H5497 C5503 0.950 . S
H5498 C5504 0.949 . S
C5499 H5494 0.950 . S
C5499 C5501 1.327 . S
C5499 C5505 1.429 . S
C5500 C5492 1.609 . S
C5500 H5495 0.915 1_554 S
C5500 C5506 1.366 . S
C5501 C5485 1.349 . S
C5501 H5493 0.950 . S
C5501 C5499 1.327 . S
C5502 C5490 1.349 . S
C5502 H5496 0.950 . S
C5502 C5503 1.327 . S
C5503 H5497 0.950 . S
C5503 C5502 1.327 . S
C5503 C5507 1.429 . S
C5504 C5487 1.574 . S
C5504 H5498 0.949 . S
C5504 C5508 1.368 . S
C5505 C5486 1.429 . S
C5505 C5499 1.429 . S
C5505 C5506 1.433 1_556 S
C5506 C5487 1.446 . S
C5506 C5500 1.366 . S
C5506 C5505 1.433 1_554 S
C5507 C5491 1.429 . S
C5507 C5503 1.429 . S
C5507 C5508 1.523 . S
C5508 C5492 1.368 . S
C5508 C5504 1.368 . S
C5508 C5507 1.523 . S
H5509 C5484 0.950 . S
H5510 C5486 0.950 . S
H5511 C5487 0.949 . S
H5512 C5489 0.950 . S
H5513 C5491 0.950 . S
C5514 C5515 1.349 . S
C5514 C5516 1.327 . S
C5514 H5539 0.950 . S
C5515 C5514 1.349 . S
C5515 C5531 1.349 . S
C5516 C5514 1.327 . S
C5516 C5535 1.429 . S
C5516 H5540 0.950 . S
C5517 C5534 1.574 . S
C5517 C5536 1.368 . S
C5517 H5541 0.949 . S
H5518 C5522 0.949 . S
C5519 C5520 1.349 . S
C5519 C5521 1.327 . S
C5519 H5542 0.950 . S
C5520 C5519 1.349 . S
C5520 C5532 1.349 . S
C5521 C5519 1.327 . S
C5521 C5537 1.429 . S
C5521 H5543 0.950 . S
C5522 H5518 0.949 . S
C5522 C5530 1.574 . S
C5522 C5538 1.368 . S
H5523 C5531 0.950 . S
H5524 C5529 0.950 . S
H5525 C5530 0.949 . S
H5526 C5532 0.950 . S
H5527 C5533 0.950 . S
H5528 C5534 0.949 . S
C5529 H5524 0.950 . S
C5529 C5531 1.327 . S
C5529 C5535 1.429 . S
C5530 C5522 1.574 . S
C5530 H5525 0.949 . S
C5530 C5536 1.368 . S
C5531 C5515 1.349 . S
C5531 H5523 0.950 . S
C5531 C5529 1.327 . S
C5532 C5520 1.349 . S
C5532 H5526 0.950 . S
C5532 C5533 1.327 . S
C5533 H5527 0.950 . S
C5533 C5532 1.327 . S
C5533 C5537 1.429 . S
C5534 C5517 1.574 . S
C5534 H5528 0.949 . S
C5534 C5538 1.368 . S
C5535 C5516 1.429 . S
C5535 C5529 1.429 . S
C5535 C5536 1.523 . S
C5536 C5517 1.368 . S
C5536 C5530 1.368 . S
C5536 C5535 1.523 . S
C5537 C5521 1.429 . S
C5537 C5533 1.429 . S
C5537 C5538 1.523 . S
C5538 C5522 1.368 . S
C5538 C5534 1.368 . S
C5538 C5537 1.523 . S
H5539 C5514 0.950 . S
H5540 C5516 0.950 . S
H5541 C5517 0.949 . S
H5542 C5519 0.950 . S
H5543 C5521 0.950 . S
C5544 C5545 1.349 . S
C5544 C5546 1.327 . S
C5544 H5569 0.950 . S
C5545 C5544 1.349 . S
C5545 C5561 1.349 . S
C5546 C5544 1.327 . S
C5546 C5565 1.429 . S
C5546 H5570 0.950 . S
C5547 C5564 1.574 . S
C5547 C5566 1.326 1_556 S
C5547 H5571 0.949 . S
H5548 C5552 0.949 . S
C5549 C5550 1.349 . S
C5549 C5551 1.327 . S
C5549 H5572 0.950 . S
C5550 C5549 1.349 . S
C5550 C5562 1.349 . S
C5551 C5549 1.327 . S
C5551 C5567 1.429 . S
C5551 H5573 0.950 . S
C5552 H5548 0.949 . S
C5552 C5560 1.511 1_556 S
C5552 C5568 1.368 . S
H5553 C5561 0.950 . S
H5554 C5559 0.950 . S
H5555 C5560 0.995 . S
H5556 C5562 0.950 . S
H5557 C5563 0.950 . S
H5558 C5564 0.949 . S
C5559 H5554 0.950 . S
C5559 C5561 1.327 . S
C5559 C5565 1.429 . S
C5560 C5552 1.511 1_554 S
C5560 H5555 0.995 . S
C5560 C5566 1.364 . S
C5561 C5545 1.349 . S
C5561 H5553 0.950 . S
C5561 C5559 1.327 . S
C5562 C5550 1.349 . S
C5562 H5556 0.950 . S
C5562 C5563 1.327 . S
C5563 H5557 0.950 . S
C5563 C5562 1.327 . S
C5563 C5567 1.429 . S
C5564 C5547 1.574 . S
C5564 H5558 0.949 . S
C5564 C5568 1.368 . S
C5565 C5546 1.429 . S
C5565 C5559 1.429 . S
C5565 C5566 1.605 . S
C5566 C5547 1.326 1_554 S
C5566 C5560 1.364 . S
C5566 C5565 1.605 . S
C5567 C5551 1.429 . S
C5567 C5563 1.429 . S
C5567 C5568 1.523 . S
C5568 C5552 1.368 . S
C5568 C5564 1.368 . S
C5568 C5567 1.523 . S
H5569 C5544 0.950 . S
H5570 C5546 0.950 . S
H5571 C5547 0.949 . S
H5572 C5549 0.950 . S
H5573 C5551 0.950 . S
C5574 C5575 1.349 . S
C5574 C5576 1.327 . S
C5574 H5599 0.950 . S
C5575 C5574 1.349 . S
C5575 C5591 1.349 . S
C5576 C5574 1.327 . S
C5576 C5595 1.429 . S
C5576 H5600 0.950 . S
C5577 C5594 1.574 . S
C5577 C5596 1.368 . S
C5577 H5601 0.949 . S
H5578 C5582 0.949 . S
C5579 C5580 1.349 . S
C5579 C5581 1.327 . S
C5579 H5602 0.950 . S
C5580 C5579 1.349 . S
C5580 C5592 1.349 . S
C5581 C5579 1.327 . S
C5581 C5597 1.429 . S
C5581 H5603 0.950 . S
C5582 H5578 0.949 . S
C5582 C5590 1.574 . S
C5582 C5598 1.368 . S
H5583 C5591 0.950 . S
H5584 C5589 0.950 . S
H5585 C5590 0.949 . S
H5586 C5592 0.950 . S
H5587 C5593 0.950 . S
H5588 C5594 0.949 . S
C5589 H5584 0.950 . S
C5589 C5591 1.327 . S
C5589 C5595 1.429 . S
C5590 C5582 1.574 . S
C5590 H5585 0.949 . S
C5590 C5596 1.368 . S
C5591 C5575 1.349 . S
C5591 H5583 0.950 . S
C5591 C5589 1.327 . S
C5592 C5580 1.349 . S
C5592 H5586 0.950 . S
C5592 C5593 1.327 . S
C5593 H5587 0.950 . S
C5593 C5592 1.327 . S
C5593 C5597 1.429 . S
C5594 C5577 1.574 . S
C5594 H5588 0.949 . S
C5594 C5598 1.368 . S
C5595 C5576 1.429 . S
C5595 C5589 1.429 . S
C5595 C5596 1.523 . S
C5596 C5577 1.368 . S
C5596 C5590 1.368 . S
C5596 C5595 1.523 . S
C5597 C5581 1.429 . S
C5597 C5593 1.429 . S
C5597 C5598 1.523 . S
C5598 C5582 1.368 . S
C5598 C5594 1.368 . S
C5598 C5597 1.523 . S
H5599 C5574 0.950 . S
H5600 C5576 0.950 . S
H5601 C5577 0.949 . S
H5602 C5579 0.950 . S
H5603 C5581 0.950 . S
C5604 C5605 1.349 . S
C5604 C5606 1.327 . S
C5604 H5629 0.950 . S
C5605 C5604 1.349 . S
C5605 C5621 1.349 . S
C5606 C5604 1.327 . S
C5606 C5625 1.429 . S
C5606 H5630 0.950 . S
C5607 C5624 1.574 . S
C5607 C5626 1.368 . S
C5607 H5631 0.949 . S
H5608 C5612 0.949 . S
C5609 C5610 1.349 . S
C5609 C5611 1.327 . S
C5609 H5632 0.950 . S
C5610 C5609 1.349 . S
C5610 C5622 1.349 . S
C5611 C5609 1.327 . S
C5611 C5627 1.429 . S
C5611 H5633 0.950 . S
C5612 H5608 0.949 . S
C5612 C5620 1.574 . S
C5612 C5628 1.368 . S
H5613 C5621 0.950 . S
H5614 C5619 0.950 . S
H5615 C5620 0.949 . S
H5616 C5622 0.950 . S
H5617 C5623 0.950 . S
H5618 C5624 0.949 . S
C5619 H5614 0.950 . S
C5619 C5621 1.327 . S
C5619 C5625 1.429 . S
C5620 C5612 1.574 . S
C5620 H5615 0.949 . S
C5620 C5626 1.368 . S
C5621 C5605 1.349 . S
C5621 H5613 0.950 . S
C5621 C5619 1.327 . S
C5622 C5610 1.349 . S
C5622 H5616 0.950 . S
C5622 C5623 1.327 . S
C5623 H5617 0.950 . S
C5623 C5622 1.327 . S
C5623 C5627 1.429 . S
C5624 C5607 1.574 . S
C5624 H5618 0.949 . S
C5624 C5628 1.368 . S
C5625 C5606 1.429 . S
C5625 C5619 1.429 . S
C5625 C5626 1.523 . S
C5626 C5607 1.368 . S
C5626 C5620 1.368 . S
C5626 C5625 1.523 . S
C5627 C5611 1.429 . S
C5627 C5623 1.429 . S
C5627 C5628 1.523 . S
C5628 C5612 1.368 . S
C5628 C5624 1.368 . S
C5628 C5627 1.523 . S
H5629 C5604 0.950 . S
H5630 C5606 0.950 . S
H5631 C5607 0.949 . S
H5632 C5609 0.950 . S
H5633 C5611 0.950 . S
C5634 C5635 1.349 . S
C5634 C5636 1.327 . S
C5634 H5659 0.950 . S
C5635 C5634 1.349 . S
C5635 C5651 1.349 . S
C5636 C5634 1.327 . S
C5636 C5655 1.429 . S
C5636 H5660 0.950 . S
C5637 C5654 1.574 . S
C5637 C5656 1.368 . S
C5637 H5661 0.949 . S
H5638 C5642 0.949 . S
C5639 C5640 1.349 . S
C5639 C5641 1.327 . S
C5639 H5662 0.950 . S
C5640 C5639 1.349 . S
C5640 C5652 1.349 . S
C5641 C5639 1.327 . S
C5641 C5657 1.429 . S
C5641 H5663 0.950 . S
C5642 H5638 0.949 . S
C5642 C5650 1.574 . S
C5642 C5658 1.368 . S
H5643 C5651 0.950 . S
H5644 C5649 0.950 . S
H5645 C5650 0.949 . S
H5646 C5652 0.950 . S
H5647 C5653 0.950 . S
H5648 C5654 0.949 . S
C5649 H5644 0.950 . S
C5649 C5651 1.327 . S
C5649 C5655 1.429 . S
C5650 C5642 1.574 . S
C5650 H5645 0.949 . S
C5650 C5656 1.368 . S
C5651 C5635 1.349 . S
C5651 H5643 0.950 . S
C5651 C5649 1.327 . S
C5652 C5640 1.349 . S
C5652 H5646 0.950 . S
C5652 C5653 1.327 . S
C5653 H5647 0.950 . S
C5653 C5652 1.327 . S
C5653 C5657 1.429 . S
C5654 C5637 1.574 . S
C5654 H5648 0.949 . S
C5654 C5658 1.368 . S
C5655 C5636 1.429 . S
C5655 C5649 1.429 . S
C5655 C5656 1.523 . S
C5656 C5637 1.368 . S
C5656 C5650 1.368 . S
C5656 C5655 1.523 . S
C5657 C5641 1.429 . S
C5657 C5653 1.429 . S
C5657 C5658 1.523 . S
C5658 C5642 1.368 . S
C5658 C5654 1.368 . S
C5658 C5657 1.523 . S
H5659 C5634 0.950 . S
H5660 C5636 0.950 . S
H5661 C5637 0.949 . S
H5662 C5639 0.950 . S
H5663 C5641 0.950 . S
C5664 C5665 1.349 . S
C5664 C5666 1.327 . S
C5664 H5689 0.950 . S
C5665 C5664 1.349 . S
C5665 C5681 1.349 . S
C5666 C5664 1.327 . S
C5666 C5685 1.429 . S
C5666 H5690 0.950 . S
C5667 C5684 1.574 . S
C5667 C5686 1.368 . S
C5667 H5691 0.949 . S
H5668 C5672 0.949 . S
C5669 C5670 1.349 . S
C5669 C5671 1.327 . S
C5669 H5692 0.950 . S
C5670 C5669 1.349 . S
C5670 C5682 1.349 . S
C5671 C5669 1.327 . S
C5671 C5687 1.429 . S
C5671 H5693 0.950 . S
C5672 H5668 0.949 . S
C5672 C5680 1.574 . S
C5672 C5688 1.368 . S
H5673 C5681 0.950 . S
H5674 C5679 0.950 . S
H5675 C5680 0.949 . S
H5676 C5682 0.950 . S
H5677 C5683 0.950 . S
H5678 C5684 0.949 . S
C5679 H5674 0.950 . S
C5679 C5681 1.327 . S
C5679 C5685 1.429 . S
C5680 C5672 1.574 . S
C5680 H5675 0.949 . S
C5680 C5686 1.368 . S
C5681 C5665 1.349 . S
C5681 H5673 0.950 . S
C5681 C5679 1.327 . S
C5682 C5670 1.349 . S
C5682 H5676 0.950 . S
C5682 C5683 1.327 . S
C5683 H5677 0.950 . S
C5683 C5682 1.327 . S
C5683 C5687 1.429 . S
C5684 C5667 1.574 . S
C5684 H5678 0.949 . S
C5684 C5688 1.368 . S
C5685 C5666 1.429 . S
C5685 C5679 1.429 . S
C5685 C5686 1.523 . S
C5686 C5667 1.368 . S
C5686 C5680 1.368 . S
C5686 C5685 1.523 . S
C5687 C5671 1.429 . S
C5687 C5683 1.429 . S
C5687 C5688 1.523 . S
C5688 C5672 1.368 . S
C5688 C5684 1.368 . S
C5688 C5687 1.523 . S
H5689 C5664 0.950 . S
H5690 C5666 0.950 . S
H5691 C5667 0.949 . S
H5692 C5669 0.950 . S
H5693 C5671 0.950 . S
C5694 C5695 1.349 . S
C5694 C5696 1.327 . S
C5694 H5719 0.950 . S
C5695 C5694 1.349 . S
C5695 C5711 1.349 . S
C5696 C5694 1.327 . S
C5696 C5715 1.429 . S
C5696 H5720 0.950 . S
C5697 C5714 1.574 . S
C5697 C5716 1.368 . S
C5697 H5721 0.949 . S
H5698 C5702 0.949 . S
C5699 C5700 1.349 . S
C5699 C5701 1.327 . S
C5699 H5722 0.950 . S
C5700 C5699 1.349 . S
C5700 C5712 1.349 . S
C5701 C5699 1.327 . S
C5701 C5717 1.429 . S
C5701 H5723 0.950 . S
C5702 H5698 0.949 . S
C5702 C5710 1.574 . S
C5702 C5718 1.368 . S
H5703 C5711 0.950 . S
H5704 C5709 0.950 . S
H5705 C5710 0.949 . S
H5706 C5712 0.950 . S
H5707 C5713 0.950 . S
H5708 C5714 0.949 . S
C5709 H5704 0.950 . S
C5709 C5711 1.327 . S
C5709 C5715 1.429 . S
C5710 C5702 1.574 . S
C5710 H5705 0.949 . S
C5710 C5716 1.368 . S
C5711 C5695 1.349 . S
C5711 H5703 0.950 . S
C5711 C5709 1.327 . S
C5712 C5700 1.349 . S
C5712 H5706 0.950 . S
C5712 C5713 1.327 . S
C5713 H5707 0.950 . S
C5713 C5712 1.327 . S
C5713 C5717 1.429 . S
C5714 C5697 1.574 . S
C5714 H5708 0.949 . S
C5714 C5718 1.368 . S
C5715 C5696 1.429 . S
C5715 C5709 1.429 . S
C5715 C5716 1.523 . S
C5716 C5697 1.368 . S
C5716 C5710 1.368 . S
C5716 C5715 1.523 . S
C5717 C5701 1.429 . S
C5717 C5713 1.429 . S
C5717 C5718 1.523 . S
C5718 C5702 1.368 . S
C5718 C5714 1.368 . S
C5718 C5717 1.523 . S
H5719 C5694 0.950 . S
H5720 C5696 0.950 . S
H5721 C5697 0.949 . S
H5722 C5699 0.950 . S
H5723 C5701 0.950 . S
C5724 C5725 1.349 . S
C5724 C5726 1.327 . S
C5724 H5749 0.950 . S
C5725 C5724 1.349 . S
C5725 C5741 1.349 . S
C5726 C5724 1.327 . S
C5726 C5745 1.429 . S
C5726 H5750 0.950 . S
C5727 C5744 1.574 . S
C5727 C5746 1.368 . S
C5727 H5751 0.949 . S
H5728 C5732 0.949 . S
C5729 C5730 1.349 . S
C5729 C5731 1.327 . S
C5729 H5752 0.950 . S
C5730 C5729 1.349 . S
C5730 C5742 1.349 . S
C5731 C5729 1.327 . S
C5731 C5747 1.429 . S
C5731 H5753 0.950 . S
C5732 H5728 0.949 . S
C5732 C5740 1.574 . S
C5732 C5748 1.368 . S
H5733 C5741 0.950 . S
H5734 C5739 0.950 . S
H5735 C5740 0.949 . S
H5736 C5742 0.950 . S
H5737 C5743 0.950 . S
H5738 C5744 0.949 . S
C5739 H5734 0.950 . S
C5739 C5741 1.327 . S
C5739 C5745 1.429 . S
C5740 C5732 1.574 . S
C5740 H5735 0.949 . S
C5740 C5746 1.368 . S
C5741 C5725 1.349 . S
C5741 H5733 0.950 . S
C5741 C5739 1.327 . S
C5742 C5730 1.349 . S
C5742 H5736 0.950 . S
C5742 C5743 1.327 . S
C5743 H5737 0.950 . S
C5743 C5742 1.327 . S
C5743 C5747 1.429 . S
C5744 C5727 1.574 . S
C5744 H5738 0.949 . S
C5744 C5748 1.368 . S
C5745 C5726 1.429 . S
C5745 C5739 1.429 . S
C5745 C5746 1.523 . S
C5746 C5727 1.368 . S
C5746 C5740 1.368 . S
C5746 C5745 1.523 . S
C5747 C5731 1.429 . S
C5747 C5743 1.429 . S
C5747 C5748 1.523 . S
C5748 C5732 1.368 . S
C5748 C5744 1.368 . S
C5748 C5747 1.523 . S
H5749 C5724 0.950 . S
H5750 C5726 0.950 . S
H5751 C5727 0.949 . S
H5752 C5729 0.950 . S
H5753 C5731 0.950 . S
C5754 C5755 1.349 . S
C5754 C5756 1.327 . S
C5754 H5779 0.950 . S
C5755 C5754 1.349 . S
C5755 C5771 1.349 . S
C5756 C5754 1.327 . S
C5756 C5775 1.429 . S
C5756 H5780 0.950 . S
C5757 C5774 1.574 . S
C5757 C5776 1.368 . S
C5757 H5781 0.949 . S
H5758 C5762 0.949 . S
C5759 C5760 1.349 . S
C5759 C5761 1.327 . S
C5759 H5782 0.950 . S
C5760 C5759 1.349 . S
C5760 C5772 1.349 . S
C5761 C5759 1.327 . S
C5761 C5777 1.429 . S
C5761 H5783 0.950 . S
C5762 H5758 0.949 . S
C5762 C5770 1.574 . S
C5762 C5778 1.368 . S
H5763 C5771 0.950 . S
H5764 C5769 0.950 . S
H5765 C5770 0.949 . S
H5766 C5772 0.950 . S
H5767 C5773 0.950 . S
H5768 C5774 0.949 . S
C5769 H5764 0.950 . S
C5769 C5771 1.327 . S
C5769 C5775 1.429 . S
C5770 C5762 1.574 . S
C5770 H5765 0.949 . S
C5770 C5776 1.368 . S
C5771 C5755 1.349 . S
C5771 H5763 0.950 . S
C5771 C5769 1.327 . S
C5772 C5760 1.349 . S
C5772 H5766 0.950 . S
C5772 C5773 1.327 . S
C5773 H5767 0.950 . S
C5773 C5772 1.327 . S
C5773 C5777 1.429 . S
C5774 C5757 1.574 . S
C5774 H5768 0.949 . S
C5774 C5778 1.368 . S
C5775 C5756 1.429 . S
C5775 C5769 1.429 . S
C5775 C5776 1.523 . S
C5776 C5757 1.368 . S
C5776 C5770 1.368 . S
C5776 C5775 1.523 . S
C5777 C5761 1.429 . S
C5777 C5773 1.429 . S
C5777 C5778 1.523 . S
C5778 C5762 1.368 . S
C5778 C5774 1.368 . S
C5778 C5777 1.523 . S
H5779 C5754 0.950 . S
H5780 C5756 0.950 . S
H5781 C5757 0.949 . S
H5782 C5759 0.950 . S
H5783 C5761 0.950 . S
C5784 C5785 1.349 . S
C5784 C5786 1.327 . S
C5784 H5809 0.950 . S
C5785 C5784 1.349 . S
C5785 C5801 1.349 . S
C5786 C5784 1.327 . S
C5786 C5805 1.429 . S
C5786 H5810 0.950 . S
C5787 C5804 1.574 . S
C5787 C5806 1.368 . S
C5787 H5811 0.949 . S
H5788 C5792 0.949 . S
C5789 C5790 1.349 . S
C5789 C5791 1.327 . S
C5789 H5812 0.950 . S
C5790 C5789 1.349 . S
C5790 C5802 1.349 . S
C5791 C5789 1.327 . S
C5791 C5807 1.429 . S
C5791 H5813 0.950 . S
C5792 H5788 0.949 . S
C5792 C5800 1.574 . S
C5792 C5808 1.368 . S
H5793 C5801 0.950 . S
H5794 C5799 0.950 . S
H5795 C5800 0.949 . S
H5796 C5802 0.950 . S
H5797 C5803 0.950 . S
H5798 C5804 0.949 . S
C5799 H5794 0.950 . S
C5799 C5801 1.327 . S
C5799 C5805 1.429 . S
C5800 C5792 1.574 . S
C5800 H5795 0.949 . S
C5800 C5806 1.368 . S
C5801 C5785 1.349 . S
C5801 H5793 0.950 . S
C5801 C5799 1.327 . S
C5802 C5790 1.349 . S
C5802 H5796 0.950 . S
C5802 C5803 1.327 . S
C5803 H5797 0.950 . S
C5803 C5802 1.327 . S
C5803 C5807 1.429 . S
C5804 C5787 1.574 . S
C5804 H5798 0.949 . S
C5804 C5808 1.368 . S
C5805 C5786 1.429 . S
C5805 C5799 1.429 . S
C5805 C5806 1.523 . S
C5806 C5787 1.368 . S
C5806 C5800 1.368 . S
C5806 C5805 1.523 . S
C5807 C5791 1.429 . S
C5807 C5803 1.429 . S
C5807 C5808 1.523 . S
C5808 C5792 1.368 . S
C5808 C5804 1.368 . S
C5808 C5807 1.523 . S
H5809 C5784 0.950 . S
H5810 C5786 0.950 . S
H5811 C5787 0.949 . S
H5812 C5789 0.950 . S
H5813 C5791 0.950 . S
C5814 C5815 1.349 . S
C5814 C5816 1.327 . S
C5814 H5839 0.950 . S
C5815 C5814 1.349 . S
C5815 C5831 1.349 . S
C5816 C5814 1.327 . S
C5816 C5835 1.429 . S
C5816 H5840 0.950 . S
C5817 C5834 1.574 . S
C5817 C5836 1.368 . S
C5817 H5841 0.949 . S
H5818 C5822 0.949 . S
C5819 C5820 1.349 . S
C5819 C5821 1.327 . S
C5819 H5842 0.950 . S
C5820 C5819 1.349 . S
C5820 C5832 1.349 . S
C5821 C5819 1.327 . S
C5821 C5837 1.429 . S
C5821 H5843 0.950 . S
C5822 H5818 0.949 . S
C5822 C5830 1.574 . S
C5822 C5838 1.368 . S
H5823 C5831 0.950 . S
H5824 C5829 0.950 . S
H5825 C5830 0.949 . S
H5826 C5832 0.950 . S
H5827 C5833 0.950 . S
H5828 C5834 0.949 . S
C5829 H5824 0.950 . S
C5829 C5831 1.327 . S
C5829 C5835 1.429 . S
C5830 C5822 1.574 . S
C5830 H5825 0.949 . S
C5830 C5836 1.368 . S
C5831 C5815 1.349 . S
C5831 H5823 0.950 . S
C5831 C5829 1.327 . S
C5832 C5820 1.349 . S
C5832 H5826 0.950 . S
C5832 C5833 1.327 . S
C5833 H5827 0.950 . S
C5833 C5832 1.327 . S
C5833 C5837 1.429 . S
C5834 C5817 1.574 . S
C5834 H5828 0.949 . S
C5834 C5838 1.368 . S
C5835 C5816 1.429 . S
C5835 C5829 1.429 . S
C5835 C5836 1.523 . S
C5836 C5817 1.368 . S
C5836 C5830 1.368 . S
C5836 C5835 1.523 . S
C5837 C5821 1.429 . S
C5837 C5833 1.429 . S
C5837 C5838 1.523 . S
C5838 C5822 1.368 . S
C5838 C5834 1.368 . S
C5838 C5837 1.523 . S
H5839 C5814 0.950 . S
H5840 C5816 0.950 . S
H5841 C5817 0.949 . S
H5842 C5819 0.950 . S
H5843 C5821 0.950 . S
C5844 C5845 1.349 . S
C5844 C5846 1.327 1_455 S
C5844 H5869 0.950 . S
C5845 C5844 1.349 . S
C5845 C5861 1.349 1_455 S
C5846 C5844 1.327 1_655 S
C5846 C5865 1.429 . S
C5846 H5870 0.950 . S
C5847 C5864 1.574 . S
C5847 C5866 1.368 . S
C5847 H5871 0.949 . S
H5848 C5852 0.949 . S
C5849 C5850 1.349 . S
C5849 C5851 1.327 . S
C5849 H5872 0.950 . S
C5850 C5849 1.349 . S
C5850 C5862 1.349 . S
C5851 C5849 1.327 . S
C5851 C5867 1.429 . S
C5851 H5873 0.950 . S
C5852 H5848 0.949 . S
C5852 C5860 1.574 . S
C5852 C5868 1.368 . S
H5853 C5861 0.950 . S
H5854 C5859 0.950 . S
H5855 C5860 0.949 . S
H5856 C5862 0.950 . S
H5857 C5863 0.950 . S
H5858 C5864 0.949 . S
C5859 H5854 0.950 . S
C5859 C5861 1.327 . S
C5859 C5865 1.429 . S
C5860 C5852 1.574 . S
C5860 H5855 0.949 . S
C5860 C5866 1.368 . S
C5861 C5845 1.349 1_655 S
C5861 H5853 0.950 . S
C5861 C5859 1.327 . S
C5862 C5850 1.349 . S
C5862 H5856 0.950 . S
C5862 C5863 1.327 . S
C5863 H5857 0.950 . S
C5863 C5862 1.327 . S
C5863 C5867 1.429 . S
C5864 C5847 1.574 . S
C5864 H5858 0.949 . S
C5864 C5868 1.368 . S
C5865 C5846 1.429 . S
C5865 C5859 1.429 . S
C5865 C5866 1.523 . S
C5866 C5847 1.368 . S
C5866 C5860 1.368 . S
C5866 C5865 1.523 . S
C5867 C5851 1.429 . S
C5867 C5863 1.429 . S
C5867 C5868 1.523 . S
C5868 C5852 1.368 . S
C5868 C5864 1.368 . S
C5868 C5867 1.523 . S
H5869 C5844 0.950 . S
H5870 C5846 0.950 . S
H5871 C5847 0.949 . S
H5872 C5849 0.950 . S
H5873 C5851 0.950 . S
C5874 C5875 1.349 . S
C5874 C5876 1.327 . S
C5874 H5899 0.950 . S
C5875 C5874 1.349 . S
C5875 C5891 1.349 . S
C5876 C5874 1.327 . S
C5876 C5895 1.429 . S
C5876 H5900 0.950 . S
C5877 C5894 1.574 . S
C5877 C5896 1.368 . S
C5877 H5901 0.949 . S
H5878 C5882 0.949 . S
C5879 C5880 1.349 . S
C5879 C5881 1.327 . S
C5879 H5902 0.950 . S
C5880 C5879 1.349 . S
C5880 C5892 1.349 . S
C5881 C5879 1.327 . S
C5881 C5897 1.429 . S
C5881 H5903 0.950 . S
C5882 H5878 0.949 . S
C5882 C5890 1.574 . S
C5882 C5898 1.368 . S
H5883 C5891 0.950 . S
H5884 C5889 0.950 . S
H5885 C5890 0.949 . S
H5886 C5892 0.950 . S
H5887 C5893 0.950 . S
H5888 C5894 0.949 . S
C5889 H5884 0.950 . S
C5889 C5891 1.327 . S
C5889 C5895 1.429 . S
C5890 C5882 1.574 . S
C5890 H5885 0.949 . S
C5890 C5896 1.368 . S
C5891 C5875 1.349 . S
C5891 H5883 0.950 . S
C5891 C5889 1.327 . S
C5892 C5880 1.349 . S
C5892 H5886 0.950 . S
C5892 C5893 1.327 . S
C5893 H5887 0.950 . S
C5893 C5892 1.327 . S
C5893 C5897 1.429 . S
C5894 C5877 1.574 . S
C5894 H5888 0.949 . S
C5894 C5898 1.368 . S
C5895 C5876 1.429 . S
C5895 C5889 1.429 . S
C5895 C5896 1.523 . S
C5896 C5877 1.368 . S
C5896 C5890 1.368 . S
C5896 C5895 1.523 . S
C5897 C5881 1.429 . S
C5897 C5893 1.429 . S
C5897 C5898 1.523 . S
C5898 C5882 1.368 . S
C5898 C5894 1.368 . S
C5898 C5897 1.523 . S
H5899 C5874 0.950 . S
H5900 C5876 0.950 . S
H5901 C5877 0.949 . S
H5902 C5879 0.950 . S
H5903 C5881 0.950 . S
C5904 C5905 1.349 . S
C5904 C5906 1.327 . S
C5904 H5929 0.950 . S
C5905 C5904 1.349 . S
C5905 C5921 1.349 . S
C5906 C5904 1.327 . S
C5906 C5925 1.429 . S
C5906 H5930 0.950 . S
C5907 C5924 1.574 . S
C5907 C5926 1.368 . S
C5907 H5931 0.949 . S
H5908 C5912 0.949 . S
C5909 C5910 1.349 . S
C5909 C5911 1.327 . S
C5909 H5932 0.950 . S
C5910 C5909 1.349 . S
C5910 C5922 1.349 . S
C5911 C5909 1.327 . S
C5911 C5927 1.429 . S
C5911 H5933 0.950 . S
C5912 H5908 0.949 . S
C5912 C5920 1.574 . S
C5912 C5928 1.368 . S
H5913 C5921 0.950 . S
H5914 C5919 0.950 . S
H5915 C5920 0.949 . S
H5916 C5922 0.950 . S
H5917 C5923 0.950 . S
H5918 C5924 0.949 . S
C5919 H5914 0.950 . S
C5919 C5921 1.327 . S
C5919 C5925 1.429 . S
C5920 C5912 1.574 . S
C5920 H5915 0.949 . S
C5920 C5926 1.368 . S
C5921 C5905 1.349 . S
C5921 H5913 0.950 . S
C5921 C5919 1.327 . S
C5922 C5910 1.349 . S
C5922 H5916 0.950 . S
C5922 C5923 1.327 . S
C5923 H5917 0.950 . S
C5923 C5922 1.327 . S
C5923 C5927 1.429 . S
C5924 C5907 1.574 . S
C5924 H5918 0.949 . S
C5924 C5928 1.368 . S
C5925 C5906 1.429 . S
C5925 C5919 1.429 . S
C5925 C5926 1.523 . S
C5926 C5907 1.368 . S
C5926 C5920 1.368 . S
C5926 C5925 1.523 . S
C5927 C5911 1.429 . S
C5927 C5923 1.429 . S
C5927 C5928 1.523 . S
C5928 C5912 1.368 . S
C5928 C5924 1.368 . S
C5928 C5927 1.523 . S
H5929 C5904 0.950 . S
H5930 C5906 0.950 . S
H5931 C5907 0.949 . S
H5932 C5909 0.950 . S
H5933 C5911 0.950 . S
C5934 C5935 1.349 . S
C5934 C5936 1.327 . S
C5934 H5959 0.950 . S
C5935 C5934 1.349 . S
C5935 C5951 1.349 . S
C5936 C5934 1.327 . S
C5936 C5955 1.429 . S
C5936 H5960 0.950 . S
C5937 C5954 1.574 . S
C5937 C5956 1.368 . S
C5937 H5961 0.949 . S
H5938 C5942 0.949 . S
C5939 C5940 1.349 . S
C5939 C5941 1.327 . S
C5939 H5962 0.950 . S
C5940 C5939 1.349 . S
C5940 C5952 1.349 . S
C5941 C5939 1.327 . S
C5941 C5957 1.429 . S
C5941 H5963 0.950 . S
C5942 H5938 0.949 . S
C5942 C5950 1.574 . S
C5942 C5958 1.368 . S
H5943 C5951 0.950 . S
H5944 C5949 0.950 . S
H5945 C5950 0.949 . S
H5946 C5952 0.950 . S
H5947 C5953 0.950 . S
H5948 C5954 0.949 . S
C5949 H5944 0.950 . S
C5949 C5951 1.327 . S
C5949 C5955 1.429 . S
C5950 C5942 1.574 . S
C5950 H5945 0.949 . S
C5950 C5956 1.368 . S
C5951 C5935 1.349 . S
C5951 H5943 0.950 . S
C5951 C5949 1.327 . S
C5952 C5940 1.349 . S
C5952 H5946 0.950 . S
C5952 C5953 1.327 . S
C5953 H5947 0.950 . S
C5953 C5952 1.327 . S
C5953 C5957 1.429 . S
C5954 C5937 1.574 . S
C5954 H5948 0.949 . S
C5954 C5958 1.368 . S
C5955 C5936 1.429 . S
C5955 C5949 1.429 . S
C5955 C5956 1.523 . S
C5956 C5937 1.368 . S
C5956 C5950 1.368 . S
C5956 C5955 1.523 . S
C5957 C5941 1.429 . S
C5957 C5953 1.429 . S
C5957 C5958 1.523 . S
C5958 C5942 1.368 . S
C5958 C5954 1.368 . S
C5958 C5957 1.523 . S
H5959 C5934 0.950 . S
H5960 C5936 0.950 . S
H5961 C5937 0.949 . S
H5962 C5939 0.950 . S
H5963 C5941 0.950 . S
C5964 C5965 1.349 . S
C5964 C5966 1.327 . S
C5964 H5989 0.950 . S
C5965 C5964 1.349 . S
C5965 C5981 1.349 . S
C5966 C5964 1.327 . S
C5966 C5985 1.429 . S
C5966 H5990 0.950 . S
C5967 C5984 1.574 . S
C5967 C5986 1.368 . S
C5967 H5991 0.949 . S
H5968 C5972 0.949 . S
C5969 C5970 1.349 . S
C5969 C5971 1.327 . S
C5969 H5992 0.950 . S
C5970 C5969 1.349 . S
C5970 C5982 1.349 . S
C5971 C5969 1.327 . S
C5971 C5987 1.429 . S
C5971 H5993 0.950 . S
C5972 H5968 0.949 . S
C5972 C5980 1.574 . S
C5972 C5988 1.368 . S
H5973 C5981 0.950 . S
H5974 C5979 0.950 . S
H5975 C5980 0.949 . S
H5976 C5982 0.950 . S
H5977 C5983 0.950 . S
H5978 C5984 0.949 . S
C5979 H5974 0.950 . S
C5979 C5981 1.327 . S
C5979 C5985 1.429 . S
C5980 C5972 1.574 . S
C5980 H5975 0.949 . S
C5980 C5986 1.368 . S
C5981 C5965 1.349 . S
C5981 H5973 0.950 . S
C5981 C5979 1.327 . S
C5982 C5970 1.349 . S
C5982 H5976 0.950 . S
C5982 C5983 1.327 . S
C5983 H5977 0.950 . S
C5983 C5982 1.327 . S
C5983 C5987 1.429 . S
C5984 C5967 1.574 . S
C5984 H5978 0.949 . S
C5984 C5988 1.368 . S
C5985 C5966 1.429 . S
C5985 C5979 1.429 . S
C5985 C5986 1.523 . S
C5986 C5967 1.368 . S
C5986 C5980 1.368 . S
C5986 C5985 1.523 . S
C5987 C5971 1.429 . S
C5987 C5983 1.429 . S
C5987 C5988 1.523 . S
C5988 C5972 1.368 . S
C5988 C5984 1.368 . S
C5988 C5987 1.523 . S
H5989 C5964 0.950 . S
H5990 C5966 0.950 . S
H5991 C5967 0.949 . S
H5992 C5969 0.950 . S
H5993 C5971 0.950 . S
C5994 C5995 1.349 . S
C5994 C5996 1.327 . S
C5994 H6019 0.950 . S
C5995 C5994 1.349 . S
C5995 C6011 1.349 . S
C5996 C5994 1.327 . S
C5996 C6015 1.429 . S
C5996 H6020 0.950 . S
C5997 C6014 1.574 . S
C5997 C6016 1.368 . S
C5997 H6021 0.949 . S
H5998 C6002 0.949 . S
C5999 C6000 1.349 . S
C5999 C6001 1.327 . S
C5999 H6022 0.950 . S
C6000 C5999 1.349 . S
C6000 C6012 1.349 . S
C6001 C5999 1.327 . S
C6001 C6017 1.429 . S
C6001 H6023 0.950 . S
C6002 H5998 0.949 . S
C6002 C6010 1.574 . S
C6002 C6018 1.368 . S
H6003 C6011 0.950 . S
H6004 C6009 0.950 . S
H6005 C6010 0.949 . S
H6006 C6012 0.950 . S
H6007 C6013 0.950 . S
H6008 C6014 0.949 . S
C6009 H6004 0.950 . S
C6009 C6011 1.327 . S
C6009 C6015 1.429 . S
C6010 C6002 1.574 . S
C6010 H6005 0.949 . S
C6010 C6016 1.368 . S
C6011 C5995 1.349 . S
C6011 H6003 0.950 . S
C6011 C6009 1.327 . S
C6012 C6000 1.349 . S
C6012 H6006 0.950 . S
C6012 C6013 1.327 . S
C6013 H6007 0.950 . S
C6013 C6012 1.327 . S
C6013 C6017 1.429 . S
C6014 C5997 1.574 . S
C6014 H6008 0.949 . S
C6014 C6018 1.368 . S
C6015 C5996 1.429 . S
C6015 C6009 1.429 . S
C6015 C6016 1.523 . S
C6016 C5997 1.368 . S
C6016 C6010 1.368 . S
C6016 C6015 1.523 . S
C6017 C6001 1.429 . S
C6017 C6013 1.429 . S
C6017 C6018 1.523 . S
C6018 C6002 1.368 . S
C6018 C6014 1.368 . S
C6018 C6017 1.523 . S
H6019 C5994 0.950 . S
H6020 C5996 0.950 . S
H6021 C5997 0.949 . S
H6022 C5999 0.950 . S
H6023 C6001 0.950 . S
C6024 C6025 1.349 . S
C6024 C6026 1.327 . S
C6024 H6049 0.950 . S
C6025 C6024 1.349 . S
C6025 C6041 1.349 . S
C6026 C6024 1.327 . S
C6026 C6045 1.429 . S
C6026 H6050 0.950 . S
C6027 C6044 1.574 . S
C6027 C6046 1.368 . S
C6027 H6051 0.949 . S
H6028 C6032 0.949 . S
C6029 C6030 1.349 . S
C6029 C6031 1.327 . S
C6029 H6052 0.950 . S
C6030 C6029 1.349 . S
C6030 C6042 1.349 . S
C6031 C6029 1.327 . S
C6031 C6047 1.429 . S
C6031 H6053 0.950 . S
C6032 H6028 0.949 . S
C6032 C6040 1.574 . S
C6032 C6048 1.368 . S
H6033 C6041 0.950 . S
H6034 C6039 0.950 . S
H6035 C6040 0.949 . S
H6036 C6042 0.950 . S
H6037 C6043 0.950 . S
H6038 C6044 0.949 . S
C6039 H6034 0.950 . S
C6039 C6041 1.327 . S
C6039 C6045 1.429 . S
C6040 C6032 1.574 . S
C6040 H6035 0.949 . S
C6040 C6046 1.368 . S
C6041 C6025 1.349 . S
C6041 H6033 0.950 . S
C6041 C6039 1.327 . S
C6042 C6030 1.349 . S
C6042 H6036 0.950 . S
C6042 C6043 1.327 . S
C6043 H6037 0.950 . S
C6043 C6042 1.327 . S
C6043 C6047 1.429 . S
C6044 C6027 1.574 . S
C6044 H6038 0.949 . S
C6044 C6048 1.368 . S
C6045 C6026 1.429 . S
C6045 C6039 1.429 . S
C6045 C6046 1.523 . S
C6046 C6027 1.368 . S
C6046 C6040 1.368 . S
C6046 C6045 1.523 . S
C6047 C6031 1.429 . S
C6047 C6043 1.429 . S
C6047 C6048 1.523 . S
C6048 C6032 1.368 . S
C6048 C6044 1.368 . S
C6048 C6047 1.523 . S
H6049 C6024 0.950 . S
H6050 C6026 0.950 . S
H6051 C6027 0.949 . S
H6052 C6029 0.950 . S
H6053 C6031 0.950 . S
C6054 C6055 1.349 . S
C6054 C6056 1.327 . S
C6054 H6079 0.950 . S
C6055 C6054 1.349 . S
C6055 C6071 1.349 . S
C6056 C6054 1.327 . S
C6056 C6075 1.429 . S
C6056 H6080 0.950 . S
C6057 C6074 1.574 . S
C6057 C6076 1.368 . S
C6057 H6081 0.949 . S
H6058 C6062 0.949 . S
C6059 C6060 1.349 . S
C6059 C6061 1.327 . S
C6059 H6082 0.950 . S
C6060 C6059 1.349 . S
C6060 C6072 1.349 . S
C6061 C6059 1.327 . S
C6061 C6077 1.429 . S
C6061 H6083 0.950 . S
C6062 H6058 0.949 . S
C6062 C6070 1.574 . S
C6062 C6078 1.368 . S
H6063 C6071 0.950 . S
H6064 C6069 0.950 . S
H6065 C6070 0.949 . S
H6066 C6072 0.950 . S
H6067 C6073 0.950 . S
H6068 C6074 0.949 . S
C6069 H6064 0.950 . S
C6069 C6071 1.327 . S
C6069 C6075 1.429 . S
C6070 C6062 1.574 . S
C6070 H6065 0.949 . S
C6070 C6076 1.368 . S
C6071 C6055 1.349 . S
C6071 H6063 0.950 . S
C6071 C6069 1.327 . S
C6072 C6060 1.349 . S
C6072 H6066 0.950 . S
C6072 C6073 1.327 . S
C6073 H6067 0.950 . S
C6073 C6072 1.327 . S
C6073 C6077 1.429 . S
C6074 C6057 1.574 . S
C6074 H6068 0.949 . S
C6074 C6078 1.368 . S
C6075 C6056 1.429 . S
C6075 C6069 1.429 . S
C6075 C6076 1.523 . S
C6076 C6057 1.368 . S
C6076 C6070 1.368 . S
C6076 C6075 1.523 . S
C6077 C6061 1.429 . S
C6077 C6073 1.429 . S
C6077 C6078 1.523 . S
C6078 C6062 1.368 . S
C6078 C6074 1.368 . S
C6078 C6077 1.523 . S
H6079 C6054 0.950 . S
H6080 C6056 0.950 . S
H6081 C6057 0.949 . S
H6082 C6059 0.950 . S
H6083 C6061 0.950 . S
C6084 C6085 1.349 . S
C6084 C6086 1.327 . S
C6084 H6109 0.950 . S
C6085 C6084 1.349 . S
C6085 C6101 1.349 . S
C6086 C6084 1.327 . S
C6086 C6105 1.429 . S
C6086 H6110 0.950 . S
C6087 C6104 1.574 . S
C6087 C6106 1.368 . S
C6087 H6111 0.949 . S
H6088 C6092 0.949 . S
C6089 C6090 1.349 . S
C6089 C6091 1.327 . S
C6089 H6112 0.950 . S
C6090 C6089 1.349 . S
C6090 C6102 1.349 . S
C6091 C6089 1.327 . S
C6091 C6107 1.429 . S
C6091 H6113 0.950 . S
C6092 H6088 0.949 . S
C6092 C6100 1.574 . S
C6092 C6108 1.368 . S
H6093 C6101 0.950 . S
H6094 C6099 0.950 . S
H6095 C6100 0.949 . S
H6096 C6102 0.950 . S
H6097 C6103 0.950 . S
H6098 C6104 0.949 . S
C6099 H6094 0.950 . S
C6099 C6101 1.327 . S
C6099 C6105 1.429 . S
C6100 C6092 1.574 . S
C6100 H6095 0.949 . S
C6100 C6106 1.368 . S
C6101 C6085 1.349 . S
C6101 H6093 0.950 . S
C6101 C6099 1.327 . S
C6102 C6090 1.349 . S
C6102 H6096 0.950 . S
C6102 C6103 1.327 . S
C6103 H6097 0.950 . S
C6103 C6102 1.327 . S
C6103 C6107 1.429 . S
C6104 C6087 1.574 . S
C6104 H6098 0.949 . S
C6104 C6108 1.368 . S
C6105 C6086 1.429 . S
C6105 C6099 1.429 . S
C6105 C6106 1.523 . S
C6106 C6087 1.368 . S
C6106 C6100 1.368 . S
C6106 C6105 1.523 . S
C6107 C6091 1.429 . S
C6107 C6103 1.429 . S
C6107 C6108 1.523 . S
C6108 C6092 1.368 . S
C6108 C6104 1.368 . S
C6108 C6107 1.523 . S
H6109 C6084 0.950 . S
H6110 C6086 0.950 . S
H6111 C6087 0.949 . S
H6112 C6089 0.950 . S
H6113 C6091 0.950 . S
C6114 C6115 1.349 . S
C6114 C6116 1.327 . S
C6114 H6139 0.950 . S
C6115 C6114 1.349 . S
C6115 C6131 1.349 . S
C6116 C6114 1.327 . S
C6116 C6135 1.429 . S
C6116 H6140 0.950 . S
C6117 C6134 1.574 . S
C6117 C6136 1.368 . S
C6117 H6141 0.949 . S
H6118 C6122 0.949 . S
C6119 C6120 1.349 . S
C6119 C6121 1.327 . S
C6119 H6142 0.950 . S
C6120 C6119 1.349 . S
C6120 C6132 1.349 . S
C6121 C6119 1.327 . S
C6121 C6137 1.429 . S
C6121 H6143 0.950 . S
C6122 H6118 0.949 . S
C6122 C6130 1.574 . S
C6122 C6138 1.368 . S
H6123 C6131 0.950 . S
H6124 C6129 0.950 . S
H6125 C6130 0.949 . S
H6126 C6132 0.950 . S
H6127 C6133 0.950 . S
H6128 C6134 0.949 . S
C6129 H6124 0.950 . S
C6129 C6131 1.327 . S
C6129 C6135 1.429 . S
C6130 C6122 1.574 . S
C6130 H6125 0.949 . S
C6130 C6136 1.368 . S
C6131 C6115 1.349 . S
C6131 H6123 0.950 . S
C6131 C6129 1.327 . S
C6132 C6120 1.349 . S
C6132 H6126 0.950 . S
C6132 C6133 1.327 . S
C6133 H6127 0.950 . S
C6133 C6132 1.327 . S
C6133 C6137 1.429 . S
C6134 C6117 1.574 . S
C6134 H6128 0.949 . S
C6134 C6138 1.368 . S
C6135 C6116 1.429 . S
C6135 C6129 1.429 . S
C6135 C6136 1.523 . S
C6136 C6117 1.368 . S
C6136 C6130 1.368 . S
C6136 C6135 1.523 . S
C6137 C6121 1.429 . S
C6137 C6133 1.429 . S
C6137 C6138 1.523 . S
C6138 C6122 1.368 . S
C6138 C6134 1.368 . S
C6138 C6137 1.523 . S
H6139 C6114 0.950 . S
H6140 C6116 0.950 . S
H6141 C6117 0.949 . S
H6142 C6119 0.950 . S
H6143 C6121 0.950 . S
C6144 C6145 1.349 . S
C6144 C6146 1.327 . S
C6144 H6169 0.950 . S
C6145 C6144 1.349 . S
C6145 C6161 1.349 . S
C6146 C6144 1.327 . S
C6146 C6165 1.429 . S
C6146 H6170 0.950 . S
C6147 C6164 1.574 . S
C6147 C6166 1.368 . S
C6147 H6171 0.949 . S
H6148 C6152 0.949 . S
C6149 C6150 1.349 . S
C6149 C6151 1.327 . S
C6149 H6172 0.950 . S
C6150 C6149 1.349 . S
C6150 C6162 1.349 . S
C6151 C6149 1.327 . S
C6151 C6167 1.429 . S
C6151 H6173 0.950 . S
C6152 H6148 0.949 . S
C6152 C6160 1.574 . S
C6152 C6168 1.368 . S
H6153 C6161 0.950 . S
H6154 C6159 0.950 . S
H6155 C6160 0.949 . S
H6156 C6162 0.950 . S
H6157 C6163 0.950 . S
H6158 C6164 0.949 . S
C6159 H6154 0.950 . S
C6159 C6161 1.327 . S
C6159 C6165 1.429 . S
C6160 C6152 1.574 . S
C6160 H6155 0.949 . S
C6160 C6166 1.368 . S
C6161 C6145 1.349 . S
C6161 H6153 0.950 . S
C6161 C6159 1.327 . S
C6162 C6150 1.349 . S
C6162 H6156 0.950 . S
C6162 C6163 1.327 . S
C6163 H6157 0.950 . S
C6163 C6162 1.327 . S
C6163 C6167 1.429 . S
C6164 C6147 1.574 . S
C6164 H6158 0.949 . S
C6164 C6168 1.368 . S
C6165 C6146 1.429 . S
C6165 C6159 1.429 . S
C6165 C6166 1.523 . S
C6166 C6147 1.368 . S
C6166 C6160 1.368 . S
C6166 C6165 1.523 . S
C6167 C6151 1.429 . S
C6167 C6163 1.429 . S
C6167 C6168 1.523 . S
C6168 C6152 1.368 . S
C6168 C6164 1.368 . S
C6168 C6167 1.523 . S
H6169 C6144 0.950 . S
H6170 C6146 0.950 . S
H6171 C6147 0.949 . S
H6172 C6149 0.950 . S
H6173 C6151 0.950 . S
C6174 C6175 1.349 . S
C6174 C6176 1.327 . S
C6174 H6199 0.950 . S
C6175 C6174 1.349 . S
C6175 C6191 1.349 . S
C6176 C6174 1.327 . S
C6176 C6195 1.429 . S
C6176 H6200 0.950 . S
C6177 C6194 1.574 . S
C6177 C6196 1.368 . S
C6177 H6201 0.949 . S
H6178 C6182 0.949 . S
C6179 C6180 1.349 . S
C6179 C6181 1.327 . S
C6179 H6202 0.950 . S
C6180 C6179 1.349 . S
C6180 C6192 1.349 . S
C6181 C6179 1.327 . S
C6181 C6197 1.429 . S
C6181 H6203 0.950 . S
C6182 H6178 0.949 . S
C6182 C6190 1.574 . S
C6182 C6198 1.368 . S
H6183 C6191 0.950 . S
H6184 C6189 0.950 . S
H6185 C6190 0.949 . S
H6186 C6192 0.950 . S
H6187 C6193 0.950 . S
H6188 C6194 0.949 . S
C6189 H6184 0.950 . S
C6189 C6191 1.327 . S
C6189 C6195 1.429 . S
C6190 C6182 1.574 . S
C6190 H6185 0.949 . S
C6190 C6196 1.368 . S
C6191 C6175 1.349 . S
C6191 H6183 0.950 . S
C6191 C6189 1.327 . S
C6192 C6180 1.349 . S
C6192 H6186 0.950 . S
C6192 C6193 1.327 . S
C6193 H6187 0.950 . S
C6193 C6192 1.327 . S
C6193 C6197 1.429 . S
C6194 C6177 1.574 . S
C6194 H6188 0.949 . S
C6194 C6198 1.368 . S
C6195 C6176 1.429 . S
C6195 C6189 1.429 . S
C6195 C6196 1.523 . S
C6196 C6177 1.368 . S
C6196 C6190 1.368 . S
C6196 C6195 1.523 . S
C6197 C6181 1.429 . S
C6197 C6193 1.429 . S
C6197 C6198 1.523 . S
C6198 C6182 1.368 . S
C6198 C6194 1.368 . S
C6198 C6197 1.523 . S
H6199 C6174 0.950 . S
H6200 C6176 0.950 . S
H6201 C6177 0.949 . S
H6202 C6179 0.950 . S
H6203 C6181 0.950 . S
C6204 C6205 1.349 . S
C6204 C6206 1.327 . S
C6204 H6229 0.950 . S
C6205 C6204 1.349 . S
C6205 C6221 1.349 . S
C6206 C6204 1.327 . S
C6206 C6225 1.429 . S
C6206 H6230 0.950 . S
C6207 C6224 1.574 . S
C6207 C6226 1.368 . S
C6207 H6231 0.949 . S
H6208 C6212 0.949 1_556 S
C6209 C6210 1.349 . S
C6209 C6211 1.327 . S
C6209 H6232 0.950 . S
C6210 C6209 1.349 . S
C6210 C6222 1.349 . S
C6211 C6209 1.327 . S
C6211 C6227 1.429 . S
C6211 H6233 0.950 1_556 S
C6212 H6208 0.949 1_554 S
C6212 C6220 1.574 . S
C6212 C6228 1.368 . S
H6213 C6221 0.950 . S
H6214 C6219 0.950 . S
H6215 C6220 0.949 . S
H6216 C6222 0.950 . S
H6217 C6223 0.950 . S
H6218 C6224 0.949 . S
C6219 H6214 0.950 . S
C6219 C6221 1.327 . S
C6219 C6225 1.429 . S
C6220 C6212 1.574 . S
C6220 H6215 0.949 . S
C6220 C6226 1.368 . S
C6221 C6205 1.349 . S
C6221 H6213 0.950 . S
C6221 C6219 1.327 . S
C6222 C6210 1.349 . S
C6222 H6216 0.950 . S
C6222 C6223 1.327 . S
C6223 H6217 0.950 . S
C6223 C6222 1.327 . S
C6223 C6227 1.429 . S
C6224 C6207 1.574 . S
C6224 H6218 0.949 . S
C6224 C6228 1.368 . S
C6225 C6206 1.429 . S
C6225 C6219 1.429 . S
C6225 C6226 1.523 . S
C6226 C6207 1.368 . S
C6226 C6220 1.368 . S
C6226 C6225 1.523 . S
C6227 C6211 1.429 . S
C6227 C6223 1.429 . S
C6227 C6228 1.523 1_556 S
C6228 C6212 1.368 . S
C6228 C6224 1.368 . S
C6228 C6227 1.523 1_554 S
H6229 C6204 0.950 . S
H6230 C6206 0.950 . S
H6231 C6207 0.949 . S
H6232 C6209 0.950 . S
H6233 C6211 0.950 1_554 S
C6234 C6235 1.349 . S
C6234 C6236 1.327 . S
C6234 H6259 0.950 . S
C6235 C6234 1.349 . S
C6235 C6251 1.349 . S
C6236 C6234 1.327 . S
C6236 C6255 1.429 . S
C6236 H6260 0.950 . S
C6237 C6254 1.574 . S
C6237 C6256 1.368 . S
C6237 H6261 0.949 . S
H6238 C6242 0.949 . S
C6239 C6240 1.349 . S
C6239 C6241 1.327 . S
C6239 H6262 0.950 . S
C6240 C6239 1.349 . S
C6240 C6252 1.349 . S
C6241 C6239 1.327 . S
C6241 C6257 1.429 . S
C6241 H6263 0.950 . S
C6242 H6238 0.949 . S
C6242 C6250 1.574 . S
C6242 C6258 1.368 . S
H6243 C6251 0.950 . S
H6244 C6249 0.950 . S
H6245 C6250 0.949 . S
H6246 C6252 0.950 . S
H6247 C6253 0.950 . S
H6248 C6254 0.949 . S
C6249 H6244 0.950 . S
C6249 C6251 1.327 . S
C6249 C6255 1.429 . S
C6250 C6242 1.574 . S
C6250 H6245 0.949 . S
C6250 C6256 1.368 . S
C6251 C6235 1.349 . S
C6251 H6243 0.950 . S
C6251 C6249 1.327 . S
C6252 C6240 1.349 . S
C6252 H6246 0.950 . S
C6252 C6253 1.327 . S
C6253 H6247 0.950 . S
C6253 C6252 1.327 . S
C6253 C6257 1.429 . S
C6254 C6237 1.574 . S
C6254 H6248 0.949 . S
C6254 C6258 1.368 . S
C6255 C6236 1.429 . S
C6255 C6249 1.429 . S
C6255 C6256 1.523 . S
C6256 C6237 1.368 . S
C6256 C6250 1.368 . S
C6256 C6255 1.523 . S
C6257 C6241 1.429 . S
C6257 C6253 1.429 . S
C6257 C6258 1.523 . S
C6258 C6242 1.368 . S
C6258 C6254 1.368 . S
C6258 C6257 1.523 . S
H6259 C6234 0.950 . S
H6260 C6236 0.950 . S
H6261 C6237 0.949 . S
H6262 C6239 0.950 . S
H6263 C6241 0.950 . S
C6264 C6265 1.349 . S
C6264 C6266 1.327 . S
C6264 H6289 0.950 . S
C6265 C6264 1.349 . S
C6265 C6281 1.349 . S
C6266 C6264 1.327 . S
C6266 C6285 1.429 . S
C6266 H6290 0.950 . S
C6267 C6284 1.574 . S
C6267 C6286 1.368 . S
C6267 H6291 0.949 . S
H6268 C6272 0.949 . S
C6269 C6270 1.349 . S
C6269 C6271 1.327 . S
C6269 H6292 0.950 . S
C6270 C6269 1.349 . S
C6270 C6282 1.349 . S
C6271 C6269 1.327 . S
C6271 C6287 1.429 . S
C6271 H6293 0.950 . S
C6272 H6268 0.949 . S
C6272 C6280 1.574 . S
C6272 C6288 1.368 . S
H6273 C6281 0.950 . S
H6274 C6279 0.950 . S
H6275 C6280 0.949 . S
H6276 C6282 0.950 . S
H6277 C6283 0.950 . S
H6278 C6284 0.949 . S
C6279 H6274 0.950 . S
C6279 C6281 1.327 . S
C6279 C6285 1.429 . S
C6280 C6272 1.574 . S
C6280 H6275 0.949 . S
C6280 C6286 1.368 . S
C6281 C6265 1.349 . S
C6281 H6273 0.950 . S
C6281 C6279 1.327 . S
C6282 C6270 1.349 . S
C6282 H6276 0.950 . S
C6282 C6283 1.327 . S
C6283 H6277 0.950 . S
C6283 C6282 1.327 . S
C6283 C6287 1.429 . S
C6284 C6267 1.574 . S
C6284 H6278 0.949 . S
C6284 C6288 1.368 . S
C6285 C6266 1.429 . S
C6285 C6279 1.429 . S
C6285 C6286 1.523 . S
C6286 C6267 1.368 . S
C6286 C6280 1.368 . S
C6286 C6285 1.523 . S
C6287 C6271 1.429 . S
C6287 C6283 1.429 . S
C6287 C6288 1.523 1_554 S
C6288 C6272 1.368 . S
C6288 C6284 1.368 . S
C6288 C6287 1.523 1_556 S
H6289 C6264 0.950 . S
H6290 C6266 0.950 . S
H6291 C6267 0.949 . S
H6292 C6269 0.950 . S
H6293 C6271 0.950 . S
C6294 C6295 1.349 . S
C6294 C6296 1.327 . S
C6294 H6319 0.950 . S
C6295 C6294 1.349 . S
C6295 C6311 1.349 . S
C6296 C6294 1.327 . S
C6296 C6315 1.429 . S
C6296 H6320 0.950 . S
C6297 C6314 1.574 . S
C6297 C6316 1.368 . S
C6297 H6321 0.949 . S
H6298 C6302 0.949 . S
C6299 C6300 1.349 . S
C6299 C6301 1.327 . S
C6299 H6322 0.950 . S
C6300 C6299 1.349 . S
C6300 C6312 1.349 . S
C6301 C6299 1.327 . S
C6301 C6317 1.429 . S
C6301 H6323 0.950 . S
C6302 H6298 0.949 . S
C6302 C6310 1.574 . S
C6302 C6318 1.368 . S
H6303 C6311 0.950 . S
H6304 C6309 0.950 . S
H6305 C6310 0.949 . S
H6306 C6312 0.950 . S
H6307 C6313 0.950 . S
H6308 C6314 0.949 . S
C6309 H6304 0.950 . S
C6309 C6311 1.327 . S
C6309 C6315 1.429 . S
C6310 C6302 1.574 . S
C6310 H6305 0.949 . S
C6310 C6316 1.368 . S
C6311 C6295 1.349 . S
C6311 H6303 0.950 . S
C6311 C6309 1.327 . S
C6312 C6300 1.349 . S
C6312 H6306 0.950 . S
C6312 C6313 1.327 . S
C6313 H6307 0.950 . S
C6313 C6312 1.327 . S
C6313 C6317 1.429 . S
C6314 C6297 1.574 . S
C6314 H6308 0.949 . S
C6314 C6318 1.368 . S
C6315 C6296 1.429 . S
C6315 C6309 1.429 . S
C6315 C6316 1.523 . S
C6316 C6297 1.368 . S
C6316 C6310 1.368 . S
C6316 C6315 1.523 . S
C6317 C6301 1.429 . S
C6317 C6313 1.429 . S
C6317 C6318 1.523 . S
C6318 C6302 1.368 . S
C6318 C6314 1.368 . S
C6318 C6317 1.523 . S
H6319 C6294 0.950 . S
H6320 C6296 0.950 . S
H6321 C6297 0.949 . S
H6322 C6299 0.950 . S
H6323 C6301 0.950 . S
C6324 C6325 1.349 . S
C6324 C6326 1.327 . S
C6324 H6349 0.950 . S
C6325 C6324 1.349 . S
C6325 C6341 1.349 . S
C6326 C6324 1.327 . S
C6326 C6345 1.429 . S
C6326 H6350 0.950 . S
C6327 C6344 1.574 . S
C6327 C6346 1.368 . S
C6327 H6351 0.949 . S
H6328 C6332 0.949 . S
C6329 C6330 1.349 . S
C6329 C6331 1.327 . S
C6329 H6352 0.950 . S
C6330 C6329 1.349 . S
C6330 C6342 1.349 . S
C6331 C6329 1.327 . S
C6331 C6347 1.429 . S
C6331 H6353 0.950 . S
C6332 H6328 0.949 . S
C6332 C6340 1.574 . S
C6332 C6348 1.368 . S
H6333 C6341 0.950 . S
H6334 C6339 0.950 . S
H6335 C6340 0.949 . S
H6336 C6342 0.950 . S
H6337 C6343 0.950 . S
H6338 C6344 0.949 . S
C6339 H6334 0.950 . S
C6339 C6341 1.327 . S
C6339 C6345 1.429 . S
C6340 C6332 1.574 . S
C6340 H6335 0.949 . S
C6340 C6346 1.368 . S
C6341 C6325 1.349 . S
C6341 H6333 0.950 . S
C6341 C6339 1.327 . S
C6342 C6330 1.349 . S
C6342 H6336 0.950 . S
C6342 C6343 1.327 . S
C6343 H6337 0.950 . S
C6343 C6342 1.327 . S
C6343 C6347 1.429 . S
C6344 C6327 1.574 . S
C6344 H6338 0.949 . S
C6344 C6348 1.368 . S
C6345 C6326 1.429 . S
C6345 C6339 1.429 . S
C6345 C6346 1.523 . S
C6346 C6327 1.368 . S
C6346 C6340 1.368 . S
C6346 C6345 1.523 . S
C6347 C6331 1.429 . S
C6347 C6343 1.429 . S
C6347 C6348 1.523 . S
C6348 C6332 1.368 . S
C6348 C6344 1.368 . S
C6348 C6347 1.523 . S
H6349 C6324 0.950 . S
H6350 C6326 0.950 . S
H6351 C6327 0.949 . S
H6352 C6329 0.950 . S
H6353 C6331 0.950 . S
C6354 C6355 1.349 . S
C6354 C6356 1.327 . S
C6354 H6379 0.950 . S
C6355 C6354 1.349 . S
C6355 C6371 1.349 . S
C6356 C6354 1.327 . S
C6356 C6375 1.429 . S
C6356 H6380 0.950 . S
C6357 C6374 1.574 . S
C6357 C6376 1.368 . S
C6357 H6381 0.949 . S
H6358 C6362 0.949 . S
C6359 C6360 1.349 . S
C6359 C6361 1.327 . S
C6359 H6382 0.950 . S
C6360 C6359 1.349 . S
C6360 C6372 1.349 . S
C6361 C6359 1.327 . S
C6361 C6377 1.429 . S
C6361 H6383 0.950 . S
C6362 H6358 0.949 . S
C6362 C6370 1.574 . S
C6362 C6378 1.368 . S
H6363 C6371 0.950 . S
H6364 C6369 0.950 . S
H6365 C6370 0.949 . S
H6366 C6372 0.950 . S
H6367 C6373 0.950 . S
H6368 C6374 0.949 . S
C6369 H6364 0.950 . S
C6369 C6371 1.327 . S
C6369 C6375 1.429 . S
C6370 C6362 1.574 . S
C6370 H6365 0.949 . S
C6370 C6376 1.368 . S
C6371 C6355 1.349 . S
C6371 H6363 0.950 . S
C6371 C6369 1.327 . S
C6372 C6360 1.349 . S
C6372 H6366 0.950 . S
C6372 C6373 1.327 . S
C6373 H6367 0.950 . S
C6373 C6372 1.327 . S
C6373 C6377 1.429 . S
C6374 C6357 1.574 . S
C6374 H6368 0.949 . S
C6374 C6378 1.368 . S
C6375 C6356 1.429 . S
C6375 C6369 1.429 . S
C6375 C6376 1.523 . S
C6376 C6357 1.368 . S
C6376 C6370 1.368 . S
C6376 C6375 1.523 . S
C6377 C6361 1.429 . S
C6377 C6373 1.429 . S
C6377 C6378 1.523 . S
C6378 C6362 1.368 . S
C6378 C6374 1.368 . S
C6378 C6377 1.523 . S
H6379 C6354 0.950 . S
H6380 C6356 0.950 . S
H6381 C6357 0.949 . S
H6382 C6359 0.950 . S
H6383 C6361 0.950 . S
C6384 C6385 1.349 . S
C6384 C6386 1.327 . S
C6384 H6409 0.950 . S
C6385 C6384 1.349 . S
C6385 C6401 1.349 . S
C6386 C6384 1.327 . S
C6386 C6405 1.429 . S
C6386 H6410 0.950 . S
C6387 C6404 1.574 . S
C6387 C6406 1.368 . S
C6387 H6411 0.949 . S
H6388 C6392 0.949 . S
C6389 C6390 1.349 . S
C6389 C6391 1.327 . S
C6389 H6412 0.950 . S
C6390 C6389 1.349 . S
C6390 C6402 1.349 . S
C6391 C6389 1.327 . S
C6391 C6407 1.429 . S
C6391 H6413 0.950 . S
C6392 H6388 0.949 . S
C6392 C6400 1.574 . S
C6392 C6408 1.368 . S
H6393 C6401 0.950 . S
H6394 C6399 0.950 . S
H6395 C6400 0.949 . S
H6396 C6402 0.950 . S
H6397 C6403 0.950 . S
H6398 C6404 0.949 . S
C6399 H6394 0.950 . S
C6399 C6401 1.327 . S
C6399 C6405 1.429 . S
C6400 C6392 1.574 . S
C6400 H6395 0.949 . S
C6400 C6406 1.368 . S
C6401 C6385 1.349 . S
C6401 H6393 0.950 . S
C6401 C6399 1.327 . S
C6402 C6390 1.349 . S
C6402 H6396 0.950 . S
C6402 C6403 1.327 . S
C6403 H6397 0.950 . S
C6403 C6402 1.327 . S
C6403 C6407 1.429 . S
C6404 C6387 1.574 . S
C6404 H6398 0.949 . S
C6404 C6408 1.368 . S
C6405 C6386 1.429 . S
C6405 C6399 1.429 . S
C6405 C6406 1.523 . S
C6406 C6387 1.368 . S
C6406 C6400 1.368 . S
C6406 C6405 1.523 . S
C6407 C6391 1.429 . S
C6407 C6403 1.429 . S
C6407 C6408 1.523 . S
C6408 C6392 1.368 . S
C6408 C6404 1.368 . S
C6408 C6407 1.523 . S
H6409 C6384 0.950 . S
H6410 C6386 0.950 . S
H6411 C6387 0.949 . S
H6412 C6389 0.950 . S
H6413 C6391 0.950 . S
C6414 C6415 1.349 . S
C6414 C6416 1.327 . S
C6414 H6439 0.950 . S
C6415 C6414 1.349 . S
C6415 C6431 1.349 . S
C6416 C6414 1.327 . S
C6416 C6435 1.429 . S
C6416 H6440 0.950 . S
C6417 C6434 1.574 . S
C6417 C6436 1.368 . S
C6417 H6441 0.949 . S
H6418 C6422 0.949 . S
C6419 C6420 1.349 . S
C6419 C6421 1.327 . S
C6419 H6442 0.950 . S
C6420 C6419 1.349 . S
C6420 C6432 1.349 . S
C6421 C6419 1.327 . S
C6421 C6437 1.429 . S
C6421 H6443 0.950 . S
C6422 H6418 0.949 . S
C6422 C6430 1.574 . S
C6422 C6438 1.368 . S
H6423 C6431 0.950 . S
H6424 C6429 0.950 . S
H6425 C6430 0.949 . S
H6426 C6432 0.950 . S
H6427 C6433 0.950 . S
H6428 C6434 0.949 . S
C6429 H6424 0.950 . S
C6429 C6431 1.327 . S
C6429 C6435 1.429 . S
C6430 C6422 1.574 . S
C6430 H6425 0.949 . S
C6430 C6436 1.368 . S
C6431 C6415 1.349 . S
C6431 H6423 0.950 . S
C6431 C6429 1.327 . S
C6432 C6420 1.349 . S
C6432 H6426 0.950 . S
C6432 C6433 1.327 . S
C6433 H6427 0.950 . S
C6433 C6432 1.327 . S
C6433 C6437 1.429 . S
C6434 C6417 1.574 . S
C6434 H6428 0.949 . S
C6434 C6438 1.368 . S
C6435 C6416 1.429 . S
C6435 C6429 1.429 . S
C6435 C6436 1.523 . S
C6436 C6417 1.368 . S
C6436 C6430 1.368 . S
C6436 C6435 1.523 . S
C6437 C6421 1.429 . S
C6437 C6433 1.429 . S
C6437 C6438 1.523 . S
C6438 C6422 1.368 . S
C6438 C6434 1.368 . S
C6438 C6437 1.523 . S
H6439 C6414 0.950 . S
H6440 C6416 0.950 . S
H6441 C6417 0.949 . S
H6442 C6419 0.950 . S
H6443 C6421 0.950 . S
C6444 C6445 1.349 . S
C6444 C6446 1.327 . S
C6444 H6469 0.950 . S
C6445 C6444 1.349 . S
C6445 C6461 1.349 . S
C6446 C6444 1.327 . S
C6446 C6465 1.429 . S
C6446 H6470 0.950 . S
C6447 C6464 1.574 . S
C6447 C6466 1.368 . S
C6447 H6471 0.949 . S
H6448 C6452 0.949 . S
C6449 C6450 1.349 . S
C6449 C6451 1.327 . S
C6449 H6472 0.950 . S
C6450 C6449 1.349 . S
C6450 C6462 1.349 . S
C6451 C6449 1.327 . S
C6451 C6467 1.429 . S
C6451 H6473 0.950 . S
C6452 H6448 0.949 . S
C6452 C6460 1.574 . S
C6452 C6468 1.368 . S
H6453 C6461 0.950 . S
H6454 C6459 0.950 . S
H6455 C6460 0.949 . S
H6456 C6462 0.950 . S
H6457 C6463 0.950 . S
H6458 C6464 0.949 . S
C6459 H6454 0.950 . S
C6459 C6461 1.327 . S
C6459 C6465 1.429 . S
C6460 C6452 1.574 . S
C6460 H6455 0.949 . S
C6460 C6466 1.368 . S
C6461 C6445 1.349 . S
C6461 H6453 0.950 . S
C6461 C6459 1.327 . S
C6462 C6450 1.349 . S
C6462 H6456 0.950 . S
C6462 C6463 1.327 . S
C6463 H6457 0.950 . S
C6463 C6462 1.327 . S
C6463 C6467 1.429 . S
C6464 C6447 1.574 . S
C6464 H6458 0.949 . S
C6464 C6468 1.368 . S
C6465 C6446 1.429 . S
C6465 C6459 1.429 . S
C6465 C6466 1.523 . S
C6466 C6447 1.368 . S
C6466 C6460 1.368 . S
C6466 C6465 1.523 . S
C6467 C6451 1.429 . S
C6467 C6463 1.429 . S
C6467 C6468 1.523 . S
C6468 C6452 1.368 . S
C6468 C6464 1.368 . S
C6468 C6467 1.523 . S
H6469 C6444 0.950 . S
H6470 C6446 0.950 . S
H6471 C6447 0.949 . S
H6472 C6449 0.950 . S
H6473 C6451 0.950 . S
C6474 C6475 1.349 . S
C6474 C6476 1.327 . S
C6474 H6499 0.950 . S
C6475 C6474 1.349 . S
C6475 C6491 1.349 . S
C6476 C6474 1.327 . S
C6476 C6495 1.429 . S
C6476 H6500 0.950 . S
C6477 C6494 1.574 . S
C6477 C6496 1.368 . S
C6477 H6501 0.949 . S
H6478 C6482 0.949 . S
C6479 C6480 1.349 . S
C6479 C6481 1.327 . S
C6479 H6502 0.950 . S
C6480 C6479 1.349 . S
C6480 C6492 1.349 . S
C6481 C6479 1.327 . S
C6481 C6497 1.429 . S
C6481 H6503 0.950 . S
C6482 H6478 0.949 . S
C6482 C6490 1.574 . S
C6482 C6498 1.368 . S
H6483 C6491 0.950 . S
H6484 C6489 0.950 . S
H6485 C6490 0.949 . S
H6486 C6492 0.950 . S
H6487 C6493 0.950 . S
H6488 C6494 0.949 . S
C6489 H6484 0.950 . S
C6489 C6491 1.327 . S
C6489 C6495 1.429 . S
C6490 C6482 1.574 . S
C6490 H6485 0.949 . S
C6490 C6496 1.368 . S
C6491 C6475 1.349 . S
C6491 H6483 0.950 . S
C6491 C6489 1.327 . S
C6492 C6480 1.349 . S
C6492 H6486 0.950 . S
C6492 C6493 1.327 . S
C6493 H6487 0.950 . S
C6493 C6492 1.327 . S
C6493 C6497 1.429 . S
C6494 C6477 1.574 . S
C6494 H6488 0.949 . S
C6494 C6498 1.368 . S
C6495 C6476 1.429 . S
C6495 C6489 1.429 . S
C6495 C6496 1.523 . S
C6496 C6477 1.368 . S
C6496 C6490 1.368 . S
C6496 C6495 1.523 . S
C6497 C6481 1.429 . S
C6497 C6493 1.429 . S
C6497 C6498 1.523 . S
C6498 C6482 1.368 . S
C6498 C6494 1.368 . S
C6498 C6497 1.523 . S
H6499 C6474 0.950 . S
H6500 C6476 0.950 . S
H6501 C6477 0.949 . S
H6502 C6479 0.950 . S
H6503 C6481 0.950 . S
C6504 C6505 1.349 . S
C6504 C6506 1.327 . S
C6504 H6529 0.950 . S
C6505 C6504 1.349 . S
C6505 C6521 1.349 . S
C6506 C6504 1.327 . S
C6506 C6525 1.429 . S
C6506 H6530 0.950 . S
C6507 C6524 1.574 . S
C6507 C6526 1.368 . S
C6507 H6531 0.949 . S
H6508 C6512 0.949 . S
C6509 C6510 1.349 . S
C6509 C6511 1.327 . S
C6509 H6532 0.950 . S
C6510 C6509 1.349 . S
C6510 C6522 1.349 . S
C6511 C6509 1.327 . S
C6511 C6527 1.429 . S
C6511 H6533 0.950 . S
C6512 H6508 0.949 . S
C6512 C6520 1.574 . S
C6512 C6528 1.368 . S
H6513 C6521 0.950 . S
H6514 C6519 0.950 . S
H6515 C6520 0.949 . S
H6516 C6522 0.950 . S
H6517 C6523 0.950 . S
H6518 C6524 0.949 . S
C6519 H6514 0.950 . S
C6519 C6521 1.327 . S
C6519 C6525 1.429 . S
C6520 C6512 1.574 . S
C6520 H6515 0.949 . S
C6520 C6526 1.368 . S
C6521 C6505 1.349 . S
C6521 H6513 0.950 . S
C6521 C6519 1.327 . S
C6522 C6510 1.349 . S
C6522 H6516 0.950 . S
C6522 C6523 1.327 . S
C6523 H6517 0.950 . S
C6523 C6522 1.327 . S
C6523 C6527 1.429 . S
C6524 C6507 1.574 . S
C6524 H6518 0.949 . S
C6524 C6528 1.368 . S
C6525 C6506 1.429 . S
C6525 C6519 1.429 . S
C6525 C6526 1.523 . S
C6526 C6507 1.368 . S
C6526 C6520 1.368 . S
C6526 C6525 1.523 . S
C6527 C6511 1.429 . S
C6527 C6523 1.429 . S
C6527 C6528 1.523 . S
C6528 C6512 1.368 . S
C6528 C6524 1.368 . S
C6528 C6527 1.523 . S
H6529 C6504 0.950 . S
H6530 C6506 0.950 . S
H6531 C6507 0.949 . S
H6532 C6509 0.950 . S
H6533 C6511 0.950 . S
C6534 C6535 1.349 . S
C6534 C6536 1.327 . S
C6534 H6559 0.950 . S
C6535 C6534 1.349 . S
C6535 C6551 1.349 . S
C6536 C6534 1.327 . S
C6536 C6555 1.429 . S
C6536 H6560 0.950 . S
C6537 C6554 1.574 . S
C6537 C6556 1.368 . S
C6537 H6561 0.949 . S
H6538 C6542 0.949 . S
C6539 C6540 1.349 . S
C6539 C6541 1.327 . S
C6539 H6562 0.950 . S
C6540 C6539 1.349 . S
C6540 C6552 1.349 . S
C6541 C6539 1.327 . S
C6541 C6557 1.429 . S
C6541 H6563 0.950 . S
C6542 H6538 0.949 . S
C6542 C6550 1.574 . S
C6542 C6558 1.368 . S
H6543 C6551 0.950 . S
H6544 C6549 0.950 . S
H6545 C6550 0.949 . S
H6546 C6552 0.950 . S
H6547 C6553 0.950 . S
H6548 C6554 0.949 . S
C6549 H6544 0.950 . S
C6549 C6551 1.327 . S
C6549 C6555 1.429 . S
C6550 C6542 1.574 . S
C6550 H6545 0.949 . S
C6550 C6556 1.368 . S
C6551 C6535 1.349 . S
C6551 H6543 0.950 . S
C6551 C6549 1.327 . S
C6552 C6540 1.349 . S
C6552 H6546 0.950 . S
C6552 C6553 1.327 . S
C6553 H6547 0.950 . S
C6553 C6552 1.327 . S
C6553 C6557 1.429 . S
C6554 C6537 1.574 . S
C6554 H6548 0.949 . S
C6554 C6558 1.368 . S
C6555 C6536 1.429 . S
C6555 C6549 1.429 . S
C6555 C6556 1.523 . S
C6556 C6537 1.368 . S
C6556 C6550 1.368 . S
C6556 C6555 1.523 . S
C6557 C6541 1.429 . S
C6557 C6553 1.429 . S
C6557 C6558 1.523 . S
C6558 C6542 1.368 . S
C6558 C6554 1.368 . S
C6558 C6557 1.523 . S
H6559 C6534 0.950 . S
H6560 C6536 0.950 . S
H6561 C6537 0.949 . S
H6562 C6539 0.950 . S
H6563 C6541 0.950 . S
C6564 C6565 1.349 . S
C6564 C6566 1.327 . S
C6564 H6589 0.950 . S
C6565 C6564 1.349 . S
C6565 C6581 1.349 . S
C6566 C6564 1.327 . S
C6566 C6585 1.429 . S
C6566 H6590 0.950 . S
C6567 C6584 1.574 . S
C6567 C6586 1.368 . S
C6567 H6591 0.949 . S
H6568 C6572 0.949 . S
C6569 C6570 1.349 . S
C6569 C6571 1.327 . S
C6569 H6592 0.950 . S
C6570 C6569 1.349 . S
C6570 C6582 1.349 . S
C6571 C6569 1.327 . S
C6571 C6587 1.429 . S
C6571 H6593 0.950 . S
C6572 H6568 0.949 . S
C6572 C6580 1.574 . S
C6572 C6588 1.368 . S
H6573 C6581 0.950 . S
H6574 C6579 0.950 . S
H6575 C6580 0.949 . S
H6576 C6582 0.950 . S
H6577 C6583 0.950 . S
H6578 C6584 0.949 . S
C6579 H6574 0.950 . S
C6579 C6581 1.327 . S
C6579 C6585 1.429 . S
C6580 C6572 1.574 . S
C6580 H6575 0.949 . S
C6580 C6586 1.368 . S
C6581 C6565 1.349 . S
C6581 H6573 0.950 . S
C6581 C6579 1.327 . S
C6582 C6570 1.349 . S
C6582 H6576 0.950 . S
C6582 C6583 1.327 . S
C6583 H6577 0.950 . S
C6583 C6582 1.327 . S
C6583 C6587 1.429 . S
C6584 C6567 1.574 . S
C6584 H6578 0.949 . S
C6584 C6588 1.368 . S
C6585 C6566 1.429 . S
C6585 C6579 1.429 . S
C6585 C6586 1.523 . S
C6586 C6567 1.368 . S
C6586 C6580 1.368 . S
C6586 C6585 1.523 . S
C6587 C6571 1.429 . S
C6587 C6583 1.429 . S
C6587 C6588 1.523 1_455 S
C6588 C6572 1.368 . S
C6588 C6584 1.368 . S
C6588 C6587 1.523 1_655 S
H6589 C6564 0.950 . S
H6590 C6566 0.950 . S
H6591 C6567 0.949 . S
H6592 C6569 0.950 . S
H6593 C6571 0.950 . S
C6594 C6595 1.349 . S
C6594 C6596 1.327 . S
C6594 H6619 0.950 . S
C6595 C6594 1.349 . S
C6595 C6611 1.349 . S
C6596 C6594 1.327 . S
C6596 C6615 1.429 . S
C6596 H6620 0.950 . S
C6597 C6614 1.574 . S
C6597 C6616 1.368 . S
C6597 H6621 0.949 . S
H6598 C6602 0.949 . S
C6599 C6600 1.349 . S
C6599 C6601 1.327 . S
C6599 H6622 0.950 . S
C6600 C6599 1.349 . S
C6600 C6612 1.349 . S
C6601 C6599 1.327 . S
C6601 C6617 1.429 . S
C6601 H6623 0.950 . S
C6602 H6598 0.949 . S
C6602 C6610 1.574 . S
C6602 C6618 1.368 . S
H6603 C6611 0.950 . S
H6604 C6609 0.950 . S
H6605 C6610 0.949 . S
H6606 C6612 0.950 . S
H6607 C6613 0.950 . S
H6608 C6614 0.949 . S
C6609 H6604 0.950 . S
C6609 C6611 1.327 . S
C6609 C6615 1.429 . S
C6610 C6602 1.574 . S
C6610 H6605 0.949 . S
C6610 C6616 1.368 . S
C6611 C6595 1.349 . S
C6611 H6603 0.950 . S
C6611 C6609 1.327 . S
C6612 C6600 1.349 . S
C6612 H6606 0.950 . S
C6612 C6613 1.327 . S
C6613 H6607 0.950 . S
C6613 C6612 1.327 . S
C6613 C6617 1.429 . S
C6614 C6597 1.574 . S
C6614 H6608 0.949 . S
C6614 C6618 1.368 . S
C6615 C6596 1.429 . S
C6615 C6609 1.429 . S
C6615 C6616 1.523 . S
C6616 C6597 1.368 . S
C6616 C6610 1.368 . S
C6616 C6615 1.523 . S
C6617 C6601 1.429 . S
C6617 C6613 1.429 . S
C6617 C6618 1.523 . S
C6618 C6602 1.368 . S
C6618 C6614 1.368 . S
C6618 C6617 1.523 . S
H6619 C6594 0.950 . S
H6620 C6596 0.950 . S
H6621 C6597 0.949 . S
H6622 C6599 0.950 . S
H6623 C6601 0.950 . S
C6624 C6625 1.349 . S
C6624 C6626 1.327 . S
C6624 H6649 0.950 . S
C6625 C6624 1.349 . S
C6625 C6641 1.349 . S
C6626 C6624 1.327 . S
C6626 C6645 1.429 . S
C6626 H6650 0.950 . S
C6627 C6644 1.574 . S
C6627 C6646 1.368 . S
C6627 H6651 0.949 . S
H6628 C6632 0.949 . S
C6629 C6630 1.349 . S
C6629 C6631 1.327 . S
C6629 H6652 0.950 . S
C6630 C6629 1.349 . S
C6630 C6642 1.349 . S
C6631 C6629 1.327 . S
C6631 C6647 1.429 . S
C6631 H6653 0.950 . S
C6632 H6628 0.949 . S
C6632 C6640 1.574 . S
C6632 C6648 1.368 . S
H6633 C6641 0.950 . S
H6634 C6639 0.950 . S
H6635 C6640 0.949 . S
H6636 C6642 0.950 . S
H6637 C6643 0.950 . S
H6638 C6644 0.949 . S
C6639 H6634 0.950 . S
C6639 C6641 1.327 . S
C6639 C6645 1.429 . S
C6640 C6632 1.574 . S
C6640 H6635 0.949 . S
C6640 C6646 1.368 . S
C6641 C6625 1.349 . S
C6641 H6633 0.950 . S
C6641 C6639 1.327 . S
C6642 C6630 1.349 . S
C6642 H6636 0.950 . S
C6642 C6643 1.327 . S
C6643 H6637 0.950 . S
C6643 C6642 1.327 . S
C6643 C6647 1.429 . S
C6644 C6627 1.574 . S
C6644 H6638 0.949 . S
C6644 C6648 1.368 . S
C6645 C6626 1.429 . S
C6645 C6639 1.429 . S
C6645 C6646 1.523 . S
C6646 C6627 1.368 . S
C6646 C6640 1.368 . S
C6646 C6645 1.523 . S
C6647 C6631 1.429 . S
C6647 C6643 1.429 . S
C6647 C6648 1.523 . S
C6648 C6632 1.368 . S
C6648 C6644 1.368 . S
C6648 C6647 1.523 . S
H6649 C6624 0.950 . S
H6650 C6626 0.950 . S
H6651 C6627 0.949 . S
H6652 C6629 0.950 . S
H6653 C6631 0.950 . S
C6654 C6655 1.349 . S
C6654 C6656 1.327 . S
C6654 H6679 0.950 . S
C6655 C6654 1.349 . S
C6655 C6671 1.349 . S
C6656 C6654 1.327 . S
C6656 C6675 1.429 . S
C6656 H6680 0.950 . S
C6657 C6674 1.574 . S
C6657 C6676 1.368 . S
C6657 H6681 0.949 . S
H6658 C6662 0.949 . S
C6659 C6660 1.349 . S
C6659 C6661 1.327 . S
C6659 H6682 0.950 . S
C6660 C6659 1.349 . S
C6660 C6672 1.349 . S
C6661 C6659 1.327 . S
C6661 C6677 1.429 . S
C6661 H6683 0.950 . S
C6662 H6658 0.949 . S
C6662 C6670 1.574 . S
C6662 C6678 1.368 . S
H6663 C6671 0.950 . S
H6664 C6669 0.950 . S
H6665 C6670 0.949 . S
H6666 C6672 0.950 . S
H6667 C6673 0.950 . S
H6668 C6674 0.949 . S
C6669 H6664 0.950 . S
C6669 C6671 1.327 . S
C6669 C6675 1.429 . S
C6670 C6662 1.574 . S
C6670 H6665 0.949 . S
C6670 C6676 1.368 . S
C6671 C6655 1.349 . S
C6671 H6663 0.950 . S
C6671 C6669 1.327 . S
C6672 C6660 1.349 . S
C6672 H6666 0.950 . S
C6672 C6673 1.327 . S
C6673 H6667 0.950 . S
C6673 C6672 1.327 . S
C6673 C6677 1.429 . S
C6674 C6657 1.574 . S
C6674 H6668 0.949 . S
C6674 C6678 1.368 . S
C6675 C6656 1.429 . S
C6675 C6669 1.429 . S
C6675 C6676 1.523 . S
C6676 C6657 1.368 . S
C6676 C6670 1.368 . S
C6676 C6675 1.523 . S
C6677 C6661 1.429 . S
C6677 C6673 1.429 . S
C6677 C6678 1.523 . S
C6678 C6662 1.368 . S
C6678 C6674 1.368 . S
C6678 C6677 1.523 . S
H6679 C6654 0.950 . S
H6680 C6656 0.950 . S
H6681 C6657 0.949 . S
H6682 C6659 0.950 . S
H6683 C6661 0.950 . S
C6684 C6685 1.349 . S
C6684 C6686 1.327 . S
C6684 H6709 0.950 . S
C6685 C6684 1.349 . S
C6685 C6701 1.349 . S
C6686 C6684 1.327 . S
C6686 C6705 1.429 . S
C6686 H6710 0.950 . S
C6687 C6704 1.574 . S
C6687 C6706 1.368 . S
C6687 H6711 0.949 . S
H6688 C6692 0.949 . S
C6689 C6690 1.349 . S
C6689 C6691 1.327 . S
C6689 H6712 0.950 . S
C6690 C6689 1.349 . S
C6690 C6702 1.349 . S
C6691 C6689 1.327 . S
C6691 C6707 1.429 . S
C6691 H6713 0.950 . S
C6692 H6688 0.949 . S
C6692 C6700 1.574 . S
C6692 C6708 1.368 . S
H6693 C6701 0.950 . S
H6694 C6699 0.950 . S
H6695 C6700 0.949 . S
H6696 C6702 0.950 . S
H6697 C6703 0.950 . S
H6698 C6704 0.949 . S
C6699 H6694 0.950 . S
C6699 C6701 1.327 . S
C6699 C6705 1.429 . S
C6700 C6692 1.574 . S
C6700 H6695 0.949 . S
C6700 C6706 1.368 . S
C6701 C6685 1.349 . S
C6701 H6693 0.950 . S
C6701 C6699 1.327 . S
C6702 C6690 1.349 . S
C6702 H6696 0.950 . S
C6702 C6703 1.327 . S
C6703 H6697 0.950 . S
C6703 C6702 1.327 . S
C6703 C6707 1.429 . S
C6704 C6687 1.574 . S
C6704 H6698 0.949 . S
C6704 C6708 1.368 . S
C6705 C6686 1.429 . S
C6705 C6699 1.429 . S
C6705 C6706 1.523 . S
C6706 C6687 1.368 . S
C6706 C6700 1.368 . S
C6706 C6705 1.523 . S
C6707 C6691 1.429 . S
C6707 C6703 1.429 . S
C6707 C6708 1.523 . S
C6708 C6692 1.368 . S
C6708 C6704 1.368 . S
C6708 C6707 1.523 . S
H6709 C6684 0.950 . S
H6710 C6686 0.950 . S
H6711 C6687 0.949 . S
H6712 C6689 0.950 . S
H6713 C6691 0.950 . S
C6714 C6715 1.349 . S
C6714 C6716 1.327 . S
C6714 H6739 0.950 . S
C6715 C6714 1.349 . S
C6715 C6731 1.349 . S
C6716 C6714 1.327 . S
C6716 C6735 1.429 . S
C6716 H6740 0.950 . S
C6717 C6734 1.574 . S
C6717 C6736 1.368 . S
C6717 H6741 0.949 . S
H6718 C6722 0.949 . S
C6719 C6720 1.349 . S
C6719 C6721 1.327 . S
C6719 H6742 0.950 . S
C6720 C6719 1.349 . S
C6720 C6732 1.349 . S
C6721 C6719 1.327 . S
C6721 C6737 1.429 . S
C6721 H6743 0.950 . S
C6722 H6718 0.949 . S
C6722 C6730 1.574 . S
C6722 C6738 1.368 . S
H6723 C6731 0.950 . S
H6724 C6729 0.950 . S
H6725 C6730 0.949 . S
H6726 C6732 0.950 . S
H6727 C6733 0.950 . S
H6728 C6734 0.949 . S
C6729 H6724 0.950 . S
C6729 C6731 1.327 . S
C6729 C6735 1.429 . S
C6730 C6722 1.574 . S
C6730 H6725 0.949 . S
C6730 C6736 1.368 . S
C6731 C6715 1.349 . S
C6731 H6723 0.950 . S
C6731 C6729 1.327 . S
C6732 C6720 1.349 . S
C6732 H6726 0.950 . S
C6732 C6733 1.327 . S
C6733 H6727 0.950 . S
C6733 C6732 1.327 . S
C6733 C6737 1.429 . S
C6734 C6717 1.574 . S
C6734 H6728 0.949 . S
C6734 C6738 1.368 . S
C6735 C6716 1.429 . S
C6735 C6729 1.429 . S
C6735 C6736 1.523 . S
C6736 C6717 1.368 . S
C6736 C6730 1.368 . S
C6736 C6735 1.523 . S
C6737 C6721 1.429 . S
C6737 C6733 1.429 . S
C6737 C6738 1.523 . S
C6738 C6722 1.368 . S
C6738 C6734 1.368 . S
C6738 C6737 1.523 . S
H6739 C6714 0.950 . S
H6740 C6716 0.950 . S
H6741 C6717 0.949 . S
H6742 C6719 0.950 . S
H6743 C6721 0.950 . S
C6744 C6745 1.349 . S
C6744 C6746 1.327 . S
C6744 H6769 0.950 . S
C6745 C6744 1.349 . S
C6745 C6761 1.349 . S
C6746 C6744 1.327 . S
C6746 C6765 1.429 . S
C6746 H6770 0.950 . S
C6747 C6764 1.574 . S
C6747 C6766 1.368 . S
C6747 H6771 0.949 . S
H6748 C6752 0.949 . S
C6749 C6750 1.349 . S
C6749 C6751 1.327 . S
C6749 H6772 0.950 . S
C6750 C6749 1.349 . S
C6750 C6762 1.349 . S
C6751 C6749 1.327 . S
C6751 C6767 1.429 . S
C6751 H6773 0.950 . S
C6752 H6748 0.949 . S
C6752 C6760 1.574 . S
C6752 C6768 1.368 . S
H6753 C6761 0.950 . S
H6754 C6759 0.950 . S
H6755 C6760 0.949 . S
H6756 C6762 0.950 . S
H6757 C6763 0.950 . S
H6758 C6764 0.949 . S
C6759 H6754 0.950 . S
C6759 C6761 1.327 . S
C6759 C6765 1.429 . S
C6760 C6752 1.574 . S
C6760 H6755 0.949 . S
C6760 C6766 1.368 . S
C6761 C6745 1.349 . S
C6761 H6753 0.950 . S
C6761 C6759 1.327 . S
C6762 C6750 1.349 . S
C6762 H6756 0.950 . S
C6762 C6763 1.327 . S
C6763 H6757 0.950 . S
C6763 C6762 1.327 . S
C6763 C6767 1.429 . S
C6764 C6747 1.574 . S
C6764 H6758 0.949 . S
C6764 C6768 1.368 . S
C6765 C6746 1.429 . S
C6765 C6759 1.429 . S
C6765 C6766 1.523 . S
C6766 C6747 1.368 . S
C6766 C6760 1.368 . S
C6766 C6765 1.523 . S
C6767 C6751 1.429 . S
C6767 C6763 1.429 . S
C6767 C6768 1.523 . S
C6768 C6752 1.368 . S
C6768 C6764 1.368 . S
C6768 C6767 1.523 . S
H6769 C6744 0.950 . S
H6770 C6746 0.950 . S
H6771 C6747 0.949 . S
H6772 C6749 0.950 . S
H6773 C6751 0.950 . S
C6774 C6775 1.349 . S
C6774 C6776 1.327 . S
C6774 H6799 0.950 . S
C6775 C6774 1.349 . S
C6775 C6791 1.349 . S
C6776 C6774 1.327 . S
C6776 C6795 1.429 . S
C6776 H6800 0.950 . S
C6777 C6794 1.574 . S
C6777 C6796 1.368 . S
C6777 H6801 0.949 . S
H6778 C6782 0.949 . S
C6779 C6780 1.349 . S
C6779 C6781 1.327 . S
C6779 H6802 0.950 . S
C6780 C6779 1.349 . S
C6780 C6792 1.349 . S
C6781 C6779 1.327 . S
C6781 C6797 1.429 . S
C6781 H6803 0.950 . S
C6782 H6778 0.949 . S
C6782 C6790 1.574 . S
C6782 C6798 1.368 . S
H6783 C6791 0.950 . S
H6784 C6789 0.950 . S
H6785 C6790 0.949 . S
H6786 C6792 0.950 . S
H6787 C6793 0.950 . S
H6788 C6794 0.949 . S
C6789 H6784 0.950 . S
C6789 C6791 1.327 . S
C6789 C6795 1.429 . S
C6790 C6782 1.574 . S
C6790 H6785 0.949 . S
C6790 C6796 1.368 . S
C6791 C6775 1.349 . S
C6791 H6783 0.950 . S
C6791 C6789 1.327 . S
C6792 C6780 1.349 . S
C6792 H6786 0.950 . S
C6792 C6793 1.327 . S
C6793 H6787 0.950 . S
C6793 C6792 1.327 . S
C6793 C6797 1.429 . S
C6794 C6777 1.574 . S
C6794 H6788 0.949 . S
C6794 C6798 1.368 . S
C6795 C6776 1.429 . S
C6795 C6789 1.429 . S
C6795 C6796 1.523 . S
C6796 C6777 1.368 . S
C6796 C6790 1.368 . S
C6796 C6795 1.523 . S
C6797 C6781 1.429 . S
C6797 C6793 1.429 . S
C6797 C6798 1.523 . S
C6798 C6782 1.368 . S
C6798 C6794 1.368 . S
C6798 C6797 1.523 . S
H6799 C6774 0.950 . S
H6800 C6776 0.950 . S
H6801 C6777 0.949 . S
H6802 C6779 0.950 . S
H6803 C6781 0.950 . S
C6804 C6805 1.349 . S
C6804 C6806 1.327 . S
C6804 H6829 0.950 . S
C6805 C6804 1.349 . S
C6805 C6821 1.349 . S
C6806 C6804 1.327 . S
C6806 C6825 1.429 . S
C6806 H6830 0.950 . S
C6807 C6824 1.574 . S
C6807 C6826 1.368 . S
C6807 H6831 0.949 . S
H6808 C6812 0.949 . S
C6809 C6810 1.349 . S
C6809 C6811 1.327 . S
C6809 H6832 0.950 . S
C6810 C6809 1.349 . S
C6810 C6822 1.349 . S
C6811 C6809 1.327 . S
C6811 C6827 1.429 . S
C6811 H6833 0.950 . S
C6812 H6808 0.949 . S
C6812 C6820 1.574 . S
C6812 C6828 1.368 . S
H6813 C6821 0.950 . S
H6814 C6819 0.950 . S
H6815 C6820 0.949 . S
H6816 C6822 0.950 . S
H6817 C6823 0.950 . S
H6818 C6824 0.949 . S
C6819 H6814 0.950 . S
C6819 C6821 1.327 . S
C6819 C6825 1.429 . S
C6820 C6812 1.574 . S
C6820 H6815 0.949 . S
C6820 C6826 1.368 . S
C6821 C6805 1.349 . S
C6821 H6813 0.950 . S
C6821 C6819 1.327 . S
C6822 C6810 1.349 . S
C6822 H6816 0.950 . S
C6822 C6823 1.327 . S
C6823 H6817 0.950 . S
C6823 C6822 1.327 . S
C6823 C6827 1.429 . S
C6824 C6807 1.574 . S
C6824 H6818 0.949 . S
C6824 C6828 1.368 . S
C6825 C6806 1.429 . S
C6825 C6819 1.429 . S
C6825 C6826 1.523 . S
C6826 C6807 1.368 . S
C6826 C6820 1.368 . S
C6826 C6825 1.523 . S
C6827 C6811 1.429 . S
C6827 C6823 1.429 . S
C6827 C6828 1.523 . S
C6828 C6812 1.368 . S
C6828 C6824 1.368 . S
C6828 C6827 1.523 . S
H6829 C6804 0.950 . S
H6830 C6806 0.950 . S
H6831 C6807 0.949 . S
H6832 C6809 0.950 . S
H6833 C6811 0.950 . S
C6834 C6835 1.349 . S
C6834 C6836 1.327 . S
C6834 H6859 0.950 . S
C6835 C6834 1.349 . S
C6835 C6851 1.349 . S
C6836 C6834 1.327 . S
C6836 C6855 1.429 . S
C6836 H6860 0.950 . S
C6837 C6854 1.574 . S
C6837 C6856 1.368 . S
C6837 H6861 0.949 . S
H6838 C6842 0.949 . S
C6839 C6840 1.349 . S
C6839 C6841 1.327 . S
C6839 H6862 0.950 . S
C6840 C6839 1.349 . S
C6840 C6852 1.349 . S
C6841 C6839 1.327 . S
C6841 C6857 1.429 . S
C6841 H6863 0.950 . S
C6842 H6838 0.949 . S
C6842 C6850 1.574 . S
C6842 C6858 1.368 . S
H6843 C6851 0.950 . S
H6844 C6849 0.950 . S
H6845 C6850 0.949 . S
H6846 C6852 0.950 . S
H6847 C6853 0.950 . S
H6848 C6854 0.949 . S
C6849 H6844 0.950 . S
C6849 C6851 1.327 . S
C6849 C6855 1.429 . S
C6850 C6842 1.574 . S
C6850 H6845 0.949 . S
C6850 C6856 1.368 . S
C6851 C6835 1.349 . S
C6851 H6843 0.950 . S
C6851 C6849 1.327 . S
C6852 C6840 1.349 . S
C6852 H6846 0.950 . S
C6852 C6853 1.327 . S
C6853 H6847 0.950 . S
C6853 C6852 1.327 . S
C6853 C6857 1.429 . S
C6854 C6837 1.574 . S
C6854 H6848 0.949 . S
C6854 C6858 1.368 . S
C6855 C6836 1.429 . S
C6855 C6849 1.429 . S
C6855 C6856 1.523 . S
C6856 C6837 1.368 . S
C6856 C6850 1.368 . S
C6856 C6855 1.523 . S
C6857 C6841 1.429 . S
C6857 C6853 1.429 . S
C6857 C6858 1.523 . S
C6858 C6842 1.368 . S
C6858 C6854 1.368 . S
C6858 C6857 1.523 . S
H6859 C6834 0.950 . S
H6860 C6836 0.950 . S
H6861 C6837 0.949 . S
H6862 C6839 0.950 . S
H6863 C6841 0.950 . S
C2545 C1781 1.778 . S
C2550 C1929 1.843 . S
C2575 C981 1.635 . S
C2580 C1942 1.612 . S
C2610 C1955 1.567 . S
C2605 C1861 1.583 . S
C2635 C1061 1.736 . S
C2640 C1968 1.717 . S
C2665 C1901 1.711 . S
C2670 C1981 1.760 . S
C2695 C941 1.605 . S
C2700 C1994 1.650 . S
C2725 C1821 1.592 . S
C2730 C2007 1.584 . S
C2755 C1021 1.322 . S
C2760 C2020 1.299 . S
C2785 C661 1.294 . S
C2790 C2033 1.317 . S
C2815 C1621 1.408 . S
C2820 C2046 1.443 . S
C2845 C741 1.645 . S
C2850 C2059 1.611 . S
C2875 C1581 1.614 . S
C2880 C2072 1.613 . S
C2905 C901 1.440 . S
C2910 C2085 1.409 . S
C2940 C2098 1.802 . S
C2935 C1661 1.768 . S
C2970 C2111 1.574 . S
C2965 C821 1.603 . S
C2995 C1141 1.554 . S
C3000 C2124 1.555 . S
C3030 C2137 1.747 . S
C3025 C781 1.721 . S
C3060 C2150 1.631 . S
C3055 C1701 1.659 . S
C3085 C861 1.570 . S
C3090 C2163 1.572 . S
C3115 C1181 1.647 . S
C3120 C2176 1.615 . S
C3150 C2189 1.396 . S
C3145 C1101 1.370 . S
C3175 C1421 1.632 . S
C3180 C2202 1.613 . S
C3210 C2215 1.595 . S
C3205 C381 1.601 . S
C3240 C2228 1.906 . S
C3235 C1501 1.789 . S
C3270 C2241 1.473 . S
C3265 C461 1.472 . S
C3300 C2254 1.677 . S
C3295 C1541 1.685 . S
C3325 C341 1.389 . S
C3330 C2267 1.368 . S
C3360 C2280 1.630 . S
C3355 C1461 1.639 . S
C3385 C421 1.705 . S
C3390 C2293 1.809 . S
C3420 C2306 1.590 . S
C3415 C61 1.609 . S
C3450 C2319 1.744 . S
C3445 C1261 1.688 . S
C3475 C141 1.450 . S
C3480 C2332 1.434 . S
C3510 C2345 1.484 . S
C3505 C1221 1.487 . S
C3540 C2358 1.232 . S
C3535 C301 1.216 . S
C3565 C1301 1.619 . S
C3570 C2371 1.587 . S
C3600 C2384 1.437 . S
C3595 C221 1.439 . S
C3630 C2397 1.770 . S
C3625 C541 1.728 . S
C3655 C181 1.602 . S
C3660 C2410 1.570 . S
C3690 C2423 1.463 . S
C3685 C1341 1.471 . S
C3715 C261 1.749 . S
C3720 C2436 1.792 . S
C3750 C2449 1.482 . S
C3745 C581 1.498 . S
C3775 C501 1.668 . S
C3780 C2462 1.649 . S
C3805 C701 1.373 . S
C3810 C2475 1.403 . S
C3840 C2488 1.610 . S
C3835 C621 1.605 . S
C3865 C1741 1.521 . S
C3870 C2501 1.490 . S
C3895 C101 1.593 . S
C3900 C2514 1.643 . S
C3930 C2527 1.519 . S
C3925 C21 1.525 . S
C3960 C2540 1.218 . S
C3955 C1381 1.207 . S
C3985 C1335 1.786 1_554 S
C3990 C1928 1.786 . S
C4015 C535 1.630 . S
C4020 C1941 1.637 . S
C4045 C1362 1.521 . S
C4050 C1950 1.484 . S
C4080 C1967 1.367 . S
C4075 C1295 1.361 . S
C4105 C575 1.601 . S
C4110 C1976 1.605 . S
C4135 C1215 1.478 . S
C4140 C1989 1.376 . S
C4170 C2002 1.702 . S
C4165 C495 1.741 . S
C4195 C1242 1.238 . S
C4200 C2019 1.255 . S
C4225 C1255 1.562 . S
C4230 C2032 1.532 . S
C4260 C2041 1.625 . S
C4255 C562 1.788 . S
C4285 C1202 1.775 . S
C4290 C2054 1.660 . S
C4320 C2067 1.552 . S
C4315 C482 1.684 . S
C4345 C522 1.652 . S
C4350 C2080 1.651 . S
C4375 C1375 1.678 . S
C4380 C2097 1.664 . S
C4410 C2106 1.402 . S
C4405 C1282 1.538 . S
C4440 C2123 1.675 . S
C4435 C1322 1.690 . S
C4465 C455 1.688 . S
C4470 C2071 1.691 . S
C4495 C1415 1.514 . S
C4500 C2132 1.471 . S
C4525 C1455 1.385 . S
C4530 C2149 1.373 . S
C4560 C2158 1.656 . S
C4555 C1482 1.652 . S
C4590 C2084 1.499 . S
C4585 C442 1.556 . S
C4615 C362 1.653 . S
C4620 C2045 1.649 . S
C4645 C1495 1.990 . S
C4650 C2175 1.973 . S
C4680 C2184 1.333 . S
C4675 C1402 1.465 . S
C4710 C2201 1.756 . S
C4705 C1695 1.765 . S
C4735 C1135 1.281 . S
C4740 C2214 1.276 . S
C4770 C2223 1.492 . S
C4765 C1722 1.548 . S
C4800 C2240 1.670 . S
C4795 C1655 1.650 . S
C4825 C1175 1.864 . S
C4830 C2249 1.842 . S
C4855 C1562 1.651 . S
C4860 C2262 1.583 . S
C4885 C1095 1.393 1_554 S
C4890 C2275 1.448 . S
C4920 C2292 1.657 . S
C4915 C1615 1.634 . S
C4950 C2305 1.652 . S
C4945 C1602 1.642 . S
C4975 C1162 1.613 . S
C4980 C2314 1.555 . S
C5010 C2331 1.631 . S
C5005 C1575 1.689 . S
C5035 C1082 1.508 . S
C5040 C2340 1.470 . S
C5070 C2353 1.285 . S
C5065 C1122 1.421 . S
C5095 C1735 1.620 . S
C5100 C2370 1.586 . S
C5130 C2379 1.576 . S
C5125 C1642 1.599 . S
C5155 C1682 1.828 . S
C5160 C2392 1.741 . S
C5185 C1042 1.498 . S
C5190 C2344 1.497 . S
C5215 C1775 1.718 . S
C5220 C2405 1.638 . S
C5245 C1815 1.290 . S
C5250 C2422 1.277 . S
C5280 C2435 1.428 . S
C5275 C1842 1.438 . S
C5305 C1055 1.598 . S
C5310 C2357 1.542 . S
C5335 C975 1.450 . S
C5340 C2318 1.441 . S
C5370 C2444 1.540 . S
C5365 C1855 1.766 . S
C5395 C1762 1.695 . S
C5400 C2457 1.562 . S
C5430 C1993 1.680 . S
C5425 C215 1.687 . S
C5460 C2006 1.606 . S
C5455 C255 1.601 . S
C5490 C2015 1.408 . S
C5485 C282 1.457 . S
C5520 C1980 1.340 . S
C5515 C175 1.340 . S
C5550 C1963 1.602 . S
C5545 C135 1.595 . S
C5575 C15 1.538 . S
C5580 C1924 1.444 . S
C5605 C55 1.796 . S
C5610 C1937 1.792 . S
C5635 C82 1.317 . S
C5640 C1954 1.344 . S
C5665 C95 1.496 . S
C5670 C2188 1.470 . S
C5695 C122 1.797 . S
C5700 C2470 1.630 . S
C5725 C2 1.808 . S
C5730 C2171 1.681 . S
C5755 C42 1.699 . S
C5760 C2483 1.574 . S
C5785 C242 1.741 . S
C5790 C2496 1.744 . S
C5820 C2136 1.653 . S
C5815 C295 1.670 . S
C5845 C162 1.493 . S
C5850 C2145 1.381 . S
C5875 C202 1.620 . S
C5880 C2162 1.615 . S
C5910 C2487 1.574 . S
C5905 C1535 1.571 . S
C5935 C335 1.643 . S
C5940 C2093 1.590 . S
C5965 C375 1.397 . S
C5970 C2110 1.376 . S
C5995 C402 1.700 . S
C6000 C2119 1.701 . S
C6030 C2500 1.614 . S
C6025 C1522 1.669 . S
C6060 C2474 1.527 . S
C6055 C1442 1.541 . S
C6090 C2058 1.959 . S
C6085 C415 1.974 . S
C6115 C322 1.441 . S
C6120 C2028 1.323 . S
C6145 C815 1.619 . S
C6150 C2266 1.598 . S
C6175 C855 1.328 . S
C6180 C2279 1.324 . S
C6205 C882 1.521 . S
C6210 C2288 1.465 . S
C6235 C775 1.748 . S
C6240 C2253 1.768 . S
C6270 C2236 1.784 . S
C6265 C735 1.813 . S
C6300 C2197 1.702 . S
C6295 C602 1.757 . S
C6330 C2210 1.446 . S
C6325 C655 1.468 . S
C6355 C695 1.693 . S
C6360 C2227 1.717 . S
C6390 C2461 1.641 . S
C6385 C682 1.629 . S
C6415 C722 1.538 . S
C6420 C2509 1.484 . S
C6445 C615 1.763 . S
C6450 C2448 1.708 . S
C6480 C2522 1.470 . S
C6475 C642 1.500 . S
C6505 C842 1.472 . S
C6510 C2535 1.335 . S
C6540 C2409 1.527 . S
C6535 C895 1.562 . S
C6565 C762 1.578 . S
C6570 C2418 1.557 . S
C6595 C802 1.730 . S
C6600 C2431 1.658 . S
C6625 C1895 1.440 . S
C6630 C2526 1.449 . S
C6660 C2366 1.709 . S
C6655 C935 1.819 . S
C6685 C962 1.365 . S
C6690 C2383 1.358 . S
C6715 C1002 1.485 . S
C6720 C2396 1.480 . S
C6745 C1882 1.574 . S
C6750 C2539 1.562 . S
C6775 C1802 1.344 . S
C6780 C2513 1.352 . S
C6810 C2327 1.447 . S
C6805 C1015 1.677 . S
C6840 C2301 1.511 . S
C6835 C922 1.652 . S
