# Generated by pormake.
# Topology zzz, (3,6)-cn, num edge types: 1
# Building blocks:
#     Node 0, Type 0, BuildingBlock: KAKCAD_clean_linker_0, # of connection points: 3
#     Node 1, Type 0, BuildingBlock: KAKCAD_clean_linker_0, # of connection points: 3
#     Node 2, Type 0, BuildingBlock: KAKCAD_clean_linker_0, # of connection points: 3
#     Node 3, Type 0, BuildingBlock: KAKCAD_clean_linker_0, # of connection points: 3
#     Node 4, Type 0, BuildingBlock: KAKCAD_clean_linker_0, # of connection points: 3
#     Node 5, Type 0, BuildingBlock: KAKCAD_clean_linker_0, # of connection points: 3
#     Node 6, Type 0, BuildingBlock: KAKCAD_clean_linker_0, # of connection points: 3
#     Node 7, Type 0, BuildingBlock: KAKCAD_clean_linker_0, # of connection points: 3
#     Node 8, Type 1, BuildingBlock: KUMJIN_clean_sbu_1, # of connection points: 6
#     Node 9, Type 1, BuildingBlock: KUMJIN_clean_sbu_1, # of connection points: 6
#     Node 10, Type 1, BuildingBlock: KUMJIN_clean_sbu_1, # of connection points: 6
#     Node 11, Type 1, BuildingBlock: KUMJIN_clean_sbu_1, # of connection points: 6
#     Edge 12, Type (0, 1), BuildingBlock: ZUJKAS_clean_linker_0, # of connection points: 2
#     Edge 13, Type (0, 1), BuildingBlock: ZUJKAS_clean_linker_0, # of connection points: 2
#     Edge 14, Type (0, 1), BuildingBlock: ZUJKAS_clean_linker_0, # of connection points: 2
#     Edge 15, Type (0, 1), BuildingBlock: ZUJKAS_clean_linker_0, # of connection points: 2
#     Edge 16, Type (0, 1), BuildingBlock: ZUJKAS_clean_linker_0, # of connection points: 2
#     Edge 17, Type (0, 1), BuildingBlock: ZUJKAS_clean_linker_0, # of connection points: 2
#     Edge 18, Type (0, 1), BuildingBlock: ZUJKAS_clean_linker_0, # of connection points: 2
#     Edge 19, Type (0, 1), BuildingBlock: ZUJKAS_clean_linker_0, # of connection points: 2
#     Edge 20, Type (0, 1), BuildingBlock: ZUJKAS_clean_linker_0, # of connection points: 2
#     Edge 21, Type (0, 1), BuildingBlock: ZUJKAS_clean_linker_0, # of connection points: 2
#     Edge 22, Type (0, 1), BuildingBlock: ZUJKAS_clean_linker_0, # of connection points: 2
#     Edge 23, Type (0, 1), BuildingBlock: ZUJKAS_clean_linker_0, # of connection points: 2
#     Edge 24, Type (0, 1), BuildingBlock: ZUJKAS_clean_linker_0, # of connection points: 2
#     Edge 25, Type (0, 1), BuildingBlock: ZUJKAS_clean_linker_0, # of connection points: 2
#     Edge 26, Type (0, 1), BuildingBlock: ZUJKAS_clean_linker_0, # of connection points: 2
#     Edge 27, Type (0, 1), BuildingBlock: ZUJKAS_clean_linker_0, # of connection points: 2
#     Edge 28, Type (0, 1), BuildingBlock: ZUJKAS_clean_linker_0, # of connection points: 2
#     Edge 29, Type (0, 1), BuildingBlock: ZUJKAS_clean_linker_0, # of connection points: 2
#     Edge 30, Type (0, 1), BuildingBlock: ZUJKAS_clean_linker_0, # of connection points: 2
#     Edge 31, Type (0, 1), BuildingBlock: ZUJKAS_clean_linker_0, # of connection points: 2
#     Edge 32, Type (0, 1), BuildingBlock: ZUJKAS_clean_linker_0, # of connection points: 2
#     Edge 33, Type (0, 1), BuildingBlock: ZUJKAS_clean_linker_0, # of connection points: 2
#     Edge 34, Type (0, 1), BuildingBlock: ZUJKAS_clean_linker_0, # of connection points: 2
#     Edge 35, Type (0, 1), BuildingBlock: ZUJKAS_clean_linker_0, # of connection points: 2
# Relax obj value: 0.285
# Max RMSD: 0.209
# Mean RMSD: 0.178
data_MOF--net-zzz--node1-KUMJIN_clean_sbu_1--node2-KAKCAD_clean_linker_0--edge1-ZUJKAS_clean_linker_0
_symmetry_space_group_name_H-M    P1
_symmetry_Int_Tables_number       1
_symmetry_cell_setting            triclinic
loop_
_symmetry_equiv_pos_as_xyz
'x, y, z'
_cell_length_a     70.561375
_cell_length_b     70.412322
_cell_length_c     26.012206
_cell_angle_alpha  90.068642
_cell_angle_beta   89.95938
_cell_angle_gamma 90.333204
loop_
_atom_site_label
_atom_site_type_symbol
_atom_site_fract_x
_atom_site_fract_y
_atom_site_fract_z
_atom_type_partial_charge
C0 C 0.78877 0.5855 0.02607 0.0
C1 C 0.8066 0.57675 0.02673 0.0
C2 C 0.77559 0.58179 0.06513 0.0
C3 C 0.77991 0.56901 0.10502 0.0
C4 C 0.79794 0.5606 0.1058 0.0
C5 C 0.81113 0.56453 0.06743 0.0
C6 C 0.76548 0.56337 0.14403 0.0
C7 C 0.74645 0.56075 0.13018 0.0
C8 C 0.73313 0.5533 0.16515 0.0
C9 C 0.73927 0.54781 0.21478 0.0
C10 C 0.75833 0.55092 0.22951 0.0
C11 C 0.77104 0.55901 0.19431 0.0
C12 C 0.76636 0.54503 0.27976 0.0
C13 C 0.7723 0.55905 0.31481 0.0
C14 C 0.7734 0.52653 0.28526 0.0
C15 C 0.7872 0.5225 0.32247 0.0
C16 C 0.79428 0.5369 0.35503 0.0
C17 C 0.71316 0.55113 0.14713 0.0
C18 C 0.70425 0.56656 0.12301 0.0
C19 C 0.70406 0.53333 0.14612 0.0
C20 C 0.687 0.53083 0.11885 0.0
C21 C 0.67861 0.5461 0.09225 0.0
C22 C 0.68728 0.5641 0.09602 0.0
C23 C 0.78599 0.55502 0.35226 0.0
H24 H 0.78496 0.59496 0.995 0.0
H25 H 0.76195 0.58873 0.06365 0.0
H26 H 0.80168 0.55029 0.13487 0.0
H27 H 0.82459 0.5572 0.0683 0.0
H28 H 0.74203 0.56378 0.09116 0.0
H29 H 0.78562 0.56136 0.20599 0.0
H30 H 0.72935 0.5415 0.24169 0.0
H31 H 0.7675 0.57355 0.31047 0.0
H32 H 0.76943 0.51558 0.25795 0.0
H33 H 0.79305 0.50833 0.32393 0.0
H34 H 0.71095 0.58045 0.12299 0.0
H35 H 0.71066 0.52115 0.16394 0.0
H36 H 0.79114 0.56651 0.37626 0.0
H37 H 0.68153 0.5762 0.07583 0.0
H38 H 0.68063 0.51681 0.11755 0.0
C39 C 0.94033 0.78201 0.03331 0.0
C40 C 0.9484 0.80028 0.03248 0.0
C41 C 0.94337 0.76998 0.07529 0.0
C42 C 0.95494 0.77587 0.11658 0.0
C43 C 0.96209 0.79456 0.11654 0.0
C44 C 0.95872 0.80663 0.07533 0.0
C45 C 0.96147 0.76222 0.15653 0.0
C46 C 0.96554 0.74335 0.14349 0.0
C47 C 0.97477 0.73119 0.17814 0.0
C48 C 0.98065 0.73839 0.22642 0.0
C49 C 0.97607 0.75721 0.24045 0.0
C50 C 0.96601 0.76863 0.20604 0.0
C51 C 0.9829 0.76659 0.28806 0.0
C52 C 0.97007 0.77022 0.3281 0.0
C53 C 0.9999 0.77702 0.28618 0.0
C54 C 1.00333 0.79182 0.32112 0.0
C55 C 0.98982 0.79654 0.35895 0.0
C56 C 0.97869 0.71144 0.1606 0.0
C57 C 0.96388 0.70062 0.13911 0.0
C58 C 0.9973 0.7046 0.1566 0.0
C59 C 1.00108 0.68791 0.12867 0.0
C60 C 0.98631 0.67771 0.10428 0.0
C61 C 0.96761 0.68404 0.11137 0.0
C62 C 0.97357 0.78489 0.36346 0.0
H63 H 0.93229 0.77681 1.00069 0.0
H64 H 0.93728 0.75584 0.0744 0.0
H65 H 0.97142 0.79963 0.14665 0.0
H66 H 0.96549 0.82049 0.07537 0.0
H67 H 0.96249 0.73825 0.10505 0.0
H68 H 0.96257 0.78303 0.21733 0.0
H69 H 0.98855 0.72951 0.25265 0.0
H70 H 0.95666 0.76267 0.32968 0.0
H71 H 0.00974 0.77489 0.25473 0.0
H72 H 0.01592 0.80044 0.31572 0.0
H73 H 0.94939 0.70558 0.1414 0.0
H74 H 1.00901 0.71273 0.17236 0.0
H75 H 0.96303 0.7877 0.39269 0.0
H76 H 0.95583 0.67685 0.09296 0.0
H77 H 0.01564 0.68335 0.12488 0.0
C78 C 0.74573 0.95567 0.02434 0.0
C79 C 0.7275 0.96349 0.02763 0.0
C80 C 0.75913 0.95931 0.06296 0.0
C81 C 0.75455 0.97102 0.10508 0.0
C82 C 0.73637 0.979 0.10754 0.0
C83 C 0.72303 0.97522 0.06955 0.0
C84 C 0.76857 0.97549 0.14605 0.0
C85 C 0.78754 0.97945 0.13401 0.0
C86 C 0.80028 0.98559 0.1721 0.0
C87 C 0.79386 0.9881 0.22311 0.0
C88 C 0.77486 0.98381 0.23567 0.0
C89 C 0.76258 0.97721 0.19723 0.0
C90 C 0.76648 0.98715 0.28716 0.0
C91 C 0.75983 0.97157 0.31572 0.0
C92 C 0.7602 1.00541 0.30026 0.0
C93 C 0.74635 1.00787 0.33843 0.0
C94 C 0.73847 0.99208 0.36414 0.0
C95 C 0.82002 0.98969 0.15609 0.0
C96 C 0.83339 0.97502 0.15546 0.0
C97 C 0.82422 1.00672 0.13046 0.0
C98 C 0.84108 1.00872 0.10244 0.0
C99 C 0.85402 0.99362 0.09898 0.0
C100 C 0.85025 0.97698 0.12735 0.0
C101 C 0.74608 0.97401 0.35399 0.0
H102 H 0.74954 0.94666 0.99223 0.0
H103 H 0.773 0.95289 0.06001 0.0
H104 H 0.7325 0.98857 0.13839 0.0
H105 H 0.70928 0.98191 0.07236 0.0
H106 H 0.79237 0.97833 0.09454 0.0
H107 H 0.748 0.97393 0.20722 0.0
H108 H 0.80346 0.99336 0.25242 0.0
H109 H 0.76421 0.95731 0.30574 0.0
H110 H 0.76475 0.01759 0.27791 0.0
H111 H 0.74081 0.02199 0.34485 0.0
H112 H 0.83027 0.96161 0.17412 0.0
H113 H 0.81389 0.01804 0.12941 0.0
H114 H 0.74068 0.96157 0.3737 0.0
H115 H 0.85999 0.96515 0.12621 0.0
H116 H 0.84333 0.02166 0.08075 0.0
C117 C 0.52309 0.74649 0.31489 0.0
C118 C 0.5378 0.73687 0.34052 0.0
C119 C 0.52716 0.76092 0.27919 0.0
C120 C 0.54601 0.76597 0.26817 0.0
C121 C 0.56061 0.75719 0.29597 0.0
C122 C 0.55658 0.74292 0.33183 0.0
C123 C 0.55077 0.77675 0.22067 0.0
C124 C 0.54544 0.79586 0.21251 0.0
C125 C 0.55017 0.80494 0.16573 0.0
C126 C 0.55955 0.7947 0.12721 0.0
C127 C 0.56417 0.77557 0.13408 0.0
C128 C 0.56013 0.76688 0.18127 0.0
C129 C 0.57091 0.764 0.09009 0.0
C130 C 0.56192 0.76564 0.04219 0.0
C131 C 0.58469 0.74987 0.09679 0.0
C132 C 0.58841 0.73684 0.05747 0.0
C133 C 0.57832 0.73761 1.01087 0.0
C134 C 0.54511 0.82486 0.15364 0.0
C135 C 0.52761 0.8288 0.1304 0.0
C136 C 0.55951 0.83869 0.15178 0.0
C137 C 0.55688 0.85564 0.12457 0.0
C138 C 0.53986 0.85908 0.09801 0.0
C139 C 0.52497 0.84577 0.10305 0.0
C140 C 0.56555 0.7526 1.00312 0.0
H141 H 0.50845 0.74239 0.32106 0.0
H142 H 0.51565 0.76722 0.25771 0.0
H143 H 0.57529 0.76061 0.28763 0.0
H144 H 0.56831 0.7358 0.35027 0.0
H145 H 0.53788 0.80355 0.24215 0.0
H146 H 0.56329 0.75194 0.18649 0.0
H147 H 0.56278 0.80158 0.09092 0.0
H148 H 0.55106 0.77619 0.03595 0.0
H149 H 0.59205 0.74847 0.1331 0.0
H150 H 0.59857 0.72567 0.06441 0.0
H151 H 0.51649 0.81813 0.13002 0.0
H152 H 0.57326 0.83582 0.16844 0.0
H153 H 0.55722 0.75353 0.96828 0.0
H154 H 0.51172 0.8478 0.08289 0.0
H155 H 0.56854 0.86567 0.1224 0.0
C156 C 0.25505 0.46929 0.2304 0.0
C157 C 0.23646 0.46237 0.22482 0.0
C158 C 0.2667 0.47165 0.18768 0.0
C159 C 0.26035 0.46654 0.13821 0.0
C160 C 0.24254 0.45757 0.1336 0.0
C161 C 0.23063 0.45569 0.17635 0.0
C162 C 0.27127 0.47276 0.09191 0.0
C163 C 0.29099 0.47516 0.09444 0.0
C164 C 0.30096 0.48511 0.05627 0.0
C165 C 0.29115 0.49158 1.01227 0.0
C166 C 0.27153 0.48781 1.00716 0.0
C167 C 0.26179 0.47877 0.0474 0.0
C168 C 0.26011 0.49381 0.96206 0.0
C169 C 0.2505 0.51121 0.96333 0.0
C170 C 0.25487 0.48029 0.92485 0.0
C171 C 0.23974 0.48373 0.89114 0.0
C172 C 0.2293 0.50069 0.89432 0.0
C173 C 0.32104 0.49 0.06788 0.0
C174 C 0.32555 0.5082 0.08653 0.0
C175 C 0.33418 0.47533 0.07511 0.0
C176 C 0.35078 0.47842 0.1036 0.0
C177 C 0.35456 0.49622 0.1263 0.0
C178 C 0.34211 0.5113 0.11539 0.0
C179 C 0.23532 0.51464 0.92978 0.0
H180 H 0.26023 0.47402 0.26747 0.0
H181 H 0.28018 0.47872 0.19354 0.0
H182 H 0.23735 0.45283 0.09657 0.0
H183 H 0.21644 0.45016 0.1706 0.0
H184 H 0.29866 0.4702 0.12788 0.0
H185 H 0.24653 0.4773 0.0446 0.0
H186 H 0.29864 0.49942 0.98269 0.0
H187 H 0.25394 0.52167 0.99248 0.0
H188 H 0.26168 0.46655 0.9241 0.0
H189 H 0.23548 0.47256 0.86487 0.0
H190 H 0.31545 0.51965 0.08273 0.0
H191 H 0.33092 0.46108 0.06191 0.0
H192 H 0.22783 0.52797 0.93296 0.0
H193 H 0.34439 0.52518 0.13229 0.0
H194 H 0.36018 0.46655 0.10996 0.0
C195 C 0.06339 0.24815 0.22844 0.0
C196 C 0.07541 0.23266 0.21956 0.0
C197 C 0.05952 0.26106 0.18935 0.0
C198 C 0.06772 0.25893 0.14041 0.0
C199 C 0.08066 0.24405 0.13243 0.0
C200 C 0.08436 0.23096 0.17154 0.0
C201 C 0.06124 0.27105 0.09709 0.0
C202 C 0.05634 0.29006 0.10549 0.0
C203 C 0.04739 0.30078 0.06723 0.0
C204 C 0.04374 0.29247 0.01873 0.0
C205 C 0.04931 0.27354 1.00914 0.0
C206 C 0.05796 0.26307 0.0485 0.0
C207 C 0.04544 0.26344 0.96006 0.0
C208 C 0.027 0.25721 0.94826 0.0
C209 C 0.0607 0.25603 0.93192 0.0
C210 C 0.05778 0.24176 0.89527 0.0
C211 C 0.03952 0.23434 0.88618 0.0
C212 C 0.04109 0.32013 0.08163 0.0
C213 C 0.02593 0.32203 0.11619 0.0
C214 C 0.05278 0.33593 0.07213 0.0
C215 C 0.04996 0.35303 0.09888 0.0
C216 C 0.03549 0.35462 0.13608 0.0
C217 C 0.02312 0.33904 0.14296 0.0
C218 C 0.02405 0.24281 0.91158 0.0
H219 H 0.05597 0.24965 0.26468 0.0
H220 H 0.04921 0.27204 0.19684 0.0
H221 H 0.08749 0.24218 0.09549 0.0
H222 H 0.09377 0.21919 0.16379 0.0
H223 H 0.05902 0.29653 0.14266 0.0
H224 H 0.0612 0.24824 0.04177 0.0
H225 H 0.03656 0.30051 0.98919 0.0
H226 H 0.01504 0.26239 0.97019 0.0
H227 H 0.07508 0.26045 0.94071 0.0
H228 H 0.06999 0.23591 0.8757 0.0
H229 H 0.01703 0.30989 0.12516 0.0
H230 H 0.06482 0.33467 0.04652 0.0
H231 H 0.0098 0.23744 0.9058 0.0
H232 H 0.01199 0.33947 0.17159 0.0
H233 H 0.0596 0.36476 0.09183 0.0
C234 C 0.27411 0.07466 0.21845 0.0
C235 C 0.29019 0.08613 0.21036 0.0
C236 C 0.26176 0.07059 0.17816 0.0
C237 C 0.26511 0.07796 0.12876 0.0
C238 C 0.28021 0.09083 0.12175 0.0
C239 C 0.29266 0.09486 0.16219 0.0
C240 C 0.25453 0.07002 0.0842 0.0
C241 C 0.23541 0.06495 0.08922 0.0
C242 C 0.22637 0.05357 0.0523 0.0
C243 C 0.2365 0.0477 1.00825 0.0
C244 C 0.25547 0.0537 1.00134 0.0
C245 C 0.26427 0.06478 0.03942 0.0
C246 C 0.26735 0.04763 0.95726 0.0
C247 C 0.27647 0.02998 0.95852 0.0
C248 C 0.27324 0.06116 0.92095 0.0
C249 C 0.28857 0.0575 0.88823 0.0
C250 C 0.29864 0.04032 0.89164 0.0
C251 C 0.20703 0.04677 0.0649 0.0
C252 C 0.20493 0.03056 0.09577 0.0
C253 C 0.19161 0.0591 0.05954 0.0
C254 C 0.17478 0.05589 0.08699 0.0
C255 C 0.17313 0.04046 0.12126 0.0
C256 C 0.1882 0.02743 0.12363 0.0
C257 C 0.29194 0.02634 0.92605 0.0
H258 H 0.27189 0.06745 0.25473 0.0
H259 H 0.25047 0.06042 0.18501 0.0
H260 H 0.28296 0.09703 0.08437 0.0
H261 H 0.30479 0.10398 0.15502 0.0
H262 H 0.22768 0.06904 0.12353 0.0
H263 H 0.27919 0.06825 0.03541 0.0
H264 H 0.2298 0.0385 0.98013 0.0
H265 H 0.27251 0.01952 0.98715 0.0
H266 H 0.26664 0.07501 0.91989 0.0
H267 H 0.29297 0.06847 0.86156 0.0
H268 H 0.21683 0.02116 0.10174 0.0
H269 H 0.19304 0.07192 0.03687 0.0
H270 H 0.29934 0.01301 0.93032 0.0
H271 H 0.1877 0.01551 0.14984 0.0
H272 H 0.1634 0.06603 0.08313 0.0
C273 C 0.47454 0.28698 0.87491 0.0
C274 C 0.49103 0.29837 0.87755 0.0
C275 C 0.47119 0.27258 0.91103 0.0
C276 C 0.48443 0.26885 0.94996 0.0
C277 C 0.50158 0.27906 0.95018 0.0
C278 C 0.50483 0.29367 0.91455 0.0
C279 C 0.47827 0.25889 0.99746 0.0
C280 C 0.4861 0.24151 0.01397 0.0
C281 C 0.48157 0.23436 0.06322 0.0
C282 C 0.46996 0.24503 0.09603 0.0
C283 C 0.46238 0.26248 0.0804 0.0
C284 C 0.46595 0.26877 0.03015 0.0
C285 C 0.4535 0.27539 0.11886 0.0
C286 C 0.44321 0.26819 0.16108 0.0
C287 C 0.45753 0.29498 0.11726 0.0
C288 C 0.45281 0.30671 0.15834 0.0
C289 C 0.44419 0.29917 0.20254 0.0
C290 C 0.48957 0.21648 0.08394 0.0
C291 C 0.48096 0.19895 0.07256 0.0
C292 C 0.50284 0.2174 0.12408 0.0
C293 C 0.50678 0.20135 0.15388 0.0
C294 C 0.49741 0.18396 0.14463 0.0
C295 C 0.48486 0.18285 0.10252 0.0
C296 C 0.43878 0.27994 0.2028 0.0
H297 H 0.46376 0.28972 0.84632 0.0
H298 H 0.45771 0.26514 0.91057 0.0
H299 H 0.51178 0.27683 0.98065 0.0
H300 H 0.51762 0.30209 0.91856 0.0
H301 H 0.49589 0.23392 0.98942 0.0
H302 H 0.46012 0.28215 0.01724 0.0
H303 H 0.46768 0.24003 0.13495 0.0
H304 H 0.43943 0.25329 0.16315 0.0
H305 H 0.46571 0.30115 0.08623 0.0
H306 H 0.45749 0.32138 0.1572 0.0
H307 H 0.47038 0.19798 0.04251 0.0
H308 H 0.50932 0.23086 0.13437 0.0
H309 H 0.43201 0.2738 0.23633 0.0
H310 H 0.47755 0.16968 0.09371 0.0
H311 H 0.51634 0.20292 0.18618 0.0
Eu312 Eu 0.99232 0.02746 0.56565 0.0
C313 C 0.06642 0.04093 0.67681 0.0
N314 N 0.06275 0.02775 0.63985 0.0
C315 C 0.09055 0.03762 0.59362 0.0
C316 C 0.08185 0.05364 0.67223 0.0
C317 C 0.07523 0.02518 0.60031 0.0
C318 C 0.09367 0.05217 0.62919 0.0
C319 C 0.0596 0.05343 0.76182 0.0
C320 C 0.05549 0.04086 0.72109 0.0
C321 C 0.07433 0.06678 0.75628 0.0
C322 C 0.08541 0.0669 0.71154 0.0
Eu323 Eu 0.03517 1.00881 0.65255 0.0
N324 N 0.04116 0.02802 0.72498 0.0
C325 C 0.04902 0.05193 0.80725 0.0
C326 C 0.03139 0.0258 0.7699 0.0
C327 C 0.03505 0.03785 0.81158 0.0
H328 H 0.07363 0.01341 0.57408 0.0
H329 H 0.02703 0.03635 0.84684 0.0
H330 H 0.95465 1.00515 0.61388 0.0
H331 H 0.01569 0.03082 0.3648 0.0
H332 H 0.02053 0.01498 0.77299 0.0
H333 H 0.05176 0.06131 0.83947 0.0
H334 H 0.01215 0.04242 0.45364 0.0
H335 H 0.10011 0.0358 0.56143 0.0
H336 H 0.07755 0.07675 0.78686 0.0
H337 H 0.09706 0.07693 0.70839 0.0
H338 H 0.93171 0.98003 0.5883 0.0
H339 H 0.10567 0.06166 0.62422 0.0
H340 H 0.99826 1.00208 0.33644 0.0
N341 N 0.97003 1.00375 0.54382 0.0
C342 C 0.97106 0.99647 0.49561 0.0
C343 C 0.9428 0.98442 0.56203 0.0
C344 C 0.95844 0.98206 0.47945 0.0
C345 C 0.95575 0.99857 0.57643 0.0
C346 C 0.94433 0.97591 0.51361 0.0
N347 N 0.99493 0.01911 0.47751 0.0
C348 C 1.00531 0.02928 0.44266 0.0
C349 C 0.98506 0.99747 0.41062 0.0
C350 C 0.98416 1.00415 0.46172 0.0
C351 C 0.99713 1.00677 0.37601 0.0
C352 C 1.00701 0.02299 0.39187 0.0
H353 H 0.93432 0.96491 0.5026 0.0
H354 H 0.95062 0.9634 0.41655 0.0
H355 H 0.97397 0.97687 0.35624 0.0
O356 O 0.97514 0.04622 0.51813 0.0
O357 O 0.99462 0.99573 0.5846 0.0
O358 O 0.02656 0.99184 0.58251 0.0
O359 O 0.97118 0.04602 0.60035 0.0
O360 O 0.02234 0.03563 0.53993 0.0
O361 O 0.03988 1.00993 0.56575 0.0
O362 O 0.0321 0.98249 0.69506 0.0
O363 O 0.02019 0.0366 0.67152 0.0
O364 O 0.01493 0.04835 0.59161 0.0
O365 O 0.06058 0.99289 0.67636 0.0
O366 O 1.00588 1.00174 0.68453 0.0
O367 O 0.98531 0.02407 0.65042 0.0
C368 C 0.00946 0.98501 0.57572 0.0
C369 C 0.96783 0.07525 0.55884 0.0
C370 C 0.98429 0.10517 0.54154 0.0
C371 C 0.96911 0.11496 0.56441 0.0
C372 C 0.9529 0.08525 0.58152 0.0
C373 C 0.95359 0.10503 0.58443 0.0
C374 C 0.98361 0.08521 0.53957 0.0
C375 C 0.03676 0.02404 0.53371 0.0
C376 C 0.96713 0.05442 0.55734 0.0
C377 C 0.95999 0.97467 0.42948 0.0
C378 C 0.97332 0.98232 0.39517 0.0
C379 C 0.01861 0.05114 0.64037 0.0
C380 C 0.05804 0.96273 0.72299 0.0
C381 C 0.05267 0.93146 0.76079 0.0
C382 C 0.07233 0.92935 0.7669 0.0
C383 C 0.07763 0.9605 0.72962 0.0
C384 C 0.04568 0.94819 0.73883 0.0
C385 C 0.08471 0.94386 0.75157 0.0
C386 C 0.98997 1.01151 0.68572 0.0
C387 C 0.05027 0.97962 0.6974 0.0
H388 H 0.96897 0.13033 0.56583 0.0
H389 H 0.94074 0.07775 0.5971 0.0
H390 H 0.94199 0.1127 0.60181 0.0
H391 H 0.99536 0.07738 0.52327 0.0
H392 H 0.07809 0.91661 0.78401 0.0
H393 H 0.08746 0.97149 0.7175 0.0
H394 H 0.03055 0.94966 0.73294 0.0
H395 H 0.09983 0.94218 0.75655 0.0
Eu396 Eu 0.52553 0.0412 0.65876 0.0
C397 C 0.52647 0.95615 0.56457 0.0
N398 N 0.52939 0.97326 0.54174 0.0
C399 C 0.55433 0.96009 0.49042 0.0
C400 C 0.53791 0.94042 0.55235 0.0
C401 C 0.54241 0.97517 0.50323 0.0
C402 C 0.55228 0.94271 0.51568 0.0
C403 C 0.50685 0.93614 0.61905 0.0
C404 C 0.51115 0.95403 0.59751 0.0
C405 C 0.51872 0.92064 0.60883 0.0
C406 C 0.53423 0.92278 0.57561 0.0
Eu407 Eu 0.50927 0.99816 0.56805 0.0
N408 N 0.49999 0.96927 0.6069 0.0
C409 C 0.49055 0.9343 0.64941 0.0
C410 C 0.48341 0.9673 0.63362 0.0
C411 C 0.47863 0.94989 0.6561 0.0
H412 H 0.54346 0.98828 0.48191 0.0
H413 H 0.46574 0.94849 0.67838 0.0
H414 H 0.484 0.06254 0.67502 0.0
H415 H 0.59049 0.06788 0.56687 0.0
H416 H 0.47412 0.97931 0.63844 0.0
H417 H 0.48679 0.92081 0.66676 0.0
H418 H 0.57177 0.04693 0.62301 0.0
H419 H 0.5649 0.96181 0.46059 0.0
H420 H 0.51577 0.90683 0.62549 0.0
H421 H 0.54297 0.91057 0.56702 0.0
H422 H 0.46795 0.0921 0.64808 0.0
H423 H 0.56138 0.93097 0.50524 0.0
H424 H 0.57563 0.09605 0.52745 0.0
N425 N 0.5093 0.06883 0.63407 0.0
C426 C 0.51912 0.08165 0.60543 0.0
C427 C 0.48229 0.08927 0.63554 0.0
C428 C 0.5105 0.09858 0.58876 0.0
C429 C 0.49134 0.07256 0.65058 0.0
C430 C 0.49184 0.10226 0.6041 0.0
N431 N 0.54582 0.06149 0.61051 0.0
C432 C 0.56475 0.05845 0.60378 0.0
C433 C 0.54815 0.09051 0.56152 0.0
C434 C 0.53774 0.07765 0.59222 0.0
C435 C 0.56717 0.08656 0.55099 0.0
C436 C 0.57558 0.07063 0.57296 0.0
H437 H 0.48473 0.11511 0.59211 0.0
H438 H 0.51421 0.12408 0.5432 0.0
H439 H 0.54714 0.117 0.51919 0.0
O440 O 0.54369 0.0574 0.71105 0.0
O441 O 0.50738 0.04418 0.5864 0.0
O442 O 0.52193 0.0243 0.53132 0.0
O443 O 0.51574 0.04869 0.73562 0.0
O444 O 0.54945 0.02144 0.63354 0.0
O445 O 0.5391 1.00997 0.55505 0.0
O446 O 0.48551 1.00879 0.52346 0.0
O447 O 0.51199 0.99185 0.65381 0.0
O448 O 0.53515 0.01209 0.68487 0.0
O449 O 0.4985 0.9822 0.50192 0.0
O450 O 0.48551 0.01354 0.61023 0.0
O451 O 0.49797 0.02741 0.68376 0.0
C452 C 0.51431 0.04082 0.54049 0.0
C453 C 0.53966 0.04774 0.79769 0.0
C454 C 0.56256 0.02812 0.84337 0.0
C455 C 0.55184 0.03033 0.8886 0.0
C456 C 0.52933 0.04995 0.84336 0.0
C457 C 0.53538 0.04123 0.88851 0.0
C458 C 0.55628 0.0368 0.79785 0.0
C459 C 0.55277 0.01379 0.58809 0.0
C460 C 0.53204 0.05564 0.74967 0.0
C461 C 0.52068 0.11114 0.55707 0.0
C462 C 0.53941 0.10707 0.54326 0.0
C463 C 0.5251 0.99636 0.6877 0.0
C464 C 0.4652 0.98522 0.49154 0.0
C465 C 0.4317 0.98988 0.47313 0.0
C466 C 0.42773 0.97166 0.49242 0.0
C467 C 0.4611 0.96694 0.51027 0.0
C468 C 0.45049 0.99648 0.47266 0.0
C469 C 0.44241 0.96023 0.51055 0.0
C470 C 0.48361 0.02089 0.65658 0.0
C471 C 0.48429 0.99362 0.49497 0.0
H472 H 0.55611 0.02355 0.92407 0.0
H473 H 0.51639 0.05815 0.84382 0.0
H474 H 0.52724 0.04282 0.9235 0.0
H475 H 0.56434 0.03509 0.76269 0.0
H476 H 0.41334 0.96623 0.49306 0.0
H477 H 0.4722 0.95798 0.52533 0.0
H478 H 0.45364 1.01073 0.45913 0.0
H479 H 0.43929 0.94618 0.52527 0.0
Eu480 Eu 0.53583 0.51013 0.57611 0.0
C481 C 0.46613 0.49124 0.70577 0.0
N482 N 0.46717 0.50266 0.66371 0.0
C483 C 0.43915 0.48831 0.62876 0.0
C484 C 0.45155 0.47755 0.71032 0.0
C485 C 0.45386 0.50165 0.62581 0.0
C486 C 0.43801 0.47617 0.67111 0.0
C487 C 0.47937 0.48089 0.78713 0.0
C488 C 0.48004 0.49286 0.74366 0.0
C489 C 0.46482 0.46732 0.79176 0.0
C490 C 0.45099 0.46561 0.75344 0.0
Eu491 Eu 0.4917 0.52536 0.66389 0.0
N492 N 0.49398 0.50624 0.73851 0.0
C493 C 0.49315 0.48315 0.82531 0.0
C494 C 0.50649 0.50941 0.77758 0.0
C495 C 0.50661 0.49764 0.8208 0.0
H496 H 0.45447 0.51126 0.59359 0.0
H497 H 0.5168 0.50005 0.85123 0.0
H498 H 0.57486 0.50706 0.64974 0.0
H499 H 0.52478 0.54894 0.39672 0.0
H500 H 0.5159 0.52143 0.77698 0.0
H501 H 0.49315 0.47419 0.85915 0.0
H502 H 0.51661 0.52659 0.46614 0.0
H503 H 0.42865 0.48746 0.59852 0.0
H504 H 0.46404 0.45816 0.82513 0.0
H505 H 0.43991 0.45501 0.75758 0.0
H506 H 0.60648 0.52204 0.65606 0.0
H507 H 0.4266 0.46583 0.67323 0.0
H508 H 0.55586 0.56536 0.39706 0.0
N509 N 0.56673 0.52287 0.58403 0.0
C510 C 0.57228 0.5352 0.54668 0.0
C511 C 0.59694 0.52602 0.6254 0.0
C512 C 0.59038 0.5438 0.54805 0.0
C513 C 0.57889 0.5178 0.62232 0.0
C514 C 0.60266 0.53919 0.58834 0.0
N515 N 0.54241 0.53087 0.50677 0.0
C516 C 0.53009 0.5338 0.46718 0.0
C517 C 0.56524 0.55187 0.46729 0.0
C518 C 0.55991 0.53911 0.50654 0.0
C519 C 0.55233 0.55556 0.42775 0.0
C520 C 0.53474 0.54638 0.42752 0.0
H521 H 0.61668 0.54549 0.59074 0.0
H522 H 0.60951 0.5634 0.50973 0.0
H523 H 0.58746 0.57054 0.43924 0.0
O524 O 0.53055 0.48573 0.52617 0.0
O525 O 0.53054 0.54198 0.57517 0.0
O526 O 0.50299 0.55034 0.61867 0.0
O527 O 0.55942 0.49181 0.55326 0.0
O528 O 0.50625 0.50661 0.54114 0.0
O529 O 0.48621 0.52863 0.57866 0.0
O530 O 0.48272 0.5421 0.73002 0.0
O531 O 0.49552 0.4947 0.63598 0.0
O532 O 0.52728 0.49213 0.64416 0.0
O533 O 0.465 0.54097 0.66253 0.0
O534 O 0.52121 0.53486 0.69131 0.0
O535 O 0.54009 0.51062 0.66243 0.0
C536 C 0.51783 0.55444 0.59009 0.0
C537 C 0.55523 0.46396 0.49886 0.0
C538 C 0.54883 0.43299 0.46067 0.0
C539 C 0.56837 0.43039 0.45334 0.0
C540 C 0.57472 0.46124 0.49103 0.0
C541 C 0.58122 0.44454 0.4681 0.0
C542 C 0.54236 0.44989 0.48301 0.0
C543 C 0.49092 0.51729 0.54052 0.0
C544 C 0.54832 0.48069 0.52682 0.0
C545 C 0.59569 0.5566 0.50916 0.0
C546 C 0.58316 0.56064 0.46894 0.0
C547 C 0.51043 0.48437 0.64664 0.0
C548 C 0.46738 0.57045 0.70496 0.0
C549 C 0.48173 0.60163 0.72081 0.0
C550 C 0.46561 0.61023 0.69948 0.0
C551 C 0.45138 0.57935 0.68424 0.0
C552 C 0.48258 0.5817 0.7227 0.0
C553 C 0.45058 0.59913 0.68125 0.0
C554 C 0.53711 0.52511 0.69325 0.0
C555 C 0.46838 0.54951 0.70595 0.0
H556 H 0.57366 0.41748 0.43592 0.0
H557 H 0.58493 0.47189 0.50311 0.0
H558 H 0.59626 0.44248 0.46226 0.0
H559 H 0.52732 0.45174 0.48982 0.0
H560 H 0.46438 0.62555 0.69798 0.0
H561 H 0.43956 0.57098 0.67002 0.0
H562 H 0.49518 0.57496 0.73775 0.0
H563 H 0.43819 0.60588 0.66516 0.0
Eu564 Eu 0.02029 0.53898 0.57359 0.0
C565 C 0.03629 0.47513 0.72821 0.0
N566 N 0.02835 0.47401 0.68081 0.0
C567 C 0.04817 0.44762 0.65948 0.0
C568 C 0.05129 0.46307 0.74226 0.0
C569 C 0.03345 0.46005 0.64715 0.0
C570 C 0.05733 0.44933 0.70694 0.0
C571 C 0.03629 0.48894 0.81353 0.0
C572 C 0.02881 0.48785 0.76332 0.0
C573 C 0.05199 0.47778 0.8268 0.0
C574 C 0.05943 0.46481 0.79129 0.0
Eu575 Eu 1.00386 0.4956 0.66232 0.0
N576 N 0.01335 0.49809 0.74961 0.0
C577 C 0.02725 0.5006 0.8495 0.0
C578 C 1.00349 0.50798 0.7859 0.0
C579 C 0.01055 0.50985 0.83589 0.0
H580 H 0.02639 0.45884 0.61041 0.0
H581 H 1.00294 0.51818 0.86407 0.0
H582 H 0.0155 0.57766 0.65059 0.0
H583 H 0.99023 0.52763 0.38322 0.0
H584 H 0.99001 0.51427 0.77667 0.0
H585 H 0.03256 0.50186 0.88844 0.0
H586 H 0.01255 0.52253 0.45542 0.0
H587 H 0.05249 0.43682 0.63234 0.0
H588 H 0.05808 0.47861 0.86498 0.0
H589 H 0.07116 0.45588 0.80257 0.0
H590 H 0.99295 0.60377 0.66337 0.0
H591 H 0.06878 0.43975 0.71632 0.0
H592 H 0.96536 0.55217 0.39046 0.0
N593 N 1.00092 0.56608 0.58607 0.0
C594 C 0.98743 0.56919 0.54981 0.0
C595 C 0.99103 0.59396 0.63171 0.0
C596 C 0.97462 0.58441 0.55438 0.0
C597 C 1.00355 0.57884 0.62502 0.0
C598 C 0.97627 0.59656 0.59675 0.0
N599 N 1.0001 0.5437 0.50256 0.0
C600 C 1.00176 0.5333 0.45849 0.0
C601 C 0.97417 0.56124 0.46641 0.0
C602 C 0.9872 0.55784 0.50634 0.0
C603 C 0.97514 0.55002 0.42198 0.0
C604 C 0.98916 0.53616 0.41774 0.0
H605 H 0.96671 0.60841 0.6017 0.0
H606 H 0.95101 0.59892 0.51877 0.0
H607 H 0.95068 0.57865 0.4416 0.0
O608 O 0.04407 0.53763 0.5205 0.0
O609 O 0.99241 0.52337 0.5588 0.0
O610 O 0.98195 0.51759 0.63989 0.0
O611 O 0.03656 0.56456 0.55413 0.0
O612 O 0.02853 0.50968 0.54356 0.0
O613 O 1.00583 0.48924 0.57684 0.0
O614 O 0.98614 0.47756 0.71105 0.0
O615 O 0.03532 0.49904 0.64114 0.0
O616 O 0.03848 0.53116 0.64179 0.0
O617 O 0.98554 0.4738 0.62879 0.0
O618 O 0.9956 0.52532 0.69019 0.0
O619 O 0.0201 0.54399 0.66038 0.0
C620 C 0.97842 0.52164 0.5917 0.0
C621 C 0.06928 0.55689 0.54845 0.0
C622 C 0.10143 0.54424 0.55005 0.0
C623 C 0.10611 0.55695 0.58976 0.0
C624 C 0.07418 0.56952 0.58831 0.0
C625 C 0.09253 0.56955 0.60861 0.0
C626 C 0.0831 0.54452 0.5292 0.0
C627 C 0.01849 0.49383 0.54169 0.0
C628 C 0.04955 0.55497 0.52997 0.0
C629 C 0.96107 0.5874 0.5157 0.0
C630 C 0.96089 0.57588 0.47172 0.0
C631 C 0.04573 0.51431 0.64884 0.0
C632 C 0.95689 0.46974 0.67265 0.0
C633 C 0.9273 0.48634 0.69058 0.0
C634 C 0.91721 0.47034 0.67253 0.0
C635 C 0.94662 0.45401 0.65476 0.0
C636 C 0.94723 0.48599 0.68935 0.0
C637 C 0.92685 0.45439 0.65441 0.0
C638 C 1.00671 0.54036 0.69435 0.0
C639 C 0.97767 0.46939 0.67238 0.0
H640 H 0.12016 0.55699 0.60651 0.0
H641 H 0.06381 0.5791 0.60447 0.0
H642 H 0.09616 0.57919 0.63954 0.0
H643 H 0.07949 0.53491 0.49804 0.0
H644 H 0.90188 0.46985 0.67372 0.0
H645 H 0.95389 0.44147 0.64109 0.0
H646 H 0.95533 0.49829 0.7017 0.0
H647 H 0.91894 0.44215 0.64084 0.0
H648 H 0.15536 1.00816 0.15829 0.0
H649 H 0.13107 1.00605 0.22531 0.0
H650 H 0.12931 0.06708 0.2348 0.0
H651 H 0.15399 0.06943 0.16934 0.0
H652 H 0.13508 0.02303 0.32885 0.0
H653 H 0.07236 0.04982 0.22246 0.0
H654 H 0.0929 0.04027 0.19019 0.0
H655 H 0.09379 0.06368 0.2174 0.0
C656 C 0.14984 0.02118 0.17447 0.0
C657 C 0.15677 0.03898 0.15796 0.0
C658 C 0.13585 0.01992 0.21267 0.0
C659 C 0.12824 0.0364 0.23479 0.0
C660 C 0.13473 0.05417 0.2177 0.0
H661 H 0.04546 0.0566 0.48021 0.0
H662 H 0.06767 0.05999 0.40792 0.0
C663 C 0.14883 0.05546 0.17987 0.0
C664 C 0.11438 0.03503 0.27786 0.0
H665 H 0.06851 0.0444 0.31157 0.0
C666 C 0.1205 0.02762 0.32503 0.0
C667 C 0.09544 0.04128 0.27306 0.0
C668 C 0.08809 0.04911 0.22302 0.0
C669 C 0.10826 0.02642 0.36766 0.0
C670 C 0.08916 0.03227 0.36264 0.0
C671 C 0.08309 0.03986 0.3155 0.0
C672 C 0.07524 0.03024 0.40557 0.0
C673 C 0.11611 0.01935 0.41805 0.0
C674 C 0.07173 0.01237 0.42766 0.0
C675 C 0.05918 1.01045 0.46898 0.0
C676 C 0.04958 0.0263 0.48878 0.0
C677 C 0.05263 0.04412 0.46576 0.0
C678 C 0.06533 0.04607 0.42449 0.0
H679 H 0.13175 0.02118 0.41997 0.0
H680 H 0.10966 0.02689 0.4512 0.0
H681 H 0.11294 1.00396 0.42188 0.0
H682 H 0.07873 0.99985 0.41293 0.0
H683 H 0.05694 0.99648 0.48536 0.0
H684 H 0.47002 0.15915 0.17946 0.0
H685 H 0.4731 0.13433 0.24457 0.0
H686 H 0.53263 0.14717 0.25933 0.0
H687 H 0.52977 0.17188 0.19374 0.0
H688 H 0.49598 0.10173 0.24953 0.0
H689 H 0.51308 0.15199 0.40771 0.0
H690 H 0.50355 0.15971 0.34688 0.0
H691 H 0.52824 0.15393 0.35242 0.0
C692 C 0.48387 0.15654 0.19581 0.0
C693 C 0.49964 0.16769 0.18124 0.0
C694 C 0.48556 0.14239 0.23342 0.0
C695 C 0.50301 0.13908 0.25768 0.0
C696 C 0.51891 0.14973 0.24213 0.0
H697 H 0.53605 0.04437 0.45411 0.0
H698 H 0.533 0.06785 0.38497 0.0
C699 C 0.51724 0.16387 0.20448 0.0
C700 C 0.50451 0.12463 0.29944 0.0
H701 H 0.51523 0.11916 0.42695 0.0
C702 C 0.50019 0.10555 0.28828 0.0
C703 C 0.50978 0.12961 0.35031 0.0
C704 C 0.51377 0.14994 0.36539 0.0
C705 C 0.50134 0.09134 0.32623 0.0
C706 C 0.50701 0.09628 0.37669 0.0
C707 C 0.51103 0.11537 0.38814 0.0
C708 C 0.50868 0.08183 0.41821 0.0
C709 C 0.49622 0.07115 0.31238 0.0
C710 C 0.49606 0.0819 0.45997 0.0
C711 C 0.49765 0.06836 0.49919 0.0
C712 C 0.51214 0.05475 0.49806 0.0
C713 C 0.52471 0.05465 0.45606 0.0
C714 C 0.52301 0.06807 0.41657 0.0
H715 H 0.48889 0.07021 0.27467 0.0
H716 H 0.50934 0.06256 0.31028 0.0
H717 H 0.48695 0.06479 0.34237 0.0
H718 H 0.48489 0.09235 0.46204 0.0
H719 H 0.48752 0.06856 0.53046 0.0
H720 H 0.36627 0.47058 0.199 0.0
H721 H 0.39025 0.4747 0.26557 0.0
H722 H 0.40187 0.53134 0.21105 0.0
H723 H 0.37823 0.52712 0.14279 0.0
H724 H 0.43489 0.51131 0.23593 0.0
H725 H 0.38266 0.50666 0.39475 0.0
H726 H 0.382 0.48664 0.35202 0.0
H727 H 0.37571 0.50978 0.32856 0.0
C728 C 0.3741 0.48383 0.2003 0.0
C729 C 0.37019 0.49851 0.16507 0.0
C730 C 0.38768 0.48625 0.23908 0.0
C731 C 0.39767 0.50346 0.24416 0.0
C732 C 0.39426 0.51797 0.2083 0.0
H733 H 0.45927 0.53862 0.52011 0.0
H734 H 0.43748 0.53578 0.44746 0.0
C735 C 0.38063 0.51557 0.16938 0.0
C736 C 0.41146 0.50631 0.28725 0.0
H737 H 0.41516 0.50601 0.41845 0.0
C738 C 0.43056 0.51022 0.27584 0.0
C739 C 0.40584 0.50515 0.33949 0.0
C740 C 0.38541 0.50201 0.35462 0.0
C741 C 0.44419 0.51259 0.31503 0.0
C742 C 0.43868 0.51077 0.36723 0.0
C743 C 0.4195 0.50724 0.37858 0.0
C744 C 0.45245 0.51271 0.41075 0.0
C745 C 0.46433 0.51736 0.30011 0.0
C746 C 0.46817 0.50062 0.41492 0.0
C747 C 0.48072 0.50221 0.45659 0.0
C748 C 0.47781 0.51585 0.49546 0.0
C749 C 0.46204 0.52792 0.49115 0.0
C750 C 0.4495 0.52631 0.4495 0.0
H751 H 0.46515 0.52339 0.26071 0.0
H752 H 0.47073 0.52767 0.32746 0.0
H753 H 0.47291 0.50421 0.30075 0.0
H754 H 0.47059 0.48971 0.38632 0.0
H755 H 0.4926 0.49257 0.45855 0.0
H756 H 1.00352 0.37178 0.17541 0.0
H757 H 1.00189 0.3968 0.2407 0.0
H758 H 0.06277 0.40125 0.2412 0.0
H759 H 0.06469 0.37581 0.17727 0.0
H760 H 0.02813 0.393 0.34529 0.0
H761 H 0.03491 0.45823 0.2255 0.0
H762 H 0.02366 0.43698 0.20077 0.0
H763 H 0.04878 0.43748 0.21042 0.0
C764 C 0.01661 0.37804 0.18921 0.0
C765 C 0.03426 0.37158 0.1709 0.0
C766 C 0.01562 0.39245 0.22638 0.0
C767 C 0.0322 0.40089 0.2457 0.0
C768 C 0.0498 0.39501 0.22648 0.0
H769 H 0.04766 0.49271 0.47119 0.0
H770 H 0.05176 0.47016 0.40003 0.0
C771 C 0.05083 0.38052 0.18955 0.0
C772 C 0.03116 0.41492 0.2884 0.0
H773 H 0.03154 0.46249 0.31491 0.0
C774 C 0.02887 0.4082 0.33876 0.0
C775 C 0.03244 0.43469 0.27979 0.0
C776 C 0.03506 0.44246 0.22628 0.0
C777 C 0.02775 0.42073 0.38082 0.0
C778 C 0.02832 0.44063 0.37221 0.0
C779 C 0.03097 0.44731 0.32172 0.0
C780 C 0.02577 0.45463 0.41492 0.0
C781 C 0.02636 0.41243 0.43417 0.0
C782 C 0.00963 0.45375 0.44652 0.0
C783 C 1.00739 0.46642 0.48751 0.0
C784 C 0.02103 0.48062 0.49747 0.0
C785 C 0.03691 0.48192 0.46482 0.0
C786 C 0.03926 0.46904 0.42404 0.0
H787 H 0.03235 0.39788 0.43562 0.0
H788 H 0.0339 0.42141 0.46278 0.0
H789 H 0.01122 0.4114 0.44548 0.0
H790 H 0.99868 0.44324 0.43945 0.0
H791 H 0.99481 0.46515 0.51117 0.0
H792 H 0.87766 0.02395 0.07786 0.0
H793 H 0.90191 0.02618 1.01054 0.0
H794 H 0.89163 0.96772 0.96943 0.0
H795 H 0.86708 0.96548 0.03543 0.0
H796 H 0.93558 1.00511 0.99098 0.0
H797 H 0.88286 0.99668 0.8342 0.0
H798 H 0.87614 1.00185 0.89966 0.0
H799 H 0.88235 0.97806 0.88134 0.0
C800 C 0.88056 1.01155 0.05455 0.0
C801 C 0.87028 0.99456 0.06207 0.0
C802 C 0.89452 0.01282 0.01625 0.0
C803 C 0.8984 0.99721 0.98435 0.0
C804 C 0.8887 0.98004 0.99302 0.0
H805 H 0.99288 0.98632 0.76633 0.0
H806 H 0.97128 0.98256 0.83942 0.0
C807 C 0.87479 0.97874 0.0313 0.0
C808 C 0.91206 0.99902 0.94088 0.0
H809 H 0.91517 0.99675 0.80986 0.0
C810 C 0.93115 1.00328 0.95136 0.0
C811 C 0.90622 0.9969 0.88911 0.0
C812 C 0.88575 0.99329 0.87515 0.0
C813 C 0.94457 1.00525 0.91153 0.0
C814 C 0.9388 1.00264 0.8598 0.0
C815 C 0.91967 0.99857 0.84943 0.0
C816 C 0.95214 1.0048 0.81561 0.0
C817 C 0.96469 1.01056 0.92516 0.0
C818 C 0.94837 0.01816 0.77698 0.0
C819 C 0.96057 0.02021 0.73489 0.0
C820 C 0.97687 1.0089 0.73018 0.0
C821 C 0.98054 0.99536 0.7687 0.0
C822 C 0.96827 0.99329 0.81082 0.0
H823 H 0.96568 0.01678 0.96435 0.0
H824 H 0.97359 0.99762 0.92425 0.0
H825 H 0.97063 0.0209 0.89717 0.0
H826 H 0.936 0.02716 0.77958 0.0
H827 H 0.9572 0.03079 0.70617 0.0
H828 H 0.5669 0.87248 0.03149 0.0
H829 H 0.56416 0.89771 0.96794 0.0
H830 H 0.50661 0.90784 0.01602 0.0
H831 H 0.50921 0.88237 0.07984 0.0
H832 H 0.50877 0.90646 0.9141 0.0
H833 H 0.56568 0.95434 0.98284 0.0
H834 H 0.57433 0.93082 0.9715 0.0
H835 H 0.55688 0.93477 0.0209 0.0
C836 C 0.55376 0.88031 0.02951 0.0
C837 C 0.53835 0.87545 0.06146 0.0
C838 C 0.55222 0.89482 0.99298 0.0
C839 C 0.53531 0.90506 0.98763 0.0
C840 C 0.51987 0.90028 0.01948 0.0
H841 H 0.52753 1.00618 0.78919 0.0
H842 H 0.52964 0.9848 0.86359 0.0
C843 C 0.52137 0.88567 0.05595 0.0
C844 C 0.53346 0.91991 0.94683 0.0
H845 H 0.55493 0.95947 0.89644 0.0
C846 C 0.51878 0.91815 0.91063 0.0
C847 C 0.54628 0.93542 0.94241 0.0
C848 C 0.56154 0.93909 0.98183 0.0
C849 C 0.51693 0.93098 0.86949 0.0
C850 C 0.53044 0.9458 0.8633 0.0
C851 C 0.54473 0.94798 0.90049 0.0
C852 C 0.53007 0.95897 0.81825 0.0
C853 C 0.50033 0.92859 0.83341 0.0
C854 C 0.53033 0.95175 0.76784 0.0
C855 C 0.52912 0.96396 0.72557 0.0
C856 C 0.52783 0.98367 0.73251 0.0
C857 C 0.52851 0.99103 0.78273 0.0
C858 C 0.52961 0.9788 0.82523 0.0
H859 H 0.48838 0.92096 0.85225 0.0
H860 H 0.49514 0.94252 0.8195 0.0
H861 H 0.50479 0.92005 0.79967 0.0
H862 H 0.53147 0.93663 0.76108 0.0
H863 H 0.52947 0.95798 0.68741 0.0
H864 H 0.64859 0.57027 0.07576 0.0
H865 H 0.62312 0.56712 1.01254 0.0
H866 H 0.64472 0.51253 0.96685 0.0
H867 H 0.67048 0.51569 0.02914 0.0
H868 H 0.62747 0.56289 0.90489 0.0
H869 H 0.58779 0.50201 0.988 0.0
H870 H 0.60474 0.51575 0.02466 0.0
H871 H 0.61274 0.498 0.98008 0.0
C872 C 0.64797 0.55755 0.0524 0.0
C873 C 0.66175 0.54326 0.0578 0.0
C874 C 0.6333 0.55575 0.01632 0.0
C875 C 0.63185 0.53953 0.98508 0.0
C876 C 0.64528 0.52504 0.99108 0.0
H877 H 0.5625 0.49989 0.73298 0.0
H878 H 0.58487 0.50463 0.80318 0.0
C879 C 0.66002 0.52685 0.027 0.0
C880 C 0.6169 0.5382 0.94451 0.0
H881 H 0.5794 0.51125 0.90324 0.0
C882 C 0.61685 0.55169 0.90473 0.0
C883 C 0.60305 0.52358 0.94415 0.0
C884 C 0.6019 0.50909 0.98671 0.0
C885 C 0.60378 0.5506 0.86383 0.0
C886 C 0.59001 0.53587 0.86318 0.0
C887 C 0.5899 0.52256 0.9035 0.0
C888 C 0.5762 0.5334 0.81995 0.0
C889 C 0.60538 0.56482 0.82066 0.0
C890 C 0.56356 0.54791 0.80586 0.0
C891 C 0.55088 0.54534 0.76471 0.0
C892 C 0.55049 0.52817 0.73696 0.0
C893 C 0.56278 0.51354 0.7522 0.0
C894 C 0.57548 0.51614 0.79292 0.0
H895 H 0.6195 0.57189 0.82006 0.0
H896 H 0.60297 0.55793 0.78279 0.0
H897 H 0.59452 0.57598 0.82596 0.0
H898 H 0.5634 0.56118 0.82687 0.0
H899 H 0.54142 0.5568 0.75457 0.0
H900 H 0.0162 0.67363 0.037 0.0
H901 H 0.02067 0.64909 0.97178 0.0
H902 H 0.96935 0.62114 0.02157 0.0
H903 H 0.96533 0.645 0.08888 0.0
H904 H 0.99591 0.59546 0.99788 0.0
H905 H 0.99154 0.64777 0.83939 0.0
H906 H 0.01038 0.65291 0.88357 0.0
H907 H 0.98615 0.65389 0.90509 0.0
C908 C 1.00604 0.66207 0.035 0.0
C909 C 0.99025 0.66155 0.06818 0.0
C910 C 1.00846 0.64817 0.99692 0.0
C911 C 0.99504 0.63352 0.99048 0.0
C912 C 0.97979 0.63241 0.02511 0.0
H913 H 0.97569 0.54549 0.75705 0.0
H914 H 0.97281 0.56724 0.83051 0.0
C915 C 0.97743 0.64621 0.06346 0.0
C916 C 0.99662 0.61962 0.94717 0.0
H917 H 1.00016 0.61635 0.81615 0.0
C918 C 0.99675 0.60005 0.95817 0.0
C919 C 0.99756 0.62551 0.89508 0.0
C920 C 0.99621 0.64614 0.87993 0.0
C921 C 0.99818 0.58635 0.91881 0.0
C922 C 0.99945 0.59231 0.86702 0.0
C923 C 0.99927 0.61181 0.85592 0.0
C924 C 1.00127 0.57857 0.82374 0.0
C925 C 0.9987 0.56558 0.93278 0.0
C926 C 0.01815 0.57778 0.79533 0.0
C927 C 0.01991 0.56524 0.75383 0.0
C928 C 1.00472 0.55334 0.73928 0.0
C929 C 0.98775 0.55424 0.76763 0.0
C930 C 0.98607 0.56668 0.80958 0.0
H931 H 1.00069 0.56339 0.97471 0.0
H932 H 0.98515 0.55873 0.92122 0.0
H933 H 0.01031 0.55832 0.91179 0.0
H934 H 0.03003 0.58686 0.80542 0.0
H935 H 0.03321 0.56489 0.73306 0.0
H936 H 0.07191 0.19457 0.20294 0.0
H937 H 0.06451 0.17044 0.26757 0.0
H938 H 0.07267 0.21183 0.38787 0.0
H939 H 0.08021 0.23607 0.32347 0.0
H940 H 0.08113 0.15679 0.37115 0.0
H941 H 0.0138 0.19768 0.37765 0.0
H942 H 0.03057 0.19998 0.32561 0.0
H943 H 0.03534 0.21109 0.3864 0.0
C944 C 0.07292 0.19835 0.24322 0.0
C945 C 0.07634 0.21726 0.25821 0.0
C946 C 0.06866 0.18455 0.28008 0.0
C947 C 0.06784 0.18949 0.33224 0.0
C948 C 0.07316 0.20784 0.34765 0.0
H949 H 1.00161 0.13777 0.57609 0.0
H950 H 0.02501 0.15723 0.5307 0.0
C951 C 0.07737 0.22166 0.31088 0.0
C952 C 0.05814 0.17673 0.36886 0.0
H953 H 0.01606 0.17122 0.43174 0.0
C954 C 0.06697 0.15994 0.38481 0.0
C955 C 0.03959 0.18087 0.38595 0.0
C956 C 0.02913 0.19829 0.36788 0.0
C957 C 0.05765 0.14717 0.41799 0.0
C958 C 0.03908 0.15134 0.43486 0.0
C959 C 0.0304 0.16821 0.41916 0.0
C960 C 0.02769 0.13801 0.4662 0.0
C961 C 0.06768 0.1294 0.43489 0.0
C962 C 0.02165 0.12067 0.44518 0.0
C963 C 1.0081 0.10963 0.47064 0.0
C964 C 1.00028 0.11579 0.51757 0.0
C965 C 1.00703 0.13279 0.53956 0.0
C966 C 0.02057 0.14382 0.51402 0.0
H967 H 0.08325 0.1305 0.42901 0.0
H968 H 0.06481 0.1264 0.47609 0.0
H969 H 0.06235 0.11717 0.41204 0.0
H970 H 0.02665 0.11617 0.40773 0.0
H971 H 1.00305 0.09679 0.45213 0.0
H972 H 0.328 0.08245 0.19198 0.0
H973 H 0.35193 0.07252 0.25351 0.0
H974 H 0.31158 0.07801 0.37704 0.0
H975 H 0.28744 0.08835 0.3156 0.0
H976 H 0.36719 0.0857 0.35422 0.0
H977 H 0.32318 0.01967 0.36103 0.0
H978 H 0.31998 0.03747 0.31202 0.0
H979 H 0.31176 0.04176 0.37626 0.0
C980 C 0.32436 0.08239 0.23243 0.0
C981 C 0.3057 0.08589 0.24881 0.0
C982 C 0.33808 0.0766 0.26755 0.0
C983 C 0.33335 0.07418 0.31946 0.0
C984 C 0.31535 0.07956 0.33688 0.0
H985 H 0.39769 0.99748 0.51917 0.0
H986 H 0.37331 0.01968 0.48966 0.0
C987 C 0.30161 0.08542 0.30176 0.0
C988 C 0.34626 0.06336 0.35285 0.0
H989 H 0.35279 0.01884 0.40111 0.0
C990 C 0.36397 0.07119 0.36532 0.0
C991 C 0.34195 0.04442 0.36705 0.0
C992 C 0.32326 0.03519 0.35329 0.0
C993 C 0.37776 0.06036 0.39053 0.0
C994 C 0.3738 0.04111 0.40228 0.0
C995 C 0.35577 0.03358 0.39195 0.0
C996 C 0.38861 0.02808 0.42112 0.0
C997 C 0.39651 0.06955 0.40366 0.0
C998 C 0.40496 0.02509 0.3916 0.0
C999 C 0.41878 0.01245 0.40819 0.0
C1000 C 0.41641 1.00237 0.45434 0.0
C1001 C 0.39979 1.00498 0.48327 0.0
C1002 C 0.38597 0.01774 0.46671 0.0
H1003 H 0.39504 0.08516 0.40835 0.0
H1004 H 0.40253 0.06356 0.43954 0.0
H1005 H 0.40668 0.06701 0.37186 0.0
H1006 H 0.40697 0.03242 0.35539 0.0
H1007 H 0.43132 1.01047 0.38476 0.0
H1008 H 0.45664 0.288 0.29655 0.0
H1009 H 0.46827 0.30907 0.36413 0.0
H1010 H 0.44576 0.3573 0.28302 0.0
H1011 H 0.43377 0.33625 0.21566 0.0
H1012 H 0.49529 0.33455 0.32424 0.0
H1013 H 0.44056 0.37311 0.4355 0.0
H1014 H 0.43601 0.35048 0.40475 0.0
H1015 H 0.43612 0.37198 0.36755 0.0
C1016 C 0.45322 0.30296 0.29446 0.0
C1017 C 0.44454 0.31054 0.25046 0.0
C1018 C 0.45996 0.315 0.33308 0.0
C1019 C 0.45795 0.33473 0.32844 0.0
C1020 C 0.44727 0.3421 0.28768 0.0
H1021 H 0.51668 0.43692 0.40403 0.0
H1022 H 0.49419 0.41198 0.3788 0.0
C1023 C 0.44054 0.33007 0.249 0.0
C1024 C 0.47062 0.34752 0.35775 0.0
H1025 H 0.47158 0.38729 0.43265 0.0
C1026 C 0.49016 0.34585 0.34889 0.0
C1027 C 0.46381 0.36241 0.38892 0.0
C1028 C 0.44298 0.36456 0.40018 0.0
C1029 C 0.50306 0.35918 0.36841 0.0
C1030 C 0.49627 0.37429 0.39908 0.0
C1031 C 0.47675 0.37565 0.40929 0.0
C1032 C 0.50912 0.38944 0.4179 0.0
C1033 C 0.52368 0.35754 0.35344 0.0
C1034 C 0.52479 0.38506 0.44884 0.0
C1035 C 0.53782 0.3992 0.46241 0.0
C1036 C 0.53512 0.418 0.44618 0.0
C1037 C 0.51906 0.4225 0.41687 0.0
C1038 C 0.50619 0.40831 0.40269 0.0
H1039 H 0.52565 0.34814 0.31952 0.0
H1040 H 0.52988 0.37168 0.34443 0.0
H1041 H 0.53174 0.35135 0.38592 0.0
H1042 H 0.52706 0.37067 0.46198 0.0
H1043 H 0.5499 0.39549 0.48594 0.0
H1044 H 0.234 0.49221 0.29095 0.0
H1045 H 0.20957 0.4985 0.35421 0.0
H1046 H 0.18192 0.44557 0.31664 0.0
H1047 H 0.20697 0.43861 0.25363 0.0
H1048 H 0.1665 0.49563 0.31314 0.0
H1049 H 0.18729 0.4552 0.48821 0.0
H1050 H 0.20537 0.46425 0.44541 0.0
H1051 H 0.19011 0.44537 0.42443 0.0
C1052 C 0.22318 0.48149 0.29708 0.0
C1053 C 0.22259 0.46478 0.26732 0.0
C1054 C 0.20912 0.48523 0.33308 0.0
C1055 C 0.1941 0.47246 0.34005 0.0
C1056 C 0.19357 0.45549 0.31182 0.0
H1057 H 0.09681 0.50647 0.52918 0.0
H1058 H 0.11849 0.48598 0.48081 0.0
C1059 C 0.20779 0.45163 0.27569 0.0
C1060 C 0.17822 0.47826 0.37309 0.0
H1061 H 0.16369 0.47877 0.49825 0.0
C1062 C 0.16555 0.49164 0.35334 0.0
C1063 C 0.17722 0.47302 0.42537 0.0
C1064 C 0.19066 0.45863 0.44753 0.0
C1065 C 0.15244 0.50068 0.38531 0.0
C1066 C 0.15218 0.49629 0.43826 0.0
C1067 C 0.16411 0.48213 0.45759 0.0
C1068 C 0.14043 0.50738 0.47404 0.0
C1069 C 0.13946 0.51546 0.3628 0.0
C1070 C 0.14596 0.52591 0.48728 0.0
C1071 C 0.13366 0.53763 0.51462 0.0
C1072 C 0.1156 0.53098 0.52877 0.0
C1073 C 0.11056 0.51201 0.518 0.0
C1074 C 0.12292 0.50028 0.49078 0.0
H1075 H 0.13915 0.51486 0.32012 0.0
H1076 H 0.12481 0.51355 0.37762 0.0
H1077 H 0.14445 0.5298 0.37455 0.0
H1078 H 0.15948 0.53155 0.47445 0.0
H1079 H 0.13785 0.55219 0.52219 0.0
H1080 H 0.95802 0.78816 0.9367 0.0
H1081 H 0.97029 0.80828 0.86757 0.0
H1082 H 0.95409 0.85822 0.95252 0.0
H1083 H 0.94155 0.83819 0.02152 0.0
H1084 H 0.9534 0.86041 0.83475 0.0
H1085 H 0.02015 0.83496 0.92582 0.0
H1086 H 1.00355 0.81732 0.90347 0.0
H1087 H 0.99739 0.8323 0.95668 0.0
C1088 C 0.95619 0.80339 0.93948 0.0
C1089 C 0.94914 0.81167 0.98478 0.0
C1090 C 0.9633 0.81485 0.90008 0.0
C1091 C 0.96338 0.83466 0.90561 0.0
C1092 C 0.95418 0.84293 0.94777 0.0
H1093 H 0.01995 0.93558 0.81515 0.0
H1094 H 0.99753 0.91085 0.84098 0.0
C1095 C 0.94709 0.83149 0.98718 0.0
C1096 C 0.97622 0.84649 0.87419 0.0
H1097 H 0.02288 0.85885 0.86417 0.0
C1098 C 0.96862 0.85993 0.84041 0.0
C1099 C 0.99605 0.8458 0.88201 0.0
C1100 C 1.00488 0.83193 0.91912 0.0
C1101 C 0.98039 0.873 0.81481 0.0
C1102 C 1.00014 0.87285 0.8245 0.0
C1103 C 1.00775 0.85892 0.85677 0.0
C1104 C 0.01307 0.88789 0.80532 0.0
C1105 C 0.97156 0.88693 0.77804 0.0
C1106 C 0.02959 0.88314 0.77819 0.0
C1107 C 0.0426 0.89724 0.76404 0.0
C1108 C 0.03927 0.91632 0.77682 0.0
C1109 C 0.02274 0.92102 0.80411 0.0
C1110 C 0.00983 0.90692 0.81848 0.0
H1111 H 0.95817 0.88118 0.76157 0.0
H1112 H 0.96807 0.90018 0.79907 0.0
H1113 H 0.98137 0.89054 0.74607 0.0
H1114 H 0.03247 0.86849 0.76824 0.0
H1115 H 0.05514 0.89326 0.74265 0.0
H1116 H 0.73206 0.96672 0.92326 0.0
H1117 H 0.70657 0.96995 0.85969 0.0
H1118 H 0.66519 0.95799 0.97768 0.0
H1119 H 0.69047 0.95394 0.04024 0.0
H1120 H 0.65315 0.94559 0.88359 0.0
H1121 H 0.67978 0.02029 0.87319 0.0
H1122 H 0.69543 1.0019 0.85166 0.0
H1123 H 0.68927 1.00358 0.91858 0.0
C1124 C 0.71755 0.96408 0.93501 0.0
C1125 C 0.71315 0.96057 0.98686 0.0
C1126 C 0.70301 0.9661 0.89881 0.0
C1127 C 0.68396 0.96481 0.91434 0.0
C1128 C 0.67976 0.95922 0.96485 0.0
H1129 H 0.58974 0.02903 0.91741 0.0
H1130 H 0.61953 1.01183 0.91964 0.0
C1131 C 0.69421 0.95707 1.00073 0.0
C1132 C 0.66832 0.97219 0.88212 0.0
H1133 H 0.64905 0.01443 0.8457 0.0
C1134 C 0.65238 0.96053 0.87381 0.0
C1135 C 0.66737 0.99174 0.8696 0.0
C1136 C 0.68378 1.0052 0.87884 0.0
C1137 C 0.63501 0.96822 0.85786 0.0
C1138 C 0.63377 0.98798 0.84923 0.0
C1139 C 0.65014 0.99928 0.85262 0.0
C1140 C 0.6153 0.99777 0.84647 0.0
C1141 C 0.61777 0.9555 0.85469 0.0
C1142 C 0.60297 0.99546 0.80461 0.0
C1143 C 0.58568 1.00515 0.80355 0.0
C1144 C 0.58058 0.01733 0.84427 0.0
C1145 C 0.59305 0.01954 0.88591 0.0
C1146 C 0.61018 1.00985 0.887 0.0
H1147 H 0.62087 0.94069 0.86653 0.0
H1148 H 0.60629 0.96112 0.87954 0.0
H1149 H 0.61243 0.95525 0.81458 0.0
H1150 H 0.60676 0.98633 0.77274 0.0
H1151 H 0.57629 1.00305 0.77109 0.0
H1152 H 0.57634 0.73881 0.90525 0.0
H1153 H 0.56664 0.71261 0.84923 0.0
H1154 H 0.57176 0.67356 0.97585 0.0
H1155 H 0.58039 0.69966 0.03276 0.0
H1156 H 0.57833 0.67491 0.81979 0.0
H1157 H 0.51445 0.67573 0.94507 0.0
H1158 H 0.53231 0.69412 0.94736 0.0
H1159 H 0.53631 0.67171 0.9785 0.0
C1160 C 0.57573 0.7246 0.92102 0.0
C1161 C 0.57858 0.72147 0.97391 0.0
C1162 C 0.57036 0.70962 0.88879 0.0
C1163 C 0.568 0.6913 0.90887 0.0
C1164 C 0.57318 0.68771 0.95996 0.0
H1165 H 0.50127 0.59508 0.80961 0.0
H1166 H 0.52486 0.61549 0.85062 0.0
C1167 C 0.5783 0.70269 0.99237 0.0
C1168 C 0.55724 0.67686 0.87939 0.0
H1169 H 0.5152 0.65269 0.8797 0.0
C1170 C 0.56457 0.66995 0.83285 0.0
C1171 C 0.53914 0.67072 0.89624 0.0
C1172 C 0.52996 0.67855 0.94424 0.0
C1173 C 0.55435 0.65669 0.80316 0.0
C1174 C 0.53637 0.65043 0.82047 0.0
C1175 C 0.52909 0.6574 0.86688 0.0
C1176 C 0.52447 0.6369 0.79111 0.0
C1177 C 0.56286 0.64931 0.75391 0.0
C1178 C 0.51657 0.64213 0.74375 0.0
C1179 C 0.50306 0.63044 0.72005 0.0
C1180 C 0.49721 0.61337 0.74339 0.0
C1181 C 0.50564 0.60796 0.7901 0.0
C1182 C 0.51909 0.61963 0.81373 0.0
H1183 H 0.57833 0.65224 0.75172 0.0
H1184 H 0.56043 0.63377 0.75017 0.0
H1185 H 0.55593 0.65635 0.72079 0.0
H1186 H 0.52028 0.65558 0.72613 0.0
H1187 H 0.49692 0.63494 0.684 0.0
H1188 H 0.84463 0.58364 0.03037 0.0
H1189 H 0.86746 0.57714 0.96191 0.0
H1190 H 0.82154 0.56624 0.85643 0.0
H1191 H 0.79863 0.57272 0.92478 0.0
H1192 H 0.86405 0.53936 0.92379 0.0
H1193 H 0.86304 0.59215 0.7651 0.0
H1194 H 0.85594 0.59792 0.83008 0.0
H1195 H 0.84031 0.58457 0.78919 0.0
C1196 C 0.83942 0.58052 0.99209 0.0
C1197 C 0.8199 0.57844 0.98294 0.0
C1198 C 0.85246 0.57691 0.95301 0.0
C1199 C 0.84617 0.57125 0.90417 0.0
C1200 C 0.82667 0.57091 0.89361 0.0
H1201 H 0.89274 0.50145 0.66345 0.0
H1202 H 0.87412 0.5245 0.71216 0.0
C1203 C 0.8136 0.57458 0.93274 0.0
C1204 C 0.85951 0.56173 0.8689 0.0
H1205 H 0.87874 0.56287 0.74841 0.0
C1206 C 0.86747 0.54463 0.88569 0.0
C1207 C 0.86356 0.56847 0.81895 0.0
C1208 C 0.8554 0.58686 0.79963 0.0
C1209 C 0.87917 0.53388 0.85367 0.0
C1210 C 0.88349 0.54069 0.80385 0.0
C1211 C 0.87553 0.55781 0.78682 0.0
C1212 C 0.89587 0.52971 0.76909 0.0
C1213 C 0.88627 0.51498 0.87299 0.0
C1214 C 0.9145 0.52565 0.78382 0.0
C1215 C 0.92497 0.51212 0.75709 0.0
C1216 C 0.91714 0.50265 0.71428 0.0
C1217 C 0.89902 0.508 0.69709 0.0
C1218 C 0.88844 0.52138 0.7244 0.0
H1219 H 0.8778 0.50971 0.9061 0.0
H1220 H 0.88584 0.50408 0.84211 0.0
H1221 H 0.90117 0.51661 0.88596 0.0
H1222 H 0.92057 0.53216 0.81784 0.0
H1223 H 0.93878 0.5084 0.77198 0.0
H1224 H 0.01119 0.22572 0.81647 0.0
H1225 H 1.00672 0.19608 0.76813 0.0
H1226 H 0.05733 0.17334 0.83679 0.0
H1227 H 0.06194 0.20278 0.88464 0.0
H1228 H 0.05604 0.16523 0.73574 0.0
H1229 H 0.98708 0.14648 0.82562 0.0
H1230 H 0.9873 0.16909 0.79379 0.0
H1231 H 1.00191 0.16547 0.84953 0.0
C1232 C 0.02135 0.21439 0.82131 0.0
C1233 C 0.03696 0.21674 0.85445 0.0
C1234 C 0.01874 0.1974 0.79375 0.0
C1235 C 0.03153 0.18227 0.79927 0.0
C1236 C 0.04726 0.18474 0.83166 0.0
H1237 H 0.01483 0.06263 0.74013 0.0
H1238 H 0.01827 0.09464 0.77519 0.0
C1239 C 0.04993 0.20169 0.8589 0.0
C1240 C 0.02864 0.16376 0.77201 0.0
H1241 H 0.99806 0.12614 0.75995 0.0
C1242 C 0.04332 0.15672 0.74089 0.0
C1243 C 0.01215 0.15247 0.77914 0.0
C1244 C 0.99627 0.15863 0.81418 0.0
C1245 C 0.04208 0.13874 0.71727 0.0
C1246 C 0.02549 0.12757 0.72385 0.0
C1247 C 0.01073 0.1347 0.75452 0.0
C1248 C 0.02352 0.10806 0.70168 0.0
C1249 C 0.05889 0.1316 0.68713 0.0
C1250 C 0.02516 0.10478 0.64852 0.0
C1251 C 0.02345 0.08635 0.6284 0.0
C1252 C 0.02001 0.07079 0.66107 0.0
C1253 C 0.01795 0.07418 0.71404 0.0
C1254 C 0.01973 0.09255 0.7341 0.0
H1255 H 0.07209 0.13945 0.69716 0.0
H1256 H 0.06122 0.11623 0.69405 0.0
H1257 H 0.05623 0.13368 0.64548 0.0
H1258 H 0.02778 0.11648 0.62252 0.0
H1259 H 0.02502 0.08427 0.58736 0.0
H1260 H 0.32624 0.06693 0.8711 0.0
H1261 H 0.35649 0.06254 0.82739 0.0
H1262 H 0.34343 1.00328 0.80468 0.0
H1263 H 0.31281 1.00758 0.84759 0.0
H1264 H 0.38014 1.01008 0.8447 0.0
H1265 H 0.36683 0.05476 0.67317 0.0
H1266 H 0.36226 0.06646 0.73328 0.0
H1267 H 0.34799 0.04639 0.71453 0.0
C1268 C 0.32951 0.05302 0.85586 0.0
C1269 C 0.31683 0.03766 0.86263 0.0
C1270 C 0.34692 0.05053 0.83096 0.0
C1271 C 0.35219 0.03264 0.81206 0.0
C1272 C 0.33967 0.01724 0.81877 0.0
H1273 H 0.44965 1.01087 0.61194 0.0
H1274 H 0.41788 0.01287 0.64929 0.0
C1275 C 0.32217 0.01972 0.84354 0.0
C1276 C 0.37104 0.02994 0.78707 0.0
H1277 H 0.39869 0.04504 0.68685 0.0
C1278 C 0.38415 0.01764 0.81001 0.0
C1279 C 0.37626 0.03966 0.74153 0.0
C1280 C 0.36256 0.05243 0.71381 0.0
C1281 C 0.40245 0.01517 0.78944 0.0
C1282 C 0.40789 0.0254 0.74491 0.0
C1283 C 0.39461 0.03732 0.72121 0.0
C1284 C 0.42732 0.02401 0.72252 0.0
C1285 C 0.41576 1.0015 0.81536 0.0
C1286 C 0.44326 0.02979 0.75095 0.0
C1287 C 0.46148 0.02871 0.7297 0.0
C1288 C 0.46422 0.02187 0.67934 0.0
C1289 C 0.44818 0.01616 0.65085 0.0
C1290 C 0.42995 0.01732 0.67213 0.0
H1291 H 0.40802 0.99129 0.84036 0.0
H1292 H 0.42407 0.99341 0.78655 0.0
H1293 H 0.42584 1.00961 0.83981 0.0
H1294 H 0.4416 0.03534 0.78953 0.0
H1295 H 0.47341 0.03333 0.75281 0.0
H1296 H 0.46294 0.32268 0.84572 0.0
H1297 H 0.46613 0.35244 0.79898 0.0
H1298 H 0.52675 0.34537 0.79388 0.0
H1299 H 0.52361 0.31486 0.8376 0.0
H1300 H 0.48249 0.38384 0.82792 0.0
H1301 H 0.51804 0.36094 0.64885 0.0
H1302 H 0.50787 0.34421 0.69365 0.0
H1303 H 0.53107 0.35416 0.70495 0.0
C1304 C 0.47695 0.32703 0.83335 0.0
C1305 C 0.49299 0.31604 0.84545 0.0
C1306 C 0.47877 0.34429 0.807 0.0
C1307 C 0.49666 0.35121 0.79208 0.0
C1308 C 0.51271 0.34026 0.80367 0.0
H1309 H 0.53705 0.46227 0.69368 0.0
H1310 H 0.53336 0.42987 0.72654 0.0
C1311 C 0.51089 0.32285 0.82956 0.0
C1312 C 0.4985 0.37039 0.76757 0.0
H1313 H 0.51782 0.3944 0.66546 0.0
C1314 C 0.49009 0.38604 0.79216 0.0
C1315 C 0.50835 0.37345 0.72068 0.0
C1316 C 0.51667 0.35727 0.69022 0.0
C1317 C 0.49156 0.40451 0.77191 0.0
C1318 C 0.50174 0.40759 0.72585 0.0
C1319 C 0.51009 0.39203 0.70096 0.0
C1320 C 0.50406 0.42697 0.70362 0.0
C1321 C 0.48236 0.42074 0.80011 0.0
C1322 C 0.48887 0.43604 0.67907 0.0
C1323 C 0.49102 0.4545 0.65951 0.0
C1324 C 0.50827 0.46443 0.66502 0.0
C1325 C 0.52353 0.45513 0.68891 0.0
C1326 C 0.52145 0.43659 0.7078 0.0
H1327 H 0.47741 0.41657 0.83906 0.0
H1328 H 0.49239 0.43288 0.80379 0.0
H1329 H 0.46995 0.42563 0.77766 0.0
H1330 H 0.47535 0.42883 0.67503 0.0
H1331 H 0.47916 0.46098 0.64004 0.0
H1332 H 0.22189 0.4904 0.79373 0.0
H1333 H 0.19177 0.49254 0.74714 0.0
H1334 H 0.16579 0.51835 0.8797 0.0
H1335 H 0.19564 0.51594 0.92677 0.0
H1336 H 0.14432 0.48822 0.83734 0.0
H1337 H 0.16577 0.53998 0.68674 0.0
H1338 H 0.18078 0.51959 0.69318 0.0
H1339 H 0.17935 0.53649 0.74477 0.0
C1340 C 0.2098 0.49659 0.81297 0.0
C1341 C 0.21135 0.50311 0.86408 0.0
C1342 C 0.19258 0.49795 0.78607 0.0
C1343 C 0.17648 0.5058 0.80961 0.0
C1344 C 0.17799 0.51234 0.86049 0.0
H1345 H 0.06794 0.54244 0.69014 0.0
H1346 H 0.09992 0.5398 0.72559 0.0
C1347 C 0.19519 0.5111 0.88726 0.0
C1348 C 0.15785 0.50662 0.78224 0.0
H1349 H 0.13501 0.52665 0.67972 0.0
C1350 C 0.14233 0.49658 0.8028 0.0
C1351 C 0.15514 0.51762 0.73728 0.0
C1352 C 0.17106 0.52918 0.71424 0.0
C1353 C 0.12428 0.4972 0.77973 0.0
C1354 C 0.1216 0.50809 0.73461 0.0
C1355 C 0.13708 0.51819 0.71406 0.0
C1356 C 0.10262 0.50978 0.70971 0.0
C1357 C 0.10805 0.48655 0.80448 0.0
C1358 C 0.09361 0.49392 0.68749 0.0
C1359 C 0.07535 0.49544 0.6666 0.0
C1360 C 0.06556 0.51277 0.66815 0.0
C1361 C 0.07491 0.52878 0.6888 0.0
C1362 C 0.09324 0.52731 0.70913 0.0
H1363 H 0.11151 0.48191 0.84417 0.0
H1364 H 0.09514 0.49547 0.80579 0.0
H1365 H 0.10473 0.47372 0.78128 0.0
H1366 H 0.1007 0.48032 0.68641 0.0
H1367 H 0.06892 0.48306 0.64916 0.0
H1368 H 0.02239 0.81376 0.39627 0.0
H1369 H 0.02543 0.84501 0.43689 0.0
H1370 H 0.96482 0.85167 0.43214 0.0
H1371 H 0.9616 0.82089 0.38983 0.0
H1372 H 0.0102 0.88074 0.39001 0.0
H1373 H 0.98113 0.86533 0.58443 0.0
H1374 H 0.99072 0.847 0.54339 0.0
H1375 H 0.96775 0.85664 0.5303 0.0
C1376 C 0.00966 0.8218 0.40378 0.0
C1377 C 0.99173 0.81458 0.38948 0.0
C1378 C 0.01144 0.83966 0.42734 0.0
C1379 C 0.99535 0.85064 0.43792 0.0
C1380 C 0.97742 0.84334 0.42509 0.0
H1381 H 0.97717 0.96293 0.57285 0.0
H1382 H 0.97349 0.93086 0.53752 0.0
C1383 C 0.97563 0.82559 0.4011 0.0
C1384 C 0.99733 0.87019 0.45935 0.0
H1385 H 0.98797 0.89743 0.5652 0.0
C1386 C 1.00544 0.88439 0.42841 0.0
C1387 C 0.99085 0.87499 0.50914 0.0
C1388 C 0.98221 0.86023 0.5441 0.0
C1389 C 1.00703 0.9033 0.44558 0.0
C1390 C 1.00092 0.90809 0.4959 0.0
C1391 C 0.99273 0.89384 0.52676 0.0
C1392 C 1.00308 0.92772 0.51725 0.0
C1393 C 0.01471 0.91804 0.40887 0.0
C1394 C 0.02093 0.93667 0.51856 0.0
C1395 C 0.02292 0.9552 0.5375 0.0
C1396 C 1.00716 0.9652 0.55641 0.0
C1397 C 0.98944 0.95596 0.55693 0.0
C1398 C 0.98739 0.93749 0.53731 0.0
H1399 H 0.01295 0.91352 0.3682 0.0
H1400 H 1.00756 0.93192 0.41413 0.0
H1401 H 0.0301 0.92005 0.41595 0.0
H1402 H 0.0334 0.92931 0.50501 0.0
H1403 H 0.03687 0.9617 0.53711 0.0
H1404 H 0.70756 0.9684 0.36786 0.0
H1405 H 0.67794 0.9728 0.41446 0.0
H1406 H 0.69959 0.02485 0.47978 0.0
H1407 H 0.72948 0.02055 0.43309 0.0
H1408 H 0.66886 0.976 0.51658 0.0
H1409 H 0.6507 0.04231 0.41265 0.0
H1410 H 0.66982 0.0271 0.39263 0.0
H1411 H 0.67296 0.04304 0.44602 0.0
C1412 C 0.70626 0.98064 0.39283 0.0
C1413 C 0.72104 0.99412 0.39656 0.0
C1414 C 0.68918 0.98319 0.4193 0.0
C1415 C 0.68633 0.99931 0.45008 0.0
C1416 C 0.70125 0.0125 0.45538 0.0
H1417 H 0.58472 1.00996 0.64753 0.0
H1418 H 0.61764 1.00694 0.61819 0.0
C1419 C 0.71837 1.01 0.42872 0.0
C1420 C 0.66753 1.00238 0.47507 0.0
H1421 H 0.62937 0.03211 0.47681 0.0
C1422 C 0.66027 0.98833 0.50815 0.0
C1423 C 0.65618 0.01835 0.4636 0.0
C1424 C 0.66267 0.0335 0.42646 0.0
C1425 C 0.64198 0.9897 0.52955 0.0
C1426 C 0.63068 1.00573 0.51831 0.0
C1427 C 0.63804 0.01988 0.48575 0.0
C1428 C 0.61077 1.00758 0.53708 0.0
C1429 C 0.63465 0.9736 0.56241 0.0
C1430 C 0.59593 1.00945 0.50153 0.0
C1431 C 0.57719 1.01139 0.51819 0.0
C1432 C 0.57275 1.01146 0.57091 0.0
C1433 C 0.58762 1.00979 0.60664 0.0
C1434 C 0.60645 1.00792 0.58988 0.0
H1435 H 0.64314 0.96049 0.55726 0.0
H1436 H 0.63547 0.97779 0.60348 0.0
H1437 H 0.61962 0.97031 0.55324 0.0
H1438 H 0.59886 1.00941 0.46063 0.0
H1439 H 0.56622 0.0132 0.48959 0.0
H1440 H 0.55457 0.72615 0.4316 0.0
H1441 H 0.55069 0.69606 0.4778 0.0
H1442 H 0.50837 0.67819 0.36834 0.0
H1443 H 0.51245 0.70798 0.32128 0.0
H1444 H 0.51864 0.67806 0.52358 0.0
H1445 H 0.5479 0.63534 0.36291 0.0
H1446 H 0.55043 0.66084 0.36611 0.0
H1447 H 0.52846 0.65034 0.34531 0.0
C1448 C 0.54441 0.71585 0.41734 0.0
C1449 C 0.53392 0.71955 0.37239 0.0
C1450 C 0.54215 0.69866 0.44399 0.0
C1451 C 0.52947 0.68468 0.42614 0.0
C1452 C 0.51847 0.6886 0.38246 0.0
H1453 H 0.49022 0.58157 0.5813 0.0
H1454 H 0.49317 0.61341 0.54437 0.0
C1455 C 0.52066 0.70579 0.3559 0.0
C1456 C 0.52814 0.66584 0.45226 0.0
H1457 H 0.53477 0.61826 0.43291 0.0
C1458 C 0.52217 0.66498 0.50378 0.0
C1459 C 0.53304 0.64876 0.42678 0.0
C1460 C 0.54049 0.64878 0.37239 0.0
C1461 C 0.52063 0.64754 0.53005 0.0
C1462 C 0.52496 0.63041 0.504 0.0
C1463 C 0.53126 0.63133 0.45281 0.0
C1464 C 0.52325 0.61139 0.52906 0.0
C1465 C 0.51468 0.64761 0.58574 0.0
C1466 C 0.53911 0.5995 0.53266 0.0
C1467 C 0.53746 0.58127 0.55376 0.0
C1468 C 0.51985 0.57433 0.57111 0.0
C1469 C 0.50403 0.58641 0.56843 0.0
C1470 C 0.5057 0.60469 0.54742 0.0
H1471 H 0.51668 0.66181 0.60367 0.0
H1472 H 0.49942 0.64384 0.58834 0.0
H1473 H 0.52281 0.63701 0.60816 0.0
H1474 H 0.55283 0.60433 0.51906 0.0
H1475 H 0.55004 0.57265 0.55664 0.0
H1476 H 0.8265 0.51778 0.32841 0.0
H1477 H 0.85608 0.51515 0.37672 0.0
H1478 H 0.83159 0.54676 0.50183 0.0
H1479 H 0.80174 0.54943 0.45371 0.0
H1480 H 0.87668 0.55116 0.4188 0.0
H1481 H 0.85812 0.49619 0.56459 0.0
H1482 H 0.84644 0.497 0.50278 0.0
H1483 H 0.84138 0.51471 0.55025 0.0
C1484 C 0.82718 0.52383 0.36666 0.0
C1485 C 0.8116 0.53373 0.38717 0.0
C1486 C 0.8442 0.52242 0.3941 0.0
C1487 C 0.84604 0.53066 0.44299 0.0
C1488 C 0.83044 0.54017 0.4643 0.0
H1489 H 0.9462 0.53004 0.64678 0.0
H1490 H 0.91373 0.53323 0.61368 0.0
C1491 C 0.81342 0.54175 0.43663 0.0
C1492 C 0.8647 0.53029 0.46982 0.0
H1493 H 0.88938 0.5081 0.56547 0.0
C1494 C 0.87944 0.5418 0.451 0.0
C1495 C 0.86821 0.51831 0.51233 0.0
C1496 C 0.8528 0.50575 0.53394 0.0
C1497 C 0.89765 0.54148 0.47302 0.0
C1498 C 0.90148 0.52882 0.51403 0.0
C1499 C 0.88655 0.5177 0.53388 0.0
C1500 C 0.92104 0.52642 0.535 0.0
C1501 C 0.91255 0.55496 0.45267 0.0
C1502 C 0.93595 0.52113 0.50224 0.0
C1503 C 0.95444 0.51942 0.52095 0.0
C1504 C 0.95853 0.52278 0.57305 0.0
C1505 C 0.94353 0.52743 0.60638 0.0
C1506 C 0.92496 0.52925 0.5875 0.0
H1507 H 0.90609 0.56736 0.43315 0.0
H1508 H 0.92182 0.56022 0.48416 0.0
H1509 H 0.92151 0.54747 0.42412 0.0
H1510 H 0.93329 0.51827 0.46196 0.0
H1511 H 0.96553 0.5153 0.49452 0.0
loop_
_geom_bond_atom_site_label_1
_geom_bond_atom_site_label_2
_geom_bond_distance
_geom_bond_site_symmetry_2
_ccdc_geom_bond_type
C0 C1 1.386 . S
C0 C2 1.397 . S
C0 H24 0.931 1_554 S
C1 C0 1.386 . S
C1 C5 1.397 . S
C2 C0 1.397 . S
C2 C3 1.384 . S
C2 H25 0.930 . S
C3 C2 1.384 . S
C3 C4 1.377 . S
C3 C6 1.481 . S
C4 C3 1.377 . S
C4 C5 1.389 . S
C4 H26 0.929 . S
C5 C1 1.397 . S
C5 C4 1.389 . S
C5 H27 0.931 . S
C6 C3 1.481 . S
C6 C7 1.387 . S
C6 C11 1.390 . S
C7 C6 1.387 . S
C7 C8 1.401 . S
C7 H28 0.930 . S
C8 C7 1.401 . S
C8 C9 1.376 . S
C8 C17 1.511 . S
C9 C8 1.376 . S
C9 C10 1.392 . S
C9 H30 0.931 . S
C10 C9 1.392 . S
C10 C11 1.361 . S
C10 C12 1.500 . S
C11 C6 1.390 . S
C11 C10 1.361 . S
C11 H29 0.931 . S
C12 C10 1.500 . S
C12 C13 1.371 . S
C12 C14 1.365 . S
C13 C12 1.371 . S
C13 C23 1.386 . S
C13 H31 0.931 . S
C14 C12 1.365 . S
C14 C15 1.409 . S
C14 H32 0.929 . S
C15 C14 1.409 . S
C15 C16 1.380 . S
C15 H33 0.930 . S
C16 C15 1.380 . S
C16 C23 1.357 . S
C17 C8 1.511 . S
C17 C18 1.341 . S
C17 C19 1.371 . S
C18 C17 1.341 . S
C18 C22 1.394 . S
C18 H34 0.930 . S
C19 C17 1.371 . S
C19 C20 1.392 . S
C19 H35 0.931 . S
C20 C19 1.392 . S
C20 C21 1.331 . S
C20 H38 0.932 . S
C21 C20 1.331 . S
C21 C22 1.336 . S
C22 C18 1.394 . S
C22 C21 1.336 . S
C22 H37 0.929 . S
C23 C13 1.386 . S
C23 C16 1.357 . S
C23 H36 0.928 . S
H24 C0 0.931 1_556 S
H25 C2 0.930 . S
H26 C4 0.929 . S
H27 C5 0.931 . S
H28 C7 0.930 . S
H29 C11 0.931 . S
H30 C9 0.931 . S
H31 C13 0.931 . S
H32 C14 0.929 . S
H33 C15 0.930 . S
H34 C18 0.930 . S
H35 C19 0.931 . S
H36 C23 0.928 . S
H37 C22 0.929 . S
H38 C20 0.932 . S
C39 C40 1.386 . S
C39 C41 1.397 . S
C39 H63 0.931 1_554 S
C40 C39 1.386 . S
C40 C44 1.397 . S
C41 C39 1.397 . S
C41 C42 1.384 . S
C41 H64 0.930 . S
C42 C41 1.384 . S
C42 C43 1.377 . S
C42 C45 1.481 . S
C43 C42 1.377 . S
C43 C44 1.389 . S
C43 H65 0.929 . S
C44 C40 1.397 . S
C44 C43 1.389 . S
C44 H66 0.931 . S
C45 C42 1.481 . S
C45 C46 1.387 . S
C45 C50 1.390 . S
C46 C45 1.387 . S
C46 C47 1.401 . S
C46 H67 0.930 . S
C47 C46 1.401 . S
C47 C48 1.376 . S
C47 C56 1.511 . S
C48 C47 1.376 . S
C48 C49 1.392 . S
C48 H69 0.931 . S
C49 C48 1.392 . S
C49 C50 1.361 . S
C49 C51 1.500 . S
C50 C45 1.390 . S
C50 C49 1.361 . S
C50 H68 0.931 . S
C51 C49 1.500 . S
C51 C52 1.371 . S
C51 C53 1.365 . S
C52 C51 1.371 . S
C52 C62 1.386 . S
C52 H70 0.931 . S
C53 C51 1.365 . S
C53 C54 1.409 . S
C53 H71 0.929 . S
C54 C53 1.409 . S
C54 C55 1.380 . S
C54 H72 0.930 . S
C55 C54 1.380 . S
C55 C62 1.357 . S
C56 C47 1.511 . S
C56 C57 1.341 . S
C56 C58 1.371 . S
C57 C56 1.341 . S
C57 C61 1.394 . S
C57 H73 0.930 . S
C58 C56 1.371 . S
C58 C59 1.392 . S
C58 H74 0.931 . S
C59 C58 1.392 . S
C59 C60 1.331 . S
C59 H77 0.932 . S
C60 C59 1.331 . S
C60 C61 1.336 . S
C61 C57 1.394 . S
C61 C60 1.336 . S
C61 H76 0.929 . S
C62 C52 1.386 . S
C62 C55 1.357 . S
C62 H75 0.928 . S
H63 C39 0.931 1_556 S
H64 C41 0.930 . S
H65 C43 0.929 . S
H66 C44 0.931 . S
H67 C46 0.930 . S
H68 C50 0.931 . S
H69 C48 0.931 . S
H70 C52 0.931 . S
H71 C53 0.929 . S
H72 C54 0.930 . S
H73 C57 0.930 . S
H74 C58 0.931 . S
H75 C62 0.928 . S
H76 C61 0.929 . S
H77 C59 0.932 . S
C78 C79 1.386 . S
C78 C80 1.397 . S
C78 H102 0.931 1_554 S
C79 C78 1.386 . S
C79 C83 1.397 . S
C80 C78 1.397 . S
C80 C81 1.384 . S
C80 H103 0.930 . S
C81 C80 1.384 . S
C81 C82 1.377 . S
C81 C84 1.481 . S
C82 C81 1.377 . S
C82 C83 1.389 . S
C82 H104 0.929 . S
C83 C79 1.397 . S
C83 C82 1.389 . S
C83 H105 0.931 . S
C84 C81 1.481 . S
C84 C85 1.387 . S
C84 C89 1.390 . S
C85 C84 1.387 . S
C85 C86 1.401 . S
C85 H106 0.930 . S
C86 C85 1.401 . S
C86 C87 1.376 . S
C86 C95 1.511 . S
C87 C86 1.376 . S
C87 C88 1.392 . S
C87 H108 0.931 . S
C88 C87 1.392 . S
C88 C89 1.361 . S
C88 C90 1.500 . S
C89 C84 1.390 . S
C89 C88 1.361 . S
C89 H107 0.931 . S
C90 C88 1.500 . S
C90 C91 1.371 . S
C90 C92 1.365 . S
C91 C90 1.371 . S
C91 C101 1.386 . S
C91 H109 0.931 . S
C92 C90 1.365 . S
C92 C93 1.409 . S
C92 H110 0.929 . S
C93 C92 1.409 . S
C93 C94 1.380 . S
C93 H111 0.930 . S
C94 C93 1.380 . S
C94 C101 1.357 . S
C95 C86 1.511 . S
C95 C96 1.341 . S
C95 C97 1.371 . S
C96 C95 1.341 . S
C96 C100 1.394 . S
C96 H112 0.930 . S
C97 C95 1.371 . S
C97 C98 1.392 . S
C97 H113 0.931 . S
C98 C97 1.392 . S
C98 C99 1.331 . S
C98 H116 0.932 . S
C99 C98 1.331 . S
C99 C100 1.336 . S
C100 C96 1.394 . S
C100 C99 1.336 . S
C100 H115 0.929 . S
C101 C91 1.386 . S
C101 C94 1.357 . S
C101 H114 0.928 . S
H102 C78 0.931 1_556 S
H103 C80 0.930 . S
H104 C82 0.929 . S
H105 C83 0.931 . S
H106 C85 0.930 . S
H107 C89 0.931 . S
H108 C87 0.931 . S
H109 C91 0.931 . S
H110 C92 0.929 . S
H111 C93 0.930 . S
H112 C96 0.930 . S
H113 C97 0.931 . S
H114 C101 0.928 . S
H115 C100 0.929 . S
H116 C98 0.932 . S
C117 C118 1.386 . S
C117 C119 1.397 . S
C117 H141 0.931 . S
C118 C117 1.386 . S
C118 C122 1.397 . S
C119 C117 1.397 . S
C119 C120 1.384 . S
C119 H142 0.930 . S
C120 C119 1.384 . S
C120 C121 1.377 . S
C120 C123 1.481 . S
C121 C120 1.377 . S
C121 C122 1.389 . S
C121 H143 0.929 . S
C122 C118 1.397 . S
C122 C121 1.389 . S
C122 H144 0.931 . S
C123 C120 1.481 . S
C123 C124 1.387 . S
C123 C128 1.390 . S
C124 C123 1.387 . S
C124 C125 1.401 . S
C124 H145 0.930 . S
C125 C124 1.401 . S
C125 C126 1.376 . S
C125 C134 1.511 . S
C126 C125 1.376 . S
C126 C127 1.392 . S
C126 H147 0.931 . S
C127 C126 1.392 . S
C127 C128 1.361 . S
C127 C129 1.500 . S
C128 C123 1.390 . S
C128 C127 1.361 . S
C128 H146 0.931 . S
C129 C127 1.500 . S
C129 C130 1.371 . S
C129 C131 1.365 . S
C130 C129 1.371 . S
C130 C140 1.386 . S
C130 H148 0.931 . S
C131 C129 1.365 . S
C131 C132 1.409 . S
C131 H149 0.929 . S
C132 C131 1.409 . S
C132 C133 1.380 . S
C132 H150 0.930 . S
C133 C132 1.380 . S
C133 C140 1.357 . S
C134 C125 1.511 . S
C134 C135 1.341 . S
C134 C136 1.371 . S
C135 C134 1.341 . S
C135 C139 1.394 . S
C135 H151 0.930 . S
C136 C134 1.371 . S
C136 C137 1.392 . S
C136 H152 0.931 . S
C137 C136 1.392 . S
C137 C138 1.331 . S
C137 H155 0.932 . S
C138 C137 1.331 . S
C138 C139 1.336 . S
C139 C135 1.394 . S
C139 C138 1.336 . S
C139 H154 0.929 . S
C140 C130 1.386 . S
C140 C133 1.357 . S
C140 H153 0.928 1_554 S
H141 C117 0.931 . S
H142 C119 0.930 . S
H143 C121 0.929 . S
H144 C122 0.931 . S
H145 C124 0.930 . S
H146 C128 0.931 . S
H147 C126 0.931 . S
H148 C130 0.931 . S
H149 C131 0.929 . S
H150 C132 0.930 . S
H151 C135 0.930 . S
H152 C136 0.931 . S
H153 C140 0.928 1_556 S
H154 C139 0.929 . S
H155 C137 0.932 . S
C156 C157 1.386 . S
C156 C158 1.397 . S
C156 H180 0.931 . S
C157 C156 1.386 . S
C157 C161 1.397 . S
C158 C156 1.397 . S
C158 C159 1.384 . S
C158 H181 0.930 . S
C159 C158 1.384 . S
C159 C160 1.377 . S
C159 C162 1.481 . S
C160 C159 1.377 . S
C160 C161 1.389 . S
C160 H182 0.929 . S
C161 C157 1.397 . S
C161 C160 1.389 . S
C161 H183 0.931 . S
C162 C159 1.481 . S
C162 C163 1.387 . S
C162 C167 1.390 . S
C163 C162 1.387 . S
C163 C164 1.401 . S
C163 H184 0.930 . S
C164 C163 1.401 . S
C164 C165 1.376 1_554 S
C164 C173 1.511 . S
C165 C164 1.376 1_556 S
C165 C166 1.392 . S
C165 H186 0.931 . S
C166 C165 1.392 . S
C166 C167 1.361 1_556 S
C166 C168 1.500 . S
C167 C162 1.390 . S
C167 C166 1.361 1_554 S
C167 H185 0.931 . S
C168 C166 1.500 . S
C168 C169 1.371 . S
C168 C170 1.365 . S
C169 C168 1.371 . S
C169 C179 1.386 . S
C169 H187 0.931 . S
C170 C168 1.365 . S
C170 C171 1.409 . S
C170 H188 0.929 . S
C171 C170 1.409 . S
C171 C172 1.380 . S
C171 H189 0.930 . S
C172 C171 1.380 . S
C172 C179 1.357 . S
C173 C164 1.511 . S
C173 C174 1.341 . S
C173 C175 1.371 . S
C174 C173 1.341 . S
C174 C178 1.394 . S
C174 H190 0.930 . S
C175 C173 1.371 . S
C175 C176 1.392 . S
C175 H191 0.931 1_554 S
C176 C175 1.392 . S
C176 C177 1.331 . S
C176 H194 0.932 . S
C177 C176 1.331 . S
C177 C178 1.336 . S
C178 C174 1.394 . S
C178 C177 1.336 . S
C178 H193 0.929 . S
C179 C169 1.386 . S
C179 C172 1.357 . S
C179 H192 0.928 . S
H180 C156 0.931 . S
H181 C158 0.930 . S
H182 C160 0.929 . S
H183 C161 0.931 . S
H184 C163 0.930 . S
H185 C167 0.931 . S
H186 C165 0.931 . S
H187 C169 0.931 . S
H188 C170 0.929 . S
H189 C171 0.930 . S
H190 C174 0.930 . S
H191 C175 0.931 1_556 S
H192 C179 0.928 . S
H193 C178 0.929 . S
H194 C176 0.932 . S
C195 C196 1.386 . S
C195 C197 1.397 . S
C195 H219 0.931 . S
C196 C195 1.386 . S
C196 C200 1.397 . S
C197 C195 1.397 . S
C197 C198 1.384 . S
C197 H220 0.930 . S
C198 C197 1.384 . S
C198 C199 1.377 . S
C198 C201 1.481 . S
C199 C198 1.377 . S
C199 C200 1.389 . S
C199 H221 0.929 . S
C200 C196 1.397 . S
C200 C199 1.389 . S
C200 H222 0.931 . S
C201 C198 1.481 . S
C201 C202 1.387 . S
C201 C206 1.390 . S
C202 C201 1.387 . S
C202 C203 1.401 . S
C202 H223 0.930 . S
C203 C202 1.401 . S
C203 C204 1.376 1_554 S
C203 C212 1.511 . S
C204 C203 1.376 1_556 S
C204 C205 1.392 . S
C204 H225 0.931 . S
C205 C204 1.392 . S
C205 C206 1.361 1_556 S
C205 C207 1.500 . S
C206 C201 1.390 . S
C206 C205 1.361 1_554 S
C206 H224 0.931 . S
C207 C205 1.500 . S
C207 C208 1.371 . S
C207 C209 1.365 . S
C208 C207 1.371 . S
C208 C218 1.386 . S
C208 H226 0.931 . S
C209 C207 1.365 . S
C209 C210 1.409 . S
C209 H227 0.929 . S
C210 C209 1.409 . S
C210 C211 1.380 . S
C210 H228 0.930 . S
C211 C210 1.380 . S
C211 C218 1.357 . S
C212 C203 1.511 . S
C212 C213 1.341 . S
C212 C214 1.371 . S
C213 C212 1.341 . S
C213 C217 1.394 . S
C213 H229 0.930 . S
C214 C212 1.371 . S
C214 C215 1.392 . S
C214 H230 0.931 1_554 S
C215 C214 1.392 . S
C215 C216 1.331 . S
C215 H233 0.932 . S
C216 C215 1.331 . S
C216 C217 1.336 . S
C217 C213 1.394 . S
C217 C216 1.336 . S
C217 H232 0.929 . S
C218 C208 1.386 . S
C218 C211 1.357 . S
C218 H231 0.928 . S
H219 C195 0.931 . S
H220 C197 0.930 . S
H221 C199 0.929 . S
H222 C200 0.931 . S
H223 C202 0.930 . S
H224 C206 0.931 . S
H225 C204 0.931 . S
H226 C208 0.931 . S
H227 C209 0.929 . S
H228 C210 0.930 . S
H229 C213 0.930 . S
H230 C214 0.931 1_556 S
H231 C218 0.928 . S
H232 C217 0.929 . S
H233 C215 0.932 . S
C234 C235 1.386 . S
C234 C236 1.397 . S
C234 H258 0.931 . S
C235 C234 1.386 . S
C235 C239 1.397 . S
C236 C234 1.397 . S
C236 C237 1.384 . S
C236 H259 0.930 . S
C237 C236 1.384 . S
C237 C238 1.377 . S
C237 C240 1.481 . S
C238 C237 1.377 . S
C238 C239 1.389 . S
C238 H260 0.929 . S
C239 C235 1.397 . S
C239 C238 1.389 . S
C239 H261 0.931 . S
C240 C237 1.481 . S
C240 C241 1.387 . S
C240 C245 1.390 . S
C241 C240 1.387 . S
C241 C242 1.401 . S
C241 H262 0.930 . S
C242 C241 1.401 . S
C242 C243 1.376 1_554 S
C242 C251 1.511 . S
C243 C242 1.376 1_556 S
C243 C244 1.392 . S
C243 H264 0.931 . S
C244 C243 1.392 . S
C244 C245 1.361 1_556 S
C244 C246 1.500 . S
C245 C240 1.390 . S
C245 C244 1.361 1_554 S
C245 H263 0.931 . S
C246 C244 1.500 . S
C246 C247 1.371 . S
C246 C248 1.365 . S
C247 C246 1.371 . S
C247 C257 1.386 . S
C247 H265 0.931 . S
C248 C246 1.365 . S
C248 C249 1.409 . S
C248 H266 0.929 . S
C249 C248 1.409 . S
C249 C250 1.380 . S
C249 H267 0.930 . S
C250 C249 1.380 . S
C250 C257 1.357 . S
C251 C242 1.511 . S
C251 C252 1.341 . S
C251 C253 1.371 . S
C252 C251 1.341 . S
C252 C256 1.394 . S
C252 H268 0.930 . S
C253 C251 1.371 . S
C253 C254 1.392 . S
C253 H269 0.931 1_554 S
C254 C253 1.392 . S
C254 C255 1.331 . S
C254 H272 0.932 . S
C255 C254 1.331 . S
C255 C256 1.336 . S
C256 C252 1.394 . S
C256 C255 1.336 . S
C256 H271 0.929 . S
C257 C247 1.386 . S
C257 C250 1.357 . S
C257 H270 0.928 . S
H258 C234 0.931 . S
H259 C236 0.930 . S
H260 C238 0.929 . S
H261 C239 0.931 . S
H262 C241 0.930 . S
H263 C245 0.931 . S
H264 C243 0.931 . S
H265 C247 0.931 . S
H266 C248 0.929 . S
H267 C249 0.930 . S
H268 C252 0.930 . S
H269 C253 0.931 1_556 S
H270 C257 0.928 . S
H271 C256 0.929 . S
H272 C254 0.932 . S
C273 C274 1.386 . S
C273 C275 1.397 . S
C273 H297 0.931 . S
C274 C273 1.386 . S
C274 C278 1.397 . S
C275 C273 1.397 . S
C275 C276 1.384 . S
C275 H298 0.930 . S
C276 C275 1.384 . S
C276 C277 1.377 . S
C276 C279 1.481 . S
C277 C276 1.377 . S
C277 C278 1.389 . S
C277 H299 0.929 . S
C278 C274 1.397 . S
C278 C277 1.389 . S
C278 H300 0.931 . S
C279 C276 1.481 . S
C279 C280 1.387 . S
C279 C284 1.390 1_556 S
C280 C279 1.387 . S
C280 C281 1.401 1_556 S
C280 H301 0.930 . S
C281 C280 1.401 1_554 S
C281 C282 1.376 . S
C281 C290 1.511 . S
C282 C281 1.376 . S
C282 C283 1.392 . S
C282 H303 0.931 . S
C283 C282 1.392 . S
C283 C284 1.361 . S
C283 C285 1.500 . S
C284 C279 1.390 1_554 S
C284 C283 1.361 . S
C284 H302 0.931 . S
C285 C283 1.500 . S
C285 C286 1.371 . S
C285 C287 1.365 . S
C286 C285 1.371 . S
C286 C296 1.386 . S
C286 H304 0.931 . S
C287 C285 1.365 . S
C287 C288 1.409 . S
C287 H305 0.929 . S
C288 C287 1.409 . S
C288 C289 1.380 . S
C288 H306 0.930 . S
C289 C288 1.380 . S
C289 C296 1.357 . S
C290 C281 1.511 . S
C290 C291 1.341 . S
C290 C292 1.371 . S
C291 C290 1.341 . S
C291 C295 1.394 . S
C291 H307 0.930 1_554 S
C292 C290 1.371 . S
C292 C293 1.392 . S
C292 H308 0.931 . S
C293 C292 1.392 . S
C293 C294 1.331 . S
C293 H311 0.932 . S
C294 C293 1.331 . S
C294 C295 1.336 . S
C295 C291 1.394 . S
C295 C294 1.336 . S
C295 H310 0.929 . S
C296 C286 1.386 . S
C296 C289 1.357 . S
C296 H309 0.928 . S
H297 C273 0.931 . S
H298 C275 0.930 . S
H299 C277 0.929 . S
H300 C278 0.931 . S
H301 C280 0.930 . S
H302 C284 0.931 . S
H303 C282 0.931 . S
H304 C286 0.931 . S
H305 C287 0.929 . S
H306 C288 0.930 . S
H307 C291 0.930 1_556 S
H308 C292 0.931 . S
H309 C296 0.928 . S
H310 C295 0.929 . S
H311 C293 0.932 . S
Eu312 N341 2.600 . S
Eu312 N347 2.562 . S
Eu312 O356 2.456 1_655 S
Eu312 O357 2.373 1_545 S
Eu312 O359 2.432 . S
Eu312 O360 2.291 1_655 S
Eu312 O364 2.335 1_655 S
Eu312 O367 2.372 . S
Eu312 C376 2.787 . S
C313 N314 1.342 1_545 S
C313 C316 1.405 . S
C313 C320 1.448 . S
N314 C313 1.342 1_565 S
N314 C317 1.327 . S
N314 Eu323 2.613 . S
C315 C317 1.397 1_545 S
C315 C318 1.367 . S
C315 H335 0.931 . S
C316 C313 1.405 . S
C316 C318 1.403 . S
C316 C322 1.439 . S
C317 N314 1.327 . S
C317 C315 1.397 1_565 S
C317 H328 0.930 . S
C318 C315 1.367 . S
C318 C316 1.403 . S
C318 H339 0.929 . S
C319 C320 1.430 . S
C319 C321 1.387 . S
C319 C325 1.404 . S
C320 C313 1.448 . S
C320 C319 1.430 . S
C320 N324 1.351 . S
C321 C319 1.387 . S
C321 C322 1.374 . S
C321 H336 0.931 . S
C322 C316 1.439 . S
C322 C321 1.374 . S
C322 H337 0.931 . S
Eu323 N314 2.613 . S
Eu323 N324 2.562 1_565 S
Eu323 O358 2.335 . S
Eu323 O361 2.372 . S
Eu323 O362 2.462 . S
Eu323 O363 2.373 1_565 S
Eu323 O365 2.432 . S
Eu323 O366 2.274 1_465 S
Eu323 C387 2.787 . S
N324 C320 1.351 . S
N324 Eu323 2.562 1_545 S
N324 C326 1.325 . S
C325 C319 1.404 . S
C325 C327 1.366 . S
C325 H333 0.930 . S
C326 N324 1.325 . S
C326 C327 1.416 . S
C326 H332 0.929 1_445 S
C327 C325 1.366 . S
C327 C326 1.416 . S
C327 H329 0.930 1_455 S
H328 C317 0.930 . S
H329 C327 0.930 1_655 S
H330 C345 0.930 . S
H331 C352 0.902 1_455 S
H332 C326 0.929 1_665 S
H333 C325 0.930 . S
H334 C348 0.927 1_455 S
H335 C315 0.931 . S
H336 C321 0.931 . S
H337 C322 0.931 . S
H338 C343 0.931 . S
H339 C318 0.929 . S
H340 C351 0.930 . S
N341 Eu312 2.600 . S
N341 C342 1.365 . S
N341 C345 1.319 . S
C342 N341 1.365 . S
C342 C344 1.387 1_545 S
C342 C350 1.448 . S
C343 H338 0.931 . S
C343 C345 1.397 . S
C343 C346 1.367 . S
C344 C342 1.387 1_565 S
C344 C346 1.397 1_565 S
C344 C377 1.465 . S
C345 H330 0.930 . S
C345 N341 1.319 . S
C345 C343 1.397 . S
C346 C343 1.367 . S
C346 C344 1.397 1_545 S
C346 H353 0.929 1_545 S
N347 Eu312 2.562 . S
N347 C348 1.327 . S
N347 C350 1.351 . S
C348 H334 0.927 1_655 S
C348 N347 1.327 . S
C348 C352 1.408 1_545 S
C349 C350 1.430 1_565 S
C349 C351 1.404 . S
C349 C378 1.387 . S
C350 C342 1.448 . S
C350 N347 1.351 . S
C350 C349 1.430 1_545 S
C351 H340 0.930 . S
C351 C349 1.404 . S
C351 C352 1.402 . S
C352 H331 0.902 1_655 S
C352 C348 1.408 1_565 S
C352 C351 1.402 . S
H353 C346 0.929 1_565 S
H354 C377 0.931 . S
H355 C378 0.931 . S
O356 Eu312 2.456 1_455 S
O356 C376 1.238 1_455 S
O357 Eu312 2.373 1_565 S
O357 C368 1.249 . S
O358 Eu323 2.335 . S
O358 C368 1.264 1_455 S
O359 Eu312 2.432 . S
O359 C376 1.268 . S
O360 Eu312 2.291 1_455 S
O360 C375 1.255 . S
O361 Eu323 2.372 . S
O361 C375 1.257 1_565 S
O362 Eu323 2.462 . S
O362 C387 1.252 . S
O363 Eu323 2.373 1_545 S
O363 C379 1.249 . S
O364 Eu312 2.335 1_455 S
O364 C379 1.264 . S
O365 Eu323 2.432 . S
O365 C387 1.268 . S
O366 Eu323 2.274 1_645 S
O366 C386 1.271 . S
O367 Eu312 2.372 . S
O367 C386 1.257 . S
C368 O357 1.249 . S
C368 O358 1.264 1_655 S
C369 C372 1.382 . S
C369 C374 1.426 . S
C369 C376 1.506 . S
C370 C371 1.398 . S
C370 C374 1.398 . S
C371 C370 1.398 . S
C371 C373 1.372 . S
C371 H388 0.931 . S
C372 C369 1.382 . S
C372 C373 1.390 . S
C372 H389 0.931 . S
C373 C371 1.372 . S
C373 C372 1.390 . S
C373 H390 0.929 . S
C374 C369 1.426 . S
C374 C370 1.398 . S
C374 H391 0.889 1_655 S
C375 O360 1.255 . S
C375 O361 1.257 1_545 S
C376 Eu312 2.787 . S
C376 O356 1.238 1_655 S
C376 O359 1.268 . S
C376 C369 1.506 . S
C377 C344 1.465 . S
C377 H354 0.931 . S
C377 C378 1.374 . S
C378 C349 1.387 . S
C378 H355 0.931 . S
C378 C377 1.374 . S
C379 O363 1.249 . S
C379 O364 1.264 . S
C380 C383 1.382 . S
C380 C384 1.390 . S
C380 C387 1.506 . S
C381 C382 1.398 . S
C381 C384 1.392 . S
C382 C381 1.398 . S
C382 C385 1.372 . S
C382 H392 0.931 . S
C383 C380 1.382 . S
C383 C385 1.390 . S
C383 H393 0.931 . S
C384 C380 1.390 . S
C384 C381 1.392 . S
C384 H394 0.911 1_455 S
C385 C382 1.372 . S
C385 C383 1.390 . S
C385 H395 0.929 . S
C386 O366 1.271 . S
C386 O367 1.257 . S
C387 Eu323 2.787 . S
C387 O362 1.252 . S
C387 O365 1.268 . S
C387 C380 1.506 . S
H388 C371 0.931 . S
H389 C372 0.931 . S
H390 C373 0.929 . S
H391 C374 0.889 1_455 S
H392 C382 0.931 . S
H393 C383 0.931 . S
H394 C384 0.911 1_655 S
H395 C385 0.929 . S
Eu396 N425 2.600 . S
Eu396 N431 2.562 . S
Eu396 O440 2.462 . S
Eu396 O441 2.373 . S
Eu396 O443 2.432 . S
Eu396 O444 2.291 . S
Eu396 O448 2.335 1_545 S
Eu396 O451 2.372 . S
Eu396 C460 2.787 . S
C397 N398 1.365 . S
C397 C400 1.405 . S
C397 C404 1.448 . S
N398 C397 1.365 . S
N398 C401 1.319 . S
N398 Eu407 2.600 . S
C399 C401 1.397 . S
C399 C402 1.367 . S
C399 H419 0.931 . S
C400 C397 1.405 . S
C400 C402 1.403 . S
C400 C406 1.439 . S
C401 N398 1.319 . S
C401 C399 1.397 . S
C401 H412 0.930 . S
C402 C399 1.367 . S
C402 C400 1.403 . S
C402 H423 0.929 . S
C403 C404 1.430 . S
C403 C405 1.387 . S
C403 C409 1.404 . S
C404 C397 1.448 . S
C404 C403 1.430 . S
C404 N408 1.351 . S
C405 C403 1.387 . S
C405 C406 1.374 . S
C405 H420 0.931 . S
C406 C400 1.439 . S
C406 C405 1.374 . S
C406 H421 0.931 . S
Eu407 N398 2.600 . S
Eu407 N408 2.562 . S
Eu407 O442 2.335 1_565 S
Eu407 O445 2.372 . S
Eu407 O446 2.462 . S
Eu407 O447 2.373 . S
Eu407 O449 2.432 . S
Eu407 O450 2.291 1_565 S
Eu407 C471 2.787 . S
N408 C404 1.351 . S
N408 Eu407 2.562 . S
N408 C410 1.325 . S
C409 C403 1.404 . S
C409 C411 1.366 . S
C409 H417 0.930 . S
C410 N408 1.325 . S
C410 C411 1.416 . S
C410 H416 0.929 . S
C411 C409 1.366 . S
C411 C410 1.416 . S
C411 H413 0.930 . S
H412 C401 0.930 . S
H413 C411 0.930 . S
H414 C429 0.930 . S
H415 C436 0.930 . S
H416 C410 0.929 . S
H417 C409 0.930 . S
H418 C432 0.929 . S
H419 C399 0.931 . S
H420 C405 0.931 . S
H421 C406 0.931 . S
H422 C427 0.931 . S
H423 C402 0.929 . S
H424 C435 0.930 . S
N425 Eu396 2.600 . S
N425 C426 1.365 . S
N425 C429 1.319 . S
C426 N425 1.365 . S
C426 C428 1.405 . S
C426 C434 1.448 . S
C427 H422 0.931 . S
C427 C429 1.397 . S
C427 C430 1.367 . S
C428 C426 1.405 . S
C428 C430 1.403 . S
C428 C461 1.439 . S
C429 H414 0.930 . S
C429 N425 1.319 . S
C429 C427 1.397 . S
C430 C427 1.367 . S
C430 C428 1.403 . S
C430 H437 0.929 . S
N431 Eu396 2.562 . S
N431 C432 1.325 . S
N431 C434 1.351 . S
C432 H418 0.929 . S
C432 N431 1.325 . S
C432 C436 1.416 . S
C433 C434 1.430 . S
C433 C435 1.404 . S
C433 C462 1.387 . S
C434 C426 1.448 . S
C434 N431 1.351 . S
C434 C433 1.430 . S
C435 H424 0.930 . S
C435 C433 1.404 . S
C435 C436 1.366 . S
C436 H415 0.930 . S
C436 C432 1.416 . S
C436 C435 1.366 . S
H437 C430 0.929 . S
H438 C461 0.931 . S
H439 C462 0.931 . S
O440 Eu396 2.462 . S
O440 C460 1.252 . S
O441 Eu396 2.373 . S
O441 C452 1.249 . S
O442 Eu407 2.335 1_545 S
O442 C452 1.264 . S
O443 Eu396 2.432 . S
O443 C460 1.268 . S
O444 Eu396 2.291 . S
O444 C459 1.255 1_545 S
O445 Eu407 2.372 . S
O445 C459 1.257 . S
O446 Eu407 2.462 . S
O446 C471 1.252 . S
O447 Eu407 2.373 . S
O447 C463 1.249 . S
O448 Eu396 2.335 1_565 S
O448 C463 1.264 . S
O449 Eu407 2.432 . S
O449 C471 1.268 . S
O450 Eu407 2.291 1_545 S
O450 C470 1.255 . S
O451 Eu396 2.372 . S
O451 C470 1.257 . S
C452 O441 1.249 . S
C452 O442 1.264 . S
C453 C456 1.382 . S
C453 C458 1.390 . S
C453 C460 1.506 . S
C454 C455 1.398 . S
C454 C458 1.392 . S
C455 C454 1.398 . S
C455 C457 1.372 . S
C455 H472 0.931 . S
C456 C453 1.382 . S
C456 C457 1.390 . S
C456 H473 0.931 . S
C457 C455 1.372 . S
C457 C456 1.390 . S
C457 H474 0.929 . S
C458 C453 1.390 . S
C458 C454 1.392 . S
C458 H475 0.930 . S
C459 O444 1.255 1_565 S
C459 O445 1.257 . S
C460 Eu396 2.787 . S
C460 O440 1.252 . S
C460 O443 1.268 . S
C460 C453 1.506 . S
C461 C428 1.439 . S
C461 H438 0.931 . S
C461 C462 1.374 . S
C462 C433 1.387 . S
C462 H439 0.931 . S
C462 C461 1.374 . S
C463 O447 1.249 . S
C463 O448 1.264 . S
C464 C467 1.382 . S
C464 C468 1.390 1_565 S
C464 C471 1.506 . S
C465 C466 1.398 1_545 S
C465 C468 1.392 . S
C466 C465 1.398 1_565 S
C466 C469 1.372 . S
C466 H476 0.931 . S
C467 C464 1.382 . S
C467 C469 1.390 . S
C467 H477 0.931 . S
C468 C464 1.390 1_545 S
C468 C465 1.392 . S
C468 H478 0.930 . S
C469 C466 1.372 . S
C469 C467 1.390 . S
C469 H479 0.929 . S
C470 O450 1.255 . S
C470 O451 1.257 . S
C471 Eu407 2.787 . S
C471 O446 1.252 . S
C471 O449 1.268 . S
C471 C464 1.506 . S
H472 C455 0.931 . S
H473 C456 0.931 . S
H474 C457 0.929 . S
H475 C458 0.930 . S
H476 C466 0.931 . S
H477 C467 0.931 . S
H478 C468 0.930 . S
H479 C469 0.929 . S
Eu480 N509 2.600 . S
Eu480 N515 2.562 . S
Eu480 O524 2.462 . S
Eu480 O525 2.373 . S
Eu480 O527 2.432 . S
Eu480 O528 2.291 . S
Eu480 O532 2.335 . S
Eu480 O535 2.372 . S
Eu480 C544 2.787 . S
C481 N482 1.365 . S
C481 C484 1.405 . S
C481 C488 1.448 . S
N482 C481 1.365 . S
N482 C485 1.319 . S
N482 Eu491 2.600 . S
C483 C485 1.397 . S
C483 C486 1.367 . S
C483 H503 0.931 . S
C484 C481 1.405 . S
C484 C486 1.403 . S
C484 C490 1.439 . S
C485 N482 1.319 . S
C485 C483 1.397 . S
C485 H496 0.930 . S
C486 C483 1.367 . S
C486 C484 1.403 . S
C486 H507 0.929 . S
C487 C488 1.430 . S
C487 C489 1.387 . S
C487 C493 1.404 . S
C488 C481 1.448 . S
C488 C487 1.430 . S
C488 N492 1.351 . S
C489 C487 1.387 . S
C489 C490 1.374 . S
C489 H504 0.931 . S
C490 C484 1.439 . S
C490 C489 1.374 . S
C490 H505 0.931 . S
Eu491 N482 2.600 . S
Eu491 N492 2.562 . S
Eu491 O526 2.335 . S
Eu491 O529 2.372 . S
Eu491 O530 2.462 . S
Eu491 O531 2.373 . S
Eu491 O533 2.432 . S
Eu491 O534 2.291 . S
Eu491 C555 2.787 . S
N492 C488 1.351 . S
N492 Eu491 2.562 . S
N492 C494 1.325 . S
C493 C487 1.404 . S
C493 C495 1.366 . S
C493 H501 0.930 . S
C494 N492 1.325 . S
C494 C495 1.416 . S
C494 H500 0.929 . S
C495 C493 1.366 . S
C495 C494 1.416 . S
C495 H497 0.930 . S
H496 C485 0.930 . S
H497 C495 0.930 . S
H498 C513 0.930 . S
H499 C520 0.930 . S
H500 C494 0.929 . S
H501 C493 0.930 . S
H502 C516 0.929 . S
H503 C483 0.931 . S
H504 C489 0.931 . S
H505 C490 0.931 . S
H506 C511 0.931 . S
H507 C486 0.929 . S
H508 C519 0.930 . S
N509 Eu480 2.600 . S
N509 C510 1.365 . S
N509 C513 1.319 . S
C510 N509 1.365 . S
C510 C512 1.405 . S
C510 C518 1.448 . S
C511 H506 0.931 . S
C511 C513 1.397 . S
C511 C514 1.367 . S
C512 C510 1.405 . S
C512 C514 1.403 . S
C512 C545 1.439 . S
C513 H498 0.930 . S
C513 N509 1.319 . S
C513 C511 1.397 . S
C514 C511 1.367 . S
C514 C512 1.403 . S
C514 H521 0.929 . S
N515 Eu480 2.562 . S
N515 C516 1.325 . S
N515 C518 1.351 . S
C516 H502 0.929 . S
C516 N515 1.325 . S
C516 C520 1.416 . S
C517 C518 1.430 . S
C517 C519 1.404 . S
C517 C546 1.387 . S
C518 C510 1.448 . S
C518 N515 1.351 . S
C518 C517 1.430 . S
C519 H508 0.930 . S
C519 C517 1.404 . S
C519 C520 1.366 . S
C520 H499 0.930 . S
C520 C516 1.416 . S
C520 C519 1.366 . S
H521 C514 0.929 . S
H522 C545 0.931 . S
H523 C546 0.931 . S
O524 Eu480 2.462 . S
O524 C544 1.252 . S
O525 Eu480 2.373 . S
O525 C536 1.249 . S
O526 Eu491 2.335 . S
O526 C536 1.264 . S
O527 Eu480 2.432 . S
O527 C544 1.268 . S
O528 Eu480 2.291 . S
O528 C543 1.255 . S
O529 Eu491 2.372 . S
O529 C543 1.257 . S
O530 Eu491 2.462 . S
O530 C555 1.252 . S
O531 Eu491 2.373 . S
O531 C547 1.249 . S
O532 Eu480 2.335 . S
O532 C547 1.264 . S
O533 Eu491 2.432 . S
O533 C555 1.268 . S
O534 Eu491 2.291 . S
O534 C554 1.255 . S
O535 Eu480 2.372 . S
O535 C554 1.257 . S
C536 O525 1.249 . S
C536 O526 1.264 . S
C537 C540 1.382 . S
C537 C542 1.390 . S
C537 C544 1.506 . S
C538 C539 1.398 . S
C538 C542 1.392 . S
C539 C538 1.398 . S
C539 C541 1.372 . S
C539 H556 0.931 . S
C540 C537 1.382 . S
C540 C541 1.390 . S
C540 H557 0.931 . S
C541 C539 1.372 . S
C541 C540 1.390 . S
C541 H558 0.929 . S
C542 C537 1.390 . S
C542 C538 1.392 . S
C542 H559 0.930 . S
C543 O528 1.255 . S
C543 O529 1.257 . S
C544 Eu480 2.787 . S
C544 O524 1.252 . S
C544 O527 1.268 . S
C544 C537 1.506 . S
C545 C512 1.439 . S
C545 H522 0.931 . S
C545 C546 1.374 . S
C546 C517 1.387 . S
C546 H523 0.931 . S
C546 C545 1.374 . S
C547 O531 1.249 . S
C547 O532 1.264 . S
C548 C551 1.382 . S
C548 C552 1.390 . S
C548 C555 1.506 . S
C549 C550 1.398 . S
C549 C552 1.392 . S
C550 C549 1.398 . S
C550 C553 1.372 . S
C550 H560 0.931 . S
C551 C548 1.382 . S
C551 C553 1.390 . S
C551 H561 0.931 . S
C552 C548 1.390 . S
C552 C549 1.392 . S
C552 H562 0.930 . S
C553 C550 1.372 . S
C553 C551 1.390 . S
C553 H563 0.929 . S
C554 O534 1.255 . S
C554 O535 1.257 . S
C555 Eu491 2.787 . S
C555 O530 1.252 . S
C555 O533 1.268 . S
C555 C548 1.506 . S
H556 C539 0.931 . S
H557 C540 0.931 . S
H558 C541 0.929 . S
H559 C542 0.930 . S
H560 C550 0.931 . S
H561 C551 0.931 . S
H562 C552 0.930 . S
H563 C553 0.929 . S
Eu564 N593 2.600 . S
Eu564 N599 2.562 . S
Eu564 O608 2.462 . S
Eu564 O609 2.373 1_455 S
Eu564 O611 2.432 . S
Eu564 O612 2.291 . S
Eu564 O616 2.335 . S
Eu564 O619 2.372 . S
Eu564 C628 2.787 . S
C565 N566 1.365 1_455 S
C565 C568 1.405 . S
C565 C572 1.448 . S
N566 C565 1.365 1_655 S
N566 C569 1.319 . S
N566 Eu575 2.600 . S
C567 C569 1.397 1_455 S
C567 C570 1.367 . S
C567 H587 0.930 1_455 S
C568 C565 1.405 . S
C568 C570 1.403 . S
C568 C574 1.439 . S
C569 N566 1.319 . S
C569 C567 1.397 1_655 S
C569 H580 0.930 . S
C570 C567 1.367 . S
C570 C568 1.403 . S
C570 H591 0.929 . S
C571 C572 1.430 . S
C571 C573 1.387 . S
C571 C577 1.404 . S
C572 C565 1.448 . S
C572 C571 1.430 . S
C572 N576 1.369 . S
C573 C571 1.387 . S
C573 C574 1.374 . S
C573 H588 0.931 . S
C574 C568 1.439 . S
C574 C573 1.374 . S
C574 H589 0.931 . S
Eu575 N566 2.600 . S
Eu575 N576 2.547 1_655 S
Eu575 O610 2.335 . S
Eu575 O613 2.372 . S
Eu575 O614 2.462 . S
Eu575 O615 2.373 1_655 S
Eu575 O617 2.432 . S
Eu575 O618 2.290 . S
Eu575 C639 2.787 . S
N576 C572 1.369 . S
N576 Eu575 2.547 1_455 S
N576 C578 1.331 . S
C577 C571 1.404 . S
C577 C579 1.366 . S
C577 H585 0.930 . S
C578 N576 1.331 . S
C578 C579 1.416 . S
C578 H584 0.929 1_455 S
C579 C577 1.366 . S
C579 C578 1.416 . S
C579 H581 0.930 . S
H580 C569 0.930 . S
H581 C579 0.930 . S
H582 C597 0.930 . S
H583 C604 0.930 . S
H584 C578 0.929 1_655 S
H585 C577 0.930 . S
H586 C600 0.929 . S
H587 C567 0.930 1_655 S
H588 C573 0.931 . S
H589 C574 0.931 . S
H590 C595 0.931 . S
H591 C570 0.929 . S
H592 C603 0.930 . S
N593 Eu564 2.600 . S
N593 C594 1.365 . S
N593 C597 1.319 . S
C594 N593 1.365 . S
C594 C596 1.405 1_455 S
C594 C602 1.448 . S
C595 H590 0.931 . S
C595 C597 1.397 . S
C595 C598 1.367 . S
C596 C594 1.405 1_655 S
C596 C598 1.403 1_655 S
C596 C629 1.439 . S
C597 H582 0.930 . S
C597 N593 1.319 . S
C597 C595 1.397 . S
C598 C595 1.367 . S
C598 C596 1.403 1_455 S
C598 H605 0.929 1_455 S
N599 Eu564 2.562 . S
N599 C600 1.325 . S
N599 C602 1.351 . S
C600 H586 0.929 . S
C600 N599 1.325 . S
C600 C604 1.416 1_455 S
C601 C602 1.430 1_655 S
C601 C603 1.404 . S
C601 C630 1.387 . S
C602 C594 1.448 . S
C602 N599 1.351 . S
C602 C601 1.430 1_455 S
C603 H592 0.930 . S
C603 C601 1.404 . S
C603 C604 1.366 . S
C604 H583 0.930 . S
C604 C600 1.416 1_655 S
C604 C603 1.366 . S
H605 C598 0.929 1_655 S
H606 C629 0.931 . S
H607 C630 0.931 . S
O608 Eu564 2.462 . S
O608 C628 1.252 . S
O609 Eu564 2.373 1_655 S
O609 C620 1.249 . S
O610 Eu575 2.335 . S
O610 C620 1.264 . S
O611 Eu564 2.432 . S
O611 C628 1.268 . S
O612 Eu564 2.291 . S
O612 C627 1.255 . S
O613 Eu575 2.372 . S
O613 C627 1.257 1_655 S
O614 Eu575 2.462 . S
O614 C639 1.252 . S
O615 Eu575 2.373 1_455 S
O615 C631 1.249 . S
O616 Eu564 2.335 . S
O616 C631 1.264 . S
O617 Eu575 2.432 . S
O617 C639 1.268 . S
O618 Eu575 2.290 . S
O618 C638 1.256 1_655 S
O619 Eu564 2.372 . S
O619 C638 1.257 . S
C620 O609 1.249 . S
C620 O610 1.264 . S
C621 C624 1.382 . S
C621 C626 1.390 . S
C621 C628 1.506 . S
C622 C623 1.398 . S
C622 C626 1.392 . S
C623 C622 1.398 . S
C623 C625 1.372 . S
C623 H640 0.931 . S
C624 C621 1.382 . S
C624 C625 1.390 . S
C624 H641 0.931 . S
C625 C623 1.372 . S
C625 C624 1.390 . S
C625 H642 0.929 . S
C626 C621 1.390 . S
C626 C622 1.392 . S
C626 H643 0.930 . S
C627 O612 1.255 . S
C627 O613 1.257 1_455 S
C628 Eu564 2.787 . S
C628 O608 1.252 . S
C628 O611 1.268 . S
C628 C621 1.506 . S
C629 C596 1.439 . S
C629 H606 0.931 . S
C629 C630 1.374 . S
C630 C601 1.387 . S
C630 H607 0.931 . S
C630 C629 1.374 . S
C631 O615 1.249 . S
C631 O616 1.264 . S
C632 C635 1.382 . S
C632 C636 1.390 . S
C632 C639 1.506 . S
C633 C634 1.398 . S
C633 C636 1.392 . S
C634 C633 1.398 . S
C634 C637 1.372 . S
C634 H644 0.931 . S
C635 C632 1.382 . S
C635 C637 1.390 . S
C635 H645 0.931 . S
C636 C632 1.390 . S
C636 C633 1.392 . S
C636 H646 0.930 . S
C637 C634 1.372 . S
C637 C635 1.390 . S
C637 H647 0.929 . S
C638 O618 1.256 1_455 S
C638 O619 1.257 . S
C639 Eu575 2.787 . S
C639 O614 1.252 . S
C639 O617 1.268 . S
C639 C632 1.506 . S
H640 C623 0.931 . S
H641 C624 0.931 . S
H642 C625 0.929 . S
H643 C626 0.930 . S
H644 C634 0.931 . S
H645 C635 0.931 . S
H646 C636 0.930 . S
H647 C637 0.929 . S
H648 C656 0.929 . S
H649 C658 0.930 . S
H650 C660 0.930 . S
H651 C663 0.929 . S
H652 C666 0.930 . S
H653 C668 0.960 . S
H654 C668 0.960 . S
H655 C668 0.960 . S
C656 H648 0.929 . S
C656 C657 1.377 . S
C656 C658 1.384 . S
C657 C656 1.377 . S
C657 C663 1.390 . S
C658 H649 0.930 . S
C658 C656 1.384 . S
C658 C659 1.372 . S
C659 C658 1.372 . S
C659 C660 1.400 . S
C659 C664 1.490 . S
C660 H650 0.930 . S
C660 C659 1.400 . S
C660 C663 1.386 . S
H661 C677 0.930 . S
H662 C678 0.931 . S
C663 H651 0.929 . S
C663 C657 1.390 . S
C663 C660 1.386 . S
C664 C659 1.490 . S
C664 C666 1.395 . S
C664 C667 1.403 . S
H665 C671 0.930 . S
C666 H652 0.930 . S
C666 C664 1.395 . S
C666 C669 1.403 . S
C667 C664 1.403 . S
C667 C668 1.524 . S
C667 C671 1.400 . S
C668 H653 0.960 . S
C668 H654 0.960 . S
C668 H655 0.960 . S
C668 C667 1.524 . S
C669 C666 1.403 . S
C669 C670 1.392 . S
C669 C673 1.495 . S
C670 C669 1.392 . S
C670 C671 1.385 . S
C670 C672 1.478 . S
C671 H665 0.930 . S
C671 C667 1.400 . S
C671 C670 1.385 . S
C672 C670 1.478 . S
C672 C674 1.381 . S
C672 C678 1.383 . S
C673 C669 1.495 . S
C673 H679 0.959 . S
C673 H680 0.961 . S
C673 H681 0.960 . S
C674 C672 1.381 . S
C674 C675 1.394 . S
C674 H682 0.930 1_545 S
C675 C674 1.394 . S
C675 C676 1.383 . S
C675 H683 0.929 1_545 S
C676 C675 1.383 . S
C676 C677 1.377 . S
C677 H661 0.930 . S
C677 C676 1.377 . S
C677 C678 1.379 . S
C678 H662 0.931 . S
C678 C672 1.383 . S
C678 C677 1.379 . S
H679 C673 0.959 . S
H680 C673 0.961 . S
H681 C673 0.960 . S
H682 C674 0.930 1_565 S
H683 C675 0.929 1_565 S
H684 C692 0.929 . S
H685 C694 0.930 . S
H686 C696 0.930 . S
H687 C699 0.929 . S
H688 C702 0.930 . S
H689 C704 0.960 . S
H690 C704 0.960 . S
H691 C704 0.960 . S
C692 H684 0.929 . S
C692 C693 1.377 . S
C692 C694 1.384 . S
C693 C692 1.377 . S
C693 C699 1.390 . S
C694 H685 0.930 . S
C694 C692 1.384 . S
C694 C695 1.372 . S
C695 C694 1.372 . S
C695 C696 1.400 . S
C695 C700 1.490 . S
C696 H686 0.930 . S
C696 C695 1.400 . S
C696 C699 1.386 . S
H697 C713 0.930 . S
H698 C714 0.931 . S
C699 H687 0.929 . S
C699 C693 1.390 . S
C699 C696 1.386 . S
C700 C695 1.490 . S
C700 C702 1.395 . S
C700 C703 1.403 . S
H701 C707 0.930 . S
C702 H688 0.930 . S
C702 C700 1.395 . S
C702 C705 1.403 . S
C703 C700 1.403 . S
C703 C704 1.524 . S
C703 C707 1.400 . S
C704 H689 0.960 . S
C704 H690 0.960 . S
C704 H691 0.960 . S
C704 C703 1.524 . S
C705 C702 1.403 . S
C705 C706 1.392 . S
C705 C709 1.495 . S
C706 C705 1.392 . S
C706 C707 1.385 . S
C706 C708 1.478 . S
C707 H701 0.930 . S
C707 C703 1.400 . S
C707 C706 1.385 . S
C708 C706 1.478 . S
C708 C710 1.381 . S
C708 C714 1.383 . S
C709 C705 1.495 . S
C709 H715 0.959 . S
C709 H716 0.961 . S
C709 H717 0.960 . S
C710 C708 1.381 . S
C710 C711 1.394 . S
C710 H718 0.930 . S
C711 C710 1.394 . S
C711 C712 1.383 . S
C711 H719 0.929 . S
C712 C711 1.383 . S
C712 C713 1.377 . S
C713 H697 0.930 . S
C713 C712 1.377 . S
C713 C714 1.379 . S
C714 H698 0.931 . S
C714 C708 1.383 . S
C714 C713 1.379 . S
H715 C709 0.959 . S
H716 C709 0.961 . S
H717 C709 0.960 . S
H718 C710 0.930 . S
H719 C711 0.929 . S
H720 C728 0.929 . S
H721 C730 0.930 . S
H722 C732 0.930 . S
H723 C735 0.929 . S
H724 C738 0.930 . S
H725 C740 0.960 . S
H726 C740 0.960 . S
H727 C740 0.960 . S
C728 H720 0.929 . S
C728 C729 1.377 . S
C728 C730 1.384 . S
C729 C728 1.377 . S
C729 C735 1.390 . S
C730 H721 0.930 . S
C730 C728 1.384 . S
C730 C731 1.372 . S
C731 C730 1.372 . S
C731 C732 1.400 . S
C731 C736 1.490 . S
C732 H722 0.930 . S
C732 C731 1.400 . S
C732 C735 1.386 . S
H733 C749 0.930 . S
H734 C750 0.931 . S
C735 H723 0.929 . S
C735 C729 1.390 . S
C735 C732 1.386 . S
C736 C731 1.490 . S
C736 C738 1.395 . S
C736 C739 1.403 . S
H737 C743 0.930 . S
C738 H724 0.930 . S
C738 C736 1.395 . S
C738 C741 1.403 . S
C739 C736 1.403 . S
C739 C740 1.524 . S
C739 C743 1.400 . S
C740 H725 0.960 . S
C740 H726 0.960 . S
C740 H727 0.960 . S
C740 C739 1.524 . S
C741 C738 1.403 . S
C741 C742 1.392 . S
C741 C745 1.495 . S
C742 C741 1.392 . S
C742 C743 1.385 . S
C742 C744 1.478 . S
C743 H737 0.930 . S
C743 C739 1.400 . S
C743 C742 1.385 . S
C744 C742 1.478 . S
C744 C746 1.381 . S
C744 C750 1.383 . S
C745 C741 1.495 . S
C745 H751 0.959 . S
C745 H752 0.961 . S
C745 H753 0.960 . S
C746 C744 1.381 . S
C746 C747 1.394 . S
C746 H754 0.930 . S
C747 C746 1.394 . S
C747 C748 1.383 . S
C747 H755 0.929 . S
C748 C747 1.383 . S
C748 C749 1.377 . S
C749 H733 0.930 . S
C749 C748 1.377 . S
C749 C750 1.379 . S
C750 H734 0.931 . S
C750 C744 1.383 . S
C750 C749 1.379 . S
H751 C745 0.959 . S
H752 C745 0.961 . S
H753 C745 0.960 . S
H754 C746 0.930 . S
H755 C747 0.929 . S
H756 C764 0.929 . S
H757 C766 0.930 . S
H758 C768 0.930 . S
H759 C771 0.929 . S
H760 C774 0.930 . S
H761 C776 0.960 . S
H762 C776 0.960 . S
H763 C776 0.960 . S
C764 H756 0.929 . S
C764 C765 1.377 . S
C764 C766 1.384 . S
C765 C764 1.377 . S
C765 C771 1.390 . S
C766 H757 0.930 . S
C766 C764 1.384 . S
C766 C767 1.372 . S
C767 C766 1.372 . S
C767 C768 1.400 . S
C767 C772 1.490 . S
C768 H758 0.930 . S
C768 C767 1.400 . S
C768 C771 1.386 . S
H769 C785 0.930 . S
H770 C786 0.931 . S
C771 H759 0.929 . S
C771 C765 1.390 . S
C771 C768 1.386 . S
C772 C767 1.490 . S
C772 C774 1.395 . S
C772 C775 1.403 . S
H773 C779 0.930 . S
C774 H760 0.930 . S
C774 C772 1.395 . S
C774 C777 1.403 . S
C775 C772 1.403 . S
C775 C776 1.524 . S
C775 C779 1.400 . S
C776 H761 0.960 . S
C776 H762 0.960 . S
C776 H763 0.960 . S
C776 C775 1.524 . S
C777 C774 1.403 . S
C777 C778 1.392 . S
C777 C781 1.495 1_455 S
C778 C777 1.392 . S
C778 C779 1.385 . S
C778 C780 1.478 . S
C779 H773 0.930 . S
C779 C775 1.400 . S
C779 C778 1.385 . S
C780 C778 1.478 . S
C780 C782 1.381 . S
C780 C786 1.383 . S
C781 C777 1.495 1_655 S
C781 H787 0.959 . S
C781 H788 0.961 1_655 S
C781 H789 0.960 . S
C782 C780 1.381 . S
C782 C783 1.388 1_455 S
C782 H790 0.930 1_455 S
C783 C782 1.388 1_655 S
C783 C784 1.349 1_655 S
C783 H791 0.971 . S
C784 C783 1.349 1_455 S
C784 C785 1.377 . S
C785 H769 0.930 . S
C785 C784 1.377 . S
C785 C786 1.379 . S
C786 H770 0.931 . S
C786 C780 1.383 . S
C786 C785 1.379 . S
H787 C781 0.959 . S
H788 C781 0.961 1_455 S
H789 C781 0.960 . S
H790 C782 0.930 1_655 S
H791 C783 0.971 . S
H792 C800 0.929 . S
H793 C802 0.930 . S
H794 C804 0.930 . S
H795 C807 0.929 . S
H796 C810 0.930 . S
H797 C812 0.953 1_545 S
H798 C812 0.960 1_545 S
H799 C812 0.960 . S
C800 H792 0.929 . S
C800 C801 1.377 . S
C800 C802 1.384 . S
C801 C800 1.377 . S
C801 C807 1.390 . S
C802 H793 0.930 . S
C802 C800 1.384 . S
C802 C803 1.372 1_554 S
C803 C802 1.372 1_556 S
C803 C804 1.400 . S
C803 C808 1.490 . S
C804 H794 0.930 . S
C804 C803 1.400 . S
C804 C807 1.386 1_556 S
H805 C821 0.930 . S
H806 C822 0.931 . S
C807 H795 0.929 . S
C807 C801 1.390 . S
C807 C804 1.386 1_554 S
C808 C803 1.490 . S
C808 C810 1.395 . S
C808 C811 1.403 . S
H809 C815 0.930 . S
C810 H796 0.930 . S
C810 C808 1.395 . S
C810 C813 1.403 . S
C811 C808 1.403 . S
C811 C812 1.524 . S
C811 C815 1.400 . S
C812 H797 0.953 1_565 S
C812 H798 0.960 1_565 S
C812 H799 0.960 . S
C812 C811 1.524 . S
C813 C810 1.403 . S
C813 C814 1.392 . S
C813 C817 1.495 . S
C814 C813 1.392 . S
C814 C815 1.385 . S
C814 C816 1.478 . S
C815 H809 0.930 . S
C815 C811 1.400 . S
C815 C814 1.385 . S
C816 C814 1.478 . S
C816 C818 1.351 1_565 S
C816 C822 1.383 . S
C817 C813 1.495 . S
C817 H823 0.959 . S
C817 H824 0.961 . S
C817 H825 0.960 . S
C818 C816 1.351 1_545 S
C818 C819 1.405 . S
C818 H826 0.952 . S
C819 C818 1.405 . S
C819 C820 1.383 1_545 S
C819 H827 0.929 . S
C820 C819 1.383 1_565 S
C820 C821 1.377 . S
C821 H805 0.930 . S
C821 C820 1.377 . S
C821 C822 1.379 . S
C822 H806 0.931 . S
C822 C816 1.383 . S
C822 C821 1.379 . S
H823 C817 0.959 . S
H824 C817 0.961 . S
H825 C817 0.960 . S
H826 C818 0.952 . S
H827 C819 0.929 . S
H828 C836 0.929 . S
H829 C838 0.930 . S
H830 C840 0.930 . S
H831 C843 0.929 . S
H832 C846 0.930 . S
H833 C848 0.960 . S
H834 C848 0.960 . S
H835 C848 0.960 1_554 S
C836 H828 0.929 . S
C836 C837 1.377 . S
C836 C838 1.384 1_554 S
C837 C836 1.377 . S
C837 C843 1.390 . S
C838 H829 0.930 . S
C838 C836 1.384 1_556 S
C838 C839 1.372 . S
C839 C838 1.372 . S
C839 C840 1.400 1_556 S
C839 C844 1.490 . S
C840 H830 0.930 . S
C840 C839 1.400 1_554 S
C840 C843 1.386 . S
H841 C857 0.930 . S
H842 C858 0.931 . S
C843 H831 0.929 . S
C843 C837 1.390 . S
C843 C840 1.386 . S
C844 C839 1.490 . S
C844 C846 1.395 . S
C844 C847 1.403 . S
H845 C851 0.930 . S
C846 H832 0.930 . S
C846 C844 1.395 . S
C846 C849 1.403 . S
C847 C844 1.403 . S
C847 C848 1.524 . S
C847 C851 1.400 . S
C848 H833 0.960 . S
C848 H834 0.960 . S
C848 H835 0.960 1_556 S
C848 C847 1.524 . S
C849 C846 1.403 . S
C849 C850 1.392 . S
C849 C853 1.495 . S
C850 C849 1.392 . S
C850 C851 1.385 . S
C850 C852 1.478 . S
C851 H845 0.930 . S
C851 C847 1.400 . S
C851 C850 1.385 . S
C852 C850 1.478 . S
C852 C854 1.381 . S
C852 C858 1.383 . S
C853 C849 1.495 . S
C853 H859 0.959 . S
C853 H860 0.961 . S
C853 H861 0.960 . S
C854 C852 1.381 . S
C854 C855 1.394 . S
C854 H862 0.930 . S
C855 C854 1.394 . S
C855 C856 1.383 . S
C855 H863 0.929 . S
C856 C855 1.383 . S
C856 C857 1.377 . S
C857 H841 0.930 . S
C857 C856 1.377 . S
C857 C858 1.379 . S
C858 H842 0.931 . S
C858 C852 1.383 . S
C858 C857 1.379 . S
H859 C853 0.959 . S
H860 C853 0.961 . S
H861 C853 0.960 . S
H862 C854 0.930 . S
H863 C855 0.929 . S
H864 C872 0.929 . S
H865 C874 0.930 . S
H866 C876 0.930 1_556 S
H867 C879 0.929 . S
H868 C882 0.930 . S
H869 C884 0.960 . S
H870 C884 0.960 1_554 S
H871 C884 0.960 . S
C872 H864 0.929 . S
C872 C873 1.377 . S
C872 C874 1.384 . S
C873 C872 1.377 . S
C873 C879 1.390 . S
C874 H865 0.930 . S
C874 C872 1.384 . S
C874 C875 1.372 1_554 S
C875 C874 1.372 1_556 S
C875 C876 1.400 1_556 S
C875 C880 1.490 . S
C876 H866 0.930 1_554 S
C876 C875 1.400 1_554 S
C876 C879 1.386 . S
H877 C893 0.930 . S
H878 C894 0.931 . S
C879 H867 0.929 . S
C879 C873 1.390 . S
C879 C876 1.386 . S
C880 C875 1.490 . S
C880 C882 1.395 . S
C880 C883 1.403 . S
H881 C887 0.930 . S
C882 H868 0.930 . S
C882 C880 1.395 . S
C882 C885 1.403 . S
C883 C880 1.403 . S
C883 C884 1.524 . S
C883 C887 1.400 . S
C884 H869 0.960 . S
C884 H870 0.960 1_556 S
C884 H871 0.960 . S
C884 C883 1.524 . S
C885 C882 1.403 . S
C885 C886 1.392 . S
C885 C889 1.495 . S
C886 C885 1.392 . S
C886 C887 1.385 . S
C886 C888 1.478 . S
C887 H881 0.930 . S
C887 C883 1.400 . S
C887 C886 1.385 . S
C888 C886 1.478 . S
C888 C890 1.381 . S
C888 C894 1.383 . S
C889 C885 1.495 . S
C889 H895 0.959 . S
C889 H896 0.961 . S
C889 H897 0.960 . S
C890 C888 1.381 . S
C890 C891 1.394 . S
C890 H898 0.930 . S
C891 C890 1.394 . S
C891 C892 1.383 . S
C891 H899 0.929 . S
C892 C891 1.383 . S
C892 C893 1.377 . S
C893 H877 0.930 . S
C893 C892 1.377 . S
C893 C894 1.379 . S
C894 H878 0.931 . S
C894 C888 1.383 . S
C894 C893 1.379 . S
H895 C889 0.959 . S
H896 C889 0.961 . S
H897 C889 0.960 . S
H898 C890 0.930 . S
H899 C891 0.929 . S
H900 C908 0.929 . S
H901 C910 0.970 . S
H902 C912 0.930 . S
H903 C915 0.929 . S
H904 C918 0.930 . S
H905 C920 0.960 . S
H906 C920 0.960 . S
H907 C920 0.960 . S
C908 H900 0.929 . S
C908 C909 1.377 . S
C908 C910 1.384 . S
C909 C908 1.377 . S
C909 C915 1.390 . S
C910 H901 0.970 . S
C910 C908 1.384 . S
C910 C911 1.372 1_554 S
C911 C910 1.372 1_556 S
C911 C912 1.400 . S
C911 C916 1.490 . S
C912 H902 0.930 . S
C912 C911 1.400 . S
C912 C915 1.386 1_556 S
H913 C929 0.930 . S
H914 C930 0.931 . S
C915 H903 0.929 . S
C915 C909 1.390 . S
C915 C912 1.386 1_554 S
C916 C911 1.490 . S
C916 C918 1.395 . S
C916 C919 1.403 . S
H917 C923 0.930 . S
C918 H904 0.930 . S
C918 C916 1.395 . S
C918 C921 1.403 . S
C919 C916 1.403 . S
C919 C920 1.524 . S
C919 C923 1.400 . S
C920 H905 0.960 . S
C920 H906 0.960 . S
C920 H907 0.960 . S
C920 C919 1.524 . S
C921 C918 1.403 . S
C921 C922 1.392 . S
C921 C925 1.495 . S
C922 C921 1.392 . S
C922 C923 1.385 . S
C922 C924 1.478 . S
C923 H917 0.930 . S
C923 C919 1.400 . S
C923 C922 1.385 . S
C924 C922 1.478 . S
C924 C926 1.381 1_655 S
C924 C930 1.383 . S
C925 C921 1.495 . S
C925 H931 0.959 . S
C925 H932 0.961 . S
C925 H933 0.960 1_655 S
C926 C924 1.381 1_455 S
C926 C927 1.394 . S
C926 H934 0.930 . S
C927 C926 1.394 . S
C927 C928 1.383 1_455 S
C927 H935 0.929 . S
C928 C927 1.383 1_655 S
C928 C929 1.377 . S
C929 H913 0.930 . S
C929 C928 1.377 . S
C929 C930 1.379 . S
C930 H914 0.931 . S
C930 C924 1.383 . S
C930 C929 1.379 . S
H931 C925 0.959 . S
H932 C925 0.961 . S
H933 C925 0.960 1_455 S
H934 C926 0.930 . S
H935 C927 0.929 . S
H936 C944 0.929 . S
H937 C946 0.930 . S
H938 C948 0.930 . S
H939 C951 0.929 . S
H940 C954 0.930 . S
H941 C956 0.960 . S
H942 C956 0.960 . S
H943 C956 0.953 1_455 S
C944 H936 0.929 . S
C944 C945 1.377 . S
C944 C946 1.384 . S
C945 C944 1.377 . S
C945 C951 1.390 . S
C946 H937 0.930 . S
C946 C944 1.384 . S
C946 C947 1.372 . S
C947 C946 1.372 . S
C947 C948 1.400 . S
C947 C952 1.490 . S
C948 H938 0.930 . S
C948 C947 1.400 . S
C948 C951 1.386 . S
H949 C965 0.936 . S
H950 C966 0.931 . S
C951 H939 0.929 . S
C951 C945 1.390 . S
C951 C948 1.386 . S
C952 C947 1.490 . S
C952 C954 1.395 . S
C952 C955 1.403 . S
H953 C959 0.930 1_655 S
C954 H940 0.930 . S
C954 C952 1.395 . S
C954 C957 1.403 . S
C955 C952 1.403 . S
C955 C956 1.524 1_455 S
C955 C959 1.400 . S
C956 H941 0.960 . S
C956 H942 0.960 . S
C956 H943 0.953 1_655 S
C956 C955 1.524 1_655 S
C957 C954 1.403 . S
C957 C958 1.392 . S
C957 C961 1.495 . S
C958 C957 1.392 . S
C958 C959 1.385 . S
C958 C960 1.478 . S
C959 H953 0.930 1_455 S
C959 C955 1.400 . S
C959 C958 1.385 . S
C960 C958 1.478 . S
C960 C962 1.381 . S
C960 C966 1.383 . S
C961 C957 1.495 . S
C961 H967 0.959 . S
C961 H968 0.961 . S
C961 H969 0.960 . S
C962 C960 1.381 . S
C962 C963 1.394 . S
C962 H970 0.930 . S
C963 C962 1.394 . S
C963 C964 1.383 . S
C963 H971 0.929 . S
C964 C963 1.383 . S
C964 C965 1.377 . S
C965 H949 0.936 . S
C965 C964 1.377 . S
C965 C966 1.379 . S
C966 H950 0.931 . S
C966 C960 1.383 . S
C966 C965 1.379 . S
H967 C961 0.959 . S
H968 C961 0.961 . S
H969 C961 0.960 . S
H970 C962 0.930 . S
H971 C963 0.929 . S
H972 C980 0.929 . S
H973 C982 0.930 . S
H974 C984 0.930 . S
H975 C987 0.929 . S
H976 C990 0.930 . S
H977 C992 0.960 1_565 S
H978 C992 0.960 1_565 S
H979 C992 0.960 . S
C980 H972 0.929 . S
C980 C981 1.377 . S
C980 C982 1.384 . S
C981 C980 1.377 . S
C981 C987 1.390 . S
C982 H973 0.930 . S
C982 C980 1.384 . S
C982 C983 1.372 . S
C983 C982 1.372 . S
C983 C984 1.400 . S
C983 C988 1.490 . S
C984 H974 0.930 . S
C984 C983 1.400 . S
C984 C987 1.386 . S
H985 C1001 0.930 . S
H986 C1002 0.931 . S
C987 H975 0.929 . S
C987 C981 1.390 . S
C987 C984 1.386 . S
C988 C983 1.490 . S
C988 C990 1.395 . S
C988 C991 1.403 . S
H989 C995 0.983 . S
C990 H976 0.930 . S
C990 C988 1.395 . S
C990 C993 1.403 . S
C991 C988 1.403 . S
C991 C992 1.524 . S
C991 C995 1.400 . S
C992 H977 0.960 1_545 S
C992 H978 0.960 1_545 S
C992 H979 0.960 . S
C992 C991 1.524 . S
C993 C990 1.403 . S
C993 C994 1.392 . S
C993 C997 1.495 . S
C994 C993 1.392 . S
C994 C995 1.385 . S
C994 C996 1.478 . S
C995 H989 0.983 . S
C995 C991 1.400 . S
C995 C994 1.385 . S
C996 C994 1.478 . S
C996 C998 1.381 . S
C996 C1002 1.383 . S
C997 C993 1.495 . S
C997 H1003 0.959 . S
C997 H1004 0.961 . S
C997 H1005 0.960 . S
C998 C996 1.381 . S
C998 C999 1.394 . S
C998 H1006 0.930 . S
C999 C998 1.394 . S
C999 C1000 1.383 . S
C999 H1007 0.929 . S
C1000 C999 1.383 . S
C1000 C1001 1.377 . S
C1001 H985 0.930 . S
C1001 C1000 1.377 . S
C1001 C1002 1.379 . S
C1002 H986 0.931 . S
C1002 C996 1.383 . S
C1002 C1001 1.379 . S
H1003 C997 0.959 . S
H1004 C997 0.961 . S
H1005 C997 0.960 . S
H1006 C998 0.930 . S
H1007 C999 0.929 . S
H1008 C1016 0.929 . S
H1009 C1018 0.930 . S
H1010 C1020 0.930 . S
H1011 C1023 0.929 . S
H1012 C1026 0.930 . S
H1013 C1028 0.960 . S
H1014 C1028 0.960 . S
H1015 C1028 0.960 . S
C1016 H1008 0.929 . S
C1016 C1017 1.377 . S
C1016 C1018 1.384 . S
C1017 C1016 1.377 . S
C1017 C1023 1.390 . S
C1018 H1009 0.930 . S
C1018 C1016 1.384 . S
C1018 C1019 1.372 . S
C1019 C1018 1.372 . S
C1019 C1020 1.400 . S
C1019 C1024 1.490 . S
C1020 H1010 0.930 . S
C1020 C1019 1.400 . S
C1020 C1023 1.386 . S
H1021 C1037 0.930 . S
H1022 C1038 0.931 . S
C1023 H1011 0.929 . S
C1023 C1017 1.390 . S
C1023 C1020 1.386 . S
C1024 C1019 1.490 . S
C1024 C1026 1.395 . S
C1024 C1027 1.403 . S
H1025 C1031 0.930 . S
C1026 H1012 0.930 . S
C1026 C1024 1.395 . S
C1026 C1029 1.403 . S
C1027 C1024 1.403 . S
C1027 C1028 1.524 . S
C1027 C1031 1.400 . S
C1028 H1013 0.960 . S
C1028 H1014 0.960 . S
C1028 H1015 0.960 . S
C1028 C1027 1.524 . S
C1029 C1026 1.403 . S
C1029 C1030 1.392 . S
C1029 C1033 1.495 . S
C1030 C1029 1.392 . S
C1030 C1031 1.385 . S
C1030 C1032 1.478 . S
C1031 H1025 0.930 . S
C1031 C1027 1.400 . S
C1031 C1030 1.385 . S
C1032 C1030 1.478 . S
C1032 C1034 1.381 . S
C1032 C1038 1.383 . S
C1033 C1029 1.495 . S
C1033 H1039 0.959 . S
C1033 H1040 0.961 . S
C1033 H1041 0.960 . S
C1034 C1032 1.381 . S
C1034 C1035 1.394 . S
C1034 H1042 0.930 . S
C1035 C1034 1.394 . S
C1035 C1036 1.383 . S
C1035 H1043 0.929 . S
C1036 C1035 1.383 . S
C1036 C1037 1.377 . S
C1037 H1021 0.930 . S
C1037 C1036 1.377 . S
C1037 C1038 1.379 . S
C1038 H1022 0.931 . S
C1038 C1032 1.383 . S
C1038 C1037 1.379 . S
H1039 C1033 0.959 . S
H1040 C1033 0.961 . S
H1041 C1033 0.960 . S
H1042 C1034 0.930 . S
H1043 C1035 0.929 . S
H1044 C1052 0.929 . S
H1045 C1054 0.930 . S
H1046 C1056 0.930 . S
H1047 C1059 0.929 . S
H1048 C1062 0.930 . S
H1049 C1064 0.960 . S
H1050 C1064 0.960 . S
H1051 C1064 0.960 . S
C1052 H1044 0.929 . S
C1052 C1053 1.377 . S
C1052 C1054 1.384 . S
C1053 C1052 1.377 . S
C1053 C1059 1.390 . S
C1054 H1045 0.930 . S
C1054 C1052 1.384 . S
C1054 C1055 1.372 . S
C1055 C1054 1.372 . S
C1055 C1056 1.400 . S
C1055 C1060 1.490 . S
C1056 H1046 0.930 . S
C1056 C1055 1.400 . S
C1056 C1059 1.386 . S
H1057 C1073 0.930 . S
H1058 C1074 0.931 . S
C1059 H1047 0.929 . S
C1059 C1053 1.390 . S
C1059 C1056 1.386 . S
C1060 C1055 1.490 . S
C1060 C1062 1.395 . S
C1060 C1063 1.403 . S
H1061 C1067 0.930 . S
C1062 H1048 0.930 . S
C1062 C1060 1.395 . S
C1062 C1065 1.403 . S
C1063 C1060 1.403 . S
C1063 C1064 1.524 . S
C1063 C1067 1.400 . S
C1064 H1049 0.960 . S
C1064 H1050 0.960 . S
C1064 H1051 0.960 . S
C1064 C1063 1.524 . S
C1065 C1062 1.403 . S
C1065 C1066 1.392 . S
C1065 C1069 1.495 . S
C1066 C1065 1.392 . S
C1066 C1067 1.385 . S
C1066 C1068 1.478 . S
C1067 H1061 0.930 . S
C1067 C1063 1.400 . S
C1067 C1066 1.385 . S
C1068 C1066 1.478 . S
C1068 C1070 1.381 . S
C1068 C1074 1.383 . S
C1069 C1065 1.495 . S
C1069 H1075 0.959 . S
C1069 H1076 0.961 . S
C1069 H1077 0.960 . S
C1070 C1068 1.381 . S
C1070 C1071 1.394 . S
C1070 H1078 0.930 . S
C1071 C1070 1.394 . S
C1071 C1072 1.383 . S
C1071 H1079 0.929 . S
C1072 C1071 1.383 . S
C1072 C1073 1.377 . S
C1073 H1057 0.930 . S
C1073 C1072 1.377 . S
C1073 C1074 1.379 . S
C1074 H1058 0.931 . S
C1074 C1068 1.383 . S
C1074 C1073 1.379 . S
H1075 C1069 0.959 . S
H1076 C1069 0.961 . S
H1077 C1069 0.960 . S
H1078 C1070 0.930 . S
H1079 C1071 0.929 . S
H1080 C1088 0.929 . S
H1081 C1090 0.930 . S
H1082 C1092 0.930 . S
H1083 C1095 0.929 . S
H1084 C1098 0.930 . S
H1085 C1100 0.960 . S
H1086 C1100 0.960 . S
H1087 C1100 0.960 1_554 S
C1088 H1080 0.929 . S
C1088 C1089 1.377 1_556 S
C1088 C1090 1.384 . S
C1089 C1088 1.377 1_554 S
C1089 C1095 1.390 . S
C1090 H1081 0.930 . S
C1090 C1088 1.384 . S
C1090 C1091 1.372 . S
C1091 C1090 1.372 . S
C1091 C1092 1.400 1_556 S
C1091 C1096 1.490 . S
C1092 H1082 0.930 . S
C1092 C1091 1.400 1_554 S
C1092 C1095 1.386 . S
H1093 C1109 0.930 . S
H1094 C1110 0.931 . S
C1095 H1083 0.929 . S
C1095 C1089 1.390 . S
C1095 C1092 1.386 . S
C1096 C1091 1.490 . S
C1096 C1098 1.395 . S
C1096 C1099 1.403 . S
H1097 C1103 0.879 1_455 S
C1098 H1084 0.930 . S
C1098 C1096 1.395 . S
C1098 C1101 1.403 . S
C1099 C1096 1.403 . S
C1099 C1100 1.524 1_655 S
C1099 C1103 1.413 . S
C1100 H1085 0.960 . S
C1100 H1086 0.960 . S
C1100 H1087 0.960 1_556 S
C1100 C1099 1.524 1_455 S
C1101 C1098 1.403 . S
C1101 C1102 1.392 . S
C1101 C1105 1.495 . S
C1102 C1101 1.392 . S
C1102 C1103 1.423 . S
C1102 C1104 1.478 . S
C1103 H1097 0.879 1_655 S
C1103 C1099 1.413 . S
C1103 C1102 1.423 . S
C1104 C1102 1.478 . S
C1104 C1106 1.381 . S
C1104 C1110 1.383 . S
C1105 C1101 1.495 . S
C1105 H1111 0.959 . S
C1105 H1112 0.961 . S
C1105 H1113 0.960 . S
C1106 C1104 1.381 . S
C1106 C1107 1.394 1_655 S
C1106 H1114 0.930 . S
C1107 C1106 1.394 1_455 S
C1107 C1108 1.383 . S
C1107 H1115 0.929 . S
C1108 C1107 1.383 . S
C1108 C1109 1.377 . S
C1109 H1093 0.930 . S
C1109 C1108 1.377 . S
C1109 C1110 1.379 1_455 S
C1110 H1094 0.931 . S
C1110 C1104 1.383 . S
C1110 C1109 1.379 1_655 S
H1111 C1105 0.959 . S
H1112 C1105 0.961 . S
H1113 C1105 0.960 . S
H1114 C1106 0.930 . S
H1115 C1107 0.929 . S
H1116 C1124 0.929 . S
H1117 C1126 0.930 . S
H1118 C1128 0.930 . S
H1119 C1131 0.929 . S
H1120 C1134 0.930 . S
H1121 C1136 0.960 . S
H1122 C1136 0.960 . S
H1123 C1136 0.960 . S
C1124 H1116 0.929 . S
C1124 C1125 1.377 1_556 S
C1124 C1126 1.384 . S
C1125 C1124 1.377 1_554 S
C1125 C1131 1.390 . S
C1126 H1117 0.930 . S
C1126 C1124 1.384 . S
C1126 C1127 1.372 . S
C1127 C1126 1.372 . S
C1127 C1128 1.400 1_556 S
C1127 C1132 1.490 . S
C1128 H1118 0.930 . S
C1128 C1127 1.400 1_554 S
C1128 C1131 1.386 . S
H1129 C1145 0.930 . S
H1130 C1146 0.931 . S
C1131 H1119 0.929 . S
C1131 C1125 1.390 . S
C1131 C1128 1.386 . S
C1132 C1127 1.490 . S
C1132 C1134 1.395 . S
C1132 C1135 1.403 . S
H1133 C1139 0.921 1_545 S
C1134 H1120 0.930 . S
C1134 C1132 1.395 . S
C1134 C1137 1.403 . S
C1135 C1132 1.403 . S
C1135 C1136 1.524 1_565 S
C1135 C1139 1.402 . S
C1136 H1121 0.960 . S
C1136 H1122 0.960 . S
C1136 H1123 0.960 . S
C1136 C1135 1.524 1_545 S
C1137 C1134 1.403 . S
C1137 C1138 1.392 . S
C1137 C1141 1.495 . S
C1138 C1137 1.392 . S
C1138 C1139 1.392 . S
C1138 C1140 1.478 . S
C1139 H1133 0.921 1_565 S
C1139 C1135 1.402 . S
C1139 C1138 1.392 . S
C1140 C1138 1.478 . S
C1140 C1142 1.381 . S
C1140 C1146 1.383 1_565 S
C1141 C1137 1.495 . S
C1141 H1147 0.959 . S
C1141 H1148 0.961 . S
C1141 H1149 0.960 . S
C1142 C1140 1.381 . S
C1142 C1143 1.394 . S
C1142 H1150 0.930 . S
C1143 C1142 1.394 . S
C1143 C1144 1.383 1_565 S
C1143 H1151 0.929 . S
C1144 C1143 1.383 1_545 S
C1144 C1145 1.377 . S
C1145 H1129 0.930 . S
C1145 C1144 1.377 . S
C1145 C1146 1.379 . S
C1146 H1130 0.931 . S
C1146 C1140 1.383 1_545 S
C1146 C1145 1.379 . S
H1147 C1141 0.959 . S
H1148 C1141 0.961 . S
H1149 C1141 0.960 . S
H1150 C1142 0.930 . S
H1151 C1143 0.929 . S
H1152 C1160 0.929 . S
H1153 C1162 0.930 . S
H1154 C1164 0.930 . S
H1155 C1167 0.929 . S
H1156 C1170 0.930 . S
H1157 C1172 0.960 . S
H1158 C1172 0.960 . S
H1159 C1172 0.960 1_554 S
C1160 H1152 0.929 . S
C1160 C1161 1.377 1_556 S
C1160 C1162 1.384 . S
C1161 C1160 1.377 1_554 S
C1161 C1167 1.390 . S
C1162 H1153 0.930 . S
C1162 C1160 1.384 . S
C1162 C1163 1.372 . S
C1163 C1162 1.372 . S
C1163 C1164 1.400 1_556 S
C1163 C1168 1.490 . S
C1164 H1154 0.930 . S
C1164 C1163 1.400 1_554 S
C1164 C1167 1.386 . S
H1165 C1181 0.930 . S
H1166 C1182 0.931 . S
C1167 H1155 0.929 . S
C1167 C1161 1.390 . S
C1167 C1164 1.386 . S
C1168 C1163 1.490 . S
C1168 C1170 1.395 . S
C1168 C1171 1.403 . S
H1169 C1175 0.930 . S
C1170 H1156 0.930 . S
C1170 C1168 1.395 . S
C1170 C1173 1.403 . S
C1171 C1168 1.403 . S
C1171 C1172 1.524 . S
C1171 C1175 1.400 . S
C1172 H1157 0.960 . S
C1172 H1158 0.960 . S
C1172 H1159 0.960 1_556 S
C1172 C1171 1.524 . S
C1173 C1170 1.403 . S
C1173 C1174 1.392 . S
C1173 C1177 1.495 . S
C1174 C1173 1.392 . S
C1174 C1175 1.385 . S
C1174 C1176 1.478 . S
C1175 H1169 0.930 . S
C1175 C1171 1.400 . S
C1175 C1174 1.385 . S
C1176 C1174 1.478 . S
C1176 C1178 1.381 . S
C1176 C1182 1.383 . S
C1177 C1173 1.495 . S
C1177 H1183 0.959 . S
C1177 H1184 0.961 . S
C1177 H1185 0.960 . S
C1178 C1176 1.381 . S
C1178 C1179 1.394 . S
C1178 H1186 0.930 . S
C1179 C1178 1.394 . S
C1179 C1180 1.383 . S
C1179 H1187 0.929 . S
C1180 C1179 1.383 . S
C1180 C1181 1.377 . S
C1181 H1165 0.930 . S
C1181 C1180 1.377 . S
C1181 C1182 1.379 . S
C1182 H1166 0.931 . S
C1182 C1176 1.383 . S
C1182 C1181 1.379 . S
H1183 C1177 0.959 . S
H1184 C1177 0.961 . S
H1185 C1177 0.960 . S
H1186 C1178 0.930 . S
H1187 C1179 0.929 . S
H1188 C1196 0.929 . S
H1189 C1198 0.930 . S
H1190 C1200 0.930 . S
H1191 C1203 0.929 . S
H1192 C1206 0.930 . S
H1193 C1208 0.960 . S
H1194 C1208 0.960 . S
H1195 C1208 0.960 . S
C1196 H1188 0.929 . S
C1196 C1197 1.377 . S
C1196 C1198 1.384 . S
C1197 C1196 1.377 . S
C1197 C1203 1.390 1_554 S
C1198 H1189 0.930 . S
C1198 C1196 1.384 . S
C1198 C1199 1.372 1_554 S
C1199 C1198 1.372 1_556 S
C1199 C1200 1.400 . S
C1199 C1204 1.490 . S
C1200 H1190 0.930 . S
C1200 C1199 1.400 . S
C1200 C1203 1.386 . S
H1201 C1217 0.930 . S
H1202 C1218 0.931 . S
C1203 H1191 0.929 . S
C1203 C1197 1.390 1_556 S
C1203 C1200 1.386 . S
C1204 C1199 1.490 . S
C1204 C1206 1.395 . S
C1204 C1207 1.403 . S
H1205 C1211 0.930 . S
C1206 H1192 0.930 . S
C1206 C1204 1.395 . S
C1206 C1209 1.403 . S
C1207 C1204 1.403 . S
C1207 C1208 1.524 . S
C1207 C1211 1.400 . S
C1208 H1193 0.960 . S
C1208 H1194 0.960 . S
C1208 H1195 0.960 . S
C1208 C1207 1.524 . S
C1209 C1206 1.403 . S
C1209 C1210 1.392 . S
C1209 C1213 1.495 . S
C1210 C1209 1.392 . S
C1210 C1211 1.385 . S
C1210 C1212 1.478 . S
C1211 H1205 0.930 . S
C1211 C1207 1.400 . S
C1211 C1210 1.385 . S
C1212 C1210 1.478 . S
C1212 C1214 1.381 . S
C1212 C1218 1.383 . S
C1213 C1209 1.495 . S
C1213 H1219 0.959 . S
C1213 H1220 0.961 . S
C1213 H1221 0.960 . S
C1214 C1212 1.381 . S
C1214 C1215 1.394 . S
C1214 H1222 0.930 . S
C1215 C1214 1.394 . S
C1215 C1216 1.383 . S
C1215 H1223 0.929 . S
C1216 C1215 1.383 . S
C1216 C1217 1.377 . S
C1217 H1201 0.930 . S
C1217 C1216 1.377 . S
C1217 C1218 1.379 . S
C1218 H1202 0.931 . S
C1218 C1212 1.383 . S
C1218 C1217 1.379 . S
H1219 C1213 0.959 . S
H1220 C1213 0.961 . S
H1221 C1213 0.960 . S
H1222 C1214 0.930 . S
H1223 C1215 0.929 . S
H1224 C1232 0.929 . S
H1225 C1234 0.930 . S
H1226 C1236 0.930 . S
H1227 C1239 0.929 . S
H1228 C1242 0.930 . S
H1229 C1244 0.960 1_655 S
H1230 C1244 0.960 1_655 S
H1231 C1244 0.960 . S
C1232 H1224 0.929 . S
C1232 C1233 1.377 . S
C1232 C1234 1.384 . S
C1233 C1232 1.377 . S
C1233 C1239 1.390 . S
C1234 H1225 0.930 . S
C1234 C1232 1.384 . S
C1234 C1235 1.372 . S
C1235 C1234 1.372 . S
C1235 C1236 1.400 . S
C1235 C1240 1.490 . S
C1236 H1226 0.930 . S
C1236 C1235 1.400 . S
C1236 C1239 1.386 . S
H1237 C1253 0.930 . S
H1238 C1254 0.931 . S
C1239 H1227 0.929 . S
C1239 C1233 1.390 . S
C1239 C1236 1.386 . S
C1240 C1235 1.490 . S
C1240 C1242 1.395 . S
C1240 C1243 1.403 . S
H1241 C1247 0.930 . S
C1242 H1228 0.930 . S
C1242 C1240 1.395 . S
C1242 C1245 1.403 . S
C1243 C1240 1.403 . S
C1243 C1244 1.524 . S
C1243 C1247 1.400 . S
C1244 H1229 0.960 1_455 S
C1244 H1230 0.960 1_455 S
C1244 H1231 0.960 . S
C1244 C1243 1.524 . S
C1245 C1242 1.403 . S
C1245 C1246 1.392 . S
C1245 C1249 1.495 . S
C1246 C1245 1.392 . S
C1246 C1247 1.385 . S
C1246 C1248 1.478 . S
C1247 H1241 0.930 . S
C1247 C1243 1.400 . S
C1247 C1246 1.385 . S
C1248 C1246 1.478 . S
C1248 C1250 1.381 . S
C1248 C1254 1.383 . S
C1249 C1245 1.495 . S
C1249 H1255 0.959 . S
C1249 H1256 0.961 . S
C1249 H1257 0.960 . S
C1250 C1248 1.381 . S
C1250 C1251 1.394 . S
C1250 H1258 0.930 . S
C1251 C1250 1.394 . S
C1251 C1252 1.383 . S
C1251 H1259 0.929 . S
C1252 C1251 1.383 . S
C1252 C1253 1.377 . S
C1253 H1237 0.930 . S
C1253 C1252 1.377 . S
C1253 C1254 1.379 . S
C1254 H1238 0.931 . S
C1254 C1248 1.383 . S
C1254 C1253 1.379 . S
H1255 C1249 0.959 . S
H1256 C1249 0.961 . S
H1257 C1249 0.960 . S
H1258 C1250 0.930 . S
H1259 C1251 0.929 . S
H1260 C1268 0.929 . S
H1261 C1270 0.930 . S
H1262 C1272 0.930 . S
H1263 C1275 0.929 . S
H1264 C1278 0.930 . S
H1265 C1280 0.960 . S
H1266 C1280 0.960 . S
H1267 C1280 0.960 . S
C1268 H1260 0.929 . S
C1268 C1269 1.377 . S
C1268 C1270 1.384 . S
C1269 C1268 1.377 . S
C1269 C1275 1.390 . S
C1270 H1261 0.930 . S
C1270 C1268 1.384 . S
C1270 C1271 1.372 . S
C1271 C1270 1.372 . S
C1271 C1272 1.400 . S
C1271 C1276 1.490 . S
C1272 H1262 0.930 . S
C1272 C1271 1.400 . S
C1272 C1275 1.386 . S
H1273 C1289 0.930 . S
H1274 C1290 0.931 . S
C1275 H1263 0.929 . S
C1275 C1269 1.390 . S
C1275 C1272 1.386 . S
C1276 C1271 1.490 . S
C1276 C1278 1.395 . S
C1276 C1279 1.403 . S
H1277 C1283 0.930 . S
C1278 H1264 0.930 . S
C1278 C1276 1.395 . S
C1278 C1281 1.403 . S
C1279 C1276 1.403 . S
C1279 C1280 1.524 . S
C1279 C1283 1.400 . S
C1280 H1265 0.960 . S
C1280 H1266 0.960 . S
C1280 H1267 0.960 . S
C1280 C1279 1.524 . S
C1281 C1278 1.403 . S
C1281 C1282 1.392 . S
C1281 C1285 1.495 . S
C1282 C1281 1.392 . S
C1282 C1283 1.385 . S
C1282 C1284 1.478 . S
C1283 H1277 0.930 . S
C1283 C1279 1.400 . S
C1283 C1282 1.385 . S
C1284 C1282 1.478 . S
C1284 C1286 1.381 . S
C1284 C1290 1.383 . S
C1285 C1281 1.495 . S
C1285 H1291 0.959 . S
C1285 H1292 0.961 1_545 S
C1285 H1293 0.960 . S
C1286 C1284 1.381 . S
C1286 C1287 1.394 . S
C1286 H1294 0.930 . S
C1287 C1286 1.394 . S
C1287 C1288 1.383 . S
C1287 H1295 0.929 . S
C1288 C1287 1.383 . S
C1288 C1289 1.377 . S
C1289 H1273 0.930 . S
C1289 C1288 1.377 . S
C1289 C1290 1.379 . S
C1290 H1274 0.931 . S
C1290 C1284 1.383 . S
C1290 C1289 1.379 . S
H1291 C1285 0.959 . S
H1292 C1285 0.961 1_565 S
H1293 C1285 0.960 . S
H1294 C1286 0.930 . S
H1295 C1287 0.929 . S
H1296 C1304 0.929 . S
H1297 C1306 0.930 . S
H1298 C1308 0.930 . S
H1299 C1311 0.929 . S
H1300 C1314 0.930 . S
H1301 C1316 0.960 . S
H1302 C1316 0.960 . S
H1303 C1316 0.960 . S
C1304 H1296 0.929 . S
C1304 C1305 1.377 . S
C1304 C1306 1.384 . S
C1305 C1304 1.377 . S
C1305 C1311 1.390 . S
C1306 H1297 0.930 . S
C1306 C1304 1.384 . S
C1306 C1307 1.372 . S
C1307 C1306 1.372 . S
C1307 C1308 1.400 . S
C1307 C1312 1.490 . S
C1308 H1298 0.930 . S
C1308 C1307 1.400 . S
C1308 C1311 1.386 . S
H1309 C1325 0.930 . S
H1310 C1326 0.931 . S
C1311 H1299 0.929 . S
C1311 C1305 1.390 . S
C1311 C1308 1.386 . S
C1312 C1307 1.490 . S
C1312 C1314 1.395 . S
C1312 C1315 1.403 . S
H1313 C1319 0.930 . S
C1314 H1300 0.930 . S
C1314 C1312 1.395 . S
C1314 C1317 1.403 . S
C1315 C1312 1.403 . S
C1315 C1316 1.524 . S
C1315 C1319 1.400 . S
C1316 H1301 0.960 . S
C1316 H1302 0.960 . S
C1316 H1303 0.960 . S
C1316 C1315 1.524 . S
C1317 C1314 1.403 . S
C1317 C1318 1.392 . S
C1317 C1321 1.495 . S
C1318 C1317 1.392 . S
C1318 C1319 1.385 . S
C1318 C1320 1.478 . S
C1319 H1313 0.930 . S
C1319 C1315 1.400 . S
C1319 C1318 1.385 . S
C1320 C1318 1.478 . S
C1320 C1322 1.381 . S
C1320 C1326 1.383 . S
C1321 C1317 1.495 . S
C1321 H1327 0.959 . S
C1321 H1328 0.961 . S
C1321 H1329 0.960 . S
C1322 C1320 1.381 . S
C1322 C1323 1.394 . S
C1322 H1330 0.930 . S
C1323 C1322 1.394 . S
C1323 C1324 1.383 . S
C1323 H1331 0.929 . S
C1324 C1323 1.383 . S
C1324 C1325 1.377 . S
C1325 H1309 0.930 . S
C1325 C1324 1.377 . S
C1325 C1326 1.379 . S
C1326 H1310 0.931 . S
C1326 C1320 1.383 . S
C1326 C1325 1.379 . S
H1327 C1321 0.959 . S
H1328 C1321 0.961 . S
H1329 C1321 0.960 . S
H1330 C1322 0.930 . S
H1331 C1323 0.929 . S
H1332 C1340 0.929 . S
H1333 C1342 0.930 . S
H1334 C1344 0.930 . S
H1335 C1347 0.929 . S
H1336 C1350 0.930 . S
H1337 C1352 0.960 . S
H1338 C1352 0.960 . S
H1339 C1352 0.960 . S
C1340 H1332 0.929 . S
C1340 C1341 1.377 . S
C1340 C1342 1.384 . S
C1341 C1340 1.377 . S
C1341 C1347 1.390 . S
C1342 H1333 0.930 . S
C1342 C1340 1.384 . S
C1342 C1343 1.372 . S
C1343 C1342 1.372 . S
C1343 C1344 1.400 . S
C1343 C1348 1.490 . S
C1344 H1334 0.930 . S
C1344 C1343 1.400 . S
C1344 C1347 1.386 . S
H1345 C1361 0.930 . S
H1346 C1362 0.931 . S
C1347 H1335 0.929 . S
C1347 C1341 1.390 . S
C1347 C1344 1.386 . S
C1348 C1343 1.490 . S
C1348 C1350 1.395 . S
C1348 C1351 1.403 . S
H1349 C1355 0.930 . S
C1350 H1336 0.930 . S
C1350 C1348 1.395 . S
C1350 C1353 1.403 . S
C1351 C1348 1.403 . S
C1351 C1352 1.524 . S
C1351 C1355 1.400 . S
C1352 H1337 0.960 . S
C1352 H1338 0.960 . S
C1352 H1339 0.960 . S
C1352 C1351 1.524 . S
C1353 C1350 1.403 . S
C1353 C1354 1.392 . S
C1353 C1357 1.495 . S
C1354 C1353 1.392 . S
C1354 C1355 1.385 . S
C1354 C1356 1.478 . S
C1355 H1349 0.930 . S
C1355 C1351 1.400 . S
C1355 C1354 1.385 . S
C1356 C1354 1.478 . S
C1356 C1358 1.381 . S
C1356 C1362 1.383 . S
C1357 C1353 1.495 . S
C1357 H1363 0.959 . S
C1357 H1364 0.961 . S
C1357 H1365 0.960 . S
C1358 C1356 1.381 . S
C1358 C1359 1.394 . S
C1358 H1366 0.930 . S
C1359 C1358 1.394 . S
C1359 C1360 1.383 . S
C1359 H1367 0.929 . S
C1360 C1359 1.383 . S
C1360 C1361 1.377 . S
C1361 H1345 0.930 . S
C1361 C1360 1.377 . S
C1361 C1362 1.379 . S
C1362 H1346 0.931 . S
C1362 C1356 1.383 . S
C1362 C1361 1.379 . S
H1363 C1357 0.959 . S
H1364 C1357 0.961 . S
H1365 C1357 0.960 . S
H1366 C1358 0.930 . S
H1367 C1359 0.929 . S
H1368 C1376 0.929 . S
H1369 C1378 0.930 . S
H1370 C1380 0.930 . S
H1371 C1383 0.929 . S
H1372 C1386 0.930 1_455 S
H1373 C1388 0.960 . S
H1374 C1388 0.960 . S
H1375 C1388 0.960 . S
C1376 H1368 0.929 . S
C1376 C1377 1.377 . S
C1376 C1378 1.384 . S
C1377 C1376 1.377 . S
C1377 C1383 1.390 . S
C1378 H1369 0.930 . S
C1378 C1376 1.384 . S
C1378 C1379 1.372 . S
C1379 C1378 1.372 . S
C1379 C1380 1.400 . S
C1379 C1384 1.490 . S
C1380 H1370 0.930 . S
C1380 C1379 1.400 . S
C1380 C1383 1.386 . S
H1381 C1397 0.930 . S
H1382 C1398 0.931 . S
C1383 H1371 0.929 . S
C1383 C1377 1.390 . S
C1383 C1380 1.386 . S
C1384 C1379 1.490 . S
C1384 C1386 1.395 . S
C1384 C1387 1.403 . S
H1385 C1391 0.930 . S
C1386 H1372 0.930 1_655 S
C1386 C1384 1.395 . S
C1386 C1389 1.405 . S
C1387 C1384 1.403 . S
C1387 C1388 1.524 . S
C1387 C1391 1.400 . S
C1388 H1373 0.960 . S
C1388 H1374 0.960 . S
C1388 H1375 0.960 . S
C1388 C1387 1.524 . S
C1389 C1386 1.405 . S
C1389 C1390 1.397 . S
C1389 C1393 1.489 1_655 S
C1390 C1389 1.397 . S
C1390 C1391 1.385 . S
C1390 C1392 1.478 . S
C1391 H1385 0.930 . S
C1391 C1387 1.400 . S
C1391 C1390 1.385 . S
C1392 C1390 1.478 . S
C1392 C1394 1.381 . S
C1392 C1398 1.383 . S
C1393 C1389 1.489 1_455 S
C1393 H1399 0.959 . S
C1393 H1400 0.961 . S
C1393 H1401 0.960 . S
C1394 C1392 1.381 . S
C1394 C1395 1.394 . S
C1394 H1402 0.930 . S
C1395 C1394 1.394 . S
C1395 C1396 1.383 . S
C1395 H1403 0.935 . S
C1396 C1395 1.383 . S
C1396 C1397 1.377 . S
C1397 H1381 0.930 . S
C1397 C1396 1.377 . S
C1397 C1398 1.379 . S
C1398 H1382 0.931 . S
C1398 C1392 1.383 . S
C1398 C1397 1.379 . S
H1399 C1393 0.959 . S
H1400 C1393 0.961 . S
H1401 C1393 0.960 . S
H1402 C1394 0.930 . S
H1403 C1395 0.935 . S
H1404 C1412 0.929 . S
H1405 C1414 0.930 . S
H1406 C1416 0.930 . S
H1407 C1419 0.929 . S
H1408 C1422 0.930 . S
H1409 C1424 0.960 . S
H1410 C1424 0.960 . S
H1411 C1424 0.960 . S
C1412 H1404 0.929 . S
C1412 C1413 1.377 . S
C1412 C1414 1.384 . S
C1413 C1412 1.377 . S
C1413 C1419 1.390 . S
C1414 H1405 0.930 . S
C1414 C1412 1.384 . S
C1414 C1415 1.372 . S
C1415 C1414 1.372 . S
C1415 C1416 1.400 . S
C1415 C1420 1.490 . S
C1416 H1406 0.930 . S
C1416 C1415 1.400 . S
C1416 C1419 1.386 . S
H1417 C1433 0.930 1_545 S
H1418 C1434 0.959 . S
C1419 H1407 0.929 . S
C1419 C1413 1.390 . S
C1419 C1416 1.386 . S
C1420 C1415 1.490 . S
C1420 C1422 1.395 . S
C1420 C1423 1.403 . S
H1421 C1427 0.930 1_545 S
C1422 H1408 0.930 . S
C1422 C1420 1.395 . S
C1422 C1425 1.403 . S
C1423 C1420 1.403 . S
C1423 C1424 1.524 1_565 S
C1423 C1427 1.400 . S
C1424 H1409 0.960 . S
C1424 H1410 0.960 . S
C1424 H1411 0.960 . S
C1424 C1423 1.524 1_545 S
C1425 C1422 1.403 . S
C1425 C1426 1.392 . S
C1425 C1429 1.495 . S
C1426 C1425 1.392 . S
C1426 C1427 1.385 . S
C1426 C1428 1.478 . S
C1427 H1421 0.930 1_565 S
C1427 C1423 1.400 . S
C1427 C1426 1.385 . S
C1428 C1426 1.478 . S
C1428 C1430 1.381 . S
C1428 C1434 1.383 . S
C1429 C1425 1.495 . S
C1429 H1435 0.959 . S
C1429 H1436 0.961 . S
C1429 H1437 0.960 . S
C1430 C1428 1.381 . S
C1430 C1431 1.394 . S
C1430 H1438 0.930 . S
C1431 C1430 1.394 . S
C1431 C1432 1.383 . S
C1431 H1439 0.929 . S
C1432 C1431 1.383 . S
C1432 C1433 1.377 . S
C1433 H1417 0.930 1_565 S
C1433 C1432 1.377 . S
C1433 C1434 1.379 . S
C1434 H1418 0.959 . S
C1434 C1428 1.383 . S
C1434 C1433 1.379 . S
H1435 C1429 0.959 . S
H1436 C1429 0.961 . S
H1437 C1429 0.960 . S
H1438 C1430 0.930 . S
H1439 C1431 0.929 . S
H1440 C1448 0.929 . S
H1441 C1450 0.930 . S
H1442 C1452 0.930 . S
H1443 C1455 0.929 . S
H1444 C1458 0.930 . S
H1445 C1460 0.960 . S
H1446 C1460 0.960 . S
H1447 C1460 0.960 . S
C1448 H1440 0.929 . S
C1448 C1449 1.377 . S
C1448 C1450 1.384 . S
C1449 C1448 1.377 . S
C1449 C1455 1.390 . S
C1450 H1441 0.930 . S
C1450 C1448 1.384 . S
C1450 C1451 1.372 . S
C1451 C1450 1.372 . S
C1451 C1452 1.400 . S
C1451 C1456 1.490 . S
C1452 H1442 0.930 . S
C1452 C1451 1.400 . S
C1452 C1455 1.386 . S
H1453 C1469 0.930 . S
H1454 C1470 0.931 . S
C1455 H1443 0.929 . S
C1455 C1449 1.390 . S
C1455 C1452 1.386 . S
C1456 C1451 1.490 . S
C1456 C1458 1.395 . S
C1456 C1459 1.403 . S
H1457 C1463 0.930 . S
C1458 H1444 0.930 . S
C1458 C1456 1.395 . S
C1458 C1461 1.403 . S
C1459 C1456 1.403 . S
C1459 C1460 1.524 . S
C1459 C1463 1.400 . S
C1460 H1445 0.960 . S
C1460 H1446 0.960 . S
C1460 H1447 0.960 . S
C1460 C1459 1.524 . S
C1461 C1458 1.403 . S
C1461 C1462 1.392 . S
C1461 C1465 1.495 . S
C1462 C1461 1.392 . S
C1462 C1463 1.385 . S
C1462 C1464 1.478 . S
C1463 H1457 0.930 . S
C1463 C1459 1.400 . S
C1463 C1462 1.385 . S
C1464 C1462 1.478 . S
C1464 C1466 1.381 . S
C1464 C1470 1.383 . S
C1465 C1461 1.495 . S
C1465 H1471 0.959 . S
C1465 H1472 0.961 . S
C1465 H1473 0.960 . S
C1466 C1464 1.381 . S
C1466 C1467 1.394 . S
C1466 H1474 0.930 . S
C1467 C1466 1.394 . S
C1467 C1468 1.383 . S
C1467 H1475 0.929 . S
C1468 C1467 1.383 . S
C1468 C1469 1.377 . S
C1469 H1453 0.930 . S
C1469 C1468 1.377 . S
C1469 C1470 1.379 . S
C1470 H1454 0.931 . S
C1470 C1464 1.383 . S
C1470 C1469 1.379 . S
H1471 C1465 0.959 . S
H1472 C1465 0.961 . S
H1473 C1465 0.960 . S
H1474 C1466 0.930 . S
H1475 C1467 0.929 . S
H1476 C1484 0.929 . S
H1477 C1486 0.930 . S
H1478 C1488 0.930 . S
H1479 C1491 0.929 . S
H1480 C1494 0.930 . S
H1481 C1496 0.960 . S
H1482 C1496 0.960 . S
H1483 C1496 0.960 . S
C1484 H1476 0.929 . S
C1484 C1485 1.377 . S
C1484 C1486 1.384 . S
C1485 C1484 1.377 . S
C1485 C1491 1.390 . S
C1486 H1477 0.930 . S
C1486 C1484 1.384 . S
C1486 C1487 1.372 . S
C1487 C1486 1.372 . S
C1487 C1488 1.400 . S
C1487 C1492 1.490 . S
C1488 H1478 0.930 . S
C1488 C1487 1.400 . S
C1488 C1491 1.386 . S
H1489 C1505 0.930 . S
H1490 C1506 0.931 . S
C1491 H1479 0.929 . S
C1491 C1485 1.390 . S
C1491 C1488 1.386 . S
C1492 C1487 1.490 . S
C1492 C1494 1.395 . S
C1492 C1495 1.403 . S
H1493 C1499 0.930 . S
C1494 H1480 0.930 . S
C1494 C1492 1.395 . S
C1494 C1497 1.403 . S
C1495 C1492 1.403 . S
C1495 C1496 1.524 . S
C1495 C1499 1.400 . S
C1496 H1481 0.960 . S
C1496 H1482 0.960 . S
C1496 H1483 0.960 . S
C1496 C1495 1.524 . S
C1497 C1494 1.403 . S
C1497 C1498 1.392 . S
C1497 C1501 1.495 . S
C1498 C1497 1.392 . S
C1498 C1499 1.385 . S
C1498 C1500 1.478 . S
C1499 H1493 0.930 . S
C1499 C1495 1.400 . S
C1499 C1498 1.385 . S
C1500 C1498 1.478 . S
C1500 C1502 1.381 . S
C1500 C1506 1.383 . S
C1501 C1497 1.495 . S
C1501 H1507 0.959 . S
C1501 H1508 0.961 . S
C1501 H1509 0.960 . S
C1502 C1500 1.381 . S
C1502 C1503 1.394 . S
C1502 H1510 0.930 . S
C1503 C1502 1.394 . S
C1503 C1504 1.383 . S
C1503 H1511 0.929 . S
C1504 C1503 1.383 . S
C1504 C1505 1.377 . S
C1505 H1489 0.930 . S
C1505 C1504 1.377 . S
C1505 C1506 1.379 . S
C1506 H1490 0.931 . S
C1506 C1500 1.383 . S
C1506 C1505 1.379 . S
H1507 C1501 0.959 . S
H1508 C1501 0.961 . S
H1509 C1501 0.960 . S
H1510 C1502 0.930 . S
H1511 C1503 0.929 . S
C657 C255 2.090 . S
C676 C375 2.202 . S
C712 C452 2.202 . S
C693 C294 2.086 . S
C748 C543 2.174 . S
C729 C177 2.080 . S
C784 C627 2.178 . S
C765 C216 2.077 . S
C820 C386 2.189 1_565 S
C801 C99 2.096 . S
C837 C138 2.082 . S
C856 C463 2.226 . S
C873 C21 2.093 . S
C892 C554 2.198 . S
C909 C60 2.077 . S
C928 C638 2.166 1_655 S
C964 C370 0.523 1_455 S
C945 C196 0.297 . S
C1000 C465 0.520 . S
C981 C235 0.282 . S
C1036 C538 0.371 . S
C1017 C289 0.326 . S
C1053 C157 0.307 . S
C1072 C622 0.408 . S
C1089 C40 0.293 . S
C1108 C381 0.501 . S
C1144 C454 0.514 . S
C1125 C79 0.291 . S
C1180 C549 0.466 . S
C1161 C133 0.296 . S
C1197 C1 0.290 . S
C1216 C633 0.340 . S
C1233 C211 2.420 . S
C1252 C379 2.647 . S
C1269 C250 2.407 . S
C1288 C470 2.661 . S
C1324 C547 2.679 . S
C1305 C274 2.448 . S
C1360 C631 2.678 . S
C1341 C172 2.439 . S
C1377 C55 2.420 . S
C1396 C368 2.654 . S
C1432 C459 2.669 . S
C1413 C94 2.400 . S
C1468 C536 2.667 . S
C1449 C118 2.440 . S
C1485 C16 2.429 . S
C1504 C620 2.673 . S
