# Generated by pormake.
# Topology ctn, (3,4)-cn, num edge types: 1
# Building blocks:
#     Node 0, Type 0, BuildingBlock: BETDIP_clean_linker_0, # of connection points: 3
#     Node 1, Type 0, BuildingBlock: BETDIP_clean_linker_0, # of connection points: 3
#     Node 2, Type 0, BuildingBlock: BETDIP_clean_linker_0, # of connection points: 3
#     Node 3, Type 0, BuildingBlock: BETDIP_clean_linker_0, # of connection points: 3
#     Node 4, Type 0, BuildingBlock: BETDIP_clean_linker_0, # of connection points: 3
#     Node 5, Type 0, BuildingBlock: BETDIP_clean_linker_0, # of connection points: 3
#     Node 6, Type 0, BuildingBlock: BETDIP_clean_linker_0, # of connection points: 3
#     Node 7, Type 0, BuildingBlock: BETDIP_clean_linker_0, # of connection points: 3
#     Node 8, Type 0, BuildingBlock: BETDIP_clean_linker_0, # of connection points: 3
#     Node 9, Type 0, BuildingBlock: BETDIP_clean_linker_0, # of connection points: 3
#     Node 10, Type 0, BuildingBlock: BETDIP_clean_linker_0, # of connection points: 3
#     Node 11, Type 0, BuildingBlock: BETDIP_clean_linker_0, # of connection points: 3
#     Node 12, Type 0, BuildingBlock: BETDIP_clean_linker_0, # of connection points: 3
#     Node 13, Type 0, BuildingBlock: BETDIP_clean_linker_0, # of connection points: 3
#     Node 14, Type 0, BuildingBlock: BETDIP_clean_linker_0, # of connection points: 3
#     Node 15, Type 0, BuildingBlock: BETDIP_clean_linker_0, # of connection points: 3
#     Node 16, Type 1, BuildingBlock: AZAVOO_clean_sbu_0, # of connection points: 4
#     Node 17, Type 1, BuildingBlock: AZAVOO_clean_sbu_0, # of connection points: 4
#     Node 18, Type 1, BuildingBlock: AZAVOO_clean_sbu_0, # of connection points: 4
#     Node 19, Type 1, BuildingBlock: AZAVOO_clean_sbu_0, # of connection points: 4
#     Node 20, Type 1, BuildingBlock: AZAVOO_clean_sbu_0, # of connection points: 4
#     Node 21, Type 1, BuildingBlock: AZAVOO_clean_sbu_0, # of connection points: 4
#     Node 22, Type 1, BuildingBlock: AZAVOO_clean_sbu_0, # of connection points: 4
#     Node 23, Type 1, BuildingBlock: AZAVOO_clean_sbu_0, # of connection points: 4
#     Node 24, Type 1, BuildingBlock: AZAVOO_clean_sbu_0, # of connection points: 4
#     Node 25, Type 1, BuildingBlock: AZAVOO_clean_sbu_0, # of connection points: 4
#     Node 26, Type 1, BuildingBlock: AZAVOO_clean_sbu_0, # of connection points: 4
#     Node 27, Type 1, BuildingBlock: AZAVOO_clean_sbu_0, # of connection points: 4
#     Edge 28, Type (0, 1), BuildingBlock: MIFKUJ_clean_linker_0, # of connection points: 2
#     Edge 29, Type (0, 1), BuildingBlock: MIFKUJ_clean_linker_0, # of connection points: 2
#     Edge 30, Type (0, 1), BuildingBlock: MIFKUJ_clean_linker_0, # of connection points: 2
#     Edge 31, Type (0, 1), BuildingBlock: MIFKUJ_clean_linker_0, # of connection points: 2
#     Edge 32, Type (0, 1), BuildingBlock: MIFKUJ_clean_linker_0, # of connection points: 2
#     Edge 33, Type (0, 1), BuildingBlock: MIFKUJ_clean_linker_0, # of connection points: 2
#     Edge 34, Type (0, 1), BuildingBlock: MIFKUJ_clean_linker_0, # of connection points: 2
#     Edge 35, Type (0, 1), BuildingBlock: MIFKUJ_clean_linker_0, # of connection points: 2
#     Edge 36, Type (0, 1), BuildingBlock: MIFKUJ_clean_linker_0, # of connection points: 2
#     Edge 37, Type (0, 1), BuildingBlock: MIFKUJ_clean_linker_0, # of connection points: 2
#     Edge 38, Type (0, 1), BuildingBlock: MIFKUJ_clean_linker_0, # of connection points: 2
#     Edge 39, Type (0, 1), BuildingBlock: MIFKUJ_clean_linker_0, # of connection points: 2
#     Edge 40, Type (0, 1), BuildingBlock: MIFKUJ_clean_linker_0, # of connection points: 2
#     Edge 41, Type (0, 1), BuildingBlock: MIFKUJ_clean_linker_0, # of connection points: 2
#     Edge 42, Type (0, 1), BuildingBlock: MIFKUJ_clean_linker_0, # of connection points: 2
#     Edge 43, Type (0, 1), BuildingBlock: MIFKUJ_clean_linker_0, # of connection points: 2
#     Edge 44, Type (0, 1), BuildingBlock: MIFKUJ_clean_linker_0, # of connection points: 2
#     Edge 45, Type (0, 1), BuildingBlock: MIFKUJ_clean_linker_0, # of connection points: 2
#     Edge 46, Type (0, 1), BuildingBlock: MIFKUJ_clean_linker_0, # of connection points: 2
#     Edge 47, Type (0, 1), BuildingBlock: MIFKUJ_clean_linker_0, # of connection points: 2
#     Edge 48, Type (0, 1), BuildingBlock: MIFKUJ_clean_linker_0, # of connection points: 2
#     Edge 49, Type (0, 1), BuildingBlock: MIFKUJ_clean_linker_0, # of connection points: 2
#     Edge 50, Type (0, 1), BuildingBlock: MIFKUJ_clean_linker_0, # of connection points: 2
#     Edge 51, Type (0, 1), BuildingBlock: MIFKUJ_clean_linker_0, # of connection points: 2
#     Edge 52, Type (0, 1), BuildingBlock: MIFKUJ_clean_linker_0, # of connection points: 2
#     Edge 53, Type (0, 1), BuildingBlock: MIFKUJ_clean_linker_0, # of connection points: 2
#     Edge 54, Type (0, 1), BuildingBlock: MIFKUJ_clean_linker_0, # of connection points: 2
#     Edge 55, Type (0, 1), BuildingBlock: MIFKUJ_clean_linker_0, # of connection points: 2
#     Edge 56, Type (0, 1), BuildingBlock: MIFKUJ_clean_linker_0, # of connection points: 2
#     Edge 57, Type (0, 1), BuildingBlock: MIFKUJ_clean_linker_0, # of connection points: 2
#     Edge 58, Type (0, 1), BuildingBlock: MIFKUJ_clean_linker_0, # of connection points: 2
#     Edge 59, Type (0, 1), BuildingBlock: MIFKUJ_clean_linker_0, # of connection points: 2
#     Edge 60, Type (0, 1), BuildingBlock: MIFKUJ_clean_linker_0, # of connection points: 2
#     Edge 61, Type (0, 1), BuildingBlock: MIFKUJ_clean_linker_0, # of connection points: 2
#     Edge 62, Type (0, 1), BuildingBlock: MIFKUJ_clean_linker_0, # of connection points: 2
#     Edge 63, Type (0, 1), BuildingBlock: MIFKUJ_clean_linker_0, # of connection points: 2
#     Edge 64, Type (0, 1), BuildingBlock: MIFKUJ_clean_linker_0, # of connection points: 2
#     Edge 65, Type (0, 1), BuildingBlock: MIFKUJ_clean_linker_0, # of connection points: 2
#     Edge 66, Type (0, 1), BuildingBlock: MIFKUJ_clean_linker_0, # of connection points: 2
#     Edge 67, Type (0, 1), BuildingBlock: MIFKUJ_clean_linker_0, # of connection points: 2
#     Edge 68, Type (0, 1), BuildingBlock: MIFKUJ_clean_linker_0, # of connection points: 2
#     Edge 69, Type (0, 1), BuildingBlock: MIFKUJ_clean_linker_0, # of connection points: 2
#     Edge 70, Type (0, 1), BuildingBlock: MIFKUJ_clean_linker_0, # of connection points: 2
#     Edge 71, Type (0, 1), BuildingBlock: MIFKUJ_clean_linker_0, # of connection points: 2
#     Edge 72, Type (0, 1), BuildingBlock: MIFKUJ_clean_linker_0, # of connection points: 2
#     Edge 73, Type (0, 1), BuildingBlock: MIFKUJ_clean_linker_0, # of connection points: 2
#     Edge 74, Type (0, 1), BuildingBlock: MIFKUJ_clean_linker_0, # of connection points: 2
#     Edge 75, Type (0, 1), BuildingBlock: MIFKUJ_clean_linker_0, # of connection points: 2
# Relax obj value: 0.064
# Max RMSD: 0.202
# Mean RMSD: 0.115
data_MOF--net-ctn--node1-AZAVOO_clean_sbu_0--node2-BETDIP_clean_linker_0--edge1-MIFKUJ_clean_linker_0
_symmetry_space_group_name_H-M    P1
_symmetry_Int_Tables_number       1
_symmetry_cell_setting            triclinic
loop_
_symmetry_equiv_pos_as_xyz
'x, y, z'
_cell_length_a     67.599635
_cell_length_b     69.014674
_cell_length_c     75.288514
_cell_angle_alpha  93.488034
_cell_angle_beta   96.368544
_cell_angle_gamma 95.845241
loop_
_atom_site_label
_atom_site_type_symbol
_atom_site_fract_x
_atom_site_fract_y
_atom_site_fract_z
_atom_type_partial_charge
H0 H 0.01499 0.04243 0.0376 0.0
H1 H 0.05756 0.02027 0.00565 0.0
H2 H 0.04875 0.99613 0.05578 0.0
H3 H 0.03862 0.03171 0.98314 0.0
C4 C 0.03402 0.04499 0.98911 0.0
C5 C 0.02579 0.03216 0.03558 0.0
C6 C 0.03049 0.01912 0.04868 0.0
C7 C 0.03508 0.03241 0.01989 0.0
C8 C 0.04982 0.01986 0.01747 0.0
C9 C 0.05486 0.00677 0.03037 0.0
C10 C 0.04498 0.00632 0.04586 0.0
N11 N 0.02989 0.04606 0.00724 0.0
H12 H 0.2776 0.71007 0.20317 0.0
H13 H 0.33217 0.74529 0.22435 0.0
H14 H 0.31384 0.6927 0.24885 0.0
H15 H 0.31449 0.76954 0.21195 0.0
C16 C 0.30812 0.76192 0.19923 0.0
C17 C 0.29073 0.71268 0.21302 0.0
C18 C 0.29399 0.69949 0.22621 0.0
C19 C 0.30428 0.72927 0.21235 0.0
C20 C 0.32151 0.73259 0.2249 0.0
C21 C 0.32508 0.71947 0.23816 0.0
C22 C 0.31124 0.70292 0.23868 0.0
N23 N 0.3005 0.7419 0.19848 0.0
H24 H 0.96205 0.49889 0.02014 0.0
H25 H 0.01042 0.47903 0.05334 0.0
H26 H 0.97847 0.52457 0.0741 0.0
H27 H 0.02197 0.47515 0.02476 0.0
C28 C 0.00811 0.46767 0.01775 0.0
C29 C 0.97158 0.50006 0.0328 0.0
C30 C 0.96838 0.51341 0.04679 0.0
C31 C 0.98703 0.48809 0.03491 0.0
C32 C 0.99908 0.48895 0.05142 0.0
C33 C 0.99599 0.50192 0.06575 0.0
C34 C 0.98061 0.51416 0.06329 0.0
N35 N 0.98955 0.47471 0.02046 0.0
H36 H 0.71948 0.8029 0.20398 0.0
H37 H 0.74328 0.85572 0.23583 0.0
H38 H 0.77244 0.83663 0.19113 0.0
H39 H 0.72931 0.83974 0.25726 0.0
C40 C 0.71529 0.83233 0.25054 0.0
C41 C 0.73055 0.81555 0.20657 0.0
C42 C 0.74622 0.81803 0.19584 0.0
C43 C 0.72958 0.82879 0.22125 0.0
C44 C 0.74404 0.84518 0.22476 0.0
C45 C 0.75972 0.84796 0.21408 0.0
C46 C 0.76062 0.83435 0.19964 0.0
N47 N 0.71405 0.8251 0.23231 0.0
H48 H 0.03143 0.98667 0.46201 0.0
H49 H 0.0843 0.00239 0.49952 0.0
H50 H 0.07633 0.0314 0.45068 0.0
H51 H 0.06322 0.98996 0.51946 0.0
C52 C 0.05551 0.97721 0.51148 0.0
C53 C 0.04553 0.99566 0.4659 0.0
C54 C 0.05262 0.00931 0.45438 0.0
C55 C 0.05669 0.99321 0.48228 0.0
C56 C 0.07523 0.0046 0.48719 0.0
C57 C 0.08256 0.0183 0.47575 0.0
C58 C 0.07108 0.02056 0.45942 0.0
N59 N 0.04942 0.97833 0.49291 0.0
H60 H 0.2056 0.73321 0.78673 0.0
H61 H 0.23253 0.69253 0.754 0.0
H62 H 0.26021 0.71107 0.80727 0.0
H63 H 0.21222 0.70114 0.73169 0.0
C64 C 0.20006 0.70805 0.73675 0.0
C65 C 0.21764 0.72428 0.78499 0.0
C66 C 0.23301 0.72363 0.79903 0.0
C67 C 0.21737 0.7134 0.76866 0.0
C68 C 0.23259 0.70126 0.76642 0.0
C69 C 0.24814 0.70036 0.78032 0.0
C70 C 0.24825 0.71167 0.79653 0.0
N71 N 0.20137 0.71504 0.75505 0.0
H72 H 0.98556 0.54669 0.45526 0.0
H73 H 0.95032 0.49121 0.44168 0.0
H74 H 0.9349 0.53029 0.48318 0.0
H75 H 0.97743 0.48283 0.43032 0.0
C76 C 0.98495 0.49597 0.42581 0.0
C77 C 0.97317 0.53624 0.45751 0.0
C78 C 0.96051 0.54082 0.4704 0.0
C79 C 0.96994 0.51828 0.44731 0.0
C80 C 0.95355 0.50482 0.44987 0.0
C81 C 0.94072 0.50919 0.46268 0.0
C82 C 0.94439 0.52715 0.47291 0.0
N83 N 0.98313 0.51458 0.43432 0.0
H84 H 0.80162 0.80499 0.76622 0.0
H85 H 0.82867 0.76579 0.80126 0.0
H86 H 0.77428 0.78843 0.81282 0.0
H87 H 0.84433 0.75745 0.7781 0.0
C88 C 0.84541 0.76975 0.76981 0.0
C89 C 0.80121 0.79662 0.77792 0.0
C90 C 0.786 0.79832 0.78906 0.0
C91 C 0.8163 0.78453 0.78184 0.0
C92 C 0.81654 0.77432 0.79749 0.0
C93 C 0.80154 0.77587 0.8089 0.0
C94 C 0.78619 0.78765 0.80439 0.0
N95 N 0.83135 0.78373 0.77007 0.0
H96 H 0.29574 0.30493 0.26272 0.0
H97 H 0.322 0.2625 0.29447 0.0
H98 H 0.27055 0.28805 0.31023 0.0
H99 H 0.34985 0.27313 0.28119 0.0
C100 C 0.34383 0.27601 0.26775 0.0
C101 C 0.29565 0.29624 0.27422 0.0
C102 C 0.28111 0.29797 0.28603 0.0
C103 C 0.31062 0.28386 0.27731 0.0
C104 C 0.31093 0.27264 0.29232 0.0
C105 C 0.2964 0.27397 0.30426 0.0
C106 C 0.28166 0.28677 0.30102 0.0
N107 N 0.32465 0.28272 0.26464 0.0
H108 H 0.46184 0.9997 0.52199 0.0
H109 H 0.50962 0.97723 0.55388 0.0
H110 H 0.47901 0.02271 0.57665 0.0
H111 H 0.52089 0.97476 0.52508 0.0
C112 C 0.50694 0.96772 0.51787 0.0
C113 C 0.47114 0.99979 0.53469 0.0
C114 C 0.46847 0.01274 0.54915 0.0
C115 C 0.48629 0.98744 0.53615 0.0
C116 C 0.49852 0.98746 0.55249 0.0
C117 C 0.49598 7e-05 0.56726 0.0
C118 C 0.48096 0.01278 0.56543 0.0
N119 N 0.48851 0.9747 0.52113 0.0
H120 H 0.21859 0.30117 0.70186 0.0
H121 H 0.24509 0.35241 0.73477 0.0
H122 H 0.26985 0.33572 0.68671 0.0
H123 H 0.23307 0.33474 0.75657 0.0
C124 C 0.21847 0.32821 0.7503 0.0
C125 C 0.22991 0.31363 0.7044 0.0
C126 C 0.24414 0.31699 0.69237 0.0
C127 C 0.23028 0.32612 0.71984 0.0
C128 C 0.24483 0.34244 0.72306 0.0
C129 C 0.25925 0.34592 0.71122 0.0
C130 C 0.25874 0.33315 0.69589 0.0
N131 N 0.21576 0.32195 0.73177 0.0
H132 H 0.78231 0.20761 0.70514 0.0
H133 H 0.83735 0.24273 0.72507 0.0
H134 H 0.8192 0.19085 0.75071 0.0
H135 H 0.81967 0.26684 0.71255 0.0
C136 C 0.81297 0.25905 0.7 0.0
C137 C 0.79561 0.2103 0.71479 0.0
C138 C 0.79901 0.19737 0.72819 0.0
C139 C 0.80922 0.22672 0.71367 0.0
C140 C 0.82665 0.23014 0.72597 0.0
C141 C 0.83039 0.21728 0.73943 0.0
C142 C 0.81648 0.20088 0.7404 0.0
N143 N 0.80525 0.23909 0.69963 0.0
H144 H 0.51653 0.53996 0.53574 0.0
H145 H 0.5604 0.51829 0.50508 0.0
H146 H 0.54923 0.49303 0.55426 0.0
H147 H 0.56579 0.55252 0.50271 0.0
C148 C 0.55036 0.55489 0.49851 0.0
C149 C 0.52729 0.52962 0.53392 0.0
C150 C 0.53129 0.51622 0.54689 0.0
C151 C 0.53801 0.53071 0.51909 0.0
C152 C 0.55226 0.51767 0.51667 0.0
C153 C 0.55642 0.50409 0.52932 0.0
C154 C 0.54602 0.50353 0.54449 0.0
N155 N 0.53473 0.54547 0.50709 0.0
H156 H 0.53217 0.48064 0.95752 0.0
H157 H 0.58437 0.50165 0.99435 0.0
H158 H 0.57145 0.53011 0.94591 0.0
H159 H 0.583 0.46967 0.99975 0.0
C160 C 0.56712 0.46513 0.99964 0.0
C161 C 0.54536 0.491 0.96123 0.0
C162 C 0.55032 0.50566 0.94983 0.0
C163 C 0.55791 0.48899 0.97701 0.0
C164 C 0.57507 0.50246 0.98182 0.0
C165 C 0.57997 0.51746 0.97074 0.0
C166 C 0.56759 0.51881 0.95471 0.0
N167 N 0.55293 0.47328 0.9877 0.0
H168 H 0.7048 0.23223 0.28788 0.0
H169 H 0.73013 0.18914 0.2564 0.0
H170 H 0.75863 0.20905 0.30901 0.0
H171 H 0.70834 0.19552 0.23437 0.0
C172 C 0.69687 0.2036 0.23928 0.0
C173 C 0.71627 0.22252 0.28657 0.0
C174 C 0.73185 0.22222 0.30051 0.0
C175 C 0.71542 0.21077 0.27064 0.0
C176 C 0.73045 0.19836 0.26857 0.0
C177 C 0.74631 0.19797 0.28228 0.0
C178 C 0.74678 0.20982 0.29821 0.0
N179 N 0.69917 0.21206 0.25718 0.0
H180 H 0.48342 0.04374 0.95263 0.0
H181 H 0.44951 0.9875 0.93998 0.0
H182 H 0.43947 0.02256 0.98632 0.0
H183 H 0.4761 0.98055 0.92684 0.0
C184 C 0.48268 0.99397 0.92205 0.0
C185 C 0.47231 0.03252 0.95597 0.0
C186 C 0.46182 0.03563 0.97087 0.0
C187 C 0.46857 0.01499 0.94511 0.0
C188 C 0.45336 0.00074 0.94865 0.0
C189 C 0.44288 0.00354 0.96349 0.0
C190 C 0.44744 0.02074 0.97471 0.0
N191 N 0.48027 0.01234 0.93072 0.0
Mg192 Mg 0.23352 0.85273 0.00563 0.0
O193 O 0.26364 0.87045 0.0025 0.0
O194 O 0.28726 0.85026 0.00769 0.0
Mg195 Mg 0.27269 0.82006 0.01269 0.0
C196 C 0.28196 0.86695 0.00401 0.0
C197 C 0.19662 0.87174 0.99626 0.0
O198 O 0.19101 0.85387 0.00021 0.0
O199 O 0.23364 0.83757 0.97774 0.0
O200 O 0.25668 0.81707 0.98388 0.0
O201 O 0.23787 0.86021 0.03523 0.0
O202 O 0.24802 0.83416 0.0221 0.0
C203 C 0.24368 0.82381 0.97295 0.0
C204 C 0.24724 0.84483 0.03657 0.0
O205 O 0.21515 0.8766 0.99551 0.0
Mg206 Mg 0.14982 0.49819 0.26734 0.0
O207 O 0.13109 0.49504 0.23942 0.0
O208 O 0.15304 0.49615 0.21928 0.0
Mg209 Mg 0.18488 0.49954 0.23353 0.0
C210 C 0.13507 0.49476 0.22318 0.0
C211 C 0.12568 0.48351 0.29687 0.0
O212 O 0.14419 0.48111 0.30294 0.0
O213 O 0.15749 0.46665 0.26432 0.0
O214 O 0.1794 0.46915 0.24414 0.0
O215 O 0.15125 0.53068 0.26719 0.0
O216 O 0.17368 0.51319 0.25693 0.0
C217 C 0.1696 0.45918 0.25469 0.0
C218 C 0.16727 0.52997 0.25932 0.0
O219 O 0.12227 0.48961 0.28134 0.0
Mg220 Mg 0.7966 0.68071 0.01726 0.0
O221 O 0.76603 0.66209 0.01134 0.0
O222 O 0.74286 0.68294 0.00825 0.0
Mg223 Mg 0.75794 0.71432 0.01297 0.0
C224 C 0.74779 0.66556 0.00826 0.0
C225 C 0.81347 0.64153 0.02427 0.0
O226 O 0.80257 0.64371 0.03751 0.0
O227 O 0.7952 0.68816 0.98783 0.0
O228 O 0.77316 0.71025 0.9874 0.0
O229 O 0.79409 0.68204 0.04675 0.0
O230 O 0.78319 0.70364 0.02877 0.0
C231 C 0.78553 0.70071 0.97977 0.0
C232 C 0.78492 0.69743 0.04456 0.0
O233 O 0.81335 0.65396 0.01245 0.0
Mg234 Mg 0.93454 0.05287 0.24499 0.0
O235 O 0.91614 0.02285 0.24066 0.0
O236 O 0.93684 0.0005 0.23531 0.0
Mg237 Mg 0.96848 0.01624 0.2359 0.0
C238 C 0.91937 0.00516 0.23731 0.0
C239 C 0.91034 0.08396 0.26127 0.0
O240 O 0.9283 0.09358 0.26244 0.0
O241 O 0.94718 0.04544 0.27306 0.0
O242 O 0.96895 0.02471 0.26596 0.0
O243 O 0.93036 0.05628 0.21544 0.0
O244 O 0.9557 0.0432 0.22924 0.0
C245 C 0.9609 0.0346 0.27757 0.0
C246 C 0.94637 0.04764 0.21446 0.0
O247 O 0.90794 0.06615 0.25526 0.0
Mg248 Mg 0.2989 0.18242 0.51456 0.0
O249 O 0.26833 0.16335 0.51026 0.0
O250 O 0.24476 0.18389 0.50865 0.0
Mg251 Mg 0.25961 0.21523 0.51059 0.0
C252 C 0.24994 0.1666 0.5086 0.0
C253 C 0.33379 0.15883 0.51794 0.0
O254 O 0.34023 0.17628 0.52564 0.0
O255 O 0.29614 0.18855 0.48486 0.0
O256 O 0.27224 0.20878 0.48391 0.0
O257 O 0.29755 0.18439 0.54404 0.0
O258 O 0.28584 0.20561 0.5259 0.0
C259 C 0.28474 0.19939 0.4763 0.0
C260 C 0.28812 0.19963 0.5418 0.0
O261 O 0.31584 0.15582 0.51044 0.0
Mg262 Mg 0.43289 0.55179 0.74144 0.0
O263 O 0.41438 0.52182 0.73668 0.0
O264 O 0.43522 0.49956 0.73142 0.0
Mg265 Mg 0.46691 0.51523 0.73232 0.0
C266 C 0.4177 0.50416 0.73328 0.0
C267 C 0.40933 0.58282 0.75842 0.0
O268 O 0.42759 0.59185 0.76023 0.0
O269 O 0.44502 0.5438 0.76945 0.0
O270 O 0.467 0.52324 0.76243 0.0
O271 O 0.42905 0.55563 0.71195 0.0
O272 O 0.45413 0.54219 0.72576 0.0
C273 C 0.45867 0.53291 0.77399 0.0
C274 C 0.44496 0.54683 0.71099 0.0
O275 O 0.40639 0.56527 0.75169 0.0
Mg276 Mg 0.73678 0.35243 0.50718 0.0
O277 O 0.76672 0.37096 0.50488 0.0
O278 O 0.79089 0.35121 0.50858 0.0
Mg279 Mg 0.77695 0.32055 0.51255 0.0
C280 C 0.78516 0.36794 0.50576 0.0
C281 C 0.72087 0.39249 0.50821 0.0
O282 O 0.73524 0.39451 0.52166 0.0
O283 O 0.73719 0.33876 0.47873 0.0
O284 O 0.76177 0.31959 0.48363 0.0
O285 O 0.74101 0.35821 0.53695 0.0
O286 O 0.75167 0.33316 0.52265 0.0
C287 C 0.74838 0.32639 0.47315 0.0
C288 C 0.75069 0.343 0.53754 0.0
O289 O 0.71856 0.37689 0.49795 0.0
Mg290 Mg 0.65261 0.99614 0.76712 0.0
O291 O 0.63366 0.99312 0.73936 0.0
O292 O 0.65527 0.99407 0.71893 0.0
Mg293 Mg 0.68724 0.99731 0.73296 0.0
C294 C 0.63739 0.99279 0.72306 0.0
C295 C 0.62832 0.98339 0.79725 0.0
O296 O 0.64691 0.98235 0.80407 0.0
O297 O 0.66006 0.96452 0.764 0.0
O298 O 0.68176 0.96695 0.74364 0.0
O299 O 0.65435 0.02866 0.76706 0.0
O300 O 0.67653 0.01098 0.75662 0.0
C301 C 0.67205 0.957 0.75426 0.0
C302 C 0.67034 0.02784 0.75916 0.0
O303 O 0.62501 0.98785 0.78114 0.0
Mg304 Mg 0.04556 0.25793 0.89291 0.0
O305 O 0.01522 0.25157 0.87519 0.0
O306 O 0.99244 0.24163 0.89301 0.0
Mg307 Mg 0.00757 0.24208 0.92164 0.0
C308 C 0.99724 0.2456 0.87761 0.0
C309 C 0.0781 0.27964 0.87461 0.0
O310 O 0.08624 0.27905 0.89123 0.0
O311 O 0.03618 0.28657 0.90438 0.0
O312 O 0.0135 0.27551 0.92192 0.0
O313 O 0.05112 0.22673 0.88882 0.0
O314 O 0.03596 0.23843 0.911 0.0
C315 C 0.02356 0.28951 0.91543 0.0
C316 C 0.04181 0.22359 0.90268 0.0
O317 O 0.05995 0.27258 0.87047 0.0
Mg318 Mg 0.54084 0.75918 0.39044 0.0
O319 O 0.51015 0.75241 0.37346 0.0
O320 O 0.48789 0.74291 0.3919 0.0
Mg321 Mg 0.5038 0.74423 0.42036 0.0
C322 C 0.49231 0.74651 0.37629 0.0
C323 C 0.57161 0.7828 0.37154 0.0
O324 O 0.57901 0.78498 0.38852 0.0
O325 O 0.53172 0.78814 0.40149 0.0
O326 O 0.50954 0.77757 0.41971 0.0
O327 O 0.54619 0.72777 0.38705 0.0
O328 O 0.53196 0.74051 0.40939 0.0
C329 C 0.51936 0.79137 0.41272 0.0
C330 C 0.53755 0.72536 0.40139 0.0
O331 O 0.55453 0.77314 0.3673 0.0
Mg332 Mg 0.99037 0.75491 0.59744 0.0
O333 O 0.02089 0.74899 0.61159 0.0
O334 O 0.04019 0.74227 0.59025 0.0
Mg335 Mg 0.02239 0.74369 0.56275 0.0
C336 C 0.03748 0.74451 0.60674 0.0
C337 C 0.98016 0.75545 0.63662 0.0
O338 O 0.98687 0.73833 0.63468 0.0
O339 O 0.00381 0.78512 0.59072 0.0
O340 O 0.02086 0.77662 0.56817 0.0
O341 O 0.97941 0.72301 0.59573 0.0
O342 O 0.99467 0.73735 0.57486 0.0
C343 C 0.01444 0.7896 0.57822 0.0
C344 C 0.9868 0.72153 0.58063 0.0
O345 O 0.98069 0.76668 0.62385 0.0
Mg346 Mg 0.49028 0.25145 0.09509 0.0
O347 O 0.51975 0.24461 0.11096 0.0
O348 O 0.54025 0.23708 0.09085 0.0
Mg349 Mg 0.52489 0.23985 0.06276 0.0
C350 C 0.53646 0.2394 0.10703 0.0
C351 C 0.46047 0.26509 0.11955 0.0
O352 O 0.44992 0.2619 0.10371 0.0
O353 O 0.5049 0.28148 0.08926 0.0
O354 O 0.52506 0.27289 0.06917 0.0
O355 O 0.47828 0.21997 0.09284 0.0
O356 O 0.49592 0.23366 0.07305 0.0
C357 C 0.51776 0.28588 0.07852 0.0
C358 C 0.48696 0.2181 0.07845 0.0
O359 O 0.47906 0.26308 0.12083 0.0
H360 H 0.22359 0.76114 0.80426 0.0
H361 H 0.22266 0.77985 0.83273 0.0
H362 H 0.24205 0.73155 0.86136 0.0
H363 H 0.24217 0.71246 0.83299 0.0
H364 H 0.21253 0.74597 0.87615 0.0
H365 H 0.27423 0.77272 0.85629 0.0
H366 H 0.29538 0.78824 0.83531 0.0
H367 H 0.26245 0.83824 0.83636 0.0
H368 H 0.24092 0.82289 0.85717 0.0
H369 H 0.25414 0.78885 0.96067 0.0
H370 H 0.24911 0.77407 0.93009 0.0
H371 H 0.22071 0.82371 0.91209 0.0
H372 H 0.22553 0.83871 0.94296 0.0
H373 H 0.25103 0.81119 0.89082 0.0
H374 H 0.19152 0.78493 0.91356 0.0
H375 H 0.17181 0.76912 0.9354 0.0
H376 H 0.2021 0.71776 0.92961 0.0
H377 H 0.22222 0.73336 0.90792 0.0
C378 C 0.22749 0.75443 0.81662 0.0
C379 C 0.23298 0.73528 0.81633 0.0
C380 C 0.22714 0.76523 0.83289 0.0
C381 C 0.23248 0.75719 0.8492 0.0
C382 C 0.23791 0.73808 0.84895 0.0
C383 C 0.23817 0.72724 0.8327 0.0
C384 C 0.23224 0.76852 0.86658 0.0
C385 C 0.22108 0.76016 0.87938 0.0
C386 C 0.24291 0.78731 0.87064 0.0
C387 C 0.25582 0.79655 0.85811 0.0
C388 C 0.27139 0.78695 0.85192 0.0
C389 C 0.28347 0.79573 0.84009 0.0
C390 C 0.28022 0.81419 0.83446 0.0
C391 C 0.26492 0.82393 0.8407 0.0
C392 C 0.25278 0.8152 0.85252 0.0
C393 C 0.2468 0.7967 0.95027 0.0
C394 C 0.24023 0.81499 0.95427 0.0
C395 C 0.24387 0.78816 0.93279 0.0
C396 C 0.23443 0.79774 0.91888 0.0
C397 C 0.22798 0.81609 0.92269 0.0
C398 C 0.23068 0.82458 0.94031 0.0
C399 C 0.23167 0.78842 0.9004 0.0
C400 C 0.24227 0.79713 0.88743 0.0
C401 C 0.22062 0.76988 0.89622 0.0
C402 C 0.20849 0.76038 0.9092 0.0
C403 C 0.1941 0.77032 0.91704 0.0
C404 C 0.18283 0.76139 0.92938 0.0
C405 C 0.18573 0.74246 0.93391 0.0
C406 C 0.19988 0.73242 0.92609 0.0
C407 C 0.2112 0.74129 0.91376 0.0
H408 H 0.17699 0.73557 0.94347 0.0
H409 H 0.28959 0.82097 0.8253 0.0
H410 H 0.9937 0.46231 0.40954 0.0
H411 H 0.01681 0.45834 0.38703 0.0
H412 H 0.02947 0.52096 0.38773 0.0
H413 H 0.00669 0.52497 0.41042 0.0
H414 H 0.01792 0.46918 0.35377 0.0
H415 H 0.07811 0.53254 0.38191 0.0
H416 H 0.09139 0.55029 0.41091 0.0
H417 H 0.07315 0.50006 0.43853 0.0
H418 H 0.06 0.48194 0.40969 0.0
H419 H 0.08698 0.4925 0.29069 0.0
H420 H 0.0621 0.49242 0.31197 0.0
H421 H 0.10335 0.46984 0.35135 0.0
H422 H 0.12834 0.47014 0.33032 0.0
H423 H 0.08818 0.4998 0.36579 0.0
H424 H 0.06197 0.44121 0.33017 0.0
H425 H 0.04965 0.42078 0.30236 0.0
H426 H 0.0018 0.45643 0.29178 0.0
H427 H 0.01401 0.47724 0.31942 0.0
C428 C 0.00143 0.47521 0.40486 0.0
C429 C 0.99853 0.49391 0.41183 0.0
C430 C 0.01455 0.47294 0.39196 0.0
C431 C 0.02505 0.48934 0.38582 0.0
C432 C 0.02179 0.50807 0.39247 0.0
C433 C 0.00872 0.51035 0.40542 0.0
C434 C 0.03968 0.48683 0.37272 0.0
C435 C 0.03328 0.4759 0.35638 0.0
C436 C 0.05982 0.49528 0.37624 0.0
C437 C 0.06789 0.50597 0.39365 0.0
C438 C 0.077 0.52527 0.39417 0.0
C439 C 0.08449 0.53539 0.41058 0.0
C440 C 0.08305 0.52633 0.42655 0.0
C441 C 0.07418 0.50709 0.42615 0.0
C442 C 0.06668 0.49689 0.40978 0.0
C443 C 0.09066 0.48727 0.3038 0.0
C444 C 0.10969 0.48141 0.30882 0.0
C445 C 0.0764 0.4872 0.31595 0.0
C446 C 0.08084 0.4811 0.33328 0.0
C447 C 0.09961 0.4747 0.3381 0.0
C448 C 0.11387 0.47482 0.32601 0.0
C449 C 0.06639 0.48233 0.34672 0.0
C450 C 0.07282 0.49309 0.36314 0.0
C451 C 0.04641 0.47338 0.3434 0.0
C452 C 0.03902 0.4609 0.32678 0.0
C453 C 0.04892 0.44479 0.32184 0.0
C454 C 0.04194 0.43312 0.30612 0.0
C455 C 0.02499 0.43733 0.29529 0.0
C456 C 0.01495 0.4532 0.30018 0.0
C457 C 0.02188 0.46492 0.31587 0.0
H458 H 0.0196 0.42827 0.28313 0.0
H459 H 0.08885 0.5342 0.43924 0.0
H460 H 0.81117 0.73877 0.81467 0.0
H461 H 0.81231 0.72264 0.84283 0.0
H462 H 0.79412 0.7739 0.86944 0.0
H463 H 0.79373 0.79032 0.84168 0.0
H464 H 0.82338 0.76063 0.88968 0.0
H465 H 0.7611 0.73238 0.8556 0.0
H466 H 0.7402 0.71454 0.8296 0.0
H467 H 0.77202 0.66435 0.83729 0.0
H468 H 0.79328 0.68201 0.86322 0.0
H469 H 0.77493 0.73212 0.9623 0.0
H470 H 0.78178 0.7409 0.93263 0.0
H471 H 0.81115 0.6889 0.92536 0.0
H472 H 0.80456 0.67995 0.95549 0.0
H473 H 0.78177 0.69817 0.89488 0.0
H474 H 0.84076 0.7261 0.93229 0.0
H475 H 0.85984 0.7445 0.95891 0.0
H476 H 0.83261 0.79601 0.94527 0.0
H477 H 0.81312 0.77784 0.91871 0.0
C478 C 0.80759 0.74666 0.82657 0.0
C479 C 0.80222 0.76581 0.82587 0.0
C480 C 0.80808 0.73735 0.84262 0.0
C481 C 0.80311 0.74698 0.85823 0.0
C482 C 0.79799 0.76615 0.85758 0.0
C483 C 0.79756 0.77545 0.84162 0.0
C484 C 0.80312 0.73731 0.87535 0.0
C485 C 0.81425 0.74699 0.89078 0.0
C486 C 0.7917 0.71919 0.87677 0.0
C487 C 0.77894 0.70859 0.86119 0.0
C488 C 0.76375 0.7176 0.85165 0.0
C489 C 0.75182 0.70751 0.83695 0.0
C490 C 0.75483 0.68835 0.83176 0.0
C491 C 0.76974 0.67921 0.84129 0.0
C492 C 0.78173 0.68925 0.856 0.0
C493 C 0.78277 0.72241 0.95445 0.0
C494 C 0.78922 0.7053 0.96134 0.0
C495 C 0.78672 0.72752 0.93748 0.0
C496 C 0.79707 0.71562 0.92688 0.0
C497 C 0.80317 0.69828 0.93341 0.0
C498 C 0.79945 0.69323 0.95061 0.0
C499 C 0.80154 0.72184 0.90913 0.0
C500 C 0.79126 0.71156 0.89364 0.0
C501 C 0.81361 0.7395 0.90764 0.0
C502 C 0.82538 0.75055 0.92356 0.0
C503 C 0.83872 0.74131 0.93504 0.0
C504 C 0.84963 0.75171 0.95011 0.0
C505 C 0.84742 0.77141 0.9538 0.0
C506 C 0.83431 0.78075 0.9424 0.0
C507 C 0.82335 0.77041 0.92732 0.0
H508 H 0.85588 0.77944 0.96547 0.0
H509 H 0.74557 0.68056 0.82037 0.0
H510 H 0.06587 0.00839 0.42161 0.0
H511 H 0.04757 0.01424 0.39296 0.0
H512 H 0.9951 0.02246 0.4192 0.0
H513 H 0.01329 0.01581 0.4479 0.0
H514 H 0.98408 0.00313 0.38823 0.0
H515 H 0.02646 0.0618 0.40704 0.0
H516 H 0.05804 0.08211 0.41823 0.0
H517 H 0.08395 0.06385 0.37127 0.0
H518 H 0.05265 0.04317 0.35993 0.0
H519 H 0.94264 0.04444 0.30733 0.0
H520 H 0.95546 0.04203 0.33892 0.0
H521 H 0.00877 0.02042 0.32254 0.0
H522 H 0.99613 0.02251 0.29123 0.0
H523 H 0.01615 0.05068 0.35043 0.0
H524 H 0.97423 0.9892 0.33405 0.0
H525 H 0.9423 0.96927 0.32325 0.0
H526 H 0.91471 0.99486 0.36634 0.0
H527 H 0.94644 0.01515 0.37726 0.0
C528 C 0.05041 0.01139 0.42123 0.0
C529 C 0.04102 0.01182 0.43695 0.0
C530 C 0.03999 0.01485 0.40488 0.0
C531 C 0.02009 0.01933 0.40396 0.0
C532 C 0.01047 0.01918 0.41958 0.0
C533 C 0.02084 0.01538 0.43594 0.0
C534 C 0.00954 0.02423 0.38666 0.0
C535 C 0.99093 0.01382 0.38014 0.0
C536 C 0.01843 0.03816 0.37602 0.0
C537 C 0.03722 0.05083 0.38268 0.0
C538 C 0.03893 0.06203 0.39914 0.0
C539 C 0.05679 0.07361 0.40551 0.0
C540 C 0.073 0.07425 0.39548 0.0
C541 C 0.07138 0.06334 0.37903 0.0
C542 C 0.05357 0.0517 0.37261 0.0
C543 C 0.95709 0.03921 0.3105 0.0
C544 C 0.96831 0.0336 0.29675 0.0
C545 C 0.96436 0.0378 0.32851 0.0
C546 C 0.98305 0.03103 0.33302 0.0
C547 C 0.99434 0.02572 0.31934 0.0
C548 C 0.98701 0.02684 0.30143 0.0
C549 C 0.99109 0.02922 0.35191 0.0
C550 C 0.0092 0.04027 0.35871 0.0
C551 C 0.98164 0.01609 0.36286 0.0
C552 C 0.96262 0.00387 0.35632 0.0
C553 C 0.9613 0.99071 0.34112 0.0
C554 C 0.94325 0.97932 0.335 0.0
C555 C 0.92647 0.98085 0.34406 0.0
C556 C 0.92771 0.99372 0.35931 0.0
C557 C 0.94572 0.00517 0.36547 0.0
H558 H 0.91251 0.97201 0.33931 0.0
H559 H 0.08682 0.08321 0.40042 0.0
H560 H 0.24248 0.27724 0.69104 0.0
H561 H 0.24609 0.25501 0.6652 0.0
H562 H 0.25008 0.30374 0.63204 0.0
H563 H 0.24654 0.32603 0.65784 0.0
H564 H 0.22579 0.26954 0.61526 0.0
H565 H 0.29134 0.28885 0.64808 0.0
H566 H 0.31592 0.29276 0.67516 0.0
H567 H 0.30806 0.23089 0.68022 0.0
H568 H 0.28318 0.22666 0.6533 0.0
H569 H 0.27398 0.23527 0.54277 0.0
H570 H 0.26279 0.25281 0.56828 0.0
H571 H 0.27238 0.20411 0.60035 0.0
H572 H 0.28423 0.18674 0.57498 0.0
H573 H 0.28754 0.23606 0.6186 0.0
H574 H 0.22434 0.21564 0.58471 0.0
H575 H 0.19927 0.21099 0.55798 0.0
H576 H 0.20137 0.27311 0.55524 0.0
H577 H 0.22668 0.27815 0.58181 0.0
C578 C 0.2438 0.28314 0.67817 0.0
C579 C 0.24434 0.30334 0.67643 0.0
C580 C 0.24593 0.27046 0.66346 0.0
C581 C 0.24846 0.27778 0.64677 0.0
C582 C 0.24812 0.29783 0.64482 0.0
C583 C 0.24623 0.31053 0.65956 0.0
C584 C 0.25278 0.26478 0.63163 0.0
C585 C 0.23933 0.26229 0.61588 0.0
C586 C 0.27019 0.25495 0.6327 0.0
C587 C 0.28523 0.25747 0.64881 0.0
C588 C 0.29472 0.2761 0.65506 0.0
C589 C 0.30873 0.27837 0.67036 0.0
C590 C 0.31351 0.26209 0.67943 0.0
C591 C 0.30432 0.24349 0.6732 0.0
C592 C 0.29027 0.24115 0.65792 0.0
C593 C 0.27349 0.2282 0.55519 0.0
C594 C 0.27997 0.20961 0.55686 0.0
C595 C 0.26699 0.23821 0.56976 0.0
C596 C 0.26646 0.2297 0.58621 0.0
C597 C 0.27263 0.21099 0.58781 0.0
C598 C 0.27936 0.20106 0.57329 0.0
C599 C 0.26059 0.24079 0.602 0.0
C600 C 0.27382 0.24303 0.61793 0.0
C601 C 0.24286 0.25021 0.60111 0.0
C602 C 0.22754 0.24726 0.58518 0.0
C603 C 0.21957 0.22831 0.57834 0.0
C604 C 0.2053 0.2256 0.56323 0.0
C605 C 0.19876 0.24174 0.5549 0.0
C606 C 0.20646 0.26062 0.5617 0.0
C607 C 0.22075 0.26341 0.5768 0.0
H608 H 0.18772 0.23962 0.5432 0.0
H609 H 0.32436 0.26387 0.69128 0.0
H610 H 0.49176 0.52043 0.54939 0.0
H611 H 0.47527 0.52346 0.57658 0.0
H612 H 0.53022 0.51493 0.6086 0.0
H613 H 0.54697 0.51227 0.58153 0.0
H614 H 0.49675 0.49449 0.61987 0.0
H615 H 0.51774 0.55985 0.60487 0.0
H616 H 0.51969 0.5869 0.58498 0.0
H617 H 0.4557 0.58606 0.57982 0.0
H618 H 0.45335 0.55879 0.59949 0.0
H619 H 0.48034 0.53307 0.70535 0.0
H620 H 0.49273 0.52558 0.67679 0.0
H621 H 0.43825 0.54137 0.64859 0.0
H622 H 0.42591 0.54932 0.67726 0.0
H623 H 0.46936 0.55684 0.63431 0.0
H624 H 0.44799 0.49302 0.65057 0.0
H625 H 0.44552 0.46578 0.67022 0.0
H626 H 0.50892 0.46305 0.67259 0.0
H627 H 0.51183 0.49048 0.65317 0.0
C628 C 0.50037 0.51923 0.56221 0.0
C629 C 0.52076 0.51627 0.56326 0.0
C630 C 0.49089 0.52089 0.57773 0.0
C631 C 0.50158 0.51963 0.59462 0.0
C632 C 0.52169 0.51592 0.59569 0.0
C633 C 0.53122 0.51433 0.58018 0.0
C634 C 0.49206 0.52299 0.61122 0.0
C635 C 0.49092 0.50817 0.62314 0.0
C636 C 0.48396 0.54065 0.61521 0.0
C637 C 0.48536 0.55714 0.60349 0.0
C638 C 0.50408 0.56533 0.59938 0.0
C639 C 0.50525 0.58072 0.58817 0.0
C640 C 0.48782 0.58816 0.5811 0.0
C641 C 0.46918 0.58026 0.58528 0.0
C642 C 0.46792 0.56484 0.59647 0.0
C643 C 0.47088 0.53477 0.69309 0.0
C644 C 0.45207 0.54167 0.69358 0.0
C645 C 0.47797 0.53042 0.67674 0.0
C646 C 0.46631 0.5326 0.66049 0.0
C647 C 0.4475 0.5395 0.66094 0.0
C648 C 0.44045 0.544 0.67733 0.0
C649 C 0.47412 0.52837 0.64312 0.0
C650 C 0.47499 0.54306 0.63103 0.0
C651 C 0.48185 0.51053 0.63893 0.0
C652 C 0.48015 0.49393 0.65053 0.0
C653 C 0.46143 0.48671 0.65538 0.0
C654 C 0.45995 0.47122 0.66647 0.0
C655 C 0.47706 0.46272 0.67268 0.0
C656 C 0.49568 0.46966 0.66778 0.0
C657 C 0.49726 0.48517 0.65672 0.0
H658 H 0.47588 0.45073 0.68125 0.0
H659 H 0.48876 0.60007 0.57242 0.0
H660 H 0.80296 0.24423 0.6653 0.0
H661 H 0.79642 0.26245 0.63882 0.0
H662 H 0.80832 0.31666 0.67175 0.0
H663 H 0.81523 0.29842 0.69841 0.0
H664 H 0.77141 0.31199 0.64751 0.0
H665 H 0.84163 0.30784 0.64693 0.0
H666 H 0.87228 0.29118 0.64816 0.0
H667 H 0.84783 0.25493 0.60087 0.0
H668 H 0.81689 0.27116 0.59951 0.0
H669 H 0.75877 0.36468 0.56965 0.0
H670 H 0.77329 0.35415 0.59824 0.0
H671 H 0.77834 0.29747 0.57263 0.0
H672 H 0.7646 0.30815 0.54398 0.0
H673 H 0.80986 0.3076 0.59523 0.0
H674 H 0.73878 0.30724 0.59762 0.0
H675 H 0.70668 0.32149 0.59623 0.0
H676 H 0.73093 0.36347 0.63961 0.0
H677 H 0.76327 0.34959 0.64111 0.0
C678 C 0.80425 0.26003 0.66692 0.0
C679 C 0.8095 0.26997 0.68389 0.0
C680 C 0.8006 0.2704 0.65178 0.0
C681 C 0.80199 0.29087 0.65337 0.0
C682 C 0.80724 0.30086 0.6703 0.0
C683 C 0.81119 0.29047 0.68544 0.0
C684 C 0.79722 0.30161 0.63732 0.0
C685 C 0.78003 0.31143 0.63619 0.0
C686 C 0.80824 0.30038 0.62248 0.0
C687 C 0.82687 0.29063 0.6232 0.0
C688 C 0.84271 0.2962 0.63688 0.0
C689 C 0.86015 0.28686 0.63758 0.0
C690 C 0.86198 0.27198 0.62462 0.0
C691 C 0.84638 0.26645 0.61091 0.0
C692 C 0.8289 0.27573 0.61015 0.0
C693 C 0.76314 0.35003 0.57012 0.0
C694 C 0.76048 0.3372 0.55461 0.0
C695 C 0.77136 0.344 0.58647 0.0
C696 C 0.7766 0.3249 0.58767 0.0
C697 C 0.77443 0.31228 0.57206 0.0
C698 C 0.76653 0.31839 0.55569 0.0
C699 C 0.78372 0.31768 0.60518 0.0
C700 C 0.80137 0.30849 0.60661 0.0
C701 C 0.77292 0.3192 0.62021 0.0
C702 C 0.7535 0.32754 0.61933 0.0
C703 C 0.7373 0.3196 0.60677 0.0
C704 C 0.71906 0.3276 0.60598 0.0
C705 C 0.71679 0.34342 0.61778 0.0
C706 C 0.73273 0.35124 0.63045 0.0
C707 C 0.75101 0.34332 0.63128 0.0
H708 H 0.70265 0.34959 0.61715 0.0
H709 H 0.8755 0.26477 0.62519 0.0
H710 H 0.48518 0.00186 0.60141 0.0
H711 H 0.50655 0.99967 0.62957 0.0
H712 H 0.5574 0.99499 0.60028 0.0
H713 H 0.53627 0.9974 0.5722 0.0
H714 H 0.55467 0.96746 0.62435 0.0
H715 H 0.5515 0.03716 0.62387 0.0
H716 H 0.53423 0.06693 0.62261 0.0
H717 H 0.50757 0.05307 0.67009 0.0
H718 H 0.52448 0.02306 0.67149 0.0
H719 H 0.63967 0.98904 0.68705 0.0
H720 H 0.6128 0.98877 0.66271 0.0
H721 H 0.57016 0.99364 0.70087 0.0
H722 H 0.59719 0.99416 0.72557 0.0
H723 H 0.56487 0.01874 0.67461 0.0
H724 H 0.57059 0.95085 0.67698 0.0
H725 H 0.58773 0.92102 0.67842 0.0
H726 H 0.60895 0.93089 0.6277 0.0
H727 H 0.59218 0.96095 0.62607 0.0
C728 C 0.50097 0.00064 0.601 0.0
C729 C 0.509 0.99973 0.58453 0.0
C730 C 0.51315 0.99932 0.61709 0.0
C731 C 0.53358 0.99717 0.61703 0.0
C732 C 0.54164 0.99649 0.60064 0.0
C733 C 0.52953 0.99783 0.58459 0.0
C734 C 0.54666 0.99531 0.63391 0.0
C735 C 0.55702 0.97874 0.63529 0.0
C736 C 0.54916 0.00968 0.64846 0.0
C737 C 0.53907 0.02776 0.64766 0.0
C738 C 0.54182 0.04038 0.63395 0.0
C739 C 0.53212 0.05731 0.63323 0.0
C740 C 0.51976 0.06186 0.64623 0.0
C741 C 0.51712 0.04951 0.66001 0.0
C742 C 0.52677 0.03255 0.66078 0.0
C743 C 0.6246 0.98995 0.69038 0.0
C744 C 0.62064 0.99159 0.70834 0.0
C745 C 0.6092 0.9897 0.67638 0.0
C746 C 0.58941 0.99096 0.67994 0.0
C747 C 0.58531 0.99259 0.69782 0.0
C748 C 0.60077 0.9928 0.71191 0.0
C749 C 0.5733 0.99113 0.66483 0.0
C750 C 0.56233 0.00733 0.66379 0.0
C751 C 0.57016 0.97637 0.65059 0.0
C752 C 0.58023 0.95825 0.65147 0.0
C753 C 0.57903 0.94675 0.66619 0.0
C754 C 0.58866 0.92978 0.66703 0.0
C755 C 0.59945 0.92408 0.65317 0.0
C756 C 0.60059 0.93532 0.63843 0.0
C757 C 0.59101 0.95232 0.63753 0.0
H758 H 0.60689 0.91094 0.65385 0.0
H759 H 0.51226 0.07498 0.64564 0.0
H760 H 0.83321 0.21415 0.77559 0.0
H761 H 0.86312 0.22045 0.79735 0.0
H762 H 0.89865 0.23583 0.75508 0.0
H763 H 0.8688 0.22897 0.73308 0.0
H764 H 0.91737 0.21264 0.77785 0.0
H765 H 0.88596 0.27121 0.7829 0.0
H766 H 0.8582 0.29116 0.78639 0.0
H767 H 0.85204 0.2697 0.83806 0.0
H768 H 0.87959 0.24939 0.83478 0.0
H769 H 0.00079 0.25165 0.84225 0.0
H770 H 0.97395 0.24835 0.8172 0.0
H771 H 0.93085 0.23124 0.85306 0.0
H772 H 0.95734 0.23463 0.87808 0.0
H773 H 0.91781 0.25824 0.83148 0.0
H774 H 0.94748 0.19769 0.82503 0.0
H775 H 0.9751 0.1776 0.82131 0.0
H776 H 0.98469 0.20327 0.772 0.0
H777 H 0.95728 0.22371 0.77556 0.0
C778 C 0.84741 0.2187 0.77088 0.0
C779 C 0.84863 0.22109 0.75261 0.0
C780 C 0.86446 0.22247 0.78336 0.0
C781 C 0.88306 0.22886 0.77786 0.0
C782 C 0.88442 0.23101 0.75961 0.0
C783 C 0.86733 0.22724 0.74709 0.0
C784 C 0.90103 0.23318 0.79125 0.0
C785 C 0.91763 0.22287 0.78942 0.0
C786 C 0.90125 0.24637 0.80644 0.0
C787 C 0.88475 0.25866 0.80853 0.0
C788 C 0.87859 0.27063 0.79495 0.0
C789 C 0.86291 0.28203 0.7969 0.0
C790 C 0.85334 0.28167 0.81242 0.0
C791 C 0.85946 0.26995 0.82604 0.0
C792 C 0.87513 0.25851 0.82415 0.0
C793 C 0.9856 0.24716 0.8448 0.0
C794 C 0.98126 0.2434 0.86221 0.0
C795 C 0.9703 0.24523 0.83046 0.0
C796 C 0.95042 0.23946 0.83327 0.0
C797 C 0.94608 0.23576 0.8506 0.0
C798 C 0.9613 0.23764 0.86489 0.0
C799 C 0.93396 0.23737 0.81829 0.0
C800 C 0.91764 0.24816 0.81981 0.0
C801 C 0.93404 0.22468 0.80282 0.0
C802 C 0.9505 0.21239 0.80067 0.0
C803 C 0.9556 0.19917 0.81348 0.0
C804 C 0.97119 0.1877 0.81138 0.0
C805 C 0.98169 0.1892 0.79646 0.0
C806 C 0.97657 0.20215 0.78357 0.0
C807 C 0.96101 0.21367 0.78562 0.0
H808 H 0.99375 0.1803 0.79485 0.0
H809 H 0.8412 0.2905 0.8139 0.0
H810 H 0.4754 0.94343 0.49995 0.0
H811 H 0.47712 0.91533 0.47894 0.0
H812 H 0.54146 0.9272 0.48412 0.0
H813 H 0.53986 0.9553 0.50533 0.0
H814 H 0.52269 0.9169 0.44785 0.0
H815 H 0.52377 0.89393 0.50735 0.0
H816 H 0.51105 0.89008 0.53654 0.0
H817 H 0.45532 0.86141 0.50996 0.0
H818 H 0.46762 0.86535 0.48059 0.0
H819 H 0.54732 0.82337 0.4163 0.0
H820 H 0.54443 0.85541 0.43105 0.0
H821 H 0.48271 0.83709 0.43721 0.0
H822 H 0.48589 0.80486 0.42331 0.0
H823 H 0.50005 0.8517 0.46723 0.0
H824 H 0.49823 0.873 0.40782 0.0
H825 H 0.50969 0.87715 0.37817 0.0
H826 H 0.56461 0.90903 0.40313 0.0
H827 H 0.55359 0.90484 0.43295 0.0
C828 C 0.4899 0.94018 0.4965 0.0
C829 C 0.50755 0.95148 0.5043 0.0
C830 C 0.49085 0.92413 0.4845 0.0
C831 C 0.50942 0.91919 0.48006 0.0
C832 C 0.52699 0.93084 0.48736 0.0
C833 C 0.52607 0.94678 0.4995 0.0
C834 C 0.51055 0.90115 0.4687 0.0
C835 C 0.51793 0.90258 0.45208 0.0
C836 C 0.5039 0.8826 0.47412 0.0
C837 C 0.49653 0.88012 0.49178 0.0
C838 C 0.50874 0.88696 0.50773 0.0
C839 C 0.50162 0.88473 0.5243 0.0
C840 C 0.48237 0.87555 0.5251 0.0
C841 C 0.47021 0.86854 0.50932 0.0
C842 C 0.47726 0.87075 0.49271 0.0
C843 C 0.53306 0.82636 0.42051 0.0
C844 C 0.51687 0.81163 0.41879 0.0
C845 C 0.53137 0.8447 0.42888 0.0
C846 C 0.51331 0.84875 0.43523 0.0
C847 C 0.49685 0.83431 0.43258 0.0
C848 C 0.49865 0.81591 0.42459 0.0
C849 C 0.51197 0.86725 0.44605 0.0
C850 C 0.50468 0.86594 0.46275 0.0
C851 C 0.51848 0.88588 0.44054 0.0
C852 C 0.52515 0.88844 0.42263 0.0
C853 C 0.51282 0.88076 0.40699 0.0
C854 C 0.51923 0.88315 0.39016 0.0
C855 C 0.53789 0.8933 0.38877 0.0
C856 C 0.55017 0.90114 0.40422 0.0
C857 C 0.54384 0.89879 0.42109 0.0
H858 H 0.54282 0.89513 0.37572 0.0
H859 H 0.47688 0.87384 0.53795 0.0
H860 H 0.17886 0.31457 0.74018 0.0
H861 H 0.15308 0.30687 0.75995 0.0
H862 H 0.19641 0.32397 0.80615 0.0
H863 H 0.22217 0.33182 0.78648 0.0
H864 H 0.1743 0.28797 0.80829 0.0
H865 H 0.16286 0.35356 0.79425 0.0
H866 H 0.15582 0.37947 0.77406 0.0
H867 H 0.10023 0.34653 0.75214 0.0
H868 H 0.10709 0.32027 0.77204 0.0
H869 H 0.11718 0.29519 0.87962 0.0
H870 H 0.13885 0.30364 0.85682 0.0
H871 H 0.08939 0.28795 0.81544 0.0
H872 H 0.0674 0.27956 0.8383 0.0
H873 H 0.11261 0.32124 0.80871 0.0
H874 H 0.12265 0.25646 0.82309 0.0
H875 H 0.12923 0.22988 0.84263 0.0
H876 H 0.18684 0.25999 0.86276 0.0
H877 H 0.18048 0.28691 0.84352 0.0
C878 C 0.18286 0.31672 0.75455 0.0
C879 C 0.20252 0.32373 0.76185 0.0
C880 C 0.16811 0.31238 0.76581 0.0
C881 C 0.17284 0.3149 0.7845 0.0
C882 C 0.19247 0.3219 0.79176 0.0
C883 C 0.20714 0.32641 0.78054 0.0
C884 C 0.15753 0.30988 0.79661 0.0
C885 C 0.16092 0.29538 0.80851 0.0
C886 C 0.13974 0.31908 0.79644 0.0
C887 C 0.1356 0.33485 0.78448 0.0
C888 C 0.14923 0.35175 0.785 0.0
C889 C 0.14525 0.36652 0.77364 0.0
C890 C 0.12762 0.36462 0.76178 0.0
C891 C 0.1139 0.34797 0.7613 0.0
C892 C 0.11782 0.33314 0.77263 0.0
C893 C 0.1108 0.29366 0.86569 0.0
C894 C 0.09058 0.28652 0.86078 0.0
C895 C 0.12325 0.29845 0.85266 0.0
C896 C 0.11582 0.29609 0.83442 0.0
C897 C 0.09544 0.28978 0.82945 0.0
C898 C 0.08292 0.28497 0.84252 0.0
C899 C 0.12962 0.29963 0.82066 0.0
C900 C 0.12594 0.31375 0.80841 0.0
C901 C 0.14709 0.28996 0.82038 0.0
C902 C 0.15101 0.27379 0.83198 0.0
C903 C 0.13666 0.2575 0.83179 0.0
C904 C 0.14036 0.24235 0.8428 0.0
C905 C 0.15842 0.24327 0.85396 0.0
C906 C 0.17284 0.25931 0.85411 0.0
C907 C 0.16921 0.27451 0.84315 0.0
H908 H 0.16127 0.23152 0.86247 0.0
H909 H 0.12456 0.37608 0.753 0.0
H910 H 0.57737 0.58361 0.49064 0.0
H911 H 0.57169 0.61041 0.47165 0.0
H912 H 0.50956 0.58725 0.45905 0.0
H913 H 0.51505 0.56102 0.47898 0.0
H914 H 0.56241 0.61352 0.4389 0.0
H915 H 0.48068 0.62343 0.44969 0.0
H916 H 0.45753 0.6182 0.47253 0.0
H917 H 0.50734 0.62406 0.51389 0.0
H918 H 0.53074 0.62955 0.49133 0.0
H919 H 0.53734 0.6892 0.38408 0.0
H920 H 0.53491 0.6576 0.39734 0.0
H921 H 0.53001 0.68682 0.44879 0.0
H922 H 0.53122 0.71807 0.4354 0.0
H923 H 0.5079 0.65513 0.44661 0.0
H924 H 0.57602 0.67221 0.43488 0.0
H925 H 0.60289 0.68084 0.41618 0.0
H926 H 0.58679 0.6268 0.38402 0.0
H927 H 0.55966 0.61796 0.40243 0.0
C928 C 0.56249 0.58432 0.48385 0.0
C929 C 0.5466 0.57047 0.48641 0.0
C930 C 0.55926 0.59957 0.47292 0.0
C931 C 0.54013 0.60106 0.46402 0.0
C932 C 0.52434 0.58674 0.46609 0.0
C933 C 0.52749 0.57172 0.47741 0.0
C934 C 0.5369 0.61784 0.45293 0.0
C935 C 0.55041 0.62255 0.44056 0.0
C936 C 0.52137 0.62979 0.4551 0.0
C937 C 0.50744 0.62664 0.4688 0.0
C938 C 0.48667 0.62363 0.46367 0.0
C939 C 0.47351 0.62063 0.47656 0.0
C940 C 0.48096 0.62072 0.49464 0.0
C941 C 0.50159 0.62391 0.49988 0.0
C942 C 0.5148 0.62695 0.48704 0.0
C943 C 0.53549 0.68878 0.39816 0.0
C944 C 0.5346 0.70607 0.40874 0.0
C945 C 0.5342 0.67074 0.40576 0.0
C946 C 0.5327 0.6698 0.42418 0.0
C947 C 0.53113 0.68706 0.43456 0.0
C948 C 0.53191 0.70497 0.4269 0.0
C949 C 0.53381 0.65117 0.43304 0.0
C950 C 0.51976 0.64598 0.44483 0.0
C951 C 0.5494 0.63927 0.43095 0.0
C952 C 0.56568 0.64455 0.41988 0.0
C953 C 0.57813 0.66224 0.42374 0.0
C954 C 0.59342 0.66716 0.41321 0.0
C955 C 0.5965 0.65441 0.39888 0.0
C956 C 0.58435 0.63668 0.3951 0.0
C957 C 0.56903 0.63171 0.40557 0.0
H958 H 0.60835 0.65824 0.39075 0.0
H959 H 0.47075 0.61838 0.5046 0.0
H960 H 0.87227 0.74393 0.76486 0.0
H961 H 0.89722 0.74466 0.74363 0.0
H962 H 0.87824 0.79855 0.72516 0.0
H963 H 0.85306 0.79771 0.74617 0.0
H964 H 0.88213 0.77382 0.69756 0.0
H965 H 0.92276 0.79791 0.75199 0.0
H966 H 0.93641 0.79787 0.78374 0.0
H967 H 0.96046 0.74378 0.77262 0.0
H968 H 0.94672 0.74336 0.74083 0.0
H969 H 0.96098 0.78785 0.64338 0.0
H970 H 0.94034 0.79362 0.66751 0.0
H971 H 0.95446 0.73959 0.68921 0.0
H972 H 0.97534 0.73388 0.66537 0.0
H973 H 0.95388 0.76742 0.71565 0.0
H974 H 0.91086 0.74197 0.66209 0.0
H975 H 0.89689 0.74152 0.63036 0.0
H976 H 0.87714 0.798 0.64007 0.0
H977 H 0.89123 0.79889 0.67183 0.0
C978 C 0.8735 0.75597 0.75631 0.0
C979 C 0.86074 0.77073 0.75717 0.0
C980 C 0.88783 0.75643 0.74426 0.0
C981 C 0.8898 0.77179 0.73293 0.0
C982 C 0.87704 0.78658 0.73378 0.0
C983 C 0.86267 0.78609 0.74582 0.0
C984 C 0.90469 0.77202 0.71979 0.0
C985 C 0.89789 0.77279 0.70157 0.0
C986 C 0.9252 0.77028 0.72494 0.0
C987 C 0.93356 0.77053 0.74404 0.0
C988 C 0.93083 0.78593 0.75633 0.0
C989 C 0.93861 0.78601 0.77434 0.0
C990 C 0.94926 0.77081 0.7802 0.0
C991 C 0.9522 0.75554 0.76806 0.0
C992 C 0.94444 0.75538 0.75004 0.0
C993 C 0.95993 0.77733 0.65343 0.0
C994 C 0.96967 0.7603 0.65233 0.0
C995 C 0.94804 0.7806 0.66717 0.0
C996 C 0.94556 0.76686 0.67999 0.0
C997 C 0.95608 0.75036 0.67943 0.0
C998 C 0.96798 0.74709 0.66574 0.0
C999 C 0.93126 0.76906 0.69345 0.0
C1000 C 0.93816 0.76868 0.7117 0.0
C1001 C 0.91083 0.77113 0.68833 0.0
C1002 C 0.9023 0.77059 0.66927 0.0
C1003 C 0.90367 0.75436 0.65742 0.0
C1004 C 0.89571 0.75401 0.63944 0.0
C1005 C 0.88619 0.76975 0.63319 0.0
C1006 C 0.88456 0.78584 0.64493 0.0
C1007 C 0.89252 0.78627 0.66292 0.0
H1008 H 0.88003 0.76946 0.61927 0.0
H1009 H 0.95526 0.77089 0.79415 0.0
H1010 H 0.04192 0.94079 0.49573 0.0
H1011 H 0.03356 0.91112 0.51053 0.0
H1012 H 0.04785 0.94324 0.56215 0.0
H1013 H 0.05708 0.97297 0.54726 0.0
H1014 H 0.06198 0.91011 0.56407 0.0
H1015 H 0.9981 0.928 0.54354 0.0
H1016 H 0.97137 0.93837 0.52238 0.0
H1017 H 0.97067 0.88556 0.48898 0.0
H1018 H 0.9976 0.87498 0.5098 0.0
H1019 H 0.01361 0.82284 0.60029 0.0
H1020 H 0.01946 0.85696 0.59253 0.0
H1021 H 0.02931 0.83697 0.5392 0.0
H1022 H 0.02405 0.80319 0.54683 0.0
H1023 H 0.99986 0.86641 0.54291 0.0
H1024 H 0.06777 0.85195 0.56342 0.0
H1025 H 0.09337 0.84229 0.58614 0.0
H1026 H 0.08381 0.89022 0.62214 0.0
H1027 H 0.05792 0.89999 0.59969 0.0
C1028 C 0.04318 0.94159 0.51023 0.0
C1029 C 0.04997 0.95923 0.52037 0.0
C1030 C 0.03828 0.92461 0.5187 0.0
C1031 C 0.03961 0.92496 0.53749 0.0
C1032 C 0.04657 0.94258 0.54765 0.0
C1033 C 0.05178 0.95955 0.53916 0.0
C1034 C 0.03426 0.90676 0.54637 0.0
C1035 C 0.04818 0.90079 0.55967 0.0
C1036 C 0.01624 0.8945 0.54077 0.0
C1037 C 0.99998 0.90075 0.52819 0.0
C1038 C 0.99234 0.91865 0.53162 0.0
C1039 C 0.97714 0.92456 0.51969 0.0
C1040 C 0.96935 0.91265 0.50433 0.0
C1041 C 0.97672 0.89477 0.50088 0.0
C1042 C 0.99194 0.8888 0.51276 0.0
C1043 C 0.01713 0.82577 0.58696 0.0
C1044 C 0.01844 0.8103 0.57421 0.0
C1045 C 0.02047 0.84521 0.58257 0.0
C1046 C 0.02476 0.84938 0.56528 0.0
C1047 C 0.02598 0.834 0.55259 0.0
C1048 C 0.02307 0.8147 0.55704 0.0
C1049 C 0.02781 0.8697 0.56005 0.0
C1050 C 0.01343 0.87601 0.54748 0.0
C1051 C 0.04516 0.88239 0.56657 0.0
C1052 C 0.06073 0.87653 0.57999 0.0
C1053 C 0.07097 0.86029 0.57625 0.0
C1054 C 0.08557 0.85483 0.58906 0.0
C1055 C 0.09016 0.86559 0.6056 0.0
C1056 C 0.0802 0.88187 0.60934 0.0
C1057 C 0.06557 0.88738 0.59658 0.0
H1058 H 0.10148 0.86134 0.61549 0.0
H1059 H 0.95758 0.91725 0.49511 0.0
H1060 H 0.19455 0.69886 0.70088 0.0
H1061 H 0.16656 0.7054 0.67929 0.0
H1062 H 0.1388 0.73202 0.7221 0.0
H1063 H 0.16656 0.72532 0.74373 0.0
H1064 H 0.11168 0.70825 0.69935 0.0
H1065 H 0.16332 0.76015 0.69443 0.0
H1066 H 0.19726 0.77441 0.69012 0.0
H1067 H 0.19142 0.74461 0.63774 0.0
H1068 H 0.15754 0.72995 0.64184 0.0
H1069 H 0.04006 0.75251 0.64316 0.0
H1070 H 0.06735 0.74696 0.6658 0.0
H1071 H 0.09931 0.72337 0.62441 0.0
H1072 H 0.07245 0.72937 0.60171 0.0
H1073 H 0.1242 0.74651 0.64725 0.0
H1074 H 0.07307 0.69388 0.65226 0.0
H1075 H 0.0392 0.67931 0.65645 0.0
H1076 H 0.04409 0.70997 0.70838 0.0
H1077 H 0.07791 0.72493 0.7044 0.0
C1078 C 0.18243 0.70606 0.70566 0.0
C1079 C 0.1828 0.71166 0.72394 0.0
C1080 C 0.16651 0.70986 0.69333 0.0
C1081 C 0.1507 0.71942 0.69906 0.0
C1082 C 0.15085 0.72467 0.71738 0.0
C1083 C 0.16678 0.72088 0.72972 0.0
C1084 C 0.13408 0.72405 0.68593 0.0
C1085 C 0.11438 0.71684 0.68808 0.0
C1086 C 0.13763 0.73493 0.67105 0.0
C1087 C 0.15797 0.74381 0.66852 0.0
C1088 C 0.16933 0.75652 0.68205 0.0
C1089 C 0.18855 0.7647 0.67963 0.0
C1090 C 0.19651 0.76038 0.66368 0.0
C1091 C 0.18524 0.74792 0.6501 0.0
C1092 C 0.16603 0.73969 0.65245 0.0
C1093 C 0.05291 0.74616 0.63887 0.0
C1094 C 0.05402 0.74136 0.6206 0.0
C1095 C 0.06847 0.7429 0.65185 0.0
C1096 C 0.0853 0.73449 0.64685 0.0
C1097 C 0.0865 0.72987 0.62862 0.0
C1098 C 0.07108 0.73329 0.61564 0.0
C1099 C 0.10176 0.73055 0.66052 0.0
C1100 C 0.12146 0.73793 0.65851 0.0
C1101 C 0.0982 0.71976 0.67549 0.0
C1102 C 0.07793 0.71067 0.67795 0.0
C1103 C 0.06686 0.69762 0.66452 0.0
C1104 C 0.04769 0.68928 0.66687 0.0
C1105 C 0.03948 0.69376 0.68265 0.0
C1106 C 0.05046 0.70654 0.69615 0.0
C1107 C 0.06963 0.71494 0.69387 0.0
H1108 H 0.02462 0.68729 0.68444 0.0
H1109 H 0.21139 0.76673 0.66184 0.0
H1110 H 0.99631 0.55982 0.48632 0.0
H1111 H 0.00176 0.59041 0.50531 0.0
H1112 H 0.93819 0.59481 0.49882 0.0
H1113 H 0.93272 0.56465 0.47938 0.0
H1114 H 0.95808 0.62918 0.49599 0.0
H1115 H 0.96134 0.57894 0.53705 0.0
H1116 H 0.97346 0.54969 0.5499 0.0
H1117 H 0.0329 0.57955 0.56079 0.0
H1118 H 0.02117 0.6089 0.54776 0.0
H1119 H 0.9719 0.68553 0.58966 0.0
H1120 H 0.96845 0.65455 0.57135 0.0
H1121 H 0.99711 0.68339 0.5302 0.0
H1122 H 1.0001 0.71439 0.54812 0.0
H1123 H 0.99381 0.63198 0.5575 0.0
H1124 H 0.97484 0.66476 0.48951 0.0
H1125 H 0.95957 0.6931 0.47777 0.0
H1126 H 0.92586 0.69638 0.52275 0.0
H1127 H 0.94072 0.66792 0.53462 0.0
C1128 C 0.98353 0.56743 0.48876 0.0
C1129 C 0.96407 0.55975 0.48141 0.0
C1130 C 0.98664 0.58481 0.49976 0.0
C1131 C 0.97035 0.59477 0.50368 0.0
C1132 C 0.95098 0.58734 0.49604 0.0
C1133 C 0.94786 0.57002 0.48505 0.0
C1134 C 0.97339 0.61292 0.51575 0.0
C1135 C 0.96596 0.62979 0.50941 0.0
C1136 C 0.98333 0.61365 0.53339 0.0
C1137 C 0.99042 0.59605 0.54127 0.0
C1138 C 0.97702 0.57922 0.54205 0.0
C1139 C 0.98382 0.56263 0.54939 0.0
C1140 C 0.00395 0.56275 0.55611 0.0
C1141 C 0.01732 0.57947 0.55555 0.0
C1142 C 0.0106 0.59609 0.54821 0.0
C1143 C 0.97759 0.68525 0.57676 0.0
C1144 C 0.98622 0.70246 0.57034 0.0
C1145 C 0.97567 0.66751 0.56635 0.0
C1146 C 0.98229 0.6667 0.54931 0.0
C1147 C 0.99161 0.68372 0.54319 0.0
C1148 C 0.99344 0.70144 0.55353 0.0
C1149 C 0.97874 0.64827 0.53763 0.0
C1150 C 0.98606 0.63137 0.54403 0.0
C1151 C 0.96829 0.64737 0.52017 0.0
C1152 C 0.95906 0.66434 0.51303 0.0
C1153 C 0.96412 0.67149 0.49685 0.0
C1154 C 0.95554 0.68758 0.49018 0.0
C1155 C 0.94181 0.69657 0.49954 0.0
C1156 C 0.93656 0.68945 0.51555 0.0
C1157 C 0.94507 0.67336 0.52226 0.0
H1158 H 0.9352 0.70904 0.49436 0.0
H1159 H 0.00918 0.54989 0.56179 0.0
H1160 H 0.80009 0.84774 0.21418 0.0
H1161 H 0.826 0.87544 0.2197 0.0
H1162 H 0.78117 0.9139 0.22907 0.0
H1163 H 0.75499 0.88623 0.22301 0.0
H1164 H 0.80712 0.92929 0.20753 0.0
H1165 H 0.81206 0.90088 0.26387 0.0
H1166 H 0.81501 0.87448 0.28433 0.0
H1167 H 0.87176 0.86436 0.26706 0.0
H1168 H 0.86902 0.89052 0.2463 0.0
H1169 H 0.87996 0.00909 0.24072 0.0
H1170 H 0.85203 0.98327 0.23827 0.0
H1171 H 0.89205 0.94017 0.22793 0.0
H1172 H 0.92012 0.9658 0.23057 0.0
H1173 H 0.86713 0.92844 0.25174 0.0
H1174 H 0.861 0.9554 0.19407 0.0
H1175 H 0.85796 0.98168 0.17348 0.0
H1176 H 0.80328 0.99451 0.19342 0.0
H1177 H 0.80614 0.96846 0.21432 0.0
C1178 C 0.79571 0.86211 0.21732 0.0
C1179 C 0.77547 0.8648 0.21811 0.0
C1180 C 0.81057 0.8779 0.22065 0.0
C1181 C 0.80555 0.89671 0.225 0.0
C1182 C 0.78537 0.89949 0.22581 0.0
C1183 C 0.77046 0.88365 0.22248 0.0
C1184 C 0.82142 0.91347 0.22821 0.0
C1185 C 0.82007 0.92928 0.21742 0.0
C1186 C 0.8385 0.91327 0.24088 0.0
C1187 C 0.84025 0.89757 0.25342 0.0
C1188 C 0.8251 0.89293 0.26433 0.0
C1189 C 0.82675 0.87802 0.276 0.0
C1190 C 0.84354 0.86772 0.27696 0.0
C1191 C 0.85875 0.87234 0.26629 0.0
C1192 C 0.85717 0.88722 0.25458 0.0
C1193 C 0.88286 0.99412 0.23791 0.0
C1194 C 0.90233 0.98955 0.23578 0.0
C1195 C 0.86684 0.97939 0.23646 0.0
C1196 C 0.86992 0.95981 0.23275 0.0
C1197 C 0.88933 0.95518 0.2308 0.0
C1198 C 0.90537 0.96988 0.23225 0.0
C1199 C 0.85295 0.94411 0.23089 0.0
C1200 C 0.8541 0.92851 0.24195 0.0
C1201 C 0.83568 0.94452 0.21848 0.0
C1202 C 0.8339 0.96013 0.20589 0.0
C1203 C 0.84842 0.96393 0.19417 0.0
C1204 C 0.84671 0.97876 0.18242 0.0
C1205 C 0.83047 0.98979 0.18218 0.0
C1206 C 0.81587 0.98598 0.19365 0.0
C1207 C 0.81752 0.97117 0.20544 0.0
H1208 H 0.82917 0.00127 0.17308 0.0
H1209 H 0.84479 0.85618 0.28601 0.0
H1210 H 0.74299 0.15966 0.26911 0.0
H1211 H 0.77014 0.13916 0.2658 0.0
H1212 H 0.81352 0.18744 0.28717 0.0
H1213 H 0.78655 0.20803 0.29026 0.0
H1214 H 0.82439 0.16888 0.25731 0.0
H1215 H 0.80127 0.15113 0.31293 0.0
H1216 H 0.77613 0.13962 0.33238 0.0
H1217 H 0.76341 0.08538 0.30007 0.0
H1218 H 0.78829 0.09669 0.28027 0.0
H1219 H 0.91078 0.1215 0.27519 0.0
H1220 H 0.88215 0.13952 0.27915 0.0
H1221 H 0.84185 0.08823 0.25978 0.0
H1222 H 0.8705 0.06993 0.25606 0.0
H1223 H 0.82837 0.10726 0.28757 0.0
H1224 H 0.85165 0.12443 0.23226 0.0
H1225 H 0.87646 0.13577 0.21245 0.0
H1226 H 0.88833 0.19086 0.24347 0.0
H1227 H 0.86378 0.17974 0.26363 0.0
C1228 C 0.75833 0.16592 0.27299 0.0
C1229 C 0.76264 0.18544 0.28001 0.0
C1230 C 0.7738 0.15416 0.27122 0.0
C1231 C 0.79385 0.16173 0.27639 0.0
C1232 C 0.79817 0.18128 0.28315 0.0
C1233 C 0.78274 0.19299 0.28502 0.0
C1234 C 0.8104 0.1494 0.27465 0.0
C1235 C 0.82538 0.15553 0.26409 0.0
C1236 C 0.8114 0.13169 0.28309 0.0
C1237 C 0.79648 0.12485 0.29501 0.0
C1238 C 0.79299 0.13682 0.30988 0.0
C1239 C 0.77881 0.13032 0.32099 0.0
C1240 C 0.76814 0.1118 0.31743 0.0
C1241 C 0.77167 0.09973 0.30279 0.0
C1242 C 0.78581 0.10618 0.29163 0.0
C1243 C 0.89584 0.11396 0.2719 0.0
C1244 C 0.89295 0.0943 0.26516 0.0
C1245 C 0.87947 0.12433 0.2741 0.0
C1246 C 0.85984 0.11535 0.26943 0.0
C1247 C 0.85686 0.0955 0.26338 0.0
C1248 C 0.87326 0.08507 0.26124 0.0
C1249 C 0.8425 0.12687 0.27039 0.0
C1250 C 0.82735 0.12058 0.28075 0.0
C1251 C 0.84128 0.14441 0.26169 0.0
C1252 C 0.85601 0.15118 0.24955 0.0
C1253 C 0.85966 0.13891 0.23494 0.0
C1254 C 0.87366 0.1453 0.22363 0.0
C1255 C 0.884 0.164 0.22673 0.0
C1256 C 0.88032 0.17637 0.24111 0.0
C1257 C 0.86636 0.17003 0.25247 0.0
H1258 H 0.89483 0.16893 0.21796 0.0
H1259 H 0.75718 0.10679 0.32605 0.0
H1260 H 0.4088 0.99012 0.94172 0.0
H1261 H 0.38089 0.96721 0.9487 0.0
H1262 H 0.41296 0.96073 0.00041 0.0
H1263 H 0.44061 0.98407 0.99368 0.0
H1264 H 0.39388 0.92391 0.97679 0.0
H1265 H 0.38093 0.98669 0.00353 0.0
H1266 H 0.37625 0.02158 0.00243 0.0
H1267 H 0.32681 0.00737 0.96116 0.0
H1268 H 0.33144 0.97239 0.96181 0.0
H1269 H 0.32057 0.8723 0.01949 0.0
H1270 H 0.34742 0.89617 0.01283 0.0
H1271 H 0.30614 0.91963 0.974 0.0
H1272 H 0.27892 0.89637 0.98142 0.0
H1273 H 0.32992 0.94808 0.98975 0.0
H1274 H 0.34069 0.88662 0.9622 0.0
H1275 H 0.34493 0.85151 0.96031 0.0
H1276 H 0.39741 0.86227 0.99875 0.0
H1277 H 0.39333 0.89743 0.00105 0.0
C1278 C 0.40988 0.98366 0.9545 0.0
C1279 C 0.42675 0.98875 0.96718 0.0
C1280 C 0.39398 0.97069 0.95848 0.0
C1281 C 0.39493 0.96239 0.97507 0.0
C1282 C 0.41202 0.96703 0.98755 0.0
C1283 C 0.42772 0.98032 0.98373 0.0
C1284 C 0.37792 0.9491 0.97953 0.0
C1285 C 0.37995 0.92914 0.97985 0.0
C1286 C 0.35959 0.95597 0.98284 0.0
C1287 C 0.35669 0.97696 0.98257 0.0
C1288 C 0.3692 0.99102 0.99409 0.0
C1289 C 0.36653 0.01081 0.99358 0.0
C1290 C 0.35128 0.01669 0.98169 0.0
C1291 C 0.33864 0.00279 0.97034 0.0
C1292 C 0.34127 0.98298 0.97078 0.0
C1293 C 0.3172 0.88266 0.00963 0.0
C1294 C 0.29771 0.8824 0.00086 0.0
C1295 C 0.33259 0.89622 0.00573 0.0
C1296 C 0.329 0.90937 0.99251 0.0
C1297 C 0.30936 0.90957 0.98417 0.0
C1298 C 0.2938 0.89628 0.9884 0.0
C1299 C 0.3458 0.92265 0.98726 0.0
C1300 C 0.34377 0.94268 0.9867 0.0
C1301 C 0.36403 0.91575 0.98332 0.0
C1302 C 0.3666 0.89463 0.98191 0.0
C1303 C 0.35306 0.88148 0.97034 0.0
C1304 C 0.35544 0.86157 0.96918 0.0
C1305 C 0.3714 0.85466 0.97944 0.0
C1306 C 0.38504 0.86765 0.99083 0.0
C1307 C 0.38271 0.88757 0.99205 0.0
H1308 H 0.37322 0.83924 0.97853 0.0
H1309 H 0.34923 0.03202 0.98132 0.0
H1310 H 0.26099 0.30561 0.25396 0.0
H1311 H 0.2379 0.3302 0.24852 0.0
H1312 H 0.24254 0.34576 0.30526 0.0
H1313 H 0.26621 0.32166 0.31085 0.0
H1314 H 0.2022 0.34356 0.28646 0.0
H1315 H 0.26962 0.37305 0.28308 0.0
H1316 H 0.30274 0.37484 0.27208 0.0
H1317 H 0.27499 0.37617 0.21809 0.0
H1318 H 0.24166 0.37408 0.22876 0.0
H1319 H 0.17036 0.43938 0.28509 0.0
H1320 H 0.18491 0.40883 0.29 0.0
H1321 H 0.19369 0.40267 0.23408 0.0
H1322 H 0.18011 0.43365 0.22939 0.0
H1323 H 0.22642 0.39878 0.25245 0.0
H1324 H 0.15913 0.37099 0.25492 0.0
H1325 H 0.12554 0.3682 0.26498 0.0
H1326 H 0.15144 0.36256 0.31887 0.0
H1327 H 0.18524 0.36558 0.30918 0.0
C1328 C 0.25719 0.31428 0.26531 0.0
C1329 C 0.2657 0.31176 0.28284 0.0
C1330 C 0.24384 0.3282 0.26218 0.0
C1331 C 0.2386 0.33983 0.27649 0.0
C1332 C 0.24632 0.33683 0.29405 0.0
C1333 C 0.25983 0.32301 0.29721 0.0
C1334 C 0.22633 0.35611 0.27297 0.0
C1335 C 0.20748 0.35576 0.27916 0.0
C1336 C 0.2331 0.37173 0.2631 0.0
C1337 C 0.25314 0.3732 0.2567 0.0
C1338 C 0.27057 0.37356 0.26885 0.0
C1339 C 0.28938 0.37466 0.26268 0.0
C1340 C 0.29096 0.37557 0.24439 0.0
C1341 C 0.27374 0.37544 0.23225 0.0
C1342 C 0.25488 0.37431 0.23835 0.0
C1343 C 0.17495 0.43123 0.27377 0.0
C1344 C 0.17422 0.43892 0.25688 0.0
C1345 C 0.18323 0.41372 0.27657 0.0
C1346 C 0.19044 0.40334 0.26241 0.0
C1347 C 0.18844 0.41044 0.24527 0.0
C1348 C 0.18058 0.42811 0.24258 0.0
C1349 C 0.20192 0.38632 0.2657 0.0
C1350 C 0.22084 0.38656 0.25959 0.0
C1351 C 0.19504 0.37054 0.27546 0.0
C1352 C 0.17474 0.3687 0.28134 0.0
C1353 C 0.15768 0.36931 0.26894 0.0
C1354 C 0.1386 0.36766 0.27457 0.0
C1355 C 0.13636 0.36525 0.29256 0.0
C1356 C 0.1532 0.36444 0.30495 0.0
C1357 C 0.17232 0.36611 0.29939 0.0
H1358 H 0.12157 0.36397 0.2969 0.0
H1359 H 0.30554 0.37642 0.23964 0.0
H1360 H 0.09757 0.03695 0.50841 0.0
H1361 H 0.12797 0.05994 0.51537 0.0
H1362 H 0.14187 0.05024 0.46122 0.0
H1363 H 0.11172 0.02717 0.45423 0.0
H1364 H 0.16886 0.05894 0.51376 0.0
H1365 H 0.15603 0.09464 0.44654 0.0
H1366 H 0.1281 0.09933 0.42371 0.0
H1367 H 0.08717 0.09554 0.4634 0.0
H1368 H 0.11487 0.09112 0.48649 0.0
H1369 H 0.25364 0.12733 0.50362 0.0
H1370 H 0.22669 0.10031 0.49928 0.0
H1371 H 0.18318 0.1412 0.50484 0.0
H1372 H 0.20978 0.16816 0.50881 0.0
H1373 H 0.17093 0.1165 0.4773 0.0
H1374 H 0.19731 0.11185 0.53864 0.0
H1375 H 0.2235 0.10875 0.56353 0.0
H1376 H 0.23455 0.05348 0.53943 0.0
H1377 H 0.2086 0.05637 0.51426 0.0
C1378 C 0.10732 0.03942 0.4981 0.0
C1379 C 0.10208 0.03047 0.48069 0.0
C1380 C 0.12467 0.05256 0.5021 0.0
C1381 C 0.137 0.05698 0.48874 0.0
C1382 C 0.13239 0.04724 0.47165 0.0
C1383 C 0.1151 0.03415 0.46765 0.0
C1384 C 0.15374 0.07289 0.49217 0.0
C1385 C 0.1694 0.0715 0.50577 0.0
C1386 C 0.15422 0.08944 0.48195 0.0
C1387 C 0.1375 0.09235 0.46819 0.0
C1388 C 0.14108 0.09488 0.45039 0.0
C1389 C 0.12529 0.09748 0.43741 0.0
C1390 C 0.10588 0.0977 0.4421 0.0
C1391 C 0.10221 0.09532 0.45978 0.0
C1392 C 0.11794 0.09274 0.47281 0.0
C1393 C 0.23834 0.13056 0.50398 0.0
C1394 C 0.23391 0.14996 0.5065 0.0
C1395 C 0.22295 0.11508 0.50156 0.0
C1396 C 0.20289 0.11871 0.50182 0.0
C1397 C 0.19851 0.13803 0.5045 0.0
C1398 C 0.2138 0.15345 0.5068 0.0
C1399 C 0.18628 0.10257 0.49884 0.0
C1400 C 0.17058 0.1039 0.48525 0.0
C1401 C 0.18559 0.08622 0.50934 0.0
C1402 C 0.20116 0.08443 0.52448 0.0
C1403 C 0.20543 0.0991 0.53858 0.0
C1404 C 0.22022 0.09737 0.55275 0.0
C1405 C 0.23072 0.08095 0.55304 0.0
C1406 C 0.22642 0.0662 0.53918 0.0
C1407 C 0.21167 0.06787 0.52496 0.0
H1408 H 0.24216 0.07963 0.56402 0.0
H1409 H 0.09369 0.09979 0.43206 0.0
H1410 H 0.80607 0.15942 0.7313 0.0
H1411 H 0.78157 0.13133 0.73402 0.0
H1412 H 0.7342 0.16883 0.73108 0.0
H1413 H 0.75864 0.19697 0.72826 0.0
H1414 H 0.73412 0.14367 0.75967 0.0
H1415 H 0.73652 0.1404 0.69617 0.0
H1416 H 0.75295 0.13966 0.66853 0.0
H1417 H 0.77764 0.08698 0.68259 0.0
H1418 H 0.7616 0.08756 0.71046 0.0
H1419 H 0.65804 0.06434 0.75714 0.0
H1420 H 0.67731 0.09392 0.74924 0.0
H1421 H 0.72682 0.06094 0.74085 0.0
H1422 H 0.70746 0.03133 0.74813 0.0
H1423 H 0.72335 0.08549 0.71624 0.0
H1424 H 0.7247 0.0899 0.78049 0.0
H1425 H 0.71013 0.09043 0.80912 0.0
H1426 H 0.68055 0.14044 0.7949 0.0
H1427 H 0.69476 0.14005 0.76607 0.0
C1428 C 0.79043 0.16164 0.73123 0.0
C1429 C 0.78421 0.18032 0.72955 0.0
C1430 C 0.77646 0.14561 0.73268 0.0
C1431 C 0.75609 0.14804 0.73263 0.0
C1432 C 0.74986 0.16669 0.73108 0.0
C1433 C 0.76378 0.18268 0.72939 0.0
C1434 C 0.74142 0.13112 0.73467 0.0
C1435 C 0.73146 0.13106 0.75004 0.0
C1436 C 0.73838 0.11456 0.72228 0.0
C1437 C 0.74799 0.11413 0.70549 0.0
C1438 C 0.74559 0.12875 0.69345 0.0
C1439 C 0.75481 0.12834 0.67772 0.0
C1440 C 0.76637 0.1133 0.67382 0.0
C1441 C 0.7687 0.09862 0.68563 0.0
C1442 C 0.75953 0.09898 0.70139 0.0
C1443 C 0.67297 0.0634 0.75346 0.0
C1444 C 0.68127 0.04553 0.75332 0.0
C1445 C 0.68401 0.08032 0.74903 0.0
C1446 C 0.70367 0.07974 0.74474 0.0
C1447 C 0.7117 0.06178 0.74411 0.0
C1448 C 0.70061 0.04485 0.7483 0.0
C1449 C 0.7162 0.09784 0.74144 0.0
C1450 C 0.7258 0.09814 0.72582 0.0
C1451 C 0.71914 0.11454 0.75374 0.0
C1452 C 0.7106 0.11481 0.77105 0.0
C1453 C 0.71497 0.10092 0.78342 0.0
C1454 C 0.7068 0.10121 0.79968 0.0
C1455 C 0.69437 0.11542 0.8038 0.0
C1456 C 0.69014 0.12942 0.79167 0.0
C1457 C 0.69825 0.12917 0.77538 0.0
H1458 H 0.68806 0.11563 0.8164 0.0
H1459 H 0.77349 0.11301 0.66164 0.0
H1460 H 0.47242 0.05166 0.55983 0.0
H1461 H 0.44777 0.07485 0.55449 0.0
H1462 H 0.40515 0.02846 0.52791 0.0
H1463 H 0.42983 0.0052 0.53312 0.0
H1464 H 0.40568 0.05957 0.50892 0.0
H1465 H 0.40028 0.048 0.57017 0.0
H1466 H 0.41247 0.04523 0.60192 0.0
H1467 H 0.43609 0.10573 0.60702 0.0
H1468 H 0.42428 0.10879 0.57522 0.0
H1469 H 0.32454 0.11989 0.50685 0.0
H1470 H 0.34583 0.09352 0.5118 0.0
H1471 H 0.3937 0.13538 0.5376 0.0
H1472 H 0.37261 0.16163 0.53288 0.0
H1473 H 0.388 0.10448 0.55721 0.0
H1474 H 0.39491 0.11518 0.49528 0.0
H1475 H 0.38264 0.11765 0.4635 0.0
H1476 H 0.35558 0.05828 0.45987 0.0
H1477 H 0.36747 0.05554 0.49172 0.0
C1478 C 0.4577 0.04634 0.55309 0.0
C1479 C 0.45306 0.02658 0.54694 0.0
C1480 C 0.44361 0.05961 0.55002 0.0
C1481 C 0.42451 0.05338 0.54094 0.0
C1482 C 0.41979 0.03362 0.53491 0.0
C1483 C 0.43391 0.02036 0.53789 0.0
C1484 C 0.40971 0.06759 0.53731 0.0
C1485 C 0.40155 0.06916 0.51952 0.0
C1486 C 0.40452 0.08032 0.55109 0.0
C1487 C 0.41153 0.07858 0.57026 0.0
C1488 C 0.40819 0.06068 0.57803 0.0
C1489 C 0.41502 0.05906 0.59604 0.0
C1490 C 0.42509 0.07528 0.60647 0.0
C1491 C 0.4283 0.09317 0.59892 0.0
C1492 C 0.42152 0.09486 0.5809 0.0
C1493 C 0.33966 0.12348 0.51343 0.0
C1494 C 0.34685 0.14286 0.5195 0.0
C1495 C 0.35182 0.1084 0.51623 0.0
C1496 C 0.37138 0.11249 0.52507 0.0
C1497 C 0.37864 0.13186 0.53085 0.0
C1498 C 0.36655 0.14688 0.52806 0.0
C1499 C 0.38427 0.09666 0.5288 0.0
C1500 C 0.39203 0.09477 0.54663 0.0
C1501 C 0.38901 0.08361 0.51508 0.0
C1502 C 0.38188 0.08523 0.49593 0.0
C1503 C 0.3862 0.10271 0.48775 0.0
C1504 C 0.37934 0.10414 0.46971 0.0
C1505 C 0.36828 0.08815 0.45968 0.0
C1506 C 0.36411 0.07066 0.46766 0.0
C1507 C 0.37092 0.06916 0.4857 0.0
H1508 H 0.36299 0.08929 0.44572 0.0
H1509 H 0.43036 0.074 0.62041 0.0
H1510 H 0.56069 0.48114 0.49951 0.0
H1511 H 0.58868 0.46234 0.49442 0.0
H1512 H 0.61629 0.47978 0.5482 0.0
H1513 H 0.58821 0.49851 0.55341 0.0
H1514 H 0.64207 0.48566 0.52077 0.0
H1515 H 0.59609 0.43529 0.54017 0.0
H1516 H 0.5636 0.41522 0.53918 0.0
H1517 H 0.56775 0.39437 0.48495 0.0
H1518 H 0.60015 0.41455 0.48553 0.0
H1519 H 0.71806 0.42328 0.5319 0.0
H1520 H 0.69024 0.44282 0.5332 0.0
H1521 H 0.66083 0.41297 0.4838 0.0
H1522 H 0.68847 0.39272 0.48275 0.0
H1523 H 0.63532 0.41393 0.5069 0.0
H1524 H 0.68125 0.46235 0.48694 0.0
H1525 H 0.71323 0.48286 0.48646 0.0
H1526 H 0.70887 0.50816 0.53923 0.0
H1527 H 0.67699 0.4876 0.54013 0.0
C1528 C 0.57266 0.48079 0.51029 0.0
C1529 C 0.57231 0.49122 0.52686 0.0
C1530 C 0.58858 0.47005 0.50738 0.0
C1531 C 0.60453 0.4697 0.52093 0.0
C1532 C 0.60411 0.4799 0.53758 0.0
C1533 C 0.58803 0.49043 0.54058 0.0
C1534 C 0.62192 0.45915 0.51755 0.0
C1535 C 0.64071 0.46994 0.51795 0.0
C1536 C 0.61988 0.43878 0.51317 0.0
C1537 C 0.60044 0.42659 0.51283 0.0
C1538 C 0.58999 0.42656 0.52798 0.0
C1539 C 0.57161 0.41514 0.5275 0.0
C1540 C 0.56359 0.40357 0.512 0.0
C1541 C 0.57396 0.40336 0.49695 0.0
C1542 C 0.59234 0.41478 0.49735 0.0
C1543 C 0.70587 0.42104 0.52111 0.0
C1544 C 0.70549 0.40636 0.50724 0.0
C1545 C 0.68995 0.43234 0.52184 0.0
C1546 C 0.67345 0.42954 0.50853 0.0
C1547 C 0.67337 0.4154 0.49426 0.0
C1548 C 0.68924 0.40391 0.49362 0.0
C1549 C 0.65574 0.44038 0.51029 0.0
C1550 C 0.6368 0.42967 0.50958 0.0
C1551 C 0.6576 0.46089 0.51413 0.0
C1552 C 0.67679 0.4733 0.51366 0.0
C1553 C 0.68718 0.47217 0.4985 0.0
C1554 C 0.70528 0.48383 0.49814 0.0
C1555 C 0.7131 0.49677 0.51282 0.0
C1556 C 0.7028 0.49812 0.52787 0.0
C1557 C 0.6847 0.48648 0.52831 0.0
H1558 H 0.72711 0.50579 0.51252 0.0
H1559 H 0.54935 0.39473 0.51166 0.0
H1560 H 0.7649 0.24179 0.32084 0.0
H1561 H 0.76614 0.26124 0.34923 0.0
H1562 H 0.70185 0.25164 0.34654 0.0
H1563 H 0.70042 0.23143 0.31849 0.0
H1564 H 0.71987 0.29194 0.35693 0.0
H1565 H 0.72507 0.22552 0.37224 0.0
H1566 H 0.73934 0.19404 0.37099 0.0
H1567 H 0.79716 0.2229 0.39221 0.0
H1568 H 0.78328 0.25461 0.39333 0.0
H1569 H 0.71424 0.32207 0.44921 0.0
H1570 H 0.7101 0.30644 0.41868 0.0
H1571 H 0.77322 0.29966 0.4235 0.0
H1572 H 0.77718 0.31442 0.45407 0.0
H1573 H 0.75384 0.26714 0.41144 0.0
H1574 H 0.75044 0.33326 0.39611 0.0
H1575 H 0.73792 0.3656 0.39649 0.0
H1576 H 0.67931 0.33912 0.37475 0.0
H1577 H 0.69143 0.30657 0.37447 0.0
C1578 C 0.751 0.24361 0.32632 0.0
C1579 C 0.73256 0.23485 0.31739 0.0
C1580 C 0.75175 0.2549 0.34246 0.0
C1581 C 0.73409 0.25781 0.34994 0.0
C1582 C 0.71562 0.24963 0.34088 0.0
C1583 C 0.71486 0.23813 0.32483 0.0
C1584 C 0.73509 0.26856 0.36769 0.0
C1585 C 0.72706 0.28648 0.36894 0.0
C1586 C 0.74486 0.26155 0.38318 0.0
C1587 C 0.75318 0.24246 0.38271 0.0
C1588 C 0.74086 0.22518 0.37651 0.0
C1589 C 0.74887 0.20729 0.37584 0.0
C1590 C 0.76915 0.20648 0.38147 0.0
C1591 C 0.78145 0.22355 0.38783 0.0
C1592 C 0.77352 0.24148 0.3885 0.0
C1593 C 0.72723 0.31745 0.44361 0.0
C1594 C 0.74598 0.31929 0.45404 0.0
C1595 C 0.72489 0.30858 0.42615 0.0
C1596 C 0.74137 0.30186 0.41873 0.0
C1597 C 0.76024 0.30452 0.42894 0.0
C1598 C 0.76249 0.313 0.44642 0.0
C1599 C 0.73896 0.29091 0.40084 0.0
C1600 C 0.74664 0.27278 0.39952 0.0
C1601 C 0.72912 0.29792 0.38529 0.0
C1602 C 0.72179 0.31746 0.38546 0.0
C1603 C 0.73484 0.33432 0.39155 0.0
C1604 C 0.72783 0.35269 0.39172 0.0
C1605 C 0.70782 0.35441 0.3857 0.0
C1606 C 0.6948 0.33776 0.37945 0.0
C1607 C 0.70173 0.31935 0.37926 0.0
H1608 H 0.70242 0.36864 0.38583 0.0
H1609 H 0.77533 0.19262 0.38095 0.0
H1610 H 0.49368 0.96089 0.90666 0.0
H1611 H 0.51747 0.95787 0.88463 0.0
H1612 H 0.52579 0.0206 0.88351 0.0
H1613 H 0.50235 0.02368 0.90581 0.0
H1614 H 0.51871 0.96734 0.85129 0.0
H1615 H 0.57396 0.03509 0.87783 0.0
H1616 H 0.5853 0.05485 0.90625 0.0
H1617 H 0.57001 0.00537 0.93591 0.0
H1618 H 0.55882 0.98527 0.90769 0.0
H1619 H 0.58909 0.99005 0.78919 0.0
H1620 H 0.56331 0.99032 0.80958 0.0
H1621 H 0.60479 0.97303 0.85192 0.0
H1622 H 0.63067 0.97303 0.83176 0.0
H1623 H 0.58708 0.00253 0.86382 0.0
H1624 H 0.56563 0.94107 0.83096 0.0
H1625 H 0.55549 0.91857 0.80404 0.0
H1626 H 0.50547 0.95043 0.78958 0.0
H1627 H 0.51547 0.97328 0.81631 0.0
C1628 C 0.50057 0.97402 0.90166 0.0
C1629 C 0.49632 0.9925 0.90806 0.0
C1630 C 0.51409 0.97228 0.88903 0.0
C1631 C 0.52362 0.98901 0.88256 0.0
C1632 C 0.5189 0.00749 0.88854 0.0
C1633 C 0.50546 0.00924 0.90126 0.0
C1634 C 0.53885 0.98708 0.86993 0.0
C1635 C 0.53365 0.97508 0.854 0.0
C1636 C 0.55846 0.99686 0.87359 0.0
C1637 C 0.56536 0.00875 0.89065 0.0
C1638 C 0.57308 0.02842 0.89042 0.0
C1639 C 0.57948 0.03968 0.90649 0.0
C1640 C 0.57831 0.03139 0.92287 0.0
C1641 C 0.57083 0.0118 0.92322 0.0
C1642 C 0.56444 0.00047 0.90719 0.0
C1643 C 0.59265 0.98608 0.80278 0.0
C1644 C 0.61198 0.98158 0.80886 0.0
C1645 C 0.57788 0.98621 0.81442 0.0
C1646 C 0.58209 0.98167 0.8323 0.0
C1647 C 0.60121 0.97669 0.83822 0.0
C1648 C 0.61598 0.97662 0.82664 0.0
C1649 C 0.56692 0.98291 0.84508 0.0
C1650 C 0.57213 0.99484 0.86104 0.0
C1651 C 0.54748 0.97271 0.84162 0.0
C1652 C 0.54142 0.959 0.82554 0.0
C1653 C 0.55256 0.94337 0.82196 0.0
C1654 C 0.54682 0.93054 0.80676 0.0
C1655 C 0.52988 0.9331 0.79508 0.0
C1656 C 0.51861 0.94848 0.79862 0.0
C1657 C 0.5243 0.96137 0.81381 0.0
H1658 H 0.52545 0.92315 0.78332 0.0
H1659 H 0.58325 0.04013 0.9353 0.0
H1660 H 0.26427 0.25519 0.31771 0.0
H1661 H 0.26407 0.23928 0.34578 0.0
H1662 H 0.32847 0.24962 0.35498 0.0
H1663 H 0.32883 0.26613 0.32706 0.0
H1664 H 0.31092 0.21111 0.36403 0.0
H1665 H 0.30563 0.27995 0.37523 0.0
H1666 H 0.29115 0.31066 0.36946 0.0
H1667 H 0.23362 0.28459 0.38007 0.0
H1668 H 0.2477 0.2536 0.38561 0.0
H1669 H 0.31806 0.19872 0.45866 0.0
H1670 H 0.32149 0.20812 0.42819 0.0
H1671 H 0.25847 0.2152 0.42028 0.0
H1672 H 0.25527 0.20679 0.45089 0.0
H1673 H 0.27749 0.24522 0.41029 0.0
H1674 H 0.28121 0.17654 0.39886 0.0
H1675 H 0.29413 0.14483 0.40336 0.0
H1676 H 0.3523 0.16877 0.3924 0.0
H1677 H 0.33978 0.20071 0.38804 0.0
C1678 C 0.27842 0.25412 0.32567 0.0
C1679 C 0.29655 0.26226 0.32026 0.0
C1680 C 0.27828 0.24486 0.34164 0.0
C1681 C 0.29623 0.24344 0.35251 0.0
C1682 C 0.31445 0.25054 0.34673 0.0
C1683 C 0.31462 0.25995 0.33077 0.0
C1684 C 0.29569 0.23602 0.37054 0.0
C1685 C 0.30384 0.21862 0.37429 0.0
C1686 C 0.2861 0.24568 0.38371 0.0
C1687 C 0.27768 0.26441 0.38068 0.0
C1688 C 0.28986 0.28072 0.3762 0.0
C1689 C 0.28173 0.29819 0.37299 0.0
C1690 C 0.26147 0.29956 0.37436 0.0
C1691 C 0.24931 0.28349 0.379 0.0
C1692 C 0.25736 0.26598 0.38219 0.0
C1693 C 0.30491 0.20198 0.45028 0.0
C1694 C 0.28643 0.20214 0.45717 0.0
C1695 C 0.30685 0.20729 0.43283 0.0
C1696 C 0.29022 0.21235 0.42181 0.0
C1697 C 0.27158 0.21156 0.42849 0.0
C1698 C 0.26974 0.20668 0.44599 0.0
C1699 C 0.29232 0.21988 0.40389 0.0
C1700 C 0.28456 0.23752 0.40015 0.0
C1701 C 0.30206 0.21026 0.39071 0.0
C1702 C 0.30961 0.19107 0.39331 0.0
C1703 C 0.2968 0.17508 0.39755 0.0
C1704 C 0.30404 0.15706 0.40005 0.0
C1705 C 0.32404 0.1548 0.39822 0.0
C1706 C 0.33682 0.17055 0.39384 0.0
C1707 C 0.32966 0.18861 0.39133 0.0
H1708 H 0.32962 0.14084 0.40016 0.0
H1709 H 0.25519 0.31309 0.37185 0.0
H1710 H 0.56327 0.50785 0.91708 0.0
H1711 H 0.54393 0.51314 0.88879 0.0
H1712 H 0.49028 0.5125 0.91501 0.0
H1713 H 0.50968 0.50669 0.94346 0.0
H1714 H 0.48216 0.49423 0.88196 0.0
H1715 H 0.51501 0.55571 0.90639 0.0
H1716 H 0.54321 0.57919 0.92029 0.0
H1717 H 0.57408 0.57105 0.87399 0.0
H1718 H 0.5462 0.54727 0.85991 0.0
H1719 H 0.43814 0.5387 0.80314 0.0
H1720 H 0.44995 0.53493 0.83475 0.0
H1721 H 0.5066 0.5204 0.81957 0.0
H1722 H 0.4949 0.5237 0.7882 0.0
H1723 H 0.5086 0.54983 0.84941 0.0
H1724 H 0.47642 0.48509 0.82729 0.0
H1725 H 0.44752 0.46227 0.81367 0.0
H1726 H 0.41395 0.47847 0.85638 0.0
H1727 H 0.44258 0.50164 0.8701 0.0
C1728 C 0.54734 0.50875 0.9168 0.0
C1729 C 0.53801 0.50713 0.93248 0.0
C1730 C 0.53629 0.51182 0.90065 0.0
C1731 C 0.51573 0.51373 0.89986 0.0
C1732 C 0.50615 0.51123 0.91533 0.0
C1733 C 0.51721 0.50791 0.93154 0.0
C1734 C 0.50465 0.5189 0.88293 0.0
C1735 C 0.4877 0.50662 0.87502 0.0
C1736 C 0.51182 0.5351 0.87383 0.0
C1737 C 0.52854 0.54961 0.88214 0.0
C1738 C 0.52786 0.55884 0.89921 0.0
C1739 C 0.54379 0.57221 0.90712 0.0
C1740 C 0.56044 0.57659 0.89804 0.0
C1741 C 0.56117 0.56764 0.88101 0.0
C1742 C 0.5453 0.55423 0.87305 0.0
C1743 C 0.45311 0.53476 0.80659 0.0
C1744 C 0.46556 0.53143 0.79318 0.0
C1745 C 0.4598 0.53256 0.8246 0.0
C1746 C 0.47912 0.52736 0.82942 0.0
C1747 C 0.49164 0.52443 0.8161 0.0
C1748 C 0.48488 0.52625 0.79817 0.0
C1749 C 0.48661 0.52483 0.84829 0.0
C1750 C 0.50287 0.53768 0.85655 0.0
C1751 C 0.47865 0.50934 0.85774 0.0
C1752 C 0.46154 0.49528 0.84959 0.0
C1753 C 0.46281 0.48393 0.83368 0.0
C1754 C 0.4465 0.4709 0.82596 0.0
C1755 C 0.42888 0.46897 0.83411 0.0
C1756 C 0.42758 0.48001 0.85005 0.0
C1757 C 0.44385 0.49309 0.85781 0.0
H1758 H 0.41626 0.45888 0.82811 0.0
H1759 H 0.57276 0.58693 0.9042 0.0
H1760 H 0.71664 0.80026 0.17036 0.0
H1761 H 0.72052 0.77778 0.14476 0.0
H1762 H 0.78382 0.78059 0.16211 0.0
H1763 H 0.78004 0.8029 0.18761 0.0
H1764 H 0.77742 0.78617 0.12747 0.0
H1765 H 0.75197 0.74025 0.16721 0.0
H1766 H 0.72787 0.72639 0.18661 0.0
H1767 H 0.6818 0.71813 0.14189 0.0
H1768 H 0.70558 0.73219 0.12227 0.0
H1769 H 0.78448 0.6866 0.07889 0.0
H1770 H 0.77475 0.70543 0.10451 0.0
H1771 H 0.75776 0.75012 0.07004 0.0
H1772 H 0.76772 0.73159 0.04446 0.0
H1773 H 0.74031 0.72025 0.11316 0.0
H1774 H 0.7744 0.79419 0.09226 0.0
H1775 H 0.8004 0.80713 0.0742 0.0
H1776 H 0.83267 0.75763 0.08404 0.0
H1777 H 0.80701 0.74456 0.10234 0.0
C1778 C 0.73132 0.79586 0.16881 0.0
C1779 C 0.74807 0.80348 0.1809 0.0
C1780 C 0.73352 0.78304 0.15419 0.0
C1781 C 0.75248 0.77752 0.15152 0.0
C1782 C 0.76909 0.78478 0.16381 0.0
C1783 C 0.76691 0.79757 0.17835 0.0
C1784 C 0.75533 0.7648 0.1356 0.0
C1785 C 0.76923 0.77179 0.12433 0.0
C1786 C 0.74478 0.74597 0.13156 0.0
C1787 C 0.7305 0.73746 0.14332 0.0
C1788 C 0.73666 0.73563 0.16155 0.0
C1789 C 0.72307 0.72771 0.17258 0.0
C1790 C 0.7033 0.72143 0.1655 0.0
C1791 C 0.69711 0.72302 0.14736 0.0
C1792 C 0.71064 0.73095 0.13628 0.0
C1793 C 0.77845 0.70033 0.07672 0.0
C1794 C 0.777 0.70765 0.05965 0.0
C1795 C 0.77281 0.71102 0.09136 0.0
C1796 C 0.76573 0.72925 0.0892 0.0
C1797 C 0.76338 0.73616 0.07202 0.0
C1798 C 0.76902 0.7255 0.0574 0.0
C1799 C 0.76231 0.74172 0.10508 0.0
C1800 C 0.74833 0.73471 0.11627 0.0
C1801 C 0.773 0.76045 0.10926 0.0
C1802 C 0.78867 0.76831 0.09849 0.0
C1803 C 0.78708 0.78611 0.09061 0.0
C1804 C 0.80175 0.79346 0.08033 0.0
C1805 C 0.81814 0.78317 0.07792 0.0
C1806 C 0.81993 0.76555 0.08585 0.0
C1807 C 0.80532 0.75815 0.09616 0.0
H1808 H 0.82947 0.78888 0.06995 0.0
H1809 H 0.6928 0.7153 0.17405 0.0
H1810 H 0.04738 0.01586 0.08311 0.0
H1811 H 0.03143 0.01822 0.11065 0.0
H1812 H 0.97545 0.0259 0.07982 0.0
H1813 H 0.99115 0.02315 0.05219 0.0
H1814 H 0.9852 0.05332 0.10811 0.0
H1815 H 0.98126 0.98358 0.09827 0.0
H1816 H 0.99447 0.95205 0.09268 0.0
H1817 H 0.03368 0.96229 0.14202 0.0
H1818 H 0.0209 0.99403 0.14778 0.0
H1819 H 0.9269 0.04927 0.18076 0.0
H1820 H 0.93956 0.04217 0.1521 0.0
H1821 H 0.99491 0.02825 0.1802 0.0
H1822 H 0.98216 0.0348 0.20879 0.0
H1823 H 0.98423 0.00312 0.15254 0.0
H1824 H 0.99039 0.07305 0.16188 0.0
H1825 H 0.97863 0.10524 0.16774 0.0
H1826 H 0.93706 0.09551 0.11981 0.0
H1827 H 0.9484 0.06313 0.11379 0.0
C1828 C 0.03159 0.01768 0.08213 0.0
C1829 C 0.02058 0.01936 0.0654 0.0
C1830 C 0.0225 0.0191 0.09791 0.0
C1831 C 0.00223 0.02218 0.09728 0.0
C1832 C 0.99114 0.02361 0.08062 0.0
C1833 C 1.00017 0.02211 0.06485 0.0
C1834 C 0.99278 0.02467 0.11405 0.0
C1835 C 0.98469 0.04222 0.1177 0.0
C1836 C 0.99261 0.0104 0.12676 0.0
C1837 C 1.00025 0.99127 0.12337 0.0
C1838 C 0.99281 0.97919 0.10786 0.0
C1839 C 1.0002 0.96126 0.10467 0.0
C1840 C 0.01494 0.95519 0.11697 0.0
C1841 C 0.02228 0.96702 0.1325 0.0
C1842 C 0.01495 0.98497 0.13574 0.0
C1843 C 0.94173 0.0446 0.18081 0.0
C1844 C 0.95354 0.04264 0.19705 0.0
C1845 C 0.94899 0.04062 0.16443 0.0
C1846 C 0.96833 0.03495 0.16396 0.0
C1847 C 0.97995 0.03259 0.18018 0.0
C1848 C 0.97264 0.03637 0.19654 0.0
C1849 C 0.97669 0.03183 0.14667 0.0
C1850 C 0.98462 0.01419 0.14291 0.0
C1851 C 0.9769 0.04611 0.13392 0.0
C1852 C 0.97009 0.06558 0.13749 0.0
C1853 C 0.97863 0.07771 0.15266 0.0
C1854 C 0.97206 0.096 0.156 0.0
C1855 C 0.95706 0.10239 0.14419 0.0
C1856 C 0.94865 0.09052 0.12897 0.0
C1857 C 0.95515 0.07221 0.12558 0.0
H1858 H 0.952 0.11656 0.14679 0.0
H1859 H 0.02064 0.9413 0.11448 0.0
H1860 H 0.31004 0.80134 0.19815 0.0
H1861 H 0.30344 0.81994 0.17168 0.0
H1862 H 0.29309 0.76621 0.138 0.0
H1863 H 0.29932 0.74762 0.16429 0.0
H1864 H 0.31831 0.7973 0.12483 0.0
H1865 H 0.25447 0.78499 0.1489 0.0
H1866 H 0.23233 0.78689 0.17273 0.0
H1867 H 0.24339 0.84948 0.17666 0.0
H1868 H 0.26585 0.84791 0.15301 0.0
H1869 H 0.26191 0.81063 0.04409 0.0
H1870 H 0.27629 0.80124 0.07295 0.0
H1871 H 0.26921 0.85798 0.09732 0.0
H1872 H 0.25419 0.86732 0.06836 0.0
H1873 H 0.25683 0.83107 0.1175 0.0
H1874 H 0.31621 0.84446 0.09056 0.0
H1875 H 0.33873 0.84363 0.06698 0.0
H1876 H 0.33792 0.78152 0.06901 0.0
H1877 H 0.31513 0.78191 0.09241 0.0
C1878 C 0.30642 0.79357 0.18506 0.0
C1879 C 0.30499 0.77309 0.18324 0.0
C1880 C 0.30267 0.80417 0.17001 0.0
C1881 C 0.29775 0.7944 0.15295 0.0
C1882 C 0.29691 0.77398 0.15108 0.0
C1883 C 0.30034 0.76339 0.16611 0.0
C1884 C 0.29268 0.80522 0.13702 0.0
C1885 C 0.30486 0.80467 0.12314 0.0
C1886 C 0.27554 0.81541 0.1352 0.0
C1887 C 0.26203 0.81633 0.14938 0.0
C1888 C 0.25234 0.79914 0.15498 0.0
C1889 C 0.2397 0.80016 0.16842 0.0
C1890 C 0.23651 0.81829 0.17625 0.0
C1891 C 0.24591 0.83544 0.17062 0.0
C1892 C 0.25859 0.8345 0.15719 0.0
C1893 C 0.26363 0.82123 0.05552 0.0
C1894 C 0.25702 0.83976 0.05393 0.0
C1895 C 0.27196 0.81587 0.07203 0.0
C1896 C 0.27419 0.82903 0.08727 0.0
C1897 C 0.26773 0.84763 0.08572 0.0
C1898 C 0.25918 0.85295 0.06918 0.0
C1899 C 0.28217 0.82275 0.10493 0.0
C1900 C 0.27054 0.82412 0.1192 0.0
C1901 C 0.3 0.81355 0.10719 0.0
C1902 C 0.31385 0.81322 0.09319 0.0
C1903 C 0.32073 0.8306 0.08591 0.0
C1904 C 0.33355 0.83021 0.07258 0.0
C1905 C 0.33973 0.81253 0.06649 0.0
C1906 C 0.33312 0.79521 0.07374 0.0
C1907 C 0.32027 0.79551 0.08706 0.0
H1908 H 0.34966 0.81226 0.05616 0.0
H1909 H 0.22671 0.81905 0.18665 0.0
H1910 H 0.03644 0.50052 0.07145 0.0
H1911 H 0.05705 0.49835 0.09985 0.0
H1912 H 0.00536 0.5023 0.12814 0.0
H1913 H 0.98448 0.50427 0.09963 0.0
H1914 H 0.03926 0.52458 0.14551 0.0
H1915 H 0.02104 0.45888 0.12108 0.0
H1916 H 0.01674 0.43169 0.09769 0.0
H1917 H 0.08013 0.43752 0.09484 0.0
H1918 H 0.08479 0.46496 0.11801 0.0
H1919 H 0.09481 0.49655 0.22511 0.0
H1920 H 0.06831 0.49668 0.20008 0.0
H1921 H 0.11158 0.49096 0.1626 0.0
H1922 H 0.13793 0.49058 0.18731 0.0
H1923 H 0.07788 0.46747 0.15183 0.0
H1924 H 0.09559 0.53511 0.17365 0.0
H1925 H 0.10022 0.56286 0.19649 0.0
H1926 H 0.03802 0.55351 0.20406 0.0
H1927 H 0.0331 0.52551 0.18141 0.0
C1928 C 0.02941 0.50087 0.08369 0.0
C1929 C 0.00875 0.50232 0.08324 0.0
C1930 C 0.04122 0.49967 0.09992 0.0
C1931 C 0.03267 0.49982 0.11608 0.0
C1932 C 0.01223 0.50207 0.11581 0.0
C1933 C 1.00035 0.50326 0.09952 0.0
C1934 C 0.04513 0.49714 0.1331 0.0
C1935 C 0.04742 0.51193 0.14705 0.0
C1936 C 0.05595 0.48073 0.13502 0.0
C1937 C 0.05324 0.46408 0.1212 0.0
C1938 C 0.03405 0.45446 0.11538 0.0
C1939 C 0.03155 0.43899 0.10217 0.0
C1940 C 0.04815 0.4329 0.09476 0.0
C1941 C 0.06729 0.44225 0.10058 0.0
C1942 C 0.06987 0.45775 0.11377 0.0
C1943 C 0.09864 0.49516 0.21153 0.0
C1944 C 0.11856 0.49364 0.20826 0.0
C1945 C 0.08349 0.49534 0.19724 0.0
C1946 C 0.088 0.49403 0.17945 0.0
C1947 C 0.10773 0.49199 0.17619 0.0
C1948 C 0.12282 0.49185 0.1904 0.0
C1949 C 0.07243 0.49514 0.16408 0.0
C1950 C 0.06952 0.48 0.15042 0.0
C1951 C 0.0611 0.51124 0.16244 0.0
C1952 C 0.06403 0.52808 0.17601 0.0
C1953 C 0.08294 0.53887 0.18029 0.0
C1954 C 0.08561 0.55466 0.19318 0.0
C1955 C 0.06944 0.5599 0.20176 0.0
C1956 C 0.05055 0.5494 0.19743 0.0
C1957 C 0.04781 0.53358 0.18456 0.0
H1958 H 0.07153 0.57214 0.21174 0.0
H1959 H 0.04618 0.42093 0.08453 0.0
H1960 H 0.32737 0.71559 0.2742 0.0
H1961 H 0.35704 0.72131 0.29628 0.0
H1962 H 0.39323 0.73771 0.25474 0.0
H1963 H 0.36362 0.73144 0.23243 0.0
H1964 H 0.41143 0.71371 0.27702 0.0
H1965 H 0.3803 0.77241 0.28319 0.0
H1966 H 0.35259 0.79233 0.28705 0.0
H1967 H 0.34606 0.76948 0.33812 0.0
H1968 H 0.37356 0.7492 0.33445 0.0
H1969 H 0.49509 0.7524 0.34082 0.0
H1970 H 0.46786 0.7489 0.31615 0.0
H1971 H 0.42564 0.73148 0.35268 0.0
H1972 H 0.45256 0.7351 0.37738 0.0
H1973 H 0.41195 0.75832 0.33133 0.0
H1974 H 0.44171 0.69808 0.32407 0.0
H1975 H 0.46927 0.67802 0.32001 0.0
H1976 H 0.47848 0.70409 0.27081 0.0
H1977 H 0.45113 0.72451 0.27471 0.0
C1978 C 0.34166 0.72025 0.26973 0.0
C1979 C 0.34314 0.72309 0.25157 0.0
C1980 C 0.35858 0.72369 0.28239 0.0
C1981 C 0.3773 0.73017 0.27718 0.0
C1982 C 0.3789 0.73281 0.25905 0.0
C1983 C 0.36196 0.72937 0.24635 0.0
C1984 C 0.39515 0.73405 0.29075 0.0
C1985 C 0.41171 0.72371 0.28875 0.0
C1986 C 0.39537 0.7469 0.30616 0.0
C1987 C 0.37889 0.75916 0.30848 0.0
C1988 C 0.37286 0.77152 0.29519 0.0
C1989 C 0.35721 0.7829 0.29735 0.0
C1990 C 0.34755 0.78214 0.3128 0.0
C1991 C 0.35355 0.77004 0.32615 0.0
C1992 C 0.36919 0.75862 0.32404 0.0
C1993 C 0.48002 0.74778 0.34361 0.0
C1994 C 0.47605 0.74402 0.36111 0.0
C1995 C 0.46449 0.74573 0.32947 0.0
C1996 C 0.44474 0.73982 0.33257 0.0
C1997 C 0.44076 0.73609 0.35 0.0
C1998 C 0.45622 0.73811 0.3641 0.0
C1999 C 0.42807 0.73771 0.31778 0.0
C2000 C 0.41175 0.74843 0.31953 0.0
C2001 C 0.4281 0.72525 0.30214 0.0
C2002 C 0.44453 0.71298 0.29979 0.0
C2003 C 0.44973 0.69966 0.31246 0.0
C2004 C 0.46529 0.6882 0.31018 0.0
C2005 C 0.47566 0.68982 0.2952 0.0
C2006 C 0.47046 0.70287 0.28243 0.0
C2007 C 0.45492 0.71438 0.28467 0.0
H2008 H 0.4877 0.68094 0.29345 0.0
H2009 H 0.33543 0.79096 0.31445 0.0
H2010 H 0.04124 0.45538 0.00547 0.0
H2011 H 0.04328 0.42671 0.98509 0.0
H2012 H 0.97916 0.41316 0.98103 0.0
H2013 H 0.977 0.44188 0.00119 0.0
H2014 H 0.00122 0.38163 0.98961 0.0
H2015 H 0.99813 0.43048 0.94659 0.0
H2016 H 0.0089 0.46156 0.93418 0.0
H2017 H 0.06716 0.44319 0.93025 0.0
H2018 H 0.05683 0.4121 0.94287 0.0
H2019 H 0.98985 0.30289 0.9257 0.0
H2020 H 0.98655 0.3349 0.94 0.0
H2021 H 0.04853 0.35333 0.93503 0.0
H2022 H 0.0516 0.32149 0.91985 0.0
H2023 H 0.02784 0.38303 0.93081 0.0
H2024 H 0.03309 0.3358 0.97452 0.0
H2025 H 0.02447 0.30491 0.98814 0.0
H2026 H 0.96523 0.32043 0.99274 0.0
H2027 H 0.97341 0.35131 0.97891 0.0
C2028 C 0.02759 0.44636 1.00007 0.0
C2029 C 0.00899 0.45085 0.00485 0.0
C2030 C 0.02875 0.43007 0.98841 0.0
C2031 C 0.01135 0.41792 0.98149 0.0
C2032 C 0.99274 0.42242 0.9862 0.0
C2033 C 0.99154 0.43884 0.99768 0.0
C2034 C 0.01264 0.39993 0.9701 0.0
C2035 C 0.00674 0.38192 0.97662 0.0
C2036 C 0.02055 0.40037 0.95349 0.0
C2037 C 0.02676 0.41904 0.94584 0.0
C2038 C 0.0133 0.43313 0.94323 0.0
C2039 C 0.01931 0.45074 0.93612 0.0
C2040 C 0.03872 0.45437 0.93147 0.0
C2041 C 0.05214 0.44037 0.93388 0.0
C2042 C 0.04621 0.42275 0.94099 0.0
C2043 C 0.0027 0.31387 0.92742 0.0
C2044 C 0.02105 0.30966 0.92187 0.0
C2045 C 0.00083 0.33213 0.93568 0.0
C2046 C 0.01746 0.34634 0.9391 0.0
C2047 C 0.03553 0.34255 0.93267 0.0
C2048 C 0.03728 0.32437 0.924 0.0
C2049 C 0.01621 0.36463 0.95023 0.0
C2050 C 0.02223 0.3827 0.94375 0.0
C2051 C 0.00875 0.36428 0.96709 0.0
C2052 C 0.00381 0.34578 0.97553 0.0
C2053 C 0.01818 0.33256 0.97833 0.0
C2054 C 0.01338 0.31506 0.9861 0.0
C2055 C 0.9943 0.31069 0.99126 0.0
C2056 C 0.97999 0.32383 0.98871 0.0
C2057 C 0.98471 0.34134 0.98092 0.0
H2058 H 0.9906 0.29713 0.99727 0.0
H2059 H 0.04334 0.46801 0.92598 0.0
H2060 H 0.67693 0.81523 0.23934 0.0
H2061 H 0.65032 0.80711 0.2582 0.0
H2062 H 0.68988 0.83082 0.3051 0.0
H2063 H 0.71644 0.839 0.28635 0.0
H2064 H 0.67095 0.7944 0.30931 0.0
H2065 H 0.65349 0.85594 0.28851 0.0
H2066 H 0.64484 0.87878 0.26567 0.0
H2067 H 0.59324 0.83948 0.24411 0.0
H2068 H 0.60175 0.81626 0.2667 0.0
H2069 H 0.60884 0.80297 0.37671 0.0
H2070 H 0.63086 0.81134 0.35415 0.0
H2071 H 0.58496 0.7864 0.31232 0.0
H2072 H 0.56262 0.778 0.33491 0.0
H2073 H 0.60519 0.82096 0.30336 0.0
H2074 H 0.62131 0.76016 0.32464 0.0
H2075 H 0.62966 0.73689 0.34716 0.0
H2076 H 0.68354 0.77381 0.36705 0.0
H2077 H 0.67536 0.79747 0.34481 0.0
C2078 C 0.6799 0.81875 0.25366 0.0
C2079 C 0.69876 0.82768 0.26144 0.0
C2080 C 0.66468 0.81418 0.2644 0.0
C2081 C 0.66812 0.81842 0.28304 0.0
C2082 C 0.68692 0.8274 0.29076 0.0
C2083 C 0.70205 0.83209 0.28004 0.0
C2084 C 0.65242 0.81308 0.2947 0.0
C2085 C 0.65665 0.80036 0.30811 0.0
C2086 C 0.63351 0.82033 0.29273 0.0
C2087 C 0.62839 0.83426 0.27915 0.0
C2088 C 0.6404 0.85208 0.27879 0.0
C2089 C 0.6355 0.86512 0.26592 0.0
C2090 C 0.61854 0.86056 0.25341 0.0
C2091 C 0.6064 0.84297 0.25379 0.0
C2092 C 0.61125 0.82988 0.26663 0.0
C2093 C 0.60329 0.7994 0.36272 0.0
C2094 C 0.58402 0.78964 0.35763 0.0
C2095 C 0.61595 0.80415 0.34984 0.0
C2096 C 0.60967 0.79919 0.33159 0.0
C2097 C 0.59012 0.79027 0.32635 0.0
C2098 C 0.5774 0.78546 0.33927 0.0
C2099 C 0.62395 0.80265 0.31821 0.0
C2100 C 0.61944 0.81491 0.30446 0.0
C2101 C 0.6426 0.79488 0.31976 0.0
C2102 C 0.64762 0.78068 0.33315 0.0
C2103 C 0.63486 0.7634 0.33391 0.0
C2104 C 0.63957 0.75012 0.34661 0.0
C2105 C 0.6571 0.75389 0.35855 0.0
C2106 C 0.66996 0.77092 0.35779 0.0
C2107 C 0.6653 0.78427 0.34513 0.0
H2108 H 0.66073 0.74359 0.36837 0.0
H2109 H 0.61476 0.87067 0.24345 0.0
H2110 H 0.02139 0.08041 0.99845 0.0
H2111 H 0.01981 0.10849 0.9803 0.0
H2112 H 0.04064 0.07577 0.93671 0.0
H2113 H 0.04241 0.04758 0.95494 0.0
H2114 H 0.06112 0.11161 0.94327 0.0
H2115 H 0.99241 0.08538 0.93387 0.0
H2116 H 0.95976 0.07239 0.94248 0.0
H2117 H 0.95552 0.12679 0.97191 0.0
H2118 H 0.98829 0.14002 0.96369 0.0
H2119 H 0.04889 0.18892 0.88617 0.0
H2120 H 0.04458 0.15644 0.89753 0.0
H2121 H 0.02221 0.18105 0.94443 0.0
H2122 H 0.02619 0.21339 0.9331 0.0
H2123 H 0.00102 0.14693 0.93271 0.0
H2124 H 0.07109 0.17156 0.94517 0.0
H2125 H 0.10405 0.18469 0.9373 0.0
H2126 H 0.10582 0.13325 0.90269 0.0
H2127 H 0.07272 0.11992 0.91018 0.0
C2128 C 0.0255 0.07912 0.98496 0.0
C2129 C 0.03204 0.06182 0.97806 0.0
C2130 C 0.02449 0.09516 0.97456 0.0
C2131 C 0.02991 0.09415 0.95708 0.0
C2132 C 0.03632 0.07683 0.95014 0.0
C2133 C 0.0373 0.06076 0.96053 0.0
C2134 C 0.02984 0.11154 0.94645 0.0
C2135 C 0.04787 0.11912 0.94063 0.0
C2136 C 0.01265 0.12152 0.94333 0.0
C2137 C 0.99289 0.11364 0.94827 0.0
C2138 C 0.98459 0.09452 0.9423 0.0
C2139 C 0.96605 0.08713 0.94708 0.0
C2140 C 0.95559 0.09875 0.95776 0.0
C2141 C 0.96364 0.1178 0.96364 0.0
C2142 C 0.98219 0.12527 0.95891 0.0
C2143 C 0.04288 0.18737 0.89883 0.0
C2144 C 0.03793 0.20374 0.90876 0.0
C2145 C 0.04048 0.16882 0.90532 0.0
C2146 C 0.0333 0.16637 0.92194 0.0
C2147 C 0.02774 0.18259 0.93157 0.0
C2148 C 0.03006 0.20109 0.92506 0.0
C2149 C 0.03238 0.14715 0.9298 0.0
C2150 C 0.01418 0.13925 0.93512 0.0
C2151 C 0.04944 0.13689 0.93254 0.0
C2152 C 0.06934 0.14486 0.92807 0.0
C2153 C 0.07844 0.16312 0.93577 0.0
C2154 C 0.09716 0.17059 0.9314 0.0
C2155 C 0.10699 0.15984 0.91946 0.0
C2156 C 0.09816 0.14157 0.91191 0.0
C2157 C 0.07943 0.13406 0.91622 0.0
H2158 H 0.12148 0.16564 0.91609 0.0
H2159 H 0.94124 0.09299 0.96145 0.0
H2160 H 0.38344 0.27108 0.27055 0.0
H2161 H 0.40507 0.27004 0.24642 0.0
H2162 H 0.35483 0.27777 0.20789 0.0
H2163 H 0.33327 0.27888 0.23184 0.0
H2164 H 0.37637 0.24822 0.19698 0.0
H2165 H 0.38927 0.31527 0.22089 0.0
H2166 H 0.39913 0.34178 0.24464 0.0
H2167 H 0.45703 0.32158 0.25506 0.0
H2168 H 0.4474 0.29476 0.23151 0.0
H2169 H 0.42147 0.2714 0.12069 0.0
H2170 H 0.40355 0.27398 0.14696 0.0
H2171 H 0.45803 0.26917 0.18131 0.0
H2172 H 0.47624 0.26682 0.15497 0.0
H2173 H 0.43616 0.29601 0.19565 0.0
H2174 H 0.42419 0.2298 0.17139 0.0
H2175 H 0.41469 0.20292 0.14794 0.0
H2176 H 0.35556 0.22065 0.13882 0.0
H2177 H 0.36479 0.24783 0.16205 0.0
C2178 C 0.37707 0.27257 0.25692 0.0
C2179 C 0.35673 0.27514 0.2531 0.0
C2180 C 0.38942 0.27205 0.24318 0.0
C2181 C 0.38158 0.27397 0.22538 0.0
C2182 C 0.3612 0.27629 0.22153 0.0
C2183 C 0.34891 0.27698 0.23526 0.0
C2184 C 0.39446 0.27334 0.21065 0.0
C2185 C 0.38932 0.25879 0.19659 0.0
C2186 C 0.41172 0.28677 0.21044 0.0
C2187 C 0.41753 0.30288 0.22459 0.0
C2188 C 0.40404 0.31637 0.22836 0.0
C2189 C 0.4096 0.33148 0.24176 0.0
C2190 C 0.42867 0.33333 0.25139 0.0
C2191 C 0.44224 0.3201 0.24761 0.0
C2192 C 0.43675 0.30496 0.23423 0.0
C2193 C 0.42974 0.27106 0.13382 0.0
C2194 C 0.45027 0.26872 0.1357 0.0
C2195 C 0.41943 0.27246 0.14884 0.0
C2196 C 0.42935 0.27137 0.16609 0.0
C2197 C 0.45004 0.26993 0.16812 0.0
C2198 C 0.46042 0.26858 0.15305 0.0
C2199 C 0.41785 0.27107 0.18182 0.0
C2200 C 0.42328 0.28537 0.19608 0.0
C2201 C 0.40089 0.25733 0.18231 0.0
C2202 C 0.39525 0.24096 0.16835 0.0
C2203 C 0.40921 0.22807 0.16429 0.0
C2204 C 0.40386 0.21276 0.15105 0.0
C2205 C 0.38455 0.21011 0.14187 0.0
C2206 C 0.37052 0.22273 0.14593 0.0
C2207 C 0.3758 0.23808 0.15914 0.0
H2208 H 0.38044 0.19824 0.13163 0.0
H2209 H 0.43295 0.34504 0.26176 0.0
H2210 H 0.59167 0.44223 0.01715 0.0
H2211 H 0.58246 0.41345 0.03318 0.0
H2212 H 0.52004 0.42159 0.02185 0.0
H2213 H 0.52916 0.45034 0.00555 0.0
H2214 H 0.5334 0.41198 0.05889 0.0
H2215 H 0.5345 0.38928 0.99701 0.0
H2216 H 0.54963 0.38654 0.96876 0.0
H2217 H 0.59904 0.36112 0.99558 0.0
H2218 H 0.58433 0.36397 0.02407 0.0
H2219 H 0.49419 0.31583 0.07807 0.0
H2220 H 0.50206 0.3482 0.06736 0.0
H2221 H 0.5622 0.33493 0.06166 0.0
H2222 H 0.55397 0.30228 0.07136 0.0
H2223 H 0.54863 0.34812 0.03302 0.0
H2224 H 0.54914 0.37022 0.09468 0.0
H2225 H 0.53599 0.37374 0.12384 0.0
H2226 H 0.4864 0.40079 0.09939 0.0
H2227 H 0.49912 0.39721 0.07002 0.0
C2228 C 0.57599 0.43794 0.01816 0.0
C2229 C 0.56114 0.44838 0.00999 0.0
C2230 C 0.57076 0.42153 0.02733 0.0
C2231 C 0.55058 0.41538 0.02863 0.0
C2232 C 0.5357 0.42615 0.021 0.0
C2233 C 0.54092 0.44247 0.01162 0.0
C2234 C 0.54513 0.39706 0.03711 0.0
C2235 C 0.53646 0.39793 0.05319 0.0
C2236 C 0.54963 0.37889 0.02985 0.0
C2237 C 0.55841 0.37701 0.0127 0.0
C2238 C 0.54867 0.38326 0.99692 0.0
C2239 C 0.55716 0.38165 0.98085 0.0
C2240 C 0.57531 0.3737 0.98038 0.0
C2241 C 0.58499 0.36729 0.99597 0.0
C2242 C 0.57657 0.36888 0.01207 0.0
C2243 C 0.5092 0.32003 0.07489 0.0
C2244 C 0.52346 0.30656 0.07548 0.0
C2245 C 0.51373 0.33858 0.0688 0.0
C2246 C 0.53278 0.34415 0.0637 0.0
C2247 C 0.54734 0.331 0.06533 0.0
C2248 C 0.54267 0.31236 0.07097 0.0
C2249 C 0.53716 0.36284 0.05519 0.0
C2250 C 0.54556 0.36207 0.03893 0.0
C2251 C 0.53267 0.3811 0.06248 0.0
C2252 C 0.52498 0.38326 0.08012 0.0
C2253 C 0.53535 0.37678 0.09549 0.0
C2254 C 0.52799 0.37881 0.11207 0.0
C2255 C 0.51034 0.38743 0.11346 0.0
C2256 C 0.50005 0.39409 0.09829 0.0
C2257 C 0.50734 0.39208 0.08168 0.0
H2258 H 0.50467 0.38899 0.1263 0.0
H2259 H 0.58185 0.37248 0.96793 0.0
H2260 H 0.68982 0.19198 0.20389 0.0
H2261 H 0.66171 0.19839 0.18237 0.0
H2262 H 0.63667 0.22949 0.22445 0.0
H2263 H 0.66459 0.22298 0.24602 0.0
H2264 H 0.60797 0.20546 0.20297 0.0
H2265 H 0.66131 0.25453 0.19527 0.0
H2266 H 0.69556 0.26693 0.1901 0.0
H2267 H 0.68792 0.23419 0.139 0.0
H2268 H 0.6537 0.22137 0.14397 0.0
H2269 H 0.53815 0.24894 0.14323 0.0
H2270 H 0.56459 0.24339 0.16677 0.0
H2271 H 0.59611 0.21563 0.12723 0.0
H2272 H 0.57019 0.22156 0.1037 0.0
H2273 H 0.62134 0.23963 0.14873 0.0
H2274 H 0.56864 0.18948 0.15669 0.0
H2275 H 0.53451 0.17659 0.1618 0.0
H2276 H 0.5409 0.21076 0.21211 0.0
H2277 H 0.575 0.22405 0.20719 0.0
C2278 C 0.67827 0.20013 0.20853 0.0
C2279 C 0.67947 0.20707 0.22657 0.0
C2280 C 0.66227 0.20384 0.19624 0.0
C2281 C 0.64722 0.21463 0.20177 0.0
C2282 C 0.64814 0.22118 0.21989 0.0
C2283 C 0.66416 0.2175 0.23218 0.0
C2284 C 0.63069 0.2193 0.18859 0.0
C2285 C 0.61085 0.21316 0.19122 0.0
C2286 C 0.63448 0.22908 0.17314 0.0
C2287 C 0.65501 0.23686 0.17007 0.0
C2288 C 0.66699 0.24986 0.18299 0.0
C2289 C 0.68639 0.25698 0.18009 0.0
C2290 C 0.69393 0.25132 0.16425 0.0
C2291 C 0.68207 0.23855 0.15127 0.0
C2292 C 0.66266 0.23136 0.15411 0.0
C2293 C 0.55069 0.2416 0.13957 0.0
C2294 C 0.55204 0.23573 0.12156 0.0
C2295 C 0.56576 0.23837 0.15305 0.0
C2296 C 0.58229 0.22893 0.14881 0.0
C2297 C 0.58357 0.223 0.13085 0.0
C2298 C 0.56868 0.22638 0.11739 0.0
C2299 C 0.59855 0.22548 0.16288 0.0
C2300 C 0.6184 0.23195 0.16047 0.0
C2301 C 0.59474 0.21594 0.17848 0.0
C2302 C 0.57428 0.20791 0.18148 0.0
C2303 C 0.56271 0.19436 0.16878 0.0
C2304 C 0.54338 0.18696 0.17165 0.0
C2305 C 0.53552 0.1929 0.18724 0.0
C2306 C 0.547 0.2062 0.20002 0.0
C2307 C 0.56633 0.21366 0.19721 0.0
H2308 H 0.52055 0.18715 0.18944 0.0
H2309 H 0.70895 0.25685 0.16203 0.0
H2310 H 0.49748 0.05902 0.98032 0.0
H2311 H 0.50308 0.08998 0.9985 0.0
H2312 H 0.44059 0.08518 0.00651 0.0
H2313 H 0.43452 0.0552 0.98714 0.0
H2314 H 0.45084 0.12017 0.00109 0.0
H2315 H 0.48019 0.07542 0.03953 0.0
H2316 H 0.50229 0.05053 0.04852 0.0
H2317 H 0.55395 0.09027 0.04271 0.0
H2318 H 0.53213 0.11532 0.03345 0.0
H2319 H 0.45962 0.18645 0.07906 0.0
H2320 H 0.45696 0.15529 0.06107 0.0
H2321 H 0.51031 0.17478 0.03784 0.0
H2322 H 0.51282 0.20613 0.05541 0.0
H2323 H 0.50583 0.13322 0.05113 0.0
H2324 H 0.47387 0.17792 0.01264 0.0
H2325 H 0.45016 0.20211 0.00588 0.0
H2326 H 0.40115 0.16054 0.01475 0.0
H2327 H 0.42464 0.1362 0.02184 0.0
C2328 C 0.48484 0.06465 0.98571 0.0
C2329 C 0.46554 0.05441 0.98227 0.0
C2330 C 0.48815 0.08226 0.99639 0.0
C2331 C 0.47235 0.08981 0.00422 0.0
C2332 C 0.45308 0.07967 0.00073 0.0
C2333 C 0.44969 0.06231 0.9898 0.0
C2334 C 0.47566 0.10844 0.01574 0.0
C2335 C 0.46275 0.12282 0.01214 0.0
C2336 C 0.49136 0.11221 0.03007 0.0
C2337 C 0.50452 0.09717 0.03561 0.0
C2338 C 0.49626 0.0788 0.04003 0.0
C2339 C 0.50873 0.06467 0.0452 0.0
C2340 C 0.52951 0.0688 0.04614 0.0
C2341 C 0.53785 0.08708 0.04195 0.0
C2342 C 0.52544 0.10125 0.03675 0.0
C2343 C 0.47089 0.18405 0.07024 0.0
C2344 C 0.48637 0.19882 0.06858 0.0
C2345 C 0.46932 0.16627 0.05998 0.0
C2346 C 0.48342 0.16283 0.04815 0.0
C2347 C 0.49931 0.17722 0.04693 0.0
C2348 C 0.50065 0.19517 0.05691 0.0
C2349 C 0.48097 0.14456 0.03644 0.0
C2350 C 0.49401 0.13037 0.04002 0.0
C2351 C 0.46517 0.14076 0.02234 0.0
C2352 C 0.45103 0.15533 0.01796 0.0
C2353 C 0.45806 0.17401 0.01332 0.0
C2354 C 0.44466 0.18773 0.00939 0.0
C2355 C 0.42417 0.18288 0.00993 0.0
C2356 C 0.41703 0.16429 0.01436 0.0
C2357 C 0.43038 0.15052 0.01832 0.0
H2358 H 0.41381 0.19352 0.00688 0.0
H2359 H 0.53914 0.05784 0.05015 0.0
H2360 H 0.25496 0.38388 0.72142 0.0
H2361 H 0.28118 0.41156 0.7268 0.0
H2362 H 0.3254 0.37343 0.7147 0.0
H2363 H 0.29933 0.3457 0.70951 0.0
H2364 H 0.33803 0.39878 0.74478 0.0
H2365 H 0.3082 0.40163 0.68379 0.0
H2366 H 0.28025 0.40309 0.66007 0.0
H2367 H 0.26681 0.45698 0.68516 0.0
H2368 H 0.29453 0.45568 0.70918 0.0
H2369 H 0.41881 0.46482 0.72688 0.0
H2370 H 0.39104 0.43897 0.72476 0.0
H2371 H 0.35044 0.4818 0.73414 0.0
H2372 H 0.37811 0.50788 0.73611 0.0
H2373 H 0.33475 0.45527 0.70719 0.0
H2374 H 0.36537 0.45393 0.76717 0.0
H2375 H 0.39309 0.45292 0.7912 0.0
H2376 H 0.40458 0.39694 0.76901 0.0
H2377 H 0.37711 0.39774 0.74467 0.0
C2378 C 0.2703 0.3814 0.72006 0.0
C2379 C 0.27509 0.36267 0.71494 0.0
C2380 C 0.28523 0.39722 0.72304 0.0
C2381 C 0.3052 0.39455 0.72101 0.0
C2382 C 0.31008 0.37579 0.71631 0.0
C2383 C 0.29516 0.36002 0.71321 0.0
C2384 C 0.321 0.41135 0.72337 0.0
C2385 C 0.33743 0.41106 0.73646 0.0
C2386 C 0.3199 0.4276 0.71285 0.0
C2387 C 0.30329 0.42844 0.69838 0.0
C2388 C 0.29918 0.4137 0.68433 0.0
C2389 C 0.2834 0.41452 0.67082 0.0
C2390 C 0.27172 0.43009 0.67114 0.0
C2391 C 0.27584 0.44491 0.68495 0.0
C2392 C 0.29159 0.44415 0.69851 0.0
C2393 C 0.404 0.4688 0.7285 0.0
C2394 C 0.40075 0.48846 0.73173 0.0
C2395 C 0.38814 0.45397 0.72736 0.0
C2396 C 0.36871 0.45844 0.72953 0.0
C2397 C 0.36532 0.47804 0.73249 0.0
C2398 C 0.38119 0.4929 0.73364 0.0
C2399 C 0.35194 0.44262 0.72847 0.0
C2400 C 0.33531 0.44308 0.71562 0.0
C2401 C 0.35281 0.42659 0.73931 0.0
C2402 C 0.36928 0.42598 0.75399 0.0
C2403 C 0.3739 0.44147 0.76733 0.0
C2404 C 0.38955 0.44093 0.78102 0.0
C2405 C 0.40062 0.4249 0.78161 0.0
C2406 C 0.39601 0.40936 0.76853 0.0
C2407 C 0.38038 0.40984 0.75479 0.0
H2408 H 0.41274 0.42451 0.79222 0.0
H2409 H 0.25952 0.4307 0.66066 0.0
H2410 H 0.28843 0.70937 0.78978 0.0
H2411 H 0.31501 0.68837 0.78652 0.0
H2412 H 0.27125 0.64176 0.76215 0.0
H2413 H 0.24447 0.6626 0.76576 0.0
H2414 H 0.29857 0.62865 0.78699 0.0
H2415 H 0.30002 0.6676 0.73647 0.0
H2416 H 0.30148 0.69812 0.72103 0.0
H2417 H 0.35881 0.71753 0.7506 0.0
H2418 H 0.35757 0.68722 0.76641 0.0
H2419 H 0.36916 0.57027 0.7522 0.0
H2420 H 0.34125 0.58931 0.7566 0.0
H2421 H 0.383 0.63872 0.77836 0.0
H2422 H 0.41094 0.61994 0.77371 0.0
H2423 H 0.35584 0.64977 0.7542 0.0
H2424 H 0.35436 0.61121 0.80509 0.0
H2425 H 0.35294 0.58089 0.82083 0.0
H2426 H 0.29594 0.56086 0.79095 0.0
H2427 H 0.29714 0.59097 0.77484 0.0
C2428 C 0.28444 0.69461 0.78383 0.0
C2429 C 0.26433 0.68766 0.778 0.0
C2430 C 0.29966 0.68267 0.78185 0.0
C2431 C 0.29514 0.66354 0.77394 0.0
C2432 C 0.27508 0.65648 0.76825 0.0
C2433 C 0.25983 0.66846 0.77018 0.0
C2434 C 0.3114 0.65099 0.77161 0.0
C2435 C 0.31096 0.63312 0.7796 0.0
C2436 C 0.32777 0.65701 0.7623 0.0
C2437 C 0.32861 0.67521 0.75275 0.0
C2438 C 0.31287 0.67844 0.73978 0.0
C2439 C 0.31367 0.69569 0.73095 0.0
C2440 C 0.33021 0.70977 0.73486 0.0
C2441 C 0.346 0.70661 0.74759 0.0
C2442 C 0.34527 0.68939 0.75649 0.0
C2443 C 0.3724 0.58512 0.7581 0.0
C2444 C 0.3923 0.59359 0.76256 0.0
C2445 C 0.35641 0.59598 0.76066 0.0
C2446 C 0.35999 0.61544 0.76789 0.0
C2447 C 0.37984 0.62376 0.7727 0.0
C2448 C 0.39581 0.61296 0.77009 0.0
C2449 C 0.34317 0.62747 0.76974 0.0
C2450 C 0.34347 0.64525 0.76159 0.0
C2451 C 0.32671 0.62136 0.77894 0.0
C2452 C 0.32594 0.60326 0.78862 0.0
C2453 C 0.3416 0.60027 0.80176 0.0
C2454 C 0.34082 0.58314 0.81078 0.0
C2455 C 0.32439 0.56894 0.80686 0.0
C2456 C 0.30867 0.57187 0.79395 0.0
C2457 C 0.30939 0.58897 0.78488 0.0
H2458 H 0.32381 0.55568 0.81385 0.0
H2459 H 0.3308 0.72312 0.728 0.0
H2460 H 0.90234 0.5165 0.46628 0.0
H2461 H 0.87459 0.49352 0.47291 0.0
H2462 H 0.91265 0.44698 0.47264 0.0
H2463 H 0.94041 0.46989 0.46581 0.0
H2464 H 0.87651 0.43463 0.4559 0.0
H2465 H 0.90237 0.47004 0.51203 0.0
H2466 H 0.91267 0.49949 0.53249 0.0
H2467 H 0.85286 0.51582 0.52493 0.0
H2468 H 0.84227 0.48659 0.5042 0.0
H2469 H 0.82501 0.36586 0.50386 0.0
H2470 H 0.84968 0.39111 0.49598 0.0
H2471 H 0.80497 0.43144 0.4918 0.0
H2472 H 0.77994 0.40614 0.49974 0.0
H2473 H 0.8424 0.448 0.50973 0.0
H2474 H 0.81642 0.41103 0.4547 0.0
H2475 H 0.80662 0.381 0.43491 0.0
H2476 H 0.86737 0.36709 0.44113 0.0
H2477 H 0.87749 0.3969 0.4612 0.0
C2478 C 0.90478 0.50136 0.46765 0.0
C2479 C 0.92358 0.49501 0.46565 0.0
C2480 C 0.88892 0.48825 0.47145 0.0
C2481 C 0.89162 0.46859 0.47357 0.0
C2482 C 0.91023 0.4621 0.47109 0.0
C2483 C 0.92606 0.47518 0.46715 0.0
C2484 C 0.87517 0.45481 0.47861 0.0
C2485 C 0.86921 0.43748 0.46777 0.0
C2486 C 0.86528 0.45874 0.49387 0.0
C2487 C 0.87158 0.47624 0.50642 0.0
C2488 C 0.89145 0.47999 0.51463 0.0
C2489 C 0.89734 0.49663 0.52628 0.0
C2490 C 0.88344 0.50955 0.52997 0.0
C2491 C 0.86361 0.50582 0.52204 0.0
C2492 C 0.85766 0.48921 0.51034 0.0
C2493 C 0.82034 0.38011 0.50141 0.0
C2494 C 0.80039 0.3839 0.50232 0.0
C2495 C 0.8345 0.39452 0.49683 0.0
C2496 C 0.82907 0.41303 0.49306 0.0
C2497 C 0.80941 0.41718 0.49459 0.0
C2498 C 0.79513 0.4027 0.49909 0.0
C2499 C 0.84398 0.42779 0.48715 0.0
C2500 C 0.84963 0.44527 0.4978 0.0
C2501 C 0.85368 0.42397 0.47178 0.0
C2502 C 0.84768 0.40612 0.45957 0.0
C2503 C 0.82767 0.40149 0.45196 0.0
C2504 C 0.82205 0.38452 0.44067 0.0
C2505 C 0.83635 0.37213 0.4368 0.0
C2506 C 0.85631 0.3767 0.44416 0.0
C2507 C 0.86199 0.39364 0.45548 0.0
H2508 H 0.83198 0.35899 0.42806 0.0
H2509 H 0.88803 0.52242 0.53899 0.0
H2510 H 0.76702 0.80518 0.7562 0.0
H2511 H 0.7434 0.82907 0.74956 0.0
H2512 H 0.74545 0.84535 0.80598 0.0
H2513 H 0.76955 0.82198 0.81277 0.0
H2514 H 0.70605 0.84215 0.78675 0.0
H2515 H 0.773 0.87279 0.78329 0.0
H2516 H 0.80624 0.87515 0.7725 0.0
H2517 H 0.77869 0.87497 0.71827 0.0
H2518 H 0.74525 0.87232 0.72874 0.0
H2519 H 0.67305 0.93729 0.78471 0.0
H2520 H 0.6879 0.90691 0.78968 0.0
H2521 H 0.69646 0.90063 0.73372 0.0
H2522 H 0.68255 0.93144 0.72897 0.0
H2523 H 0.72936 0.89709 0.75202 0.0
H2524 H 0.66242 0.86862 0.75478 0.0
H2525 H 0.62884 0.86552 0.76486 0.0
H2526 H 0.65493 0.86067 0.81884 0.0
H2527 H 0.68871 0.864 0.80913 0.0
C2528 C 0.76253 0.81387 0.76722 0.0
C2529 C 0.77038 0.81172 0.78502 0.0
C2530 C 0.74889 0.8274 0.7634 0.0
C2531 C 0.74276 0.83903 0.77728 0.0
C2532 C 0.74991 0.83643 0.79508 0.0
C2533 C 0.76367 0.82301 0.79892 0.0
C2534 C 0.73004 0.85484 0.77316 0.0
C2535 C 0.71112 0.85427 0.77926 0.0
C2536 C 0.73653 0.87037 0.76306 0.0
C2537 C 0.75663 0.87215 0.75678 0.0
C2538 C 0.77403 0.8731 0.76905 0.0
C2539 C 0.7929 0.87451 0.763 0.0
C2540 C 0.79457 0.87516 0.74471 0.0
C2541 C 0.77737 0.87444 0.73244 0.0
C2542 C 0.75845 0.87299 0.73842 0.0
C2543 C 0.67763 0.92914 0.7734 0.0
C2544 C 0.67675 0.93676 0.75648 0.0
C2545 C 0.6861 0.91172 0.77623 0.0
C2546 C 0.69334 0.90136 0.76207 0.0
C2547 C 0.69117 0.90837 0.74491 0.0
C2548 C 0.68313 0.92595 0.74217 0.0
C2549 C 0.70504 0.8845 0.76542 0.0
C2550 C 0.72397 0.88491 0.7593 0.0
C2551 C 0.69841 0.86877 0.77534 0.0
C2552 C 0.67812 0.86673 0.78124 0.0
C2553 C 0.66101 0.86704 0.76882 0.0
C2554 C 0.64194 0.86522 0.77447 0.0
C2555 C 0.63976 0.86295 0.79249 0.0
C2556 C 0.65665 0.86244 0.80489 0.0
C2557 C 0.67576 0.86428 0.79932 0.0
H2558 H 0.62498 0.86154 0.79683 0.0
H2559 H 0.8092 0.87625 0.74004 0.0
H2560 H 0.61774 0.51016 0.98396 0.0
H2561 H 0.64776 0.53364 0.99069 0.0
H2562 H 0.61304 0.58035 0.97538 0.0
H2563 H 0.58309 0.55699 0.96858 0.0
H2564 H 0.64691 0.58289 0.96055 0.0
H2565 H 0.62837 0.57339 0.0197 0.0
H2566 H 0.6202 0.55414 0.04497 0.0
H2567 H 0.6781 0.53324 0.04829 0.0
H2568 H 0.68652 0.55217 0.02287 0.0
H2569 H 0.70808 0.66725 0.9975 0.0
H2570 H 0.68156 0.64025 0.99126 0.0
H2571 H 0.72414 0.5993 0.00419 0.0
H2572 H 0.75097 0.62635 0.01059 0.0
H2573 H 0.68884 0.59152 0.01948 0.0
H2574 H 0.70814 0.60306 0.9616 0.0
H2575 H 0.71624 0.62272 0.93658 0.0
H2576 H 0.65674 0.63999 0.93096 0.0
H2577 H 0.64836 0.62065 0.95613 0.0
C2578 C 0.61648 0.52548 0.98224 0.0
C2579 C 0.59805 0.53172 0.9757 0.0
C2580 C 0.63365 0.53888 0.98607 0.0
C2581 C 0.63265 0.55879 0.98363 0.0
C2582 C 0.61421 0.56505 0.97728 0.0
C2583 C 0.59711 0.55168 0.97338 0.0
C2584 C 0.65081 0.57316 0.98724 0.0
C2585 C 0.65594 0.58489 0.9735 0.0
C2586 C 0.66301 0.57537 0.00395 0.0
C2587 C 0.65798 0.56402 0.01926 0.0
C2588 C 0.6393 0.56456 0.02572 0.0
C2589 C 0.63463 0.55373 0.04009 0.0
C2590 C 0.64859 0.54242 0.0482 0.0
C2591 C 0.66728 0.54197 0.04198 0.0
C2592 C 0.67201 0.55276 0.0276 0.0
C2593 C 0.7119 0.65253 0.99904 0.0
C2594 C 0.73173 0.649 0.0045 0.0
C2595 C 0.69669 0.63709 0.99539 0.0
C2596 C 0.70091 0.61776 0.99707 0.0
C2597 C 0.72059 0.61412 0.00276 0.0
C2598 C 0.7359 0.62959 0.00634 0.0
C2599 C 0.68461 0.60148 0.99291 0.0
C2600 C 0.67987 0.58938 0.0065 0.0
C2601 C 0.67273 0.59893 0.97607 0.0
C2602 C 0.67768 0.61052 0.96086 0.0
C2603 C 0.69683 0.61117 0.95513 0.0
C2604 C 0.70146 0.62224 0.9409 0.0
C2605 C 0.68703 0.63263 0.93221 0.0
C2606 C 0.66791 0.63194 0.93771 0.0
C2607 C 0.66321 0.62091 0.95195 0.0
H2608 H 0.69065 0.64119 0.9212 0.0
H2609 H 0.64495 0.53405 0.05932 0.0
H2610 H 0.25348 0.69862 0.22552 0.0
H2611 H 0.22928 0.67032 0.22839 0.0
H2612 H 0.27709 0.63333 0.23186 0.0
H2613 H 0.30135 0.66158 0.22906 0.0
H2614 H 0.24173 0.61742 0.20866 0.0
H2615 H 0.26153 0.6477 0.26871 0.0
H2616 H 0.2662 0.6753 0.29171 0.0
H2617 H 0.20333 0.68142 0.2834 0.0
H2618 H 0.19834 0.65401 0.26014 0.0
H2619 H 0.20414 0.53373 0.24781 0.0
H2620 H 0.22265 0.56319 0.23933 0.0
H2621 H 0.17296 0.59577 0.24813 0.0
H2622 H 0.15449 0.56627 0.25718 0.0
H2623 H 0.20615 0.61553 0.26285 0.0
H2624 H 0.18493 0.58377 0.2052 0.0
H2625 H 0.17929 0.55671 0.18166 0.0
H2626 H 0.2427 0.55404 0.18398 0.0
H2627 H 0.24873 0.58091 0.20773 0.0
C2628 C 0.25877 0.6844 0.22672 0.0
C2629 C 0.27927 0.68226 0.22714 0.0
C2630 C 0.24497 0.6683 0.22841 0.0
C2631 C 0.25145 0.64979 0.2304 0.0
C2632 C 0.27183 0.64751 0.23032 0.0
C2633 C 0.28566 0.66364 0.22886 0.0
C2634 C 0.23714 0.63291 0.23327 0.0
C2635 C 0.23402 0.61688 0.22054 0.0
C2636 C 0.22662 0.63259 0.24849 0.0
C2637 C 0.2296 0.64897 0.26255 0.0
C2638 C 0.24873 0.65505 0.27168 0.0
C2639 C 0.25143 0.67063 0.28478 0.0
C2640 C 0.23509 0.68015 0.28897 0.0
C2641 C 0.21599 0.67406 0.28011 0.0
C2642 C 0.21321 0.6585 0.26697 0.0
C2643 C 0.19702 0.54709 0.24774 0.0
C2644 C 0.17781 0.54765 0.25309 0.0
C2645 C 0.2076 0.56394 0.2428 0.0
C2646 C 0.19909 0.58167 0.2428 0.0
C2647 C 0.17981 0.58224 0.24797 0.0
C2648 C 0.16926 0.56538 0.2531 0.0
C2649 C 0.21087 0.59973 0.23835 0.0
C2650 C 0.21356 0.61604 0.2508 0.0
C2651 C 0.2208 0.60038 0.22274 0.0
C2652 C 0.21727 0.58428 0.20836 0.0
C2653 C 0.19767 0.57733 0.20079 0.0
C2654 C 0.1944 0.56203 0.18739 0.0
C2655 C 0.21062 0.55364 0.18135 0.0
C2656 C 0.23015 0.56056 0.18867 0.0
C2657 C 0.2335 0.57584 0.20209 0.0
H2658 H 0.20806 0.5418 0.17098 0.0
H2659 H 0.23721 0.69221 0.29913 0.0
H2660 H 0.94212 0.52375 0.07011 0.0
H2661 H 0.91531 0.54478 0.065 0.0
H2662 H 0.93109 0.55331 0.01185 0.0
H2663 H 0.95836 0.53294 0.0171 0.0
H2664 H 0.92395 0.58692 0.02783 0.0
H2665 H 0.89031 0.52173 0.01872 0.0
H2666 H 0.88103 0.48819 0.02679 0.0
H2667 H 0.85558 0.51067 0.07254 0.0
H2668 H 0.86496 0.54437 0.06488 0.0
H2669 H 0.83707 0.63139 0.99849 0.0
H2670 H 0.86236 0.60835 0.00055 0.0
H2671 H 0.84755 0.59514 0.0531 0.0
H2672 H 0.82189 0.61751 0.05087 0.0
H2673 H 0.85397 0.56314 0.03582 0.0
H2674 H 0.88906 0.6281 0.04609 0.0
H2675 H 0.89877 0.66179 0.03862 0.0
H2676 H 0.92182 0.63992 0.99133 0.0
H2677 H 0.91202 0.60608 0.99841 0.0
C2678 C 0.94002 0.53027 0.05741 0.0
C2679 C 0.95232 0.52654 0.04397 0.0
C2680 C 0.92455 0.54212 0.05443 0.0
C2681 C 0.92097 0.55037 0.03792 0.0
C2682 C 0.93347 0.54701 0.02464 0.0
C2683 C 0.94896 0.53521 0.02762 0.0
C2684 C 0.90425 0.56259 0.03448 0.0
C2685 C 0.9086 0.58162 0.02933 0.0
C2686 C 0.88427 0.55583 0.03675 0.0
C2687 C 0.87849 0.53557 0.04131 0.0
C2688 C 0.88286 0.51952 0.03057 0.0
C2689 C 0.87756 0.50048 0.03506 0.0
C2690 C 0.86777 0.4973 0.05019 0.0
C2691 C 0.86319 0.51316 0.06083 0.0
C2692 C 0.86848 0.53223 0.05641 0.0
C2693 C 0.83907 0.62341 0.01039 0.0
C2694 C 0.82754 0.62639 0.02456 0.0
C2695 C 0.85363 0.61033 0.01161 0.0
C2696 C 0.85718 0.60028 0.02715 0.0
C2697 C 0.84517 0.60274 0.041 0.0
C2698 C 0.83049 0.6156 0.0397 0.0
C2699 C 0.87367 0.58756 0.02932 0.0
C2700 C 0.8693 0.56842 0.03424 0.0
C2701 C 0.89366 0.59425 0.02691 0.0
C2702 C 0.89962 0.61458 0.02268 0.0
C2703 C 0.89608 0.63048 0.03403 0.0
C2704 C 0.90162 0.6496 0.02988 0.0
C2705 C 0.91085 0.65299 0.01448 0.0
C2706 C 0.91463 0.63727 0.00323 0.0
C2707 C 0.9091 0.61812 0.00731 0.0
H2708 H 0.91513 0.66781 0.01129 0.0
H2709 H 0.86368 0.48255 0.05364 0.0
H2710 H 0.09187 0.01651 0.02018 0.0
H2711 H 0.11681 0.99466 0.01354 0.0
H2712 H 0.07792 0.94555 0.027 0.0
H2713 H 0.05305 0.96746 0.03398 0.0
H2714 H 0.11506 0.94255 0.04012 0.0
H2715 H 0.08267 0.95594 0.98281 0.0
H2716 H 0.07069 0.97685 0.95938 0.0
H2717 H 0.13109 0.00145 0.95644 0.0
H2718 H 0.14341 0.98088 0.98005 0.0
H2719 H 0.1567 0.8654 0.99893 0.0
H2720 H 0.13371 0.88973 0.00352 0.0
H2721 H 0.18025 0.93576 0.99795 0.0
H2722 H 0.20361 0.91138 0.99341 0.0
H2723 H 0.14097 0.94154 0.98094 0.0
H2724 H 0.17304 0.92694 0.038 0.0
H2725 H 0.18439 0.9053 0.06104 0.0
H2726 H 0.12349 0.88215 0.06384 0.0
H2727 H 0.1118 0.90345 0.04061 0.0
C2728 C 0.08866 0.00104 0.02172 0.0
C2729 C 0.07046 0.99364 0.02746 0.0
C2730 C 0.10289 0.98857 0.01787 0.0
C2731 C 0.09909 0.96839 0.01942 0.0
C2732 C 0.08116 0.96105 0.02565 0.0
C2733 C 0.06699 0.97357 0.02967 0.0
C2734 C 0.11375 0.95492 0.01449 0.0
C2735 C 0.12052 0.9422 0.0271 0.0
C2736 C 0.1213 0.95475 0.99764 0.0
C2737 C 0.11394 0.96701 0.98333 0.0
C2738 C 0.09339 0.96591 0.97726 0.0
C2739 C 0.08653 0.97768 0.96394 0.0
C2740 C 0.10011 0.99051 0.95646 0.0
C2741 C 0.12059 0.99154 0.96226 0.0
C2742 C 0.12751 0.97981 0.9756 0.0
C2743 C 0.16205 0.88067 0.99841 0.0
C2744 C 0.18209 0.88645 0.996 0.0
C2745 C 0.14886 0.89456 0.00108 0.0
C2746 C 0.15538 0.91453 0.00137 0.0
C2747 C 0.17498 0.92039 0.99785 0.0
C2748 C 0.18829 0.90645 0.99526 0.0
C2749 C 0.14199 0.92911 0.0065 0.0
C2750 C 0.13552 0.94201 0.99396 0.0
C2751 C 0.13459 0.92939 0.02337 0.0
C2752 C 0.14156 0.91666 0.03744 0.0
C2753 C 0.16208 0.91712 0.04342 0.0
C2754 C 0.16857 0.90494 0.05653 0.0
C2755 C 0.15467 0.89233 0.06387 0.0
C2756 C 0.13424 0.89191 0.05814 0.0
C2757 C 0.12767 0.90405 0.045 0.0
H2758 H 0.15973 0.88291 0.07402 0.0
H2759 H 0.09478 0.99962 0.94615 0.0
loop_
_geom_bond_atom_site_label_1
_geom_bond_atom_site_label_2
_geom_bond_distance
_geom_bond_site_symmetry_2
_ccdc_geom_bond_type
H0 C5 0.930 . S
H1 C8 0.930 . S
H2 C10 0.930 . S
H3 C4 1.016 . S
C4 H3 1.016 . S
C4 N11 1.286 1_556 S
C5 H0 0.930 . S
C5 C6 1.397 . S
C5 C7 1.361 . S
C6 C5 1.397 . S
C6 C10 1.390 . S
C7 C5 1.361 . S
C7 C8 1.393 . S
C7 N11 1.413 . S
C8 H1 0.930 . S
C8 C7 1.393 . S
C8 C9 1.399 . S
C9 C8 1.399 . S
C9 C10 1.381 . S
C10 H2 0.930 . S
C10 C6 1.390 . S
C10 C9 1.381 . S
N11 C4 1.286 1_554 S
N11 C7 1.413 . S
H12 C17 0.930 . S
H13 C20 0.930 . S
H14 C22 0.930 . S
H15 C16 1.016 . S
C16 H15 1.016 . S
C16 N23 1.286 . S
C17 H12 0.930 . S
C17 C18 1.397 . S
C17 C19 1.361 . S
C18 C17 1.397 . S
C18 C22 1.390 . S
C19 C17 1.361 . S
C19 C20 1.393 . S
C19 N23 1.413 . S
C20 H13 0.930 . S
C20 C19 1.393 . S
C20 C21 1.399 . S
C21 C20 1.399 . S
C21 C22 1.381 . S
C22 H14 0.930 . S
C22 C18 1.390 . S
C22 C21 1.381 . S
N23 C16 1.286 . S
N23 C19 1.413 . S
H24 C29 0.930 . S
H25 C32 0.930 . S
H26 C34 0.930 . S
H27 C28 1.016 1_455 S
C28 H27 1.016 1_655 S
C28 N35 1.286 . S
C29 H24 0.930 . S
C29 C30 1.397 . S
C29 C31 1.361 . S
C30 C29 1.397 . S
C30 C34 1.390 . S
C31 C29 1.361 . S
C31 C32 1.393 . S
C31 N35 1.413 . S
C32 H25 0.930 . S
C32 C31 1.393 . S
C32 C33 1.399 . S
C33 C32 1.399 . S
C33 C34 1.381 . S
C34 H26 0.930 . S
C34 C30 1.390 . S
C34 C33 1.381 . S
N35 C28 1.286 . S
N35 C31 1.413 . S
H36 C41 0.930 . S
H37 C44 0.930 . S
H38 C46 0.930 . S
H39 C40 1.016 . S
C40 H39 1.016 . S
C40 N47 1.286 . S
C41 H36 0.930 . S
C41 C42 1.397 . S
C41 C43 1.361 . S
C42 C41 1.397 . S
C42 C46 1.390 . S
C43 C41 1.361 . S
C43 C44 1.393 . S
C43 N47 1.413 . S
C44 H37 0.930 . S
C44 C43 1.393 . S
C44 C45 1.399 . S
C45 C44 1.399 . S
C45 C46 1.381 . S
C46 H38 0.930 . S
C46 C42 1.390 . S
C46 C45 1.381 . S
N47 C40 1.286 . S
N47 C43 1.413 . S
H48 C53 0.930 . S
H49 C56 0.930 . S
H50 C58 0.938 . S
H51 C52 1.016 . S
C52 H51 1.016 . S
C52 N59 1.286 . S
C53 H48 0.930 . S
C53 C54 1.397 . S
C53 C55 1.361 . S
C54 C53 1.397 . S
C54 C58 1.385 1_565 S
C55 C53 1.361 . S
C55 C56 1.393 . S
C55 N59 1.413 . S
C56 H49 0.930 . S
C56 C55 1.393 . S
C56 C57 1.399 . S
C57 C56 1.399 . S
C57 C58 1.378 1_565 S
C58 H50 0.938 . S
C58 C54 1.385 1_545 S
C58 C57 1.378 1_545 S
N59 C52 1.286 . S
N59 C55 1.413 . S
H60 C65 0.930 . S
H61 C68 0.930 . S
H62 C70 0.930 . S
H63 C64 1.016 . S
C64 H63 1.016 . S
C64 N71 1.286 . S
C65 H60 0.930 . S
C65 C66 1.397 . S
C65 C67 1.361 . S
C66 C65 1.397 . S
C66 C70 1.390 . S
C67 C65 1.361 . S
C67 C68 1.393 . S
C67 N71 1.413 . S
C68 H61 0.930 . S
C68 C67 1.393 . S
C68 C69 1.399 . S
C69 C68 1.399 . S
C69 C70 1.381 . S
C70 H62 0.930 . S
C70 C66 1.390 . S
C70 C69 1.381 . S
N71 C64 1.286 . S
N71 C67 1.413 . S
H72 C77 0.930 . S
H73 C80 0.930 . S
H74 C82 0.930 . S
H75 C76 1.016 1_655 S
C76 H75 1.016 1_455 S
C76 N83 1.286 1_455 S
C77 H72 0.930 . S
C77 C78 1.397 . S
C77 C79 1.361 . S
C78 C77 1.397 . S
C78 C82 1.390 . S
C79 C77 1.361 . S
C79 C80 1.393 . S
C79 N83 1.413 . S
C80 H73 0.930 . S
C80 C79 1.393 . S
C80 C81 1.399 . S
C81 C80 1.399 . S
C81 C82 1.381 . S
C82 H74 0.930 . S
C82 C78 1.390 . S
C82 C81 1.381 . S
N83 C76 1.286 1_655 S
N83 C79 1.413 . S
H84 C89 0.930 . S
H85 C92 0.930 . S
H86 C94 0.930 . S
H87 C88 1.016 . S
C88 H87 1.016 . S
C88 N95 1.286 . S
C89 H84 0.930 . S
C89 C90 1.397 . S
C89 C91 1.361 . S
C90 C89 1.397 . S
C90 C94 1.390 . S
C91 C89 1.361 . S
C91 C92 1.393 . S
C91 N95 1.413 . S
C92 H85 0.930 . S
C92 C91 1.393 . S
C92 C93 1.399 . S
C93 C92 1.399 . S
C93 C94 1.381 . S
C94 H86 0.930 . S
C94 C90 1.390 . S
C94 C93 1.381 . S
N95 C88 1.286 . S
N95 C91 1.413 . S
H96 C101 0.930 . S
H97 C104 0.930 . S
H98 C106 0.930 . S
H99 C100 1.016 . S
C100 H99 1.016 . S
C100 N107 1.286 . S
C101 H96 0.930 . S
C101 C102 1.397 . S
C101 C103 1.361 . S
C102 C101 1.397 . S
C102 C106 1.390 . S
C103 C101 1.361 . S
C103 C104 1.393 . S
C103 N107 1.413 . S
C104 H97 0.930 . S
C104 C103 1.393 . S
C104 C105 1.399 . S
C105 C104 1.399 . S
C105 C106 1.381 . S
C106 H98 0.930 . S
C106 C102 1.390 . S
C106 C105 1.381 . S
N107 C100 1.286 . S
N107 C103 1.413 . S
H108 C113 0.930 . S
H109 C116 0.930 . S
H110 C118 0.930 1_545 S
H111 C112 1.016 . S
C112 H111 1.016 . S
C112 N119 1.286 . S
C113 H108 0.930 . S
C113 C114 1.397 . S
C113 C115 1.361 . S
C114 C113 1.397 . S
C114 C118 1.390 . S
C115 C113 1.361 . S
C115 C116 1.393 . S
C115 N119 1.413 . S
C116 H109 0.930 . S
C116 C115 1.393 . S
C116 C117 1.399 . S
C117 C116 1.399 . S
C117 C118 1.381 . S
C118 H110 0.930 1_565 S
C118 C114 1.390 . S
C118 C117 1.381 . S
N119 C112 1.286 . S
N119 C115 1.413 . S
H120 C125 0.930 . S
H121 C128 0.930 . S
H122 C130 0.930 . S
H123 C124 1.016 . S
C124 H123 1.016 . S
C124 N131 1.286 . S
C125 H120 0.930 . S
C125 C126 1.397 . S
C125 C127 1.361 . S
C126 C125 1.397 . S
C126 C130 1.390 . S
C127 C125 1.361 . S
C127 C128 1.393 . S
C127 N131 1.413 . S
C128 H121 0.930 . S
C128 C127 1.393 . S
C128 C129 1.399 . S
C129 C128 1.399 . S
C129 C130 1.381 . S
C130 H122 0.930 . S
C130 C126 1.390 . S
C130 C129 1.381 . S
N131 C124 1.286 . S
N131 C127 1.413 . S
H132 C137 0.930 . S
H133 C140 0.930 . S
H134 C142 0.930 . S
H135 C136 1.016 . S
C136 H135 1.016 . S
C136 N143 1.286 . S
C137 H132 0.930 . S
C137 C138 1.397 . S
C137 C139 1.361 . S
C138 C137 1.397 . S
C138 C142 1.390 . S
C139 C137 1.361 . S
C139 C140 1.393 . S
C139 N143 1.413 . S
C140 H133 0.930 . S
C140 C139 1.393 . S
C140 C141 1.399 . S
C141 C140 1.399 . S
C141 C142 1.381 . S
C142 H134 0.930 . S
C142 C138 1.390 . S
C142 C141 1.381 . S
N143 C136 1.286 . S
N143 C139 1.413 . S
H144 C149 0.930 . S
H145 C152 0.930 . S
H146 C154 0.930 . S
H147 C148 1.016 . S
C148 H147 1.016 . S
C148 N155 1.286 . S
C149 H144 0.930 . S
C149 C150 1.397 . S
C149 C151 1.361 . S
C150 C149 1.397 . S
C150 C154 1.390 . S
C151 C149 1.361 . S
C151 C152 1.393 . S
C151 N155 1.413 . S
C152 H145 0.930 . S
C152 C151 1.393 . S
C152 C153 1.399 . S
C153 C152 1.399 . S
C153 C154 1.381 . S
C154 H146 0.930 . S
C154 C150 1.390 . S
C154 C153 1.381 . S
N155 C148 1.286 . S
N155 C151 1.413 . S
H156 C161 0.930 . S
H157 C164 0.930 . S
H158 C166 0.930 . S
H159 C160 1.016 . S
C160 H159 1.016 . S
C160 N167 1.286 . S
C161 H156 0.930 . S
C161 C162 1.397 . S
C161 C163 1.361 . S
C162 C161 1.397 . S
C162 C166 1.390 . S
C163 C161 1.361 . S
C163 C164 1.393 . S
C163 N167 1.413 . S
C164 H157 0.930 . S
C164 C163 1.393 . S
C164 C165 1.399 . S
C165 C164 1.399 . S
C165 C166 1.381 . S
C166 H158 0.930 . S
C166 C162 1.390 . S
C166 C165 1.381 . S
N167 C160 1.286 . S
N167 C163 1.413 . S
H168 C173 0.930 . S
H169 C176 0.930 . S
H170 C178 0.930 . S
H171 C172 1.016 . S
C172 H171 1.016 . S
C172 N179 1.286 . S
C173 H168 0.930 . S
C173 C174 1.397 . S
C173 C175 1.361 . S
C174 C173 1.397 . S
C174 C178 1.390 . S
C175 C173 1.361 . S
C175 C176 1.393 . S
C175 N179 1.413 . S
C176 H169 0.930 . S
C176 C175 1.393 . S
C176 C177 1.399 . S
C177 C176 1.399 . S
C177 C178 1.381 . S
C178 H170 0.930 . S
C178 C174 1.390 . S
C178 C177 1.381 . S
N179 C172 1.286 . S
N179 C175 1.413 . S
H180 C185 0.930 . S
H181 C188 0.930 . S
H182 C190 0.930 . S
H183 C184 1.016 . S
C184 H183 1.016 . S
C184 N191 1.286 . S
C185 H180 0.930 . S
C185 C186 1.397 . S
C185 C187 1.361 . S
C186 C185 1.397 . S
C186 C190 1.390 . S
C187 C185 1.361 . S
C187 C188 1.393 . S
C187 N191 1.413 . S
C188 H181 0.930 . S
C188 C187 1.393 . S
C188 C189 1.399 . S
C189 C188 1.399 . S
C189 C190 1.381 . S
C190 H182 0.930 . S
C190 C186 1.390 . S
C190 C189 1.381 . S
N191 C184 1.286 . S
N191 C187 1.413 . S
Mg192 O193 2.028 . S
Mg192 O199 1.986 1_554 S
Mg192 O201 2.114 . S
Mg192 O202 2.251 . S
Mg192 O205 2.010 . S
O193 Mg192 2.028 . S
O193 C196 1.250 . S
O194 Mg195 2.028 . S
O194 C196 1.248 . S
Mg195 O194 2.028 . S
Mg195 O200 2.032 1_554 S
Mg195 O202 2.079 . S
C196 O193 1.250 . S
C196 O194 1.248 . S
C197 O198 1.264 . S
C197 O205 1.249 . S
O198 C197 1.264 . S
O199 Mg192 1.986 1_556 S
O199 C203 1.246 . S
O200 Mg195 2.032 1_556 S
O200 C203 1.259 . S
O201 Mg192 2.114 . S
O201 C204 1.252 . S
O202 Mg192 2.251 . S
O202 Mg195 2.079 . S
O202 C204 1.273 . S
C203 O199 1.246 . S
C203 O200 1.259 . S
C204 O201 1.252 . S
C204 O202 1.273 . S
O205 Mg192 2.010 . S
O205 C197 1.249 . S
Mg206 O207 2.028 . S
Mg206 O213 1.986 . S
Mg206 O215 2.114 . S
Mg206 O216 2.251 . S
Mg206 O219 2.010 . S
O207 Mg206 2.028 . S
O207 C210 1.250 . S
O208 Mg209 2.028 . S
O208 C210 1.248 . S
Mg209 O208 2.028 . S
Mg209 O214 2.032 . S
Mg209 O216 2.079 . S
C210 O207 1.250 . S
C210 O208 1.248 . S
C211 O212 1.264 . S
C211 O219 1.249 . S
O212 C211 1.264 . S
O213 Mg206 1.986 . S
O213 C217 1.246 . S
O214 Mg209 2.032 . S
O214 C217 1.259 . S
O215 Mg206 2.114 . S
O215 C218 1.252 . S
O216 Mg206 2.251 . S
O216 Mg209 2.079 . S
O216 C218 1.273 . S
C217 O213 1.246 . S
C217 O214 1.259 . S
C218 O215 1.252 . S
C218 O216 1.273 . S
O219 Mg206 2.010 . S
O219 C211 1.249 . S
Mg220 O221 2.028 . S
Mg220 O227 1.986 1_554 S
Mg220 O229 2.114 . S
Mg220 O230 2.251 . S
Mg220 O233 2.010 . S
O221 Mg220 2.028 . S
O221 C224 1.250 . S
O222 Mg223 2.035 . S
O222 C224 1.243 1_556 S
Mg223 O222 2.035 . S
Mg223 O228 2.032 . S
Mg223 O230 2.079 1_556 S
C224 O221 1.250 . S
C224 O222 1.243 1_554 S
C225 O226 1.264 . S
C225 O233 1.249 . S
O226 C225 1.264 . S
O227 Mg220 1.986 1_556 S
O227 C231 1.246 . S
O228 Mg223 2.032 . S
O228 C231 1.259 . S
O229 Mg220 2.114 . S
O229 C232 1.252 . S
O230 Mg220 2.251 . S
O230 Mg223 2.079 1_554 S
O230 C232 1.273 . S
C231 O227 1.246 . S
C231 O228 1.259 . S
C232 O229 1.252 . S
C232 O230 1.273 . S
O233 Mg220 2.010 . S
O233 C225 1.249 . S
Mg234 O235 2.028 . S
Mg234 O241 1.986 . S
Mg234 O243 2.114 . S
Mg234 O244 2.251 . S
Mg234 O247 2.010 . S
O235 Mg234 2.028 . S
O235 C238 1.250 . S
O236 Mg237 2.026 1_565 S
O236 C238 1.248 1_565 S
Mg237 O236 2.026 1_545 S
Mg237 O242 2.049 . S
Mg237 O244 2.127 . S
C238 O235 1.250 . S
C238 O236 1.248 1_545 S
C239 O240 1.264 . S
C239 O247 1.249 . S
O240 C239 1.264 . S
O241 Mg234 1.986 . S
O241 C245 1.246 . S
O242 Mg237 2.049 . S
O242 C245 1.259 . S
O243 Mg234 2.114 . S
O243 C246 1.252 . S
O244 Mg234 2.251 . S
O244 Mg237 2.127 . S
O244 C246 1.273 . S
C245 O241 1.246 . S
C245 O242 1.259 . S
C246 O243 1.252 . S
C246 O244 1.273 . S
O247 Mg234 2.010 . S
O247 C239 1.249 . S
Mg248 O249 2.028 . S
Mg248 O255 1.986 . S
Mg248 O257 2.114 . S
Mg248 O258 2.251 . S
Mg248 O261 2.010 . S
O249 Mg248 2.028 . S
O249 C252 1.250 . S
O250 Mg251 2.028 . S
O250 C252 1.248 . S
Mg251 O250 2.028 . S
Mg251 O256 2.032 . S
Mg251 O258 2.079 . S
C252 O249 1.250 . S
C252 O250 1.248 . S
C253 O254 1.264 . S
C253 O261 1.249 . S
O254 C253 1.264 . S
O255 Mg248 1.986 . S
O255 C259 1.246 . S
O256 Mg251 2.032 . S
O256 C259 1.259 . S
O257 Mg248 2.114 . S
O257 C260 1.252 . S
O258 Mg248 2.251 . S
O258 Mg251 2.079 . S
O258 C260 1.273 . S
C259 O255 1.246 . S
C259 O256 1.259 . S
C260 O257 1.252 . S
C260 O258 1.273 . S
O261 Mg248 2.010 . S
O261 C253 1.249 . S
Mg262 O263 2.028 . S
Mg262 O269 1.986 . S
Mg262 O271 2.114 . S
Mg262 O272 2.251 . S
Mg262 O275 2.010 . S
O263 Mg262 2.028 . S
O263 C266 1.250 . S
O264 Mg265 2.028 . S
O264 C266 1.248 . S
Mg265 O264 2.028 . S
Mg265 O270 2.032 . S
Mg265 O272 2.079 . S
C266 O263 1.250 . S
C266 O264 1.248 . S
C267 O268 1.264 . S
C267 O275 1.249 . S
O268 C267 1.264 . S
O269 Mg262 1.986 . S
O269 C273 1.246 . S
O270 Mg265 2.032 . S
O270 C273 1.259 . S
O271 Mg262 2.114 . S
O271 C274 1.252 . S
O272 Mg262 2.251 . S
O272 Mg265 2.079 . S
O272 C274 1.273 . S
C273 O269 1.246 . S
C273 O270 1.259 . S
C274 O271 1.252 . S
C274 O272 1.273 . S
O275 Mg262 2.010 . S
O275 C267 1.249 . S
Mg276 O277 2.028 . S
Mg276 O283 1.986 . S
Mg276 O285 2.114 . S
Mg276 O286 2.251 . S
Mg276 O289 2.010 . S
O277 Mg276 2.028 . S
O277 C280 1.250 . S
O278 Mg279 2.028 . S
O278 C280 1.248 . S
Mg279 O278 2.028 . S
Mg279 O284 2.032 . S
Mg279 O286 2.079 . S
C280 O277 1.250 . S
C280 O278 1.248 . S
C281 O282 1.264 . S
C281 O289 1.249 . S
O282 C281 1.264 . S
O283 Mg276 1.986 . S
O283 C287 1.246 . S
O284 Mg279 2.032 . S
O284 C287 1.259 . S
O285 Mg276 2.114 . S
O285 C288 1.252 . S
O286 Mg276 2.251 . S
O286 Mg279 2.079 . S
O286 C288 1.273 . S
C287 O283 1.246 . S
C287 O284 1.259 . S
C288 O285 1.252 . S
C288 O286 1.273 . S
O289 Mg276 2.010 . S
O289 C281 1.249 . S
Mg290 O291 2.028 1_545 S
Mg290 O297 1.986 1_545 S
Mg290 O299 2.114 . S
Mg290 O300 2.251 . S
Mg290 O303 2.010 . S
O291 Mg290 2.028 1_565 S
O291 C294 1.250 . S
O292 Mg293 2.028 . S
O292 C294 1.248 . S
Mg293 O292 2.028 . S
Mg293 O298 2.032 . S
Mg293 O300 2.079 1_565 S
C294 O291 1.250 . S
C294 O292 1.248 . S
C295 O296 1.264 . S
C295 O303 1.249 . S
O296 C295 1.264 . S
O297 Mg290 1.986 1_565 S
O297 C301 1.246 . S
O298 Mg293 2.032 . S
O298 C301 1.259 . S
O299 Mg290 2.114 . S
O299 C302 1.252 . S
O300 Mg290 2.251 . S
O300 Mg293 2.079 1_545 S
O300 C302 1.273 . S
C301 O297 1.246 . S
C301 O298 1.259 . S
C302 O299 1.252 . S
C302 O300 1.273 . S
O303 Mg290 2.010 . S
O303 C295 1.249 . S
Mg304 O305 2.028 . S
Mg304 O311 1.986 . S
Mg304 O313 2.114 . S
Mg304 O314 2.251 . S
Mg304 O317 2.010 . S
O305 Mg304 2.028 . S
O305 C308 1.250 1_455 S
O306 Mg307 2.028 . S
O306 C308 1.248 . S
Mg307 O306 2.028 . S
Mg307 O312 2.032 . S
Mg307 O314 2.079 1_655 S
C308 O305 1.250 1_655 S
C308 O306 1.248 . S
C309 O310 1.264 . S
C309 O317 1.249 . S
O310 C309 1.264 . S
O311 Mg304 1.986 . S
O311 C315 1.246 . S
O312 Mg307 2.032 . S
O312 C315 1.259 1_655 S
O313 Mg304 2.114 . S
O313 C316 1.252 . S
O314 Mg304 2.251 . S
O314 Mg307 2.079 1_455 S
O314 C316 1.273 . S
C315 O311 1.246 . S
C315 O312 1.259 1_455 S
C316 O313 1.252 . S
C316 O314 1.273 . S
O317 Mg304 2.010 . S
O317 C309 1.249 . S
Mg318 O319 2.028 . S
Mg318 O325 1.986 . S
Mg318 O327 2.114 . S
Mg318 O328 2.251 . S
Mg318 O331 2.010 . S
O319 Mg318 2.028 . S
O319 C322 1.250 . S
O320 Mg321 2.028 . S
O320 C322 1.248 . S
Mg321 O320 2.028 . S
Mg321 O326 2.032 . S
Mg321 O328 2.079 . S
C322 O319 1.250 . S
C322 O320 1.248 . S
C323 O324 1.264 . S
C323 O331 1.249 . S
O324 C323 1.264 . S
O325 Mg318 1.986 . S
O325 C329 1.246 . S
O326 Mg321 2.032 . S
O326 C329 1.259 . S
O327 Mg318 2.114 . S
O327 C330 1.252 . S
O328 Mg318 2.251 . S
O328 Mg321 2.079 . S
O328 C330 1.273 . S
C329 O325 1.246 . S
C329 O326 1.259 . S
C330 O327 1.252 . S
C330 O328 1.273 . S
O331 Mg318 2.010 . S
O331 C323 1.249 . S
Mg332 O333 2.028 1_655 S
Mg332 O339 1.991 . S
Mg332 O341 2.114 . S
Mg332 O342 2.251 1_655 S
Mg332 O345 2.010 . S
O333 Mg332 2.028 1_455 S
O333 C336 1.250 . S
O334 Mg335 2.028 . S
O334 C336 1.248 . S
Mg335 O334 2.028 . S
Mg335 O340 2.032 . S
Mg335 O342 2.079 . S
C336 O333 1.250 . S
C336 O334 1.248 . S
C337 O338 1.264 . S
C337 O345 1.249 . S
O338 C337 1.264 . S
O339 Mg332 1.991 . S
O339 C343 1.232 1_655 S
O340 Mg335 2.032 . S
O340 C343 1.259 . S
O341 Mg332 2.114 . S
O341 C344 1.252 . S
O342 Mg332 2.251 1_455 S
O342 Mg335 2.079 . S
O342 C344 1.273 1_455 S
C343 O339 1.232 1_455 S
C343 O340 1.259 . S
C344 O341 1.252 . S
C344 O342 1.273 1_655 S
O345 Mg332 2.010 . S
O345 C337 1.249 . S
Mg346 O347 2.028 . S
Mg346 O353 1.986 . S
Mg346 O355 2.114 . S
Mg346 O356 2.251 . S
Mg346 O359 2.010 . S
O347 Mg346 2.028 . S
O347 C350 1.250 . S
O348 Mg349 2.028 . S
O348 C350 1.248 . S
Mg349 O348 2.028 . S
Mg349 O354 2.032 . S
Mg349 O356 2.079 . S
C350 O347 1.250 . S
C350 O348 1.248 . S
C351 O352 1.264 . S
C351 O359 1.249 . S
O352 C351 1.264 . S
O353 Mg346 1.986 . S
O353 C357 1.246 . S
O354 Mg349 2.032 . S
O354 C357 1.259 . S
O355 Mg346 2.114 . S
O355 C358 1.252 . S
O356 Mg346 2.251 . S
O356 Mg349 2.079 . S
O356 C358 1.273 . S
C357 O353 1.246 . S
C357 O354 1.259 . S
C358 O355 1.252 . S
C358 O356 1.273 . S
O359 Mg346 2.010 . S
O359 C351 1.249 . S
H360 C378 0.951 . S
H361 C380 0.951 . S
H362 C382 0.950 . S
H363 C383 0.950 . S
H364 C385 0.950 . S
H365 C388 0.950 . S
H366 C389 0.950 . S
H367 C391 0.950 . S
H368 C392 0.950 . S
H369 C393 0.951 . S
H370 C395 0.951 . S
H371 C397 0.950 . S
H372 C398 0.950 . S
H373 C400 0.950 . S
H374 C403 0.950 . S
H375 C404 0.950 . S
H376 C406 0.950 . S
H377 C407 0.950 . S
C378 H360 0.951 . S
C378 C379 1.366 . S
C378 C380 1.388 . S
C379 C378 1.366 . S
C379 C383 1.385 . S
C380 H361 0.951 . S
C380 C378 1.388 . S
C380 C381 1.366 . S
C381 C380 1.366 . S
C381 C382 1.414 . S
C381 C384 1.499 . S
C382 H362 0.950 . S
C382 C381 1.414 . S
C382 C383 1.374 . S
C383 H363 0.950 . S
C383 C379 1.385 . S
C383 C382 1.374 . S
C384 C381 1.499 . S
C384 C385 1.373 . S
C384 C386 1.389 . S
C385 H364 0.950 . S
C385 C384 1.373 . S
C385 C401 1.377 . S
C386 C384 1.389 . S
C386 C387 1.524 . S
C386 C400 1.377 . S
C387 C386 1.524 . S
C387 C388 1.397 . S
C387 C392 1.363 . S
C388 H365 0.950 . S
C388 C387 1.397 . S
C388 C389 1.334 . S
C389 H366 0.950 . S
C389 C388 1.334 . S
C389 C390 1.287 . S
C390 C389 1.287 . S
C390 C391 1.524 . S
C390 H409 0.913 . S
C391 H367 0.950 . S
C391 C390 1.524 . S
C391 C392 1.415 . S
C392 H368 0.950 . S
C392 C387 1.363 . S
C392 C391 1.415 . S
C393 H369 0.951 . S
C393 C394 1.366 . S
C393 C395 1.388 . S
C394 C393 1.366 . S
C394 C398 1.385 . S
C395 H370 0.951 . S
C395 C393 1.388 . S
C395 C396 1.366 . S
C396 C395 1.366 . S
C396 C397 1.414 . S
C396 C399 1.499 . S
C397 H371 0.950 . S
C397 C396 1.414 . S
C397 C398 1.374 . S
C398 H372 0.950 . S
C398 C394 1.385 . S
C398 C397 1.374 . S
C399 C396 1.499 . S
C399 C400 1.373 . S
C399 C401 1.389 . S
C400 H373 0.950 . S
C400 C386 1.377 . S
C400 C399 1.373 . S
C401 C385 1.377 . S
C401 C399 1.389 . S
C401 C402 1.524 . S
C402 C401 1.524 . S
C402 C403 1.397 . S
C402 C407 1.363 . S
C403 H374 0.950 . S
C403 C402 1.397 . S
C403 C404 1.334 . S
C404 H375 0.950 . S
C404 C403 1.334 . S
C404 C405 1.287 . S
C405 C404 1.287 . S
C405 C406 1.524 . S
C405 H408 0.999 . S
C406 H376 0.950 . S
C406 C405 1.524 . S
C406 C407 1.415 . S
C407 H377 0.950 . S
C407 C402 1.363 . S
C407 C406 1.415 . S
H408 C405 0.999 . S
H409 C390 0.913 . S
H410 C428 0.951 . S
H411 C430 0.951 . S
H412 C432 0.950 . S
H413 C433 0.950 1_655 S
H414 C435 0.950 . S
H415 C438 0.950 . S
H416 C439 0.950 . S
H417 C441 0.950 . S
H418 C442 0.950 . S
H419 C443 0.951 . S
H420 C445 0.951 . S
H421 C447 0.950 . S
H422 C448 0.950 . S
H423 C450 0.950 . S
H424 C453 0.950 . S
H425 C454 0.950 . S
H426 C456 0.950 . S
H427 C457 0.950 . S
C428 H410 0.951 . S
C428 C429 1.366 . S
C428 C430 1.388 . S
C429 C428 1.366 . S
C429 C433 1.385 . S
C430 H411 0.951 . S
C430 C428 1.388 . S
C430 C431 1.366 . S
C431 C430 1.366 . S
C431 C432 1.414 . S
C431 C434 1.499 . S
C432 H412 0.950 . S
C432 C431 1.414 . S
C432 C433 1.374 . S
C433 H413 0.950 1_455 S
C433 C429 1.385 . S
C433 C432 1.374 . S
C434 C431 1.499 . S
C434 C435 1.373 . S
C434 C436 1.389 . S
C435 H414 0.950 . S
C435 C434 1.373 . S
C435 C451 1.377 . S
C436 C434 1.389 . S
C436 C437 1.524 . S
C436 C450 1.377 . S
C437 C436 1.524 . S
C437 C438 1.397 . S
C437 C442 1.363 . S
C438 H415 0.950 . S
C438 C437 1.397 . S
C438 C439 1.334 . S
C439 H416 0.950 . S
C439 C438 1.334 . S
C439 C440 1.287 . S
C440 C439 1.287 . S
C440 C441 1.524 . S
C440 H459 0.913 . S
C441 H417 0.950 . S
C441 C440 1.524 . S
C441 C442 1.415 . S
C442 H418 0.950 . S
C442 C437 1.363 . S
C442 C441 1.415 . S
C443 H419 0.951 . S
C443 C444 1.366 . S
C443 C445 1.388 . S
C444 C443 1.366 . S
C444 C448 1.385 . S
C445 H420 0.951 . S
C445 C443 1.388 . S
C445 C446 1.366 . S
C446 C445 1.366 . S
C446 C447 1.414 . S
C446 C449 1.499 . S
C447 H421 0.950 . S
C447 C446 1.414 . S
C447 C448 1.374 . S
C448 H422 0.950 . S
C448 C444 1.385 . S
C448 C447 1.374 . S
C449 C446 1.499 . S
C449 C450 1.373 . S
C449 C451 1.389 . S
C450 H423 0.950 . S
C450 C436 1.377 . S
C450 C449 1.373 . S
C451 C435 1.377 . S
C451 C449 1.389 . S
C451 C452 1.524 . S
C452 C451 1.524 . S
C452 C453 1.397 . S
C452 C457 1.363 . S
C453 H424 0.950 . S
C453 C452 1.397 . S
C453 C454 1.334 . S
C454 H425 0.950 . S
C454 C453 1.334 . S
C454 C455 1.287 . S
C455 C454 1.287 . S
C455 C456 1.524 . S
C455 H458 0.999 . S
C456 H426 0.950 . S
C456 C455 1.524 . S
C456 C457 1.415 . S
C457 H427 0.950 . S
C457 C452 1.363 . S
C457 C456 1.415 . S
H458 C455 0.999 . S
H459 C440 0.913 . S
H460 C478 0.951 . S
H461 C480 0.951 . S
H462 C482 0.950 . S
H463 C483 0.950 . S
H464 C485 0.950 . S
H465 C488 0.950 . S
H466 C489 0.950 . S
H467 C491 0.950 . S
H468 C492 0.950 . S
H469 C493 0.951 . S
H470 C495 0.951 . S
H471 C497 0.950 . S
H472 C498 0.950 . S
H473 C500 0.950 . S
H474 C503 0.950 . S
H475 C504 0.950 . S
H476 C506 0.950 . S
H477 C507 0.950 . S
C478 H460 0.951 . S
C478 C479 1.366 . S
C478 C480 1.388 . S
C479 C478 1.366 . S
C479 C483 1.385 . S
C480 H461 0.951 . S
C480 C478 1.388 . S
C480 C481 1.366 . S
C481 C480 1.366 . S
C481 C482 1.414 . S
C481 C484 1.499 . S
C482 H462 0.950 . S
C482 C481 1.414 . S
C482 C483 1.374 . S
C483 H463 0.950 . S
C483 C479 1.385 . S
C483 C482 1.374 . S
C484 C481 1.499 . S
C484 C485 1.373 . S
C484 C486 1.389 . S
C485 H464 0.950 . S
C485 C484 1.373 . S
C485 C501 1.377 . S
C486 C484 1.389 . S
C486 C487 1.524 . S
C486 C500 1.377 . S
C487 C486 1.524 . S
C487 C488 1.397 . S
C487 C492 1.363 . S
C488 H465 0.950 . S
C488 C487 1.397 . S
C488 C489 1.334 . S
C489 H466 0.950 . S
C489 C488 1.334 . S
C489 C490 1.287 . S
C490 C489 1.287 . S
C490 C491 1.524 . S
C490 H509 0.913 . S
C491 H467 0.950 . S
C491 C490 1.524 . S
C491 C492 1.415 . S
C492 H468 0.950 . S
C492 C487 1.363 . S
C492 C491 1.415 . S
C493 H469 0.951 . S
C493 C494 1.366 . S
C493 C495 1.388 . S
C494 C493 1.366 . S
C494 C498 1.385 . S
C495 H470 0.951 . S
C495 C493 1.388 . S
C495 C496 1.366 . S
C496 C495 1.366 . S
C496 C497 1.414 . S
C496 C499 1.499 . S
C497 H471 0.950 . S
C497 C496 1.414 . S
C497 C498 1.374 . S
C498 H472 0.950 . S
C498 C494 1.385 . S
C498 C497 1.374 . S
C499 C496 1.499 . S
C499 C500 1.373 . S
C499 C501 1.389 . S
C500 H473 0.950 . S
C500 C486 1.377 . S
C500 C499 1.373 . S
C501 C485 1.377 . S
C501 C499 1.389 . S
C501 C502 1.524 . S
C502 C501 1.524 . S
C502 C503 1.397 . S
C502 C507 1.363 . S
C503 H474 0.950 . S
C503 C502 1.397 . S
C503 C504 1.334 . S
C504 H475 0.950 . S
C504 C503 1.334 . S
C504 C505 1.287 . S
C505 C504 1.287 . S
C505 C506 1.524 . S
C505 H508 0.999 . S
C506 H476 0.950 . S
C506 C505 1.524 . S
C506 C507 1.415 . S
C507 H477 0.950 . S
C507 C502 1.363 . S
C507 C506 1.415 . S
H508 C505 0.999 . S
H509 C490 0.913 . S
H510 C528 0.954 1_545 S
H511 C530 0.951 . S
H512 C532 0.950 . S
H513 C533 0.950 . S
H514 C535 0.950 1_655 S
H515 C538 0.950 . S
H516 C539 0.950 . S
H517 C541 0.950 . S
H518 C542 0.950 . S
H519 C543 0.951 . S
H520 C545 0.951 . S
H521 C547 0.950 1_455 S
H522 C548 0.950 . S
H523 C550 0.950 . S
H524 C553 0.950 . S
H525 C554 0.950 . S
H526 C556 0.950 . S
H527 C557 0.950 . S
C528 H510 0.954 1_565 S
C528 C529 1.379 . S
C528 C530 1.373 1_565 S
C529 C528 1.379 . S
C529 C533 1.385 . S
C530 H511 0.951 . S
C530 C528 1.373 1_545 S
C530 C531 1.366 . S
C531 C530 1.366 . S
C531 C532 1.414 1_545 S
C531 C534 1.499 . S
C532 H512 0.950 . S
C532 C531 1.414 1_565 S
C532 C533 1.374 . S
C533 H513 0.950 . S
C533 C529 1.385 . S
C533 C532 1.374 . S
C534 C531 1.499 . S
C534 C535 1.373 1_545 S
C534 C536 1.389 . S
C535 H514 0.950 1_455 S
C535 C534 1.373 1_565 S
C535 C551 1.377 1_455 S
C536 C534 1.389 . S
C536 C537 1.524 . S
C536 C550 1.377 . S
C537 C536 1.524 . S
C537 C538 1.397 . S
C537 C542 1.363 . S
C538 H515 0.950 . S
C538 C537 1.397 . S
C538 C539 1.334 . S
C539 H516 0.950 . S
C539 C538 1.334 . S
C539 C540 1.287 . S
C540 C539 1.287 . S
C540 C541 1.524 . S
C540 H559 0.913 . S
C541 H517 0.950 . S
C541 C540 1.524 . S
C541 C542 1.415 . S
C542 H518 0.950 . S
C542 C537 1.363 . S
C542 C541 1.415 . S
C543 H519 0.951 . S
C543 C544 1.366 . S
C543 C545 1.388 . S
C544 C543 1.366 . S
C544 C548 1.385 . S
C545 H520 0.951 . S
C545 C543 1.388 . S
C545 C546 1.366 . S
C546 C545 1.366 . S
C546 C547 1.414 . S
C546 C549 1.499 . S
C547 H521 0.950 1_655 S
C547 C546 1.414 . S
C547 C548 1.374 . S
C548 H522 0.950 . S
C548 C544 1.385 . S
C548 C547 1.374 . S
C549 C546 1.499 . S
C549 C550 1.373 1_655 S
C549 C551 1.389 1_545 S
C550 H523 0.950 . S
C550 C536 1.377 . S
C550 C549 1.373 1_455 S
C551 C535 1.377 1_655 S
C551 C549 1.389 1_565 S
C551 C552 1.524 . S
C552 C551 1.524 . S
C552 C553 1.397 . S
C552 C557 1.363 . S
C553 H524 0.950 . S
C553 C552 1.397 . S
C553 C554 1.334 . S
C554 H525 0.950 . S
C554 C553 1.334 . S
C554 C555 1.287 . S
C555 C554 1.287 . S
C555 C556 1.524 . S
C555 H558 0.999 . S
C556 H526 0.950 . S
C556 C555 1.524 . S
C556 C557 1.415 . S
C557 H527 0.950 . S
C557 C552 1.363 . S
C557 C556 1.415 . S
H558 C555 0.999 . S
H559 C540 0.913 . S
H560 C578 0.951 . S
H561 C580 0.951 . S
H562 C582 0.950 . S
H563 C583 0.950 . S
H564 C585 0.950 . S
H565 C588 0.950 . S
H566 C589 0.950 . S
H567 C591 0.950 . S
H568 C592 0.950 . S
H569 C593 0.951 . S
H570 C595 0.951 . S
H571 C597 0.950 . S
H572 C598 0.950 . S
H573 C600 0.950 . S
H574 C603 0.950 . S
H575 C604 0.950 . S
H576 C606 0.950 . S
H577 C607 0.950 . S
C578 H560 0.951 . S
C578 C579 1.366 . S
C578 C580 1.388 . S
C579 C578 1.366 . S
C579 C583 1.385 . S
C580 H561 0.951 . S
C580 C578 1.388 . S
C580 C581 1.366 . S
C581 C580 1.366 . S
C581 C582 1.414 . S
C581 C584 1.499 . S
C582 H562 0.950 . S
C582 C581 1.414 . S
C582 C583 1.374 . S
C583 H563 0.950 . S
C583 C579 1.385 . S
C583 C582 1.374 . S
C584 C581 1.499 . S
C584 C585 1.373 . S
C584 C586 1.389 . S
C585 H564 0.950 . S
C585 C584 1.373 . S
C585 C601 1.377 . S
C586 C584 1.389 . S
C586 C587 1.524 . S
C586 C600 1.377 . S
C587 C586 1.524 . S
C587 C588 1.397 . S
C587 C592 1.363 . S
C588 H565 0.950 . S
C588 C587 1.397 . S
C588 C589 1.334 . S
C589 H566 0.950 . S
C589 C588 1.334 . S
C589 C590 1.287 . S
C590 C589 1.287 . S
C590 C591 1.524 . S
C590 H609 0.913 . S
C591 H567 0.950 . S
C591 C590 1.524 . S
C591 C592 1.415 . S
C592 H568 0.950 . S
C592 C587 1.363 . S
C592 C591 1.415 . S
C593 H569 0.951 . S
C593 C594 1.366 . S
C593 C595 1.388 . S
C594 C593 1.366 . S
C594 C598 1.385 . S
C595 H570 0.951 . S
C595 C593 1.388 . S
C595 C596 1.366 . S
C596 C595 1.366 . S
C596 C597 1.414 . S
C596 C599 1.499 . S
C597 H571 0.950 . S
C597 C596 1.414 . S
C597 C598 1.374 . S
C598 H572 0.950 . S
C598 C594 1.385 . S
C598 C597 1.374 . S
C599 C596 1.499 . S
C599 C600 1.373 . S
C599 C601 1.389 . S
C600 H573 0.950 . S
C600 C586 1.377 . S
C600 C599 1.373 . S
C601 C585 1.377 . S
C601 C599 1.389 . S
C601 C602 1.524 . S
C602 C601 1.524 . S
C602 C603 1.397 . S
C602 C607 1.363 . S
C603 H574 0.950 . S
C603 C602 1.397 . S
C603 C604 1.334 . S
C604 H575 0.950 . S
C604 C603 1.334 . S
C604 C605 1.287 . S
C605 C604 1.287 . S
C605 C606 1.524 . S
C605 H608 0.999 . S
C606 H576 0.950 . S
C606 C605 1.524 . S
C606 C607 1.415 . S
C607 H577 0.950 . S
C607 C602 1.363 . S
C607 C606 1.415 . S
H608 C605 0.999 . S
H609 C590 0.913 . S
H610 C628 0.951 . S
H611 C630 0.951 . S
H612 C632 0.950 . S
H613 C633 0.950 . S
H614 C635 0.950 . S
H615 C638 0.950 . S
H616 C639 0.950 . S
H617 C641 0.950 . S
H618 C642 0.950 . S
H619 C643 0.951 . S
H620 C645 0.951 . S
H621 C647 0.950 . S
H622 C648 0.950 . S
H623 C650 0.950 . S
H624 C653 0.950 . S
H625 C654 0.950 . S
H626 C656 0.950 . S
H627 C657 0.950 . S
C628 H610 0.951 . S
C628 C629 1.366 . S
C628 C630 1.388 . S
C629 C628 1.366 . S
C629 C633 1.385 . S
C630 H611 0.951 . S
C630 C628 1.388 . S
C630 C631 1.366 . S
C631 C630 1.366 . S
C631 C632 1.414 . S
C631 C634 1.499 . S
C632 H612 0.950 . S
C632 C631 1.414 . S
C632 C633 1.374 . S
C633 H613 0.950 . S
C633 C629 1.385 . S
C633 C632 1.374 . S
C634 C631 1.499 . S
C634 C635 1.373 . S
C634 C636 1.389 . S
C635 H614 0.950 . S
C635 C634 1.373 . S
C635 C651 1.377 . S
C636 C634 1.389 . S
C636 C637 1.524 . S
C636 C650 1.377 . S
C637 C636 1.524 . S
C637 C638 1.397 . S
C637 C642 1.363 . S
C638 H615 0.950 . S
C638 C637 1.397 . S
C638 C639 1.334 . S
C639 H616 0.950 . S
C639 C638 1.334 . S
C639 C640 1.287 . S
C640 C639 1.287 . S
C640 C641 1.524 . S
C640 H659 0.913 . S
C641 H617 0.950 . S
C641 C640 1.524 . S
C641 C642 1.415 . S
C642 H618 0.950 . S
C642 C637 1.363 . S
C642 C641 1.415 . S
C643 H619 0.951 . S
C643 C644 1.366 . S
C643 C645 1.388 . S
C644 C643 1.366 . S
C644 C648 1.385 . S
C645 H620 0.951 . S
C645 C643 1.388 . S
C645 C646 1.366 . S
C646 C645 1.366 . S
C646 C647 1.414 . S
C646 C649 1.499 . S
C647 H621 0.950 . S
C647 C646 1.414 . S
C647 C648 1.374 . S
C648 H622 0.950 . S
C648 C644 1.385 . S
C648 C647 1.374 . S
C649 C646 1.499 . S
C649 C650 1.373 . S
C649 C651 1.389 . S
C650 H623 0.950 . S
C650 C636 1.377 . S
C650 C649 1.373 . S
C651 C635 1.377 . S
C651 C649 1.389 . S
C651 C652 1.524 . S
C652 C651 1.524 . S
C652 C653 1.397 . S
C652 C657 1.363 . S
C653 H624 0.950 . S
C653 C652 1.397 . S
C653 C654 1.334 . S
C654 H625 0.950 . S
C654 C653 1.334 . S
C654 C655 1.287 . S
C655 C654 1.287 . S
C655 C656 1.524 . S
C655 H658 0.999 . S
C656 H626 0.950 . S
C656 C655 1.524 . S
C656 C657 1.415 . S
C657 H627 0.950 . S
C657 C652 1.363 . S
C657 C656 1.415 . S
H658 C655 0.999 . S
H659 C640 0.913 . S
H660 C678 0.951 . S
H661 C680 0.951 . S
H662 C682 0.950 . S
H663 C683 0.950 . S
H664 C685 0.950 . S
H665 C688 0.950 . S
H666 C689 0.950 . S
H667 C691 0.950 . S
H668 C692 0.950 . S
H669 C693 0.951 . S
H670 C695 0.951 . S
H671 C697 0.950 . S
H672 C698 0.950 . S
H673 C700 0.950 . S
H674 C703 0.950 . S
H675 C704 0.950 . S
H676 C706 0.950 . S
H677 C707 0.950 . S
C678 H660 0.951 . S
C678 C679 1.366 . S
C678 C680 1.388 . S
C679 C678 1.366 . S
C679 C683 1.385 . S
C680 H661 0.951 . S
C680 C678 1.388 . S
C680 C681 1.366 . S
C681 C680 1.366 . S
C681 C682 1.414 . S
C681 C684 1.499 . S
C682 H662 0.950 . S
C682 C681 1.414 . S
C682 C683 1.374 . S
C683 H663 0.950 . S
C683 C679 1.385 . S
C683 C682 1.374 . S
C684 C681 1.499 . S
C684 C685 1.373 . S
C684 C686 1.389 . S
C685 H664 0.950 . S
C685 C684 1.373 . S
C685 C701 1.377 . S
C686 C684 1.389 . S
C686 C687 1.524 . S
C686 C700 1.377 . S
C687 C686 1.524 . S
C687 C688 1.397 . S
C687 C692 1.363 . S
C688 H665 0.950 . S
C688 C687 1.397 . S
C688 C689 1.334 . S
C689 H666 0.950 . S
C689 C688 1.334 . S
C689 C690 1.287 . S
C690 C689 1.287 . S
C690 C691 1.524 . S
C690 H709 0.913 . S
C691 H667 0.950 . S
C691 C690 1.524 . S
C691 C692 1.415 . S
C692 H668 0.950 . S
C692 C687 1.363 . S
C692 C691 1.415 . S
C693 H669 0.951 . S
C693 C694 1.366 . S
C693 C695 1.388 . S
C694 C693 1.366 . S
C694 C698 1.385 . S
C695 H670 0.951 . S
C695 C693 1.388 . S
C695 C696 1.366 . S
C696 C695 1.366 . S
C696 C697 1.414 . S
C696 C699 1.499 . S
C697 H671 0.950 . S
C697 C696 1.414 . S
C697 C698 1.374 . S
C698 H672 0.950 . S
C698 C694 1.385 . S
C698 C697 1.374 . S
C699 C696 1.499 . S
C699 C700 1.373 . S
C699 C701 1.389 . S
C700 H673 0.950 . S
C700 C686 1.377 . S
C700 C699 1.373 . S
C701 C685 1.377 . S
C701 C699 1.389 . S
C701 C702 1.524 . S
C702 C701 1.524 . S
C702 C703 1.397 . S
C702 C707 1.363 . S
C703 H674 0.950 . S
C703 C702 1.397 . S
C703 C704 1.334 . S
C704 H675 0.950 . S
C704 C703 1.334 . S
C704 C705 1.287 . S
C705 C704 1.287 . S
C705 C706 1.524 . S
C705 H708 0.999 . S
C706 H676 0.950 . S
C706 C705 1.524 . S
C706 C707 1.415 . S
C707 H677 0.950 . S
C707 C702 1.363 . S
C707 C706 1.415 . S
H708 C705 0.999 . S
H709 C690 0.913 . S
H710 C728 0.951 . S
H711 C730 0.951 . S
H712 C732 0.950 . S
H713 C733 0.950 . S
H714 C735 0.950 . S
H715 C738 0.950 . S
H716 C739 0.950 . S
H717 C741 0.950 . S
H718 C742 0.950 . S
H719 C743 0.951 . S
H720 C745 0.951 . S
H721 C747 0.950 . S
H722 C748 0.950 . S
H723 C750 0.950 1_545 S
H724 C753 0.950 . S
H725 C754 0.950 . S
H726 C756 0.950 . S
H727 C757 0.950 . S
C728 H710 0.951 . S
C728 C729 1.366 . S
C728 C730 1.388 . S
C729 C728 1.366 . S
C729 C733 1.385 . S
C730 H711 0.951 . S
C730 C728 1.388 . S
C730 C731 1.366 . S
C731 C730 1.366 . S
C731 C732 1.414 . S
C731 C734 1.499 . S
C732 H712 0.950 . S
C732 C731 1.414 . S
C732 C733 1.374 . S
C733 H713 0.950 . S
C733 C729 1.385 . S
C733 C732 1.374 . S
C734 C731 1.499 . S
C734 C735 1.373 . S
C734 C736 1.389 . S
C735 H714 0.950 . S
C735 C734 1.373 . S
C735 C751 1.377 . S
C736 C734 1.389 . S
C736 C737 1.524 1_565 S
C736 C750 1.377 . S
C737 C736 1.524 1_545 S
C737 C738 1.397 . S
C737 C742 1.363 . S
C738 H715 0.950 . S
C738 C737 1.397 . S
C738 C739 1.334 . S
C739 H716 0.950 . S
C739 C738 1.334 . S
C739 C740 1.287 . S
C740 C739 1.287 . S
C740 C741 1.524 . S
C740 H759 0.913 . S
C741 H717 0.950 . S
C741 C740 1.524 . S
C741 C742 1.415 . S
C742 H718 0.950 . S
C742 C737 1.363 . S
C742 C741 1.415 . S
C743 H719 0.951 . S
C743 C744 1.366 . S
C743 C745 1.388 . S
C744 C743 1.366 . S
C744 C748 1.385 . S
C745 H720 0.951 . S
C745 C743 1.388 . S
C745 C746 1.366 . S
C746 C745 1.366 . S
C746 C747 1.414 . S
C746 C749 1.499 . S
C747 H721 0.950 . S
C747 C746 1.414 . S
C747 C748 1.374 . S
C748 H722 0.950 . S
C748 C744 1.385 . S
C748 C747 1.374 . S
C749 C746 1.499 . S
C749 C750 1.373 . S
C749 C751 1.389 . S
C750 H723 0.950 1_565 S
C750 C736 1.377 . S
C750 C749 1.373 . S
C751 C735 1.377 . S
C751 C749 1.389 . S
C751 C752 1.524 . S
C752 C751 1.524 . S
C752 C753 1.397 . S
C752 C757 1.363 . S
C753 H724 0.950 . S
C753 C752 1.397 . S
C753 C754 1.334 . S
C754 H725 0.950 . S
C754 C753 1.334 . S
C754 C755 1.287 . S
C755 C754 1.287 . S
C755 C756 1.524 . S
C755 H758 0.999 . S
C756 H726 0.950 . S
C756 C755 1.524 . S
C756 C757 1.415 . S
C757 H727 0.950 . S
C757 C752 1.363 . S
C757 C756 1.415 . S
H758 C755 0.999 . S
H759 C740 0.913 . S
H760 C778 0.951 . S
H761 C780 0.951 . S
H762 C782 0.950 . S
H763 C783 0.950 . S
H764 C785 0.950 . S
H765 C788 0.950 . S
H766 C789 0.950 . S
H767 C791 0.950 . S
H768 C792 0.950 . S
H769 C793 0.951 . S
H770 C795 0.951 . S
H771 C797 0.950 . S
H772 C798 0.950 . S
H773 C800 0.950 . S
H774 C803 0.950 . S
H775 C804 0.950 . S
H776 C806 0.950 . S
H777 C807 0.950 . S
C778 H760 0.951 . S
C778 C779 1.366 . S
C778 C780 1.388 . S
C779 C778 1.366 . S
C779 C783 1.385 . S
C780 H761 0.951 . S
C780 C778 1.388 . S
C780 C781 1.366 . S
C781 C780 1.366 . S
C781 C782 1.414 . S
C781 C784 1.499 . S
C782 H762 0.950 . S
C782 C781 1.414 . S
C782 C783 1.374 . S
C783 H763 0.950 . S
C783 C779 1.385 . S
C783 C782 1.374 . S
C784 C781 1.499 . S
C784 C785 1.373 . S
C784 C786 1.389 . S
C785 H764 0.950 . S
C785 C784 1.373 . S
C785 C801 1.377 . S
C786 C784 1.389 . S
C786 C787 1.524 . S
C786 C800 1.377 . S
C787 C786 1.524 . S
C787 C788 1.397 . S
C787 C792 1.363 . S
C788 H765 0.950 . S
C788 C787 1.397 . S
C788 C789 1.334 . S
C789 H766 0.950 . S
C789 C788 1.334 . S
C789 C790 1.287 . S
C790 C789 1.287 . S
C790 C791 1.524 . S
C790 H809 0.913 . S
C791 H767 0.950 . S
C791 C790 1.524 . S
C791 C792 1.415 . S
C792 H768 0.950 . S
C792 C787 1.363 . S
C792 C791 1.415 . S
C793 H769 0.951 . S
C793 C794 1.366 . S
C793 C795 1.388 . S
C794 C793 1.366 . S
C794 C798 1.385 . S
C795 H770 0.951 . S
C795 C793 1.388 . S
C795 C796 1.366 . S
C796 C795 1.366 . S
C796 C797 1.414 . S
C796 C799 1.499 . S
C797 H771 0.950 . S
C797 C796 1.414 . S
C797 C798 1.374 . S
C798 H772 0.950 . S
C798 C794 1.385 . S
C798 C797 1.374 . S
C799 C796 1.499 . S
C799 C800 1.373 . S
C799 C801 1.389 . S
C800 H773 0.950 . S
C800 C786 1.377 . S
C800 C799 1.373 . S
C801 C785 1.377 . S
C801 C799 1.389 . S
C801 C802 1.524 . S
C802 C801 1.524 . S
C802 C803 1.397 . S
C802 C807 1.363 . S
C803 H774 0.950 . S
C803 C802 1.397 . S
C803 C804 1.334 . S
C804 H775 0.950 . S
C804 C803 1.334 . S
C804 C805 1.287 . S
C805 C804 1.287 . S
C805 C806 1.524 . S
C805 H808 0.999 . S
C806 H776 0.950 . S
C806 C805 1.524 . S
C806 C807 1.415 . S
C807 H777 0.950 . S
C807 C802 1.363 . S
C807 C806 1.415 . S
H808 C805 0.999 . S
H809 C790 0.913 . S
H810 C828 0.951 . S
H811 C830 0.951 . S
H812 C832 0.950 . S
H813 C833 0.950 . S
H814 C835 0.950 . S
H815 C838 0.950 . S
H816 C839 0.950 . S
H817 C841 0.950 . S
H818 C842 0.950 . S
H819 C843 0.951 . S
H820 C845 0.951 . S
H821 C847 0.950 . S
H822 C848 0.950 . S
H823 C850 0.950 . S
H824 C853 0.950 . S
H825 C854 0.950 . S
H826 C856 0.950 . S
H827 C857 0.950 . S
C828 H810 0.951 . S
C828 C829 1.366 . S
C828 C830 1.388 . S
C829 C828 1.366 . S
C829 C833 1.385 . S
C830 H811 0.951 . S
C830 C828 1.388 . S
C830 C831 1.366 . S
C831 C830 1.366 . S
C831 C832 1.414 . S
C831 C834 1.499 . S
C832 H812 0.950 . S
C832 C831 1.414 . S
C832 C833 1.374 . S
C833 H813 0.950 . S
C833 C829 1.385 . S
C833 C832 1.374 . S
C834 C831 1.499 . S
C834 C835 1.373 . S
C834 C836 1.389 . S
C835 H814 0.950 . S
C835 C834 1.373 . S
C835 C851 1.377 . S
C836 C834 1.389 . S
C836 C837 1.524 . S
C836 C850 1.377 . S
C837 C836 1.524 . S
C837 C838 1.397 . S
C837 C842 1.363 . S
C838 H815 0.950 . S
C838 C837 1.397 . S
C838 C839 1.334 . S
C839 H816 0.950 . S
C839 C838 1.334 . S
C839 C840 1.287 . S
C840 C839 1.287 . S
C840 C841 1.524 . S
C840 H859 0.913 . S
C841 H817 0.950 . S
C841 C840 1.524 . S
C841 C842 1.415 . S
C842 H818 0.950 . S
C842 C837 1.363 . S
C842 C841 1.415 . S
C843 H819 0.951 . S
C843 C844 1.366 . S
C843 C845 1.388 . S
C844 C843 1.366 . S
C844 C848 1.385 . S
C845 H820 0.951 . S
C845 C843 1.388 . S
C845 C846 1.366 . S
C846 C845 1.366 . S
C846 C847 1.414 . S
C846 C849 1.499 . S
C847 H821 0.950 . S
C847 C846 1.414 . S
C847 C848 1.374 . S
C848 H822 0.950 . S
C848 C844 1.385 . S
C848 C847 1.374 . S
C849 C846 1.499 . S
C849 C850 1.373 . S
C849 C851 1.389 . S
C850 H823 0.950 . S
C850 C836 1.377 . S
C850 C849 1.373 . S
C851 C835 1.377 . S
C851 C849 1.389 . S
C851 C852 1.524 . S
C852 C851 1.524 . S
C852 C853 1.397 . S
C852 C857 1.363 . S
C853 H824 0.950 . S
C853 C852 1.397 . S
C853 C854 1.334 . S
C854 H825 0.950 . S
C854 C853 1.334 . S
C854 C855 1.287 . S
C855 C854 1.287 . S
C855 C856 1.524 . S
C855 H858 0.999 . S
C856 H826 0.950 . S
C856 C855 1.524 . S
C856 C857 1.415 . S
C857 H827 0.950 . S
C857 C852 1.363 . S
C857 C856 1.415 . S
H858 C855 0.999 . S
H859 C840 0.913 . S
H860 C878 0.951 . S
H861 C880 0.951 . S
H862 C882 0.950 . S
H863 C883 0.950 . S
H864 C885 0.950 . S
H865 C888 0.950 . S
H866 C889 0.950 . S
H867 C891 0.950 . S
H868 C892 0.950 . S
H869 C893 0.951 . S
H870 C895 0.951 . S
H871 C897 0.950 . S
H872 C898 0.950 . S
H873 C900 0.950 . S
H874 C903 0.950 . S
H875 C904 0.950 . S
H876 C906 0.950 . S
H877 C907 0.950 . S
C878 H860 0.951 . S
C878 C879 1.366 . S
C878 C880 1.388 . S
C879 C878 1.366 . S
C879 C883 1.385 . S
C880 H861 0.951 . S
C880 C878 1.388 . S
C880 C881 1.366 . S
C881 C880 1.366 . S
C881 C882 1.414 . S
C881 C884 1.499 . S
C882 H862 0.950 . S
C882 C881 1.414 . S
C882 C883 1.374 . S
C883 H863 0.950 . S
C883 C879 1.385 . S
C883 C882 1.374 . S
C884 C881 1.499 . S
C884 C885 1.373 . S
C884 C886 1.389 . S
C885 H864 0.950 . S
C885 C884 1.373 . S
C885 C901 1.377 . S
C886 C884 1.389 . S
C886 C887 1.524 . S
C886 C900 1.377 . S
C887 C886 1.524 . S
C887 C888 1.397 . S
C887 C892 1.363 . S
C888 H865 0.950 . S
C888 C887 1.397 . S
C888 C889 1.334 . S
C889 H866 0.950 . S
C889 C888 1.334 . S
C889 C890 1.287 . S
C890 C889 1.287 . S
C890 C891 1.524 . S
C890 H909 0.913 . S
C891 H867 0.950 . S
C891 C890 1.524 . S
C891 C892 1.415 . S
C892 H868 0.950 . S
C892 C887 1.363 . S
C892 C891 1.415 . S
C893 H869 0.951 . S
C893 C894 1.366 . S
C893 C895 1.388 . S
C894 C893 1.366 . S
C894 C898 1.385 . S
C895 H870 0.951 . S
C895 C893 1.388 . S
C895 C896 1.366 . S
C896 C895 1.366 . S
C896 C897 1.414 . S
C896 C899 1.499 . S
C897 H871 0.950 . S
C897 C896 1.414 . S
C897 C898 1.374 . S
C898 H872 0.950 . S
C898 C894 1.385 . S
C898 C897 1.374 . S
C899 C896 1.499 . S
C899 C900 1.373 . S
C899 C901 1.389 . S
C900 H873 0.950 . S
C900 C886 1.377 . S
C900 C899 1.373 . S
C901 C885 1.377 . S
C901 C899 1.389 . S
C901 C902 1.524 . S
C902 C901 1.524 . S
C902 C903 1.397 . S
C902 C907 1.363 . S
C903 H874 0.950 . S
C903 C902 1.397 . S
C903 C904 1.334 . S
C904 H875 0.950 . S
C904 C903 1.334 . S
C904 C905 1.287 . S
C905 C904 1.287 . S
C905 C906 1.524 . S
C905 H908 0.999 . S
C906 H876 0.950 . S
C906 C905 1.524 . S
C906 C907 1.415 . S
C907 H877 0.950 . S
C907 C902 1.363 . S
C907 C906 1.415 . S
H908 C905 0.999 . S
H909 C890 0.913 . S
H910 C928 0.951 . S
H911 C930 0.951 . S
H912 C932 0.950 . S
H913 C933 0.950 . S
H914 C935 0.950 . S
H915 C938 0.950 . S
H916 C939 0.950 . S
H917 C941 0.950 . S
H918 C942 0.950 . S
H919 C943 0.951 . S
H920 C945 0.951 . S
H921 C947 0.950 . S
H922 C948 0.950 . S
H923 C950 0.950 . S
H924 C953 0.950 . S
H925 C954 0.950 . S
H926 C956 0.950 . S
H927 C957 0.950 . S
C928 H910 0.951 . S
C928 C929 1.366 . S
C928 C930 1.388 . S
C929 C928 1.366 . S
C929 C933 1.385 . S
C930 H911 0.951 . S
C930 C928 1.388 . S
C930 C931 1.366 . S
C931 C930 1.366 . S
C931 C932 1.414 . S
C931 C934 1.499 . S
C932 H912 0.950 . S
C932 C931 1.414 . S
C932 C933 1.374 . S
C933 H913 0.950 . S
C933 C929 1.385 . S
C933 C932 1.374 . S
C934 C931 1.499 . S
C934 C935 1.373 . S
C934 C936 1.389 . S
C935 H914 0.950 . S
C935 C934 1.373 . S
C935 C951 1.377 . S
C936 C934 1.389 . S
C936 C937 1.524 . S
C936 C950 1.377 . S
C937 C936 1.524 . S
C937 C938 1.397 . S
C937 C942 1.363 . S
C938 H915 0.950 . S
C938 C937 1.397 . S
C938 C939 1.334 . S
C939 H916 0.950 . S
C939 C938 1.334 . S
C939 C940 1.287 . S
C940 C939 1.287 . S
C940 C941 1.524 . S
C940 H959 0.913 . S
C941 H917 0.950 . S
C941 C940 1.524 . S
C941 C942 1.415 . S
C942 H918 0.950 . S
C942 C937 1.363 . S
C942 C941 1.415 . S
C943 H919 0.951 . S
C943 C944 1.366 . S
C943 C945 1.388 . S
C944 C943 1.366 . S
C944 C948 1.385 . S
C945 H920 0.951 . S
C945 C943 1.388 . S
C945 C946 1.366 . S
C946 C945 1.366 . S
C946 C947 1.414 . S
C946 C949 1.499 . S
C947 H921 0.950 . S
C947 C946 1.414 . S
C947 C948 1.374 . S
C948 H922 0.950 . S
C948 C944 1.385 . S
C948 C947 1.374 . S
C949 C946 1.499 . S
C949 C950 1.373 . S
C949 C951 1.389 . S
C950 H923 0.950 . S
C950 C936 1.377 . S
C950 C949 1.373 . S
C951 C935 1.377 . S
C951 C949 1.389 . S
C951 C952 1.524 . S
C952 C951 1.524 . S
C952 C953 1.397 . S
C952 C957 1.363 . S
C953 H924 0.950 . S
C953 C952 1.397 . S
C953 C954 1.334 . S
C954 H925 0.950 . S
C954 C953 1.334 . S
C954 C955 1.287 . S
C955 C954 1.287 . S
C955 C956 1.524 . S
C955 H958 0.999 . S
C956 H926 0.950 . S
C956 C955 1.524 . S
C956 C957 1.415 . S
C957 H927 0.950 . S
C957 C952 1.363 . S
C957 C956 1.415 . S
H958 C955 0.999 . S
H959 C940 0.913 . S
H960 C978 0.951 . S
H961 C980 0.951 . S
H962 C982 0.950 . S
H963 C983 0.950 . S
H964 C985 0.950 . S
H965 C988 0.950 . S
H966 C989 0.950 . S
H967 C991 0.950 . S
H968 C992 0.950 . S
H969 C993 0.951 . S
H970 C995 0.951 . S
H971 C997 0.950 . S
H972 C998 0.950 . S
H973 C1000 0.950 . S
H974 C1003 0.950 . S
H975 C1004 0.950 . S
H976 C1006 0.950 . S
H977 C1007 0.950 . S
C978 H960 0.951 . S
C978 C979 1.366 . S
C978 C980 1.388 . S
C979 C978 1.366 . S
C979 C983 1.385 . S
C980 H961 0.951 . S
C980 C978 1.388 . S
C980 C981 1.366 . S
C981 C980 1.366 . S
C981 C982 1.414 . S
C981 C984 1.499 . S
C982 H962 0.950 . S
C982 C981 1.414 . S
C982 C983 1.374 . S
C983 H963 0.950 . S
C983 C979 1.385 . S
C983 C982 1.374 . S
C984 C981 1.499 . S
C984 C985 1.373 . S
C984 C986 1.389 . S
C985 H964 0.950 . S
C985 C984 1.373 . S
C985 C1001 1.377 . S
C986 C984 1.389 . S
C986 C987 1.524 . S
C986 C1000 1.377 . S
C987 C986 1.524 . S
C987 C988 1.397 . S
C987 C992 1.363 . S
C988 H965 0.950 . S
C988 C987 1.397 . S
C988 C989 1.334 . S
C989 H966 0.950 . S
C989 C988 1.334 . S
C989 C990 1.287 . S
C990 C989 1.287 . S
C990 C991 1.524 . S
C990 H1009 0.913 . S
C991 H967 0.950 . S
C991 C990 1.524 . S
C991 C992 1.415 . S
C992 H968 0.950 . S
C992 C987 1.363 . S
C992 C991 1.415 . S
C993 H969 0.951 . S
C993 C994 1.366 . S
C993 C995 1.388 . S
C994 C993 1.366 . S
C994 C998 1.385 . S
C995 H970 0.951 . S
C995 C993 1.388 . S
C995 C996 1.366 . S
C996 C995 1.366 . S
C996 C997 1.414 . S
C996 C999 1.499 . S
C997 H971 0.950 . S
C997 C996 1.414 . S
C997 C998 1.374 . S
C998 H972 0.950 . S
C998 C994 1.385 . S
C998 C997 1.374 . S
C999 C996 1.499 . S
C999 C1000 1.373 . S
C999 C1001 1.389 . S
C1000 H973 0.950 . S
C1000 C986 1.377 . S
C1000 C999 1.373 . S
C1001 C985 1.377 . S
C1001 C999 1.389 . S
C1001 C1002 1.524 . S
C1002 C1001 1.524 . S
C1002 C1003 1.397 . S
C1002 C1007 1.363 . S
C1003 H974 0.950 . S
C1003 C1002 1.397 . S
C1003 C1004 1.334 . S
C1004 H975 0.950 . S
C1004 C1003 1.334 . S
C1004 C1005 1.287 . S
C1005 C1004 1.287 . S
C1005 C1006 1.524 . S
C1005 H1008 0.999 . S
C1006 H976 0.950 . S
C1006 C1005 1.524 . S
C1006 C1007 1.415 . S
C1007 H977 0.950 . S
C1007 C1002 1.363 . S
C1007 C1006 1.415 . S
H1008 C1005 0.999 . S
H1009 C990 0.913 . S
H1010 C1028 0.951 . S
H1011 C1030 0.951 . S
H1012 C1032 0.950 . S
H1013 C1033 0.950 . S
H1014 C1035 0.950 . S
H1015 C1038 0.965 . S
H1016 C1039 0.950 . S
H1017 C1041 0.950 . S
H1018 C1042 0.950 . S
H1019 C1043 0.951 . S
H1020 C1045 0.951 . S
H1021 C1047 0.950 . S
H1022 C1048 0.950 . S
H1023 C1050 0.950 . S
H1024 C1053 0.950 . S
H1025 C1054 0.950 . S
H1026 C1056 0.950 . S
H1027 C1057 0.950 . S
C1028 H1010 0.951 . S
C1028 C1029 1.366 . S
C1028 C1030 1.388 . S
C1029 C1028 1.366 . S
C1029 C1033 1.385 . S
C1030 H1011 0.951 . S
C1030 C1028 1.388 . S
C1030 C1031 1.366 . S
C1031 C1030 1.366 . S
C1031 C1032 1.414 . S
C1031 C1034 1.499 . S
C1032 H1012 0.950 . S
C1032 C1031 1.414 . S
C1032 C1033 1.374 . S
C1033 H1013 0.950 . S
C1033 C1029 1.385 . S
C1033 C1032 1.374 . S
C1034 C1031 1.499 . S
C1034 C1035 1.373 . S
C1034 C1036 1.389 . S
C1035 H1014 0.950 . S
C1035 C1034 1.373 . S
C1035 C1051 1.377 . S
C1036 C1034 1.389 . S
C1036 C1037 1.524 . S
C1036 C1050 1.377 . S
C1037 C1036 1.524 . S
C1037 C1038 1.407 . S
C1037 C1042 1.363 1_455 S
C1038 H1015 0.965 . S
C1038 C1037 1.407 . S
C1038 C1039 1.309 1_455 S
C1039 H1016 0.950 . S
C1039 C1038 1.309 1_655 S
C1039 C1040 1.287 . S
C1040 C1039 1.287 . S
C1040 C1041 1.524 . S
C1040 H1059 0.913 . S
C1041 H1017 0.950 . S
C1041 C1040 1.524 . S
C1041 C1042 1.415 . S
C1042 H1018 0.950 . S
C1042 C1037 1.363 1_655 S
C1042 C1041 1.415 . S
C1043 H1019 0.951 . S
C1043 C1044 1.366 . S
C1043 C1045 1.388 . S
C1044 C1043 1.366 . S
C1044 C1048 1.385 . S
C1045 H1020 0.951 . S
C1045 C1043 1.388 . S
C1045 C1046 1.366 . S
C1046 C1045 1.366 . S
C1046 C1047 1.414 . S
C1046 C1049 1.499 . S
C1047 H1021 0.950 . S
C1047 C1046 1.414 . S
C1047 C1048 1.374 . S
C1048 H1022 0.950 . S
C1048 C1044 1.385 . S
C1048 C1047 1.374 . S
C1049 C1046 1.499 . S
C1049 C1050 1.373 . S
C1049 C1051 1.389 . S
C1050 H1023 0.950 . S
C1050 C1036 1.377 . S
C1050 C1049 1.373 . S
C1051 C1035 1.377 . S
C1051 C1049 1.389 . S
C1051 C1052 1.524 . S
C1052 C1051 1.524 . S
C1052 C1053 1.397 . S
C1052 C1057 1.363 . S
C1053 H1024 0.950 . S
C1053 C1052 1.397 . S
C1053 C1054 1.334 . S
C1054 H1025 0.950 . S
C1054 C1053 1.334 . S
C1054 C1055 1.287 . S
C1055 C1054 1.287 . S
C1055 C1056 1.524 . S
C1055 H1058 0.999 . S
C1056 H1026 0.950 . S
C1056 C1055 1.524 . S
C1056 C1057 1.415 . S
C1057 H1027 0.950 . S
C1057 C1052 1.363 . S
C1057 C1056 1.415 . S
H1058 C1055 0.999 . S
H1059 C1040 0.913 . S
H1060 C1078 0.951 . S
H1061 C1080 0.951 . S
H1062 C1082 0.950 . S
H1063 C1083 0.950 . S
H1064 C1085 0.950 . S
H1065 C1088 0.950 . S
H1066 C1089 0.950 . S
H1067 C1091 0.950 . S
H1068 C1092 0.950 . S
H1069 C1093 0.951 . S
H1070 C1095 0.951 . S
H1071 C1097 0.950 . S
H1072 C1098 0.950 . S
H1073 C1100 0.950 . S
H1074 C1103 0.950 . S
H1075 C1104 0.950 . S
H1076 C1106 0.950 . S
H1077 C1107 0.950 . S
C1078 H1060 0.951 . S
C1078 C1079 1.366 . S
C1078 C1080 1.388 . S
C1079 C1078 1.366 . S
C1079 C1083 1.385 . S
C1080 H1061 0.951 . S
C1080 C1078 1.388 . S
C1080 C1081 1.366 . S
C1081 C1080 1.366 . S
C1081 C1082 1.414 . S
C1081 C1084 1.499 . S
C1082 H1062 0.950 . S
C1082 C1081 1.414 . S
C1082 C1083 1.374 . S
C1083 H1063 0.950 . S
C1083 C1079 1.385 . S
C1083 C1082 1.374 . S
C1084 C1081 1.499 . S
C1084 C1085 1.373 . S
C1084 C1086 1.389 . S
C1085 H1064 0.950 . S
C1085 C1084 1.373 . S
C1085 C1101 1.377 . S
C1086 C1084 1.389 . S
C1086 C1087 1.524 . S
C1086 C1100 1.377 . S
C1087 C1086 1.524 . S
C1087 C1088 1.397 . S
C1087 C1092 1.363 . S
C1088 H1065 0.950 . S
C1088 C1087 1.397 . S
C1088 C1089 1.334 . S
C1089 H1066 0.950 . S
C1089 C1088 1.334 . S
C1089 C1090 1.287 . S
C1090 C1089 1.287 . S
C1090 C1091 1.524 . S
C1090 H1109 0.913 . S
C1091 H1067 0.950 . S
C1091 C1090 1.524 . S
C1091 C1092 1.415 . S
C1092 H1068 0.950 . S
C1092 C1087 1.363 . S
C1092 C1091 1.415 . S
C1093 H1069 0.951 . S
C1093 C1094 1.366 . S
C1093 C1095 1.388 . S
C1094 C1093 1.366 . S
C1094 C1098 1.385 . S
C1095 H1070 0.951 . S
C1095 C1093 1.388 . S
C1095 C1096 1.366 . S
C1096 C1095 1.366 . S
C1096 C1097 1.414 . S
C1096 C1099 1.499 . S
C1097 H1071 0.950 . S
C1097 C1096 1.414 . S
C1097 C1098 1.374 . S
C1098 H1072 0.950 . S
C1098 C1094 1.385 . S
C1098 C1097 1.374 . S
C1099 C1096 1.499 . S
C1099 C1100 1.373 . S
C1099 C1101 1.389 . S
C1100 H1073 0.950 . S
C1100 C1086 1.377 . S
C1100 C1099 1.373 . S
C1101 C1085 1.377 . S
C1101 C1099 1.389 . S
C1101 C1102 1.524 . S
C1102 C1101 1.524 . S
C1102 C1103 1.397 . S
C1102 C1107 1.363 . S
C1103 H1074 0.950 . S
C1103 C1102 1.397 . S
C1103 C1104 1.334 . S
C1104 H1075 0.950 . S
C1104 C1103 1.334 . S
C1104 C1105 1.287 . S
C1105 C1104 1.287 . S
C1105 C1106 1.524 . S
C1105 H1108 0.999 . S
C1106 H1076 0.950 . S
C1106 C1105 1.524 . S
C1106 C1107 1.415 . S
C1107 H1077 0.950 . S
C1107 C1102 1.363 . S
C1107 C1106 1.415 . S
H1108 C1105 0.999 . S
H1109 C1090 0.913 . S
H1110 C1128 0.951 1_455 S
H1111 C1130 0.951 1_455 S
H1112 C1132 0.950 . S
H1113 C1133 0.950 . S
H1114 C1135 0.950 . S
H1115 C1138 0.950 . S
H1116 C1139 0.950 . S
H1117 C1141 0.950 1_455 S
H1118 C1142 0.927 1_455 S
H1119 C1143 0.951 . S
H1120 C1145 0.951 . S
H1121 C1147 0.950 . S
H1122 C1148 0.950 . S
H1123 C1150 0.950 . S
H1124 C1153 0.950 . S
H1125 C1154 0.950 . S
H1126 C1156 0.950 . S
H1127 C1157 0.950 . S
C1128 H1110 0.951 1_655 S
C1128 C1129 1.366 . S
C1128 C1130 1.388 . S
C1129 C1128 1.366 . S
C1129 C1133 1.385 . S
C1130 H1111 0.951 1_655 S
C1130 C1128 1.388 . S
C1130 C1131 1.366 . S
C1131 C1130 1.366 . S
C1131 C1132 1.414 . S
C1131 C1134 1.499 . S
C1132 H1112 0.950 . S
C1132 C1131 1.414 . S
C1132 C1133 1.374 . S
C1133 H1113 0.950 . S
C1133 C1129 1.385 . S
C1133 C1132 1.374 . S
C1134 C1131 1.499 . S
C1134 C1135 1.373 . S
C1134 C1136 1.389 . S
C1135 H1114 0.950 . S
C1135 C1134 1.373 . S
C1135 C1151 1.377 . S
C1136 C1134 1.389 . S
C1136 C1137 1.524 . S
C1136 C1150 1.377 . S
C1137 C1136 1.524 . S
C1137 C1138 1.397 . S
C1137 C1142 1.384 . S
C1138 H1115 0.950 . S
C1138 C1137 1.397 . S
C1138 C1139 1.334 . S
C1139 H1116 0.950 . S
C1139 C1138 1.334 . S
C1139 C1140 1.287 . S
C1140 C1139 1.287 . S
C1140 C1141 1.524 . S
C1140 H1159 0.913 . S
C1141 H1117 0.950 1_655 S
C1141 C1140 1.524 . S
C1141 C1142 1.418 . S
C1142 H1118 0.927 1_655 S
C1142 C1137 1.384 . S
C1142 C1141 1.418 . S
C1143 H1119 0.951 . S
C1143 C1144 1.366 . S
C1143 C1145 1.388 . S
C1144 C1143 1.366 . S
C1144 C1148 1.385 1_655 S
C1145 H1120 0.951 . S
C1145 C1143 1.388 . S
C1145 C1146 1.366 . S
C1146 C1145 1.366 . S
C1146 C1147 1.414 1_655 S
C1146 C1149 1.499 . S
C1147 H1121 0.950 . S
C1147 C1146 1.414 1_455 S
C1147 C1148 1.374 . S
C1148 H1122 0.950 . S
C1148 C1144 1.385 1_455 S
C1148 C1147 1.374 . S
C1149 C1146 1.499 . S
C1149 C1150 1.373 . S
C1149 C1151 1.389 . S
C1150 H1123 0.950 . S
C1150 C1136 1.377 . S
C1150 C1149 1.373 . S
C1151 C1135 1.377 . S
C1151 C1149 1.389 . S
C1151 C1152 1.524 . S
C1152 C1151 1.524 . S
C1152 C1153 1.397 1_655 S
C1152 C1157 1.363 . S
C1153 H1124 0.950 . S
C1153 C1152 1.397 1_455 S
C1153 C1154 1.334 . S
C1154 H1125 0.950 . S
C1154 C1153 1.334 . S
C1154 C1155 1.287 1_455 S
C1155 C1154 1.287 1_655 S
C1155 C1156 1.524 . S
C1155 H1158 0.999 . S
C1156 H1126 0.950 . S
C1156 C1155 1.524 . S
C1156 C1157 1.415 . S
C1157 H1127 0.950 . S
C1157 C1152 1.363 . S
C1157 C1156 1.415 . S
H1158 C1155 0.999 . S
H1159 C1140 0.913 . S
H1160 C1178 0.951 . S
H1161 C1180 0.951 . S
H1162 C1182 0.950 . S
H1163 C1183 0.950 . S
H1164 C1185 0.950 . S
H1165 C1188 0.950 . S
H1166 C1189 0.950 . S
H1167 C1191 0.950 . S
H1168 C1192 0.950 . S
H1169 C1193 0.951 1_545 S
H1170 C1195 0.951 . S
H1171 C1197 0.950 . S
H1172 C1198 0.950 . S
H1173 C1200 0.950 . S
H1174 C1203 0.950 . S
H1175 C1204 0.950 . S
H1176 C1206 0.950 . S
H1177 C1207 0.950 . S
C1178 H1160 0.951 . S
C1178 C1179 1.366 . S
C1178 C1180 1.388 . S
C1179 C1178 1.366 . S
C1179 C1183 1.385 . S
C1180 H1161 0.951 . S
C1180 C1178 1.388 . S
C1180 C1181 1.366 . S
C1181 C1180 1.366 . S
C1181 C1182 1.414 . S
C1181 C1184 1.499 . S
C1182 H1162 0.950 . S
C1182 C1181 1.414 . S
C1182 C1183 1.374 . S
C1183 H1163 0.950 . S
C1183 C1179 1.385 . S
C1183 C1182 1.374 . S
C1184 C1181 1.499 . S
C1184 C1185 1.373 . S
C1184 C1186 1.389 . S
C1185 H1164 0.950 . S
C1185 C1184 1.373 . S
C1185 C1201 1.377 . S
C1186 C1184 1.389 . S
C1186 C1187 1.524 . S
C1186 C1200 1.377 . S
C1187 C1186 1.524 . S
C1187 C1188 1.397 . S
C1187 C1192 1.363 . S
C1188 H1165 0.950 . S
C1188 C1187 1.397 . S
C1188 C1189 1.334 . S
C1189 H1166 0.950 . S
C1189 C1188 1.334 . S
C1189 C1190 1.287 . S
C1190 C1189 1.287 . S
C1190 C1191 1.524 . S
C1190 H1209 0.913 . S
C1191 H1167 0.950 . S
C1191 C1190 1.524 . S
C1191 C1192 1.415 . S
C1192 H1168 0.950 . S
C1192 C1187 1.363 . S
C1192 C1191 1.415 . S
C1193 H1169 0.951 1_565 S
C1193 C1194 1.366 . S
C1193 C1195 1.388 . S
C1194 C1193 1.366 . S
C1194 C1198 1.385 . S
C1195 H1170 0.951 . S
C1195 C1193 1.388 . S
C1195 C1196 1.366 . S
C1196 C1195 1.366 . S
C1196 C1197 1.414 . S
C1196 C1199 1.499 . S
C1197 H1171 0.950 . S
C1197 C1196 1.414 . S
C1197 C1198 1.374 . S
C1198 H1172 0.950 . S
C1198 C1194 1.385 . S
C1198 C1197 1.374 . S
C1199 C1196 1.499 . S
C1199 C1200 1.373 . S
C1199 C1201 1.389 . S
C1200 H1173 0.950 . S
C1200 C1186 1.377 . S
C1200 C1199 1.373 . S
C1201 C1185 1.377 . S
C1201 C1199 1.389 . S
C1201 C1202 1.524 . S
C1202 C1201 1.524 . S
C1202 C1203 1.397 . S
C1202 C1207 1.363 . S
C1203 H1174 0.950 . S
C1203 C1202 1.397 . S
C1203 C1204 1.334 . S
C1204 H1175 0.950 . S
C1204 C1203 1.334 . S
C1204 C1205 1.287 . S
C1205 C1204 1.287 . S
C1205 C1206 1.524 . S
C1205 H1208 0.999 . S
C1206 H1176 0.950 . S
C1206 C1205 1.524 . S
C1206 C1207 1.415 . S
C1207 H1177 0.950 . S
C1207 C1202 1.363 . S
C1207 C1206 1.415 . S
H1208 C1205 0.999 . S
H1209 C1190 0.913 . S
H1210 C1228 0.951 . S
H1211 C1230 0.951 . S
H1212 C1232 0.950 . S
H1213 C1233 0.950 . S
H1214 C1235 0.950 . S
H1215 C1238 0.950 . S
H1216 C1239 0.950 . S
H1217 C1241 0.950 . S
H1218 C1242 0.950 . S
H1219 C1243 0.951 . S
H1220 C1245 0.951 . S
H1221 C1247 0.950 . S
H1222 C1248 0.950 . S
H1223 C1250 0.950 . S
H1224 C1253 0.950 . S
H1225 C1254 0.950 . S
H1226 C1256 0.950 . S
H1227 C1257 0.950 . S
C1228 H1210 0.951 . S
C1228 C1229 1.366 . S
C1228 C1230 1.388 . S
C1229 C1228 1.366 . S
C1229 C1233 1.385 . S
C1230 H1211 0.951 . S
C1230 C1228 1.388 . S
C1230 C1231 1.366 . S
C1231 C1230 1.366 . S
C1231 C1232 1.414 . S
C1231 C1234 1.499 . S
C1232 H1212 0.950 . S
C1232 C1231 1.414 . S
C1232 C1233 1.374 . S
C1233 H1213 0.950 . S
C1233 C1229 1.385 . S
C1233 C1232 1.374 . S
C1234 C1231 1.499 . S
C1234 C1235 1.373 . S
C1234 C1236 1.389 . S
C1235 H1214 0.950 . S
C1235 C1234 1.373 . S
C1235 C1251 1.377 . S
C1236 C1234 1.389 . S
C1236 C1237 1.524 . S
C1236 C1250 1.377 . S
C1237 C1236 1.524 . S
C1237 C1238 1.397 . S
C1237 C1242 1.363 . S
C1238 H1215 0.950 . S
C1238 C1237 1.397 . S
C1238 C1239 1.334 . S
C1239 H1216 0.950 . S
C1239 C1238 1.334 . S
C1239 C1240 1.287 . S
C1240 C1239 1.287 . S
C1240 C1241 1.524 . S
C1240 H1259 0.913 . S
C1241 H1217 0.950 . S
C1241 C1240 1.524 . S
C1241 C1242 1.415 . S
C1242 H1218 0.950 . S
C1242 C1237 1.363 . S
C1242 C1241 1.415 . S
C1243 H1219 0.951 . S
C1243 C1244 1.366 . S
C1243 C1245 1.388 . S
C1244 C1243 1.366 . S
C1244 C1248 1.385 . S
C1245 H1220 0.951 . S
C1245 C1243 1.388 . S
C1245 C1246 1.366 . S
C1246 C1245 1.366 . S
C1246 C1247 1.414 . S
C1246 C1249 1.499 . S
C1247 H1221 0.950 . S
C1247 C1246 1.414 . S
C1247 C1248 1.374 . S
C1248 H1222 0.950 . S
C1248 C1244 1.385 . S
C1248 C1247 1.374 . S
C1249 C1246 1.499 . S
C1249 C1250 1.373 . S
C1249 C1251 1.389 . S
C1250 H1223 0.950 . S
C1250 C1236 1.377 . S
C1250 C1249 1.373 . S
C1251 C1235 1.377 . S
C1251 C1249 1.389 . S
C1251 C1252 1.524 . S
C1252 C1251 1.524 . S
C1252 C1253 1.397 . S
C1252 C1257 1.363 . S
C1253 H1224 0.950 . S
C1253 C1252 1.397 . S
C1253 C1254 1.334 . S
C1254 H1225 0.950 . S
C1254 C1253 1.334 . S
C1254 C1255 1.287 . S
C1255 C1254 1.287 . S
C1255 C1256 1.524 . S
C1255 H1258 0.999 . S
C1256 H1226 0.950 . S
C1256 C1255 1.524 . S
C1256 C1257 1.415 . S
C1257 H1227 0.950 . S
C1257 C1252 1.363 . S
C1257 C1256 1.415 . S
H1258 C1255 0.999 . S
H1259 C1240 0.913 . S
H1260 C1278 0.937 1_545 S
H1261 C1280 0.951 . S
H1262 C1282 0.950 1_554 S
H1263 C1283 0.952 1_554 S
H1264 C1285 0.950 1_554 S
H1265 C1288 0.950 . S
H1266 C1289 0.950 . S
H1267 C1291 0.950 . S
H1268 C1292 0.950 . S
H1269 C1293 0.951 . S
H1270 C1295 0.951 . S
H1271 C1297 0.950 . S
H1272 C1298 0.950 . S
H1273 C1300 0.950 . S
H1274 C1303 0.950 . S
H1275 C1304 0.950 1_556 S
H1276 C1306 0.950 . S
H1277 C1307 0.950 . S
C1278 H1260 0.937 1_565 S
C1278 C1279 1.366 1_565 S
C1278 C1280 1.388 . S
C1279 C1278 1.366 1_545 S
C1279 C1283 1.385 1_545 S
C1280 H1261 0.951 . S
C1280 C1278 1.388 . S
C1280 C1281 1.366 . S
C1281 C1280 1.366 . S
C1281 C1282 1.414 . S
C1281 C1284 1.499 . S
C1282 H1262 0.950 1_556 S
C1282 C1281 1.414 . S
C1282 C1283 1.374 . S
C1283 H1263 0.952 1_556 S
C1283 C1279 1.385 1_565 S
C1283 C1282 1.374 . S
C1284 C1281 1.499 . S
C1284 C1285 1.373 . S
C1284 C1286 1.389 . S
C1285 H1264 0.950 1_556 S
C1285 C1284 1.373 . S
C1285 C1301 1.378 . S
C1286 C1284 1.389 . S
C1286 C1287 1.524 . S
C1286 C1300 1.377 . S
C1287 C1286 1.524 . S
C1287 C1288 1.397 1_565 S
C1287 C1292 1.363 . S
C1288 H1265 0.950 . S
C1288 C1287 1.397 1_545 S
C1288 C1289 1.334 . S
C1289 H1266 0.950 . S
C1289 C1288 1.334 . S
C1289 C1290 1.287 . S
C1290 C1289 1.287 . S
C1290 C1291 1.524 . S
C1290 H1309 0.913 . S
C1291 H1267 0.950 . S
C1291 C1290 1.524 . S
C1291 C1292 1.415 1_545 S
C1292 H1268 0.950 . S
C1292 C1287 1.363 . S
C1292 C1291 1.415 1_565 S
C1293 H1269 0.951 . S
C1293 C1294 1.366 . S
C1293 C1295 1.388 . S
C1294 C1293 1.366 . S
C1294 C1298 1.385 1_554 S
C1295 H1270 0.951 . S
C1295 C1293 1.388 . S
C1295 C1296 1.366 1_554 S
C1296 C1295 1.366 1_556 S
C1296 C1297 1.414 . S
C1296 C1299 1.499 . S
C1297 H1271 0.950 . S
C1297 C1296 1.414 . S
C1297 C1298 1.374 . S
C1298 H1272 0.950 . S
C1298 C1294 1.385 1_556 S
C1298 C1297 1.374 . S
C1299 C1296 1.499 . S
C1299 C1300 1.373 . S
C1299 C1301 1.390 . S
C1300 H1273 0.950 . S
C1300 C1286 1.377 . S
C1300 C1299 1.373 . S
C1301 C1285 1.378 . S
C1301 C1299 1.390 . S
C1301 C1302 1.523 1_556 S
C1302 C1301 1.523 1_554 S
C1302 C1303 1.397 1_554 S
C1302 C1307 1.363 . S
C1303 H1274 0.950 . S
C1303 C1302 1.397 1_556 S
C1303 C1304 1.334 1_556 S
C1304 H1275 0.950 1_554 S
C1304 C1303 1.334 1_554 S
C1304 C1305 1.287 . S
C1305 C1304 1.287 . S
C1305 C1306 1.524 . S
C1305 H1308 0.999 . S
C1306 H1276 0.950 . S
C1306 C1305 1.524 . S
C1306 C1307 1.415 . S
C1307 H1277 0.950 . S
C1307 C1302 1.363 . S
C1307 C1306 1.415 . S
H1308 C1305 0.999 . S
H1309 C1290 0.913 . S
H1310 C1328 0.951 . S
H1311 C1330 0.951 . S
H1312 C1332 0.950 . S
H1313 C1333 0.950 . S
H1314 C1335 0.950 . S
H1315 C1338 0.950 . S
H1316 C1339 0.950 . S
H1317 C1341 0.950 . S
H1318 C1342 0.950 . S
H1319 C1343 0.951 . S
H1320 C1345 0.951 . S
H1321 C1347 0.950 . S
H1322 C1348 0.950 . S
H1323 C1350 0.950 . S
H1324 C1353 0.950 . S
H1325 C1354 0.950 . S
H1326 C1356 0.950 . S
H1327 C1357 0.950 . S
C1328 H1310 0.951 . S
C1328 C1329 1.366 . S
C1328 C1330 1.388 . S
C1329 C1328 1.366 . S
C1329 C1333 1.385 . S
C1330 H1311 0.951 . S
C1330 C1328 1.388 . S
C1330 C1331 1.366 . S
C1331 C1330 1.366 . S
C1331 C1332 1.414 . S
C1331 C1334 1.499 . S
C1332 H1312 0.950 . S
C1332 C1331 1.414 . S
C1332 C1333 1.374 . S
C1333 H1313 0.950 . S
C1333 C1329 1.385 . S
C1333 C1332 1.374 . S
C1334 C1331 1.499 . S
C1334 C1335 1.373 . S
C1334 C1336 1.389 . S
C1335 H1314 0.950 . S
C1335 C1334 1.373 . S
C1335 C1351 1.377 . S
C1336 C1334 1.389 . S
C1336 C1337 1.524 . S
C1336 C1350 1.377 . S
C1337 C1336 1.524 . S
C1337 C1338 1.397 . S
C1337 C1342 1.363 . S
C1338 H1315 0.950 . S
C1338 C1337 1.397 . S
C1338 C1339 1.334 . S
C1339 H1316 0.950 . S
C1339 C1338 1.334 . S
C1339 C1340 1.287 . S
C1340 C1339 1.287 . S
C1340 C1341 1.524 . S
C1340 H1359 0.913 . S
C1341 H1317 0.950 . S
C1341 C1340 1.524 . S
C1341 C1342 1.415 . S
C1342 H1318 0.950 . S
C1342 C1337 1.363 . S
C1342 C1341 1.415 . S
C1343 H1319 0.951 . S
C1343 C1344 1.366 . S
C1343 C1345 1.388 . S
C1344 C1343 1.366 . S
C1344 C1348 1.385 . S
C1345 H1320 0.951 . S
C1345 C1343 1.388 . S
C1345 C1346 1.366 . S
C1346 C1345 1.366 . S
C1346 C1347 1.414 . S
C1346 C1349 1.499 . S
C1347 H1321 0.950 . S
C1347 C1346 1.414 . S
C1347 C1348 1.374 . S
C1348 H1322 0.950 . S
C1348 C1344 1.385 . S
C1348 C1347 1.374 . S
C1349 C1346 1.499 . S
C1349 C1350 1.373 . S
C1349 C1351 1.389 . S
C1350 H1323 0.950 . S
C1350 C1336 1.377 . S
C1350 C1349 1.373 . S
C1351 C1335 1.377 . S
C1351 C1349 1.389 . S
C1351 C1352 1.524 . S
C1352 C1351 1.524 . S
C1352 C1353 1.397 . S
C1352 C1357 1.363 . S
C1353 H1324 0.950 . S
C1353 C1352 1.397 . S
C1353 C1354 1.334 . S
C1354 H1325 0.950 . S
C1354 C1353 1.334 . S
C1354 C1355 1.287 . S
C1355 C1354 1.287 . S
C1355 C1356 1.524 . S
C1355 H1358 0.999 . S
C1356 H1326 0.950 . S
C1356 C1355 1.524 . S
C1356 C1357 1.415 . S
C1357 H1327 0.950 . S
C1357 C1352 1.363 . S
C1357 C1356 1.415 . S
H1358 C1355 0.999 . S
H1359 C1340 0.913 . S
H1360 C1378 0.951 . S
H1361 C1380 0.951 . S
H1362 C1382 0.950 . S
H1363 C1383 0.962 . S
H1364 C1385 0.950 . S
H1365 C1388 0.950 . S
H1366 C1389 0.950 . S
H1367 C1391 0.950 . S
H1368 C1392 0.950 . S
H1369 C1393 0.951 . S
H1370 C1395 0.951 . S
H1371 C1397 0.950 . S
H1372 C1398 0.950 . S
H1373 C1400 0.950 . S
H1374 C1403 0.950 . S
H1375 C1404 0.950 . S
H1376 C1406 0.950 . S
H1377 C1407 0.950 . S
C1378 H1360 0.951 . S
C1378 C1379 1.366 . S
C1378 C1380 1.388 . S
C1379 C1378 1.366 . S
C1379 C1383 1.385 . S
C1380 H1361 0.951 . S
C1380 C1378 1.388 . S
C1380 C1381 1.366 . S
C1381 C1380 1.366 . S
C1381 C1382 1.414 . S
C1381 C1384 1.499 . S
C1382 H1362 0.950 . S
C1382 C1381 1.414 . S
C1382 C1383 1.374 . S
C1383 H1363 0.962 . S
C1383 C1379 1.385 . S
C1383 C1382 1.374 . S
C1384 C1381 1.499 . S
C1384 C1385 1.373 . S
C1384 C1386 1.389 . S
C1385 H1364 0.950 . S
C1385 C1384 1.373 . S
C1385 C1401 1.377 . S
C1386 C1384 1.389 . S
C1386 C1387 1.524 . S
C1386 C1400 1.377 . S
C1387 C1386 1.524 . S
C1387 C1388 1.397 . S
C1387 C1392 1.363 . S
C1388 H1365 0.950 . S
C1388 C1387 1.397 . S
C1388 C1389 1.334 . S
C1389 H1366 0.950 . S
C1389 C1388 1.334 . S
C1389 C1390 1.287 . S
C1390 C1389 1.287 . S
C1390 C1391 1.524 . S
C1390 H1409 0.913 . S
C1391 H1367 0.950 . S
C1391 C1390 1.524 . S
C1391 C1392 1.415 . S
C1392 H1368 0.950 . S
C1392 C1387 1.363 . S
C1392 C1391 1.415 . S
C1393 H1369 0.951 . S
C1393 C1394 1.366 . S
C1393 C1395 1.388 . S
C1394 C1393 1.366 . S
C1394 C1398 1.385 . S
C1395 H1370 0.951 . S
C1395 C1393 1.388 . S
C1395 C1396 1.366 . S
C1396 C1395 1.366 . S
C1396 C1397 1.414 . S
C1396 C1399 1.499 . S
C1397 H1371 0.950 . S
C1397 C1396 1.414 . S
C1397 C1398 1.374 . S
C1398 H1372 0.950 . S
C1398 C1394 1.385 . S
C1398 C1397 1.374 . S
C1399 C1396 1.499 . S
C1399 C1400 1.373 . S
C1399 C1401 1.389 . S
C1400 H1373 0.950 . S
C1400 C1386 1.377 . S
C1400 C1399 1.373 . S
C1401 C1385 1.377 . S
C1401 C1399 1.389 . S
C1401 C1402 1.524 . S
C1402 C1401 1.524 . S
C1402 C1403 1.397 . S
C1402 C1407 1.363 . S
C1403 H1374 0.950 . S
C1403 C1402 1.397 . S
C1403 C1404 1.334 . S
C1404 H1375 0.950 . S
C1404 C1403 1.334 . S
C1404 C1405 1.287 . S
C1405 C1404 1.287 . S
C1405 C1406 1.524 . S
C1405 H1408 0.999 . S
C1406 H1376 0.950 . S
C1406 C1405 1.524 . S
C1406 C1407 1.415 . S
C1407 H1377 0.950 . S
C1407 C1402 1.363 . S
C1407 C1406 1.415 . S
H1408 C1405 0.999 . S
H1409 C1390 0.913 . S
H1410 C1428 0.951 . S
H1411 C1430 0.951 . S
H1412 C1432 0.950 . S
H1413 C1433 0.950 . S
H1414 C1435 0.950 . S
H1415 C1438 0.950 . S
H1416 C1439 0.950 . S
H1417 C1441 0.950 . S
H1418 C1442 0.950 . S
H1419 C1443 0.951 . S
H1420 C1445 0.951 . S
H1421 C1447 0.950 . S
H1422 C1448 0.950 . S
H1423 C1450 0.950 . S
H1424 C1453 0.950 . S
H1425 C1454 0.950 . S
H1426 C1456 0.950 . S
H1427 C1457 0.950 . S
C1428 H1410 0.951 . S
C1428 C1429 1.366 . S
C1428 C1430 1.388 . S
C1429 C1428 1.366 . S
C1429 C1433 1.385 . S
C1430 H1411 0.951 . S
C1430 C1428 1.388 . S
C1430 C1431 1.366 . S
C1431 C1430 1.366 . S
C1431 C1432 1.414 . S
C1431 C1434 1.499 . S
C1432 H1412 0.950 . S
C1432 C1431 1.414 . S
C1432 C1433 1.374 . S
C1433 H1413 0.950 . S
C1433 C1429 1.385 . S
C1433 C1432 1.374 . S
C1434 C1431 1.499 . S
C1434 C1435 1.373 . S
C1434 C1436 1.389 . S
C1435 H1414 0.950 . S
C1435 C1434 1.373 . S
C1435 C1451 1.377 . S
C1436 C1434 1.389 . S
C1436 C1437 1.524 . S
C1436 C1450 1.377 . S
C1437 C1436 1.524 . S
C1437 C1438 1.397 . S
C1437 C1442 1.363 . S
C1438 H1415 0.950 . S
C1438 C1437 1.397 . S
C1438 C1439 1.334 . S
C1439 H1416 0.950 . S
C1439 C1438 1.334 . S
C1439 C1440 1.287 . S
C1440 C1439 1.287 . S
C1440 C1441 1.524 . S
C1440 H1459 0.913 . S
C1441 H1417 0.950 . S
C1441 C1440 1.524 . S
C1441 C1442 1.415 . S
C1442 H1418 0.950 . S
C1442 C1437 1.363 . S
C1442 C1441 1.415 . S
C1443 H1419 0.951 . S
C1443 C1444 1.366 . S
C1443 C1445 1.388 . S
C1444 C1443 1.366 . S
C1444 C1448 1.385 . S
C1445 H1420 0.951 . S
C1445 C1443 1.388 . S
C1445 C1446 1.366 . S
C1446 C1445 1.366 . S
C1446 C1447 1.414 . S
C1446 C1449 1.499 . S
C1447 H1421 0.950 . S
C1447 C1446 1.414 . S
C1447 C1448 1.374 . S
C1448 H1422 0.950 . S
C1448 C1444 1.385 . S
C1448 C1447 1.374 . S
C1449 C1446 1.499 . S
C1449 C1450 1.373 . S
C1449 C1451 1.389 . S
C1450 H1423 0.950 . S
C1450 C1436 1.377 . S
C1450 C1449 1.373 . S
C1451 C1435 1.377 . S
C1451 C1449 1.389 . S
C1451 C1452 1.524 . S
C1452 C1451 1.524 . S
C1452 C1453 1.397 . S
C1452 C1457 1.363 . S
C1453 H1424 0.950 . S
C1453 C1452 1.397 . S
C1453 C1454 1.334 . S
C1454 H1425 0.950 . S
C1454 C1453 1.334 . S
C1454 C1455 1.287 . S
C1455 C1454 1.287 . S
C1455 C1456 1.524 . S
C1455 H1458 0.999 . S
C1456 H1426 0.950 . S
C1456 C1455 1.524 . S
C1456 C1457 1.415 . S
C1457 H1427 0.950 . S
C1457 C1452 1.363 . S
C1457 C1456 1.415 . S
H1458 C1455 0.999 . S
H1459 C1440 0.913 . S
H1460 C1478 0.951 . S
H1461 C1480 0.951 . S
H1462 C1482 0.950 . S
H1463 C1483 0.950 1_565 S
H1464 C1485 0.950 . S
H1465 C1488 0.950 . S
H1466 C1489 0.950 . S
H1467 C1491 0.950 . S
H1468 C1492 0.950 . S
H1469 C1493 0.951 . S
H1470 C1495 0.951 . S
H1471 C1497 0.950 . S
H1472 C1498 0.950 . S
H1473 C1500 0.950 . S
H1474 C1503 0.950 . S
H1475 C1504 0.950 . S
H1476 C1506 0.950 . S
H1477 C1507 0.950 . S
C1478 H1460 0.951 . S
C1478 C1479 1.366 . S
C1478 C1480 1.388 . S
C1479 C1478 1.366 . S
C1479 C1483 1.385 . S
C1480 H1461 0.951 . S
C1480 C1478 1.388 . S
C1480 C1481 1.366 . S
C1481 C1480 1.366 . S
C1481 C1482 1.414 . S
C1481 C1484 1.499 . S
C1482 H1462 0.950 . S
C1482 C1481 1.414 . S
C1482 C1483 1.374 . S
C1483 H1463 0.950 1_545 S
C1483 C1479 1.385 . S
C1483 C1482 1.374 . S
C1484 C1481 1.499 . S
C1484 C1485 1.373 . S
C1484 C1486 1.389 . S
C1485 H1464 0.950 . S
C1485 C1484 1.373 . S
C1485 C1501 1.377 . S
C1486 C1484 1.389 . S
C1486 C1487 1.524 . S
C1486 C1500 1.377 . S
C1487 C1486 1.524 . S
C1487 C1488 1.397 . S
C1487 C1492 1.363 . S
C1488 H1465 0.950 . S
C1488 C1487 1.397 . S
C1488 C1489 1.334 . S
C1489 H1466 0.950 . S
C1489 C1488 1.334 . S
C1489 C1490 1.287 . S
C1490 C1489 1.287 . S
C1490 C1491 1.524 . S
C1490 H1509 0.913 . S
C1491 H1467 0.950 . S
C1491 C1490 1.524 . S
C1491 C1492 1.415 . S
C1492 H1468 0.950 . S
C1492 C1487 1.363 . S
C1492 C1491 1.415 . S
C1493 H1469 0.951 . S
C1493 C1494 1.366 . S
C1493 C1495 1.388 . S
C1494 C1493 1.366 . S
C1494 C1498 1.385 . S
C1495 H1470 0.951 . S
C1495 C1493 1.388 . S
C1495 C1496 1.366 . S
C1496 C1495 1.366 . S
C1496 C1497 1.414 . S
C1496 C1499 1.499 . S
C1497 H1471 0.950 . S
C1497 C1496 1.414 . S
C1497 C1498 1.374 . S
C1498 H1472 0.950 . S
C1498 C1494 1.385 . S
C1498 C1497 1.374 . S
C1499 C1496 1.499 . S
C1499 C1500 1.373 . S
C1499 C1501 1.389 . S
C1500 H1473 0.950 . S
C1500 C1486 1.377 . S
C1500 C1499 1.373 . S
C1501 C1485 1.377 . S
C1501 C1499 1.389 . S
C1501 C1502 1.524 . S
C1502 C1501 1.524 . S
C1502 C1503 1.397 . S
C1502 C1507 1.363 . S
C1503 H1474 0.950 . S
C1503 C1502 1.397 . S
C1503 C1504 1.334 . S
C1504 H1475 0.950 . S
C1504 C1503 1.334 . S
C1504 C1505 1.287 . S
C1505 C1504 1.287 . S
C1505 C1506 1.524 . S
C1505 H1508 0.999 . S
C1506 H1476 0.950 . S
C1506 C1505 1.524 . S
C1506 C1507 1.415 . S
C1507 H1477 0.950 . S
C1507 C1502 1.363 . S
C1507 C1506 1.415 . S
H1508 C1505 0.999 . S
H1509 C1490 0.913 . S
H1510 C1528 0.951 . S
H1511 C1530 0.951 . S
H1512 C1532 0.950 . S
H1513 C1533 0.950 . S
H1514 C1535 0.950 . S
H1515 C1538 0.950 . S
H1516 C1539 0.950 . S
H1517 C1541 0.950 . S
H1518 C1542 0.950 . S
H1519 C1543 0.951 . S
H1520 C1545 0.951 . S
H1521 C1547 0.950 . S
H1522 C1548 0.950 . S
H1523 C1550 0.950 . S
H1524 C1553 0.950 . S
H1525 C1554 0.950 . S
H1526 C1556 0.950 . S
H1527 C1557 0.950 . S
C1528 H1510 0.951 . S
C1528 C1529 1.366 . S
C1528 C1530 1.388 . S
C1529 C1528 1.366 . S
C1529 C1533 1.385 . S
C1530 H1511 0.951 . S
C1530 C1528 1.388 . S
C1530 C1531 1.366 . S
C1531 C1530 1.366 . S
C1531 C1532 1.414 . S
C1531 C1534 1.499 . S
C1532 H1512 0.950 . S
C1532 C1531 1.414 . S
C1532 C1533 1.374 . S
C1533 H1513 0.950 . S
C1533 C1529 1.385 . S
C1533 C1532 1.374 . S
C1534 C1531 1.499 . S
C1534 C1535 1.373 . S
C1534 C1536 1.389 . S
C1535 H1514 0.950 . S
C1535 C1534 1.373 . S
C1535 C1551 1.377 . S
C1536 C1534 1.389 . S
C1536 C1537 1.524 . S
C1536 C1550 1.377 . S
C1537 C1536 1.524 . S
C1537 C1538 1.397 . S
C1537 C1542 1.363 . S
C1538 H1515 0.950 . S
C1538 C1537 1.397 . S
C1538 C1539 1.334 . S
C1539 H1516 0.950 . S
C1539 C1538 1.334 . S
C1539 C1540 1.287 . S
C1540 C1539 1.287 . S
C1540 C1541 1.524 . S
C1540 H1559 0.913 . S
C1541 H1517 0.950 . S
C1541 C1540 1.524 . S
C1541 C1542 1.415 . S
C1542 H1518 0.950 . S
C1542 C1537 1.363 . S
C1542 C1541 1.415 . S
C1543 H1519 0.951 . S
C1543 C1544 1.366 . S
C1543 C1545 1.388 . S
C1544 C1543 1.366 . S
C1544 C1548 1.385 . S
C1545 H1520 0.951 . S
C1545 C1543 1.388 . S
C1545 C1546 1.366 . S
C1546 C1545 1.366 . S
C1546 C1547 1.414 . S
C1546 C1549 1.499 . S
C1547 H1521 0.950 . S
C1547 C1546 1.414 . S
C1547 C1548 1.374 . S
C1548 H1522 0.950 . S
C1548 C1544 1.385 . S
C1548 C1547 1.374 . S
C1549 C1546 1.499 . S
C1549 C1550 1.373 . S
C1549 C1551 1.389 . S
C1550 H1523 0.950 . S
C1550 C1536 1.377 . S
C1550 C1549 1.373 . S
C1551 C1535 1.377 . S
C1551 C1549 1.389 . S
C1551 C1552 1.524 . S
C1552 C1551 1.524 . S
C1552 C1553 1.397 . S
C1552 C1557 1.363 . S
C1553 H1524 0.950 . S
C1553 C1552 1.397 . S
C1553 C1554 1.334 . S
C1554 H1525 0.950 . S
C1554 C1553 1.334 . S
C1554 C1555 1.287 . S
C1555 C1554 1.287 . S
C1555 C1556 1.524 . S
C1555 H1558 0.999 . S
C1556 H1526 0.950 . S
C1556 C1555 1.524 . S
C1556 C1557 1.415 . S
C1557 H1527 0.950 . S
C1557 C1552 1.363 . S
C1557 C1556 1.415 . S
H1558 C1555 0.999 . S
H1559 C1540 0.913 . S
H1560 C1578 0.951 . S
H1561 C1580 0.951 . S
H1562 C1582 0.950 . S
H1563 C1583 0.950 . S
H1564 C1585 0.950 . S
H1565 C1588 0.950 . S
H1566 C1589 0.950 . S
H1567 C1591 0.950 . S
H1568 C1592 0.950 . S
H1569 C1593 0.951 . S
H1570 C1595 0.951 . S
H1571 C1597 0.950 . S
H1572 C1598 0.950 . S
H1573 C1600 0.950 . S
H1574 C1603 0.950 . S
H1575 C1604 0.950 . S
H1576 C1606 0.950 . S
H1577 C1607 0.950 . S
C1578 H1560 0.951 . S
C1578 C1579 1.366 . S
C1578 C1580 1.388 . S
C1579 C1578 1.366 . S
C1579 C1583 1.385 . S
C1580 H1561 0.951 . S
C1580 C1578 1.388 . S
C1580 C1581 1.366 . S
C1581 C1580 1.366 . S
C1581 C1582 1.414 . S
C1581 C1584 1.499 . S
C1582 H1562 0.950 . S
C1582 C1581 1.414 . S
C1582 C1583 1.374 . S
C1583 H1563 0.950 . S
C1583 C1579 1.385 . S
C1583 C1582 1.374 . S
C1584 C1581 1.499 . S
C1584 C1585 1.373 . S
C1584 C1586 1.389 . S
C1585 H1564 0.950 . S
C1585 C1584 1.373 . S
C1585 C1601 1.377 . S
C1586 C1584 1.389 . S
C1586 C1587 1.524 . S
C1586 C1600 1.377 . S
C1587 C1586 1.524 . S
C1587 C1588 1.397 . S
C1587 C1592 1.363 . S
C1588 H1565 0.950 . S
C1588 C1587 1.397 . S
C1588 C1589 1.334 . S
C1589 H1566 0.950 . S
C1589 C1588 1.334 . S
C1589 C1590 1.287 . S
C1590 C1589 1.287 . S
C1590 C1591 1.524 . S
C1590 H1609 0.913 . S
C1591 H1567 0.950 . S
C1591 C1590 1.524 . S
C1591 C1592 1.415 . S
C1592 H1568 0.950 . S
C1592 C1587 1.363 . S
C1592 C1591 1.415 . S
C1593 H1569 0.951 . S
C1593 C1594 1.366 . S
C1593 C1595 1.388 . S
C1594 C1593 1.366 . S
C1594 C1598 1.385 . S
C1595 H1570 0.951 . S
C1595 C1593 1.388 . S
C1595 C1596 1.366 . S
C1596 C1595 1.366 . S
C1596 C1597 1.414 . S
C1596 C1599 1.499 . S
C1597 H1571 0.950 . S
C1597 C1596 1.414 . S
C1597 C1598 1.374 . S
C1598 H1572 0.950 . S
C1598 C1594 1.385 . S
C1598 C1597 1.374 . S
C1599 C1596 1.499 . S
C1599 C1600 1.373 . S
C1599 C1601 1.389 . S
C1600 H1573 0.950 . S
C1600 C1586 1.377 . S
C1600 C1599 1.373 . S
C1601 C1585 1.377 . S
C1601 C1599 1.389 . S
C1601 C1602 1.524 . S
C1602 C1601 1.524 . S
C1602 C1603 1.397 . S
C1602 C1607 1.363 . S
C1603 H1574 0.950 . S
C1603 C1602 1.397 . S
C1603 C1604 1.334 . S
C1604 H1575 0.950 . S
C1604 C1603 1.334 . S
C1604 C1605 1.287 . S
C1605 C1604 1.287 . S
C1605 C1606 1.524 . S
C1605 H1608 0.999 . S
C1606 H1576 0.950 . S
C1606 C1605 1.524 . S
C1606 C1607 1.415 . S
C1607 H1577 0.950 . S
C1607 C1602 1.363 . S
C1607 C1606 1.415 . S
H1608 C1605 0.999 . S
H1609 C1590 0.913 . S
H1610 C1628 0.951 . S
H1611 C1630 0.951 . S
H1612 C1632 0.950 . S
H1613 C1633 0.950 . S
H1614 C1635 0.950 . S
H1615 C1638 0.950 . S
H1616 C1639 0.950 . S
H1617 C1641 0.950 . S
H1618 C1642 0.950 . S
H1619 C1643 0.955 . S
H1620 C1645 0.951 . S
H1621 C1647 0.950 . S
H1622 C1648 0.950 . S
H1623 C1650 0.950 . S
H1624 C1653 0.950 . S
H1625 C1654 0.950 . S
H1626 C1656 0.950 . S
H1627 C1657 0.950 . S
C1628 H1610 0.951 . S
C1628 C1629 1.366 . S
C1628 C1630 1.388 . S
C1629 C1628 1.366 . S
C1629 C1633 1.385 . S
C1630 H1611 0.951 . S
C1630 C1628 1.388 . S
C1630 C1631 1.366 . S
C1631 C1630 1.366 . S
C1631 C1632 1.414 . S
C1631 C1634 1.499 . S
C1632 H1612 0.950 . S
C1632 C1631 1.414 . S
C1632 C1633 1.374 . S
C1633 H1613 0.950 . S
C1633 C1629 1.385 . S
C1633 C1632 1.374 . S
C1634 C1631 1.499 . S
C1634 C1635 1.373 1_545 S
C1634 C1636 1.389 . S
C1635 H1614 0.950 . S
C1635 C1634 1.373 1_565 S
C1635 C1651 1.377 . S
C1636 C1634 1.389 . S
C1636 C1637 1.524 . S
C1636 C1650 1.377 . S
C1637 C1636 1.524 . S
C1637 C1638 1.397 . S
C1637 C1642 1.363 . S
C1638 H1615 0.950 . S
C1638 C1637 1.397 . S
C1638 C1639 1.334 . S
C1639 H1616 0.950 . S
C1639 C1638 1.334 . S
C1639 C1640 1.287 . S
C1640 C1639 1.287 . S
C1640 C1641 1.524 . S
C1640 H1659 0.913 . S
C1641 H1617 0.950 . S
C1641 C1640 1.524 . S
C1641 C1642 1.415 . S
C1642 H1618 0.950 . S
C1642 C1637 1.363 . S
C1642 C1641 1.415 . S
C1643 H1619 0.955 . S
C1643 C1644 1.366 . S
C1643 C1645 1.388 . S
C1644 C1643 1.366 . S
C1644 C1648 1.385 . S
C1645 H1620 0.951 . S
C1645 C1643 1.388 . S
C1645 C1646 1.366 . S
C1646 C1645 1.366 . S
C1646 C1647 1.414 . S
C1646 C1649 1.499 . S
C1647 H1621 0.950 . S
C1647 C1646 1.414 . S
C1647 C1648 1.374 . S
C1648 H1622 0.950 . S
C1648 C1644 1.385 . S
C1648 C1647 1.374 . S
C1649 C1646 1.499 . S
C1649 C1650 1.373 . S
C1649 C1651 1.389 1_545 S
C1650 H1623 0.950 . S
C1650 C1636 1.377 . S
C1650 C1649 1.373 . S
C1651 C1635 1.377 . S
C1651 C1649 1.389 1_565 S
C1651 C1652 1.524 . S
C1652 C1651 1.524 . S
C1652 C1653 1.397 . S
C1652 C1657 1.363 . S
C1653 H1624 0.950 . S
C1653 C1652 1.397 . S
C1653 C1654 1.334 . S
C1654 H1625 0.950 . S
C1654 C1653 1.334 . S
C1654 C1655 1.287 . S
C1655 C1654 1.287 . S
C1655 C1656 1.524 . S
C1655 H1658 0.999 . S
C1656 H1626 0.950 . S
C1656 C1655 1.524 . S
C1656 C1657 1.415 . S
C1657 H1627 0.950 . S
C1657 C1652 1.363 . S
C1657 C1656 1.415 . S
H1658 C1655 0.999 . S
H1659 C1640 0.913 . S
H1660 C1678 0.951 . S
H1661 C1680 0.951 . S
H1662 C1682 0.950 . S
H1663 C1683 0.950 . S
H1664 C1685 0.950 . S
H1665 C1688 0.950 . S
H1666 C1689 0.950 . S
H1667 C1691 0.950 . S
H1668 C1692 0.950 . S
H1669 C1693 0.951 . S
H1670 C1695 0.951 . S
H1671 C1697 0.950 . S
H1672 C1698 0.950 . S
H1673 C1700 0.950 . S
H1674 C1703 0.950 . S
H1675 C1704 0.950 . S
H1676 C1706 0.950 . S
H1677 C1707 0.950 . S
C1678 H1660 0.951 . S
C1678 C1679 1.366 . S
C1678 C1680 1.388 . S
C1679 C1678 1.366 . S
C1679 C1683 1.385 . S
C1680 H1661 0.951 . S
C1680 C1678 1.388 . S
C1680 C1681 1.366 . S
C1681 C1680 1.366 . S
C1681 C1682 1.414 . S
C1681 C1684 1.499 . S
C1682 H1662 0.950 . S
C1682 C1681 1.414 . S
C1682 C1683 1.374 . S
C1683 H1663 0.950 . S
C1683 C1679 1.385 . S
C1683 C1682 1.374 . S
C1684 C1681 1.499 . S
C1684 C1685 1.373 . S
C1684 C1686 1.389 . S
C1685 H1664 0.950 . S
C1685 C1684 1.373 . S
C1685 C1701 1.377 . S
C1686 C1684 1.389 . S
C1686 C1687 1.524 . S
C1686 C1700 1.377 . S
C1687 C1686 1.524 . S
C1687 C1688 1.397 . S
C1687 C1692 1.363 . S
C1688 H1665 0.950 . S
C1688 C1687 1.397 . S
C1688 C1689 1.334 . S
C1689 H1666 0.950 . S
C1689 C1688 1.334 . S
C1689 C1690 1.287 . S
C1690 C1689 1.287 . S
C1690 C1691 1.524 . S
C1690 H1709 0.913 . S
C1691 H1667 0.950 . S
C1691 C1690 1.524 . S
C1691 C1692 1.415 . S
C1692 H1668 0.950 . S
C1692 C1687 1.363 . S
C1692 C1691 1.415 . S
C1693 H1669 0.951 . S
C1693 C1694 1.366 . S
C1693 C1695 1.388 . S
C1694 C1693 1.366 . S
C1694 C1698 1.385 . S
C1695 H1670 0.951 . S
C1695 C1693 1.388 . S
C1695 C1696 1.366 . S
C1696 C1695 1.366 . S
C1696 C1697 1.414 . S
C1696 C1699 1.499 . S
C1697 H1671 0.950 . S
C1697 C1696 1.414 . S
C1697 C1698 1.374 . S
C1698 H1672 0.950 . S
C1698 C1694 1.385 . S
C1698 C1697 1.374 . S
C1699 C1696 1.499 . S
C1699 C1700 1.373 . S
C1699 C1701 1.389 . S
C1700 H1673 0.950 . S
C1700 C1686 1.377 . S
C1700 C1699 1.373 . S
C1701 C1685 1.377 . S
C1701 C1699 1.389 . S
C1701 C1702 1.524 . S
C1702 C1701 1.524 . S
C1702 C1703 1.397 . S
C1702 C1707 1.363 . S
C1703 H1674 0.950 . S
C1703 C1702 1.397 . S
C1703 C1704 1.334 . S
C1704 H1675 0.950 . S
C1704 C1703 1.334 . S
C1704 C1705 1.287 . S
C1705 C1704 1.287 . S
C1705 C1706 1.524 . S
C1705 H1708 0.999 . S
C1706 H1676 0.950 . S
C1706 C1705 1.524 . S
C1706 C1707 1.415 . S
C1707 H1677 0.950 . S
C1707 C1702 1.363 . S
C1707 C1706 1.415 . S
H1708 C1705 0.999 . S
H1709 C1690 0.913 . S
H1710 C1728 0.951 . S
H1711 C1730 0.951 . S
H1712 C1732 0.950 . S
H1713 C1733 0.950 . S
H1714 C1735 0.950 . S
H1715 C1738 0.950 . S
H1716 C1739 0.950 . S
H1717 C1741 0.950 . S
H1718 C1742 0.950 . S
H1719 C1743 0.951 . S
H1720 C1745 0.951 . S
H1721 C1747 0.950 . S
H1722 C1748 0.950 . S
H1723 C1750 0.950 . S
H1724 C1753 0.950 . S
H1725 C1754 0.950 . S
H1726 C1756 0.950 . S
H1727 C1757 0.950 . S
C1728 H1710 0.951 . S
C1728 C1729 1.366 . S
C1728 C1730 1.388 . S
C1729 C1728 1.366 . S
C1729 C1733 1.385 . S
C1730 H1711 0.951 . S
C1730 C1728 1.388 . S
C1730 C1731 1.366 . S
C1731 C1730 1.366 . S
C1731 C1732 1.414 . S
C1731 C1734 1.499 . S
C1732 H1712 0.950 . S
C1732 C1731 1.414 . S
C1732 C1733 1.374 . S
C1733 H1713 0.950 . S
C1733 C1729 1.385 . S
C1733 C1732 1.374 . S
C1734 C1731 1.499 . S
C1734 C1735 1.373 . S
C1734 C1736 1.389 . S
C1735 H1714 0.950 . S
C1735 C1734 1.373 . S
C1735 C1751 1.377 . S
C1736 C1734 1.389 . S
C1736 C1737 1.524 . S
C1736 C1750 1.377 . S
C1737 C1736 1.524 . S
C1737 C1738 1.397 . S
C1737 C1742 1.363 . S
C1738 H1715 0.950 . S
C1738 C1737 1.397 . S
C1738 C1739 1.334 . S
C1739 H1716 0.950 . S
C1739 C1738 1.334 . S
C1739 C1740 1.287 . S
C1740 C1739 1.287 . S
C1740 C1741 1.524 . S
C1740 H1759 0.913 . S
C1741 H1717 0.950 . S
C1741 C1740 1.524 . S
C1741 C1742 1.415 . S
C1742 H1718 0.950 . S
C1742 C1737 1.363 . S
C1742 C1741 1.415 . S
C1743 H1719 0.951 . S
C1743 C1744 1.366 . S
C1743 C1745 1.388 . S
C1744 C1743 1.366 . S
C1744 C1748 1.385 . S
C1745 H1720 0.951 . S
C1745 C1743 1.388 . S
C1745 C1746 1.366 . S
C1746 C1745 1.366 . S
C1746 C1747 1.414 . S
C1746 C1749 1.499 . S
C1747 H1721 0.950 . S
C1747 C1746 1.414 . S
C1747 C1748 1.374 . S
C1748 H1722 0.950 . S
C1748 C1744 1.385 . S
C1748 C1747 1.374 . S
C1749 C1746 1.499 . S
C1749 C1750 1.373 . S
C1749 C1751 1.389 . S
C1750 H1723 0.950 . S
C1750 C1736 1.377 . S
C1750 C1749 1.373 . S
C1751 C1735 1.377 . S
C1751 C1749 1.389 . S
C1751 C1752 1.524 . S
C1752 C1751 1.524 . S
C1752 C1753 1.397 . S
C1752 C1757 1.363 . S
C1753 H1724 0.950 . S
C1753 C1752 1.397 . S
C1753 C1754 1.334 . S
C1754 H1725 0.950 . S
C1754 C1753 1.334 . S
C1754 C1755 1.287 . S
C1755 C1754 1.287 . S
C1755 C1756 1.524 . S
C1755 H1758 0.999 . S
C1756 H1726 0.950 . S
C1756 C1755 1.524 . S
C1756 C1757 1.415 . S
C1757 H1727 0.950 . S
C1757 C1752 1.363 . S
C1757 C1756 1.415 . S
H1758 C1755 0.999 . S
H1759 C1740 0.913 . S
H1760 C1778 0.951 . S
H1761 C1780 0.951 . S
H1762 C1782 0.950 . S
H1763 C1783 0.950 . S
H1764 C1785 0.950 . S
H1765 C1788 0.950 . S
H1766 C1789 0.950 . S
H1767 C1791 0.950 . S
H1768 C1792 0.950 . S
H1769 C1793 0.951 . S
H1770 C1795 0.951 . S
H1771 C1797 0.950 . S
H1772 C1798 0.950 . S
H1773 C1800 0.950 . S
H1774 C1803 0.950 . S
H1775 C1804 0.950 . S
H1776 C1806 0.950 . S
H1777 C1807 0.950 . S
C1778 H1760 0.951 . S
C1778 C1779 1.366 . S
C1778 C1780 1.388 . S
C1779 C1778 1.366 . S
C1779 C1783 1.385 . S
C1780 H1761 0.951 . S
C1780 C1778 1.388 . S
C1780 C1781 1.366 . S
C1781 C1780 1.366 . S
C1781 C1782 1.414 . S
C1781 C1784 1.499 . S
C1782 H1762 0.950 . S
C1782 C1781 1.414 . S
C1782 C1783 1.374 . S
C1783 H1763 0.950 . S
C1783 C1779 1.385 . S
C1783 C1782 1.374 . S
C1784 C1781 1.499 . S
C1784 C1785 1.373 . S
C1784 C1786 1.389 . S
C1785 H1764 0.950 . S
C1785 C1784 1.373 . S
C1785 C1801 1.377 . S
C1786 C1784 1.389 . S
C1786 C1787 1.524 . S
C1786 C1800 1.377 . S
C1787 C1786 1.524 . S
C1787 C1788 1.397 . S
C1787 C1792 1.363 . S
C1788 H1765 0.950 . S
C1788 C1787 1.397 . S
C1788 C1789 1.334 . S
C1789 H1766 0.950 . S
C1789 C1788 1.334 . S
C1789 C1790 1.287 . S
C1790 C1789 1.287 . S
C1790 C1791 1.524 . S
C1790 H1809 0.913 . S
C1791 H1767 0.950 . S
C1791 C1790 1.524 . S
C1791 C1792 1.415 . S
C1792 H1768 0.950 . S
C1792 C1787 1.363 . S
C1792 C1791 1.415 . S
C1793 H1769 0.951 . S
C1793 C1794 1.366 . S
C1793 C1795 1.388 . S
C1794 C1793 1.366 . S
C1794 C1798 1.385 . S
C1795 H1770 0.951 . S
C1795 C1793 1.388 . S
C1795 C1796 1.366 . S
C1796 C1795 1.366 . S
C1796 C1797 1.414 . S
C1796 C1799 1.499 . S
C1797 H1771 0.950 . S
C1797 C1796 1.414 . S
C1797 C1798 1.374 . S
C1798 H1772 0.950 . S
C1798 C1794 1.385 . S
C1798 C1797 1.374 . S
C1799 C1796 1.499 . S
C1799 C1800 1.373 . S
C1799 C1801 1.389 . S
C1800 H1773 0.950 . S
C1800 C1786 1.377 . S
C1800 C1799 1.373 . S
C1801 C1785 1.377 . S
C1801 C1799 1.389 . S
C1801 C1802 1.524 . S
C1802 C1801 1.524 . S
C1802 C1803 1.397 . S
C1802 C1807 1.363 . S
C1803 H1774 0.950 . S
C1803 C1802 1.397 . S
C1803 C1804 1.334 . S
C1804 H1775 0.950 . S
C1804 C1803 1.334 . S
C1804 C1805 1.287 . S
C1805 C1804 1.287 . S
C1805 C1806 1.524 . S
C1805 H1808 0.999 . S
C1806 H1776 0.950 . S
C1806 C1805 1.524 . S
C1806 C1807 1.415 . S
C1807 H1777 0.950 . S
C1807 C1802 1.363 . S
C1807 C1806 1.415 . S
H1808 C1805 0.999 . S
H1809 C1790 0.913 . S
H1810 C1828 0.951 . S
H1811 C1830 0.951 . S
H1812 C1832 0.950 . S
H1813 C1833 0.950 1_655 S
H1814 C1835 0.950 . S
H1815 C1838 0.954 1_655 S
H1816 C1839 0.950 . S
H1817 C1841 0.950 . S
H1818 C1842 0.950 . S
H1819 C1843 0.951 . S
H1820 C1845 0.951 . S
H1821 C1847 0.950 1_455 S
H1822 C1848 0.950 . S
H1823 C1850 0.950 1_455 S
H1824 C1853 0.950 . S
H1825 C1854 0.950 . S
H1826 C1856 0.950 . S
H1827 C1857 0.950 . S
C1828 H1810 0.951 . S
C1828 C1829 1.366 . S
C1828 C1830 1.388 . S
C1829 C1828 1.366 . S
C1829 C1833 1.385 . S
C1830 H1811 0.951 . S
C1830 C1828 1.388 . S
C1830 C1831 1.366 . S
C1831 C1830 1.366 . S
C1831 C1832 1.414 1_455 S
C1831 C1834 1.499 1_455 S
C1832 H1812 0.950 . S
C1832 C1831 1.414 1_655 S
C1832 C1833 1.374 1_655 S
C1833 H1813 0.950 1_455 S
C1833 C1829 1.385 . S
C1833 C1832 1.374 1_455 S
C1834 C1831 1.499 1_655 S
C1834 C1835 1.373 . S
C1834 C1836 1.389 1_655 S
C1835 H1814 0.950 . S
C1835 C1834 1.373 . S
C1835 C1851 1.377 . S
C1836 C1834 1.389 1_455 S
C1836 C1837 1.524 . S
C1836 C1850 1.377 1_455 S
C1837 C1836 1.524 . S
C1837 C1838 1.397 1_545 S
C1837 C1842 1.363 . S
C1838 H1815 0.954 1_455 S
C1838 C1837 1.397 1_565 S
C1838 C1839 1.334 . S
C1839 H1816 0.950 . S
C1839 C1838 1.334 . S
C1839 C1840 1.287 . S
C1840 C1839 1.287 . S
C1840 C1841 1.524 . S
C1840 H1859 0.913 . S
C1841 H1817 0.950 . S
C1841 C1840 1.524 . S
C1841 C1842 1.415 1_565 S
C1842 H1818 0.950 . S
C1842 C1837 1.363 . S
C1842 C1841 1.415 1_545 S
C1843 H1819 0.951 . S
C1843 C1844 1.366 . S
C1843 C1845 1.388 . S
C1844 C1843 1.366 . S
C1844 C1848 1.385 . S
C1845 H1820 0.951 . S
C1845 C1843 1.388 . S
C1845 C1846 1.366 . S
C1846 C1845 1.366 . S
C1846 C1847 1.414 . S
C1846 C1849 1.499 . S
C1847 H1821 0.950 1_655 S
C1847 C1846 1.414 . S
C1847 C1848 1.374 . S
C1848 H1822 0.950 . S
C1848 C1844 1.385 . S
C1848 C1847 1.374 . S
C1849 C1846 1.499 . S
C1849 C1850 1.373 . S
C1849 C1851 1.389 . S
C1850 H1823 0.950 1_655 S
C1850 C1836 1.377 1_655 S
C1850 C1849 1.373 . S
C1851 C1835 1.377 . S
C1851 C1849 1.389 . S
C1851 C1852 1.524 . S
C1852 C1851 1.524 . S
C1852 C1853 1.397 . S
C1852 C1857 1.363 . S
C1853 H1824 0.950 . S
C1853 C1852 1.397 . S
C1853 C1854 1.334 . S
C1854 H1825 0.950 . S
C1854 C1853 1.334 . S
C1854 C1855 1.287 . S
C1855 C1854 1.287 . S
C1855 C1856 1.524 . S
C1855 H1858 0.999 . S
C1856 H1826 0.950 . S
C1856 C1855 1.524 . S
C1856 C1857 1.415 . S
C1857 H1827 0.950 . S
C1857 C1852 1.363 . S
C1857 C1856 1.415 . S
H1858 C1855 0.999 . S
H1859 C1840 0.913 . S
H1860 C1878 0.951 . S
H1861 C1880 0.951 . S
H1862 C1882 0.950 . S
H1863 C1883 0.950 . S
H1864 C1885 0.950 . S
H1865 C1888 0.950 . S
H1866 C1889 0.950 . S
H1867 C1891 0.950 . S
H1868 C1892 0.950 . S
H1869 C1893 0.951 . S
H1870 C1895 0.951 . S
H1871 C1897 0.950 . S
H1872 C1898 0.950 . S
H1873 C1900 0.950 . S
H1874 C1903 0.950 . S
H1875 C1904 0.950 . S
H1876 C1906 0.950 . S
H1877 C1907 0.950 . S
C1878 H1860 0.951 . S
C1878 C1879 1.366 . S
C1878 C1880 1.388 . S
C1879 C1878 1.366 . S
C1879 C1883 1.385 . S
C1880 H1861 0.951 . S
C1880 C1878 1.388 . S
C1880 C1881 1.366 . S
C1881 C1880 1.366 . S
C1881 C1882 1.414 . S
C1881 C1884 1.499 . S
C1882 H1862 0.950 . S
C1882 C1881 1.414 . S
C1882 C1883 1.374 . S
C1883 H1863 0.950 . S
C1883 C1879 1.385 . S
C1883 C1882 1.374 . S
C1884 C1881 1.499 . S
C1884 C1885 1.373 . S
C1884 C1886 1.389 . S
C1885 H1864 0.950 . S
C1885 C1884 1.373 . S
C1885 C1901 1.377 . S
C1886 C1884 1.389 . S
C1886 C1887 1.524 . S
C1886 C1900 1.377 . S
C1887 C1886 1.524 . S
C1887 C1888 1.397 . S
C1887 C1892 1.363 . S
C1888 H1865 0.950 . S
C1888 C1887 1.397 . S
C1888 C1889 1.334 . S
C1889 H1866 0.950 . S
C1889 C1888 1.334 . S
C1889 C1890 1.287 . S
C1890 C1889 1.287 . S
C1890 C1891 1.524 . S
C1890 H1909 0.913 . S
C1891 H1867 0.950 . S
C1891 C1890 1.524 . S
C1891 C1892 1.415 . S
C1892 H1868 0.950 . S
C1892 C1887 1.363 . S
C1892 C1891 1.415 . S
C1893 H1869 0.951 . S
C1893 C1894 1.366 . S
C1893 C1895 1.388 . S
C1894 C1893 1.366 . S
C1894 C1898 1.385 . S
C1895 H1870 0.951 . S
C1895 C1893 1.388 . S
C1895 C1896 1.366 . S
C1896 C1895 1.366 . S
C1896 C1897 1.414 . S
C1896 C1899 1.499 . S
C1897 H1871 0.950 . S
C1897 C1896 1.414 . S
C1897 C1898 1.374 . S
C1898 H1872 0.950 . S
C1898 C1894 1.385 . S
C1898 C1897 1.374 . S
C1899 C1896 1.499 . S
C1899 C1900 1.373 . S
C1899 C1901 1.389 . S
C1900 H1873 0.950 . S
C1900 C1886 1.377 . S
C1900 C1899 1.373 . S
C1901 C1885 1.377 . S
C1901 C1899 1.389 . S
C1901 C1902 1.524 . S
C1902 C1901 1.524 . S
C1902 C1903 1.397 . S
C1902 C1907 1.363 . S
C1903 H1874 0.950 . S
C1903 C1902 1.397 . S
C1903 C1904 1.334 . S
C1904 H1875 0.950 . S
C1904 C1903 1.334 . S
C1904 C1905 1.287 . S
C1905 C1904 1.287 . S
C1905 C1906 1.524 . S
C1905 H1908 0.999 . S
C1906 H1876 0.950 . S
C1906 C1905 1.524 . S
C1906 C1907 1.415 . S
C1907 H1877 0.950 . S
C1907 C1902 1.363 . S
C1907 C1906 1.415 . S
H1908 C1905 0.999 . S
H1909 C1890 0.913 . S
H1910 C1928 0.951 . S
H1911 C1930 0.951 . S
H1912 C1932 0.950 . S
H1913 C1933 0.942 1_655 S
H1914 C1935 0.950 . S
H1915 C1938 0.950 . S
H1916 C1939 0.950 . S
H1917 C1941 0.950 . S
H1918 C1942 0.950 . S
H1919 C1943 0.951 . S
H1920 C1945 0.951 . S
H1921 C1947 0.950 . S
H1922 C1948 0.950 . S
H1923 C1950 0.950 . S
H1924 C1953 0.950 . S
H1925 C1954 0.950 . S
H1926 C1956 0.950 1_655 S
H1927 C1957 0.950 . S
C1928 H1910 0.951 . S
C1928 C1929 1.366 . S
C1928 C1930 1.388 . S
C1929 C1928 1.366 . S
C1929 C1933 1.388 . S
C1930 H1911 0.951 . S
C1930 C1928 1.388 . S
C1930 C1931 1.366 . S
C1931 C1930 1.366 . S
C1931 C1932 1.414 . S
C1931 C1934 1.499 . S
C1932 H1912 0.950 . S
C1932 C1931 1.414 . S
C1932 C1933 1.378 . S
C1933 H1913 0.942 1_455 S
C1933 C1929 1.388 . S
C1933 C1932 1.378 . S
C1934 C1931 1.499 . S
C1934 C1935 1.373 . S
C1934 C1936 1.389 . S
C1935 H1914 0.950 . S
C1935 C1934 1.373 . S
C1935 C1951 1.377 . S
C1936 C1934 1.389 . S
C1936 C1937 1.524 . S
C1936 C1950 1.377 . S
C1937 C1936 1.524 . S
C1937 C1938 1.397 . S
C1937 C1942 1.363 . S
C1938 H1915 0.950 . S
C1938 C1937 1.397 . S
C1938 C1939 1.334 . S
C1939 H1916 0.950 . S
C1939 C1938 1.334 . S
C1939 C1940 1.287 . S
C1940 C1939 1.287 . S
C1940 C1941 1.524 . S
C1940 H1959 0.913 . S
C1941 H1917 0.950 . S
C1941 C1940 1.524 . S
C1941 C1942 1.415 . S
C1942 H1918 0.950 . S
C1942 C1937 1.363 . S
C1942 C1941 1.415 . S
C1943 H1919 0.951 . S
C1943 C1944 1.366 . S
C1943 C1945 1.388 . S
C1944 C1943 1.366 . S
C1944 C1948 1.385 . S
C1945 H1920 0.951 . S
C1945 C1943 1.388 . S
C1945 C1946 1.366 . S
C1946 C1945 1.366 . S
C1946 C1947 1.414 . S
C1946 C1949 1.499 . S
C1947 H1921 0.950 . S
C1947 C1946 1.414 . S
C1947 C1948 1.374 . S
C1948 H1922 0.950 . S
C1948 C1944 1.385 . S
C1948 C1947 1.374 . S
C1949 C1946 1.499 . S
C1949 C1950 1.373 . S
C1949 C1951 1.389 . S
C1950 H1923 0.950 . S
C1950 C1936 1.377 . S
C1950 C1949 1.373 . S
C1951 C1935 1.377 . S
C1951 C1949 1.389 . S
C1951 C1952 1.524 . S
C1952 C1951 1.524 . S
C1952 C1953 1.397 . S
C1952 C1957 1.363 . S
C1953 H1924 0.950 . S
C1953 C1952 1.397 . S
C1953 C1954 1.334 . S
C1954 H1925 0.950 . S
C1954 C1953 1.334 . S
C1954 C1955 1.287 . S
C1955 C1954 1.287 . S
C1955 C1956 1.524 . S
C1955 H1958 0.999 . S
C1956 H1926 0.950 1_455 S
C1956 C1955 1.524 . S
C1956 C1957 1.415 . S
C1957 H1927 0.950 . S
C1957 C1952 1.363 . S
C1957 C1956 1.415 . S
H1958 C1955 0.999 . S
H1959 C1940 0.913 . S
H1960 C1978 0.951 . S
H1961 C1980 0.951 . S
H1962 C1982 0.950 . S
H1963 C1983 0.950 . S
H1964 C1985 0.950 . S
H1965 C1988 0.950 . S
H1966 C1989 0.950 . S
H1967 C1991 0.950 . S
H1968 C1992 0.950 . S
H1969 C1993 0.951 . S
H1970 C1995 0.951 . S
H1971 C1997 0.950 . S
H1972 C1998 0.950 . S
H1973 C2000 0.950 . S
H1974 C2003 0.950 . S
H1975 C2004 0.950 . S
H1976 C2006 0.950 . S
H1977 C2007 0.950 . S
C1978 H1960 0.951 . S
C1978 C1979 1.366 . S
C1978 C1980 1.388 . S
C1979 C1978 1.366 . S
C1979 C1983 1.385 . S
C1980 H1961 0.951 . S
C1980 C1978 1.388 . S
C1980 C1981 1.366 . S
C1981 C1980 1.366 . S
C1981 C1982 1.414 . S
C1981 C1984 1.499 . S
C1982 H1962 0.950 . S
C1982 C1981 1.414 . S
C1982 C1983 1.374 . S
C1983 H1963 0.950 . S
C1983 C1979 1.385 . S
C1983 C1982 1.374 . S
C1984 C1981 1.499 . S
C1984 C1985 1.373 . S
C1984 C1986 1.389 . S
C1985 H1964 0.950 . S
C1985 C1984 1.373 . S
C1985 C2001 1.377 . S
C1986 C1984 1.389 . S
C1986 C1987 1.524 . S
C1986 C2000 1.377 . S
C1987 C1986 1.524 . S
C1987 C1988 1.397 . S
C1987 C1992 1.363 . S
C1988 H1965 0.950 . S
C1988 C1987 1.397 . S
C1988 C1989 1.334 . S
C1989 H1966 0.950 . S
C1989 C1988 1.334 . S
C1989 C1990 1.287 . S
C1990 C1989 1.287 . S
C1990 C1991 1.524 . S
C1990 H2009 0.913 . S
C1991 H1967 0.950 . S
C1991 C1990 1.524 . S
C1991 C1992 1.415 . S
C1992 H1968 0.950 . S
C1992 C1987 1.363 . S
C1992 C1991 1.415 . S
C1993 H1969 0.951 . S
C1993 C1994 1.366 . S
C1993 C1995 1.388 . S
C1994 C1993 1.366 . S
C1994 C1998 1.385 . S
C1995 H1970 0.951 . S
C1995 C1993 1.388 . S
C1995 C1996 1.366 . S
C1996 C1995 1.366 . S
C1996 C1997 1.414 . S
C1996 C1999 1.499 . S
C1997 H1971 0.950 . S
C1997 C1996 1.414 . S
C1997 C1998 1.374 . S
C1998 H1972 0.950 . S
C1998 C1994 1.385 . S
C1998 C1997 1.374 . S
C1999 C1996 1.499 . S
C1999 C2000 1.373 . S
C1999 C2001 1.389 . S
C2000 H1973 0.950 . S
C2000 C1986 1.377 . S
C2000 C1999 1.373 . S
C2001 C1985 1.377 . S
C2001 C1999 1.389 . S
C2001 C2002 1.524 . S
C2002 C2001 1.524 . S
C2002 C2003 1.397 . S
C2002 C2007 1.363 . S
C2003 H1974 0.950 . S
C2003 C2002 1.397 . S
C2003 C2004 1.334 . S
C2004 H1975 0.950 . S
C2004 C2003 1.334 . S
C2004 C2005 1.287 . S
C2005 C2004 1.287 . S
C2005 C2006 1.524 . S
C2005 H2008 0.999 . S
C2006 H1976 0.950 . S
C2006 C2005 1.524 . S
C2006 C2007 1.415 . S
C2007 H1977 0.950 . S
C2007 C2002 1.363 . S
C2007 C2006 1.415 . S
H2008 C2005 0.999 . S
H2009 C1990 0.913 . S
H2010 C2028 0.951 . S
H2011 C2030 0.951 . S
H2012 C2032 0.950 . S
H2013 C2033 0.950 . S
H2014 C2035 0.950 . S
H2015 C2038 0.950 . S
H2016 C2039 0.950 . S
H2017 C2041 0.950 . S
H2018 C2042 0.950 . S
H2019 C2043 0.951 . S
H2020 C2045 0.951 . S
H2021 C2047 0.950 . S
H2022 C2048 0.950 . S
H2023 C2050 0.950 . S
H2024 C2053 0.950 . S
H2025 C2054 0.950 . S
H2026 C2056 0.950 . S
H2027 C2057 0.950 . S
C2028 H2010 0.951 . S
C2028 C2029 1.366 1_455 S
C2028 C2030 1.388 1_554 S
C2029 C2028 1.366 1_655 S
C2029 C2033 1.385 1_554 S
C2030 H2011 0.951 . S
C2030 C2028 1.388 1_556 S
C2030 C2031 1.366 1_455 S
C2031 C2030 1.366 1_655 S
C2031 C2032 1.414 . S
C2031 C2034 1.499 . S
C2032 H2012 0.950 . S
C2032 C2031 1.414 . S
C2032 C2033 1.374 . S
C2033 H2013 0.950 . S
C2033 C2029 1.385 1_556 S
C2033 C2032 1.374 . S
C2034 C2031 1.499 . S
C2034 C2035 1.373 . S
C2034 C2036 1.389 1_655 S
C2035 H2014 0.950 . S
C2035 C2034 1.373 . S
C2035 C2051 1.377 . S
C2036 C2034 1.389 1_455 S
C2036 C2037 1.524 . S
C2036 C2050 1.377 . S
C2037 C2036 1.524 . S
C2037 C2038 1.397 . S
C2037 C2042 1.363 . S
C2038 H2015 0.950 . S
C2038 C2037 1.397 . S
C2038 C2039 1.334 . S
C2039 H2016 0.950 . S
C2039 C2038 1.334 . S
C2039 C2040 1.287 . S
C2040 C2039 1.287 . S
C2040 C2041 1.524 . S
C2040 H2059 0.913 . S
C2041 H2017 0.950 . S
C2041 C2040 1.524 . S
C2041 C2042 1.415 . S
C2042 H2018 0.950 . S
C2042 C2037 1.363 . S
C2042 C2041 1.415 . S
C2043 H2019 0.951 . S
C2043 C2044 1.366 1_655 S
C2043 C2045 1.388 . S
C2044 C2043 1.366 1_455 S
C2044 C2048 1.385 . S
C2045 H2020 0.951 . S
C2045 C2043 1.388 . S
C2045 C2046 1.366 1_655 S
C2046 C2045 1.366 1_455 S
C2046 C2047 1.414 . S
C2046 C2049 1.499 . S
C2047 H2021 0.950 . S
C2047 C2046 1.414 . S
C2047 C2048 1.374 . S
C2048 H2022 0.950 . S
C2048 C2044 1.385 . S
C2048 C2047 1.374 . S
C2049 C2046 1.499 . S
C2049 C2050 1.373 . S
C2049 C2051 1.389 1_455 S
C2050 H2023 0.950 . S
C2050 C2036 1.377 . S
C2050 C2049 1.373 . S
C2051 C2035 1.377 . S
C2051 C2049 1.389 1_655 S
C2051 C2052 1.524 . S
C2052 C2051 1.524 . S
C2052 C2053 1.397 . S
C2052 C2057 1.363 . S
C2053 H2024 0.950 . S
C2053 C2052 1.397 . S
C2053 C2054 1.334 . S
C2054 H2025 0.950 . S
C2054 C2053 1.334 . S
C2054 C2055 1.287 . S
C2055 C2054 1.287 . S
C2055 C2056 1.524 . S
C2055 H2058 0.999 . S
C2056 H2026 0.950 . S
C2056 C2055 1.524 . S
C2056 C2057 1.415 . S
C2057 H2027 0.950 . S
C2057 C2052 1.363 . S
C2057 C2056 1.415 . S
H2058 C2055 0.999 . S
H2059 C2040 0.913 . S
H2060 C2078 0.951 . S
H2061 C2080 0.951 . S
H2062 C2082 0.950 . S
H2063 C2083 0.950 . S
H2064 C2085 0.950 . S
H2065 C2088 0.950 . S
H2066 C2089 0.950 . S
H2067 C2091 0.950 . S
H2068 C2092 0.950 . S
H2069 C2093 0.951 . S
H2070 C2095 0.951 . S
H2071 C2097 0.950 . S
H2072 C2098 0.950 . S
H2073 C2100 0.950 . S
H2074 C2103 0.950 . S
H2075 C2104 0.950 . S
H2076 C2106 0.950 . S
H2077 C2107 0.950 . S
C2078 H2060 0.951 . S
C2078 C2079 1.366 . S
C2078 C2080 1.388 . S
C2079 C2078 1.366 . S
C2079 C2083 1.385 . S
C2080 H2061 0.951 . S
C2080 C2078 1.388 . S
C2080 C2081 1.366 . S
C2081 C2080 1.366 . S
C2081 C2082 1.414 . S
C2081 C2084 1.499 . S
C2082 H2062 0.950 . S
C2082 C2081 1.414 . S
C2082 C2083 1.374 . S
C2083 H2063 0.950 . S
C2083 C2079 1.385 . S
C2083 C2082 1.374 . S
C2084 C2081 1.499 . S
C2084 C2085 1.373 . S
C2084 C2086 1.389 . S
C2085 H2064 0.950 . S
C2085 C2084 1.373 . S
C2085 C2101 1.377 . S
C2086 C2084 1.389 . S
C2086 C2087 1.524 . S
C2086 C2100 1.377 . S
C2087 C2086 1.524 . S
C2087 C2088 1.397 . S
C2087 C2092 1.363 . S
C2088 H2065 0.950 . S
C2088 C2087 1.397 . S
C2088 C2089 1.334 . S
C2089 H2066 0.950 . S
C2089 C2088 1.334 . S
C2089 C2090 1.287 . S
C2090 C2089 1.287 . S
C2090 C2091 1.524 . S
C2090 H2109 0.913 . S
C2091 H2067 0.950 . S
C2091 C2090 1.524 . S
C2091 C2092 1.415 . S
C2092 H2068 0.950 . S
C2092 C2087 1.363 . S
C2092 C2091 1.415 . S
C2093 H2069 0.951 . S
C2093 C2094 1.366 . S
C2093 C2095 1.388 . S
C2094 C2093 1.366 . S
C2094 C2098 1.385 . S
C2095 H2070 0.951 . S
C2095 C2093 1.388 . S
C2095 C2096 1.366 . S
C2096 C2095 1.366 . S
C2096 C2097 1.414 . S
C2096 C2099 1.499 . S
C2097 H2071 0.950 . S
C2097 C2096 1.414 . S
C2097 C2098 1.374 . S
C2098 H2072 0.950 . S
C2098 C2094 1.385 . S
C2098 C2097 1.374 . S
C2099 C2096 1.499 . S
C2099 C2100 1.373 . S
C2099 C2101 1.389 . S
C2100 H2073 0.950 . S
C2100 C2086 1.377 . S
C2100 C2099 1.373 . S
C2101 C2085 1.377 . S
C2101 C2099 1.389 . S
C2101 C2102 1.524 . S
C2102 C2101 1.524 . S
C2102 C2103 1.397 . S
C2102 C2107 1.363 . S
C2103 H2074 0.950 . S
C2103 C2102 1.397 . S
C2103 C2104 1.334 . S
C2104 H2075 0.950 . S
C2104 C2103 1.334 . S
C2104 C2105 1.287 . S
C2105 C2104 1.287 . S
C2105 C2106 1.524 . S
C2105 H2108 0.999 . S
C2106 H2076 0.950 . S
C2106 C2105 1.524 . S
C2106 C2107 1.415 . S
C2107 H2077 0.950 . S
C2107 C2102 1.363 . S
C2107 C2106 1.415 . S
H2108 C2105 0.999 . S
H2109 C2090 0.913 . S
H2110 C2128 0.951 1_554 S
H2111 C2130 0.951 . S
H2112 C2132 0.950 . S
H2113 C2133 0.950 . S
H2114 C2135 0.950 . S
H2115 C2138 0.950 . S
H2116 C2139 0.950 . S
H2117 C2141 0.950 . S
H2118 C2142 0.950 . S
H2119 C2143 0.951 . S
H2120 C2145 0.951 . S
H2121 C2147 0.950 . S
H2122 C2148 0.950 . S
H2123 C2150 0.945 1_655 S
H2124 C2153 0.950 . S
H2125 C2154 0.950 . S
H2126 C2156 0.950 . S
H2127 C2157 0.950 . S
C2128 H2110 0.951 1_556 S
C2128 C2129 1.366 . S
C2128 C2130 1.388 . S
C2129 C2128 1.366 . S
C2129 C2133 1.385 . S
C2130 H2111 0.951 . S
C2130 C2128 1.388 . S
C2130 C2131 1.366 . S
C2131 C2130 1.366 . S
C2131 C2132 1.414 . S
C2131 C2134 1.499 . S
C2132 H2112 0.950 . S
C2132 C2131 1.414 . S
C2132 C2133 1.374 . S
C2133 H2113 0.950 . S
C2133 C2129 1.385 . S
C2133 C2132 1.374 . S
C2134 C2131 1.499 . S
C2134 C2135 1.373 . S
C2134 C2136 1.389 . S
C2135 H2114 0.950 . S
C2135 C2134 1.373 . S
C2135 C2151 1.377 . S
C2136 C2134 1.389 . S
C2136 C2137 1.524 1_455 S
C2136 C2150 1.377 . S
C2137 C2136 1.524 1_655 S
C2137 C2138 1.397 . S
C2137 C2142 1.363 . S
C2138 H2115 0.950 . S
C2138 C2137 1.397 . S
C2138 C2139 1.334 . S
C2139 H2116 0.950 . S
C2139 C2138 1.334 . S
C2139 C2140 1.287 . S
C2140 C2139 1.287 . S
C2140 C2141 1.524 . S
C2140 H2159 0.913 . S
C2141 H2117 0.950 . S
C2141 C2140 1.524 . S
C2141 C2142 1.415 . S
C2142 H2118 0.950 . S
C2142 C2137 1.363 . S
C2142 C2141 1.415 . S
C2143 H2119 0.951 . S
C2143 C2144 1.366 . S
C2143 C2145 1.388 . S
C2144 C2143 1.366 . S
C2144 C2148 1.385 . S
C2145 H2120 0.951 . S
C2145 C2143 1.388 . S
C2145 C2146 1.366 . S
C2146 C2145 1.366 . S
C2146 C2147 1.414 . S
C2146 C2149 1.499 . S
C2147 H2121 0.950 . S
C2147 C2146 1.414 . S
C2147 C2148 1.374 . S
C2148 H2122 0.950 . S
C2148 C2144 1.385 . S
C2148 C2147 1.374 . S
C2149 C2146 1.499 . S
C2149 C2150 1.373 . S
C2149 C2151 1.389 . S
C2150 H2123 0.945 1_455 S
C2150 C2136 1.377 . S
C2150 C2149 1.373 . S
C2151 C2135 1.377 . S
C2151 C2149 1.389 . S
C2151 C2152 1.524 . S
C2152 C2151 1.524 . S
C2152 C2153 1.397 . S
C2152 C2157 1.363 . S
C2153 H2124 0.950 . S
C2153 C2152 1.397 . S
C2153 C2154 1.334 . S
C2154 H2125 0.950 . S
C2154 C2153 1.334 . S
C2154 C2155 1.287 . S
C2155 C2154 1.287 . S
C2155 C2156 1.524 . S
C2155 H2158 0.999 . S
C2156 H2126 0.950 . S
C2156 C2155 1.524 . S
C2156 C2157 1.415 . S
C2157 H2127 0.950 . S
C2157 C2152 1.363 . S
C2157 C2156 1.415 . S
H2158 C2155 0.999 . S
H2159 C2140 0.913 . S
H2160 C2178 0.951 . S
H2161 C2180 0.951 . S
H2162 C2182 0.950 . S
H2163 C2183 0.950 . S
H2164 C2185 0.950 . S
H2165 C2188 0.950 . S
H2166 C2189 0.950 . S
H2167 C2191 0.950 . S
H2168 C2192 0.950 . S
H2169 C2193 0.951 . S
H2170 C2195 0.951 . S
H2171 C2197 0.950 . S
H2172 C2198 0.950 . S
H2173 C2200 0.950 . S
H2174 C2203 0.950 . S
H2175 C2204 0.950 . S
H2176 C2206 0.950 . S
H2177 C2207 0.950 . S
C2178 H2160 0.951 . S
C2178 C2179 1.366 . S
C2178 C2180 1.388 . S
C2179 C2178 1.366 . S
C2179 C2183 1.385 . S
C2180 H2161 0.951 . S
C2180 C2178 1.388 . S
C2180 C2181 1.366 . S
C2181 C2180 1.366 . S
C2181 C2182 1.414 . S
C2181 C2184 1.499 . S
C2182 H2162 0.950 . S
C2182 C2181 1.414 . S
C2182 C2183 1.374 . S
C2183 H2163 0.950 . S
C2183 C2179 1.385 . S
C2183 C2182 1.374 . S
C2184 C2181 1.499 . S
C2184 C2185 1.373 . S
C2184 C2186 1.389 . S
C2185 H2164 0.950 . S
C2185 C2184 1.373 . S
C2185 C2201 1.377 . S
C2186 C2184 1.389 . S
C2186 C2187 1.524 . S
C2186 C2200 1.377 . S
C2187 C2186 1.524 . S
C2187 C2188 1.397 . S
C2187 C2192 1.363 . S
C2188 H2165 0.950 . S
C2188 C2187 1.397 . S
C2188 C2189 1.334 . S
C2189 H2166 0.950 . S
C2189 C2188 1.334 . S
C2189 C2190 1.287 . S
C2190 C2189 1.287 . S
C2190 C2191 1.524 . S
C2190 H2209 0.913 . S
C2191 H2167 0.950 . S
C2191 C2190 1.524 . S
C2191 C2192 1.415 . S
C2192 H2168 0.950 . S
C2192 C2187 1.363 . S
C2192 C2191 1.415 . S
C2193 H2169 0.951 . S
C2193 C2194 1.366 . S
C2193 C2195 1.388 . S
C2194 C2193 1.366 . S
C2194 C2198 1.385 . S
C2195 H2170 0.951 . S
C2195 C2193 1.388 . S
C2195 C2196 1.366 . S
C2196 C2195 1.366 . S
C2196 C2197 1.414 . S
C2196 C2199 1.499 . S
C2197 H2171 0.950 . S
C2197 C2196 1.414 . S
C2197 C2198 1.374 . S
C2198 H2172 0.950 . S
C2198 C2194 1.385 . S
C2198 C2197 1.374 . S
C2199 C2196 1.499 . S
C2199 C2200 1.373 . S
C2199 C2201 1.389 . S
C2200 H2173 0.950 . S
C2200 C2186 1.377 . S
C2200 C2199 1.373 . S
C2201 C2185 1.377 . S
C2201 C2199 1.389 . S
C2201 C2202 1.524 . S
C2202 C2201 1.524 . S
C2202 C2203 1.397 . S
C2202 C2207 1.363 . S
C2203 H2174 0.950 . S
C2203 C2202 1.397 . S
C2203 C2204 1.334 . S
C2204 H2175 0.950 . S
C2204 C2203 1.334 . S
C2204 C2205 1.287 . S
C2205 C2204 1.287 . S
C2205 C2206 1.524 . S
C2205 H2208 0.999 . S
C2206 H2176 0.950 . S
C2206 C2205 1.524 . S
C2206 C2207 1.415 . S
C2207 H2177 0.950 . S
C2207 C2202 1.363 . S
C2207 C2206 1.415 . S
H2208 C2205 0.999 . S
H2209 C2190 0.913 . S
H2210 C2228 0.951 . S
H2211 C2230 0.951 . S
H2212 C2232 0.950 . S
H2213 C2233 0.950 . S
H2214 C2235 0.950 . S
H2215 C2238 0.950 . S
H2216 C2239 0.950 1_556 S
H2217 C2241 0.950 . S
H2218 C2242 0.950 . S
H2219 C2243 0.951 . S
H2220 C2245 0.951 . S
H2221 C2247 0.950 . S
H2222 C2248 0.950 . S
H2223 C2250 0.950 . S
H2224 C2253 0.950 . S
H2225 C2254 0.950 . S
H2226 C2256 0.950 . S
H2227 C2257 0.950 . S
C2228 H2210 0.951 . S
C2228 C2229 1.366 . S
C2228 C2230 1.388 . S
C2229 C2228 1.366 . S
C2229 C2233 1.385 1_554 S
C2230 H2211 0.951 . S
C2230 C2228 1.388 . S
C2230 C2231 1.366 . S
C2231 C2230 1.366 . S
C2231 C2232 1.414 . S
C2231 C2234 1.499 . S
C2232 H2212 0.950 . S
C2232 C2231 1.414 . S
C2232 C2233 1.374 1_554 S
C2233 H2213 0.950 . S
C2233 C2229 1.385 1_556 S
C2233 C2232 1.374 1_556 S
C2234 C2231 1.499 . S
C2234 C2235 1.373 . S
C2234 C2236 1.389 . S
C2235 H2214 0.950 . S
C2235 C2234 1.373 . S
C2235 C2251 1.377 . S
C2236 C2234 1.389 . S
C2236 C2237 1.524 . S
C2236 C2250 1.377 . S
C2237 C2236 1.524 . S
C2237 C2238 1.397 . S
C2237 C2242 1.363 . S
C2238 H2215 0.950 . S
C2238 C2237 1.397 . S
C2238 C2239 1.334 . S
C2239 H2216 0.950 1_554 S
C2239 C2238 1.334 . S
C2239 C2240 1.287 . S
C2240 C2239 1.287 . S
C2240 C2241 1.524 . S
C2240 H2259 0.913 . S
C2241 H2217 0.950 . S
C2241 C2240 1.524 . S
C2241 C2242 1.415 . S
C2242 H2218 0.950 . S
C2242 C2237 1.363 . S
C2242 C2241 1.415 . S
C2243 H2219 0.951 . S
C2243 C2244 1.366 . S
C2243 C2245 1.388 . S
C2244 C2243 1.366 . S
C2244 C2248 1.385 . S
C2245 H2220 0.951 . S
C2245 C2243 1.388 . S
C2245 C2246 1.366 . S
C2246 C2245 1.366 . S
C2246 C2247 1.414 . S
C2246 C2249 1.499 . S
C2247 H2221 0.950 . S
C2247 C2246 1.414 . S
C2247 C2248 1.374 . S
C2248 H2222 0.950 . S
C2248 C2244 1.385 . S
C2248 C2247 1.374 . S
C2249 C2246 1.499 . S
C2249 C2250 1.373 . S
C2249 C2251 1.389 . S
C2250 H2223 0.950 . S
C2250 C2236 1.377 . S
C2250 C2249 1.373 . S
C2251 C2235 1.377 . S
C2251 C2249 1.389 . S
C2251 C2252 1.524 . S
C2252 C2251 1.524 . S
C2252 C2253 1.397 . S
C2252 C2257 1.363 . S
C2253 H2224 0.950 . S
C2253 C2252 1.397 . S
C2253 C2254 1.334 . S
C2254 H2225 0.950 . S
C2254 C2253 1.334 . S
C2254 C2255 1.287 . S
C2255 C2254 1.287 . S
C2255 C2256 1.524 . S
C2255 H2258 0.999 . S
C2256 H2226 0.950 . S
C2256 C2255 1.524 . S
C2256 C2257 1.415 . S
C2257 H2227 0.950 . S
C2257 C2252 1.363 . S
C2257 C2256 1.415 . S
H2258 C2255 0.999 . S
H2259 C2240 0.913 . S
H2260 C2278 0.951 . S
H2261 C2280 0.951 . S
H2262 C2282 0.950 . S
H2263 C2283 0.950 . S
H2264 C2285 0.950 . S
H2265 C2288 0.950 . S
H2266 C2289 0.950 . S
H2267 C2291 0.950 . S
H2268 C2292 0.950 . S
H2269 C2293 0.951 . S
H2270 C2295 0.951 . S
H2271 C2297 0.950 . S
H2272 C2298 0.950 . S
H2273 C2300 0.950 . S
H2274 C2303 0.950 . S
H2275 C2304 0.950 . S
H2276 C2306 0.950 . S
H2277 C2307 0.950 . S
C2278 H2260 0.951 . S
C2278 C2279 1.366 . S
C2278 C2280 1.388 . S
C2279 C2278 1.366 . S
C2279 C2283 1.385 . S
C2280 H2261 0.951 . S
C2280 C2278 1.388 . S
C2280 C2281 1.366 . S
C2281 C2280 1.366 . S
C2281 C2282 1.414 . S
C2281 C2284 1.499 . S
C2282 H2262 0.950 . S
C2282 C2281 1.414 . S
C2282 C2283 1.374 . S
C2283 H2263 0.950 . S
C2283 C2279 1.385 . S
C2283 C2282 1.374 . S
C2284 C2281 1.499 . S
C2284 C2285 1.373 . S
C2284 C2286 1.389 . S
C2285 H2264 0.950 . S
C2285 C2284 1.373 . S
C2285 C2301 1.377 . S
C2286 C2284 1.389 . S
C2286 C2287 1.524 . S
C2286 C2300 1.377 . S
C2287 C2286 1.524 . S
C2287 C2288 1.397 . S
C2287 C2292 1.363 . S
C2288 H2265 0.950 . S
C2288 C2287 1.397 . S
C2288 C2289 1.334 . S
C2289 H2266 0.950 . S
C2289 C2288 1.334 . S
C2289 C2290 1.287 . S
C2290 C2289 1.287 . S
C2290 C2291 1.524 . S
C2290 H2309 0.913 . S
C2291 H2267 0.950 . S
C2291 C2290 1.524 . S
C2291 C2292 1.415 . S
C2292 H2268 0.950 . S
C2292 C2287 1.363 . S
C2292 C2291 1.415 . S
C2293 H2269 0.951 . S
C2293 C2294 1.366 . S
C2293 C2295 1.388 . S
C2294 C2293 1.366 . S
C2294 C2298 1.385 . S
C2295 H2270 0.951 . S
C2295 C2293 1.388 . S
C2295 C2296 1.366 . S
C2296 C2295 1.366 . S
C2296 C2297 1.414 . S
C2296 C2299 1.499 . S
C2297 H2271 0.950 . S
C2297 C2296 1.414 . S
C2297 C2298 1.374 . S
C2298 H2272 0.950 . S
C2298 C2294 1.385 . S
C2298 C2297 1.374 . S
C2299 C2296 1.499 . S
C2299 C2300 1.373 . S
C2299 C2301 1.389 . S
C2300 H2273 0.950 . S
C2300 C2286 1.377 . S
C2300 C2299 1.373 . S
C2301 C2285 1.377 . S
C2301 C2299 1.389 . S
C2301 C2302 1.524 . S
C2302 C2301 1.524 . S
C2302 C2303 1.397 . S
C2302 C2307 1.363 . S
C2303 H2274 0.950 . S
C2303 C2302 1.397 . S
C2303 C2304 1.334 . S
C2304 H2275 0.950 . S
C2304 C2303 1.334 . S
C2304 C2305 1.287 . S
C2305 C2304 1.287 . S
C2305 C2306 1.524 . S
C2305 H2308 0.999 . S
C2306 H2276 0.950 . S
C2306 C2305 1.524 . S
C2306 C2307 1.415 . S
C2307 H2277 0.950 . S
C2307 C2302 1.363 . S
C2307 C2306 1.415 . S
H2308 C2305 0.999 . S
H2309 C2290 0.913 . S
H2310 C2328 0.951 . S
H2311 C2330 0.951 . S
H2312 C2332 0.950 . S
H2313 C2333 0.950 . S
H2314 C2335 0.950 . S
H2315 C2338 0.950 . S
H2316 C2339 0.950 . S
H2317 C2341 0.950 . S
H2318 C2342 0.950 . S
H2319 C2343 0.951 . S
H2320 C2345 0.951 . S
H2321 C2347 0.950 . S
H2322 C2348 0.950 . S
H2323 C2350 0.950 . S
H2324 C2353 0.950 . S
H2325 C2354 0.950 . S
H2326 C2356 0.950 . S
H2327 C2357 0.950 . S
C2328 H2310 0.951 . S
C2328 C2329 1.366 1_554 S
C2328 C2330 1.388 . S
C2329 C2328 1.366 1_556 S
C2329 C2333 1.385 . S
C2330 H2311 0.951 . S
C2330 C2328 1.388 . S
C2330 C2331 1.366 . S
C2331 C2330 1.366 . S
C2331 C2332 1.414 . S
C2331 C2334 1.499 . S
C2332 H2312 0.950 . S
C2332 C2331 1.414 . S
C2332 C2333 1.374 1_554 S
C2333 H2313 0.950 . S
C2333 C2329 1.385 . S
C2333 C2332 1.374 1_556 S
C2334 C2331 1.499 . S
C2334 C2335 1.373 . S
C2334 C2336 1.389 . S
C2335 H2314 0.950 . S
C2335 C2334 1.373 . S
C2335 C2351 1.377 . S
C2336 C2334 1.389 . S
C2336 C2337 1.524 . S
C2336 C2350 1.377 . S
C2337 C2336 1.524 . S
C2337 C2338 1.397 . S
C2337 C2342 1.363 . S
C2338 H2315 0.950 . S
C2338 C2337 1.397 . S
C2338 C2339 1.334 . S
C2339 H2316 0.950 . S
C2339 C2338 1.334 . S
C2339 C2340 1.287 . S
C2340 C2339 1.287 . S
C2340 C2341 1.524 . S
C2340 H2359 0.913 . S
C2341 H2317 0.950 . S
C2341 C2340 1.524 . S
C2341 C2342 1.415 . S
C2342 H2318 0.950 . S
C2342 C2337 1.363 . S
C2342 C2341 1.415 . S
C2343 H2319 0.951 . S
C2343 C2344 1.366 . S
C2343 C2345 1.388 . S
C2344 C2343 1.366 . S
C2344 C2348 1.385 . S
C2345 H2320 0.951 . S
C2345 C2343 1.388 . S
C2345 C2346 1.366 . S
C2346 C2345 1.366 . S
C2346 C2347 1.414 . S
C2346 C2349 1.499 . S
C2347 H2321 0.950 . S
C2347 C2346 1.414 . S
C2347 C2348 1.374 . S
C2348 H2322 0.950 . S
C2348 C2344 1.385 . S
C2348 C2347 1.374 . S
C2349 C2346 1.499 . S
C2349 C2350 1.373 . S
C2349 C2351 1.389 . S
C2350 H2323 0.950 . S
C2350 C2336 1.377 . S
C2350 C2349 1.373 . S
C2351 C2335 1.377 . S
C2351 C2349 1.389 . S
C2351 C2352 1.524 . S
C2352 C2351 1.524 . S
C2352 C2353 1.397 . S
C2352 C2357 1.363 . S
C2353 H2324 0.950 . S
C2353 C2352 1.397 . S
C2353 C2354 1.334 . S
C2354 H2325 0.950 . S
C2354 C2353 1.334 . S
C2354 C2355 1.287 . S
C2355 C2354 1.287 . S
C2355 C2356 1.524 . S
C2355 H2358 1.015 . S
C2356 H2326 0.950 . S
C2356 C2355 1.524 . S
C2356 C2357 1.415 . S
C2357 H2327 0.950 . S
C2357 C2352 1.363 . S
C2357 C2356 1.415 . S
H2358 C2355 1.015 . S
H2359 C2340 0.913 . S
H2360 C2378 0.951 . S
H2361 C2380 0.951 . S
H2362 C2382 0.950 . S
H2363 C2383 0.950 . S
H2364 C2385 0.950 . S
H2365 C2388 0.950 . S
H2366 C2389 0.950 . S
H2367 C2391 0.950 . S
H2368 C2392 0.950 . S
H2369 C2393 0.951 . S
H2370 C2395 0.951 . S
H2371 C2397 0.950 . S
H2372 C2398 0.950 . S
H2373 C2400 0.950 . S
H2374 C2403 0.950 . S
H2375 C2404 0.950 . S
H2376 C2406 0.950 . S
H2377 C2407 0.950 . S
C2378 H2360 0.951 . S
C2378 C2379 1.366 . S
C2378 C2380 1.388 . S
C2379 C2378 1.366 . S
C2379 C2383 1.385 . S
C2380 H2361 0.951 . S
C2380 C2378 1.388 . S
C2380 C2381 1.366 . S
C2381 C2380 1.366 . S
C2381 C2382 1.414 . S
C2381 C2384 1.499 . S
C2382 H2362 0.950 . S
C2382 C2381 1.414 . S
C2382 C2383 1.374 . S
C2383 H2363 0.950 . S
C2383 C2379 1.385 . S
C2383 C2382 1.374 . S
C2384 C2381 1.499 . S
C2384 C2385 1.373 . S
C2384 C2386 1.389 . S
C2385 H2364 0.950 . S
C2385 C2384 1.373 . S
C2385 C2401 1.377 . S
C2386 C2384 1.389 . S
C2386 C2387 1.524 . S
C2386 C2400 1.377 . S
C2387 C2386 1.524 . S
C2387 C2388 1.397 . S
C2387 C2392 1.363 . S
C2388 H2365 0.950 . S
C2388 C2387 1.397 . S
C2388 C2389 1.334 . S
C2389 H2366 0.950 . S
C2389 C2388 1.334 . S
C2389 C2390 1.287 . S
C2390 C2389 1.287 . S
C2390 C2391 1.524 . S
C2390 H2409 0.913 . S
C2391 H2367 0.950 . S
C2391 C2390 1.524 . S
C2391 C2392 1.415 . S
C2392 H2368 0.950 . S
C2392 C2387 1.363 . S
C2392 C2391 1.415 . S
C2393 H2369 0.951 . S
C2393 C2394 1.366 . S
C2393 C2395 1.388 . S
C2394 C2393 1.366 . S
C2394 C2398 1.385 . S
C2395 H2370 0.951 . S
C2395 C2393 1.388 . S
C2395 C2396 1.366 . S
C2396 C2395 1.366 . S
C2396 C2397 1.414 . S
C2396 C2399 1.499 . S
C2397 H2371 0.950 . S
C2397 C2396 1.414 . S
C2397 C2398 1.374 . S
C2398 H2372 0.950 . S
C2398 C2394 1.385 . S
C2398 C2397 1.374 . S
C2399 C2396 1.499 . S
C2399 C2400 1.373 . S
C2399 C2401 1.389 . S
C2400 H2373 0.950 . S
C2400 C2386 1.377 . S
C2400 C2399 1.373 . S
C2401 C2385 1.377 . S
C2401 C2399 1.389 . S
C2401 C2402 1.524 . S
C2402 C2401 1.524 . S
C2402 C2403 1.397 . S
C2402 C2407 1.363 . S
C2403 H2374 0.950 . S
C2403 C2402 1.397 . S
C2403 C2404 1.334 . S
C2404 H2375 0.950 . S
C2404 C2403 1.334 . S
C2404 C2405 1.287 . S
C2405 C2404 1.287 . S
C2405 C2406 1.524 . S
C2405 H2408 0.999 . S
C2406 H2376 0.950 . S
C2406 C2405 1.524 . S
C2406 C2407 1.415 . S
C2407 H2377 0.950 . S
C2407 C2402 1.363 . S
C2407 C2406 1.415 . S
H2408 C2405 0.999 . S
H2409 C2390 0.913 . S
H2410 C2428 0.951 . S
H2411 C2430 0.951 . S
H2412 C2432 0.950 . S
H2413 C2433 0.950 . S
H2414 C2435 0.950 . S
H2415 C2438 0.950 . S
H2416 C2439 0.950 . S
H2417 C2441 0.950 . S
H2418 C2442 0.950 . S
H2419 C2443 0.951 . S
H2420 C2445 0.951 . S
H2421 C2447 0.950 . S
H2422 C2448 0.950 . S
H2423 C2450 0.950 . S
H2424 C2453 0.950 . S
H2425 C2454 0.950 . S
H2426 C2456 0.950 . S
H2427 C2457 0.950 . S
C2428 H2410 0.951 . S
C2428 C2429 1.366 . S
C2428 C2430 1.388 . S
C2429 C2428 1.366 . S
C2429 C2433 1.385 . S
C2430 H2411 0.951 . S
C2430 C2428 1.388 . S
C2430 C2431 1.366 . S
C2431 C2430 1.366 . S
C2431 C2432 1.414 . S
C2431 C2434 1.499 . S
C2432 H2412 0.950 . S
C2432 C2431 1.414 . S
C2432 C2433 1.374 . S
C2433 H2413 0.950 . S
C2433 C2429 1.385 . S
C2433 C2432 1.374 . S
C2434 C2431 1.499 . S
C2434 C2435 1.373 . S
C2434 C2436 1.389 . S
C2435 H2414 0.950 . S
C2435 C2434 1.373 . S
C2435 C2451 1.377 . S
C2436 C2434 1.389 . S
C2436 C2437 1.524 . S
C2436 C2450 1.377 . S
C2437 C2436 1.524 . S
C2437 C2438 1.397 . S
C2437 C2442 1.363 . S
C2438 H2415 0.950 . S
C2438 C2437 1.397 . S
C2438 C2439 1.334 . S
C2439 H2416 0.950 . S
C2439 C2438 1.334 . S
C2439 C2440 1.287 . S
C2440 C2439 1.287 . S
C2440 C2441 1.524 . S
C2440 H2459 0.913 . S
C2441 H2417 0.950 . S
C2441 C2440 1.524 . S
C2441 C2442 1.415 . S
C2442 H2418 0.950 . S
C2442 C2437 1.363 . S
C2442 C2441 1.415 . S
C2443 H2419 0.951 . S
C2443 C2444 1.366 . S
C2443 C2445 1.388 . S
C2444 C2443 1.366 . S
C2444 C2448 1.385 . S
C2445 H2420 0.951 . S
C2445 C2443 1.388 . S
C2445 C2446 1.366 . S
C2446 C2445 1.366 . S
C2446 C2447 1.414 . S
C2446 C2449 1.499 . S
C2447 H2421 0.950 . S
C2447 C2446 1.414 . S
C2447 C2448 1.374 . S
C2448 H2422 0.950 . S
C2448 C2444 1.385 . S
C2448 C2447 1.374 . S
C2449 C2446 1.499 . S
C2449 C2450 1.373 . S
C2449 C2451 1.389 . S
C2450 H2423 0.950 . S
C2450 C2436 1.377 . S
C2450 C2449 1.373 . S
C2451 C2435 1.377 . S
C2451 C2449 1.389 . S
C2451 C2452 1.524 . S
C2452 C2451 1.524 . S
C2452 C2453 1.397 . S
C2452 C2457 1.363 . S
C2453 H2424 0.950 . S
C2453 C2452 1.397 . S
C2453 C2454 1.334 . S
C2454 H2425 0.950 . S
C2454 C2453 1.334 . S
C2454 C2455 1.287 . S
C2455 C2454 1.287 . S
C2455 C2456 1.524 . S
C2455 H2458 0.999 . S
C2456 H2426 0.950 . S
C2456 C2455 1.524 . S
C2456 C2457 1.415 . S
C2457 H2427 0.950 . S
C2457 C2452 1.363 . S
C2457 C2456 1.415 . S
H2458 C2455 0.999 . S
H2459 C2440 0.913 . S
H2460 C2478 0.951 . S
H2461 C2480 0.951 . S
H2462 C2482 0.950 . S
H2463 C2483 0.950 . S
H2464 C2485 0.950 . S
H2465 C2488 0.950 . S
H2466 C2489 0.950 . S
H2467 C2491 0.950 . S
H2468 C2492 0.950 . S
H2469 C2493 0.951 . S
H2470 C2495 0.951 . S
H2471 C2497 0.950 . S
H2472 C2498 0.950 . S
H2473 C2500 0.950 . S
H2474 C2503 0.950 . S
H2475 C2504 0.950 . S
H2476 C2506 0.950 . S
H2477 C2507 0.950 . S
C2478 H2460 0.951 . S
C2478 C2479 1.366 . S
C2478 C2480 1.388 . S
C2479 C2478 1.366 . S
C2479 C2483 1.385 . S
C2480 H2461 0.951 . S
C2480 C2478 1.388 . S
C2480 C2481 1.366 . S
C2481 C2480 1.366 . S
C2481 C2482 1.414 . S
C2481 C2484 1.499 . S
C2482 H2462 0.950 . S
C2482 C2481 1.414 . S
C2482 C2483 1.374 . S
C2483 H2463 0.950 . S
C2483 C2479 1.385 . S
C2483 C2482 1.374 . S
C2484 C2481 1.499 . S
C2484 C2485 1.373 . S
C2484 C2486 1.389 . S
C2485 H2464 0.950 . S
C2485 C2484 1.373 . S
C2485 C2501 1.377 . S
C2486 C2484 1.389 . S
C2486 C2487 1.524 . S
C2486 C2500 1.377 . S
C2487 C2486 1.524 . S
C2487 C2488 1.397 . S
C2487 C2492 1.363 . S
C2488 H2465 0.950 . S
C2488 C2487 1.397 . S
C2488 C2489 1.334 . S
C2489 H2466 0.950 . S
C2489 C2488 1.334 . S
C2489 C2490 1.287 . S
C2490 C2489 1.287 . S
C2490 C2491 1.524 . S
C2490 H2509 0.913 . S
C2491 H2467 0.950 . S
C2491 C2490 1.524 . S
C2491 C2492 1.415 . S
C2492 H2468 0.950 . S
C2492 C2487 1.363 . S
C2492 C2491 1.415 . S
C2493 H2469 0.951 . S
C2493 C2494 1.366 . S
C2493 C2495 1.388 . S
C2494 C2493 1.366 . S
C2494 C2498 1.385 . S
C2495 H2470 0.951 . S
C2495 C2493 1.388 . S
C2495 C2496 1.366 . S
C2496 C2495 1.366 . S
C2496 C2497 1.414 . S
C2496 C2499 1.499 . S
C2497 H2471 0.950 . S
C2497 C2496 1.414 . S
C2497 C2498 1.374 . S
C2498 H2472 0.950 . S
C2498 C2494 1.385 . S
C2498 C2497 1.374 . S
C2499 C2496 1.499 . S
C2499 C2500 1.373 . S
C2499 C2501 1.389 . S
C2500 H2473 0.950 . S
C2500 C2486 1.377 . S
C2500 C2499 1.373 . S
C2501 C2485 1.377 . S
C2501 C2499 1.389 . S
C2501 C2502 1.524 . S
C2502 C2501 1.524 . S
C2502 C2503 1.397 . S
C2502 C2507 1.363 . S
C2503 H2474 0.950 . S
C2503 C2502 1.397 . S
C2503 C2504 1.334 . S
C2504 H2475 0.950 . S
C2504 C2503 1.334 . S
C2504 C2505 1.287 . S
C2505 C2504 1.287 . S
C2505 C2506 1.524 . S
C2505 H2508 0.999 . S
C2506 H2476 0.950 . S
C2506 C2505 1.524 . S
C2506 C2507 1.415 . S
C2507 H2477 0.950 . S
C2507 C2502 1.363 . S
C2507 C2506 1.415 . S
H2508 C2505 0.999 . S
H2509 C2490 0.913 . S
H2510 C2528 0.951 . S
H2511 C2530 0.951 . S
H2512 C2532 0.950 . S
H2513 C2533 0.950 . S
H2514 C2535 0.950 . S
H2515 C2538 0.950 . S
H2516 C2539 0.950 . S
H2517 C2541 0.950 . S
H2518 C2542 0.950 . S
H2519 C2543 0.951 . S
H2520 C2545 0.951 . S
H2521 C2547 0.950 . S
H2522 C2548 0.950 . S
H2523 C2550 0.950 . S
H2524 C2553 0.950 . S
H2525 C2554 0.950 . S
H2526 C2556 0.950 . S
H2527 C2557 0.950 . S
C2528 H2510 0.951 . S
C2528 C2529 1.366 . S
C2528 C2530 1.388 . S
C2529 C2528 1.366 . S
C2529 C2533 1.385 . S
C2530 H2511 0.951 . S
C2530 C2528 1.388 . S
C2530 C2531 1.366 . S
C2531 C2530 1.366 . S
C2531 C2532 1.414 . S
C2531 C2534 1.499 . S
C2532 H2512 0.950 . S
C2532 C2531 1.414 . S
C2532 C2533 1.374 . S
C2533 H2513 0.950 . S
C2533 C2529 1.385 . S
C2533 C2532 1.374 . S
C2534 C2531 1.499 . S
C2534 C2535 1.373 . S
C2534 C2536 1.389 . S
C2535 H2514 0.950 . S
C2535 C2534 1.373 . S
C2535 C2551 1.377 . S
C2536 C2534 1.389 . S
C2536 C2537 1.524 . S
C2536 C2550 1.377 . S
C2537 C2536 1.524 . S
C2537 C2538 1.397 . S
C2537 C2542 1.363 . S
C2538 H2515 0.950 . S
C2538 C2537 1.397 . S
C2538 C2539 1.334 . S
C2539 H2516 0.950 . S
C2539 C2538 1.334 . S
C2539 C2540 1.287 . S
C2540 C2539 1.287 . S
C2540 C2541 1.524 . S
C2540 H2559 0.913 . S
C2541 H2517 0.950 . S
C2541 C2540 1.524 . S
C2541 C2542 1.415 . S
C2542 H2518 0.950 . S
C2542 C2537 1.363 . S
C2542 C2541 1.415 . S
C2543 H2519 0.951 . S
C2543 C2544 1.366 . S
C2543 C2545 1.388 . S
C2544 C2543 1.366 . S
C2544 C2548 1.385 . S
C2545 H2520 0.951 . S
C2545 C2543 1.388 . S
C2545 C2546 1.366 . S
C2546 C2545 1.366 . S
C2546 C2547 1.414 . S
C2546 C2549 1.499 . S
C2547 H2521 0.950 . S
C2547 C2546 1.414 . S
C2547 C2548 1.374 . S
C2548 H2522 0.950 . S
C2548 C2544 1.385 . S
C2548 C2547 1.374 . S
C2549 C2546 1.499 . S
C2549 C2550 1.373 . S
C2549 C2551 1.389 . S
C2550 H2523 0.950 . S
C2550 C2536 1.377 . S
C2550 C2549 1.373 . S
C2551 C2535 1.377 . S
C2551 C2549 1.389 . S
C2551 C2552 1.524 . S
C2552 C2551 1.524 . S
C2552 C2553 1.397 . S
C2552 C2557 1.363 . S
C2553 H2524 0.950 . S
C2553 C2552 1.397 . S
C2553 C2554 1.334 . S
C2554 H2525 0.950 . S
C2554 C2553 1.334 . S
C2554 C2555 1.287 . S
C2555 C2554 1.287 . S
C2555 C2556 1.524 . S
C2555 H2558 0.999 . S
C2556 H2526 0.950 . S
C2556 C2555 1.524 . S
C2556 C2557 1.415 . S
C2557 H2527 0.950 . S
C2557 C2552 1.363 . S
C2557 C2556 1.415 . S
H2558 C2555 0.999 . S
H2559 C2540 0.913 . S
H2560 C2578 0.951 . S
H2561 C2580 0.951 . S
H2562 C2582 0.950 . S
H2563 C2583 0.950 . S
H2564 C2585 0.950 . S
H2565 C2588 0.950 . S
H2566 C2589 0.950 . S
H2567 C2591 0.950 . S
H2568 C2592 0.950 . S
H2569 C2593 0.951 . S
H2570 C2595 0.951 . S
H2571 C2597 0.938 1_554 S
H2572 C2598 0.950 . S
H2573 C2600 0.950 . S
H2574 C2603 0.950 . S
H2575 C2604 0.950 . S
H2576 C2606 0.950 . S
H2577 C2607 0.950 . S
C2578 H2560 0.951 . S
C2578 C2579 1.366 . S
C2578 C2580 1.388 . S
C2579 C2578 1.366 . S
C2579 C2583 1.385 . S
C2580 H2561 0.951 . S
C2580 C2578 1.388 . S
C2580 C2581 1.366 . S
C2581 C2580 1.366 . S
C2581 C2582 1.414 . S
C2581 C2584 1.499 . S
C2582 H2562 0.950 . S
C2582 C2581 1.414 . S
C2582 C2583 1.374 . S
C2583 H2563 0.950 . S
C2583 C2579 1.385 . S
C2583 C2582 1.374 . S
C2584 C2581 1.499 . S
C2584 C2585 1.373 . S
C2584 C2586 1.365 1_556 S
C2585 H2564 0.950 . S
C2585 C2584 1.373 . S
C2585 C2601 1.377 . S
C2586 C2584 1.365 1_554 S
C2586 C2587 1.552 . S
C2586 C2600 1.376 . S
C2587 C2586 1.552 . S
C2587 C2588 1.397 . S
C2587 C2592 1.363 . S
C2588 H2565 0.950 . S
C2588 C2587 1.397 . S
C2588 C2589 1.334 . S
C2589 H2566 0.950 . S
C2589 C2588 1.334 . S
C2589 C2590 1.287 . S
C2590 C2589 1.287 . S
C2590 C2591 1.524 . S
C2590 H2609 0.913 . S
C2591 H2567 0.950 . S
C2591 C2590 1.524 . S
C2591 C2592 1.415 . S
C2592 H2568 0.950 . S
C2592 C2587 1.363 . S
C2592 C2591 1.415 . S
C2593 H2569 0.951 . S
C2593 C2594 1.366 . S
C2593 C2595 1.388 . S
C2594 C2593 1.366 . S
C2594 C2598 1.385 1_556 S
C2595 H2570 0.951 . S
C2595 C2593 1.388 . S
C2595 C2596 1.366 . S
C2596 C2595 1.366 . S
C2596 C2597 1.430 . S
C2596 C2599 1.499 . S
C2597 H2571 0.938 1_556 S
C2597 C2596 1.430 . S
C2597 C2598 1.373 1_556 S
C2598 H2572 0.950 . S
C2598 C2594 1.385 1_554 S
C2598 C2597 1.373 1_554 S
C2599 C2596 1.499 . S
C2599 C2600 1.373 1_556 S
C2599 C2601 1.389 . S
C2600 H2573 0.950 . S
C2600 C2586 1.376 . S
C2600 C2599 1.373 1_554 S
C2601 C2585 1.377 . S
C2601 C2599 1.389 . S
C2601 C2602 1.524 . S
C2602 C2601 1.524 . S
C2602 C2603 1.397 . S
C2602 C2607 1.363 . S
C2603 H2574 0.950 . S
C2603 C2602 1.397 . S
C2603 C2604 1.334 . S
C2604 H2575 0.950 . S
C2604 C2603 1.334 . S
C2604 C2605 1.287 . S
C2605 C2604 1.287 . S
C2605 C2606 1.524 . S
C2605 H2608 0.999 . S
C2606 H2576 0.950 . S
C2606 C2605 1.524 . S
C2606 C2607 1.415 . S
C2607 H2577 0.950 . S
C2607 C2602 1.363 . S
C2607 C2606 1.415 . S
H2608 C2605 0.999 . S
H2609 C2590 0.913 . S
H2610 C2628 0.951 . S
H2611 C2630 0.951 . S
H2612 C2632 0.950 . S
H2613 C2633 0.950 . S
H2614 C2635 0.950 . S
H2615 C2638 0.950 . S
H2616 C2639 0.950 . S
H2617 C2641 0.950 . S
H2618 C2642 0.950 . S
H2619 C2643 0.951 . S
H2620 C2645 0.951 . S
H2621 C2647 0.950 . S
H2622 C2648 0.950 . S
H2623 C2650 0.950 . S
H2624 C2653 0.950 . S
H2625 C2654 0.950 . S
H2626 C2656 0.950 . S
H2627 C2657 0.950 . S
C2628 H2610 0.951 . S
C2628 C2629 1.366 . S
C2628 C2630 1.388 . S
C2629 C2628 1.366 . S
C2629 C2633 1.385 . S
C2630 H2611 0.951 . S
C2630 C2628 1.388 . S
C2630 C2631 1.366 . S
C2631 C2630 1.366 . S
C2631 C2632 1.414 . S
C2631 C2634 1.499 . S
C2632 H2612 0.950 . S
C2632 C2631 1.414 . S
C2632 C2633 1.374 . S
C2633 H2613 0.950 . S
C2633 C2629 1.385 . S
C2633 C2632 1.374 . S
C2634 C2631 1.499 . S
C2634 C2635 1.373 . S
C2634 C2636 1.389 . S
C2635 H2614 0.950 . S
C2635 C2634 1.373 . S
C2635 C2651 1.377 . S
C2636 C2634 1.389 . S
C2636 C2637 1.524 . S
C2636 C2650 1.377 . S
C2637 C2636 1.524 . S
C2637 C2638 1.397 . S
C2637 C2642 1.363 . S
C2638 H2615 0.950 . S
C2638 C2637 1.397 . S
C2638 C2639 1.334 . S
C2639 H2616 0.950 . S
C2639 C2638 1.334 . S
C2639 C2640 1.287 . S
C2640 C2639 1.287 . S
C2640 C2641 1.524 . S
C2640 H2659 0.913 . S
C2641 H2617 0.950 . S
C2641 C2640 1.524 . S
C2641 C2642 1.415 . S
C2642 H2618 0.950 . S
C2642 C2637 1.363 . S
C2642 C2641 1.415 . S
C2643 H2619 0.951 . S
C2643 C2644 1.366 . S
C2643 C2645 1.388 . S
C2644 C2643 1.366 . S
C2644 C2648 1.385 . S
C2645 H2620 0.951 . S
C2645 C2643 1.388 . S
C2645 C2646 1.366 . S
C2646 C2645 1.366 . S
C2646 C2647 1.414 . S
C2646 C2649 1.499 . S
C2647 H2621 0.950 . S
C2647 C2646 1.414 . S
C2647 C2648 1.374 . S
C2648 H2622 0.950 . S
C2648 C2644 1.385 . S
C2648 C2647 1.374 . S
C2649 C2646 1.499 . S
C2649 C2650 1.373 . S
C2649 C2651 1.389 . S
C2650 H2623 0.950 . S
C2650 C2636 1.377 . S
C2650 C2649 1.373 . S
C2651 C2635 1.377 . S
C2651 C2649 1.389 . S
C2651 C2652 1.524 . S
C2652 C2651 1.524 . S
C2652 C2653 1.397 . S
C2652 C2657 1.363 . S
C2653 H2624 0.950 . S
C2653 C2652 1.397 . S
C2653 C2654 1.334 . S
C2654 H2625 0.950 . S
C2654 C2653 1.334 . S
C2654 C2655 1.287 . S
C2655 C2654 1.287 . S
C2655 C2656 1.524 . S
C2655 H2658 0.999 . S
C2656 H2626 0.950 . S
C2656 C2655 1.524 . S
C2656 C2657 1.415 . S
C2657 H2627 0.950 . S
C2657 C2652 1.363 . S
C2657 C2656 1.415 . S
H2658 C2655 0.999 . S
H2659 C2640 0.913 . S
H2660 C2678 0.951 . S
H2661 C2680 0.951 . S
H2662 C2682 0.950 . S
H2663 C2683 0.950 . S
H2664 C2685 0.950 . S
H2665 C2688 0.950 . S
H2666 C2689 0.950 . S
H2667 C2691 0.950 . S
H2668 C2692 0.950 . S
H2669 C2693 0.951 1_556 S
H2670 C2695 0.951 1_556 S
H2671 C2697 0.950 . S
H2672 C2698 0.950 . S
H2673 C2700 0.950 . S
H2674 C2703 0.950 . S
H2675 C2704 0.950 . S
H2676 C2706 0.950 . S
H2677 C2707 0.950 . S
C2678 H2660 0.951 . S
C2678 C2679 1.366 . S
C2678 C2680 1.388 . S
C2679 C2678 1.366 . S
C2679 C2683 1.385 . S
C2680 H2661 0.951 . S
C2680 C2678 1.388 . S
C2680 C2681 1.366 . S
C2681 C2680 1.366 . S
C2681 C2682 1.414 . S
C2681 C2684 1.499 . S
C2682 H2662 0.950 . S
C2682 C2681 1.414 . S
C2682 C2683 1.374 . S
C2683 H2663 0.950 . S
C2683 C2679 1.385 . S
C2683 C2682 1.374 . S
C2684 C2681 1.499 . S
C2684 C2685 1.373 . S
C2684 C2686 1.389 . S
C2685 H2664 0.950 . S
C2685 C2684 1.373 . S
C2685 C2701 1.377 . S
C2686 C2684 1.389 . S
C2686 C2687 1.524 . S
C2686 C2700 1.377 . S
C2687 C2686 1.524 . S
C2687 C2688 1.397 . S
C2687 C2692 1.363 . S
C2688 H2665 0.950 . S
C2688 C2687 1.397 . S
C2688 C2689 1.334 . S
C2689 H2666 0.950 . S
C2689 C2688 1.334 . S
C2689 C2690 1.287 . S
C2690 C2689 1.287 . S
C2690 C2691 1.524 . S
C2690 H2709 0.913 . S
C2691 H2667 0.950 . S
C2691 C2690 1.524 . S
C2691 C2692 1.415 . S
C2692 H2668 0.950 . S
C2692 C2687 1.363 . S
C2692 C2691 1.415 . S
C2693 H2669 0.951 1_554 S
C2693 C2694 1.366 . S
C2693 C2695 1.388 . S
C2694 C2693 1.366 . S
C2694 C2698 1.385 . S
C2695 H2670 0.951 1_554 S
C2695 C2693 1.388 . S
C2695 C2696 1.366 . S
C2696 C2695 1.366 . S
C2696 C2697 1.414 . S
C2696 C2699 1.499 . S
C2697 H2671 0.950 . S
C2697 C2696 1.414 . S
C2697 C2698 1.374 . S
C2698 H2672 0.950 . S
C2698 C2694 1.385 . S
C2698 C2697 1.374 . S
C2699 C2696 1.499 . S
C2699 C2700 1.373 . S
C2699 C2701 1.389 . S
C2700 H2673 0.950 . S
C2700 C2686 1.377 . S
C2700 C2699 1.373 . S
C2701 C2685 1.377 . S
C2701 C2699 1.389 . S
C2701 C2702 1.558 . S
C2702 C2701 1.558 . S
C2702 C2703 1.404 . S
C2702 C2707 1.325 1_554 S
C2703 H2674 0.950 . S
C2703 C2702 1.404 . S
C2703 C2704 1.334 1_554 S
C2704 H2675 0.950 . S
C2704 C2703 1.334 1_556 S
C2704 C2705 1.287 . S
C2705 C2704 1.287 . S
C2705 C2706 1.524 . S
C2705 H2708 0.999 . S
C2706 H2676 0.950 . S
C2706 C2705 1.524 . S
C2706 C2707 1.415 . S
C2707 H2677 0.950 . S
C2707 C2702 1.325 1_556 S
C2707 C2706 1.415 . S
H2708 C2705 0.999 . S
H2709 C2690 0.913 . S
H2710 C2728 0.951 . S
H2711 C2730 0.951 . S
H2712 C2732 0.950 . S
H2713 C2733 0.950 . S
H2714 C2735 0.950 . S
H2715 C2738 0.950 . S
H2716 C2739 0.950 1_565 S
H2717 C2741 0.950 . S
H2718 C2742 0.950 . S
H2719 C2743 0.951 . S
H2720 C2745 0.951 . S
H2721 C2747 0.950 . S
H2722 C2748 0.950 . S
H2723 C2750 0.950 1_556 S
H2724 C2753 0.950 . S
H2725 C2754 0.950 . S
H2726 C2756 0.950 . S
H2727 C2757 0.950 . S
C2728 H2710 0.951 . S
C2728 C2729 1.366 . S
C2728 C2730 1.388 . S
C2729 C2728 1.366 . S
C2729 C2733 1.385 1_545 S
C2730 H2711 0.951 . S
C2730 C2728 1.388 . S
C2730 C2731 1.366 1_545 S
C2731 C2730 1.366 1_565 S
C2731 C2732 1.414 . S
C2731 C2734 1.499 . S
C2732 H2712 0.950 . S
C2732 C2731 1.414 . S
C2732 C2733 1.374 . S
C2733 H2713 0.950 . S
C2733 C2729 1.385 1_565 S
C2733 C2732 1.374 . S
C2734 C2731 1.499 . S
C2734 C2735 1.373 . S
C2734 C2736 1.389 . S
C2735 H2714 0.950 . S
C2735 C2734 1.373 . S
C2735 C2751 1.377 . S
C2736 C2734 1.389 . S
C2736 C2737 1.524 1_554 S
C2736 C2750 1.377 . S
C2737 C2736 1.524 1_556 S
C2737 C2738 1.397 . S
C2737 C2742 1.363 1_565 S
C2738 H2715 0.950 . S
C2738 C2737 1.397 . S
C2738 C2739 1.337 1_565 S
C2739 H2716 0.950 1_545 S
C2739 C2738 1.337 1_545 S
C2739 C2740 1.284 . S
C2740 C2739 1.284 . S
C2740 C2741 1.524 . S
C2740 H2759 0.913 . S
C2741 H2717 0.950 . S
C2741 C2740 1.524 . S
C2741 C2742 1.415 . S
C2742 H2718 0.950 . S
C2742 C2737 1.363 1_545 S
C2742 C2741 1.415 . S
C2743 H2719 0.951 . S
C2743 C2744 1.366 . S
C2743 C2745 1.388 . S
C2744 C2743 1.366 . S
C2744 C2748 1.385 . S
C2745 H2720 0.951 . S
C2745 C2743 1.388 . S
C2745 C2746 1.366 . S
C2746 C2745 1.366 . S
C2746 C2747 1.414 . S
C2746 C2749 1.499 . S
C2747 H2721 0.950 . S
C2747 C2746 1.414 . S
C2747 C2748 1.374 . S
C2748 H2722 0.950 . S
C2748 C2744 1.385 . S
C2748 C2747 1.374 . S
C2749 C2746 1.499 . S
C2749 C2750 1.373 . S
C2749 C2751 1.389 . S
C2750 H2723 0.950 1_554 S
C2750 C2736 1.377 . S
C2750 C2749 1.373 . S
C2751 C2735 1.377 . S
C2751 C2749 1.389 . S
C2751 C2752 1.524 . S
C2752 C2751 1.524 . S
C2752 C2753 1.397 . S
C2752 C2757 1.363 . S
C2753 H2724 0.950 . S
C2753 C2752 1.397 . S
C2753 C2754 1.334 . S
C2754 H2725 0.950 . S
C2754 C2753 1.334 . S
C2754 C2755 1.287 . S
C2755 C2754 1.287 . S
C2755 C2756 1.524 . S
C2755 H2758 0.999 . S
C2756 H2726 0.950 . S
C2756 C2755 1.524 . S
C2756 C2757 1.415 . S
C2757 H2727 0.950 . S
C2757 C2752 1.363 . S
C2757 C2756 1.415 . S
H2758 C2755 0.999 . S
H2759 C2740 0.913 . S
C394 C203 1.706 . S
C379 C66 1.738 . S
C444 C211 0.949 . S
C429 C76 1.118 . S
C479 C93 1.824 . S
C494 C231 1.799 . S
C544 C245 1.454 . S
C529 C54 1.479 . S
C594 C260 1.493 . S
C579 C126 1.494 . S
C644 C274 1.890 . S
C629 C150 1.892 . S
C679 C136 1.168 . S
C694 C288 1.172 . S
C744 C294 1.734 . S
C729 C117 1.802 . S
C779 C141 1.269 . S
C794 C308 1.246 . S
C844 C329 1.330 . S
C829 C112 1.349 . S
C879 C124 1.486 . S
C894 C309 1.259 . S
C944 C330 1.241 . S
C929 C148 1.235 . S
C979 C88 1.219 . S
C994 C337 1.068 . S
C1029 C52 1.624 . S
C1044 C343 1.598 . S
C1079 C64 1.226 . S
C1094 C336 1.194 . S
C1129 C78 1.107 . S
C1144 C344 1.111 . S
C1179 C45 1.744 . S
C1194 C238 1.718 1_565 S
C1229 C177 1.946 . S
C1244 C239 1.723 . S
C1294 C196 1.371 . S
C1279 C189 1.406 . S
C1344 C217 1.540 . S
C1329 C102 1.563 . S
C1379 C57 1.771 1_545 S
C1394 C252 1.754 . S
C1444 C302 1.454 . S
C1429 C138 1.450 . S
C1494 C253 1.572 . S
C1479 C114 1.777 1_545 S
C1544 C281 1.478 . S
C1529 C153 1.788 . S
C1594 C287 1.707 . S
C1579 C174 1.739 . S
C1629 C184 1.118 . S
C1644 C295 0.949 . S
C1679 C105 1.825 . S
C1694 C259 1.799 . S
C1744 C273 1.454 . S
C1729 C162 1.479 . S
C1779 C42 1.494 . S
C1794 C232 1.493 . S
C1844 C246 1.890 . S
C1829 C6 1.892 . S
C1894 C204 1.172 . S
C1879 C16 1.167 . S
C1944 C210 1.734 . S
C1929 C33 1.802 1_455 S
C1979 C21 1.269 . S
C1994 C322 1.247 . S
C2029 C28 1.349 . S
C2044 C315 1.331 . S
C2079 C40 1.486 . S
C2094 C323 1.260 . S
C2129 C4 1.235 . S
C2144 C316 1.241 . S
C2194 C351 1.065 . S
C2179 C100 1.219 . S
C2244 C357 1.598 . S
C2229 C160 1.624 1_554 S
C2294 C350 1.197 . S
C2279 C172 1.226 . S
C2329 C186 1.107 . S
C2344 C358 1.111 . S
C2379 C129 1.744 . S
C2394 C266 1.718 . S
C2444 C267 1.722 . S
C2429 C69 1.945 . S
C2494 C280 1.371 . S
C2479 C81 1.406 . S
C2544 C301 1.540 . S
C2529 C90 1.566 . S
C2579 C165 1.771 . S
C2594 C224 1.754 1_556 S
C2644 C218 1.454 . S
C2629 C18 1.453 . S
C2679 C30 1.777 . S
C2694 C225 1.573 . S
C2744 C197 1.480 . S
C2729 C9 1.788 . S
