# Generated by pormake.
# Topology ftw, (4,12)-cn, num edge types: 1
# Building blocks:
#     Node 0, Type 0, BuildingBlock: MUDLON_clean_linker_0, # of connection points: 4
#     Node 1, Type 0, BuildingBlock: MUDLON_clean_linker_0, # of connection points: 4
#     Node 2, Type 0, BuildingBlock: MUDLON_clean_linker_0, # of connection points: 4
#     Node 3, Type 1, BuildingBlock: EZIPEK_clean_sbu_0, # of connection points: 12
#     Edge 4, Type (0, 1), BuildingBlock: EZIPEK_clean_linker_0, # of connection points: 2
#     Edge 5, Type (0, 1), BuildingBlock: EZIPEK_clean_linker_0, # of connection points: 2
#     Edge 6, Type (0, 1), BuildingBlock: EZIPEK_clean_linker_0, # of connection points: 2
#     Edge 7, Type (0, 1), BuildingBlock: EZIPEK_clean_linker_0, # of connection points: 2
#     Edge 8, Type (0, 1), BuildingBlock: EZIPEK_clean_linker_0, # of connection points: 2
#     Edge 9, Type (0, 1), BuildingBlock: EZIPEK_clean_linker_0, # of connection points: 2
#     Edge 10, Type (0, 1), BuildingBlock: EZIPEK_clean_linker_0, # of connection points: 2
#     Edge 11, Type (0, 1), BuildingBlock: EZIPEK_clean_linker_0, # of connection points: 2
#     Edge 12, Type (0, 1), BuildingBlock: EZIPEK_clean_linker_0, # of connection points: 2
#     Edge 13, Type (0, 1), BuildingBlock: EZIPEK_clean_linker_0, # of connection points: 2
#     Edge 14, Type (0, 1), BuildingBlock: EZIPEK_clean_linker_0, # of connection points: 2
#     Edge 15, Type (0, 1), BuildingBlock: EZIPEK_clean_linker_0, # of connection points: 2
# Relax obj value: 0.081
# Max RMSD: 0.225
# Mean RMSD: 0.171
data_MOF--net-ftw--node1-EZIPEK_clean_sbu_0--node2-MUDLON_clean_linker_0--edge1-EZIPEK_clean_linker_0
_symmetry_space_group_name_H-M    P1
_symmetry_Int_Tables_number       1
_symmetry_cell_setting            triclinic
loop_
_symmetry_equiv_pos_as_xyz
'x, y, z'
_cell_length_a     23.840574
_cell_length_b     26.240442
_cell_length_c     24.090603
_cell_angle_alpha  90.119173
_cell_angle_beta   89.984771
_cell_angle_gamma 90.078947
loop_
_atom_site_label
_atom_site_type_symbol
_atom_site_fract_x
_atom_site_fract_y
_atom_site_fract_z
_atom_type_partial_charge
H0 H 0.97112 0.82791 0.58921 0.0
N1 N 0.99062 0.73132 0.55667 0.0
H2 H 0.98472 0.86471 0.6818 0.0
H3 H 0.04606 0.68733 0.64571 0.0
H4 H 0.05624 0.72342 0.73834 0.0
H5 H 0.09157 0.75792 0.51075 0.0
H6 H 0.10621 0.79944 0.42023 0.0
H7 H 0.91285 0.76573 0.4868 0.0
H8 H 0.92713 0.80957 0.39772 0.0
H9 H 0.90557 0.66876 0.5791 0.0
H10 H 0.07831 0.66989 0.52697 0.0
H11 H 0.90542 0.57554 0.57737 0.0
H12 H 0.07803 0.57707 0.52206 0.0
H13 H 0.90972 0.30792 0.60748 0.0
H14 H 0.92009 0.2634 0.69664 0.0
H15 H 0.09937 0.28406 0.68788 0.0
H16 H 0.08898 0.32552 0.5969 0.0
H17 H 0.0847 0.3613 0.48186 0.0
H18 H 0.10128 0.32638 0.3884 0.0
H19 H 0.9445 0.24466 0.39737 0.0
H20 H 0.92696 0.28138 0.48974 0.0
H21 H 0.90599 0.41036 0.51886 0.0
H22 H 0.90597 0.50362 0.51894 0.0
H23 H 0.07766 0.50311 0.57687 0.0
N24 N 0.99021 0.34832 0.54478 0.0
H25 H 0.07782 0.41034 0.5738 0.0
C26 C 0.00781 0.75478 0.60894 0.0
C27 C 0.99153 0.8052 0.62075 0.0
C28 C 0.99889 0.82616 0.67389 0.0
C29 C 0.02156 0.79691 0.71728 0.0
C30 C 0.03905 0.74694 0.70562 0.0
C31 C 0.03303 0.72635 0.65212 0.0
C32 C 0.00099 0.75845 0.50537 0.0
C33 C 0.05554 0.76846 0.48602 0.0
C34 C 0.06383 0.79213 0.43435 0.0
C35 C 0.01775 0.80736 0.4017 0.0
C36 C 0.96334 0.79782 0.42162 0.0
C37 C 0.95516 0.77326 0.47261 0.0
C38 C 0.99147 0.67636 0.55248 0.0
C39 C 0.94317 0.64878 0.5664 0.0
C40 C 0.94319 0.59546 0.56504 0.0
C41 C 0.99166 0.56836 0.54928 0.0
C42 C 0.04009 0.59632 0.53505 0.0
C43 C 0.04013 0.64967 0.537 0.0
C44 C 0.99835 0.3206 0.59588 0.0
C45 C 0.95126 0.30238 0.6246 0.0
C46 C 0.95719 0.27728 0.67553 0.0
C47 C 0.01047 0.27068 0.69945 0.0
C48 C 0.05781 0.28887 0.67054 0.0
C49 C 0.0519 0.31282 0.61876 0.0
C50 C 0.00434 0.32401 0.49278 0.0
C51 C 0.05398 0.3358 0.46386 0.0
C52 C 0.06337 0.31598 0.41045 0.0
C53 C 0.02405 0.28296 0.38567 0.0
C54 C 0.97534 0.27012 0.41542 0.0
C55 C 0.96551 0.29069 0.46822 0.0
C56 C 0.99146 0.40329 0.5469 0.0
C57 C 0.94348 0.43059 0.5316 0.0
C58 C 0.94356 0.48393 0.53204 0.0
C59 C 0.99175 0.51133 0.54821 0.0
C60 C 0.03994 0.48364 0.56348 0.0
C61 C 0.03992 0.43027 0.56248 0.0
H62 H 0.48436 0.90861 0.27538 0.0
N63 N 0.54825 0.96291 0.34327 0.0
H64 H 0.39677 0.93535 0.23082 0.0
H65 H 0.50799 0.06084 0.33871 0.0
H66 H 0.41618 0.08556 0.30197 0.0
H67 H 0.61517 0.93588 0.26094 0.0
H68 H 0.7104 0.96689 0.24239 0.0
H69 H 0.60194 0.04206 0.39743 0.0
H70 H 0.69833 0.07057 0.38052 0.0
H71 H 0.57426 0.87711 0.39607 0.0
H72 H 0.50045 1.02547 0.42247 0.0
H73 H 0.56786 0.86059 0.4965 0.0
H74 H 0.49313 1.00879 0.52017 0.0
H75 H 0.44456 0.87571 0.81921 0.0
H76 H 0.34976 0.90474 0.8445 0.0
H77 H 0.37316 0.03985 0.74563 0.0
H78 H 0.46773 1.01209 0.72187 0.0
H79 H 0.53793 1.01503 0.80219 0.0
H80 H 0.62684 0.04254 0.84327 0.0
H81 H 0.69859 0.89529 0.80799 0.0
H82 H 0.6091 0.86691 0.76848 0.0
H83 H 0.48701 0.84932 0.67962 0.0
H84 H 0.49255 0.8534 0.5776 0.0
H85 H 0.57209 1.00095 0.59006 0.0
N86 N 0.51749 0.92144 0.75189 0.0
H87 H 0.5659 0.99721 0.69038 0.0
C88 C 0.50121 0.98197 0.3123 0.0
C89 C 0.47033 0.94764 0.27999 0.0
C90 C 0.42035 0.96283 0.25507 0.0
C91 C 0.39905 1.01205 0.26445 0.0
C92 C 0.43135 0.04721 0.29477 0.0
C93 C 0.48326 0.03287 0.3165 0.0
C94 C 0.60161 0.98591 0.33078 0.0
C95 C 0.63258 0.96599 0.28651 0.0
C96 C 0.68669 0.98346 0.27606 0.0
C97 C 0.71115 1.02075 0.31003 0.0
C98 C 0.67996 0.04184 0.35375 0.0
C99 C 0.62502 1.02527 0.36344 0.0
C100 C 0.53795 0.95231 0.4011 0.0
C101 C 0.5558 0.90557 0.42304 0.0
C102 C 0.55204 0.89617 0.48007 0.0
C103 C 0.53066 0.93378 0.51572 0.0
C104 C 0.51054 0.97951 0.49348 0.0
C105 C 0.51428 0.98882 0.43695 0.0
C106 C 0.46362 0.94145 0.76891 0.0
C107 C 0.4294 0.91178 0.80346 0.0
C108 C 0.3753 0.92804 0.81736 0.0
C109 C 0.35452 0.97426 0.79661 0.0
C110 C 0.38837 1.00388 0.76164 0.0
C111 C 0.4426 0.988 0.74838 0.0
C112 C 0.56625 0.93811 0.78286 0.0
C113 C 0.5721 0.9881 0.80398 0.0
C114 C 0.62322 1.00426 0.82671 0.0
C115 C 0.66943 0.97122 0.82777 0.0
C116 C 0.66355 0.92152 0.80698 0.0
C117 C 0.61241 0.90512 0.78524 0.0
C118 C 0.52574 0.9228 0.69262 0.0
C119 C 0.50615 0.88215 0.66006 0.0
C120 C 0.50949 0.88442 0.60217 0.0
C121 C 0.53215 0.92772 0.57641 0.0
C122 C 0.55369 0.96747 0.60909 0.0
C123 C 0.55045 0.96518 0.66654 0.0
H124 H 0.49647 0.27941 0.0668 0.0
N125 N 0.52648 0.35468 0.99231 0.0
H126 H 0.40355 0.23929 0.07515 0.0
H127 H 0.43289 0.37666 0.93712 0.0
H128 H 0.33926 0.34 0.94913 0.0
H129 H 0.5553 0.26423 0.94847 0.0
H130 H 0.64299 0.21663 0.96186 0.0
H131 H 0.61558 0.37977 0.06217 0.0
H132 H 0.70274 0.33369 0.07272 0.0
H133 H 0.51025 0.39742 0.09407 0.0
H134 H 0.54071 0.43182 0.9222 0.0
H135 H 0.51187 0.48823 0.11665 0.0
H136 H 0.53785 0.52284 0.94278 0.0
H137 H 0.48574 0.79663 0.1547 0.0
H138 H 0.39776 0.84324 0.13934 0.0
H139 H 0.38157 0.77282 0.97822 0.0
H140 H 0.47096 0.72814 0.99256 0.0
H141 H 0.57666 0.78502 1.00388 0.0
H142 H 0.67116 0.82328 1.0008 0.0
H143 H 0.70765 0.75954 0.16159 0.0
H144 H 0.61314 0.72205 0.16489 0.0
H145 H 0.47266 0.65517 0.13779 0.0
H146 H 0.46692 0.56497 0.11357 0.0
H147 H 0.58495 0.59012 0.97972 0.0
N148 N 0.53307 0.72753 0.0885 0.0
H149 H 0.5861 0.68043 1.00131 0.0
C150 C 0.47227 0.33049 1.00022 0.0
C151 C 0.46279 0.29229 0.0402 0.0
C152 C 0.40957 0.26965 0.04532 0.0
C153 C 0.36437 0.28622 1.01232 0.0
C154 C 0.37342 0.32603 0.97452 0.0
C155 C 0.42687 0.34695 0.96769 0.0
C156 C 0.57711 0.32557 1.00456 0.0
C157 C 0.58674 0.27927 0.97652 0.0
C158 C 0.63699 0.25229 0.98377 0.0
C159 C 0.67965 0.27171 1.01812 0.0
C160 C 0.67049 0.31792 0.04604 0.0
C161 C 0.61988 0.34424 0.03993 0.0
C162 C 0.52651 0.40816 1.0066 0.0
C163 C 0.51682 0.42486 0.06118 0.0
C164 C 0.51713 0.47696 0.07374 0.0
C165 C 0.52522 0.51362 1.03166 0.0
C166 C 0.53313 0.4963 0.97677 0.0
C167 C 0.53434 0.44421 0.96464 0.0
C168 C 0.48475 0.75854 0.07524 0.0
C169 C 0.46378 0.79202 0.11566 0.0
C170 C 0.41353 0.81835 0.10699 0.0
C171 C 0.3827 0.81113 0.05787 0.0
C172 C 0.4045 0.77885 1.01649 0.0
C173 C 0.4555 0.75333 1.02472 0.0
C174 C 0.58762 0.75146 0.08525 0.0
C175 C 0.6049 0.77955 0.03852 0.0
C176 C 0.65892 0.80083 1.0365 0.0
C177 C 0.69646 0.79394 0.08087 0.0
C178 C 0.67947 0.76503 0.12685 0.0
C179 C 0.62556 0.74411 0.12897 0.0
C180 C 0.53032 0.67453 0.07217 0.0
C181 C 0.49684 0.64102 0.10298 0.0
C182 C 0.4942 0.58924 0.08931 0.0
C183 C 0.52602 0.56942 0.04493 0.0
C184 C 0.55908 0.6035 1.01364 0.0
C185 C 0.56048 0.65548 1.02647 0.0
C186 C 0.01787 0.15583 0.90646 0.0
C187 C 0.03847 0.17148 0.17914 0.0
C188 C 0.02483 0.90979 0.92327 0.0
C189 C 0.04086 0.92726 0.19726 0.0
C190 C 0.17377 0.92407 0.04664 0.0
C191 C 0.15931 0.17025 1.02972 0.0
C192 C 0.90081 0.91318 0.0745 0.0
C193 C 0.88621 0.15689 0.04719 0.0
C194 C 0.91426 0.04641 0.20132 0.0
C195 C 0.18327 0.04761 0.16462 0.0
C196 C 0.87887 1.02214 0.93666 0.0
C197 C 0.15089 1.02899 0.90407 0.0
Eu198 Eu 0.02528 0.13944 0.04428 0.0
O199 O 0.08273 0.09231 0.09102 0.0
O200 O 0.97359 0.08208 1.00468 0.0
Eu201 Eu 0.13367 0.04515 0.03859 0.0
Eu202 Eu 0.92719 0.03756 0.06397 0.0
O203 O 0.07082 0.08576 0.99284 0.0
O204 O 0.98552 0.08871 0.10302 0.0
Eu205 Eu 0.01792 0.0343 0.94643 0.0
Eu206 Eu 0.04369 0.04741 0.15484 0.0
O207 O 0.07488 0.9941 1.00014 0.0
O208 O 0.08805 0.99933 0.09739 0.0
O209 O 0.99067 0.99662 0.10832 0.0
O210 O 0.97895 0.99034 1.01167 0.0
Eu211 Eu 0.03582 0.94225 0.05814 0.0
O212 O 0.02519 0.17549 0.95744 0.0
O213 O 0.03037 0.18552 0.12601 0.0
O214 O 0.03074 0.89597 0.97668 0.0
O215 O 0.04381 0.90684 0.14595 0.0
O216 O 0.18616 0.97345 0.04173 0.0
O217 O 0.17703 0.12196 1.02719 0.0
O218 O 0.88364 0.96159 0.07403 0.0
O219 O 0.87393 0.10847 0.05845 0.0
O220 O 0.96882 0.04977 0.21233 0.0
O221 O 0.13314 0.04495 0.18955 0.0
O222 O 0.92909 1.02353 0.91173 0.0
O223 O 0.09629 0.03051 0.89113 0.0
O224 O 0.95412 0.89768 0.06987 0.0
O225 O 0.12208 0.90452 0.05192 0.0
O226 O 0.93791 0.17624 0.0406 0.0
O227 O 0.10621 0.18525 1.03669 0.0
O228 O 0.04558 0.12388 0.19686 0.0
O229 O 0.03811 0.977 0.20791 0.0
O230 O 0.0113 0.10632 0.89477 0.0
O231 O 0.01886 0.95726 0.90461 0.0
O232 O 0.17178 0.03384 0.9549 0.0
O233 O 0.19215 0.05088 0.11047 0.0
O234 O 0.86972 1.02771 0.99081 0.0
O235 O 0.89116 0.0423 0.15104 0.0
C236 C 0.99523 0.27365 0.28508 0.0
C237 C 0.03322 0.26155 0.32859 0.0
C238 C 0.08504 0.20647 0.26411 0.0
C239 C 0.04108 0.2106 0.22446 0.0
N240 N 0.95113 0.24627 0.1995 0.0
N241 N 0.11124 0.21109 0.36098 0.0
C242 C 0.99564 0.24431 0.23509 0.0
C243 C 0.07782 0.22702 0.31832 0.0
N244 N 0.95922 0.31373 0.29123 0.0
N245 N 0.13389 0.18261 0.24983 0.0
H246 H 0.1066 0.22385 0.40172 0.0
H247 H 0.14022 0.18163 0.357 0.0
H248 H 0.14059 0.16722 0.21045 0.0
H249 H 0.16948 0.18267 0.27492 0.0
H250 H 0.93433 0.32753 0.25908 0.0
H251 H 0.95843 0.33642 0.32684 0.0
H252 H 0.91376 0.26491 0.20893 0.0
H253 H 0.9498 0.22645 0.16211 0.0
C254 C 0.81191 0.99583 0.30656 0.0
C255 C 0.77072 0.03444 0.30046 0.0
C256 C 0.84048 0.08916 0.2565 0.0
C257 C 0.87479 0.04616 0.24844 0.0
N258 N 0.89964 0.96032 0.27302 0.0
N259 N 0.74613 0.11967 0.27114 0.0
C260 C 0.86312 1.0002 0.27681 0.0
C261 C 0.78542 0.08229 0.27728 0.0
N262 N 0.80125 0.955 0.34007 0.0
N263 N 0.86113 0.13636 0.24478 0.0
H264 H 0.70503 0.11609 0.28531 0.0
H265 H 0.75362 0.15298 0.24885 0.0
H266 H 0.90199 0.14152 0.23012 0.0
H267 H 0.84033 0.1698 0.25575 0.0
H268 H 0.83073 0.92708 0.34939 0.0
H269 H 0.76404 0.95166 0.36265 0.0
H270 H 0.89099 0.92376 0.2874 0.0
H271 H 0.93821 0.96358 0.25307 0.0
C272 C 0.00545 0.81655 0.29722 0.0
C273 C 0.0262 0.83603 0.34834 0.0
C274 C 0.06602 0.90882 0.29807 0.0
C275 C 0.03872 0.89323 0.24789 0.0
N276 N 0.96857 0.83786 0.20681 0.0
N277 N 0.06385 0.90808 0.39837 0.0
C278 C 0.00486 0.84837 0.24916 0.0
C279 C 0.05307 0.88418 0.34901 0.0
N280 N 0.98678 0.76741 0.29415 0.0
N281 N 0.10549 0.94655 0.29765 0.0
H282 H 0.05319 0.89259 0.43678 0.0
H283 H 0.07767 0.94572 0.40092 0.0
H284 H 0.11705 0.96624 0.26221 0.0
H285 H 0.13093 0.95477 0.33172 0.0
H286 H 0.97616 0.74988 0.25672 0.0
H287 H 0.98738 0.74277 0.32807 0.0
H288 H 0.93936 0.80831 0.20851 0.0
H289 H 0.96241 0.86213 0.1733 0.0
C290 C 0.33282 0.06844 0.20988 0.0
C291 C 0.34186 1.02538 0.24443 0.0
C292 C 0.24641 0.99659 0.22597 0.0
C293 C 0.23482 0.04274 0.19807 0.0
N294 N 0.26463 0.12714 0.17205 0.0
N295 N 0.30014 0.95778 0.29903 0.0
C296 C 0.27725 0.0804 0.19331 0.0
C297 C 0.29626 0.99257 0.25717 0.0
N298 N 0.3771 0.09571 0.18947 0.0
N299 N 0.21308 0.95484 0.21856 0.0
H300 H 0.33501 0.95545 0.32506 0.0
H301 H 0.26607 0.93557 0.31149 0.0
H302 H 0.17885 0.95471 0.19161 0.0
H303 H 0.22323 0.91913 0.2346 0.0
H304 H 0.37255 0.12441 0.16 0.0
H305 H 0.41878 0.08613 0.19712 0.0
H306 H 0.29283 0.15753 0.172 0.0
H307 H 0.22417 0.13653 0.15937 0.0
C308 C 0.97116 0.83002 0.80203 0.0
C309 C 0.02264 0.81768 0.77552 0.0
C310 C 0.07364 0.84927 0.85791 0.0
C311 C 0.02291 0.86982 0.87909 0.0
N312 N 0.92314 0.88157 0.87067 0.0
N313 N 0.12385 0.8165 0.77747 0.0
C314 C 0.97154 0.86025 0.85115 0.0
C315 C 0.07424 0.82672 0.80371 0.0
N316 N 0.92186 0.81158 0.78103 0.0
N317 N 0.1214 0.85257 0.8891 0.0
H318 H 0.12606 0.80183 0.73731 0.0
H319 H 0.16304 0.8258 0.79357 0.0
H320 H 0.12222 0.86993 0.92808 0.0
H321 H 0.15898 0.83486 0.87862 0.0
H322 H 0.88349 0.8151 0.80133 0.0
H323 H 0.92008 0.78813 0.74604 0.0
H324 H 0.88557 0.88173 0.84862 0.0
H325 H 0.92156 0.90178 0.90788 0.0
C326 C 0.29617 0.03635 0.85043 0.0
C327 C 0.29884 0.9935 0.81475 0.0
C328 C 0.19682 0.98151 0.82356 0.0
C329 C 0.19494 1.02379 0.86043 0.0
N330 N 0.23787 0.10185 0.89051 0.0
N331 N 0.251 0.93362 0.75541 0.0
C332 C 0.24314 0.05482 0.86703 0.0
C333 C 0.24873 0.96882 0.79724 0.0
N334 N 0.34413 0.05749 0.87158 0.0
N335 N 0.15021 0.95221 0.81554 0.0
H336 H 0.28842 0.92376 0.73567 0.0
H337 H 0.2157 0.91748 0.73698 0.0
H338 H 0.11126 0.96089 0.83243 0.0
H339 H 0.15032 0.91835 0.79317 0.0
H340 H 0.34401 0.08516 0.90267 0.0
H341 H 0.38422 0.04422 0.86219 0.0
H342 H 0.27063 0.12801 0.89276 0.0
H343 H 0.19888 0.11601 0.90243 0.0
C344 C 0.98996 0.26464 0.80267 0.0
C345 C 0.01629 0.24429 0.75445 0.0
C346 C 0.05579 0.17596 0.81167 0.0
C347 C 0.02117 0.19051 0.85704 0.0
N348 N 0.95109 0.24793 0.89379 0.0
N349 N 0.06691 0.1746 0.71202 0.0
C350 C 0.98737 0.23493 0.85227 0.0
C351 C 0.04742 0.19839 0.75869 0.0
N352 N 0.96896 0.31306 0.80172 0.0
N353 N 0.0983 0.14192 0.81963 0.0
H354 H 0.05992 0.18838 0.67207 0.0
H355 H 0.08497 0.13845 0.71273 0.0
H356 H 0.10795 0.12735 0.85868 0.0
H357 H 0.12796 0.1333 0.78924 0.0
H358 H 0.95431 0.33179 0.83701 0.0
H359 H 0.9715 0.33643 0.76683 0.0
H360 H 0.92055 0.276 0.88947 0.0
H361 H 0.94854 0.22832 0.93118 0.0
C362 C 0.73958 0.96086 0.90352 0.0
C363 C 0.72303 0.9865 0.85469 0.0
C364 C 0.80951 0.0378 0.85836 0.0
C365 C 0.82832 1.00801 0.90379 0.0
N366 N 0.81717 0.9317 0.95835 0.0
N367 N 0.74583 0.04404 0.77995 0.0
C368 C 0.79502 0.9668 0.92302 0.0
C369 C 0.75901 1.02357 0.83036 0.0
N370 N 0.7019 0.93187 0.93245 0.0
N371 N 0.83838 0.0806 0.84335 0.0
H372 H 0.70934 0.03449 0.75841 0.0
H373 H 0.77311 0.06728 0.75761 0.0
H374 H 0.87541 0.09199 0.86279 0.0
H375 H 0.82334 0.10683 0.81459 0.0
H376 H 0.71053 0.91671 0.97149 0.0
H377 H 0.66014 0.9275 0.92039 0.0
H378 H 0.79635 0.89812 0.96867 0.0
H379 H 0.85872 0.93315 0.97143 0.0
C380 C 0.28289 0.23891 0.96857 0.0
C381 C 0.30768 0.26159 1.0164 0.0
C382 C 0.22668 0.2337 0.07225 0.0
C383 C 0.20349 0.21014 1.02446 0.0
N384 N 0.19643 0.21066 0.9253 0.0
N385 N 0.29529 0.2931 0.10983 0.0
C386 C 0.22751 0.21922 0.97193 0.0
C387 C 0.27717 0.26275 0.06726 0.0
N388 N 0.3131 0.23354 0.92069 0.0
N389 N 0.20038 0.22817 0.12221 0.0
H390 H 0.3308 0.31618 0.10683 0.0
H391 H 0.2727 0.2991 0.14622 0.0
H392 H 0.16148 0.21028 0.12594 0.0
H393 H 0.21783 0.23925 0.15996 0.0
H394 H 0.29791 0.21455 0.88578 0.0
H395 H 0.35524 0.24367 0.91735 0.0
H396 H 0.2097 0.22108 0.88569 0.0
H397 H 0.15503 0.19767 0.92727 0.0
C398 C 0.3175 0.87271 1.00903 0.0
C399 C 0.32656 0.83592 0.05121 0.0
C400 C 0.23306 0.8542 0.08958 0.0
C401 C 0.22281 0.88878 0.04542 0.0
N402 N 0.24908 0.9188 0.95446 0.0
N403 N 0.28679 0.78182 0.12199 0.0
C404 C 0.26318 0.8942 1.0024 0.0
C405 C 0.28233 0.82357 0.08847 0.0
N406 N 0.36118 0.88912 0.97696 0.0
N407 N 0.19769 0.85234 0.13417 0.0
H408 H 0.32157 0.75775 0.12141 0.0
H409 H 0.25369 0.76815 0.14599 0.0
H410 H 0.16161 0.87445 0.13751 0.0
H411 H 0.20685 0.83215 0.17023 0.0
H412 H 0.35803 0.91997 0.94998 0.0
H413 H 0.40192 0.87526 0.9811 0.0
H414 H 0.27517 0.92014 0.9198 0.0
H415 H 0.20881 0.93277 0.94718 0.0
C416 C 0.77016 0.23548 0.97928 0.0
C417 C 0.73394 0.24376 1.02536 0.0
C418 C 0.80409 0.20459 0.08649 0.0
C419 C 0.83688 0.19093 0.03975 0.0
N420 N 0.84478 0.18401 0.94025 0.0
N421 N 0.71208 0.2266 0.12145 0.0
C422 C 0.81826 0.20386 0.98566 0.0
C423 C 0.74982 0.22587 0.07872 0.0
N424 N 0.75979 0.25909 0.92985 0.0
N425 N 0.82517 0.19782 0.13854 0.0
H426 H 0.67114 0.23994 0.11709 0.0
H427 H 0.71949 0.20924 0.1596 0.0
H428 H 0.86442 0.18162 0.14543 0.0
H429 H 0.8062 0.21282 0.17392 0.0
H430 H 0.78785 0.25836 0.89669 0.0
H431 H 0.7259 0.28354 0.92382 0.0
H432 H 0.82932 0.18767 0.9 0.0
H433 H 0.87978 0.16034 0.94324 0.0
C434 C 0.79673 0.80374 0.04747 0.0
C435 C 0.75185 0.82051 0.08168 0.0
C436 C 0.8134 0.88518 0.1224 0.0
C437 C 0.85497 0.87477 0.0818 0.0
N438 N 0.88375 0.8259 1.00134 0.0
N439 N 0.71488 0.88313 0.14521 0.0
C440 C 0.84662 0.83384 0.04368 0.0
C441 C 0.75957 0.86268 0.11759 0.0
N442 N 0.79181 0.75895 1.01889 0.0
N443 N 0.82586 0.91595 0.16649 0.0
H444 H 0.67434 0.86831 0.14288 0.0
H445 H 0.71714 0.91808 0.16551 0.0
H446 H 0.8658 0.93129 0.17236 0.0
H447 H 0.79876 0.92131 0.19995 0.0
H448 H 0.82508 0.74198 0.9978 0.0
H449 H 0.75565 0.73652 1.02023 0.0
H450 H 0.87608 0.80094 0.96853 0.0
H451 H 0.92019 0.84719 0.99607 0.0
loop_
_geom_bond_atom_site_label_1
_geom_bond_atom_site_label_2
_geom_bond_distance
_geom_bond_site_symmetry_2
_ccdc_geom_bond_type
H0 C27 0.929 . S
N1 C26 1.433 . S
N1 C32 1.435 . S
N1 C38 1.423 1_455 S
H2 C28 0.930 . S
H3 C31 0.931 . S
H4 C30 0.929 . S
H5 C33 0.930 . S
H6 C34 0.932 . S
H7 C37 0.929 . S
H8 C36 0.931 . S
H9 C39 0.929 . S
H10 C43 0.932 . S
H11 C40 0.931 . S
H12 C42 0.929 . S
H13 C45 0.929 . S
H14 C46 0.930 . S
H15 C48 0.929 . S
H16 C49 0.931 . S
H17 C51 0.930 . S
H18 C52 0.932 . S
H19 C54 0.931 . S
H20 C55 0.929 . S
H21 C57 0.929 . S
H22 C58 0.931 . S
H23 C60 0.929 . S
N24 C44 1.433 . S
N24 C50 1.435 . S
N24 C56 1.423 1_455 S
H25 C61 0.932 . S
C26 N1 1.433 . S
C26 C27 1.363 1_455 S
C26 C31 1.370 . S
C27 H0 0.929 . S
C27 C26 1.363 1_655 S
C27 C28 1.385 . S
C28 H2 0.930 . S
C28 C27 1.385 . S
C28 C29 1.357 1_655 S
C29 C28 1.357 1_455 S
C29 C30 1.406 . S
C30 H4 0.929 . S
C30 C29 1.406 . S
C30 C31 1.391 . S
C31 H3 0.931 . S
C31 C26 1.370 . S
C31 C30 1.391 . S
C32 N1 1.435 . S
C32 C33 1.358 . S
C32 C37 1.371 1_455 S
C33 H5 0.930 . S
C33 C32 1.358 . S
C33 C34 1.405 . S
C34 H6 0.932 . S
C34 C33 1.405 . S
C34 C35 1.383 . S
C35 C34 1.383 . S
C35 C36 1.393 1_455 S
C36 H8 0.931 . S
C36 C35 1.393 1_655 S
C36 C37 1.382 . S
C37 H7 0.929 . S
C37 C32 1.371 1_655 S
C37 C36 1.382 . S
C38 N1 1.423 1_655 S
C38 C39 1.362 . S
C38 C43 1.388 1_655 S
C39 H9 0.929 . S
C39 C38 1.362 . S
C39 C40 1.376 . S
C40 H11 0.931 . S
C40 C39 1.376 . S
C40 C41 1.396 . S
C41 C40 1.396 . S
C41 C42 1.348 1_655 S
C41 C59 1.472 . S
C42 H12 0.929 . S
C42 C41 1.348 1_455 S
C42 C43 1.443 . S
C43 H10 0.932 . S
C43 C38 1.388 1_455 S
C43 C42 1.443 . S
C44 N24 1.433 . S
C44 C45 1.363 1_455 S
C44 C49 1.370 . S
C45 H13 0.929 . S
C45 C44 1.363 1_655 S
C45 C46 1.385 . S
C46 H14 0.930 . S
C46 C45 1.385 . S
C46 C47 1.357 1_655 S
C47 C46 1.357 1_455 S
C47 C48 1.406 . S
C48 H15 0.929 . S
C48 C47 1.406 . S
C48 C49 1.391 . S
C49 H16 0.931 . S
C49 C44 1.370 . S
C49 C48 1.391 . S
C50 N24 1.435 . S
C50 C51 1.358 . S
C50 C55 1.371 1_455 S
C51 H17 0.930 . S
C51 C50 1.358 . S
C51 C52 1.405 . S
C52 H18 0.932 . S
C52 C51 1.405 . S
C52 C53 1.383 . S
C53 C52 1.383 . S
C53 C54 1.393 1_455 S
C54 H19 0.931 . S
C54 C53 1.393 1_655 S
C54 C55 1.382 . S
C55 H20 0.929 . S
C55 C50 1.371 1_655 S
C55 C54 1.382 . S
C56 N24 1.423 1_655 S
C56 C57 1.362 . S
C56 C61 1.388 1_655 S
C57 H21 0.929 . S
C57 C56 1.362 . S
C57 C58 1.376 . S
C58 H22 0.931 . S
C58 C57 1.376 . S
C58 C59 1.396 . S
C59 C41 1.472 . S
C59 C58 1.396 . S
C59 C60 1.348 1_655 S
C60 H23 0.929 . S
C60 C59 1.348 1_455 S
C60 C61 1.443 . S
C61 H25 0.932 . S
C61 C56 1.388 1_455 S
C61 C60 1.443 . S
H62 C89 0.929 . S
N63 C88 1.433 . S
N63 C94 1.435 . S
N63 C100 1.423 . S
H64 C90 0.930 . S
H65 C93 0.931 . S
H66 C92 0.929 . S
H67 C95 0.930 . S
H68 C96 0.932 . S
H69 C99 0.929 . S
H70 C98 0.931 . S
H71 C101 0.929 . S
H72 C105 0.932 1_545 S
H73 C102 0.931 . S
H74 C104 0.929 1_545 S
H75 C107 0.929 . S
H76 C108 0.930 . S
H77 C110 0.929 . S
H78 C111 0.931 . S
H79 C113 0.930 . S
H80 C114 0.932 . S
H81 C116 0.931 . S
H82 C117 0.929 . S
H83 C119 0.929 . S
H84 C120 0.931 . S
H85 C122 0.929 1_545 S
N86 C106 1.433 . S
N86 C112 1.435 . S
N86 C118 1.423 . S
H87 C123 0.932 1_545 S
C88 N63 1.433 . S
C88 C89 1.363 . S
C88 C93 1.370 1_565 S
C89 H62 0.929 . S
C89 C88 1.363 . S
C89 C90 1.385 . S
C90 H64 0.930 . S
C90 C89 1.385 . S
C90 C91 1.357 . S
C91 C90 1.357 . S
C91 C92 1.406 1_565 S
C92 H66 0.929 . S
C92 C91 1.406 1_545 S
C92 C93 1.391 . S
C93 H65 0.931 . S
C93 C88 1.370 1_545 S
C93 C92 1.391 . S
C94 N63 1.435 . S
C94 C95 1.358 1_565 S
C94 C99 1.371 . S
C95 H67 0.930 . S
C95 C94 1.358 1_545 S
C95 C96 1.405 . S
C96 H68 0.932 . S
C96 C95 1.405 . S
C96 C97 1.383 1_545 S
C97 C96 1.383 1_565 S
C97 C98 1.393 . S
C98 H70 0.931 . S
C98 C97 1.393 . S
C98 C99 1.382 . S
C99 H69 0.929 . S
C99 C94 1.371 . S
C99 C98 1.382 . S
C100 N63 1.423 . S
C100 C101 1.362 . S
C100 C105 1.388 . S
C101 H71 0.929 . S
C101 C100 1.362 . S
C101 C102 1.376 . S
C102 H73 0.931 . S
C102 C101 1.376 . S
C102 C103 1.396 . S
C103 C102 1.396 . S
C103 C104 1.348 . S
C103 C121 1.472 . S
C104 H74 0.929 1_565 S
C104 C103 1.348 . S
C104 C105 1.443 . S
C105 H72 0.932 1_565 S
C105 C100 1.388 . S
C105 C104 1.443 . S
C106 N86 1.433 . S
C106 C107 1.363 . S
C106 C111 1.370 1_565 S
C107 H75 0.929 . S
C107 C106 1.363 . S
C107 C108 1.385 . S
C108 H76 0.930 . S
C108 C107 1.385 . S
C108 C109 1.357 . S
C109 C108 1.357 . S
C109 C110 1.406 1_565 S
C110 H77 0.929 . S
C110 C109 1.406 1_545 S
C110 C111 1.391 . S
C111 H78 0.931 . S
C111 C106 1.370 1_545 S
C111 C110 1.391 . S
C112 N86 1.435 . S
C112 C113 1.358 1_565 S
C112 C117 1.371 . S
C113 H79 0.930 . S
C113 C112 1.358 1_545 S
C113 C114 1.405 . S
C114 H80 0.932 . S
C114 C113 1.405 . S
C114 C115 1.383 1_545 S
C115 C114 1.383 1_565 S
C115 C116 1.393 . S
C116 H81 0.931 . S
C116 C115 1.393 . S
C116 C117 1.382 . S
C117 H82 0.929 . S
C117 C112 1.371 . S
C117 C116 1.382 . S
C118 N86 1.423 . S
C118 C119 1.362 . S
C118 C123 1.388 . S
C119 H83 0.929 . S
C119 C118 1.362 . S
C119 C120 1.376 . S
C120 H84 0.931 . S
C120 C119 1.376 . S
C120 C121 1.396 . S
C121 C103 1.472 . S
C121 C120 1.396 . S
C121 C122 1.348 . S
C122 H85 0.929 1_565 S
C122 C121 1.348 . S
C122 C123 1.443 . S
C123 H87 0.932 1_565 S
C123 C118 1.388 . S
C123 C122 1.443 . S
H124 C151 0.929 . S
N125 C150 1.433 . S
N125 C156 1.435 . S
N125 C162 1.423 . S
H126 C152 0.930 . S
H127 C155 0.931 . S
H128 C154 0.929 . S
H129 C157 0.930 . S
H130 C158 0.932 . S
H131 C161 0.929 . S
H132 C160 0.931 . S
H133 C163 0.929 . S
H134 C167 0.932 1_556 S
H135 C164 0.931 . S
H136 C166 0.940 . S
H137 C169 0.929 . S
H138 C170 0.930 . S
H139 C172 0.929 . S
H140 C173 0.931 . S
H141 C175 0.930 . S
H142 C176 0.932 . S
H143 C178 0.931 . S
H144 C179 0.929 . S
H145 C181 0.929 . S
H146 C182 0.931 . S
H147 C184 0.940 . S
N148 C168 1.433 . S
N148 C174 1.435 . S
N148 C180 1.423 . S
H149 C185 0.932 1_556 S
C150 N125 1.433 . S
C150 C151 1.363 . S
C150 C155 1.370 1_554 S
C151 H124 0.929 . S
C151 C150 1.363 . S
C151 C152 1.385 . S
C152 H126 0.930 . S
C152 C151 1.385 . S
C152 C153 1.357 . S
C153 C152 1.357 . S
C153 C154 1.406 1_554 S
C154 H128 0.929 . S
C154 C153 1.406 1_556 S
C154 C155 1.391 . S
C155 H127 0.931 . S
C155 C150 1.370 1_556 S
C155 C154 1.391 . S
C156 N125 1.435 . S
C156 C157 1.358 1_554 S
C156 C161 1.371 . S
C157 H129 0.930 . S
C157 C156 1.358 1_556 S
C157 C158 1.405 . S
C158 H130 0.932 . S
C158 C157 1.405 . S
C158 C159 1.383 1_556 S
C159 C158 1.383 1_554 S
C159 C160 1.393 . S
C160 H132 0.931 . S
C160 C159 1.393 . S
C160 C161 1.382 . S
C161 H131 0.929 . S
C161 C156 1.371 . S
C161 C160 1.382 . S
C162 N125 1.423 . S
C162 C163 1.362 . S
C162 C167 1.388 . S
C163 H133 0.929 . S
C163 C162 1.362 . S
C163 C164 1.376 . S
C164 H135 0.931 . S
C164 C163 1.376 . S
C164 C165 1.396 . S
C165 C164 1.396 . S
C165 C166 1.348 . S
C165 C183 1.472 . S
C166 H136 0.940 . S
C166 C165 1.348 . S
C166 C167 1.443 . S
C167 H134 0.932 1_554 S
C167 C162 1.388 . S
C167 C166 1.443 . S
C168 N148 1.433 . S
C168 C169 1.363 . S
C168 C173 1.370 1_554 S
C169 H137 0.929 . S
C169 C168 1.363 . S
C169 C170 1.385 . S
C170 H138 0.930 . S
C170 C169 1.385 . S
C170 C171 1.357 . S
C171 C170 1.357 . S
C171 C172 1.406 1_554 S
C172 H139 0.929 . S
C172 C171 1.406 1_556 S
C172 C173 1.391 . S
C173 H140 0.931 . S
C173 C168 1.370 1_556 S
C173 C172 1.391 . S
C174 N148 1.435 . S
C174 C175 1.358 1_554 S
C174 C179 1.371 . S
C175 H141 0.930 . S
C175 C174 1.358 1_556 S
C175 C176 1.405 . S
C176 H142 0.932 . S
C176 C175 1.405 . S
C176 C177 1.383 1_556 S
C177 C176 1.383 1_554 S
C177 C178 1.393 . S
C178 H143 0.931 . S
C178 C177 1.393 . S
C178 C179 1.382 . S
C179 H144 0.929 . S
C179 C174 1.371 . S
C179 C178 1.382 . S
C180 N148 1.423 . S
C180 C181 1.362 . S
C180 C185 1.388 . S
C181 H145 0.929 . S
C181 C180 1.362 . S
C181 C182 1.376 . S
C182 H146 0.931 . S
C182 C181 1.376 . S
C182 C183 1.396 . S
C183 C165 1.472 . S
C183 C182 1.396 . S
C183 C184 1.348 . S
C184 H147 0.940 . S
C184 C183 1.348 . S
C184 C185 1.443 . S
C185 H149 0.932 1_554 S
C185 C180 1.388 . S
C185 C184 1.443 . S
C186 O212 1.283 . S
C186 O230 1.283 . S
C187 O213 1.283 . S
C187 O228 1.283 . S
C188 O214 1.283 . S
C188 O231 1.283 . S
C189 O215 1.283 . S
C189 O229 1.283 . S
C190 O216 1.283 . S
C190 O225 1.283 . S
C191 O217 1.283 . S
C191 O227 1.283 . S
C192 O218 1.283 . S
C192 O224 1.283 . S
C193 O219 1.283 . S
C193 O226 1.283 . S
C194 O220 1.283 . S
C194 O235 1.283 . S
C195 O221 1.283 . S
C195 O233 1.283 . S
C196 O222 1.283 . S
C196 O234 1.283 . S
C197 O223 1.283 . S
C197 O232 1.283 . S
Eu198 O199 2.370 . S
Eu198 O200 2.370 1_454 S
Eu198 O203 2.370 1_554 S
Eu198 O204 2.370 1_455 S
Eu198 O212 2.363 1_554 S
Eu198 O213 2.363 . S
Eu198 O226 2.363 1_455 S
Eu198 O227 2.363 . S
O199 Eu198 2.370 . S
O199 Eu201 2.370 . S
O199 Eu206 2.370 . S
O200 Eu198 2.370 1_656 S
O200 Eu202 2.370 1_556 S
O200 Eu205 2.370 1_655 S
Eu201 O199 2.370 . S
Eu201 O203 2.370 1_554 S
Eu201 O207 2.370 1_544 S
Eu201 O208 2.370 1_545 S
Eu201 O216 2.363 1_545 S
Eu201 O217 2.363 . S
Eu201 O232 2.363 1_554 S
Eu201 O233 2.363 . S
Eu202 O200 2.370 1_554 S
Eu202 O204 2.370 . S
Eu202 O209 2.370 1_545 S
Eu202 O210 2.370 1_544 S
Eu202 O218 2.363 1_545 S
Eu202 O219 2.363 . S
Eu202 O234 2.363 1_554 S
Eu202 O235 2.363 . S
O203 Eu198 2.370 1_556 S
O203 Eu201 2.370 1_556 S
O203 Eu205 2.370 . S
O204 Eu198 2.370 1_655 S
O204 Eu202 2.370 . S
O204 Eu206 2.370 1_655 S
Eu205 O200 2.370 1_455 S
Eu205 O203 2.370 . S
Eu205 O207 2.370 1_545 S
Eu205 O210 2.370 1_445 S
Eu205 O222 2.363 1_455 S
Eu205 O223 2.363 . S
Eu205 O230 2.363 . S
Eu205 O231 2.363 1_545 S
Eu206 O199 2.370 . S
Eu206 O204 2.370 1_455 S
Eu206 O208 2.370 1_545 S
Eu206 O209 2.370 1_445 S
Eu206 O220 2.363 1_455 S
Eu206 O221 2.363 . S
Eu206 O228 2.363 . S
Eu206 O229 2.363 1_545 S
O207 Eu201 2.370 1_566 S
O207 Eu205 2.370 1_565 S
O207 Eu211 2.370 1_556 S
O208 Eu201 2.370 1_565 S
O208 Eu206 2.370 1_565 S
O208 Eu211 2.370 . S
O209 Eu202 2.370 1_565 S
O209 Eu206 2.370 1_665 S
O209 Eu211 2.370 1_655 S
O210 Eu202 2.370 1_566 S
O210 Eu205 2.370 1_665 S
O210 Eu211 2.370 1_656 S
Eu211 O207 2.370 1_554 S
Eu211 O208 2.370 . S
Eu211 O209 2.370 1_455 S
Eu211 O210 2.370 1_454 S
Eu211 O214 2.363 1_554 S
Eu211 O215 2.363 . S
Eu211 O224 2.363 1_455 S
Eu211 O225 2.363 . S
O212 C186 1.283 . S
O212 Eu198 2.363 1_556 S
O213 C187 1.283 . S
O213 Eu198 2.363 . S
O214 C188 1.283 . S
O214 Eu211 2.363 1_556 S
O215 C189 1.283 . S
O215 Eu211 2.363 . S
O216 C190 1.283 . S
O216 Eu201 2.363 1_565 S
O217 C191 1.283 . S
O217 Eu201 2.363 . S
O218 C192 1.283 . S
O218 Eu202 2.363 1_565 S
O219 C193 1.283 . S
O219 Eu202 2.363 . S
O220 C194 1.283 . S
O220 Eu206 2.363 1_655 S
O221 C195 1.283 . S
O221 Eu206 2.363 . S
O222 C196 1.283 . S
O222 Eu205 2.363 1_655 S
O223 C197 1.283 . S
O223 Eu205 2.363 . S
O224 C192 1.283 . S
O224 Eu211 2.363 1_655 S
O225 C190 1.283 . S
O225 Eu211 2.363 . S
O226 C193 1.283 . S
O226 Eu198 2.363 1_655 S
O227 C191 1.283 . S
O227 Eu198 2.363 . S
O228 C187 1.283 . S
O228 Eu206 2.363 . S
O229 C189 1.283 . S
O229 Eu206 2.363 1_565 S
O230 C186 1.283 . S
O230 Eu205 2.363 . S
O231 C188 1.283 . S
O231 Eu205 2.363 1_565 S
O232 C197 1.283 . S
O232 Eu201 2.363 1_556 S
O233 C195 1.283 . S
O233 Eu201 2.363 . S
O234 C196 1.283 . S
O234 Eu202 2.363 1_556 S
O235 C194 1.283 . S
O235 Eu202 2.363 . S
C236 C237 1.363 . S
C236 C242 1.379 . S
C236 N244 1.356 1_455 S
C237 C236 1.363 . S
C237 C243 1.363 . S
C238 C239 1.363 . S
C238 C243 1.379 . S
C238 N245 1.356 . S
C239 C238 1.363 . S
C239 C242 1.363 . S
N240 C242 1.356 1_655 S
N240 H252 0.984 . S
N240 H253 0.985 . S
N241 C243 1.356 . S
N241 H246 0.984 . S
N241 H247 0.985 . S
C242 C236 1.379 . S
C242 C239 1.363 . S
C242 N240 1.356 1_455 S
C243 C237 1.363 . S
C243 C238 1.379 . S
C243 N241 1.356 . S
N244 C236 1.356 1_655 S
N244 H250 0.984 . S
N244 H251 0.984 . S
N245 C238 1.356 . S
N245 H248 0.984 . S
N245 H249 0.985 . S
H246 N241 0.984 . S
H247 N241 0.985 . S
H248 N245 0.984 . S
H249 N245 0.985 . S
H250 N244 0.984 . S
H251 N244 0.984 . S
H252 N240 0.984 . S
H253 N240 0.985 . S
C254 C255 1.363 1_565 S
C254 C260 1.379 . S
C254 N262 1.356 . S
C255 C254 1.363 1_545 S
C255 C261 1.363 . S
C256 C257 1.363 . S
C256 C261 1.379 . S
C256 N263 1.356 . S
C257 C256 1.363 . S
C257 C260 1.363 1_545 S
N258 C260 1.356 . S
N258 H270 0.984 . S
N258 H271 0.985 . S
N259 C261 1.356 . S
N259 H264 0.984 . S
N259 H265 0.985 . S
C260 C254 1.379 . S
C260 C257 1.363 1_565 S
C260 N258 1.356 . S
C261 C255 1.363 . S
C261 C256 1.379 . S
C261 N259 1.356 . S
N262 C254 1.356 . S
N262 H268 0.984 . S
N262 H269 0.984 . S
N263 C256 1.356 . S
N263 H266 0.984 . S
N263 H267 0.985 . S
H264 N259 0.984 . S
H265 N259 0.985 . S
H266 N263 0.984 . S
H267 N263 0.985 . S
H268 N262 0.984 . S
H269 N262 0.984 . S
H270 N258 0.984 . S
H271 N258 0.985 . S
C272 C273 1.363 . S
C272 C278 1.379 . S
C272 N280 1.356 . S
C273 C272 1.363 . S
C273 C279 1.363 . S
C274 C275 1.363 . S
C274 C279 1.379 . S
C274 N281 1.356 . S
C275 C274 1.363 . S
C275 C278 1.363 . S
N276 C278 1.356 . S
N276 H288 0.984 . S
N276 H289 0.985 . S
N277 C279 1.356 . S
N277 H282 0.984 . S
N277 H283 0.985 . S
C278 C272 1.379 . S
C278 C275 1.363 . S
C278 N276 1.356 . S
C279 C273 1.363 . S
C279 C274 1.379 . S
C279 N277 1.356 . S
N280 C272 1.356 . S
N280 H286 0.984 . S
N280 H287 0.984 . S
N281 C274 1.356 . S
N281 H284 0.984 . S
N281 H285 0.985 . S
H282 N277 0.984 . S
H283 N277 0.985 . S
H284 N281 0.984 . S
H285 N281 0.985 . S
H286 N280 0.984 . S
H287 N280 0.984 . S
H288 N276 0.984 . S
H289 N276 0.985 . S
C290 C291 1.363 . S
C290 C296 1.379 . S
C290 N298 1.356 . S
C291 C290 1.363 . S
C291 C297 1.363 1_545 S
C292 C293 1.363 1_565 S
C292 C297 1.379 . S
C292 N299 1.356 . S
C293 C292 1.363 1_545 S
C293 C296 1.363 . S
N294 C296 1.356 . S
N294 H306 0.984 . S
N294 H307 0.985 . S
N295 C297 1.356 . S
N295 H300 0.984 . S
N295 H301 0.985 . S
C296 C290 1.379 . S
C296 C293 1.363 . S
C296 N294 1.356 . S
C297 C291 1.363 1_565 S
C297 C292 1.379 . S
C297 N295 1.356 . S
N298 C290 1.356 . S
N298 H304 0.984 . S
N298 H305 0.984 . S
N299 C292 1.356 . S
N299 H302 0.984 . S
N299 H303 0.985 . S
H300 N295 0.984 . S
H301 N295 0.985 . S
H302 N299 0.984 . S
H303 N299 0.985 . S
H304 N298 0.984 . S
H305 N298 0.984 . S
H306 N294 0.984 . S
H307 N294 0.985 . S
C308 C309 1.363 1_655 S
C308 C314 1.379 . S
C308 N316 1.356 . S
C309 C308 1.363 1_455 S
C309 C315 1.363 . S
C310 C311 1.363 . S
C310 C315 1.379 . S
C310 N317 1.356 . S
C311 C310 1.363 . S
C311 C314 1.363 1_455 S
N312 C314 1.356 . S
N312 H324 0.984 . S
N312 H325 0.985 . S
N313 C315 1.356 . S
N313 H318 0.984 . S
N313 H319 0.985 . S
C314 C308 1.379 . S
C314 C311 1.363 1_655 S
C314 N312 1.356 . S
C315 C309 1.363 . S
C315 C310 1.379 . S
C315 N313 1.356 . S
N316 C308 1.356 . S
N316 H322 0.984 . S
N316 H323 0.984 . S
N317 C310 1.356 . S
N317 H320 0.984 . S
N317 H321 0.985 . S
H318 N313 0.984 . S
H319 N313 0.985 . S
H320 N317 0.984 . S
H321 N317 0.985 . S
H322 N316 0.984 . S
H323 N316 0.984 . S
H324 N312 0.984 . S
H325 N312 0.985 . S
C326 C327 1.363 . S
C326 C332 1.379 . S
C326 N334 1.356 . S
C327 C326 1.363 . S
C327 C333 1.363 1_545 S
C328 C329 1.363 1_565 S
C328 C333 1.379 . S
C328 N335 1.356 . S
C329 C328 1.363 1_545 S
C329 C332 1.363 . S
N330 C332 1.356 . S
N330 H342 0.984 . S
N330 H343 0.985 . S
N331 C333 1.356 . S
N331 H336 0.984 . S
N331 H337 0.985 . S
C332 C326 1.379 . S
C332 C329 1.363 . S
C332 N330 1.356 . S
C333 C327 1.363 1_565 S
C333 C328 1.379 . S
C333 N331 1.356 . S
N334 C326 1.356 . S
N334 H340 0.984 . S
N334 H341 0.984 . S
N335 C328 1.356 . S
N335 H338 0.984 . S
N335 H339 0.985 . S
H336 N331 0.984 . S
H337 N331 0.985 . S
H338 N335 0.984 . S
H339 N335 0.985 . S
H340 N334 0.984 . S
H341 N334 0.984 . S
H342 N330 0.984 . S
H343 N330 0.985 . S
C344 C345 1.363 1_655 S
C344 C350 1.379 . S
C344 N352 1.356 . S
C345 C344 1.363 1_455 S
C345 C351 1.363 . S
C346 C347 1.363 . S
C346 C351 1.379 . S
C346 N353 1.356 . S
C347 C346 1.363 . S
C347 C350 1.363 1_455 S
N348 C350 1.356 . S
N348 H360 0.984 . S
N348 H361 0.985 . S
N349 C351 1.356 . S
N349 H354 0.984 . S
N349 H355 0.985 . S
C350 C344 1.379 . S
C350 C347 1.363 1_655 S
C350 N348 1.356 . S
C351 C345 1.363 . S
C351 C346 1.379 . S
C351 N349 1.356 . S
N352 C344 1.356 . S
N352 H358 0.984 . S
N352 H359 0.984 . S
N353 C346 1.356 . S
N353 H356 0.984 . S
N353 H357 0.985 . S
H354 N349 0.984 . S
H355 N349 0.985 . S
H356 N353 0.984 . S
H357 N353 0.985 . S
H358 N352 0.984 . S
H359 N352 0.984 . S
H360 N348 0.984 . S
H361 N348 0.985 . S
C362 C363 1.363 1_565 S
C362 C368 1.379 . S
C362 N370 1.356 . S
C363 C362 1.363 1_545 S
C363 C369 1.363 . S
C364 C365 1.363 . S
C364 C369 1.379 . S
C364 N371 1.356 . S
C365 C364 1.363 . S
C365 C368 1.363 1_545 S
N366 C368 1.356 . S
N366 H378 0.984 . S
N366 H379 0.985 . S
N367 C369 1.356 . S
N367 H372 0.984 . S
N367 H373 0.985 . S
C368 C362 1.379 . S
C368 C365 1.363 1_565 S
C368 N366 1.356 . S
C369 C363 1.363 . S
C369 C364 1.379 . S
C369 N367 1.356 . S
N370 C362 1.356 . S
N370 H376 0.984 . S
N370 H377 0.984 . S
N371 C364 1.356 . S
N371 H374 0.984 . S
N371 H375 0.985 . S
H372 N367 0.984 . S
H373 N367 0.985 . S
H374 N371 0.984 . S
H375 N371 0.985 . S
H376 N370 0.984 . S
H377 N370 0.984 . S
H378 N366 0.984 . S
H379 N366 0.985 . S
C380 C381 1.363 1_556 S
C380 C386 1.379 . S
C380 N388 1.356 . S
C381 C380 1.363 1_554 S
C381 C387 1.363 . S
C382 C383 1.363 . S
C382 C387 1.379 . S
C382 N389 1.356 . S
C383 C382 1.363 . S
C383 C386 1.363 1_554 S
N384 C386 1.356 . S
N384 H396 0.984 . S
N384 H397 0.985 . S
N385 C387 1.356 . S
N385 H390 0.984 . S
N385 H391 0.985 . S
C386 C380 1.379 . S
C386 C383 1.363 1_556 S
C386 N384 1.356 . S
C387 C381 1.363 . S
C387 C382 1.379 . S
C387 N385 1.356 . S
N388 C380 1.356 . S
N388 H394 0.984 . S
N388 H395 0.984 . S
N389 C382 1.356 . S
N389 H392 0.984 . S
N389 H393 0.985 . S
H390 N385 0.984 . S
H391 N385 0.985 . S
H392 N389 0.984 . S
H393 N389 0.985 . S
H394 N388 0.984 . S
H395 N388 0.984 . S
H396 N384 0.984 . S
H397 N384 0.985 . S
C398 C399 1.363 1_556 S
C398 C404 1.379 . S
C398 N406 1.356 . S
C399 C398 1.363 1_554 S
C399 C405 1.363 . S
C400 C401 1.363 . S
C400 C405 1.379 . S
C400 N407 1.356 . S
C401 C400 1.363 . S
C401 C404 1.363 1_554 S
N402 C404 1.356 . S
N402 H414 0.984 . S
N402 H415 0.985 . S
N403 C405 1.356 . S
N403 H408 0.984 . S
N403 H409 0.985 . S
C404 C398 1.379 . S
C404 C401 1.363 1_556 S
C404 N402 1.356 . S
C405 C399 1.363 . S
C405 C400 1.379 . S
C405 N403 1.356 . S
N406 C398 1.356 . S
N406 H412 0.984 . S
N406 H413 0.984 . S
N407 C400 1.356 . S
N407 H410 0.984 . S
N407 H411 0.985 . S
H408 N403 0.984 . S
H409 N403 0.985 . S
H410 N407 0.984 . S
H411 N407 0.985 . S
H412 N406 0.984 . S
H413 N406 0.984 . S
H414 N402 0.984 . S
H415 N402 0.985 . S
C416 C417 1.363 1_556 S
C416 C422 1.379 . S
C416 N424 1.356 . S
C417 C416 1.363 1_554 S
C417 C423 1.363 . S
C418 C419 1.363 . S
C418 C423 1.379 . S
C418 N425 1.356 . S
C419 C418 1.363 . S
C419 C422 1.363 1_554 S
N420 C422 1.356 . S
N420 H432 0.984 . S
N420 H433 0.985 . S
N421 C423 1.356 . S
N421 H426 0.984 . S
N421 H427 0.985 . S
C422 C416 1.379 . S
C422 C419 1.363 1_556 S
C422 N420 1.356 . S
C423 C417 1.363 . S
C423 C418 1.379 . S
C423 N421 1.356 . S
N424 C416 1.356 . S
N424 H430 0.984 . S
N424 H431 0.984 . S
N425 C418 1.356 . S
N425 H428 0.984 . S
N425 H429 0.985 . S
H426 N421 0.984 . S
H427 N421 0.985 . S
H428 N425 0.984 . S
H429 N425 0.985 . S
H430 N424 0.984 . S
H431 N424 0.984 . S
H432 N420 0.984 . S
H433 N420 0.985 . S
C434 C435 1.363 1_556 S
C434 C440 1.379 . S
C434 N442 1.356 . S
C435 C434 1.363 1_554 S
C435 C441 1.363 . S
C436 C437 1.363 . S
C436 C441 1.379 . S
C436 N443 1.356 . S
C437 C436 1.363 . S
C437 C440 1.363 1_554 S
N438 C440 1.356 . S
N438 H450 0.984 . S
N438 H451 0.985 . S
N439 C441 1.356 . S
N439 H444 0.984 . S
N439 H445 0.985 . S
C440 C434 1.379 . S
C440 C437 1.363 1_556 S
C440 N438 1.356 . S
C441 C435 1.363 . S
C441 C436 1.379 . S
C441 N439 1.356 . S
N442 C434 1.356 . S
N442 H448 0.984 . S
N442 H449 0.984 . S
N443 C436 1.356 . S
N443 H446 0.984 . S
N443 H447 0.985 . S
H444 N439 0.984 . S
H445 N439 0.985 . S
H446 N443 0.984 . S
H447 N443 0.985 . S
H448 N442 0.984 . S
H449 N442 0.984 . S
H450 N438 0.984 . S
H451 N438 0.985 . S
C239 C187 2.056 . S
C237 C53 2.078 . S
C257 C194 1.432 . S
C255 C97 1.457 1_545 S
C275 C189 2.056 . S
C273 C35 2.080 . S
C293 C195 1.406 . S
C291 C91 1.390 1_545 S
C309 C29 2.087 . S
C311 C188 2.118 . S
C329 C197 1.406 . S
C327 C109 1.390 1_545 S
C345 C47 2.087 . S
C347 C186 2.114 . S
C363 C115 1.457 1_545 S
C365 C196 1.432 . S
C381 C153 1.666 . S
C383 C191 1.716 . S
C399 C171 1.666 . S
C401 C190 1.720 . S
C419 C193 1.621 . S
C417 C159 1.635 . S
C437 C192 1.621 . S
C435 C177 1.637 . S
