# Generated by pormake.
# Topology pyr, (3,6)-cn, num edge types: 1
# Building blocks:
#     Node 0, Type 0, BuildingBlock: ESEHIV_clean_linker_0, # of connection points: 3
#     Node 1, Type 0, BuildingBlock: ESEHIV_clean_linker_0, # of connection points: 3
#     Node 2, Type 0, BuildingBlock: ESEHIV_clean_linker_0, # of connection points: 3
#     Node 3, Type 0, BuildingBlock: ESEHIV_clean_linker_0, # of connection points: 3
#     Node 4, Type 0, BuildingBlock: ESEHIV_clean_linker_0, # of connection points: 3
#     Node 5, Type 0, BuildingBlock: ESEHIV_clean_linker_0, # of connection points: 3
#     Node 6, Type 0, BuildingBlock: ESEHIV_clean_linker_0, # of connection points: 3
#     Node 7, Type 0, BuildingBlock: ESEHIV_clean_linker_0, # of connection points: 3
#     Node 8, Type 1, BuildingBlock: BETDAH_clean_sbu_0, # of connection points: 6
#     Node 9, Type 1, BuildingBlock: BETDAH_clean_sbu_0, # of connection points: 6
#     Node 10, Type 1, BuildingBlock: BETDAH_clean_sbu_0, # of connection points: 6
#     Node 11, Type 1, BuildingBlock: BETDAH_clean_sbu_0, # of connection points: 6
#     Edge 12, Type (0, 1), BuildingBlock: OJICUG_clean_linker_0, # of connection points: 2
#     Edge 13, Type (0, 1), BuildingBlock: OJICUG_clean_linker_0, # of connection points: 2
#     Edge 14, Type (0, 1), BuildingBlock: OJICUG_clean_linker_0, # of connection points: 2
#     Edge 15, Type (0, 1), BuildingBlock: OJICUG_clean_linker_0, # of connection points: 2
#     Edge 16, Type (0, 1), BuildingBlock: OJICUG_clean_linker_0, # of connection points: 2
#     Edge 17, Type (0, 1), BuildingBlock: OJICUG_clean_linker_0, # of connection points: 2
#     Edge 18, Type (0, 1), BuildingBlock: OJICUG_clean_linker_0, # of connection points: 2
#     Edge 19, Type (0, 1), BuildingBlock: OJICUG_clean_linker_0, # of connection points: 2
#     Edge 20, Type (0, 1), BuildingBlock: OJICUG_clean_linker_0, # of connection points: 2
#     Edge 21, Type (0, 1), BuildingBlock: OJICUG_clean_linker_0, # of connection points: 2
#     Edge 22, Type (0, 1), BuildingBlock: OJICUG_clean_linker_0, # of connection points: 2
#     Edge 23, Type (0, 1), BuildingBlock: OJICUG_clean_linker_0, # of connection points: 2
#     Edge 24, Type (0, 1), BuildingBlock: OJICUG_clean_linker_0, # of connection points: 2
#     Edge 25, Type (0, 1), BuildingBlock: OJICUG_clean_linker_0, # of connection points: 2
#     Edge 26, Type (0, 1), BuildingBlock: OJICUG_clean_linker_0, # of connection points: 2
#     Edge 27, Type (0, 1), BuildingBlock: OJICUG_clean_linker_0, # of connection points: 2
#     Edge 28, Type (0, 1), BuildingBlock: OJICUG_clean_linker_0, # of connection points: 2
#     Edge 29, Type (0, 1), BuildingBlock: OJICUG_clean_linker_0, # of connection points: 2
#     Edge 30, Type (0, 1), BuildingBlock: OJICUG_clean_linker_0, # of connection points: 2
#     Edge 31, Type (0, 1), BuildingBlock: OJICUG_clean_linker_0, # of connection points: 2
#     Edge 32, Type (0, 1), BuildingBlock: OJICUG_clean_linker_0, # of connection points: 2
#     Edge 33, Type (0, 1), BuildingBlock: OJICUG_clean_linker_0, # of connection points: 2
#     Edge 34, Type (0, 1), BuildingBlock: OJICUG_clean_linker_0, # of connection points: 2
#     Edge 35, Type (0, 1), BuildingBlock: OJICUG_clean_linker_0, # of connection points: 2
# Relax obj value: 0.224
# Max RMSD: 0.162
# Mean RMSD: 0.077
data_MOF--net-pyr--node1-BETDAH_clean_sbu_0--node2-ESEHIV_clean_linker_0--edge1-OJICUG_clean_linker_0
_symmetry_space_group_name_H-M    P1
_symmetry_Int_Tables_number       1
_symmetry_cell_setting            triclinic
loop_
_symmetry_equiv_pos_as_xyz
'x, y, z'
_cell_length_a     25.665952
_cell_length_b     27.355774
_cell_length_c     24.438833
_cell_angle_alpha  90.494883
_cell_angle_beta   88.786426
_cell_angle_gamma 103.46705
loop_
_atom_site_label
_atom_site_type_symbol
_atom_site_fract_x
_atom_site_fract_y
_atom_site_fract_z
_atom_type_partial_charge
H0 H 0.37359 0.37224 0.35421 0.0
H1 H 0.50531 0.30138 0.32999 0.0
H2 H 0.43115 0.35093 0.19226 0.0
C3 C 0.40434 0.36273 0.32804 0.0
C4 C 0.40173 0.36985 0.27133 0.0
C5 C 0.44 0.33608 0.34972 0.0
C6 C 0.47759 0.32187 0.31406 0.0
C7 C 0.47154 0.32329 0.25732 0.0
C8 C 0.43572 0.34985 0.23618 0.0
H9 H 0.10772 0.86332 0.8475 0.0
H10 H 0.18637 0.74207 0.82227 0.0
H11 H 0.14463 0.82088 0.68477 0.0
C12 C 0.12126 0.8369 0.8206 0.0
C13 C 0.11855 0.8429 0.76385 0.0
C14 C 0.14682 0.80128 0.84225 0.0
C15 C 0.16585 0.76903 0.80601 0.0
C16 C 0.16751 0.77727 0.74934 0.0
C17 C 0.14209 0.81316 0.72832 0.0
H18 H 0.71123 0.35053 0.98014 0.0
H19 H 0.72633 0.47612 0.87073 0.0
H20 H 0.59452 0.34618 0.85513 0.0
C21 C 0.69749 0.36773 0.94523 0.0
C22 C 0.65022 0.34129 0.91952 0.0
C23 C 0.72591 0.41646 0.92869 0.0
C24 C 0.70484 0.43937 0.8847 0.0
C25 C 0.65743 0.41489 0.85696 0.0
C26 C 0.63074 0.36558 0.87522 0.0
H27 H 0.83629 0.76101 0.48103 0.0
H28 H 0.95944 0.76714 0.35717 0.0
H29 H 0.82807 0.63504 0.37484 0.0
C30 C 0.85433 0.74332 0.4483 0.0
C31 C 0.82716 0.69481 0.43163 0.0
C32 C 0.90308 0.76982 0.42379 0.0
C33 C 0.92294 0.74688 0.37717 0.0
C34 C 0.89602 0.69802 0.3568 0.0
C35 C 0.8484 0.67283 0.38604 0.0
H36 H 0.55386 0.83166 0.84491 0.0
H37 H 0.68378 0.75835 0.8214 0.0
H38 H 0.62989 0.78522 0.98324 0.0
C39 C 0.58153 0.81127 0.86114 0.0
C40 C 0.58832 0.81114 0.91785 0.0
C41 C 0.61827 0.79567 0.82552 0.0
C42 C 0.65375 0.76906 0.8476 0.0
C43 C 0.65735 0.76356 0.90444 0.0
C44 C 0.62443 0.78504 0.93938 0.0
H45 H 0.8672 0.35694 0.32844 0.0
H46 H 0.98748 0.27021 0.33515 0.0
H47 H 0.90025 0.29486 0.48006 0.0
C48 C 0.89284 0.33852 0.35117 0.0
C49 C 0.88358 0.33312 0.40786 0.0
C50 C 0.92831 0.31403 0.32336 0.0
C51 C 0.95918 0.28885 0.35483 0.0
C52 C 0.94802 0.28055 0.41074 0.0
C53 C 0.91061 0.30311 0.43734 0.0
H54 H 0.34961 0.78283 0.18735 0.0
H55 H 0.33564 0.65563 0.29425 0.0
H56 H 0.46667 0.78589 0.31181 0.0
C57 C 0.36358 0.7652 0.2218 0.0
C58 C 0.41077 0.79156 0.24781 0.0
C59 C 0.33554 0.71607 0.23749 0.0
C60 C 0.35689 0.69265 0.28085 0.0
C61 C 0.40422 0.71687 0.30879 0.0
C62 C 0.43054 0.76663 0.29147 0.0
H63 H 0.103 0.36216 0.81433 0.0
H64 H 0.22476 0.36691 0.68933 0.0
H65 H 0.23266 0.49507 0.79225 0.0
C66 C 0.13905 0.38238 0.79353 0.0
C67 C 0.16553 0.43192 0.81234 0.0
C68 C 0.15873 0.35866 0.74742 0.0
C69 C 0.20689 0.38511 0.72176 0.0
C70 C 0.23369 0.43418 0.73694 0.0
C71 C 0.21263 0.45692 0.78213 0.0
Ho72 Ho 0.08415 0.06811 0.56635 0.0
Ho73 Ho 0.97955 1.05665 0.61253 0.0
C74 C 0.07061 0.15612 0.64935 0.0
C75 C 0.17433 0.0826 0.51351 0.0
C76 C 0.22101 0.12552 0.50976 0.0
C77 C 0.21542 0.1738 0.49625 0.0
C78 C 0.26064 0.21334 0.49032 0.0
C79 C 0.31221 0.20542 0.49824 0.0
C80 C 0.31714 0.15793 0.51592 0.0
C81 C 0.27197 0.11828 0.5212 0.0
C82 C 0.06922 1.01415 0.66045 0.0
C83 C 0.99277 0.96946 0.52799 0.0
C84 C 0.88956 1.04206 0.66571 0.0
C85 C 0.84189 0.99996 0.66779 0.0
C86 C 0.84557 0.95123 0.68182 0.0
C87 C 0.79936 0.91261 0.68644 0.0
C88 C 0.74866 0.92189 0.67672 0.0
C89 C 0.74573 0.96979 0.65851 0.0
C90 C 0.79188 1.00853 0.65452 0.0
C91 C 0.99364 0.10965 0.51819 0.0
O92 O 0.09747 0.14535 0.60581 0.0
O93 O 0.02595 0.12327 0.66495 0.0
O94 O 0.16618 1.06119 0.56134 0.0
O95 O 0.12996 0.08758 0.4911 0.0
O96 O 0.10982 1.05107 0.65019 0.0
O97 O 0.03726 1.0098 0.62152 0.0
O98 O 0.96561 0.97994 0.57149 0.0
O99 O 0.03789 1.00206 0.51322 0.0
O100 O 0.89828 0.06554 0.61904 0.0
O101 O 0.93351 1.03499 0.68724 0.0
O102 O 0.95335 0.07256 0.52898 0.0
O103 O 0.02613 0.11473 0.55681 0.0
H104 H 0.17636 0.18074 0.48854 0.0
H105 H 0.25528 0.24918 0.47604 0.0
H106 H 0.3562 0.15078 0.52307 0.0
H107 H 0.27697 0.08157 0.53297 0.0
H108 H 0.88383 0.94323 0.69105 0.0
H109 H 0.80318 0.87642 0.70121 0.0
H110 H 0.7074 0.978 0.65005 0.0
H111 H 0.78832 1.04561 0.64241 0.0
Ho112 Ho 0.58395 0.07447 0.10024 0.0
Ho113 Ho 0.47516 1.06144 1.07106 0.0
C114 C 0.51621 0.14602 0.1562 0.0
C115 C 0.68543 0.10345 0.11788 0.0
C116 C 0.72811 0.14964 0.12035 0.0
C117 C 0.7788 0.14897 0.0983 0.0
C118 C 0.82274 0.18851 0.10879 0.0
C119 C 0.81663 0.22903 0.14208 0.0
C120 C 0.76466 0.23213 0.1589 0.0
C121 C 0.72064 0.19263 0.14815 0.0
C122 C 0.52185 0.98794 0.14789 0.0
C123 C 0.54275 0.98945 1.01571 0.0
C124 C 0.37377 1.03421 1.05171 0.0
C125 C 0.33205 0.98797 1.04658 0.0
C126 C 0.34298 0.94072 1.05479 0.0
C127 C 0.30439 0.89708 1.04231 0.0
C128 C 0.25481 0.90034 1.02079 0.0
C129 C 0.24281 0.94788 1.01733 0.0
C130 C 0.28121 0.99129 1.03008 0.0
C131 C 0.53796 0.14756 1.02343 0.0
O132 O 0.56425 0.14348 0.13854 0.0
O133 O 0.47438 0.11017 0.14406 0.0
O134 O 0.64882 0.09598 0.15698 0.0
O135 O 0.66577 0.09073 1.0697 0.0
O136 O 0.57095 0.99461 0.13099 0.0
O137 O 0.50828 1.02976 0.1428 0.0
O138 O 0.49466 0.9921 1.03321 0.0
O139 O 0.58451 1.02551 1.02746 0.0
O140 O 0.41092 1.04244 1.01322 0.0
O141 O 0.3931 1.04433 0.1005 0.0
O142 O 0.4892 0.14167 1.0411 0.0
O143 O 0.55081 0.10544 1.02829 0.0
H144 H 0.78507 0.11639 1.07591 0.0
H145 H 0.86219 0.18536 0.09487 0.0
H146 H 0.75857 0.26265 0.18493 0.0
H147 H 0.68157 0.19431 0.16463 0.0
H148 H 0.38205 0.9377 1.06826 0.0
H149 H 0.31463 0.86103 1.04605 0.0
H150 H 0.20552 0.95212 1.00027 0.0
H151 H 0.27216 1.02762 1.0241 0.0
Ho152 Ho 0.52481 0.52031 0.54917 0.0
Ho153 Ho 0.53411 0.60701 0.615 0.0
C154 C 0.57797 0.51968 0.67168 0.0
C155 C 0.54656 0.44585 0.49408 0.0
C156 C 0.59616 0.42784 0.48949 0.0
C157 C 0.64487 0.45891 0.50619 0.0
C158 C 0.69272 0.44343 0.49902 0.0
C159 C 0.6927 0.39637 0.4755 0.0
C160 C 0.64356 0.36471 0.46027 0.0
C161 C 0.59564 0.38045 0.46704 0.0
C162 C 0.42973 0.51879 0.60439 0.0
C163 C 0.48234 0.60867 0.49223 0.0
C164 C 0.50887 0.68019 0.66886 0.0
C165 C 0.45753 0.69529 0.6695 0.0
C166 C 0.4116 0.66204 0.6494 0.0
C167 C 0.3619 0.67454 0.65224 0.0
C168 C 0.35725 0.72073 0.67484 0.0
C169 C 0.40369 0.75459 0.69351 0.0
C170 C 0.45347 0.74187 0.69096 0.0
C171 C 0.62935 0.60869 0.56062 0.0
O172 O 0.57293 0.50024 0.62143 0.0
O173 O 0.56297 0.56213 0.68118 0.0
O174 O 0.52238 0.44061 0.54184 0.0
O175 O 0.54971 0.49027 0.47357 0.0
O176 O 0.43407 0.5037 0.55437 0.0
O177 O 0.4766 0.53298 0.62297 0.0
O178 O 0.48713 0.62783 0.5425 0.0
O179 O 0.49701 0.56604 0.48277 0.0
O180 O 0.53573 0.68651 0.62257 0.0
O181 O 0.5067 0.63615 0.68995 0.0
O182 O 0.62464 0.62403 0.6105 0.0
O183 O 0.58265 0.59433 0.54141 0.0
H184 H 0.64599 0.4956 0.52389 0.0
H185 H 0.72982 0.46842 0.51156 0.0
H186 H 0.64239 0.32846 0.4415 0.0
H187 H 0.5584 0.35604 0.45389 0.0
H188 H 0.41403 0.62592 0.6324 0.0
H189 H 0.32701 0.64786 0.63725 0.0
H190 H 0.40124 0.79019 0.71185 0.0
H191 H 0.4885 0.76794 0.70662 0.0
Ho192 Ho 0.02843 0.52443 0.11528 0.0
Ho193 Ho 0.03267 0.60776 1.05168 0.0
C194 C 0.13505 0.61651 0.12398 0.0
C195 C 0.0531 0.45003 0.16536 0.0
C196 C 0.10556 0.43958 0.17845 0.0
C197 C 0.14331 0.43598 0.13686 0.0
C198 C 0.19337 0.42778 0.14984 0.0
C199 C 0.2071 0.42354 0.20465 0.0
C200 C 0.16953 0.42747 0.24623 0.0
C201 C 0.11918 0.43516 0.23322 0.0
C202 C 0.97549 0.58909 0.16866 0.0
C203 C 0.92612 0.51581 1.04282 0.0
C204 C 1.00771 0.68223 1.00201 0.0
C205 C 0.95512 0.69324 0.99044 0.0
C206 C 0.91982 0.70011 1.03319 0.0
C207 C 0.86949 0.70857 1.02178 0.0
C208 C 0.85303 0.70992 0.96746 0.0
C209 C 0.88824 0.70292 0.92475 0.0
C210 C 0.93883 0.69491 0.93614 0.0
C211 C 0.08564 0.54298 0.99852 0.0
O212 O 0.11569 0.56733 0.12721 0.0
O213 O 0.10707 0.64368 0.09829 0.0
O214 O 0.04087 0.48795 0.19094 0.0
O215 O 0.04089 0.44888 0.11378 0.0
O216 O 0.9578 0.54074 0.16411 0.0
O217 O 1.02007 0.60104 0.14247 0.0
O218 O 0.94537 0.56501 1.03996 0.0
O219 O 0.95418 0.48858 1.06832 0.0
O220 O 1.01871 0.64383 0.97627 0.0
O221 O 1.02144 0.68375 1.05316 0.0
O222 O 0.10326 0.59136 1.00281 0.0
O223 O 0.04096 0.53115 1.02457 0.0
H224 H 0.13445 0.4398 0.09418 0.0
H225 H 0.22162 0.42529 0.11696 0.0
H226 H 0.17874 0.42376 0.28883 0.0
H227 H 0.09092 0.43791 0.26602 0.0
H228 H 0.93076 0.69859 1.07559 0.0
H229 H 0.84314 0.71346 1.05555 0.0
H230 H 0.877 0.70442 0.88243 0.0
H231 H 0.96517 0.68971 0.90245 0.0
C232 C 0.39601 0.32772 0.44386 0.0
C233 C 0.42568 0.309 0.40285 0.0
H234 H 0.33585 0.30909 0.50742 0.0
C235 C 0.42906 0.25838 0.40635 0.0
H236 H 0.39429 0.3669 0.44435 0.0
C237 C 0.39665 0.22581 0.44308 0.0
C238 C 0.35975 0.24275 0.47703 0.0
H239 H 0.45119 0.24151 0.37645 0.0
H240 H 0.396 0.18617 0.4396 0.0
C241 C 0.36263 0.29467 0.4802 0.0
C242 C 0.22083 0.80658 0.90839 0.0
C243 C 0.16721 0.80805 0.89915 0.0
H244 H 0.29042 0.834 0.95514 0.0
C245 C 0.13887 0.82728 0.94079 0.0
H246 H 0.24461 0.79233 0.87777 0.0
C247 C 0.166 0.85209 0.98586 0.0
C248 C 0.2217 0.85766 0.98995 0.0
H249 H 0.09706 0.82746 0.93601 0.0
H250 H 0.14453 0.87108 1.01448 0.0
C251 C 0.24764 0.83087 0.95341 0.0
C252 C 0.63674 0.49321 0.8114 0.0
C253 C 0.63651 0.44135 0.80924 0.0
H254 H 0.61868 0.55762 0.77217 0.0
C255 C 0.61715 0.41591 0.76035 0.0
H256 H 0.65074 0.5148 0.84775 0.0
C257 C 0.59966 0.44113 0.71587 0.0
C258 C 0.59937 0.49285 0.71844 0.0
H259 H 0.61632 0.37632 0.75593 0.0
H260 H 0.58549 0.41965 0.67951 0.0
C261 C 0.61808 0.51809 0.76755 0.0
C262 C 0.97075 0.68652 0.28587 0.0
C263 C 0.91703 0.6723 0.30637 0.0
H264 H 0.031 0.67337 0.22756 0.0
C265 C 0.88334 0.63186 0.27785 0.0
H266 H 0.99928 0.71669 0.30523 0.0
C267 C 0.90234 0.60608 0.23386 0.0
C268 C 0.95578 0.61988 0.21418 0.0
H269 H 0.84138 0.61952 0.28885 0.0
H270 H 0.87456 0.57497 0.21484 0.0
C271 C 0.98945 0.66126 0.24069 0.0
C272 C 0.53851 0.27313 0.22767 0.0
C273 C 0.48737 0.28327 0.22401 0.0
H274 H 0.58814 0.2215 0.20881 0.0
C275 C 0.44703 0.2486 0.19685 0.0
H276 H 0.57008 0.29886 0.24914 0.0
C277 C 0.45669 0.20408 0.17575 0.0
C278 C 0.50721 0.19314 0.18047 0.0
H279 H 0.40684 0.25451 0.19449 0.0
H280 H 0.4242 0.17807 0.15583 0.0
C281 C 0.54858 0.22868 0.20533 0.0
C282 C 0.12487 0.93533 0.75956 0.0
C283 C 0.1005 0.8864 0.74208 0.0
H284 H 0.13382 1.01441 0.74724 0.0
C285 C 0.06177 0.8798 0.70133 0.0
H286 H 0.15522 0.94135 0.79064 0.0
C287 C 0.04874 0.92154 0.67735 0.0
C288 C 0.07527 0.97057 0.69279 0.0
H289 H 0.04248 0.84241 0.68731 0.0
H290 H 1.01992 0.9154 0.64478 0.0
C291 C 0.11267 0.97706 0.73482 0.0
C292 C 0.79369 0.49564 0.96317 0.0
C293 C 0.77745 0.44269 0.95787 0.0
H294 H 0.85172 0.55987 0.99347 0.0
C295 C 0.81112 0.41472 0.98171 0.0
H296 H 0.76949 0.51924 0.94648 0.0
C297 C 0.85797 0.43822 1.00983 0.0
C298 C 0.87408 0.49093 1.01501 0.0
H299 H 0.80201 0.3742 0.97804 0.0
H300 H 0.8822 0.41474 1.02681 0.0
C301 C 0.84105 0.51922 0.9909 0.0
C302 C 0.77507 0.67198 0.52152 0.0
C303 C 0.77714 0.66787 0.46386 0.0
H304 H 0.7286 0.65679 0.59615 0.0
C305 C 0.73021 0.64055 0.43839 0.0
H306 H 0.81012 0.69162 0.54336 0.0
C307 C 0.68263 0.62022 0.46929 0.0
C308 C 0.68048 0.62617 0.52676 0.0
H309 H 0.7296 0.63635 0.3943 0.0
H310 H 0.64717 0.60074 0.44798 0.0
C311 C 0.72797 0.65162 0.55216 0.0
C312 C 0.32621 0.36347 0.20554 0.0
C313 C 0.35599 0.38841 0.24949 0.0
H314 H 0.25597 0.35488 0.15727 0.0
C315 C 0.33799 0.42738 0.27625 0.0
H316 H 0.33788 0.33247 0.18472 0.0
C317 C 0.29027 0.43955 0.26104 0.0
C318 C 0.25975 0.41341 0.21834 0.0
H319 H 0.36014 0.44767 0.30992 0.0
H320 H 0.27694 0.46909 0.28308 0.0
C321 C 0.27887 0.37602 0.19 0.0
C322 C 0.56514 0.27573 0.94909 0.0
C323 C 0.62127 0.2892 0.94136 0.0
H324 H 0.49603 0.22235 0.98076 0.0
C325 C 0.64978 0.2535 0.95872 0.0
H326 H 0.54125 0.30159 0.93732 0.0
C327 C 0.62346 0.20704 0.9833 0.0
C328 C 0.5675 0.19455 0.99247 0.0
H329 H 0.69294 0.26164 0.95365 0.0
H330 H 0.64724 0.18159 0.9966 0.0
C331 C 0.53906 0.22988 0.97453 0.0
C332 C 0.96203 0.86179 0.41872 0.0
C333 C 0.93138 0.82078 0.44925 0.0
H334 H 1.0057 0.93999 0.41844 0.0
C335 C 0.92521 0.8297 0.50603 0.0
H336 H 0.96845 0.85754 0.3752 0.0
C337 C 0.94499 0.87721 0.53025 0.0
C338 C 0.97403 0.91847 0.49981 0.0
H339 H 0.90456 0.79972 0.5327 0.0
H340 H 0.93768 0.88143 0.57366 0.0
C341 C 0.98333 0.90957 0.44363 0.0
C342 C 0.24919 0.79374 0.68913 0.0
C343 C 0.2081 0.75873 0.7162 0.0
H344 H 0.32879 0.80913 0.65474 0.0
C345 C 0.21344 0.70908 0.72197 0.0
H346 H 0.24663 0.83248 0.68472 0.0
C347 C 0.26079 0.69587 0.70527 0.0
C348 C 0.30379 0.73216 0.68277 0.0
H349 H 0.1825 0.68143 0.7429 0.0
H350 H 0.26507 0.65818 0.71356 0.0
C351 C 0.29666 0.78064 0.6728 0.0
C352 C 0.66144 0.80144 0.73111 0.0
C353 C 0.63228 0.82141 0.77159 0.0
H354 H 0.72228 0.81817 0.66803 0.0
C355 C 0.62976 0.87217 0.76686 0.0
H356 H 0.66236 0.76208 0.73142 0.0
C357 C 0.663 0.90379 0.7299 0.0
C358 C 0.69982 0.88567 0.69697 0.0
H359 H 0.60785 0.88991 0.79614 0.0
H360 H 0.66449 0.94363 0.73264 0.0
C361 C 0.69567 0.83352 0.69457 0.0
C362 C 0.92496 0.25478 0.24375 0.0
C363 C 0.9208 0.30235 0.26356 0.0
H364 H 0.89583 0.1948 0.18849 0.0
C365 C 0.89619 0.33173 0.22986 0.0
H366 H 0.94386 0.23038 0.26679 0.0
C367 C 0.86649 0.30993 0.18481 0.0
C368 C 0.86323 0.2593 0.17143 0.0
H369 H 0.8949 0.36972 0.24139 0.0
H370 H 0.84224 0.33108 0.16375 0.0
C371 C 0.89683 0.23376 0.19801 0.0
C372 C 0.42519 0.63778 0.35248 0.0
C373 C 0.42525 0.68959 0.3558 0.0
H374 H 0.44298 0.5726 0.39041 0.0
C375 C 0.44418 0.71408 0.4053 0.0
H376 H 0.4115 0.61689 0.31562 0.0
C377 C 0.46131 0.688 0.44926 0.0
C378 C 0.46168 0.63631 0.44562 0.0
H379 H 0.44484 0.75355 0.41063 0.0
H380 H 0.47504 0.70878 0.48618 0.0
C381 C 0.4435 0.61204 0.39587 0.0
C382 C 0.17783 0.49989 0.88948 0.0
C383 C 0.14449 0.45841 0.86218 0.0
H384 H 0.18623 0.55797 0.95115 0.0
C385 C 0.09103 0.44381 0.88335 0.0
H386 H 0.21959 0.51269 0.87785 0.0
C387 C 0.07224 0.46959 0.92803 0.0
C388 C 0.10553 0.51189 0.9534 0.0
H389 H 0.06273 0.41289 0.8649 0.0
H390 H 0.0309 0.45707 0.94172 0.0
C391 C 0.15872 0.52613 0.93303 0.0
C392 C 0.61283 0.88711 0.97642 0.0
C393 C 0.57245 0.8516 0.95037 0.0
H394 H 0.63542 0.95845 1.01578 0.0
C395 C 0.521 0.86111 0.94694 0.0
H396 H 0.65322 0.88166 0.97855 0.0
C397 C 0.51065 0.90575 0.96846 0.0
C398 C 0.55201 0.9421 0.99223 0.0
H399 H 0.48937 0.83469 0.92632 0.0
H400 H 0.47083 0.9124 0.96523 0.0
C401 C 0.60287 0.93181 0.99669 0.0
C402 C 1.00944 0.24273 0.46694 0.0
C403 C 0.96296 0.23731 0.4362 0.0
H404 H 0.05655 0.20565 0.51645 0.0
C405 C 0.92972 0.18936 0.42838 0.0
H406 H 0.03582 0.27947 0.47272 0.0
C407 C 0.94151 0.1474 0.45264 0.0
C408 C 0.9868 0.15265 0.48531 0.0
H409 H 0.89396 0.18456 0.40418 0.0
H410 H 0.91415 0.11109 0.44729 0.0
C411 C 1.02137 0.20054 0.49136 0.0
C412 C 0.25009 0.71775 0.18479 0.0
C413 C 0.28405 0.68985 0.2082 0.0
H414 H 0.17865 0.7176 0.14025 0.0
C415 C 0.26804 0.6369 0.20259 0.0
H416 H 0.25901 0.75825 0.18869 0.0
C417 C 0.22056 0.61326 0.17511 0.0
C418 C 0.18721 0.64147 0.15151 0.0
H419 H 0.29247 0.61333 0.21886 0.0
H420 H 0.21007 0.57262 0.17233 0.0
C421 C 0.20313 0.69419 0.15688 0.0
C422 C 0.33029 0.48893 0.72802 0.0
C423 C 0.28316 0.46078 0.7036 0.0
H424 H 0.41306 0.52897 0.71682 0.0
C425 C 0.28459 0.45536 0.64604 0.0
H426 H 0.33141 0.49414 0.77198 0.0
C427 C 0.33127 0.4753 0.61453 0.0
C428 C 0.37897 0.50158 0.63894 0.0
H429 H 0.24937 0.435 0.62497 0.0
H430 H 0.33016 0.46914 0.57068 0.0
C431 C 0.37743 0.5088 0.69627 0.0
C432 C 0.73479 0.77139 0.96806 0.0
C433 C 0.70315 0.74501 0.92609 0.0
H434 H 0.80689 0.78122 1.01362 0.0
C435 C 0.71949 0.70457 0.90057 0.0
H436 H 0.7243 0.80344 0.98785 0.0
C437 C 0.76745 0.69238 0.91482 0.0
C438 C 0.79999 0.72005 0.95527 0.0
H439 H 0.69585 0.68318 0.86844 0.0
H440 H 0.77943 0.66167 0.89367 0.0
C441 C 0.78248 0.75891 0.9826 0.0
C442 C 0.41041 0.87982 0.21003 0.0
C443 C 0.4393 0.84423 0.22695 0.0
H444 H 0.41234 0.95224 0.17359 0.0
C445 C 0.49547 0.85853 0.21982 0.0
H446 H 0.36719 0.87114 0.21466 0.0
C447 C 0.52123 0.90501 0.19541 0.0
C448 C 0.49244 0.94024 0.17792 0.0
H449 H 0.5197 0.83286 0.23128 0.0
H450 H 0.56434 0.9131 0.18961 0.0
C451 C 0.4364 0.92691 0.1865 0.0
C452 C 0.13603 0.29681 0.66704 0.0
C453 C 0.13076 0.3069 0.72365 0.0
H454 H 0.1232 0.24355 0.60088 0.0
C455 C 0.10132 0.26631 0.75561 0.0
H456 H 0.15574 0.32637 0.63939 0.0
C457 C 0.08037 0.2178 0.73218 0.0
C458 C 0.08883 0.20779 0.67612 0.0
H459 H 0.09564 0.27147 0.7991 0.0
H460 H 0.05899 0.18774 0.7584 0.0
C461 C 0.1166 0.24864 0.64428 0.0
C462 C 0.83392 0.40077 0.42355 0.0
C463 C 0.83846 0.35138 0.43296 0.0
H464 H 0.78432 0.45365 0.4297 0.0
C465 C 0.79621 0.31777 0.46006 0.0
H466 H 0.86579 0.42728 0.40242 0.0
C467 C 0.74929 0.33265 0.47518 0.0
C468 C 0.74401 0.38158 0.46405 0.0
H469 H 0.79834 0.27924 0.46709 0.0
H470 H 0.71673 0.30561 0.49466 0.0
C471 C 0.78733 0.41582 0.43922 0.0
loop_
_geom_bond_atom_site_label_1
_geom_bond_atom_site_label_2
_geom_bond_distance
_geom_bond_site_symmetry_2
_ccdc_geom_bond_type
H0 C3 0.931 . S
H1 C6 0.928 . S
H2 C8 0.930 . S
C3 H0 0.931 . S
C3 C4 1.413 . S
C3 C5 1.360 . S
C4 C3 1.413 . S
C4 C8 1.429 . S
C5 C3 1.360 . S
C5 C6 1.372 . S
C6 H1 0.928 . S
C6 C5 1.372 . S
C6 C7 1.404 . S
C7 C6 1.404 . S
C7 C8 1.391 . S
C8 H2 0.930 . S
C8 C4 1.429 . S
C8 C7 1.391 . S
H9 C12 0.931 . S
H10 C15 0.928 . S
H11 C17 0.930 . S
C12 H9 0.931 . S
C12 C13 1.413 . S
C12 C14 1.360 . S
C13 C12 1.413 . S
C13 C17 1.429 . S
C14 C12 1.360 . S
C14 C15 1.372 . S
C15 H10 0.928 . S
C15 C14 1.372 . S
C15 C16 1.404 . S
C16 C15 1.404 . S
C16 C17 1.391 . S
C17 H11 0.930 . S
C17 C13 1.429 . S
C17 C16 1.391 . S
H18 C21 0.931 . S
H19 C24 0.928 . S
H20 C26 0.930 . S
C21 H18 0.931 . S
C21 C22 1.413 . S
C21 C23 1.360 . S
C22 C21 1.413 . S
C22 C26 1.429 . S
C23 C21 1.360 . S
C23 C24 1.372 . S
C24 H19 0.928 . S
C24 C23 1.372 . S
C24 C25 1.404 . S
C25 C24 1.404 . S
C25 C26 1.391 . S
C26 H20 0.930 . S
C26 C22 1.429 . S
C26 C25 1.391 . S
H27 C30 0.931 . S
H28 C33 0.928 . S
H29 C35 0.930 . S
C30 H27 0.931 . S
C30 C31 1.413 . S
C30 C32 1.360 . S
C31 C30 1.413 . S
C31 C35 1.429 . S
C32 C30 1.360 . S
C32 C33 1.372 . S
C33 H28 0.928 . S
C33 C32 1.372 . S
C33 C34 1.404 . S
C34 C33 1.404 . S
C34 C35 1.391 . S
C35 H29 0.930 . S
C35 C31 1.429 . S
C35 C34 1.391 . S
H36 C39 0.931 . S
H37 C42 0.928 . S
H38 C44 0.930 . S
C39 H36 0.931 . S
C39 C40 1.413 . S
C39 C41 1.360 . S
C40 C39 1.413 . S
C40 C44 1.429 . S
C41 C39 1.360 . S
C41 C42 1.372 . S
C42 H37 0.928 . S
C42 C41 1.372 . S
C42 C43 1.404 . S
C43 C42 1.404 . S
C43 C44 1.391 . S
C44 H38 0.930 . S
C44 C40 1.429 . S
C44 C43 1.391 . S
H45 C48 0.931 . S
H46 C51 0.928 . S
H47 C53 0.930 . S
C48 H45 0.931 . S
C48 C49 1.413 . S
C48 C50 1.360 . S
C49 C48 1.413 . S
C49 C53 1.429 . S
C50 C48 1.360 . S
C50 C51 1.372 . S
C51 H46 0.928 . S
C51 C50 1.372 . S
C51 C52 1.404 . S
C52 C51 1.404 . S
C52 C53 1.391 . S
C53 H47 0.930 . S
C53 C49 1.429 . S
C53 C52 1.391 . S
H54 C57 0.931 . S
H55 C60 0.928 . S
H56 C62 0.930 . S
C57 H54 0.931 . S
C57 C58 1.413 . S
C57 C59 1.360 . S
C58 C57 1.413 . S
C58 C62 1.429 . S
C59 C57 1.360 . S
C59 C60 1.372 . S
C60 H55 0.928 . S
C60 C59 1.372 . S
C60 C61 1.404 . S
C61 C60 1.404 . S
C61 C62 1.391 . S
C62 H56 0.930 . S
C62 C58 1.429 . S
C62 C61 1.391 . S
H63 C66 0.931 . S
H64 C69 0.928 . S
H65 C71 0.930 . S
C66 H63 0.931 . S
C66 C67 1.413 . S
C66 C68 1.360 . S
C67 C66 1.413 . S
C67 C71 1.429 . S
C68 C66 1.360 . S
C68 C69 1.372 . S
C69 H64 0.928 . S
C69 C68 1.372 . S
C69 C70 1.404 . S
C70 C69 1.404 . S
C70 C71 1.391 . S
C71 H65 0.930 . S
C71 C67 1.429 . S
C71 C70 1.391 . S
Ho72 C75 2.811 . S
Ho72 O92 2.322 . S
Ho72 O94 2.378 . S
Ho72 O95 2.524 . S
Ho72 O96 2.381 1_545 S
Ho72 O97 2.669 1_545 S
Ho72 O99 2.346 1_445 S
Ho72 O103 2.305 1_455 S
Ho73 C84 2.811 . S
Ho73 O93 2.346 1_665 S
Ho73 O97 2.305 1_655 S
Ho73 O98 2.322 . S
Ho73 O100 2.378 . S
Ho73 O101 2.524 . S
Ho73 O102 2.381 1_565 S
Ho73 O103 2.669 1_565 S
C74 O92 1.259 . S
C74 O93 1.268 . S
C75 Ho72 2.811 . S
C75 C76 1.488 . S
C75 O94 1.215 . S
C75 O95 1.289 . S
C76 C75 1.488 . S
C76 C77 1.348 . S
C76 C81 1.413 . S
C77 C76 1.348 . S
C77 C78 1.442 . S
C77 H104 0.930 . S
C78 C77 1.442 . S
C78 C79 1.381 . S
C78 H105 0.931 . S
C79 C78 1.381 . S
C79 C80 1.321 . S
C80 C79 1.321 . S
C80 C81 1.403 . S
C80 H106 0.934 . S
C81 C76 1.413 . S
C81 C80 1.403 . S
C81 H107 0.930 . S
C82 O96 1.275 . S
C82 O97 1.256 . S
C83 O98 1.259 . S
C83 O99 1.268 . S
C84 Ho73 2.811 . S
C84 C85 1.488 . S
C84 O100 1.215 . S
C84 O101 1.289 . S
C85 C84 1.488 . S
C85 C86 1.348 . S
C85 C90 1.413 . S
C86 C85 1.348 . S
C86 C87 1.442 . S
C86 H108 0.930 . S
C87 C86 1.442 . S
C87 C88 1.381 . S
C87 H109 0.931 . S
C88 C87 1.381 . S
C88 C89 1.321 . S
C89 C88 1.321 . S
C89 C90 1.403 . S
C89 H110 0.934 . S
C90 C85 1.413 . S
C90 C89 1.403 . S
C90 H111 0.930 . S
C91 O102 1.275 . S
C91 O103 1.256 . S
O92 Ho72 2.322 . S
O92 C74 1.259 . S
O93 Ho73 2.346 1_445 S
O93 C74 1.268 . S
O94 Ho72 2.378 . S
O94 C75 1.215 . S
O95 Ho72 2.524 . S
O95 C75 1.289 . S
O96 Ho72 2.381 1_565 S
O96 C82 1.275 . S
O97 Ho72 2.669 1_565 S
O97 Ho73 2.305 1_455 S
O97 C82 1.256 . S
O98 Ho73 2.322 . S
O98 C83 1.259 . S
O99 Ho72 2.346 1_665 S
O99 C83 1.268 . S
O100 Ho73 2.378 . S
O100 C84 1.215 . S
O101 Ho73 2.524 . S
O101 C84 1.289 . S
O102 Ho73 2.381 1_545 S
O102 C91 1.275 . S
O103 Ho72 2.305 1_655 S
O103 Ho73 2.669 1_545 S
O103 C91 1.256 . S
H104 C77 0.930 . S
H105 C78 0.931 . S
H106 C80 0.934 . S
H107 C81 0.930 . S
H108 C86 0.930 . S
H109 C87 0.931 . S
H110 C89 0.934 . S
H111 C90 0.930 . S
Ho112 C115 2.811 1_565 S
Ho112 O132 2.322 1_565 S
Ho112 O134 2.378 1_565 S
Ho112 O135 2.524 1_565 S
Ho112 O136 2.381 . S
Ho112 O137 2.669 . S
Ho112 O139 2.346 1_554 S
Ho112 O143 2.305 1_564 S
Ho113 C124 2.811 1_545 S
Ho113 O133 2.346 1_556 S
Ho113 O137 2.305 1_546 S
Ho113 O138 2.322 1_545 S
Ho113 O140 2.378 1_545 S
Ho113 O141 2.524 1_545 S
Ho113 O142 2.381 . S
Ho113 O143 2.669 . S
C114 O132 1.259 . S
C114 O133 1.268 . S
C115 Ho112 2.811 1_545 S
C115 C116 1.488 . S
C115 O134 1.215 . S
C115 O135 1.289 . S
C116 C115 1.488 . S
C116 C117 1.348 . S
C116 C121 1.413 . S
C117 C116 1.348 . S
C117 C118 1.442 . S
C117 H144 0.930 . S
C118 C117 1.442 . S
C118 C119 1.381 . S
C118 H145 0.931 . S
C119 C118 1.381 . S
C119 C120 1.321 . S
C120 C119 1.321 . S
C120 C121 1.403 . S
C120 H146 0.934 . S
C121 C116 1.413 . S
C121 C120 1.403 . S
C121 H147 0.930 . S
C122 O136 1.275 . S
C122 O137 1.256 . S
C123 O138 1.259 . S
C123 O139 1.268 . S
C124 Ho113 2.811 1_565 S
C124 C125 1.488 . S
C124 O140 1.215 . S
C124 O141 1.289 . S
C125 C124 1.488 . S
C125 C126 1.348 . S
C125 C130 1.413 . S
C126 C125 1.348 . S
C126 C127 1.442 . S
C126 H148 0.930 . S
C127 C126 1.442 . S
C127 C128 1.381 . S
C127 H149 0.931 . S
C128 C127 1.381 . S
C128 C129 1.321 . S
C129 C128 1.321 . S
C129 C130 1.403 . S
C129 H150 0.934 . S
C130 C125 1.413 . S
C130 C129 1.403 . S
C130 H151 0.930 . S
C131 O142 1.275 . S
C131 O143 1.256 . S
O132 Ho112 2.322 1_545 S
O132 C114 1.259 . S
O133 Ho113 2.346 1_554 S
O133 C114 1.268 . S
O134 Ho112 2.378 1_545 S
O134 C115 1.215 . S
O135 Ho112 2.524 1_545 S
O135 C115 1.289 . S
O136 Ho112 2.381 . S
O136 C122 1.275 . S
O137 Ho112 2.669 . S
O137 Ho113 2.305 1_564 S
O137 C122 1.256 . S
O138 Ho113 2.322 1_565 S
O138 C123 1.259 . S
O139 Ho112 2.346 1_556 S
O139 C123 1.268 . S
O140 Ho113 2.378 1_565 S
O140 C124 1.215 . S
O141 Ho113 2.524 1_565 S
O141 C124 1.289 . S
O142 Ho113 2.381 . S
O142 C131 1.275 . S
O143 Ho112 2.305 1_546 S
O143 Ho113 2.669 . S
O143 C131 1.256 . S
H144 C117 0.930 . S
H145 C118 0.931 . S
H146 C120 0.934 . S
H147 C121 0.930 . S
H148 C126 0.930 . S
H149 C127 0.931 . S
H150 C129 0.934 . S
H151 C130 0.930 . S
Ho152 C155 2.811 . S
Ho152 O172 2.322 . S
Ho152 O174 2.378 . S
Ho152 O175 2.524 . S
Ho152 O176 2.381 . S
Ho152 O177 2.669 . S
Ho152 O179 2.346 . S
Ho152 O183 2.305 . S
Ho153 C164 2.811 . S
Ho153 O173 2.346 . S
Ho153 O177 2.305 . S
Ho153 O178 2.322 . S
Ho153 O180 2.378 . S
Ho153 O181 2.524 . S
Ho153 O182 2.381 . S
Ho153 O183 2.669 . S
C154 O172 1.259 . S
C154 O173 1.268 . S
C155 Ho152 2.811 . S
C155 C156 1.488 . S
C155 O174 1.215 . S
C155 O175 1.289 . S
C156 C155 1.488 . S
C156 C157 1.348 . S
C156 C161 1.413 . S
C157 C156 1.348 . S
C157 C158 1.442 . S
C157 H184 0.930 . S
C158 C157 1.442 . S
C158 C159 1.381 . S
C158 H185 0.931 . S
C159 C158 1.381 . S
C159 C160 1.321 . S
C160 C159 1.321 . S
C160 C161 1.403 . S
C160 H186 0.934 . S
C161 C156 1.413 . S
C161 C160 1.403 . S
C161 H187 0.930 . S
C162 O176 1.275 . S
C162 O177 1.256 . S
C163 O178 1.259 . S
C163 O179 1.268 . S
C164 Ho153 2.811 . S
C164 C165 1.488 . S
C164 O180 1.215 . S
C164 O181 1.289 . S
C165 C164 1.488 . S
C165 C166 1.348 . S
C165 C170 1.413 . S
C166 C165 1.348 . S
C166 C167 1.442 . S
C166 H188 0.930 . S
C167 C166 1.442 . S
C167 C168 1.381 . S
C167 H189 0.931 . S
C168 C167 1.381 . S
C168 C169 1.321 . S
C169 C168 1.321 . S
C169 C170 1.403 . S
C169 H190 0.934 . S
C170 C165 1.413 . S
C170 C169 1.403 . S
C170 H191 0.930 . S
C171 O182 1.275 . S
C171 O183 1.256 . S
O172 Ho152 2.322 . S
O172 C154 1.259 . S
O173 Ho153 2.346 . S
O173 C154 1.268 . S
O174 Ho152 2.378 . S
O174 C155 1.215 . S
O175 Ho152 2.524 . S
O175 C155 1.289 . S
O176 Ho152 2.381 . S
O176 C162 1.275 . S
O177 Ho152 2.669 . S
O177 Ho153 2.305 . S
O177 C162 1.256 . S
O178 Ho153 2.322 . S
O178 C163 1.259 . S
O179 Ho152 2.346 . S
O179 C163 1.268 . S
O180 Ho153 2.378 . S
O180 C164 1.215 . S
O181 Ho153 2.524 . S
O181 C164 1.289 . S
O182 Ho153 2.381 . S
O182 C171 1.275 . S
O183 Ho152 2.305 . S
O183 Ho153 2.669 . S
O183 C171 1.256 . S
H184 C157 0.930 . S
H185 C158 0.931 . S
H186 C160 0.934 . S
H187 C161 0.930 . S
H188 C166 0.930 . S
H189 C167 0.931 . S
H190 C169 0.934 . S
H191 C170 0.930 . S
Ho192 C195 2.811 . S
Ho192 O212 2.322 . S
Ho192 O214 2.378 . S
Ho192 O215 2.524 . S
Ho192 O216 2.381 1_455 S
Ho192 O217 2.669 1_455 S
Ho192 O219 2.346 1_454 S
Ho192 O223 2.305 1_554 S
Ho193 C204 2.828 . S
Ho193 O213 2.327 1_656 S
Ho193 O217 2.309 1_556 S
Ho193 O218 2.333 . S
Ho193 O220 2.390 . S
Ho193 O221 2.544 . S
Ho193 O222 2.371 1_655 S
Ho193 O223 2.658 1_655 S
C194 O212 1.259 . S
C194 O213 1.268 . S
C195 Ho192 2.811 . S
C195 C196 1.488 . S
C195 O214 1.215 . S
C195 O215 1.289 . S
C196 C195 1.488 . S
C196 C197 1.348 . S
C196 C201 1.413 . S
C197 C196 1.348 . S
C197 C198 1.442 . S
C197 H224 0.930 . S
C198 C197 1.442 . S
C198 C199 1.381 . S
C198 H225 0.931 . S
C199 C198 1.381 . S
C199 C200 1.321 . S
C200 C199 1.321 . S
C200 C201 1.403 . S
C200 H226 0.934 . S
C201 C196 1.413 . S
C201 C200 1.403 . S
C201 H227 0.930 . S
C202 O216 1.275 . S
C202 O217 1.256 . S
C203 O218 1.259 . S
C203 O219 1.267 . S
C204 Ho193 2.828 . S
C204 C205 1.488 . S
C204 O220 1.215 . S
C204 O221 1.289 . S
C205 C204 1.488 . S
C205 C206 1.348 . S
C205 C210 1.413 . S
C206 C205 1.348 . S
C206 C207 1.442 . S
C206 H228 0.930 . S
C207 C206 1.442 . S
C207 C208 1.381 . S
C207 H229 0.931 . S
C208 C207 1.381 . S
C208 C209 1.321 . S
C209 C208 1.321 . S
C209 C210 1.403 . S
C209 H230 0.934 . S
C210 C205 1.413 . S
C210 C209 1.403 . S
C210 H231 0.930 . S
C211 O222 1.275 . S
C211 O223 1.256 . S
O212 Ho192 2.322 . S
O212 C194 1.259 . S
O213 Ho193 2.327 1_454 S
O213 C194 1.268 . S
O214 Ho192 2.378 . S
O214 C195 1.215 . S
O215 Ho192 2.524 . S
O215 C195 1.289 . S
O216 Ho192 2.381 1_655 S
O216 C202 1.275 . S
O217 Ho192 2.669 1_655 S
O217 Ho193 2.309 1_554 S
O217 C202 1.256 . S
O218 Ho193 2.333 . S
O218 C203 1.259 . S
O219 Ho192 2.346 1_656 S
O219 C203 1.267 . S
O220 Ho193 2.390 . S
O220 C204 1.215 . S
O221 Ho193 2.544 . S
O221 C204 1.289 . S
O222 Ho193 2.371 1_455 S
O222 C211 1.275 . S
O223 Ho192 2.305 1_556 S
O223 Ho193 2.658 1_455 S
O223 C211 1.256 . S
H224 C197 0.930 . S
H225 C198 0.931 . S
H226 C200 0.934 . S
H227 C201 0.930 . S
H228 C206 0.930 . S
H229 C207 0.931 . S
H230 C209 0.934 . S
H231 C210 0.930 . S
C232 C233 1.387 . S
C232 H236 0.950 . S
C232 C241 1.390 . S
C233 C232 1.387 . S
C233 C235 1.387 . S
H234 C241 0.950 . S
C235 C233 1.387 . S
C235 C237 1.390 . S
C235 H239 0.950 . S
H236 C232 0.950 . S
C237 C235 1.390 . S
C237 C238 1.387 . S
C237 H240 0.950 . S
C238 C237 1.387 . S
C238 C241 1.387 . S
H239 C235 0.950 . S
H240 C237 0.950 . S
C241 C232 1.390 . S
C241 H234 0.950 . S
C241 C238 1.387 . S
C242 C243 1.387 . S
C242 H246 0.950 . S
C242 C251 1.390 . S
C243 C242 1.387 . S
C243 C245 1.387 . S
H244 C251 0.950 . S
C245 C243 1.387 . S
C245 C247 1.390 . S
C245 H249 0.950 . S
H246 C242 0.950 . S
C247 C245 1.390 . S
C247 C248 1.387 . S
C247 H250 0.950 . S
C248 C247 1.387 . S
C248 C251 1.387 . S
H249 C245 0.950 . S
H250 C247 0.950 . S
C251 C242 1.390 . S
C251 H244 0.950 . S
C251 C248 1.387 . S
C252 C253 1.387 . S
C252 H256 0.950 . S
C252 C261 1.390 . S
C253 C252 1.387 . S
C253 C255 1.387 . S
H254 C261 0.950 . S
C255 C253 1.387 . S
C255 C257 1.390 . S
C255 H259 0.950 . S
H256 C252 0.950 . S
C257 C255 1.390 . S
C257 C258 1.387 . S
C257 H260 0.950 . S
C258 C257 1.387 . S
C258 C261 1.387 . S
H259 C255 0.950 . S
H260 C257 0.950 . S
C261 C252 1.390 . S
C261 H254 0.950 . S
C261 C258 1.387 . S
C262 C263 1.387 . S
C262 H266 0.950 . S
C262 C271 1.390 . S
C263 C262 1.387 . S
C263 C265 1.387 . S
H264 C271 0.950 . S
C265 C263 1.387 . S
C265 C267 1.390 . S
C265 H269 0.950 . S
H266 C262 0.950 . S
C267 C265 1.390 . S
C267 C268 1.387 . S
C267 H270 0.950 . S
C268 C267 1.387 . S
C268 C271 1.387 . S
H269 C265 0.950 . S
H270 C267 0.950 . S
C271 C262 1.390 . S
C271 H264 0.950 . S
C271 C268 1.387 . S
C272 C273 1.387 . S
C272 H276 0.950 . S
C272 C281 1.390 . S
C273 C272 1.387 . S
C273 C275 1.387 . S
H274 C281 0.950 . S
C275 C273 1.387 . S
C275 C277 1.390 . S
C275 H279 0.950 . S
H276 C272 0.950 . S
C277 C275 1.390 . S
C277 C278 1.387 . S
C277 H280 0.950 . S
C278 C277 1.387 . S
C278 C281 1.387 . S
H279 C275 0.950 . S
H280 C277 0.950 . S
C281 C272 1.390 . S
C281 H274 0.950 . S
C281 C278 1.387 . S
C282 C283 1.387 . S
C282 H286 0.950 . S
C282 C291 1.390 . S
C283 C282 1.387 . S
C283 C285 1.387 . S
H284 C291 0.950 . S
C285 C283 1.387 . S
C285 C287 1.390 . S
C285 H289 0.950 . S
H286 C282 0.950 . S
C287 C285 1.390 . S
C287 C288 1.387 . S
C287 H290 0.950 . S
C288 C287 1.387 . S
C288 C291 1.387 . S
H289 C285 0.950 . S
H290 C287 0.950 . S
C291 C282 1.390 . S
C291 H284 0.950 . S
C291 C288 1.387 . S
C292 C293 1.387 . S
C292 H296 0.950 . S
C292 C301 1.390 . S
C293 C292 1.387 . S
C293 C295 1.387 . S
H294 C301 0.950 . S
C295 C293 1.387 . S
C295 C297 1.390 . S
C295 H299 0.950 . S
H296 C292 0.950 . S
C297 C295 1.390 . S
C297 C298 1.387 . S
C297 H300 0.950 . S
C298 C297 1.387 . S
C298 C301 1.387 . S
H299 C295 0.950 . S
H300 C297 0.950 . S
C301 C292 1.390 . S
C301 H294 0.950 . S
C301 C298 1.387 . S
C302 C303 1.387 . S
C302 H306 0.950 . S
C302 C311 1.390 . S
C303 C302 1.387 . S
C303 C305 1.387 . S
H304 C311 0.950 . S
C305 C303 1.387 . S
C305 C307 1.390 . S
C305 H309 0.950 . S
H306 C302 0.950 . S
C307 C305 1.390 . S
C307 C308 1.387 . S
C307 H310 0.950 . S
C308 C307 1.387 . S
C308 C311 1.387 . S
H309 C305 0.950 . S
H310 C307 0.950 . S
C311 C302 1.390 . S
C311 H304 0.950 . S
C311 C308 1.387 . S
C312 C313 1.387 . S
C312 H316 0.950 . S
C312 C321 1.390 . S
C313 C312 1.387 . S
C313 C315 1.387 . S
H314 C321 0.950 . S
C315 C313 1.387 . S
C315 C317 1.390 . S
C315 H319 0.950 . S
H316 C312 0.950 . S
C317 C315 1.390 . S
C317 C318 1.387 . S
C317 H320 0.950 . S
C318 C317 1.387 . S
C318 C321 1.387 . S
H319 C315 0.950 . S
H320 C317 0.950 . S
C321 C312 1.390 . S
C321 H314 0.950 . S
C321 C318 1.387 . S
C322 C323 1.387 . S
C322 H326 0.950 . S
C322 C331 1.390 . S
C323 C322 1.387 . S
C323 C325 1.387 . S
H324 C331 0.950 . S
C325 C323 1.387 . S
C325 C327 1.390 . S
C325 H329 0.950 . S
H326 C322 0.950 . S
C327 C325 1.390 . S
C327 C328 1.387 . S
C327 H330 0.950 . S
C328 C327 1.387 . S
C328 C331 1.387 . S
H329 C325 0.950 . S
H330 C327 0.950 . S
C331 C322 1.390 . S
C331 H324 0.950 . S
C331 C328 1.387 . S
C332 C333 1.387 . S
C332 H336 0.950 . S
C332 C341 1.390 . S
C333 C332 1.387 . S
C333 C335 1.387 . S
H334 C341 0.950 . S
C335 C333 1.387 . S
C335 C337 1.390 . S
C335 H339 0.950 . S
H336 C332 0.950 . S
C337 C335 1.390 . S
C337 C338 1.387 . S
C337 H340 0.950 . S
C338 C337 1.387 . S
C338 C341 1.387 . S
H339 C335 0.950 . S
H340 C337 0.950 . S
C341 C332 1.390 . S
C341 H334 0.950 . S
C341 C338 1.387 . S
C342 C343 1.387 . S
C342 H346 0.950 . S
C342 C351 1.390 . S
C343 C342 1.387 . S
C343 C345 1.387 . S
H344 C351 0.950 . S
C345 C343 1.387 . S
C345 C347 1.390 . S
C345 H349 0.950 . S
H346 C342 0.950 . S
C347 C345 1.390 . S
C347 C348 1.387 . S
C347 H350 0.950 . S
C348 C347 1.387 . S
C348 C351 1.387 . S
H349 C345 0.950 . S
H350 C347 0.950 . S
C351 C342 1.390 . S
C351 H344 0.950 . S
C351 C348 1.387 . S
C352 C353 1.387 . S
C352 H356 0.950 . S
C352 C361 1.390 . S
C353 C352 1.387 . S
C353 C355 1.387 . S
H354 C361 0.950 . S
C355 C353 1.387 . S
C355 C357 1.390 . S
C355 H359 0.950 . S
H356 C352 0.950 . S
C357 C355 1.390 . S
C357 C358 1.387 . S
C357 H360 0.950 . S
C358 C357 1.387 . S
C358 C361 1.387 . S
H359 C355 0.950 . S
H360 C357 0.950 . S
C361 C352 1.390 . S
C361 H354 0.950 . S
C361 C358 1.387 . S
C362 C363 1.387 . S
C362 H366 0.950 . S
C362 C371 1.390 . S
C363 C362 1.387 . S
C363 C365 1.387 . S
H364 C371 0.950 . S
C365 C363 1.387 . S
C365 C367 1.390 . S
C365 H369 0.950 . S
H366 C362 0.950 . S
C367 C365 1.390 . S
C367 C368 1.387 . S
C367 H370 0.950 . S
C368 C367 1.387 . S
C368 C371 1.387 . S
H369 C365 0.950 . S
H370 C367 0.950 . S
C371 C362 1.390 . S
C371 H364 0.950 . S
C371 C368 1.387 . S
C372 C373 1.387 . S
C372 H376 0.950 . S
C372 C381 1.390 . S
C373 C372 1.387 . S
C373 C375 1.387 . S
H374 C381 0.950 . S
C375 C373 1.387 . S
C375 C377 1.390 . S
C375 H379 0.950 . S
H376 C372 0.950 . S
C377 C375 1.390 . S
C377 C378 1.387 . S
C377 H380 0.950 . S
C378 C377 1.387 . S
C378 C381 1.387 . S
H379 C375 0.950 . S
H380 C377 0.950 . S
C381 C372 1.390 . S
C381 H374 0.950 . S
C381 C378 1.387 . S
C382 C383 1.387 . S
C382 H386 0.950 . S
C382 C391 1.390 . S
C383 C382 1.387 . S
C383 C385 1.387 . S
H384 C391 0.950 . S
C385 C383 1.387 . S
C385 C387 1.390 . S
C385 H389 0.950 . S
H386 C382 0.950 . S
C387 C385 1.390 . S
C387 C388 1.387 . S
C387 H390 0.950 . S
C388 C387 1.387 . S
C388 C391 1.387 . S
H389 C385 0.950 . S
H390 C387 0.950 . S
C391 C382 1.390 . S
C391 H384 0.950 . S
C391 C388 1.387 . S
C392 C393 1.387 . S
C392 H396 0.950 . S
C392 C401 1.390 . S
C393 C392 1.387 . S
C393 C395 1.387 . S
H394 C401 0.950 . S
C395 C393 1.387 . S
C395 C397 1.390 . S
C395 H399 0.950 . S
H396 C392 0.950 . S
C397 C395 1.390 . S
C397 C398 1.387 . S
C397 H400 0.950 . S
C398 C397 1.387 . S
C398 C401 1.387 . S
H399 C395 0.950 . S
H400 C397 0.950 . S
C401 C392 1.390 . S
C401 H394 0.950 . S
C401 C398 1.387 . S
C402 C403 1.387 . S
C402 H406 0.950 . S
C402 C411 1.390 . S
C403 C402 1.387 . S
C403 C405 1.387 . S
H404 C411 0.950 . S
C405 C403 1.387 . S
C405 C407 1.390 . S
C405 H409 0.950 . S
H406 C402 0.950 . S
C407 C405 1.390 . S
C407 C408 1.387 . S
C407 H410 0.950 . S
C408 C407 1.387 . S
C408 C411 1.387 . S
H409 C405 0.950 . S
H410 C407 0.950 . S
C411 C402 1.390 . S
C411 H404 0.950 . S
C411 C408 1.387 . S
C412 C413 1.387 . S
C412 H416 0.950 . S
C412 C421 1.390 . S
C413 C412 1.387 . S
C413 C415 1.387 . S
H414 C421 0.950 . S
C415 C413 1.387 . S
C415 C417 1.390 . S
C415 H419 0.950 . S
H416 C412 0.950 . S
C417 C415 1.390 . S
C417 C418 1.387 . S
C417 H420 0.950 . S
C418 C417 1.387 . S
C418 C421 1.387 . S
H419 C415 0.950 . S
H420 C417 0.950 . S
C421 C412 1.390 . S
C421 H414 0.950 . S
C421 C418 1.387 . S
C422 C423 1.387 . S
C422 H426 0.950 . S
C422 C431 1.390 . S
C423 C422 1.387 . S
C423 C425 1.387 . S
H424 C431 0.950 . S
C425 C423 1.387 . S
C425 C427 1.390 . S
C425 H429 0.950 . S
H426 C422 0.950 . S
C427 C425 1.390 . S
C427 C428 1.387 . S
C427 H430 0.950 . S
C428 C427 1.387 . S
C428 C431 1.387 . S
H429 C425 0.950 . S
H430 C427 0.950 . S
C431 C422 1.390 . S
C431 H424 0.950 . S
C431 C428 1.387 . S
C432 C433 1.387 . S
C432 H436 0.950 . S
C432 C441 1.390 . S
C433 C432 1.387 . S
C433 C435 1.387 . S
H434 C441 0.950 . S
C435 C433 1.387 . S
C435 C437 1.390 . S
C435 H439 0.950 . S
H436 C432 0.950 . S
C437 C435 1.390 . S
C437 C438 1.387 . S
C437 H440 0.950 . S
C438 C437 1.387 . S
C438 C441 1.387 . S
H439 C435 0.950 . S
H440 C437 0.950 . S
C441 C432 1.390 . S
C441 H434 0.950 . S
C441 C438 1.387 . S
C442 C443 1.387 . S
C442 H446 0.950 . S
C442 C451 1.390 . S
C443 C442 1.387 . S
C443 C445 1.387 . S
H444 C451 0.950 . S
C445 C443 1.387 . S
C445 C447 1.390 . S
C445 H449 0.950 . S
H446 C442 0.950 . S
C447 C445 1.390 . S
C447 C448 1.387 . S
C447 H450 0.950 . S
C448 C447 1.387 . S
C448 C451 1.387 . S
H449 C445 0.950 . S
H450 C447 0.950 . S
C451 C442 1.390 . S
C451 H444 0.950 . S
C451 C448 1.387 . S
C452 C453 1.387 . S
C452 H456 0.950 . S
C452 C461 1.390 . S
C453 C452 1.387 . S
C453 C455 1.387 . S
H454 C461 0.950 . S
C455 C453 1.387 . S
C455 C457 1.390 . S
C455 H459 0.950 . S
H456 C452 0.950 . S
C457 C455 1.390 . S
C457 C458 1.387 . S
C457 H460 0.950 . S
C458 C457 1.387 . S
C458 C461 1.387 . S
H459 C455 0.950 . S
H460 C457 0.950 . S
C461 C452 1.390 . S
C461 H454 0.950 . S
C461 C458 1.387 . S
C462 C463 1.387 . S
C462 H466 0.950 . S
C462 C471 1.390 . S
C463 C462 1.387 . S
C463 C465 1.387 . S
H464 C471 0.950 . S
C465 C463 1.387 . S
C465 C467 1.390 . S
C465 H469 0.950 . S
H466 C462 0.950 . S
C467 C465 1.390 . S
C467 C468 1.387 . S
C467 H470 0.950 . S
C468 C467 1.387 . S
C468 C471 1.387 . S
H469 C465 0.950 . S
H470 C467 0.950 . S
C471 C462 1.390 . S
C471 H464 0.950 . S
C471 C468 1.387 . S
C233 C5 1.036 . S
C238 C79 1.049 . S
C243 C14 1.019 . S
C248 C128 1.024 . S
C258 C154 2.514 . S
C253 C25 2.574 . S
C263 C34 2.525 . S
C268 C202 2.482 . S
C278 C114 2.025 . S
C273 C7 1.869 . S
C288 C82 0.736 . S
C283 C13 0.732 . S
C298 C203 1.954 . S
C293 C23 2.010 . S
C308 C171 1.795 . S
C303 C31 1.814 . S
C313 C4 1.389 . S
C318 C199 1.447 . S
C328 C131 2.359 . S
C323 C22 2.444 . S
C333 C32 2.382 . S
C338 C83 2.371 . S
C343 C16 1.082 . S
C348 C168 1.112 . S
C358 C88 1.038 . S
C353 C41 1.019 . S
C363 C50 1.027 . S
C368 C119 1.028 . S
C373 C61 2.566 . S
C378 C163 2.507 . S
C383 C67 2.533 . S
C388 C211 2.490 . S
C393 C40 1.885 . S
C398 C123 2.038 . S
C408 C91 0.713 . S
C403 C52 0.709 . S
C418 C194 1.959 . S
C413 C59 2.018 . S
C428 C162 1.796 . S
C423 C70 1.809 . S
C433 C43 1.377 . S
C438 C208 1.443 . S
C448 C122 2.369 . S
C443 C58 2.455 . S
C458 C74 2.356 . S
C453 C68 2.364 . S
C463 C49 1.091 . S
C468 C159 1.115 . S
