# Generated by pormake.
# Topology pyr, (3,6)-cn, num edge types: 1
# Building blocks:
#     Node 0, Type 0, BuildingBlock: BETDAH_clean_linker_0, # of connection points: 3
#     Node 1, Type 0, BuildingBlock: BETDAH_clean_linker_0, # of connection points: 3
#     Node 2, Type 0, BuildingBlock: BETDAH_clean_linker_0, # of connection points: 3
#     Node 3, Type 0, BuildingBlock: BETDAH_clean_linker_0, # of connection points: 3
#     Node 4, Type 0, BuildingBlock: BETDAH_clean_linker_0, # of connection points: 3
#     Node 5, Type 0, BuildingBlock: BETDAH_clean_linker_0, # of connection points: 3
#     Node 6, Type 0, BuildingBlock: BETDAH_clean_linker_0, # of connection points: 3
#     Node 7, Type 0, BuildingBlock: BETDAH_clean_linker_0, # of connection points: 3
#     Node 8, Type 1, BuildingBlock: VOLQOD_clean_sbu_1, # of connection points: 6
#     Node 9, Type 1, BuildingBlock: VOLQOD_clean_sbu_1, # of connection points: 6
#     Node 10, Type 1, BuildingBlock: VOLQOD_clean_sbu_1, # of connection points: 6
#     Node 11, Type 1, BuildingBlock: VOLQOD_clean_sbu_1, # of connection points: 6
#     Edge 12, Type (0, 1), BuildingBlock: ZUJKAS_clean_linker_0, # of connection points: 2
#     Edge 13, Type (0, 1), BuildingBlock: ZUJKAS_clean_linker_0, # of connection points: 2
#     Edge 14, Type (0, 1), BuildingBlock: ZUJKAS_clean_linker_0, # of connection points: 2
#     Edge 15, Type (0, 1), BuildingBlock: ZUJKAS_clean_linker_0, # of connection points: 2
#     Edge 16, Type (0, 1), BuildingBlock: ZUJKAS_clean_linker_0, # of connection points: 2
#     Edge 17, Type (0, 1), BuildingBlock: ZUJKAS_clean_linker_0, # of connection points: 2
#     Edge 18, Type (0, 1), BuildingBlock: ZUJKAS_clean_linker_0, # of connection points: 2
#     Edge 19, Type (0, 1), BuildingBlock: ZUJKAS_clean_linker_0, # of connection points: 2
#     Edge 20, Type (0, 1), BuildingBlock: ZUJKAS_clean_linker_0, # of connection points: 2
#     Edge 21, Type (0, 1), BuildingBlock: ZUJKAS_clean_linker_0, # of connection points: 2
#     Edge 22, Type (0, 1), BuildingBlock: ZUJKAS_clean_linker_0, # of connection points: 2
#     Edge 23, Type (0, 1), BuildingBlock: ZUJKAS_clean_linker_0, # of connection points: 2
#     Edge 24, Type (0, 1), BuildingBlock: ZUJKAS_clean_linker_0, # of connection points: 2
#     Edge 25, Type (0, 1), BuildingBlock: ZUJKAS_clean_linker_0, # of connection points: 2
#     Edge 26, Type (0, 1), BuildingBlock: ZUJKAS_clean_linker_0, # of connection points: 2
#     Edge 27, Type (0, 1), BuildingBlock: ZUJKAS_clean_linker_0, # of connection points: 2
#     Edge 28, Type (0, 1), BuildingBlock: ZUJKAS_clean_linker_0, # of connection points: 2
#     Edge 29, Type (0, 1), BuildingBlock: ZUJKAS_clean_linker_0, # of connection points: 2
#     Edge 30, Type (0, 1), BuildingBlock: ZUJKAS_clean_linker_0, # of connection points: 2
#     Edge 31, Type (0, 1), BuildingBlock: ZUJKAS_clean_linker_0, # of connection points: 2
#     Edge 32, Type (0, 1), BuildingBlock: ZUJKAS_clean_linker_0, # of connection points: 2
#     Edge 33, Type (0, 1), BuildingBlock: ZUJKAS_clean_linker_0, # of connection points: 2
#     Edge 34, Type (0, 1), BuildingBlock: ZUJKAS_clean_linker_0, # of connection points: 2
#     Edge 35, Type (0, 1), BuildingBlock: ZUJKAS_clean_linker_0, # of connection points: 2
# Relax obj value: 0.102
# Max RMSD: 0.190
# Mean RMSD: 0.149
data_MOF--net-pry--node1-VOLQOD_clean_sbu_1--node2-BETDAH_clean_linker_0--edge1-ZUJKAS_clean_linker_0
_symmetry_space_group_name_H-M    P1
_symmetry_Int_Tables_number       1
_symmetry_cell_setting            triclinic
loop_
_symmetry_equiv_pos_as_xyz
'x, y, z'
_cell_length_a     46.513679
_cell_length_b     47.214606
_cell_length_c     49.18565
_cell_angle_alpha  90.514116
_cell_angle_beta   90.766068
_cell_angle_gamma 96.648838
loop_
_atom_site_label
_atom_site_type_symbol
_atom_site_fract_x
_atom_site_fract_y
_atom_site_fract_z
_atom_type_partial_charge
H0 H 0.17116 0.13422 0.19428 0.0
H1 H 0.15512 0.17119 0.11665 0.0
H2 H 0.09422 0.1752 0.1809 0.0
C3 C 0.15782 0.14581 0.18115 0.0
C4 C 0.13179 0.15409 0.19103 0.0
C5 C 0.16667 0.15204 0.15445 0.0
C6 C 0.14931 0.16723 0.13766 0.0
C7 C 0.12352 0.17602 0.14734 0.0
C8 C 0.11487 0.16957 0.17402 0.0
N9 N 0.10408 0.18685 0.12883 0.0
C10 C 0.10143 0.21573 0.12651 0.0
H11 H 0.42035 0.85962 0.71388 0.0
H12 H 0.39612 0.94329 0.69733 0.0
H13 H 0.40071 0.88372 0.632 0.0
C14 C 0.41396 0.87523 0.69968 0.0
C15 C 0.41125 0.86817 0.6718 0.0
C16 C 0.4084 0.90223 0.70935 0.0
C17 C 0.39957 0.92202 0.69067 0.0
C18 C 0.39627 0.91505 0.66302 0.0
C19 C 0.40217 0.8883 0.65363 0.0
N20 N 0.38993 0.93605 0.64428 0.0
C21 C 0.36176 0.93854 0.63584 0.0
H22 H 0.636 0.3877 0.96029 0.0
H23 H 0.61716 0.46983 0.93227 0.0
H24 H 0.54924 0.40043 0.93578 0.0
C25 C 0.62069 0.40145 0.95263 0.0
C26 C 0.59155 0.39041 0.94865 0.0
C27 C 0.63025 0.43008 0.94693 0.0
C28 C 0.61031 0.44765 0.93671 0.0
C29 C 0.58117 0.4369 0.93293 0.0
C30 C 0.57179 0.4085 0.93911 0.0
N31 N 0.56104 0.45469 0.9231 0.0
C32 C 0.55992 0.46109 0.89569 0.0
H33 H 0.86678 0.66707 0.44135 0.0
H34 H 0.93493 0.64644 0.38897 0.0
H35 H 0.87448 0.57957 0.42068 0.0
C36 C 0.87777 0.65133 0.43073 0.0
C37 C 0.86737 0.62233 0.43272 0.0
C38 C 0.90225 0.66026 0.41521 0.0
C39 C 0.91613 0.63979 0.40113 0.0
C40 C 0.90593 0.61068 0.40304 0.0
C41 C 0.88198 0.60209 0.41916 0.0
N42 N 0.91944 0.58954 0.38911 0.0
C43 C 0.93004 0.59342 0.36299 0.0
H44 H 0.91795 0.88451 0.86369 0.0
H45 H 0.88619 0.91279 0.94003 0.0
H46 H 0.89538 0.96993 0.87267 0.0
C47 C 0.90977 0.90091 0.87593 0.0
C48 C 0.90684 0.9276 0.86441 0.0
C49 C 0.90279 0.89538 0.90331 0.0
C50 C 0.89178 0.91668 0.91897 0.0
C51 C 0.88889 0.94343 0.90768 0.0
C52 C 0.89692 0.94888 0.88077 0.0
N53 N 0.87965 0.96587 0.9234 0.0
C54 C 0.85517 0.96263 0.93944 0.0
H55 H 0.65869 0.10586 0.38763 0.0
H56 H 0.64788 0.13165 0.47063 0.0
H57 H 0.58325 0.14504 0.41051 0.0
C58 C 0.64633 0.11555 0.40297 0.0
C59 C 0.61966 0.12492 0.39576 0.0
C60 C 0.65694 0.11807 0.42984 0.0
C61 C 0.64027 0.12978 0.4497 0.0
C62 C 0.61416 0.14008 0.4427 0.0
C63 C 0.60398 0.13797 0.41565 0.0
N64 N 0.5976 0.15067 0.46361 0.0
C65 C 0.58714 0.17701 0.46244 0.0
H66 H 0.37655 0.67419 0.12143 0.0
H67 H 0.38143 0.58395 0.12745 0.0
H68 H 0.44754 0.64352 0.16459 0.0
C69 C 0.38752 0.65654 0.12851 0.0
C70 C 0.41359 0.66222 0.14329 0.0
C71 C 0.37558 0.62844 0.12266 0.0
C72 C 0.39015 0.60582 0.13185 0.0
C73 C 0.41562 0.61117 0.14744 0.0
C74 C 0.4275 0.63939 0.15298 0.0
N75 N 0.4288 0.58783 0.15765 0.0
C76 C 0.43712 0.5868 0.18477 0.0
H77 H 0.1338 0.39191 0.60297 0.0
H78 H 0.11122 0.47403 0.62794 0.0
H79 H 0.04496 0.40335 0.61817 0.0
C80 C 0.11769 0.40539 0.60925 0.0
C81 C 0.08852 0.39387 0.61036 0.0
C82 C 0.12616 0.4343 0.6153 0.0
C83 C 0.10504 0.45176 0.62283 0.0
C84 C 0.07578 0.44053 0.62365 0.0
C85 C 0.06757 0.41183 0.617 0.0
N86 N 0.05438 0.45774 0.63162 0.0
C87 C 0.05611 0.47139 0.65677 0.0
O88 O 0.00361 0.0814 0.552 0.0
Zn89 Zn 0.98575 0.04146 0.54345 0.0
O90 O 0.01116 0.0217 0.52033 0.0
Zn91 Zn 0.99177 0.01252 0.48515 0.0
Zn92 Zn 0.04767 0.0461 0.51458 0.0
Zn93 Zn 0.01926 0.98666 0.53835 0.0
O94 O 0.98759 0.97015 0.47792 0.0
O95 O 0.00529 0.95216 0.51533 0.0
O96 O 0.94746 0.04449 0.52492 0.0
O97 O 0.95157 0.02501 0.48414 0.0
O98 O 0.01434 0.03203 0.45439 0.0
O99 O 0.05355 0.05452 0.47465 0.0
O100 O 0.08216 0.02796 0.52919 0.0
O101 O 0.97785 0.02121 0.57898 0.0
O102 O 0.062 0.98656 0.54498 0.0
O103 O 0.00049 0.98255 0.57515 0.0
C104 C 0.02799 0.09533 0.54684 0.0
C105 C 0.99358 0.94887 0.49177 0.0
C106 C 0.03841 0.04787 0.45325 0.0
C107 C 0.93696 0.0373 0.50149 0.0
C108 C 0.0843 0.00416 0.54065 0.0
C109 C 0.98498 0.99805 0.58865 0.0
O110 O 0.04698 0.08418 0.53322 0.0
O111 O 0.49564 0.08383 0.01816 0.0
Zn112 Zn 0.47665 0.04469 0.0277 0.0
O113 O 0.50174 0.02591 0.05247 0.0
Zn114 Zn 0.51226 0.99149 0.03479 0.0
Zn115 Zn 0.53732 0.05115 0.06118 0.0
Zn116 Zn 0.4808 0.01588 0.08607 0.0
O117 O 0.50045 0.9572 0.05752 0.0
O118 O 0.47661 0.97329 0.09218 0.0
O119 O 0.46807 0.02205 0.99271 0.0
O120 O 0.49323 0.98525 0.99785 0.0
O121 O 0.55522 0.99322 0.02965 0.0
O122 O 0.57325 0.03403 0.04926 0.0
O123 O 0.54106 0.05964 0.10155 0.0
O124 O 0.43872 0.05027 0.04535 0.0
O125 O 0.50236 0.03439 0.11861 0.0
O126 O 0.44134 0.02996 0.0857 0.0
C127 C 0.51925 0.09845 0.02556 0.0
C128 C 0.48634 0.9529 0.07939 0.0
C129 C 0.57678 0.01101 0.03665 0.0
C130 C 0.47638 0.99895 0.98379 0.0
C131 C 0.52559 0.0513 0.12179 0.0
C132 C 0.42776 0.04348 0.06833 0.0
O133 O 0.53688 0.08852 0.04198 0.0
O134 O 0.53126 0.53772 0.60217 0.0
Zn135 Zn 0.5289 0.55581 0.56537 0.0
O136 O 0.50284 0.53113 0.54102 0.0
Zn137 Zn 0.52439 0.5196 0.51003 0.0
Zn138 Zn 0.48668 0.49664 0.5601 0.0
Zn139 Zn 0.47165 0.55231 0.52789 0.0
O140 O 0.50911 0.53383 0.47515 0.0
O141 O 0.47208 0.55673 0.48694 0.0
O142 O 0.56968 0.56215 0.55064 0.0
O143 O 0.56606 0.53526 0.51324 0.0
O144 O 0.52272 0.47707 0.50663 0.0
O145 O 0.4968 0.46041 0.54173 0.0
O146 O 0.44317 0.49472 0.56182 0.0
O147 O 0.51399 0.59403 0.57148 0.0
O148 O 0.4329 0.53246 0.53854 0.0
O149 O 0.47458 0.5914 0.54522 0.0
C150 C 0.51941 0.51468 0.61249 0.0
C151 C 0.48849 0.54812 0.46883 0.0
C152 C 0.51125 0.45624 0.52051 0.0
C153 C 0.58107 0.55192 0.52984 0.0
C154 C 0.42487 0.51027 0.55227 0.0
C155 C 0.49211 0.60497 0.56218 0.0
O156 O 0.50196 0.49718 0.59867 0.0
O157 O 0.98118 0.54878 0.07038 0.0
Zn158 Zn 0.98395 0.53004 0.03375 0.0
O159 O 0.0076 0.55553 0.00942 0.0
Zn160 Zn 0.98427 0.56487 0.9783 0.0
Zn161 Zn 0.02233 0.59116 0.02863 0.0
Zn162 Zn 0.03964 0.53581 0.9964 0.0
O163 O 0.00141 0.55369 0.94314 0.0
O164 O 0.03917 0.53179 0.95542 0.0
O165 O 0.94336 0.52022 0.01853 0.0
O166 O 0.9441 0.54449 0.98005 0.0
O167 O 0.98071 0.6068 0.97677 0.0
O168 O 0.00775 0.62584 0.01124 0.0
O169 O 0.06614 0.59638 0.02928 0.0
O170 O 0.00155 0.49331 0.04015 0.0
O171 O 0.07738 0.55787 0.0074 0.0
O172 O 0.03963 0.49692 0.01321 0.0
C173 C 0.99248 0.57219 0.08111 0.0
C174 C 0.02284 0.5405 0.93704 0.0
C175 C 0.99109 0.62844 0.99084 0.0
C176 C 0.93081 0.52766 0.99699 0.0
C177 C 0.08488 0.58118 0.02017 0.0
C178 C 0.02356 0.48313 0.03054 0.0
O179 O 0.00901 0.59016 0.0676 0.0
H180 H 0.13132 0.10116 0.21273 0.0
H181 H 0.11506 0.08518 0.2576 0.0
H182 H 0.09299 0.16941 0.2762 0.0
H183 H 0.1089 0.18546 0.23091 0.0
H184 H 0.13503 0.10288 0.30708 0.0
H185 H 0.01947 0.12027 0.29627 0.0
H186 H 0.04354 0.12156 0.26773 0.0
H187 H 0.04434 0.15159 0.29059 0.0
C188 C 0.12308 0.11633 0.22638 0.0
C189 C 0.12148 0.14462 0.21832 0.0
C190 C 0.1137 0.10713 0.25201 0.0
C191 C 0.1025 0.12597 0.27021 0.0
C192 C 0.10095 0.1543 0.2623 0.0
H193 H 0.08371 0.08887 0.44353 0.0
H194 H 0.09944 0.10873 0.39975 0.0
C195 C 0.11013 0.16349 0.23648 0.0
C196 C 0.09318 0.11583 0.2976 0.0
H197 H 0.03517 0.10674 0.33981 0.0
C198 C 0.11319 0.10374 0.31424 0.0
C199 C 0.06458 0.11664 0.30681 0.0
C200 C 0.04163 0.12796 0.28935 0.0
C201 C 0.10542 0.09236 0.33975 0.0
C202 C 0.07701 0.09375 0.34923 0.0
C203 C 0.057 0.10588 0.33262 0.0
C204 C 0.06735 0.08197 0.37595 0.0
C205 C 0.12749 0.07819 0.35589 0.0
C206 C 0.04356 0.06084 0.37728 0.0
C207 C 0.03427 0.04966 0.40232 0.0
C208 C 0.04861 0.05936 0.42662 0.0
C209 C 0.07236 0.08065 0.42523 0.0
C210 C 0.08148 0.09197 0.40017 0.0
H211 H 0.14501 0.07191 0.34278 0.0
H212 H 0.13759 0.09335 0.37158 0.0
H213 H 0.11724 0.05891 0.3663 0.0
H214 H 0.03226 0.05285 0.35887 0.0
H215 H 0.01588 0.03335 0.40261 0.0
H216 H 0.37612 0.93424 0.7413 0.0
H217 H 0.38637 0.95061 0.78812 0.0
H218 H 0.46075 0.90399 0.79093 0.0
H219 H 0.45163 0.88877 0.74376 0.0
H220 H 0.38979 0.92233 0.83576 0.0
H221 H 0.49612 0.98282 0.81373 0.0
H222 H 0.47101 0.96912 0.78721 0.0
H223 H 0.494 0.94605 0.80359 0.0
C224 C 0.39486 0.92769 0.75176 0.0
C225 C 0.41321 0.9104 0.73856 0.0
C226 C 0.40054 0.9369 0.77862 0.0
C227 C 0.42468 0.92904 0.79286 0.0
C228 C 0.4424 0.91091 0.78014 0.0
H229 H 0.49592 0.95515 0.95529 0.0
H230 H 0.48177 0.93828 0.90938 0.0
C231 C 0.43688 0.90186 0.75324 0.0
C232 C 0.43141 0.93988 0.82096 0.0
H233 H 0.48464 0.97624 0.86047 0.0
C234 C 0.41045 0.93429 0.84112 0.0
C235 C 0.45831 0.95568 0.82791 0.0
C236 C 0.48104 0.96405 0.80692 0.0
C237 C 0.41598 0.94342 0.86817 0.0
C238 C 0.4431 0.95857 0.87515 0.0
C239 C 0.46393 0.96443 0.855 0.0
C240 C 0.45053 0.96824 0.90336 0.0
C241 C 0.39312 0.93634 0.88927 0.0
C242 C 0.43765 0.99076 0.9151 0.0
C243 C 0.44582 0.00064 0.94132 0.0
C244 C 0.46695 0.98808 0.95629 0.0
C245 C 0.47952 0.96529 0.94445 0.0
C246 C 0.47151 0.95561 0.91819 0.0
H247 H 0.37498 0.92091 0.88145 0.0
H248 H 0.40271 0.92731 0.9076 0.0
H249 H 0.38422 0.95615 0.89561 0.0
H250 H 0.42162 0.00096 0.90381 0.0
H251 H 0.4357 0.01822 0.94979 0.0
H252 H 0.52654 0.42936 0.85938 0.0
H253 H 0.52186 0.43833 0.8105 0.0
H254 H 0.58326 0.51386 0.81907 0.0
H255 H 0.58816 0.50461 0.86796 0.0
H256 H 0.5035 0.48671 0.78653 0.0
H257 H 0.6149 0.47121 0.75494 0.0
H258 H 0.60036 0.45922 0.78725 0.0
H259 H 0.61305 0.49622 0.78243 0.0
C260 C 0.53911 0.44774 0.85066 0.0
C261 C 0.5577 0.46633 0.86703 0.0
C262 C 0.53645 0.45285 0.82287 0.0
C263 C 0.55249 0.47655 0.81113 0.0
C264 C 0.57112 0.49516 0.82764 0.0
H265 H 0.55579 0.54651 0.64833 0.0
H266 H 0.56397 0.53721 0.69649 0.0
C267 C 0.57378 0.49001 0.85547 0.0
C268 C 0.54873 0.48231 0.78184 0.0
H269 H 0.58442 0.4888 0.72158 0.0
C270 C 0.52115 0.48707 0.77229 0.0
C271 C 0.57185 0.48286 0.76339 0.0
C272 C 0.60167 0.47687 0.77239 0.0
C273 C 0.5161 0.49266 0.74479 0.0
C274 C 0.53916 0.49302 0.72631 0.0
C275 C 0.5668 0.48846 0.73585 0.0
C276 C 0.5349 0.49801 0.69695 0.0
C277 C 0.48626 0.49862 0.73582 0.0
C278 C 0.51627 0.47872 0.6812 0.0
C279 C 0.51152 0.48393 0.65368 0.0
C280 C 0.52542 0.50851 0.64138 0.0
C281 C 0.54462 0.52744 0.65714 0.0
C282 C 0.54937 0.52217 0.68466 0.0
H283 H 0.4731 0.50444 0.75326 0.0
H284 H 0.48754 0.51616 0.72083 0.0
H285 H 0.47481 0.47922 0.72594 0.0
H286 H 0.50531 0.45968 0.69024 0.0
H287 H 0.49673 0.4688 0.64216 0.0
H288 H 0.91425 0.55421 0.32453 0.0
H289 H 0.92689 0.55641 0.27629 0.0
H290 H 0.97654 0.63841 0.29007 0.0
H291 H 0.96395 0.63607 0.3386 0.0
H292 H 0.91504 0.59989 0.23894 0.0
H293 H 0.03292 0.59058 0.24994 0.0
H294 H 0.00766 0.58083 0.27677 0.0
H295 H 0.01879 0.61772 0.27 0.0
C296 C 0.92801 0.57258 0.31719 0.0
C297 C 0.93837 0.59489 0.33494 0.0
C298 C 0.93515 0.57386 0.28974 0.0
C299 C 0.95285 0.59744 0.2797 0.0
C300 C 0.96321 0.61985 0.29753 0.0
H301 H 0.01446 0.61851 0.11218 0.0
H302 H 0.00469 0.62799 0.16004 0.0
C303 C 0.956 0.61857 0.32509 0.0
C304 C 0.95969 0.5985 0.2504 0.0
H305 H 0.01433 0.59389 0.20547 0.0
C306 C 0.93678 0.5988 0.23159 0.0
C307 C 0.9881 0.59729 0.24094 0.0
C308 C 0.01335 0.5964 0.26036 0.0
C309 C 0.94141 0.59727 0.20353 0.0
C310 C 0.9696 0.59484 0.19409 0.0
C311 C 0.99272 0.59565 0.21283 0.0
C312 C 0.97516 0.58957 0.16501 0.0
C313 C 0.91603 0.5981 0.18424 0.0
C314 C 0.96205 0.56467 0.15211 0.0
C315 C 0.96755 0.55916 0.12486 0.0
C316 C 0.98645 0.5784 0.10995 0.0
C317 C 0.9997 0.6033 0.12301 0.0
C318 C 0.9942 0.60875 0.15035 0.0
H319 H 0.89833 0.6084 0.19382 0.0
H320 H 0.92264 0.60977 0.16541 0.0
H321 H 0.90727 0.57597 0.17847 0.0
H322 H 0.94775 0.54929 0.16323 0.0
H323 H 0.95707 0.53971 0.11556 0.0
H324 H 0.20954 0.18041 0.12393 0.0
H325 H 0.25322 0.16207 0.10673 0.0
H326 H 0.22711 0.0809 0.14376 0.0
H327 H 0.1834 0.09888 0.1607 0.0
H328 H 0.29738 0.13845 0.13926 0.0
H329 H 0.24412 0.06134 0.06305 0.0
H330 H 0.22664 0.09048 0.07674 0.0
H331 H 0.22885 0.05895 0.09645 0.0
C332 C 0.21302 0.15859 0.12819 0.0
C333 C 0.19308 0.14112 0.14373 0.0
C334 C 0.23799 0.14819 0.11846 0.0
C335 C 0.2432 0.12005 0.12376 0.0
C336 C 0.22331 0.10256 0.13917 0.0
H337 H 0.40088 0.03954 0.11764 0.0
H338 H 0.35604 0.05837 0.13031 0.0
C339 C 0.1985 0.11297 0.14906 0.0
C340 C 0.26984 0.1091 0.11392 0.0
H341 H 0.2939 0.05839 0.07277 0.0
C342 C 0.29667 0.12106 0.12462 0.0
C343 C 0.26881 0.08656 0.09466 0.0
C344 C 0.24061 0.07367 0.08182 0.0
C345 C 0.3225 0.11058 0.11706 0.0
C346 C 0.32138 0.08743 0.09847 0.0
C347 C 0.29462 0.07595 0.08722 0.0
C348 C 0.34785 0.07493 0.09044 0.0
C349 C 0.35084 0.12441 0.12891 0.0
C350 C 0.35765 0.07732 0.06363 0.0
C351 C 0.38329 0.06659 0.05628 0.0
C352 C 0.39948 0.05301 0.07558 0.0
C353 C 0.38904 0.0499 0.10225 0.0
C354 C 0.36349 0.06079 0.10959 0.0
H355 H 0.34867 0.14562 0.13813 0.0
H356 H 0.35835 0.11057 0.14502 0.0
H357 H 0.3677 0.12702 0.11306 0.0
H358 H 0.34576 0.08803 0.04852 0.0
H359 H 0.39059 0.06929 0.03555 0.0
H360 H 0.31439 0.9418 0.66624 0.0
H361 H 0.26629 0.95141 0.64985 0.0
H362 H 0.29755 0.95564 0.56759 0.0
H363 H 0.34541 0.94567 0.58398 0.0
H364 H 0.25217 0.99897 0.62215 0.0
H365 H 0.22315 0.90075 0.56032 0.0
H366 H 0.25244 0.90415 0.58501 0.0
H367 H 0.25752 0.9198 0.55197 0.0
C368 C 0.31073 0.94449 0.64466 0.0
C369 C 0.33319 0.94283 0.62623 0.0
C370 C 0.2834 0.95004 0.63533 0.0
C371 C 0.27823 0.95386 0.60745 0.0
C372 C 0.30086 0.95217 0.58909 0.0
H373 H 0.13737 0.03561 0.535 0.0
H374 H 0.18446 0.02364 0.55112 0.0
C375 C 0.32815 0.94661 0.59843 0.0
C376 C 0.24953 0.96069 0.59769 0.0
H377 H 0.19304 0.93779 0.55486 0.0
C378 C 0.23917 0.98556 0.60752 0.0
C379 C 0.23248 0.943 0.57881 0.0
C380 C 0.24178 0.91529 0.56858 0.0
C381 C 0.21242 0.99345 0.59865 0.0
C382 C 0.19582 0.97625 0.5791 0.0
C383 C 0.20596 0.95114 0.5696 0.0
C384 C 0.16744 0.98345 0.56881 0.0
C385 C 0.20194 0.01986 0.61068 0.0
C386 C 0.14237 0.96449 0.57272 0.0
C387 C 0.11549 0.97114 0.56337 0.0
C388 C 0.11309 0.9969 0.54979 0.0
C389 C 0.13836 0.01568 0.54551 0.0
C390 C 0.16529 0.00896 0.55485 0.0
H391 H 0.21341 0.02643 0.63008 0.0
H392 H 0.20604 0.03767 0.59616 0.0
H393 H 0.17832 0.01639 0.61449 0.0
H394 H 0.14355 0.94463 0.58333 0.0
H395 H 0.09655 0.95611 0.56701 0.0
H396 H 0.664 0.4209 0.99109 0.0
H397 H 0.71506 0.43814 0.99893 0.0
H398 H 0.71707 0.48216 0.92241 0.0
H399 H 0.66592 0.46483 0.9143 0.0
H400 H 0.76194 0.42833 0.96597 0.0
H401 H 0.75162 0.54397 0.97682 0.0
H402 H 0.72096 0.51691 0.97885 0.0
H403 H 0.73561 0.52736 0.94636 0.0
C404 C 0.67532 0.43418 0.97587 0.0
C405 C 0.66096 0.44147 0.95204 0.0
C406 C 0.70443 0.4441 0.98045 0.0
C407 C 0.71971 0.46163 0.96139 0.0
C408 C 0.70548 0.46908 0.93761 0.0
H409 H 0.89758 0.53857 0.95288 0.0
H410 H 0.84671 0.5216 0.94408 0.0
C411 C 0.67629 0.45917 0.93301 0.0
C412 C 0.75078 0.47134 0.96614 0.0
H413 H 0.79917 0.53073 0.97588 0.0
C414 C 0.77011 0.45071 0.96823 0.0
C415 C 0.76129 0.50054 0.96899 0.0
C416 C 0.74131 0.52352 0.96788 0.0
C417 C 0.79982 0.45852 0.97278 0.0
C418 C 0.81031 0.48772 0.97579 0.0
C419 C 0.791 0.50836 0.97358 0.0
C420 C 0.8413 0.49736 0.98112 0.0
C421 C 0.81979 0.43553 0.97379 0.0
C422 C 0.85505 0.48947 0.005 0.0
C423 C 0.8842 0.49908 0.01013 0.0
C424 C 0.90005 0.51693 0.99152 0.0
C425 C 0.88609 0.52483 0.96766 0.0
C426 C 0.85699 0.51519 0.96257 0.0
H427 H 0.80964 0.41527 0.96435 0.0
H428 H 0.84036 0.44235 0.96324 0.0
H429 H 0.82505 0.43122 0.99532 0.0
H430 H 0.84313 0.47614 0.01983 0.0
H431 H 0.89421 0.49271 0.02876 0.0
H432 H 0.82226 0.58288 0.41754 0.0
H433 H 0.77646 0.57106 0.44095 0.0
H434 H 0.80578 0.63009 0.50563 0.0
H435 H 0.85184 0.6419 0.48245 0.0
H436 H 0.76476 0.5502 0.4946 0.0
H437 H 0.72927 0.65754 0.47843 0.0
H438 H 0.7589 0.64527 0.46008 0.0
H439 H 0.7639 0.65675 0.49489 0.0
C440 C 0.81917 0.59302 0.43696 0.0
C441 C 0.8406 0.61347 0.44806 0.0
C442 C 0.79295 0.58634 0.45023 0.0
C443 C 0.78762 0.60004 0.47477 0.0
C444 C 0.8093 0.61971 0.48643 0.0
H445 H 0.62076 0.58871 0.55864 0.0
H446 H 0.67244 0.60028 0.54915 0.0
C447 C 0.83555 0.62643 0.47316 0.0
C448 C 0.759 0.59414 0.4876 0.0
H449 H 0.697 0.62375 0.5008 0.0
C450 C 0.75002 0.56631 0.49619 0.0
C451 C 0.73993 0.6153 0.48976 0.0
C452 C 0.74827 0.64537 0.48016 0.0
C453 C 0.72217 0.55889 0.50636 0.0
C454 C 0.7027 0.57976 0.50749 0.0
C455 C 0.71204 0.60785 0.49991 0.0
C456 C 0.67182 0.57225 0.51405 0.0
C457 C 0.71371 0.52871 0.51553 0.0
C458 C 0.6544 0.55304 0.49722 0.0
C459 C 0.62504 0.54648 0.50247 0.0
C460 C 0.61235 0.55913 0.52465 0.0
C461 C 0.62985 0.57853 0.54146 0.0
C462 C 0.65934 0.58515 0.5361 0.0
H463 H 0.73301 0.51815 0.52131 0.0
H464 H 0.69893 0.52811 0.53312 0.0
H465 H 0.70233 0.5162 0.49858 0.0
H466 H 0.66347 0.54337 0.47973 0.0
H467 H 0.61228 0.53154 0.48901 0.0
H468 H 0.05711 0.24299 0.14377 0.0
H469 H 0.04504 0.28975 0.12864 0.0
H470 H 0.12203 0.29971 0.08005 0.0
H471 H 0.13388 0.25284 0.09499 0.0
H472 H 0.07618 0.34532 0.13147 0.0
H473 H 0.05632 0.30775 0.02479 0.0
H474 H 0.05923 0.28357 0.05265 0.0
H475 H 0.09126 0.30248 0.03852 0.0
C476 C 0.07159 0.25545 0.13018 0.0
C477 C 0.0964 0.24463 0.12052 0.0
C478 C 0.06469 0.28205 0.12151 0.0
C479 C 0.08239 0.298 0.10287 0.0
C480 C 0.10782 0.28755 0.09406 0.0
H481 H 0.06997 0.45566 0.01614 0.0
H482 H 0.08418 0.41127 0.03437 0.0
C483 C 0.1147 0.26096 0.10274 0.0
C484 C 0.07375 0.32508 0.092 0.0
H485 H 0.05461 0.35689 0.03339 0.0
C486 C 0.07139 0.34787 0.11005 0.0
C487 C 0.06746 0.32832 0.06404 0.0
C488 C 0.06842 0.30419 0.04385 0.0
C489 C 0.06343 0.374 0.1008 0.0
C490 C 0.05711 0.37722 0.07283 0.0
C491 C 0.05948 0.35441 0.05481 0.0
C492 C 0.04813 0.4041 0.06177 0.0
C493 C 0.06252 0.39815 0.12096 0.0
C494 C 0.0228 0.41459 0.07071 0.0
C495 C 0.01457 0.44001 0.06033 0.0
C496 C 0.03142 0.4554 0.04062 0.0
C497 C 0.05647 0.44446 0.0313 0.0
C498 C 0.06467 0.41907 0.04172 0.0
H499 H 0.07515 0.39484 0.13977 0.0
H500 H 0.07113 0.41885 0.11198 0.0
H501 H 0.03974 0.39944 0.12679 0.0
H502 H 0.00932 0.40306 0.0857 0.0
H503 H 0.99509 0.44767 0.06789 0.0
H504 H 0.54238 0.36808 0.97455 0.0
H505 H 0.52776 0.31805 0.9856 0.0
H506 H 0.60468 0.29428 0.94774 0.0
H507 H 0.61897 0.34403 0.93584 0.0
H508 H 0.5545 0.25786 0.93428 0.0
H509 H 0.56679 0.27575 0.04588 0.0
H510 H 0.54316 0.29777 0.0291 0.0
H511 H 0.58109 0.30186 0.02151 0.0
C512 C 0.556 0.35215 0.9683 0.0
C513 C 0.58197 0.36003 0.95454 0.0
C514 C 0.54776 0.32365 0.97486 0.0
C515 C 0.5654 0.3026 0.96787 0.0
C516 C 0.59089 0.31027 0.95348 0.0
H517 H 0.5684 0.13509 0.03511 0.0
H518 H 0.57892 0.18416 0.01975 0.0
C519 C 0.59913 0.33871 0.9469 0.0
C520 C 0.55765 0.2726 0.97588 0.0
H521 H 0.54794 0.22945 0.03107 0.0
C522 C 0.55299 0.25159 0.95543 0.0
C523 C 0.55611 0.26456 0.0035 0.0
C524 C 0.56229 0.28608 0.02632 0.0
C525 C 0.54671 0.22266 0.96187 0.0
C526 C 0.54464 0.21469 0.98948 0.0
C527 C 0.54937 0.2357 0.00992 0.0
C528 C 0.53839 0.18457 0.99774 0.0
C529 C 0.54307 0.20083 0.93911 0.0
C530 C 0.51207 0.16857 0.99047 0.0
C531 C 0.50598 0.14043 0.99914 0.0
C532 C 0.52605 0.12788 0.01544 0.0
C533 C 0.55244 0.14403 0.02259 0.0
C534 C 0.55851 0.17211 0.01386 0.0
H535 H 0.55225 0.2096 0.91979 0.0
H536 H 0.55365 0.18167 0.94443 0.0
H537 H 0.51966 0.19404 0.9356 0.0
H538 H 0.49602 0.17799 0.97847 0.0
H539 H 0.48538 0.12868 0.99339 0.0
H540 H 0.87177 0.70564 0.40764 0.0
H541 H 0.88911 0.75613 0.41456 0.0
H542 H 0.97545 0.73456 0.42976 0.0
H543 H 0.95822 0.68397 0.42279 0.0
H544 H 0.91238 0.77658 0.46361 0.0
H545 H 0.98971 0.80414 0.38038 0.0
H546 H 0.9633 0.7729 0.37914 0.0
H547 H 0.99612 0.77275 0.39882 0.0
C548 C 0.89454 0.71173 0.41202 0.0
C549 C 0.91362 0.6909 0.41488 0.0
C550 C 0.90442 0.74055 0.41587 0.0
C551 C 0.93357 0.74909 0.42253 0.0
C552 C 0.95298 0.72848 0.42413 0.0
H553 H 0.00091 0.89824 0.51612 0.0
H554 H 0.98702 0.85011 0.49818 0.0
C555 C 0.94311 0.69959 0.42018 0.0
C556 C 0.94281 0.77902 0.43084 0.0
H557 H 0.99035 0.83765 0.41712 0.0
C558 C 0.9293 0.78999 0.45332 0.0
C559 C 0.96477 0.79647 0.4173 0.0
C560 C 0.97917 0.78612 0.39241 0.0
C561 C 0.93748 0.81781 0.46295 0.0
C562 C 0.96007 0.83495 0.44999 0.0
C563 C 0.97323 0.82427 0.42715 0.0
C564 C 0.97017 0.86407 0.46 0.0
C565 C 0.92174 0.82871 0.48682 0.0
C566 C 0.96592 0.88779 0.44413 0.0
C567 C 0.97382 0.91537 0.45431 0.0
C568 C 0.98628 0.91968 0.48048 0.0
C569 C 0.99122 0.89575 0.49597 0.0
C570 C 0.98325 0.86822 0.48579 0.0
H571 H 0.90078 0.81551 0.49034 0.0
H572 H 0.93536 0.82808 0.50545 0.0
H573 H 0.91755 0.85114 0.48365 0.0
H574 H 0.9559 0.88495 0.42413 0.0
H575 H 0.96985 0.93329 0.44176 0.0
H576 H 0.45752 0.84072 0.68724 0.0
H577 H 0.47208 0.79643 0.66854 0.0
H578 H 0.39815 0.78876 0.61403 0.0
H579 H 0.38331 0.83294 0.63273 0.0
H580 H 0.4423 0.74134 0.66593 0.0
H581 H 0.46608 0.7836 0.56269 0.0
H582 H 0.46132 0.80645 0.59152 0.0
H583 H 0.43035 0.7878 0.57425 0.0
C584 C 0.44415 0.82946 0.67149 0.0
C585 C 0.41929 0.84047 0.66141 0.0
C586 C 0.45261 0.80423 0.66072 0.0
C587 C 0.43651 0.78959 0.63956 0.0
C588 C 0.4113 0.80009 0.6299 0.0
H589 H 0.44734 0.63468 0.54721 0.0
H590 H 0.43502 0.67956 0.56634 0.0
C591 C 0.40282 0.82532 0.64064 0.0
C592 C 0.446 0.76323 0.62772 0.0
H593 H 0.46674 0.7338 0.56844 0.0
C594 C 0.44781 0.73971 0.64466 0.0
C595 C 0.45321 0.7612 0.59996 0.0
C596 C 0.45293 0.78616 0.58106 0.0
C597 C 0.45596 0.71397 0.63444 0.0
C598 C 0.46298 0.71188 0.60664 0.0
C599 C 0.46134 0.73546 0.58974 0.0
C600 C 0.47136 0.68517 0.59453 0.0
C601 C 0.4562 0.68897 0.65332 0.0
C602 C 0.49629 0.67373 0.6036 0.0
C603 C 0.50346 0.64801 0.5927 0.0
C604 C 0.48587 0.6333 0.57241 0.0
C605 C 0.46136 0.64532 0.56285 0.0
C606 C 0.45425 0.67101 0.57375 0.0
H607 H 0.44372 0.69186 0.67205 0.0
H608 H 0.44702 0.66884 0.64303 0.0
H609 H 0.47886 0.68677 0.65947 0.0
H610 H 0.51014 0.68462 0.61922 0.0
H611 H 0.52254 0.63948 0.60047 0.0
H612 H 0.87858 0.95799 0.82742 0.0
H613 H 0.8918 0.96878 0.78037 0.0
H614 H 0.96482 0.92087 0.7884 0.0
H615 H 0.95242 0.91068 0.8358 0.0
H616 H 0.95084 0.99633 0.76292 0.0
H617 H 0.91644 0.8889 0.71792 0.0
H618 H 0.90178 0.90082 0.74931 0.0
H619 H 0.93774 0.89066 0.74888 0.0
C620 C 0.89762 0.94992 0.81932 0.0
C621 C 0.91444 0.93347 0.8355 0.0
C622 C 0.905 0.95596 0.79237 0.0
C623 C 0.9291 0.94541 0.78093 0.0
C624 C 0.94589 0.92887 0.79682 0.0
H625 H 0.00374 0.95583 0.61984 0.0
H626 H 0.99033 0.94342 0.66651 0.0
C627 C 0.93867 0.92299 0.82387 0.0
C628 C 0.93716 0.95244 0.75258 0.0
H629 H 0.93911 0.92379 0.68876 0.0
C630 C 0.94825 0.98054 0.74664 0.0
C631 C 0.93392 0.93168 0.73156 0.0
C632 C 0.92167 0.90131 0.73701 0.0
C633 C 0.95657 0.98844 0.72018 0.0
C634 C 0.95285 0.9678 0.69895 0.0
C635 C 0.94185 0.93961 0.705 0.0
C636 C 0.96038 0.975 0.67038 0.0
C637 C 0.96993 0.01863 0.71542 0.0
C638 C 0.94755 0.99648 0.65681 0.0
C639 C 0.95536 0.0038 0.63021 0.0
C640 C 0.97582 0.98947 0.61646 0.0
C641 C 0.98794 0.96734 0.62981 0.0
C642 C 0.98031 0.96021 0.65651 0.0
H643 H 0.97906 0.02898 0.73452 0.0
H644 H 0.9874 0.0193 0.7002 0.0
H645 H 0.95301 0.03136 0.70767 0.0
H646 H 0.93151 0.00764 0.6668 0.0
H647 H 0.94534 0.02073 0.62045 0.0
H648 H 0.596 0.16208 0.3617 0.0
H649 H 0.57899 0.15303 0.31457 0.0
H650 H 0.59929 0.06636 0.32005 0.0
H651 H 0.61665 0.0754 0.36671 0.0
H652 H 0.62025 0.09154 0.27437 0.0
H653 H 0.50484 0.10837 0.28601 0.0
H654 H 0.53019 0.138 0.29697 0.0
H655 H 0.5286 0.10477 0.31476 0.0
C656 C 0.59652 0.14105 0.35286 0.0
C657 C 0.60782 0.1195 0.36778 0.0
C658 C 0.58672 0.13586 0.326 0.0
C659 C 0.58763 0.10892 0.31384 0.0
C660 C 0.59846 0.08733 0.32895 0.0
H661 H 0.50243 0.03259 0.17016 0.0
H662 H 0.51803 0.0484 0.21597 0.0
C663 C 0.60844 0.09255 0.35559 0.0
C664 C 0.57842 0.10317 0.2851 0.0
H665 H 0.5205 0.10018 0.24131 0.0
C666 C 0.59845 0.0935 0.26712 0.0
C667 C 0.54989 0.10549 0.27574 0.0
C668 C 0.52702 0.11447 0.29439 0.0
C669 C 0.59071 0.08573 0.24017 0.0
C670 C 0.56231 0.08842 0.23068 0.0
C671 C 0.54232 0.09836 0.24857 0.0
C672 C 0.55253 0.07969 0.20266 0.0
C673 C 0.61274 0.07373 0.22246 0.0
C674 C 0.56649 0.09228 0.17989 0.0
C675 C 0.55782 0.08307 0.15361 0.0
C676 C 0.53472 0.06135 0.14959 0.0
C677 C 0.52034 0.0493 0.17246 0.0
C678 C 0.52917 0.05837 0.1987 0.0
H679 H 0.63054 0.06618 0.23472 0.0
H680 H 0.60251 0.05568 0.20974 0.0
H681 H 0.62247 0.09064 0.20874 0.0
H682 H 0.58413 0.10922 0.18243 0.0
H683 H 0.56916 0.09305 0.13647 0.0
H684 H 0.48681 0.60485 0.21206 0.0
H685 H 0.496 0.59989 0.26114 0.0
H686 H 0.40871 0.55937 0.27056 0.0
H687 H 0.39971 0.56408 0.22161 0.0
H688 H 0.4659 0.62032 0.30641 0.0
H689 H 0.45979 0.50214 0.30346 0.0
H690 H 0.46403 0.52356 0.27324 0.0
H691 H 0.42909 0.51625 0.28848 0.0
C692 C 0.46973 0.59489 0.22475 0.0
C693 C 0.44271 0.58459 0.21344 0.0
C694 C 0.47491 0.59213 0.25265 0.0
C695 C 0.45313 0.57892 0.26934 0.0
C696 C 0.42593 0.56917 0.25793 0.0
H697 H 0.44595 0.57677 0.44632 0.0
H698 H 0.43757 0.58562 0.39801 0.0
C699 C 0.42078 0.57193 0.23011 0.0
C700 C 0.45883 0.57509 0.29865 0.0
H701 H 0.46186 0.52416 0.34705 0.0
C702 C 0.46511 0.59933 0.31535 0.0
C703 C 0.45802 0.54765 0.3101 0.0
C704 C 0.45263 0.52088 0.2929 0.0
C705 C 0.47023 0.59684 0.34339 0.0
C706 C 0.46869 0.56939 0.35493 0.0
C707 C 0.46275 0.54518 0.33814 0.0
C708 C 0.47411 0.56513 0.38424 0.0
C709 C 0.47773 0.62352 0.36034 0.0
C710 C 0.49715 0.55035 0.39241 0.0
C711 C 0.5019 0.54512 0.41987 0.0
C712 C 0.48358 0.55445 0.43979 0.0
C713 C 0.46052 0.56938 0.43155 0.0
C714 C 0.45579 0.57461 0.40397 0.0
H715 H 0.48451 0.64235 0.34756 0.0
H716 H 0.45844 0.62799 0.37195 0.0
H717 H 0.4954 0.62076 0.37514 0.0
H718 H 0.51147 0.54278 0.37747 0.0
H719 H 0.51987 0.53357 0.42542 0.0
H720 H 0.09031 0.45813 0.69803 0.0
H721 H 0.08718 0.47274 0.74591 0.0
H722 H 0.0195 0.52408 0.72445 0.0
H723 H 0.02242 0.50916 0.67665 0.0
H724 H 0.09216 0.52768 0.77197 0.0
H725 H 0.98255 0.46817 0.78161 0.0
H726 H 0.0058 0.46282 0.75339 0.0
H727 H 0.98606 0.49336 0.75436 0.0
C728 C 0.07508 0.47283 0.70364 0.0
C729 C 0.05657 0.48263 0.68405 0.0
C730 C 0.0733 0.48113 0.73086 0.0
C731 C 0.05282 0.49913 0.73871 0.0
C732 C 0.03512 0.50981 0.71882 0.0
H733 H 0.9941 0.55826 0.89266 0.0
H734 H 0.00318 0.54929 0.8448 0.0
C735 C 0.0369 0.50148 0.69161 0.0
C736 C 0.0491 0.50569 0.76784 0.0
H737 H 0.00051 0.49659 0.81928 0.0
C738 C 0.07217 0.52087 0.78239 0.0
C739 C 0.02303 0.49661 0.78132 0.0
C740 C 0.998 0.47911 0.767 0.0
C741 C 0.06961 0.52778 0.81003 0.0
C742 C 0.04347 0.5188 0.82345 0.0
C743 C 0.02049 0.50351 0.80889 0.0
C744 C 0.0392 0.5252 0.85256 0.0
C745 C 0.09462 0.54515 0.82445 0.0
C746 C 0.05639 0.51448 0.87282 0.0
C747 C 0.05129 0.51959 0.9003 0.0
C748 C 0.02874 0.53533 0.90798 0.0
C749 C 0.01162 0.54603 0.88754 0.0
C750 C 0.01678 0.54096 0.86014 0.0
H751 H 0.10998 0.5563 0.80988 0.0
H752 H 0.08683 0.56123 0.8383 0.0
H753 H 0.10665 0.53077 0.83684 0.0
H754 H 0.07342 0.50175 0.8674 0.0
H755 H 0.06481 0.51094 0.91549 0.0
H756 H 0.80405 0.93066 0.92987 0.0
H757 H 0.75746 0.93734 0.95071 0.0
H758 H 0.80041 0.004 0.00235 0.0
H759 H 0.84687 0.99741 0.9814 0.0
H760 H 0.73904 0.93662 0.00741 0.0
H761 H 0.73846 0.04246 0.95878 0.0
H762 H 0.7621 0.01691 0.94795 0.0
H763 H 0.77038 0.03768 0.97841 0.0
C764 C 0.80347 0.94632 0.94603 0.0
C765 C 0.82875 0.96348 0.95425 0.0
C766 C 0.77696 0.95017 0.95785 0.0
C767 C 0.77547 0.97142 0.97779 0.0
C768 C 0.80106 0.98774 0.98675 0.0
H769 H 0.62874 0.04163 0.05085 0.0
H770 H 0.67733 0.03122 0.03872 0.0
C771 C 0.82753 0.98386 0.97497 0.0
C772 C 0.74702 0.97748 0.9882 0.0
H773 H 0.70009 0.02801 0.98822 0.0
C774 C 0.73048 0.95659 0.00327 0.0
C775 C 0.736 0.00359 0.98278 0.0
C776 C 0.75247 0.02643 0.96592 0.0
C777 C 0.70324 0.96122 0.0133 0.0
C778 C 0.69201 0.98718 0.00754 0.0
C779 C 0.70873 0.00816 0.99268 0.0
C780 C 0.66259 0.99275 0.01591 0.0
C781 C 0.68696 0.93843 0.03033 0.0
C782 C 0.63813 0.97476 0.0069 0.0
C783 C 0.61036 0.98057 0.01386 0.0
C784 C 0.60639 0.00473 0.02974 0.0
C785 C 0.63096 0.02283 0.03862 0.0
C786 C 0.65876 0.01691 0.03173 0.0
H787 H 0.70178 0.92433 0.03971 0.0
H788 H 0.67483 0.94792 0.04671 0.0
H789 H 0.67123 0.92496 0.01717 0.0
H790 H 0.64046 0.95643 0.99407 0.0
H791 H 0.59198 0.96626 0.00647 0.0
H792 H 0.67081 0.08752 0.4743 0.0
H793 H 0.71814 0.07296 0.48657 0.0
H794 H 0.7544 0.11181 0.41378 0.0
H795 H 0.70738 0.12698 0.40166 0.0
H796 H 0.7534 0.03842 0.45596 0.0
H797 H 0.80779 0.14783 0.47608 0.0
H798 H 0.76891 0.13978 0.47414 0.0
H799 H 0.78971 0.14279 0.44358 0.0
C800 C 0.68892 0.09316 0.46103 0.0
C801 C 0.68539 0.10854 0.43708 0.0
C802 C 0.71587 0.08466 0.46797 0.0
C803 C 0.73979 0.0916 0.45123 0.0
C804 C 0.73627 0.10658 0.42714 0.0
H805 H 0.90637 0.02453 0.45397 0.0
H806 H 0.85809 0.03667 0.44195 0.0
C807 C 0.70934 0.115 0.42014 0.0
C808 C 0.76847 0.08321 0.45897 0.0
H809 H 0.83757 0.11037 0.47627 0.0
C810 C 0.77183 0.0541 0.46045 0.0
C811 C 0.79232 0.10377 0.46508 0.0
C812 C 0.78959 0.1353 0.46491 0.0
C813 C 0.79861 0.04499 0.46751 0.0
C814 C 0.82264 0.06556 0.47297 0.0
C815 C 0.81915 0.09466 0.47185 0.0
C816 C 0.85153 0.05742 0.48039 0.0
C817 C 0.8009 0.01346 0.46951 0.0
C818 C 0.86398 0.06543 0.50583 0.0
C819 C 0.89157 0.05863 0.51276 0.0
C820 C 0.90738 0.04384 0.49426 0.0
C821 C 0.89479 0.03584 0.46874 0.0
C822 C 0.86713 0.04262 0.46187 0.0
H823 H 0.77928 0.00084 0.47091 0.0
H824 H 0.8116 0.00624 0.45108 0.0
H825 H 0.81419 0.00885 0.48751 0.0
H826 H 0.85232 0.07698 0.52037 0.0
H827 H 0.90055 0.0652 0.53256 0.0
H828 H 0.35668 0.65708 0.07888 0.0
H829 H 0.3081 0.65198 0.05856 0.0
H830 H 0.28248 0.58171 0.11178 0.0
H831 H 0.33051 0.58761 0.13321 0.0
H832 H 0.27553 0.60886 0.03198 0.0
H833 H 0.22257 0.63512 0.12771 0.0
H834 H 0.26133 0.64018 0.1238 0.0
H835 H 0.24311 0.60542 0.1312 0.0
C836 C 0.34065 0.64065 0.08639 0.0
C837 C 0.34734 0.62305 0.10798 0.0
C838 C 0.31298 0.63764 0.07462 0.0
C839 C 0.29152 0.61694 0.08413 0.0
C840 C 0.29855 0.59832 0.10463 0.0
H841 H 0.12967 0.54997 0.01084 0.0
H842 H 0.18023 0.56165 0.02414 0.0
C843 C 0.32614 0.60145 0.11659 0.0
C844 C 0.26165 0.61516 0.07298 0.0
H845 H 0.19137 0.61603 0.09153 0.0
C846 C 0.25712 0.61063 0.04493 0.0
C847 C 0.23776 0.61823 0.08982 0.0
C848 C 0.24141 0.62532 0.11975 0.0
C849 C 0.22915 0.60799 0.03342 0.0
C850 C 0.20512 0.60925 0.05055 0.0
C851 C 0.20978 0.61481 0.07843 0.0
C852 C 0.17487 0.60344 0.04039 0.0
C853 C 0.22571 0.60408 0.00302 0.0
C854 C 0.15484 0.62287 0.04551 0.0
C855 C 0.12566 0.61605 0.03832 0.0
C856 C 0.11603 0.58966 0.02587 0.0
C857 C 0.13632 0.57058 0.02021 0.0
C858 C 0.16537 0.5773 0.02761 0.0
H859 H 0.24547 0.61329 0.99233 0.0
H860 H 0.22222 0.58096 0.99806 0.0
H861 H 0.20693 0.61417 0.99509 0.0
H862 H 0.16171 0.6431 0.05552 0.0
H863 H 0.11061 0.63123 0.04295 0.0
H864 H 0.17379 0.41095 0.63346 0.0
H865 H 0.22453 0.42723 0.62441 0.0
H866 H 0.19905 0.50038 0.58246 0.0
H867 H 0.14806 0.48384 0.59093 0.0
H868 H 0.23581 0.46882 0.5527 0.0
H869 H 0.27967 0.49334 0.65675 0.0
H870 H 0.25952 0.45867 0.65324 0.0
H871 H 0.2414 0.48997 0.64881 0.0
C872 C 0.17902 0.43064 0.62252 0.0
C873 C 0.15697 0.44608 0.6128 0.0
C874 C 0.20802 0.44006 0.61759 0.0
C875 C 0.21553 0.46515 0.60302 0.0
C876 C 0.19365 0.48105 0.59391 0.0
H877 H 0.37992 0.53968 0.53724 0.0
H878 H 0.329 0.52932 0.54908 0.0
C879 C 0.16459 0.47168 0.5989 0.0
C880 C 0.24601 0.47345 0.59545 0.0
H881 H 0.31421 0.48981 0.62182 0.0
C882 C 0.25294 0.47372 0.56777 0.0
C883 C 0.26826 0.47963 0.6152 0.0
C884 C 0.26188 0.48067 0.64516 0.0
C885 C 0.28171 0.47924 0.55929 0.0
C886 C 0.30402 0.48511 0.57906 0.0
C887 C 0.29704 0.48518 0.60674 0.0
C888 C 0.33479 0.4911 0.57146 0.0
C889 C 0.28807 0.47785 0.52933 0.0
C890 C 0.35499 0.47326 0.58047 0.0
C891 C 0.38418 0.47917 0.57386 0.0
C892 C 0.39373 0.50315 0.55821 0.0
C893 C 0.37334 0.52093 0.54916 0.0
C894 C 0.34417 0.515 0.55582 0.0
H895 H 0.26974 0.4662 0.51761 0.0
H896 H 0.29187 0.49983 0.5213 0.0
H897 H 0.30781 0.46725 0.52576 0.0
H898 H 0.34814 0.45475 0.59265 0.0
H899 H 0.39927 0.46508 0.58125 0.0
H900 H 0.89114 0.84157 0.88168 0.0
H901 H 0.90595 0.79727 0.89967 0.0
H902 H 0.94337 0.84285 0.97039 0.0
H903 H 0.92861 0.88727 0.95251 0.0
H904 H 0.96258 0.78759 0.91028 0.0
H905 H 0.89717 0.77329 0.00389 0.0
H906 H 0.88917 0.79734 0.97723 0.0
H907 H 0.91821 0.80749 0.00108 0.0
C908 C 0.90229 0.84212 0.90118 0.0
C909 C 0.90872 0.86795 0.91565 0.0
C910 C 0.91069 0.81678 0.91147 0.0
C911 C 0.92557 0.81668 0.93648 0.0
C912 C 0.9314 0.84229 0.95132 0.0
H913 H 0.00447 0.67957 0.01804 0.0
H914 H 0.99016 0.72621 0.00553 0.0
C915 C 0.92293 0.86767 0.94107 0.0
C916 C 0.93662 0.79014 0.94596 0.0
H917 H 0.93236 0.74147 0.9972 0.0
C918 C 0.95592 0.77749 0.92927 0.0
C919 C 0.92816 0.77715 0.97087 0.0
C920 C 0.90685 0.78932 0.98925 0.0
C921 C 0.96687 0.75215 0.93672 0.0
C922 C 0.95797 0.73884 0.96133 0.0
C923 C 0.93915 0.75176 0.97834 0.0
C924 C 0.96682 0.71077 0.969 0.0
C925 C 0.98804 0.7399 0.91823 0.0
C926 C 0.9582 0.68665 0.95276 0.0
C927 C 0.96626 0.66007 0.95981 0.0
C928 C 0.98311 0.65696 0.98335 0.0
C929 C 0.99163 0.6812 0.99971 0.0
C930 C 0.98342 0.70784 0.99265 0.0
H931 H 0.99857 0.75626 0.90432 0.0
H932 H 0.00511 0.73075 0.93017 0.0
H933 H 0.97632 0.72258 0.90559 0.0
H934 H 0.94498 0.68835 0.93467 0.0
H935 H 0.95918 0.64193 0.94676 0.0
H936 H 0.38755 0.70738 0.16176 0.0
H937 H 0.40558 0.75798 0.15755 0.0
H938 H 0.48663 0.73522 0.1277 0.0
H939 H 0.46871 0.68449 0.13181 0.0
H940 H 0.46577 0.79436 0.17501 0.0
H941 H 0.43921 0.77655 0.06482 0.0
H942 H 0.4226 0.75343 0.09066 0.0
H943 H 0.45963 0.75163 0.08188 0.0
C944 C 0.40949 0.71321 0.15497 0.0
C945 C 0.42668 0.69212 0.14684 0.0
C946 C 0.41977 0.74205 0.15271 0.0
C947 C 0.44729 0.75015 0.14218 0.0
C948 C 0.46533 0.72922 0.13594 0.0
H949 H 0.51294 0.90704 0.06367 0.0
H950 H 0.50561 0.85867 0.0812 0.0
C951 C 0.45513 0.70034 0.13837 0.0
C952 C 0.4553 0.77998 0.13407 0.0
H953 H 0.45695 0.82295 0.07868 0.0
C954 C 0.46406 0.80073 0.15397 0.0
C955 C 0.45285 0.78799 0.10662 0.0
C956 C 0.44294 0.76638 0.08464 0.0
C957 C 0.47076 0.82952 0.14699 0.0
C958 C 0.46785 0.83764 0.11953 0.0
C959 C 0.4592 0.8167 0.0997 0.0
C960 C 0.47357 0.86763 0.1106 0.0
C961 C 0.48134 0.85084 0.16897 0.0
C962 C 0.45792 0.88879 0.12126 0.0
C963 C 0.4622 0.91664 0.11137 0.0
C964 C 0.48187 0.92365 0.09034 0.0
C965 C 0.49749 0.90236 0.07975 0.0
C966 C 0.4934 0.87469 0.08982 0.0
H967 H 0.49039 0.8403 0.18674 0.0
H968 H 0.4982 0.86725 0.16123 0.0
H969 H 0.4629 0.86173 0.17614 0.0
H970 H 0.44193 0.88366 0.13679 0.0
H971 H 0.44974 0.9325 0.11986 0.0
H972 H 0.11612 0.34956 0.62842 0.0
H973 H 0.10393 0.29881 0.61834 0.0
H974 H 0.02954 0.3173 0.57134 0.0
H975 H 0.04212 0.36835 0.58063 0.0
H976 H 0.05349 0.26274 0.62945 0.0
H977 H 0.07376 0.2707 0.51849 0.0
H978 H 0.08578 0.29922 0.54213 0.0
H979 H 0.04852 0.29348 0.53126 0.0
C980 C 0.09732 0.34288 0.6157 0.0
C981 C 0.08027 0.36299 0.60503 0.0
C982 C 0.09027 0.31387 0.61016 0.0
C983 C 0.06609 0.30439 0.59382 0.0
C984 C 0.04857 0.32428 0.58365 0.0
H985 H 0.99153 0.12745 0.5734 0.0
H986 H 0.00034 0.17797 0.58571 0.0
C987 C 0.05563 0.35337 0.58918 0.0
C988 C 0.05952 0.27366 0.58734 0.0
H989 H 0.05523 0.22545 0.53494 0.0
C990 C 0.05379 0.25453 0.6088 0.0
C991 C 0.06033 0.2631 0.56041 0.0
C992 C 0.06767 0.2826 0.53672 0.0
C993 C 0.04876 0.22502 0.60402 0.0
C994 C 0.04909 0.21451 0.57703 0.0
C995 C 0.05486 0.23364 0.55559 0.0
C996 C 0.04406 0.18366 0.57055 0.0
C997 C 0.04384 0.20532 0.62793 0.0
C998 C 0.06561 0.17023 0.55764 0.0
C999 C 0.06062 0.1414 0.55041 0.0
C1000 C 0.03389 0.12548 0.55586 0.0
C1001 C 0.01242 0.139 0.56904 0.0
C1002 C 0.01744 0.16786 0.57621 0.0
H1003 H 0.05133 0.21608 0.64736 0.0
H1004 H 0.02034 0.19824 0.62955 0.0
H1005 H 0.05523 0.1861 0.62523 0.0
H1006 H 0.08628 0.18213 0.55304 0.0
H1007 H 0.07761 0.13171 0.54027 0.0
H1008 H 0.55328 0.20385 0.42803 0.0
H1009 H 0.53817 0.25182 0.4346 0.0
H1010 H 0.58524 0.26021 0.51099 0.0
H1011 H 0.60046 0.21268 0.50429 0.0
H1012 H 0.50689 0.27317 0.47801 0.0
H1013 H 0.61652 0.33228 0.46996 0.0
H1014 H 0.60825 0.29564 0.45889 0.0
H1015 H 0.6146 0.30409 0.49436 0.0
C1016 C 0.56039 0.21615 0.44609 0.0
C1017 C 0.5781 0.20502 0.46561 0.0
C1018 C 0.55176 0.24338 0.44987 0.0
C1019 C 0.56095 0.25972 0.4731 0.0
C1020 C 0.57837 0.24822 0.49269 0.0
H1021 H 0.4961 0.40619 0.54764 0.0
H1022 H 0.50622 0.35825 0.53446 0.0
C1023 C 0.58695 0.22111 0.48892 0.0
C1024 C 0.55226 0.28868 0.47723 0.0
H1025 H 0.57989 0.35808 0.48805 0.0
C1026 C 0.52279 0.29181 0.47997 0.0
C1027 C 0.57302 0.313 0.47946 0.0
C1028 C 0.60485 0.31122 0.47526 0.0
C1029 C 0.5136 0.31854 0.48574 0.0
C1030 C 0.5345 0.34262 0.48923 0.0
C1031 C 0.56389 0.33957 0.48567 0.0
C1032 C 0.52658 0.37128 0.49654 0.0
C1033 C 0.48161 0.32078 0.48782 0.0
C1034 C 0.535 0.39462 0.47983 0.0
C1035 C 0.52954 0.42204 0.48743 0.0
C1036 C 0.51558 0.42679 0.512 0.0
C1037 C 0.50675 0.4033 0.52854 0.0
C1038 C 0.51235 0.37583 0.52094 0.0
H1039 H 0.46849 0.30272 0.47721 0.0
H1040 H 0.47551 0.32027 0.50956 0.0
H1041 H 0.47602 0.34108 0.47908 0.0
H1042 H 0.5461 0.39164 0.46097 0.0
H1043 H 0.5366 0.43957 0.47413 0.0
loop_
_geom_bond_atom_site_label_1
_geom_bond_atom_site_label_2
_geom_bond_distance
_geom_bond_site_symmetry_2
_ccdc_geom_bond_type
H0 C3 0.929 . S
H1 C6 0.929 . S
H2 C8 0.930 . S
C3 H0 0.929 . S
C3 C4 1.398 . S
C3 C5 1.396 . S
C4 C3 1.398 . S
C4 C8 1.407 . S
C5 C3 1.396 . S
C5 C6 1.394 . S
C6 H1 0.929 . S
C6 C5 1.394 . S
C6 C7 1.382 . S
C7 C6 1.382 . S
C7 C8 1.392 . S
C7 N9 1.420 . S
C8 H2 0.930 . S
C8 C4 1.407 . S
C8 C7 1.392 . S
N9 C7 1.420 . S
N9 C10 1.244 . S
C10 N9 1.244 . S
H11 C14 0.929 . S
H12 C17 0.929 . S
H13 C19 0.930 . S
C14 H11 0.929 . S
C14 C15 1.398 . S
C14 C16 1.396 . S
C15 C14 1.398 . S
C15 C19 1.407 . S
C16 C14 1.396 . S
C16 C17 1.394 . S
C17 H12 0.929 . S
C17 C16 1.394 . S
C17 C18 1.382 . S
C18 C17 1.382 . S
C18 C19 1.392 . S
C18 N20 1.420 . S
C19 H13 0.930 . S
C19 C15 1.407 . S
C19 C18 1.392 . S
N20 C18 1.420 . S
N20 C21 1.244 . S
C21 N20 1.244 . S
H22 C25 0.929 . S
H23 C28 0.929 . S
H24 C30 0.930 . S
C25 H22 0.929 . S
C25 C26 1.398 . S
C25 C27 1.396 . S
C26 C25 1.398 . S
C26 C30 1.407 . S
C27 C25 1.396 . S
C27 C28 1.394 . S
C28 H23 0.929 . S
C28 C27 1.394 . S
C28 C29 1.382 . S
C29 C28 1.382 . S
C29 C30 1.392 . S
C29 N31 1.420 . S
C30 H24 0.930 . S
C30 C26 1.407 . S
C30 C29 1.392 . S
N31 C29 1.420 . S
N31 C32 1.244 . S
C32 N31 1.244 . S
H33 C36 0.929 . S
H34 C39 0.929 . S
H35 C41 0.930 . S
C36 H33 0.929 . S
C36 C37 1.398 . S
C36 C38 1.396 . S
C37 C36 1.398 . S
C37 C41 1.407 . S
C38 C36 1.396 . S
C38 C39 1.394 . S
C39 H34 0.929 . S
C39 C38 1.394 . S
C39 C40 1.382 . S
C40 C39 1.382 . S
C40 C41 1.392 . S
C40 N42 1.420 . S
C41 H35 0.930 . S
C41 C37 1.407 . S
C41 C40 1.392 . S
N42 C40 1.420 . S
N42 C43 1.244 . S
C43 N42 1.244 . S
H44 C47 0.929 . S
H45 C50 0.929 . S
H46 C52 0.930 1_545 S
C47 H44 0.929 . S
C47 C48 1.398 . S
C47 C49 1.396 . S
C48 C47 1.398 . S
C48 C52 1.407 . S
C49 C47 1.396 . S
C49 C50 1.394 . S
C50 H45 0.929 . S
C50 C49 1.394 . S
C50 C51 1.382 . S
C51 C50 1.382 . S
C51 C52 1.392 . S
C51 N53 1.420 . S
C52 H46 0.930 1_565 S
C52 C48 1.407 . S
C52 C51 1.392 . S
N53 C51 1.420 . S
N53 C54 1.244 . S
C54 N53 1.244 . S
H55 C58 0.929 . S
H56 C61 0.929 . S
H57 C63 0.930 . S
C58 H55 0.929 . S
C58 C59 1.398 . S
C58 C60 1.396 . S
C59 C58 1.398 . S
C59 C63 1.407 . S
C60 C58 1.396 . S
C60 C61 1.394 . S
C61 H56 0.929 . S
C61 C60 1.394 . S
C61 C62 1.382 . S
C62 C61 1.382 . S
C62 C63 1.392 . S
C62 N64 1.420 . S
C63 H57 0.930 . S
C63 C59 1.407 . S
C63 C62 1.392 . S
N64 C62 1.420 . S
N64 C65 1.244 . S
C65 N64 1.244 . S
H66 C69 0.929 . S
H67 C72 0.929 . S
H68 C74 0.930 . S
C69 H66 0.929 . S
C69 C70 1.398 . S
C69 C71 1.396 . S
C70 C69 1.398 . S
C70 C74 1.407 . S
C71 C69 1.396 . S
C71 C72 1.394 . S
C72 H67 0.929 . S
C72 C71 1.394 . S
C72 C73 1.382 . S
C73 C72 1.382 . S
C73 C74 1.392 . S
C73 N75 1.420 . S
C74 H68 0.930 . S
C74 C70 1.407 . S
C74 C73 1.392 . S
N75 C73 1.420 . S
N75 C76 1.244 . S
C76 N75 1.244 . S
H77 C80 0.929 . S
H78 C83 0.929 . S
H79 C85 0.930 . S
C80 H77 0.929 . S
C80 C81 1.398 . S
C80 C82 1.396 . S
C81 C80 1.398 . S
C81 C85 1.407 . S
C82 C80 1.396 . S
C82 C83 1.394 . S
C83 H78 0.929 . S
C83 C82 1.394 . S
C83 C84 1.382 . S
C84 C83 1.382 . S
C84 C85 1.392 . S
C84 N86 1.420 . S
C85 H79 0.930 . S
C85 C81 1.407 . S
C85 C84 1.392 . S
N86 C84 1.420 . S
N86 C87 1.244 . S
C87 N86 1.244 . S
O88 Zn89 1.959 . S
O88 C104 1.210 1_655 S
Zn89 O88 1.959 . S
Zn89 O90 1.949 1_655 S
Zn89 O96 1.919 . S
Zn89 O101 1.924 . S
O90 Zn89 1.949 1_455 S
O90 Zn91 1.923 1_455 S
O90 Zn92 1.950 . S
O90 Zn93 1.945 1_545 S
Zn91 O90 1.923 1_655 S
Zn91 O94 1.933 1_545 S
Zn91 O97 1.941 . S
Zn91 O98 1.965 1_655 S
Zn92 O90 1.950 . S
Zn92 O99 1.938 . S
Zn92 O100 1.906 . S
Zn92 O110 1.953 . S
Zn93 O90 1.945 1_565 S
Zn93 O95 1.932 1_455 S
Zn93 O102 1.977 . S
Zn93 O103 1.910 1_455 S
O94 Zn91 1.933 1_565 S
O94 C105 1.226 . S
O95 Zn93 1.932 1_655 S
O95 C105 1.307 . S
O96 Zn89 1.919 . S
O96 C107 1.253 . S
O97 Zn91 1.941 . S
O97 C107 1.283 . S
O98 Zn91 1.965 1_455 S
O98 C106 1.303 . S
O99 Zn92 1.938 . S
O99 C106 1.247 . S
O100 Zn92 1.906 . S
O100 C108 1.304 1_545 S
O101 Zn89 1.924 . S
O101 C109 1.311 . S
O102 Zn93 1.977 . S
O102 C108 1.272 . S
O103 Zn93 1.910 1_655 S
O103 C109 1.231 1_565 S
C104 O88 1.210 1_455 S
C104 O110 1.298 . S
C105 O94 1.226 . S
C105 O95 1.307 . S
C106 O98 1.303 . S
C106 O99 1.247 . S
C107 O96 1.253 . S
C107 O97 1.283 . S
C108 O100 1.304 1_565 S
C108 O102 1.272 . S
C109 O101 1.311 . S
C109 O103 1.231 1_545 S
O110 Zn92 1.953 . S
O110 C104 1.298 . S
O111 Zn112 1.953 . S
O111 C127 1.225 . S
Zn112 O111 1.953 . S
Zn112 O113 1.949 . S
Zn112 O119 1.919 1_554 S
Zn112 O124 1.924 . S
O113 Zn112 1.949 . S
O113 Zn114 1.923 1_545 S
O113 Zn115 1.950 . S
O113 Zn116 1.945 . S
Zn114 O113 1.923 1_565 S
Zn114 O117 1.933 . S
Zn114 O120 1.941 1_554 S
Zn114 O121 1.965 . S
Zn115 O113 1.950 . S
Zn115 O122 1.938 . S
Zn115 O123 1.906 . S
Zn115 O133 1.953 . S
Zn116 O113 1.945 . S
Zn116 O118 1.932 1_545 S
Zn116 O125 1.977 . S
Zn116 O126 1.910 . S
O117 Zn114 1.933 . S
O117 C128 1.226 . S
O118 Zn116 1.932 1_565 S
O118 C128 1.307 . S
O119 Zn112 1.919 1_556 S
O119 C130 1.253 1_545 S
O120 Zn114 1.941 1_556 S
O120 C130 1.283 . S
O121 Zn114 1.965 . S
O121 C129 1.303 1_565 S
O122 Zn115 1.938 . S
O122 C129 1.247 . S
O123 Zn115 1.906 . S
O123 C131 1.304 . S
O124 Zn112 1.924 . S
O124 C132 1.311 . S
O125 Zn116 1.977 . S
O125 C131 1.272 . S
O126 Zn116 1.910 . S
O126 C132 1.231 . S
C127 O111 1.225 . S
C127 O133 1.298 . S
C128 O117 1.226 . S
C128 O118 1.307 . S
C129 O121 1.303 1_545 S
C129 O122 1.247 . S
C130 O119 1.253 1_565 S
C130 O120 1.283 . S
C131 O123 1.304 . S
C131 O125 1.272 . S
C132 O124 1.311 . S
C132 O126 1.231 . S
O133 Zn115 1.953 . S
O133 C127 1.298 . S
O134 Zn135 1.953 . S
O134 C150 1.225 . S
Zn135 O134 1.953 . S
Zn135 O136 1.949 . S
Zn135 O142 1.919 . S
Zn135 O147 1.924 . S
O136 Zn135 1.949 . S
O136 Zn137 1.923 . S
O136 Zn138 1.950 . S
O136 Zn139 1.945 . S
Zn137 O136 1.923 . S
Zn137 O140 1.933 . S
Zn137 O143 1.941 . S
Zn137 O144 1.965 . S
Zn138 O136 1.950 . S
Zn138 O145 1.938 . S
Zn138 O146 1.906 . S
Zn138 O156 1.953 . S
Zn139 O136 1.945 . S
Zn139 O141 1.932 . S
Zn139 O148 1.977 . S
Zn139 O149 1.910 . S
O140 Zn137 1.933 . S
O140 C151 1.226 . S
O141 Zn139 1.932 . S
O141 C151 1.307 . S
O142 Zn135 1.919 . S
O142 C153 1.253 . S
O143 Zn137 1.941 . S
O143 C153 1.283 . S
O144 Zn137 1.965 . S
O144 C152 1.303 . S
O145 Zn138 1.938 . S
O145 C152 1.247 . S
O146 Zn138 1.906 . S
O146 C154 1.304 . S
O147 Zn135 1.924 . S
O147 C155 1.311 . S
O148 Zn139 1.977 . S
O148 C154 1.272 . S
O149 Zn139 1.910 . S
O149 C155 1.231 . S
C150 O134 1.225 . S
C150 O156 1.298 . S
C151 O140 1.226 . S
C151 O141 1.307 . S
C152 O144 1.303 . S
C152 O145 1.247 . S
C153 O142 1.253 . S
C153 O143 1.283 . S
C154 O146 1.304 . S
C154 O148 1.272 . S
C155 O147 1.311 . S
C155 O149 1.231 . S
O156 Zn138 1.953 . S
O156 C150 1.298 . S
O157 Zn158 1.953 . S
O157 C173 1.225 . S
Zn158 O157 1.953 . S
Zn158 O159 1.949 1_655 S
Zn158 O165 1.919 . S
Zn158 O170 1.924 . S
O159 Zn158 1.949 1_455 S
O159 Zn160 1.938 1_554 S
O159 Zn161 1.950 . S
O159 Zn162 1.945 1_554 S
Zn160 O159 1.938 1_556 S
Zn160 O163 1.953 . S
Zn160 O166 1.905 1_455 S
Zn160 O167 1.963 . S
Zn161 O159 1.950 . S
Zn161 O168 1.938 . S
Zn161 O169 1.906 . S
Zn161 O179 1.953 . S
Zn162 O159 1.945 1_556 S
Zn162 O164 1.931 . S
Zn162 O171 1.977 1_556 S
Zn162 O172 1.911 1_556 S
O163 Zn160 1.953 . S
O163 C174 1.226 . S
O164 Zn162 1.931 . S
O164 C174 1.307 . S
O165 Zn158 1.919 . S
O165 C176 1.253 1_554 S
O166 Zn160 1.905 1_655 S
O166 C176 1.283 . S
O167 Zn160 1.963 . S
O167 C175 1.303 . S
O168 Zn161 1.938 . S
O168 C175 1.247 1_554 S
O169 Zn161 1.906 . S
O169 C177 1.304 . S
O170 Zn158 1.924 . S
O170 C178 1.311 1_655 S
O171 Zn162 1.977 1_554 S
O171 C177 1.272 . S
O172 Zn162 1.911 1_554 S
O172 C178 1.231 . S
C173 O157 1.225 . S
C173 O179 1.298 1_655 S
C174 O163 1.226 . S
C174 O164 1.307 . S
C175 O167 1.303 . S
C175 O168 1.247 1_556 S
C176 O165 1.253 1_556 S
C176 O166 1.283 . S
C177 O169 1.304 . S
C177 O171 1.272 . S
C178 O170 1.311 1_455 S
C178 O172 1.231 . S
O179 Zn161 1.953 . S
O179 C173 1.298 1_455 S
H180 C188 0.929 . S
H181 C190 0.930 . S
H182 C192 0.930 . S
H183 C195 0.929 . S
H184 C198 0.930 . S
H185 C200 0.960 . S
H186 C200 0.960 . S
H187 C200 0.960 . S
C188 H180 0.929 . S
C188 C189 1.377 . S
C188 C190 1.384 . S
C189 C188 1.377 . S
C189 C195 1.390 . S
C190 H181 0.930 . S
C190 C188 1.384 . S
C190 C191 1.372 . S
C191 C190 1.372 . S
C191 C192 1.400 . S
C191 C196 1.490 . S
C192 H182 0.930 . S
C192 C191 1.400 . S
C192 C195 1.386 . S
H193 C209 0.930 . S
H194 C210 0.931 . S
C195 H183 0.929 . S
C195 C189 1.390 . S
C195 C192 1.386 . S
C196 C191 1.490 . S
C196 C198 1.395 . S
C196 C199 1.403 . S
H197 C203 0.930 . S
C198 H184 0.930 . S
C198 C196 1.395 . S
C198 C201 1.403 . S
C199 C196 1.403 . S
C199 C200 1.524 . S
C199 C203 1.400 . S
C200 H185 0.960 . S
C200 H186 0.960 . S
C200 H187 0.960 . S
C200 C199 1.524 . S
C201 C198 1.403 . S
C201 C202 1.392 . S
C201 C205 1.495 . S
C202 C201 1.392 . S
C202 C203 1.385 . S
C202 C204 1.478 . S
C203 H197 0.930 . S
C203 C199 1.400 . S
C203 C202 1.385 . S
C204 C202 1.478 . S
C204 C206 1.381 . S
C204 C210 1.383 . S
C205 C201 1.495 . S
C205 H211 0.959 . S
C205 H212 0.961 . S
C205 H213 0.960 . S
C206 C204 1.381 . S
C206 C207 1.394 . S
C206 H214 0.930 . S
C207 C206 1.394 . S
C207 C208 1.383 . S
C207 H215 0.929 . S
C208 C207 1.383 . S
C208 C209 1.377 . S
C209 H193 0.930 . S
C209 C208 1.377 . S
C209 C210 1.379 . S
C210 H194 0.931 . S
C210 C204 1.383 . S
C210 C209 1.379 . S
H211 C205 0.959 . S
H212 C205 0.961 . S
H213 C205 0.960 . S
H214 C206 0.930 . S
H215 C207 0.929 . S
H216 C224 0.929 . S
H217 C226 0.930 . S
H218 C228 0.930 . S
H219 C231 0.929 . S
H220 C234 0.930 . S
H221 C236 0.960 . S
H222 C236 0.960 . S
H223 C236 0.960 . S
C224 H216 0.929 . S
C224 C225 1.377 . S
C224 C226 1.384 . S
C225 C224 1.377 . S
C225 C231 1.390 . S
C226 H217 0.930 . S
C226 C224 1.384 . S
C226 C227 1.372 . S
C227 C226 1.372 . S
C227 C228 1.400 . S
C227 C232 1.490 . S
C228 H218 0.930 . S
C228 C227 1.400 . S
C228 C231 1.386 . S
H229 C245 0.930 . S
H230 C246 0.931 . S
C231 H219 0.929 . S
C231 C225 1.390 . S
C231 C228 1.386 . S
C232 C227 1.490 . S
C232 C234 1.395 . S
C232 C235 1.403 . S
H233 C239 0.930 . S
C234 H220 0.930 . S
C234 C232 1.395 . S
C234 C237 1.403 . S
C235 C232 1.403 . S
C235 C236 1.524 . S
C235 C239 1.400 . S
C236 H221 0.960 . S
C236 H222 0.960 . S
C236 H223 0.960 . S
C236 C235 1.524 . S
C237 C234 1.403 . S
C237 C238 1.392 . S
C237 C241 1.495 . S
C238 C237 1.392 . S
C238 C239 1.385 . S
C238 C240 1.478 . S
C239 H233 0.930 . S
C239 C235 1.400 . S
C239 C238 1.385 . S
C240 C238 1.478 . S
C240 C242 1.381 . S
C240 C246 1.383 . S
C241 C237 1.495 . S
C241 H247 0.959 . S
C241 H248 0.961 . S
C241 H249 0.960 . S
C242 C240 1.381 . S
C242 C243 1.394 . S
C242 H250 0.930 . S
C243 C242 1.394 . S
C243 C244 1.383 . S
C243 H251 0.929 1_565 S
C244 C243 1.383 . S
C244 C245 1.377 . S
C245 H229 0.930 . S
C245 C244 1.377 . S
C245 C246 1.379 . S
C246 H230 0.931 . S
C246 C240 1.383 . S
C246 C245 1.379 . S
H247 C241 0.959 . S
H248 C241 0.961 . S
H249 C241 0.960 . S
H250 C242 0.930 . S
H251 C243 0.929 1_545 S
H252 C260 0.929 . S
H253 C262 0.930 . S
H254 C264 0.930 . S
H255 C267 0.929 . S
H256 C270 0.930 . S
H257 C272 0.960 . S
H258 C272 0.960 . S
H259 C272 0.960 . S
C260 H252 0.929 . S
C260 C261 1.377 . S
C260 C262 1.384 . S
C261 C260 1.377 . S
C261 C267 1.390 . S
C262 H253 0.930 . S
C262 C260 1.384 . S
C262 C263 1.372 . S
C263 C262 1.372 . S
C263 C264 1.400 . S
C263 C268 1.490 . S
C264 H254 0.930 . S
C264 C263 1.400 . S
C264 C267 1.386 . S
H265 C281 0.930 . S
H266 C282 0.931 . S
C267 H255 0.929 . S
C267 C261 1.390 . S
C267 C264 1.386 . S
C268 C263 1.490 . S
C268 C270 1.395 . S
C268 C271 1.403 . S
H269 C275 0.930 . S
C270 H256 0.930 . S
C270 C268 1.395 . S
C270 C273 1.403 . S
C271 C268 1.403 . S
C271 C272 1.524 . S
C271 C275 1.400 . S
C272 H257 0.960 . S
C272 H258 0.960 . S
C272 H259 0.960 . S
C272 C271 1.524 . S
C273 C270 1.403 . S
C273 C274 1.392 . S
C273 C277 1.495 . S
C274 C273 1.392 . S
C274 C275 1.385 . S
C274 C276 1.478 . S
C275 H269 0.930 . S
C275 C271 1.400 . S
C275 C274 1.385 . S
C276 C274 1.478 . S
C276 C278 1.381 . S
C276 C282 1.383 . S
C277 C273 1.495 . S
C277 H283 0.959 . S
C277 H284 0.961 . S
C277 H285 0.960 . S
C278 C276 1.381 . S
C278 C279 1.394 . S
C278 H286 0.930 . S
C279 C278 1.394 . S
C279 C280 1.383 . S
C279 H287 0.929 . S
C280 C279 1.383 . S
C280 C281 1.377 . S
C281 H265 0.930 . S
C281 C280 1.377 . S
C281 C282 1.379 . S
C282 H266 0.931 . S
C282 C276 1.383 . S
C282 C281 1.379 . S
H283 C277 0.959 . S
H284 C277 0.961 . S
H285 C277 0.960 . S
H286 C278 0.930 . S
H287 C279 0.929 . S
H288 C296 0.929 . S
H289 C298 0.930 . S
H290 C300 0.930 . S
H291 C303 0.929 . S
H292 C306 0.930 . S
H293 C308 0.960 1_455 S
H294 C308 0.960 . S
H295 C308 0.960 . S
C296 H288 0.929 . S
C296 C297 1.377 . S
C296 C298 1.384 . S
C297 C296 1.377 . S
C297 C303 1.390 . S
C298 H289 0.930 . S
C298 C296 1.384 . S
C298 C299 1.372 . S
C299 C298 1.372 . S
C299 C300 1.400 . S
C299 C304 1.490 . S
C300 H290 0.930 . S
C300 C299 1.400 . S
C300 C303 1.386 . S
H301 C317 0.930 1_455 S
H302 C318 0.931 . S
C303 H291 0.929 . S
C303 C297 1.390 . S
C303 C300 1.386 . S
C304 C299 1.490 . S
C304 C306 1.395 . S
C304 C307 1.403 . S
H305 C311 0.930 . S
C306 H292 0.930 . S
C306 C304 1.395 . S
C306 C309 1.403 . S
C307 C304 1.403 . S
C307 C308 1.524 . S
C307 C311 1.400 . S
C308 H293 0.960 1_655 S
C308 H294 0.960 . S
C308 H295 0.960 . S
C308 C307 1.524 . S
C309 C306 1.403 . S
C309 C310 1.392 . S
C309 C313 1.495 . S
C310 C309 1.392 . S
C310 C311 1.385 . S
C310 C312 1.478 . S
C311 H305 0.930 . S
C311 C307 1.400 . S
C311 C310 1.385 . S
C312 C310 1.478 . S
C312 C314 1.381 . S
C312 C318 1.383 . S
C313 C309 1.495 . S
C313 H319 0.959 . S
C313 H320 0.961 . S
C313 H321 0.960 . S
C314 C312 1.381 . S
C314 C315 1.394 . S
C314 H322 0.930 . S
C315 C314 1.394 . S
C315 C316 1.383 . S
C315 H323 0.929 . S
C316 C315 1.383 . S
C316 C317 1.377 . S
C317 H301 0.930 1_655 S
C317 C316 1.377 . S
C317 C318 1.379 . S
C318 H302 0.931 . S
C318 C312 1.383 . S
C318 C317 1.379 . S
H319 C313 0.959 . S
H320 C313 0.961 . S
H321 C313 0.960 . S
H322 C314 0.930 . S
H323 C315 0.929 . S
H324 C332 0.929 . S
H325 C334 0.930 . S
H326 C336 0.930 . S
H327 C339 0.929 . S
H328 C342 0.930 . S
H329 C344 0.960 . S
H330 C344 0.960 . S
H331 C344 0.960 . S
C332 H324 0.929 . S
C332 C333 1.377 . S
C332 C334 1.384 . S
C333 C332 1.377 . S
C333 C339 1.390 . S
C334 H325 0.930 . S
C334 C332 1.384 . S
C334 C335 1.372 . S
C335 C334 1.372 . S
C335 C336 1.400 . S
C335 C340 1.490 . S
C336 H326 0.930 . S
C336 C335 1.400 . S
C336 C339 1.386 . S
H337 C353 0.930 . S
H338 C354 0.931 . S
C339 H327 0.929 . S
C339 C333 1.390 . S
C339 C336 1.386 . S
C340 C335 1.490 . S
C340 C342 1.395 . S
C340 C343 1.403 . S
H341 C347 0.930 . S
C342 H328 0.930 . S
C342 C340 1.395 . S
C342 C345 1.403 . S
C343 C340 1.403 . S
C343 C344 1.524 . S
C343 C347 1.400 . S
C344 H329 0.960 . S
C344 H330 0.960 . S
C344 H331 0.960 . S
C344 C343 1.524 . S
C345 C342 1.403 . S
C345 C346 1.392 . S
C345 C349 1.495 . S
C346 C345 1.392 . S
C346 C347 1.385 . S
C346 C348 1.478 . S
C347 H341 0.930 . S
C347 C343 1.400 . S
C347 C346 1.385 . S
C348 C346 1.478 . S
C348 C350 1.381 . S
C348 C354 1.383 . S
C349 C345 1.495 . S
C349 H355 0.959 . S
C349 H356 0.961 . S
C349 H357 0.960 . S
C350 C348 1.381 . S
C350 C351 1.394 . S
C350 H358 0.930 . S
C351 C350 1.394 . S
C351 C352 1.383 . S
C351 H359 0.929 . S
C352 C351 1.383 . S
C352 C353 1.377 . S
C353 H337 0.930 . S
C353 C352 1.377 . S
C353 C354 1.379 . S
C354 H338 0.931 . S
C354 C348 1.383 . S
C354 C353 1.379 . S
H355 C349 0.959 . S
H356 C349 0.961 . S
H357 C349 0.960 . S
H358 C350 0.930 . S
H359 C351 0.929 . S
H360 C368 0.929 . S
H361 C370 0.930 . S
H362 C372 0.930 . S
H363 C375 0.929 . S
H364 C378 0.930 . S
H365 C380 0.960 . S
H366 C380 0.960 . S
H367 C380 0.960 . S
C368 H360 0.929 . S
C368 C369 1.377 . S
C368 C370 1.384 . S
C369 C368 1.377 . S
C369 C375 1.390 . S
C370 H361 0.930 . S
C370 C368 1.384 . S
C370 C371 1.372 . S
C371 C370 1.372 . S
C371 C372 1.400 . S
C371 C376 1.490 . S
C372 H362 0.930 . S
C372 C371 1.400 . S
C372 C375 1.386 . S
H373 C389 0.930 . S
H374 C390 0.931 . S
C375 H363 0.929 . S
C375 C369 1.390 . S
C375 C372 1.386 . S
C376 C371 1.490 . S
C376 C378 1.395 . S
C376 C379 1.403 . S
H377 C383 0.930 . S
C378 H364 0.930 . S
C378 C376 1.395 . S
C378 C381 1.403 . S
C379 C376 1.403 . S
C379 C380 1.524 . S
C379 C383 1.400 . S
C380 H365 0.960 . S
C380 H366 0.960 . S
C380 H367 0.960 . S
C380 C379 1.524 . S
C381 C378 1.403 . S
C381 C382 1.392 . S
C381 C385 1.495 1_565 S
C382 C381 1.392 . S
C382 C383 1.385 . S
C382 C384 1.478 . S
C383 H377 0.930 . S
C383 C379 1.400 . S
C383 C382 1.385 . S
C384 C382 1.478 . S
C384 C386 1.381 . S
C384 C390 1.383 . S
C385 C381 1.495 1_545 S
C385 H391 0.959 . S
C385 H392 0.961 . S
C385 H393 0.960 . S
C386 C384 1.381 . S
C386 C387 1.394 . S
C386 H394 0.930 . S
C387 C386 1.394 . S
C387 C388 1.383 . S
C387 H395 0.929 . S
C388 C387 1.383 . S
C388 C389 1.377 . S
C389 H373 0.930 . S
C389 C388 1.377 . S
C389 C390 1.379 . S
C390 H374 0.931 . S
C390 C384 1.383 . S
C390 C389 1.379 . S
H391 C385 0.959 . S
H392 C385 0.961 . S
H393 C385 0.960 . S
H394 C386 0.930 . S
H395 C387 0.929 . S
H396 C404 0.929 . S
H397 C406 0.930 . S
H398 C408 0.930 . S
H399 C411 0.929 . S
H400 C414 0.930 . S
H401 C416 0.960 . S
H402 C416 0.960 . S
H403 C416 0.960 . S
C404 H396 0.929 . S
C404 C405 1.377 . S
C404 C406 1.384 . S
C405 C404 1.377 . S
C405 C411 1.390 . S
C406 H397 0.930 . S
C406 C404 1.384 . S
C406 C407 1.372 . S
C407 C406 1.372 . S
C407 C408 1.400 . S
C407 C412 1.490 . S
C408 H398 0.930 . S
C408 C407 1.400 . S
C408 C411 1.386 . S
H409 C425 0.930 . S
H410 C426 0.931 . S
C411 H399 0.929 . S
C411 C405 1.390 . S
C411 C408 1.386 . S
C412 C407 1.490 . S
C412 C414 1.395 . S
C412 C415 1.403 . S
H413 C419 0.930 . S
C414 H400 0.930 . S
C414 C412 1.395 . S
C414 C417 1.403 . S
C415 C412 1.403 . S
C415 C416 1.524 . S
C415 C419 1.400 . S
C416 H401 0.960 . S
C416 H402 0.960 . S
C416 H403 0.960 . S
C416 C415 1.524 . S
C417 C414 1.403 . S
C417 C418 1.392 . S
C417 C421 1.495 . S
C418 C417 1.392 . S
C418 C419 1.385 . S
C418 C420 1.478 . S
C419 H413 0.930 . S
C419 C415 1.400 . S
C419 C418 1.385 . S
C420 C418 1.478 . S
C420 C422 1.381 . S
C420 C426 1.383 . S
C421 C417 1.495 . S
C421 H427 0.959 . S
C421 H428 0.961 . S
C421 H429 0.960 . S
C422 C420 1.381 . S
C422 C423 1.394 . S
C422 H430 0.930 . S
C423 C422 1.394 . S
C423 C424 1.383 . S
C423 H431 0.929 1_556 S
C424 C423 1.383 . S
C424 C425 1.377 . S
C425 H409 0.930 . S
C425 C424 1.377 . S
C425 C426 1.379 . S
C426 H410 0.931 . S
C426 C420 1.383 . S
C426 C425 1.379 . S
H427 C421 0.959 . S
H428 C421 0.961 . S
H429 C421 0.960 . S
H430 C422 0.930 . S
H431 C423 0.929 1_554 S
H432 C440 0.929 . S
H433 C442 0.930 . S
H434 C444 0.930 . S
H435 C447 0.929 . S
H436 C450 0.930 . S
H437 C452 0.960 . S
H438 C452 0.960 . S
H439 C452 0.960 . S
C440 H432 0.929 . S
C440 C441 1.377 . S
C440 C442 1.384 . S
C441 C440 1.377 . S
C441 C447 1.390 . S
C442 H433 0.930 . S
C442 C440 1.384 . S
C442 C443 1.372 . S
C443 C442 1.372 . S
C443 C444 1.400 . S
C443 C448 1.490 . S
C444 H434 0.930 . S
C444 C443 1.400 . S
C444 C447 1.386 . S
H445 C461 0.930 . S
H446 C462 0.931 . S
C447 H435 0.929 . S
C447 C441 1.390 . S
C447 C444 1.386 . S
C448 C443 1.490 . S
C448 C450 1.395 . S
C448 C451 1.403 . S
H449 C455 0.930 . S
C450 H436 0.930 . S
C450 C448 1.395 . S
C450 C453 1.403 . S
C451 C448 1.403 . S
C451 C452 1.524 . S
C451 C455 1.400 . S
C452 H437 0.960 . S
C452 H438 0.960 . S
C452 H439 0.960 . S
C452 C451 1.524 . S
C453 C450 1.403 . S
C453 C454 1.392 . S
C453 C457 1.495 . S
C454 C453 1.392 . S
C454 C455 1.385 . S
C454 C456 1.478 . S
C455 H449 0.930 . S
C455 C451 1.400 . S
C455 C454 1.385 . S
C456 C454 1.478 . S
C456 C458 1.381 . S
C456 C462 1.383 . S
C457 C453 1.495 . S
C457 H463 0.959 . S
C457 H464 0.961 . S
C457 H465 0.960 . S
C458 C456 1.381 . S
C458 C459 1.394 . S
C458 H466 0.930 . S
C459 C458 1.394 . S
C459 C460 1.383 . S
C459 H467 0.929 . S
C460 C459 1.383 . S
C460 C461 1.377 . S
C461 H445 0.930 . S
C461 C460 1.377 . S
C461 C462 1.379 . S
C462 H446 0.931 . S
C462 C456 1.383 . S
C462 C461 1.379 . S
H463 C457 0.959 . S
H464 C457 0.961 . S
H465 C457 0.960 . S
H466 C458 0.930 . S
H467 C459 0.929 . S
H468 C476 0.929 . S
H469 C478 0.930 . S
H470 C480 0.930 . S
H471 C483 0.929 . S
H472 C486 0.930 . S
H473 C488 0.960 . S
H474 C488 0.960 . S
H475 C488 0.960 . S
C476 H468 0.929 . S
C476 C477 1.377 . S
C476 C478 1.384 . S
C477 C476 1.377 . S
C477 C483 1.390 . S
C478 H469 0.930 . S
C478 C476 1.384 . S
C478 C479 1.372 . S
C479 C478 1.372 . S
C479 C480 1.400 . S
C479 C484 1.490 . S
C480 H470 0.930 . S
C480 C479 1.400 . S
C480 C483 1.386 . S
H481 C497 0.930 . S
H482 C498 0.931 . S
C483 H471 0.929 . S
C483 C477 1.390 . S
C483 C480 1.386 . S
C484 C479 1.490 . S
C484 C486 1.395 . S
C484 C487 1.403 . S
H485 C491 0.930 . S
C486 H472 0.930 . S
C486 C484 1.395 . S
C486 C489 1.403 . S
C487 C484 1.403 . S
C487 C488 1.524 . S
C487 C491 1.400 . S
C488 H473 0.960 . S
C488 H474 0.960 . S
C488 H475 0.960 . S
C488 C487 1.524 . S
C489 C486 1.403 . S
C489 C490 1.392 . S
C489 C493 1.495 . S
C490 C489 1.392 . S
C490 C491 1.385 . S
C490 C492 1.478 . S
C491 H485 0.930 . S
C491 C487 1.400 . S
C491 C490 1.385 . S
C492 C490 1.478 . S
C492 C494 1.381 . S
C492 C498 1.383 . S
C493 C489 1.495 . S
C493 H499 0.959 . S
C493 H500 0.961 . S
C493 H501 0.960 . S
C494 C492 1.381 . S
C494 C495 1.394 . S
C494 H502 0.930 . S
C495 C494 1.394 . S
C495 C496 1.383 . S
C495 H503 0.929 1_455 S
C496 C495 1.383 . S
C496 C497 1.377 . S
C497 H481 0.930 . S
C497 C496 1.377 . S
C497 C498 1.379 . S
C498 H482 0.931 . S
C498 C492 1.383 . S
C498 C497 1.379 . S
H499 C493 0.959 . S
H500 C493 0.961 . S
H501 C493 0.960 . S
H502 C494 0.930 . S
H503 C495 0.929 1_655 S
H504 C512 0.929 . S
H505 C514 0.930 . S
H506 C516 0.930 . S
H507 C519 0.929 . S
H508 C522 0.930 . S
H509 C524 0.960 1_554 S
H510 C524 0.960 1_554 S
H511 C524 0.960 . S
C512 H504 0.929 . S
C512 C513 1.377 . S
C512 C514 1.384 . S
C513 C512 1.377 . S
C513 C519 1.390 . S
C514 H505 0.930 . S
C514 C512 1.384 . S
C514 C515 1.372 . S
C515 C514 1.372 . S
C515 C516 1.400 . S
C515 C520 1.490 . S
C516 H506 0.930 . S
C516 C515 1.400 . S
C516 C519 1.386 . S
H517 C533 0.930 . S
H518 C534 0.931 . S
C519 H507 0.929 . S
C519 C513 1.390 . S
C519 C516 1.386 . S
C520 C515 1.490 . S
C520 C522 1.395 . S
C520 C523 1.403 . S
H521 C527 0.930 1_554 S
C522 H508 0.930 . S
C522 C520 1.395 . S
C522 C525 1.403 . S
C523 C520 1.403 . S
C523 C524 1.524 . S
C523 C527 1.400 . S
C524 H509 0.960 1_556 S
C524 H510 0.960 1_556 S
C524 H511 0.960 . S
C524 C523 1.524 . S
C525 C522 1.403 . S
C525 C526 1.392 . S
C525 C529 1.495 . S
C526 C525 1.392 . S
C526 C527 1.385 . S
C526 C528 1.478 . S
C527 H521 0.930 1_556 S
C527 C523 1.400 . S
C527 C526 1.385 . S
C528 C526 1.478 . S
C528 C530 1.381 1_556 S
C528 C534 1.383 . S
C529 C525 1.495 . S
C529 H535 0.959 . S
C529 H536 0.961 . S
C529 H537 0.960 . S
C530 C528 1.381 1_554 S
C530 C531 1.394 . S
C530 H538 0.930 . S
C531 C530 1.394 . S
C531 C532 1.383 . S
C531 H539 0.929 . S
C532 C531 1.383 . S
C532 C533 1.377 1_554 S
C533 H517 0.930 . S
C533 C532 1.377 1_556 S
C533 C534 1.379 . S
C534 H518 0.931 . S
C534 C528 1.383 . S
C534 C533 1.379 . S
H535 C529 0.959 . S
H536 C529 0.961 . S
H537 C529 0.960 . S
H538 C530 0.930 . S
H539 C531 0.929 . S
H540 C548 0.929 . S
H541 C550 0.930 . S
H542 C552 0.930 . S
H543 C555 0.929 . S
H544 C558 0.930 . S
H545 C560 0.960 . S
H546 C560 0.960 . S
H547 C560 0.960 . S
C548 H540 0.929 . S
C548 C549 1.377 . S
C548 C550 1.384 . S
C549 C548 1.377 . S
C549 C555 1.390 . S
C550 H541 0.930 . S
C550 C548 1.384 . S
C550 C551 1.372 . S
C551 C550 1.372 . S
C551 C552 1.400 . S
C551 C556 1.490 . S
C552 H542 0.930 . S
C552 C551 1.400 . S
C552 C555 1.386 . S
H553 C569 0.930 1_455 S
H554 C570 0.931 . S
C555 H543 0.929 . S
C555 C549 1.390 . S
C555 C552 1.386 . S
C556 C551 1.490 . S
C556 C558 1.395 . S
C556 C559 1.403 . S
H557 C563 0.930 . S
C558 H544 0.930 . S
C558 C556 1.395 . S
C558 C561 1.403 . S
C559 C556 1.403 . S
C559 C560 1.524 . S
C559 C563 1.400 . S
C560 H545 0.960 . S
C560 H546 0.960 . S
C560 H547 0.960 . S
C560 C559 1.524 . S
C561 C558 1.403 . S
C561 C562 1.392 . S
C561 C565 1.495 . S
C562 C561 1.392 . S
C562 C563 1.385 . S
C562 C564 1.478 . S
C563 H557 0.930 . S
C563 C559 1.400 . S
C563 C562 1.385 . S
C564 C562 1.478 . S
C564 C566 1.381 . S
C564 C570 1.383 . S
C565 C561 1.495 . S
C565 H571 0.959 . S
C565 H572 0.961 . S
C565 H573 0.960 . S
C566 C564 1.381 . S
C566 C567 1.394 . S
C566 H574 0.930 . S
C567 C566 1.394 . S
C567 C568 1.383 . S
C567 H575 0.929 . S
C568 C567 1.383 . S
C568 C569 1.377 . S
C569 H553 0.930 1_655 S
C569 C568 1.377 . S
C569 C570 1.379 . S
C570 H554 0.931 . S
C570 C564 1.383 . S
C570 C569 1.379 . S
H571 C565 0.959 . S
H572 C565 0.961 . S
H573 C565 0.960 . S
H574 C566 0.930 . S
H575 C567 0.929 . S
H576 C584 0.929 . S
H577 C586 0.930 . S
H578 C588 0.930 . S
H579 C591 0.929 . S
H580 C594 0.930 . S
H581 C596 0.960 . S
H582 C596 0.960 . S
H583 C596 0.960 . S
C584 H576 0.929 . S
C584 C585 1.377 . S
C584 C586 1.384 . S
C585 C584 1.377 . S
C585 C591 1.390 . S
C586 H577 0.930 . S
C586 C584 1.384 . S
C586 C587 1.372 . S
C587 C586 1.372 . S
C587 C588 1.400 . S
C587 C592 1.490 . S
C588 H578 0.930 . S
C588 C587 1.400 . S
C588 C591 1.386 . S
H589 C605 0.930 . S
H590 C606 0.931 . S
C591 H579 0.929 . S
C591 C585 1.390 . S
C591 C588 1.386 . S
C592 C587 1.490 . S
C592 C594 1.395 . S
C592 C595 1.403 . S
H593 C599 0.930 . S
C594 H580 0.930 . S
C594 C592 1.395 . S
C594 C597 1.403 . S
C595 C592 1.403 . S
C595 C596 1.524 . S
C595 C599 1.400 . S
C596 H581 0.960 . S
C596 H582 0.960 . S
C596 H583 0.960 . S
C596 C595 1.524 . S
C597 C594 1.403 . S
C597 C598 1.392 . S
C597 C601 1.495 . S
C598 C597 1.392 . S
C598 C599 1.385 . S
C598 C600 1.478 . S
C599 H593 0.930 . S
C599 C595 1.400 . S
C599 C598 1.385 . S
C600 C598 1.478 . S
C600 C602 1.381 . S
C600 C606 1.383 . S
C601 C597 1.495 . S
C601 H607 0.959 . S
C601 H608 0.961 . S
C601 H609 0.960 . S
C602 C600 1.381 . S
C602 C603 1.394 . S
C602 H610 0.930 . S
C603 C602 1.394 . S
C603 C604 1.383 . S
C603 H611 0.929 . S
C604 C603 1.383 . S
C604 C605 1.377 . S
C605 H589 0.930 . S
C605 C604 1.377 . S
C605 C606 1.379 . S
C606 H590 0.931 . S
C606 C600 1.383 . S
C606 C605 1.379 . S
H607 C601 0.959 . S
H608 C601 0.961 . S
H609 C601 0.960 . S
H610 C602 0.930 . S
H611 C603 0.929 . S
H612 C620 0.929 . S
H613 C622 0.930 . S
H614 C624 0.930 . S
H615 C627 0.929 . S
H616 C630 0.930 . S
H617 C632 0.960 . S
H618 C632 0.960 . S
H619 C632 0.960 . S
C620 H612 0.929 . S
C620 C621 1.377 . S
C620 C622 1.384 . S
C621 C620 1.377 . S
C621 C627 1.390 . S
C622 H613 0.930 . S
C622 C620 1.384 . S
C622 C623 1.372 . S
C623 C622 1.372 . S
C623 C624 1.400 . S
C623 C628 1.490 . S
C624 H614 0.930 . S
C624 C623 1.400 . S
C624 C627 1.386 . S
H625 C641 0.933 1_455 S
H626 C642 0.931 1_455 S
C627 H615 0.929 . S
C627 C621 1.390 . S
C627 C624 1.386 . S
C628 C623 1.490 . S
C628 C630 1.395 1_565 S
C628 C631 1.403 . S
H629 C635 0.930 . S
C630 H616 0.930 . S
C630 C628 1.395 1_545 S
C630 C633 1.403 . S
C631 C628 1.403 . S
C631 C632 1.524 . S
C631 C635 1.400 . S
C632 H617 0.960 . S
C632 H618 0.960 . S
C632 H619 0.960 . S
C632 C631 1.524 . S
C633 C630 1.403 . S
C633 C634 1.392 . S
C633 C637 1.495 . S
C634 C633 1.392 . S
C634 C635 1.385 1_545 S
C634 C636 1.478 . S
C635 H629 0.930 . S
C635 C631 1.400 . S
C635 C634 1.385 1_565 S
C636 C634 1.478 . S
C636 C638 1.381 . S
C636 C642 1.383 . S
C637 C633 1.495 . S
C637 H643 0.959 . S
C637 H644 0.961 . S
C637 H645 0.960 . S
C638 C636 1.381 . S
C638 C639 1.394 . S
C638 H646 0.927 1_545 S
C639 C638 1.394 . S
C639 C640 1.383 . S
C639 H647 0.929 . S
C640 C639 1.383 . S
C640 C641 1.374 . S
C641 H625 0.933 1_655 S
C641 C640 1.374 . S
C641 C642 1.379 . S
C642 H626 0.931 1_655 S
C642 C636 1.383 . S
C642 C641 1.379 . S
H643 C637 0.959 . S
H644 C637 0.961 . S
H645 C637 0.960 . S
H646 C638 0.927 1_565 S
H647 C639 0.929 . S
H648 C656 0.929 . S
H649 C658 0.930 . S
H650 C660 0.930 . S
H651 C663 0.929 . S
H652 C666 0.930 . S
H653 C668 0.960 . S
H654 C668 0.960 . S
H655 C668 0.960 . S
C656 H648 0.929 . S
C656 C657 1.377 . S
C656 C658 1.384 . S
C657 C656 1.377 . S
C657 C663 1.390 . S
C658 H649 0.930 . S
C658 C656 1.384 . S
C658 C659 1.372 . S
C659 C658 1.372 . S
C659 C660 1.400 . S
C659 C664 1.490 . S
C660 H650 0.930 . S
C660 C659 1.400 . S
C660 C663 1.386 . S
H661 C677 0.930 1_565 S
H662 C678 0.931 . S
C663 H651 0.929 . S
C663 C657 1.390 . S
C663 C660 1.386 . S
C664 C659 1.490 . S
C664 C666 1.395 . S
C664 C667 1.403 . S
H665 C671 0.930 . S
C666 H652 0.930 . S
C666 C664 1.395 . S
C666 C669 1.403 . S
C667 C664 1.403 . S
C667 C668 1.524 . S
C667 C671 1.400 . S
C668 H653 0.960 . S
C668 H654 0.960 . S
C668 H655 0.960 . S
C668 C667 1.524 . S
C669 C666 1.403 . S
C669 C670 1.392 . S
C669 C673 1.495 . S
C670 C669 1.392 . S
C670 C671 1.385 . S
C670 C672 1.478 . S
C671 H665 0.930 . S
C671 C667 1.400 . S
C671 C670 1.385 . S
C672 C670 1.478 . S
C672 C674 1.381 . S
C672 C678 1.383 . S
C673 C669 1.495 . S
C673 H679 0.959 . S
C673 H680 0.961 . S
C673 H681 0.960 . S
C674 C672 1.381 . S
C674 C675 1.394 . S
C674 H682 0.930 . S
C675 C674 1.394 . S
C675 C676 1.383 . S
C675 H683 0.929 . S
C676 C675 1.383 . S
C676 C677 1.377 . S
C677 H661 0.930 1_545 S
C677 C676 1.377 . S
C677 C678 1.379 . S
C678 H662 0.931 . S
C678 C672 1.383 . S
C678 C677 1.379 . S
H679 C673 0.959 . S
H680 C673 0.961 . S
H681 C673 0.960 . S
H682 C674 0.930 . S
H683 C675 0.929 . S
H684 C692 0.929 . S
H685 C694 0.930 . S
H686 C696 0.930 . S
H687 C699 0.929 . S
H688 C702 0.930 . S
H689 C704 0.960 . S
H690 C704 0.960 . S
H691 C704 0.960 . S
C692 H684 0.929 . S
C692 C693 1.377 . S
C692 C694 1.384 . S
C693 C692 1.377 . S
C693 C699 1.390 . S
C694 H685 0.930 . S
C694 C692 1.384 . S
C694 C695 1.372 . S
C695 C694 1.372 . S
C695 C696 1.400 . S
C695 C700 1.490 . S
C696 H686 0.930 . S
C696 C695 1.400 . S
C696 C699 1.386 . S
H697 C713 0.930 . S
H698 C714 0.931 . S
C699 H687 0.929 . S
C699 C693 1.390 . S
C699 C696 1.386 . S
C700 C695 1.490 . S
C700 C702 1.395 . S
C700 C703 1.403 . S
H701 C707 0.930 . S
C702 H688 0.930 . S
C702 C700 1.395 . S
C702 C705 1.403 . S
C703 C700 1.403 . S
C703 C704 1.524 . S
C703 C707 1.400 . S
C704 H689 0.960 . S
C704 H690 0.960 . S
C704 H691 0.960 . S
C704 C703 1.524 . S
C705 C702 1.403 . S
C705 C706 1.392 . S
C705 C709 1.495 . S
C706 C705 1.392 . S
C706 C707 1.385 . S
C706 C708 1.478 . S
C707 H701 0.930 . S
C707 C703 1.400 . S
C707 C706 1.385 . S
C708 C706 1.478 . S
C708 C710 1.381 . S
C708 C714 1.383 . S
C709 C705 1.495 . S
C709 H715 0.959 . S
C709 H716 0.961 . S
C709 H717 0.960 . S
C710 C708 1.381 . S
C710 C711 1.394 . S
C710 H718 0.930 . S
C711 C710 1.394 . S
C711 C712 1.383 . S
C711 H719 0.929 . S
C712 C711 1.383 . S
C712 C713 1.377 . S
C713 H697 0.930 . S
C713 C712 1.377 . S
C713 C714 1.379 . S
C714 H698 0.931 . S
C714 C708 1.383 . S
C714 C713 1.379 . S
H715 C709 0.959 . S
H716 C709 0.961 . S
H717 C709 0.960 . S
H718 C710 0.930 . S
H719 C711 0.929 . S
H720 C728 0.929 . S
H721 C730 0.930 . S
H722 C732 0.930 . S
H723 C735 0.929 . S
H724 C738 0.930 . S
H725 C740 0.960 1_655 S
H726 C740 0.960 . S
H727 C740 0.960 . S
C728 H720 0.929 . S
C728 C729 1.377 . S
C728 C730 1.384 . S
C729 C728 1.377 . S
C729 C735 1.390 . S
C730 H721 0.930 . S
C730 C728 1.384 . S
C730 C731 1.372 . S
C731 C730 1.372 . S
C731 C732 1.400 . S
C731 C736 1.490 . S
C732 H722 0.930 . S
C732 C731 1.400 . S
C732 C735 1.386 . S
H733 C749 0.930 . S
H734 C750 0.931 . S
C735 H723 0.929 . S
C735 C729 1.390 . S
C735 C732 1.386 . S
C736 C731 1.490 . S
C736 C738 1.395 . S
C736 C739 1.403 . S
H737 C743 0.930 . S
C738 H724 0.930 . S
C738 C736 1.395 . S
C738 C741 1.403 . S
C739 C736 1.403 . S
C739 C740 1.524 . S
C739 C743 1.400 . S
C740 H725 0.960 1_455 S
C740 H726 0.960 . S
C740 H727 0.960 . S
C740 C739 1.524 . S
C741 C738 1.403 . S
C741 C742 1.392 . S
C741 C745 1.495 . S
C742 C741 1.392 . S
C742 C743 1.385 . S
C742 C744 1.478 . S
C743 H737 0.930 . S
C743 C739 1.400 . S
C743 C742 1.385 . S
C744 C742 1.478 . S
C744 C746 1.381 . S
C744 C750 1.383 . S
C745 C741 1.495 . S
C745 H751 0.959 . S
C745 H752 0.961 . S
C745 H753 0.960 . S
C746 C744 1.381 . S
C746 C747 1.394 . S
C746 H754 0.930 . S
C747 C746 1.394 . S
C747 C748 1.383 . S
C747 H755 0.929 . S
C748 C747 1.383 . S
C748 C749 1.377 . S
C749 H733 0.930 . S
C749 C748 1.377 . S
C749 C750 1.379 . S
C750 H734 0.931 . S
C750 C744 1.383 . S
C750 C749 1.379 . S
H751 C745 0.959 . S
H752 C745 0.961 . S
H753 C745 0.960 . S
H754 C746 0.930 . S
H755 C747 0.929 . S
H756 C764 0.929 . S
H757 C766 0.930 . S
H758 C768 0.930 1_554 S
H759 C771 0.929 1_554 S
H760 C774 0.930 . S
H761 C776 0.960 . S
H762 C776 0.960 1_556 S
H763 C776 0.960 . S
C764 H756 0.929 . S
C764 C765 1.377 . S
C764 C766 1.384 . S
C765 C764 1.377 . S
C765 C771 1.390 . S
C766 H757 0.930 . S
C766 C764 1.384 . S
C766 C767 1.372 . S
C767 C766 1.372 . S
C767 C768 1.400 . S
C767 C772 1.497 . S
C768 H758 0.930 1_556 S
C768 C767 1.400 . S
C768 C771 1.386 . S
H769 C785 0.930 . S
H770 C786 0.931 1_565 S
C771 H759 0.929 1_556 S
C771 C765 1.390 . S
C771 C768 1.386 . S
C772 C767 1.497 . S
C772 C774 1.415 . S
C772 C775 1.363 1_566 S
H773 C779 0.930 . S
C774 H760 0.930 . S
C774 C772 1.415 . S
C774 C777 1.403 . S
C775 C772 1.363 1_544 S
C775 C776 1.531 . S
C775 C779 1.405 . S
C776 H761 0.960 . S
C776 H762 0.960 1_554 S
C776 H763 0.960 . S
C776 C775 1.531 . S
C777 C774 1.403 . S
C777 C778 1.392 1_565 S
C777 C781 1.495 . S
C778 C777 1.392 1_545 S
C778 C779 1.385 1_556 S
C778 C780 1.478 1_556 S
C779 H773 0.930 . S
C779 C775 1.405 . S
C779 C778 1.385 1_554 S
C780 C778 1.478 1_554 S
C780 C782 1.381 1_554 S
C780 C786 1.383 . S
C781 C777 1.495 . S
C781 H787 0.959 . S
C781 H788 0.961 . S
C781 H789 0.960 . S
C782 C780 1.381 1_556 S
C782 C783 1.394 . S
C782 H790 0.930 . S
C783 C782 1.394 . S
C783 C784 1.383 1_556 S
C783 H791 0.929 . S
C784 C783 1.383 1_554 S
C784 C785 1.377 . S
C785 H769 0.930 . S
C785 C784 1.377 . S
C785 C786 1.379 . S
C786 H770 0.931 1_545 S
C786 C780 1.383 . S
C786 C785 1.379 . S
H787 C781 0.959 . S
H788 C781 0.961 . S
H789 C781 0.960 . S
H790 C782 0.930 . S
H791 C783 0.929 . S
H792 C800 0.929 . S
H793 C802 0.930 . S
H794 C804 0.930 . S
H795 C807 0.929 . S
H796 C810 0.930 . S
H797 C812 0.960 . S
H798 C812 0.960 . S
H799 C812 0.960 . S
C800 H792 0.929 . S
C800 C801 1.377 . S
C800 C802 1.384 . S
C801 C800 1.377 . S
C801 C807 1.390 . S
C802 H793 0.930 . S
C802 C800 1.384 . S
C802 C803 1.372 . S
C803 C802 1.372 . S
C803 C804 1.400 . S
C803 C808 1.490 . S
C804 H794 0.930 . S
C804 C803 1.400 . S
C804 C807 1.386 . S
H805 C821 0.930 . S
H806 C822 0.931 . S
C807 H795 0.929 . S
C807 C801 1.390 . S
C807 C804 1.386 . S
C808 C803 1.490 . S
C808 C810 1.395 . S
C808 C811 1.403 . S
H809 C815 0.930 . S
C810 H796 0.930 . S
C810 C808 1.395 . S
C810 C813 1.403 . S
C811 C808 1.403 . S
C811 C812 1.524 . S
C811 C815 1.400 . S
C812 H797 0.960 . S
C812 H798 0.960 . S
C812 H799 0.960 . S
C812 C811 1.524 . S
C813 C810 1.403 . S
C813 C814 1.392 . S
C813 C817 1.495 1_545 S
C814 C813 1.392 . S
C814 C815 1.385 . S
C814 C816 1.478 . S
C815 H809 0.930 . S
C815 C811 1.400 . S
C815 C814 1.385 . S
C816 C814 1.478 . S
C816 C818 1.381 . S
C816 C822 1.383 . S
C817 C813 1.495 1_565 S
C817 H823 0.959 . S
C817 H824 0.961 . S
C817 H825 0.960 . S
C818 C816 1.381 . S
C818 C819 1.394 . S
C818 H826 0.930 . S
C819 C818 1.394 . S
C819 C820 1.383 . S
C819 H827 0.929 . S
C820 C819 1.383 . S
C820 C821 1.377 . S
C821 H805 0.930 . S
C821 C820 1.377 . S
C821 C822 1.379 . S
C822 H806 0.931 . S
C822 C816 1.383 . S
C822 C821 1.379 . S
H823 C817 0.959 . S
H824 C817 0.961 . S
H825 C817 0.960 . S
H826 C818 0.930 . S
H827 C819 0.929 . S
H828 C836 0.929 . S
H829 C838 0.930 . S
H830 C840 0.930 . S
H831 C843 0.929 . S
H832 C846 0.930 . S
H833 C848 0.960 . S
H834 C848 0.960 . S
H835 C848 0.960 . S
C836 H828 0.929 . S
C836 C837 1.377 . S
C836 C838 1.384 . S
C837 C836 1.377 . S
C837 C843 1.390 . S
C838 H829 0.930 . S
C838 C836 1.384 . S
C838 C839 1.372 . S
C839 C838 1.372 . S
C839 C840 1.400 . S
C839 C844 1.490 . S
C840 H830 0.930 . S
C840 C839 1.400 . S
C840 C843 1.386 . S
H841 C857 0.930 . S
H842 C858 0.931 . S
C843 H831 0.929 . S
C843 C837 1.390 . S
C843 C840 1.386 . S
C844 C839 1.490 . S
C844 C846 1.395 . S
C844 C847 1.403 . S
H845 C851 0.930 . S
C846 H832 0.930 . S
C846 C844 1.395 . S
C846 C849 1.403 . S
C847 C844 1.403 . S
C847 C848 1.524 . S
C847 C851 1.400 . S
C848 H833 0.960 . S
C848 H834 0.960 . S
C848 H835 0.960 . S
C848 C847 1.524 . S
C849 C846 1.403 . S
C849 C850 1.392 . S
C849 C853 1.495 . S
C850 C849 1.392 . S
C850 C851 1.385 . S
C850 C852 1.478 . S
C851 H845 0.930 . S
C851 C847 1.400 . S
C851 C850 1.385 . S
C852 C850 1.478 . S
C852 C854 1.381 . S
C852 C858 1.383 . S
C853 C849 1.495 . S
C853 H859 0.959 . S
C853 H860 0.961 . S
C853 H861 0.960 1_554 S
C854 C852 1.381 . S
C854 C855 1.394 . S
C854 H862 0.930 . S
C855 C854 1.394 . S
C855 C856 1.383 . S
C855 H863 0.929 1_554 S
C856 C855 1.383 . S
C856 C857 1.377 . S
C857 H841 0.930 . S
C857 C856 1.377 . S
C857 C858 1.379 . S
C858 H842 0.931 . S
C858 C852 1.383 . S
C858 C857 1.379 . S
H859 C853 0.959 . S
H860 C853 0.961 . S
H861 C853 0.960 1_556 S
H862 C854 0.930 . S
H863 C855 0.929 1_556 S
H864 C872 0.929 . S
H865 C874 0.930 . S
H866 C876 0.930 . S
H867 C879 0.929 . S
H868 C882 0.930 . S
H869 C884 0.960 . S
H870 C884 0.960 . S
H871 C884 0.960 . S
C872 H864 0.929 . S
C872 C873 1.377 . S
C872 C874 1.384 . S
C873 C872 1.377 . S
C873 C879 1.390 . S
C874 H865 0.930 . S
C874 C872 1.384 . S
C874 C875 1.372 . S
C875 C874 1.372 . S
C875 C876 1.400 . S
C875 C880 1.490 . S
C876 H866 0.930 . S
C876 C875 1.400 . S
C876 C879 1.386 . S
H877 C893 0.930 . S
H878 C894 0.931 . S
C879 H867 0.929 . S
C879 C873 1.390 . S
C879 C876 1.386 . S
C880 C875 1.490 . S
C880 C882 1.395 . S
C880 C883 1.403 . S
H881 C887 0.930 . S
C882 H868 0.930 . S
C882 C880 1.395 . S
C882 C885 1.403 . S
C883 C880 1.403 . S
C883 C884 1.524 . S
C883 C887 1.400 . S
C884 H869 0.960 . S
C884 H870 0.960 . S
C884 H871 0.960 . S
C884 C883 1.524 . S
C885 C882 1.403 . S
C885 C886 1.392 . S
C885 C889 1.495 . S
C886 C885 1.392 . S
C886 C887 1.385 . S
C886 C888 1.478 . S
C887 H881 0.930 . S
C887 C883 1.400 . S
C887 C886 1.385 . S
C888 C886 1.478 . S
C888 C890 1.381 . S
C888 C894 1.383 . S
C889 C885 1.495 . S
C889 H895 0.959 . S
C889 H896 0.961 . S
C889 H897 0.960 . S
C890 C888 1.381 . S
C890 C891 1.394 . S
C890 H898 0.930 . S
C891 C890 1.394 . S
C891 C892 1.383 . S
C891 H899 0.929 . S
C892 C891 1.383 . S
C892 C893 1.377 . S
C893 H877 0.930 . S
C893 C892 1.377 . S
C893 C894 1.379 . S
C894 H878 0.931 . S
C894 C888 1.383 . S
C894 C893 1.379 . S
H895 C889 0.959 . S
H896 C889 0.961 . S
H897 C889 0.960 . S
H898 C890 0.930 . S
H899 C891 0.929 . S
H900 C908 0.929 . S
H901 C910 0.930 . S
H902 C912 0.930 . S
H903 C915 0.929 . S
H904 C918 0.930 . S
H905 C920 0.960 . S
H906 C920 0.960 . S
H907 C920 0.960 . S
C908 H900 0.929 . S
C908 C909 1.377 . S
C908 C910 1.384 . S
C909 C908 1.377 . S
C909 C915 1.390 . S
C910 H901 0.930 . S
C910 C908 1.384 . S
C910 C911 1.372 . S
C911 C910 1.372 . S
C911 C912 1.400 . S
C911 C916 1.490 . S
C912 H902 0.930 . S
C912 C911 1.400 . S
C912 C915 1.386 . S
H913 C929 0.930 1_554 S
H914 C930 0.931 . S
C915 H903 0.929 . S
C915 C909 1.390 . S
C915 C912 1.386 . S
C916 C911 1.490 . S
C916 C918 1.395 . S
C916 C919 1.403 . S
H917 C923 0.930 1_554 S
C918 H904 0.930 . S
C918 C916 1.395 . S
C918 C921 1.403 . S
C919 C916 1.403 . S
C919 C920 1.524 1_556 S
C919 C923 1.400 . S
C920 H905 0.960 . S
C920 H906 0.960 . S
C920 H907 0.960 . S
C920 C919 1.524 1_554 S
C921 C918 1.403 . S
C921 C922 1.392 . S
C921 C925 1.495 . S
C922 C921 1.392 . S
C922 C923 1.385 . S
C922 C924 1.478 . S
C923 H917 0.930 1_556 S
C923 C919 1.400 . S
C923 C922 1.385 . S
C924 C922 1.478 . S
C924 C926 1.381 . S
C924 C930 1.383 1_655 S
C925 C921 1.495 . S
C925 H931 0.959 . S
C925 H932 0.961 . S
C925 H933 0.960 . S
C926 C924 1.381 . S
C926 C927 1.394 . S
C926 H934 0.930 . S
C927 C926 1.394 . S
C927 C928 1.383 . S
C927 H935 0.929 . S
C928 C927 1.383 . S
C928 C929 1.377 1_655 S
C929 H913 0.930 1_556 S
C929 C928 1.377 1_455 S
C929 C930 1.379 . S
C930 H914 0.931 . S
C930 C924 1.383 1_455 S
C930 C929 1.379 . S
H931 C925 0.959 . S
H932 C925 0.961 . S
H933 C925 0.960 . S
H934 C926 0.930 . S
H935 C927 0.929 . S
H936 C944 0.929 . S
H937 C946 0.930 . S
H938 C948 0.930 . S
H939 C951 0.929 . S
H940 C954 0.930 . S
H941 C956 0.960 . S
H942 C956 0.960 . S
H943 C956 0.960 . S
C944 H936 0.929 . S
C944 C945 1.377 . S
C944 C946 1.384 . S
C945 C944 1.377 . S
C945 C951 1.390 . S
C946 H937 0.930 . S
C946 C944 1.384 . S
C946 C947 1.372 . S
C947 C946 1.372 . S
C947 C948 1.400 . S
C947 C952 1.490 . S
C948 H938 0.930 . S
C948 C947 1.400 . S
C948 C951 1.386 . S
H949 C965 0.930 . S
H950 C966 0.931 . S
C951 H939 0.929 . S
C951 C945 1.390 . S
C951 C948 1.386 . S
C952 C947 1.490 . S
C952 C954 1.395 . S
C952 C955 1.403 . S
H953 C959 0.930 . S
C954 H940 0.930 . S
C954 C952 1.395 . S
C954 C957 1.403 . S
C955 C952 1.403 . S
C955 C956 1.524 . S
C955 C959 1.400 . S
C956 H941 0.960 . S
C956 H942 0.960 . S
C956 H943 0.960 . S
C956 C955 1.524 . S
C957 C954 1.403 . S
C957 C958 1.392 . S
C957 C961 1.495 . S
C958 C957 1.392 . S
C958 C959 1.385 . S
C958 C960 1.478 . S
C959 H953 0.930 . S
C959 C955 1.400 . S
C959 C958 1.385 . S
C960 C958 1.478 . S
C960 C962 1.381 . S
C960 C966 1.383 . S
C961 C957 1.495 . S
C961 H967 0.959 . S
C961 H968 0.961 . S
C961 H969 0.960 . S
C962 C960 1.381 . S
C962 C963 1.394 . S
C962 H970 0.930 . S
C963 C962 1.394 . S
C963 C964 1.383 . S
C963 H971 0.929 . S
C964 C963 1.383 . S
C964 C965 1.377 . S
C965 H949 0.930 . S
C965 C964 1.377 . S
C965 C966 1.379 . S
C966 H950 0.931 . S
C966 C960 1.383 . S
C966 C965 1.379 . S
H967 C961 0.959 . S
H968 C961 0.961 . S
H969 C961 0.960 . S
H970 C962 0.930 . S
H971 C963 0.929 . S
H972 C980 0.929 . S
H973 C982 0.930 . S
H974 C984 0.930 . S
H975 C987 0.929 . S
H976 C990 0.930 . S
H977 C992 0.960 . S
H978 C992 0.960 . S
H979 C992 0.960 . S
C980 H972 0.929 . S
C980 C981 1.377 . S
C980 C982 1.384 . S
C981 C980 1.377 . S
C981 C987 1.390 . S
C982 H973 0.930 . S
C982 C980 1.384 . S
C982 C983 1.372 . S
C983 C982 1.372 . S
C983 C984 1.400 . S
C983 C988 1.490 . S
C984 H974 0.930 . S
C984 C983 1.400 . S
C984 C987 1.386 . S
H985 C1001 0.930 . S
H986 C1002 0.931 . S
C987 H975 0.929 . S
C987 C981 1.390 . S
C987 C984 1.386 . S
C988 C983 1.490 . S
C988 C990 1.395 . S
C988 C991 1.403 . S
H989 C995 0.930 . S
C990 H976 0.930 . S
C990 C988 1.395 . S
C990 C993 1.403 . S
C991 C988 1.403 . S
C991 C992 1.524 . S
C991 C995 1.400 . S
C992 H977 0.960 . S
C992 H978 0.960 . S
C992 H979 0.960 . S
C992 C991 1.524 . S
C993 C990 1.403 . S
C993 C994 1.392 . S
C993 C997 1.495 . S
C994 C993 1.392 . S
C994 C995 1.385 . S
C994 C996 1.478 . S
C995 H989 0.930 . S
C995 C991 1.400 . S
C995 C994 1.385 . S
C996 C994 1.478 . S
C996 C998 1.381 . S
C996 C1002 1.383 . S
C997 C993 1.495 . S
C997 H1003 0.959 . S
C997 H1004 0.961 . S
C997 H1005 0.960 . S
C998 C996 1.381 . S
C998 C999 1.394 . S
C998 H1006 0.930 . S
C999 C998 1.394 . S
C999 C1000 1.383 . S
C999 H1007 0.929 . S
C1000 C999 1.383 . S
C1000 C1001 1.377 . S
C1001 H985 0.930 . S
C1001 C1000 1.377 . S
C1001 C1002 1.379 . S
C1002 H986 0.931 . S
C1002 C996 1.383 . S
C1002 C1001 1.379 . S
H1003 C997 0.959 . S
H1004 C997 0.961 . S
H1005 C997 0.960 . S
H1006 C998 0.930 . S
H1007 C999 0.929 . S
H1008 C1016 0.929 . S
H1009 C1018 0.930 . S
H1010 C1020 0.930 . S
H1011 C1023 0.929 . S
H1012 C1026 0.930 . S
H1013 C1028 0.960 . S
H1014 C1028 0.960 . S
H1015 C1028 0.960 . S
C1016 H1008 0.929 . S
C1016 C1017 1.377 . S
C1016 C1018 1.384 . S
C1017 C1016 1.377 . S
C1017 C1023 1.390 . S
C1018 H1009 0.930 . S
C1018 C1016 1.384 . S
C1018 C1019 1.372 . S
C1019 C1018 1.372 . S
C1019 C1020 1.400 . S
C1019 C1024 1.490 . S
C1020 H1010 0.930 . S
C1020 C1019 1.400 . S
C1020 C1023 1.386 . S
H1021 C1037 0.930 . S
H1022 C1038 0.931 . S
C1023 H1011 0.929 . S
C1023 C1017 1.390 . S
C1023 C1020 1.386 . S
C1024 C1019 1.490 . S
C1024 C1026 1.395 . S
C1024 C1027 1.403 . S
H1025 C1031 0.930 . S
C1026 H1012 0.930 . S
C1026 C1024 1.395 . S
C1026 C1029 1.403 . S
C1027 C1024 1.403 . S
C1027 C1028 1.524 . S
C1027 C1031 1.400 . S
C1028 H1013 0.960 . S
C1028 H1014 0.960 . S
C1028 H1015 0.960 . S
C1028 C1027 1.524 . S
C1029 C1026 1.403 . S
C1029 C1030 1.392 . S
C1029 C1033 1.495 . S
C1030 C1029 1.392 . S
C1030 C1031 1.385 . S
C1030 C1032 1.478 . S
C1031 H1025 0.930 . S
C1031 C1027 1.400 . S
C1031 C1030 1.385 . S
C1032 C1030 1.478 . S
C1032 C1034 1.381 . S
C1032 C1038 1.383 . S
C1033 C1029 1.495 . S
C1033 H1039 0.959 . S
C1033 H1040 0.961 . S
C1033 H1041 0.960 . S
C1034 C1032 1.381 . S
C1034 C1035 1.394 . S
C1034 H1042 0.930 . S
C1035 C1034 1.394 . S
C1035 C1036 1.383 . S
C1035 H1043 0.929 . S
C1036 C1035 1.383 . S
C1036 C1037 1.377 . S
C1037 H1021 0.930 . S
C1037 C1036 1.377 . S
C1037 C1038 1.379 . S
C1038 H1022 0.931 . S
C1038 C1032 1.383 . S
C1038 C1037 1.379 . S
H1039 C1033 0.959 . S
H1040 C1033 0.961 . S
H1041 C1033 0.960 . S
H1042 C1034 0.930 . S
H1043 C1035 0.929 . S
C189 C4 1.806 . S
C208 C106 1.760 . S
C225 C16 1.985 . S
C244 C130 1.949 . S
C280 C150 0.911 . S
C261 C32 0.908 . S
C297 C43 1.247 . S
C316 C173 1.257 . S
C352 C132 2.212 . S
C333 C5 2.233 . S
C388 C108 1.398 . S
C369 C21 1.469 . S
C424 C176 1.417 . S
C405 C27 1.441 . S
C460 C153 1.363 . S
C441 C37 1.409 . S
C477 C10 1.435 . S
C496 C178 1.422 . S
C532 C127 1.724 . S
C513 C26 1.717 . S
C549 C38 1.333 . S
C568 C105 1.343 . S
C585 C15 1.572 . S
C604 C155 1.549 . S
C640 C109 1.967 . S
C621 C48 1.962 . S
C657 C59 1.671 . S
C676 C131 1.685 . S
C693 C76 1.584 . S
C712 C151 1.605 . S
C729 C87 1.370 . S
C748 C174 1.399 . S
C765 C54 1.358 . S
C784 C129 1.356 . S
C820 C107 1.961 . S
C801 C60 1.954 . S
C856 C177 1.320 . S
C837 C71 1.341 . S
C892 C154 1.287 . S
C873 C82 1.276 . S
C909 C49 2.131 . S
C928 C175 2.099 1_655 S
C964 C128 1.184 . S
C945 C70 1.170 . S
C1000 C104 1.583 . S
C981 C81 1.572 . S
C1017 C65 1.782 . S
C1036 C152 1.744 . S
