# Generated by pormake.
# Topology pyr, (3,6)-cn, num edge types: 1
# Building blocks:
#     Node 0, Type 0, BuildingBlock: BETDIP_clean_linker_0, # of connection points: 3
#     Node 1, Type 0, BuildingBlock: BETDIP_clean_linker_0, # of connection points: 3
#     Node 2, Type 0, BuildingBlock: BETDIP_clean_linker_0, # of connection points: 3
#     Node 3, Type 0, BuildingBlock: BETDIP_clean_linker_0, # of connection points: 3
#     Node 4, Type 0, BuildingBlock: BETDIP_clean_linker_0, # of connection points: 3
#     Node 5, Type 0, BuildingBlock: BETDIP_clean_linker_0, # of connection points: 3
#     Node 6, Type 0, BuildingBlock: BETDIP_clean_linker_0, # of connection points: 3
#     Node 7, Type 0, BuildingBlock: BETDIP_clean_linker_0, # of connection points: 3
#     Node 8, Type 1, BuildingBlock: FUNLAD_clean_sbu_0, # of connection points: 6
#     Node 9, Type 1, BuildingBlock: FUNLAD_clean_sbu_0, # of connection points: 6
#     Node 10, Type 1, BuildingBlock: FUNLAD_clean_sbu_0, # of connection points: 6
#     Node 11, Type 1, BuildingBlock: FUNLAD_clean_sbu_0, # of connection points: 6
#     Edge 12, Type (0, 1), BuildingBlock: MIFKUJ_clean_linker_0, # of connection points: 2
#     Edge 13, Type (0, 1), BuildingBlock: MIFKUJ_clean_linker_0, # of connection points: 2
#     Edge 14, Type (0, 1), BuildingBlock: MIFKUJ_clean_linker_0, # of connection points: 2
#     Edge 15, Type (0, 1), BuildingBlock: MIFKUJ_clean_linker_0, # of connection points: 2
#     Edge 16, Type (0, 1), BuildingBlock: MIFKUJ_clean_linker_0, # of connection points: 2
#     Edge 17, Type (0, 1), BuildingBlock: MIFKUJ_clean_linker_0, # of connection points: 2
#     Edge 18, Type (0, 1), BuildingBlock: MIFKUJ_clean_linker_0, # of connection points: 2
#     Edge 19, Type (0, 1), BuildingBlock: MIFKUJ_clean_linker_0, # of connection points: 2
#     Edge 20, Type (0, 1), BuildingBlock: MIFKUJ_clean_linker_0, # of connection points: 2
#     Edge 21, Type (0, 1), BuildingBlock: MIFKUJ_clean_linker_0, # of connection points: 2
#     Edge 22, Type (0, 1), BuildingBlock: MIFKUJ_clean_linker_0, # of connection points: 2
#     Edge 23, Type (0, 1), BuildingBlock: MIFKUJ_clean_linker_0, # of connection points: 2
#     Edge 24, Type (0, 1), BuildingBlock: MIFKUJ_clean_linker_0, # of connection points: 2
#     Edge 25, Type (0, 1), BuildingBlock: MIFKUJ_clean_linker_0, # of connection points: 2
#     Edge 26, Type (0, 1), BuildingBlock: MIFKUJ_clean_linker_0, # of connection points: 2
#     Edge 27, Type (0, 1), BuildingBlock: MIFKUJ_clean_linker_0, # of connection points: 2
#     Edge 28, Type (0, 1), BuildingBlock: MIFKUJ_clean_linker_0, # of connection points: 2
#     Edge 29, Type (0, 1), BuildingBlock: MIFKUJ_clean_linker_0, # of connection points: 2
#     Edge 30, Type (0, 1), BuildingBlock: MIFKUJ_clean_linker_0, # of connection points: 2
#     Edge 31, Type (0, 1), BuildingBlock: MIFKUJ_clean_linker_0, # of connection points: 2
#     Edge 32, Type (0, 1), BuildingBlock: MIFKUJ_clean_linker_0, # of connection points: 2
#     Edge 33, Type (0, 1), BuildingBlock: MIFKUJ_clean_linker_0, # of connection points: 2
#     Edge 34, Type (0, 1), BuildingBlock: MIFKUJ_clean_linker_0, # of connection points: 2
#     Edge 35, Type (0, 1), BuildingBlock: MIFKUJ_clean_linker_0, # of connection points: 2
# Relax obj value: 0.156
# Max RMSD: 0.194
# Mean RMSD: 0.132
data_MOF--net-pry--node1-FUNLAD_clean_sbu_0--node2-BETDIP_clean_linker_0--edge1-MIFKUJ_clean_linker_0
_symmetry_space_group_name_H-M    P1
_symmetry_Int_Tables_number       1
_symmetry_cell_setting            triclinic
loop_
_symmetry_equiv_pos_as_xyz
'x, y, z'
_cell_length_a     45.335103
_cell_length_b     47.324527
_cell_length_c     50.159468
_cell_angle_alpha  93.245475
_cell_angle_beta   86.265584
_cell_angle_gamma 91.581744
loop_
_atom_site_label
_atom_site_type_symbol
_atom_site_fract_x
_atom_site_fract_y
_atom_site_fract_z
_atom_type_partial_charge
H0 H 0.12761 0.19582 0.23353 0.0
H1 H 0.19456 0.19384 0.16893 0.0
H2 H 0.18978 0.12831 0.22528 0.0
H3 H 0.16071 0.21573 0.14761 0.0
C4 C 0.14978 0.2299 0.16268 0.0
C5 C 0.14641 0.18563 0.22298 0.0
C6 C 0.15751 0.16083 0.23264 0.0
C7 C 0.15873 0.197 0.19931 0.0
C8 C 0.18361 0.18403 0.18593 0.0
C9 C 0.19519 0.15909 0.1949 0.0
C10 C 0.18155 0.14757 0.21815 0.0
N11 N 0.146 0.22163 0.1897 0.0
H12 H 0.3489 0.90041 0.73083 0.0
H13 H 0.35302 0.83992 0.66385 0.0
H14 H 0.41545 0.83656 0.72481 0.0
H15 H 0.33513 0.8783 0.64317 0.0
C16 C 0.31835 0.8859 0.65812 0.0
C17 C 0.35954 0.88249 0.72022 0.0
C18 C 0.38369 0.86995 0.73106 0.0
C19 C 0.34881 0.8723 0.69575 0.0
C20 C 0.36207 0.84858 0.68209 0.0
C21 C 0.38611 0.83522 0.69232 0.0
C22 C 0.39663 0.84611 0.71696 0.0
N23 N 0.32417 0.88582 0.68577 0.0
H24 H 0.67053 0.47929 0.93459 0.0
H25 H 0.5879 0.43276 0.93355 0.0
H26 H 0.65427 0.40972 0.98536 0.0
H27 H 0.66128 0.48875 0.89379 0.0
C28 C 0.63782 0.48633 0.89096 0.0
C29 C 0.65587 0.46273 0.94205 0.0
C30 C 0.66554 0.4454 0.96143 0.0
C31 C 0.62795 0.45797 0.93177 0.0
C32 C 0.60931 0.4365 0.94173 0.0
C33 C 0.61866 0.41885 0.96093 0.0
C34 C 0.64669 0.42362 0.97091 0.0
N35 N 0.61861 0.47277 0.91007 0.0
H36 H 0.8925 0.53743 0.43605 0.0
H37 H 0.96421 0.59861 0.43692 0.0
H38 H 0.8751 0.62587 0.43141 0.0
H39 H 0.95617 0.49964 0.42452 0.0
C40 C 0.95309 0.52097 0.41849 0.0
C41 C 0.90027 0.55925 0.43521 0.0
C42 C 0.88001 0.58093 0.43375 0.0
C43 C 0.93058 0.56564 0.43629 0.0
C44 C 0.94082 0.59378 0.43569 0.0
C45 C 0.92088 0.61559 0.43352 0.0
C46 C 0.89058 0.60897 0.43248 0.0
N47 N 0.95078 0.54363 0.43824 0.0
H48 H 0.83191 0.85819 0.89143 0.0
H49 H 0.89642 0.85301 0.82506 0.0
H50 H 0.83342 0.91998 0.83163 0.0
H51 H 0.91045 0.81351 0.84269 0.0
C52 C 0.90039 0.81156 0.86273 0.0
C53 C 0.8415 0.8669 0.87324 0.0
C54 C 0.82914 0.89078 0.86316 0.0
C55 C 0.86593 0.85341 0.86014 0.0
C56 C 0.87803 0.8636 0.83568 0.0
C57 C 0.86601 0.88742 0.82469 0.0
C58 C 0.84191 0.90097 0.83902 0.0
N59 N 0.87737 0.82998 0.87276 0.0
H60 H 0.67894 0.15103 0.31911 0.0
H61 H 0.67333 0.21199 0.38578 0.0
H62 H 0.61589 0.21746 0.32109 0.0
H63 H 0.71943 0.2 0.39135 0.0
C64 C 0.72157 0.17793 0.38458 0.0
C65 C 0.66911 0.1698 0.32894 0.0
C66 C 0.64569 0.18264 0.31738 0.0
C67 C 0.67981 0.18057 0.35325 0.0
C68 C 0.66643 0.20462 0.36635 0.0
C69 C 0.64344 0.21867 0.35504 0.0
C70 C 0.63316 0.20712 0.33051 0.0
N71 N 0.70344 0.16627 0.36419 0.0
H72 H 0.37985 0.55157 0.10111 0.0
H73 H 0.45603 0.5992 0.12616 0.0
H74 H 0.37608 0.64203 0.11288 0.0
H75 H 0.47708 0.52945 0.12054 0.0
C76 C 0.45872 0.54197 0.12905 0.0
C77 C 0.39026 0.57179 0.10654 0.0
C78 C 0.37417 0.59674 0.10706 0.0
C79 C 0.41953 0.57256 0.11375 0.0
C80 C 0.43322 0.59866 0.12093 0.0
C81 C 0.41783 0.62403 0.12068 0.0
C82 C 0.38814 0.62272 0.11396 0.0
N83 N 0.43519 0.5469 0.11265 0.0
H84 H 0.06502 0.44917 0.61567 0.0
H85 H 0.13931 0.50703 0.60906 0.0
H86 H 0.15343 0.41738 0.60499 0.0
H87 H 0.08195 0.54723 0.63103 0.0
C88 C 0.08381 0.52535 0.636 0.0
C89 C 0.08872 0.45271 0.61299 0.0
C90 C 0.1079 0.42975 0.61119 0.0
C91 C 0.10009 0.48049 0.61276 0.0
C92 C 0.13071 0.48546 0.60956 0.0
C93 C 0.1501 0.46274 0.60655 0.0
C94 C 0.13855 0.435 0.60774 0.0
N95 N 0.08064 0.50353 0.61572 0.0
C96 C 0.0406 0.04193 0.48055 0.0
N97 N 0.02157 0.08156 0.55666 0.0
C98 C 0.04918 0.09355 0.55471 0.0
C99 C 0.0543 0.1209 0.56553 0.0
C100 C 0.03072 0.13613 0.57821 0.0
C101 C 1.00258 0.12304 0.58047 0.0
C102 C 0.9985 0.0955 0.56961 0.0
Zn103 Zn 0.01443 0.04304 0.53773 0.0
C104 C 0.95847 0.04244 0.50781 0.0
N105 N 0.99938 0.96323 0.49712 0.0
C106 C 0.02245 0.94877 0.48481 0.0
C107 C 0.97147 0.95192 0.49814 0.0
C108 C 0.96599 0.92479 0.48701 0.0
C109 C 0.98952 0.90885 0.47506 0.0
C110 C 0.01802 0.92137 0.47368 0.0
Zn111 Zn 1.0066 1.00171 0.51615 0.0
O112 O 0.03737 0.0577 0.50191 0.0
C113 C 0.06263 1.00241 0.54587 0.0
O114 O 0.0306 0.0165 0.48076 0.0
H115 H 0.95347 0.96377 0.50807 0.0
H116 H 0.06712 0.08217 0.54412 0.0
H117 H 0.04446 0.95822 0.48418 0.0
O118 O 0.05512 0.02789 0.55146 0.0
O119 O 0.04648 0.98661 0.53112 0.0
H120 H 0.97676 0.08549 0.57098 0.0
O121 O 0.98286 0.98729 0.55179 0.0
O122 O 0.99125 0.02792 0.57342 0.0
O123 O 0.96666 0.01731 0.50146 0.0
O124 O 0.97389 0.05783 0.52356 0.0
C125 C 0.9805 1.00276 0.57341 0.0
H126 H 0.07625 0.13042 0.56307 0.0
H127 H 0.9839 0.13408 0.59028 0.0
H128 H 0.94354 0.9163 0.48805 0.0
H129 H 0.03689 0.90985 0.46493 0.0
C130 C 0.56497 1.00344 1.00564 0.0
N131 N 0.51895 0.07916 1.00359 0.0
C132 C 0.54475 0.09345 1.00811 0.0
C133 C 0.54748 0.12229 1.00414 0.0
C134 C 0.52363 0.13631 0.99497 0.0
C135 C 0.49807 0.1208 0.98849 0.0
C136 C 0.49607 0.09196 0.99321 0.0
Zn137 Zn 0.5131 0.04044 0.01896 0.0
C138 C 0.48435 0.99742 0.98255 0.0
N139 N 0.50134 0.96178 0.05568 0.0
C140 C 0.52447 0.94984 0.06643 0.0
C141 C 0.47449 0.94833 0.05514 0.0
C142 C 0.47019 0.92163 0.06537 0.0
C143 C 0.49387 0.90835 0.07595 0.0
C144 C 0.52125 0.92298 0.07659 0.0
Zn145 Zn 0.50708 1.0001 0.03915 0.0
O146 O 0.55475 0.02721 1.00064 0.0
C147 C 0.53612 0.04315 0.07529 0.0
O148 O 0.5501 0.9879 0.0218 0.0
H149 H 0.4564 0.95821 0.04648 0.0
H150 H 0.56264 0.08286 1.01634 0.0
H151 H 0.54562 0.96095 0.06672 0.0
O152 O 0.53421 0.05704 0.05451 0.0
O153 O 0.52624 0.01771 0.07503 0.0
H154 H 0.47569 0.0802 0.99002 0.0
O155 O 0.46454 1.01309 0.05647 0.0
O156 O 0.47101 0.05335 0.03717 0.0
O157 O 0.48765 0.9828 1.00273 0.0
O158 O 0.49235 0.02347 0.98385 0.0
C159 C 0.45524 0.0375 0.05235 0.0
H160 H 0.56757 0.13376 1.00912 0.0
H161 H 0.47931 0.13118 0.98141 0.0
H162 H 0.44851 0.91148 0.06488 0.0
H163 H 0.54027 0.91352 0.08418 0.0
C164 C 0.52974 0.47709 0.49302 0.0
N165 N 0.53465 0.5118 0.572 0.0
C166 C 0.52498 0.48738 0.58314 0.0
C167 C 0.53344 0.48123 0.60845 0.0
C168 C 0.55237 0.50019 0.62201 0.0
C169 C 0.56235 0.52493 0.60985 0.0
C170 C 0.553 0.53046 0.58484 0.0
Zn171 Zn 0.52093 0.52266 0.53618 0.0
C172 C 0.57044 0.54947 0.5034 0.0
N173 N 0.49329 0.54873 0.4621 0.0
C174 C 0.47719 0.52917 0.44793 0.0
C175 C 0.50216 0.57377 0.45171 0.0
C176 C 0.4958 0.57941 0.42563 0.0
C177 C 0.48042 0.55895 0.41019 0.0
C178 C 0.47051 0.53387 0.42187 0.0
Zn179 Zn 0.50667 0.5377 0.49808 0.0
O180 O 0.53348 0.48225 0.51778 0.0
C181 C 0.45724 0.51048 0.53061 0.0
O182 O 0.51835 0.49604 0.4801 0.0
H183 H 0.51502 0.58897 0.46332 0.0
H184 H 0.51039 0.47287 0.57256 0.0
H185 H 0.4703 0.50944 0.45657 0.0
O186 O 0.47765 0.50684 0.54619 0.0
O187 O 0.4634 0.52274 0.50897 0.0
H188 H 0.56004 0.54996 0.57587 0.0
O189 O 0.49519 0.5789 0.51679 0.0
O190 O 0.50834 0.5633 0.55443 0.0
O191 O 0.55022 0.55258 0.48752 0.0
O192 O 0.56395 0.53824 0.52548 0.0
C193 C 0.49796 0.58304 0.54186 0.0
H194 H 0.52534 0.46192 0.6173 0.0
H195 H 0.57659 0.54026 0.61995 0.0
H196 H 0.50392 0.59897 0.41727 0.0
H197 H 0.45818 0.51775 0.41075 0.0
C198 C 1.00156 0.57896 1.00793 0.0
N199 N 0.99395 0.54911 0.08624 0.0
C200 C 0.9985 0.57533 0.09806 0.0
C201 C 0.98822 0.58134 0.12467 0.0
C202 C 0.97318 0.56012 0.13914 0.0
C203 C 0.9683 0.53352 0.12607 0.0
C204 C 0.97879 0.52851 0.0996 0.0
Zn205 Zn 0.01139 0.5377 0.0487 0.0
C206 C 0.96676 0.50385 1.01782 0.0
N207 N 0.04671 0.50921 0.97137 0.0
C208 C 0.06116 0.52984 0.95749 0.0
C209 C 0.04232 0.4828 0.95993 0.0
C210 C 0.05181 0.47665 0.93317 0.0
C211 C 0.06566 0.49799 0.91799 0.0
C212 C 0.07063 0.52476 0.93074 0.0
Zn213 Zn 0.0294 0.52068 1.00892 0.0
O214 O 0.99669 0.57617 0.03296 0.0
C215 C 0.07412 0.55428 0.03993 0.0
O216 O 0.01483 0.55933 0.99393 0.0
H217 H 0.0308 0.4667 0.97136 0.0
H218 H 1.01066 0.59138 0.08706 0.0
H219 H 0.06446 0.5507 0.96692 0.0
O220 O 0.05246 0.55747 0.05715 0.0
O221 O 0.07029 0.54014 0.01809 0.0
H222 H 0.97553 0.50775 0.08995 0.0
O223 O 0.04358 0.48221 0.02441 0.0
O224 O 0.02641 0.49896 0.06382 0.0
O225 O 0.98823 0.50118 1.00033 0.0
O226 O 0.9707 0.5178 0.03973 0.0
C227 C 0.03922 0.47929 0.04946 0.0
H228 H 0.99234 0.60219 0.13388 0.0
H229 H 0.9575 0.51625 0.13648 0.0
H230 H 0.04786 0.45558 0.92438 0.0
H231 H 0.08061 0.54213 0.91995 0.0
H232 H 0.14124 0.18903 0.28061 0.0
H233 H 0.12139 0.16902 0.32231 0.0
H234 H 0.12398 0.08525 0.28389 0.0
H235 H 0.14367 0.10514 0.24211 0.0
H236 H 0.0719 0.09377 0.31508 0.0
H237 H 0.17628 0.10668 0.32536 0.0
H238 H 0.22351 0.13375 0.32591 0.0
H239 H 0.18672 0.19044 0.38847 0.0
H240 H 0.1391 0.16392 0.38803 0.0
H241 H 0.05178 0.01423 0.4313 0.0
H242 H 0.07145 0.03423 0.38965 0.0
H243 H 0.07898 0.11647 0.43059 0.0
H244 H 0.05998 0.09647 0.4724 0.0
H245 H 0.12564 0.1092 0.3979 0.0
H246 H 0.02169 0.09761 0.38842 0.0
H247 H 0.97355 0.07201 0.38803 0.0
H248 H 1.00776 0.01516 0.32445 0.0
H249 H 0.05625 0.04013 0.32472 0.0
C250 C 0.13736 0.16637 0.28093 0.0
C251 C 0.14423 0.14875 0.25791 0.0
C252 C 0.12617 0.1549 0.3049 0.0
C253 C 0.12136 0.12551 0.30647 0.0
C254 C 0.12752 0.10795 0.28334 0.0
C255 C 0.13899 0.11937 0.25945 0.0
C256 C 0.11033 0.11306 0.33224 0.0
C257 C 0.08386 0.09686 0.3331 0.0
C258 C 0.12539 0.1176 0.35607 0.0
C259 C 0.15404 0.13349 0.35646 0.0
C260 C 0.17818 0.12505 0.33908 0.0
C261 C 0.20504 0.14027 0.3394 0.0
C262 C 0.20809 0.16385 0.35716 0.0
C263 C 0.18431 0.1722 0.3747 0.0
C264 C 0.15739 0.15707 0.37443 0.0
C265 C 0.05777 0.03655 0.43152 0.0
C266 C 0.05417 0.05367 0.45535 0.0
C267 C 0.06886 0.04806 0.40755 0.0
C268 C 0.07634 0.0771 0.40662 0.0
C269 C 0.07339 0.09407 0.43055 0.0
C270 C 0.06244 0.08255 0.45455 0.0
C271 C 0.08714 0.08979 0.38083 0.0
C272 C 0.11359 0.10608 0.37994 0.0
C273 C 0.07187 0.08557 0.35703 0.0
C274 C 0.0427 0.07057 0.35677 0.0
C275 C 0.01902 0.07952 0.37449 0.0
C276 C 0.99166 0.06515 0.37427 0.0
C277 C 0.98763 0.04196 0.35628 0.0
C278 C 0.01093 0.03311 0.33841 0.0
C279 C 0.03835 0.04737 0.33857 0.0
H280 H 0.96644 0.03087 0.35614 0.0
H281 H 0.2289 0.1756 0.35738 0.0
H282 H 0.4019 0.8419 0.77383 0.0
H283 H 0.41922 0.86235 0.81627 0.0
H284 H 0.40907 0.94627 0.7895 0.0
H285 H 0.39215 0.92602 0.74705 0.0
H286 H 0.46035 0.9432 0.81393 0.0
H287 H 0.35839 0.91696 0.83457 0.0
H288 H 0.31513 0.88425 0.83709 0.0
H289 H 0.36017 0.83166 0.88756 0.0
H290 H 0.40388 0.86388 0.88504 0.0
H291 H 0.47055 0.02312 0.93721 0.0
H292 H 0.45371 1.00099 0.89546 0.0
H293 H 0.4558 0.91884 0.92825 0.0
H294 H 0.47181 0.94101 0.97039 0.0
H295 H 0.40956 0.9196 0.90069 0.0
H296 H 0.51106 0.94476 0.88106 0.0
H297 H 0.55536 0.97615 0.87848 0.0
H298 H 0.51322 0.02876 0.826 0.0
H299 H 0.46848 0.99789 0.82856 0.0
C300 C 0.40356 0.86471 0.77686 0.0
C301 C 0.39534 0.8822 0.75687 0.0
C302 C 0.41327 0.87644 0.80132 0.0
C303 C 0.41523 0.906 0.80647 0.0
C304 C 0.40772 0.92345 0.78629 0.0
C305 C 0.39779 0.91177 0.76198 0.0
C306 C 0.4249 0.91885 0.83279 0.0
C307 C 0.44898 0.93825 0.83286 0.0
C308 C 0.41079 0.912 0.85777 0.0
C309 C 0.38451 0.89267 0.85938 0.0
C310 C 0.35916 0.8983 0.84603 0.0
C311 C 0.33454 0.87987 0.84749 0.0
C312 C 0.33493 0.85585 0.86242 0.0
C313 C 0.35992 0.85025 0.87597 0.0
C314 C 0.38461 0.8686 0.87455 0.0
C315 C 0.46732 1.00034 0.93565 0.0
C316 C 0.47272 0.98395 0.95735 0.0
C317 C 0.45785 0.9876 0.91155 0.0
C318 C 0.45392 0.95799 0.90815 0.0
C319 C 0.45866 0.94166 0.93003 0.0
C320 C 0.46791 0.95442 0.95424 0.0
C321 C 0.44498 0.94414 0.8819 0.0
C322 C 0.42104 0.92453 0.88182 0.0
C323 C 0.45942 0.9506 0.85689 0.0
C324 C 0.48631 0.96916 0.85522 0.0
C325 C 0.51116 0.96313 0.86912 0.0
C326 C 0.53636 0.98082 0.86764 0.0
C327 C 0.53707 1.00448 0.85214 0.0
C328 C 0.51262 1.01045 0.83803 0.0
C329 C 0.48734 0.99285 0.83947 0.0
H330 H 0.5566 0.01814 0.85102 0.0
H331 H 0.31585 0.8416 0.86353 0.0
H332 H 0.58095 0.48471 0.87518 0.0
H333 H 0.56534 0.48771 0.82971 0.0
H334 H 0.65627 0.50025 0.80081 0.0
H335 H 0.67192 0.49796 0.84644 0.0
H336 H 0.62108 0.53379 0.77711 0.0
H337 H 0.62069 0.43462 0.79544 0.0
H338 H 0.60629 0.39285 0.82099 0.0
H339 H 0.51489 0.40585 0.80877 0.0
H340 H 0.52873 0.44792 0.78343 0.0
H341 H 0.60773 0.50232 0.64002 0.0
H342 H 0.62133 0.49923 0.68615 0.0
H343 H 0.52959 0.48492 0.71159 0.0
H344 H 0.51606 0.48717 0.66525 0.0
H345 H 0.56361 0.45292 0.73754 0.0
H346 H 0.56349 0.55121 0.71854 0.0
H347 H 0.57736 0.59309 0.69295 0.0
H348 H 0.66876 0.58229 0.70671 0.0
H349 H 0.65548 0.54011 0.73208 0.0
C350 C 0.59758 0.48835 0.85917 0.0
C351 C 0.6277 0.49086 0.8642 0.0
C352 C 0.58865 0.48992 0.83319 0.0
C353 C 0.60971 0.4936 0.81181 0.0
C354 C 0.63967 0.49726 0.817 0.0
C355 C 0.64858 0.49595 0.84302 0.0
C356 C 0.60069 0.49297 0.78391 0.0
C357 C 0.6088 0.51597 0.76836 0.0
C358 C 0.58403 0.47001 0.77273 0.0
C359 C 0.57573 0.44457 0.78776 0.0
C360 C 0.59751 0.42867 0.79835 0.0
C361 C 0.58945 0.40493 0.81278 0.0
C362 C 0.55969 0.39674 0.81656 0.0
C363 C 0.53793 0.41223 0.80586 0.0
C364 C 0.54587 0.43601 0.79144 0.0
C365 C 0.59056 0.49823 0.65547 0.0
C366 C 0.56086 0.49516 0.64923 0.0
C367 C 0.59829 0.49661 0.68178 0.0
C368 C 0.57638 0.49254 0.7024 0.0
C369 C 0.54683 0.48822 0.69601 0.0
C370 C 0.53913 0.48944 0.66959 0.0
C371 C 0.5842 0.49365 0.73067 0.0
C372 C 0.57583 0.47077 0.74631 0.0
C373 C 0.60052 0.51678 0.74198 0.0
C374 C 0.60851 0.54237 0.72703 0.0
C375 C 0.58657 0.55768 0.71598 0.0
C376 C 0.59432 0.58148 0.70153 0.0
C377 C 0.62392 0.59031 0.69816 0.0
C378 C 0.64584 0.57541 0.70932 0.0
C379 C 0.63821 0.55157 0.72376 0.0
H380 H 0.62988 0.60873 0.68696 0.0
H381 H 0.55349 0.37836 0.82775 0.0
H382 H 0.98019 0.56445 0.39275 0.0
H383 H 0.97897 0.57424 0.34563 0.0
H384 H 0.92316 0.4999 0.33276 0.0
H385 H 0.92574 0.48934 0.37995 0.0
H386 H 0.96109 0.5025 0.29325 0.0
H387 H 0.89628 0.57013 0.3373 0.0
H388 H 0.88143 0.60734 0.3715 0.0
H389 H 0.95054 0.66264 0.34074 0.0
H390 H 0.96611 0.6256 0.30648 0.0
H391 H 0.92318 0.54043 0.16652 0.0
H392 H 0.91468 0.53848 0.21497 0.0
H393 H 0.99444 0.58816 0.22624 0.0
H394 H 1.00394 0.58922 0.17775 0.0
H395 H 0.93991 0.59882 0.26608 0.0
H396 H 1.00639 0.52634 0.22513 0.0
H397 H 0.01876 0.48811 0.1911 0.0
H398 H 0.94079 0.44102 0.21699 0.0
H399 H 0.92769 0.47928 0.25087 0.0
C400 C 0.96754 0.55032 0.37985 0.0
C401 C 0.95262 0.52642 0.38986 0.0
C402 C 0.96671 0.55599 0.35296 0.0
C403 C 0.95025 0.53829 0.33573 0.0
C404 C 0.93581 0.51401 0.34568 0.0
C405 C 0.93724 0.50797 0.37255 0.0
C406 C 0.94889 0.5448 0.30721 0.0
C407 C 0.95592 0.52345 0.28744 0.0
C408 C 0.94241 0.57223 0.29946 0.0
C409 C 0.93246 0.59501 0.31937 0.0
C410 C 0.90836 0.5902 0.33783 0.0
C411 C 0.89982 0.61126 0.35725 0.0
C412 C 0.91502 0.63734 0.3583 0.0
C413 C 0.93875 0.64244 0.33986 0.0
C414 C 0.94741 0.62144 0.32039 0.0
C415 C 0.93879 0.55123 0.17925 0.0
C416 C 0.9646 0.56445 0.16819 0.0
C417 C 0.9337 0.55033 0.20693 0.0
C418 C 0.95406 0.563 0.22404 0.0
C419 C 0.97843 0.57839 0.21326 0.0
C420 C 0.98377 0.57899 0.18552 0.0
C421 C 0.95227 0.55657 0.25258 0.0
C422 C 0.94471 0.57789 0.27217 0.0
C423 C 0.95771 0.52901 0.26027 0.0
C424 C 0.9659 0.50578 0.2403 0.0
C425 C 0.99176 0.50795 0.2234 0.0
C426 C 0.99892 0.48626 0.20417 0.0
C427 C 0.98053 0.46218 0.20183 0.0
C428 C 0.95499 0.45971 0.21879 0.0
C429 C 0.94769 0.48137 0.23801 0.0
H430 H 0.98611 0.44542 0.18693 0.0
H431 H 0.90839 0.65359 0.37339 0.0
H432 H 0.2394 0.1287 0.2151 0.0
H433 H 0.28149 0.10619 0.19098 0.0
H434 H 0.25532 0.13757 0.11719 0.0
H435 H 0.21146 0.15763 0.14065 0.0
H436 H 0.27446 0.08966 0.10525 0.0
H437 H 0.3157 0.1673 0.15646 0.0
H438 H 0.32543 0.19767 0.19668 0.0
H439 H 0.3641 0.12789 0.23169 0.0
H440 H 0.35426 0.097 0.1918 0.0
H441 H 0.42094 0.08032 0.03812 0.0
H442 H 0.37604 0.09908 0.06198 0.0
H443 H 0.38189 0.03841 0.12219 0.0
H444 H 0.4263 0.01894 0.09803 0.0
H445 H 0.37403 0.10048 0.14062 0.0
H446 H 0.33241 0.02415 0.08518 0.0
H447 H 0.32486 0.99798 0.04215 0.0
H448 H 0.28941 0.07209 1.01178 0.0
H449 H 0.29717 0.09884 0.05453 0.0
C450 C 0.24206 0.13046 0.19366 0.0
C451 C 0.22161 0.14536 0.18011 0.0
C452 C 0.26673 0.11793 0.17986 0.0
C453 C 0.27238 0.12063 0.15217 0.0
C454 C 0.25187 0.13519 0.13853 0.0
C455 C 0.22682 0.14713 0.15219 0.0
C456 C 0.29934 0.10814 0.13739 0.0
C457 C 0.2962 0.09246 0.11298 0.0
C458 C 0.32802 0.11127 0.14723 0.0
C459 C 0.33396 0.12977 0.17126 0.0
C460 C 0.32608 0.15838 0.17282 0.0
C461 C 0.33165 0.1757 0.19554 0.0
C462 C 0.34529 0.1647 0.21676 0.0
C463 C 0.35348 0.13637 0.21526 0.0
C464 C 0.34794 0.11895 0.19259 0.0
C465 C 0.41255 0.0708 0.05632 0.0
C466 C 0.42719 0.04803 0.06609 0.0
C467 C 0.38688 0.08157 0.06994 0.0
C468 C 0.37561 0.0702 0.09391 0.0
C469 C 0.39019 0.04753 0.10376 0.0
C470 C 0.41549 0.03633 0.08984 0.0
C471 C 0.34885 0.08224 0.10884 0.0
C472 C 0.35215 0.09782 0.13314 0.0
C473 C 0.32052 0.07968 0.09857 0.0
C474 C 0.31567 0.06357 0.07295 0.0
C475 C 0.32327 0.03495 0.06924 0.0
C476 C 0.31889 0.01999 0.04492 0.0
C477 C 0.30674 0.03339 0.02422 0.0
C478 C 0.29886 0.06175 0.02783 0.0
C479 C 0.30322 0.07681 0.0521 0.0
H480 H 0.30337 0.02177 1.0054 0.0
H481 H 0.34959 0.17814 0.23433 0.0
H482 H 0.26659 0.90205 0.68691 0.0
H483 H 0.2223 0.92117 0.66937 0.0
H484 H 0.26594 0.91914 0.59025 0.0
H485 H 0.30941 0.899 0.6075 0.0
H486 H 0.20793 0.96592 0.64748 0.0
H487 H 0.21983 0.90781 0.54184 0.0
H488 H 0.23799 0.86247 0.52119 0.0
H489 H 0.22435 0.8242 0.59675 0.0
H490 H 0.20574 0.86917 0.61776 0.0
H491 H 0.11123 0.03124 0.56475 0.0
H492 H 0.15375 1.01178 0.5845 0.0
H493 H 0.11496 0.92777 0.57496 0.0
H494 H 0.07355 0.94701 0.55367 0.0
H495 H 0.16803 0.92173 0.56491 0.0
H496 H 0.11661 0.97137 0.63816 0.0
H497 H 0.09277 1.01193 0.66305 0.0
H498 H 0.17535 0.0586 0.66034 0.0
H499 H 0.19961 0.01853 0.63496 0.0
C500 C 0.26666 0.90567 0.66578 0.0
C501 C 0.29149 0.89881 0.64856 0.0
C502 C 0.24131 0.9167 0.65573 0.0
C503 C 0.24025 0.92124 0.62825 0.0
C504 C 0.26555 0.9152 0.61133 0.0
C505 C 0.29059 0.90383 0.62127 0.0
C506 C 0.21291 0.93208 0.61711 0.0
C507 C 0.19922 0.9562 0.62944 0.0
C508 C 0.20069 0.91915 0.59395 0.0
C509 C 0.21168 0.89196 0.58141 0.0
C510 C 0.22061 0.88969 0.55402 0.0
C511 C 0.231 0.86406 0.54226 0.0
C512 C 0.23242 0.8405 0.55767 0.0
C513 C 0.22335 0.84249 0.58486 0.0
C514 C 0.21291 0.86805 0.59671 0.0
C515 C 0.11187 1.0086 0.56676 0.0
C516 C 0.08892 0.99072 0.55755 0.0
C517 C 0.13614 0.99743 0.57836 0.0
C518 C 0.13767 0.96817 0.58194 0.0
C519 C 0.11472 0.95036 0.57255 0.0
C520 C 0.09087 0.96142 0.56035 0.0
C521 C 0.16319 0.95596 0.59497 0.0
C522 C 0.17661 0.93153 0.58297 0.0
C523 C 0.17434 0.96795 0.61904 0.0
C524 C 0.15987 0.99203 0.63444 0.0
C525 C 0.12965 0.99034 0.64272 0.0
C526 C 0.11606 1.01324 0.65694 0.0
C527 C 0.13251 0.03782 0.66326 0.0
C528 C 0.16262 0.03955 0.65541 0.0
C529 C 0.17631 0.01676 0.6411 0.0
H530 H 0.12194 0.05551 0.67428 0.0
H531 H 0.24048 0.82069 0.54853 0.0
H532 H 0.69599 0.49438 0.97468 0.0
H533 H 0.74814 0.4996 0.98432 0.0
H534 H 0.7567 0.4089 0.97664 0.0
H535 H 0.70468 0.40351 0.96678 0.0
H536 H 0.78571 0.43195 0.01856 0.0
H537 H 0.78015 0.44739 0.92568 0.0
H538 H 0.76156 0.46906 0.88668 0.0
H539 H 0.79204 0.55095 0.91614 0.0
H540 H 0.81041 0.52983 0.95557 0.0
H541 H 0.94904 0.47608 0.97192 0.0
H542 H 0.89878 0.46019 0.9623 0.0
H543 H 0.86706 0.49026 0.04153 0.0
H544 H 0.91705 0.50573 0.05145 0.0
H545 H 0.85124 0.49157 0.9604 0.0
H546 H 0.80844 0.45042 0.06327 0.0
H547 H 0.82767 0.42603 0.10046 0.0
H548 H 0.89604 0.38971 0.04702 0.0
H549 H 0.87699 0.41355 1.00944 0.0
C550 C 0.70897 0.47556 0.97512 0.0
C551 C 0.69627 0.44855 0.96987 0.0
C552 C 0.73872 0.47856 0.98064 0.0
C553 C 0.75632 0.45464 0.98083 0.0
C554 C 0.74346 0.42761 0.9766 0.0
C555 C 0.71371 0.42458 0.97108 0.0
C556 C 0.78837 0.45792 0.98455 0.0
C557 C 0.80009 0.44495 1.00586 0.0
C558 C 0.8072 0.47429 0.96751 0.0
C559 C 0.79644 0.48704 0.94369 0.0
C560 C 0.78271 0.47004 0.92394 0.0
C561 C 0.77223 0.48223 0.90175 0.0
C562 C 0.77556 0.51137 0.89896 0.0
C563 C 0.78945 0.52838 0.91834 0.0
C564 C 0.79992 0.51631 0.94061 0.0
C565 C 0.93141 0.47897 0.9874 0.0
C566 C 0.93702 0.49221 1.01243 0.0
C567 C 0.90272 0.46996 0.98185 0.0
C568 C 0.87924 0.47386 1.00126 0.0
C569 C 0.88491 0.48661 0.0264 0.0
C570 C 0.91352 0.49558 0.03198 0.0
C571 C 0.84849 0.46621 0.99487 0.0
C572 C 0.83697 0.47841 0.97303 0.0
C573 C 0.83 0.44873 1.01116 0.0
C574 C 0.8414 0.43398 0.03358 0.0
C575 C 0.82749 0.43712 0.05942 0.0
C576 C 0.83838 0.42341 0.08058 0.0
C577 C 0.86311 0.4064 0.07612 0.0
C578 C 0.87695 0.40298 0.05047 0.0
C579 C 0.86613 0.41662 0.02924 0.0
H580 H 0.87152 0.39582 0.09254 0.0
H581 H 0.76743 0.52076 0.88176 0.0
H582 H 0.84943 0.54758 0.46896 0.0
H583 H 0.79593 0.54204 0.47628 0.0
H584 H 0.78389 0.59542 0.41106 0.0
H585 H 0.8376 0.60146 0.40398 0.0
H586 H 0.74935 0.61165 0.45245 0.0
H587 H 0.76844 0.52299 0.40612 0.0
H588 H 0.79306 0.47757 0.39546 0.0
H589 H 0.76482 0.44961 0.47319 0.0
H590 H 0.74037 0.49504 0.48449 0.0
H591 H 0.59253 0.57649 0.45914 0.0
H592 H 0.64466 0.58263 0.44374 0.0
H593 H 0.67089 0.54289 0.51347 0.0
H594 H 0.61913 0.53691 0.52913 0.0
H595 H 0.69654 0.51961 0.46451 0.0
H596 H 0.68069 0.61092 0.51094 0.0
H597 H 0.65554 0.6563 0.5202 0.0
H598 H 0.67687 0.67863 0.43929 0.0
H599 H 0.7018 0.63317 0.42944 0.0
C600 C 0.83541 0.55762 0.45579 0.0
C601 C 0.8477 0.57485 0.43582 0.0
C602 C 0.80479 0.55446 0.46 0.0
C603 C 0.78583 0.56808 0.44404 0.0
C604 C 0.79807 0.58473 0.42362 0.0
C605 C 0.82874 0.58811 0.41957 0.0
C606 C 0.75332 0.56624 0.44984 0.0
C607 C 0.73772 0.59148 0.45454 0.0
C608 C 0.73814 0.53996 0.45293 0.0
C609 C 0.75275 0.51254 0.44622 0.0
C610 C 0.76765 0.50725 0.42102 0.0
C611 C 0.78155 0.48148 0.41485 0.0
C612 C 0.78055 0.46074 0.43365 0.0
C613 C 0.76559 0.4657 0.45865 0.0
C614 C 0.75167 0.49145 0.46494 0.0
C615 C 0.60943 0.56941 0.47135 0.0
C616 C 0.6017 0.55617 0.49533 0.0
C617 C 0.63915 0.57291 0.46253 0.0
C618 C 0.66152 0.56308 0.47745 0.0
C619 C 0.65389 0.55048 0.50164 0.0
C620 C 0.62429 0.54723 0.51061 0.0
C621 C 0.69294 0.56495 0.46755 0.0
C622 C 0.70823 0.53971 0.46206 0.0
C623 C 0.70772 0.59116 0.46344 0.0
C624 C 0.69279 0.6185 0.46937 0.0
C625 C 0.67977 0.62539 0.49505 0.0
C626 C 0.66561 0.65115 0.50042 0.0
C627 C 0.66452 0.67029 0.48032 0.0
C628 C 0.67767 0.66375 0.45482 0.0
C629 C 0.69184 0.638 0.44934 0.0
H630 H 0.65355 0.69023 0.48452 0.0
H631 H 0.79133 0.4408 0.42884 0.0
H632 H 0.11813 0.27218 0.19178 0.0
H633 H 0.09885 0.3153 0.17472 0.0
H634 H 0.13441 0.2902 0.09532 0.0
H635 H 0.15391 0.24759 0.11231 0.0
H636 H 0.14574 0.34439 0.10485 0.0
H637 H 0.05897 0.2838 0.11534 0.0
H638 H 0.02221 0.25413 0.14004 0.0
H639 H 0.99965 0.32512 0.19393 0.0
H640 H 0.03657 0.35513 0.16974 0.0
H641 H 0.06962 0.43414 0.0254 0.0
H642 H 0.08748 0.39298 0.04643 0.0
H643 H 0.05031 0.42513 0.12313 0.0
H644 H 0.03208 0.46617 0.10219 0.0
H645 H 0.04003 0.36931 0.11762 0.0
H646 H 0.12509 0.43041 0.10639 0.0
H647 H 0.16158 0.46044 0.0818 0.0
H648 H 0.18753 0.38894 0.02988 0.0
H649 H 0.15088 0.35855 0.05393 0.0
C650 C 0.12179 0.27589 0.17071 0.0
C651 C 0.13752 0.25638 0.15338 0.0
C652 C 0.11065 0.30052 0.1609 0.0
C653 C 0.11487 0.3061 0.13356 0.0
C654 C 0.13079 0.28663 0.11644 0.0
C655 C 0.14187 0.26215 0.12619 0.0
C656 C 0.10307 0.3321 0.12253 0.0
C657 C 0.12254 0.34959 0.10745 0.0
C658 C 0.07295 0.33961 0.12637 0.0
C659 C 0.05076 0.32161 0.14092 0.0
C660 C 0.04634 0.29302 0.13259 0.0
C661 C 0.02544 0.27615 0.14648 0.0
C662 C 1.00867 0.28771 0.16859 0.0
C663 C 0.0127 0.31618 0.17683 0.0
C664 C 0.03359 0.33313 0.16303 0.0
C665 C 0.06516 0.43247 0.04674 0.0
C666 C 0.04948 0.45368 0.06204 0.0
C667 C 0.07554 0.40891 0.05881 0.0
C668 C 0.07068 0.40595 0.08654 0.0
C669 C 0.05448 0.42681 0.10176 0.0
C670 C 0.04412 0.45038 0.08971 0.0
C671 C 0.08264 0.38129 0.09963 0.0
C672 C 0.06325 0.36413 0.11512 0.0
C673 C 0.11286 0.37409 0.09623 0.0
C674 C 0.13504 0.39226 0.08181 0.0
C675 C 0.13843 0.42113 0.0896 0.0
C676 C 0.15916 0.43822 0.07578 0.0
C677 C 0.17681 0.42662 0.05425 0.0
C678 C 0.17382 0.3979 0.04654 0.0
C679 C 0.15308 0.38073 0.06028 0.0
H680 H 0.19285 0.43989 0.04358 0.0
H681 H 0.9925 0.27462 0.17931 0.0
H682 H 0.59179 0.38063 0.92737 0.0
H683 H 0.56693 0.33616 0.93845 0.0
H684 H 0.58043 0.35487 0.02207 0.0
H685 H 0.6059 0.39947 1.01092 0.0
H686 H 0.59742 0.30387 1.00793 0.0
H687 H 0.51012 0.35407 0.99747 0.0
H688 H 0.47677 0.38484 0.976 0.0
H689 H 0.47416 0.3252 0.90838 0.0
H690 H 0.50785 0.29424 0.92925 0.0
H691 H 0.52812 0.17369 0.03728 0.0
H692 H 0.53464 0.22516 0.03665 0.0
H693 H 0.52975 0.21987 0.95081 0.0
H694 H 0.52176 0.16835 0.95169 0.0
H695 H 0.50348 0.26656 0.97251 0.0
H696 H 0.59732 0.2208 0.98134 0.0
H697 H 0.62938 0.18967 1.00394 0.0
H698 H 0.61795 0.24199 0.07647 0.0
H699 H 0.58558 0.27327 0.05435 0.0
C700 C 0.58883 0.37562 0.94819 0.0
C701 C 0.60066 0.39355 0.96831 0.0
C702 C 0.57455 0.35019 0.95453 0.0
C703 C 0.57143 0.34232 0.98115 0.0
C704 C 0.58252 0.36056 1.0014 0.0
C705 C 0.59707 0.38596 0.99503 0.0
C706 C 0.5591 0.31391 0.98728 0.0
C707 C 0.57653 0.29597 1.0007 0.0
C708 C 0.53207 0.30339 0.97751 0.0
C709 C 0.51168 0.3219 0.96489 0.0
C710 C 0.50261 0.3476 0.97794 0.0
C711 C 0.48361 0.36506 0.96588 0.0
C712 C 0.47339 0.357 0.94082 0.0
C713 C 0.4821 0.33142 0.92779 0.0
C714 C 0.50111 0.31388 0.93975 0.0
C715 C 0.52804 0.18369 0.01838 0.0
C716 C 0.52484 0.16735 0.99447 0.0
C717 C 0.53181 0.21299 0.01801 0.0
C718 C 0.53338 0.22626 0.99361 0.0
C719 C 0.52872 0.21003 0.96984 0.0
C720 C 0.52431 0.1807 0.97029 0.0
C721 C 0.54212 0.25658 0.99256 0.0
C722 C 0.52408 0.27476 0.98008 0.0
C723 C 0.56853 0.26743 1.0033 0.0
C724 C 0.58888 0.24923 1.01626 0.0
C725 C 0.60163 0.22563 1.00211 0.0
C726 C 0.61983 0.20796 1.01484 0.0
C727 C 0.62565 0.21382 0.04164 0.0
C728 C 0.61342 0.23747 0.05572 0.0
C729 C 0.59518 0.2552 0.04309 0.0
H730 H 0.63965 0.20005 0.05149 0.0
H731 H 0.45869 0.37055 0.93152 0.0
H732 H 0.96648 0.6388 0.40281 0.0
H733 H 0.98154 0.68906 0.40196 0.0
H734 H 0.9135 0.70948 0.46377 0.0
H735 H 0.89824 0.65972 0.46432 0.0
H736 H 0.91315 0.74534 0.42539 0.0
H737 H 0.98759 0.70511 0.47651 0.0
H738 H 0.02777 0.67264 0.48321 0.0
H739 H 0.07932 0.70619 0.41685 0.0
H740 H 0.03924 0.73862 0.40955 0.0
H741 H 0.9522 0.86934 0.4977 0.0
H742 H 0.94365 0.82036 0.48212 0.0
H743 H 1.00782 0.83055 0.41587 0.0
H744 H 0.01585 0.88028 0.43074 0.0
H745 H 0.01388 0.78044 0.44546 0.0
H746 H 0.94111 0.82687 0.40047 0.0
H747 H 0.90085 0.86002 0.39641 0.0
H748 H 0.8457 0.81507 0.45348 0.0
H749 H 0.8858 0.78188 0.45821 0.0
C750 C 0.955 0.6541 0.41631 0.0
C751 C 0.93117 0.64551 0.43357 0.0
C752 C 0.96353 0.68273 0.41578 0.0
C753 C 0.94866 0.70301 0.43284 0.0
C754 C 0.92511 0.69426 0.45025 0.0
C755 C 0.91643 0.66584 0.45059 0.0
C756 C 0.95725 0.73346 0.43299 0.0
C757 C 0.93517 0.75299 0.4298 0.0
C758 C 0.98624 0.74345 0.43785 0.0
C759 C 1.0103 0.724 0.44227 0.0
C760 C 1.0074 0.70538 0.46321 0.0
C761 C 0.03016 0.68702 0.46714 0.0
C762 C 0.05604 0.68728 0.45041 0.0
C763 C 0.05923 0.70596 0.42976 0.0
C764 C 0.03651 0.72434 0.42572 0.0
C765 C 0.96414 0.86149 0.4795 0.0
C766 C 0.98448 0.87895 0.46531 0.0
C767 C 0.95936 0.83338 0.47075 0.0
C768 C 0.97492 0.82201 0.44774 0.0
C769 C 0.9956 0.83906 0.43367 0.0
C770 C 1.00021 0.86739 0.44228 0.0
C771 C 0.96945 0.7921 0.43895 0.0
C772 C 0.99206 0.77273 0.44042 0.0
C773 C 0.94088 0.7822 0.43274 0.0
C774 C 0.91655 0.80196 0.42979 0.0
C775 C 0.92048 0.82416 0.4123 0.0
C776 C 0.89767 0.84294 0.40986 0.0
C777 C 0.87075 0.83967 0.42471 0.0
C778 C 0.86657 0.81757 0.44199 0.0
C779 C 0.88932 0.79874 0.44453 0.0
H780 H 0.85312 0.85425 0.42279 0.0
H781 H 0.07364 0.67305 0.45349 0.0
H782 H 0.39594 0.82595 0.63771 0.0
H783 H 0.41559 0.78417 0.61267 0.0
H784 H 0.42809 0.74515 0.68655 0.0
H785 H 0.40802 0.78691 0.71189 0.0
H786 H 0.47495 0.73574 0.65142 0.0
H787 H 0.36974 0.72546 0.64784 0.0
H788 H 0.31967 0.74023 0.63916 0.0
H789 H 0.34673 0.74853 0.55627 0.0
H790 H 0.3971 0.73418 0.56454 0.0
H791 H 0.49617 0.59562 0.59599 0.0
H792 H 0.47855 0.63827 0.6209 0.0
H793 H 0.4601 0.67463 0.54704 0.0
H794 H 0.47698 0.63142 0.52193 0.0
H795 H 0.41651 0.68579 0.58214 0.0
H796 H 0.52164 0.69609 0.58534 0.0
H797 H 0.57186 0.68156 0.59379 0.0
H798 H 0.54546 0.67363 0.67686 0.0
H799 H 0.49495 0.68778 0.66884 0.0
C800 C 0.40256 0.80845 0.64879 0.0
C801 C 0.39991 0.80997 0.67703 0.0
C802 C 0.41393 0.78445 0.63432 0.0
C803 C 0.42299 0.76105 0.64754 0.0
C804 C 0.42124 0.76276 0.67572 0.0
C805 C 0.40981 0.78682 0.69026 0.0
C806 C 0.43401 0.73487 0.63194 0.0
C807 C 0.46196 0.72463 0.63653 0.0
C808 C 0.41758 0.72052 0.61192 0.0
C809 C 0.38727 0.72902 0.60687 0.0
C810 C 0.36508 0.73064 0.6278 0.0
C811 C 0.33663 0.7389 0.62295 0.0
C812 C 0.33005 0.74539 0.5972 0.0
C813 C 0.35188 0.74354 0.57622 0.0
C814 C 0.38037 0.73532 0.58097 0.0
C815 C 0.48854 0.6127 0.58491 0.0
C816 C 0.48823 0.60993 0.55679 0.0
C817 C 0.47855 0.63731 0.59928 0.0
C818 C 0.46832 0.66022 0.58603 0.0
C819 C 0.46789 0.65748 0.55792 0.0
C820 C 0.47771 0.63271 0.5435 0.0
C821 C 0.45756 0.68662 0.60152 0.0
C822 C 0.4296 0.6969 0.59696 0.0
C823 C 0.47404 0.70105 0.6215 0.0
C824 C 0.50444 0.69275 0.62643 0.0
C825 C 0.52649 0.69108 0.60538 0.0
C826 C 0.55502 0.68293 0.6101 0.0
C827 C 0.56183 0.67661 0.63584 0.0
C828 C 0.54014 0.67851 0.65693 0.0
C829 C 0.51157 0.68662 0.65232 0.0
H830 H 0.58392 0.67029 0.63945 0.0
H831 H 0.30801 0.75178 0.59348 0.0
H832 H 0.83604 0.91176 0.78592 0.0
H833 H 0.85571 0.93102 0.74434 0.0
H834 H 0.94317 0.90552 0.76016 0.0
H835 H 0.92398 0.88808 0.803 0.0
H836 H 0.94919 0.95329 0.73983 0.0
H837 H 0.89732 0.86899 0.71235 0.0
H838 H 0.85536 0.83485 0.70991 0.0
H839 H 0.80356 0.89711 0.6766 0.0
H840 H 0.8451 0.93175 0.67916 0.0
H841 H 0.96321 0.94776 0.58202 0.0
H842 H 0.94495 0.92761 0.62394 0.0
H843 H 0.9486 1.01054 0.66412 0.0
H844 H 0.96784 0.03065 0.62238 0.0
H845 H 0.89929 0.93129 0.65577 0.0
H846 H 0.9616 1.00716 0.72933 0.0
H847 H 1.00846 0.0349 0.73024 0.0
H848 H 0.04777 0.97856 0.66863 0.0
H849 H 1.0013 0.95036 0.66757 0.0
C850 C 0.85958 0.91054 0.78096 0.0
C851 C 0.87826 0.89826 0.79832 0.0
C852 C 0.8708 0.92124 0.7567 0.0
C853 C 0.901 0.91942 0.7485 0.0
C854 C 0.91977 0.90722 0.76573 0.0
C855 C 0.90862 0.89685 0.79024 0.0
C856 C 0.9129 0.93047 0.72218 0.0
C857 C 0.93818 0.94842 0.72151 0.0
C858 C 0.89925 0.92381 0.69782 0.0
C859 C 0.87424 0.90304 0.69618 0.0
C860 C 0.87691 0.87546 0.70467 0.0
C861 C 0.85321 0.85601 0.70324 0.0
C862 C 0.82679 0.86383 0.69316 0.0
C863 C 0.82403 0.8911 0.68443 0.0
C864 C 0.84766 0.91064 0.68584 0.0
C865 C 0.96005 0.96179 0.59973 0.0
C866 C 0.96717 0.9909 0.59867 0.0
C867 C 0.94953 0.95019 0.62382 0.0
C868 C 0.94569 0.96731 0.64762 0.0
C869 C 0.95194 0.99656 0.64639 0.0
C870 C 0.96276 1.00815 0.62235 0.0
C871 C 0.93524 0.95452 0.67353 0.0
C872 C 0.91024 0.93622 0.67412 0.0
C873 C 0.94976 0.96006 0.69759 0.0
C874 C 0.97785 0.97684 0.69819 0.0
C875 C 0.98027 1.00067 0.71603 0.0
C876 C 1.00676 0.01648 0.71656 0.0
C877 C 0.03105 1.00857 0.69944 0.0
C878 C 0.02892 0.98477 0.6818 0.0
C879 C 1.0025 0.96888 0.68121 0.0
H880 H 0.05152 0.02085 0.69991 0.0
H881 H 0.80846 0.84875 0.69207 0.0
H882 H 0.58846 0.16822 0.3063 0.0
H883 H 0.57051 0.14533 0.26493 0.0
H884 H 0.65922 0.14665 0.22858 0.0
H885 H 0.67742 0.16866 0.27016 0.0
H886 H 0.60479 0.16691 0.19668 0.0
H887 H 0.64479 0.08973 0.24302 0.0
H888 H 0.64854 0.06167 0.28257 0.0
H889 H 0.55524 0.04288 0.28437 0.0
H890 H 0.55089 0.07124 0.24505 0.0
H891 H 0.58209 0.08178 0.07821 0.0
H892 H 0.60186 0.10525 0.11816 0.0
H893 H 0.53603 0.06147 0.16771 0.0
H894 H 0.51822 0.03608 0.12778 0.0
H895 H 0.57911 0.06429 0.19387 0.0
H896 H 0.53618 0.13846 0.1491 0.0
H897 H 0.52806 0.168 0.11138 0.0
H898 H 0.61925 0.19532 0.10849 0.0
H899 H 0.62801 0.16567 0.146 0.0
C900 C 0.60411 0.1638 0.28943 0.0
C901 C 0.63441 0.17027 0.29161 0.0
C902 C 0.59382 0.15067 0.26579 0.0
C903 C 0.61346 0.14427 0.24352 0.0
C904 C 0.64359 0.15141 0.24539 0.0
C905 C 0.65399 0.16391 0.26923 0.0
C906 C 0.60274 0.1292 0.21871 0.0
C907 C 0.59944 0.14441 0.19588 0.0
C908 C 0.59481 0.10006 0.21785 0.0
C909 C 0.59746 0.08288 0.24132 0.0
C910 C 0.62503 0.07986 0.25202 0.0
C911 C 0.62728 0.06385 0.27435 0.0
C912 C 0.60213 0.05058 0.28603 0.0
C913 C 0.57469 0.05322 0.27534 0.0
C914 C 0.57233 0.06925 0.25303 0.0
C915 C 0.57201 0.07705 0.09768 0.0
C916 C 0.54857 0.05703 0.09976 0.0
C917 C 0.58308 0.09083 0.12067 0.0
C918 C 0.57007 0.08613 0.14643 0.0
C919 C 0.54673 0.06583 0.14839 0.0
C920 C 0.53641 0.05125 0.12545 0.0
C921 C 0.58086 0.10186 0.17124 0.0
C922 C 0.58423 0.08681 0.1943 0.0
C923 C 0.58812 0.13139 0.17246 0.0
C924 C 0.5828 0.14962 0.1502 0.0
C925 C 0.55452 0.15068 0.14035 0.0
C926 C 0.54981 0.16744 0.11901 0.0
C927 C 0.57314 0.18346 0.1075 0.0
C928 C 0.60121 0.18287 0.1174 0.0
C929 C 0.60605 0.16611 0.13872 0.0
H930 H 0.56946 0.19638 0.09094 0.0
H931 H 0.60391 0.03818 0.30331 0.0
H932 H 0.40942 0.55099 0.1632 0.0
H933 H 0.40801 0.56275 0.21129 0.0
H934 H 0.50329 0.5615 0.20875 0.0
H935 H 0.50482 0.55026 0.16038 0.0
H936 H 0.42609 0.53141 0.24885 0.0
H937 H 0.52804 0.61002 0.25632 0.0
H938 H 0.55156 0.64807 0.23016 0.0
H939 H 0.46988 0.66048 0.19413 0.0
H940 H 0.44564 0.62307 0.22057 0.0
H941 H 0.49042 0.52045 0.36864 0.0
H942 H 0.48195 0.52515 0.32166 0.0
H943 H 0.45267 0.6105 0.33965 0.0
H944 H 0.46155 0.60597 0.38706 0.0
H945 H 0.48653 0.60705 0.2933 0.0
H946 H 0.40198 0.55851 0.32967 0.0
H947 H 0.37399 0.52299 0.35588 0.0
H948 H 0.41185 0.45616 0.3043 0.0
H949 H 0.44044 0.49126 0.27802 0.0
C950 C 0.43011 0.55392 0.17272 0.0
C951 C 0.45734 0.55026 0.158 0.0
C952 C 0.42923 0.5604 0.20026 0.0
C953 C 0.45553 0.56336 0.21353 0.0
C954 C 0.48274 0.55984 0.19882 0.0
C955 C 0.48361 0.55324 0.17128 0.0
C956 C 0.45462 0.56797 0.24303 0.0
C957 C 0.43911 0.54807 0.25858 0.0
C958 C 0.47078 0.59033 0.25573 0.0
C959 C 0.48508 0.61348 0.24031 0.0
C960 C 0.51501 0.621 0.243 0.0
C961 C 0.52848 0.64248 0.2281 0.0
C962 C 0.51225 0.65663 0.21045 0.0
C963 C 0.48246 0.64946 0.20776 0.0
C964 C 0.46885 0.62812 0.22271 0.0
C965 C 0.48202 0.54018 0.36266 0.0
C966 C 0.47616 0.56268 0.38157 0.0
C967 C 0.47724 0.54287 0.33579 0.0
C968 C 0.46608 0.56797 0.32724 0.0
C969 C 0.46112 0.59089 0.34587 0.0
C970 C 0.46617 0.58829 0.37289 0.0
C971 C 0.45923 0.56958 0.29887 0.0
C972 C 0.47318 0.59066 0.28356 0.0
C973 C 0.44087 0.5488 0.28638 0.0
C974 C 0.42347 0.52755 0.30194 0.0
C975 C 0.40447 0.53624 0.324 0.0
C976 C 0.38849 0.51617 0.33886 0.0
C977 C 0.39117 0.48734 0.33178 0.0
C978 C 0.40979 0.47851 0.30977 0.0
C979 C 0.42586 0.49848 0.29485 0.0
H980 H 0.37879 0.47184 0.34332 0.0
H981 H 0.52273 0.67321 0.19889 0.0
H982 H 0.06079 0.4793 0.66138 0.0
H983 H 0.0624 0.46992 0.70866 0.0
H984 H 0.11292 0.54739 0.72195 0.0
H985 H 0.11117 0.55705 0.67438 0.0
H986 H 0.13236 0.49424 0.74759 0.0
H987 H 0.04795 0.55368 0.73853 0.0
H988 H 1.00195 0.56555 0.71845 0.0
H989 H 0.96176 0.48672 0.74171 0.0
H990 H 1.00773 0.4742 0.76159 0.0
H991 H 0.11252 0.52029 0.88776 0.0
H992 H 0.11901 0.51975 0.83927 0.0
H993 H 0.04312 0.46325 0.83288 0.0
H994 H 0.0349 0.46568 0.8814 0.0
H995 H 0.03745 0.50268 0.80222 0.0
H996 H 0.11785 0.44337 0.81445 0.0
H997 H 0.16326 0.42821 0.83347 0.0
H998 H 0.21067 0.50079 0.8035 0.0
H999 H 0.16544 0.51663 0.78461 0.0
C1000 C 0.07282 0.49402 0.67419 0.0
C1001 C 0.08626 0.51872 0.66423 0.0
C1002 C 0.07357 0.48871 0.70121 0.0
C1003 C 0.08789 0.50791 0.71865 0.0
C1004 C 0.10198 0.53225 0.70866 0.0
C1005 C 0.10083 0.5378 0.68165 0.0
C1006 C 0.0862 0.50351 0.74764 0.0
C1007 C 0.11177 0.49633 0.75973 0.0
C1008 C 0.05904 0.50527 0.76304 0.0
C1009 C 0.03137 0.51287 0.75126 0.0
C1010 C 0.0294 0.53876 0.73913 0.0
C1011 C 1.00332 0.54564 0.72784 0.0
C1012 C 0.97898 0.52686 0.72873 0.0
C1013 C 0.98065 0.50122 0.74099 0.0
C1014 C 1.0067 0.49423 0.75229 0.0
C1015 C 0.09712 0.50775 0.87611 0.0
C1016 C 0.07287 0.4934 0.88867 0.0
C1017 C 0.1012 0.50706 0.84826 0.0
C1018 C 0.08168 0.49131 0.83226 0.0
C1019 C 0.05846 0.47564 0.84474 0.0
C1020 C 0.054 0.47677 0.87261 0.0
C1021 C 0.08376 0.49338 0.8027 0.0
C1022 C 0.05817 0.50024 0.79032 0.0
C1023 C 0.11085 0.49078 0.78702 0.0
C1024 C 0.13815 0.48131 0.7983 0.0
C1025 C 0.1379 0.45622 0.81209 0.0
C1026 C 0.16362 0.44748 0.82282 0.0
C1027 C 0.18981 0.46356 0.81975 0.0
C1028 C 0.19036 0.48837 0.80588 0.0
C1029 C 0.16469 0.49722 0.79513 0.0
H1030 H 0.2097 0.45676 0.82808 0.0
H1031 H 0.9588 0.53222 0.71998 0.0
H1032 H 0.81494 0.89584 0.91771 0.0
H1033 H 0.77052 0.91525 0.94109 0.0
H1034 H 0.73951 0.93868 0.86628 0.0
H1035 H 0.78294 0.91762 0.84226 0.0
H1036 H 0.73754 0.98285 0.91437 0.0
H1037 H 0.70716 0.88719 0.88619 0.0
H1038 H 0.71238 0.83537 0.88259 0.0
H1039 H 0.70826 0.83346 0.96824 0.0
H1040 H 0.70348 0.88538 0.97233 0.0
H1041 H 0.59141 0.02045 0.95846 0.0
H1042 H 0.6361 1.00245 0.93434 0.0
H1043 H 0.64786 0.94645 0.99763 0.0
H1044 H 0.60201 0.96328 0.02101 0.0
H1045 H 0.66088 0.91879 0.95496 0.0
H1046 H 0.69152 1.01148 0.98574 0.0
H1047 H 0.68967 0.06341 0.99276 0.0
H1048 H 0.69759 0.07195 0.90781 0.0
H1049 H 0.6991 0.02003 0.90026 0.0
C1050 C 0.79861 0.90464 0.90596 0.0
C1051 C 0.80278 0.90467 0.87781 0.0
C1052 C 0.77326 0.91604 0.91953 0.0
C1053 C 0.75164 0.92836 0.90547 0.0
C1054 C 0.75598 0.92937 0.87757 0.0
C1055 C 0.78106 0.91742 0.86387 0.0
C1056 C 0.72422 0.93955 0.91993 0.0
C1057 C 0.72052 0.96891 0.92296 0.0
C1058 C 0.70259 0.92139 0.93199 0.0
C1059 C 0.7053 0.89019 0.92955 0.0
C1060 C 0.70767 0.87576 0.90425 0.0
C1061 C 0.71048 0.84636 0.90212 0.0
C1062 C 0.71074 0.83114 0.92517 0.0
C1063 C 0.7081 0.84528 0.9504 0.0
C1064 C 0.70532 0.87469 0.95263 0.0
C1065 C 0.60361 1.00442 0.96734 0.0
C1066 C 0.59318 0.99345 0.99179 0.0
C1067 C 0.62941 0.99421 0.95356 0.0
C1068 C 0.64608 0.97339 0.96425 0.0
C1069 C 0.63565 0.9625 0.98878 0.0
C1070 C 0.60944 0.97223 1.00226 0.0
C1071 C 0.6738 0.96243 0.94957 0.0
C1072 C 0.67771 0.93299 0.94648 0.0
C1073 C 0.696 0.98061 0.938 0.0
C1074 C 0.69513 1.01184 0.94244 0.0
C1075 C 0.69265 0.02442 0.96855 0.0
C1076 C 0.6917 0.05386 0.97262 0.0
C1077 C 0.69343 0.07097 0.95074 0.0
C1078 C 0.69621 0.05867 0.92474 0.0
C1079 C 0.69714 0.02924 0.92055 0.0
H1080 H 0.69269 0.09375 0.95394 0.0
H1081 H 0.71291 0.80838 0.92349 0.0
H1082 H 0.73774 0.12198 0.37336 0.0
H1083 H 0.77732 0.0969 0.39274 0.0
H1084 H 0.7983 0.17219 0.44102 0.0
H1085 H 0.75925 0.19725 0.4215 0.0
H1086 H 0.84774 0.14961 0.42061 0.0
H1087 H 0.75907 0.11346 0.46678 0.0
H1088 H 0.7098 0.09003 0.47009 0.0
H1089 H 0.74537 0.01483 0.42974 0.0
H1090 H 0.79481 0.03796 0.42589 0.0
H1091 H 0.93582 0.09568 0.5164 0.0
H1092 H 0.89546 0.11615 0.49446 0.0
H1093 H 0.88198 0.03718 0.44922 0.0
H1094 H 0.92214 0.01639 0.47142 0.0
H1095 H 0.82966 0.05927 0.46516 0.0
H1096 H 0.91871 0.09413 0.42091 0.0
H1097 H 0.96822 0.11713 0.41773 0.0
H1098 H 0.93229 0.19431 0.45355 0.0
H1099 H 0.88264 0.17166 0.45738 0.0
C1100 C 0.75079 0.13315 0.38811 0.0
C1101 C 0.74527 0.16167 0.39589 0.0
C1102 C 0.77339 0.11874 0.39931 0.0
C1103 C 0.79089 0.13247 0.41864 0.0
C1104 C 0.78536 0.16099 0.42619 0.0
C1105 C 0.76288 0.17531 0.41505 0.0
C1106 C 0.81505 0.11754 0.43102 0.0
C1107 C 0.84361 0.13001 0.43058 0.0
C1108 C 0.81023 0.09146 0.44346 0.0
C1109 C 0.78055 0.07754 0.44578 0.0
C1110 C 0.75633 0.09201 0.45843 0.0
C1111 C 0.72839 0.07877 0.46043 0.0
C1112 C 0.72444 0.05099 0.45006 0.0
C1113 C 0.74845 0.03636 0.43772 0.0
C1114 C 0.77644 0.04952 0.43564 0.0
C1115 C 0.92419 0.08253 0.50192 0.0
C1116 C 0.93245 0.05433 0.4957 0.0
C1117 C 0.90114 0.09437 0.48921 0.0
C1118 C 0.88578 0.07846 0.46973 0.0
C1119 C 0.89341 0.05003 0.46404 0.0
C1120 C 0.91648 0.03815 0.47678 0.0
C1121 C 0.86216 0.09164 0.45514 0.0
C1122 C 0.83379 0.07881 0.45509 0.0
C1123 C 0.86716 0.11736 0.44215 0.0
C1124 C 0.89697 0.13111 0.43964 0.0
C1125 C 0.92139 0.11595 0.42828 0.0
C1126 C 0.94947 0.12892 0.42633 0.0
C1127 C 0.95339 0.15713 0.43546 0.0
C1128 C 0.92922 0.17245 0.44651 0.0
C1129 C 0.9011 0.15956 0.44856 0.0
H1130 H 0.97515 0.16713 0.43394 0.0
H1131 H 0.70278 0.04078 0.45164 0.0
H1132 H 0.32763 0.62366 0.13369 0.0
H1133 H 0.27582 0.6218 0.1224 0.0
H1134 H 0.29831 0.56589 0.0536 0.0
H1135 H 0.3502 0.56786 0.06465 0.0
H1136 H 0.26094 0.60948 0.04273 0.0
H1137 H 0.26768 0.53879 0.10791 0.0
H1138 H 0.27953 0.52175 0.15143 0.0
H1139 H 0.21908 0.58051 0.192 0.0
H1140 H 0.20718 0.5982 0.1487 0.0
H1141 H 0.12572 0.54438 1.01038 0.0
H1142 H 0.17564 0.55759 0.02218 0.0
H1143 H 0.14065 0.60176 0.09452 0.0
H1144 H 0.09037 0.58777 0.08321 0.0
H1145 H 0.18359 0.56958 0.10542 0.0
H1146 H 0.173 0.63765 0.04064 0.0
H1147 H 0.16084 0.65532 0.99747 0.0
H1148 H 0.22782 0.60366 0.95659 0.0
H1149 H 0.24012 0.58536 0.99947 0.0
C1150 C 0.32153 0.61114 0.11606 0.0
C1151 C 0.34288 0.59581 0.10009 0.0
C1152 C 0.29196 0.61 0.10972 0.0
C1153 C 0.28328 0.59359 0.08726 0.0
C1154 C 0.30462 0.57866 0.07102 0.0
C1155 C 0.33415 0.57961 0.07747 0.0
C1156 C 0.25185 0.59148 0.08093 0.0
C1157 C 0.24399 0.60058 0.05629 0.0
C1158 C 0.22972 0.58072 0.09908 0.0
C1159 C 0.23681 0.57005 0.1251 0.0
C1160 C 0.25712 0.54826 0.12613 0.0
C1161 C 0.2638 0.53845 0.15075 0.0
C1162 C 0.25014 0.5501 0.17447 0.0
C1163 C 0.22969 0.57154 0.17361 0.0
C1164 C 0.22296 0.58146 0.14904 0.0
C1165 C 0.12854 0.55722 0.02865 0.0
C1166 C 0.10405 0.565 0.04588 0.0
C1167 C 0.15716 0.56491 0.0353 0.0
C1168 C 0.16193 0.581 0.05908 0.0
C1169 C 0.13748 0.58939 0.07604 0.0
C1170 C 0.10878 0.58146 0.06951 0.0
C1171 C 0.19252 0.58726 0.06695 0.0
C1172 C 0.20033 0.5789 0.09191 0.0
C1173 C 0.21454 0.59891 0.04915 0.0
C1174 C 0.20734 0.60998 0.02329 0.0
C1175 C 0.18501 0.62991 0.02243 0.0
C1176 C 0.17811 0.64006 0.99801 0.0
C1177 C 0.19351 0.63059 0.9743 0.0
C1178 C 0.2159 0.61098 0.97497 0.0
C1179 C 0.22287 0.60074 0.99934 0.0
H1180 H 0.18814 0.63847 0.95541 0.0
H1181 H 0.25534 0.54247 0.19352 0.0
H1182 H 0.19577 0.43905 0.6297 0.0
H1183 H 0.24884 0.44507 0.61789 0.0
H1184 H 0.22983 0.50326 0.55846 0.0
H1185 H 0.17682 0.49724 0.57008 0.0
H1186 H 0.26909 0.46068 0.53948 0.0
H1187 H 0.25578 0.52867 0.61459 0.0
H1188 H 0.24029 0.54385 0.66111 0.0
H1189 H 0.2999 0.48545 0.69012 0.0
H1190 H 0.31544 0.46962 0.64373 0.0
H1191 H 0.40775 0.52372 0.50635 0.0
H1192 H 0.35648 0.51279 0.52041 0.0
H1193 H 0.38514 0.46702 0.58572 0.0
H1194 H 0.43672 0.47874 0.57224 0.0
H1195 H 0.34144 0.49938 0.60295 0.0
H1196 H 0.35702 0.43251 0.52913 0.0
H1197 H 0.37261 0.41565 0.48309 0.0
H1198 H 0.3091 0.46873 0.45212 0.0
H1199 H 0.2934 0.48622 0.49798 0.0
C1200 C 0.20297 0.4532 0.6142 0.0
C1201 C 0.18223 0.46774 0.60083 0.0
C1202 C 0.23322 0.45669 0.60756 0.0
C1203 C 0.24317 0.47464 0.58735 0.0
C1204 C 0.22253 0.48931 0.57412 0.0
C1205 C 0.19233 0.48604 0.58092 0.0
C1206 C 0.27509 0.47771 0.57952 0.0
C1207 C 0.28492 0.46941 0.55323 0.0
C1208 C 0.29575 0.48813 0.59781 0.0
C1209 C 0.28653 0.49774 0.62569 0.0
C1210 C 0.26539 0.51889 0.63088 0.0
C1211 C 0.25664 0.52765 0.65723 0.0
C1212 C 0.26903 0.51556 0.67856 0.0
C1213 C 0.29028 0.49476 0.67358 0.0
C1214 C 0.29908 0.48589 0.64727 0.0
C1215 C 0.40322 0.5111 0.52358 0.0
C1216 C 0.42632 0.50203 0.53815 0.0
C1217 C 0.37384 0.50476 0.53153 0.0
C1218 C 0.36691 0.48872 0.5539 0.0
C1219 C 0.38995 0.47938 0.56837 0.0
C1220 C 0.41941 0.48601 0.56059 0.0
C1221 C 0.33556 0.48273 0.56268 0.0
C1222 C 0.32575 0.49042 0.58918 0.0
C1223 C 0.31494 0.47142 0.54464 0.0
C1224 C 0.32419 0.46084 0.51701 0.0
C1225 C 0.34652 0.44074 0.5125 0.0
C1226 C 0.35535 0.43104 0.48643 0.0
C1227 C 0.34189 0.44116 0.46469 0.0
C1228 C 0.31952 0.46093 0.46898 0.0
C1229 C 0.31061 0.47071 0.49501 0.0
H1230 H 0.34877 0.43363 0.44453 0.0
H1231 H 0.26223 0.52238 0.69894 0.0
H1232 H 0.93962 0.77036 0.84721 0.0
H1233 H 0.95581 0.73186 0.87309 0.0
H1234 H 0.8996 0.76167 0.94093 0.0
H1235 H 0.88342 0.80028 0.91513 0.0
H1236 H 0.95362 0.74732 0.95641 0.0
H1237 H 0.87956 0.70342 0.90286 0.0
H1238 H 0.8553 0.6902 0.86121 0.0
H1239 H 0.93282 0.64644 0.82977 0.0
H1240 H 0.95771 0.65974 0.87112 0.0
H1241 H 0.96643 0.62238 0.02947 0.0
H1242 H 0.94839 0.66231 1.00654 0.0
H1243 H 0.996 0.63282 0.93346 0.0
H1244 H 0.01341 0.59269 0.95599 0.0
H1245 H 0.94401 0.64741 0.92192 0.0
H1246 H 0.01896 0.69232 0.97423 0.0
H1247 H 0.04401 0.70575 1.01543 0.0
H1248 H 0.96611 0.74768 0.0487 0.0
H1249 H 0.94045 0.73418 1.00781 0.0
C1250 C 0.93069 0.7687 0.86764 0.0
C1251 C 0.9101 0.78835 0.87898 0.0
C1252 C 0.93989 0.74659 0.88243 0.0
C1253 C 0.92875 0.74352 0.90898 0.0
C1254 C 0.90854 0.76344 0.92051 0.0
C1255 C 0.89919 0.78549 0.90566 0.0
C1256 C 0.93814 0.7195 0.92457 0.0
C1257 C 0.95112 0.72545 0.94904 0.0
C1258 C 0.93552 0.69088 0.91486 0.0
C1259 C 0.9206 0.68281 0.88999 0.0
C1260 C 0.89152 0.69117 0.88698 0.0
C1261 C 0.87764 0.68363 0.86345 0.0
C1262 C 0.89253 0.66755 0.84283 0.0
C1263 C 0.92132 0.65893 0.84574 0.0
C1264 C 0.93532 0.66644 0.86924 0.0
C1265 C 0.97319 0.62448 1.00855 0.0
C1266 C 0.99145 0.60421 0.99467 0.0
C1267 C 0.96292 0.64746 0.99543 0.0
C1268 C 0.97095 0.65097 0.96817 0.0
C1269 C 0.98931 0.63077 0.9544 0.0
C1270 C 0.99938 0.60777 0.96742 0.0
C1271 C 0.95991 0.67516 0.95368 0.0
C1272 C 0.94652 0.66926 0.92938 0.0
C1273 C 0.96231 0.7038 0.96351 0.0
C1274 C 0.97769 0.71198 0.98808 0.0
C1275 C 1.0071 0.70422 0.99042 0.0
C1276 C 0.02142 0.71188 1.0137 0.0
C1277 C 1.00663 0.72749 0.0347 0.0
C1278 C 0.97752 0.73555 0.03244 0.0
C1279 C 0.96308 0.72792 1.0092 0.0
H1280 H 0.01775 0.7334 0.05271 0.0
H1281 H 0.88175 0.66173 0.82462 0.0
H1282 H 0.4753 0.63908 0.10586 0.0
H1283 H 0.49793 0.68627 0.10735 0.0
H1284 H 0.41702 0.7202 0.1447 0.0
H1285 H 0.39517 0.67275 0.14552 0.0
H1286 H 0.48388 0.72535 0.08021 0.0
H1287 H 0.42483 0.78344 0.17427 0.0
H1288 H 0.4112 0.77437 0.22146 0.0
H1289 H 0.479 0.7127 0.22025 0.0
H1290 H 0.49314 0.72138 0.17305 0.0
H1291 H 0.46113 0.86438 0.05433 0.0
H1292 H 0.45581 0.81624 0.06869 0.0
H1293 H 0.51461 0.83662 0.13163 0.0
H1294 H 0.51858 0.88564 0.11843 0.0
H1295 H 0.47144 0.80366 0.1497 0.0
H1296 H 0.53918 0.79915 0.07402 0.0
H1297 H 0.55906 0.80795 0.02823 0.0
H1298 H 0.48597 0.76098 0.99589 0.0
H1299 H 0.46541 0.75224 0.0415 0.0
C1300 C 0.46264 0.65633 0.11541 0.0
C1301 C 0.43315 0.65201 0.12523 0.0
C1302 C 0.47557 0.68347 0.11598 0.0
C1303 C 0.45925 0.70697 0.12603 0.0
C1304 C 0.43038 0.70251 0.13718 0.0
C1305 C 0.41764 0.67531 0.13715 0.0
C1306 C 0.4707 0.73619 0.12155 0.0
C1307 C 0.48148 0.74234 0.09557 0.0
C1308 C 0.46835 0.75844 0.14164 0.0
C1309 C 0.45994 0.753 0.17004 0.0
C1310 C 0.43692 0.768 0.18408 0.0
C1311 C 0.42904 0.76286 0.21081 0.0
C1312 C 0.44415 0.74287 0.2238 0.0
C1313 C 0.46719 0.728 0.21008 0.0
C1314 C 0.47509 0.73298 0.18332 0.0
C1315 C 0.47254 0.85892 0.07155 0.0
C1316 C 0.49033 0.87903 0.08518 0.0
C1317 C 0.46982 0.83118 0.07951 0.0
C1318 C 0.48533 0.82262 0.10088 0.0
C1319 C 0.50264 0.84268 0.11493 0.0
C1320 C 0.50511 0.87063 0.10717 0.0
C1321 C 0.48335 0.79265 0.10822 0.0
C1322 C 0.47436 0.78646 0.13461 0.0
C1323 C 0.48832 0.77017 0.08876 0.0
C1324 C 0.50068 0.77516 0.06122 0.0
C1325 C 0.52726 0.79083 0.05715 0.0
C1326 C 0.53865 0.7958 0.03122 0.0
C1327 C 0.52377 0.78506 1.00917 0.0
C1328 C 0.49748 0.76928 1.01299 0.0
C1329 C 0.48597 0.76427 0.03889 0.0
H1330 H 0.53263 0.78894 0.98911 0.0
H1331 H 0.43806 0.73896 0.24451 0.0
H1332 H 0.12985 0.38714 0.63795 0.0
H1333 H 0.11358 0.33748 0.63708 0.0
H1334 H 0.04306 0.35588 0.58751 0.0
H1335 H 0.05954 0.40563 0.58784 0.0
H1336 H 0.02619 0.31805 0.62827 0.0
H1337 H 0.10269 0.32996 0.55803 0.0
H1338 H 0.15193 0.34544 0.53973 0.0
H1339 H 0.19312 0.2912 0.59139 0.0
H1340 H 0.14409 0.27573 0.61031 0.0
H1341 H 0.99669 0.18083 0.56947 0.0
H1342 H 1.00691 0.23093 0.58051 0.0
H1343 H 0.08521 0.2092 0.61869 0.0
H1344 H 0.07533 0.15903 0.60716 0.0
H1345 H 0.09793 0.2491 0.586 0.0
H1346 H 0.02203 0.2348 0.65486 0.0
H1347 H 0.97313 0.21946 0.67403 0.0
H1348 H 0.93107 0.2775 0.62669 0.0
H1349 H 0.97972 0.29292 0.60694 0.0
C1350 C 0.11089 0.38064 0.62683 0.0
C1351 C 0.09624 0.40023 0.61262 0.0
C1352 C 0.10153 0.35232 0.62651 0.0
C1353 C 0.07735 0.34305 0.612 0.0
C1354 C 0.06176 0.36272 0.59885 0.0
C1355 C 0.07119 0.3911 0.59908 0.0
C1356 C 0.06966 0.31252 0.6091 0.0
C1357 C 0.04168 0.30292 0.61882 0.0
C1358 C 0.09024 0.29286 0.59733 0.0
C1359 C 0.11973 0.30192 0.58578 0.0
C1360 C 0.12225 0.32151 0.56564 0.0
C1361 C 0.15012 0.33026 0.55513 0.0
C1362 C 0.17564 0.31937 0.56445 0.0
C1363 C 0.17333 0.29965 0.58423 0.0
C1364 C 0.14551 0.29087 0.59484 0.0
C1365 C 0.01575 0.18673 0.58068 0.0
C1366 C 0.03524 0.1661 0.58747 0.0
C1367 C 0.02156 0.21536 0.58703 0.0
C1368 C 0.04669 0.22384 0.60066 0.0
C1369 C 0.06571 0.20315 0.60814 0.0
C1370 C 0.06008 0.17454 0.60154 0.0
C1371 C 0.05435 0.25432 0.60528 0.0
C1372 C 0.08239 0.26403 0.59572 0.0
C1373 C 0.03383 0.27398 0.61733 0.0
C1374 C 1.00453 0.26484 0.62925 0.0
C1375 C 1.00235 0.24415 0.64838 0.0
C1376 C 0.97467 0.23546 0.65938 0.0
C1377 C 0.94901 0.24745 0.65153 0.0
C1378 C 0.95097 0.26821 0.63273 0.0
C1379 C 0.97859 0.27696 0.62165 0.0
H1380 H 0.9276 0.2407 0.66007 0.0
H1381 H 0.19719 0.32617 0.55629 0.0
H1382 H 0.58653 0.2394 0.35423 0.0
H1383 H 0.5665 0.28275 0.37642 0.0
H1384 H 0.6497 0.30151 0.41096 0.0
H1385 H 0.67078 0.25958 0.38749 0.0
H1386 H 0.59245 0.30386 0.44811 0.0
H1387 H 0.64008 0.33879 0.36623 0.0
H1388 H 0.64853 0.33906 0.31719 0.0
H1389 H 0.55669 0.35513 0.31005 0.0
H1390 H 0.54762 0.35451 0.35907 0.0
H1391 H 0.57222 0.44183 0.50739 0.0
H1392 H 0.59032 0.39856 0.48383 0.0
H1393 H 0.52712 0.40632 0.42407 0.0
H1394 H 0.51042 0.45081 0.44677 0.0
H1395 H 0.57217 0.38857 0.39903 0.0
H1396 H 0.52194 0.35506 0.4778 0.0
H1397 H 0.50878 0.35203 0.52606 0.0
H1398 H 0.5977 0.3296 0.53882 0.0
H1399 H 0.6115 0.33285 0.49067 0.0
C1400 C 0.60095 0.25283 0.36609 0.0
C1401 C 0.63052 0.24531 0.36886 0.0
C1402 C 0.58923 0.27762 0.37904 0.0
C1403 C 0.60649 0.29541 0.39554 0.0
C1404 C 0.6358 0.28804 0.39857 0.0
C1405 C 0.64776 0.26368 0.38519 0.0
C1406 C 0.59414 0.32173 0.40961 0.0
C1407 C 0.58828 0.32252 0.43747 0.0
C1408 C 0.58762 0.34575 0.39569 0.0
C1409 C 0.59311 0.34626 0.36627 0.0
C1410 C 0.62163 0.34208 0.35418 0.0
C1411 C 0.62655 0.34237 0.32639 0.0
C1412 C 0.60315 0.34702 0.3105 0.0
C1413 C 0.57479 0.35147 0.32238 0.0
C1414 C 0.56975 0.35117 0.35016 0.0
C1415 C 0.56204 0.43426 0.4893 0.0
C1416 C 0.53966 0.4498 0.47915 0.0
C1417 C 0.5723 0.40922 0.47583 0.0
C1418 C 0.55977 0.39828 0.45227 0.0
C1419 C 0.53735 0.41391 0.44213 0.0
C1420 C 0.52763 0.43939 0.45524 0.0
C1421 C 0.57047 0.37111 0.43796 0.0
C1422 C 0.57608 0.37003 0.40993 0.0
C1423 C 0.57601 0.34648 0.4517 0.0
C1424 C 0.56782 0.34446 0.48066 0.0
C1425 C 0.53874 0.34967 0.49093 0.0
C1426 C 0.53116 0.34788 0.51826 0.0
C1427 C 0.55241 0.3407 0.5355 0.0
C1428 C 0.58127 0.3352 0.52544 0.0
C1429 C 0.58898 0.33698 0.49813 0.0
H1430 H 0.5465 0.33933 0.55666 0.0
H1431 H 0.607 0.34724 0.28899 0.0
loop_
_geom_bond_atom_site_label_1
_geom_bond_atom_site_label_2
_geom_bond_distance
_geom_bond_site_symmetry_2
_ccdc_geom_bond_type
H0 C5 0.930 . S
H1 C8 0.930 . S
H2 C10 0.930 . S
H3 C4 1.016 . S
C4 H3 1.016 . S
C4 N11 1.286 . S
C5 H0 0.930 . S
C5 C6 1.397 . S
C5 C7 1.361 . S
C6 C5 1.397 . S
C6 C10 1.390 . S
C7 C5 1.361 . S
C7 C8 1.393 . S
C7 N11 1.413 . S
C8 H1 0.930 . S
C8 C7 1.393 . S
C8 C9 1.399 . S
C9 C8 1.399 . S
C9 C10 1.381 . S
C10 H2 0.930 . S
C10 C6 1.390 . S
C10 C9 1.381 . S
N11 C4 1.286 . S
N11 C7 1.413 . S
H12 C17 0.930 . S
H13 C20 0.930 . S
H14 C22 0.930 . S
H15 C16 1.016 . S
C16 H15 1.016 . S
C16 N23 1.286 . S
C17 H12 0.930 . S
C17 C18 1.397 . S
C17 C19 1.361 . S
C18 C17 1.397 . S
C18 C22 1.390 . S
C19 C17 1.361 . S
C19 C20 1.393 . S
C19 N23 1.413 . S
C20 H13 0.930 . S
C20 C19 1.393 . S
C20 C21 1.399 . S
C21 C20 1.399 . S
C21 C22 1.381 . S
C22 H14 0.930 . S
C22 C18 1.390 . S
C22 C21 1.381 . S
N23 C16 1.286 . S
N23 C19 1.413 . S
H24 C29 0.930 . S
H25 C32 0.930 . S
H26 C34 0.930 . S
H27 C28 1.016 . S
C28 H27 1.016 . S
C28 N35 1.286 . S
C29 H24 0.930 . S
C29 C30 1.397 . S
C29 C31 1.361 . S
C30 C29 1.397 . S
C30 C34 1.390 . S
C31 C29 1.361 . S
C31 C32 1.393 . S
C31 N35 1.413 . S
C32 H25 0.930 . S
C32 C31 1.393 . S
C32 C33 1.399 . S
C33 C32 1.399 . S
C33 C34 1.381 . S
C34 H26 0.930 . S
C34 C30 1.390 . S
C34 C33 1.381 . S
N35 C28 1.286 . S
N35 C31 1.413 . S
H36 C41 0.930 . S
H37 C44 0.930 . S
H38 C46 0.930 . S
H39 C40 1.016 . S
C40 H39 1.016 . S
C40 N47 1.286 . S
C41 H36 0.930 . S
C41 C42 1.397 . S
C41 C43 1.361 . S
C42 C41 1.397 . S
C42 C46 1.390 . S
C43 C41 1.361 . S
C43 C44 1.393 . S
C43 N47 1.413 . S
C44 H37 0.930 . S
C44 C43 1.393 . S
C44 C45 1.399 . S
C45 C44 1.399 . S
C45 C46 1.381 . S
C46 H38 0.930 . S
C46 C42 1.390 . S
C46 C45 1.381 . S
N47 C40 1.286 . S
N47 C43 1.413 . S
H48 C53 0.930 . S
H49 C56 0.930 . S
H50 C58 0.930 . S
H51 C52 1.016 . S
C52 H51 1.016 . S
C52 N59 1.286 . S
C53 H48 0.930 . S
C53 C54 1.397 . S
C53 C55 1.361 . S
C54 C53 1.397 . S
C54 C58 1.390 . S
C55 C53 1.361 . S
C55 C56 1.393 . S
C55 N59 1.413 . S
C56 H49 0.930 . S
C56 C55 1.393 . S
C56 C57 1.399 . S
C57 C56 1.399 . S
C57 C58 1.381 . S
C58 H50 0.930 . S
C58 C54 1.390 . S
C58 C57 1.381 . S
N59 C52 1.286 . S
N59 C55 1.413 . S
H60 C65 0.930 . S
H61 C68 0.930 . S
H62 C70 0.930 . S
H63 C64 1.016 . S
C64 H63 1.016 . S
C64 N71 1.286 . S
C65 H60 0.930 . S
C65 C66 1.397 . S
C65 C67 1.361 . S
C66 C65 1.397 . S
C66 C70 1.390 . S
C67 C65 1.361 . S
C67 C68 1.393 . S
C67 N71 1.413 . S
C68 H61 0.930 . S
C68 C67 1.393 . S
C68 C69 1.399 . S
C69 C68 1.399 . S
C69 C70 1.381 . S
C70 H62 0.930 . S
C70 C66 1.390 . S
C70 C69 1.381 . S
N71 C64 1.286 . S
N71 C67 1.413 . S
H72 C77 0.930 . S
H73 C80 0.930 . S
H74 C82 0.930 . S
H75 C76 1.016 . S
C76 H75 1.016 . S
C76 N83 1.286 . S
C77 H72 0.930 . S
C77 C78 1.397 . S
C77 C79 1.361 . S
C78 C77 1.397 . S
C78 C82 1.390 . S
C79 C77 1.361 . S
C79 C80 1.393 . S
C79 N83 1.413 . S
C80 H73 0.930 . S
C80 C79 1.393 . S
C80 C81 1.399 . S
C81 C80 1.399 . S
C81 C82 1.381 . S
C82 H74 0.930 . S
C82 C78 1.390 . S
C82 C81 1.381 . S
N83 C76 1.286 . S
N83 C79 1.413 . S
H84 C89 0.930 . S
H85 C92 0.930 . S
H86 C94 0.930 . S
H87 C88 1.016 . S
C88 H87 1.016 . S
C88 N95 1.286 . S
C89 H84 0.930 . S
C89 C90 1.397 . S
C89 C91 1.361 . S
C90 C89 1.397 . S
C90 C94 1.390 . S
C91 C89 1.361 . S
C91 C92 1.393 . S
C91 N95 1.413 . S
C92 H85 0.930 . S
C92 C91 1.393 . S
C92 C93 1.399 . S
C93 C92 1.399 . S
C93 C94 1.381 . S
C94 H86 0.930 . S
C94 C90 1.390 . S
C94 C93 1.381 . S
N95 C88 1.286 . S
N95 C91 1.413 . S
C96 O112 1.251 . S
C96 O114 1.254 1_545 S
N97 C98 1.333 . S
N97 C102 1.307 . S
N97 Zn103 2.020 . S
C98 N97 1.333 . S
C98 C99 1.379 . S
C98 H116 0.952 . S
C99 C98 1.379 . S
C99 C100 1.390 . S
C99 H126 0.949 . S
C100 C99 1.390 . S
C100 C101 1.357 . S
C101 C100 1.357 . S
C101 C102 1.370 . S
C101 H127 0.950 . S
C102 N97 1.307 . S
C102 C101 1.370 . S
C102 H120 0.948 1_455 S
Zn103 N97 2.020 . S
Zn103 O112 2.039 . S
Zn103 O118 2.034 . S
Zn103 O122 2.025 1_455 S
Zn103 O124 2.024 1_455 S
C104 O123 1.246 1_545 S
C104 O124 1.249 . S
N105 C106 1.307 . S
N105 C107 1.333 . S
N105 Zn111 2.020 . S
C106 N105 1.307 . S
C106 C110 1.370 . S
C106 H117 0.948 1_655 S
C107 N105 1.333 . S
C107 C108 1.379 . S
C107 H115 0.952 . S
C108 C107 1.379 . S
C108 C109 1.390 . S
C108 H128 0.949 . S
C109 C108 1.390 . S
C109 C110 1.357 . S
C110 C106 1.370 . S
C110 C109 1.357 . S
C110 H129 0.950 . S
Zn111 N105 2.020 . S
Zn111 O114 2.025 1_655 S
Zn111 O119 2.024 1_655 S
Zn111 O121 2.039 . S
Zn111 O123 2.034 . S
O112 C96 1.251 . S
O112 Zn103 2.039 . S
C113 O118 1.246 1_565 S
C113 O119 1.249 . S
O114 C96 1.254 1_565 S
O114 Zn111 2.025 1_455 S
H115 C107 0.952 . S
H116 C98 0.952 . S
H117 C106 0.948 1_455 S
O118 Zn103 2.034 . S
O118 C113 1.246 1_545 S
O119 Zn111 2.024 1_455 S
O119 C113 1.249 . S
H120 C102 0.948 1_655 S
O121 Zn111 2.039 . S
O121 C125 1.251 . S
O122 Zn103 2.025 1_655 S
O122 C125 1.254 1_545 S
O123 C104 1.246 1_565 S
O123 Zn111 2.034 . S
O124 Zn103 2.024 1_655 S
O124 C104 1.249 . S
C125 O121 1.251 . S
C125 O122 1.254 1_565 S
H126 C99 0.949 . S
H127 C101 0.950 . S
H128 C108 0.949 . S
H129 C110 0.950 . S
C130 O146 1.251 1_565 S
C130 O148 1.254 1_556 S
N131 C132 1.333 . S
N131 C136 1.307 . S
N131 Zn137 2.024 . S
C132 N131 1.333 . S
C132 C133 1.379 . S
C132 H150 0.952 . S
C133 C132 1.379 . S
C133 C134 1.390 . S
C133 H160 0.949 . S
C134 C133 1.390 . S
C134 C135 1.357 . S
C135 C134 1.357 . S
C135 C136 1.370 . S
C135 H161 0.950 . S
C136 N131 1.307 . S
C136 C135 1.370 . S
C136 H154 0.948 . S
Zn137 N131 2.024 . S
Zn137 O146 2.042 . S
Zn137 O152 2.018 1_556 S
Zn137 O156 2.020 1_556 S
Zn137 O158 2.038 . S
C138 O157 1.237 1_545 S
C138 O158 1.261 . S
N139 C140 1.307 . S
N139 C141 1.333 . S
N139 Zn145 2.020 . S
C140 N139 1.307 . S
C140 C144 1.370 . S
C140 H151 0.948 . S
C141 N139 1.333 . S
C141 C142 1.379 . S
C141 H149 0.952 . S
C142 C141 1.379 . S
C142 C143 1.390 . S
C142 H162 0.949 . S
C143 C142 1.390 . S
C143 C144 1.357 . S
C144 C140 1.370 . S
C144 C143 1.357 . S
C144 H163 0.950 . S
Zn145 N139 2.020 . S
Zn145 O148 2.025 . S
Zn145 O153 2.024 1_565 S
Zn145 O155 2.039 1_565 S
Zn145 O157 2.034 1_554 S
O146 C130 1.251 1_545 S
O146 Zn137 2.042 . S
C147 O152 1.246 . S
C147 O153 1.249 . S
O148 C130 1.254 1_554 S
O148 Zn145 2.025 . S
H149 C141 0.952 . S
H150 C132 0.952 . S
H151 C140 0.948 . S
O152 Zn137 2.018 1_554 S
O152 C147 1.246 . S
O153 Zn145 2.024 1_545 S
O153 C147 1.249 . S
H154 C136 0.948 . S
O155 Zn145 2.039 1_545 S
O155 C159 1.251 . S
O156 Zn137 2.020 1_554 S
O156 C159 1.254 . S
O157 C138 1.237 1_565 S
O157 Zn145 2.034 1_556 S
O158 Zn137 2.038 . S
O158 C138 1.261 . S
C159 O155 1.251 . S
C159 O156 1.254 . S
H160 C133 0.949 . S
H161 C135 0.950 . S
H162 C142 0.949 . S
H163 C144 0.950 . S
C164 O180 1.251 . S
C164 O182 1.254 . S
N165 C166 1.333 . S
N165 C170 1.307 . S
N165 Zn171 2.020 . S
C166 N165 1.333 . S
C166 C167 1.379 . S
C166 H184 0.952 . S
C167 C166 1.379 . S
C167 C168 1.390 . S
C167 H194 0.949 . S
C168 C167 1.390 . S
C168 C169 1.357 . S
C169 C168 1.357 . S
C169 C170 1.370 . S
C169 H195 0.950 . S
C170 N165 1.307 . S
C170 C169 1.370 . S
C170 H188 0.948 . S
Zn171 N165 2.020 . S
Zn171 O180 2.039 . S
Zn171 O186 2.034 . S
Zn171 O190 2.025 . S
Zn171 O192 2.024 . S
C172 O191 1.246 . S
C172 O192 1.249 . S
N173 C174 1.307 . S
N173 C175 1.333 . S
N173 Zn179 2.020 . S
C174 N173 1.307 . S
C174 C178 1.370 . S
C174 H185 0.948 . S
C175 N173 1.333 . S
C175 C176 1.379 . S
C175 H183 0.952 . S
C176 C175 1.379 . S
C176 C177 1.390 . S
C176 H196 0.949 . S
C177 C176 1.390 . S
C177 C178 1.357 . S
C178 C174 1.370 . S
C178 C177 1.357 . S
C178 H197 0.950 . S
Zn179 N173 2.020 . S
Zn179 O182 2.025 . S
Zn179 O187 2.024 . S
Zn179 O189 2.039 . S
Zn179 O191 2.034 . S
O180 C164 1.251 . S
O180 Zn171 2.039 . S
C181 O186 1.246 . S
C181 O187 1.249 . S
O182 C164 1.254 . S
O182 Zn179 2.025 . S
H183 C175 0.952 . S
H184 C166 0.952 . S
H185 C174 0.948 . S
O186 Zn171 2.034 . S
O186 C181 1.246 . S
O187 Zn179 2.024 . S
O187 C181 1.249 . S
H188 C170 0.948 . S
O189 Zn179 2.039 . S
O189 C193 1.251 . S
O190 Zn171 2.025 . S
O190 C193 1.254 . S
O191 C172 1.246 . S
O191 Zn179 2.034 . S
O192 Zn171 2.024 . S
O192 C172 1.249 . S
C193 O189 1.251 . S
C193 O190 1.254 . S
H194 C167 0.949 . S
H195 C169 0.950 . S
H196 C176 0.949 . S
H197 C178 0.950 . S
C198 O214 1.253 1_556 S
C198 O216 1.246 1_655 S
N199 C200 1.333 . S
N199 C204 1.307 . S
N199 Zn205 2.020 . S
C200 N199 1.333 . S
C200 C201 1.379 . S
C200 H218 0.952 . S
C201 C200 1.379 . S
C201 C202 1.390 . S
C201 H228 0.949 . S
C202 C201 1.390 . S
C202 C203 1.357 . S
C203 C202 1.357 . S
C203 C204 1.370 . S
C203 H229 0.950 . S
C204 N199 1.307 . S
C204 C203 1.370 . S
C204 H222 0.948 . S
Zn205 N199 2.020 . S
Zn205 O214 2.039 . S
Zn205 O220 2.034 1_655 S
Zn205 O224 2.025 1_655 S
Zn205 O226 2.024 . S
C206 O225 1.246 . S
C206 O226 1.249 1_556 S
N207 C208 1.307 . S
N207 C209 1.333 . S
N207 Zn213 2.020 . S
C208 N207 1.307 . S
C208 C212 1.370 . S
C208 H219 0.948 . S
C209 N207 1.333 . S
C209 C210 1.379 . S
C209 H217 0.952 . S
C210 C209 1.379 . S
C210 C211 1.390 . S
C210 H230 0.949 . S
C211 C210 1.390 . S
C211 C212 1.357 . S
C212 C208 1.370 . S
C212 C211 1.357 . S
C212 H231 0.950 . S
Zn213 N207 2.020 . S
Zn213 O216 2.025 . S
Zn213 O221 2.024 . S
Zn213 O223 2.039 . S
Zn213 O225 2.034 1_455 S
O214 C198 1.253 1_554 S
O214 Zn205 2.039 . S
C215 O220 1.246 . S
C215 O221 1.249 1_554 S
O216 C198 1.246 1_455 S
O216 Zn213 2.025 . S
H217 C209 0.952 . S
H218 C200 0.952 . S
H219 C208 0.948 . S
O220 Zn205 2.034 1_455 S
O220 C215 1.246 . S
O221 Zn213 2.024 . S
O221 C215 1.249 1_556 S
H222 C204 0.948 . S
O223 Zn213 2.039 . S
O223 C227 1.251 1_556 S
O224 Zn205 2.025 1_455 S
O224 C227 1.254 . S
O225 C206 1.246 . S
O225 Zn213 2.034 1_655 S
O226 Zn205 2.024 . S
O226 C206 1.249 1_554 S
C227 O223 1.251 1_554 S
C227 O224 1.254 . S
H228 C201 0.949 . S
H229 C203 0.950 . S
H230 C210 0.949 . S
H231 C212 0.950 . S
H232 C250 0.951 . S
H233 C252 0.951 . S
H234 C254 0.950 . S
H235 C255 0.950 . S
H236 C257 0.950 . S
H237 C260 0.950 . S
H238 C261 0.950 . S
H239 C263 0.950 . S
H240 C264 0.950 . S
H241 C265 0.948 1_565 S
H242 C267 0.951 . S
H243 C269 0.950 . S
H244 C270 0.950 . S
H245 C272 0.950 . S
H246 C275 0.950 1_455 S
H247 C276 0.950 . S
H248 C278 0.950 . S
H249 C279 0.950 1_455 S
C250 H232 0.951 . S
C250 C251 1.366 . S
C250 C252 1.388 . S
C251 C250 1.366 . S
C251 C255 1.385 . S
C252 H233 0.951 . S
C252 C250 1.388 . S
C252 C253 1.366 . S
C253 C252 1.366 . S
C253 C254 1.414 . S
C253 C256 1.499 . S
C254 H234 0.950 . S
C254 C253 1.414 . S
C254 C255 1.374 . S
C255 H235 0.950 . S
C255 C251 1.385 . S
C255 C254 1.374 . S
C256 C253 1.499 . S
C256 C257 1.373 . S
C256 C258 1.389 . S
C257 H236 0.950 . S
C257 C256 1.373 . S
C257 C273 1.377 . S
C258 C256 1.389 . S
C258 C259 1.524 . S
C258 C272 1.377 . S
C259 C258 1.524 . S
C259 C260 1.397 . S
C259 C264 1.363 . S
C260 H237 0.950 . S
C260 C259 1.397 . S
C260 C261 1.334 . S
C261 H238 0.950 . S
C261 C260 1.334 . S
C261 C262 1.287 . S
C262 C261 1.287 . S
C262 C263 1.524 . S
C262 H281 0.913 . S
C263 H239 0.950 . S
C263 C262 1.524 . S
C263 C264 1.415 . S
C264 H240 0.950 . S
C264 C259 1.363 . S
C264 C263 1.415 . S
C265 H241 0.948 1_545 S
C265 C266 1.366 . S
C265 C267 1.388 . S
C266 C265 1.366 . S
C266 C270 1.385 . S
C267 H242 0.951 . S
C267 C265 1.388 . S
C267 C268 1.366 . S
C268 C267 1.366 . S
C268 C269 1.414 . S
C268 C271 1.499 . S
C269 H243 0.950 . S
C269 C268 1.414 . S
C269 C270 1.374 . S
C270 H244 0.950 . S
C270 C266 1.385 . S
C270 C269 1.374 . S
C271 C268 1.499 . S
C271 C272 1.373 . S
C271 C273 1.389 . S
C272 H245 0.950 . S
C272 C258 1.377 . S
C272 C271 1.373 . S
C273 C257 1.377 . S
C273 C271 1.389 . S
C273 C274 1.524 . S
C274 C273 1.524 . S
C274 C275 1.397 1_455 S
C274 C279 1.363 1_455 S
C275 H246 0.950 1_655 S
C275 C274 1.397 1_655 S
C275 C276 1.334 . S
C276 H247 0.950 . S
C276 C275 1.334 . S
C276 C277 1.287 . S
C277 C276 1.287 . S
C277 C278 1.524 . S
C277 H280 0.999 . S
C278 H248 0.950 . S
C278 C277 1.524 . S
C278 C279 1.415 . S
C279 H249 0.950 1_655 S
C279 C274 1.363 1_655 S
C279 C278 1.415 . S
H280 C277 0.999 . S
H281 C262 0.913 . S
H282 C300 0.951 . S
H283 C302 0.951 . S
H284 C304 0.950 . S
H285 C305 0.950 . S
H286 C307 0.950 . S
H287 C310 0.950 . S
H288 C311 0.950 . S
H289 C313 0.950 . S
H290 C314 0.950 . S
H291 C315 0.950 1_545 S
H292 C317 0.951 1_545 S
H293 C319 0.950 . S
H294 C320 0.950 . S
H295 C322 0.950 . S
H296 C325 0.950 . S
H297 C326 0.950 . S
H298 C328 0.950 1_545 S
H299 C329 0.950 . S
C300 H282 0.951 . S
C300 C301 1.366 . S
C300 C302 1.388 . S
C301 C300 1.366 . S
C301 C305 1.385 . S
C302 H283 0.951 . S
C302 C300 1.388 . S
C302 C303 1.366 . S
C303 C302 1.366 . S
C303 C304 1.414 . S
C303 C306 1.499 . S
C304 H284 0.950 . S
C304 C303 1.414 . S
C304 C305 1.374 . S
C305 H285 0.950 . S
C305 C301 1.385 . S
C305 C304 1.374 . S
C306 C303 1.499 . S
C306 C307 1.373 . S
C306 C308 1.389 . S
C307 H286 0.950 . S
C307 C306 1.373 . S
C307 C323 1.377 . S
C308 C306 1.389 . S
C308 C309 1.524 . S
C308 C322 1.377 . S
C309 C308 1.524 . S
C309 C310 1.397 . S
C309 C314 1.363 . S
C310 H287 0.950 . S
C310 C309 1.397 . S
C310 C311 1.334 . S
C311 H288 0.950 . S
C311 C310 1.334 . S
C311 C312 1.287 . S
C312 C311 1.287 . S
C312 C313 1.524 . S
C312 H331 0.913 . S
C313 H289 0.950 . S
C313 C312 1.524 . S
C313 C314 1.415 . S
C314 H290 0.950 . S
C314 C309 1.363 . S
C314 C313 1.415 . S
C315 H291 0.950 1_565 S
C315 C316 1.366 . S
C315 C317 1.388 . S
C316 C315 1.366 . S
C316 C320 1.385 . S
C317 H292 0.951 1_565 S
C317 C315 1.388 . S
C317 C318 1.366 . S
C318 C317 1.366 . S
C318 C319 1.414 . S
C318 C321 1.499 . S
C319 H293 0.950 . S
C319 C318 1.414 . S
C319 C320 1.374 . S
C320 H294 0.950 . S
C320 C316 1.385 . S
C320 C319 1.374 . S
C321 C318 1.499 . S
C321 C322 1.373 . S
C321 C323 1.389 . S
C322 H295 0.950 . S
C322 C308 1.377 . S
C322 C321 1.373 . S
C323 C307 1.377 . S
C323 C321 1.389 . S
C323 C324 1.524 . S
C324 C323 1.524 . S
C324 C325 1.397 . S
C324 C329 1.363 . S
C325 H296 0.950 . S
C325 C324 1.397 . S
C325 C326 1.334 . S
C326 H297 0.950 . S
C326 C325 1.334 . S
C326 C327 1.287 . S
C327 C326 1.287 . S
C327 C328 1.524 . S
C327 H330 0.999 . S
C328 H298 0.950 1_565 S
C328 C327 1.524 . S
C328 C329 1.415 . S
C329 H299 0.950 . S
C329 C324 1.363 . S
C329 C328 1.415 . S
H330 C327 0.999 . S
H331 C312 0.913 . S
H332 C350 0.951 . S
H333 C352 0.951 . S
H334 C354 0.950 . S
H335 C355 0.950 . S
H336 C357 0.950 . S
H337 C360 0.950 . S
H338 C361 0.950 . S
H339 C363 0.950 . S
H340 C364 0.950 . S
H341 C365 0.951 . S
H342 C367 0.951 . S
H343 C369 0.950 . S
H344 C370 0.950 . S
H345 C372 0.950 . S
H346 C375 0.950 . S
H347 C376 0.950 . S
H348 C378 0.950 . S
H349 C379 0.950 . S
C350 H332 0.951 . S
C350 C351 1.366 . S
C350 C352 1.388 . S
C351 C350 1.366 . S
C351 C355 1.385 . S
C352 H333 0.951 . S
C352 C350 1.388 . S
C352 C353 1.366 . S
C353 C352 1.366 . S
C353 C354 1.414 . S
C353 C356 1.499 . S
C354 H334 0.950 . S
C354 C353 1.414 . S
C354 C355 1.374 . S
C355 H335 0.950 . S
C355 C351 1.385 . S
C355 C354 1.374 . S
C356 C353 1.499 . S
C356 C357 1.373 . S
C356 C358 1.389 . S
C357 H336 0.950 . S
C357 C356 1.373 . S
C357 C373 1.377 . S
C358 C356 1.389 . S
C358 C359 1.524 . S
C358 C372 1.377 . S
C359 C358 1.524 . S
C359 C360 1.397 . S
C359 C364 1.363 . S
C360 H337 0.950 . S
C360 C359 1.397 . S
C360 C361 1.334 . S
C361 H338 0.950 . S
C361 C360 1.334 . S
C361 C362 1.287 . S
C362 C361 1.287 . S
C362 C363 1.524 . S
C362 H381 0.913 . S
C363 H339 0.950 . S
C363 C362 1.524 . S
C363 C364 1.415 . S
C364 H340 0.950 . S
C364 C359 1.363 . S
C364 C363 1.415 . S
C365 H341 0.951 . S
C365 C366 1.366 . S
C365 C367 1.388 . S
C366 C365 1.366 . S
C366 C370 1.385 . S
C367 H342 0.951 . S
C367 C365 1.388 . S
C367 C368 1.366 . S
C368 C367 1.366 . S
C368 C369 1.414 . S
C368 C371 1.499 . S
C369 H343 0.950 . S
C369 C368 1.414 . S
C369 C370 1.374 . S
C370 H344 0.950 . S
C370 C366 1.385 . S
C370 C369 1.374 . S
C371 C368 1.499 . S
C371 C372 1.373 . S
C371 C373 1.389 . S
C372 H345 0.950 . S
C372 C358 1.377 . S
C372 C371 1.373 . S
C373 C357 1.377 . S
C373 C371 1.389 . S
C373 C374 1.524 . S
C374 C373 1.524 . S
C374 C375 1.397 . S
C374 C379 1.363 . S
C375 H346 0.950 . S
C375 C374 1.397 . S
C375 C376 1.334 . S
C376 H347 0.950 . S
C376 C375 1.334 . S
C376 C377 1.287 . S
C377 C376 1.287 . S
C377 C378 1.524 . S
C377 H380 0.999 . S
C378 H348 0.950 . S
C378 C377 1.524 . S
C378 C379 1.415 . S
C379 H349 0.950 . S
C379 C374 1.363 . S
C379 C378 1.415 . S
H380 C377 0.999 . S
H381 C362 0.913 . S
H382 C400 0.951 . S
H383 C402 0.951 . S
H384 C404 0.950 . S
H385 C405 0.950 . S
H386 C407 0.950 . S
H387 C410 0.950 . S
H388 C411 0.950 . S
H389 C413 0.950 . S
H390 C414 0.950 . S
H391 C415 0.951 . S
H392 C417 0.951 . S
H393 C419 0.950 . S
H394 C420 0.950 . S
H395 C422 0.950 . S
H396 C425 0.950 . S
H397 C426 0.950 . S
H398 C428 0.950 . S
H399 C429 0.950 . S
C400 H382 0.951 . S
C400 C401 1.366 . S
C400 C402 1.388 . S
C401 C400 1.366 . S
C401 C405 1.385 . S
C402 H383 0.951 . S
C402 C400 1.388 . S
C402 C403 1.366 . S
C403 C402 1.366 . S
C403 C404 1.414 . S
C403 C406 1.499 . S
C404 H384 0.950 . S
C404 C403 1.414 . S
C404 C405 1.374 . S
C405 H385 0.950 . S
C405 C401 1.385 . S
C405 C404 1.374 . S
C406 C403 1.499 . S
C406 C407 1.373 . S
C406 C408 1.389 . S
C407 H386 0.950 . S
C407 C406 1.373 . S
C407 C423 1.377 . S
C408 C406 1.389 . S
C408 C409 1.524 . S
C408 C422 1.377 . S
C409 C408 1.524 . S
C409 C410 1.397 . S
C409 C414 1.363 . S
C410 H387 0.950 . S
C410 C409 1.397 . S
C410 C411 1.334 . S
C411 H388 0.950 . S
C411 C410 1.334 . S
C411 C412 1.287 . S
C412 C411 1.287 . S
C412 C413 1.524 . S
C412 H431 0.913 . S
C413 H389 0.950 . S
C413 C412 1.524 . S
C413 C414 1.415 . S
C414 H390 0.950 . S
C414 C409 1.363 . S
C414 C413 1.415 . S
C415 H391 0.951 . S
C415 C416 1.366 . S
C415 C417 1.388 . S
C416 C415 1.366 . S
C416 C420 1.385 . S
C417 H392 0.951 . S
C417 C415 1.388 . S
C417 C418 1.366 . S
C418 C417 1.366 . S
C418 C419 1.414 . S
C418 C421 1.499 . S
C419 H393 0.950 . S
C419 C418 1.414 . S
C419 C420 1.374 . S
C420 H394 0.950 . S
C420 C416 1.385 . S
C420 C419 1.374 . S
C421 C418 1.499 . S
C421 C422 1.373 . S
C421 C423 1.389 . S
C422 H395 0.950 . S
C422 C408 1.377 . S
C422 C421 1.373 . S
C423 C407 1.377 . S
C423 C421 1.389 . S
C423 C424 1.524 . S
C424 C423 1.524 . S
C424 C425 1.397 . S
C424 C429 1.363 . S
C425 H396 0.950 . S
C425 C424 1.397 . S
C425 C426 1.334 . S
C426 H397 0.950 . S
C426 C425 1.334 . S
C426 C427 1.287 . S
C427 C426 1.287 . S
C427 C428 1.524 . S
C427 H430 0.999 . S
C428 H398 0.950 . S
C428 C427 1.524 . S
C428 C429 1.415 . S
C429 H399 0.950 . S
C429 C424 1.363 . S
C429 C428 1.415 . S
H430 C427 0.999 . S
H431 C412 0.913 . S
H432 C450 0.951 . S
H433 C452 0.951 . S
H434 C454 0.950 . S
H435 C455 0.950 . S
H436 C457 0.950 . S
H437 C460 0.950 . S
H438 C461 0.950 . S
H439 C463 0.950 . S
H440 C464 0.950 . S
H441 C465 0.951 . S
H442 C467 0.951 . S
H443 C469 0.950 . S
H444 C470 0.950 . S
H445 C472 0.950 . S
H446 C475 0.950 . S
H447 C476 0.950 . S
H448 C478 0.950 . S
H449 C479 0.950 . S
C450 H432 0.951 . S
C450 C451 1.366 . S
C450 C452 1.388 . S
C451 C450 1.366 . S
C451 C455 1.385 . S
C452 H433 0.951 . S
C452 C450 1.388 . S
C452 C453 1.366 . S
C453 C452 1.366 . S
C453 C454 1.414 . S
C453 C456 1.499 . S
C454 H434 0.950 . S
C454 C453 1.414 . S
C454 C455 1.374 . S
C455 H435 0.950 . S
C455 C451 1.385 . S
C455 C454 1.374 . S
C456 C453 1.499 . S
C456 C457 1.373 . S
C456 C458 1.389 . S
C457 H436 0.950 . S
C457 C456 1.373 . S
C457 C473 1.377 . S
C458 C456 1.389 . S
C458 C459 1.524 . S
C458 C472 1.377 . S
C459 C458 1.524 . S
C459 C460 1.397 . S
C459 C464 1.363 . S
C460 H437 0.950 . S
C460 C459 1.397 . S
C460 C461 1.334 . S
C461 H438 0.950 . S
C461 C460 1.334 . S
C461 C462 1.287 . S
C462 C461 1.287 . S
C462 C463 1.524 . S
C462 H481 0.913 . S
C463 H439 0.950 . S
C463 C462 1.524 . S
C463 C464 1.415 . S
C464 H440 0.950 . S
C464 C459 1.363 . S
C464 C463 1.415 . S
C465 H441 0.951 . S
C465 C466 1.366 . S
C465 C467 1.388 . S
C466 C465 1.366 . S
C466 C470 1.385 . S
C467 H442 0.951 . S
C467 C465 1.388 . S
C467 C468 1.366 . S
C468 C467 1.366 . S
C468 C469 1.414 . S
C468 C471 1.499 . S
C469 H443 0.950 . S
C469 C468 1.414 . S
C469 C470 1.374 . S
C470 H444 0.950 . S
C470 C466 1.385 . S
C470 C469 1.374 . S
C471 C468 1.499 . S
C471 C472 1.373 . S
C471 C473 1.389 . S
C472 H445 0.950 . S
C472 C458 1.377 . S
C472 C471 1.373 . S
C473 C457 1.377 . S
C473 C471 1.389 . S
C473 C474 1.524 . S
C474 C473 1.524 . S
C474 C475 1.397 . S
C474 C479 1.363 . S
C475 H446 0.950 . S
C475 C474 1.397 . S
C475 C476 1.334 1_545 S
C476 H447 0.950 . S
C476 C475 1.334 1_565 S
C476 C477 1.287 1_564 S
C477 C476 1.287 1_546 S
C477 C478 1.524 . S
C477 H480 0.999 1_545 S
C478 H448 0.950 . S
C478 C477 1.524 . S
C478 C479 1.415 1_556 S
C479 H449 0.950 . S
C479 C474 1.363 . S
C479 C478 1.415 1_554 S
H480 C477 0.999 1_565 S
H481 C462 0.913 . S
H482 C500 0.951 . S
H483 C502 0.951 . S
H484 C504 0.950 . S
H485 C505 0.950 . S
H486 C507 0.950 . S
H487 C510 0.950 . S
H488 C511 0.950 . S
H489 C513 0.950 . S
H490 C514 0.950 . S
H491 C515 0.951 . S
H492 C517 0.951 . S
H493 C519 0.950 . S
H494 C520 0.950 . S
H495 C522 0.950 . S
H496 C525 0.950 . S
H497 C526 0.950 . S
H498 C528 0.950 . S
H499 C529 0.950 . S
C500 H482 0.951 . S
C500 C501 1.366 . S
C500 C502 1.388 . S
C501 C500 1.366 . S
C501 C505 1.385 . S
C502 H483 0.951 . S
C502 C500 1.388 . S
C502 C503 1.366 . S
C503 C502 1.366 . S
C503 C504 1.414 . S
C503 C506 1.499 . S
C504 H484 0.950 . S
C504 C503 1.414 . S
C504 C505 1.374 . S
C505 H485 0.950 . S
C505 C501 1.385 . S
C505 C504 1.374 . S
C506 C503 1.499 . S
C506 C507 1.373 . S
C506 C508 1.389 . S
C507 H486 0.950 . S
C507 C506 1.373 . S
C507 C523 1.377 . S
C508 C506 1.389 . S
C508 C509 1.524 . S
C508 C522 1.377 . S
C509 C508 1.524 . S
C509 C510 1.397 . S
C509 C514 1.363 . S
C510 H487 0.950 . S
C510 C509 1.397 . S
C510 C511 1.334 . S
C511 H488 0.950 . S
C511 C510 1.334 . S
C511 C512 1.287 . S
C512 C511 1.287 . S
C512 C513 1.524 . S
C512 H531 0.913 . S
C513 H489 0.950 . S
C513 C512 1.524 . S
C513 C514 1.415 . S
C514 H490 0.950 . S
C514 C509 1.363 . S
C514 C513 1.415 . S
C515 H491 0.951 . S
C515 C516 1.366 . S
C515 C517 1.388 . S
C516 C515 1.366 . S
C516 C520 1.385 . S
C517 H492 0.951 . S
C517 C515 1.388 . S
C517 C518 1.366 . S
C518 C517 1.366 . S
C518 C519 1.414 . S
C518 C521 1.499 . S
C519 H493 0.950 . S
C519 C518 1.414 . S
C519 C520 1.374 . S
C520 H494 0.950 . S
C520 C516 1.385 . S
C520 C519 1.374 . S
C521 C518 1.499 . S
C521 C522 1.373 . S
C521 C523 1.389 . S
C522 H495 0.950 . S
C522 C508 1.377 . S
C522 C521 1.373 . S
C523 C507 1.377 . S
C523 C521 1.389 . S
C523 C524 1.524 1_565 S
C524 C523 1.524 1_545 S
C524 C525 1.397 . S
C524 C529 1.363 . S
C525 H496 0.950 . S
C525 C524 1.397 . S
C525 C526 1.334 . S
C526 H497 0.950 . S
C526 C525 1.334 . S
C526 C527 1.287 . S
C527 C526 1.287 . S
C527 C528 1.524 . S
C527 H530 0.999 . S
C528 H498 0.950 . S
C528 C527 1.524 . S
C528 C529 1.415 . S
C529 H499 0.950 . S
C529 C524 1.363 . S
C529 C528 1.415 . S
H530 C527 0.999 . S
H531 C512 0.913 . S
H532 C550 0.951 . S
H533 C552 0.951 . S
H534 C554 0.950 . S
H535 C555 0.950 . S
H536 C557 0.950 . S
H537 C560 0.950 . S
H538 C561 0.950 . S
H539 C563 0.950 . S
H540 C564 0.950 . S
H541 C565 0.951 . S
H542 C567 0.951 . S
H543 C569 0.950 . S
H544 C570 0.950 . S
H545 C572 0.950 . S
H546 C575 0.950 . S
H547 C576 0.950 . S
H548 C578 0.950 . S
H549 C579 0.950 1_556 S
C550 H532 0.951 . S
C550 C551 1.366 . S
C550 C552 1.388 . S
C551 C550 1.366 . S
C551 C555 1.385 . S
C552 H533 0.951 . S
C552 C550 1.388 . S
C552 C553 1.366 . S
C553 C552 1.366 . S
C553 C554 1.414 . S
C553 C556 1.499 . S
C554 H534 0.950 . S
C554 C553 1.414 . S
C554 C555 1.374 . S
C555 H535 0.950 . S
C555 C551 1.385 . S
C555 C554 1.374 . S
C556 C553 1.499 . S
C556 C557 1.373 . S
C556 C558 1.389 . S
C557 H536 0.950 . S
C557 C556 1.373 . S
C557 C573 1.377 . S
C558 C556 1.389 . S
C558 C559 1.524 . S
C558 C572 1.377 . S
C559 C558 1.524 . S
C559 C560 1.397 . S
C559 C564 1.363 . S
C560 H537 0.950 . S
C560 C559 1.397 . S
C560 C561 1.334 . S
C561 H538 0.950 . S
C561 C560 1.334 . S
C561 C562 1.287 . S
C562 C561 1.287 . S
C562 C563 1.524 . S
C562 H581 0.913 . S
C563 H539 0.950 . S
C563 C562 1.524 . S
C563 C564 1.415 . S
C564 H540 0.950 . S
C564 C559 1.363 . S
C564 C563 1.415 . S
C565 H541 0.951 . S
C565 C566 1.366 . S
C565 C567 1.388 . S
C566 C565 1.366 . S
C566 C570 1.385 . S
C567 H542 0.951 . S
C567 C565 1.388 . S
C567 C568 1.366 . S
C568 C567 1.366 . S
C568 C569 1.414 . S
C568 C571 1.499 . S
C569 H543 0.950 . S
C569 C568 1.414 . S
C569 C570 1.374 . S
C570 H544 0.950 . S
C570 C566 1.385 . S
C570 C569 1.374 . S
C571 C568 1.499 . S
C571 C572 1.373 . S
C571 C573 1.389 . S
C572 H545 0.950 . S
C572 C558 1.377 . S
C572 C571 1.373 . S
C573 C557 1.377 . S
C573 C571 1.389 . S
C573 C574 1.524 1_556 S
C574 C573 1.524 1_554 S
C574 C575 1.397 . S
C574 C579 1.363 . S
C575 H546 0.950 . S
C575 C574 1.397 . S
C575 C576 1.334 . S
C576 H547 0.950 . S
C576 C575 1.334 . S
C576 C577 1.287 . S
C577 C576 1.287 . S
C577 C578 1.524 . S
C577 H580 0.999 . S
C578 H548 0.950 . S
C578 C577 1.524 . S
C578 C579 1.415 . S
C579 H549 0.950 1_554 S
C579 C574 1.363 . S
C579 C578 1.415 . S
H580 C577 0.999 . S
H581 C562 0.913 . S
H582 C600 0.951 . S
H583 C602 0.951 . S
H584 C604 0.950 . S
H585 C605 0.950 . S
H586 C607 0.950 . S
H587 C610 0.950 . S
H588 C611 0.950 . S
H589 C613 0.950 . S
H590 C614 0.950 . S
H591 C615 0.951 . S
H592 C617 0.951 . S
H593 C619 0.950 . S
H594 C620 0.950 . S
H595 C622 0.950 . S
H596 C625 0.950 . S
H597 C626 0.950 . S
H598 C628 0.950 . S
H599 C629 0.950 . S
C600 H582 0.951 . S
C600 C601 1.366 . S
C600 C602 1.388 . S
C601 C600 1.366 . S
C601 C605 1.385 . S
C602 H583 0.951 . S
C602 C600 1.388 . S
C602 C603 1.366 . S
C603 C602 1.366 . S
C603 C604 1.414 . S
C603 C606 1.499 . S
C604 H584 0.950 . S
C604 C603 1.414 . S
C604 C605 1.374 . S
C605 H585 0.950 . S
C605 C601 1.385 . S
C605 C604 1.374 . S
C606 C603 1.499 . S
C606 C607 1.373 . S
C606 C608 1.389 . S
C607 H586 0.950 . S
C607 C606 1.373 . S
C607 C623 1.377 . S
C608 C606 1.389 . S
C608 C609 1.524 . S
C608 C622 1.377 . S
C609 C608 1.524 . S
C609 C610 1.397 . S
C609 C614 1.363 . S
C610 H587 0.950 . S
C610 C609 1.397 . S
C610 C611 1.334 . S
C611 H588 0.950 . S
C611 C610 1.334 . S
C611 C612 1.287 . S
C612 C611 1.287 . S
C612 C613 1.524 . S
C612 H631 0.913 . S
C613 H589 0.950 . S
C613 C612 1.524 . S
C613 C614 1.415 . S
C614 H590 0.950 . S
C614 C609 1.363 . S
C614 C613 1.415 . S
C615 H591 0.951 . S
C615 C616 1.366 . S
C615 C617 1.388 . S
C616 C615 1.366 . S
C616 C620 1.385 . S
C617 H592 0.951 . S
C617 C615 1.388 . S
C617 C618 1.366 . S
C618 C617 1.366 . S
C618 C619 1.414 . S
C618 C621 1.499 . S
C619 H593 0.950 . S
C619 C618 1.414 . S
C619 C620 1.374 . S
C620 H594 0.950 . S
C620 C616 1.385 . S
C620 C619 1.374 . S
C621 C618 1.499 . S
C621 C622 1.373 . S
C621 C623 1.389 . S
C622 H595 0.950 . S
C622 C608 1.377 . S
C622 C621 1.373 . S
C623 C607 1.377 . S
C623 C621 1.389 . S
C623 C624 1.524 . S
C624 C623 1.524 . S
C624 C625 1.397 . S
C624 C629 1.363 . S
C625 H596 0.950 . S
C625 C624 1.397 . S
C625 C626 1.334 . S
C626 H597 0.950 . S
C626 C625 1.334 . S
C626 C627 1.287 . S
C627 C626 1.287 . S
C627 C628 1.524 . S
C627 H630 0.999 . S
C628 H598 0.950 . S
C628 C627 1.524 . S
C628 C629 1.415 . S
C629 H599 0.950 . S
C629 C624 1.363 . S
C629 C628 1.415 . S
H630 C627 0.999 . S
H631 C612 0.913 . S
H632 C650 0.951 . S
H633 C652 0.951 . S
H634 C654 0.950 . S
H635 C655 0.950 . S
H636 C657 0.950 . S
H637 C660 0.950 . S
H638 C661 0.950 . S
H639 C663 0.950 . S
H640 C664 0.956 . S
H641 C665 0.951 1_556 S
H642 C667 0.951 . S
H643 C669 0.950 . S
H644 C670 0.950 . S
H645 C672 0.950 . S
H646 C675 0.950 . S
H647 C676 0.950 . S
H648 C678 0.981 . S
H649 C679 0.950 . S
C650 H632 0.951 . S
C650 C651 1.366 . S
C650 C652 1.388 . S
C651 C650 1.366 . S
C651 C655 1.385 . S
C652 H633 0.951 . S
C652 C650 1.388 . S
C652 C653 1.366 . S
C653 C652 1.366 . S
C653 C654 1.414 . S
C653 C656 1.499 . S
C654 H634 0.950 . S
C654 C653 1.414 . S
C654 C655 1.374 . S
C655 H635 0.950 . S
C655 C651 1.385 . S
C655 C654 1.374 . S
C656 C653 1.499 . S
C656 C657 1.373 . S
C656 C658 1.389 . S
C657 H636 0.950 . S
C657 C656 1.373 . S
C657 C673 1.377 . S
C658 C656 1.389 . S
C658 C659 1.524 . S
C658 C672 1.377 . S
C659 C658 1.524 . S
C659 C660 1.397 . S
C659 C664 1.363 1_455 S
C660 H637 0.950 . S
C660 C659 1.397 . S
C660 C661 1.334 1_455 S
C661 H638 0.950 . S
C661 C660 1.334 1_655 S
C661 C662 1.287 . S
C662 C661 1.287 . S
C662 C663 1.524 . S
C662 H681 0.913 . S
C663 H639 0.950 . S
C663 C662 1.524 . S
C663 C664 1.415 . S
C664 H640 0.956 . S
C664 C659 1.363 1_655 S
C664 C663 1.415 . S
C665 H641 0.951 1_554 S
C665 C666 1.366 . S
C665 C667 1.388 . S
C666 C665 1.366 . S
C666 C670 1.385 . S
C667 H642 0.951 . S
C667 C665 1.388 . S
C667 C668 1.366 . S
C668 C667 1.366 . S
C668 C669 1.414 . S
C668 C671 1.499 . S
C669 H643 0.950 . S
C669 C668 1.414 . S
C669 C670 1.374 . S
C670 H644 0.950 . S
C670 C666 1.385 . S
C670 C669 1.374 . S
C671 C668 1.499 . S
C671 C672 1.373 . S
C671 C673 1.389 . S
C672 H645 0.950 . S
C672 C658 1.377 . S
C672 C671 1.373 . S
C673 C657 1.377 . S
C673 C671 1.389 . S
C673 C674 1.524 . S
C674 C673 1.524 . S
C674 C675 1.397 . S
C674 C679 1.363 . S
C675 H646 0.950 . S
C675 C674 1.397 . S
C675 C676 1.334 . S
C676 H647 0.950 . S
C676 C675 1.334 . S
C676 C677 1.287 . S
C677 C676 1.287 . S
C677 C678 1.524 . S
C677 H680 0.999 . S
C678 H648 0.981 . S
C678 C677 1.524 . S
C678 C679 1.415 . S
C679 H649 0.950 . S
C679 C674 1.363 . S
C679 C678 1.415 . S
H680 C677 0.999 . S
H681 C662 0.913 . S
H682 C700 0.951 . S
H683 C702 0.951 . S
H684 C704 0.950 . S
H685 C705 0.950 . S
H686 C707 0.950 . S
H687 C710 0.950 . S
H688 C711 0.950 . S
H689 C713 0.950 . S
H690 C714 0.950 . S
H691 C715 0.951 1_554 S
H692 C717 0.951 . S
H693 C719 0.950 . S
H694 C720 0.950 . S
H695 C722 0.950 . S
H696 C725 0.950 . S
H697 C726 0.950 . S
H698 C728 0.950 . S
H699 C729 0.957 . S
C700 H682 0.951 . S
C700 C701 1.366 . S
C700 C702 1.388 . S
C701 C700 1.366 . S
C701 C705 1.385 . S
C702 H683 0.951 . S
C702 C700 1.388 . S
C702 C703 1.366 . S
C703 C702 1.366 . S
C703 C704 1.414 . S
C703 C706 1.499 . S
C704 H684 0.950 . S
C704 C703 1.414 . S
C704 C705 1.374 . S
C705 H685 0.950 . S
C705 C701 1.385 . S
C705 C704 1.374 . S
C706 C703 1.499 . S
C706 C707 1.373 . S
C706 C708 1.389 . S
C707 H686 0.950 . S
C707 C706 1.373 . S
C707 C723 1.377 . S
C708 C706 1.389 . S
C708 C709 1.524 . S
C708 C722 1.377 . S
C709 C708 1.524 . S
C709 C710 1.397 . S
C709 C714 1.363 . S
C710 H687 0.950 . S
C710 C709 1.397 . S
C710 C711 1.334 . S
C711 H688 0.950 . S
C711 C710 1.334 . S
C711 C712 1.287 . S
C712 C711 1.287 . S
C712 C713 1.524 . S
C712 H731 0.913 . S
C713 H689 0.950 . S
C713 C712 1.524 . S
C713 C714 1.415 . S
C714 H690 0.950 . S
C714 C709 1.363 . S
C714 C713 1.415 . S
C715 H691 0.951 1_556 S
C715 C716 1.366 . S
C715 C717 1.388 . S
C716 C715 1.366 . S
C716 C720 1.385 . S
C717 H692 0.951 . S
C717 C715 1.388 . S
C717 C718 1.366 . S
C718 C717 1.366 . S
C718 C719 1.414 . S
C718 C721 1.499 . S
C719 H693 0.950 . S
C719 C718 1.414 . S
C719 C720 1.374 . S
C720 H694 0.950 . S
C720 C716 1.385 . S
C720 C719 1.374 . S
C721 C718 1.499 . S
C721 C722 1.373 . S
C721 C723 1.389 . S
C722 H695 0.950 . S
C722 C708 1.377 . S
C722 C721 1.373 . S
C723 C707 1.377 . S
C723 C721 1.389 . S
C723 C724 1.524 . S
C724 C723 1.524 . S
C724 C725 1.397 . S
C724 C729 1.363 . S
C725 H696 0.950 . S
C725 C724 1.397 . S
C725 C726 1.334 . S
C726 H697 0.950 . S
C726 C725 1.334 . S
C726 C727 1.287 . S
C727 C726 1.287 . S
C727 C728 1.524 1_556 S
C727 H730 0.999 . S
C728 H698 0.950 . S
C728 C727 1.524 1_554 S
C728 C729 1.415 1_554 S
C729 H699 0.957 . S
C729 C724 1.363 . S
C729 C728 1.415 1_556 S
H730 C727 0.999 . S
H731 C712 0.913 . S
H732 C750 0.951 . S
H733 C752 0.951 . S
H734 C754 0.950 . S
H735 C755 0.950 . S
H736 C757 0.950 . S
H737 C760 0.950 . S
H738 C761 0.950 . S
H739 C763 0.950 . S
H740 C764 0.950 . S
H741 C765 0.951 . S
H742 C767 0.951 . S
H743 C769 0.950 . S
H744 C770 0.950 . S
H745 C772 0.950 . S
H746 C775 0.950 . S
H747 C776 0.950 . S
H748 C778 0.950 . S
H749 C779 0.950 . S
C750 H732 0.951 . S
C750 C751 1.366 . S
C750 C752 1.388 . S
C751 C750 1.366 . S
C751 C755 1.385 . S
C752 H733 0.951 . S
C752 C750 1.388 . S
C752 C753 1.366 . S
C753 C752 1.366 . S
C753 C754 1.414 . S
C753 C756 1.499 . S
C754 H734 0.950 . S
C754 C753 1.414 . S
C754 C755 1.374 . S
C755 H735 0.950 . S
C755 C751 1.385 . S
C755 C754 1.374 . S
C756 C753 1.499 . S
C756 C757 1.373 . S
C756 C758 1.389 . S
C757 H736 0.950 . S
C757 C756 1.373 . S
C757 C773 1.377 . S
C758 C756 1.389 . S
C758 C759 1.524 . S
C758 C772 1.377 . S
C759 C758 1.524 . S
C759 C760 1.397 . S
C759 C764 1.363 . S
C760 H737 0.950 . S
C760 C759 1.397 . S
C760 C761 1.334 . S
C761 H738 0.950 . S
C761 C760 1.334 . S
C761 C762 1.287 . S
C762 C761 1.287 . S
C762 C763 1.524 . S
C762 H781 0.913 1_655 S
C763 H739 0.950 . S
C763 C762 1.524 . S
C763 C764 1.415 . S
C764 H740 0.950 . S
C764 C759 1.363 . S
C764 C763 1.415 . S
C765 H741 0.951 . S
C765 C766 1.366 . S
C765 C767 1.388 . S
C766 C765 1.366 . S
C766 C770 1.385 . S
C767 H742 0.951 . S
C767 C765 1.388 . S
C767 C768 1.366 . S
C768 C767 1.366 . S
C768 C769 1.414 . S
C768 C771 1.499 . S
C769 H743 0.950 . S
C769 C768 1.414 . S
C769 C770 1.374 . S
C770 H744 0.950 . S
C770 C766 1.385 . S
C770 C769 1.374 . S
C771 C768 1.499 . S
C771 C772 1.373 . S
C771 C773 1.389 . S
C772 H745 0.950 . S
C772 C758 1.377 . S
C772 C771 1.373 . S
C773 C757 1.377 . S
C773 C771 1.389 . S
C773 C774 1.524 . S
C774 C773 1.524 . S
C774 C775 1.397 . S
C774 C779 1.363 . S
C775 H746 0.950 . S
C775 C774 1.397 . S
C775 C776 1.334 . S
C776 H747 0.950 . S
C776 C775 1.334 . S
C776 C777 1.287 . S
C777 C776 1.287 . S
C777 C778 1.524 . S
C777 H780 0.999 . S
C778 H748 0.950 . S
C778 C777 1.524 . S
C778 C779 1.415 . S
C779 H749 0.950 . S
C779 C774 1.363 . S
C779 C778 1.415 . S
H780 C777 0.999 . S
H781 C762 0.913 1_455 S
H782 C800 0.951 . S
H783 C802 0.951 . S
H784 C804 0.950 . S
H785 C805 0.950 . S
H786 C807 0.950 . S
H787 C810 0.950 . S
H788 C811 0.950 . S
H789 C813 0.950 . S
H790 C814 0.950 . S
H791 C815 0.951 . S
H792 C817 0.951 . S
H793 C819 0.950 . S
H794 C820 0.950 . S
H795 C822 0.950 . S
H796 C825 0.950 . S
H797 C826 0.950 . S
H798 C828 0.950 . S
H799 C829 0.950 . S
C800 H782 0.951 . S
C800 C801 1.366 . S
C800 C802 1.388 . S
C801 C800 1.366 . S
C801 C805 1.385 . S
C802 H783 0.951 . S
C802 C800 1.388 . S
C802 C803 1.366 . S
C803 C802 1.366 . S
C803 C804 1.414 . S
C803 C806 1.499 . S
C804 H784 0.950 . S
C804 C803 1.414 . S
C804 C805 1.374 . S
C805 H785 0.950 . S
C805 C801 1.385 . S
C805 C804 1.374 . S
C806 C803 1.499 . S
C806 C807 1.373 . S
C806 C808 1.389 . S
C807 H786 0.950 . S
C807 C806 1.373 . S
C807 C823 1.377 . S
C808 C806 1.389 . S
C808 C809 1.524 . S
C808 C822 1.377 . S
C809 C808 1.524 . S
C809 C810 1.397 . S
C809 C814 1.363 . S
C810 H787 0.950 . S
C810 C809 1.397 . S
C810 C811 1.334 . S
C811 H788 0.950 . S
C811 C810 1.334 . S
C811 C812 1.287 . S
C812 C811 1.287 . S
C812 C813 1.524 . S
C812 H831 0.913 . S
C813 H789 0.950 . S
C813 C812 1.524 . S
C813 C814 1.415 . S
C814 H790 0.950 . S
C814 C809 1.363 . S
C814 C813 1.415 . S
C815 H791 0.951 . S
C815 C816 1.366 . S
C815 C817 1.388 . S
C816 C815 1.366 . S
C816 C820 1.385 . S
C817 H792 0.951 . S
C817 C815 1.388 . S
C817 C818 1.366 . S
C818 C817 1.366 . S
C818 C819 1.414 . S
C818 C821 1.499 . S
C819 H793 0.950 . S
C819 C818 1.414 . S
C819 C820 1.374 . S
C820 H794 0.950 . S
C820 C816 1.385 . S
C820 C819 1.374 . S
C821 C818 1.499 . S
C821 C822 1.373 . S
C821 C823 1.389 . S
C822 H795 0.950 . S
C822 C808 1.377 . S
C822 C821 1.373 . S
C823 C807 1.377 . S
C823 C821 1.389 . S
C823 C824 1.524 . S
C824 C823 1.524 . S
C824 C825 1.397 . S
C824 C829 1.363 . S
C825 H796 0.950 . S
C825 C824 1.397 . S
C825 C826 1.334 . S
C826 H797 0.950 . S
C826 C825 1.334 . S
C826 C827 1.287 . S
C827 C826 1.287 . S
C827 C828 1.524 . S
C827 H830 0.999 . S
C828 H798 0.950 . S
C828 C827 1.524 . S
C828 C829 1.415 . S
C829 H799 0.950 . S
C829 C824 1.363 . S
C829 C828 1.415 . S
H830 C827 0.999 . S
H831 C812 0.913 . S
H832 C850 0.951 . S
H833 C852 0.951 . S
H834 C854 0.950 . S
H835 C855 0.950 . S
H836 C857 0.950 . S
H837 C860 0.950 . S
H838 C861 0.950 . S
H839 C863 0.950 . S
H840 C864 0.950 . S
H841 C865 0.956 . S
H842 C867 0.951 . S
H843 C869 0.950 . S
H844 C870 0.950 1_545 S
H845 C872 0.950 . S
H846 C875 0.950 1_645 S
H847 C876 0.950 . S
H848 C878 0.950 . S
H849 C879 0.950 . S
C850 H832 0.951 . S
C850 C851 1.366 . S
C850 C852 1.388 . S
C851 C850 1.366 . S
C851 C855 1.385 . S
C852 H833 0.951 . S
C852 C850 1.388 . S
C852 C853 1.366 . S
C853 C852 1.366 . S
C853 C854 1.414 . S
C853 C856 1.499 . S
C854 H834 0.950 . S
C854 C853 1.414 . S
C854 C855 1.374 . S
C855 H835 0.950 . S
C855 C851 1.385 . S
C855 C854 1.374 . S
C856 C853 1.499 . S
C856 C857 1.373 . S
C856 C858 1.389 . S
C857 H836 0.950 . S
C857 C856 1.373 . S
C857 C873 1.377 . S
C858 C856 1.389 . S
C858 C859 1.524 . S
C858 C872 1.377 . S
C859 C858 1.524 . S
C859 C860 1.397 . S
C859 C864 1.363 . S
C860 H837 0.950 . S
C860 C859 1.397 . S
C860 C861 1.334 . S
C861 H838 0.950 . S
C861 C860 1.334 . S
C861 C862 1.287 . S
C862 C861 1.287 . S
C862 C863 1.524 . S
C862 H881 0.913 . S
C863 H839 0.950 . S
C863 C862 1.524 . S
C863 C864 1.415 . S
C864 H840 0.950 . S
C864 C859 1.363 . S
C864 C863 1.415 . S
C865 H841 0.956 . S
C865 C866 1.366 . S
C865 C867 1.388 . S
C866 C865 1.366 . S
C866 C870 1.385 . S
C867 H842 0.951 . S
C867 C865 1.388 . S
C867 C868 1.366 . S
C868 C867 1.366 . S
C868 C869 1.414 . S
C868 C871 1.499 . S
C869 H843 0.950 . S
C869 C868 1.414 . S
C869 C870 1.374 . S
C870 H844 0.950 1_565 S
C870 C866 1.385 . S
C870 C869 1.374 . S
C871 C868 1.499 . S
C871 C872 1.373 . S
C871 C873 1.389 . S
C872 H845 0.950 . S
C872 C858 1.377 . S
C872 C871 1.373 . S
C873 C857 1.377 . S
C873 C871 1.389 . S
C873 C874 1.491 1_655 S
C874 C873 1.491 1_455 S
C874 C875 1.401 . S
C874 C879 1.391 . S
C875 H846 0.950 1_465 S
C875 C874 1.401 . S
C875 C876 1.334 1_565 S
C876 H847 0.950 . S
C876 C875 1.334 1_545 S
C876 C877 1.287 1_545 S
C877 C876 1.287 1_565 S
C877 C878 1.524 . S
C877 H880 0.999 . S
C878 H848 0.950 . S
C878 C877 1.524 . S
C878 C879 1.415 . S
C879 H849 0.950 . S
C879 C874 1.391 . S
C879 C878 1.415 . S
H880 C877 0.999 . S
H881 C862 0.913 . S
H882 C900 0.951 . S
H883 C902 0.951 . S
H884 C904 0.950 . S
H885 C905 0.950 . S
H886 C907 0.950 . S
H887 C910 0.950 . S
H888 C911 0.950 . S
H889 C913 0.950 . S
H890 C914 0.950 . S
H891 C915 0.951 . S
H892 C917 0.951 . S
H893 C919 0.950 . S
H894 C920 0.950 . S
H895 C922 0.950 . S
H896 C925 0.950 . S
H897 C926 0.950 . S
H898 C928 0.950 . S
H899 C929 0.950 . S
C900 H882 0.951 . S
C900 C901 1.366 . S
C900 C902 1.388 . S
C901 C900 1.366 . S
C901 C905 1.385 . S
C902 H883 0.951 . S
C902 C900 1.388 . S
C902 C903 1.366 . S
C903 C902 1.366 . S
C903 C904 1.414 . S
C903 C906 1.499 . S
C904 H884 0.950 . S
C904 C903 1.414 . S
C904 C905 1.374 . S
C905 H885 0.950 . S
C905 C901 1.385 . S
C905 C904 1.374 . S
C906 C903 1.499 . S
C906 C907 1.373 . S
C906 C908 1.389 . S
C907 H886 0.950 . S
C907 C906 1.373 . S
C907 C923 1.377 . S
C908 C906 1.389 . S
C908 C909 1.524 . S
C908 C922 1.377 . S
C909 C908 1.524 . S
C909 C910 1.397 . S
C909 C914 1.363 . S
C910 H887 0.950 . S
C910 C909 1.397 . S
C910 C911 1.334 . S
C911 H888 0.950 . S
C911 C910 1.334 . S
C911 C912 1.287 . S
C912 C911 1.287 . S
C912 C913 1.524 . S
C912 H931 0.913 1_545 S
C913 H889 0.950 . S
C913 C912 1.524 . S
C913 C914 1.415 . S
C914 H890 0.950 . S
C914 C909 1.363 . S
C914 C913 1.415 . S
C915 H891 0.951 . S
C915 C916 1.366 . S
C915 C917 1.388 . S
C916 C915 1.366 . S
C916 C920 1.385 . S
C917 H892 0.951 . S
C917 C915 1.388 . S
C917 C918 1.366 . S
C918 C917 1.366 . S
C918 C919 1.414 . S
C918 C921 1.499 . S
C919 H893 0.950 . S
C919 C918 1.414 . S
C919 C920 1.374 . S
C920 H894 0.950 . S
C920 C916 1.385 . S
C920 C919 1.374 . S
C921 C918 1.499 . S
C921 C922 1.373 . S
C921 C923 1.389 . S
C922 H895 0.950 . S
C922 C908 1.377 . S
C922 C921 1.373 . S
C923 C907 1.377 . S
C923 C921 1.389 . S
C923 C924 1.524 . S
C924 C923 1.524 . S
C924 C925 1.397 . S
C924 C929 1.363 . S
C925 H896 0.950 . S
C925 C924 1.397 . S
C925 C926 1.334 . S
C926 H897 0.950 . S
C926 C925 1.334 . S
C926 C927 1.287 . S
C927 C926 1.287 . S
C927 C928 1.524 . S
C927 H930 0.999 . S
C928 H898 0.950 . S
C928 C927 1.524 . S
C928 C929 1.415 . S
C929 H899 0.950 . S
C929 C924 1.363 . S
C929 C928 1.415 . S
H930 C927 0.999 . S
H931 C912 0.913 1_565 S
H932 C950 0.951 . S
H933 C952 0.951 . S
H934 C954 0.950 . S
H935 C955 0.950 . S
H936 C957 0.950 . S
H937 C960 0.950 . S
H938 C961 0.950 . S
H939 C963 0.950 . S
H940 C964 0.950 . S
H941 C965 0.951 . S
H942 C967 0.951 . S
H943 C969 0.950 . S
H944 C970 0.950 . S
H945 C972 0.950 . S
H946 C975 0.950 . S
H947 C976 0.950 . S
H948 C978 0.950 . S
H949 C979 0.950 . S
C950 H932 0.951 . S
C950 C951 1.366 . S
C950 C952 1.388 . S
C951 C950 1.366 . S
C951 C955 1.385 . S
C952 H933 0.951 . S
C952 C950 1.388 . S
C952 C953 1.366 . S
C953 C952 1.366 . S
C953 C954 1.414 . S
C953 C956 1.499 . S
C954 H934 0.950 . S
C954 C953 1.414 . S
C954 C955 1.374 . S
C955 H935 0.950 . S
C955 C951 1.385 . S
C955 C954 1.374 . S
C956 C953 1.499 . S
C956 C957 1.373 . S
C956 C958 1.389 . S
C957 H936 0.950 . S
C957 C956 1.373 . S
C957 C973 1.377 . S
C958 C956 1.389 . S
C958 C959 1.524 . S
C958 C972 1.377 . S
C959 C958 1.524 . S
C959 C960 1.397 . S
C959 C964 1.363 . S
C960 H937 0.950 . S
C960 C959 1.397 . S
C960 C961 1.334 . S
C961 H938 0.950 . S
C961 C960 1.334 . S
C961 C962 1.287 . S
C962 C961 1.287 . S
C962 C963 1.524 . S
C962 H981 0.913 . S
C963 H939 0.950 . S
C963 C962 1.524 . S
C963 C964 1.415 . S
C964 H940 0.950 . S
C964 C959 1.363 . S
C964 C963 1.415 . S
C965 H941 0.951 . S
C965 C966 1.366 . S
C965 C967 1.388 . S
C966 C965 1.366 . S
C966 C970 1.385 . S
C967 H942 0.951 . S
C967 C965 1.388 . S
C967 C968 1.366 . S
C968 C967 1.366 . S
C968 C969 1.414 . S
C968 C971 1.499 . S
C969 H943 0.950 . S
C969 C968 1.414 . S
C969 C970 1.374 . S
C970 H944 0.950 . S
C970 C966 1.385 . S
C970 C969 1.374 . S
C971 C968 1.499 . S
C971 C972 1.373 . S
C971 C973 1.389 . S
C972 H945 0.950 . S
C972 C958 1.377 . S
C972 C971 1.373 . S
C973 C957 1.377 . S
C973 C971 1.389 . S
C973 C974 1.524 . S
C974 C973 1.524 . S
C974 C975 1.397 . S
C974 C979 1.363 . S
C975 H946 0.950 . S
C975 C974 1.397 . S
C975 C976 1.334 . S
C976 H947 0.950 . S
C976 C975 1.334 . S
C976 C977 1.287 . S
C977 C976 1.287 . S
C977 C978 1.524 . S
C977 H980 0.999 . S
C978 H948 0.950 . S
C978 C977 1.524 . S
C978 C979 1.415 . S
C979 H949 0.950 . S
C979 C974 1.363 . S
C979 C978 1.415 . S
H980 C977 0.999 . S
H981 C962 0.913 . S
H982 C1000 0.951 . S
H983 C1002 0.951 . S
H984 C1004 0.950 . S
H985 C1005 0.950 . S
H986 C1007 0.950 . S
H987 C1010 0.950 . S
H988 C1011 0.950 . S
H989 C1013 0.983 . S
H990 C1014 0.950 . S
H991 C1015 0.951 . S
H992 C1017 0.951 . S
H993 C1019 0.950 . S
H994 C1020 0.950 . S
H995 C1022 0.950 . S
H996 C1025 0.950 . S
H997 C1026 0.950 . S
H998 C1028 0.950 . S
H999 C1029 0.950 . S
C1000 H982 0.951 . S
C1000 C1001 1.366 . S
C1000 C1002 1.388 . S
C1001 C1000 1.366 . S
C1001 C1005 1.385 . S
C1002 H983 0.951 . S
C1002 C1000 1.388 . S
C1002 C1003 1.366 . S
C1003 C1002 1.366 . S
C1003 C1004 1.414 . S
C1003 C1006 1.499 . S
C1004 H984 0.950 . S
C1004 C1003 1.414 . S
C1004 C1005 1.374 . S
C1005 H985 0.950 . S
C1005 C1001 1.385 . S
C1005 C1004 1.374 . S
C1006 C1003 1.499 . S
C1006 C1007 1.373 . S
C1006 C1008 1.389 . S
C1007 H986 0.950 . S
C1007 C1006 1.373 . S
C1007 C1023 1.377 . S
C1008 C1006 1.389 . S
C1008 C1009 1.524 . S
C1008 C1022 1.377 . S
C1009 C1008 1.524 . S
C1009 C1010 1.397 . S
C1009 C1014 1.363 . S
C1010 H987 0.950 . S
C1010 C1009 1.397 . S
C1010 C1011 1.334 . S
C1011 H988 0.950 . S
C1011 C1010 1.334 . S
C1011 C1012 1.287 . S
C1012 C1011 1.287 . S
C1012 C1013 1.517 1_455 S
C1012 H1031 0.913 1_455 S
C1013 H989 0.983 . S
C1013 C1012 1.517 1_655 S
C1013 C1014 1.385 1_655 S
C1014 H990 0.950 . S
C1014 C1009 1.363 . S
C1014 C1013 1.385 1_455 S
C1015 H991 0.951 . S
C1015 C1016 1.366 . S
C1015 C1017 1.388 . S
C1016 C1015 1.366 . S
C1016 C1020 1.385 . S
C1017 H992 0.951 . S
C1017 C1015 1.388 . S
C1017 C1018 1.366 . S
C1018 C1017 1.366 . S
C1018 C1019 1.414 . S
C1018 C1021 1.499 . S
C1019 H993 0.950 . S
C1019 C1018 1.414 . S
C1019 C1020 1.374 . S
C1020 H994 0.950 . S
C1020 C1016 1.385 . S
C1020 C1019 1.374 . S
C1021 C1018 1.499 . S
C1021 C1022 1.373 . S
C1021 C1023 1.389 . S
C1022 H995 0.950 . S
C1022 C1008 1.377 . S
C1022 C1021 1.373 . S
C1023 C1007 1.377 . S
C1023 C1021 1.389 . S
C1023 C1024 1.524 . S
C1024 C1023 1.524 . S
C1024 C1025 1.397 . S
C1024 C1029 1.363 . S
C1025 H996 0.950 . S
C1025 C1024 1.397 . S
C1025 C1026 1.334 . S
C1026 H997 0.950 . S
C1026 C1025 1.334 . S
C1026 C1027 1.287 . S
C1027 C1026 1.287 . S
C1027 C1028 1.524 . S
C1027 H1030 0.999 . S
C1028 H998 0.950 . S
C1028 C1027 1.524 . S
C1028 C1029 1.415 . S
C1029 H999 0.950 . S
C1029 C1024 1.363 . S
C1029 C1028 1.415 . S
H1030 C1027 0.999 . S
H1031 C1012 0.913 1_655 S
H1032 C1050 0.951 . S
H1033 C1052 0.951 . S
H1034 C1054 0.950 . S
H1035 C1055 0.950 . S
H1036 C1057 0.950 . S
H1037 C1060 0.950 . S
H1038 C1061 0.950 . S
H1039 C1063 0.950 . S
H1040 C1064 0.950 . S
H1041 C1065 0.951 1_545 S
H1042 C1067 0.951 . S
H1043 C1069 0.950 . S
H1044 C1070 0.950 1_554 S
H1045 C1072 0.950 . S
H1046 C1075 0.950 . S
H1047 C1076 0.950 . S
H1048 C1078 0.950 . S
H1049 C1079 0.950 . S
C1050 H1032 0.951 . S
C1050 C1051 1.366 . S
C1050 C1052 1.388 . S
C1051 C1050 1.366 . S
C1051 C1055 1.385 . S
C1052 H1033 0.951 . S
C1052 C1050 1.388 . S
C1052 C1053 1.366 . S
C1053 C1052 1.366 . S
C1053 C1054 1.414 . S
C1053 C1056 1.499 . S
C1054 H1034 0.950 . S
C1054 C1053 1.414 . S
C1054 C1055 1.374 . S
C1055 H1035 0.950 . S
C1055 C1051 1.385 . S
C1055 C1054 1.374 . S
C1056 C1053 1.499 . S
C1056 C1057 1.373 . S
C1056 C1058 1.389 . S
C1057 H1036 0.950 . S
C1057 C1056 1.373 . S
C1057 C1073 1.377 . S
C1058 C1056 1.389 . S
C1058 C1059 1.524 . S
C1058 C1072 1.377 . S
C1059 C1058 1.524 . S
C1059 C1060 1.397 . S
C1059 C1064 1.363 . S
C1060 H1037 0.950 . S
C1060 C1059 1.397 . S
C1060 C1061 1.334 . S
C1061 H1038 0.950 . S
C1061 C1060 1.334 . S
C1061 C1062 1.287 . S
C1062 C1061 1.287 . S
C1062 C1063 1.524 . S
C1062 H1081 0.913 . S
C1063 H1039 0.950 . S
C1063 C1062 1.524 . S
C1063 C1064 1.415 . S
C1064 H1040 0.950 . S
C1064 C1059 1.363 . S
C1064 C1063 1.415 . S
C1065 H1041 0.951 1_565 S
C1065 C1066 1.366 . S
C1065 C1067 1.388 . S
C1066 C1065 1.366 . S
C1066 C1070 1.385 . S
C1067 H1042 0.951 . S
C1067 C1065 1.388 . S
C1067 C1068 1.366 . S
C1068 C1067 1.366 . S
C1068 C1069 1.414 . S
C1068 C1071 1.499 . S
C1069 H1043 0.950 . S
C1069 C1068 1.414 . S
C1069 C1070 1.374 . S
C1070 H1044 0.950 1_556 S
C1070 C1066 1.385 . S
C1070 C1069 1.374 . S
C1071 C1068 1.499 . S
C1071 C1072 1.373 . S
C1071 C1073 1.389 . S
C1072 H1045 0.950 . S
C1072 C1058 1.377 . S
C1072 C1071 1.373 . S
C1073 C1057 1.377 . S
C1073 C1071 1.389 . S
C1073 C1074 1.524 1_565 S
C1074 C1073 1.524 1_545 S
C1074 C1075 1.397 . S
C1074 C1079 1.363 . S
C1075 H1046 0.950 . S
C1075 C1074 1.397 . S
C1075 C1076 1.334 . S
C1076 H1047 0.950 . S
C1076 C1075 1.334 . S
C1076 C1077 1.287 . S
C1077 C1076 1.287 . S
C1077 C1078 1.524 . S
C1077 H1080 0.999 . S
C1078 H1048 0.950 . S
C1078 C1077 1.524 . S
C1078 C1079 1.415 . S
C1079 H1049 0.950 . S
C1079 C1074 1.363 . S
C1079 C1078 1.415 . S
H1080 C1077 0.999 . S
H1081 C1062 0.913 . S
H1082 C1100 0.951 . S
H1083 C1102 0.951 . S
H1084 C1104 0.950 . S
H1085 C1105 0.950 . S
H1086 C1107 0.950 . S
H1087 C1110 0.950 . S
H1088 C1111 0.950 . S
H1089 C1113 0.950 . S
H1090 C1114 0.950 . S
H1091 C1115 0.951 . S
H1092 C1117 0.951 . S
H1093 C1119 0.950 . S
H1094 C1120 0.950 . S
H1095 C1122 0.950 . S
H1096 C1125 0.950 . S
H1097 C1126 0.950 . S
H1098 C1128 0.950 . S
H1099 C1129 0.950 . S
C1100 H1082 0.951 . S
C1100 C1101 1.366 . S
C1100 C1102 1.388 . S
C1101 C1100 1.366 . S
C1101 C1105 1.385 . S
C1102 H1083 0.951 . S
C1102 C1100 1.388 . S
C1102 C1103 1.366 . S
C1103 C1102 1.366 . S
C1103 C1104 1.414 . S
C1103 C1106 1.499 . S
C1104 H1084 0.950 . S
C1104 C1103 1.414 . S
C1104 C1105 1.374 . S
C1105 H1085 0.950 . S
C1105 C1101 1.385 . S
C1105 C1104 1.374 . S
C1106 C1103 1.499 . S
C1106 C1107 1.373 . S
C1106 C1108 1.389 . S
C1107 H1086 0.950 . S
C1107 C1106 1.373 . S
C1107 C1123 1.377 . S
C1108 C1106 1.389 . S
C1108 C1109 1.524 . S
C1108 C1122 1.377 . S
C1109 C1108 1.524 . S
C1109 C1110 1.397 . S
C1109 C1114 1.363 . S
C1110 H1087 0.950 . S
C1110 C1109 1.397 . S
C1110 C1111 1.334 . S
C1111 H1088 0.950 . S
C1111 C1110 1.334 . S
C1111 C1112 1.287 . S
C1112 C1111 1.287 . S
C1112 C1113 1.524 . S
C1112 H1131 0.913 . S
C1113 H1089 0.950 . S
C1113 C1112 1.524 . S
C1113 C1114 1.415 . S
C1114 H1090 0.950 . S
C1114 C1109 1.363 . S
C1114 C1113 1.415 . S
C1115 H1091 0.951 . S
C1115 C1116 1.366 . S
C1115 C1117 1.388 . S
C1116 C1115 1.366 . S
C1116 C1120 1.385 . S
C1117 H1092 0.951 . S
C1117 C1115 1.388 . S
C1117 C1118 1.366 . S
C1118 C1117 1.366 . S
C1118 C1119 1.414 . S
C1118 C1121 1.499 . S
C1119 H1093 0.950 . S
C1119 C1118 1.414 . S
C1119 C1120 1.374 . S
C1120 H1094 0.950 . S
C1120 C1116 1.385 . S
C1120 C1119 1.374 . S
C1121 C1118 1.499 . S
C1121 C1122 1.373 . S
C1121 C1123 1.389 . S
C1122 H1095 0.950 . S
C1122 C1108 1.377 . S
C1122 C1121 1.373 . S
C1123 C1107 1.377 . S
C1123 C1121 1.389 . S
C1123 C1124 1.524 . S
C1124 C1123 1.524 . S
C1124 C1125 1.397 . S
C1124 C1129 1.363 . S
C1125 H1096 0.950 . S
C1125 C1124 1.397 . S
C1125 C1126 1.334 . S
C1126 H1097 0.950 . S
C1126 C1125 1.334 . S
C1126 C1127 1.287 . S
C1127 C1126 1.287 . S
C1127 C1128 1.524 . S
C1127 H1130 0.999 . S
C1128 H1098 0.950 . S
C1128 C1127 1.524 . S
C1128 C1129 1.415 . S
C1129 H1099 0.950 . S
C1129 C1124 1.363 . S
C1129 C1128 1.415 . S
H1130 C1127 0.999 . S
H1131 C1112 0.913 . S
H1132 C1150 0.951 . S
H1133 C1152 0.951 . S
H1134 C1154 0.950 . S
H1135 C1155 0.950 . S
H1136 C1157 0.950 . S
H1137 C1160 0.950 . S
H1138 C1161 0.950 . S
H1139 C1163 0.950 . S
H1140 C1164 0.950 . S
H1141 C1165 0.951 . S
H1142 C1167 0.951 . S
H1143 C1169 0.950 . S
H1144 C1170 0.950 . S
H1145 C1172 0.950 . S
H1146 C1175 0.950 . S
H1147 C1176 0.950 . S
H1148 C1178 0.950 . S
H1149 C1179 0.950 . S
C1150 H1132 0.951 . S
C1150 C1151 1.366 . S
C1150 C1152 1.388 . S
C1151 C1150 1.366 . S
C1151 C1155 1.385 . S
C1152 H1133 0.951 . S
C1152 C1150 1.388 . S
C1152 C1153 1.366 . S
C1153 C1152 1.366 . S
C1153 C1154 1.414 . S
C1153 C1156 1.499 . S
C1154 H1134 0.950 . S
C1154 C1153 1.414 . S
C1154 C1155 1.374 . S
C1155 H1135 0.950 . S
C1155 C1151 1.385 . S
C1155 C1154 1.374 . S
C1156 C1153 1.499 . S
C1156 C1157 1.373 . S
C1156 C1158 1.389 . S
C1157 H1136 0.950 . S
C1157 C1156 1.373 . S
C1157 C1173 1.377 . S
C1158 C1156 1.389 . S
C1158 C1159 1.524 . S
C1158 C1172 1.377 . S
C1159 C1158 1.524 . S
C1159 C1160 1.397 . S
C1159 C1164 1.363 . S
C1160 H1137 0.950 . S
C1160 C1159 1.397 . S
C1160 C1161 1.334 . S
C1161 H1138 0.950 . S
C1161 C1160 1.334 . S
C1161 C1162 1.287 . S
C1162 C1161 1.287 . S
C1162 C1163 1.524 . S
C1162 H1181 0.913 . S
C1163 H1139 0.950 . S
C1163 C1162 1.524 . S
C1163 C1164 1.415 . S
C1164 H1140 0.950 . S
C1164 C1159 1.363 . S
C1164 C1163 1.415 . S
C1165 H1141 0.951 . S
C1165 C1166 1.366 . S
C1165 C1167 1.388 . S
C1166 C1165 1.366 . S
C1166 C1170 1.385 . S
C1167 H1142 0.951 . S
C1167 C1165 1.388 . S
C1167 C1168 1.366 . S
C1168 C1167 1.366 . S
C1168 C1169 1.414 . S
C1168 C1171 1.499 . S
C1169 H1143 0.950 . S
C1169 C1168 1.414 . S
C1169 C1170 1.374 . S
C1170 H1144 0.950 . S
C1170 C1166 1.385 . S
C1170 C1169 1.374 . S
C1171 C1168 1.499 . S
C1171 C1172 1.373 . S
C1171 C1173 1.389 . S
C1172 H1145 0.950 . S
C1172 C1158 1.377 . S
C1172 C1171 1.373 . S
C1173 C1157 1.377 . S
C1173 C1171 1.389 . S
C1173 C1174 1.524 . S
C1174 C1173 1.524 . S
C1174 C1175 1.397 1_554 S
C1174 C1179 1.363 . S
C1175 H1146 0.950 . S
C1175 C1174 1.397 1_556 S
C1175 C1176 1.334 . S
C1176 H1147 0.950 . S
C1176 C1175 1.334 . S
C1176 C1177 1.287 . S
C1177 C1176 1.287 . S
C1177 C1178 1.524 . S
C1177 H1180 0.999 . S
C1178 H1148 0.950 . S
C1178 C1177 1.524 . S
C1178 C1179 1.415 1_556 S
C1179 H1149 0.950 . S
C1179 C1174 1.363 . S
C1179 C1178 1.415 1_554 S
H1180 C1177 0.999 . S
H1181 C1162 0.913 . S
H1182 C1200 0.951 . S
H1183 C1202 0.951 . S
H1184 C1204 0.950 . S
H1185 C1205 0.950 . S
H1186 C1207 0.950 . S
H1187 C1210 0.950 . S
H1188 C1211 0.950 . S
H1189 C1213 0.950 . S
H1190 C1214 0.950 . S
H1191 C1215 0.951 . S
H1192 C1217 0.951 . S
H1193 C1219 0.950 . S
H1194 C1220 0.950 . S
H1195 C1222 0.950 . S
H1196 C1225 0.950 . S
H1197 C1226 0.950 . S
H1198 C1228 0.950 . S
H1199 C1229 0.950 . S
C1200 H1182 0.951 . S
C1200 C1201 1.366 . S
C1200 C1202 1.388 . S
C1201 C1200 1.366 . S
C1201 C1205 1.385 . S
C1202 H1183 0.951 . S
C1202 C1200 1.388 . S
C1202 C1203 1.366 . S
C1203 C1202 1.366 . S
C1203 C1204 1.414 . S
C1203 C1206 1.499 . S
C1204 H1184 0.950 . S
C1204 C1203 1.414 . S
C1204 C1205 1.374 . S
C1205 H1185 0.950 . S
C1205 C1201 1.385 . S
C1205 C1204 1.374 . S
C1206 C1203 1.499 . S
C1206 C1207 1.373 . S
C1206 C1208 1.389 . S
C1207 H1186 0.950 . S
C1207 C1206 1.373 . S
C1207 C1223 1.377 . S
C1208 C1206 1.389 . S
C1208 C1209 1.524 . S
C1208 C1222 1.377 . S
C1209 C1208 1.524 . S
C1209 C1210 1.397 . S
C1209 C1214 1.363 . S
C1210 H1187 0.950 . S
C1210 C1209 1.397 . S
C1210 C1211 1.334 . S
C1211 H1188 0.950 . S
C1211 C1210 1.334 . S
C1211 C1212 1.287 . S
C1212 C1211 1.287 . S
C1212 C1213 1.524 . S
C1212 H1231 0.913 . S
C1213 H1189 0.950 . S
C1213 C1212 1.524 . S
C1213 C1214 1.415 . S
C1214 H1190 0.950 . S
C1214 C1209 1.363 . S
C1214 C1213 1.415 . S
C1215 H1191 0.951 . S
C1215 C1216 1.366 . S
C1215 C1217 1.388 . S
C1216 C1215 1.366 . S
C1216 C1220 1.385 . S
C1217 H1192 0.951 . S
C1217 C1215 1.388 . S
C1217 C1218 1.366 . S
C1218 C1217 1.366 . S
C1218 C1219 1.414 . S
C1218 C1221 1.499 . S
C1219 H1193 0.950 . S
C1219 C1218 1.414 . S
C1219 C1220 1.374 . S
C1220 H1194 0.950 . S
C1220 C1216 1.385 . S
C1220 C1219 1.374 . S
C1221 C1218 1.499 . S
C1221 C1222 1.373 . S
C1221 C1223 1.389 . S
C1222 H1195 0.950 . S
C1222 C1208 1.377 . S
C1222 C1221 1.373 . S
C1223 C1207 1.377 . S
C1223 C1221 1.389 . S
C1223 C1224 1.524 . S
C1224 C1223 1.524 . S
C1224 C1225 1.397 . S
C1224 C1229 1.363 . S
C1225 H1196 0.950 . S
C1225 C1224 1.397 . S
C1225 C1226 1.334 . S
C1226 H1197 0.950 . S
C1226 C1225 1.334 . S
C1226 C1227 1.287 . S
C1227 C1226 1.287 . S
C1227 C1228 1.524 . S
C1227 H1230 0.999 . S
C1228 H1198 0.950 . S
C1228 C1227 1.524 . S
C1228 C1229 1.415 . S
C1229 H1199 0.950 . S
C1229 C1224 1.363 . S
C1229 C1228 1.415 . S
H1230 C1227 0.999 . S
H1231 C1212 0.913 . S
H1232 C1250 0.951 . S
H1233 C1252 0.951 . S
H1234 C1254 0.950 . S
H1235 C1255 0.950 . S
H1236 C1257 0.950 . S
H1237 C1260 0.950 . S
H1238 C1261 0.950 . S
H1239 C1263 0.950 . S
H1240 C1264 0.950 . S
H1241 C1265 0.951 1_554 S
H1242 C1267 0.929 1_554 S
H1243 C1269 0.950 . S
H1244 C1270 0.950 1_455 S
H1245 C1272 0.950 . S
H1246 C1275 0.950 . S
H1247 C1276 0.950 . S
H1248 C1278 0.950 . S
H1249 C1279 0.950 . S
C1250 H1232 0.951 . S
C1250 C1251 1.366 . S
C1250 C1252 1.388 . S
C1251 C1250 1.366 . S
C1251 C1255 1.385 . S
C1252 H1233 0.951 . S
C1252 C1250 1.388 . S
C1252 C1253 1.366 . S
C1253 C1252 1.366 . S
C1253 C1254 1.414 . S
C1253 C1256 1.499 . S
C1254 H1234 0.950 . S
C1254 C1253 1.414 . S
C1254 C1255 1.374 . S
C1255 H1235 0.950 . S
C1255 C1251 1.385 . S
C1255 C1254 1.374 . S
C1256 C1253 1.499 . S
C1256 C1257 1.373 . S
C1256 C1258 1.389 . S
C1257 H1236 0.950 . S
C1257 C1256 1.373 . S
C1257 C1273 1.377 . S
C1258 C1256 1.389 . S
C1258 C1259 1.524 . S
C1258 C1272 1.377 . S
C1259 C1258 1.524 . S
C1259 C1260 1.397 . S
C1259 C1264 1.363 . S
C1260 H1237 0.950 . S
C1260 C1259 1.397 . S
C1260 C1261 1.334 . S
C1261 H1238 0.950 . S
C1261 C1260 1.334 . S
C1261 C1262 1.287 . S
C1262 C1261 1.287 . S
C1262 C1263 1.524 . S
C1262 H1281 0.913 . S
C1263 H1239 0.950 . S
C1263 C1262 1.524 . S
C1263 C1264 1.415 . S
C1264 H1240 0.950 . S
C1264 C1259 1.363 . S
C1264 C1263 1.415 . S
C1265 H1241 0.951 1_556 S
C1265 C1266 1.366 . S
C1265 C1267 1.388 . S
C1266 C1265 1.366 . S
C1266 C1270 1.385 . S
C1267 H1242 0.929 1_556 S
C1267 C1265 1.388 . S
C1267 C1268 1.366 . S
C1268 C1267 1.366 . S
C1268 C1269 1.414 . S
C1268 C1271 1.499 . S
C1269 H1243 0.950 . S
C1269 C1268 1.414 . S
C1269 C1270 1.374 . S
C1270 H1244 0.950 1_655 S
C1270 C1266 1.385 . S
C1270 C1269 1.374 . S
C1271 C1268 1.499 . S
C1271 C1272 1.373 . S
C1271 C1273 1.389 . S
C1272 H1245 0.950 . S
C1272 C1258 1.377 . S
C1272 C1271 1.373 . S
C1273 C1257 1.377 . S
C1273 C1271 1.389 . S
C1273 C1274 1.524 . S
C1274 C1273 1.524 . S
C1274 C1275 1.397 1_655 S
C1274 C1279 1.363 1_556 S
C1275 H1246 0.950 . S
C1275 C1274 1.397 1_455 S
C1275 C1276 1.334 1_556 S
C1276 H1247 0.950 . S
C1276 C1275 1.334 1_554 S
C1276 C1277 1.287 . S
C1277 C1276 1.287 . S
C1277 C1278 1.524 1_455 S
C1277 H1280 0.999 . S
C1278 H1248 0.950 . S
C1278 C1277 1.524 1_655 S
C1278 C1279 1.415 . S
C1279 H1249 0.950 . S
C1279 C1274 1.363 1_554 S
C1279 C1278 1.415 . S
H1280 C1277 0.999 . S
H1281 C1262 0.913 . S
H1282 C1300 0.951 . S
H1283 C1302 0.951 . S
H1284 C1304 0.950 . S
H1285 C1305 0.950 . S
H1286 C1307 0.950 . S
H1287 C1310 0.950 . S
H1288 C1311 0.950 . S
H1289 C1313 0.950 . S
H1290 C1314 0.950 . S
H1291 C1315 0.951 . S
H1292 C1317 0.951 . S
H1293 C1319 0.950 . S
H1294 C1320 0.950 . S
H1295 C1322 0.950 . S
H1296 C1325 0.950 . S
H1297 C1326 0.950 . S
H1298 C1328 0.950 . S
H1299 C1329 0.950 . S
C1300 H1282 0.951 . S
C1300 C1301 1.366 . S
C1300 C1302 1.388 . S
C1301 C1300 1.366 . S
C1301 C1305 1.385 . S
C1302 H1283 0.951 . S
C1302 C1300 1.388 . S
C1302 C1303 1.366 . S
C1303 C1302 1.366 . S
C1303 C1304 1.414 . S
C1303 C1306 1.499 . S
C1304 H1284 0.950 . S
C1304 C1303 1.414 . S
C1304 C1305 1.374 . S
C1305 H1285 0.950 . S
C1305 C1301 1.385 . S
C1305 C1304 1.374 . S
C1306 C1303 1.499 . S
C1306 C1307 1.373 . S
C1306 C1308 1.389 . S
C1307 H1286 0.950 . S
C1307 C1306 1.373 . S
C1307 C1323 1.377 . S
C1308 C1306 1.389 . S
C1308 C1309 1.524 . S
C1308 C1322 1.377 . S
C1309 C1308 1.524 . S
C1309 C1310 1.397 . S
C1309 C1314 1.363 . S
C1310 H1287 0.950 . S
C1310 C1309 1.397 . S
C1310 C1311 1.334 . S
C1311 H1288 0.950 . S
C1311 C1310 1.334 . S
C1311 C1312 1.287 . S
C1312 C1311 1.287 . S
C1312 C1313 1.524 . S
C1312 H1331 0.913 . S
C1313 H1289 0.950 . S
C1313 C1312 1.524 . S
C1313 C1314 1.415 . S
C1314 H1290 0.950 . S
C1314 C1309 1.363 . S
C1314 C1313 1.415 . S
C1315 H1291 0.951 . S
C1315 C1316 1.366 . S
C1315 C1317 1.388 . S
C1316 C1315 1.366 . S
C1316 C1320 1.385 . S
C1317 H1292 0.951 . S
C1317 C1315 1.388 . S
C1317 C1318 1.366 . S
C1318 C1317 1.366 . S
C1318 C1319 1.414 . S
C1318 C1321 1.499 . S
C1319 H1293 0.950 . S
C1319 C1318 1.414 . S
C1319 C1320 1.374 . S
C1320 H1294 0.950 . S
C1320 C1316 1.385 . S
C1320 C1319 1.374 . S
C1321 C1318 1.499 . S
C1321 C1322 1.373 . S
C1321 C1323 1.389 . S
C1322 H1295 0.950 . S
C1322 C1308 1.377 . S
C1322 C1321 1.373 . S
C1323 C1307 1.377 . S
C1323 C1321 1.389 . S
C1323 C1324 1.524 . S
C1324 C1323 1.524 . S
C1324 C1325 1.397 . S
C1324 C1329 1.363 . S
C1325 H1296 0.950 . S
C1325 C1324 1.397 . S
C1325 C1326 1.334 1_554 S
C1326 H1297 0.950 . S
C1326 C1325 1.334 1_556 S
C1326 C1327 1.287 . S
C1327 C1326 1.287 . S
C1327 C1328 1.524 . S
C1327 H1330 0.999 . S
C1328 H1298 0.950 . S
C1328 C1327 1.524 . S
C1328 C1329 1.415 1_556 S
C1329 H1299 0.950 . S
C1329 C1324 1.363 . S
C1329 C1328 1.415 1_554 S
H1330 C1327 0.999 . S
H1331 C1312 0.913 . S
H1332 C1350 0.951 . S
H1333 C1352 0.951 . S
H1334 C1354 0.950 . S
H1335 C1355 0.950 . S
H1336 C1357 0.950 . S
H1337 C1360 0.950 . S
H1338 C1361 0.950 . S
H1339 C1363 0.950 . S
H1340 C1364 0.950 . S
H1341 C1365 0.951 . S
H1342 C1367 0.951 . S
H1343 C1369 0.950 . S
H1344 C1370 0.950 . S
H1345 C1372 0.950 . S
H1346 C1375 0.950 . S
H1347 C1376 0.950 . S
H1348 C1378 0.968 . S
H1349 C1379 0.950 . S
C1350 H1332 0.951 . S
C1350 C1351 1.366 . S
C1350 C1352 1.388 . S
C1351 C1350 1.366 . S
C1351 C1355 1.385 . S
C1352 H1333 0.951 . S
C1352 C1350 1.388 . S
C1352 C1353 1.366 . S
C1353 C1352 1.366 . S
C1353 C1354 1.414 . S
C1353 C1356 1.499 . S
C1354 H1334 0.950 . S
C1354 C1353 1.414 . S
C1354 C1355 1.374 . S
C1355 H1335 0.950 . S
C1355 C1351 1.385 . S
C1355 C1354 1.374 . S
C1356 C1353 1.499 . S
C1356 C1357 1.373 . S
C1356 C1358 1.389 . S
C1357 H1336 0.950 . S
C1357 C1356 1.373 . S
C1357 C1373 1.377 . S
C1358 C1356 1.389 . S
C1358 C1359 1.524 . S
C1358 C1372 1.377 . S
C1359 C1358 1.524 . S
C1359 C1360 1.397 . S
C1359 C1364 1.363 . S
C1360 H1337 0.950 . S
C1360 C1359 1.397 . S
C1360 C1361 1.334 . S
C1361 H1338 0.950 . S
C1361 C1360 1.334 . S
C1361 C1362 1.287 . S
C1362 C1361 1.287 . S
C1362 C1363 1.524 . S
C1362 H1381 0.913 . S
C1363 H1339 0.950 . S
C1363 C1362 1.524 . S
C1363 C1364 1.415 . S
C1364 H1340 0.950 . S
C1364 C1359 1.363 . S
C1364 C1363 1.415 . S
C1365 H1341 0.951 . S
C1365 C1366 1.366 . S
C1365 C1367 1.388 . S
C1366 C1365 1.366 . S
C1366 C1370 1.385 . S
C1367 H1342 0.951 . S
C1367 C1365 1.388 . S
C1367 C1368 1.366 . S
C1368 C1367 1.366 . S
C1368 C1369 1.414 . S
C1368 C1371 1.499 . S
C1369 H1343 0.950 . S
C1369 C1368 1.414 . S
C1369 C1370 1.374 . S
C1370 H1344 0.950 . S
C1370 C1366 1.385 . S
C1370 C1369 1.374 . S
C1371 C1368 1.499 . S
C1371 C1372 1.373 . S
C1371 C1373 1.389 . S
C1372 H1345 0.950 . S
C1372 C1358 1.377 . S
C1372 C1371 1.373 . S
C1373 C1357 1.377 . S
C1373 C1371 1.389 . S
C1373 C1374 1.524 . S
C1374 C1373 1.524 . S
C1374 C1375 1.397 . S
C1374 C1379 1.363 . S
C1375 H1346 0.950 . S
C1375 C1374 1.397 . S
C1375 C1376 1.334 . S
C1376 H1347 0.950 . S
C1376 C1375 1.334 . S
C1376 C1377 1.287 . S
C1377 C1376 1.287 . S
C1377 C1378 1.516 1_455 S
C1377 H1380 0.999 1_455 S
C1378 H1348 0.968 . S
C1378 C1377 1.516 1_655 S
C1378 C1379 1.402 1_655 S
C1379 H1349 0.950 . S
C1379 C1374 1.363 . S
C1379 C1378 1.402 1_455 S
H1380 C1377 0.999 1_655 S
H1381 C1362 0.913 . S
H1382 C1400 0.951 . S
H1383 C1402 0.951 . S
H1384 C1404 0.950 . S
H1385 C1405 0.950 . S
H1386 C1407 0.950 . S
H1387 C1410 0.950 . S
H1388 C1411 0.950 . S
H1389 C1413 0.950 . S
H1390 C1414 0.950 . S
H1391 C1415 0.951 . S
H1392 C1417 0.951 . S
H1393 C1419 0.950 . S
H1394 C1420 0.950 . S
H1395 C1422 0.950 . S
H1396 C1425 0.950 . S
H1397 C1426 0.950 . S
H1398 C1428 0.950 . S
H1399 C1429 0.950 . S
C1400 H1382 0.951 . S
C1400 C1401 1.366 . S
C1400 C1402 1.388 . S
C1401 C1400 1.366 . S
C1401 C1405 1.385 . S
C1402 H1383 0.951 . S
C1402 C1400 1.388 . S
C1402 C1403 1.366 . S
C1403 C1402 1.366 . S
C1403 C1404 1.414 . S
C1403 C1406 1.499 . S
C1404 H1384 0.950 . S
C1404 C1403 1.414 . S
C1404 C1405 1.374 . S
C1405 H1385 0.950 . S
C1405 C1401 1.385 . S
C1405 C1404 1.374 . S
C1406 C1403 1.499 . S
C1406 C1407 1.373 . S
C1406 C1408 1.389 . S
C1407 H1386 0.950 . S
C1407 C1406 1.373 . S
C1407 C1423 1.377 . S
C1408 C1406 1.389 . S
C1408 C1409 1.524 . S
C1408 C1422 1.377 . S
C1409 C1408 1.524 . S
C1409 C1410 1.397 . S
C1409 C1414 1.363 . S
C1410 H1387 0.950 . S
C1410 C1409 1.397 . S
C1410 C1411 1.334 . S
C1411 H1388 0.950 . S
C1411 C1410 1.334 . S
C1411 C1412 1.287 . S
C1412 C1411 1.287 . S
C1412 C1413 1.524 . S
C1412 H1431 0.913 . S
C1413 H1389 0.950 . S
C1413 C1412 1.524 . S
C1413 C1414 1.415 . S
C1414 H1390 0.950 . S
C1414 C1409 1.363 . S
C1414 C1413 1.415 . S
C1415 H1391 0.951 . S
C1415 C1416 1.366 . S
C1415 C1417 1.388 . S
C1416 C1415 1.366 . S
C1416 C1420 1.385 . S
C1417 H1392 0.951 . S
C1417 C1415 1.388 . S
C1417 C1418 1.366 . S
C1418 C1417 1.366 . S
C1418 C1419 1.414 . S
C1418 C1421 1.499 . S
C1419 H1393 0.950 . S
C1419 C1418 1.414 . S
C1419 C1420 1.374 . S
C1420 H1394 0.950 . S
C1420 C1416 1.385 . S
C1420 C1419 1.374 . S
C1421 C1418 1.499 . S
C1421 C1422 1.373 . S
C1421 C1423 1.389 . S
C1422 H1395 0.950 . S
C1422 C1408 1.377 . S
C1422 C1421 1.373 . S
C1423 C1407 1.377 . S
C1423 C1421 1.389 . S
C1423 C1424 1.524 . S
C1424 C1423 1.524 . S
C1424 C1425 1.397 . S
C1424 C1429 1.363 . S
C1425 H1396 0.950 . S
C1425 C1424 1.397 . S
C1425 C1426 1.334 . S
C1426 H1397 0.950 . S
C1426 C1425 1.334 . S
C1426 C1427 1.287 . S
C1427 C1426 1.287 . S
C1427 C1428 1.524 . S
C1427 H1430 0.999 . S
C1428 H1398 0.950 . S
C1428 C1427 1.524 . S
C1428 C1429 1.415 . S
C1429 H1399 0.950 . S
C1429 C1424 1.363 . S
C1429 C1428 1.415 . S
H1430 C1427 0.999 . S
H1431 C1412 0.913 . S
C251 C6 2.520 . S
C266 C96 2.524 . S
C301 C18 2.610 . S
C316 C138 2.630 1_565 S
C366 C168 0.919 . S
C351 C28 0.910 . S
C401 C40 0.520 . S
C416 C202 0.493 . S
C466 C159 2.174 . S
C451 C9 2.166 . S
C516 C113 1.873 . S
C501 C16 1.860 . S
C566 C206 1.273 . S
C551 C30 1.268 . S
C616 C172 0.924 . S
C601 C42 0.921 . S
C651 C4 2.139 . S
C666 C227 2.163 . S
C716 C134 1.133 . S
C701 C33 1.131 . S
C751 C45 0.868 . S
C766 C109 0.871 . S
C801 C21 2.440 . S
C816 C193 2.456 . S
C866 C125 2.585 . S
C851 C57 2.575 . S
C901 C66 2.606 . S
C916 C147 2.610 . S
C951 C76 0.950 . S
C966 C177 0.954 . S
C1001 C88 0.452 . S
C1016 C211 0.432 . S
C1051 C54 2.137 . S
C1066 C130 2.142 . S
C1116 C104 1.914 . S
C1101 C64 1.893 . S
C1166 C215 1.126 . S
C1151 C78 1.109 . S
C1216 C181 0.948 . S
C1201 C93 0.943 . S
C1251 C52 2.093 . S
C1266 C198 2.115 . S
C1316 C143 1.130 . S
C1301 C81 1.122 . S
C1366 C100 0.865 . S
C1351 C90 0.861 . S
C1401 C69 2.481 . S
C1416 C164 2.488 . S
