# Generated by pormake.
# Topology anh, (6,3)-cn, num edge types: 1
# Building blocks:
#     Node 0, Type 0, BuildingBlock: CUWYAW_clean_sbu_0, # of connection points: 6
#     Node 1, Type 0, BuildingBlock: CUWYAW_clean_sbu_0, # of connection points: 6
#     Node 2, Type 0, BuildingBlock: CUWYAW_clean_sbu_0, # of connection points: 6
#     Node 3, Type 1, BuildingBlock: PAMTOO_clean_linker_0, # of connection points: 3
#     Node 4, Type 1, BuildingBlock: PAMTOO_clean_linker_0, # of connection points: 3
#     Node 5, Type 1, BuildingBlock: PAMTOO_clean_linker_0, # of connection points: 3
#     Node 6, Type 1, BuildingBlock: PAMTOO_clean_linker_0, # of connection points: 3
#     Node 7, Type 1, BuildingBlock: PAMTOO_clean_linker_0, # of connection points: 3
#     Node 8, Type 1, BuildingBlock: PAMTOO_clean_linker_0, # of connection points: 3
#     Edge 9, Type (0, 1), BuildingBlock: KIFKEQ_clean_linker_1, # of connection points: 2
#     Edge 10, Type (0, 1), BuildingBlock: KIFKEQ_clean_linker_1, # of connection points: 2
#     Edge 11, Type (0, 1), BuildingBlock: KIFKEQ_clean_linker_1, # of connection points: 2
#     Edge 12, Type (0, 1), BuildingBlock: KIFKEQ_clean_linker_1, # of connection points: 2
#     Edge 13, Type (0, 1), BuildingBlock: KIFKEQ_clean_linker_1, # of connection points: 2
#     Edge 14, Type (0, 1), BuildingBlock: KIFKEQ_clean_linker_1, # of connection points: 2
#     Edge 15, Type (0, 1), BuildingBlock: KIFKEQ_clean_linker_1, # of connection points: 2
#     Edge 16, Type (0, 1), BuildingBlock: KIFKEQ_clean_linker_1, # of connection points: 2
#     Edge 17, Type (0, 1), BuildingBlock: KIFKEQ_clean_linker_1, # of connection points: 2
#     Edge 18, Type (0, 1), BuildingBlock: KIFKEQ_clean_linker_1, # of connection points: 2
#     Edge 19, Type (0, 1), BuildingBlock: KIFKEQ_clean_linker_1, # of connection points: 2
#     Edge 20, Type (0, 1), BuildingBlock: KIFKEQ_clean_linker_1, # of connection points: 2
#     Edge 21, Type (0, 1), BuildingBlock: KIFKEQ_clean_linker_1, # of connection points: 2
#     Edge 22, Type (0, 1), BuildingBlock: KIFKEQ_clean_linker_1, # of connection points: 2
#     Edge 23, Type (0, 1), BuildingBlock: KIFKEQ_clean_linker_1, # of connection points: 2
#     Edge 24, Type (0, 1), BuildingBlock: KIFKEQ_clean_linker_1, # of connection points: 2
#     Edge 25, Type (0, 1), BuildingBlock: KIFKEQ_clean_linker_1, # of connection points: 2
#     Edge 26, Type (0, 1), BuildingBlock: KIFKEQ_clean_linker_1, # of connection points: 2
# Relax obj value: 0.247
# Max RMSD: 0.148
# Mean RMSD: 0.113
data_MOF--net-anh--node1-CUWYAW_clean_sbu_0--node2-PAMTOO_clean_linker_0--edge1-KIFKEQ_clean_linker_1
_symmetry_space_group_name_H-M    P1
_symmetry_Int_Tables_number       1
_symmetry_cell_setting            triclinic
loop_
_symmetry_equiv_pos_as_xyz
'x, y, z'
_cell_length_a     32.155259
_cell_length_b     31.699323
_cell_length_c     50.129794
_cell_angle_alpha  86.258563
_cell_angle_beta   92.229421
_cell_angle_gamma 120.23586
loop_
_atom_site_label
_atom_site_type_symbol
_atom_site_fract_x
_atom_site_fract_y
_atom_site_fract_z
_atom_type_partial_charge
C0 C 1.08104 0.4221 0.15395 0.0
Eu1 Eu 0.13624 0.51413 0.16307 0.0
C2 C 1.03073 0.39458 0.14488 0.0
C3 C 0.99885 0.35038 0.15841 0.0
C4 C 0.94937 0.32894 0.15391 0.0
C5 C 0.93101 0.35142 0.13574 0.0
C6 C 0.9634 0.39366 0.12064 0.0
C7 C 1.01285 0.41523 0.12526 0.0
C8 C 0.1607 0.55056 0.21264 0.0
C9 C 1.06517 0.56452 0.1591 0.0
C10 C 0.23189 0.71193 0.16899 0.0
Eu11 Eu 0.18243 0.61883 0.16086 0.0
C12 C 0.27056 0.76017 0.15889 0.0
C13 C 0.26617 0.7804 0.13382 0.0
C14 C 0.29476 0.83049 0.12767 0.0
C15 C 0.32853 0.86098 0.1463 0.0
C16 C 0.33621 0.83993 0.17018 0.0
C17 C 0.30721 0.78992 0.17648 0.0
C18 C 0.1589 0.5809 0.11205 0.0
C19 C 0.25431 0.56839 0.15907 0.0
O20 O 0.1118 0.45413 0.13661 0.0
O21 O 1.08728 0.43915 0.17772 0.0
O22 O 0.16698 0.51611 0.20455 0.0
O23 O 0.14201 0.5649 0.19412 0.0
O24 O 1.06978 0.52615 0.15392 0.0
O25 O 0.10482 0.60445 0.16654 0.0
O26 O 0.24285 0.6805 0.18055 0.0
O27 O 0.19266 0.69134 0.15459 0.0
O28 O 0.15576 0.61829 0.11793 0.0
O29 O 0.17715 0.56829 0.13116 0.0
O30 O 0.25139 0.60914 0.16029 0.0
O31 O 0.21321 0.52567 0.15923 0.0
H32 H 1.01198 0.33407 0.17368 0.0
H33 H 0.9255 0.29677 0.16616 0.0
H34 H 0.95043 0.41149 0.10627 0.0
H35 H 1.03678 0.44946 0.11452 0.0
H36 H 0.23839 0.75832 0.11973 0.0
H37 H 0.28847 0.84585 0.10906 0.0
H38 H 0.36178 0.86269 0.185 0.0
H39 H 0.31106 0.77526 0.19596 0.0
C40 C 0.60416 0.18678 0.48358 0.0
Eu41 Eu 0.63332 0.12448 0.49393 0.0
C42 C 0.63095 0.2388 0.4891 0.0
C43 C 0.6695 0.25492 0.50734 0.0
C44 C 0.70047 0.30457 0.51016 0.0
C45 C 0.69315 0.33907 0.49506 0.0
C46 C 0.65347 0.32325 0.47758 0.0
C47 C 0.62268 0.27311 0.47438 0.0
C48 C 0.64943 0.10196 0.54536 0.0
C49 C 0.75454 0.19386 0.49236 0.0
C50 C 0.7261 1.02172 0.5094 0.0
Eu51 Eu 0.6878 0.07562 0.49661 0.0
C52 C 0.7225 0.97516 0.50418 0.0
C53 C 0.69793 0.94904 0.48166 0.0
C54 C 0.70211 0.90914 0.47486 0.0
C55 C 0.73134 0.89574 0.49038 0.0
C56 C 0.75356 0.92046 0.51364 0.0
C57 C 0.74916 0.95984 0.52046 0.0
C58 C 0.67074 0.09882 0.44599 0.0
C59 C 0.56657 1.00575 0.4914 0.0
O60 O 0.62407 0.1745 0.46568 0.0
O61 O 0.59056 0.15659 0.50469 0.0
O62 O 0.60885 0.09645 0.53626 0.0
O63 O 0.68047 0.11947 0.52693 0.0
O64 O 0.71218 0.19059 0.48647 0.0
O65 O 0.75404 0.15302 0.50074 0.0
O66 O 0.69203 1.02059 0.52342 0.0
O67 O 0.74028 1.05415 0.48936 0.0
O68 O 0.71134 0.10266 0.45365 0.0
O69 O 0.64098 0.08083 0.46468 0.0
O70 O 0.60838 1.0077 0.49784 0.0
O71 O 0.56747 1.04798 0.48616 0.0
H72 H 0.67663 0.22906 0.51884 0.0
H73 H 0.73065 0.31612 0.52392 0.0
H74 H 0.64736 0.34958 0.46584 0.0
H75 H 0.5934 0.26121 0.46 0.0
H76 H 0.67724 0.9607 0.46887 0.0
H77 H 0.68451 0.89032 0.45695 0.0
H78 H 0.77559 0.91014 0.52616 0.0
H79 H 0.76832 0.97965 0.53786 0.0
C80 C 0.86019 0.7091 0.81601 0.0
Eu81 Eu 0.76997 0.65558 0.82905 0.0
C82 C 0.89504 0.69539 0.80759 0.0
C83 C 0.93424 0.70421 0.82434 0.0
C84 C 0.95938 0.67962 0.82115 0.0
C85 C 0.9456 0.64583 0.80113 0.0
C86 C 0.91009 0.64143 0.7825 0.0
C87 C 0.88511 0.66617 0.78564 0.0
C88 C 0.73707 0.62405 0.87986 0.0
C89 C 0.72282 0.5377 0.82857 0.0
C90 C 0.57599 0.53835 0.84257 0.0
Eu91 Eu 0.66555 0.6014 0.83122 0.0
C92 C 0.52428 0.52139 0.83888 0.0
C93 C 0.49693 0.48359 0.82158 0.0
C94 C 0.44678 0.45928 0.82198 0.0
C95 C 0.42285 0.47211 0.83978 0.0
C96 C 0.45022 0.51206 0.85585 0.0
C97 C 0.5005 0.53631 0.85553 0.0
C98 C 0.70106 0.62734 0.7811 0.0
C99 C 0.71185 0.71998 0.8254 0.0
O100 O 0.8248 0.70108 0.79943 0.0
O101 O 0.84559 0.69568 0.84071 0.0
O102 O 0.77368 0.62396 0.87 0.0
O103 O 0.7196 0.64213 0.86264 0.0
O104 O 0.76076 0.58013 0.82065 0.0
O105 O 0.68484 0.53881 0.83766 0.0
O106 O 0.60293 0.57588 0.857 0.0
O107 O 0.59883 0.53566 0.8224 0.0
O108 O 0.6635 0.62906 0.78816 0.0
O109 O 0.71586 0.61069 0.80014 0.0
O110 O 0.67116 0.6775 0.82954 0.0
O111 O 0.75308 0.7196 0.82386 0.0
H112 H 0.94284 0.72691 0.84125 0.0
H113 H 0.98651 0.68372 0.8359 0.0
H114 H 0.89936 0.61626 0.76661 0.0
H115 H 0.85591 0.6596 0.77196 0.0
H116 H 0.51418 0.47073 0.8088 0.0
H117 H 0.42688 0.42843 0.80954 0.0
H118 H 0.43276 0.52337 0.86945 0.0
H119 H 0.52056 0.56508 0.86922 0.0
H120 H 0.67254 0.25125 0.25252 0.0
H121 H 0.5224 0.17145 0.27339 0.0
H122 H 0.56401 0.21475 0.19155 0.0
H123 H 0.48921 0.22031 0.20014 0.0
C124 C 0.4654 0.1836 0.20997 0.0
O125 O 0.49151 0.16609 0.22439 0.0
H126 H 0.44088 0.18696 0.2236 0.0
C127 C 0.63498 0.236 0.24686 0.0
C128 C 0.62263 0.23796 0.21983 0.0
C129 C 0.59922 0.2113 0.26636 0.0
C130 C 0.55064 0.19188 0.25884 0.0
C131 C 0.53802 0.19324 0.23188 0.0
C132 C 0.57399 0.21537 0.21243 0.0
H133 H 0.78712 0.68541 0.57768 0.0
H134 H 0.90689 0.67724 0.61262 0.0
H135 H 0.89586 0.69023 0.52746 0.0
H136 H 0.95468 0.63419 0.59026 0.0
C137 C 0.95362 0.64525 0.56884 0.0
O138 O 0.94856 0.68618 0.56706 0.0
H139 H 0.98891 0.65518 0.56022 0.0
C140 C 0.81967 0.68404 0.57507 0.0
C141 C 0.83781 0.68827 0.54927 0.0
C142 C 0.84368 0.67909 0.59794 0.0
C143 C 0.88737 0.68008 0.59514 0.0
C144 C 0.90607 0.6846 0.56971 0.0
C145 C 0.88097 0.68764 0.5469 0.0
H146 H 1.02308 0.454 0.925 0.0
H147 H 1.08872 0.36635 0.94528 0.0
H148 H 1.05532 0.38629 0.86369 0.0
H149 H 1.05113 0.29956 0.87153 0.0
C150 C 1.08077 0.30733 0.88616 0.0
O151 O 0.09851 0.35279 0.8961 0.0
H152 H 1.06685 0.27871 0.90275 0.0
C153 C 1.03469 0.4291 0.91939 0.0
C154 C 1.03389 0.41983 0.89228 0.0
C155 C 1.05521 0.41079 0.93874 0.0
C156 C 1.0719 0.38018 0.93085 0.0
C157 C 1.07194 0.3716 0.90388 0.0
C158 C 1.05323 0.39155 0.88465 0.0
H159 H 1.06532 0.49867 0.41413 0.0
H160 H 0.1983 0.63514 0.41816 0.0
H161 H 0.11992 0.56169 0.49069 0.0
H162 H 0.26213 0.64981 0.45352 0.0
C163 C 0.25062 0.65887 0.47189 0.0
O164 O 0.20114 0.64505 0.46915 0.0
H165 H 0.2531 0.63478 0.48822 0.0
C166 C 1.0921 0.52743 0.42612 0.0
C167 C 1.08536 0.52376 0.45406 0.0
C168 C 0.13273 0.56648 0.41316 0.0
C169 C 0.16815 0.60428 0.42831 0.0
C170 C 0.16563 0.60379 0.45627 0.0
C171 C 0.12366 0.5625 0.46928 0.0
H172 H 0.70479 1.0291 0.74828 0.0
H173 H 0.7135 0.1685 0.75204 0.0
H174 H 0.71927 0.09079 0.82488 0.0
H175 H 0.66282 0.16698 0.82153 0.0
C176 C 0.68846 0.19122 0.80568 0.0
O177 O 0.72302 0.1762 0.80333 0.0
H178 H 0.66678 0.18357 0.78694 0.0
C179 C 0.70837 1.05815 0.76015 0.0
C180 C 0.7127 1.05353 0.78818 0.0
C181 C 0.70764 0.09853 0.747 0.0
C182 C 0.71213 0.13659 0.76219 0.0
C183 C 0.71541 0.13497 0.79026 0.0
C184 C 0.71532 0.09247 0.80337 0.0
H185 H 0.76182 0.57433 0.0845 0.0
H186 H 0.63577 0.58811 0.08647 0.0
H187 H 0.69883 0.56747 0.16057 0.0
H188 H 0.56555 0.51347 0.14823 0.0
C189 C 0.57303 0.54697 0.13594 0.0
O190 O 0.62381 0.58047 0.13792 0.0
H191 H 0.56445 0.5352 0.11507 0.0
C192 C 0.73421 0.57443 0.0962 0.0
C193 C 0.73687 0.56999 0.12431 0.0
C194 C 0.69826 0.58058 0.08252 0.0
C195 C 0.66284 0.58277 0.09716 0.0
C196 C 0.66035 0.57666 0.12526 0.0
C197 C 0.69865 0.57088 0.13896 0.0
H198 H 0.34896 0.64724 0.14698 0.0
H199 H 0.27519 0.49227 0.16554 0.0
H200 H 0.4251 0.64716 0.14265 0.0
H201 H 0.3507 0.49213 0.16167 0.0
H202 H 0.49852 0.50212 0.17325 0.0
H203 H 0.42693 0.50862 0.17864 0.0
H204 H 0.48 0.62806 0.11935 0.0
H205 H 0.55209 0.62073 0.11368 0.0
C206 C 0.3484 0.61288 0.15034 0.0
C207 C 0.30386 0.56976 0.15683 0.0
C208 C 0.39294 0.61275 0.14767 0.0
C209 C 0.39647 0.56966 0.15183 0.0
C210 C 0.35184 0.52678 0.15849 0.0
C211 C 0.30737 0.52678 0.16066 0.0
C212 C 0.49626 0.53098 0.16169 0.0
C213 C 0.53405 0.56184 0.14358 0.0
C214 C 0.4537 0.5342 0.1645 0.0
C215 C 0.44511 0.56872 0.14944 0.0
C216 C 0.48354 0.60084 0.13181 0.0
C217 C 0.52611 0.59704 0.12869 0.0
H218 H 0.77189 0.28733 0.47424 0.0
H219 H 0.85008 0.21603 0.50265 0.0
H220 H 0.84766 0.36459 0.46806 0.0
H221 H 0.92622 0.29322 0.49626 0.0
H222 H 1.06567 0.44835 0.49449 0.0
H223 H 0.98919 0.37237 0.50464 0.0
H224 H 0.91676 0.41894 0.44614 0.0
H225 H 0.99222 0.49407 0.43663 0.0
C226 C 0.8051 0.28764 0.47925 0.0
C227 C 0.80303 0.24358 0.48905 0.0
C228 C 0.84964 0.33287 0.4755 0.0
C229 C 0.89549 0.33753 0.48136 0.0
C230 C 0.8932 0.29338 0.4915 0.0
C231 C 0.84861 0.24805 0.49513 0.0
C232 C 1.03331 0.44316 0.48422 0.0
C233 C 1.03674 0.4795 0.46484 0.0
C234 C 0.98865 0.39839 0.48977 0.0
C235 C 0.9444 0.38708 0.4764 0.0
C236 C 0.94811 0.4243 0.45758 0.0
C237 C 0.99246 0.46849 0.45197 0.0
H238 H 0.78827 0.81485 0.81429 0.0
H239 H 0.63595 0.74013 0.82872 0.0
H240 H 0.78974 0.89261 0.80858 0.0
H241 H 0.63702 0.81823 0.82266 0.0
H242 H 0.65347 0.9743 0.8245 0.0
H243 H 0.65266 0.89659 0.83424 0.0
H244 H 0.77657 0.94854 0.78397 0.0
H245 H 0.77735 1.02528 0.77478 0.0
C246 C 0.75469 0.81451 0.81624 0.0
C247 C 0.71199 0.76941 0.82205 0.0
C248 C 0.75541 0.86005 0.81272 0.0
C249 C 0.71346 0.86395 0.81482 0.0
C250 C 0.67071 0.81874 0.82094 0.0
C251 C 0.66997 0.77301 0.82434 0.0
C252 C 0.68144 0.96986 0.81609 0.0
C253 C 0.71624 1.00817 0.79919 0.0
C254 C 0.68058 0.92421 0.82134 0.0
C255 C 0.71457 0.91408 0.81012 0.0
C256 C 0.74979 0.95311 0.79373 0.0
C257 C 0.75036 0.99818 0.78837 0.0
H258 H 1.0419 0.63749 0.16757 0.0
H259 H 0.97269 0.48941 0.14353 0.0
H260 H 0.96583 0.63732 0.16214 0.0
H261 H 0.89623 0.48856 0.13849 0.0
H262 H 0.76322 0.50217 0.11217 0.0
H263 H 0.83739 0.50054 0.12054 0.0
H264 H 0.8899 0.62544 0.16873 0.0
H265 H 0.81495 0.62718 0.15967 0.0
C266 C 1.01056 0.60439 0.16121 0.0
C267 C 1.01558 0.56348 0.15612 0.0
C268 C 0.96568 0.60415 0.15812 0.0
C269 C 0.92204 0.56295 0.14962 0.0
C270 C 0.92726 0.52192 0.14468 0.0
C271 C 0.97216 0.52218 0.14779 0.0
C272 C 0.78983 0.52892 0.12516 0.0
C273 C 0.78039 0.56405 0.13554 0.0
C274 C 0.83374 0.52814 0.13003 0.0
C275 C 0.8726 0.56288 0.14554 0.0
C276 C 0.86285 0.59768 0.15644 0.0
C277 C 0.81847 0.59828 0.1516 0.0
H278 H 0.47638 0.98571 0.4703 0.0
H279 H 0.5452 0.90979 0.50665 0.0
H280 H 0.40098 0.90758 0.46629 0.0
H281 H 0.46993 0.83172 0.50288 0.0
H282 H 0.31868 0.69533 0.51294 0.0
H283 H 0.39077 0.77511 0.51737 0.0
H284 H 0.3508 0.82978 0.446 0.0
H285 H 0.27818 0.7488 0.44153 0.0
C286 C 0.47589 0.95255 0.47758 0.0
C287 C 0.51858 0.95585 0.48896 0.0
C288 C 0.43187 0.90684 0.47511 0.0
C289 C 0.42721 0.86123 0.48426 0.0
C290 C 0.47002 0.86472 0.49573 0.0
C291 C 0.51419 0.91034 0.49782 0.0
C292 C 0.32407 0.7244 0.49839 0.0
C293 C 0.28998 0.71415 0.47729 0.0
C294 C 0.3668 0.77092 0.50072 0.0
C295 C 0.37889 0.811 0.48207 0.0
C296 C 0.34415 0.80134 0.46124 0.0
C297 C 0.30144 0.75426 0.45873 0.0
H298 H 0.65448 0.44262 0.84687 0.0
H299 H 0.78864 0.51806 0.80451 0.0
H300 H 0.65158 0.36476 0.84239 0.0
H301 H 0.78589 0.43999 0.7999 0.0
H302 H 0.74359 0.28027 0.77453 0.0
H303 H 0.7536 0.36161 0.78008 0.0
H304 H 0.6777 0.30888 0.85473 0.0
H305 H 0.66821 0.22859 0.84914 0.0
C306 C 0.68376 0.4431 0.83664 0.0
C307 C 0.7219 0.48834 0.82627 0.0
C308 C 0.68226 0.3976 0.83411 0.0
C309 C 0.71851 0.39399 0.82072 0.0
C310 C 0.75661 0.43938 0.8102 0.0
C311 C 0.75839 0.48504 0.81303 0.0
C312 C 0.73037 0.28625 0.79261 0.0
C313 C 0.70615 0.2465 0.81165 0.0
C314 C 0.7357 0.33352 0.79577 0.0
C315 C 0.71615 0.34375 0.81787 0.0
C316 C 0.69297 0.30414 0.8371 0.0
C317 C 0.68818 0.25736 0.83408 0.0
H318 H 0.81873 0.90705 0.4827 0.0
H319 H 0.66746 0.80008 0.47996 0.0
H320 H 0.83866 0.84345 0.48274 0.0
H321 H 0.68699 0.73489 0.47849 0.0
H322 H 0.74137 0.65656 0.54067 0.0
H323 H 0.71001 0.69851 0.51224 0.0
H324 H 0.84684 0.77993 0.4718 0.0
H325 H 0.88024 0.74319 0.50282 0.0
C326 C 0.78973 0.86963 0.48113 0.0
C327 C 0.74168 0.8581 0.48225 0.0
C328 C 0.80105 0.83277 0.48077 0.0
C329 C 0.76443 0.78326 0.4814 0.0
C330 C 0.71618 0.77237 0.47892 0.0
C331 C 0.70486 0.80961 0.47951 0.0
C332 C 0.765 0.68361 0.52581 0.0
C333 C 0.81439 0.69898 0.52555 0.0
C334 C 0.74652 0.70701 0.50887 0.0
C335 C 0.77672 0.74507 0.49062 0.0
C336 C 0.82328 0.75296 0.48672 0.0
C337 C 0.84237 0.7311 0.50441 0.0
H338 H 0.88929 0.54751 0.79781 0.0
H339 H 1.03657 0.66101 0.81044 0.0
H340 H 0.90987 0.48575 0.81298 0.0
H341 H 1.05693 0.599 0.82611 0.0
H342 H 1.08251 0.47373 0.84774 0.0
H343 H 1.06149 0.52359 0.81711 0.0
H344 H 0.93008 0.47304 0.86081 0.0
H345 H 0.951 0.42317 0.89124 0.0
C346 C 0.92648 0.55921 0.80286 0.0
C347 C 0.96133 0.60917 0.80319 0.0
C348 C 0.93808 0.5238 0.81181 0.0
C349 C 0.98474 0.53769 0.82109 0.0
C350 C 1.02067 0.58728 0.819 0.0
C351 C 1.00901 0.62279 0.81019 0.0
C352 C 1.0486 0.47245 0.85033 0.0
C353 C 1.01832 0.4448 0.87183 0.0
C354 C 1.03676 0.50111 0.83293 0.0
C355 C 0.99419 0.50205 0.83658 0.0
C356 C 0.96282 0.47248 0.8573 0.0
C357 C 0.97492 0.44432 0.87485 0.0
H358 H 0.28094 0.91027 0.13417 0.0
H359 H 0.42242 0.93215 0.15301 0.0
H360 H 0.31051 0.9968 0.13997 0.0
H361 H 0.45208 1.01884 0.15859 0.0
H362 H 0.49796 0.1755 0.16213 0.0
H363 H 0.4639 0.10171 0.13679 0.0
H364 H 0.33764 1.03507 0.18656 0.0
H365 H 0.37241 0.10811 0.21237 0.0
C366 C 0.31879 0.93398 0.13853 0.0
C367 C 0.34945 0.9146 0.14329 0.0
C368 C 0.33555 0.98336 0.14197 0.0
C369 C 0.38341 1.01429 0.1498 0.0
C370 C 0.41509 0.99582 0.15229 0.0
C371 C 0.39814 0.94625 0.14927 0.0
C372 C 0.4622 0.14574 0.16699 0.0
C373 C 0.43773 0.14736 0.18918 0.0
C374 C 0.44285 0.10356 0.15256 0.0
C375 C 0.39838 1.06276 0.15986 0.0
C376 C 0.3718 1.06625 0.18035 0.0
C377 C 0.39156 0.10805 0.19508 0.0
H378 H 0.78751 0.38579 0.4829 0.0
H379 H 0.67768 0.40819 0.51446 0.0
H380 H 0.84961 0.46609 0.49688 0.0
H381 H 0.73986 0.48898 0.5286 0.0
H382 H 0.86732 0.57349 0.58884 0.0
H383 H 0.80145 0.50649 0.5655 0.0
H384 H 0.88362 0.55766 0.49249 0.0
H385 H 0.94952 0.62517 0.51603 0.0
C386 C 0.7768 0.40878 0.49213 0.0
C387 C 0.72822 0.39123 0.49774 0.0
C388 C 0.81218 0.45467 0.50006 0.0
C389 C 0.7995 0.48347 0.51404 0.0
C390 C 0.75051 0.46719 0.51806 0.0
C391 C 0.71502 0.42136 0.50982 0.0
C392 C 0.87116 0.57022 0.56782 0.0
C393 C 0.9137 0.60343 0.5543 0.0
C394 C 0.83333 0.53243 0.55437 0.0
C395 C 0.83745 0.52703 0.52717 0.0
C396 C 0.87969 0.56093 0.5135 0.0
C397 C 0.91737 0.59917 0.52692 0.0
H398 H 0.37395 0.44291 0.88673 0.0
H399 H 0.35262 0.4293 0.80137 0.0
H400 H 0.28823 0.39006 0.89356 0.0
H401 H 0.26638 0.37412 0.80835 0.0
H402 H 0.11562 0.34765 0.83679 0.0
H403 H 0.19825 0.38019 0.8224 0.0
H404 H 0.22371 0.30685 0.89139 0.0
H405 H 0.14144 0.27598 0.90617 0.0
C406 C 0.35091 0.42875 0.86938 0.0
C407 C 0.37009 0.44084 0.84348 0.0
C408 C 0.30178 0.39748 0.87333 0.0
C409 C 0.27049 0.37717 0.85152 0.0
C410 C 0.28957 0.3891 0.82557 0.0
C411 C 0.33892 0.42058 0.82159 0.0
C412 C 0.13831 0.33667 0.84813 0.0
C413 C 0.12231 0.30921 0.87248 0.0
C414 C 0.18575 0.35549 0.83999 0.0
C415 C 0.21786 0.34706 0.85611 0.0
C416 C 0.20009 0.31494 0.87889 0.0
C417 C 0.15281 0.29656 0.88715 0.0
H418 H 0.89037 0.40906 0.13409 0.0
H419 H 0.85405 0.25773 0.13876 0.0
H420 H 0.80844 0.38457 0.146 0.0
H421 H 0.77245 0.23331 0.15178 0.0
H422 H 0.62556 0.19818 0.17369 0.0
H423 H 0.69402 0.22806 0.14366 0.0
H424 H 0.77444 0.35481 0.19067 0.0
H425 H 0.70588 0.32551 0.22015 0.0
C426 C 0.86457 0.37044 0.13682 0.0
C427 C 0.87899 0.33539 0.136 0.0
C428 C 0.81769 0.35646 0.14392 0.0
C429 C 0.78434 0.30716 0.1504 0.0
C430 C 0.79732 0.27164 0.14692 0.0
C431 C 0.84423 0.28564 0.13974 0.0
C432 C 0.65744 0.23311 0.17708 0.0
C433 C 0.66075 0.25941 0.19935 0.0
C434 C 0.69666 0.25001 0.16001 0.0
C435 C 0.73964 0.29362 0.16486 0.0
C436 C 0.74166 0.32137 0.18616 0.0
C437 C 0.70265 0.30437 0.20326 0.0
H438 H 0.1058 0.59349 0.07171 0.0
H439 H 0.17421 0.50979 0.0963 0.0
H440 H 1.07731 0.54876 0.03066 0.0
H441 H 0.14466 0.46418 0.05603 0.0
H442 H 0.13894 0.44132 0.96667 0.0
H443 H 0.16174 0.48085 0.00882 0.0
H444 H 1.02149 0.46681 0.01412 0.0
H445 H 0.99837 0.42677 0.97155 0.0
C446 C 0.11461 0.56549 0.06832 0.0
C447 C 0.14225 0.55511 0.08705 0.0
C448 C 0.0979 0.53953 0.04503 0.0
C449 C 0.10874 0.50292 0.04011 0.0
C450 C 0.13615 0.49253 0.05905 0.0
C451 C 0.15286 0.51846 0.0822 0.0
C452 C 0.1124 0.44543 0.97708 0.0
C453 C 1.06656 0.43027 0.96587 0.0
C454 C 0.12562 0.46839 0.00123 0.0
C455 C 1.09341 0.47691 0.01486 0.0
C456 C 1.04728 0.46123 0.00392 0.0
C457 C 1.03397 0.43811 0.97965 0.0
H458 H 0.58536 0.08685 0.42704 0.0
H459 H 0.73519 0.15166 0.40646 0.0
H460 H 0.56962 0.11738 0.38419 0.0
H461 H 0.71995 0.18361 0.36385 0.0
H462 H 0.66189 0.17904 0.27865 0.0
H463 H 0.68018 0.15411 0.32221 0.0
H464 H 0.58394 0.19081 0.35902 0.0
H465 H 0.56501 0.21525 0.31498 0.0
C466 C 0.61495 0.1078 0.41332 0.0
C467 C 0.66141 0.11663 0.41988 0.0
C468 C 0.60605 0.12573 0.3889 0.0
C469 C 0.64352 0.15306 0.37058 0.0
C470 C 0.69013 0.16211 0.37733 0.0
C471 C 0.69894 0.14393 0.40172 0.0
C472 C 0.64529 0.18272 0.29607 0.0
C473 C 0.61235 0.19962 0.29341 0.0
C474 C 0.65578 0.16836 0.32109 0.0
C475 C 0.63368 0.17057 0.34416 0.0
C476 C 0.60114 0.18807 0.3416 0.0
C477 C 0.59043 0.20227 0.31644 0.0
H478 H 0.67308 0.65955 0.73526 0.0
H479 H 0.77219 0.61349 0.76554 0.0
H480 H 0.70614 0.6716 0.69029 0.0
H481 H 0.8071 0.62824 0.72165 0.0
H482 H 0.82777 0.60834 0.6364 0.0
H483 H 0.79025 0.59488 0.67978 0.0
H484 H 0.77532 0.72228 0.66323 0.0
H485 H 0.81125 0.7343 0.6193 0.0
C486 C 0.70219 0.65251 0.73232 0.0
C487 C 0.72037 0.63596 0.75385 0.0
C488 C 0.7214 0.6597 0.70667 0.0
C489 C 0.75925 0.6507 0.70224 0.0
C490 C 0.77741 0.63461 0.72404 0.0
C491 C 0.75788 0.62687 0.74937 0.0
C492 C 0.81668 0.63355 0.64218 0.0
C493 C 0.82264 0.67248 0.62467 0.0
C494 C 0.79525 0.62599 0.66704 0.0
C495 C 0.78 0.65773 0.67518 0.0
C496 C 0.78597 0.69672 0.65753 0.0
C497 C 0.80685 0.70386 0.63247 0.0
H498 H 0.58655 0.07511 0.58632 0.0
H499 H 0.73573 0.12511 0.5707 0.0
H500 H 0.60218 0.07498 0.63419 0.0
H501 H 0.75179 0.12559 0.61903 0.0
H502 H 0.74907 0.07315 0.70844 0.0
H503 H 0.73647 0.07354 0.66003 0.0
H504 H 0.64147 0.13081 0.66909 0.0
H505 H 0.65284 0.12896 0.7174 0.0
C506 C 0.62284 0.08616 0.59312 0.0
C507 C 0.65992 0.10034 0.57458 0.0
C508 C 0.63192 0.08644 0.6207 0.0
C509 C 0.67841 0.10079 0.63074 0.0
C510 C 0.71546 0.11408 0.61216 0.0
C511 C 0.70634 0.11398 0.58442 0.0
C512 C 0.72524 0.08556 0.70015 0.0
C513 C 0.70181 0.10077 0.71707 0.0
C514 C 0.71842 0.08629 0.67226 0.0
C515 C 0.68769 0.10195 0.66042 0.0
C516 C 0.66484 0.1178 0.67735 0.0
C517 C 0.67182 0.11728 0.70516 0.0
H518 H 0.67044 0.63441 0.90807 0.0
H519 H 0.7807 0.59511 0.91813 0.0
H520 H 0.6567 0.62199 0.95659 0.0
H521 H 0.76827 0.58413 0.96604 0.0
H522 H 0.71056 0.52408 0.04819 0.0
H523 H 0.7151 0.53219 -0.00034 0.0
H524 H 0.69069 0.65429 -0.00038 0.0
H525 H 0.68522 0.64535 0.04849 0.0
C526 C 0.69169 0.62313 0.9206 0.0
C527 C 0.72661 0.6157 0.90913 0.0
C528 C 0.68409 0.61629 0.94847 0.0
C529 C 0.71112 0.60169 0.96554 0.0
C530 C 0.74589 0.59431 0.9538 0.0
C531 C 0.75334 0.60102 0.92615 0.0
C532 C 0.70623 0.55276 0.03789 0.0
C533 C 0.6981 0.58439 0.05244 0.0
C534 C 0.70896 0.55757 0.00992 0.0
C535 C 0.70404 0.59445 -0.0046 0.0
C536 C 0.69438 0.62521 0.00989 0.0
C537 C 0.69133 0.62017 0.03801 0.0
H538 H 0.11827 0.59485 0.23699 0.0
H539 H 0.20127 0.52356 0.25402 0.0
H540 H 0.11255 0.60143 0.28508 0.0
H541 H 0.19571 0.53012 0.30185 0.0
H542 H 0.21372 0.58896 0.38512 0.0
H543 H 0.22262 0.58947 0.33688 0.0
H544 H 1.07309 0.54687 0.32532 0.0
H545 H 1.06435 0.54694 0.3736 0.0
C546 C 0.13568 0.58102 0.25097 0.0
C547 C 0.16022 0.55865 0.24162 0.0
C548 C 0.1321 0.58443 0.27856 0.0
C549 C 0.15355 0.5662 0.29751 0.0
C550 C 0.1791 0.545 0.28799 0.0
C551 C 0.18216 0.54107 0.2605 0.0
C552 C 0.1828 0.58011 0.3723 0.0
C553 C 0.13827 0.56779 0.38341 0.0
C554 C 0.18781 0.58002 0.34459 0.0
C555 C 0.14858 0.56812 0.32704 0.0
C556 C 0.10423 0.55662 0.3381 0.0
C557 C 0.09908 0.55618 0.36586 0.0
loop_
_geom_bond_atom_site_label_1
_geom_bond_atom_site_label_2
_geom_bond_distance
_geom_bond_site_symmetry_2
_ccdc_geom_bond_type
C0 Eu1 2.835 . S
C0 C2 1.500 . S
C0 O20 1.257 . S
C0 O21 1.260 . S
Eu1 C0 2.835 . S
Eu1 O20 2.473 . S
Eu1 O21 2.480 . S
Eu1 O22 2.430 1_655 S
Eu1 O23 2.670 1_655 S
Eu1 O24 2.394 . S
Eu1 O29 2.355 1_655 S
Eu1 O31 2.374 1_655 S
C2 C0 1.500 . S
C2 C3 1.377 . S
C2 C7 1.377 . S
C3 C2 1.377 . S
C3 C4 1.395 . S
C3 H32 0.931 . S
C4 C3 1.395 . S
C4 C5 1.383 . S
C4 H33 0.931 . S
C5 C4 1.383 . S
C5 C6 1.394 . S
C6 C5 1.394 . S
C6 C7 1.378 . S
C6 H34 0.931 . S
C7 C2 1.377 . S
C7 C6 1.378 . S
C7 H35 0.931 . S
C8 O22 1.259 . S
C8 O23 1.270 . S
C9 O24 1.251 . S
C9 O25 1.251 . S
C10 Eu11 2.835 . S
C10 C12 1.500 . S
C10 O26 1.257 . S
C10 O27 1.260 . S
Eu11 C10 2.835 . S
Eu11 O23 2.355 . S
Eu11 O25 2.374 1_455 S
Eu11 O26 2.473 . S
Eu11 O27 2.480 . S
Eu11 O28 2.430 . S
Eu11 O29 2.670 . S
Eu11 O30 2.394 . S
C12 C10 1.500 . S
C12 C13 1.377 . S
C12 C17 1.377 . S
C13 C12 1.377 . S
C13 C14 1.395 . S
C13 H36 0.931 . S
C14 C13 1.395 . S
C14 C15 1.383 . S
C14 H37 0.931 . S
C15 C14 1.383 . S
C15 C16 1.394 . S
C16 C15 1.394 . S
C16 C17 1.378 . S
C16 H38 0.931 . S
C17 C12 1.377 . S
C17 C16 1.378 . S
C17 H39 0.931 . S
C18 O28 1.259 . S
C18 O29 1.270 . S
C19 O30 1.251 . S
C19 O31 1.251 . S
O20 C0 1.257 . S
O20 Eu1 2.473 . S
O21 C0 1.260 . S
O21 Eu1 2.480 . S
O22 Eu1 2.430 1_455 S
O22 C8 1.259 . S
O23 Eu1 2.670 1_455 S
O23 C8 1.270 . S
O23 Eu11 2.355 . S
O24 Eu1 2.394 . S
O24 C9 1.251 . S
O25 C9 1.251 . S
O25 Eu11 2.374 1_655 S
O26 C10 1.257 . S
O26 Eu11 2.473 . S
O27 C10 1.260 . S
O27 Eu11 2.480 . S
O28 Eu11 2.430 . S
O28 C18 1.259 . S
O29 Eu1 2.355 1_455 S
O29 Eu11 2.670 . S
O29 C18 1.270 . S
O30 Eu11 2.394 . S
O30 C19 1.251 . S
O31 Eu1 2.374 1_455 S
O31 C19 1.251 . S
H32 C3 0.931 . S
H33 C4 0.931 . S
H34 C6 0.931 . S
H35 C7 0.931 . S
H36 C13 0.931 . S
H37 C14 0.931 . S
H38 C16 0.931 . S
H39 C17 0.931 . S
C40 Eu41 2.835 . S
C40 C42 1.500 . S
C40 O60 1.257 . S
C40 O61 1.260 . S
Eu41 C40 2.835 . S
Eu41 O60 2.473 . S
Eu41 O61 2.480 . S
Eu41 O62 2.430 . S
Eu41 O63 2.670 . S
Eu41 O64 2.394 . S
Eu41 O69 2.355 . S
Eu41 O71 2.374 1_545 S
C42 C40 1.500 . S
C42 C43 1.377 . S
C42 C47 1.377 . S
C43 C42 1.377 . S
C43 C44 1.395 . S
C43 H72 0.931 . S
C44 C43 1.395 . S
C44 C45 1.383 . S
C44 H73 0.931 . S
C45 C44 1.383 . S
C45 C46 1.394 . S
C46 C45 1.394 . S
C46 C47 1.378 . S
C46 H74 0.931 . S
C47 C42 1.377 . S
C47 C46 1.378 . S
C47 H75 0.931 . S
C48 O62 1.259 . S
C48 O63 1.270 . S
C49 O64 1.251 . S
C49 O65 1.251 . S
C50 Eu51 2.835 1_565 S
C50 C52 1.500 . S
C50 O66 1.257 . S
C50 O67 1.260 . S
Eu51 C50 2.835 1_545 S
Eu51 O63 2.355 . S
Eu51 O65 2.374 . S
Eu51 O66 2.473 1_545 S
Eu51 O67 2.480 1_545 S
Eu51 O68 2.430 . S
Eu51 O69 2.670 . S
Eu51 O70 2.394 1_545 S
C52 C50 1.500 . S
C52 C53 1.377 . S
C52 C57 1.377 . S
C53 C52 1.377 . S
C53 C54 1.395 . S
C53 H76 0.931 . S
C54 C53 1.395 . S
C54 C55 1.383 . S
C54 H77 0.931 . S
C55 C54 1.383 . S
C55 C56 1.394 . S
C56 C55 1.394 . S
C56 C57 1.378 . S
C56 H78 0.931 . S
C57 C52 1.377 . S
C57 C56 1.378 . S
C57 H79 0.931 . S
C58 O68 1.259 . S
C58 O69 1.270 . S
C59 O70 1.251 . S
C59 O71 1.251 . S
O60 C40 1.257 . S
O60 Eu41 2.473 . S
O61 C40 1.260 . S
O61 Eu41 2.480 . S
O62 Eu41 2.430 . S
O62 C48 1.259 . S
O63 Eu41 2.670 . S
O63 C48 1.270 . S
O63 Eu51 2.355 . S
O64 Eu41 2.394 . S
O64 C49 1.251 . S
O65 C49 1.251 . S
O65 Eu51 2.374 . S
O66 C50 1.257 . S
O66 Eu51 2.473 1_565 S
O67 C50 1.260 . S
O67 Eu51 2.480 1_565 S
O68 Eu51 2.430 . S
O68 C58 1.259 . S
O69 Eu41 2.355 . S
O69 Eu51 2.670 . S
O69 C58 1.270 . S
O70 Eu51 2.394 1_565 S
O70 C59 1.251 . S
O71 Eu41 2.374 1_565 S
O71 C59 1.251 . S
H72 C43 0.931 . S
H73 C44 0.931 . S
H74 C46 0.931 . S
H75 C47 0.931 . S
H76 C53 0.931 . S
H77 C54 0.931 . S
H78 C56 0.931 . S
H79 C57 0.931 . S
C80 Eu81 2.835 . S
C80 C82 1.500 . S
C80 O100 1.257 . S
C80 O101 1.260 . S
Eu81 C80 2.835 . S
Eu81 O100 2.473 . S
Eu81 O101 2.480 . S
Eu81 O102 2.430 . S
Eu81 O103 2.670 . S
Eu81 O104 2.394 . S
Eu81 O109 2.355 . S
Eu81 O111 2.374 . S
C82 C80 1.500 . S
C82 C83 1.377 . S
C82 C87 1.377 . S
C83 C82 1.377 . S
C83 C84 1.395 . S
C83 H112 0.931 . S
C84 C83 1.395 . S
C84 C85 1.383 . S
C84 H113 0.931 . S
C85 C84 1.383 . S
C85 C86 1.394 . S
C86 C85 1.394 . S
C86 C87 1.378 . S
C86 H114 0.931 . S
C87 C82 1.377 . S
C87 C86 1.378 . S
C87 H115 0.931 . S
C88 O102 1.259 . S
C88 O103 1.270 . S
C89 O104 1.251 . S
C89 O105 1.251 . S
C90 Eu91 2.835 . S
C90 C92 1.500 . S
C90 O106 1.257 . S
C90 O107 1.260 . S
Eu91 C90 2.835 . S
Eu91 O103 2.355 . S
Eu91 O105 2.374 . S
Eu91 O106 2.473 . S
Eu91 O107 2.480 . S
Eu91 O108 2.430 . S
Eu91 O109 2.670 . S
Eu91 O110 2.394 . S
C92 C90 1.500 . S
C92 C93 1.377 . S
C92 C97 1.377 . S
C93 C92 1.377 . S
C93 C94 1.395 . S
C93 H116 0.931 . S
C94 C93 1.395 . S
C94 C95 1.383 . S
C94 H117 0.931 . S
C95 C94 1.383 . S
C95 C96 1.394 . S
C96 C95 1.394 . S
C96 C97 1.378 . S
C96 H118 0.931 . S
C97 C92 1.377 . S
C97 C96 1.378 . S
C97 H119 0.931 . S
C98 O108 1.259 . S
C98 O109 1.270 . S
C99 O110 1.251 . S
C99 O111 1.251 . S
O100 C80 1.257 . S
O100 Eu81 2.473 . S
O101 C80 1.260 . S
O101 Eu81 2.480 . S
O102 Eu81 2.430 . S
O102 C88 1.259 . S
O103 Eu81 2.670 . S
O103 C88 1.270 . S
O103 Eu91 2.355 . S
O104 Eu81 2.394 . S
O104 C89 1.251 . S
O105 C89 1.251 . S
O105 Eu91 2.374 . S
O106 C90 1.257 . S
O106 Eu91 2.473 . S
O107 C90 1.260 . S
O107 Eu91 2.480 . S
O108 Eu91 2.430 . S
O108 C98 1.259 . S
O109 Eu81 2.355 . S
O109 Eu91 2.670 . S
O109 C98 1.270 . S
O110 Eu91 2.394 . S
O110 C99 1.251 . S
O111 Eu81 2.374 . S
O111 C99 1.251 . S
H112 C83 0.931 . S
H113 C84 0.931 . S
H114 C86 0.931 . S
H115 C87 0.931 . S
H116 C93 0.931 . S
H117 C94 0.931 . S
H118 C96 0.931 . S
H119 C97 0.931 . S
H120 C127 0.929 . S
H121 C130 0.930 1_565 S
H122 C132 0.929 . S
H123 C124 0.969 . S
C124 H123 0.969 . S
C124 O125 1.550 . S
C124 H126 0.973 . S
O125 C124 1.550 . S
O125 C131 1.412 1_565 S
H126 C124 0.973 . S
C127 H120 0.929 . S
C127 C128 1.400 . S
C127 C129 1.364 . S
C128 C127 1.400 . S
C128 C132 1.377 . S
C129 C127 1.364 . S
C129 C130 1.374 . S
C130 H121 0.930 1_545 S
C130 C129 1.374 . S
C130 C131 1.383 . S
C131 O125 1.412 1_545 S
C131 C130 1.383 . S
C131 C132 1.394 . S
C132 H122 0.929 . S
C132 C128 1.377 . S
C132 C131 1.394 . S
H133 C140 0.929 . S
H134 C143 0.930 . S
H135 C145 0.929 . S
H136 C137 0.969 . S
C137 H136 0.969 . S
C137 O138 1.550 . S
C137 H139 0.973 . S
O138 C137 1.550 . S
O138 C144 1.412 . S
H139 C137 0.973 . S
C140 H133 0.929 . S
C140 C141 1.400 . S
C140 C142 1.364 . S
C141 C140 1.400 . S
C141 C145 1.377 . S
C142 C140 1.364 . S
C142 C143 1.374 . S
C143 H134 0.930 . S
C143 C142 1.374 . S
C143 C144 1.383 . S
C144 O138 1.412 . S
C144 C143 1.383 . S
C144 C145 1.394 . S
C145 H135 0.929 . S
C145 C141 1.377 . S
C145 C144 1.394 . S
H146 C153 0.929 . S
H147 C156 0.930 . S
H148 C158 0.929 . S
H149 C150 0.969 . S
C150 H149 0.969 . S
C150 O151 1.550 . S
C150 H152 0.973 . S
O151 C150 1.550 . S
O151 C157 1.412 . S
H152 C150 0.973 . S
C153 H146 0.929 . S
C153 C154 1.400 . S
C153 C155 1.364 1_655 S
C154 C153 1.400 . S
C154 C158 1.377 1_655 S
C155 C153 1.364 1_455 S
C155 C156 1.374 . S
C156 H147 0.930 . S
C156 C155 1.374 . S
C156 C157 1.383 . S
C157 O151 1.412 . S
C157 C156 1.383 . S
C157 C158 1.394 . S
C158 H148 0.929 . S
C158 C154 1.377 1_455 S
C158 C157 1.394 . S
H159 C166 0.929 . S
H160 C169 0.930 . S
H161 C171 0.929 . S
H162 C163 0.969 . S
C163 H162 0.969 . S
C163 O164 1.550 . S
C163 H165 0.973 . S
O164 C163 1.550 . S
O164 C170 1.412 . S
H165 C163 0.973 . S
C166 H159 0.929 . S
C166 C167 1.400 . S
C166 C168 1.364 . S
C167 C166 1.400 . S
C167 C171 1.377 . S
C168 C166 1.364 . S
C168 C169 1.374 . S
C169 H160 0.930 . S
C169 C168 1.374 . S
C169 C170 1.383 . S
C170 O164 1.412 . S
C170 C169 1.383 . S
C170 C171 1.394 . S
C171 H161 0.929 . S
C171 C167 1.377 . S
C171 C170 1.394 . S
H172 C179 0.929 . S
H173 C182 0.930 . S
H174 C184 0.929 . S
H175 C176 0.969 . S
C176 H175 0.969 . S
C176 O177 1.550 . S
C176 H178 0.973 . S
O177 C176 1.550 . S
O177 C183 1.412 . S
H178 C176 0.973 . S
C179 H172 0.929 . S
C179 C180 1.400 . S
C179 C181 1.364 1_565 S
C180 C179 1.400 . S
C180 C184 1.377 . S
C181 C179 1.364 1_545 S
C181 C182 1.374 . S
C182 H173 0.930 . S
C182 C181 1.374 . S
C182 C183 1.383 . S
C183 O177 1.412 . S
C183 C182 1.383 . S
C183 C184 1.394 1_545 S
C184 H174 0.929 . S
C184 C180 1.377 . S
C184 C183 1.394 1_565 S
H185 C192 0.929 . S
H186 C195 0.930 . S
H187 C197 0.929 . S
H188 C189 0.969 . S
C189 H188 0.969 . S
C189 O190 1.550 . S
C189 H191 0.973 . S
O190 C189 1.550 . S
O190 C196 1.412 . S
H191 C189 0.973 . S
C192 H185 0.929 . S
C192 C193 1.400 . S
C192 C194 1.364 . S
C193 C192 1.400 . S
C193 C197 1.377 . S
C194 C192 1.364 . S
C194 C195 1.374 . S
C195 H186 0.930 . S
C195 C194 1.374 . S
C195 C196 1.383 . S
C196 O190 1.412 . S
C196 C195 1.383 . S
C196 C197 1.394 . S
C197 H187 0.929 . S
C197 C193 1.377 . S
C197 C196 1.394 . S
H198 C206 0.950 . S
H199 C211 0.950 . S
H200 C208 0.950 . S
H201 C210 0.950 . S
H202 C212 0.950 . S
H203 C214 0.950 . S
H204 C216 0.950 . S
H205 C217 0.950 . S
C206 H198 0.950 . S
C206 C207 1.386 . S
C206 C208 1.391 . S
C207 C206 1.386 . S
C207 C211 1.393 . S
C208 H200 0.950 . S
C208 C206 1.391 . S
C208 C209 1.400 . S
C209 C208 1.400 . S
C209 C210 1.398 . S
C209 C215 1.491 . S
C210 H201 0.950 . S
C210 C209 1.398 . S
C210 C211 1.391 . S
C211 H199 0.950 . S
C211 C207 1.393 . S
C211 C210 1.391 . S
C212 H202 0.950 . S
C212 C213 1.386 . S
C212 C214 1.391 . S
C213 C212 1.386 . S
C213 C217 1.393 . S
C214 H203 0.950 . S
C214 C212 1.391 . S
C214 C215 1.400 . S
C215 C209 1.491 . S
C215 C214 1.400 . S
C215 C216 1.398 . S
C216 H204 0.950 . S
C216 C215 1.398 . S
C216 C217 1.391 . S
C217 H205 0.950 . S
C217 C213 1.393 . S
C217 C216 1.391 . S
H218 C226 0.950 . S
H219 C231 0.950 . S
H220 C228 0.950 . S
H221 C230 0.950 . S
H222 C232 0.950 . S
H223 C234 0.950 . S
H224 C236 0.950 . S
H225 C237 0.950 . S
C226 H218 0.950 . S
C226 C227 1.386 . S
C226 C228 1.391 . S
C227 C226 1.386 . S
C227 C231 1.393 . S
C228 H220 0.950 . S
C228 C226 1.391 . S
C228 C229 1.400 . S
C229 C228 1.400 . S
C229 C230 1.398 . S
C229 C235 1.491 . S
C230 H221 0.950 . S
C230 C229 1.398 . S
C230 C231 1.391 . S
C231 H219 0.950 . S
C231 C227 1.393 . S
C231 C230 1.391 . S
C232 H222 0.950 . S
C232 C233 1.386 . S
C232 C234 1.391 . S
C233 C232 1.386 . S
C233 C237 1.393 . S
C234 H223 0.950 . S
C234 C232 1.391 . S
C234 C235 1.400 . S
C235 C229 1.491 . S
C235 C234 1.400 . S
C235 C236 1.398 . S
C236 H224 0.950 . S
C236 C235 1.398 . S
C236 C237 1.391 . S
C237 H225 0.950 . S
C237 C233 1.393 . S
C237 C236 1.391 . S
H238 C246 0.950 . S
H239 C251 0.950 . S
H240 C248 0.950 . S
H241 C250 0.950 . S
H242 C252 0.950 . S
H243 C254 0.950 . S
H244 C256 0.950 . S
H245 C257 0.950 . S
C246 H238 0.950 . S
C246 C247 1.386 . S
C246 C248 1.391 . S
C247 C246 1.386 . S
C247 C251 1.393 . S
C248 H240 0.950 . S
C248 C246 1.391 . S
C248 C249 1.400 . S
C249 C248 1.400 . S
C249 C250 1.398 . S
C249 C255 1.491 . S
C250 H241 0.950 . S
C250 C249 1.398 . S
C250 C251 1.391 . S
C251 H239 0.950 . S
C251 C247 1.393 . S
C251 C250 1.391 . S
C252 H242 0.950 . S
C252 C253 1.386 . S
C252 C254 1.391 . S
C253 C252 1.386 . S
C253 C257 1.393 . S
C254 H243 0.950 . S
C254 C252 1.391 . S
C254 C255 1.400 . S
C255 C249 1.491 . S
C255 C254 1.400 . S
C255 C256 1.398 . S
C256 H244 0.950 . S
C256 C255 1.398 . S
C256 C257 1.391 . S
C257 H245 0.950 . S
C257 C253 1.393 . S
C257 C256 1.391 . S
H258 C266 0.950 . S
H259 C271 0.950 . S
H260 C268 0.950 . S
H261 C270 0.950 . S
H262 C272 0.950 . S
H263 C274 0.950 . S
H264 C276 0.950 . S
H265 C277 0.950 . S
C266 H258 0.950 . S
C266 C267 1.386 . S
C266 C268 1.391 . S
C267 C266 1.386 . S
C267 C271 1.393 . S
C268 H260 0.950 . S
C268 C266 1.391 . S
C268 C269 1.400 . S
C269 C268 1.400 . S
C269 C270 1.398 . S
C269 C275 1.491 . S
C270 H261 0.950 . S
C270 C269 1.398 . S
C270 C271 1.391 . S
C271 H259 0.950 . S
C271 C267 1.393 . S
C271 C270 1.391 . S
C272 H262 0.950 . S
C272 C273 1.386 . S
C272 C274 1.391 . S
C273 C272 1.386 . S
C273 C277 1.393 . S
C274 H263 0.950 . S
C274 C272 1.391 . S
C274 C275 1.400 . S
C275 C269 1.491 . S
C275 C274 1.400 . S
C275 C276 1.398 . S
C276 H264 0.950 . S
C276 C275 1.398 . S
C276 C277 1.391 . S
C277 H265 0.950 . S
C277 C273 1.393 . S
C277 C276 1.391 . S
H278 C286 0.950 . S
H279 C291 0.950 . S
H280 C288 0.950 . S
H281 C290 0.950 . S
H282 C292 0.950 . S
H283 C294 0.950 . S
H284 C296 0.950 . S
H285 C297 0.950 . S
C286 H278 0.950 . S
C286 C287 1.386 . S
C286 C288 1.391 . S
C287 C286 1.386 . S
C287 C291 1.393 . S
C288 H280 0.950 . S
C288 C286 1.391 . S
C288 C289 1.400 . S
C289 C288 1.400 . S
C289 C290 1.398 . S
C289 C295 1.491 . S
C290 H281 0.950 . S
C290 C289 1.398 . S
C290 C291 1.391 . S
C291 H279 0.950 . S
C291 C287 1.393 . S
C291 C290 1.391 . S
C292 H282 0.950 . S
C292 C293 1.386 . S
C292 C294 1.391 . S
C293 C292 1.386 . S
C293 C297 1.393 . S
C294 H283 0.950 . S
C294 C292 1.391 . S
C294 C295 1.400 . S
C295 C289 1.491 . S
C295 C294 1.400 . S
C295 C296 1.398 . S
C296 H284 0.950 . S
C296 C295 1.398 . S
C296 C297 1.391 . S
C297 H285 0.950 . S
C297 C293 1.393 . S
C297 C296 1.391 . S
H298 C306 0.950 . S
H299 C311 0.950 . S
H300 C308 0.950 . S
H301 C310 0.950 . S
H302 C312 0.950 . S
H303 C314 0.950 . S
H304 C316 0.950 . S
H305 C317 0.950 . S
C306 H298 0.950 . S
C306 C307 1.386 . S
C306 C308 1.391 . S
C307 C306 1.386 . S
C307 C311 1.393 . S
C308 H300 0.950 . S
C308 C306 1.391 . S
C308 C309 1.400 . S
C309 C308 1.400 . S
C309 C310 1.398 . S
C309 C315 1.491 . S
C310 H301 0.950 . S
C310 C309 1.398 . S
C310 C311 1.391 . S
C311 H299 0.950 . S
C311 C307 1.393 . S
C311 C310 1.391 . S
C312 H302 0.950 . S
C312 C313 1.386 . S
C312 C314 1.391 . S
C313 C312 1.386 . S
C313 C317 1.393 . S
C314 H303 0.950 . S
C314 C312 1.391 . S
C314 C315 1.400 . S
C315 C309 1.491 . S
C315 C314 1.400 . S
C315 C316 1.398 . S
C316 H304 0.950 . S
C316 C315 1.398 . S
C316 C317 1.391 . S
C317 H305 0.950 . S
C317 C313 1.393 . S
C317 C316 1.391 . S
H318 C326 0.950 . S
H319 C331 0.950 . S
H320 C328 0.950 . S
H321 C330 0.950 . S
H322 C332 0.950 . S
H323 C334 0.950 . S
H324 C336 0.950 . S
H325 C337 0.950 . S
C326 H318 0.950 . S
C326 C327 1.386 . S
C326 C328 1.391 . S
C327 C326 1.386 . S
C327 C331 1.393 . S
C328 H320 0.950 . S
C328 C326 1.391 . S
C328 C329 1.400 . S
C329 C328 1.400 . S
C329 C330 1.398 . S
C329 C335 1.491 . S
C330 H321 0.950 . S
C330 C329 1.398 . S
C330 C331 1.391 . S
C331 H319 0.950 . S
C331 C327 1.393 . S
C331 C330 1.391 . S
C332 H322 0.950 . S
C332 C333 1.386 . S
C332 C334 1.391 . S
C333 C332 1.386 . S
C333 C337 1.393 . S
C334 H323 0.950 . S
C334 C332 1.391 . S
C334 C335 1.400 . S
C335 C329 1.491 . S
C335 C334 1.400 . S
C335 C336 1.398 . S
C336 H324 0.950 . S
C336 C335 1.398 . S
C336 C337 1.391 . S
C337 H325 0.950 . S
C337 C333 1.393 . S
C337 C336 1.391 . S
H338 C346 0.950 . S
H339 C351 0.950 . S
H340 C348 0.950 . S
H341 C350 0.950 . S
H342 C352 0.950 . S
H343 C354 0.950 . S
H344 C356 0.950 . S
H345 C357 0.950 . S
C346 H338 0.950 . S
C346 C347 1.386 . S
C346 C348 1.391 . S
C347 C346 1.386 . S
C347 C351 1.393 . S
C348 H340 0.950 . S
C348 C346 1.391 . S
C348 C349 1.400 . S
C349 C348 1.400 . S
C349 C350 1.398 . S
C349 C355 1.491 . S
C350 H341 0.950 . S
C350 C349 1.398 . S
C350 C351 1.391 . S
C351 H339 0.950 . S
C351 C347 1.393 . S
C351 C350 1.391 . S
C352 H342 0.950 . S
C352 C353 1.386 1_455 S
C352 C354 1.391 1_455 S
C353 C352 1.386 1_655 S
C353 C357 1.393 . S
C354 H343 0.950 . S
C354 C352 1.391 1_655 S
C354 C355 1.400 . S
C355 C349 1.491 . S
C355 C354 1.400 . S
C355 C356 1.398 . S
C356 H344 0.950 . S
C356 C355 1.398 . S
C356 C357 1.391 . S
C357 H345 0.950 . S
C357 C353 1.393 . S
C357 C356 1.391 . S
H358 C366 0.950 . S
H359 C371 0.950 . S
H360 C368 0.950 . S
H361 C370 0.950 . S
H362 C372 0.950 . S
H363 C374 0.950 . S
H364 C376 0.950 . S
H365 C377 0.950 . S
C366 H358 0.950 . S
C366 C367 1.386 . S
C366 C368 1.391 . S
C367 C366 1.386 . S
C367 C371 1.393 . S
C368 H360 0.950 . S
C368 C366 1.391 . S
C368 C369 1.400 . S
C369 C368 1.400 . S
C369 C370 1.398 . S
C369 C375 1.491 . S
C370 H361 0.950 . S
C370 C369 1.398 . S
C370 C371 1.391 . S
C371 H359 0.950 . S
C371 C367 1.393 . S
C371 C370 1.391 . S
C372 H362 0.950 . S
C372 C373 1.386 . S
C372 C374 1.391 . S
C373 C372 1.386 . S
C373 C377 1.393 . S
C374 H363 0.950 . S
C374 C372 1.391 . S
C374 C375 1.400 . S
C375 C369 1.491 . S
C375 C374 1.400 . S
C375 C376 1.398 . S
C376 H364 0.950 . S
C376 C375 1.398 . S
C376 C377 1.391 . S
C377 H365 0.950 . S
C377 C373 1.393 . S
C377 C376 1.391 . S
H378 C386 0.950 . S
H379 C391 0.950 . S
H380 C388 0.950 . S
H381 C390 0.950 . S
H382 C392 0.950 . S
H383 C394 0.950 . S
H384 C396 0.950 . S
H385 C397 0.950 . S
C386 H378 0.950 . S
C386 C387 1.386 . S
C386 C388 1.391 . S
C387 C386 1.386 . S
C387 C391 1.393 . S
C388 H380 0.950 . S
C388 C386 1.391 . S
C388 C389 1.400 . S
C389 C388 1.400 . S
C389 C390 1.398 . S
C389 C395 1.491 . S
C390 H381 0.950 . S
C390 C389 1.398 . S
C390 C391 1.391 . S
C391 H379 0.950 . S
C391 C387 1.393 . S
C391 C390 1.391 . S
C392 H382 0.950 . S
C392 C393 1.386 . S
C392 C394 1.391 . S
C393 C392 1.386 . S
C393 C397 1.393 . S
C394 H383 0.950 . S
C394 C392 1.391 . S
C394 C395 1.400 . S
C395 C389 1.491 . S
C395 C394 1.400 . S
C395 C396 1.398 . S
C396 H384 0.950 . S
C396 C395 1.398 . S
C396 C397 1.391 . S
C397 H385 0.950 . S
C397 C393 1.393 . S
C397 C396 1.391 . S
H398 C406 0.950 . S
H399 C411 0.950 . S
H400 C408 0.950 . S
H401 C410 0.950 . S
H402 C412 0.950 . S
H403 C414 0.950 . S
H404 C416 0.950 . S
H405 C417 0.950 . S
C406 H398 0.950 . S
C406 C407 1.386 . S
C406 C408 1.391 . S
C407 C406 1.386 . S
C407 C411 1.393 . S
C408 H400 0.950 . S
C408 C406 1.391 . S
C408 C409 1.400 . S
C409 C408 1.400 . S
C409 C410 1.398 . S
C409 C415 1.491 . S
C410 H401 0.950 . S
C410 C409 1.398 . S
C410 C411 1.391 . S
C411 H399 0.950 . S
C411 C407 1.393 . S
C411 C410 1.391 . S
C412 H402 0.950 . S
C412 C413 1.386 . S
C412 C414 1.391 . S
C413 C412 1.386 . S
C413 C417 1.393 . S
C414 H403 0.950 . S
C414 C412 1.391 . S
C414 C415 1.400 . S
C415 C409 1.491 . S
C415 C414 1.400 . S
C415 C416 1.398 . S
C416 H404 0.950 . S
C416 C415 1.398 . S
C416 C417 1.391 . S
C417 H405 0.950 . S
C417 C413 1.393 . S
C417 C416 1.391 . S
H418 C426 0.950 . S
H419 C431 0.950 . S
H420 C428 0.950 . S
H421 C430 0.950 . S
H422 C432 0.950 . S
H423 C434 0.950 . S
H424 C436 0.950 . S
H425 C437 0.950 . S
C426 H418 0.950 . S
C426 C427 1.386 . S
C426 C428 1.391 . S
C427 C426 1.386 . S
C427 C431 1.393 . S
C428 H420 0.950 . S
C428 C426 1.391 . S
C428 C429 1.400 . S
C429 C428 1.400 . S
C429 C430 1.398 . S
C429 C435 1.491 . S
C430 H421 0.950 . S
C430 C429 1.398 . S
C430 C431 1.391 . S
C431 H419 0.950 . S
C431 C427 1.393 . S
C431 C430 1.391 . S
C432 H422 0.950 . S
C432 C433 1.386 . S
C432 C434 1.391 . S
C433 C432 1.386 . S
C433 C437 1.393 . S
C434 H423 0.950 . S
C434 C432 1.391 . S
C434 C435 1.400 . S
C435 C429 1.491 . S
C435 C434 1.400 . S
C435 C436 1.398 . S
C436 H424 0.950 . S
C436 C435 1.398 . S
C436 C437 1.391 . S
C437 H425 0.950 . S
C437 C433 1.393 . S
C437 C436 1.391 . S
H438 C446 0.950 . S
H439 C451 0.950 . S
H440 C448 0.950 . S
H441 C450 0.950 . S
H442 C452 0.950 . S
H443 C454 0.950 . S
H444 C456 0.950 1_554 S
H445 C457 0.947 1_655 S
C446 H438 0.950 . S
C446 C447 1.386 1_655 S
C446 C448 1.391 . S
C447 C446 1.386 1_455 S
C447 C451 1.393 . S
C448 H440 0.950 . S
C448 C446 1.391 . S
C448 C449 1.400 1_655 S
C449 C448 1.400 1_455 S
C449 C450 1.398 . S
C449 C455 1.491 . S
C450 H441 0.950 . S
C450 C449 1.398 . S
C450 C451 1.391 . S
C451 H439 0.950 . S
C451 C447 1.393 . S
C451 C450 1.391 . S
C452 H442 0.950 . S
C452 C453 1.386 . S
C452 C454 1.391 . S
C453 C452 1.386 . S
C453 C457 1.398 . S
C454 H443 0.950 . S
C454 C452 1.391 . S
C454 C455 1.400 1_556 S
C455 C449 1.491 . S
C455 C454 1.400 1_554 S
C455 C456 1.398 1_454 S
C456 H444 0.950 1_556 S
C456 C455 1.398 1_656 S
C456 C457 1.389 1_655 S
C457 H445 0.947 1_455 S
C457 C453 1.398 . S
C457 C456 1.389 1_455 S
H458 C466 0.950 . S
H459 C471 0.950 . S
H460 C468 0.950 . S
H461 C470 0.950 . S
H462 C472 0.950 . S
H463 C474 0.950 . S
H464 C476 0.950 . S
H465 C477 0.950 . S
C466 H458 0.950 . S
C466 C467 1.386 . S
C466 C468 1.391 . S
C467 C466 1.386 . S
C467 C471 1.393 . S
C468 H460 0.950 . S
C468 C466 1.391 . S
C468 C469 1.400 . S
C469 C468 1.400 . S
C469 C470 1.398 . S
C469 C475 1.491 . S
C470 H461 0.950 . S
C470 C469 1.398 . S
C470 C471 1.391 . S
C471 H459 0.950 . S
C471 C467 1.393 . S
C471 C470 1.391 . S
C472 H462 0.950 . S
C472 C473 1.386 . S
C472 C474 1.391 . S
C473 C472 1.386 . S
C473 C477 1.393 . S
C474 H463 0.950 . S
C474 C472 1.391 . S
C474 C475 1.400 . S
C475 C469 1.491 . S
C475 C474 1.400 . S
C475 C476 1.398 . S
C476 H464 0.950 . S
C476 C475 1.398 . S
C476 C477 1.391 . S
C477 H465 0.950 . S
C477 C473 1.393 . S
C477 C476 1.391 . S
H478 C486 0.950 . S
H479 C491 0.950 . S
H480 C488 0.950 . S
H481 C490 0.950 . S
H482 C492 0.950 . S
H483 C494 0.950 . S
H484 C496 0.950 . S
H485 C497 0.950 . S
C486 H478 0.950 . S
C486 C487 1.386 . S
C486 C488 1.391 . S
C487 C486 1.386 . S
C487 C491 1.393 . S
C488 H480 0.950 . S
C488 C486 1.391 . S
C488 C489 1.400 . S
C489 C488 1.400 . S
C489 C490 1.398 . S
C489 C495 1.491 . S
C490 H481 0.950 . S
C490 C489 1.398 . S
C490 C491 1.391 . S
C491 H479 0.950 . S
C491 C487 1.393 . S
C491 C490 1.391 . S
C492 H482 0.950 . S
C492 C493 1.386 . S
C492 C494 1.391 . S
C493 C492 1.386 . S
C493 C497 1.393 . S
C494 H483 0.950 . S
C494 C492 1.391 . S
C494 C495 1.400 . S
C495 C489 1.491 . S
C495 C494 1.400 . S
C495 C496 1.398 . S
C496 H484 0.950 . S
C496 C495 1.398 . S
C496 C497 1.391 . S
C497 H485 0.950 . S
C497 C493 1.393 . S
C497 C496 1.391 . S
H498 C506 0.950 . S
H499 C511 0.950 . S
H500 C508 0.950 . S
H501 C510 0.950 . S
H502 C512 0.950 . S
H503 C514 0.950 . S
H504 C516 0.950 . S
H505 C517 0.950 . S
C506 H498 0.950 . S
C506 C507 1.386 . S
C506 C508 1.391 . S
C507 C506 1.386 . S
C507 C511 1.393 . S
C508 H500 0.950 . S
C508 C506 1.391 . S
C508 C509 1.400 . S
C509 C508 1.400 . S
C509 C510 1.398 . S
C509 C515 1.491 . S
C510 H501 0.950 . S
C510 C509 1.398 . S
C510 C511 1.391 . S
C511 H499 0.950 . S
C511 C507 1.393 . S
C511 C510 1.391 . S
C512 H502 0.950 . S
C512 C513 1.386 . S
C512 C514 1.391 . S
C513 C512 1.386 . S
C513 C517 1.393 . S
C514 H503 0.950 . S
C514 C512 1.391 . S
C514 C515 1.400 . S
C515 C509 1.491 . S
C515 C514 1.400 . S
C515 C516 1.398 . S
C516 H504 0.950 . S
C516 C515 1.398 . S
C516 C517 1.391 . S
C517 H505 0.950 . S
C517 C513 1.393 . S
C517 C516 1.391 . S
H518 C526 0.950 . S
H519 C531 0.950 . S
H520 C528 0.950 . S
H521 C530 0.950 . S
H522 C532 0.950 . S
H523 C534 0.950 . S
H524 C536 0.950 . S
H525 C537 0.950 . S
C526 H518 0.950 . S
C526 C527 1.386 . S
C526 C528 1.391 . S
C527 C526 1.386 . S
C527 C531 1.393 . S
C528 H520 0.950 . S
C528 C526 1.391 . S
C528 C529 1.400 . S
C529 C528 1.400 . S
C529 C530 1.398 . S
C529 C535 1.491 1_556 S
C530 H521 0.950 . S
C530 C529 1.398 . S
C530 C531 1.391 . S
C531 H519 0.950 . S
C531 C527 1.393 . S
C531 C530 1.391 . S
C532 H522 0.950 . S
C532 C533 1.386 . S
C532 C534 1.391 . S
C533 C532 1.386 . S
C533 C537 1.393 . S
C534 H523 0.950 . S
C534 C532 1.391 . S
C534 C535 1.400 . S
C535 C529 1.491 1_554 S
C535 C534 1.400 . S
C535 C536 1.398 . S
C536 H524 0.950 . S
C536 C535 1.398 . S
C536 C537 1.391 . S
C537 H525 0.950 . S
C537 C533 1.393 . S
C537 C536 1.391 . S
H538 C546 0.950 . S
H539 C551 0.950 1_655 S
H540 C548 0.950 . S
H541 C550 0.950 . S
H542 C552 0.950 . S
H543 C554 0.950 . S
H544 C556 0.950 . S
H545 C557 0.950 . S
C546 H538 0.950 . S
C546 C547 1.386 . S
C546 C548 1.391 . S
C547 C546 1.386 . S
C547 C551 1.393 . S
C548 H540 0.950 . S
C548 C546 1.391 . S
C548 C549 1.400 . S
C549 C548 1.400 . S
C549 C550 1.398 . S
C549 C555 1.491 . S
C550 H541 0.950 . S
C550 C549 1.398 . S
C550 C551 1.391 . S
C551 H539 0.950 1_455 S
C551 C547 1.393 . S
C551 C550 1.391 . S
C552 H542 0.950 . S
C552 C553 1.386 . S
C552 C554 1.391 . S
C553 C552 1.386 . S
C553 C557 1.393 . S
C554 H543 0.950 . S
C554 C552 1.391 . S
C554 C555 1.400 . S
C555 C549 1.491 . S
C555 C554 1.400 . S
C555 C556 1.398 . S
C556 H544 0.950 . S
C556 C555 1.398 . S
C556 C557 1.391 . S
C557 H545 0.950 . S
C557 C553 1.393 . S
C557 C556 1.391 . S
C207 C19 3.038 . S
C213 C189 2.855 . S
C227 C49 2.986 . S
C233 C167 2.947 1_655 S
C247 C99 2.920 . S
C253 C180 2.899 . S
C267 C9 2.997 . S
C273 C193 2.961 . S
C293 C163 2.887 . S
C287 C59 3.047 . S
C313 C176 2.934 . S
C307 C89 3.137 . S
C327 C55 0.179 . S
C333 C141 0.270 . S
C347 C85 0.409 . S
C353 C154 0.226 . S
C367 C15 0.421 . S
C373 C124 0.548 . S
C393 C137 0.453 . S
C387 C45 0.467 . S
C413 C150 0.579 . S
C407 C95 0.547 . S
C427 C5 0.407 . S
C433 C128 0.202 . S
C453 C155 1.256 . S
C447 C18 1.220 . S
C467 C58 1.277 . S
C473 C129 1.278 . S
C487 C98 1.175 . S
C493 C142 1.211 . S
C513 C181 1.810 . S
C507 C48 1.695 . S
C533 C194 1.729 . S
C527 C88 1.696 . S
C547 C8 1.698 . S
C553 C168 1.762 . S
