# Generated by pormake.
# Topology eea, (3,6)-cn, num edge types: 1
# Building blocks:
#     Node 0, Type 0, BuildingBlock: CUQRIR_clean_linker_1, # of connection points: 3
#     Node 1, Type 0, BuildingBlock: CUQRIR_clean_linker_1, # of connection points: 3
#     Node 2, Type 0, BuildingBlock: CUQRIR_clean_linker_1, # of connection points: 3
#     Node 3, Type 0, BuildingBlock: CUQRIR_clean_linker_1, # of connection points: 3
#     Node 4, Type 0, BuildingBlock: CUQRIR_clean_linker_1, # of connection points: 3
#     Node 5, Type 0, BuildingBlock: CUQRIR_clean_linker_1, # of connection points: 3
#     Node 6, Type 0, BuildingBlock: CUQRIR_clean_linker_1, # of connection points: 3
#     Node 7, Type 0, BuildingBlock: CUQRIR_clean_linker_1, # of connection points: 3
#     Node 8, Type 0, BuildingBlock: CUQRIR_clean_linker_1, # of connection points: 3
#     Node 9, Type 0, BuildingBlock: CUQRIR_clean_linker_1, # of connection points: 3
#     Node 10, Type 0, BuildingBlock: CUQRIR_clean_linker_1, # of connection points: 3
#     Node 11, Type 0, BuildingBlock: CUQRIR_clean_linker_1, # of connection points: 3
#     Node 12, Type 0, BuildingBlock: CUQRIR_clean_linker_1, # of connection points: 3
#     Node 13, Type 0, BuildingBlock: CUQRIR_clean_linker_1, # of connection points: 3
#     Node 14, Type 0, BuildingBlock: CUQRIR_clean_linker_1, # of connection points: 3
#     Node 15, Type 0, BuildingBlock: CUQRIR_clean_linker_1, # of connection points: 3
#     Node 16, Type 0, BuildingBlock: CUQRIR_clean_linker_1, # of connection points: 3
#     Node 17, Type 0, BuildingBlock: CUQRIR_clean_linker_1, # of connection points: 3
#     Node 18, Type 1, BuildingBlock: CUWYAW_clean_sbu_0, # of connection points: 6
#     Node 19, Type 1, BuildingBlock: CUWYAW_clean_sbu_0, # of connection points: 6
#     Node 20, Type 1, BuildingBlock: CUWYAW_clean_sbu_0, # of connection points: 6
#     Node 21, Type 1, BuildingBlock: CUWYAW_clean_sbu_0, # of connection points: 6
#     Node 22, Type 1, BuildingBlock: CUWYAW_clean_sbu_0, # of connection points: 6
#     Node 23, Type 1, BuildingBlock: CUWYAW_clean_sbu_0, # of connection points: 6
#     Node 24, Type 1, BuildingBlock: CUWYAW_clean_sbu_0, # of connection points: 6
#     Node 25, Type 1, BuildingBlock: CUWYAW_clean_sbu_0, # of connection points: 6
#     Node 26, Type 1, BuildingBlock: CUWYAW_clean_sbu_0, # of connection points: 6
#     Edge 27, Type (0, 1), BuildingBlock: XIVTED_clean_linker_0, # of connection points: 2
#     Edge 28, Type (0, 1), BuildingBlock: XIVTED_clean_linker_0, # of connection points: 2
#     Edge 29, Type (0, 1), BuildingBlock: XIVTED_clean_linker_0, # of connection points: 2
#     Edge 30, Type (0, 1), BuildingBlock: XIVTED_clean_linker_0, # of connection points: 2
#     Edge 31, Type (0, 1), BuildingBlock: XIVTED_clean_linker_0, # of connection points: 2
#     Edge 32, Type (0, 1), BuildingBlock: XIVTED_clean_linker_0, # of connection points: 2
#     Edge 33, Type (0, 1), BuildingBlock: XIVTED_clean_linker_0, # of connection points: 2
#     Edge 34, Type (0, 1), BuildingBlock: XIVTED_clean_linker_0, # of connection points: 2
#     Edge 35, Type (0, 1), BuildingBlock: XIVTED_clean_linker_0, # of connection points: 2
#     Edge 36, Type (0, 1), BuildingBlock: XIVTED_clean_linker_0, # of connection points: 2
#     Edge 37, Type (0, 1), BuildingBlock: XIVTED_clean_linker_0, # of connection points: 2
#     Edge 38, Type (0, 1), BuildingBlock: XIVTED_clean_linker_0, # of connection points: 2
#     Edge 39, Type (0, 1), BuildingBlock: XIVTED_clean_linker_0, # of connection points: 2
#     Edge 40, Type (0, 1), BuildingBlock: XIVTED_clean_linker_0, # of connection points: 2
#     Edge 41, Type (0, 1), BuildingBlock: XIVTED_clean_linker_0, # of connection points: 2
#     Edge 42, Type (0, 1), BuildingBlock: XIVTED_clean_linker_0, # of connection points: 2
#     Edge 43, Type (0, 1), BuildingBlock: XIVTED_clean_linker_0, # of connection points: 2
#     Edge 44, Type (0, 1), BuildingBlock: XIVTED_clean_linker_0, # of connection points: 2
#     Edge 45, Type (0, 1), BuildingBlock: XIVTED_clean_linker_0, # of connection points: 2
#     Edge 46, Type (0, 1), BuildingBlock: XIVTED_clean_linker_0, # of connection points: 2
#     Edge 47, Type (0, 1), BuildingBlock: XIVTED_clean_linker_0, # of connection points: 2
#     Edge 48, Type (0, 1), BuildingBlock: XIVTED_clean_linker_0, # of connection points: 2
#     Edge 49, Type (0, 1), BuildingBlock: XIVTED_clean_linker_0, # of connection points: 2
#     Edge 50, Type (0, 1), BuildingBlock: XIVTED_clean_linker_0, # of connection points: 2
#     Edge 51, Type (0, 1), BuildingBlock: XIVTED_clean_linker_0, # of connection points: 2
#     Edge 52, Type (0, 1), BuildingBlock: XIVTED_clean_linker_0, # of connection points: 2
#     Edge 53, Type (0, 1), BuildingBlock: XIVTED_clean_linker_0, # of connection points: 2
#     Edge 54, Type (0, 1), BuildingBlock: XIVTED_clean_linker_0, # of connection points: 2
#     Edge 55, Type (0, 1), BuildingBlock: XIVTED_clean_linker_0, # of connection points: 2
#     Edge 56, Type (0, 1), BuildingBlock: XIVTED_clean_linker_0, # of connection points: 2
#     Edge 57, Type (0, 1), BuildingBlock: XIVTED_clean_linker_0, # of connection points: 2
#     Edge 58, Type (0, 1), BuildingBlock: XIVTED_clean_linker_0, # of connection points: 2
#     Edge 59, Type (0, 1), BuildingBlock: XIVTED_clean_linker_0, # of connection points: 2
#     Edge 60, Type (0, 1), BuildingBlock: XIVTED_clean_linker_0, # of connection points: 2
#     Edge 61, Type (0, 1), BuildingBlock: XIVTED_clean_linker_0, # of connection points: 2
#     Edge 62, Type (0, 1), BuildingBlock: XIVTED_clean_linker_0, # of connection points: 2
#     Edge 63, Type (0, 1), BuildingBlock: XIVTED_clean_linker_0, # of connection points: 2
#     Edge 64, Type (0, 1), BuildingBlock: XIVTED_clean_linker_0, # of connection points: 2
#     Edge 65, Type (0, 1), BuildingBlock: XIVTED_clean_linker_0, # of connection points: 2
#     Edge 66, Type (0, 1), BuildingBlock: XIVTED_clean_linker_0, # of connection points: 2
#     Edge 67, Type (0, 1), BuildingBlock: XIVTED_clean_linker_0, # of connection points: 2
#     Edge 68, Type (0, 1), BuildingBlock: XIVTED_clean_linker_0, # of connection points: 2
#     Edge 69, Type (0, 1), BuildingBlock: XIVTED_clean_linker_0, # of connection points: 2
#     Edge 70, Type (0, 1), BuildingBlock: XIVTED_clean_linker_0, # of connection points: 2
#     Edge 71, Type (0, 1), BuildingBlock: XIVTED_clean_linker_0, # of connection points: 2
#     Edge 72, Type (0, 1), BuildingBlock: XIVTED_clean_linker_0, # of connection points: 2
#     Edge 73, Type (0, 1), BuildingBlock: XIVTED_clean_linker_0, # of connection points: 2
#     Edge 74, Type (0, 1), BuildingBlock: XIVTED_clean_linker_0, # of connection points: 2
#     Edge 75, Type (0, 1), BuildingBlock: XIVTED_clean_linker_0, # of connection points: 2
#     Edge 76, Type (0, 1), BuildingBlock: XIVTED_clean_linker_0, # of connection points: 2
#     Edge 77, Type (0, 1), BuildingBlock: XIVTED_clean_linker_0, # of connection points: 2
#     Edge 78, Type (0, 1), BuildingBlock: XIVTED_clean_linker_0, # of connection points: 2
#     Edge 79, Type (0, 1), BuildingBlock: XIVTED_clean_linker_0, # of connection points: 2
#     Edge 80, Type (0, 1), BuildingBlock: XIVTED_clean_linker_0, # of connection points: 2
# Relax obj value: 0.105
# Max RMSD: 0.248
# Mean RMSD: 0.180
data_MOF--net-eea--node1-CUWYAW_clean_sbu_0--node2-CUQRIR_clean_linker_1--edge1-XIVTED_clean_linker_0
_symmetry_space_group_name_H-M    P1
_symmetry_Int_Tables_number       1
_symmetry_cell_setting            triclinic
loop_
_symmetry_equiv_pos_as_xyz
'x, y, z'
_cell_length_a     49.324587
_cell_length_b     49.654618
_cell_length_c     66.565179
_cell_angle_alpha  86.835622
_cell_angle_beta   93.506526
_cell_angle_gamma 119.1173
loop_
_atom_site_label
_atom_site_type_symbol
_atom_site_fract_x
_atom_site_fract_y
_atom_site_fract_z
_atom_type_partial_charge
C0 C 0.20747 0.10876 0.39843 0.0
N1 N 0.21882 0.133 0.41078 0.0
N2 N 0.21954 0.08993 0.40398 0.0
C3 C 0.18331 0.10283 0.38177 0.0
C4 C 0.23873 0.10382 0.42006 0.0
N5 N 0.23847 0.13011 0.42408 0.0
C6 C 0.2567 0.09103 0.4324 0.0
H7 H 0.16048 0.09465 0.3885 0.0
H8 H 0.18083 0.08511 0.37138 0.0
H9 H 0.18904 0.12456 0.37309 0.0
H10 H 0.27945 0.10984 0.43779 0.0
H11 H 0.26071 0.07507 0.42359 0.0
H12 H 0.24334 0.07833 0.44579 0.0
C13 C 0.91007 0.13514 0.40887 0.0
N14 N 0.92473 0.15759 0.42257 0.0
N15 N 0.88482 0.11079 0.41675 0.0
C16 C 0.92 0.1373 0.38764 0.0
C17 C 0.88471 0.11903 0.43575 0.0
N18 N 0.90909 0.14728 0.43941 0.0
C19 C 0.86022 0.09983 0.45059 0.0
H20 H 0.91114 0.15062 0.37813 0.0
H21 H 0.91064 0.11425 0.38114 0.0
H22 H 0.94572 0.14954 0.38715 0.0
H23 H 0.87058 0.10233 0.4661 0.0
H24 H 0.84811 0.0751 0.44676 0.0
H25 H 0.84291 0.10803 0.45027 0.0
C26 C 0.8719 0.74545 0.39946 0.0
N27 N 0.88755 0.7352 0.41225 0.0
N28 N 0.84521 0.74032 0.40754 0.0
C29 C 0.8842 0.76339 0.38008 0.0
C30 C 0.8452 0.72657 0.42566 0.0
N31 N 0.87093 0.72352 0.42855 0.0
C32 C 0.82086 0.71754 0.44103 0.0
H33 H 0.90988 0.77441 0.37996 0.0
H34 H 0.87719 0.78146 0.37758 0.0
H35 H 0.87425 0.74734 0.3674 0.0
H36 H 0.79887 0.71518 0.43397 0.0
H37 H 0.8296 0.73549 0.45257 0.0
H38 H 0.81615 0.69542 0.44878 0.0
C39 C 0.12843 0.28211 0.63705 0.0
N40 N 0.15172 0.29076 0.62418 0.0
N41 N 0.10432 0.28434 0.62778 0.0
C42 C 0.12765 0.268 0.65776 0.0
C43 C 0.11372 0.29447 0.60886 0.0
N44 N 0.14236 0.29819 0.60666 0.0
C45 C 0.09503 0.30096 0.59253 0.0
H46 H 0.10351 0.25186 0.66205 0.0
H47 H 0.13825 0.28669 0.6688 0.0
H48 H 0.14112 0.25541 0.65862 0.0
H49 H 0.07824 0.30656 0.59904 0.0
H50 H 0.08195 0.28023 0.58327 0.0
H51 H 0.11054 0.32037 0.58253 0.0
C52 C 0.80333 0.91189 0.63396 0.0
N53 N 0.79443 0.88921 0.62059 0.0
N54 N 0.79279 0.9317 0.62777 0.0
C55 C 0.82058 0.91354 0.65371 0.0
C56 C 0.7769 0.92006 0.61021 0.0
N57 N 0.77758 0.89402 0.60597 0.0
C58 C 0.76311 0.9356 0.59632 0.0
H59 H 0.81527 0.9258 0.66497 0.0
H60 H 0.8459 0.92623 0.65129 0.0
H61 H 0.81447 0.89008 0.65976 0.0
H62 H 0.77535 0.96088 0.59836 0.0
H63 H 0.73834 0.92625 0.59976 0.0
H64 H 0.76423 0.93105 0.58034 0.0
C65 C 0.1177 0.92678 0.632 0.0
N66 N 0.10323 0.90277 0.61939 0.0
N67 N 0.14147 0.95117 0.62281 0.0
C68 C 0.10821 0.92713 0.65301 0.0
C69 C 0.14079 0.94124 0.60415 0.0
N70 N 0.11744 0.91199 0.60204 0.0
C71 C 0.16319 0.95999 0.58808 0.0
H72 H 0.09353 0.93844 0.65246 0.0
H73 H 0.12899 0.94072 0.66288 0.0
H74 H 0.09463 0.90369 0.65971 0.0
H75 H 0.18295 0.95514 0.58919 0.0
H76 H 0.17235 0.98503 0.59004 0.0
H77 H 0.15205 0.95381 0.57284 0.0
C78 C 0.87542 0.44714 0.72897 0.0
N79 N 0.88406 0.47059 0.74176 0.0
N80 N 0.87215 0.42144 0.73916 0.0
C81 C 0.86993 0.44914 0.70658 0.0
C82 C 0.87875 0.42987 0.75858 0.0
N83 N 0.88554 0.45959 0.76022 0.0
C84 C 0.87919 0.40932 0.77596 0.0
H85 H 0.85992 0.46464 0.70285 0.0
H86 H 0.85414 0.42615 0.70038 0.0
H87 H 0.89243 0.45863 0.69915 0.0
H88 H 0.87867 0.38819 0.77088 0.0
H89 H 0.85852 0.40228 0.78501 0.0
H90 H 0.90015 0.42213 0.78587 0.0
C91 C 0.58087 0.46343 0.74305 0.0
N92 N 0.59576 0.48514 0.75718 0.0
N93 N 0.55701 0.4378 0.75107 0.0
C94 C 0.58944 0.46741 0.72134 0.0
C95 C 0.55806 0.4445 0.77062 0.0
N96 N 0.58185 0.47308 0.77445 0.0
C97 C 0.53547 0.42347 0.78599 0.0
H98 H 0.58 0.4813 0.71315 0.0
H99 H 0.57977 0.445 0.7139 0.0
H100 H 0.61506 0.47994 0.72019 0.0
H101 H 0.54807 0.41706 0.79799 0.0
H102 H 0.51671 0.40203 0.77937 0.0
H103 H 0.52512 0.43584 0.79315 0.0
C104 C 0.53771 0.08187 0.73514 0.0
N105 N 0.55375 0.0718 0.74774 0.0
N106 N 0.51224 0.07854 0.74405 0.0
C107 C 0.54874 0.09813 0.7151 0.0
C108 C 0.51342 0.0662 0.76248 0.0
N109 N 0.53869 0.06228 0.76478 0.0
C110 C 0.4903 0.05865 0.7785 0.0
H111 H 0.54013 0.11478 0.71147 0.0
H112 H 0.53978 0.08071 0.70321 0.0
H113 H 0.57447 0.11063 0.71492 0.0
H114 H 0.46773 0.05526 0.77183 0.0
H115 H 0.49964 0.07793 0.78908 0.0
H116 H 0.48655 0.03752 0.78724 0.0
C117 C 0.79611 0.61518 0.97311 0.0
N118 N 0.81798 0.62064 0.95974 0.0
N119 N 0.7732 0.61975 0.96417 0.0
C120 C 0.79507 0.60154 0.99401 0.0
C121 C 0.78189 0.62804 0.94495 0.0
N122 N 0.80885 0.62821 0.94218 0.0
C123 C 0.76389 0.63596 0.92888 0.0
H124 H 0.77094 0.58808 0.99911 0.0
H125 H 0.80845 0.62056 1.00456 0.0
H126 H 0.80577 0.58635 0.9947 0.0
H127 H 0.74988 0.64484 0.93567 0.0
H128 H 0.74787 0.61495 0.92052 0.0
H129 H 0.77984 0.65346 0.91802 0.0
C130 C 0.45397 0.24585 0.97064 0.0
N131 N 0.44816 0.22504 0.95637 0.0
N132 N 0.45374 0.27129 0.96232 0.0
C133 C 0.4628 0.24259 0.99234 0.0
C134 C 0.44786 0.26527 0.94244 0.0
N135 N 0.44486 0.23738 0.93882 0.0
C136 C 0.44291 0.28561 0.92672 0.0
H137 H 0.44141 0.23066 1.00108 0.0
H138 H 0.47811 0.26548 0.99888 0.0
H139 H 0.47492 0.22869 0.99383 0.0
H140 H 0.46532 0.30114 0.91966 0.0
H141 H 0.43438 0.29987 0.9335 0.0
H142 H 0.426 0.27164 0.91473 0.0
C143 C 0.78237 0.26226 0.96346 0.0
N144 N 0.76723 0.23818 0.95093 0.0
N145 N 0.81131 0.28181 0.95703 0.0
C146 C 0.76843 0.26721 0.98149 0.0
C147 C 0.81327 0.26861 0.94032 0.0
N148 N 0.7867 0.24205 0.93672 0.0
C149 C 0.84095 0.28195 0.92723 0.0
H150 H 0.75415 0.27814 0.97637 0.0
H151 H 0.78622 0.28256 0.9925 0.0
H152 H 0.75323 0.24486 0.98919 0.0
H153 H 0.84345 0.26339 0.92047 0.0
H154 H 0.86262 0.29695 0.93595 0.0
H155 H 0.83753 0.29595 0.91479 0.0
C156 C 0.54022 0.7866 0.06558 0.0
N157 N 0.54929 0.80942 0.0789 0.0
N158 N 0.5384 0.76088 0.07495 0.0
C159 C 0.5319 0.78864 0.04362 0.0
C160 C 0.54637 0.76873 0.09443 0.0
N161 N 0.55265 0.79811 0.09685 0.0
C162 C 0.54906 0.74802 0.1109 0.0
H163 H 0.50628 0.77797 0.04168 0.0
H164 H 0.53953 0.7756 0.03459 0.0
H165 H 0.54214 0.81271 0.03771 0.0
H166 H 0.57365 0.75328 0.11266 0.0
H167 H 0.53448 0.72337 0.10723 0.0
H168 H 0.54209 0.75194 0.12549 0.0
C169 C 0.24274 0.79671 0.07674 0.0
N170 N 0.2567 0.8193 0.0904 0.0
N171 N 0.21795 0.77186 0.08466 0.0
C172 C 0.2528 0.79942 0.05547 0.0
C173 C 0.21742 0.78001 0.10363 0.0
N174 N 0.24111 0.80867 0.10722 0.0
C175 C 0.19335 0.76018 0.11854 0.0
H176 H 0.2439 0.81288 0.04615 0.0
H177 H 0.24367 0.77665 0.04863 0.0
H178 H 0.27852 0.81186 0.05506 0.0
H179 H 0.1831 0.73538 0.11525 0.0
H180 H 0.17454 0.76643 0.11757 0.0
H181 H 0.20351 0.76411 0.13414 0.0
C182 C 0.19977 0.40477 0.06162 0.0
N183 N 0.21766 0.39747 0.07456 0.0
N184 N 0.17342 0.39929 0.07039 0.0
C185 C 0.2099 0.42117 0.0415 0.0
C186 C 0.17598 0.38836 0.08906 0.0
N187 N 0.20293 0.38753 0.0917 0.0
C188 C 0.1531 0.38043 0.10529 0.0
H189 H 0.20092 0.43761 0.0383 0.0
H190 H 0.20044 0.4038 0.02957 0.0
H191 H 0.23556 0.43398 0.04075 0.0
H192 H 0.12992 0.37535 0.09874 0.0
H193 H 0.16163 0.40018 0.11544 0.0
H194 H 0.151 0.36022 0.11448 0.0
C195 C 0.46358 0.94704 0.30273 0.0
N196 N 0.486 0.95481 0.28931 0.0
N197 N 0.43897 0.94869 0.29385 0.0
C198 C 0.46399 0.93399 0.32366 0.0
C199 C 0.4471 0.95746 0.27457 0.0
N200 N 0.47551 0.96089 0.27176 0.0
C201 C 0.42739 0.96305 0.25853 0.0
H202 H 0.44015 0.91835 0.32871 0.0
H203 H 0.47557 0.95328 0.33421 0.0
H204 H 0.47711 0.92106 0.32439 0.0
H205 H 0.41128 0.9693 0.26531 0.0
H206 H 0.41347 0.94171 0.24995 0.0
H207 H 0.44222 0.98172 0.24784 0.0
C208 C 0.12479 0.56888 0.30347 0.0
N209 N 0.11733 0.54696 0.28969 0.0
N210 N 0.12465 0.59409 0.29471 0.0
C211 C 0.13185 0.5654 0.3255 0.0
C212 C 0.11708 0.58687 0.27513 0.0
N213 N 0.11295 0.55838 0.27202 0.0
C214 C 0.11347 0.60756 0.25908 0.0
H215 H 0.10979 0.55013 0.33301 0.0
H216 H 0.14327 0.58771 0.33317 0.0
H217 H 0.14685 0.55445 0.32739 0.0
H218 H 0.12801 0.63218 0.26287 0.0
H219 H 0.0888 0.60214 0.25795 0.0
H220 H 0.11981 0.60375 0.24421 0.0
C221 C 0.45165 0.59211 0.29948 0.0
N222 N 0.43808 0.56778 0.2871 0.0
N223 N 0.47777 0.61539 0.29146 0.0
C224 C 0.43803 0.594 0.31862 0.0
C225 C 0.47951 0.60418 0.27373 0.0
N226 N 0.45538 0.57548 0.27106 0.0
C227 C 0.50557 0.62055 0.25942 0.0
H228 H 0.41235 0.57971 0.31786 0.0
H229 H 0.44434 0.61819 0.32151 0.0
H230 H 0.44723 0.58513 0.33141 0.0
H231 H 0.52767 0.63588 0.2676 0.0
H232 H 0.4997 0.63473 0.24843 0.0
H233 H 0.50894 0.60393 0.25087 0.0
C234 C 0.55215 0.06261 0.07235 0.0
Eu235 Eu 0.52234 0.04069 0.03835 0.0
C236 C 0.55096 0.05059 0.0931 0.0
C237 C 0.5591 0.07054 0.10914 0.0
C238 C 0.55634 0.0591 0.129 0.0
C239 C 0.54544 0.02746 0.13313 0.0
C240 C 0.53807 1.00768 0.11693 0.0
C241 C 0.54064 0.01912 0.09709 0.0
C242 C 0.48992 0.06225 0.01476 0.0
C243 C 0.45498 0.98385 0.03711 0.0
C244 C 0.47538 0.98709 0.96455 0.0
Eu245 Eu 0.50084 1.01038 0.99923 0.0
C246 C 0.48707 0.99306 0.94396 0.0
C247 C 0.48519 0.96877 0.93307 0.0
C248 C 0.49762 0.97434 0.91398 0.0
C249 C 0.51207 1.00435 0.90534 0.0
C250 C 0.51372 0.0286 0.9163 0.0
C251 C 0.50154 0.02306 0.93541 0.0
C252 C 0.53346 0.98939 0.02344 0.0
C253 C 0.56807 0.06885 0.99999 0.0
O254 O 0.56183 0.0511 0.05903 0.0
O255 O 0.52804 0.06535 0.06576 0.0
O256 O 0.48785 0.0583 0.03413 0.0
O257 O 0.50999 0.05609 0.00881 0.0
O258 O 0.48001 0.99818 0.0489 0.0
O259 O 0.45661 0.98823 0.0173 0.0
O260 O 0.4724 1.00899 0.97252 0.0
O261 O 0.4874 0.97449 0.97731 0.0
O262 O 0.53715 0.99496 1.00426 0.0
O263 O 0.51274 0.99495 0.02885 0.0
O264 O 0.54512 0.04992 0.98806 0.0
O265 O 0.56509 0.0683 0.01964 0.0
H266 H 0.56695 0.09488 0.1063 0.0
H267 H 0.56173 0.07491 0.14107 0.0
H268 H 0.52999 0.98328 0.11955 0.0
H269 H 0.53416 1.00332 0.08488 0.0
H270 H 0.4744 0.94549 0.93945 0.0
H271 H 0.49622 0.95515 0.90612 0.0
H272 H 0.52405 0.0519 0.91002 0.0
H273 H 0.50359 0.04236 0.94349 0.0
C274 C 0.00942 0.54268 0.07124 0.0
Eu275 Eu 0.00833 0.53423 0.03274 0.0
C276 C 0.02159 0.5364 0.09087 0.0
C277 C 0.00393 0.50901 0.10208 0.0
C278 C 0.01412 0.50452 0.12144 0.0
C279 C 0.04213 0.52737 0.13013 0.0
C280 C 0.0601 0.55446 0.11872 0.0
C281 C 0.04991 0.55895 0.09938 0.0
C282 C 0.96556 0.48612 0.01122 0.0
C283 C 0.05166 0.50363 0.02295 0.0
C284 C 0.03138 0.53188 0.95105 0.0
Eu285 Eu 0.02625 0.53448 0.98961 0.0
C286 C 0.01471 0.53059 0.93177 0.0
C287 C 0.02975 0.53424 0.91386 0.0
C288 C 0.01436 0.53252 0.89526 0.0
C289 C 0.98356 0.52721 0.8942 0.0
C290 C 0.96866 0.52392 0.91229 0.0
C291 C 0.98411 0.52555 0.93094 0.0
C292 C 0.06797 0.58165 0.01242 0.0
C293 C 0.97793 0.55866 0.99849 0.0
O294 O 0.02958 0.56294 0.05887 0.0
O295 O 0.9869 0.51926 0.06188 0.0
O296 O 0.95874 0.49872 0.02525 0.0
O297 O 0.99464 0.49762 0.01034 0.0
O298 O 0.04287 0.5162 0.03641 0.0
O299 O 0.04496 0.50466 1.00356 0.0
O300 O 0.01871 0.50754 0.96306 0.0
O301 O 0.04297 0.55769 0.96062 0.0
O302 O 0.07576 0.56766 0.99997 0.0
O303 O 0.03899 0.5708 0.0118 0.0
O304 O 0.98606 0.54442 0.98588 0.0
O305 O 0.98774 0.562 0.01756 0.0
H306 H 0.98187 0.49125 0.09608 0.0
H307 H 0.99984 0.48326 0.1297 0.0
H308 H 0.08152 0.5728 0.125 0.0
H309 H 0.06389 0.58051 0.09131 0.0
H310 H 0.05336 0.53806 0.91425 0.0
H311 H 0.0264 0.53455 0.88172 0.0
H312 H 0.94507 0.52008 0.91206 0.0
H313 H 0.97216 0.52267 0.94467 0.0
C314 C 0.47312 0.50255 0.95713 0.0
Eu315 Eu 0.48318 0.51217 0.99567 0.0
C316 C 0.48973 0.50235 0.93948 0.0
C317 C 0.4788 0.50606 0.92017 0.0
C318 C 0.49478 0.50741 0.90317 0.0
C319 C 0.5223 0.5053 0.90507 0.0
C320 C 0.53309 0.50137 0.92454 0.0
C321 C 0.51692 0.49986 0.94158 0.0
C322 C 0.49099 0.56208 0.01497 0.0
C323 C 0.55737 0.53925 0.00832 0.0
C324 C 0.52313 0.54061 0.07891 0.0
Eu325 Eu 0.50801 0.5195 0.04275 0.0
C326 C 0.51085 0.53235 0.09928 0.0
C327 C 0.53149 0.54243 0.11606 0.0
C328 C 0.52027 0.53786 0.13545 0.0
C329 C 0.48812 0.52325 0.13839 0.0
C330 C 0.46747 0.51214 0.12155 0.0
C331 C 0.47873 0.51653 0.10217 0.0
C332 C 0.49242 0.46323 0.02805 0.0
C333 C 0.4336 0.48564 0.03057 0.0
O334 O 0.46626 0.48034 0.9708 0.0
O335 O 0.48286 0.52951 0.96495 0.0
O336 O 0.46906 0.54819 1.00134 0.0
O337 O 0.50827 0.54993 0.01702 0.0
O338 O 0.53421 0.52573 0.99475 0.0
O339 O 0.55321 0.5428 0.02724 0.0
O340 O 0.50722 0.54844 0.06562 0.0
O341 O 0.53341 0.52344 0.07151 0.0
O342 O 0.50212 0.47029 0.04663 0.0
O343 O 0.49129 0.48575 0.01966 0.0
O344 O 0.45642 0.50156 0.04382 0.0
O345 O 0.4382 0.48311 0.01145 0.0
H346 H 0.45785 0.50802 0.91823 0.0
H347 H 0.4853 0.50977 0.88849 0.0
H348 H 0.55427 0.49989 0.92668 0.0
H349 H 0.52573 0.49698 0.95637 0.0
H350 H 0.55634 0.55475 0.11412 0.0
H351 H 0.53681 0.54701 0.14804 0.0
H352 H 0.4426 0.5005 0.12333 0.0
H353 H 0.46237 0.50836 0.08942 0.0
C354 C 0.23082 0.37784 0.40478 0.0
Eu355 Eu 0.19803 0.3637 0.37099 0.0
C356 C 0.2263 0.37083 0.42658 0.0
C357 C 0.21831 0.38809 0.43863 0.0
C358 C 0.21369 0.38077 0.45917 0.0
C359 C 0.21698 0.35609 0.468 0.0
C360 C 0.2258 0.33944 0.45606 0.0
C361 C 0.23057 0.34683 0.43561 0.0
C362 C 0.16819 0.39152 0.35116 0.0
C363 C 0.12536 0.31678 0.3689 0.0
C364 C 0.14797 0.32396 0.29338 0.0
Eu365 Eu 0.1682 0.3373 0.33048 0.0
C366 C 0.15948 0.33473 0.27311 0.0
C367 C 0.14422 0.31552 0.2569 0.0
C368 C 0.15681 0.32336 0.23788 0.0
C369 C 0.18511 0.35051 0.23476 0.0
C370 C 0.19999 0.37011 0.25103 0.0
C371 C 0.18724 0.36225 0.27007 0.0
C372 C 0.17877 0.29878 0.35599 0.0
C373 C 0.24169 0.38911 0.33251 0.0
O374 O 0.22625 0.35486 0.39377 0.0
O375 O 0.22007 0.39512 0.3959 0.0
O376 O 0.16767 0.38657 0.37056 0.0
O377 O 0.18505 0.3827 0.34343 0.0
O378 O 0.15122 0.32533 0.38005 0.0
O379 O 0.12621 0.32412 0.34935 0.0
O380 O 0.14245 0.34222 0.30394 0.0
O381 O 0.16223 0.31127 0.30396 0.0
O382 O 0.15391 0.29006 0.34459 0.0
O383 O 0.19715 0.32709 0.35309 0.0
O384 O 0.21773 0.36996 0.32109 0.0
O385 O 0.23943 0.39109 0.35195 0.0
H386 H 0.21528 0.40701 0.43218 0.0
H387 H 0.20673 0.39389 0.46802 0.0
H388 H 0.22898 0.32062 0.46254 0.0
H389 H 0.23737 0.3335 0.42684 0.0
H390 H 0.12284 0.29408 0.25905 0.0
H391 H 0.14432 0.30811 0.22561 0.0
H392 H 0.22185 0.39111 0.2492 0.0
H393 H 0.19933 0.37725 0.2825 0.0
C394 C 0.67196 0.87773 0.40712 0.0
Eu395 Eu 0.67269 0.86841 0.36898 0.0
C396 C 0.6806 0.86941 0.42714 0.0
C397 C 0.66523 0.87021 0.44391 0.0
C398 C 0.67425 0.86449 0.46327 0.0
C399 C 0.69887 0.85778 0.46629 0.0
C400 C 0.71381 0.85633 0.44933 0.0
C401 C 0.70474 0.8621 0.42992 0.0
C402 C 0.63089 0.8194 0.34762 0.0
C403 C 0.71788 0.83929 0.36058 0.0
C404 C 0.69788 0.86534 0.28809 0.0
Eu405 Eu 0.69176 0.86853 0.32643 0.0
C406 C 0.68173 0.86434 0.26867 0.0
C407 C 0.65221 0.86205 0.26757 0.0
C408 C 0.63729 0.86103 0.24882 0.0
C409 C 0.65168 0.8622 0.2309 0.0
C410 C 0.68138 0.86463 0.23223 0.0
C411 C 0.69624 0.86574 0.25093 0.0
C412 C 0.73208 0.91699 0.34894 0.0
C413 C 0.64362 0.89312 0.33402 0.0
O414 O 0.69476 0.89567 0.39551 0.0
O415 O 0.64854 0.85584 0.39729 0.0
O416 O 0.62353 0.83212 0.36127 0.0
O417 O 0.66007 0.8313 0.34702 0.0
O418 O 0.70754 0.85084 0.37374 0.0
O419 O 0.71202 0.84042 0.34107 0.0
O420 O 0.68442 0.84115 0.30014 0.0
O421 O 0.70971 0.89125 0.29756 0.0
O422 O 0.74077 0.90319 0.33694 0.0
O423 O 0.703 0.90521 0.34807 0.0
O424 O 0.6512 0.87793 0.32184 0.0
O425 O 0.65372 0.89711 0.35303 0.0
H426 H 0.64664 0.87597 0.44207 0.0
H427 H 0.66255 0.86638 0.47593 0.0
H428 H 0.73263 0.85093 0.45105 0.0
H429 H 0.71689 0.86137 0.41714 0.0
H430 H 0.64071 0.86093 0.28117 0.0
H431 H 0.61456 0.85941 0.24836 0.0
H432 H 0.69291 0.86495 0.21881 0.0
H433 H 0.71902 0.86742 0.25155 0.0
C434 C 0.14022 0.8177 0.29697 0.0
Eu435 Eu 0.15119 0.83098 0.33506 0.0
C436 C 0.15791 0.82422 0.27835 0.0
C437 C 0.16567 0.85113 0.26646 0.0
C438 C 0.18081 0.8562 0.24836 0.0
C439 C 0.1885 0.83445 0.24164 0.0
C440 C 0.18103 0.80773 0.25368 0.0
C441 C 0.16586 0.80264 0.27173 0.0
C442 C 0.16336 0.88444 0.35161 0.0
C443 C 0.22598 0.85961 0.34547 0.0
C444 C 0.19054 0.85047 0.41714 0.0
Eu445 Eu 0.17635 0.83845 0.37902 0.0
C446 C 0.17571 0.84848 0.43609 0.0
C447 C 0.14605 0.84573 0.43618 0.0
C448 C 0.13306 0.84535 0.4544 0.0
C449 C 0.1496 0.8478 0.47285 0.0
C450 C 0.17915 0.85003 0.47259 0.0
C451 C 0.19202 0.85032 0.45439 0.0
C452 C 0.16531 0.78605 0.36145 0.0
C453 C 0.1019 0.81055 0.3689 0.0
O454 O 0.14396 0.79998 0.31089 0.0
O455 O 0.13834 0.84048 0.30457 0.0
O456 O 0.14059 0.86995 0.33864 0.0
O457 O 0.17963 0.87122 0.35425 0.0
O458 O 0.20216 0.84508 0.33263 0.0
O459 O 0.22217 0.86379 0.36428 0.0
O460 O 0.1906 0.87048 0.40349 0.0
O461 O 0.18464 0.82443 0.40944 0.0
O462 O 0.18886 0.80112 0.37374 0.0
O463 O 0.14831 0.79848 0.35972 0.0
O464 O 0.12589 0.82638 0.38138 0.0
O465 O 0.10559 0.80525 0.35028 0.0
H466 H 0.15976 0.86819 0.27099 0.0
H467 H 0.18643 0.87717 0.23961 0.0
H468 H 0.18604 0.79019 0.24886 0.0
H469 H 0.15988 0.78147 0.28036 0.0
H470 H 0.13318 0.84433 0.42217 0.0
H471 H 0.11014 0.84328 0.45402 0.0
H472 H 0.19284 0.85252 0.4864 0.0
H473 H 0.21502 0.85259 0.45459 0.0
C474 C 0.89208 0.71331 0.74265 0.0
Eu475 Eu 0.86747 0.70246 0.7064 0.0
C476 C 0.8874 0.69939 0.76297 0.0
C477 C 0.90047 0.71871 0.77937 0.0
C478 C 0.89548 0.70639 0.79898 0.0
C479 C 0.87743 0.6744 0.80253 0.0
C480 C 0.86485 0.65501 0.78593 0.0
C481 C 0.86966 0.66744 0.76629 0.0
C482 C 0.85029 0.73833 0.68293 0.0
C483 C 0.79414 0.64962 0.70387 0.0
C484 C 0.80908 0.6713 0.62753 0.0
Eu485 Eu 0.83367 0.67621 0.66361 0.0
C486 C 0.8201 0.67008 0.60778 0.0
C487 C 0.79951 0.66041 0.59097 0.0
C488 C 0.81048 0.66104 0.57196 0.0
C489 C 0.84226 0.67156 0.5695 0.0
C490 C 0.86265 0.68041 0.58653 0.0
C491 C 0.85163 0.67951 0.60552 0.0
C492 C 0.8605 0.64299 0.68079 0.0
C493 C 0.90817 0.7253 0.66699 0.0
O494 O 0.9 0.70042 0.72912 0.0
O495 O 0.87176 0.7217 0.73573 0.0
O496 O 0.8751 0.74909 0.69464 0.0
O497 O 0.83475 0.70939 0.68499 0.0
O498 O 0.82046 0.66277 0.71493 0.0
O499 O 0.79292 0.65447 0.68409 0.0
O500 O 0.82508 0.69772 0.63651 0.0
O501 O 0.80233 0.64741 0.63974 0.0
O502 O 0.8462 0.63708 0.66325 0.0
O503 O 0.86007 0.66596 0.68708 0.0
O504 O 0.88209 0.7137 0.65571 0.0
O505 O 0.90861 0.72004 0.6867 0.0
H506 H 0.9141 0.74347 0.77702 0.0
H507 H 0.90496 0.72211 0.81133 0.0
H508 H 0.85108 0.63026 0.7881 0.0
H509 H 0.85925 0.65221 0.75375 0.0
H510 H 0.77511 0.65301 0.59248 0.0
H511 H 0.79428 0.65442 0.55908 0.0
H512 H 0.88718 0.68835 0.58512 0.0
H513 H 0.86784 0.68678 0.61839 0.0
C514 C 0.33607 0.21167 0.73895 0.0
Eu515 Eu 0.33783 0.20344 0.70077 0.0
C516 C 0.35006 0.208 0.75856 0.0
C517 C 0.33833 0.17915 0.76875 0.0
C518 C 0.35043 0.17645 0.78787 0.0
C519 C 0.37449 0.20253 0.79725 0.0
C520 C 0.38646 0.23126 0.78691 0.0
C521 C 0.37432 0.23397 0.76785 0.0
C522 C 0.29568 0.15466 0.67938 0.0
C523 C 0.38197 0.17288 0.69404 0.0
C524 C 0.36196 0.19293 0.62096 0.0
Eu525 Eu 0.35675 0.20081 0.65867 0.0
C526 C 0.34968 0.19458 0.60057 0.0
C527 C 0.32274 0.19728 0.59719 0.0
C528 C 0.31096 0.19741 0.5775 0.0
C529 C 0.326 0.19487 0.56095 0.0
C530 C 0.35327 0.19265 0.56457 0.0
C531 C 0.36497 0.19256 0.58417 0.0
C532 C 0.39904 0.24884 0.68066 0.0
C533 C 0.31125 0.22981 0.66516 0.0
O534 O 0.35447 0.23344 0.72653 0.0
O535 O 0.3162 0.18661 0.7297 0.0
O536 O 0.28821 0.16946 0.69144 0.0
O537 O 0.3247 0.16535 0.6798 0.0
O538 O 0.3738 0.18745 0.70638 0.0
O539 O 0.37427 0.17121 0.67467 0.0
O540 O 0.34313 0.17089 0.63304 0.0
O541 O 0.37882 0.21903 0.62998 0.0
O542 O 0.40639 0.23371 0.66883 0.0
O543 O 0.37013 0.23877 0.67977 0.0
O544 O 0.31968 0.21529 0.65293 0.0
O545 O 0.31929 0.23214 0.68452 0.0
H546 H 0.3195 0.15867 0.7621 0.0
H547 H 0.34084 0.15395 0.79535 0.0
H548 H 0.40458 0.25194 0.79381 0.0
H549 H 0.38358 0.25658 0.76053 0.0
H550 H 0.31069 0.19892 0.60974 0.0
H551 H 0.29007 0.19941 0.57525 0.0
H552 H 0.36514 0.19004 0.55229 0.0
H553 H 0.38574 0.19034 0.58655 0.0
C554 C 0.80286 0.15408 0.62779 0.0
Eu555 Eu 0.81394 0.16759 0.66584 0.0
C556 C 0.82089 0.16012 0.60937 0.0
C557 C 0.83289 0.18865 0.59874 0.0
C558 C 0.84862 0.19348 0.58092 0.0
C559 C 0.85278 0.16993 0.57325 0.0
C560 C 0.84104 0.14153 0.58402 0.0
C561 C 0.82522 0.13667 0.60178 0.0
C562 C 0.82325 0.21989 0.68257 0.0
C563 C 0.8894 0.19917 0.67542 0.0
C564 C 0.8552 0.19102 0.74717 0.0
Eu565 Eu 0.84066 0.17693 0.70941 0.0
C566 C 0.84017 0.18909 0.76603 0.0
C567 C 0.81195 0.18956 0.76605 0.0
C568 C 0.79879 0.18884 0.78427 0.0
C569 C 0.81371 0.18776 0.8028 0.0
C570 C 0.84181 0.1869 0.80259 0.0
C571 C 0.85483 0.18749 0.7844 0.0
C572 C 0.83147 0.12491 0.69217 0.0
C573 C 0.76549 0.14549 0.70042 0.0
O574 O 0.80572 0.13596 0.64181 0.0
O575 O 0.80165 0.17729 0.63528 0.0
O576 O 0.79999 0.20406 0.67022 0.0
O577 O 0.84118 0.20847 0.6846 0.0
O578 O 0.86542 0.18376 0.66283 0.0
O579 O 0.88578 0.20333 0.69424 0.0
O580 O 0.85446 0.21016 0.73309 0.0
O581 O 0.85041 0.16497 0.74005 0.0
O582 O 0.8551 0.14091 0.70422 0.0
O583 O 0.81349 0.13622 0.6906 0.0
O584 O 0.78968 0.16204 0.71258 0.0
O585 O 0.76884 0.14061 0.68161 0.0
H586 H 0.82995 0.20725 0.60407 0.0
H587 H 0.85757 0.21573 0.57315 0.0
H588 H 0.84331 0.12268 0.57844 0.0
H589 H 0.81599 0.11432 0.60946 0.0
H590 H 0.80033 0.19088 0.752 0.0
H591 H 0.77699 0.18922 0.78383 0.0
H592 H 0.85431 0.18667 0.81649 0.0
H593 H 0.8767 0.18725 0.78468 0.0
H594 H 0.31259 0.84113 0.11008 0.0
H595 H 0.3963 0.95925 0.0196 0.0
H596 H 0.26295 0.86332 0.0626 0.0
H597 H 0.44525 0.95919 0.07558 0.0
H598 H 0.34727 0.92335 0.03505 0.0
H599 H 0.36157 0.88471 0.09857 0.0
C600 C 0.31202 0.85582 0.09761 0.0
C601 C 0.28392 0.84875 0.08719 0.0
C602 C 0.36873 0.93134 0.04401 0.0
C603 C 0.33955 0.89769 0.07347 0.0
C604 C 0.39676 0.95169 0.03513 0.0
C605 C 0.42498 0.96219 0.04626 0.0
C606 C 0.36885 0.92098 0.0641 0.0
C607 C 0.42407 0.95173 0.06641 0.0
C608 C 0.33991 0.88042 0.09088 0.0
C609 C 0.28429 0.86802 0.07088 0.0
N610 N 0.39653 0.93152 0.07462 0.0
N611 N 0.31168 0.89128 0.0643 0.0
H612 H 0.16675 0.44145 0.08997 0.0
H613 H 0.06539 0.46707 1.00105 0.0
H614 H 0.13707 0.38792 0.03643 0.0
H615 H 0.07657 0.50239 0.06063 0.0
H616 H 0.09354 0.4398 0.01288 0.0
H617 H 0.13542 0.46569 0.07879 0.0
C618 C 0.15307 0.43447 0.076 0.0
C619 C 0.15381 0.41234 0.06422 0.0
C620 C 0.08973 0.45344 0.02336 0.0
C621 C 0.11877 0.44052 0.05099 0.0
C622 C 0.0738 0.46915 0.01662 0.0
C623 C 0.06872 0.48714 0.02987 0.0
C624 C 0.10089 0.45597 0.04344 0.0
C625 C 0.07996 0.48881 0.04989 0.0
C626 C 0.13541 0.44841 0.06954 0.0
C627 C 0.1367 0.40475 0.0459 0.0
N628 N 0.09565 0.47352 0.05603 0.0
N629 N 0.11987 0.41894 0.03976 0.0
H630 H 0.48541 0.72274 0.05458 0.0
H631 H 0.54157 0.59887 0.03857 0.0
H632 H 0.57451 0.734 0.07552 0.0
H633 H 0.45521 0.59033 0.01327 0.0
H634 H 0.55292 0.6473 0.0535 0.0
H635 H 0.47292 0.67337 0.04011 0.0
C636 C 0.50234 0.71475 0.05597 0.0
C637 C 0.53096 0.73219 0.06614 0.0
C638 C 0.53144 0.63484 0.04473 0.0
C639 C 0.51696 0.67593 0.04999 0.0
C640 C 0.5249 0.60713 0.03628 0.0
C641 C 0.49737 0.59061 0.02474 0.0
C642 C 0.51032 0.64615 0.04159 0.0
C643 C 0.47669 0.60243 0.02209 0.0
C644 C 0.49523 0.68661 0.04785 0.0
C645 C 0.55211 0.72093 0.06787 0.0
N646 N 0.48359 0.62953 0.03044 0.0
N647 N 0.5447 0.69348 0.05989 0.0
H648 H 0.83842 0.29286 0.99443 0.0
H649 H 0.9632 0.46638 0.97334 0.0
H650 H 0.83642 0.33713 0.93732 0.0
H651 H 0.91694 0.43836 0.02964 0.0
H652 H 0.92544 0.41606 0.9596 0.0
H653 H 0.87616 0.34346 1.00779 0.0
C654 C 0.84579 0.31334 0.98482 0.0
C655 C 0.8339 0.31114 0.96496 0.0
C656 C 0.92369 0.42105 0.97496 0.0
C657 C 0.87783 0.36841 0.97968 0.0
C658 C 0.94524 0.44955 0.9828 0.0
C659 C 0.94308 0.45633 1.00259 0.0
C660 C 0.90056 0.39902 0.98727 0.0
C661 C 0.91921 0.43396 0.01425 0.0
C662 C 0.86735 0.34201 0.99235 0.0
C663 C 0.84502 0.33807 0.95276 0.0
N664 N 0.89905 0.40609 1.00649 0.0
N665 N 0.86656 0.36566 0.96027 0.0
H666 H 0.75739 0.63833 0.9968 0.0
H667 H 0.57601 0.52983 0.97279 0.0
H668 H 0.72005 0.57575 0.94774 0.0
H669 H 0.61178 0.57615 0.02914 0.0
H670 H 0.62893 0.54988 0.96232 0.0
H671 H 0.70427 0.61885 0.00827 0.0
C672 C 0.73787 0.62057 0.98849 0.0
C673 C 0.74262 0.60883 0.97123 0.0
C674 C 0.62524 0.55563 0.97701 0.0
C675 C 0.68253 0.5866 0.98396 0.0
C676 C 0.59497 0.54424 0.98297 0.0
C677 C 0.5894 0.55126 1.00188 0.0
C678 C 0.65021 0.57436 0.98997 0.0
C679 C 0.61499 0.57003 0.01445 0.0
C680 C 0.70775 0.60946 0.99497 0.0
C681 C 0.71699 0.58573 0.96089 0.0
N682 N 0.64435 0.58102 0.00824 0.0
N683 N 0.688 0.57543 0.96737 0.0
H684 H 0.48413 0.2059 0.93947 0.0
H685 H 0.44507 0.07522 0.02489 0.0
H686 H 0.4113 0.1785 0.98116 0.0
H687 H 0.50739 0.0905 0.97757 0.0
H688 H 0.42917 0.10983 1.00701 0.0
H689 H 0.48963 0.16063 0.95054 0.0
C690 C 0.46879 0.18981 0.95058 0.0
C691 C 0.44741 0.19579 0.95959 0.0
C692 C 0.44608 0.10543 1.00036 0.0
C693 C 0.45386 0.14465 0.97264 0.0
C694 C 0.45519 0.0857 0.01061 0.0
C695 C 0.47781 0.08033 1.00281 0.0
C696 C 0.46001 0.12031 0.98227 0.0
C697 C 0.49 0.09424 0.98416 0.0
C698 C 0.47203 0.16416 0.95701 0.0
C699 C 0.42823 0.17464 0.97406 0.0
N700 N 0.48127 0.11397 0.97465 0.0
N701 N 0.43218 0.15025 0.98034 0.0
H702 H 0.75042 0.17748 0.95146 0.0
H703 H 0.60377 0.12767 0.01227 0.0
H704 H 0.714 0.24003 0.95569 0.0
H705 H 0.59745 0.06528 0.96734 0.0
H706 H 0.65066 0.1685 0.99683 0.0
H707 H 0.69968 0.13436 0.96091 0.0
C708 C 0.73157 0.18201 0.95398 0.0
C709 C 0.73645 0.21234 0.95313 0.0
C710 C 0.63894 0.14584 0.99039 0.0
C711 C 0.67927 0.16372 0.96465 0.0
C712 C 0.61242 0.12253 0.99924 0.0
C713 C 0.59685 0.09312 0.99106 0.0
C714 C 0.6505 0.13945 0.97361 0.0
C715 C 0.60885 0.08774 0.97404 0.0
C716 C 0.70282 0.15753 0.9595 0.0
C717 C 0.71141 0.2171 0.95679 0.0
N718 N 0.63533 0.11063 0.96599 0.0
N719 N 0.6841 0.19316 0.96286 0.0
H720 H 0.82664 0.57959 0.94009 0.0
H721 H 0.9535 0.55628 0.96022 0.0
H722 H 0.86524 0.64537 0.98729 0.0
H723 H 0.95385 0.58763 0.01954 0.0
H724 H 0.91672 0.57348 0.9483 0.0
H725 H 0.86738 0.5656 0.94738 0.0
C726 C 0.84434 0.59163 0.95164 0.0
C727 C 0.84319 0.61398 0.9629 0.0
C728 C 0.92441 0.57618 0.964 0.0
C729 C 0.88981 0.59827 0.97147 0.0
C730 C 0.94569 0.56659 0.97081 0.0
C731 C 0.95647 0.5701 0.99101 0.0
C732 C 0.91362 0.58921 0.97753 0.0
C733 C 0.94592 0.58417 1.0039 0.0
C734 C 0.86764 0.58373 0.95582 0.0
C735 C 0.86576 0.62817 0.97826 0.0
N736 N 0.92501 0.59317 0.99693 0.0
N737 N 0.88811 0.61992 0.98223 0.0
H738 H 0.42695 0.27412 0.99586 0.0
H739 H 0.49873 0.45643 0.9887 0.0
H740 H 0.49255 0.33058 0.95131 0.0
H741 H 0.4726 0.40592 0.04533 0.0
H742 H 0.48887 0.40916 0.97255 0.0
H743 H 0.43634 0.32105 0.01248 0.0
C744 C 0.44341 0.29643 0.98967 0.0
C745 C 0.45902 0.29861 0.97223 0.0
C746 C 0.48519 0.4084 0.98849 0.0
C747 C 0.46924 0.35211 0.99073 0.0
C748 C 0.49045 0.43522 0.99763 0.0
C749 C 0.48602 0.4348 0.01825 0.0
C750 C 0.47498 0.3809 1.00003 0.0
C751 C 0.47619 0.40703 0.02935 0.0
C752 C 0.44867 0.32311 0.99908 0.0
C753 C 0.47975 0.32801 0.96456 0.0
N754 N 0.47072 0.38102 0.02006 0.0
N755 N 0.48412 0.35365 0.97377 0.0
H756 H 0.15682 0.75162 0.07763 0.0
H757 H 0.13067 0.60512 0.01728 0.0
H758 H 0.22914 0.72875 0.07002 0.0
H759 H 0.05565 0.61956 0.03389 0.0
H760 H 0.16739 0.65101 0.03569 0.0
H761 H 0.11939 0.70397 0.06088 0.0
C762 C 0.16465 0.7364 0.07237 0.0
C763 C 0.19593 0.744 0.07489 0.0
C764 C 0.14289 0.64409 0.03539 0.0
C765 C 0.15367 0.68974 0.05578 0.0
C766 C 0.12195 0.61794 0.02486 0.0
C767 C 0.09015 0.60863 0.02406 0.0
C768 C 0.13194 0.66119 0.04506 0.0
C769 C 0.08002 0.62597 0.03417 0.0
C770 C 0.14343 0.7093 0.06285 0.0
C771 C 0.20521 0.72371 0.06799 0.0
N772 N 0.10087 0.65151 0.04418 0.0
N773 N 0.18421 0.69755 0.05864 0.0
H774 H 0.23541 0.37271 0.04673 0.0
H775 H 0.41492 0.49362 0.06642 0.0
H776 H 0.27033 0.43895 0.09364 0.0
H777 H 0.37949 0.44212 0.0119 0.0
H778 H 0.36289 0.46789 0.07909 0.0
H779 H 0.2889 0.39148 0.03651 0.0
C780 C 0.25456 0.3906 0.0552 0.0
C781 C 0.24878 0.40398 0.07125 0.0
C782 C 0.36642 0.46212 0.06437 0.0
C783 C 0.30951 0.42596 0.05955 0.0
C784 C 0.39622 0.47681 0.05708 0.0
C785 C 0.40167 0.47012 0.03798 0.0
C786 C 0.34168 0.44045 0.05256 0.0
C787 C 0.37635 0.44817 0.02663 0.0
C788 C 0.28491 0.40149 0.04929 0.0
C789 C 0.27398 0.42749 0.0816 0.0
N790 N 0.34737 0.4341 0.03409 0.0
N791 N 0.30328 0.43787 0.0755 0.0
H792 H 0.51631 0.83292 0.09431 0.0
H793 H 0.57514 0.9717 0.01328 0.0
H794 H 0.59024 0.85438 0.05465 0.0
H795 H 0.51219 0.95943 0.05951 0.0
H796 H 0.58448 0.93171 0.03006 0.0
H797 H 0.51777 0.8819 0.08402 0.0
C798 C 0.53311 0.84831 0.08362 0.0
C799 C 0.55273 0.83967 0.07493 0.0
C800 C 0.56894 0.93803 0.03671 0.0
C801 C 0.55452 0.89526 0.06292 0.0
C802 C 0.56362 0.96086 0.02713 0.0
C803 C 0.54266 0.96863 0.03492 0.0
C804 C 0.55288 0.92261 0.0541 0.0
C805 C 0.52846 0.95401 0.05296 0.0
C806 C 0.53395 0.87614 0.07771 0.0
C807 C 0.57434 0.86021 0.06128 0.0
N808 N 0.5335 0.9314 0.06179 0.0
N809 N 0.57437 0.88689 0.05545 0.0
H810 H 0.98051 0.17819 0.44227 0.0
H811 H 0.06647 0.29939 0.353 0.0
H812 H 0.93223 0.20197 0.39471 0.0
H813 H 0.115 0.28951 0.40666 0.0
H814 H 0.01706 0.26516 0.36865 0.0
H815 H 0.03002 0.22106 0.43089 0.0
C816 C 0.98038 0.19308 0.42979 0.0
C817 C 0.95247 0.18665 0.41935 0.0
C818 C 0.03853 0.27068 0.37707 0.0
C819 C 0.00875 0.23494 0.40577 0.0
C820 C 0.06679 0.29018 0.3681 0.0
C821 C 0.09504 0.29732 0.37845 0.0
C822 C 0.03839 0.25789 0.39649 0.0
C823 C 0.09387 0.28471 0.39804 0.0
C824 C 0.00857 0.2173 0.42313 0.0
C825 C 0.9534 0.20619 0.40304 0.0
N826 N 0.06611 0.26545 0.40633 0.0
N827 N 0.98107 0.22914 0.39656 0.0
H828 H 0.81322 0.73125 0.37195 0.0
H829 H 0.74162 0.83844 0.39875 0.0
H830 H 0.83383 0.77925 0.42746 0.0
H831 H 0.73559 0.80542 0.33908 0.0
H832 H 0.7718 0.81323 0.41041 0.0
H833 H 0.78108 0.75485 0.36023 0.0
C834 C 0.81073 0.74667 0.38163 0.0
C835 C 0.82565 0.75317 0.40069 0.0
C836 C 0.76388 0.81152 0.39476 0.0
C837 C 0.78935 0.78011 0.38765 0.0
C838 C 0.74656 0.82585 0.38811 0.0
C839 C 0.73609 0.8241 0.36791 0.0
C840 C 0.77063 0.79518 0.38114 0.0
C841 C 0.74331 0.80751 0.35477 0.0
C842 C 0.79253 0.76012 0.37502 0.0
C843 C 0.82208 0.77332 0.41281 0.0
N844 N 0.76011 0.79365 0.36163 0.0
N845 N 0.80422 0.78606 0.40611 0.0
H846 H 0.22428 0.07801 0.36556 0.0
H847 H 0.20945 0.91724 0.37945 0.0
H848 H 0.19777 0.03528 0.42438 0.0
H849 H 0.13818 0.92174 0.34083 0.0
H850 H 0.22278 0.96756 0.39277 0.0
H851 H 0.20959 0.02712 0.35217 0.0
C852 C 0.21521 0.05785 0.37556 0.0
C853 C 0.21169 0.06054 0.39598 0.0
C854 C 0.2042 0.95731 0.38142 0.0
C855 C 0.19647 1.00328 0.38112 0.0
C856 C 0.19642 0.92862 0.37394 0.0
C857 C 0.17216 0.91499 0.35941 0.0
C858 C 0.18841 0.97286 0.37372 0.0
C859 C 0.15679 0.93131 0.35221 0.0
C860 C 0.20705 0.0291 0.36799 0.0
C861 C 0.20079 0.03402 0.40856 0.0
N862 N 0.16538 0.95964 0.35931 0.0
N863 N 0.1938 1.00642 0.40097 0.0
H864 H 0.50261 0.62624 0.32958 0.0
H865 H 0.62906 0.79941 0.30982 0.0
H866 H 0.50206 0.6718 0.27267 0.0
H867 H 0.582 0.77153 0.36582 0.0
H868 H 0.59092 0.74941 0.29583 0.0
H869 H 0.53967 0.6765 0.34352 0.0
C870 C 0.51012 0.64682 0.32008 0.0
C871 C 0.49921 0.64486 0.29995 0.0
C872 C 0.5891 0.75434 0.31119 0.0
C873 C 0.54245 0.70201 0.3155 0.0
C874 C 0.61091 0.78266 0.31919 0.0
C875 C 0.60865 0.78944 0.33897 0.0
C876 C 0.56553 0.73244 0.32331 0.0
C877 C 0.58442 0.76715 0.35046 0.0
C878 C 0.53137 0.67537 0.32798 0.0
C879 C 0.51031 0.67222 0.28814 0.0
N880 N 0.56398 0.73945 0.34255 0.0
N881 N 0.5316 0.69965 0.29601 0.0
H882 H 0.4241 0.96605 0.3274 0.0
H883 H 0.24272 0.84992 0.30939 0.0
H884 H 0.38541 0.90383 0.2782 0.0
H885 H 0.28131 0.89857 0.3647 0.0
H886 H 0.29485 0.87211 0.29696 0.0
H887 H 0.37185 0.94419 0.34077 0.0
C888 C 0.40446 0.94788 0.31945 0.0
C889 C 0.40864 0.93685 0.30164 0.0
C890 C 0.29198 0.8779 0.31184 0.0
C891 C 0.34939 0.91187 0.31658 0.0
C892 C 0.26217 0.86526 0.31896 0.0
C893 C 0.25764 0.8724 0.33813 0.0
C894 C 0.31752 0.89801 0.32392 0.0
C895 C 0.28377 0.89237 0.34985 0.0
C896 C 0.3748 0.93541 0.32702 0.0
C897 C 0.38281 0.91326 0.29177 0.0
N898 N 0.31265 0.90459 0.34252 0.0
N899 N 0.35424 0.90158 0.29935 0.0
H900 H 0.15336 0.52771 0.27326 0.0
H901 H 0.12827 0.40956 0.36448 0.0
H902 H 0.08125 0.50112 0.31538 0.0
H903 H 0.17832 0.41397 0.31239 0.0
H904 H 0.10975 0.44214 0.34627 0.0
H905 H 0.1612 0.48449 0.28598 0.0
C906 C 0.13857 0.51212 0.28477 0.0
C907 C 0.1168 0.51789 0.29342 0.0
C908 C 0.12452 0.43573 0.33874 0.0
C909 C 0.12622 0.46931 0.30856 0.0
C910 C 0.13519 0.41726 0.34917 0.0
C911 C 0.15506 0.40936 0.33999 0.0
C912 C 0.13419 0.44674 0.3191 0.0
C913 C 0.16317 0.41973 0.32006 0.0
C914 C 0.14321 0.48769 0.29219 0.0
C915 C 0.09853 0.49748 0.30856 0.0
N916 N 0.15303 0.43821 0.31037 0.0
N917 N 0.10399 0.47442 0.31592 0.0
H918 H 0.43203 0.53009 0.31905 0.0
H919 H 0.25319 0.41021 0.29299 0.0
H920 H 0.38388 0.53853 0.26503 0.0
H921 H 0.29873 0.41802 0.35149 0.0
H922 H 0.30248 0.45102 0.2799 0.0
H923 H 0.38514 0.48278 0.32852 0.0
C924 C 0.41152 0.52166 0.30912 0.0
C925 C 0.41161 0.53814 0.29135 0.0
C926 C 0.30165 0.44353 0.29554 0.0
C927 C 0.35775 0.4841 0.30197 0.0
C928 C 0.27358 0.42012 0.303 0.0
C929 C 0.27171 0.41081 0.32342 0.0
C930 C 0.32808 0.45741 0.30857 0.0
C931 C 0.29891 0.42463 0.33571 0.0
C932 C 0.38477 0.49473 0.31448 0.0
C933 C 0.38467 0.52626 0.27879 0.0
N934 N 0.32581 0.44719 0.32812 0.0
N935 N 0.35866 0.50003 0.28441 0.0
H936 H 0.50085 0.91841 0.26916 0.0
H937 H 0.62993 0.9329 0.35228 0.0
H938 H 0.53193 0.98236 0.31737 0.0
H939 H 0.61137 0.88246 0.29775 0.0
H940 H 0.59528 0.95249 0.33927 0.0
H941 H 0.54304 0.90686 0.27829 0.0
C942 C 0.51715 0.93057 0.28135 0.0
C943 C 0.51326 0.95143 0.29252 0.0
C944 C 0.59897 0.93731 0.33009 0.0
C945 C 0.56074 0.93773 0.30353 0.0
C946 C 0.61863 0.92598 0.33755 0.0
C947 C 0.62341 0.90584 0.32615 0.0
C948 C 0.58374 0.92821 0.31116 0.0
C949 C 0.60835 0.89789 0.30709 0.0
C950 C 0.54102 0.92381 0.2867 0.0
C951 C 0.53437 0.96609 0.30851 0.0
N952 N 0.589 0.9089 0.30026 0.0
N953 N 0.55706 0.95872 0.31371 0.0
H954 H 0.17879 0.63531 0.31227 0.0
H955 H 0.11356 0.74824 0.33898 0.0
H956 H 0.08523 0.61665 0.29756 0.0
H957 H 0.20297 0.76026 0.36038 0.0
H958 H 0.10373 0.70168 0.32196 0.0
H959 H 0.18929 0.68298 0.32833 0.0
C960 C 0.1605 0.64139 0.31257 0.0
C961 C 0.13107 0.62216 0.30396 0.0
C962 C 0.1255 0.71449 0.33037 0.0
C963 C 0.14273 0.67648 0.32189 0.0
C964 C 0.13113 0.74107 0.34005 0.0
C965 C 0.15911 0.75803 0.35107 0.0
C966 C 0.14806 0.70486 0.33172 0.0
C967 C 0.18106 0.74774 0.35206 0.0
C968 C 0.16641 0.6685 0.32164 0.0
C969 C 0.10814 0.631 0.30424 0.0
N970 N 0.17509 0.72182 0.34249 0.0
N971 N 0.1144 0.65754 0.31312 0.0
H972 H 0.82514 0.09516 0.40802 0.0
H973 H 0.71675 0.95136 0.37165 0.0
H974 H 0.89242 0.06461 0.40339 0.0
H975 H 0.79559 0.94678 0.35109 0.0
H976 H 0.75195 0.99847 0.38905 0.0
H977 H 0.78573 0.04827 0.3918 0.0
C978 C 0.83135 0.07825 0.40362 0.0
C979 C 0.8618 0.0835 0.40688 0.0
C980 C 0.76178 0.98768 0.38048 0.0
C981 C 0.81687 0.02921 0.38893 0.0
C982 C 0.74157 0.96045 0.37072 0.0
C983 C 0.7533 0.94526 0.35984 0.0
C984 C 0.79407 1.00005 0.37918 0.0
C985 C 0.78561 0.9579 0.35924 0.0
C986 C 0.80885 0.05129 0.39456 0.0
C987 C 0.86909 0.06125 0.40092 0.0
N988 N 0.80486 0.98456 0.36877 0.0
N989 N 0.84679 0.03507 0.39218 0.0
H990 H 0.90351 0.70743 0.3855 0.0
H991 H 0.0848 0.82433 0.40353 0.0
H992 H 0.94075 0.77534 0.43133 0.0
H993 H 0.04687 0.7668 0.35176 0.0
H994 H 0.03287 0.80174 0.41647 0.0
H995 H 0.9566 0.72326 0.37577 0.0
C996 C 0.92307 0.725 0.39389 0.0
C997 C 0.9181 0.73965 0.40951 0.0
C998 C 0.03587 0.79397 0.40231 0.0
C999 C 0.97847 0.75856 0.39826 0.0
C1000 C 0.06558 0.80685 0.3949 0.0
C1001 C 0.07026 0.79748 0.37651 0.0
C1002 C 0.01053 0.77146 0.39129 0.0
C1003 C 0.04434 0.77489 0.36593 0.0
C1004 C 0.95323 0.73428 0.38825 0.0
C1005 C 0.94382 0.76288 0.41968 0.0
N1006 N 0.01556 0.76265 0.37347 0.0
N1007 N 0.97296 0.77178 0.4138 0.0
H1008 H 0.16361 0.13201 0.41163 0.0
H1009 H 0.23468 0.3084 0.37333 0.0
H1010 H 0.26149 0.1927 0.40552 0.0
H1011 H 0.13774 0.24049 0.3678 0.0
H1012 H 0.24504 0.26979 0.39168 0.0
H1013 H 0.15385 0.17511 0.40244 0.0
C1014 C 0.183 0.15458 0.40847 0.0
C1015 C 0.21325 0.15891 0.40881 0.0
C1016 C 0.22148 0.26349 0.38661 0.0
C1017 C 0.20255 0.20826 0.39843 0.0
C1018 C 0.21557 0.28549 0.37621 0.0
C1019 C 0.1854 0.27738 0.36884 0.0
C1020 C 0.19695 0.23338 0.38976 0.0
C1021 C 0.16142 0.2475 0.37299 0.0
C1022 C 0.17753 0.17916 0.40328 0.0
C1023 C 0.23784 0.18865 0.40522 0.0
N1024 N 0.16773 0.22655 0.38306 0.0
N1025 N 0.23196 0.21222 0.39989 0.0
H1026 H 0.60108 0.53101 0.73132 0.0
H1027 H 0.78717 0.6228 0.74188 0.0
H1028 H 0.65267 0.50544 0.77531 0.0
H1029 H 0.73411 0.6282 0.68929 0.0
H1030 H 0.73853 0.5867 0.75786 0.0
H1031 H 0.64985 0.57452 0.71993 0.0
C1032 C 0.62278 0.5351 0.73885 0.0
C1033 C 0.62305 0.51465 0.75413 0.0
C1034 C 0.73759 0.59594 0.74287 0.0
C1035 C 0.679 0.56404 0.7411 0.0
C1036 C 0.76534 0.6166 0.73372 0.0
C1037 C 0.76484 0.62849 0.7141 0.0
C1038 C 0.70903 0.58736 0.73248 0.0
C1039 C 0.73576 0.6195 0.70433 0.0
C1040 C 0.6506 0.55973 0.73228 0.0
C1041 C 0.65164 0.52087 0.76354 0.0
N1042 N 0.70913 0.59956 0.71361 0.0
N1043 N 0.67857 0.54484 0.75673 0.0
H1044 H 0.47767 0.06556 0.70937 0.0
H1045 H 0.40777 0.17598 0.73207 0.0
H1046 H 0.50168 0.11918 0.76264 0.0
H1047 H 0.39745 0.13572 0.67429 0.0
H1048 H 0.43847 0.15168 0.7447 0.0
H1049 H 0.44439 0.08762 0.69717 0.0
C1050 C 0.4757 0.08191 0.71846 0.0
C1051 C 0.49201 0.09052 0.737 0.0
C1052 C 0.42947 0.14818 0.72926 0.0
C1053 C 0.45434 0.11571 0.72342 0.0
C1054 C 0.41189 0.162 0.72205 0.0
C1055 C 0.40013 0.15799 0.70207 0.0
C1056 C 0.43517 0.13009 0.71643 0.0
C1057 C 0.40619 0.13959 0.68977 0.0
C1058 C 0.45683 0.09447 0.71158 0.0
C1059 C 0.48897 0.11172 0.74839 0.0
N1060 N 0.42329 0.12632 0.69716 0.0
N1061 N 0.47046 0.12362 0.74142 0.0
H1062 H 0.91166 0.39905 0.73676 0.0
H1063 H 0.78555 0.24595 0.68149 0.0
H1064 H 0.81724 0.37846 0.72339 0.0
H1065 H 0.87566 0.26048 0.70336 0.0
H1066 H 0.79718 0.29523 0.69545 0.0
H1067 H 0.89967 0.34921 0.72325 0.0
C1068 C 0.8884 0.38384 0.73091 0.0
C1069 C 0.86534 0.39249 0.73106 0.0
C1070 C 0.81438 0.28761 0.69725 0.0
C1071 C 0.85131 0.33581 0.7156 0.0
C1072 C 0.80776 0.25953 0.68926 0.0
C1073 C 0.82969 0.2492 0.6913 0.0
C1074 C 0.84323 0.30557 0.70722 0.0
C1075 C 0.85808 0.2676 0.70153 0.0
C1076 C 0.8815 0.35549 0.72325 0.0
C1077 C 0.83552 0.37235 0.72338 0.0
N1078 N 0.86409 0.29494 0.70905 0.0
N1079 N 0.82932 0.3449 0.7159 0.0
H1080 H 0.1283 0.99218 0.6388 0.0
H1081 H 0.30784 0.1158 0.65883 0.0
H1082 H 0.20393 0.97697 0.62533 0.0
H1083 H 0.23231 0.127 0.67852 0.0
H1084 H 0.27011 0.06622 0.64471 0.0
H1085 H 0.16586 0.04265 0.6522 0.0
C1086 C 0.15286 0.9995 0.63883 0.0
C1087 C 0.16318 0.98057 0.63106 0.0
C1088 C 0.26175 0.07952 0.65209 0.0
C1089 C 0.20628 0.03821 0.646 0.0
C1090 C 0.28329 0.10787 0.66008 0.0
C1091 C 0.27315 0.12545 0.66989 0.0
C1092 C 0.2298 0.06867 0.65387 0.0
C1093 C 0.24108 0.11409 0.67112 0.0
C1094 C 0.17429 0.0283 0.64635 0.0
C1095 C 0.19521 0.99113 0.63109 0.0
N1096 N 0.22055 0.0864 0.66323 0.0
N1097 N 0.21564 0.01925 0.63842 0.0
H1098 H 0.08862 0.3006 0.66142 0.0
H1099 H 0.90669 0.19119 0.6389 0.0
H1100 H 0.0508 0.24157 0.61058 0.0
H1101 H 0.9444 0.23696 0.69525 0.0
H1102 H 0.95933 0.21252 0.62726 0.0
H1103 H 0.03577 0.28026 0.67339 0.0
C1104 C 0.06905 0.28338 0.65284 0.0
C1105 C 0.07368 0.27285 0.63497 0.0
C1106 C 0.95609 0.21788 0.64218 0.0
C1107 C 0.01367 0.24965 0.64829 0.0
C1108 C 0.92602 0.20576 0.64883 0.0
C1109 C 0.92112 0.21223 0.6681 0.0
C1110 C 0.98147 0.23675 0.65485 0.0
C1111 C 0.94709 0.23126 0.6803 0.0
C1112 C 0.03903 0.27181 0.65958 0.0
C1113 C 0.04789 0.25056 0.62424 0.0
N1114 N 0.97618 0.24289 0.67345 0.0
N1115 N 0.01894 0.23972 0.63103 0.0
H1116 H 0.75379 0.82827 0.62408 0.0
H1117 H 0.88872 0.79677 0.67006 0.0
H1118 H 0.85107 0.89395 0.62203 0.0
H1119 H 0.7937 0.72426 0.66435 0.0
H1120 H 0.87519 0.83099 0.64957 0.0
H1121 H 0.76716 0.78786 0.63527 0.0
C1122 C 0.77793 0.83382 0.62544 0.0
C1123 C 0.80146 0.86425 0.62231 0.0
C1124 C 0.85723 0.80755 0.65258 0.0
C1125 C 0.81701 0.81886 0.63543 0.0
C1126 C 0.86496 0.78803 0.66437 0.0
C1127 C 0.8422 0.75782 0.66908 0.0
C1128 C 0.82632 0.79702 0.64567 0.0
C1129 C 0.81186 0.74753 0.66112 0.0
C1130 C 0.7856 0.81095 0.63195 0.0
C1131 C 0.83241 0.87067 0.62445 0.0
N1132 N 0.80465 0.76726 0.65001 0.0
N1133 N 0.8393 0.84831 0.63113 0.0
H1134 H 0.10016 0.8597 0.64705 0.0
H1135 H 0.91641 0.75251 0.62916 0.0
H1136 H 0.04635 0.87883 0.60097 0.0
H1137 H 0.96755 0.74823 0.68313 0.0
H1138 H 0.965 0.79259 0.61524 0.0
H1139 H 0.05308 0.81248 0.65692 0.0
C1140 C 0.07833 0.85362 0.63894 0.0
C1141 C 0.07672 0.87318 0.6235 0.0
C1142 C 0.96558 0.78267 0.63006 0.0
C1143 C 0.02299 0.81942 0.63445 0.0
C1144 C 0.93785 0.75967 0.63801 0.0
C1145 C 0.93778 0.74708 0.65746 0.0
C1146 C 0.99353 0.79303 0.64154 0.0
C1147 C 0.96637 0.7574 0.66817 0.0
C1148 C 0.05153 0.82682 0.64454 0.0
C1149 C 0.04824 0.8643 0.61308 0.0
N1150 N 0.99301 0.77981 0.66011 0.0
N1151 N 0.02235 0.83816 0.61886 0.0
H1152 H 0.19617 0.31719 0.65327 0.0
H1153 H 0.28158 0.22183 0.62798 0.0
H1154 H 0.16838 0.25607 0.60362 0.0
H1155 H 0.29566 0.26768 0.684 0.0
H1156 H 0.24618 0.2411 0.61596 0.0
H1157 H 0.23909 0.30631 0.66187 0.0
C1158 C 0.19956 0.30186 0.64404 0.0
C1159 C 0.17907 0.28757 0.62773 0.0
C1160 C 0.25718 0.24707 0.63083 0.0
C1161 C 0.22756 0.2748 0.63738 0.0
C1162 C 0.27745 0.23613 0.6377 0.0
C1163 C 0.2914 0.24291 0.65712 0.0
C1164 C 0.25096 0.26504 0.64342 0.0
C1165 C 0.28519 0.2616 0.66901 0.0
C1166 C 0.22387 0.29557 0.64893 0.0
C1167 C 0.1841 0.26785 0.61612 0.0
N1168 N 0.26535 0.27191 0.662 0.0
N1169 N 0.20777 0.26186 0.62124 0.0
H1170 H 0.84849 0.97805 0.64008 0.0
H1171 H 0.7786 0.08418 0.67197 0.0
H1172 H 0.7507 0.94903 0.63636 0.0
H1173 H 0.87091 0.10123 0.69015 0.0
H1174 H 0.76902 0.03692 0.65602 0.0
H1175 H 0.85832 0.02557 0.65593 0.0
C1176 C 0.82912 0.98171 0.64275 0.0
C1177 C 0.79876 0.95969 0.63706 0.0
C1178 C 0.79135 0.05096 0.66352 0.0
C1179 C 0.80972 1.01402 0.65478 0.0
C1180 C 0.79686 0.07796 0.67256 0.0
C1181 C 0.82557 0.09652 0.6824 0.0
C1182 C 0.81483 0.04261 0.66418 0.0
C1183 C 0.84842 0.08744 0.68277 0.0
C1184 C 0.83469 1.0088 0.6517 0.0
C1185 C 0.77443 0.96563 0.64045 0.0
N1186 N 0.8426 0.06114 0.67373 0.0
N1187 N 0.78042 0.99229 0.64905 0.0
H1188 H 0.56712 0.39462 0.73555 0.0
H1189 H 0.3881 0.28834 0.70155 0.0
H1190 H 0.49612 0.41901 0.74398 0.0
H1191 H 0.46165 0.27149 0.68514 0.0
H1192 H 0.42661 0.33439 0.71916 0.0
H1193 H 0.52831 0.34761 0.7187 0.0
C1194 C 0.54327 0.38994 0.73372 0.0
C1195 C 0.53458 0.41046 0.74095 0.0
C1196 C 0.43434 0.32062 0.71172 0.0
C1197 C 0.49007 0.35696 0.72203 0.0
C1198 C 0.41235 0.2943 0.70173 0.0
C1199 C 0.42176 0.27617 0.69186 0.0
C1200 C 0.46594 0.3288 0.71189 0.0
C1201 C 0.45345 0.28493 0.69251 0.0
C1202 C 0.52114 0.36322 0.72419 0.0
C1203 C 0.50348 0.40356 0.7385 0.0
N1204 N 0.4744 0.3106 0.70235 0.0
N1205 N 0.48228 0.37735 0.72926 0.0
H1206 H 0.56727 0.04568 0.7184 0.0
H1207 H 0.75008 0.15344 0.73754 0.0
H1208 H 0.60799 0.10702 0.76785 0.0
H1209 H 0.70931 0.10525 0.68235 0.0
H1210 H 0.69866 0.13051 0.75117 0.0
H1211 H 0.61955 0.06031 0.70763 0.0
C1212 C 0.58737 0.06156 0.72728 0.0
C1213 C 0.58358 0.07491 0.74414 0.0
C1214 C 0.70092 0.12486 0.73609 0.0
C1215 C 0.64312 0.09229 0.73183 0.0
C1216 C 0.73034 0.13802 0.72824 0.0
C1217 C 0.73411 0.1315 0.70866 0.0
C1218 C 0.67488 0.1049 0.72435 0.0
C1219 C 0.70753 0.11115 0.69744 0.0
C1220 C 0.61708 0.07012 0.72107 0.0
C1221 C 0.61005 0.09572 0.75508 0.0
N1222 N 0.67901 0.09862 0.70544 0.0
N1223 N 0.63876 0.10399 0.74864 0.0
H1224 H 0.92163 0.51009 0.71351 0.0
H1225 H 0.86456 0.6345 0.72156 0.0
H1226 H 0.85751 0.50053 0.75801 0.0
H1227 H 0.88054 0.60672 0.66526 0.0
H1228 H 0.87649 0.59644 0.73943 0.0
H1229 H 0.92183 0.55729 0.70025 0.0
C1230 C 0.9079 0.51823 0.7206 0.0
C1231 C 0.88893 0.50116 0.7365 0.0
C1232 C 0.87784 0.59911 0.7232 0.0
C1233 C 0.88961 0.55527 0.72183 0.0
C1234 C 0.87126 0.62087 0.71306 0.0
C1235 C 0.87159 0.62357 0.69198 0.0
C1236 C 0.88549 0.58065 0.71212 0.0
C1237 C 0.87996 0.60517 0.68154 0.0
C1238 C 0.90808 0.54509 0.7131 0.0
C1239 C 0.87229 0.51306 0.74565 0.0
N1240 N 0.88664 0.58451 0.69171 0.0
N1241 N 0.87276 0.53933 0.73806 0.0
H1242 H 0.45291 0.92585 0.23925 0.0
H1243 H 0.58068 0.05293 0.16766 0.0
H1244 H 0.53078 1.00883 0.26146 0.0
H1245 H 0.49688 0.97341 0.14664 0.0
H1246 H 0.56751 0.03395 0.20236 0.0
H1247 H 0.47381 0.93914 0.20557 0.0
C1248 C 0.47463 0.9468 0.2369 0.0
C1249 C 0.49003 0.96662 0.2528 0.0
C1250 C 0.55223 0.02053 0.19011 0.0
C1251 C 0.51408 0.98224 0.21452 0.0
C1252 C 0.55962 0.03142 0.1703 0.0
C1253 C 0.53974 1.01489 0.15416 0.0
C1254 C 0.52476 0.99293 0.1938 0.0
C1255 C 0.51311 0.98685 0.15851 0.0
C1256 C 0.48659 0.95442 0.21777 0.0
C1257 C 0.51833 0.99322 0.24937 0.0
N1258 N 0.50631 0.97693 0.17788 0.0
N1259 N 0.52935 1.00055 0.23046 0.0
H1260 H 0.14915 0.5622 0.24225 0.0
H1261 H 0.00537 0.50298 0.16284 0.0
H1262 H 0.05415 0.52206 0.25886 0.0
H1263 H 0.10088 0.54423 0.14609 0.0
H1264 H 0.02207 0.50214 0.19804 0.0
H1265 H 0.13148 0.54771 0.20724 0.0
C1266 C 0.1245 0.54927 0.23852 0.0
C1267 C 0.10295 0.54278 0.25327 0.0
C1268 C 0.03937 0.51108 0.18666 0.0
C1269 C 0.08243 0.52725 0.21336 0.0
C1270 C 0.02982 0.51142 0.16648 0.0
C1271 C 0.05175 0.52396 0.15139 0.0
C1272 C 0.07114 0.52348 0.1919 0.0
C1273 C 0.08317 0.53491 0.15719 0.0
C1274 C 0.11437 0.54134 0.21857 0.0
C1275 C 0.07128 0.52691 0.24781 0.0
N1276 N 0.09192 0.53464 0.17696 0.0
N1277 N 0.06192 0.51999 0.22824 0.0
H1278 H 0.42303 0.57565 0.23731 0.0
H1279 H 0.5081 0.50899 0.17485 0.0
H1280 H 0.4772 0.53637 0.26522 0.0
H1281 H 0.44192 0.53507 0.14828 0.0
H1282 H 0.49302 0.51356 0.20831 0.0
H1283 H 0.42446 0.55504 0.20498 0.0
C1284 C 0.43432 0.56171 0.23662 0.0
C1285 C 0.44962 0.55716 0.25376 0.0
C1286 C 0.48147 0.51785 0.19517 0.0
C1287 C 0.45269 0.53469 0.21691 0.0
C1288 C 0.49019 0.5154 0.17606 0.0
C1289 C 0.47648 0.52193 0.15872 0.0
C1290 C 0.45911 0.52728 0.19699 0.0
C1291 C 0.45305 0.52968 0.16119 0.0
C1292 C 0.43544 0.5502 0.21821 0.0
C1293 C 0.46477 0.5398 0.25224 0.0
N1294 N 0.44542 0.53253 0.17994 0.0
N1295 N 0.46636 0.52954 0.23404 0.0
H1296 H 0.85368 0.44813 0.7939 0.0
H1297 H 0.00624 0.55952 0.85866 0.0
H1298 H 0.94138 0.50925 0.76785 0.0
H1299 H 0.92264 0.48656 0.88414 0.0
H1300 H 0.98007 0.54881 0.82535 0.0
H1301 H 0.87547 0.47004 0.82694 0.0
C1302 C 0.87741 0.46665 0.7952 0.0
C1303 C 0.89598 0.47681 0.77839 0.0
C1304 C 0.96738 0.53538 0.83828 0.0
C1305 C 0.92126 0.50175 0.81593 0.0
C1306 C 0.98235 0.54134 0.8573 0.0
C1307 C 0.96682 0.52362 0.87428 0.0
C1308 C 0.93659 0.51155 0.83614 0.0
C1309 C 0.93559 0.50094 0.87159 0.0
C1310 C 0.8899 0.47907 0.81398 0.0
C1311 C 0.92647 0.50096 0.78058 0.0
N1312 N 0.92164 0.49539 0.85289 0.0
N1313 N 0.93837 0.51239 0.79911 0.0
H1314 H 0.57069 0.51975 0.78104 0.0
H1315 H 0.55248 0.47264 0.89779 0.0
H1316 H 0.6017 0.45962 0.81019 0.0
H1317 H 0.53061 0.54093 0.87031 0.0
H1318 H 0.5763 0.47234 0.86679 0.0
H1319 H 0.56267 0.53363 0.81421 0.0
C1320 C 0.57695 0.51047 0.79453 0.0
C1321 C 0.58693 0.48867 0.79304 0.0
C1322 C 0.56655 0.48762 0.86759 0.0
C1323 C 0.57674 0.50325 0.83092 0.0
C1324 C 0.553 0.4879 0.88538 0.0
C1325 C 0.53907 0.50657 0.88673 0.0
C1326 C 0.56611 0.50599 0.85085 0.0
C1327 C 0.54031 0.52556 0.86991 0.0
C1328 C 0.57198 0.51798 0.81344 0.0
C1329 C 0.59406 0.47661 0.81085 0.0
N1330 N 0.55326 0.52455 0.85267 0.0
N1331 N 0.58835 0.48363 0.82904 0.0
H1332 H 0.52286 1.00419 0.77679 0.0
H1333 H 0.56451 0.05483 0.89129 0.0
H1334 H 0.57309 0.09833 0.79507 0.0
H1335 H 0.48818 0.96771 0.87228 0.0
H1336 H 0.58041 0.0673 0.85644 0.0
H1337 H 0.52374 0.98695 0.81209 0.0
C1338 C 0.5354 0.02113 0.7882 0.0
C1339 C 0.54845 0.05261 0.7832 0.0
C1340 C 0.56044 0.04528 0.86 0.0
C1341 C 0.5488 0.03344 0.82334 0.0
C1342 C 0.55115 0.03821 0.87986 0.0
C1343 C 0.52448 1.01043 0.88475 0.0
C1344 C 0.54315 0.02435 0.84489 0.0
C1345 C 0.50884 0.98941 0.86933 0.0
C1346 C 0.53553 1.01139 0.80829 0.0
C1347 C 0.56351 0.07389 0.79842 0.0
N1348 N 0.5182 0.99695 0.85006 0.0
N1349 N 0.563 0.06395 0.81788 0.0
H1350 H 0.19551 0.34939 0.59719 0.0
H1351 H 0.18301 0.29783 0.48365 0.0
H1352 H 0.1241 0.26304 0.57423 0.0
H1353 H 0.23447 0.39292 0.50086 0.0
H1354 H 0.16916 0.28251 0.51859 0.0
H1355 H 0.21806 0.36355 0.56361 0.0
C1356 C 0.18503 0.33335 0.58506 0.0
C1357 C 0.15806 0.30523 0.58811 0.0
C1358 C 0.18363 0.30672 0.51476 0.0
C1359 C 0.18318 0.32084 0.55017 0.0
C1360 C 0.19169 0.31547 0.49485 0.0
C1361 C 0.20982 0.34671 0.48936 0.0
C1362 C 0.19385 0.32934 0.52935 0.0
C1363 C 0.22012 0.36862 0.50445 0.0
C1364 C 0.19764 0.34138 0.566 0.0
C1365 C 0.14489 0.285 0.57218 0.0
N1366 N 0.21193 0.35953 0.52381 0.0
N1367 N 0.15753 0.29322 0.55384 0.0
H1368 H 0.81114 0.89133 0.5765 0.0
H1369 H 0.66389 0.82865 0.49923 0.0
H1370 H 0.71778 0.86128 0.59349 0.0
H1371 H 0.75891 0.87872 0.48103 0.0
H1372 H 0.68257 0.82913 0.53412 0.0
H1373 H 0.79156 0.87475 0.54195 0.0
C1374 C 0.78639 0.88023 0.573 0.0
C1375 C 0.76589 0.87745 0.58762 0.0
C1376 C 0.69933 0.8397 0.52246 0.0
C1377 C 0.74338 0.85914 0.5484 0.0
C1378 C 0.68869 0.83959 0.50252 0.0
C1379 C 0.70982 0.85414 0.48713 0.0
C1380 C 0.73138 0.85441 0.52714 0.0
C1381 C 0.74169 0.86717 0.49232 0.0
C1382 C 0.77524 0.87111 0.55333 0.0
C1383 C 0.73411 0.86356 0.5825 0.0
N1384 N 0.75149 0.8673 0.51189 0.0
N1385 N 0.72381 0.85518 0.56325 0.0
H1386 H 0.08762 0.91428 0.56739 0.0
H1387 H 0.15371 0.82238 0.50996 0.0
H1388 H 0.13526 0.86952 0.59736 0.0
H1389 H 0.11701 0.87788 0.48006 0.0
H1390 H 0.13837 0.8311 0.54216 0.0
H1391 H 0.08837 0.89198 0.53552 0.0
C1392 C 0.09742 0.89895 0.56722 0.0
C1393 C 0.11132 0.89349 0.58477 0.0
C1394 C 0.13338 0.84109 0.52852 0.0
C1395 C 0.11314 0.86862 0.54859 0.0
C1396 C 0.14229 0.83627 0.51012 0.0
C1397 C 0.13707 0.84976 0.49222 0.0
C1398 C 0.1191 0.85953 0.52912 0.0
C1399 C 0.12145 0.86689 0.49338 0.0
C1400 C 0.09815 0.88647 0.5491 0.0
C1401 C 0.12419 0.87394 0.58402 0.0
N1402 N 0.11332 0.87152 0.51151 0.0
N1403 N 0.12516 0.86246 0.56614 0.0
H1404 H 0.52097 0.78975 0.13019 0.0
H1405 H 0.67641 0.8928 0.19532 0.0
H1406 H 0.61052 0.84401 0.10471 0.0
H1407 H 0.58991 0.82536 0.22078 0.0
H1408 H 0.65056 0.88332 0.16193 0.0
H1409 H 0.54354 0.8114 0.16324 0.0
C1410 C 0.54532 0.80677 0.13163 0.0
C1411 C 0.56417 0.81502 0.11505 0.0
C1412 C 0.63718 0.87085 0.17486 0.0
C1413 C 0.59025 0.83957 0.15249 0.0
C1414 C 0.65195 0.8761 0.19393 0.0
C1415 C 0.63546 0.8595 0.21091 0.0
C1416 C 0.60563 0.84887 0.1727 0.0
C1417 C 0.6036 0.83878 0.2082 0.0
C1418 C 0.55824 0.81899 0.1504 0.0
C1419 C 0.59549 0.83716 0.11734 0.0
N1420 N 0.58983 0.83385 0.18945 0.0
N1421 N 0.60773 0.84845 0.13583 0.0
H1422 H 0.27442 0.80858 0.14068 0.0
H1423 H 0.17591 0.8578 0.20601 0.0
H1424 H 0.21468 0.84291 0.11509 0.0
H1425 H 0.23385 0.82084 0.23174 0.0
H1426 H 0.19652 0.86068 0.17306 0.0
H1427 H 0.26752 0.82189 0.1743 0.0
C1428 C 0.26092 0.82018 0.14216 0.0
C1429 C 0.24552 0.82524 0.12524 0.0
C1430 C 0.20498 0.85222 0.18594 0.0
C1431 C 0.23622 0.83924 0.16353 0.0
C1432 C 0.19331 0.85071 0.20484 0.0
C1433 C 0.20288 0.83878 0.22176 0.0
C1434 C 0.2264 0.84168 0.1838 0.0
C1435 C 0.22526 0.82961 0.21911 0.0
C1436 C 0.25654 0.82734 0.16132 0.0
C1437 C 0.22734 0.83928 0.12784 0.0
N1438 N 0.23604 0.83103 0.20052 0.0
N1439 N 0.22283 0.84542 0.14665 0.0
H1440 H 0.20038 0.33628 0.1093 0.0
H1441 H 0.21444 0.40738 0.21561 0.0
H1442 H 0.23162 0.43213 0.11837 0.0
H1443 H 0.18663 0.31156 0.20765 0.0
H1444 H 0.23109 0.41872 0.18099 0.0
H1445 H 0.20597 0.32849 0.14579 0.0
C1446 C 0.20981 0.3559 0.11899 0.0
C1447 C 0.21605 0.38491 0.11104 0.0
C1448 C 0.22169 0.39525 0.18687 0.0
C1449 C 0.22123 0.37627 0.15256 0.0
C1450 C 0.21226 0.38877 0.20671 0.0
C1451 C 0.19851 0.35835 0.21448 0.0
C1452 C 0.21712 0.37111 0.1746 0.0
C1453 C 0.19622 0.33521 0.20212 0.0
C1454 C 0.21263 0.35149 0.13978 0.0
C1455 C 0.22724 0.40959 0.12407 0.0
N1456 N 0.205 0.34199 0.18273 0.0
N1457 N 0.22901 0.40465 0.14423 0.0
H1458 H 0.86717 0.66855 0.93127 0.0
H1459 H 0.82236 0.62767 0.81604 0.0
H1460 H 0.78073 0.59297 0.91021 0.0
H1461 H 0.91527 0.69271 0.83683 0.0
H1462 H 0.80845 0.61176 0.85076 0.0
H1463 H 0.8873 0.6755 0.89731 0.0
C1464 C 0.85267 0.65334 0.91944 0.0
C1465 C 0.82216 0.63075 0.92312 0.0
C1466 C 0.83201 0.62928 0.84776 0.0
C1467 C 0.84452 0.63829 0.88464 0.0
C1468 C 0.84007 0.63824 0.82785 0.0
C1469 C 0.86997 0.66185 0.82344 0.0
C1470 C 0.85386 0.64425 0.86344 0.0
C1471 C 0.89171 0.67496 0.83953 0.0
C1472 C 0.86402 0.65721 0.90016 0.0
C1473 C 0.8041 0.61122 0.90761 0.0
N1474 N 0.88311 0.66627 0.85884 0.0
N1475 N 0.81541 0.61564 0.88896 0.0
H1476 H 0.48279 0.25579 0.90789 0.0
H1477 H 0.34091 0.1687 0.82969 0.0
H1478 H 0.39111 0.18929 0.9258 0.0
H1479 H 0.43463 0.23146 0.81248 0.0
H1480 H 0.35993 0.16993 0.8646 0.0
H1481 H 0.46726 0.24099 0.8728 0.0
C1482 C 0.4596 0.23738 0.90434 0.0
C1483 C 0.43816 0.22354 0.9195 0.0
C1484 C 0.37639 0.18314 0.85315 0.0
C1485 C 0.41969 0.20715 0.87952 0.0
C1486 C 0.36557 0.18234 0.83317 0.0
C1487 C 0.38614 0.20032 0.81811 0.0
C1488 C 0.40802 0.20213 0.85817 0.0
C1489 C 0.4178 0.21777 0.82362 0.0
C1490 C 0.4506 0.22907 0.88437 0.0
C1491 C 0.40823 0.20016 0.91438 0.0
N1492 N 0.42769 0.21846 0.84319 0.0
N1493 N 0.39966 0.19298 0.89473 0.0
H1494 H 0.80043 0.19731 0.9298 0.0
H1495 H 0.78552 0.22157 0.81155 0.0
H1496 H 0.75901 0.24984 0.90264 0.0
H1497 H 0.81325 0.15726 0.83869 0.0
H1498 H 0.77026 0.22776 0.84443 0.0
H1499 H 0.7997 0.17748 0.89667 0.0
C1500 C 0.79023 0.20375 0.91684 0.0
C1501 C 0.77936 0.22473 0.91874 0.0
C1502 C 0.77935 0.21201 0.84317 0.0
C1503 C 0.77952 0.20344 0.88081 0.0
C1504 C 0.78795 0.20832 0.82432 0.0
C1505 C 0.80111 0.18913 0.8223 0.0
C1506 C 0.78414 0.19661 0.86021 0.0
C1507 C 0.80395 0.17289 0.83955 0.0
C1508 C 0.79005 0.19275 0.89794 0.0
C1509 C 0.76714 0.23329 0.9016 0.0
N1510 N 0.79589 0.17727 0.85777 0.0
N1511 N 0.76793 0.22295 0.88326 0.0
H1512 H 0.20529 0.12964 0.45465 0.0
H1513 H 0.35692 0.22046 0.52607 0.0
H1514 H 0.29853 0.16818 0.43469 0.0
H1515 H 0.26467 0.16421 0.54805 0.0
H1516 H 0.33522 0.21068 0.49159 0.0
H1517 H 0.226 0.15179 0.48788 0.0
C1518 C 0.23016 0.14333 0.4573 0.0
C1519 C 0.2504 0.14702 0.44226 0.0
C1520 C 0.31971 0.20074 0.50397 0.0
C1521 C 0.2743 0.17208 0.47993 0.0
C1522 C 0.33208 0.2062 0.52367 0.0
C1523 C 0.31268 0.19273 0.54005 0.0
C1524 C 0.28766 0.18176 0.50053 0.0
C1525 C 0.28056 0.17515 0.53596 0.0
C1526 C 0.24198 0.15578 0.47618 0.0
C1527 C 0.2824 0.16477 0.44614 0.0
N1528 N 0.2691 0.16993 0.51662 0.0
N1529 N 0.29345 0.17646 0.46469 0.0
H1530 H 0.94027 0.14384 0.47309 0.0
H1531 H 0.84686 0.19956 0.53846 0.0
H1532 H 0.886 0.18442 0.44749 0.0
H1533 H 0.89371 0.1504 0.56334 0.0
H1534 H 0.86902 0.20312 0.50592 0.0
H1535 H 0.93268 0.156 0.50687 0.0
C1536 C 0.92794 0.15661 0.47463 0.0
C1537 C 0.91419 0.16369 0.45762 0.0
C1538 C 0.8747 0.1918 0.51854 0.0
C1539 C 0.90406 0.17644 0.49608 0.0
C1540 C 0.86215 0.18988 0.5372 0.0
C1541 C 0.86814 0.17439 0.55373 0.0
C1542 C 0.89349 0.1782 0.51627 0.0
C1543 C 0.88792 0.16204 0.55099 0.0
C1544 C 0.92311 0.16308 0.49388 0.0
C1545 C 0.89743 0.17921 0.4603 0.0
N1546 N 0.89968 0.16403 0.53264 0.0
N1547 N 0.89245 0.1847 0.47918 0.0
H1548 H 0.90634 0.76124 0.45783 0.0
H1549 H 0.81835 0.63137 0.53837 0.0
H1550 H 0.85364 0.66585 0.44252 0.0
H1551 H 0.89351 0.72094 0.55408 0.0
H1552 H 0.83485 0.64165 0.50354 0.0
H1553 H 0.90785 0.74586 0.49318 0.0
C1554 C 0.89653 0.73698 0.46189 0.0
C1555 C 0.88056 0.7147 0.44736 0.0
C1556 C 0.84811 0.65882 0.51469 0.0
C1557 C 0.88008 0.69676 0.48784 0.0
C1558 C 0.83854 0.65304 0.53452 0.0
C1559 C 0.85435 0.67549 0.54907 0.0
C1560 C 0.87332 0.68747 0.5093 0.0
C1561 C 0.88065 0.70298 0.54336 0.0
C1562 C 0.89687 0.72812 0.4821 0.0
C1563 C 0.86665 0.68353 0.45339 0.0
N1564 N 0.88898 0.70841 0.52386 0.0
N1565 N 0.8661 0.67542 0.47328 0.0
loop_
_geom_bond_atom_site_label_1
_geom_bond_atom_site_label_2
_geom_bond_distance
_geom_bond_site_symmetry_2
_ccdc_geom_bond_type
C0 N1 1.317 . S
C0 N2 1.348 . S
C0 C3 1.485 . S
N1 C0 1.317 . S
N1 N5 1.370 . S
N2 C0 1.348 . S
N2 C4 1.346 . S
C3 C0 1.485 . S
C3 H7 0.960 . S
C3 H8 0.961 . S
C3 H9 0.960 . S
C4 N2 1.346 . S
C4 N5 1.307 . S
C4 C6 1.486 . S
N5 N1 1.370 . S
N5 C4 1.307 . S
C6 C4 1.486 . S
C6 H10 0.960 . S
C6 H11 0.960 . S
C6 H12 0.959 . S
H7 C3 0.960 . S
H8 C3 0.961 . S
H9 C3 0.960 . S
H10 C6 0.960 . S
H11 C6 0.960 . S
H12 C6 0.959 . S
C13 N14 1.317 . S
C13 N15 1.348 . S
C13 C16 1.485 . S
N14 C13 1.317 . S
N14 N18 1.370 . S
N15 C13 1.348 . S
N15 C17 1.346 . S
C16 C13 1.485 . S
C16 H20 0.960 . S
C16 H21 0.961 . S
C16 H22 0.960 . S
C17 N15 1.346 . S
C17 N18 1.307 . S
C17 C19 1.486 . S
N18 N14 1.370 . S
N18 C17 1.307 . S
C19 C17 1.486 . S
C19 H23 0.960 . S
C19 H24 0.960 . S
C19 H25 0.959 . S
H20 C16 0.960 . S
H21 C16 0.961 . S
H22 C16 0.960 . S
H23 C19 0.960 . S
H24 C19 0.960 . S
H25 C19 0.959 . S
C26 N27 1.317 . S
C26 N28 1.348 . S
C26 C29 1.485 . S
N27 C26 1.317 . S
N27 N31 1.370 . S
N28 C26 1.348 . S
N28 C30 1.346 . S
C29 C26 1.485 . S
C29 H33 0.960 . S
C29 H34 0.961 . S
C29 H35 0.960 . S
C30 N28 1.346 . S
C30 N31 1.307 . S
C30 C32 1.486 . S
N31 N27 1.370 . S
N31 C30 1.307 . S
C32 C30 1.486 . S
C32 H36 0.960 . S
C32 H37 0.960 . S
C32 H38 0.959 . S
H33 C29 0.960 . S
H34 C29 0.961 . S
H35 C29 0.960 . S
H36 C32 0.960 . S
H37 C32 0.960 . S
H38 C32 0.959 . S
C39 N40 1.317 . S
C39 N41 1.348 . S
C39 C42 1.485 . S
N40 C39 1.317 . S
N40 N44 1.370 . S
N41 C39 1.348 . S
N41 C43 1.346 . S
C42 C39 1.485 . S
C42 H46 0.960 . S
C42 H47 0.961 . S
C42 H48 0.960 . S
C43 N41 1.346 . S
C43 N44 1.307 . S
C43 C45 1.486 . S
N44 N40 1.370 . S
N44 C43 1.307 . S
C45 C43 1.486 . S
C45 H49 0.960 . S
C45 H50 0.960 . S
C45 H51 0.959 . S
H46 C42 0.960 . S
H47 C42 0.961 . S
H48 C42 0.960 . S
H49 C45 0.960 . S
H50 C45 0.960 . S
H51 C45 0.959 . S
C52 N53 1.317 . S
C52 N54 1.348 . S
C52 C55 1.485 . S
N53 C52 1.317 . S
N53 N57 1.370 . S
N54 C52 1.348 . S
N54 C56 1.346 . S
C55 C52 1.485 . S
C55 H59 0.960 . S
C55 H60 0.961 . S
C55 H61 0.960 . S
C56 N54 1.346 . S
C56 N57 1.307 . S
C56 C58 1.486 . S
N57 N53 1.370 . S
N57 C56 1.307 . S
C58 C56 1.486 . S
C58 H62 0.960 . S
C58 H63 0.960 . S
C58 H64 0.959 . S
H59 C55 0.960 . S
H60 C55 0.961 . S
H61 C55 0.960 . S
H62 C58 0.960 . S
H63 C58 0.960 . S
H64 C58 0.959 . S
C65 N66 1.317 . S
C65 N67 1.348 . S
C65 C68 1.485 . S
N66 C65 1.317 . S
N66 N70 1.370 . S
N67 C65 1.348 . S
N67 C69 1.346 . S
C68 C65 1.485 . S
C68 H72 0.960 . S
C68 H73 0.961 . S
C68 H74 0.960 . S
C69 N67 1.346 . S
C69 N70 1.307 . S
C69 C71 1.486 . S
N70 N66 1.370 . S
N70 C69 1.307 . S
C71 C69 1.486 . S
C71 H75 0.960 . S
C71 H76 0.960 . S
C71 H77 0.959 . S
H72 C68 0.960 . S
H73 C68 0.961 . S
H74 C68 0.960 . S
H75 C71 0.960 . S
H76 C71 0.960 . S
H77 C71 0.959 . S
C78 N79 1.317 . S
C78 N80 1.348 . S
C78 C81 1.485 . S
N79 C78 1.317 . S
N79 N83 1.370 . S
N80 C78 1.348 . S
N80 C82 1.346 . S
C81 C78 1.485 . S
C81 H85 0.960 . S
C81 H86 0.961 . S
C81 H87 0.960 . S
C82 N80 1.346 . S
C82 N83 1.307 . S
C82 C84 1.486 . S
N83 N79 1.370 . S
N83 C82 1.307 . S
C84 C82 1.486 . S
C84 H88 0.960 . S
C84 H89 0.960 . S
C84 H90 0.959 . S
H85 C81 0.960 . S
H86 C81 0.961 . S
H87 C81 0.960 . S
H88 C84 0.960 . S
H89 C84 0.960 . S
H90 C84 0.959 . S
C91 N92 1.317 . S
C91 N93 1.348 . S
C91 C94 1.485 . S
N92 C91 1.317 . S
N92 N96 1.370 . S
N93 C91 1.348 . S
N93 C95 1.346 . S
C94 C91 1.485 . S
C94 H98 0.960 . S
C94 H99 0.961 . S
C94 H100 0.960 . S
C95 N93 1.346 . S
C95 N96 1.307 . S
C95 C97 1.486 . S
N96 N92 1.370 . S
N96 C95 1.307 . S
C97 C95 1.486 . S
C97 H101 0.960 . S
C97 H102 0.960 . S
C97 H103 0.959 . S
H98 C94 0.960 . S
H99 C94 0.961 . S
H100 C94 0.960 . S
H101 C97 0.960 . S
H102 C97 0.960 . S
H103 C97 0.959 . S
C104 N105 1.317 . S
C104 N106 1.348 . S
C104 C107 1.485 . S
N105 C104 1.317 . S
N105 N109 1.370 . S
N106 C104 1.348 . S
N106 C108 1.346 . S
C107 C104 1.485 . S
C107 H111 0.960 . S
C107 H112 0.961 . S
C107 H113 0.960 . S
C108 N106 1.346 . S
C108 N109 1.307 . S
C108 C110 1.486 . S
N109 N105 1.370 . S
N109 C108 1.307 . S
C110 C108 1.486 . S
C110 H114 0.960 . S
C110 H115 0.960 . S
C110 H116 0.959 . S
H111 C107 0.960 . S
H112 C107 0.961 . S
H113 C107 0.960 . S
H114 C110 0.960 . S
H115 C110 0.960 . S
H116 C110 0.959 . S
C117 N118 1.317 . S
C117 N119 1.348 . S
C117 C120 1.485 . S
N118 C117 1.317 . S
N118 N122 1.370 . S
N119 C117 1.348 . S
N119 C121 1.346 . S
C120 C117 1.485 . S
C120 H124 0.960 . S
C120 H125 0.961 . S
C120 H126 0.960 . S
C121 N119 1.346 . S
C121 N122 1.307 . S
C121 C123 1.486 . S
N122 N118 1.370 . S
N122 C121 1.307 . S
C123 C121 1.486 . S
C123 H127 0.960 . S
C123 H128 0.960 . S
C123 H129 0.959 . S
H124 C120 0.960 . S
H125 C120 0.961 . S
H126 C120 0.960 . S
H127 C123 0.960 . S
H128 C123 0.960 . S
H129 C123 0.959 . S
C130 N131 1.317 . S
C130 N132 1.348 . S
C130 C133 1.485 1_556 S
N131 C130 1.317 . S
N131 N135 1.370 . S
N132 C130 1.348 . S
N132 C134 1.346 . S
C133 C130 1.485 1_554 S
C133 H137 0.960 . S
C133 H138 0.961 . S
C133 H139 0.960 . S
C134 N132 1.346 . S
C134 N135 1.307 . S
C134 C136 1.486 . S
N135 N131 1.370 . S
N135 C134 1.307 . S
C136 C134 1.486 . S
C136 H140 0.960 . S
C136 H141 0.960 . S
C136 H142 0.959 . S
H137 C133 0.960 . S
H138 C133 0.961 . S
H139 C133 0.960 . S
H140 C136 0.960 . S
H141 C136 0.960 . S
H142 C136 0.959 . S
C143 N144 1.317 . S
C143 N145 1.348 . S
C143 C146 1.485 1_556 S
N144 C143 1.317 . S
N144 N148 1.370 . S
N145 C143 1.348 . S
N145 C147 1.346 . S
C146 C143 1.485 1_554 S
C146 H150 0.960 . S
C146 H151 0.961 . S
C146 H152 0.960 . S
C147 N145 1.346 . S
C147 N148 1.307 . S
C147 C149 1.486 . S
N148 N144 1.370 . S
N148 C147 1.307 . S
C149 C147 1.486 . S
C149 H153 0.960 . S
C149 H154 0.960 . S
C149 H155 0.959 . S
H150 C146 0.960 . S
H151 C146 0.961 . S
H152 C146 0.960 . S
H153 C149 0.960 . S
H154 C149 0.960 . S
H155 C149 0.959 . S
C156 N157 1.317 . S
C156 N158 1.348 . S
C156 C159 1.485 . S
N157 C156 1.317 . S
N157 N161 1.370 . S
N158 C156 1.348 . S
N158 C160 1.346 . S
C159 C156 1.485 . S
C159 H163 0.960 . S
C159 H164 0.928 1_554 S
C159 H165 0.960 . S
C160 N158 1.346 . S
C160 N161 1.307 . S
C160 C162 1.486 . S
N161 N157 1.370 . S
N161 C160 1.307 . S
C162 C160 1.486 . S
C162 H166 0.960 . S
C162 H167 0.960 . S
C162 H168 0.959 . S
H163 C159 0.960 . S
H164 C159 0.928 1_556 S
H165 C159 0.960 . S
H166 C162 0.960 . S
H167 C162 0.960 . S
H168 C162 0.959 . S
C169 N170 1.317 . S
C169 N171 1.348 . S
C169 C172 1.485 . S
N170 C169 1.317 . S
N170 N174 1.370 . S
N171 C169 1.348 . S
N171 C173 1.346 . S
C172 C169 1.485 . S
C172 H176 0.960 . S
C172 H177 0.961 . S
C172 H178 0.960 . S
C173 N171 1.346 . S
C173 N174 1.307 . S
C173 C175 1.486 . S
N174 N170 1.370 . S
N174 C173 1.307 . S
C175 C173 1.486 . S
C175 H179 0.960 . S
C175 H180 0.960 . S
C175 H181 0.959 . S
H176 C172 0.960 . S
H177 C172 0.961 . S
H178 C172 0.960 . S
H179 C175 0.960 . S
H180 C175 0.960 . S
H181 C175 0.959 . S
C182 N183 1.317 . S
C182 N184 1.348 . S
C182 C185 1.485 . S
N183 C182 1.317 . S
N183 N187 1.370 . S
N184 C182 1.348 . S
N184 C186 1.346 . S
C185 C182 1.485 . S
C185 H189 0.960 . S
C185 H190 0.961 . S
C185 H191 0.960 . S
C186 N184 1.346 . S
C186 N187 1.307 . S
C186 C188 1.486 . S
N187 N183 1.370 . S
N187 C186 1.307 . S
C188 C186 1.486 . S
C188 H192 0.960 . S
C188 H193 0.960 . S
C188 H194 0.959 . S
H189 C185 0.960 . S
H190 C185 0.961 . S
H191 C185 0.960 . S
H192 C188 0.960 . S
H193 C188 0.960 . S
H194 C188 0.959 . S
C195 N196 1.317 . S
C195 N197 1.348 . S
C195 C198 1.485 . S
N196 C195 1.317 . S
N196 N200 1.370 . S
N197 C195 1.348 . S
N197 C199 1.346 . S
C198 C195 1.485 . S
C198 H202 0.960 . S
C198 H203 0.961 . S
C198 H204 0.960 . S
C199 N197 1.346 . S
C199 N200 1.307 . S
C199 C201 1.486 . S
N200 N196 1.370 . S
N200 C199 1.307 . S
C201 C199 1.486 . S
C201 H205 0.960 . S
C201 H206 0.960 . S
C201 H207 0.959 . S
H202 C198 0.960 . S
H203 C198 0.961 . S
H204 C198 0.960 . S
H205 C201 0.960 . S
H206 C201 0.960 . S
H207 C201 0.959 . S
C208 N209 1.317 . S
C208 N210 1.348 . S
C208 C211 1.485 . S
N209 C208 1.317 . S
N209 N213 1.370 . S
N210 C208 1.348 . S
N210 C212 1.346 . S
C211 C208 1.485 . S
C211 H215 0.960 . S
C211 H216 0.961 . S
C211 H217 0.960 . S
C212 N210 1.346 . S
C212 N213 1.307 . S
C212 C214 1.486 . S
N213 N209 1.370 . S
N213 C212 1.307 . S
C214 C212 1.486 . S
C214 H218 0.960 . S
C214 H219 0.960 . S
C214 H220 0.959 . S
H215 C211 0.960 . S
H216 C211 0.961 . S
H217 C211 0.960 . S
H218 C214 0.960 . S
H219 C214 0.960 . S
H220 C214 0.959 . S
C221 N222 1.317 . S
C221 N223 1.348 . S
C221 C224 1.485 . S
N222 C221 1.317 . S
N222 N226 1.370 . S
N223 C221 1.348 . S
N223 C225 1.346 . S
C224 C221 1.485 . S
C224 H228 0.960 . S
C224 H229 0.961 . S
C224 H230 0.960 . S
C225 N223 1.346 . S
C225 N226 1.307 . S
C225 C227 1.486 . S
N226 N222 1.370 . S
N226 C225 1.307 . S
C227 C225 1.486 . S
C227 H231 0.960 . S
C227 H232 0.960 . S
C227 H233 0.959 . S
H228 C224 0.960 . S
H229 C224 0.961 . S
H230 C224 0.960 . S
H231 C227 0.960 . S
H232 C227 0.960 . S
H233 C227 0.959 . S
C234 Eu235 2.835 1_565 S
C234 C236 1.500 . S
C234 O254 1.257 . S
C234 O255 1.260 1_565 S
Eu235 C234 2.835 1_545 S
Eu235 O254 2.473 1_545 S
Eu235 O255 2.480 . S
Eu235 O256 2.430 . S
Eu235 O257 2.670 . S
Eu235 O258 2.394 1_545 S
Eu235 O263 2.355 1_545 S
Eu235 O265 2.374 . S
C236 C234 1.500 . S
C236 C237 1.377 . S
C236 C241 1.377 . S
C237 C236 1.377 . S
C237 C238 1.395 . S
C237 H266 0.931 1_565 S
C238 C237 1.395 . S
C238 C239 1.383 . S
C238 H267 0.931 . S
C239 C238 1.383 . S
C239 C240 1.394 . S
C240 C239 1.394 . S
C240 C241 1.378 . S
C240 H268 0.931 . S
C241 C236 1.377 . S
C241 C240 1.378 . S
C241 H269 0.931 . S
C242 O256 1.259 . S
C242 O257 1.270 . S
C243 O258 1.251 . S
C243 O259 1.251 . S
C244 Eu245 2.835 1_545 S
C244 C246 1.500 . S
C244 O260 1.257 . S
C244 O261 1.260 1_545 S
Eu245 C244 2.835 1_565 S
Eu245 O257 2.355 1_566 S
Eu245 O259 2.374 1_556 S
Eu245 O260 2.473 1_565 S
Eu245 O261 2.480 . S
Eu245 O262 2.430 . S
Eu245 O263 2.670 1_556 S
Eu245 O264 2.394 1_565 S
C246 C244 1.500 . S
C246 C247 1.377 . S
C246 C251 1.377 . S
C247 C246 1.377 . S
C247 C248 1.395 . S
C247 H270 0.931 1_545 S
C248 C247 1.395 . S
C248 C249 1.383 . S
C248 H271 0.931 . S
C249 C248 1.383 . S
C249 C250 1.394 . S
C250 C249 1.394 . S
C250 C251 1.378 . S
C250 H272 0.931 . S
C251 C246 1.377 . S
C251 C250 1.378 . S
C251 H273 0.931 . S
C252 O262 1.259 1_554 S
C252 O263 1.270 . S
C253 O264 1.251 1_554 S
C253 O265 1.251 . S
O254 C234 1.257 . S
O254 Eu235 2.473 1_565 S
O255 C234 1.260 1_545 S
O255 Eu235 2.480 . S
O256 Eu235 2.430 . S
O256 C242 1.259 . S
O257 Eu235 2.670 . S
O257 C242 1.270 . S
O257 Eu245 2.355 1_544 S
O258 Eu235 2.394 1_565 S
O258 C243 1.251 . S
O259 C243 1.251 . S
O259 Eu245 2.374 1_554 S
O260 C244 1.257 . S
O260 Eu245 2.473 1_545 S
O261 C244 1.260 1_565 S
O261 Eu245 2.480 . S
O262 Eu245 2.430 . S
O262 C252 1.259 1_556 S
O263 Eu235 2.355 1_565 S
O263 Eu245 2.670 1_554 S
O263 C252 1.270 . S
O264 Eu245 2.394 1_545 S
O264 C253 1.251 1_556 S
O265 Eu235 2.374 . S
O265 C253 1.251 . S
H266 C237 0.931 1_545 S
H267 C238 0.931 . S
H268 C240 0.931 . S
H269 C241 0.931 . S
H270 C247 0.931 1_565 S
H271 C248 0.931 . S
H272 C250 0.931 . S
H273 C251 0.931 . S
C274 Eu275 2.835 1_455 S
C274 C276 1.500 . S
C274 O294 1.257 . S
C274 O295 1.260 1_455 S
Eu275 C274 2.835 1_655 S
Eu275 O294 2.473 1_655 S
Eu275 O295 2.480 . S
Eu275 O296 2.430 . S
Eu275 O297 2.670 1_554 S
Eu275 O298 2.394 1_655 S
Eu275 O303 2.355 1_655 S
Eu275 O305 2.374 . S
C276 C274 1.500 . S
C276 C277 1.377 . S
C276 C281 1.377 . S
C277 C276 1.377 . S
C277 C278 1.395 . S
C277 H306 0.931 1_455 S
C278 C277 1.395 . S
C278 C279 1.383 . S
C278 H307 0.931 . S
C279 C278 1.383 . S
C279 C280 1.394 . S
C280 C279 1.394 . S
C280 C281 1.378 . S
C280 H308 0.931 . S
C281 C276 1.377 . S
C281 C280 1.378 . S
C281 H309 0.931 . S
C282 O296 1.259 . S
C282 O297 1.270 1_554 S
C283 O298 1.251 . S
C283 O299 1.251 . S
C284 Eu285 2.835 . S
C284 C286 1.500 1_455 S
C284 O300 1.257 1_455 S
C284 O301 1.260 . S
Eu285 C284 2.835 . S
Eu285 O297 2.355 1_455 S
Eu285 O299 2.374 1_556 S
Eu285 O300 2.473 1_455 S
Eu285 O301 2.480 . S
Eu285 O302 2.430 . S
Eu285 O303 2.670 1_556 S
Eu285 O304 2.394 1_455 S
C286 C284 1.500 1_655 S
C286 C287 1.377 1_655 S
C286 C291 1.377 . S
C287 C286 1.377 1_455 S
C287 C288 1.395 . S
C287 H310 0.931 . S
C288 C287 1.395 . S
C288 C289 1.383 1_455 S
C288 H311 0.931 . S
C289 C288 1.383 1_655 S
C289 C290 1.394 . S
C290 C289 1.394 . S
C290 C291 1.378 . S
C290 H312 0.931 . S
C291 C286 1.377 . S
C291 C290 1.378 . S
C291 H313 0.931 . S
C292 O302 1.259 1_554 S
C292 O303 1.270 . S
C293 O304 1.251 . S
C293 O305 1.251 1_556 S
O294 C274 1.257 . S
O294 Eu275 2.473 1_455 S
O295 C274 1.260 1_655 S
O295 Eu275 2.480 . S
O296 Eu275 2.430 . S
O296 C282 1.259 . S
O297 Eu275 2.670 1_556 S
O297 C282 1.270 1_556 S
O297 Eu285 2.355 1_655 S
O298 Eu275 2.394 1_455 S
O298 C283 1.251 . S
O299 C283 1.251 . S
O299 Eu285 2.374 1_554 S
O300 C284 1.257 1_655 S
O300 Eu285 2.473 1_655 S
O301 C284 1.260 . S
O301 Eu285 2.480 . S
O302 Eu285 2.430 . S
O302 C292 1.259 1_556 S
O303 Eu275 2.355 1_455 S
O303 Eu285 2.670 1_554 S
O303 C292 1.270 . S
O304 Eu285 2.394 1_655 S
O304 C293 1.251 . S
O305 Eu275 2.374 . S
O305 C293 1.251 1_554 S
H306 C277 0.931 1_655 S
H307 C278 0.931 . S
H308 C280 0.931 . S
H309 C281 0.931 . S
H310 C287 0.931 . S
H311 C288 0.931 . S
H312 C290 0.931 . S
H313 C291 0.931 . S
C314 Eu315 2.835 . S
C314 C316 1.500 . S
C314 O334 1.257 . S
C314 O335 1.260 . S
Eu315 C314 2.835 . S
Eu315 O334 2.473 . S
Eu315 O335 2.480 . S
Eu315 O336 2.430 . S
Eu315 O337 2.670 1_556 S
Eu315 O338 2.394 . S
Eu315 O343 2.355 1_556 S
Eu315 O345 2.374 1_556 S
C316 C314 1.500 . S
C316 C317 1.377 . S
C316 C321 1.377 . S
C317 C316 1.377 . S
C317 C318 1.395 . S
C317 H346 0.931 . S
C318 C317 1.395 . S
C318 C319 1.383 . S
C318 H347 0.931 . S
C319 C318 1.383 . S
C319 C320 1.394 . S
C320 C319 1.394 . S
C320 C321 1.378 . S
C320 H348 0.931 . S
C321 C316 1.377 . S
C321 C320 1.378 . S
C321 H349 0.931 . S
C322 O336 1.259 1_554 S
C322 O337 1.270 . S
C323 O338 1.251 1_554 S
C323 O339 1.251 . S
C324 Eu325 2.835 . S
C324 C326 1.500 . S
C324 O340 1.257 . S
C324 O341 1.260 . S
Eu325 C324 2.835 . S
Eu325 O337 2.355 . S
Eu325 O339 2.374 . S
Eu325 O340 2.473 . S
Eu325 O341 2.480 . S
Eu325 O342 2.430 . S
Eu325 O343 2.670 . S
Eu325 O344 2.394 . S
C326 C324 1.500 . S
C326 C327 1.377 . S
C326 C331 1.377 . S
C327 C326 1.377 . S
C327 C328 1.395 . S
C327 H350 0.931 . S
C328 C327 1.395 . S
C328 C329 1.383 . S
C328 H351 0.931 . S
C329 C328 1.383 . S
C329 C330 1.394 . S
C330 C329 1.394 . S
C330 C331 1.378 . S
C330 H352 0.931 . S
C331 C326 1.377 . S
C331 C330 1.378 . S
C331 H353 0.931 . S
C332 O342 1.259 . S
C332 O343 1.270 . S
C333 O344 1.251 . S
C333 O345 1.251 . S
O334 C314 1.257 . S
O334 Eu315 2.473 . S
O335 C314 1.260 . S
O335 Eu315 2.480 . S
O336 Eu315 2.430 . S
O336 C322 1.259 1_556 S
O337 Eu315 2.670 1_554 S
O337 C322 1.270 . S
O337 Eu325 2.355 . S
O338 Eu315 2.394 . S
O338 C323 1.251 1_556 S
O339 C323 1.251 . S
O339 Eu325 2.374 . S
O340 C324 1.257 . S
O340 Eu325 2.473 . S
O341 C324 1.260 . S
O341 Eu325 2.480 . S
O342 Eu325 2.430 . S
O342 C332 1.259 . S
O343 Eu315 2.355 1_554 S
O343 Eu325 2.670 . S
O343 C332 1.270 . S
O344 Eu325 2.394 . S
O344 C333 1.251 . S
O345 Eu315 2.374 1_554 S
O345 C333 1.251 . S
H346 C317 0.931 . S
H347 C318 0.931 . S
H348 C320 0.931 . S
H349 C321 0.931 . S
H350 C327 0.931 . S
H351 C328 0.931 . S
H352 C330 0.931 . S
H353 C331 0.931 . S
C354 Eu355 2.835 . S
C354 C356 1.500 . S
C354 O374 1.257 . S
C354 O375 1.260 . S
Eu355 C354 2.835 . S
Eu355 O374 2.473 . S
Eu355 O375 2.480 . S
Eu355 O376 2.430 . S
Eu355 O377 2.670 . S
Eu355 O378 2.394 . S
Eu355 O383 2.355 . S
Eu355 O385 2.374 . S
C356 C354 1.500 . S
C356 C357 1.377 . S
C356 C361 1.377 . S
C357 C356 1.377 . S
C357 C358 1.395 . S
C357 H386 0.931 . S
C358 C357 1.395 . S
C358 C359 1.383 . S
C358 H387 0.931 . S
C359 C358 1.383 . S
C359 C360 1.394 . S
C360 C359 1.394 . S
C360 C361 1.378 . S
C360 H388 0.931 . S
C361 C356 1.377 . S
C361 C360 1.378 . S
C361 H389 0.931 . S
C362 O376 1.259 . S
C362 O377 1.270 . S
C363 O378 1.251 . S
C363 O379 1.251 . S
C364 Eu365 2.835 . S
C364 C366 1.500 . S
C364 O380 1.257 . S
C364 O381 1.260 . S
Eu365 C364 2.835 . S
Eu365 O377 2.355 . S
Eu365 O379 2.374 . S
Eu365 O380 2.473 . S
Eu365 O381 2.480 . S
Eu365 O382 2.430 . S
Eu365 O383 2.670 . S
Eu365 O384 2.394 . S
C366 C364 1.500 . S
C366 C367 1.377 . S
C366 C371 1.377 . S
C367 C366 1.377 . S
C367 C368 1.395 . S
C367 H390 0.931 . S
C368 C367 1.395 . S
C368 C369 1.383 . S
C368 H391 0.931 . S
C369 C368 1.383 . S
C369 C370 1.394 . S
C370 C369 1.394 . S
C370 C371 1.378 . S
C370 H392 0.931 . S
C371 C366 1.377 . S
C371 C370 1.378 . S
C371 H393 0.931 . S
C372 O382 1.259 . S
C372 O383 1.270 . S
C373 O384 1.251 . S
C373 O385 1.251 . S
O374 C354 1.257 . S
O374 Eu355 2.473 . S
O375 C354 1.260 . S
O375 Eu355 2.480 . S
O376 Eu355 2.430 . S
O376 C362 1.259 . S
O377 Eu355 2.670 . S
O377 C362 1.270 . S
O377 Eu365 2.355 . S
O378 Eu355 2.394 . S
O378 C363 1.251 . S
O379 C363 1.251 . S
O379 Eu365 2.374 . S
O380 C364 1.257 . S
O380 Eu365 2.473 . S
O381 C364 1.260 . S
O381 Eu365 2.480 . S
O382 Eu365 2.430 . S
O382 C372 1.259 . S
O383 Eu355 2.355 . S
O383 Eu365 2.670 . S
O383 C372 1.270 . S
O384 Eu365 2.394 . S
O384 C373 1.251 . S
O385 Eu355 2.374 . S
O385 C373 1.251 . S
H386 C357 0.931 . S
H387 C358 0.931 . S
H388 C360 0.931 . S
H389 C361 0.931 . S
H390 C367 0.931 . S
H391 C368 0.931 . S
H392 C370 0.931 . S
H393 C371 0.931 . S
C394 Eu395 2.835 . S
C394 C396 1.500 . S
C394 O414 1.257 . S
C394 O415 1.260 . S
Eu395 C394 2.835 . S
Eu395 O414 2.473 . S
Eu395 O415 2.480 . S
Eu395 O416 2.430 . S
Eu395 O417 2.670 . S
Eu395 O418 2.394 . S
Eu395 O423 2.355 . S
Eu395 O425 2.374 . S
C396 C394 1.500 . S
C396 C397 1.377 . S
C396 C401 1.377 . S
C397 C396 1.377 . S
C397 C398 1.395 . S
C397 H426 0.931 . S
C398 C397 1.395 . S
C398 C399 1.383 . S
C398 H427 0.931 . S
C399 C398 1.383 . S
C399 C400 1.394 . S
C400 C399 1.394 . S
C400 C401 1.378 . S
C400 H428 0.931 . S
C401 C396 1.377 . S
C401 C400 1.378 . S
C401 H429 0.931 . S
C402 O416 1.259 . S
C402 O417 1.270 . S
C403 O418 1.251 . S
C403 O419 1.251 . S
C404 Eu405 2.835 . S
C404 C406 1.500 . S
C404 O420 1.257 . S
C404 O421 1.260 . S
Eu405 C404 2.835 . S
Eu405 O417 2.355 . S
Eu405 O419 2.374 . S
Eu405 O420 2.473 . S
Eu405 O421 2.480 . S
Eu405 O422 2.430 . S
Eu405 O423 2.670 . S
Eu405 O424 2.394 . S
C406 C404 1.500 . S
C406 C407 1.377 . S
C406 C411 1.377 . S
C407 C406 1.377 . S
C407 C408 1.395 . S
C407 H430 0.931 . S
C408 C407 1.395 . S
C408 C409 1.383 . S
C408 H431 0.931 . S
C409 C408 1.383 . S
C409 C410 1.394 . S
C410 C409 1.394 . S
C410 C411 1.378 . S
C410 H432 0.931 . S
C411 C406 1.377 . S
C411 C410 1.378 . S
C411 H433 0.931 . S
C412 O422 1.259 . S
C412 O423 1.270 . S
C413 O424 1.251 . S
C413 O425 1.251 . S
O414 C394 1.257 . S
O414 Eu395 2.473 . S
O415 C394 1.260 . S
O415 Eu395 2.480 . S
O416 Eu395 2.430 . S
O416 C402 1.259 . S
O417 Eu395 2.670 . S
O417 C402 1.270 . S
O417 Eu405 2.355 . S
O418 Eu395 2.394 . S
O418 C403 1.251 . S
O419 C403 1.251 . S
O419 Eu405 2.374 . S
O420 C404 1.257 . S
O420 Eu405 2.473 . S
O421 C404 1.260 . S
O421 Eu405 2.480 . S
O422 Eu405 2.430 . S
O422 C412 1.259 . S
O423 Eu395 2.355 . S
O423 Eu405 2.670 . S
O423 C412 1.270 . S
O424 Eu405 2.394 . S
O424 C413 1.251 . S
O425 Eu395 2.374 . S
O425 C413 1.251 . S
H426 C397 0.931 . S
H427 C398 0.931 . S
H428 C400 0.931 . S
H429 C401 0.931 . S
H430 C407 0.931 . S
H431 C408 0.931 . S
H432 C410 0.931 . S
H433 C411 0.931 . S
C434 Eu435 2.835 . S
C434 C436 1.500 . S
C434 O454 1.257 . S
C434 O455 1.260 . S
Eu435 C434 2.835 . S
Eu435 O454 2.473 . S
Eu435 O455 2.480 . S
Eu435 O456 2.430 . S
Eu435 O457 2.670 . S
Eu435 O458 2.394 . S
Eu435 O463 2.355 . S
Eu435 O465 2.374 . S
C436 C434 1.500 . S
C436 C437 1.377 . S
C436 C441 1.377 . S
C437 C436 1.377 . S
C437 C438 1.395 . S
C437 H466 0.931 . S
C438 C437 1.395 . S
C438 C439 1.383 . S
C438 H467 0.931 . S
C439 C438 1.383 . S
C439 C440 1.394 . S
C440 C439 1.394 . S
C440 C441 1.378 . S
C440 H468 0.931 . S
C441 C436 1.377 . S
C441 C440 1.378 . S
C441 H469 0.931 . S
C442 O456 1.259 . S
C442 O457 1.270 . S
C443 O458 1.251 . S
C443 O459 1.251 . S
C444 Eu445 2.835 . S
C444 C446 1.500 . S
C444 O460 1.257 . S
C444 O461 1.260 . S
Eu445 C444 2.835 . S
Eu445 O457 2.355 . S
Eu445 O459 2.374 . S
Eu445 O460 2.473 . S
Eu445 O461 2.480 . S
Eu445 O462 2.430 . S
Eu445 O463 2.670 . S
Eu445 O464 2.394 . S
C446 C444 1.500 . S
C446 C447 1.377 . S
C446 C451 1.377 . S
C447 C446 1.377 . S
C447 C448 1.395 . S
C447 H470 0.931 . S
C448 C447 1.395 . S
C448 C449 1.383 . S
C448 H471 0.931 . S
C449 C448 1.383 . S
C449 C450 1.394 . S
C450 C449 1.394 . S
C450 C451 1.378 . S
C450 H472 0.931 . S
C451 C446 1.377 . S
C451 C450 1.378 . S
C451 H473 0.931 . S
C452 O462 1.259 . S
C452 O463 1.270 . S
C453 O464 1.251 . S
C453 O465 1.251 . S
O454 C434 1.257 . S
O454 Eu435 2.473 . S
O455 C434 1.260 . S
O455 Eu435 2.480 . S
O456 Eu435 2.430 . S
O456 C442 1.259 . S
O457 Eu435 2.670 . S
O457 C442 1.270 . S
O457 Eu445 2.355 . S
O458 Eu435 2.394 . S
O458 C443 1.251 . S
O459 C443 1.251 . S
O459 Eu445 2.374 . S
O460 C444 1.257 . S
O460 Eu445 2.473 . S
O461 C444 1.260 . S
O461 Eu445 2.480 . S
O462 Eu445 2.430 . S
O462 C452 1.259 . S
O463 Eu435 2.355 . S
O463 Eu445 2.670 . S
O463 C452 1.270 . S
O464 Eu445 2.394 . S
O464 C453 1.251 . S
O465 Eu435 2.374 . S
O465 C453 1.251 . S
H466 C437 0.931 . S
H467 C438 0.931 . S
H468 C440 0.931 . S
H469 C441 0.931 . S
H470 C447 0.931 . S
H471 C448 0.931 . S
H472 C450 0.931 . S
H473 C451 0.931 . S
C474 Eu475 2.835 . S
C474 C476 1.500 . S
C474 O494 1.257 . S
C474 O495 1.260 . S
Eu475 C474 2.835 . S
Eu475 O494 2.473 . S
Eu475 O495 2.480 . S
Eu475 O496 2.430 . S
Eu475 O497 2.670 . S
Eu475 O498 2.394 . S
Eu475 O503 2.355 . S
Eu475 O505 2.374 . S
C476 C474 1.500 . S
C476 C477 1.377 . S
C476 C481 1.377 . S
C477 C476 1.377 . S
C477 C478 1.395 . S
C477 H506 0.931 . S
C478 C477 1.395 . S
C478 C479 1.383 . S
C478 H507 0.931 . S
C479 C478 1.383 . S
C479 C480 1.394 . S
C480 C479 1.394 . S
C480 C481 1.378 . S
C480 H508 0.931 . S
C481 C476 1.377 . S
C481 C480 1.378 . S
C481 H509 0.931 . S
C482 O496 1.259 . S
C482 O497 1.270 . S
C483 O498 1.251 . S
C483 O499 1.251 . S
C484 Eu485 2.835 . S
C484 C486 1.500 . S
C484 O500 1.257 . S
C484 O501 1.260 . S
Eu485 C484 2.835 . S
Eu485 O497 2.355 . S
Eu485 O499 2.374 . S
Eu485 O500 2.473 . S
Eu485 O501 2.480 . S
Eu485 O502 2.430 . S
Eu485 O503 2.670 . S
Eu485 O504 2.394 . S
C486 C484 1.500 . S
C486 C487 1.377 . S
C486 C491 1.377 . S
C487 C486 1.377 . S
C487 C488 1.395 . S
C487 H510 0.931 . S
C488 C487 1.395 . S
C488 C489 1.383 . S
C488 H511 0.931 . S
C489 C488 1.383 . S
C489 C490 1.394 . S
C490 C489 1.394 . S
C490 C491 1.378 . S
C490 H512 0.931 . S
C491 C486 1.377 . S
C491 C490 1.378 . S
C491 H513 0.931 . S
C492 O502 1.259 . S
C492 O503 1.270 . S
C493 O504 1.251 . S
C493 O505 1.251 . S
O494 C474 1.257 . S
O494 Eu475 2.473 . S
O495 C474 1.260 . S
O495 Eu475 2.480 . S
O496 Eu475 2.430 . S
O496 C482 1.259 . S
O497 Eu475 2.670 . S
O497 C482 1.270 . S
O497 Eu485 2.355 . S
O498 Eu475 2.394 . S
O498 C483 1.251 . S
O499 C483 1.251 . S
O499 Eu485 2.374 . S
O500 C484 1.257 . S
O500 Eu485 2.473 . S
O501 C484 1.260 . S
O501 Eu485 2.480 . S
O502 Eu485 2.430 . S
O502 C492 1.259 . S
O503 Eu475 2.355 . S
O503 Eu485 2.670 . S
O503 C492 1.270 . S
O504 Eu485 2.394 . S
O504 C493 1.251 . S
O505 Eu475 2.374 . S
O505 C493 1.251 . S
H506 C477 0.931 . S
H507 C478 0.931 . S
H508 C480 0.931 . S
H509 C481 0.931 . S
H510 C487 0.931 . S
H511 C488 0.931 . S
H512 C490 0.931 . S
H513 C491 0.931 . S
C514 Eu515 2.835 . S
C514 C516 1.500 . S
C514 O534 1.257 . S
C514 O535 1.260 . S
Eu515 C514 2.835 . S
Eu515 O534 2.473 . S
Eu515 O535 2.480 . S
Eu515 O536 2.430 . S
Eu515 O537 2.670 . S
Eu515 O538 2.394 . S
Eu515 O543 2.355 . S
Eu515 O545 2.374 . S
C516 C514 1.500 . S
C516 C517 1.377 . S
C516 C521 1.377 . S
C517 C516 1.377 . S
C517 C518 1.395 . S
C517 H546 0.931 . S
C518 C517 1.395 . S
C518 C519 1.383 . S
C518 H547 0.931 . S
C519 C518 1.383 . S
C519 C520 1.394 . S
C520 C519 1.394 . S
C520 C521 1.378 . S
C520 H548 0.931 . S
C521 C516 1.377 . S
C521 C520 1.378 . S
C521 H549 0.931 . S
C522 O536 1.259 . S
C522 O537 1.270 . S
C523 O538 1.251 . S
C523 O539 1.251 . S
C524 Eu525 2.835 . S
C524 C526 1.500 . S
C524 O540 1.257 . S
C524 O541 1.260 . S
Eu525 C524 2.835 . S
Eu525 O537 2.355 . S
Eu525 O539 2.374 . S
Eu525 O540 2.473 . S
Eu525 O541 2.480 . S
Eu525 O542 2.430 . S
Eu525 O543 2.670 . S
Eu525 O544 2.394 . S
C526 C524 1.500 . S
C526 C527 1.377 . S
C526 C531 1.377 . S
C527 C526 1.377 . S
C527 C528 1.395 . S
C527 H550 0.931 . S
C528 C527 1.395 . S
C528 C529 1.383 . S
C528 H551 0.931 . S
C529 C528 1.383 . S
C529 C530 1.394 . S
C530 C529 1.394 . S
C530 C531 1.378 . S
C530 H552 0.931 . S
C531 C526 1.377 . S
C531 C530 1.378 . S
C531 H553 0.931 . S
C532 O542 1.259 . S
C532 O543 1.270 . S
C533 O544 1.251 . S
C533 O545 1.251 . S
O534 C514 1.257 . S
O534 Eu515 2.473 . S
O535 C514 1.260 . S
O535 Eu515 2.480 . S
O536 Eu515 2.430 . S
O536 C522 1.259 . S
O537 Eu515 2.670 . S
O537 C522 1.270 . S
O537 Eu525 2.355 . S
O538 Eu515 2.394 . S
O538 C523 1.251 . S
O539 C523 1.251 . S
O539 Eu525 2.374 . S
O540 C524 1.257 . S
O540 Eu525 2.473 . S
O541 C524 1.260 . S
O541 Eu525 2.480 . S
O542 Eu525 2.430 . S
O542 C532 1.259 . S
O543 Eu515 2.355 . S
O543 Eu525 2.670 . S
O543 C532 1.270 . S
O544 Eu525 2.394 . S
O544 C533 1.251 . S
O545 Eu515 2.374 . S
O545 C533 1.251 . S
H546 C517 0.931 . S
H547 C518 0.931 . S
H548 C520 0.931 . S
H549 C521 0.931 . S
H550 C527 0.931 . S
H551 C528 0.931 . S
H552 C530 0.931 . S
H553 C531 0.931 . S
C554 Eu555 2.835 . S
C554 C556 1.500 . S
C554 O574 1.257 . S
C554 O575 1.260 . S
Eu555 C554 2.835 . S
Eu555 O574 2.473 . S
Eu555 O575 2.480 . S
Eu555 O576 2.430 . S
Eu555 O577 2.670 . S
Eu555 O578 2.394 . S
Eu555 O583 2.355 . S
Eu555 O585 2.374 . S
C556 C554 1.500 . S
C556 C557 1.377 . S
C556 C561 1.377 . S
C557 C556 1.377 . S
C557 C558 1.395 . S
C557 H586 0.931 . S
C558 C557 1.395 . S
C558 C559 1.383 . S
C558 H587 0.931 . S
C559 C558 1.383 . S
C559 C560 1.394 . S
C560 C559 1.394 . S
C560 C561 1.378 . S
C560 H588 0.931 . S
C561 C556 1.377 . S
C561 C560 1.378 . S
C561 H589 0.931 . S
C562 O576 1.259 . S
C562 O577 1.270 . S
C563 O578 1.251 . S
C563 O579 1.251 . S
C564 Eu565 2.835 . S
C564 C566 1.500 . S
C564 O580 1.257 . S
C564 O581 1.260 . S
Eu565 C564 2.835 . S
Eu565 O577 2.355 . S
Eu565 O579 2.374 . S
Eu565 O580 2.473 . S
Eu565 O581 2.480 . S
Eu565 O582 2.430 . S
Eu565 O583 2.670 . S
Eu565 O584 2.394 . S
C566 C564 1.500 . S
C566 C567 1.377 . S
C566 C571 1.377 . S
C567 C566 1.377 . S
C567 C568 1.395 . S
C567 H590 0.931 . S
C568 C567 1.395 . S
C568 C569 1.383 . S
C568 H591 0.931 . S
C569 C568 1.383 . S
C569 C570 1.394 . S
C570 C569 1.394 . S
C570 C571 1.378 . S
C570 H592 0.931 . S
C571 C566 1.377 . S
C571 C570 1.378 . S
C571 H593 0.931 . S
C572 O582 1.259 . S
C572 O583 1.270 . S
C573 O584 1.251 . S
C573 O585 1.251 . S
O574 C554 1.257 . S
O574 Eu555 2.473 . S
O575 C554 1.260 . S
O575 Eu555 2.480 . S
O576 Eu555 2.430 . S
O576 C562 1.259 . S
O577 Eu555 2.670 . S
O577 C562 1.270 . S
O577 Eu565 2.355 . S
O578 Eu555 2.394 . S
O578 C563 1.251 . S
O579 C563 1.251 . S
O579 Eu565 2.374 . S
O580 C564 1.257 . S
O580 Eu565 2.473 . S
O581 C564 1.260 . S
O581 Eu565 2.480 . S
O582 Eu565 2.430 . S
O582 C572 1.259 . S
O583 Eu555 2.355 . S
O583 Eu565 2.670 . S
O583 C572 1.270 . S
O584 Eu565 2.394 . S
O584 C573 1.251 . S
O585 Eu555 2.374 . S
O585 C573 1.251 . S
H586 C557 0.931 . S
H587 C558 0.931 . S
H588 C560 0.931 . S
H589 C561 0.931 . S
H590 C567 0.931 . S
H591 C568 0.931 . S
H592 C570 0.931 . S
H593 C571 0.931 . S
H594 C600 0.930 . S
H595 C604 0.930 . S
H596 C609 0.929 . S
H597 C607 0.929 . S
H598 C602 0.929 . S
H599 C608 0.929 . S
C600 H594 0.930 . S
C600 C601 1.367 . S
C600 C608 1.378 . S
C601 C600 1.367 . S
C601 C609 1.433 . S
C602 H598 0.929 . S
C602 C604 1.378 . S
C602 C606 1.350 . S
C603 C606 1.463 . S
C603 C608 1.350 . S
C603 N611 1.427 . S
C604 H595 0.930 . S
C604 C602 1.378 . S
C604 C605 1.367 . S
C605 C604 1.367 . S
C605 C607 1.433 . S
C606 C602 1.350 . S
C606 C603 1.463 . S
C606 N610 1.427 . S
C607 H597 0.929 . S
C607 C605 1.433 . S
C607 N610 1.384 . S
C608 H599 0.929 . S
C608 C600 1.378 . S
C608 C603 1.350 . S
C609 H596 0.929 . S
C609 C601 1.433 . S
C609 N611 1.384 . S
N610 C606 1.427 . S
N610 C607 1.384 . S
N611 C603 1.427 . S
N611 C609 1.384 . S
H612 C618 0.930 . S
H613 C622 0.949 . S
H614 C627 0.929 . S
H615 C625 0.929 . S
H616 C620 0.929 . S
H617 C626 0.929 . S
C618 H612 0.930 . S
C618 C619 1.367 . S
C618 C626 1.378 . S
C619 C618 1.367 . S
C619 C627 1.433 . S
C620 H616 0.929 . S
C620 C622 1.378 . S
C620 C624 1.350 . S
C621 C624 1.463 . S
C621 C626 1.350 . S
C621 N629 1.427 . S
C622 H613 0.949 . S
C622 C620 1.378 . S
C622 C623 1.367 . S
C623 C622 1.367 . S
C623 C625 1.433 . S
C624 C620 1.350 . S
C624 C621 1.463 . S
C624 N628 1.427 . S
C625 H615 0.929 . S
C625 C623 1.433 . S
C625 N628 1.384 . S
C626 H617 0.929 . S
C626 C618 1.378 . S
C626 C621 1.350 . S
C627 H614 0.929 . S
C627 C619 1.433 . S
C627 N629 1.384 . S
N628 C624 1.427 . S
N628 C625 1.384 . S
N629 C621 1.427 . S
N629 C627 1.384 . S
H630 C636 0.930 . S
H631 C640 0.930 . S
H632 C645 0.929 . S
H633 C643 0.929 . S
H634 C638 0.929 . S
H635 C644 0.929 . S
C636 H630 0.930 . S
C636 C637 1.367 . S
C636 C644 1.378 . S
C637 C636 1.367 . S
C637 C645 1.433 . S
C638 H634 0.929 . S
C638 C640 1.378 . S
C638 C642 1.350 . S
C639 C642 1.463 . S
C639 C644 1.350 . S
C639 N647 1.427 . S
C640 H631 0.930 . S
C640 C638 1.378 . S
C640 C641 1.367 . S
C641 C640 1.367 . S
C641 C643 1.433 . S
C642 C638 1.350 . S
C642 C639 1.463 . S
C642 N646 1.427 . S
C643 H633 0.929 . S
C643 C641 1.433 . S
C643 N646 1.384 . S
C644 H635 0.929 . S
C644 C636 1.378 . S
C644 C639 1.350 . S
C645 H632 0.929 . S
C645 C637 1.433 . S
C645 N647 1.384 . S
N646 C642 1.427 . S
N646 C643 1.384 . S
N647 C639 1.427 . S
N647 C645 1.384 . S
H648 C654 0.921 1_554 S
H649 C658 0.930 . S
H650 C663 0.929 . S
H651 C661 0.929 . S
H652 C656 0.929 . S
H653 C662 0.929 . S
C654 H648 0.921 1_556 S
C654 C655 1.378 . S
C654 C662 1.376 1_556 S
C655 C654 1.378 . S
C655 C663 1.433 . S
C656 H652 0.929 . S
C656 C658 1.378 . S
C656 C660 1.350 . S
C657 C660 1.463 . S
C657 C662 1.350 1_556 S
C657 N665 1.427 . S
C658 H649 0.930 . S
C658 C656 1.378 . S
C658 C659 1.367 . S
C659 C658 1.367 . S
C659 C661 1.433 1_556 S
C660 C656 1.350 . S
C660 C657 1.463 . S
C660 N664 1.427 1_556 S
C661 H651 0.929 . S
C661 C659 1.433 1_554 S
C661 N664 1.384 . S
C662 H653 0.929 . S
C662 C654 1.376 1_554 S
C662 C657 1.350 1_554 S
C663 H650 0.929 . S
C663 C655 1.433 . S
C663 N665 1.384 . S
N664 C660 1.427 1_554 S
N664 C661 1.384 . S
N665 C657 1.427 . S
N665 C663 1.384 . S
H666 C672 0.930 . S
H667 C676 0.909 1_554 S
H668 C681 0.929 . S
H669 C679 0.929 . S
H670 C674 0.929 . S
H671 C680 0.929 . S
C672 H666 0.930 . S
C672 C673 1.367 . S
C672 C680 1.378 . S
C673 C672 1.367 . S
C673 C681 1.433 . S
C674 H670 0.929 . S
C674 C676 1.378 . S
C674 C678 1.350 . S
C675 C678 1.463 . S
C675 C680 1.350 . S
C675 N683 1.427 . S
C676 H667 0.909 1_556 S
C676 C674 1.378 . S
C676 C677 1.367 . S
C677 C676 1.367 . S
C677 C679 1.433 . S
C678 C674 1.350 . S
C678 C675 1.463 . S
C678 N682 1.427 . S
C679 H669 0.929 . S
C679 C677 1.433 . S
C679 N682 1.384 . S
C680 H671 0.929 . S
C680 C672 1.378 . S
C680 C675 1.350 . S
C681 H668 0.929 . S
C681 C673 1.433 . S
C681 N683 1.384 . S
N682 C678 1.427 . S
N682 C679 1.384 . S
N683 C675 1.427 . S
N683 C681 1.384 . S
H684 C690 0.930 . S
H685 C694 0.930 . S
H686 C699 0.929 1_554 S
H687 C697 0.929 . S
H688 C692 0.929 . S
H689 C698 0.929 . S
C690 H684 0.930 . S
C690 C691 1.367 . S
C690 C698 1.378 . S
C691 C690 1.367 . S
C691 C699 1.433 . S
C692 H688 0.929 . S
C692 C694 1.378 . S
C692 C696 1.350 1_554 S
C693 C696 1.463 . S
C693 C698 1.350 . S
C693 N701 1.427 1_556 S
C694 H685 0.930 . S
C694 C692 1.378 . S
C694 C695 1.367 . S
C695 C694 1.367 . S
C695 C697 1.433 1_554 S
C696 C692 1.350 1_556 S
C696 C693 1.463 . S
C696 N700 1.427 . S
C697 H687 0.929 . S
C697 C695 1.433 1_556 S
C697 N700 1.384 . S
C698 H689 0.929 . S
C698 C690 1.378 . S
C698 C693 1.350 . S
C699 H686 0.929 1_556 S
C699 C691 1.433 . S
C699 N701 1.384 1_556 S
N700 C696 1.427 . S
N700 C697 1.384 . S
N701 C693 1.427 1_554 S
N701 C699 1.384 1_554 S
H702 C708 0.930 . S
H703 C712 0.930 . S
H704 C717 0.925 1_554 S
H705 C715 0.929 . S
H706 C710 0.929 . S
H707 C716 0.929 . S
C708 H702 0.930 . S
C708 C709 1.367 . S
C708 C716 1.378 . S
C709 C708 1.367 . S
C709 C717 1.433 . S
C710 H706 0.929 . S
C710 C712 1.378 . S
C710 C714 1.350 1_554 S
C711 C714 1.463 . S
C711 C716 1.350 . S
C711 N719 1.427 . S
C712 H703 0.930 . S
C712 C710 1.378 . S
C712 C713 1.367 1_554 S
C713 C712 1.367 1_556 S
C713 C715 1.433 . S
C714 C710 1.350 1_556 S
C714 C711 1.463 . S
C714 N718 1.427 . S
C715 H705 0.929 . S
C715 C713 1.433 . S
C715 N718 1.384 . S
C716 H707 0.929 . S
C716 C708 1.378 . S
C716 C711 1.350 . S
C717 H704 0.925 1_556 S
C717 C709 1.433 . S
C717 N719 1.384 . S
N718 C714 1.427 . S
N718 C715 1.384 . S
N719 C711 1.427 . S
N719 C717 1.384 . S
H720 C726 0.930 . S
H721 C730 0.930 . S
H722 C735 0.929 . S
H723 C733 0.929 1_554 S
H724 C728 0.929 . S
H725 C734 0.929 . S
C726 H720 0.930 . S
C726 C727 1.367 . S
C726 C734 1.378 . S
C727 C726 1.367 . S
C727 C735 1.433 . S
C728 H724 0.929 . S
C728 C730 1.378 . S
C728 C732 1.350 . S
C729 C732 1.463 . S
C729 C734 1.350 . S
C729 N737 1.427 . S
C730 H721 0.930 . S
C730 C728 1.378 . S
C730 C731 1.367 . S
C731 C730 1.367 . S
C731 C733 1.433 . S
C732 C728 1.350 . S
C732 C729 1.463 . S
C732 N736 1.427 . S
C733 H723 0.929 1_556 S
C733 C731 1.433 . S
C733 N736 1.384 . S
C734 H725 0.929 . S
C734 C726 1.378 . S
C734 C729 1.350 . S
C735 H722 0.929 . S
C735 C727 1.433 . S
C735 N737 1.384 . S
N736 C732 1.427 . S
N736 C733 1.384 . S
N737 C729 1.427 . S
N737 C735 1.384 . S
H738 C744 0.930 . S
H739 C748 0.930 . S
H740 C753 0.929 . S
H741 C751 0.929 . S
H742 C746 0.929 . S
H743 C752 0.929 . S
C744 H738 0.930 . S
C744 C745 1.367 1_554 S
C744 C752 1.378 . S
C745 C744 1.367 1_556 S
C745 C753 1.433 . S
C746 H742 0.929 . S
C746 C748 1.378 . S
C746 C750 1.322 1_556 S
C747 C750 1.454 1_556 S
C747 C752 1.350 1_556 S
C747 N755 1.427 . S
C748 H739 0.930 . S
C748 C746 1.378 . S
C748 C749 1.367 1_556 S
C749 C748 1.367 1_554 S
C749 C751 1.433 . S
C750 C746 1.322 1_554 S
C750 C747 1.454 1_554 S
C750 N754 1.468 . S
C751 H741 0.929 . S
C751 C749 1.433 . S
C751 N754 1.384 . S
C752 H743 0.929 . S
C752 C744 1.378 . S
C752 C747 1.350 1_554 S
C753 H740 0.929 . S
C753 C745 1.433 . S
C753 N755 1.384 . S
N754 C750 1.468 . S
N754 C751 1.384 . S
N755 C747 1.427 . S
N755 C753 1.384 . S
H756 C762 0.930 . S
H757 C766 0.930 . S
H758 C771 0.929 . S
H759 C769 0.929 . S
H760 C764 0.929 . S
H761 C770 0.929 . S
C762 H756 0.930 . S
C762 C763 1.367 . S
C762 C770 1.378 . S
C763 C762 1.367 . S
C763 C771 1.433 . S
C764 H760 0.929 . S
C764 C766 1.378 . S
C764 C768 1.350 . S
C765 C768 1.463 . S
C765 C770 1.350 . S
C765 N773 1.427 . S
C766 H757 0.930 . S
C766 C764 1.378 . S
C766 C767 1.367 . S
C767 C766 1.367 . S
C767 C769 1.433 . S
C768 C764 1.350 . S
C768 C765 1.463 . S
C768 N772 1.427 . S
C769 H759 0.929 . S
C769 C767 1.433 . S
C769 N772 1.384 . S
C770 H761 0.929 . S
C770 C762 1.378 . S
C770 C765 1.350 . S
C771 H758 0.929 . S
C771 C763 1.433 . S
C771 N773 1.384 . S
N772 C768 1.427 . S
N772 C769 1.384 . S
N773 C765 1.427 . S
N773 C771 1.384 . S
H774 C780 0.930 . S
H775 C784 0.930 . S
H776 C789 0.929 . S
H777 C787 0.929 . S
H778 C782 0.929 . S
H779 C788 0.929 . S
C780 H774 0.930 . S
C780 C781 1.367 . S
C780 C788 1.378 . S
C781 C780 1.367 . S
C781 C789 1.433 . S
C782 H778 0.929 . S
C782 C784 1.378 . S
C782 C786 1.350 . S
C783 C786 1.463 . S
C783 C788 1.350 . S
C783 N791 1.427 . S
C784 H775 0.930 . S
C784 C782 1.378 . S
C784 C785 1.367 . S
C785 C784 1.367 . S
C785 C787 1.433 . S
C786 C782 1.350 . S
C786 C783 1.463 . S
C786 N790 1.427 . S
C787 H777 0.929 . S
C787 C785 1.433 . S
C787 N790 1.384 . S
C788 H779 0.929 . S
C788 C780 1.378 . S
C788 C783 1.350 . S
C789 H776 0.929 . S
C789 C781 1.433 . S
C789 N791 1.384 . S
N790 C786 1.427 . S
N790 C787 1.384 . S
N791 C783 1.427 . S
N791 C789 1.384 . S
H792 C798 0.930 . S
H793 C802 0.930 1_556 S
H794 C807 0.929 . S
H795 C805 0.929 . S
H796 C800 0.929 1_556 S
H797 C806 0.929 . S
C798 H792 0.930 . S
C798 C799 1.367 . S
C798 C806 1.378 . S
C799 C798 1.367 . S
C799 C807 1.433 . S
C800 H796 0.929 1_554 S
C800 C802 1.378 . S
C800 C804 1.350 . S
C801 C804 1.463 . S
C801 C806 1.350 . S
C801 N809 1.427 . S
C802 H793 0.930 1_554 S
C802 C800 1.378 . S
C802 C803 1.367 . S
C803 C802 1.367 . S
C803 C805 1.433 . S
C804 C800 1.350 . S
C804 C801 1.463 . S
C804 N808 1.427 . S
C805 H795 0.929 . S
C805 C803 1.433 . S
C805 N808 1.384 . S
C806 H797 0.929 . S
C806 C798 1.378 . S
C806 C801 1.350 . S
C807 H794 0.929 . S
C807 C799 1.433 . S
C807 N809 1.384 . S
N808 C804 1.427 . S
N808 C805 1.384 . S
N809 C801 1.427 . S
N809 C807 1.384 . S
H810 C816 0.930 . S
H811 C820 0.930 . S
H812 C825 0.929 . S
H813 C823 0.929 . S
H814 C818 0.929 . S
H815 C824 0.929 . S
C816 H810 0.930 . S
C816 C817 1.367 . S
C816 C824 1.378 . S
C817 C816 1.367 . S
C817 C825 1.433 . S
C818 H814 0.929 . S
C818 C820 1.378 . S
C818 C822 1.350 . S
C819 C822 1.463 1_655 S
C819 C824 1.350 . S
C819 N827 1.427 . S
C820 H811 0.930 . S
C820 C818 1.378 . S
C820 C821 1.367 . S
C821 C820 1.367 . S
C821 C823 1.433 . S
C822 C818 1.350 . S
C822 C819 1.463 1_455 S
C822 N826 1.427 . S
C823 H813 0.929 . S
C823 C821 1.433 . S
C823 N826 1.384 . S
C824 H815 0.929 . S
C824 C816 1.378 . S
C824 C819 1.350 . S
C825 H812 0.929 . S
C825 C817 1.433 . S
C825 N827 1.384 . S
N826 C822 1.427 . S
N826 C823 1.384 . S
N827 C819 1.427 . S
N827 C825 1.384 . S
H828 C834 0.930 . S
H829 C838 0.930 . S
H830 C843 0.929 . S
H831 C841 0.929 . S
H832 C836 0.929 . S
H833 C842 0.929 . S
C834 H828 0.930 . S
C834 C835 1.367 . S
C834 C842 1.378 . S
C835 C834 1.367 . S
C835 C843 1.433 . S
C836 H832 0.929 . S
C836 C838 1.378 . S
C836 C840 1.350 . S
C837 C840 1.463 . S
C837 C842 1.350 . S
C837 N845 1.427 . S
C838 H829 0.930 . S
C838 C836 1.378 . S
C838 C839 1.367 . S
C839 C838 1.367 . S
C839 C841 1.433 . S
C840 C836 1.350 . S
C840 C837 1.463 . S
C840 N844 1.427 . S
C841 H831 0.929 . S
C841 C839 1.433 . S
C841 N844 1.384 . S
C842 H833 0.929 . S
C842 C834 1.378 . S
C842 C837 1.350 . S
C843 H830 0.929 . S
C843 C835 1.433 . S
C843 N845 1.384 . S
N844 C840 1.427 . S
N844 C841 1.384 . S
N845 C837 1.427 . S
N845 C843 1.384 . S
H846 C852 0.930 . S
H847 C856 0.930 . S
H848 C861 0.929 . S
H849 C859 0.929 . S
H850 C854 0.929 . S
H851 C860 0.929 . S
C852 H846 0.930 . S
C852 C853 1.367 . S
C852 C860 1.378 . S
C853 C852 1.367 . S
C853 C861 1.433 . S
C854 H850 0.929 . S
C854 C856 1.378 . S
C854 C858 1.350 . S
C855 C858 1.463 1_545 S
C855 C860 1.350 . S
C855 N863 1.427 . S
C856 H847 0.930 . S
C856 C854 1.378 . S
C856 C857 1.367 . S
C857 C856 1.367 . S
C857 C859 1.433 . S
C858 C854 1.350 . S
C858 C855 1.463 1_565 S
C858 N862 1.427 . S
C859 H849 0.929 . S
C859 C857 1.433 . S
C859 N862 1.384 . S
C860 H851 0.929 . S
C860 C852 1.378 . S
C860 C855 1.350 . S
C861 H848 0.929 . S
C861 C853 1.433 . S
C861 N863 1.384 . S
N862 C858 1.427 . S
N862 C859 1.384 . S
N863 C855 1.427 . S
N863 C861 1.384 . S
H864 C870 0.930 . S
H865 C874 0.930 . S
H866 C879 0.929 . S
H867 C877 0.929 . S
H868 C872 0.929 . S
H869 C878 0.929 . S
C870 H864 0.930 . S
C870 C871 1.367 . S
C870 C878 1.378 . S
C871 C870 1.367 . S
C871 C879 1.433 . S
C872 H868 0.929 . S
C872 C874 1.378 . S
C872 C876 1.350 . S
C873 C876 1.463 . S
C873 C878 1.350 . S
C873 N881 1.427 . S
C874 H865 0.930 . S
C874 C872 1.378 . S
C874 C875 1.367 . S
C875 C874 1.367 . S
C875 C877 1.433 . S
C876 C872 1.350 . S
C876 C873 1.463 . S
C876 N880 1.427 . S
C877 H867 0.929 . S
C877 C875 1.433 . S
C877 N880 1.384 . S
C878 H869 0.929 . S
C878 C870 1.378 . S
C878 C873 1.350 . S
C879 H866 0.929 . S
C879 C871 1.433 . S
C879 N881 1.384 . S
N880 C876 1.427 . S
N880 C877 1.384 . S
N881 C873 1.427 . S
N881 C879 1.384 . S
H882 C888 0.930 . S
H883 C892 0.930 . S
H884 C897 0.929 . S
H885 C895 0.929 . S
H886 C890 0.929 . S
H887 C896 0.929 . S
C888 H882 0.930 . S
C888 C889 1.367 . S
C888 C896 1.378 . S
C889 C888 1.367 . S
C889 C897 1.433 . S
C890 H886 0.929 . S
C890 C892 1.378 . S
C890 C894 1.350 . S
C891 C894 1.463 . S
C891 C896 1.350 . S
C891 N899 1.427 . S
C892 H883 0.930 . S
C892 C890 1.378 . S
C892 C893 1.367 . S
C893 C892 1.367 . S
C893 C895 1.433 . S
C894 C890 1.350 . S
C894 C891 1.463 . S
C894 N898 1.427 . S
C895 H885 0.929 . S
C895 C893 1.433 . S
C895 N898 1.384 . S
C896 H887 0.929 . S
C896 C888 1.378 . S
C896 C891 1.350 . S
C897 H884 0.929 . S
C897 C889 1.433 . S
C897 N899 1.384 . S
N898 C894 1.427 . S
N898 C895 1.384 . S
N899 C891 1.427 . S
N899 C897 1.384 . S
H900 C906 0.930 . S
H901 C910 0.930 . S
H902 C915 0.929 . S
H903 C913 0.929 . S
H904 C908 0.929 . S
H905 C914 0.929 . S
C906 H900 0.930 . S
C906 C907 1.367 . S
C906 C914 1.378 . S
C907 C906 1.367 . S
C907 C915 1.433 . S
C908 H904 0.929 . S
C908 C910 1.378 . S
C908 C912 1.350 . S
C909 C912 1.463 . S
C909 C914 1.350 . S
C909 N917 1.427 . S
C910 H901 0.930 . S
C910 C908 1.378 . S
C910 C911 1.367 . S
C911 C910 1.367 . S
C911 C913 1.433 . S
C912 C908 1.350 . S
C912 C909 1.463 . S
C912 N916 1.427 . S
C913 H903 0.929 . S
C913 C911 1.433 . S
C913 N916 1.384 . S
C914 H905 0.929 . S
C914 C906 1.378 . S
C914 C909 1.350 . S
C915 H902 0.929 . S
C915 C907 1.433 . S
C915 N917 1.384 . S
N916 C912 1.427 . S
N916 C913 1.384 . S
N917 C909 1.427 . S
N917 C915 1.384 . S
H918 C924 0.930 . S
H919 C928 0.930 . S
H920 C933 0.929 . S
H921 C931 0.929 . S
H922 C926 0.929 . S
H923 C932 0.929 . S
C924 H918 0.930 . S
C924 C925 1.367 . S
C924 C932 1.378 . S
C925 C924 1.367 . S
C925 C933 1.433 . S
C926 H922 0.929 . S
C926 C928 1.378 . S
C926 C930 1.350 . S
C927 C930 1.463 . S
C927 C932 1.350 . S
C927 N935 1.427 . S
C928 H919 0.930 . S
C928 C926 1.378 . S
C928 C929 1.367 . S
C929 C928 1.367 . S
C929 C931 1.433 . S
C930 C926 1.350 . S
C930 C927 1.463 . S
C930 N934 1.427 . S
C931 H921 0.929 . S
C931 C929 1.433 . S
C931 N934 1.384 . S
C932 H923 0.929 . S
C932 C924 1.378 . S
C932 C927 1.350 . S
C933 H920 0.929 . S
C933 C925 1.433 . S
C933 N935 1.384 . S
N934 C930 1.427 . S
N934 C931 1.384 . S
N935 C927 1.427 . S
N935 C933 1.384 . S
H936 C942 0.930 . S
H937 C946 0.930 . S
H938 C951 0.929 . S
H939 C949 0.929 . S
H940 C944 0.929 . S
H941 C950 0.929 . S
C942 H936 0.930 . S
C942 C943 1.367 . S
C942 C950 1.378 . S
C943 C942 1.367 . S
C943 C951 1.433 . S
C944 H940 0.929 . S
C944 C946 1.378 . S
C944 C948 1.350 . S
C945 C948 1.463 . S
C945 C950 1.350 . S
C945 N953 1.427 . S
C946 H937 0.930 . S
C946 C944 1.378 . S
C946 C947 1.367 . S
C947 C946 1.367 . S
C947 C949 1.433 . S
C948 C944 1.350 . S
C948 C945 1.463 . S
C948 N952 1.427 . S
C949 H939 0.929 . S
C949 C947 1.433 . S
C949 N952 1.384 . S
C950 H941 0.929 . S
C950 C942 1.378 . S
C950 C945 1.350 . S
C951 H938 0.929 . S
C951 C943 1.433 . S
C951 N953 1.384 . S
N952 C948 1.427 . S
N952 C949 1.384 . S
N953 C945 1.427 . S
N953 C951 1.384 . S
H954 C960 0.930 . S
H955 C964 0.930 . S
H956 C969 0.929 . S
H957 C967 0.929 . S
H958 C962 0.929 . S
H959 C968 0.929 . S
C960 H954 0.930 . S
C960 C961 1.367 . S
C960 C968 1.378 . S
C961 C960 1.367 . S
C961 C969 1.433 . S
C962 H958 0.929 . S
C962 C964 1.378 . S
C962 C966 1.350 . S
C963 C966 1.463 . S
C963 C968 1.350 . S
C963 N971 1.427 . S
C964 H955 0.930 . S
C964 C962 1.378 . S
C964 C965 1.367 . S
C965 C964 1.367 . S
C965 C967 1.433 . S
C966 C962 1.350 . S
C966 C963 1.463 . S
C966 N970 1.427 . S
C967 H957 0.929 . S
C967 C965 1.433 . S
C967 N970 1.384 . S
C968 H959 0.929 . S
C968 C960 1.378 . S
C968 C963 1.350 . S
C969 H956 0.929 . S
C969 C961 1.433 . S
C969 N971 1.384 . S
N970 C966 1.427 . S
N970 C967 1.384 . S
N971 C963 1.427 . S
N971 C969 1.384 . S
H972 C978 0.930 . S
H973 C982 0.930 . S
H974 C987 0.929 . S
H975 C985 0.929 . S
H976 C980 0.929 . S
H977 C986 0.929 . S
C978 H972 0.930 . S
C978 C979 1.367 . S
C978 C986 1.378 . S
C979 C978 1.367 . S
C979 C987 1.433 . S
C980 H976 0.929 . S
C980 C982 1.378 . S
C980 C984 1.350 . S
C981 C984 1.463 1_545 S
C981 C986 1.350 . S
C981 N989 1.427 . S
C982 H973 0.930 . S
C982 C980 1.378 . S
C982 C983 1.367 . S
C983 C982 1.367 . S
C983 C985 1.433 . S
C984 C980 1.350 . S
C984 C981 1.463 1_565 S
C984 N988 1.427 . S
C985 H975 0.929 . S
C985 C983 1.433 . S
C985 N988 1.384 . S
C986 H977 0.929 . S
C986 C978 1.378 . S
C986 C981 1.350 . S
C987 H974 0.929 . S
C987 C979 1.433 . S
C987 N989 1.384 . S
N988 C984 1.427 . S
N988 C985 1.384 . S
N989 C981 1.427 . S
N989 C987 1.384 . S
H990 C996 0.930 . S
H991 C1000 0.930 . S
H992 C1005 0.929 . S
H993 C1003 0.929 . S
H994 C998 0.929 . S
H995 C1004 0.929 . S
C996 H990 0.930 . S
C996 C997 1.367 . S
C996 C1004 1.378 . S
C997 C996 1.367 . S
C997 C1005 1.433 . S
C998 H994 0.929 . S
C998 C1000 1.378 . S
C998 C1002 1.350 . S
C999 C1002 1.471 . S
C999 C1004 1.344 1_455 S
C999 N1007 1.425 . S
C1000 H991 0.930 . S
C1000 C998 1.378 . S
C1000 C1001 1.367 . S
C1001 C1000 1.367 . S
C1001 C1003 1.433 . S
C1002 C998 1.350 . S
C1002 C999 1.471 . S
C1002 N1006 1.427 . S
C1003 H993 0.929 . S
C1003 C1001 1.433 . S
C1003 N1006 1.384 . S
C1004 H995 0.929 . S
C1004 C996 1.378 . S
C1004 C999 1.344 1_655 S
C1005 H992 0.929 . S
C1005 C997 1.433 . S
C1005 N1007 1.385 1_655 S
N1006 C1002 1.427 . S
N1006 C1003 1.384 . S
N1007 C999 1.425 . S
N1007 C1005 1.385 1_455 S
H1008 C1014 0.930 . S
H1009 C1018 0.930 . S
H1010 C1023 0.929 . S
H1011 C1021 0.929 . S
H1012 C1016 0.929 . S
H1013 C1022 0.929 . S
C1014 H1008 0.930 . S
C1014 C1015 1.367 . S
C1014 C1022 1.378 . S
C1015 C1014 1.367 . S
C1015 C1023 1.433 . S
C1016 H1012 0.929 . S
C1016 C1018 1.378 . S
C1016 C1020 1.350 . S
C1017 C1020 1.463 . S
C1017 C1022 1.350 . S
C1017 N1025 1.427 . S
C1018 H1009 0.930 . S
C1018 C1016 1.378 . S
C1018 C1019 1.367 . S
C1019 C1018 1.367 . S
C1019 C1021 1.433 . S
C1020 C1016 1.350 . S
C1020 C1017 1.463 . S
C1020 N1024 1.427 . S
C1021 H1011 0.929 . S
C1021 C1019 1.433 . S
C1021 N1024 1.384 . S
C1022 H1013 0.929 . S
C1022 C1014 1.378 . S
C1022 C1017 1.350 . S
C1023 H1010 0.929 . S
C1023 C1015 1.433 . S
C1023 N1025 1.384 . S
N1024 C1020 1.427 . S
N1024 C1021 1.384 . S
N1025 C1017 1.427 . S
N1025 C1023 1.384 . S
H1026 C1032 0.930 . S
H1027 C1036 0.930 . S
H1028 C1041 0.929 . S
H1029 C1039 0.929 . S
H1030 C1034 0.929 . S
H1031 C1040 0.929 . S
C1032 H1026 0.930 . S
C1032 C1033 1.367 . S
C1032 C1040 1.378 . S
C1033 C1032 1.367 . S
C1033 C1041 1.433 . S
C1034 H1030 0.929 . S
C1034 C1036 1.378 . S
C1034 C1038 1.350 . S
C1035 C1038 1.463 . S
C1035 C1040 1.350 . S
C1035 N1043 1.427 . S
C1036 H1027 0.930 . S
C1036 C1034 1.378 . S
C1036 C1037 1.367 . S
C1037 C1036 1.367 . S
C1037 C1039 1.433 . S
C1038 C1034 1.350 . S
C1038 C1035 1.463 . S
C1038 N1042 1.427 . S
C1039 H1029 0.929 . S
C1039 C1037 1.433 . S
C1039 N1042 1.384 . S
C1040 H1031 0.929 . S
C1040 C1032 1.378 . S
C1040 C1035 1.350 . S
C1041 H1028 0.929 . S
C1041 C1033 1.433 . S
C1041 N1043 1.384 . S
N1042 C1038 1.427 . S
N1042 C1039 1.384 . S
N1043 C1035 1.427 . S
N1043 C1041 1.384 . S
H1044 C1050 0.930 . S
H1045 C1054 0.930 . S
H1046 C1059 0.929 . S
H1047 C1057 0.929 . S
H1048 C1052 0.929 . S
H1049 C1058 0.929 . S
C1050 H1044 0.930 . S
C1050 C1051 1.367 . S
C1050 C1058 1.378 . S
C1051 C1050 1.367 . S
C1051 C1059 1.433 . S
C1052 H1048 0.929 . S
C1052 C1054 1.378 . S
C1052 C1056 1.350 . S
C1053 C1056 1.463 . S
C1053 C1058 1.350 . S
C1053 N1061 1.427 . S
C1054 H1045 0.930 . S
C1054 C1052 1.378 . S
C1054 C1055 1.367 . S
C1055 C1054 1.367 . S
C1055 C1057 1.433 . S
C1056 C1052 1.350 . S
C1056 C1053 1.463 . S
C1056 N1060 1.427 . S
C1057 H1047 0.929 . S
C1057 C1055 1.433 . S
C1057 N1060 1.384 . S
C1058 H1049 0.929 . S
C1058 C1050 1.378 . S
C1058 C1053 1.350 . S
C1059 H1046 0.929 . S
C1059 C1051 1.433 . S
C1059 N1061 1.384 . S
N1060 C1056 1.427 . S
N1060 C1057 1.384 . S
N1061 C1053 1.427 . S
N1061 C1059 1.384 . S
H1062 C1068 0.930 . S
H1063 C1072 0.930 . S
H1064 C1077 0.929 . S
H1065 C1075 0.929 . S
H1066 C1070 0.929 . S
H1067 C1076 0.929 . S
C1068 H1062 0.930 . S
C1068 C1069 1.367 . S
C1068 C1076 1.378 . S
C1069 C1068 1.367 . S
C1069 C1077 1.433 . S
C1070 H1066 0.929 . S
C1070 C1072 1.378 . S
C1070 C1074 1.350 . S
C1071 C1074 1.463 . S
C1071 C1076 1.350 . S
C1071 N1079 1.427 . S
C1072 H1063 0.930 . S
C1072 C1070 1.378 . S
C1072 C1073 1.367 . S
C1073 C1072 1.367 . S
C1073 C1075 1.433 . S
C1074 C1070 1.350 . S
C1074 C1071 1.463 . S
C1074 N1078 1.427 . S
C1075 H1065 0.929 . S
C1075 C1073 1.433 . S
C1075 N1078 1.384 . S
C1076 H1067 0.929 . S
C1076 C1068 1.378 . S
C1076 C1071 1.350 . S
C1077 H1064 0.929 . S
C1077 C1069 1.433 . S
C1077 N1079 1.384 . S
N1078 C1074 1.427 . S
N1078 C1075 1.384 . S
N1079 C1071 1.427 . S
N1079 C1077 1.384 . S
H1080 C1086 0.930 . S
H1081 C1090 0.930 . S
H1082 C1095 0.929 . S
H1083 C1093 0.929 . S
H1084 C1088 0.929 . S
H1085 C1094 0.929 1_545 S
C1086 H1080 0.930 . S
C1086 C1087 1.367 . S
C1086 C1094 1.378 . S
C1087 C1086 1.367 . S
C1087 C1095 1.433 . S
C1088 H1084 0.929 . S
C1088 C1090 1.378 . S
C1088 C1092 1.350 . S
C1089 C1092 1.463 . S
C1089 C1094 1.350 1_545 S
C1089 N1097 1.427 1_545 S
C1090 H1081 0.930 . S
C1090 C1088 1.378 . S
C1090 C1091 1.367 . S
C1091 C1090 1.367 . S
C1091 C1093 1.433 . S
C1092 C1088 1.350 . S
C1092 C1089 1.463 . S
C1092 N1096 1.427 . S
C1093 H1083 0.929 . S
C1093 C1091 1.433 . S
C1093 N1096 1.384 . S
C1094 H1085 0.929 1_565 S
C1094 C1086 1.378 . S
C1094 C1089 1.350 1_565 S
C1095 H1082 0.929 . S
C1095 C1087 1.433 . S
C1095 N1097 1.384 . S
N1096 C1092 1.427 . S
N1096 C1093 1.384 . S
N1097 C1089 1.427 1_565 S
N1097 C1095 1.384 . S
H1098 C1104 0.930 . S
H1099 C1108 0.930 . S
H1100 C1113 0.929 . S
H1101 C1111 0.929 . S
H1102 C1106 0.929 . S
H1103 C1112 0.929 . S
C1104 H1098 0.930 . S
C1104 C1105 1.367 . S
C1104 C1112 1.378 . S
C1105 C1104 1.367 . S
C1105 C1113 1.433 . S
C1106 H1102 0.929 . S
C1106 C1108 1.378 . S
C1106 C1110 1.350 . S
C1107 C1110 1.463 . S
C1107 C1112 1.350 1_655 S
C1107 N1115 1.427 . S
C1108 H1099 0.930 . S
C1108 C1106 1.378 . S
C1108 C1109 1.367 . S
C1109 C1108 1.367 . S
C1109 C1111 1.433 . S
C1110 C1106 1.350 . S
C1110 C1107 1.463 . S
C1110 N1114 1.427 . S
C1111 H1101 0.929 . S
C1111 C1109 1.433 . S
C1111 N1114 1.384 . S
C1112 H1103 0.929 . S
C1112 C1104 1.378 . S
C1112 C1107 1.350 1_455 S
C1113 H1100 0.929 . S
C1113 C1105 1.433 . S
C1113 N1115 1.384 1_455 S
N1114 C1110 1.427 . S
N1114 C1111 1.384 . S
N1115 C1107 1.427 . S
N1115 C1113 1.384 1_655 S
H1116 C1122 0.930 . S
H1117 C1126 0.930 . S
H1118 C1131 0.929 . S
H1119 C1129 0.929 . S
H1120 C1124 0.929 . S
H1121 C1130 0.929 . S
C1122 H1116 0.930 . S
C1122 C1123 1.367 . S
C1122 C1130 1.378 . S
C1123 C1122 1.367 . S
C1123 C1131 1.433 . S
C1124 H1120 0.929 . S
C1124 C1126 1.378 . S
C1124 C1128 1.350 . S
C1125 C1128 1.463 . S
C1125 C1130 1.350 . S
C1125 N1133 1.427 . S
C1126 H1117 0.930 . S
C1126 C1124 1.378 . S
C1126 C1127 1.367 . S
C1127 C1126 1.367 . S
C1127 C1129 1.433 . S
C1128 C1124 1.350 . S
C1128 C1125 1.463 . S
C1128 N1132 1.427 . S
C1129 H1119 0.929 . S
C1129 C1127 1.433 . S
C1129 N1132 1.384 . S
C1130 H1121 0.929 . S
C1130 C1122 1.378 . S
C1130 C1125 1.350 . S
C1131 H1118 0.929 . S
C1131 C1123 1.433 . S
C1131 N1133 1.384 . S
N1132 C1128 1.427 . S
N1132 C1129 1.384 . S
N1133 C1125 1.427 . S
N1133 C1131 1.384 . S
H1134 C1140 0.930 . S
H1135 C1144 0.930 . S
H1136 C1149 0.929 . S
H1137 C1147 0.929 . S
H1138 C1142 0.943 . S
H1139 C1148 0.929 . S
C1140 H1134 0.930 . S
C1140 C1141 1.367 . S
C1140 C1148 1.378 . S
C1141 C1140 1.367 . S
C1141 C1149 1.433 . S
C1142 H1138 0.943 . S
C1142 C1144 1.378 . S
C1142 C1146 1.350 1_655 S
C1143 C1146 1.463 . S
C1143 C1148 1.350 . S
C1143 N1151 1.427 . S
C1144 H1135 0.930 . S
C1144 C1142 1.378 . S
C1144 C1145 1.367 . S
C1145 C1144 1.367 . S
C1145 C1147 1.433 . S
C1146 C1142 1.350 1_455 S
C1146 C1143 1.463 . S
C1146 N1150 1.427 . S
C1147 H1137 0.929 . S
C1147 C1145 1.433 . S
C1147 N1150 1.384 1_655 S
C1148 H1139 0.929 . S
C1148 C1140 1.378 . S
C1148 C1143 1.350 . S
C1149 H1136 0.929 . S
C1149 C1141 1.433 . S
C1149 N1151 1.384 . S
N1150 C1146 1.427 . S
N1150 C1147 1.384 1_455 S
N1151 C1143 1.427 . S
N1151 C1149 1.384 . S
H1152 C1158 0.930 . S
H1153 C1162 0.930 . S
H1154 C1167 0.929 . S
H1155 C1165 0.929 . S
H1156 C1160 0.929 . S
H1157 C1166 0.929 . S
C1158 H1152 0.930 . S
C1158 C1159 1.367 . S
C1158 C1166 1.378 . S
C1159 C1158 1.367 . S
C1159 C1167 1.433 . S
C1160 H1156 0.929 . S
C1160 C1162 1.378 . S
C1160 C1164 1.350 . S
C1161 C1164 1.463 . S
C1161 C1166 1.350 . S
C1161 N1169 1.427 . S
C1162 H1153 0.930 . S
C1162 C1160 1.378 . S
C1162 C1163 1.367 . S
C1163 C1162 1.367 . S
C1163 C1165 1.433 . S
C1164 C1160 1.350 . S
C1164 C1161 1.463 . S
C1164 N1168 1.427 . S
C1165 H1155 0.929 . S
C1165 C1163 1.433 . S
C1165 N1168 1.384 . S
C1166 H1157 0.929 . S
C1166 C1158 1.378 . S
C1166 C1161 1.350 . S
C1167 H1154 0.929 . S
C1167 C1159 1.433 . S
C1167 N1169 1.384 . S
N1168 C1164 1.427 . S
N1168 C1165 1.384 . S
N1169 C1161 1.427 . S
N1169 C1167 1.384 . S
H1170 C1176 0.930 . S
H1171 C1180 0.930 . S
H1172 C1185 0.929 . S
H1173 C1183 0.929 . S
H1174 C1178 0.929 . S
H1175 C1184 0.929 . S
C1176 H1170 0.930 . S
C1176 C1177 1.367 . S
C1176 C1184 1.378 . S
C1177 C1176 1.367 . S
C1177 C1185 1.433 . S
C1178 H1174 0.929 . S
C1178 C1180 1.378 . S
C1178 C1182 1.350 . S
C1179 C1182 1.463 1_565 S
C1179 C1184 1.350 . S
C1179 N1187 1.427 . S
C1180 H1171 0.930 . S
C1180 C1178 1.378 . S
C1180 C1181 1.367 . S
C1181 C1180 1.367 . S
C1181 C1183 1.433 . S
C1182 C1178 1.350 . S
C1182 C1179 1.463 1_545 S
C1182 N1186 1.427 . S
C1183 H1173 0.929 . S
C1183 C1181 1.433 . S
C1183 N1186 1.384 . S
C1184 H1175 0.929 . S
C1184 C1176 1.378 . S
C1184 C1179 1.350 . S
C1185 H1172 0.929 . S
C1185 C1177 1.433 . S
C1185 N1187 1.384 . S
N1186 C1182 1.427 . S
N1186 C1183 1.384 . S
N1187 C1179 1.427 . S
N1187 C1185 1.384 . S
H1188 C1194 0.930 . S
H1189 C1198 0.930 . S
H1190 C1203 0.929 . S
H1191 C1201 0.929 . S
H1192 C1196 0.929 . S
H1193 C1202 0.929 . S
C1194 H1188 0.930 . S
C1194 C1195 1.367 . S
C1194 C1202 1.378 . S
C1195 C1194 1.367 . S
C1195 C1203 1.433 . S
C1196 H1192 0.929 . S
C1196 C1198 1.378 . S
C1196 C1200 1.350 . S
C1197 C1200 1.463 . S
C1197 C1202 1.350 . S
C1197 N1205 1.427 . S
C1198 H1189 0.930 . S
C1198 C1196 1.378 . S
C1198 C1199 1.367 . S
C1199 C1198 1.367 . S
C1199 C1201 1.433 . S
C1200 C1196 1.350 . S
C1200 C1197 1.463 . S
C1200 N1204 1.427 . S
C1201 H1191 0.929 . S
C1201 C1199 1.433 . S
C1201 N1204 1.384 . S
C1202 H1193 0.929 . S
C1202 C1194 1.378 . S
C1202 C1197 1.350 . S
C1203 H1190 0.929 . S
C1203 C1195 1.433 . S
C1203 N1205 1.384 . S
N1204 C1200 1.427 . S
N1204 C1201 1.384 . S
N1205 C1197 1.427 . S
N1205 C1203 1.384 . S
H1206 C1212 0.930 . S
H1207 C1216 0.930 . S
H1208 C1221 0.929 . S
H1209 C1219 0.929 . S
H1210 C1214 0.929 . S
H1211 C1220 0.929 . S
C1212 H1206 0.930 . S
C1212 C1213 1.367 . S
C1212 C1220 1.378 . S
C1213 C1212 1.367 . S
C1213 C1221 1.433 . S
C1214 H1210 0.929 . S
C1214 C1216 1.378 . S
C1214 C1218 1.350 . S
C1215 C1218 1.463 . S
C1215 C1220 1.350 . S
C1215 N1223 1.427 . S
C1216 H1207 0.930 . S
C1216 C1214 1.378 . S
C1216 C1217 1.367 . S
C1217 C1216 1.367 . S
C1217 C1219 1.433 . S
C1218 C1214 1.350 . S
C1218 C1215 1.463 . S
C1218 N1222 1.427 . S
C1219 H1209 0.929 . S
C1219 C1217 1.433 . S
C1219 N1222 1.384 . S
C1220 H1211 0.929 . S
C1220 C1212 1.378 . S
C1220 C1215 1.350 . S
C1221 H1208 0.929 . S
C1221 C1213 1.433 . S
C1221 N1223 1.384 . S
N1222 C1218 1.427 . S
N1222 C1219 1.384 . S
N1223 C1215 1.427 . S
N1223 C1221 1.384 . S
H1224 C1230 0.930 . S
H1225 C1234 0.930 . S
H1226 C1239 0.929 . S
H1227 C1237 0.929 . S
H1228 C1232 0.929 . S
H1229 C1238 0.929 . S
C1230 H1224 0.930 . S
C1230 C1231 1.367 . S
C1230 C1238 1.378 . S
C1231 C1230 1.367 . S
C1231 C1239 1.433 . S
C1232 H1228 0.929 . S
C1232 C1234 1.378 . S
C1232 C1236 1.350 . S
C1233 C1236 1.463 . S
C1233 C1238 1.350 . S
C1233 N1241 1.427 . S
C1234 H1225 0.930 . S
C1234 C1232 1.378 . S
C1234 C1235 1.367 . S
C1235 C1234 1.367 . S
C1235 C1237 1.433 . S
C1236 C1232 1.350 . S
C1236 C1233 1.463 . S
C1236 N1240 1.427 . S
C1237 H1227 0.929 . S
C1237 C1235 1.433 . S
C1237 N1240 1.384 . S
C1238 H1229 0.929 . S
C1238 C1230 1.378 . S
C1238 C1233 1.350 . S
C1239 H1226 0.929 . S
C1239 C1231 1.433 . S
C1239 N1241 1.384 . S
N1240 C1236 1.427 . S
N1240 C1237 1.384 . S
N1241 C1233 1.427 . S
N1241 C1239 1.384 . S
H1242 C1248 0.930 . S
H1243 C1252 0.930 . S
H1244 C1257 0.929 . S
H1245 C1255 0.929 . S
H1246 C1250 0.929 . S
H1247 C1256 0.929 . S
C1248 H1242 0.930 . S
C1248 C1249 1.367 . S
C1248 C1256 1.378 . S
C1249 C1248 1.367 . S
C1249 C1257 1.433 . S
C1250 H1246 0.929 . S
C1250 C1252 1.378 . S
C1250 C1254 1.350 . S
C1251 C1254 1.463 . S
C1251 C1256 1.350 . S
C1251 N1259 1.427 . S
C1252 H1243 0.930 . S
C1252 C1250 1.378 . S
C1252 C1253 1.367 . S
C1253 C1252 1.367 . S
C1253 C1255 1.433 . S
C1254 C1250 1.350 . S
C1254 C1251 1.463 . S
C1254 N1258 1.427 . S
C1255 H1245 0.929 . S
C1255 C1253 1.433 . S
C1255 N1258 1.384 . S
C1256 H1247 0.929 . S
C1256 C1248 1.378 . S
C1256 C1251 1.350 . S
C1257 H1244 0.929 . S
C1257 C1249 1.433 . S
C1257 N1259 1.384 . S
N1258 C1254 1.427 . S
N1258 C1255 1.384 . S
N1259 C1251 1.427 . S
N1259 C1257 1.384 . S
H1260 C1266 0.930 . S
H1261 C1270 0.930 . S
H1262 C1275 0.929 . S
H1263 C1273 0.929 . S
H1264 C1268 0.929 . S
H1265 C1274 0.929 . S
C1266 H1260 0.930 . S
C1266 C1267 1.367 . S
C1266 C1274 1.378 . S
C1267 C1266 1.367 . S
C1267 C1275 1.433 . S
C1268 H1264 0.929 . S
C1268 C1270 1.378 . S
C1268 C1272 1.350 . S
C1269 C1272 1.463 . S
C1269 C1274 1.350 . S
C1269 N1277 1.427 . S
C1270 H1261 0.930 . S
C1270 C1268 1.378 . S
C1270 C1271 1.367 . S
C1271 C1270 1.367 . S
C1271 C1273 1.433 . S
C1272 C1268 1.350 . S
C1272 C1269 1.463 . S
C1272 N1276 1.427 . S
C1273 H1263 0.929 . S
C1273 C1271 1.433 . S
C1273 N1276 1.384 . S
C1274 H1265 0.929 . S
C1274 C1266 1.378 . S
C1274 C1269 1.350 . S
C1275 H1262 0.929 . S
C1275 C1267 1.433 . S
C1275 N1277 1.384 . S
N1276 C1272 1.427 . S
N1276 C1273 1.384 . S
N1277 C1269 1.427 . S
N1277 C1275 1.384 . S
H1278 C1284 0.930 . S
H1279 C1288 0.930 . S
H1280 C1293 0.929 . S
H1281 C1291 0.929 . S
H1282 C1286 0.929 . S
H1283 C1292 0.929 . S
C1284 H1278 0.930 . S
C1284 C1285 1.367 . S
C1284 C1292 1.378 . S
C1285 C1284 1.367 . S
C1285 C1293 1.433 . S
C1286 H1282 0.929 . S
C1286 C1288 1.378 . S
C1286 C1290 1.350 . S
C1287 C1290 1.463 . S
C1287 C1292 1.350 . S
C1287 N1295 1.427 . S
C1288 H1279 0.930 . S
C1288 C1286 1.378 . S
C1288 C1289 1.367 . S
C1289 C1288 1.367 . S
C1289 C1291 1.433 . S
C1290 C1286 1.350 . S
C1290 C1287 1.463 . S
C1290 N1294 1.427 . S
C1291 H1281 0.929 . S
C1291 C1289 1.433 . S
C1291 N1294 1.384 . S
C1292 H1283 0.929 . S
C1292 C1284 1.378 . S
C1292 C1287 1.350 . S
C1293 H1280 0.929 . S
C1293 C1285 1.433 . S
C1293 N1295 1.384 . S
N1294 C1290 1.427 . S
N1294 C1291 1.384 . S
N1295 C1287 1.427 . S
N1295 C1293 1.384 . S
H1296 C1302 0.930 . S
H1297 C1306 0.930 . S
H1298 C1311 0.929 . S
H1299 C1309 0.929 . S
H1300 C1304 0.929 . S
H1301 C1310 0.929 . S
C1302 H1296 0.930 . S
C1302 C1303 1.367 . S
C1302 C1310 1.378 . S
C1303 C1302 1.367 . S
C1303 C1311 1.433 . S
C1304 H1300 0.929 . S
C1304 C1306 1.378 . S
C1304 C1308 1.350 . S
C1305 C1308 1.463 . S
C1305 C1310 1.350 . S
C1305 N1313 1.427 . S
C1306 H1297 0.930 . S
C1306 C1304 1.378 . S
C1306 C1307 1.367 . S
C1307 C1306 1.367 . S
C1307 C1309 1.433 . S
C1308 C1304 1.350 . S
C1308 C1305 1.463 . S
C1308 N1312 1.427 . S
C1309 H1299 0.929 . S
C1309 C1307 1.433 . S
C1309 N1312 1.384 . S
C1310 H1301 0.929 . S
C1310 C1302 1.378 . S
C1310 C1305 1.350 . S
C1311 H1298 0.929 . S
C1311 C1303 1.433 . S
C1311 N1313 1.384 . S
N1312 C1308 1.427 . S
N1312 C1309 1.384 . S
N1313 C1305 1.427 . S
N1313 C1311 1.384 . S
H1314 C1320 0.930 . S
H1315 C1324 0.930 . S
H1316 C1329 0.929 . S
H1317 C1327 0.929 . S
H1318 C1322 0.929 . S
H1319 C1328 0.929 . S
C1320 H1314 0.930 . S
C1320 C1321 1.367 . S
C1320 C1328 1.378 . S
C1321 C1320 1.367 . S
C1321 C1329 1.433 . S
C1322 H1318 0.929 . S
C1322 C1324 1.378 . S
C1322 C1326 1.350 . S
C1323 C1326 1.463 . S
C1323 C1328 1.350 . S
C1323 N1331 1.427 . S
C1324 H1315 0.930 . S
C1324 C1322 1.378 . S
C1324 C1325 1.367 . S
C1325 C1324 1.367 . S
C1325 C1327 1.433 . S
C1326 C1322 1.350 . S
C1326 C1323 1.463 . S
C1326 N1330 1.427 . S
C1327 H1317 0.929 . S
C1327 C1325 1.433 . S
C1327 N1330 1.384 . S
C1328 H1319 0.929 . S
C1328 C1320 1.378 . S
C1328 C1323 1.350 . S
C1329 H1316 0.929 . S
C1329 C1321 1.433 . S
C1329 N1331 1.384 . S
N1330 C1326 1.427 . S
N1330 C1327 1.384 . S
N1331 C1323 1.427 . S
N1331 C1329 1.384 . S
H1332 C1338 0.930 . S
H1333 C1342 0.930 . S
H1334 C1347 0.929 . S
H1335 C1345 0.929 . S
H1336 C1340 0.929 . S
H1337 C1346 0.929 . S
C1338 H1332 0.930 . S
C1338 C1339 1.367 . S
C1338 C1346 1.378 . S
C1339 C1338 1.367 . S
C1339 C1347 1.433 . S
C1340 H1336 0.929 . S
C1340 C1342 1.378 . S
C1340 C1344 1.350 . S
C1341 C1344 1.463 . S
C1341 C1346 1.350 . S
C1341 N1349 1.427 . S
C1342 H1333 0.930 . S
C1342 C1340 1.378 . S
C1342 C1343 1.367 . S
C1343 C1342 1.367 . S
C1343 C1345 1.433 . S
C1344 C1340 1.350 . S
C1344 C1341 1.463 . S
C1344 N1348 1.427 . S
C1345 H1335 0.929 . S
C1345 C1343 1.433 . S
C1345 N1348 1.384 . S
C1346 H1337 0.929 . S
C1346 C1338 1.378 . S
C1346 C1341 1.350 . S
C1347 H1334 0.929 . S
C1347 C1339 1.433 . S
C1347 N1349 1.384 . S
N1348 C1344 1.427 . S
N1348 C1345 1.384 . S
N1349 C1341 1.427 . S
N1349 C1347 1.384 . S
H1350 C1356 0.930 . S
H1351 C1360 0.930 . S
H1352 C1365 0.929 . S
H1353 C1363 0.929 . S
H1354 C1358 0.929 . S
H1355 C1364 0.929 . S
C1356 H1350 0.930 . S
C1356 C1357 1.367 . S
C1356 C1364 1.378 . S
C1357 C1356 1.367 . S
C1357 C1365 1.433 . S
C1358 H1354 0.929 . S
C1358 C1360 1.378 . S
C1358 C1362 1.350 . S
C1359 C1362 1.463 . S
C1359 C1364 1.350 . S
C1359 N1367 1.427 . S
C1360 H1351 0.930 . S
C1360 C1358 1.378 . S
C1360 C1361 1.367 . S
C1361 C1360 1.367 . S
C1361 C1363 1.433 . S
C1362 C1358 1.350 . S
C1362 C1359 1.463 . S
C1362 N1366 1.427 . S
C1363 H1353 0.929 . S
C1363 C1361 1.433 . S
C1363 N1366 1.384 . S
C1364 H1355 0.929 . S
C1364 C1356 1.378 . S
C1364 C1359 1.350 . S
C1365 H1352 0.929 . S
C1365 C1357 1.433 . S
C1365 N1367 1.384 . S
N1366 C1362 1.427 . S
N1366 C1363 1.384 . S
N1367 C1359 1.427 . S
N1367 C1365 1.384 . S
H1368 C1374 0.930 . S
H1369 C1378 0.930 . S
H1370 C1383 0.929 . S
H1371 C1381 0.929 . S
H1372 C1376 0.929 . S
H1373 C1382 0.929 . S
C1374 H1368 0.930 . S
C1374 C1375 1.367 . S
C1374 C1382 1.378 . S
C1375 C1374 1.367 . S
C1375 C1383 1.433 . S
C1376 H1372 0.929 . S
C1376 C1378 1.378 . S
C1376 C1380 1.350 . S
C1377 C1380 1.463 . S
C1377 C1382 1.350 . S
C1377 N1385 1.427 . S
C1378 H1369 0.930 . S
C1378 C1376 1.378 . S
C1378 C1379 1.367 . S
C1379 C1378 1.367 . S
C1379 C1381 1.433 . S
C1380 C1376 1.350 . S
C1380 C1377 1.463 . S
C1380 N1384 1.427 . S
C1381 H1371 0.929 . S
C1381 C1379 1.433 . S
C1381 N1384 1.384 . S
C1382 H1373 0.929 . S
C1382 C1374 1.378 . S
C1382 C1377 1.350 . S
C1383 H1370 0.929 . S
C1383 C1375 1.433 . S
C1383 N1385 1.384 . S
N1384 C1380 1.427 . S
N1384 C1381 1.384 . S
N1385 C1377 1.427 . S
N1385 C1383 1.384 . S
H1386 C1392 0.930 . S
H1387 C1396 0.930 . S
H1388 C1401 0.929 . S
H1389 C1399 0.929 . S
H1390 C1394 0.929 . S
H1391 C1400 0.929 . S
C1392 H1386 0.930 . S
C1392 C1393 1.367 . S
C1392 C1400 1.378 . S
C1393 C1392 1.367 . S
C1393 C1401 1.433 . S
C1394 H1390 0.929 . S
C1394 C1396 1.378 . S
C1394 C1398 1.350 . S
C1395 C1398 1.463 . S
C1395 C1400 1.350 . S
C1395 N1403 1.427 . S
C1396 H1387 0.930 . S
C1396 C1394 1.378 . S
C1396 C1397 1.367 . S
C1397 C1396 1.367 . S
C1397 C1399 1.433 . S
C1398 C1394 1.350 . S
C1398 C1395 1.463 . S
C1398 N1402 1.427 . S
C1399 H1389 0.929 . S
C1399 C1397 1.433 . S
C1399 N1402 1.384 . S
C1400 H1391 0.929 . S
C1400 C1392 1.378 . S
C1400 C1395 1.350 . S
C1401 H1388 0.929 . S
C1401 C1393 1.433 . S
C1401 N1403 1.384 . S
N1402 C1398 1.427 . S
N1402 C1399 1.384 . S
N1403 C1395 1.427 . S
N1403 C1401 1.384 . S
H1404 C1410 0.930 . S
H1405 C1414 0.930 . S
H1406 C1419 0.929 . S
H1407 C1417 0.929 . S
H1408 C1412 0.929 . S
H1409 C1418 0.929 . S
C1410 H1404 0.930 . S
C1410 C1411 1.367 . S
C1410 C1418 1.378 . S
C1411 C1410 1.367 . S
C1411 C1419 1.433 . S
C1412 H1408 0.929 . S
C1412 C1414 1.378 . S
C1412 C1416 1.350 . S
C1413 C1416 1.463 . S
C1413 C1418 1.350 . S
C1413 N1421 1.427 . S
C1414 H1405 0.930 . S
C1414 C1412 1.378 . S
C1414 C1415 1.367 . S
C1415 C1414 1.367 . S
C1415 C1417 1.433 . S
C1416 C1412 1.350 . S
C1416 C1413 1.463 . S
C1416 N1420 1.427 . S
C1417 H1407 0.929 . S
C1417 C1415 1.433 . S
C1417 N1420 1.384 . S
C1418 H1409 0.929 . S
C1418 C1410 1.378 . S
C1418 C1413 1.350 . S
C1419 H1406 0.929 . S
C1419 C1411 1.433 . S
C1419 N1421 1.384 . S
N1420 C1416 1.427 . S
N1420 C1417 1.384 . S
N1421 C1413 1.427 . S
N1421 C1419 1.384 . S
H1422 C1428 0.930 . S
H1423 C1432 0.930 . S
H1424 C1437 0.929 . S
H1425 C1435 0.929 . S
H1426 C1430 0.929 . S
H1427 C1436 0.929 . S
C1428 H1422 0.930 . S
C1428 C1429 1.367 . S
C1428 C1436 1.378 . S
C1429 C1428 1.367 . S
C1429 C1437 1.433 . S
C1430 H1426 0.929 . S
C1430 C1432 1.378 . S
C1430 C1434 1.350 . S
C1431 C1434 1.463 . S
C1431 C1436 1.350 . S
C1431 N1439 1.427 . S
C1432 H1423 0.930 . S
C1432 C1430 1.378 . S
C1432 C1433 1.367 . S
C1433 C1432 1.367 . S
C1433 C1435 1.433 . S
C1434 C1430 1.350 . S
C1434 C1431 1.463 . S
C1434 N1438 1.427 . S
C1435 H1425 0.929 . S
C1435 C1433 1.433 . S
C1435 N1438 1.384 . S
C1436 H1427 0.929 . S
C1436 C1428 1.378 . S
C1436 C1431 1.350 . S
C1437 H1424 0.929 . S
C1437 C1429 1.433 . S
C1437 N1439 1.384 . S
N1438 C1434 1.427 . S
N1438 C1435 1.384 . S
N1439 C1431 1.427 . S
N1439 C1437 1.384 . S
H1440 C1446 0.930 . S
H1441 C1450 0.930 . S
H1442 C1455 0.929 . S
H1443 C1453 0.929 . S
H1444 C1448 0.929 . S
H1445 C1454 0.929 . S
C1446 H1440 0.930 . S
C1446 C1447 1.367 . S
C1446 C1454 1.378 . S
C1447 C1446 1.367 . S
C1447 C1455 1.433 . S
C1448 H1444 0.929 . S
C1448 C1450 1.378 . S
C1448 C1452 1.350 . S
C1449 C1452 1.463 . S
C1449 C1454 1.350 . S
C1449 N1457 1.427 . S
C1450 H1441 0.930 . S
C1450 C1448 1.378 . S
C1450 C1451 1.367 . S
C1451 C1450 1.367 . S
C1451 C1453 1.433 . S
C1452 C1448 1.350 . S
C1452 C1449 1.463 . S
C1452 N1456 1.427 . S
C1453 H1443 0.929 . S
C1453 C1451 1.433 . S
C1453 N1456 1.384 . S
C1454 H1445 0.929 . S
C1454 C1446 1.378 . S
C1454 C1449 1.350 . S
C1455 H1442 0.929 . S
C1455 C1447 1.433 . S
C1455 N1457 1.384 . S
N1456 C1452 1.427 . S
N1456 C1453 1.384 . S
N1457 C1449 1.427 . S
N1457 C1455 1.384 . S
H1458 C1464 0.930 . S
H1459 C1468 0.930 . S
H1460 C1473 0.929 . S
H1461 C1471 0.929 . S
H1462 C1466 0.929 . S
H1463 C1472 0.929 . S
C1464 H1458 0.930 . S
C1464 C1465 1.367 . S
C1464 C1472 1.378 . S
C1465 C1464 1.367 . S
C1465 C1473 1.433 . S
C1466 H1462 0.929 . S
C1466 C1468 1.378 . S
C1466 C1470 1.350 . S
C1467 C1470 1.463 . S
C1467 C1472 1.350 . S
C1467 N1475 1.427 . S
C1468 H1459 0.930 . S
C1468 C1466 1.378 . S
C1468 C1469 1.367 . S
C1469 C1468 1.367 . S
C1469 C1471 1.433 . S
C1470 C1466 1.350 . S
C1470 C1467 1.463 . S
C1470 N1474 1.427 . S
C1471 H1461 0.929 . S
C1471 C1469 1.433 . S
C1471 N1474 1.384 . S
C1472 H1463 0.929 . S
C1472 C1464 1.378 . S
C1472 C1467 1.350 . S
C1473 H1460 0.929 . S
C1473 C1465 1.433 . S
C1473 N1475 1.384 . S
N1474 C1470 1.427 . S
N1474 C1471 1.384 . S
N1475 C1467 1.427 . S
N1475 C1473 1.384 . S
H1476 C1482 0.930 . S
H1477 C1486 0.930 . S
H1478 C1491 0.929 . S
H1479 C1489 0.929 . S
H1480 C1484 0.929 . S
H1481 C1490 0.929 . S
C1482 H1476 0.930 . S
C1482 C1483 1.367 . S
C1482 C1490 1.378 . S
C1483 C1482 1.367 . S
C1483 C1491 1.433 . S
C1484 H1480 0.929 . S
C1484 C1486 1.378 . S
C1484 C1488 1.350 . S
C1485 C1488 1.463 . S
C1485 C1490 1.350 . S
C1485 N1493 1.427 . S
C1486 H1477 0.930 . S
C1486 C1484 1.378 . S
C1486 C1487 1.367 . S
C1487 C1486 1.367 . S
C1487 C1489 1.433 . S
C1488 C1484 1.350 . S
C1488 C1485 1.463 . S
C1488 N1492 1.427 . S
C1489 H1479 0.929 . S
C1489 C1487 1.433 . S
C1489 N1492 1.384 . S
C1490 H1481 0.929 . S
C1490 C1482 1.378 . S
C1490 C1485 1.350 . S
C1491 H1478 0.929 . S
C1491 C1483 1.433 . S
C1491 N1493 1.384 . S
N1492 C1488 1.427 . S
N1492 C1489 1.384 . S
N1493 C1485 1.427 . S
N1493 C1491 1.384 . S
H1494 C1500 0.930 . S
H1495 C1504 0.930 . S
H1496 C1509 0.929 . S
H1497 C1507 0.929 . S
H1498 C1502 0.929 . S
H1499 C1508 0.929 . S
C1500 H1494 0.930 . S
C1500 C1501 1.367 . S
C1500 C1508 1.378 . S
C1501 C1500 1.367 . S
C1501 C1509 1.433 . S
C1502 H1498 0.929 . S
C1502 C1504 1.378 . S
C1502 C1506 1.350 . S
C1503 C1506 1.463 . S
C1503 C1508 1.350 . S
C1503 N1511 1.427 . S
C1504 H1495 0.930 . S
C1504 C1502 1.378 . S
C1504 C1505 1.367 . S
C1505 C1504 1.367 . S
C1505 C1507 1.433 . S
C1506 C1502 1.350 . S
C1506 C1503 1.463 . S
C1506 N1510 1.427 . S
C1507 H1497 0.929 . S
C1507 C1505 1.433 . S
C1507 N1510 1.384 . S
C1508 H1499 0.929 . S
C1508 C1500 1.378 . S
C1508 C1503 1.350 . S
C1509 H1496 0.929 . S
C1509 C1501 1.433 . S
C1509 N1511 1.384 . S
N1510 C1506 1.427 . S
N1510 C1507 1.384 . S
N1511 C1503 1.427 . S
N1511 C1509 1.384 . S
H1512 C1518 0.930 . S
H1513 C1522 0.930 . S
H1514 C1527 0.929 . S
H1515 C1525 0.929 . S
H1516 C1520 0.929 . S
H1517 C1526 0.929 . S
C1518 H1512 0.930 . S
C1518 C1519 1.367 . S
C1518 C1526 1.378 . S
C1519 C1518 1.367 . S
C1519 C1527 1.433 . S
C1520 H1516 0.929 . S
C1520 C1522 1.378 . S
C1520 C1524 1.350 . S
C1521 C1524 1.463 . S
C1521 C1526 1.350 . S
C1521 N1529 1.427 . S
C1522 H1513 0.930 . S
C1522 C1520 1.378 . S
C1522 C1523 1.367 . S
C1523 C1522 1.367 . S
C1523 C1525 1.433 . S
C1524 C1520 1.350 . S
C1524 C1521 1.463 . S
C1524 N1528 1.427 . S
C1525 H1515 0.929 . S
C1525 C1523 1.433 . S
C1525 N1528 1.384 . S
C1526 H1517 0.929 . S
C1526 C1518 1.378 . S
C1526 C1521 1.350 . S
C1527 H1514 0.929 . S
C1527 C1519 1.433 . S
C1527 N1529 1.384 . S
N1528 C1524 1.427 . S
N1528 C1525 1.384 . S
N1529 C1521 1.427 . S
N1529 C1527 1.384 . S
H1530 C1536 0.930 . S
H1531 C1540 0.930 . S
H1532 C1545 0.929 . S
H1533 C1543 0.929 . S
H1534 C1538 0.929 . S
H1535 C1544 0.929 . S
C1536 H1530 0.930 . S
C1536 C1537 1.367 . S
C1536 C1544 1.378 . S
C1537 C1536 1.367 . S
C1537 C1545 1.433 . S
C1538 H1534 0.929 . S
C1538 C1540 1.378 . S
C1538 C1542 1.350 . S
C1539 C1542 1.463 . S
C1539 C1544 1.350 . S
C1539 N1547 1.427 . S
C1540 H1531 0.930 . S
C1540 C1538 1.378 . S
C1540 C1541 1.367 . S
C1541 C1540 1.367 . S
C1541 C1543 1.433 . S
C1542 C1538 1.350 . S
C1542 C1539 1.463 . S
C1542 N1546 1.427 . S
C1543 H1533 0.929 . S
C1543 C1541 1.433 . S
C1543 N1546 1.384 . S
C1544 H1535 0.929 . S
C1544 C1536 1.378 . S
C1544 C1539 1.350 . S
C1545 H1532 0.929 . S
C1545 C1537 1.433 . S
C1545 N1547 1.384 . S
N1546 C1542 1.427 . S
N1546 C1543 1.384 . S
N1547 C1539 1.427 . S
N1547 C1545 1.384 . S
H1548 C1554 0.930 . S
H1549 C1558 0.930 . S
H1550 C1563 0.929 . S
H1551 C1561 0.929 . S
H1552 C1556 0.929 . S
H1553 C1562 0.929 . S
C1554 H1548 0.930 . S
C1554 C1555 1.367 . S
C1554 C1562 1.378 . S
C1555 C1554 1.367 . S
C1555 C1563 1.433 . S
C1556 H1552 0.929 . S
C1556 C1558 1.378 . S
C1556 C1560 1.350 . S
C1557 C1560 1.463 . S
C1557 C1562 1.350 . S
C1557 N1565 1.427 . S
C1558 H1549 0.930 . S
C1558 C1556 1.378 . S
C1558 C1559 1.367 . S
C1559 C1558 1.367 . S
C1559 C1561 1.433 . S
C1560 C1556 1.350 . S
C1560 C1557 1.463 . S
C1560 N1564 1.427 . S
C1561 H1551 0.929 . S
C1561 C1559 1.433 . S
C1561 N1564 1.384 . S
C1562 H1553 0.929 . S
C1562 C1554 1.378 . S
C1562 C1557 1.350 . S
C1563 H1550 0.929 . S
C1563 C1555 1.433 . S
C1563 N1565 1.384 . S
N1564 C1560 1.427 . S
N1564 C1561 1.384 . S
N1565 C1557 1.427 . S
N1565 C1563 1.384 . S
C601 N170 2.071 . S
C605 C243 2.083 . S
C619 N184 1.147 . S
C623 C283 1.133 . S
C637 N158 1.672 . S
C641 C322 1.652 . S
C655 N145 1.560 . S
C659 C282 1.531 1_556 S
C677 C323 0.849 1_556 S
C673 N119 0.847 . S
C691 N131 1.836 . S
C695 C242 1.858 . S
C713 C253 1.748 1_556 S
C709 N144 1.759 . S
C731 C293 1.648 . S
C727 N118 1.658 . S
C745 N132 1.565 . S
C749 C332 1.557 . S
C763 N171 1.479 . S
C767 C292 1.458 . S
C781 N183 1.329 . S
C785 C333 1.331 . S
C803 C252 1.444 . S
C799 N157 1.475 . S
C821 C363 2.086 . S
C817 N14 2.076 . S
C835 N28 1.148 . S
C839 C403 1.140 . S
C853 N2 1.678 . S
C857 C442 1.651 . S
C871 N223 1.560 . S
C875 C402 1.532 . S
C889 N197 0.847 . S
C893 C443 0.849 . S
C907 N209 1.836 . S
C911 C362 1.858 . S
C925 N222 1.756 . S
C929 C373 1.751 . S
C943 N196 1.662 . S
C947 C413 1.641 . S
C965 C452 1.562 . S
C961 N210 1.559 . S
C979 N15 1.478 . S
C983 C412 1.465 . S
C1001 C453 1.333 . S
C997 N27 1.324 . S
C1015 N1 1.472 . S
C1019 C372 1.455 . S
C1037 C483 2.089 . S
C1033 N92 2.074 . S
C1051 N106 1.150 . S
C1055 C523 1.143 . S
C1073 C562 1.649 . S
C1069 N80 1.678 . S
C1091 C522 1.526 . S
C1087 N67 1.553 . S
C1109 C563 0.849 . S
C1105 N41 0.846 . S
C1123 N53 1.842 . S
C1127 C482 1.860 . S
C1141 N66 1.755 . S
C1145 C493 1.750 . S
C1159 N40 1.658 . S
C1163 C533 1.648 . S
C1181 C572 1.562 . S
C1177 N54 1.560 . S
C1195 N93 1.475 . S
C1199 C532 1.467 . S
C1213 N105 1.325 . S
C1217 C573 1.333 . S
C1231 N79 1.474 . S
C1235 C492 1.455 . S
C1249 N200 1.035 . S
C1253 C239 1.049 . S
C1271 C279 2.015 . S
C1267 N213 1.977 . S
C1285 N226 1.578 . S
C1289 C329 1.597 . S
C1303 N83 1.793 . S
C1307 C289 1.801 . S
C1321 N96 1.812 . S
C1325 C319 1.850 . S
C1343 C249 1.181 . S
C1339 N109 1.190 . S
C1357 N44 1.039 . S
C1361 C359 1.050 . S
C1375 N57 1.977 . S
C1379 C399 2.017 . S
C1393 N70 1.585 . S
C1397 C449 1.591 . S
C1411 N161 1.799 . S
C1415 C409 1.795 . S
C1433 C439 1.850 . S
C1429 N174 1.804 . S
C1447 N187 1.190 . S
C1451 C369 1.180 . S
C1465 N122 1.040 . S
C1469 C479 1.050 . S
C1483 N135 1.977 . S
C1487 C519 2.015 . S
C1505 C569 1.597 . S
C1501 N148 1.578 . S
C1519 N5 1.799 . S
C1523 C529 1.795 . S
C1537 N18 1.804 . S
C1541 C559 1.850 . S
C1555 N31 1.186 . S
C1559 C489 1.186 . S
