# Generated by pormake.
# Topology zzz, (3,6)-cn, num edge types: 1
# Building blocks:
#     Node 0, Type 0, BuildingBlock: ESEHIV_clean_linker_0, # of connection points: 3
#     Node 1, Type 0, BuildingBlock: ESEHIV_clean_linker_0, # of connection points: 3
#     Node 2, Type 0, BuildingBlock: ESEHIV_clean_linker_0, # of connection points: 3
#     Node 3, Type 0, BuildingBlock: ESEHIV_clean_linker_0, # of connection points: 3
#     Node 4, Type 0, BuildingBlock: ESEHIV_clean_linker_0, # of connection points: 3
#     Node 5, Type 0, BuildingBlock: ESEHIV_clean_linker_0, # of connection points: 3
#     Node 6, Type 0, BuildingBlock: ESEHIV_clean_linker_0, # of connection points: 3
#     Node 7, Type 0, BuildingBlock: ESEHIV_clean_linker_0, # of connection points: 3
#     Node 8, Type 1, BuildingBlock: VOLQOD_clean_sbu_1, # of connection points: 6
#     Node 9, Type 1, BuildingBlock: VOLQOD_clean_sbu_1, # of connection points: 6
#     Node 10, Type 1, BuildingBlock: VOLQOD_clean_sbu_1, # of connection points: 6
#     Node 11, Type 1, BuildingBlock: VOLQOD_clean_sbu_1, # of connection points: 6
#     Edge 12, Type (0, 1), BuildingBlock: AJUNOK_clean_linker_0, # of connection points: 2
#     Edge 13, Type (0, 1), BuildingBlock: AJUNOK_clean_linker_0, # of connection points: 2
#     Edge 14, Type (0, 1), BuildingBlock: AJUNOK_clean_linker_0, # of connection points: 2
#     Edge 15, Type (0, 1), BuildingBlock: AJUNOK_clean_linker_0, # of connection points: 2
#     Edge 16, Type (0, 1), BuildingBlock: AJUNOK_clean_linker_0, # of connection points: 2
#     Edge 17, Type (0, 1), BuildingBlock: AJUNOK_clean_linker_0, # of connection points: 2
#     Edge 18, Type (0, 1), BuildingBlock: AJUNOK_clean_linker_0, # of connection points: 2
#     Edge 19, Type (0, 1), BuildingBlock: AJUNOK_clean_linker_0, # of connection points: 2
#     Edge 20, Type (0, 1), BuildingBlock: AJUNOK_clean_linker_0, # of connection points: 2
#     Edge 21, Type (0, 1), BuildingBlock: AJUNOK_clean_linker_0, # of connection points: 2
#     Edge 22, Type (0, 1), BuildingBlock: AJUNOK_clean_linker_0, # of connection points: 2
#     Edge 23, Type (0, 1), BuildingBlock: AJUNOK_clean_linker_0, # of connection points: 2
#     Edge 24, Type (0, 1), BuildingBlock: AJUNOK_clean_linker_0, # of connection points: 2
#     Edge 25, Type (0, 1), BuildingBlock: AJUNOK_clean_linker_0, # of connection points: 2
#     Edge 26, Type (0, 1), BuildingBlock: AJUNOK_clean_linker_0, # of connection points: 2
#     Edge 27, Type (0, 1), BuildingBlock: AJUNOK_clean_linker_0, # of connection points: 2
#     Edge 28, Type (0, 1), BuildingBlock: AJUNOK_clean_linker_0, # of connection points: 2
#     Edge 29, Type (0, 1), BuildingBlock: AJUNOK_clean_linker_0, # of connection points: 2
#     Edge 30, Type (0, 1), BuildingBlock: AJUNOK_clean_linker_0, # of connection points: 2
#     Edge 31, Type (0, 1), BuildingBlock: AJUNOK_clean_linker_0, # of connection points: 2
#     Edge 32, Type (0, 1), BuildingBlock: AJUNOK_clean_linker_0, # of connection points: 2
#     Edge 33, Type (0, 1), BuildingBlock: AJUNOK_clean_linker_0, # of connection points: 2
#     Edge 34, Type (0, 1), BuildingBlock: AJUNOK_clean_linker_0, # of connection points: 2
#     Edge 35, Type (0, 1), BuildingBlock: AJUNOK_clean_linker_0, # of connection points: 2
# Relax obj value: 0.358
# Max RMSD: 0.258
# Mean RMSD: 0.208
data_MOF--net-zzz--node1-VOLQOD_clean_sbu_1--node2-ESEHIV_clean_linker_0--edge1-AJUNOK_clean_linker_0
_symmetry_space_group_name_H-M    P1
_symmetry_Int_Tables_number       1
_symmetry_cell_setting            triclinic
loop_
_symmetry_equiv_pos_as_xyz
'x, y, z'
_cell_length_a     32.664882
_cell_length_b     32.199998
_cell_length_c     12.993698
_cell_angle_alpha  90.225097
_cell_angle_beta   89.99529
_cell_angle_gamma 92.29523
loop_
_atom_site_label
_atom_site_type_symbol
_atom_site_fract_x
_atom_site_fract_y
_atom_site_fract_z
_atom_type_partial_charge
H0 H 0.87668 0.5014 0.21091 0.0
H1 H 0.77773 0.47861 -0.00076 0.0
H2 H 0.75809 0.54891 0.27739 0.0
C3 C 0.84479 0.50472 0.18994 0.0
C4 C 0.81939 0.52701 0.25467 0.0
C5 C 0.83013 0.4872 0.09842 0.0
C6 C 0.78919 0.49192 0.071 0.0
C7 C 0.76312 0.51464 0.13392 0.0
C8 C 0.77814 0.53213 0.22708 0.0
H9 H 0.06519 0.84501 0.25231 0.0
H10 H 0.07337 0.77844 0.96759 0.0
H11 H 0.00686 0.72373 0.22284 0.0
C12 C 0.05937 0.81687 0.20754 0.0
C13 C 0.03418 0.78502 0.24885 0.0
C14 C 0.06925 0.81678 0.10302 0.0
C15 C 0.0639 0.77945 0.04745 0.0
C16 C 0.04408 0.74424 0.09242 0.0
C17 C 0.02687 0.74823 0.19183 0.0
H18 H 0.68929 0.05121 0.2587 0.0
H19 H 0.75173 0.06126 0.96815 0.0
H20 H 0.79433 0.97869 0.19948 0.0
C21 C 0.71381 0.0428 0.20747 0.0
C22 C 0.73991 0.0117 0.23808 0.0
C23 C 0.71459 0.05734 0.10621 0.0
C24 C 0.74925 0.04943 0.0459 0.0
C25 C 0.77988 0.02369 0.08227 0.0
C26 C 0.77358 1.00227 0.1758 0.0
H27 H 0.51033 0.65772 0.20233 0.0
H28 H 0.57667 0.77353 0.25708 0.0
H29 H 0.47661 0.76704 0.04059 0.0
C30 C 0.51391 0.69083 0.1883 0.0
C31 C 0.49026 0.70918 0.11223 0.0
C32 C 0.54421 0.7138 0.2429 0.0
C33 C 0.55185 0.75607 0.2194 0.0
C34 C 0.52775 0.77517 0.14435 0.0
C35 C 0.49553 0.75206 0.09666 0.0
H36 H 0.21128 0.54928 0.08061 0.0
H37 H 0.27645 0.55114 0.36749 0.0
H38 H 0.30938 0.46665 0.12783 0.0
C39 C 0.23642 0.53928 0.12789 0.0
C40 C 0.25896 0.50588 0.09373 0.0
C41 C 0.23939 0.55291 0.23004 0.0
C42 C 0.27291 0.5405 0.28889 0.0
C43 C 0.30051 0.51175 0.24978 0.0
C44 C 0.2919 0.49263 0.15357 0.0
H45 H 0.98724 0.17783 0.02258 0.0
H46 H 0.98626 0.24109 0.31378 0.0
H47 H 0.06564 0.28656 0.07172 0.0
C48 C 0.99754 0.20343 0.07195 0.0
C49 C 0.02895 0.23069 0.0372 0.0
C50 C 0.98337 0.2051 0.17309 0.0
C51 C 0.99615 0.23922 0.23444 0.0
C52 C 0.02383 0.27025 0.19684 0.0
C53 C 0.04206 0.26474 0.09921 0.0
H54 H 0.36412 0.9754 0.14036 0.0
H55 H 0.26942 0.96317 0.3679 0.0
H56 H 0.24881 0.03243 0.09037 0.0
C57 C 0.3331 0.98102 0.1654 0.0
C58 C 0.30797 0.00465 0.10336 0.0
C59 C 0.31967 0.96634 0.26086 0.0
C60 C 0.28005 0.97463 0.29377 0.0
C61 C 0.25461 0.99913 0.23442 0.0
C62 C 0.26833 0.01382 0.13748 0.0
H63 H 0.53118 0.34673 0.19026 0.0
H64 H 0.4771 0.22601 0.12017 0.0
H65 H 0.57183 0.23948 0.34994 0.0
C66 C 0.52981 0.31343 0.20296 0.0
C67 C 0.55448 0.29634 0.27874 0.0
C68 C 0.50282 0.28849 0.14328 0.0
C69 C 0.49884 0.24548 0.16331 0.0
C70 C 0.52336 0.22805 0.24026 0.0
C71 C 0.55234 0.25334 0.29318 0.0
O72 O 0.10704 0.02055 0.55907 0.0
Zn73 Zn 0.06621 0.02248 0.67773 0.0
O74 O 0.00967 0.00868 0.62728 0.0
Zn75 Zn 0.9755 0.05585 0.65095 0.0
Zn76 Zn 0.01075 0.995 0.4812 0.0
Zn77 Zn 0.98366 0.96104 0.69774 0.0
O78 O 0.93028 0.04243 0.75235 0.0
O79 O 0.93202 0.97455 0.77806 0.0
O80 O 0.07057 0.08125 0.74083 0.0
O81 O 0.00841 0.10378 0.71122 0.0
O82 O 0.95271 0.07689 0.51907 0.0
O83 O 0.97692 0.03417 0.40165 0.0
O84 O 0.99267 0.9354 0.4532 0.0
O85 O 0.08203 0.98069 0.78801 0.0
O86 O 0.97619 0.90983 0.60676 0.0
O87 O 0.02282 0.94423 0.80152 0.0
C88 C 0.10326 0.01182 0.46347 0.0
C89 C 0.91636 0.0095 0.79618 0.0
C90 C 0.95639 0.0656 0.42571 0.0
C91 C 0.04476 0.11 0.74458 0.0
C92 C 0.98097 0.90513 0.51026 0.0
C93 C 0.0595 0.95215 0.82957 0.0
O94 O 0.06838 1.00171 0.42502 0.0
O95 O 0.50754 0.08571 0.57822 0.0
Zn96 Zn 0.50985 0.04908 0.7064 0.0
O97 O 0.52786 0.99281 0.66698 0.0
Zn98 Zn 0.48685 0.95187 0.71254 0.0
Zn99 Zn 0.53412 0.98839 0.51885 0.0
Zn100 Zn 0.58005 0.97873 0.72753 0.0
O101 O 0.50819 0.91488 0.82111 0.0
O102 O 0.57454 0.93171 0.83356 0.0
O103 O 0.45313 0.04706 0.77682 0.0
O104 O 0.44023 0.97908 0.77956 0.0
O105 O 0.46015 0.92081 0.59531 0.0
O106 O 0.48606 0.95565 0.46179 0.0
O107 O 0.58868 0.96657 0.47512 0.0
O108 O 0.55118 0.07494 0.80877 0.0
O109 O 0.62388 0.96796 0.6212 0.0
O110 O 0.59948 0.02793 0.80609 0.0
C111 C 0.51818 0.07972 0.48484 0.0
C112 C 0.54287 0.91059 0.86335 0.0
C113 C 0.45955 0.93023 0.50035 0.0
C114 C 0.42964 0.01575 0.7993 0.0
C115 C 0.62215 0.96277 0.52402 0.0
C116 C 0.58631 0.06267 0.83519 0.0
O117 O 0.53074 0.04483 0.45437 0.0
O118 O 0.4345 0.4902 0.61825 0.0
Zn119 Zn 0.47217 0.49433 0.74454 0.0
O120 O 0.53035 0.5036 0.69916 0.0
Zn121 Zn 0.56293 0.45966 0.75268 0.0
Zn122 Zn 0.53375 0.50401 0.5495 0.0
Zn123 Zn 0.5556 0.55589 0.74889 0.0
O124 O 0.60404 0.48007 0.85768 0.0
O125 O 0.60167 0.54866 0.85361 0.0
O126 O 0.46426 0.44021 0.82951 0.0
O127 O 0.52714 0.41668 0.82095 0.0
O128 O 0.59077 0.42888 0.64132 0.0
O129 O 0.56572 0.45631 0.49939 0.0
O130 O 0.55892 0.55761 0.49511 0.0
O131 O 0.45433 0.54471 0.82812 0.0
O132 O 0.57364 0.59531 0.63431 0.0
O133 O 0.51156 0.58464 0.81824 0.0
C134 C 0.44102 0.49263 0.5214 0.0
C135 C 0.61629 0.51571 0.89046 0.0
C136 C 0.58713 0.42955 0.54402 0.0
C137 C 0.48987 0.41218 0.84807 0.0
C138 C 0.5727 0.59117 0.53681 0.0
C139 C 0.47434 0.57892 0.84489 0.0
O140 O 0.4773 0.49795 0.48659 0.0
O141 O 0.97255 0.55725 0.55709 0.0
Zn142 Zn 0.02954 0.55502 0.62448 0.0
O143 O 0.04089 0.49812 0.67409 0.0
Zn144 Zn 0.04694 0.49886 0.82334 0.0
Zn145 Zn 0.99559 0.46044 0.63662 0.0
Zn146 Zn 0.09001 0.47537 0.61328 0.0
O147 O 0.1007 0.47511 0.86843 0.0
O148 O 0.13335 0.46448 0.72102 0.0
O149 O 0.0312 0.59637 0.74365 0.0
O150 O 0.0465 0.5578 0.8781 0.0
O151 O 0.99717 0.4709 0.88777 0.0
O152 O 0.96643 0.43684 0.75858 0.0
O153 O 0.01127 0.41623 0.53733 0.0
O154 O 0.07356 0.57365 0.5212 0.0
O155 O 0.0784 0.42464 0.51833 0.0
O156 O 0.114 0.51939 0.52426 0.0
C157 C 0.94526 0.52829 0.5428 0.0
C158 C 0.13262 0.46492 0.81914 0.0
C159 C 0.96803 0.44752 0.85273 0.0
C160 C 0.03878 0.59296 0.83953 0.0
C161 C 0.0445 0.40573 0.49532 0.0
C162 C 0.10583 0.55555 0.49355 0.0
O163 O 0.95185 0.49111 0.56789 0.0
C164 C 0.21302 0.03178 0.37141 0.0
C165 C 0.21438 0.00912 0.27877 0.0
C166 C 0.17673 0.03356 0.42887 0.0
C167 C 0.14035 0.01249 0.39628 0.0
H168 H 0.24077 0.04676 0.40193 0.0
H169 H 0.17755 0.05068 0.50081 0.0
S170 S 0.12871 0.94842 0.15908 0.0
N171 N 0.17695 0.96548 0.15661 0.0
N172 N 0.10839 0.96847 0.26347 0.0
C173 C 0.14117 0.99077 0.30168 0.0
C174 C 0.17825 0.98916 0.2433 0.0
C175 C 0.48365 0.1752 0.34243 0.0
C176 C 0.51717 0.18488 0.27763 0.0
C177 C 0.4837 0.14059 0.40811 0.0
C178 C 0.51702 0.11423 0.40999 0.0
H179 H 0.45865 0.19622 0.34795 0.0
H180 H 0.45801 0.13505 0.45968 0.0
S181 S 0.61197 0.12628 0.25501 0.0
N182 N 0.58415 0.16532 0.21876 0.0
N183 N 0.58394 0.09977 0.33984 0.0
C184 C 0.54974 0.12245 0.34179 0.0
C185 C 0.54987 0.15788 0.27611 0.0
C186 C 0.33134 0.49272 0.42012 0.0
C187 C 0.33635 0.50043 0.31404 0.0
C188 C 0.36515 0.48866 0.4856 0.0
C189 C 0.40561 0.49204 0.44808 0.0
H190 H 0.30095 0.49089 0.45358 0.0
H191 H 0.35939 0.48406 0.56693 0.0
S192 S 0.43532 0.50844 0.17433 0.0
N193 N 0.38479 0.50874 0.17329 0.0
N194 N 0.44835 0.50045 0.29512 0.0
C195 C 0.41095 0.49748 0.3409 0.0
C196 C 0.37639 0.50173 0.27432 0.0
C197 C 0.99833 0.32871 0.30106 0.0
C198 C 0.03203 0.30777 0.26249 0.0
C199 C 1.00314 0.36024 0.37484 0.0
C200 C 0.04199 0.37266 0.41406 0.0
H201 H 0.96759 0.31991 0.27555 0.0
H202 H 0.97574 0.37471 0.40189 0.0
S203 S 0.1407 0.32877 0.33493 0.0
N204 N 0.10594 0.30228 0.26612 0.0
N205 N 0.11534 0.36227 0.40458 0.0
C206 C 0.07635 0.353 0.37339 0.0
C207 C 0.07131 0.32049 0.2977 0.0
C208 C 0.82601 0.98049 0.97312 0.0
C209 C 0.81712 0.01884 0.01836 0.0
C210 C 0.85839 0.97743 0.90207 0.0
C211 C 0.88283 0.01268 0.87353 0.0
H212 H 0.80703 0.95303 0.99024 0.0
H213 H 0.86369 0.94745 0.86755 0.0
S214 S 0.87486 0.11915 0.98195 0.0
N215 N 0.83719 0.09178 0.03722 0.0
N216 N 0.89785 0.0864 0.90523 0.0
C217 C 0.87504 0.05082 0.92213 0.0
C218 C 0.84227 0.05379 0.99406 0.0
C219 C 0.50694 0.84507 0.08914 0.0
C220 C 0.53832 0.81686 0.10101 0.0
C221 C 0.50995 0.87673 0.01578 0.0
C222 C 0.54469 0.88188 0.95218 0.0
H223 H 0.47838 0.8404 0.13074 0.0
H224 H 0.48389 0.89608 0.00536 0.0
S225 S 0.63831 0.82088 0.96535 0.0
N226 N 0.60733 0.79921 0.0521 0.0
N227 N 0.61349 0.85984 0.91596 0.0
C228 C 0.57812 0.85684 0.97087 0.0
C229 C 0.57484 0.82408 0.04512 0.0
C230 C 0.71019 0.55458 0.04245 0.0
C231 C 0.72056 0.51906 0.09782 0.0
C232 C 0.67493 0.55431 0.98003 0.0
C233 C 0.64928 0.51824 0.96979 0.0
H234 H 0.7309 0.58171 0.04186 0.0
H235 H 0.66921 0.58164 0.93475 0.0
S236 S 0.66092 0.41909 0.11029 0.0
N237 N 0.70079 0.44864 0.14683 0.0
N238 N 0.63462 0.44773 0.03086 0.0
C239 C 0.65801 0.48361 0.03106 0.0
C240 C 0.69364 0.48411 0.09462 0.0
C241 C 0.02942 0.70555 0.92653 0.0
C242 C 0.03946 0.70469 0.032 0.0
C243 C 0.02895 0.66941 0.8657 0.0
C244 C 0.03833 0.63058 0.90742 0.0
H245 H 0.0221 0.73451 0.89016 0.0
H246 H 0.02147 0.67215 0.78485 0.0
S247 S 0.06445 0.61111 0.18115 0.0
N248 N 0.05778 0.66157 0.17633 0.0
N249 N 0.05615 0.59347 0.06326 0.0
C250 C 0.04717 0.62908 0.01374 0.0
C251 C 0.04778 0.66604 0.07557 0.0
C252 C 0.97689 0.12784 0.19023 0.0
C253 C 0.96312 0.1672 0.2193 0.0
C254 C 0.96852 0.09276 0.25016 0.0
C255 C 0.94749 0.09584 0.34398 0.0
H256 H 0.99784 0.12427 0.1266 0.0
H257 H 0.98311 0.06437 0.22858 0.0
S258 S 0.89224 0.18749 0.43518 0.0
N259 N 0.91694 0.20402 0.33126 0.0
N260 N 0.90353 0.13826 0.44878 0.0
C261 C 0.9282 0.13319 0.36585 0.0
C262 C 0.93578 0.16891 0.30277 0.0
C263 C 0.3773 0.91921 0.29766 0.0
C264 C 0.3497 0.9489 0.33212 0.0
C265 C 0.41199 0.91006 0.356 0.0
C266 C 0.41926 0.92968 0.45113 0.0
H267 H 0.37333 0.9049 0.22254 0.0
H268 H 0.43417 0.88938 0.32438 0.0
S269 S 0.35808 0.01132 0.57183 0.0
N270 N 0.33311 0.99856 0.46545 0.0
N271 N 0.39729 0.98064 0.57547 0.0
C272 C 0.39102 0.95796 0.488 0.0
C273 C 0.35633 0.96766 0.42853 0.0
C274 C 0.59575 0.36206 0.3128 0.0
C275 C 0.57792 0.32452 0.35024 0.0
C276 C 0.6044 0.39564 0.37889 0.0
C277 C 0.59686 0.39218 0.48489 0.0
H278 H 0.59919 0.36687 0.23082 0.0
H279 H 0.61327 0.42551 0.34577 0.0
S280 S 0.56113 0.29744 0.62535 0.0
N281 N 0.55988 0.28388 0.50289 0.0
N282 N 0.57922 0.34598 0.62722 0.0
C283 C 0.58573 0.35285 0.52516 0.0
C284 C 0.57545 0.31911 0.45767 0.0
C285 C 0.16346 0.55 0.25303 0.0
C286 C 0.20189 0.56847 0.28115 0.0
C287 C 0.1295 0.55212 0.3172 0.0
C288 C 0.13235 0.57246 0.41223 0.0
H289 H 0.16011 0.52961 0.18694 0.0
H290 H 0.1022 0.53342 0.29778 0.0
S291 S 0.22156 0.63463 0.51183 0.0
N292 N 0.2376 0.61563 0.40126 0.0
N293 N 0.17358 0.61723 0.52522 0.0
C294 C 0.16856 0.59524 0.43641 0.0
C295 C 0.20337 0.5938 0.36994 0.0
C296 C 0.10252 0.86146 0.96456 0.0
C297 C 0.07515 0.85715 0.04816 0.0
C298 C 0.10163 0.89603 0.89881 0.0
C299 C 0.07367 0.92737 0.91572 0.0
H300 H 0.12297 0.83684 0.94624 0.0
H301 H 0.12024 0.89638 0.82977 0.0
S302 S 0.99882 0.93411 0.12819 0.0
N303 N 0.0209 0.88957 0.14624 0.0
N304 N 0.02145 0.95478 0.0261 0.0
C305 C 0.0489 0.92535 0.0035 0.0
C306 C 0.04895 0.89012 0.06879 0.0
C307 C 0.67895 0.09954 0.97225 0.0
C308 C 0.67638 0.07246 0.05742 0.0
C309 C 0.64578 0.10304 0.90451 0.0
C310 C 0.60843 0.08128 0.92275 0.0
H311 H 0.70783 0.11509 0.95213 0.0
H312 H 0.65081 0.11904 0.83213 0.0
S313 S 0.5816 0.01376 0.1437 0.0
N314 N 0.63039 0.02711 0.16031 0.0
N315 N 0.56765 0.03883 0.03992 0.0
C316 C 0.60319 0.06012 0.01583 0.0
C317 C 0.63736 0.05406 0.08126 0.0
C318 C 0.44941 0.6434 0.06998 0.0
C319 C 0.46726 0.68182 0.03705 0.0
C320 C 0.44453 0.60967 0.00166 0.0
C321 C 0.45626 0.61398 0.89848 0.0
H322 H 0.44367 0.63787 0.15099 0.0
H323 H 0.43655 0.57923 0.03221 0.0
S324 S 0.49019 0.7106 0.76517 0.0
N325 N 0.4871 0.72391 0.88753 0.0
N326 N 0.4749 0.66121 0.76016 0.0
C327 C 0.46584 0.65393 0.86089 0.0
C328 C 0.47218 0.68789 0.9301 0.0
C329 C 0.8882 0.44063 0.06271 0.0
C330 C 0.85964 0.469 0.02683 0.0
C331 C 0.92262 0.43112 0.00366 0.0
C332 C 0.92877 0.44913 0.90661 0.0
H333 H 0.88511 0.42766 0.13926 0.0
H334 H 0.94529 0.41119 0.03568 0.0
S335 S 0.86448 0.52673 0.78118 0.0
N336 N 0.84061 0.51546 0.88991 0.0
N337 N 0.90461 0.49719 0.77858 0.0
C338 C 0.89965 0.47618 0.86859 0.0
C339 C 0.86507 0.48609 0.92865 0.0
C340 C 0.02796 0.21727 0.85061 0.0
C341 C 0.0502 0.21696 0.94315 0.0
C342 C 0.02988 0.1843 0.78001 0.0
C343 C 0.0544 0.15005 0.79899 0.0
H344 H 1.00465 0.23986 0.83976 0.0
H345 H 0.00902 0.1838 0.71516 0.0
S346 S 0.12646 0.14039 0.01725 0.0
N347 N 0.10351 0.18429 0.03992 0.0
N348 N 0.10761 0.12247 0.90701 0.0
C349 C 0.08156 0.15282 0.88297 0.0
C350 C 0.07955 0.18651 0.95478 0.0
C351 C 0.35476 0.05125 0.00163 0.0
C352 C 0.32548 0.01791 0.00335 0.0
C353 C 0.38652 0.05285 0.92826 0.0
C354 C 0.39051 0.02055 0.85608 0.0
H355 H 0.35559 0.07385 0.06368 0.0
H356 H 0.41015 0.0773 0.93467 0.0
S357 S 0.31767 0.92991 0.81981 0.0
N358 N 0.29903 0.95544 0.91854 0.0
N359 N 0.35903 0.95708 0.78335 0.0
C360 C 0.35901 0.98926 0.85138 0.0
C361 C 0.32632 0.98838 0.92417 0.0
C362 C 0.50054 0.30524 0.95817 0.0
C363 C 0.48276 0.30911 0.05586 0.0
C364 C 0.49864 0.33735 0.88589 0.0
C365 C 0.47855 0.3743 0.90823 0.0
H366 H 0.52019 0.27966 0.94206 0.0
H367 H 0.51617 0.33481 0.81554 0.0
S368 S 0.41944 0.39527 0.14476 0.0
N369 N 0.43873 0.34935 0.165 0.0
N370 N 0.4346 0.40953 0.02833 0.0
C371 C 0.45602 0.37604 7e-05 0.0
C372 C 0.45823 0.34339 0.0741 0.0
C373 C 0.23978 0.49327 0.91046 0.0
C374 C 0.23864 0.47971 0.01317 0.0
C375 C 0.20697 0.48384 0.84302 0.0
C376 C 0.17145 0.46169 0.87728 0.0
H377 H 0.26403 0.51484 0.88541 0.0
H378 H 0.20758 0.49787 0.76733 0.0
S379 S 0.15619 0.41432 0.13444 0.0
N380 N 0.20185 0.43814 0.14118 0.0
N381 N 0.1396 0.42197 0.01621 0.0
C382 C 0.17182 0.44459 0.97646 0.0
C383 C 0.20569 0.45309 0.04378 0.0
C384 C 0.02646 0.805 0.43223 0.0
C385 C 0.00804 0.79759 0.33571 0.0
C386 C 0.01331 0.83694 0.4969 0.0
C387 C 0.98201 0.86295 0.46569 0.0
H388 H 0.05425 0.78958 0.45204 0.0
H389 H 0.031 0.84447 0.5655 0.0
S390 S 0.91911 0.85119 0.22984 0.0
N391 N 0.95233 0.81397 0.22106 0.0
N392 N 0.92907 0.87527 0.34008 0.0
C393 C 0.96036 0.85271 0.37544 0.0
C394 C 0.97285 0.8194 0.31141 0.0
C395 C 0.72553 0.99877 0.42307 0.0
C396 C 0.72395 0.98422 0.32101 0.0
C397 C 0.69467 0.9871 0.49392 0.0
C398 C 0.66068 0.9615 0.4638 0.0
H399 H 0.74806 0.02281 0.44489 0.0
H400 H 0.69511 1.00208 0.56874 0.0
S401 S 0.64641 0.90959 0.2105 0.0
N402 N 0.68953 0.93775 0.19838 0.0
N403 N 0.63082 0.91701 0.32989 0.0
C404 C 0.66134 0.94315 0.36559 0.0
C405 C 0.6933 0.95413 0.29468 0.0
C406 C 0.55831 0.69772 0.42656 0.0
C407 C 0.5673 0.69133 0.32203 0.0
C408 C 0.56487 0.66656 0.49968 0.0
C409 C 0.58002 0.62792 0.46991 0.0
H410 H 0.54225 0.72497 0.4501 0.0
H411 H 0.55397 0.67117 0.5775 0.0
S412 S 0.61653 0.59985 0.20956 0.0
N413 N 0.59886 0.64688 0.19592 0.0
N414 N 0.61034 0.58808 0.33237 0.0
C415 C 0.59352 0.6233 0.36798 0.0
C416 C 0.58744 0.65516 0.29427 0.0
C417 C 0.86946 0.57105 0.35305 0.0
C418 C 0.83767 0.54014 0.354 0.0
C419 C 0.90282 0.56945 0.42123 0.0
C420 C 0.90573 0.53639 0.49101 0.0
H421 H 0.87095 0.59369 0.29154 0.0
H422 H 0.92816 0.59189 0.41223 0.0
S423 S 0.82619 0.45241 0.53569 0.0
N424 N 0.80765 0.48009 0.44113 0.0
N425 N 0.87051 0.47558 0.56642 0.0
C426 C 0.87175 0.50806 0.49985 0.0
C427 C 0.83749 0.51055 0.43253 0.0
loop_
_geom_bond_atom_site_label_1
_geom_bond_atom_site_label_2
_geom_bond_distance
_geom_bond_site_symmetry_2
_ccdc_geom_bond_type
H0 C3 0.931 . S
H1 C6 0.928 . S
H2 C8 0.930 . S
C3 H0 0.931 . S
C3 C4 1.413 . S
C3 C5 1.360 1_554 S
C4 C3 1.413 . S
C4 C8 1.429 . S
C5 C3 1.360 1_556 S
C5 C6 1.372 . S
C6 H1 0.928 . S
C6 C5 1.372 . S
C6 C7 1.404 1_556 S
C7 C6 1.404 1_554 S
C7 C8 1.391 . S
C8 H2 0.930 . S
C8 C4 1.429 . S
C8 C7 1.391 . S
H9 C12 0.931 . S
H10 C15 0.935 . S
H11 C17 0.930 . S
C12 H9 0.931 . S
C12 C13 1.413 . S
C12 C14 1.360 . S
C13 C12 1.413 . S
C13 C17 1.429 . S
C14 C12 1.360 . S
C14 C15 1.370 1_554 S
C15 H10 0.935 . S
C15 C14 1.370 1_556 S
C15 C16 1.399 1_556 S
C16 C15 1.399 1_554 S
C16 C17 1.391 . S
C17 H11 0.930 . S
C17 C13 1.429 . S
C17 C16 1.391 . S
H18 C21 0.931 . S
H19 C24 0.928 . S
H20 C26 0.931 . S
C21 H18 0.931 . S
C21 C22 1.413 . S
C21 C23 1.360 1_554 S
C22 C21 1.413 . S
C22 C26 1.429 1_565 S
C23 C21 1.360 1_556 S
C23 C24 1.373 . S
C24 H19 0.928 . S
C24 C23 1.373 . S
C24 C25 1.404 1_556 S
C25 C24 1.404 1_554 S
C25 C26 1.390 1_565 S
C26 H20 0.931 . S
C26 C22 1.429 1_545 S
C26 C25 1.390 1_545 S
H27 C30 0.931 . S
H28 C33 0.928 . S
H29 C35 0.930 . S
C30 H27 0.931 . S
C30 C31 1.413 1_554 S
C30 C32 1.360 . S
C31 C30 1.413 1_556 S
C31 C35 1.429 . S
C32 C30 1.360 . S
C32 C33 1.372 . S
C33 H28 0.928 . S
C33 C32 1.372 . S
C33 C34 1.404 . S
C34 C33 1.404 . S
C34 C35 1.391 1_554 S
C35 H29 0.930 . S
C35 C31 1.429 . S
C35 C34 1.391 1_556 S
H36 C39 0.931 . S
H37 C42 0.928 . S
H38 C44 0.930 . S
C39 H36 0.931 . S
C39 C40 1.413 . S
C39 C41 1.360 . S
C40 C39 1.413 . S
C40 C44 1.429 . S
C41 C39 1.360 . S
C41 C42 1.372 . S
C42 H37 0.928 . S
C42 C41 1.372 . S
C42 C43 1.404 . S
C43 C42 1.404 . S
C43 C44 1.391 . S
C44 H38 0.930 . S
C44 C40 1.429 . S
C44 C43 1.391 . S
H45 C48 0.931 . S
H46 C51 0.928 . S
H47 C53 0.930 . S
C48 H45 0.931 . S
C48 C49 1.413 . S
C48 C50 1.360 . S
C49 C48 1.413 . S
C49 C53 1.429 . S
C50 C48 1.360 . S
C50 C51 1.372 . S
C51 H46 0.928 . S
C51 C50 1.372 . S
C51 C52 1.404 . S
C52 C51 1.404 . S
C52 C53 1.391 . S
C53 H47 0.930 . S
C53 C49 1.429 . S
C53 C52 1.391 . S
H54 C57 0.931 . S
H55 C60 0.928 . S
H56 C62 0.930 . S
C57 H54 0.931 . S
C57 C58 1.413 . S
C57 C59 1.360 . S
C58 C57 1.413 . S
C58 C62 1.429 1_565 S
C59 C57 1.360 . S
C59 C60 1.372 . S
C60 H55 0.928 . S
C60 C59 1.372 . S
C60 C61 1.405 . S
C61 C60 1.405 . S
C61 C62 1.391 1_565 S
C62 H56 0.930 . S
C62 C58 1.429 1_545 S
C62 C61 1.391 1_545 S
H63 C66 0.931 . S
H64 C69 0.928 . S
H65 C71 0.930 . S
C66 H63 0.931 . S
C66 C67 1.413 . S
C66 C68 1.360 . S
C67 C66 1.413 . S
C67 C71 1.429 . S
C68 C66 1.360 . S
C68 C69 1.372 . S
C69 H64 0.928 . S
C69 C68 1.372 . S
C69 C70 1.404 . S
C70 C69 1.404 . S
C70 C71 1.391 . S
C71 H65 0.930 . S
C71 C67 1.429 . S
C71 C70 1.391 . S
O72 Zn73 1.953 . S
O72 C88 1.225 . S
Zn73 O72 1.953 . S
Zn73 O74 1.950 . S
Zn73 O80 1.919 1_565 S
Zn73 O85 1.924 . S
O74 Zn73 1.950 . S
O74 Zn75 1.898 1_565 S
O74 Zn76 1.953 . S
O74 Zn77 1.966 1_455 S
Zn75 O74 1.898 1_545 S
Zn75 O78 1.933 1_455 S
Zn75 O81 1.941 . S
Zn75 O82 1.965 . S
Zn76 O74 1.953 . S
Zn76 O83 1.938 1_565 S
Zn76 O84 1.906 . S
Zn76 O94 1.953 . S
Zn77 O74 1.966 1_655 S
Zn77 O79 1.932 . S
Zn77 O86 1.977 . S
Zn77 O87 1.910 1_655 S
O78 Zn75 1.933 1_655 S
O78 C89 1.226 . S
O79 Zn77 1.932 . S
O79 C89 1.307 1_565 S
O80 Zn73 1.919 1_545 S
O80 C91 1.253 . S
O81 Zn75 1.941 . S
O81 C91 1.283 . S
O82 Zn75 1.965 . S
O82 C90 1.303 . S
O83 Zn76 1.938 1_545 S
O83 C90 1.247 . S
O84 Zn76 1.906 . S
O84 C92 1.304 1_455 S
O85 Zn73 1.924 . S
O85 C93 1.311 . S
O86 Zn77 1.977 . S
O86 C92 1.272 . S
O87 Zn77 1.910 1_455 S
O87 C93 1.231 . S
C88 O72 1.225 . S
C88 O94 1.298 . S
C89 O78 1.226 . S
C89 O79 1.307 1_545 S
C90 O82 1.303 . S
C90 O83 1.247 . S
C91 O80 1.253 . S
C91 O81 1.283 . S
C92 O84 1.304 1_655 S
C92 O86 1.272 . S
C93 O85 1.311 . S
C93 O87 1.231 . S
O94 Zn76 1.953 . S
O94 C88 1.298 . S
O95 Zn96 1.953 . S
O95 C111 1.225 . S
Zn96 O95 1.953 . S
Zn96 O97 1.949 . S
Zn96 O103 1.919 . S
Zn96 O108 1.924 . S
O97 Zn96 1.949 . S
O97 Zn98 1.923 1_545 S
O97 Zn99 1.950 . S
O97 Zn100 1.945 1_545 S
Zn98 O97 1.923 1_565 S
Zn98 O101 1.933 . S
Zn98 O104 1.941 . S
Zn98 O105 1.965 . S
Zn99 O97 1.950 . S
Zn99 O106 1.938 . S
Zn99 O107 1.906 1_545 S
Zn99 O117 1.953 . S
Zn100 O97 1.945 1_565 S
Zn100 O102 1.932 . S
Zn100 O109 1.977 . S
Zn100 O110 1.910 1_565 S
O101 Zn98 1.933 . S
O101 C112 1.226 . S
O102 Zn100 1.932 . S
O102 C112 1.307 . S
O103 Zn96 1.919 . S
O103 C114 1.253 . S
O104 Zn98 1.941 . S
O104 C114 1.283 1_565 S
O105 Zn98 1.965 . S
O105 C113 1.303 . S
O106 Zn99 1.938 . S
O106 C113 1.247 1_545 S
O107 Zn99 1.906 1_565 S
O107 C115 1.304 . S
O108 Zn96 1.924 . S
O108 C116 1.311 . S
O109 Zn100 1.977 . S
O109 C115 1.272 . S
O110 Zn100 1.910 1_545 S
O110 C116 1.231 . S
C111 O95 1.225 . S
C111 O117 1.298 . S
C112 O101 1.226 . S
C112 O102 1.307 . S
C113 O105 1.303 . S
C113 O106 1.247 1_565 S
C114 O103 1.253 . S
C114 O104 1.283 1_545 S
C115 O107 1.304 . S
C115 O109 1.272 . S
C116 O108 1.311 . S
C116 O110 1.231 . S
O117 Zn99 1.953 . S
O117 C111 1.298 . S
O118 Zn119 1.953 . S
O118 C134 1.225 . S
Zn119 O118 1.953 . S
Zn119 O120 1.949 . S
Zn119 O126 1.919 . S
Zn119 O131 1.924 . S
O120 Zn119 1.949 . S
O120 Zn121 1.923 . S
O120 Zn122 1.950 . S
O120 Zn123 1.945 . S
Zn121 O120 1.923 . S
Zn121 O124 1.933 . S
Zn121 O127 1.941 . S
Zn121 O128 1.965 . S
Zn122 O120 1.950 . S
Zn122 O129 1.938 . S
Zn122 O130 1.906 . S
Zn122 O140 1.953 . S
Zn123 O120 1.945 . S
Zn123 O125 1.932 . S
Zn123 O132 1.977 . S
Zn123 O133 1.910 . S
O124 Zn121 1.933 . S
O124 C135 1.226 . S
O125 Zn123 1.932 . S
O125 C135 1.307 . S
O126 Zn119 1.919 . S
O126 C137 1.253 . S
O127 Zn121 1.941 . S
O127 C137 1.283 . S
O128 Zn121 1.965 . S
O128 C136 1.303 . S
O129 Zn122 1.938 . S
O129 C136 1.247 . S
O130 Zn122 1.906 . S
O130 C138 1.304 . S
O131 Zn119 1.924 . S
O131 C139 1.311 . S
O132 Zn123 1.977 . S
O132 C138 1.272 . S
O133 Zn123 1.910 . S
O133 C139 1.231 . S
C134 O118 1.225 . S
C134 O140 1.298 . S
C135 O124 1.226 . S
C135 O125 1.307 . S
C136 O128 1.303 . S
C136 O129 1.247 . S
C137 O126 1.253 . S
C137 O127 1.283 . S
C138 O130 1.304 . S
C138 O132 1.272 . S
C139 O131 1.311 . S
C139 O133 1.231 . S
O140 Zn122 1.953 . S
O140 C134 1.298 . S
O141 Zn142 1.953 1_655 S
O141 C157 1.225 . S
Zn142 O141 1.953 1_455 S
Zn142 O143 1.949 . S
Zn142 O149 1.919 . S
Zn142 O154 1.924 . S
O143 Zn142 1.949 . S
O143 Zn144 1.923 . S
O143 Zn145 1.950 1_455 S
O143 Zn146 1.945 . S
Zn144 O143 1.923 . S
Zn144 O147 1.933 . S
Zn144 O150 1.941 1_455 S
Zn144 O151 1.965 1_455 S
Zn145 O143 1.950 1_655 S
Zn145 O152 1.938 . S
Zn145 O153 1.906 . S
Zn145 O163 1.953 . S
Zn146 O143 1.945 . S
Zn146 O148 1.932 . S
Zn146 O155 1.977 . S
Zn146 O156 1.910 . S
O147 Zn144 1.933 . S
O147 C158 1.226 . S
O148 Zn146 1.932 . S
O148 C158 1.307 . S
O149 Zn142 1.919 . S
O149 C160 1.253 . S
O150 Zn144 1.941 1_655 S
O150 C160 1.283 1_655 S
O151 Zn144 1.965 1_655 S
O151 C159 1.303 . S
O152 Zn145 1.938 . S
O152 C159 1.247 . S
O153 Zn145 1.906 . S
O153 C161 1.304 1_655 S
O154 Zn142 1.924 . S
O154 C162 1.311 . S
O155 Zn146 1.977 . S
O155 C161 1.272 . S
O156 Zn146 1.910 . S
O156 C162 1.231 . S
C157 O141 1.225 . S
C157 O163 1.298 . S
C158 O147 1.226 . S
C158 O148 1.307 . S
C159 O151 1.303 . S
C159 O152 1.247 . S
C160 O149 1.253 . S
C160 O150 1.283 1_455 S
C161 O153 1.304 1_455 S
C161 O155 1.272 . S
C162 O154 1.311 . S
C162 O156 1.231 . S
O163 Zn145 1.953 . S
O163 C157 1.298 . S
C164 C165 1.369 1_545 S
C164 C166 1.419 . S
C164 H168 0.930 . S
C165 C164 1.369 1_565 S
C165 C174 1.429 . S
C166 C164 1.419 . S
C166 C167 1.363 1_545 S
C166 H169 0.929 . S
C167 C166 1.363 1_565 S
C167 C173 1.428 . S
H168 C164 0.930 . S
H169 C166 0.929 . S
S170 N171 1.613 . S
S170 N172 1.610 . S
N171 S170 1.613 . S
N171 C174 1.350 . S
N172 S170 1.610 . S
N172 C173 1.351 . S
C173 C167 1.428 . S
C173 N172 1.351 . S
C173 C174 1.434 . S
C174 C165 1.429 . S
C174 N171 1.350 . S
C174 C173 1.434 . S
C175 C176 1.369 . S
C175 C177 1.419 . S
C175 H179 0.930 . S
C176 C175 1.369 . S
C176 C185 1.429 . S
C177 C175 1.419 . S
C177 C178 1.363 . S
C177 H180 0.929 . S
C178 C177 1.363 . S
C178 C184 1.428 . S
H179 C175 0.930 . S
H180 C177 0.929 . S
S181 N182 1.613 . S
S181 N183 1.610 . S
N182 S181 1.613 . S
N182 C185 1.350 . S
N183 S181 1.610 . S
N183 C184 1.351 . S
C184 C178 1.428 . S
C184 N183 1.351 . S
C184 C185 1.434 . S
C185 C176 1.429 . S
C185 N182 1.350 . S
C185 C184 1.434 . S
C186 C187 1.369 . S
C186 C188 1.419 . S
C186 H190 0.930 . S
C187 C186 1.369 . S
C187 C196 1.429 . S
C188 C186 1.419 . S
C188 C189 1.363 . S
C188 H191 0.929 . S
C189 C188 1.363 . S
C189 C195 1.428 . S
H190 C186 0.930 . S
H191 C188 0.929 . S
S192 N193 1.613 . S
S192 N194 1.610 . S
N193 S192 1.613 . S
N193 C196 1.350 . S
N194 S192 1.610 . S
N194 C195 1.351 . S
C195 C189 1.428 . S
C195 N194 1.351 . S
C195 C196 1.434 . S
C196 C187 1.429 . S
C196 N193 1.350 . S
C196 C195 1.434 . S
C197 C198 1.369 . S
C197 C199 1.419 . S
C197 H201 0.930 . S
C198 C197 1.369 . S
C198 C207 1.429 . S
C199 C197 1.419 . S
C199 C200 1.363 . S
C199 H202 0.929 . S
C200 C199 1.363 . S
C200 C206 1.428 . S
H201 C197 0.930 . S
H202 C199 0.929 . S
S203 N204 1.613 . S
S203 N205 1.610 . S
N204 S203 1.613 . S
N204 C207 1.350 . S
N205 S203 1.610 . S
N205 C206 1.351 . S
C206 C200 1.428 . S
C206 N205 1.351 . S
C206 C207 1.434 . S
C207 C198 1.429 . S
C207 N204 1.350 . S
C207 C206 1.434 . S
C208 C209 1.369 1_565 S
C208 C210 1.419 . S
C208 H212 0.930 1_556 S
C209 C208 1.369 1_545 S
C209 C218 1.429 . S
C210 C208 1.419 . S
C210 C211 1.363 1_565 S
C210 H213 0.929 . S
C211 C210 1.363 1_545 S
C211 C217 1.428 . S
H212 C208 0.930 1_554 S
H213 C210 0.929 . S
S214 N215 1.613 . S
S214 N216 1.610 . S
N215 S214 1.613 . S
N215 C218 1.350 . S
N216 S214 1.610 . S
N216 C217 1.351 . S
C217 C211 1.428 . S
C217 N216 1.351 . S
C217 C218 1.434 . S
C218 C209 1.429 . S
C218 N215 1.350 . S
C218 C217 1.434 . S
C219 C220 1.369 . S
C219 C221 1.419 . S
C219 H223 0.930 . S
C220 C219 1.369 . S
C220 C229 1.429 . S
C221 C219 1.419 . S
C221 C222 1.363 . S
C221 H224 0.929 . S
C222 C221 1.363 . S
C222 C228 1.428 . S
H223 C219 0.930 . S
H224 C221 0.929 . S
S225 N226 1.613 . S
S225 N227 1.610 . S
N226 S225 1.613 . S
N226 C229 1.350 . S
N227 S225 1.610 . S
N227 C228 1.351 . S
C228 C222 1.428 . S
C228 N227 1.351 . S
C228 C229 1.434 . S
C229 C220 1.429 . S
C229 N226 1.350 . S
C229 C228 1.434 . S
C230 C231 1.369 . S
C230 C232 1.419 . S
C230 H234 0.930 . S
C231 C230 1.369 . S
C231 C240 1.429 . S
C232 C230 1.419 . S
C232 C233 1.363 . S
C232 H235 0.929 . S
C233 C232 1.363 . S
C233 C239 1.428 . S
H234 C230 0.930 . S
H235 C232 0.929 . S
S236 N237 1.613 . S
S236 N238 1.610 1_554 S
N237 S236 1.613 . S
N237 C240 1.350 1_554 S
N238 S236 1.610 1_556 S
N238 C239 1.351 . S
C239 C233 1.428 . S
C239 N238 1.351 . S
C239 C240 1.434 . S
C240 C231 1.429 . S
C240 N237 1.350 1_556 S
C240 C239 1.434 . S
C241 C242 1.369 . S
C241 C243 1.419 1_554 S
C241 H245 0.930 . S
C242 C241 1.369 . S
C242 C251 1.429 1_654 S
C243 C241 1.419 1_556 S
C243 C244 1.363 1_655 S
C243 H246 0.929 . S
C244 C243 1.363 1_455 S
C244 C250 1.428 . S
H245 C241 0.930 . S
H246 C243 0.929 . S
S247 N248 1.613 . S
S247 N249 1.610 . S
N248 S247 1.613 . S
N248 C251 1.350 . S
N249 S247 1.610 . S
N249 C250 1.351 . S
C250 C244 1.428 . S
C250 N249 1.351 . S
C250 C251 1.434 . S
C251 C242 1.429 1_456 S
C251 N248 1.350 . S
C251 C250 1.434 . S
C252 C253 1.369 . S
C252 C254 1.419 . S
C252 H256 0.930 . S
C253 C252 1.369 . S
C253 C262 1.429 . S
C254 C252 1.419 . S
C254 C255 1.363 . S
C254 H257 0.929 . S
C255 C254 1.363 . S
C255 C261 1.428 . S
H256 C252 0.930 . S
H257 C254 0.929 . S
S258 N259 1.613 . S
S258 N260 1.610 . S
N259 S258 1.613 . S
N259 C262 1.350 . S
N260 S258 1.610 . S
N260 C261 1.351 . S
C261 C255 1.428 . S
C261 N260 1.351 . S
C261 C262 1.434 . S
C262 C253 1.429 . S
C262 N259 1.350 . S
C262 C261 1.434 . S
C263 C264 1.369 1_565 S
C263 C265 1.419 . S
C263 H267 0.930 . S
C264 C263 1.369 1_545 S
C264 C273 1.429 . S
C265 C263 1.419 . S
C265 C266 1.363 . S
C265 H268 0.929 . S
C266 C265 1.363 . S
C266 C272 1.428 1_565 S
H267 C263 0.930 . S
H268 C265 0.929 . S
S269 N270 1.613 . S
S269 N271 1.610 . S
N270 S269 1.613 . S
N270 C273 1.350 . S
N271 S269 1.610 . S
N271 C272 1.351 . S
C272 C266 1.428 1_545 S
C272 N271 1.351 . S
C272 C273 1.434 . S
C273 C264 1.429 . S
C273 N270 1.350 . S
C273 C272 1.434 . S
C274 C275 1.369 . S
C274 C276 1.419 . S
C274 H278 0.930 . S
C275 C274 1.369 . S
C275 C284 1.429 . S
C276 C274 1.419 . S
C276 C277 1.363 . S
C276 H279 0.929 . S
C277 C276 1.363 . S
C277 C283 1.428 . S
H278 C274 0.930 . S
H279 C276 0.929 . S
S280 N281 1.613 . S
S280 N282 1.610 . S
N281 S280 1.613 . S
N281 C284 1.350 . S
N282 S280 1.610 . S
N282 C283 1.351 . S
C283 C277 1.428 . S
C283 N282 1.351 . S
C283 C284 1.434 . S
C284 C275 1.429 . S
C284 N281 1.350 . S
C284 C283 1.434 . S
C285 C286 1.369 . S
C285 C287 1.419 . S
C285 H289 0.930 . S
C286 C285 1.369 . S
C286 C295 1.429 . S
C287 C285 1.419 . S
C287 C288 1.363 . S
C287 H290 0.929 . S
C288 C287 1.363 . S
C288 C294 1.428 . S
H289 C285 0.930 . S
H290 C287 0.929 . S
S291 N292 1.613 . S
S291 N293 1.610 . S
N292 S291 1.613 . S
N292 C295 1.350 . S
N293 S291 1.610 . S
N293 C294 1.351 . S
C294 C288 1.428 . S
C294 N293 1.351 . S
C294 C295 1.434 . S
C295 C286 1.429 . S
C295 N292 1.350 . S
C295 C294 1.434 . S
C296 C297 1.369 1_455 S
C296 C298 1.419 . S
C296 H300 0.930 . S
C297 C296 1.369 1_655 S
C297 C306 1.429 . S
C298 C296 1.419 . S
C298 C299 1.363 . S
C298 H301 0.929 . S
C299 C298 1.363 . S
C299 C305 1.428 . S
H300 C296 0.930 . S
H301 C298 0.929 . S
S302 N303 1.613 . S
S302 N304 1.610 . S
N303 S302 1.613 . S
N303 C306 1.350 . S
N304 S302 1.610 . S
N304 C305 1.351 1_655 S
C305 C299 1.428 . S
C305 N304 1.351 1_455 S
C305 C306 1.434 1_455 S
C306 C297 1.429 . S
C306 N303 1.350 . S
C306 C305 1.434 1_655 S
C307 C308 1.369 . S
C307 C309 1.419 . S
C307 H311 0.930 . S
C308 C307 1.369 . S
C308 C317 1.429 1_545 S
C309 C307 1.419 . S
C309 C310 1.363 . S
C309 H312 0.929 . S
C310 C309 1.363 . S
C310 C316 1.428 . S
H311 C307 0.930 . S
H312 C309 0.929 . S
S313 N314 1.613 . S
S313 N315 1.610 . S
N314 S313 1.613 . S
N314 C317 1.350 . S
N315 S313 1.610 . S
N315 C316 1.351 1_565 S
C316 C310 1.428 . S
C316 N315 1.351 1_545 S
C316 C317 1.434 1_545 S
C317 C308 1.429 1_565 S
C317 N314 1.350 . S
C317 C316 1.434 1_565 S
C318 C319 1.369 . S
C318 C320 1.419 . S
C318 H322 0.930 1_556 S
C319 C318 1.369 . S
C319 C328 1.429 . S
C320 C318 1.419 . S
C320 C321 1.363 . S
C320 H323 0.929 . S
C321 C320 1.363 . S
C321 C327 1.428 . S
H322 C318 0.930 1_554 S
H323 C320 0.929 . S
S324 N325 1.613 . S
S324 N326 1.610 . S
N325 S324 1.613 . S
N325 C328 1.350 . S
N326 S324 1.610 . S
N326 C327 1.351 . S
C327 C321 1.428 . S
C327 N326 1.351 . S
C327 C328 1.434 . S
C328 C319 1.429 . S
C328 N325 1.350 . S
C328 C327 1.434 . S
C329 C330 1.369 . S
C329 C331 1.419 . S
C329 H333 0.930 . S
C330 C329 1.369 . S
C330 C339 1.429 . S
C331 C329 1.419 . S
C331 C332 1.363 . S
C331 H334 0.929 . S
C332 C331 1.363 . S
C332 C338 1.428 . S
H333 C329 0.930 . S
H334 C331 0.929 . S
S335 N336 1.613 . S
S335 N337 1.610 . S
N336 S335 1.613 . S
N336 C339 1.350 . S
N337 S335 1.610 . S
N337 C338 1.351 . S
C338 C332 1.428 . S
C338 N337 1.351 . S
C338 C339 1.434 . S
C339 C330 1.429 . S
C339 N336 1.350 . S
C339 C338 1.434 . S
C340 C341 1.369 . S
C340 C342 1.419 . S
C340 H344 0.930 . S
C341 C340 1.369 . S
C341 C350 1.429 . S
C342 C340 1.419 . S
C342 C343 1.366 . S
C342 H345 0.929 . S
C343 C342 1.366 . S
C343 C349 1.431 . S
H344 C340 0.930 . S
H345 C342 0.929 . S
S346 N347 1.613 . S
S346 N348 1.610 . S
N347 S346 1.613 . S
N347 C350 1.350 . S
N348 S346 1.610 . S
N348 C349 1.351 . S
C349 C343 1.431 . S
C349 N348 1.351 . S
C349 C350 1.434 . S
C350 C341 1.429 . S
C350 N347 1.350 . S
C350 C349 1.434 . S
C351 C352 1.369 1_546 S
C351 C353 1.419 . S
C351 H355 0.930 . S
C352 C351 1.369 1_564 S
C352 C361 1.429 . S
C353 C351 1.419 . S
C353 C354 1.363 1_545 S
C353 H356 0.929 . S
C354 C353 1.363 1_565 S
C354 C360 1.428 1_556 S
H355 C351 0.930 . S
H356 C353 0.929 . S
S357 N358 1.613 . S
S357 N359 1.610 . S
N358 S357 1.613 . S
N358 C361 1.350 . S
N359 S357 1.610 . S
N359 C360 1.351 . S
C360 C354 1.428 1_554 S
C360 N359 1.351 . S
C360 C361 1.434 . S
C361 C352 1.429 . S
C361 N358 1.350 . S
C361 C360 1.434 . S
C362 C363 1.369 . S
C362 C364 1.419 . S
C362 H366 0.930 . S
C363 C362 1.369 . S
C363 C372 1.429 1_554 S
C364 C362 1.419 . S
C364 C365 1.363 1_554 S
C364 H367 0.929 . S
C365 C364 1.363 1_556 S
C365 C371 1.428 . S
H366 C362 0.930 . S
H367 C364 0.929 . S
S368 N369 1.613 . S
S368 N370 1.610 . S
N369 S368 1.613 . S
N369 C372 1.350 . S
N370 S368 1.610 . S
N370 C371 1.351 . S
C371 C365 1.428 . S
C371 N370 1.351 . S
C371 C372 1.434 . S
C372 C363 1.429 1_556 S
C372 N369 1.350 . S
C372 C371 1.434 . S
C373 C374 1.369 . S
C373 C375 1.419 . S
C373 H377 0.930 . S
C374 C373 1.369 . S
C374 C383 1.429 1_554 S
C375 C373 1.419 . S
C375 C376 1.363 1_554 S
C375 H378 0.929 . S
C376 C375 1.363 1_556 S
C376 C382 1.428 . S
H377 C373 0.930 . S
H378 C375 0.929 . S
S379 N380 1.613 . S
S379 N381 1.610 . S
N380 S379 1.613 . S
N380 C383 1.350 . S
N381 S379 1.610 . S
N381 C382 1.351 . S
C382 C376 1.428 . S
C382 N381 1.351 . S
C382 C383 1.434 . S
C383 C374 1.429 1_556 S
C383 N380 1.350 . S
C383 C382 1.434 . S
C384 C385 1.369 1_455 S
C384 C386 1.419 . S
C384 H388 0.930 . S
C385 C384 1.369 1_655 S
C385 C394 1.429 . S
C386 C384 1.419 . S
C386 C387 1.361 1_455 S
C386 H389 0.931 . S
C387 C386 1.361 1_655 S
C387 C393 1.428 . S
H388 C384 0.930 . S
H389 C386 0.931 . S
S390 N391 1.613 . S
S390 N392 1.610 . S
N391 S390 1.613 . S
N391 C394 1.350 . S
N392 S390 1.610 . S
N392 C393 1.351 . S
C393 C387 1.428 . S
C393 N392 1.351 . S
C393 C394 1.434 . S
C394 C385 1.429 . S
C394 N391 1.350 . S
C394 C393 1.434 . S
C395 C396 1.369 1_545 S
C395 C397 1.419 . S
C395 H399 0.930 . S
C396 C395 1.369 1_565 S
C396 C405 1.429 . S
C397 C395 1.419 . S
C397 C398 1.363 1_545 S
C397 H400 0.929 . S
C398 C397 1.363 1_565 S
C398 C404 1.428 . S
H399 C395 0.930 . S
H400 C397 0.929 . S
S401 N402 1.613 . S
S401 N403 1.610 . S
N402 S401 1.613 . S
N402 C405 1.350 . S
N403 S401 1.610 . S
N403 C404 1.351 . S
C404 C398 1.428 . S
C404 N403 1.351 . S
C404 C405 1.434 . S
C405 C396 1.429 . S
C405 N402 1.350 . S
C405 C404 1.434 . S
C406 C407 1.369 . S
C406 C408 1.419 . S
C406 H410 0.930 . S
C407 C406 1.369 . S
C407 C416 1.429 . S
C408 C406 1.419 . S
C408 C409 1.363 . S
C408 H411 0.929 . S
C409 C408 1.363 . S
C409 C415 1.428 . S
H410 C406 0.930 . S
H411 C408 0.929 . S
S412 N413 1.613 . S
S412 N414 1.610 . S
N413 S412 1.613 . S
N413 C416 1.350 . S
N414 S412 1.610 . S
N414 C415 1.351 . S
C415 C409 1.428 . S
C415 N414 1.351 . S
C415 C416 1.434 . S
C416 C407 1.429 . S
C416 N413 1.350 . S
C416 C415 1.434 . S
C417 C418 1.369 . S
C417 C419 1.419 . S
C417 H421 0.930 . S
C418 C417 1.369 . S
C418 C427 1.429 . S
C419 C417 1.419 . S
C419 C420 1.363 . S
C419 H422 0.929 . S
C420 C419 1.363 . S
C420 C426 1.428 . S
H421 C417 0.930 . S
H422 C419 0.929 . S
S423 N424 1.613 . S
S423 N425 1.610 . S
N424 S423 1.613 . S
N424 C427 1.350 . S
N425 S423 1.610 . S
N425 C426 1.351 . S
C426 C420 1.428 . S
C426 N425 1.351 . S
C426 C427 1.434 . S
C427 C418 1.429 . S
C427 N424 1.350 . S
C427 C426 1.434 . S
C165 C61 1.596 . S
C167 C88 1.613 . S
C178 C111 1.701 . S
C176 C70 1.682 . S
C189 C134 1.630 . S
C187 C43 1.617 . S
C200 C161 1.539 . S
C198 C52 1.615 . S
C211 C89 1.556 . S
C209 C25 1.529 1_546 S
C220 C34 1.535 1_556 S
C222 C112 1.557 . S
C231 C7 1.471 1_556 S
C233 C135 1.488 . S
C242 C16 1.545 . S
C244 C160 1.575 . S
C255 C90 0.640 . S
C253 C50 0.680 . S
C266 C113 0.515 . S
C264 C59 0.545 1_545 S
C277 C136 0.626 . S
C275 C67 0.634 . S
C286 C41 0.771 . S
C288 C162 0.765 . S
C297 C14 0.932 1_556 S
C299 C93 0.855 . S
C310 C116 0.832 . S
C308 C23 0.922 1_545 S
C321 C139 0.875 . S
C319 C31 0.926 . S
C330 C5 0.601 . S
C332 C159 0.601 . S
C341 C49 1.611 . S
C343 C91 1.605 1_554 S
C352 C58 1.539 . S
C354 C114 1.571 1_565 S
C365 C137 1.577 . S
C363 C68 1.554 . S
C376 C158 1.462 . S
C374 C40 1.403 . S
C385 C13 1.678 . S
C387 C92 1.615 . S
C398 C115 1.558 . S
C396 C22 1.616 . S
C409 C138 1.552 . S
C407 C32 1.617 . S
C418 C4 1.633 . S
C420 C157 1.695 . S
