# Generated by pormake.
# Topology pyr, (3,6)-cn, num edge types: 1
# Building blocks:
#     Node 0, Type 0, BuildingBlock: MIDCAF_clean_linker_0, # of connection points: 3
#     Node 1, Type 0, BuildingBlock: MIDCAF_clean_linker_0, # of connection points: 3
#     Node 2, Type 0, BuildingBlock: MIDCAF_clean_linker_0, # of connection points: 3
#     Node 3, Type 0, BuildingBlock: MIDCAF_clean_linker_0, # of connection points: 3
#     Node 4, Type 0, BuildingBlock: MIDCAF_clean_linker_0, # of connection points: 3
#     Node 5, Type 0, BuildingBlock: MIDCAF_clean_linker_0, # of connection points: 3
#     Node 6, Type 0, BuildingBlock: MIDCAF_clean_linker_0, # of connection points: 3
#     Node 7, Type 0, BuildingBlock: MIDCAF_clean_linker_0, # of connection points: 3
#     Node 8, Type 1, BuildingBlock: MIDCAF_clean_sbu_0, # of connection points: 6
#     Node 9, Type 1, BuildingBlock: MIDCAF_clean_sbu_0, # of connection points: 6
#     Node 10, Type 1, BuildingBlock: MIDCAF_clean_sbu_0, # of connection points: 6
#     Node 11, Type 1, BuildingBlock: MIDCAF_clean_sbu_0, # of connection points: 6
#     Edge 12, Type (0, 1), BuildingBlock: TEMPAE_clean_linker_10, # of connection points: 2
#     Edge 13, Type (0, 1), BuildingBlock: TEMPAE_clean_linker_10, # of connection points: 2
#     Edge 14, Type (0, 1), BuildingBlock: TEMPAE_clean_linker_10, # of connection points: 2
#     Edge 15, Type (0, 1), BuildingBlock: TEMPAE_clean_linker_10, # of connection points: 2
#     Edge 16, Type (0, 1), BuildingBlock: TEMPAE_clean_linker_10, # of connection points: 2
#     Edge 17, Type (0, 1), BuildingBlock: TEMPAE_clean_linker_10, # of connection points: 2
#     Edge 18, Type (0, 1), BuildingBlock: TEMPAE_clean_linker_10, # of connection points: 2
#     Edge 19, Type (0, 1), BuildingBlock: TEMPAE_clean_linker_10, # of connection points: 2
#     Edge 20, Type (0, 1), BuildingBlock: TEMPAE_clean_linker_10, # of connection points: 2
#     Edge 21, Type (0, 1), BuildingBlock: TEMPAE_clean_linker_10, # of connection points: 2
#     Edge 22, Type (0, 1), BuildingBlock: TEMPAE_clean_linker_10, # of connection points: 2
#     Edge 23, Type (0, 1), BuildingBlock: TEMPAE_clean_linker_10, # of connection points: 2
#     Edge 24, Type (0, 1), BuildingBlock: TEMPAE_clean_linker_10, # of connection points: 2
#     Edge 25, Type (0, 1), BuildingBlock: TEMPAE_clean_linker_10, # of connection points: 2
#     Edge 26, Type (0, 1), BuildingBlock: TEMPAE_clean_linker_10, # of connection points: 2
#     Edge 27, Type (0, 1), BuildingBlock: TEMPAE_clean_linker_10, # of connection points: 2
#     Edge 28, Type (0, 1), BuildingBlock: TEMPAE_clean_linker_10, # of connection points: 2
#     Edge 29, Type (0, 1), BuildingBlock: TEMPAE_clean_linker_10, # of connection points: 2
#     Edge 30, Type (0, 1), BuildingBlock: TEMPAE_clean_linker_10, # of connection points: 2
#     Edge 31, Type (0, 1), BuildingBlock: TEMPAE_clean_linker_10, # of connection points: 2
#     Edge 32, Type (0, 1), BuildingBlock: TEMPAE_clean_linker_10, # of connection points: 2
#     Edge 33, Type (0, 1), BuildingBlock: TEMPAE_clean_linker_10, # of connection points: 2
#     Edge 34, Type (0, 1), BuildingBlock: TEMPAE_clean_linker_10, # of connection points: 2
#     Edge 35, Type (0, 1), BuildingBlock: TEMPAE_clean_linker_10, # of connection points: 2
# Relax obj value: 0.019
# Max RMSD: 0.062
# Mean RMSD: 0.023
data_MOF--net-pry--node1-MIDCAF_clean_sbu_0--node2-MIDCAF_clean_linker_0--edge1-TEMPAE_clean_linker_10
_symmetry_space_group_name_H-M    P1
_symmetry_Int_Tables_number       1
_symmetry_cell_setting            triclinic
loop_
_symmetry_equiv_pos_as_xyz
'x, y, z'
_cell_length_a     43.947216
_cell_length_b     44.040193
_cell_length_c     43.997956
_cell_angle_alpha  89.881503
_cell_angle_beta   90.134389
_cell_angle_gamma 90.160649
loop_
_atom_site_label
_atom_site_type_symbol
_atom_site_fract_x
_atom_site_fract_y
_atom_site_fract_z
_atom_type_partial_charge
C0 C 0.15784 0.20762 0.31818 0.0
C1 C 0.17252 0.18877 0.33931 0.0
C2 C 0.20404 0.18416 0.33682 0.0
C3 C 0.22049 0.19763 0.31307 0.0
H4 H 0.30207 0.1879 0.2555 0.0
H5 H 0.34412 0.16183 0.23031 0.0
H6 H 0.32199 0.2083 0.14646 0.0
H7 H 0.28164 0.23524 0.17187 0.0
H8 H 0.25658 0.31095 0.1943 0.0
H9 H 0.23556 0.35544 0.16881 0.0
H10 H 0.14624 0.3322 0.20301 0.0
H11 H 0.16763 0.289 0.22973 0.0
H12 H 0.16226 0.23589 0.27886 0.0
H13 H 0.13354 0.21141 0.31964 0.0
H14 H 0.21575 0.16948 0.35277 0.0
H15 H 0.24468 0.19335 0.31138 0.0
N16 N 0.24823 0.21727 0.25489 0.0
N17 N 0.25151 0.25541 0.21762 0.0
N18 N 0.21179 0.25617 0.25295 0.0
C19 C 0.26261 0.22953 0.23034 0.0
C20 C 0.22626 0.26895 0.22887 0.0
C21 C 0.22271 0.23054 0.26627 0.0
C22 C 0.28863 0.21384 0.2158 0.0
C23 C 0.30649 0.19267 0.23175 0.0
C24 C 0.33049 0.17759 0.21722 0.0
C25 C 0.33683 0.18299 0.18627 0.0
C26 C 0.31865 0.20407 0.17046 0.0
C27 C 0.29519 0.21946 0.18506 0.0
C28 C 0.21377 0.29647 0.21406 0.0
C29 C 0.23249 0.31557 0.19653 0.0
C30 C 0.22037 0.34101 0.18176 0.0
C31 C 0.18911 0.34765 0.18374 0.0
C32 C 0.17052 0.32847 0.20146 0.0
C33 C 0.18275 0.30343 0.21667 0.0
C34 C 0.20578 0.2165 0.29183 0.0
C35 C 0.17434 0.22162 0.29491 0.0
C36 C 0.20926 0.86402 0.7086 0.0
C37 C 0.19186 0.84993 0.68575 0.0
C38 C 0.20013 0.8206 0.67621 0.0
C39 C 0.2256 0.8061 0.68866 0.0
H40 H 0.2818 0.72893 0.68054 0.0
H41 H 0.30543 0.68732 0.65241 0.0
H42 H 0.39118 0.70624 0.69649 0.0
H43 H 0.36781 0.74753 0.72477 0.0
H44 H 0.3566 0.78291 0.79523 0.0
H45 H 0.38359 0.80829 0.8366 0.0
H46 H 0.33435 0.89098 0.81718 0.0
H47 H 0.30657 0.86532 0.7771 0.0
H48 H 0.24763 0.8614 0.73831 0.0
H49 H 0.20396 0.88677 0.71618 0.0
H50 H 0.187 0.80887 0.65898 0.0
H51 H 0.23149 0.7837 0.6805 0.0
N52 N 0.28289 0.7806 0.71024 0.0
N53 N 0.32412 0.78153 0.74432 0.0
N54 N 0.28651 0.81904 0.74684 0.0
C55 C 0.30933 0.76824 0.72057 0.0
C56 C 0.31277 0.8069 0.75764 0.0
C57 C 0.27132 0.80604 0.72329 0.0
C58 C 0.32291 0.74172 0.70487 0.0
C59 C 0.30565 0.72411 0.68439 0.0
C60 C 0.3191 0.70021 0.66836 0.0
C61 C 0.35016 0.69375 0.67212 0.0
C62 C 0.36725 0.71095 0.69293 0.0
C63 C 0.35377 0.73451 0.70925 0.0
C64 C 0.32932 0.82202 0.78289 0.0
C65 C 0.35147 0.80648 0.79995 0.0
C66 C 0.36706 0.8211 0.8236 0.0
C67 C 0.36115 0.85175 0.83049 0.0
C68 C 0.33906 0.86721 0.81322 0.0
C69 C 0.32322 0.8525 0.78995 0.0
C70 C 0.24332 0.8205 0.71109 0.0
C71 C 0.23455 0.84948 0.72117 0.0
C72 C 0.7145 0.22903 0.88013 0.0
C73 C 0.6962 0.20658 0.86667 0.0
C74 C 0.69164 0.20719 0.83505 0.0
C75 C 0.70443 0.23035 0.81734 0.0
H76 H 0.67831 0.29131 0.74657 0.0
H77 H 0.65127 0.31103 0.70256 0.0
H78 H 0.72905 0.36685 0.67989 0.0
H79 H 0.75569 0.34796 0.72464 0.0
H80 H 0.80825 0.35853 0.77781 0.0
H81 H 0.84723 0.39142 0.80056 0.0
H82 H 0.82387 0.35735 0.88953 0.0
H83 H 0.78541 0.32435 0.86712 0.0
H84 H 0.74138 0.26904 0.87358 0.0
H85 H 0.7184 0.22901 0.90445 0.0
H86 H 0.67738 0.19029 0.82416 0.0
H87 H 0.70005 0.2305 0.7931 0.0
N88 N 0.72302 0.28532 0.78477 0.0
N89 N 0.75737 0.32596 0.77974 0.0
N90 N 0.75812 0.29567 0.82361 0.0
C91 C 0.73402 0.30912 0.7683 0.0
C92 C 0.76951 0.31937 0.8074 0.0
C93 C 0.73511 0.27835 0.81239 0.0
C94 C 0.71908 0.31827 0.73941 0.0
C95 C 0.68983 0.30751 0.73203 0.0
C96 C 0.67434 0.31874 0.7066 0.0
C97 C 0.68782 0.34077 0.68768 0.0
C98 C 0.71767 0.3504 0.69427 0.0
C99 C 0.73304 0.33943 0.71989 0.0
C100 C 0.7937 0.33881 0.82064 0.0
C101 C 0.8115 0.35803 0.80221 0.0
C102 C 0.83384 0.37676 0.81515 0.0
C103 C 0.83831 0.37703 0.84676 0.0
C104 C 0.82062 0.35778 0.86511 0.0
C105 C 0.79874 0.33875 0.85221 0.0
C106 C 0.72243 0.25309 0.83084 0.0
C107 C 0.72768 0.25188 0.86239 0.0
C108 C 0.71572 0.69555 0.37326 0.0
C109 C 0.69718 0.67517 0.35715 0.0
C110 C 0.70045 0.67276 0.32553 0.0
C111 C 0.72275 0.68974 0.3104 0.0
H112 H 0.79458 0.67203 0.2487 0.0
H113 H 0.82196 0.6481 0.20739 0.0
H114 H 0.87159 0.7315 0.19151 0.0
H115 H 0.84498 0.75514 0.2338 0.0
H116 H 0.86291 0.78351 0.30649 0.0
H117 H 0.88879 0.82322 0.33545 0.0
H118 H 0.80466 0.84519 0.3805 0.0
H119 H 0.77861 0.8049 0.35205 0.0
H120 H 0.75181 0.72811 0.37131 0.0
H121 H 0.71343 0.69787 0.39767 0.0
H122 H 0.68638 0.65711 0.31271 0.0
H123 H 0.72531 0.68694 0.28609 0.0
N124 N 0.77878 0.71526 0.28507 0.0
N125 N 0.8157 0.75381 0.28541 0.0
N126 N 0.77936 0.75127 0.32428 0.0
C127 C 0.80324 0.72894 0.27198 0.0
C128 C 0.80378 0.76521 0.31145 0.0
C129 C 0.76668 0.72633 0.31118 0.0
C130 C 0.81772 0.71546 0.24477 0.0
C131 C 0.81109 0.68542 0.23624 0.0
C132 C 0.82672 0.67171 0.21234 0.0
C133 C 0.84912 0.68779 0.19606 0.0
C134 C 0.85491 0.71823 0.20387 0.0
C135 C 0.83952 0.73185 0.22804 0.0
C136 C 0.81873 0.79099 0.32707 0.0
C137 C 0.84979 0.79695 0.32232 0.0
C138 C 0.86466 0.81955 0.33895 0.0
C139 C 0.84864 0.83703 0.36015 0.0
C140 C 0.81739 0.83195 0.36418 0.0
C141 C 0.80259 0.80888 0.348 0.0
C142 C 0.74168 0.70986 0.3266 0.0
C143 C 0.73755 0.71295 0.35812 0.0
C144 C 0.82229 0.98725 0.91962 0.0
C145 C 0.80391 0.9752 0.9428 0.0
C146 C 0.81589 0.95234 0.96166 0.0
C147 C 0.84517 0.94112 0.95693 0.0
H148 H 0.90804 0.8795 0.99127 0.0
H149 H 0.92213 0.83276 0.01753 0.0
H150 H 0.98861 0.8142 0.94778 0.0
H151 H 0.97545 0.86119 0.92234 0.0
H152 H 0.9894 0.90985 0.87264 0.0
H153 H 0.01559 0.92362 0.82574 0.0
H154 H 0.9509 0.99579 0.81074 0.0
H155 H 0.92507 0.98255 0.85763 0.0
H156 H 0.86496 0.98532 0.89632 0.0
H157 H 0.81368 0.00484 0.90468 0.0
H158 H 0.80253 0.943 0.98013 0.0
H159 H 0.85333 0.92321 0.97173 0.0
N160 N 0.90378 0.9151 0.94389 0.0
N161 N 0.94713 0.91138 0.9132 0.0
N162 N 0.91053 0.94869 0.90302 0.0
C163 C 0.93055 0.90128 0.93723 0.0
C164 C 0.93741 0.93516 0.89607 0.0
C165 C 0.89358 0.93885 0.92692 0.0
C166 C 0.94049 0.8741 0.95457 0.0
C167 C 0.92591 0.86559 0.98174 0.0
C168 C 0.9339 0.83869 0.99675 0.0
C169 C 0.95647 0.81955 0.98481 0.0
C170 C 0.97153 0.82855 0.95806 0.0
C171 C 0.96379 0.85551 0.94326 0.0
C172 C 0.95492 0.94494 0.8689 0.0
C173 C 0.98094 0.9289 0.85955 0.0
C174 C 0.99595 0.9367 0.8326 0.0
C175 C 0.98538 0.96079 0.81449 0.0
C176 C 0.95997 0.9774 0.82436 0.0
C177 C 0.94496 0.9696 0.85121 0.0
C178 C 0.86332 0.95245 0.93318 0.0
C179 C 0.85166 0.97596 0.9148 0.0
C180 C 0.56933 0.05898 0.32506 0.0
C181 C 0.55347 0.08117 0.30828 0.0
C182 C 0.55024 0.11032 0.3209 0.0
C183 C 0.56345 0.11737 0.34897 0.0
H184 H 0.55355 0.17152 0.42574 0.0
H185 H 0.53926 0.21758 0.45198 0.0
H186 H 0.61703 0.20843 0.51151 0.0
H187 H 0.63194 0.16236 0.48466 0.0
H188 H 0.67838 0.10906 0.47281 0.0
H189 H 0.72873 0.08814 0.48165 0.0
H190 H 0.72011 0.03327 0.40085 0.0
H191 H 0.6693 0.05376 0.39213 0.0
H192 H 0.59578 0.04881 0.3647 0.0
H193 H 0.57161 0.03604 0.31656 0.0
H194 H 0.53857 0.12815 0.30859 0.0
H195 H 0.5613 0.14028 0.35759 0.0
N196 N 0.58793 0.12765 0.41003 0.0
N197 N 0.63019 0.12165 0.44208 0.0
N198 N 0.62345 0.08926 0.40034 0.0
C199 C 0.60406 0.13651 0.4349 0.0
C200 C 0.64006 0.09798 0.42492 0.0
C201 C 0.59736 0.10395 0.39279 0.0
C202 C 0.59409 0.16323 0.45283 0.0
C203 C 0.56757 0.17904 0.44458 0.0
C204 C 0.55916 0.20542 0.45988 0.0
C205 C 0.57693 0.21672 0.48398 0.0
C206 C 0.60298 0.20048 0.49289 0.0
C207 C 0.61145 0.174 0.47752 0.0
C208 C 0.66976 0.08337 0.43159 0.0
C209 C 0.68701 0.09241 0.45696 0.0
C210 C 0.71602 0.08054 0.46195 0.0
C211 C 0.72862 0.05939 0.44168 0.0
C212 C 0.71102 0.04948 0.4169 0.0
C213 C 0.68192 0.06135 0.41189 0.0
C214 C 0.58064 0.09559 0.36481 0.0
C215 C 0.58305 0.06621 0.35279 0.0
C216 C 0.32614 0.56875 0.11416 0.0
C217 C 0.31543 0.5716 0.08413 0.0
C218 C 0.33435 0.58559 0.06243 0.0
C219 C 0.36252 0.59778 0.07083 0.0
H220 H 0.41998 0.66813 0.04559 0.0
H221 H 0.43452 0.71445 0.01883 0.0
H222 H 0.49466 0.73824 0.09294 0.0
H223 H 0.48096 0.69176 0.11918 0.0
H224 H 0.48373 0.65228 0.17794 0.0
H225 H 0.50365 0.6426 0.22888 0.0
H226 H 0.44557 0.56365 0.23629 0.0
H227 H 0.42518 0.57358 0.18595 0.0
H228 H 0.3616 0.57882 0.14602 0.0
H229 H 0.31213 0.55843 0.13157 0.0
H230 H 0.3272 0.58756 0.03894 0.0
H231 H 0.37612 0.60905 0.05366 0.0
N232 N 0.41306 0.63403 0.09316 0.0
N233 N 0.45065 0.64311 0.12996 0.0
N234 N 0.41425 0.6049 0.1378 0.0
C235 C 0.43782 0.64997 0.10266 0.0
C236 C 0.43916 0.62047 0.14758 0.0
C237 C 0.40113 0.61145 0.11058 0.0
C238 C 0.44903 0.67629 0.08475 0.0
C239 C 0.43663 0.68303 0.056 0.0
C240 C 0.44487 0.70966 0.04067 0.0
C241 C 0.4656 0.73022 0.05377 0.0
C242 C 0.47896 0.72278 0.0819 0.0
C243 C 0.47088 0.69612 0.09712 0.0
C244 C 0.45261 0.61386 0.17785 0.0
C245 C 0.47525 0.6328 0.19039 0.0
C246 C 0.48678 0.62723 0.21957 0.0
C247 C 0.47594 0.60259 0.23681 0.0
C248 C 0.4539 0.58327 0.22393 0.0
C249 C 0.44233 0.58887 0.19491 0.0
C250 C 0.3727 0.59592 0.10107 0.0
C251 C 0.35451 0.58061 0.12249 0.0
C252 C 0.11143 0.32141 0.55708 0.0
C253 C 0.08687 0.30426 0.5682 0.0
C254 C 0.06824 0.31685 0.59084 0.0
C255 C 0.07476 0.34536 0.60304 0.0
H256 H 0.05496 0.39864 0.67741 0.0
H257 H 0.03462 0.41098 0.72757 0.0
H258 H 0.09873 0.48502 0.73513 0.0
H259 H 0.1192 0.47286 0.68546 0.0
H260 H 0.17303 0.47924 0.64059 0.0
H261 H 0.2227 0.50034 0.62713 0.0
H262 H 0.2257 0.44228 0.54828 0.0
H263 H 0.1765 0.42094 0.56162 0.0
H264 H 0.13757 0.36224 0.5607 0.0
H265 H 0.12625 0.3123 0.53974 0.0
H266 H 0.04873 0.30446 0.59941 0.0
H267 H 0.06026 0.354 0.6209 0.0
N268 N 0.09408 0.40035 0.63329 0.0
N269 N 0.12794 0.44135 0.63783 0.0
N270 N 0.13305 0.40703 0.59762 0.0
C271 C 0.10348 0.42562 0.64838 0.0
C272 C 0.14276 0.43231 0.61239 0.0
C273 C 0.10872 0.39096 0.6078 0.0
C274 C 0.089 0.43453 0.67744 0.0
C275 C 0.06459 0.4177 0.68965 0.0
C276 C 0.05284 0.42477 0.71833 0.0
C277 C 0.06541 0.44864 0.73538 0.0
C278 C 0.089 0.4661 0.72272 0.0
C279 C 0.10062 0.45918 0.69412 0.0
C280 C 0.17092 0.448 0.60246 0.0
C281 C 0.18409 0.4712 0.62017 0.0
C282 C 0.2125 0.4834 0.61247 0.0
C283 C 0.22822 0.47256 0.58698 0.0
C284 C 0.21434 0.45058 0.56844 0.0
C285 C 0.18605 0.43844 0.57606 0.0
C286 C 0.10004 0.36207 0.59281 0.0
C287 C 0.11794 0.35002 0.56924 0.0
Zn288 Zn 0.97022 0.05714 0.55737 0.0
Zn289 Zn 0.04722 0.98814 0.49501 0.0
Zn290 Zn 0.00879 0.02404 0.52654 0.0
C291 C 0.06241 0.04879 0.48164 0.0
C292 C 0.98769 0.97547 0.47528 0.0
O293 O 0.01294 0.01186 0.57548 0.0
O294 O 0.97784 0.03994 0.59788 0.0
C295 C 0.01159 0.09702 0.53018 0.0
O296 O 0.04035 0.05399 0.50024 0.0
O297 O 0.07022 0.02183 0.47588 0.0
O298 O 0.01491 0.9677 0.4705 0.0
O299 O 0.98147 0.99603 0.49512 0.0
O300 O 0.9881 0.0969 0.54664 0.0
O301 O 0.02272 0.0719 0.52021 0.0
O302 O 0.9613 0.01601 0.50935 0.0
O303 O 0.93205 0.04497 0.53805 0.0
C304 C 0.93478 0.02606 0.51678 0.0
O305 O 0.03365 0.99449 0.55918 0.0
O306 O 0.06524 0.96733 0.53103 0.0
C307 C 0.99842 0.02011 0.59951 0.0
C308 C 0.05473 0.97435 0.55674 0.0
Zn309 Zn 0.48896 0.05306 0.98426 0.0
Zn310 Zn 0.55449 0.9872 0.05733 0.0
Zn311 Zn 0.52181 0.0193 0.01995 0.0
C312 C 0.59553 0.01284 0.01712 0.0
C313 C 0.51531 0.94669 0.02822 0.0
O314 O 0.49363 0.05028 0.04833 0.0
O315 O 0.46154 0.0707 0.01532 0.0
C316 C 0.54912 0.0694 0.97335 0.0
O317 O 0.57064 0.02447 0.00672 0.0
O318 O 0.59489 0.99544 0.03992 0.0
O319 O 0.53502 0.94784 0.04906 0.0
O320 O 0.50765 0.97094 0.01362 0.0
O321 O 0.52239 0.07812 0.96751 0.0
O322 O 0.55351 0.0467 0.99143 0.0
O323 O 0.49249 0.98868 0.99165 0.0
O324 O 0.47294 0.02059 0.95802 0.0
C325 C 0.47651 0.99379 0.9675 0.0
O326 O 0.51323 0.03442 0.06792 0.0
O327 O 0.54414 0.00626 0.09605 0.0
C328 C 0.47039 0.06719 0.0424 0.0
C329 C 0.52434 0.02678 0.09404 0.0
Zn330 Zn 0.5451 0.53295 0.55249 0.0
Zn331 Zn 0.47673 0.47418 0.46981 0.0
Zn332 Zn 0.51031 0.50293 0.51068 0.0
C333 C 0.51216 0.43035 0.49805 0.0
C334 C 0.51041 0.51568 0.43736 0.0
O335 O 0.48003 0.52845 0.54211 0.0
O336 O 0.51066 0.55098 0.57523 0.0
C337 C 0.55806 0.4704 0.55699 0.0
O338 O 0.52106 0.45371 0.51332 0.0
O339 O 0.49258 0.43308 0.47722 0.0
O340 O 0.49129 0.49473 0.43309 0.0
O341 O 0.51981 0.52192 0.46444 0.0
O342 O 0.56454 0.49557 0.56914 0.0
O343 O 0.53884 0.46893 0.53486 0.0
O344 O 0.53973 0.53479 0.48586 0.0
O345 O 0.56665 0.55842 0.52137 0.0
C346 C 0.56011 0.55438 0.49367 0.0
O347 O 0.46219 0.50999 0.52291 0.0
O348 O 0.43673 0.48604 0.48665 0.0
C349 C 0.48413 0.54575 0.56542 0.0
C350 C 0.43684 0.50166 0.51069 0.0
Zn351 Zn 0.06039 0.57053 0.98121 0.0
Zn352 Zn 0.99515 0.49471 0.0463 0.0
Zn353 Zn 0.02724 0.53389 0.0151 0.0
C354 C 0.05502 0.4829 0.06102 0.0
C355 C 0.98063 0.4834 0.98661 0.0
O356 O 0.0103 0.58108 0.02307 0.0
O357 O 0.0392 0.60825 0.992 0.0
C358 C 0.10053 0.54243 0.02095 0.0
O359 O 0.05876 0.50728 0.04509 0.0
O360 O 0.02888 0.47141 0.06394 0.0
O361 O 0.97248 0.47524 0.01286 0.0
O362 O 0.00129 0.50403 0.98327 0.0
O363 O 0.1004 0.56162 0.99964 0.0
O364 O 0.07561 0.52964 0.02974 0.0
O365 O 0.02243 0.52069 0.96638 0.0
O366 O 0.05121 0.55331 0.94102 0.0
C367 C 0.0335 0.53072 0.94112 0.0
O368 O 0.99465 0.5606 0.04237 0.0
O369 O 0.97439 0.5252 0.07193 0.0
C370 C 0.01793 0.60677 0.01114 0.0
C371 C 0.97692 0.55277 0.06437 0.0
C372 C 0.16085 0.17651 0.39373 0.0
C373 C 0.15461 0.17254 0.36274 0.0
C374 C 0.14448 0.16026 0.41591 0.0
C375 C 0.1222 0.13882 0.40672 0.0
C376 C 0.11544 0.13531 0.37542 0.0
C377 C 0.13149 0.15249 0.35384 0.0
C378 C 0.15138 0.16556 0.44909 0.0
C379 C 0.09212 0.11249 0.36461 0.0
C380 C 0.10808 0.06865 0.45465 0.0
C381 C 0.07862 0.07374 0.46572 0.0
C382 C 0.12283 0.09011 0.43628 0.0
C383 C 0.10811 0.11782 0.42931 0.0
C384 C 0.07902 0.12385 0.44176 0.0
C385 C 0.06427 0.10135 0.4591 0.0
C386 C 0.15357 0.08242 0.4231 0.0
C387 C 0.06277 0.1534 0.43578 0.0
H388 H 0.1785 0.19235 0.40056 0.0
H389 H 0.12673 0.14948 0.32984 0.0
H390 H 0.12994 0.1685 0.46201 0.0
H391 H 0.16319 0.14548 0.4587 0.0
H392 H 0.16601 0.18586 0.45263 0.0
H393 H 0.08906 0.11303 0.33954 0.0
H394 H 0.09922 0.08928 0.3714 0.0
H395 H 0.06984 0.11698 0.37547 0.0
H396 H 0.11933 0.04731 0.45959 0.0
H397 H 0.04114 0.10505 0.46659 0.0
H398 H 0.17038 0.10035 0.42884 0.0
H399 H 0.15192 0.08143 0.39794 0.0
H400 H 0.16232 0.06029 0.4315 0.0
H401 H 0.07899 0.17268 0.43421 0.0
H402 H 0.04594 0.15836 0.45391 0.0
H403 H 0.05035 0.15183 0.41386 0.0
C404 C 0.40951 0.86241 0.85961 0.0
C405 C 0.3784 0.86802 0.85486 0.0
C406 C 0.4265 0.87958 0.88057 0.0
C407 C 0.41227 0.90338 0.89674 0.0
C408 C 0.38068 0.90837 0.89299 0.0
C409 C 0.36411 0.89042 0.87243 0.0
C410 C 0.46 0.87312 0.88438 0.0
C411 C 0.36464 0.93371 0.90951 0.0
C412 C 0.45009 0.94326 0.96388 0.0
C413 C 0.46241 0.96897 0.94976 0.0
C414 C 0.43458 0.92107 0.94681 0.0
C415 C 0.43082 0.92509 0.91505 0.0
C416 C 0.44356 0.95092 0.90071 0.0
C417 C 0.45925 0.97243 0.91821 0.0
C418 C 0.42153 0.89378 0.96284 0.0
C419 C 0.4398 0.95641 0.867 0.0
H420 H 0.42098 0.84538 0.84613 0.0
H421 H 0.33995 0.89444 0.86968 0.0
H422 H 0.47345 0.89126 0.87312 0.0
H423 H 0.46629 0.8731 0.90879 0.0
H424 H 0.46649 0.85095 0.87432 0.0
H425 H 0.33967 0.93342 0.90555 0.0
H426 H 0.36894 0.9321 0.9343 0.0
H427 H 0.37376 0.95592 0.90172 0.0
H428 H 0.45159 0.94105 0.98835 0.0
H429 H 0.4687 0.99237 0.90718 0.0
H430 H 0.42768 0.87279 0.95044 0.0
H431 H 0.39634 0.89521 0.96309 0.0
H432 H 0.42973 0.89208 0.98667 0.0
H433 H 0.44898 0.93694 0.85401 0.0
H434 H 0.45152 0.97743 0.8593 0.0
H435 H 0.41526 0.9583 0.86131 0.0
C436 C 0.64929 0.33807 0.64524 0.0
C437 C 0.67001 0.35513 0.66259 0.0
C438 C 0.6301 0.35205 0.62382 0.0
C439 C 0.63162 0.3839 0.61955 0.0
C440 C 0.65363 0.40098 0.63579 0.0
C441 C 0.67235 0.38647 0.6572 0.0
C442 C 0.60729 0.33279 0.60701 0.0
C443 C 0.65649 0.43493 0.63162 0.0
C444 C 0.59594 0.42842 0.55451 0.0
C445 C 0.57213 0.44289 0.56972 0.0
C446 C 0.61439 0.40712 0.56972 0.0
C447 C 0.60856 0.4002 0.60067 0.0
C448 C 0.58268 0.41277 0.61502 0.0
C449 C 0.56506 0.43432 0.5995 0.0
C450 C 0.64156 0.39418 0.55343 0.0
C451 C 0.57488 0.40516 0.64755 0.0
H452 H 0.64766 0.31375 0.64876 0.0
H453 H 0.68796 0.40003 0.67063 0.0
H454 H 0.58496 0.33445 0.61858 0.0
H455 H 0.60446 0.34079 0.58331 0.0
H456 H 0.61405 0.3085 0.60664 0.0
H457 H 0.67662 0.4444 0.64366 0.0
H458 H 0.65833 0.44065 0.60712 0.0
H459 H 0.63579 0.44622 0.64047 0.0
H460 H 0.60142 0.43525 0.53146 0.0
H461 H 0.54652 0.44557 0.61113 0.0
H462 H 0.64538 0.37012 0.55986 0.0
H463 H 0.66218 0.40723 0.56 0.0
H464 H 0.63887 0.39567 0.52836 0.0
H465 H 0.57552 0.38023 0.65118 0.0
H466 H 0.55201 0.41364 0.65401 0.0
H467 H 0.59199 0.41555 0.66296 0.0
C468 C 0.89889 0.67774 0.16998 0.0
C469 C 0.8675 0.6722 0.17235 0.0
C470 C 0.91707 0.661 0.14993 0.0
C471 C 0.90368 0.63773 0.1322 0.0
C472 C 0.87187 0.63284 0.1335 0.0
C473 C 0.85414 0.65029 0.15335 0.0
C474 C 0.95086 0.66717 0.14898 0.0
C475 C 0.85674 0.60815 0.11506 0.0
C476 C 0.94771 0.60142 0.06738 0.0
C477 C 0.95939 0.57549 0.08158 0.0
C478 C 0.92989 0.62222 0.08365 0.0
C479 C 0.92326 0.61661 0.11464 0.0
C480 C 0.93499 0.59035 0.12902 0.0
C481 C 0.95292 0.57016 0.11231 0.0
C482 C 0.91796 0.65003 0.06767 0.0
C483 C 0.92828 0.58336 0.16196 0.0
H484 H 0.90961 0.69432 0.18473 0.0
H485 H 0.82983 0.64628 0.15447 0.0
H486 H 0.96299 0.6492 0.16185 0.0
H487 H 0.95933 0.66666 0.12528 0.0
H488 H 0.95673 0.68949 0.15918 0.0
H489 H 0.83154 0.60878 0.11686 0.0
H490 H 0.86311 0.61021 0.09077 0.0
H491 H 0.86473 0.58563 0.12309 0.0
H492 H 0.95174 0.60496 0.04337 0.0
H493 H 0.96184 0.55001 0.12335 0.0
H494 H 0.92468 0.67059 0.08055 0.0
H495 H 0.89274 0.6494 0.06697 0.0
H496 H 0.92662 0.65192 0.04405 0.0
H497 H 0.93665 0.6021 0.17659 0.0
H498 H 0.93902 0.56186 0.16967 0.0
H499 H 0.90334 0.58155 0.16542 0.0
C500 C 0.36777 0.13568 0.17651 0.0
C501 C 0.36143 0.16627 0.16989 0.0
C502 C 0.38856 0.11904 0.1589 0.0
C503 C 0.40263 0.13298 0.13354 0.0
C504 C 0.39759 0.16416 0.1277 0.0
C505 C 0.3775 0.18048 0.14618 0.0
C506 C 0.39457 0.08621 0.16669 0.0
C507 C 0.41254 0.18003 0.10116 0.0
C508 C 0.46854 0.09651 0.09098 0.0
C509 C 0.45334 0.08242 0.06688 0.0
C510 C 0.45243 0.11251 0.11338 0.0
C511 C 0.4203 0.11453 0.11139 0.0
C512 C 0.40488 0.10031 0.08692 0.0
C513 C 0.4216 0.08446 0.06498 0.0
C514 C 0.46994 0.12695 0.1391 0.0
C515 C 0.37076 0.10252 0.08343 0.0
H516 H 0.35569 0.12429 0.19469 0.0
H517 H 0.37386 0.20436 0.14152 0.0
H518 H 0.38431 0.07136 0.14906 0.0
H519 H 0.41943 0.08176 0.16692 0.0
H520 H 0.38497 0.07978 0.18914 0.0
H521 H 0.40712 0.20464 0.10033 0.0
H522 H 0.43761 0.17738 0.10249 0.0
H523 H 0.40488 0.16945 0.07958 0.0
H524 H 0.49312 0.09608 0.09158 0.0
H525 H 0.40982 0.07378 0.04612 0.0
H526 H 0.46935 0.11134 0.15885 0.0
H527 H 0.45982 0.14882 0.14627 0.0
H528 H 0.49411 0.13092 0.13293 0.0
H529 H 0.35937 0.09339 0.104 0.0
H530 H 0.36223 0.08989 0.06329 0.0
H531 H 0.36403 0.12669 0.08112 0.0
C532 C 0.1472 0.88553 0.68797 0.0
C533 C 0.16627 0.86655 0.67094 0.0
C534 C 0.12504 0.90367 0.67382 0.0
C535 C 0.12179 0.90287 0.64181 0.0
C536 C 0.13992 0.88262 0.62466 0.0
C537 C 0.16198 0.86486 0.63938 0.0
C538 C 0.10643 0.92469 0.69325 0.0
C539 C 0.13692 0.88061 0.59052 0.0
C540 C 0.05495 0.93453 0.597 0.0
C541 C 0.06836 0.96017 0.58377 0.0
C542 C 0.07127 0.91664 0.61794 0.0
C543 C 0.10158 0.92475 0.62556 0.0
C544 C 0.11402 0.95221 0.61419 0.0
C545 C 0.09737 0.9694 0.59309 0.0
C546 C 0.05691 0.88803 0.63024 0.0
C547 C 0.14569 0.9624 0.62278 0.0
H548 H 0.14989 0.88664 0.71243 0.0
H549 H 0.17673 0.85055 0.6259 0.0
H550 H 0.11859 0.94671 0.69525 0.0
H551 H 0.08373 0.92897 0.68321 0.0
H552 H 0.1034 0.91538 0.71654 0.0
H553 H 0.15077 0.86193 0.58084 0.0
H554 H 0.11277 0.87696 0.58402 0.0
H555 H 0.14441 0.90233 0.58006 0.0
H556 H 0.03246 0.92748 0.58962 0.0
H557 H 0.10758 0.98936 0.58279 0.0
H558 H 0.06036 0.88646 0.65519 0.0
H559 H 0.06803 0.86799 0.61984 0.0
H560 H 0.03213 0.88694 0.6253 0.0
H561 H 0.14863 0.9616 0.64783 0.0
H562 H 0.15068 0.98582 0.61474 0.0
H563 H 0.16264 0.94676 0.61269 0.0
C564 C 0.89171 0.39655 0.85167 0.0
C565 C 0.86125 0.39719 0.86102 0.0
C566 C 0.9142 0.41266 0.86777 0.0
C567 C 0.90587 0.42991 0.89357 0.0
C568 C 0.87482 0.43213 0.9018 0.0
C569 C 0.85293 0.41557 0.88556 0.0
C570 C 0.94697 0.40973 0.85823 0.0
C571 C 0.86488 0.45074 0.92878 0.0
C572 C 0.95732 0.4384 0.96196 0.0
C573 C 0.96566 0.46905 0.96022 0.0
C574 C 0.93946 0.42492 0.93929 0.0
C575 C 0.92948 0.44261 0.9143 0.0
C576 C 0.93941 0.47314 0.91146 0.0
C577 C 0.95718 0.48613 0.93469 0.0
C578 C 0.92985 0.39216 0.94301 0.0
C579 C 0.92987 0.49275 0.88499 0.0
H580 H 0.89817 0.3823 0.8327 0.0
H581 H 0.82928 0.41639 0.89248 0.0
H582 H 0.95917 0.4316 0.86098 0.0
H583 H 0.95843 0.39276 0.87297 0.0
H584 H 0.94902 0.40216 0.83426 0.0
H585 H 0.83971 0.4522 0.93057 0.0
H586 H 0.87384 0.4404 0.95001 0.0
H587 H 0.87431 0.47408 0.92717 0.0
H588 H 0.96407 0.42512 0.98163 0.0
H589 H 0.96333 0.50996 0.93347 0.0
H590 H 0.93449 0.37928 0.92189 0.0
H591 H 0.90499 0.391 0.94721 0.0
H592 H 0.94176 0.38084 0.96222 0.0
H593 H 0.92718 0.47929 0.86387 0.0
H594 H 0.94665 0.51122 0.88083 0.0
H595 H 0.90762 0.50334 0.89022 0.0
C596 C 0.6856 0.63716 0.39744 0.0
C597 C 0.6753 0.65573 0.37371 0.0
C598 C 0.66519 0.61955 0.41445 0.0
C599 C 0.63365 0.62108 0.40798 0.0
C600 C 0.62321 0.63937 0.38359 0.0
C601 C 0.64425 0.65632 0.36651 0.0
C602 C 0.67733 0.5998 0.4398 0.0
C603 C 0.58978 0.64191 0.37629 0.0
C604 C 0.58535 0.55857 0.44303 0.0
C605 C 0.57645 0.57211 0.47036 0.0
C606 C 0.60277 0.5747 0.42167 0.0
C607 C 0.61173 0.60494 0.42808 0.0
C608 C 0.60181 0.61903 0.45519 0.0
C609 C 0.5845 0.60233 0.47614 0.0
C610 C 0.61277 0.55881 0.39304 0.0
C611 C 0.61031 0.65144 0.46256 0.0
H612 H 0.70971 0.63652 0.4027 0.0
H613 H 0.63637 0.67081 0.34817 0.0
H614 H 0.66883 0.60815 0.46198 0.0
H615 H 0.66904 0.57614 0.43703 0.0
H616 H 0.7026 0.59957 0.44053 0.0
H617 H 0.58568 0.65332 0.35412 0.0
H618 H 0.57906 0.61912 0.37585 0.0
H619 H 0.57833 0.65517 0.39435 0.0
H620 H 0.57959 0.535 0.43881 0.0
H621 H 0.57746 0.61285 0.49723 0.0
H622 H 0.63704 0.55231 0.39532 0.0
H623 H 0.61083 0.57404 0.37303 0.0
H624 H 0.59918 0.53795 0.38866 0.0
H625 H 0.63523 0.65312 0.46634 0.0
H626 H 0.59854 0.65987 0.4832 0.0
H627 H 0.60458 0.66656 0.44319 0.0
C628 C 0.15046 0.38933 0.17824 0.0
C629 C 0.17547 0.3735 0.16642 0.0
C630 C 0.13451 0.41055 0.16056 0.0
C631 C 0.14427 0.41684 0.13057 0.0
C632 C 0.17104 0.40305 0.11943 0.0
C633 C 0.18606 0.38121 0.13727 0.0
C634 C 0.10607 0.42478 0.17336 0.0
C635 C 0.18283 0.41011 0.08799 0.0
C636 C 0.08035 0.43506 0.0759 0.0
C637 C 0.08077 0.46686 0.07539 0.0
C638 C 0.10168 0.41861 0.09284 0.0
C639 C 0.12414 0.43435 0.10972 0.0
C640 C 0.12556 0.46649 0.10824 0.0
C641 C 0.10365 0.48245 0.09117 0.0
C642 C 0.09913 0.38439 0.09385 0.0
C643 C 0.14903 0.48412 0.12602 0.0
H644 H 0.14267 0.38448 0.20108 0.0
H645 H 0.20528 0.36926 0.12769 0.0
H646 H 0.10698 0.44981 0.17083 0.0
H647 H 0.08593 0.4166 0.16046 0.0
H648 H 0.10274 0.41919 0.19776 0.0
H649 H 0.20641 0.40173 0.0847 0.0
H650 H 0.16791 0.3992 0.07079 0.0
H651 H 0.18241 0.43495 0.0837 0.0
H652 H 0.06264 0.42297 0.06365 0.0
H653 H 0.10337 0.50701 0.09158 0.0
H654 H 0.09403 0.3769 0.1174 0.0
H655 H 0.12105 0.37391 0.08722 0.0
H656 H 0.081 0.37562 0.07856 0.0
H657 H 0.14109 0.48688 0.14976 0.0
H658 H 0.15261 0.50708 0.1163 0.0
H659 H 0.1711 0.47199 0.12671 0.0
C660 C 0.6811 0.15283 0.87833 0.0
C661 C 0.68023 0.18377 0.88572 0.0
C662 C 0.66376 0.13153 0.89471 0.0
C663 C 0.64449 0.14159 0.91836 0.0
C664 C 0.64462 0.17261 0.92675 0.0
C665 C 0.66267 0.19329 0.91046 0.0
C666 C 0.66514 0.09846 0.88592 0.0
C667 C 0.62438 0.18426 0.95181 0.0
C668 C 0.56983 0.10036 0.93085 0.0
C669 C 0.57475 0.08564 0.95871 0.0
C670 C 0.59263 0.118 0.91728 0.0
C671 C 0.62136 0.12068 0.93164 0.0
C672 C 0.6269 0.10499 0.95927 0.0
C673 C 0.60325 0.08819 0.97282 0.0
C674 C 0.58554 0.13461 0.88802 0.0
C675 C 0.65724 0.10673 0.97527 0.0
H676 H 0.69503 0.14537 0.85948 0.0
H677 H 0.66192 0.21722 0.91616 0.0
H678 H 0.66627 0.08392 0.90651 0.0
H679 H 0.64416 0.09218 0.87333 0.0
H680 H 0.68507 0.0935 0.87129 0.0
H681 H 0.62844 0.20868 0.95672 0.0
H682 H 0.60017 0.18124 0.94523 0.0
H683 H 0.62819 0.17103 0.97294 0.0
H684 H 0.54782 0.09852 0.91982 0.0
H685 H 0.60684 0.07784 0.99486 0.0
H686 H 0.60198 0.12805 0.87013 0.0
H687 H 0.58788 0.15945 0.89155 0.0
H688 H 0.56217 0.12981 0.87961 0.0
H689 H 0.67629 0.10919 0.95895 0.0
H690 H 0.66125 0.08624 0.98949 0.0
H691 H 0.65746 0.1268 0.99047 0.0
C692 C 0.85715 0.8903 0.37798 0.0
C693 C 0.86505 0.85953 0.37893 0.0
C694 C 0.87414 0.91196 0.39423 0.0
C695 C 0.89922 0.9024 0.41212 0.0
C696 C 0.90635 0.87111 0.41407 0.0
C697 C 0.88937 0.8501 0.39718 0.0
C698 C 0.86609 0.94507 0.39095 0.0
C699 C 0.93248 0.85988 0.43339 0.0
C700 C 0.96775 0.95219 0.42783 0.0
C701 C 0.96319 0.96009 0.45828 0.0
C702 C 0.94612 0.93493 0.41197 0.0
C703 C 0.91954 0.92491 0.42714 0.0
C704 C 0.91416 0.93404 0.4575 0.0
C705 C 0.93622 0.95139 0.47282 0.0
C706 C 0.95227 0.92643 0.37934 0.0
C707 C 0.88589 0.92427 0.47432 0.0
H708 H 0.83835 0.89753 0.3637 0.0
H709 H 0.89518 0.82619 0.39807 0.0
H710 H 0.87052 0.9577 0.41226 0.0
H711 H 0.88042 0.95534 0.3729 0.0
H712 H 0.84185 0.94809 0.38442 0.0
H713 H 0.9336 0.83469 0.4342 0.0
H714 H 0.95429 0.86863 0.42415 0.0
H715 H 0.93029 0.86856 0.45694 0.0
H716 H 0.98857 0.95911 0.41655 0.0
H717 H 0.93292 0.95707 0.49653 0.0
H718 H 0.93228 0.93198 0.36493 0.0
H719 H 0.95606 0.90159 0.37769 0.0
H720 H 0.97255 0.93832 0.37004 0.0
H721 H 0.86543 0.92684 0.45974 0.0
H722 H 0.88253 0.93756 0.49549 0.0
H723 H 0.88781 0.8999 0.48043 0.0
C724 C 0.39238 0.67635 0.63861 0.0
C725 C 0.36517 0.6698 0.65384 0.0
C726 C 0.40799 0.65379 0.62255 0.0
C727 C 0.39635 0.62377 0.62199 0.0
C728 C 0.36835 0.6172 0.63653 0.0
C729 C 0.35299 0.64037 0.65219 0.0
C730 C 0.43748 0.66194 0.60692 0.0
C731 C 0.35527 0.58551 0.63671 0.0
C732 C 0.4346 0.57369 0.56316 0.0
C733 C 0.45838 0.56122 0.58033 0.0
C734 C 0.41266 0.5924 0.57683 0.0
C735 C 0.41501 0.59916 0.60824 0.0
C736 C 0.43792 0.58503 0.62592 0.0
C737 C 0.45941 0.56639 0.61172 0.0
C738 C 0.38826 0.60643 0.5572 0.0
C739 C 0.44088 0.59104 0.65958 0.0
H740 H 0.40158 0.6992 0.63944 0.0
H741 H 0.33198 0.63523 0.66402 0.0
H742 H 0.4566 0.64967 0.6179 0.0
H743 H 0.43668 0.65478 0.58276 0.0
H744 H 0.44238 0.68668 0.60781 0.0
H745 H 0.33071 0.58542 0.64264 0.0
H746 H 0.35822 0.5745 0.6143 0.0
H747 H 0.3676 0.57157 0.65375 0.0
H748 H 0.43393 0.57 0.53882 0.0
H749 H 0.47771 0.5566 0.62507 0.0
H750 H 0.39496 0.63004 0.55139 0.0
H751 H 0.36622 0.60742 0.56939 0.0
H752 H 0.385 0.59359 0.53571 0.0
H753 H 0.44813 0.61491 0.66325 0.0
H754 H 0.45777 0.57585 0.67062 0.0
H755 H 0.41859 0.58796 0.67097 0.0
C756 C 0.00224 0.99744 0.77423 0.0
C757 C 0.99901 0.96736 0.78425 0.0
C758 C 0.00907 0.00401 0.7438 0.0
C759 C 0.01287 0.97991 0.72291 0.0
C760 C 0.01284 0.94956 0.73358 0.0
C761 C 0.00573 0.94362 0.76412 0.0
C762 C 0.00955 0.03672 0.73349 0.0
C763 C 0.01743 0.92303 0.71244 0.0
C764 C 0.97829 0.99658 0.64612 0.0
C765 C 0.00363 0.00544 0.62908 0.0
C766 C 0.98139 0.98685 0.6762 0.0
C767 C 0.01063 0.98633 0.68978 0.0
C768 C 0.03658 0.99406 0.67219 0.0
C769 C 0.03275 0.00339 0.64181 0.0
C770 C 0.95308 0.97865 0.6939 0.0
C771 C 0.06815 0.99457 0.6856 0.0
H772 H 0.99796 0.0159 0.78989 0.0
H773 H 0.00343 0.92025 0.7716 0.0
H774 H 0.03004 0.04125 0.71952 0.0
H775 H 0.9893 0.04126 0.71906 0.0
H776 H 0.00936 0.05279 0.75292 0.0
H777 H 0.03 0.90452 0.72415 0.0
H778 H 0.99488 0.91385 0.70563 0.0
H779 H 0.02997 0.9295 0.69156 0.0
H780 H 0.95578 0.99811 0.63606 0.0
H781 H 0.0523 0.01069 0.62867 0.0
H782 H 0.95035 0.99446 0.71331 0.0
H783 H 0.95517 0.95538 0.70334 0.0
H784 H 0.93217 0.97965 0.6797 0.0
H785 H 0.07386 0.01816 0.69237 0.0
H786 H 0.08516 0.98747 0.6684 0.0
H787 H 0.0702 0.9798 0.70594 0.0
C788 C 0.55936 0.05594 0.25765 0.0
C789 C 0.54221 0.07449 0.27697 0.0
C790 C 0.55023 0.05048 0.22764 0.0
C791 C 0.52355 0.06445 0.21619 0.0
C792 C 0.50575 0.0828 0.2356 0.0
C793 C 0.51524 0.08753 0.26578 0.0
C794 C 0.56966 0.03021 0.20796 0.0
C795 C 0.47733 0.09844 0.22443 0.0
C796 C 0.53084 0.06848 0.13097 0.0
C797 C 0.51554 0.042 0.1223 0.0
C798 C 0.53055 0.07823 0.16131 0.0
C799 C 0.5156 0.06034 0.18354 0.0
C800 C 0.49808 0.03491 0.17437 0.0
C801 C 0.49833 0.02598 0.14375 0.0
C802 C 0.54848 0.10618 0.16999 0.0
C803 C 0.48178 0.01524 0.19728 0.0
H804 H 0.58055 0.04625 0.26565 0.0
H805 H 0.50156 0.10161 0.28055 0.0
H806 H 0.55549 0.01211 0.19752 0.0
H807 H 0.57981 0.0437 0.18921 0.0
H808 H 0.5884 0.01931 0.22097 0.0
H809 H 0.46212 0.10475 0.24352 0.0
H810 H 0.48392 0.11959 0.21236 0.0
H811 H 0.4644 0.08398 0.20831 0.0
H812 H 0.54461 0.0805 0.1144 0.0
H813 H 0.48705 0.00511 0.13702 0.0
H814 H 0.56987 0.09931 0.18153 0.0
H815 H 0.53531 0.1203 0.18613 0.0
H816 H 0.55443 0.12019 0.14983 0.0
H817 H 0.49874 0.00168 0.21016 0.0
H818 H 0.46548 0.99938 0.18623 0.0
H819 H 0.46928 0.02941 0.21388 0.0
C820 C 0.51815 0.5992 0.27555 0.0
C821 C 0.48711 0.59691 0.26826 0.0
C822 C 0.52898 0.59081 0.30448 0.0
C823 C 0.50822 0.57992 0.3266 0.0
C824 C 0.47669 0.57908 0.31975 0.0
C825 C 0.46657 0.58779 0.29084 0.0
C826 C 0.56278 0.59273 0.3103 0.0
C827 C 0.45365 0.56729 0.34238 0.0
C828 C 0.525 0.51841 0.38329 0.0
C829 C 0.5198 0.5336 0.41069 0.0
C830 C 0.52481 0.53408 0.3556 0.0
C831 C 0.51889 0.56564 0.35538 0.0
C832 C 0.51741 0.58163 0.38327 0.0
C833 C 0.51773 0.56532 0.41079 0.0
C834 C 0.52784 0.51633 0.32645 0.0
C835 C 0.51257 0.61549 0.38416 0.0
H836 H 0.53424 0.60635 0.2583 0.0
H837 H 0.44246 0.58678 0.28564 0.0
H838 H 0.57036 0.61667 0.30772 0.0
H839 H 0.56961 0.58454 0.33312 0.0
H840 H 0.57506 0.57927 0.29291 0.0
H841 H 0.42996 0.56858 0.33362 0.0
H842 H 0.45872 0.54325 0.34804 0.0
H843 H 0.45503 0.58051 0.36376 0.0
H844 H 0.52707 0.49387 0.38337 0.0
H845 H 0.51389 0.57711 0.43204 0.0
H846 H 0.54484 0.5273 0.31137 0.0
H847 H 0.5057 0.51616 0.31424 0.0
H848 H 0.53487 0.49246 0.33058 0.0
H849 H 0.52242 0.62686 0.36389 0.0
H850 H 0.52286 0.62545 0.40498 0.0
H851 H 0.48781 0.62027 0.38462 0.0
C852 C 0.07647 0.45995 0.78973 0.0
C853 C 0.05495 0.45504 0.76672 0.0
C854 C 0.06757 0.46892 0.81886 0.0
C855 C 0.03628 0.473 0.82529 0.0
C856 C 0.01427 0.46666 0.80253 0.0
C857 C 0.02391 0.45762 0.77349 0.0
C858 C 0.09188 0.47557 0.8423 0.0
C859 C 0.98061 0.47068 0.80778 0.0
C860 C 0.02564 0.48386 0.90993 0.0
C861 C 0.02718 0.51556 0.91192 0.0
C862 C 0.02539 0.4694 0.8815 0.0
C863 C 0.02765 0.48714 0.85468 0.0
C864 C 0.02665 0.51918 0.85665 0.0
C865 C 0.02645 0.53299 0.88527 0.0
C866 C 0.02501 0.43518 0.88056 0.0
C867 C 0.02813 0.53894 0.8286 0.0
H868 H 0.10047 0.45734 0.78471 0.0
H869 H 0.00715 0.45382 0.75576 0.0
H870 H 0.09082 0.49983 0.84902 0.0
H871 H 0.08792 0.46173 0.86301 0.0
H872 H 0.11514 0.47074 0.83377 0.0
H873 H 0.97225 0.48973 0.79348 0.0
H874 H 0.96821 0.44996 0.8004 0.0
H875 H 0.97483 0.47547 0.83177 0.0
H876 H 0.0263 0.47029 0.9305 0.0
H877 H 0.0272 0.55755 0.88682 0.0
H878 H 0.04854 0.42663 0.88361 0.0
H879 H 0.01605 0.42644 0.85866 0.0
H880 H 0.01096 0.42586 0.89939 0.0
H881 H 0.05042 0.53584 0.81722 0.0
H882 H 0.02529 0.56341 0.83395 0.0
H883 H 0.01012 0.53212 0.81226 0.0
C884 C 0.74898 0.96454 0.95285 0.0
C885 C 0.77212 0.98578 0.94726 0.0
C886 C 0.7194 0.97383 0.96001 0.0
C887 C 0.71265 0.00521 0.96162 0.0
C888 C 0.7354 0.0268 0.95422 0.0
C889 C 0.76494 0.01683 0.9471 0.0
C890 C 0.69574 0.94998 0.96736 0.0
C891 C 0.72879 0.06038 0.95492 0.0
C892 C 0.62783 0.0187 0.97051 0.0
C893 C 0.6252 0.01802 0.00224 0.0
C894 C 0.65659 0.01733 0.95657 0.0
C895 C 0.68306 0.01484 0.97489 0.0
C896 C 0.68048 0.01674 0.00689 0.0
C897 C 0.6516 0.01821 0.02013 0.0
C898 C 0.6582 0.01603 0.92237 0.0
C899 C 0.70805 0.01461 0.02736 0.0
H900 H 0.75418 0.9405 0.9522 0.0
H901 H 0.78269 0.03336 0.9426 0.0
H902 H 0.68935 0.9516 0.99169 0.0
H903 H 0.67485 0.95387 0.95371 0.0
H904 H 0.704 0.92659 0.96289 0.0
H905 H 0.74847 0.07422 0.94714 0.0
H906 H 0.70893 0.06546 0.9402 0.0
H907 H 0.72277 0.06739 0.97835 0.0
H908 H 0.60743 0.01855 0.95661 0.0
H909 H 0.6496 0.01805 0.0447 0.0
H910 H 0.6575 0.99194 0.91505 0.0
H911 H 0.67958 0.02626 0.91369 0.0
H912 H 0.63854 0.0279 0.91181 0.0
H913 H 0.71734 0.99122 0.02649 0.0
H914 H 0.70255 0.02002 0.05138 0.0
H915 H 0.72618 0.03032 0.01952 0.0
C916 C 0.76789 0.0178 0.44291 0.0
C917 C 0.76035 0.04858 0.44616 0.0
C918 C 0.79743 0.00739 0.44947 0.0
C919 C 0.81981 0.02826 0.45968 0.0
C920 C 0.81261 0.05955 0.46151 0.0
C921 C 0.78309 0.06928 0.4546 0.0
C922 C 0.80378 0.97386 0.44687 0.0
C923 C 0.83567 0.08269 0.4723 0.0
C924 C 0.88049 0.01175 0.51751 0.0
C925 C 0.90688 0.01702 0.50054 0.0
C926 C 0.85179 0.01188 0.50369 0.0
C927 C 0.8495 0.01777 0.47215 0.0
C928 C 0.87632 0.01942 0.45435 0.0
C929 C 0.9049 0.0192 0.46884 0.0
C930 C 0.82386 0.00892 0.5234 0.0
C931 C 0.87492 0.02433 0.42047 0.0
H932 H 0.75046 0.00162 0.43634 0.0
H933 H 0.77763 0.09321 0.45635 0.0
H934 H 0.82841 0.96883 0.44553 0.0
H935 H 0.79432 0.96203 0.46706 0.0
H936 H 0.79229 0.96431 0.42649 0.0
H937 H 0.82678 0.10626 0.47128 0.0
H938 H 0.84229 0.07764 0.49614 0.0
H939 H 0.85654 0.08148 0.45825 0.0
H940 H 0.88217 0.00962 0.54203 0.0
H941 H 0.92537 0.0231 0.45568 0.0
H942 H 0.8076 0.99249 0.51325 0.0
H943 H 0.81224 0.03122 0.52481 0.0
H944 H 0.82952 0.00129 0.54682 0.0
H945 H 0.85445 0.01343 0.4104 0.0
H946 H 0.89555 0.01522 0.40918 0.0
H947 H 0.87377 0.04904 0.41567 0.0
C948 C 0.27098 0.53546 0.08845 0.0
C949 C 0.28396 0.56183 0.0759 0.0
C950 C 0.24075 0.52713 0.0819 0.0
C951 C 0.22306 0.54564 0.06238 0.0
C952 C 0.23624 0.57191 0.04917 0.0
C953 C 0.26635 0.57975 0.05622 0.0
C954 C 0.22767 0.49917 0.09689 0.0
C955 C 0.21832 0.59213 0.02791 0.0
C956 C 0.15226 0.52044 0.02015 0.0
C957 C 0.12971 0.53623 0.03593 0.0
C958 C 0.18265 0.52115 0.03003 0.0
C959 C 0.19054 0.53848 0.05597 0.0
C960 C 0.16737 0.55266 0.07313 0.0
C961 C 0.13716 0.55155 0.06274 0.0
C962 C 0.20662 0.50533 0.01141 0.0
C963 C 0.17475 0.57064 0.10137 0.0
H964 H 0.28441 0.52128 0.10348 0.0
H965 H 0.27583 0.60048 0.04686 0.0
H966 H 0.21604 0.50606 0.11812 0.0
H967 H 0.21076 0.48759 0.08215 0.0
H968 H 0.24579 0.48271 0.10306 0.0
H969 H 0.23232 0.61096 0.01851 0.0
H970 H 0.20911 0.5786 0.00871 0.0
H971 H 0.19868 0.60206 0.04013 0.0
H972 H 0.14639 0.509 0.99913 0.0
H973 H 0.11965 0.56411 0.0746 0.0
H974 H 0.22178 0.49178 0.02636 0.0
H975 H 0.22094 0.52253 0.99972 0.0
H976 H 0.19649 0.4901 0.99399 0.0
H977 H 0.19022 0.55754 0.11641 0.0
H978 H 0.15397 0.57664 0.11435 0.0
H979 H 0.18668 0.59193 0.09493 0.0
C980 C 0.26785 0.51338 0.58061 0.0
C981 C 0.25977 0.48255 0.58047 0.0
C982 C 0.29736 0.52269 0.57247 0.0
C983 C 0.31914 0.50055 0.56414 0.0
C984 C 0.31131 0.46935 0.56522 0.0
C985 C 0.2818 0.46078 0.57343 0.0
C986 C 0.30426 0.55626 0.57169 0.0
C987 C 0.33376 0.44493 0.55652 0.0
C988 C 0.38153 0.5121 0.50693 0.0
C989 C 0.40744 0.50847 0.52515 0.0
C990 C 0.35244 0.5126 0.51979 0.0
C991 C 0.34928 0.50926 0.55161 0.0
C992 C 0.37551 0.50874 0.57035 0.0
C993 C 0.40439 0.50782 0.55682 0.0
C994 C 0.32502 0.51423 0.49913 0.0
C995 C 0.37326 0.50669 0.60448 0.0
H996 H 0.25088 0.53031 0.5861 0.0
H997 H 0.27579 0.43689 0.57401 0.0
H998 H 0.29579 0.56721 0.59275 0.0
H999 H 0.32884 0.56137 0.56924 0.0
H1000 H 0.29191 0.56673 0.55231 0.0
H1001 H 0.32417 0.42171 0.55914 0.0
H1002 H 0.34079 0.44804 0.5325 0.0
H1003 H 0.35451 0.44671 0.57082 0.0
H1004 H 0.38393 0.51307 0.48242 0.0
H1005 H 0.42437 0.50484 0.571 0.0
H1006 H 0.30901 0.53183 0.50732 0.0
H1007 H 0.31282 0.49212 0.49948 0.0
H1008 H 0.33134 0.51956 0.47527 0.0
H1009 H 0.35227 0.51768 0.61303 0.0
H1010 H 0.39332 0.51748 0.61551 0.0
H1011 H 0.37273 0.48244 0.61134 0.0
C1012 C 0.93926 0.77106 0.00981 0.0
C1013 C 0.96301 0.78933 0.9987 0.0
C1014 C 0.94439 0.74077 0.01849 0.0
C1015 C 0.97396 0.72835 0.01588 0.0
C1016 C 0.99837 0.74731 0.00662 0.0
C1017 C 0.99264 0.77757 0.99846 0.0
C1018 C 0.9179 0.7219 0.0294 0.0
C1019 C 0.03025 0.73506 0.00308 0.0
C1020 C 0.00138 0.65088 0.04299 0.0
C1021 C 1.00005 0.63456 0.01574 0.0
C1022 C 0.99068 0.68102 0.04428 0.0
C1023 C 0.97886 0.69489 0.01763 0.0
C1024 C 0.97556 0.67749 0.99079 0.0
C1025 C 0.98621 0.6476 0.99022 0.0
C1026 C 0.99342 0.69853 0.07356 0.0
C1027 C 0.963 0.69117 0.96185 0.0
H1028 H 0.91627 0.77986 0.01023 0.0
H1029 H 0.01131 0.79173 0.99075 0.0
H1030 H 0.91683 0.69992 0.01719 0.0
H1031 H 0.921 0.71706 0.05393 0.0
H1032 H 0.89579 0.73372 0.02639 0.0
H1033 H 0.04707 0.75325 0.99807 0.0
H1034 H 0.03748 0.72299 0.02401 0.0
H1035 H 0.03066 0.71839 0.98419 0.0
H1036 H 0.01221 0.64071 0.06267 0.0
H1037 H 0.98537 0.63487 0.96915 0.0
H1038 H 0.97087 0.70774 0.08 0.0
H1039 H 0.00898 0.71817 0.07048 0.0
H1040 H 0.0022 0.68425 0.09246 0.0
H1041 H 0.94059 0.70181 0.96618 0.0
H1042 H 0.96022 0.67404 0.94354 0.0
H1043 H 0.9786 0.70925 0.9536 0.0
C1044 C 0.50034 0.77387 0.04144 0.0
C1045 C 0.47138 0.76051 0.03979 0.0
C1046 C 0.50489 0.80437 0.03333 0.0
C1047 C 0.47994 0.82193 0.02297 0.0
C1048 C 0.45115 0.8079 0.0191 0.0
C1049 C 0.44724 0.77737 0.02752 0.0
C1050 C 0.53594 0.81837 0.03817 0.0
C1051 C 0.42413 0.8253 0.0072 0.0
C1052 C 0.48649 0.9034 0.04871 0.0
C1053 C 0.49994 0.91736 0.0235 0.0
C1054 C 0.47797 0.87279 0.048 0.0
C1055 C 0.48315 0.85559 0.02136 0.0
C1056 C 0.49479 0.87016 0.99504 0.0
C1057 C 0.50329 0.90102 0.99646 0.0
C1058 C 0.46545 0.85835 0.07656 0.0
C1059 C 0.49959 0.85277 0.96599 0.0
H1060 H 0.51929 0.76078 0.05022 0.0
H1061 H 0.42477 0.76728 0.02609 0.0
H1062 H 0.5432 0.83111 0.01765 0.0
H1063 H 0.53489 0.83477 0.05726 0.0
H1064 H 0.55351 0.80108 0.04359 0.0
H1065 H 0.4025 0.81246 0.00983 0.0
H1066 H 0.42182 0.84741 0.01897 0.0
H1067 H 0.42758 0.82983 0.98268 0.0
H1068 H 0.4841 0.91615 0.06964 0.0
H1069 H 0.51392 0.91188 0.97705 0.0
H1070 H 0.48182 0.84127 0.08533 0.0
H1071 H 0.44382 0.84632 0.07153 0.0
H1072 H 0.46119 0.87527 0.09474 0.0
H1073 H 0.51669 0.83464 0.96965 0.0
H1074 H 0.50753 0.86768 0.94719 0.0
H1075 H 0.47805 0.84152 0.95906 0.0
C1076 C 0.08278 0.26561 0.52627 0.0
C1077 C 0.08123 0.27285 0.5573 0.0
C1078 C 0.07559 0.23623 0.51598 0.0
C1079 C 0.06659 0.21379 0.53723 0.0
C1080 C 0.06647 0.22065 0.56866 0.0
C1081 C 0.07386 0.25002 0.57827 0.0
C1082 C 0.07679 0.22937 0.48242 0.0
C1083 C 0.05732 0.19728 0.59215 0.0
C1084 C 0.00882 0.15257 0.52201 0.0
C1085 C 0.02666 0.1264 0.52452 0.0
C1086 C 0.02204 0.18147 0.52319 0.0
C1087 C 0.05391 0.18421 0.52703 0.0
C1088 C 0.07233 0.15785 0.5266 0.0
C1089 C 0.0584 0.12911 0.52574 0.0
C1090 C 0.00152 0.20894 0.52323 0.0
C1091 C 0.10646 0.15967 0.52971 0.0
H1092 H 0.08867 0.28312 0.50996 0.0
H1093 H 0.07352 0.25524 0.60233 0.0
H1094 H 0.0917 0.20951 0.47837 0.0
H1095 H 0.05376 0.22325 0.47399 0.0
H1096 H 0.08544 0.24891 0.46894 0.0
H1097 H 0.05993 0.20583 0.61575 0.0
H1098 H 0.03318 0.19066 0.58862 0.0
H1099 H 0.07131 0.17652 0.58964 0.0
H1100 H 0.98426 0.15043 0.52077 0.0
H1101 H 0.07224 0.10886 0.52778 0.0
H1102 H 0.01054 0.22682 0.50789 0.0
H1103 H 0.00068 0.21859 0.5465 0.0
H1104 H 0.97794 0.20324 0.51606 0.0
H1105 H 0.1157 0.18077 0.51943 0.0
H1106 H 0.11756 0.13981 0.51888 0.0
H1107 H 0.11258 0.15958 0.55419 0.0
C1108 C 0.59218 0.26821 0.50332 0.0
C1109 C 0.5693 0.24657 0.49781 0.0
C1110 C 0.5848 0.29836 0.51047 0.0
C1111 C 0.55386 0.30714 0.51162 0.0
C1112 C 0.5308 0.28479 0.5091 0.0
C1113 C 0.53881 0.25475 0.50236 0.0
C1114 C 0.61022 0.32119 0.51396 0.0
C1115 C 0.49757 0.2931 0.51095 0.0
C1116 C 0.52879 0.38757 0.53177 0.0
C1117 C 0.52586 0.40028 0.50275 0.0
C1118 C 0.53839 0.35732 0.5354 0.0
C1119 C 0.54559 0.33981 0.50935 0.0
C1120 C 0.54354 0.35315 0.4801 0.0
C1121 C 0.53355 0.38311 0.47721 0.0
C1122 C 0.53895 0.34413 0.56701 0.0
C1123 C 0.55072 0.33541 0.45163 0.0
H1124 H 0.61585 0.26221 0.50004 0.0
H1125 H 0.52103 0.23794 0.49914 0.0
H1126 H 0.61649 0.33014 0.49122 0.0
H1127 H 0.6034 0.34063 0.52838 0.0
H1128 H 0.63077 0.31044 0.524 0.0
H1129 H 0.48257 0.27276 0.51142 0.0
H1130 H 0.49326 0.3068 0.53162 0.0
H1131 H 0.49128 0.3072 0.49097 0.0
H1132 H 0.52222 0.40072 0.55148 0.0
H1133 H 0.53126 0.39308 0.45476 0.0
H1134 H 0.55281 0.3232 0.56864 0.0
H1135 H 0.51532 0.3385 0.57391 0.0
H1136 H 0.54772 0.36116 0.58344 0.0
H1137 H 0.5745 0.32706 0.45254 0.0
H1138 H 0.5479 0.34921 0.43066 0.0
H1139 H 0.53556 0.31527 0.45004 0.0
loop_
_geom_bond_atom_site_label_1
_geom_bond_atom_site_label_2
_geom_bond_distance
_geom_bond_site_symmetry_2
_ccdc_geom_bond_type
C0 C1 1.384 . S
C0 H13 0.947 . S
C0 C35 1.382 . S
C1 C0 1.384 . S
C1 C2 1.378 . S
C2 C1 1.378 . S
C2 C3 1.378 . S
C2 H14 0.952 . S
C3 C2 1.378 . S
C3 H15 0.950 . S
C3 C34 1.383 . S
H4 C23 0.947 . S
H5 C24 0.946 . S
H6 C26 0.953 . S
H7 C27 0.945 . S
H8 C29 0.952 . S
H9 C30 0.949 . S
H10 C32 0.950 . S
H11 C33 0.948 . S
H12 C35 0.951 . S
H13 C0 0.947 . S
H14 C2 0.952 . S
H15 C3 0.950 . S
N16 C19 1.382 . S
N16 C21 1.363 . S
N17 C19 1.371 . S
N17 C20 1.372 . S
N18 C20 1.361 . S
N18 C21 1.377 . S
C19 N16 1.382 . S
C19 N17 1.371 . S
C19 C22 1.480 . S
C20 N17 1.372 . S
C20 N18 1.361 . S
C20 C28 1.457 . S
C21 N16 1.363 . S
C21 N18 1.377 . S
C21 C34 1.479 . S
C22 C19 1.480 . S
C22 C23 1.383 . S
C22 C27 1.385 . S
C23 H4 0.947 . S
C23 C22 1.383 . S
C23 C24 1.388 . S
C24 H5 0.946 . S
C24 C23 1.388 . S
C24 C25 1.384 . S
C25 C24 1.384 . S
C25 C26 1.377 . S
C26 H6 0.953 . S
C26 C25 1.377 . S
C26 C27 1.369 . S
C27 H7 0.945 . S
C27 C22 1.385 . S
C27 C26 1.369 . S
C28 C20 1.457 . S
C28 C29 1.372 . S
C28 C33 1.364 . S
C29 H8 0.952 . S
C29 C28 1.372 . S
C29 C30 1.389 . S
C30 H9 0.949 . S
C30 C29 1.389 . S
C30 C31 1.387 . S
C31 C30 1.387 . S
C31 C32 1.372 . S
C32 H10 0.950 . S
C32 C31 1.372 . S
C32 C33 1.379 . S
C33 H11 0.948 . S
C33 C28 1.364 . S
C33 C32 1.379 . S
C34 C3 1.383 . S
C34 C21 1.479 . S
C34 C35 1.398 . S
C35 C0 1.382 . S
C35 H12 0.951 . S
C35 C34 1.398 . S
C36 C37 1.384 . S
C36 H49 0.947 . S
C36 C71 1.382 . S
C37 C36 1.384 . S
C37 C38 1.378 . S
C38 C37 1.378 . S
C38 C39 1.378 . S
C38 H50 0.952 . S
C39 C38 1.378 . S
C39 H51 0.950 . S
C39 C70 1.383 . S
H40 C59 0.947 . S
H41 C60 0.946 . S
H42 C62 0.953 . S
H43 C63 0.945 . S
H44 C65 0.952 . S
H45 C66 0.949 . S
H46 C68 0.950 . S
H47 C69 0.948 . S
H48 C71 0.951 . S
H49 C36 0.947 . S
H50 C38 0.952 . S
H51 C39 0.950 . S
N52 C55 1.382 . S
N52 C57 1.363 . S
N53 C55 1.371 . S
N53 C56 1.372 . S
N54 C56 1.361 . S
N54 C57 1.377 . S
C55 N52 1.382 . S
C55 N53 1.371 . S
C55 C58 1.480 . S
C56 N53 1.372 . S
C56 N54 1.361 . S
C56 C64 1.457 . S
C57 N52 1.363 . S
C57 N54 1.377 . S
C57 C70 1.479 . S
C58 C55 1.480 . S
C58 C59 1.383 . S
C58 C63 1.385 . S
C59 H40 0.947 . S
C59 C58 1.383 . S
C59 C60 1.388 . S
C60 H41 0.946 . S
C60 C59 1.388 . S
C60 C61 1.384 . S
C61 C60 1.384 . S
C61 C62 1.377 . S
C62 H42 0.953 . S
C62 C61 1.377 . S
C62 C63 1.369 . S
C63 H43 0.945 . S
C63 C58 1.385 . S
C63 C62 1.369 . S
C64 C56 1.457 . S
C64 C65 1.372 . S
C64 C69 1.364 . S
C65 H44 0.952 . S
C65 C64 1.372 . S
C65 C66 1.389 . S
C66 H45 0.949 . S
C66 C65 1.389 . S
C66 C67 1.387 . S
C67 C66 1.387 . S
C67 C68 1.372 . S
C68 H46 0.950 . S
C68 C67 1.372 . S
C68 C69 1.379 . S
C69 H47 0.948 . S
C69 C64 1.364 . S
C69 C68 1.379 . S
C70 C39 1.383 . S
C70 C57 1.479 . S
C70 C71 1.398 . S
C71 C36 1.382 . S
C71 H48 0.951 . S
C71 C70 1.398 . S
C72 C73 1.384 . S
C72 H85 0.947 . S
C72 C107 1.382 . S
C73 C72 1.384 . S
C73 C74 1.378 . S
C74 C73 1.378 . S
C74 C75 1.378 . S
C74 H86 0.952 . S
C75 C74 1.378 . S
C75 H87 0.950 . S
C75 C106 1.383 . S
H76 C95 0.947 . S
H77 C96 0.946 . S
H78 C98 0.953 . S
H79 C99 0.945 . S
H80 C101 0.952 . S
H81 C102 0.949 . S
H82 C104 0.950 . S
H83 C105 0.948 . S
H84 C107 0.951 . S
H85 C72 0.947 . S
H86 C74 0.952 . S
H87 C75 0.950 . S
N88 C91 1.382 . S
N88 C93 1.363 . S
N89 C91 1.371 . S
N89 C92 1.372 . S
N90 C92 1.361 . S
N90 C93 1.377 . S
C91 N88 1.382 . S
C91 N89 1.371 . S
C91 C94 1.480 . S
C92 N89 1.372 . S
C92 N90 1.361 . S
C92 C100 1.457 . S
C93 N88 1.363 . S
C93 N90 1.377 . S
C93 C106 1.479 . S
C94 C91 1.480 . S
C94 C95 1.383 . S
C94 C99 1.385 . S
C95 H76 0.947 . S
C95 C94 1.383 . S
C95 C96 1.388 . S
C96 H77 0.946 . S
C96 C95 1.388 . S
C96 C97 1.384 . S
C97 C96 1.384 . S
C97 C98 1.377 . S
C98 H78 0.953 . S
C98 C97 1.377 . S
C98 C99 1.369 . S
C99 H79 0.945 . S
C99 C94 1.385 . S
C99 C98 1.369 . S
C100 C92 1.457 . S
C100 C101 1.372 . S
C100 C105 1.364 . S
C101 H80 0.952 . S
C101 C100 1.372 . S
C101 C102 1.389 . S
C102 H81 0.949 . S
C102 C101 1.389 . S
C102 C103 1.387 . S
C103 C102 1.387 . S
C103 C104 1.372 . S
C104 H82 0.950 . S
C104 C103 1.372 . S
C104 C105 1.379 . S
C105 H83 0.948 . S
C105 C100 1.364 . S
C105 C104 1.379 . S
C106 C75 1.383 . S
C106 C93 1.479 . S
C106 C107 1.398 . S
C107 C72 1.382 . S
C107 H84 0.951 . S
C107 C106 1.398 . S
C108 C109 1.384 . S
C108 H121 0.947 . S
C108 C143 1.382 . S
C109 C108 1.384 . S
C109 C110 1.378 . S
C110 C109 1.378 . S
C110 C111 1.378 . S
C110 H122 0.952 . S
C111 C110 1.378 . S
C111 H123 0.950 . S
C111 C142 1.383 . S
H112 C131 0.947 . S
H113 C132 0.946 . S
H114 C134 0.953 . S
H115 C135 0.945 . S
H116 C137 0.952 . S
H117 C138 0.949 . S
H118 C140 0.950 . S
H119 C141 0.948 . S
H120 C143 0.951 . S
H121 C108 0.947 . S
H122 C110 0.952 . S
H123 C111 0.950 . S
N124 C127 1.382 . S
N124 C129 1.363 . S
N125 C127 1.371 . S
N125 C128 1.372 . S
N126 C128 1.361 . S
N126 C129 1.377 . S
C127 N124 1.382 . S
C127 N125 1.371 . S
C127 C130 1.480 . S
C128 N125 1.372 . S
C128 N126 1.361 . S
C128 C136 1.457 . S
C129 N124 1.363 . S
C129 N126 1.377 . S
C129 C142 1.479 . S
C130 C127 1.480 . S
C130 C131 1.383 . S
C130 C135 1.385 . S
C131 H112 0.947 . S
C131 C130 1.383 . S
C131 C132 1.388 . S
C132 H113 0.946 . S
C132 C131 1.388 . S
C132 C133 1.384 . S
C133 C132 1.384 . S
C133 C134 1.377 . S
C134 H114 0.953 . S
C134 C133 1.377 . S
C134 C135 1.369 . S
C135 H115 0.945 . S
C135 C130 1.385 . S
C135 C134 1.369 . S
C136 C128 1.457 . S
C136 C137 1.372 . S
C136 C141 1.364 . S
C137 H116 0.952 . S
C137 C136 1.372 . S
C137 C138 1.389 . S
C138 H117 0.949 . S
C138 C137 1.389 . S
C138 C139 1.387 . S
C139 C138 1.387 . S
C139 C140 1.372 . S
C140 H118 0.950 . S
C140 C139 1.372 . S
C140 C141 1.379 . S
C141 H119 0.948 . S
C141 C136 1.364 . S
C141 C140 1.379 . S
C142 C111 1.383 . S
C142 C129 1.479 . S
C142 C143 1.398 . S
C143 C108 1.382 . S
C143 H120 0.951 . S
C143 C142 1.398 . S
C144 C145 1.384 . S
C144 H157 0.947 1_565 S
C144 C179 1.382 . S
C145 C144 1.384 . S
C145 C146 1.378 1_556 S
C146 C145 1.378 1_554 S
C146 C147 1.378 1_554 S
C146 H158 0.952 . S
C147 C146 1.378 1_556 S
C147 H159 0.950 1_556 S
C147 C178 1.383 . S
H148 C167 0.947 . S
H149 C168 0.946 1_554 S
H150 C170 0.953 . S
H151 C171 0.955 . S
H152 C173 0.952 . S
H153 C174 0.949 1_455 S
H154 C176 0.950 . S
H155 C177 0.947 . S
H156 C179 0.951 . S
H157 C144 0.947 1_545 S
H158 C146 0.952 . S
H159 C147 0.950 1_554 S
N160 C163 1.382 . S
N160 C165 1.363 . S
N161 C163 1.371 . S
N161 C164 1.372 . S
N162 C164 1.361 . S
N162 C165 1.377 . S
C163 N160 1.382 . S
C163 N161 1.371 . S
C163 C166 1.480 . S
C164 N161 1.372 . S
C164 N162 1.361 . S
C164 C172 1.457 . S
C165 N160 1.363 . S
C165 N162 1.377 . S
C165 C178 1.479 . S
C166 C163 1.480 . S
C166 C167 1.383 . S
C166 C171 1.385 . S
C167 H148 0.947 . S
C167 C166 1.383 . S
C167 C168 1.388 . S
C168 H149 0.946 1_556 S
C168 C167 1.388 . S
C168 C169 1.384 . S
C169 C168 1.384 . S
C169 C170 1.377 1_655 S
C170 H150 0.953 . S
C170 C169 1.377 1_455 S
C170 C171 1.369 1_455 S
C171 H151 0.955 . S
C171 C166 1.385 . S
C171 C170 1.369 1_655 S
C172 C164 1.457 . S
C172 C173 1.372 . S
C172 C177 1.364 . S
C173 H152 0.952 . S
C173 C172 1.372 . S
C173 C174 1.389 . S
C174 H153 0.949 1_655 S
C174 C173 1.389 . S
C174 C175 1.387 . S
C175 C174 1.387 . S
C175 C176 1.372 1_565 S
C176 H154 0.950 . S
C176 C175 1.372 1_545 S
C176 C177 1.379 1_545 S
C177 H155 0.947 . S
C177 C172 1.364 . S
C177 C176 1.379 1_565 S
C178 C147 1.383 . S
C178 C165 1.479 . S
C178 C179 1.398 . S
C179 C144 1.382 . S
C179 H156 0.951 . S
C179 C178 1.398 . S
C180 C181 1.384 . S
C180 H193 0.947 . S
C180 C215 1.382 . S
C181 C180 1.384 . S
C181 C182 1.378 . S
C182 C181 1.378 . S
C182 C183 1.378 . S
C182 H194 0.952 . S
C183 C182 1.378 . S
C183 H195 0.950 . S
C183 C214 1.383 . S
H184 C203 0.947 . S
H185 C204 0.946 . S
H186 C206 0.953 . S
H187 C207 0.945 . S
H188 C209 0.952 . S
H189 C210 0.949 . S
H190 C212 0.950 . S
H191 C213 0.948 . S
H192 C215 0.951 . S
H193 C180 0.947 . S
H194 C182 0.952 . S
H195 C183 0.950 . S
N196 C199 1.382 . S
N196 C201 1.363 . S
N197 C199 1.371 . S
N197 C200 1.372 . S
N198 C200 1.361 . S
N198 C201 1.377 . S
C199 N196 1.382 . S
C199 N197 1.371 . S
C199 C202 1.480 . S
C200 N197 1.372 . S
C200 N198 1.361 . S
C200 C208 1.457 . S
C201 N196 1.363 . S
C201 N198 1.377 . S
C201 C214 1.479 . S
C202 C199 1.480 . S
C202 C203 1.383 . S
C202 C207 1.385 . S
C203 H184 0.947 . S
C203 C202 1.383 . S
C203 C204 1.388 . S
C204 H185 0.946 . S
C204 C203 1.388 . S
C204 C205 1.384 . S
C205 C204 1.384 . S
C205 C206 1.377 . S
C206 H186 0.953 . S
C206 C205 1.377 . S
C206 C207 1.369 . S
C207 H187 0.945 . S
C207 C202 1.385 . S
C207 C206 1.369 . S
C208 C200 1.457 . S
C208 C209 1.372 . S
C208 C213 1.364 . S
C209 H188 0.952 . S
C209 C208 1.372 . S
C209 C210 1.389 . S
C210 H189 0.949 . S
C210 C209 1.389 . S
C210 C211 1.387 . S
C211 C210 1.387 . S
C211 C212 1.372 . S
C212 H190 0.950 . S
C212 C211 1.372 . S
C212 C213 1.379 . S
C213 H191 0.948 . S
C213 C208 1.364 . S
C213 C212 1.379 . S
C214 C183 1.383 . S
C214 C201 1.479 . S
C214 C215 1.398 . S
C215 C180 1.382 . S
C215 H192 0.951 . S
C215 C214 1.398 . S
C216 C217 1.384 . S
C216 H229 0.947 . S
C216 C251 1.382 . S
C217 C216 1.384 . S
C217 C218 1.378 . S
C218 C217 1.378 . S
C218 C219 1.378 . S
C218 H230 0.952 . S
C219 C218 1.378 . S
C219 H231 0.950 . S
C219 C250 1.383 . S
H220 C239 0.947 . S
H221 C240 0.946 . S
H222 C242 0.953 . S
H223 C243 0.945 . S
H224 C245 0.952 . S
H225 C246 0.949 . S
H226 C248 0.950 . S
H227 C249 0.948 . S
H228 C251 0.951 . S
H229 C216 0.947 . S
H230 C218 0.952 . S
H231 C219 0.950 . S
N232 C235 1.382 . S
N232 C237 1.363 . S
N233 C235 1.371 . S
N233 C236 1.372 . S
N234 C236 1.361 . S
N234 C237 1.377 . S
C235 N232 1.382 . S
C235 N233 1.371 . S
C235 C238 1.480 . S
C236 N233 1.372 . S
C236 N234 1.361 . S
C236 C244 1.457 . S
C237 N232 1.363 . S
C237 N234 1.377 . S
C237 C250 1.479 . S
C238 C235 1.480 . S
C238 C239 1.383 . S
C238 C243 1.385 . S
C239 H220 0.947 . S
C239 C238 1.383 . S
C239 C240 1.388 . S
C240 H221 0.946 . S
C240 C239 1.388 . S
C240 C241 1.384 . S
C241 C240 1.384 . S
C241 C242 1.377 . S
C242 H222 0.953 . S
C242 C241 1.377 . S
C242 C243 1.369 . S
C243 H223 0.945 . S
C243 C238 1.385 . S
C243 C242 1.369 . S
C244 C236 1.457 . S
C244 C245 1.372 . S
C244 C249 1.364 . S
C245 H224 0.952 . S
C245 C244 1.372 . S
C245 C246 1.389 . S
C246 H225 0.949 . S
C246 C245 1.389 . S
C246 C247 1.387 . S
C247 C246 1.387 . S
C247 C248 1.372 . S
C248 H226 0.950 . S
C248 C247 1.372 . S
C248 C249 1.379 . S
C249 H227 0.948 . S
C249 C244 1.364 . S
C249 C248 1.379 . S
C250 C219 1.383 . S
C250 C237 1.479 . S
C250 C251 1.398 . S
C251 C216 1.382 . S
C251 H228 0.951 . S
C251 C250 1.398 . S
C252 C253 1.384 . S
C252 H265 0.947 . S
C252 C287 1.382 . S
C253 C252 1.384 . S
C253 C254 1.378 . S
C254 C253 1.378 . S
C254 C255 1.378 . S
C254 H266 0.952 . S
C255 C254 1.378 . S
C255 H267 0.950 . S
C255 C286 1.383 . S
H256 C275 0.947 . S
H257 C276 0.946 . S
H258 C278 0.953 . S
H259 C279 0.945 . S
H260 C281 0.952 . S
H261 C282 0.949 . S
H262 C284 0.950 . S
H263 C285 0.948 . S
H264 C287 0.951 . S
H265 C252 0.947 . S
H266 C254 0.952 . S
H267 C255 0.950 . S
N268 C271 1.382 . S
N268 C273 1.363 . S
N269 C271 1.371 . S
N269 C272 1.372 . S
N270 C272 1.361 . S
N270 C273 1.377 . S
C271 N268 1.382 . S
C271 N269 1.371 . S
C271 C274 1.480 . S
C272 N269 1.372 . S
C272 N270 1.361 . S
C272 C280 1.457 . S
C273 N268 1.363 . S
C273 N270 1.377 . S
C273 C286 1.479 . S
C274 C271 1.480 . S
C274 C275 1.383 . S
C274 C279 1.385 . S
C275 H256 0.947 . S
C275 C274 1.383 . S
C275 C276 1.388 . S
C276 H257 0.946 . S
C276 C275 1.388 . S
C276 C277 1.384 . S
C277 C276 1.384 . S
C277 C278 1.377 . S
C278 H258 0.953 . S
C278 C277 1.377 . S
C278 C279 1.369 . S
C279 H259 0.945 . S
C279 C274 1.385 . S
C279 C278 1.369 . S
C280 C272 1.457 . S
C280 C281 1.372 . S
C280 C285 1.364 . S
C281 H260 0.952 . S
C281 C280 1.372 . S
C281 C282 1.389 . S
C282 H261 0.949 . S
C282 C281 1.389 . S
C282 C283 1.387 . S
C283 C282 1.387 . S
C283 C284 1.372 . S
C284 H262 0.950 . S
C284 C283 1.372 . S
C284 C285 1.379 . S
C285 H263 0.948 . S
C285 C280 1.364 . S
C285 C284 1.379 . S
C286 C255 1.383 . S
C286 C273 1.479 . S
C286 C287 1.398 . S
C287 C252 1.382 . S
C287 H264 0.951 . S
C287 C286 1.398 . S
Zn288 O294 1.920 . S
Zn288 O300 1.898 . S
Zn288 O303 1.905 . S
Zn289 O297 1.905 1_565 S
Zn289 O298 1.898 . S
Zn289 O306 1.920 . S
Zn290 O293 2.080 1_455 S
Zn290 O296 2.114 . S
Zn290 O299 2.120 1_445 S
Zn290 O301 2.120 . S
Zn290 O302 2.114 1_455 S
Zn290 O305 2.080 . S
C291 O296 1.166 . S
C291 O297 1.182 . S
C292 O298 1.167 1_655 S
C292 O299 1.299 . S
O293 Zn290 2.080 1_655 S
O293 C307 1.305 . S
O294 Zn288 1.920 . S
O294 C307 1.234 . S
C295 O300 1.167 1_455 S
C295 O301 1.299 . S
O296 Zn290 2.114 . S
O296 C291 1.166 . S
O297 Zn289 1.905 1_545 S
O297 C291 1.182 . S
O298 Zn289 1.898 . S
O298 C292 1.167 1_455 S
O299 Zn290 2.120 1_665 S
O299 C292 1.299 . S
O300 Zn288 1.898 . S
O300 C295 1.167 1_655 S
O301 Zn290 2.120 . S
O301 C295 1.299 . S
O302 Zn290 2.114 1_655 S
O302 C304 1.166 . S
O303 Zn288 1.905 . S
O303 C304 1.182 . S
C304 O302 1.166 . S
C304 O303 1.182 . S
O305 Zn290 2.080 . S
O305 C308 1.305 1_545 S
O306 Zn289 1.920 . S
O306 C308 1.234 . S
C307 O293 1.305 . S
C307 O294 1.234 . S
C308 O305 1.305 1_565 S
C308 O306 1.234 . S
Zn309 O315 1.920 1_556 S
Zn309 O321 1.898 . S
Zn309 O324 1.905 . S
Zn310 O318 1.905 . S
Zn310 O319 1.898 . S
Zn310 O327 1.920 . S
Zn311 O314 2.080 . S
Zn311 O317 2.114 1_545 S
Zn311 O320 2.120 1_545 S
Zn311 O322 2.120 . S
Zn311 O323 2.114 1_544 S
Zn311 O326 2.080 . S
C312 O317 1.166 . S
C312 O318 1.182 . S
C313 O319 1.167 . S
C313 O320 1.299 . S
O314 Zn311 2.080 . S
O314 C328 1.305 . S
O315 Zn309 1.920 1_554 S
O315 C328 1.234 . S
C316 O321 1.167 . S
C316 O322 1.299 1_556 S
O317 Zn311 2.114 1_565 S
O317 C312 1.166 . S
O318 Zn310 1.905 . S
O318 C312 1.182 . S
O319 Zn310 1.898 . S
O319 C313 1.167 . S
O320 Zn311 2.120 1_565 S
O320 C313 1.299 . S
O321 Zn309 1.898 . S
O321 C316 1.167 . S
O322 Zn311 2.120 . S
O322 C316 1.299 1_554 S
O323 Zn311 2.114 1_566 S
O323 C325 1.166 . S
O324 Zn309 1.905 . S
O324 C325 1.182 1_545 S
C325 O323 1.166 . S
C325 O324 1.182 1_565 S
O326 Zn311 2.080 . S
O326 C329 1.305 . S
O327 Zn310 1.920 . S
O327 C329 1.234 1_565 S
C328 O314 1.305 . S
C328 O315 1.234 . S
C329 O326 1.305 . S
C329 O327 1.234 1_545 S
Zn330 O336 1.920 . S
Zn330 O342 1.898 . S
Zn330 O345 1.905 . S
Zn331 O339 1.905 . S
Zn331 O340 1.898 . S
Zn331 O348 1.920 . S
Zn332 O335 2.080 . S
Zn332 O338 2.114 . S
Zn332 O341 2.120 . S
Zn332 O343 2.120 . S
Zn332 O344 2.114 . S
Zn332 O347 2.080 . S
C333 O338 1.166 . S
C333 O339 1.182 . S
C334 O340 1.167 . S
C334 O341 1.299 . S
O335 Zn332 2.080 . S
O335 C349 1.305 . S
O336 Zn330 1.920 . S
O336 C349 1.234 . S
C337 O342 1.167 . S
C337 O343 1.299 . S
O338 Zn332 2.114 . S
O338 C333 1.166 . S
O339 Zn331 1.905 . S
O339 C333 1.182 . S
O340 Zn331 1.898 . S
O340 C334 1.167 . S
O341 Zn332 2.120 . S
O341 C334 1.299 . S
O342 Zn330 1.898 . S
O342 C337 1.167 . S
O343 Zn332 2.120 . S
O343 C337 1.299 . S
O344 Zn332 2.114 . S
O344 C346 1.166 . S
O345 Zn330 1.905 . S
O345 C346 1.182 . S
C346 O344 1.166 . S
C346 O345 1.182 . S
O347 Zn332 2.080 . S
O347 C350 1.305 . S
O348 Zn331 1.920 . S
O348 C350 1.234 . S
C349 O335 1.305 . S
C349 O336 1.234 . S
C350 O347 1.305 . S
C350 O348 1.234 . S
Zn351 O357 1.920 . S
Zn351 O363 1.898 . S
Zn351 O366 1.905 . S
Zn352 O360 1.905 1_655 S
Zn352 O361 1.898 . S
Zn352 O369 1.920 . S
Zn353 O356 2.080 1_554 S
Zn353 O359 2.114 . S
Zn353 O362 2.120 1_454 S
Zn353 O364 2.120 . S
Zn353 O365 2.114 1_554 S
Zn353 O368 2.080 . S
C354 O359 1.166 . S
C354 O360 1.182 . S
C355 O361 1.167 1_556 S
C355 O362 1.299 . S
O356 Zn353 2.080 1_556 S
O356 C370 1.305 . S
O357 Zn351 1.920 . S
O357 C370 1.234 . S
C358 O363 1.167 1_554 S
C358 O364 1.299 . S
O359 Zn353 2.114 . S
O359 C354 1.166 . S
O360 Zn352 1.905 1_455 S
O360 C354 1.182 . S
O361 Zn352 1.898 . S
O361 C355 1.167 1_554 S
O362 Zn353 2.120 1_656 S
O362 C355 1.299 . S
O363 Zn351 1.898 . S
O363 C358 1.167 1_556 S
O364 Zn353 2.120 . S
O364 C358 1.299 . S
O365 Zn353 2.114 1_556 S
O365 C367 1.166 . S
O366 Zn351 1.905 . S
O366 C367 1.182 . S
C367 O365 1.166 . S
C367 O366 1.182 . S
O368 Zn353 2.080 . S
O368 C371 1.305 1_455 S
O369 Zn352 1.920 . S
O369 C371 1.234 . S
C370 O356 1.305 . S
C370 O357 1.234 . S
C371 O368 1.305 1_655 S
C371 O369 1.234 . S
C372 C373 1.391 . S
C372 C374 1.394 . S
C372 H388 0.931 . S
C373 C372 1.391 . S
C373 C377 1.376 . S
C374 C372 1.394 . S
C374 C375 1.369 . S
C374 C378 1.531 . S
C375 C374 1.369 . S
C375 C376 1.410 . S
C375 C383 1.503 . S
C376 C375 1.410 . S
C376 C377 1.392 . S
C376 C379 1.511 . S
C377 C373 1.376 . S
C377 C376 1.392 . S
C377 H389 0.929 . S
C378 C374 1.531 . S
C378 H390 0.960 . S
C378 H391 0.962 . S
C378 H392 0.960 . S
C379 C376 1.511 . S
C379 H393 0.961 . S
C379 H394 0.961 . S
C379 H395 0.961 . S
C380 C381 1.370 . S
C380 C382 1.363 . S
C380 H396 0.931 . S
C381 C380 1.370 . S
C381 C385 1.408 . S
C382 C380 1.363 . S
C382 C383 1.370 . S
C382 C386 1.524 . S
C383 C375 1.503 . S
C383 C382 1.370 . S
C383 C384 1.403 . S
C384 C383 1.403 . S
C384 C385 1.404 . S
C384 C387 1.539 . S
C385 C381 1.408 . S
C385 C384 1.404 . S
C385 H397 0.930 . S
C386 C382 1.524 . S
C386 H398 0.956 . S
C386 H399 0.961 . S
C386 H400 0.961 . S
C387 C384 1.539 . S
C387 H401 0.958 . S
C387 H402 0.961 . S
C387 H403 0.960 . S
H388 C372 0.931 . S
H389 C377 0.929 . S
H390 C378 0.960 . S
H391 C378 0.962 . S
H392 C378 0.960 . S
H393 C379 0.961 . S
H394 C379 0.961 . S
H395 C379 0.961 . S
H396 C380 0.931 . S
H397 C385 0.930 . S
H398 C386 0.956 . S
H399 C386 0.961 . S
H400 C386 0.961 . S
H401 C387 0.958 . S
H402 C387 0.961 . S
H403 C387 0.960 . S
C404 C405 1.391 . S
C404 C406 1.394 . S
C404 H420 0.931 . S
C405 C404 1.391 . S
C405 C409 1.376 . S
C406 C404 1.394 . S
C406 C407 1.369 . S
C406 C410 1.531 . S
C407 C406 1.369 . S
C407 C408 1.410 . S
C407 C415 1.503 . S
C408 C407 1.410 . S
C408 C409 1.392 . S
C408 C411 1.511 . S
C409 C405 1.376 . S
C409 C408 1.392 . S
C409 H421 0.929 . S
C410 C406 1.531 . S
C410 H422 0.960 . S
C410 H423 0.962 . S
C410 H424 0.960 . S
C411 C408 1.511 . S
C411 H425 0.961 . S
C411 H426 0.961 . S
C411 H427 0.961 . S
C412 C413 1.370 . S
C412 C414 1.363 . S
C412 H428 0.931 . S
C413 C412 1.370 . S
C413 C417 1.408 . S
C414 C412 1.363 . S
C414 C415 1.370 . S
C414 C418 1.524 . S
C415 C407 1.503 . S
C415 C414 1.370 . S
C415 C416 1.403 . S
C416 C415 1.403 . S
C416 C417 1.404 . S
C416 C419 1.539 . S
C417 C413 1.408 . S
C417 C416 1.404 . S
C417 H429 0.930 1_565 S
C418 C414 1.524 . S
C418 H430 0.956 . S
C418 H431 0.961 . S
C418 H432 0.961 . S
C419 C416 1.539 . S
C419 H433 0.958 . S
C419 H434 0.961 1_565 S
C419 H435 0.960 . S
H420 C404 0.931 . S
H421 C409 0.929 . S
H422 C410 0.960 . S
H423 C410 0.962 . S
H424 C410 0.960 . S
H425 C411 0.961 . S
H426 C411 0.961 . S
H427 C411 0.961 . S
H428 C412 0.931 . S
H429 C417 0.930 1_545 S
H430 C418 0.956 . S
H431 C418 0.961 . S
H432 C418 0.961 . S
H433 C419 0.958 . S
H434 C419 0.961 1_545 S
H435 C419 0.960 . S
C436 C437 1.391 . S
C436 C438 1.394 . S
C436 H452 0.931 . S
C437 C436 1.391 . S
C437 C441 1.376 . S
C438 C436 1.394 . S
C438 C439 1.369 . S
C438 C442 1.531 . S
C439 C438 1.369 . S
C439 C440 1.410 . S
C439 C447 1.503 . S
C440 C439 1.410 . S
C440 C441 1.392 . S
C440 C443 1.511 . S
C441 C437 1.376 . S
C441 C440 1.392 . S
C441 H453 0.929 . S
C442 C438 1.531 . S
C442 H454 0.960 . S
C442 H455 0.962 . S
C442 H456 0.960 . S
C443 C440 1.511 . S
C443 H457 0.961 . S
C443 H458 0.961 . S
C443 H459 0.961 . S
C444 C445 1.370 . S
C444 C446 1.363 . S
C444 H460 0.931 . S
C445 C444 1.370 . S
C445 C449 1.408 . S
C446 C444 1.363 . S
C446 C447 1.370 . S
C446 C450 1.524 . S
C447 C439 1.503 . S
C447 C446 1.370 . S
C447 C448 1.403 . S
C448 C447 1.403 . S
C448 C449 1.404 . S
C448 C451 1.539 . S
C449 C445 1.408 . S
C449 C448 1.404 . S
C449 H461 0.930 . S
C450 C446 1.524 . S
C450 H462 0.956 . S
C450 H463 0.961 . S
C450 H464 0.961 . S
C451 C448 1.539 . S
C451 H465 0.958 . S
C451 H466 0.961 . S
C451 H467 0.960 . S
H452 C436 0.931 . S
H453 C441 0.929 . S
H454 C442 0.960 . S
H455 C442 0.962 . S
H456 C442 0.960 . S
H457 C443 0.961 . S
H458 C443 0.961 . S
H459 C443 0.961 . S
H460 C444 0.931 . S
H461 C449 0.930 . S
H462 C450 0.956 . S
H463 C450 0.961 . S
H464 C450 0.961 . S
H465 C451 0.958 . S
H466 C451 0.961 . S
H467 C451 0.960 . S
C468 C469 1.391 . S
C468 C470 1.394 . S
C468 H484 0.931 . S
C469 C468 1.391 . S
C469 C473 1.376 . S
C470 C468 1.394 . S
C470 C471 1.369 . S
C470 C474 1.531 . S
C471 C470 1.369 . S
C471 C472 1.410 . S
C471 C479 1.503 . S
C472 C471 1.410 . S
C472 C473 1.392 . S
C472 C475 1.511 . S
C473 C469 1.376 . S
C473 C472 1.392 . S
C473 H485 0.929 . S
C474 C470 1.531 . S
C474 H486 0.960 . S
C474 H487 0.962 1_655 S
C474 H488 0.960 . S
C475 C472 1.511 . S
C475 H489 0.961 . S
C475 H490 0.961 . S
C475 H491 0.961 . S
C476 C477 1.370 . S
C476 C478 1.363 . S
C476 H492 0.931 . S
C477 C476 1.370 . S
C477 C481 1.408 . S
C478 C476 1.363 . S
C478 C479 1.370 . S
C478 C482 1.524 . S
C479 C471 1.503 . S
C479 C478 1.370 . S
C479 C480 1.403 . S
C480 C479 1.403 . S
C480 C481 1.404 . S
C480 C483 1.539 . S
C481 C477 1.408 . S
C481 C480 1.404 . S
C481 H493 0.930 . S
C482 C478 1.524 . S
C482 H494 0.956 . S
C482 H495 0.961 . S
C482 H496 0.961 . S
C483 C480 1.539 . S
C483 H497 0.958 . S
C483 H498 0.961 . S
C483 H499 0.960 . S
H484 C468 0.931 . S
H485 C473 0.929 . S
H486 C474 0.960 . S
H487 C474 0.962 1_455 S
H488 C474 0.960 . S
H489 C475 0.961 . S
H490 C475 0.961 . S
H491 C475 0.961 . S
H492 C476 0.931 . S
H493 C481 0.930 . S
H494 C482 0.956 . S
H495 C482 0.961 . S
H496 C482 0.961 . S
H497 C483 0.958 . S
H498 C483 0.961 . S
H499 C483 0.960 . S
C500 C501 1.391 . S
C500 C502 1.394 . S
C500 H516 0.931 . S
C501 C500 1.391 . S
C501 C505 1.376 . S
C502 C500 1.394 . S
C502 C503 1.369 . S
C502 C506 1.531 . S
C503 C502 1.369 . S
C503 C504 1.410 . S
C503 C511 1.503 . S
C504 C503 1.410 . S
C504 C505 1.392 . S
C504 C507 1.511 . S
C505 C501 1.376 . S
C505 C504 1.392 . S
C505 H517 0.929 . S
C506 C502 1.531 . S
C506 H518 0.960 . S
C506 H519 0.962 . S
C506 H520 0.960 . S
C507 C504 1.511 . S
C507 H521 0.961 . S
C507 H522 0.961 . S
C507 H523 0.961 . S
C508 C509 1.370 . S
C508 C510 1.363 . S
C508 H524 0.931 . S
C509 C508 1.370 . S
C509 C513 1.408 . S
C510 C508 1.363 . S
C510 C511 1.370 . S
C510 C514 1.524 . S
C511 C503 1.503 . S
C511 C510 1.370 . S
C511 C512 1.403 . S
C512 C511 1.403 . S
C512 C513 1.404 . S
C512 C515 1.539 . S
C513 C509 1.408 . S
C513 C512 1.404 . S
C513 H525 0.930 . S
C514 C510 1.524 . S
C514 H526 0.956 . S
C514 H527 0.961 . S
C514 H528 0.961 . S
C515 C512 1.539 . S
C515 H529 0.958 . S
C515 H530 0.961 . S
C515 H531 0.960 . S
H516 C500 0.931 . S
H517 C505 0.929 . S
H518 C506 0.960 . S
H519 C506 0.962 . S
H520 C506 0.960 . S
H521 C507 0.961 . S
H522 C507 0.961 . S
H523 C507 0.961 . S
H524 C508 0.931 . S
H525 C513 0.930 . S
H526 C514 0.956 . S
H527 C514 0.961 . S
H528 C514 0.961 . S
H529 C515 0.958 . S
H530 C515 0.961 . S
H531 C515 0.960 . S
C532 C533 1.391 . S
C532 C534 1.394 . S
C532 H548 0.931 . S
C533 C532 1.391 . S
C533 C537 1.376 . S
C534 C532 1.394 . S
C534 C535 1.369 . S
C534 C538 1.531 . S
C535 C534 1.369 . S
C535 C536 1.410 . S
C535 C543 1.503 . S
C536 C535 1.410 . S
C536 C537 1.392 . S
C536 C539 1.511 . S
C537 C533 1.376 . S
C537 C536 1.392 . S
C537 H549 0.929 . S
C538 C534 1.531 . S
C538 H550 0.960 1_565 S
C538 H551 0.962 . S
C538 H552 0.945 1_565 S
C539 C536 1.511 . S
C539 H553 0.961 . S
C539 H554 0.961 . S
C539 H555 0.961 . S
C540 C541 1.370 . S
C540 C542 1.363 . S
C540 H556 0.931 . S
C541 C540 1.370 . S
C541 C545 1.408 . S
C542 C540 1.363 . S
C542 C543 1.370 . S
C542 C546 1.524 . S
C543 C535 1.503 . S
C543 C542 1.370 . S
C543 C544 1.403 . S
C544 C543 1.403 . S
C544 C545 1.404 . S
C544 C547 1.539 . S
C545 C541 1.408 . S
C545 C544 1.404 . S
C545 H557 0.930 1_565 S
C546 C542 1.524 . S
C546 H558 0.956 . S
C546 H559 0.961 . S
C546 H560 0.961 . S
C547 C544 1.539 . S
C547 H561 0.958 1_565 S
C547 H562 0.961 1_565 S
C547 H563 0.960 . S
H548 C532 0.931 . S
H549 C537 0.929 . S
H550 C538 0.960 1_545 S
H551 C538 0.962 . S
H552 C538 0.945 1_545 S
H553 C539 0.961 . S
H554 C539 0.961 . S
H555 C539 0.961 . S
H556 C540 0.931 . S
H557 C545 0.930 1_545 S
H558 C546 0.956 . S
H559 C546 0.961 . S
H560 C546 0.961 . S
H561 C547 0.958 1_545 S
H562 C547 0.961 1_545 S
H563 C547 0.960 . S
C564 C565 1.391 . S
C564 C566 1.394 . S
C564 H580 0.931 . S
C565 C564 1.391 . S
C565 C569 1.376 . S
C566 C564 1.394 . S
C566 C567 1.369 . S
C566 C570 1.531 . S
C567 C566 1.369 . S
C567 C568 1.410 . S
C567 C575 1.503 . S
C568 C567 1.410 . S
C568 C569 1.392 . S
C568 C571 1.511 . S
C569 C565 1.376 . S
C569 C568 1.392 . S
C569 H581 0.929 . S
C570 C566 1.531 . S
C570 H582 0.960 . S
C570 H583 0.962 . S
C570 H584 0.960 . S
C571 C568 1.511 . S
C571 H585 0.961 . S
C571 H586 0.961 . S
C571 H587 0.961 . S
C572 C573 1.370 . S
C572 C574 1.363 . S
C572 H588 0.931 . S
C573 C572 1.370 . S
C573 C577 1.408 . S
C574 C572 1.363 . S
C574 C575 1.370 . S
C574 C578 1.524 . S
C575 C567 1.503 . S
C575 C574 1.370 . S
C575 C576 1.403 . S
C576 C575 1.403 . S
C576 C577 1.404 . S
C576 C579 1.539 . S
C577 C573 1.408 . S
C577 C576 1.404 . S
C577 H589 0.930 . S
C578 C574 1.524 . S
C578 H590 0.956 . S
C578 H591 0.961 . S
C578 H592 0.961 . S
C579 C576 1.539 . S
C579 H593 0.958 . S
C579 H594 0.961 . S
C579 H595 0.960 . S
H580 C564 0.931 . S
H581 C569 0.929 . S
H582 C570 0.960 . S
H583 C570 0.962 . S
H584 C570 0.960 . S
H585 C571 0.961 . S
H586 C571 0.961 . S
H587 C571 0.961 . S
H588 C572 0.931 . S
H589 C577 0.930 . S
H590 C578 0.956 . S
H591 C578 0.961 . S
H592 C578 0.961 . S
H593 C579 0.958 . S
H594 C579 0.961 . S
H595 C579 0.960 . S
C596 C597 1.391 . S
C596 C598 1.394 . S
C596 H612 0.931 . S
C597 C596 1.391 . S
C597 C601 1.376 . S
C598 C596 1.394 . S
C598 C599 1.369 . S
C598 C602 1.531 . S
C599 C598 1.369 . S
C599 C600 1.410 . S
C599 C607 1.503 . S
C600 C599 1.410 . S
C600 C601 1.392 . S
C600 C603 1.511 . S
C601 C597 1.376 . S
C601 C600 1.392 . S
C601 H613 0.929 . S
C602 C598 1.531 . S
C602 H614 0.960 . S
C602 H615 0.962 . S
C602 H616 0.960 . S
C603 C600 1.511 . S
C603 H617 0.961 . S
C603 H618 0.961 . S
C603 H619 0.961 . S
C604 C605 1.370 . S
C604 C606 1.363 . S
C604 H620 0.931 . S
C605 C604 1.370 . S
C605 C609 1.408 . S
C606 C604 1.363 . S
C606 C607 1.370 . S
C606 C610 1.524 . S
C607 C599 1.503 . S
C607 C606 1.370 . S
C607 C608 1.403 . S
C608 C607 1.403 . S
C608 C609 1.404 . S
C608 C611 1.539 . S
C609 C605 1.408 . S
C609 C608 1.404 . S
C609 H621 0.930 . S
C610 C606 1.524 . S
C610 H622 0.956 . S
C610 H623 0.961 . S
C610 H624 0.961 . S
C611 C608 1.539 . S
C611 H625 0.958 . S
C611 H626 0.961 . S
C611 H627 0.960 . S
H612 C596 0.931 . S
H613 C601 0.929 . S
H614 C602 0.960 . S
H615 C602 0.962 . S
H616 C602 0.960 . S
H617 C603 0.961 . S
H618 C603 0.961 . S
H619 C603 0.961 . S
H620 C604 0.931 . S
H621 C609 0.930 . S
H622 C610 0.956 . S
H623 C610 0.961 . S
H624 C610 0.961 . S
H625 C611 0.958 . S
H626 C611 0.961 . S
H627 C611 0.960 . S
C628 C629 1.391 . S
C628 C630 1.394 . S
C628 H644 0.931 . S
C629 C628 1.391 . S
C629 C633 1.376 . S
C630 C628 1.394 . S
C630 C631 1.369 . S
C630 C634 1.531 . S
C631 C630 1.369 . S
C631 C632 1.410 . S
C631 C639 1.503 . S
C632 C631 1.410 . S
C632 C633 1.392 . S
C632 C635 1.511 . S
C633 C629 1.376 . S
C633 C632 1.392 . S
C633 H645 0.929 . S
C634 C630 1.531 . S
C634 H646 0.960 . S
C634 H647 0.962 . S
C634 H648 0.960 . S
C635 C632 1.511 . S
C635 H649 0.961 . S
C635 H650 0.961 . S
C635 H651 0.961 . S
C636 C637 1.370 . S
C636 C638 1.363 . S
C636 H652 0.931 . S
C637 C636 1.370 . S
C637 C641 1.408 . S
C638 C636 1.363 . S
C638 C639 1.370 . S
C638 C642 1.524 . S
C639 C631 1.503 . S
C639 C638 1.370 . S
C639 C640 1.403 . S
C640 C639 1.403 . S
C640 C641 1.404 . S
C640 C643 1.539 . S
C641 C637 1.408 . S
C641 C640 1.404 . S
C641 H653 0.930 . S
C642 C638 1.524 . S
C642 H654 0.956 . S
C642 H655 0.961 . S
C642 H656 0.961 . S
C643 C640 1.539 . S
C643 H657 0.958 . S
C643 H658 0.961 . S
C643 H659 0.960 . S
H644 C628 0.931 . S
H645 C633 0.929 . S
H646 C634 0.960 . S
H647 C634 0.962 . S
H648 C634 0.960 . S
H649 C635 0.961 . S
H650 C635 0.961 . S
H651 C635 0.961 . S
H652 C636 0.931 . S
H653 C641 0.930 . S
H654 C642 0.956 . S
H655 C642 0.961 . S
H656 C642 0.961 . S
H657 C643 0.958 . S
H658 C643 0.961 . S
H659 C643 0.960 . S
C660 C661 1.391 . S
C660 C662 1.394 . S
C660 H676 0.931 . S
C661 C660 1.391 . S
C661 C665 1.376 . S
C662 C660 1.394 . S
C662 C663 1.369 . S
C662 C666 1.531 . S
C663 C662 1.369 . S
C663 C664 1.410 . S
C663 C671 1.503 . S
C664 C663 1.410 . S
C664 C665 1.392 . S
C664 C667 1.511 . S
C665 C661 1.376 . S
C665 C664 1.392 . S
C665 H677 0.929 . S
C666 C662 1.531 . S
C666 H678 0.960 . S
C666 H679 0.962 . S
C666 H680 0.960 . S
C667 C664 1.511 . S
C667 H681 0.961 . S
C667 H682 0.961 . S
C667 H683 0.961 . S
C668 C669 1.370 . S
C668 C670 1.363 . S
C668 H684 0.931 . S
C669 C668 1.370 . S
C669 C673 1.408 . S
C670 C668 1.363 . S
C670 C671 1.370 . S
C670 C674 1.524 . S
C671 C663 1.503 . S
C671 C670 1.370 . S
C671 C672 1.403 . S
C672 C671 1.403 . S
C672 C673 1.404 . S
C672 C675 1.539 . S
C673 C669 1.408 . S
C673 C672 1.404 . S
C673 H685 0.930 . S
C674 C670 1.524 . S
C674 H686 0.956 . S
C674 H687 0.961 . S
C674 H688 0.961 . S
C675 C672 1.539 . S
C675 H689 0.958 . S
C675 H690 0.961 . S
C675 H691 0.960 . S
H676 C660 0.931 . S
H677 C665 0.929 . S
H678 C666 0.960 . S
H679 C666 0.962 . S
H680 C666 0.960 . S
H681 C667 0.961 . S
H682 C667 0.961 . S
H683 C667 0.961 . S
H684 C668 0.931 . S
H685 C673 0.930 . S
H686 C674 0.956 . S
H687 C674 0.961 . S
H688 C674 0.961 . S
H689 C675 0.958 . S
H690 C675 0.961 . S
H691 C675 0.960 . S
C692 C693 1.391 . S
C692 C694 1.394 . S
C692 H708 0.931 . S
C693 C692 1.391 . S
C693 C697 1.376 . S
C694 C692 1.394 . S
C694 C695 1.369 . S
C694 C698 1.531 . S
C695 C694 1.369 . S
C695 C696 1.410 . S
C695 C703 1.503 . S
C696 C695 1.410 . S
C696 C697 1.392 . S
C696 C699 1.511 . S
C697 C693 1.376 . S
C697 C696 1.392 . S
C697 H709 0.929 . S
C698 C694 1.531 . S
C698 H710 0.960 . S
C698 H711 0.962 . S
C698 H712 0.960 . S
C699 C696 1.511 . S
C699 H713 0.961 . S
C699 H714 0.961 . S
C699 H715 0.961 . S
C700 C701 1.370 . S
C700 C702 1.363 . S
C700 H716 0.931 . S
C701 C700 1.370 . S
C701 C705 1.408 . S
C702 C700 1.363 . S
C702 C703 1.370 . S
C702 C706 1.524 . S
C703 C695 1.503 . S
C703 C702 1.370 . S
C703 C704 1.403 . S
C704 C703 1.403 . S
C704 C705 1.404 . S
C704 C707 1.539 . S
C705 C701 1.408 . S
C705 C704 1.404 . S
C705 H717 0.930 . S
C706 C702 1.524 . S
C706 H718 0.956 . S
C706 H719 0.961 . S
C706 H720 0.961 . S
C707 C704 1.539 . S
C707 H721 0.958 . S
C707 H722 0.961 . S
C707 H723 0.960 . S
H708 C692 0.931 . S
H709 C697 0.929 . S
H710 C698 0.960 . S
H711 C698 0.962 . S
H712 C698 0.960 . S
H713 C699 0.961 . S
H714 C699 0.961 . S
H715 C699 0.961 . S
H716 C700 0.931 . S
H717 C705 0.930 . S
H718 C706 0.956 . S
H719 C706 0.961 . S
H720 C706 0.961 . S
H721 C707 0.958 . S
H722 C707 0.961 . S
H723 C707 0.960 . S
C724 C725 1.391 . S
C724 C726 1.394 . S
C724 H740 0.931 . S
C725 C724 1.391 . S
C725 C729 1.376 . S
C726 C724 1.394 . S
C726 C727 1.369 . S
C726 C730 1.531 . S
C727 C726 1.369 . S
C727 C728 1.410 . S
C727 C735 1.503 . S
C728 C727 1.410 . S
C728 C729 1.392 . S
C728 C731 1.511 . S
C729 C725 1.376 . S
C729 C728 1.392 . S
C729 H741 0.929 . S
C730 C726 1.531 . S
C730 H742 0.960 . S
C730 H743 0.962 . S
C730 H744 0.960 . S
C731 C728 1.511 . S
C731 H745 0.961 . S
C731 H746 0.961 . S
C731 H747 0.961 . S
C732 C733 1.370 . S
C732 C734 1.363 . S
C732 H748 0.931 . S
C733 C732 1.370 . S
C733 C737 1.408 . S
C734 C732 1.363 . S
C734 C735 1.370 . S
C734 C738 1.524 . S
C735 C727 1.503 . S
C735 C734 1.370 . S
C735 C736 1.403 . S
C736 C735 1.403 . S
C736 C737 1.404 . S
C736 C739 1.539 . S
C737 C733 1.408 . S
C737 C736 1.404 . S
C737 H749 0.930 . S
C738 C734 1.524 . S
C738 H750 0.956 . S
C738 H751 0.961 . S
C738 H752 0.961 . S
C739 C736 1.539 . S
C739 H753 0.958 . S
C739 H754 0.961 . S
C739 H755 0.960 . S
H740 C724 0.931 . S
H741 C729 0.929 . S
H742 C730 0.960 . S
H743 C730 0.962 . S
H744 C730 0.960 . S
H745 C731 0.961 . S
H746 C731 0.961 . S
H747 C731 0.961 . S
H748 C732 0.931 . S
H749 C737 0.930 . S
H750 C738 0.956 . S
H751 C738 0.961 . S
H752 C738 0.961 . S
H753 C739 0.958 . S
H754 C739 0.961 . S
H755 C739 0.960 . S
C756 C757 1.391 1_545 S
C756 C758 1.394 . S
C756 H772 0.931 . S
C757 C756 1.391 1_565 S
C757 C761 1.376 . S
C758 C756 1.394 . S
C758 C759 1.369 . S
C758 C762 1.531 . S
C759 C758 1.369 . S
C759 C760 1.410 1_545 S
C759 C767 1.503 . S
C760 C759 1.410 1_565 S
C760 C761 1.392 . S
C760 C763 1.511 1_655 S
C761 C757 1.376 . S
C761 C760 1.392 . S
C761 H773 0.929 . S
C762 C758 1.531 . S
C762 H774 0.960 . S
C762 H775 0.962 . S
C762 H776 0.960 . S
C763 C760 1.511 1_455 S
C763 H777 0.961 . S
C763 H778 0.951 1_455 S
C763 H779 0.961 . S
C764 C765 1.370 . S
C764 C766 1.363 . S
C764 H780 0.931 . S
C765 C764 1.370 . S
C765 C769 1.408 1_655 S
C766 C764 1.363 . S
C766 C767 1.370 . S
C766 C770 1.524 1_545 S
C767 C759 1.503 . S
C767 C766 1.370 . S
C767 C768 1.403 1_655 S
C768 C767 1.403 1_455 S
C768 C769 1.404 . S
C768 C771 1.539 . S
C769 C765 1.408 1_455 S
C769 C768 1.404 . S
C769 H781 0.930 . S
C770 C766 1.524 1_565 S
C770 H782 0.956 1_565 S
C770 H783 0.961 . S
C770 H784 0.961 . S
C771 C768 1.539 . S
C771 H785 0.958 . S
C771 H786 0.961 . S
C771 H787 0.960 . S
H772 C756 0.931 . S
H773 C761 0.929 . S
H774 C762 0.960 . S
H775 C762 0.962 . S
H776 C762 0.960 . S
H777 C763 0.961 . S
H778 C763 0.951 1_655 S
H779 C763 0.961 . S
H780 C764 0.931 . S
H781 C769 0.930 . S
H782 C770 0.956 1_545 S
H783 C770 0.961 . S
H784 C770 0.961 . S
H785 C771 0.958 . S
H786 C771 0.961 . S
H787 C771 0.960 . S
C788 C789 1.391 . S
C788 C790 1.394 . S
C788 H804 0.931 . S
C789 C788 1.391 . S
C789 C793 1.376 . S
C790 C788 1.394 . S
C790 C791 1.369 . S
C790 C794 1.549 . S
C791 C790 1.369 . S
C791 C792 1.410 . S
C791 C799 1.503 . S
C792 C791 1.410 . S
C792 C793 1.392 . S
C792 C795 1.511 . S
C793 C789 1.376 . S
C793 C792 1.392 . S
C793 H805 0.929 . S
C794 C790 1.549 . S
C794 H806 0.944 1_545 S
C794 H807 0.983 . S
C794 H808 0.938 1_545 S
C795 C792 1.511 . S
C795 H809 0.961 . S
C795 H810 0.961 . S
C795 H811 0.961 . S
C796 C797 1.370 . S
C796 C798 1.363 . S
C796 H812 0.931 . S
C797 C796 1.370 . S
C797 C801 1.430 . S
C798 C796 1.363 . S
C798 C799 1.370 . S
C798 C802 1.524 . S
C799 C791 1.503 . S
C799 C798 1.370 . S
C799 C800 1.403 . S
C800 C799 1.403 . S
C800 C801 1.406 . S
C800 C803 1.539 1_545 S
C801 C797 1.430 . S
C801 C800 1.406 . S
C801 H813 0.907 1_545 S
C802 C798 1.524 . S
C802 H814 0.956 . S
C802 H815 0.961 . S
C802 H816 0.961 . S
C803 C800 1.539 1_565 S
C803 H817 0.958 . S
C803 H818 0.961 . S
C803 H819 0.960 . S
H804 C788 0.931 . S
H805 C793 0.929 . S
H806 C794 0.944 1_565 S
H807 C794 0.983 . S
H808 C794 0.938 1_565 S
H809 C795 0.961 . S
H810 C795 0.961 . S
H811 C795 0.961 . S
H812 C796 0.931 . S
H813 C801 0.907 1_565 S
H814 C802 0.956 . S
H815 C802 0.961 . S
H816 C802 0.961 . S
H817 C803 0.958 . S
H818 C803 0.961 . S
H819 C803 0.960 . S
C820 C821 1.391 . S
C820 C822 1.394 . S
C820 H836 0.931 . S
C821 C820 1.391 . S
C821 C825 1.376 . S
C822 C820 1.394 . S
C822 C823 1.369 . S
C822 C826 1.531 . S
C823 C822 1.369 . S
C823 C824 1.410 . S
C823 C831 1.503 . S
C824 C823 1.410 . S
C824 C825 1.392 . S
C824 C827 1.511 . S
C825 C821 1.376 . S
C825 C824 1.392 . S
C825 H837 0.929 . S
C826 C822 1.531 . S
C826 H838 0.960 . S
C826 H839 0.962 . S
C826 H840 0.960 . S
C827 C824 1.511 . S
C827 H841 0.961 . S
C827 H842 0.961 . S
C827 H843 0.961 . S
C828 C829 1.370 . S
C828 C830 1.363 . S
C828 H844 0.931 . S
C829 C828 1.370 . S
C829 C833 1.408 . S
C830 C828 1.363 . S
C830 C831 1.370 . S
C830 C834 1.524 . S
C831 C823 1.503 . S
C831 C830 1.370 . S
C831 C832 1.403 . S
C832 C831 1.403 . S
C832 C833 1.404 . S
C832 C835 1.539 . S
C833 C829 1.408 . S
C833 C832 1.404 . S
C833 H845 0.930 . S
C834 C830 1.524 . S
C834 H846 0.956 . S
C834 H847 0.961 . S
C834 H848 0.961 . S
C835 C832 1.539 . S
C835 H849 0.958 . S
C835 H850 0.961 . S
C835 H851 0.960 . S
H836 C820 0.931 . S
H837 C825 0.929 . S
H838 C826 0.960 . S
H839 C826 0.962 . S
H840 C826 0.960 . S
H841 C827 0.961 . S
H842 C827 0.961 . S
H843 C827 0.961 . S
H844 C828 0.931 . S
H845 C833 0.930 . S
H846 C834 0.956 . S
H847 C834 0.961 . S
H848 C834 0.961 . S
H849 C835 0.958 . S
H850 C835 0.961 . S
H851 C835 0.960 . S
C852 C853 1.391 . S
C852 C854 1.394 . S
C852 H868 0.931 . S
C853 C852 1.391 . S
C853 C857 1.376 . S
C854 C852 1.394 . S
C854 C855 1.369 . S
C854 C858 1.531 . S
C855 C854 1.369 . S
C855 C856 1.410 . S
C855 C863 1.503 . S
C856 C855 1.410 . S
C856 C857 1.392 . S
C856 C859 1.511 1_455 S
C857 C853 1.376 . S
C857 C856 1.392 . S
C857 H869 0.929 . S
C858 C854 1.531 . S
C858 H870 0.960 . S
C858 H871 0.962 . S
C858 H872 0.960 . S
C859 C856 1.511 1_655 S
C859 H873 0.961 . S
C859 H874 0.971 . S
C859 H875 0.961 . S
C860 C861 1.370 . S
C860 C862 1.363 . S
C860 H876 0.931 . S
C861 C860 1.370 . S
C861 C865 1.408 . S
C862 C860 1.363 . S
C862 C863 1.370 . S
C862 C866 1.524 . S
C863 C855 1.503 . S
C863 C862 1.370 . S
C863 C864 1.403 . S
C864 C863 1.403 . S
C864 C865 1.404 . S
C864 C867 1.539 . S
C865 C861 1.408 . S
C865 C864 1.404 . S
C865 H877 0.930 . S
C866 C862 1.524 . S
C866 H878 0.956 . S
C866 H879 0.961 . S
C866 H880 0.961 . S
C867 C864 1.539 . S
C867 H881 0.958 . S
C867 H882 0.961 1_455 S
C867 H883 0.960 . S
H868 C852 0.931 . S
H869 C857 0.929 . S
H870 C858 0.960 . S
H871 C858 0.962 . S
H872 C858 0.960 . S
H873 C859 0.961 . S
H874 C859 0.971 . S
H875 C859 0.961 . S
H876 C860 0.931 . S
H877 C865 0.930 . S
H878 C866 0.956 . S
H879 C866 0.961 . S
H880 C866 0.961 . S
H881 C867 0.958 . S
H882 C867 0.961 1_655 S
H883 C867 0.960 . S
C884 C885 1.391 1_554 S
C884 C886 1.394 . S
C884 H900 0.931 . S
C885 C884 1.391 1_556 S
C885 C889 1.376 1_565 S
C886 C884 1.394 . S
C886 C887 1.369 . S
C886 C890 1.531 . S
C887 C886 1.369 . S
C887 C888 1.410 1_564 S
C887 C895 1.503 . S
C888 C887 1.410 1_546 S
C888 C889 1.392 . S
C888 C891 1.511 . S
C889 C885 1.376 1_545 S
C889 C888 1.392 . S
C889 H901 0.929 . S
C890 C886 1.531 . S
C890 H902 0.960 . S
C890 H903 0.962 . S
C890 H904 0.960 . S
C891 C888 1.511 . S
C891 H905 0.961 . S
C891 H906 0.961 . S
C891 H907 0.961 . S
C892 C893 1.370 1_556 S
C892 C894 1.363 . S
C892 H908 0.931 . S
C893 C892 1.370 1_554 S
C893 C897 1.408 1_565 S
C894 C892 1.363 . S
C894 C895 1.370 1_556 S
C894 C898 1.524 . S
C895 C887 1.503 . S
C895 C894 1.370 1_554 S
C895 C896 1.403 1_565 S
C896 C895 1.403 1_545 S
C896 C897 1.404 . S
C896 C899 1.539 . S
C897 C893 1.408 1_545 S
C897 C896 1.404 . S
C897 H909 0.930 . S
C898 C894 1.524 . S
C898 H910 0.956 . S
C898 H911 0.961 . S
C898 H912 0.961 . S
C899 C896 1.539 . S
C899 H913 0.958 . S
C899 H914 0.961 . S
C899 H915 0.960 . S
H900 C884 0.931 . S
H901 C889 0.929 . S
H902 C890 0.960 . S
H903 C890 0.962 . S
H904 C890 0.960 . S
H905 C891 0.961 . S
H906 C891 0.961 . S
H907 C891 0.961 . S
H908 C892 0.931 . S
H909 C897 0.930 . S
H910 C898 0.956 . S
H911 C898 0.961 . S
H912 C898 0.961 . S
H913 C899 0.958 . S
H914 C899 0.961 . S
H915 C899 0.960 . S
C916 C917 1.391 . S
C916 C918 1.394 . S
C916 H932 0.931 . S
C917 C916 1.391 . S
C917 C921 1.376 . S
C918 C916 1.394 . S
C918 C919 1.369 . S
C918 C922 1.531 1_545 S
C919 C918 1.369 . S
C919 C920 1.410 . S
C919 C927 1.503 . S
C920 C919 1.410 . S
C920 C921 1.392 . S
C920 C923 1.511 . S
C921 C917 1.376 . S
C921 C920 1.392 . S
C921 H933 0.929 . S
C922 C918 1.531 1_565 S
C922 H934 0.960 . S
C922 H935 0.962 . S
C922 H936 0.960 . S
C923 C920 1.511 . S
C923 H937 0.961 . S
C923 H938 0.961 . S
C923 H939 0.961 . S
C924 C925 1.370 . S
C924 C926 1.363 . S
C924 H940 0.931 . S
C925 C924 1.370 . S
C925 C929 1.408 . S
C926 C924 1.363 . S
C926 C927 1.370 . S
C926 C930 1.524 . S
C927 C919 1.503 . S
C927 C926 1.370 . S
C927 C928 1.403 . S
C928 C927 1.403 . S
C928 C929 1.404 . S
C928 C931 1.539 . S
C929 C925 1.408 . S
C929 C928 1.404 . S
C929 H941 0.930 . S
C930 C926 1.524 . S
C930 H942 0.956 . S
C930 H943 0.961 . S
C930 H944 0.961 . S
C931 C928 1.539 . S
C931 H945 0.958 . S
C931 H946 0.961 . S
C931 H947 0.960 . S
H932 C916 0.931 . S
H933 C921 0.929 . S
H934 C922 0.960 . S
H935 C922 0.962 . S
H936 C922 0.960 . S
H937 C923 0.961 . S
H938 C923 0.961 . S
H939 C923 0.961 . S
H940 C924 0.931 . S
H941 C929 0.930 . S
H942 C930 0.956 . S
H943 C930 0.961 . S
H944 C930 0.961 . S
H945 C931 0.958 . S
H946 C931 0.961 . S
H947 C931 0.960 . S
C948 C949 1.391 . S
C948 C950 1.394 . S
C948 H964 0.931 . S
C949 C948 1.391 . S
C949 C953 1.376 . S
C950 C948 1.394 . S
C950 C951 1.369 . S
C950 C954 1.531 . S
C951 C950 1.369 . S
C951 C952 1.410 . S
C951 C959 1.503 . S
C952 C951 1.410 . S
C952 C953 1.392 . S
C952 C955 1.511 . S
C953 C949 1.376 . S
C953 C952 1.392 . S
C953 H965 0.929 . S
C954 C950 1.531 . S
C954 H966 0.960 . S
C954 H967 0.962 . S
C954 H968 0.960 . S
C955 C952 1.511 . S
C955 H969 0.961 . S
C955 H970 0.961 . S
C955 H971 0.961 . S
C956 C957 1.370 . S
C956 C958 1.363 . S
C956 H972 0.931 1_554 S
C957 C956 1.370 . S
C957 C961 1.408 . S
C958 C956 1.363 . S
C958 C959 1.370 . S
C958 C962 1.524 1_554 S
C959 C951 1.503 . S
C959 C958 1.370 . S
C959 C960 1.403 . S
C960 C959 1.403 . S
C960 C961 1.404 . S
C960 C963 1.539 . S
C961 C957 1.408 . S
C961 C960 1.404 . S
C961 H973 0.930 . S
C962 C958 1.524 1_556 S
C962 H974 0.956 . S
C962 H975 0.961 . S
C962 H976 0.961 . S
C963 C960 1.539 . S
C963 H977 0.958 . S
C963 H978 0.961 . S
C963 H979 0.960 . S
H964 C948 0.931 . S
H965 C953 0.929 . S
H966 C954 0.960 . S
H967 C954 0.962 . S
H968 C954 0.960 . S
H969 C955 0.961 . S
H970 C955 0.961 . S
H971 C955 0.961 . S
H972 C956 0.931 1_556 S
H973 C961 0.930 . S
H974 C962 0.956 . S
H975 C962 0.961 . S
H976 C962 0.961 . S
H977 C963 0.958 . S
H978 C963 0.961 . S
H979 C963 0.960 . S
C980 C981 1.391 . S
C980 C982 1.394 . S
C980 H996 0.931 . S
C981 C980 1.391 . S
C981 C985 1.376 . S
C982 C980 1.394 . S
C982 C983 1.369 . S
C982 C986 1.531 . S
C983 C982 1.369 . S
C983 C984 1.410 . S
C983 C991 1.503 . S
C984 C983 1.410 . S
C984 C985 1.392 . S
C984 C987 1.511 . S
C985 C981 1.376 . S
C985 C984 1.392 . S
C985 H997 0.929 . S
C986 C982 1.531 . S
C986 H998 0.960 . S
C986 H999 0.962 . S
C986 H1000 0.960 . S
C987 C984 1.511 . S
C987 H1001 0.961 . S
C987 H1002 0.961 . S
C987 H1003 0.961 . S
C988 C989 1.370 . S
C988 C990 1.363 . S
C988 H1004 0.931 . S
C989 C988 1.370 . S
C989 C993 1.408 . S
C990 C988 1.363 . S
C990 C991 1.370 . S
C990 C994 1.524 . S
C991 C983 1.503 . S
C991 C990 1.370 . S
C991 C992 1.403 . S
C992 C991 1.403 . S
C992 C993 1.404 . S
C992 C995 1.539 . S
C993 C989 1.408 . S
C993 C992 1.404 . S
C993 H1005 0.930 . S
C994 C990 1.524 . S
C994 H1006 0.956 . S
C994 H1007 0.961 . S
C994 H1008 0.961 . S
C995 C992 1.539 . S
C995 H1009 0.958 . S
C995 H1010 0.961 . S
C995 H1011 0.960 . S
H996 C980 0.931 . S
H997 C985 0.929 . S
H998 C986 0.960 . S
H999 C986 0.962 . S
H1000 C986 0.960 . S
H1001 C987 0.961 . S
H1002 C987 0.961 . S
H1003 C987 0.961 . S
H1004 C988 0.931 . S
H1005 C993 0.930 . S
H1006 C994 0.956 . S
H1007 C994 0.961 . S
H1008 C994 0.961 . S
H1009 C995 0.958 . S
H1010 C995 0.961 . S
H1011 C995 0.960 . S
C1012 C1013 1.391 . S
C1012 C1014 1.394 . S
C1012 H1028 0.931 . S
C1013 C1012 1.391 . S
C1013 C1017 1.376 1_655 S
C1014 C1012 1.394 . S
C1014 C1015 1.366 . S
C1014 C1018 1.531 . S
C1015 C1014 1.366 . S
C1015 C1016 1.412 1_655 S
C1015 C1023 1.504 1_655 S
C1016 C1015 1.412 1_455 S
C1016 C1017 1.392 . S
C1016 C1019 1.511 . S
C1017 C1013 1.376 1_455 S
C1017 C1016 1.392 . S
C1017 H1029 0.929 . S
C1018 C1014 1.531 . S
C1018 H1030 0.960 . S
C1018 H1031 0.962 1_556 S
C1018 H1032 0.960 . S
C1019 C1016 1.511 . S
C1019 H1033 0.961 . S
C1019 H1034 0.961 . S
C1019 H1035 0.961 . S
C1020 C1021 1.370 1_554 S
C1020 C1022 1.363 . S
C1020 H1036 0.931 . S
C1021 C1020 1.370 1_556 S
C1021 C1025 1.408 . S
C1022 C1020 1.363 . S
C1022 C1023 1.370 1_554 S
C1022 C1026 1.524 . S
C1023 C1015 1.504 1_455 S
C1023 C1022 1.370 1_556 S
C1023 C1024 1.403 . S
C1024 C1023 1.403 . S
C1024 C1025 1.404 . S
C1024 C1027 1.539 1_455 S
C1025 C1021 1.408 . S
C1025 C1024 1.404 . S
C1025 H1037 0.930 . S
C1026 C1022 1.524 . S
C1026 H1038 0.956 1_455 S
C1026 H1039 0.961 . S
C1026 H1040 0.961 . S
C1027 C1024 1.539 1_655 S
C1027 H1041 0.958 . S
C1027 H1042 0.961 1_655 S
C1027 H1043 0.960 1_655 S
H1028 C1012 0.931 . S
H1029 C1017 0.929 . S
H1030 C1018 0.960 . S
H1031 C1018 0.962 1_554 S
H1032 C1018 0.960 . S
H1033 C1019 0.961 . S
H1034 C1019 0.961 . S
H1035 C1019 0.961 . S
H1036 C1020 0.931 . S
H1037 C1025 0.930 . S
H1038 C1026 0.956 1_655 S
H1039 C1026 0.961 . S
H1040 C1026 0.961 . S
H1041 C1027 0.958 . S
H1042 C1027 0.961 1_455 S
H1043 C1027 0.960 1_455 S
C1044 C1045 1.391 . S
C1044 C1046 1.394 . S
C1044 H1060 0.931 . S
C1045 C1044 1.391 . S
C1045 C1049 1.376 . S
C1046 C1044 1.394 . S
C1046 C1047 1.369 . S
C1046 C1050 1.531 . S
C1047 C1046 1.369 . S
C1047 C1048 1.410 . S
C1047 C1055 1.503 . S
C1048 C1047 1.410 . S
C1048 C1049 1.392 . S
C1048 C1051 1.511 . S
C1049 C1045 1.376 . S
C1049 C1048 1.392 . S
C1049 H1061 0.929 . S
C1050 C1046 1.531 . S
C1050 H1062 0.960 . S
C1050 H1063 0.962 . S
C1050 H1064 0.960 1_554 S
C1051 C1048 1.511 . S
C1051 H1065 0.961 . S
C1051 H1066 0.961 . S
C1051 H1067 0.961 . S
C1052 C1053 1.370 . S
C1052 C1054 1.363 . S
C1052 H1068 0.931 . S
C1053 C1052 1.370 . S
C1053 C1057 1.408 . S
C1054 C1052 1.363 . S
C1054 C1055 1.370 . S
C1054 C1058 1.524 . S
C1055 C1047 1.503 . S
C1055 C1054 1.370 . S
C1055 C1056 1.403 . S
C1056 C1055 1.403 . S
C1056 C1057 1.404 . S
C1056 C1059 1.539 1_554 S
C1057 C1053 1.408 . S
C1057 C1056 1.404 . S
C1057 H1069 0.930 . S
C1058 C1054 1.524 . S
C1058 H1070 0.956 . S
C1058 H1071 0.961 . S
C1058 H1072 0.961 . S
C1059 C1056 1.539 1_556 S
C1059 H1073 0.958 . S
C1059 H1074 0.961 . S
C1059 H1075 0.968 . S
H1060 C1044 0.931 . S
H1061 C1049 0.929 . S
H1062 C1050 0.960 . S
H1063 C1050 0.962 . S
H1064 C1050 0.960 1_556 S
H1065 C1051 0.961 . S
H1066 C1051 0.961 . S
H1067 C1051 0.961 . S
H1068 C1052 0.931 . S
H1069 C1057 0.930 . S
H1070 C1058 0.956 . S
H1071 C1058 0.961 . S
H1072 C1058 0.961 . S
H1073 C1059 0.958 . S
H1074 C1059 0.961 . S
H1075 C1059 0.968 . S
C1076 C1077 1.391 . S
C1076 C1078 1.394 . S
C1076 H1092 0.931 . S
C1077 C1076 1.391 . S
C1077 C1081 1.376 . S
C1078 C1076 1.394 . S
C1078 C1079 1.369 . S
C1078 C1082 1.531 1_455 S
C1079 C1078 1.369 . S
C1079 C1080 1.410 . S
C1079 C1087 1.503 . S
C1080 C1079 1.410 . S
C1080 C1081 1.392 . S
C1080 C1083 1.511 . S
C1081 C1077 1.376 . S
C1081 C1080 1.392 . S
C1081 H1093 0.929 . S
C1082 C1078 1.531 1_655 S
C1082 H1094 0.960 1_655 S
C1082 H1095 0.962 . S
C1082 H1096 0.960 . S
C1083 C1080 1.511 . S
C1083 H1097 0.961 . S
C1083 H1098 0.961 . S
C1083 H1099 0.961 . S
C1084 C1085 1.370 . S
C1084 C1086 1.363 . S
C1084 H1100 0.931 1_455 S
C1085 C1084 1.370 . S
C1085 C1089 1.408 . S
C1086 C1084 1.363 . S
C1086 C1087 1.370 . S
C1086 C1090 1.524 1_455 S
C1087 C1079 1.503 . S
C1087 C1086 1.370 . S
C1087 C1088 1.403 . S
C1088 C1087 1.403 . S
C1088 C1089 1.404 . S
C1088 C1091 1.539 . S
C1089 C1085 1.408 . S
C1089 C1088 1.404 . S
C1089 H1101 0.930 . S
C1090 C1086 1.524 1_655 S
C1090 H1102 0.956 . S
C1090 H1103 0.961 1_655 S
C1090 H1104 0.961 . S
C1091 C1088 1.539 . S
C1091 H1105 0.958 . S
C1091 H1106 0.961 . S
C1091 H1107 0.960 . S
H1092 C1076 0.931 . S
H1093 C1081 0.929 . S
H1094 C1082 0.960 1_455 S
H1095 C1082 0.962 . S
H1096 C1082 0.960 . S
H1097 C1083 0.961 . S
H1098 C1083 0.961 . S
H1099 C1083 0.961 . S
H1100 C1084 0.931 1_655 S
H1101 C1089 0.930 . S
H1102 C1090 0.956 . S
H1103 C1090 0.961 1_455 S
H1104 C1090 0.961 . S
H1105 C1091 0.958 . S
H1106 C1091 0.961 . S
H1107 C1091 0.960 . S
C1108 C1109 1.391 . S
C1108 C1110 1.394 . S
C1108 H1124 0.931 . S
C1109 C1108 1.391 . S
C1109 C1113 1.376 . S
C1110 C1108 1.394 . S
C1110 C1111 1.369 . S
C1110 C1114 1.531 . S
C1111 C1110 1.369 . S
C1111 C1112 1.410 . S
C1111 C1119 1.503 . S
C1112 C1111 1.410 . S
C1112 C1113 1.392 . S
C1112 C1115 1.511 . S
C1113 C1109 1.376 . S
C1113 C1112 1.392 . S
C1113 H1125 0.929 . S
C1114 C1110 1.531 . S
C1114 H1126 0.960 . S
C1114 H1127 0.962 . S
C1114 H1128 0.960 . S
C1115 C1112 1.511 . S
C1115 H1129 0.961 . S
C1115 H1130 0.961 . S
C1115 H1131 0.961 . S
C1116 C1117 1.370 . S
C1116 C1118 1.363 . S
C1116 H1132 0.931 . S
C1117 C1116 1.370 . S
C1117 C1121 1.408 . S
C1118 C1116 1.363 . S
C1118 C1119 1.370 . S
C1118 C1122 1.524 . S
C1119 C1111 1.503 . S
C1119 C1118 1.370 . S
C1119 C1120 1.403 . S
C1120 C1119 1.403 . S
C1120 C1121 1.404 . S
C1120 C1123 1.539 . S
C1121 C1117 1.408 . S
C1121 C1120 1.404 . S
C1121 H1133 0.930 . S
C1122 C1118 1.524 . S
C1122 H1134 0.956 . S
C1122 H1135 0.961 . S
C1122 H1136 0.961 . S
C1123 C1120 1.539 . S
C1123 H1137 0.958 . S
C1123 H1138 0.961 . S
C1123 H1139 0.960 . S
H1124 C1108 0.931 . S
H1125 C1113 0.929 . S
H1126 C1114 0.960 . S
H1127 C1114 0.962 . S
H1128 C1114 0.960 . S
H1129 C1115 0.961 . S
H1130 C1115 0.961 . S
H1131 C1115 0.961 . S
H1132 C1116 0.931 . S
H1133 C1121 0.930 . S
H1134 C1122 0.956 . S
H1135 C1122 0.961 . S
H1136 C1122 0.961 . S
H1137 C1123 0.958 . S
H1138 C1123 0.961 . S
H1139 C1123 0.960 . S
C373 C1 1.529 . S
C381 C291 1.447 . S
C405 C67 1.519 . S
C413 C325 1.401 . S
C445 C337 1.375 . S
C437 C97 1.490 . S
C469 C133 1.505 . S
C477 C371 1.396 . S
C509 C328 1.406 . S
C501 C25 1.527 . S
C541 C308 1.392 . S
C533 C37 1.509 . S
C573 C355 1.400 . S
C565 C103 1.498 . S
C605 C346 1.400 . S
C597 C109 1.509 . S
C629 C31 1.521 . S
C637 C354 1.444 . S
C669 C316 1.405 . S
C661 C73 1.487 . S
C693 C139 1.511 . S
C701 C292 1.417 . S
C725 C61 1.494 . S
C733 C349 1.411 . S
C765 C307 1.636 . S
C757 C175 1.755 . S
C789 C181 1.699 . S
C797 C329 1.606 . S
C821 C247 1.741 . S
C829 C334 1.653 . S
C853 C277 1.770 . S
C861 C367 1.644 . S
C885 C145 1.752 . S
C893 C312 1.632 . S
C925 C304 1.661 . S
C917 C211 1.676 . S
C957 C358 1.640 . S
C949 C217 1.720 . S
C989 C350 1.633 . S
C981 C283 1.722 . S
C1013 C169 1.699 . S
C1021 C370 1.602 . S
C1053 C313 1.649 . S
C1045 C241 1.755 . S
C1085 C295 1.632 . S
C1077 C253 1.725 . S
C1109 C205 1.670 . S
C1117 C333 1.621 . S
