# Generated by pormake.
# Topology llk, (3,12)-cn, num edge types: 1
# Building blocks:
#     Node 0, Type 0, BuildingBlock: PAMTOO_clean_linker_0, # of connection points: 3
#     Node 1, Type 0, BuildingBlock: PAMTOO_clean_linker_0, # of connection points: 3
#     Node 2, Type 0, BuildingBlock: PAMTOO_clean_linker_0, # of connection points: 3
#     Node 3, Type 0, BuildingBlock: PAMTOO_clean_linker_0, # of connection points: 3
#     Node 4, Type 0, BuildingBlock: PAMTOO_clean_linker_0, # of connection points: 3
#     Node 5, Type 0, BuildingBlock: PAMTOO_clean_linker_0, # of connection points: 3
#     Node 6, Type 0, BuildingBlock: PAMTOO_clean_linker_0, # of connection points: 3
#     Node 7, Type 0, BuildingBlock: PAMTOO_clean_linker_0, # of connection points: 3
#     Node 8, Type 0, BuildingBlock: PAMTOO_clean_linker_0, # of connection points: 3
#     Node 9, Type 0, BuildingBlock: PAMTOO_clean_linker_0, # of connection points: 3
#     Node 10, Type 0, BuildingBlock: PAMTOO_clean_linker_0, # of connection points: 3
#     Node 11, Type 0, BuildingBlock: PAMTOO_clean_linker_0, # of connection points: 3
#     Node 12, Type 0, BuildingBlock: PAMTOO_clean_linker_0, # of connection points: 3
#     Node 13, Type 0, BuildingBlock: PAMTOO_clean_linker_0, # of connection points: 3
#     Node 14, Type 0, BuildingBlock: PAMTOO_clean_linker_0, # of connection points: 3
#     Node 15, Type 0, BuildingBlock: PAMTOO_clean_linker_0, # of connection points: 3
#     Node 16, Type 0, BuildingBlock: PAMTOO_clean_linker_0, # of connection points: 3
#     Node 17, Type 0, BuildingBlock: PAMTOO_clean_linker_0, # of connection points: 3
#     Node 18, Type 0, BuildingBlock: PAMTOO_clean_linker_0, # of connection points: 3
#     Node 19, Type 0, BuildingBlock: PAMTOO_clean_linker_0, # of connection points: 3
#     Node 20, Type 0, BuildingBlock: PAMTOO_clean_linker_0, # of connection points: 3
#     Node 21, Type 0, BuildingBlock: PAMTOO_clean_linker_0, # of connection points: 3
#     Node 22, Type 0, BuildingBlock: PAMTOO_clean_linker_0, # of connection points: 3
#     Node 23, Type 0, BuildingBlock: PAMTOO_clean_linker_0, # of connection points: 3
#     Node 24, Type 1, BuildingBlock: QEWDON_clean_sbu_0, # of connection points: 12
#     Node 25, Type 1, BuildingBlock: QEWDON_clean_sbu_0, # of connection points: 12
#     Node 26, Type 1, BuildingBlock: QEWDON_clean_sbu_0, # of connection points: 12
#     Node 27, Type 1, BuildingBlock: QEWDON_clean_sbu_0, # of connection points: 12
#     Node 28, Type 1, BuildingBlock: QEWDON_clean_sbu_0, # of connection points: 12
#     Node 29, Type 1, BuildingBlock: QEWDON_clean_sbu_0, # of connection points: 12
#     Edge 30, Type (0, 1), BuildingBlock: AJUNOK_clean_linker_0, # of connection points: 2
#     Edge 31, Type (0, 1), BuildingBlock: AJUNOK_clean_linker_0, # of connection points: 2
#     Edge 32, Type (0, 1), BuildingBlock: AJUNOK_clean_linker_0, # of connection points: 2
#     Edge 33, Type (0, 1), BuildingBlock: AJUNOK_clean_linker_0, # of connection points: 2
#     Edge 34, Type (0, 1), BuildingBlock: AJUNOK_clean_linker_0, # of connection points: 2
#     Edge 35, Type (0, 1), BuildingBlock: AJUNOK_clean_linker_0, # of connection points: 2
#     Edge 36, Type (0, 1), BuildingBlock: AJUNOK_clean_linker_0, # of connection points: 2
#     Edge 37, Type (0, 1), BuildingBlock: AJUNOK_clean_linker_0, # of connection points: 2
#     Edge 38, Type (0, 1), BuildingBlock: AJUNOK_clean_linker_0, # of connection points: 2
#     Edge 39, Type (0, 1), BuildingBlock: AJUNOK_clean_linker_0, # of connection points: 2
#     Edge 40, Type (0, 1), BuildingBlock: AJUNOK_clean_linker_0, # of connection points: 2
#     Edge 41, Type (0, 1), BuildingBlock: AJUNOK_clean_linker_0, # of connection points: 2
#     Edge 42, Type (0, 1), BuildingBlock: AJUNOK_clean_linker_0, # of connection points: 2
#     Edge 43, Type (0, 1), BuildingBlock: AJUNOK_clean_linker_0, # of connection points: 2
#     Edge 44, Type (0, 1), BuildingBlock: AJUNOK_clean_linker_0, # of connection points: 2
#     Edge 45, Type (0, 1), BuildingBlock: AJUNOK_clean_linker_0, # of connection points: 2
#     Edge 46, Type (0, 1), BuildingBlock: AJUNOK_clean_linker_0, # of connection points: 2
#     Edge 47, Type (0, 1), BuildingBlock: AJUNOK_clean_linker_0, # of connection points: 2
#     Edge 48, Type (0, 1), BuildingBlock: AJUNOK_clean_linker_0, # of connection points: 2
#     Edge 49, Type (0, 1), BuildingBlock: AJUNOK_clean_linker_0, # of connection points: 2
#     Edge 50, Type (0, 1), BuildingBlock: AJUNOK_clean_linker_0, # of connection points: 2
#     Edge 51, Type (0, 1), BuildingBlock: AJUNOK_clean_linker_0, # of connection points: 2
#     Edge 52, Type (0, 1), BuildingBlock: AJUNOK_clean_linker_0, # of connection points: 2
#     Edge 53, Type (0, 1), BuildingBlock: AJUNOK_clean_linker_0, # of connection points: 2
#     Edge 54, Type (0, 1), BuildingBlock: AJUNOK_clean_linker_0, # of connection points: 2
#     Edge 55, Type (0, 1), BuildingBlock: AJUNOK_clean_linker_0, # of connection points: 2
#     Edge 56, Type (0, 1), BuildingBlock: AJUNOK_clean_linker_0, # of connection points: 2
#     Edge 57, Type (0, 1), BuildingBlock: AJUNOK_clean_linker_0, # of connection points: 2
#     Edge 58, Type (0, 1), BuildingBlock: AJUNOK_clean_linker_0, # of connection points: 2
#     Edge 59, Type (0, 1), BuildingBlock: AJUNOK_clean_linker_0, # of connection points: 2
#     Edge 60, Type (0, 1), BuildingBlock: AJUNOK_clean_linker_0, # of connection points: 2
#     Edge 61, Type (0, 1), BuildingBlock: AJUNOK_clean_linker_0, # of connection points: 2
#     Edge 62, Type (0, 1), BuildingBlock: AJUNOK_clean_linker_0, # of connection points: 2
#     Edge 63, Type (0, 1), BuildingBlock: AJUNOK_clean_linker_0, # of connection points: 2
#     Edge 64, Type (0, 1), BuildingBlock: AJUNOK_clean_linker_0, # of connection points: 2
#     Edge 65, Type (0, 1), BuildingBlock: AJUNOK_clean_linker_0, # of connection points: 2
#     Edge 66, Type (0, 1), BuildingBlock: AJUNOK_clean_linker_0, # of connection points: 2
#     Edge 67, Type (0, 1), BuildingBlock: AJUNOK_clean_linker_0, # of connection points: 2
#     Edge 68, Type (0, 1), BuildingBlock: AJUNOK_clean_linker_0, # of connection points: 2
#     Edge 69, Type (0, 1), BuildingBlock: AJUNOK_clean_linker_0, # of connection points: 2
#     Edge 70, Type (0, 1), BuildingBlock: AJUNOK_clean_linker_0, # of connection points: 2
#     Edge 71, Type (0, 1), BuildingBlock: AJUNOK_clean_linker_0, # of connection points: 2
#     Edge 72, Type (0, 1), BuildingBlock: AJUNOK_clean_linker_0, # of connection points: 2
#     Edge 73, Type (0, 1), BuildingBlock: AJUNOK_clean_linker_0, # of connection points: 2
#     Edge 74, Type (0, 1), BuildingBlock: AJUNOK_clean_linker_0, # of connection points: 2
#     Edge 75, Type (0, 1), BuildingBlock: AJUNOK_clean_linker_0, # of connection points: 2
#     Edge 76, Type (0, 1), BuildingBlock: AJUNOK_clean_linker_0, # of connection points: 2
#     Edge 77, Type (0, 1), BuildingBlock: AJUNOK_clean_linker_0, # of connection points: 2
#     Edge 78, Type (0, 1), BuildingBlock: AJUNOK_clean_linker_0, # of connection points: 2
#     Edge 79, Type (0, 1), BuildingBlock: AJUNOK_clean_linker_0, # of connection points: 2
#     Edge 80, Type (0, 1), BuildingBlock: AJUNOK_clean_linker_0, # of connection points: 2
#     Edge 81, Type (0, 1), BuildingBlock: AJUNOK_clean_linker_0, # of connection points: 2
#     Edge 82, Type (0, 1), BuildingBlock: AJUNOK_clean_linker_0, # of connection points: 2
#     Edge 83, Type (0, 1), BuildingBlock: AJUNOK_clean_linker_0, # of connection points: 2
#     Edge 84, Type (0, 1), BuildingBlock: AJUNOK_clean_linker_0, # of connection points: 2
#     Edge 85, Type (0, 1), BuildingBlock: AJUNOK_clean_linker_0, # of connection points: 2
#     Edge 86, Type (0, 1), BuildingBlock: AJUNOK_clean_linker_0, # of connection points: 2
#     Edge 87, Type (0, 1), BuildingBlock: AJUNOK_clean_linker_0, # of connection points: 2
#     Edge 88, Type (0, 1), BuildingBlock: AJUNOK_clean_linker_0, # of connection points: 2
#     Edge 89, Type (0, 1), BuildingBlock: AJUNOK_clean_linker_0, # of connection points: 2
#     Edge 90, Type (0, 1), BuildingBlock: AJUNOK_clean_linker_0, # of connection points: 2
#     Edge 91, Type (0, 1), BuildingBlock: AJUNOK_clean_linker_0, # of connection points: 2
#     Edge 92, Type (0, 1), BuildingBlock: AJUNOK_clean_linker_0, # of connection points: 2
#     Edge 93, Type (0, 1), BuildingBlock: AJUNOK_clean_linker_0, # of connection points: 2
#     Edge 94, Type (0, 1), BuildingBlock: AJUNOK_clean_linker_0, # of connection points: 2
#     Edge 95, Type (0, 1), BuildingBlock: AJUNOK_clean_linker_0, # of connection points: 2
#     Edge 96, Type (0, 1), BuildingBlock: AJUNOK_clean_linker_0, # of connection points: 2
#     Edge 97, Type (0, 1), BuildingBlock: AJUNOK_clean_linker_0, # of connection points: 2
#     Edge 98, Type (0, 1), BuildingBlock: AJUNOK_clean_linker_0, # of connection points: 2
#     Edge 99, Type (0, 1), BuildingBlock: AJUNOK_clean_linker_0, # of connection points: 2
#     Edge 100, Type (0, 1), BuildingBlock: AJUNOK_clean_linker_0, # of connection points: 2
#     Edge 101, Type (0, 1), BuildingBlock: AJUNOK_clean_linker_0, # of connection points: 2
# Relax obj value: 0.096
# Max RMSD: 0.172
# Mean RMSD: 0.130
data_MOF--net-llk--node1-QEWDON_clean_sbu_0--node2-PAMTOO_clean_linker_0--edge1-AJUNOK_clean_linker_0
_symmetry_space_group_name_H-M    P1
_symmetry_Int_Tables_number       1
_symmetry_cell_setting            triclinic
loop_
_symmetry_equiv_pos_as_xyz
'x, y, z'
_cell_length_a     35.142034
_cell_length_b     36.868682
_cell_length_c     36.190624
_cell_angle_alpha  89.962952
_cell_angle_beta   89.685649
_cell_angle_gamma 89.745178
loop_
_atom_site_label
_atom_site_type_symbol
_atom_site_fract_x
_atom_site_fract_y
_atom_site_fract_z
_atom_type_partial_charge
H0 H 0.03195 0.3753 0.25368 0.0
H1 H 0.03903 0.28255 0.32543 0.0
H2 H 0.05413 0.26954 0.20804 0.0
H3 H 0.02407 0.19395 0.24955 0.0
C4 C 0.02215 0.21225 0.27387 0.0
O5 O 0.05255 0.23594 0.27289 0.0
H6 H -0.00549 0.22697 0.27118 0.0
C7 C 0.03629 0.34639 0.25752 0.0
C8 C 0.04294 0.32439 0.22662 0.0
C9 C 0.03422 0.33161 0.29312 0.0
C10 C 0.04089 0.29445 0.29809 0.0
C11 C 0.04806 0.27205 0.26755 0.0
C12 C 0.04921 0.28699 0.23168 0.0
H13 H 0.739 0.03974 0.31847 0.0
H14 H 0.6947 0.03922 0.2082 0.0
H15 H 0.81591 0.04347 0.22597 0.0
H16 H 0.77346 0.07142 0.13038 0.0
C17 C 0.75119 0.06797 0.15195 0.0
O18 O 0.76242 0.04083 0.1759 0.0
H19 H 0.74824 0.09431 0.16677 0.0
C20 C 0.74373 0.04042 0.28879 0.0
C21 C 0.78074 0.04114 0.27504 0.0
C22 C 0.71271 0.04056 0.26498 0.0
C23 C 0.71874 0.04003 0.22676 0.0
C24 C 0.75611 0.04193 0.21268 0.0
C25 C 0.78714 0.04294 0.23687 0.0
H26 H 0.02935 0.77684 0.35541 0.0
H27 H 0.02684 0.69858 0.26727 0.0
H28 H 0.01359 0.81204 0.24314 0.0
H29 H 0.97113 0.7588 0.18341 0.0
C30 C 0.98285 0.73555 0.1993 0.0
O31 O 0.01718 0.74581 0.21468 0.0
H32 H 0.96149 0.72896 0.2211 0.0
C33 C 0.0281 0.77063 0.32612 0.0
C34 C 0.02251 0.79872 0.30073 0.0
C35 C 0.02941 0.73445 0.31445 0.0
C36 C 0.02687 0.7265 0.27663 0.0
C37 C 0.02119 0.75432 0.25087 0.0
C38 C 0.01882 0.79056 0.26293 0.0
H39 H 0.3534 0.99053 0.25586 0.0
H40 H 0.23658 0.98829 0.29158 0.0
H41 H 0.26299 0.9998 0.17633 0.0
H42 H 0.16668 0.0261 0.20403 0.0
C43 C 0.18661 0.02503 0.22772 0.0
O44 O 0.20829 0.99381 0.22502 0.0
H45 H 0.20468 0.04974 0.22559 0.0
C46 C 0.32336 0.99133 0.24923 0.0
C47 C 0.31188 0.99564 0.21238 0.0
C48 C 0.29641 0.98966 0.27796 0.0
C49 C 0.2576 0.98983 0.26962 0.0
C50 C 0.24577 0.993 0.23291 0.0
C51 C 0.27273 0.99613 0.20444 0.0
H52 H 0.97449 0.66341 0.75883 0.0
H53 H 0.98819 0.75162 0.68204 0.0
H54 H -0.00049 0.77042 0.79849 0.0
H55 H 0.95852 0.83671 0.75339 0.0
C56 C 0.96825 0.82569 0.72634 0.0
O57 O -0.00271 0.80101 0.73224 0.0
H58 H 0.94327 0.81236 0.71338 0.0
C59 C 0.97907 0.692 0.7533 0.0
C60 C 0.98806 0.71492 0.78269 0.0
C61 C 0.98028 0.7043 0.71671 0.0
C62 C 0.98581 0.74143 0.71003 0.0
C63 C -0.00914 0.76555 0.73954 0.0
C64 C -0.00728 0.75222 0.77601 0.0
H65 H 0.36804 0.01414 0.77895 0.0
H66 H 0.2651 0.02065 0.7161 0.0
H67 H 0.26101 0.983 0.82825 0.0
H68 H 0.18395 0.95416 0.76737 0.0
C69 C 0.2061 0.96718 0.7499 0.0
O70 O 0.22109 0.99626 0.76879 0.0
H71 H 0.22807 0.94593 0.74431 0.0
C72 C 0.33749 0.01051 0.7772 0.0
C73 C 0.31681 0.99842 0.8081 0.0
C74 C 0.31917 0.01781 0.74386 0.0
C75 C 0.2796 0.01455 0.74172 0.0
C76 C 0.25888 1.00141 0.77192 0.0
C77 C 0.27741 0.99304 0.805 0.0
H78 H -0.00226 0.28265 0.64842 0.0
H79 H 0.00786 0.34623 0.74689 0.0
H80 H 0.01926 0.23036 0.75273 0.0
H81 H 0.0039 0.27282 0.83867 0.0
C82 C 0.00019 0.29639 0.81987 0.0
O83 O 0.02448 0.29182 0.79002 0.0
H84 H 0.96995 0.29644 0.81075 0.0
C85 C 0.00028 0.2841 0.67823 0.0
C86 C 0.00652 0.25214 0.69846 0.0
C87 C 0.0015 0.31806 0.69534 0.0
C88 C 0.00647 0.31997 0.73367 0.0
C89 C 0.01281 0.28856 0.75449 0.0
C90 C 0.01239 0.25447 0.73695 0.0
H91 H 0.79939 0.01398 0.68692 0.0
H92 H 0.70536 0.02805 0.76174 0.0
H93 H 0.82012 0.03997 0.80089 0.0
H94 H 0.72635 0.09086 0.80626 0.0
C95 C 0.73295 0.07343 0.83056 0.0
O96 O 0.74732 0.04007 0.81983 0.0
H97 H 0.75481 0.08778 0.84704 0.0
C98 C 0.78874 0.0184 0.7148 0.0
C99 C 0.8143 0.02542 0.74331 0.0
C100 C 0.74971 0.02033 0.72089 0.0
C101 C 0.73575 0.02648 0.75668 0.0
C102 C 0.76112 0.03323 0.78565 0.0
C103 C 0.80058 0.03329 0.7789 0.0
H104 H 0.23928 0.36843 0.02102 0.0
H105 H 0.30261 0.26928 0.00879 0.0
H106 H 0.18069 0.26822 0.00081 0.0
H107 H 0.23076 0.17852 0.01765 0.0
C108 C 0.24953 0.20186 0.0238 0.0
O109 O 0.24288 0.22873 -0.00195 0.0
H110 H 0.24185 0.21152 0.05204 0.0
C111 C 0.23977 0.33914 0.01799 0.0
C112 C 0.20566 0.32062 0.01156 0.0
C113 C 0.27481 0.321 0.01655 0.0
C114 C 0.27561 0.28344 0.01117 0.0
C115 C 0.24157 0.26432 0.00668 0.0
C116 C 0.20656 0.28282 0.00705 0.0
H117 H 0.22633 0.68282 0.03887 0.0
H118 H 0.28957 0.77692 0.00465 0.0
H119 H 0.16795 0.78111 0.00945 0.0
H120 H 0.22573 0.84116 0.04913 0.0
C121 C 0.23112 0.84862 0.01972 0.0
O122 O 0.23014 0.81857 -0.00302 0.0
H123 H 0.20754 0.86719 0.01183 0.0
C124 C 0.22728 0.71143 0.03187 0.0
C125 C 0.19314 0.72999 0.02583 0.0
C126 C 0.26225 0.72748 0.02315 0.0
C127 C 0.26308 0.76422 0.01275 0.0
C128 C 0.22917 0.78409 0.00978 0.0
C129 C 0.19414 0.76679 0.01563 0.0
H130 H 0.81795 0.36334 0.02259 0.0
H131 H 0.74881 0.26852 0.00678 0.0
H132 H 0.87077 0.26009 0.00205 0.0
H133 H 0.82055 0.18577 0.96431 0.0
C134 C 0.79727 0.20528 0.97066 0.0
O135 O 0.8062 0.22362 0.0028 0.0
H136 H 0.79514 0.22449 0.94695 0.0
C137 C 0.81511 0.33471 0.01644 0.0
C138 C 0.8481 0.31397 0.01109 0.0
C139 C 0.779 0.31926 0.01337 0.0
C140 C 0.77634 0.28149 0.00855 0.0
C141 C 0.80931 0.26009 0.00515 0.0
C142 C 0.84533 0.27646 0.00558 0.0
H143 H 0.77134 0.67915 0.0008 0.0
H144 H 0.71316 0.77935 0.9795 0.0
H145 H 0.83534 0.77449 0.97234 0.0
H146 H 0.78891 0.86509 0.99325 0.0
C147 C 0.76923 0.84193 -0.00262 0.0
O148 O 0.7753 0.81705 0.96947 0.0
H149 H 0.77611 0.83026 0.02497 0.0
C150 C 0.77226 0.70755 0.99303 0.0
C151 C 0.80731 0.7238 0.9848 0.0
C152 C 0.73825 0.7272 0.99109 0.0
C153 C 0.73931 0.76383 0.98125 0.0
C154 C 0.77439 0.78104 0.9757 0.0
C155 C 0.80842 0.76109 0.97736 0.0
H156 H 0.52789 0.87622 0.75712 0.0
H157 H 0.54853 0.77902 0.82036 0.0
H158 H 0.54678 0.77441 0.70185 0.0
H159 H 0.53115 0.68954 0.74373 0.0
C160 C 0.52486 0.71087 0.76454 0.0
O161 O 0.5537 0.73635 0.76331 0.0
H162 H 0.49714 0.72336 0.75656 0.0
C163 C 0.53373 0.84734 0.75845 0.0
C164 C 0.5372 0.82758 0.7255 0.0
C165 C 0.53768 0.8303 0.79296 0.0
C166 C 0.54478 0.79276 0.79416 0.0
C167 C 0.54728 0.77254 0.76149 0.0
C168 C 0.54409 0.79003 0.72709 0.0
H169 H 0.29387 0.5357 0.84573 0.0
H170 H 0.24354 0.52894 0.73785 0.0
H171 H 0.36527 0.53076 0.74895 0.0
H172 H 0.32824 0.55579 0.65859 0.0
C173 C 0.30384 0.55551 0.67823 0.0
O174 O 0.30821 0.52658 0.70218 0.0
H175 H 0.30452 0.58188 0.69326 0.0
C176 C 0.2968 0.53494 0.8159 0.0
C177 C 0.33334 0.53434 0.8001 0.0
C178 C 0.26414 0.5336 0.7938 0.0
C179 C 0.26838 0.53031 0.75539 0.0
C180 C 0.30472 0.52972 0.73924 0.0
C181 C 0.33724 0.53162 0.76156 0.0
H182 H 0.47761 0.26938 0.84839 0.0
H183 H 0.48494 0.20241 0.75195 0.0
H184 H 0.48529 0.31842 0.74051 0.0
H185 H 0.44864 0.26593 0.66371 0.0
C186 C 0.45842 0.2431 0.68134 0.0
O187 O 0.48693 0.25538 0.70449 0.0
H188 H 0.4331 0.23395 0.69746 0.0
C189 C 0.47751 0.26686 0.8185 0.0
C190 C 0.48051 0.29808 0.79658 0.0
C191 C 0.47891 0.23235 0.80253 0.0
C192 C 0.48193 0.22903 0.76415 0.0
C193 C 0.48243 0.25977 0.74149 0.0
C194 C 0.48219 0.29458 0.75775 0.0
H195 H 0.82576 0.53661 0.77113 0.0
H196 H 0.72354 0.5057 0.82786 0.0
H197 H 0.72676 0.50583 0.70908 0.0
H198 H 0.63052 0.49502 0.75249 0.0
C199 C 0.65203 0.50956 0.76918 0.0
O200 O 0.68567 0.48999 0.76796 0.0
H201 H 0.6561 0.53662 0.75604 0.0
C202 C 0.79593 0.52924 0.77003 0.0
C203 C 0.77888 0.52291 0.73579 0.0
C204 C 0.7762 0.52352 0.80314 0.0
C205 C 0.73857 0.51128 0.80229 0.0
C206 C 0.7207 0.5051 0.76839 0.0
C207 C 0.7407 0.51117 0.73511 0.0
H208 H 0.49834 0.17899 0.26042 0.0
H209 H 0.49895 0.28026 0.20164 0.0
H210 H 0.49281 0.28 0.32023 0.0
H211 H 0.46218 0.36442 0.26807 0.0
C212 C 0.46872 0.34372 0.24668 0.0
O213 O 0.4972 0.32103 0.25986 0.0
H214 H 0.44212 0.32814 0.24193 0.0
C215 C 0.4971 0.20839 0.26066 0.0
C216 C 0.49574 0.22689 0.29458 0.0
C217 C 0.49877 0.22725 0.22711 0.0
C218 C 0.49756 0.26523 0.22735 0.0
C219 C 0.49489 0.28432 0.26062 0.0
C220 C 0.49358 0.26517 0.29441 0.0
H221 H 0.81718 0.52194 0.28594 0.0
H222 H 0.73508 0.50141 0.20104 0.0
H223 H 0.70225 0.49399 0.31567 0.0
H224 H 0.64734 0.44374 0.25352 0.0
C225 C 0.66605 0.45701 0.23274 0.0
O226 O 0.6783 0.48991 0.24659 0.0
H227 H 0.69042 0.43826 0.22739 0.0
C228 C 0.78832 0.5153 0.27786 0.0
C229 C 0.7608 0.50884 0.30507 0.0
C230 C 0.77957 0.51215 0.24048 0.0
C231 C 0.74237 0.50333 0.23003 0.0
C232 C 0.71448 0.49662 0.25706 0.0
C233 C 0.72379 0.49896 0.29477 0.0
H234 H 0.5648 0.76371 0.15209 0.0
H235 H 0.56033 0.84483 0.2372 0.0
H236 H 0.54722 0.73251 0.2654 0.0
H237 H 0.50439 0.78469 0.31856 0.0
C238 C 0.51768 0.80924 0.30626 0.0
O239 O 0.5528 0.7997 0.29166 0.0
H240 H 0.49802 0.81878 0.28417 0.0
C241 C 0.56368 0.77085 0.18117 0.0
C242 C 0.557 0.74364 0.20732 0.0
C243 C 0.5622 0.80746 0.19131 0.0
C244 C 0.56136 0.81663 0.22888 0.0
C245 C 0.55715 0.78967 0.25582 0.0
C246 C 0.55376 0.75307 0.24496 0.0
H247 H 0.30251 0.56295 0.16336 0.0
H248 H 0.22817 0.55567 0.25727 0.0
H249 H 0.34938 0.56151 0.273 0.0
H250 H 0.29245 0.52197 0.34866 0.0
C251 C 0.27372 0.52461 0.32418 0.0
O252 O 0.28241 0.55672 0.30631 0.0
H253 H 0.27964 0.50085 0.30596 0.0
C254 C 0.29854 0.56314 0.19313 0.0
C255 C 0.33028 0.56462 0.21631 0.0
C256 C 0.26192 0.55952 0.20751 0.0
C257 C 0.25658 0.55824 0.24581 0.0
C258 C 0.28804 0.55888 0.26943 0.0
C259 C 0.32507 0.56158 0.25472 0.0
H260 H 0.76272 0.8833 0.50125 0.0
H261 H 0.83842 0.79353 0.4812 0.0
H262 H 0.71723 0.77674 0.48226 0.0
H263 H 0.761 0.70593 0.50728 0.0
C264 C 0.78865 0.72 0.50379 0.0
O265 O 0.78513 0.745 0.47542 0.0
H266 H 0.79428 0.73385 0.53058 0.0
C267 C 0.76704 0.85474 0.49536 0.0
C268 C 0.73529 0.83207 0.49206 0.0
C269 C 0.8042 0.84148 0.49075 0.0
C270 C 0.80986 0.80432 0.48438 0.0
C271 C 0.77871 0.78085 0.48162 0.0
C272 C 0.74127 0.79482 0.48486 0.0
H273 H 0.74941 0.15731 0.48724 0.0
H274 H 0.83231 0.24251 0.49286 0.0
H275 H 0.71422 0.2663 0.51291 0.0
H276 H 0.7588 0.3291 0.46763 0.0
C277 C 0.78706 0.31753 0.47477 0.0
O278 O 0.78297 0.29411 0.50441 0.0
H279 H 0.79816 0.30248 0.45029 0.0
C280 C 0.75648 0.18551 0.492 0.0
C281 C 0.72754 0.20977 0.50234 0.0
C282 C 0.79459 0.19636 0.49027 0.0
C283 C 0.80307 0.23334 0.49386 0.0
C284 C 0.77395 0.25871 0.50043 0.0
C285 C 0.7362 0.24689 0.50551 0.0
H286 H 0.2526 0.87881 0.51134 0.0
H287 H 0.18682 0.78252 0.52751 0.0
H288 H 0.30851 0.7779 0.53895 0.0
H289 H 0.26882 0.69793 0.51014 0.0
C290 C 0.24307 0.71547 0.50937 0.0
O291 O 0.24465 0.7397 0.53852 0.0
H292 H 0.24433 0.72979 0.48223 0.0
C293 C 0.25159 0.85023 0.5184 0.0
C294 C 0.28538 0.83118 0.52602 0.0
C295 C 0.21627 0.83297 0.51935 0.0
C296 C 0.21414 0.79603 0.52733 0.0
C297 C 0.24739 0.77598 0.53331 0.0
C298 C 0.28308 0.79351 0.53311 0.0
H299 H 0.2715 0.17051 0.51533 0.0
H300 H 0.18824 0.25564 0.52297 0.0
H301 H 0.30735 0.282 0.51457 0.0
H302 H 0.25336 0.33668 0.56469 0.0
C303 C 0.22721 0.32859 0.5497 0.0
O304 O 0.23714 0.3086 0.51883 0.0
H305 H 0.2096 0.31204 0.56899 0.0
C306 C 0.26475 0.19924 0.51723 0.0
C307 C 0.29385 0.22474 0.51455 0.0
C308 C 0.22691 0.21011 0.5206 0.0
C309 C 0.21776 0.24703 0.52191 0.0
C310 C 0.2467 0.27307 0.52026 0.0
C311 C 0.28503 0.26195 0.51684 0.0
Zn312 Zn 0.95168 0.98445 0.4248 0.0
Zn313 Zn 0.94906 0.07113 0.43675 0.0
O314 O 0.9855 0.02895 0.42945 0.0
H315 H 0.00728 0.03018 0.41314 0.0
C316 C 0.91862 0.94898 0.52442 0.0
O317 O 0.91599 0.98239 0.51201 0.0
Zn318 Zn 0.08344 0.0692 0.57603 0.0
Zn319 Zn 0.06535 0.98338 0.57647 0.0
O320 O 0.04151 0.03339 0.57982 0.0
H321 H 0.02177 0.03674 0.5982 0.0
Zn322 Zn 0.96759 0.98571 0.57688 0.0
O323 O 0.97856 0.0299 0.54406 0.0
Zn324 Zn 0.96305 0.07269 0.5748 0.0
H325 H 0.98863 0.02989 0.51917 0.0
Zn326 Zn 0.05947 0.98148 0.42751 0.0
O327 O 0.05654 0.02399 0.46325 0.0
H328 H 0.0527 0.02325 0.48969 0.0
Zn329 Zn 0.07221 0.06648 0.43281 0.0
C330 C 0.09414 0.93048 0.48074 0.0
O331 O 0.08435 0.95469 0.50568 0.0
O332 O 0.90446 1.00068 0.39732 0.0
O333 O 0.9004 0.05962 0.41027 0.0
O334 O 0.11704 0.98696 0.60191 0.0
O335 O 0.12654 0.04671 0.60573 0.0
O336 O 0.9452 0.99796 0.62889 0.0
O337 O 0.93563 0.05669 0.61998 0.0
C338 C 0.00317 0.11807 0.40174 0.0
O339 O 0.08486 0.9942 0.37753 0.0
O340 O 0.10152 0.05139 0.38687 0.0
O341 O 0.03355 0.94103 0.59975 0.0
C342 C 0.88827 0.03138 0.39385 0.0
O343 O 0.97212 0.93586 0.40214 0.0
C344 C 0.03115 0.12255 0.60966 0.0
O345 O 0.94051 0.94258 0.55152 0.0
C346 C 0.1358 0.01403 0.61363 0.0
O347 O 0.08411 0.93501 0.44744 0.0
C348 C 0.9219 0.10132 0.51145 0.0
O349 O 0.96807 0.11487 0.40914 0.0
O350 O 0.02618 0.09574 0.41664 0.0
C351 C 0.93209 0.02845 0.63977 0.0
O352 O 0.0655 0.11347 0.60407 0.0
O353 O 0.0047 0.10338 0.59626 0.0
C354 C 0.1135 0.09946 0.4975 0.0
O355 O 0.9267 0.10228 0.54619 0.0
O356 O 0.94448 0.08264 0.49139 0.0
C357 C 0.10208 0.02275 0.36718 0.0
O358 O 0.10658 0.09643 0.46314 0.0
O359 O 0.09407 0.08084 0.52077 0.0
C360 C 0.02891 0.94343 0.63457 0.0
O361 O 0.04222 0.97221 0.65147 0.0
C362 C -0.00319 0.93504 0.37632 0.0
O363 O 0.01204 0.96545 0.36475 0.0
Zn364 Zn 0.45494 0.08209 0.04688 0.0
Zn365 Zn 0.45028 0.09039 0.95848 0.0
O366 O 0.4673 0.05685 -0.00115 0.0
H367 H 0.48432 0.03639 0.99616 0.0
C368 C 0.53277 0.13846 0.09864 0.0
O369 O 0.51386 0.10834 0.09294 0.0
Zn370 Zn 0.57077 0.96146 0.94858 0.0
Zn371 Zn 0.57538 0.96004 0.03776 0.0
O372 O 0.56182 0.99146 0.9938 0.0
H373 H 0.54709 0.01357 0.99525 0.0
Zn374 Zn 0.5848 0.1128 0.03868 0.0
O375 O 0.54909 0.09773 -0.00137 0.0
Zn376 Zn 0.58128 0.09374 0.95333 0.0
H377 H 0.52234 0.10368 -0.00032 0.0
Zn378 Zn 0.44623 0.95236 0.04746 0.0
O379 O 0.47713 0.95555 0.00097 0.0
H380 H 0.50282 0.9462 0.00016 0.0
Zn381 Zn 0.44009 0.95715 0.9596 0.0
C382 C 0.50653 0.92263 0.09703 0.0
O383 O 0.52581 0.95244 0.09077 0.0
O384 O 0.41467 0.12153 0.03957 0.0
O385 O 0.41353 0.12914 0.97879 0.0
O386 O 0.60612 0.91499 0.02263 0.0
O387 O 0.60627 0.91985 0.96138 0.0
O388 O 0.63777 0.12818 0.02033 0.0
O389 O 0.63451 0.11501 0.96059 0.0
C390 C 0.41554 0.02754 0.9254 0.0
O391 O 0.39285 0.93297 0.03664 0.0
O392 O 0.38874 0.93548 0.97529 0.0
O393 O 0.60714 0.98558 0.07748 0.0
C394 C 0.401 0.13687 0.01109 0.0
O395 O 0.44005 0.05122 0.0921 0.0
C396 C 0.60277 0.02527 0.91507 0.0
O397 O 0.56209 0.14514 0.07925 0.0
C398 C 0.61783 0.90466 0.99101 0.0
O399 O 0.47327 0.91934 0.08409 0.0
C400 C 0.51987 0.12426 0.90996 0.0
O401 O 0.41823 0.06183 0.92368 0.0
O402 O 0.43697 0.00998 0.94706 0.0
C403 C 0.65266 0.12773 0.98818 0.0
O404 O 0.60002 0.99115 0.91142 0.0
O405 O 0.58248 0.04124 0.93918 0.0
C406 C 0.49766 0.926 0.91309 0.0
O407 O 0.5558 0.12156 0.91307 0.0
O408 O 0.49895 0.10795 0.93347 0.0
C409 C 0.37486 0.92697 0.00684 0.0
O410 O 0.46183 0.92708 0.91793 0.0
O411 O 0.51813 0.94665 0.93271 0.0
C412 C 0.61218 0.01957 0.07989 0.0
O413 O 0.59229 0.0415 0.05881 0.0
C414 C 0.41155 0.03042 0.08887 0.0
O415 O 0.39688 0.02558 0.05592 0.0
Zn416 Zn 0.96031 0.48883 0.94221 0.0
Zn417 Zn 0.94875 0.57506 0.95688 0.0
O418 O 0.98479 0.5338 0.96507 0.0
H419 H -0.00283 0.53189 0.98874 0.0
C420 C 0.94541 0.43262 0.02908 0.0
O421 O 0.93997 0.46006 0.00658 0.0
Zn422 Zn 0.07752 0.57427 0.06201 0.0
Zn423 Zn 0.08398 0.4864 0.06729 0.0
O424 O 0.0457 0.52837 0.06372 0.0
H425 H 0.01995 0.5261 0.0549 0.0
Zn426 Zn 0.95837 0.49211 0.08166 0.0
O427 O 0.94531 0.53312 0.04647 0.0
Zn428 Zn 0.94452 0.5748 0.08264 0.0
H429 H 0.92734 0.52938 0.02674 0.0
Zn430 Zn 0.06824 0.48431 0.91894 0.0
O431 O 0.05817 0.52586 0.95466 0.0
H432 H 0.06466 0.52441 0.98053 0.0
Zn433 Zn 0.06312 0.56979 0.92299 0.0
C434 C 0.08205 0.41692 0.9696 0.0
O435 O 0.0513 0.42255 0.98963 0.0
O436 O 0.90798 0.49784 0.91963 0.0
O437 O 0.90304 0.55743 0.92773 0.0
O438 O 0.13095 0.50498 0.09374 0.0
O439 O 0.12855 0.56475 0.0856 0.0
O440 O 0.923 0.49897 0.12612 0.0
O441 O 0.91436 0.55875 0.12742 0.0
C442 C -0.00195 0.61603 0.90505 0.0
O443 O 0.10588 0.49997 0.87771 0.0
O444 O 0.10435 0.55973 0.88541 0.0
O445 O 0.07087 0.43471 0.08769 0.0
C446 C 0.88991 0.52752 0.91565 0.0
O447 O 0.98712 0.43998 0.92724 0.0
C448 C 0.01949 0.61357 0.1026 0.0
O449 O 0.95578 0.4392 0.06195 0.0
C450 C 0.14448 0.53647 0.09883 0.0
O451 O 0.08986 0.43793 0.94278 0.0
C452 C 0.91848 0.61903 0.02496 0.0
O453 O 0.97147 0.61662 0.92892 0.0
O454 O 0.01425 0.58584 0.89757 0.0
C455 C 0.9072 0.52707 0.1398 0.0
O456 O 0.05449 0.61357 0.09413 0.0
O457 O -0.00084 0.58806 0.08998 0.0
C458 C 0.09039 0.61516 0.98576 0.0
O459 O 0.91833 0.61781 0.05996 0.0
O460 O 0.93522 0.59356 0.0076 0.0
C461 C 0.11836 0.5315 0.87015 0.0
O462 O 0.08361 0.6112 0.95162 0.0
O463 O 0.07979 0.59022 0.00798 0.0
C464 C 0.04296 0.4286 0.10922 0.0
O465 O 0.01844 0.45486 0.11572 0.0
C466 C 0.00198 0.43632 0.89532 0.0
O467 O 0.00464 0.46498 0.87389 0.0
Zn468 Zn 0.46229 0.46307 0.9771 0.0
Zn469 Zn 0.4574 0.46183 0.0663 0.0
O470 O 0.47467 0.49236 0.0229 0.0
H471 H 0.47665 0.51844 0.02199 0.0
C472 C 0.51602 0.40349 0.90802 0.0
O473 O 0.48918 0.41698 0.92928 0.0
Zn474 Zn 0.57132 0.57705 0.06454 0.0
Zn475 Zn 0.55751 0.57882 0.97676 0.0
O476 O 0.54752 0.54857 0.02299 0.0
H477 H 0.54342 0.52273 0.02233 0.0
Zn478 Zn 0.57132 0.42746 0.96895 0.0
O479 O 0.53851 0.43363 0.01595 0.0
Zn480 Zn 0.57581 0.43912 0.05848 0.0
H481 H 0.51249 0.4255 0.01796 0.0
Zn482 Zn 0.45917 0.6033 0.96807 0.0
O483 O 0.49257 0.60029 0.01514 0.0
H484 H 0.51624 0.61341 0.0167 0.0
Zn485 Zn 0.45632 0.59776 0.05854 0.0
C486 C 0.50966 0.638 0.90806 0.0
O487 O 0.53722 0.63821 0.93234 0.0
O488 O 0.42295 0.4238 0.98857 0.0
O489 O 0.41801 0.4249 0.04998 0.0
O490 O 0.59187 0.62232 0.98681 0.0
O491 O 0.60985 0.61295 0.0448 0.0
O492 O 0.62508 0.40963 0.98339 0.0
O493 O 0.62494 0.41478 0.04492 0.0
C494 C 0.43522 0.52851 0.10605 0.0
O495 O 0.4062 0.6239 0.97997 0.0
O496 O 0.40881 0.62322 0.04136 0.0
O497 O 0.56723 0.55646 0.92457 0.0
C498 C 0.40795 0.41263 0.01854 0.0
O499 O 0.45283 0.48704 0.9256 0.0
C500 C 0.59577 0.50818 0.09861 0.0
O501 O 0.5504 0.40503 0.91893 0.0
C502 C 0.61207 0.63065 0.01453 0.0
O503 O 0.47762 0.62459 0.917 0.0
C504 C 0.5221 0.41784 0.11195 0.0
O505 O 0.43587 0.49401 0.10551 0.0
O506 O 0.44726 0.54577 0.07757 0.0
C507 C 0.64083 0.40529 0.01474 0.0
O508 O 0.59495 0.5426 0.10087 0.0
O509 O 0.5836 0.4926 0.0696 0.0
C510 C 0.51008 0.62768 0.11159 0.0
O511 O 0.55719 0.41431 0.10464 0.0
O512 O 0.50242 0.43639 0.08927 0.0
C513 C 0.3921 0.6314 0.01142 0.0
O514 O 0.47592 0.62715 0.10061 0.0
O515 O 0.5349 0.60873 0.09445 0.0
C516 C 0.59169 0.53151 0.91899 0.0
O517 O 0.60873 0.51669 0.94751 0.0
C518 C 0.43478 0.51678 0.92228 0.0
O519 O 0.42568 0.53486 0.95234 0.0
Zn520 Zn 0.9369 0.48353 0.44668 0.0
Zn521 Zn 0.93368 0.57047 0.4414 0.0
O522 O 0.96944 0.52839 0.44529 0.0
H523 H -0.00361 0.52766 0.44005 0.0
C524 C 0.87973 0.44276 0.51284 0.0
O525 O 0.8602 0.47255 0.51928 0.0
Zn526 Zn 0.08946 0.57553 0.5658 0.0
Zn527 Zn 0.09855 0.48853 0.56922 0.0
O528 O 0.06162 0.52909 0.55919 0.0
H529 H 0.03433 0.52609 0.55894 0.0
Zn530 Zn 0.93209 0.48527 0.55449 0.0
O531 O 0.95152 0.53135 0.53086 0.0
Zn532 Zn 0.94586 0.57123 0.56857 0.0
H533 H 0.97289 0.53082 0.51403 0.0
Zn534 Zn 0.081 0.49189 0.45883 0.0
O535 O 0.06373 0.54099 0.47868 0.0
H536 H 0.04181 0.54311 0.4947 0.0
Zn537 Zn 0.07159 0.57815 0.4389 0.0
C538 C 0.14036 0.4536 0.49538 0.0
O539 O 0.15764 0.4812 0.47977 0.0
O540 O 0.88139 0.49468 0.43199 0.0
O541 O 0.8831 0.55388 0.42013 0.0
O542 O 0.14949 0.50659 0.59019 0.0
O543 O 0.13966 0.56628 0.59277 0.0
O544 O 0.89696 0.49757 0.59775 0.0
O545 O 0.91234 0.55425 0.61233 0.0
C546 C -0.00502 0.61314 0.40827 0.0
O547 O 0.11508 0.49899 0.41363 0.0
O548 O 0.10728 0.55701 0.39887 0.0
O549 O 0.07543 0.44614 0.59841 0.0
C550 C 0.86558 0.52354 0.42002 0.0
O551 O 0.95849 0.44261 0.41394 0.0
C552 C 0.01973 0.60671 0.59921 0.0
O553 O 0.91399 0.44083 0.52366 0.0
C554 C 0.16021 0.5383 0.5993 0.0
O555 O 0.10426 0.45203 0.49324 0.0
C556 C 0.90957 0.61406 0.5126 0.0
O557 O 0.95902 0.60901 0.41061 0.0
O558 O 0.01674 0.59055 0.42446 0.0
C559 C 0.89258 0.52557 0.61785 0.0
O560 O 0.05597 0.60699 0.59754 0.0
O561 O 0.00104 0.5859 0.57806 0.0
C562 C 0.11125 0.62145 0.4932 0.0
O563 O 0.9158 0.61311 0.54703 0.0
O564 O 0.92575 0.59012 0.49262 0.0
C565 C 0.12332 0.52618 0.39357 0.0
O566 O 0.10133 0.62094 0.45945 0.0
O567 O 0.09635 0.59814 0.51485 0.0
C568 C 0.04125 0.43528 0.59619 0.0
O569 O 0.01821 0.4503 0.5721 0.0
C570 C -0.00873 0.428 0.41354 0.0
O571 O 0.01645 0.4373 0.43847 0.0
Zn572 Zn 0.45448 0.98448 0.44398 0.0
Zn573 Zn 0.42762 0.07164 0.44719 0.0
O574 O 0.47011 0.03604 0.45518 0.0
H575 H 0.49663 0.04186 0.45367 0.0
C576 C 0.42164 0.92163 0.52737 0.0
O577 O 0.45512 0.9078 0.5353 0.0
Zn578 Zn 0.58362 0.07876 0.57135 0.0
Zn579 Zn 0.57836 0.99062 0.56546 0.0
O580 O 0.54673 0.03605 0.57482 0.0
H581 H 0.52459 0.0346 0.5907 0.0
Zn582 Zn 0.45431 0.99261 0.55347 0.0
O583 O 0.47276 0.03917 0.52887 0.0
Zn584 Zn 0.46163 0.08085 0.56269 0.0
H585 H 0.49759 0.03861 0.51745 0.0
Zn586 Zn 0.56867 0.98886 0.43721 0.0
O587 O 0.56113 0.03362 0.47064 0.0
H588 H 0.56247 0.03271 0.49726 0.0
Zn589 Zn 0.56061 0.0787 0.43757 0.0
C590 C 0.61227 0.93508 0.4849 0.0
O591 O 0.61472 0.96235 0.50807 0.0
O592 O 0.40125 0.98601 0.42199 0.0
O593 O 0.38677 0.04492 0.41779 0.0
O594 O 0.63123 1.00108 0.58497 0.0
O595 O 0.63275 0.06092 0.59407 0.0
O596 O 0.43012 1.00496 0.60291 0.0
O597 O 0.42878 0.06534 0.60593 0.0
C598 C 0.48225 0.12035 0.41129 0.0
O599 O 0.58868 1.0043 0.38604 0.0
O600 O 0.58734 0.06455 0.39032 0.0
O601 O 0.56462 0.9417 0.59166 0.0
C602 C 0.3795 0.01154 0.41108 0.0
O603 O 0.48916 0.95136 0.41034 0.0
C604 C 0.52742 0.12326 0.59904 0.0
O605 O 0.41668 0.95584 0.52923 0.0
C606 C 0.64716 0.02925 0.59774 0.0
O607 O 0.59365 0.93961 0.45519 0.0
C608 C 0.41514 0.123 0.50971 0.0
O609 O 0.44719 0.11368 0.41685 0.0
O610 O 0.50683 0.09887 0.42562 0.0
C611 C 0.41966 0.03424 0.61855 0.0
O612 O 0.56334 0.12161 0.60127 0.0
O613 O 0.51132 0.09892 0.58014 0.0
C614 C 0.59852 0.11952 0.4961 0.0
O615 O 0.43734 0.12233 0.5372 0.0
O616 O 0.40512 0.09298 0.49508 0.0
C617 C 0.59565 0.03557 0.37271 0.0
O618 O 0.591 0.11807 0.46179 0.0
O619 O 0.58625 0.09424 0.51709 0.0
C620 C 0.53323 0.93024 0.60464 0.0
O621 O 0.50226 0.9497 0.5997 0.0
C622 C 0.50142 0.92018 0.41978 0.0
O623 O 0.49601 0.9094 0.45401 0.0
C624 C 0.19472 0.16428 0.48301 0.0
C625 C 0.19744 0.18244 0.51675 0.0
C626 C 0.16868 0.13644 0.47831 0.0
C627 C 0.14403 0.12548 0.50717 0.0
H628 H 0.2129 0.17177 0.45995 0.0
H629 H 0.1677 0.12376 0.45134 0.0
S630 S 0.14499 0.16152 0.60282 0.0
N631 N 0.17687 0.18618 0.58062 0.0
N632 N 0.12807 0.13274 0.57207 0.0
C633 C 0.14815 0.14232 0.54173 0.0
C634 C 0.17465 0.17124 0.54641 0.0
C635 C 0.8589 0.17288 0.46909 0.0
C636 C 0.82529 0.16841 0.49014 0.0
C637 C 0.88976 0.14863 0.47275 0.0
C638 C 0.88756 0.11922 0.49733 0.0
H639 H 0.86192 0.196 0.45084 0.0
H640 H 0.91617 0.15435 0.45834 0.0
S641 S 0.80617 0.09434 0.55755 0.0
N642 N 0.79238 0.13166 0.53629 0.0
N643 N 0.8489 0.08531 0.54085 0.0
C644 C 0.85341 0.11316 0.51651 0.0
C645 C 0.82266 0.13801 0.51363 0.0
C646 C 0.86695 0.85894 0.51788 0.0
C647 C 0.8367 0.86688 0.49394 0.0
C648 C 0.89445 0.88514 0.52612 0.0
C649 C 0.89272 0.92026 0.51076 0.0
H650 H 0.86831 0.83298 0.53186 0.0
H651 H 0.9163 0.87819 0.54589 0.0
S652 S 0.82178 0.95273 0.4424 0.0
N653 N 0.80899 0.91067 0.45155 0.0
N654 N 0.85998 0.9602 0.46755 0.0
C655 C 0.86393 0.92768 0.48486 0.0
C656 C 0.8361 0.90093 0.47636 0.0
C657 C 0.15687 0.86667 0.53601 0.0
C658 C 0.18213 0.85357 0.50891 0.0
C659 C 0.12741 0.89071 0.52656 0.0
C660 C 0.12225 0.90192 0.4897 0.0
H661 H 0.16085 0.85941 0.56475 0.0
H662 H 0.10917 0.90123 0.54832 0.0
S663 S 0.18139 0.87419 0.40894 0.0
N664 N 0.2003 0.85252 0.44431 0.0
N665 N 0.14505 0.89734 0.42606 0.0
C666 C 0.14686 0.88782 0.46231 0.0
C667 C 0.17684 0.86373 0.47208 0.0
C668 C 0.48352 0.17609 0.18415 0.0
C669 C 0.50525 0.20703 0.19227 0.0
C670 C 0.49179 0.15459 0.15317 0.0
C671 C 0.52218 0.16323 0.12927 0.0
H672 H 0.46033 0.16813 0.20222 0.0
H673 H 0.47476 0.13063 0.14847 0.0
S674 S 0.58715 0.24208 0.13812 0.0
N675 N 0.55813 0.24541 0.17393 0.0
N676 N 0.57314 0.20588 0.11528 0.0
C677 C 0.54336 0.1948 0.13657 0.0
C678 C 0.53503 0.21648 0.16815 0.0
C679 C 0.83216 0.54822 0.21235 0.0
C680 C 0.81045 0.51628 0.21312 0.0
C681 C 0.86393 0.55135 0.18905 0.0
C682 C 0.8756 0.52231 0.16645 0.0
H683 H 0.82451 0.57089 0.22997 0.0
H684 H 0.87943 0.57666 0.18878 0.0
S685 S 0.82789 0.43278 0.15874 0.0
N686 N 0.80232 0.45525 0.18959 0.0
N687 N 0.86223 0.4606 0.14601 0.0
C688 C 0.85403 0.49011 0.16719 0.0
C689 C 0.82135 0.48726 0.19043 0.0
C690 C 0.56923 0.86936 0.16306 0.0
C691 C 0.55178 0.8351 0.16339 0.0
C692 C 0.55535 0.89742 0.14055 0.0
C693 C 0.52328 0.89218 0.11806 0.0
H694 H 0.5931 0.87475 0.18103 0.0
H695 H 0.56901 0.92367 0.14176 0.0
S696 S 0.46884 0.80663 0.10713 0.0
N697 N 0.50151 0.7972 0.13823 0.0
N698 N 0.47643 0.84917 0.09528 0.0
C699 C 0.50674 0.85749 0.11691 0.0
C700 C 0.52071 0.82914 0.13976 0.0
C701 C 0.22467 0.57908 0.15262 0.0
C702 C 0.23025 0.55425 0.18161 0.0
C703 C 0.19752 0.57272 0.1253 0.0
C704 C 0.17552 0.54097 0.12569 0.0
H705 H 0.24159 0.60354 0.15102 0.0
H706 H 0.19376 0.59278 0.10372 0.0
S707 S 0.17974 0.46734 0.19592 0.0
N708 N 0.21206 0.49685 0.20929 0.0
N709 N 0.16096 0.48451 0.158 0.0
C710 C 0.18104 0.5158 0.15459 0.0
C711 C 0.20834 0.5226 0.18262 0.0
C712 C 0.54936 0.88657 0.83042 0.0
C713 C 0.53261 0.85196 0.82733 0.0
C714 C 0.54024 0.90984 0.85993 0.0
C715 C 0.5138 0.89931 0.88703 0.0
H716 H 0.56866 0.89622 0.80918 0.0
H717 H 0.55215 0.93689 0.86033 0.0
S718 S 0.46575 0.81026 0.8946 0.0
N719 N 0.49099 0.80741 0.8561 0.0
N720 N 0.47425 0.85099 0.91149 0.0
C721 C 0.49888 0.86405 0.88565 0.0
C722 C 0.50823 0.84035 0.85585 0.0
C723 C 0.19771 0.50984 0.80188 0.0
C724 C 0.22577 0.53537 0.81115 0.0
C725 C 0.16239 0.50938 0.82021 0.0
C726 C 0.15364 0.53487 0.84793 0.0
H727 H 0.20359 0.48927 0.78123 0.0
H728 H 0.14204 0.48856 0.81307 0.0
S729 S 0.2171 0.60782 0.88191 0.0
N730 N 0.24201 0.58736 0.84917 0.0
N731 N 0.17602 0.58636 0.88375 0.0
C732 C 0.18113 0.5611 0.85678 0.0
C733 C 0.21709 0.56136 0.83838 0.0
C734 C 0.51952 0.18174 0.82389 0.0
C735 C 0.48481 0.20042 0.82635 0.0
C736 C 0.5293 0.15556 0.85002 0.0
C737 C 0.50468 0.14686 0.87957 0.0
H738 H 0.54021 0.18883 0.80279 0.0
H739 H 0.55721 0.14315 0.84781 0.0
S740 S 0.40804 0.18491 0.89485 0.0
N741 N 0.4241 0.20654 0.85799 0.0
N742 N 0.4422 0.15651 0.90723 0.0
C743 C 0.46865 0.16357 0.88077 0.0
C744 C 0.45886 0.1907 0.85421 0.0
C745 C 0.81843 0.55835 0.84472 0.0
C746 C 0.79756 0.52666 0.83792 0.0
C747 C 0.84699 0.55889 0.87141 0.0
C748 C 0.85535 0.52792 0.89261 0.0
H749 H 0.81434 0.58213 0.82755 0.0
H750 H 0.86411 0.58313 0.87382 0.0
S751 S 0.80734 0.43877 0.88637 0.0
N752 N 0.78598 0.46405 0.85502 0.0
N753 N 0.83882 0.46533 0.90641 0.0
C754 C 0.83306 0.49671 0.88756 0.0
C755 C 0.80417 0.4961 0.86006 0.0
C756 C 0.69947 0.68736 0.03175 0.0
C757 C 0.70219 0.70846 -0.0005 0.0
C758 C 0.66915 0.66357 0.03726 0.0
C759 C 0.64046 0.65994 0.01061 0.0
H760 H 0.72188 0.68811 0.05219 0.0
H761 H 0.66927 0.64676 0.06181 0.0
S762 S 0.63152 0.71371 0.9241 0.0
N763 N 0.67185 0.72742 0.94249 0.0
N764 N 0.61418 0.68314 0.95291 0.0
C765 C 0.64134 0.68306 0.97951 0.0
C766 C 0.67235 0.7073 0.97397 0.0
C767 C 0.29324 0.66997 0.00173 0.0
C768 C 0.2964 0.70395 0.01952 0.0
C769 C 0.32441 0.64641 -0.0013 0.0
C770 C 0.35959 0.65607 0.01352 0.0
H771 H 0.26648 0.66151 0.98986 0.0
H772 H 0.32087 0.62041 0.98521 0.0
S773 S 0.38458 0.74273 0.05876 0.0
N774 N 0.33872 0.74664 0.04966 0.0
N775 N 0.39739 0.70227 0.04354 0.0
C776 C 0.36371 0.69019 0.03008 0.0
C777 C 0.3321 0.71426 0.03308 0.0
C778 C 0.33855 0.33746 0.04221 0.0
C779 C 0.31022 0.34235 0.0154 0.0
C780 C 0.37066 0.35998 0.04285 0.0
C781 C 0.37559 0.38749 0.01632 0.0
H782 H 0.33531 0.31685 0.06333 0.0
H783 H 0.39173 0.35588 0.06415 0.0
S784 S 0.31052 0.40936 0.93895 0.0
N785 N 0.28992 0.37526 0.96069 0.0
N786 N 0.35016 0.41738 0.96174 0.0
C787 C 0.34809 0.39161 0.98858 0.0
C788 C 0.31538 0.36907 0.98817 0.0
C789 C 0.71164 0.33078 0.03368 0.0
C790 C 0.74439 0.3427 0.01472 0.0
C791 C 0.67843 0.35188 0.03457 0.0
C792 C 0.67683 0.38546 0.0164 0.0
H793 H 0.7116 0.305 0.04802 0.0
H794 H 0.65355 0.34148 0.0488 0.0
S795 S 0.75445 0.43108 0.96583 0.0
N796 N 0.77286 0.39174 0.9785 0.0
N797 N 0.71032 0.43129 0.98149 0.0
C798 C 0.7092 0.39838 -0.00163 0.0
C799 C 0.74307 0.37705 -0.00274 0.0
C800 C 0.00746 0.64668 0.69268 0.0
C801 C 0.98385 0.67708 0.68663 0.0
C802 C 0.01592 0.62238 0.66449 0.0
C803 C 0.00167 0.62755 0.62886 0.0
H804 H 0.02147 0.64247 0.71893 0.0
H805 H 0.03565 0.60039 0.67015 0.0
S806 S 0.93701 0.70106 0.5982 0.0
N807 N 0.94407 0.70946 0.64249 0.0
N808 N 0.96189 0.66405 0.58859 0.0
C809 C 0.97686 0.65672 0.62228 0.0
C810 C 0.96769 0.68156 0.65137 0.0
C811 C 0.36912 0.05247 0.70937 0.0
C812 C 0.3421 0.02442 0.71043 0.0
C813 C 0.39384 0.05626 0.67907 0.0
C814 C 0.39275 0.03151 0.6496 0.0
H815 H 0.37141 0.0712 0.7323 0.0
H816 H 0.41457 0.07793 0.6792 0.0
S817 S 0.32622 0.95425 0.639 0.0
N818 N 0.31503 0.97231 0.67934 0.0
N819 N 0.36128 0.97921 0.6225 0.0
C820 C 0.3653 1.00385 0.65015 0.0
C821 C 0.33998 1.00036 0.68059 0.0
C822 C 0.03947 0.37199 0.67823 0.0
C823 C 0.00694 0.35083 0.67231 0.0
C824 C 0.04969 0.39947 0.6537 0.0
C825 C 0.02776 0.40714 0.62223 0.0
H826 H 0.05828 0.36624 0.70115 0.0
H827 H 0.0755 0.41442 0.65929 0.0
S828 S 0.9381 0.36131 0.59569 0.0
N829 N 0.95149 0.34044 0.63392 0.0
N830 N 0.9706 0.3926 0.58754 0.0
C831 C -0.0058 0.38717 0.61666 0.0
C832 C 0.98389 0.35884 0.6417 0.0
C833 C 0.72955 0.04736 0.66122 0.0
C834 C 0.72447 0.02068 0.68866 0.0
C835 C 0.70552 0.04918 0.63058 0.0
C836 C 0.67639 0.02377 0.62606 0.0
H837 H 0.75166 0.06756 0.66403 0.0
H838 H 0.70925 0.07094 0.61076 0.0
S839 S 0.6524 0.94792 0.68981 0.0
N840 N 0.68904 0.9681 0.70928 0.0
N841 N 0.64409 0.97066 0.65136 0.0
C842 C 0.67189 0.99618 0.65281 0.0
C843 C 0.69585 0.99489 0.68431 0.0
C844 C 0.04414 0.35666 0.35685 0.0
C845 C 0.02237 0.35496 0.32442 0.0
C846 C 0.03395 0.38028 0.38574 0.0
C847 C 0.0014 0.40259 0.38328 0.0
H848 H 0.06959 0.34021 0.35955 0.0
H849 H 0.05172 0.38108 0.41009 0.0
S850 S 0.9344 0.40709 0.30417 0.0
N851 N 0.96637 0.37646 0.29186 0.0
N852 N 0.94743 0.42107 0.34547 0.0
C853 C 0.97919 0.4006 0.35103 0.0
C854 C 0.98961 0.37672 0.32179 0.0
C855 C 0.66642 0.07251 0.30404 0.0
C856 C 0.67478 0.04224 0.28197 0.0
C857 C 0.63938 0.07046 0.33222 0.0
C858 C 0.61861 0.03851 0.33852 0.0
H859 H 0.68369 0.09674 0.30198 0.0
H860 H 0.63709 0.09323 0.35097 0.0
S861 S 0.62725 0.95297 0.28504 0.0
N862 N 0.65904 0.98024 0.26611 0.0
N863 N 0.60609 0.97681 0.31795 0.0
C864 C 0.62455 0.00894 0.3145 0.0
C865 C 0.65293 0.01083 0.28623 0.0
C866 C -0.00415 0.70673 0.3676 0.0
C867 C 0.02605 0.70517 0.34207 0.0
C868 C 0.98761 0.6773 0.3904 0.0
C869 C 0.00942 0.6453 0.38878 0.0
H870 H 0.9771 0.73013 0.3686 0.0
H871 H 0.96301 0.67916 0.40851 0.0
S872 S 0.09396 0.62907 0.32941 0.0
N873 N 0.07978 0.67046 0.31842 0.0
N874 N 0.0642 0.61468 0.3617 0.0
C875 C 0.04115 0.64413 0.36508 0.0
C876 C 0.04939 0.67416 0.34147 0.0
C877 C 0.33623 0.96538 0.32883 0.0
C878 C 0.30963 0.99105 0.31654 0.0
C879 C 0.35603 0.97065 0.36172 0.0
C880 C 0.35061 1.0023 0.38307 0.0
H881 H 0.34331 0.94209 0.31183 0.0
H882 H 0.37789 0.95105 0.36873 0.0
S883 S 0.27958 0.07482 0.3654 0.0
N884 N 0.27509 0.04674 0.33015 0.0
N885 N 0.31302 0.05719 0.39193 0.0
C886 C 0.32179 0.02668 0.37257 0.0
C887 C 0.30112 0.02093 0.33926 0.0
C888 C -0.00141 0.20029 0.33903 0.0
C889 C 0.02227 0.19029 0.30925 0.0
C890 C -0.00543 0.17773 0.3701 0.0
C891 C 0.01469 0.14469 0.37298 0.0
H892 H 0.98174 0.22492 0.33756 0.0
H893 H 0.97441 0.18556 0.39145 0.0
S894 S 0.08193 0.1075 0.30325 0.0
N895 N 0.06761 0.14636 0.28532 0.0
N896 N 0.06014 0.10397 0.34366 0.0
C897 C 0.04005 0.13547 0.34428 0.0
C898 C 0.04388 0.15832 0.31249 0.0
C899 C 0.81529 1.0063 0.32245 0.0
C900 C 0.81167 0.03836 0.30184 0.0
C901 C 0.83931 1.00463 0.35296 0.0
C902 C 0.85982 0.03524 0.36442 0.0
H903 H 0.7988 0.98257 0.31528 0.0
H904 H 0.84189 0.97912 0.36757 0.0
S905 S 0.86136 0.12508 0.31787 0.0
N906 N 0.83118 0.1008 0.29343 0.0
N907 N 0.87648 0.09811 0.35121 0.0
C908 C 0.85677 0.0674 0.34354 0.0
C909 C 0.83269 0.06883 0.31205 0.0
C910 C 0.97968 0.84682 0.32546 0.0
C911 C 0.01658 0.83569 0.31539 0.0
C912 C 0.97362 0.87887 0.34558 0.0
C913 C 0.00426 0.90096 0.35603 0.0
H914 H 0.95547 0.83002 0.31872 0.0
H915 H 0.94473 0.88646 0.35292 0.0
S916 S 0.10642 0.88259 0.33794 0.0
N917 N 0.08418 0.84822 0.31842 0.0
N918 N 0.07284 0.90889 0.35576 0.0
C919 C 0.04127 0.89019 0.34593 0.0
C920 C 0.04743 0.85736 0.32578 0.0
C921 C 0.17348 0.04823 0.29237 0.0
C922 C 0.16433 0.02449 0.2634 0.0
C923 C 0.15326 0.04744 0.32589 0.0
C924 C 0.12331 0.02273 0.33167 0.0
H925 H 0.19643 0.0675 0.28913 0.0
H926 H 0.16123 0.06627 0.34744 0.0
S927 S 0.08925 0.95432 0.26437 0.0
N928 N 0.12441 0.97512 0.24271 0.0
N929 N 0.08591 0.97381 0.30533 0.0
C930 C 0.11433 0.99857 0.30293 0.0
C931 C 0.13495 0.99942 0.26891 0.0
C932 C -0.00063 0.88664 0.7176 0.0
C933 C 0.98237 0.85602 0.70176 0.0
C934 C 0.01351 0.91487 0.69557 0.0
C935 C 0.01173 0.91351 0.65667 0.0
H936 H 0.00187 0.88873 0.74735 0.0
H937 H 0.0265 0.93773 0.70934 0.0
S938 S 0.97007 0.83867 0.60161 0.0
N939 N 0.96466 0.82554 0.64496 0.0
N940 N -0.00883 0.87859 0.60333 0.0
C941 C -0.00525 0.88288 0.64043 0.0
C942 C 0.98026 0.85411 0.66301 0.0
C943 C 0.20793 0.97595 0.68038 0.0
C944 C 0.18892 0.98073 0.71445 0.0
C945 C 0.19197 0.98869 0.64726 0.0
C946 C 0.1572 0.00754 0.64762 0.0
H947 H 0.23484 0.96157 0.67927 0.0
H948 H 0.20631 0.98305 0.62131 0.0
S949 S 0.09617 0.02669 0.72925 0.0
N950 N 0.13357 1.00529 0.74626 0.0
N951 N 0.10396 0.02983 0.68433 0.0
C952 C 0.13849 0.0132 0.68153 0.0
C953 C 0.1543 0.99974 0.71493 0.0
C954 C 0.03758 0.21787 0.64697 0.0
C955 C 0.01264 0.21781 0.67761 0.0
C956 C 0.04269 0.18705 0.62499 0.0
C957 C 0.02293 0.15489 0.63248 0.0
H958 H 0.05343 0.24207 0.6399 0.0
H959 H 0.06209 0.18851 0.60168 0.0
S960 S 0.9571 0.13918 0.71125 0.0
N961 N 0.96962 0.1821 0.71554 0.0
N962 N 0.97929 0.12379 0.67398 0.0
C963 C -0.0016 0.154 0.66334 0.0
C964 C -0.00658 0.1855 0.68607 0.0
C965 C 0.87665 1.0 0.72503 0.0
C966 C 0.854 0.03076 0.7319 0.0
C967 C 0.90435 1.00024 0.69695 0.0
C968 C 0.90958 0.03107 0.67449 0.0
H969 H 0.87016 0.97457 0.73865 0.0
H970 H 0.91948 0.97524 0.69098 0.0
S971 S 0.85925 0.11959 0.6848 0.0
N972 N 0.84129 0.09375 0.71769 0.0
N973 N 0.89173 0.09435 0.66391 0.0
C974 C 0.88939 0.06306 0.68371 0.0
C975 C 0.86215 0.06291 0.71292 0.0
C976 C 0.3366 0.98448 0.14813 0.0
C977 C 0.34045 1.00184 0.18252 0.0
C978 C 0.36103 0.99248 0.11848 0.0
C979 C 0.39045 0.01799 0.12212 0.0
H980 H 0.31404 0.96503 0.14384 0.0
H981 H 0.35608 0.97928 0.09222 0.0
S982 S 0.41353 0.07031 0.20674 0.0
N983 N 0.37645 0.0455 0.21857 0.0
N984 N 0.42307 0.05951 0.16343 0.0
C985 C 0.39573 0.03437 0.15685 0.0
C986 C 0.37055 0.02659 0.18688 0.0
C987 C 0.008 0.35964 0.17894 0.0
C988 C 0.04169 0.3419 0.18975 0.0
C989 C 0.00814 0.38575 0.15075 0.0
C990 C 0.04203 0.39524 0.13235 0.0
H991 H 0.98182 0.3551 0.19419 0.0
H992 H 0.98188 0.40007 0.14484 0.0
S993 S 0.13717 0.35366 0.14785 0.0
N994 N 0.10904 0.33307 0.17789 0.0
N995 N 0.1097 0.38219 0.12488 0.0
C996 C 0.07539 0.37555 0.14094 0.0
C997 C 0.07512 0.34885 0.16968 0.0
C998 C 0.70983 0.02052 0.12288 0.0
C999 C 0.71453 0.05683 0.13371 0.0
C1000 C 0.67602 0.0087 0.10699 0.0
C1001 C 0.64579 0.0329 0.10013 0.0
H1002 H 0.73247 1.00091 0.12694 0.0
H1003 H 0.67412 0.98043 0.09909 0.0
S1004 S 0.64407 0.13108 0.12248 0.0
N1005 N 0.6864 0.1171 0.13625 0.0
N1006 N 0.62274 0.09496 0.10546 0.0
C1007 C 0.65018 0.06942 0.11041 0.0
C1008 C 0.68462 0.0814 0.12721 0.0
C1009 C 0.00827 0.70885 0.13986 0.0
C1010 C 0.9889 0.70363 0.17351 0.0
C1011 C 0.01604 0.67969 0.11604 0.0
C1012 C 0.0042 0.64422 0.1246 0.0
H1013 H 0.01828 0.73562 0.13233 0.0
H1014 H 0.03234 0.68478 0.09107 0.0
S1015 S 0.95377 0.61568 0.20985 0.0
N1016 N 0.95885 0.65996 0.21464 0.0
N1017 N 0.97291 0.60531 0.16939 0.0
C1018 C 0.98423 0.63863 0.1578 0.0
C1019 C 0.97682 0.66827 0.18242 0.0
C1020 C 0.37315 0.97907 0.84511 0.0
C1021 C 0.33667 0.99513 0.84386 0.0
C1022 C 0.39799 0.98636 0.87428 0.0
C1023 C 0.38678 0.00967 0.90292 0.0
H1024 H 0.3837 0.9634 0.82187 0.0
H1025 H 0.42708 0.97666 0.87253 0.0
S1026 S 0.29216 0.05214 0.91672 0.0
N1027 N 0.28889 0.03069 0.87683 0.0
N1028 N 0.33557 0.04381 0.93185 0.0
C1029 C 0.34912 0.02224 0.90426 0.0
C1030 C 0.32388 0.01495 0.87467 0.0
C1031 C 0.9868 0.33664 0.87439 0.0
C1032 C 0.00741 0.33127 0.84137 0.0
C1033 C 0.98773 0.36978 0.89341 0.0
C1034 C 0.00827 0.39952 0.87951 0.0
H1035 H 0.96874 0.31526 0.88506 0.0
H1036 H 0.97063 0.37254 0.91816 0.0
S1037 S 0.07347 0.39814 0.7986 0.0
N1038 N 0.05479 0.35715 0.79947 0.0
N1039 N 0.05413 0.42007 0.83378 0.0
C1040 C 0.03113 0.39395 0.84801 0.0
C1041 C 0.03119 0.35977 0.82919 0.0
C1042 C 0.70229 0.05236 0.88941 0.0
C1043 C 0.69794 0.06719 0.85391 0.0
C1044 C 0.67071 0.04093 0.91 0.0
C1045 C 0.63374 0.04412 0.89585 0.0
H1046 H 0.73047 0.04819 0.90068 0.0
H1047 H 0.67537 0.02808 0.93655 0.0
S1048 S 0.60644 0.08323 0.80565 0.0
N1049 N 0.65337 0.08607 0.80624 0.0
N1050 N 0.59394 0.0647 0.84547 0.0
C1051 C 0.62864 0.06031 0.86123 0.0
C1052 C 0.66083 0.07181 0.84006 0.0
C1053 C 0.02454 0.66979 0.81941 0.0
C1054 C -0.00329 0.69741 0.81861 0.0
C1055 C 0.02649 0.64502 0.84872 0.0
C1056 C 0.00065 0.64689 0.87847 0.0
H1057 H 0.04333 0.6658 0.7959 0.0
H1058 H 0.04705 0.6231 0.84695 0.0
S1059 S 0.92684 0.7185 0.8924 0.0
N1060 N 0.94607 0.7282 0.85185 0.0
N1061 N 0.94989 0.68241 0.9077 0.0
C1062 C 0.97511 0.67673 0.87966 0.0
C1063 C 0.9731 0.70182 0.84953 0.0
C1064 C 0.17622 0.36749 0.97224 0.0
C1065 C 0.17185 0.34222 0.00093 0.0
C1066 C 0.14663 0.39049 0.96207 0.0
C1067 C 0.11107 0.38948 0.98014 0.0
H1068 H 0.20312 0.36981 0.95764 0.0
H1069 H 0.15229 0.4098 0.94018 0.0
S1070 S 0.08375 0.3255 0.05491 0.0
N1071 N 0.12871 0.31534 0.04582 0.0
N1072 N 0.07233 0.35913 0.02677 0.0
C1073 C 0.10568 0.36337 0.00816 0.0
C1074 C 0.13619 0.33953 0.01844 0.0
C1075 C 0.14295 0.68508 0.0444 0.0
C1076 C 0.15982 0.7073 0.0173 0.0
C1077 C 0.11932 0.65595 0.03443 0.0
C1078 C 0.11219 0.6479 -0.00292 0.0
H1079 H 0.1497 0.6891 0.07327 0.0
H1080 H 0.1081 0.63878 0.056 0.0
S1081 S 0.15318 0.69671 0.91583 0.0
N1082 N 0.16941 0.71869 0.95204 0.0
N1083 N 0.12585 0.66451 0.93288 0.0
C1084 C 0.12883 0.67057 0.96986 0.0
C1085 C 0.15234 0.70015 0.98009 0.0
C1086 C 0.30803 0.18397 0.98683 0.0
C1087 C 0.29054 0.1893 0.02149 0.0
C1088 C 0.34478 0.16927 0.98381 0.0
C1089 C 0.36553 0.15888 0.01532 0.0
H1090 H 0.29275 0.1903 0.9617 0.0
H1091 H 0.35614 0.1644 0.95643 0.0
S1092 S 0.33231 0.16769 0.11277 0.0
N1093 N 0.29662 0.18352 0.08798 0.0
N1094 N 0.36569 0.15614 0.0827 0.0
C1095 C 0.34861 0.16504 0.0503 0.0
C1096 C 0.31111 0.17996 0.05326 0.0
C1097 C 0.90456 0.33886 0.0428 0.0
C1098 C 0.8844 0.33371 0.0099 0.0
C1099 C 0.92781 0.36934 0.04745 0.0
C1100 C 0.93078 0.39605 0.01962 0.0
H1101 H 0.8994 0.32126 0.06627 0.0
H1102 H 0.94065 0.37352 0.07424 0.0
S1103 S 0.88848 0.39076 0.92595 0.0
N1104 N 0.87339 0.3539 0.9472 0.0
N1105 N 0.91559 0.41203 0.956 0.0
C1106 C 0.91383 0.38892 0.9852 0.0
C1107 C 0.891 0.35747 0.98034 0.0
C1108 C 0.71793 0.87747 0.96582 0.0
C1109 C 0.72869 0.85523 0.99548 0.0
C1110 C 0.68074 0.89072 0.96284 0.0
C1111 C 0.65288 0.88239 0.9896 0.0
H1112 H 0.73877 0.88533 0.94517 0.0
H1113 H 0.67449 0.90939 0.94053 0.0
S1114 S 0.66517 0.82066 0.06967 0.0
N1115 N 0.70762 0.82184 0.04985 0.0
N1116 N 0.63761 0.84746 0.0447 0.0
C1117 C 0.66272 0.85847 0.01833 0.0
C1118 C 0.70065 0.84472 0.02119 0.0
C1119 C 0.87208 0.71001 0.00956 0.0
C1120 C 0.84207 0.70103 0.98582 0.0
C1121 C 0.89916 0.68379 0.01971 0.0
C1122 C 0.89702 0.64802 0.00631 0.0
H1123 H 0.87279 0.73635 0.02278 0.0
H1124 H 0.92035 0.69086 0.04009 0.0
S1125 S 0.82494 0.6121 0.942 0.0
N1126 N 0.81418 0.65544 0.94609 0.0
N1127 N 0.86293 0.60559 0.96782 0.0
C1128 C 0.86876 0.63963 0.98064 0.0
C1129 C 0.84188 0.66642 0.96961 0.0
C1130 C 0.27378 0.89501 0.9888 0.0
C1131 C 0.26882 0.8678 0.01575 0.0
C1132 C 0.30831 0.91394 0.98551 0.0
C1133 C 0.33887 0.90636 0.00925 0.0
H1134 H 0.25061 0.902 0.97048 0.0
H1135 H 0.31082 0.93508 0.96484 0.0
S1136 S 0.34191 0.83451 0.08112 0.0
N1137 N 0.29848 0.83207 0.06415 0.0
N1138 N 0.36312 0.86752 0.05822 0.0
C1139 C 0.33468 0.87823 0.03529 0.0
C1140 C 0.29977 0.85888 0.03839 0.0
C1141 C 0.7453 0.17604 0.01002 0.0
C1142 C 0.76027 0.18454 0.9749 0.0
C1143 C 0.7111 0.15696 0.01387 0.0
C1144 C 0.69056 0.145 0.98283 0.0
H1145 H 0.75976 0.18446 0.0349 0.0
H1146 H 0.70056 0.15189 0.04158 0.0
S1147 S 0.71926 0.15795 0.88477 0.0
N1148 N 0.75325 0.17779 0.90861 0.0
N1149 N 0.68899 0.1418 0.91564 0.0
C1150 C 0.70596 0.15219 0.94756 0.0
C1151 C 0.74077 0.17185 0.9437 0.0
C1152 C 0.48624 0.68829 0.81911 0.0
C1153 C 0.52207 0.69319 0.8023 0.0
C1154 C 0.48251 0.67001 0.85297 0.0
C1155 C 0.51451 0.6561 0.8716 0.0
H1156 H 0.46078 0.69846 0.80584 0.0
H1157 H 0.45431 0.66715 0.86482 0.0
S1158 S 0.61433 0.659 0.83774 0.0
N1159 N 0.58981 0.6804 0.80552 0.0
N1160 N 0.58308 0.64708 0.86971 0.0
C1161 C 0.55047 0.66044 0.85488 0.0
C1162 C 0.55415 0.67859 0.82009 0.0
C1163 C 0.39008 0.50398 0.828 0.0
C1164 C 0.36665 0.53479 0.82503 0.0
C1165 C 0.41472 0.49967 0.85814 0.0
C1166 C 0.41655 0.52597 0.88643 0.0
H1167 H 0.38727 0.48189 0.80848 0.0
H1168 H 0.43033 0.47439 0.86052 0.0
S1169 S 0.36669 0.61498 0.88667 0.0
N1170 N 0.35103 0.59439 0.84925 0.0
N1171 N 0.39727 0.58657 0.90578 0.0
C1172 C 0.39603 0.55849 0.88155 0.0
C1173 C 0.37103 0.56279 0.8509 0.0
C1174 C 0.52643 0.34039 0.82527 0.0
C1175 C 0.48854 0.3326 0.81601 0.0
C1176 C 0.5351 0.36504 0.85354 0.0
C1177 C 0.50618 0.38275 0.8739 0.0
H1178 H 0.54947 0.32529 0.81242 0.0
H1179 H 0.56471 0.36861 0.8608 0.0
S1180 S 0.40233 0.37561 0.85609 0.0
N1181 N 0.42203 0.34707 0.82636 0.0
N1182 N 0.43789 0.39404 0.87898 0.0
C1183 C 0.46817 0.37736 0.86266 0.0
C1184 C 0.45946 0.35205 0.83394 0.0
C1185 C 0.61443 0.54428 0.81706 0.0
C1186 C 0.63669 0.51364 0.80829 0.0
C1187 C 0.59881 0.54908 0.85246 0.0
C1188 C 0.60506 0.52357 0.88078 0.0
H1189 H 0.60918 0.56492 0.79635 0.0
H1190 H 0.58242 0.57344 0.85783 0.0
S1191 S 0.65689 0.43615 0.871 0.0
N1192 N 0.66037 0.45519 0.82981 0.0
N1193 N 0.63242 0.46499 0.8968 0.0
C1194 C 0.62598 0.49206 0.87206 0.0
C1195 C 0.64128 0.48682 0.83571 0.0
C1196 C 0.51911 0.37556 0.20793 0.0
C1197 C 0.4815 0.36304 0.21151 0.0
C1198 C 0.53142 0.39379 0.17597 0.0
C1199 C 0.50652 0.40112 0.14639 0.0
H1200 H 0.53937 0.37097 0.2299 0.0
H1201 H 0.56089 0.40224 0.17448 0.0
S1202 S 0.40429 0.37696 0.14329 0.0
N1203 N 0.41882 0.36117 0.18356 0.0
N1204 N 0.44189 0.39588 0.12374 0.0
C1205 C 0.46847 0.39008 0.15019 0.0
C1206 C 0.456 0.37104 0.18265 0.0
C1207 C 0.66047 0.45635 0.1628 0.0
C1208 C 0.64414 0.46398 0.19764 0.0
C1209 C 0.64281 0.46783 0.12999 0.0
C1210 C 0.60866 0.48774 0.13118 0.0
H1211 H 0.68784 0.44283 0.16099 0.0
H1212 H 0.65719 0.46327 0.10384 0.0
S1213 S 0.55322 0.51255 0.21485 0.0
N1214 N 0.5907 0.49053 0.2309 0.0
N1215 N 0.55805 0.51272 0.16943 0.0
C1216 C 0.59127 0.49403 0.1656 0.0
C1217 C 0.6089 0.48204 0.19881 0.0
C1218 C 0.57113 0.68433 0.17649 0.0
C1219 C 0.54451 0.70815 0.19265 0.0
C1220 C 0.55962 0.65692 0.15195 0.0
C1221 C 0.52109 0.65286 0.14203 0.0
H1222 H 0.60125 0.68835 0.18108 0.0
H1223 H 0.58134 0.64013 0.13915 0.0
S1224 S 0.44023 0.70825 0.17805 0.0
N1225 N 0.47809 0.72533 0.19835 0.0
N1226 N 0.45614 0.67438 0.1524 0.0
C1227 C 0.49404 0.67559 0.15962 0.0
C1228 C 0.50583 0.7031 0.18481 0.0
C1229 C 0.39143 0.53417 0.20115 0.0
C1230 C 0.36814 0.56497 0.19827 0.0
C1231 C 0.41671 0.52499 0.17253 0.0
C1232 C 0.41901 0.54592 0.13981 0.0
H1233 H 0.38706 0.51496 0.22342 0.0
H1234 H 0.43189 0.49943 0.17465 0.0
S1235 S 0.37014 0.63385 0.12398 0.0
N1236 N 0.35483 0.62057 0.16494 0.0
N1237 N 0.40025 0.60211 0.11012 0.0
C1238 C 0.39957 0.57922 0.13927 0.0
C1239 C 0.37474 0.58911 0.16893 0.0
C1240 C 0.82953 0.55434 0.6987 0.0
C1241 C 0.80331 0.52561 0.70204 0.0
C1242 C 0.85815 0.55419 0.67155 0.0
C1243 C 0.86173 0.52539 0.64631 0.0
H1244 H 0.82864 0.57673 0.71807 0.0
H1245 H 0.878 0.57658 0.67083 0.0
S1246 S 0.79757 0.44547 0.64039 0.0
N1247 N 0.78132 0.46871 0.67614 0.0
N1248 N 0.83398 0.46885 0.62425 0.0
C1249 C 0.83436 0.49739 0.64804 0.0
C1250 C 0.80538 0.49748 0.67594 0.0
C1251 C 0.50101 0.86594 0.68071 0.0
C1252 C 0.53469 0.84739 0.68992 0.0
C1253 C 0.50011 0.89092 0.65141 0.0
C1254 C 0.53309 0.89879 0.63061 0.0
H1255 H 0.47558 0.86224 0.69733 0.0
H1256 H 0.47382 0.9055 0.64638 0.0
S1257 S 0.62778 0.85482 0.64215 0.0
N1258 N 0.60099 0.83639 0.67469 0.0
N1259 N 0.59979 0.88331 0.61974 0.0
C1260 C 0.56645 0.8787 0.63835 0.0
C1261 C 0.56714 0.85306 0.668 0.0
C1262 C 0.2364 0.57511 0.6632 0.0
C1263 C 0.26721 0.55134 0.65704 0.0
C1264 C 0.20203 0.57101 0.64408 0.0
C1265 C 0.19703 0.5426 0.61858 0.0
H1266 H 0.23885 0.59698 0.68301 0.0
H1267 H 0.17901 0.58988 0.64973 0.0
S1268 S 0.26935 0.47341 0.59249 0.0
N1269 N 0.29082 0.49887 0.62351 0.0
N1270 N 0.22619 0.49067 0.58789 0.0
C1271 C 0.22765 0.51861 0.61233 0.0
C1272 C 0.26271 0.5231 0.63147 0.0
C1273 C 0.47548 0.17657 0.67339 0.0
C1274 C 0.47317 0.21169 0.6581 0.0
C1275 C 0.49181 0.14757 0.65359 0.0
C1276 C 0.50599 0.15258 0.61761 0.0
H1277 H 0.46491 0.17148 0.70101 0.0
H1278 H 0.49412 0.12126 0.66678 0.0
S1279 S 0.50365 0.23773 0.56342 0.0
N1280 N 0.48456 0.24893 0.60369 0.0
N1281 N 0.51466 0.19422 0.56645 0.0
C1282 C 0.50259 0.18698 0.6014 0.0
C1283 C 0.48631 0.21659 0.62162 0.0
C1284 C 0.78924 0.48161 0.36087 0.0
C1285 C 0.77312 0.51212 0.34376 0.0
C1286 C 0.81649 0.48554 0.38872 0.0
C1287 C 0.82905 0.52019 0.39979 0.0
H1288 H 0.78374 0.45474 0.35008 0.0
H1289 H 0.83024 0.46122 0.39898 0.0
S1290 S 0.78918 0.60826 0.36826 0.0
N1291 N 0.76647 0.57755 0.34368 0.0
N1292 N 0.81811 0.58533 0.39555 0.0
C1293 C 0.80976 0.55072 0.38572 0.0
C1294 C 0.78167 0.54657 0.35777 0.0
C1295 C 0.52124 0.82976 0.3729 0.0
C1296 C 0.52125 0.8388 0.33515 0.0
C1297 C 0.5176 0.85657 0.40027 0.0
C1298 C 0.51384 0.89357 0.39099 0.0
H1299 H 0.52203 0.80156 0.38129 0.0
H1300 H 0.51563 0.8479 0.42881 0.0
S1301 S 0.5199 0.93185 0.29613 0.0
N1302 N 0.52277 0.88753 0.28999 0.0
N1303 N 0.51626 0.93803 0.34121 0.0
C1304 C 0.51744 0.90317 0.3534 0.0
C1305 C 0.5211 0.87578 0.32555 0.0
C1306 C 0.20982 0.55548 0.33797 0.0
C1307 C 0.23253 0.52387 0.33704 0.0
C1308 C 0.17319 0.55527 0.35359 0.0
C1309 C 0.15777 0.52362 0.3694 0.0
H1310 H 0.22069 0.58101 0.32768 0.0
H1311 H 0.15782 0.58071 0.3551 0.0
S1312 S 0.20538 0.43325 0.3726 0.0
N1313 N 0.23663 0.45989 0.35202 0.0
N1314 N 0.16791 0.4591 0.38121 0.0
C1315 C 0.17967 0.49142 0.36718 0.0
C1316 C 0.21698 0.49173 0.35128 0.0
C1317 C 0.46892 0.2073 0.35612 0.0
C1318 C 0.49789 0.20512 0.32934 0.0
C1319 C 0.46595 0.18105 0.38426 0.0
C1320 C 0.49191 0.15173 0.3869 0.0
H1321 H 0.447 0.22791 0.3539 0.0
H1322 H 0.4419 0.18276 0.40305 0.0
S1323 S 0.57543 0.13693 0.32592 0.0
N1324 N 0.55543 0.17405 0.30957 0.0
N1325 N 0.54931 0.12444 0.36176 0.0
C1326 C 0.5226 0.15105 0.36197 0.0
C1327 C 0.52567 0.17779 0.3334 0.0
C1328 C 0.68918 0.87364 0.52399 0.0
C1329 C 0.69683 0.84942 0.49472 0.0
C1330 C 0.65981 0.89946 0.52181 0.0
C1331 C 0.63667 0.90216 0.49026 0.0
H1332 H 0.70792 0.87442 0.54766 0.0
H1333 H 0.65688 0.91886 0.54413 0.0
S1334 S 0.63933 0.83968 0.40973 0.0
N1335 N 0.675 0.82598 0.4359 0.0
N1336 N 0.61919 0.87389 0.43199 0.0
C1337 C 0.64118 0.87535 0.46271 0.0
C1338 C 0.67135 0.8491 0.46492 0.0
C1339 C 0.68667 0.16312 0.53308 0.0
C1340 C 0.6893 0.19443 0.51065 0.0
C1341 C 0.65453 0.14065 0.53215 0.0
C1342 C 0.62393 0.14887 0.50883 0.0
H1343 H 0.71101 0.15424 0.54902 0.0
H1344 H 0.65546 0.11501 0.54672 0.0
S1345 S 0.61248 0.23232 0.45246 0.0
N1346 N 0.65555 0.23584 0.47014 0.0
N1347 N 0.59482 0.19407 0.46884 0.0
C1348 C 0.62409 0.18255 0.49033 0.0
C1349 C 0.65687 0.20533 0.49116 0.0
C1350 C 0.85887 0.70381 0.50202 0.0
C1351 C 0.82088 0.69314 0.49658 0.0
C1352 C 0.88858 0.67809 0.50337 0.0
C1353 C 0.88159 0.64083 0.49856 0.0
H1354 H 0.86529 0.73194 0.5078 0.0
H1355 H 0.91687 0.68717 0.51055 0.0
S1356 S 0.78771 0.59891 0.48141 0.0
N1357 N 0.77838 0.64278 0.48425 0.0
N1358 N 0.83421 0.59475 0.48664 0.0
C1359 C 0.84422 0.63008 0.49065 0.0
C1360 C 0.81388 0.65617 0.48961 0.0
C1361 C 0.32183 0.88668 0.54372 0.0
C1362 C 0.32187 0.85203 0.52721 0.0
C1363 C 0.35379 0.90911 0.54242 0.0
C1364 C 0.38786 0.89767 0.52555 0.0
H1365 H 0.29663 0.89683 0.55773 0.0
H1366 H 0.35194 0.93548 0.5555 0.0
S1367 S 0.404 0.80965 0.47841 0.0
N1368 N 0.35933 0.80764 0.49279 0.0
N1369 N 0.42028 0.84934 0.49225 0.0
C1370 C 0.38898 0.86285 0.5097 0.0
C1371 C 0.3559 0.84011 0.51021 0.0
C1372 C 0.16525 0.36294 0.54022 0.0
C1373 C 0.20523 0.36186 0.53776 0.0
C1374 C 0.14449 0.39309 0.52745 0.0
C1375 C 0.16293 0.42316 0.5114 0.0
H1376 H 0.14988 0.34014 0.55176 0.0
H1377 H 0.11374 0.39251 0.52966 0.0
S1378 S 0.26739 0.43258 0.49746 0.0
N1379 N 0.26241 0.39267 0.51756 0.0
N1380 N 0.22396 0.44931 0.49354 0.0
C1381 C 0.20303 0.42224 0.50892 0.0
C1382 C 0.22399 0.39157 0.52194 0.0
C1383 C 0.35552 0.20403 0.53948 0.0
C1384 C 0.3326 0.21031 0.50858 0.0
C1385 C 0.38405 0.17737 0.53862 0.0
C1386 C 0.39008 0.15546 0.50701 0.0
H1387 H 0.34912 0.21742 0.56544 0.0
H1388 H 0.39939 0.17217 0.56397 0.0
S1389 S 0.34193 0.16635 0.41688 0.0
N1390 N 0.32127 0.19677 0.44396 0.0
N1391 N 0.37431 0.14586 0.44253 0.0
C1392 C 0.36957 0.16384 0.47497 0.0
C1393 C 0.34104 0.19154 0.47569 0.0
C1394 C 0.81164 0.36428 0.51981 0.0
C1395 C 0.81365 0.34827 0.48453 0.0
C1396 C 0.83407 0.39429 0.52881 0.0
C1397 C 0.85913 0.40958 0.50287 0.0
H1398 H 0.79217 0.35385 0.5405 0.0
H1399 H 0.8314 0.40599 0.55618 0.0
S1400 S 0.87393 0.37965 0.40624 0.0
N1401 N 0.84202 0.35115 0.42304 0.0
N1402 N 0.88436 0.40754 0.44041 0.0
C1403 C 0.86159 0.39415 0.46757 0.0
C1404 C 0.83863 0.3636 0.45824 0.0
C1405 C 0.17343 0.70536 0.49433 0.0
C1406 C 0.20707 0.69286 0.51111 0.0
C1407 C 0.14145 0.68278 0.49093 0.0
C1408 C 0.14161 0.64701 0.50469 0.0
H1409 H 0.17248 0.73216 0.48208 0.0
H1410 H 0.11692 0.6929 0.47605 0.0
S1411 S 0.22286 0.6015 0.55073 0.0
N1412 N 0.23825 0.64296 0.54256 0.0
N1413 N 0.1788 0.60024 0.53511 0.0
C1414 C 0.1746 0.63475 0.52272 0.0
C1415 C 0.2071 0.65779 0.52629 0.0
loop_
_geom_bond_atom_site_label_1
_geom_bond_atom_site_label_2
_geom_bond_distance
_geom_bond_site_symmetry_2
_ccdc_geom_bond_type
H0 C7 0.929 . S
H1 C10 0.930 . S
H2 C12 0.929 . S
H3 C4 0.969 . S
C4 H3 0.969 . S
C4 O5 1.550 . S
C4 H6 0.973 . S
O5 C4 1.550 . S
O5 C11 1.412 . S
H6 C4 0.973 . S
C7 H0 0.929 . S
C7 C8 1.400 . S
C7 C9 1.364 . S
C8 C7 1.400 . S
C8 C12 1.377 . S
C9 C7 1.364 . S
C9 C10 1.374 . S
C10 H1 0.930 . S
C10 C9 1.374 . S
C10 C11 1.383 . S
C11 O5 1.412 . S
C11 C10 1.383 . S
C11 C12 1.394 . S
C12 H2 0.929 . S
C12 C8 1.377 . S
C12 C11 1.394 . S
H13 C20 0.929 . S
H14 C23 0.930 . S
H15 C25 0.929 . S
H16 C17 0.969 . S
C17 H16 0.969 . S
C17 O18 1.550 . S
C17 H19 0.973 . S
O18 C17 1.550 . S
O18 C24 1.412 . S
H19 C17 0.973 . S
C20 H13 0.929 . S
C20 C21 1.400 . S
C20 C22 1.364 . S
C21 C20 1.400 . S
C21 C25 1.377 . S
C22 C20 1.364 . S
C22 C23 1.374 . S
C23 H14 0.930 . S
C23 C22 1.374 . S
C23 C24 1.383 . S
C24 O18 1.412 . S
C24 C23 1.383 . S
C24 C25 1.394 . S
C25 H15 0.929 . S
C25 C21 1.377 . S
C25 C24 1.394 . S
H26 C33 0.929 . S
H27 C36 0.930 . S
H28 C38 0.929 . S
H29 C30 0.969 1_655 S
C30 H29 0.969 1_455 S
C30 O31 1.550 . S
C30 H32 0.973 . S
O31 C30 1.550 . S
O31 C37 1.412 . S
H32 C30 0.973 . S
C33 H26 0.929 . S
C33 C34 1.400 . S
C33 C35 1.364 . S
C34 C33 1.400 . S
C34 C38 1.377 . S
C35 C33 1.364 . S
C35 C36 1.374 . S
C36 H27 0.930 . S
C36 C35 1.374 . S
C36 C37 1.383 . S
C37 O31 1.412 . S
C37 C36 1.383 . S
C37 C38 1.394 . S
C38 H28 0.929 . S
C38 C34 1.377 . S
C38 C37 1.394 . S
H39 C46 0.929 . S
H40 C49 0.932 . S
H41 C51 0.929 . S
H42 C43 0.969 . S
C43 H42 0.969 . S
C43 O44 1.550 1_545 S
C43 H45 0.973 1_545 S
O44 C43 1.550 1_565 S
O44 C50 1.412 1_565 S
H45 C43 0.973 1_565 S
C46 H39 0.929 . S
C46 C47 1.400 . S
C46 C48 1.364 . S
C47 C46 1.400 . S
C47 C51 1.377 . S
C48 C46 1.364 . S
C48 C49 1.374 . S
C49 H40 0.932 . S
C49 C48 1.374 . S
C49 C50 1.383 . S
C50 O44 1.412 1_545 S
C50 C49 1.383 . S
C50 C51 1.394 . S
C51 H41 0.929 . S
C51 C47 1.377 . S
C51 C50 1.394 . S
H52 C59 0.929 . S
H53 C62 0.930 1_455 S
H54 C64 0.929 . S
H55 C56 0.969 . S
C56 H55 0.969 . S
C56 O57 1.550 1_655 S
C56 H58 0.973 1_655 S
O57 C56 1.550 1_455 S
O57 C63 1.412 1_455 S
H58 C56 0.973 1_455 S
C59 H52 0.929 . S
C59 C60 1.400 . S
C59 C61 1.364 . S
C60 C59 1.400 . S
C60 C64 1.377 . S
C61 C59 1.364 . S
C61 C62 1.374 1_455 S
C62 H53 0.930 1_655 S
C62 C61 1.374 1_655 S
C62 C63 1.383 . S
C63 O57 1.412 1_655 S
C63 C62 1.383 . S
C63 C64 1.394 1_655 S
C64 H54 0.929 . S
C64 C60 1.377 . S
C64 C63 1.394 1_455 S
H65 C72 0.929 . S
H66 C75 0.930 . S
H67 C77 0.929 . S
H68 C69 0.988 . S
C69 H68 0.988 . S
C69 O70 1.543 1_565 S
C69 H71 0.965 1_565 S
O70 C69 1.543 1_545 S
O70 C76 1.412 . S
H71 C69 0.965 1_545 S
C72 H65 0.929 . S
C72 C73 1.400 . S
C72 C74 1.364 . S
C73 C72 1.400 . S
C73 C77 1.377 . S
C74 C72 1.364 . S
C74 C75 1.374 . S
C75 H66 0.930 . S
C75 C74 1.374 . S
C75 C76 1.383 . S
C76 O70 1.412 . S
C76 C75 1.383 . S
C76 C77 1.394 . S
C77 H67 0.929 . S
C77 C73 1.377 . S
C77 C76 1.394 . S
H78 C85 0.929 . S
H79 C88 0.930 . S
H80 C90 0.929 . S
H81 C82 0.969 1_655 S
C82 H81 0.969 1_455 S
C82 O83 1.550 . S
C82 H84 0.973 . S
O83 C82 1.550 . S
O83 C89 1.412 . S
H84 C82 0.973 . S
C85 H78 0.929 . S
C85 C86 1.400 . S
C85 C87 1.364 . S
C86 C85 1.400 . S
C86 C90 1.377 . S
C87 C85 1.364 . S
C87 C88 1.374 . S
C88 H79 0.930 . S
C88 C87 1.374 . S
C88 C89 1.383 . S
C89 O83 1.412 . S
C89 C88 1.383 . S
C89 C90 1.394 . S
C90 H80 0.929 . S
C90 C86 1.377 . S
C90 C89 1.394 . S
H91 C98 0.929 . S
H92 C101 0.930 . S
H93 C103 0.929 . S
H94 C95 0.969 . S
C95 H94 0.969 . S
C95 O96 1.550 . S
C95 H97 0.973 . S
O96 C95 1.550 . S
O96 C102 1.412 . S
H97 C95 0.973 . S
C98 H91 0.929 . S
C98 C99 1.400 . S
C98 C100 1.364 . S
C99 C98 1.400 . S
C99 C103 1.377 . S
C100 C98 1.364 . S
C100 C101 1.374 . S
C101 H92 0.930 . S
C101 C100 1.374 . S
C101 C102 1.383 . S
C102 O96 1.412 . S
C102 C101 1.383 . S
C102 C103 1.394 . S
C103 H93 0.929 . S
C103 C99 1.377 . S
C103 C102 1.394 . S
H104 C111 0.929 . S
H105 C114 0.930 . S
H106 C116 0.929 . S
H107 C108 0.969 . S
C108 H107 0.969 . S
C108 O109 1.550 . S
C108 H110 0.973 . S
O109 C108 1.550 . S
O109 C115 1.412 . S
H110 C108 0.973 . S
C111 H104 0.929 . S
C111 C112 1.400 . S
C111 C113 1.364 . S
C112 C111 1.400 . S
C112 C116 1.377 . S
C113 C111 1.364 . S
C113 C114 1.374 . S
C114 H105 0.930 . S
C114 C113 1.374 . S
C114 C115 1.383 . S
C115 O109 1.412 . S
C115 C114 1.383 . S
C115 C116 1.394 . S
C116 H106 0.929 . S
C116 C112 1.377 . S
C116 C115 1.394 . S
H117 C124 0.929 . S
H118 C127 0.930 . S
H119 C129 0.929 . S
H120 C121 0.969 1_556 S
C121 H120 0.969 1_554 S
C121 O122 1.550 . S
C121 H123 0.973 . S
O122 C121 1.550 . S
O122 C128 1.412 . S
H123 C121 0.973 . S
C124 H117 0.929 . S
C124 C125 1.400 . S
C124 C126 1.364 . S
C125 C124 1.400 . S
C125 C129 1.377 . S
C126 C124 1.364 . S
C126 C127 1.374 . S
C127 H118 0.930 . S
C127 C126 1.374 . S
C127 C128 1.383 . S
C128 O122 1.412 . S
C128 C127 1.383 . S
C128 C129 1.394 . S
C129 H119 0.929 . S
C129 C125 1.377 . S
C129 C128 1.394 . S
H130 C137 0.928 . S
H131 C140 0.932 . S
H132 C142 0.928 . S
H133 C134 0.969 . S
C134 H133 0.969 . S
C134 O135 1.550 1_556 S
C134 H136 0.973 1_556 S
O135 C134 1.550 1_554 S
O135 C141 1.408 1_554 S
H136 C134 0.973 1_554 S
C137 H130 0.928 . S
C137 C138 1.399 1_554 S
C137 C139 1.364 . S
C138 C137 1.399 1_556 S
C138 C142 1.377 1_556 S
C139 C137 1.364 . S
C139 C140 1.374 . S
C140 H131 0.932 . S
C140 C139 1.374 . S
C140 C141 1.382 1_554 S
C141 O135 1.408 1_556 S
C141 C140 1.382 1_556 S
C141 C142 1.394 1_556 S
C142 H132 0.928 . S
C142 C138 1.377 1_554 S
C142 C141 1.394 1_554 S
H143 C150 0.929 . S
H144 C153 0.930 . S
H145 C155 0.929 . S
H146 C147 0.969 . S
C147 H146 0.969 . S
C147 O148 1.550 1_554 S
C147 H149 0.973 1_554 S
O148 C147 1.550 1_556 S
O148 C154 1.412 1_556 S
H149 C147 0.973 1_556 S
C150 H143 0.929 . S
C150 C151 1.400 . S
C150 C152 1.364 . S
C151 C150 1.400 . S
C151 C155 1.377 . S
C152 C150 1.364 . S
C152 C153 1.374 . S
C153 H144 0.930 . S
C153 C152 1.374 . S
C153 C154 1.383 . S
C154 O148 1.412 1_554 S
C154 C153 1.383 . S
C154 C155 1.394 . S
C155 H145 0.929 . S
C155 C151 1.377 . S
C155 C154 1.394 . S
H156 C163 0.929 . S
H157 C166 0.930 . S
H158 C168 0.929 . S
H159 C160 0.969 . S
C160 H159 0.969 . S
C160 O161 1.550 . S
C160 H162 0.973 . S
O161 C160 1.550 . S
O161 C167 1.412 . S
H162 C160 0.973 . S
C163 H156 0.929 . S
C163 C164 1.400 . S
C163 C165 1.364 . S
C164 C163 1.400 . S
C164 C168 1.377 . S
C165 C163 1.364 . S
C165 C166 1.374 . S
C166 H157 0.930 . S
C166 C165 1.374 . S
C166 C167 1.383 . S
C167 O161 1.412 . S
C167 C166 1.383 . S
C167 C168 1.394 . S
C168 H158 0.929 . S
C168 C164 1.377 . S
C168 C167 1.394 . S
H169 C176 0.929 . S
H170 C179 0.930 . S
H171 C181 0.929 . S
H172 C173 0.969 . S
C173 H172 0.969 . S
C173 O174 1.550 . S
C173 H175 0.973 . S
O174 C173 1.550 . S
O174 C180 1.412 . S
H175 C173 0.973 . S
C176 H169 0.929 . S
C176 C177 1.400 . S
C176 C178 1.364 . S
C177 C176 1.400 . S
C177 C181 1.377 . S
C178 C176 1.364 . S
C178 C179 1.374 . S
C179 H170 0.930 . S
C179 C178 1.374 . S
C179 C180 1.383 . S
C180 O174 1.412 . S
C180 C179 1.383 . S
C180 C181 1.394 . S
C181 H171 0.929 . S
C181 C177 1.377 . S
C181 C180 1.394 . S
H182 C189 0.929 . S
H183 C192 0.930 . S
H184 C194 0.929 . S
H185 C186 0.969 . S
C186 H185 0.969 . S
C186 O187 1.550 . S
C186 H188 0.973 . S
O187 C186 1.550 . S
O187 C193 1.412 . S
H188 C186 0.973 . S
C189 H182 0.929 . S
C189 C190 1.400 . S
C189 C191 1.364 . S
C190 C189 1.400 . S
C190 C194 1.377 . S
C191 C189 1.364 . S
C191 C192 1.374 . S
C192 H183 0.930 . S
C192 C191 1.374 . S
C192 C193 1.383 . S
C193 O187 1.412 . S
C193 C192 1.383 . S
C193 C194 1.394 . S
C194 H184 0.929 . S
C194 C190 1.377 . S
C194 C193 1.394 . S
H195 C202 0.929 . S
H196 C205 0.930 . S
H197 C207 0.929 . S
H198 C199 0.969 . S
C199 H198 0.969 . S
C199 O200 1.550 . S
C199 H201 0.973 . S
O200 C199 1.550 . S
O200 C206 1.412 . S
H201 C199 0.973 . S
C202 H195 0.929 . S
C202 C203 1.400 . S
C202 C204 1.364 . S
C203 C202 1.400 . S
C203 C207 1.377 . S
C204 C202 1.364 . S
C204 C205 1.374 . S
C205 H196 0.930 . S
C205 C204 1.374 . S
C205 C206 1.383 . S
C206 O200 1.412 . S
C206 C205 1.383 . S
C206 C207 1.394 . S
C207 H197 0.929 . S
C207 C203 1.377 . S
C207 C206 1.394 . S
H208 C215 0.929 . S
H209 C218 0.930 . S
H210 C220 0.929 . S
H211 C212 0.969 . S
C212 H211 0.969 . S
C212 O213 1.550 . S
C212 H214 0.973 . S
O213 C212 1.550 . S
O213 C219 1.412 . S
H214 C212 0.973 . S
C215 H208 0.929 . S
C215 C216 1.400 . S
C215 C217 1.364 . S
C216 C215 1.400 . S
C216 C220 1.377 . S
C217 C215 1.364 . S
C217 C218 1.374 . S
C218 H209 0.930 . S
C218 C217 1.374 . S
C218 C219 1.383 . S
C219 O213 1.412 . S
C219 C218 1.383 . S
C219 C220 1.394 . S
C220 H210 0.929 . S
C220 C216 1.377 . S
C220 C219 1.394 . S
H221 C228 0.929 . S
H222 C231 0.930 . S
H223 C233 0.929 . S
H224 C225 0.969 . S
C225 H224 0.969 . S
C225 O226 1.550 . S
C225 H227 0.973 . S
O226 C225 1.550 . S
O226 C232 1.412 . S
H227 C225 0.973 . S
C228 H221 0.929 . S
C228 C229 1.400 . S
C228 C230 1.364 . S
C229 C228 1.400 . S
C229 C233 1.377 . S
C230 C228 1.364 . S
C230 C231 1.374 . S
C231 H222 0.930 . S
C231 C230 1.374 . S
C231 C232 1.383 . S
C232 O226 1.412 . S
C232 C231 1.383 . S
C232 C233 1.394 . S
C233 H223 0.929 . S
C233 C229 1.377 . S
C233 C232 1.394 . S
H234 C241 0.929 . S
H235 C244 0.930 . S
H236 C246 0.929 . S
H237 C238 0.969 . S
C238 H237 0.969 . S
C238 O239 1.550 . S
C238 H240 0.973 . S
O239 C238 1.550 . S
O239 C245 1.412 . S
H240 C238 0.973 . S
C241 H234 0.929 . S
C241 C242 1.400 . S
C241 C243 1.364 . S
C242 C241 1.400 . S
C242 C246 1.377 . S
C243 C241 1.364 . S
C243 C244 1.374 . S
C244 H235 0.930 . S
C244 C243 1.374 . S
C244 C245 1.383 . S
C245 O239 1.412 . S
C245 C244 1.383 . S
C245 C246 1.394 . S
C246 H236 0.929 . S
C246 C242 1.377 . S
C246 C245 1.394 . S
H247 C254 0.929 . S
H248 C257 0.930 . S
H249 C259 0.929 . S
H250 C251 0.969 . S
C251 H250 0.969 . S
C251 O252 1.550 . S
C251 H253 0.973 . S
O252 C251 1.550 . S
O252 C258 1.412 . S
H253 C251 0.973 . S
C254 H247 0.929 . S
C254 C255 1.400 . S
C254 C256 1.364 . S
C255 C254 1.400 . S
C255 C259 1.377 . S
C256 C254 1.364 . S
C256 C257 1.374 . S
C257 H248 0.930 . S
C257 C256 1.374 . S
C257 C258 1.383 . S
C258 O252 1.412 . S
C258 C257 1.383 . S
C258 C259 1.394 . S
C259 H249 0.929 . S
C259 C255 1.377 . S
C259 C258 1.394 . S
H260 C267 0.929 . S
H261 C270 0.930 . S
H262 C272 0.929 . S
H263 C264 0.969 . S
C264 H263 0.969 . S
C264 O265 1.550 . S
C264 H266 0.973 . S
O265 C264 1.550 . S
O265 C271 1.412 . S
H266 C264 0.973 . S
C267 H260 0.929 . S
C267 C268 1.400 . S
C267 C269 1.364 . S
C268 C267 1.400 . S
C268 C272 1.377 . S
C269 C267 1.364 . S
C269 C270 1.374 . S
C270 H261 0.930 . S
C270 C269 1.374 . S
C270 C271 1.383 . S
C271 O265 1.412 . S
C271 C270 1.383 . S
C271 C272 1.394 . S
C272 H262 0.929 . S
C272 C268 1.377 . S
C272 C271 1.394 . S
H273 C280 0.929 . S
H274 C283 0.930 . S
H275 C285 0.929 . S
H276 C277 0.969 . S
C277 H276 0.969 . S
C277 O278 1.550 . S
C277 H279 0.973 . S
O278 C277 1.550 . S
O278 C284 1.412 . S
H279 C277 0.973 . S
C280 H273 0.929 . S
C280 C281 1.400 . S
C280 C282 1.364 . S
C281 C280 1.400 . S
C281 C285 1.377 . S
C282 C280 1.364 . S
C282 C283 1.374 . S
C283 H274 0.930 . S
C283 C282 1.374 . S
C283 C284 1.383 . S
C284 O278 1.412 . S
C284 C283 1.383 . S
C284 C285 1.394 . S
C285 H275 0.929 . S
C285 C281 1.377 . S
C285 C284 1.394 . S
H286 C293 0.929 . S
H287 C296 0.930 . S
H288 C298 0.929 . S
H289 C290 0.969 . S
C290 H289 0.969 . S
C290 O291 1.550 . S
C290 H292 0.973 . S
O291 C290 1.550 . S
O291 C297 1.412 . S
H292 C290 0.973 . S
C293 H286 0.929 . S
C293 C294 1.400 . S
C293 C295 1.364 . S
C294 C293 1.400 . S
C294 C298 1.377 . S
C295 C293 1.364 . S
C295 C296 1.374 . S
C296 H287 0.930 . S
C296 C295 1.374 . S
C296 C297 1.383 . S
C297 O291 1.412 . S
C297 C296 1.383 . S
C297 C298 1.394 . S
C298 H288 0.929 . S
C298 C294 1.377 . S
C298 C297 1.394 . S
H299 C306 0.929 . S
H300 C309 0.930 . S
H301 C311 0.929 . S
H302 C303 0.969 . S
C303 H302 0.969 . S
C303 O304 1.550 . S
C303 H305 0.973 . S
O304 C303 1.550 . S
O304 C310 1.412 . S
H305 C303 0.973 . S
C306 H299 0.929 . S
C306 C307 1.400 . S
C306 C308 1.364 . S
C307 C306 1.400 . S
C307 C311 1.377 . S
C308 C306 1.364 . S
C308 C309 1.374 . S
C309 H300 0.930 . S
C309 C308 1.374 . S
C309 C310 1.383 . S
C310 O304 1.412 . S
C310 C309 1.383 . S
C310 C311 1.394 . S
C311 H301 0.929 . S
C311 C307 1.377 . S
C311 C310 1.394 . S
Zn312 O314 1.933 1_565 S
Zn312 O332 1.985 . S
Zn312 O343 1.955 . S
Zn313 O314 1.911 . S
Zn313 O333 1.970 . S
Zn313 O349 1.945 . S
Zn313 O356 1.981 . S
O314 Zn312 1.933 1_545 S
O314 Zn313 1.911 . S
O314 H315 0.841 1_655 S
H315 O314 0.841 1_455 S
C316 O317 1.246 . S
C316 O345 1.276 . S
O317 C316 1.246 . S
Zn318 O320 1.911 . S
Zn318 O335 1.970 . S
Zn318 O352 1.945 . S
Zn318 O359 1.981 . S
Zn319 O320 1.933 1_565 S
Zn319 O334 1.985 . S
Zn319 O341 1.955 . S
O320 Zn318 1.911 . S
O320 Zn319 1.933 1_545 S
O320 H321 0.841 . S
H321 O320 0.841 . S
Zn322 O323 1.933 1_565 S
Zn322 O336 1.985 . S
Zn322 O345 1.955 . S
O323 Zn322 1.933 1_545 S
O323 Zn324 1.911 . S
O323 H325 0.841 . S
Zn324 O323 1.911 . S
Zn324 O337 1.970 . S
Zn324 O353 1.981 . S
Zn324 O355 1.945 . S
H325 O323 0.841 . S
Zn326 O327 1.933 1_565 S
Zn326 O339 1.985 . S
Zn326 O347 1.955 . S
O327 Zn326 1.933 1_545 S
O327 H328 0.841 . S
O327 Zn329 1.911 . S
H328 O327 0.841 . S
Zn329 O327 1.911 . S
Zn329 O340 1.970 . S
Zn329 O350 1.981 . S
Zn329 O358 1.945 . S
C330 O331 1.246 . S
C330 O347 1.276 . S
O331 C330 1.246 . S
O332 Zn312 1.985 . S
O332 C342 1.245 1_565 S
O333 Zn313 1.970 . S
O333 C342 1.263 . S
O334 Zn319 1.985 . S
O334 C346 1.245 1_565 S
O335 Zn318 1.970 . S
O335 C346 1.263 . S
O336 Zn322 1.985 . S
O336 C351 1.245 1_565 S
O337 Zn324 1.970 . S
O337 C351 1.263 . S
C338 O349 1.262 1_455 S
C338 O350 1.245 . S
O339 Zn326 1.985 . S
O339 C357 1.245 1_565 S
O340 Zn329 1.970 . S
O340 C357 1.263 . S
O341 Zn319 1.955 . S
O341 C360 1.276 . S
C342 O332 1.245 1_545 S
C342 O333 1.263 . S
O343 Zn312 1.955 . S
O343 C362 1.276 1_655 S
C344 O352 1.262 . S
C344 O353 1.245 1_455 S
O345 C316 1.276 . S
O345 Zn322 1.955 . S
C346 O334 1.245 1_545 S
C346 O335 1.263 . S
O347 Zn326 1.955 . S
O347 C330 1.276 . S
C348 O355 1.262 . S
C348 O356 1.245 . S
O349 Zn313 1.945 . S
O349 C338 1.262 1_655 S
O350 Zn329 1.981 . S
O350 C338 1.245 . S
C351 O336 1.245 1_545 S
C351 O337 1.263 . S
O352 Zn318 1.945 . S
O352 C344 1.262 . S
O353 Zn324 1.981 . S
O353 C344 1.245 1_655 S
C354 O358 1.262 . S
C354 O359 1.245 . S
O355 Zn324 1.945 . S
O355 C348 1.262 . S
O356 Zn313 1.981 . S
O356 C348 1.245 . S
C357 O339 1.245 1_545 S
C357 O340 1.263 . S
O358 Zn329 1.945 . S
O358 C354 1.262 . S
O359 Zn318 1.981 . S
O359 C354 1.245 . S
C360 O341 1.276 . S
C360 O361 1.246 1_455 S
O361 C360 1.246 1_655 S
C362 O343 1.276 1_455 S
C362 O363 1.246 . S
O363 C362 1.246 . S
Zn364 O366 1.933 . S
Zn364 O384 1.985 . S
Zn364 O395 1.955 . S
Zn365 O366 1.911 1_556 S
Zn365 O385 1.970 . S
Zn365 O401 1.945 . S
Zn365 O408 1.981 . S
O366 Zn364 1.933 . S
O366 Zn365 1.911 1_554 S
O366 H367 0.841 . S
H367 O366 0.841 . S
C368 O369 1.246 . S
C368 O397 1.276 . S
O369 C368 1.246 . S
Zn370 O372 1.911 1_556 S
Zn370 O387 1.970 . S
Zn370 O404 1.945 . S
Zn370 O411 1.981 . S
Zn371 O372 1.933 . S
Zn371 O386 1.985 . S
Zn371 O393 1.955 . S
O372 Zn370 1.911 1_554 S
O372 Zn371 1.933 . S
O372 H373 0.841 1_565 S
H373 O372 0.841 1_545 S
Zn374 O375 1.933 . S
Zn374 O388 1.985 . S
Zn374 O397 1.955 . S
O375 Zn374 1.933 . S
O375 Zn376 1.911 1_554 S
O375 H377 0.841 . S
Zn376 O375 1.911 1_556 S
Zn376 O389 1.970 . S
Zn376 O405 1.981 . S
Zn376 O407 1.945 . S
H377 O375 0.841 . S
Zn378 O379 1.933 . S
Zn378 O391 1.985 . S
Zn378 O399 1.955 . S
O379 Zn378 1.933 . S
O379 H380 0.841 . S
O379 Zn381 1.911 1_554 S
H380 O379 0.841 . S
Zn381 O379 1.911 1_556 S
Zn381 O392 1.970 . S
Zn381 O402 1.981 . S
Zn381 O410 1.945 . S
C382 O383 1.246 . S
C382 O399 1.276 . S
O383 C382 1.246 . S
O384 Zn364 1.985 . S
O384 C394 1.245 . S
O385 Zn365 1.970 . S
O385 C394 1.263 1_556 S
O386 Zn371 1.985 . S
O386 C398 1.245 . S
O387 Zn370 1.970 . S
O387 C398 1.263 1_556 S
O388 Zn374 1.985 . S
O388 C403 1.245 . S
O389 Zn376 1.970 . S
O389 C403 1.263 1_556 S
C390 O401 1.262 . S
C390 O402 1.245 1_545 S
O391 Zn378 1.985 . S
O391 C409 1.245 . S
O392 Zn381 1.970 . S
O392 C409 1.263 1_556 S
O393 Zn371 1.955 . S
O393 C412 1.276 1_565 S
C394 O384 1.245 . S
C394 O385 1.263 1_554 S
O395 Zn364 1.955 . S
O395 C414 1.276 . S
C396 O404 1.262 1_545 S
C396 O405 1.245 . S
O397 C368 1.276 . S
O397 Zn374 1.955 . S
C398 O386 1.245 . S
C398 O387 1.263 1_554 S
O399 Zn378 1.955 . S
O399 C382 1.276 . S
C400 O407 1.262 . S
C400 O408 1.245 . S
O401 Zn365 1.945 . S
O401 C390 1.262 . S
O402 Zn381 1.981 . S
O402 C390 1.245 1_565 S
C403 O388 1.245 . S
C403 O389 1.263 1_554 S
O404 Zn370 1.945 . S
O404 C396 1.262 1_565 S
O405 Zn376 1.981 . S
O405 C396 1.245 . S
C406 O410 1.262 . S
C406 O411 1.245 . S
O407 Zn376 1.945 . S
O407 C400 1.262 . S
O408 Zn365 1.981 . S
O408 C400 1.245 . S
C409 O391 1.245 . S
C409 O392 1.263 1_554 S
O410 Zn381 1.945 . S
O410 C406 1.262 . S
O411 Zn370 1.981 . S
O411 C406 1.245 . S
C412 O393 1.276 1_545 S
C412 O413 1.246 . S
O413 C412 1.246 . S
C414 O395 1.276 . S
C414 O415 1.246 1_545 S
O415 C414 1.246 1_565 S
Zn416 O418 1.933 . S
Zn416 O436 1.985 . S
Zn416 O447 1.956 1_655 S
Zn417 O418 1.911 . S
Zn417 O437 1.970 . S
Zn417 O453 1.945 . S
Zn417 O460 1.981 . S
O418 Zn416 1.933 . S
O418 Zn417 1.911 . S
O418 H419 0.841 1_655 S
H419 O418 0.841 1_455 S
C420 O421 1.246 1_554 S
C420 O449 1.276 . S
O421 C420 1.246 1_556 S
Zn422 O424 1.911 . S
Zn422 O439 1.970 . S
Zn422 O456 1.945 . S
Zn422 O463 1.981 . S
Zn423 O424 1.933 . S
Zn423 O438 1.985 . S
Zn423 O445 1.955 . S
O424 Zn422 1.911 . S
O424 Zn423 1.933 . S
O424 H425 0.841 . S
H425 O424 0.841 . S
Zn426 O427 1.933 . S
Zn426 O440 1.985 . S
Zn426 O449 1.955 . S
O427 Zn426 1.933 . S
O427 Zn428 1.911 . S
O427 H429 0.841 . S
Zn428 O427 1.911 . S
Zn428 O441 1.970 . S
Zn428 O457 1.981 1_655 S
Zn428 O459 1.945 . S
H429 O427 0.841 . S
Zn430 O431 1.933 . S
Zn430 O443 1.985 . S
Zn430 O451 1.955 . S
O431 Zn430 1.933 . S
O431 H432 0.856 . S
O431 Zn433 1.911 . S
H432 O431 0.856 . S
Zn433 O431 1.911 . S
Zn433 O444 1.970 . S
Zn433 O454 1.981 . S
Zn433 O462 1.945 . S
C434 O435 1.246 . S
C434 O451 1.276 1_554 S
O435 C434 1.246 . S
O436 Zn416 1.985 . S
O436 C446 1.245 . S
O437 Zn417 1.970 . S
O437 C446 1.263 . S
O438 Zn423 1.985 . S
O438 C450 1.245 . S
O439 Zn422 1.970 . S
O439 C450 1.263 . S
O440 Zn426 1.985 . S
O440 C455 1.245 . S
O441 Zn428 1.970 . S
O441 C455 1.263 . S
C442 O453 1.262 1_455 S
C442 O454 1.245 . S
O443 Zn430 1.985 . S
O443 C461 1.245 . S
O444 Zn433 1.970 . S
O444 C461 1.263 . S
O445 Zn423 1.955 . S
O445 C464 1.276 . S
C446 O436 1.245 . S
C446 O437 1.263 . S
O447 Zn416 1.956 1_455 S
O447 C466 1.273 . S
C448 O456 1.262 . S
C448 O457 1.245 . S
O449 C420 1.276 . S
O449 Zn426 1.955 . S
C450 O438 1.245 . S
C450 O439 1.263 . S
O451 Zn430 1.955 . S
O451 C434 1.276 1_556 S
C452 O459 1.262 . S
C452 O460 1.245 1_554 S
O453 Zn417 1.945 . S
O453 C442 1.262 1_655 S
O454 Zn433 1.981 . S
O454 C442 1.245 . S
C455 O440 1.245 . S
C455 O441 1.263 . S
O456 Zn422 1.945 . S
O456 C448 1.262 . S
O457 Zn428 1.981 1_455 S
O457 C448 1.245 . S
C458 O462 1.262 1_554 S
C458 O463 1.245 . S
O459 Zn428 1.945 . S
O459 C452 1.262 . S
O460 Zn417 1.981 . S
O460 C452 1.245 1_556 S
C461 O443 1.245 . S
C461 O444 1.263 . S
O462 Zn433 1.945 . S
O462 C458 1.262 1_556 S
O463 Zn422 1.981 . S
O463 C458 1.245 . S
C464 O445 1.276 . S
C464 O465 1.246 . S
O465 C464 1.246 . S
C466 O447 1.273 . S
C466 O467 1.246 . S
O467 C466 1.246 . S
Zn468 O470 1.933 1_556 S
Zn468 O488 1.985 . S
Zn468 O499 1.955 . S
Zn469 O470 1.911 . S
Zn469 O489 1.970 . S
Zn469 O505 1.945 . S
Zn469 O512 1.981 . S
O470 Zn468 1.933 1_554 S
O470 Zn469 1.911 . S
O470 H471 0.841 . S
H471 O470 0.841 . S
C472 O473 1.246 . S
C472 O501 1.276 . S
O473 C472 1.246 . S
Zn474 O476 1.911 . S
Zn474 O491 1.970 . S
Zn474 O508 1.945 . S
Zn474 O515 1.981 . S
Zn475 O476 1.933 1_556 S
Zn475 O490 1.985 . S
Zn475 O497 1.955 . S
O476 Zn474 1.911 . S
O476 Zn475 1.933 1_554 S
O476 H477 0.841 . S
H477 O476 0.841 . S
Zn478 O479 1.933 1_556 S
Zn478 O492 1.985 . S
Zn478 O501 1.955 . S
O479 Zn478 1.933 1_554 S
O479 Zn480 1.911 . S
O479 H481 0.841 . S
Zn480 O479 1.911 . S
Zn480 O493 1.970 . S
Zn480 O509 1.981 . S
Zn480 O511 1.945 . S
H481 O479 0.841 . S
Zn482 O483 1.933 1_556 S
Zn482 O495 1.985 . S
Zn482 O503 1.955 . S
O483 Zn482 1.933 1_554 S
O483 H484 0.841 . S
O483 Zn485 1.911 . S
H484 O483 0.841 . S
Zn485 O483 1.911 . S
Zn485 O496 1.970 . S
Zn485 O506 1.981 . S
Zn485 O514 1.945 . S
C486 O487 1.246 . S
C486 O503 1.276 . S
O487 C486 1.246 . S
O488 Zn468 1.985 . S
O488 C498 1.245 1_556 S
O489 Zn469 1.970 . S
O489 C498 1.263 . S
O490 Zn475 1.985 . S
O490 C502 1.245 1_556 S
O491 Zn474 1.970 . S
O491 C502 1.263 . S
O492 Zn478 1.985 . S
O492 C507 1.245 1_556 S
O493 Zn480 1.970 . S
O493 C507 1.263 . S
C494 O505 1.262 . S
C494 O506 1.245 . S
O495 Zn482 1.985 . S
O495 C513 1.245 1_556 S
O496 Zn485 1.970 . S
O496 C513 1.263 . S
O497 Zn475 1.955 . S
O497 C516 1.276 . S
C498 O488 1.245 1_554 S
C498 O489 1.263 . S
O499 Zn468 1.955 . S
O499 C518 1.276 . S
C500 O508 1.262 . S
C500 O509 1.245 . S
O501 C472 1.276 . S
O501 Zn478 1.955 . S
C502 O490 1.245 1_554 S
C502 O491 1.263 . S
O503 Zn482 1.955 . S
O503 C486 1.276 . S
C504 O511 1.262 . S
C504 O512 1.245 . S
O505 Zn469 1.945 . S
O505 C494 1.262 . S
O506 Zn485 1.981 . S
O506 C494 1.245 . S
C507 O492 1.245 1_554 S
C507 O493 1.263 . S
O508 Zn474 1.945 . S
O508 C500 1.262 . S
O509 Zn480 1.981 . S
O509 C500 1.245 . S
C510 O514 1.262 . S
C510 O515 1.245 . S
O511 Zn480 1.945 . S
O511 C504 1.262 . S
O512 Zn469 1.981 . S
O512 C504 1.245 . S
C513 O495 1.245 1_554 S
C513 O496 1.263 . S
O514 Zn485 1.945 . S
O514 C510 1.262 . S
O515 Zn474 1.981 . S
O515 C510 1.245 . S
C516 O497 1.276 . S
C516 O517 1.246 . S
O517 C516 1.246 . S
C518 O499 1.276 . S
C518 O519 1.246 . S
O519 C518 1.246 . S
Zn520 O522 1.933 . S
Zn520 O540 1.985 . S
Zn520 O551 1.955 . S
Zn521 O522 1.911 . S
Zn521 O541 1.970 . S
Zn521 O557 1.945 . S
Zn521 O564 1.981 . S
O522 Zn520 1.933 . S
O522 Zn521 1.911 . S
O522 H523 0.841 1_655 S
H523 O522 0.841 1_455 S
C524 O525 1.246 . S
C524 O553 1.276 . S
O525 C524 1.246 . S
Zn526 O528 1.911 . S
Zn526 O543 1.970 . S
Zn526 O560 1.945 . S
Zn526 O567 1.981 . S
Zn527 O528 1.933 . S
Zn527 O542 1.985 . S
Zn527 O549 1.955 . S
O528 Zn526 1.911 . S
O528 Zn527 1.933 . S
O528 H529 0.841 . S
H529 O528 0.841 . S
Zn530 O531 1.933 . S
Zn530 O544 1.985 . S
Zn530 O553 1.955 . S
O531 Zn530 1.933 . S
O531 Zn532 1.911 . S
O531 H533 0.841 . S
Zn532 O531 1.911 . S
Zn532 O545 1.970 . S
Zn532 O561 1.983 1_655 S
Zn532 O563 1.945 . S
H533 O531 0.841 . S
Zn534 O535 1.933 . S
Zn534 O547 1.985 . S
Zn534 O555 1.955 . S
O535 Zn534 1.933 . S
O535 H536 0.841 . S
O535 Zn537 1.911 . S
H536 O535 0.841 . S
Zn537 O535 1.911 . S
Zn537 O548 1.970 . S
Zn537 O558 1.981 . S
Zn537 O566 1.945 . S
C538 O539 1.246 . S
C538 O555 1.276 . S
O539 C538 1.246 . S
O540 Zn520 1.985 . S
O540 C550 1.245 . S
O541 Zn521 1.970 . S
O541 C550 1.263 . S
O542 Zn527 1.985 . S
O542 C554 1.245 . S
O543 Zn526 1.970 . S
O543 C554 1.263 . S
O544 Zn530 1.985 . S
O544 C559 1.245 . S
O545 Zn532 1.970 . S
O545 C559 1.263 . S
C546 O557 1.262 1_455 S
C546 O558 1.245 . S
O547 Zn534 1.985 . S
O547 C565 1.245 . S
O548 Zn537 1.970 . S
O548 C565 1.263 . S
O549 Zn527 1.955 . S
O549 C568 1.276 . S
C550 O540 1.245 . S
C550 O541 1.263 . S
O551 Zn520 1.955 . S
O551 C570 1.276 1_655 S
C552 O560 1.262 . S
C552 O561 1.243 . S
O553 C524 1.276 . S
O553 Zn530 1.955 . S
C554 O542 1.245 . S
C554 O543 1.263 . S
O555 Zn534 1.955 . S
O555 C538 1.276 . S
C556 O563 1.262 . S
C556 O564 1.245 . S
O557 Zn521 1.945 . S
O557 C546 1.262 1_655 S
O558 Zn537 1.981 . S
O558 C546 1.245 . S
C559 O544 1.245 . S
C559 O545 1.263 . S
O560 Zn526 1.945 . S
O560 C552 1.262 . S
O561 Zn532 1.983 1_455 S
O561 C552 1.243 . S
C562 O566 1.262 . S
C562 O567 1.245 . S
O563 Zn532 1.945 . S
O563 C556 1.262 . S
O564 Zn521 1.981 . S
O564 C556 1.245 . S
C565 O547 1.245 . S
C565 O548 1.263 . S
O566 Zn537 1.945 . S
O566 C562 1.262 . S
O567 Zn526 1.981 . S
O567 C562 1.245 . S
C568 O549 1.276 . S
C568 O569 1.246 . S
O569 C568 1.246 . S
C570 O551 1.276 1_455 S
C570 O571 1.246 . S
O571 C570 1.246 . S
Zn572 O574 1.933 1_565 S
Zn572 O592 1.985 . S
Zn572 O603 1.955 . S
Zn573 O574 1.911 . S
Zn573 O593 1.970 . S
Zn573 O609 1.945 . S
Zn573 O616 1.981 . S
O574 Zn572 1.933 1_545 S
O574 Zn573 1.911 . S
O574 H575 0.841 . S
H575 O574 0.841 . S
C576 O577 1.246 . S
C576 O605 1.276 . S
O577 C576 1.246 . S
Zn578 O580 1.911 . S
Zn578 O595 1.970 . S
Zn578 O612 1.945 . S
Zn578 O619 1.981 . S
Zn579 O580 1.933 1_565 S
Zn579 O594 1.985 . S
Zn579 O601 1.955 . S
O580 Zn578 1.911 . S
O580 Zn579 1.933 1_545 S
O580 H581 0.841 . S
H581 O580 0.841 . S
Zn582 O583 1.933 1_565 S
Zn582 O596 1.985 . S
Zn582 O605 1.955 . S
O583 Zn582 1.933 1_545 S
O583 Zn584 1.911 . S
O583 H585 0.841 . S
Zn584 O583 1.911 . S
Zn584 O597 1.970 . S
Zn584 O613 1.981 . S
Zn584 O615 1.945 . S
H585 O583 0.841 . S
Zn586 O587 1.933 1_565 S
Zn586 O599 1.985 . S
Zn586 O607 1.955 . S
O587 Zn586 1.933 1_545 S
O587 H588 0.841 . S
O587 Zn589 1.911 . S
H588 O587 0.841 . S
Zn589 O587 1.911 . S
Zn589 O600 1.970 . S
Zn589 O610 1.981 . S
Zn589 O618 1.945 . S
C590 O591 1.246 . S
C590 O607 1.276 . S
O591 C590 1.246 . S
O592 Zn572 1.985 . S
O592 C602 1.245 1_565 S
O593 Zn573 1.970 . S
O593 C602 1.263 . S
O594 Zn579 1.985 . S
O594 C606 1.245 1_565 S
O595 Zn578 1.970 . S
O595 C606 1.263 . S
O596 Zn582 1.985 . S
O596 C611 1.245 1_565 S
O597 Zn584 1.970 . S
O597 C611 1.263 . S
C598 O609 1.262 . S
C598 O610 1.245 . S
O599 Zn586 1.985 . S
O599 C617 1.245 1_565 S
O600 Zn589 1.970 . S
O600 C617 1.263 . S
O601 Zn579 1.955 . S
O601 C620 1.276 . S
C602 O592 1.245 1_545 S
C602 O593 1.263 . S
O603 Zn572 1.955 . S
O603 C622 1.276 . S
C604 O612 1.262 . S
C604 O613 1.245 . S
O605 C576 1.276 . S
O605 Zn582 1.955 . S
C606 O594 1.245 1_545 S
C606 O595 1.263 . S
O607 Zn586 1.955 . S
O607 C590 1.276 . S
C608 O615 1.262 . S
C608 O616 1.245 . S
O609 Zn573 1.945 . S
O609 C598 1.262 . S
O610 Zn589 1.981 . S
O610 C598 1.245 . S
C611 O596 1.245 1_545 S
C611 O597 1.263 . S
O612 Zn578 1.945 . S
O612 C604 1.262 . S
O613 Zn584 1.981 . S
O613 C604 1.245 . S
C614 O618 1.262 . S
C614 O619 1.245 . S
O615 Zn584 1.945 . S
O615 C608 1.262 . S
O616 Zn573 1.981 . S
O616 C608 1.245 . S
C617 O599 1.245 1_545 S
C617 O600 1.263 . S
O618 Zn589 1.945 . S
O618 C614 1.262 . S
O619 Zn578 1.981 . S
O619 C614 1.245 . S
C620 O601 1.276 . S
C620 O621 1.246 . S
O621 C620 1.246 . S
C622 O603 1.276 . S
C622 O623 1.246 . S
O623 C622 1.246 . S
C624 C625 1.369 . S
C624 C626 1.419 . S
C624 H628 0.930 . S
C625 C624 1.369 . S
C625 C634 1.429 . S
C626 C624 1.419 . S
C626 C627 1.363 . S
C626 H629 0.929 . S
C627 C626 1.363 . S
C627 C633 1.428 . S
H628 C624 0.930 . S
H629 C626 0.929 . S
S630 N631 1.613 . S
S630 N632 1.610 . S
N631 S630 1.613 . S
N631 C634 1.350 . S
N632 S630 1.610 . S
N632 C633 1.351 . S
C633 C627 1.428 . S
C633 N632 1.351 . S
C633 C634 1.434 . S
C634 C625 1.429 . S
C634 N631 1.350 . S
C634 C633 1.434 . S
C635 C636 1.369 . S
C635 C637 1.419 . S
C635 H639 0.930 . S
C636 C635 1.369 . S
C636 C645 1.429 . S
C637 C635 1.419 . S
C637 C638 1.363 . S
C637 H640 0.929 . S
C638 C637 1.363 . S
C638 C644 1.428 . S
H639 C635 0.930 . S
H640 C637 0.929 . S
S641 N642 1.613 . S
S641 N643 1.610 . S
N642 S641 1.613 . S
N642 C645 1.350 . S
N643 S641 1.610 . S
N643 C644 1.351 . S
C644 C638 1.428 . S
C644 N643 1.351 . S
C644 C645 1.434 . S
C645 C636 1.429 . S
C645 N642 1.350 . S
C645 C644 1.434 . S
C646 C647 1.369 . S
C646 C648 1.419 . S
C646 H650 0.930 . S
C647 C646 1.369 . S
C647 C656 1.429 . S
C648 C646 1.419 . S
C648 C649 1.363 . S
C648 H651 0.929 . S
C649 C648 1.363 . S
C649 C655 1.428 . S
H650 C646 0.930 . S
H651 C648 0.929 . S
S652 N653 1.613 . S
S652 N654 1.610 . S
N653 S652 1.613 . S
N653 C656 1.350 . S
N654 S652 1.610 . S
N654 C655 1.351 . S
C655 C649 1.428 . S
C655 N654 1.351 . S
C655 C656 1.434 . S
C656 C647 1.429 . S
C656 N653 1.350 . S
C656 C655 1.434 . S
C657 C658 1.369 . S
C657 C659 1.419 . S
C657 H661 0.930 . S
C658 C657 1.369 . S
C658 C667 1.429 . S
C659 C657 1.419 . S
C659 C660 1.363 . S
C659 H662 0.929 . S
C660 C659 1.363 . S
C660 C666 1.428 . S
H661 C657 0.930 . S
H662 C659 0.929 . S
S663 N664 1.613 . S
S663 N665 1.610 . S
N664 S663 1.613 . S
N664 C667 1.350 . S
N665 S663 1.610 . S
N665 C666 1.351 . S
C666 C660 1.428 . S
C666 N665 1.351 . S
C666 C667 1.434 . S
C667 C658 1.429 . S
C667 N664 1.350 . S
C667 C666 1.434 . S
C668 C669 1.369 . S
C668 C670 1.419 . S
C668 H672 0.930 . S
C669 C668 1.369 . S
C669 C678 1.429 . S
C670 C668 1.419 . S
C670 C671 1.363 . S
C670 H673 0.929 . S
C671 C670 1.363 . S
C671 C677 1.428 . S
H672 C668 0.930 . S
H673 C670 0.929 . S
S674 N675 1.613 . S
S674 N676 1.610 . S
N675 S674 1.613 . S
N675 C678 1.350 . S
N676 S674 1.610 . S
N676 C677 1.351 . S
C677 C671 1.428 . S
C677 N676 1.351 . S
C677 C678 1.434 . S
C678 C669 1.429 . S
C678 N675 1.350 . S
C678 C677 1.434 . S
C679 C680 1.369 . S
C679 C681 1.419 . S
C679 H683 0.930 . S
C680 C679 1.369 . S
C680 C689 1.429 . S
C681 C679 1.419 . S
C681 C682 1.363 . S
C681 H684 0.929 . S
C682 C681 1.363 . S
C682 C688 1.428 . S
H683 C679 0.930 . S
H684 C681 0.929 . S
S685 N686 1.613 . S
S685 N687 1.610 . S
N686 S685 1.613 . S
N686 C689 1.350 . S
N687 S685 1.610 . S
N687 C688 1.351 . S
C688 C682 1.428 . S
C688 N687 1.351 . S
C688 C689 1.434 . S
C689 C680 1.429 . S
C689 N686 1.350 . S
C689 C688 1.434 . S
C690 C691 1.369 . S
C690 C692 1.419 . S
C690 H694 0.930 . S
C691 C690 1.369 . S
C691 C700 1.429 . S
C692 C690 1.419 . S
C692 C693 1.363 . S
C692 H695 0.929 . S
C693 C692 1.363 . S
C693 C699 1.428 . S
H694 C690 0.930 . S
H695 C692 0.929 . S
S696 N697 1.613 . S
S696 N698 1.610 . S
N697 S696 1.613 . S
N697 C700 1.350 . S
N698 S696 1.610 . S
N698 C699 1.351 . S
C699 C693 1.428 . S
C699 N698 1.351 . S
C699 C700 1.434 . S
C700 C691 1.429 . S
C700 N697 1.350 . S
C700 C699 1.434 . S
C701 C702 1.369 . S
C701 C703 1.419 . S
C701 H705 0.930 . S
C702 C701 1.369 . S
C702 C711 1.429 . S
C703 C701 1.419 . S
C703 C704 1.363 . S
C703 H706 0.929 . S
C704 C703 1.363 . S
C704 C710 1.428 . S
H705 C701 0.930 . S
H706 C703 0.929 . S
S707 N708 1.613 . S
S707 N709 1.610 . S
N708 S707 1.613 . S
N708 C711 1.350 . S
N709 S707 1.610 . S
N709 C710 1.351 . S
C710 C704 1.428 . S
C710 N709 1.351 . S
C710 C711 1.434 . S
C711 C702 1.429 . S
C711 N708 1.350 . S
C711 C710 1.434 . S
C712 C713 1.369 . S
C712 C714 1.419 . S
C712 H716 0.930 . S
C713 C712 1.369 . S
C713 C722 1.429 . S
C714 C712 1.419 . S
C714 C715 1.363 . S
C714 H717 0.929 . S
C715 C714 1.363 . S
C715 C721 1.428 . S
H716 C712 0.930 . S
H717 C714 0.929 . S
S718 N719 1.613 . S
S718 N720 1.610 . S
N719 S718 1.613 . S
N719 C722 1.350 . S
N720 S718 1.610 . S
N720 C721 1.351 . S
C721 C715 1.428 . S
C721 N720 1.351 . S
C721 C722 1.434 . S
C722 C713 1.429 . S
C722 N719 1.350 . S
C722 C721 1.434 . S
C723 C724 1.369 . S
C723 C725 1.419 . S
C723 H727 0.930 . S
C724 C723 1.369 . S
C724 C733 1.429 . S
C725 C723 1.419 . S
C725 C726 1.363 . S
C725 H728 0.929 . S
C726 C725 1.363 . S
C726 C732 1.428 . S
H727 C723 0.930 . S
H728 C725 0.929 . S
S729 N730 1.613 . S
S729 N731 1.610 . S
N730 S729 1.613 . S
N730 C733 1.350 . S
N731 S729 1.610 . S
N731 C732 1.351 . S
C732 C726 1.428 . S
C732 N731 1.351 . S
C732 C733 1.434 . S
C733 C724 1.429 . S
C733 N730 1.350 . S
C733 C732 1.434 . S
C734 C735 1.369 . S
C734 C736 1.419 . S
C734 H738 0.930 . S
C735 C734 1.369 . S
C735 C744 1.429 . S
C736 C734 1.419 . S
C736 C737 1.363 . S
C736 H739 0.929 . S
C737 C736 1.363 . S
C737 C743 1.428 . S
H738 C734 0.930 . S
H739 C736 0.929 . S
S740 N741 1.613 . S
S740 N742 1.610 . S
N741 S740 1.613 . S
N741 C744 1.350 . S
N742 S740 1.610 . S
N742 C743 1.351 . S
C743 C737 1.428 . S
C743 N742 1.351 . S
C743 C744 1.434 . S
C744 C735 1.429 . S
C744 N741 1.350 . S
C744 C743 1.434 . S
C745 C746 1.369 . S
C745 C747 1.419 . S
C745 H749 0.930 . S
C746 C745 1.369 . S
C746 C755 1.429 . S
C747 C745 1.419 . S
C747 C748 1.363 . S
C747 H750 0.929 . S
C748 C747 1.363 . S
C748 C754 1.428 . S
H749 C745 0.930 . S
H750 C747 0.929 . S
S751 N752 1.613 . S
S751 N753 1.610 . S
N752 S751 1.613 . S
N752 C755 1.350 . S
N753 S751 1.610 . S
N753 C754 1.351 . S
C754 C748 1.428 . S
C754 N753 1.351 . S
C754 C755 1.434 . S
C755 C746 1.429 . S
C755 N752 1.350 . S
C755 C754 1.434 . S
C756 C757 1.369 . S
C756 C758 1.419 . S
C756 H760 0.930 . S
C757 C756 1.369 . S
C757 C766 1.429 1_554 S
C758 C756 1.419 . S
C758 C759 1.363 . S
C758 H761 0.929 . S
C759 C758 1.363 . S
C759 C765 1.428 1_554 S
H760 C756 0.930 . S
H761 C758 0.929 . S
S762 N763 1.613 . S
S762 N764 1.610 . S
N763 S762 1.613 . S
N763 C766 1.350 . S
N764 S762 1.610 . S
N764 C765 1.351 . S
C765 C759 1.428 1_556 S
C765 N764 1.351 . S
C765 C766 1.434 . S
C766 C757 1.429 1_556 S
C766 N763 1.350 . S
C766 C765 1.434 . S
C767 C768 1.369 . S
C767 C769 1.419 . S
C767 H771 0.930 . S
C768 C767 1.369 . S
C768 C777 1.429 . S
C769 C767 1.419 . S
C769 C770 1.363 . S
C769 H772 0.929 . S
C770 C769 1.363 . S
C770 C776 1.428 . S
H771 C767 0.930 . S
H772 C769 0.929 . S
S773 N774 1.615 . S
S773 N775 1.610 . S
N774 S773 1.615 . S
N774 C777 1.348 1_556 S
N775 S773 1.610 . S
N775 C776 1.351 1_556 S
C776 C770 1.428 . S
C776 N775 1.351 1_554 S
C776 C777 1.434 . S
C777 C768 1.429 . S
C777 N774 1.348 1_554 S
C777 C776 1.434 . S
C778 C779 1.369 . S
C778 C780 1.419 . S
C778 H782 0.930 . S
C779 C778 1.369 . S
C779 C788 1.429 . S
C780 C778 1.419 . S
C780 C781 1.363 . S
C780 H783 0.929 . S
C781 C780 1.363 . S
C781 C787 1.428 . S
H782 C778 0.930 . S
H783 C780 0.929 . S
S784 N785 1.613 . S
S784 N786 1.610 . S
N785 S784 1.613 . S
N785 C788 1.350 1_556 S
N786 S784 1.610 . S
N786 C787 1.351 1_556 S
C787 C781 1.428 . S
C787 N786 1.351 1_554 S
C787 C788 1.434 . S
C788 C779 1.429 . S
C788 N785 1.350 1_554 S
C788 C787 1.434 . S
C789 C790 1.369 . S
C789 C791 1.419 . S
C789 H793 0.930 . S
C790 C789 1.369 . S
C790 C799 1.429 1_554 S
C791 C789 1.419 . S
C791 C792 1.363 . S
C791 H794 0.929 . S
C792 C791 1.363 . S
C792 C798 1.428 1_554 S
H793 C789 0.930 . S
H794 C791 0.929 . S
S795 N796 1.613 . S
S795 N797 1.610 . S
N796 S795 1.613 . S
N796 C799 1.350 . S
N797 S795 1.610 . S
N797 C798 1.351 . S
C798 C792 1.428 1_556 S
C798 N797 1.351 . S
C798 C799 1.434 . S
C799 C790 1.429 1_556 S
C799 N796 1.350 . S
C799 C798 1.434 . S
C800 C801 1.369 . S
C800 C802 1.419 . S
C800 H804 0.930 . S
C801 C800 1.369 . S
C801 C810 1.429 1_455 S
C802 C800 1.419 . S
C802 C803 1.363 . S
C802 H805 0.929 . S
C803 C802 1.363 . S
C803 C809 1.428 1_455 S
H804 C800 0.930 . S
H805 C802 0.929 . S
S806 N807 1.613 . S
S806 N808 1.610 . S
N807 S806 1.613 . S
N807 C810 1.350 . S
N808 S806 1.610 . S
N808 C809 1.351 . S
C809 C803 1.428 1_655 S
C809 N808 1.351 . S
C809 C810 1.434 . S
C810 C801 1.429 1_655 S
C810 N807 1.350 . S
C810 C809 1.434 . S
C811 C812 1.369 . S
C811 C813 1.419 . S
C811 H815 0.930 . S
C812 C811 1.369 . S
C812 C821 1.429 1_545 S
C813 C811 1.419 . S
C813 C814 1.363 . S
C813 H816 0.929 . S
C814 C813 1.363 . S
C814 C820 1.428 1_545 S
H815 C811 0.930 . S
H816 C813 0.929 . S
S817 N818 1.613 . S
S817 N819 1.610 . S
N818 S817 1.613 . S
N818 C821 1.350 . S
N819 S817 1.610 . S
N819 C820 1.351 . S
C820 C814 1.428 1_565 S
C820 N819 1.351 . S
C820 C821 1.434 . S
C821 C812 1.429 1_565 S
C821 N818 1.350 . S
C821 C820 1.434 . S
C822 C823 1.369 . S
C822 C824 1.419 . S
C822 H826 0.930 . S
C823 C822 1.369 . S
C823 C832 1.429 1_455 S
C824 C822 1.419 . S
C824 C825 1.363 . S
C824 H827 0.929 . S
C825 C824 1.363 . S
C825 C831 1.428 1_455 S
H826 C822 0.930 . S
H827 C824 0.929 . S
S828 N829 1.613 . S
S828 N830 1.610 . S
N829 S828 1.613 . S
N829 C832 1.350 . S
N830 S828 1.610 . S
N830 C831 1.351 . S
C831 C825 1.428 1_655 S
C831 N830 1.351 . S
C831 C832 1.434 . S
C832 C823 1.429 1_655 S
C832 N829 1.350 . S
C832 C831 1.434 . S
C833 C834 1.369 . S
C833 C835 1.419 . S
C833 H837 0.930 . S
C834 C833 1.369 . S
C834 C843 1.429 . S
C835 C833 1.419 . S
C835 C836 1.363 . S
C835 H838 0.929 . S
C836 C835 1.363 . S
C836 C842 1.428 . S
H837 C833 0.930 . S
H838 C835 0.929 . S
S839 N840 1.613 . S
S839 N841 1.610 . S
N840 S839 1.613 . S
N840 C843 1.350 1_565 S
N841 S839 1.610 . S
N841 C842 1.351 1_565 S
C842 C836 1.428 . S
C842 N841 1.351 1_545 S
C842 C843 1.434 . S
C843 C834 1.429 . S
C843 N840 1.350 1_545 S
C843 C842 1.434 . S
C844 C845 1.369 . S
C844 C846 1.419 . S
C844 H848 0.930 . S
C845 C844 1.369 . S
C845 C854 1.429 . S
C846 C844 1.419 . S
C846 C847 1.363 . S
C846 H849 0.929 . S
C847 C846 1.363 . S
C847 C853 1.428 . S
H848 C844 0.930 . S
H849 C846 0.929 . S
S850 N851 1.617 . S
S850 N852 1.610 . S
N851 S850 1.617 . S
N851 C854 1.345 1_655 S
N852 S850 1.610 . S
N852 C853 1.351 1_655 S
C853 C847 1.428 . S
C853 N852 1.351 1_455 S
C853 C854 1.434 . S
C854 C845 1.429 . S
C854 N851 1.345 1_455 S
C854 C853 1.434 . S
C855 C856 1.369 . S
C855 C857 1.419 . S
C855 H859 0.930 . S
C856 C855 1.369 . S
C856 C865 1.429 . S
C857 C855 1.419 . S
C857 C858 1.363 . S
C857 H860 0.929 . S
C858 C857 1.363 . S
C858 C864 1.428 . S
H859 C855 0.930 . S
H860 C857 0.929 . S
S861 N862 1.613 . S
S861 N863 1.610 . S
N862 S861 1.613 . S
N862 C865 1.350 1_565 S
N863 S861 1.610 . S
N863 C864 1.351 1_565 S
C864 C858 1.428 . S
C864 N863 1.351 1_545 S
C864 C865 1.434 . S
C865 C856 1.429 . S
C865 N862 1.350 1_545 S
C865 C864 1.434 . S
C866 C867 1.369 1_655 S
C866 C868 1.419 . S
C866 H870 0.930 . S
C867 C866 1.369 1_455 S
C867 C876 1.429 . S
C868 C866 1.419 . S
C868 C869 1.363 1_655 S
C868 H871 0.929 . S
C869 C868 1.363 1_455 S
C869 C875 1.428 . S
H870 C866 0.930 . S
H871 C868 0.929 . S
S872 N873 1.613 . S
S872 N874 1.610 . S
N873 S872 1.613 . S
N873 C876 1.350 . S
N874 S872 1.610 . S
N874 C875 1.351 . S
C875 C869 1.428 . S
C875 N874 1.351 . S
C875 C876 1.434 . S
C876 C867 1.429 . S
C876 N873 1.350 . S
C876 C875 1.434 . S
C877 C878 1.369 1_565 S
C877 C879 1.419 . S
C877 H881 0.930 . S
C878 C877 1.369 1_545 S
C878 C887 1.429 . S
C879 C877 1.419 . S
C879 C880 1.363 1_565 S
C879 H882 0.929 . S
C880 C879 1.363 1_545 S
C880 C886 1.428 . S
H881 C877 0.930 . S
H882 C879 0.929 . S
S883 N884 1.613 . S
S883 N885 1.610 . S
N884 S883 1.613 . S
N884 C887 1.350 . S
N885 S883 1.610 . S
N885 C886 1.351 . S
C886 C880 1.428 . S
C886 N885 1.351 . S
C886 C887 1.434 . S
C887 C878 1.429 . S
C887 N884 1.350 . S
C887 C886 1.434 . S
C888 C889 1.369 . S
C888 C890 1.419 . S
C888 H892 0.930 1_455 S
C889 C888 1.369 . S
C889 C898 1.429 . S
C890 C888 1.419 . S
C890 C891 1.363 . S
C890 H893 0.929 1_455 S
C891 C890 1.363 . S
C891 C897 1.428 . S
H892 C888 0.930 1_655 S
H893 C890 0.929 1_655 S
S894 N895 1.613 . S
S894 N896 1.610 . S
N895 S894 1.613 . S
N895 C898 1.350 . S
N896 S894 1.610 . S
N896 C897 1.351 . S
C897 C891 1.428 . S
C897 N896 1.351 . S
C897 C898 1.434 . S
C898 C889 1.429 . S
C898 N895 1.350 . S
C898 C897 1.434 . S
C899 C900 1.369 . S
C899 C901 1.419 . S
C899 H903 0.930 1_545 S
C900 C899 1.369 . S
C900 C909 1.429 . S
C901 C899 1.419 . S
C901 C902 1.363 . S
C901 H904 0.929 1_545 S
C902 C901 1.363 . S
C902 C908 1.428 . S
H903 C899 0.930 1_565 S
H904 C901 0.929 1_565 S
S905 N906 1.613 . S
S905 N907 1.610 . S
N906 S905 1.613 . S
N906 C909 1.350 . S
N907 S905 1.610 . S
N907 C908 1.351 . S
C908 C902 1.428 . S
C908 N907 1.351 . S
C908 C909 1.434 . S
C909 C900 1.429 . S
C909 N906 1.350 . S
C909 C908 1.434 . S
C910 C911 1.369 1_655 S
C910 C912 1.419 . S
C910 H914 0.930 . S
C911 C910 1.369 1_455 S
C911 C920 1.429 . S
C912 C910 1.419 . S
C912 C913 1.363 1_655 S
C912 H915 0.929 . S
C913 C912 1.363 1_455 S
C913 C919 1.428 . S
H914 C910 0.930 . S
H915 C912 0.929 . S
S916 N917 1.613 . S
S916 N918 1.610 . S
N917 S916 1.613 . S
N917 C920 1.350 . S
N918 S916 1.610 . S
N918 C919 1.351 . S
C919 C913 1.428 . S
C919 N918 1.351 . S
C919 C920 1.434 . S
C920 C911 1.429 . S
C920 N917 1.350 . S
C920 C919 1.434 . S
C921 C922 1.369 . S
C921 C923 1.419 . S
C921 H925 0.930 . S
C922 C921 1.369 . S
C922 C931 1.429 1_545 S
C923 C921 1.419 . S
C923 C924 1.363 . S
C923 H926 0.929 . S
C924 C923 1.363 . S
C924 C930 1.428 1_545 S
H925 C921 0.930 . S
H926 C923 0.929 . S
S927 N928 1.613 . S
S927 N929 1.610 . S
N928 S927 1.613 . S
N928 C931 1.350 . S
N929 S927 1.610 . S
N929 C930 1.351 . S
C930 C924 1.428 1_565 S
C930 N929 1.351 . S
C930 C931 1.434 . S
C931 C922 1.429 1_565 S
C931 N928 1.350 . S
C931 C930 1.434 . S
C932 C933 1.369 1_455 S
C932 C934 1.419 . S
C932 H936 0.930 . S
C933 C932 1.369 1_655 S
C933 C942 1.429 . S
C934 C932 1.419 . S
C934 C935 1.363 1_455 S
C934 H937 0.929 . S
C935 C934 1.363 1_655 S
C935 C941 1.428 . S
H936 C932 0.930 . S
H937 C934 0.929 . S
S938 N939 1.613 . S
S938 N940 1.610 . S
N939 S938 1.613 . S
N939 C942 1.350 . S
N940 S938 1.610 . S
N940 C941 1.351 . S
C941 C935 1.428 . S
C941 N940 1.351 . S
C941 C942 1.434 . S
C942 C933 1.429 . S
C942 N939 1.350 . S
C942 C941 1.434 . S
C943 C944 1.369 . S
C943 C945 1.419 . S
C943 H947 0.930 . S
C944 C943 1.369 . S
C944 C953 1.429 1_545 S
C945 C943 1.419 . S
C945 C946 1.363 . S
C945 H948 0.929 . S
C946 C945 1.363 . S
C946 C952 1.428 . S
H947 C943 0.930 . S
H948 C945 0.929 . S
S949 N950 1.613 . S
S949 N951 1.610 . S
N950 S949 1.613 . S
N950 C953 1.350 . S
N951 S949 1.610 . S
N951 C952 1.351 1_565 S
C952 C946 1.428 . S
C952 N951 1.351 1_545 S
C952 C953 1.434 1_545 S
C953 C944 1.429 1_565 S
C953 N950 1.350 . S
C953 C952 1.434 1_565 S
C954 C955 1.369 . S
C954 C956 1.419 . S
C954 H958 0.930 . S
C955 C954 1.369 . S
C955 C964 1.429 1_455 S
C956 C954 1.419 . S
C956 C957 1.363 . S
C956 H959 0.929 . S
C957 C956 1.363 . S
C957 C963 1.428 1_455 S
H958 C954 0.930 . S
H959 C956 0.929 . S
S960 N961 1.613 . S
S960 N962 1.610 . S
N961 S960 1.613 . S
N961 C964 1.350 . S
N962 S960 1.610 . S
N962 C963 1.351 . S
C963 C957 1.428 1_655 S
C963 N962 1.351 . S
C963 C964 1.434 . S
C964 C955 1.429 1_655 S
C964 N961 1.350 . S
C964 C963 1.434 . S
C965 C966 1.369 . S
C965 C967 1.419 1_545 S
C965 H969 0.930 1_545 S
C966 C965 1.369 . S
C966 C975 1.429 . S
C967 C965 1.419 1_565 S
C967 C968 1.363 1_565 S
C967 H970 0.929 . S
C968 C967 1.363 1_545 S
C968 C974 1.428 . S
H969 C965 0.930 1_565 S
H970 C967 0.929 . S
S971 N972 1.613 . S
S971 N973 1.610 . S
N972 S971 1.613 . S
N972 C975 1.350 . S
N973 S971 1.610 . S
N973 C974 1.351 . S
C974 C968 1.428 . S
C974 N973 1.351 . S
C974 C975 1.434 . S
C975 C966 1.429 . S
C975 N972 1.350 . S
C975 C974 1.434 . S
C976 C977 1.369 1_565 S
C976 C978 1.419 . S
C976 H980 0.930 . S
C977 C976 1.369 1_545 S
C977 C986 1.429 . S
C978 C976 1.419 . S
C978 C979 1.363 1_565 S
C978 H981 0.929 . S
C979 C978 1.363 1_545 S
C979 C985 1.428 . S
H980 C976 0.930 . S
H981 C978 0.929 . S
S982 N983 1.613 . S
S982 N984 1.610 . S
N983 S982 1.613 . S
N983 C986 1.350 . S
N984 S982 1.610 . S
N984 C985 1.351 . S
C985 C979 1.428 . S
C985 N984 1.351 . S
C985 C986 1.434 . S
C986 C977 1.429 . S
C986 N983 1.350 . S
C986 C985 1.434 . S
C987 C988 1.369 . S
C987 C989 1.419 1_455 S
C987 H991 0.930 1_455 S
C988 C987 1.369 . S
C988 C997 1.429 . S
C989 C987 1.419 1_655 S
C989 C990 1.363 1_655 S
C989 H992 0.929 . S
C990 C989 1.363 1_455 S
C990 C996 1.428 . S
H991 C987 0.930 1_655 S
H992 C989 0.929 . S
S993 N994 1.613 . S
S993 N995 1.610 . S
N994 S993 1.613 . S
N994 C997 1.350 . S
N995 S993 1.610 . S
N995 C996 1.351 . S
C996 C990 1.428 . S
C996 N995 1.351 . S
C996 C997 1.434 . S
C997 C988 1.429 . S
C997 N994 1.350 . S
C997 C996 1.434 . S
C998 C999 1.369 . S
C998 C1000 1.419 . S
C998 H1002 0.930 1_545 S
C999 C998 1.369 . S
C999 C1008 1.429 . S
C1000 C998 1.419 . S
C1000 C1001 1.363 . S
C1000 H1003 0.929 1_545 S
C1001 C1000 1.363 . S
C1001 C1007 1.428 . S
H1002 C998 0.930 1_565 S
H1003 C1000 0.929 1_565 S
S1004 N1005 1.613 . S
S1004 N1006 1.610 . S
N1005 S1004 1.613 . S
N1005 C1008 1.350 . S
N1006 S1004 1.610 . S
N1006 C1007 1.351 . S
C1007 C1001 1.428 . S
C1007 N1006 1.351 . S
C1007 C1008 1.434 . S
C1008 C999 1.429 . S
C1008 N1005 1.350 . S
C1008 C1007 1.434 . S
C1009 C1010 1.369 . S
C1009 C1011 1.419 . S
C1009 H1013 0.930 . S
C1010 C1009 1.369 . S
C1010 C1019 1.429 . S
C1011 C1009 1.419 . S
C1011 C1012 1.363 . S
C1011 H1014 0.929 . S
C1012 C1011 1.363 . S
C1012 C1018 1.428 . S
H1013 C1009 0.930 . S
H1014 C1011 0.929 . S
S1015 N1016 1.613 1_655 S
S1015 N1017 1.610 . S
N1016 S1015 1.613 1_455 S
N1016 C1019 1.350 . S
N1017 S1015 1.610 . S
N1017 C1018 1.351 1_655 S
C1018 C1012 1.428 . S
C1018 N1017 1.351 1_455 S
C1018 C1019 1.434 . S
C1019 C1010 1.429 . S
C1019 N1016 1.350 . S
C1019 C1018 1.434 . S
C1020 C1021 1.369 . S
C1020 C1022 1.419 . S
C1020 H1024 0.930 . S
C1021 C1020 1.369 . S
C1021 C1030 1.429 . S
C1022 C1020 1.419 . S
C1022 C1023 1.363 . S
C1022 H1025 0.929 . S
C1023 C1022 1.363 . S
C1023 C1029 1.428 . S
H1024 C1020 0.930 . S
H1025 C1022 0.929 . S
S1026 N1027 1.613 . S
S1026 N1028 1.610 . S
N1027 S1026 1.613 . S
N1027 C1030 1.350 . S
N1028 S1026 1.610 . S
N1028 C1029 1.351 . S
C1029 C1023 1.428 . S
C1029 N1028 1.351 . S
C1029 C1030 1.434 . S
C1030 C1021 1.429 . S
C1030 N1027 1.350 . S
C1030 C1029 1.434 . S
C1031 C1032 1.369 . S
C1031 C1033 1.419 . S
C1031 H1035 0.930 . S
C1032 C1031 1.369 . S
C1032 C1041 1.429 . S
C1033 C1031 1.419 . S
C1033 C1034 1.363 . S
C1033 H1036 0.929 . S
C1034 C1033 1.363 . S
C1034 C1040 1.428 . S
H1035 C1031 0.930 . S
H1036 C1033 0.929 . S
S1037 N1038 1.613 . S
S1037 N1039 1.610 . S
N1038 S1037 1.613 . S
N1038 C1041 1.350 . S
N1039 S1037 1.610 . S
N1039 C1040 1.351 . S
C1040 C1034 1.428 . S
C1040 N1039 1.351 . S
C1040 C1041 1.434 . S
C1041 C1032 1.429 . S
C1041 N1038 1.350 . S
C1041 C1040 1.434 . S
C1042 C1043 1.369 . S
C1042 C1044 1.419 . S
C1042 H1046 0.930 . S
C1043 C1042 1.369 . S
C1043 C1052 1.429 . S
C1044 C1042 1.419 . S
C1044 C1045 1.363 . S
C1044 H1047 0.929 . S
C1045 C1044 1.363 . S
C1045 C1051 1.428 . S
H1046 C1042 0.930 . S
H1047 C1044 0.929 . S
S1048 N1049 1.613 . S
S1048 N1050 1.610 . S
N1049 S1048 1.613 . S
N1049 C1052 1.350 . S
N1050 S1048 1.610 . S
N1050 C1051 1.351 . S
C1051 C1045 1.428 . S
C1051 N1050 1.351 . S
C1051 C1052 1.434 . S
C1052 C1043 1.429 . S
C1052 N1049 1.350 . S
C1052 C1051 1.434 . S
C1053 C1054 1.369 . S
C1053 C1055 1.419 . S
C1053 H1057 0.930 . S
C1054 C1053 1.369 . S
C1054 C1063 1.429 1_455 S
C1055 C1053 1.419 . S
C1055 C1056 1.363 . S
C1055 H1058 0.929 . S
C1056 C1055 1.363 . S
C1056 C1062 1.428 1_455 S
H1057 C1053 0.930 . S
H1058 C1055 0.929 . S
S1059 N1060 1.613 . S
S1059 N1061 1.610 . S
N1060 S1059 1.613 . S
N1060 C1063 1.350 . S
N1061 S1059 1.610 . S
N1061 C1062 1.351 . S
C1062 C1056 1.428 1_655 S
C1062 N1061 1.351 . S
C1062 C1063 1.434 . S
C1063 C1054 1.429 1_655 S
C1063 N1060 1.350 . S
C1063 C1062 1.434 . S
C1064 C1065 1.369 . S
C1064 C1066 1.419 . S
C1064 H1068 0.930 . S
C1065 C1064 1.369 . S
C1065 C1074 1.429 . S
C1066 C1064 1.419 . S
C1066 C1067 1.363 . S
C1066 H1069 0.929 . S
C1067 C1066 1.363 . S
C1067 C1073 1.428 . S
H1068 C1064 0.930 . S
H1069 C1066 0.929 . S
S1070 N1071 1.613 . S
S1070 N1072 1.610 . S
N1071 S1070 1.613 . S
N1071 C1074 1.350 . S
N1072 S1070 1.610 . S
N1072 C1073 1.351 . S
C1073 C1067 1.428 . S
C1073 N1072 1.351 . S
C1073 C1074 1.434 . S
C1074 C1065 1.429 . S
C1074 N1071 1.350 . S
C1074 C1073 1.434 . S
C1075 C1076 1.369 . S
C1075 C1077 1.419 . S
C1075 H1079 0.930 . S
C1076 C1075 1.369 . S
C1076 C1085 1.429 1_554 S
C1077 C1075 1.419 . S
C1077 C1078 1.363 . S
C1077 H1080 0.929 . S
C1078 C1077 1.363 . S
C1078 C1084 1.428 1_554 S
H1079 C1075 0.930 . S
H1080 C1077 0.929 . S
S1081 N1082 1.613 . S
S1081 N1083 1.610 . S
N1082 S1081 1.613 . S
N1082 C1085 1.350 . S
N1083 S1081 1.610 . S
N1083 C1084 1.351 . S
C1084 C1078 1.428 1_556 S
C1084 N1083 1.351 . S
C1084 C1085 1.434 . S
C1085 C1076 1.429 1_556 S
C1085 N1082 1.350 . S
C1085 C1084 1.434 . S
C1086 C1087 1.369 1_556 S
C1086 C1088 1.419 . S
C1086 H1090 0.930 . S
C1087 C1086 1.369 1_554 S
C1087 C1096 1.429 . S
C1088 C1086 1.419 . S
C1088 C1089 1.363 1_556 S
C1088 H1091 0.929 . S
C1089 C1088 1.363 1_554 S
C1089 C1095 1.428 . S
H1090 C1086 0.930 . S
H1091 C1088 0.929 . S
S1092 N1093 1.613 . S
S1092 N1094 1.610 . S
N1093 S1092 1.613 . S
N1093 C1096 1.350 . S
N1094 S1092 1.610 . S
N1094 C1095 1.351 . S
C1095 C1089 1.428 . S
C1095 N1094 1.351 . S
C1095 C1096 1.434 . S
C1096 C1087 1.429 . S
C1096 N1093 1.350 . S
C1096 C1095 1.434 . S
C1097 C1098 1.355 1_554 S
C1097 C1099 1.419 . S
C1097 H1101 0.930 . S
C1098 C1097 1.355 1_556 S
C1098 C1107 1.444 . S
C1099 C1097 1.419 . S
C1099 C1100 1.363 1_554 S
C1099 H1102 0.929 . S
C1100 C1099 1.363 1_556 S
C1100 C1106 1.428 . S
H1101 C1097 0.930 . S
H1102 C1099 0.929 . S
S1103 N1104 1.613 . S
S1103 N1105 1.610 . S
N1104 S1103 1.613 . S
N1104 C1107 1.350 . S
N1105 S1103 1.610 . S
N1105 C1106 1.351 . S
C1106 C1100 1.428 . S
C1106 N1105 1.351 . S
C1106 C1107 1.434 . S
C1107 C1098 1.444 . S
C1107 N1104 1.350 . S
C1107 C1106 1.434 . S
C1108 C1109 1.369 1_556 S
C1108 C1110 1.419 . S
C1108 H1112 0.930 . S
C1109 C1108 1.369 1_554 S
C1109 C1118 1.429 . S
C1110 C1108 1.419 . S
C1110 C1111 1.363 1_556 S
C1110 H1113 0.929 . S
C1111 C1110 1.363 1_554 S
C1111 C1117 1.428 . S
H1112 C1108 0.930 . S
H1113 C1110 0.929 . S
S1114 N1115 1.613 . S
S1114 N1116 1.610 . S
N1115 S1114 1.613 . S
N1115 C1118 1.350 . S
N1116 S1114 1.610 . S
N1116 C1117 1.351 . S
C1117 C1111 1.428 . S
C1117 N1116 1.351 . S
C1117 C1118 1.434 . S
C1118 C1109 1.429 . S
C1118 N1115 1.350 . S
C1118 C1117 1.434 . S
C1119 C1120 1.369 . S
C1119 C1121 1.419 . S
C1119 H1123 0.930 . S
C1120 C1119 1.369 . S
C1120 C1129 1.429 . S
C1121 C1119 1.419 . S
C1121 C1122 1.363 . S
C1121 H1124 0.929 . S
C1122 C1121 1.363 . S
C1122 C1128 1.429 . S
H1123 C1119 0.930 . S
H1124 C1121 0.929 . S
S1125 N1126 1.613 . S
S1125 N1127 1.612 . S
N1126 S1125 1.613 . S
N1126 C1129 1.350 . S
N1127 S1125 1.612 . S
N1127 C1128 1.351 . S
C1128 C1122 1.429 . S
C1128 N1127 1.351 . S
C1128 C1129 1.435 . S
C1129 C1120 1.429 . S
C1129 N1126 1.350 . S
C1129 C1128 1.435 . S
C1130 C1131 1.369 . S
C1130 C1132 1.419 . S
C1130 H1134 0.930 . S
C1131 C1130 1.369 . S
C1131 C1140 1.429 . S
C1132 C1130 1.419 . S
C1132 C1133 1.363 . S
C1132 H1135 0.929 . S
C1133 C1132 1.363 . S
C1133 C1139 1.428 . S
H1134 C1130 0.930 . S
H1135 C1132 0.929 . S
S1136 N1137 1.613 . S
S1136 N1138 1.610 . S
N1137 S1136 1.613 . S
N1137 C1140 1.350 . S
N1138 S1136 1.610 . S
N1138 C1139 1.351 . S
C1139 C1133 1.428 . S
C1139 N1138 1.351 . S
C1139 C1140 1.434 . S
C1140 C1131 1.429 . S
C1140 N1137 1.350 . S
C1140 C1139 1.434 . S
C1141 C1142 1.369 . S
C1141 C1143 1.419 . S
C1141 H1145 0.930 . S
C1142 C1141 1.369 . S
C1142 C1151 1.429 1_554 S
C1143 C1141 1.419 . S
C1143 C1144 1.363 . S
C1143 H1146 0.929 . S
C1144 C1143 1.363 . S
C1144 C1150 1.428 1_554 S
H1145 C1141 0.930 . S
H1146 C1143 0.929 . S
S1147 N1148 1.613 . S
S1147 N1149 1.610 . S
N1148 S1147 1.613 . S
N1148 C1151 1.350 . S
N1149 S1147 1.610 . S
N1149 C1150 1.351 . S
C1150 C1144 1.428 1_556 S
C1150 N1149 1.351 . S
C1150 C1151 1.434 . S
C1151 C1142 1.429 1_556 S
C1151 N1148 1.350 . S
C1151 C1150 1.434 . S
C1152 C1153 1.369 . S
C1152 C1154 1.419 . S
C1152 H1156 0.930 . S
C1153 C1152 1.369 . S
C1153 C1162 1.429 . S
C1154 C1152 1.419 . S
C1154 C1155 1.363 . S
C1154 H1157 0.929 . S
C1155 C1154 1.363 . S
C1155 C1161 1.428 . S
H1156 C1152 0.930 . S
H1157 C1154 0.929 . S
S1158 N1159 1.613 . S
S1158 N1160 1.610 . S
N1159 S1158 1.613 . S
N1159 C1162 1.350 . S
N1160 S1158 1.610 . S
N1160 C1161 1.351 . S
C1161 C1155 1.428 . S
C1161 N1160 1.351 . S
C1161 C1162 1.434 . S
C1162 C1153 1.429 . S
C1162 N1159 1.350 . S
C1162 C1161 1.434 . S
C1163 C1164 1.369 . S
C1163 C1165 1.419 . S
C1163 H1167 0.930 . S
C1164 C1163 1.369 . S
C1164 C1173 1.429 . S
C1165 C1163 1.419 . S
C1165 C1166 1.363 . S
C1165 H1168 0.929 . S
C1166 C1165 1.363 . S
C1166 C1172 1.428 . S
H1167 C1163 0.930 . S
H1168 C1165 0.929 . S
S1169 N1170 1.613 . S
S1169 N1171 1.610 . S
N1170 S1169 1.613 . S
N1170 C1173 1.350 . S
N1171 S1169 1.610 . S
N1171 C1172 1.351 . S
C1172 C1166 1.428 . S
C1172 N1171 1.351 . S
C1172 C1173 1.434 . S
C1173 C1164 1.429 . S
C1173 N1170 1.350 . S
C1173 C1172 1.434 . S
C1174 C1175 1.369 . S
C1174 C1176 1.419 . S
C1174 H1178 0.930 . S
C1175 C1174 1.369 . S
C1175 C1184 1.429 . S
C1176 C1174 1.419 . S
C1176 C1177 1.363 . S
C1176 H1179 0.929 . S
C1177 C1176 1.363 . S
C1177 C1183 1.428 . S
H1178 C1174 0.930 . S
H1179 C1176 0.929 . S
S1180 N1181 1.613 . S
S1180 N1182 1.610 . S
N1181 S1180 1.613 . S
N1181 C1184 1.350 . S
N1182 S1180 1.610 . S
N1182 C1183 1.351 . S
C1183 C1177 1.428 . S
C1183 N1182 1.351 . S
C1183 C1184 1.434 . S
C1184 C1175 1.429 . S
C1184 N1181 1.350 . S
C1184 C1183 1.434 . S
C1185 C1186 1.369 . S
C1185 C1187 1.419 . S
C1185 H1189 0.930 . S
C1186 C1185 1.369 . S
C1186 C1195 1.429 . S
C1187 C1185 1.419 . S
C1187 C1188 1.363 . S
C1187 H1190 0.929 . S
C1188 C1187 1.363 . S
C1188 C1194 1.428 . S
H1189 C1185 0.930 . S
H1190 C1187 0.929 . S
S1191 N1192 1.613 . S
S1191 N1193 1.610 . S
N1192 S1191 1.613 . S
N1192 C1195 1.350 . S
N1193 S1191 1.610 . S
N1193 C1194 1.351 . S
C1194 C1188 1.428 . S
C1194 N1193 1.351 . S
C1194 C1195 1.434 . S
C1195 C1186 1.429 . S
C1195 N1192 1.350 . S
C1195 C1194 1.434 . S
C1196 C1197 1.369 . S
C1196 C1198 1.419 . S
C1196 H1200 0.930 . S
C1197 C1196 1.369 . S
C1197 C1206 1.429 . S
C1198 C1196 1.419 . S
C1198 C1199 1.363 . S
C1198 H1201 0.929 . S
C1199 C1198 1.363 . S
C1199 C1205 1.428 . S
H1200 C1196 0.930 . S
H1201 C1198 0.929 . S
S1202 N1203 1.613 . S
S1202 N1204 1.610 . S
N1203 S1202 1.613 . S
N1203 C1206 1.350 . S
N1204 S1202 1.610 . S
N1204 C1205 1.351 . S
C1205 C1199 1.428 . S
C1205 N1204 1.351 . S
C1205 C1206 1.434 . S
C1206 C1197 1.429 . S
C1206 N1203 1.350 . S
C1206 C1205 1.434 . S
C1207 C1208 1.369 . S
C1207 C1209 1.419 . S
C1207 H1211 0.930 . S
C1208 C1207 1.369 . S
C1208 C1217 1.429 . S
C1209 C1207 1.419 . S
C1209 C1210 1.363 . S
C1209 H1212 0.929 . S
C1210 C1209 1.363 . S
C1210 C1216 1.428 . S
H1211 C1207 0.930 . S
H1212 C1209 0.929 . S
S1213 N1214 1.613 . S
S1213 N1215 1.610 . S
N1214 S1213 1.613 . S
N1214 C1217 1.350 . S
N1215 S1213 1.610 . S
N1215 C1216 1.351 . S
C1216 C1210 1.428 . S
C1216 N1215 1.351 . S
C1216 C1217 1.434 . S
C1217 C1208 1.429 . S
C1217 N1214 1.350 . S
C1217 C1216 1.434 . S
C1218 C1219 1.369 . S
C1218 C1220 1.419 . S
C1218 H1222 0.930 . S
C1219 C1218 1.369 . S
C1219 C1228 1.429 . S
C1220 C1218 1.419 . S
C1220 C1221 1.363 . S
C1220 H1223 0.929 . S
C1221 C1220 1.363 . S
C1221 C1227 1.428 . S
H1222 C1218 0.930 . S
H1223 C1220 0.929 . S
S1224 N1225 1.613 . S
S1224 N1226 1.610 . S
N1225 S1224 1.613 . S
N1225 C1228 1.350 . S
N1226 S1224 1.610 . S
N1226 C1227 1.351 . S
C1227 C1221 1.428 . S
C1227 N1226 1.351 . S
C1227 C1228 1.434 . S
C1228 C1219 1.429 . S
C1228 N1225 1.350 . S
C1228 C1227 1.434 . S
C1229 C1230 1.369 . S
C1229 C1231 1.419 . S
C1229 H1233 0.930 . S
C1230 C1229 1.369 . S
C1230 C1239 1.429 . S
C1231 C1229 1.419 . S
C1231 C1232 1.363 . S
C1231 H1234 0.929 . S
C1232 C1231 1.363 . S
C1232 C1238 1.428 . S
H1233 C1229 0.930 . S
H1234 C1231 0.929 . S
S1235 N1236 1.613 . S
S1235 N1237 1.610 . S
N1236 S1235 1.613 . S
N1236 C1239 1.350 . S
N1237 S1235 1.610 . S
N1237 C1238 1.351 . S
C1238 C1232 1.428 . S
C1238 N1237 1.351 . S
C1238 C1239 1.434 . S
C1239 C1230 1.429 . S
C1239 N1236 1.350 . S
C1239 C1238 1.434 . S
C1240 C1241 1.369 . S
C1240 C1242 1.419 . S
C1240 H1244 0.930 . S
C1241 C1240 1.369 . S
C1241 C1250 1.429 . S
C1242 C1240 1.419 . S
C1242 C1243 1.363 . S
C1242 H1245 0.929 . S
C1243 C1242 1.363 . S
C1243 C1249 1.428 . S
H1244 C1240 0.930 . S
H1245 C1242 0.929 . S
S1246 N1247 1.613 . S
S1246 N1248 1.610 . S
N1247 S1246 1.613 . S
N1247 C1250 1.350 . S
N1248 S1246 1.610 . S
N1248 C1249 1.351 . S
C1249 C1243 1.428 . S
C1249 N1248 1.351 . S
C1249 C1250 1.434 . S
C1250 C1241 1.429 . S
C1250 N1247 1.350 . S
C1250 C1249 1.434 . S
C1251 C1252 1.369 . S
C1251 C1253 1.419 . S
C1251 H1255 0.930 . S
C1252 C1251 1.369 . S
C1252 C1261 1.429 . S
C1253 C1251 1.419 . S
C1253 C1254 1.363 . S
C1253 H1256 0.929 . S
C1254 C1253 1.363 . S
C1254 C1260 1.428 . S
H1255 C1251 0.930 . S
H1256 C1253 0.929 . S
S1257 N1258 1.613 . S
S1257 N1259 1.610 . S
N1258 S1257 1.613 . S
N1258 C1261 1.350 . S
N1259 S1257 1.610 . S
N1259 C1260 1.351 . S
C1260 C1254 1.428 . S
C1260 N1259 1.351 . S
C1260 C1261 1.434 . S
C1261 C1252 1.429 . S
C1261 N1258 1.350 . S
C1261 C1260 1.434 . S
C1262 C1263 1.369 . S
C1262 C1264 1.419 . S
C1262 H1266 0.930 . S
C1263 C1262 1.369 . S
C1263 C1272 1.429 . S
C1264 C1262 1.419 . S
C1264 C1265 1.363 . S
C1264 H1267 0.929 . S
C1265 C1264 1.363 . S
C1265 C1271 1.428 . S
H1266 C1262 0.930 . S
H1267 C1264 0.929 . S
S1268 N1269 1.613 . S
S1268 N1270 1.610 . S
N1269 S1268 1.613 . S
N1269 C1272 1.350 . S
N1270 S1268 1.610 . S
N1270 C1271 1.351 . S
C1271 C1265 1.428 . S
C1271 N1270 1.351 . S
C1271 C1272 1.434 . S
C1272 C1263 1.429 . S
C1272 N1269 1.350 . S
C1272 C1271 1.434 . S
C1273 C1274 1.369 . S
C1273 C1275 1.419 . S
C1273 H1277 0.930 . S
C1274 C1273 1.369 . S
C1274 C1283 1.429 . S
C1275 C1273 1.419 . S
C1275 C1276 1.363 . S
C1275 H1278 0.929 . S
C1276 C1275 1.363 . S
C1276 C1282 1.428 . S
H1277 C1273 0.930 . S
H1278 C1275 0.929 . S
S1279 N1280 1.613 . S
S1279 N1281 1.610 . S
N1280 S1279 1.613 . S
N1280 C1283 1.350 . S
N1281 S1279 1.610 . S
N1281 C1282 1.351 . S
C1282 C1276 1.428 . S
C1282 N1281 1.351 . S
C1282 C1283 1.434 . S
C1283 C1274 1.429 . S
C1283 N1280 1.350 . S
C1283 C1282 1.434 . S
C1284 C1285 1.369 . S
C1284 C1286 1.419 . S
C1284 H1288 0.930 . S
C1285 C1284 1.369 . S
C1285 C1294 1.429 . S
C1286 C1284 1.419 . S
C1286 C1287 1.363 . S
C1286 H1289 0.929 . S
C1287 C1286 1.363 . S
C1287 C1293 1.428 . S
H1288 C1284 0.930 . S
H1289 C1286 0.929 . S
S1290 N1291 1.613 . S
S1290 N1292 1.610 . S
N1291 S1290 1.613 . S
N1291 C1294 1.350 . S
N1292 S1290 1.610 . S
N1292 C1293 1.351 . S
C1293 C1287 1.428 . S
C1293 N1292 1.351 . S
C1293 C1294 1.434 . S
C1294 C1285 1.429 . S
C1294 N1291 1.350 . S
C1294 C1293 1.434 . S
C1295 C1296 1.369 . S
C1295 C1297 1.419 . S
C1295 H1299 0.930 . S
C1296 C1295 1.369 . S
C1296 C1305 1.429 . S
C1297 C1295 1.419 . S
C1297 C1298 1.363 . S
C1297 H1300 0.929 . S
C1298 C1297 1.363 . S
C1298 C1304 1.428 . S
H1299 C1295 0.930 . S
H1300 C1297 0.929 . S
S1301 N1302 1.613 . S
S1301 N1303 1.610 . S
N1302 S1301 1.613 . S
N1302 C1305 1.350 . S
N1303 S1301 1.610 . S
N1303 C1304 1.351 . S
C1304 C1298 1.428 . S
C1304 N1303 1.351 . S
C1304 C1305 1.434 . S
C1305 C1296 1.429 . S
C1305 N1302 1.350 . S
C1305 C1304 1.434 . S
C1306 C1307 1.369 . S
C1306 C1308 1.419 . S
C1306 H1310 0.930 . S
C1307 C1306 1.369 . S
C1307 C1316 1.429 . S
C1308 C1306 1.419 . S
C1308 C1309 1.363 . S
C1308 H1311 0.929 . S
C1309 C1308 1.363 . S
C1309 C1315 1.428 . S
H1310 C1306 0.930 . S
H1311 C1308 0.929 . S
S1312 N1313 1.613 . S
S1312 N1314 1.610 . S
N1313 S1312 1.613 . S
N1313 C1316 1.350 . S
N1314 S1312 1.610 . S
N1314 C1315 1.351 . S
C1315 C1309 1.428 . S
C1315 N1314 1.351 . S
C1315 C1316 1.434 . S
C1316 C1307 1.429 . S
C1316 N1313 1.350 . S
C1316 C1315 1.434 . S
C1317 C1318 1.369 . S
C1317 C1319 1.419 . S
C1317 H1321 0.930 . S
C1318 C1317 1.369 . S
C1318 C1327 1.429 . S
C1319 C1317 1.419 . S
C1319 C1320 1.363 . S
C1319 H1322 0.929 . S
C1320 C1319 1.363 . S
C1320 C1326 1.428 . S
H1321 C1317 0.930 . S
H1322 C1319 0.929 . S
S1323 N1324 1.613 . S
S1323 N1325 1.610 . S
N1324 S1323 1.613 . S
N1324 C1327 1.350 . S
N1325 S1323 1.610 . S
N1325 C1326 1.351 . S
C1326 C1320 1.428 . S
C1326 N1325 1.351 . S
C1326 C1327 1.434 . S
C1327 C1318 1.429 . S
C1327 N1324 1.350 . S
C1327 C1326 1.434 . S
C1328 C1329 1.369 . S
C1328 C1330 1.419 . S
C1328 H1332 0.930 . S
C1329 C1328 1.369 . S
C1329 C1338 1.429 . S
C1330 C1328 1.419 . S
C1330 C1331 1.363 . S
C1330 H1333 0.929 . S
C1331 C1330 1.363 . S
C1331 C1337 1.428 . S
H1332 C1328 0.930 . S
H1333 C1330 0.929 . S
S1334 N1335 1.613 . S
S1334 N1336 1.610 . S
N1335 S1334 1.613 . S
N1335 C1338 1.350 . S
N1336 S1334 1.610 . S
N1336 C1337 1.351 . S
C1337 C1331 1.428 . S
C1337 N1336 1.351 . S
C1337 C1338 1.434 . S
C1338 C1329 1.429 . S
C1338 N1335 1.350 . S
C1338 C1337 1.434 . S
C1339 C1340 1.369 . S
C1339 C1341 1.419 . S
C1339 H1343 0.930 . S
C1340 C1339 1.369 . S
C1340 C1349 1.429 . S
C1341 C1339 1.419 . S
C1341 C1342 1.363 . S
C1341 H1344 0.929 . S
C1342 C1341 1.363 . S
C1342 C1348 1.428 . S
H1343 C1339 0.930 . S
H1344 C1341 0.929 . S
S1345 N1346 1.613 . S
S1345 N1347 1.610 . S
N1346 S1345 1.613 . S
N1346 C1349 1.350 . S
N1347 S1345 1.610 . S
N1347 C1348 1.351 . S
C1348 C1342 1.428 . S
C1348 N1347 1.351 . S
C1348 C1349 1.434 . S
C1349 C1340 1.429 . S
C1349 N1346 1.350 . S
C1349 C1348 1.434 . S
C1350 C1351 1.369 . S
C1350 C1352 1.419 . S
C1350 H1354 0.930 . S
C1351 C1350 1.369 . S
C1351 C1360 1.429 . S
C1352 C1350 1.419 . S
C1352 C1353 1.363 . S
C1352 H1355 0.929 . S
C1353 C1352 1.363 . S
C1353 C1359 1.428 . S
H1354 C1350 0.930 . S
H1355 C1352 0.929 . S
S1356 N1357 1.613 . S
S1356 N1358 1.610 . S
N1357 S1356 1.613 . S
N1357 C1360 1.350 . S
N1358 S1356 1.610 . S
N1358 C1359 1.351 . S
C1359 C1353 1.428 . S
C1359 N1358 1.351 . S
C1359 C1360 1.434 . S
C1360 C1351 1.429 . S
C1360 N1357 1.350 . S
C1360 C1359 1.434 . S
C1361 C1362 1.369 . S
C1361 C1363 1.419 . S
C1361 H1365 0.930 . S
C1362 C1361 1.369 . S
C1362 C1371 1.429 . S
C1363 C1361 1.419 . S
C1363 C1364 1.363 . S
C1363 H1366 0.929 . S
C1364 C1363 1.363 . S
C1364 C1370 1.428 . S
H1365 C1361 0.930 . S
H1366 C1363 0.929 . S
S1367 N1368 1.613 . S
S1367 N1369 1.610 . S
N1368 S1367 1.613 . S
N1368 C1371 1.350 . S
N1369 S1367 1.610 . S
N1369 C1370 1.351 . S
C1370 C1364 1.428 . S
C1370 N1369 1.351 . S
C1370 C1371 1.434 . S
C1371 C1362 1.429 . S
C1371 N1368 1.350 . S
C1371 C1370 1.434 . S
C1372 C1373 1.369 . S
C1372 C1374 1.419 . S
C1372 H1376 0.930 . S
C1373 C1372 1.369 . S
C1373 C1382 1.429 . S
C1374 C1372 1.419 . S
C1374 C1375 1.363 . S
C1374 H1377 0.929 . S
C1375 C1374 1.363 . S
C1375 C1381 1.428 . S
H1376 C1372 0.930 . S
H1377 C1374 0.929 . S
S1378 N1379 1.613 . S
S1378 N1380 1.610 . S
N1379 S1378 1.613 . S
N1379 C1382 1.350 . S
N1380 S1378 1.610 . S
N1380 C1381 1.351 . S
C1381 C1375 1.428 . S
C1381 N1380 1.351 . S
C1381 C1382 1.434 . S
C1382 C1373 1.429 . S
C1382 N1379 1.350 . S
C1382 C1381 1.434 . S
C1383 C1384 1.369 . S
C1383 C1385 1.419 . S
C1383 H1387 0.930 . S
C1384 C1383 1.369 . S
C1384 C1393 1.429 . S
C1385 C1383 1.419 . S
C1385 C1386 1.363 . S
C1385 H1388 0.929 . S
C1386 C1385 1.363 . S
C1386 C1392 1.428 . S
H1387 C1383 0.930 . S
H1388 C1385 0.929 . S
S1389 N1390 1.613 . S
S1389 N1391 1.610 . S
N1390 S1389 1.613 . S
N1390 C1393 1.350 . S
N1391 S1389 1.610 . S
N1391 C1392 1.351 . S
C1392 C1386 1.428 . S
C1392 N1391 1.351 . S
C1392 C1393 1.434 . S
C1393 C1384 1.429 . S
C1393 N1390 1.350 . S
C1393 C1392 1.434 . S
C1394 C1395 1.369 . S
C1394 C1396 1.419 . S
C1394 H1398 0.930 . S
C1395 C1394 1.369 . S
C1395 C1404 1.429 . S
C1396 C1394 1.419 . S
C1396 C1397 1.363 . S
C1396 H1399 0.929 . S
C1397 C1396 1.363 . S
C1397 C1403 1.428 . S
H1398 C1394 0.930 . S
H1399 C1396 0.929 . S
S1400 N1401 1.613 . S
S1400 N1402 1.610 . S
N1401 S1400 1.613 . S
N1401 C1404 1.350 . S
N1402 S1400 1.610 . S
N1402 C1403 1.351 . S
C1403 C1397 1.428 . S
C1403 N1402 1.351 . S
C1403 C1404 1.434 . S
C1404 C1395 1.429 . S
C1404 N1401 1.350 . S
C1404 C1403 1.434 . S
C1405 C1406 1.369 . S
C1405 C1407 1.419 . S
C1405 H1409 0.930 . S
C1406 C1405 1.369 . S
C1406 C1415 1.429 . S
C1407 C1405 1.419 . S
C1407 C1408 1.363 . S
C1407 H1410 0.929 . S
C1408 C1407 1.363 . S
C1408 C1414 1.428 . S
H1409 C1405 0.930 . S
H1410 C1407 0.929 . S
S1411 N1412 1.613 . S
S1411 N1413 1.610 . S
N1412 S1411 1.613 . S
N1412 C1415 1.350 . S
N1413 S1411 1.610 . S
N1413 C1414 1.351 . S
C1414 C1408 1.428 . S
C1414 N1413 1.351 . S
C1414 C1415 1.434 . S
C1415 C1406 1.429 . S
C1415 N1412 1.350 . S
C1415 C1414 1.434 . S
C627 C354 1.531 . S
C625 C308 1.621 . S
C636 C282 1.462 . S
C638 C348 1.375 . S
C649 C316 1.474 . S
C647 C269 1.580 . S
C658 C295 1.798 . S
C660 C330 1.635 . S
C671 C368 1.884 . S
C669 C217 1.991 . S
C682 C455 1.540 . S
C680 C230 1.579 . S
C691 C243 2.070 . S
C693 C382 1.931 . S
C704 C450 1.122 . S
C702 C256 1.143 . S
C713 C165 2.024 . S
C715 C406 1.934 . S
C726 C461 1.433 . S
C724 C178 1.508 . S
C735 C191 2.022 . S
C737 C400 1.902 . S
C746 C204 1.384 . S
C748 C446 1.340 . S
C759 C502 1.363 . S
C757 C152 1.419 . S
C768 C126 1.490 . S
C770 C513 1.465 . S
C779 C113 1.285 . S
C781 C498 1.242 . S
C792 C507 1.673 . S
C790 C139 1.688 . S
C801 C61 1.671 . S
C803 C552 1.576 . S
C812 C74 1.038 . S
C814 C611 1.022 . S
C823 C87 1.787 . S
C825 C568 1.689 . S
C834 C100 1.162 . S
C836 C606 1.125 . S
C847 C570 1.678 . S
C845 C9 1.821 . S
C858 C617 0.839 . S
C856 C22 0.841 . S
C867 C35 1.665 . S
C869 C546 1.595 . S
C880 C602 1.294 . S
C878 C48 1.364 . S
C891 C338 1.546 . S
C889 C4 1.378 . S
C900 C21 1.282 . S
C902 C342 1.283 . S
C911 C34 1.765 . S
C913 C362 1.707 . S
C922 C43 0.925 . S
C924 C357 1.057 . S
C933 C56 1.408 . S
C935 C360 1.560 1_655 S
C946 C346 1.212 . S
C944 C69 1.052 1_545 S
C955 C86 1.734 . S
C957 C344 1.666 . S
C968 C351 1.066 . S
C966 C99 1.037 . S
C979 C414 1.551 . S
C977 C47 1.605 . S
C988 C8 1.916 . S
C990 C464 1.811 . S
C1001 C412 1.137 . S
C999 C17 1.019 . S
C1012 C448 1.631 . S
C1010 C30 1.441 . S
C1021 C73 1.374 . S
C1023 C390 1.331 . S
C1034 C466 1.675 . S
C1032 C82 1.545 . S
C1045 C396 1.324 . S
C1043 C95 1.144 . S
C1056 C442 1.768 . S
C1054 C60 1.877 . S
C1067 C434 1.447 . S
C1065 C112 1.441 . S
C1076 C125 1.301 . S
C1078 C458 1.341 . S
C1089 C394 1.227 . S
C1087 C108 1.045 . S
C1100 C420 1.491 1_556 S
C1098 C138 1.516 . S
C1109 C147 1.008 . S
C1111 C398 1.205 . S
C1120 C151 1.564 . S
C1122 C452 1.547 . S
C1133 C409 1.415 . S
C1131 C121 1.157 . S
C1144 C403 1.453 . S
C1142 C134 1.205 1_554 S
C1155 C486 1.808 . S
C1153 C160 1.598 . S
C1166 C518 1.444 . S
C1164 C177 1.417 . S
C1175 C190 1.974 . S
C1177 C472 1.898 . S
C1188 C516 1.203 . S
C1186 C199 1.045 . S
C1199 C504 1.757 . S
C1197 C212 1.554 . S
C1208 C225 1.154 . S
C1210 C500 1.405 . S
C1219 C242 1.983 . S
C1221 C510 1.955 . S
C1232 C494 1.181 . S
C1230 C255 1.175 . S
C1243 C559 1.462 . S
C1241 C203 1.454 . S
C1252 C164 1.704 . S
C1254 C620 1.662 . S
C1265 C554 1.133 . S
C1263 C173 0.951 . S
C1276 C604 1.614 . S
C1274 C186 1.350 . S
C1287 C550 1.257 . S
C1285 C229 1.240 . S
C1296 C238 1.294 . S
C1298 C622 1.540 . S
C1309 C565 1.251 . S
C1307 C251 1.036 . S
C1320 C598 1.574 . S
C1318 C216 1.631 . S
C1331 C590 1.559 . S
C1329 C268 1.603 . S
C1340 C281 1.671 . S
C1342 C614 1.598 . S
C1353 C556 1.401 . S
C1351 C264 1.277 . S
C1362 C294 1.947 . S
C1364 C576 1.809 . S
C1375 C538 1.448 . S
C1373 C303 1.326 . S
C1386 C608 1.671 . S
C1384 C307 1.738 . S
C1397 C524 1.428 . S
C1395 C277 1.284 . S
C1406 C290 1.284 . S
C1408 C562 1.410 . S
