# Generated by pormake.
# Topology tsx, (6,3)-cn, num edge types: 1
# Building blocks:
#     Node 0, Type 0, BuildingBlock: CIFDUS_clean_sbu_1, # of connection points: 6
#     Node 1, Type 0, BuildingBlock: CIFDUS_clean_sbu_1, # of connection points: 6
#     Node 2, Type 1, BuildingBlock: CUQRIR_clean_linker_1, # of connection points: 3
#     Node 3, Type 1, BuildingBlock: CUQRIR_clean_linker_1, # of connection points: 3
#     Node 4, Type 1, BuildingBlock: CUQRIR_clean_linker_1, # of connection points: 3
#     Node 5, Type 1, BuildingBlock: CUQRIR_clean_linker_1, # of connection points: 3
#     Edge 6, Type (0, 1), BuildingBlock: FUNLAD_clean_linker_1, # of connection points: 2
#     Edge 7, Type (0, 1), BuildingBlock: FUNLAD_clean_linker_1, # of connection points: 2
#     Edge 8, Type (0, 1), BuildingBlock: FUNLAD_clean_linker_1, # of connection points: 2
#     Edge 9, Type (0, 1), BuildingBlock: FUNLAD_clean_linker_1, # of connection points: 2
#     Edge 10, Type (0, 1), BuildingBlock: FUNLAD_clean_linker_1, # of connection points: 2
#     Edge 11, Type (0, 1), BuildingBlock: FUNLAD_clean_linker_1, # of connection points: 2
#     Edge 12, Type (0, 1), BuildingBlock: FUNLAD_clean_linker_1, # of connection points: 2
#     Edge 13, Type (0, 1), BuildingBlock: FUNLAD_clean_linker_1, # of connection points: 2
#     Edge 14, Type (0, 1), BuildingBlock: FUNLAD_clean_linker_1, # of connection points: 2
#     Edge 15, Type (0, 1), BuildingBlock: FUNLAD_clean_linker_1, # of connection points: 2
#     Edge 16, Type (0, 1), BuildingBlock: FUNLAD_clean_linker_1, # of connection points: 2
#     Edge 17, Type (0, 1), BuildingBlock: FUNLAD_clean_linker_1, # of connection points: 2
# Relax obj value: 0.157
# Max RMSD: 0.175
# Mean RMSD: 0.161
data_MOF--net-tsx--node1-CIFDUS_clean_sbu_1--node2-CUQRIR_clean_linker_1--edge1-FUNLAD_clean_linker_1
_symmetry_space_group_name_H-M    P1
_symmetry_Int_Tables_number       1
_symmetry_cell_setting            triclinic
loop_
_symmetry_equiv_pos_as_xyz
'x, y, z'
_cell_length_a     16.898947
_cell_length_b     21.615999
_cell_length_c     34.209633
_cell_angle_alpha  86.399267
_cell_angle_beta   93.537886
_cell_angle_gamma 91.975254
loop_
_atom_site_label
_atom_site_type_symbol
_atom_site_fract_x
_atom_site_fract_y
_atom_site_fract_z
_atom_type_partial_charge
O0 O 1.01982 0.11285 0.98409 0.0
Mn1 Mn 0.08753 0.03187 0.98606 0.0
O2 O 0.90694 0.09147 0.94803 0.0
Mn3 Mn 0.93266 0.01362 0.93385 0.0
O4 O 0.1534 0.94982 0.9853 0.0
O5 O 0.18529 0.08511 0.00013 0.0
Mn6 Mn 0.24827 0.03911 0.03226 0.0
O7 O 0.06919 0.01499 0.04557 0.0
O8 O 0.27866 0.97448 0.00519 0.0
O9 O 0.10831 0.04721 0.92617 0.0
O10 O 0.99798 0.01333 0.89259 0.0
O11 O 0.30003 0.11464 0.02728 0.0
O12 O 0.19164 0.01629 0.07579 0.0
C13 C 0.93415 0.93727 0.97757 0.0
C14 C 0.9513 0.12818 0.96819 0.0
C15 C 0.22768 0.9375 -0.01006 0.0
C16 C 0.23807 0.1295 0.00499 0.0
C17 C 0.11653 0.00797 0.07626 0.0
C18 C 0.06995 0.03297 0.8941 0.0
O19 O 0.98875 0.98022 0.97425 0.0
O20 O 0.87645 0.9432 0.95104 0.0
O21 O 0.54755 0.66445 0.50221 0.0
Mn22 Mn 0.59644 0.57766 0.49565 0.0
O23 O 0.42007 0.65748 0.47898 0.0
Mn24 Mn 0.42561 0.58195 0.4572 0.0
O25 O 0.64413 0.49138 0.48701 0.0
O26 O 0.70452 0.61868 0.50258 0.0
Mn27 Mn 0.77107 0.56768 0.52834 0.0
O28 O 0.59764 0.55651 0.55619 0.0
O29 O 0.77633 0.50164 0.49733 0.0
O30 O 0.59822 0.59605 0.4346 0.0
O31 O 0.47245 0.58432 0.40959 0.0
O32 O 0.82647 0.64198 0.51965 0.0
O33 O 0.72718 0.54899 0.57633 0.0
C34 C 0.42857 0.49882 0.49513 0.0
C35 C 0.47839 0.68736 0.49511 0.0
C36 C 0.71454 0.47133 0.4854 0.0
C37 C 0.7593 0.6617 0.50433 0.0
C38 C 0.65352 0.54584 0.5829 0.0
C39 C 0.5465 0.59296 0.40545 0.0
O40 O 0.48777 0.53723 0.49015 0.0
O41 O 0.36465 0.51445 0.47457 0.0
C42 C 0.08593 0.07145 0.42943 0.0
N43 N 0.12131 0.03475 0.40554 0.0
N44 N 1.03536 0.1099 0.4085 0.0
C45 C 0.09617 0.06673 0.47328 0.0
C46 C 0.04298 0.09646 0.37079 0.0
N47 N 0.09231 0.04851 0.36922 0.0
C48 C 1.01796 0.13933 0.33611 0.0
H49 H 0.11231 0.0193 0.48449 0.0
H50 H 1.04047 0.07827 0.48568 0.0
H51 H 0.14317 0.10034 0.48299 0.0
H52 H 1.02101 0.18793 0.34469 0.0
H53 H 0.95629 0.12726 0.32561 0.0
H54 H 0.05718 0.13677 0.31157 0.0
C55 C 0.06159 0.09967 0.57301 0.0
N56 N 0.12515 0.11518 0.59688 0.0
N57 N 0.04468 0.03784 0.57721 0.0
C58 C 1.01631 0.14564 0.54633 0.0
C59 C 0.09921 0.01712 0.60523 0.0
N60 N 0.14716 0.06425 0.61786 0.0
C61 C 0.10549 0.95041 0.62015 0.0
H62 H 0.96611 0.1235 0.52961 0.0
H63 H 0.057 0.17004 0.52581 0.0
H64 H 0.99298 0.18129 0.56417 0.0
H65 H 0.10119 0.91964 0.59531 0.0
H66 H 0.05538 0.93774 0.63887 0.0
H67 H 0.16236 0.94241 0.63735 0.0
C68 C 0.51398 0.50702 0.92104 0.0
N69 N 0.5454 0.47011 0.89547 0.0
N70 N 0.44941 0.53608 0.90377 0.0
C71 C 0.53998 0.50885 0.96373 0.0
C72 C 0.44205 0.51484 0.86746 0.0
N73 N 0.4997 0.47501 0.86245 0.0
C74 C 0.37965 0.53544 0.83642 0.0
H75 H 0.55354 0.4616 0.97629 0.0
H76 H 0.49362 0.5276 0.98056 0.0
H77 H 0.59411 0.53902 0.96699 0.0
H78 H 0.39066 0.51967 0.80709 0.0
H79 H 0.37713 0.5868 0.83466 0.0
H80 H 0.32087 0.51663 0.84499 0.0
C81 C 0.53445 0.56922 0.0705 0.0
N82 N 0.59944 0.58417 0.09362 0.0
N83 N 0.50591 0.51135 0.08061 0.0
C84 C 0.49672 0.61291 0.03954 0.0
C85 C 0.55462 0.493 0.11201 0.0
N86 N 0.61017 0.53786 0.12065 0.0
C87 C 0.54627 0.43237 0.13567 0.0
H88 H 0.44214 0.59224 0.02557 0.0
H89 H 0.53982 0.62583 0.01701 0.0
H90 H 0.48172 0.65612 0.05295 0.0
H91 H 0.52905 0.39411 0.11654 0.0
H92 H 0.49997 0.43592 0.15695 0.0
H93 H 0.60299 0.42086 0.15209 0.0
H94 H 0.27612 0.21395 0.97419 0.0
C95 C 0.22875 0.1949 -0.00816 0.0
H96 H 0.15192 0.21236 0.03499 0.0
H97 H 0.3864 0.39377 0.12378 0.0
H98 H 0.34445 0.31974 0.17522 0.0
H99 H 0.25481 0.2312 0.15941 0.0
H100 H 0.20661 0.21643 0.09282 0.0
C101 C 0.19652 0.23243 0.01607 0.0
C102 C 0.23967 0.29147 0.02699 0.0
C103 C 0.26822 0.29858 0.06654 0.0
C104 C 0.32283 0.34817 0.07565 0.0
C105 C 0.34858 0.35519 0.11526 0.0
C106 C 0.32403 0.31346 0.14506 0.0
C107 C 0.27342 0.26375 0.13617 0.0
C108 C 0.24583 0.25604 0.09751 0.0
H109 H 0.37663 0.50654 0.06963 0.0
C110 C 0.43124 0.48233 0.06724 0.0
H111 H 0.48313 0.40273 0.04932 0.0
H112 H 0.17806 0.30315 0.9515 0.0
H113 H 0.21825 0.37958 0.90081 0.0
H114 H 0.31947 0.46008 0.91568 0.0
H115 H 0.3809 0.46641 0.98199 0.0
C116 C 0.42805 0.42554 0.05299 0.0
C117 C 0.35224 0.38869 0.04531 0.0
C118 C 0.31739 0.38544 0.00669 0.0
C119 C 0.25988 0.33772 -0.00225 0.0
C120 C 0.22405 0.33703 0.95931 0.0
C121 C 0.24605 0.38083 0.93013 0.0
C122 C 0.30334 0.42638 0.9386 0.0
C123 C 0.33859 0.42908 0.97643 0.0
H124 H 0.32252 0.87296 0.98521 0.0
C125 C 0.25911 0.8786 0.97895 0.0
H126 H 0.15388 0.83533 0.95559 0.0
H127 H 0.47774 0.70803 0.89092 0.0
H128 H 0.49432 0.8059 0.85342 0.0
H129 H 0.4032 0.89114 0.85925 0.0
H130 H 0.2949 0.87873 0.90268 0.0
C131 C 0.21765 0.83293 0.96142 0.0
C132 C 0.26083 0.77729 0.95124 0.0
C133 C 0.32299 0.78447 0.92504 0.0
C134 C 0.37494 0.73503 0.92137 0.0
C135 C 0.43679 0.74403 0.89521 0.0
C136 C 0.44688 0.79998 0.87332 0.0
C137 C 0.39569 0.84797 0.87664 0.0
C138 C 0.33418 0.84044 0.90195 0.0
H139 H 0.33277 0.5738 0.90859 0.0
C140 C 0.39485 0.57722 0.91891 0.0
H141 H 0.4821 0.63457 0.94571 0.0
H142 H 0.14108 0.74531 -0.00059 0.0
H143 H 0.1191 0.64531 0.03412 0.0
H144 H 0.20902 0.5593 0.0279 0.0
H145 H 0.32089 0.57257 0.98686 0.0
C146 C 0.41916 0.62651 0.93877 0.0
C147 C 0.36361 0.67765 0.94309 0.0
C148 C 0.29797 0.66895 0.96713 0.0
C149 C 0.24638 0.71879 0.97103 0.0
C150 C 0.18211 0.70913 -0.00442 0.0
C151 C 0.1688 0.65196 0.01562 0.0
C152 C 0.21933 0.60351 0.01207 0.0
C153 C 0.28331 0.61169 0.98827 0.0
H154 H 0.9828 0.88133 0.03033 0.0
C155 C 0.93283 0.88676 0.009 0.0
H156 H 0.81935 0.85401 0.98888 0.0
H157 H 0.80778 0.58123 0.04283 0.0
H158 H 0.88984 0.5693 0.98835 0.0
H159 H 0.96002 0.6596 0.95714 0.0
H160 H 0.94745 0.76291 0.98018 0.0
C161 C 0.86864 0.84794 0.01058 0.0
C162 C 0.859 0.79389 0.03925 0.0
C163 C 0.86875 0.73368 0.02667 0.0
C164 C 0.82948 0.68152 0.04533 0.0
C165 C 0.83723 0.62244 0.03048 0.0
C166 C 0.88409 0.61492 -0.00094 0.0
C167 C 0.92344 0.66577 0.98141 0.0
C168 C 0.91556 0.72468 -0.00525 0.0
H169 H 0.62292 0.68193 0.07616 0.0
C170 C 0.64954 0.63949 0.0886 0.0
H171 H 0.75651 0.59331 0.10097 0.0
H172 H 0.84482 0.90055 0.07598 0.0
H173 H 0.77753 0.91181 0.13597 0.0
H174 H 0.71373 0.8213 0.17013 0.0
H175 H 0.7153 0.71892 0.14426 0.0
C176 C 0.72934 0.63715 0.09218 0.0
C177 C 0.78132 0.68982 0.07712 0.0
C178 C 0.78115 0.74888 0.0931 0.0
C179 C 0.81951 0.80102 0.07389 0.0
C180 C 0.81642 0.85976 0.08959 0.0
C181 C 0.7784 0.86668 0.12398 0.0
C182 C 0.74231 0.81564 0.1432 0.0
C183 C 0.74326 0.75732 0.128 0.0
H184 H 0.96232 0.22682 0.98444 0.0
C185 C 0.92315 0.19242 0.97082 0.0
H186 H 0.81396 0.17475 0.9394 0.0
H187 H 0.68336 0.42743 0.00116 0.0
H188 H 0.70668 0.38235 0.06735 0.0
H189 H 0.78315 0.28723 0.08005 0.0
H190 H 0.83711 0.23681 0.02658 0.0
C191 C 0.85172 0.20906 0.95398 0.0
C192 C 0.82307 0.27398 0.9487 0.0
C193 C 0.79292 0.30349 0.98029 0.0
C194 C 0.74775 0.3581 0.97284 0.0
C195 C 0.71732 0.38581 0.00496 0.0
C196 C 0.73043 0.36044 0.04317 0.0
C197 C 0.77353 0.3069 0.05032 0.0
C198 C 0.80427 0.27843 0.01936 0.0
H199 H 0.59613 0.38025 0.88913 0.0
C200 C 0.60538 0.4239 0.90314 0.0
H201 H 0.68489 0.47693 0.93866 0.0
H202 H 0.88181 0.23462 0.88224 0.0
H203 H 0.86282 0.28203 0.81622 0.0
H204 H 0.78661 0.3773 0.80352 0.0
H205 H 0.72881 0.42558 0.85667 0.0
C206 C 0.67298 0.43308 0.92539 0.0
C207 C 0.73136 0.38242 0.93372 0.0
C208 C 0.76763 0.35608 0.90258 0.0
C209 C 0.81274 0.30167 0.91004 0.0
C210 C 0.84647 0.27561 0.87817 0.0
C211 C 0.83647 0.30256 0.84018 0.0
C212 C 0.79355 0.35617 0.83303 0.0
C213 C 0.75993 0.38306 0.86377 0.0
H214 H 0.68581 0.74568 0.49408 0.0
C215 C 0.74585 0.72907 0.49813 0.0
H216 H 0.86782 0.75149 0.50668 0.0
H217 H 0.92268 0.02589 0.47473 0.0
H218 H 0.93676 0.99692 0.40777 0.0
H219 H 0.89019 0.89383 0.38731 0.0
H220 H 0.82736 0.8196 0.43337 0.0
C221 C 0.80808 0.76901 0.50364 0.0
C222 C 0.80327 0.83637 0.50972 0.0
C223 C 0.83887 0.87929 0.48271 0.0
C224 C 0.86746 0.93815 0.49477 0.0
C225 C 0.90257 0.98007 0.46711 0.0
C226 C 0.91041 0.96408 0.42872 0.0
C227 C 0.88391 0.90603 0.41715 0.0
C228 C 0.8485 0.86386 0.44376 0.0
H229 H 1.01762 0.95931 0.54142 0.0
C230 C 0.99259 0.99922 0.5534 0.0
H231 H 0.88709 0.04091 0.56561 0.0
H232 H 0.72113 0.77098 0.56616 0.0
H233 H 0.6983 0.80337 0.63095 0.0
H234 H 0.74877 0.90519 0.65204 0.0
H235 H 0.82257 0.97515 0.60842 0.0
C236 C 0.91337 1.00448 0.55078 0.0
C237 C 0.86182 0.95353 0.53417 0.0
C238 C 0.81576 0.91443 0.55939 0.0
C239 C 0.7865 0.85561 0.54717 0.0
C240 C 0.74463 0.816 0.57379 0.0
C241 C 0.73096 0.83412 0.61109 0.0
C242 C 0.75936 0.89146 0.62296 0.0
C243 C 0.80169 0.93119 0.59763 0.0
H244 H 0.67443 0.38724 0.45475 0.0
C245 C 0.72506 0.41073 0.46912 0.0
H246 H 0.84787 0.40831 0.48553 0.0
H247 H 0.84795 0.11633 0.46659 0.0
H248 H 0.7898 0.10849 0.53013 0.0
H249 H 0.74354 0.20162 0.55896 0.0
H250 H 0.75266 0.30281 0.52386 0.0
C251 C 0.79684 0.38536 0.47116 0.0
C252 C 0.81228 0.32802 0.45187 0.0
C253 C 0.80725 0.26975 0.47302 0.0
C254 C 0.83609 0.21641 0.45701 0.0
C255 C 0.82904 0.1584 0.47818 0.0
C256 C 0.79554 0.15333 0.5145 0.0
C257 C 0.76917 0.20577 0.53065 0.0
C258 C 0.77486 0.26351 0.51028 0.0
H259 H 1.01075 0.18045 0.4488 0.0
C260 C 0.98785 0.15647 0.42328 0.0
H261 H 0.89007 0.14495 0.38238 0.0
H262 H 0.82429 0.43228 0.40253 0.0
H263 H 0.8727 0.43805 0.33699 0.0
H264 H 0.9147 0.34396 0.30766 0.0
H265 H 0.91057 0.24405 0.34427 0.0
C266 C 0.91546 0.1699 0.4069 0.0
C267 C 0.87072 0.22189 0.42026 0.0
C268 C 0.86785 0.27884 0.39741 0.0
C269 C 0.84062 0.33247 0.41368 0.0
C270 C 0.84369 0.38991 0.39139 0.0
C271 C 0.87121 0.39386 0.35373 0.0
C272 C 0.89497 0.34093 0.33725 0.0
C273 C 0.89327 0.28397 0.35869 0.0
H274 H 0.4868 0.42239 0.532 0.0
C275 C 0.43045 0.4413 0.52096 0.0
H276 H 0.30573 0.43056 0.51668 0.0
H277 H 0.25501 0.14909 0.52105 0.0
H278 H 0.26872 0.16705 0.45099 0.0
H279 H 0.32327 0.26682 0.42371 0.0
H280 H 0.36437 0.34931 0.46638 0.0
C281 C 0.36141 0.41091 0.5282 0.0
C282 C 0.3544 0.3466 0.54589 0.0
C283 C 0.33277 0.29828 0.52078 0.0
C284 C 0.30138 0.24084 0.53649 0.0
C285 C 0.27871 0.19382 0.5106 0.0
C286 C 0.2865 0.20342 0.47035 0.0
C287 C 0.31714 0.25963 0.45499 0.0
C288 C 0.34013 0.30665 0.47976 0.0
H289 H 0.13726 0.21607 0.58829 0.0
C290 C 0.16929 0.17353 0.59477 0.0
H291 H 0.28031 0.13203 0.59446 0.0
H292 H 0.40169 0.42598 0.60233 0.0
H293 H 0.39315 0.40642 0.67287 0.0
H294 H 0.33895 0.30647 0.70021 0.0
H295 H 0.29239 0.2255 0.65718 0.0
C296 C 0.24854 0.17503 0.59245 0.0
C297 C 0.29107 0.23206 0.57727 0.0
C298 C 0.31919 0.27821 0.60276 0.0
C299 C 0.35099 0.3357 0.58701 0.0
C300 C 0.37693 0.38168 0.61294 0.0
C301 C 0.37258 0.37091 0.65338 0.0
C302 C 0.34202 0.3146 0.66878 0.0
C303 C 0.31533 0.26864 0.64387 0.0
H304 H 0.51881 0.78518 0.50216 0.0
C305 C 0.46709 0.75399 0.50017 0.0
H306 H 0.34216 0.74565 0.49319 0.0
H307 H 0.24998 0.01711 0.51558 0.0
H308 H 0.26514 0.98728 0.585 0.0
H309 H 0.33075 0.89055 0.60849 0.0
H310 H 0.384 0.82377 0.56231 0.0
C311 C 0.3938 0.77697 0.49482 0.0
C312 C 0.3781 0.8428 0.48282 0.0
C313 C 0.34831 0.88156 0.50992 0.0
C314 C 0.30957 0.93693 0.49626 0.0
C315 C 0.27931 0.9743 0.5241 0.0
C316 C 0.28756 0.95767 0.56413 0.0
C317 C 0.32477 0.90328 0.57736 0.0
C318 C 0.35474 0.86535 0.55066 0.0
H319 H 0.1715 0.9432 0.40496 0.0
C320 C 0.17948 0.98872 0.41669 0.0
H321 H 0.25231 0.04772 0.45116 0.0
H322 H 0.43958 0.78369 0.42333 0.0
H323 H 0.43608 0.81865 0.35455 0.0
H324 H 0.37385 0.91697 0.33137 0.0
H325 H 0.31358 0.98031 0.37693 0.0
C326 C 0.24361 1.0016 0.44052 0.0
C327 C 0.29958 0.95246 0.45535 0.0
C328 C 0.33831 0.91783 0.42876 0.0
C329 C 0.37657 0.86235 0.4424 0.0
C330 C 0.41065 0.82667 0.41479 0.0
C331 C 0.40921 0.84629 0.37517 0.0
C332 C 0.37404 0.90157 0.3621 0.0
C333 C 0.33907 0.93718 0.38847 0.0
H334 H 1.02632 0.01159 0.12017 0.0
C335 C 0.08367 0.99367 0.11473 0.0
H336 H 0.18616 0.94861 0.13838 0.0
H337 H 0.17734 0.09967 0.28977 0.0
H338 H 0.28121 0.15449 0.256 0.0
H339 H 0.31302 0.12757 0.18994 0.0
H340 H 0.23859 0.04658 0.15709 0.0
C341 C 0.12889 0.96642 0.14417 0.0
C342 C 0.11458 0.9757 0.18559 0.0
C343 C 0.1618 0.02076 0.20543 0.0
C344 C 0.14594 0.03403 0.24428 0.0
C345 C 0.18901 0.08403 0.2615 0.0
C346 C 0.24875 0.11691 0.24211 0.0
C347 C 0.26645 0.10197 0.2049 0.0
C348 C 0.22326 0.05501 0.18648 0.0
H349 H 0.17406 1.00326 0.33365 0.0
C350 C 0.11414 0.01952 0.33475 0.0
H351 H 1.00127 0.02669 0.30583 0.0
H352 H 1.01586 0.88534 0.15568 0.0
H353 H 0.91305 0.82663 0.18978 0.0
H354 H 0.88971 0.8448 0.25857 0.0
H355 H 0.96852 0.92187 0.29361 0.0
C356 C 0.06288 0.01573 0.30329 0.0
C357 C 0.08578 0.99905 0.26408 0.0
C358 C 1.04035 0.95254 0.24439 0.0
C359 C 0.05422 0.9414 0.20491 0.0
C360 C 1.00736 0.89559 0.18567 0.0
C361 C 0.94837 0.86149 0.20492 0.0
C362 C 0.93522 0.87176 0.24364 0.0
C363 C 0.98064 0.91646 0.26334 0.0
H364 H 0.07161 0.0234 0.8311 0.0
C365 C 0.10799 0.0381 0.85646 0.0
H366 H 0.22121 0.07523 0.87503 0.0
H367 H 0.2183 0.93763 0.70447 0.0
H368 H 0.24235 0.84461 0.74695 0.0
H369 H 0.253 0.84969 0.81897 0.0
H370 H 0.24084 0.94831 0.84893 0.0
C371 C 0.18269 0.05851 0.85111 0.0
C372 C 0.21026 0.05963 0.81057 0.0
C373 C 0.22098 1.00276 0.79355 0.0
C374 C 0.21399 0.99977 0.75217 0.0
C375 C 0.222 0.94195 0.73586 0.0
C376 C 0.2362 0.8885 0.75989 0.0
C377 C 0.24238 0.8914 0.80046 0.0
C378 C 0.23494 0.94785 0.81727 0.0
H379 H 0.2512 0.08791 0.6565 0.0
C380 C 0.19312 0.06491 0.65483 0.0
H381 H 0.0995 0.02526 0.68644 0.0
H382 H 0.20988 0.17726 0.83429 0.0
H383 H 0.19325 0.27169 0.79205 0.0
H384 H 0.17693 0.26686 0.72007 0.0
H385 H 0.17732 0.16835 0.68988 0.0
C386 C 0.15892 0.04612 0.68807 0.0
C387 C 0.1962 0.05365 0.72803 0.0
C388 C 0.19698 0.11208 0.74485 0.0
C389 C 0.20517 0.11496 0.78635 0.0
C390 C 0.20331 0.17315 0.80287 0.0
C391 C 0.19396 0.22738 0.779 0.0
C392 C 0.18483 0.22466 0.73846 0.0
C393 C 0.18547 0.16775 0.72145 0.0
H394 H 0.68488 0.5244 0.64524 0.0
C395 C 0.63483 0.52899 0.62375 0.0
H396 H 0.50944 0.52382 0.61575 0.0
H397 H 0.60701 0.36975 0.78667 0.0
H398 H 0.62699 0.28473 0.74544 0.0
H399 H 0.61102 0.29951 0.67326 0.0
H400 H 0.57574 0.39973 0.64183 0.0
C401 C 0.56136 0.51876 0.63591 0.0
C402 C 0.55152 0.5053 0.67855 0.0
C403 C 0.57017 0.44625 0.69648 0.0
C404 C 0.57751 0.43735 0.73809 0.0
C405 C 0.59904 0.37856 0.75521 0.0
C406 C 0.61094 0.32951 0.73188 0.0
C407 C 0.60217 0.33788 0.69122 0.0
C408 C 0.58234 0.39557 0.67355 0.0
H409 H 0.4691 0.42642 0.80976 0.0
C410 C 0.51622 0.45205 0.82543 0.0
H411 H 0.61619 0.51088 0.82009 0.0
H412 H 0.50473 0.62142 0.65317 0.0
H413 H 0.47734 0.70512 0.69407 0.0
H414 H 0.48918 0.69005 0.76628 0.0
H415 H 0.52884 0.59172 0.79798 0.0
C416 C 0.57409 0.4799 0.80513 0.0
C417 C 0.56488 0.48736 0.76158 0.0
C418 C 0.5415 0.54543 0.74356 0.0
C419 C 0.53433 0.55418 0.70199 0.0
C420 C 0.51131 0.61255 0.68468 0.0
C421 C 0.49521 0.66087 0.70779 0.0
C422 C 0.50188 0.65239 0.74843 0.0
C423 C 0.52483 0.59557 0.76626 0.0
H424 H 0.52444 0.60464 0.34167 0.0
C425 C 0.57118 0.5976 0.36471 0.0
H426 H 0.691 0.57413 0.37669 0.0
H427 H 0.66147 0.43513 0.21648 0.0
H428 H 0.68495 0.34968 0.26507 0.0
H429 H 0.69563 0.36765 0.33572 0.0
H430 H 0.68565 0.47127 0.35823 0.0
C431 C 0.64436 0.58574 0.35441 0.0
C432 C 0.65698 0.5774 0.31224 0.0
C433 C 0.66625 0.51696 0.29962 0.0
C434 C 0.65808 0.50624 0.2589 0.0
C435 C 0.66564 0.4453 0.24708 0.0
C436 C 0.67942 0.39604 0.27464 0.0
C437 C 0.68566 0.40622 0.31442 0.0
C438 C 0.6796 0.4659 0.32695 0.0
H439 H 0.71135 0.56033 0.16161 0.0
C440 C 0.64937 0.54558 0.15896 0.0
H441 H 0.54364 0.53071 0.18808 0.0
H442 H 0.65417 0.70018 0.32604 0.0
H443 H 0.62976 0.78544 0.27731 0.0
H444 H 0.60847 0.766 0.20706 0.0
H445 H 0.6139 0.66171 0.18488 0.0
C446 C 0.6068 0.54169 0.19104 0.0
C447 C 0.63974 0.55566 0.231 0.0
C448 C 0.63755 0.61688 0.24336 0.0
C449 C 0.64741 0.62786 0.28398 0.0
C450 C 0.64513 0.68941 0.29557 0.0
C451 C 0.63159 0.73863 0.26793 0.0
C452 C 0.61991 0.72772 0.22835 0.0
C453 C 0.6229 0.66766 0.21602 0.0
loop_
_geom_bond_atom_site_label_1
_geom_bond_atom_site_label_2
_geom_bond_distance
_geom_bond_site_symmetry_2
_ccdc_geom_bond_type
O0 Mn1 2.163 . S
O0 C14 1.244 1_454 S
Mn1 O0 2.163 . S
Mn1 O4 2.160 1_544 S
Mn1 O5 2.221 . S
Mn1 O7 2.161 . S
Mn1 O9 2.162 1_554 S
Mn1 O19 2.222 1_444 S
O2 Mn3 2.087 . S
O2 C14 1.256 . S
Mn3 O2 2.087 . S
Mn3 O10 2.089 . S
Mn3 O19 2.290 1_545 S
Mn3 O20 2.251 1_545 S
O4 Mn1 2.160 1_566 S
O4 C15 1.239 1_556 S
O5 Mn1 2.221 . S
O5 Mn6 2.290 . S
O5 C16 1.278 . S
Mn6 O5 2.290 . S
Mn6 O8 2.089 1_545 S
Mn6 O11 2.251 . S
Mn6 O12 2.087 . S
O7 Mn1 2.161 . S
O7 C17 1.244 . S
O8 Mn6 2.089 1_565 S
O8 C15 1.256 . S
O9 Mn1 2.162 1_556 S
O9 C18 1.239 . S
O10 Mn3 2.089 . S
O10 C18 1.256 1_655 S
O11 Mn6 2.251 . S
O11 C16 1.241 . S
O12 Mn6 2.087 . S
O12 C17 1.256 . S
C13 O19 1.278 1_554 S
C13 O20 1.241 1_554 S
C14 O0 1.244 1_656 S
C14 O2 1.256 . S
C15 O4 1.239 1_554 S
C15 O8 1.256 . S
C16 O5 1.278 . S
C16 O11 1.241 . S
C17 O7 1.244 . S
C17 O12 1.256 . S
C18 O9 1.239 . S
C18 O10 1.256 1_455 S
O19 Mn1 2.222 1_666 S
O19 Mn3 2.290 1_565 S
O19 C13 1.278 1_556 S
O20 Mn3 2.251 1_565 S
O20 C13 1.241 1_556 S
O21 Mn22 2.163 . S
O21 C35 1.244 . S
Mn22 O21 2.163 . S
Mn22 O25 2.160 . S
Mn22 O26 2.221 . S
Mn22 O28 2.163 . S
Mn22 O30 2.160 . S
Mn22 O40 2.221 . S
O23 Mn24 2.087 . S
O23 C35 1.256 . S
Mn24 O23 2.087 . S
Mn24 O31 2.089 . S
Mn24 O40 2.290 . S
Mn24 O41 2.251 . S
O25 Mn22 2.160 . S
O25 C36 1.239 . S
O26 Mn22 2.221 . S
O26 Mn27 2.290 . S
O26 C37 1.278 . S
Mn27 O26 2.290 . S
Mn27 O29 2.089 . S
Mn27 O32 2.251 . S
Mn27 O33 2.087 . S
O28 Mn22 2.163 . S
O28 C38 1.244 . S
O29 Mn27 2.089 . S
O29 C36 1.256 . S
O30 Mn22 2.160 . S
O30 C39 1.239 . S
O31 Mn24 2.089 . S
O31 C39 1.256 . S
O32 Mn27 2.251 . S
O32 C37 1.241 . S
O33 Mn27 2.087 . S
O33 C38 1.256 . S
C34 O40 1.278 . S
C34 O41 1.241 . S
C35 O21 1.244 . S
C35 O23 1.256 . S
C36 O25 1.239 . S
C36 O29 1.256 . S
C37 O26 1.278 . S
C37 O32 1.241 . S
C38 O28 1.244 . S
C38 O33 1.256 . S
C39 O30 1.239 . S
C39 O31 1.256 . S
O40 Mn22 2.221 . S
O40 Mn24 2.290 . S
O40 C34 1.278 . S
O41 Mn24 2.251 . S
O41 C34 1.241 . S
C42 N43 1.317 1_545 S
C42 N44 1.348 1_455 S
C42 C45 1.485 1_545 S
N43 C42 1.317 1_565 S
N43 N47 1.370 1_565 S
N44 C42 1.348 1_655 S
N44 C46 1.346 . S
C45 C42 1.485 1_565 S
C45 H49 0.960 . S
C45 H50 0.961 1_565 S
C45 H51 0.960 . S
C46 N44 1.346 . S
C46 N47 1.307 1_655 S
C46 C48 1.486 . S
N47 N43 1.370 1_545 S
N47 C46 1.307 1_455 S
C48 C46 1.486 . S
C48 H52 0.960 . S
C48 H53 0.960 . S
C48 H54 0.959 . S
H49 C45 0.960 . S
H50 C45 0.961 1_545 S
H51 C45 0.960 . S
H52 C48 0.960 . S
H53 C48 0.960 . S
H54 C48 0.959 . S
C55 N56 1.317 . S
C55 N57 1.348 1_455 S
C55 C58 1.485 . S
N56 C55 1.317 . S
N56 N60 1.370 . S
N57 C55 1.348 1_655 S
N57 C59 1.346 . S
C58 C55 1.485 . S
C58 H62 0.960 1_455 S
C58 H63 0.961 . S
C58 H64 0.960 . S
C59 N57 1.346 . S
C59 N60 1.307 1_655 S
C59 C61 1.486 . S
N60 N56 1.370 . S
N60 C59 1.307 1_455 S
C61 C59 1.486 . S
C61 H65 0.960 1_545 S
C61 H66 0.960 . S
C61 H67 0.959 . S
H62 C58 0.960 1_655 S
H63 C58 0.961 . S
H64 C58 0.960 . S
H65 C61 0.960 1_565 S
H66 C61 0.960 . S
H67 C61 0.959 . S
C68 N69 1.317 . S
C68 N70 1.348 . S
C68 C71 1.485 1_556 S
N69 C68 1.317 . S
N69 N73 1.370 . S
N70 C68 1.348 . S
N70 C72 1.346 . S
C71 C68 1.485 1_554 S
C71 H75 0.960 . S
C71 H76 0.961 . S
C71 H77 0.960 . S
C72 N70 1.346 . S
C72 N73 1.307 . S
C72 C74 1.486 . S
N73 N69 1.370 . S
N73 C72 1.307 . S
C74 C72 1.486 . S
C74 H78 0.960 . S
C74 H79 0.960 . S
C74 H80 0.959 . S
H75 C71 0.960 . S
H76 C71 0.961 . S
H77 C71 0.960 . S
H78 C74 0.960 . S
H79 C74 0.960 . S
H80 C74 0.959 . S
C81 N82 1.317 . S
C81 N83 1.348 . S
C81 C84 1.485 1_554 S
N82 C81 1.317 . S
N82 N86 1.370 . S
N83 C81 1.348 . S
N83 C85 1.346 . S
C84 C81 1.485 1_556 S
C84 H88 0.960 . S
C84 H89 0.961 . S
C84 H90 0.960 . S
C85 N83 1.346 . S
C85 N86 1.307 . S
C85 C87 1.486 . S
N86 N82 1.370 . S
N86 C85 1.307 . S
C87 C85 1.486 . S
C87 H91 0.960 . S
C87 H92 0.960 . S
C87 H93 0.959 . S
H88 C84 0.960 . S
H89 C84 0.961 . S
H90 C84 0.960 . S
H91 C87 0.960 . S
H92 C87 0.960 . S
H93 C87 0.959 . S
H94 C95 0.951 . S
C95 H94 0.951 . S
C95 C101 1.265 . S
H96 C101 0.950 . S
H97 C105 0.949 . S
H98 C106 0.950 . S
H99 C107 0.951 . S
H100 C108 0.951 . S
C101 C95 1.265 . S
C101 H96 0.950 . S
C101 C102 1.478 . S
C102 C101 1.478 . S
C102 C103 1.397 . S
C102 C119 1.394 1_554 S
C103 C102 1.397 . S
C103 C104 1.438 . S
C103 C108 1.429 . S
C104 C103 1.438 . S
C104 C105 1.428 . S
C104 C117 1.394 . S
C105 H97 0.949 . S
C105 C104 1.428 . S
C105 C106 1.345 . S
C106 H98 0.950 . S
C106 C105 1.345 . S
C106 C107 1.424 . S
C107 H99 0.951 . S
C107 C106 1.424 . S
C107 C108 1.347 . S
C108 H100 0.951 . S
C108 C103 1.429 . S
C108 C107 1.347 . S
H109 C110 0.951 . S
C110 H109 0.951 . S
C110 C116 1.265 . S
H111 C116 0.950 . S
H112 C120 0.949 . S
H113 C121 0.950 . S
H114 C122 0.951 . S
H115 C123 0.951 . S
C116 C110 1.265 . S
C116 H111 0.950 . S
C116 C117 1.478 . S
C117 C104 1.394 . S
C117 C116 1.478 . S
C117 C118 1.397 1_554 S
C118 C117 1.397 1_556 S
C118 C119 1.438 . S
C118 C123 1.429 . S
C119 C102 1.394 1_556 S
C119 C118 1.438 . S
C119 C120 1.428 . S
C120 H112 0.949 . S
C120 C119 1.428 . S
C120 C121 1.345 . S
C121 H113 0.950 . S
C121 C120 1.345 . S
C121 C122 1.424 . S
C122 H114 0.951 . S
C122 C121 1.424 . S
C122 C123 1.347 . S
C123 H115 0.951 . S
C123 C118 1.429 . S
C123 C122 1.347 . S
H124 C125 0.951 . S
C125 H124 0.951 . S
C125 C131 1.262 1_554 S
H126 C131 0.952 . S
H127 C135 0.949 . S
H128 C136 0.950 . S
H129 C137 0.951 . S
H130 C138 0.951 . S
C131 C125 1.262 1_556 S
C131 H126 0.952 . S
C131 C132 1.480 . S
C132 C131 1.480 . S
C132 C133 1.397 . S
C132 C149 1.394 1_556 S
C133 C132 1.397 . S
C133 C134 1.438 . S
C133 C138 1.429 . S
C134 C133 1.438 . S
C134 C135 1.428 . S
C134 C147 1.394 . S
C135 H127 0.949 . S
C135 C134 1.428 . S
C135 C136 1.345 . S
C136 H128 0.950 . S
C136 C135 1.345 . S
C136 C137 1.424 . S
C137 H129 0.951 . S
C137 C136 1.424 . S
C137 C138 1.347 . S
C138 H130 0.951 . S
C138 C133 1.429 . S
C138 C137 1.347 . S
H139 C140 0.951 . S
C140 H139 0.951 . S
C140 C146 1.265 . S
H141 C146 0.950 . S
H142 C150 0.949 . S
H143 C151 0.950 . S
H144 C152 0.951 . S
H145 C153 0.951 . S
C146 C140 1.265 . S
C146 H141 0.950 . S
C146 C147 1.478 . S
C147 C134 1.394 . S
C147 C146 1.478 . S
C147 C148 1.397 1_556 S
C148 C147 1.397 1_554 S
C148 C149 1.438 . S
C148 C153 1.429 . S
C149 C132 1.394 1_554 S
C149 C148 1.438 . S
C149 C150 1.428 . S
C150 H142 0.949 . S
C150 C149 1.428 . S
C150 C151 1.345 . S
C151 H143 0.950 . S
C151 C150 1.345 . S
C151 C152 1.424 . S
C152 H144 0.951 . S
C152 C151 1.424 . S
C152 C153 1.347 . S
C153 H145 0.951 . S
C153 C148 1.429 . S
C153 C152 1.347 . S
H154 C155 0.951 . S
C155 H154 0.951 . S
C155 C161 1.265 . S
H156 C161 0.950 . S
H157 C165 0.949 . S
H158 C166 0.950 . S
H159 C167 0.951 . S
H160 C168 0.951 . S
C161 C155 1.265 . S
C161 H156 0.950 . S
C161 C162 1.478 . S
C162 C161 1.478 . S
C162 C163 1.397 . S
C162 C179 1.394 . S
C163 C162 1.397 . S
C163 C164 1.438 . S
C163 C168 1.429 . S
C164 C163 1.438 . S
C164 C165 1.428 . S
C164 C177 1.394 . S
C165 H157 0.949 . S
C165 C164 1.428 . S
C165 C166 1.345 . S
C166 H158 0.950 . S
C166 C165 1.345 . S
C166 C167 1.424 . S
C167 H159 0.951 . S
C167 C166 1.424 . S
C167 C168 1.347 . S
C168 H160 0.951 . S
C168 C163 1.429 . S
C168 C167 1.347 . S
H169 C170 0.951 . S
C170 H169 0.951 . S
C170 C176 1.265 . S
H171 C176 0.950 . S
H172 C180 0.949 . S
H173 C181 0.950 . S
H174 C182 0.951 . S
H175 C183 0.951 . S
C176 C170 1.265 . S
C176 H171 0.950 . S
C176 C177 1.478 . S
C177 C164 1.394 . S
C177 C176 1.478 . S
C177 C178 1.397 . S
C178 C177 1.397 . S
C178 C179 1.438 . S
C178 C183 1.429 1_554 S
C179 C162 1.394 . S
C179 C178 1.438 . S
C179 C180 1.428 1_554 S
C180 H172 0.949 . S
C180 C179 1.428 1_556 S
C180 C181 1.345 . S
C181 H173 0.950 . S
C181 C180 1.345 . S
C181 C182 1.424 . S
C182 H174 0.951 . S
C182 C181 1.424 . S
C182 C183 1.347 . S
C183 H175 0.951 . S
C183 C178 1.429 1_556 S
C183 C182 1.347 . S
H184 C185 0.951 . S
C185 H184 0.951 . S
C185 C191 1.265 . S
H186 C191 0.950 . S
H187 C195 0.949 . S
H188 C196 0.950 . S
H189 C197 0.951 . S
H190 C198 0.951 . S
C191 C185 1.265 . S
C191 H186 0.950 . S
C191 C192 1.478 . S
C192 C191 1.478 . S
C192 C193 1.397 1_556 S
C192 C209 1.394 . S
C193 C192 1.397 1_554 S
C193 C194 1.438 . S
C193 C198 1.429 . S
C194 C193 1.438 . S
C194 C195 1.429 . S
C194 C207 1.393 1_554 S
C195 H187 0.949 . S
C195 C194 1.429 . S
C195 C196 1.345 . S
C196 H188 0.950 . S
C196 C195 1.345 . S
C196 C197 1.424 . S
C197 H189 0.951 . S
C197 C196 1.424 . S
C197 C198 1.347 . S
C198 H190 0.951 . S
C198 C193 1.429 . S
C198 C197 1.347 . S
H199 C200 0.951 . S
C200 H199 0.951 . S
C200 C206 1.265 . S
H201 C206 0.950 . S
H202 C210 0.949 . S
H203 C211 0.950 . S
H204 C212 0.951 . S
H205 C213 0.951 . S
C206 C200 1.265 . S
C206 H201 0.950 . S
C206 C207 1.478 . S
C207 C194 1.393 1_556 S
C207 C206 1.478 . S
C207 C208 1.397 . S
C208 C207 1.397 . S
C208 C209 1.438 . S
C208 C213 1.429 . S
C209 C192 1.394 . S
C209 C208 1.438 . S
C209 C210 1.428 . S
C210 H202 0.949 . S
C210 C209 1.428 . S
C210 C211 1.345 . S
C211 H203 0.950 . S
C211 C210 1.345 . S
C211 C212 1.424 . S
C212 H204 0.951 . S
C212 C211 1.424 . S
C212 C213 1.347 . S
C213 H205 0.951 . S
C213 C208 1.429 . S
C213 C212 1.347 . S
H214 C215 0.951 . S
C215 H214 0.951 . S
C215 C221 1.265 . S
H216 C221 0.950 . S
H217 C225 0.949 . S
H218 C226 0.950 . S
H219 C227 0.951 . S
H220 C228 0.951 . S
C221 C215 1.265 . S
C221 H216 0.950 . S
C221 C222 1.478 . S
C222 C221 1.478 . S
C222 C223 1.397 . S
C222 C239 1.394 . S
C223 C222 1.397 . S
C223 C224 1.438 . S
C223 C228 1.429 . S
C224 C223 1.438 . S
C224 C225 1.428 . S
C224 C237 1.394 . S
C225 H217 0.949 . S
C225 C224 1.428 . S
C225 C226 1.345 . S
C226 H218 0.950 . S
C226 C225 1.345 . S
C226 C227 1.424 . S
C227 H219 0.951 . S
C227 C226 1.424 . S
C227 C228 1.347 . S
C228 H220 0.951 . S
C228 C223 1.429 . S
C228 C227 1.347 . S
H229 C230 0.951 . S
C230 H229 0.951 . S
C230 C236 1.265 . S
H231 C236 0.950 . S
H232 C240 0.949 . S
H233 C241 0.950 . S
H234 C242 0.951 . S
H235 C243 0.951 . S
C236 C230 1.265 . S
C236 H231 0.950 . S
C236 C237 1.478 . S
C237 C224 1.394 . S
C237 C236 1.478 . S
C237 C238 1.397 . S
C238 C237 1.397 . S
C238 C239 1.438 . S
C238 C243 1.429 . S
C239 C222 1.394 . S
C239 C238 1.438 . S
C239 C240 1.428 . S
C240 H232 0.949 . S
C240 C239 1.428 . S
C240 C241 1.345 . S
C241 H233 0.950 . S
C241 C240 1.345 . S
C241 C242 1.424 . S
C242 H234 0.951 . S
C242 C241 1.424 . S
C242 C243 1.347 . S
C243 H235 0.951 . S
C243 C238 1.429 . S
C243 C242 1.347 . S
H244 C245 0.951 . S
C245 H244 0.951 . S
C245 C251 1.265 . S
H246 C251 0.950 . S
H247 C255 0.949 . S
H248 C256 0.950 . S
H249 C257 0.951 . S
H250 C258 0.951 . S
C251 C245 1.265 . S
C251 H246 0.950 . S
C251 C252 1.478 . S
C252 C251 1.478 . S
C252 C253 1.397 . S
C252 C269 1.394 . S
C253 C252 1.397 . S
C253 C254 1.438 . S
C253 C258 1.429 . S
C254 C253 1.438 . S
C254 C255 1.428 . S
C254 C267 1.394 . S
C255 H247 0.949 . S
C255 C254 1.428 . S
C255 C256 1.345 . S
C256 H248 0.950 . S
C256 C255 1.345 . S
C256 C257 1.424 . S
C257 H249 0.951 . S
C257 C256 1.424 . S
C257 C258 1.347 . S
C258 H250 0.951 . S
C258 C253 1.429 . S
C258 C257 1.347 . S
H259 C260 0.951 . S
C260 H259 0.951 . S
C260 C266 1.265 . S
H261 C266 0.950 . S
H262 C270 0.949 . S
H263 C271 0.950 . S
H264 C272 0.951 . S
H265 C273 0.951 . S
C266 C260 1.265 . S
C266 H261 0.950 . S
C266 C267 1.478 . S
C267 C254 1.394 . S
C267 C266 1.478 . S
C267 C268 1.397 . S
C268 C267 1.397 . S
C268 C269 1.438 . S
C268 C273 1.429 . S
C269 C252 1.394 . S
C269 C268 1.438 . S
C269 C270 1.428 . S
C270 H262 0.949 . S
C270 C269 1.428 . S
C270 C271 1.345 . S
C271 H263 0.950 . S
C271 C270 1.345 . S
C271 C272 1.424 . S
C272 H264 0.951 . S
C272 C271 1.424 . S
C272 C273 1.347 . S
C273 H265 0.951 . S
C273 C268 1.429 . S
C273 C272 1.347 . S
H274 C275 0.951 . S
C275 H274 0.951 . S
C275 C281 1.265 . S
H276 C281 0.950 . S
H277 C285 0.949 . S
H278 C286 0.950 . S
H279 C287 0.951 . S
H280 C288 0.951 . S
C281 C275 1.265 . S
C281 H276 0.950 . S
C281 C282 1.478 . S
C282 C281 1.478 . S
C282 C283 1.397 . S
C282 C299 1.394 . S
C283 C282 1.397 . S
C283 C284 1.438 . S
C283 C288 1.429 . S
C284 C283 1.438 . S
C284 C285 1.428 . S
C284 C297 1.394 . S
C285 H277 0.949 . S
C285 C284 1.428 . S
C285 C286 1.345 . S
C286 H278 0.950 . S
C286 C285 1.345 . S
C286 C287 1.424 . S
C287 H279 0.951 . S
C287 C286 1.424 . S
C287 C288 1.347 . S
C288 H280 0.951 . S
C288 C283 1.429 . S
C288 C287 1.347 . S
H289 C290 0.951 . S
C290 H289 0.951 . S
C290 C296 1.265 . S
H291 C296 0.950 . S
H292 C300 0.949 . S
H293 C301 0.950 . S
H294 C302 0.951 . S
H295 C303 0.951 . S
C296 C290 1.265 . S
C296 H291 0.950 . S
C296 C297 1.478 . S
C297 C284 1.394 . S
C297 C296 1.478 . S
C297 C298 1.397 . S
C298 C297 1.397 . S
C298 C299 1.438 . S
C298 C303 1.429 . S
C299 C282 1.394 . S
C299 C298 1.438 . S
C299 C300 1.428 . S
C300 H292 0.949 . S
C300 C299 1.428 . S
C300 C301 1.345 . S
C301 H293 0.950 . S
C301 C300 1.345 . S
C301 C302 1.424 . S
C302 H294 0.951 . S
C302 C301 1.424 . S
C302 C303 1.347 . S
C303 H295 0.951 . S
C303 C298 1.429 . S
C303 C302 1.347 . S
H304 C305 0.951 . S
C305 H304 0.951 . S
C305 C311 1.265 . S
H306 C311 0.950 . S
H307 C315 0.949 . S
H308 C316 0.950 . S
H309 C317 0.951 . S
H310 C318 0.951 . S
C311 C305 1.265 . S
C311 H306 0.950 . S
C311 C312 1.478 . S
C312 C311 1.478 . S
C312 C313 1.397 . S
C312 C329 1.394 . S
C313 C312 1.397 . S
C313 C314 1.438 . S
C313 C318 1.429 . S
C314 C313 1.438 . S
C314 C315 1.428 . S
C314 C327 1.394 . S
C315 H307 0.949 . S
C315 C314 1.428 . S
C315 C316 1.345 . S
C316 H308 0.950 . S
C316 C315 1.345 . S
C316 C317 1.424 . S
C317 H309 0.951 . S
C317 C316 1.424 . S
C317 C318 1.347 . S
C318 H310 0.951 . S
C318 C313 1.429 . S
C318 C317 1.347 . S
H319 C320 0.951 . S
C320 H319 0.951 . S
C320 C326 1.265 . S
H321 C326 0.950 . S
H322 C330 0.949 . S
H323 C331 0.950 . S
H324 C332 0.951 . S
H325 C333 0.951 . S
C326 C320 1.265 . S
C326 H321 0.950 . S
C326 C327 1.478 . S
C327 C314 1.394 . S
C327 C326 1.478 . S
C327 C328 1.397 . S
C328 C327 1.397 . S
C328 C329 1.438 . S
C328 C333 1.429 . S
C329 C312 1.394 . S
C329 C328 1.438 . S
C329 C330 1.428 . S
C330 H322 0.949 . S
C330 C329 1.428 . S
C330 C331 1.345 . S
C331 H323 0.950 . S
C331 C330 1.345 . S
C331 C332 1.424 . S
C332 H324 0.951 . S
C332 C331 1.424 . S
C332 C333 1.347 . S
C333 H325 0.951 . S
C333 C328 1.429 . S
C333 C332 1.347 . S
H334 C335 0.951 1_565 S
C335 H334 0.951 1_545 S
C335 C341 1.265 . S
H336 C341 0.950 . S
H337 C345 0.949 . S
H338 C346 0.950 . S
H339 C347 0.951 . S
H340 C348 0.951 . S
C341 C335 1.265 . S
C341 H336 0.950 . S
C341 C342 1.478 . S
C342 C341 1.478 . S
C342 C343 1.397 . S
C342 C359 1.394 1_545 S
C343 C342 1.397 . S
C343 C344 1.438 . S
C343 C348 1.429 . S
C344 C343 1.438 . S
C344 C345 1.428 . S
C344 C357 1.394 1_545 S
C345 H337 0.949 . S
C345 C344 1.428 . S
C345 C346 1.345 . S
C346 H338 0.950 . S
C346 C345 1.345 . S
C346 C347 1.424 . S
C347 H339 0.951 . S
C347 C346 1.424 . S
C347 C348 1.347 . S
C348 H340 0.951 . S
C348 C343 1.429 . S
C348 C347 1.347 . S
H349 C350 0.951 1_545 S
C350 H349 0.951 1_565 S
C350 C356 1.265 . S
H351 C356 0.950 1_655 S
H352 C360 0.949 . S
H353 C361 0.950 . S
H354 C362 0.951 . S
H355 C363 0.951 1_655 S
C356 C350 1.265 . S
C356 H351 0.950 1_455 S
C356 C357 1.478 . S
C357 C344 1.394 1_565 S
C357 C356 1.478 . S
C357 C358 1.397 . S
C358 C357 1.397 . S
C358 C359 1.438 . S
C358 C363 1.429 . S
C359 C342 1.394 1_565 S
C359 C358 1.438 . S
C359 C360 1.428 . S
C360 H352 0.949 . S
C360 C359 1.428 . S
C360 C361 1.345 . S
C361 H353 0.950 . S
C361 C360 1.345 . S
C361 C362 1.424 1_455 S
C362 H354 0.951 . S
C362 C361 1.424 1_655 S
C362 C363 1.347 1_655 S
C363 H355 0.951 1_455 S
C363 C358 1.429 . S
C363 C362 1.347 1_455 S
H364 C365 0.949 . S
C365 H364 0.949 . S
C365 C371 1.265 . S
H366 C371 0.950 . S
H367 C375 0.949 . S
H368 C376 0.950 . S
H369 C377 0.951 . S
H370 C378 0.951 . S
C371 C365 1.265 . S
C371 H366 0.950 . S
C371 C372 1.478 . S
C372 C371 1.478 . S
C372 C373 1.397 . S
C372 C389 1.394 . S
C373 C372 1.397 . S
C373 C374 1.438 . S
C373 C378 1.429 1_545 S
C374 C373 1.438 . S
C374 C375 1.428 1_545 S
C374 C387 1.394 . S
C375 H367 0.949 . S
C375 C374 1.428 1_565 S
C375 C376 1.345 . S
C376 H368 0.950 . S
C376 C375 1.345 . S
C376 C377 1.424 . S
C377 H369 0.951 . S
C377 C376 1.424 . S
C377 C378 1.347 . S
C378 H370 0.951 . S
C378 C373 1.429 1_565 S
C378 C377 1.347 . S
H379 C380 0.951 . S
C380 H379 0.951 . S
C380 C386 1.265 1_455 S
H381 C386 0.950 . S
H382 C390 0.949 . S
H383 C391 0.950 . S
H384 C392 0.951 . S
H385 C393 0.951 . S
C386 C380 1.265 1_655 S
C386 H381 0.950 . S
C386 C387 1.478 1_655 S
C387 C374 1.394 . S
C387 C386 1.478 1_455 S
C387 C388 1.397 . S
C388 C387 1.397 . S
C388 C389 1.438 . S
C388 C393 1.429 1_455 S
C389 C372 1.394 . S
C389 C388 1.438 . S
C389 C390 1.428 . S
C390 H382 0.949 . S
C390 C389 1.428 . S
C390 C391 1.345 1_455 S
C391 H383 0.950 . S
C391 C390 1.345 1_655 S
C391 C392 1.424 . S
C392 H384 0.951 . S
C392 C391 1.424 . S
C392 C393 1.347 . S
C393 H385 0.951 . S
C393 C388 1.429 1_655 S
C393 C392 1.347 . S
H394 C395 0.951 . S
C395 H394 0.951 . S
C395 C401 1.265 . S
H396 C401 0.950 . S
H397 C405 0.949 . S
H398 C406 0.950 . S
H399 C407 0.951 . S
H400 C408 0.951 . S
C401 C395 1.265 . S
C401 H396 0.950 . S
C401 C402 1.478 . S
C402 C401 1.478 . S
C402 C403 1.397 . S
C402 C419 1.394 . S
C403 C402 1.397 . S
C403 C404 1.438 . S
C403 C408 1.429 . S
C404 C403 1.438 . S
C404 C405 1.428 . S
C404 C417 1.394 . S
C405 H397 0.949 . S
C405 C404 1.428 . S
C405 C406 1.345 . S
C406 H398 0.950 . S
C406 C405 1.345 . S
C406 C407 1.424 . S
C407 H399 0.951 . S
C407 C406 1.424 . S
C407 C408 1.347 . S
C408 H400 0.951 . S
C408 C403 1.429 . S
C408 C407 1.347 . S
H409 C410 0.951 . S
C410 H409 0.951 . S
C410 C416 1.265 . S
H411 C416 0.950 . S
H412 C420 0.949 . S
H413 C421 0.950 . S
H414 C422 0.951 . S
H415 C423 0.951 . S
C416 C410 1.265 . S
C416 H411 0.950 . S
C416 C417 1.478 . S
C417 C404 1.394 . S
C417 C416 1.478 . S
C417 C418 1.397 . S
C418 C417 1.397 . S
C418 C419 1.438 . S
C418 C423 1.429 . S
C419 C402 1.394 . S
C419 C418 1.438 . S
C419 C420 1.428 . S
C420 H412 0.949 . S
C420 C419 1.428 . S
C420 C421 1.345 . S
C421 H413 0.950 . S
C421 C420 1.345 . S
C421 C422 1.424 . S
C422 H414 0.951 . S
C422 C421 1.424 . S
C422 C423 1.347 . S
C423 H415 0.951 . S
C423 C418 1.429 . S
C423 C422 1.347 . S
H424 C425 0.951 . S
C425 H424 0.951 . S
C425 C431 1.265 . S
H426 C431 0.950 . S
H427 C435 0.949 . S
H428 C436 0.950 . S
H429 C437 0.951 . S
H430 C438 0.951 . S
C431 C425 1.265 . S
C431 H426 0.950 . S
C431 C432 1.478 . S
C432 C431 1.478 . S
C432 C433 1.397 . S
C432 C449 1.394 . S
C433 C432 1.397 . S
C433 C434 1.438 . S
C433 C438 1.429 . S
C434 C433 1.438 . S
C434 C435 1.428 . S
C434 C447 1.394 . S
C435 H427 0.949 . S
C435 C434 1.428 . S
C435 C436 1.345 . S
C436 H428 0.950 . S
C436 C435 1.345 . S
C436 C437 1.424 . S
C437 H429 0.951 . S
C437 C436 1.424 . S
C437 C438 1.347 . S
C438 H430 0.951 . S
C438 C433 1.429 . S
C438 C437 1.347 . S
H439 C440 0.951 . S
C440 H439 0.951 . S
C440 C446 1.265 . S
H441 C446 0.950 . S
H442 C450 0.949 . S
H443 C451 0.950 . S
H444 C452 0.951 . S
H445 C453 0.951 . S
C446 C440 1.265 . S
C446 H441 0.950 . S
C446 C447 1.478 . S
C447 C434 1.394 . S
C447 C446 1.478 . S
C447 C448 1.397 . S
C448 C447 1.397 . S
C448 C449 1.438 . S
C448 C453 1.429 . S
C449 C432 1.394 . S
C449 C448 1.438 . S
C449 C450 1.428 . S
C450 H442 0.949 . S
C450 C449 1.428 . S
C450 C451 1.345 . S
C451 H443 0.950 . S
C451 C450 1.345 . S
C451 C452 1.424 . S
C452 H444 0.951 . S
C452 C451 1.424 . S
C452 C453 1.347 . S
C453 H445 0.951 . S
C453 C448 1.429 . S
C453 C452 1.347 . S
C110 N83 1.378 . S
C95 C16 1.135 . S
C125 C15 1.396 . S
C140 N70 1.423 . S
C155 C13 1.271 . S
C170 N82 1.507 . S
C185 C14 1.451 . S
C200 N69 1.481 . S
C215 C37 1.237 . S
C230 N57 1.349 1_565 S
C245 C36 1.447 . S
C260 N44 1.419 . S
C290 N56 1.546 . S
C275 C34 1.342 . S
C320 N43 1.480 . S
C305 C35 1.448 . S
C335 C17 1.582 . S
C350 N47 1.589 1_565 S
C365 C18 1.353 . S
C380 N60 1.443 . S
C410 N73 1.560 . S
C395 C38 1.517 . S
C425 C39 1.351 . S
C440 N86 1.447 . S
