# Generated by pormake.
# Topology pth, (4,4)-cn, num edge types: 1
# Building blocks:
#     Node 0, Type 0, BuildingBlock: UXUYUI_clean_sbu_0, # of connection points: 4
#     Node 1, Type 0, BuildingBlock: UXUYUI_clean_sbu_0, # of connection points: 4
#     Node 2, Type 0, BuildingBlock: UXUYUI_clean_sbu_0, # of connection points: 4
#     Node 3, Type 1, BuildingBlock: MUDLON_clean_linker_0, # of connection points: 4
#     Node 4, Type 1, BuildingBlock: MUDLON_clean_linker_0, # of connection points: 4
#     Node 5, Type 1, BuildingBlock: MUDLON_clean_linker_0, # of connection points: 4
#     Edge 6, Type (0, 1), BuildingBlock: UVAHIK_clean_linker_0, # of connection points: 2
#     Edge 7, Type (0, 1), BuildingBlock: UVAHIK_clean_linker_0, # of connection points: 2
#     Edge 8, Type (0, 1), BuildingBlock: UVAHIK_clean_linker_0, # of connection points: 2
#     Edge 9, Type (0, 1), BuildingBlock: UVAHIK_clean_linker_0, # of connection points: 2
#     Edge 10, Type (0, 1), BuildingBlock: UVAHIK_clean_linker_0, # of connection points: 2
#     Edge 11, Type (0, 1), BuildingBlock: UVAHIK_clean_linker_0, # of connection points: 2
#     Edge 12, Type (0, 1), BuildingBlock: UVAHIK_clean_linker_0, # of connection points: 2
#     Edge 13, Type (0, 1), BuildingBlock: UVAHIK_clean_linker_0, # of connection points: 2
#     Edge 14, Type (0, 1), BuildingBlock: UVAHIK_clean_linker_0, # of connection points: 2
#     Edge 15, Type (0, 1), BuildingBlock: UVAHIK_clean_linker_0, # of connection points: 2
#     Edge 16, Type (0, 1), BuildingBlock: UVAHIK_clean_linker_0, # of connection points: 2
#     Edge 17, Type (0, 1), BuildingBlock: UVAHIK_clean_linker_0, # of connection points: 2
# Relax obj value: 0.087
# Max RMSD: 0.213
# Mean RMSD: 0.143
data_MOF--net-pth--node1-UXUYUI_clean_sbu_0--node2-MUDLON_clean_linker_0--edge1-UVAHIK_clean_linker_0
_symmetry_space_group_name_H-M    P1
_symmetry_Int_Tables_number       1
_symmetry_cell_setting            triclinic
loop_
_symmetry_equiv_pos_as_xyz
'x, y, z'
_cell_length_a     46.593493
_cell_length_b     46.601146
_cell_length_c     93.895166
_cell_angle_alpha  90.02252
_cell_angle_beta   90.005203
_cell_angle_gamma 120.02204
loop_
_atom_site_label
_atom_site_type_symbol
_atom_site_fract_x
_atom_site_fract_y
_atom_site_fract_z
_atom_type_partial_charge
Li0 Li 0.05065 0.01963 0.02243 0.0
Li1 Li 0.01137 0.02088 0.03944 0.0
Li2 Li 0.02316 0.97695 0.03975 0.0
Li3 Li 0.9889 0.97723 0.02088 0.0
C4 C 0.06113 0.03054 0.05775 0.0
N5 N 0.07308 0.04331 0.08656 0.0
C6 C 0.03697 0.01075 0.06773 0.0
C7 C 0.09132 0.05691 0.06246 0.0
C8 C 0.0435 0.01758 0.08223 0.0
C9 C 0.0969 0.06294 0.07706 0.0
C10 C 0.01211 0.05128 0.01122 0.0
C11 C 0.98404 0.07194 0.99644 0.0
N12 N 0.01227 0.10198 0.99587 0.0
C13 C 0.0409 0.08231 0.01039 0.0
C14 C 0.9835 0.04598 0.0041 0.0
C15 C 0.04046 0.10764 0.00262 0.0
C16 C 0.08672 0.04828 0.99727 0.0
N17 N 0.08898 0.04702 0.01166 0.0
C18 C 0.14447 0.09248 0.01138 0.0
C19 C 0.1173 0.06787 0.01874 0.0
C20 C 0.14239 0.0955 0.99658 0.0
C21 C 0.11339 0.07244 0.98945 0.0
H22 H 0.06364 0.0316 0.99198 0.0
H23 H 0.11826 0.06626 0.03019 0.0
C24 C 0.98382 0.03966 0.06232 0.0
N25 N 0.00356 0.05076 0.05059 0.0
C26 C 0.97913 0.06162 0.07078 0.0
C27 C 0.01555 0.10618 0.05511 0.0
C28 C 0.0197 0.08339 0.04703 0.0
C29 C 0.99505 0.09543 0.0672 0.0
H30 H 0.97217 0.01386 0.06531 0.0
H31 H 0.03628 0.09191 0.03805 0.0
C32 C 0.03568 0.94682 0.01923 0.0
N33 N 0.05095 0.89683 0.02102 0.0
C34 C 0.01054 0.9137 0.01834 0.0
C35 C 0.0686 0.9546 0.02087 0.0
C36 C 0.01877 0.88876 0.01931 0.0
C37 C 0.07581 0.92894 0.02179 0.0
C38 C 0.94751 0.96733 0.0438 0.0
C39 C 0.92617 0.94311 0.05341 0.0
C40 C 0.93675 0.98632 0.03647 0.0
C41 C 0.89431 0.93817 0.05545 0.0
C42 C 0.90473 0.98065 0.03881 0.0
N43 N 0.88433 0.95688 0.04817 0.0
C44 C 0.05796 0.95318 0.05677 0.0
C45 C 0.00039 0.91646 0.05344 0.0
C46 C 0.0606 0.92938 0.06483 0.0
N47 N 0.02814 0.94624 0.0513 0.0
C48 C 0.00195 0.89192 0.06129 0.0
C49 C 0.03234 0.89822 0.06709 0.0
H50 H 0.07967 0.97704 0.05477 0.0
H51 H 0.97709 0.91168 0.04887 0.0
C52 C 0.95688 0.95964 0.99414 0.0
N53 N 0.95359 0.9512 0.00814 0.0
C54 C 0.93163 0.94028 0.9845 0.0
C55 C 0.9001 0.90414 0.00392 0.0
C56 C 0.92615 0.92381 0.01311 0.0
C57 C 0.90275 0.91226 0.98942 0.0
H58 H 0.97922 0.98129 0.99045 0.0
H59 H 0.9246 0.91693 0.02419 0.0
O60 O 0.05529 0.02471 0.04344 0.0
O61 O 0.01224 0.02583 0.01846 0.0
O62 O 0.02804 0.97154 0.01874 0.0
O63 O 0.97875 0.97228 0.04173 0.0
H64 H 0.01337 0.99036 0.06438 0.0
H65 H 0.11024 0.0727 0.05493 0.0
H66 H 0.02501 0.00244 0.09004 0.0
H67 H 0.12016 0.08328 0.08084 0.0
H68 H 0.96204 0.06818 0.99092 0.0
H69 H 0.0633 0.08695 0.01581 0.0
H70 H 0.96109 0.02203 0.00443 0.0
H71 H 0.06253 0.13179 0.00196 0.0
H72 H 0.16651 0.1096 0.01723 0.0
H73 H 0.11067 0.07418 0.97808 0.0
H74 H 0.96377 0.05229 0.0802 0.0
H75 H 0.02827 0.13194 0.05188 0.0
H76 H 0.98492 0.90736 0.0171 0.0
H77 H 0.08829 0.98017 0.02161 0.0
H78 H -0.00044 0.86299 0.01876 0.0
H79 H 0.10114 0.93454 0.02317 0.0
H80 H 0.93417 0.92827 0.05921 0.0
H81 H 0.95298 0.00537 0.02915 0.0
H82 H 0.87752 0.91948 0.06284 0.0
H83 H 0.89611 0.9952 0.0332 0.0
H84 H 0.08451 0.9351 0.06906 0.0
H85 H 0.9795 0.8684 0.06296 0.0
H86 H 0.93451 0.94722 0.97336 0.0
H87 H 0.87844 0.88235 0.00803 0.0
Li88 Li 0.98626 0.95763 0.35986 0.0
Li89 Li 0.02175 0.99332 0.37917 0.0
Li90 Li 0.96214 0.97104 0.37902 0.0
Li91 Li 0.99702 0.01497 0.36179 0.0
C92 C 0.97026 0.92598 0.39133 0.0
N93 N 0.93642 0.88641 0.41431 0.0
C94 C 0.98495 0.93297 0.40482 0.0
C95 C 0.93845 0.89872 0.38952 0.0
C96 C 0.96742 0.91269 0.4163 0.0
C97 C 0.92172 0.87908 0.40128 0.0
C98 C 0.05858 0.00686 0.35255 0.0
C99 C 0.11262 0.04588 0.34329 0.0
N100 N 0.11865 0.02058 0.34092 0.0
C101 C 0.06523 0.98122 0.3499 0.0
C102 C 0.08237 0.03944 0.3491 0.0
C103 C 0.09577 0.98868 0.34408 0.0
C104 C 0.99018 0.93304 0.33277 0.0
N105 N 0.98146 0.92469 0.34661 0.0
C106 C 0.96743 0.86876 0.34206 0.0
C107 C 0.97029 0.89335 0.35139 0.0
C108 C 0.97647 0.87663 0.32772 0.0
C109 C 0.9879 0.90925 0.32308 0.0
H110 H -0.00078 0.95828 0.32931 0.0
H111 H 0.964 0.88755 0.36249 0.0
C112 C 0.06662 0.02234 0.40264 0.0
N113 N 0.05974 0.00374 0.39061 0.0
C114 C 0.09408 0.02901 0.411 0.0
C115 C 0.10633 0.99643 0.39472 0.0
C116 C 0.07855 0.99024 0.38675 0.0
C117 C 0.1145 0.01611 0.40703 0.0
H118 H 0.05049 0.0315 0.40596 0.0
H119 H 0.07169 0.97416 0.3776 0.0
C120 C 0.93681 0.95677 0.34673 0.0
N121 N 0.90404 0.92203 0.32253 0.0
C122 C 0.94286 0.97305 0.33364 0.0
C123 C 0.91386 0.92286 0.34754 0.0
C124 C 0.92607 0.95505 0.32152 0.0
C125 C 0.89764 0.90572 0.33518 0.0
C126 C 0.0165 0.04923 0.38773 0.0
C127 C 0.00437 0.06198 0.39807 0.0
C128 C 0.04802 0.06938 0.38198 0.0
C129 C 0.02411 0.0948 0.40253 0.0
C130 C 0.06701 0.10206 0.38671 0.0
N131 N 0.05475 0.114 0.3968 0.0
C132 C 0.92902 0.96381 0.40506 0.0
C133 C 0.894 0.94435 0.3848 0.0
C134 C 0.90211 0.95708 0.41379 0.0
N135 N 0.9245 0.95754 0.39086 0.0
C136 C 0.86645 0.93744 0.3931 0.0
C137 C 0.87042 0.9443 0.40777 0.0
H138 H 0.9537 0.97493 0.40953 0.0
H139 H 0.8912 0.94014 0.37345 0.0
C140 C 0.01706 0.06156 0.33912 0.0
N141 N 0.00199 0.05279 0.35205 0.0
C142 C 0.01779 0.0877 0.33152 0.0
C143 C 0.98858 0.09592 0.35094 0.0
C144 C 0.98808 0.06943 0.35806 0.0
C145 C 0.00297 0.10499 0.33734 0.0
H146 H 0.02743 0.04747 0.3345 0.0
H147 H 0.97592 0.06165 0.36829 0.0
O148 O 0.98679 0.94591 0.38 0.0
O149 O 0.02855 3e-05 0.358 0.0
O150 O 0.95354 0.97383 0.35865 0.0
O151 O 0.99728 0.01727 0.38315 0.0
H152 H 0.00951 0.95393 0.40643 0.0
H153 H 0.92661 0.89307 0.37919 0.0
H154 H 0.97843 0.91789 0.42681 0.0
H155 H 0.897 0.85806 0.40004 0.0
H156 H 0.13126 0.07099 0.34061 0.0
H157 H 0.0472 0.95586 0.35251 0.0
H158 H 0.07752 0.05958 0.35082 0.0
H159 H 0.1013 0.96909 0.34207 0.0
H160 H 0.95897 0.84405 0.34612 0.0
H161 H 0.99488 0.91625 0.31208 0.0
H162 H 0.09881 0.0435 0.42062 0.0
H163 H 0.12127 0.98593 0.39122 0.0
H164 H 0.96045 0.99926 0.33281 0.0
H165 H 0.90902 0.90981 0.35756 0.0
H166 H 0.93063 0.96731 0.31131 0.0
H167 H 0.88004 0.87942 0.33563 0.0
H168 H 0.97993 0.04666 0.40259 0.0
H169 H 0.05776 0.05979 0.37403 0.0
H170 H 0.01505 0.10503 0.41053 0.0
H171 H 0.09149 0.11793 0.38237 0.0
H172 H 0.90632 0.96322 0.42501 0.0
H173 H 0.84241 0.92746 0.38807 0.0
H174 H 0.0287 0.09341 0.32099 0.0
H175 H 0.97732 0.10879 0.35596 0.0
Li176 Li 0.02922 0.9812 0.69216 0.0
Li177 Li 0.02253 0.01457 0.71075 0.0
Li178 Li 0.98156 0.95366 0.70763 0.0
Li179 Li 0.98203 0.99347 0.69087 0.0
C180 C 0.05393 0.96985 0.71678 0.0
N181 N 0.10513 0.95848 0.72354 0.0
C182 C 0.08178 0.99389 0.72409 0.0
C183 C 0.05193 0.93984 0.7131 0.0
C184 C 0.10745 0.98772 0.72737 0.0
C185 C 0.07813 0.93461 0.71656 0.0
C186 C 0.04883 0.05667 0.68578 0.0
C187 C 0.05423 0.11038 0.68198 0.0
N188 N 0.08562 0.122 0.67711 0.0
C189 C 0.08099 0.06906 0.68054 0.0
C190 C 0.03521 0.07742 0.68635 0.0
C191 C 0.09925 0.10218 0.67629 0.0
C192 C 0.05511 0.95941 0.66977 0.0
N193 N 0.06258 0.9782 0.68175 0.0
C194 C 0.12011 0.99627 0.67907 0.0
C195 C 0.09431 0.99652 0.68644 0.0
C196 C 0.11343 0.97762 0.6665 0.0
C197 C 0.0803 0.95878 0.66192 0.0
H198 H 0.0297 0.94546 0.66616 0.0
H199 H 0.09969 0.01192 0.69578 0.0
C200 C 0.03419 0.05113 0.73652 0.0
N201 N 0.04708 0.05023 0.72364 0.0
C202 C 0.05258 0.07722 0.74597 0.0
C203 C 0.09709 0.1007 0.72875 0.0
C204 C 0.07806 0.07405 0.71974 0.0
C205 C 0.08438 0.10253 0.74204 0.0
H206 H 0.00968 0.03156 0.73945 0.0
H207 H 0.08834 0.07205 0.70975 0.0
C208 C 0.96119 0.91915 0.68339 0.0
N209 N 0.91797 0.85284 0.67795 0.0
C210 C 0.92866 0.90855 0.67911 0.0
C211 C 0.9719 0.89611 0.68465 0.0
C212 C 0.90714 0.87489 0.67647 0.0
C213 C 0.94964 0.86268 0.68192 0.0
C214 C 0.95485 0.00521 0.71557 0.0
C215 C 0.92181 0.98561 0.7198 0.0
C216 C 0.96932 0.03969 0.71558 0.0
C217 C 0.90359 0.00081 0.7236 0.0
C218 C 0.95032 0.05398 0.71947 0.0
N219 N 0.91809 0.0344 0.72334 0.0
C220 C 0.9624 0.89744 0.7257 0.0
C221 C 0.91896 0.90157 0.71457 0.0
C222 C 0.93948 0.86815 0.73252 0.0
N223 N 0.95174 0.91345 0.71696 0.0
C224 C 0.89526 0.87252 0.72115 0.0
C225 C 0.90535 0.85542 0.73033 0.0
H226 H 0.98861 0.90753 0.72749 0.0
H227 H 0.91123 0.91489 0.70759 0.0
C228 C 0.9674 0.02255 0.66734 0.0
N229 N 0.95452 0.00234 0.67884 0.0
C230 C 0.94703 0.02908 0.65863 0.0
C231 C 0.90032 0.99278 0.67342 0.0
C232 C 0.92163 0.98725 0.68191 0.0
C233 C 0.91301 0.01407 0.66165 0.0
H234 H 0.99345 0.03344 0.66487 0.0
H235 H 0.91186 0.97055 0.69087 0.0
O236 O 0.02871 0.97563 0.71337 0.0
O237 O 0.03068 0.02425 0.69004 0.0
O238 O 0.98246 0.95192 0.68628 0.0
O239 O 0.97303 0.99067 0.71177 0.0
H240 H 0.08364 0.01712 0.72716 0.0
H241 H 0.03045 0.92081 0.70761 0.0
H242 H 0.12922 0.00619 0.73295 0.0
H243 H 0.07697 0.91157 0.71369 0.0
H244 H 0.04396 0.12667 0.68238 0.0
H245 H 0.09185 0.05336 0.67983 0.0
H246 H 0.01002 0.0681 0.68985 0.0
H247 H 0.12424 0.11211 0.67232 0.0
H248 H 0.14508 0.01081 0.68317 0.0
H249 H 0.07396 0.94446 0.65218 0.0
H250 H 0.04199 0.07775 0.75616 0.0
H251 H 0.12182 0.11929 0.72549 0.0
H252 H 0.92002 0.92604 0.67795 0.0
H253 H 0.99714 0.90395 0.68767 0.0
H254 H 0.88182 0.86631 0.67327 0.0
H255 H 0.95757 0.84456 0.68294 0.0
H256 H 0.91026 0.95892 0.72011 0.0
H257 H 0.99507 0.05532 0.71282 0.0
H258 H 0.87793 0.9859 0.72679 0.0
H259 H 0.96125 0.08064 0.71948 0.0
H260 H 0.94838 0.85569 0.73943 0.0
H261 H 0.86928 0.86408 0.71935 0.0
H262 H 0.95764 0.04518 0.64949 0.0
H263 H 0.87423 0.98072 0.67609 0.0
H264 H 0.88972 0.57972 0.20514 0.0
N265 N 0.93215 0.56303 0.19464 0.0
H266 H 0.89838 0.61696 0.22512 0.0
H267 H 0.98602 0.59067 0.21231 0.0
H268 H 0.99509 0.62818 0.23232 0.0
H269 H 0.99684 0.60678 0.1878 0.0
H270 H 0.0158 0.64732 0.16848 0.0
H271 H 0.89604 0.5652 0.17328 0.0
H272 H 0.91484 0.60538 0.15372 0.0
H273 H 0.89993 0.5144 0.21331 0.0
H274 H 0.973 0.54578 0.17975 0.0
H275 H 0.90252 0.46391 0.21626 0.0
H276 H 0.97423 0.49468 0.18216 0.0
H277 H 0.89062 0.29471 0.21669 0.0
H278 H 0.90353 0.27263 0.23782 0.0
H279 H 0.00289 0.35704 0.23804 0.0
H280 H 0.98982 0.37861 0.21681 0.0
H281 H 0.99108 0.35722 0.19321 0.0
H282 H 0.00053 0.33066 0.1728 0.0
H283 H 0.89738 0.28754 0.16094 0.0
H284 H 0.88796 0.31299 0.18187 0.0
H285 H 0.88205 0.36054 0.20551 0.0
H286 H 0.8842 0.41384 0.20408 0.0
H287 H 0.98977 0.46222 0.19627 0.0
N288 N 0.93116 0.34835 0.202 0.0
H289 H 0.98677 0.4083 0.19698 0.0
C290 C 0.93718 0.58264 0.20724 0.0
C291 C 0.91255 0.58991 0.21118 0.0
C292 C 0.91753 0.61105 0.2226 0.0
C293 C 0.94745 0.62551 0.23027 0.0
C294 C 0.97194 0.61764 0.22651 0.0
C295 C 0.96679 0.59623 0.21511 0.0
C296 C 0.94488 0.58302 0.18198 0.0
C297 C 0.97886 0.60595 0.18028 0.0
C298 C 0.9897 0.62899 0.16918 0.0
C299 C 0.96675 0.62971 0.15968 0.0
C300 C 0.93303 0.60566 0.16099 0.0
C301 C 0.92228 0.58256 0.17205 0.0
C302 C 0.93637 0.53448 0.19646 0.0
C303 C 0.9167 0.51059 0.20663 0.0
C304 C 0.91792 0.48148 0.20819 0.0
C305 C 0.93834 0.47496 0.19935 0.0
C306 C 0.95853 0.49903 0.18929 0.0
C307 C 0.95766 0.52848 0.18787 0.0
C308 C 0.93909 0.33816 0.21518 0.0
C309 C 0.91501 0.3086 0.22145 0.0
C310 C 0.92243 0.29616 0.23354 0.0
C311 C 0.95427 0.31311 0.23962 0.0
C312 C 0.97825 0.34325 0.23352 0.0
C313 C 0.97072 0.35572 0.22141 0.0
C314 C 0.93858 0.33653 0.18916 0.0
C315 C 0.97056 0.34219 0.1862 0.0
C316 C 0.97597 0.32715 0.17441 0.0
C317 C 0.94962 0.30655 0.16529 0.0
C318 C 0.91807 0.30253 0.16791 0.0
C319 C 0.91266 0.31726 0.17977 0.0
C320 C 0.93415 0.38054 0.20151 0.0
C321 C 0.9056 0.38274 0.20354 0.0
C322 C 0.90702 0.4133 0.20283 0.0
C323 C 0.93727 0.44253 0.20022 0.0
C324 C 0.96602 0.44025 0.1982 0.0
C325 C 0.96445 0.40947 0.19876 0.0
H326 H 0.71508 0.11105 0.53471 0.0
N327 N 0.65209 0.07038 0.52787 0.0
H328 H 0.74591 0.10641 0.55477 0.0
H329 H 0.62595 0.02544 0.5497 0.0
H330 H 0.65619 0.02119 0.57008 0.0
H331 H 0.62205 0.00269 0.52631 0.0
H332 H 0.63438 0.97103 0.50898 0.0
H333 H 0.68951 0.09342 0.50474 0.0
H334 H 0.70178 0.06199 0.48728 0.0
H335 H 0.63305 0.09592 0.54933 0.0
H336 H 0.59779 0.04123 0.50983 0.0
H337 H 0.58096 0.09519 0.55196 0.0
H338 H 0.54653 0.0419 0.51225 0.0
H339 H 0.42153 0.1124 0.55177 0.0
H340 H 0.38348 0.09221 0.57199 0.0
H341 H 0.38024 0.998 0.5694 0.0
H342 H 0.41742 0.01809 0.54895 0.0
H343 H 0.39065 0.02051 0.52586 0.0
H344 H 0.35466 0.01446 0.50592 0.0
H345 H 0.41533 0.11908 0.4968 0.0
H346 H 0.45041 0.12507 0.51729 0.0
H347 H 0.50288 0.12438 0.54316 0.0
H348 H 0.55333 0.12081 0.54151 0.0
H349 H 0.49575 0.02078 0.52535 0.0
N350 N 0.44189 0.07888 0.53604 0.0
H351 H 0.44577 0.02525 0.52651 0.0
C352 C 0.66835 0.06879 0.54071 0.0
C353 C 0.70209 0.09166 0.54252 0.0
C354 C 0.71958 0.08901 0.55403 0.0
C355 C 0.70357 0.06338 0.56407 0.0
C356 C 0.66944 0.04091 0.56244 0.0
C357 C 0.65203 0.04342 0.55084 0.0
C358 C 0.65522 0.05053 0.51684 0.0
C359 C 0.63928 0.01574 0.51777 0.0
C360 C 0.64632 0.9977 0.50787 0.0
C361 C 0.66913 0.01405 0.49682 0.0
C362 C 0.68381 0.04865 0.49558 0.0
C363 C 0.67696 0.06666 0.50553 0.0
C364 C 0.61951 0.06703 0.52981 0.0
C365 C 0.61403 0.08301 0.54137 0.0
C366 C 0.58427 0.08312 0.54276 0.0
C367 C 0.55939 0.0683 0.53236 0.0
C368 C 0.56478 0.05278 0.52067 0.0
C369 C 0.59446 0.05238 0.51933 0.0
C370 C 0.4225 0.06701 0.54888 0.0
C371 C 0.41294 0.08758 0.55573 0.0
C372 C 0.39132 0.07599 0.56731 0.0
C373 C 0.3788 0.04344 0.57234 0.0
C374 C 0.38913 0.02306 0.5657 0.0
C375 C 0.4107 0.03467 0.55405 0.0
C376 C 0.423 0.07348 0.52317 0.0
C377 C 0.39643 0.0421 0.51951 0.0
C378 C 0.37594 0.03864 0.508 0.0
C379 C 0.38182 0.06637 0.49982 0.0
C380 C 0.40961 0.09734 0.50305 0.0
C381 C 0.42987 0.1008 0.51465 0.0
C382 C 0.4707 0.07522 0.53502 0.0
C383 C 0.50129 0.10174 0.53928 0.0
C384 C 0.52998 0.09949 0.53843 0.0
C385 C 0.52862 0.07038 0.53339 0.0
C386 C 0.49778 0.04367 0.52915 0.0
C387 C 0.46908 0.04609 0.5299 0.0
H388 H 0.59731 0.69658 0.86752 0.0
N389 N 0.58324 0.63651 0.85927 0.0
H390 H 0.63375 0.72955 0.88714 0.0
H391 H 0.60995 0.61434 0.8796 0.0
H392 H 0.647 0.64737 0.89887 0.0
H393 H 0.62698 0.61359 0.85643 0.0
H394 H 0.66479 0.62465 0.83655 0.0
H395 H 0.58457 0.66512 0.8347 0.0
H396 H 0.6223 0.67608 0.81463 0.0
H397 H 0.524 0.6309 0.85793 0.0
H398 H 0.5726 0.57383 0.86404 0.0
H399 H 0.47 0.5805 0.85997 0.0
H400 H 0.51891 0.52352 0.86675 0.0
H401 H 0.31271 0.41622 0.88729 0.0
H402 H 0.29731 0.37936 0.90797 0.0
H403 H 0.38206 0.36716 0.90058 0.0
H404 H 0.39779 0.4047 0.88015 0.0
H405 H 0.3703 0.38107 0.85834 0.0
H406 H 0.33743 0.3421 0.83972 0.0
H407 H 0.28473 0.39526 0.83311 0.0
H408 H 0.31788 0.43448 0.85196 0.0
H409 H 0.38006 0.49123 0.87864 0.0
H410 H 0.4346 0.541 0.8769 0.0
H411 H 0.47078 0.48529 0.85371 0.0
N412 N 0.3616 0.43112 0.86905 0.0
H413 H 0.41668 0.43551 0.85606 0.0
C414 C 0.60116 0.65323 0.87197 0.0
C415 C 0.60756 0.68552 0.87452 0.0
C416 C 0.62829 0.70424 0.88571 0.0
C417 C 0.64333 0.69102 0.89441 0.0
C418 C 0.63593 0.6582 0.8922 0.0
C419 C 0.61475 0.63931 0.88116 0.0
C420 C 0.60312 0.63894 0.8471 0.0
C421 C 0.62544 0.62692 0.84734 0.0
C422 C 0.64713 0.63328 0.83596 0.0
C423 C 0.6466 0.65136 0.82409 0.0
C424 C 0.62309 0.66183 0.82358 0.0
C425 C 0.60165 0.65574 0.83502 0.0
C426 C 0.55222 0.60623 0.86096 0.0
C427 C 0.52292 0.60747 0.85989 0.0
C428 C 0.49214 0.57866 0.86114 0.0
C429 C 0.49003 0.54788 0.86362 0.0
C430 C 0.51956 0.5467 0.8647 0.0
C431 C 0.5504 0.57559 0.86332 0.0
C432 C 0.35606 0.41293 0.88213 0.0
C433 C 0.3283 0.40613 0.89034 0.0
C434 C 0.31963 0.38518 0.90213 0.0
C435 C 0.33844 0.37033 0.90579 0.0
C436 C 0.36703 0.37813 0.89789 0.0
C437 C 0.376 0.39955 0.88623 0.0
C438 C 0.34637 0.41073 0.85667 0.0
C439 C 0.35212 0.38484 0.85282 0.0
C440 C 0.33316 0.36238 0.84218 0.0
C441 C 0.30828 0.36543 0.8351 0.0
C442 C 0.30384 0.39239 0.83837 0.0
C443 C 0.32269 0.41475 0.84911 0.0
C444 C 0.39405 0.45979 0.86736 0.0
C445 C 0.39983 0.48989 0.87317 0.0
C446 C 0.43096 0.5183 0.87209 0.0
C447 C 0.4571 0.51729 0.86506 0.0
C448 C 0.45135 0.48694 0.85932 0.0
C449 C 0.42019 0.4584 0.86053 0.0
C450 C 0.95994 0.11037 0.08233 0.0
C451 C 0.9908 0.11939 0.07616 0.0
C452 C 0.95608 0.13267 0.09094 0.0
C453 C 0.0042 0.2086 0.11253 0.0
H454 H 0.92198 0.21056 0.11179 0.0
C455 C 0.98414 0.30187 0.14572 0.0
C456 C 0.95448 0.28781 0.1536 0.0
C457 C 0.98914 0.28336 0.1353 0.0
C458 C 0.94504 0.2102 0.11213 0.0
H459 H 0.0419 0.15908 0.07429 0.0
H460 H 0.03486 0.19829 0.08888 0.0
H461 H 0.92977 0.17452 0.09534 0.0
H462 H 0.90692 0.24304 0.15665 0.0
H463 H 0.91541 0.21123 0.1383 0.0
H464 H 0.0194 0.24441 0.12933 0.0
C465 C 0.01373 0.17376 0.08725 0.0
C466 C 0.94947 0.18946 0.10275 0.0
C467 C 0.01764 0.15139 0.07871 0.0
C468 C 0.92977 0.255 0.15061 0.0
C469 C 0.93465 0.23666 0.14011 0.0
C470 C -0.00015 0.22955 0.12182 0.0
C471 C 0.98294 0.16464 0.09353 0.0
C472 C 0.97893 0.18806 0.10296 0.0
C473 C 0.96447 0.25053 0.13244 0.0
C474 C 0.97006 0.23022 0.12185 0.0
H475 H 0.93862 0.0861 0.08046 0.0
H476 H 0.93211 0.12459 0.09575 0.0
H477 H 0.02702 0.20784 0.11314 0.0
H478 H 0.00352 0.3272 0.1476 0.0
H479 H 0.01226 0.29476 0.12943 0.0
C480 C 0.82176 0.95244 0.41134 0.0
C481 C 0.8423 0.94071 0.41651 0.0
C482 C 0.79722 0.95209 0.41998 0.0
C483 C 0.77736 0.95245 0.4579 0.0
H484 H 0.69564 0.9429 0.44265 0.0
C485 C 0.68828 0.97311 0.493 0.0
C486 C 0.67975 0.99572 0.48729 0.0
C487 C 0.70258 0.95918 0.48439 0.0
C488 C 0.71834 0.94555 0.44705 0.0
H489 H 0.85219 0.91791 0.43453 0.0
H490 H 0.80889 0.91677 0.4496 0.0
H491 H 0.73095 0.9308 0.42753 0.0
H492 H 0.67758 0.01989 0.46793 0.0
H493 H 0.70266 0.99563 0.45288 0.0
H494 H 0.76503 0.96772 0.47732 0.0
C495 C 0.81223 0.92692 0.43896 0.0
C496 C 0.73862 0.93874 0.4384 0.0
C497 C 0.83698 0.9275 0.43033 0.0
C498 C 0.68419 0.00277 0.47264 0.0
C499 C 0.69827 0.98865 0.46401 0.0
C500 C 0.75697 0.959 0.46656 0.0
C501 C 0.79248 0.93982 0.43398 0.0
C502 C 0.76879 0.94288 0.44362 0.0
C503 C 0.7084 0.96738 0.46987 0.0
C504 C 0.72762 0.95633 0.46115 0.0
H505 H 0.82557 0.96323 0.40081 0.0
H506 H 0.78295 0.96279 0.41586 0.0
H507 H 0.80061 0.95643 0.46223 0.0
H508 H 0.68537 0.96738 0.50427 0.0
H509 H 0.70988 0.94264 0.48916 0.0
C510 C 0.85031 0.80273 0.73141 0.0
C511 C 0.88019 0.82554 0.73808 0.0
C512 C 0.825 0.7769 0.73916 0.0
C513 C 0.80528 0.72949 0.77278 0.0
H514 H 0.72063 0.72591 0.76931 0.0
C515 C 0.70578 0.67611 0.8166 0.0
C516 C 0.6722 0.66179 0.81284 0.0
C517 C 0.73043 0.6898 0.80619 0.0
C518 C 0.74378 0.72588 0.77023 0.0
H519 H 0.90735 0.83808 0.75803 0.0
H520 H 0.86331 0.79274 0.77149 0.0
H521 H 0.76558 0.76087 0.75327 0.0
H522 H 0.63794 0.64872 0.79519 0.0
H523 H 0.68095 0.6719 0.77691 0.0
H524 H 0.7836 0.69479 0.78988 0.0
C525 C 0.85957 0.79482 0.76024 0.0
C526 C 0.76961 0.74605 0.76103 0.0
C527 C 0.88482 0.8208 0.75251 0.0
C528 C 0.66367 0.65999 0.79839 0.0
C529 C 0.68833 0.67339 0.78795 0.0
C530 C 0.7793 0.70902 0.78192 0.0
C531 C 0.8291 0.77312 0.75373 0.0
C532 C 0.80083 0.74862 0.7624 0.0
C533 C 0.72207 0.68924 0.79175 0.0
C534 C 0.74844 0.70755 0.78096 0.0
H535 H 0.8462 0.80522 0.72023 0.0
H536 H 0.80193 0.76023 0.73382 0.0
H537 H 0.829 0.73071 0.77396 0.0
H538 H 0.7131 0.67822 0.82767 0.0
H539 H 0.75608 0.70223 0.80958 0.0
C540 C 0.05084 0.88056 0.0888 0.0
C541 C 0.03407 0.87246 0.07569 0.0
C542 C 0.04955 0.85569 0.09756 0.0
C543 C 0.02824 0.76766 0.09839 0.0
H544 H 0.00319 0.77103 0.13748 0.0
C545 C 0.00648 0.66828 0.14121 0.0
C546 C 0.97745 0.6572 0.14932 0.0
C547 C 0.01715 0.69542 0.13204 0.0
C548 C 0.01023 0.76979 0.1266 0.0
H549 H 0.00452 0.83233 0.06107 0.0
H550 H 0.00201 0.78889 0.07639 0.0
H551 H 0.01668 0.81739 0.12157 0.0
H552 H 0.93703 0.66603 0.15426 0.0
H553 H 0.95547 0.71306 0.13823 0.0
H554 H 0.02078 0.71949 0.1034 0.0
C555 C 0.01619 0.81441 0.07992 0.0
C556 C 0.01832 0.79648 0.11753 0.0
C557 C 0.01731 0.83923 0.07121 0.0
C558 C 0.95925 0.67367 0.14801 0.0
C559 C 0.97003 0.70088 0.13898 0.0
C560 C 0.02037 0.74099 0.10752 0.0
C561 C 0.03167 0.82228 0.09332 0.0
C562 C 0.02681 0.79546 0.10326 0.0
C563 C 0.9992 0.7122 0.13098 0.0
C564 C 0.0106 0.74153 0.12162 0.0
H565 H 0.06386 0.90595 0.09255 0.0
H566 H 0.06198 0.86251 0.10778 0.0
H567 H 0.03496 0.76632 0.08747 0.0
H568 H 0.02093 0.65597 0.14198 0.0
H569 H 0.03976 0.70369 0.12601 0.0
C570 C 0.16355 0.05369 0.42224 0.0
C571 C 0.1437 0.02258 0.41582 0.0
C572 C 0.19077 0.05961 0.43062 0.0
C573 C 0.24956 0.03029 0.43749 0.0
H574 H 0.26077 0.07287 0.47417 0.0
C575 C 0.34158 0.03496 0.48007 0.0
C576 C 0.35779 0.06342 0.48867 0.0
C577 C 0.31703 0.03119 0.47044 0.0
C578 C 0.25838 0.06145 0.46386 0.0
H579 H 0.13685 0.9732 0.41334 0.0
H580 H 0.18464 0.9838 0.42777 0.0
H581 H 0.21509 0.06427 0.45878 0.0
H582 H 0.36111 0.11051 0.49364 0.0
H583 H 0.31943 0.10452 0.47651 0.0
H584 H 0.29297 0.02762 0.44252 0.0
C585 C 0.17926 0.00366 0.42619 0.0
C586 C 0.23212 0.05645 0.45506 0.0
C587 C 0.15191 0.99764 0.4179 0.0
C588 C 0.34951 0.08843 0.48709 0.0
C589 C 0.32517 0.08476 0.47741 0.0
C590 C 0.27602 0.03551 0.44625 0.0
C591 C 0.19888 0.03465 0.43269 0.0
C592 C 0.22734 0.04069 0.44182 0.0
C593 C 0.30821 0.05586 0.46913 0.0
C594 C 0.28068 0.05104 0.45957 0.0
H595 H 0.15831 0.07363 0.42068 0.0
H596 H 0.2057 0.08387 0.43537 0.0
H597 H 0.24668 0.01841 0.42725 0.0
H598 H 0.34761 0.01539 0.48087 0.0
H599 H 0.30433 0.00849 0.46432 0.0
C600 C 0.12202 0.16302 0.7468 0.0
C601 C 0.10483 0.13026 0.75186 0.0
C602 C 0.14297 0.18901 0.75581 0.0
C603 C 0.19434 0.20589 0.78745 0.0
H604 H 0.193 0.28834 0.7894 0.0
C605 C 0.27124 0.30574 0.82902 0.0
C606 C 0.28552 0.33921 0.82512 0.0
C607 C 0.24905 0.28076 0.81994 0.0
C608 C 0.19408 0.26569 0.78883 0.0
H609 H 0.09578 0.09899 0.77032 0.0
H610 H 0.13265 0.14445 0.78609 0.0
H611 H 0.15383 0.24373 0.77392 0.0
H612 H 0.28799 0.37285 0.80864 0.0
H613 H 0.24981 0.32912 0.79251 0.0
H614 H 0.23496 0.2278 0.80202 0.0
C615 C 0.12984 0.14997 0.77515 0.0
C616 C 0.17151 0.2401 0.78002 0.0
C617 C 0.10856 0.12403 0.76618 0.0
C618 C 0.27719 0.34723 0.81192 0.0
C619 C 0.2552 0.32216 0.80274 0.0
C620 C 0.21713 0.23155 0.79612 0.0
C621 C 0.14746 0.18266 0.77002 0.0
C622 C 0.17129 0.20988 0.77933 0.0
C623 C 0.2408 0.28858 0.80665 0.0
C624 C 0.21715 0.26171 0.79702 0.0
H625 H 0.1194 0.16852 0.73582 0.0
H626 H 0.15637 0.21394 0.75157 0.0
H627 H 0.1951 0.18306 0.78692 0.0
H628 H 0.2767 0.29885 0.83926 0.0
H629 H 0.23792 0.25529 0.82348 0.0
C630 C 0.86018 0.9937 0.64796 0.0
C631 C 0.89077 0.02019 0.65246 0.0
C632 C 0.83926 0.99937 0.63922 0.0
C633 C 0.83955 0.06163 0.61454 0.0
H634 H 0.74416 0.00877 0.61904 0.0
C635 C 0.74896 0.08711 0.58246 0.0
C636 C 0.72281 0.05929 0.57575 0.0
C637 C 0.76857 0.08325 0.59268 0.0
C638 C 0.77076 0.02362 0.61765 0.0
H639 H 0.92321 0.07341 0.65158 0.0
H640 H 0.88644 0.0835 0.63656 0.0
H641 H 0.78035 0.00067 0.6353 0.0
H642 H 0.69664 0.00552 0.57475 0.0
H643 H 0.73041 0.99889 0.59281 0.0
H644 H 0.82981 0.08473 0.59695 0.0
C645 C 0.87888 0.05822 0.63949 0.0
C646 C 0.79152 0.01891 0.62691 0.0
C647 C 0.89994 0.05249 0.64812 0.0
C648 C 0.71617 0.0275 0.57984 0.0
C649 C 0.73559 0.02365 0.59016 0.0
C650 C 0.81879 0.06654 0.60538 0.0
C651 C 0.84831 0.03171 0.63487 0.0
C652 C 0.82619 0.03763 0.62539 0.0
C653 C 0.76226 0.0515 0.59654 0.0
C654 C 0.78419 0.04739 0.60676 0.0
H655 H 0.85267 0.96848 0.65099 0.0
H656 H 0.81626 0.97827 0.63566 0.0
H657 H 0.86607 0.07611 0.61288 0.0
H658 H 0.7544 0.11193 0.57978 0.0
H659 H 0.78871 0.10513 0.59758 0.0
C660 C 0.84281 0.88181 0.98257 0.0
C661 C 0.87577 0.89098 0.97946 0.0
C662 C 0.81718 0.86083 0.9734 0.0
C663 C 0.80131 0.82519 0.93669 0.0
H664 H 0.71607 0.76178 0.95278 0.0
C665 C 0.69986 0.71485 0.90503 0.0
C666 C 0.66849 0.71224 0.90506 0.0
C667 C 0.72462 0.73666 0.91431 0.0
C668 C 0.73972 0.77951 0.94816 0.0
H669 H 0.9079 0.88527 0.96451 0.0
H670 H 0.86323 0.84764 0.94877 0.0
H671 H 0.76066 0.79997 0.96847 0.0
H672 H 0.63804 0.72963 0.915 0.0
H673 H 0.68129 0.76732 0.93159 0.0
H674 H 0.78044 0.80363 0.91643 0.0
C675 C 0.85703 0.85741 0.95799 0.0
C676 C 0.76526 0.80158 0.95712 0.0
C677 C 0.8827 0.87886 0.96703 0.0
C678 C 0.66206 0.73126 0.91478 0.0
C679 C 0.68668 0.75265 0.92427 0.0
C680 C 0.77596 0.80273 0.92779 0.0
C681 C 0.82387 0.84804 0.96105 0.0
C682 C 0.79645 0.82476 0.9515 0.0
C683 C 0.7183 0.75586 0.92396 0.0
C684 C 0.74496 0.77971 0.93344 0.0
H685 H 0.83691 0.8911 0.99204 0.0
H686 H 0.79214 0.85483 0.97599 0.0
H687 H 0.82463 0.84307 0.93189 0.0
H688 H 0.70553 0.70068 0.89754 0.0
H689 H 0.74876 0.73858 0.91395 0.0
C690 C 0.94714 0.81877 0.31799 0.0
C691 C 0.97462 0.85103 0.31778 0.0
C692 C 0.94582 0.79436 0.30893 0.0
C693 C 0.98188 0.78292 0.27581 0.0
H694 H 0.94562 0.69313 0.28991 0.0
C695 C 0.98358 0.68007 0.24227 0.0
C696 C 0.95346 0.64991 0.24167 0.0
C697 C 0.98809 0.70437 0.25218 0.0
C698 C 0.95565 0.71806 0.28581 0.0
H699 H 0.02239 0.88295 0.30799 0.0
H700 H 0.02023 0.84028 0.29223 0.0
H701 H 0.94956 0.73638 0.3058 0.0
H702 H 0.905 0.62096 0.25136 0.0
H703 H 0.91281 0.66342 0.26863 0.0
H704 H 0.98791 0.76453 0.25581 0.0
C705 C -0.00057 0.83397 0.29923 0.0
C706 C 0.95782 0.74282 0.29489 0.0
C707 C 0.00067 0.85843 0.30825 0.0
C708 C 0.92837 0.64409 0.2515 0.0
C709 C 0.93295 0.66828 0.26146 0.0
C710 C 0.97984 0.75818 0.26675 0.0
C711 C 0.97203 0.80161 0.2995 0.0
C712 C 0.97069 0.7755 0.28996 0.0
C713 C 0.96266 0.69889 0.26176 0.0
C714 C 0.96646 0.72544 0.27162 0.0
H715 H 0.92648 0.81247 0.32508 0.0
H716 H 0.92406 0.76988 0.30922 0.0
H717 H 0.99149 0.80771 0.27161 0.0
H718 H 0.00326 0.68536 0.23475 0.0
H719 H 0.01138 0.72759 0.25226 0.0
C720 C 0.17147 0.00892 0.65697 0.0
C721 C 0.14106 0.97906 0.65798 0.0
C722 C 0.19751 0.01066 0.64897 0.0
C723 C 0.21516 0.97421 0.61851 0.0
H724 H 0.30505 0.02062 0.63318 0.0
C725 C 0.32618 0.99825 0.58318 0.0
C726 C 0.35374 0.03047 0.58394 0.0
C727 C 0.30099 0.98722 0.59337 0.0
C728 C 0.28014 0.00775 0.62888 0.0
H729 H 0.11446 0.9275 0.65136 0.0
H730 H 0.15988 0.93096 0.63699 0.0
H731 H 0.25896 0.01027 0.64877 0.0
H732 H 0.3772 0.07568 0.59643 0.0
H733 H 0.33291 0.05698 0.61386 0.0
H734 H 0.23625 0.973 0.59846 0.0
C735 C 0.16337 0.95288 0.64252 0.0
C736 C 0.25377 0.00173 0.63783 0.0
C737 C 0.13735 0.951 0.65069 0.0
C738 C 0.35609 0.05091 0.59541 0.0
C739 C 0.33085 0.03997 0.60553 0.0
C740 C 0.24157 0.98052 0.60951 0.0
C741 C 0.19371 0.98273 0.64163 0.0
C742 C 0.22111 0.98552 0.63265 0.0
C743 C 0.3027 0.00819 0.60451 0.0
C744 C 0.27445 0.99801 0.61451 0.0
H745 H 0.17506 0.03128 0.66211 0.0
H746 H 0.22041 0.03417 0.64824 0.0
H747 H 0.19024 0.9619 0.61422 0.0
H748 H 0.32343 0.98192 0.57443 0.0
H749 H 0.27989 0.96243 0.59237 0.0
C750 C 0.17993 0.12036 0.97545 0.0
C751 C 0.16897 0.12428 0.98886 0.0
C752 C 0.20309 0.14805 0.96776 0.0
C753 C 0.23 0.23537 0.9632 0.0
H754 H 0.30557 0.24063 0.94346 0.0
C755 C 0.31614 0.35044 0.93029 0.0
C756 C 0.32657 0.34481 0.91709 0.0
C757 C 0.30138 0.32497 0.94031 0.0
C758 C 0.28441 0.23944 0.9488 0.0
H759 H 0.17388 0.16015 0.00482 0.0
H760 H 0.21416 0.20838 0.99138 0.0
H761 H 0.27088 0.19255 0.95839 0.0
H762 H 0.33049 0.30853 0.90409 0.0
H763 H 0.30387 0.26375 0.92134 0.0
H764 H 0.2423 0.28126 0.95327 0.0
C765 C 0.20496 0.18394 0.98684 0.0
C766 C 0.26465 0.21195 0.95737 0.0
C767 C 0.18213 0.15631 0.99457 0.0
C768 C 0.323 0.3136 0.91427 0.0
C769 C 0.3078 0.28797 0.92419 0.0
C770 C 0.24944 0.26259 0.95452 0.0
C771 C 0.21532 0.18012 0.97329 0.0
C772 C 0.2372 0.20964 0.96461 0.0
C773 C 0.29619 0.29313 0.93724 0.0
C774 C 0.27684 0.26496 0.94714 0.0
H775 H 0.17029 0.09594 0.97083 0.0
H776 H 0.21053 0.14445 0.95729 0.0
H777 H 0.20867 0.23397 0.96849 0.0
H778 H 0.31894 0.37442 0.93276 0.0
H779 H 0.2935 0.33011 0.95037 0.0
C780 C 0.02664 0.15263 0.31996 0.0
C781 C 0.00065 0.13086 0.32895 0.0
C782 C 0.02338 0.17556 0.3115 0.0
C783 C 0.95868 0.18924 0.29561 0.0
H784 H 0.03175 0.27766 0.28804 0.0
C785 C 0.93965 0.28204 0.26276 0.0
C786 C 0.96268 0.29826 0.25178 0.0
C787 C 0.94593 0.26484 0.27333 0.0
C788 C 0.01118 0.25298 0.29003 0.0
H789 H 0.95095 0.11651 0.33614 0.0
H790 H 0.94583 0.15708 0.32186 0.0
H791 H 0.03965 0.24129 0.30437 0.0
H792 H 0.01093 0.31014 0.2436 0.0
H793 H 0.02195 0.2802 0.26212 0.0
H794 H 0.93026 0.20074 0.28127 0.0
C795 C 0.96853 0.15611 0.32114 0.0
C796 C 0.01571 0.23212 0.29934 0.0
C797 C 0.97168 0.13312 0.32951 0.0
C798 C 0.99282 0.29818 0.25199 0.0
C799 C 0.99914 0.281 0.26259 0.0
C800 C 0.95414 0.21008 0.28639 0.0
C801 C 0.99409 0.17726 0.31186 0.0
C802 C 0.98949 0.19996 0.30222 0.0
C803 C 0.97541 0.26351 0.27318 0.0
C804 C 0.98031 0.24215 0.28346 0.0
H805 H 0.04945 0.15186 0.31939 0.0
H806 H 0.04348 0.19132 0.3044 0.0
H807 H 0.93816 0.16439 0.29731 0.0
H808 H 0.91648 0.28218 0.26306 0.0
H809 H 0.92745 0.25212 0.28152 0.0
loop_
_geom_bond_atom_site_label_1
_geom_bond_atom_site_label_2
_geom_bond_distance
_geom_bond_site_symmetry_2
_ccdc_geom_bond_type
Li0 N17 1.990 . S
Li0 O60 1.956 . S
Li0 O61 1.970 1_455 S
Li0 O62 1.961 1_545 S
Li1 N25 1.990 . S
Li1 O60 1.970 1_655 S
Li1 O61 1.956 . S
Li1 O63 1.961 1_545 S
Li2 N47 1.990 . S
Li2 O60 1.961 1_565 S
Li2 O62 1.956 . S
Li2 O63 1.970 1_455 S
Li3 N53 1.990 . S
Li3 O61 1.961 1_565 S
Li3 O62 1.970 1_655 S
Li3 O63 1.956 . S
C4 C6 1.348 . S
C4 C7 1.356 . S
C4 O60 1.325 . S
N5 C8 1.314 . S
N5 C9 1.279 . S
C6 C4 1.348 . S
C6 C8 1.353 . S
C6 H64 0.929 . S
C7 C4 1.356 . S
C7 C9 1.358 . S
C7 H65 0.930 . S
C8 N5 1.314 . S
C8 C6 1.353 . S
C8 H66 0.930 . S
C9 N5 1.279 . S
C9 C7 1.358 . S
C9 H67 0.930 . S
C10 C13 1.348 1_655 S
C10 C14 1.356 . S
C10 O61 1.325 . S
C11 N12 1.272 1_554 S
C11 C14 1.358 . S
C11 H68 0.930 . S
N12 C11 1.272 1_556 S
N12 C15 1.312 1_556 S
C13 C10 1.348 1_455 S
C13 C15 1.353 1_455 S
C13 H69 0.929 . S
C14 C10 1.356 . S
C14 C11 1.358 . S
C14 H70 0.930 . S
C15 N12 1.312 1_554 S
C15 C13 1.353 1_655 S
C15 H71 0.930 1_654 S
C16 N17 1.314 1_556 S
C16 C21 1.353 . S
C16 H22 0.929 . S
N17 Li0 1.990 . S
N17 C16 1.314 1_554 S
N17 C19 1.279 . S
C18 C19 1.358 . S
C18 C20 1.356 1_554 S
C18 H72 0.930 . S
C19 N17 1.279 . S
C19 C18 1.358 . S
C19 H23 0.930 . S
C20 C18 1.356 1_556 S
C20 C21 1.348 . S
C21 C16 1.353 . S
C21 C20 1.348 . S
C21 H73 0.929 . S
H22 C16 0.929 . S
H23 C19 0.930 . S
C24 N25 1.314 . S
C24 C26 1.353 . S
C24 H30 0.930 . S
N25 Li1 1.990 . S
N25 C24 1.314 . S
N25 C28 1.279 . S
C26 C24 1.353 . S
C26 C29 1.348 . S
C26 H74 0.929 . S
C27 C28 1.358 . S
C27 C29 1.356 . S
C27 H75 0.930 . S
C28 N25 1.279 . S
C28 C27 1.358 . S
C28 H31 0.930 . S
C29 C26 1.348 . S
C29 C27 1.356 . S
H30 C24 0.930 . S
H31 C28 0.930 . S
C32 C34 1.348 1_455 S
C32 C35 1.356 . S
C32 O62 1.325 . S
N33 C36 1.312 1_556 S
N33 C37 1.272 1_556 S
C34 C32 1.348 1_655 S
C34 C36 1.353 1_655 S
C34 H76 0.929 . S
C35 C32 1.356 . S
C35 C37 1.358 . S
C35 H77 0.930 . S
C36 N33 1.312 1_554 S
C36 C34 1.353 1_455 S
C36 H78 0.930 1_454 S
C37 N33 1.272 1_554 S
C37 C35 1.358 . S
C37 H79 0.930 . S
C38 C39 1.348 . S
C38 C40 1.356 . S
C38 O63 1.325 . S
C39 C38 1.348 . S
C39 C41 1.353 . S
C39 H80 0.929 . S
C40 C38 1.356 . S
C40 C42 1.358 . S
C40 H81 0.930 . S
C41 C39 1.353 . S
C41 N43 1.314 . S
C41 H82 0.930 . S
C42 C40 1.358 . S
C42 N43 1.279 . S
C42 H83 0.930 . S
N43 C41 1.314 . S
N43 C42 1.279 . S
C44 C46 1.353 . S
C44 N47 1.314 . S
C44 H50 0.930 . S
C45 N47 1.279 . S
C45 C48 1.358 . S
C45 H51 0.930 . S
C46 C44 1.353 . S
C46 C49 1.348 . S
C46 H84 0.929 . S
N47 Li2 1.990 . S
N47 C44 1.314 . S
N47 C45 1.279 . S
C48 C45 1.358 . S
C48 C49 1.356 . S
C48 H85 0.930 . S
C49 C46 1.348 . S
C49 C48 1.356 . S
H50 C44 0.930 . S
H51 C45 0.930 . S
C52 N53 1.314 1_556 S
C52 C54 1.353 . S
C52 H58 0.929 . S
N53 Li3 1.990 . S
N53 C52 1.314 1_554 S
N53 C56 1.279 . S
C54 C52 1.353 . S
C54 C57 1.348 . S
C54 H86 0.929 . S
C55 C56 1.358 . S
C55 C57 1.356 1_554 S
C55 H87 0.930 . S
C56 N53 1.279 . S
C56 C55 1.358 . S
C56 H59 0.930 . S
C57 C54 1.348 . S
C57 C55 1.356 1_556 S
H58 C52 0.929 . S
H59 C56 0.930 . S
O60 Li0 1.956 . S
O60 Li1 1.970 1_455 S
O60 Li2 1.961 1_545 S
O60 C4 1.325 . S
O61 Li0 1.970 1_655 S
O61 Li1 1.956 . S
O61 Li3 1.961 1_545 S
O61 C10 1.325 . S
O62 Li0 1.961 1_565 S
O62 Li2 1.956 . S
O62 Li3 1.970 1_455 S
O62 C32 1.325 . S
O63 Li1 1.961 1_565 S
O63 Li2 1.970 1_655 S
O63 Li3 1.956 . S
O63 C38 1.325 . S
H64 C6 0.929 . S
H65 C7 0.930 . S
H66 C8 0.930 . S
H67 C9 0.930 . S
H68 C11 0.930 . S
H69 C13 0.929 . S
H70 C14 0.930 . S
H71 C15 0.930 1_456 S
H72 C18 0.930 . S
H73 C21 0.929 . S
H74 C26 0.929 . S
H75 C27 0.930 . S
H76 C34 0.929 . S
H77 C35 0.930 . S
H78 C36 0.930 1_656 S
H79 C37 0.930 . S
H80 C39 0.929 . S
H81 C40 0.930 . S
H82 C41 0.930 . S
H83 C42 0.930 . S
H84 C46 0.929 . S
H85 C48 0.930 . S
H86 C54 0.929 . S
H87 C55 0.930 . S
Li88 N105 1.990 . S
Li88 O148 1.956 . S
Li88 O149 1.970 1_665 S
Li88 O150 1.961 . S
Li89 N113 1.990 . S
Li89 O148 1.970 1_445 S
Li89 O149 1.956 . S
Li89 O151 1.961 . S
Li90 N135 1.990 . S
Li90 O148 1.961 . S
Li90 O150 1.956 . S
Li90 O151 1.970 1_665 S
Li91 N141 1.990 . S
Li91 O149 1.961 . S
Li91 O150 1.970 1_445 S
Li91 O151 1.956 . S
C92 C94 1.348 1_655 S
C92 C95 1.356 . S
C92 O148 1.325 . S
N93 C96 1.314 . S
N93 C97 1.279 . S
C94 C92 1.348 1_455 S
C94 C96 1.353 1_455 S
C94 H152 0.929 . S
C95 C92 1.356 . S
C95 C97 1.358 . S
C95 H153 0.930 . S
C96 N93 1.314 . S
C96 C94 1.353 1_655 S
C96 H154 0.930 1_655 S
C97 N93 1.279 . S
C97 C95 1.358 . S
C97 H155 0.930 . S
C98 C101 1.348 1_545 S
C98 C102 1.356 . S
C98 O149 1.325 . S
C99 N100 1.279 . S
C99 C102 1.358 . S
C99 H156 0.930 . S
N100 C99 1.279 . S
N100 C103 1.314 . S
C101 C98 1.348 1_565 S
C101 C103 1.353 1_565 S
C101 H157 0.929 . S
C102 C98 1.356 . S
C102 C99 1.358 . S
C102 H158 0.930 . S
C103 N100 1.314 . S
C103 C101 1.353 1_545 S
C103 H159 0.930 1_545 S
C104 N105 1.314 . S
C104 C109 1.353 . S
C104 H110 0.930 . S
N105 Li88 1.990 . S
N105 C104 1.314 . S
N105 C107 1.279 . S
C106 C107 1.358 . S
C106 C108 1.356 . S
C106 H160 0.930 . S
C107 N105 1.279 . S
C107 C106 1.358 . S
C107 H111 0.930 . S
C108 C106 1.356 . S
C108 C109 1.348 . S
C109 C104 1.353 . S
C109 C108 1.348 . S
C109 H161 0.929 . S
H110 C104 0.930 . S
H111 C107 0.930 . S
C112 N113 1.314 . S
C112 C114 1.353 . S
C112 H118 0.930 . S
N113 Li89 1.990 . S
N113 C112 1.314 . S
N113 C116 1.279 . S
C114 C112 1.353 . S
C114 C117 1.348 . S
C114 H162 0.929 . S
C115 C116 1.358 . S
C115 C117 1.356 . S
C115 H163 0.930 . S
C116 N113 1.279 . S
C116 C115 1.358 . S
C116 H119 0.930 . S
C117 C114 1.348 . S
C117 C115 1.356 . S
H118 C112 0.930 . S
H119 C116 0.930 . S
C120 C122 1.348 1_565 S
C120 C123 1.356 . S
C120 O150 1.325 . S
N121 C124 1.314 . S
N121 C125 1.279 . S
C122 C120 1.348 1_545 S
C122 C124 1.353 1_545 S
C122 H164 0.929 . S
C123 C120 1.356 . S
C123 C125 1.358 . S
C123 H165 0.930 . S
C124 N121 1.314 . S
C124 C122 1.353 1_565 S
C124 H166 0.930 1_565 S
C125 N121 1.279 . S
C125 C123 1.358 . S
C125 H167 0.930 . S
C126 C127 1.348 1_455 S
C126 C128 1.356 . S
C126 O151 1.325 . S
C127 C126 1.348 1_655 S
C127 C129 1.353 1_655 S
C127 H168 0.929 . S
C128 C126 1.356 . S
C128 C130 1.358 . S
C128 H169 0.930 . S
C129 C127 1.353 1_455 S
C129 N131 1.314 . S
C129 H170 0.930 1_455 S
C130 C128 1.358 . S
C130 N131 1.279 . S
C130 H171 0.930 . S
N131 C129 1.314 . S
N131 C130 1.279 . S
C132 C134 1.353 . S
C132 N135 1.314 . S
C132 H138 0.930 . S
C133 N135 1.279 . S
C133 C136 1.358 . S
C133 H139 0.930 . S
C134 C132 1.353 . S
C134 C137 1.348 . S
C134 H172 0.929 . S
N135 Li90 1.990 . S
N135 C132 1.314 . S
N135 C133 1.279 . S
C136 C133 1.358 . S
C136 C137 1.356 . S
C136 H173 0.930 . S
C137 C134 1.348 . S
C137 C136 1.356 . S
H138 C132 0.930 . S
H139 C133 0.930 . S
C140 N141 1.314 . S
C140 C142 1.353 . S
C140 H146 0.930 . S
N141 Li91 1.990 . S
N141 C140 1.314 . S
N141 C144 1.279 . S
C142 C140 1.353 . S
C142 C145 1.348 . S
C142 H174 0.929 . S
C143 C144 1.358 . S
C143 C145 1.356 . S
C143 H175 0.930 . S
C144 N141 1.279 . S
C144 C143 1.358 . S
C144 H147 0.930 . S
C145 C142 1.348 . S
C145 C143 1.356 . S
H146 C140 0.930 . S
H147 C144 0.930 . S
O148 Li88 1.956 . S
O148 Li89 1.970 1_665 S
O148 Li90 1.961 . S
O148 C92 1.325 . S
O149 Li88 1.970 1_445 S
O149 Li89 1.956 . S
O149 Li91 1.961 . S
O149 C98 1.325 . S
O150 Li88 1.961 . S
O150 Li90 1.956 . S
O150 Li91 1.970 1_665 S
O150 C120 1.325 . S
O151 Li89 1.961 . S
O151 Li90 1.970 1_445 S
O151 Li91 1.956 . S
O151 C126 1.325 . S
H152 C94 0.929 . S
H153 C95 0.930 . S
H154 C96 0.930 1_455 S
H155 C97 0.930 . S
H156 C99 0.930 . S
H157 C101 0.929 . S
H158 C102 0.930 . S
H159 C103 0.930 1_565 S
H160 C106 0.930 . S
H161 C109 0.929 . S
H162 C114 0.929 . S
H163 C115 0.930 . S
H164 C122 0.929 . S
H165 C123 0.930 . S
H166 C124 0.930 1_545 S
H167 C125 0.930 . S
H168 C127 0.929 . S
H169 C128 0.930 . S
H170 C129 0.930 1_655 S
H171 C130 0.930 . S
H172 C134 0.929 . S
H173 C136 0.930 . S
H174 C142 0.929 . S
H175 C143 0.930 . S
Li176 N193 1.990 . S
Li176 O236 1.956 . S
Li176 O237 1.970 1_565 S
Li176 O238 1.961 1_455 S
Li177 N201 1.990 . S
Li177 O236 1.970 1_545 S
Li177 O237 1.956 . S
Li177 O239 1.961 1_455 S
Li178 N223 1.990 . S
Li178 O236 1.961 1_655 S
Li178 O238 1.956 . S
Li178 O239 1.970 1_565 S
Li179 N229 1.990 . S
Li179 O237 1.961 1_655 S
Li179 O238 1.970 1_545 S
Li179 O239 1.956 . S
C180 C182 1.348 1_565 S
C180 C183 1.356 . S
C180 O236 1.325 . S
N181 C184 1.314 . S
N181 C185 1.279 . S
C182 C180 1.348 1_545 S
C182 C184 1.353 1_545 S
C182 H240 0.929 . S
C183 C180 1.356 . S
C183 C185 1.358 . S
C183 H241 0.930 . S
C184 N181 1.314 . S
C184 C182 1.353 1_565 S
C184 H242 0.930 1_565 S
C185 N181 1.279 . S
C185 C183 1.358 . S
C185 H243 0.930 . S
C186 C189 1.348 . S
C186 C190 1.356 . S
C186 O237 1.325 . S
C187 N188 1.279 . S
C187 C190 1.358 . S
C187 H244 0.930 . S
N188 C187 1.279 . S
N188 C191 1.314 . S
C189 C186 1.348 . S
C189 C191 1.353 . S
C189 H245 0.929 . S
C190 C186 1.356 . S
C190 C187 1.358 . S
C190 H246 0.930 . S
C191 N188 1.314 . S
C191 C189 1.353 . S
C191 H247 0.930 . S
C192 N193 1.314 . S
C192 C197 1.353 . S
C192 H198 0.930 . S
N193 Li176 1.990 . S
N193 C192 1.314 . S
N193 C195 1.279 . S
C194 C195 1.358 . S
C194 C196 1.356 . S
C194 H248 0.930 . S
C195 N193 1.279 . S
C195 C194 1.358 . S
C195 H199 0.930 . S
C196 C194 1.356 . S
C196 C197 1.348 . S
C197 C192 1.353 . S
C197 C196 1.348 . S
C197 H249 0.929 . S
H198 C192 0.930 . S
H199 C195 0.930 . S
C200 N201 1.314 . S
C200 C202 1.353 . S
C200 H206 0.930 . S
N201 Li177 1.990 . S
N201 C200 1.314 . S
N201 C204 1.279 . S
C202 C200 1.353 . S
C202 C205 1.348 . S
C202 H250 0.929 . S
C203 C204 1.358 . S
C203 C205 1.356 . S
C203 H251 0.930 . S
C204 N201 1.279 . S
C204 C203 1.358 . S
C204 H207 0.930 . S
C205 C202 1.348 . S
C205 C203 1.356 . S
H206 C200 0.930 . S
H207 C204 0.930 . S
C208 C210 1.348 . S
C208 C211 1.356 . S
C208 O238 1.325 . S
N209 C212 1.314 . S
N209 C213 1.279 . S
C210 C208 1.348 . S
C210 C212 1.353 . S
C210 H252 0.929 . S
C211 C208 1.356 . S
C211 C213 1.358 . S
C211 H253 0.930 . S
C212 N209 1.314 . S
C212 C210 1.353 . S
C212 H254 0.930 . S
C213 N209 1.279 . S
C213 C211 1.358 . S
C213 H255 0.930 . S
C214 C215 1.348 1_545 S
C214 C216 1.356 . S
C214 O239 1.325 . S
C215 C214 1.348 1_565 S
C215 C217 1.353 1_565 S
C215 H256 0.929 . S
C216 C214 1.356 . S
C216 C218 1.358 . S
C216 H257 0.930 . S
C217 C215 1.353 1_545 S
C217 N219 1.314 . S
C217 H258 0.930 1_545 S
C218 C216 1.358 . S
C218 N219 1.279 . S
C218 H259 0.930 . S
N219 C217 1.314 . S
N219 C218 1.279 . S
C220 C222 1.353 . S
C220 N223 1.314 . S
C220 H226 0.930 . S
C221 N223 1.279 . S
C221 C224 1.358 . S
C221 H227 0.930 . S
C222 C220 1.353 . S
C222 C225 1.348 . S
C222 H260 0.929 . S
N223 Li178 1.990 . S
N223 C220 1.314 . S
N223 C221 1.279 . S
C224 C221 1.358 . S
C224 C225 1.356 . S
C224 H261 0.930 . S
C225 C222 1.348 . S
C225 C224 1.356 . S
H226 C220 0.930 . S
H227 C221 0.930 . S
C228 N229 1.314 . S
C228 C230 1.353 . S
C228 H234 0.930 . S
N229 Li179 1.990 . S
N229 C228 1.314 . S
N229 C232 1.279 . S
C230 C228 1.353 . S
C230 C233 1.348 . S
C230 H262 0.929 . S
C231 C232 1.358 . S
C231 C233 1.356 . S
C231 H263 0.930 . S
C232 N229 1.279 . S
C232 C231 1.358 . S
C232 H235 0.930 . S
C233 C230 1.348 . S
C233 C231 1.356 . S
H234 C228 0.930 . S
H235 C232 0.930 . S
O236 Li176 1.956 . S
O236 Li177 1.970 1_565 S
O236 Li178 1.961 1_455 S
O236 C180 1.325 . S
O237 Li176 1.970 1_545 S
O237 Li177 1.956 . S
O237 Li179 1.961 1_455 S
O237 C186 1.325 . S
O238 Li176 1.961 1_655 S
O238 Li178 1.956 . S
O238 Li179 1.970 1_565 S
O238 C208 1.325 . S
O239 Li177 1.961 1_655 S
O239 Li178 1.970 1_545 S
O239 Li179 1.956 . S
O239 C214 1.325 . S
H240 C182 0.929 . S
H241 C183 0.930 . S
H242 C184 0.930 1_545 S
H243 C185 0.930 . S
H244 C187 0.930 . S
H245 C189 0.929 . S
H246 C190 0.930 . S
H247 C191 0.930 . S
H248 C194 0.930 . S
H249 C197 0.929 . S
H250 C202 0.929 . S
H251 C203 0.930 . S
H252 C210 0.929 . S
H253 C211 0.930 . S
H254 C212 0.930 . S
H255 C213 0.930 . S
H256 C215 0.929 . S
H257 C216 0.930 . S
H258 C217 0.930 1_565 S
H259 C218 0.930 . S
H260 C222 0.929 . S
H261 C224 0.930 . S
H262 C230 0.929 . S
H263 C231 0.930 . S
H264 C291 0.929 . S
N265 C290 1.433 . S
N265 C296 1.435 . S
N265 C302 1.423 . S
H266 C292 0.930 . S
H267 C295 0.931 . S
H268 C294 0.929 . S
H269 C297 0.930 . S
H270 C298 0.932 . S
H271 C301 0.929 . S
H272 C300 0.931 . S
H273 C303 0.929 . S
H274 C307 0.932 1_455 S
H275 C304 0.931 . S
H276 C306 0.929 1_455 S
H277 C309 0.929 . S
H278 C310 0.930 . S
H279 C312 0.929 . S
H280 C313 0.931 . S
H281 C315 0.930 . S
H282 C316 0.932 . S
H283 C318 0.931 . S
H284 C319 0.929 . S
H285 C321 0.929 . S
H286 C322 0.931 . S
H287 C324 0.929 1_455 S
N288 C308 1.433 . S
N288 C314 1.435 . S
N288 C320 1.423 . S
H289 C325 0.932 1_455 S
C290 N265 1.433 . S
C290 C291 1.363 . S
C290 C295 1.370 1_655 S
C291 H264 0.929 . S
C291 C290 1.363 . S
C291 C292 1.385 . S
C292 H266 0.930 . S
C292 C291 1.385 . S
C292 C293 1.357 . S
C293 C292 1.357 . S
C293 C294 1.406 1_655 S
C294 H268 0.929 . S
C294 C293 1.406 1_455 S
C294 C295 1.391 . S
C295 H267 0.931 . S
C295 C290 1.370 1_455 S
C295 C294 1.391 . S
C296 N265 1.435 . S
C296 C297 1.358 1_655 S
C296 C301 1.371 . S
C297 H269 0.930 . S
C297 C296 1.358 1_455 S
C297 C298 1.405 . S
C298 H270 0.932 . S
C298 C297 1.405 . S
C298 C299 1.383 1_455 S
C299 C298 1.383 1_655 S
C299 C300 1.393 . S
C300 H272 0.931 . S
C300 C299 1.393 . S
C300 C301 1.382 . S
C301 H271 0.929 . S
C301 C296 1.371 . S
C301 C300 1.382 . S
C302 N265 1.423 . S
C302 C303 1.362 . S
C302 C307 1.388 . S
C303 H273 0.929 . S
C303 C302 1.362 . S
C303 C304 1.376 . S
C304 H275 0.931 . S
C304 C303 1.376 . S
C304 C305 1.396 . S
C305 C304 1.396 . S
C305 C306 1.348 . S
C305 C323 1.472 . S
C306 H276 0.929 1_655 S
C306 C305 1.348 . S
C306 C307 1.443 . S
C307 H274 0.932 1_655 S
C307 C302 1.388 . S
C307 C306 1.443 . S
C308 N288 1.433 . S
C308 C309 1.363 . S
C308 C313 1.370 1_655 S
C309 H277 0.929 . S
C309 C308 1.363 . S
C309 C310 1.385 . S
C310 H278 0.930 . S
C310 C309 1.385 . S
C310 C311 1.357 . S
C311 C310 1.357 . S
C311 C312 1.406 1_655 S
C312 H279 0.929 . S
C312 C311 1.406 1_455 S
C312 C313 1.391 . S
C313 H280 0.931 . S
C313 C308 1.370 1_455 S
C313 C312 1.391 . S
C314 N288 1.435 . S
C314 C315 1.358 1_655 S
C314 C319 1.371 . S
C315 H281 0.930 . S
C315 C314 1.358 1_455 S
C315 C316 1.405 . S
C316 H282 0.932 . S
C316 C315 1.405 . S
C316 C317 1.383 1_455 S
C317 C316 1.383 1_655 S
C317 C318 1.393 . S
C318 H283 0.931 . S
C318 C317 1.393 . S
C318 C319 1.382 . S
C319 H284 0.929 . S
C319 C314 1.371 . S
C319 C318 1.382 . S
C320 N288 1.423 . S
C320 C321 1.362 . S
C320 C325 1.388 . S
C321 H285 0.929 . S
C321 C320 1.362 . S
C321 C322 1.376 . S
C322 H286 0.931 . S
C322 C321 1.376 . S
C322 C323 1.396 . S
C323 C305 1.472 . S
C323 C322 1.396 . S
C323 C324 1.348 . S
C324 H287 0.929 1_655 S
C324 C323 1.348 . S
C324 C325 1.443 . S
C325 H289 0.932 1_655 S
C325 C320 1.388 . S
C325 C324 1.443 . S
H326 C353 0.929 . S
N327 C352 1.433 . S
N327 C358 1.435 . S
N327 C364 1.423 . S
H328 C354 0.930 . S
H329 C357 0.931 . S
H330 C356 0.929 . S
H331 C359 0.930 . S
H332 C360 0.932 . S
H333 C363 0.929 . S
H334 C362 0.931 . S
H335 C365 0.929 . S
H336 C369 0.932 1_565 S
H337 C366 0.931 . S
H338 C368 0.929 1_565 S
H339 C371 0.929 . S
H340 C372 0.930 . S
H341 C374 0.929 . S
H342 C375 0.931 . S
H343 C377 0.930 . S
H344 C378 0.932 . S
H345 C380 0.931 . S
H346 C381 0.929 . S
H347 C383 0.929 . S
H348 C384 0.931 . S
H349 C386 0.929 1_565 S
N350 C370 1.433 . S
N350 C376 1.435 . S
N350 C382 1.423 . S
H351 C387 0.932 1_565 S
C352 N327 1.433 . S
C352 C353 1.363 . S
C352 C357 1.370 1_545 S
C353 H326 0.929 . S
C353 C352 1.363 . S
C353 C354 1.385 . S
C354 H328 0.930 . S
C354 C353 1.385 . S
C354 C355 1.357 . S
C355 C354 1.357 . S
C355 C356 1.406 1_545 S
C356 H330 0.929 . S
C356 C355 1.406 1_565 S
C356 C357 1.391 . S
C357 H329 0.931 . S
C357 C352 1.370 1_565 S
C357 C356 1.391 . S
C358 N327 1.435 . S
C358 C359 1.358 1_545 S
C358 C363 1.371 . S
C359 H331 0.930 . S
C359 C358 1.358 1_565 S
C359 C360 1.405 . S
C360 H332 0.932 . S
C360 C359 1.405 . S
C360 C361 1.383 1_565 S
C361 C360 1.383 1_545 S
C361 C362 1.393 . S
C362 H334 0.931 . S
C362 C361 1.393 . S
C362 C363 1.382 . S
C363 H333 0.929 . S
C363 C358 1.371 . S
C363 C362 1.382 . S
C364 N327 1.423 . S
C364 C365 1.362 . S
C364 C369 1.388 . S
C365 H335 0.929 . S
C365 C364 1.362 . S
C365 C366 1.376 . S
C366 H337 0.931 . S
C366 C365 1.376 . S
C366 C367 1.396 . S
C367 C366 1.396 . S
C367 C368 1.348 . S
C367 C385 1.472 . S
C368 H338 0.929 1_545 S
C368 C367 1.348 . S
C368 C369 1.443 . S
C369 H336 0.932 1_545 S
C369 C364 1.388 . S
C369 C368 1.443 . S
C370 N350 1.433 . S
C370 C371 1.363 . S
C370 C375 1.370 1_545 S
C371 H339 0.929 . S
C371 C370 1.363 . S
C371 C372 1.385 . S
C372 H340 0.930 . S
C372 C371 1.385 . S
C372 C373 1.357 . S
C373 C372 1.357 . S
C373 C374 1.406 1_545 S
C374 H341 0.929 . S
C374 C373 1.406 1_565 S
C374 C375 1.391 . S
C375 H342 0.931 . S
C375 C370 1.370 1_565 S
C375 C374 1.391 . S
C376 N350 1.435 . S
C376 C377 1.358 1_545 S
C376 C381 1.371 . S
C377 H343 0.930 . S
C377 C376 1.358 1_565 S
C377 C378 1.405 . S
C378 H344 0.932 . S
C378 C377 1.405 . S
C378 C379 1.383 1_565 S
C379 C378 1.383 1_545 S
C379 C380 1.393 . S
C380 H345 0.931 . S
C380 C379 1.393 . S
C380 C381 1.382 . S
C381 H346 0.929 . S
C381 C376 1.371 . S
C381 C380 1.382 . S
C382 N350 1.423 . S
C382 C383 1.362 . S
C382 C387 1.388 . S
C383 H347 0.929 . S
C383 C382 1.362 . S
C383 C384 1.376 . S
C384 H348 0.931 . S
C384 C383 1.376 . S
C384 C385 1.396 . S
C385 C367 1.472 . S
C385 C384 1.396 . S
C385 C386 1.348 . S
C386 H349 0.929 1_545 S
C386 C385 1.348 . S
C386 C387 1.443 . S
C387 H351 0.932 1_545 S
C387 C382 1.388 . S
C387 C386 1.443 . S
H388 C415 0.929 . S
N389 C414 1.433 . S
N389 C420 1.435 . S
N389 C426 1.423 . S
H390 C416 0.930 . S
H391 C419 0.931 . S
H392 C418 0.929 . S
H393 C421 0.930 . S
H394 C422 0.932 . S
H395 C425 0.929 . S
H396 C424 0.931 . S
H397 C427 0.929 . S
H398 C431 0.932 . S
H399 C428 0.931 . S
H400 C430 0.929 . S
H401 C433 0.929 . S
H402 C434 0.930 . S
H403 C436 0.929 . S
H404 C437 0.931 . S
H405 C439 0.930 . S
H406 C440 0.932 . S
H407 C442 0.931 . S
H408 C443 0.929 . S
H409 C445 0.929 . S
H410 C446 0.931 . S
H411 C448 0.929 . S
N412 C432 1.433 . S
N412 C438 1.435 . S
N412 C444 1.423 . S
H413 C449 0.932 . S
C414 N389 1.433 . S
C414 C415 1.363 . S
C414 C419 1.370 . S
C415 H388 0.929 . S
C415 C414 1.363 . S
C415 C416 1.385 . S
C416 H390 0.930 . S
C416 C415 1.385 . S
C416 C417 1.357 . S
C417 C416 1.357 . S
C417 C418 1.406 . S
C418 H392 0.929 . S
C418 C417 1.406 . S
C418 C419 1.391 . S
C419 H391 0.931 . S
C419 C414 1.370 . S
C419 C418 1.391 . S
C420 N389 1.435 . S
C420 C421 1.358 . S
C420 C425 1.371 . S
C421 H393 0.930 . S
C421 C420 1.358 . S
C421 C422 1.405 . S
C422 H394 0.932 . S
C422 C421 1.405 . S
C422 C423 1.383 . S
C423 C422 1.383 . S
C423 C424 1.393 . S
C424 H396 0.931 . S
C424 C423 1.393 . S
C424 C425 1.382 . S
C425 H395 0.929 . S
C425 C420 1.371 . S
C425 C424 1.382 . S
C426 N389 1.423 . S
C426 C427 1.362 . S
C426 C431 1.388 . S
C427 H397 0.929 . S
C427 C426 1.362 . S
C427 C428 1.376 . S
C428 H399 0.931 . S
C428 C427 1.376 . S
C428 C429 1.396 . S
C429 C428 1.396 . S
C429 C430 1.348 . S
C429 C447 1.472 . S
C430 H400 0.929 . S
C430 C429 1.348 . S
C430 C431 1.443 . S
C431 H398 0.932 . S
C431 C426 1.388 . S
C431 C430 1.443 . S
C432 N412 1.433 . S
C432 C433 1.363 . S
C432 C437 1.370 . S
C433 H401 0.929 . S
C433 C432 1.363 . S
C433 C434 1.385 . S
C434 H402 0.930 . S
C434 C433 1.385 . S
C434 C435 1.357 . S
C435 C434 1.357 . S
C435 C436 1.406 . S
C436 H403 0.929 . S
C436 C435 1.406 . S
C436 C437 1.391 . S
C437 H404 0.931 . S
C437 C432 1.370 . S
C437 C436 1.391 . S
C438 N412 1.435 . S
C438 C439 1.358 . S
C438 C443 1.371 . S
C439 H405 0.930 . S
C439 C438 1.358 . S
C439 C440 1.405 . S
C440 H406 0.932 . S
C440 C439 1.405 . S
C440 C441 1.383 . S
C441 C440 1.383 . S
C441 C442 1.393 . S
C442 H407 0.931 . S
C442 C441 1.393 . S
C442 C443 1.382 . S
C443 H408 0.929 . S
C443 C438 1.371 . S
C443 C442 1.382 . S
C444 N412 1.423 . S
C444 C445 1.362 . S
C444 C449 1.388 . S
C445 H409 0.929 . S
C445 C444 1.362 . S
C445 C446 1.376 . S
C446 H410 0.931 . S
C446 C445 1.376 . S
C446 C447 1.396 . S
C447 C429 1.472 . S
C447 C446 1.396 . S
C447 C448 1.348 . S
C448 H411 0.929 . S
C448 C447 1.348 . S
C448 C449 1.443 . S
C449 H413 0.932 . S
C449 C444 1.388 . S
C449 C448 1.443 . S
C450 C451 1.349 . S
C450 C452 1.327 . S
C450 H475 0.950 . S
C451 C450 1.349 . S
C451 C467 1.349 . S
C452 C450 1.327 . S
C452 C471 1.429 . S
C452 H476 0.950 . S
C453 C470 1.574 . S
C453 C472 1.368 1_455 S
C453 H477 0.949 . S
H454 C458 0.949 . S
C455 C456 1.349 1_455 S
C455 C457 1.327 . S
C455 H478 0.950 . S
C456 C455 1.349 1_655 S
C456 C468 1.349 . S
C457 C455 1.327 . S
C457 C473 1.429 1_455 S
C457 H479 0.950 . S
C458 H454 0.949 . S
C458 C466 1.574 . S
C458 C474 1.368 . S
H459 C467 0.950 1_455 S
H460 C465 0.952 1_455 S
H461 C466 0.949 . S
H462 C468 0.950 . S
H463 C469 0.950 . S
H464 C470 0.949 . S
C465 H460 0.952 1_655 S
C465 C467 1.328 . S
C465 C471 1.425 . S
C466 C458 1.574 . S
C466 H461 0.949 . S
C466 C472 1.368 . S
C467 C451 1.349 . S
C467 H459 0.950 1_655 S
C467 C465 1.328 . S
C468 C456 1.349 . S
C468 H462 0.950 . S
C468 C469 1.327 . S
C469 H463 0.950 . S
C469 C468 1.327 . S
C469 C473 1.429 . S
C470 C453 1.574 . S
C470 H464 0.949 . S
C470 C474 1.368 1_455 S
C471 C452 1.429 . S
C471 C465 1.425 . S
C471 C472 1.523 . S
C472 C453 1.368 1_655 S
C472 C466 1.368 . S
C472 C471 1.523 . S
C473 C457 1.429 1_655 S
C473 C469 1.429 . S
C473 C474 1.523 . S
C474 C458 1.368 . S
C474 C470 1.368 1_655 S
C474 C473 1.523 . S
H475 C450 0.950 . S
H476 C452 0.950 . S
H477 C453 0.949 . S
H478 C455 0.950 . S
H479 C457 0.950 . S
C480 C481 1.349 . S
C480 C482 1.327 . S
C480 H505 0.950 . S
C481 C480 1.349 . S
C481 C497 1.349 . S
C482 C480 1.327 . S
C482 C501 1.429 . S
C482 H506 0.950 1_565 S
C483 C500 1.574 . S
C483 C502 1.368 . S
C483 H507 0.949 . S
H484 C488 0.949 . S
C485 C486 1.349 . S
C485 C487 1.327 . S
C485 H508 0.950 . S
C486 C485 1.349 . S
C486 C498 1.349 1_565 S
C487 C485 1.327 . S
C487 C503 1.429 . S
C487 H509 0.950 . S
C488 H484 0.949 . S
C488 C496 1.583 . S
C488 C504 1.368 1_545 S
H489 C497 0.950 . S
H490 C495 0.950 . S
H491 C496 0.956 . S
H492 C498 0.950 . S
H493 C499 0.950 . S
H494 C500 0.949 . S
C495 H490 0.950 . S
C495 C497 1.327 . S
C495 C501 1.429 . S
C496 C488 1.583 . S
C496 H491 0.956 . S
C496 C502 1.352 1_545 S
C497 C481 1.349 . S
C497 H489 0.950 . S
C497 C495 1.327 . S
C498 C486 1.349 1_545 S
C498 H492 0.950 . S
C498 C499 1.327 . S
C499 H493 0.950 . S
C499 C498 1.327 . S
C499 C503 1.429 1_545 S
C500 C483 1.574 . S
C500 H494 0.949 . S
C500 C504 1.368 . S
C501 C482 1.429 . S
C501 C495 1.429 . S
C501 C502 1.523 . S
C502 C483 1.368 . S
C502 C496 1.352 1_565 S
C502 C501 1.523 . S
C503 C487 1.429 . S
C503 C499 1.429 1_565 S
C503 C504 1.523 . S
C504 C488 1.368 1_565 S
C504 C500 1.368 . S
C504 C503 1.523 . S
H505 C480 0.950 . S
H506 C482 0.950 1_545 S
H507 C483 0.949 . S
H508 C485 0.950 . S
H509 C487 0.950 . S
C510 C511 1.349 . S
C510 C512 1.327 . S
C510 H535 0.950 . S
C511 C510 1.349 . S
C511 C527 1.349 . S
C512 C510 1.327 . S
C512 C531 1.429 . S
C512 H536 0.950 . S
C513 C530 1.574 . S
C513 C532 1.368 . S
C513 H537 0.949 . S
H514 C518 0.949 . S
C515 C516 1.349 . S
C515 C517 1.327 . S
C515 H538 0.950 . S
C516 C515 1.349 . S
C516 C528 1.349 . S
C517 C515 1.327 . S
C517 C533 1.429 . S
C517 H539 0.950 . S
C518 H514 0.949 . S
C518 C526 1.574 . S
C518 C534 1.368 . S
H519 C527 0.950 . S
H520 C525 0.950 . S
H521 C526 0.949 . S
H522 C528 0.950 . S
H523 C529 0.950 . S
H524 C530 0.949 . S
C525 H520 0.950 . S
C525 C527 1.327 . S
C525 C531 1.429 . S
C526 C518 1.574 . S
C526 H521 0.949 . S
C526 C532 1.368 . S
C527 C511 1.349 . S
C527 H519 0.950 . S
C527 C525 1.327 . S
C528 C516 1.349 . S
C528 H522 0.950 . S
C528 C529 1.327 . S
C529 H523 0.950 . S
C529 C528 1.327 . S
C529 C533 1.429 . S
C530 C513 1.574 . S
C530 H524 0.949 . S
C530 C534 1.368 . S
C531 C512 1.429 . S
C531 C525 1.429 . S
C531 C532 1.523 . S
C532 C513 1.368 . S
C532 C526 1.368 . S
C532 C531 1.523 . S
C533 C517 1.429 . S
C533 C529 1.429 . S
C533 C534 1.523 . S
C534 C518 1.368 . S
C534 C530 1.368 . S
C534 C533 1.523 . S
H535 C510 0.950 . S
H536 C512 0.950 . S
H537 C513 0.949 . S
H538 C515 0.950 . S
H539 C517 0.950 . S
C540 C541 1.349 . S
C540 C542 1.327 . S
C540 H565 0.950 1_455 S
C541 C540 1.349 . S
C541 C557 1.349 . S
C542 C540 1.327 . S
C542 C561 1.429 . S
C542 H566 0.950 1_455 S
C543 C560 1.574 . S
C543 C562 1.368 . S
C543 H567 0.949 . S
H544 C548 0.949 . S
C545 C546 1.349 . S
C545 C547 1.327 . S
C545 H568 0.950 . S
C546 C545 1.349 . S
C546 C558 1.349 1_455 S
C547 C545 1.327 . S
C547 C563 1.429 . S
C547 H569 0.950 . S
C548 H544 0.949 . S
C548 C556 1.574 . S
C548 C564 1.368 1_655 S
H549 C557 0.950 . S
H550 C555 0.950 . S
H551 C556 0.949 . S
H552 C558 0.950 . S
H553 C559 0.950 . S
H554 C560 0.949 . S
C555 H550 0.950 . S
C555 C557 1.327 . S
C555 C561 1.429 . S
C556 C548 1.574 . S
C556 H551 0.949 . S
C556 C562 1.368 1_655 S
C557 C541 1.349 . S
C557 H549 0.950 . S
C557 C555 1.327 . S
C558 C546 1.349 1_655 S
C558 H552 0.950 . S
C558 C559 1.327 . S
C559 H553 0.950 . S
C559 C558 1.327 . S
C559 C563 1.429 1_655 S
C560 C543 1.574 . S
C560 H554 0.949 . S
C560 C564 1.368 . S
C561 C542 1.429 . S
C561 C555 1.429 . S
C561 C562 1.523 . S
C562 C543 1.368 . S
C562 C556 1.368 1_455 S
C562 C561 1.523 . S
C563 C547 1.429 . S
C563 C559 1.429 1_455 S
C563 C564 1.523 . S
C564 C548 1.368 1_455 S
C564 C560 1.368 . S
C564 C563 1.523 . S
H565 C540 0.950 1_655 S
H566 C542 0.950 1_655 S
H567 C543 0.949 . S
H568 C545 0.950 . S
H569 C547 0.950 . S
C570 C571 1.349 . S
C570 C572 1.327 . S
C570 H595 0.950 . S
C571 C570 1.349 . S
C571 C587 1.349 . S
C572 C570 1.327 . S
C572 C591 1.429 . S
C572 H596 0.950 . S
C573 C590 1.574 . S
C573 C592 1.368 1_565 S
C573 H597 0.949 . S
H574 C578 0.949 . S
C575 C576 1.349 1_565 S
C575 C577 1.327 . S
C575 H598 0.950 . S
C576 C575 1.349 1_545 S
C576 C588 1.349 . S
C577 C575 1.327 . S
C577 C593 1.429 1_565 S
C577 H599 0.950 . S
C578 H574 0.949 . S
C578 C586 1.574 . S
C578 C594 1.368 . S
H579 C587 0.950 1_565 S
H580 C585 0.950 1_565 S
H581 C586 0.949 . S
H582 C588 0.950 . S
H583 C589 0.950 . S
H584 C590 0.949 . S
C585 H580 0.950 1_545 S
C585 C587 1.327 . S
C585 C591 1.429 . S
C586 C578 1.574 . S
C586 H581 0.949 . S
C586 C592 1.368 . S
C587 C571 1.349 . S
C587 H579 0.950 1_545 S
C587 C585 1.327 . S
C588 C576 1.349 . S
C588 H582 0.950 . S
C588 C589 1.327 . S
C589 H583 0.950 . S
C589 C588 1.327 . S
C589 C593 1.429 . S
C590 C573 1.574 . S
C590 H584 0.949 . S
C590 C594 1.368 1_565 S
C591 C572 1.429 . S
C591 C585 1.429 . S
C591 C592 1.523 . S
C592 C573 1.368 1_545 S
C592 C586 1.368 . S
C592 C591 1.523 . S
C593 C577 1.429 1_545 S
C593 C589 1.429 . S
C593 C594 1.523 . S
C594 C578 1.368 . S
C594 C590 1.368 1_545 S
C594 C593 1.523 . S
H595 C570 0.950 . S
H596 C572 0.950 . S
H597 C573 0.949 . S
H598 C575 0.950 . S
H599 C577 0.950 . S
C600 C601 1.349 . S
C600 C602 1.327 . S
C600 H625 0.950 . S
C601 C600 1.349 . S
C601 C617 1.349 . S
C602 C600 1.327 . S
C602 C621 1.429 . S
C602 H626 0.950 . S
C603 C620 1.574 . S
C603 C622 1.368 . S
C603 H627 0.949 . S
H604 C608 0.949 . S
C605 C606 1.349 . S
C605 C607 1.327 . S
C605 H628 0.950 . S
C606 C605 1.349 . S
C606 C618 1.349 . S
C607 C605 1.327 . S
C607 C623 1.429 . S
C607 H629 0.950 . S
C608 H604 0.949 . S
C608 C616 1.574 . S
C608 C624 1.368 . S
H609 C617 0.950 . S
H610 C615 0.950 . S
H611 C616 0.949 . S
H612 C618 0.950 . S
H613 C619 0.950 . S
H614 C620 0.949 . S
C615 H610 0.950 . S
C615 C617 1.327 . S
C615 C621 1.429 . S
C616 C608 1.574 . S
C616 H611 0.949 . S
C616 C622 1.368 . S
C617 C601 1.349 . S
C617 H609 0.950 . S
C617 C615 1.327 . S
C618 C606 1.349 . S
C618 H612 0.950 . S
C618 C619 1.327 . S
C619 H613 0.950 . S
C619 C618 1.327 . S
C619 C623 1.429 . S
C620 C603 1.574 . S
C620 H614 0.949 . S
C620 C624 1.368 . S
C621 C602 1.429 . S
C621 C615 1.429 . S
C621 C622 1.523 . S
C622 C603 1.368 . S
C622 C616 1.368 . S
C622 C621 1.523 . S
C623 C607 1.429 . S
C623 C619 1.429 . S
C623 C624 1.523 . S
C624 C608 1.368 . S
C624 C620 1.368 . S
C624 C623 1.523 . S
H625 C600 0.950 . S
H626 C602 0.950 . S
H627 C603 0.949 . S
H628 C605 0.950 . S
H629 C607 0.950 . S
C630 C631 1.349 . S
C630 C632 1.327 . S
C630 H655 0.950 1_545 S
C631 C630 1.349 . S
C631 C647 1.349 . S
C632 C630 1.327 . S
C632 C651 1.429 . S
C632 H656 0.950 1_545 S
C633 C650 1.574 . S
C633 C652 1.368 . S
C633 H657 0.949 . S
H634 C638 0.949 . S
C635 C636 1.349 . S
C635 C637 1.327 . S
C635 H658 0.950 . S
C636 C635 1.349 . S
C636 C648 1.349 1_545 S
C637 C635 1.327 . S
C637 C653 1.429 . S
C637 H659 0.950 . S
C638 H634 0.949 . S
C638 C646 1.574 . S
C638 C654 1.368 1_565 S
H639 C647 0.950 . S
H640 C645 0.950 . S
H641 C646 0.949 . S
H642 C648 0.950 . S
H643 C649 0.950 . S
H644 C650 0.949 . S
C645 H640 0.950 . S
C645 C647 1.327 . S
C645 C651 1.429 . S
C646 C638 1.574 . S
C646 H641 0.949 . S
C646 C652 1.368 1_565 S
C647 C631 1.349 . S
C647 H639 0.950 . S
C647 C645 1.327 . S
C648 C636 1.349 1_565 S
C648 H642 0.950 . S
C648 C649 1.327 . S
C649 H643 0.950 . S
C649 C648 1.327 . S
C649 C653 1.429 1_565 S
C650 C633 1.574 . S
C650 H644 0.949 . S
C650 C654 1.368 . S
C651 C632 1.429 . S
C651 C645 1.429 . S
C651 C652 1.523 . S
C652 C633 1.368 . S
C652 C646 1.368 1_545 S
C652 C651 1.523 . S
C653 C637 1.429 . S
C653 C649 1.429 1_545 S
C653 C654 1.523 . S
C654 C638 1.368 1_545 S
C654 C650 1.368 . S
C654 C653 1.523 . S
H655 C630 0.950 1_565 S
H656 C632 0.950 1_565 S
H657 C633 0.949 . S
H658 C635 0.950 . S
H659 C637 0.950 . S
C660 C661 1.349 . S
C660 C662 1.327 . S
C660 H685 0.947 . S
C661 C660 1.349 . S
C661 C677 1.349 . S
C662 C660 1.327 . S
C662 C681 1.429 . S
C662 H686 0.950 . S
C663 C680 1.574 . S
C663 C682 1.368 . S
C663 H687 0.949 . S
H664 C668 0.949 . S
C665 C666 1.349 . S
C665 C667 1.327 . S
C665 H688 0.950 . S
C666 C665 1.349 . S
C666 C678 1.349 . S
C667 C665 1.327 . S
C667 C683 1.429 . S
C667 H689 0.950 . S
C668 H664 0.949 . S
C668 C676 1.574 . S
C668 C684 1.368 . S
H669 C677 0.950 . S
H670 C675 0.950 . S
H671 C676 0.949 . S
H672 C678 0.950 . S
H673 C679 0.950 . S
H674 C680 0.949 . S
C675 H670 0.950 . S
C675 C677 1.327 . S
C675 C681 1.429 . S
C676 C668 1.574 . S
C676 H671 0.949 . S
C676 C682 1.368 . S
C677 C661 1.349 . S
C677 H669 0.950 . S
C677 C675 1.327 . S
C678 C666 1.349 . S
C678 H672 0.950 . S
C678 C679 1.327 . S
C679 H673 0.950 . S
C679 C678 1.327 . S
C679 C683 1.429 . S
C680 C663 1.574 . S
C680 H674 0.949 . S
C680 C684 1.368 . S
C681 C662 1.429 . S
C681 C675 1.429 . S
C681 C682 1.523 . S
C682 C663 1.368 . S
C682 C676 1.368 . S
C682 C681 1.523 . S
C683 C667 1.429 . S
C683 C679 1.429 . S
C683 C684 1.523 . S
C684 C668 1.368 . S
C684 C680 1.368 . S
C684 C683 1.523 . S
H685 C660 0.947 . S
H686 C662 0.950 . S
H687 C663 0.949 . S
H688 C665 0.950 . S
H689 C667 0.950 . S
C690 C691 1.349 . S
C690 C692 1.327 . S
C690 H715 0.950 . S
C691 C690 1.349 . S
C691 C707 1.349 . S
C692 C690 1.327 . S
C692 C711 1.429 . S
C692 H716 0.950 . S
C693 C710 1.574 . S
C693 C712 1.368 . S
C693 H717 0.949 . S
H694 C698 0.949 . S
C695 C696 1.349 1_455 S
C695 C697 1.327 . S
C695 H718 0.950 . S
C696 C695 1.349 1_655 S
C696 C708 1.349 . S
C697 C695 1.327 . S
C697 C713 1.429 1_455 S
C697 H719 0.950 . S
C698 H694 0.949 . S
C698 C706 1.574 . S
C698 C714 1.368 . S
H699 C707 0.950 . S
H700 C705 0.950 . S
H701 C706 0.949 . S
H702 C708 0.950 . S
H703 C709 0.950 . S
H704 C710 0.949 1_455 S
C705 H700 0.950 . S
C705 C707 1.327 . S
C705 C711 1.429 . S
C706 C698 1.574 . S
C706 H701 0.949 . S
C706 C712 1.368 . S
C707 C691 1.349 . S
C707 H699 0.950 . S
C707 C705 1.327 . S
C708 C696 1.349 . S
C708 H702 0.950 . S
C708 C709 1.327 . S
C709 H703 0.950 . S
C709 C708 1.327 . S
C709 C713 1.429 . S
C710 C693 1.574 . S
C710 H704 0.949 1_655 S
C710 C714 1.368 . S
C711 C692 1.429 . S
C711 C705 1.429 . S
C711 C712 1.523 . S
C712 C693 1.368 . S
C712 C706 1.368 . S
C712 C711 1.523 . S
C713 C697 1.429 1_655 S
C713 C709 1.429 . S
C713 C714 1.523 . S
C714 C698 1.368 . S
C714 C710 1.368 . S
C714 C713 1.523 . S
H715 C690 0.950 . S
H716 C692 0.950 . S
H717 C693 0.949 . S
H718 C695 0.950 . S
H719 C697 0.950 . S
C720 C721 1.349 . S
C720 C722 1.327 . S
C720 H745 0.950 . S
C721 C720 1.349 . S
C721 C737 1.349 . S
C722 C720 1.327 . S
C722 C741 1.429 . S
C722 H746 0.950 1_565 S
C723 C740 1.574 . S
C723 C742 1.368 . S
C723 H747 0.949 . S
H724 C728 0.949 . S
C725 C726 1.349 . S
C725 C727 1.327 . S
C725 H748 0.950 . S
C726 C725 1.349 . S
C726 C738 1.349 1_565 S
C727 C725 1.327 . S
C727 C743 1.429 . S
C727 H749 0.950 . S
C728 H724 0.949 . S
C728 C736 1.577 1_545 S
C728 C744 1.368 1_545 S
H729 C737 0.950 . S
H730 C735 0.950 . S
H731 C736 0.944 1_545 S
H732 C738 0.950 . S
H733 C739 0.950 . S
H734 C740 0.949 . S
C735 H730 0.950 . S
C735 C737 1.327 . S
C735 C741 1.429 . S
C736 C728 1.577 1_565 S
C736 H731 0.944 1_565 S
C736 C742 1.371 . S
C737 C721 1.349 . S
C737 H729 0.950 . S
C737 C735 1.327 . S
C738 C726 1.349 1_545 S
C738 H732 0.950 . S
C738 C739 1.327 . S
C739 H733 0.950 . S
C739 C738 1.327 . S
C739 C743 1.429 1_545 S
C740 C723 1.574 . S
C740 H734 0.949 . S
C740 C744 1.368 . S
C741 C722 1.429 . S
C741 C735 1.429 . S
C741 C742 1.523 . S
C742 C723 1.368 . S
C742 C736 1.371 . S
C742 C741 1.523 . S
C743 C727 1.429 . S
C743 C739 1.429 1_565 S
C743 C744 1.523 . S
C744 C728 1.368 1_565 S
C744 C740 1.368 . S
C744 C743 1.523 . S
H745 C720 0.950 . S
H746 C722 0.950 1_545 S
H747 C723 0.949 . S
H748 C725 0.950 . S
H749 C727 0.950 . S
C750 C751 1.349 . S
C750 C752 1.327 . S
C750 H775 0.950 . S
C751 C750 1.349 . S
C751 C767 1.349 . S
C752 C750 1.327 . S
C752 C771 1.429 . S
C752 H776 0.950 . S
C753 C770 1.574 . S
C753 C772 1.368 . S
C753 H777 0.949 . S
H754 C758 0.949 . S
C755 C756 1.349 . S
C755 C757 1.327 . S
C755 H778 0.950 . S
C756 C755 1.349 . S
C756 C768 1.349 . S
C757 C755 1.327 . S
C757 C773 1.429 . S
C757 H779 0.950 . S
C758 H754 0.949 . S
C758 C766 1.574 . S
C758 C774 1.368 . S
H759 C767 0.950 . S
H760 C765 0.950 . S
H761 C766 0.949 . S
H762 C768 0.950 . S
H763 C769 0.950 . S
H764 C770 0.949 . S
C765 H760 0.950 . S
C765 C767 1.327 . S
C765 C771 1.429 . S
C766 C758 1.574 . S
C766 H761 0.949 . S
C766 C772 1.368 . S
C767 C751 1.349 . S
C767 H759 0.950 . S
C767 C765 1.327 . S
C768 C756 1.349 . S
C768 H762 0.950 . S
C768 C769 1.327 . S
C769 H763 0.950 . S
C769 C768 1.327 . S
C769 C773 1.429 . S
C770 C753 1.574 . S
C770 H764 0.949 . S
C770 C774 1.368 . S
C771 C752 1.429 . S
C771 C765 1.429 . S
C771 C772 1.523 . S
C772 C753 1.368 . S
C772 C766 1.368 . S
C772 C771 1.523 . S
C773 C757 1.429 . S
C773 C769 1.429 . S
C773 C774 1.523 . S
C774 C758 1.368 . S
C774 C770 1.368 . S
C774 C773 1.523 . S
H775 C750 0.950 . S
H776 C752 0.950 . S
H777 C753 0.949 . S
H778 C755 0.950 . S
H779 C757 0.950 . S
C780 C781 1.349 . S
C780 C782 1.327 . S
C780 H805 0.950 . S
C781 C780 1.349 . S
C781 C797 1.349 . S
C782 C780 1.327 . S
C782 C801 1.429 . S
C782 H806 0.950 . S
C783 C800 1.574 . S
C783 C802 1.368 1_655 S
C783 H807 0.949 . S
H784 C788 0.949 . S
C785 C786 1.349 1_655 S
C785 C787 1.327 . S
C785 H808 0.950 . S
C786 C785 1.349 1_455 S
C786 C798 1.349 . S
C787 C785 1.327 . S
C787 C803 1.429 1_655 S
C787 H809 0.950 . S
C788 H784 0.949 . S
C788 C796 1.574 . S
C788 C804 1.368 . S
H789 C797 0.950 1_655 S
H790 C795 0.968 . S
H791 C796 0.949 . S
H792 C798 0.950 . S
H793 C799 0.950 . S
H794 C800 0.949 . S
C795 H790 0.968 . S
C795 C797 1.317 1_655 S
C795 C801 1.421 1_655 S
C796 C788 1.574 . S
C796 H791 0.949 . S
C796 C802 1.368 . S
C797 C781 1.349 . S
C797 H789 0.950 1_455 S
C797 C795 1.317 1_455 S
C798 C786 1.349 . S
C798 H792 0.950 . S
C798 C799 1.327 . S
C799 H793 0.950 . S
C799 C798 1.327 . S
C799 C803 1.429 . S
C800 C783 1.574 . S
C800 H794 0.949 . S
C800 C804 1.368 1_655 S
C801 C782 1.429 . S
C801 C795 1.421 1_455 S
C801 C802 1.523 . S
C802 C783 1.368 1_455 S
C802 C796 1.368 . S
C802 C801 1.523 . S
C803 C787 1.429 1_455 S
C803 C799 1.429 . S
C803 C804 1.523 . S
C804 C788 1.368 . S
C804 C800 1.368 1_455 S
C804 C803 1.523 . S
H805 C780 0.950 . S
H806 C782 0.950 . S
H807 C783 0.949 . S
H808 C785 0.950 . S
H809 C787 0.950 . S
C456 C317 1.244 . S
C451 C29 1.246 . S
C481 C137 1.249 . S
C486 C361 1.254 1_565 S
C511 C225 1.249 . S
C516 C423 1.254 . S
C541 C49 1.249 . S
C546 C299 1.254 1_455 S
C576 C379 1.244 . S
C571 C117 1.246 . S
C601 C205 1.249 . S
C606 C441 1.241 . S
C636 C355 1.533 . S
C631 C233 1.634 . S
C661 C57 1.630 . S
C666 C417 1.536 . S
C696 C293 1.533 . S
C691 C108 1.633 . S
C726 C373 1.551 1_565 S
C721 C196 1.626 . S
C756 C435 1.551 . S
C751 C20 1.626 . S
C781 C145 1.630 . S
C786 C311 1.548 1_455 S
