# Generated by pormake.
# Topology pyr, (3,6)-cn, num edge types: 1
# Building blocks:
#     Node 0, Type 0, BuildingBlock: QEWDON_clean_linker_0, # of connection points: 3
#     Node 1, Type 0, BuildingBlock: QEWDON_clean_linker_0, # of connection points: 3
#     Node 2, Type 0, BuildingBlock: QEWDON_clean_linker_0, # of connection points: 3
#     Node 3, Type 0, BuildingBlock: QEWDON_clean_linker_0, # of connection points: 3
#     Node 4, Type 0, BuildingBlock: QEWDON_clean_linker_0, # of connection points: 3
#     Node 5, Type 0, BuildingBlock: QEWDON_clean_linker_0, # of connection points: 3
#     Node 6, Type 0, BuildingBlock: QEWDON_clean_linker_0, # of connection points: 3
#     Node 7, Type 0, BuildingBlock: QEWDON_clean_linker_0, # of connection points: 3
#     Node 8, Type 1, BuildingBlock: FUNLAD_clean_sbu_0, # of connection points: 6
#     Node 9, Type 1, BuildingBlock: FUNLAD_clean_sbu_0, # of connection points: 6
#     Node 10, Type 1, BuildingBlock: FUNLAD_clean_sbu_0, # of connection points: 6
#     Node 11, Type 1, BuildingBlock: FUNLAD_clean_sbu_0, # of connection points: 6
#     Edge 12, Type (0, 1), None
#     Edge 13, Type (0, 1), None
#     Edge 14, Type (0, 1), None
#     Edge 15, Type (0, 1), None
#     Edge 16, Type (0, 1), None
#     Edge 17, Type (0, 1), None
#     Edge 18, Type (0, 1), None
#     Edge 19, Type (0, 1), None
#     Edge 20, Type (0, 1), None
#     Edge 21, Type (0, 1), None
#     Edge 22, Type (0, 1), None
#     Edge 23, Type (0, 1), None
#     Edge 24, Type (0, 1), None
#     Edge 25, Type (0, 1), None
#     Edge 26, Type (0, 1), None
#     Edge 27, Type (0, 1), None
#     Edge 28, Type (0, 1), None
#     Edge 29, Type (0, 1), None
#     Edge 30, Type (0, 1), None
#     Edge 31, Type (0, 1), None
#     Edge 32, Type (0, 1), None
#     Edge 33, Type (0, 1), None
#     Edge 34, Type (0, 1), None
#     Edge 35, Type (0, 1), None
# Relax obj value: 0.572
# Max RMSD: 0.317
# Mean RMSD: 0.194
data_MOF--net-pry--node1-FUNLAD_clean_sbu_0--node2-QEWDON_clean_linker_0--edge1-none
_symmetry_space_group_name_H-M    P1
_symmetry_Int_Tables_number       1
_symmetry_cell_setting            triclinic
loop_
_symmetry_equiv_pos_as_xyz
'x, y, z'
_cell_length_a     16.172409
_cell_length_b     16.496823
_cell_length_c     16.905715
_cell_angle_alpha  91.727092
_cell_angle_beta   91.379787
_cell_angle_gamma 88.09634
loop_
_atom_site_label
_atom_site_type_symbol
_atom_site_fract_x
_atom_site_fract_y
_atom_site_fract_z
_atom_type_partial_charge
H0 H 0.26837 0.34317 0.22672 0.0
C1 C 0.23389 0.30535 0.26442 0.0
C2 C 0.26932 0.22874 0.28845 0.0
C3 C 0.1565 0.33594 0.29303 0.0
H4 H 0.24941 0.12667 0.36371 0.0
C5 C 0.22296 0.1829 0.34136 0.0
C6 C 0.14481 0.21228 0.36956 0.0
C7 C 0.11262 0.28684 0.34288 0.0
C8 C 0.13018 0.42511 0.29358 0.0
H9 H 0.05494 0.31076 0.36718 0.0
C10 C 0.09795 0.46931 0.22722 0.0
C11 C 0.06674 0.55153 0.23767 0.0
C12 C 0.12949 0.46447 0.36862 0.0
H13 H 0.15315 0.43334 0.42045 0.0
C14 C 0.09695 0.54292 0.37911 0.0
H15 H 0.09653 0.44024 0.16915 0.0
C16 C 0.06639 0.58598 0.31479 0.0
H17 H 0.04273 0.6474 0.32587 0.0
H18 H 0.09646 0.57114 0.43777 0.0
H19 H 0.34836 0.13471 0.95694 0.0
C20 C 0.38689 0.08575 0.93261 0.0
C21 C 0.45018 1.05054 0.97917 0.0
C22 C 0.36529 1.05077 0.85902 0.0
H23 H 0.52696 0.93905 0.99067 0.0
C24 C 0.48534 0.97294 0.95181 0.0
C25 C 0.46385 0.93908 0.87439 0.0
C26 C 0.41201 0.98604 0.82658 0.0
C27 C 0.27949 1.05131 0.83131 0.0
H28 H 0.39419 0.96226 0.76825 0.0
C29 C 0.26296 1.07073 0.75256 0.0
C30 C 0.20293 1.02894 0.7085 0.0
C31 C 0.22871 0.9972 0.86871 0.0
H32 H 0.24191 0.9801 0.92927 0.0
C33 C 0.17022 0.9542 0.82459 0.0
H34 H 0.3005 0.11423 0.72419 0.0
C35 C 0.15911 0.96807 0.74411 0.0
H36 H 0.11245 0.93501 0.71087 0.0
H37 H 0.13522 0.90859 0.85245 0.0
H38 H 0.78604 0.72629 0.21841 0.0
C39 C 0.75962 0.66907 0.20065 0.0
C40 C 0.77468 0.63459 1.12461 0.0
C41 C 0.69999 0.63843 0.24937 0.0
H42 H 0.75306 0.53106 1.0458 0.0
C43 C 0.73874 0.56117 1.10191 0.0
C44 C 0.68665 0.52521 1.15436 0.0
C45 C 0.66903 0.56267 0.22778 0.0
C46 C 0.64505 0.6976 0.29416 0.0
H47 H 0.62518 0.53462 0.26511 0.0
C48 C 0.61479 0.75664 0.24241 0.0
C49 C 0.55097 0.72844 0.19248 0.0
C50 C 0.58347 0.66554 0.34077 0.0
H51 H 0.60073 0.62965 0.39148 0.0
C52 C 0.50342 0.65955 0.30698 0.0
H53 H 0.65913 0.79669 0.219 0.0
C54 C 0.48941 0.68511 0.22922 0.0
H55 H 0.43637 0.66365 0.19571 0.0
H56 H 0.45745 0.625 0.33481 0.0
H57 H 0.91048 0.69645 0.51092 0.0
C58 C 0.86341 0.70355 0.55537 0.0
C59 C 0.87565 0.76217 0.6158 0.0
C60 C 0.78107 0.69262 0.53183 0.0
H61 H 0.82093 0.81827 0.72147 0.0
C62 C 0.81508 0.77185 0.67513 0.0
C63 C 0.74148 0.72845 0.66626 0.0
C64 C 0.72833 0.68344 0.59484 0.0
C65 C 0.74956 0.74479 0.46487 0.0
H66 H 0.67057 0.65484 0.58251 0.0
C67 C 0.80375 0.76536 0.40504 0.0
C68 C 0.79094 0.83694 0.36222 0.0
C69 C 0.6742 0.79046 0.47111 0.0
H70 H 0.62906 0.7774 0.51475 0.0
C71 C 0.65813 0.85807 0.42468 0.0
H72 H 0.85849 0.72757 0.39444 0.0
C73 C 0.71706 0.88282 0.37242 0.0
H74 H 0.70462 0.93785 0.34028 0.0
H75 H 0.60098 0.89336 0.43154 0.0
H76 H 0.81354 0.91718 0.96064 0.0
C77 C 0.84704 0.945 0.91443 0.0
C78 C 0.91406 0.90131 0.88095 0.0
C79 C 0.82669 1.02498 0.89443 0.0
H80 H 1.0009 0.90084 0.78469 0.0
C81 C 0.95245 0.9354 0.8144 0.0
C82 C 0.92987 1.01646 0.78986 0.0
C83 C 0.87057 1.06051 0.83381 0.0
C84 C 0.76277 1.07355 0.93954 0.0
H85 H 0.85818 0.12323 0.81922 0.0
C86 C 0.74553 1.05892 1.02024 0.0
C87 C 0.69356 0.11319 1.06335 0.0
C88 C 0.72094 0.13876 0.9023 0.0
H89 H 0.72646 0.14874 0.83972 0.0
C90 C 0.67303 0.19417 0.94558 0.0
H91 H 0.77438 1.00847 1.05083 0.0
C92 C 0.66217 0.18315 1.02548 0.0
H93 H 0.62576 0.22874 1.05664 0.0
H94 H 0.6444 0.2463 0.91721 0.0
H95 H 0.77275 0.29008 0.62032 0.0
C96 C 0.73834 0.26866 0.56837 0.0
C97 C 0.77739 0.21528 0.51335 0.0
C98 C 0.65368 0.28956 0.56177 0.0
H99 H 0.75722 0.14237 0.40555 0.0
C100 C 0.72856 0.18358 0.44865 0.0
C101 C 0.64324 0.20731 0.43829 0.0
C102 C 0.60707 0.2602 0.496 0.0
C103 C 0.61255 0.32724 0.63238 0.0
H104 H 0.54165 0.27636 0.49124 0.0
C105 C 0.61096 0.41194 0.64943 0.0
C106 C 0.58224 0.44288 0.72337 0.0
C107 C 0.5832 0.27504 0.68868 0.0
H108 H 0.58458 0.21001 0.67728 0.0
C109 C 0.55452 0.30558 0.76116 0.0
H110 H 0.6334 0.45298 0.60655 0.0
C111 C 0.55492 0.38867 0.77884 0.0
H112 H 0.53175 0.41093 0.83537 0.0
H113 H 0.53241 0.26453 0.80412 0.0
H114 H 0.33742 0.75108 0.3113 0.0
C115 C 0.3041 0.74591 0.255 0.0
C116 C 0.31108 0.80745 0.20227 0.0
C117 C 0.26581 0.67397 0.23262 0.0
H118 H 0.27422 0.85326 1.0887 0.0
C119 C 0.27333 0.80202 1.12742 0.0
C120 C 0.22756 0.73415 1.10575 0.0
C121 C 0.2302 0.66668 1.15591 0.0
C122 C 0.27157 0.60775 0.29018 0.0
H123 H 0.19815 0.61225 1.13855 0.0
C124 C 0.27054 0.62937 0.37162 0.0
C125 C 0.31458 0.58227 0.42649 0.0
C126 C 0.30163 0.53015 0.26684 0.0
H127 H 0.30449 0.51225 0.2048 0.0
C128 C 0.33576 0.47796 0.32357 0.0
H129 H 0.24797 0.68941 0.39029 0.0
C130 C 0.34397 0.50438 0.40265 0.0
H131 H 0.37861 0.46656 0.4439 0.0
H132 H 0.36256 0.41965 0.30534 0.0
H133 H 0.40682 0.51856 0.96781 0.0
C134 C 0.37115 0.49072 0.91981 0.0
C135 C 0.34892 0.53549 0.85231 0.0
C136 C 0.34081 0.41309 0.92999 0.0
H137 H 0.27194 0.53616 0.74466 0.0
C138 C 0.29303 0.50124 0.79493 0.0
C139 C 0.26217 0.42276 0.80462 0.0
C140 C 0.2937 0.3773 0.86807 0.0
C141 C 0.32296 0.38717 1.01125 0.0
H142 H 0.2706 0.31716 0.87545 0.0
C143 C 0.25812 0.43498 1.04256 0.0
C144 C 0.17894 0.40412 1.02941 0.0
C145 C 0.32006 0.30347 1.02435 0.0
H146 H 0.37215 0.26385 1.00905 0.0
C147 C 0.24348 0.26994 1.04005 0.0
H148 H 0.26471 0.5002 1.04488 0.0
C149 C 0.17131 0.31975 1.03607 0.0
H150 H 0.11172 0.29189 1.03127 0.0
H151 H 0.23886 0.20491 1.04403 0.0
C152 C 0.10199 0.1763 0.43789 0.0
N153 N 0.07852 0.29258 0.66773 0.0
C154 C 0.13222 0.34038 0.63 0.0
C155 C 0.18915 0.38865 0.67292 0.0
C156 C 0.19148 0.38833 0.75581 0.0
C157 C 0.12917 0.34611 0.7928 0.0
C158 C 0.07382 0.29863 0.74801 0.0
Zn159 Zn 0.03563 0.18405 0.60966 0.0
C160 C 0.86679 0.18948 0.52971 0.0
N161 N 0.98525 0.95312 0.4998 0.0
C162 C 0.03503 0.89098 0.52702 0.0
C163 C 0.90162 0.94741 0.50133 0.0
C164 C 0.86665 0.89192 0.54962 0.0
C165 C 0.91715 0.8334 0.58733 0.0
C166 C 1.002 0.83028 0.57186 0.0
Zn167 Zn 0.0159 1.06576 0.54397 0.0
O168 O 0.08504 0.22197 0.49811 0.0
C169 C 0.16922 1.06344 0.63589 0.0
O170 O 0.07864 0.10304 0.43688 0.0
H171 H 0.86119 0.99015 0.47124 0.0
H172 H 0.13682 0.33705 0.56654 0.0
H173 H 0.10121 0.89158 0.5198 0.0
O174 O 0.15074 0.13819 0.64157 0.0
O175 O 0.12743 1.01851 0.5894 0.0
H176 H 0.03193 0.26159 0.77862 0.0
O177 O 0.96238 1.02159 0.65148 0.0
O178 O 0.9874 0.13138 0.72143 0.0
O179 O 0.89607 0.12162 0.50294 0.0
O180 O 0.91237 0.23134 0.57746 0.0
C181 C 0.9642 1.05753 0.71867 0.0
H182 H 0.23488 0.42073 0.64139 0.0
H183 H 0.12642 0.34516 0.85659 0.0
H184 H 0.79992 0.89191 0.55391 0.0
H185 H 0.04185 0.78147 0.59381 0.0
C186 C 0.66793 0.10051 1.14637 0.0
N187 N 0.56663 0.3105 0.17333 0.0
C188 C 0.63982 0.32448 0.21262 0.0
C189 C 0.68734 0.38801 0.1944 0.0
C190 C 0.65618 0.44391 1.14107 0.0
C191 C 0.58166 0.42902 1.09926 0.0
C192 C 0.53775 0.36022 1.11575 0.0
Zn193 Zn 0.52363 0.20215 0.20126 0.0
C194 C 0.46636 0.08804 1.06092 0.0
N195 N 0.49518 0.97053 0.26332 0.0
C196 C 0.50457 0.91794 0.20064 0.0
C197 C 0.43227 0.96445 0.31437 0.0
C198 C 0.3684 0.9124 0.29509 0.0
C199 C 0.37031 0.86923 0.22228 0.0
C200 C 0.43874 0.87265 0.1747 0.0
Zn201 Zn 0.51542 1.08183 0.22873 0.0
O202 O 0.64966 0.164 0.18525 0.0
C203 C 0.59257 0.18217 0.36562 0.0
O204 O 0.62616 1.03992 0.16179 0.0
H205 H 0.4267 1.00634 0.36456 0.0
H206 H 0.66423 0.28551 0.25802 0.0
H207 H 0.55562 0.92135 0.16159 0.0
O208 O 0.5531 0.23556 0.32567 0.0
O209 O 0.59154 0.10917 0.33869 0.0
H210 H 0.48133 0.34673 1.08341 0.0
O211 O 0.39194 0.13314 0.28293 0.0
O212 O 0.39741 0.24556 0.21822 0.0
O213 O 0.45043 1.04858 1.1211 0.0
O214 O 0.49399 0.15966 1.07318 0.0
C215 C 0.35636 0.20071 0.26205 0.0
H216 H 0.74386 0.39843 0.22861 0.0
H217 H 0.55579 0.47039 1.05705 0.0
H218 H 0.31686 0.90824 0.33438 0.0
H219 H 0.44249 0.8383 1.11916 0.0
C220 C 0.57421 0.53101 0.74293 0.0
N221 N 0.61554 0.67333 0.95327 0.0
C222 C 0.57554 0.61867 0.99494 0.0
C223 C 0.54796 0.63918 1.07041 0.0
C224 C 0.56898 0.71348 1.107 0.0
C225 C 0.62 0.76452 1.06564 0.0
C226 C 0.64372 0.74255 0.98878 0.0
Zn227 Zn 0.56659 0.68221 0.84245 0.0
C228 C 0.67112 0.73755 0.72077 0.0
N229 N 0.4281 0.7032 0.62545 0.0
C230 C 0.34391 0.70885 0.61703 0.0
C231 C 0.47434 0.66595 0.5682 0.0
C232 C 0.43744 0.62378 0.50549 0.0
C233 C 0.35126 0.62392 0.49729 0.0
C234 C 0.30392 0.67055 0.55183 0.0
Zn235 Zn 0.48826 0.69889 0.73472 0.0
O236 O 0.60175 0.55941 0.80893 0.0
C237 C 0.39028 0.61373 0.83993 0.0
O238 O 0.5273 0.57595 0.70045 0.0
H239 H 0.53987 0.65958 0.5761 0.0
H240 H 0.5555 0.56355 0.96548 0.0
H241 H 0.30734 0.73694 0.66375 0.0
O242 O 0.45271 0.63185 0.88324 0.0
O243 O 0.38045 0.64819 0.77475 0.0
H244 H 0.67505 0.78589 0.9543 0.0
O245 O 0.45281 0.82509 0.77692 0.0
O246 O 0.53239 0.80634 0.88095 0.0
O247 O 0.59898 0.74049 0.68892 0.0
O248 O 0.67969 0.7209 0.79371 0.0
C249 C 0.4847 0.85343 0.84239 0.0
H250 H 0.51152 0.59615 1.10006 0.0
H251 H 0.6396 0.8219 1.0909 0.0
H252 H 0.47659 0.58932 0.46487 0.0
H253 H 0.23704 0.67376 0.5463 0.0
C254 C 0.94894 0.83361 0.93232 0.0
N255 N 0.96182 0.85316 0.18128 0.0
C256 C 0.88558 0.88949 0.17063 0.0
C257 C 0.82979 0.89312 0.23229 0.0
C258 C 0.85414 0.86106 0.30551 0.0
C259 C 0.93861 0.84111 0.31881 0.0
C260 C 0.99221 0.83832 0.25526 0.0
Zn261 Zn 0.99113 0.76834 1.09422 0.0
C262 C 0.83586 0.67239 1.07593 0.0
N263 N 1.00417 0.57006 0.92989 0.0
C264 C 0.08263 0.57109 0.90499 0.0
C265 C 0.97456 0.50062 0.95912 0.0
C266 C 0.03015 0.44257 0.99096 0.0
C267 C 0.11527 0.45532 0.98697 0.0
C268 C 0.14045 0.51743 0.9379 0.0
Zn269 Zn 0.98907 0.66637 1.00792 0.0
O270 O 0.95236 0.8498 1.00626 0.0
C271 C 0.15294 0.74894 1.05695 0.0
O272 O 0.96316 0.7595 0.90953 0.0
H273 H 0.90977 0.49729 0.97252 0.0
H274 H 0.86184 0.90112 1.11175 0.0
H275 H 0.10389 0.62412 0.87636 0.0
O276 O 0.10644 0.806 1.08389 0.0
O277 O 0.12117 0.69011 1.01758 0.0
H278 H 0.0539 0.81201 0.26322 0.0
O279 O 0.01615 0.57885 1.10339 0.0
O280 O 0.03402 0.68264 0.18328 0.0
O281 O 0.86319 0.63861 1.01321 0.0
O282 O 0.87591 0.72831 1.10933 0.0
C283 C 0.03696 0.60592 0.1717 0.0
H284 H 0.76595 0.91063 0.21913 0.0
H285 H 0.96134 0.81998 0.37555 0.0
H286 H 0.00677 0.3935 1.02414 0.0
H287 H 0.20426 0.52893 0.92887 0.0
loop_
_geom_bond_atom_site_label_1
_geom_bond_atom_site_label_2
_geom_bond_distance
_geom_bond_site_symmetry_2
_ccdc_geom_bond_type
H0 C1 0.949 . S
C1 H0 0.949 . S
C1 C2 1.395 . S
C1 C3 1.391 . S
C2 C1 1.395 . S
C2 C5 1.390 . S
C3 C1 1.391 . S
C3 C7 1.387 . S
C3 C8 1.491 . S
H4 C5 0.950 . S
C5 C2 1.390 . S
C5 H4 0.950 . S
C5 C6 1.378 . S
C6 C5 1.378 . S
C6 C7 1.409 . S
C7 C3 1.387 . S
C7 C6 1.409 . S
C7 H9 0.951 . S
C8 C3 1.491 . S
C8 C10 1.382 . S
C8 C12 1.404 . S
H9 C7 0.951 . S
C10 C8 1.382 . S
C10 C11 1.390 . S
C10 H15 0.949 . S
C11 C10 1.390 . S
C11 C16 1.399 . S
C12 C8 1.404 . S
C12 H13 0.950 . S
C12 C14 1.375 . S
H13 C12 0.950 . S
C14 C12 1.375 . S
C14 C16 1.382 . S
C14 H18 0.950 . S
H15 C10 0.949 . S
C16 C11 1.399 . S
C16 C14 1.382 . S
C16 H17 0.952 . S
H17 C16 0.952 . S
H18 C14 0.950 . S
H19 C20 0.949 . S
C20 H19 0.949 . S
C20 C21 1.395 . S
C20 C22 1.391 . S
C21 C20 1.395 . S
C21 C24 1.390 . S
C22 C20 1.391 . S
C22 C26 1.387 . S
C22 C27 1.491 . S
H23 C24 0.950 . S
C24 C21 1.390 . S
C24 H23 0.950 . S
C24 C25 1.378 . S
C25 C24 1.378 . S
C25 C26 1.409 . S
C26 C22 1.387 . S
C26 C25 1.409 . S
C26 H28 0.951 . S
C27 C22 1.491 . S
C27 C29 1.382 . S
C27 C31 1.404 . S
H28 C26 0.951 . S
C29 C27 1.382 . S
C29 C30 1.390 . S
C29 H34 0.949 1_565 S
C30 C29 1.390 . S
C30 C35 1.399 . S
C31 C27 1.404 . S
C31 H32 0.950 . S
C31 C33 1.375 . S
H32 C31 0.950 . S
C33 C31 1.375 . S
C33 C35 1.382 . S
C33 H37 0.950 . S
H34 C29 0.949 1_545 S
C35 C30 1.399 . S
C35 C33 1.382 . S
C35 H36 0.952 . S
H36 C35 0.952 . S
H37 C33 0.950 . S
H38 C39 0.949 . S
C39 H38 0.949 . S
C39 C40 1.395 1_556 S
C39 C41 1.391 . S
C40 C39 1.395 1_554 S
C40 C43 1.390 . S
C41 C39 1.391 . S
C41 C45 1.387 . S
C41 C46 1.491 . S
H42 C43 0.950 . S
C43 C40 1.390 . S
C43 H42 0.950 . S
C43 C44 1.378 . S
C44 C43 1.378 . S
C44 C45 1.409 1_554 S
C45 C41 1.387 . S
C45 C44 1.409 1_556 S
C45 H47 0.951 . S
C46 C41 1.491 . S
C46 C48 1.382 . S
C46 C50 1.404 . S
H47 C45 0.951 . S
C48 C46 1.382 . S
C48 C49 1.390 . S
C48 H53 0.949 . S
C49 C48 1.390 . S
C49 C54 1.399 . S
C50 C46 1.404 . S
C50 H51 0.950 . S
C50 C52 1.375 . S
H51 C50 0.950 . S
C52 C50 1.375 . S
C52 C54 1.382 . S
C52 H56 0.950 . S
H53 C48 0.949 . S
C54 C49 1.399 . S
C54 C52 1.382 . S
C54 H55 0.952 . S
H55 C54 0.952 . S
H56 C52 0.950 . S
H57 C58 0.949 . S
C58 H57 0.949 . S
C58 C59 1.395 . S
C58 C60 1.391 . S
C59 C58 1.395 . S
C59 C62 1.390 . S
C60 C58 1.391 . S
C60 C64 1.387 . S
C60 C65 1.491 . S
H61 C62 0.950 . S
C62 C59 1.390 . S
C62 H61 0.950 . S
C62 C63 1.378 . S
C63 C62 1.378 . S
C63 C64 1.409 . S
C64 C60 1.387 . S
C64 C63 1.409 . S
C64 H66 0.951 . S
C65 C60 1.491 . S
C65 C67 1.382 . S
C65 C69 1.404 . S
H66 C64 0.951 . S
C67 C65 1.382 . S
C67 C68 1.390 . S
C67 H72 0.949 . S
C68 C67 1.390 . S
C68 C73 1.399 . S
C69 C65 1.404 . S
C69 H70 0.950 . S
C69 C71 1.375 . S
H70 C69 0.950 . S
C71 C69 1.375 . S
C71 C73 1.382 . S
C71 H75 0.950 . S
H72 C67 0.949 . S
C73 C68 1.399 . S
C73 C71 1.382 . S
C73 H74 0.952 . S
H74 C73 0.952 . S
H75 C71 0.950 . S
H76 C77 0.949 . S
C77 H76 0.949 . S
C77 C78 1.395 . S
C77 C79 1.391 . S
C78 C77 1.395 . S
C78 C81 1.390 . S
C79 C77 1.391 . S
C79 C83 1.387 . S
C79 C84 1.491 . S
H80 C81 0.950 1_455 S
C81 C78 1.390 . S
C81 H80 0.950 1_655 S
C81 C82 1.378 . S
C82 C81 1.378 . S
C82 C83 1.409 . S
C83 C79 1.387 . S
C83 C82 1.409 . S
C83 H85 0.951 . S
C84 C79 1.491 . S
C84 C86 1.382 . S
C84 C88 1.404 . S
H85 C83 0.951 . S
C86 C84 1.382 . S
C86 C87 1.383 1_565 S
C86 H91 0.949 . S
C87 C86 1.383 1_545 S
C87 C92 1.403 . S
C88 C84 1.404 . S
C88 H89 0.950 . S
C88 C90 1.375 . S
H89 C88 0.950 . S
C90 C88 1.375 . S
C90 C92 1.382 1_565 S
C90 H94 0.950 1_565 S
H91 C86 0.949 . S
C92 C87 1.403 . S
C92 C90 1.382 1_545 S
C92 H93 0.952 . S
H93 C92 0.952 . S
H94 C90 0.950 1_545 S
H95 C96 0.949 . S
C96 H95 0.949 . S
C96 C97 1.395 . S
C96 C98 1.391 . S
C97 C96 1.395 . S
C97 C100 1.390 . S
C98 C96 1.391 . S
C98 C102 1.387 . S
C98 C103 1.491 . S
H99 C100 0.950 . S
C100 C97 1.390 . S
C100 H99 0.950 . S
C100 C101 1.378 . S
C101 C100 1.378 . S
C101 C102 1.409 . S
C102 C98 1.387 . S
C102 C101 1.409 . S
C102 H104 0.951 . S
C103 C98 1.491 . S
C103 C105 1.382 . S
C103 C107 1.404 . S
H104 C102 0.951 . S
C105 C103 1.382 . S
C105 C106 1.390 . S
C105 H110 0.949 . S
C106 C105 1.390 . S
C106 C111 1.399 . S
C107 C103 1.404 . S
C107 H108 0.950 . S
C107 C109 1.375 . S
H108 C107 0.950 . S
C109 C107 1.375 . S
C109 C111 1.382 . S
C109 H113 0.950 . S
H110 C105 0.949 . S
C111 C106 1.399 . S
C111 C109 1.382 . S
C111 H112 0.952 . S
H112 C111 0.952 . S
H113 C109 0.950 . S
H114 C115 0.949 . S
C115 H114 0.949 . S
C115 C116 1.395 . S
C115 C117 1.391 . S
C116 C115 1.395 . S
C116 C119 1.390 . S
C117 C115 1.391 . S
C117 C121 1.387 . S
C117 C122 1.491 . S
H118 C119 0.950 . S
C119 C116 1.390 . S
C119 H118 0.950 . S
C119 C120 1.378 . S
C120 C119 1.378 . S
C120 C121 1.409 . S
C121 C117 1.387 . S
C121 C120 1.409 . S
C121 H123 0.951 . S
C122 C117 1.491 . S
C122 C124 1.382 . S
C122 C126 1.404 . S
H123 C121 0.951 . S
C124 C122 1.382 . S
C124 C125 1.390 . S
C124 H129 0.949 . S
C125 C124 1.390 . S
C125 C130 1.399 . S
C126 C122 1.404 . S
C126 H127 0.950 . S
C126 C128 1.375 . S
H127 C126 0.950 . S
C128 C126 1.375 . S
C128 C130 1.382 . S
C128 H132 0.950 . S
H129 C124 0.949 . S
C130 C125 1.399 . S
C130 C128 1.382 . S
C130 H131 0.952 . S
H131 C130 0.952 . S
H132 C128 0.950 . S
H133 C134 0.949 . S
C134 H133 0.949 . S
C134 C135 1.395 . S
C134 C136 1.391 . S
C135 C134 1.395 . S
C135 C138 1.390 . S
C136 C134 1.391 . S
C136 C140 1.387 . S
C136 C141 1.491 . S
H137 C138 0.950 . S
C138 C135 1.390 . S
C138 H137 0.950 . S
C138 C139 1.378 . S
C139 C138 1.378 . S
C139 C140 1.409 . S
C140 C136 1.387 . S
C140 C139 1.409 . S
C140 H142 0.951 . S
C141 C136 1.491 . S
C141 C143 1.382 . S
C141 C145 1.404 . S
H142 C140 0.951 . S
C143 C141 1.382 . S
C143 C144 1.390 . S
C143 H148 0.949 . S
C144 C143 1.390 . S
C144 C149 1.399 . S
C145 C141 1.404 . S
C145 H146 0.950 . S
C145 C147 1.375 . S
H146 C145 0.950 . S
C147 C145 1.375 . S
C147 C149 1.382 . S
C147 H151 0.950 . S
H148 C143 0.949 . S
C149 C144 1.399 . S
C149 C147 1.382 . S
C149 H150 0.952 . S
H150 C149 0.952 . S
H151 C147 0.950 . S
C152 O168 1.251 . S
C152 O170 1.254 . S
N153 C154 1.333 . S
N153 C158 1.307 . S
N153 Zn159 2.020 . S
C154 N153 1.333 . S
C154 C155 1.379 . S
C154 H172 0.952 . S
C155 C154 1.379 . S
C155 C156 1.390 . S
C155 H182 0.949 . S
C156 C155 1.390 . S
C156 C157 1.357 . S
C157 C156 1.357 . S
C157 C158 1.370 . S
C157 H183 0.950 . S
C158 N153 1.307 . S
C158 C157 1.370 . S
C158 H176 0.948 . S
Zn159 N153 2.020 . S
Zn159 O168 2.039 . S
Zn159 O174 2.034 . S
Zn159 O178 2.025 1_455 S
Zn159 O180 2.024 1_455 S
C160 O179 1.246 . S
C160 O180 1.249 . S
N161 C162 1.307 . S
N161 C163 1.333 . S
N161 Zn167 2.020 . S
C162 N161 1.307 . S
C162 C166 1.370 . S
C162 H173 0.959 . S
C163 N161 1.333 . S
C163 C164 1.379 . S
C163 H171 0.952 . S
C164 C163 1.379 . S
C164 C165 1.390 . S
C164 H184 0.949 . S
C165 C164 1.390 . S
C165 C166 1.357 . S
C166 C162 1.370 . S
C166 C165 1.357 . S
C166 H185 0.950 . S
Zn167 N161 2.020 . S
Zn167 O170 2.025 1_665 S
Zn167 O175 2.024 1_655 S
Zn167 O177 2.039 . S
Zn167 O179 2.034 1_565 S
O168 C152 1.251 . S
O168 Zn159 2.039 . S
C169 O174 1.246 . S
C169 O175 1.249 1_545 S
O170 C152 1.254 . S
O170 Zn167 2.025 1_445 S
H171 C163 0.952 . S
H172 C154 0.952 . S
H173 C162 0.959 . S
O174 Zn159 2.034 . S
O174 C169 1.246 . S
O175 Zn167 2.024 1_455 S
O175 C169 1.249 1_565 S
H176 C158 0.948 . S
O177 Zn167 2.039 . S
O177 C181 1.251 1_565 S
O178 Zn159 2.025 1_655 S
O178 C181 1.254 . S
O179 C160 1.246 . S
O179 Zn167 2.034 1_545 S
O180 Zn159 2.024 1_655 S
O180 C160 1.249 . S
C181 O177 1.251 1_545 S
C181 O178 1.254 . S
H182 C155 0.949 . S
H183 C157 0.950 . S
H184 C164 0.949 . S
H185 C166 0.950 . S
C186 O202 1.251 . S
C186 O204 1.254 1_545 S
N187 C188 1.333 . S
N187 C192 1.307 1_554 S
N187 Zn193 2.020 . S
C188 N187 1.333 . S
C188 C189 1.379 1_554 S
C188 H206 0.952 . S
C189 C188 1.379 1_556 S
C189 C190 1.390 . S
C189 H216 0.949 . S
C190 C189 1.390 . S
C190 C191 1.357 . S
C191 C190 1.357 . S
C191 C192 1.370 . S
C191 H217 0.950 . S
C192 N187 1.307 1_556 S
C192 C191 1.370 . S
C192 H210 0.948 . S
Zn193 N187 2.020 . S
Zn193 O202 2.039 . S
Zn193 O208 2.034 . S
Zn193 O212 2.025 . S
Zn193 O214 2.024 1_554 S
C194 O213 1.246 1_545 S
C194 O214 1.249 . S
N195 C196 1.307 . S
N195 C197 1.333 . S
N195 Zn201 2.020 . S
C196 N195 1.307 . S
C196 C200 1.370 . S
C196 H207 0.948 . S
C197 N195 1.333 . S
C197 C198 1.379 . S
C197 H205 0.952 . S
C198 C197 1.379 . S
C198 C199 1.390 . S
C198 H218 0.949 . S
C199 C198 1.390 . S
C199 C200 1.357 . S
C200 C196 1.370 . S
C200 C199 1.357 . S
C200 H219 0.950 . S
Zn201 N195 2.020 . S
Zn201 O204 2.025 . S
Zn201 O209 2.024 1_565 S
Zn201 O211 2.039 1_565 S
Zn201 O213 2.034 1_554 S
O202 C186 1.251 . S
O202 Zn193 2.039 . S
C203 O208 1.246 . S
C203 O209 1.249 . S
O204 C186 1.254 1_565 S
O204 Zn201 2.025 . S
H205 C197 0.952 . S
H206 C188 0.952 . S
H207 C196 0.948 . S
O208 Zn193 2.034 . S
O208 C203 1.246 . S
O209 Zn201 2.024 1_545 S
O209 C203 1.249 . S
H210 C192 0.948 . S
O211 Zn201 2.039 1_545 S
O211 C215 1.251 . S
O212 Zn193 2.025 . S
O212 C215 1.254 . S
O213 C194 1.246 1_565 S
O213 Zn201 2.034 1_556 S
O214 Zn193 2.024 1_556 S
O214 C194 1.249 . S
C215 O211 1.251 . S
C215 O212 1.254 . S
H216 C189 0.949 . S
H217 C191 0.950 . S
H218 C198 0.949 . S
H219 C200 0.950 . S
C220 O236 1.251 . S
C220 O238 1.254 . S
N221 C222 1.333 . S
N221 C226 1.307 . S
N221 Zn227 2.020 . S
C222 N221 1.333 . S
C222 C223 1.379 . S
C222 H240 0.952 . S
C223 C222 1.379 . S
C223 C224 1.390 . S
C223 H250 0.949 . S
C224 C223 1.390 . S
C224 C225 1.357 . S
C225 C224 1.357 . S
C225 C226 1.370 . S
C225 H251 0.950 . S
C226 N221 1.307 . S
C226 C225 1.370 . S
C226 H244 0.948 . S
Zn227 N221 2.020 . S
Zn227 O236 2.039 . S
Zn227 O242 2.034 . S
Zn227 O246 2.025 . S
Zn227 O248 2.024 . S
C228 O247 1.246 . S
C228 O248 1.249 . S
N229 C230 1.307 . S
N229 C231 1.333 . S
N229 Zn235 2.020 . S
C230 N229 1.307 . S
C230 C234 1.370 . S
C230 H241 0.948 . S
C231 N229 1.333 . S
C231 C232 1.379 . S
C231 H239 0.952 . S
C232 C231 1.379 . S
C232 C233 1.390 . S
C232 H252 0.949 . S
C233 C232 1.390 . S
C233 C234 1.357 . S
C234 C230 1.370 . S
C234 C233 1.357 . S
C234 H253 0.950 . S
Zn235 N229 2.020 . S
Zn235 O238 2.025 . S
Zn235 O243 2.024 . S
Zn235 O245 2.039 . S
Zn235 O247 2.034 . S
O236 C220 1.251 . S
O236 Zn227 2.039 . S
C237 O242 1.246 . S
C237 O243 1.249 . S
O238 C220 1.254 . S
O238 Zn235 2.025 . S
H239 C231 0.952 . S
H240 C222 0.952 . S
H241 C230 0.948 . S
O242 Zn227 2.034 . S
O242 C237 1.246 . S
O243 Zn235 2.024 . S
O243 C237 1.249 . S
H244 C226 0.948 . S
O245 Zn235 2.039 . S
O245 C249 1.251 . S
O246 Zn227 2.025 . S
O246 C249 1.254 . S
O247 C228 1.246 . S
O247 Zn235 2.034 . S
O248 Zn227 2.024 . S
O248 C228 1.249 . S
C249 O245 1.251 . S
C249 O246 1.254 . S
H250 C223 0.949 . S
H251 C225 0.950 . S
H252 C232 0.949 . S
H253 C234 0.950 . S
C254 O270 1.251 1_556 S
C254 O272 1.254 1_655 S
N255 C256 1.333 . S
N255 C260 1.307 . S
N255 Zn261 2.020 . S
C256 N255 1.333 . S
C256 C257 1.379 . S
C256 H274 0.952 . S
C257 C256 1.379 . S
C257 C258 1.390 . S
C257 H284 0.949 . S
C258 C257 1.390 . S
C258 C259 1.357 . S
C259 C258 1.357 . S
C259 C260 1.370 . S
C259 H285 0.950 . S
C260 N255 1.307 . S
C260 C259 1.370 . S
C260 H278 0.948 . S
Zn261 N255 2.020 . S
Zn261 O270 2.039 . S
Zn261 O276 2.034 1_655 S
Zn261 O280 2.025 1_655 S
Zn261 O282 2.024 . S
C262 O281 1.246 . S
C262 O282 1.249 1_556 S
N263 C264 1.307 . S
N263 C265 1.333 . S
N263 Zn269 2.020 . S
C264 N263 1.307 . S
C264 C268 1.370 . S
C264 H275 0.948 . S
C265 N263 1.333 . S
C265 C266 1.379 . S
C265 H273 0.952 . S
C266 C265 1.379 . S
C266 C267 1.390 . S
C266 H286 0.949 . S
C267 C266 1.390 . S
C267 C268 1.357 . S
C268 C264 1.370 . S
C268 C267 1.357 . S
C268 H287 0.950 . S
Zn269 N263 2.020 . S
Zn269 O272 2.025 . S
Zn269 O277 2.024 1_556 S
Zn269 O279 2.039 . S
Zn269 O281 2.034 1_455 S
O270 C254 1.251 1_554 S
O270 Zn261 2.039 . S
C271 O276 1.246 . S
C271 O277 1.249 . S
O272 C254 1.254 1_455 S
O272 Zn269 2.025 . S
H273 C265 0.952 . S
H274 C256 0.952 . S
H275 C264 0.948 . S
O276 Zn261 2.034 1_455 S
O276 C271 1.246 . S
O277 Zn269 2.024 1_554 S
O277 C271 1.249 . S
H278 C260 0.948 . S
O279 Zn269 2.039 . S
O279 C283 1.252 1_556 S
O280 Zn261 2.025 1_455 S
O280 C283 1.254 . S
O281 C262 1.246 . S
O281 Zn269 2.034 1_655 S
O282 Zn261 2.024 . S
O282 C262 1.249 1_554 S
C283 O279 1.252 1_554 S
C283 O280 1.254 . S
H284 C257 0.949 . S
H285 C259 0.950 . S
H286 C266 0.949 . S
H287 C268 0.950 . S
C6 C152 3.631 . S
C21 C194 4.187 1_565 S
C224 C49 0.644 . S
C68 C258 1.125 . S
C215 C2 3.244 . S
C169 C30 1.732 1_545 S
C262 C40 1.270 1_556 S
C228 C63 0.308 . S
C11 C283 2.510 . S
C190 C44 2.161 1_556 S
C59 C165 1.831 . S
C25 C249 3.579 . S
C181 C82 4.005 1_545 S
C101 C203 3.561 . S
C125 C233 1.447 . S
C144 C267 0.158 . S
C87 C186 1.869 1_556 S
C160 C97 3.219 . S
C271 C120 0.405 . S
C237 C135 1.025 . S
C78 C254 3.687 . S
C199 C116 1.750 . S
C156 C139 2.063 . S
C106 C220 2.615 . S
