# Generated by pormake.
# Topology pyr, (3,6)-cn, num edge types: 1
# Building blocks:
#     Node 0, Type 0, BuildingBlock: CUQRIR_clean_linker_1, # of connection points: 3
#     Node 1, Type 0, BuildingBlock: CUQRIR_clean_linker_1, # of connection points: 3
#     Node 2, Type 0, BuildingBlock: CUQRIR_clean_linker_1, # of connection points: 3
#     Node 3, Type 0, BuildingBlock: CUQRIR_clean_linker_1, # of connection points: 3
#     Node 4, Type 0, BuildingBlock: CUQRIR_clean_linker_1, # of connection points: 3
#     Node 5, Type 0, BuildingBlock: CUQRIR_clean_linker_1, # of connection points: 3
#     Node 6, Type 0, BuildingBlock: CUQRIR_clean_linker_1, # of connection points: 3
#     Node 7, Type 0, BuildingBlock: CUQRIR_clean_linker_1, # of connection points: 3
#     Node 8, Type 1, BuildingBlock: JUFBIX_clean_sbu_0, # of connection points: 6
#     Node 9, Type 1, BuildingBlock: JUFBIX_clean_sbu_0, # of connection points: 6
#     Node 10, Type 1, BuildingBlock: JUFBIX_clean_sbu_0, # of connection points: 6
#     Node 11, Type 1, BuildingBlock: JUFBIX_clean_sbu_0, # of connection points: 6
#     Edge 12, Type (0, 1), BuildingBlock: ZUJKAS_clean_linker_0, # of connection points: 2
#     Edge 13, Type (0, 1), BuildingBlock: ZUJKAS_clean_linker_0, # of connection points: 2
#     Edge 14, Type (0, 1), BuildingBlock: ZUJKAS_clean_linker_0, # of connection points: 2
#     Edge 15, Type (0, 1), BuildingBlock: ZUJKAS_clean_linker_0, # of connection points: 2
#     Edge 16, Type (0, 1), BuildingBlock: ZUJKAS_clean_linker_0, # of connection points: 2
#     Edge 17, Type (0, 1), BuildingBlock: ZUJKAS_clean_linker_0, # of connection points: 2
#     Edge 18, Type (0, 1), BuildingBlock: ZUJKAS_clean_linker_0, # of connection points: 2
#     Edge 19, Type (0, 1), BuildingBlock: ZUJKAS_clean_linker_0, # of connection points: 2
#     Edge 20, Type (0, 1), BuildingBlock: ZUJKAS_clean_linker_0, # of connection points: 2
#     Edge 21, Type (0, 1), BuildingBlock: ZUJKAS_clean_linker_0, # of connection points: 2
#     Edge 22, Type (0, 1), BuildingBlock: ZUJKAS_clean_linker_0, # of connection points: 2
#     Edge 23, Type (0, 1), BuildingBlock: ZUJKAS_clean_linker_0, # of connection points: 2
#     Edge 24, Type (0, 1), BuildingBlock: ZUJKAS_clean_linker_0, # of connection points: 2
#     Edge 25, Type (0, 1), BuildingBlock: ZUJKAS_clean_linker_0, # of connection points: 2
#     Edge 26, Type (0, 1), BuildingBlock: ZUJKAS_clean_linker_0, # of connection points: 2
#     Edge 27, Type (0, 1), BuildingBlock: ZUJKAS_clean_linker_0, # of connection points: 2
#     Edge 28, Type (0, 1), BuildingBlock: ZUJKAS_clean_linker_0, # of connection points: 2
#     Edge 29, Type (0, 1), BuildingBlock: ZUJKAS_clean_linker_0, # of connection points: 2
#     Edge 30, Type (0, 1), BuildingBlock: ZUJKAS_clean_linker_0, # of connection points: 2
#     Edge 31, Type (0, 1), BuildingBlock: ZUJKAS_clean_linker_0, # of connection points: 2
#     Edge 32, Type (0, 1), BuildingBlock: ZUJKAS_clean_linker_0, # of connection points: 2
#     Edge 33, Type (0, 1), BuildingBlock: ZUJKAS_clean_linker_0, # of connection points: 2
#     Edge 34, Type (0, 1), BuildingBlock: ZUJKAS_clean_linker_0, # of connection points: 2
#     Edge 35, Type (0, 1), BuildingBlock: ZUJKAS_clean_linker_0, # of connection points: 2
# Relax obj value: 0.121
# Max RMSD: 0.216
# Mean RMSD: 0.151
data_MOF--net-pyr--node1-JUFBIX_clean_sbu_0--node2-CUQRIR_clean_linker_1--edge1-ZUJKAS_clean_linker_0
_symmetry_space_group_name_H-M    P1
_symmetry_Int_Tables_number       1
_symmetry_cell_setting            triclinic
loop_
_symmetry_equiv_pos_as_xyz
'x, y, z'
_cell_length_a     45.731866
_cell_length_b     43.722129
_cell_length_c     44.846035
_cell_angle_alpha  83.666647
_cell_angle_beta   91.229649
_cell_angle_gamma 94.377528
loop_
_atom_site_label
_atom_site_type_symbol
_atom_site_fract_x
_atom_site_fract_y
_atom_site_fract_z
_atom_type_partial_charge
C0 C 0.17873 0.2084 0.18467 0.0
N1 N 0.19867 0.18722 0.19248 0.0
N2 N 0.18644 0.22677 0.15922 0.0
C3 C 0.15144 0.21113 0.20208 0.0
C4 C 0.2121 0.21582 0.15172 0.0
N5 N 0.21988 0.19191 0.17196 0.0
C6 C 0.23022 0.2292 0.1251 0.0
H7 H 0.14277 0.18824 0.21277 0.0
H8 H 0.13416 0.22147 0.18737 0.0
H9 H 0.15693 0.22619 0.22008 0.0
H10 H 0.24738 0.24615 0.13252 0.0
H11 H 0.21692 0.24142 0.10737 0.0
H12 H 0.24115 0.21082 0.11544 0.0
C13 C 0.37095 0.81093 0.67914 0.0
N14 N 0.36897 0.83517 0.69509 0.0
N15 N 0.3985 0.80154 0.68091 0.0
C16 C 0.34679 0.79838 0.6595 0.0
C17 C 0.41334 0.82121 0.69816 0.0
N18 N 0.3954 0.84192 0.70655 0.0
C19 C 0.44466 0.81871 0.70849 0.0
H20 H 0.33317 0.78008 0.67306 0.0
H21 H 0.35582 0.78824 0.64036 0.0
H22 H 0.33244 0.81672 0.6506 0.0
H23 H 0.45918 0.83416 0.69294 0.0
H24 H 0.4511 0.79475 0.7085 0.0
H25 H 0.44793 0.82589 0.73137 0.0
C26 C 0.66237 0.37145 0.83419 0.0
N27 N 0.67731 0.36734 0.86052 0.0
N28 N 0.67091 0.39905 0.81897 0.0
C29 C 0.63759 0.34982 0.8246 0.0
C30 C 0.69131 0.41174 0.83718 0.0
N31 N 0.69493 0.39259 0.86263 0.0
C32 C 0.70922 0.44173 0.82912 0.0
H33 H 0.64672 0.33212 0.81231 0.0
H34 H 0.62183 0.36236 0.80959 0.0
H35 H 0.62565 0.33785 0.84436 0.0
H36 H 0.69867 0.46049 0.83856 0.0
H37 H 0.71058 0.44735 0.80443 0.0
H38 H 0.73173 0.44072 0.83874 0.0
C39 C 0.93469 0.63932 0.40029 0.0
N40 N 0.95968 0.65717 0.39347 0.0
N41 N 0.92429 0.64499 0.42704 0.0
C42 C 0.91826 0.61934 0.37924 0.0
C43 C 0.94391 0.66696 0.43615 0.0
N44 N 0.96541 0.67433 0.4158 0.0
C45 C 0.94097 0.68296 0.46382 0.0
H46 H 0.8952 0.62559 0.37666 0.0
H47 H 0.91784 0.59489 0.38906 0.0
H48 H 0.92834 0.62142 0.35679 0.0
H49 H 0.96283 0.68745 0.47437 0.0
H50 H 0.92626 0.66896 0.48029 0.0
H51 H 0.9318 0.70557 0.45739 0.0
C52 C 0.82506 0.8726 0.87893 0.0
N53 N 0.84726 0.86762 0.8606 0.0
N54 N 0.81202 0.89893 0.86917 0.0
C55 C 0.81788 0.85302 0.90799 0.0
C56 C 0.82765 0.91 0.84417 0.0
N57 N 0.84925 0.89131 0.83899 0.0
C58 C 0.82022 0.93777 0.8233 0.0
H59 H 0.80138 0.83405 0.90355 0.0
H60 H 0.80877 0.86683 0.92441 0.0
H61 H 0.83768 0.84259 0.91804 0.0
H62 H 0.83304 0.95849 0.83014 0.0
H63 H 0.79655 0.94146 0.82422 0.0
H64 H 0.82588 0.9351 0.79984 0.0
C65 C 0.66256 0.17838 0.44486 0.0
N66 N 0.66391 0.15078 0.4342 0.0
N67 N 0.63793 0.19164 0.43487 0.0
C68 C 0.68505 0.19225 0.46542 0.0
C69 C 0.62421 0.17105 0.41783 0.0
N70 N 0.63987 0.14597 0.41769 0.0
C71 C 0.59764 0.17721 0.39825 0.0
H72 H 0.69548 0.17391 0.4801 0.0
H73 H 0.67489 0.20779 0.47951 0.0
H74 H 0.70238 0.20598 0.45176 0.0
H75 H 0.59458 0.20223 0.39395 0.0
H76 H 0.57791 0.16552 0.40971 0.0
H77 H 0.59946 0.16785 0.37641 0.0
C78 C 0.341 0.65516 0.1533 0.0
N79 N 0.36614 0.66985 0.16252 0.0
N80 N 0.33362 0.66695 0.12519 0.0
C81 C 0.32325 0.62965 0.17167 0.0
C82 C 0.35534 0.6891 0.1176 0.0
N83 N 0.37528 0.69065 0.14023 0.0
C84 C 0.35626 0.71041 0.08879 0.0
H85 H 0.32635 0.60746 0.16277 0.0
H86 H 0.29958 0.63365 0.16967 0.0
H87 H 0.32983 0.62736 0.19565 0.0
H88 H 0.35173 0.73393 0.09366 0.0
H89 H 0.34014 0.70246 0.07197 0.0
H90 H 0.37836 0.71188 0.07887 0.0
C91 C 0.11231 0.36854 0.64216 0.0
N92 N 0.12203 0.36564 0.61443 0.0
N93 N 0.12389 0.39515 0.65182 0.0
C94 C 0.0912 0.34562 0.65962 0.0
C95 C 0.14093 0.40839 0.62889 0.0
N96 N 0.13955 0.39056 0.60596 0.0
C97 C 0.16165 0.43672 0.63033 0.0
H98 H 0.07873 0.35701 0.67566 0.0
H99 H 0.1037 0.32763 0.67245 0.0
H100 H 0.07567 0.33415 0.64426 0.0
H101 H 0.1826 0.43424 0.61914 0.0
H102 H 0.16653 0.44136 0.6538 0.0
H103 H 0.15142 0.45688 0.61838 0.0
Co104 Co 0.02036 0.01921 0.5043 0.0
C105 C 0.04542 0.96234 0.50219 0.0
Co106 Co 0.06243 0.01396 0.52836 0.0
C107 C 0.95899 0.02843 0.49069 0.0
C108 C 0.98107 0.0107 0.45541 0.0
N109 N 0.98531 0.01988 0.48302 0.0
N110 N 0.93854 0.02503 0.46883 0.0
C111 C 0.95245 0.01386 0.44664 0.0
H112 H 0.95504 0.03727 0.51174 0.0
H113 H 0.99775 1.00201 0.44255 0.0
C114 C 0.03792 0.07117 0.52959 0.0
N115 N 0.09806 0.01387 0.54871 0.0
C116 C 0.11019 0.99145 0.56695 0.0
C117 C 0.11797 0.03832 0.54774 0.0
N118 N 0.13697 1.00107 0.57736 0.0
C119 C 0.14171 0.03063 0.56533 0.0
C120 C 0.06903 0.03901 0.46745 0.0
O121 O 0.01716 0.06027 0.51369 0.0
O122 O 0.05859 0.05441 0.53828 0.0
O123 O 0.08296 0.03081 0.49159 0.0
O124 O 0.04112 0.0358 0.46792 0.0
O125 O 0.06606 0.97338 0.51817 0.0
H126 H 0.11539 0.06046 0.53499 0.0
H127 H 0.09975 0.96847 0.57202 0.0
O128 O 0.02394 0.97843 0.49462 0.0
O129 O 0.99977 1.00263 0.54117 0.0
O130 O 0.04173 0.99717 0.56492 0.0
C131 C 0.01371 0.99434 0.56538 0.0
H132 H 0.94256 0.00793 0.4257 0.0
H133 H 0.16087 0.04589 0.56907 0.0
Co134 Co 0.51 0.04151 0.01905 0.0
C135 C 0.50558 0.98933 0.06172 0.0
Co136 Co 0.53681 0.04505 0.06019 0.0
C137 C 0.49146 0.0317 0.9579 0.0
C138 C 0.45543 0.03473 0.98678 0.0
N139 N 0.48503 0.03683 0.98615 0.0
N140 N 0.46707 0.02643 0.94106 0.0
C141 C 0.44442 0.02851 0.95924 0.0
H142 H 0.51356 0.03092 0.95006 0.0
H143 H 0.44242 0.03601 1.00636 0.0
C144 C 0.54196 0.09706 0.01754 0.0
N145 N 0.56158 0.04954 0.0928 0.0
C146 C 0.55648 0.04283 0.12244 0.0
C147 C 0.58981 0.06084 0.0911 0.0
N148 N 0.58054 0.04947 0.13932 0.0
C149 C 0.60148 0.06087 0.11953 0.0
C150 C 0.56596 0.0205 0.01307 0.0
O151 O 0.52386 0.08157 1.00208 0.0
O152 O 0.54971 0.08541 0.04344 0.0
O153 O 0.56855 0.02805 0.03975 0.0
O154 O 0.54154 0.02415 0.9994 0.0
O155 O 0.52398 0.005 0.07658 0.0
H156 H 0.60113 0.06887 0.07045 0.0
H157 H 0.53556 0.03316 0.13135 0.0
O158 O 0.49648 1.0011 0.0363 0.0
O159 O 0.47897 0.05933 0.03917 0.0
O160 O 0.50472 0.06166 0.08053 0.0
C161 C 0.48074 0.06605 0.06611 0.0
H162 H 0.42147 0.02389 0.95371 0.0
H163 H 0.6235 0.06949 0.12511 0.0
Co164 Co 0.53833 0.5435 0.48257 0.0
C165 C 0.49422 0.54769 0.4389 0.0
Co166 Co 0.49861 0.51277 0.49351 0.0
C167 C 0.599 0.56591 0.4764 0.0
C168 C 0.56984 0.60073 0.46167 0.0
N169 N 0.57032 0.57098 0.47322 0.0
N170 N 0.61654 0.59136 0.46732 0.0
C171 C 0.59818 0.61331 0.45801 0.0
H172 H 0.60678 0.544 0.48552 0.0
H173 H 0.55013 0.61246 0.45614 0.0
C174 C 0.54295 0.50924 0.53728 0.0
N175 N 0.46693 0.48456 0.50278 0.0
C176 C 0.43781 0.48794 0.50091 0.0
C177 C 0.46917 0.45449 0.51226 0.0
N178 N 0.42176 0.46102 0.50883 0.0
C179 C 0.44163 0.44001 0.51588 0.0
C180 C 0.54139 0.48689 0.46274 0.0
O181 O 0.55618 0.53003 0.51944 0.0
O182 O 0.51759 0.49814 0.5301 0.0
O183 O 0.51581 0.48299 0.47354 0.0
O184 O 0.55609 0.51254 0.46413 0.0
O185 O 0.47999 0.52778 0.45698 0.0
H186 H 0.48962 0.44364 0.51592 0.0
H187 H 0.4287 0.50976 0.49397 0.0
O188 O 0.52023 0.557 0.44572 0.0
O189 O 0.52047 0.57403 0.50136 0.0
O190 O 0.48167 0.5428 0.51353 0.0
C191 C 0.4957 0.56898 0.51403 0.0
H192 H 0.60468 0.63666 0.44867 0.0
H193 H 0.43683 0.41567 0.52264 0.0
Co194 Co 1.01293 0.53626 0.98398 0.0
C195 C 0.95687 0.50829 0.99434 0.0
Co196 Co 0.99604 0.54138 0.0287 0.0
C197 C 0.04868 0.52064 0.93561 0.0
C198 C 1.01064 0.54376 0.92021 0.0
N199 N 0.02516 0.53339 0.94539 0.0
N200 N 0.04943 0.52308 0.90534 0.0
C201 C 0.02555 0.53763 0.89566 0.0
H202 H 0.06476 0.50961 0.95032 0.0
H203 H 0.99006 0.55446 0.91965 0.0
C204 C 0.05199 0.56904 0.01788 0.0
N205 N 0.98309 0.54407 0.0672 0.0
C206 C 0.98973 0.56617 0.08562 0.0
C207 C 0.9664 0.52206 0.08379 0.0
N208 N 0.97803 0.55863 0.11314 0.0
C209 C 0.96316 0.53095 0.11187 0.0
C210 C 0.02842 0.48823 0.02655 0.0
O211 O 0.04835 0.55901 0.99243 0.0
O212 O 0.03169 0.56393 0.03709 0.0
O213 O 0.01398 0.50328 0.04331 0.0
O214 O 0.03038 0.49818 0.99877 0.0
O215 O 0.96037 0.51855 0.01967 0.0
H216 H 0.95773 0.50048 0.07625 0.0
H217 H 1.00379 0.58681 0.0793 0.0
O218 O 0.97738 0.51346 0.97542 0.0
O219 O 0.99577 0.57445 0.96989 0.0
O220 O 0.97845 0.57978 0.01387 0.0
C221 C 0.98158 0.59 0.98625 0.0
H222 H 0.0187 0.54234 0.87245 0.0
H223 H 0.95094 0.51782 0.13 0.0
H224 H 0.21427 0.20108 0.24787 0.0
H225 H 0.19658 0.17314 0.2954 0.0
H226 H 0.15749 0.10002 0.24724 0.0
H227 H 0.17544 0.12815 0.19984 0.0
H228 H 0.13944 0.16039 0.3099 0.0
H229 H 0.19226 0.04988 0.31912 0.0
H230 H 0.20508 0.0829 0.29373 0.0
H231 H 0.17367 0.05855 0.28388 0.0
C232 C 0.20322 0.1783 0.24768 0.0
C233 C 0.19733 0.16634 0.2201 0.0
C234 C 0.19258 0.16249 0.27486 0.0
C235 C 0.17569 0.13409 0.27542 0.0
C236 C 0.17094 0.1214 0.24796 0.0
H237 H 0.04567 0.06217 0.41311 0.0
H238 H 0.07138 0.08453 0.36754 0.0
C239 C 0.18153 0.13735 0.22073 0.0
C240 C 0.161 0.11943 0.30405 0.0
H241 H 0.15278 0.0527 0.35234 0.0
C242 C 0.14253 0.13685 0.31912 0.0
C243 C 0.1649 0.08873 0.31667 0.0
C244 C 0.18526 0.06896 0.30273 0.0
C245 C 0.12772 0.12452 0.34569 0.0
C246 C 0.13095 0.09356 0.35786 0.0
C247 C 0.14986 0.07628 0.34316 0.0
C248 C 0.11507 0.07896 0.38581 0.0
C249 C 0.10905 0.1451 0.36082 0.0
C250 C 0.13065 0.06743 0.41156 0.0
C251 C 0.11588 0.05455 0.43789 0.0
C252 C 0.08497 0.05241 0.43924 0.0
C253 C 0.06942 0.06345 0.41323 0.0
C254 C 0.0842 0.07648 0.38702 0.0
H255 H 0.11489 0.16991 0.35361 0.0
H256 H 0.08569 0.13995 0.35473 0.0
H257 H 0.11135 0.14105 0.38561 0.0
H258 H 0.1544 0.06881 0.41149 0.0
H259 H 0.12877 0.04629 0.45725 0.0
H260 H 0.36732 0.85064 0.75658 0.0
H261 H 0.38184 0.88826 0.79192 0.0
H262 H 0.4553 0.92306 0.73602 0.0
H263 H 0.44005 0.88608 0.70021 0.0
H264 H 0.43454 0.89012 0.82269 0.0
H265 H 0.42058 1.00222 0.75461 0.0
H266 H 0.40432 0.96601 0.74393 0.0
H267 H 0.44257 0.97675 0.73757 0.0
C268 C 0.38615 0.86683 0.75165 0.0
C269 C 0.4027 0.86556 0.72594 0.0
C270 C 0.39454 0.88814 0.77182 0.0
C271 C 0.41954 0.90859 0.76649 0.0
C272 C 0.43569 0.90784 0.74035 0.0
H273 H 0.50665 0.9947 0.91495 0.0
H274 H 0.49881 0.96902 0.86937 0.0
C275 C 0.42721 0.88657 0.72012 0.0
C276 C 0.42983 0.92894 0.78947 0.0
H277 H 0.44363 1.00427 0.80235 0.0
C278 C 0.43658 0.91508 0.81824 0.0
C279 C 0.43236 0.96148 0.78356 0.0
C280 C 0.42435 0.9776 0.75333 0.0
C281 C 0.44549 0.93283 0.84145 0.0
C282 C 0.44837 0.96539 0.83552 0.0
C283 C 0.4418 0.9793 0.80667 0.0
C284 C 0.45569 0.98519 0.85978 0.0
C285 C 0.45068 0.91657 0.87239 0.0
C286 C 0.43485 1.00431 0.86838 0.0
C287 C 0.43944 0.01935 0.89414 0.0
C288 C 0.46493 0.0155 0.91186 0.0
C289 C 0.48676 0.99816 0.90192 0.0
C290 C 0.4822 0.9832 0.87601 0.0
H291 H 0.44131 0.89223 0.87457 0.0
H292 H 0.47463 0.91644 0.87688 0.0
H293 H 0.44093 0.92866 0.88983 0.0
H294 H 0.41437 0.00639 0.85599 0.0
H295 H 0.42251 0.03311 0.90079 0.0
H296 H 0.66779 0.37179 0.76796 0.0
H297 H 0.64718 0.3923 0.71958 0.0
H298 H 0.63054 0.47616 0.75675 0.0
H299 H 0.64998 0.45491 0.80553 0.0
H300 H 0.58368 0.45426 0.72613 0.0
H301 H 0.68306 0.45698 0.65718 0.0
H302 H 0.67363 0.4195 0.6765 0.0
H303 H 0.6843 0.45132 0.69764 0.0
C304 C 0.65971 0.39458 0.76563 0.0
C305 C 0.66041 0.41189 0.79021 0.0
C306 C 0.64828 0.40642 0.738 0.0
C307 C 0.63781 0.43598 0.73442 0.0
C308 C 0.6387 0.45339 0.75898 0.0
H309 H 0.593 0.5338 0.56239 0.0
H310 H 0.61543 0.51683 0.6107 0.0
C311 C 0.64993 0.44142 0.78668 0.0
C312 C 0.62462 0.4481 0.70549 0.0
H313 H 0.63772 0.46294 0.63047 0.0
C314 C 0.59556 0.45638 0.70523 0.0
C315 C 0.64028 0.45122 0.67832 0.0
C316 C 0.67214 0.44459 0.67739 0.0
C317 C 0.5815 0.46713 0.67843 0.0
C318 C 0.59671 0.46886 0.65109 0.0
C319 C 0.62597 0.4612 0.65143 0.0
C320 C 0.58283 0.47899 0.62189 0.0
C321 C 0.55067 0.47698 0.67978 0.0
C322 C 0.55725 0.46309 0.61199 0.0
C323 C 0.5442 0.4729 0.58448 0.0
C324 C 0.55679 0.49851 0.56622 0.0
C325 C 0.58273 0.514 0.57595 0.0
C326 C 0.5956 0.50434 0.60354 0.0
H327 H 0.54554 0.48275 0.70252 0.0
H328 H 0.54729 0.49735 0.66332 0.0
H329 H 0.53488 0.45775 0.6744 0.0
H330 H 0.54745 0.44298 0.62545 0.0
H331 H 0.52437 0.46031 0.57747 0.0
H332 H 0.95146 0.70055 0.34752 0.0
H333 H 0.96297 0.69654 0.29488 0.0
H334 H 1.00864 0.61517 0.32245 0.0
H335 H 0.99741 0.61967 0.37503 0.0
H336 H 0.03304 0.65444 0.26969 0.0
H337 H 0.91279 0.62307 0.26301 0.0
H338 H 0.9239 0.66002 0.27531 0.0
H339 H 0.93198 0.62536 0.29833 0.0
C340 C 0.96524 0.68286 0.34229 0.0
C341 C 0.97396 0.66062 0.36501 0.0
C342 C 0.97153 0.68035 0.31231 0.0
C343 C 0.98633 0.65532 0.3048 0.0
C344 C 0.99731 0.63471 0.3278 0.0
H345 H 0.97451 0.53496 0.1715 0.0
H346 H 0.97837 0.56325 0.21539 0.0
C347 C 0.99106 0.6373 0.35774 0.0
C348 C 0.98611 0.64746 0.27349 0.0
H349 H 0.94053 0.61728 0.22108 0.0
C350 C 1.01281 0.64687 0.25875 0.0
C351 C 0.95964 0.63717 0.25954 0.0
C352 C 0.93041 0.63615 0.27481 0.0
C353 C 0.01374 0.63553 0.23064 0.0
C354 C 0.98736 0.6245 0.2172 0.0
C355 C 0.96065 0.62601 0.23148 0.0
C356 C 0.98708 0.60794 0.19017 0.0
C357 C 0.04289 0.63393 0.21605 0.0
C358 C 0.99079 0.6238 0.16141 0.0
C359 C 0.98823 0.60766 0.13603 0.0
C360 C 0.98183 0.57544 0.1391 0.0
C361 C 0.97878 0.55976 0.16813 0.0
C362 C 0.98126 0.57585 0.19332 0.0
H363 H 0.06155 0.6426 0.22984 0.0
H364 H 0.04598 0.60971 0.21227 0.0
H365 H 0.0432 0.64785 0.1938 0.0
H366 H 0.99503 0.64866 0.15859 0.0
H367 H 0.99051 0.62048 0.11405 0.0
H368 H 0.22498 0.13051 0.16853 0.0
H369 H 0.26941 0.10609 0.15635 0.0
H370 H 0.31948 0.19376 0.15635 0.0
H371 H 0.27587 0.21709 0.17075 0.0
H372 H 0.30099 0.11069 0.111 0.0
H373 H 0.37887 0.1461 0.19792 0.0
H374 H 0.34036 0.15165 0.19978 0.0
H375 H 0.36476 0.17979 0.17823 0.0
C376 C 0.24575 0.14418 0.16716 0.0
C377 C 0.24672 0.17579 0.17097 0.0
C378 C 0.27128 0.13032 0.15966 0.0
C379 C 0.29865 0.14763 0.15557 0.0
C380 C 0.29948 0.1791 0.16014 0.0
H381 H 0.4344 0.09416 0.03772 0.0
H382 H 0.39175 0.11319 0.05946 0.0
C383 C 0.27421 0.1927 0.16816 0.0
C384 C 0.32558 0.13361 0.14465 0.0
H385 H 0.40047 0.13235 0.1532 0.0
C386 C 0.32262 0.11528 0.12061 0.0
C387 C 0.35428 0.13851 0.1571 0.0
C388 C 0.35968 0.15477 0.18489 0.0
C389 C 0.34693 0.10279 0.1084 0.0
C390 C 0.37591 0.10974 0.11932 0.0
C391 C 0.37876 0.12725 0.14397 0.0
C392 C 0.4033 0.09903 0.10578 0.0
C393 C 0.34079 0.08138 0.08446 0.0
C394 C 0.42587 0.08617 0.12404 0.0
C395 C 0.45117 0.07616 0.11147 0.0
C396 C 0.45474 0.07829 0.08011 0.0
C397 C 0.43249 0.09161 0.06191 0.0
C398 C 0.4076 0.10224 0.07447 0.0
H399 H 0.31843 0.06956 0.08672 0.0
H400 H 0.34181 0.095 0.06207 0.0
H401 H 0.35686 0.0635 0.08545 0.0
H402 H 0.42379 0.0834 0.14821 0.0
H403 H 0.46766 0.06608 0.12635 0.0
H404 H 0.31553 0.81519 0.7161 0.0
H405 H 0.27058 0.84263 0.70794 0.0
H406 H 0.32146 0.92232 0.66578 0.0
H407 H 0.36633 0.89492 0.67453 0.0
H408 H 0.27515 0.93727 0.7009 0.0
H409 H 0.23798 0.8519 0.62202 0.0
H410 H 0.24518 0.83617 0.65993 0.0
H411 H 0.2748 0.85447 0.6372 0.0
C412 C 0.31696 0.83883 0.70578 0.0
C413 C 0.344 0.85308 0.69568 0.0
C414 C 0.29143 0.85438 0.70097 0.0
C415 C 0.29267 0.88421 0.68566 0.0
C416 C 0.32005 0.89925 0.67754 0.0
H417 H 0.19588 0.01283 0.58211 0.0
H418 H 0.22989 0.98373 0.61396 0.0
C419 C 0.3456 0.88374 0.68256 0.0
C420 C 0.26551 0.89872 0.67538 0.0
H421 H 0.20838 0.89277 0.62554 0.0
C422 C 0.26031 0.92738 0.68473 0.0
C423 C 0.2462 0.8857 0.65426 0.0
C424 C 0.25131 0.8555 0.64251 0.0
C425 C 0.23678 0.94382 0.67282 0.0
C426 C 0.21828 0.93139 0.6508 0.0
C427 C 0.22259 0.9021 0.64254 0.0
C428 C 0.19674 0.9499 0.63339 0.0
C429 C 0.23229 0.97469 0.68337 0.0
C430 C 0.1668 0.94014 0.63326 0.0
C431 C 0.14703 0.95696 0.61506 0.0
C432 C 0.157 0.9836 0.59644 0.0
C433 C 0.18714 0.99298 0.59659 0.0
C434 C 0.20673 0.97634 0.61485 0.0
H435 H 0.24208 0.9766 0.70604 0.0
H436 H 0.24314 0.99324 0.66761 0.0
H437 H 0.2086 0.97859 0.68397 0.0
H438 H 0.15877 0.91951 0.6472 0.0
H439 H 0.12401 0.94916 0.61571 0.0
H440 H 0.74023 0.35855 0.87911 0.0
H441 H 0.78217 0.37375 0.91081 0.0
H442 H 0.73892 0.45359 0.93 0.0
H443 H 0.69744 0.43854 0.89777 0.0
H444 H 0.79194 0.46892 0.90605 0.0
H445 H 0.80174 0.37589 0.99933 0.0
H446 H 0.79896 0.36186 0.96317 0.0
H447 H 0.76864 0.37987 0.97696 0.0
C448 C 0.73944 0.3787 0.89103 0.0
C449 C 0.71594 0.39751 0.8862 0.0
C450 C 0.76327 0.38736 0.90916 0.0
C451 C 0.76363 0.41474 0.92296 0.0
C452 C 0.7391 0.43236 0.91965 0.0
H453 H 0.90759 0.49473 0.02856 0.0
H454 H 0.86018 0.47075 0.01323 0.0
C455 C 0.71546 0.42381 0.90138 0.0
C456 C 0.79099 0.42741 0.9369 0.0
H457 H 0.8443 0.41113 0.98961 0.0
C458 C 0.80316 0.45639 0.92457 0.0
C459 C 0.80561 0.41114 0.96111 0.0
C460 C 0.79294 0.3806 0.97613 0.0
C461 C 0.82986 0.46919 0.9352 0.0
C462 C 0.84512 0.45235 0.95847 0.0
C463 C 0.83265 0.42379 0.97152 0.0
C464 C 0.87437 0.46405 0.96888 0.0
C465 C 0.84158 0.50066 0.92136 0.0
C466 C 0.89813 0.46749 0.94923 0.0
C467 C 0.92511 0.4812 0.95782 0.0
C468 C 0.92889 0.49165 0.98631 0.0
C469 C 0.90534 0.48707 1.00641 0.0
C470 C 0.87829 0.4733 0.99775 0.0
H471 H 0.82413 0.51359 0.90922 0.0
H472 H 0.85154 0.51459 0.93874 0.0
H473 H 0.85883 0.49793 0.90503 0.0
H474 H 0.89559 0.46013 0.92697 0.0
H475 H 0.94282 0.48415 0.94186 0.0
H476 H 0.88367 0.68477 0.43391 0.0
H477 H 0.83194 0.67202 0.44597 0.0
H478 H 0.84613 0.57503 0.45302 0.0
H479 H 0.89837 0.58801 0.44197 0.0
H480 H 0.79422 0.63889 0.41061 0.0
H481 H 0.79708 0.58112 0.52737 0.0
H482 H 0.828 0.60462 0.51079 0.0
H483 H 0.81995 0.566 0.50126 0.0
C484 C 0.87588 0.6608 0.43903 0.0
C485 C 0.89487 0.63732 0.43751 0.0
C486 C 0.84635 0.65351 0.44564 0.0
C487 C 0.83526 0.62259 0.4507 0.0
C488 C 0.85435 0.59903 0.44979 0.0
H489 H 0.65341 0.54572 0.46509 0.0
H490 H 0.70696 0.55167 0.46213 0.0
C491 C 0.88402 0.60638 0.44331 0.0
C492 C 0.80329 0.61535 0.45421 0.0
H493 H 0.75075 0.58111 0.50255 0.0
C494 C 0.78473 0.62629 0.43074 0.0
C495 C 0.79103 0.59866 0.48037 0.0
C496 C 0.80996 0.58708 0.50653 0.0
C497 C 0.75419 0.62124 0.4328 0.0
C498 C 0.7419 0.60514 0.45917 0.0
C499 C 0.76038 0.59353 0.48241 0.0
C500 C 0.7098 0.60112 0.46316 0.0
C501 C 0.73527 0.63311 0.4067 0.0
C502 C 0.69387 0.6269 0.46537 0.0
C503 C 0.66336 0.6236 0.46723 0.0
C504 C 0.64816 0.59442 0.46693 0.0
C505 C 0.66435 0.56848 0.4656 0.0
C506 C 0.69495 0.57182 0.46381 0.0
H507 H 0.74804 0.63862 0.38574 0.0
H508 H 0.71684 0.61593 0.4027 0.0
H509 H 0.72582 0.65451 0.41192 0.0
H510 H 0.70507 0.64965 0.46534 0.0
H511 H 0.65172 0.64396 0.46889 0.0
H512 H 0.17304 0.27773 0.18406 0.0
H513 H 0.14559 0.32066 0.16111 0.0
H514 H 0.1389 0.27878 0.07833 0.0
H515 H 0.16474 0.23503 0.10202 0.0
H516 H 0.15453 0.36423 0.11791 0.0
H517 H 0.05583 0.29509 0.08357 0.0
H518 H 0.08407 0.27824 0.1072 0.0
H519 H 0.08826 0.2842 0.06704 0.0
C520 C 0.16551 0.27764 0.16102 0.0
C521 C 0.17136 0.25296 0.14488 0.0
C522 C 0.14983 0.30233 0.14776 0.0
C523 C 0.13935 0.30322 0.11787 0.0
C524 C 0.14572 0.27872 0.10158 0.0
H525 H 0.0555 0.44603 0.99692 0.0
H526 H 0.08192 0.40172 0.01859 0.0
C527 C 0.16108 0.25382 0.11499 0.0
C528 C 0.12241 0.32991 0.10386 0.0
H529 H 0.05986 0.34812 0.06384 0.0
C530 C 0.13376 0.36048 0.10629 0.0
C531 C 0.09502 0.32571 0.08855 0.0
C532 C 0.07992 0.29406 0.08669 0.0
C533 C 0.11905 0.38637 0.09375 0.0
C534 C 0.09202 0.38208 0.07812 0.0
C535 C 0.08064 0.35166 0.07554 0.0
C536 C 0.07516 0.40888 0.06481 0.0
C537 C 0.13276 0.41833 0.09693 0.0
C538 C 0.06197 0.42775 0.08332 0.0
C539 C 0.04647 0.45294 0.07096 0.0
C540 C 0.04383 0.46033 0.03961 0.0
C541 C 0.05693 0.44126 0.0211 0.0
C542 C 0.07212 0.4158 0.03351 0.0
H543 H 0.15595 0.41802 0.10478 0.0
H544 H 0.13186 0.43314 0.07519 0.0
H545 H 0.12022 0.42901 0.11346 0.0
H546 H 0.06362 0.42297 0.10749 0.0
H547 H 0.03685 0.46694 0.08608 0.0
H548 H 0.68374 0.30793 0.85451 0.0
H549 H 0.66415 0.2634 0.88818 0.0
H550 H 0.6398 0.32467 0.95104 0.0
H551 H 0.65908 0.36928 0.91687 0.0
H552 H 0.67251 0.24039 0.94916 0.0
H553 H 0.56123 0.28124 0.92517 0.0
H554 H 0.59297 0.29711 0.90394 0.0
H555 H 0.58744 0.30809 0.94071 0.0
C556 C 0.67488 0.31164 0.87591 0.0
C557 C 0.67259 0.34171 0.88323 0.0
C558 C 0.6637 0.28635 0.89506 0.0
C559 C 0.65001 0.29084 0.92177 0.0
C560 C 0.64988 0.32081 0.93027 0.0
H561 H 0.57927 0.13624 0.04621 0.0
H562 H 0.60511 0.18431 0.0248 0.0
C563 C 0.66111 0.34616 0.91104 0.0
C564 C 0.63357 0.2644 0.93893 0.0
H565 H 0.56405 0.23466 0.95647 0.0
C566 C 0.64883 0.2392 0.95108 0.0
C567 C 0.60261 0.26277 0.94077 0.0
C568 C 0.58496 0.28858 0.92678 0.0
C569 C 0.63393 0.21226 0.9649 0.0
C570 C 0.603 0.21075 0.96696 0.0
C571 C 0.58777 0.23603 0.95501 0.0
C572 C 0.58597 0.18264 0.98044 0.0
C573 C 0.65132 0.18525 0.97622 0.0
C574 C 0.56573 0.16643 0.96286 0.0
C575 C 0.55068 0.13901 0.97508 0.0
C576 C 0.55558 0.12745 1.00513 0.0
C577 C 0.57512 0.14438 0.02292 0.0
C578 C 0.59008 0.17178 1.0107 0.0
H579 H 0.67371 0.18748 0.96671 0.0
H580 H 0.65354 0.18405 1.001 0.0
H581 H 0.63997 0.16321 0.97058 0.0
H582 H 0.56214 0.17459 0.93947 0.0
H583 H 0.53578 0.12654 0.96081 0.0
H584 H 0.01932 0.67703 0.44074 0.0
H585 H 0.04801 0.72456 0.45188 0.0
H586 H 0.9839 0.77887 0.40334 0.0
H587 H 0.95575 0.73143 0.39213 0.0
H588 H 0.04215 0.80545 0.39655 0.0
H589 H 0.01328 0.77043 0.51625 0.0
H590 H 0.03368 0.7443 0.49822 0.0
H591 H 0.99676 0.75074 0.48611 0.0
C592 C 1.01222 0.69924 0.43155 0.0
C593 C 0.98578 0.70096 0.41528 0.0
C594 C 0.02831 0.72627 0.43815 0.0
C595 C 0.0178 0.75521 0.42884 0.0
C596 C 0.99245 0.7568 0.41068 0.0
H597 H 1.00943 0.93778 0.46059 0.0
H598 H 1.00993 0.8873 0.44264 0.0
C599 C 0.97649 0.72984 0.40408 0.0
C600 C 0.03076 0.78366 0.44061 0.0
H601 H 0.03476 0.82039 0.50416 0.0
C602 C 0.04108 0.80856 0.42016 0.0
C603 C 0.02931 0.78767 0.47146 0.0
C604 C 0.0175 0.76202 0.49436 0.0
C605 C 0.04874 0.83774 0.42953 0.0
C606 C 0.04565 0.84214 0.46004 0.0
C607 C 0.03712 0.81685 0.48079 0.0
C608 C 0.04712 0.87338 0.47008 0.0
C609 C 0.05912 0.8639 0.40654 0.0
C610 C 0.06754 0.88208 0.492 0.0
C611 C 0.06733 0.91114 0.50243 0.0
C612 C 0.04634 0.93162 0.49144 0.0
C613 C 0.02589 0.92261 0.4696 0.0
C614 C 0.0263 0.89384 0.45906 0.0
H615 H 0.06894 0.85521 0.38695 0.0
H616 H 0.04013 0.87694 0.3983 0.0
H617 H 0.07555 0.88006 0.41642 0.0
H618 H 0.08354 0.86639 0.50104 0.0
H619 H 0.08332 0.91741 0.5193 0.0
H620 H 0.44479 0.80675 0.64416 0.0
H621 H 0.46166 0.7664 0.61608 0.0
H622 H 0.39319 0.70214 0.65553 0.0
H623 H 0.37698 0.74234 0.68425 0.0
H624 H 0.44737 0.67707 0.65424 0.0
H625 H 0.41789 0.73638 0.54297 0.0
H626 H 0.44206 0.75937 0.56514 0.0
H627 H 0.4054 0.7478 0.57772 0.0
C628 C 0.43374 0.78385 0.64705 0.0
C629 C 0.40963 0.77743 0.66613 0.0
C630 C 0.44309 0.76099 0.63083 0.0
C631 C 0.42826 0.73152 0.63332 0.0
C632 C 0.40474 0.72483 0.65315 0.0
H633 H 0.44656 0.56423 0.54854 0.0
H634 H 0.42931 0.60348 0.57754 0.0
C635 C 0.39548 0.74767 0.66942 0.0
C636 C 0.4371 0.70768 0.6151 0.0
H637 H 0.44445 0.69179 0.54292 0.0
C638 C 0.44661 0.68017 0.62991 0.0
C639 C 0.43592 0.71185 0.58337 0.0
C640 C 0.42451 0.74031 0.5663 0.0
C641 C 0.45564 0.65692 0.61377 0.0
C642 C 0.45473 0.66125 0.58208 0.0
C643 C 0.44509 0.68866 0.56726 0.0
C644 C 0.4644 0.63785 0.56386 0.0
C645 C 0.4667 0.62821 0.63068 0.0
C646 C 0.48934 0.64461 0.54603 0.0
C647 C 0.4992 0.62236 0.52943 0.0
C648 C 0.48414 0.59301 0.53023 0.0
C649 C 0.45868 0.58659 0.54753 0.0
C650 C 0.44889 0.60888 0.56423 0.0
H651 H 0.47157 0.63116 0.65462 0.0
H652 H 0.44974 0.60876 0.62983 0.0
H653 H 0.48686 0.62184 0.62023 0.0
H654 H 0.50145 0.66696 0.54538 0.0
H655 H 0.51883 0.62808 0.51624 0.0
H656 H 0.88735 0.94127 0.82702 0.0
H657 H 0.91615 0.95607 0.78151 0.0
H658 H 0.88657 0.87004 0.74831 0.0
H659 H 0.85787 0.85513 0.7944 0.0
H660 H 0.94435 0.88608 0.73357 0.0
H661 H 0.88106 0.98778 0.70198 0.0
H662 H 0.89808 0.98839 0.73833 0.0
H663 H 0.87004 0.95851 0.73198 0.0
C664 C 0.88735 0.92529 0.81022 0.0
C665 C 0.87025 0.89699 0.81449 0.0
C666 C 0.90361 0.93394 0.78389 0.0
C667 C 0.90317 0.91474 0.76059 0.0
C668 C 0.8873 0.88562 0.76552 0.0
H669 H 0.95386 0.98514 0.57453 0.0
H670 H 0.92775 0.96485 0.62057 0.0
C671 C 0.871 0.87691 0.79205 0.0
C672 C 0.91864 0.92548 0.73115 0.0
H673 H 0.92409 0.98474 0.67389 0.0
C674 C 0.93979 0.90764 0.72056 0.0
C675 C 0.91267 0.95338 0.71337 0.0
C676 C 0.88903 0.97298 0.72177 0.0
C677 C 0.95538 0.91712 0.69362 0.0
C678 C 0.95029 0.94568 0.67653 0.0
C679 C 0.9286 0.9631 0.68677 0.0
C680 C 0.96673 0.95774 0.64791 0.0
C681 C 0.97674 0.89591 0.68344 0.0
C682 C 0.99766 0.96118 0.64725 0.0
C683 C 1.01276 0.9728 0.62071 0.0
C684 C 0.99752 0.98169 0.5938 0.0
C685 C 0.96658 0.97854 0.59455 0.0
C686 C 0.95151 0.9669 0.62109 0.0
H687 H 0.97163 0.87166 0.69323 0.0
H688 H 0.97663 0.89661 0.65862 0.0
H689 H 0.99918 0.90327 0.69102 0.0
H690 H 1.01031 0.95529 0.66747 0.0
H691 H 0.0365 0.97499 0.62139 0.0
H692 H 0.67544 0.13382 0.37417 0.0
H693 H 0.66164 0.10273 0.33306 0.0
H694 H 0.57787 0.07581 0.37414 0.0
H695 H 0.592 0.10655 0.41562 0.0
H696 H 0.63197 0.03441 0.33048 0.0
H697 H 0.56697 0.13427 0.29052 0.0
H698 H 0.59731 0.13797 0.31662 0.0
H699 H 0.56351 0.1175 0.32893 0.0
C700 C 0.65467 0.12014 0.37503 0.0
C701 C 0.63473 0.12235 0.39789 0.0
C702 C 0.64673 0.10256 0.35155 0.0
C703 C 0.61872 0.08717 0.35062 0.0
C704 C 0.5996 0.0875 0.3746 0.0
H705 H 0.53682 0.04851 0.17974 0.0
H706 H 0.54256 0.05011 0.23388 0.0
C707 C 0.60762 0.10496 0.39815 0.0
C708 C 0.60809 0.07512 0.32256 0.0
H709 H 0.57004 0.09616 0.25833 0.0
C710 C 0.6181 0.04758 0.3148 0.0
C711 C 0.58983 0.09234 0.30238 0.0
C712 C 0.57875 0.12225 0.30976 0.0
C713 C 0.61086 0.03718 0.28682 0.0
C714 C 0.59394 0.05534 0.26589 0.0
C715 C 0.58296 0.0822 0.27433 0.0
C716 C 0.58981 0.04898 0.23418 0.0
C717 C 0.62158 0.00696 0.27997 0.0
C718 C 0.61436 0.0473 0.21637 0.0
C719 C 0.61111 0.04601 0.18553 0.0
C720 C 0.58327 0.047 0.17161 0.0
C721 C 0.55855 0.04752 0.18964 0.0
C722 C 0.56182 0.04856 0.22062 0.0
H723 H 0.62375 0.99095 0.3008 0.0
H724 H 0.60658 0.99552 0.2641 0.0
H725 H 0.64362 0.0113 0.26979 0.0
H726 H 0.63625 0.04837 0.22606 0.0
H727 H 0.63059 0.04506 0.17251 0.0
H728 H 0.41838 0.64623 0.1704 0.0
H729 H 0.44123 0.628 0.21866 0.0
H730 H 0.37023 0.66038 0.26558 0.0
H731 H 0.34779 0.67891 0.21721 0.0
H732 H 0.42657 0.67183 0.29192 0.0
H733 H 0.4045 0.54989 0.26888 0.0
H734 H 0.42497 0.57399 0.24034 0.0
H735 H 0.38776 0.58143 0.2473 0.0
C736 C 0.40812 0.6498 0.19115 0.0
C737 C 0.38131 0.66333 0.19054 0.0
C738 C 0.42093 0.63927 0.21855 0.0
C739 C 0.407 0.64223 0.24558 0.0
C740 C 0.38113 0.65763 0.24494 0.0
H741 H 0.43814 0.53584 0.41795 0.0
H742 H 0.4158 0.55952 0.3717 0.0
C743 C 0.36837 0.66815 0.21752 0.0
C744 C 0.41862 0.62801 0.27441 0.0
H745 H 0.43298 0.55861 0.31236 0.0
C746 C 0.42795 0.64709 0.29646 0.0
C747 C 0.41977 0.59566 0.28042 0.0
C748 C 0.40848 0.57395 0.25814 0.0
C749 C 0.43918 0.63469 0.32418 0.0
C750 C 0.44145 0.60246 0.3297 0.0
C751 C 0.43142 0.58333 0.30793 0.0
C752 C 0.45482 0.58819 0.35765 0.0
C753 C 0.44824 0.65616 0.34743 0.0
C754 C 0.48424 0.59606 0.36467 0.0
C755 C 0.49702 0.58263 0.39093 0.0
C756 C 0.48067 0.56085 0.41061 0.0
C757 C 0.4513 0.55255 0.40326 0.0
C758 C 0.43851 0.56607 0.37692 0.0
H759 H 0.43771 0.67833 0.34315 0.0
H760 H 0.44251 0.64538 0.37034 0.0
H761 H 0.47236 0.66142 0.34668 0.0
H762 H 0.49739 0.61254 0.34974 0.0
H763 H 0.51974 0.58944 0.39581 0.0
H764 H 0.13653 0.36288 0.70458 0.0
H765 H 0.134 0.3802 0.75475 0.0
H766 H 0.10521 0.46735 0.71484 0.0
H767 H 0.10754 0.44983 0.66476 0.0
H768 H 0.15303 0.46989 0.76037 0.0
H769 H 0.05545 0.39157 0.7973 0.0
H770 H 0.08592 0.37486 0.78219 0.0
H771 H 0.06466 0.40053 0.75821 0.0
C772 C 0.12935 0.38555 0.70674 0.0
C773 C 0.12188 0.40503 0.68115 0.0
C774 C 0.12806 0.39545 0.73523 0.0
C775 C 0.11928 0.42494 0.73838 0.0
C776 C 0.11208 0.44451 0.71276 0.0
H777 H 0.0681 0.54763 0.8509 0.0
H778 H 0.09304 0.52145 0.81471 0.0
C779 C 0.11331 0.43457 0.68433 0.0
C780 C 0.11695 0.43549 0.76832 0.0
H781 H 0.07285 0.42783 0.82939 0.0
C782 C 0.13579 0.46044 0.77574 0.0
C783 C 0.09474 0.42276 0.78841 0.0
C784 C 0.07386 0.39604 0.78126 0.0
C785 C 0.13208 0.474 0.80219 0.0
C786 C 0.10855 0.46267 0.82125 0.0
C787 C 0.09091 0.43646 0.81475 0.0
C788 C 0.09885 0.48025 0.84513 0.0
C789 C 0.15292 0.50082 0.80905 0.0
C790 C 0.09401 0.46594 0.8744 0.0
C791 C 0.07947 0.48089 0.89512 0.0
C792 C 0.06922 0.51011 0.8866 0.0
C793 C 0.0756 0.52501 0.85789 0.0
C794 C 0.09017 0.5102 0.83732 0.0
H795 H 0.17496 0.49903 0.79972 0.0
H796 H 0.14447 0.5226 0.7984 0.0
H797 H 0.1552 0.50218 0.83358 0.0
H798 H 0.10029 0.44269 0.88075 0.0
H799 H 0.07459 0.46884 0.91705 0.0
H800 H 0.76079 0.86819 0.88937 0.0
H801 H 0.72028 0.88849 0.91377 0.0
H802 H 0.76422 0.9797 0.90146 0.0
H803 H 0.80603 0.95871 0.87945 0.0
H804 H 0.74082 0.97539 0.95195 0.0
H805 H 0.65258 0.92946 0.8801 0.0
H806 H 0.6717 0.89852 0.8989 0.0
H807 H 0.69068 0.92674 0.87223 0.0
C808 C 0.76204 0.89253 0.89209 0.0
C809 C 0.787 0.91165 0.88225 0.0
C810 C 0.73836 0.9044 0.90564 0.0
C811 C 0.73815 0.93611 0.90904 0.0
C812 C 0.76317 0.95524 0.89917 0.0
H813 H 0.57379 0.01625 0.95276 0.0
H814 H 0.61528 0.99754 0.92826 0.0
C815 C 0.78715 0.94324 0.88615 0.0
C816 C 0.71256 0.94908 0.9236 0.0
H817 H 0.63729 0.94746 0.92527 0.0
C818 C 0.71823 0.96933 0.94581 0.0
C819 C 0.68264 0.94216 0.91568 0.0
C820 C 0.67405 0.92333 0.8902 0.0
C821 C 0.69549 0.98214 0.96031 0.0
C822 C 0.66554 0.9737 0.95369 0.0
C823 C 0.65988 0.95387 0.93112 0.0
C824 C 0.63988 0.98556 0.96917 0.0
C825 C 0.70416 0.00557 0.98182 0.0
C826 C 0.63883 0.9851 1.00069 0.0
C827 C 0.61521 0.99656 0.01477 0.0
C828 C 0.59119 0.00807 0.99801 0.0
C829 C 0.59174 0.00768 0.9666 0.0
C830 C 0.61565 0.99681 0.95248 0.0
H831 H 0.7261 0.01737 0.97646 0.0
H832 H 0.68808 0.02339 0.98135 0.0
H833 H 0.70549 0.99364 1.00491 0.0
H834 H 0.6562 0.97555 0.01468 0.0
H835 H 0.61561 0.99599 0.03898 0.0
H836 H 0.66341 0.09121 0.45766 0.0
H837 H 0.7068 0.06131 0.46876 0.0
H838 H 0.76226 0.13851 0.42859 0.0
H839 H 0.71915 0.16802 0.41767 0.0
H840 H 0.75252 0.04569 0.43073 0.0
H841 H 0.79488 0.12162 0.51535 0.0
H842 H 0.7574 0.12076 0.50172 0.0
H843 H 0.78605 0.14272 0.48008 0.0
C844 C 0.68494 0.10139 0.451 0.0
C845 C 0.68835 0.13188 0.43741 0.0
C846 C 0.70957 0.08449 0.45737 0.0
C847 C 0.73772 0.09809 0.45016 0.0
C848 C 0.74079 0.12795 0.43501 0.0
H849 H 0.9052 0.04218 0.42026 0.0
H850 H 0.85417 0.05449 0.41953 0.0
C851 C 0.7163 0.14472 0.42874 0.0
C852 C 0.76425 0.08175 0.45878 0.0
H853 H 0.82976 0.09092 0.4957 0.0
C854 C 0.76925 0.05519 0.44534 0.0
C855 C 0.7857 0.09381 0.47839 0.0
C856 C 0.78066 0.12112 0.49498 0.0
C857 C 0.7961 0.04161 0.44939 0.0
C858 C 0.81855 0.05536 0.46688 0.0
C859 C 0.8127 0.08062 0.48198 0.0
C860 C 0.84897 0.04582 0.46765 0.0
C861 C 0.80035 0.01304 0.43445 0.0
C862 C 0.86336 0.03775 0.49504 0.0
C863 C 0.89278 0.0309 0.49555 0.0
C864 C 0.90828 0.03212 0.46864 0.0
C865 C 0.89376 0.04035 0.44131 0.0
C866 C 0.86449 0.04727 0.44085 0.0
H867 H 0.77909 0.99964 0.43124 0.0
H868 H 0.80993 0.01991 0.41196 0.0
H869 H 0.81538 0.99787 0.44776 0.0
H870 H 0.85184 0.03685 0.51602 0.0
H871 H 0.90328 0.02441 0.51692 0.0
H872 H 0.31071 0.61191 0.11058 0.0
H873 H 0.26261 0.60103 0.08747 0.0
H874 H 0.24815 0.69808 0.07968 0.0
H875 H 0.29513 0.70833 0.10529 0.0
H876 H 0.20187 0.66777 0.09922 0.0
H877 H 0.2361 0.61143 1.00297 0.0
H878 H 0.2489 0.59136 0.03714 0.0
H879 H 0.26226 0.63088 0.02645 0.0
C880 C 0.29711 0.63076 0.10395 0.0
C881 C 0.30649 0.66091 0.10944 0.0
C882 C 0.26991 0.62469 0.09028 0.0
C883 C 0.25204 0.64885 0.08105 0.0
C884 C 0.26163 0.67909 0.0863 0.0
H885 H 0.09263 0.59984 0.97968 0.0
H886 H 0.14029 0.62451 0.993 0.0
C887 C 0.2885 0.68501 0.10065 0.0
C888 C 0.22248 0.64226 0.06799 0.0
H889 H 0.18537 0.60053 0.01745 0.0
C890 C 0.19834 0.6535 0.08097 0.0
C891 C 0.21777 0.62431 0.04368 0.0
C892 C 0.24272 0.61416 0.02657 0.0
C893 C 0.1696 0.64608 0.0713 0.0
C894 C 0.16479 0.62569 0.04898 0.0
C895 C 0.18897 0.61571 0.03497 0.0
C896 C 0.13501 0.61311 0.04093 0.0
C897 C 0.14482 0.66034 0.0851 0.0
C898 C 0.11621 0.59854 0.06339 0.0
C899 C 0.0888 0.58513 0.05587 0.0
C900 C 0.08006 0.58516 0.02567 0.0
C901 C 0.09889 0.59952 1.00314 0.0
C902 C 0.12608 0.61358 1.01073 0.0
H903 H 0.15222 0.6833 0.09213 0.0
H904 H 0.12597 0.66316 0.06928 0.0
H905 H 0.13729 0.64535 0.1055 0.0
H906 H 0.12298 0.59683 0.08676 0.0
H907 H 0.07487 0.57381 0.07367 0.0
H908 H 0.18252 0.35397 0.59849 0.0
H909 H 0.22562 0.36819 0.56701 0.0
H910 H 0.18567 0.44975 0.52776 0.0
H911 H 0.14288 0.43572 0.56009 0.0
H912 H 0.24015 0.38351 0.50722 0.0
H913 H 0.25657 0.48543 0.57179 0.0
H914 H 0.22912 0.45438 0.58167 0.0
H915 H 0.22306 0.48266 0.55034 0.0
C916 C 0.18258 0.37422 0.58223 0.0
C917 C 0.1597 0.39385 0.58152 0.0
C918 C 0.20719 0.38247 0.56441 0.0
C919 C 0.20915 0.41045 0.54561 0.0
C920 C 0.18488 0.42843 0.54261 0.0
H921 H 0.38057 0.49709 0.48139 0.0
H922 H 0.32718 0.48715 0.48401 0.0
C923 C 0.16038 0.42031 0.56071 0.0
C924 C 0.23788 0.4223 0.53257 0.0
H925 H 0.29427 0.47701 0.54003 0.0
C926 C 0.25179 0.40424 0.51395 0.0
C927 C 0.25312 0.44935 0.54151 0.0
C928 C 0.2399 0.46901 0.5626 0.0
C929 C 0.28092 0.41183 0.50503 0.0
C930 C 0.29649 0.438 0.51513 0.0
C931 C 0.28212 0.45705 0.53225 0.0
C932 C 0.32862 0.4436 0.5118 0.0
C933 C 0.29518 0.39125 0.48568 0.0
C934 C 0.34697 0.42274 0.52707 0.0
C935 C 0.37734 0.42856 0.52614 0.0
C936 C 0.3902 0.45538 0.50974 0.0
C937 C 0.37163 0.47633 0.49442 0.0
C938 C 0.34108 0.47058 0.49564 0.0
H939 H 0.2786 0.37777 0.47298 0.0
H940 H 0.31051 0.40495 0.46959 0.0
H941 H 0.30792 0.3747 0.50021 0.0
H942 H 0.33774 0.4022 0.54034 0.0
H943 H 0.39059 0.41216 0.53885 0.0
H944 H 0.82724 0.80823 0.86016 0.0
H945 H 0.8523 0.76254 0.87971 0.0
H946 H 0.93172 0.82006 0.89125 0.0
H947 H 0.90592 0.86607 0.87257 0.0
H948 H 0.89576 0.73246 0.8663 0.0
H949 H 0.92546 0.77759 0.97435 0.0
H950 H 0.90183 0.79705 0.947 0.0
H951 H 0.94104 0.80142 0.94265 0.0
C952 C 0.85025 0.81101 0.86625 0.0
C953 C 0.86458 0.8408 0.86462 0.0
C954 C 0.86462 0.78481 0.87769 0.0
C955 C 0.89392 0.78743 0.888 0.0
C956 C 0.90891 0.8171 0.88451 0.0
H957 H 0.99176 0.62097 0.93041 0.0
H958 H 0.97181 0.66824 0.90737 0.0
C959 C 0.89436 0.84346 0.87317 0.0
C960 C 0.90803 0.75915 0.90275 0.0
H961 H 0.94371 0.72983 0.96663 0.0
C962 C 0.90627 0.73207 0.88823 0.0
C963 C 0.92132 0.75782 0.93179 0.0
C964 C 0.92231 0.78488 0.95004 0.0
C965 C 0.91735 0.70431 0.9015 0.0
C966 C 0.93164 0.7033 0.93003 0.0
C967 C 0.93318 0.73028 0.94471 0.0
C968 C 0.94485 0.67458 0.94497 0.0
C969 C 0.91259 0.67601 0.88503 0.0
C970 C 0.93776 0.66242 0.97465 0.0
C971 C 0.94971 0.63532 0.98828 0.0
C972 C 0.96915 0.61948 0.97265 0.0
C973 C 0.97663 0.63206 0.94321 0.0
C974 C 0.96495 0.6592 0.92978 0.0
H975 H 0.89355 0.67768 0.86926 0.0
H976 H 0.93228 0.67383 0.87162 0.0
H977 H 0.90879 0.65474 0.90083 0.0
H978 H 0.92257 0.67367 0.98723 0.0
H979 H 0.94343 0.62658 1.01096 0.0
H980 H 0.37503 0.7333 0.17875 0.0
H981 H 0.40389 0.78327 0.17414 0.0
H982 H 0.45185 0.75505 0.10128 0.0
H983 H 0.42375 0.70464 0.10692 0.0
H984 H 0.48587 0.79433 0.13627 0.0
H985 H 0.379 0.8404 0.10089 0.0
H986 H 0.37973 0.82064 0.13815 0.0
H987 H 0.38391 0.79963 0.10641 0.0
C988 C 0.39258 0.73748 0.16265 0.0
C989 C 0.39705 0.7157 0.14281 0.0
C990 C 0.4088 0.76601 0.15979 0.0
C991 C 0.42935 0.77311 0.13678 0.0
C992 C 0.43587 0.75011 0.11898 0.0
H993 H 0.47165 0.94708 0.03317 0.0
H994 H 0.45498 0.89447 0.05298 0.0
C995 C 0.41984 0.72148 0.12209 0.0
C996 C 0.44109 0.80534 0.12853 0.0
H997 H 0.42 0.87623 0.10066 0.0
C998 C 0.47154 0.81235 0.12869 0.0
C999 C 0.42226 0.82857 0.11803 0.0
C1000 C 0.38943 0.822 0.11554 0.0
C1001 C 0.48371 0.84206 0.11852 0.0
C1002 C 0.46482 0.86536 0.10845 0.0
C1003 C 0.43439 0.85835 0.10855 0.0
C1004 C 0.47598 0.89691 0.09647 0.0
C1005 C 0.51664 0.84794 0.11767 0.0
C1006 C 0.49312 0.9158 0.11444 0.0
C1007 C 0.50282 0.94583 0.10312 0.0
C1008 C 0.49523 0.95762 0.07373 0.0
C1009 C 0.47783 0.93872 0.0559 0.0
C1010 C 0.46833 0.90865 0.06717 0.0
H1011 H 0.52776 0.8261 0.11889 0.0
H1012 H 0.52358 0.86268 0.09689 0.0
H1013 H 0.5242 0.86013 0.13718 0.0
H1014 H 0.49868 0.90747 0.13735 0.0
H1015 H 0.51604 0.9599 0.1175 0.0
H1016 H 0.13664 0.30798 0.63066 0.0
H1017 H 0.12022 0.26183 0.60653 0.0
H1018 H 0.07592 0.31846 0.53753 0.0
H1019 H 0.09278 0.36482 0.56182 0.0
H1020 H 0.0408 0.26529 0.57011 0.0
H1021 H 0.14476 0.23331 0.52482 0.0
H1022 H 0.1477 0.2432 0.56267 0.0
H1023 H 0.13922 0.27211 0.53271 0.0
C1024 C 0.12389 0.31044 0.61002 0.0
C1025 C 0.1159 0.33956 0.59788 0.0
C1026 C 0.11457 0.28426 0.59625 0.0
C1027 C 0.097 0.28684 0.57019 0.0
C1028 C 0.0896 0.3161 0.55754 0.0
H1029 H 1.0105 0.12004 0.50043 0.0
H1030 H 0.02157 0.17497 0.50645 0.0
C1031 C 0.09928 0.34242 0.57121 0.0
C1032 C 0.08488 0.25848 0.55782 0.0
H1033 H 0.10615 0.19313 0.53233 0.0
C1034 C 0.05485 0.2497 0.56119 0.0
C1035 C 0.10336 0.23837 0.54621 0.0
C1036 C 0.13553 0.24727 0.54109 0.0
C1037 C 0.0432 0.22027 0.55521 0.0
C1038 C 0.0621 0.19947 0.54527 0.0
C1039 C 0.09175 0.20907 0.54017 0.0
C1040 C 0.0526 0.16664 0.54305 0.0
C1041 C 1.01128 0.21092 0.56131 0.0
C1042 C 0.06602 0.1439 0.56187 0.0
C1043 C 0.0599 0.1128 0.55841 0.0
C1044 C 0.04016 0.1037 0.53602 0.0
C1045 C 0.0256 0.12638 0.51803 0.0
C1046 C 0.03193 0.15773 0.52142 0.0
H1047 H 1.00064 0.22818 0.57297 0.0
H1048 H 0.99945 0.20846 0.53974 0.0
H1049 H 1.0089 0.18824 0.57521 0.0
H1050 H 0.08191 0.15029 0.5788 0.0
H1051 H 0.07139 0.0959 0.57272 0.0
H1052 H 0.67199 0.24314 0.41783 0.0
H1053 H 0.66008 0.29662 0.42037 0.0
H1054 H 0.57582 0.26352 0.45762 0.0
H1055 H 0.58815 0.20999 0.45561 0.0
H1056 H 0.61258 0.32647 0.39253 0.0
H1057 H 0.60995 0.32311 0.51653 0.0
H1058 H 0.62655 0.29431 0.49795 0.0
H1059 H 0.58741 0.29258 0.50196 0.0
C1060 C 0.65117 0.24747 0.42697 0.0
C1061 C 0.63106 0.22281 0.43695 0.0
C1062 C 0.64431 0.27785 0.42821 0.0
C1063 C 0.61727 0.28392 0.43957 0.0
C1064 C 0.59703 0.25924 0.44932 0.0
H1065 H 0.51293 0.43323 0.44927 0.0
H1066 H 0.53481 0.38604 0.44001 0.0
C1067 C 0.60393 0.22884 0.44806 0.0
C1068 C 0.60989 0.31609 0.44055 0.0
H1069 H 0.58967 0.36615 0.48819 0.0
C1070 C 0.60792 0.33532 0.41345 0.0
C1071 C 0.60412 0.32756 0.46793 0.0
C1072 C 0.60737 0.30844 0.49779 0.0
C1073 C 0.59903 0.3654 0.41298 0.0
C1074 C 0.59211 0.37627 0.44021 0.0
C1075 C 0.59502 0.3575 0.46736 0.0
C1076 C 0.57945 0.4061 0.441 0.0
C1077 C 0.59611 0.38515 0.38348 0.0
C1078 C 0.59748 0.43307 0.44381 0.0
C1079 C 0.58505 0.46024 0.44902 0.0
C1080 C 0.55449 0.46049 0.45179 0.0
C1081 C 0.53655 0.43374 0.44739 0.0
C1082 C 0.54896 0.40677 0.44207 0.0
H1083 H 0.6035 0.37377 0.3643 0.0
H1084 H 0.57284 0.39028 0.37961 0.0
H1085 H 0.60921 0.40751 0.38427 0.0
H1086 H 0.62112 0.43273 0.44317 0.0
H1087 H 0.5994 0.48047 0.45244 0.0
loop_
_geom_bond_atom_site_label_1
_geom_bond_atom_site_label_2
_geom_bond_distance
_geom_bond_site_symmetry_2
_ccdc_geom_bond_type
C0 N1 1.317 . S
C0 N2 1.348 . S
C0 C3 1.485 . S
N1 C0 1.317 . S
N1 N5 1.370 . S
N2 C0 1.348 . S
N2 C4 1.346 . S
C3 C0 1.485 . S
C3 H7 0.960 . S
C3 H8 0.961 . S
C3 H9 0.960 . S
C4 N2 1.346 . S
C4 N5 1.307 . S
C4 C6 1.486 . S
N5 N1 1.370 . S
N5 C4 1.307 . S
C6 C4 1.486 . S
C6 H10 0.960 . S
C6 H11 0.960 . S
C6 H12 0.959 . S
H7 C3 0.960 . S
H8 C3 0.961 . S
H9 C3 0.960 . S
H10 C6 0.960 . S
H11 C6 0.960 . S
H12 C6 0.959 . S
C13 N14 1.317 . S
C13 N15 1.348 . S
C13 C16 1.485 . S
N14 C13 1.317 . S
N14 N18 1.370 . S
N15 C13 1.348 . S
N15 C17 1.346 . S
C16 C13 1.485 . S
C16 H20 0.960 . S
C16 H21 0.961 . S
C16 H22 0.960 . S
C17 N15 1.346 . S
C17 N18 1.307 . S
C17 C19 1.486 . S
N18 N14 1.370 . S
N18 C17 1.307 . S
C19 C17 1.486 . S
C19 H23 0.960 . S
C19 H24 0.960 . S
C19 H25 0.959 . S
H20 C16 0.960 . S
H21 C16 0.961 . S
H22 C16 0.960 . S
H23 C19 0.960 . S
H24 C19 0.960 . S
H25 C19 0.959 . S
C26 N27 1.317 . S
C26 N28 1.348 . S
C26 C29 1.485 . S
N27 C26 1.317 . S
N27 N31 1.370 . S
N28 C26 1.348 . S
N28 C30 1.346 . S
C29 C26 1.485 . S
C29 H33 0.960 . S
C29 H34 0.961 . S
C29 H35 0.960 . S
C30 N28 1.346 . S
C30 N31 1.307 . S
C30 C32 1.486 . S
N31 N27 1.370 . S
N31 C30 1.307 . S
C32 C30 1.486 . S
C32 H36 0.960 . S
C32 H37 0.960 . S
C32 H38 0.959 . S
H33 C29 0.960 . S
H34 C29 0.961 . S
H35 C29 0.960 . S
H36 C32 0.960 . S
H37 C32 0.960 . S
H38 C32 0.959 . S
C39 N40 1.317 . S
C39 N41 1.348 . S
C39 C42 1.485 . S
N40 C39 1.317 . S
N40 N44 1.370 . S
N41 C39 1.348 . S
N41 C43 1.346 . S
C42 C39 1.485 . S
C42 H46 0.960 . S
C42 H47 0.961 . S
C42 H48 0.960 . S
C43 N41 1.346 . S
C43 N44 1.307 . S
C43 C45 1.486 . S
N44 N40 1.370 . S
N44 C43 1.307 . S
C45 C43 1.486 . S
C45 H49 0.960 . S
C45 H50 0.960 . S
C45 H51 0.959 . S
H46 C42 0.960 . S
H47 C42 0.961 . S
H48 C42 0.960 . S
H49 C45 0.960 . S
H50 C45 0.960 . S
H51 C45 0.959 . S
C52 N53 1.317 . S
C52 N54 1.348 . S
C52 C55 1.485 . S
N53 C52 1.317 . S
N53 N57 1.370 . S
N54 C52 1.348 . S
N54 C56 1.346 . S
C55 C52 1.485 . S
C55 H59 0.960 . S
C55 H60 0.961 . S
C55 H61 0.960 . S
C56 N54 1.346 . S
C56 N57 1.307 . S
C56 C58 1.486 . S
N57 N53 1.370 . S
N57 C56 1.307 . S
C58 C56 1.486 . S
C58 H62 0.960 . S
C58 H63 0.960 . S
C58 H64 0.959 . S
H59 C55 0.960 . S
H60 C55 0.961 . S
H61 C55 0.960 . S
H62 C58 0.960 . S
H63 C58 0.960 . S
H64 C58 0.959 . S
C65 N66 1.317 . S
C65 N67 1.348 . S
C65 C68 1.485 . S
N66 C65 1.317 . S
N66 N70 1.370 . S
N67 C65 1.348 . S
N67 C69 1.346 . S
C68 C65 1.485 . S
C68 H72 0.960 . S
C68 H73 0.961 . S
C68 H74 0.960 . S
C69 N67 1.346 . S
C69 N70 1.307 . S
C69 C71 1.486 . S
N70 N66 1.370 . S
N70 C69 1.307 . S
C71 C69 1.486 . S
C71 H75 0.960 . S
C71 H76 0.960 . S
C71 H77 0.959 . S
H72 C68 0.960 . S
H73 C68 0.961 . S
H74 C68 0.960 . S
H75 C71 0.960 . S
H76 C71 0.960 . S
H77 C71 0.959 . S
C78 N79 1.317 . S
C78 N80 1.348 . S
C78 C81 1.485 . S
N79 C78 1.317 . S
N79 N83 1.370 . S
N80 C78 1.348 . S
N80 C82 1.346 . S
C81 C78 1.485 . S
C81 H85 0.960 . S
C81 H86 0.961 . S
C81 H87 0.960 . S
C82 N80 1.346 . S
C82 N83 1.307 . S
C82 C84 1.486 . S
N83 N79 1.370 . S
N83 C82 1.307 . S
C84 C82 1.486 . S
C84 H88 0.960 . S
C84 H89 0.960 . S
C84 H90 0.959 . S
H85 C81 0.960 . S
H86 C81 0.961 . S
H87 C81 0.960 . S
H88 C84 0.960 . S
H89 C84 0.960 . S
H90 C84 0.959 . S
C91 N92 1.317 . S
C91 N93 1.348 . S
C91 C94 1.485 . S
N92 C91 1.317 . S
N92 N96 1.370 . S
N93 C91 1.348 . S
N93 C95 1.346 . S
C94 C91 1.485 . S
C94 H98 0.960 . S
C94 H99 0.961 . S
C94 H100 0.960 . S
C95 N93 1.346 . S
C95 N96 1.307 . S
C95 C97 1.486 . S
N96 N92 1.370 . S
N96 C95 1.307 . S
C97 C95 1.486 . S
C97 H101 0.960 . S
C97 H102 0.960 . S
C97 H103 0.959 . S
H98 C94 0.960 . S
H99 C94 0.961 . S
H100 C94 0.960 . S
H101 C97 0.960 . S
H102 C97 0.960 . S
H103 C97 0.959 . S
Co104 N109 2.057 1_455 S
Co104 O121 2.021 . S
Co104 O124 2.062 . S
Co104 O128 2.117 1_545 S
Co104 O129 2.020 . S
C105 O125 1.259 . S
C105 O128 1.258 . S
Co106 N115 2.057 1_545 S
Co106 O122 2.117 . S
Co106 O123 2.020 . S
Co106 O125 2.021 1_545 S
Co106 O130 2.062 1_545 S
C107 N109 1.316 . S
C107 N110 1.347 . S
C107 H112 0.931 . S
C108 N109 1.375 . S
C108 C111 1.350 . S
C108 H113 0.930 1_545 S
N109 Co104 2.057 1_655 S
N109 C107 1.316 . S
N109 C108 1.375 . S
N110 C107 1.347 . S
N110 C111 1.373 . S
C111 C108 1.350 . S
C111 N110 1.373 . S
C111 H132 0.931 . S
H112 C107 0.931 . S
H113 C108 0.930 1_565 S
C114 O121 1.259 . S
C114 O122 1.258 . S
N115 Co106 2.057 1_565 S
N115 C116 1.316 . S
N115 C117 1.375 1_565 S
C116 N115 1.316 . S
C116 N118 1.347 . S
C116 H127 0.931 . S
C117 N115 1.375 1_545 S
C117 C119 1.350 . S
C117 H126 0.930 . S
N118 C116 1.347 . S
N118 C119 1.373 1_565 S
C119 C117 1.350 . S
C119 N118 1.373 1_545 S
C119 H133 0.931 . S
C120 O123 1.256 . S
C120 O124 1.255 . S
O121 Co104 2.021 . S
O121 C114 1.259 . S
O122 Co106 2.117 . S
O122 C114 1.258 . S
O123 Co106 2.020 . S
O123 C120 1.256 . S
O124 Co104 2.062 . S
O124 C120 1.255 . S
O125 C105 1.259 . S
O125 Co106 2.021 1_565 S
H126 C117 0.930 . S
H127 C116 0.931 . S
O128 Co104 2.117 1_565 S
O128 C105 1.258 . S
O129 Co104 2.020 . S
O129 C131 1.256 1_545 S
O130 Co106 2.062 1_565 S
O130 C131 1.255 . S
C131 O129 1.256 1_565 S
C131 O130 1.255 . S
H132 C111 0.931 . S
H133 C119 0.931 . S
Co134 N139 2.057 1_545 S
Co134 O151 2.021 . S
Co134 O154 2.062 . S
Co134 O158 2.117 1_546 S
Co134 O159 2.020 1_556 S
C135 O155 1.259 . S
C135 O158 1.258 . S
Co136 N145 2.057 . S
Co136 O152 2.117 . S
Co136 O153 2.020 . S
Co136 O155 2.021 1_545 S
Co136 O160 2.062 . S
C137 N139 1.316 1_545 S
C137 N140 1.347 1_545 S
C137 H142 0.931 . S
C138 N139 1.375 . S
C138 C141 1.350 . S
C138 H143 0.930 . S
N139 Co134 2.057 1_565 S
N139 C137 1.316 1_565 S
N139 C138 1.375 . S
N140 C137 1.347 1_565 S
N140 C141 1.373 . S
C141 C138 1.350 . S
C141 N140 1.373 . S
C141 H162 0.931 . S
H142 C137 0.931 . S
H143 C138 0.930 . S
C144 O151 1.259 1_554 S
C144 O152 1.258 . S
N145 Co136 2.057 . S
N145 C146 1.316 . S
N145 C147 1.375 . S
C146 N145 1.316 . S
C146 N148 1.347 . S
C146 H157 0.931 . S
C147 N145 1.375 . S
C147 C149 1.350 . S
C147 H156 0.930 . S
N148 C146 1.347 . S
N148 C149 1.373 . S
C149 C147 1.350 . S
C149 N148 1.373 . S
C149 H163 0.931 . S
C150 O153 1.256 . S
C150 O154 1.255 1_554 S
O151 Co134 2.021 . S
O151 C144 1.259 1_556 S
O152 Co136 2.117 . S
O152 C144 1.258 . S
O153 Co136 2.020 . S
O153 C150 1.256 . S
O154 Co134 2.062 . S
O154 C150 1.255 1_556 S
O155 C135 1.259 . S
O155 Co136 2.021 1_565 S
H156 C147 0.930 . S
H157 C146 0.931 . S
O158 Co134 2.117 1_564 S
O158 C135 1.258 . S
O159 Co134 2.020 1_554 S
O159 C161 1.256 . S
O160 Co136 2.062 . S
O160 C161 1.255 . S
C161 O159 1.256 . S
C161 O160 1.255 . S
H162 C141 0.931 . S
H163 C149 0.931 . S
Co164 N169 2.057 . S
Co164 O181 2.021 . S
Co164 O184 2.062 . S
Co164 O188 2.117 . S
Co164 O189 2.020 . S
C165 O185 1.259 . S
C165 O188 1.258 . S
Co166 N175 2.057 . S
Co166 O182 2.117 . S
Co166 O183 2.020 . S
Co166 O185 2.021 . S
Co166 O190 2.062 . S
C167 N169 1.316 . S
C167 N170 1.347 . S
C167 H172 0.931 . S
C168 N169 1.375 . S
C168 C171 1.350 . S
C168 H173 0.930 . S
N169 Co164 2.057 . S
N169 C167 1.316 . S
N169 C168 1.375 . S
N170 C167 1.347 . S
N170 C171 1.373 . S
C171 C168 1.350 . S
C171 N170 1.373 . S
C171 H192 0.931 . S
H172 C167 0.931 . S
H173 C168 0.930 . S
C174 O181 1.259 . S
C174 O182 1.258 . S
N175 Co166 2.057 . S
N175 C176 1.316 . S
N175 C177 1.375 . S
C176 N175 1.316 . S
C176 N178 1.347 . S
C176 H187 0.931 . S
C177 N175 1.375 . S
C177 C179 1.350 . S
C177 H186 0.930 . S
N178 C176 1.347 . S
N178 C179 1.373 . S
C179 C177 1.350 . S
C179 N178 1.373 . S
C179 H193 0.931 . S
C180 O183 1.256 . S
C180 O184 1.255 . S
O181 Co164 2.021 . S
O181 C174 1.259 . S
O182 Co166 2.117 . S
O182 C174 1.258 . S
O183 Co166 2.020 . S
O183 C180 1.256 . S
O184 Co164 2.062 . S
O184 C180 1.255 . S
O185 C165 1.259 . S
O185 Co166 2.021 . S
H186 C177 0.930 . S
H187 C176 0.931 . S
O188 Co164 2.117 . S
O188 C165 1.258 . S
O189 Co164 2.020 . S
O189 C191 1.256 . S
O190 Co166 2.062 . S
O190 C191 1.255 . S
C191 O189 1.256 . S
C191 O190 1.255 . S
H192 C171 0.931 . S
H193 C179 0.931 . S
Co194 N199 2.057 . S
Co194 O211 2.021 . S
Co194 O214 2.062 . S
Co194 O218 2.117 1_455 S
Co194 O219 2.020 1_455 S
C195 O215 1.259 1_556 S
C195 O218 1.258 . S
Co196 N205 2.057 . S
Co196 O212 2.117 1_655 S
Co196 O213 2.020 1_655 S
Co196 O215 2.021 . S
Co196 O220 2.062 . S
C197 N199 1.316 . S
C197 N200 1.347 . S
C197 H202 0.931 . S
C198 N199 1.375 1_655 S
C198 C201 1.350 1_655 S
C198 H203 0.930 . S
N199 Co194 2.057 . S
N199 C197 1.316 . S
N199 C198 1.375 1_455 S
N200 C197 1.347 . S
N200 C201 1.373 . S
C201 C198 1.350 1_455 S
C201 N200 1.373 . S
C201 H222 0.931 1_455 S
H202 C197 0.931 . S
H203 C198 0.930 . S
C204 O211 1.259 1_554 S
C204 O212 1.258 . S
N205 Co196 2.057 . S
N205 C206 1.316 . S
N205 C207 1.375 1_655 S
C206 N205 1.316 . S
C206 N208 1.347 . S
C206 H217 0.931 . S
C207 N205 1.375 1_455 S
C207 C209 1.350 1_455 S
C207 H216 0.930 . S
N208 C206 1.347 . S
N208 C209 1.373 . S
C209 C207 1.350 1_655 S
C209 N208 1.373 . S
C209 H223 0.931 1_655 S
C210 O213 1.256 . S
C210 O214 1.255 1_554 S
O211 Co194 2.021 . S
O211 C204 1.259 1_556 S
O212 Co196 2.117 1_455 S
O212 C204 1.258 . S
O213 Co196 2.020 1_455 S
O213 C210 1.256 . S
O214 Co194 2.062 . S
O214 C210 1.255 1_556 S
O215 C195 1.259 1_554 S
O215 Co196 2.021 . S
H216 C207 0.930 . S
H217 C206 0.931 . S
O218 Co194 2.117 1_655 S
O218 C195 1.258 . S
O219 Co194 2.020 1_655 S
O219 C221 1.256 . S
O220 Co196 2.062 . S
O220 C221 1.255 1_554 S
C221 O219 1.256 . S
C221 O220 1.255 1_556 S
H222 C201 0.931 1_655 S
H223 C209 0.931 1_455 S
H224 C232 0.929 . S
H225 C234 0.930 . S
H226 C236 0.930 . S
H227 C239 0.929 . S
H228 C242 0.930 . S
H229 C244 0.960 . S
H230 C244 0.960 . S
H231 C244 0.960 . S
C232 H224 0.929 . S
C232 C233 1.377 . S
C232 C234 1.384 . S
C233 C232 1.377 . S
C233 C239 1.390 . S
C234 H225 0.930 . S
C234 C232 1.384 . S
C234 C235 1.372 . S
C235 C234 1.372 . S
C235 C236 1.400 . S
C235 C240 1.490 . S
C236 H226 0.930 . S
C236 C235 1.400 . S
C236 C239 1.386 . S
H237 C253 0.930 . S
H238 C254 0.931 . S
C239 H227 0.929 . S
C239 C233 1.390 . S
C239 C236 1.386 . S
C240 C235 1.490 . S
C240 C242 1.395 . S
C240 C243 1.403 . S
H241 C247 0.930 . S
C242 H228 0.930 . S
C242 C240 1.395 . S
C242 C245 1.403 . S
C243 C240 1.403 . S
C243 C244 1.524 . S
C243 C247 1.400 . S
C244 H229 0.960 . S
C244 H230 0.960 . S
C244 H231 0.960 . S
C244 C243 1.524 . S
C245 C242 1.403 . S
C245 C246 1.392 . S
C245 C249 1.495 . S
C246 C245 1.392 . S
C246 C247 1.385 . S
C246 C248 1.478 . S
C247 H241 0.930 . S
C247 C243 1.400 . S
C247 C246 1.385 . S
C248 C246 1.478 . S
C248 C250 1.381 . S
C248 C254 1.383 . S
C249 C245 1.495 . S
C249 H255 0.959 . S
C249 H256 0.961 . S
C249 H257 0.960 . S
C250 C248 1.381 . S
C250 C251 1.394 . S
C250 H258 0.930 . S
C251 C250 1.394 . S
C251 C252 1.383 . S
C251 H259 0.929 . S
C252 C251 1.383 . S
C252 C253 1.377 . S
C253 H237 0.930 . S
C253 C252 1.377 . S
C253 C254 1.379 . S
C254 H238 0.931 . S
C254 C248 1.383 . S
C254 C253 1.379 . S
H255 C249 0.959 . S
H256 C249 0.961 . S
H257 C249 0.960 . S
H258 C250 0.930 . S
H259 C251 0.929 . S
H260 C268 0.929 . S
H261 C270 0.930 . S
H262 C272 0.930 . S
H263 C275 0.929 . S
H264 C278 0.930 . S
H265 C280 0.960 . S
H266 C280 0.960 . S
H267 C280 0.960 . S
C268 H260 0.929 . S
C268 C269 1.377 . S
C268 C270 1.384 . S
C269 C268 1.377 . S
C269 C275 1.390 . S
C270 H261 0.930 . S
C270 C268 1.384 . S
C270 C271 1.372 . S
C271 C270 1.372 . S
C271 C272 1.400 . S
C271 C276 1.490 . S
C272 H262 0.930 . S
C272 C271 1.400 . S
C272 C275 1.386 . S
H273 C289 0.930 . S
H274 C290 0.931 . S
C275 H263 0.929 . S
C275 C269 1.390 . S
C275 C272 1.386 . S
C276 C271 1.490 . S
C276 C278 1.395 . S
C276 C279 1.403 . S
H277 C283 0.930 . S
C278 H264 0.930 . S
C278 C276 1.395 . S
C278 C281 1.403 . S
C279 C276 1.403 . S
C279 C280 1.524 . S
C279 C283 1.400 . S
C280 H265 0.960 . S
C280 H266 0.960 . S
C280 H267 0.960 . S
C280 C279 1.524 . S
C281 C278 1.403 . S
C281 C282 1.392 . S
C281 C285 1.495 . S
C282 C281 1.392 . S
C282 C283 1.385 . S
C282 C284 1.478 . S
C283 H277 0.930 . S
C283 C279 1.400 . S
C283 C282 1.385 . S
C284 C282 1.478 . S
C284 C286 1.381 . S
C284 C290 1.383 . S
C285 C281 1.495 . S
C285 H291 0.959 . S
C285 H292 0.961 . S
C285 H293 0.960 . S
C286 C284 1.381 . S
C286 C287 1.394 . S
C286 H294 0.930 . S
C287 C286 1.394 . S
C287 C288 1.383 . S
C287 H295 0.929 1_565 S
C288 C287 1.383 . S
C288 C289 1.377 . S
C289 H273 0.930 . S
C289 C288 1.377 . S
C289 C290 1.379 . S
C290 H274 0.931 . S
C290 C284 1.383 . S
C290 C289 1.379 . S
H291 C285 0.959 . S
H292 C285 0.961 . S
H293 C285 0.960 . S
H294 C286 0.930 . S
H295 C287 0.929 1_545 S
H296 C304 0.929 . S
H297 C306 0.930 . S
H298 C308 0.930 . S
H299 C311 0.929 . S
H300 C314 0.930 . S
H301 C316 0.960 . S
H302 C316 0.960 . S
H303 C316 0.960 . S
C304 H296 0.929 . S
C304 C305 1.377 . S
C304 C306 1.384 . S
C305 C304 1.377 . S
C305 C311 1.390 . S
C306 H297 0.930 . S
C306 C304 1.384 . S
C306 C307 1.372 . S
C307 C306 1.372 . S
C307 C308 1.400 . S
C307 C312 1.490 . S
C308 H298 0.930 . S
C308 C307 1.400 . S
C308 C311 1.386 . S
H309 C325 0.930 . S
H310 C326 0.931 . S
C311 H299 0.929 . S
C311 C305 1.390 . S
C311 C308 1.386 . S
C312 C307 1.490 . S
C312 C314 1.395 . S
C312 C315 1.403 . S
H313 C319 0.930 . S
C314 H300 0.930 . S
C314 C312 1.395 . S
C314 C317 1.403 . S
C315 C312 1.403 . S
C315 C316 1.524 . S
C315 C319 1.400 . S
C316 H301 0.960 . S
C316 H302 0.960 . S
C316 H303 0.960 . S
C316 C315 1.524 . S
C317 C314 1.403 . S
C317 C318 1.392 . S
C317 C321 1.495 . S
C318 C317 1.392 . S
C318 C319 1.385 . S
C318 C320 1.478 . S
C319 H313 0.930 . S
C319 C315 1.400 . S
C319 C318 1.385 . S
C320 C318 1.478 . S
C320 C322 1.381 . S
C320 C326 1.383 . S
C321 C317 1.495 . S
C321 H327 0.959 . S
C321 H328 0.961 . S
C321 H329 0.960 . S
C322 C320 1.381 . S
C322 C323 1.394 . S
C322 H330 0.930 . S
C323 C322 1.394 . S
C323 C324 1.383 . S
C323 H331 0.929 . S
C324 C323 1.383 . S
C324 C325 1.377 . S
C325 H309 0.930 . S
C325 C324 1.377 . S
C325 C326 1.379 . S
C326 H310 0.931 . S
C326 C320 1.383 . S
C326 C325 1.379 . S
H327 C321 0.959 . S
H328 C321 0.961 . S
H329 C321 0.960 . S
H330 C322 0.930 . S
H331 C323 0.929 . S
H332 C340 0.929 . S
H333 C342 0.930 . S
H334 C344 0.930 . S
H335 C347 0.929 . S
H336 C350 0.930 . S
H337 C352 0.960 . S
H338 C352 0.960 . S
H339 C352 0.960 . S
C340 H332 0.929 . S
C340 C341 1.377 . S
C340 C342 1.384 . S
C341 C340 1.377 . S
C341 C347 1.390 . S
C342 H333 0.930 . S
C342 C340 1.384 . S
C342 C343 1.372 . S
C343 C342 1.372 . S
C343 C344 1.400 . S
C343 C348 1.490 . S
C344 H334 0.930 . S
C344 C343 1.400 . S
C344 C347 1.386 . S
H345 C361 0.930 . S
H346 C362 0.931 . S
C347 H335 0.929 . S
C347 C341 1.390 . S
C347 C344 1.386 . S
C348 C343 1.490 . S
C348 C350 1.395 . S
C348 C351 1.403 . S
H349 C355 0.930 . S
C350 H336 0.930 . S
C350 C348 1.395 . S
C350 C353 1.403 . S
C351 C348 1.403 . S
C351 C352 1.524 . S
C351 C355 1.400 . S
C352 H337 0.960 . S
C352 H338 0.960 . S
C352 H339 0.960 . S
C352 C351 1.524 . S
C353 C350 1.403 . S
C353 C354 1.392 . S
C353 C357 1.495 . S
C354 C353 1.392 . S
C354 C355 1.385 . S
C354 C356 1.478 . S
C355 H349 0.930 . S
C355 C351 1.400 . S
C355 C354 1.385 . S
C356 C354 1.478 . S
C356 C358 1.381 . S
C356 C362 1.383 . S
C357 C353 1.495 . S
C357 H363 0.966 . S
C357 H364 0.961 1_655 S
C357 H365 0.960 . S
C358 C356 1.381 . S
C358 C359 1.394 . S
C358 H366 0.930 . S
C359 C358 1.394 . S
C359 C360 1.383 . S
C359 H367 0.929 . S
C360 C359 1.383 . S
C360 C361 1.377 . S
C361 H345 0.930 . S
C361 C360 1.377 . S
C361 C362 1.379 . S
C362 H346 0.931 . S
C362 C356 1.383 . S
C362 C361 1.379 . S
H363 C357 0.966 . S
H364 C357 0.961 1_455 S
H365 C357 0.960 . S
H366 C358 0.930 . S
H367 C359 0.929 . S
H368 C376 0.929 . S
H369 C378 0.930 . S
H370 C380 0.930 . S
H371 C383 0.929 . S
H372 C386 0.930 . S
H373 C388 0.960 . S
H374 C388 0.960 . S
H375 C388 0.960 . S
C376 H368 0.929 . S
C376 C377 1.377 . S
C376 C378 1.384 . S
C377 C376 1.377 . S
C377 C383 1.390 . S
C378 H369 0.930 . S
C378 C376 1.384 . S
C378 C379 1.372 . S
C379 C378 1.372 . S
C379 C380 1.400 . S
C379 C384 1.490 . S
C380 H370 0.930 . S
C380 C379 1.400 . S
C380 C383 1.386 . S
H381 C397 0.930 . S
H382 C398 0.931 . S
C383 H371 0.929 . S
C383 C377 1.390 . S
C383 C380 1.386 . S
C384 C379 1.490 . S
C384 C386 1.395 . S
C384 C387 1.403 . S
H385 C391 0.930 . S
C386 H372 0.930 . S
C386 C384 1.395 . S
C386 C389 1.403 . S
C387 C384 1.403 . S
C387 C388 1.524 . S
C387 C391 1.400 . S
C388 H373 0.960 . S
C388 H374 0.960 . S
C388 H375 0.960 . S
C388 C387 1.524 . S
C389 C386 1.403 . S
C389 C390 1.392 . S
C389 C393 1.495 . S
C390 C389 1.392 . S
C390 C391 1.385 . S
C390 C392 1.478 . S
C391 H385 0.930 . S
C391 C387 1.400 . S
C391 C390 1.385 . S
C392 C390 1.478 . S
C392 C394 1.381 . S
C392 C398 1.383 . S
C393 C389 1.495 . S
C393 H399 0.959 . S
C393 H400 0.961 . S
C393 H401 0.960 . S
C394 C392 1.381 . S
C394 C395 1.394 . S
C394 H402 0.930 . S
C395 C394 1.394 . S
C395 C396 1.383 . S
C395 H403 0.929 . S
C396 C395 1.383 . S
C396 C397 1.377 . S
C397 H381 0.930 . S
C397 C396 1.377 . S
C397 C398 1.379 . S
C398 H382 0.931 . S
C398 C392 1.383 . S
C398 C397 1.379 . S
H399 C393 0.959 . S
H400 C393 0.961 . S
H401 C393 0.960 . S
H402 C394 0.930 . S
H403 C395 0.929 . S
H404 C412 0.929 . S
H405 C414 0.930 . S
H406 C416 0.930 . S
H407 C419 0.929 . S
H408 C422 0.930 . S
H409 C424 0.960 . S
H410 C424 0.960 . S
H411 C424 0.960 . S
C412 H404 0.929 . S
C412 C413 1.377 . S
C412 C414 1.384 . S
C413 C412 1.377 . S
C413 C419 1.390 . S
C414 H405 0.930 . S
C414 C412 1.384 . S
C414 C415 1.372 . S
C415 C414 1.372 . S
C415 C416 1.400 . S
C415 C420 1.490 . S
C416 H406 0.930 . S
C416 C415 1.400 . S
C416 C419 1.386 . S
H417 C433 0.930 . S
H418 C434 0.931 . S
C419 H407 0.929 . S
C419 C413 1.390 . S
C419 C416 1.386 . S
C420 C415 1.490 . S
C420 C422 1.395 . S
C420 C423 1.403 . S
H421 C427 0.930 . S
C422 H408 0.930 . S
C422 C420 1.395 . S
C422 C425 1.403 . S
C423 C420 1.403 . S
C423 C424 1.524 . S
C423 C427 1.400 . S
C424 H409 0.960 . S
C424 H410 0.960 . S
C424 H411 0.960 . S
C424 C423 1.524 . S
C425 C422 1.403 . S
C425 C426 1.392 . S
C425 C429 1.495 . S
C426 C425 1.392 . S
C426 C427 1.385 . S
C426 C428 1.478 . S
C427 H421 0.930 . S
C427 C423 1.400 . S
C427 C426 1.385 . S
C428 C426 1.478 . S
C428 C430 1.381 . S
C428 C434 1.383 . S
C429 C425 1.495 . S
C429 H435 0.959 . S
C429 H436 0.948 1_565 S
C429 H437 0.960 . S
C430 C428 1.381 . S
C430 C431 1.394 . S
C430 H438 0.930 . S
C431 C430 1.394 . S
C431 C432 1.383 . S
C431 H439 0.929 . S
C432 C431 1.383 . S
C432 C433 1.377 . S
C433 H417 0.930 . S
C433 C432 1.377 . S
C433 C434 1.379 . S
C434 H418 0.931 . S
C434 C428 1.383 . S
C434 C433 1.379 . S
H435 C429 0.959 . S
H436 C429 0.948 1_545 S
H437 C429 0.960 . S
H438 C430 0.930 . S
H439 C431 0.929 . S
H440 C448 0.929 . S
H441 C450 0.930 . S
H442 C452 0.930 . S
H443 C455 0.929 . S
H444 C458 0.930 . S
H445 C460 0.960 . S
H446 C460 0.960 . S
H447 C460 0.960 . S
C448 H440 0.929 . S
C448 C449 1.377 . S
C448 C450 1.384 . S
C449 C448 1.377 . S
C449 C455 1.390 . S
C450 H441 0.930 . S
C450 C448 1.384 . S
C450 C451 1.372 . S
C451 C450 1.372 . S
C451 C452 1.400 . S
C451 C456 1.490 . S
C452 H442 0.930 . S
C452 C451 1.400 . S
C452 C455 1.386 . S
H453 C469 0.961 . S
H454 C470 0.931 . S
C455 H443 0.929 . S
C455 C449 1.390 . S
C455 C452 1.386 . S
C456 C451 1.490 . S
C456 C458 1.395 . S
C456 C459 1.403 . S
H457 C463 0.930 . S
C458 H444 0.930 . S
C458 C456 1.395 . S
C458 C461 1.403 . S
C459 C456 1.403 . S
C459 C460 1.524 . S
C459 C463 1.400 . S
C460 H445 0.960 . S
C460 H446 0.960 . S
C460 H447 0.960 . S
C460 C459 1.524 . S
C461 C458 1.403 . S
C461 C462 1.392 . S
C461 C465 1.495 . S
C462 C461 1.392 . S
C462 C463 1.385 . S
C462 C464 1.478 . S
C463 H457 0.930 . S
C463 C459 1.400 . S
C463 C462 1.385 . S
C464 C462 1.478 . S
C464 C466 1.381 . S
C464 C470 1.383 . S
C465 C461 1.495 . S
C465 H471 0.959 . S
C465 H472 0.961 . S
C465 H473 0.960 . S
C466 C464 1.381 . S
C466 C467 1.394 . S
C466 H474 0.930 . S
C467 C466 1.394 . S
C467 C468 1.383 . S
C467 H475 0.929 . S
C468 C467 1.383 . S
C468 C469 1.377 . S
C469 H453 0.961 . S
C469 C468 1.377 . S
C469 C470 1.379 . S
C470 H454 0.931 . S
C470 C464 1.383 . S
C470 C469 1.379 . S
H471 C465 0.959 . S
H472 C465 0.961 . S
H473 C465 0.960 . S
H474 C466 0.930 . S
H475 C467 0.929 . S
H476 C484 0.929 . S
H477 C486 0.930 . S
H478 C488 0.930 . S
H479 C491 0.929 . S
H480 C494 0.930 . S
H481 C496 0.960 . S
H482 C496 0.960 . S
H483 C496 0.960 . S
C484 H476 0.929 . S
C484 C485 1.377 . S
C484 C486 1.384 . S
C485 C484 1.377 . S
C485 C491 1.390 . S
C486 H477 0.930 . S
C486 C484 1.384 . S
C486 C487 1.372 . S
C487 C486 1.372 . S
C487 C488 1.400 . S
C487 C492 1.490 . S
C488 H478 0.930 . S
C488 C487 1.400 . S
C488 C491 1.386 . S
H489 C505 0.930 . S
H490 C506 0.931 . S
C491 H479 0.929 . S
C491 C485 1.390 . S
C491 C488 1.386 . S
C492 C487 1.490 . S
C492 C494 1.395 . S
C492 C495 1.403 . S
H493 C499 0.930 . S
C494 H480 0.930 . S
C494 C492 1.395 . S
C494 C497 1.403 . S
C495 C492 1.403 . S
C495 C496 1.524 . S
C495 C499 1.400 . S
C496 H481 0.960 . S
C496 H482 0.960 . S
C496 H483 0.960 . S
C496 C495 1.524 . S
C497 C494 1.403 . S
C497 C498 1.392 . S
C497 C501 1.495 . S
C498 C497 1.392 . S
C498 C499 1.385 . S
C498 C500 1.478 . S
C499 H493 0.930 . S
C499 C495 1.400 . S
C499 C498 1.385 . S
C500 C498 1.478 . S
C500 C502 1.381 . S
C500 C506 1.383 . S
C501 C497 1.495 . S
C501 H507 0.959 . S
C501 H508 0.961 . S
C501 H509 0.960 . S
C502 C500 1.381 . S
C502 C503 1.394 . S
C502 H510 0.930 . S
C503 C502 1.394 . S
C503 C504 1.383 . S
C503 H511 0.929 . S
C504 C503 1.383 . S
C504 C505 1.377 . S
C505 H489 0.930 . S
C505 C504 1.377 . S
C505 C506 1.379 . S
C506 H490 0.931 . S
C506 C500 1.383 . S
C506 C505 1.379 . S
H507 C501 0.959 . S
H508 C501 0.961 . S
H509 C501 0.960 . S
H510 C502 0.930 . S
H511 C503 0.929 . S
H512 C520 0.929 . S
H513 C522 0.930 . S
H514 C524 0.930 . S
H515 C527 0.929 . S
H516 C530 0.930 . S
H517 C532 0.960 . S
H518 C532 0.960 . S
H519 C532 0.960 . S
C520 H512 0.929 . S
C520 C521 1.377 . S
C520 C522 1.384 . S
C521 C520 1.377 . S
C521 C527 1.390 . S
C522 H513 0.930 . S
C522 C520 1.384 . S
C522 C523 1.372 . S
C523 C522 1.372 . S
C523 C524 1.400 . S
C523 C528 1.490 . S
C524 H514 0.930 . S
C524 C523 1.400 . S
C524 C527 1.386 . S
H525 C541 0.930 1_556 S
H526 C542 0.929 1_556 S
C527 H515 0.929 . S
C527 C521 1.390 . S
C527 C524 1.386 . S
C528 C523 1.490 . S
C528 C530 1.395 . S
C528 C531 1.403 . S
H529 C535 0.930 . S
C530 H516 0.930 . S
C530 C528 1.395 . S
C530 C533 1.403 . S
C531 C528 1.403 . S
C531 C532 1.524 . S
C531 C535 1.400 . S
C532 H517 0.960 . S
C532 H518 0.960 . S
C532 H519 0.960 . S
C532 C531 1.524 . S
C533 C530 1.403 . S
C533 C534 1.392 . S
C533 C537 1.495 . S
C534 C533 1.392 . S
C534 C535 1.385 . S
C534 C536 1.478 . S
C535 H529 0.930 . S
C535 C531 1.400 . S
C535 C534 1.385 . S
C536 C534 1.478 . S
C536 C538 1.381 . S
C536 C542 1.383 . S
C537 C533 1.495 . S
C537 H543 0.959 . S
C537 H544 0.961 . S
C537 H545 0.960 . S
C538 C536 1.381 . S
C538 C539 1.394 . S
C538 H546 0.930 . S
C539 C538 1.394 . S
C539 C540 1.383 . S
C539 H547 0.929 . S
C540 C539 1.383 . S
C540 C541 1.377 . S
C541 H525 0.930 1_554 S
C541 C540 1.377 . S
C541 C542 1.379 . S
C542 H526 0.929 1_554 S
C542 C536 1.383 . S
C542 C541 1.379 . S
H543 C537 0.959 . S
H544 C537 0.961 . S
H545 C537 0.960 . S
H546 C538 0.930 . S
H547 C539 0.929 . S
H548 C556 0.929 . S
H549 C558 0.930 . S
H550 C560 0.930 . S
H551 C563 0.929 . S
H552 C566 0.930 . S
H553 C568 0.960 . S
H554 C568 0.960 . S
H555 C568 0.960 . S
C556 H548 0.929 . S
C556 C557 1.377 . S
C556 C558 1.384 . S
C557 C556 1.377 . S
C557 C563 1.390 . S
C558 H549 0.930 . S
C558 C556 1.384 . S
C558 C559 1.372 . S
C559 C558 1.372 . S
C559 C560 1.400 . S
C559 C564 1.490 . S
C560 H550 0.930 . S
C560 C559 1.400 . S
C560 C563 1.386 . S
H561 C577 0.930 . S
H562 C578 0.931 1_554 S
C563 H551 0.929 . S
C563 C557 1.390 . S
C563 C560 1.386 . S
C564 C559 1.490 . S
C564 C566 1.395 . S
C564 C567 1.403 . S
H565 C571 0.930 . S
C566 H552 0.930 . S
C566 C564 1.395 . S
C566 C569 1.403 . S
C567 C564 1.403 . S
C567 C568 1.524 . S
C567 C571 1.400 . S
C568 H553 0.960 . S
C568 H554 0.960 . S
C568 H555 0.960 . S
C568 C567 1.524 . S
C569 C566 1.403 . S
C569 C570 1.392 . S
C569 C573 1.495 . S
C570 C569 1.392 . S
C570 C571 1.385 . S
C570 C572 1.478 . S
C571 H565 0.930 . S
C571 C567 1.400 . S
C571 C570 1.385 . S
C572 C570 1.478 . S
C572 C574 1.381 . S
C572 C578 1.383 . S
C573 C569 1.495 . S
C573 H579 0.959 . S
C573 H580 0.961 . S
C573 H581 0.960 . S
C574 C572 1.381 . S
C574 C575 1.394 . S
C574 H582 0.930 . S
C575 C574 1.394 . S
C575 C576 1.383 . S
C575 H583 0.929 . S
C576 C575 1.383 . S
C576 C577 1.377 1_556 S
C577 H561 0.930 . S
C577 C576 1.377 1_554 S
C577 C578 1.379 1_554 S
C578 H562 0.931 1_556 S
C578 C572 1.383 . S
C578 C577 1.379 1_556 S
H579 C573 0.959 . S
H580 C573 0.961 . S
H581 C573 0.960 . S
H582 C574 0.930 . S
H583 C575 0.929 . S
H584 C592 0.929 . S
H585 C594 0.930 . S
H586 C596 0.930 . S
H587 C599 0.929 . S
H588 C602 0.930 . S
H589 C604 0.960 . S
H590 C604 0.960 . S
H591 C604 0.960 . S
C592 H584 0.929 . S
C592 C593 1.377 . S
C592 C594 1.384 . S
C593 C592 1.377 . S
C593 C599 1.390 . S
C594 H585 0.930 . S
C594 C592 1.384 . S
C594 C595 1.372 . S
C595 C594 1.372 . S
C595 C596 1.400 . S
C595 C600 1.490 . S
C596 H586 0.930 . S
C596 C595 1.400 . S
C596 C599 1.386 . S
H597 C613 0.930 . S
H598 C614 0.931 . S
C599 H587 0.929 . S
C599 C593 1.390 . S
C599 C596 1.386 . S
C600 C595 1.490 . S
C600 C602 1.395 . S
C600 C603 1.403 . S
H601 C607 0.930 . S
C602 H588 0.930 . S
C602 C600 1.395 . S
C602 C605 1.402 1_655 S
C603 C600 1.403 . S
C603 C604 1.524 . S
C603 C607 1.400 . S
C604 H589 0.960 . S
C604 H590 0.960 . S
C604 H591 0.960 . S
C604 C603 1.524 . S
C605 C602 1.402 1_455 S
C605 C606 1.390 1_455 S
C605 C609 1.499 . S
C606 C605 1.390 1_655 S
C606 C607 1.385 . S
C606 C608 1.478 . S
C607 H601 0.930 . S
C607 C603 1.400 . S
C607 C606 1.385 . S
C608 C606 1.478 . S
C608 C610 1.381 1_655 S
C608 C614 1.383 . S
C609 C605 1.499 . S
C609 H615 0.959 . S
C609 H616 0.961 . S
C609 H617 0.960 . S
C610 C608 1.381 1_455 S
C610 C611 1.394 . S
C610 H618 0.930 . S
C611 C610 1.394 . S
C611 C612 1.383 . S
C611 H619 0.929 . S
C612 C611 1.383 . S
C612 C613 1.377 . S
C613 H597 0.930 . S
C613 C612 1.377 . S
C613 C614 1.379 1_455 S
C614 H598 0.931 . S
C614 C608 1.383 . S
C614 C613 1.379 1_655 S
H615 C609 0.959 . S
H616 C609 0.961 . S
H617 C609 0.960 . S
H618 C610 0.930 . S
H619 C611 0.929 . S
H620 C628 0.929 . S
H621 C630 0.930 . S
H622 C632 0.930 . S
H623 C635 0.929 . S
H624 C638 0.930 . S
H625 C640 0.960 . S
H626 C640 0.960 . S
H627 C640 0.960 . S
C628 H620 0.929 . S
C628 C629 1.377 . S
C628 C630 1.384 . S
C629 C628 1.377 . S
C629 C635 1.390 . S
C630 H621 0.930 . S
C630 C628 1.384 . S
C630 C631 1.372 . S
C631 C630 1.372 . S
C631 C632 1.400 . S
C631 C636 1.490 . S
C632 H622 0.930 . S
C632 C631 1.400 . S
C632 C635 1.386 . S
H633 C649 0.930 . S
H634 C650 0.931 . S
C635 H623 0.929 . S
C635 C629 1.390 . S
C635 C632 1.386 . S
C636 C631 1.490 . S
C636 C638 1.395 . S
C636 C639 1.403 . S
H637 C643 0.930 . S
C638 H624 0.930 . S
C638 C636 1.395 . S
C638 C641 1.403 . S
C639 C636 1.403 . S
C639 C640 1.524 . S
C639 C643 1.400 . S
C640 H625 0.960 . S
C640 H626 0.960 . S
C640 H627 0.960 . S
C640 C639 1.524 . S
C641 C638 1.403 . S
C641 C642 1.392 . S
C641 C645 1.495 . S
C642 C641 1.392 . S
C642 C643 1.385 . S
C642 C644 1.478 . S
C643 H637 0.930 . S
C643 C639 1.400 . S
C643 C642 1.385 . S
C644 C642 1.478 . S
C644 C646 1.381 . S
C644 C650 1.383 . S
C645 C641 1.495 . S
C645 H651 0.959 . S
C645 H652 0.961 . S
C645 H653 0.960 . S
C646 C644 1.381 . S
C646 C647 1.394 . S
C646 H654 0.930 . S
C647 C646 1.394 . S
C647 C648 1.383 . S
C647 H655 0.929 . S
C648 C647 1.383 . S
C648 C649 1.377 . S
C649 H633 0.930 . S
C649 C648 1.377 . S
C649 C650 1.379 . S
C650 H634 0.931 . S
C650 C644 1.383 . S
C650 C649 1.379 . S
H651 C645 0.959 . S
H652 C645 0.961 . S
H653 C645 0.960 . S
H654 C646 0.930 . S
H655 C647 0.929 . S
H656 C664 0.929 . S
H657 C666 0.930 . S
H658 C668 0.930 . S
H659 C671 0.929 . S
H660 C674 0.930 . S
H661 C676 0.960 . S
H662 C676 0.960 . S
H663 C676 0.961 . S
C664 H656 0.929 . S
C664 C665 1.377 . S
C664 C666 1.384 . S
C665 C664 1.377 . S
C665 C671 1.390 . S
C666 H657 0.930 . S
C666 C664 1.384 . S
C666 C667 1.372 . S
C667 C666 1.372 . S
C667 C668 1.400 . S
C667 C672 1.490 . S
C668 H658 0.930 . S
C668 C667 1.400 . S
C668 C671 1.386 . S
H669 C685 0.930 . S
H670 C686 0.931 . S
C671 H659 0.929 . S
C671 C665 1.390 . S
C671 C668 1.386 . S
C672 C667 1.490 . S
C672 C674 1.395 . S
C672 C675 1.403 . S
H673 C679 0.930 . S
C674 H660 0.930 . S
C674 C672 1.395 . S
C674 C677 1.403 . S
C675 C672 1.403 . S
C675 C676 1.524 1_565 S
C675 C679 1.400 . S
C676 H661 0.960 . S
C676 H662 0.960 . S
C676 H663 0.961 . S
C676 C675 1.524 1_545 S
C677 C674 1.403 . S
C677 C678 1.392 . S
C677 C681 1.495 . S
C678 C677 1.392 . S
C678 C679 1.385 . S
C678 C680 1.478 . S
C679 H673 0.930 . S
C679 C675 1.400 . S
C679 C678 1.385 . S
C680 C678 1.478 . S
C680 C682 1.381 1_655 S
C680 C686 1.383 . S
C681 C677 1.495 . S
C681 H687 0.959 . S
C681 H688 0.961 . S
C681 H689 0.960 1_655 S
C682 C680 1.381 1_455 S
C682 C683 1.394 . S
C682 H690 0.930 . S
C683 C682 1.394 . S
C683 C684 1.383 . S
C683 H691 0.929 . S
C684 C683 1.383 . S
C684 C685 1.377 1_455 S
C685 H669 0.930 . S
C685 C684 1.377 1_655 S
C685 C686 1.379 . S
C686 H670 0.931 . S
C686 C680 1.383 . S
C686 C685 1.379 . S
H687 C681 0.959 . S
H688 C681 0.961 . S
H689 C681 0.960 1_455 S
H690 C682 0.930 . S
H691 C683 0.929 . S
H692 C700 0.929 . S
H693 C702 0.930 . S
H694 C704 0.930 . S
H695 C707 0.929 . S
H696 C710 0.930 . S
H697 C712 0.960 . S
H698 C712 0.960 . S
H699 C712 0.960 . S
C700 H692 0.929 . S
C700 C701 1.377 . S
C700 C702 1.384 . S
C701 C700 1.377 . S
C701 C707 1.390 . S
C702 H693 0.930 . S
C702 C700 1.384 . S
C702 C703 1.372 . S
C703 C702 1.372 . S
C703 C704 1.400 . S
C703 C708 1.490 . S
C704 H694 0.930 . S
C704 C703 1.400 . S
C704 C707 1.386 . S
H705 C721 0.930 . S
H706 C722 0.931 . S
C707 H695 0.929 . S
C707 C701 1.390 . S
C707 C704 1.386 . S
C708 C703 1.490 . S
C708 C710 1.395 . S
C708 C711 1.403 . S
H709 C715 0.930 . S
C710 H696 0.930 . S
C710 C708 1.395 . S
C710 C713 1.403 . S
C711 C708 1.403 . S
C711 C712 1.524 . S
C711 C715 1.400 . S
C712 H697 0.960 . S
C712 H698 0.960 . S
C712 H699 0.960 . S
C712 C711 1.524 . S
C713 C710 1.403 . S
C713 C714 1.392 . S
C713 C717 1.495 . S
C714 C713 1.392 . S
C714 C715 1.385 . S
C714 C716 1.478 . S
C715 H709 0.930 . S
C715 C711 1.400 . S
C715 C714 1.385 . S
C716 C714 1.478 . S
C716 C718 1.381 . S
C716 C722 1.383 . S
C717 C713 1.495 . S
C717 H723 0.959 . S
C717 H724 0.961 . S
C717 H725 0.960 . S
C718 C716 1.381 . S
C718 C719 1.394 . S
C718 H726 0.930 . S
C719 C718 1.394 . S
C719 C720 1.383 . S
C719 H727 0.929 . S
C720 C719 1.383 . S
C720 C721 1.377 . S
C721 H705 0.930 . S
C721 C720 1.377 . S
C721 C722 1.379 . S
C722 H706 0.931 . S
C722 C716 1.383 . S
C722 C721 1.379 . S
H723 C717 0.959 . S
H724 C717 0.961 . S
H725 C717 0.960 . S
H726 C718 0.930 . S
H727 C719 0.929 . S
H728 C736 0.929 . S
H729 C738 0.930 . S
H730 C740 0.930 . S
H731 C743 0.929 . S
H732 C746 0.930 . S
H733 C748 0.960 . S
H734 C748 0.960 . S
H735 C748 0.960 . S
C736 H728 0.929 . S
C736 C737 1.377 . S
C736 C738 1.384 . S
C737 C736 1.377 . S
C737 C743 1.390 . S
C738 H729 0.930 . S
C738 C736 1.384 . S
C738 C739 1.372 . S
C739 C738 1.372 . S
C739 C740 1.400 . S
C739 C744 1.490 . S
C740 H730 0.930 . S
C740 C739 1.400 . S
C740 C743 1.386 . S
H741 C757 0.930 . S
H742 C758 0.931 . S
C743 H731 0.929 . S
C743 C737 1.390 . S
C743 C740 1.386 . S
C744 C739 1.490 . S
C744 C746 1.395 . S
C744 C747 1.403 . S
H745 C751 0.930 . S
C746 H732 0.930 . S
C746 C744 1.395 . S
C746 C749 1.403 . S
C747 C744 1.403 . S
C747 C748 1.524 . S
C747 C751 1.400 . S
C748 H733 0.960 . S
C748 H734 0.960 . S
C748 H735 0.960 . S
C748 C747 1.524 . S
C749 C746 1.403 . S
C749 C750 1.392 . S
C749 C753 1.495 . S
C750 C749 1.392 . S
C750 C751 1.385 . S
C750 C752 1.478 . S
C751 H745 0.930 . S
C751 C747 1.400 . S
C751 C750 1.385 . S
C752 C750 1.478 . S
C752 C754 1.381 . S
C752 C758 1.383 . S
C753 C749 1.495 . S
C753 H759 0.959 . S
C753 H760 0.961 . S
C753 H761 0.960 . S
C754 C752 1.381 . S
C754 C755 1.394 . S
C754 H762 0.930 . S
C755 C754 1.394 . S
C755 C756 1.383 . S
C755 H763 0.929 . S
C756 C755 1.383 . S
C756 C757 1.377 . S
C757 H741 0.930 . S
C757 C756 1.377 . S
C757 C758 1.379 . S
C758 H742 0.931 . S
C758 C752 1.383 . S
C758 C757 1.379 . S
H759 C753 0.959 . S
H760 C753 0.961 . S
H761 C753 0.960 . S
H762 C754 0.930 . S
H763 C755 0.929 . S
H764 C772 0.929 . S
H765 C774 0.930 . S
H766 C776 0.930 . S
H767 C779 0.929 . S
H768 C782 0.930 . S
H769 C784 0.980 . S
H770 C784 0.960 . S
H771 C784 0.960 . S
C772 H764 0.929 . S
C772 C773 1.377 . S
C772 C774 1.384 . S
C773 C772 1.377 . S
C773 C779 1.390 . S
C774 H765 0.930 . S
C774 C772 1.384 . S
C774 C775 1.372 . S
C775 C774 1.372 . S
C775 C776 1.400 . S
C775 C780 1.490 . S
C776 H766 0.930 . S
C776 C775 1.400 . S
C776 C779 1.386 . S
H777 C793 0.930 . S
H778 C794 0.931 . S
C779 H767 0.929 . S
C779 C773 1.390 . S
C779 C776 1.386 . S
C780 C775 1.490 . S
C780 C782 1.395 . S
C780 C783 1.403 . S
H781 C787 0.930 . S
C782 H768 0.930 . S
C782 C780 1.395 . S
C782 C785 1.403 . S
C783 C780 1.403 . S
C783 C784 1.524 . S
C783 C787 1.400 . S
C784 H769 0.980 . S
C784 H770 0.960 . S
C784 H771 0.960 . S
C784 C783 1.524 . S
C785 C782 1.403 . S
C785 C786 1.392 . S
C785 C789 1.495 . S
C786 C785 1.392 . S
C786 C787 1.385 . S
C786 C788 1.478 . S
C787 H781 0.930 . S
C787 C783 1.400 . S
C787 C786 1.385 . S
C788 C786 1.478 . S
C788 C790 1.381 . S
C788 C794 1.383 . S
C789 C785 1.495 . S
C789 H795 0.959 . S
C789 H796 0.961 . S
C789 H797 0.960 . S
C790 C788 1.381 . S
C790 C791 1.394 . S
C790 H798 0.930 . S
C791 C790 1.394 . S
C791 C792 1.383 . S
C791 H799 0.929 . S
C792 C791 1.383 . S
C792 C793 1.377 . S
C793 H777 0.930 . S
C793 C792 1.377 . S
C793 C794 1.379 . S
C794 H778 0.931 . S
C794 C788 1.383 . S
C794 C793 1.379 . S
H795 C789 0.959 . S
H796 C789 0.961 . S
H797 C789 0.960 . S
H798 C790 0.930 . S
H799 C791 0.929 . S
H800 C808 0.929 . S
H801 C810 0.930 . S
H802 C812 0.930 . S
H803 C815 0.929 . S
H804 C818 0.930 . S
H805 C820 0.960 . S
H806 C820 0.960 . S
H807 C820 0.960 . S
C808 H800 0.929 . S
C808 C809 1.377 . S
C808 C810 1.384 . S
C809 C808 1.377 . S
C809 C815 1.390 . S
C810 H801 0.930 . S
C810 C808 1.384 . S
C810 C811 1.372 . S
C811 C810 1.372 . S
C811 C812 1.400 . S
C811 C816 1.490 . S
C812 H802 0.930 . S
C812 C811 1.400 . S
C812 C815 1.386 . S
H813 C829 0.930 . S
H814 C830 0.931 . S
C815 H803 0.929 . S
C815 C809 1.390 . S
C815 C812 1.386 . S
C816 C811 1.490 . S
C816 C818 1.395 . S
C816 C819 1.403 . S
H817 C823 0.930 . S
C818 H804 0.930 . S
C818 C816 1.395 . S
C818 C821 1.403 . S
C819 C816 1.403 . S
C819 C820 1.524 . S
C819 C823 1.400 . S
C820 H805 0.960 . S
C820 H806 0.960 . S
C820 H807 0.960 . S
C820 C819 1.524 . S
C821 C818 1.403 . S
C821 C822 1.392 . S
C821 C825 1.495 1_556 S
C822 C821 1.392 . S
C822 C823 1.385 . S
C822 C824 1.478 . S
C823 H817 0.930 . S
C823 C819 1.400 . S
C823 C822 1.385 . S
C824 C822 1.478 . S
C824 C826 1.381 1_556 S
C824 C830 1.383 1_565 S
C825 C821 1.495 1_554 S
C825 H831 0.959 . S
C825 H832 0.961 1_565 S
C825 H833 0.960 . S
C826 C824 1.381 1_554 S
C826 C827 1.394 . S
C826 H834 0.930 . S
C827 C826 1.394 . S
C827 C828 1.383 . S
C827 H835 0.929 . S
C828 C827 1.383 . S
C828 C829 1.377 1_564 S
C829 H813 0.930 . S
C829 C828 1.377 1_546 S
C829 C830 1.379 . S
C830 H814 0.931 . S
C830 C824 1.383 1_545 S
C830 C829 1.379 . S
H831 C825 0.959 . S
H832 C825 0.961 1_545 S
H833 C825 0.960 . S
H834 C826 0.930 . S
H835 C827 0.929 . S
H836 C844 0.929 . S
H837 C846 0.930 . S
H838 C848 0.930 . S
H839 C851 0.929 . S
H840 C854 0.930 . S
H841 C856 0.960 . S
H842 C856 0.960 . S
H843 C856 0.960 . S
C844 H836 0.929 . S
C844 C845 1.377 . S
C844 C846 1.384 . S
C845 C844 1.377 . S
C845 C851 1.390 . S
C846 H837 0.930 . S
C846 C844 1.384 . S
C846 C847 1.372 . S
C847 C846 1.372 . S
C847 C848 1.400 . S
C847 C852 1.490 . S
C848 H838 0.930 . S
C848 C847 1.400 . S
C848 C851 1.386 . S
H849 C865 0.930 . S
H850 C866 0.931 . S
C851 H839 0.929 . S
C851 C845 1.390 . S
C851 C848 1.386 . S
C852 C847 1.490 . S
C852 C854 1.395 . S
C852 C855 1.403 . S
H853 C859 0.930 . S
C854 H840 0.930 . S
C854 C852 1.395 . S
C854 C857 1.403 . S
C855 C852 1.403 . S
C855 C856 1.524 . S
C855 C859 1.400 . S
C856 H841 0.960 . S
C856 H842 0.960 . S
C856 H843 0.960 . S
C856 C855 1.524 . S
C857 C854 1.403 . S
C857 C858 1.392 . S
C857 C861 1.495 . S
C858 C857 1.392 . S
C858 C859 1.385 . S
C858 C860 1.478 . S
C859 H853 0.930 . S
C859 C855 1.400 . S
C859 C858 1.385 . S
C860 C858 1.478 . S
C860 C862 1.381 . S
C860 C866 1.383 . S
C861 C857 1.495 . S
C861 H867 0.959 . S
C861 H868 0.961 . S
C861 H869 0.960 . S
C862 C860 1.381 . S
C862 C863 1.394 . S
C862 H870 0.930 . S
C863 C862 1.394 . S
C863 C864 1.383 . S
C863 H871 0.929 . S
C864 C863 1.383 . S
C864 C865 1.377 . S
C865 H849 0.930 . S
C865 C864 1.377 . S
C865 C866 1.379 . S
C866 H850 0.931 . S
C866 C860 1.383 . S
C866 C865 1.379 . S
H867 C861 0.959 . S
H868 C861 0.961 . S
H869 C861 0.960 . S
H870 C862 0.930 . S
H871 C863 0.929 . S
H872 C880 0.929 . S
H873 C882 0.930 . S
H874 C884 0.930 . S
H875 C887 0.929 . S
H876 C890 0.930 . S
H877 C892 0.960 . S
H878 C892 0.960 . S
H879 C892 0.960 . S
C880 H872 0.929 . S
C880 C881 1.377 . S
C880 C882 1.384 . S
C881 C880 1.377 . S
C881 C887 1.390 . S
C882 H873 0.930 . S
C882 C880 1.384 . S
C882 C883 1.372 . S
C883 C882 1.372 . S
C883 C884 1.400 . S
C883 C888 1.490 . S
C884 H874 0.930 . S
C884 C883 1.400 . S
C884 C887 1.386 . S
H885 C901 0.930 . S
H886 C902 0.931 . S
C887 H875 0.929 . S
C887 C881 1.390 . S
C887 C884 1.386 . S
C888 C883 1.490 . S
C888 C890 1.395 . S
C888 C891 1.403 . S
H889 C895 0.930 . S
C890 H876 0.930 . S
C890 C888 1.395 . S
C890 C893 1.403 . S
C891 C888 1.403 . S
C891 C892 1.524 . S
C891 C895 1.400 . S
C892 H877 0.960 . S
C892 H878 0.960 . S
C892 H879 0.960 . S
C892 C891 1.524 . S
C893 C890 1.403 . S
C893 C894 1.392 . S
C893 C897 1.495 . S
C894 C893 1.392 . S
C894 C895 1.385 . S
C894 C896 1.478 . S
C895 H889 0.930 . S
C895 C891 1.400 . S
C895 C894 1.385 . S
C896 C894 1.478 . S
C896 C898 1.381 . S
C896 C902 1.383 . S
C897 C893 1.495 . S
C897 H903 0.959 . S
C897 H904 0.961 . S
C897 H905 0.960 . S
C898 C896 1.381 . S
C898 C899 1.394 . S
C898 H906 0.930 . S
C899 C898 1.394 . S
C899 C900 1.383 . S
C899 H907 0.929 . S
C900 C899 1.383 . S
C900 C901 1.377 . S
C901 H885 0.930 . S
C901 C900 1.377 . S
C901 C902 1.379 . S
C902 H886 0.931 . S
C902 C896 1.383 . S
C902 C901 1.379 . S
H903 C897 0.959 . S
H904 C897 0.961 . S
H905 C897 0.960 . S
H906 C898 0.930 . S
H907 C899 0.929 . S
H908 C916 0.929 . S
H909 C918 0.930 . S
H910 C920 0.930 . S
H911 C923 0.929 . S
H912 C926 0.930 . S
H913 C928 0.960 . S
H914 C928 0.960 . S
H915 C928 0.960 . S
C916 H908 0.929 . S
C916 C917 1.377 . S
C916 C918 1.384 . S
C917 C916 1.377 . S
C917 C923 1.390 . S
C918 H909 0.930 . S
C918 C916 1.384 . S
C918 C919 1.372 . S
C919 C918 1.372 . S
C919 C920 1.400 . S
C919 C924 1.490 . S
C920 H910 0.930 . S
C920 C919 1.400 . S
C920 C923 1.386 . S
H921 C937 0.930 . S
H922 C938 0.931 . S
C923 H911 0.929 . S
C923 C917 1.390 . S
C923 C920 1.386 . S
C924 C919 1.490 . S
C924 C926 1.395 . S
C924 C927 1.403 . S
H925 C931 0.930 . S
C926 H912 0.930 . S
C926 C924 1.395 . S
C926 C929 1.403 . S
C927 C924 1.403 . S
C927 C928 1.524 . S
C927 C931 1.400 . S
C928 H913 0.960 . S
C928 H914 0.960 . S
C928 H915 0.960 . S
C928 C927 1.524 . S
C929 C926 1.403 . S
C929 C930 1.392 . S
C929 C933 1.495 . S
C930 C929 1.392 . S
C930 C931 1.385 . S
C930 C932 1.478 . S
C931 H925 0.930 . S
C931 C927 1.400 . S
C931 C930 1.385 . S
C932 C930 1.478 . S
C932 C934 1.381 . S
C932 C938 1.383 . S
C933 C929 1.495 . S
C933 H939 0.959 . S
C933 H940 0.961 . S
C933 H941 0.960 . S
C934 C932 1.381 . S
C934 C935 1.394 . S
C934 H942 0.930 . S
C935 C934 1.394 . S
C935 C936 1.383 . S
C935 H943 0.929 . S
C936 C935 1.383 . S
C936 C937 1.377 . S
C937 H921 0.930 . S
C937 C936 1.377 . S
C937 C938 1.379 . S
C938 H922 0.931 . S
C938 C932 1.383 . S
C938 C937 1.379 . S
H939 C933 0.959 . S
H940 C933 0.961 . S
H941 C933 0.960 . S
H942 C934 0.930 . S
H943 C935 0.929 . S
H944 C952 0.929 . S
H945 C954 0.930 . S
H946 C956 0.930 . S
H947 C959 0.929 . S
H948 C962 0.930 . S
H949 C964 0.960 1_455 S
H950 C964 0.960 . S
H951 C964 0.960 . S
C952 H944 0.929 . S
C952 C953 1.377 . S
C952 C954 1.384 . S
C953 C952 1.377 . S
C953 C959 1.390 . S
C954 H945 0.930 . S
C954 C952 1.384 . S
C954 C955 1.372 . S
C955 C954 1.372 . S
C955 C956 1.400 . S
C955 C960 1.490 . S
C956 H946 0.930 . S
C956 C955 1.400 . S
C956 C959 1.386 . S
H957 C973 0.930 . S
H958 C974 0.931 . S
C959 H947 0.929 . S
C959 C953 1.390 . S
C959 C956 1.386 . S
C960 C955 1.490 . S
C960 C962 1.395 . S
C960 C963 1.403 . S
H961 C967 0.930 . S
C962 H948 0.930 . S
C962 C960 1.395 . S
C962 C965 1.403 . S
C963 C960 1.403 . S
C963 C964 1.524 . S
C963 C967 1.400 . S
C964 H949 0.960 1_655 S
C964 H950 0.960 . S
C964 H951 0.960 . S
C964 C963 1.524 . S
C965 C962 1.403 . S
C965 C966 1.392 . S
C965 C969 1.495 . S
C966 C965 1.392 . S
C966 C967 1.385 . S
C966 C968 1.478 . S
C967 H961 0.930 . S
C967 C963 1.400 . S
C967 C966 1.385 . S
C968 C966 1.478 . S
C968 C970 1.381 . S
C968 C974 1.383 . S
C969 C965 1.495 . S
C969 H975 0.959 . S
C969 H976 0.961 . S
C969 H977 0.960 . S
C970 C968 1.381 . S
C970 C971 1.394 . S
C970 H978 0.930 . S
C971 C970 1.394 . S
C971 C972 1.383 . S
C971 H979 0.929 1_556 S
C972 C971 1.383 . S
C972 C973 1.377 . S
C973 H957 0.930 . S
C973 C972 1.377 . S
C973 C974 1.379 . S
C974 H958 0.931 . S
C974 C968 1.383 . S
C974 C973 1.379 . S
H975 C969 0.959 . S
H976 C969 0.961 . S
H977 C969 0.960 . S
H978 C970 0.930 . S
H979 C971 0.929 1_554 S
H980 C988 0.929 . S
H981 C990 0.930 . S
H982 C992 0.930 . S
H983 C995 0.929 . S
H984 C998 0.930 . S
H985 C1000 0.960 . S
H986 C1000 0.960 . S
H987 C1000 0.960 . S
C988 H980 0.929 . S
C988 C989 1.377 . S
C988 C990 1.384 . S
C989 C988 1.377 . S
C989 C995 1.390 . S
C990 H981 0.930 . S
C990 C988 1.384 . S
C990 C991 1.372 . S
C991 C990 1.372 . S
C991 C992 1.400 . S
C991 C996 1.490 . S
C992 H982 0.930 . S
C992 C991 1.400 . S
C992 C995 1.386 . S
H993 C1009 0.930 . S
H994 C1010 0.931 . S
C995 H983 0.929 . S
C995 C989 1.390 . S
C995 C992 1.386 . S
C996 C991 1.490 . S
C996 C998 1.395 . S
C996 C999 1.403 . S
H997 C1003 0.930 . S
C998 H984 0.930 . S
C998 C996 1.395 . S
C998 C1001 1.403 . S
C999 C996 1.403 . S
C999 C1000 1.524 . S
C999 C1003 1.400 . S
C1000 H985 0.960 . S
C1000 H986 0.960 . S
C1000 H987 0.960 . S
C1000 C999 1.524 . S
C1001 C998 1.403 . S
C1001 C1002 1.392 . S
C1001 C1005 1.495 . S
C1002 C1001 1.392 . S
C1002 C1003 1.385 . S
C1002 C1004 1.478 . S
C1003 H997 0.930 . S
C1003 C999 1.400 . S
C1003 C1002 1.385 . S
C1004 C1002 1.478 . S
C1004 C1006 1.381 . S
C1004 C1010 1.383 . S
C1005 C1001 1.495 . S
C1005 H1011 0.959 . S
C1005 H1012 0.961 . S
C1005 H1013 0.960 . S
C1006 C1004 1.381 . S
C1006 C1007 1.394 . S
C1006 H1014 0.930 . S
C1007 C1006 1.394 . S
C1007 C1008 1.383 . S
C1007 H1015 0.929 . S
C1008 C1007 1.383 . S
C1008 C1009 1.377 . S
C1009 H993 0.930 . S
C1009 C1008 1.377 . S
C1009 C1010 1.379 . S
C1010 H994 0.931 . S
C1010 C1004 1.383 . S
C1010 C1009 1.379 . S
H1011 C1005 0.959 . S
H1012 C1005 0.961 . S
H1013 C1005 0.960 . S
H1014 C1006 0.930 . S
H1015 C1007 0.929 . S
H1016 C1024 0.929 . S
H1017 C1026 0.930 . S
H1018 C1028 0.930 . S
H1019 C1031 0.929 . S
H1020 C1034 0.930 . S
H1021 C1036 0.960 . S
H1022 C1036 0.960 . S
H1023 C1036 0.960 . S
C1024 H1016 0.929 . S
C1024 C1025 1.377 . S
C1024 C1026 1.384 . S
C1025 C1024 1.377 . S
C1025 C1031 1.390 . S
C1026 H1017 0.930 . S
C1026 C1024 1.384 . S
C1026 C1027 1.372 . S
C1027 C1026 1.372 . S
C1027 C1028 1.400 . S
C1027 C1032 1.490 . S
C1028 H1018 0.930 . S
C1028 C1027 1.400 . S
C1028 C1031 1.386 . S
H1029 C1045 0.930 . S
H1030 C1046 0.931 . S
C1031 H1019 0.929 . S
C1031 C1025 1.390 . S
C1031 C1028 1.386 . S
C1032 C1027 1.490 . S
C1032 C1034 1.395 . S
C1032 C1035 1.403 . S
H1033 C1039 0.930 . S
C1034 H1020 0.930 . S
C1034 C1032 1.395 . S
C1034 C1037 1.403 . S
C1035 C1032 1.403 . S
C1035 C1036 1.524 . S
C1035 C1039 1.400 . S
C1036 H1021 0.960 . S
C1036 H1022 0.960 . S
C1036 H1023 0.960 . S
C1036 C1035 1.524 . S
C1037 C1034 1.403 . S
C1037 C1038 1.392 . S
C1037 C1041 1.495 . S
C1038 C1037 1.392 . S
C1038 C1039 1.385 . S
C1038 C1040 1.478 . S
C1039 H1033 0.930 . S
C1039 C1035 1.400 . S
C1039 C1038 1.385 . S
C1040 C1038 1.478 . S
C1040 C1042 1.381 . S
C1040 C1046 1.383 . S
C1041 C1037 1.495 . S
C1041 H1047 0.959 . S
C1041 H1048 0.961 . S
C1041 H1049 0.960 . S
C1042 C1040 1.381 . S
C1042 C1043 1.394 . S
C1042 H1050 0.930 . S
C1043 C1042 1.394 . S
C1043 C1044 1.383 . S
C1043 H1051 0.929 . S
C1044 C1043 1.383 . S
C1044 C1045 1.377 . S
C1045 H1029 0.930 . S
C1045 C1044 1.377 . S
C1045 C1046 1.379 . S
C1046 H1030 0.931 . S
C1046 C1040 1.383 . S
C1046 C1045 1.379 . S
H1047 C1041 0.959 . S
H1048 C1041 0.961 . S
H1049 C1041 0.960 . S
H1050 C1042 0.930 . S
H1051 C1043 0.929 . S
H1052 C1060 0.929 . S
H1053 C1062 0.930 . S
H1054 C1064 0.930 . S
H1055 C1067 0.929 . S
H1056 C1070 0.930 . S
H1057 C1072 0.960 . S
H1058 C1072 0.960 . S
H1059 C1072 0.960 . S
C1060 H1052 0.929 . S
C1060 C1061 1.377 . S
C1060 C1062 1.384 . S
C1061 C1060 1.377 . S
C1061 C1067 1.390 . S
C1062 H1053 0.930 . S
C1062 C1060 1.384 . S
C1062 C1063 1.372 . S
C1063 C1062 1.372 . S
C1063 C1064 1.400 . S
C1063 C1068 1.490 . S
C1064 H1054 0.930 . S
C1064 C1063 1.400 . S
C1064 C1067 1.386 . S
H1065 C1081 0.930 . S
H1066 C1082 0.931 . S
C1067 H1055 0.929 . S
C1067 C1061 1.390 . S
C1067 C1064 1.386 . S
C1068 C1063 1.490 . S
C1068 C1070 1.395 . S
C1068 C1071 1.403 . S
H1069 C1075 0.930 . S
C1070 H1056 0.930 . S
C1070 C1068 1.395 . S
C1070 C1073 1.403 . S
C1071 C1068 1.403 . S
C1071 C1072 1.524 . S
C1071 C1075 1.400 . S
C1072 H1057 0.960 . S
C1072 H1058 0.960 . S
C1072 H1059 0.960 . S
C1072 C1071 1.524 . S
C1073 C1070 1.403 . S
C1073 C1074 1.392 . S
C1073 C1077 1.495 . S
C1074 C1073 1.392 . S
C1074 C1075 1.385 . S
C1074 C1076 1.478 . S
C1075 H1069 0.930 . S
C1075 C1071 1.400 . S
C1075 C1074 1.385 . S
C1076 C1074 1.478 . S
C1076 C1078 1.381 . S
C1076 C1082 1.383 . S
C1077 C1073 1.495 . S
C1077 H1083 0.959 . S
C1077 H1084 0.961 . S
C1077 H1085 0.960 . S
C1078 C1076 1.381 . S
C1078 C1079 1.394 . S
C1078 H1086 0.930 . S
C1079 C1078 1.394 . S
C1079 C1080 1.383 . S
C1079 H1087 0.929 . S
C1080 C1079 1.383 . S
C1080 C1081 1.377 . S
C1081 H1065 0.930 . S
C1081 C1080 1.377 . S
C1081 C1082 1.379 . S
C1082 H1066 0.931 . S
C1082 C1076 1.383 . S
C1082 C1081 1.379 . S
H1083 C1077 0.959 . S
H1084 C1077 0.961 . S
H1085 C1077 0.960 . S
H1086 C1078 0.930 . S
H1087 C1079 0.929 . S
C233 N1 2.053 . S
C252 C120 2.110 . S
C269 N18 1.454 . S
C288 N140 1.400 . S
C324 C174 1.383 . S
C305 N28 1.380 . S
C341 N40 1.404 . S
C360 N208 1.364 . S
C396 C161 2.749 . S
C377 N5 2.715 . S
C432 N118 1.175 . S
C413 N14 1.217 . S
C468 C195 1.877 . S
C449 N31 1.845 . S
C504 N170 0.540 . S
C485 N41 0.580 . S
C521 N2 1.697 . S
C540 C210 1.706 . S
C576 C144 1.740 1_556 S
C557 N27 1.711 . S
C593 N44 1.554 . S
C612 C105 1.593 . S
C629 N15 1.190 . S
C648 C191 1.193 . S
C684 C131 2.524 . S
C665 N57 2.508 . S
C701 N70 0.911 . S
C720 N148 0.923 . S
C737 N79 1.729 . S
C756 C165 1.773 . S
C773 N93 1.052 . S
C792 N200 1.066 . S
C809 N54 2.261 . S
C828 C150 2.263 1_565 S
C864 N110 1.615 . S
C845 N66 1.670 . S
C900 C204 1.284 . S
C881 N80 1.278 . S
C936 N178 0.905 . S
C917 N96 0.936 . S
C953 N53 1.752 . S
C972 C221 1.775 . S
C1008 C135 1.591 . S
C989 N83 1.555 . S
C1044 C114 1.596 . S
C1025 N92 1.586 . S
C1061 N67 1.209 . S
C1080 C180 1.225 . S
