# Generated by pormake.
# Topology anh, (6,3)-cn, num edge types: 1
# Building blocks:
#     Node 0, Type 0, BuildingBlock: CUKXOW_clean_sbu_0, # of connection points: 6
#     Node 1, Type 0, BuildingBlock: CUKXOW_clean_sbu_0, # of connection points: 6
#     Node 2, Type 0, BuildingBlock: CUKXOW_clean_sbu_0, # of connection points: 6
#     Node 3, Type 1, BuildingBlock: BETDIP_clean_linker_0, # of connection points: 3
#     Node 4, Type 1, BuildingBlock: BETDIP_clean_linker_0, # of connection points: 3
#     Node 5, Type 1, BuildingBlock: BETDIP_clean_linker_0, # of connection points: 3
#     Node 6, Type 1, BuildingBlock: BETDIP_clean_linker_0, # of connection points: 3
#     Node 7, Type 1, BuildingBlock: BETDIP_clean_linker_0, # of connection points: 3
#     Node 8, Type 1, BuildingBlock: BETDIP_clean_linker_0, # of connection points: 3
#     Edge 9, Type (0, 1), BuildingBlock: AJUNOK_clean_linker_0, # of connection points: 2
#     Edge 10, Type (0, 1), BuildingBlock: AJUNOK_clean_linker_0, # of connection points: 2
#     Edge 11, Type (0, 1), BuildingBlock: AJUNOK_clean_linker_0, # of connection points: 2
#     Edge 12, Type (0, 1), BuildingBlock: AJUNOK_clean_linker_0, # of connection points: 2
#     Edge 13, Type (0, 1), BuildingBlock: AJUNOK_clean_linker_0, # of connection points: 2
#     Edge 14, Type (0, 1), BuildingBlock: AJUNOK_clean_linker_0, # of connection points: 2
#     Edge 15, Type (0, 1), BuildingBlock: AJUNOK_clean_linker_0, # of connection points: 2
#     Edge 16, Type (0, 1), BuildingBlock: AJUNOK_clean_linker_0, # of connection points: 2
#     Edge 17, Type (0, 1), BuildingBlock: AJUNOK_clean_linker_0, # of connection points: 2
#     Edge 18, Type (0, 1), BuildingBlock: AJUNOK_clean_linker_0, # of connection points: 2
#     Edge 19, Type (0, 1), BuildingBlock: AJUNOK_clean_linker_0, # of connection points: 2
#     Edge 20, Type (0, 1), BuildingBlock: AJUNOK_clean_linker_0, # of connection points: 2
#     Edge 21, Type (0, 1), BuildingBlock: AJUNOK_clean_linker_0, # of connection points: 2
#     Edge 22, Type (0, 1), BuildingBlock: AJUNOK_clean_linker_0, # of connection points: 2
#     Edge 23, Type (0, 1), BuildingBlock: AJUNOK_clean_linker_0, # of connection points: 2
#     Edge 24, Type (0, 1), BuildingBlock: AJUNOK_clean_linker_0, # of connection points: 2
#     Edge 25, Type (0, 1), BuildingBlock: AJUNOK_clean_linker_0, # of connection points: 2
#     Edge 26, Type (0, 1), BuildingBlock: AJUNOK_clean_linker_0, # of connection points: 2
# Relax obj value: 0.088
# Max RMSD: 0.175
# Mean RMSD: 0.107
data_MOF--net-anh--node1-CUKXOW_clean_sbu_0--node2-BETDIP_clean_linker_0--edge1-AJUNOK_clean_linker_0
_symmetry_space_group_name_H-M    P1
_symmetry_Int_Tables_number       1
_symmetry_cell_setting            triclinic
loop_
_symmetry_equiv_pos_as_xyz
'x, y, z'
_cell_length_a     20.890541
_cell_length_b     20.397695
_cell_length_c     35.608608
_cell_angle_alpha  98.733289
_cell_angle_beta   90.734216
_cell_angle_gamma 110.14869
loop_
_atom_site_label
_atom_site_type_symbol
_atom_site_fract_x
_atom_site_fract_y
_atom_site_fract_z
_atom_type_partial_charge
Tb0 Tb 0.13855 0.59963 0.14313 0.0
C1 C 0.09698 0.54801 0.22146 0.0
Tb2 Tb 0.0601 0.43373 0.145 0.0
O3 O 1.04564 0.62947 0.1421 0.0
O4 O 1.03907 0.52732 0.1433 0.0
O5 O 0.13412 0.59956 0.20381 0.0
C6 C 0.95298 0.31807 0.15026 0.0
O7 O 0.0604 0.48318 0.20388 0.0
C8 C 0.19565 0.46805 0.14489 0.0
C9 C 0.10196 0.48603 0.06658 0.0
O10 O 1.004 0.34924 0.17555 0.0
O11 O 0.96431 0.35061 0.12105 0.0
O12 O 0.15329 0.4039 0.14564 0.0
O13 O 0.15884 0.50579 0.14481 0.0
O14 O 0.06117 0.4357 0.08412 0.0
O15 O 0.14043 0.55041 0.08447 0.0
C16 C 0.24781 0.7173 0.15379 0.0
O17 O 0.19796 0.70319 0.12794 0.0
O18 O 0.23512 0.66595 0.17319 0.0
C19 C 1.00273 0.56552 0.14256 0.0
Tb20 Tb 0.52131 0.02434 0.49965 0.0
C21 C 0.58099 0.05734 0.42299 0.0
Tb22 Tb 0.6727 0.10705 0.49954 0.0
O23 O 0.49382 0.11371 0.48685 0.0
O24 O 0.58578 0.13134 0.51654 0.0
O25 O 0.53731 1.00782 0.43939 0.0
C26 C 0.79079 0.20798 0.4912 0.0
O27 O 0.6319 0.10994 0.44302 0.0
C28 C 0.64166 0.97012 0.4978 0.0
C29 C 0.61269 0.07896 0.57836 0.0
O30 O 0.76523 0.14675 0.46942 0.0
O31 O 0.75067 0.21134 0.51826 0.0
O32 O 0.69981 0.01735 0.51212 0.0
O33 O 0.60807 1.0003 0.48188 0.0
O34 O 0.66547 0.1153 0.56065 0.0
O35 O 0.55325 0.03777 0.55998 0.0
C36 C 0.40021 0.92329 0.50245 0.0
O37 O 0.41038 0.98087 0.48847 0.0
O38 O 0.45844 0.92322 0.51549 0.0
C39 C 0.55221 0.16108 0.50028 0.0
Tb40 Tb 0.51333 0.58083 0.81928 0.0
C41 C 0.57078 0.60424 0.90332 0.0
Tb42 Tb 0.67125 0.63141 0.83616 0.0
O43 O 0.50381 0.48083 0.83751 0.0
O44 O 0.59145 0.53586 0.81279 0.0
O45 O 0.51815 0.60234 0.88117 0.0
C46 C 0.78937 0.61723 0.85177 0.0
O47 O 0.63178 0.60992 0.89096 0.0
C48 C 0.62947 0.74054 0.84232 0.0
C49 C 0.61181 0.61114 0.75227 0.0
O50 O 0.73367 0.59146 0.86856 0.0
O51 O 0.7791 0.65247 0.82619 0.0
O52 O 0.69324 0.7469 0.8478 0.0
O53 O 0.59559 0.67557 0.83466 0.0
O54 O 0.6628 0.60985 0.77438 0.0
O55 O 0.55282 0.61156 0.76561 0.0
C56 C 0.38492 0.54333 0.79147 0.0
O57 O 0.42711 0.51113 0.78131 0.0
O58 O 0.41543 0.59851 0.81746 0.0
C59 C 0.56446 0.483 0.82894 0.0
H60 H 0.52755 1.00082 0.14775 0.0
H61 H 0.64199 0.11845 0.25281 0.0
H62 H 0.45264 0.94736 0.25495 0.0
H63 H 0.65785 0.21008 0.21459 0.0
C64 C 0.67706 0.18239 0.19148 0.0
C65 C 0.53241 0.01128 0.17861 0.0
C66 C 0.48407 0.96743 0.19934 0.0
C67 C 0.58809 0.06782 0.19784 0.0
C68 C 0.59667 0.07807 0.23793 0.0
C69 C 0.54884 0.03371 0.25874 0.0
C70 C 0.49118 0.98075 0.23919 0.0
N71 N 0.63765 0.11091 0.17654 0.0
H72 H 0.60346 0.49641 0.478 0.0
H73 H 0.6124 0.65499 0.57465 0.0
H74 H 0.60481 0.44878 0.59183 0.0
H75 H 0.51084 0.64078 0.50588 0.0
C76 C 0.56383 0.66806 0.50072 0.0
C77 C 0.60455 0.51199 0.50854 0.0
C78 C 0.60311 0.46337 0.53312 0.0
C79 C 0.60667 0.58082 0.52354 0.0
C80 C 0.60912 0.60151 0.5631 0.0
C81 C 0.61089 0.55474 0.58774 0.0
C82 C 0.60665 0.48576 0.5726 0.0
N83 N 0.61041 0.63089 0.4992 0.0
H84 H 0.9926 0.46067 0.80533 0.0
H85 H 0.11064 0.38274 0.87516 0.0
H86 H 1.02167 0.53317 0.92598 0.0
H87 H 0.06033 0.43943 0.75889 0.0
C88 C 0.09347 0.41563 0.7707 0.0
C89 C 1.0159 0.46171 0.83283 0.0
C90 C 1.00308 0.50239 0.86518 0.0
C91 C 0.05591 0.41964 0.83617 0.0
C92 C 0.08081 0.41616 0.87236 0.0
C93 C 0.06928 0.45816 0.90468 0.0
C94 C 1.03146 0.50173 0.90079 0.0
N95 N 0.07419 0.38326 0.80334 0.0
H96 H 0.12451 0.63362 0.49793 0.0
H97 H 1.02894 0.50821 0.39024 0.0
H98 H 0.20058 0.6996 0.39291 0.0
H99 H 0.93689 0.48281 0.42393 0.0
C100 C 0.95779 0.47143 0.44924 0.0
C101 C 0.12156 0.62501 0.46707 0.0
C102 C 0.16792 0.67399 0.4477 0.0
C103 C 0.07006 0.56589 0.44657 0.0
C104 C 0.06697 0.55479 0.40649 0.0
C105 C 0.11288 0.60324 0.38687 0.0
C106 C 0.16346 0.66267 0.40772 0.0
N107 N 1.0226 0.51729 0.46646 0.0
H108 H 0.59738 0.18018 0.85183 0.0
H109 H 0.59581 0.027 0.75396 0.0
H110 H 0.62487 0.2405 0.7407 0.0
H111 H 0.50301 0.95889 0.79405 0.0
C112 C 0.5438 0.97239 0.81627 0.0
C113 C 0.60217 0.16726 0.82158 0.0
C114 C 0.61386 0.21973 0.79835 0.0
C115 C 0.59417 0.09736 0.80562 0.0
C116 C 0.6002 0.0804 0.76638 0.0
C117 C 0.61355 0.13255 0.74317 0.0
C118 C 0.61926 0.20157 0.75921 0.0
N119 N 0.58227 0.04505 0.82944 0.0
H120 H 0.53644 0.51347 0.16271 0.0
H121 H 0.65086 0.5357 0.06237 0.0
H122 H 0.44369 0.52844 0.05703 0.0
H123 H 0.68257 0.44264 0.095 0.0
C124 C 0.7044 0.48663 0.11826 0.0
C125 C 0.53921 0.5182 0.13284 0.0
C126 C 0.48173 0.52096 0.11206 0.0
C127 C 0.60053 0.52186 0.11469 0.0
C128 C 0.60377 0.53017 0.07616 0.0
C129 C 0.54754 0.53337 0.05551 0.0
C130 C 0.48704 0.52686 0.07338 0.0
N131 N 0.66008 0.52147 0.13526 0.0
C132 C 0.30691 0.44604 0.15253 0.0
C133 C 0.2715 0.48876 0.14152 0.0
C134 C 0.37682 0.45991 0.14615 0.0
C135 C 0.41448 0.51729 0.1285 0.0
H136 H 0.27973 0.39994 0.16509 0.0
H137 H 0.40029 0.42305 0.15303 0.0
S138 S 0.34663 0.6455 0.09423 0.0
N139 N 0.2803 0.59001 0.11136 0.0
N140 N 0.41141 0.61971 0.10234 0.0
C141 C 0.38043 0.56257 0.11937 0.0
C142 C 0.30919 0.54735 0.12497 0.0
C143 C 0.87574 0.33012 0.50884 0.0
C144 C 0.8435 0.27046 0.4808 0.0
C145 C 0.91629 0.3948 0.49873 0.0
C146 C 0.92364 0.40187 0.46028 0.0
H147 H 0.86768 0.32742 0.53865 0.0
H148 H 0.93882 0.44027 0.52093 0.0
S149 S 0.85336 0.26112 0.37629 0.0
N150 N 0.82573 0.22165 0.41318 0.0
N151 N 0.89936 0.34398 0.39428 0.0
C152 C 0.89376 0.34222 0.43215 0.0
C153 C 0.85433 0.27609 0.44239 0.0
C154 C 0.54207 0.78721 0.82029 0.0
C155 C 0.60456 0.79948 0.8403 0.0
C156 C 0.52207 0.84384 0.81393 0.0
C157 C 0.5634 0.91453 0.82774 0.0
H158 H 0.50977 0.73381 0.80808 0.0
H159 H 0.47469 0.83224 0.79713 0.0
S160 S 0.72896 0.97388 0.88517 0.0
N161 N 0.7056 0.88676 0.87611 0.0
N162 N 0.66774 0.99305 0.86474 0.0
C163 C 0.62449 0.92718 0.84945 0.0
C164 C 0.64512 0.86958 0.85555 0.0
C165 C 0.88363 0.47565 0.12395 0.0
C166 C 0.92608 0.54416 0.14079 0.0
C167 C 0.81215 0.45757 0.11827 0.0
C168 C 0.77933 0.50674 0.12967 0.0
H169 H 0.90597 0.43662 0.11332 0.0
H170 H 0.78235 0.40473 0.10388 0.0
S171 S 0.86661 0.69257 0.17706 0.0
N172 N 0.92931 0.66106 0.17006 0.0
N173 N 0.79557 0.62673 0.16005 0.0
C174 C 0.82084 0.57474 0.14784 0.0
C175 C 0.89386 0.59349 0.15312 0.0
C176 C 0.28086 0.86554 0.47451 0.0
C177 C 0.33608 0.86162 0.49588 0.0
C178 C 0.22458 0.80475 0.46086 0.0
C179 C 0.22126 0.7381 0.46843 0.0
H180 H 0.28264 0.91526 0.46649 0.0
H181 H 0.18463 0.8094 0.44288 0.0
S182 S 0.34916 0.70024 0.52613 0.0
N183 N 0.38148 0.78659 0.52662 0.0
N184 N 0.27516 0.672 0.50077 0.0
C185 C 0.27383 0.73396 0.49183 0.0
C186 C 0.33146 0.79595 0.50566 0.0
C187 C 0.54436 0.36068 0.84083 0.0
C188 C 0.58656 0.42116 0.82714 0.0
C189 C 0.55666 0.29677 0.83393 0.0
C190 C 0.61192 0.29109 0.81327 0.0
H191 H 0.49928 0.36154 0.85532 0.0
H192 H 0.52004 0.25045 0.84271 0.0
S193 S 0.74498 0.43744 0.77752 0.0
N194 N 0.69059 0.47375 0.7961 0.0
N195 N 0.71501 0.35408 0.7841 0.0
C196 C 0.65795 0.35284 0.80236 0.0
C197 C 0.64501 0.41782 0.80908 0.0
C198 C 0.66521 0.86555 0.51512 0.0
C199 C 0.62268 0.89232 0.49593 0.0
C200 C 0.6475 0.79249 0.51518 0.0
C201 C 0.58597 0.74373 0.49664 0.0
H202 H 0.71216 0.90138 0.53071 0.0
H203 H 0.68091 0.77438 0.53104 0.0
S204 S 0.46044 0.78463 0.43869 0.0
N205 N 0.51965 0.86253 0.45449 0.0
N206 N 0.48463 0.72614 0.45668 0.0
C207 C 0.54379 0.76933 0.47668 0.0
C208 C 0.56262 0.84339 0.47572 0.0
C209 C 0.85026 0.55658 0.88517 0.0
C210 C 0.84962 0.59746 0.85693 0.0
C211 C 0.90119 0.52773 0.88801 0.0
C212 C 0.9537 0.539 0.86285 0.0
H213 H 0.80976 0.5446 0.90453 0.0
H214 H 0.89794 0.49418 0.9093 0.0
S215 S 0.97808 0.64682 0.78569 0.0
N216 N 0.90732 0.65098 0.80439 0.0
N217 N 1.00471 0.59746 0.81027 0.0
C218 C 0.95525 0.58199 0.8353 0.0
C219 C 0.90291 0.61135 0.8323 0.0
C220 C 0.31481 0.84408 0.14943 0.0
C221 C 0.31153 0.77927 0.1599 0.0
C222 C 0.37315 0.90522 0.15998 0.0
C223 C 0.42965 0.90235 0.18066 0.0
H224 H 0.27096 0.84835 0.13484 0.0
H225 H 0.37271 0.95542 0.15375 0.0
S226 S 0.4505 0.74335 0.20934 0.0
N227 N 0.37255 0.71472 0.18857 0.0
N228 N 0.48215 0.82867 0.20709 0.0
C229 C 0.4287 0.83682 0.1886 0.0
C230 C 0.3695 0.77541 0.17859 0.0
C231 C 0.62493 0.28505 0.52876 0.0
C232 C 0.56924 0.23887 0.50416 0.0
C233 C 0.63814 0.35823 0.53594 0.0
C234 C 0.5961 0.38836 0.51892 0.0
H235 H 0.65701 0.26435 0.54387 0.0
H236 H 0.68021 0.39129 0.55618 0.0
S237 S 0.44689 0.29111 0.44991 0.0
N238 N 0.47458 0.22901 0.46058 0.0
N239 N 0.49866 0.36645 0.47468 0.0
C240 C 0.54226 0.34322 0.49281 0.0
C241 C 0.52888 0.26853 0.48541 0.0
C242 C 0.26933 0.55397 0.78954 0.0
C243 C 0.31124 0.5137 0.78 0.0
C244 C 0.19801 0.52297 0.78343 0.0
C245 C 0.16695 0.45078 0.76817 0.0
H246 H 0.29154 0.60888 0.80303 0.0
H247 H 0.16686 0.55441 0.79282 0.0
S248 S 0.25325 0.32349 0.73646 0.0
N249 N 0.31612 0.39882 0.75206 0.0
N250 N 0.18204 0.34077 0.74215 0.0
C251 C 0.20802 0.4108 0.75716 0.0
C252 C 0.2804 0.44235 0.76261 0.0
C253 C 0.84086 0.21734 0.13943 0.0
C254 C 0.88367 0.28151 0.16088 0.0
C255 C 0.77355 0.18484 0.14922 0.0
C256 C 0.74698 0.2168 0.1801 0.0
H257 H 0.85962 0.19204 0.11527 0.0
H258 H 0.74225 0.13476 0.13244 0.0
S259 S 0.83752 0.38853 0.24254 0.0
N260 N 0.89432 0.37774 0.21274 0.0
N261 N 0.76791 0.3179 0.23057 0.0
C262 C 0.78909 0.282 0.20089 0.0
C263 C 0.85751 0.31413 0.19141 0.0
C264 C 0.14332 0.52501 0.00522 0.0
C265 C 0.10299 0.47125 0.02447 0.0
C266 C 0.13744 0.51738 0.9655 0.0
C267 C 0.09186 0.45544 0.94353 0.0
H268 H 0.1771 0.57511 0.02087 0.0
H269 H 0.1653 0.56206 0.95201 0.0
S270 S 0.98209 0.2949 0.97862 0.0
N271 N 1.02145 0.35025 0.01754 0.0
N272 N 1.01089 0.33691 0.94274 0.0
C273 C 0.05561 0.39905 0.96181 0.0
C274 C 0.06107 0.40669 0.00235 0.0
C275 C 0.58892 0.11179 0.36411 0.0
C276 C 0.5752 0.05111 0.38126 0.0
C277 C 0.58108 0.10608 0.3244 0.0
C278 C 0.56027 0.03958 0.30059 0.0
H279 H 0.60408 0.16379 0.38154 0.0
H280 H 0.58999 0.15387 0.31233 0.0
S281 S 0.52862 0.86586 0.33167 0.0
N282 N 0.54563 0.92343 0.37165 0.0
N283 N 0.53393 0.91269 0.29714 0.0
C284 C 0.54973 0.97891 0.31753 0.0
C285 C 0.55639 0.98468 0.35784 0.0
C286 C 0.56912 0.61637 0.68714 0.0
C287 C 0.61795 0.60501 0.71054 0.0
C288 C 0.56883 0.60293 0.64733 0.0
C289 C 0.61692 0.57701 0.62953 0.0
H290 H 0.52967 0.63416 0.69957 0.0
H291 H 0.52909 0.61017 0.63038 0.0
S292 S 0.75909 0.54399 0.67714 0.0
N293 N 0.71863 0.57057 0.71244 0.0
N294 N 0.71756 0.54543 0.6377 0.0
C295 C 0.66772 0.56828 0.65237 0.0
C296 C 0.66844 0.58235 0.69286 0.0
C297 C 0.56478 0.04681 0.63988 0.0
C298 C 0.61793 0.0891 0.62062 0.0
C299 C 0.56503 0.05933 0.67968 0.0
C300 C 0.61821 0.11484 0.70168 0.0
H301 H 0.52168 1.00453 0.62416 0.0
H302 H 0.52202 0.02701 0.69323 0.0
S303 S 0.77254 0.23709 0.66617 0.0
N304 N 0.72778 0.18619 0.62736 0.0
N305 N 0.72772 0.2091 0.70209 0.0
C306 C 0.67298 0.1557 0.68312 0.0
C307 C 0.67305 0.14292 0.64263 0.0
C308 C 0.61276 0.62554 0.97134 0.0
C309 C 0.56029 0.59005 0.94253 0.0
C310 C 0.60878 0.60608 0.00756 0.0
C311 C 0.55279 0.54941 0.01606 0.0
H312 H 0.65751 0.66847 0.96573 0.0
H313 H 0.64955 0.63612 0.02917 0.0
S314 S 0.40543 0.43481 0.94903 0.0
N315 N 0.45238 0.49367 0.9241 0.0
N316 N 0.44587 0.45504 -0.00832 0.0
C317 C 0.50057 0.51259 0.98714 0.0
C318 C 0.50404 0.53345 0.95053 0.0
C319 C 0.0934 0.50898 0.2846 0.0
C320 C 0.0983 0.563 0.26336 0.0
C321 C 0.09869 0.52266 0.32445 0.0
C322 C 0.10807 0.59065 0.34457 0.0
H323 H 0.08719 0.45607 0.27036 0.0
H324 H 0.09636 0.47977 0.3396 0.0
S325 S 0.11724 0.74863 0.30207 0.0
N326 N 0.1096 0.68616 0.26512 0.0
N327 N 0.1172 0.71136 0.34012 0.0
C328 C 0.11125 0.64472 0.32361 0.0
C329 C 0.10683 0.631 0.283 0.0
loop_
_geom_bond_atom_site_label_1
_geom_bond_atom_site_label_2
_geom_bond_distance
_geom_bond_site_symmetry_2
_ccdc_geom_bond_type
Tb0 O3 2.453 1_455 S
Tb0 O4 2.596 1_455 S
Tb0 O5 2.374 . S
Tb0 O13 2.343 . S
Tb0 O15 2.353 . S
Tb0 O17 2.427 . S
Tb0 O18 2.513 . S
C1 O5 1.251 . S
C1 O7 1.263 . S
Tb2 O4 2.343 1_455 S
Tb2 O7 2.353 . S
Tb2 O10 2.427 1_455 S
Tb2 O11 2.513 1_455 S
Tb2 O12 2.453 . S
Tb2 O13 2.596 . S
Tb2 O14 2.374 . S
O3 Tb0 2.453 1_655 S
O3 C19 1.245 . S
O4 Tb0 2.596 1_655 S
O4 Tb2 2.343 1_655 S
O4 C19 1.259 . S
O5 Tb0 2.374 . S
O5 C1 1.251 . S
C6 O10 1.275 . S
C6 O11 1.246 . S
O7 C1 1.263 . S
O7 Tb2 2.353 . S
C8 O12 1.245 . S
C8 O13 1.259 . S
C9 O14 1.250 . S
C9 O15 1.263 . S
O10 Tb2 2.427 1_655 S
O10 C6 1.275 . S
O11 Tb2 2.513 1_655 S
O11 C6 1.246 . S
O12 Tb2 2.453 . S
O12 C8 1.245 . S
O13 Tb0 2.343 . S
O13 Tb2 2.596 . S
O13 C8 1.259 . S
O14 Tb2 2.374 . S
O14 C9 1.250 . S
O15 Tb0 2.353 . S
O15 C9 1.263 . S
C16 O17 1.275 . S
C16 O18 1.246 . S
O17 Tb0 2.427 . S
O17 C16 1.275 . S
O18 Tb0 2.513 . S
O18 C16 1.246 . S
C19 O3 1.245 . S
C19 O4 1.259 . S
Tb20 O23 2.453 . S
Tb20 O24 2.596 . S
Tb20 O25 2.374 . S
Tb20 O33 2.343 1_545 S
Tb20 O35 2.353 . S
Tb20 O37 2.427 1_545 S
Tb20 O38 2.513 1_545 S
C21 O25 1.251 . S
C21 O27 1.263 . S
Tb22 O24 2.343 . S
Tb22 O27 2.353 . S
Tb22 O30 2.427 . S
Tb22 O31 2.513 . S
Tb22 O32 2.453 1_545 S
Tb22 O33 2.596 1_545 S
Tb22 O34 2.374 . S
O23 Tb20 2.453 . S
O23 C39 1.245 . S
O24 Tb20 2.596 . S
O24 Tb22 2.343 . S
O24 C39 1.259 . S
O25 Tb20 2.374 . S
O25 C21 1.251 . S
C26 O30 1.275 . S
C26 O31 1.246 . S
O27 C21 1.263 . S
O27 Tb22 2.353 . S
C28 O32 1.245 . S
C28 O33 1.259 . S
C29 O34 1.250 . S
C29 O35 1.263 . S
O30 Tb22 2.427 . S
O30 C26 1.275 . S
O31 Tb22 2.513 . S
O31 C26 1.246 . S
O32 Tb22 2.453 1_565 S
O32 C28 1.245 . S
O33 Tb20 2.343 1_565 S
O33 Tb22 2.596 1_565 S
O33 C28 1.259 . S
O34 Tb22 2.374 . S
O34 C29 1.250 . S
O35 Tb20 2.353 . S
O35 C29 1.263 . S
C36 O37 1.275 . S
C36 O38 1.246 . S
O37 Tb20 2.427 1_565 S
O37 C36 1.275 . S
O38 Tb20 2.513 1_565 S
O38 C36 1.246 . S
C39 O23 1.245 . S
C39 O24 1.259 . S
Tb40 O43 2.453 . S
Tb40 O44 2.596 . S
Tb40 O45 2.374 . S
Tb40 O53 2.343 . S
Tb40 O55 2.353 . S
Tb40 O57 2.427 . S
Tb40 O58 2.513 . S
C41 O45 1.251 . S
C41 O47 1.263 . S
Tb42 O44 2.343 . S
Tb42 O47 2.353 . S
Tb42 O50 2.427 . S
Tb42 O51 2.513 . S
Tb42 O52 2.453 . S
Tb42 O53 2.596 . S
Tb42 O54 2.374 . S
O43 Tb40 2.453 . S
O43 C59 1.245 . S
O44 Tb40 2.596 . S
O44 Tb42 2.343 . S
O44 C59 1.259 . S
O45 Tb40 2.374 . S
O45 C41 1.251 . S
C46 O50 1.275 . S
C46 O51 1.246 . S
O47 C41 1.263 . S
O47 Tb42 2.353 . S
C48 O52 1.245 . S
C48 O53 1.259 . S
C49 O54 1.250 . S
C49 O55 1.263 . S
O50 Tb42 2.427 . S
O50 C46 1.275 . S
O51 Tb42 2.513 . S
O51 C46 1.246 . S
O52 Tb42 2.453 . S
O52 C48 1.245 . S
O53 Tb40 2.343 . S
O53 Tb42 2.596 . S
O53 C48 1.259 . S
O54 Tb42 2.374 . S
O54 C49 1.250 . S
O55 Tb40 2.353 . S
O55 C49 1.263 . S
C56 O57 1.275 . S
C56 O58 1.246 . S
O57 Tb40 2.427 . S
O57 C56 1.275 . S
O58 Tb40 2.513 . S
O58 C56 1.246 . S
C59 O43 1.245 . S
C59 O44 1.259 . S
H60 C65 0.930 . S
H61 C68 0.930 . S
H62 C70 0.930 1_565 S
H63 C64 1.016 . S
C64 H63 1.016 . S
C64 N71 1.286 . S
C65 H60 0.930 . S
C65 C66 1.397 1_545 S
C65 C67 1.361 . S
C66 C65 1.397 1_565 S
C66 C70 1.390 1_565 S
C67 C65 1.361 . S
C67 C68 1.393 . S
C67 N71 1.413 . S
C68 H61 0.930 . S
C68 C67 1.393 . S
C68 C69 1.399 . S
C69 C68 1.399 . S
C69 C70 1.381 . S
C70 H62 0.930 1_545 S
C70 C66 1.390 1_545 S
C70 C69 1.381 . S
N71 C64 1.286 . S
N71 C67 1.413 . S
H72 C77 0.930 . S
H73 C80 0.930 . S
H74 C82 0.930 . S
H75 C76 1.016 . S
C76 H75 1.016 . S
C76 N83 1.286 . S
C77 H72 0.930 . S
C77 C78 1.397 . S
C77 C79 1.361 . S
C78 C77 1.397 . S
C78 C82 1.390 . S
C79 C77 1.361 . S
C79 C80 1.393 . S
C79 N83 1.413 . S
C80 H73 0.930 . S
C80 C79 1.393 . S
C80 C81 1.399 . S
C81 C80 1.399 . S
C81 C82 1.381 . S
C82 H74 0.930 . S
C82 C78 1.390 . S
C82 C81 1.381 . S
N83 C76 1.286 . S
N83 C79 1.413 . S
H84 C89 0.930 . S
H85 C92 0.930 . S
H86 C94 0.930 . S
H87 C88 1.016 . S
C88 H87 1.016 . S
C88 N95 1.286 . S
C89 H84 0.930 . S
C89 C90 1.397 1_455 S
C89 C91 1.361 . S
C90 C89 1.397 1_655 S
C90 C94 1.390 . S
C91 C89 1.361 . S
C91 C92 1.393 . S
C91 N95 1.413 . S
C92 H85 0.930 . S
C92 C91 1.393 . S
C92 C93 1.399 . S
C93 C92 1.399 . S
C93 C94 1.381 1_455 S
C94 H86 0.930 . S
C94 C90 1.390 . S
C94 C93 1.381 1_655 S
N95 C88 1.286 . S
N95 C91 1.413 . S
H96 C101 0.930 . S
H97 C104 0.930 . S
H98 C106 0.930 . S
H99 C100 1.016 . S
C100 H99 1.016 . S
C100 N107 1.286 . S
C101 H96 0.930 . S
C101 C102 1.397 . S
C101 C103 1.361 1_455 S
C102 C101 1.397 . S
C102 C106 1.390 . S
C103 C101 1.361 1_655 S
C103 C104 1.393 . S
C103 N107 1.413 . S
C104 H97 0.930 . S
C104 C103 1.393 . S
C104 C105 1.399 1_655 S
C105 C104 1.399 1_455 S
C105 C106 1.381 . S
C106 H98 0.930 . S
C106 C102 1.390 . S
C106 C105 1.381 . S
N107 C100 1.286 . S
N107 C103 1.413 . S
H108 C113 0.930 . S
H109 C116 0.930 1_565 S
H110 C118 0.930 . S
H111 C112 1.016 . S
C112 H111 1.016 . S
C112 N119 1.286 . S
C113 H108 0.930 . S
C113 C114 1.397 . S
C113 C115 1.361 . S
C114 C113 1.397 . S
C114 C118 1.390 . S
C115 C113 1.361 . S
C115 C116 1.393 . S
C115 N119 1.413 1_545 S
C116 H109 0.930 1_545 S
C116 C115 1.393 . S
C116 C117 1.399 . S
C117 C116 1.399 . S
C117 C118 1.381 . S
C118 H110 0.930 . S
C118 C114 1.390 . S
C118 C117 1.381 . S
N119 C112 1.286 . S
N119 C115 1.413 1_565 S
H120 C125 0.930 . S
H121 C128 0.930 . S
H122 C130 0.930 . S
H123 C124 1.016 . S
C124 H123 1.016 . S
C124 N131 1.286 . S
C125 H120 0.930 . S
C125 C126 1.397 . S
C125 C127 1.361 . S
C126 C125 1.397 . S
C126 C130 1.390 . S
C127 C125 1.361 . S
C127 C128 1.393 . S
C127 N131 1.413 . S
C128 H121 0.930 . S
C128 C127 1.393 . S
C128 C129 1.399 . S
C129 C128 1.399 . S
C129 C130 1.381 . S
C130 H122 0.930 . S
C130 C126 1.390 . S
C130 C129 1.381 . S
N131 C124 1.286 . S
N131 C127 1.413 . S
C132 C133 1.369 . S
C132 C134 1.419 . S
C132 H136 0.930 . S
C133 C132 1.369 . S
C133 C142 1.429 . S
C134 C132 1.419 . S
C134 C135 1.363 . S
C134 H137 0.929 . S
C135 C134 1.363 . S
C135 C141 1.428 . S
H136 C132 0.930 . S
H137 C134 0.929 . S
S138 N139 1.613 . S
S138 N140 1.610 . S
N139 S138 1.613 . S
N139 C142 1.350 . S
N140 S138 1.610 . S
N140 C141 1.351 . S
C141 C135 1.428 . S
C141 N140 1.351 . S
C141 C142 1.434 . S
C142 C133 1.429 . S
C142 N139 1.350 . S
C142 C141 1.434 . S
C143 C144 1.369 . S
C143 C145 1.419 . S
C143 H147 0.930 . S
C144 C143 1.369 . S
C144 C153 1.429 . S
C145 C143 1.419 . S
C145 C146 1.363 . S
C145 H148 0.929 . S
C146 C145 1.363 . S
C146 C152 1.428 . S
H147 C143 0.930 . S
H148 C145 0.929 . S
S149 N150 1.613 . S
S149 N151 1.610 . S
N150 S149 1.613 . S
N150 C153 1.350 . S
N151 S149 1.610 . S
N151 C152 1.351 . S
C152 C146 1.428 . S
C152 N151 1.351 . S
C152 C153 1.434 . S
C153 C144 1.429 . S
C153 N150 1.350 . S
C153 C152 1.434 . S
C154 C155 1.369 . S
C154 C156 1.419 . S
C154 H158 0.930 . S
C155 C154 1.369 . S
C155 C164 1.429 . S
C156 C154 1.419 . S
C156 C157 1.363 . S
C156 H159 0.929 . S
C157 C156 1.363 . S
C157 C163 1.428 . S
H158 C154 0.930 . S
H159 C156 0.929 . S
S160 N161 1.613 . S
S160 N162 1.610 . S
N161 S160 1.613 . S
N161 C164 1.350 . S
N162 S160 1.610 . S
N162 C163 1.351 . S
C163 C157 1.428 . S
C163 N162 1.351 . S
C163 C164 1.434 . S
C164 C155 1.429 . S
C164 N161 1.350 . S
C164 C163 1.434 . S
C165 C166 1.369 . S
C165 C167 1.419 . S
C165 H169 0.930 . S
C166 C165 1.369 . S
C166 C175 1.429 . S
C167 C165 1.419 . S
C167 C168 1.363 . S
C167 H170 0.929 . S
C168 C167 1.363 . S
C168 C174 1.428 . S
H169 C165 0.930 . S
H170 C167 0.929 . S
S171 N172 1.613 . S
S171 N173 1.610 . S
N172 S171 1.613 . S
N172 C175 1.350 . S
N173 S171 1.610 . S
N173 C174 1.351 . S
C174 C168 1.428 . S
C174 N173 1.351 . S
C174 C175 1.434 . S
C175 C166 1.429 . S
C175 N172 1.350 . S
C175 C174 1.434 . S
C176 C177 1.369 . S
C176 C178 1.419 . S
C176 H180 0.930 . S
C177 C176 1.369 . S
C177 C186 1.429 . S
C178 C176 1.419 . S
C178 C179 1.363 . S
C178 H181 0.929 . S
C179 C178 1.363 . S
C179 C185 1.428 . S
H180 C176 0.930 . S
H181 C178 0.929 . S
S182 N183 1.613 . S
S182 N184 1.610 . S
N183 S182 1.613 . S
N183 C186 1.350 . S
N184 S182 1.610 . S
N184 C185 1.351 . S
C185 C179 1.428 . S
C185 N184 1.351 . S
C185 C186 1.434 . S
C186 C177 1.429 . S
C186 N183 1.350 . S
C186 C185 1.434 . S
C187 C188 1.369 . S
C187 C189 1.419 . S
C187 H191 0.930 . S
C188 C187 1.369 . S
C188 C197 1.429 . S
C189 C187 1.419 . S
C189 C190 1.363 . S
C189 H192 0.929 . S
C190 C189 1.363 . S
C190 C196 1.428 . S
H191 C187 0.930 . S
H192 C189 0.929 . S
S193 N194 1.613 . S
S193 N195 1.610 . S
N194 S193 1.613 . S
N194 C197 1.350 . S
N195 S193 1.610 . S
N195 C196 1.351 . S
C196 C190 1.428 . S
C196 N195 1.351 . S
C196 C197 1.434 . S
C197 C188 1.429 . S
C197 N194 1.350 . S
C197 C196 1.434 . S
C198 C199 1.369 . S
C198 C200 1.419 . S
C198 H202 0.930 . S
C199 C198 1.369 . S
C199 C208 1.429 . S
C200 C198 1.419 . S
C200 C201 1.363 . S
C200 H203 0.929 . S
C201 C200 1.363 . S
C201 C207 1.428 . S
H202 C198 0.930 . S
H203 C200 0.929 . S
S204 N205 1.613 . S
S204 N206 1.610 . S
N205 S204 1.613 . S
N205 C208 1.350 . S
N206 S204 1.610 . S
N206 C207 1.351 . S
C207 C201 1.428 . S
C207 N206 1.351 . S
C207 C208 1.434 . S
C208 C199 1.429 . S
C208 N205 1.350 . S
C208 C207 1.434 . S
C209 C210 1.369 . S
C209 C211 1.419 . S
C209 H213 0.930 . S
C210 C209 1.369 . S
C210 C219 1.429 . S
C211 C209 1.419 . S
C211 C212 1.363 . S
C211 H214 0.929 . S
C212 C211 1.363 . S
C212 C218 1.428 . S
H213 C209 0.930 . S
H214 C211 0.929 . S
S215 N216 1.613 . S
S215 N217 1.610 . S
N216 S215 1.613 . S
N216 C219 1.350 . S
N217 S215 1.610 . S
N217 C218 1.351 . S
C218 C212 1.428 . S
C218 N217 1.351 . S
C218 C219 1.434 . S
C219 C210 1.429 . S
C219 N216 1.350 . S
C219 C218 1.434 . S
C220 C221 1.369 . S
C220 C222 1.419 . S
C220 H224 0.930 . S
C221 C220 1.369 . S
C221 C230 1.429 . S
C222 C220 1.419 . S
C222 C223 1.363 . S
C222 H225 0.929 . S
C223 C222 1.363 . S
C223 C229 1.428 . S
H224 C220 0.930 . S
H225 C222 0.929 . S
S226 N227 1.613 . S
S226 N228 1.610 . S
N227 S226 1.613 . S
N227 C230 1.350 . S
N228 S226 1.610 . S
N228 C229 1.351 . S
C229 C223 1.428 . S
C229 N228 1.351 . S
C229 C230 1.434 . S
C230 C221 1.429 . S
C230 N227 1.350 . S
C230 C229 1.434 . S
C231 C232 1.369 . S
C231 C233 1.419 . S
C231 H235 0.930 . S
C232 C231 1.369 . S
C232 C241 1.429 . S
C233 C231 1.419 . S
C233 C234 1.363 . S
C233 H236 0.929 . S
C234 C233 1.363 . S
C234 C240 1.428 . S
H235 C231 0.930 . S
H236 C233 0.929 . S
S237 N238 1.613 . S
S237 N239 1.610 . S
N238 S237 1.613 . S
N238 C241 1.350 . S
N239 S237 1.610 . S
N239 C240 1.351 . S
C240 C234 1.428 . S
C240 N239 1.351 . S
C240 C241 1.434 . S
C241 C232 1.429 . S
C241 N238 1.350 . S
C241 C240 1.434 . S
C242 C243 1.369 . S
C242 C244 1.419 . S
C242 H246 0.930 . S
C243 C242 1.369 . S
C243 C252 1.429 . S
C244 C242 1.419 . S
C244 C245 1.363 . S
C244 H247 0.929 . S
C245 C244 1.363 . S
C245 C251 1.428 . S
H246 C242 0.930 . S
H247 C244 0.929 . S
S248 N249 1.613 . S
S248 N250 1.610 . S
N249 S248 1.613 . S
N249 C252 1.350 . S
N250 S248 1.610 . S
N250 C251 1.351 . S
C251 C245 1.428 . S
C251 N250 1.351 . S
C251 C252 1.434 . S
C252 C243 1.429 . S
C252 N249 1.350 . S
C252 C251 1.434 . S
C253 C254 1.369 . S
C253 C255 1.419 . S
C253 H257 0.930 . S
C254 C253 1.369 . S
C254 C263 1.429 . S
C255 C253 1.419 . S
C255 C256 1.363 . S
C255 H258 0.929 . S
C256 C255 1.363 . S
C256 C262 1.428 . S
H257 C253 0.930 . S
H258 C255 0.929 . S
S259 N260 1.613 . S
S259 N261 1.610 . S
N260 S259 1.613 . S
N260 C263 1.350 . S
N261 S259 1.610 . S
N261 C262 1.351 . S
C262 C256 1.428 . S
C262 N261 1.351 . S
C262 C263 1.434 . S
C263 C254 1.429 . S
C263 N260 1.350 . S
C263 C262 1.434 . S
C264 C265 1.369 . S
C264 C266 1.419 1_554 S
C264 H268 0.930 . S
C265 C264 1.369 . S
C265 C274 1.429 . S
C266 C264 1.419 1_556 S
C266 C267 1.363 . S
C266 H269 0.929 . S
C267 C266 1.363 . S
C267 C273 1.428 . S
H268 C264 0.930 . S
H269 C266 0.929 . S
S270 N271 1.613 . S
S270 N272 1.610 1_554 S
N271 S270 1.613 . S
N271 C274 1.350 1_655 S
N272 S270 1.610 1_556 S
N272 C273 1.351 1_655 S
C273 C267 1.428 . S
C273 N272 1.351 1_455 S
C273 C274 1.434 1_556 S
C274 C265 1.429 . S
C274 N271 1.350 1_455 S
C274 C273 1.434 1_554 S
C275 C276 1.369 . S
C275 C277 1.419 . S
C275 H279 0.930 . S
C276 C275 1.369 . S
C276 C285 1.429 . S
C277 C275 1.419 . S
C277 C278 1.363 . S
C277 H280 0.929 . S
C278 C277 1.363 . S
C278 C284 1.428 . S
H279 C275 0.930 . S
H280 C277 0.929 . S
S281 N282 1.613 . S
S281 N283 1.610 . S
N282 S281 1.613 . S
N282 C285 1.350 1_565 S
N283 S281 1.610 . S
N283 C284 1.351 1_565 S
C284 C278 1.428 . S
C284 N283 1.351 1_545 S
C284 C285 1.434 . S
C285 C276 1.429 . S
C285 N282 1.350 1_545 S
C285 C284 1.434 . S
C286 C287 1.369 . S
C286 C288 1.419 . S
C286 H290 0.930 . S
C287 C286 1.369 . S
C287 C296 1.429 . S
C288 C286 1.419 . S
C288 C289 1.363 . S
C288 H291 0.929 . S
C289 C288 1.363 . S
C289 C295 1.428 . S
H290 C286 0.930 . S
H291 C288 0.929 . S
S292 N293 1.613 . S
S292 N294 1.610 . S
N293 S292 1.613 . S
N293 C296 1.350 . S
N294 S292 1.610 . S
N294 C295 1.351 . S
C295 C289 1.428 . S
C295 N294 1.351 . S
C295 C296 1.434 . S
C296 C287 1.429 . S
C296 N293 1.350 . S
C296 C295 1.434 . S
C297 C298 1.369 . S
C297 C299 1.419 . S
C297 H301 0.930 . S
C298 C297 1.369 . S
C298 C307 1.429 . S
C299 C297 1.419 . S
C299 C300 1.363 . S
C299 H302 0.929 . S
C300 C299 1.363 . S
C300 C306 1.428 . S
H301 C297 0.930 . S
H302 C299 0.929 . S
S303 N304 1.613 . S
S303 N305 1.610 . S
N304 S303 1.613 . S
N304 C307 1.350 . S
N305 S303 1.610 . S
N305 C306 1.351 . S
C306 C300 1.428 . S
C306 N305 1.351 . S
C306 C307 1.434 . S
C307 C298 1.429 . S
C307 N304 1.350 . S
C307 C306 1.434 . S
C308 C309 1.369 . S
C308 C310 1.419 1_556 S
C308 H312 0.930 . S
C309 C308 1.369 . S
C309 C318 1.429 . S
C310 C308 1.419 1_554 S
C310 C311 1.363 . S
C310 H313 0.929 . S
C311 C310 1.363 . S
C311 C317 1.428 . S
H312 C308 0.930 . S
H313 C310 0.929 . S
S314 N315 1.613 . S
S314 N316 1.610 1_556 S
N315 S314 1.613 . S
N315 C318 1.350 . S
N316 S314 1.610 1_554 S
N316 C317 1.351 . S
C317 C311 1.428 . S
C317 N316 1.351 . S
C317 C318 1.434 1_554 S
C318 C309 1.429 . S
C318 N315 1.350 . S
C318 C317 1.434 1_556 S
C319 C320 1.369 . S
C319 C321 1.419 . S
C319 H323 0.930 . S
C320 C319 1.369 . S
C320 C329 1.429 . S
C321 C319 1.419 . S
C321 C322 1.363 . S
C321 H324 0.929 . S
C322 C321 1.363 . S
C322 C328 1.428 . S
H323 C319 0.930 . S
H324 C321 0.929 . S
S325 N326 1.613 . S
S325 N327 1.610 . S
N326 S325 1.613 . S
N326 C329 1.350 . S
N327 S325 1.610 . S
N327 C328 1.351 . S
C328 C322 1.428 . S
C328 N327 1.351 . S
C328 C329 1.434 . S
C329 C320 1.429 . S
C329 N326 1.350 . S
C329 C328 1.434 . S
C133 C8 2.114 . S
C135 C126 2.191 . S
C144 C26 1.412 . S
C146 C100 1.409 . S
C155 C48 1.562 . S
C157 C112 1.597 . S
C166 C19 1.740 . S
C168 C124 1.679 . S
C179 C102 1.359 . S
C177 C36 1.358 . S
C190 C114 1.569 . S
C188 C59 1.515 . S
C199 C28 1.576 . S
C201 C76 1.599 . S
C210 C46 1.333 . S
C212 C90 1.385 . S
C221 C16 1.370 . S
C223 C66 1.363 . S
C234 C78 1.570 . S
C232 C39 1.531 . S
C245 C88 0.904 . S
C243 C56 0.912 . S
C254 C6 1.454 . S
C256 C64 1.433 . S
C267 C93 1.511 . S
C265 C9 1.453 . S
C276 C21 1.520 . S
C278 C69 1.540 . S
C287 C49 1.485 . S
C289 C81 1.481 . S
C300 C117 1.498 . S
C298 C29 1.500 . S
C311 C129 1.648 . S
C309 C41 1.604 . S
C320 C1 1.502 . S
C322 C105 1.506 . S
