# Generated by pormake.
# Topology ssb, (4,4)-cn, num edge types: 1
# Building blocks:
#     Node 0, Type 0, BuildingBlock: AZAVOO_clean_linker_0, # of connection points: 4
#     Node 1, Type 0, BuildingBlock: AZAVOO_clean_linker_0, # of connection points: 4
#     Node 2, Type 0, BuildingBlock: AZAVOO_clean_linker_0, # of connection points: 4
#     Node 3, Type 0, BuildingBlock: AZAVOO_clean_linker_0, # of connection points: 4
#     Node 4, Type 0, BuildingBlock: AZAVOO_clean_linker_0, # of connection points: 4
#     Node 5, Type 0, BuildingBlock: AZAVOO_clean_linker_0, # of connection points: 4
#     Node 6, Type 0, BuildingBlock: AZAVOO_clean_linker_0, # of connection points: 4
#     Node 7, Type 0, BuildingBlock: AZAVOO_clean_linker_0, # of connection points: 4
#     Node 8, Type 1, BuildingBlock: NAWXER_clean_sbu_0, # of connection points: 4
#     Node 9, Type 1, BuildingBlock: NAWXER_clean_sbu_0, # of connection points: 4
#     Node 10, Type 1, BuildingBlock: NAWXER_clean_sbu_0, # of connection points: 4
#     Node 11, Type 1, BuildingBlock: NAWXER_clean_sbu_0, # of connection points: 4
#     Node 12, Type 1, BuildingBlock: NAWXER_clean_sbu_0, # of connection points: 4
#     Node 13, Type 1, BuildingBlock: NAWXER_clean_sbu_0, # of connection points: 4
#     Node 14, Type 1, BuildingBlock: NAWXER_clean_sbu_0, # of connection points: 4
#     Node 15, Type 1, BuildingBlock: NAWXER_clean_sbu_0, # of connection points: 4
#     Edge 16, Type (0, 1), BuildingBlock: ZUJKAS_clean_linker_0, # of connection points: 2
#     Edge 17, Type (0, 1), BuildingBlock: ZUJKAS_clean_linker_0, # of connection points: 2
#     Edge 18, Type (0, 1), BuildingBlock: ZUJKAS_clean_linker_0, # of connection points: 2
#     Edge 19, Type (0, 1), BuildingBlock: ZUJKAS_clean_linker_0, # of connection points: 2
#     Edge 20, Type (0, 1), BuildingBlock: ZUJKAS_clean_linker_0, # of connection points: 2
#     Edge 21, Type (0, 1), BuildingBlock: ZUJKAS_clean_linker_0, # of connection points: 2
#     Edge 22, Type (0, 1), BuildingBlock: ZUJKAS_clean_linker_0, # of connection points: 2
#     Edge 23, Type (0, 1), BuildingBlock: ZUJKAS_clean_linker_0, # of connection points: 2
#     Edge 24, Type (0, 1), BuildingBlock: ZUJKAS_clean_linker_0, # of connection points: 2
#     Edge 25, Type (0, 1), BuildingBlock: ZUJKAS_clean_linker_0, # of connection points: 2
#     Edge 26, Type (0, 1), BuildingBlock: ZUJKAS_clean_linker_0, # of connection points: 2
#     Edge 27, Type (0, 1), BuildingBlock: ZUJKAS_clean_linker_0, # of connection points: 2
#     Edge 28, Type (0, 1), BuildingBlock: ZUJKAS_clean_linker_0, # of connection points: 2
#     Edge 29, Type (0, 1), BuildingBlock: ZUJKAS_clean_linker_0, # of connection points: 2
#     Edge 30, Type (0, 1), BuildingBlock: ZUJKAS_clean_linker_0, # of connection points: 2
#     Edge 31, Type (0, 1), BuildingBlock: ZUJKAS_clean_linker_0, # of connection points: 2
#     Edge 32, Type (0, 1), BuildingBlock: ZUJKAS_clean_linker_0, # of connection points: 2
#     Edge 33, Type (0, 1), BuildingBlock: ZUJKAS_clean_linker_0, # of connection points: 2
#     Edge 34, Type (0, 1), BuildingBlock: ZUJKAS_clean_linker_0, # of connection points: 2
#     Edge 35, Type (0, 1), BuildingBlock: ZUJKAS_clean_linker_0, # of connection points: 2
#     Edge 36, Type (0, 1), BuildingBlock: ZUJKAS_clean_linker_0, # of connection points: 2
#     Edge 37, Type (0, 1), BuildingBlock: ZUJKAS_clean_linker_0, # of connection points: 2
#     Edge 38, Type (0, 1), BuildingBlock: ZUJKAS_clean_linker_0, # of connection points: 2
#     Edge 39, Type (0, 1), BuildingBlock: ZUJKAS_clean_linker_0, # of connection points: 2
#     Edge 40, Type (0, 1), BuildingBlock: ZUJKAS_clean_linker_0, # of connection points: 2
#     Edge 41, Type (0, 1), BuildingBlock: ZUJKAS_clean_linker_0, # of connection points: 2
#     Edge 42, Type (0, 1), BuildingBlock: ZUJKAS_clean_linker_0, # of connection points: 2
#     Edge 43, Type (0, 1), BuildingBlock: ZUJKAS_clean_linker_0, # of connection points: 2
#     Edge 44, Type (0, 1), BuildingBlock: ZUJKAS_clean_linker_0, # of connection points: 2
#     Edge 45, Type (0, 1), BuildingBlock: ZUJKAS_clean_linker_0, # of connection points: 2
#     Edge 46, Type (0, 1), BuildingBlock: ZUJKAS_clean_linker_0, # of connection points: 2
#     Edge 47, Type (0, 1), BuildingBlock: ZUJKAS_clean_linker_0, # of connection points: 2
# Relax obj value: 0.052
# Max RMSD: 0.285
# Mean RMSD: 0.111
data_MOF--net-ssb--node1-NAWXER_clean_sbu_0--node2-AZAVOO_clean_linker_0--edge1-ZUJKAS_clean_linker_0
_symmetry_space_group_name_H-M    P1
_symmetry_Int_Tables_number       1
_symmetry_cell_setting            triclinic
loop_
_symmetry_equiv_pos_as_xyz
'x, y, z'
_cell_length_a     64.174483
_cell_length_b     66.365566
_cell_length_c     55.727459
_cell_angle_alpha  92.441914
_cell_angle_beta   89.966744
_cell_angle_gamma 90.004512
loop_
_atom_site_label
_atom_site_type_symbol
_atom_site_fract_x
_atom_site_fract_y
_atom_site_fract_z
_atom_type_partial_charge
H0 H 0.18309 0.50057 0.26869 0.0
H1 H 0.331 0.40197 0.08857 0.0
H2 H 0.2453 0.41449 0.28794 0.0
H3 H 0.21987 0.41143 0.32041 0.0
H4 H 0.19132 0.36098 0.28137 0.0
H5 H 0.21674 0.36419 0.24903 0.0
H6 H 0.25422 0.44681 0.25124 0.0
H7 H 0.2288 0.47341 0.26091 0.0
H8 H 0.17917 0.43383 0.23572 0.0
H9 H 0.2048 0.40743 0.22588 0.0
H10 H 0.2906 0.4398 0.21477 0.0
H11 H 0.29123 0.47155 0.19412 0.0
H12 H 0.23262 0.45585 0.15989 0.0
H13 H 0.23195 0.4243 0.18115 0.0
H14 H 0.31698 0.39992 0.20715 0.0
H15 H 0.34042 0.40242 0.17275 0.0
H16 H 0.28757 0.39735 0.12473 0.0
H17 H 0.26435 0.39461 0.15929 0.0
H18 H 0.31119 0.36741 0.24335 0.0
H19 H 0.33745 0.3429 0.22905 0.0
H20 H 0.29901 0.32757 0.16725 0.0
H21 H 0.27272 0.35171 0.18199 0.0
H22 H 0.27729 0.37932 0.28596 0.0
H23 H 0.28082 0.35252 0.31436 0.0
H24 H 0.25673 0.30946 0.26097 0.0
H25 H 0.25338 0.33652 0.2325 0.0
O26 O 0.19289 0.48987 0.26462 0.0
O27 O 0.16794 0.4689 0.25154 0.0
O28 O 0.34876 0.40344 0.12794 0.0
O29 O 0.3221 0.401 0.10249 0.0
C30 C 0.24763 0.39184 0.246 0.0
C31 C 0.24679 0.40909 0.23204 0.0
C32 C 0.26076 0.41098 0.2127 0.0
C33 C 0.27482 0.39524 0.20657 0.0
C34 C 0.27554 0.37792 0.22046 0.0
C35 C 0.26243 0.37654 0.24065 0.0
C36 C 0.23275 0.38963 0.26611 0.0
C37 C 0.23352 0.40281 0.28644 0.0
C38 C 0.21899 0.40106 0.3049 0.0
C39 C 0.2036 0.38599 0.30339 0.0
C40 C 0.20314 0.37259 0.28316 0.0
C41 C 0.21758 0.37443 0.26466 0.0
C42 C 0.23134 0.42525 0.23779 0.0
C43 C 0.23786 0.44397 0.2477 0.0
C44 C 0.2233 0.45911 0.25327 0.0
C45 C 0.20194 0.45575 0.24909 0.0
C46 C 0.19549 0.43692 0.23916 0.0
C47 C 0.21008 0.42182 0.23354 0.0
C48 C 0.26124 0.42983 0.19941 0.0
C49 C 0.27796 0.44323 0.20271 0.0
C50 C 0.27833 0.4613 0.19082 0.0
C51 C 0.26198 0.46624 0.17533 0.0
C52 C 0.2453 0.45263 0.17195 0.0
C53 C 0.24493 0.43458 0.18393 0.0
C54 C 0.289 0.39702 0.18568 0.0
C55 C 0.31052 0.39928 0.18918 0.0
C56 C 0.32386 0.40075 0.1695 0.0
C57 C 0.31586 0.40007 0.14597 0.0
C58 C 0.29424 0.39792 0.14259 0.0
C59 C 0.28094 0.39639 0.16228 0.0
C60 C 0.29013 0.36133 0.21364 0.0
C61 C 0.30829 0.3584 0.22702 0.0
C62 C 0.32329 0.34452 0.21875 0.0
C63 C 0.32036 0.33338 0.19695 0.0
C64 C 0.30165 0.33571 0.18424 0.0
C65 C 0.28668 0.34957 0.19253 0.0
C66 C 0.26504 0.35985 0.25724 0.0
C67 C 0.27278 0.36409 0.28041 0.0
C68 C 0.27467 0.34879 0.29663 0.0
C69 C 0.26889 0.32891 0.28996 0.0
C70 C 0.26143 0.32461 0.26655 0.0
C71 C 0.25948 0.34001 0.25031 0.0
C72 C 0.18651 0.47184 0.25512 0.0
C73 C 0.32996 0.40161 0.125 0.0
H74 H 0.63836 0.16612 0.29373 0.0
H75 H 0.78092 0.24978 0.48912 0.0
H76 H 0.71326 0.24473 0.28112 0.0
H77 H 0.69265 0.2504 0.24507 0.0
H78 H 0.66567 0.30363 0.28008 0.0
H79 H 0.68645 0.29787 0.31596 0.0
H80 H 0.71353 0.21164 0.32025 0.0
H81 H 0.68606 0.18794 0.30755 0.0
H82 H 0.6397 0.23382 0.32381 0.0
H83 H 0.66732 0.2573 0.3367 0.0
H84 H 0.74593 0.21499 0.36418 0.0
H85 H 0.73962 0.18594 0.38867 0.0
H86 H 0.67897 0.2099 0.40809 0.0
H87 H 0.68584 0.23935 0.38424 0.0
H88 H 0.77721 0.24988 0.36942 0.0
H89 H 0.79698 0.24499 0.40625 0.0
H90 H 0.74202 0.25984 0.44835 0.0
H91 H 0.72251 0.26491 0.41137 0.0
H92 H 0.77963 0.28072 0.33156 0.0
H93 H 0.80883 0.30136 0.34636 0.0
H94 H 0.76947 0.32721 0.40272 0.0
H95 H 0.74064 0.30586 0.38823 0.0
H96 H 0.74601 0.27909 0.28499 0.0
H97 H 0.75347 0.30711 0.25927 0.0
H98 H 0.73357 0.34923 0.31607 0.0
H99 H 0.7252 0.32098 0.34119 0.0
O100 O 0.64896 0.17571 0.29892 0.0
O101 O 0.62575 0.19984 0.30749 0.0
O102 O 0.80133 0.24425 0.45181 0.0
O103 O 0.77348 0.25165 0.47428 0.0
C104 C 0.71363 0.2673 0.32311 0.0
C105 C 0.70913 0.25049 0.33704 0.0
C106 C 0.72068 0.24726 0.35813 0.0
C107 C 0.73657 0.26097 0.36538 0.0
C108 C 0.74113 0.2777 0.35137 0.0
C109 C 0.72979 0.28079 0.33013 0.0
C110 C 0.70128 0.27085 0.30115 0.0
C111 C 0.70285 0.25757 0.28098 0.0
C112 C 0.69104 0.26082 0.26045 0.0
C113 C 0.6775 0.27746 0.25972 0.0
C114 C 0.67614 0.29082 0.27995 0.0
C115 C 0.6879 0.28752 0.30048 0.0
C116 C 0.6924 0.23615 0.32941 0.0
C117 C 0.69742 0.2165 0.32115 0.0
C118 C 0.68171 0.20302 0.31385 0.0
C119 C 0.66068 0.20899 0.31465 0.0
C120 C 0.65573 0.22874 0.32296 0.0
C121 C 0.67146 0.24218 0.33029 0.0
C122 C 0.71639 0.22932 0.37249 0.0
C123 C 0.73131 0.21397 0.37378 0.0
C124 C 0.72757 0.19728 0.3876 0.0
C125 C 0.70874 0.19551 0.40033 0.0
C126 C 0.69372 0.21087 0.39877 0.0
C127 C 0.69754 0.22763 0.38502 0.0
C128 C 0.74847 0.25782 0.38776 0.0
C129 C 0.76951 0.25216 0.38662 0.0
C130 C 0.78074 0.24933 0.40768 0.0
C131 C 0.77108 0.25204 0.43027 0.0
C132 C 0.74994 0.25763 0.43128 0.0
C133 C 0.73875 0.26051 0.4102 0.0
C134 C 0.75811 0.29176 0.35891 0.0
C135 C 0.77731 0.29102 0.34694 0.0
C136 C 0.79394 0.30293 0.35537 0.0
C137 C 0.79158 0.31593 0.37585 0.0
C138 C 0.77199 0.31712 0.3872 0.0
C139 C 0.75545 0.30507 0.37887 0.0
C140 C 0.73505 0.29799 0.31495 0.0
C141 C 0.74321 0.29438 0.29182 0.0
C142 C 0.74763 0.31044 0.27723 0.0
C143 C 0.74416 0.33048 0.28557 0.0
C144 C 0.73616 0.33401 0.30891 0.0
C145 C 0.73157 0.31791 0.32341 0.0
C146 C 0.64403 0.19464 0.30683 0.0
C147 C 0.78294 0.24906 0.4527 0.0
H148 H 0.6786 0.88458 0.30982 0.0
H149 H 0.69895 0.67462 0.19769 0.0
H150 H 0.76917 0.8205 0.31343 0.0
H151 H 0.77881 0.84625 0.34419 0.0
H152 H 0.76376 0.8049 0.39952 0.0
H153 H 0.75416 0.77924 0.36858 0.0
H154 H 0.73361 0.81852 0.27771 0.0
H155 H 0.71235 0.84877 0.28496 0.0
H156 H 0.69028 0.82499 0.35143 0.0
H157 H 0.71145 0.79471 0.34381 0.0
H158 H 0.73492 0.78255 0.24114 0.0
H159 H 0.707 0.79215 0.21402 0.0
H160 H 0.66151 0.7811 0.26914 0.0
H161 H 0.68965 0.77134 0.29618 0.0
H162 H 0.76404 0.74549 0.24151 0.0
H163 H 0.75458 0.72068 0.20962 0.0
H164 H 0.69987 0.70466 0.24998 0.0
H165 H 0.70965 0.72938 0.28185 0.0
H166 H 0.79868 0.7483 0.27591 0.0
H167 H 0.81932 0.71797 0.2668 0.0
H168 H 0.77303 0.68226 0.30223 0.0
H169 H 0.75215 0.71264 0.31027 0.0
H170 H 0.80275 0.78633 0.31433 0.0
H171 H 0.83445 0.78158 0.33781 0.0
H172 H 0.80515 0.73219 0.37305 0.0
H173 H 0.77341 0.73714 0.34953 0.0
O174 O 0.68684 0.87246 0.30727 0.0
O175 O 0.67605 0.8596 0.34133 0.0
O176 O 0.73148 0.69322 0.19008 0.0
O177 O 0.70309 0.68449 0.21005 0.0
C178 C 0.75456 0.78275 0.32009 0.0
C179 C 0.73683 0.78602 0.30575 0.0
C180 C 0.73146 0.77183 0.28717 0.0
C181 C 0.74341 0.75411 0.28339 0.0
C182 C 0.761 0.75081 0.29789 0.0
C183 C 0.76668 0.76518 0.31608 0.0
C184 C 0.76082 0.7981 0.33882 0.0
C185 C 0.76794 0.81705 0.33221 0.0
C186 C 0.77343 0.8317 0.34977 0.0
C187 C 0.772 0.82759 0.37425 0.0
C188 C 0.76525 0.80842 0.38079 0.0
C189 C 0.75966 0.7938 0.3632 0.0
C190 C 0.72395 0.80439 0.31016 0.0
C191 C 0.72407 0.81983 0.29374 0.0
C192 C 0.71196 0.83711 0.29797 0.0
C193 C 0.69959 0.8393 0.31877 0.0
C194 C 0.69961 0.82379 0.33523 0.0
C195 C 0.71169 0.80649 0.33094 0.0
C196 C 0.71425 0.77626 0.27054 0.0
C197 C 0.7189 0.78201 0.24725 0.0
C198 C 0.70299 0.78763 0.2319 0.0
C199 C 0.68213 0.7875 0.23958 0.0
C200 C 0.67745 0.78123 0.26276 0.0
C201 C 0.69344 0.77572 0.27819 0.0
C202 C 0.73759 0.73912 0.26402 0.0
C203 C 0.75009 0.73652 0.24348 0.0
C204 C 0.74461 0.72239 0.22527 0.0
C205 C 0.72647 0.71066 0.22727 0.0
C206 C 0.71395 0.71341 0.24787 0.0
C207 C 0.71947 0.72753 0.26609 0.0
C208 C 0.7739 0.73254 0.29352 0.0
C209 C 0.79311 0.73389 0.28174 0.0
C210 C 0.80495 0.71657 0.27679 0.0
C211 C 0.79783 0.69763 0.28374 0.0
C212 C 0.77882 0.69653 0.29624 0.0
C213 C 0.76689 0.71383 0.30094 0.0
C214 C 0.78581 0.76215 0.33035 0.0
C215 C 0.80318 0.77455 0.3272 0.0
C216 C 0.82122 0.77183 0.34061 0.0
C217 C 0.82222 0.75654 0.35728 0.0
C218 C 0.80486 0.74395 0.36017 0.0
C219 C 0.78675 0.7468 0.34686 0.0
C220 C 0.68677 0.85769 0.32322 0.0
C221 C 0.72057 0.69563 0.20797 0.0
H222 H 0.36789 0.97692 0.30601 0.0
H223 H 0.24193 0.86735 0.101 0.0
H224 H 0.2836 0.90802 0.31432 0.0
H225 H 0.29245 0.93052 0.34873 0.0
H226 H 0.24144 0.96967 0.33086 0.0
H227 H 0.23264 0.94697 0.29667 0.0
H228 H 0.31271 0.9122 0.27027 0.0
H229 H 0.34037 0.93497 0.28488 0.0
H230 H 0.29713 0.98495 0.28484 0.0
H231 H 0.26973 0.96207 0.26986 0.0
H232 H 0.301 0.88658 0.22026 0.0
H233 H 0.33011 0.89368 0.19358 0.0
H234 H 0.31044 0.95584 0.19174 0.0
H235 H 0.28098 0.94851 0.21813 0.0
H236 H 0.2634 0.86012 0.21747 0.0
H237 H 0.26002 0.84418 0.17728 0.0
H238 H 0.2437 0.90188 0.1493 0.0
H239 H 0.24676 0.91757 0.18972 0.0
H240 H 0.23578 0.85554 0.26042 0.0
H241 H 0.21688 0.82908 0.23761 0.0
H242 H 0.18892 0.87417 0.19415 0.0
H243 H 0.20787 0.90054 0.21711 0.0
H244 H 0.24682 0.8803 0.31051 0.0
H245 H 0.221 0.86971 0.33977 0.0
H246 H 0.17302 0.9011 0.30182 0.0
H247 H 0.19908 0.91188 0.2728 0.0
O248 O 0.35684 0.96826 0.29977 0.0
O249 O 0.33387 0.99336 0.29986 0.0
O250 O 0.25163 0.84395 0.13245 0.0
O251 O 0.24369 0.87333 0.11701 0.0
C252 C 0.25668 0.91637 0.27847 0.0
C253 C 0.27218 0.92142 0.26165 0.0
C254 C 0.27177 0.9127 0.23813 0.0
C255 C 0.2556 0.89926 0.23126 0.0
C256 C 0.23984 0.89449 0.24794 0.0
C257 C 0.24052 0.90284 0.27168 0.0
C258 C 0.25756 0.92595 0.30298 0.0
C259 C 0.27386 0.92104 0.31844 0.0
C260 C 0.27905 0.93404 0.33787 0.0
C261 C 0.26791 0.95208 0.34222 0.0
C262 C 0.2503 0.95588 0.32806 0.0
C263 C 0.24515 0.94288 0.30857 0.0
C264 C 0.28925 0.9355 0.26905 0.0
C265 C 0.30933 0.92811 0.27319 0.0
C266 C 0.32506 0.94113 0.28163 0.0
C267 C 0.32094 0.96177 0.28613 0.0
C268 C 0.30082 0.96914 0.28162 0.0
C269 C 0.28515 0.95612 0.27306 0.0
C270 C 0.28883 0.917 0.22105 0.0
C271 C 0.30278 0.90165 0.21381 0.0
C272 C 0.31938 0.90574 0.19859 0.0
C273 C 0.32249 0.92531 0.19057 0.0
C274 C 0.30846 0.94066 0.19778 0.0
C275 C 0.29166 0.93649 0.21277 0.0
C276 C 0.25519 0.88996 0.20651 0.0
C277 C 0.25912 0.86929 0.20262 0.0
C278 C 0.2572 0.86023 0.17965 0.0
C279 C 0.2515 0.87175 0.16008 0.0
C280 C 0.24805 0.89257 0.16398 0.0
C281 C 0.24988 0.90159 0.18701 0.0
C282 C 0.22335 0.87991 0.24024 0.0
C283 C 0.22482 0.85978 0.24674 0.0
C284 C 0.21406 0.84467 0.23361 0.0
C285 C 0.20174 0.84955 0.2138 0.0
C286 C 0.19856 0.86996 0.20909 0.0
C287 C 0.20921 0.88504 0.22231 0.0
C288 C 0.22481 0.89688 0.28959 0.0
C289 C 0.23075 0.88498 0.30862 0.0
C290 C 0.21596 0.87882 0.32519 0.0
C291 C 0.19494 0.88451 0.32306 0.0
C292 C 0.1891 0.89662 0.30406 0.0
C293 C 0.20392 0.9027 0.28742 0.0
C294 C 0.33754 0.97547 0.29564 0.0
C295 C 0.24899 0.86211 0.13573 0.0
H296 H 0.38234 0.99542 0.75993 0.0
H297 H 0.19512 0.92356 0.61686 0.0
H298 H 0.34324 0.8909 0.74591 0.0
H299 H 0.36891 0.88641 0.77769 0.0
H300 H 0.31973 0.89025 0.83074 0.0
H301 H 0.2942 0.89515 0.79877 0.0
H302 H 0.33465 0.92897 0.71475 0.0
H303 H 0.35814 0.95641 0.72756 0.0
H304 H 0.32317 0.96487 0.7936 0.0
H305 H 0.29967 0.93752 0.78044 0.0
H306 H 0.30335 0.92781 0.67686 0.0
H307 H 0.30074 0.96058 0.6586 0.0
H308 H 0.26422 0.98313 0.7193 0.0
H309 H 0.26788 0.9506 0.7378 0.0
H310 H 0.27847 0.88279 0.66751 0.0
H311 H 0.25599 0.88616 0.63245 0.0
H312 H 0.21699 0.92808 0.67357 0.0
H313 H 0.23946 0.92437 0.70856 0.0
H314 H 0.28531 0.84581 0.70526 0.0
H315 H 0.26224 0.81919 0.68907 0.0
H316 H 0.20885 0.85656 0.70745 0.0
H317 H 0.23197 0.88246 0.72466 0.0
H318 H 0.31623 0.85034 0.74828 0.0
H319 H 0.31397 0.82175 0.77467 0.0
H320 H 0.2531 0.84217 0.79842 0.0
H321 H 0.25547 0.8705 0.772 0.0
O322 O 0.37282 0.98467 0.75517 0.0
O323 O 0.35434 0.98839 0.78884 0.0
O324 O 0.22474 0.9002 0.61014 0.0
O325 O 0.20426 0.92193 0.63045 0.0
C326 C 0.30165 0.89623 0.75068 0.0
C327 C 0.30131 0.9146 0.73883 0.0
C328 C 0.28732 0.91716 0.71971 0.0
C329 C 0.27426 0.90113 0.71175 0.0
C330 C 0.27432 0.88286 0.72393 0.0
C331 C 0.2877 0.88059 0.74373 0.0
C332 C 0.31693 0.89332 0.77011 0.0
C333 C 0.33806 0.89077 0.76441 0.0
C334 C 0.35264 0.88808 0.78254 0.0
C335 C 0.3463 0.88792 0.80668 0.0
C336 C 0.32507 0.89048 0.81231 0.0
C337 C 0.31048 0.89315 0.79413 0.0
C338 C 0.31548 0.9313 0.74666 0.0
C339 C 0.33205 0.93684 0.73193 0.0
C340 C 0.34547 0.95248 0.73932 0.0
C341 C 0.34254 0.96283 0.76162 0.0
C342 C 0.32587 0.9572 0.77633 0.0
C343 C 0.31245 0.94158 0.76889 0.0
C344 C 0.28582 0.93695 0.70859 0.0
C345 C 0.29489 0.93992 0.68617 0.0
C346 C 0.29321 0.9586 0.67572 0.0
C347 C 0.28217 0.97454 0.68741 0.0
C348 C 0.2731 0.97137 0.70994 0.0
C349 C 0.27504 0.95277 0.72049 0.0
C350 C 0.26064 0.90342 0.6905 0.0
C351 C 0.26506 0.89268 0.66889 0.0
C352 C 0.2522 0.89465 0.6489 0.0
C353 C 0.2347 0.90743 0.6502 0.0
C354 C 0.23035 0.91815 0.67194 0.0
C355 C 0.2432 0.91613 0.69192 0.0
C356 C 0.2603 0.86613 0.71589 0.0
C357 C 0.2686 0.84802 0.70615 0.0
C358 C 0.2554 0.83291 0.69677 0.0
C359 C 0.23367 0.83574 0.69681 0.0
C360 C 0.22545 0.85367 0.7074 0.0
C361 C 0.23864 0.86864 0.71699 0.0
C362 C 0.28601 0.86246 0.75829 0.0
C363 C 0.30238 0.8485 0.75909 0.0
C364 C 0.30109 0.83227 0.77421 0.0
C365 C 0.28335 0.82971 0.78862 0.0
C366 C 0.26683 0.84353 0.78729 0.0
C367 C 0.26817 0.85975 0.77228 0.0
C368 C 0.35686 0.9794 0.76945 0.0
C369 C 0.22099 0.90958 0.62901 0.0
H370 H 0.21395 0.51885 0.79476 0.0
H371 H 0.25321 0.32207 0.63102 0.0
H372 H 0.30646 0.45334 0.78128 0.0
H373 H 0.3003 0.47939 0.81271 0.0
H374 H 0.26511 0.43679 0.85303 0.0
H375 H 0.27131 0.41079 0.82126 0.0
H376 H 0.26991 0.46016 0.7471 0.0
H377 H 0.24864 0.48867 0.76201 0.0
H378 H 0.21526 0.449 0.80817 0.0
H379 H 0.23657 0.42064 0.79297 0.0
H380 H 0.26381 0.42931 0.69815 0.0
H381 H 0.23276 0.4345 0.67341 0.0
H382 H 0.19515 0.4046 0.72553 0.0
H383 H 0.22624 0.39925 0.74984 0.0
H384 H 0.30082 0.398 0.69127 0.0
H385 H 0.2967 0.37696 0.65442 0.0
H386 H 0.24764 0.34366 0.68829 0.0
H387 H 0.25213 0.36467 0.72512 0.0
H388 H 0.33416 0.39448 0.72535 0.0
H389 H 0.35347 0.36759 0.70343 0.0
H390 H 0.31146 0.32341 0.73131 0.0
H391 H 0.29222 0.35035 0.75293 0.0
H392 H 0.33701 0.42127 0.77934 0.0
H393 H 0.36493 0.41131 0.80646 0.0
H394 H 0.32847 0.35965 0.82582 0.0
H395 H 0.30098 0.36955 0.79837 0.0
O396 O 0.22166 0.50726 0.78847 0.0
O397 O 0.20482 0.48618 0.81165 0.0
O398 O 0.28045 0.34823 0.62875 0.0
O399 O 0.25503 0.33073 0.64528 0.0
C400 C 0.28641 0.41759 0.77678 0.0
C401 C 0.2692 0.42174 0.76192 0.0
C402 C 0.26591 0.41024 0.74046 0.0
C403 C 0.2801 0.39487 0.7335 0.0
C404 C 0.29724 0.3906 0.74843 0.0
C405 C 0.30024 0.40176 0.77029 0.0
C406 C 0.28937 0.43022 0.79906 0.0
C407 C 0.29829 0.44938 0.79744 0.0
C408 C 0.29461 0.46428 0.81537 0.0
C409 C 0.28191 0.46022 0.83516 0.0
C410 C 0.27468 0.44042 0.8378 0.0
C411 C 0.27849 0.42548 0.81989 0.0
C412 C 0.25472 0.43841 0.76896 0.0
C413 C 0.25777 0.45764 0.76016 0.0
C414 C 0.24569 0.4739 0.76882 0.0
C415 C 0.23033 0.47114 0.7864 0.0
C416 C 0.22697 0.45166 0.79467 0.0
C417 C 0.23905 0.43543 0.78597 0.0
C418 C 0.2472 0.41389 0.72571 0.0
C419 C 0.24882 0.42394 0.70417 0.0
C420 C 0.2311 0.427 0.69019 0.0
C421 C 0.21153 0.41991 0.69752 0.0
C422 C 0.21003 0.41001 0.71927 0.0
C423 C 0.22771 0.40704 0.73323 0.0
C424 C 0.27678 0.38281 0.7108 0.0
C425 C 0.28917 0.38618 0.69064 0.0
C426 C 0.28678 0.37414 0.66964 0.0
C427 C 0.27185 0.35859 0.66842 0.0
C428 C 0.25928 0.35547 0.68862 0.0
C429 C 0.26175 0.36748 0.70964 0.0
C430 C 0.31185 0.3743 0.7407 0.0
C431 C 0.32962 0.37892 0.72736 0.0
C432 C 0.3405 0.3636 0.71474 0.0
C433 C 0.33388 0.34344 0.71557 0.0
C434 C 0.31706 0.33877 0.73053 0.0
C435 C 0.30606 0.35411 0.7429 0.0
C436 C 0.31705 0.39609 0.7869 0.0
C437 C 0.33512 0.40783 0.7895 0.0
C438 C 0.35099 0.40215 0.80506 0.0
C439 C 0.34899 0.38462 0.81827 0.0
C440 C 0.33071 0.37302 0.81563 0.0
C441 C 0.31492 0.3787 0.80008 0.0
C442 C 0.2181 0.48857 0.79628 0.0
C443 C 0.26943 0.3456 0.64625 0.0
H444 H 0.91498 0.35714 0.85449 0.0
H445 H 0.81946 0.21073 0.66753 0.0
H446 H 0.8373 0.27827 0.87413 0.0
H447 H 0.83952 0.30125 0.90944 0.0
H448 H 0.78462 0.3325 0.88573 0.0
H449 H 0.783 0.30979 0.84998 0.0
H450 H 0.86905 0.28288 0.83033 0.0
H451 H 0.89332 0.31026 0.84101 0.0
H452 H 0.84345 0.35351 0.83447 0.0
H453 H 0.81943 0.32601 0.82349 0.0
H454 H 0.86535 0.25509 0.78405 0.0
H455 H 0.89014 0.26481 0.75311 0.0
H456 H 0.853 0.31773 0.74061 0.0
H457 H 0.8287 0.30809 0.77183 0.0
H458 H 0.83013 0.22003 0.78665 0.0
H459 H 0.83312 0.1995 0.74926 0.0
H460 H 0.81066 0.2497 0.70954 0.0
H461 H 0.80746 0.26994 0.74711 0.0
H462 H 0.79896 0.21857 0.82988 0.0
H463 H 0.78212 0.18737 0.81495 0.0
H464 H 0.75324 0.21984 0.75819 0.0
H465 H 0.76992 0.25099 0.77344 0.0
H466 H 0.79196 0.24897 0.87336 0.0
H467 H 0.7592 0.24553 0.8959 0.0
H468 H 0.726 0.27451 0.83941 0.0
H469 H 0.75856 0.27791 0.81725 0.0
O470 O 0.90515 0.34656 0.85008 0.0
O471 O 0.87894 0.36816 0.84662 0.0
O472 O 0.82985 0.19314 0.70384 0.0
O473 O 0.81853 0.21854 0.68256 0.0
C474 C 0.81149 0.28116 0.83612 0.0
C475 C 0.82775 0.28577 0.8201 0.0
C476 C 0.82973 0.27477 0.798 0.0
C477 C 0.8161 0.25859 0.79238 0.0
C478 C 0.79966 0.25425 0.80823 0.0
C479 C 0.79692 0.26598 0.82968 0.0
C480 C 0.81003 0.29242 0.85955 0.0
C481 C 0.8255 0.28981 0.87688 0.0
C482 C 0.82669 0.30292 0.89707 0.0
C483 C 0.81236 0.31882 0.90026 0.0
C484 C 0.79609 0.32059 0.88355 0.0
C485 C 0.79496 0.30751 0.8633 0.0
C486 C 0.84249 0.30247 0.82624 0.0
C487 C 0.86344 0.29829 0.83111 0.0
C488 C 0.87725 0.31396 0.83726 0.0
C489 C 0.87032 0.33408 0.83865 0.0
C490 C 0.84929 0.33819 0.83361 0.0
C491 C 0.83553 0.32252 0.82739 0.0
C492 C 0.84532 0.28093 0.78013 0.0
C493 C 0.86273 0.26884 0.77468 0.0
C494 C 0.87676 0.27436 0.75695 0.0
C495 C 0.87354 0.29205 0.74438 0.0
C496 C 0.85615 0.30421 0.75019 0.0
C497 C 0.8422 0.2987 0.76793 0.0
C498 C 0.81864 0.24646 0.76954 0.0
C499 C 0.8259 0.22655 0.76984 0.0
C500 C 0.82759 0.21487 0.74847 0.0
C501 C 0.82213 0.22297 0.7264 0.0
C502 C 0.815 0.24301 0.7262 0.0
C503 C 0.81324 0.25463 0.74761 0.0
C504 C 0.7858 0.23689 0.80254 0.0
C505 C 0.78846 0.21903 0.81469 0.0
C506 C 0.77896 0.20125 0.80608 0.0
C507 C 0.7666 0.20118 0.78526 0.0
C508 C 0.76257 0.21949 0.77435 0.0
C509 C 0.77213 0.23725 0.78295 0.0
C510 C 0.77755 0.26375 0.84377 0.0
C511 C 0.77757 0.25458 0.86598 0.0
C512 C 0.7589 0.25254 0.8787 0.0
C513 C 0.7401 0.25986 0.86943 0.0
C514 C 0.74027 0.26898 0.84715 0.0
C515 C 0.75881 0.27085 0.83443 0.0
C516 C 0.88499 0.35067 0.84534 0.0
C517 C 0.82377 0.21059 0.70365 0.0
H518 H 0.91901 0.68627 0.8139 0.0
H519 H 0.72468 0.7276 0.9599 0.0
H520 H 0.85275 0.77902 0.81409 0.0
H521 H 0.87554 0.78563 0.78006 0.0
H522 H 0.82896 0.76084 0.73125 0.0
H523 H 0.80622 0.75424 0.76554 0.0
H524 H 0.85668 0.74348 0.85194 0.0
H525 H 0.8863 0.72151 0.84174 0.0
H526 H 0.85256 0.69687 0.78006 0.0
H527 H 0.82298 0.71877 0.79062 0.0
H528 H 0.82629 0.74434 0.8933 0.0
H529 H 0.82996 0.71664 0.92074 0.0
H530 H 0.80345 0.67548 0.8669 0.0
H531 H 0.79979 0.7033 0.83962 0.0
H532 H 0.79215 0.78005 0.89601 0.0
H533 H 0.77273 0.77586 0.93329 0.0
H534 H 0.74469 0.72147 0.90238 0.0
H535 H 0.76399 0.726 0.86511 0.0
H536 H 0.78861 0.81134 0.85348 0.0
H537 H 0.76073 0.83365 0.86861 0.0
H538 H 0.7165 0.78488 0.85832 0.0
H539 H 0.74434 0.763 0.84246 0.0
H540 H 0.81566 0.80988 0.80823 0.0
H541 H 0.80283 0.83532 0.78121 0.0
H542 H 0.7489 0.79819 0.7649 0.0
H543 H 0.76211 0.77272 0.79145 0.0
O544 O 0.9071 0.69477 0.81765 0.0
O545 O 0.88912 0.68265 0.78613 0.0
O546 O 0.74723 0.75779 0.96034 0.0
O547 O 0.73251 0.72965 0.94535 0.0
C548 C 0.81449 0.76192 0.81314 0.0
C549 C 0.81981 0.74608 0.82822 0.0
C550 C 0.80802 0.74296 0.84915 0.0
C551 C 0.79127 0.75598 0.85533 0.0
C552 C 0.78576 0.77159 0.84007 0.0
C553 C 0.79703 0.77425 0.81866 0.0
C554 C 0.82788 0.76617 0.79223 0.0
C555 C 0.84746 0.77509 0.79603 0.0
C556 C 0.86038 0.77894 0.77659 0.0
C557 C 0.85401 0.77379 0.75299 0.0
C558 C 0.83433 0.76484 0.74925 0.0
C559 C 0.82131 0.76115 0.76874 0.0
C560 C 0.83771 0.73269 0.82203 0.0
C561 C 0.8557 0.73326 0.8363 0.0
C562 C 0.8726 0.72073 0.83039 0.0
C563 C 0.87181 0.70744 0.81007 0.0
C564 C 0.8537 0.70693 0.79582 0.0
C565 C 0.8368 0.71944 0.80178 0.0
C566 C 0.81278 0.7258 0.86451 0.0
C567 C 0.82161 0.72926 0.88733 0.0
C568 C 0.82372 0.71344 0.90293 0.0
C569 C 0.81686 0.69391 0.89601 0.0
C570 C 0.80865 0.6904 0.87281 0.0
C571 C 0.80671 0.7062 0.85716 0.0
C572 C 0.77949 0.75331 0.87792 0.0
C573 C 0.78176 0.76728 0.89733 0.0
C574 C 0.77068 0.76483 0.9186 0.0
C575 C 0.75716 0.7483 0.92082 0.0
C576 C 0.75496 0.73434 0.90128 0.0
C577 C 0.76601 0.73685 0.88001 0.0
C578 C 0.76848 0.78555 0.847 0.0
C579 C 0.77281 0.80564 0.85411 0.0
C580 C 0.75691 0.81829 0.86292 0.0
C581 C 0.7364 0.81102 0.86482 0.0
C582 C 0.73205 0.79106 0.85684 0.0
C583 C 0.74794 0.77846 0.84795 0.0
C584 C 0.78987 0.78944 0.80168 0.0
C585 C 0.8012 0.8072 0.79861 0.0
C586 C 0.79373 0.82177 0.78337 0.0
C587 C 0.7748 0.8188 0.77093 0.0
C588 C 0.76363 0.80086 0.77396 0.0
C589 C 0.7711 0.78634 0.78919 0.0
C590 C 0.88981 0.69418 0.80382 0.0
C591 C 0.74538 0.74561 0.94339 0.0
C592 C 0.99605 0.35554 0.54578 0.0
C593 C 0.04161 0.3704 0.47938 0.0
O594 O 0.99528 0.37424 0.54083 0.0
Zn595 Zn 0.00886 0.39351 0.51468 0.0
O596 O 0.00739 0.3435 0.53318 0.0
Zn597 Zn 0.01823 0.36294 0.51207 0.0
O598 O 0.03638 0.38218 0.53598 0.0
O599 O 0.0238 0.4131 0.53489 0.0
O600 O 0.03824 0.35361 0.48877 0.0
O601 O 0.03171 0.38617 0.48717 0.0
O602 O 0.98466 0.40227 0.49706 0.0
O603 O 0.9917 0.36994 0.49081 0.0
C604 C 0.03698 0.40082 0.54304 0.0
C605 C 0.98037 0.38533 0.48676 0.0
C606 C 0.74781 0.03447 0.61846 0.0
C607 C 0.75852 0.98301 0.55492 0.0
O608 O 0.76492 0.02889 0.6088 0.0
Zn609 Zn 0.75352 0.00907 0.58639 0.0
O610 O 0.73069 0.02625 0.6113 0.0
Zn611 Zn 0.72074 0.00342 0.58533 0.0
O612 O 0.70877 0.983 0.60548 0.0
O613 O 0.74278 0.98657 0.60962 0.0
O614 O 0.73926 0.98526 0.56066 0.0
O615 O 0.77225 0.994 0.56543 0.0
O616 O 0.73639 0.02693 0.56226 0.0
O617 O 0.70314 0.01873 0.5642 0.0
C618 C 0.72575 0.97793 0.61537 0.0
C619 C 0.71752 0.02936 0.5554 0.0
C620 C 0.00402 0.79873 0.56478 0.0
C621 C 0.0508 0.8139 0.49894 0.0
O622 O 0.00869 0.81583 0.55687 0.0
Zn623 Zn 0.0275 0.80631 0.53199 0.0
O624 O 0.01248 0.78276 0.5553 0.0
Zn625 Zn 0.0345 0.77532 0.52684 0.0
O626 O 0.05736 0.76334 0.54355 0.0
O627 O 0.05369 0.79593 0.55196 0.0
O628 O 0.05022 0.79495 0.50268 0.0
O629 O 0.03972 0.82597 0.51182 0.0
O630 O 0.00716 0.78957 0.50792 0.0
O631 O 0.01821 0.75805 0.50548 0.0
C632 C 0.06344 0.77932 0.55478 0.0
C633 C 0.00526 0.77138 0.49942 0.0
C634 C 0.33353 0.19036 0.53283 0.0
C635 C 0.31959 0.13122 0.47995 0.0
O636 O 0.34689 0.17865 0.52279 0.0
Zn637 Zn 0.32717 0.16111 0.50556 0.0
O638 O 0.31407 0.18724 0.52908 0.0
Zn639 Zn 0.2946 0.1662 0.50964 0.0
O640 O 0.27907 0.15427 0.535 0.0
O641 O 0.31236 0.14588 0.53431 0.0
O642 O 0.30304 0.14025 0.48753 0.0
O643 O 0.33734 0.13841 0.4858 0.0
O644 O 0.31341 0.18019 0.47954 0.0
O645 O 0.27987 0.18268 0.48791 0.0
C646 C 0.29415 0.14449 0.5436 0.0
C647 C 0.29526 0.18713 0.47482 0.0
C648 C 0.50435 0.90332 0.0537 0.0
C649 C 0.56123 0.88325 -0.00024 0.0
O650 O 0.51828 0.91459 0.04516 0.0
Zn651 Zn 0.53272 0.89359 0.02659 0.0
O652 O 0.50424 0.88442 0.04792 0.0
Zn653 Zn 0.52202 0.86347 0.02585 0.0
O654 O 0.53132 0.84471 0.04852 0.0
O655 O 0.54546 0.87489 0.05397 0.0
O656 O 0.5494 0.86845 0.00485 0.0
O657 O 0.55719 0.90079 0.00855 0.0
O658 O 0.51022 0.88583 0.99894 0.0
O659 O 0.50216 0.85379 0.00254 0.0
C660 C 0.54349 0.85657 0.06021 0.0
C661 C 0.49983 0.87016 0.99187 0.0
C662 C 0.21512 0.69299 0.03441 0.0
C663 C 0.22828 0.63728 0.97613 0.0
O664 O 0.23457 0.6894 0.03114 0.0
Zn665 Zn 0.25375 0.6691 0.01005 0.0
O666 O 0.20171 0.68253 0.02262 0.0
Zn667 Zn 0.22123 0.66536 0.0047 0.0
O668 O 0.23474 0.64767 0.03223 0.0
O669 O 0.26838 0.65451 0.03386 0.0
O670 O 0.21064 0.64431 0.9827 0.0
O671 O 0.24496 0.64529 0.98486 0.0
O672 O 0.26968 0.68662 0.99072 0.0
O673 O 0.23639 0.68556 0.9808 0.0
C674 C 0.25278 0.64485 0.04141 0.0
C675 C 0.2549 0.69224 0.97742 0.0
C676 C 0.54486 0.27358 0.98975 0.0
C677 C 0.48631 0.281 0.04501 0.0
O678 O 0.54255 0.29182 0.9979 0.0
Zn679 Zn 0.52186 0.30834 0.02179 0.0
O680 O 0.53209 0.26012 0.99593 0.0
Zn681 Zn 0.51499 0.27733 0.01659 0.0
O682 O 0.49939 0.29679 0.99218 0.0
O683 O 0.50933 0.32788 0.00184 0.0
O684 O 0.49205 0.26519 0.03314 0.0
O685 O 0.49601 0.29765 0.04224 0.0
O686 O 0.54049 0.3181 0.0467 0.0
O687 O 0.53613 0.28509 0.04578 0.0
C688 C 0.49859 0.31578 0.98866 0.0
C689 C 0.54452 0.30109 0.05525 0.0
C690 C 0.83905 0.53532 0.13599 0.0
C691 C 0.83485 0.48343 0.07189 0.0
O692 O 0.85395 0.52501 0.12679 0.0
Zn693 Zn 0.83738 0.50986 0.10342 0.0
O694 O 0.82053 0.53289 0.1277 0.0
Zn695 Zn 0.80489 0.51488 0.10042 0.0
O696 O 0.78512 0.50002 0.11876 0.0
O697 O 0.81782 0.49187 0.12584 0.0
O698 O 0.81723 0.49178 0.07663 0.0
O699 O 0.85102 0.48943 0.08325 0.0
O700 O 0.82866 0.53243 0.07848 0.0
O701 O 0.79436 0.53437 0.07888 0.0
C702 C 0.79827 0.48955 0.12985 0.0
C703 C 0.81175 0.54026 0.07084 0.0
H704 H 0.18184 0.41669 0.32592 0.0
H705 H 0.15468 0.41409 0.35652 0.0
H706 H 0.1618 0.34941 0.35403 0.0
H707 H 0.18929 0.35191 0.32382 0.0
H708 H 0.1168 0.39176 0.35105 0.0
H709 H 0.16511 0.36566 0.42641 0.0
H710 H 0.17621 0.37733 0.40064 0.0
H711 H 0.16816 0.35139 0.39849 0.0
C712 C 0.17785 0.40194 0.33218 0.0
C713 C 0.18772 0.3845 0.32254 0.0
C714 C 0.16227 0.40048 0.34952 0.0
C715 C 0.15643 0.38159 0.35766 0.0
C716 C 0.16632 0.36415 0.3482 0.0
H717 H 0.06466 0.33996 0.45803 0.0
H718 H 0.09187 0.34284 0.42764 0.0
C719 C 0.18186 0.36559 0.33081 0.0
C720 C 0.13941 0.38004 0.37534 0.0
H721 H 0.12847 0.36518 0.43183 0.0
C722 C 0.11932 0.38605 0.36877 0.0
C723 C 0.14283 0.37251 0.39835 0.0
C724 C 0.16426 0.36649 0.40656 0.0
C725 C 0.1024 0.38438 0.3845 0.0
C726 C 0.10582 0.37686 0.40754 0.0
C727 C 0.12593 0.37089 0.41411 0.0
C728 C 0.08876 0.37515 0.42519 0.0
C729 C 0.08097 0.39023 0.37613 0.0
C730 C 0.07806 0.39239 0.43389 0.0
C731 C 0.06245 0.3908 0.45118 0.0
C732 C 0.0574 0.37194 0.46023 0.0
C733 C 0.06813 0.3547 0.4514 0.0
C734 C 0.0837 0.35631 0.43408 0.0
H735 H 0.0801 0.39051 0.35623 0.0
H736 H 0.06896 0.37965 0.38249 0.0
H737 H 0.07718 0.40557 0.38356 0.0
H738 H 0.08204 0.40713 0.42762 0.0
H739 H 0.0546 0.40439 0.45772 0.0
H740 H 0.69012 0.19527 0.44468 0.0
H741 H 0.6862 0.16676 0.47069 0.0
H742 H 0.71589 0.12769 0.41715 0.0
H743 H 0.71906 0.15589 0.39058 0.0
H744 H 0.68208 0.10949 0.43901 0.0
H745 H 0.73594 0.14474 0.50669 0.0
H746 H 0.71362 0.15976 0.49982 0.0
H747 H 0.73289 0.15423 0.47705 0.0
C748 C 0.69548 0.18055 0.43822 0.0
C749 C 0.70512 0.17795 0.4156 0.0
C750 C 0.69341 0.1643 0.45324 0.0
C751 C 0.7011 0.14518 0.44604 0.0
C752 C 0.70997 0.14235 0.42313 0.0
H753 H 0.74553 0.04957 0.5289 0.0
H754 H 0.73907 0.07701 0.5023 0.0
C755 C 0.71196 0.15855 0.40806 0.0
C756 C 0.70092 0.12834 0.46274 0.0
H757 H 0.72122 0.11351 0.51578 0.0
C758 C 0.69051 0.11038 0.45589 0.0
C759 C 0.71211 0.12949 0.48463 0.0
C760 C 0.72444 0.148 0.49247 0.0
C761 C 0.69124 0.09343 0.4702 0.0
C762 C 0.70246 0.09461 0.49204 0.0
C763 C 0.71251 0.1127 0.49908 0.0
C764 C 0.70561 0.07687 0.50699 0.0
C765 C 0.68071 0.07418 0.46141 0.0
C766 C 0.68887 0.06744 0.51831 0.0
C767 C 0.69252 0.05153 0.53358 0.0
C768 C 0.71298 0.04499 0.5379 0.0
C769 C 0.72958 0.05427 0.52612 0.0
C770 C 0.72593 0.07 0.51088 0.0
H771 H 0.67622 0.07458 0.44218 0.0
H772 H 0.69107 0.06101 0.46377 0.0
H773 H 0.66637 0.07192 0.4721 0.0
H774 H 0.67308 0.07271 0.51584 0.0
H775 H 0.67942 0.04476 0.54247 0.0
H776 H 0.8446 0.7861 0.3807 0.0
H777 H 0.87606 0.78238 0.40479 0.0
H778 H 0.87397 0.7179 0.39171 0.0
H779 H 0.84248 0.72152 0.36719 0.0
H780 H 0.87951 0.75643 0.44708 0.0
H781 H 0.93472 0.73695 0.37228 0.0
H782 H 0.91049 0.74994 0.36719 0.0
H783 H 0.91026 0.7237 0.37355 0.0
C784 C 0.85094 0.77115 0.38274 0.0
C785 C 0.84119 0.75411 0.37197 0.0
C786 C 0.86881 0.76904 0.3966 0.0
C787 C 0.87733 0.7499 0.3998 0.0
C788 C 0.86765 0.7328 0.38921 0.0
H789 H 0.99466 0.73414 0.47958 0.0
H790 H 0.96344 0.72555 0.45578 0.0
C791 C 0.84965 0.73489 0.3754 0.0
C792 C 0.89621 0.74814 0.41464 0.0
H793 H 0.94899 0.74248 0.41088 0.0
C794 C 0.89468 0.75308 0.43928 0.0
C795 C 0.91587 0.74357 0.40434 0.0
C796 C 0.91814 0.73829 0.37787 0.0
C797 C 0.91247 0.75443 0.45377 0.0
C798 C 0.93227 0.75114 0.44319 0.0
C799 C 0.93374 0.74507 0.41883 0.0
C800 C 0.95156 0.75607 0.45662 0.0
C801 C 0.91001 0.75993 0.48017 0.0
C802 C 0.95536 0.7761 0.46429 0.0
C803 C 0.97305 0.78106 0.47772 0.0
C804 C 0.98738 0.76605 0.48369 0.0
C805 C 0.98387 0.74602 0.47534 0.0
C806 C 0.96609 0.74108 0.46179 0.0
H807 H 0.89418 0.75615 0.48671 0.0
H808 H 0.92173 0.75203 0.49102 0.0
H809 H 0.91232 0.77642 0.48317 0.0
H810 H 0.94448 0.78792 0.46005 0.0
H811 H 0.97531 0.79665 0.4837 0.0
H812 H 0.30823 0.96427 0.34849 0.0
H813 H 0.32126 0.99222 0.37424 0.0
H814 H 0.25875 0.00459 0.39924 0.0
H815 H 0.24569 0.97619 0.37418 0.0
H816 H 0.31086 0.03179 0.37128 0.0
H817 H 0.29118 0.00604 0.46168 0.0
H818 H 0.29128 0.98922 0.43534 0.0
H819 H 0.26916 0.00521 0.44186 0.0
C820 C 0.29733 0.97256 0.36001 0.0
C821 C 0.27593 0.96786 0.35951 0.0
C822 C 0.30479 0.98865 0.37454 0.0
C823 C 0.29104 0.00031 0.38893 0.0
C824 C 0.26972 0.99552 0.3887 0.0
H825 H 0.28371 0.11206 0.46652 0.0
H826 H 0.27978 0.07983 0.44449 0.0
C827 C 0.26224 0.97941 0.37419 0.0
C828 C 0.29868 0.01835 0.40289 0.0
H829 H 0.29788 0.0415 0.45876 0.0
C830 C 0.30836 0.0338 0.39049 0.0
C831 C 0.29552 0.02087 0.42796 0.0
C832 C 0.28641 0.00436 0.44253 0.0
C833 C 0.31392 0.05214 0.40228 0.0
C834 C 0.30982 0.05498 0.4271 0.0
C835 C 0.30091 0.03926 0.43968 0.0
C836 C 0.31284 0.07475 0.43991 0.0
C837 C 0.32322 0.06871 0.38798 0.0
C838 C 0.33282 0.08261 0.44455 0.0
C839 C 0.33519 0.10116 0.45725 0.0
C840 C 0.31758 0.11207 0.46546 0.0
C841 C 0.29764 0.10413 0.46048 0.0
C842 C 0.29532 0.08566 0.44793 0.0
H843 H 0.32307 0.06496 0.36836 0.0
H844 H 0.31454 0.08302 0.39147 0.0
H845 H 0.3396 0.07131 0.39366 0.0
H846 H 0.34653 0.07428 0.43865 0.0
H847 H 0.35075 0.10682 0.46087 0.0
H848 H 0.19452 0.8239 0.71017 0.0
H849 H 0.16921 0.80523 0.68545 0.0
H850 H 0.21577 0.79469 0.63047 0.0
H851 H 0.24082 0.81447 0.6544 0.0
H852 H 0.18315 0.81141 0.61258 0.0
H853 H 0.15529 0.74843 0.66539 0.0
H854 H 0.15374 0.77158 0.68305 0.0
H855 H 0.1788 0.7622 0.67309 0.0
C856 C 0.19947 0.81743 0.69293 0.0
C857 C 0.21964 0.82097 0.68415 0.0
C858 C 0.18505 0.8064 0.67898 0.0
C859 C 0.19062 0.79832 0.65618 0.0
C860 C 0.21116 0.80066 0.64807 0.0
H861 H 0.09072 0.74815 0.56176 0.0
H862 H 0.12311 0.74955 0.58528 0.0
C863 C 0.22552 0.8119 0.66188 0.0
C864 C 0.17425 0.79056 0.63944 0.0
H865 H 0.13054 0.76119 0.63622 0.0
C866 C 0.17198 0.80004 0.61754 0.0
C867 C 0.15973 0.77559 0.64567 0.0
C868 C 0.16217 0.76373 0.66798 0.0
C869 C 0.15486 0.79601 0.60257 0.0
C870 C 0.13937 0.78246 0.60992 0.0
C871 C 0.1423 0.77185 0.63088 0.0
C872 C 0.11925 0.78078 0.59715 0.0
C873 C 0.15311 0.80685 0.57938 0.0
C874 C 0.10622 0.7977 0.59668 0.0
C875 C 0.08787 0.79698 0.58336 0.0
C876 C 0.08211 0.77927 0.5703 0.0
C877 C 0.09479 0.76204 0.57155 0.0
C878 C 0.11325 0.76279 0.58495 0.0
H879 H 0.16861 0.81182 0.57299 0.0
H880 H 0.14577 0.79707 0.56509 0.0
H881 H 0.14325 0.82047 0.58238 0.0
H882 H 0.11045 0.81161 0.60634 0.0
H883 H 0.07839 0.81047 0.58301 0.0
H884 H 0.34023 0.34639 0.66761 0.0
H885 H 0.34798 0.31906 0.63823 0.0
H886 H 0.35428 0.27766 0.69539 0.0
H887 H 0.34608 0.30498 0.72495 0.0
H888 H 0.37945 0.29093 0.62925 0.0
H889 H 0.30565 0.25436 0.65669 0.0
H890 H 0.31261 0.27958 0.66696 0.0
H891 H 0.32453 0.25819 0.6802 0.0
C892 C 0.34381 0.33159 0.67399 0.0
C893 C 0.34242 0.32776 0.69856 0.0
C894 C 0.3482 0.31597 0.65717 0.0
C895 C 0.35133 0.29626 0.66459 0.0
C896 C 0.35149 0.29269 0.68925 0.0
H897 H 0.37018 0.19487 0.55812 0.0
H898 H 0.37764 0.22021 0.59045 0.0
C899 C 0.34686 0.30828 0.7061 0.0
C900 C 0.35212 0.27933 0.64634 0.0
H901 H 0.32426 0.23859 0.62503 0.0
C902 C 0.36754 0.27933 0.62842 0.0
C903 C 0.33638 0.26437 0.64518 0.0
C904 C 0.31874 0.26412 0.66312 0.0
C905 C 0.36732 0.26505 0.60901 0.0
C906 C 0.35141 0.25031 0.60775 0.0
C907 C 0.33646 0.24992 0.62611 0.0
C908 C 0.34855 0.23626 0.5866 0.0
C909 C 0.38347 0.26639 0.58948 0.0
C910 C 0.32987 0.23701 0.57362 0.0
C911 C 0.32551 0.22253 0.5555 0.0
C912 C 0.33978 0.20699 0.54982 0.0
C913 C 0.35896 0.20675 0.56202 0.0
C914 C 0.36326 0.22123 0.58044 0.0
H915 H 0.39238 0.28074 0.59099 0.0
H916 H 0.39463 0.25371 0.59074 0.0
H917 H 0.37603 0.26511 0.57149 0.0
H918 H 0.31835 0.24852 0.57801 0.0
H919 H 0.31067 0.22324 0.54631 0.0
H920 H 0.88788 0.32964 0.73448 0.0
H921 H 0.90943 0.33903 0.70056 0.0
H922 H 0.91399 0.27649 0.67677 0.0
H923 H 0.89163 0.26703 0.70999 0.0
H924 H 0.94921 0.32813 0.68783 0.0
H925 H 0.89319 0.30279 0.61685 0.0
H926 H 0.88608 0.30522 0.64816 0.0
H927 H 0.90036 0.2835 0.6369 0.0
C928 C 0.89329 0.31789 0.7219 0.0
C929 C 0.88786 0.29761 0.7248 0.0
C930 C 0.90573 0.32327 0.70264 0.0
C931 C 0.91297 0.3085 0.68593 0.0
C932 C 0.90817 0.28817 0.68919 0.0
H933 H 0.99055 0.3165 0.55848 0.0
H934 H 0.97095 0.30463 0.59287 0.0
C935 C 0.89563 0.28277 0.70837 0.0
C936 C 0.92553 0.31446 0.66512 0.0
H937 H 0.92637 0.3136 0.6038 0.0
C938 C 0.94422 0.32497 0.66946 0.0
C939 C 0.91891 0.31035 0.64118 0.0
C940 C 0.89845 0.30002 0.63541 0.0
C941 C 0.95655 0.3314 0.65047 0.0
C942 C 0.94992 0.32729 0.6266 0.0
C943 C 0.93138 0.31661 0.6222 0.0
C944 C 0.96176 0.33447 0.60593 0.0
C945 C 0.97665 0.34245 0.65599 0.0
C946 C 0.96277 0.35513 0.60184 0.0
C947 C 0.97381 0.36196 0.58219 0.0
C948 C 0.98406 0.34821 0.56632 0.0
C949 C 0.98289 0.32747 0.57042 0.0
C950 C 0.97171 0.32066 0.59001 0.0
H951 H 0.98163 0.34081 0.6749 0.0
H952 H 0.9893 0.33682 0.64386 0.0
H953 H 0.97445 0.35874 0.65304 0.0
H954 H 0.95494 0.36597 0.61381 0.0
H955 H 0.97439 0.37802 0.57953 0.0
H956 H 0.75661 0.81304 0.72671 0.0
H957 H 0.74352 0.83874 0.70033 0.0
H958 H 0.76174 0.88539 0.75233 0.0
H959 H 0.77435 0.85978 0.77913 0.0
H960 H 0.72115 0.89086 0.73142 0.0
H961 H 0.78308 0.87543 0.66315 0.0
H962 H 0.76795 0.854 0.67136 0.0
H963 H 0.78464 0.86644 0.6932 0.0
C964 C 0.75763 0.82875 0.73266 0.0
C965 C 0.76666 0.83437 0.75496 0.0
C966 C 0.75027 0.84341 0.71749 0.0
C967 C 0.75185 0.86395 0.7243 0.0
C968 C 0.76042 0.86961 0.74674 0.0
H969 H 0.75813 0.96925 0.64441 0.0
H970 H 0.76157 0.94122 0.67079 0.0
C971 C 0.76781 0.85497 0.76191 0.0
C972 C 0.74538 0.87963 0.70768 0.0
H973 H 0.75834 0.90026 0.65465 0.0
C974 C 0.72914 0.89286 0.71453 0.0
C975 C 0.75594 0.88222 0.68575 0.0
C976 C 0.77398 0.86891 0.67791 0.0
C977 C 0.72341 0.90886 0.70014 0.0
C978 C 0.73414 0.91154 0.67835 0.0
C979 C 0.75006 0.89804 0.67131 0.0
C980 C 0.73071 0.92934 0.66368 0.0
C981 C 0.70652 0.92324 0.70872 0.0
C982 C 0.71201 0.93217 0.65115 0.0
C983 C 0.70992 0.94837 0.63593 0.0
C984 C 0.72659 0.96181 0.63294 0.0
C985 C 0.74502 0.95913 0.64608 0.0
C986 C 0.74704 0.9431 0.66123 0.0
H987 H 0.70183 0.92076 0.72756 0.0
H988 H 0.71182 0.93909 0.70743 0.0
H989 H 0.69261 0.92113 0.69707 0.0
H990 H 0.69929 0.92157 0.65262 0.0
H991 H 0.69557 0.95 0.62598 0.0
H992 H 0.87646 0.80781 0.74483 0.0
H993 H 0.90079 0.81334 0.71189 0.0
H994 H 0.88817 0.75341 0.68244 0.0
H995 H 0.86357 0.74795 0.71509 0.0
H996 H 0.93615 0.79358 0.70069 0.0
H997 H 0.88183 0.78595 0.62361 0.0
H998 H 0.87285 0.7886 0.65428 0.0
H999 H 0.88134 0.76443 0.64201 0.0
C1000 C 0.87881 0.79586 0.73124 0.0
C1001 C 0.86806 0.77747 0.73247 0.0
C1002 C 0.89266 0.79905 0.71241 0.0
C1003 C 0.89608 0.78392 0.69446 0.0
C1004 C 0.88537 0.76553 0.69568 0.0
H1005 H 0.98621 0.76443 0.58086 0.0
H1006 H 0.96005 0.76166 0.61251 0.0
C1007 C 0.87136 0.76239 0.71439 0.0
C1008 C 0.91159 0.78703 0.67517 0.0
H1009 H 0.9182 0.78531 0.61425 0.0
C1010 C 0.93216 0.79196 0.6818 0.0
C1011 C 0.90638 0.78497 0.65049 0.0
C1012 C 0.88436 0.7809 0.64214 0.0
C1013 C 0.94772 0.79439 0.66445 0.0
C1014 C 0.94258 0.79185 0.63988 0.0
C1015 C 0.92204 0.78713 0.63317 0.0
C1016 C 0.95847 0.79373 0.62087 0.0
C1017 C 0.96969 0.79925 0.67239 0.0
C1018 C 0.96613 0.81271 0.61512 0.0
C1019 C 0.981 0.81439 0.59695 0.0
C1020 C 0.98854 0.79707 0.58433 0.0
C1021 C 0.98083 0.77806 0.59028 0.0
C1022 C 0.96584 0.77643 0.6083 0.0
H1023 H 0.97166 0.79838 0.69213 0.0
H1024 H 0.98085 0.7887 0.66323 0.0
H1025 H 0.97374 0.81474 0.66724 0.0
H1026 H 0.96049 0.82623 0.62459 0.0
H1027 H 0.9866 0.82924 0.5928 0.0
H1028 H 0.28271 0.01234 0.70949 0.0
H1029 H 0.27936 0.04477 0.69079 0.0
H1030 H 0.27529 0.01418 0.62107 0.0
H1031 H 0.27706 0.98172 0.6397 0.0
H1032 H 0.30429 0.06175 0.66127 0.0
H1033 H 0.22846 0.05289 0.61574 0.0
H1034 H 0.23717 0.0357 0.63787 0.0
H1035 H 0.24515 0.03226 0.60692 0.0
C1036 C 0.28056 0.01246 0.69023 0.0
C1037 C 0.28008 0.99435 0.67614 0.0
C1038 C 0.27881 0.03105 0.67955 0.0
C1039 C 0.27664 0.03193 0.65456 0.0
C1040 C 0.27631 0.0139 0.64045 0.0
H1041 H 0.32123 0.11655 0.55944 0.0
H1042 H 0.31532 0.09199 0.5898 0.0
C1043 C 0.27776 0.99532 0.65112 0.0
C1044 C 0.27633 0.05163 0.64297 0.0
H1045 H 0.25231 0.07694 0.59874 0.0
C1046 C 0.29267 0.06524 0.64793 0.0
C1047 C 0.2609 0.05655 0.62605 0.0
C1048 C 0.24182 0.04365 0.62158 0.0
C1049 C 0.29479 0.08291 0.63525 0.0
C1050 C 0.28061 0.0867 0.61654 0.0
C1051 C 0.26344 0.07386 0.61276 0.0
C1052 C 0.28438 0.10268 0.59926 0.0
C1053 C 0.31241 0.09715 0.64185 0.0
C1054 C 0.2687 0.11655 0.59388 0.0
C1055 C 0.27189 0.13046 0.57604 0.0
C1056 C 0.29083 0.1307 0.56337 0.0
C1057 C 0.30655 0.11695 0.56904 0.0
C1058 C 0.30326 0.10297 0.5866 0.0
H1059 H 0.31628 0.09658 0.66124 0.0
H1060 H 0.32655 0.09252 0.63155 0.0
H1061 H 0.30853 0.11295 0.63779 0.0
H1062 H 0.25392 0.11646 0.60328 0.0
H1063 H 0.25948 0.14085 0.57203 0.0
H1064 H 0.18178 0.39174 0.68649 0.0
H1065 H 0.15086 0.39538 0.66155 0.0
H1066 H 0.16779 0.45698 0.64922 0.0
H1067 H 0.19896 0.4534 0.67417 0.0
H1068 H 0.11776 0.42212 0.66749 0.0
H1069 H 0.15926 0.43291 0.58115 0.0
H1070 H 0.17233 0.42388 0.60726 0.0
H1071 H 0.16589 0.45012 0.60574 0.0
C1072 C 0.17887 0.40611 0.6786 0.0
C1073 C 0.1928 0.42229 0.68229 0.0
C1074 C 0.16123 0.40815 0.6643 0.0
C1075 C 0.15712 0.42638 0.65336 0.0
C1076 C 0.17087 0.44266 0.65714 0.0
H1077 H 0.05046 0.43948 0.55409 0.0
H1078 H 0.0785 0.44974 0.58219 0.0
C1079 C 0.18864 0.4406 0.67139 0.0
C1080 C 0.13836 0.42801 0.63807 0.0
H1081 H 0.1227 0.43128 0.57978 0.0
C1082 C 0.11881 0.42441 0.64838 0.0
C1083 C 0.13976 0.43113 0.61315 0.0
C1084 C 0.16041 0.4346 0.60103 0.0
C1085 C 0.10076 0.42294 0.63425 0.0
C1086 C 0.10234 0.42502 0.60921 0.0
C1087 C 0.12163 0.42977 0.59905 0.0
C1088 C 0.08487 0.41945 0.59302 0.0
C1089 C 0.08022 0.4184 0.646 0.0
C1090 C 0.07938 0.39908 0.58985 0.0
C1091 C 0.06368 0.3932 0.57378 0.0
C1092 C 0.05304 0.40759 0.56062 0.0
C1093 C 0.05834 0.42808 0.56407 0.0
C1094 C 0.07433 0.43395 0.58002 0.0
H1095 H 0.08057 0.42209 0.66564 0.0
H1096 H 0.06738 0.42698 0.63781 0.0
H1097 H 0.07673 0.40208 0.64327 0.0
H1098 H 0.0875 0.38767 0.59957 0.0
H1099 H 0.05994 0.3773 0.57164 0.0
H1100 H 0.79098 0.16829 0.7766 0.0
H1101 H 0.78299 0.1384 0.75135 0.0
H1102 H 0.72063 0.16054 0.7405 0.0
H1103 H 0.7287 0.19083 0.76559 0.0
H1104 H 0.75399 0.10829 0.7524 0.0
H1105 H 0.74288 0.15457 0.67243 0.0
H1106 H 0.75342 0.16491 0.7003 0.0
H1107 H 0.72585 0.16073 0.69723 0.0
C1108 C 0.77541 0.1666 0.76929 0.0
C1109 C 0.76045 0.18189 0.773 0.0
C1110 C 0.7709 0.14955 0.75478 0.0
C1111 C 0.75136 0.14745 0.74371 0.0
C1112 C 0.73597 0.16212 0.74845 0.0
H1113 H 0.71375 0.05413 0.63709 0.0
H1114 H 0.71296 0.0808 0.66876 0.0
C1115 C 0.74054 0.17933 0.76283 0.0
C1116 C 0.74781 0.13045 0.72616 0.0
H1117 H 0.73942 0.11941 0.66653 0.0
C1118 C 0.75064 0.1107 0.73367 0.0
C1119 C 0.74359 0.13369 0.70168 0.0
C1120 C 0.74143 0.1546 0.6923 0.0
C1121 C 0.74968 0.09412 0.71725 0.0
C1122 C 0.74582 0.09744 0.69281 0.0
C1123 C 0.74236 0.11705 0.68538 0.0
C1124 C 0.74627 0.08083 0.67443 0.0
C1125 C 0.75304 0.07317 0.72596 0.0
C1126 C 0.76533 0.07225 0.66714 0.0
C1127 C 0.76591 0.05715 0.64889 0.0
C1128 C 0.74738 0.05037 0.6378 0.0
C1129 C 0.72829 0.05897 0.64533 0.0
C1130 C 0.72778 0.07419 0.6634 0.0
H1131 H 0.75242 0.07282 0.74586 0.0
H1132 H 0.74111 0.06266 0.7182 0.0
H1133 H 0.76856 0.0676 0.71987 0.0
H1134 H 0.77978 0.07741 0.67537 0.0
H1135 H 0.78083 0.0508 0.64352 0.0
H1136 H 0.82345 0.33413 0.35178 0.0
H1137 H 0.85521 0.34917 0.36895 0.0
H1138 H 0.83235 0.33925 0.44024 0.0
H1139 H 0.80119 0.3232 0.42334 0.0
H1140 H 0.86354 0.38137 0.40076 0.0
H1141 H 0.88726 0.30906 0.43896 0.0
H1142 H 0.86615 0.31073 0.41781 0.0
H1143 H 0.86209 0.31759 0.44906 0.0
C1144 C 0.82521 0.33504 0.37111 0.0
C1145 C 0.80982 0.32718 0.38613 0.0
C1146 C 0.84329 0.34383 0.38089 0.0
C1147 C 0.84631 0.34497 0.40585 0.0
C1148 C 0.83052 0.33815 0.42091 0.0
H1149 H 0.9446 0.40794 0.4872 0.0
H1150 H 0.91211 0.39985 0.46574 0.0
C1151 C 0.81255 0.3292 0.41118 0.0
C1152 C 0.86639 0.35226 0.4161 0.0
H1153 H 0.9072 0.33785 0.45059 0.0
C1154 C 0.87316 0.37188 0.4116 0.0
C1155 C 0.87907 0.33971 0.42988 0.0
C1156 C 0.87341 0.31804 0.43404 0.0
C1157 C 0.89218 0.37937 0.42084 0.0
C1158 C 0.90448 0.36702 0.43531 0.0
C1159 C 0.89773 0.34737 0.43959 0.0
C1160 C 0.92464 0.37374 0.44601 0.0
C1161 C 0.89908 0.40023 0.41459 0.0
C1162 C 0.94249 0.36184 0.44206 0.0
C1163 C 0.96084 0.36619 0.45462 0.0
C1164 C 0.96183 0.38267 0.47125 0.0
C1165 C 0.94432 0.39524 0.47433 0.0
C1166 C 0.92578 0.39068 0.46198 0.0
H1167 H 0.89123 0.40524 0.39811 0.0
H1168 H 0.89496 0.41106 0.42956 0.0
H1169 H 0.9162 0.40083 0.41183 0.0
H1170 H 0.94202 0.34873 0.42979 0.0
H1171 H 0.97413 0.3563 0.45175 0.0
H1172 H 0.75995 0.86696 0.37492 0.0
H1173 H 0.76544 0.89278 0.40674 0.0
H1174 H 0.79964 0.85016 0.44781 0.0
H1175 H 0.7941 0.82411 0.41592 0.0
H1176 H 0.76983 0.86897 0.47411 0.0
H1177 H 0.81543 0.92609 0.42755 0.0
H1178 H 0.79239 0.91919 0.41097 0.0
H1179 H 0.81228 0.90057 0.41548 0.0
C1180 C 0.76904 0.86319 0.39047 0.0
C1181 C 0.77665 0.84353 0.39291 0.0
C1182 C 0.77225 0.878 0.40862 0.0
C1183 C 0.78331 0.87351 0.42943 0.0
C1184 C 0.79121 0.85397 0.43179 0.0
H1185 H 0.79784 0.97176 0.54002 0.0
H1186 H 0.80707 0.94421 0.51117 0.0
C1187 C 0.78793 0.8391 0.41365 0.0
C1188 C 0.78471 0.88872 0.44959 0.0
H1189 H 0.79584 0.93829 0.46251 0.0
C1190 C 0.77591 0.884 0.47172 0.0
C1191 C 0.79296 0.90823 0.44664 0.0
C1192 C 0.804 0.91375 0.42394 0.0
C1193 C 0.77385 0.89868 0.4904 0.0
C1194 C 0.7804 0.91864 0.48664 0.0
C1195 C 0.79052 0.92304 0.46517 0.0
C1196 C 0.77516 0.93542 0.50389 0.0
C1197 C 0.7642 0.89278 0.51378 0.0
C1198 C 0.75419 0.93984 0.50881 0.0
C1199 C 0.74889 0.95547 0.52514 0.0
C1200 C 0.76445 0.96713 0.53679 0.0
C1201 C 0.78549 0.96302 0.53139 0.0
C1202 C 0.7908 0.94729 0.51497 0.0
H1203 H 0.7663 0.87644 0.51662 0.0
H1204 H 0.77106 0.90152 0.52928 0.0
H1205 H 0.74722 0.89589 0.51335 0.0
H1206 H 0.74189 0.93116 0.49998 0.0
H1207 H 0.73253 0.9583 0.52871 0.0
H1208 H 0.19077 0.84698 0.34091 0.0
H1209 H 0.16525 0.83582 0.37012 0.0
H1210 H 0.13818 0.89535 0.37417 0.0
H1211 H 0.16362 0.9066 0.34483 0.0
H1212 H 0.15904 0.84988 0.41645 0.0
H1213 H 0.08721 0.85995 0.36284 0.0
H1214 H 0.11291 0.86034 0.34972 0.0
H1215 H 0.10301 0.88221 0.36614 0.0
C1216 C 0.17941 0.85771 0.34804 0.0
C1217 C 0.1792 0.87767 0.34052 0.0
C1218 C 0.16478 0.85129 0.36466 0.0
C1219 C 0.14961 0.86466 0.37407 0.0
C1220 C 0.14941 0.88463 0.36671 0.0
H1221 H 0.05436 0.85268 0.48423 0.0
H1222 H 0.07828 0.8653 0.45403 0.0
C1223 C 0.16398 0.89105 0.34998 0.0
C1224 C 0.13453 0.85781 0.39222 0.0
H1225 H 0.08258 0.85201 0.40365 0.0
C1226 C 0.14233 0.85028 0.41361 0.0
C1227 C 0.11271 0.85839 0.38851 0.0
C1228 C 0.10342 0.86548 0.36548 0.0
C1229 C 0.12893 0.84347 0.43145 0.0
C1230 C 0.10716 0.84399 0.4277 0.0
C1231 C 0.0993 0.85167 0.40645 0.0
C1232 C 0.09233 0.83626 0.4455 0.0
C1233 C 0.13815 0.836 0.45433 0.0
C1234 C 0.0921 0.8157 0.45037 0.0
C1235 C 0.07844 0.80842 0.46752 0.0
C1236 C 0.06472 0.82158 0.48014 0.0
C1237 C 0.06477 0.84215 0.47491 0.0
C1238 C 0.07839 0.84939 0.45765 0.0
H1239 H 0.1546 0.84088 0.45679 0.0
H1240 H 0.12897 0.84149 0.47019 0.0
H1241 H 0.13779 0.81926 0.45369 0.0
H1242 H 0.10253 0.80527 0.44091 0.0
H1243 H 0.07879 0.7925 0.47102 0.0
H1244 H 0.25793 0.33109 0.33732 0.0
H1245 H 0.26272 0.30542 0.36699 0.0
H1246 H 0.28821 0.26468 0.31223 0.0
H1247 H 0.28365 0.2904 0.28235 0.0
H1248 H 0.25849 0.24696 0.3435 0.0
H1249 H 0.32037 0.28947 0.39345 0.0
H1250 H 0.29694 0.30363 0.38899 0.0
H1251 H 0.31241 0.29545 0.36351 0.0
C1252 C 0.26468 0.31671 0.3316 0.0
C1253 C 0.27065 0.31284 0.30756 0.0
C1254 C 0.26737 0.30207 0.34856 0.0
C1255 C 0.27614 0.28333 0.34185 0.0
C1256 C 0.2815 0.27912 0.31774 0.0
H1257 H 0.32486 0.19925 0.44325 0.0
H1258 H 0.32025 0.22133 0.40967 0.0
C1259 C 0.27881 0.29378 0.30071 0.0
C1260 C 0.2799 0.26826 0.36014 0.0
H1261 H 0.30638 0.26089 0.4121 0.0
C1262 C 0.26904 0.24991 0.35844 0.0
C1263 C 0.29389 0.27209 0.37938 0.0
C1264 C 0.30674 0.29114 0.38141 0.0
C1265 C 0.27139 0.23547 0.37594 0.0
C1266 C 0.28473 0.23968 0.39572 0.0
C1267 C 0.29601 0.2578 0.39703 0.0
C1268 C 0.28717 0.22559 0.4154 0.0
C1269 C 0.25971 0.21579 0.37302 0.0
C1270 C 0.27011 0.2208 0.42983 0.0
C1271 C 0.27267 0.20819 0.44905 0.0
C1272 C 0.29239 0.20024 0.45427 0.0
C1273 C 0.30945 0.20509 0.43974 0.0
C1274 C 0.30686 0.2177 0.42053 0.0
H1275 H 0.25471 0.21271 0.35414 0.0
H1276 H 0.26943 0.203 0.37873 0.0
H1277 H 0.24554 0.21652 0.38445 0.0
H1278 H 0.25486 0.22709 0.42647 0.0
H1279 H 0.25923 0.20482 0.45994 0.0
H1280 H 0.7399 0.83622 0.9048 0.0
H1281 H 0.71195 0.85407 0.92659 0.0
H1282 H 0.66745 0.83164 0.87403 0.0
H1283 H 0.69544 0.81432 0.85157 0.0
H1284 H 0.66058 0.87249 0.89022 0.0
H1285 H 0.67077 0.82084 0.96543 0.0
H1286 H 0.69364 0.83458 0.95723 0.0
H1287 H 0.68267 0.81609 0.9364 0.0
C1288 C 0.72426 0.83546 0.89752 0.0
C1289 C 0.71987 0.82366 0.87654 0.0
C1290 C 0.70828 0.84553 0.91014 0.0
C1291 C 0.68762 0.84387 0.90213 0.0
C1292 C 0.68331 0.833 0.88057 0.0
H1293 H 0.57243 0.84783 0.97692 0.0
H1294 H 0.60353 0.84073 0.953 0.0
C1295 C 0.69928 0.82297 0.86788 0.0
C1296 C 0.67026 0.85208 0.91707 0.0
H1297 H 0.6447 0.84558 0.9699 0.0
C1298 C 0.65717 0.86677 0.90774 0.0
C1299 C 0.66579 0.84439 0.9398 0.0
C1300 C 0.67881 0.82799 0.95031 0.0
C1301 C 0.63949 0.87379 0.92045 0.0
C1302 C 0.63498 0.86598 0.94308 0.0
C1303 C 0.64831 0.85159 0.95258 0.0
C1304 C 0.61563 0.87114 0.95644 0.0
C1305 C 0.62533 0.88889 0.90923 0.0
C1306 C 0.61206 0.89068 0.96621 0.0
C1307 C 0.59417 0.89485 0.97997 0.0
C1308 C 0.57968 0.87948 0.98424 0.0
C1309 C 0.58326 0.86003 0.97408 0.0
C1310 C 0.60104 0.85591 0.96038 0.0
H1311 H 0.6291 0.89085 0.89001 0.0
H1312 H 0.6088 0.88415 0.91067 0.0
H1313 H 0.62701 0.90373 0.91899 0.0
H1314 H 0.6233 0.90256 0.96364 0.0
H1315 H 0.59189 0.90997 0.98761 0.0
H1316 H 0.31416 0.81678 0.81817 0.0
H1317 H 0.31151 0.79135 0.84857 0.0
H1318 H 0.24727 0.7808 0.82909 0.0
H1319 H 0.24999 0.80567 0.79814 0.0
H1320 H 0.2848 0.79322 0.8874 0.0
H1321 H 0.27017 0.72374 0.83118 0.0
H1322 H 0.28009 0.7466 0.81892 0.0
H1323 H 0.2527 0.74396 0.82493 0.0
C1324 C 0.29962 0.8087 0.81997 0.0
C1325 C 0.28229 0.81321 0.80573 0.0
C1326 C 0.2981 0.79428 0.83745 0.0
C1327 C 0.27927 0.78403 0.84088 0.0
C1328 C 0.26206 0.78825 0.82643 0.0
H1329 H 0.22716 0.70588 0.94464 0.0
H1330 H 0.2341 0.72818 0.91176 0.0
C1331 C 0.26357 0.80264 0.80895 0.0
C1332 C 0.27715 0.76999 0.86068 0.0
H1333 H 0.26328 0.7219 0.87318 0.0
C1334 C 0.28033 0.77756 0.8843 0.0
C1335 C 0.27125 0.74961 0.85654 0.0
C1336 C 0.26855 0.74042 0.8315 0.0
C1337 C 0.27714 0.76543 0.90398 0.0
C1338 C 0.2709 0.74516 0.89985 0.0
C1339 C 0.268 0.7375 0.87623 0.0
C1340 C 0.26689 0.73174 0.91986 0.0
C1341 C 0.27985 0.77456 0.92906 0.0
C1342 C 0.28309 0.72629 0.93517 0.0
C1343 C 0.27919 0.71357 0.95401 0.0
C1344 C 0.25902 0.70602 0.95778 0.0
C1345 C 0.24285 0.71147 0.9423 0.0
C1346 C 0.24679 0.72417 0.92347 0.0
H1347 H 0.28022 0.79131 0.92926 0.0
H1348 H 0.26705 0.76978 0.94098 0.0
H1349 H 0.29478 0.76927 0.93659 0.0
H1350 H 0.29878 0.73176 0.93243 0.0
H1351 H 0.292 0.70958 0.96552 0.0
H1352 H 0.36338 0.34646 0.82522 0.0
H1353 H 0.38982 0.33609 0.85371 0.0
H1354 H 0.39984 0.39825 0.87646 0.0
H1355 H 0.37279 0.40872 0.84869 0.0
H1356 H 0.43153 0.34594 0.85724 0.0
H1357 H 0.38905 0.3717 0.93982 0.0
H1358 H 0.37669 0.36966 0.91074 0.0
H1359 H 0.39299 0.39096 0.91861 0.0
C1360 C 0.37102 0.35793 0.83648 0.0
C1361 C 0.36578 0.37842 0.83483 0.0
C1362 C 0.38625 0.35198 0.85262 0.0
C1363 C 0.39655 0.36635 0.86749 0.0
C1364 C 0.39178 0.38686 0.8655 0.0
H1365 H 0.49076 0.35513 0.97872 0.0
H1366 H 0.467 0.36774 0.94846 0.0
C1367 C 0.37649 0.39284 0.84939 0.0
C1368 C 0.41231 0.3598 0.88501 0.0
H1369 H 0.42343 0.35973 0.94495 0.0
C1370 C 0.42976 0.34894 0.87642 0.0
C1371 C 0.40996 0.36371 0.91003 0.0
C1372 C 0.39108 0.37448 0.92043 0.0
C1373 C 0.44499 0.34202 0.89216 0.0
C1374 C 0.44257 0.34585 0.91716 0.0
C1375 C 0.42526 0.35688 0.92575 0.0
C1376 C 0.45756 0.33814 0.93479 0.0
C1377 C 0.46368 0.33085 0.88192 0.0
C1378 C 0.46002 0.31732 0.93721 0.0
C1379 C 0.47353 0.31005 0.9545 0.0
C1380 C 0.48481 0.32349 0.96978 0.0
C1381 C 0.48237 0.34436 0.96721 0.0
C1382 C 0.46878 0.35161 0.94996 0.0
H1383 H 0.46586 0.33352 0.86254 0.0
H1384 H 0.4781 0.33541 0.89173 0.0
H1385 H 0.46142 0.31442 0.88386 0.0
H1386 H 0.45121 0.30668 0.92596 0.0
H1387 H 0.47497 0.2939 0.95604 0.0
H1388 H 0.82398 0.31351 0.94697 0.0
H1389 H 0.83148 0.33977 0.97801 0.0
H1390 H 0.81526 0.38554 0.92862 0.0
H1391 H 0.80852 0.35954 0.89731 0.0
H1392 H 0.85265 0.3932 0.95328 0.0
H1393 H 0.78817 0.37417 0.01521 0.0
H1394 H 0.80556 0.35385 0.00678 0.0
H1395 H 0.78923 0.36453 0.98446 0.0
C1396 C 0.82202 0.32918 0.94274 0.0
C1397 C 0.81547 0.33444 0.91975 0.0
C1398 C 0.82618 0.34413 0.96052 0.0
C1399 C 0.82373 0.36455 0.95562 0.0
C1400 C 0.81718 0.36984 0.93274 0.0
H1401 H 0.80404 0.47063 0.04152 0.0
H1402 H 0.80402 0.44111 0.0141 0.0
C1403 C 0.81308 0.35495 0.91497 0.0
C1404 C 0.82801 0.38059 0.97418 0.0
H1405 H 0.8101 0.40111 0.0274 0.0
C1406 C 0.8435 0.39488 0.96962 0.0
C1407 C 0.81595 0.38268 0.99536 0.0
C1408 C 0.79868 0.36812 0.00078 0.0
C1409 C 0.84686 0.41159 0.98541 0.0
C1410 C 0.83457 0.41384 0.00639 0.0
C1411 C 0.81953 0.39923 0.0113 0.0
C1412 C 0.83555 0.43219 0.02232 0.0
C1413 C 0.86285 0.42716 0.97904 0.0
C1414 C 0.85344 0.43708 0.03583 0.0
C1415 C 0.85357 0.45412 0.05154 0.0
C1416 C 0.83574 0.46635 0.05404 0.0
C1417 C 0.81802 0.46151 0.04012 0.0
C1418 C 0.81794 0.44461 0.02446 0.0
H1419 H 0.86849 0.4249 0.96026 0.0
H1420 H 0.85626 0.44259 0.98137 0.0
H1421 H 0.87643 0.42615 0.99124 0.0
H1422 H 0.8671 0.42751 0.0346 0.0
H1423 H 0.8674 0.45741 0.06213 0.0
H1424 H 0.6562 0.24918 0.23236 0.0
H1425 H 0.63451 0.25455 0.19712 0.0
H1426 H 0.64718 0.31837 0.20353 0.0
H1427 H 0.66941 0.31306 0.23838 0.0
H1428 H 0.59883 0.27888 0.19526 0.0
H1429 H 0.66005 0.30407 0.13263 0.0
H1430 H 0.6661 0.29148 0.15987 0.0
H1431 H 0.65916 0.31773 0.16115 0.0
C1432 C 0.65464 0.26432 0.22605 0.0
C1433 C 0.6646 0.28069 0.23811 0.0
C1434 C 0.64214 0.26737 0.20602 0.0
C1435 C 0.63945 0.28681 0.19756 0.0
C1436 C 0.64933 0.3032 0.20954 0.0
H1437 H 0.56518 0.33163 0.07998 0.0
H1438 H 0.58794 0.3288 0.11499 0.0
C1439 C 0.66183 0.30017 0.2296 0.0
C1440 C 0.62568 0.28995 0.17674 0.0
H1441 H 0.62509 0.30591 0.11929 0.0
C1442 C 0.60456 0.28475 0.17862 0.0
C1443 C 0.63321 0.29773 0.15515 0.0
C1444 C 0.6559 0.30294 0.15189 0.0
C1445 C 0.59072 0.2872 0.15949 0.0
C1446 C 0.59831 0.29471 0.13778 0.0
C1447 C 0.61936 0.30016 0.13598 0.0
C1448 C 0.58472 0.29643 0.1165 0.0
C1449 C 0.56805 0.28194 0.16279 0.0
C1450 C 0.57568 0.27913 0.10558 0.0
C1451 C 0.5627 0.28068 0.08565 0.0
C1452 C 0.5586 0.29957 0.07615 0.0
C1453 C 0.56796 0.31687 0.08691 0.0
C1454 C 0.58097 0.31529 0.10688 0.0
H1455 H 0.56375 0.28165 0.18209 0.0
H1456 H 0.55779 0.29287 0.15395 0.0
H1457 H 0.56504 0.26672 0.15448 0.0
H1458 H 0.57871 0.26439 0.11246 0.0
H1459 H 0.55587 0.26703 0.07774 0.0
H1460 H 0.78156 0.66138 0.2683 0.0
H1461 H 0.80012 0.63176 0.25268 0.0
H1462 H 0.85885 0.66192 0.26534 0.0
H1463 H 0.84032 0.69172 0.28187 0.0
H1464 H 0.85307 0.64642 0.21802 0.0
H1465 H 0.83564 0.58801 0.28261 0.0
H1466 H 0.81262 0.60182 0.27539 0.0
H1467 H 0.83394 0.61469 0.29047 0.0
C1468 C 0.79843 0.66159 0.26858 0.0
C1469 C 0.80942 0.67896 0.27644 0.0
C1470 C 0.80904 0.64458 0.25962 0.0
C1471 C 0.83086 0.64452 0.25826 0.0
C1472 C 0.842 0.66163 0.2665 0.0
H1473 H 0.87639 0.54878 0.15509 0.0
H1474 H 0.88132 0.57416 0.18811 0.0
C1475 C 0.83137 0.67867 0.27571 0.0
C1476 C 0.84137 0.62745 0.24539 0.0
H1477 H 0.83945 0.57614 0.24057 0.0
C1478 C 0.85087 0.63102 0.22328 0.0
C1479 C 0.83866 0.60743 0.25244 0.0
C1480 C 0.82985 0.60277 0.27667 0.0
C1481 C 0.85542 0.61503 0.20681 0.0
C1482 C 0.85045 0.59514 0.21285 0.0
C1483 C 0.84309 0.59147 0.23596 0.0
C1484 C 0.84834 0.57891 0.19408 0.0
C1485 C 0.86352 0.61961 0.18222 0.0
C1486 C 0.82824 0.57315 0.18685 0.0
C1487 C 0.82538 0.5589 0.16813 0.0
C1488 C 0.8426 0.54998 0.15626 0.0
C1489 C 0.86283 0.55543 0.16387 0.0
C1490 C 0.86568 0.56989 0.18266 0.0
H1491 H 0.86639 0.63598 0.18031 0.0
H1492 H 0.87834 0.61137 0.17874 0.0
H1493 H 0.85215 0.61437 0.1683 0.0
H1494 H 0.81468 0.58003 0.19543 0.0
H1495 H 0.80959 0.55498 0.16288 0.0
H1496 H 0.35015 0.95652 0.19586 0.0
H1497 H 0.38197 0.9618 0.17245 0.0
H1498 H 0.36781 0.90887 0.12786 0.0
H1499 H 0.33603 0.90361 0.15098 0.0
H1500 H 0.41466 0.93301 0.16811 0.0
H1501 H 0.38361 0.95149 0.07902 0.0
H1502 H 0.36828 0.95399 0.10622 0.0
H1503 H 0.37145 0.92972 0.09102 0.0
C1504 C 0.35364 0.94628 0.18074 0.0
C1505 C 0.34067 0.92964 0.17522 0.0
C1506 C 0.37181 0.94928 0.16747 0.0
C1507 C 0.37706 0.93589 0.14825 0.0
C1508 C 0.36383 0.91959 0.14234 0.0
H1509 H 0.48033 0.88264 0.08423 0.0
H1510 H 0.45137 0.8953 0.10883 0.0
C1511 C 0.34581 0.91649 0.1557 0.0
C1512 C 0.39728 0.93757 0.13572 0.0
H1513 H 0.4186 0.93809 0.07964 0.0
C1514 C 0.4156 0.93461 0.14885 0.0
C1515 C 0.39849 0.93989 0.11066 0.0
C1516 C 0.37941 0.94416 0.09592 0.0
C1517 C 0.43491 0.93233 0.13725 0.0
C1518 C 0.43583 0.93297 0.11197 0.0
C1519 C 0.4178 0.93749 0.09904 0.0
C1520 C 0.45455 0.92619 0.09846 0.0
C1521 C 0.45407 0.92835 0.15198 0.0
C1522 C 0.46591 0.93942 0.08446 0.0
C1523 C 0.48268 0.93223 0.07043 0.0
C1524 C 0.48794 0.91164 0.06988 0.0
C1525 C 0.47662 0.89856 0.08419 0.0
C1526 C 0.46014 0.90578 0.09837 0.0
H1527 H 0.45204 0.93373 0.17099 0.0
H1528 H 0.45704 0.91187 0.15169 0.0
H1529 H 0.46796 0.93579 0.14442 0.0
H1530 H 0.46165 0.95521 0.08419 0.0
H1531 H 0.49107 0.94261 0.05947 0.0
H1532 H 0.22933 0.49175 0.16782 0.0
H1533 H 0.22989 0.5234 0.14691 0.0
H1534 H 0.29599 0.5167 0.13505 0.0
H1535 H 0.29543 0.4846 0.15492 0.0
H1536 H 0.25176 0.55842 0.15756 0.0
H1537 H 0.27436 0.52568 0.0679 0.0
H1538 H 0.2656 0.51036 0.09191 0.0
H1539 H 0.29191 0.51966 0.09161 0.0
C1540 C 0.24393 0.49685 0.16044 0.0
C1541 C 0.26231 0.48556 0.16287 0.0
C1542 C 0.24425 0.51502 0.1487 0.0
C1543 C 0.26292 0.52223 0.13916 0.0
C1544 C 0.28135 0.51121 0.1419 0.0
H1545 H 0.28917 0.62855 0.05737 0.0
H1546 H 0.29292 0.60006 0.0836 0.0
C1547 C 0.28103 0.49298 0.15351 0.0
C1548 C 0.26307 0.54136 0.12646 0.0
H1549 H 0.27321 0.56129 0.07222 0.0
C1550 C 0.25646 0.55906 0.13891 0.0
C1551 C 0.26922 0.54212 0.10213 0.0
C1552 C 0.27549 0.52343 0.0875 0.0
C1553 C 0.25584 0.57755 0.12763 0.0
C1554 C 0.26186 0.57825 0.1033 0.0
C1555 C 0.26878 0.56065 0.09096 0.0
C1556 C 0.25983 0.59679 0.08975 0.0
C1557 C 0.24876 0.59621 0.14175 0.0
C1558 C 0.24 0.60438 0.08476 0.0
C1559 C 0.23779 0.62051 0.06972 0.0
C1560 C 0.2554 0.62934 0.05941 0.0
C1561 C 0.27532 0.62213 0.06512 0.0
C1562 C 0.2775 0.60586 0.08004 0.0
H1563 H 0.24951 0.59419 0.16143 0.0
H1564 H 0.25842 0.60943 0.13734 0.0
H1565 H 0.23237 0.59954 0.137 0.0
H1566 H 0.22618 0.59736 0.09182 0.0
H1567 H 0.22223 0.62572 0.06569 0.0
H1568 H 0.31771 0.29608 0.17384 0.0
H1569 H 0.34542 0.27801 0.15156 0.0
H1570 H 0.38898 0.32493 0.17285 0.0
H1571 H 0.36156 0.34295 0.195 0.0
H1572 H 0.36576 0.29254 0.11367 0.0
H1573 H 0.42345 0.27534 0.18322 0.0
H1574 H 0.39689 0.28225 0.1905 0.0
H1575 H 0.41615 0.30141 0.18558 0.0
C1576 C 0.33329 0.30235 0.17406 0.0
C1577 C 0.33746 0.32091 0.18624 0.0
C1578 C 0.3491 0.29197 0.16142 0.0
C1579 C 0.36935 0.29994 0.16088 0.0
C1580 C 0.37365 0.31816 0.17361 0.0
H1581 H 0.47437 0.31081 0.07708 0.0
H1582 H 0.44542 0.31058 0.10537 0.0
C1583 C 0.35791 0.32849 0.18626 0.0
C1584 C 0.38546 0.29072 0.14481 0.0
H1585 H 0.43721 0.27895 0.1428 0.0
C1586 C 0.38123 0.28899 0.12008 0.0
C1587 C 0.4056 0.28599 0.1532 0.0
C1588 C 0.41071 0.28614 0.17962 0.0
C1589 C 0.39707 0.28426 0.1034 0.0
C1590 C 0.41753 0.28113 0.11174 0.0
C1591 C 0.42147 0.2815 0.1365 0.0
C1592 C 0.43543 0.28033 0.09507 0.0
C1593 C 0.39221 0.28401 0.0769 0.0
C1594 C 0.4394 0.26328 0.08002 0.0
C1595 C 0.45605 0.26332 0.06375 0.0
C1596 C 0.46883 0.28047 0.06228 0.0
C1597 C 0.4648 0.29739 0.07762 0.0
C1598 C 0.44832 0.29728 0.09389 0.0
H1599 H 0.37562 0.28764 0.07335 0.0
H1600 H 0.40223 0.29507 0.06793 0.0
H1601 H 0.39569 0.26886 0.06867 0.0
H1602 H 0.42958 0.25004 0.08079 0.0
H1603 H 0.45879 0.25004 0.0522 0.0
H1604 H 0.72181 0.36542 0.28113 0.0
H1605 H 0.72944 0.39339 0.25526 0.0
H1606 H 0.78405 0.36217 0.22825 0.0
H1607 H 0.77699 0.33441 0.25454 0.0
H1608 H 0.76906 0.4169 0.25367 0.0
H1609 H 0.7481 0.37647 0.16758 0.0
H1610 H 0.73889 0.36856 0.19635 0.0
H1611 H 0.7652 0.36329 0.18712 0.0
C1612 C 0.73559 0.36457 0.26992 0.0
C1613 C 0.74875 0.34759 0.26992 0.0
C1614 C 0.73983 0.38052 0.25504 0.0
C1615 C 0.75716 0.3797 0.2397 0.0
C1616 C 0.77041 0.36291 0.23972 0.0
H1617 H 0.82228 0.46883 0.16085 0.0
H1618 H 0.81108 0.44311 0.18821 0.0
C1619 C 0.76629 0.34702 0.2547 0.0
C1620 C 0.76158 0.39652 0.22385 0.0
H1621 H 0.76418 0.40847 0.16493 0.0
C1622 C 0.7679 0.41513 0.23428 0.0
C1623 C 0.75985 0.39415 0.1986 0.0
C1624 C 0.75249 0.37461 0.18664 0.0
C1625 C 0.77311 0.43133 0.22001 0.0
C1626 C 0.77197 0.42877 0.19473 0.0
C1627 C 0.7651 0.41033 0.18433 0.0
C1628 C 0.77848 0.44486 0.17873 0.0
C1629 C 0.77981 0.45108 0.23201 0.0
C1630 C 0.76384 0.45423 0.16421 0.0
C1631 C 0.77017 0.46903 0.14858 0.0
C1632 C 0.7913 0.47448 0.147 0.0
C1633 C 0.80589 0.46501 0.16162 0.0
C1634 C 0.79953 0.45037 0.17735 0.0
H1635 H 0.77563 0.452 0.25138 0.0
H1636 H 0.79698 0.45259 0.23048 0.0
H1637 H 0.77257 0.46397 0.22307 0.0
H1638 H 0.74754 0.45008 0.16496 0.0
H1639 H 0.75855 0.47597 0.13751 0.0
H1640 H 0.64469 0.76929 0.22963 0.0
H1641 H 0.61782 0.7802 0.20161 0.0
H1642 H 0.6552 0.83188 0.18542 0.0
H1643 H 0.68199 0.8212 0.21343 0.0
H1644 H 0.60914 0.83831 0.19596 0.0
H1645 H 0.62804 0.77871 0.12579 0.0
H1646 H 0.62457 0.77123 0.15623 0.0
H1647 H 0.64646 0.78657 0.14884 0.0
C1648 C 0.64705 0.78306 0.22024 0.0
C1649 C 0.66546 0.79433 0.22351 0.0
C1650 C 0.63179 0.7892 0.20421 0.0
C1651 C 0.6347 0.80673 0.19142 0.0
C1652 C 0.65278 0.81827 0.19512 0.0
H1653 H 0.57422 0.87639 0.0856 0.0
H1654 H 0.5947 0.86391 0.11876 0.0
C1655 C 0.66808 0.81208 0.21097 0.0
C1656 C 0.61922 0.8129 0.17363 0.0
H1657 H 0.60183 0.80189 0.11678 0.0
C1658 C 0.60738 0.83031 0.17869 0.0
C1659 C 0.617 0.80232 0.15126 0.0
C1660 C 0.62971 0.7837 0.14498 0.0
C1661 C 0.59339 0.83757 0.16176 0.0
C1662 C 0.59169 0.82739 0.13901 0.0
C1663 C 0.6032 0.80968 0.13422 0.0
C1664 C 0.5787 0.83522 0.11954 0.0
C1665 C 0.5805 0.85598 0.16847 0.0
C1666 C 0.56328 0.82303 0.10855 0.0
C1667 C 0.55174 0.83 0.08936 0.0
C1668 C 0.55544 0.84931 0.08079 0.0
C1669 C 0.57087 0.86151 0.09189 0.0
C1670 C 0.58249 0.85446 0.11097 0.0
H1671 H 0.57868 0.858 0.18825 0.0
H1672 H 0.58845 0.86957 0.16201 0.0
H1673 H 0.56479 0.85502 0.16017 0.0
H1674 H 0.56023 0.80807 0.11479 0.0
H1675 H 0.53996 0.82023 0.08121 0.0
H1676 H 0.18343 0.81305 0.22214 0.0
H1677 H 0.17782 0.78492 0.1928 0.0
H1678 H 0.20088 0.82148 0.13637 0.0
H1679 H 0.20614 0.84957 0.16533 0.0
H1680 H 0.16789 0.79754 0.12128 0.0
H1681 H 0.22791 0.75303 0.16792 0.0
H1682 H 0.20579 0.76066 0.18584 0.0
H1683 H 0.22341 0.77939 0.17527 0.0
C1684 C 0.18696 0.81513 0.2034 0.0
C1685 C 0.19521 0.8335 0.19604 0.0
C1686 C 0.18382 0.79906 0.18668 0.0
C1687 C 0.18926 0.801 0.16246 0.0
C1688 C 0.19651 0.81965 0.15494 0.0
H1689 H 0.24002 0.72098 0.05694 0.0
H1690 H 0.23051 0.74615 0.08803 0.0
C1691 C 0.19944 0.83573 0.17153 0.0
C1692 C 0.18919 0.78337 0.14517 0.0
H1693 H 0.21396 0.73867 0.13236 0.0
C1694 C 0.17774 0.78451 0.12378 0.0
C1695 C 0.20224 0.7665 0.14842 0.0
C1696 C 0.21569 0.76479 0.17048 0.0
C1697 C 0.17955 0.7696 0.10521 0.0
C1698 C 0.19291 0.75297 0.10833 0.0
C1699 C 0.20368 0.75143 0.13009 0.0
C1700 C 0.19784 0.73812 0.08849 0.0
C1701 C 0.16803 0.77227 0.08197 0.0
C1702 C 0.18255 0.72531 0.07819 0.0
C1703 C 0.18794 0.71087 0.06014 0.0
C1704 C 0.20874 0.70892 0.05234 0.0
C1705 C 0.22387 0.72197 0.06256 0.0
C1706 C 0.21848 0.73639 0.08039 0.0
H1707 H 0.16139 0.78767 0.08091 0.0
H1708 H 0.17854 0.76936 0.06636 0.0
H1709 H 0.15503 0.76126 0.08053 0.0
H1710 H 0.16658 0.72619 0.08443 0.0
H1711 H 0.17595 0.70096 0.05271 0.0
H1712 H 0.34914 0.90888 0.84983 0.0
H1713 H 0.37563 0.90534 0.88096 0.0
H1714 H 0.40508 0.85775 0.83811 0.0
H1715 H 0.37864 0.86116 0.80692 0.0
H1716 H 0.38616 0.87167 0.90688 0.0
H1717 H 0.45284 0.89757 0.85259 0.0
H1718 H 0.42606 0.90127 0.84392 0.0
H1719 H 0.43826 0.8771 0.83875 0.0
C1720 C 0.36117 0.89756 0.84713 0.0
C1721 C 0.3619 0.88537 0.82589 0.0
C1722 C 0.37631 0.89562 0.86486 0.0
C1723 C 0.39246 0.88153 0.86161 0.0
C1724 C 0.393 0.86904 0.84068 0.0
H1725 H 0.47544 0.83993 0.97224 0.0
H1726 H 0.44952 0.84244 0.94036 0.0
C1727 C 0.37789 0.87099 0.82292 0.0
C1728 C 0.40864 0.87978 0.88027 0.0
H1729 H 0.46092 0.8843 0.89035 0.0
C1730 C 0.40251 0.87445 0.90331 0.0
C1731 C 0.42989 0.88367 0.87556 0.0
C1732 C 0.4372 0.89041 0.85144 0.0
C1733 C 0.41714 0.87266 0.92178 0.0
C1734 C 0.43846 0.87599 0.91688 0.0
C1735 C 0.44456 0.88156 0.89392 0.0
C1736 C 0.45462 0.87424 0.93556 0.0
C1737 C 0.40961 0.86761 0.94647 0.0
C1738 C 0.46648 0.89116 0.94283 0.0
C1739 C 0.48139 0.88976 0.96092 0.0
C1740 C 0.48474 0.87138 0.97196 0.0
C1741 C 0.47314 0.85434 0.96421 0.0
C1742 C 0.45825 0.85576 0.9461 0.0
H1743 H 0.39263 0.87038 0.94867 0.0
H1744 H 0.41256 0.85141 0.9493 0.0
H1745 H 0.41808 0.87661 0.96062 0.0
H1746 H 0.46396 0.90553 0.93478 0.0
H1747 H 0.4901 0.90316 0.96641 0.0
H1748 H 0.24215 0.46685 0.85111 0.0
H1749 H 0.22877 0.49647 0.87387 0.0
H1750 H 0.2907 0.52164 0.87726 0.0
H1751 H 0.30425 0.49198 0.85473 0.0
H1752 H 0.24085 0.51389 0.92024 0.0
H1753 H 0.25454 0.56536 0.84599 0.0
H1754 H 0.25411 0.53825 0.84149 0.0
H1755 H 0.27693 0.55069 0.85357 0.0
C1756 C 0.253 0.47849 0.85715 0.0
C1757 C 0.27429 0.47707 0.8512 0.0
C1758 C 0.24529 0.49546 0.86996 0.0
C1759 C 0.2587 0.51134 0.87687 0.0
C1760 C 0.28005 0.50968 0.87167 0.0
H1761 H 0.26345 0.62279 0.9544 0.0
H1762 H 0.26749 0.59217 0.92921 0.0
C1763 C 0.28777 0.49273 0.85888 0.0
C1764 C 0.25046 0.52983 0.88928 0.0
H1765 H 0.24746 0.58085 0.88459 0.0
C1766 C 0.24198 0.52852 0.91238 0.0
C1767 C 0.25177 0.54882 0.87879 0.0
C1768 C 0.25964 0.55093 0.8535 0.0
C1769 C 0.23592 0.54592 0.92586 0.0
C1770 C 0.23817 0.565 0.91577 0.0
C1771 C 0.24579 0.56619 0.89227 0.0
C1772 C 0.23488 0.58401 0.93015 0.0
C1773 C 0.22816 0.5439 0.9512 0.0
C1774 C 0.21507 0.58979 0.93867 0.0
C1775 C 0.21265 0.60744 0.95314 0.0
C1776 C 0.23005 0.61948 0.95931 0.0
C1777 C 0.24972 0.61383 0.95015 0.0
C1778 C 0.25209 0.59633 0.93569 0.0
H1779 H 0.23015 0.52835 0.95748 0.0
H1780 H 0.23654 0.55455 0.96372 0.0
H1781 H 0.21134 0.54774 0.95205 0.0
H1782 H 0.20156 0.58058 0.93429 0.0
H1783 H 0.1973 0.61141 0.95989 0.0
H1784 H 0.71102 0.28916 0.87761 0.0
H1785 H 0.67715 0.28614 0.89713 0.0
H1786 H 0.69011 0.22381 0.91046 0.0
H1787 H 0.72427 0.22683 0.89106 0.0
H1788 H 0.64506 0.26046 0.88312 0.0
H1789 H 0.67092 0.2462 0.97623 0.0
H1790 H 0.68839 0.25555 0.95388 0.0
H1791 H 0.68114 0.22939 0.95297 0.0
C1792 C 0.70669 0.27482 0.88478 0.0
C1793 C 0.72024 0.25821 0.88278 0.0
C1794 C 0.68736 0.27312 0.89594 0.0
C1795 C 0.68116 0.25479 0.90536 0.0
C1796 C 0.69474 0.2382 0.90368 0.0
H1797 H 0.56151 0.23614 0.97936 0.0
H1798 H 0.59369 0.22837 0.95691 0.0
C1799 C 0.71421 0.23993 0.89261 0.0
C1800 C 0.66016 0.2532 0.91618 0.0
H1801 H 0.63475 0.24752 0.96933 0.0
C1802 C 0.6428 0.25743 0.90192 0.0
C1803 C 0.65724 0.2491 0.94067 0.0
C1804 C 0.67538 0.24494 0.95695 0.0
C1805 C 0.62267 0.2584 0.91169 0.0
C1806 C 0.61988 0.25516 0.93635 0.0
C1807 C 0.63704 0.24995 0.95039 0.0
C1808 C 0.59974 0.25933 0.94842 0.0
C1809 C 0.60457 0.26335 0.89572 0.0
C1810 C 0.59259 0.27925 0.95095 0.0
C1811 C 0.57443 0.28375 0.96383 0.0
C1812 C 0.563 0.26836 0.97437 0.0
C1813 C 0.56991 0.24829 0.9713 0.0
C1814 C 0.58828 0.24383 0.95859 0.0
H1815 H 0.60832 0.26035 0.87643 0.0
H1816 H 0.59056 0.25449 0.90034 0.0
H1817 H 0.60071 0.27959 0.89838 0.0
H1818 H 0.60138 0.29143 0.94344 0.0
H1819 H 0.56952 0.29935 0.96585 0.0
H1820 H 0.78589 0.66721 0.90543 0.0
H1821 H 0.78587 0.64116 0.93519 0.0
H1822 H 0.84877 0.65736 0.95533 0.0
H1823 H 0.84873 0.68371 0.92584 0.0
H1824 H 0.80982 0.60821 0.93974 0.0
H1825 H 0.82019 0.65982 0.01978 0.0
H1826 H 0.81407 0.66883 0.99053 0.0
H1827 H 0.8404 0.66206 0.9978 0.0
C1828 C 0.79976 0.66513 0.9161 0.0
C1829 C 0.81729 0.67754 0.91336 0.0
C1830 C 0.79971 0.6503 0.93317 0.0
C1831 C 0.81717 0.64754 0.94783 0.0
C1832 C 0.8349 0.65957 0.94471 0.0
H1833 H 0.84613 0.56003 0.05479 0.0
H1834 H 0.84752 0.58585 0.02473 0.0
C1835 C 0.8349 0.67455 0.92779 0.0
C1836 C 0.81681 0.6319 0.96615 0.0
H1837 H 0.8224 0.62471 0.0262 0.0
C1838 C 0.81249 0.61185 0.95865 0.0
C1839 C 0.82024 0.63665 0.99086 0.0
C1840 C 0.82378 0.65803 0.0003 0.0
C1841 C 0.81173 0.59643 0.97512 0.0
C1842 C 0.81532 0.60119 -0.00028 0.0
C1843 C 0.81974 0.62116 0.00727 0.0
C1844 C 0.81436 0.58561 0.01793 0.0
C1845 C 0.80733 0.57509 0.96616 0.0
C1846 C 0.7952 0.57712 0.02419 0.0
C1847 C 0.7943 0.56247 0.04148 0.0
C1848 C 0.81259 0.55598 0.05273 0.0
C1849 C 0.83176 0.56461 0.04642 0.0
C1850 C 0.83261 0.57938 0.02928 0.0
H1851 H 0.80835 0.57334 0.94627 0.0
H1852 H 0.81844 0.56447 0.97419 0.0
H1853 H 0.79138 0.57079 0.97171 0.0
H1854 H 0.78093 0.5819 0.01575 0.0
H1855 H 0.7793 0.55615 0.04591 0.0
loop_
_geom_bond_atom_site_label_1
_geom_bond_atom_site_label_2
_geom_bond_distance
_geom_bond_site_symmetry_2
_ccdc_geom_bond_type
H0 O26 0.856 . S
H1 O29 0.854 . S
H2 C37 0.930 . S
H3 C38 0.930 . S
H4 C40 0.930 . S
H5 C41 0.930 . S
H6 C43 0.931 . S
H7 C44 0.930 . S
H8 C46 0.930 . S
H9 C47 0.929 . S
H10 C49 0.930 . S
H11 C50 0.931 . S
H12 C52 0.930 . S
H13 C53 0.929 . S
H14 C55 0.931 . S
H15 C56 0.930 . S
H16 C58 0.930 . S
H17 C59 0.932 . S
H18 C61 0.930 . S
H19 C62 0.929 . S
H20 C64 0.931 . S
H21 C65 0.930 . S
H22 C67 0.929 . S
H23 C68 0.931 . S
H24 C70 0.930 . S
H25 C71 0.929 . S
O26 H0 0.856 . S
O26 C72 1.300 . S
O27 C72 1.209 . S
O28 C73 1.199 . S
O29 H1 0.854 . S
O29 C73 1.297 . S
C30 C31 1.404 . S
C30 C35 1.397 . S
C30 C36 1.492 . S
C31 C30 1.404 . S
C31 C32 1.396 . S
C31 C42 1.492 . S
C32 C31 1.396 . S
C32 C33 1.397 . S
C32 C48 1.509 . S
C33 C32 1.397 . S
C33 C34 1.412 . S
C33 C54 1.485 . S
C34 C33 1.412 . S
C34 C35 1.388 . S
C34 C60 1.490 . S
C35 C30 1.397 . S
C35 C34 1.388 . S
C35 C66 1.519 . S
C36 C30 1.492 . S
C36 C37 1.363 . S
C36 C41 1.390 . S
C37 H2 0.930 . S
C37 C36 1.363 . S
C37 C38 1.372 . S
C38 H3 0.930 . S
C38 C37 1.372 . S
C38 C39 1.383 . S
C39 C38 1.383 . S
C39 C40 1.395 . S
C40 H4 0.930 . S
C40 C39 1.395 . S
C40 C41 1.362 . S
C41 H5 0.930 . S
C41 C36 1.390 . S
C41 C40 1.362 . S
C42 C31 1.492 . S
C42 C43 1.377 . S
C42 C47 1.397 . S
C43 H6 0.931 . S
C43 C42 1.377 . S
C43 C44 1.376 . S
C44 H7 0.930 . S
C44 C43 1.376 . S
C44 C45 1.376 . S
C45 C44 1.376 . S
C45 C46 1.378 . S
C45 C72 1.486 . S
C46 H8 0.930 . S
C46 C45 1.378 . S
C46 C47 1.376 . S
C47 H9 0.929 . S
C47 C42 1.397 . S
C47 C46 1.376 . S
C48 C32 1.509 . S
C48 C49 1.391 . S
C48 C53 1.386 . S
C49 H10 0.930 . S
C49 C48 1.391 . S
C49 C50 1.375 . S
C50 H11 0.931 . S
C50 C49 1.375 . S
C50 C51 1.375 . S
C51 C50 1.375 . S
C51 C52 1.361 . S
C52 H12 0.930 . S
C52 C51 1.361 . S
C52 C53 1.399 . S
C53 H13 0.929 . S
C53 C48 1.386 . S
C53 C52 1.399 . S
C54 C33 1.485 . S
C54 C55 1.394 . S
C54 C59 1.360 . S
C55 H14 0.931 . S
C55 C54 1.394 . S
C55 C56 1.372 . S
C56 H15 0.930 . S
C56 C55 1.372 . S
C56 C57 1.397 . S
C57 C56 1.397 . S
C57 C58 1.390 . S
C57 C73 1.476 . S
C58 H16 0.930 . S
C58 C57 1.390 . S
C58 C59 1.366 . S
C59 H17 0.932 . S
C59 C54 1.360 . S
C59 C58 1.366 . S
C60 C34 1.490 . S
C60 C61 1.380 . S
C60 C65 1.386 . S
C61 H18 0.930 . S
C61 C60 1.380 . S
C61 C62 1.381 . S
C62 H19 0.929 . S
C62 C61 1.381 . S
C62 C63 1.371 . S
C63 C62 1.371 . S
C63 C64 1.380 . S
C64 H20 0.931 . S
C64 C63 1.380 . S
C64 C65 1.387 . S
C65 H21 0.930 . S
C65 C60 1.386 . S
C65 C64 1.387 . S
C66 C35 1.519 . S
C66 C67 1.377 . S
C66 C71 1.361 . S
C67 H22 0.929 . S
C67 C66 1.377 . S
C67 C68 1.386 . S
C68 H23 0.931 . S
C68 C67 1.386 . S
C68 C69 1.363 . S
C69 C68 1.363 . S
C69 C70 1.385 . S
C70 H24 0.930 . S
C70 C69 1.385 . S
C70 C71 1.396 . S
C71 H25 0.929 . S
C71 C66 1.361 . S
C71 C70 1.396 . S
C72 O26 1.300 . S
C72 O27 1.209 . S
C72 C45 1.486 . S
C73 O28 1.199 . S
C73 O29 1.297 . S
C73 C57 1.476 . S
H74 O100 0.856 . S
H75 O103 0.854 . S
H76 C111 0.930 . S
H77 C112 0.930 . S
H78 C114 0.930 . S
H79 C115 0.930 . S
H80 C117 0.931 . S
H81 C118 0.930 . S
H82 C120 0.930 . S
H83 C121 0.929 . S
H84 C123 0.930 . S
H85 C124 0.931 . S
H86 C126 0.930 . S
H87 C127 0.929 . S
H88 C129 0.931 . S
H89 C130 0.930 . S
H90 C132 0.930 . S
H91 C133 0.932 . S
H92 C135 0.930 . S
H93 C136 0.929 . S
H94 C138 0.931 . S
H95 C139 0.930 . S
H96 C141 0.929 . S
H97 C142 0.931 . S
H98 C144 0.930 . S
H99 C145 0.929 . S
O100 H74 0.856 . S
O100 C146 1.300 . S
O101 C146 1.209 . S
O102 C147 1.199 . S
O103 H75 0.854 . S
O103 C147 1.297 . S
C104 C105 1.404 . S
C104 C109 1.397 . S
C104 C110 1.492 . S
C105 C104 1.404 . S
C105 C106 1.396 . S
C105 C116 1.492 . S
C106 C105 1.396 . S
C106 C107 1.397 . S
C106 C122 1.509 . S
C107 C106 1.397 . S
C107 C108 1.412 . S
C107 C128 1.485 . S
C108 C107 1.412 . S
C108 C109 1.388 . S
C108 C134 1.490 . S
C109 C104 1.397 . S
C109 C108 1.388 . S
C109 C140 1.519 . S
C110 C104 1.492 . S
C110 C111 1.363 . S
C110 C115 1.390 . S
C111 H76 0.930 . S
C111 C110 1.363 . S
C111 C112 1.372 . S
C112 H77 0.930 . S
C112 C111 1.372 . S
C112 C113 1.383 . S
C113 C112 1.383 . S
C113 C114 1.395 . S
C114 H78 0.930 . S
C114 C113 1.395 . S
C114 C115 1.362 . S
C115 H79 0.930 . S
C115 C110 1.390 . S
C115 C114 1.362 . S
C116 C105 1.492 . S
C116 C117 1.377 . S
C116 C121 1.397 . S
C117 H80 0.931 . S
C117 C116 1.377 . S
C117 C118 1.376 . S
C118 H81 0.930 . S
C118 C117 1.376 . S
C118 C119 1.376 . S
C119 C118 1.376 . S
C119 C120 1.378 . S
C119 C146 1.486 . S
C120 H82 0.930 . S
C120 C119 1.378 . S
C120 C121 1.376 . S
C121 H83 0.929 . S
C121 C116 1.397 . S
C121 C120 1.376 . S
C122 C106 1.509 . S
C122 C123 1.391 . S
C122 C127 1.386 . S
C123 H84 0.930 . S
C123 C122 1.391 . S
C123 C124 1.375 . S
C124 H85 0.931 . S
C124 C123 1.375 . S
C124 C125 1.375 . S
C125 C124 1.375 . S
C125 C126 1.361 . S
C126 H86 0.930 . S
C126 C125 1.361 . S
C126 C127 1.399 . S
C127 H87 0.929 . S
C127 C122 1.386 . S
C127 C126 1.399 . S
C128 C107 1.485 . S
C128 C129 1.394 . S
C128 C133 1.360 . S
C129 H88 0.931 . S
C129 C128 1.394 . S
C129 C130 1.372 . S
C130 H89 0.930 . S
C130 C129 1.372 . S
C130 C131 1.397 . S
C131 C130 1.397 . S
C131 C132 1.390 . S
C131 C147 1.476 . S
C132 H90 0.930 . S
C132 C131 1.390 . S
C132 C133 1.366 . S
C133 H91 0.932 . S
C133 C128 1.360 . S
C133 C132 1.366 . S
C134 C108 1.490 . S
C134 C135 1.380 . S
C134 C139 1.386 . S
C135 H92 0.930 . S
C135 C134 1.380 . S
C135 C136 1.381 . S
C136 H93 0.929 . S
C136 C135 1.381 . S
C136 C137 1.371 . S
C137 C136 1.371 . S
C137 C138 1.380 . S
C138 H94 0.931 . S
C138 C137 1.380 . S
C138 C139 1.387 . S
C139 H95 0.930 . S
C139 C134 1.386 . S
C139 C138 1.387 . S
C140 C109 1.519 . S
C140 C141 1.377 . S
C140 C145 1.361 . S
C141 H96 0.929 . S
C141 C140 1.377 . S
C141 C142 1.386 . S
C142 H97 0.931 . S
C142 C141 1.386 . S
C142 C143 1.363 . S
C143 C142 1.363 . S
C143 C144 1.385 . S
C144 H98 0.930 . S
C144 C143 1.385 . S
C144 C145 1.396 . S
C145 H99 0.929 . S
C145 C140 1.361 . S
C145 C144 1.396 . S
C146 O100 1.300 . S
C146 O101 1.209 . S
C146 C119 1.486 . S
C147 O102 1.199 . S
C147 O103 1.297 . S
C147 C131 1.476 . S
H148 O174 0.856 . S
H149 O177 0.854 . S
H150 C185 0.930 . S
H151 C186 0.930 . S
H152 C188 0.930 . S
H153 C189 0.930 . S
H154 C191 0.931 . S
H155 C192 0.930 . S
H156 C194 0.930 . S
H157 C195 0.929 . S
H158 C197 0.930 . S
H159 C198 0.931 . S
H160 C200 0.930 . S
H161 C201 0.929 . S
H162 C203 0.931 . S
H163 C204 0.930 . S
H164 C206 0.930 . S
H165 C207 0.932 . S
H166 C209 0.930 . S
H167 C210 0.929 . S
H168 C212 0.931 . S
H169 C213 0.930 . S
H170 C215 0.929 . S
H171 C216 0.931 . S
H172 C218 0.930 . S
H173 C219 0.929 . S
O174 H148 0.856 . S
O174 C220 1.300 . S
O175 C220 1.209 . S
O176 C221 1.199 . S
O177 H149 0.854 . S
O177 C221 1.297 . S
C178 C179 1.404 . S
C178 C183 1.397 . S
C178 C184 1.492 . S
C179 C178 1.404 . S
C179 C180 1.396 . S
C179 C190 1.492 . S
C180 C179 1.396 . S
C180 C181 1.397 . S
C180 C196 1.509 . S
C181 C180 1.397 . S
C181 C182 1.412 . S
C181 C202 1.485 . S
C182 C181 1.412 . S
C182 C183 1.388 . S
C182 C208 1.490 . S
C183 C178 1.397 . S
C183 C182 1.388 . S
C183 C214 1.519 . S
C184 C178 1.492 . S
C184 C185 1.363 . S
C184 C189 1.390 . S
C185 H150 0.930 . S
C185 C184 1.363 . S
C185 C186 1.372 . S
C186 H151 0.930 . S
C186 C185 1.372 . S
C186 C187 1.383 . S
C187 C186 1.383 . S
C187 C188 1.395 . S
C188 H152 0.930 . S
C188 C187 1.395 . S
C188 C189 1.362 . S
C189 H153 0.930 . S
C189 C184 1.390 . S
C189 C188 1.362 . S
C190 C179 1.492 . S
C190 C191 1.377 . S
C190 C195 1.397 . S
C191 H154 0.931 . S
C191 C190 1.377 . S
C191 C192 1.376 . S
C192 H155 0.930 . S
C192 C191 1.376 . S
C192 C193 1.376 . S
C193 C192 1.376 . S
C193 C194 1.378 . S
C193 C220 1.486 . S
C194 H156 0.930 . S
C194 C193 1.378 . S
C194 C195 1.376 . S
C195 H157 0.929 . S
C195 C190 1.397 . S
C195 C194 1.376 . S
C196 C180 1.509 . S
C196 C197 1.391 . S
C196 C201 1.386 . S
C197 H158 0.930 . S
C197 C196 1.391 . S
C197 C198 1.375 . S
C198 H159 0.931 . S
C198 C197 1.375 . S
C198 C199 1.375 . S
C199 C198 1.375 . S
C199 C200 1.361 . S
C200 H160 0.930 . S
C200 C199 1.361 . S
C200 C201 1.399 . S
C201 H161 0.929 . S
C201 C196 1.386 . S
C201 C200 1.399 . S
C202 C181 1.485 . S
C202 C203 1.394 . S
C202 C207 1.360 . S
C203 H162 0.931 . S
C203 C202 1.394 . S
C203 C204 1.372 . S
C204 H163 0.930 . S
C204 C203 1.372 . S
C204 C205 1.397 . S
C205 C204 1.397 . S
C205 C206 1.390 . S
C205 C221 1.476 . S
C206 H164 0.930 . S
C206 C205 1.390 . S
C206 C207 1.366 . S
C207 H165 0.932 . S
C207 C202 1.360 . S
C207 C206 1.366 . S
C208 C182 1.490 . S
C208 C209 1.380 . S
C208 C213 1.386 . S
C209 H166 0.930 . S
C209 C208 1.380 . S
C209 C210 1.381 . S
C210 H167 0.929 . S
C210 C209 1.381 . S
C210 C211 1.371 . S
C211 C210 1.371 . S
C211 C212 1.380 . S
C212 H168 0.931 . S
C212 C211 1.380 . S
C212 C213 1.387 . S
C213 H169 0.930 . S
C213 C208 1.386 . S
C213 C212 1.387 . S
C214 C183 1.519 . S
C214 C215 1.377 . S
C214 C219 1.361 . S
C215 H170 0.929 . S
C215 C214 1.377 . S
C215 C216 1.386 . S
C216 H171 0.931 . S
C216 C215 1.386 . S
C216 C217 1.363 . S
C217 C216 1.363 . S
C217 C218 1.385 . S
C218 H172 0.930 . S
C218 C217 1.385 . S
C218 C219 1.396 . S
C219 H173 0.929 . S
C219 C214 1.361 . S
C219 C218 1.396 . S
C220 O174 1.300 . S
C220 O175 1.209 . S
C220 C193 1.486 . S
C221 O176 1.199 . S
C221 O177 1.297 . S
C221 C205 1.476 . S
H222 O248 0.856 1_545 S
H223 O251 0.854 . S
H224 C259 0.930 . S
H225 C260 0.930 . S
H226 C262 0.930 . S
H227 C263 0.930 . S
H228 C265 0.931 . S
H229 C266 0.930 . S
H230 C268 0.930 . S
H231 C269 0.929 . S
H232 C271 0.930 . S
H233 C272 0.931 . S
H234 C274 0.930 . S
H235 C275 0.929 . S
H236 C277 0.931 . S
H237 C278 0.930 . S
H238 C280 0.930 . S
H239 C281 0.932 . S
H240 C283 0.930 . S
H241 C284 0.929 . S
H242 C286 0.931 . S
H243 C287 0.930 . S
H244 C289 0.929 . S
H245 C290 0.931 . S
H246 C292 0.930 . S
H247 C293 0.929 . S
O248 H222 0.856 1_565 S
O248 C294 1.302 . S
O249 C294 1.195 1_545 S
O250 C295 1.199 . S
O251 H223 0.854 . S
O251 C295 1.297 . S
C252 C253 1.404 . S
C252 C257 1.397 . S
C252 C258 1.492 . S
C253 C252 1.404 . S
C253 C254 1.396 . S
C253 C264 1.492 . S
C254 C253 1.396 . S
C254 C255 1.397 . S
C254 C270 1.509 . S
C255 C254 1.397 . S
C255 C256 1.412 . S
C255 C276 1.485 . S
C256 C255 1.412 . S
C256 C257 1.388 . S
C256 C282 1.490 . S
C257 C252 1.397 . S
C257 C256 1.388 . S
C257 C288 1.519 . S
C258 C252 1.492 . S
C258 C259 1.363 . S
C258 C263 1.390 . S
C259 H224 0.930 . S
C259 C258 1.363 . S
C259 C260 1.372 . S
C260 H225 0.930 . S
C260 C259 1.372 . S
C260 C261 1.383 . S
C261 C260 1.383 . S
C261 C262 1.395 . S
C262 H226 0.930 . S
C262 C261 1.395 . S
C262 C263 1.362 . S
C263 H227 0.930 . S
C263 C258 1.390 . S
C263 C262 1.362 . S
C264 C253 1.492 . S
C264 C265 1.377 . S
C264 C269 1.397 . S
C265 H228 0.931 . S
C265 C264 1.377 . S
C265 C266 1.376 . S
C266 H229 0.930 . S
C266 C265 1.376 . S
C266 C267 1.376 . S
C267 C266 1.376 . S
C267 C268 1.378 . S
C267 C294 1.499 . S
C268 H230 0.930 . S
C268 C267 1.378 . S
C268 C269 1.376 . S
C269 H231 0.929 . S
C269 C264 1.397 . S
C269 C268 1.376 . S
C270 C254 1.509 . S
C270 C271 1.391 . S
C270 C275 1.386 . S
C271 H232 0.930 . S
C271 C270 1.391 . S
C271 C272 1.375 . S
C272 H233 0.931 . S
C272 C271 1.375 . S
C272 C273 1.375 . S
C273 C272 1.375 . S
C273 C274 1.361 . S
C274 H234 0.930 . S
C274 C273 1.361 . S
C274 C275 1.399 . S
C275 H235 0.929 . S
C275 C270 1.386 . S
C275 C274 1.399 . S
C276 C255 1.485 . S
C276 C277 1.394 . S
C276 C281 1.360 . S
C277 H236 0.931 . S
C277 C276 1.394 . S
C277 C278 1.372 . S
C278 H237 0.930 . S
C278 C277 1.372 . S
C278 C279 1.397 . S
C279 C278 1.397 . S
C279 C280 1.390 . S
C279 C295 1.476 . S
C280 H238 0.930 . S
C280 C279 1.390 . S
C280 C281 1.366 . S
C281 H239 0.932 . S
C281 C276 1.360 . S
C281 C280 1.366 . S
C282 C256 1.490 . S
C282 C283 1.380 . S
C282 C287 1.386 . S
C283 H240 0.930 . S
C283 C282 1.380 . S
C283 C284 1.381 . S
C284 H241 0.929 . S
C284 C283 1.381 . S
C284 C285 1.371 . S
C285 C284 1.371 . S
C285 C286 1.380 . S
C286 H242 0.931 . S
C286 C285 1.380 . S
C286 C287 1.387 . S
C287 H243 0.930 . S
C287 C282 1.386 . S
C287 C286 1.387 . S
C288 C257 1.519 . S
C288 C289 1.377 . S
C288 C293 1.361 . S
C289 H244 0.929 . S
C289 C288 1.377 . S
C289 C290 1.386 . S
C290 H245 0.931 . S
C290 C289 1.386 . S
C290 C291 1.363 . S
C291 C290 1.363 . S
C291 C292 1.385 . S
C292 H246 0.930 . S
C292 C291 1.385 . S
C292 C293 1.396 . S
C293 H247 0.929 . S
C293 C288 1.361 . S
C293 C292 1.396 . S
C294 O248 1.302 . S
C294 O249 1.195 1_565 S
C294 C267 1.499 . S
C295 O250 1.199 . S
C295 O251 1.297 . S
C295 C279 1.476 . S
H296 O322 0.856 . S
H297 O325 0.854 . S
H298 C333 0.930 . S
H299 C334 0.930 . S
H300 C336 0.930 . S
H301 C337 0.930 . S
H302 C339 0.931 . S
H303 C340 0.930 . S
H304 C342 0.930 . S
H305 C343 0.929 . S
H306 C345 0.930 . S
H307 C346 0.931 . S
H308 C348 0.930 . S
H309 C349 0.929 . S
H310 C351 0.931 . S
H311 C352 0.930 . S
H312 C354 0.930 . S
H313 C355 0.932 . S
H314 C357 0.930 . S
H315 C358 0.929 . S
H316 C360 0.931 . S
H317 C361 0.930 . S
H318 C363 0.929 . S
H319 C364 0.931 . S
H320 C366 0.930 . S
H321 C367 0.929 . S
O322 H296 0.856 . S
O322 C368 1.300 . S
O323 C368 1.209 . S
O324 C369 1.199 . S
O325 H297 0.854 . S
O325 C369 1.297 . S
C326 C327 1.404 . S
C326 C331 1.397 . S
C326 C332 1.492 . S
C327 C326 1.404 . S
C327 C328 1.396 . S
C327 C338 1.492 . S
C328 C327 1.396 . S
C328 C329 1.397 . S
C328 C344 1.509 . S
C329 C328 1.397 . S
C329 C330 1.412 . S
C329 C350 1.485 . S
C330 C329 1.412 . S
C330 C331 1.388 . S
C330 C356 1.490 . S
C331 C326 1.397 . S
C331 C330 1.388 . S
C331 C362 1.519 . S
C332 C326 1.492 . S
C332 C333 1.363 . S
C332 C337 1.390 . S
C333 H298 0.930 . S
C333 C332 1.363 . S
C333 C334 1.372 . S
C334 H299 0.930 . S
C334 C333 1.372 . S
C334 C335 1.383 . S
C335 C334 1.383 . S
C335 C336 1.395 . S
C336 H300 0.930 . S
C336 C335 1.395 . S
C336 C337 1.362 . S
C337 H301 0.930 . S
C337 C332 1.390 . S
C337 C336 1.362 . S
C338 C327 1.492 . S
C338 C339 1.377 . S
C338 C343 1.397 . S
C339 H302 0.931 . S
C339 C338 1.377 . S
C339 C340 1.376 . S
C340 H303 0.930 . S
C340 C339 1.376 . S
C340 C341 1.376 . S
C341 C340 1.376 . S
C341 C342 1.378 . S
C341 C368 1.486 . S
C342 H304 0.930 . S
C342 C341 1.378 . S
C342 C343 1.376 . S
C343 H305 0.929 . S
C343 C338 1.397 . S
C343 C342 1.376 . S
C344 C328 1.509 . S
C344 C345 1.391 . S
C344 C349 1.386 . S
C345 H306 0.930 . S
C345 C344 1.391 . S
C345 C346 1.375 . S
C346 H307 0.931 . S
C346 C345 1.375 . S
C346 C347 1.375 . S
C347 C346 1.375 . S
C347 C348 1.361 . S
C348 H308 0.930 . S
C348 C347 1.361 . S
C348 C349 1.399 . S
C349 H309 0.929 . S
C349 C344 1.386 . S
C349 C348 1.399 . S
C350 C329 1.485 . S
C350 C351 1.394 . S
C350 C355 1.360 . S
C351 H310 0.931 . S
C351 C350 1.394 . S
C351 C352 1.372 . S
C352 H311 0.930 . S
C352 C351 1.372 . S
C352 C353 1.397 . S
C353 C352 1.397 . S
C353 C354 1.390 . S
C353 C369 1.476 . S
C354 H312 0.930 . S
C354 C353 1.390 . S
C354 C355 1.366 . S
C355 H313 0.932 . S
C355 C350 1.360 . S
C355 C354 1.366 . S
C356 C330 1.490 . S
C356 C357 1.380 . S
C356 C361 1.386 . S
C357 H314 0.930 . S
C357 C356 1.380 . S
C357 C358 1.381 . S
C358 H315 0.929 . S
C358 C357 1.381 . S
C358 C359 1.371 . S
C359 C358 1.371 . S
C359 C360 1.380 . S
C360 H316 0.931 . S
C360 C359 1.380 . S
C360 C361 1.387 . S
C361 H317 0.930 . S
C361 C356 1.386 . S
C361 C360 1.387 . S
C362 C331 1.519 . S
C362 C363 1.377 . S
C362 C367 1.361 . S
C363 H318 0.929 . S
C363 C362 1.377 . S
C363 C364 1.386 . S
C364 H319 0.931 . S
C364 C363 1.386 . S
C364 C365 1.363 . S
C365 C364 1.363 . S
C365 C366 1.385 . S
C366 H320 0.930 . S
C366 C365 1.385 . S
C366 C367 1.396 . S
C367 H321 0.929 . S
C367 C362 1.361 . S
C367 C366 1.396 . S
C368 O322 1.300 . S
C368 O323 1.209 . S
C368 C341 1.486 . S
C369 O324 1.199 . S
C369 O325 1.297 . S
C369 C353 1.476 . S
H370 O396 0.856 . S
H371 O399 0.854 . S
H372 C407 0.930 . S
H373 C408 0.930 . S
H374 C410 0.930 . S
H375 C411 0.930 . S
H376 C413 0.931 . S
H377 C414 0.930 . S
H378 C416 0.930 . S
H379 C417 0.929 . S
H380 C419 0.930 . S
H381 C420 0.931 . S
H382 C422 0.930 . S
H383 C423 0.929 . S
H384 C425 0.931 . S
H385 C426 0.930 . S
H386 C428 0.930 . S
H387 C429 0.932 . S
H388 C431 0.930 . S
H389 C432 0.929 . S
H390 C434 0.931 . S
H391 C435 0.930 . S
H392 C437 0.929 . S
H393 C438 0.931 . S
H394 C440 0.930 . S
H395 C441 0.929 . S
O396 H370 0.856 . S
O396 C442 1.300 . S
O397 C442 1.209 . S
O398 C443 1.199 . S
O399 H371 0.854 . S
O399 C443 1.297 . S
C400 C401 1.404 . S
C400 C405 1.397 . S
C400 C406 1.492 . S
C401 C400 1.404 . S
C401 C402 1.396 . S
C401 C412 1.492 . S
C402 C401 1.396 . S
C402 C403 1.397 . S
C402 C418 1.509 . S
C403 C402 1.397 . S
C403 C404 1.412 . S
C403 C424 1.485 . S
C404 C403 1.412 . S
C404 C405 1.388 . S
C404 C430 1.490 . S
C405 C400 1.397 . S
C405 C404 1.388 . S
C405 C436 1.519 . S
C406 C400 1.492 . S
C406 C407 1.363 . S
C406 C411 1.390 . S
C407 H372 0.930 . S
C407 C406 1.363 . S
C407 C408 1.372 . S
C408 H373 0.930 . S
C408 C407 1.372 . S
C408 C409 1.383 . S
C409 C408 1.383 . S
C409 C410 1.395 . S
C410 H374 0.930 . S
C410 C409 1.395 . S
C410 C411 1.362 . S
C411 H375 0.930 . S
C411 C406 1.390 . S
C411 C410 1.362 . S
C412 C401 1.492 . S
C412 C413 1.377 . S
C412 C417 1.397 . S
C413 H376 0.931 . S
C413 C412 1.377 . S
C413 C414 1.376 . S
C414 H377 0.930 . S
C414 C413 1.376 . S
C414 C415 1.376 . S
C415 C414 1.376 . S
C415 C416 1.378 . S
C415 C442 1.486 . S
C416 H378 0.930 . S
C416 C415 1.378 . S
C416 C417 1.376 . S
C417 H379 0.929 . S
C417 C412 1.397 . S
C417 C416 1.376 . S
C418 C402 1.509 . S
C418 C419 1.391 . S
C418 C423 1.386 . S
C419 H380 0.930 . S
C419 C418 1.391 . S
C419 C420 1.375 . S
C420 H381 0.931 . S
C420 C419 1.375 . S
C420 C421 1.375 . S
C421 C420 1.375 . S
C421 C422 1.361 . S
C422 H382 0.930 . S
C422 C421 1.361 . S
C422 C423 1.399 . S
C423 H383 0.929 . S
C423 C418 1.386 . S
C423 C422 1.399 . S
C424 C403 1.485 . S
C424 C425 1.394 . S
C424 C429 1.360 . S
C425 H384 0.931 . S
C425 C424 1.394 . S
C425 C426 1.372 . S
C426 H385 0.930 . S
C426 C425 1.372 . S
C426 C427 1.397 . S
C427 C426 1.397 . S
C427 C428 1.390 . S
C427 C443 1.476 . S
C428 H386 0.930 . S
C428 C427 1.390 . S
C428 C429 1.366 . S
C429 H387 0.932 . S
C429 C424 1.360 . S
C429 C428 1.366 . S
C430 C404 1.490 . S
C430 C431 1.380 . S
C430 C435 1.386 . S
C431 H388 0.930 . S
C431 C430 1.380 . S
C431 C432 1.381 . S
C432 H389 0.929 . S
C432 C431 1.381 . S
C432 C433 1.371 . S
C433 C432 1.371 . S
C433 C434 1.380 . S
C434 H390 0.931 . S
C434 C433 1.380 . S
C434 C435 1.387 . S
C435 H391 0.930 . S
C435 C430 1.386 . S
C435 C434 1.387 . S
C436 C405 1.519 . S
C436 C437 1.377 . S
C436 C441 1.361 . S
C437 H392 0.929 . S
C437 C436 1.377 . S
C437 C438 1.386 . S
C438 H393 0.931 . S
C438 C437 1.386 . S
C438 C439 1.363 . S
C439 C438 1.363 . S
C439 C440 1.385 . S
C440 H394 0.930 . S
C440 C439 1.385 . S
C440 C441 1.396 . S
C441 H395 0.929 . S
C441 C436 1.361 . S
C441 C440 1.396 . S
C442 O396 1.300 . S
C442 O397 1.209 . S
C442 C415 1.486 . S
C443 O398 1.199 . S
C443 O399 1.297 . S
C443 C427 1.476 . S
H444 O470 0.856 . S
H445 O473 0.854 . S
H446 C481 0.930 . S
H447 C482 0.930 . S
H448 C484 0.930 . S
H449 C485 0.930 . S
H450 C487 0.931 . S
H451 C488 0.930 . S
H452 C490 0.930 . S
H453 C491 0.929 . S
H454 C493 0.930 . S
H455 C494 0.931 . S
H456 C496 0.930 . S
H457 C497 0.929 . S
H458 C499 0.931 . S
H459 C500 0.930 . S
H460 C502 0.930 . S
H461 C503 0.932 . S
H462 C505 0.930 . S
H463 C506 0.929 . S
H464 C508 0.931 . S
H465 C509 0.930 . S
H466 C511 0.929 . S
H467 C512 0.931 . S
H468 C514 0.930 . S
H469 C515 0.929 . S
O470 H444 0.856 . S
O470 C516 1.300 . S
O471 C516 1.209 . S
O472 C517 1.199 . S
O473 H445 0.854 . S
O473 C517 1.297 . S
C474 C475 1.404 . S
C474 C479 1.397 . S
C474 C480 1.492 . S
C475 C474 1.404 . S
C475 C476 1.396 . S
C475 C486 1.492 . S
C476 C475 1.396 . S
C476 C477 1.397 . S
C476 C492 1.509 . S
C477 C476 1.397 . S
C477 C478 1.412 . S
C477 C498 1.485 . S
C478 C477 1.412 . S
C478 C479 1.388 . S
C478 C504 1.490 . S
C479 C474 1.397 . S
C479 C478 1.388 . S
C479 C510 1.519 . S
C480 C474 1.492 . S
C480 C481 1.363 . S
C480 C485 1.390 . S
C481 H446 0.930 . S
C481 C480 1.363 . S
C481 C482 1.372 . S
C482 H447 0.930 . S
C482 C481 1.372 . S
C482 C483 1.383 . S
C483 C482 1.383 . S
C483 C484 1.395 . S
C484 H448 0.930 . S
C484 C483 1.395 . S
C484 C485 1.362 . S
C485 H449 0.930 . S
C485 C480 1.390 . S
C485 C484 1.362 . S
C486 C475 1.492 . S
C486 C487 1.377 . S
C486 C491 1.397 . S
C487 H450 0.931 . S
C487 C486 1.377 . S
C487 C488 1.376 . S
C488 H451 0.930 . S
C488 C487 1.376 . S
C488 C489 1.376 . S
C489 C488 1.376 . S
C489 C490 1.378 . S
C489 C516 1.486 . S
C490 H452 0.930 . S
C490 C489 1.378 . S
C490 C491 1.376 . S
C491 H453 0.929 . S
C491 C486 1.397 . S
C491 C490 1.376 . S
C492 C476 1.509 . S
C492 C493 1.391 . S
C492 C497 1.386 . S
C493 H454 0.930 . S
C493 C492 1.391 . S
C493 C494 1.375 . S
C494 H455 0.931 . S
C494 C493 1.375 . S
C494 C495 1.375 . S
C495 C494 1.375 . S
C495 C496 1.361 . S
C496 H456 0.930 . S
C496 C495 1.361 . S
C496 C497 1.399 . S
C497 H457 0.929 . S
C497 C492 1.386 . S
C497 C496 1.399 . S
C498 C477 1.485 . S
C498 C499 1.394 . S
C498 C503 1.360 . S
C499 H458 0.931 . S
C499 C498 1.394 . S
C499 C500 1.372 . S
C500 H459 0.930 . S
C500 C499 1.372 . S
C500 C501 1.397 . S
C501 C500 1.397 . S
C501 C502 1.390 . S
C501 C517 1.476 . S
C502 H460 0.930 . S
C502 C501 1.390 . S
C502 C503 1.366 . S
C503 H461 0.932 . S
C503 C498 1.360 . S
C503 C502 1.366 . S
C504 C478 1.490 . S
C504 C505 1.380 . S
C504 C509 1.386 . S
C505 H462 0.930 . S
C505 C504 1.380 . S
C505 C506 1.381 . S
C506 H463 0.929 . S
C506 C505 1.381 . S
C506 C507 1.371 . S
C507 C506 1.371 . S
C507 C508 1.380 . S
C508 H464 0.931 . S
C508 C507 1.380 . S
C508 C509 1.387 . S
C509 H465 0.930 . S
C509 C504 1.386 . S
C509 C508 1.387 . S
C510 C479 1.519 . S
C510 C511 1.377 . S
C510 C515 1.361 . S
C511 H466 0.929 . S
C511 C510 1.377 . S
C511 C512 1.386 . S
C512 H467 0.931 . S
C512 C511 1.386 . S
C512 C513 1.363 . S
C513 C512 1.363 . S
C513 C514 1.385 . S
C514 H468 0.930 . S
C514 C513 1.385 . S
C514 C515 1.396 . S
C515 H469 0.929 . S
C515 C510 1.361 . S
C515 C514 1.396 . S
C516 O470 1.300 . S
C516 O471 1.209 . S
C516 C489 1.486 . S
C517 O472 1.199 . S
C517 O473 1.297 . S
C517 C501 1.476 . S
H518 O544 0.856 . S
H519 O547 0.854 . S
H520 C555 0.930 . S
H521 C556 0.930 . S
H522 C558 0.930 . S
H523 C559 0.930 . S
H524 C561 0.931 . S
H525 C562 0.930 . S
H526 C564 0.930 . S
H527 C565 0.929 . S
H528 C567 0.930 . S
H529 C568 0.931 . S
H530 C570 0.930 . S
H531 C571 0.929 . S
H532 C573 0.931 . S
H533 C574 0.930 . S
H534 C576 0.930 . S
H535 C577 0.932 . S
H536 C579 0.930 . S
H537 C580 0.929 . S
H538 C582 0.931 . S
H539 C583 0.930 . S
H540 C585 0.929 . S
H541 C586 0.931 . S
H542 C588 0.930 . S
H543 C589 0.929 . S
O544 H518 0.856 . S
O544 C590 1.300 . S
O545 C590 1.209 . S
O546 C591 1.199 . S
O547 H519 0.854 . S
O547 C591 1.297 . S
C548 C549 1.404 . S
C548 C553 1.397 . S
C548 C554 1.492 . S
C549 C548 1.404 . S
C549 C550 1.396 . S
C549 C560 1.492 . S
C550 C549 1.396 . S
C550 C551 1.397 . S
C550 C566 1.509 . S
C551 C550 1.397 . S
C551 C552 1.412 . S
C551 C572 1.485 . S
C552 C551 1.412 . S
C552 C553 1.388 . S
C552 C578 1.490 . S
C553 C548 1.397 . S
C553 C552 1.388 . S
C553 C584 1.519 . S
C554 C548 1.492 . S
C554 C555 1.363 . S
C554 C559 1.390 . S
C555 H520 0.930 . S
C555 C554 1.363 . S
C555 C556 1.372 . S
C556 H521 0.930 . S
C556 C555 1.372 . S
C556 C557 1.383 . S
C557 C556 1.383 . S
C557 C558 1.395 . S
C558 H522 0.930 . S
C558 C557 1.395 . S
C558 C559 1.362 . S
C559 H523 0.930 . S
C559 C554 1.390 . S
C559 C558 1.362 . S
C560 C549 1.492 . S
C560 C561 1.377 . S
C560 C565 1.397 . S
C561 H524 0.931 . S
C561 C560 1.377 . S
C561 C562 1.376 . S
C562 H525 0.930 . S
C562 C561 1.376 . S
C562 C563 1.376 . S
C563 C562 1.376 . S
C563 C564 1.378 . S
C563 C590 1.486 . S
C564 H526 0.930 . S
C564 C563 1.378 . S
C564 C565 1.376 . S
C565 H527 0.929 . S
C565 C560 1.397 . S
C565 C564 1.376 . S
C566 C550 1.509 . S
C566 C567 1.391 . S
C566 C571 1.386 . S
C567 H528 0.930 . S
C567 C566 1.391 . S
C567 C568 1.375 . S
C568 H529 0.931 . S
C568 C567 1.375 . S
C568 C569 1.375 . S
C569 C568 1.375 . S
C569 C570 1.361 . S
C570 H530 0.930 . S
C570 C569 1.361 . S
C570 C571 1.399 . S
C571 H531 0.929 . S
C571 C566 1.386 . S
C571 C570 1.399 . S
C572 C551 1.485 . S
C572 C573 1.394 . S
C572 C577 1.360 . S
C573 H532 0.931 . S
C573 C572 1.394 . S
C573 C574 1.372 . S
C574 H533 0.930 . S
C574 C573 1.372 . S
C574 C575 1.397 . S
C575 C574 1.397 . S
C575 C576 1.390 . S
C575 C591 1.476 . S
C576 H534 0.930 . S
C576 C575 1.390 . S
C576 C577 1.366 . S
C577 H535 0.932 . S
C577 C572 1.360 . S
C577 C576 1.366 . S
C578 C552 1.490 . S
C578 C579 1.380 . S
C578 C583 1.386 . S
C579 H536 0.930 . S
C579 C578 1.380 . S
C579 C580 1.381 . S
C580 H537 0.929 . S
C580 C579 1.381 . S
C580 C581 1.371 . S
C581 C580 1.371 . S
C581 C582 1.380 . S
C582 H538 0.931 . S
C582 C581 1.380 . S
C582 C583 1.387 . S
C583 H539 0.930 . S
C583 C578 1.386 . S
C583 C582 1.387 . S
C584 C553 1.519 . S
C584 C585 1.377 . S
C584 C589 1.361 . S
C585 H540 0.929 . S
C585 C584 1.377 . S
C585 C586 1.386 . S
C586 H541 0.931 . S
C586 C585 1.386 . S
C586 C587 1.363 . S
C587 C586 1.363 . S
C587 C588 1.385 . S
C588 H542 0.930 . S
C588 C587 1.385 . S
C588 C589 1.396 . S
C589 H543 0.929 . S
C589 C584 1.361 . S
C589 C588 1.396 . S
C590 O544 1.300 . S
C590 O545 1.209 . S
C590 C563 1.486 . S
C591 O546 1.199 . S
C591 O547 1.297 . S
C591 C575 1.476 . S
C592 O594 1.247 . S
C592 O596 1.258 . S
C593 O600 1.247 . S
C593 O601 1.258 . S
O594 C592 1.247 . S
O594 Zn595 2.028 . S
Zn595 O594 2.028 . S
Zn595 O599 2.035 1_655 S
Zn595 O601 2.035 1_655 S
Zn595 O602 2.028 . S
O596 C592 1.258 . S
O596 Zn597 2.035 1_655 S
Zn597 O596 2.035 1_455 S
Zn597 O598 2.028 . S
Zn597 O600 2.028 . S
Zn597 O603 2.035 1_455 S
O598 Zn597 2.028 . S
O598 C604 1.247 . S
O599 Zn595 2.035 1_455 S
O599 C604 1.258 . S
O600 C593 1.247 . S
O600 Zn597 2.028 . S
O601 C593 1.258 . S
O601 Zn595 2.035 1_455 S
O602 Zn595 2.028 . S
O602 C605 1.247 . S
O603 Zn597 2.035 1_655 S
O603 C605 1.258 . S
C604 O598 1.247 . S
C604 O599 1.258 . S
C605 O602 1.247 . S
C605 O603 1.258 . S
C606 O608 1.247 . S
C606 O610 1.258 . S
C607 O614 1.247 . S
C607 O615 1.258 . S
O608 C606 1.247 . S
O608 Zn609 2.028 . S
Zn609 O608 2.028 . S
Zn609 O613 2.035 1_545 S
Zn609 O615 2.035 1_545 S
Zn609 O616 2.028 . S
O610 C606 1.258 . S
O610 Zn611 2.035 . S
Zn611 O610 2.035 . S
Zn611 O612 2.028 1_545 S
Zn611 O614 2.028 1_545 S
Zn611 O617 2.035 . S
O612 Zn611 2.028 1_565 S
O612 C618 1.247 . S
O613 Zn609 2.035 1_565 S
O613 C618 1.258 . S
O614 C607 1.247 . S
O614 Zn611 2.028 1_565 S
O615 C607 1.258 . S
O615 Zn609 2.035 1_565 S
O616 Zn609 2.028 . S
O616 C619 1.247 . S
O617 Zn611 2.035 . S
O617 C619 1.258 . S
C618 O612 1.247 . S
C618 O613 1.258 . S
C619 O616 1.247 . S
C619 O617 1.258 . S
C620 O622 1.247 . S
C620 O624 1.258 . S
C621 O628 1.247 . S
C621 O629 1.258 . S
O622 C620 1.247 . S
O622 Zn623 2.028 . S
Zn623 O622 2.028 . S
Zn623 O627 2.035 . S
Zn623 O629 2.035 . S
Zn623 O630 2.028 . S
O624 C620 1.258 . S
O624 Zn625 2.035 . S
Zn625 O624 2.035 . S
Zn625 O626 2.028 . S
Zn625 O628 2.028 . S
Zn625 O631 2.035 . S
O626 Zn625 2.028 . S
O626 C632 1.247 . S
O627 Zn623 2.035 . S
O627 C632 1.258 . S
O628 C621 1.247 . S
O628 Zn625 2.028 . S
O629 C621 1.258 . S
O629 Zn623 2.035 . S
O630 Zn623 2.028 . S
O630 C633 1.247 . S
O631 Zn625 2.035 . S
O631 C633 1.258 . S
C632 O626 1.247 . S
C632 O627 1.258 . S
C633 O630 1.247 . S
C633 O631 1.258 . S
C634 O636 1.247 . S
C634 O638 1.258 . S
C635 O642 1.247 . S
C635 O643 1.258 . S
O636 C634 1.247 . S
O636 Zn637 2.028 . S
Zn637 O636 2.028 . S
Zn637 O641 2.035 . S
Zn637 O643 2.035 . S
Zn637 O644 2.028 . S
O638 C634 1.258 . S
O638 Zn639 2.035 . S
Zn639 O638 2.035 . S
Zn639 O640 2.028 . S
Zn639 O642 2.028 . S
Zn639 O645 2.035 . S
O640 Zn639 2.028 . S
O640 C646 1.247 . S
O641 Zn637 2.035 . S
O641 C646 1.258 . S
O642 C635 1.247 . S
O642 Zn639 2.028 . S
O643 C635 1.258 . S
O643 Zn637 2.035 . S
O644 Zn637 2.028 . S
O644 C647 1.247 . S
O645 Zn639 2.035 . S
O645 C647 1.258 . S
C646 O640 1.247 . S
C646 O641 1.258 . S
C647 O644 1.247 . S
C647 O645 1.258 . S
C648 O650 1.247 . S
C648 O652 1.258 . S
C649 O656 1.247 . S
C649 O657 1.258 . S
O650 C648 1.247 . S
O650 Zn651 2.028 . S
Zn651 O650 2.028 . S
Zn651 O655 2.035 . S
Zn651 O657 2.035 1_554 S
Zn651 O658 2.028 1_554 S
O652 C648 1.258 . S
O652 Zn653 2.035 . S
Zn653 O652 2.035 . S
Zn653 O654 2.028 . S
Zn653 O656 2.028 1_554 S
Zn653 O659 2.035 1_554 S
O654 Zn653 2.028 . S
O654 C660 1.247 . S
O655 Zn651 2.035 . S
O655 C660 1.258 . S
O656 C649 1.247 . S
O656 Zn653 2.028 1_556 S
O657 C649 1.258 . S
O657 Zn651 2.035 1_556 S
O658 Zn651 2.028 1_556 S
O658 C661 1.247 . S
O659 Zn653 2.035 1_556 S
O659 C661 1.258 . S
C660 O654 1.247 . S
C660 O655 1.258 . S
C661 O658 1.247 . S
C661 O659 1.258 . S
C662 O664 1.247 . S
C662 O666 1.258 . S
C663 O670 1.247 . S
C663 O671 1.258 . S
O664 C662 1.247 . S
O664 Zn665 2.028 . S
Zn665 O664 2.028 . S
Zn665 O669 2.035 . S
Zn665 O671 2.035 1_554 S
Zn665 O672 2.028 1_554 S
O666 C662 1.258 . S
O666 Zn667 2.035 . S
Zn667 O666 2.035 . S
Zn667 O668 2.028 . S
Zn667 O670 2.028 1_554 S
Zn667 O673 2.035 1_554 S
O668 Zn667 2.028 . S
O668 C674 1.247 . S
O669 Zn665 2.035 . S
O669 C674 1.258 . S
O670 C663 1.247 . S
O670 Zn667 2.028 1_556 S
O671 C663 1.258 . S
O671 Zn665 2.035 1_556 S
O672 Zn665 2.028 1_556 S
O672 C675 1.247 . S
O673 Zn667 2.035 1_556 S
O673 C675 1.258 . S
C674 O668 1.247 . S
C674 O669 1.258 . S
C675 O672 1.247 . S
C675 O673 1.258 . S
C676 O678 1.247 . S
C676 O680 1.258 . S
C677 O684 1.247 . S
C677 O685 1.258 . S
O678 C676 1.247 . S
O678 Zn679 2.028 . S
Zn679 O678 2.028 . S
Zn679 O683 2.035 . S
Zn679 O685 2.035 . S
Zn679 O686 2.028 . S
O680 C676 1.258 . S
O680 Zn681 2.035 . S
Zn681 O680 2.035 . S
Zn681 O682 2.028 . S
Zn681 O684 2.028 . S
Zn681 O687 2.035 . S
O682 Zn681 2.028 . S
O682 C688 1.247 1_554 S
O683 Zn679 2.035 . S
O683 C688 1.258 1_554 S
O684 C677 1.247 . S
O684 Zn681 2.028 . S
O685 C677 1.258 . S
O685 Zn679 2.035 . S
O686 Zn679 2.028 . S
O686 C689 1.247 . S
O687 Zn681 2.035 . S
O687 C689 1.258 . S
C688 O682 1.247 1_556 S
C688 O683 1.258 1_556 S
C689 O686 1.247 . S
C689 O687 1.258 . S
C690 O692 1.247 . S
C690 O694 1.258 . S
C691 O698 1.247 . S
C691 O699 1.258 . S
O692 C690 1.247 . S
O692 Zn693 2.028 . S
Zn693 O692 2.028 . S
Zn693 O697 2.035 . S
Zn693 O699 2.035 . S
Zn693 O700 2.028 . S
O694 C690 1.258 . S
O694 Zn695 2.035 . S
Zn695 O694 2.035 . S
Zn695 O696 2.028 . S
Zn695 O698 2.028 . S
Zn695 O701 2.035 . S
O696 Zn695 2.028 . S
O696 C702 1.247 . S
O697 Zn693 2.035 . S
O697 C702 1.258 . S
O698 C691 1.247 . S
O698 Zn695 2.028 . S
O699 C691 1.258 . S
O699 Zn693 2.035 . S
O700 Zn693 2.028 . S
O700 C703 1.247 . S
O701 Zn695 2.035 . S
O701 C703 1.258 . S
C702 O696 1.247 . S
C702 O697 1.258 . S
C703 O700 1.247 . S
C703 O701 1.258 . S
H704 C712 0.929 . S
H705 C714 0.930 . S
H706 C716 0.930 . S
H707 C719 0.929 . S
H708 C722 0.930 . S
H709 C724 0.960 . S
H710 C724 0.960 . S
H711 C724 0.960 . S
C712 H704 0.929 . S
C712 C713 1.377 . S
C712 C714 1.384 . S
C713 C712 1.377 . S
C713 C719 1.390 . S
C714 H705 0.930 . S
C714 C712 1.384 . S
C714 C715 1.372 . S
C715 C714 1.372 . S
C715 C716 1.400 . S
C715 C720 1.490 . S
C716 H706 0.930 . S
C716 C715 1.400 . S
C716 C719 1.386 . S
H717 C733 0.930 . S
H718 C734 0.931 . S
C719 H707 0.929 . S
C719 C713 1.390 . S
C719 C716 1.386 . S
C720 C715 1.490 . S
C720 C722 1.395 . S
C720 C723 1.403 . S
H721 C727 0.930 . S
C722 H708 0.930 . S
C722 C720 1.395 . S
C722 C725 1.403 . S
C723 C720 1.403 . S
C723 C724 1.524 . S
C723 C727 1.400 . S
C724 H709 0.960 . S
C724 H710 0.960 . S
C724 H711 0.960 . S
C724 C723 1.524 . S
C725 C722 1.403 . S
C725 C726 1.392 . S
C725 C729 1.495 . S
C726 C725 1.392 . S
C726 C727 1.385 . S
C726 C728 1.478 . S
C727 H721 0.930 . S
C727 C723 1.400 . S
C727 C726 1.385 . S
C728 C726 1.478 . S
C728 C730 1.381 . S
C728 C734 1.383 . S
C729 C725 1.495 . S
C729 H735 0.959 . S
C729 H736 0.961 . S
C729 H737 0.960 . S
C730 C728 1.381 . S
C730 C731 1.394 . S
C730 H738 0.930 . S
C731 C730 1.394 . S
C731 C732 1.383 . S
C731 H739 0.929 . S
C732 C731 1.383 . S
C732 C733 1.377 . S
C733 H717 0.930 . S
C733 C732 1.377 . S
C733 C734 1.379 . S
C734 H718 0.931 . S
C734 C728 1.383 . S
C734 C733 1.379 . S
H735 C729 0.959 . S
H736 C729 0.961 . S
H737 C729 0.960 . S
H738 C730 0.930 . S
H739 C731 0.929 . S
H740 C748 0.929 . S
H741 C750 0.930 . S
H742 C752 0.930 . S
H743 C755 0.929 . S
H744 C758 0.930 . S
H745 C760 0.960 . S
H746 C760 0.960 . S
H747 C760 0.960 . S
C748 H740 0.929 . S
C748 C749 1.377 . S
C748 C750 1.384 . S
C749 C748 1.377 . S
C749 C755 1.390 . S
C750 H741 0.930 . S
C750 C748 1.384 . S
C750 C751 1.372 . S
C751 C750 1.372 . S
C751 C752 1.400 . S
C751 C756 1.490 . S
C752 H742 0.930 . S
C752 C751 1.400 . S
C752 C755 1.386 . S
H753 C769 0.930 . S
H754 C770 0.931 . S
C755 H743 0.929 . S
C755 C749 1.390 . S
C755 C752 1.386 . S
C756 C751 1.490 . S
C756 C758 1.395 . S
C756 C759 1.403 . S
H757 C763 0.930 . S
C758 H744 0.930 . S
C758 C756 1.395 . S
C758 C761 1.403 . S
C759 C756 1.403 . S
C759 C760 1.524 . S
C759 C763 1.400 . S
C760 H745 0.960 . S
C760 H746 0.960 . S
C760 H747 0.960 . S
C760 C759 1.524 . S
C761 C758 1.403 . S
C761 C762 1.392 . S
C761 C765 1.495 . S
C762 C761 1.392 . S
C762 C763 1.385 . S
C762 C764 1.478 . S
C763 H757 0.930 . S
C763 C759 1.400 . S
C763 C762 1.385 . S
C764 C762 1.478 . S
C764 C766 1.381 . S
C764 C770 1.383 . S
C765 C761 1.495 . S
C765 H771 0.959 . S
C765 H772 0.961 . S
C765 H773 0.960 . S
C766 C764 1.381 . S
C766 C767 1.394 . S
C766 H774 0.930 . S
C767 C766 1.394 . S
C767 C768 1.383 . S
C767 H775 0.929 . S
C768 C767 1.383 . S
C768 C769 1.377 . S
C769 H753 0.930 . S
C769 C768 1.377 . S
C769 C770 1.379 . S
C770 H754 0.931 . S
C770 C764 1.383 . S
C770 C769 1.379 . S
H771 C765 0.959 . S
H772 C765 0.961 . S
H773 C765 0.960 . S
H774 C766 0.930 . S
H775 C767 0.929 . S
H776 C784 0.929 . S
H777 C786 0.930 . S
H778 C788 0.930 . S
H779 C791 0.929 . S
H780 C794 0.930 . S
H781 C796 0.960 . S
H782 C796 0.960 . S
H783 C796 0.960 . S
C784 H776 0.929 . S
C784 C785 1.377 . S
C784 C786 1.384 . S
C785 C784 1.377 . S
C785 C791 1.390 . S
C786 H777 0.930 . S
C786 C784 1.384 . S
C786 C787 1.372 . S
C787 C786 1.372 . S
C787 C788 1.400 . S
C787 C792 1.490 . S
C788 H778 0.930 . S
C788 C787 1.400 . S
C788 C791 1.386 . S
H789 C805 0.930 . S
H790 C806 0.931 . S
C791 H779 0.929 . S
C791 C785 1.390 . S
C791 C788 1.386 . S
C792 C787 1.490 . S
C792 C794 1.395 . S
C792 C795 1.403 . S
H793 C799 0.930 . S
C794 H780 0.930 . S
C794 C792 1.395 . S
C794 C797 1.403 . S
C795 C792 1.403 . S
C795 C796 1.524 . S
C795 C799 1.400 . S
C796 H781 0.960 . S
C796 H782 0.960 . S
C796 H783 0.960 . S
C796 C795 1.524 . S
C797 C794 1.403 . S
C797 C798 1.392 . S
C797 C801 1.495 . S
C798 C797 1.392 . S
C798 C799 1.385 . S
C798 C800 1.478 . S
C799 H793 0.930 . S
C799 C795 1.400 . S
C799 C798 1.385 . S
C800 C798 1.478 . S
C800 C802 1.381 . S
C800 C806 1.383 . S
C801 C797 1.495 . S
C801 H807 0.959 . S
C801 H808 0.961 . S
C801 H809 0.960 . S
C802 C800 1.381 . S
C802 C803 1.394 . S
C802 H810 0.930 . S
C803 C802 1.394 . S
C803 C804 1.383 . S
C803 H811 0.929 . S
C804 C803 1.383 . S
C804 C805 1.377 . S
C805 H789 0.930 . S
C805 C804 1.377 . S
C805 C806 1.379 . S
C806 H790 0.931 . S
C806 C800 1.383 . S
C806 C805 1.379 . S
H807 C801 0.959 . S
H808 C801 0.961 . S
H809 C801 0.960 . S
H810 C802 0.930 . S
H811 C803 0.929 . S
H812 C820 0.929 . S
H813 C822 0.930 . S
H814 C824 0.930 1_545 S
H815 C827 0.929 . S
H816 C830 0.930 . S
H817 C832 0.960 . S
H818 C832 0.960 1_565 S
H819 C832 0.960 . S
C820 H812 0.929 . S
C820 C821 1.377 . S
C820 C822 1.384 . S
C821 C820 1.377 . S
C821 C827 1.390 . S
C822 H813 0.930 . S
C822 C820 1.384 . S
C822 C823 1.372 1_565 S
C823 C822 1.372 1_545 S
C823 C824 1.400 1_545 S
C823 C828 1.490 . S
C824 H814 0.930 1_565 S
C824 C823 1.400 1_565 S
C824 C827 1.386 . S
H825 C841 0.930 . S
H826 C842 0.931 . S
C827 H815 0.929 . S
C827 C821 1.390 . S
C827 C824 1.386 . S
C828 C823 1.490 . S
C828 C830 1.395 . S
C828 C831 1.403 . S
H829 C835 0.930 . S
C830 H816 0.930 . S
C830 C828 1.395 . S
C830 C833 1.403 . S
C831 C828 1.403 . S
C831 C832 1.524 . S
C831 C835 1.400 . S
C832 H817 0.960 . S
C832 H818 0.960 1_545 S
C832 H819 0.960 . S
C832 C831 1.524 . S
C833 C830 1.403 . S
C833 C834 1.392 . S
C833 C837 1.495 . S
C834 C833 1.392 . S
C834 C835 1.385 . S
C834 C836 1.478 . S
C835 H829 0.930 . S
C835 C831 1.400 . S
C835 C834 1.385 . S
C836 C834 1.478 . S
C836 C838 1.381 . S
C836 C842 1.383 . S
C837 C833 1.495 . S
C837 H843 0.959 . S
C837 H844 0.961 . S
C837 H845 0.960 . S
C838 C836 1.381 . S
C838 C839 1.394 . S
C838 H846 0.930 . S
C839 C838 1.394 . S
C839 C840 1.383 . S
C839 H847 0.929 . S
C840 C839 1.383 . S
C840 C841 1.377 . S
C841 H825 0.930 . S
C841 C840 1.377 . S
C841 C842 1.379 . S
C842 H826 0.931 . S
C842 C836 1.383 . S
C842 C841 1.379 . S
H843 C837 0.959 . S
H844 C837 0.961 . S
H845 C837 0.960 . S
H846 C838 0.930 . S
H847 C839 0.929 . S
H848 C856 0.929 . S
H849 C858 0.930 . S
H850 C860 0.930 . S
H851 C863 0.929 . S
H852 C866 0.930 . S
H853 C868 0.960 . S
H854 C868 0.960 . S
H855 C868 0.960 . S
C856 H848 0.929 . S
C856 C857 1.377 . S
C856 C858 1.384 . S
C857 C856 1.377 . S
C857 C863 1.390 . S
C858 H849 0.930 . S
C858 C856 1.384 . S
C858 C859 1.372 . S
C859 C858 1.372 . S
C859 C860 1.400 . S
C859 C864 1.490 . S
C860 H850 0.930 . S
C860 C859 1.400 . S
C860 C863 1.386 . S
H861 C877 0.930 . S
H862 C878 0.931 . S
C863 H851 0.929 . S
C863 C857 1.390 . S
C863 C860 1.386 . S
C864 C859 1.490 . S
C864 C866 1.395 . S
C864 C867 1.403 . S
H865 C871 0.930 . S
C866 H852 0.930 . S
C866 C864 1.395 . S
C866 C869 1.403 . S
C867 C864 1.403 . S
C867 C868 1.524 . S
C867 C871 1.400 . S
C868 H853 0.960 . S
C868 H854 0.960 . S
C868 H855 0.960 . S
C868 C867 1.524 . S
C869 C866 1.403 . S
C869 C870 1.392 . S
C869 C873 1.495 . S
C870 C869 1.392 . S
C870 C871 1.385 . S
C870 C872 1.478 . S
C871 H865 0.930 . S
C871 C867 1.400 . S
C871 C870 1.385 . S
C872 C870 1.478 . S
C872 C874 1.381 . S
C872 C878 1.383 . S
C873 C869 1.495 . S
C873 H879 0.959 . S
C873 H880 0.961 . S
C873 H881 0.960 . S
C874 C872 1.381 . S
C874 C875 1.394 . S
C874 H882 0.930 . S
C875 C874 1.394 . S
C875 C876 1.383 . S
C875 H883 0.929 . S
C876 C875 1.383 . S
C876 C877 1.377 . S
C877 H861 0.930 . S
C877 C876 1.377 . S
C877 C878 1.379 . S
C878 H862 0.931 . S
C878 C872 1.383 . S
C878 C877 1.379 . S
H879 C873 0.959 . S
H880 C873 0.961 . S
H881 C873 0.960 . S
H882 C874 0.930 . S
H883 C875 0.929 . S
H884 C892 0.929 . S
H885 C894 0.930 . S
H886 C896 0.930 . S
H887 C899 0.929 . S
H888 C902 0.930 . S
H889 C904 0.960 . S
H890 C904 0.960 . S
H891 C904 0.960 . S
C892 H884 0.929 . S
C892 C893 1.377 . S
C892 C894 1.384 . S
C893 C892 1.377 . S
C893 C899 1.390 . S
C894 H885 0.930 . S
C894 C892 1.384 . S
C894 C895 1.372 . S
C895 C894 1.372 . S
C895 C896 1.400 . S
C895 C900 1.490 . S
C896 H886 0.930 . S
C896 C895 1.400 . S
C896 C899 1.386 . S
H897 C913 0.930 . S
H898 C914 0.931 . S
C899 H887 0.929 . S
C899 C893 1.390 . S
C899 C896 1.386 . S
C900 C895 1.490 . S
C900 C902 1.395 . S
C900 C903 1.403 . S
H901 C907 0.930 . S
C902 H888 0.930 . S
C902 C900 1.395 . S
C902 C905 1.403 . S
C903 C900 1.403 . S
C903 C904 1.524 . S
C903 C907 1.400 . S
C904 H889 0.960 . S
C904 H890 0.960 . S
C904 H891 0.960 . S
C904 C903 1.524 . S
C905 C902 1.403 . S
C905 C906 1.392 . S
C905 C909 1.495 . S
C906 C905 1.392 . S
C906 C907 1.385 . S
C906 C908 1.478 . S
C907 H901 0.930 . S
C907 C903 1.400 . S
C907 C906 1.385 . S
C908 C906 1.478 . S
C908 C910 1.381 . S
C908 C914 1.383 . S
C909 C905 1.495 . S
C909 H915 0.959 . S
C909 H916 0.961 . S
C909 H917 0.960 . S
C910 C908 1.381 . S
C910 C911 1.394 . S
C910 H918 0.930 . S
C911 C910 1.394 . S
C911 C912 1.383 . S
C911 H919 0.929 . S
C912 C911 1.383 . S
C912 C913 1.377 . S
C913 H897 0.930 . S
C913 C912 1.377 . S
C913 C914 1.379 . S
C914 H898 0.931 . S
C914 C908 1.383 . S
C914 C913 1.379 . S
H915 C909 0.959 . S
H916 C909 0.961 . S
H917 C909 0.960 . S
H918 C910 0.930 . S
H919 C911 0.929 . S
H920 C928 0.929 . S
H921 C930 0.930 . S
H922 C932 0.930 . S
H923 C935 0.929 . S
H924 C938 0.930 . S
H925 C940 0.960 . S
H926 C940 0.960 . S
H927 C940 0.960 . S
C928 H920 0.929 . S
C928 C929 1.377 . S
C928 C930 1.384 . S
C929 C928 1.377 . S
C929 C935 1.390 . S
C930 H921 0.930 . S
C930 C928 1.384 . S
C930 C931 1.372 . S
C931 C930 1.372 . S
C931 C932 1.400 . S
C931 C936 1.490 . S
C932 H922 0.930 . S
C932 C931 1.400 . S
C932 C935 1.386 . S
H933 C949 0.930 . S
H934 C950 0.931 . S
C935 H923 0.929 . S
C935 C929 1.390 . S
C935 C932 1.386 . S
C936 C931 1.490 . S
C936 C938 1.395 . S
C936 C939 1.403 . S
H937 C943 0.930 . S
C938 H924 0.930 . S
C938 C936 1.395 . S
C938 C941 1.403 . S
C939 C936 1.403 . S
C939 C940 1.524 . S
C939 C943 1.400 . S
C940 H925 0.960 . S
C940 H926 0.960 . S
C940 H927 0.960 . S
C940 C939 1.524 . S
C941 C938 1.403 . S
C941 C942 1.392 . S
C941 C945 1.495 . S
C942 C941 1.392 . S
C942 C943 1.385 . S
C942 C944 1.478 . S
C943 H937 0.930 . S
C943 C939 1.400 . S
C943 C942 1.385 . S
C944 C942 1.478 . S
C944 C946 1.381 . S
C944 C950 1.383 . S
C945 C941 1.495 . S
C945 H951 0.959 . S
C945 H952 0.961 . S
C945 H953 0.960 . S
C946 C944 1.381 . S
C946 C947 1.394 . S
C946 H954 0.930 . S
C947 C946 1.394 . S
C947 C948 1.383 . S
C947 H955 0.929 . S
C948 C947 1.383 . S
C948 C949 1.377 . S
C949 H933 0.930 . S
C949 C948 1.377 . S
C949 C950 1.379 . S
C950 H934 0.931 . S
C950 C944 1.383 . S
C950 C949 1.379 . S
H951 C945 0.959 . S
H952 C945 0.961 . S
H953 C945 0.960 . S
H954 C946 0.930 . S
H955 C947 0.929 . S
H956 C964 0.929 . S
H957 C966 0.930 . S
H958 C968 0.930 . S
H959 C971 0.929 . S
H960 C974 0.930 . S
H961 C976 0.960 . S
H962 C976 0.960 . S
H963 C976 0.960 . S
C964 H956 0.929 . S
C964 C965 1.377 . S
C964 C966 1.384 . S
C965 C964 1.377 . S
C965 C971 1.390 . S
C966 H957 0.930 . S
C966 C964 1.384 . S
C966 C967 1.372 . S
C967 C966 1.372 . S
C967 C968 1.400 . S
C967 C972 1.490 . S
C968 H958 0.930 . S
C968 C967 1.400 . S
C968 C971 1.386 . S
H969 C985 0.930 . S
H970 C986 0.931 . S
C971 H959 0.929 . S
C971 C965 1.390 . S
C971 C968 1.386 . S
C972 C967 1.490 . S
C972 C974 1.395 . S
C972 C975 1.403 . S
H973 C979 0.930 . S
C974 H960 0.930 . S
C974 C972 1.395 . S
C974 C977 1.403 . S
C975 C972 1.403 . S
C975 C976 1.524 . S
C975 C979 1.400 . S
C976 H961 0.960 . S
C976 H962 0.960 . S
C976 H963 0.960 . S
C976 C975 1.524 . S
C977 C974 1.403 . S
C977 C978 1.392 . S
C977 C981 1.495 . S
C978 C977 1.392 . S
C978 C979 1.385 . S
C978 C980 1.478 . S
C979 H973 0.930 . S
C979 C975 1.400 . S
C979 C978 1.385 . S
C980 C978 1.478 . S
C980 C982 1.381 . S
C980 C986 1.383 . S
C981 C977 1.495 . S
C981 H987 0.959 . S
C981 H988 0.961 . S
C981 H989 0.960 . S
C982 C980 1.381 . S
C982 C983 1.394 . S
C982 H990 0.930 . S
C983 C982 1.394 . S
C983 C984 1.383 . S
C983 H991 0.929 . S
C984 C983 1.383 . S
C984 C985 1.377 . S
C985 H969 0.930 . S
C985 C984 1.377 . S
C985 C986 1.379 . S
C986 H970 0.931 . S
C986 C980 1.383 . S
C986 C985 1.379 . S
H987 C981 0.959 . S
H988 C981 0.961 . S
H989 C981 0.960 . S
H990 C982 0.930 . S
H991 C983 0.929 . S
H992 C1000 0.929 . S
H993 C1002 0.930 . S
H994 C1004 0.930 . S
H995 C1007 0.929 . S
H996 C1010 0.930 . S
H997 C1012 0.960 . S
H998 C1012 0.960 . S
H999 C1012 0.960 . S
C1000 H992 0.929 . S
C1000 C1001 1.377 . S
C1000 C1002 1.384 . S
C1001 C1000 1.377 . S
C1001 C1007 1.390 . S
C1002 H993 0.930 . S
C1002 C1000 1.384 . S
C1002 C1003 1.372 . S
C1003 C1002 1.372 . S
C1003 C1004 1.400 . S
C1003 C1008 1.490 . S
C1004 H994 0.930 . S
C1004 C1003 1.400 . S
C1004 C1007 1.386 . S
H1005 C1021 0.930 . S
H1006 C1022 0.931 . S
C1007 H995 0.929 . S
C1007 C1001 1.390 . S
C1007 C1004 1.386 . S
C1008 C1003 1.490 . S
C1008 C1010 1.395 . S
C1008 C1011 1.403 . S
H1009 C1015 0.930 . S
C1010 H996 0.930 . S
C1010 C1008 1.395 . S
C1010 C1013 1.403 . S
C1011 C1008 1.403 . S
C1011 C1012 1.524 . S
C1011 C1015 1.400 . S
C1012 H997 0.960 . S
C1012 H998 0.960 . S
C1012 H999 0.960 . S
C1012 C1011 1.524 . S
C1013 C1010 1.403 . S
C1013 C1014 1.392 . S
C1013 C1017 1.495 . S
C1014 C1013 1.392 . S
C1014 C1015 1.385 . S
C1014 C1016 1.478 . S
C1015 H1009 0.930 . S
C1015 C1011 1.400 . S
C1015 C1014 1.385 . S
C1016 C1014 1.478 . S
C1016 C1018 1.381 . S
C1016 C1022 1.383 . S
C1017 C1013 1.495 . S
C1017 H1023 0.959 . S
C1017 H1024 0.961 . S
C1017 H1025 0.960 . S
C1018 C1016 1.381 . S
C1018 C1019 1.394 . S
C1018 H1026 0.930 . S
C1019 C1018 1.394 . S
C1019 C1020 1.374 1_655 S
C1019 H1027 0.929 . S
C1020 C1019 1.374 1_455 S
C1020 C1021 1.367 1_455 S
C1021 H1005 0.930 . S
C1021 C1020 1.367 1_655 S
C1021 C1022 1.379 . S
C1022 H1006 0.931 . S
C1022 C1016 1.383 . S
C1022 C1021 1.379 . S
H1023 C1017 0.959 . S
H1024 C1017 0.961 . S
H1025 C1017 0.960 . S
H1026 C1018 0.930 . S
H1027 C1019 0.929 . S
H1028 C1036 0.929 . S
H1029 C1038 0.930 . S
H1030 C1040 0.931 . S
H1031 C1043 0.929 . S
H1032 C1046 0.930 . S
H1033 C1048 0.960 . S
H1034 C1048 0.960 . S
H1035 C1048 0.960 . S
C1036 H1028 0.929 . S
C1036 C1037 1.377 1_545 S
C1036 C1038 1.384 . S
C1037 C1036 1.377 1_565 S
C1037 C1043 1.390 . S
C1038 H1029 0.930 . S
C1038 C1036 1.384 . S
C1038 C1039 1.372 . S
C1039 C1038 1.372 . S
C1039 C1040 1.393 1_545 S
C1039 C1044 1.490 . S
C1040 H1030 0.931 . S
C1040 C1039 1.393 1_565 S
C1040 C1043 1.391 . S
H1041 C1057 0.930 . S
H1042 C1058 0.931 . S
C1043 H1031 0.929 . S
C1043 C1037 1.390 . S
C1043 C1040 1.391 . S
C1044 C1039 1.490 . S
C1044 C1046 1.395 . S
C1044 C1047 1.403 . S
H1045 C1051 0.930 . S
C1046 H1032 0.930 . S
C1046 C1044 1.395 . S
C1046 C1049 1.403 . S
C1047 C1044 1.403 . S
C1047 C1048 1.524 . S
C1047 C1051 1.400 . S
C1048 H1033 0.960 . S
C1048 H1034 0.960 . S
C1048 H1035 0.960 . S
C1048 C1047 1.524 . S
C1049 C1046 1.403 . S
C1049 C1050 1.392 . S
C1049 C1053 1.495 . S
C1050 C1049 1.392 . S
C1050 C1051 1.385 . S
C1050 C1052 1.478 . S
C1051 H1045 0.930 . S
C1051 C1047 1.400 . S
C1051 C1050 1.385 . S
C1052 C1050 1.478 . S
C1052 C1054 1.381 . S
C1052 C1058 1.383 . S
C1053 C1049 1.495 . S
C1053 H1059 0.959 . S
C1053 H1060 0.961 . S
C1053 H1061 0.960 . S
C1054 C1052 1.381 . S
C1054 C1055 1.394 . S
C1054 H1062 0.930 . S
C1055 C1054 1.394 . S
C1055 C1056 1.383 . S
C1055 H1063 0.929 . S
C1056 C1055 1.383 . S
C1056 C1057 1.377 . S
C1057 H1041 0.930 . S
C1057 C1056 1.377 . S
C1057 C1058 1.379 . S
C1058 H1042 0.931 . S
C1058 C1052 1.383 . S
C1058 C1057 1.379 . S
H1059 C1053 0.959 . S
H1060 C1053 0.961 . S
H1061 C1053 0.960 . S
H1062 C1054 0.930 . S
H1063 C1055 0.929 . S
H1064 C1072 0.929 . S
H1065 C1074 0.930 . S
H1066 C1076 0.930 . S
H1067 C1079 0.929 . S
H1068 C1082 0.930 . S
H1069 C1084 0.960 . S
H1070 C1084 0.960 . S
H1071 C1084 0.960 . S
C1072 H1064 0.929 . S
C1072 C1073 1.377 . S
C1072 C1074 1.384 . S
C1073 C1072 1.377 . S
C1073 C1079 1.390 . S
C1074 H1065 0.930 . S
C1074 C1072 1.384 . S
C1074 C1075 1.372 . S
C1075 C1074 1.372 . S
C1075 C1076 1.400 . S
C1075 C1080 1.490 . S
C1076 H1066 0.930 . S
C1076 C1075 1.400 . S
C1076 C1079 1.386 . S
H1077 C1093 0.930 . S
H1078 C1094 0.931 . S
C1079 H1067 0.929 . S
C1079 C1073 1.390 . S
C1079 C1076 1.386 . S
C1080 C1075 1.490 . S
C1080 C1082 1.395 . S
C1080 C1083 1.403 . S
H1081 C1087 0.930 . S
C1082 H1068 0.930 . S
C1082 C1080 1.395 . S
C1082 C1085 1.403 . S
C1083 C1080 1.403 . S
C1083 C1084 1.524 . S
C1083 C1087 1.400 . S
C1084 H1069 0.960 . S
C1084 H1070 0.960 . S
C1084 H1071 0.960 . S
C1084 C1083 1.524 . S
C1085 C1082 1.403 . S
C1085 C1086 1.392 . S
C1085 C1089 1.495 . S
C1086 C1085 1.392 . S
C1086 C1087 1.385 . S
C1086 C1088 1.478 . S
C1087 H1081 0.930 . S
C1087 C1083 1.400 . S
C1087 C1086 1.385 . S
C1088 C1086 1.478 . S
C1088 C1090 1.381 . S
C1088 C1094 1.383 . S
C1089 C1085 1.495 . S
C1089 H1095 0.959 . S
C1089 H1096 0.961 . S
C1089 H1097 0.960 . S
C1090 C1088 1.381 . S
C1090 C1091 1.394 . S
C1090 H1098 0.930 . S
C1091 C1090 1.394 . S
C1091 C1092 1.383 . S
C1091 H1099 0.929 . S
C1092 C1091 1.383 . S
C1092 C1093 1.377 . S
C1093 H1077 0.930 . S
C1093 C1092 1.377 . S
C1093 C1094 1.379 . S
C1094 H1078 0.931 . S
C1094 C1088 1.383 . S
C1094 C1093 1.379 . S
H1095 C1089 0.959 . S
H1096 C1089 0.961 . S
H1097 C1089 0.960 . S
H1098 C1090 0.930 . S
H1099 C1091 0.929 . S
H1100 C1108 0.929 . S
H1101 C1110 0.930 . S
H1102 C1112 0.930 . S
H1103 C1115 0.929 . S
H1104 C1118 0.930 . S
H1105 C1120 0.960 . S
H1106 C1120 0.960 . S
H1107 C1120 0.960 . S
C1108 H1100 0.929 . S
C1108 C1109 1.377 . S
C1108 C1110 1.384 . S
C1109 C1108 1.377 . S
C1109 C1115 1.390 . S
C1110 H1101 0.930 . S
C1110 C1108 1.384 . S
C1110 C1111 1.372 . S
C1111 C1110 1.372 . S
C1111 C1112 1.400 . S
C1111 C1116 1.490 . S
C1112 H1102 0.930 . S
C1112 C1111 1.400 . S
C1112 C1115 1.386 . S
H1113 C1129 0.930 . S
H1114 C1130 0.931 . S
C1115 H1103 0.929 . S
C1115 C1109 1.390 . S
C1115 C1112 1.386 . S
C1116 C1111 1.490 . S
C1116 C1118 1.395 . S
C1116 C1119 1.403 . S
H1117 C1123 0.930 . S
C1118 H1104 0.930 . S
C1118 C1116 1.395 . S
C1118 C1121 1.403 . S
C1119 C1116 1.403 . S
C1119 C1120 1.524 . S
C1119 C1123 1.400 . S
C1120 H1105 0.960 . S
C1120 H1106 0.960 . S
C1120 H1107 0.960 . S
C1120 C1119 1.524 . S
C1121 C1118 1.403 . S
C1121 C1122 1.392 . S
C1121 C1125 1.495 . S
C1122 C1121 1.392 . S
C1122 C1123 1.385 . S
C1122 C1124 1.478 . S
C1123 H1117 0.930 . S
C1123 C1119 1.400 . S
C1123 C1122 1.385 . S
C1124 C1122 1.478 . S
C1124 C1126 1.381 . S
C1124 C1130 1.383 . S
C1125 C1121 1.495 . S
C1125 H1131 0.959 . S
C1125 H1132 0.961 . S
C1125 H1133 0.960 . S
C1126 C1124 1.381 . S
C1126 C1127 1.394 . S
C1126 H1134 0.930 . S
C1127 C1126 1.394 . S
C1127 C1128 1.383 . S
C1127 H1135 0.929 . S
C1128 C1127 1.383 . S
C1128 C1129 1.377 . S
C1129 H1113 0.930 . S
C1129 C1128 1.377 . S
C1129 C1130 1.379 . S
C1130 H1114 0.931 . S
C1130 C1124 1.383 . S
C1130 C1129 1.379 . S
H1131 C1125 0.959 . S
H1132 C1125 0.961 . S
H1133 C1125 0.960 . S
H1134 C1126 0.930 . S
H1135 C1127 0.929 . S
H1136 C1144 0.929 . S
H1137 C1146 0.930 . S
H1138 C1148 0.930 . S
H1139 C1151 0.929 . S
H1140 C1154 0.930 . S
H1141 C1156 0.960 . S
H1142 C1156 0.960 . S
H1143 C1156 0.960 . S
C1144 H1136 0.929 . S
C1144 C1145 1.377 . S
C1144 C1146 1.384 . S
C1145 C1144 1.377 . S
C1145 C1151 1.390 . S
C1146 H1137 0.930 . S
C1146 C1144 1.384 . S
C1146 C1147 1.372 . S
C1147 C1146 1.372 . S
C1147 C1148 1.400 . S
C1147 C1152 1.490 . S
C1148 H1138 0.930 . S
C1148 C1147 1.400 . S
C1148 C1151 1.386 . S
H1149 C1165 0.930 . S
H1150 C1166 0.931 . S
C1151 H1139 0.929 . S
C1151 C1145 1.390 . S
C1151 C1148 1.386 . S
C1152 C1147 1.490 . S
C1152 C1154 1.395 . S
C1152 C1155 1.403 . S
H1153 C1159 0.930 . S
C1154 H1140 0.930 . S
C1154 C1152 1.395 . S
C1154 C1157 1.403 . S
C1155 C1152 1.403 . S
C1155 C1156 1.524 . S
C1155 C1159 1.400 . S
C1156 H1141 0.960 . S
C1156 H1142 0.960 . S
C1156 H1143 0.960 . S
C1156 C1155 1.524 . S
C1157 C1154 1.403 . S
C1157 C1158 1.392 . S
C1157 C1161 1.495 . S
C1158 C1157 1.392 . S
C1158 C1159 1.385 . S
C1158 C1160 1.478 . S
C1159 H1153 0.930 . S
C1159 C1155 1.400 . S
C1159 C1158 1.385 . S
C1160 C1158 1.478 . S
C1160 C1162 1.381 . S
C1160 C1166 1.383 . S
C1161 C1157 1.495 . S
C1161 H1167 0.959 . S
C1161 H1168 0.961 . S
C1161 H1169 0.960 . S
C1162 C1160 1.381 . S
C1162 C1163 1.394 . S
C1162 H1170 0.930 . S
C1163 C1162 1.394 . S
C1163 C1164 1.383 . S
C1163 H1171 0.929 . S
C1164 C1163 1.383 . S
C1164 C1165 1.377 . S
C1165 H1149 0.930 . S
C1165 C1164 1.377 . S
C1165 C1166 1.379 . S
C1166 H1150 0.931 . S
C1166 C1160 1.383 . S
C1166 C1165 1.379 . S
H1167 C1161 0.959 . S
H1168 C1161 0.961 . S
H1169 C1161 0.960 . S
H1170 C1162 0.930 . S
H1171 C1163 0.929 . S
H1172 C1180 0.929 . S
H1173 C1182 0.930 . S
H1174 C1184 0.930 . S
H1175 C1187 0.929 . S
H1176 C1190 0.930 . S
H1177 C1192 0.960 . S
H1178 C1192 0.960 . S
H1179 C1192 0.960 . S
C1180 H1172 0.929 . S
C1180 C1181 1.377 . S
C1180 C1182 1.384 . S
C1181 C1180 1.377 . S
C1181 C1187 1.390 . S
C1182 H1173 0.930 . S
C1182 C1180 1.384 . S
C1182 C1183 1.372 . S
C1183 C1182 1.372 . S
C1183 C1184 1.400 . S
C1183 C1188 1.490 . S
C1184 H1174 0.930 . S
C1184 C1183 1.400 . S
C1184 C1187 1.386 . S
H1185 C1201 0.930 . S
H1186 C1202 0.931 . S
C1187 H1175 0.929 . S
C1187 C1181 1.390 . S
C1187 C1184 1.386 . S
C1188 C1183 1.490 . S
C1188 C1190 1.395 . S
C1188 C1191 1.403 . S
H1189 C1195 0.930 . S
C1190 H1176 0.930 . S
C1190 C1188 1.395 . S
C1190 C1193 1.403 . S
C1191 C1188 1.403 . S
C1191 C1192 1.524 . S
C1191 C1195 1.400 . S
C1192 H1177 0.960 . S
C1192 H1178 0.960 . S
C1192 H1179 0.960 . S
C1192 C1191 1.524 . S
C1193 C1190 1.403 . S
C1193 C1194 1.392 . S
C1193 C1197 1.495 . S
C1194 C1193 1.392 . S
C1194 C1195 1.385 . S
C1194 C1196 1.478 . S
C1195 H1189 0.930 . S
C1195 C1191 1.400 . S
C1195 C1194 1.385 . S
C1196 C1194 1.478 . S
C1196 C1198 1.381 . S
C1196 C1202 1.383 . S
C1197 C1193 1.495 . S
C1197 H1203 0.959 . S
C1197 H1204 0.961 . S
C1197 H1205 0.960 . S
C1198 C1196 1.381 . S
C1198 C1199 1.394 . S
C1198 H1206 0.930 . S
C1199 C1198 1.394 . S
C1199 C1200 1.383 . S
C1199 H1207 0.929 . S
C1200 C1199 1.383 . S
C1200 C1201 1.377 . S
C1201 H1185 0.930 . S
C1201 C1200 1.377 . S
C1201 C1202 1.379 . S
C1202 H1186 0.931 . S
C1202 C1196 1.383 . S
C1202 C1201 1.379 . S
H1203 C1197 0.959 . S
H1204 C1197 0.961 . S
H1205 C1197 0.960 . S
H1206 C1198 0.930 . S
H1207 C1199 0.929 . S
H1208 C1216 0.929 . S
H1209 C1218 0.930 . S
H1210 C1220 0.930 . S
H1211 C1223 0.929 . S
H1212 C1226 0.930 . S
H1213 C1228 0.960 . S
H1214 C1228 0.960 . S
H1215 C1228 0.960 . S
C1216 H1208 0.929 . S
C1216 C1217 1.377 . S
C1216 C1218 1.384 . S
C1217 C1216 1.377 . S
C1217 C1223 1.390 . S
C1218 H1209 0.930 . S
C1218 C1216 1.384 . S
C1218 C1219 1.372 . S
C1219 C1218 1.372 . S
C1219 C1220 1.400 . S
C1219 C1224 1.490 . S
C1220 H1210 0.930 . S
C1220 C1219 1.400 . S
C1220 C1223 1.386 . S
H1221 C1237 0.930 . S
H1222 C1238 0.931 . S
C1223 H1211 0.929 . S
C1223 C1217 1.390 . S
C1223 C1220 1.386 . S
C1224 C1219 1.490 . S
C1224 C1226 1.395 . S
C1224 C1227 1.403 . S
H1225 C1231 0.930 . S
C1226 H1212 0.930 . S
C1226 C1224 1.395 . S
C1226 C1229 1.403 . S
C1227 C1224 1.403 . S
C1227 C1228 1.524 . S
C1227 C1231 1.400 . S
C1228 H1213 0.960 . S
C1228 H1214 0.960 . S
C1228 H1215 0.960 . S
C1228 C1227 1.524 . S
C1229 C1226 1.403 . S
C1229 C1230 1.392 . S
C1229 C1233 1.495 . S
C1230 C1229 1.392 . S
C1230 C1231 1.385 . S
C1230 C1232 1.478 . S
C1231 H1225 0.930 . S
C1231 C1227 1.400 . S
C1231 C1230 1.385 . S
C1232 C1230 1.478 . S
C1232 C1234 1.381 . S
C1232 C1238 1.383 . S
C1233 C1229 1.495 . S
C1233 H1239 0.959 . S
C1233 H1240 0.961 . S
C1233 H1241 0.960 . S
C1234 C1232 1.381 . S
C1234 C1235 1.394 . S
C1234 H1242 0.930 . S
C1235 C1234 1.394 . S
C1235 C1236 1.383 . S
C1235 H1243 0.929 . S
C1236 C1235 1.383 . S
C1236 C1237 1.377 . S
C1237 H1221 0.930 . S
C1237 C1236 1.377 . S
C1237 C1238 1.379 . S
C1238 H1222 0.931 . S
C1238 C1232 1.383 . S
C1238 C1237 1.379 . S
H1239 C1233 0.959 . S
H1240 C1233 0.961 . S
H1241 C1233 0.960 . S
H1242 C1234 0.930 . S
H1243 C1235 0.929 . S
H1244 C1252 0.929 . S
H1245 C1254 0.930 . S
H1246 C1256 0.930 . S
H1247 C1259 0.929 . S
H1248 C1262 0.930 . S
H1249 C1264 0.960 . S
H1250 C1264 0.960 . S
H1251 C1264 0.960 . S
C1252 H1244 0.929 . S
C1252 C1253 1.377 . S
C1252 C1254 1.384 . S
C1253 C1252 1.377 . S
C1253 C1259 1.390 . S
C1254 H1245 0.930 . S
C1254 C1252 1.384 . S
C1254 C1255 1.372 . S
C1255 C1254 1.372 . S
C1255 C1256 1.400 . S
C1255 C1260 1.490 . S
C1256 H1246 0.930 . S
C1256 C1255 1.400 . S
C1256 C1259 1.386 . S
H1257 C1273 0.930 . S
H1258 C1274 0.931 . S
C1259 H1247 0.929 . S
C1259 C1253 1.390 . S
C1259 C1256 1.386 . S
C1260 C1255 1.490 . S
C1260 C1262 1.395 . S
C1260 C1263 1.403 . S
H1261 C1267 0.930 . S
C1262 H1248 0.930 . S
C1262 C1260 1.395 . S
C1262 C1265 1.403 . S
C1263 C1260 1.403 . S
C1263 C1264 1.524 . S
C1263 C1267 1.400 . S
C1264 H1249 0.960 . S
C1264 H1250 0.960 . S
C1264 H1251 0.960 . S
C1264 C1263 1.524 . S
C1265 C1262 1.403 . S
C1265 C1266 1.392 . S
C1265 C1269 1.495 . S
C1266 C1265 1.392 . S
C1266 C1267 1.385 . S
C1266 C1268 1.478 . S
C1267 H1261 0.930 . S
C1267 C1263 1.400 . S
C1267 C1266 1.385 . S
C1268 C1266 1.478 . S
C1268 C1270 1.381 . S
C1268 C1274 1.383 . S
C1269 C1265 1.495 . S
C1269 H1275 0.959 . S
C1269 H1276 0.961 . S
C1269 H1277 0.960 . S
C1270 C1268 1.381 . S
C1270 C1271 1.394 . S
C1270 H1278 0.930 . S
C1271 C1270 1.394 . S
C1271 C1272 1.383 . S
C1271 H1279 0.929 . S
C1272 C1271 1.383 . S
C1272 C1273 1.377 . S
C1273 H1257 0.930 . S
C1273 C1272 1.377 . S
C1273 C1274 1.379 . S
C1274 H1258 0.931 . S
C1274 C1268 1.383 . S
C1274 C1273 1.379 . S
H1275 C1269 0.959 . S
H1276 C1269 0.961 . S
H1277 C1269 0.960 . S
H1278 C1270 0.930 . S
H1279 C1271 0.929 . S
H1280 C1288 0.929 . S
H1281 C1290 0.930 . S
H1282 C1292 0.930 . S
H1283 C1295 0.929 . S
H1284 C1298 0.930 . S
H1285 C1300 0.960 . S
H1286 C1300 0.960 . S
H1287 C1300 0.960 . S
C1288 H1280 0.929 . S
C1288 C1289 1.377 . S
C1288 C1290 1.384 . S
C1289 C1288 1.377 . S
C1289 C1295 1.390 . S
C1290 H1281 0.930 . S
C1290 C1288 1.384 . S
C1290 C1291 1.372 . S
C1291 C1290 1.372 . S
C1291 C1292 1.400 . S
C1291 C1296 1.490 . S
C1292 H1282 0.930 . S
C1292 C1291 1.400 . S
C1292 C1295 1.386 . S
H1293 C1309 0.930 . S
H1294 C1310 0.931 . S
C1295 H1283 0.929 . S
C1295 C1289 1.390 . S
C1295 C1292 1.386 . S
C1296 C1291 1.490 . S
C1296 C1298 1.395 . S
C1296 C1299 1.403 . S
H1297 C1303 0.930 . S
C1298 H1284 0.930 . S
C1298 C1296 1.395 . S
C1298 C1301 1.403 . S
C1299 C1296 1.403 . S
C1299 C1300 1.524 . S
C1299 C1303 1.400 . S
C1300 H1285 0.960 . S
C1300 H1286 0.960 . S
C1300 H1287 0.960 . S
C1300 C1299 1.524 . S
C1301 C1298 1.403 . S
C1301 C1302 1.392 . S
C1301 C1305 1.495 . S
C1302 C1301 1.392 . S
C1302 C1303 1.385 . S
C1302 C1304 1.478 . S
C1303 H1297 0.930 . S
C1303 C1299 1.400 . S
C1303 C1302 1.385 . S
C1304 C1302 1.478 . S
C1304 C1306 1.381 . S
C1304 C1310 1.383 . S
C1305 C1301 1.495 . S
C1305 H1311 0.959 . S
C1305 H1312 0.961 . S
C1305 H1313 0.960 . S
C1306 C1304 1.381 . S
C1306 C1307 1.394 . S
C1306 H1314 0.930 . S
C1307 C1306 1.394 . S
C1307 C1308 1.383 . S
C1307 H1315 0.929 . S
C1308 C1307 1.383 . S
C1308 C1309 1.377 . S
C1309 H1293 0.930 . S
C1309 C1308 1.377 . S
C1309 C1310 1.379 . S
C1310 H1294 0.931 . S
C1310 C1304 1.383 . S
C1310 C1309 1.379 . S
H1311 C1305 0.959 . S
H1312 C1305 0.961 . S
H1313 C1305 0.960 . S
H1314 C1306 0.930 . S
H1315 C1307 0.929 . S
H1316 C1324 0.929 . S
H1317 C1326 0.930 . S
H1318 C1328 0.930 . S
H1319 C1331 0.929 . S
H1320 C1334 0.930 . S
H1321 C1336 0.960 . S
H1322 C1336 0.960 . S
H1323 C1336 0.960 . S
C1324 H1316 0.929 . S
C1324 C1325 1.377 . S
C1324 C1326 1.384 . S
C1325 C1324 1.377 . S
C1325 C1331 1.390 . S
C1326 H1317 0.930 . S
C1326 C1324 1.384 . S
C1326 C1327 1.372 . S
C1327 C1326 1.372 . S
C1327 C1328 1.400 . S
C1327 C1332 1.490 . S
C1328 H1318 0.930 . S
C1328 C1327 1.400 . S
C1328 C1331 1.386 . S
H1329 C1345 0.930 . S
H1330 C1346 0.931 . S
C1331 H1319 0.929 . S
C1331 C1325 1.390 . S
C1331 C1328 1.386 . S
C1332 C1327 1.490 . S
C1332 C1334 1.395 . S
C1332 C1335 1.403 . S
H1333 C1339 0.930 . S
C1334 H1320 0.930 . S
C1334 C1332 1.395 . S
C1334 C1337 1.403 . S
C1335 C1332 1.403 . S
C1335 C1336 1.524 . S
C1335 C1339 1.400 . S
C1336 H1321 0.960 . S
C1336 H1322 0.960 . S
C1336 H1323 0.960 . S
C1336 C1335 1.524 . S
C1337 C1334 1.403 . S
C1337 C1338 1.392 . S
C1337 C1341 1.495 . S
C1338 C1337 1.392 . S
C1338 C1339 1.385 . S
C1338 C1340 1.478 . S
C1339 H1333 0.930 . S
C1339 C1335 1.400 . S
C1339 C1338 1.385 . S
C1340 C1338 1.478 . S
C1340 C1342 1.381 . S
C1340 C1346 1.383 . S
C1341 C1337 1.495 . S
C1341 H1347 0.959 . S
C1341 H1348 0.961 . S
C1341 H1349 0.960 . S
C1342 C1340 1.381 . S
C1342 C1343 1.394 . S
C1342 H1350 0.930 . S
C1343 C1342 1.394 . S
C1343 C1344 1.383 . S
C1343 H1351 0.929 . S
C1344 C1343 1.383 . S
C1344 C1345 1.377 . S
C1345 H1329 0.930 . S
C1345 C1344 1.377 . S
C1345 C1346 1.379 . S
C1346 H1330 0.931 . S
C1346 C1340 1.383 . S
C1346 C1345 1.379 . S
H1347 C1341 0.959 . S
H1348 C1341 0.961 . S
H1349 C1341 0.960 . S
H1350 C1342 0.930 . S
H1351 C1343 0.929 . S
H1352 C1360 0.929 . S
H1353 C1362 0.930 . S
H1354 C1364 0.930 . S
H1355 C1367 0.929 . S
H1356 C1370 0.930 . S
H1357 C1372 0.960 . S
H1358 C1372 0.960 . S
H1359 C1372 0.960 . S
C1360 H1352 0.929 . S
C1360 C1361 1.377 . S
C1360 C1362 1.384 . S
C1361 C1360 1.377 . S
C1361 C1367 1.390 . S
C1362 H1353 0.930 . S
C1362 C1360 1.384 . S
C1362 C1363 1.372 . S
C1363 C1362 1.372 . S
C1363 C1364 1.400 . S
C1363 C1368 1.490 . S
C1364 H1354 0.930 . S
C1364 C1363 1.400 . S
C1364 C1367 1.386 . S
H1365 C1381 0.930 . S
H1366 C1382 0.931 . S
C1367 H1355 0.929 . S
C1367 C1361 1.390 . S
C1367 C1364 1.386 . S
C1368 C1363 1.490 . S
C1368 C1370 1.395 . S
C1368 C1371 1.403 . S
H1369 C1375 0.930 . S
C1370 H1356 0.930 . S
C1370 C1368 1.395 . S
C1370 C1373 1.403 . S
C1371 C1368 1.403 . S
C1371 C1372 1.524 . S
C1371 C1375 1.400 . S
C1372 H1357 0.960 . S
C1372 H1358 0.960 . S
C1372 H1359 0.960 . S
C1372 C1371 1.524 . S
C1373 C1370 1.403 . S
C1373 C1374 1.392 . S
C1373 C1377 1.495 . S
C1374 C1373 1.392 . S
C1374 C1375 1.385 . S
C1374 C1376 1.478 . S
C1375 H1369 0.930 . S
C1375 C1371 1.400 . S
C1375 C1374 1.385 . S
C1376 C1374 1.478 . S
C1376 C1378 1.381 . S
C1376 C1382 1.383 . S
C1377 C1373 1.495 . S
C1377 H1383 0.959 . S
C1377 H1384 0.961 . S
C1377 H1385 0.960 . S
C1378 C1376 1.381 . S
C1378 C1379 1.394 . S
C1378 H1386 0.930 . S
C1379 C1378 1.394 . S
C1379 C1380 1.383 . S
C1379 H1387 0.929 . S
C1380 C1379 1.383 . S
C1380 C1381 1.377 . S
C1381 H1365 0.930 . S
C1381 C1380 1.377 . S
C1381 C1382 1.379 . S
C1382 H1366 0.931 . S
C1382 C1376 1.383 . S
C1382 C1381 1.379 . S
H1383 C1377 0.959 . S
H1384 C1377 0.961 . S
H1385 C1377 0.960 . S
H1386 C1378 0.930 . S
H1387 C1379 0.929 . S
H1388 C1396 0.929 . S
H1389 C1398 0.930 . S
H1390 C1400 0.930 . S
H1391 C1403 0.929 . S
H1392 C1406 0.930 . S
H1393 C1408 0.960 1_554 S
H1394 C1408 0.960 . S
H1395 C1408 0.960 . S
C1396 H1388 0.929 . S
C1396 C1397 1.377 . S
C1396 C1398 1.384 . S
C1397 C1396 1.377 . S
C1397 C1403 1.390 . S
C1398 H1389 0.930 . S
C1398 C1396 1.384 . S
C1398 C1399 1.372 . S
C1399 C1398 1.372 . S
C1399 C1400 1.400 . S
C1399 C1404 1.490 . S
C1400 H1390 0.930 . S
C1400 C1399 1.400 . S
C1400 C1403 1.386 . S
H1401 C1417 0.930 . S
H1402 C1418 0.931 . S
C1403 H1391 0.929 . S
C1403 C1397 1.390 . S
C1403 C1400 1.386 . S
C1404 C1399 1.490 . S
C1404 C1406 1.395 . S
C1404 C1407 1.403 . S
H1405 C1411 0.930 . S
C1406 H1392 0.930 . S
C1406 C1404 1.395 . S
C1406 C1409 1.403 . S
C1407 C1404 1.403 . S
C1407 C1408 1.524 . S
C1407 C1411 1.400 1_556 S
C1408 H1393 0.960 1_556 S
C1408 H1394 0.960 . S
C1408 H1395 0.960 . S
C1408 C1407 1.524 . S
C1409 C1406 1.403 . S
C1409 C1410 1.392 1_556 S
C1409 C1413 1.495 . S
C1410 C1409 1.392 1_554 S
C1410 C1411 1.385 . S
C1410 C1412 1.478 . S
C1411 H1405 0.930 . S
C1411 C1407 1.400 1_554 S
C1411 C1410 1.385 . S
C1412 C1410 1.478 . S
C1412 C1414 1.381 . S
C1412 C1418 1.383 . S
C1413 C1409 1.495 . S
C1413 H1419 0.959 . S
C1413 H1420 0.961 . S
C1413 H1421 0.960 . S
C1414 C1412 1.381 . S
C1414 C1415 1.394 . S
C1414 H1422 0.930 . S
C1415 C1414 1.394 . S
C1415 C1416 1.383 . S
C1415 H1423 0.929 . S
C1416 C1415 1.383 . S
C1416 C1417 1.377 . S
C1417 H1401 0.930 . S
C1417 C1416 1.377 . S
C1417 C1418 1.379 . S
C1418 H1402 0.931 . S
C1418 C1412 1.383 . S
C1418 C1417 1.379 . S
H1419 C1413 0.959 . S
H1420 C1413 0.961 . S
H1421 C1413 0.960 . S
H1422 C1414 0.930 . S
H1423 C1415 0.929 . S
H1424 C1432 0.929 . S
H1425 C1434 0.930 . S
H1426 C1436 0.930 . S
H1427 C1439 0.929 . S
H1428 C1442 0.930 . S
H1429 C1444 0.960 . S
H1430 C1444 0.960 . S
H1431 C1444 0.960 . S
C1432 H1424 0.929 . S
C1432 C1433 1.377 . S
C1432 C1434 1.384 . S
C1433 C1432 1.377 . S
C1433 C1439 1.390 . S
C1434 H1425 0.930 . S
C1434 C1432 1.384 . S
C1434 C1435 1.372 . S
C1435 C1434 1.372 . S
C1435 C1436 1.400 . S
C1435 C1440 1.490 . S
C1436 H1426 0.930 . S
C1436 C1435 1.400 . S
C1436 C1439 1.386 . S
H1437 C1453 0.930 . S
H1438 C1454 0.931 . S
C1439 H1427 0.929 . S
C1439 C1433 1.390 . S
C1439 C1436 1.386 . S
C1440 C1435 1.490 . S
C1440 C1442 1.395 . S
C1440 C1443 1.403 . S
H1441 C1447 0.930 . S
C1442 H1428 0.930 . S
C1442 C1440 1.395 . S
C1442 C1445 1.403 . S
C1443 C1440 1.403 . S
C1443 C1444 1.524 . S
C1443 C1447 1.400 . S
C1444 H1429 0.960 . S
C1444 H1430 0.960 . S
C1444 H1431 0.960 . S
C1444 C1443 1.524 . S
C1445 C1442 1.403 . S
C1445 C1446 1.392 . S
C1445 C1449 1.495 . S
C1446 C1445 1.392 . S
C1446 C1447 1.385 . S
C1446 C1448 1.478 . S
C1447 H1441 0.930 . S
C1447 C1443 1.400 . S
C1447 C1446 1.385 . S
C1448 C1446 1.478 . S
C1448 C1450 1.381 . S
C1448 C1454 1.383 . S
C1449 C1445 1.495 . S
C1449 H1455 0.959 . S
C1449 H1456 0.961 . S
C1449 H1457 0.960 . S
C1450 C1448 1.381 . S
C1450 C1451 1.394 . S
C1450 H1458 0.930 . S
C1451 C1450 1.394 . S
C1451 C1452 1.383 . S
C1451 H1459 0.929 . S
C1452 C1451 1.383 . S
C1452 C1453 1.377 . S
C1453 H1437 0.930 . S
C1453 C1452 1.377 . S
C1453 C1454 1.379 . S
C1454 H1438 0.931 . S
C1454 C1448 1.383 . S
C1454 C1453 1.379 . S
H1455 C1449 0.959 . S
H1456 C1449 0.961 . S
H1457 C1449 0.960 . S
H1458 C1450 0.930 . S
H1459 C1451 0.929 . S
H1460 C1468 0.929 . S
H1461 C1470 0.930 . S
H1462 C1472 0.930 . S
H1463 C1475 0.929 . S
H1464 C1478 0.930 . S
H1465 C1480 0.960 . S
H1466 C1480 0.960 . S
H1467 C1480 0.960 . S
C1468 H1460 0.929 . S
C1468 C1469 1.377 . S
C1468 C1470 1.384 . S
C1469 C1468 1.377 . S
C1469 C1475 1.390 . S
C1470 H1461 0.930 . S
C1470 C1468 1.384 . S
C1470 C1471 1.372 . S
C1471 C1470 1.372 . S
C1471 C1472 1.400 . S
C1471 C1476 1.490 . S
C1472 H1462 0.930 . S
C1472 C1471 1.400 . S
C1472 C1475 1.386 . S
H1473 C1489 0.930 . S
H1474 C1490 0.931 . S
C1475 H1463 0.929 . S
C1475 C1469 1.390 . S
C1475 C1472 1.386 . S
C1476 C1471 1.490 . S
C1476 C1478 1.395 . S
C1476 C1479 1.403 . S
H1477 C1483 0.930 . S
C1478 H1464 0.930 . S
C1478 C1476 1.395 . S
C1478 C1481 1.403 . S
C1479 C1476 1.403 . S
C1479 C1480 1.524 . S
C1479 C1483 1.400 . S
C1480 H1465 0.960 . S
C1480 H1466 0.960 . S
C1480 H1467 0.960 . S
C1480 C1479 1.524 . S
C1481 C1478 1.403 . S
C1481 C1482 1.392 . S
C1481 C1485 1.495 . S
C1482 C1481 1.392 . S
C1482 C1483 1.385 . S
C1482 C1484 1.478 . S
C1483 H1477 0.930 . S
C1483 C1479 1.400 . S
C1483 C1482 1.385 . S
C1484 C1482 1.478 . S
C1484 C1486 1.381 . S
C1484 C1490 1.383 . S
C1485 C1481 1.495 . S
C1485 H1491 0.959 . S
C1485 H1492 0.961 . S
C1485 H1493 0.960 . S
C1486 C1484 1.381 . S
C1486 C1487 1.394 . S
C1486 H1494 0.930 . S
C1487 C1486 1.394 . S
C1487 C1488 1.383 . S
C1487 H1495 0.929 . S
C1488 C1487 1.383 . S
C1488 C1489 1.377 . S
C1489 H1473 0.930 . S
C1489 C1488 1.377 . S
C1489 C1490 1.379 . S
C1490 H1474 0.931 . S
C1490 C1484 1.383 . S
C1490 C1489 1.379 . S
H1491 C1485 0.959 . S
H1492 C1485 0.961 . S
H1493 C1485 0.960 . S
H1494 C1486 0.930 . S
H1495 C1487 0.929 . S
H1496 C1504 0.929 . S
H1497 C1506 0.930 . S
H1498 C1508 0.930 . S
H1499 C1511 0.929 . S
H1500 C1514 0.930 . S
H1501 C1516 0.960 . S
H1502 C1516 0.960 . S
H1503 C1516 0.960 . S
C1504 H1496 0.929 . S
C1504 C1505 1.377 . S
C1504 C1506 1.384 . S
C1505 C1504 1.377 . S
C1505 C1511 1.390 . S
C1506 H1497 0.930 . S
C1506 C1504 1.384 . S
C1506 C1507 1.372 . S
C1507 C1506 1.372 . S
C1507 C1508 1.400 . S
C1507 C1512 1.490 . S
C1508 H1498 0.930 . S
C1508 C1507 1.400 . S
C1508 C1511 1.386 . S
H1509 C1525 0.930 . S
H1510 C1526 0.931 . S
C1511 H1499 0.929 . S
C1511 C1505 1.390 . S
C1511 C1508 1.386 . S
C1512 C1507 1.490 . S
C1512 C1514 1.395 . S
C1512 C1515 1.403 . S
H1513 C1519 0.930 . S
C1514 H1500 0.930 . S
C1514 C1512 1.395 . S
C1514 C1517 1.403 . S
C1515 C1512 1.403 . S
C1515 C1516 1.524 . S
C1515 C1519 1.400 . S
C1516 H1501 0.960 . S
C1516 H1502 0.960 . S
C1516 H1503 0.960 . S
C1516 C1515 1.524 . S
C1517 C1514 1.403 . S
C1517 C1518 1.392 . S
C1517 C1521 1.495 . S
C1518 C1517 1.392 . S
C1518 C1519 1.385 . S
C1518 C1520 1.478 . S
C1519 H1513 0.930 . S
C1519 C1515 1.400 . S
C1519 C1518 1.385 . S
C1520 C1518 1.478 . S
C1520 C1522 1.381 . S
C1520 C1526 1.383 . S
C1521 C1517 1.495 . S
C1521 H1527 0.959 . S
C1521 H1528 0.961 . S
C1521 H1529 0.960 . S
C1522 C1520 1.381 . S
C1522 C1523 1.394 . S
C1522 H1530 0.930 . S
C1523 C1522 1.394 . S
C1523 C1524 1.383 . S
C1523 H1531 0.929 . S
C1524 C1523 1.383 . S
C1524 C1525 1.377 . S
C1525 H1509 0.930 . S
C1525 C1524 1.377 . S
C1525 C1526 1.379 . S
C1526 H1510 0.931 . S
C1526 C1520 1.383 . S
C1526 C1525 1.379 . S
H1527 C1521 0.959 . S
H1528 C1521 0.961 . S
H1529 C1521 0.960 . S
H1530 C1522 0.930 . S
H1531 C1523 0.929 . S
H1532 C1540 0.929 . S
H1533 C1542 0.930 . S
H1534 C1544 0.930 . S
H1535 C1547 0.929 . S
H1536 C1550 0.930 . S
H1537 C1552 0.960 . S
H1538 C1552 0.960 . S
H1539 C1552 0.960 . S
C1540 H1532 0.929 . S
C1540 C1541 1.377 . S
C1540 C1542 1.384 . S
C1541 C1540 1.377 . S
C1541 C1547 1.390 . S
C1542 H1533 0.930 . S
C1542 C1540 1.384 . S
C1542 C1543 1.372 . S
C1543 C1542 1.372 . S
C1543 C1544 1.400 . S
C1543 C1548 1.490 . S
C1544 H1534 0.930 . S
C1544 C1543 1.400 . S
C1544 C1547 1.386 . S
H1545 C1561 0.930 . S
H1546 C1562 0.931 . S
C1547 H1535 0.929 . S
C1547 C1541 1.390 . S
C1547 C1544 1.386 . S
C1548 C1543 1.490 . S
C1548 C1550 1.395 . S
C1548 C1551 1.403 . S
H1549 C1555 0.930 . S
C1550 H1536 0.930 . S
C1550 C1548 1.395 . S
C1550 C1553 1.403 . S
C1551 C1548 1.403 . S
C1551 C1552 1.524 . S
C1551 C1555 1.400 . S
C1552 H1537 0.960 . S
C1552 H1538 0.960 . S
C1552 H1539 0.960 . S
C1552 C1551 1.524 . S
C1553 C1550 1.403 . S
C1553 C1554 1.392 . S
C1553 C1557 1.495 . S
C1554 C1553 1.392 . S
C1554 C1555 1.385 . S
C1554 C1556 1.478 . S
C1555 H1549 0.930 . S
C1555 C1551 1.400 . S
C1555 C1554 1.385 . S
C1556 C1554 1.478 . S
C1556 C1558 1.381 . S
C1556 C1562 1.383 . S
C1557 C1553 1.495 . S
C1557 H1563 0.959 . S
C1557 H1564 0.961 . S
C1557 H1565 0.960 . S
C1558 C1556 1.381 . S
C1558 C1559 1.394 . S
C1558 H1566 0.930 . S
C1559 C1558 1.394 . S
C1559 C1560 1.383 . S
C1559 H1567 0.929 . S
C1560 C1559 1.383 . S
C1560 C1561 1.377 . S
C1561 H1545 0.930 . S
C1561 C1560 1.377 . S
C1561 C1562 1.379 . S
C1562 H1546 0.931 . S
C1562 C1556 1.383 . S
C1562 C1561 1.379 . S
H1563 C1557 0.959 . S
H1564 C1557 0.961 . S
H1565 C1557 0.960 . S
H1566 C1558 0.930 . S
H1567 C1559 0.929 . S
H1568 C1576 0.929 . S
H1569 C1578 0.930 . S
H1570 C1580 0.930 . S
H1571 C1583 0.929 . S
H1572 C1586 0.930 . S
H1573 C1588 0.960 . S
H1574 C1588 0.960 . S
H1575 C1588 0.960 . S
C1576 H1568 0.929 . S
C1576 C1577 1.377 . S
C1576 C1578 1.384 . S
C1577 C1576 1.377 . S
C1577 C1583 1.390 . S
C1578 H1569 0.930 . S
C1578 C1576 1.384 . S
C1578 C1579 1.372 . S
C1579 C1578 1.372 . S
C1579 C1580 1.400 . S
C1579 C1584 1.490 . S
C1580 H1570 0.930 . S
C1580 C1579 1.400 . S
C1580 C1583 1.386 . S
H1581 C1597 0.930 . S
H1582 C1598 0.931 . S
C1583 H1571 0.929 . S
C1583 C1577 1.390 . S
C1583 C1580 1.386 . S
C1584 C1579 1.490 . S
C1584 C1586 1.395 . S
C1584 C1587 1.403 . S
H1585 C1591 0.930 . S
C1586 H1572 0.930 . S
C1586 C1584 1.395 . S
C1586 C1589 1.403 . S
C1587 C1584 1.403 . S
C1587 C1588 1.524 . S
C1587 C1591 1.400 . S
C1588 H1573 0.960 . S
C1588 H1574 0.960 . S
C1588 H1575 0.960 . S
C1588 C1587 1.524 . S
C1589 C1586 1.403 . S
C1589 C1590 1.392 . S
C1589 C1593 1.495 . S
C1590 C1589 1.392 . S
C1590 C1591 1.385 . S
C1590 C1592 1.478 . S
C1591 H1585 0.930 . S
C1591 C1587 1.400 . S
C1591 C1590 1.385 . S
C1592 C1590 1.478 . S
C1592 C1594 1.381 . S
C1592 C1598 1.383 . S
C1593 C1589 1.495 . S
C1593 H1599 0.959 . S
C1593 H1600 0.961 . S
C1593 H1601 0.960 . S
C1594 C1592 1.381 . S
C1594 C1595 1.394 . S
C1594 H1602 0.930 . S
C1595 C1594 1.394 . S
C1595 C1596 1.383 . S
C1595 H1603 0.929 . S
C1596 C1595 1.383 . S
C1596 C1597 1.377 . S
C1597 H1581 0.930 . S
C1597 C1596 1.377 . S
C1597 C1598 1.379 . S
C1598 H1582 0.931 . S
C1598 C1592 1.383 . S
C1598 C1597 1.379 . S
H1599 C1593 0.959 . S
H1600 C1593 0.961 . S
H1601 C1593 0.960 . S
H1602 C1594 0.930 . S
H1603 C1595 0.929 . S
H1604 C1612 0.929 . S
H1605 C1614 0.930 . S
H1606 C1616 0.930 . S
H1607 C1619 0.929 . S
H1608 C1622 0.930 . S
H1609 C1624 0.960 . S
H1610 C1624 0.960 . S
H1611 C1624 0.960 . S
C1612 H1604 0.929 . S
C1612 C1613 1.377 . S
C1612 C1614 1.384 . S
C1613 C1612 1.377 . S
C1613 C1619 1.390 . S
C1614 H1605 0.930 . S
C1614 C1612 1.384 . S
C1614 C1615 1.372 . S
C1615 C1614 1.372 . S
C1615 C1616 1.400 . S
C1615 C1620 1.490 . S
C1616 H1606 0.930 . S
C1616 C1615 1.400 . S
C1616 C1619 1.386 . S
H1617 C1633 0.930 . S
H1618 C1634 0.931 . S
C1619 H1607 0.929 . S
C1619 C1613 1.390 . S
C1619 C1616 1.386 . S
C1620 C1615 1.490 . S
C1620 C1622 1.395 . S
C1620 C1623 1.403 . S
H1621 C1627 0.930 . S
C1622 H1608 0.930 . S
C1622 C1620 1.395 . S
C1622 C1625 1.403 . S
C1623 C1620 1.403 . S
C1623 C1624 1.524 . S
C1623 C1627 1.400 . S
C1624 H1609 0.960 . S
C1624 H1610 0.960 . S
C1624 H1611 0.960 . S
C1624 C1623 1.524 . S
C1625 C1622 1.403 . S
C1625 C1626 1.392 . S
C1625 C1629 1.495 . S
C1626 C1625 1.392 . S
C1626 C1627 1.385 . S
C1626 C1628 1.478 . S
C1627 H1621 0.930 . S
C1627 C1623 1.400 . S
C1627 C1626 1.385 . S
C1628 C1626 1.478 . S
C1628 C1630 1.381 . S
C1628 C1634 1.383 . S
C1629 C1625 1.495 . S
C1629 H1635 0.959 . S
C1629 H1636 0.961 . S
C1629 H1637 0.960 . S
C1630 C1628 1.381 . S
C1630 C1631 1.394 . S
C1630 H1638 0.930 . S
C1631 C1630 1.394 . S
C1631 C1632 1.383 . S
C1631 H1639 0.929 . S
C1632 C1631 1.383 . S
C1632 C1633 1.377 . S
C1633 H1617 0.930 . S
C1633 C1632 1.377 . S
C1633 C1634 1.379 . S
C1634 H1618 0.931 . S
C1634 C1628 1.383 . S
C1634 C1633 1.379 . S
H1635 C1629 0.959 . S
H1636 C1629 0.961 . S
H1637 C1629 0.960 . S
H1638 C1630 0.930 . S
H1639 C1631 0.929 . S
H1640 C1648 0.929 . S
H1641 C1650 0.930 . S
H1642 C1652 0.930 . S
H1643 C1655 0.929 . S
H1644 C1658 0.930 . S
H1645 C1660 0.960 . S
H1646 C1660 0.960 . S
H1647 C1660 0.960 . S
C1648 H1640 0.929 . S
C1648 C1649 1.377 . S
C1648 C1650 1.384 . S
C1649 C1648 1.377 . S
C1649 C1655 1.390 . S
C1650 H1641 0.930 . S
C1650 C1648 1.384 . S
C1650 C1651 1.372 . S
C1651 C1650 1.372 . S
C1651 C1652 1.400 . S
C1651 C1656 1.490 . S
C1652 H1642 0.930 . S
C1652 C1651 1.400 . S
C1652 C1655 1.386 . S
H1653 C1669 0.930 . S
H1654 C1670 0.931 . S
C1655 H1643 0.929 . S
C1655 C1649 1.390 . S
C1655 C1652 1.386 . S
C1656 C1651 1.490 . S
C1656 C1658 1.395 . S
C1656 C1659 1.403 . S
H1657 C1663 0.930 . S
C1658 H1644 0.930 . S
C1658 C1656 1.395 . S
C1658 C1661 1.403 . S
C1659 C1656 1.403 . S
C1659 C1660 1.524 . S
C1659 C1663 1.400 . S
C1660 H1645 0.960 . S
C1660 H1646 0.960 . S
C1660 H1647 0.960 . S
C1660 C1659 1.524 . S
C1661 C1658 1.403 . S
C1661 C1662 1.392 . S
C1661 C1665 1.495 . S
C1662 C1661 1.392 . S
C1662 C1663 1.385 . S
C1662 C1664 1.478 . S
C1663 H1657 0.930 . S
C1663 C1659 1.400 . S
C1663 C1662 1.385 . S
C1664 C1662 1.478 . S
C1664 C1666 1.381 . S
C1664 C1670 1.383 . S
C1665 C1661 1.495 . S
C1665 H1671 0.959 . S
C1665 H1672 0.961 . S
C1665 H1673 0.960 . S
C1666 C1664 1.381 . S
C1666 C1667 1.394 . S
C1666 H1674 0.930 . S
C1667 C1666 1.394 . S
C1667 C1668 1.383 . S
C1667 H1675 0.929 . S
C1668 C1667 1.383 . S
C1668 C1669 1.377 . S
C1669 H1653 0.930 . S
C1669 C1668 1.377 . S
C1669 C1670 1.379 . S
C1670 H1654 0.931 . S
C1670 C1664 1.383 . S
C1670 C1669 1.379 . S
H1671 C1665 0.959 . S
H1672 C1665 0.961 . S
H1673 C1665 0.960 . S
H1674 C1666 0.930 . S
H1675 C1667 0.929 . S
H1676 C1684 0.929 . S
H1677 C1686 0.930 . S
H1678 C1688 0.930 . S
H1679 C1691 0.929 . S
H1680 C1694 0.930 . S
H1681 C1696 0.960 . S
H1682 C1696 0.960 . S
H1683 C1696 0.960 . S
C1684 H1676 0.929 . S
C1684 C1685 1.377 . S
C1684 C1686 1.384 . S
C1685 C1684 1.377 . S
C1685 C1691 1.390 . S
C1686 H1677 0.930 . S
C1686 C1684 1.384 . S
C1686 C1687 1.372 . S
C1687 C1686 1.372 . S
C1687 C1688 1.400 . S
C1687 C1692 1.490 . S
C1688 H1678 0.930 . S
C1688 C1687 1.400 . S
C1688 C1691 1.386 . S
H1689 C1705 0.930 . S
H1690 C1706 0.931 . S
C1691 H1679 0.929 . S
C1691 C1685 1.390 . S
C1691 C1688 1.386 . S
C1692 C1687 1.490 . S
C1692 C1694 1.395 . S
C1692 C1695 1.403 . S
H1693 C1699 0.930 . S
C1694 H1680 0.930 . S
C1694 C1692 1.395 . S
C1694 C1697 1.403 . S
C1695 C1692 1.403 . S
C1695 C1696 1.524 . S
C1695 C1699 1.400 . S
C1696 H1681 0.960 . S
C1696 H1682 0.960 . S
C1696 H1683 0.960 . S
C1696 C1695 1.524 . S
C1697 C1694 1.403 . S
C1697 C1698 1.392 . S
C1697 C1701 1.495 . S
C1698 C1697 1.392 . S
C1698 C1699 1.385 . S
C1698 C1700 1.478 . S
C1699 H1693 0.930 . S
C1699 C1695 1.400 . S
C1699 C1698 1.385 . S
C1700 C1698 1.478 . S
C1700 C1702 1.381 . S
C1700 C1706 1.383 . S
C1701 C1697 1.495 . S
C1701 H1707 0.959 . S
C1701 H1708 0.961 . S
C1701 H1709 0.960 . S
C1702 C1700 1.381 . S
C1702 C1703 1.394 . S
C1702 H1710 0.930 . S
C1703 C1702 1.394 . S
C1703 C1704 1.383 . S
C1703 H1711 0.929 . S
C1704 C1703 1.383 . S
C1704 C1705 1.377 . S
C1705 H1689 0.930 . S
C1705 C1704 1.377 . S
C1705 C1706 1.379 . S
C1706 H1690 0.931 . S
C1706 C1700 1.383 . S
C1706 C1705 1.379 . S
H1707 C1701 0.959 . S
H1708 C1701 0.961 . S
H1709 C1701 0.960 . S
H1710 C1702 0.930 . S
H1711 C1703 0.929 . S
H1712 C1720 0.929 . S
H1713 C1722 0.930 . S
H1714 C1724 0.930 . S
H1715 C1727 0.929 . S
H1716 C1730 0.930 . S
H1717 C1732 0.960 . S
H1718 C1732 0.960 . S
H1719 C1732 0.960 . S
C1720 H1712 0.929 . S
C1720 C1721 1.377 . S
C1720 C1722 1.384 . S
C1721 C1720 1.377 . S
C1721 C1727 1.390 . S
C1722 H1713 0.930 . S
C1722 C1720 1.384 . S
C1722 C1723 1.372 . S
C1723 C1722 1.372 . S
C1723 C1724 1.400 . S
C1723 C1728 1.490 . S
C1724 H1714 0.930 . S
C1724 C1723 1.400 . S
C1724 C1727 1.386 . S
H1725 C1741 0.930 . S
H1726 C1742 0.931 . S
C1727 H1715 0.929 . S
C1727 C1721 1.390 . S
C1727 C1724 1.386 . S
C1728 C1723 1.490 . S
C1728 C1730 1.395 . S
C1728 C1731 1.403 . S
H1729 C1735 0.930 . S
C1730 H1716 0.930 . S
C1730 C1728 1.395 . S
C1730 C1733 1.403 . S
C1731 C1728 1.403 . S
C1731 C1732 1.524 . S
C1731 C1735 1.400 . S
C1732 H1717 0.960 . S
C1732 H1718 0.960 . S
C1732 H1719 0.960 . S
C1732 C1731 1.524 . S
C1733 C1730 1.403 . S
C1733 C1734 1.392 . S
C1733 C1737 1.495 . S
C1734 C1733 1.392 . S
C1734 C1735 1.385 . S
C1734 C1736 1.478 . S
C1735 H1729 0.930 . S
C1735 C1731 1.400 . S
C1735 C1734 1.385 . S
C1736 C1734 1.478 . S
C1736 C1738 1.381 . S
C1736 C1742 1.383 . S
C1737 C1733 1.495 . S
C1737 H1743 0.959 . S
C1737 H1744 0.961 . S
C1737 H1745 0.960 . S
C1738 C1736 1.381 . S
C1738 C1739 1.394 . S
C1738 H1746 0.930 . S
C1739 C1738 1.394 . S
C1739 C1740 1.383 . S
C1739 H1747 0.929 . S
C1740 C1739 1.383 . S
C1740 C1741 1.377 . S
C1741 H1725 0.930 . S
C1741 C1740 1.377 . S
C1741 C1742 1.379 . S
C1742 H1726 0.931 . S
C1742 C1736 1.383 . S
C1742 C1741 1.379 . S
H1743 C1737 0.959 . S
H1744 C1737 0.961 . S
H1745 C1737 0.960 . S
H1746 C1738 0.930 . S
H1747 C1739 0.929 . S
H1748 C1756 0.929 . S
H1749 C1758 0.930 . S
H1750 C1760 0.930 . S
H1751 C1763 0.929 . S
H1752 C1766 0.930 . S
H1753 C1768 0.960 . S
H1754 C1768 0.960 . S
H1755 C1768 0.960 . S
C1756 H1748 0.929 . S
C1756 C1757 1.377 . S
C1756 C1758 1.384 . S
C1757 C1756 1.377 . S
C1757 C1763 1.390 . S
C1758 H1749 0.930 . S
C1758 C1756 1.384 . S
C1758 C1759 1.372 . S
C1759 C1758 1.372 . S
C1759 C1760 1.400 . S
C1759 C1764 1.490 . S
C1760 H1750 0.930 . S
C1760 C1759 1.400 . S
C1760 C1763 1.386 . S
H1761 C1777 0.930 . S
H1762 C1778 0.931 . S
C1763 H1751 0.929 . S
C1763 C1757 1.390 . S
C1763 C1760 1.386 . S
C1764 C1759 1.490 . S
C1764 C1766 1.395 . S
C1764 C1767 1.403 . S
H1765 C1771 0.930 . S
C1766 H1752 0.930 . S
C1766 C1764 1.395 . S
C1766 C1769 1.403 . S
C1767 C1764 1.403 . S
C1767 C1768 1.524 . S
C1767 C1771 1.400 . S
C1768 H1753 0.960 . S
C1768 H1754 0.960 . S
C1768 H1755 0.960 . S
C1768 C1767 1.524 . S
C1769 C1766 1.403 . S
C1769 C1770 1.392 . S
C1769 C1773 1.495 . S
C1770 C1769 1.392 . S
C1770 C1771 1.385 . S
C1770 C1772 1.478 . S
C1771 H1765 0.930 . S
C1771 C1767 1.400 . S
C1771 C1770 1.385 . S
C1772 C1770 1.478 . S
C1772 C1774 1.381 . S
C1772 C1778 1.383 . S
C1773 C1769 1.495 . S
C1773 H1779 0.959 . S
C1773 H1780 0.961 . S
C1773 H1781 0.960 . S
C1774 C1772 1.381 . S
C1774 C1775 1.394 . S
C1774 H1782 0.930 . S
C1775 C1774 1.394 . S
C1775 C1776 1.383 . S
C1775 H1783 0.929 . S
C1776 C1775 1.383 . S
C1776 C1777 1.377 . S
C1777 H1761 0.930 . S
C1777 C1776 1.377 . S
C1777 C1778 1.379 . S
C1778 H1762 0.931 . S
C1778 C1772 1.383 . S
C1778 C1777 1.379 . S
H1779 C1773 0.959 . S
H1780 C1773 0.961 . S
H1781 C1773 0.960 . S
H1782 C1774 0.930 . S
H1783 C1775 0.929 . S
H1784 C1792 0.929 . S
H1785 C1794 0.930 . S
H1786 C1796 0.930 . S
H1787 C1799 0.929 . S
H1788 C1802 0.930 . S
H1789 C1804 0.960 . S
H1790 C1804 0.960 . S
H1791 C1804 0.960 . S
C1792 H1784 0.929 . S
C1792 C1793 1.377 . S
C1792 C1794 1.384 . S
C1793 C1792 1.377 . S
C1793 C1799 1.390 . S
C1794 H1785 0.930 . S
C1794 C1792 1.384 . S
C1794 C1795 1.372 . S
C1795 C1794 1.372 . S
C1795 C1796 1.400 . S
C1795 C1800 1.490 . S
C1796 H1786 0.930 . S
C1796 C1795 1.400 . S
C1796 C1799 1.386 . S
H1797 C1813 0.930 1_554 S
H1798 C1814 0.931 . S
C1799 H1787 0.929 . S
C1799 C1793 1.390 . S
C1799 C1796 1.386 . S
C1800 C1795 1.490 . S
C1800 C1802 1.395 . S
C1800 C1803 1.403 . S
H1801 C1807 0.930 . S
C1802 H1788 0.930 . S
C1802 C1800 1.395 . S
C1802 C1805 1.403 . S
C1803 C1800 1.403 . S
C1803 C1804 1.524 . S
C1803 C1807 1.400 . S
C1804 H1789 0.960 . S
C1804 H1790 0.960 . S
C1804 H1791 0.960 . S
C1804 C1803 1.524 . S
C1805 C1802 1.403 . S
C1805 C1806 1.392 . S
C1805 C1809 1.495 . S
C1806 C1805 1.392 . S
C1806 C1807 1.385 . S
C1806 C1808 1.478 . S
C1807 H1801 0.930 . S
C1807 C1803 1.400 . S
C1807 C1806 1.385 . S
C1808 C1806 1.478 . S
C1808 C1810 1.381 . S
C1808 C1814 1.383 . S
C1809 C1805 1.495 . S
C1809 H1815 0.959 . S
C1809 H1816 0.961 . S
C1809 H1817 0.960 . S
C1810 C1808 1.381 . S
C1810 C1811 1.394 . S
C1810 H1818 0.930 . S
C1811 C1810 1.394 . S
C1811 C1812 1.383 . S
C1811 H1819 0.929 . S
C1812 C1811 1.383 . S
C1812 C1813 1.377 . S
C1813 H1797 0.930 1_556 S
C1813 C1812 1.377 . S
C1813 C1814 1.379 . S
C1814 H1798 0.931 . S
C1814 C1808 1.383 . S
C1814 C1813 1.379 . S
H1815 C1809 0.959 . S
H1816 C1809 0.961 . S
H1817 C1809 0.960 . S
H1818 C1810 0.930 . S
H1819 C1811 0.929 . S
H1820 C1828 0.929 . S
H1821 C1830 0.930 . S
H1822 C1832 0.930 . S
H1823 C1835 0.929 . S
H1824 C1838 0.930 . S
H1825 C1840 0.960 1_554 S
H1826 C1840 0.960 . S
H1827 C1840 0.960 . S
C1828 H1820 0.929 . S
C1828 C1829 1.377 . S
C1828 C1830 1.384 . S
C1829 C1828 1.377 . S
C1829 C1835 1.390 . S
C1830 H1821 0.930 . S
C1830 C1828 1.384 . S
C1830 C1831 1.372 . S
C1831 C1830 1.372 . S
C1831 C1832 1.400 . S
C1831 C1836 1.490 . S
C1832 H1822 0.930 . S
C1832 C1831 1.400 . S
C1832 C1835 1.386 . S
H1833 C1849 0.930 . S
H1834 C1850 0.931 . S
C1835 H1823 0.929 . S
C1835 C1829 1.390 . S
C1835 C1832 1.386 . S
C1836 C1831 1.490 . S
C1836 C1838 1.395 . S
C1836 C1839 1.403 . S
H1837 C1843 0.930 . S
C1838 H1824 0.930 . S
C1838 C1836 1.395 . S
C1838 C1841 1.403 . S
C1839 C1836 1.403 . S
C1839 C1840 1.524 . S
C1839 C1843 1.400 1_556 S
C1840 H1825 0.960 1_556 S
C1840 H1826 0.960 . S
C1840 H1827 0.960 . S
C1840 C1839 1.524 . S
C1841 C1838 1.403 . S
C1841 C1842 1.392 1_556 S
C1841 C1845 1.495 . S
C1842 C1841 1.392 1_554 S
C1842 C1843 1.385 . S
C1842 C1844 1.478 . S
C1843 H1837 0.930 . S
C1843 C1839 1.400 1_554 S
C1843 C1842 1.385 . S
C1844 C1842 1.478 . S
C1844 C1846 1.381 . S
C1844 C1850 1.383 . S
C1845 C1841 1.495 . S
C1845 H1851 0.959 . S
C1845 H1852 0.961 . S
C1845 H1853 0.960 . S
C1846 C1844 1.381 . S
C1846 C1847 1.394 . S
C1846 H1854 0.930 . S
C1847 C1846 1.394 . S
C1847 C1848 1.383 . S
C1847 H1855 0.929 . S
C1848 C1847 1.383 . S
C1848 C1849 1.377 . S
C1849 H1833 0.930 . S
C1849 C1848 1.377 . S
C1849 C1850 1.379 . S
C1850 H1834 0.931 . S
C1850 C1844 1.383 . S
C1850 C1849 1.379 . S
H1851 C1845 0.959 . S
H1852 C1845 0.961 . S
H1853 C1845 0.960 . S
H1854 C1846 0.930 . S
H1855 C1847 0.929 . S
C732 C593 1.664 . S
C713 C39 1.626 . S
C768 C619 1.670 . S
C749 C125 1.659 . S
C804 C633 2.256 1_655 S
C785 C217 2.194 . S
C840 C635 1.920 . S
C821 C261 1.841 . S
C857 C359 1.458 . S
C876 C632 1.468 . S
C912 C634 1.446 . S
C893 C433 1.349 . S
C948 C592 1.491 . S
C929 C495 1.523 . S
C984 C618 1.709 . S
C965 C587 1.712 . S
C1020 C620 1.773 . S
C1001 C557 1.765 . S
C1056 C646 1.081 . S
C1037 C347 1.078 . S
C1092 C604 1.041 . S
C1073 C421 1.034 . S
C1128 C606 1.643 . S
C1109 C507 1.621 . S
C1164 C605 1.508 . S
C1145 C137 1.495 . S
C1200 C607 1.565 . S
C1181 C187 1.525 . S
C1236 C621 2.690 . S
C1217 C291 2.651 . S
C1272 C647 2.142 . S
C1253 C69 2.164 . S
C1308 C649 1.461 . S
C1289 C581 1.452 . S
C1325 C365 2.124 . S
C1344 C675 2.105 . S
C1361 C439 2.558 . S
C1380 C688 2.547 . S
C1397 C483 1.492 . S
C1416 C691 1.518 . S
C1433 C113 1.777 . S
C1452 C689 1.786 . S
C1469 C211 1.633 . S
C1488 C690 1.660 . S
C1505 C273 1.222 . S
C1524 C648 1.248 . S
C1560 C674 1.097 . S
C1541 C51 1.105 . S
C1596 C677 1.563 . S
C1577 C63 1.520 . S
C1613 C143 1.748 . S
C1632 C702 1.739 . S
C1649 C199 1.733 . S
C1668 C660 1.734 . S
C1685 C285 1.339 . S
C1704 C662 1.410 . S
C1740 C661 1.601 . S
C1721 C335 1.584 . S
C1776 C663 1.974 . S
C1757 C409 1.870 . S
C1793 C513 2.080 . S
C1812 C676 2.081 1_556 S
C1848 C703 1.630 . S
C1829 C569 1.649 . S
