# Generated by pormake.
# Topology zzz, (3,6)-cn, num edge types: 1
# Building blocks:
#     Node 0, Type 0, BuildingBlock: ESEHIV_clean_linker_0, # of connection points: 3
#     Node 1, Type 0, BuildingBlock: ESEHIV_clean_linker_0, # of connection points: 3
#     Node 2, Type 0, BuildingBlock: ESEHIV_clean_linker_0, # of connection points: 3
#     Node 3, Type 0, BuildingBlock: ESEHIV_clean_linker_0, # of connection points: 3
#     Node 4, Type 0, BuildingBlock: ESEHIV_clean_linker_0, # of connection points: 3
#     Node 5, Type 0, BuildingBlock: ESEHIV_clean_linker_0, # of connection points: 3
#     Node 6, Type 0, BuildingBlock: ESEHIV_clean_linker_0, # of connection points: 3
#     Node 7, Type 0, BuildingBlock: ESEHIV_clean_linker_0, # of connection points: 3
#     Node 8, Type 1, BuildingBlock: CUWYAW_clean_sbu_0, # of connection points: 6
#     Node 9, Type 1, BuildingBlock: CUWYAW_clean_sbu_0, # of connection points: 6
#     Node 10, Type 1, BuildingBlock: CUWYAW_clean_sbu_0, # of connection points: 6
#     Node 11, Type 1, BuildingBlock: CUWYAW_clean_sbu_0, # of connection points: 6
#     Edge 12, Type (0, 1), BuildingBlock: ZUJKAS_clean_linker_0, # of connection points: 2
#     Edge 13, Type (0, 1), BuildingBlock: ZUJKAS_clean_linker_0, # of connection points: 2
#     Edge 14, Type (0, 1), BuildingBlock: ZUJKAS_clean_linker_0, # of connection points: 2
#     Edge 15, Type (0, 1), BuildingBlock: ZUJKAS_clean_linker_0, # of connection points: 2
#     Edge 16, Type (0, 1), BuildingBlock: ZUJKAS_clean_linker_0, # of connection points: 2
#     Edge 17, Type (0, 1), BuildingBlock: ZUJKAS_clean_linker_0, # of connection points: 2
#     Edge 18, Type (0, 1), BuildingBlock: ZUJKAS_clean_linker_0, # of connection points: 2
#     Edge 19, Type (0, 1), BuildingBlock: ZUJKAS_clean_linker_0, # of connection points: 2
#     Edge 20, Type (0, 1), BuildingBlock: ZUJKAS_clean_linker_0, # of connection points: 2
#     Edge 21, Type (0, 1), BuildingBlock: ZUJKAS_clean_linker_0, # of connection points: 2
#     Edge 22, Type (0, 1), BuildingBlock: ZUJKAS_clean_linker_0, # of connection points: 2
#     Edge 23, Type (0, 1), BuildingBlock: ZUJKAS_clean_linker_0, # of connection points: 2
#     Edge 24, Type (0, 1), BuildingBlock: ZUJKAS_clean_linker_0, # of connection points: 2
#     Edge 25, Type (0, 1), BuildingBlock: ZUJKAS_clean_linker_0, # of connection points: 2
#     Edge 26, Type (0, 1), BuildingBlock: ZUJKAS_clean_linker_0, # of connection points: 2
#     Edge 27, Type (0, 1), BuildingBlock: ZUJKAS_clean_linker_0, # of connection points: 2
#     Edge 28, Type (0, 1), BuildingBlock: ZUJKAS_clean_linker_0, # of connection points: 2
#     Edge 29, Type (0, 1), BuildingBlock: ZUJKAS_clean_linker_0, # of connection points: 2
#     Edge 30, Type (0, 1), BuildingBlock: ZUJKAS_clean_linker_0, # of connection points: 2
#     Edge 31, Type (0, 1), BuildingBlock: ZUJKAS_clean_linker_0, # of connection points: 2
#     Edge 32, Type (0, 1), BuildingBlock: ZUJKAS_clean_linker_0, # of connection points: 2
#     Edge 33, Type (0, 1), BuildingBlock: ZUJKAS_clean_linker_0, # of connection points: 2
#     Edge 34, Type (0, 1), BuildingBlock: ZUJKAS_clean_linker_0, # of connection points: 2
#     Edge 35, Type (0, 1), BuildingBlock: ZUJKAS_clean_linker_0, # of connection points: 2
# Relax obj value: 0.425
# Max RMSD: 0.249
# Mean RMSD: 0.230
data_MOF--net-zzz--node1-CUWYAW_clean_sbu_0--node2-ESEHIV_clean_linker_0--edge1-ZUJKAS_clean_linker_0
_symmetry_space_group_name_H-M    P1
_symmetry_Int_Tables_number       1
_symmetry_cell_setting            triclinic
loop_
_symmetry_equiv_pos_as_xyz
'x, y, z'
_cell_length_a     59.938629
_cell_length_b     59.932397
_cell_length_c     19.476918
_cell_angle_alpha  89.993724
_cell_angle_beta   89.861311
_cell_angle_gamma 90.0388
loop_
_atom_site_label
_atom_site_type_symbol
_atom_site_fract_x
_atom_site_fract_y
_atom_site_fract_z
_atom_type_partial_charge
H0 H 0.77447 0.47681 0.28796 0.0
H1 H 0.71891 0.4689 0.15164 0.0
H2 H 0.72075 0.52436 0.2932 0.0
C3 C 0.75833 0.48237 0.26948 0.0
C4 C 0.74891 0.50167 0.29746 0.0
C5 C 0.74798 0.47078 0.21596 0.0
C6 C 0.72692 0.47771 0.19354 0.0
C7 C 0.71675 0.49686 0.2214 0.0
C8 C 0.72806 0.50922 0.27278 0.0
H9 H 0.04194 0.78753 0.26925 0.0
H10 H 0.04355 0.72395 0.1687 0.0
H11 H 0.9953 0.7365 0.32884 0.0
C12 C 0.036 0.77052 0.26462 0.0
C13 C 0.01868 0.76345 0.30819 0.0
C14 C 0.04529 0.75649 0.21456 0.0
C15 C 0.03648 0.73502 0.20694 0.0
C16 C 0.01821 0.72766 0.24644 0.0
C17 C 0.00912 0.74207 0.29725 0.0
H18 H 0.72233 0.95103 0.30746 0.0
H19 H 0.77416 0.95267 0.1564 0.0
H20 H 0.77479 0.99995 0.32374 0.0
C21 C 0.73825 0.9577 0.29038 0.0
C22 C 0.74752 0.97609 0.32453 0.0
C23 C 0.74763 0.94934 0.22994 0.0
C24 C 0.76722 0.95886 0.20422 0.0
C25 C 0.77754 0.97672 0.23855 0.0
C26 C 0.76748 0.98559 0.29858 0.0
H27 H 0.46297 0.73799 0.21927 0.0
H28 H 0.50517 0.79198 0.28434 0.0
H29 H 0.45845 0.80138 0.11858 0.0
C30 C 0.4679 0.75533 0.21504 0.0
C31 C 0.45828 0.76881 0.16431 0.0
C32 C 0.48421 0.76349 0.26013 0.0
C33 C 0.49229 0.78553 0.25087 0.0
C34 C 0.48285 0.79941 0.19947 0.0
C35 C 0.46577 0.79081 0.15756 0.0
H36 H 0.22824 0.54329 0.17135 0.0
H37 H 0.29327 0.53856 0.2604 0.0
H38 H 0.27954 0.50522 0.0688 0.0
C39 C 0.24533 0.53742 0.16842 0.0
C40 C 0.25202 0.52434 0.11205 0.0
C41 C 0.26004 0.54263 0.22184 0.0
C42 C 0.28177 0.53439 0.21941 0.0
C43 C 0.28904 0.52086 0.16507 0.0
C44 C 0.27402 0.5155 0.11128 0.0
H45 H 0.04795 0.24843 0.17269 0.0
H46 H 0.05113 0.31589 0.24786 0.0
H47 H 0.01309 0.30056 0.06722 0.0
C48 C 0.04433 0.26603 0.16795 0.0
C49 C 0.03172 0.27289 0.11096 0.0
C50 C 0.05081 0.28109 0.21981 0.0
C51 C 0.04547 0.30365 0.21099 0.0
C52 C 0.03118 0.31075 0.15854 0.0
C53 C 0.02408 0.29526 0.10814 0.0
H54 H 0.26868 0.97091 0.10671 0.0
H55 H 0.21316 0.96286 0.24291 0.0
H56 H 0.2195 0.02294 0.12114 0.0
C57 C 0.25288 0.97695 0.12678 0.0
C58 C 0.24539 0.99812 0.10735 0.0
C59 C 0.24141 0.96428 0.17565 0.0
C60 C 0.22155 0.97256 0.20361 0.0
C61 C 0.21295 0.99346 0.18349 0.0
C62 C 0.22536 1.00654 0.13597 0.0
H63 H 0.55272 0.28427 0.08352 0.0
H64 H 0.49723 0.23908 0.10218 0.0
H65 H 0.55669 0.22958 0.22416 0.0
C66 C 0.54553 0.26916 0.10496 0.0
C67 C 0.55732 0.25728 0.15481 0.0
C68 C 0.52388 0.26298 0.08606 0.0
C69 C 0.514 0.24391 0.11649 0.0
C70 C 0.52614 0.23107 0.16504 0.0
C71 C 0.54761 0.23833 0.18433 0.0
C72 C 0.97265 0.04777 0.57673 0.0
Eu73 Eu 0.98648 0.02271 0.67547 0.0
C74 C 0.98093 0.0704 0.56333 0.0
C75 C 0.96615 0.08764 0.5465 0.0
C76 C 0.97349 0.10981 0.54696 0.0
C77 C 0.99563 0.11493 0.56515 0.0
C78 C 0.01046 0.09757 0.58025 0.0
C79 C 1.00319 0.07556 0.57939 0.0
C80 C 0.9622 1.00643 0.7824 0.0
C81 C 1.00664 0.05759 0.78998 0.0
C82 C 0.028 0.98485 0.90708 0.0
Eu83 Eu 0.01418 1.00454 0.79717 0.0
C84 C 0.04421 0.96659 0.91472 0.0
C85 C 0.0613 0.96808 0.96356 0.0
C86 C 0.07757 0.95139 0.96774 0.0
C87 C 0.07696 0.9329 0.92313 0.0
C88 C 0.05989 0.93171 0.8738 0.0
C89 C 0.04383 0.94841 0.86931 0.0
C90 C 0.04224 0.01173 0.68741 0.0
C91 C 0.99715 0.97056 0.67534 0.0
O92 O 0.98711 0.03166 0.56705 0.0
O93 O 0.96175 0.04576 0.63466 0.0
O94 O 0.95687 1.00377 0.71822 0.0
O95 O 0.9798 0.01797 0.78715 0.0
O96 O 0.99984 0.05434 0.72616 0.0
O97 O 0.01111 0.0406 0.83102 0.0
O98 O 0.00906 0.97971 0.87704 0.0
O99 O 0.03644 1.00376 0.88532 0.0
O100 O 0.04864 1.00414 0.74626 0.0
O101 O 0.02159 0.01509 0.69098 0.0
O102 O 1.00254 0.97296 0.74108 0.0
O103 O 0.99261 0.98791 0.63577 0.0
H104 H 0.94881 0.08403 0.5355 0.0
H105 H 0.96175 0.12297 0.53503 0.0
H106 H 0.02769 0.10102 0.59325 0.0
H107 H 0.01483 0.06266 0.59427 0.0
H108 H 0.06213 0.98222 0.99812 0.0
H109 H 0.09055 0.95292 0.00601 0.0
H110 H 0.05848 0.91753 0.83964 0.0
H111 H 0.03108 0.94702 0.83021 0.0
C112 C 0.47141 0.99876 0.52306 0.0
Eu113 Eu 0.48781 0.00906 0.64176 0.0
C114 C 0.4557 0.9814 0.5015 0.0
C115 C 0.44253 0.97035 0.55053 0.0
C116 C 0.4271 0.95424 0.53005 0.0
C117 C 0.42473 0.9488 0.46026 0.0
C118 C 0.43858 0.95934 0.41159 0.0
C119 C 0.45394 0.97556 0.43214 0.0
C120 C 0.49648 0.97949 0.74674 0.0
C121 C 0.45315 0.02551 0.76306 0.0
C122 C 0.52458 0.037 0.90058 0.0
Eu123 Eu 0.5071 0.03395 0.77962 0.0
C124 C 0.538 0.02028 0.93701 0.0
C125 C 0.53659 0.01806 0.00855 0.0
C126 C 0.54775 1.00059 0.04168 0.0
C127 C 0.55999 0.98491 1.0033 0.0
C128 C 0.56132 0.98721 0.93182 0.0
C129 C 0.55059 1.0048 0.89907 0.0
C130 C 0.49873 0.06374 0.67575 0.0
C131 C 0.54083 0.01777 0.65824 0.0
O132 O 0.46302 0.0145 0.56232 0.0
O133 O 0.49078 0.99144 0.54456 0.0
O134 O 0.48823 0.97363 0.68788 0.0
O135 O 0.49955 1.0002 0.74415 0.0
O136 O 0.45594 0.01751 0.69985 0.0
O137 O 0.46998 0.03208 0.80264 0.0
O138 O 0.50368 0.0314 0.89083 0.0
O139 O 0.53388 0.04567 0.84564 0.0
O140 O 0.50593 0.06957 0.73624 0.0
O141 O 0.49589 0.04294 0.67642 0.0
O142 O 0.53791 0.02063 0.7252 0.0
O143 O 0.52388 0.01635 0.61482 0.0
H144 H 0.44394 0.97446 0.60453 0.0
H145 H 0.41676 0.94628 0.56863 0.0
H146 H 0.4369 0.9557 0.35738 0.0
H147 H 0.46415 0.98382 0.39382 0.0
H148 H 0.52672 0.02966 0.03853 0.0
H149 H 0.54671 0.9992 0.09704 0.0
H150 H 0.57099 0.97558 0.90127 0.0
H151 H 0.55166 1.00592 0.84374 0.0
C152 C 0.53417 0.4852 0.48343 0.0
Eu153 Eu 0.521 0.50214 0.59883 0.0
C154 C 0.55186 0.46933 0.46583 0.0
C155 C 0.56175 0.45628 0.51724 0.0
C156 C 0.57798 0.44052 0.5002 0.0
C157 C 0.58466 0.43768 0.43154 0.0
C158 C 0.57534 0.45147 0.38062 0.0
C159 C 0.55902 0.46716 0.39771 0.0
C160 C 0.54797 0.51006 0.71055 0.0
C161 C 0.50443 0.46812 0.72034 0.0
C162 C 0.47866 0.53951 0.84208 0.0
Eu163 Eu 0.49277 0.52144 0.72988 0.0
C164 C 0.46225 0.55751 0.85161 0.0
C165 C 0.4455 0.55567 0.90165 0.0
C166 C 0.42915 0.57224 0.90779 0.0
C167 C 0.42935 0.59093 0.86395 0.0
C168 C 0.44607 0.59245 0.81333 0.0
C169 C 0.46219 0.57587 0.8069 0.0
C170 C 0.46605 0.51424 0.61672 0.0
C171 C 0.50936 0.55544 0.61003 0.0
O172 O 0.51746 0.477 0.51928 0.0
O173 O 0.54111 0.5046 0.50609 0.0
O174 O 0.55519 0.50284 0.65177 0.0
O175 O 0.5273 0.51282 0.70483 0.0
O176 O 0.51098 0.47037 0.65535 0.0
O177 O 0.49904 0.4854 0.75978 0.0
O178 O 0.49758 0.54525 0.81265 0.0
O179 O 0.47045 0.52075 0.81825 0.0
O180 O 0.45891 0.52216 0.67466 0.0
O181 O 0.48657 0.51082 0.62367 0.0
O182 O 0.50403 0.5531 0.67584 0.0
O183 O 0.51349 0.53816 0.56916 0.0
H184 H 0.55659 0.458 0.57036 0.0
H185 H 0.58496 0.43022 0.54047 0.0
H186 H 0.57993 0.44943 0.32717 0.0
H187 H 0.55164 0.47727 0.3576 0.0
H188 H 0.445 0.54138 0.9357 0.0
H189 H 0.41644 0.57045 0.947 0.0
H190 H 0.44719 0.60679 0.77968 0.0
H191 H 0.47468 0.57753 0.7669 0.0
C192 C 0.02567 0.54616 0.53333 0.0
Eu193 Eu 0.00729 0.53108 0.64414 0.0
C194 C 0.04423 0.56188 0.5249 0.0
C195 C 0.04943 0.57694 0.5778 0.0
C196 C 0.06941 0.58888 0.57636 0.0
C197 C 0.08455 0.58588 0.52211 0.0
C198 C 0.07867 0.57172 0.46727 0.0
C199 C 0.05867 0.55978 0.4688 0.0
C200 C 1.0008 0.55557 0.76229 0.0
C201 C 0.04182 0.51216 0.76018 0.0
C202 C 0.97064 0.48351 0.87892 0.0
Eu203 Eu 0.98871 0.49989 0.76927 0.0
C204 C 0.95318 0.46652 0.88662 0.0
C205 C 0.93949 0.46121 0.83058 0.0
C206 C 0.92222 0.44578 0.83798 0.0
C207 C 0.91851 0.43522 0.90136 0.0
C208 C 0.93291 0.43982 0.95656 0.0
C209 C 0.95012 0.45544 0.94924 0.0
C210 C 0.99606 0.47577 0.65051 0.0
C211 C 0.95406 0.51924 0.65373 0.0
O212 O 0.03128 0.52704 0.56123 0.0
O213 O 0.00717 0.5545 0.55884 0.0
O214 O 0.00811 0.56373 0.70489 0.0
O215 O 0.99719 0.53511 0.75254 0.0
O216 O 0.03917 0.5194 0.69623 0.0
O217 O 0.02475 0.50638 0.80012 0.0
O218 O 0.96414 0.50238 0.85103 0.0
O219 O 0.98963 0.47621 0.85396 0.0
O220 O 0.98933 0.46703 0.70781 0.0
O221 O 0.99863 0.49623 0.66152 0.0
O222 O 0.95677 0.51104 0.7166 0.0
O223 O 0.97104 0.52582 0.61467 0.0
H224 H 0.03858 0.5787 0.6219 0.0
H225 H 0.0734 0.59976 0.61901 0.0
H226 H 0.09015 0.56874 0.42523 0.0
H227 H 0.05505 0.54803 0.42802 0.0
H228 H 0.94186 0.46936 0.78143 0.0
H229 H 0.91142 0.44247 0.79462 0.0
H230 H 0.93023 0.43211 0.00622 0.0
H231 H 0.96071 0.4592 0.99274 0.0
H232 H 0.17555 0.96879 0.20977 0.0
H233 H 0.14406 0.97843 0.28218 0.0
H234 H 0.16905 0.04566 0.30119 0.0
H235 H 0.20185 0.03546 0.23222 0.0
H236 H 0.15808 0.03274 0.41993 0.0
H237 H 0.08705 0.00882 0.25888 0.0
H238 H 0.10508 0.98517 0.2657 0.0
H239 H 0.11497 0.01034 0.22457 0.0
C240 C 0.17437 0.98572 0.22884 0.0
C241 C 0.19155 1.00123 0.21574 0.0
C242 C 0.15599 0.99136 0.26957 0.0
C243 C 0.15369 0.01294 0.29682 0.0
C244 C 0.17024 0.02889 0.28085 0.0
H245 H 0.03306 0.02939 0.55899 0.0
H246 H 0.0592 0.03383 0.46219 0.0
C247 C 0.18895 0.02311 0.24072 0.0
C248 C 0.13539 0.01784 0.34747 0.0
H249 H 0.08051 1.00665 0.38296 0.0
C250 C 0.14104 0.0274 0.41101 0.0
C251 C 0.11283 0.01157 0.3363 0.0
C252 C 0.10464 1.00367 0.26727 0.0
C253 C 0.12534 0.02949 0.46451 0.0
C254 C 0.10346 0.02086 0.45588 0.0
C255 C 0.09736 0.01273 0.39087 0.0
C256 C 0.08732 0.01885 0.5146 0.0
C257 C 0.13252 0.04099 0.52976 0.0
C258 C 0.09403 0.00856 0.576 0.0
C259 C 0.07931 1.00654 0.63144 0.0
C260 C 0.0572 0.01419 0.62678 0.0
C261 C 0.05008 0.02375 0.56466 0.0
C262 C 0.06502 0.02615 0.50918 0.0
H263 H 0.14536 0.05391 0.51896 0.0
H264 H 0.11824 0.04905 0.55635 0.0
H265 H 0.14015 0.02856 0.56481 0.0
H266 H 0.1107 1.00184 0.58109 0.0
H267 H 0.08528 0.99872 0.67806 0.0
H268 H 0.54794 0.19209 0.19193 0.0
H269 H 0.53639 0.16197 0.26716 0.0
H270 H 0.47154 0.19231 0.28964 0.0
H271 H 0.48375 0.22368 0.21739 0.0
H272 H 0.48471 0.18108 0.4085 0.0
H273 H 0.50112 0.10747 0.24886 0.0
H274 H 0.5262 0.12361 0.25259 0.0
H275 H 0.50153 0.13525 0.21332 0.0
C276 C 0.53111 0.19235 0.21226 0.0
C277 C 0.51691 0.21058 0.19906 0.0
C278 C 0.52435 0.17479 0.25471 0.0
C279 C 0.50289 0.1744 0.28378 0.0
C280 C 0.48818 0.19203 0.26789 0.0
H281 H 0.47874 0.05638 0.54997 0.0
H282 H 0.47565 0.0828 0.4537 0.0
C283 C 0.49509 0.2099 0.22591 0.0
C284 C 0.49695 0.15685 0.33584 0.0
H285 H 0.50375 0.10142 0.37282 0.0
C286 C 0.48849 0.16361 0.39996 0.0
C287 C 0.50118 0.1338 0.3252 0.0
C288 C 0.50774 0.12464 0.25589 0.0
C289 C 0.48556 0.14839 0.45438 0.0
C290 C 0.49218 0.12581 0.44597 0.0
C291 C 0.49921 0.11875 0.38055 0.0
C292 C 0.49315 0.1097 0.50499 0.0
C293 C 0.47529 0.15683 0.52024 0.0
C294 C 0.50426 0.11564 0.56581 0.0
C295 C 0.50559 0.10075 0.62098 0.0
C296 C 0.49644 0.07921 0.61645 0.0
C297 C 0.4858 0.0729 0.55519 0.0
C298 C 0.48409 0.08803 0.50009 0.0
H299 H 0.46343 0.17067 0.50996 0.0
H300 H 0.46625 0.14342 0.54814 0.0
H301 H 0.48862 0.16354 0.55386 0.0
H302 H 0.51226 0.13176 0.5705 0.0
H303 H 0.51422 0.10604 0.667 0.0
H304 H 0.32622 0.54623 0.15727 0.0
H305 H 0.36161 0.53789 0.21222 0.0
H306 H 0.3405 0.46975 0.24281 0.0
H307 H 0.30432 0.47865 0.19073 0.0
H308 H 0.35216 0.48472 0.35726 0.0
H309 H 0.42004 0.5104 0.18506 0.0
H310 H 0.40091 0.53317 0.19216 0.0
H311 H 0.39183 0.50717 0.15448 0.0
C312 C 0.32958 0.52917 0.17247 0.0
C313 C 0.31256 0.51304 0.16886 0.0
C314 C 0.34995 0.52435 0.20416 0.0
C315 C 0.35412 0.50308 0.23179 0.0
C316 C 0.33788 0.48631 0.22214 0.0
H317 H 0.47604 0.49333 0.49318 0.0
H318 H 0.4505 0.48717 0.39569 0.0
C319 C 0.31727 0.49127 0.19124 0.0
C320 C 0.37332 0.49969 0.28021 0.0
H321 H 0.4278 0.5144 0.30857 0.0
C322 C 0.3688 0.49076 0.34559 0.0
C323 C 0.39535 0.50711 0.26586 0.0
C324 C 0.40232 0.51474 0.19521 0.0
C325 C 0.38501 0.49044 0.39767 0.0
C326 C 0.40626 0.50008 0.38552 0.0
C327 C 0.41139 0.50753 0.31887 0.0
C328 C 0.42244 0.5041 0.44274 0.0
C329 C 0.37898 0.47998 0.46573 0.0
C330 C 0.41555 0.5162 0.50076 0.0
C331 C 0.42993 0.51947 0.55617 0.0
C332 C 0.45185 0.51114 0.55491 0.0
C333 C 0.45922 0.4998 0.49585 0.0
C334 C 0.44462 0.4963 0.44016 0.0
H335 H 0.36637 0.46655 0.45908 0.0
H336 H 0.39383 0.47282 0.49158 0.0
H337 H 0.37154 0.49286 0.4997 0.0
H338 H 0.39887 0.5231 0.50344 0.0
H339 H 0.42378 0.52855 0.6004 0.0
H340 H 0.99049 0.32309 0.20651 0.0
H341 H 0.983 0.35766 0.26919 0.0
H342 H 0.04579 0.38457 0.19936 0.0
H343 H 0.05339 0.34978 0.13769 0.0
H344 H 0.04376 0.38339 0.33642 0.0
H345 H 0.96603 0.42241 0.24266 0.0
H346 H 0.9626 0.39322 0.26012 0.0
H347 H 0.98129 0.40204 0.19292 0.0
C348 C 1.00202 0.3369 0.20099 0.0
C349 C 0.02233 0.33383 0.16591 0.0
C350 C 0.99783 0.35669 0.23753 0.0
C351 C 0.0138 0.37392 0.23935 0.0
C352 C 0.03314 0.37165 0.19888 0.0
H353 H 1.00374 0.49158 0.5187 0.0
H354 H 0.00876 0.46914 0.41333 0.0
C355 C 0.03734 0.35186 0.16257 0.0
C356 C 0.01215 0.39225 0.29158 0.0
H357 H 0.97744 0.43236 0.3576 0.0
C358 C 0.0294 0.39433 0.34005 0.0
C359 C 0.99349 0.40669 0.29691 0.0
C360 C 0.9749 0.40616 0.24495 0.0
C361 C 0.02809 0.4096 0.3948 0.0
C362 C 0.00895 0.4232 0.40217 0.0
C363 C 0.99209 0.42189 0.35226 0.0
C364 C 1.00551 0.43727 0.46468 0.0
C365 C 0.04704 0.41075 0.44549 0.0
C366 C 1.00189 0.4269 0.52832 0.0
C367 C 0.99901 0.43959 0.58794 0.0
C368 C 0.99978 0.46304 0.58584 0.0
C369 C 1.00333 0.47355 0.5221 0.0
C370 C 1.00604 0.46075 0.46189 0.0
H371 H 0.06259 0.40334 0.42431 0.0
H372 H 0.05044 0.42829 0.46062 0.0
H373 H 0.0424 0.40132 0.49246 0.0
H374 H 1.00124 0.40887 0.53186 0.0
H375 H 0.99619 0.43095 0.63604 0.0
H376 H 0.78168 0.99788 0.11601 0.0
H377 H 0.81621 1.00529 0.0522 0.0
H378 H 0.85477 0.98242 0.22497 0.0
H379 H 0.82006 0.97508 0.28921 0.0
H380 H 0.85654 0.03125 0.08083 0.0
H381 H 0.87136 0.93978 0.06183 0.0
H382 H 0.84468 0.95125 0.08656 0.0
H383 H 0.86734 0.95103 0.1466 0.0
C384 C 0.79756 0.99509 0.14108 0.0
C385 C 0.79824 0.98612 0.20775 0.0
C386 C 0.81727 0.99922 0.10449 0.0
C387 C 0.8381 0.99414 0.13335 0.0
C388 C 0.83889 0.98628 0.2014 0.0
H389 H 0.96504 0.02134 0.91549 0.0
H390 H 0.9365 0.01842 0.0059 0.0
C391 C 0.8191 0.98233 0.23836 0.0
C392 C 0.85862 0.99555 0.08997 0.0
H393 H 0.89688 0.96326 1.00518 0.0
C394 C 0.86555 0.01643 0.06496 0.0
C395 C 0.87018 0.97616 0.06838 0.0
C396 C 0.86303 0.95322 0.09163 0.0
C397 C 0.88356 0.0184 0.01864 0.0
C398 C 0.89503 0.99899 0.99676 0.0
C399 C 0.88823 0.97814 0.02232 0.0
C400 C 0.91307 0.99983 0.94381 0.0
C401 C 0.88967 0.04117 0.99138 0.0
C402 C 0.90976 0.98977 0.87949 0.0
C403 C 0.92601 0.99141 0.82788 0.0
C404 C 0.94606 1.00298 0.83956 0.0
C405 C 0.94975 0.01236 0.90481 0.0
C406 C 0.93339 0.01083 0.95639 0.0
H407 H 0.87675 0.05386 1.00361 0.0
H408 H 0.90564 0.04661 0.01473 0.0
H409 H 0.89205 0.0406 0.93484 0.0
H410 H 0.8943 0.9811 0.86859 0.0
H411 H 0.92267 0.98395 0.77829 0.0
H412 H 0.52555 0.81535 0.17846 0.0
H413 H 0.53575 0.85123 0.12577 0.0
H414 H 0.46644 0.87074 0.12797 0.0
H415 H 0.45673 0.83617 0.18504 0.0
H416 H 0.52757 0.86452 0.00864 0.0
H417 H 0.4899 0.9293 0.16847 0.0
H418 H 0.4924 0.90102 0.19904 0.0
H419 H 0.46816 0.90973 0.15075 0.0
C420 C 0.51273 0.82781 0.17068 0.0
C421 C 0.49032 0.82283 0.18577 0.0
C422 C 0.51849 0.84826 0.13961 0.0
C423 C 0.50195 0.86411 0.12274 0.0
C424 C 0.47979 0.85949 0.14181 0.0
H425 H 0.49217 0.93446 0.74658 0.0
H426 H 0.49699 0.90851 0.84162 0.0
C427 C 0.47416 0.83941 0.17396 0.0
C428 C 0.50697 0.88385 0.0775 0.0
H429 H 0.48974 0.93717 0.04371 0.0
C430 C 0.51966 0.88053 0.01747 0.0
C431 C 0.49754 0.90528 0.08884 0.0
C432 C 0.48651 0.91154 0.15581 0.0
C433 C 0.52157 0.89718 0.96674 0.0
C434 C 0.50944 0.91737 0.97383 0.0
C435 C 0.49839 0.92146 0.03634 0.0
C436 C 0.50682 0.93361 0.9157 0.0
C437 C 0.53664 0.8928 0.90607 0.0
C438 C 0.50943 0.95676 0.92554 0.0
C439 C 0.50596 0.97178 0.87108 0.0
C440 C 0.5001 0.96406 0.80556 0.0
C441 C 0.49711 0.941 0.79612 0.0
C442 C 0.50018 0.92604 0.85049 0.0
H443 H 0.55107 0.88229 0.92131 0.0
H444 H 0.52724 0.88348 0.86627 0.0
H445 H 0.54311 0.90852 0.88337 0.0
H446 H 0.51408 0.96325 0.97538 0.0
H447 H 0.50753 0.9894 0.88034 0.0
H448 H 0.67734 0.47457 0.2278 0.0
H449 H 0.64447 0.48046 0.15549 0.0
H450 H 0.67491 0.53951 0.07016 0.0
H451 H 0.70764 0.53392 0.14425 0.0
H452 H 0.62783 0.54332 0.08321 0.0
H453 H 0.65183 0.4644 0.95353 0.0
H454 H 0.64661 0.46146 0.04383 0.0
H455 H 0.66973 0.47812 0.01464 0.0
C456 C 0.67666 0.48923 0.19532 0.0
C457 C 0.69497 0.50387 0.19191 0.0
C458 C 0.65797 0.49246 0.15343 0.0
C459 C 0.65737 0.51013 0.10601 0.0
C460 C 0.67496 0.52571 0.10608 0.0
H461 H 0.59292 0.50972 0.71351 0.0
H462 H 0.61758 0.51142 0.81253 0.0
C463 C 0.69362 0.5226 0.14869 0.0
C464 C 0.63967 0.51097 0.052 0.0
H465 H 0.61871 0.48156 0.91614 0.0
C466 C 0.62576 0.5298 0.0468 0.0
C467 C 0.6371 0.49346 1.00373 0.0
C468 C 0.65222 0.47331 1.00355 0.0
C469 C 0.60943 0.53153 0.99484 0.0
C470 C 0.60675 0.51387 0.94715 0.0
C471 C 0.62057 0.49504 0.95285 0.0
C472 C 0.59111 0.51505 0.8874 0.0
C473 C 0.59567 0.55251 0.99003 0.0
C474 C 0.56781 0.51684 0.8958 0.0
C475 C 0.5535 0.51601 0.83846 0.0
C476 C 0.5623 0.51319 0.772 0.0
C477 C 0.58557 0.51188 0.76396 0.0
C478 C 0.59975 0.51282 0.82071 0.0
H479 H 0.60286 0.5663 0.02106 0.0
H480 H 0.59428 0.55812 0.93586 0.0
H481 H 0.57859 0.54908 0.00942 0.0
H482 H 0.56063 0.51816 0.94669 0.0
H483 H 0.53563 0.51684 0.84629 0.0
H484 H 0.04075 0.68831 0.24194 0.0
H485 H 0.03037 0.65524 0.17657 0.0
H486 H 0.96451 0.68237 0.14595 0.0
H487 H 0.97544 0.71629 0.20849 0.0
H488 H 1.00212 0.62216 0.17139 0.0
H489 H 0.984 0.67834 0.95154 0.0
H490 H 0.99545 0.68858 0.03083 0.0
H491 H 0.96612 0.68237 0.02438 0.0
C492 C 0.02383 0.68699 0.22285 0.0
C493 C 0.00903 0.70511 0.22964 0.0
C494 C 0.01789 0.66802 0.18515 0.0
C495 C 0.99688 0.66648 0.15367 0.0
C496 C 0.98113 0.68341 0.16729 0.0
H497 H 0.97684 0.54683 0.88225 0.0
H498 H 0.9726 0.57194 0.98199 0.0
C499 C 0.98721 0.70266 0.20435 0.0
C500 C 0.99276 0.6484 0.10167 0.0
H501 H 0.98203 0.64005 0.93104 0.0
C502 C 0.99751 0.62606 0.11895 0.0
C503 C 0.98698 0.65334 0.03268 0.0
C504 C 0.98303 0.67694 0.00836 0.0
C505 C 0.99751 0.60888 0.06921 0.0
C506 C 0.99203 0.61394 1.0002 0.0
C507 C 0.98624 0.63605 0.98376 0.0
C508 C 0.99471 0.59757 0.94234 0.0
C509 C 1.00461 0.58575 0.09038 0.0
C510 C 0.0083 0.60344 0.88636 0.0
C511 C 0.01034 0.58942 0.82949 0.0
C512 C 0.99908 0.56886 0.82667 0.0
C513 C 0.98587 0.56248 0.88317 0.0
C514 C 0.98354 0.57682 0.94033 0.0
H515 H 0.0129 0.58569 0.14133 0.0
H516 H 0.98968 0.57485 0.0937 0.0
H517 H 0.01622 0.57844 0.052 0.0
H518 H 0.01728 0.61915 0.88625 0.0
H519 H 0.02076 0.59485 0.78711 0.0
H520 H 0.07343 0.2416 0.24888 0.0
H521 H 0.07277 0.22282 0.35858 0.0
H522 H 0.0531 0.28392 0.45825 0.0
H523 H 0.0496 0.30184 0.34858 0.0
H524 H 0.08474 0.22085 0.48488 0.0
H525 H 0.99688 0.25219 0.48632 0.0
H526 H 0.01517 0.2579 0.4154 0.0
H527 H 0.01855 0.27249 0.49573 0.0
C528 C 0.06846 0.25113 0.29346 0.0
C529 C 0.05961 0.27282 0.28737 0.0
C530 C 0.06873 0.24044 0.35704 0.0
C531 C 0.06132 0.2516 0.41626 0.0
C532 C 0.05741 0.27456 0.41258 0.0
H533 H 0.02077 0.13547 0.66397 0.0
H534 H 0.03754 0.17281 0.65821 0.0
C535 C 0.05583 0.28496 0.34868 0.0
C536 C 0.05345 0.23817 0.47564 0.0
H537 H 1.00445 0.22022 0.54639 0.0
C538 C 0.0673 0.221 0.49988 0.0
C539 C 0.03069 0.23865 0.49652 0.0
C540 C 0.0144 0.25619 0.4721 0.0
C541 C 0.05838 0.20262 0.5352 0.0
C542 C 0.03521 0.202 0.54872 0.0
C543 C 0.02215 0.22078 0.53461 0.0
C544 C 0.02334 0.18066 0.55904 0.0
C545 C 0.0733 0.183 0.55081 0.0
C546 C 0.00904 0.17321 0.50676 0.0
C547 C 0.99923 0.15222 0.5104 0.0
C548 C 1.00369 0.13819 0.56616 0.0
C549 C 0.01728 0.14597 0.62003 0.0
C550 C 0.02693 0.16718 0.61674 0.0
H551 H 0.09072 0.18573 0.53307 0.0
H552 H 0.07358 0.18003 0.60702 0.0
H553 H 0.06674 0.1677 0.52578 0.0
H554 H 1.00612 0.18335 0.4616 0.0
H555 H 0.98901 0.14657 0.468 0.0
H556 H 0.25931 0.92898 0.10563 0.0
H557 H 0.28754 0.9033 0.15005 0.0
H558 H 0.27747 0.93001 0.35359 0.0
H559 H 0.24906 0.95504 0.30982 0.0
H560 H 0.32296 0.92309 0.19153 0.0
H561 H 0.29747 0.8691 0.40456 0.0
H562 H 0.27744 0.88027 0.34441 0.0
H563 H 0.28561 0.89608 0.41923 0.0
C564 C 0.26245 0.92854 0.16038 0.0
C565 C 0.2523 0.94417 0.20423 0.0
C566 C 0.27849 0.91382 0.18577 0.0
C567 C 0.28474 0.91468 0.25521 0.0
C568 C 0.27271 0.92854 0.3002 0.0
H569 H 0.38158 0.94991 0.50268 0.0
H570 H 0.34984 0.93127 0.4503 0.0
C571 C 0.2565 0.94306 0.27498 0.0
C572 C 0.30703 0.90652 0.27674 0.0
H573 H 0.33423 0.88851 0.41992 0.0
C574 C 0.32553 0.91467 0.24017 0.0
C575 C 0.31048 0.89539 0.3398 0.0
C576 C 0.29161 0.88453 0.37864 0.0
C577 C 0.34688 0.91486 0.26918 0.0
C578 C 0.34985 0.90612 0.33609 0.0
C579 C 0.33188 0.89546 0.36901 0.0
C580 C 0.36959 0.91242 0.37736 0.0
C581 C 0.36542 0.92669 0.23102 0.0
C582 C 0.39136 0.90721 0.35595 0.0
C583 C 0.40961 0.91819 0.38527 0.0
C584 C 0.40632 0.93412 0.43736 0.0
C585 C 0.38468 0.93766 0.46288 0.0
C586 C 0.36649 0.92695 0.43304 0.0
H587 H 0.35951 0.93474 0.18301 0.0
H588 H 0.37306 0.93973 0.26395 0.0
H589 H 0.37858 0.91451 0.21698 0.0
H590 H 0.39413 0.89568 0.314 0.0
H591 H 0.42619 0.91488 0.36551 0.0
H592 H 0.59376 0.27222 0.08333 0.0
H593 H 0.62199 0.29819 0.12644 0.0
H594 H 0.59488 0.29116 0.33086 0.0
H595 H 0.56733 0.26495 0.28844 0.0
H596 H 0.60622 0.33539 0.16724 0.0
H597 H 0.65727 0.30556 0.38071 0.0
H598 H 0.64419 0.28646 0.32128 0.0
H599 H 0.62934 0.29629 0.39623 0.0
C600 C 0.59456 0.27551 0.13796 0.0
C601 C 0.57822 0.26687 0.18248 0.0
C602 C 0.61075 0.29025 0.16262 0.0
C603 C 0.61065 0.29672 0.23197 0.0
C604 C 0.5958 0.28614 0.27754 0.0
H605 H 0.58139 0.39484 0.47545 0.0
H606 H 0.59899 0.36218 0.42508 0.0
C607 C 0.57983 0.27122 0.25308 0.0
C608 C 0.62097 0.31818 0.25299 0.0
H609 H 0.64079 0.34388 0.39657 0.0
C610 C 0.61467 0.33728 0.21606 0.0
C611 C 0.63223 0.32075 0.31618 0.0
C612 C 0.64133 0.30106 0.35525 0.0
C613 C 0.61624 0.35859 0.24506 0.0
C614 C 0.62485 0.36086 0.31236 0.0
C615 C 0.6339 0.3421 0.34542 0.0
C616 C 0.6196 0.38087 0.35393 0.0
C617 C 0.6062 0.37803 0.20651 0.0
C618 C 0.62622 0.40233 0.3333 0.0
C619 C 0.61583 0.42114 0.36145 0.0
C620 C 0.59909 0.41869 0.41164 0.0
C621 C 0.59427 0.39729 0.43707 0.0
C622 C 0.60439 0.37857 0.40836 0.0
H623 H 0.59819 0.37282 0.15769 0.0
H624 H 0.59346 0.38653 0.23862 0.0
H625 H 0.61946 0.39028 0.19387 0.0
H626 H 0.63831 0.40448 0.29242 0.0
H627 H 0.62014 0.43751 0.34185 0.0
H628 H 0.23354 0.57966 0.21931 0.0
H629 H 0.21594 0.59798 0.31643 0.0
H630 H 0.2526 0.55583 0.456 0.0
H631 H 0.26926 0.53637 0.35839 0.0
H632 H 0.21125 0.55196 0.47974 0.0
H633 H 0.22548 0.64184 0.46505 0.0
H634 H 0.21813 0.63297 0.3804 0.0
H635 H 0.2432 0.6223 0.41997 0.0
C636 C 0.23807 0.57444 0.27066 0.0
C637 C 0.25244 0.55626 0.28105 0.0
C638 C 0.2284 0.58534 0.32643 0.0
C639 C 0.2332 0.5786 0.3939 0.0
C640 C 0.24882 0.5615 0.40451 0.0
H641 H 0.11183 0.58713 0.63452 0.0
H642 H 0.15224 0.59262 0.63392 0.0
C643 C 0.25833 0.55038 0.34858 0.0
C644 C 0.21824 0.58591 0.45024 0.0
H645 H 0.18569 0.63051 0.49198 0.0
C646 C 0.20625 0.56926 0.48507 0.0
C647 C 0.21196 0.60849 0.45867 0.0
C648 C 0.22564 0.62735 0.42947 0.0
C649 C 0.18615 0.57415 0.51855 0.0
C650 C 0.17808 0.59636 0.51751 0.0
C651 C 0.19171 0.61344 0.4915 0.0
C652 C 0.15398 0.60072 0.52585 0.0
C653 C 0.17248 0.55508 0.54713 0.0
C654 C 0.14149 0.6053 0.46665 0.0
C655 C 0.11842 0.60247 0.46693 0.0
C656 C 0.10751 0.59494 0.52641 0.0
C657 C 0.11976 0.5929 0.58774 0.0
C658 C 0.14288 0.59591 0.58751 0.0
H659 H 0.18077 0.53866 0.53999 0.0
H660 H 0.16975 0.55761 0.60294 0.0
H661 H 0.15592 0.55445 0.52177 0.0
H662 H 0.14976 0.60915 0.41853 0.0
H663 H 0.10935 0.60465 0.41937 0.0
H664 H 0.07857 0.78668 0.2438 0.0
H665 H 0.10017 0.80797 0.16163 0.0
H666 H 0.07816 0.76449 0.99877 0.0
H667 H 0.05365 0.74525 0.07874 0.0
H668 H 0.13075 0.80724 0.0705 0.0
H669 H 0.05033 0.81873 0.93016 0.0
H670 H 0.05145 0.8036 0.00957 0.0
H671 H 0.06137 0.79101 0.9311 0.0
C672 C 0.07791 0.78178 0.19035 0.0
C673 C 0.06317 0.76504 0.16781 0.0
C674 C 0.09079 0.7937 0.14337 0.0
C675 C 0.08995 0.78859 0.07308 0.0
C676 C 0.07814 0.76955 0.05209 0.0
H677 H 0.09598 0.90662 0.82308 0.0
H678 H 0.11048 0.86891 0.8397 0.0
C679 C 0.06436 0.75825 0.09857 0.0
C680 C 0.0983 0.80538 0.023 0.0
H681 H 0.07835 0.84386 0.90969 0.0
C682 C 0.11946 0.81493 0.03406 0.0
C683 C 0.08377 0.81534 0.97428 0.0
C684 C 0.06045 0.80679 0.96067 0.0
C685 C 0.12528 0.83551 1.00456 0.0
C686 C 0.1098 0.8464 0.96175 0.0
C687 C 0.09012 0.83539 0.94297 0.0
C688 C 0.11028 0.87077 0.95053 0.0
C689 C 0.14714 0.84627 0.02344 0.0
C690 C 0.10645 0.88469 0.0073 0.0
C691 C 0.09751 0.90596 0.99815 0.0
C692 C 0.09239 0.9137 0.93191 0.0
C693 C 0.09907 0.90086 0.87489 0.0
C694 C 0.10773 0.87943 0.88415 0.0
H695 H 0.15999 0.83348 0.03514 0.0
H696 H 0.15331 0.85723 0.98149 0.0
H697 H 0.14473 0.85662 0.07013 0.0
H698 H 0.1079 0.87821 0.05905 0.0
H699 H 0.09259 0.91529 0.0433 0.0
H700 H 0.73025 0.95829 0.10594 0.0
H701 H 0.6958 0.94243 0.06249 0.0
H702 H 0.69911 0.89016 0.21474 0.0
H703 H 0.73297 0.9073 0.2619 0.0
H704 H 0.67436 0.90753 0.01746 0.0
H705 H 0.64703 0.92255 0.28795 0.0
H706 H 0.67477 0.92963 0.26031 0.0
H707 H 0.66702 0.90086 0.27294 0.0
C708 C 0.72416 0.94287 0.12826 0.0
C709 C 0.7339 0.93422 0.18787 0.0
C710 C 0.70437 0.93377 0.10354 0.0
C711 C 0.69425 0.91565 0.13741 0.0
C712 C 0.70606 0.90473 0.18976 0.0
H713 H 0.56023 0.94008 0.97608 0.0
H714 H 0.58793 0.91284 0.01608 0.0
C715 C 0.72557 0.91428 0.21598 0.0
C716 C 0.67001 0.91185 0.12623 0.0
H717 H 0.62035 0.92433 0.20337 0.0
C718 C 0.66238 0.91059 0.05822 0.0
C719 C 0.65431 0.91544 0.17982 0.0
C720 C 0.66108 0.9173 0.25432 0.0
C721 C 0.64036 0.91633 0.04123 0.0
C722 C 0.62536 0.92239 0.09439 0.0
C723 C 0.63206 0.92003 0.16291 0.0
C724 C 0.60549 0.93644 0.08063 0.0
C725 C 0.63424 0.91831 0.96633 0.0
C726 C 0.60508 0.95819 0.10775 0.0
C727 C 0.58903 0.97345 0.08657 0.0
C728 C 0.57324 0.96736 0.03716 0.0
C729 C 0.57251 0.94516 0.01372 0.0
C730 C 0.5884 0.92968 0.03605 0.0
H731 H 0.64868 0.91518 0.93179 0.0
H732 H 0.62107 0.90596 0.95386 0.0
H733 H 0.62763 0.93523 0.95518 0.0
H734 H 0.61806 0.96384 0.14229 0.0
H735 H 0.58999 0.99048 0.10504 0.0
H736 H 0.42635 0.73713 0.19248 0.0
H737 H 0.40567 0.71519 0.11 0.0
H738 H 0.42691 0.7593 0.94739 0.0
H739 H 0.45047 0.77938 0.02788 0.0
H740 H 0.375 0.71573 0.01924 0.0
H741 H 0.45569 0.70546 0.87841 0.0
H742 H 0.45424 0.72053 0.95791 0.0
H743 H 0.44429 0.73304 0.87951 0.0
C744 C 0.42704 0.74203 0.13902 0.0
C745 C 0.44122 0.75932 0.11676 0.0
C746 C 0.41469 0.72972 0.09187 0.0
C747 C 0.41552 0.73491 0.02163 0.0
C748 C 0.4269 0.75424 1.00071 0.0
H749 H 0.40967 0.61769 0.7666 0.0
H750 H 0.39524 0.65529 0.78613 0.0
C751 C 0.44013 0.766 0.04743 0.0
C752 C 0.40745 0.71807 0.97148 0.0
H753 H 0.4279 0.6801 0.85712 0.0
C754 C 0.38639 0.70825 0.98253 0.0
C755 C 0.42214 0.70838 0.9225 0.0
C756 C 0.44537 0.71725 0.90897 0.0
C757 C 0.38081 0.6877 0.95254 0.0
C758 C 0.39642 0.67712 0.90924 0.0
C759 C 0.41603 0.68835 0.89073 0.0
C760 C 0.39606 0.65282 0.8968 0.0
C761 C 0.35906 0.67664 0.97131 0.0
C762 C 0.40025 0.63862 0.9526 0.0
C763 C 0.40917 0.61742 0.94176 0.0
C764 C 0.41392 0.61004 0.8748 0.0
C765 C 0.40688 0.62318 0.8189 0.0
C766 C 0.39827 0.64454 0.82984 0.0
H767 H 0.34614 0.68923 0.98451 0.0
H768 H 0.35288 0.66602 0.92867 0.0
H769 H 0.36165 0.66589 0.01699 0.0
H770 H 0.39906 0.64482 1.00474 0.0
H771 H 0.41438 0.60786 0.98609 0.0
H772 H 0.73344 0.42945 0.17078 0.0
H773 H 0.75601 0.40077 0.1115 0.0
H774 H 0.8131 0.44456 0.11857 0.0
H775 H 0.79102 0.4729 0.17546 0.0
H776 H 0.78201 0.40556 0.98266 0.0
H777 H 0.83606 0.38462 0.20039 0.0
H778 H 0.80803 0.3953 0.21155 0.0
H779 H 0.8312 0.41414 0.19944 0.0
C780 C 0.75083 0.43281 0.15952 0.0
C781 C 0.76064 0.45319 0.17918 0.0
C782 C 0.76365 0.41643 0.12615 0.0
C783 C 0.78635 0.42034 0.11277 0.0
C784 C 0.7958 0.44092 0.13055 0.0
H785 H 0.87639 0.44648 0.86655 0.0
H786 H 0.84217 0.42927 0.90523 0.0
C787 C 0.78314 0.45712 0.1632 0.0
C788 C 0.80075 0.4041 0.07684 0.0
H789 H 0.85558 0.39089 0.08909 0.0
C790 C 0.79786 0.40129 0.006 0.0
C791 C 0.82098 0.39734 0.10737 0.0
C792 C 0.82412 0.39776 0.18413 0.0
C793 C 0.81612 0.39596 0.9638 0.0
C794 C 0.83765 0.3945 0.99344 0.0
C795 C 0.83939 0.3929 0.06523 0.0
C796 C 0.85809 0.40096 0.95458 0.0
C797 C 0.81245 0.39382 0.88758 0.0
C798 C 0.87885 0.39103 0.96887 0.0
C799 C 0.8987 0.40148 0.94853 0.0
C800 C 0.89809 0.42177 0.91244 0.0
C801 C 0.87738 0.43068 0.89342 0.0
C802 C 0.85766 0.42057 0.91489 0.0
H803 H 0.79747 0.3834 0.87764 0.0
H804 H 0.80912 0.41054 0.86532 0.0
H805 H 0.82702 0.38622 0.86115 0.0
H806 H 0.87975 0.37599 0.99957 0.0
H807 H 0.91451 0.39421 0.96341 0.0
H808 H 0.06126 0.24858 0.03664 0.0
H809 H 0.05428 0.21455 0.97124 0.0
H810 H 0.98354 0.22256 1.00325 0.0
H811 H 0.99065 0.25675 0.07014 0.0
H812 H 0.99672 0.1809 0.03629 0.0
H813 H 0.03211 0.20065 0.78153 0.0
H814 H 0.05185 0.20603 0.84855 0.0
H815 H 0.0264 0.22195 0.84472 0.0
C816 C 0.04415 0.2435 0.02789 0.0
C817 C 0.02649 0.2556 0.05781 0.0
C818 C 0.04015 0.22396 0.99027 0.0
C819 C 0.01834 0.21589 0.98112 0.0
C820 C 1.00054 0.2284 0.00892 0.0
H821 H 0.9933 0.09652 0.72723 0.0
H822 H 0.99474 0.13458 0.77232 0.0
C823 C 1.00456 0.24812 0.04655 0.0
C824 C 0.01455 0.19347 0.94833 0.0
H825 H 0.02803 0.16165 0.80796 0.0
C826 C 1.00337 0.17682 0.98601 0.0
C827 C 0.02293 0.18793 0.88227 0.0
C828 C 0.03377 0.20516 0.83664 0.0
C829 C 1.00107 0.15484 0.96088 0.0
C830 C 0.01063 0.14896 0.89665 0.0
C831 C 0.02103 0.16583 0.85773 0.0
C832 C 0.00998 0.12552 0.86897 0.0
C833 C 0.98812 0.13821 1.00339 0.0
C834 C 0.01838 0.10747 0.90732 0.0
C835 C 0.01745 0.08554 0.88175 0.0
C836 C 0.00839 0.08103 0.81654 0.0
C837 C 1.00047 0.0992 0.77753 0.0
C838 C 1.00127 0.12109 0.80336 0.0
H839 H 0.9762 0.14668 0.03855 0.0
H840 H 0.97867 0.12644 0.97039 0.0
H841 H 0.9999 0.12847 0.03539 0.0
H842 H 0.02579 0.11032 0.95719 0.0
H843 H 0.02389 0.07212 0.9132 0.0
H844 H 0.27653 0.02897 0.14265 0.0
H845 H 0.30974 0.03864 0.07534 0.0
H846 H 0.28272 1.00346 0.90121 0.0
H847 H 0.24978 0.99339 0.96932 0.0
H848 H 0.32317 0.98826 0.93302 0.0
H849 H 0.32799 0.0804 0.92352 0.0
H850 H 0.32468 0.06995 0.00924 0.0
H851 H 0.30277 0.06582 0.94747 0.0
C852 C 0.27717 0.02435 0.0889 0.0
C853 C 0.26026 0.01097 0.06065 0.0
C854 C 0.29628 0.02975 0.0504 0.0
C855 C 0.29884 0.02196 0.98264 0.0
C856 C 0.28122 0.00981 0.95309 0.0
H857 H 0.41385 0.01193 0.70301 0.0
H858 H 0.37635 0.01197 0.7529 0.0
C859 C 0.26219 1.00432 0.99169 0.0
C860 C 0.32082 0.02386 0.94608 0.0
H861 H 0.36154 0.06059 0.89585 0.0
C862 C 0.33138 1.00414 0.92416 0.0
C863 C 0.33181 0.0445 0.93496 0.0
C864 C 0.32114 0.06639 0.95443 0.0
C865 C 0.35262 1.0044 0.8931 0.0
C866 C 0.36368 0.025 0.88235 0.0
C867 C 0.35313 0.04477 0.90392 0.0
C868 C 0.38636 0.02622 0.85013 0.0
C869 C 0.36337 0.98247 0.87411 0.0
C870 C 0.40452 0.03487 0.88706 0.0
C871 C 0.42606 0.03496 0.85853 0.0
C872 C 0.43 0.02653 0.79199 0.0
C873 C 0.41162 0.01846 0.75441 0.0
C874 C 0.3901 0.01835 0.78307 0.0
H875 H 0.35535 0.96818 0.90089 0.0
H876 H 0.36165 0.97975 0.81802 0.0
H877 H 0.38142 0.98255 0.88674 0.0
H878 H 0.40213 0.04112 0.93874 0.0
H879 H 0.43967 0.04139 0.88918 0.0
H880 H 0.49483 0.2963 0.11732 0.0
H881 H 0.48703 0.32909 0.04616 0.0
H882 H 0.52124 0.29821 0.87592 0.0
H883 H 0.52947 0.26569 0.94789 0.0
H884 H 0.53805 0.3384 0.90172 0.0
H885 H 0.44622 0.34686 0.89235 0.0
H886 H 0.45647 0.34444 0.97846 0.0
H887 H 0.45971 0.32146 0.91976 0.0
C888 C 0.49965 0.29606 0.06368 0.0
C889 C 0.51219 0.27815 0.03759 0.0
C890 C 0.49532 0.31492 0.02295 0.0
C891 C 0.50335 0.31623 0.95506 0.0
C892 C 0.51473 0.29769 0.92783 0.0
H893 H 0.51719 0.42798 0.66302 0.0
H894 H 0.51632 0.3909 0.716 0.0
C895 C 0.51916 0.27892 0.96866 0.0
C896 C 0.5024 0.33773 0.91567 0.0
H897 H 0.46742 0.37927 0.86114 0.0
C898 C 0.52253 0.34714 0.89211 0.0
C899 C 0.48224 0.34941 0.90336 0.0
C900 C 0.45992 0.33993 0.92422 0.0
C901 C 0.52315 0.36795 0.85849 0.0
C902 C 0.50304 0.37974 0.84689 0.0
C903 C 0.48287 0.3703 0.86987 0.0
C904 C 0.50275 0.40218 0.81302 0.0
C905 C 0.54548 0.37751 0.8378 0.0
C906 C 0.4949 0.42093 0.84894 0.0
C907 C 0.49533 0.44218 0.81873 0.0
C908 C 0.50347 0.44528 0.7514 0.0
C909 C 0.51089 0.42637 0.71495 0.0
C910 C 0.51051 0.4051 0.74537 0.0
H911 H 0.55949 0.36907 0.86452 0.0
H912 H 0.54788 0.37524 0.78173 0.0
H913 H 0.54629 0.39565 0.84913 0.0
H914 H 0.48876 0.41918 0.90103 0.0
H915 H 0.48936 0.45621 0.84857 0.0
H916 H 0.23922 0.48502 0.04806 0.0
H917 H 0.20675 0.47957 0.97242 0.0
H918 H 0.1934 0.55024 0.97983 0.0
H919 H 0.22613 0.55578 0.05089 0.0
H920 H 0.16485 0.48501 0.99775 0.0
H921 H 0.18297 0.54177 0.78321 0.0
H922 H 0.20395 0.53452 0.84551 0.0
H923 H 0.18475 0.55714 0.86174 0.0
C924 C 0.2298 0.49943 0.03134 0.0
C925 C 0.23534 0.52083 0.0557 0.0
C926 C 0.21104 0.49631 0.98868 0.0
C927 C 0.19752 0.51452 0.96916 0.0
C928 C 0.20365 0.53591 0.99179 0.0
H929 H 0.05459 0.51172 0.89546 0.0
H930 H 0.09234 0.51086 0.94222 0.0
C931 C 0.22238 0.53904 0.03337 0.0
C932 C 0.17602 0.51131 0.93052 0.0
H933 H 0.14372 0.53435 0.80429 0.0
C934 C 0.16043 0.49559 0.9547 0.0
C935 C 0.17007 0.52464 0.87314 0.0
C936 C 0.18647 0.54025 0.83902 0.0
C937 C 0.13897 0.49358 0.9256 0.0
C938 C 0.13234 0.50834 0.87232 0.0
C939 C 0.14832 0.52331 0.84602 0.0
C940 C 0.10902 0.50875 0.84359 0.0
C941 C 0.12383 0.47535 0.95197 0.0
C942 C 0.10539 0.50892 0.77214 0.0
C943 C 0.08369 0.51009 0.74514 0.0
C944 C 0.06494 0.51087 0.78878 0.0
C945 C 0.06855 0.51076 0.86017 0.0
C946 C 0.09026 0.51004 0.88711 0.0
H947 H 0.13363 0.46104 0.97201 0.0
H948 H 0.11364 0.48193 0.99507 0.0
H949 H 0.11249 0.46912 0.91127 0.0
H950 H 0.11938 0.5081 0.73695 0.0
H951 H 0.08162 0.51018 0.68991 0.0
H952 H 0.9763 0.77845 0.34448 0.0
H953 H 0.96753 0.81041 0.41944 0.0
H954 H 0.03745 0.81743 0.46721 0.0
H955 H 0.0458 0.78492 0.39766 0.0
H956 H 0.017 0.82822 0.57269 0.0
H957 H 0.97382 0.87286 0.36201 0.0
H958 H 0.96006 0.84758 0.38723 0.0
H959 H 0.98741 0.84644 0.34871 0.0
C960 C 0.98962 0.78645 0.37275 0.0
C961 C 0.0118 0.77926 0.36417 0.0
C962 C 0.9847 0.80509 0.41455 0.0
C963 C 1.0019 0.81719 0.44741 0.0
C964 C 0.02375 0.80886 0.4424 0.0
H965 H 1.00474 0.9586 0.5418 0.0
H966 H 1.00479 0.92121 0.4917 0.0
C967 C 0.02856 0.79015 0.40219 0.0
C968 C 0.99791 0.83885 0.48506 0.0
H969 H 0.97642 0.89153 0.46773 0.0
C970 C 0.00808 0.84203 0.54948 0.0
C971 C 0.98655 0.85722 0.45519 0.0
C972 C 0.97653 0.856 0.38426 0.0
C973 C 0.00797 0.86287 0.58325 0.0
C974 C 0.99621 0.88111 0.55408 0.0
C975 C 0.98541 0.87774 0.49075 0.0
C976 C 0.99592 0.90407 0.5859 0.0
C977 C 0.02163 0.86524 0.64789 0.0
C978 C 0.99074 0.90742 0.65582 0.0
C979 C 0.9914 0.92887 0.68512 0.0
C980 C 0.99639 0.9477 0.64475 0.0
C981 C 1.00077 0.9445 0.57445 0.0
C982 C 1.00074 0.92302 0.54564 0.0
H983 H 0.035 0.85243 0.65063 0.0
H984 H 0.02955 0.88195 0.65123 0.0
H985 H 0.01064 0.86285 0.69323 0.0
H986 H 0.98607 0.89346 0.68801 0.0
H987 H 0.98763 0.93075 0.73923 0.0
H988 H 0.73342 0.01946 0.3392 0.0
H989 H 0.70217 0.03228 0.41077 0.0
H990 H 0.69768 0.96688 0.50245 0.0
H991 H 0.72949 0.95466 0.43469 0.0
H992 H 0.662 0.01933 0.40084 0.0
H993 H 0.68481 1.00135 0.66813 0.0
H994 H 0.70524 1.00089 0.60004 0.0
H995 H 0.68854 0.9765 0.61853 0.0
C996 C 0.72648 0.00823 0.37727 0.0
C997 C 0.73403 0.98606 0.38139 0.0
C998 C 0.70834 0.01545 0.41754 0.0
C999 C 0.69737 1.00065 0.46274 0.0
C1000 C 0.70595 0.97896 0.46986 0.0
H1001 H 0.5548 0.99875 0.53764 0.0
H1002 H 0.59278 0.99613 0.49268 0.0
C1003 C 0.7242 0.9719 0.43059 0.0
C1004 C 0.67551 1.00671 0.49569 0.0
H1005 H 0.64501 1.00073 0.64336 0.0
C1006 C 0.65849 0.01561 0.45428 0.0
C1007 C 0.67067 1.00235 0.56577 0.0
C1008 C 0.68842 0.995 0.61567 0.0
C1009 C 0.63679 0.0193 0.47982 0.0
C1010 C 0.63145 0.01301 0.54818 0.0
C1011 C 0.64872 1.00511 0.59052 0.0
C1012 C 0.60814 0.01425 0.57648 0.0
C1013 C 0.61997 0.0302 0.43304 0.0
C1014 C 0.6039 0.02425 0.64059 0.0
C1015 C 0.58216 0.02514 0.66753 0.0
C1016 C 0.56403 0.01627 0.63069 0.0
C1017 C 0.56828 1.00607 0.56695 0.0
C1018 C 0.59007 1.00476 0.54077 0.0
H1019 H 0.62832 0.04114 0.3947 0.0
H1020 H 0.61084 0.01711 0.40425 0.0
H1021 H 0.60776 0.04039 0.4623 0.0
H1022 H 0.61741 0.03159 0.66975 0.0
H1023 H 0.57952 0.03312 0.71678 0.0
H1024 H 0.45769 0.74167 0.35037 0.0
H1025 H 0.46692 0.70938 0.41976 0.0
H1026 H 0.53647 0.7174 0.36768 0.0
H1027 H 0.52684 0.74931 0.29359 0.0
H1028 H 0.52686 0.6763 0.35344 0.0
H1029 H 0.49051 0.69862 0.60282 0.0
H1030 H 0.46914 0.70117 0.53943 0.0
H1031 H 0.4935 0.71892 0.53513 0.0
C1032 C 0.47507 0.73695 0.35499 0.0
C1033 C 0.49152 0.74816 0.31642 0.0
C1034 C 0.4804 0.71845 0.39541 0.0
C1035 C 0.5025 0.71087 0.40064 0.0
C1036 C 0.51926 0.72282 0.3651 0.0
H1037 H 0.5185 0.59483 0.67608 0.0
H1038 H 0.52013 0.63242 0.62712 0.0
C1039 C 0.51383 0.74129 0.3234 0.0
C1040 C 0.50738 0.68934 0.43744 0.0
H1041 H 0.49251 0.65876 0.57879 0.0
C1042 C 0.51967 0.67267 0.40335 0.0
C1043 C 0.49858 0.68437 0.50346 0.0
C1044 C 0.48745 0.70187 0.54746 0.0
C1045 C 0.52242 0.65114 0.43148 0.0
C1046 C 0.51168 0.64553 0.49428 0.0
C1047 C 0.50036 0.66255 0.52995 0.0
C1048 C 0.51168 0.62226 0.52359 0.0
C1049 C 0.53716 0.63485 0.39358 0.0
C1050 C 0.50622 0.60366 0.48263 0.0
C1051 C 0.50592 0.58203 0.51031 0.0
C1052 C 0.51025 0.5784 0.58038 0.0
C1053 C 0.51511 0.59699 0.62188 0.0
C1054 C 0.51601 0.61857 0.59378 0.0
H1055 H 0.55035 0.64371 0.36406 0.0
H1056 H 0.54534 0.62294 0.42916 0.0
H1057 H 0.52695 0.62535 0.35617 0.0
H1058 H 0.50182 0.60584 0.42921 0.0
H1059 H 0.50172 0.56816 0.47706 0.0
H1060 H 0.75089 0.49402 0.43482 0.0
H1061 H 0.78301 0.50213 0.50853 0.0
H1062 H 0.81251 0.54108 0.34573 0.0
H1063 H 0.78017 0.53338 0.27309 0.0
H1064 H 0.82346 0.48715 0.47792 0.0
H1065 H 0.82988 0.57866 0.50716 0.0
H1066 H 0.80472 0.56522 0.47751 0.0
H1067 H 0.82741 0.57052 0.41892 0.0
C1068 C 0.76362 0.5054 0.41645 0.0
C1069 C 0.76267 0.51365 0.34897 0.0
C1070 C 0.78219 0.50975 0.45816 0.0
C1071 C 0.80031 0.52236 0.43323 0.0
C1072 C 0.79866 0.53181 0.36728 0.0
H1073 H 0.94084 0.53694 0.53002 0.0
H1074 H 0.90329 0.53804 0.48125 0.0
C1075 C 0.78003 0.52755 0.32574 0.0
C1076 C 0.82193 0.523 0.47181 0.0
H1077 H 0.86325 0.55769 0.52973 0.0
C1078 C 0.83195 0.50263 0.49013 0.0
C1079 C 0.8333 0.54312 0.48737 0.0
C1080 C 0.82317 0.56561 0.47232 0.0
C1081 C 0.85309 0.50177 0.52147 0.0
C1082 C 0.8646 0.52186 0.53607 0.0
C1083 C 0.85452 0.54227 0.51855 0.0
C1084 C 0.88733 0.52193 0.56774 0.0
C1085 C 0.86329 0.47928 0.53641 0.0
C1086 C 0.89098 0.51282 0.63329 0.0
C1087 C 0.91251 0.51213 0.6615 0.0
C1088 C 0.93097 0.52063 0.62491 0.0
C1089 C 0.92716 0.53014 0.5598 0.0
C1090 C 0.90561 0.53086 0.53177 0.0
H1091 H 0.85487 0.46568 0.50761 0.0
H1092 H 0.88132 0.47914 0.52317 0.0
H1093 H 0.86162 0.47562 0.59203 0.0
H1094 H 0.87714 0.50615 0.6627 0.0
H1095 H 0.91467 0.50475 0.71179 0.0
loop_
_geom_bond_atom_site_label_1
_geom_bond_atom_site_label_2
_geom_bond_distance
_geom_bond_site_symmetry_2
_ccdc_geom_bond_type
H0 C3 0.931 . S
H1 C6 0.928 . S
H2 C8 0.930 . S
C3 H0 0.931 . S
C3 C4 1.413 . S
C3 C5 1.360 . S
C4 C3 1.413 . S
C4 C8 1.429 . S
C5 C3 1.360 . S
C5 C6 1.372 . S
C6 H1 0.928 . S
C6 C5 1.372 . S
C6 C7 1.404 . S
C7 C6 1.404 . S
C7 C8 1.391 . S
C8 H2 0.930 . S
C8 C4 1.429 . S
C8 C7 1.391 . S
H9 C12 0.931 . S
H10 C15 0.928 . S
H11 C17 0.930 . S
C12 H9 0.931 . S
C12 C13 1.413 . S
C12 C14 1.360 . S
C13 C12 1.413 . S
C13 C17 1.429 1_655 S
C14 C12 1.360 . S
C14 C15 1.372 . S
C15 H10 0.928 . S
C15 C14 1.372 . S
C15 C16 1.404 . S
C16 C15 1.404 . S
C16 C17 1.390 1_655 S
C17 H11 0.930 . S
C17 C13 1.429 1_455 S
C17 C16 1.390 1_455 S
H18 C21 0.931 . S
H19 C24 0.928 . S
H20 C26 0.930 . S
C21 H18 0.931 . S
C21 C22 1.413 . S
C21 C23 1.360 . S
C22 C21 1.413 . S
C22 C26 1.429 1_565 S
C23 C21 1.360 . S
C23 C24 1.372 . S
C24 H19 0.928 . S
C24 C23 1.372 . S
C24 C25 1.404 . S
C25 C24 1.404 . S
C25 C26 1.390 1_565 S
C26 H20 0.930 . S
C26 C22 1.429 1_545 S
C26 C25 1.390 1_545 S
H27 C30 0.931 . S
H28 C33 0.928 . S
H29 C35 0.930 . S
C30 H27 0.931 . S
C30 C31 1.413 . S
C30 C32 1.360 . S
C31 C30 1.413 . S
C31 C35 1.429 . S
C32 C30 1.360 . S
C32 C33 1.372 . S
C33 H28 0.928 . S
C33 C32 1.372 . S
C33 C34 1.404 . S
C34 C33 1.404 . S
C34 C35 1.391 . S
C35 H29 0.930 . S
C35 C31 1.429 . S
C35 C34 1.391 . S
H36 C39 0.931 . S
H37 C42 0.928 . S
H38 C44 0.930 1_556 S
C39 H36 0.931 . S
C39 C40 1.413 1_554 S
C39 C41 1.360 . S
C40 C39 1.413 1_556 S
C40 C44 1.429 1_556 S
C41 C39 1.360 . S
C41 C42 1.372 . S
C42 H37 0.928 . S
C42 C41 1.372 . S
C42 C43 1.404 . S
C43 C42 1.404 . S
C43 C44 1.391 . S
C44 H38 0.930 1_554 S
C44 C40 1.429 1_554 S
C44 C43 1.391 . S
H45 C48 0.931 . S
H46 C51 0.928 . S
H47 C53 0.930 1_556 S
C48 H45 0.931 . S
C48 C49 1.413 1_554 S
C48 C50 1.360 . S
C49 C48 1.413 1_556 S
C49 C53 1.429 1_656 S
C50 C48 1.360 . S
C50 C51 1.372 . S
C51 H46 0.928 . S
C51 C50 1.372 . S
C51 C52 1.404 . S
C52 C51 1.404 . S
C52 C53 1.391 1_655 S
C53 H47 0.930 1_554 S
C53 C49 1.429 1_454 S
C53 C52 1.391 1_455 S
H54 C57 0.931 . S
H55 C60 0.928 . S
H56 C62 0.930 1_556 S
C57 H54 0.931 . S
C57 C58 1.413 1_554 S
C57 C59 1.360 . S
C58 C57 1.413 1_556 S
C58 C62 1.429 1_566 S
C59 C57 1.360 . S
C59 C60 1.372 . S
C60 H55 0.928 . S
C60 C59 1.372 . S
C60 C61 1.404 . S
C61 C60 1.404 . S
C61 C62 1.391 1_565 S
C62 H56 0.930 1_554 S
C62 C58 1.429 1_544 S
C62 C61 1.391 1_545 S
H63 C66 0.931 . S
H64 C69 0.928 1_556 S
H65 C71 0.930 . S
C66 H63 0.931 . S
C66 C67 1.413 . S
C66 C68 1.360 1_554 S
C67 C66 1.413 . S
C67 C71 1.429 . S
C68 C66 1.360 1_556 S
C68 C69 1.372 1_556 S
C69 H64 0.928 1_554 S
C69 C68 1.372 1_554 S
C69 C70 1.404 . S
C70 C69 1.404 . S
C70 C71 1.391 . S
C71 H65 0.930 . S
C71 C67 1.429 . S
C71 C70 1.391 . S
C72 Eu73 2.835 . S
C72 C74 1.500 . S
C72 O92 1.257 . S
C72 O93 1.260 . S
Eu73 C72 2.835 . S
Eu73 O92 2.473 . S
Eu73 O93 2.480 . S
Eu73 O94 2.430 . S
Eu73 O95 2.670 1_545 S
Eu73 O96 2.394 . S
Eu73 O101 2.355 1_655 S
Eu73 O103 2.374 1_545 S
C74 C72 1.500 . S
C74 C75 1.377 . S
C74 C79 1.377 . S
C75 C74 1.377 . S
C75 C76 1.395 . S
C75 H104 0.931 . S
C76 C75 1.395 . S
C76 C77 1.383 . S
C76 H105 0.931 . S
C77 C76 1.383 . S
C77 C78 1.394 . S
C78 C77 1.394 . S
C78 C79 1.378 . S
C78 H106 0.931 1_655 S
C79 C74 1.377 . S
C79 C78 1.378 . S
C79 H107 0.931 1_655 S
C80 O94 1.286 . S
C80 O95 1.251 1_545 S
C81 O96 1.251 1_455 S
C81 O97 1.251 . S
C82 Eu83 2.835 . S
C82 C84 1.500 . S
C82 O98 1.257 . S
C82 O99 1.260 . S
Eu83 C82 2.835 . S
Eu83 O95 2.355 1_455 S
Eu83 O97 2.374 1_565 S
Eu83 O98 2.473 . S
Eu83 O99 2.480 . S
Eu83 O100 2.430 . S
Eu83 O101 2.670 1_565 S
Eu83 O102 2.394 . S
C84 C82 1.500 . S
C84 C85 1.377 . S
C84 C89 1.377 . S
C85 C84 1.377 . S
C85 C86 1.395 . S
C85 H108 0.931 . S
C86 C85 1.395 . S
C86 C87 1.383 . S
C86 H109 0.931 . S
C87 C86 1.383 . S
C87 C88 1.394 . S
C88 C87 1.394 . S
C88 C89 1.378 . S
C88 H110 0.931 1_455 S
C89 C84 1.377 . S
C89 C88 1.378 . S
C89 H111 0.931 1_455 S
C90 O100 1.280 . S
C90 O101 1.255 1_565 S
C91 O102 1.251 1_655 S
C91 O103 1.251 . S
O92 C72 1.257 . S
O92 Eu73 2.473 . S
O93 C72 1.260 . S
O93 Eu73 2.480 . S
O94 Eu73 2.430 . S
O94 C80 1.286 . S
O95 Eu73 2.670 1_565 S
O95 C80 1.251 1_565 S
O95 Eu83 2.355 1_655 S
O96 Eu73 2.394 . S
O96 C81 1.251 1_655 S
O97 C81 1.251 . S
O97 Eu83 2.374 1_545 S
O98 C82 1.257 . S
O98 Eu83 2.473 . S
O99 C82 1.260 . S
O99 Eu83 2.480 . S
O100 Eu83 2.430 . S
O100 C90 1.280 . S
O101 Eu73 2.355 1_455 S
O101 Eu83 2.670 1_545 S
O101 C90 1.255 1_545 S
O102 Eu83 2.394 . S
O102 C91 1.251 1_455 S
O103 Eu73 2.374 1_565 S
O103 C91 1.251 . S
H104 C75 0.931 . S
H105 C76 0.931 . S
H106 C78 0.931 1_455 S
H107 C79 0.931 1_455 S
H108 C85 0.931 . S
H109 C86 0.931 . S
H110 C88 0.931 1_655 S
H111 C89 0.931 1_655 S
C112 Eu113 2.835 . S
C112 C114 1.500 . S
C112 O132 1.257 . S
C112 O133 1.260 . S
Eu113 C112 2.835 . S
Eu113 O132 2.473 . S
Eu113 O133 2.480 . S
Eu113 O134 2.430 . S
Eu113 O135 2.670 . S
Eu113 O136 2.394 . S
Eu113 O141 2.355 1_565 S
Eu113 O143 2.374 . S
C114 C112 1.500 . S
C114 C115 1.377 . S
C114 C119 1.377 . S
C115 C114 1.377 . S
C115 C116 1.395 . S
C115 H144 0.931 . S
C116 C115 1.395 . S
C116 C117 1.383 . S
C116 H145 0.931 . S
C117 C116 1.383 . S
C117 C118 1.394 . S
C118 C117 1.394 . S
C118 C119 1.378 . S
C118 H146 0.931 1_565 S
C119 C114 1.377 . S
C119 C118 1.378 . S
C119 H147 0.931 1_565 S
C120 O134 1.259 . S
C120 O135 1.270 . S
C121 O136 1.251 1_545 S
C121 O137 1.251 . S
C122 Eu123 2.835 . S
C122 C124 1.500 . S
C122 O138 1.257 . S
C122 O139 1.260 . S
Eu123 C122 2.835 . S
Eu123 O135 2.355 1_545 S
Eu123 O137 2.374 . S
Eu123 O138 2.473 . S
Eu123 O139 2.480 . S
Eu123 O140 2.430 . S
Eu123 O141 2.670 . S
Eu123 O142 2.394 . S
C124 C122 1.500 . S
C124 C125 1.377 . S
C124 C129 1.377 . S
C125 C124 1.377 . S
C125 C126 1.395 . S
C125 H148 0.931 . S
C126 C125 1.395 . S
C126 C127 1.383 . S
C126 H149 0.931 . S
C127 C126 1.383 . S
C127 C128 1.394 . S
C128 C127 1.394 . S
C128 C129 1.378 . S
C128 H150 0.931 1_545 S
C129 C124 1.377 . S
C129 C128 1.378 . S
C129 H151 0.931 1_545 S
C130 O140 1.259 . S
C130 O141 1.270 . S
C131 O142 1.251 1_565 S
C131 O143 1.251 . S
O132 C112 1.257 . S
O132 Eu113 2.473 . S
O133 C112 1.260 . S
O133 Eu113 2.480 . S
O134 Eu113 2.430 . S
O134 C120 1.259 . S
O135 Eu113 2.670 . S
O135 C120 1.270 . S
O135 Eu123 2.355 1_565 S
O136 Eu113 2.394 . S
O136 C121 1.251 1_565 S
O137 C121 1.251 . S
O137 Eu123 2.374 . S
O138 C122 1.257 . S
O138 Eu123 2.473 . S
O139 C122 1.260 . S
O139 Eu123 2.480 . S
O140 Eu123 2.430 . S
O140 C130 1.259 . S
O141 Eu113 2.355 1_545 S
O141 Eu123 2.670 . S
O141 C130 1.270 . S
O142 Eu123 2.394 . S
O142 C131 1.251 1_545 S
O143 Eu113 2.374 . S
O143 C131 1.251 . S
H144 C115 0.931 . S
H145 C116 0.931 . S
H146 C118 0.931 1_545 S
H147 C119 0.931 1_545 S
H148 C125 0.931 . S
H149 C126 0.931 . S
H150 C128 0.931 1_565 S
H151 C129 0.931 1_565 S
C152 Eu153 2.835 . S
C152 C154 1.500 . S
C152 O172 1.257 . S
C152 O173 1.260 . S
Eu153 C152 2.835 . S
Eu153 O172 2.473 . S
Eu153 O173 2.480 . S
Eu153 O174 2.430 . S
Eu153 O175 2.670 . S
Eu153 O176 2.394 . S
Eu153 O181 2.355 . S
Eu153 O183 2.374 . S
C154 C152 1.500 . S
C154 C155 1.377 . S
C154 C159 1.377 . S
C155 C154 1.377 . S
C155 C156 1.395 . S
C155 H184 0.931 . S
C156 C155 1.395 . S
C156 C157 1.383 . S
C156 H185 0.931 . S
C157 C156 1.383 . S
C157 C158 1.394 . S
C158 C157 1.394 . S
C158 C159 1.378 . S
C158 H186 0.931 . S
C159 C154 1.377 . S
C159 C158 1.378 . S
C159 H187 0.931 . S
C160 O174 1.259 . S
C160 O175 1.270 . S
C161 O176 1.251 . S
C161 O177 1.251 . S
C162 Eu163 2.835 . S
C162 C164 1.500 . S
C162 O178 1.257 . S
C162 O179 1.260 . S
Eu163 C162 2.835 . S
Eu163 O175 2.355 . S
Eu163 O177 2.374 . S
Eu163 O178 2.473 . S
Eu163 O179 2.480 . S
Eu163 O180 2.430 . S
Eu163 O181 2.670 . S
Eu163 O182 2.394 . S
C164 C162 1.500 . S
C164 C165 1.377 . S
C164 C169 1.377 . S
C165 C164 1.377 . S
C165 C166 1.395 . S
C165 H188 0.931 . S
C166 C165 1.395 . S
C166 C167 1.383 . S
C166 H189 0.931 . S
C167 C166 1.383 . S
C167 C168 1.394 . S
C168 C167 1.394 . S
C168 C169 1.378 . S
C168 H190 0.931 . S
C169 C164 1.377 . S
C169 C168 1.378 . S
C169 H191 0.931 . S
C170 O180 1.259 . S
C170 O181 1.270 . S
C171 O182 1.251 . S
C171 O183 1.251 . S
O172 C152 1.257 . S
O172 Eu153 2.473 . S
O173 C152 1.260 . S
O173 Eu153 2.480 . S
O174 Eu153 2.430 . S
O174 C160 1.259 . S
O175 Eu153 2.670 . S
O175 C160 1.270 . S
O175 Eu163 2.355 . S
O176 Eu153 2.394 . S
O176 C161 1.251 . S
O177 C161 1.251 . S
O177 Eu163 2.374 . S
O178 C162 1.257 . S
O178 Eu163 2.473 . S
O179 C162 1.260 . S
O179 Eu163 2.480 . S
O180 Eu163 2.430 . S
O180 C170 1.259 . S
O181 Eu153 2.355 . S
O181 Eu163 2.670 . S
O181 C170 1.270 . S
O182 Eu163 2.394 . S
O182 C171 1.251 . S
O183 Eu153 2.374 . S
O183 C171 1.251 . S
H184 C155 0.931 . S
H185 C156 0.931 . S
H186 C158 0.931 . S
H187 C159 0.931 . S
H188 C165 0.931 . S
H189 C166 0.931 . S
H190 C168 0.931 . S
H191 C169 0.931 . S
C192 Eu193 2.835 . S
C192 C194 1.500 . S
C192 O212 1.257 . S
C192 O213 1.260 . S
Eu193 C192 2.835 . S
Eu193 O212 2.473 . S
Eu193 O213 2.480 . S
Eu193 O214 2.430 . S
Eu193 O215 2.670 1_455 S
Eu193 O216 2.394 . S
Eu193 O221 2.355 . S
Eu193 O223 2.374 1_455 S
C194 C192 1.500 . S
C194 C195 1.377 . S
C194 C199 1.377 . S
C195 C194 1.377 . S
C195 C196 1.395 . S
C195 H224 0.931 . S
C196 C195 1.395 . S
C196 C197 1.383 . S
C196 H225 0.931 . S
C197 C196 1.383 . S
C197 C198 1.394 . S
C198 C197 1.394 . S
C198 C199 1.378 . S
C198 H226 0.931 . S
C199 C194 1.377 . S
C199 C198 1.378 . S
C199 H227 0.931 . S
C200 O214 1.268 . S
C200 O215 1.263 1_455 S
C201 O216 1.251 . S
C201 O217 1.251 . S
C202 Eu203 2.835 . S
C202 C204 1.500 . S
C202 O218 1.257 . S
C202 O219 1.260 . S
Eu203 C202 2.835 . S
Eu203 O215 2.355 . S
Eu203 O217 2.374 1_655 S
Eu203 O218 2.473 . S
Eu203 O219 2.480 . S
Eu203 O220 2.430 . S
Eu203 O221 2.670 1_655 S
Eu203 O222 2.394 . S
C204 C202 1.500 . S
C204 C205 1.377 . S
C204 C209 1.377 . S
C205 C204 1.377 . S
C205 C206 1.395 . S
C205 H228 0.931 . S
C206 C205 1.395 . S
C206 C207 1.383 . S
C206 H229 0.931 . S
C207 C206 1.383 . S
C207 C208 1.394 . S
C208 C207 1.394 . S
C208 C209 1.378 . S
C208 H230 0.931 . S
C209 C204 1.377 . S
C209 C208 1.378 . S
C209 H231 0.931 . S
C210 O220 1.263 . S
C210 O221 1.267 1_655 S
C211 O222 1.251 . S
C211 O223 1.251 . S
O212 C192 1.257 . S
O212 Eu193 2.473 . S
O213 C192 1.260 . S
O213 Eu193 2.480 . S
O214 Eu193 2.430 . S
O214 C200 1.268 . S
O215 Eu193 2.670 1_655 S
O215 C200 1.263 1_655 S
O215 Eu203 2.355 . S
O216 Eu193 2.394 . S
O216 C201 1.251 . S
O217 C201 1.251 . S
O217 Eu203 2.374 1_455 S
O218 C202 1.257 . S
O218 Eu203 2.473 . S
O219 C202 1.260 . S
O219 Eu203 2.480 . S
O220 Eu203 2.430 . S
O220 C210 1.263 . S
O221 Eu193 2.355 . S
O221 Eu203 2.670 1_455 S
O221 C210 1.267 1_455 S
O222 Eu203 2.394 . S
O222 C211 1.251 . S
O223 Eu193 2.374 1_655 S
O223 C211 1.251 . S
H224 C195 0.931 . S
H225 C196 0.931 . S
H226 C198 0.931 . S
H227 C199 0.931 . S
H228 C205 0.931 . S
H229 C206 0.931 . S
H230 C208 0.931 . S
H231 C209 0.931 . S
H232 C240 0.929 . S
H233 C242 0.930 . S
H234 C244 0.930 . S
H235 C247 0.929 . S
H236 C250 0.930 . S
H237 C252 0.960 . S
H238 C252 0.960 . S
H239 C252 0.960 . S
C240 H232 0.929 . S
C240 C241 1.381 . S
C240 C242 1.384 . S
C241 C240 1.381 . S
C241 C247 1.386 1_565 S
C242 H233 0.930 . S
C242 C240 1.384 . S
C242 C243 1.390 . S
C243 C242 1.390 . S
C243 C244 1.382 1_565 S
C243 C248 1.490 . S
C244 H234 0.930 . S
C244 C243 1.382 1_545 S
C244 C247 1.386 . S
H245 C261 0.930 . S
H246 C262 0.931 . S
C247 H235 0.929 . S
C247 C241 1.386 1_545 S
C247 C244 1.386 . S
C248 C243 1.490 . S
C248 C250 1.390 1_565 S
C248 C251 1.407 . S
H249 C255 0.930 . S
C250 H236 0.930 . S
C250 C248 1.390 1_545 S
C250 C253 1.403 . S
C251 C248 1.407 . S
C251 C252 1.524 . S
C251 C255 1.400 . S
C252 H237 0.960 . S
C252 H238 0.960 . S
C252 H239 0.960 . S
C252 C251 1.524 . S
C253 C250 1.403 . S
C253 C254 1.392 . S
C253 C257 1.495 . S
C254 C253 1.392 . S
C254 C255 1.385 1_545 S
C254 C256 1.478 . S
C255 H249 0.930 . S
C255 C251 1.400 . S
C255 C254 1.385 1_565 S
C256 C254 1.478 . S
C256 C258 1.381 1_545 S
C256 C262 1.383 . S
C257 C253 1.495 . S
C257 H263 0.959 . S
C257 H264 0.961 . S
C257 H265 0.960 . S
C258 C256 1.381 1_565 S
C258 C259 1.394 . S
C258 H266 0.930 . S
C259 C258 1.394 . S
C259 C260 1.383 1_565 S
C259 H267 0.929 . S
C260 C259 1.383 1_545 S
C260 C261 1.377 . S
C261 H245 0.930 . S
C261 C260 1.377 . S
C261 C262 1.379 . S
C262 H246 0.931 . S
C262 C256 1.383 . S
C262 C261 1.379 . S
H263 C257 0.959 . S
H264 C257 0.961 . S
H265 C257 0.960 . S
H266 C258 0.930 . S
H267 C259 0.929 . S
H268 C276 0.929 . S
H269 C278 0.930 . S
H270 C280 0.930 . S
H271 C283 0.929 . S
H272 C286 0.930 . S
H273 C288 0.960 . S
H274 C288 0.960 . S
H275 C288 0.960 . S
C276 H268 0.929 . S
C276 C277 1.377 . S
C276 C278 1.384 . S
C277 C276 1.377 . S
C277 C283 1.390 . S
C278 H269 0.930 . S
C278 C276 1.384 . S
C278 C279 1.372 . S
C279 C278 1.372 . S
C279 C280 1.400 . S
C279 C284 1.490 . S
C280 H270 0.930 . S
C280 C279 1.400 . S
C280 C283 1.386 . S
H281 C297 0.930 . S
H282 C298 0.931 . S
C283 H271 0.929 . S
C283 C277 1.390 . S
C283 C280 1.386 . S
C284 C279 1.490 . S
C284 C286 1.395 . S
C284 C287 1.403 . S
H285 C291 0.930 . S
C286 H272 0.930 . S
C286 C284 1.395 . S
C286 C289 1.403 . S
C287 C284 1.403 . S
C287 C288 1.524 . S
C287 C291 1.400 . S
C288 H273 0.960 . S
C288 H274 0.960 . S
C288 H275 0.960 . S
C288 C287 1.524 . S
C289 C286 1.403 . S
C289 C290 1.392 . S
C289 C293 1.495 . S
C290 C289 1.392 . S
C290 C291 1.385 . S
C290 C292 1.478 . S
C291 H285 0.930 . S
C291 C287 1.400 . S
C291 C290 1.385 . S
C292 C290 1.478 . S
C292 C294 1.381 . S
C292 C298 1.383 . S
C293 C289 1.495 . S
C293 H299 0.959 . S
C293 H300 0.961 . S
C293 H301 0.960 . S
C294 C292 1.381 . S
C294 C295 1.394 . S
C294 H302 0.930 . S
C295 C294 1.394 . S
C295 C296 1.383 . S
C295 H303 0.929 . S
C296 C295 1.383 . S
C296 C297 1.377 . S
C297 H281 0.930 . S
C297 C296 1.377 . S
C297 C298 1.379 . S
C298 H282 0.931 . S
C298 C292 1.383 . S
C298 C297 1.379 . S
H299 C293 0.959 . S
H300 C293 0.961 . S
H301 C293 0.960 . S
H302 C294 0.930 . S
H303 C295 0.929 . S
H304 C312 0.929 . S
H305 C314 0.930 . S
H306 C316 0.930 . S
H307 C319 0.929 . S
H308 C322 0.930 . S
H309 C324 0.960 . S
H310 C324 0.960 . S
H311 C324 0.960 . S
C312 H304 0.929 . S
C312 C313 1.377 . S
C312 C314 1.384 . S
C313 C312 1.377 . S
C313 C319 1.390 . S
C314 H305 0.930 . S
C314 C312 1.384 . S
C314 C315 1.372 . S
C315 C314 1.372 . S
C315 C316 1.400 . S
C315 C320 1.490 . S
C316 H306 0.930 . S
C316 C315 1.400 . S
C316 C319 1.386 . S
H317 C333 0.930 . S
H318 C334 0.931 . S
C319 H307 0.929 . S
C319 C313 1.390 . S
C319 C316 1.386 . S
C320 C315 1.490 . S
C320 C322 1.395 . S
C320 C323 1.403 . S
H321 C327 0.930 . S
C322 H308 0.930 . S
C322 C320 1.395 . S
C322 C325 1.403 . S
C323 C320 1.403 . S
C323 C324 1.524 . S
C323 C327 1.400 . S
C324 H309 0.960 . S
C324 H310 0.960 . S
C324 H311 0.960 . S
C324 C323 1.524 . S
C325 C322 1.403 . S
C325 C326 1.392 . S
C325 C329 1.495 . S
C326 C325 1.392 . S
C326 C327 1.385 . S
C326 C328 1.478 . S
C327 H321 0.930 . S
C327 C323 1.400 . S
C327 C326 1.385 . S
C328 C326 1.478 . S
C328 C330 1.381 . S
C328 C334 1.383 . S
C329 C325 1.495 . S
C329 H335 0.959 . S
C329 H336 0.961 . S
C329 H337 0.960 . S
C330 C328 1.381 . S
C330 C331 1.394 . S
C330 H338 0.930 . S
C331 C330 1.394 . S
C331 C332 1.383 . S
C331 H339 0.929 . S
C332 C331 1.383 . S
C332 C333 1.377 . S
C333 H317 0.930 . S
C333 C332 1.377 . S
C333 C334 1.379 . S
C334 H318 0.931 . S
C334 C328 1.383 . S
C334 C333 1.379 . S
H335 C329 0.959 . S
H336 C329 0.961 . S
H337 C329 0.960 . S
H338 C330 0.930 . S
H339 C331 0.929 . S
H340 C348 0.929 . S
H341 C350 0.930 . S
H342 C352 0.930 . S
H343 C355 0.929 . S
H344 C358 0.930 . S
H345 C360 0.960 . S
H346 C360 0.960 1_655 S
H347 C360 0.960 . S
C348 H340 0.929 . S
C348 C349 1.378 . S
C348 C350 1.384 . S
C349 C348 1.378 . S
C349 C355 1.389 1_655 S
C350 H341 0.930 . S
C350 C348 1.384 . S
C350 C351 1.408 . S
C351 C350 1.408 . S
C351 C352 1.363 1_655 S
C351 C356 1.490 . S
C352 H342 0.930 . S
C352 C351 1.363 1_455 S
C352 C355 1.386 . S
H353 C369 0.930 . S
H354 C370 0.931 . S
C355 H343 0.929 . S
C355 C349 1.389 1_455 S
C355 C352 1.386 . S
C356 C351 1.490 . S
C356 C358 1.405 . S
C356 C359 1.395 1_655 S
H357 C363 0.930 . S
C358 H344 0.930 . S
C358 C356 1.405 . S
C358 C361 1.403 . S
C359 C356 1.395 1_455 S
C359 C360 1.524 . S
C359 C363 1.400 . S
C360 H345 0.960 . S
C360 H346 0.960 1_455 S
C360 H347 0.960 . S
C360 C359 1.524 . S
C361 C358 1.403 . S
C361 C362 1.402 . S
C361 C365 1.495 . S
C362 C361 1.402 . S
C362 C363 1.377 1_655 S
C362 C364 1.477 . S
C363 H357 0.930 . S
C363 C359 1.400 . S
C363 C362 1.377 1_455 S
C364 C362 1.477 . S
C364 C366 1.386 . S
C364 C370 1.377 1_655 S
C365 C361 1.495 . S
C365 H371 0.959 . S
C365 H372 0.961 1_655 S
C365 H373 0.960 . S
C366 C364 1.386 . S
C366 C367 1.394 . S
C366 H374 0.930 . S
C367 C366 1.394 . S
C367 C368 1.344 1_655 S
C367 H375 0.929 . S
C368 C367 1.344 1_455 S
C368 C369 1.416 . S
C369 H353 0.930 . S
C369 C368 1.416 . S
C369 C370 1.379 . S
C370 H354 0.931 . S
C370 C364 1.377 1_455 S
C370 C369 1.379 . S
H371 C365 0.959 . S
H372 C365 0.961 1_455 S
H373 C365 0.960 . S
H374 C366 0.930 . S
H375 C367 0.929 . S
H376 C384 0.929 . S
H377 C386 0.930 . S
H378 C388 0.930 . S
H379 C391 0.929 . S
H380 C394 0.930 . S
H381 C396 0.960 . S
H382 C396 0.960 . S
H383 C396 0.960 . S
C384 H376 0.929 . S
C384 C385 1.380 1_545 S
C384 C386 1.384 . S
C385 C384 1.380 1_565 S
C385 C391 1.388 . S
C386 H377 0.930 . S
C386 C384 1.384 . S
C386 C387 1.385 . S
C387 C386 1.385 . S
C387 C388 1.387 1_545 S
C387 C392 1.491 . S
C388 H378 0.930 . S
C388 C387 1.387 1_565 S
C388 C391 1.386 . S
H389 C405 0.930 . S
H390 C406 0.931 . S
C391 H379 0.929 . S
C391 C385 1.388 . S
C391 C388 1.386 . S
C392 C387 1.491 . S
C392 C394 1.395 . S
C392 C395 1.403 1_545 S
H393 C399 0.930 1_556 S
C394 H380 0.930 . S
C394 C392 1.395 . S
C394 C397 1.403 . S
C395 C392 1.403 1_565 S
C395 C396 1.524 . S
C395 C399 1.400 . S
C396 H381 0.960 . S
C396 H382 0.960 . S
C396 H383 0.960 . S
C396 C395 1.524 . S
C397 C394 1.403 . S
C397 C398 1.392 1_554 S
C397 C401 1.495 . S
C398 C397 1.392 1_556 S
C398 C399 1.385 1_546 S
C398 C400 1.478 . S
C399 H393 0.930 1_554 S
C399 C395 1.400 . S
C399 C398 1.385 1_564 S
C400 C398 1.478 . S
C400 C402 1.381 . S
C400 C406 1.383 1_545 S
C401 C397 1.495 . S
C401 H407 0.959 . S
C401 H408 0.961 . S
C401 H409 0.960 1_554 S
C402 C400 1.381 . S
C402 C403 1.394 . S
C402 H410 0.930 . S
C403 C402 1.394 . S
C403 C404 1.383 . S
C403 H411 0.929 . S
C404 C403 1.383 . S
C404 C405 1.377 1_545 S
C405 H389 0.930 . S
C405 C404 1.377 1_565 S
C405 C406 1.379 . S
C406 H390 0.931 . S
C406 C400 1.383 1_565 S
C406 C405 1.379 . S
H407 C401 0.959 . S
H408 C401 0.961 . S
H409 C401 0.960 1_556 S
H410 C402 0.930 . S
H411 C403 0.929 . S
H412 C420 0.929 . S
H413 C422 0.930 . S
H414 C424 0.930 . S
H415 C427 0.929 . S
H416 C430 0.930 . S
H417 C432 0.960 . S
H418 C432 0.960 . S
H419 C432 0.960 . S
C420 H412 0.929 . S
C420 C421 1.377 . S
C420 C422 1.384 . S
C421 C420 1.377 . S
C421 C427 1.390 . S
C422 H413 0.930 . S
C422 C420 1.384 . S
C422 C423 1.372 . S
C423 C422 1.372 . S
C423 C424 1.400 . S
C423 C428 1.490 . S
C424 H414 0.930 . S
C424 C423 1.400 . S
C424 C427 1.386 . S
H425 C441 0.930 . S
H426 C442 0.931 . S
C427 H415 0.929 . S
C427 C421 1.390 . S
C427 C424 1.386 . S
C428 C423 1.490 . S
C428 C430 1.395 . S
C428 C431 1.403 . S
H429 C435 0.933 . S
C430 H416 0.930 . S
C430 C428 1.395 . S
C430 C433 1.403 . S
C431 C428 1.403 . S
C431 C432 1.524 . S
C431 C435 1.400 . S
C432 H417 0.960 . S
C432 H418 0.960 . S
C432 H419 0.960 . S
C432 C431 1.524 . S
C433 C430 1.403 . S
C433 C434 1.392 1_554 S
C433 C437 1.495 . S
C434 C433 1.392 1_556 S
C434 C435 1.385 1_556 S
C434 C436 1.478 . S
C435 H429 0.933 . S
C435 C431 1.400 . S
C435 C434 1.385 1_554 S
C436 C434 1.478 . S
C436 C438 1.381 . S
C436 C442 1.383 . S
C437 C433 1.495 . S
C437 H443 0.959 . S
C437 H444 0.961 1_554 S
C437 H445 0.960 . S
C438 C436 1.381 . S
C438 C439 1.394 . S
C438 H446 0.930 . S
C439 C438 1.394 . S
C439 C440 1.383 . S
C439 H447 0.929 . S
C440 C439 1.383 . S
C440 C441 1.377 . S
C441 H425 0.930 . S
C441 C440 1.377 . S
C441 C442 1.379 . S
C442 H426 0.931 . S
C442 C436 1.383 . S
C442 C441 1.379 . S
H443 C437 0.959 . S
H444 C437 0.961 1_556 S
H445 C437 0.960 . S
H446 C438 0.930 . S
H447 C439 0.929 . S
H448 C456 0.929 . S
H449 C458 0.930 . S
H450 C460 0.930 . S
H451 C463 0.929 . S
H452 C466 0.930 . S
H453 C468 0.960 1_556 S
H454 C468 0.960 . S
H455 C468 0.960 . S
C456 H448 0.929 . S
C456 C457 1.377 . S
C456 C458 1.384 . S
C457 C456 1.377 . S
C457 C463 1.390 . S
C458 H449 0.930 . S
C458 C456 1.384 . S
C458 C459 1.372 . S
C459 C458 1.372 . S
C459 C460 1.400 . S
C459 C464 1.490 . S
C460 H450 0.930 . S
C460 C459 1.400 . S
C460 C463 1.386 . S
H461 C477 0.930 . S
H462 C478 0.931 . S
C463 H451 0.929 . S
C463 C457 1.390 . S
C463 C460 1.386 . S
C464 C459 1.490 . S
C464 C466 1.395 . S
C464 C467 1.403 . S
H465 C471 0.930 . S
C466 H452 0.930 . S
C466 C464 1.395 . S
C466 C469 1.403 . S
C467 C464 1.403 . S
C467 C468 1.524 . S
C467 C471 1.400 1_554 S
C468 H453 0.960 1_554 S
C468 H454 0.960 . S
C468 H455 0.960 . S
C468 C467 1.524 . S
C469 C466 1.403 . S
C469 C470 1.392 . S
C469 C473 1.495 . S
C470 C469 1.392 . S
C470 C471 1.385 1_554 S
C470 C472 1.478 1_554 S
C471 H465 0.930 . S
C471 C467 1.400 1_556 S
C471 C470 1.385 1_556 S
C472 C470 1.478 1_556 S
C472 C474 1.381 . S
C472 C478 1.383 . S
C473 C469 1.495 . S
C473 H479 0.959 . S
C473 H480 0.961 . S
C473 H481 0.960 . S
C474 C472 1.381 . S
C474 C475 1.394 . S
C474 H482 0.930 . S
C475 C474 1.394 . S
C475 C476 1.383 . S
C475 H483 0.929 . S
C476 C475 1.383 . S
C476 C477 1.377 . S
C477 H461 0.930 . S
C477 C476 1.377 . S
C477 C478 1.379 . S
C478 H462 0.931 . S
C478 C472 1.383 . S
C478 C477 1.379 . S
H479 C473 0.959 . S
H480 C473 0.961 . S
H481 C473 0.960 . S
H482 C474 0.930 . S
H483 C475 0.929 . S
H484 C492 0.929 . S
H485 C494 0.930 . S
H486 C496 0.930 . S
H487 C499 0.929 . S
H488 C502 0.930 . S
H489 C504 0.960 . S
H490 C504 0.960 . S
H491 C504 0.960 . S
C492 H484 0.929 . S
C492 C493 1.372 1_455 S
C492 C494 1.384 . S
C493 C492 1.372 1_655 S
C493 C499 1.395 . S
C494 H485 0.930 . S
C494 C492 1.384 . S
C494 C495 1.375 . S
C495 C494 1.375 . S
C495 C496 1.397 1_455 S
C495 C500 1.489 . S
C496 H486 0.930 . S
C496 C495 1.397 1_655 S
C496 C499 1.386 . S
H497 C513 0.930 . S
H498 C514 0.931 . S
C499 H487 0.929 . S
C499 C493 1.395 . S
C499 C496 1.386 . S
C500 C495 1.489 . S
C500 C502 1.436 . S
C500 C503 1.364 1_455 S
H501 C507 0.930 1_556 S
C502 H488 0.930 . S
C502 C500 1.436 . S
C502 C505 1.403 . S
C503 C500 1.364 1_655 S
C503 C504 1.524 . S
C503 C507 1.400 . S
C504 H489 0.960 . S
C504 H490 0.960 . S
C504 H491 0.960 . S
C504 C503 1.524 . S
C505 C502 1.403 . S
C505 C506 1.392 1_554 S
C505 C509 1.495 . S
C506 C505 1.392 1_556 S
C506 C507 1.385 1_456 S
C506 C508 1.478 . S
C507 H501 0.930 1_554 S
C507 C503 1.400 . S
C507 C506 1.385 1_654 S
C508 C506 1.478 . S
C508 C510 1.381 . S
C508 C514 1.383 1_455 S
C509 C505 1.495 . S
C509 H515 0.959 . S
C509 H516 0.961 . S
C509 H517 0.960 1_554 S
C510 C508 1.381 . S
C510 C511 1.394 . S
C510 H518 0.930 . S
C511 C510 1.394 . S
C511 C512 1.397 . S
C511 H519 0.929 . S
C512 C511 1.397 . S
C512 C513 1.366 1_455 S
C513 H497 0.930 . S
C513 C512 1.366 1_655 S
C513 C514 1.379 . S
C514 H498 0.931 . S
C514 C508 1.383 1_655 S
C514 C513 1.379 . S
H515 C509 0.959 . S
H516 C509 0.961 . S
H517 C509 0.960 1_556 S
H518 C510 0.930 . S
H519 C511 0.929 . S
H520 C528 0.929 . S
H521 C530 0.930 . S
H522 C532 0.930 . S
H523 C535 0.929 . S
H524 C538 0.930 . S
H525 C540 0.960 . S
H526 C540 0.960 . S
H527 C540 0.960 . S
C528 H520 0.929 . S
C528 C529 1.377 . S
C528 C530 1.384 . S
C529 C528 1.377 . S
C529 C535 1.390 1_455 S
C530 H521 0.930 . S
C530 C528 1.384 . S
C530 C531 1.372 1_455 S
C531 C530 1.372 1_655 S
C531 C532 1.400 . S
C531 C536 1.490 . S
C532 H522 0.930 . S
C532 C531 1.400 . S
C532 C535 1.386 . S
H533 C549 0.930 . S
H534 C550 0.931 . S
C535 H523 0.929 . S
C535 C529 1.390 1_655 S
C535 C532 1.386 . S
C536 C531 1.490 . S
C536 C538 1.395 1_655 S
C536 C539 1.403 . S
H537 C543 0.930 . S
C538 H524 0.930 . S
C538 C536 1.395 1_455 S
C538 C541 1.403 . S
C539 C536 1.403 . S
C539 C540 1.524 . S
C539 C543 1.400 . S
C540 H525 0.960 . S
C540 H526 0.960 . S
C540 H527 0.960 . S
C540 C539 1.524 . S
C541 C538 1.403 . S
C541 C542 1.392 1_455 S
C541 C545 1.495 . S
C542 C541 1.392 1_655 S
C542 C543 1.385 . S
C542 C544 1.478 . S
C543 H537 0.930 . S
C543 C539 1.400 . S
C543 C542 1.385 . S
C544 C542 1.478 . S
C544 C546 1.381 . S
C544 C550 1.383 . S
C545 C541 1.495 . S
C545 H551 0.959 . S
C545 H552 0.961 . S
C545 H553 0.960 . S
C546 C544 1.381 . S
C546 C547 1.394 . S
C546 H554 0.930 . S
C547 C546 1.394 . S
C547 C548 1.383 . S
C547 H555 0.929 . S
C548 C547 1.383 . S
C548 C549 1.377 . S
C549 H533 0.930 . S
C549 C548 1.377 . S
C549 C550 1.379 . S
C550 H534 0.931 . S
C550 C544 1.383 . S
C550 C549 1.379 . S
H551 C545 0.959 . S
H552 C545 0.961 . S
H553 C545 0.960 . S
H554 C546 0.930 . S
H555 C547 0.929 . S
H556 C564 0.929 . S
H557 C566 0.930 . S
H558 C568 0.930 . S
H559 C571 0.929 . S
H560 C574 0.930 . S
H561 C576 0.960 . S
H562 C576 0.960 . S
H563 C576 0.989 . S
C564 H556 0.929 . S
C564 C565 1.377 1_565 S
C564 C566 1.384 . S
C565 C564 1.377 1_545 S
C565 C571 1.390 . S
C566 H557 0.930 . S
C566 C564 1.384 . S
C566 C567 1.372 . S
C567 C566 1.372 . S
C567 C568 1.400 1_565 S
C567 C572 1.490 . S
C568 H558 0.930 . S
C568 C567 1.400 1_545 S
C568 C571 1.386 . S
H569 C585 0.950 . S
H570 C586 0.931 1_545 S
C571 H559 0.929 . S
C571 C565 1.390 . S
C571 C568 1.386 . S
C572 C567 1.490 . S
C572 C574 1.395 . S
C572 C575 1.403 . S
H573 C579 0.930 . S
C574 H560 0.930 . S
C574 C572 1.395 . S
C574 C577 1.403 . S
C575 C572 1.403 . S
C575 C576 1.524 . S
C575 C579 1.400 . S
C576 H561 0.960 . S
C576 H562 0.960 . S
C576 H563 0.989 . S
C576 C575 1.524 . S
C577 C574 1.403 . S
C577 C578 1.392 . S
C577 C581 1.495 . S
C578 C577 1.392 . S
C578 C579 1.385 . S
C578 C580 1.478 . S
C579 H573 0.930 . S
C579 C575 1.400 . S
C579 C578 1.385 . S
C580 C578 1.478 . S
C580 C582 1.381 . S
C580 C586 1.383 . S
C581 C577 1.495 . S
C581 H587 0.959 . S
C581 H588 0.961 . S
C581 H589 0.960 . S
C582 C580 1.381 . S
C582 C583 1.394 . S
C582 H590 0.930 . S
C583 C582 1.394 . S
C583 C584 1.383 . S
C583 H591 0.929 . S
C584 C583 1.383 . S
C584 C585 1.377 . S
C585 H569 0.950 . S
C585 C584 1.377 . S
C585 C586 1.379 . S
C586 H570 0.931 1_565 S
C586 C580 1.383 . S
C586 C585 1.379 . S
H587 C581 0.959 . S
H588 C581 0.961 . S
H589 C581 0.960 . S
H590 C582 0.930 . S
H591 C583 0.929 . S
H592 C600 0.929 . S
H593 C602 0.930 . S
H594 C604 0.930 . S
H595 C607 0.929 . S
H596 C610 0.930 . S
H597 C612 0.960 . S
H598 C612 0.960 . S
H599 C612 0.960 . S
C600 H592 0.929 . S
C600 C601 1.377 . S
C600 C602 1.384 . S
C601 C600 1.377 . S
C601 C607 1.390 . S
C602 H593 0.930 . S
C602 C600 1.384 . S
C602 C603 1.372 . S
C603 C602 1.372 . S
C603 C604 1.400 . S
C603 C608 1.490 . S
C604 H594 0.930 . S
C604 C603 1.400 . S
C604 C607 1.386 . S
H605 C621 0.930 . S
H606 C622 0.931 . S
C607 H595 0.929 . S
C607 C601 1.390 . S
C607 C604 1.386 . S
C608 C603 1.490 . S
C608 C610 1.395 . S
C608 C611 1.403 . S
H609 C615 0.930 . S
C610 H596 0.930 . S
C610 C608 1.395 . S
C610 C613 1.403 . S
C611 C608 1.403 . S
C611 C612 1.524 . S
C611 C615 1.400 . S
C612 H597 0.960 . S
C612 H598 0.960 . S
C612 H599 0.960 . S
C612 C611 1.524 . S
C613 C610 1.403 . S
C613 C614 1.392 . S
C613 C617 1.495 . S
C614 C613 1.392 . S
C614 C615 1.385 . S
C614 C616 1.478 . S
C615 H609 0.930 . S
C615 C611 1.400 . S
C615 C614 1.385 . S
C616 C614 1.478 . S
C616 C618 1.381 . S
C616 C622 1.383 . S
C617 C613 1.495 . S
C617 H623 0.959 . S
C617 H624 0.961 . S
C617 H625 0.960 . S
C618 C616 1.381 . S
C618 C619 1.394 . S
C618 H626 0.930 . S
C619 C618 1.394 . S
C619 C620 1.383 . S
C619 H627 0.929 . S
C620 C619 1.383 . S
C620 C621 1.377 . S
C621 H605 0.930 . S
C621 C620 1.377 . S
C621 C622 1.379 . S
C622 H606 0.931 . S
C622 C616 1.383 . S
C622 C621 1.379 . S
H623 C617 0.959 . S
H624 C617 0.961 . S
H625 C617 0.960 . S
H626 C618 0.930 . S
H627 C619 0.929 . S
H628 C636 0.929 . S
H629 C638 0.930 . S
H630 C640 0.930 . S
H631 C643 0.929 . S
H632 C646 0.930 . S
H633 C648 0.960 . S
H634 C648 0.960 . S
H635 C648 0.960 . S
C636 H628 0.929 . S
C636 C637 1.377 . S
C636 C638 1.384 . S
C637 C636 1.377 . S
C637 C643 1.390 . S
C638 H629 0.930 . S
C638 C636 1.384 . S
C638 C639 1.372 . S
C639 C638 1.372 . S
C639 C640 1.400 . S
C639 C644 1.490 . S
C640 H630 0.930 . S
C640 C639 1.400 . S
C640 C643 1.386 . S
H641 C657 0.930 . S
H642 C658 0.931 . S
C643 H631 0.929 . S
C643 C637 1.390 . S
C643 C640 1.386 . S
C644 C639 1.490 . S
C644 C646 1.395 . S
C644 C647 1.403 . S
H645 C651 0.930 . S
C646 H632 0.930 . S
C646 C644 1.395 . S
C646 C649 1.403 . S
C647 C644 1.403 . S
C647 C648 1.524 . S
C647 C651 1.400 . S
C648 H633 0.960 . S
C648 H634 0.960 . S
C648 H635 0.960 . S
C648 C647 1.524 . S
C649 C646 1.403 . S
C649 C650 1.392 . S
C649 C653 1.495 . S
C650 C649 1.392 . S
C650 C651 1.385 . S
C650 C652 1.478 . S
C651 H645 0.930 . S
C651 C647 1.400 . S
C651 C650 1.385 . S
C652 C650 1.478 . S
C652 C654 1.381 . S
C652 C658 1.383 . S
C653 C649 1.495 . S
C653 H659 0.959 . S
C653 H660 0.961 . S
C653 H661 0.960 . S
C654 C652 1.381 . S
C654 C655 1.394 . S
C654 H662 0.930 . S
C655 C654 1.394 . S
C655 C656 1.383 . S
C655 H663 0.929 . S
C656 C655 1.383 . S
C656 C657 1.377 . S
C657 H641 0.930 . S
C657 C656 1.377 . S
C657 C658 1.379 . S
C658 H642 0.931 . S
C658 C652 1.383 . S
C658 C657 1.379 . S
H659 C653 0.959 . S
H660 C653 0.961 . S
H661 C653 0.960 . S
H662 C654 0.930 . S
H663 C655 0.929 . S
H664 C672 0.929 . S
H665 C674 0.930 . S
H666 C676 0.930 . S
H667 C679 0.929 . S
H668 C682 0.930 . S
H669 C684 0.960 . S
H670 C684 0.960 . S
H671 C684 0.960 . S
C672 H664 0.929 . S
C672 C673 1.377 1_455 S
C672 C674 1.384 . S
C673 C672 1.377 1_655 S
C673 C679 1.390 . S
C674 H665 0.930 . S
C674 C672 1.384 . S
C674 C675 1.372 . S
C675 C674 1.372 . S
C675 C676 1.400 1_455 S
C675 C680 1.490 . S
C676 H666 0.930 . S
C676 C675 1.400 1_655 S
C676 C679 1.386 . S
H677 C693 0.930 . S
H678 C694 0.931 . S
C679 H667 0.929 . S
C679 C673 1.390 . S
C679 C676 1.386 . S
C680 C675 1.490 . S
C680 C682 1.395 . S
C680 C683 1.403 1_455 S
H681 C687 0.930 1_655 S
C682 H668 0.930 . S
C682 C680 1.395 . S
C682 C685 1.403 . S
C683 C680 1.403 1_655 S
C683 C684 1.524 . S
C683 C687 1.400 1_655 S
C684 H669 0.960 . S
C684 H670 0.960 . S
C684 H671 0.960 . S
C684 C683 1.524 . S
C685 C682 1.403 . S
C685 C686 1.392 . S
C685 C689 1.495 . S
C686 C685 1.392 . S
C686 C687 1.385 . S
C686 C688 1.478 . S
C687 H681 0.930 1_455 S
C687 C683 1.400 1_455 S
C687 C686 1.385 . S
C688 C686 1.478 . S
C688 C690 1.381 . S
C688 C694 1.383 1_554 S
C689 C685 1.495 . S
C689 H695 0.959 . S
C689 H696 0.961 . S
C689 H697 0.960 . S
C690 C688 1.381 . S
C690 C691 1.399 . S
C690 H698 0.930 . S
C691 C690 1.399 . S
C691 C692 1.376 1_554 S
C691 H699 0.932 . S
C692 C691 1.376 1_556 S
C692 C693 1.377 . S
C693 H677 0.930 . S
C693 C692 1.377 . S
C693 C694 1.379 . S
C694 H678 0.931 . S
C694 C688 1.383 1_556 S
C694 C693 1.379 . S
H695 C689 0.959 . S
H696 C689 0.961 . S
H697 C689 0.960 . S
H698 C690 0.930 . S
H699 C691 0.932 . S
H700 C708 0.929 . S
H701 C710 0.930 . S
H702 C712 0.930 . S
H703 C715 0.929 . S
H704 C718 0.930 1_565 S
H705 C720 0.960 . S
H706 C720 0.960 . S
H707 C720 0.960 . S
C708 H700 0.929 . S
C708 C709 1.377 1_545 S
C708 C710 1.384 . S
C709 C708 1.377 1_565 S
C709 C715 1.390 . S
C710 H701 0.930 . S
C710 C708 1.384 . S
C710 C711 1.372 . S
C711 C710 1.372 . S
C711 C712 1.400 1_545 S
C711 C716 1.490 . S
C712 H702 0.930 . S
C712 C711 1.400 1_565 S
C712 C715 1.386 . S
H713 C729 0.930 1_554 S
H714 C730 0.931 . S
C715 H703 0.929 . S
C715 C709 1.390 . S
C715 C712 1.386 . S
C716 C711 1.490 . S
C716 C718 1.395 . S
C716 C719 1.403 . S
H717 C723 0.930 . S
C718 H704 0.930 1_545 S
C718 C716 1.395 . S
C718 C721 1.403 . S
C719 C716 1.403 . S
C719 C720 1.524 . S
C719 C723 1.400 . S
C720 H705 0.960 . S
C720 H706 0.960 . S
C720 H707 0.960 . S
C720 C719 1.524 . S
C721 C718 1.403 . S
C721 C722 1.392 . S
C721 C725 1.495 1_544 S
C722 C721 1.392 . S
C722 C723 1.385 . S
C722 C724 1.478 . S
C723 H717 0.930 . S
C723 C719 1.400 . S
C723 C722 1.385 . S
C724 C722 1.478 . S
C724 C726 1.381 1_554 S
C724 C730 1.383 . S
C725 C721 1.495 1_566 S
C725 H731 0.959 . S
C725 H732 0.961 . S
C725 H733 0.960 1_565 S
C726 C724 1.381 1_556 S
C726 C727 1.394 . S
C726 H734 0.930 . S
C727 C726 1.394 . S
C727 C728 1.383 . S
C727 H735 0.929 . S
C728 C727 1.383 . S
C728 C729 1.377 . S
C729 H713 0.930 1_556 S
C729 C728 1.377 . S
C729 C730 1.379 1_556 S
C730 H714 0.931 . S
C730 C724 1.383 . S
C730 C729 1.379 1_554 S
H731 C725 0.959 . S
H732 C725 0.961 . S
H733 C725 0.960 1_545 S
H734 C726 0.930 . S
H735 C727 0.929 . S
H736 C744 0.929 . S
H737 C746 0.930 . S
H738 C748 0.930 . S
H739 C751 0.929 . S
H740 C754 0.930 . S
H741 C756 0.960 . S
H742 C756 0.960 . S
H743 C756 0.960 . S
C744 H736 0.929 . S
C744 C745 1.377 . S
C744 C746 1.384 . S
C745 C744 1.377 . S
C745 C751 1.390 . S
C746 H737 0.930 . S
C746 C744 1.384 . S
C746 C747 1.372 . S
C747 C746 1.372 . S
C747 C748 1.400 . S
C747 C752 1.490 . S
C748 H738 0.930 . S
C748 C747 1.400 . S
C748 C751 1.386 . S
H749 C765 0.930 . S
H750 C766 0.931 . S
C751 H739 0.929 . S
C751 C745 1.390 . S
C751 C748 1.386 . S
C752 C747 1.490 . S
C752 C754 1.395 . S
C752 C755 1.403 . S
H753 C759 0.930 . S
C754 H740 0.930 . S
C754 C752 1.395 . S
C754 C757 1.403 . S
C755 C752 1.403 . S
C755 C756 1.524 . S
C755 C759 1.400 . S
C756 H741 0.960 . S
C756 H742 0.960 . S
C756 H743 0.960 . S
C756 C755 1.524 . S
C757 C754 1.403 . S
C757 C758 1.392 . S
C757 C761 1.495 . S
C758 C757 1.392 . S
C758 C759 1.385 . S
C758 C760 1.478 . S
C759 H753 0.930 . S
C759 C755 1.400 . S
C759 C758 1.385 . S
C760 C758 1.478 . S
C760 C762 1.381 . S
C760 C766 1.383 1_554 S
C761 C757 1.495 . S
C761 H767 0.959 . S
C761 H768 0.961 . S
C761 H769 0.960 . S
C762 C760 1.381 . S
C762 C763 1.394 . S
C762 H770 0.930 . S
C763 C762 1.394 . S
C763 C764 1.383 1_554 S
C763 H771 0.929 . S
C764 C763 1.383 1_556 S
C764 C765 1.377 . S
C765 H749 0.930 . S
C765 C764 1.377 . S
C765 C766 1.379 . S
C766 H750 0.931 . S
C766 C760 1.383 1_556 S
C766 C765 1.379 . S
H767 C761 0.959 . S
H768 C761 0.961 . S
H769 C761 0.960 . S
H770 C762 0.930 . S
H771 C763 0.929 . S
H772 C780 0.929 . S
H773 C782 0.930 . S
H774 C784 0.930 . S
H775 C787 0.929 . S
H776 C790 0.930 . S
H777 C792 0.960 . S
H778 C792 0.960 . S
H779 C792 0.960 . S
C780 H772 0.929 . S
C780 C781 1.377 . S
C780 C782 1.384 . S
C781 C780 1.377 . S
C781 C787 1.390 . S
C782 H773 0.930 . S
C782 C780 1.384 . S
C782 C783 1.372 . S
C783 C782 1.372 . S
C783 C784 1.400 . S
C783 C788 1.490 . S
C784 H774 0.930 . S
C784 C783 1.400 . S
C784 C787 1.386 . S
H785 C801 0.930 . S
H786 C802 0.931 . S
C787 H775 0.929 . S
C787 C781 1.390 . S
C787 C784 1.386 . S
C788 C783 1.490 . S
C788 C790 1.395 . S
C788 C791 1.403 . S
H789 C795 0.930 . S
C790 H776 0.930 . S
C790 C788 1.395 . S
C790 C793 1.403 . S
C791 C788 1.403 . S
C791 C792 1.524 . S
C791 C795 1.400 . S
C792 H777 0.960 . S
C792 H778 0.960 . S
C792 H779 0.960 . S
C792 C791 1.524 . S
C793 C790 1.403 . S
C793 C794 1.392 . S
C793 C797 1.495 1_554 S
C794 C793 1.392 . S
C794 C795 1.385 . S
C794 C796 1.478 . S
C795 H789 0.930 . S
C795 C791 1.400 . S
C795 C794 1.385 . S
C796 C794 1.478 . S
C796 C798 1.381 1_554 S
C796 C802 1.383 1_554 S
C797 C793 1.495 1_556 S
C797 H803 0.959 . S
C797 H804 0.961 . S
C797 H805 0.960 . S
C798 C796 1.381 1_556 S
C798 C799 1.394 . S
C798 H806 0.930 1_556 S
C799 C798 1.394 . S
C799 C800 1.383 . S
C799 H807 0.929 . S
C800 C799 1.383 . S
C800 C801 1.377 . S
C801 H785 0.930 . S
C801 C800 1.377 . S
C801 C802 1.379 . S
C802 H786 0.931 . S
C802 C796 1.383 1_556 S
C802 C801 1.379 . S
H803 C797 0.959 . S
H804 C797 0.961 . S
H805 C797 0.960 . S
H806 C798 0.930 1_554 S
H807 C799 0.929 . S
H808 C816 0.929 . S
H809 C818 0.930 . S
H810 C820 0.930 . S
H811 C823 0.929 . S
H812 C826 0.930 . S
H813 C828 0.960 . S
H814 C828 0.960 1_455 S
H815 C828 0.960 . S
C816 H808 0.929 . S
C816 C817 1.377 . S
C816 C818 1.384 . S
C817 C816 1.377 . S
C817 C823 1.390 1_455 S
C818 H809 0.930 . S
C818 C816 1.384 . S
C818 C819 1.372 . S
C819 C818 1.372 . S
C819 C820 1.400 1_455 S
C819 C824 1.490 . S
C820 H810 0.930 . S
C820 C819 1.400 1_655 S
C820 C823 1.386 . S
H821 C837 0.930 . S
H822 C838 0.931 . S
C823 H811 0.929 . S
C823 C817 1.390 1_655 S
C823 C820 1.386 . S
C824 C819 1.490 . S
C824 C826 1.395 . S
C824 C827 1.409 . S
H825 C831 0.930 1_655 S
C826 H812 0.930 . S
C826 C824 1.395 . S
C826 C829 1.403 . S
C827 C824 1.409 . S
C827 C828 1.518 1_455 S
C827 C831 1.401 . S
C828 H813 0.960 . S
C828 H814 0.960 1_655 S
C828 H815 0.960 . S
C828 C827 1.518 1_655 S
C829 C826 1.403 . S
C829 C830 1.392 . S
C829 C833 1.495 . S
C830 C829 1.392 . S
C830 C831 1.385 . S
C830 C832 1.478 . S
C831 H825 0.930 1_455 S
C831 C827 1.401 . S
C831 C830 1.385 . S
C832 C830 1.478 . S
C832 C834 1.381 . S
C832 C838 1.383 1_455 S
C833 C829 1.495 . S
C833 H839 0.959 1_556 S
C833 H840 0.961 . S
C833 H841 0.960 . S
C834 C832 1.381 . S
C834 C835 1.394 . S
C834 H842 0.930 . S
C835 C834 1.394 . S
C835 C836 1.383 . S
C835 H843 0.929 . S
C836 C835 1.383 . S
C836 C837 1.377 1_455 S
C837 H821 0.930 . S
C837 C836 1.377 1_655 S
C837 C838 1.379 . S
C838 H822 0.931 . S
C838 C832 1.383 1_655 S
C838 C837 1.379 . S
H839 C833 0.959 1_554 S
H840 C833 0.961 . S
H841 C833 0.960 . S
H842 C834 0.930 . S
H843 C835 0.929 . S
H844 C852 0.929 1_554 S
H845 C854 0.930 . S
H846 C856 0.930 . S
H847 C859 0.929 . S
H848 C862 0.930 . S
H849 C864 0.960 . S
H850 C864 0.960 . S
H851 C864 0.960 . S
C852 H844 0.929 1_556 S
C852 C853 1.377 . S
C852 C854 1.384 . S
C853 C852 1.377 . S
C853 C859 1.390 1_545 S
C854 H845 0.930 . S
C854 C852 1.384 . S
C854 C855 1.372 . S
C855 C854 1.372 . S
C855 C856 1.400 1_545 S
C855 C860 1.490 . S
C856 H846 0.930 . S
C856 C855 1.400 1_565 S
C856 C859 1.386 . S
H857 C873 0.930 . S
H858 C874 0.931 . S
C859 H847 0.929 . S
C859 C853 1.390 1_565 S
C859 C856 1.386 . S
C860 C855 1.490 . S
C860 C862 1.395 1_545 S
C860 C863 1.403 . S
H861 C867 0.930 . S
C862 H848 0.930 . S
C862 C860 1.395 1_565 S
C862 C865 1.403 . S
C863 C860 1.403 . S
C863 C864 1.524 . S
C863 C867 1.400 . S
C864 H849 0.960 . S
C864 H850 0.960 . S
C864 H851 0.960 . S
C864 C863 1.524 . S
C865 C862 1.403 . S
C865 C866 1.392 1_565 S
C865 C869 1.495 . S
C866 C865 1.392 1_545 S
C866 C867 1.385 . S
C866 C868 1.478 . S
C867 H861 0.930 . S
C867 C863 1.400 . S
C867 C866 1.385 . S
C868 C866 1.478 . S
C868 C870 1.381 . S
C868 C874 1.383 1_545 S
C869 C865 1.495 . S
C869 H875 0.959 1_556 S
C869 H876 0.961 . S
C869 H877 0.960 1_565 S
C870 C868 1.381 . S
C870 C871 1.394 . S
C870 H878 0.930 . S
C871 C870 1.394 . S
C871 C872 1.383 . S
C871 H879 0.929 . S
C872 C871 1.383 . S
C872 C873 1.377 1_545 S
C873 H857 0.930 . S
C873 C872 1.377 1_565 S
C873 C874 1.379 . S
C874 H858 0.931 . S
C874 C868 1.383 1_565 S
C874 C873 1.379 . S
H875 C869 0.959 1_554 S
H876 C869 0.961 . S
H877 C869 0.960 1_545 S
H878 C870 0.930 . S
H879 C871 0.929 . S
H880 C888 0.929 . S
H881 C890 0.930 . S
H882 C892 0.930 . S
H883 C895 0.929 . S
H884 C898 0.930 . S
H885 C900 0.960 . S
H886 C900 0.960 . S
H887 C900 0.960 . S
C888 H880 0.929 . S
C888 C889 1.377 . S
C888 C890 1.384 . S
C889 C888 1.377 . S
C889 C895 1.390 . S
C890 H881 0.930 . S
C890 C888 1.384 . S
C890 C891 1.372 . S
C891 C890 1.372 . S
C891 C892 1.400 . S
C891 C896 1.490 . S
C892 H882 0.930 . S
C892 C891 1.400 . S
C892 C895 1.386 . S
H893 C909 0.930 . S
H894 C910 0.931 . S
C895 H883 0.929 . S
C895 C889 1.390 . S
C895 C892 1.386 . S
C896 C891 1.490 . S
C896 C898 1.395 . S
C896 C899 1.403 . S
H897 C903 0.930 . S
C898 H884 0.930 . S
C898 C896 1.395 . S
C898 C901 1.403 . S
C899 C896 1.403 . S
C899 C900 1.524 . S
C899 C903 1.400 . S
C900 H885 0.960 . S
C900 H886 0.960 . S
C900 H887 0.960 . S
C900 C899 1.524 . S
C901 C898 1.403 . S
C901 C902 1.392 . S
C901 C905 1.495 . S
C902 C901 1.392 . S
C902 C903 1.385 . S
C902 C904 1.478 . S
C903 H897 0.930 . S
C903 C899 1.400 . S
C903 C902 1.385 . S
C904 C902 1.478 . S
C904 C906 1.381 . S
C904 C910 1.383 . S
C905 C901 1.495 . S
C905 H911 0.959 1_556 S
C905 H912 0.961 . S
C905 H913 0.960 . S
C906 C904 1.381 . S
C906 C907 1.394 . S
C906 H914 0.930 . S
C907 C906 1.394 . S
C907 C908 1.383 . S
C907 H915 0.929 . S
C908 C907 1.383 . S
C908 C909 1.377 . S
C909 H893 0.930 . S
C909 C908 1.377 . S
C909 C910 1.379 . S
C910 H894 0.931 . S
C910 C904 1.383 . S
C910 C909 1.379 . S
H911 C905 0.959 1_554 S
H912 C905 0.961 . S
H913 C905 0.960 . S
H914 C906 0.930 . S
H915 C907 0.929 . S
H916 C924 0.929 . S
H917 C926 0.930 . S
H918 C928 0.930 . S
H919 C931 0.940 . S
H920 C934 0.930 . S
H921 C936 0.960 . S
H922 C936 0.960 . S
H923 C936 0.960 . S
C924 H916 0.929 . S
C924 C925 1.377 . S
C924 C926 1.384 . S
C925 C924 1.377 . S
C925 C931 1.390 . S
C926 H917 0.930 . S
C926 C924 1.384 . S
C926 C927 1.372 . S
C927 C926 1.372 . S
C927 C928 1.400 . S
C927 C932 1.490 . S
C928 H918 0.930 . S
C928 C927 1.400 . S
C928 C931 1.386 . S
H929 C945 0.930 . S
H930 C946 0.931 . S
C931 H919 0.940 . S
C931 C925 1.390 . S
C931 C928 1.386 . S
C932 C927 1.490 . S
C932 C934 1.395 . S
C932 C935 1.403 . S
H933 C939 0.930 . S
C934 H920 0.930 . S
C934 C932 1.395 . S
C934 C937 1.403 . S
C935 C932 1.403 . S
C935 C936 1.524 . S
C935 C939 1.400 . S
C936 H921 0.960 . S
C936 H922 0.960 . S
C936 H923 0.960 . S
C936 C935 1.524 . S
C937 C934 1.403 . S
C937 C938 1.392 . S
C937 C941 1.495 . S
C938 C937 1.392 . S
C938 C939 1.385 . S
C938 C940 1.478 . S
C939 H933 0.930 . S
C939 C935 1.400 . S
C939 C938 1.385 . S
C940 C938 1.478 . S
C940 C942 1.381 . S
C940 C946 1.383 . S
C941 C937 1.495 . S
C941 H947 0.959 . S
C941 H948 0.961 . S
C941 H949 0.960 . S
C942 C940 1.381 . S
C942 C943 1.394 . S
C942 H950 0.930 . S
C943 C942 1.394 . S
C943 C944 1.383 . S
C943 H951 0.929 . S
C944 C943 1.383 . S
C944 C945 1.377 . S
C945 H929 0.930 . S
C945 C944 1.377 . S
C945 C946 1.379 . S
C946 H930 0.931 . S
C946 C940 1.383 . S
C946 C945 1.379 . S
H947 C941 0.959 . S
H948 C941 0.961 . S
H949 C941 0.960 . S
H950 C942 0.930 . S
H951 C943 0.929 . S
H952 C960 0.929 . S
H953 C962 0.930 . S
H954 C964 0.930 . S
H955 C967 0.929 . S
H956 C970 0.930 . S
H957 C972 0.960 . S
H958 C972 0.960 . S
H959 C972 0.960 . S
C960 H952 0.929 . S
C960 C961 1.377 . S
C960 C962 1.384 . S
C961 C960 1.377 . S
C961 C967 1.390 . S
C962 H953 0.930 . S
C962 C960 1.384 . S
C962 C963 1.372 . S
C963 C962 1.372 . S
C963 C964 1.400 . S
C963 C968 1.490 . S
C964 H954 0.930 . S
C964 C963 1.400 . S
C964 C967 1.386 . S
H965 C981 0.930 . S
H966 C982 0.932 1_455 S
C967 H955 0.929 . S
C967 C961 1.390 . S
C967 C964 1.386 . S
C968 C963 1.490 . S
C968 C970 1.395 1_655 S
C968 C971 1.403 . S
H969 C975 0.930 . S
C970 H956 0.930 . S
C970 C968 1.395 1_455 S
C970 C973 1.403 . S
C971 C968 1.403 . S
C971 C972 1.524 . S
C971 C975 1.400 . S
C972 H957 0.960 . S
C972 H958 0.960 . S
C972 H959 0.960 . S
C972 C971 1.524 . S
C973 C970 1.403 . S
C973 C974 1.392 1_455 S
C973 C977 1.495 . S
C974 C973 1.392 1_655 S
C974 C975 1.385 . S
C974 C976 1.478 . S
C975 H969 0.930 . S
C975 C971 1.400 . S
C975 C974 1.385 . S
C976 C974 1.478 . S
C976 C978 1.381 . S
C976 C982 1.383 . S
C977 C973 1.495 . S
C977 H983 0.959 . S
C977 H984 0.961 . S
C977 H985 0.960 . S
C978 C976 1.381 . S
C978 C979 1.394 . S
C978 H986 0.930 . S
C979 C978 1.394 . S
C979 C980 1.383 . S
C979 H987 0.929 . S
C980 C979 1.383 . S
C980 C981 1.377 . S
C981 H965 0.930 . S
C981 C980 1.377 . S
C981 C982 1.379 . S
C982 H966 0.932 1_655 S
C982 C976 1.383 . S
C982 C981 1.379 . S
H983 C977 0.959 . S
H984 C977 0.961 . S
H985 C977 0.960 . S
H986 C978 0.930 . S
H987 C979 0.929 . S
H988 C996 0.929 . S
H989 C998 0.930 . S
H990 C1000 0.930 . S
H991 C1003 0.929 . S
H992 C1006 0.930 . S
H993 C1008 0.960 . S
H994 C1008 0.960 . S
H995 C1008 0.960 . S
C996 H988 0.929 . S
C996 C997 1.349 1_545 S
C996 C998 1.384 . S
C997 C996 1.349 1_565 S
C997 C1003 1.419 . S
C998 H989 0.930 . S
C998 C996 1.384 . S
C998 C999 1.372 1_545 S
C999 C998 1.372 1_565 S
C999 C1000 1.400 . S
C999 C1004 1.490 . S
C1000 H990 0.930 . S
C1000 C999 1.400 . S
C1000 C1003 1.386 . S
H1001 C1017 0.930 . S
H1002 C1018 0.931 . S
C1003 H991 0.929 . S
C1003 C997 1.419 . S
C1003 C1000 1.386 . S
C1004 C999 1.490 . S
C1004 C1006 1.395 1_565 S
C1004 C1007 1.403 . S
H1005 C1011 0.930 . S
C1006 H992 0.930 . S
C1006 C1004 1.395 1_545 S
C1006 C1009 1.403 . S
C1007 C1004 1.403 . S
C1007 C1008 1.524 . S
C1007 C1011 1.400 . S
C1008 H993 0.960 . S
C1008 H994 0.960 . S
C1008 H995 0.960 . S
C1008 C1007 1.524 . S
C1009 C1006 1.403 . S
C1009 C1010 1.392 1_545 S
C1009 C1013 1.495 . S
C1010 C1009 1.392 1_565 S
C1010 C1011 1.385 . S
C1010 C1012 1.478 . S
C1011 H1005 0.930 . S
C1011 C1007 1.400 . S
C1011 C1010 1.385 . S
C1012 C1010 1.478 . S
C1012 C1014 1.381 1_565 S
C1012 C1018 1.383 . S
C1013 C1009 1.495 . S
C1013 H1019 0.959 . S
C1013 H1020 0.961 . S
C1013 H1021 0.960 . S
C1014 C1012 1.381 1_545 S
C1014 C1015 1.394 . S
C1014 H1022 0.930 . S
C1015 C1014 1.394 . S
C1015 C1016 1.383 1_545 S
C1015 H1023 0.929 . S
C1016 C1015 1.383 1_565 S
C1016 C1017 1.377 . S
C1017 H1001 0.930 . S
C1017 C1016 1.377 . S
C1017 C1018 1.379 . S
C1018 H1002 0.931 . S
C1018 C1012 1.383 . S
C1018 C1017 1.379 . S
H1019 C1013 0.959 . S
H1020 C1013 0.961 . S
H1021 C1013 0.960 . S
H1022 C1014 0.930 . S
H1023 C1015 0.929 . S
H1024 C1032 0.929 . S
H1025 C1034 0.930 . S
H1026 C1036 0.930 . S
H1027 C1039 0.929 . S
H1028 C1042 0.930 . S
H1029 C1044 0.960 . S
H1030 C1044 0.960 . S
H1031 C1044 0.960 . S
C1032 H1024 0.929 . S
C1032 C1033 1.377 . S
C1032 C1034 1.384 . S
C1033 C1032 1.377 . S
C1033 C1039 1.390 . S
C1034 H1025 0.930 . S
C1034 C1032 1.384 . S
C1034 C1035 1.372 . S
C1035 C1034 1.372 . S
C1035 C1036 1.400 . S
C1035 C1040 1.490 . S
C1036 H1026 0.930 . S
C1036 C1035 1.400 . S
C1036 C1039 1.386 . S
H1037 C1053 0.930 . S
H1038 C1054 0.931 . S
C1039 H1027 0.929 . S
C1039 C1033 1.390 . S
C1039 C1036 1.386 . S
C1040 C1035 1.490 . S
C1040 C1042 1.395 . S
C1040 C1043 1.403 . S
H1041 C1047 0.930 . S
C1042 H1028 0.930 . S
C1042 C1040 1.395 . S
C1042 C1045 1.403 . S
C1043 C1040 1.403 . S
C1043 C1044 1.524 . S
C1043 C1047 1.400 . S
C1044 H1029 0.960 . S
C1044 H1030 0.960 . S
C1044 H1031 0.960 . S
C1044 C1043 1.524 . S
C1045 C1042 1.403 . S
C1045 C1046 1.392 . S
C1045 C1049 1.495 . S
C1046 C1045 1.392 . S
C1046 C1047 1.385 . S
C1046 C1048 1.478 . S
C1047 H1041 0.930 . S
C1047 C1043 1.400 . S
C1047 C1046 1.385 . S
C1048 C1046 1.478 . S
C1048 C1050 1.381 . S
C1048 C1054 1.383 . S
C1049 C1045 1.495 . S
C1049 H1055 0.959 . S
C1049 H1056 0.961 . S
C1049 H1057 0.960 . S
C1050 C1048 1.381 . S
C1050 C1051 1.394 . S
C1050 H1058 0.930 . S
C1051 C1050 1.394 . S
C1051 C1052 1.383 . S
C1051 H1059 0.929 . S
C1052 C1051 1.383 . S
C1052 C1053 1.377 . S
C1053 H1037 0.930 . S
C1053 C1052 1.377 . S
C1053 C1054 1.379 . S
C1054 H1038 0.931 . S
C1054 C1048 1.383 . S
C1054 C1053 1.379 . S
H1055 C1049 0.959 . S
H1056 C1049 0.961 . S
H1057 C1049 0.960 . S
H1058 C1050 0.930 . S
H1059 C1051 0.929 . S
H1060 C1068 0.929 . S
H1061 C1070 0.930 . S
H1062 C1072 0.930 . S
H1063 C1075 0.929 . S
H1064 C1078 0.930 . S
H1065 C1080 0.960 . S
H1066 C1080 0.960 . S
H1067 C1080 0.960 . S
C1068 H1060 0.929 . S
C1068 C1069 1.377 . S
C1068 C1070 1.384 . S
C1069 C1068 1.377 . S
C1069 C1075 1.390 . S
C1070 H1061 0.930 . S
C1070 C1068 1.384 . S
C1070 C1071 1.372 . S
C1071 C1070 1.372 . S
C1071 C1072 1.400 . S
C1071 C1076 1.490 . S
C1072 H1062 0.930 . S
C1072 C1071 1.400 . S
C1072 C1075 1.386 . S
H1073 C1089 0.930 . S
H1074 C1090 0.931 . S
C1075 H1063 0.929 . S
C1075 C1069 1.390 . S
C1075 C1072 1.386 . S
C1076 C1071 1.490 . S
C1076 C1078 1.395 . S
C1076 C1079 1.403 . S
H1077 C1083 0.930 . S
C1078 H1064 0.930 . S
C1078 C1076 1.395 . S
C1078 C1081 1.403 . S
C1079 C1076 1.403 . S
C1079 C1080 1.524 . S
C1079 C1083 1.400 . S
C1080 H1065 0.960 . S
C1080 H1066 0.960 . S
C1080 H1067 0.960 . S
C1080 C1079 1.524 . S
C1081 C1078 1.403 . S
C1081 C1082 1.392 . S
C1081 C1085 1.495 . S
C1082 C1081 1.392 . S
C1082 C1083 1.385 . S
C1082 C1084 1.478 . S
C1083 H1077 0.930 . S
C1083 C1079 1.400 . S
C1083 C1082 1.385 . S
C1084 C1082 1.478 . S
C1084 C1086 1.381 . S
C1084 C1090 1.383 . S
C1085 C1081 1.495 . S
C1085 H1091 0.959 . S
C1085 H1092 0.961 . S
C1085 H1093 0.960 . S
C1086 C1084 1.381 . S
C1086 C1087 1.394 . S
C1086 H1094 0.930 . S
C1087 C1086 1.394 . S
C1087 C1088 1.383 . S
C1087 H1095 0.929 . S
C1088 C1087 1.383 . S
C1088 C1089 1.377 . S
C1089 H1073 0.930 . S
C1089 C1088 1.377 . S
C1089 C1090 1.379 . S
C1090 H1074 0.931 . S
C1090 C1084 1.383 . S
C1090 C1089 1.379 . S
H1091 C1085 0.959 . S
H1092 C1085 0.961 . S
H1093 C1085 0.960 . S
H1094 C1086 0.930 . S
H1095 C1087 0.929 . S
C241 C61 1.666 . S
C260 C90 1.744 1_545 S
C296 C130 1.761 . S
C277 C70 1.682 . S
C332 C170 1.765 . S
C313 C43 1.684 . S
C368 C210 1.754 1_455 S
C349 C52 1.680 . S
C404 C80 1.754 . S
C385 C25 1.666 . S
C421 C34 1.693 . S
C440 C120 1.773 . S
C457 C7 1.681 . S
C476 C160 1.779 . S
C493 C16 1.670 . S
C512 C200 1.760 . S
C548 C77 0.183 . S
C529 C50 0.216 1_455 S
C584 C117 0.264 . S
C565 C59 0.235 1_545 S
C620 C157 0.265 . S
C601 C67 0.228 . S
C637 C41 0.229 . S
C656 C197 0.255 . S
C673 C14 0.219 . S
C692 C87 0.353 . S
C728 C127 0.237 . S
C709 C23 0.223 . S
C764 C167 0.356 . S
C745 C31 0.237 . S
C781 C5 0.206 . S
C800 C207 0.320 . S
C817 C49 1.844 1_455 S
C836 C81 1.999 . S
C853 C58 1.807 1_545 S
C872 C121 1.961 . S
C908 C161 1.954 . S
C889 C68 1.794 . S
C944 C201 1.998 . S
C925 C40 1.823 . S
C961 C13 1.843 . S
C980 C91 2.003 . S
C1016 C131 1.961 . S
C997 C22 1.812 . S
C1052 C171 1.962 . S
C1033 C32 1.790 . S
C1069 C4 1.822 . S
C1088 C211 1.989 . S
