# Generated by pormake.
# Topology pts, (4,4)-cn, num edge types: 1
# Building blocks:
#     Node 0, Type 0, BuildingBlock: KUFVIS_clean_linker_0, # of connection points: 4
#     Node 1, Type 0, BuildingBlock: KUFVIS_clean_linker_0, # of connection points: 4
#     Node 2, Type 1, BuildingBlock: QUQFOY_clean_sbu_1, # of connection points: 4
#     Node 3, Type 1, BuildingBlock: QUQFOY_clean_sbu_1, # of connection points: 4
#     Edge 4, Type (0, 1), BuildingBlock: XUDNAN_clean_linker_2, # of connection points: 2
#     Edge 5, Type (0, 1), BuildingBlock: XUDNAN_clean_linker_2, # of connection points: 2
#     Edge 6, Type (0, 1), BuildingBlock: XUDNAN_clean_linker_2, # of connection points: 2
#     Edge 7, Type (0, 1), BuildingBlock: XUDNAN_clean_linker_2, # of connection points: 2
#     Edge 8, Type (0, 1), BuildingBlock: XUDNAN_clean_linker_2, # of connection points: 2
#     Edge 9, Type (0, 1), BuildingBlock: XUDNAN_clean_linker_2, # of connection points: 2
#     Edge 10, Type (0, 1), BuildingBlock: XUDNAN_clean_linker_2, # of connection points: 2
#     Edge 11, Type (0, 1), BuildingBlock: XUDNAN_clean_linker_2, # of connection points: 2
# Relax obj value: 0.103
# Max RMSD: 0.273
# Mean RMSD: 0.186
data_MOF--net-pts--node1-QUQFOY_clean_sbu_1--node2-KUFVIS_clean_linker_0--edge1-XUDNAN_clean_linker_2
_symmetry_space_group_name_H-M    P1
_symmetry_Int_Tables_number       1
_symmetry_cell_setting            triclinic
loop_
_symmetry_equiv_pos_as_xyz
'x, y, z'
_cell_length_a     24.452057
_cell_length_b     26.699995
_cell_length_c     36.518429
_cell_angle_alpha  90.157129
_cell_angle_beta   89.93552
_cell_angle_gamma 90.040507
loop_
_atom_site_label
_atom_site_type_symbol
_atom_site_fract_x
_atom_site_fract_y
_atom_site_fract_z
_atom_type_partial_charge
H0 H 0.31627 1.01354 -0.00812 0.0
H1 H 0.46853 0.03907 0.93738 0.0
H2 H 0.46498 0.99819 0.05223 0.0
H3 H 0.54234 0.03813 0.05442 0.0
H4 H 0.69645 0.02883 -0.00076 0.0
H5 H 0.54939 1.00464 0.93845 0.0
C6 C 0.36062 1.01469 -0.00733 0.0
C7 C 0.38771 1.00686 0.02583 0.0
C8 C 0.38993 0.02467 0.96065 0.0
C9 C 0.44705 0.02858 0.96209 0.0
C10 C 0.47571 1.01873 -0.00508 0.0
C11 C 0.44502 1.00677 0.0266 0.0
C12 C 0.53703 0.02154 -0.00384 0.0
C13 C 0.56471 0.03141 0.02933 0.0
C14 C 0.62202 0.03303 0.03073 0.0
C15 C 0.65212 0.028 -0.00169 0.0
C16 C 0.62578 1.01873 0.96498 0.0
C17 C 0.56864 1.01409 0.9642 0.0
H18 H 0.98598 0.69331 0.49505 0.0
H19 H 0.03611 0.55556 0.54499 0.0
H20 H 0.97527 0.55653 0.43384 0.0
H21 H 0.0377 0.48604 0.43324 0.0
H22 H 0.02805 0.34852 0.49316 0.0
H23 H 0.97792 0.48566 0.54465 0.0
C24 C 0.99285 0.65324 0.49352 0.0
C25 C 0.98005 0.62814 0.46099 0.0
C26 C 0.01319 0.62771 0.52399 0.0
C27 C 0.01961 0.57551 0.5217 0.0
C28 C 1.00524 0.54889 0.48957 0.0
C29 C 0.98658 0.57593 0.4588 0.0
C30 C 0.00836 0.49296 0.48923 0.0
C31 C 0.02668 0.4663 0.45806 0.0
C32 C 0.03333 0.41406 0.45964 0.0
C33 C 0.02105 0.38856 0.49205 0.0
C34 C 1.00105 0.41377 0.52293 0.0
C35 C 0.99434 0.46596 0.52113 0.0
O36 O 0.93035 0.98784 0.22342 0.0
Cd37 Cd 1.00105 0.97156 0.252 0.0
Cd38 Cd 0.01088 0.08021 0.24137 0.0
O39 O 0.93454 0.07043 0.21893 0.0
O40 O 0.99539 0.89762 0.25985 0.0
O41 O 0.99045 0.95284 0.30499 0.0
C42 C 0.98858 0.90681 0.29414 0.0
C43 C 0.02647 0.14401 0.28368 0.0
C44 C 0.90973 0.0293 0.21343 0.0
C45 C 0.09931 1.0142 0.21079 0.0
O46 O 0.07742 0.05736 0.21137 0.0
O47 O 0.07704 0.97738 0.22708 0.0
O48 O 0.01865 0.15394 0.24957 0.0
O49 O 0.02417 0.09781 0.29406 0.0
O50 O 0.93403 0.05806 0.77424 0.0
Cd51 Cd 1.00191 0.07935 0.74439 0.0
Cd52 Cd 0.0129 0.96548 0.74381 0.0
O53 O 0.93726 0.97566 0.76762 0.0
O54 O 0.9962 0.15386 0.74447 0.0
O55 O 0.99257 0.10874 0.6938 0.0
C56 C 0.99183 0.15221 0.70939 0.0
C57 C 0.02141 0.89179 0.70918 0.0
C58 C 0.91346 1.01489 0.77924 0.0
C59 C 0.10342 0.03024 0.77648 0.0
O60 O 0.08261 0.9871 0.77154 0.0
O61 O 0.0788 0.06958 0.76612 0.0
O62 O 0.01855 0.89091 0.74434 0.0
O63 O 0.01979 0.93491 0.69328 0.0
H64 H 0.30983 0.0704 0.0507 0.0
H65 H 0.3919 0.93118 0.0766 0.0
H66 H 0.33031 0.91979 0.1301 0.0
H67 H 0.28579 0.11068 0.14563 0.0
H68 H 0.22023 0.13752 0.13464 0.0
H69 H 0.27364 0.1359 0.10063 0.0
H70 H 0.20879 0.08895 0.05608 0.0
H71 H 0.15533 0.09021 0.08994 0.0
H72 H 0.17705 0.03133 0.07055 0.0
H73 H 0.25282 0.92026 0.17672 0.0
H74 H 0.17034 0.93469 0.21463 0.0
H75 H 0.14249 0.07539 0.15843 0.0
C76 C 0.31517 0.0378 0.06794 0.0
C77 C 0.35518 1.00148 0.0597 0.0
C78 C 0.36147 0.95943 0.08277 0.0
C79 C 0.32668 0.9527 0.11305 0.0
C80 C 0.28668 0.98884 0.11996 0.0
C81 C 0.28139 0.03089 0.09827 0.0
C82 C 0.23426 0.06346 0.11052 0.0
C83 C 0.25472 0.11493 0.12364 0.0
C84 C 0.19133 0.06876 0.07996 0.0
C85 C 0.21275 0.03263 0.14201 0.0
C86 C 0.24343 0.98975 0.14716 0.0
C87 C 0.22905 0.9541 0.17328 0.0
C88 C 0.18205 0.96252 0.19457 0.0
C89 C 0.15024 1.00636 0.18968 0.0
C90 C 0.16637 0.04191 0.16326 0.0
H91 H 0.96028 0.31798 0.5299 0.0
H92 H 0.01986 0.44398 0.59403 0.0
H93 H 0.01411 0.39259 0.64987 0.0
H94 H 0.87152 0.26087 0.59994 0.0
H95 H 0.89103 0.19823 0.58686 0.0
H96 H 0.89014 0.24741 0.55316 0.0
H97 H 0.99129 0.22842 0.53711 0.0
H98 H 0.99267 0.17951 0.57086 0.0
H99 H 0.04202 0.22962 0.57289 0.0
H100 H 0.01069 0.32529 0.69769 0.0
H101 H 0.01213 0.24716 0.73352 0.0
H102 H 0.96319 0.16315 0.63702 0.0
C103 C 0.97179 0.33514 0.55565 0.0
C104 C 0.99053 0.3853 0.55733 0.0
C105 C 1.00435 0.4061 0.59188 0.0
C106 C 1.00156 0.37704 0.6238 0.0
C107 C 0.98509 0.3272 0.62077 0.0
C108 C 0.97042 0.30643 0.58755 0.0
C109 C 0.95954 0.25075 0.59094 0.0
C110 C 0.89948 0.23862 0.58221 0.0
C111 C 0.99872 0.22031 0.56651 0.0
C112 C 0.97181 0.24311 0.63114 0.0
C113 C 0.98541 0.28786 0.64799 0.0
C114 C 0.9997 0.29013 0.68485 0.0
C115 C 1.00045 0.24549 0.70494 0.0
C116 C 0.98786 0.19905 0.68803 0.0
C117 C 0.97302 0.19806 0.65069 0.0
H118 H 0.70905 0.09256 0.04968 0.0
H119 H 0.6019 0.97618 0.09102 0.0
H120 H 0.6594 0.96863 0.14626 0.0
H121 H 0.8303 0.03856 0.07519 0.0
H122 H 0.86471 0.09552 0.0884 0.0
H123 H 0.81092 0.09741 0.0549 0.0
H124 H 0.75841 0.16271 0.09401 0.0
H125 H 0.81242 0.16147 0.12757 0.0
H126 H 0.74287 0.14904 0.14121 0.0
H127 H 0.73655 0.96325 0.19081 0.0
H128 H 0.82337 0.96693 0.2254 0.0
H129 H 0.87801 0.09013 0.15741 0.0
C130 C 0.69701 0.06646 0.07087 0.0
C131 C 0.65098 0.03512 0.06628 0.0
C132 C 0.63656 1.00107 0.09434 0.0
C133 C 0.66909 0.99638 0.1257 0.0
C134 C 0.71529 0.02665 0.12883 0.0
C135 C 0.72866 0.06177 0.10255 0.0
C136 C 0.78231 0.08744 0.1114 0.0
C137 C 0.82453 0.07921 0.08065 0.0
C138 C 0.77345 0.14349 0.11901 0.0
C139 C 0.79814 0.05978 0.14593 0.0
C140 C 0.75887 0.0249 0.15555 0.0
C141 C 0.76691 0.99131 0.18418 0.0
C142 C 0.81638 0.99344 0.2035 0.0
C143 C 0.85673 0.02929 0.19433 0.0
C144 C 0.8471 0.06326 0.16552 0.0
H145 H 0.05567 0.72272 0.53099 0.0
H146 H 0.99397 0.59801 0.59508 0.0
H147 H 0.99911 0.65017 0.65085 0.0
H148 H 0.14336 0.78072 0.60165 0.0
H149 H 0.12438 0.84314 0.58796 0.0
H150 H 0.12601 0.79329 0.5546 0.0
H151 H 0.02537 0.8123 0.53739 0.0
H152 H 0.02319 0.8618 0.57085 0.0
H153 H 0.97368 0.81181 0.57263 0.0
H154 H 1.00165 0.71853 0.69842 0.0
H155 H 0.99974 0.79743 0.73373 0.0
H156 H 0.05108 0.87933 0.63711 0.0
C157 C 0.04369 0.70599 0.55674 0.0
C158 C 0.02431 0.65605 0.55845 0.0
C159 C 0.00987 0.63574 0.59296 0.0
C160 C 0.01231 0.66525 0.62482 0.0
C161 C 0.02913 0.71499 0.62172 0.0
C162 C 0.04468 0.73515 0.58853 0.0
C163 C 0.05561 0.79085 0.59168 0.0
C164 C 0.11593 0.80268 0.58349 0.0
C165 C 0.01716 0.82094 0.56666 0.0
C166 C 0.04231 0.79929 0.63168 0.0
C167 C 0.02822 0.75489 0.6487 0.0
C168 C 0.01303 0.75341 0.68543 0.0
C169 C 0.012 0.79846 0.70523 0.0
C170 C 0.02514 0.84453 0.68812 0.0
C171 C 0.04074 0.84473 0.6509 0.0
H172 H 0.31604 0.96026 0.9314 0.0
H173 H 0.39499 0.10325 0.91258 0.0
H174 H 0.33537 0.11717 0.85863 0.0
H175 H 0.29433 0.92732 0.8336 0.0
H176 H 0.22915 0.89861 0.84321 0.0
H177 H 0.28247 0.89783 0.87724 0.0
H178 H 0.21673 0.93951 0.92397 0.0
H179 H 0.16341 0.94072 0.89013 0.0
H180 H 0.18421 0.99795 0.91242 0.0
H181 H 0.25851 0.11997 0.81249 0.0
H182 H 0.17477 0.10938 0.77535 0.0
H183 H 0.1491 0.96279 0.82343 0.0
C184 C 0.3214 0.99405 0.91543 0.0
C185 C 0.35985 0.03076 0.92589 0.0
C186 C 0.36594 0.07459 0.90461 0.0
C187 C 0.33225 0.08276 0.87408 0.0
C188 C 0.29358 0.04629 0.86504 0.0
C189 C 0.28864 1.00245 0.88482 0.0
C190 C 0.242 0.97043 0.87095 0.0
C191 C 0.26328 0.9206 0.85531 0.0
C192 C 0.19907 0.96168 0.90116 0.0
C193 C 0.22009 1.00381 0.84103 0.0
C194 C 0.25045 0.04732 0.83789 0.0
C195 C 0.23513 0.08562 0.81418 0.0
C196 C 0.18742 0.07937 0.79334 0.0
C197 C 0.15581 0.03505 0.79626 0.0
C198 C 0.17303 0.99662 0.82003 0.0
H199 H 0.9839 0.3992 0.39324 0.0
H200 H 0.12506 0.35756 0.45785 0.0
H201 H 0.14339 0.28697 0.41591 0.0
H202 H 0.93591 0.28285 0.378 0.0
H203 H 0.9141 0.29054 0.33121 0.0
H204 H 0.91768 0.34402 0.36114 0.0
H205 H 0.98265 0.38938 0.3161 0.0
H206 H 0.97814 0.33656 0.28537 0.0
H207 H 0.04404 0.35842 0.3007 0.0
H208 H 0.13355 0.21126 0.37693 0.0
H209 H 0.10705 0.14285 0.33466 0.0
H210 H 0.9769 0.23532 0.29124 0.0
C211 C 0.02029 0.37679 0.39723 0.0
C212 C 0.05356 0.38398 0.42838 0.0
C213 C 0.09969 0.35287 0.43377 0.0
C214 C 0.11018 0.31255 0.41024 0.0
C215 C 0.07472 0.30441 0.38103 0.0
C216 C 0.0317 0.33649 0.37363 0.0
C217 C 0.99748 0.31685 0.34203 0.0
C218 C 0.93778 0.30805 0.35383 0.0
C219 C 1.0008 0.35242 0.30909 0.0
C220 C 0.02643 0.26776 0.33413 0.0
C221 C 0.07074 0.26128 0.35709 0.0
C222 C 0.10008 0.21652 0.35797 0.0
C223 C 0.08444 0.17773 0.33423 0.0
C224 C 0.04052 0.1843 0.30961 0.0
C225 C 0.01138 0.22995 0.30941 0.0
H226 H 0.70569 0.08085 0.93964 0.0
H227 H 0.62069 0.94228 0.91496 0.0
H228 H 0.68126 0.92892 0.86141 0.0
H229 H 0.72955 0.11856 0.84402 0.0
H230 H 0.79592 0.14444 0.85424 0.0
H231 H 0.74309 0.14467 0.88868 0.0
H232 H 0.80751 0.09761 0.93318 0.0
H233 H 0.86041 0.09712 0.89891 0.0
H234 H 0.8377 0.03911 0.91899 0.0
H235 H 0.75747 0.92653 0.81495 0.0
H236 H 0.84002 0.93764 0.77666 0.0
H237 H 0.87236 0.07979 0.83033 0.0
C238 C 0.69951 0.04801 0.92266 0.0
C239 C 0.65869 1.01254 0.93125 0.0
C240 C 0.65151 0.97005 0.90851 0.0
C241 C 0.68575 0.96214 0.87818 0.0
C242 C 0.72629 0.99749 0.8708 0.0
C243 C 0.73283 0.03989 0.89214 0.0
C244 C 0.78057 0.07129 0.87918 0.0
C245 C 0.7611 0.12279 0.86572 0.0
C246 C 0.82411 0.07656 0.90936 0.0
C247 C 0.80087 0.03927 0.84776 0.0
C248 C 0.76903 0.99688 0.84333 0.0
C249 C 0.78214 0.95999 0.81773 0.0
C250 C 0.82916 0.96653 0.79623 0.0
C251 C 0.86218 1.0098 0.8003 0.0
C252 C 0.84729 0.04682 0.8261 0.0
H253 H 0.03064 0.64625 0.39557 0.0
H254 H 0.88716 0.68291 0.45983 0.0
H255 H 0.86969 0.75608 0.42045 0.0
H256 H 0.07847 0.76314 0.38559 0.0
H257 H 0.10177 0.7589 0.33884 0.0
H258 H 0.09748 0.70333 0.36639 0.0
H259 H 0.03401 0.66102 0.3188 0.0
H260 H 0.03944 0.71588 0.29034 0.0
H261 H 0.97309 0.69296 0.30386 0.0
H262 H 0.8808 0.83462 0.38487 0.0
H263 H 0.90791 0.90551 0.34521 0.0
H264 H 0.03957 0.81612 0.29987 0.0
C265 C 0.99387 0.66809 0.39986 0.0
C266 C 0.95971 0.65877 0.43026 0.0
C267 C 0.91312 0.68918 0.4362 0.0
C268 C 0.90318 0.73099 0.41419 0.0
C269 C 0.93963 0.74127 0.38588 0.0
C270 C 0.98298 0.70982 0.37773 0.0
C271 C 0.01817 0.73164 0.34746 0.0
C272 C 0.07746 0.73972 0.36037 0.0
C273 C 0.01603 0.6984 0.31307 0.0
C274 C 0.98936 0.78116 0.34123 0.0
C275 C 0.94435 0.78605 0.36387 0.0
C276 C 0.91485 0.83066 0.36614 0.0
C277 C 0.93089 0.87087 0.34394 0.0
C278 C 0.97535 0.86582 0.31948 0.0
C279 C 1.00482 0.8204 0.31803 0.0
loop_
_geom_bond_atom_site_label_1
_geom_bond_atom_site_label_2
_geom_bond_distance
_geom_bond_site_symmetry_2
_ccdc_geom_bond_type
H0 C6 0.929 1_565 S
H1 C9 0.931 . S
H2 C11 0.929 1_565 S
H3 C13 0.930 . S
H4 C15 0.930 . S
H5 C17 0.928 1_565 S
C6 H0 0.929 1_545 S
C6 C7 1.379 1_545 S
C6 C8 1.394 1_554 S
C7 C6 1.379 1_565 S
C7 C11 1.381 1_565 S
C8 C6 1.394 1_556 S
C8 C9 1.400 . S
C9 H1 0.931 . S
C9 C8 1.400 . S
C9 C10 1.375 1_556 S
C10 C9 1.375 1_554 S
C10 C11 1.417 . S
C10 C12 1.501 . S
C11 H2 0.929 1_545 S
C11 C7 1.381 1_545 S
C11 C10 1.417 . S
C12 C10 1.501 . S
C12 C13 1.384 . S
C12 C17 1.411 1_554 S
C13 H3 0.930 . S
C13 C12 1.384 . S
C13 C14 1.389 . S
C14 C13 1.389 . S
C14 C15 1.405 . S
C15 H4 0.930 . S
C15 C14 1.405 . S
C15 C16 1.366 1_554 S
C16 C15 1.366 1_556 S
C16 C17 1.400 . S
C17 H5 0.928 1_545 S
C17 C12 1.411 1_556 S
C17 C16 1.400 . S
H18 C24 0.930 . S
H19 C27 0.931 . S
H20 C29 0.931 . S
H21 C31 0.930 . S
H22 C33 0.930 . S
H23 C35 0.931 . S
C24 H18 0.930 . S
C24 C25 1.380 . S
C24 C26 1.394 1_455 S
C25 C24 1.380 . S
C25 C29 1.382 . S
C26 C24 1.394 1_655 S
C26 C27 1.400 . S
C27 H19 0.931 . S
C27 C26 1.400 . S
C27 C28 1.375 . S
C28 C27 1.375 . S
C28 C29 1.415 1_655 S
C28 C30 1.501 . S
C29 H20 0.931 . S
C29 C25 1.382 . S
C29 C28 1.415 1_455 S
C30 C28 1.501 . S
C30 C31 1.384 . S
C30 C35 1.408 1_655 S
C31 H21 0.930 . S
C31 C30 1.384 . S
C31 C32 1.389 . S
C32 C31 1.389 . S
C32 C33 1.405 . S
C33 H22 0.930 . S
C33 C32 1.405 . S
C33 C34 1.364 1_655 S
C34 C33 1.364 1_455 S
C34 C35 1.400 . S
C35 H23 0.931 . S
C35 C30 1.408 1_455 S
C35 C34 1.400 . S
O36 Cd37 2.223 1_655 S
O36 C44 1.315 . S
Cd37 O36 2.223 1_455 S
Cd37 O40 2.297 1_455 S
Cd37 O41 2.439 1_455 S
Cd37 O47 2.240 1_565 S
Cd38 O39 2.240 1_545 S
Cd38 O46 2.223 1_655 S
Cd38 O48 2.297 1_655 S
Cd38 O49 2.439 1_655 S
O39 Cd38 2.240 1_565 S
O39 C44 1.279 . S
O40 Cd37 2.297 1_655 S
O40 C42 1.247 . S
O41 Cd37 2.439 1_655 S
O41 C42 1.208 . S
C42 O40 1.247 . S
C42 O41 1.208 . S
C43 O48 1.247 . S
C43 O49 1.208 . S
C44 O36 1.315 . S
C44 O39 1.279 . S
C45 O46 1.315 . S
C45 O47 1.279 . S
O46 Cd38 2.223 1_455 S
O46 C45 1.315 . S
O47 Cd37 2.240 1_545 S
O47 C45 1.279 . S
O48 Cd38 2.297 1_455 S
O48 C43 1.247 . S
O49 Cd38 2.439 1_455 S
O49 C43 1.208 . S
O50 Cd51 2.223 1_655 S
O50 C58 1.315 . S
Cd51 O50 2.223 1_455 S
Cd51 O54 2.297 1_455 S
Cd51 O55 2.439 1_455 S
Cd51 O61 2.240 1_545 S
Cd52 O53 2.240 1_565 S
Cd52 O60 2.223 1_655 S
Cd52 O62 2.297 1_655 S
Cd52 O63 2.439 1_655 S
O53 Cd52 2.240 1_545 S
O53 C58 1.279 . S
O54 Cd51 2.297 1_655 S
O54 C56 1.247 . S
O55 Cd51 2.439 1_655 S
O55 C56 1.208 . S
C56 O54 1.247 . S
C56 O55 1.208 . S
C57 O62 1.247 . S
C57 O63 1.208 . S
C58 O50 1.315 . S
C58 O53 1.279 . S
C59 O60 1.315 . S
C59 O61 1.279 . S
O60 Cd52 2.223 1_455 S
O60 C59 1.315 . S
O61 Cd51 2.240 1_565 S
O61 C59 1.279 . S
O62 Cd52 2.297 1_455 S
O62 C57 1.247 . S
O63 Cd52 2.439 1_455 S
O63 C57 1.208 . S
H64 C76 0.930 . S
H65 C78 0.930 . S
H66 C79 0.930 . S
H67 C83 0.959 . S
H68 C83 0.959 . S
H69 C83 0.961 . S
H70 C84 0.960 . S
H71 C84 0.961 . S
H72 C84 0.959 . S
H73 C87 0.929 . S
H74 C88 0.931 . S
H75 C90 0.930 . S
C76 H64 0.930 . S
C76 C77 1.399 1_545 S
C76 C81 1.399 . S
C77 C76 1.399 1_565 S
C77 C78 1.376 . S
C78 H65 0.930 . S
C78 C77 1.376 . S
C78 C79 1.388 . S
C79 H66 0.930 . S
C79 C78 1.388 . S
C79 C80 1.390 . S
C80 C79 1.390 . S
C80 C81 1.394 1_565 S
C80 C86 1.465 . S
C81 C76 1.399 . S
C81 C80 1.394 1_545 S
C81 C82 1.516 . S
C82 C81 1.516 . S
C82 C83 1.502 . S
C82 C84 1.561 . S
C82 C85 1.526 . S
C83 H67 0.959 . S
C83 H68 0.959 . S
C83 H69 0.961 . S
C83 C82 1.502 . S
C84 H70 0.960 . S
C84 H71 0.961 . S
C84 H72 0.959 . S
C84 C82 1.561 . S
C85 C82 1.526 . S
C85 C86 1.396 1_545 S
C85 C90 1.390 . S
C86 C80 1.465 . S
C86 C85 1.396 1_565 S
C86 C87 1.399 . S
C87 H73 0.929 . S
C87 C86 1.399 . S
C87 C88 1.385 . S
C88 H74 0.931 . S
C88 C87 1.385 . S
C88 C89 1.389 1_565 S
C89 C88 1.389 1_545 S
C89 C90 1.387 . S
C90 H75 0.930 . S
C90 C85 1.390 . S
C90 C89 1.387 . S
H91 C103 0.930 . S
H92 C105 0.930 . S
H93 C106 0.930 . S
H94 C110 0.959 . S
H95 C110 0.959 . S
H96 C110 0.961 . S
H97 C111 0.960 . S
H98 C111 0.961 . S
H99 C111 0.959 1_455 S
H100 C114 0.929 . S
H101 C115 0.936 . S
H102 C117 0.930 . S
C103 H91 0.930 . S
C103 C104 1.399 1_655 S
C103 C108 1.399 . S
C104 C103 1.399 1_455 S
C104 C105 1.376 . S
C105 H92 0.930 . S
C105 C104 1.376 . S
C105 C106 1.388 . S
C106 H93 0.930 . S
C106 C105 1.388 . S
C106 C107 1.390 . S
C107 C106 1.390 . S
C107 C108 1.394 1_455 S
C107 C113 1.465 . S
C108 C103 1.399 . S
C108 C107 1.394 1_655 S
C108 C109 1.516 . S
C109 C108 1.516 . S
C109 C110 1.502 . S
C109 C111 1.561 . S
C109 C112 1.526 . S
C110 H94 0.959 . S
C110 H95 0.959 . S
C110 H96 0.961 . S
C110 C109 1.502 . S
C111 H97 0.960 . S
C111 H98 0.961 . S
C111 H99 0.959 1_655 S
C111 C109 1.561 . S
C112 C109 1.526 . S
C112 C113 1.395 1_655 S
C112 C117 1.390 . S
C113 C107 1.465 . S
C113 C112 1.395 1_455 S
C113 C114 1.399 . S
C114 H100 0.929 . S
C114 C113 1.399 . S
C114 C115 1.390 . S
C115 H101 0.936 . S
C115 C114 1.390 . S
C115 C116 1.380 1_455 S
C116 C115 1.380 1_655 S
C116 C117 1.387 . S
C117 H102 0.930 . S
C117 C112 1.390 . S
C117 C116 1.387 . S
H118 C130 0.930 . S
H119 C132 0.930 . S
H120 C133 0.930 . S
H121 C137 0.959 . S
H122 C137 0.959 . S
H123 C137 0.961 . S
H124 C138 0.960 . S
H125 C138 0.961 . S
H126 C138 0.959 . S
H127 C141 0.929 . S
H128 C142 0.931 . S
H129 C144 0.930 . S
C130 H118 0.930 . S
C130 C131 1.399 . S
C130 C135 1.399 . S
C131 C130 1.399 . S
C131 C132 1.376 1_545 S
C132 H119 0.930 . S
C132 C131 1.376 1_565 S
C132 C133 1.388 . S
C133 H120 0.930 . S
C133 C132 1.388 . S
C133 C134 1.390 . S
C134 C133 1.390 . S
C134 C135 1.394 1_565 S
C134 C140 1.465 . S
C135 C130 1.399 . S
C135 C134 1.394 1_545 S
C135 C136 1.516 . S
C136 C135 1.516 . S
C136 C137 1.502 . S
C136 C138 1.561 . S
C136 C139 1.526 . S
C137 H121 0.959 . S
C137 H122 0.959 . S
C137 H123 0.961 . S
C137 C136 1.502 . S
C138 H124 0.960 . S
C138 H125 0.961 . S
C138 H126 0.959 . S
C138 C136 1.561 . S
C139 C136 1.526 . S
C139 C140 1.396 1_545 S
C139 C144 1.390 . S
C140 C134 1.465 . S
C140 C139 1.396 1_565 S
C140 C141 1.399 . S
C141 H127 0.929 . S
C141 C140 1.399 . S
C141 C142 1.385 . S
C142 H128 0.931 . S
C142 C141 1.385 . S
C142 C143 1.389 . S
C143 C142 1.389 . S
C143 C144 1.387 1_565 S
C144 H129 0.930 . S
C144 C139 1.390 . S
C144 C143 1.387 1_545 S
H145 C157 0.930 . S
H146 C159 0.930 . S
H147 C160 0.930 . S
H148 C164 0.959 . S
H149 C164 0.959 . S
H150 C164 0.961 . S
H151 C165 0.960 . S
H152 C165 0.961 . S
H153 C165 0.959 . S
H154 C168 0.929 . S
H155 C169 0.931 . S
H156 C171 0.930 . S
C157 H145 0.930 . S
C157 C158 1.399 1_455 S
C157 C162 1.399 . S
C158 C157 1.399 1_655 S
C158 C159 1.376 . S
C159 H146 0.930 . S
C159 C158 1.376 . S
C159 C160 1.388 . S
C160 H147 0.930 . S
C160 C159 1.388 . S
C160 C161 1.390 . S
C161 C160 1.390 . S
C161 C162 1.394 1_655 S
C161 C167 1.465 . S
C162 C157 1.399 . S
C162 C161 1.394 1_455 S
C162 C163 1.516 . S
C163 C162 1.516 . S
C163 C164 1.502 . S
C163 C165 1.561 . S
C163 C166 1.526 . S
C164 H148 0.959 . S
C164 H149 0.959 . S
C164 H150 0.961 . S
C164 C163 1.502 . S
C165 H151 0.960 . S
C165 H152 0.961 . S
C165 H153 0.959 . S
C165 C163 1.561 . S
C166 C163 1.526 . S
C166 C167 1.396 1_455 S
C166 C171 1.390 . S
C167 C161 1.465 . S
C167 C166 1.396 1_655 S
C167 C168 1.399 . S
C168 H154 0.929 . S
C168 C167 1.399 . S
C168 C169 1.385 . S
C169 H155 0.931 . S
C169 C168 1.385 . S
C169 C170 1.389 1_655 S
C170 C169 1.389 1_455 S
C170 C171 1.387 . S
C171 H156 0.930 . S
C171 C166 1.390 . S
C171 C170 1.387 . S
H172 C184 0.930 . S
H173 C186 0.930 . S
H174 C187 0.930 . S
H175 C191 0.959 . S
H176 C191 0.959 . S
H177 C191 0.961 . S
H178 C192 0.960 . S
H179 C192 0.961 . S
H180 C192 0.959 . S
H181 C195 0.929 . S
H182 C196 0.931 . S
H183 C198 0.930 . S
C184 H172 0.930 . S
C184 C185 1.399 1_565 S
C184 C189 1.399 . S
C185 C184 1.399 1_545 S
C185 C186 1.376 . S
C186 H173 0.930 . S
C186 C185 1.376 . S
C186 C187 1.388 . S
C187 H174 0.930 . S
C187 C186 1.388 . S
C187 C188 1.390 . S
C188 C187 1.390 . S
C188 C189 1.394 1_545 S
C188 C194 1.465 . S
C189 C184 1.399 . S
C189 C188 1.394 1_565 S
C189 C190 1.516 . S
C190 C189 1.516 . S
C190 C191 1.502 . S
C190 C192 1.561 . S
C190 C193 1.526 . S
C191 H175 0.959 . S
C191 H176 0.959 . S
C191 H177 0.961 . S
C191 C190 1.502 . S
C192 H178 0.960 . S
C192 H179 0.961 . S
C192 H180 0.959 . S
C192 C190 1.561 . S
C193 C190 1.526 . S
C193 C194 1.396 1_565 S
C193 C198 1.390 . S
C194 C188 1.465 . S
C194 C193 1.396 1_545 S
C194 C195 1.399 . S
C195 H181 0.929 . S
C195 C194 1.399 . S
C195 C196 1.385 . S
C196 H182 0.931 . S
C196 C195 1.385 . S
C196 C197 1.389 1_545 S
C197 C196 1.389 1_565 S
C197 C198 1.387 . S
C198 H183 0.930 . S
C198 C193 1.390 . S
C198 C197 1.387 . S
H199 C211 0.930 . S
H200 C213 0.930 . S
H201 C214 0.930 . S
H202 C218 0.959 . S
H203 C218 0.959 . S
H204 C218 0.961 . S
H205 C219 0.960 . S
H206 C219 0.961 . S
H207 C219 0.959 . S
H208 C222 0.929 . S
H209 C223 0.931 . S
H210 C225 0.930 . S
C211 H199 0.930 . S
C211 C212 1.399 1_655 S
C211 C216 1.399 1_655 S
C212 C211 1.399 1_455 S
C212 C213 1.376 . S
C213 H200 0.930 . S
C213 C212 1.376 . S
C213 C214 1.388 . S
C214 H201 0.930 . S
C214 C213 1.388 . S
C214 C215 1.390 . S
C215 C214 1.390 . S
C215 C216 1.394 . S
C215 C221 1.465 . S
C216 C211 1.399 1_455 S
C216 C215 1.394 . S
C216 C217 1.516 . S
C217 C216 1.516 . S
C217 C218 1.502 1_455 S
C217 C219 1.561 . S
C217 C220 1.526 . S
C218 H202 0.959 . S
C218 H203 0.959 . S
C218 H204 0.961 . S
C218 C217 1.502 1_655 S
C219 H205 0.960 . S
C219 H206 0.961 . S
C219 H207 0.959 . S
C219 C217 1.561 . S
C220 C217 1.526 . S
C220 C221 1.396 . S
C220 C225 1.390 . S
C221 C215 1.465 . S
C221 C220 1.396 . S
C221 C222 1.399 . S
C222 H208 0.929 . S
C222 C221 1.399 . S
C222 C223 1.385 . S
C223 H209 0.931 . S
C223 C222 1.385 . S
C223 C224 1.389 . S
C224 C223 1.389 . S
C224 C225 1.387 . S
C225 H210 0.930 . S
C225 C220 1.390 . S
C225 C224 1.387 . S
H226 C238 0.930 . S
H227 C240 0.930 . S
H228 C241 0.930 . S
H229 C245 0.959 . S
H230 C245 0.959 . S
H231 C245 0.961 . S
H232 C246 0.960 . S
H233 C246 0.961 . S
H234 C246 0.959 . S
H235 C249 0.929 . S
H236 C250 0.931 . S
H237 C252 0.930 . S
C238 H226 0.930 . S
C238 C239 1.399 1_545 S
C238 C243 1.399 . S
C239 C238 1.399 1_565 S
C239 C240 1.376 . S
C240 H227 0.930 . S
C240 C239 1.376 . S
C240 C241 1.388 . S
C241 H228 0.930 . S
C241 C240 1.388 . S
C241 C242 1.390 . S
C242 C241 1.390 . S
C242 C243 1.394 1_565 S
C242 C248 1.465 . S
C243 C238 1.399 . S
C243 C242 1.394 1_545 S
C243 C244 1.516 . S
C244 C243 1.516 . S
C244 C245 1.502 . S
C244 C246 1.561 . S
C244 C247 1.526 . S
C245 H229 0.959 . S
C245 H230 0.959 . S
C245 H231 0.961 . S
C245 C244 1.502 . S
C246 H232 0.960 . S
C246 H233 0.961 . S
C246 H234 0.959 . S
C246 C244 1.561 . S
C247 C244 1.526 . S
C247 C248 1.396 1_545 S
C247 C252 1.390 . S
C248 C242 1.465 . S
C248 C247 1.396 1_565 S
C248 C249 1.399 . S
C249 H235 0.929 . S
C249 C248 1.399 . S
C249 C250 1.385 . S
C250 H236 0.931 . S
C250 C249 1.385 . S
C250 C251 1.389 1_565 S
C251 C250 1.389 1_545 S
C251 C252 1.387 . S
C252 H237 0.930 . S
C252 C247 1.390 . S
C252 C251 1.387 . S
H253 C265 0.930 . S
H254 C267 0.930 . S
H255 C268 0.930 . S
H256 C272 0.959 . S
H257 C272 0.959 . S
H258 C272 0.961 . S
H259 C273 0.960 . S
H260 C273 0.961 . S
H261 C273 0.959 . S
H262 C276 0.929 . S
H263 C277 0.931 . S
H264 C279 0.930 1_455 S
C265 H253 0.930 . S
C265 C266 1.394 1_455 S
C265 C270 1.405 . S
C266 C265 1.394 1_655 S
C266 C267 1.387 . S
C267 H254 0.930 . S
C267 C266 1.387 . S
C267 C268 1.388 . S
C268 H255 0.930 . S
C268 C267 1.388 . S
C268 C269 1.390 . S
C269 C268 1.390 . S
C269 C270 1.382 1_655 S
C269 C275 1.465 . S
C270 C265 1.405 . S
C270 C269 1.382 1_455 S
C270 C271 1.520 . S
C271 C270 1.520 . S
C271 C272 1.502 . S
C271 C273 1.561 1_455 S
C271 C274 1.526 1_455 S
C272 H256 0.959 . S
C272 H257 0.959 . S
C272 H258 0.961 . S
C272 C271 1.502 . S
C273 H259 0.960 . S
C273 H260 0.961 . S
C273 H261 0.959 . S
C273 C271 1.561 1_655 S
C274 C271 1.526 1_655 S
C274 C275 1.396 . S
C274 C279 1.390 . S
C275 C269 1.465 . S
C275 C274 1.396 . S
C275 C276 1.399 . S
C276 H262 0.929 . S
C276 C275 1.399 . S
C276 C277 1.385 . S
C277 H263 0.931 . S
C277 C276 1.385 . S
C277 C278 1.389 . S
C278 C277 1.389 . S
C278 C279 1.387 . S
C279 H264 0.930 1_655 S
C279 C274 1.390 . S
C279 C278 1.387 . S
C89 C45 1.668 . S
C77 C7 1.620 . S
C116 C56 1.519 . S
C104 C34 1.614 . S
C143 C44 1.666 . S
C131 C14 1.631 . S
C170 C57 1.547 . S
C158 C26 1.568 . S
C197 C59 1.663 . S
C185 C8 1.615 . S
C224 C43 1.602 . S
C212 C32 1.568 1_455 S
C251 C58 1.668 . S
C239 C16 1.605 1_565 S
C266 C25 1.554 1_655 S
C278 C42 1.603 . S
