# Generated by pormake.
# Topology pth, (4,4)-cn, num edge types: 1
# Building blocks:
#     Node 0, Type 0, BuildingBlock: QUQFOY_clean_sbu_1, # of connection points: 4
#     Node 1, Type 0, BuildingBlock: QUQFOY_clean_sbu_1, # of connection points: 4
#     Node 2, Type 0, BuildingBlock: QUQFOY_clean_sbu_1, # of connection points: 4
#     Node 3, Type 1, BuildingBlock: MIFKUJ_clean_linker_1, # of connection points: 4
#     Node 4, Type 1, BuildingBlock: MIFKUJ_clean_linker_1, # of connection points: 4
#     Node 5, Type 1, BuildingBlock: MIFKUJ_clean_linker_1, # of connection points: 4
#     Edge 6, Type (0, 1), BuildingBlock: OJICUG_clean_linker_0, # of connection points: 2
#     Edge 7, Type (0, 1), BuildingBlock: OJICUG_clean_linker_0, # of connection points: 2
#     Edge 8, Type (0, 1), BuildingBlock: OJICUG_clean_linker_0, # of connection points: 2
#     Edge 9, Type (0, 1), BuildingBlock: OJICUG_clean_linker_0, # of connection points: 2
#     Edge 10, Type (0, 1), BuildingBlock: OJICUG_clean_linker_0, # of connection points: 2
#     Edge 11, Type (0, 1), BuildingBlock: OJICUG_clean_linker_0, # of connection points: 2
#     Edge 12, Type (0, 1), BuildingBlock: OJICUG_clean_linker_0, # of connection points: 2
#     Edge 13, Type (0, 1), BuildingBlock: OJICUG_clean_linker_0, # of connection points: 2
#     Edge 14, Type (0, 1), BuildingBlock: OJICUG_clean_linker_0, # of connection points: 2
#     Edge 15, Type (0, 1), BuildingBlock: OJICUG_clean_linker_0, # of connection points: 2
#     Edge 16, Type (0, 1), BuildingBlock: OJICUG_clean_linker_0, # of connection points: 2
#     Edge 17, Type (0, 1), BuildingBlock: OJICUG_clean_linker_0, # of connection points: 2
# Relax obj value: 0.029
# Max RMSD: 0.131
# Mean RMSD: 0.086
data_MOF--net-pth--node1-QUQFOY_clean_sbu_1--node2-MIFKUJ_clean_linker_1--edge1-OJICUG_clean_linker_0
_symmetry_space_group_name_H-M    P1
_symmetry_Int_Tables_number       1
_symmetry_cell_setting            triclinic
loop_
_symmetry_equiv_pos_as_xyz
'x, y, z'
_cell_length_a     22.721431
_cell_length_b     24.093283
_cell_length_c     49.977586
_cell_angle_alpha  90.091581
_cell_angle_beta   89.964635
_cell_angle_gamma 120.1567
loop_
_atom_site_label
_atom_site_type_symbol
_atom_site_fract_x
_atom_site_fract_y
_atom_site_fract_z
_atom_type_partial_charge
O0 O 0.03039 0.09477 0.02382 0.0
Cd1 Cd 0.95733 0.03466 0.05069 0.0
Cd2 Cd 0.02989 0.97803 0.04763 0.0
O3 O 0.10508 0.0646 0.0327 0.0
O4 O 0.91511 0.08498 0.06345 0.0
O5 O 0.97804 0.0607 0.08933 0.0
C6 C 0.94478 0.09075 0.08611 0.0
C7 C 0.04618 0.92091 0.0816 0.0
C8 C 0.0899 0.10294 0.02134 0.0
C9 C 0.89328 0.91231 0.02182 0.0
O10 O 0.95324 0.92107 0.02145 0.0
O11 O 0.87977 0.94824 0.03608 0.0
O12 O 0.07089 0.92507 0.05795 0.0
O13 O 0.01562 0.95289 0.08648 0.0
O14 O 0.94927 0.05636 0.40496 0.0
Cd15 Cd 0.02425 0.07151 0.37821 0.0
Cd16 Cd 0.95883 0.94346 0.37936 0.0
O17 O 0.88283 0.95253 0.39814 0.0
O18 O 0.0609 0.16155 0.36598 0.0
O19 O 0.00446 0.07736 0.3394 0.0
C20 C 0.0338 0.13872 0.34297 0.0
C21 C 0.93791 0.86918 0.34536 0.0
C22 C 0.89367 1.00456 0.40908 0.0
C23 C 0.09766 0.01517 0.40475 0.0
O24 O 0.04179 0.96258 0.4025 0.0
O25 O 0.10501 0.06593 0.39388 0.0
O26 O 0.91965 0.85135 0.36973 0.0
O27 O 0.96454 0.9295 0.33987 0.0
O28 O 0.8913 0.95749 0.6912 0.0
Cd29 Cd 0.95464 0.94132 0.7151 0.0
Cd30 Cd 0.02614 0.06995 0.71386 0.0
O31 O 0.94101 0.06259 0.6955 0.0
O32 O 0.8966 0.85056 0.72652 0.0
O33 O 0.93782 0.93202 0.75491 0.0
C34 C 0.90033 0.87107 0.75064 0.0
C35 C 0.08408 0.14281 0.74823 0.0
C36 C 0.89296 0.00997 0.68632 0.0
C37 C 0.08552 0.99775 0.68614 0.0
O38 O 0.08805 0.05095 0.69017 0.0
O39 O 0.03775 0.94634 0.69618 0.0
O40 O 0.08687 0.16139 0.72385 0.0
O41 O 0.04476 0.0826 0.7535 0.0
H42 H 0.0861 0.45005 0.16754 0.0
H43 H 0.07343 0.35617 0.14286 0.0
H44 H 0.86726 0.24354 0.17186 0.0
H45 H 0.88043 0.33683 0.19667 0.0
H46 H 0.00518 0.51266 0.1638 0.0
H47 H 0.0946 0.43972 0.23024 0.0
H48 H 0.10861 0.36057 0.25588 0.0
H49 H 0.90163 0.27655 0.28407 0.0
H50 H 0.88814 0.35688 0.25863 0.0
H51 H 0.86793 0.53119 0.25412 0.0
H52 H 0.85032 0.60776 0.27997 0.0
H53 H 0.05388 0.75811 0.25992 0.0
H54 H 0.07054 0.68122 0.23367 0.0
H55 H 0.96942 0.49712 0.26215 0.0
H56 H 0.90442 0.60185 0.19113 0.0
H57 H 0.92239 0.69487 0.16494 0.0
H58 H 0.12697 0.73764 0.14656 0.0
H59 H 0.10784 0.64379 0.17219 0.0
C60 C 0.98419 0.40027 0.18385 0.0
C61 C 0.03833 0.40508 0.16856 0.0
C62 C 0.0312 0.35143 0.15471 0.0
C63 C 0.96938 0.29269 0.15555 0.0
C64 C 0.91531 0.28825 0.17082 0.0
C65 C 0.92283 0.34142 0.18498 0.0
C66 C -0.0093 0.45592 0.19907 0.0
C67 C -0.0018 0.50983 0.18533 0.0
C68 C 0.98359 0.45297 0.22713 0.0
C69 C -0.0096 0.40415 0.24264 0.0
C70 C 0.05219 0.4042 0.24192 0.0
C71 C 0.06018 0.3591 0.25654 0.0
C72 C 0.00615 0.31248 0.27184 0.0
C73 C 0.94384 0.31174 0.27222 0.0
C74 C 0.93624 0.35773 0.25792 0.0
C75 C 0.97045 0.60049 0.24194 0.0
C76 C 0.90867 0.58072 0.25525 0.0
C77 C 0.89876 0.62457 0.27006 0.0
C78 C 0.95072 0.68917 0.27211 0.0
C79 C 0.01238 0.70903 0.25845 0.0
C80 C 0.02218 0.66506 0.24355 0.0
C81 C 0.98039 0.55285 0.22676 0.0
C82 C 0.97626 0.50023 0.24061 0.0
C83 C -0.00571 0.55902 0.19894 0.0
C84 C 0.00478 0.61591 0.18357 0.0
C85 C 0.95319 0.63154 0.18155 0.0
C86 C 0.96378 0.68503 0.16671 0.0
C87 C 0.02619 0.7239 0.15357 0.0
C88 C 0.07795 0.70835 0.15601 0.0
C89 C 0.06718 0.65476 0.17071 0.0
H90 H 0.63252 0.10439 0.49786 0.0
H91 H 0.71588 0.1013 0.46811 0.0
H92 H 0.67248 0.92021 0.50265 0.0
H93 H 0.58713 0.92257 0.53182 0.0
H94 H 0.50159 0.02397 0.49734 0.0
H95 H 0.67813 0.09274 0.56252 0.0
H96 H 0.76391 0.09429 0.59257 0.0
H97 H 0.61031 0.91603 0.62787 0.0
H98 H 0.52586 0.91337 0.59708 0.0
H99 H 0.3525 0.90756 0.59424 0.0
H100 H 0.26742 0.90482 0.62471 0.0
H101 H 0.29857 0.08294 0.59111 0.0
H102 H 0.38662 0.08716 0.5617 0.0
H103 H 0.4811 0.99266 0.59551 0.0
H104 H 0.30362 0.92853 0.52935 0.0
H105 H 0.22131 0.93195 0.49907 0.0
H106 H 0.38125 0.10907 0.46525 0.0
H107 H 0.46213 0.10735 0.49669 0.0
C108 C 0.60396 0.01397 0.51718 0.0
C109 C 0.64133 0.06425 0.49917 0.0
C110 C 0.6892 0.06255 0.48227 0.0
C111 C 0.70073 0.01044 0.483 0.0
C112 C 0.66417 0.96063 0.50141 0.0
C113 C 0.6161 0.96235 0.51835 0.0
C114 C 0.5481 0.01293 0.53286 0.0
C115 C 0.4976 0.0182 0.51891 0.0
C116 C 0.54222 1.00385 0.56085 0.0
C117 C 0.59571 1.00258 0.57735 0.0
C118 C 0.66335 0.05333 0.57635 0.0
C119 C 0.71208 0.05465 0.59382 0.0
C120 C 0.69392 1.00542 0.61271 0.0
C121 C 0.6263 0.95431 0.61337 0.0
C122 C 0.57781 0.95288 0.59586 0.0
C123 C 0.37589 0.99749 0.57563 0.0
C124 C 0.34067 0.94584 0.59332 0.0
C125 C 0.29159 0.94409 0.61061 0.0
C126 C 0.27633 0.99385 0.61051 0.0
C127 C 0.30991 0.04439 0.59206 0.0
C128 C 0.35957 0.04641 0.57492 0.0
C129 C 0.43381 1.0026 0.55996 0.0
C130 C 0.48498 0.99843 0.57393 0.0
C131 C 0.4407 0.01359 0.53203 0.0
C132 C 0.389 0.01796 0.51549 0.0
C133 C 0.32057 0.96893 0.5159 0.0
C134 C 0.27378 0.97044 0.49822 0.0
C135 C 0.29472 0.02048 0.47947 0.0
C136 C 0.36303 0.07018 0.47955 0.0
C137 C 0.40952 0.069 0.49742 0.0
H138 H 0.44817 0.38776 0.83606 0.0
H139 H 0.35913 0.31015 0.8064 0.0
H140 H 0.20828 0.3319 0.85016 0.0
H141 H 0.29769 0.41228 0.87904 0.0
H142 H 0.497 0.50449 0.84142 0.0
H143 H 0.3985 0.33623 0.90401 0.0
H144 H 0.31534 0.24901 0.93215 0.0
H145 H 0.26366 0.38043 0.9699 0.0
H146 H 0.34553 0.467 0.94122 0.0
H147 H 0.52983 0.66092 0.9287 0.0
H148 H 0.61593 0.74714 0.95645 0.0
H149 H 0.74837 0.66788 0.94598 0.0
H150 H 0.66334 0.58435 0.91708 0.0
H151 H 0.47797 0.51805 0.93974 0.0
H152 H 0.59059 0.68708 0.8714 0.0
H153 H 0.68491 0.76407 0.8435 0.0
H154 H 0.72909 0.61529 0.82126 0.0
H155 H 0.63379 0.53849 0.84864 0.0
C156 C 0.38003 0.40605 0.85996 0.0
C157 C 0.39605 0.37604 0.83938 0.0
C158 C 0.34521 0.33151 0.8225 0.0
C159 C 0.27713 0.31525 0.82612 0.0
C160 C 0.26042 0.34332 0.8472 0.0
C161 C 0.31154 0.38897 0.86377 0.0
C162 C 0.43531 0.458 0.87621 0.0
C163 C 0.49285 0.50657 0.86297 0.0
C164 C 0.43082 0.46153 0.90438 0.0
C165 C 0.37766 0.40795 0.92032 0.0
C166 C 0.36849 0.34599 0.91807 0.0
C167 C 0.32159 0.2964 0.93438 0.0
C168 C 0.28313 0.30792 0.95329 0.0
C169 C 0.29202 0.3699 0.95533 0.0
C170 C 0.339 0.41947 0.93906 0.0
C171 C 0.59078 0.61694 0.92076 0.0
C172 C 0.57783 0.6628 0.93227 0.0
C173 C 0.62689 0.71162 0.94833 0.0
C174 C 0.68932 0.71465 0.95361 0.0
C175 C 0.70166 0.66809 0.942 0.0
C176 C 0.65302 0.62 0.92558 0.0
C177 C 0.53777 0.56384 0.90479 0.0
C178 C 0.48118 0.51528 0.91816 0.0
C179 C 0.54466 0.5588 0.87699 0.0
C180 C 0.60512 0.60706 0.862 0.0
C181 C 0.62127 0.67139 0.86078 0.0
C182 C 0.67543 0.71541 0.84491 0.0
C183 C 0.71443 0.69583 0.82997 0.0
C184 C 0.69943 0.63178 0.83208 0.0
C185 C 0.64512 0.58784 0.84779 0.0
C186 C 0.00069 0.16581 0.12462 0.0
C187 C 0.94628 0.13607 0.10645 0.0
H188 H 0.0513 0.23972 0.1542 0.0
C189 C 0.89756 0.15565 0.10575 0.0
H190 H 0.03935 0.15211 0.12542 0.0
C191 C 0.90407 0.20515 0.12235 0.0
C192 C 0.96012 0.23691 0.13962 0.0
H193 H 0.85522 0.13374 0.09189 0.0
H194 H 0.8666 0.22025 0.12094 0.0
C195 C 0.00794 0.21629 0.14087 0.0
C196 C 0.78126 0.9492 0.43311 0.0
C197 C 0.84324 1.00533 0.42759 0.0
H198 H 0.68728 0.90683 0.45484 0.0
C199 C 0.85806 0.06267 0.44065 0.0
H200 H 0.76836 0.90424 0.42342 0.0
C201 C 0.81217 0.06397 0.45879 0.0
C202 C 0.75011 0.00805 0.46427 0.0
H203 H 0.90553 0.10677 0.43706 0.0
H204 H 0.82569 0.10881 0.46873 0.0
C205 C 0.73512 0.95056 0.45128 0.0
C206 C 0.85487 0.84835 0.7977 0.0
C207 C 0.85864 0.82605 0.7721 0.0
H208 H 0.80703 0.82464 0.83628 0.0
C209 C 0.81785 0.76031 0.76638 0.0
H210 H 0.88566 0.89875 0.80274 0.0
C211 C 0.7726 0.71815 0.7854 0.0
C212 C 0.76701 0.74049 0.81075 0.0
H213 H 0.8193 0.74146 0.74685 0.0
H214 H 0.74012 0.66833 0.7798 0.0
C215 C 0.80944 0.80598 0.81683 0.0
C216 C 0.07671 0.83841 0.09471 0.0
C217 C 0.04756 0.876 0.1015 0.0
H218 H 0.09173 0.76064 0.10538 0.0
C219 C 0.01467 0.86583 0.12635 0.0
H220 H 0.10217 0.84469 0.07569 0.0
C221 C 0.00907 0.81759 0.1436 0.0
C222 C 0.03618 0.77845 0.13635 0.0
H223 H -0.00833 0.89397 0.1322 0.0
H224 H 0.98289 0.81056 0.16249 0.0
C225 C 0.07096 0.79022 0.11185 0.0
C226 C 0.14966 0.96051 0.42952 0.0
C227 C 0.1517 0.0176 0.42199 0.0
H228 H 0.19385 0.91677 0.45296 0.0
C229 C 0.20247 0.07607 0.4328 0.0
H230 H 0.11139 0.9147 0.42141 0.0
C231 C 0.24892 0.07714 0.45142 0.0
C232 C 0.24606 0.01982 0.45939 0.0
H233 H 0.20491 0.12081 0.42758 0.0
H234 H 0.28594 0.12277 0.46006 0.0
C235 C 0.19652 0.96164 0.44786 0.0
C236 C 0.18607 0.24696 0.76074 0.0
C237 C 0.12949 0.18859 0.76878 0.0
H238 H 0.27735 0.33207 0.77267 0.0
C239 C 0.12011 0.1732 0.79617 0.0
H240 H 0.19503 0.26016 0.7398 0.0
C241 C 0.16706 0.21516 0.81507 0.0
C242 C 0.22476 0.27226 0.80675 0.0
H243 H 0.07703 0.12853 0.80294 0.0
H244 H 0.15944 0.20221 0.83605 0.0
C245 C 0.23348 0.28801 0.77949 0.0
C246 C 0.84067 0.06613 0.66213 0.0
C247 C 0.84071 0.00931 0.66843 0.0
H248 H 0.79382 0.10944 0.63979 0.0
C249 C 0.79202 0.95149 0.65637 0.0
H250 H 0.87753 0.11146 0.67105 0.0
C251 C 0.74491 0.95049 0.63825 0.0
C252 C 0.74487 0.00719 0.63182 0.0
H253 H 0.79081 0.90683 0.66056 0.0
H254 H 0.70914 0.90528 0.62894 0.0
C255 C 0.79314 0.06505 0.64403 0.0
C256 C 0.85999 0.83874 0.98253 0.0
C257 C 0.84058 0.86189 1.00466 0.0
H258 H 0.82815 0.77655 0.94861 0.0
C259 C 0.77107 0.83695 1.00985 0.0
H260 H 0.91324 0.85766 0.97778 0.0
C261 C 0.72191 0.78901 0.99341 0.0
C262 C 0.74129 0.76587 0.97115 0.0
H263 H 0.75466 0.85373 0.02684 0.0
H264 H 0.66876 0.76951 0.99844 0.0
C265 C 0.81105 0.79183 0.96585 0.0
C266 C 0.90586 0.75738 0.33214 0.0
C267 C 0.93408 0.82234 0.32516 0.0
H268 H 0.88991 0.6651 0.32122 0.0
C269 C 0.96407 0.84256 0.29979 0.0
H270 H 0.88255 0.74015 0.35154 0.0
C271 C 0.96806 0.79915 0.28222 0.0
C272 C 0.94199 0.73462 0.28964 0.0
H273 H 0.98634 0.89229 0.2938 0.0
H274 H -0.00771 0.81632 0.26296 0.0
C275 C 0.90983 0.71415 0.31464 0.0
C276 C 0.12378 0.93763 0.65667 0.0
C277 C 0.13602 0.99576 0.66812 0.0
H278 H 0.15711 0.89156 0.62886 0.0
C279 C 0.19508 0.05293 0.66084 0.0
H280 H 0.07837 0.89285 0.66167 0.0
C281 C 0.24053 0.05216 0.64227 0.0
C282 C 0.22771 0.99428 0.63031 0.0
H283 H 0.20617 0.09851 0.66942 0.0
H284 H 0.28604 0.09702 0.63746 0.0
C285 C 0.16896 0.93693 0.63786 0.0
C286 C 0.20489 0.16372 0.99963 0.0
C287 C 0.14032 0.15612 1.0045 0.0
H288 H 0.30086 0.21794 0.97975 0.0
C289 C 0.1234 0.19908 0.99254 0.0
H290 H 0.21953 0.13148 1.00854 0.0
C291 C 0.16975 0.24825 0.97599 0.0
C292 C 0.2341 0.25563 0.97096 0.0
H293 H 0.07404 0.19457 0.99579 0.0
H294 H 0.15475 0.27994 0.96679 0.0
C295 C 0.25127 0.21293 0.98299 0.0
C296 C 0.07829 0.24776 0.32327 0.0
C297 C 0.03131 0.18158 0.32245 0.0
H298 H 0.10732 0.34082 0.30765 0.0
C299 C 0.97785 0.15811 0.30377 0.0
H300 H 0.11988 0.26721 0.33751 0.0
C301 C 0.96983 0.2005 0.28707 0.0
C302 C 0.01604 0.26681 0.28837 0.0
H303 H 0.94053 0.10738 0.30287 0.0
H304 H 0.92722 0.18159 0.27332 0.0
C305 C 0.07113 0.28987 0.30621 0.0
loop_
_geom_bond_atom_site_label_1
_geom_bond_atom_site_label_2
_geom_bond_distance
_geom_bond_site_symmetry_2
_ccdc_geom_bond_type
O0 Cd1 2.223 1_456 S
O0 C8 1.319 . S
Cd1 O0 2.223 1_654 S
Cd1 O4 2.297 . S
Cd1 O5 2.439 . S
Cd1 O11 2.240 1_545 S
Cd2 O3 2.240 1_565 S
Cd2 O10 2.223 1_454 S
Cd2 O12 2.297 . S
Cd2 O13 2.439 . S
O3 Cd2 2.240 1_545 S
O3 C8 1.262 1_554 S
O4 Cd1 2.297 . S
O4 C6 1.247 . S
O5 Cd1 2.439 . S
O5 C6 1.208 . S
C6 O4 1.247 . S
C6 O5 1.208 . S
C7 O12 1.247 . S
C7 O13 1.208 . S
C8 O0 1.319 . S
C8 O3 1.262 1_556 S
C9 O10 1.319 . S
C9 O11 1.261 1_556 S
O10 Cd2 2.223 1_656 S
O10 C9 1.319 . S
O11 Cd1 2.240 1_565 S
O11 C9 1.261 1_554 S
O12 Cd2 2.297 . S
O12 C7 1.247 . S
O13 Cd2 2.439 . S
O13 C7 1.208 . S
O14 Cd15 2.223 1_655 S
O14 C22 1.315 . S
Cd15 O14 2.223 1_455 S
Cd15 O18 2.297 . S
Cd15 O19 2.439 . S
Cd15 O25 2.240 . S
Cd16 O17 2.240 . S
Cd16 O24 2.223 1_655 S
Cd16 O26 2.297 . S
Cd16 O27 2.439 . S
O17 Cd16 2.240 . S
O17 C22 1.279 1_565 S
O18 Cd15 2.297 . S
O18 C20 1.247 . S
O19 Cd15 2.439 . S
O19 C20 1.208 . S
C20 O18 1.247 . S
C20 O19 1.208 . S
C21 O26 1.247 . S
C21 O27 1.208 . S
C22 O14 1.315 . S
C22 O17 1.279 1_545 S
C23 O24 1.315 . S
C23 O25 1.279 1_565 S
O24 Cd16 2.223 1_455 S
O24 C23 1.315 . S
O25 Cd15 2.240 . S
O25 C23 1.279 1_545 S
O26 Cd16 2.297 . S
O26 C21 1.247 . S
O27 Cd16 2.439 . S
O27 C21 1.208 . S
O28 Cd29 2.223 . S
O28 C36 1.315 . S
Cd29 O28 2.223 . S
Cd29 O32 2.297 . S
Cd29 O33 2.439 . S
Cd29 O39 2.240 1_655 S
Cd30 O31 2.240 1_455 S
Cd30 O38 2.223 . S
Cd30 O40 2.297 . S
Cd30 O41 2.439 . S
O31 Cd30 2.240 1_655 S
O31 C36 1.279 1_545 S
O32 Cd29 2.297 . S
O32 C34 1.247 . S
O33 Cd29 2.439 . S
O33 C34 1.208 . S
C34 O32 1.247 . S
C34 O33 1.208 . S
C35 O40 1.247 . S
C35 O41 1.208 . S
C36 O28 1.315 . S
C36 O31 1.279 1_565 S
C37 O38 1.315 . S
C37 O39 1.279 1_545 S
O38 Cd30 2.223 . S
O38 C37 1.315 . S
O39 Cd29 2.240 1_455 S
O39 C37 1.279 1_565 S
O40 Cd30 2.297 . S
O40 C35 1.247 . S
O41 Cd30 2.439 . S
O41 C35 1.208 . S
H42 C61 0.949 . S
H43 C62 0.950 . S
H44 C64 0.950 . S
H45 C65 0.950 . S
H46 C67 0.950 . S
H47 C70 0.950 . S
H48 C71 0.950 . S
H49 C73 0.951 . S
H50 C74 0.949 . S
H51 C76 0.949 . S
H52 C77 0.950 . S
H53 C79 0.950 . S
H54 C80 0.950 . S
H55 C82 0.950 . S
H56 C85 0.950 . S
H57 C86 0.950 . S
H58 C88 0.951 . S
H59 C89 0.949 . S
C60 C61 1.376 . S
C60 C65 1.386 1_455 S
C60 C66 1.483 . S
C61 H42 0.949 . S
C61 C60 1.376 . S
C61 C62 1.397 . S
C62 H43 0.950 . S
C62 C61 1.397 . S
C62 C63 1.391 . S
C63 C62 1.391 . S
C63 C64 1.405 1_455 S
C64 H44 0.950 . S
C64 C63 1.405 1_655 S
C64 C65 1.367 . S
C65 H45 0.950 . S
C65 C60 1.386 1_655 S
C65 C64 1.367 . S
C66 C60 1.483 . S
C66 C67 1.382 . S
C66 C68 1.403 1_455 S
C67 H46 0.950 . S
C67 C66 1.382 . S
C67 C83 1.411 . S
C68 C66 1.403 1_655 S
C68 C69 1.489 . S
C68 C82 1.411 . S
C69 C68 1.489 . S
C69 C70 1.383 1_655 S
C69 C74 1.382 . S
C70 H47 0.950 . S
C70 C69 1.383 1_455 S
C70 C71 1.395 . S
C71 H48 0.950 . S
C71 C70 1.395 . S
C71 C72 1.288 1_455 S
C72 C71 1.288 1_655 S
C72 C73 1.392 . S
C73 H49 0.951 . S
C73 C72 1.392 . S
C73 C74 1.392 . S
C74 H50 0.949 . S
C74 C69 1.382 . S
C74 C73 1.392 . S
C75 C76 1.376 . S
C75 C80 1.386 1_655 S
C75 C81 1.483 . S
C76 H51 0.949 . S
C76 C75 1.376 . S
C76 C77 1.397 . S
C77 H52 0.950 . S
C77 C76 1.397 . S
C77 C78 1.391 . S
C78 C77 1.391 . S
C78 C79 1.405 1_655 S
C79 H53 0.950 . S
C79 C78 1.405 1_455 S
C79 C80 1.367 . S
C80 H54 0.950 . S
C80 C75 1.386 1_455 S
C80 C79 1.367 . S
C81 C75 1.483 . S
C81 C82 1.382 . S
C81 C83 1.403 1_655 S
C82 H55 0.950 . S
C82 C68 1.411 . S
C82 C81 1.382 . S
C83 C67 1.411 . S
C83 C81 1.403 1_455 S
C83 C84 1.489 . S
C84 C83 1.489 . S
C84 C85 1.383 1_455 S
C84 C89 1.382 . S
C85 H56 0.950 . S
C85 C84 1.383 1_655 S
C85 C86 1.395 . S
C86 H57 0.950 . S
C86 C85 1.395 . S
C86 C87 1.288 1_655 S
C87 C86 1.288 1_455 S
C87 C88 1.392 . S
C88 H58 0.951 . S
C88 C87 1.392 . S
C88 C89 1.392 . S
C89 H59 0.949 . S
C89 C84 1.382 . S
C89 C88 1.392 . S
H90 C109 0.949 . S
H91 C110 0.950 . S
H92 C112 0.950 . S
H93 C113 0.950 . S
H94 C115 0.950 . S
H95 C118 0.950 . S
H96 C119 0.950 . S
H97 C121 0.951 . S
H98 C122 0.949 . S
H99 C124 0.949 . S
H100 C125 0.950 . S
H101 C127 0.950 . S
H102 C128 0.950 . S
H103 C130 0.950 . S
H104 C133 0.950 . S
H105 C134 0.950 . S
H106 C136 0.951 . S
H107 C137 0.949 . S
C108 C109 1.376 . S
C108 C113 1.386 1_545 S
C108 C114 1.483 . S
C109 H90 0.949 . S
C109 C108 1.376 . S
C109 C110 1.397 . S
C110 H91 0.950 . S
C110 C109 1.397 . S
C110 C111 1.391 . S
C111 C110 1.391 . S
C111 C112 1.405 1_545 S
C112 H92 0.950 . S
C112 C111 1.405 1_565 S
C112 C113 1.367 . S
C113 H93 0.950 . S
C113 C108 1.386 1_565 S
C113 C112 1.367 . S
C114 C108 1.483 . S
C114 C115 1.382 . S
C114 C116 1.403 1_545 S
C115 H94 0.950 . S
C115 C114 1.382 . S
C115 C131 1.411 . S
C116 C114 1.403 1_565 S
C116 C117 1.489 . S
C116 C130 1.411 . S
C117 C116 1.489 . S
C117 C118 1.383 1_565 S
C117 C122 1.382 . S
C118 H95 0.950 . S
C118 C117 1.383 1_545 S
C118 C119 1.395 . S
C119 H96 0.950 . S
C119 C118 1.395 . S
C119 C120 1.288 1_545 S
C120 C119 1.288 1_565 S
C120 C121 1.392 . S
C121 H97 0.951 . S
C121 C120 1.392 . S
C121 C122 1.392 . S
C122 H98 0.949 . S
C122 C117 1.382 . S
C122 C121 1.392 . S
C123 C124 1.376 . S
C123 C128 1.386 1_565 S
C123 C129 1.483 . S
C124 H99 0.949 . S
C124 C123 1.376 . S
C124 C125 1.397 . S
C125 H100 0.950 . S
C125 C124 1.397 . S
C125 C126 1.391 . S
C126 C125 1.391 . S
C126 C127 1.405 1_565 S
C127 H101 0.950 . S
C127 C126 1.405 1_545 S
C127 C128 1.367 . S
C128 H102 0.950 . S
C128 C123 1.386 1_545 S
C128 C127 1.367 . S
C129 C123 1.483 . S
C129 C130 1.382 . S
C129 C131 1.403 1_565 S
C130 H103 0.950 . S
C130 C116 1.411 . S
C130 C129 1.382 . S
C131 C115 1.411 . S
C131 C129 1.403 1_545 S
C131 C132 1.489 . S
C132 C131 1.489 . S
C132 C133 1.383 1_545 S
C132 C137 1.382 . S
C133 H104 0.950 . S
C133 C132 1.383 1_565 S
C133 C134 1.395 . S
C134 H105 0.950 . S
C134 C133 1.395 . S
C134 C135 1.288 1_565 S
C135 C134 1.288 1_545 S
C135 C136 1.392 . S
C136 H106 0.951 . S
C136 C135 1.392 . S
C136 C137 1.392 . S
C137 H107 0.949 . S
C137 C132 1.382 . S
C137 C136 1.392 . S
H138 C157 0.949 . S
H139 C158 0.950 . S
H140 C160 0.950 . S
H141 C161 0.950 . S
H142 C163 0.950 . S
H143 C166 0.950 . S
H144 C167 0.950 . S
H145 C169 0.951 . S
H146 C170 0.949 . S
H147 C172 0.949 . S
H148 C173 0.950 . S
H149 C175 0.950 . S
H150 C176 0.950 . S
H151 C178 0.950 . S
H152 C181 0.950 . S
H153 C182 0.950 . S
H154 C184 0.951 . S
H155 C185 0.949 . S
C156 C157 1.376 . S
C156 C161 1.386 . S
C156 C162 1.483 . S
C157 H138 0.949 . S
C157 C156 1.376 . S
C157 C158 1.397 . S
C158 H139 0.950 . S
C158 C157 1.397 . S
C158 C159 1.391 . S
C159 C158 1.391 . S
C159 C160 1.405 . S
C160 H140 0.950 . S
C160 C159 1.405 . S
C160 C161 1.367 . S
C161 H141 0.950 . S
C161 C156 1.386 . S
C161 C160 1.367 . S
C162 C156 1.483 . S
C162 C163 1.382 . S
C162 C164 1.403 . S
C163 H142 0.950 . S
C163 C162 1.382 . S
C163 C179 1.411 . S
C164 C162 1.403 . S
C164 C165 1.489 . S
C164 C178 1.411 . S
C165 C164 1.489 . S
C165 C166 1.383 . S
C165 C170 1.382 . S
C166 H143 0.950 . S
C166 C165 1.383 . S
C166 C167 1.395 . S
C167 H144 0.950 . S
C167 C166 1.395 . S
C167 C168 1.288 . S
C168 C167 1.288 . S
C168 C169 1.392 . S
C169 H145 0.951 . S
C169 C168 1.392 . S
C169 C170 1.392 . S
C170 H146 0.949 . S
C170 C165 1.382 . S
C170 C169 1.392 . S
C171 C172 1.376 . S
C171 C176 1.386 . S
C171 C177 1.483 . S
C172 H147 0.949 . S
C172 C171 1.376 . S
C172 C173 1.397 . S
C173 H148 0.950 . S
C173 C172 1.397 . S
C173 C174 1.391 . S
C174 C173 1.391 . S
C174 C175 1.405 . S
C175 H149 0.950 . S
C175 C174 1.405 . S
C175 C176 1.367 . S
C176 H150 0.950 . S
C176 C171 1.386 . S
C176 C175 1.367 . S
C177 C171 1.483 . S
C177 C178 1.382 . S
C177 C179 1.403 . S
C178 H151 0.950 . S
C178 C164 1.411 . S
C178 C177 1.382 . S
C179 C163 1.411 . S
C179 C177 1.403 . S
C179 C180 1.489 . S
C180 C179 1.489 . S
C180 C181 1.383 . S
C180 C185 1.382 . S
C181 H152 0.950 . S
C181 C180 1.383 . S
C181 C182 1.395 . S
C182 H153 0.950 . S
C182 C181 1.395 . S
C182 C183 1.288 . S
C183 C182 1.288 . S
C183 C184 1.392 . S
C184 H154 0.951 . S
C184 C183 1.392 . S
C184 C185 1.392 . S
C185 H155 0.949 . S
C185 C180 1.382 . S
C185 C184 1.392 . S
C186 C187 1.394 . S
C186 H190 0.950 . S
C186 C195 1.390 . S
C187 C186 1.394 . S
C187 C189 1.375 1_455 S
H188 C195 0.950 . S
C189 C187 1.375 1_655 S
C189 C191 1.390 . S
C189 H193 0.950 . S
H190 C186 0.950 . S
C191 C189 1.390 . S
C191 C192 1.385 1_655 S
C191 H194 0.950 . S
C192 C191 1.385 1_455 S
C192 C195 1.393 . S
H193 C189 0.950 . S
H194 C191 0.950 . S
C195 C186 1.390 . S
C195 H188 0.950 . S
C195 C192 1.393 . S
C196 C197 1.387 1_565 S
C196 H200 0.950 . S
C196 C205 1.390 . S
C197 C196 1.387 1_545 S
C197 C199 1.387 . S
H198 C205 0.950 . S
C199 C197 1.387 . S
C199 C201 1.390 . S
C199 H203 0.950 . S
H200 C196 0.950 . S
C201 C199 1.390 . S
C201 C202 1.387 . S
C201 H204 0.950 . S
C202 C201 1.387 . S
C202 C205 1.387 1_545 S
H203 C199 0.950 . S
H204 C201 0.950 . S
C205 C196 1.390 . S
C205 H198 0.950 . S
C205 C202 1.387 1_565 S
C206 C207 1.387 . S
C206 H210 0.950 . S
C206 C215 1.390 . S
C207 C206 1.387 . S
C207 C209 1.387 . S
H208 C215 0.950 . S
C209 C207 1.387 . S
C209 C211 1.390 . S
C209 H213 0.950 . S
H210 C206 0.950 . S
C211 C209 1.390 . S
C211 C212 1.387 . S
C211 H214 0.950 . S
C212 C211 1.387 . S
C212 C215 1.387 . S
H213 C209 0.950 . S
H214 C211 0.950 . S
C215 C206 1.390 . S
C215 H208 0.950 . S
C215 C212 1.387 . S
C216 C217 1.390 . S
C216 H220 0.950 . S
C216 C225 1.390 . S
C217 C216 1.390 . S
C217 C219 1.386 1_455 S
H218 C225 0.950 . S
C219 C217 1.386 1_655 S
C219 C221 1.390 . S
C219 H223 0.950 . S
H220 C216 0.950 . S
C221 C219 1.390 . S
C221 C222 1.375 1_655 S
C221 H224 0.950 . S
C222 C221 1.375 1_455 S
C222 C225 1.394 . S
H223 C219 0.950 . S
H224 C221 0.950 . S
C225 C216 1.390 . S
C225 H218 0.950 . S
C225 C222 1.394 . S
C226 C227 1.387 . S
C226 H230 0.950 . S
C226 C235 1.390 . S
C227 C226 1.387 . S
C227 C229 1.387 1_565 S
H228 C235 0.950 . S
C229 C227 1.387 1_545 S
C229 C231 1.390 . S
C229 H233 0.950 . S
H230 C226 0.950 . S
C231 C229 1.390 . S
C231 C232 1.382 1_545 S
C231 H234 0.950 . S
C232 C231 1.382 1_565 S
C232 C235 1.391 . S
H233 C229 0.950 . S
H234 C231 0.950 . S
C235 C226 1.390 . S
C235 H228 0.950 . S
C235 C232 1.391 . S
C236 C237 1.387 . S
C236 H240 0.950 . S
C236 C245 1.390 . S
C237 C236 1.387 . S
C237 C239 1.387 . S
H238 C245 0.950 . S
C239 C237 1.387 . S
C239 C241 1.390 . S
C239 H243 0.950 . S
H240 C236 0.950 . S
C241 C239 1.390 . S
C241 C242 1.387 . S
C241 H244 0.950 . S
C242 C241 1.387 . S
C242 C245 1.387 . S
H243 C239 0.950 . S
H244 C241 0.950 . S
C245 C236 1.390 . S
C245 H238 0.950 . S
C245 C242 1.387 . S
C246 C247 1.387 1_545 S
C246 H250 0.950 . S
C246 C255 1.390 . S
C247 C246 1.387 1_565 S
C247 C249 1.387 . S
H248 C255 0.950 . S
C249 C247 1.387 . S
C249 C251 1.390 . S
C249 H253 0.950 . S
H250 C246 0.950 . S
C251 C249 1.390 . S
C251 C252 1.387 . S
C251 H254 0.950 . S
C252 C251 1.387 . S
C252 C255 1.387 1_565 S
H253 C249 0.950 . S
H254 C251 0.950 . S
C255 C246 1.390 . S
C255 H248 0.950 . S
C255 C252 1.387 1_545 S
C256 C257 1.387 . S
C256 H260 0.950 . S
C256 C265 1.390 . S
C257 C256 1.387 . S
C257 C259 1.387 . S
H258 C265 0.950 . S
C259 C257 1.387 . S
C259 C261 1.390 . S
C259 H263 0.950 1_556 S
H260 C256 0.950 . S
C261 C259 1.390 . S
C261 C262 1.387 . S
C261 H264 0.950 . S
C262 C261 1.387 . S
C262 C265 1.387 . S
H263 C259 0.950 1_554 S
H264 C261 0.950 . S
C265 C256 1.390 . S
C265 H258 0.950 . S
C265 C262 1.387 . S
C266 C267 1.387 . S
C266 H270 0.950 . S
C266 C275 1.390 . S
C267 C266 1.387 . S
C267 C269 1.387 1_455 S
H268 C275 0.950 . S
C269 C267 1.387 1_655 S
C269 C271 1.390 . S
C269 H273 0.950 . S
H270 C266 0.950 . S
C271 C269 1.390 . S
C271 C272 1.387 1_655 S
C271 H274 0.950 . S
C272 C271 1.387 1_455 S
C272 C275 1.387 . S
H273 C269 0.950 . S
H274 C271 0.950 . S
C275 C266 1.390 . S
C275 H268 0.950 . S
C275 C272 1.387 . S
C276 C277 1.387 1_565 S
C276 H280 0.950 . S
C276 C285 1.390 . S
C277 C276 1.387 1_545 S
C277 C279 1.387 . S
H278 C285 0.950 . S
C279 C277 1.387 . S
C279 C281 1.390 . S
C279 H283 0.950 . S
H280 C276 0.950 . S
C281 C279 1.390 . S
C281 C282 1.387 . S
C281 H284 0.950 . S
C282 C281 1.387 . S
C282 C285 1.387 1_545 S
H283 C279 0.950 . S
H284 C281 0.950 . S
C285 C276 1.390 . S
C285 H278 0.950 . S
C285 C282 1.387 1_565 S
C286 C287 1.387 . S
C286 H290 0.950 1_556 S
C286 C295 1.390 . S
C287 C286 1.387 . S
C287 C289 1.387 . S
H288 C295 0.950 . S
C289 C287 1.387 . S
C289 C291 1.390 . S
C289 H293 0.950 . S
H290 C286 0.950 1_554 S
C291 C289 1.390 . S
C291 C292 1.387 . S
C291 H294 0.950 . S
C292 C291 1.387 . S
C292 C295 1.387 . S
H293 C289 0.950 . S
H294 C291 0.950 . S
C295 C286 1.390 . S
C295 H288 0.950 . S
C295 C292 1.387 . S
C296 C297 1.387 1_455 S
C296 H300 0.950 . S
C296 C305 1.390 . S
C297 C296 1.387 1_655 S
C297 C299 1.387 . S
H298 C305 0.950 . S
C299 C297 1.387 . S
C299 C301 1.390 . S
C299 H303 0.950 . S
H300 C296 0.950 . S
C301 C299 1.390 . S
C301 C302 1.394 . S
C301 H304 0.950 . S
C302 C301 1.394 . S
C302 C305 1.377 1_655 S
H303 C299 0.950 . S
H304 C301 0.950 . S
C305 C296 1.390 . S
C305 H298 0.950 . S
C305 C302 1.377 1_455 S
C192 C63 1.492 . S
C187 C6 1.480 1_455 S
C197 C22 1.587 . S
C202 C111 1.611 . S
C207 C34 1.301 . S
C212 C183 1.317 . S
C217 C7 1.474 . S
C222 C87 1.495 . S
C232 C135 1.607 1_565 S
C227 C23 1.588 . S
C237 C35 1.303 . S
C242 C159 1.321 . S
C252 C120 1.601 . S
C247 C36 1.595 . S
C257 C9 1.785 . S
C262 C174 1.810 . S
C272 C78 1.493 1_455 S
C267 C21 1.468 1_455 S
C282 C126 1.612 1_545 S
C277 C37 1.595 . S
C292 C168 1.807 . S
C287 C8 1.782 . S
C297 C20 1.466 1_655 S
C302 C72 1.490 . S
