# Generated by pormake.
# Topology nom, (4,4)-cn, num edge types: 1
# Building blocks:
#     Node 0, Type 0, BuildingBlock: MIFKUJ_clean_linker_1, # of connection points: 4
#     Node 1, Type 0, BuildingBlock: MIFKUJ_clean_linker_1, # of connection points: 4
#     Node 2, Type 0, BuildingBlock: MIFKUJ_clean_linker_1, # of connection points: 4
#     Node 3, Type 0, BuildingBlock: MIFKUJ_clean_linker_1, # of connection points: 4
#     Node 4, Type 0, BuildingBlock: MIFKUJ_clean_linker_1, # of connection points: 4
#     Node 5, Type 0, BuildingBlock: MIFKUJ_clean_linker_1, # of connection points: 4
#     Node 6, Type 1, BuildingBlock: KUFVIS_clean_sbu_0, # of connection points: 4
#     Node 7, Type 1, BuildingBlock: KUFVIS_clean_sbu_0, # of connection points: 4
#     Node 8, Type 1, BuildingBlock: KUFVIS_clean_sbu_0, # of connection points: 4
#     Node 9, Type 1, BuildingBlock: KUFVIS_clean_sbu_0, # of connection points: 4
#     Node 10, Type 1, BuildingBlock: KUFVIS_clean_sbu_0, # of connection points: 4
#     Node 11, Type 1, BuildingBlock: KUFVIS_clean_sbu_0, # of connection points: 4
#     Edge 12, Type (0, 1), BuildingBlock: XIVTED_clean_linker_0, # of connection points: 2
#     Edge 13, Type (0, 1), BuildingBlock: XIVTED_clean_linker_0, # of connection points: 2
#     Edge 14, Type (0, 1), BuildingBlock: XIVTED_clean_linker_0, # of connection points: 2
#     Edge 15, Type (0, 1), BuildingBlock: XIVTED_clean_linker_0, # of connection points: 2
#     Edge 16, Type (0, 1), BuildingBlock: XIVTED_clean_linker_0, # of connection points: 2
#     Edge 17, Type (0, 1), BuildingBlock: XIVTED_clean_linker_0, # of connection points: 2
#     Edge 18, Type (0, 1), BuildingBlock: XIVTED_clean_linker_0, # of connection points: 2
#     Edge 19, Type (0, 1), BuildingBlock: XIVTED_clean_linker_0, # of connection points: 2
#     Edge 20, Type (0, 1), BuildingBlock: XIVTED_clean_linker_0, # of connection points: 2
#     Edge 21, Type (0, 1), BuildingBlock: XIVTED_clean_linker_0, # of connection points: 2
#     Edge 22, Type (0, 1), BuildingBlock: XIVTED_clean_linker_0, # of connection points: 2
#     Edge 23, Type (0, 1), BuildingBlock: XIVTED_clean_linker_0, # of connection points: 2
#     Edge 24, Type (0, 1), BuildingBlock: XIVTED_clean_linker_0, # of connection points: 2
#     Edge 25, Type (0, 1), BuildingBlock: XIVTED_clean_linker_0, # of connection points: 2
#     Edge 26, Type (0, 1), BuildingBlock: XIVTED_clean_linker_0, # of connection points: 2
#     Edge 27, Type (0, 1), BuildingBlock: XIVTED_clean_linker_0, # of connection points: 2
#     Edge 28, Type (0, 1), BuildingBlock: XIVTED_clean_linker_0, # of connection points: 2
#     Edge 29, Type (0, 1), BuildingBlock: XIVTED_clean_linker_0, # of connection points: 2
#     Edge 30, Type (0, 1), BuildingBlock: XIVTED_clean_linker_0, # of connection points: 2
#     Edge 31, Type (0, 1), BuildingBlock: XIVTED_clean_linker_0, # of connection points: 2
#     Edge 32, Type (0, 1), BuildingBlock: XIVTED_clean_linker_0, # of connection points: 2
#     Edge 33, Type (0, 1), BuildingBlock: XIVTED_clean_linker_0, # of connection points: 2
#     Edge 34, Type (0, 1), BuildingBlock: XIVTED_clean_linker_0, # of connection points: 2
#     Edge 35, Type (0, 1), BuildingBlock: XIVTED_clean_linker_0, # of connection points: 2
# Relax obj value: 0.001
# Max RMSD: 0.099
# Mean RMSD: 0.062
data_MOF--net-nom--node1-KUFVIS_clean_sbu_0--node2-MIFKUJ_clean_linker_1--edge1-XIVTED_clean_linker_0
_symmetry_space_group_name_H-M    P1
_symmetry_Int_Tables_number       1
_symmetry_cell_setting            triclinic
loop_
_symmetry_equiv_pos_as_xyz
'x, y, z'
_cell_length_a     53.030126
_cell_length_b     53.568601
_cell_length_c     56.653109
_cell_angle_alpha  90.606945
_cell_angle_beta   90.719145
_cell_angle_gamma 120.03208
loop_
_atom_site_label
_atom_site_type_symbol
_atom_site_fract_x
_atom_site_fract_y
_atom_site_fract_z
_atom_type_partial_charge
H0 H 0.97629 0.47635 0.27665 0.0
H1 H 0.94186 0.45794 0.24295 0.0
H2 H 0.92357 0.52729 0.25318 0.0
H3 H 0.95778 0.5454 0.28704 0.0
H4 H 0.02704 0.5365 0.28191 0.0
H5 H 0.93541 0.46821 0.32092 0.0
H6 H 0.8849 0.4491 0.33309 0.0
H7 H 0.90693 0.53396 0.3591 0.0
H8 H 0.95722 0.55254 0.34747 0.0
H9 H 0.03713 0.58572 0.37585 0.0
H10 H 0.0701 0.60261 0.41023 0.0
H11 H 0.10526 0.54874 0.38848 0.0
H12 H 0.07243 0.53221 0.35395 0.0
H13 H 0.99474 0.53414 0.36405 0.0
H14 H 0.08182 0.60331 0.33134 0.0
H15 H 0.13303 0.63023 0.32082 0.0
H16 H 0.12208 0.55741 0.27914 0.0
H17 H 0.07086 0.52996 0.29042 0.0
C18 C 0.96939 0.5121 0.28429 0.0
C19 C 0.96478 0.48749 0.27163 0.0
C20 C 0.94508 0.47697 0.25251 0.0
C21 C 0.93013 0.49124 0.24553 0.0
C22 C 0.93498 0.51604 0.25814 0.0
C23 C 0.95435 0.52629 0.27748 0.0
C24 C 0.99029 0.52323 0.30443 0.0
C25 C 0.02011 0.53554 0.29998 0.0
C26 C 0.9811 0.52327 0.32768 0.0
C27 C 0.95005 0.51177 0.33338 0.0
C28 C 0.92919 0.48268 0.32906 0.0
C29 C 0.90033 0.47181 0.33598 0.0
C30 C 0.89189 0.4899 0.34734 0.0
C31 C 0.91276 0.51923 0.35093 0.0
C32 C 0.94152 0.52997 0.34417 0.0
C33 C 0.05241 0.55782 0.36227 0.0
C34 C 0.05195 0.57756 0.3785 0.0
C35 C 0.07074 0.58711 0.39819 0.0
C36 C 0.09028 0.57698 0.40215 0.0
C37 C 0.09079 0.55729 0.38579 0.0
C38 C 0.07199 0.54777 0.36606 0.0
C39 C 0.03177 0.54708 0.34177 0.0
C40 C 1.00192 0.5349 0.34609 0.0
C41 C 0.04113 0.54817 0.31828 0.0
C42 C 0.07249 0.5643 0.31213 0.0
C43 C 0.09048 0.59279 0.3204 0.0
C44 C 0.11976 0.60825 0.31427 0.0
C45 C 0.13155 0.59583 0.29928 0.0
C46 C 0.1135 0.56751 0.29067 0.0
C47 C 0.08427 0.55184 0.29713 0.0
H48 H 0.42764 0.9642 0.52011 0.0
H49 H 0.39974 0.91421 0.53263 0.0
H50 H 0.46333 0.89668 0.50137 0.0
H51 H 0.49114 0.94676 0.48886 0.0
H52 H 0.48127 0.00469 0.53277 0.0
H53 H 0.4323 0.96431 0.45648 0.0
H54 H 0.41649 0.93077 0.42243 0.0
H55 H 0.50553 0.95213 0.41186 0.0
H56 H 0.5213 0.98604 0.44564 0.0
H57 H 0.56562 0.0817 0.46684 0.0
H58 H 0.58812 0.13206 0.45426 0.0
H59 H 0.51244 0.13528 0.47714 0.0
H60 H 0.49034 0.08528 0.49006 0.0
H61 H 0.51025 0.03458 0.45033 0.0
H62 H 0.55941 0.08141 0.52225 0.0
H63 H 0.57554 0.1142 0.55645 0.0
H64 H 0.48585 0.08009 0.57627 0.0
H65 H 0.46995 0.04698 0.54217 0.0
C66 C 0.46135 0.95922 0.50334 0.0
C67 C 0.43555 0.94958 0.51591 0.0
C68 C 0.4197 0.92101 0.52317 0.0
C69 C 0.42935 0.90144 0.51809 0.0
C70 C 0.45509 0.91108 0.50532 0.0
C71 C 0.47099 0.93971 0.4981 0.0
C72 C 0.4788 0.99001 0.49682 0.0
C73 C 0.48724 0.01121 0.51468 0.0
C74 C 0.48757 0.99859 0.47341 0.0
C75 C 0.47792 0.97749 0.45355 0.0
C76 C 0.44835 0.96165 0.44685 0.0
C77 C 0.4394 0.94267 0.4274 0.0
C78 C 0.45983 0.93895 0.41459 0.0
C79 C 0.48937 0.95452 0.42156 0.0
C80 C 0.49838 0.9739 0.44074 0.0
C81 C 0.52641 0.07987 0.47947 0.0
C82 C 0.55403 0.09338 0.46928 0.0
C83 C 0.56686 0.12208 0.46219 0.0
C84 C 0.55192 0.13743 0.46467 0.0
C85 C 0.5243 0.12384 0.47489 0.0
C86 C 0.51175 0.09539 0.48238 0.0
C87 C 0.51214 0.04919 0.48622 0.0
C88 C 0.50435 0.02804 0.46842 0.0
C89 C 0.50391 0.04067 0.50971 0.0
C90 C 0.51347 0.0619 0.52956 0.0
C91 C 0.54321 0.08129 0.53378 0.0
C92 C 0.55239 0.10005 0.55336 0.0
C93 C 0.53199 0.09977 0.56916 0.0
C94 C 0.50217 0.08056 0.56469 0.0
C95 C 0.49302 0.06174 0.54513 0.0
H96 H 0.52393 0.55556 0.7135 0.0
H97 H 0.50687 0.5704 0.748 0.0
H98 H 0.4195 0.52682 0.7185 0.0
H99 H 0.43616 0.5106 0.68459 0.0
H100 H 0.51006 0.50355 0.69922 0.0
H101 H 0.49418 0.57939 0.66444 0.0
H102 H 0.46099 0.59775 0.65566 0.0
H103 H 0.40546 0.52004 0.61494 0.0
H104 H 0.43783 0.50151 0.62444 0.0
H105 H 0.47983 0.47153 0.59931 0.0
H106 H 0.49522 0.45411 0.56595 0.0
H107 H 0.57881 0.48367 0.60085 0.0
H108 H 0.56439 0.50413 0.63276 0.0
H109 H 0.49292 0.51896 0.61584 0.0
H110 H 0.49751 0.4401 0.64855 0.0
H111 H 0.5176 0.40965 0.66026 0.0
H112 H 0.58082 0.4784 0.70569 0.0
H113 H 0.56115 0.50911 0.69347 0.0
C114 C 0.48148 0.53237 0.69618 0.0
C115 C 0.50108 0.54916 0.71442 0.0
C116 C 0.49139 0.55766 0.73408 0.0
C117 C 0.46198 0.54989 0.73571 0.0
C118 C 0.44236 0.53338 0.71742 0.0
C119 C 0.45193 0.52427 0.69801 0.0
C120 C 0.49192 0.52228 0.67597 0.0
C121 C 0.5068 0.50736 0.68096 0.0
C122 C 0.48637 0.526 0.65212 0.0
C123 C 0.46828 0.5389 0.64537 0.0
C124 C 0.47484 0.56638 0.65363 0.0
C125 C 0.45597 0.57691 0.64848 0.0
C126 C 0.43036 0.56015 0.63491 0.0
C127 C 0.42462 0.53321 0.62591 0.0
C128 C 0.44331 0.52272 0.6311 0.0
C129 C 0.52075 0.48895 0.61885 0.0
C130 C 0.50167 0.47469 0.59963 0.0
C131 C 0.51041 0.46419 0.58062 0.0
C132 C 0.53828 0.46701 0.58051 0.0
C133 C 0.55735 0.48132 0.59985 0.0
C134 C 0.54889 0.49263 0.61851 0.0
C135 C 0.51113 0.50009 0.63901 0.0
C136 C 0.49658 0.51538 0.63406 0.0
C137 C 0.51579 0.49556 0.66292 0.0
C138 C 0.52813 0.4771 0.66981 0.0
C139 C 0.51599 0.44881 0.66074 0.0
C140 C 0.52743 0.4314 0.66748 0.0
C141 C 0.55083 0.44172 0.68382 0.0
C142 C 0.56267 0.46985 0.69318 0.0
C143 C 0.55148 0.4874 0.68618 0.0
H144 H 0.03451 0.5671 0.77204 0.0
H145 H 0.06717 0.58102 0.73842 0.0
H146 H 0.09425 0.52063 0.75977 0.0
H147 H 0.06113 0.50645 0.79301 0.0
H148 H 0.9877 0.50988 0.78282 0.0
H149 H 0.08465 0.58253 0.81652 0.0
H150 H 0.13589 0.5977 0.82487 0.0
H151 H 0.10883 0.51992 0.86425 0.0
H152 H 0.05813 0.50445 0.85505 0.0
H153 H 0.98771 0.47772 0.88026 0.0
H154 H 0.95495 0.46 0.91341 0.0
H155 H 0.90672 0.49863 0.88492 0.0
H156 H 0.94071 0.5177 0.8523 0.0
H157 H 0.02478 0.52651 0.8656 0.0
H158 H 0.93903 0.44949 0.83589 0.0
H159 H 0.88765 0.41761 0.82567 0.0
H160 H 0.89058 0.48048 0.77716 0.0
H161 H 0.9418 0.51337 0.78846 0.0
C162 C 0.04559 0.53594 0.78509 0.0
C163 C 0.04748 0.55687 0.76941 0.0
C164 C 0.06632 0.56496 0.75034 0.0
C165 C 0.0834 0.55202 0.74647 0.0
C166 C 0.08123 0.53085 0.76214 0.0
C167 C 0.06247 0.52285 0.78123 0.0
C168 C 0.02586 0.52773 0.80544 0.0
C169 C 0.99569 0.51404 0.80097 0.0
C170 C 0.03639 0.53154 0.82903 0.0
C171 C 0.06754 0.5422 0.83495 0.0
C172 C 0.08984 0.56872 0.82684 0.0
C173 C 0.1191 0.57746 0.83177 0.0
C174 C 0.12649 0.55986 0.845 0.0
C175 C 0.104 0.53371 0.85357 0.0
C176 C 0.07493 0.52498 0.84856 0.0
C177 C 0.96665 0.49893 0.86365 0.0
C178 C 0.97034 0.48274 0.88127 0.0
C179 C 0.95127 0.47225 0.90009 0.0
C180 C 0.92789 0.47753 0.90172 0.0
C181 C 0.92455 0.49427 0.88431 0.0
C182 C 0.94383 0.50498 0.86552 0.0
C183 C 0.98638 0.50879 0.84314 0.0
C184 C 0.01656 0.52284 0.84752 0.0
C185 C 0.97572 0.50341 0.81946 0.0
C186 C 0.94425 0.48428 0.81345 0.0
C187 C 0.92852 0.45694 0.8236 0.0
C188 C 0.89919 0.43861 0.81767 0.0
C189 C 0.88523 0.44679 0.80084 0.0
C190 C 0.90094 0.47384 0.79029 0.0
C191 C 0.93016 0.49253 0.79669 0.0
H192 H 0.57755 0.06547 0.01796 0.0
H193 H 0.61222 0.11566 0.02816 0.0
H194 H 0.55311 0.14107 0.99844 0.0
H195 H 0.51777 0.09043 0.98951 0.0
H196 H 0.52162 0.03038 0.03242 0.0
H197 H 0.56726 0.05272 0.95038 0.0
H198 H 0.58627 0.08586 0.91753 0.0
H199 H 0.51016 0.09585 0.91907 0.0
H200 H 0.49062 0.06108 0.95084 0.0
H201 H 0.43818 0.94929 0.96384 0.0
H202 H 0.41786 0.89875 0.95081 0.0
H203 H 0.49557 0.90033 0.97671 0.0
H204 H 0.51549 0.95048 0.99005 0.0
H205 H 0.49396 0.99754 0.94906 0.0
H206 H 0.44455 0.94827 0.01855 0.0
H207 H 0.43082 0.91444 0.0509 0.0
H208 H 0.51989 0.95955 0.07724 0.0
H209 H 0.53374 0.99212 0.0441 0.0
C210 C 0.54527 0.07424 0.00263 0.0
C211 C 0.57199 0.08184 0.01376 0.0
C212 C 0.59194 0.11063 0.01934 0.0
C213 C 0.58568 0.13254 0.01383 0.0
C214 C 0.55863 0.12479 0.00301 0.0
C215 C 0.53855 0.09588 0.99759 0.0
C216 C 0.52475 0.04358 0.99634 0.0
C217 C 0.51542 0.02309 0.01424 0.0
C218 C 0.51627 0.03425 0.97267 0.0
C219 C 0.52765 0.05463 0.95298 0.0
C220 C 0.5547 0.06202 0.94346 0.0
C221 C 0.56565 0.08126 0.92482 0.0
C222 C 0.54994 0.09387 0.91554 0.0
C223 C 0.52276 0.08633 0.92532 0.0
C224 C 0.51159 0.06662 0.94366 0.0
C225 C 0.4782 0.95345 0.97802 0.0
C226 C 0.45067 0.93862 0.96683 0.0
C227 C 0.4391 0.90984 0.95948 0.0
C228 C 0.45525 0.89581 0.96271 0.0
C229 C 0.48281 0.91076 0.97388 0.0
C230 C 0.4941 0.93928 0.9816 0.0
C231 C 0.49116 0.98415 0.98516 0.0
C232 C 0.4993 0.00468 0.96737 0.0
C233 C 0.4988 0.9934 0.00899 0.0
C234 C 0.49028 0.97264 0.02866 0.0
C235 C 0.46123 0.95056 0.03105 0.0
C236 C 0.45332 0.93143 0.04979 0.0
C237 C 0.47422 0.93416 0.06677 0.0
C238 C 0.50326 0.95638 0.06434 0.0
C239 C 0.51118 0.97531 0.0455 0.0
H240 H 0.51264 0.46134 0.18774 0.0
H241 H 0.52795 0.44554 0.22276 0.0
H242 H 0.584 0.53466 0.24443 0.0
H243 H 0.56781 0.55005 0.20992 0.0
H244 H 0.51307 0.53832 0.19796 0.0
H245 H 0.5145 0.4631 0.12307 0.0
H246 H 0.54173 0.43925 0.11153 0.0
H247 H 0.61404 0.49888 0.15624 0.0
H248 H 0.58719 0.52315 0.1672 0.0
H249 H 0.54114 0.56886 0.10157 0.0
H250 H 0.52537 0.58653 0.06823 0.0
H251 H 0.43738 0.54257 0.09404 0.0
H252 H 0.45357 0.5255 0.12767 0.0
H253 H 0.5252 0.51508 0.11542 0.0
H254 H 0.52072 0.59647 0.14405 0.0
H255 H 0.50076 0.6274 0.15473 0.0
H256 H 0.44359 0.56394 0.20393 0.0
H257 H 0.46242 0.53223 0.19235 0.0
C258 C 0.53903 0.50686 0.19628 0.0
C259 C 0.5283 0.4774 0.20004 0.0
C260 C 0.5372 0.46844 0.22003 0.0
C261 C 0.5571 0.48879 0.2366 0.0
C262 C 0.56816 0.5183 0.23242 0.0
C263 C 0.55906 0.5272 0.21261 0.0
C264 C 0.52896 0.51665 0.17567 0.0
C265 C 0.51544 0.53303 0.17989 0.0
C266 C 0.53267 0.51017 0.15213 0.0
C267 C 0.54857 0.49468 0.1463 0.0
C268 C 0.53619 0.471 0.13044 0.0
C269 C 0.55176 0.45742 0.12383 0.0
C270 C 0.57993 0.46714 0.13308 0.0
C271 C 0.59218 0.49063 0.14913 0.0
C272 C 0.57677 0.50444 0.15549 0.0
C273 C 0.49857 0.54599 0.11715 0.0
C274 C 0.51842 0.56291 0.09995 0.0
C275 C 0.50932 0.57293 0.08085 0.0
C276 C 0.48008 0.566 0.07841 0.0
C277 C 0.46015 0.54872 0.09556 0.0
C278 C 0.46931 0.53881 0.11473 0.0
C279 C 0.50871 0.53623 0.13772 0.0
C280 C 0.52229 0.5199 0.1335 0.0
C281 C 0.50542 0.54312 0.16126 0.0
C282 C 0.49275 0.5617 0.16707 0.0
C283 C 0.50331 0.58875 0.15663 0.0
C284 C 0.49201 0.60651 0.16281 0.0
C285 C 0.4706 0.59793 0.18005 0.0
C286 C 0.46011 0.57099 0.19058 0.0
C287 C 0.47093 0.55296 0.18402 0.0
Mn288 Mn 0.62772 0.38674 0.41305 0.0
Mn289 Mn 0.6601 0.45754 0.42805 0.0
C290 C 0.60745 0.4024 0.44151 0.0
C291 C 0.62185 0.34093 0.41799 0.0
C292 C 0.62473 0.4321 0.38268 0.0
O293 O 0.66864 0.40287 0.40008 0.0
O294 O 0.68879 0.4488 0.41355 0.0
C295 C 0.70056 0.4597 0.46556 0.0
N296 N 0.67883 0.46458 0.45838 0.0
C297 C 0.67868 0.48523 0.49627 0.0
C298 C 0.70124 0.48065 0.50402 0.0
C299 C 0.71214 0.46773 0.48862 0.0
C300 C 0.66807 0.47685 0.47308 0.0
H301 H 0.70896 0.44973 0.45379 0.0
C302 C 0.69039 0.42832 0.40308 0.0
O303 O 0.61438 0.34804 0.39838 0.0
O304 O 0.63366 0.36073 0.43442 0.0
N305 N 0.635 0.46904 0.44256 0.0
C306 C 0.61173 0.46983 0.43296 0.0
C307 C 0.59747 0.48104 0.44641 0.0
C308 C 0.60745 0.49157 0.46947 0.0
C309 C 0.63158 0.49074 0.4789 0.0
C310 C 0.64496 0.47938 0.46464 0.0
H311 H 0.60399 0.46181 0.41524 0.0
O312 O 0.59159 0.37802 0.43035 0.0
O313 O 0.63469 0.41687 0.43578 0.0
O314 O 0.61724 0.40588 0.38649 0.0
O315 O 0.64106 0.45286 0.39685 0.0
C316 C 0.64248 0.50011 0.50207 0.0
C317 C 0.66594 0.49726 0.51078 0.0
H318 H 0.71015 0.48671 0.52182 0.0
H319 H 0.72942 0.46396 0.49452 0.0
H320 H 0.57881 0.48154 0.43903 0.0
H321 H 0.59625 0.49999 0.47986 0.0
H322 H 0.63262 0.50905 0.51349 0.0
H323 H 0.67374 0.50402 0.52877 0.0
Mn324 Mn 0.25856 0.6519 0.57349 0.0
Mn325 Mn 0.21996 0.58088 0.55926 0.0
C326 C 0.22134 0.63519 0.54549 0.0
C327 C 0.29832 0.69775 0.56748 0.0
C328 C 0.21076 0.60638 0.60418 0.0
O329 O 0.2843 0.63679 0.58651 0.0
O330 O 0.25765 0.59023 0.57463 0.0
C331 C 0.25863 0.57967 0.5226 0.0
N332 N 0.23185 0.5745 0.52917 0.0
C333 C 0.21161 0.55606 0.49037 0.0
C334 C 0.23894 0.56101 0.48323 0.0
C335 C 0.26256 0.57293 0.4994 0.0
C336 C 0.209 0.56313 0.51373 0.0
H337 H 0.27686 0.58892 0.53496 0.0
C338 C 0.28018 0.61123 0.58472 0.0
O339 O 0.28474 0.69118 0.58738 0.0
O340 O 0.2894 0.67743 0.55151 0.0
N341 N 0.18303 0.56873 0.54413 0.0
C342 C 0.15841 0.5663 0.55358 0.0
C343 C 0.13289 0.55524 0.53956 0.0
C344 C 0.13289 0.54656 0.51607 0.0
C345 C 0.15837 0.54885 0.50686 0.0
C346 C 0.18307 0.55984 0.52172 0.0
H347 H 0.15827 0.57289 0.57163 0.0
O348 O 0.23014 0.65972 0.55631 0.0
O349 O 0.23465 0.62127 0.55129 0.0
O350 O 0.22967 0.63264 0.6003 0.0
O351 O 0.20581 0.58553 0.59013 0.0
C352 C 0.16037 0.54116 0.48338 0.0
C353 C 0.18699 0.54482 0.47513 0.0
H354 H 0.24209 0.55595 0.46533 0.0
H355 H 0.28375 0.57694 0.49399 0.0
H356 H 0.11331 0.55349 0.54681 0.0
H357 H 0.11326 0.53833 0.50524 0.0
H358 H 0.14168 0.53278 0.47143 0.0
H359 H 0.18836 0.53918 0.45696 0.0
Mn360 Mn 0.62281 0.26477 0.74114 0.0
Mn361 Mn 0.65696 0.22743 0.72937 0.0
C362 C 0.60217 0.22656 0.7144 0.0
C363 C 0.61631 0.30382 0.73333 0.0
C364 C 0.62406 0.22128 0.77453 0.0
O365 O 0.66409 0.29093 0.7541 0.0
O366 O 0.68615 0.26693 0.74081 0.0
C367 C 0.69216 0.26061 0.68892 0.0
N368 N 0.67191 0.23508 0.69813 0.0
C369 C 0.66629 0.21003 0.66119 0.0
C370 C 0.68737 0.23599 0.65141 0.0
C371 C 0.7003 0.2614 0.66533 0.0
C372 C 0.65924 0.21052 0.68486 0.0
H373 H 0.70189 0.28024 0.69947 0.0
C374 C 0.68676 0.28886 0.75075 0.0
O375 O 0.60967 0.29126 0.75363 0.0
O376 O 0.62743 0.29418 0.71795 0.0
N377 N 0.63113 0.18903 0.71776 0.0
C378 C 0.60986 0.16618 0.72938 0.0
C379 C 0.59409 0.13931 0.71767 0.0
C380 C 0.60041 0.13617 0.69419 0.0
C381 C 0.62253 0.15993 0.68265 0.0
C382 C 0.63773 0.1861 0.69529 0.0
H383 H 0.60485 0.16844 0.74741 0.0
O384 O 0.58622 0.2357 0.72418 0.0
O385 O 0.62962 0.2403 0.72039 0.0
O386 O 0.61387 0.23749 0.7687 0.0
O387 O 0.6416 0.21742 0.76177 0.0
C388 C 0.62966 0.15881 0.65893 0.0
C389 C 0.65148 0.18385 0.6482 0.0
H390 H 0.69353 0.23674 0.63316 0.0
H391 H 0.71638 0.28157 0.65785 0.0
H392 H 0.57702 0.12109 0.72669 0.0
H393 H 0.58798 0.11549 0.68514 0.0
H394 H 0.61816 0.13891 0.64867 0.0
H395 H 0.65643 0.18283 0.62984 0.0
Mn396 Mn 0.38836 0.64641 0.91223 0.0
Mn397 Mn 0.35497 0.57574 0.92568 0.0
C398 C 0.40853 0.63062 0.9406 0.0
C399 C 0.39471 0.6924 0.91753 0.0
C400 C 0.39061 0.59989 0.88178 0.0
O401 O 0.34761 0.63103 0.89839 0.0
O402 O 0.3271 0.58464 0.90915 0.0
C403 C 0.31424 0.57606 0.96079 0.0
N404 N 0.33575 0.57038 0.95507 0.0
C405 C 0.33572 0.55259 0.99391 0.0
C406 C 0.31342 0.55807 1.00016 0.0
C407 C 0.30269 0.56993 0.98354 0.0
C408 C 0.34635 0.55913 0.97096 0.0
H409 H 0.30598 0.58523 0.94808 0.0
C410 C 0.32592 0.60548 0.89929 0.0
O411 O 0.40196 0.68482 0.89807 0.0
O412 O 0.38327 0.6731 0.93372 0.0
N413 N 0.37891 0.56374 0.94186 0.0
C414 C 0.40114 0.56068 0.9333 0.0
C415 C 0.41452 0.54938 0.94782 0.0
C416 C 0.40477 0.5411 0.97089 0.0
C417 C 0.38161 0.54408 0.97921 0.0
C418 C 0.36896 0.55526 0.96387 0.0
H419 H 0.40881 0.5671 0.91563 0.0
O420 O 0.42456 0.65481 0.93009 0.0
O421 O 0.3811 0.61647 0.93438 0.0
O422 O 0.39763 0.62612 0.88567 0.0
O423 O 0.3748 0.57938 0.89556 0.0
C424 C 0.37094 0.53691 0.00226 0.0
C425 C 0.34808 0.54125 0.00963 0.0
H426 H 0.30451 0.55344 0.01771 0.0
H427 H 0.28558 0.57435 0.98827 0.0
H428 H 0.43242 0.54718 0.94127 0.0
H429 H 0.41537 0.5327 0.98212 0.0
H430 H 0.38043 0.52842 0.01457 0.0
H431 H 0.34031 0.536 0.02749 0.0
Mn432 Mn 0.75731 0.39462 0.07772 0.0
Mn433 Mn 0.79883 0.36439 0.08857 0.0
C434 C 0.79578 0.41624 0.1045 0.0
C435 C 0.71663 0.39887 0.08582 0.0
C436 C 0.80385 0.39802 0.04442 0.0
O437 O 0.73234 0.35372 0.06458 0.0
O438 O 0.76061 0.33494 0.07465 0.0
C439 C 0.76401 0.32465 0.12626 0.0
N440 N 0.78981 0.34665 0.11873 0.0
C441 C 0.8134 0.34958 0.15606 0.0
C442 C 0.78712 0.32681 0.16417 0.0
C443 C 0.76231 0.31435 0.14922 0.0
C444 C 0.8138 0.35884 0.13297 0.0
H445 H 0.74488 0.31507 0.11484 0.0
C446 C 0.73726 0.33273 0.06563 0.0
O447 O 0.72918 0.40605 0.0655 0.0
O448 O 0.72719 0.38845 0.10105 0.0
N449 N 0.83638 0.39036 0.1022 0.0
C450 C 0.85955 0.41316 0.09214 0.0
C451 C 0.88588 0.42859 0.10503 0.0
C452 C 0.88819 0.42027 0.12803 0.0
C453 C 0.86415 0.39653 0.1379 0.0
C454 C 0.83853 0.38187 0.12416 0.0
H455 H 0.85791 0.41964 0.07447 0.0
O456 O 0.78547 0.43116 0.09474 0.0
O457 O 0.78317 0.3891 0.09838 0.0
O458 O 0.78489 0.40503 0.0498 0.0
O459 O 0.81017 0.38253 0.05746 0.0
C460 C 0.86442 0.3872 0.16101 0.0
C461 C 0.83904 0.36379 0.17011 0.0
H462 H 0.78568 0.3189 0.1819 0.0
H463 H 0.74192 0.29687 0.1554 0.0
H464 H 0.90433 0.4469 0.09729 0.0
H465 H 0.90845 0.4324 0.138 0.0
H466 H 0.88389 0.39817 0.17209 0.0
H467 H 0.83939 0.35711 0.18803 0.0
Mn468 Mn 0.38269 0.77 0.24531 0.0
Mn469 Mn 0.45473 0.80848 0.25802 0.0
C470 C 0.40027 0.80802 0.27228 0.0
C471 C 0.33695 0.7304 0.25252 0.0
C472 C 0.4273 0.81422 0.21239 0.0
O473 O 0.39811 0.74449 0.23263 0.0
O474 O 0.44465 0.76941 0.2462 0.0
C475 C 0.45789 0.7752 0.2982 0.0
N476 N 0.4628 0.80068 0.28918 0.0
C477 C 0.48406 0.82572 0.32601 0.0
C478 C 0.47954 0.79981 0.33561 0.0
C479 C 0.46631 0.77442 0.32166 0.0
C480 C 0.47539 0.82521 0.30248 0.0
H481 H 0.44751 0.75561 0.2876 0.0
C482 C 0.42327 0.7473 0.23603 0.0
O483 O 0.3428 0.74309 0.23227 0.0
O484 O 0.3579 0.74021 0.26821 0.0
N485 N 0.46724 0.84658 0.26994 0.0
C486 C 0.468 0.86925 0.2586 0.0
C487 C 0.47941 0.896 0.27047 0.0
C488 C 0.49009 0.89921 0.29378 0.0
C489 C 0.48928 0.87563 0.30502 0.0
C490 C 0.47782 0.84955 0.29226 0.0
H491 H 0.45984 0.86693 0.24069 0.0
O492 O 0.37502 0.79857 0.26203 0.0
O493 O 0.41426 0.79476 0.26658 0.0
O494 O 0.40081 0.79741 0.21775 0.0
O495 O 0.44885 0.81871 0.22572 0.0
C496 C 0.4988 0.87682 0.32855 0.0
C497 C 0.49617 0.85188 0.33904 0.0
H498 H 0.48582 0.79908 0.35374 0.0
H499 H 0.46252 0.75429 0.329 0.0
H500 H 0.47991 0.91407 0.26169 0.0
H501 H 0.49863 0.9198 0.30295 0.0
H502 H 0.5077 0.89668 0.33887 0.0
H503 H 0.50307 0.85294 0.35728 0.0
H504 H 0.17922 0.62753 0.32795 0.0
H505 H 0.28911 0.70218 0.22285 0.0
H506 H 0.15407 0.60283 0.25498 0.0
H507 H 0.31714 0.70608 0.29532 0.0
H508 H 0.2393 0.66674 0.23385 0.0
H509 H 0.22977 0.65778 0.31613 0.0
C510 C 0.18441 0.62845 0.30943 0.0
C511 C 0.16247 0.61277 0.2924 0.0
C512 C 0.25644 0.67518 0.24727 0.0
C513 C 0.22022 0.64742 0.27869 0.0
C514 C 0.28484 0.69541 0.24102 0.0
C515 C 0.30729 0.70718 0.25821 0.0
C516 C 0.25042 0.66699 0.27094 0.0
C517 C 0.30053 0.69762 0.28148 0.0
C518 C 0.21326 0.64559 0.30269 0.0
C519 C 0.1704 0.61448 0.26866 0.0
N520 N 0.27269 0.67832 0.28719 0.0
N521 N 0.19861 0.63175 0.26246 0.0
H522 H 0.60615 0.18352 0.47462 0.0
H523 H 0.58462 0.29223 0.39258 0.0
H524 H 0.52667 0.15919 0.43546 0.0
H525 H 0.64293 0.32139 0.4533 0.0
H526 H 0.5694 0.24231 0.4024 0.0
H527 H 0.62589 0.23339 0.46146 0.0
C528 C 0.593 0.18868 0.46311 0.0
C529 C 0.56471 0.16736 0.45621 0.0
C530 C 0.58569 0.25967 0.41345 0.0
C531 C 0.58715 0.22395 0.44094 0.0
C532 C 0.59452 0.28816 0.40779 0.0
C533 C 0.61496 0.31098 0.42223 0.0
C534 C 0.59769 0.25397 0.4335 0.0
C535 C 0.62698 0.30442 0.44178 0.0
C536 C 0.60419 0.21706 0.45571 0.0
C537 C 0.54847 0.17511 0.44136 0.0
N538 N 0.61816 0.27649 0.44686 0.0
N539 N 0.55995 0.20275 0.43416 0.0
H540 H 0.44094 0.61454 0.62367 0.0
H541 H 0.27319 0.55868 0.5952 0.0
H542 H 0.37109 0.52815 0.63632 0.0
H543 H 0.33773 0.64933 0.59676 0.0
H544 H 0.30977 0.54774 0.6097 0.0
H545 H 0.40458 0.62862 0.61377 0.0
C546 C 0.41801 0.59862 0.62457 0.0
C547 C 0.40905 0.56999 0.63046 0.0
C548 C 0.31602 0.57008 0.60702 0.0
C549 C 0.36752 0.58585 0.619 0.0
C550 C 0.2951 0.57636 0.59862 0.0
C551 C 0.30239 0.60499 0.59462 0.0
C552 C 0.3447 0.5925 0.61128 0.0
C553 C 0.33115 0.62695 0.59962 0.0
C554 C 0.3973 0.60664 0.61885 0.0
C555 C 0.37906 0.55026 0.63129 0.0
N556 N 0.35137 0.62023 0.60752 0.0
N557 N 0.35946 0.5585 0.62546 0.0
H558 H 0.83735 0.42018 0.82856 0.0
H559 H 0.73944 0.30395 0.73186 0.0
H560 H 0.86446 0.42641 0.75642 0.0
H561 H 0.69976 0.32961 0.78584 0.0
H562 H 0.78699 0.34454 0.74352 0.0
H563 H 0.78779 0.38302 0.81609 0.0
C564 C 0.83272 0.41383 0.81009 0.0
C565 C 0.85482 0.42629 0.79342 0.0
C566 C 0.76784 0.34133 0.75273 0.0
C567 C 0.79881 0.38368 0.77925 0.0
C568 C 0.74071 0.31809 0.7462 0.0
C569 C 0.71556 0.3134 0.75789 0.0
C570 C 0.77002 0.35966 0.77146 0.0
C571 C 0.71859 0.33253 0.77631 0.0
C572 C 0.80456 0.39279 0.80301 0.0
C573 C 0.8479 0.41741 0.76972 0.0
N574 N 0.74542 0.3547 0.78273 0.0
N575 N 0.82056 0.39632 0.76336 0.0
H576 H 0.40227 0.84851 0.97139 0.0
H577 H 0.43063 0.74053 0.89279 0.0
H578 H 0.48226 0.87507 0.93466 0.0
H579 H 0.37267 0.71202 0.95181 0.0
H580 H 0.44346 0.79033 0.90204 0.0
H581 H 0.38494 0.79844 0.95851 0.0
C582 C 0.41602 0.84377 0.96044 0.0
C583 C 0.44376 0.86577 0.95416 0.0
C584 C 0.4278 0.77311 0.91285 0.0
C585 C 0.42411 0.80897 0.93928 0.0
C586 C 0.42036 0.74471 0.90753 0.0
C587 C 0.4007 0.72217 0.92166 0.0
C588 C 0.41516 0.77894 0.93221 0.0
C589 C 0.3881 0.72882 0.94058 0.0
C590 C 0.40622 0.81529 0.95322 0.0
C591 C 0.46085 0.85861 0.94006 0.0
N592 N 0.39553 0.75664 0.94532 0.0
N593 N 0.45073 0.83082 0.93303 0.0
H594 H 0.58718 0.4527 0.08818 0.0
H595 H 0.69175 0.39275 0.12882 0.0
H596 H 0.61149 0.45067 0.16078 0.0
H597 H 0.68757 0.41776 0.05734 0.0
H598 H 0.65581 0.40625 0.14006 0.0
H599 H 0.61758 0.43249 0.07596 0.0
C600 C 0.59868 0.44771 0.10155 0.0
C601 C 0.59694 0.45346 0.12552 0.0
C602 C 0.66263 0.40863 0.12188 0.0
C603 C 0.63169 0.43043 0.11169 0.0
C604 C 0.68305 0.40081 0.11541 0.0
C605 C 0.69281 0.40432 0.09212 0.0
C606 C 0.65169 0.41987 0.10492 0.0
C607 C 0.68076 0.41486 0.07552 0.0
C608 C 0.61613 0.43636 0.09456 0.0
C609 C 0.6125 0.44687 0.14211 0.0
N610 N 0.66086 0.42235 0.08226 0.0
N611 N 0.62922 0.4357 0.13488 0.0
H612 H 0.41759 0.85188 0.49404 0.0
H613 H 0.3182 0.74647 0.59535 0.0
H614 H 0.40305 0.88194 0.56068 0.0
H615 H 0.33041 0.71695 0.52757 0.0
H616 H 0.35252 0.79615 0.58439 0.0
H617 H 0.38889 0.80227 0.50735 0.0
C618 C 0.40857 0.84808 0.51155 0.0
C619 C 0.41263 0.87116 0.5262 0.0
C620 C 0.34784 0.77878 0.57198 0.0
C621 C 0.37946 0.81429 0.54151 0.0
C622 C 0.32833 0.7504 0.57827 0.0
C623 C 0.3213 0.72754 0.5623 0.0
C624 C 0.3604 0.78433 0.54956 0.0
C625 C 0.33507 0.73391 0.5404 0.0
C626 C 0.39205 0.81971 0.51911 0.0
C627 C 0.40009 0.86484 0.54862 0.0
N628 N 0.35381 0.76168 0.53463 0.0
N629 N 0.38403 0.83704 0.55555 0.0
H630 H 0.56458 0.40867 0.65573 0.0
H631 H 0.59678 0.33175 0.76227 0.0
H632 H 0.56382 0.43229 0.72863 0.0
H633 H 0.62058 0.32783 0.69032 0.0
H634 H 0.5827 0.36712 0.75061 0.0
H635 H 0.58277 0.37689 0.66822 0.0
C636 C 0.56823 0.40711 0.67438 0.0
C637 C 0.56264 0.42304 0.69118 0.0
C638 C 0.59123 0.35866 0.73744 0.0
C639 C 0.58342 0.38675 0.70564 0.0
C640 C 0.59924 0.33848 0.74408 0.0
C641 C 0.60979 0.32678 0.72723 0.0
C642 C 0.59345 0.36687 0.71374 0.0
C643 C 0.61254 0.33626 0.7039 0.0
C644 C 0.57877 0.38913 0.6815 0.0
C645 C 0.56805 0.4205 0.71511 0.0
N646 N 0.6042 0.35555 0.69782 0.0
N647 N 0.57794 0.40251 0.72166 0.0
H648 H 0.17263 0.61367 0.85672 0.0
H649 H 0.27843 0.55286 0.88882 0.0
H650 H 0.15087 0.52536 0.84451 0.0
H651 H 0.3087 0.64409 0.88603 0.0
H652 H 0.23121 0.54277 0.87327 0.0
H653 H 0.22246 0.62587 0.86761 0.0
C654 C 0.17837 0.59692 0.85608 0.0
C655 C 0.15739 0.56835 0.84998 0.0
C656 C 0.2482 0.56502 0.87591 0.0
C657 C 0.21416 0.58209 0.86271 0.0
C658 C 0.2752 0.57082 0.88489 0.0
C659 C 0.29761 0.59939 0.88884 0.0
C660 C 0.24328 0.5879 0.87103 0.0
C661 C 0.29208 0.62173 0.88324 0.0
C662 C 0.20677 0.60388 0.8624 0.0
C663 C 0.16606 0.54751 0.84964 0.0
N664 N 0.26538 0.61551 0.87478 0.0
N665 N 0.19365 0.55475 0.85609 0.0
H666 H 0.57597 0.1756 0.03021 0.0
H667 H 0.74437 0.28703 0.05428 0.0
H668 H 0.64504 0.15966 0.01014 0.0
H669 H 0.67928 0.31296 0.05549 0.0
H670 H 0.70742 0.23936 0.04005 0.0
H671 H 0.61261 0.22533 0.04097 0.0
C672 C 0.59877 0.18256 0.02785 0.0
C673 C 0.60739 0.16323 0.01944 0.0
C674 C 0.7012 0.25548 0.0433 0.0
C675 C 0.64937 0.21996 0.03209 0.0
C676 C 0.72229 0.28273 0.05153 0.0
C677 C 0.71493 0.30408 0.05617 0.0
C678 C 0.67234 0.24924 0.03989 0.0
C679 C 0.68594 0.2972 0.0521 0.0
C680 C 0.61966 0.21093 0.03409 0.0
C681 C 0.63731 0.17348 0.01705 0.0
N682 N 0.66562 0.27027 0.04435 0.0
N683 N 0.65716 0.20102 0.02348 0.0
H684 H 0.44866 0.62519 0.15322 0.0
H685 H 0.4615 0.73272 0.25501 0.0
H686 H 0.47029 0.61607 0.22502 0.0
H687 H 0.3967 0.70841 0.19928 0.0
H688 H 0.47062 0.69452 0.24164 0.0
H689 H 0.4346 0.66016 0.1671 0.0
C690 C 0.4503 0.63051 0.17189 0.0
C691 C 0.46055 0.61781 0.18806 0.0
C692 C 0.45431 0.69747 0.23242 0.0
C693 C 0.44513 0.65783 0.20386 0.0
C694 C 0.44917 0.71933 0.23995 0.0
C695 C 0.42826 0.72372 0.22825 0.0
C696 C 0.43899 0.68028 0.21268 0.0
C697 C 0.41289 0.70563 0.20887 0.0
C698 C 0.44219 0.65026 0.17978 0.0
C699 C 0.46229 0.62528 0.21206 0.0
N700 N 0.4188 0.68486 0.20148 0.0
N701 N 0.455 0.64508 0.21922 0.0
H702 H 0.87557 0.50385 0.38874 0.0
H703 H 0.70407 0.39842 0.37042 0.0
H704 H 0.83957 0.44922 0.32654 0.0
H705 H 0.74315 0.47333 0.41693 0.0
H706 H 0.75302 0.41132 0.35698 0.0
H707 H 0.82649 0.48713 0.4024 0.0
C708 C 0.85734 0.48846 0.37783 0.0
C709 C 0.86182 0.47838 0.35621 0.0
C710 C 0.75071 0.42482 0.37013 0.0
C711 C 0.80522 0.45861 0.37209 0.0
C712 C 0.72285 0.41746 0.37785 0.0
C713 C 0.71943 0.43489 0.39474 0.0
C714 C 0.77521 0.44949 0.37969 0.0
C715 C 0.74456 0.45933 0.40375 0.0
C716 C 0.82926 0.47879 0.38573 0.0
C717 C 0.8372 0.45761 0.34332 0.0
N718 N 0.77126 0.46579 0.39617 0.0
N719 N 0.8099 0.44847 0.35141 0.0
H720 H 0.07751 0.58532 0.44732 0.0
H721 H 0.23354 0.6251 0.50139 0.0
H722 H 0.14747 0.59054 0.40555 0.0
H723 H 0.1679 0.6306 0.54137 0.0
H724 H 0.20224 0.61232 0.466 0.0
H725 H 0.10991 0.60127 0.48204 0.0
C726 C 0.09975 0.59005 0.44539 0.0
C727 C 0.10978 0.58666 0.42342 0.0
C728 C 0.19459 0.61629 0.48247 0.0
C729 C 0.14693 0.60466 0.46322 0.0
C730 C 0.21234 0.62336 0.50264 0.0
C731 C 0.20261 0.62774 0.5243 0.0
C732 C 0.16699 0.61375 0.48404 0.0
C733 C 0.17567 0.62657 0.525 0.0
C734 C 0.11821 0.59904 0.46526 0.0
C735 C 0.13867 0.59253 0.42214 0.0
N736 N 0.15854 0.61926 0.50518 0.0
N737 N 0.1562 0.60122 0.44176 0.0
H738 H 0.57647 0.15595 0.57305 0.0
H739 H 0.55415 0.17282 0.71082 0.0
H740 H 0.51017 0.08751 0.61393 0.0
H741 H 0.62384 0.23802 0.67047 0.0
H742 H 0.53603 0.14174 0.6752 0.0
H743 H 0.59314 0.18674 0.60843 0.0
C744 C 0.56545 0.14734 0.58947 0.0
C745 C 0.54186 0.11904 0.59046 0.0
C746 C 0.55534 0.1628 0.67415 0.0
C747 C 0.56058 0.15444 0.63106 0.0
C748 C 0.56562 0.18042 0.69442 0.0
C749 C 0.59101 0.20737 0.69355 0.0
C750 C 0.57028 0.17266 0.65286 0.0
C751 C 0.60473 0.21685 0.6719 0.0
C752 C 0.57488 0.16501 0.60966 0.0
C753 C 0.52815 0.1093 0.61221 0.0
N754 N 0.5943 0.19944 0.65241 0.0
N755 N 0.53772 0.12695 0.63164 0.0
H756 H 0.43268 0.57975 0.73788 0.0
H757 H 0.3975 0.55321 0.87375 0.0
H758 H 0.46774 0.53842 0.78149 0.0
H759 H 0.40788 0.62992 0.84057 0.0
H760 H 0.41541 0.54168 0.8381 0.0
H761 H 0.41559 0.59284 0.77361 0.0
C762 C 0.43668 0.57343 0.75499 0.0
C763 C 0.45164 0.5581 0.7569 0.0
C764 C 0.41382 0.56106 0.8387 0.0
C765 C 0.43192 0.57247 0.79745 0.0
C766 C 0.40354 0.56765 0.859 0.0
C767 C 0.40138 0.59271 0.86023 0.0
C768 C 0.42133 0.57924 0.81926 0.0
C769 C 0.40943 0.61052 0.84045 0.0
C770 C 0.42711 0.58099 0.77528 0.0
C771 C 0.45643 0.55042 0.77939 0.0
N772 N 0.41883 0.60331 0.82066 0.0
N773 N 0.44635 0.55745 0.79881 0.0
H774 H 0.90167 0.50252 0.92677 0.0
H775 H 0.83534 0.37792 0.02155 0.0
H776 H 0.90641 0.42448 0.92164 0.0
H777 H 0.80926 0.44226 0.0166 0.0
H778 H 0.86345 0.39647 0.98591 0.0
H779 H 0.86922 0.48235 0.9603 0.0
C780 C 0.89574 0.48108 0.93252 0.0
C781 C 0.90711 0.46533 0.92145 0.0
C782 C 0.85147 0.40647 0.99251 0.0
C783 C 0.87034 0.44237 0.96003 0.0
C784 C 0.83546 0.39594 0.01295 0.0
C785 C 0.81992 0.40857 0.02216 0.0
C786 C 0.85235 0.43008 0.98122 0.0
C787 C 0.82083 0.43179 0.01009 0.0
C788 C 0.8773 0.46965 0.95173 0.0
C789 C 0.89883 0.43776 0.92991 0.0
N790 N 0.83698 0.44196 0.99032 0.0
N791 N 0.88115 0.42729 0.94873 0.0
H792 H 0.42369 0.91102 0.09217 0.0
H793 H 0.47957 0.84326 0.19016 0.0
H794 H 0.50548 0.91202 0.08817 0.0
H795 H 0.3896 0.82149 0.18333 0.0
H796 H 0.49014 0.87074 0.15398 0.0
H797 H 0.41126 0.87999 0.12643 0.0
C798 C 0.43895 0.90454 0.09828 0.0
C799 C 0.46579 0.91436 0.08719 0.0
C800 C 0.46805 0.85983 0.16031 0.0
C801 C 0.45183 0.87922 0.12683 0.0
C802 C 0.46199 0.84417 0.18105 0.0
C803 C 0.43362 0.83001 0.18988 0.0
C804 C 0.44571 0.86171 0.14838 0.0
C805 C 0.41176 0.83196 0.17717 0.0
C806 C 0.43186 0.88692 0.11796 0.0
C807 C 0.48481 0.90555 0.09633 0.0
N808 N 0.4183 0.84768 0.15717 0.0
N809 N 0.47754 0.88866 0.11564 0.0
H810 H 0.56731 0.51305 0.2811 0.0
H811 H 0.59939 0.39812 0.34286 0.0
H812 H 0.56676 0.44305 0.2421 0.0
H813 H 0.6251 0.48216 0.37289 0.0
H814 H 0.58201 0.41095 0.30719 0.0
H815 H 0.58323 0.49872 0.31633 0.0
C816 C 0.57073 0.49479 0.27983 0.0
C817 C 0.56595 0.47949 0.25839 0.0
C818 C 0.59149 0.42652 0.32163 0.0
C819 C 0.58364 0.46252 0.29907 0.0
C820 C 0.60132 0.4192 0.34202 0.0
C821 C 0.6138 0.4391 0.36094 0.0
C822 C 0.59379 0.45375 0.32029 0.0
C823 C 0.61579 0.46613 0.35878 0.0
C824 C 0.57967 0.48651 0.30005 0.0
C825 C 0.56992 0.45541 0.25821 0.0
N826 N 0.60581 0.47258 0.33891 0.0
N827 N 0.57854 0.44767 0.27823 0.0
H828 H 0.47199 0.89599 0.40541 0.0
H829 H 0.40228 0.85985 0.27544 0.0
H830 H 0.42657 0.9371 0.37666 0.0
H831 H 0.41461 0.79926 0.31621 0.0
H832 H 0.41596 0.89183 0.31052 0.0
H833 H 0.45647 0.86355 0.37075 0.0
C834 C 0.45882 0.89819 0.39172 0.0
C835 C 0.45045 0.91911 0.39383 0.0
C836 C 0.41573 0.87155 0.31174 0.0
C837 C 0.43299 0.88249 0.35413 0.0
C838 C 0.40806 0.85346 0.29178 0.0
C839 C 0.40859 0.82763 0.29288 0.0
C840 C 0.42367 0.86347 0.33285 0.0
C841 C 0.41523 0.81967 0.31453 0.0
C842 C 0.44989 0.87966 0.37204 0.0
C843 C 0.43325 0.92104 0.37572 0.0
N844 N 0.42288 0.8377 0.33363 0.0
N845 N 0.42525 0.90309 0.35649 0.0
H846 H 0.50401 0.42001 0.55104 0.0
H847 H 0.63274 0.41729 0.48513 0.0
H848 H 0.59364 0.48693 0.56333 0.0
H849 H 0.55555 0.40102 0.44616 0.0
H850 H 0.61508 0.43142 0.51981 0.0
H851 H 0.5195 0.40259 0.51734 0.0
C852 C 0.52687 0.43126 0.54677 0.0
C853 C 0.54742 0.4553 0.56029 0.0
C854 C 0.60207 0.42479 0.50363 0.0
C855 C 0.5652 0.43425 0.52229 0.0
C856 C 0.61219 0.417 0.48388 0.0
C857 C 0.59622 0.40957 0.46257 0.0
C858 C 0.57534 0.42413 0.50219 0.0
C859 C 0.56887 0.40763 0.46215 0.0
C860 C 0.53562 0.42101 0.5276 0.0
C861 C 0.57688 0.46805 0.55402 0.0
N862 N 0.5593 0.41513 0.48169 0.0
N863 N 0.58487 0.45723 0.53563 0.0
H864 H 0.09188 0.51641 0.71668 0.0
H865 H 0.20913 0.64365 0.6373 0.0
H866 H 0.11952 0.60615 0.7294 0.0
H867 H 0.17209 0.55294 0.62062 0.0
H868 H 0.17891 0.6309 0.6724 0.0
H869 H 0.12379 0.52999 0.68281 0.0
C870 C 0.10482 0.53902 0.71244 0.0
C871 C 0.103 0.56016 0.72593 0.0
C872 C 0.17746 0.61383 0.66103 0.0
C873 C 0.13951 0.57591 0.68693 0.0
C874 C 0.19476 0.62109 0.641 0.0
C875 C 0.19321 0.59937 0.62588 0.0
C876 C 0.15858 0.58467 0.66606 0.0
C877 C 0.17408 0.5705 0.63164 0.0
C878 C 0.12293 0.54676 0.69299 0.0
C879 C 0.11999 0.5891 0.71935 0.0
N880 N 0.1576 0.56404 0.65121 0.0
N881 N 0.13756 0.59613 0.70034 0.0
H882 H 0.60732 0.13309 0.90597 0.0
H883 H 0.57304 0.20485 0.79729 0.0
H884 H 0.51963 0.10214 0.87937 0.0
H885 H 0.6518 0.20002 0.80187 0.0
H886 H 0.55527 0.17503 0.8324 0.0
H887 H 0.62596 0.16513 0.87238 0.0
C888 C 0.59189 0.13279 0.89311 0.0
C889 C 0.56171 0.11449 0.89562 0.0
C890 C 0.57648 0.18065 0.82573 0.0
C891 C 0.58315 0.15206 0.8575 0.0
C892 C 0.58674 0.1978 0.80582 0.0
C893 C 0.61394 0.2049 0.79662 0.0
C894 C 0.59379 0.17101 0.83681 0.0
C895 C 0.63064 0.19493 0.8083 0.0
C896 C 0.60264 0.1513 0.87402 0.0
C897 C 0.54299 0.11601 0.87858 0.0
N898 N 0.62036 0.1786 0.82787 0.0
N899 N 0.55401 0.1345 0.86033 0.0
H900 H 0.49736 0.57131 0.03235 0.0
H901 H 0.38725 0.62087 0.98488 0.0
H902 H 0.44088 0.5854 0.078 0.0
H903 H 0.45719 0.6258 0.94362 0.0
H904 H 0.40596 0.60725 0.01923 0.0
H905 H 0.48184 0.58972 0.99937 0.0
C906 C 0.48188 0.57848 0.03552 0.0
C907 C 0.47051 0.57684 0.05809 0.0
C908 C 0.4173 0.61137 0.00271 0.0
C909 C 0.4524 0.59771 0.02022 0.0
C910 C 0.4065 0.6189 0.98313 0.0
C911 C 0.42014 0.62324 0.96135 0.0
C912 C 0.44187 0.60814 1.00037 0.0
C913 C 0.44569 0.62176 0.96006 0.0
C914 C 0.47297 0.58893 0.01663 0.0
C915 C 0.44998 0.58589 0.06091 0.0
N916 N 0.4555 0.61383 0.97923 0.0
N917 N 0.44156 0.59586 0.0422 0.0
H918 H 0.88629 0.43611 0.23656 0.0
H919 H 0.84688 0.46735 0.10808 0.0
H920 H 0.92758 0.52164 0.20803 0.0
H921 H 0.7881 0.39327 0.14794 0.0
H922 H 0.87947 0.48664 0.14299 0.0
H923 H 0.8528 0.4184 0.20236 0.0
C924 C 0.88831 0.4511 0.22302 0.0
C925 C 0.90963 0.48034 0.22505 0.0
C926 C 0.85946 0.46615 0.14407 0.0
C927 C 0.87168 0.4603 0.18591 0.0
C928 C 0.84102 0.45517 0.1242 0.0
C929 C 0.81561 0.42821 0.12505 0.0
C930 C 0.85209 0.4501 0.16486 0.0
C931 C 0.80825 0.41357 0.14643 0.0
C932 C 0.86915 0.44106 0.20361 0.0
C933 C 0.91124 0.49897 0.20715 0.0
N934 N 0.8266 0.42452 0.16545 0.0
N935 N 0.89263 0.48859 0.18821 0.0
loop_
_geom_bond_atom_site_label_1
_geom_bond_atom_site_label_2
_geom_bond_distance
_geom_bond_site_symmetry_2
_ccdc_geom_bond_type
H0 C19 0.949 . S
H1 C20 0.950 . S
H2 C22 0.950 . S
H3 C23 0.950 . S
H4 C25 0.950 . S
H5 C28 0.950 . S
H6 C29 0.950 . S
H7 C31 0.951 . S
H8 C32 0.949 . S
H9 C34 0.949 . S
H10 C35 0.950 . S
H11 C37 0.950 . S
H12 C38 0.950 . S
H13 C40 0.950 . S
H14 C43 0.950 . S
H15 C44 0.950 . S
H16 C46 0.951 . S
H17 C47 0.949 . S
C18 C19 1.376 . S
C18 C23 1.386 . S
C18 C24 1.483 . S
C19 H0 0.949 . S
C19 C18 1.376 . S
C19 C20 1.397 . S
C20 H1 0.950 . S
C20 C19 1.397 . S
C20 C21 1.391 . S
C21 C20 1.391 . S
C21 C22 1.405 . S
C22 H2 0.950 . S
C22 C21 1.405 . S
C22 C23 1.367 . S
C23 H3 0.950 . S
C23 C18 1.386 . S
C23 C22 1.367 . S
C24 C18 1.483 . S
C24 C25 1.382 1_655 S
C24 C26 1.403 . S
C25 H4 0.950 . S
C25 C24 1.382 1_455 S
C25 C41 1.411 . S
C26 C24 1.403 . S
C26 C27 1.489 . S
C26 C40 1.411 . S
C27 C26 1.489 . S
C27 C28 1.383 . S
C27 C32 1.382 . S
C28 H5 0.950 . S
C28 C27 1.383 . S
C28 C29 1.395 . S
C29 H6 0.950 . S
C29 C28 1.395 . S
C29 C30 1.288 . S
C30 C29 1.288 . S
C30 C31 1.392 . S
C31 H7 0.951 . S
C31 C30 1.392 . S
C31 C32 1.392 . S
C32 H8 0.949 . S
C32 C27 1.382 . S
C32 C31 1.392 . S
C33 C34 1.376 . S
C33 C38 1.386 . S
C33 C39 1.483 . S
C34 H9 0.949 . S
C34 C33 1.376 . S
C34 C35 1.397 . S
C35 H10 0.950 . S
C35 C34 1.397 . S
C35 C36 1.391 . S
C36 C35 1.391 . S
C36 C37 1.405 . S
C37 H11 0.950 . S
C37 C36 1.405 . S
C37 C38 1.367 . S
C38 H12 0.950 . S
C38 C33 1.386 . S
C38 C37 1.367 . S
C39 C33 1.483 . S
C39 C40 1.382 1_455 S
C39 C41 1.403 . S
C40 H13 0.950 . S
C40 C26 1.411 . S
C40 C39 1.382 1_655 S
C41 C25 1.411 . S
C41 C39 1.403 . S
C41 C42 1.489 . S
C42 C41 1.489 . S
C42 C43 1.383 . S
C42 C47 1.382 . S
C43 H14 0.950 . S
C43 C42 1.383 . S
C43 C44 1.395 . S
C44 H15 0.950 . S
C44 C43 1.395 . S
C44 C45 1.288 . S
C45 C44 1.288 . S
C45 C46 1.392 . S
C46 H16 0.951 . S
C46 C45 1.392 . S
C46 C47 1.392 . S
C47 H17 0.949 . S
C47 C42 1.382 . S
C47 C46 1.392 . S
H48 C67 0.949 . S
H49 C68 0.950 . S
H50 C70 0.950 . S
H51 C71 0.950 . S
H52 C73 0.951 1_565 S
H53 C76 0.950 . S
H54 C77 0.950 . S
H55 C79 0.951 . S
H56 C80 0.949 . S
H57 C82 0.949 . S
H58 C83 0.950 . S
H59 C85 0.950 . S
H60 C86 0.950 . S
H61 C88 0.950 . S
H62 C91 0.950 . S
H63 C92 0.950 . S
H64 C94 0.951 . S
H65 C95 0.949 . S
C66 C67 1.376 . S
C66 C71 1.386 . S
C66 C72 1.483 . S
C67 H48 0.949 . S
C67 C66 1.376 . S
C67 C68 1.397 . S
C68 H49 0.950 . S
C68 C67 1.397 . S
C68 C69 1.391 . S
C69 C68 1.391 . S
C69 C70 1.405 . S
C70 H50 0.950 . S
C70 C69 1.405 . S
C70 C71 1.367 . S
C71 H51 0.950 . S
C71 C66 1.386 . S
C71 C70 1.367 . S
C72 C66 1.483 . S
C72 C73 1.382 1_565 S
C72 C74 1.403 . S
C73 H52 0.951 1_545 S
C73 C72 1.382 1_545 S
C73 C89 1.411 . S
C74 C72 1.403 . S
C74 C75 1.489 . S
C74 C88 1.411 1_565 S
C75 C74 1.489 . S
C75 C76 1.383 . S
C75 C80 1.382 . S
C76 H53 0.950 . S
C76 C75 1.383 . S
C76 C77 1.395 . S
C77 H54 0.950 . S
C77 C76 1.395 . S
C77 C78 1.288 . S
C78 C77 1.288 . S
C78 C79 1.392 . S
C79 H55 0.951 . S
C79 C78 1.392 . S
C79 C80 1.392 . S
C80 H56 0.949 . S
C80 C75 1.382 . S
C80 C79 1.392 . S
C81 C82 1.376 . S
C81 C86 1.386 . S
C81 C87 1.483 . S
C82 H57 0.949 . S
C82 C81 1.376 . S
C82 C83 1.397 . S
C83 H58 0.950 . S
C83 C82 1.397 . S
C83 C84 1.391 . S
C84 C83 1.391 . S
C84 C85 1.405 . S
C85 H59 0.950 . S
C85 C84 1.405 . S
C85 C86 1.367 . S
C86 H60 0.950 . S
C86 C81 1.386 . S
C86 C85 1.367 . S
C87 C81 1.483 . S
C87 C88 1.382 . S
C87 C89 1.403 . S
C88 H61 0.950 . S
C88 C74 1.411 1_545 S
C88 C87 1.382 . S
C89 C73 1.411 . S
C89 C87 1.403 . S
C89 C90 1.489 . S
C90 C89 1.489 . S
C90 C91 1.383 . S
C90 C95 1.382 . S
C91 H62 0.950 . S
C91 C90 1.383 . S
C91 C92 1.395 . S
C92 H63 0.950 . S
C92 C91 1.395 . S
C92 C93 1.288 . S
C93 C92 1.288 . S
C93 C94 1.392 . S
C94 H64 0.951 . S
C94 C93 1.392 . S
C94 C95 1.392 . S
C95 H65 0.949 . S
C95 C90 1.382 . S
C95 C94 1.392 . S
H96 C115 0.949 . S
H97 C116 0.950 . S
H98 C118 0.950 . S
H99 C119 0.950 . S
H100 C121 0.950 . S
H101 C124 0.950 . S
H102 C125 0.950 . S
H103 C127 0.951 . S
H104 C128 0.949 . S
H105 C130 0.949 . S
H106 C131 0.950 . S
H107 C133 0.950 . S
H108 C134 0.950 . S
H109 C136 0.950 . S
H110 C139 0.950 . S
H111 C140 0.950 . S
H112 C142 0.951 . S
H113 C143 0.949 . S
C114 C115 1.376 . S
C114 C119 1.386 . S
C114 C120 1.483 . S
C115 H96 0.949 . S
C115 C114 1.376 . S
C115 C116 1.397 . S
C116 H97 0.950 . S
C116 C115 1.397 . S
C116 C117 1.391 . S
C117 C116 1.391 . S
C117 C118 1.405 . S
C118 H98 0.950 . S
C118 C117 1.405 . S
C118 C119 1.367 . S
C119 H99 0.950 . S
C119 C114 1.386 . S
C119 C118 1.367 . S
C120 C114 1.483 . S
C120 C121 1.382 . S
C120 C122 1.403 . S
C121 H100 0.950 . S
C121 C120 1.382 . S
C121 C137 1.411 . S
C122 C120 1.403 . S
C122 C123 1.489 . S
C122 C136 1.411 . S
C123 C122 1.489 . S
C123 C124 1.383 . S
C123 C128 1.382 . S
C124 H101 0.950 . S
C124 C123 1.383 . S
C124 C125 1.395 . S
C125 H102 0.950 . S
C125 C124 1.395 . S
C125 C126 1.288 . S
C126 C125 1.288 . S
C126 C127 1.392 . S
C127 H103 0.951 . S
C127 C126 1.392 . S
C127 C128 1.392 . S
C128 H104 0.949 . S
C128 C123 1.382 . S
C128 C127 1.392 . S
C129 C130 1.376 . S
C129 C134 1.386 . S
C129 C135 1.483 . S
C130 H105 0.949 . S
C130 C129 1.376 . S
C130 C131 1.397 . S
C131 H106 0.950 . S
C131 C130 1.397 . S
C131 C132 1.391 . S
C132 C131 1.391 . S
C132 C133 1.405 . S
C133 H107 0.950 . S
C133 C132 1.405 . S
C133 C134 1.367 . S
C134 H108 0.950 . S
C134 C129 1.386 . S
C134 C133 1.367 . S
C135 C129 1.483 . S
C135 C136 1.382 . S
C135 C137 1.403 . S
C136 H109 0.950 . S
C136 C122 1.411 . S
C136 C135 1.382 . S
C137 C121 1.411 . S
C137 C135 1.403 . S
C137 C138 1.489 . S
C138 C137 1.489 . S
C138 C139 1.383 . S
C138 C143 1.382 . S
C139 H110 0.950 . S
C139 C138 1.383 . S
C139 C140 1.395 . S
C140 H111 0.950 . S
C140 C139 1.395 . S
C140 C141 1.288 . S
C141 C140 1.288 . S
C141 C142 1.392 . S
C142 H112 0.951 . S
C142 C141 1.392 . S
C142 C143 1.392 . S
C143 H113 0.949 . S
C143 C138 1.382 . S
C143 C142 1.392 . S
H144 C163 0.949 . S
H145 C164 0.950 . S
H146 C166 0.950 . S
H147 C167 0.950 . S
H148 C169 0.950 . S
H149 C172 0.950 . S
H150 C173 0.950 . S
H151 C175 0.951 . S
H152 C176 0.949 . S
H153 C178 0.949 . S
H154 C179 0.950 . S
H155 C181 0.950 . S
H156 C182 0.950 . S
H157 C184 0.950 . S
H158 C187 0.950 . S
H159 C188 0.950 . S
H160 C190 0.951 . S
H161 C191 0.949 . S
C162 C163 1.376 . S
C162 C167 1.386 . S
C162 C168 1.483 . S
C163 H144 0.949 . S
C163 C162 1.376 . S
C163 C164 1.397 . S
C164 H145 0.950 . S
C164 C163 1.397 . S
C164 C165 1.391 . S
C165 C164 1.391 . S
C165 C166 1.405 . S
C166 H146 0.950 . S
C166 C165 1.405 . S
C166 C167 1.367 . S
C167 H147 0.950 . S
C167 C162 1.386 . S
C167 C166 1.367 . S
C168 C162 1.483 . S
C168 C169 1.382 1_455 S
C168 C170 1.403 . S
C169 H148 0.950 . S
C169 C168 1.382 1_655 S
C169 C185 1.411 . S
C170 C168 1.403 . S
C170 C171 1.489 . S
C170 C184 1.411 . S
C171 C170 1.489 . S
C171 C172 1.383 . S
C171 C176 1.382 . S
C172 H149 0.950 . S
C172 C171 1.383 . S
C172 C173 1.395 . S
C173 H150 0.950 . S
C173 C172 1.395 . S
C173 C174 1.288 . S
C174 C173 1.288 . S
C174 C175 1.392 . S
C175 H151 0.951 . S
C175 C174 1.392 . S
C175 C176 1.392 . S
C176 H152 0.949 . S
C176 C171 1.382 . S
C176 C175 1.392 . S
C177 C178 1.376 . S
C177 C182 1.386 . S
C177 C183 1.483 . S
C178 H153 0.949 . S
C178 C177 1.376 . S
C178 C179 1.397 . S
C179 H154 0.950 . S
C179 C178 1.397 . S
C179 C180 1.391 . S
C180 C179 1.391 . S
C180 C181 1.405 . S
C181 H155 0.950 . S
C181 C180 1.405 . S
C181 C182 1.367 . S
C182 H156 0.950 . S
C182 C177 1.386 . S
C182 C181 1.367 . S
C183 C177 1.483 . S
C183 C184 1.382 1_655 S
C183 C185 1.403 . S
C184 H157 0.950 . S
C184 C170 1.411 . S
C184 C183 1.382 1_455 S
C185 C169 1.411 . S
C185 C183 1.403 . S
C185 C186 1.489 . S
C186 C185 1.489 . S
C186 C187 1.383 . S
C186 C191 1.382 . S
C187 H158 0.950 . S
C187 C186 1.383 . S
C187 C188 1.395 . S
C188 H159 0.950 . S
C188 C187 1.395 . S
C188 C189 1.288 . S
C189 C188 1.288 . S
C189 C190 1.392 . S
C190 H160 0.951 . S
C190 C189 1.392 . S
C190 C191 1.392 . S
C191 H161 0.949 . S
C191 C186 1.382 . S
C191 C190 1.392 . S
H192 C211 0.949 . S
H193 C212 0.950 . S
H194 C214 0.950 . S
H195 C215 0.955 . S
H196 C217 0.950 . S
H197 C220 0.950 . S
H198 C221 0.950 . S
H199 C223 0.951 . S
H200 C224 0.949 . S
H201 C226 0.949 . S
H202 C227 0.950 . S
H203 C229 0.950 . S
H204 C230 0.950 . S
H205 C232 0.950 . S
H206 C235 0.950 . S
H207 C236 0.950 . S
H208 C238 0.951 . S
H209 C239 0.958 . S
C210 C211 1.376 . S
C210 C215 1.384 1_554 S
C210 C216 1.483 1_554 S
C211 H192 0.949 . S
C211 C210 1.376 . S
C211 C212 1.397 . S
C212 H193 0.950 . S
C212 C211 1.397 . S
C212 C213 1.391 . S
C213 C212 1.391 . S
C213 C214 1.405 . S
C214 H194 0.950 . S
C214 C213 1.405 . S
C214 C215 1.365 1_554 S
C215 H195 0.955 . S
C215 C210 1.384 1_556 S
C215 C214 1.365 1_556 S
C216 C210 1.483 1_556 S
C216 C217 1.382 1_556 S
C216 C218 1.403 . S
C217 H196 0.950 . S
C217 C216 1.382 1_554 S
C217 C233 1.423 . S
C218 C216 1.403 . S
C218 C219 1.489 . S
C218 C232 1.411 . S
C219 C218 1.489 . S
C219 C220 1.383 . S
C219 C224 1.382 . S
C220 H197 0.950 . S
C220 C219 1.383 . S
C220 C221 1.395 . S
C221 H198 0.950 . S
C221 C220 1.395 . S
C221 C222 1.288 . S
C222 C221 1.288 . S
C222 C223 1.392 . S
C223 H199 0.951 . S
C223 C222 1.392 . S
C223 C224 1.392 . S
C224 H200 0.949 . S
C224 C219 1.382 . S
C224 C223 1.392 . S
C225 C226 1.376 . S
C225 C230 1.386 . S
C225 C231 1.483 . S
C226 H201 0.949 . S
C226 C225 1.376 . S
C226 C227 1.397 . S
C227 H202 0.950 . S
C227 C226 1.397 . S
C227 C228 1.391 . S
C228 C227 1.391 . S
C228 C229 1.405 . S
C229 H203 0.950 . S
C229 C228 1.405 . S
C229 C230 1.367 . S
C230 H204 0.950 . S
C230 C225 1.386 . S
C230 C229 1.367 . S
C231 C225 1.483 . S
C231 C232 1.382 1_565 S
C231 C233 1.400 1_566 S
C232 H205 0.950 . S
C232 C218 1.411 . S
C232 C231 1.382 1_545 S
C233 C217 1.423 . S
C233 C231 1.400 1_544 S
C233 C234 1.481 1_545 S
C234 C233 1.481 1_565 S
C234 C235 1.383 . S
C234 C239 1.382 . S
C235 H206 0.950 . S
C235 C234 1.383 . S
C235 C236 1.395 . S
C236 H207 0.950 . S
C236 C235 1.395 . S
C236 C237 1.288 . S
C237 C236 1.288 . S
C237 C238 1.392 . S
C238 H208 0.951 . S
C238 C237 1.392 . S
C238 C239 1.392 . S
C239 H209 0.958 . S
C239 C234 1.382 . S
C239 C238 1.392 . S
H240 C259 0.949 . S
H241 C260 0.950 . S
H242 C262 0.950 . S
H243 C263 0.950 . S
H244 C265 0.950 . S
H245 C268 0.950 . S
H246 C269 0.950 . S
H247 C271 0.951 . S
H248 C272 0.949 . S
H249 C274 0.949 . S
H250 C275 0.950 . S
H251 C277 0.950 . S
H252 C278 0.950 . S
H253 C280 0.950 . S
H254 C283 0.950 . S
H255 C284 0.950 . S
H256 C286 0.951 . S
H257 C287 0.949 . S
C258 C259 1.376 . S
C258 C263 1.386 . S
C258 C264 1.483 . S
C259 H240 0.949 . S
C259 C258 1.376 . S
C259 C260 1.397 . S
C260 H241 0.950 . S
C260 C259 1.397 . S
C260 C261 1.391 . S
C261 C260 1.391 . S
C261 C262 1.405 . S
C262 H242 0.950 . S
C262 C261 1.405 . S
C262 C263 1.367 . S
C263 H243 0.950 . S
C263 C258 1.386 . S
C263 C262 1.367 . S
C264 C258 1.483 . S
C264 C265 1.382 . S
C264 C266 1.403 . S
C265 H244 0.950 . S
C265 C264 1.382 . S
C265 C281 1.411 . S
C266 C264 1.403 . S
C266 C267 1.489 . S
C266 C280 1.411 . S
C267 C266 1.489 . S
C267 C268 1.383 . S
C267 C272 1.382 . S
C268 H245 0.950 . S
C268 C267 1.383 . S
C268 C269 1.395 . S
C269 H246 0.950 . S
C269 C268 1.395 . S
C269 C270 1.288 . S
C270 C269 1.288 . S
C270 C271 1.392 . S
C271 H247 0.951 . S
C271 C270 1.392 . S
C271 C272 1.392 . S
C272 H248 0.949 . S
C272 C267 1.382 . S
C272 C271 1.392 . S
C273 C274 1.376 . S
C273 C278 1.386 . S
C273 C279 1.483 . S
C274 H249 0.949 . S
C274 C273 1.376 . S
C274 C275 1.397 . S
C275 H250 0.950 . S
C275 C274 1.397 . S
C275 C276 1.391 . S
C276 C275 1.391 . S
C276 C277 1.405 . S
C277 H251 0.950 . S
C277 C276 1.405 . S
C277 C278 1.367 . S
C278 H252 0.950 . S
C278 C273 1.386 . S
C278 C277 1.367 . S
C279 C273 1.483 . S
C279 C280 1.382 . S
C279 C281 1.403 . S
C280 H253 0.950 . S
C280 C266 1.411 . S
C280 C279 1.382 . S
C281 C265 1.411 . S
C281 C279 1.403 . S
C281 C282 1.489 . S
C282 C281 1.489 . S
C282 C283 1.383 . S
C282 C287 1.382 . S
C283 H254 0.950 . S
C283 C282 1.383 . S
C283 C284 1.395 . S
C284 H255 0.950 . S
C284 C283 1.395 . S
C284 C285 1.288 . S
C285 C284 1.288 . S
C285 C286 1.392 . S
C286 H256 0.951 . S
C286 C285 1.392 . S
C286 C287 1.392 . S
C287 H257 0.949 . S
C287 C282 1.382 . S
C287 C286 1.392 . S
Mn288 O293 2.095 . S
Mn288 O303 2.162 . S
Mn288 O304 2.297 . S
Mn288 O312 2.385 . S
Mn288 O313 2.209 . S
Mn288 O314 2.094 . S
Mn289 O294 2.121 . S
Mn289 N296 2.257 . S
Mn289 N305 2.282 . S
Mn289 O313 2.215 . S
Mn289 O315 2.117 . S
C290 O312 1.234 . S
C290 O313 1.283 . S
C291 O303 1.281 . S
C291 O304 1.236 . S
C292 O314 1.240 . S
C292 O315 1.264 . S
O293 Mn288 2.095 . S
O293 C302 1.250 . S
O294 Mn289 2.121 . S
O294 C302 1.258 . S
C295 N296 1.326 . S
C295 C299 1.460 . S
C295 H301 0.929 . S
N296 Mn289 2.257 . S
N296 C295 1.326 . S
N296 C300 1.362 . S
C297 C298 1.258 . S
C297 C300 1.431 . S
C297 C317 1.449 . S
C298 C297 1.258 . S
C298 C299 1.477 . S
C298 H318 0.931 . S
C299 C295 1.460 . S
C299 C298 1.477 . S
C299 H319 0.930 . S
C300 N296 1.362 . S
C300 C297 1.431 . S
C300 C310 1.476 . S
H301 C295 0.929 . S
C302 O293 1.250 . S
C302 O294 1.258 . S
O303 Mn288 2.162 . S
O303 C291 1.281 . S
O304 Mn288 2.297 . S
O304 C291 1.236 . S
N305 Mn289 2.282 . S
N305 C306 1.328 . S
N305 C310 1.318 . S
C306 N305 1.328 . S
C306 C307 1.457 . S
C306 H311 0.929 . S
C307 C306 1.457 . S
C307 C308 1.291 . S
C307 H320 0.931 . S
C308 C307 1.291 . S
C308 C309 1.373 . S
C308 H321 0.929 . S
C309 C308 1.373 . S
C309 C310 1.396 . S
C309 C316 1.403 . S
C310 C300 1.476 . S
C310 N305 1.318 . S
C310 C309 1.396 . S
H311 C306 0.929 . S
O312 Mn288 2.385 . S
O312 C290 1.234 . S
O313 Mn288 2.209 . S
O313 Mn289 2.215 . S
O313 C290 1.283 . S
O314 Mn288 2.094 . S
O314 C292 1.240 . S
O315 Mn289 2.117 . S
O315 C292 1.264 . S
C316 C309 1.403 . S
C316 C317 1.399 . S
C316 H322 0.929 . S
C317 C297 1.449 . S
C317 C316 1.399 . S
C317 H323 0.930 . S
H318 C298 0.931 . S
H319 C299 0.930 . S
H320 C307 0.931 . S
H321 C308 0.929 . S
H322 C316 0.929 . S
H323 C317 0.930 . S
Mn324 O329 2.095 . S
Mn324 O339 2.162 . S
Mn324 O340 2.297 . S
Mn324 O348 2.385 . S
Mn324 O349 2.209 . S
Mn324 O350 2.094 . S
Mn325 O330 2.121 . S
Mn325 N332 2.257 . S
Mn325 N341 2.282 . S
Mn325 O349 2.215 . S
Mn325 O351 2.117 . S
C326 O348 1.234 . S
C326 O349 1.283 . S
C327 O339 1.281 . S
C327 O340 1.236 . S
C328 O350 1.240 . S
C328 O351 1.264 . S
O329 Mn324 2.095 . S
O329 C338 1.250 . S
O330 Mn325 2.121 . S
O330 C338 1.258 . S
C331 N332 1.326 . S
C331 C335 1.460 . S
C331 H337 0.929 . S
N332 Mn325 2.257 . S
N332 C331 1.326 . S
N332 C336 1.362 . S
C333 C334 1.258 . S
C333 C336 1.431 . S
C333 C353 1.449 . S
C334 C333 1.258 . S
C334 C335 1.477 . S
C334 H354 0.931 . S
C335 C331 1.460 . S
C335 C334 1.477 . S
C335 H355 0.930 . S
C336 N332 1.362 . S
C336 C333 1.431 . S
C336 C346 1.476 . S
H337 C331 0.929 . S
C338 O329 1.250 . S
C338 O330 1.258 . S
O339 Mn324 2.162 . S
O339 C327 1.281 . S
O340 Mn324 2.297 . S
O340 C327 1.236 . S
N341 Mn325 2.282 . S
N341 C342 1.328 . S
N341 C346 1.318 . S
C342 N341 1.328 . S
C342 C343 1.457 . S
C342 H347 0.929 . S
C343 C342 1.457 . S
C343 C344 1.291 . S
C343 H356 0.931 . S
C344 C343 1.291 . S
C344 C345 1.373 . S
C344 H357 0.929 . S
C345 C344 1.373 . S
C345 C346 1.396 . S
C345 C352 1.403 . S
C346 C336 1.476 . S
C346 N341 1.318 . S
C346 C345 1.396 . S
H347 C342 0.929 . S
O348 Mn324 2.385 . S
O348 C326 1.234 . S
O349 Mn324 2.209 . S
O349 Mn325 2.215 . S
O349 C326 1.283 . S
O350 Mn324 2.094 . S
O350 C328 1.240 . S
O351 Mn325 2.117 . S
O351 C328 1.264 . S
C352 C345 1.403 . S
C352 C353 1.399 . S
C352 H358 0.929 . S
C353 C333 1.449 . S
C353 C352 1.399 . S
C353 H359 0.930 . S
H354 C334 0.931 . S
H355 C335 0.930 . S
H356 C343 0.931 . S
H357 C344 0.929 . S
H358 C352 0.929 . S
H359 C353 0.930 . S
Mn360 O365 2.095 . S
Mn360 O375 2.162 . S
Mn360 O376 2.297 . S
Mn360 O384 2.385 . S
Mn360 O385 2.209 . S
Mn360 O386 2.094 . S
Mn361 O366 2.121 . S
Mn361 N368 2.257 . S
Mn361 N377 2.282 . S
Mn361 O385 2.215 . S
Mn361 O387 2.117 . S
C362 O384 1.234 . S
C362 O385 1.283 . S
C363 O375 1.281 . S
C363 O376 1.236 . S
C364 O386 1.240 . S
C364 O387 1.264 . S
O365 Mn360 2.095 . S
O365 C374 1.250 . S
O366 Mn361 2.121 . S
O366 C374 1.258 . S
C367 N368 1.326 . S
C367 C371 1.460 . S
C367 H373 0.929 . S
N368 Mn361 2.257 . S
N368 C367 1.326 . S
N368 C372 1.362 . S
C369 C370 1.258 . S
C369 C372 1.431 . S
C369 C389 1.449 . S
C370 C369 1.258 . S
C370 C371 1.477 . S
C370 H390 0.931 . S
C371 C367 1.460 . S
C371 C370 1.477 . S
C371 H391 0.930 . S
C372 N368 1.362 . S
C372 C369 1.431 . S
C372 C382 1.476 . S
H373 C367 0.929 . S
C374 O365 1.250 . S
C374 O366 1.258 . S
O375 Mn360 2.162 . S
O375 C363 1.281 . S
O376 Mn360 2.297 . S
O376 C363 1.236 . S
N377 Mn361 2.282 . S
N377 C378 1.328 . S
N377 C382 1.318 . S
C378 N377 1.328 . S
C378 C379 1.457 . S
C378 H383 0.929 . S
C379 C378 1.457 . S
C379 C380 1.291 . S
C379 H392 0.931 . S
C380 C379 1.291 . S
C380 C381 1.373 . S
C380 H393 0.929 . S
C381 C380 1.373 . S
C381 C382 1.396 . S
C381 C388 1.403 . S
C382 C372 1.476 . S
C382 N377 1.318 . S
C382 C381 1.396 . S
H383 C378 0.929 . S
O384 Mn360 2.385 . S
O384 C362 1.234 . S
O385 Mn360 2.209 . S
O385 Mn361 2.215 . S
O385 C362 1.283 . S
O386 Mn360 2.094 . S
O386 C364 1.240 . S
O387 Mn361 2.117 . S
O387 C364 1.264 . S
C388 C381 1.403 . S
C388 C389 1.399 . S
C388 H394 0.929 . S
C389 C369 1.449 . S
C389 C388 1.399 . S
C389 H395 0.930 . S
H390 C370 0.931 . S
H391 C371 0.930 . S
H392 C379 0.931 . S
H393 C380 0.929 . S
H394 C388 0.929 . S
H395 C389 0.930 . S
Mn396 O401 2.095 . S
Mn396 O411 2.162 . S
Mn396 O412 2.297 . S
Mn396 O420 2.385 . S
Mn396 O421 2.209 . S
Mn396 O422 2.094 . S
Mn397 O402 2.121 . S
Mn397 N404 2.257 . S
Mn397 N413 2.282 . S
Mn397 O421 2.215 . S
Mn397 O423 2.117 . S
C398 O420 1.234 . S
C398 O421 1.283 . S
C399 O411 1.281 . S
C399 O412 1.236 . S
C400 O422 1.240 . S
C400 O423 1.264 . S
O401 Mn396 2.095 . S
O401 C410 1.250 . S
O402 Mn397 2.121 . S
O402 C410 1.258 . S
C403 N404 1.326 . S
C403 C407 1.460 . S
C403 H409 0.929 . S
N404 Mn397 2.257 . S
N404 C403 1.326 . S
N404 C408 1.362 . S
C405 C406 1.258 . S
C405 C408 1.431 . S
C405 C425 1.449 . S
C406 C405 1.258 . S
C406 C407 1.477 . S
C406 H426 0.931 . S
C407 C403 1.460 . S
C407 C406 1.477 . S
C407 H427 0.930 . S
C408 N404 1.362 . S
C408 C405 1.431 . S
C408 C418 1.476 . S
H409 C403 0.929 . S
C410 O401 1.250 . S
C410 O402 1.258 . S
O411 Mn396 2.162 . S
O411 C399 1.281 . S
O412 Mn396 2.297 . S
O412 C399 1.236 . S
N413 Mn397 2.282 . S
N413 C414 1.328 . S
N413 C418 1.318 . S
C414 N413 1.328 . S
C414 C415 1.457 . S
C414 H419 0.929 . S
C415 C414 1.457 . S
C415 C416 1.291 . S
C415 H428 0.931 . S
C416 C415 1.291 . S
C416 C417 1.373 . S
C416 H429 0.929 . S
C417 C416 1.373 . S
C417 C418 1.396 . S
C417 C424 1.403 . S
C418 C408 1.476 . S
C418 N413 1.318 . S
C418 C417 1.396 . S
H419 C414 0.929 . S
O420 Mn396 2.385 . S
O420 C398 1.234 . S
O421 Mn396 2.209 . S
O421 Mn397 2.215 . S
O421 C398 1.283 . S
O422 Mn396 2.094 . S
O422 C400 1.240 . S
O423 Mn397 2.117 . S
O423 C400 1.264 . S
C424 C417 1.403 . S
C424 C425 1.399 . S
C424 H430 0.929 . S
C425 C405 1.449 . S
C425 C424 1.399 . S
C425 H431 0.930 . S
H426 C406 0.931 . S
H427 C407 0.930 . S
H428 C415 0.931 . S
H429 C416 0.929 . S
H430 C424 0.929 . S
H431 C425 0.930 . S
Mn432 O437 2.095 . S
Mn432 O447 2.162 . S
Mn432 O448 2.297 . S
Mn432 O456 2.385 . S
Mn432 O457 2.209 . S
Mn432 O458 2.094 . S
Mn433 O438 2.121 . S
Mn433 N440 2.257 . S
Mn433 N449 2.282 . S
Mn433 O457 2.215 . S
Mn433 O459 2.117 . S
C434 O456 1.234 . S
C434 O457 1.283 . S
C435 O447 1.281 . S
C435 O448 1.236 . S
C436 O458 1.240 . S
C436 O459 1.264 . S
O437 Mn432 2.095 . S
O437 C446 1.250 . S
O438 Mn433 2.121 . S
O438 C446 1.258 . S
C439 N440 1.326 . S
C439 C443 1.460 . S
C439 H445 0.929 . S
N440 Mn433 2.257 . S
N440 C439 1.326 . S
N440 C444 1.362 . S
C441 C442 1.258 . S
C441 C444 1.431 . S
C441 C461 1.449 . S
C442 C441 1.258 . S
C442 C443 1.477 . S
C442 H462 0.931 . S
C443 C439 1.460 . S
C443 C442 1.477 . S
C443 H463 0.930 . S
C444 N440 1.362 . S
C444 C441 1.431 . S
C444 C454 1.476 . S
H445 C439 0.929 . S
C446 O437 1.250 . S
C446 O438 1.258 . S
O447 Mn432 2.162 . S
O447 C435 1.281 . S
O448 Mn432 2.297 . S
O448 C435 1.236 . S
N449 Mn433 2.282 . S
N449 C450 1.328 . S
N449 C454 1.318 . S
C450 N449 1.328 . S
C450 C451 1.457 . S
C450 H455 0.929 . S
C451 C450 1.457 . S
C451 C452 1.291 . S
C451 H464 0.931 . S
C452 C451 1.291 . S
C452 C453 1.373 . S
C452 H465 0.929 . S
C453 C452 1.373 . S
C453 C454 1.396 . S
C453 C460 1.403 . S
C454 C444 1.476 . S
C454 N449 1.318 . S
C454 C453 1.396 . S
H455 C450 0.929 . S
O456 Mn432 2.385 . S
O456 C434 1.234 . S
O457 Mn432 2.209 . S
O457 Mn433 2.215 . S
O457 C434 1.283 . S
O458 Mn432 2.094 . S
O458 C436 1.240 . S
O459 Mn433 2.117 . S
O459 C436 1.264 . S
C460 C453 1.403 . S
C460 C461 1.399 . S
C460 H466 0.929 . S
C461 C441 1.449 . S
C461 C460 1.399 . S
C461 H467 0.930 . S
H462 C442 0.931 . S
H463 C443 0.930 . S
H464 C451 0.931 . S
H465 C452 0.929 . S
H466 C460 0.929 . S
H467 C461 0.930 . S
Mn468 O473 2.095 . S
Mn468 O483 2.162 . S
Mn468 O484 2.297 . S
Mn468 O492 2.385 . S
Mn468 O493 2.209 . S
Mn468 O494 2.094 . S
Mn469 O474 2.121 . S
Mn469 N476 2.257 . S
Mn469 N485 2.282 . S
Mn469 O493 2.215 . S
Mn469 O495 2.117 . S
C470 O492 1.234 . S
C470 O493 1.283 . S
C471 O483 1.281 . S
C471 O484 1.236 . S
C472 O494 1.240 . S
C472 O495 1.264 . S
O473 Mn468 2.095 . S
O473 C482 1.250 . S
O474 Mn469 2.121 . S
O474 C482 1.258 . S
C475 N476 1.326 . S
C475 C479 1.460 . S
C475 H481 0.929 . S
N476 Mn469 2.257 . S
N476 C475 1.326 . S
N476 C480 1.362 . S
C477 C478 1.258 . S
C477 C480 1.431 . S
C477 C497 1.449 . S
C478 C477 1.258 . S
C478 C479 1.477 . S
C478 H498 0.931 . S
C479 C475 1.460 . S
C479 C478 1.477 . S
C479 H499 0.930 . S
C480 N476 1.362 . S
C480 C477 1.431 . S
C480 C490 1.476 . S
H481 C475 0.929 . S
C482 O473 1.250 . S
C482 O474 1.258 . S
O483 Mn468 2.162 . S
O483 C471 1.281 . S
O484 Mn468 2.297 . S
O484 C471 1.236 . S
N485 Mn469 2.282 . S
N485 C486 1.328 . S
N485 C490 1.318 . S
C486 N485 1.328 . S
C486 C487 1.457 . S
C486 H491 0.929 . S
C487 C486 1.457 . S
C487 C488 1.291 . S
C487 H500 0.931 . S
C488 C487 1.291 . S
C488 C489 1.373 . S
C488 H501 0.929 . S
C489 C488 1.373 . S
C489 C490 1.396 . S
C489 C496 1.403 . S
C490 C480 1.476 . S
C490 N485 1.318 . S
C490 C489 1.396 . S
H491 C486 0.929 . S
O492 Mn468 2.385 . S
O492 C470 1.234 . S
O493 Mn468 2.209 . S
O493 Mn469 2.215 . S
O493 C470 1.283 . S
O494 Mn468 2.094 . S
O494 C472 1.240 . S
O495 Mn469 2.117 . S
O495 C472 1.264 . S
C496 C489 1.403 . S
C496 C497 1.399 . S
C496 H502 0.929 . S
C497 C477 1.449 . S
C497 C496 1.399 . S
C497 H503 0.930 . S
H498 C478 0.931 . S
H499 C479 0.930 . S
H500 C487 0.931 . S
H501 C488 0.929 . S
H502 C496 0.929 . S
H503 C497 0.930 . S
H504 C510 0.930 . S
H505 C514 0.930 . S
H506 C519 0.929 . S
H507 C517 0.929 . S
H508 C512 0.929 . S
H509 C518 0.929 . S
C510 H504 0.930 . S
C510 C511 1.367 . S
C510 C518 1.378 . S
C511 C510 1.367 . S
C511 C519 1.433 . S
C512 H508 0.929 . S
C512 C514 1.378 . S
C512 C516 1.350 . S
C513 C516 1.463 . S
C513 C518 1.350 . S
C513 N521 1.427 . S
C514 H505 0.930 . S
C514 C512 1.378 . S
C514 C515 1.367 . S
C515 C514 1.367 . S
C515 C517 1.433 . S
C516 C512 1.350 . S
C516 C513 1.463 . S
C516 N520 1.427 . S
C517 H507 0.929 . S
C517 C515 1.433 . S
C517 N520 1.384 . S
C518 H509 0.929 . S
C518 C510 1.378 . S
C518 C513 1.350 . S
C519 H506 0.929 . S
C519 C511 1.433 . S
C519 N521 1.384 . S
N520 C516 1.427 . S
N520 C517 1.384 . S
N521 C513 1.427 . S
N521 C519 1.384 . S
H522 C528 0.930 . S
H523 C532 0.930 . S
H524 C537 0.929 . S
H525 C535 0.929 . S
H526 C530 0.929 . S
H527 C536 0.929 . S
C528 H522 0.930 . S
C528 C529 1.367 . S
C528 C536 1.378 . S
C529 C528 1.367 . S
C529 C537 1.433 . S
C530 H526 0.929 . S
C530 C532 1.378 . S
C530 C534 1.350 . S
C531 C534 1.463 . S
C531 C536 1.350 . S
C531 N539 1.427 . S
C532 H523 0.930 . S
C532 C530 1.378 . S
C532 C533 1.367 . S
C533 C532 1.367 . S
C533 C535 1.433 . S
C534 C530 1.350 . S
C534 C531 1.463 . S
C534 N538 1.427 . S
C535 H525 0.929 . S
C535 C533 1.433 . S
C535 N538 1.384 . S
C536 H527 0.929 . S
C536 C528 1.378 . S
C536 C531 1.350 . S
C537 H524 0.929 . S
C537 C529 1.433 . S
C537 N539 1.384 . S
N538 C534 1.427 . S
N538 C535 1.384 . S
N539 C531 1.427 . S
N539 C537 1.384 . S
H540 C546 0.930 . S
H541 C550 0.930 . S
H542 C555 0.929 . S
H543 C553 0.929 . S
H544 C548 0.929 . S
H545 C554 0.929 . S
C546 H540 0.930 . S
C546 C547 1.367 . S
C546 C554 1.378 . S
C547 C546 1.367 . S
C547 C555 1.433 . S
C548 H544 0.929 . S
C548 C550 1.378 . S
C548 C552 1.350 . S
C549 C552 1.463 . S
C549 C554 1.350 . S
C549 N557 1.427 . S
C550 H541 0.930 . S
C550 C548 1.378 . S
C550 C551 1.367 . S
C551 C550 1.367 . S
C551 C553 1.433 . S
C552 C548 1.350 . S
C552 C549 1.463 . S
C552 N556 1.427 . S
C553 H543 0.929 . S
C553 C551 1.433 . S
C553 N556 1.384 . S
C554 H545 0.929 . S
C554 C546 1.378 . S
C554 C549 1.350 . S
C555 H542 0.929 . S
C555 C547 1.433 . S
C555 N557 1.384 . S
N556 C552 1.427 . S
N556 C553 1.384 . S
N557 C549 1.427 . S
N557 C555 1.384 . S
H558 C564 0.930 . S
H559 C568 0.930 . S
H560 C573 0.929 . S
H561 C571 0.929 . S
H562 C566 0.929 . S
H563 C572 0.929 . S
C564 H558 0.930 . S
C564 C565 1.367 . S
C564 C572 1.378 . S
C565 C564 1.367 . S
C565 C573 1.433 . S
C566 H562 0.929 . S
C566 C568 1.378 . S
C566 C570 1.350 . S
C567 C570 1.463 . S
C567 C572 1.350 . S
C567 N575 1.427 . S
C568 H559 0.930 . S
C568 C566 1.378 . S
C568 C569 1.367 . S
C569 C568 1.367 . S
C569 C571 1.433 . S
C570 C566 1.350 . S
C570 C567 1.463 . S
C570 N574 1.427 . S
C571 H561 0.929 . S
C571 C569 1.433 . S
C571 N574 1.384 . S
C572 H563 0.929 . S
C572 C564 1.378 . S
C572 C567 1.350 . S
C573 H560 0.929 . S
C573 C565 1.433 . S
C573 N575 1.384 . S
N574 C570 1.427 . S
N574 C571 1.384 . S
N575 C567 1.427 . S
N575 C573 1.384 . S
H576 C582 0.930 . S
H577 C586 0.930 . S
H578 C591 0.929 . S
H579 C589 0.929 . S
H580 C584 0.929 . S
H581 C590 0.929 . S
C582 H576 0.930 . S
C582 C583 1.367 . S
C582 C590 1.378 . S
C583 C582 1.367 . S
C583 C591 1.433 . S
C584 H580 0.929 . S
C584 C586 1.378 . S
C584 C588 1.350 . S
C585 C588 1.463 . S
C585 C590 1.350 . S
C585 N593 1.427 . S
C586 H577 0.930 . S
C586 C584 1.378 . S
C586 C587 1.367 . S
C587 C586 1.367 . S
C587 C589 1.433 . S
C588 C584 1.350 . S
C588 C585 1.463 . S
C588 N592 1.427 . S
C589 H579 0.929 . S
C589 C587 1.433 . S
C589 N592 1.384 . S
C590 H581 0.929 . S
C590 C582 1.378 . S
C590 C585 1.350 . S
C591 H578 0.929 . S
C591 C583 1.433 . S
C591 N593 1.384 . S
N592 C588 1.427 . S
N592 C589 1.384 . S
N593 C585 1.427 . S
N593 C591 1.384 . S
H594 C600 0.930 . S
H595 C604 0.930 . S
H596 C609 0.929 . S
H597 C607 0.929 . S
H598 C602 0.929 . S
H599 C608 0.929 . S
C600 H594 0.930 . S
C600 C601 1.367 . S
C600 C608 1.378 . S
C601 C600 1.367 . S
C601 C609 1.433 . S
C602 H598 0.929 . S
C602 C604 1.378 . S
C602 C606 1.350 . S
C603 C606 1.463 . S
C603 C608 1.350 . S
C603 N611 1.427 . S
C604 H595 0.930 . S
C604 C602 1.378 . S
C604 C605 1.367 . S
C605 C604 1.367 . S
C605 C607 1.433 . S
C606 C602 1.350 . S
C606 C603 1.463 . S
C606 N610 1.427 . S
C607 H597 0.929 . S
C607 C605 1.433 . S
C607 N610 1.384 . S
C608 H599 0.929 . S
C608 C600 1.378 . S
C608 C603 1.350 . S
C609 H596 0.929 . S
C609 C601 1.433 . S
C609 N611 1.384 . S
N610 C606 1.427 . S
N610 C607 1.384 . S
N611 C603 1.427 . S
N611 C609 1.384 . S
H612 C618 0.930 . S
H613 C622 0.930 . S
H614 C627 0.929 . S
H615 C625 0.929 . S
H616 C620 0.929 . S
H617 C626 0.929 . S
C618 H612 0.930 . S
C618 C619 1.367 . S
C618 C626 1.378 . S
C619 C618 1.367 . S
C619 C627 1.433 . S
C620 H616 0.929 . S
C620 C622 1.378 . S
C620 C624 1.350 . S
C621 C624 1.463 . S
C621 C626 1.350 . S
C621 N629 1.427 . S
C622 H613 0.930 . S
C622 C620 1.378 . S
C622 C623 1.367 . S
C623 C622 1.367 . S
C623 C625 1.433 . S
C624 C620 1.350 . S
C624 C621 1.463 . S
C624 N628 1.427 . S
C625 H615 0.929 . S
C625 C623 1.433 . S
C625 N628 1.384 . S
C626 H617 0.929 . S
C626 C618 1.378 . S
C626 C621 1.350 . S
C627 H614 0.929 . S
C627 C619 1.433 . S
C627 N629 1.384 . S
N628 C624 1.427 . S
N628 C625 1.384 . S
N629 C621 1.427 . S
N629 C627 1.384 . S
H630 C636 0.930 . S
H631 C640 0.930 . S
H632 C645 0.929 . S
H633 C643 0.929 . S
H634 C638 0.929 . S
H635 C644 0.929 . S
C636 H630 0.930 . S
C636 C637 1.367 . S
C636 C644 1.378 . S
C637 C636 1.367 . S
C637 C645 1.433 . S
C638 H634 0.929 . S
C638 C640 1.378 . S
C638 C642 1.350 . S
C639 C642 1.463 . S
C639 C644 1.350 . S
C639 N647 1.427 . S
C640 H631 0.930 . S
C640 C638 1.378 . S
C640 C641 1.367 . S
C641 C640 1.367 . S
C641 C643 1.433 . S
C642 C638 1.350 . S
C642 C639 1.463 . S
C642 N646 1.427 . S
C643 H633 0.929 . S
C643 C641 1.433 . S
C643 N646 1.384 . S
C644 H635 0.929 . S
C644 C636 1.378 . S
C644 C639 1.350 . S
C645 H632 0.929 . S
C645 C637 1.433 . S
C645 N647 1.384 . S
N646 C642 1.427 . S
N646 C643 1.384 . S
N647 C639 1.427 . S
N647 C645 1.384 . S
H648 C654 0.930 . S
H649 C658 0.930 . S
H650 C663 0.929 . S
H651 C661 0.929 . S
H652 C656 0.929 . S
H653 C662 0.929 . S
C654 H648 0.930 . S
C654 C655 1.367 . S
C654 C662 1.378 . S
C655 C654 1.367 . S
C655 C663 1.433 . S
C656 H652 0.929 . S
C656 C658 1.378 . S
C656 C660 1.350 . S
C657 C660 1.463 . S
C657 C662 1.350 . S
C657 N665 1.427 . S
C658 H649 0.930 . S
C658 C656 1.378 . S
C658 C659 1.367 . S
C659 C658 1.367 . S
C659 C661 1.433 . S
C660 C656 1.350 . S
C660 C657 1.463 . S
C660 N664 1.427 . S
C661 H651 0.929 . S
C661 C659 1.433 . S
C661 N664 1.384 . S
C662 H653 0.929 . S
C662 C654 1.378 . S
C662 C657 1.350 . S
C663 H650 0.929 . S
C663 C655 1.433 . S
C663 N665 1.384 . S
N664 C660 1.427 . S
N664 C661 1.384 . S
N665 C657 1.427 . S
N665 C663 1.384 . S
H666 C672 0.930 . S
H667 C676 0.930 . S
H668 C681 0.929 . S
H669 C679 0.929 . S
H670 C674 0.929 . S
H671 C680 0.929 . S
C672 H666 0.930 . S
C672 C673 1.367 . S
C672 C680 1.378 . S
C673 C672 1.367 . S
C673 C681 1.433 . S
C674 H670 0.929 . S
C674 C676 1.378 . S
C674 C678 1.350 . S
C675 C678 1.463 . S
C675 C680 1.350 . S
C675 N683 1.427 . S
C676 H667 0.930 . S
C676 C674 1.378 . S
C676 C677 1.367 . S
C677 C676 1.367 . S
C677 C679 1.433 . S
C678 C674 1.350 . S
C678 C675 1.463 . S
C678 N682 1.427 . S
C679 H669 0.929 . S
C679 C677 1.433 . S
C679 N682 1.384 . S
C680 H671 0.929 . S
C680 C672 1.378 . S
C680 C675 1.350 . S
C681 H668 0.929 . S
C681 C673 1.433 . S
C681 N683 1.384 . S
N682 C678 1.427 . S
N682 C679 1.384 . S
N683 C675 1.427 . S
N683 C681 1.384 . S
H684 C690 0.930 . S
H685 C694 0.930 . S
H686 C699 0.929 . S
H687 C697 0.929 . S
H688 C692 0.929 . S
H689 C698 0.929 . S
C690 H684 0.930 . S
C690 C691 1.367 . S
C690 C698 1.378 . S
C691 C690 1.367 . S
C691 C699 1.433 . S
C692 H688 0.929 . S
C692 C694 1.378 . S
C692 C696 1.350 . S
C693 C696 1.463 . S
C693 C698 1.350 . S
C693 N701 1.427 . S
C694 H685 0.930 . S
C694 C692 1.378 . S
C694 C695 1.367 . S
C695 C694 1.367 . S
C695 C697 1.433 . S
C696 C692 1.350 . S
C696 C693 1.463 . S
C696 N700 1.427 . S
C697 H687 0.929 . S
C697 C695 1.433 . S
C697 N700 1.384 . S
C698 H689 0.929 . S
C698 C690 1.378 . S
C698 C693 1.350 . S
C699 H686 0.929 . S
C699 C691 1.433 . S
C699 N701 1.384 . S
N700 C696 1.427 . S
N700 C697 1.384 . S
N701 C693 1.427 . S
N701 C699 1.384 . S
H702 C708 0.930 . S
H703 C712 0.930 . S
H704 C717 0.929 . S
H705 C715 0.929 . S
H706 C710 0.929 . S
H707 C716 0.929 . S
C708 H702 0.930 . S
C708 C709 1.367 . S
C708 C716 1.378 . S
C709 C708 1.367 . S
C709 C717 1.433 . S
C710 H706 0.929 . S
C710 C712 1.378 . S
C710 C714 1.350 . S
C711 C714 1.463 . S
C711 C716 1.350 . S
C711 N719 1.427 . S
C712 H703 0.930 . S
C712 C710 1.378 . S
C712 C713 1.367 . S
C713 C712 1.367 . S
C713 C715 1.433 . S
C714 C710 1.350 . S
C714 C711 1.463 . S
C714 N718 1.427 . S
C715 H705 0.929 . S
C715 C713 1.433 . S
C715 N718 1.384 . S
C716 H707 0.929 . S
C716 C708 1.378 . S
C716 C711 1.350 . S
C717 H704 0.929 . S
C717 C709 1.433 . S
C717 N719 1.384 . S
N718 C714 1.427 . S
N718 C715 1.384 . S
N719 C711 1.427 . S
N719 C717 1.384 . S
H720 C726 0.930 . S
H721 C730 0.930 . S
H722 C735 0.929 . S
H723 C733 0.929 . S
H724 C728 0.929 . S
H725 C734 0.929 . S
C726 H720 0.930 . S
C726 C727 1.367 . S
C726 C734 1.378 . S
C727 C726 1.367 . S
C727 C735 1.433 . S
C728 H724 0.929 . S
C728 C730 1.378 . S
C728 C732 1.350 . S
C729 C732 1.463 . S
C729 C734 1.350 . S
C729 N737 1.427 . S
C730 H721 0.930 . S
C730 C728 1.378 . S
C730 C731 1.367 . S
C731 C730 1.367 . S
C731 C733 1.433 . S
C732 C728 1.350 . S
C732 C729 1.463 . S
C732 N736 1.427 . S
C733 H723 0.929 . S
C733 C731 1.433 . S
C733 N736 1.384 . S
C734 H725 0.929 . S
C734 C726 1.378 . S
C734 C729 1.350 . S
C735 H722 0.929 . S
C735 C727 1.433 . S
C735 N737 1.384 . S
N736 C732 1.427 . S
N736 C733 1.384 . S
N737 C729 1.427 . S
N737 C735 1.384 . S
H738 C744 0.930 . S
H739 C748 0.930 . S
H740 C753 0.929 . S
H741 C751 0.929 . S
H742 C746 0.929 . S
H743 C752 0.929 . S
C744 H738 0.930 . S
C744 C745 1.367 . S
C744 C752 1.378 . S
C745 C744 1.367 . S
C745 C753 1.433 . S
C746 H742 0.929 . S
C746 C748 1.378 . S
C746 C750 1.350 . S
C747 C750 1.463 . S
C747 C752 1.350 . S
C747 N755 1.427 . S
C748 H739 0.930 . S
C748 C746 1.378 . S
C748 C749 1.367 . S
C749 C748 1.367 . S
C749 C751 1.433 . S
C750 C746 1.350 . S
C750 C747 1.463 . S
C750 N754 1.427 . S
C751 H741 0.929 . S
C751 C749 1.433 . S
C751 N754 1.384 . S
C752 H743 0.929 . S
C752 C744 1.378 . S
C752 C747 1.350 . S
C753 H740 0.929 . S
C753 C745 1.433 . S
C753 N755 1.384 . S
N754 C750 1.427 . S
N754 C751 1.384 . S
N755 C747 1.427 . S
N755 C753 1.384 . S
H756 C762 0.930 . S
H757 C766 0.930 . S
H758 C771 0.929 . S
H759 C769 0.929 . S
H760 C764 0.929 . S
H761 C770 0.929 . S
C762 H756 0.930 . S
C762 C763 1.367 . S
C762 C770 1.378 . S
C763 C762 1.367 . S
C763 C771 1.433 . S
C764 H760 0.929 . S
C764 C766 1.378 . S
C764 C768 1.350 . S
C765 C768 1.463 . S
C765 C770 1.350 . S
C765 N773 1.427 . S
C766 H757 0.930 . S
C766 C764 1.378 . S
C766 C767 1.367 . S
C767 C766 1.367 . S
C767 C769 1.433 . S
C768 C764 1.350 . S
C768 C765 1.463 . S
C768 N772 1.427 . S
C769 H759 0.929 . S
C769 C767 1.433 . S
C769 N772 1.384 . S
C770 H761 0.929 . S
C770 C762 1.378 . S
C770 C765 1.350 . S
C771 H758 0.929 . S
C771 C763 1.433 . S
C771 N773 1.384 . S
N772 C768 1.427 . S
N772 C769 1.384 . S
N773 C765 1.427 . S
N773 C771 1.384 . S
H774 C780 0.930 . S
H775 C784 0.930 . S
H776 C789 0.929 . S
H777 C787 0.929 . S
H778 C782 0.929 . S
H779 C788 0.929 . S
C780 H774 0.930 . S
C780 C781 1.367 . S
C780 C788 1.378 . S
C781 C780 1.367 . S
C781 C789 1.433 . S
C782 H778 0.929 . S
C782 C784 1.378 1_556 S
C782 C786 1.350 . S
C783 C786 1.463 . S
C783 C788 1.350 . S
C783 N791 1.427 . S
C784 H775 0.930 . S
C784 C782 1.378 1_554 S
C784 C785 1.367 . S
C785 C784 1.367 . S
C785 C787 1.433 . S
C786 C782 1.350 . S
C786 C783 1.463 . S
C786 N790 1.427 . S
C787 H777 0.929 . S
C787 C785 1.433 . S
C787 N790 1.384 1_554 S
C788 H779 0.929 . S
C788 C780 1.378 . S
C788 C783 1.350 . S
C789 H776 0.929 . S
C789 C781 1.433 . S
C789 N791 1.384 . S
N790 C786 1.427 . S
N790 C787 1.384 1_556 S
N791 C783 1.427 . S
N791 C789 1.384 . S
H792 C798 0.930 . S
H793 C802 0.930 . S
H794 C807 0.929 . S
H795 C805 0.929 . S
H796 C800 0.929 . S
H797 C806 0.929 . S
C798 H792 0.930 . S
C798 C799 1.367 . S
C798 C806 1.378 . S
C799 C798 1.367 . S
C799 C807 1.433 . S
C800 H796 0.929 . S
C800 C802 1.378 . S
C800 C804 1.350 . S
C801 C804 1.463 . S
C801 C806 1.350 . S
C801 N809 1.427 . S
C802 H793 0.930 . S
C802 C800 1.378 . S
C802 C803 1.367 . S
C803 C802 1.367 . S
C803 C805 1.433 . S
C804 C800 1.350 . S
C804 C801 1.463 . S
C804 N808 1.427 . S
C805 H795 0.929 . S
C805 C803 1.433 . S
C805 N808 1.384 . S
C806 H797 0.929 . S
C806 C798 1.378 . S
C806 C801 1.350 . S
C807 H794 0.929 . S
C807 C799 1.433 . S
C807 N809 1.384 . S
N808 C804 1.427 . S
N808 C805 1.384 . S
N809 C801 1.427 . S
N809 C807 1.384 . S
H810 C816 0.930 . S
H811 C820 0.930 . S
H812 C825 0.929 . S
H813 C823 0.929 . S
H814 C818 0.929 . S
H815 C824 0.929 . S
C816 H810 0.930 . S
C816 C817 1.367 . S
C816 C824 1.378 . S
C817 C816 1.367 . S
C817 C825 1.433 . S
C818 H814 0.929 . S
C818 C820 1.378 . S
C818 C822 1.350 . S
C819 C822 1.463 . S
C819 C824 1.350 . S
C819 N827 1.427 . S
C820 H811 0.930 . S
C820 C818 1.378 . S
C820 C821 1.367 . S
C821 C820 1.367 . S
C821 C823 1.433 . S
C822 C818 1.350 . S
C822 C819 1.463 . S
C822 N826 1.427 . S
C823 H813 0.929 . S
C823 C821 1.433 . S
C823 N826 1.384 . S
C824 H815 0.929 . S
C824 C816 1.378 . S
C824 C819 1.350 . S
C825 H812 0.929 . S
C825 C817 1.433 . S
C825 N827 1.384 . S
N826 C822 1.427 . S
N826 C823 1.384 . S
N827 C819 1.427 . S
N827 C825 1.384 . S
H828 C834 0.930 . S
H829 C838 0.930 . S
H830 C843 0.929 . S
H831 C841 0.929 . S
H832 C836 0.929 . S
H833 C842 0.929 . S
C834 H828 0.930 . S
C834 C835 1.367 . S
C834 C842 1.378 . S
C835 C834 1.367 . S
C835 C843 1.433 . S
C836 H832 0.929 . S
C836 C838 1.378 . S
C836 C840 1.350 . S
C837 C840 1.463 . S
C837 C842 1.350 . S
C837 N845 1.427 . S
C838 H829 0.930 . S
C838 C836 1.378 . S
C838 C839 1.367 . S
C839 C838 1.367 . S
C839 C841 1.433 . S
C840 C836 1.350 . S
C840 C837 1.463 . S
C840 N844 1.427 . S
C841 H831 0.929 . S
C841 C839 1.433 . S
C841 N844 1.384 . S
C842 H833 0.929 . S
C842 C834 1.378 . S
C842 C837 1.350 . S
C843 H830 0.929 . S
C843 C835 1.433 . S
C843 N845 1.384 . S
N844 C840 1.427 . S
N844 C841 1.384 . S
N845 C837 1.427 . S
N845 C843 1.384 . S
H846 C852 0.930 . S
H847 C856 0.930 . S
H848 C861 0.929 . S
H849 C859 0.929 . S
H850 C854 0.929 . S
H851 C860 0.929 . S
C852 H846 0.930 . S
C852 C853 1.367 . S
C852 C860 1.378 . S
C853 C852 1.367 . S
C853 C861 1.433 . S
C854 H850 0.929 . S
C854 C856 1.378 . S
C854 C858 1.350 . S
C855 C858 1.463 . S
C855 C860 1.350 . S
C855 N863 1.427 . S
C856 H847 0.930 . S
C856 C854 1.378 . S
C856 C857 1.367 . S
C857 C856 1.367 . S
C857 C859 1.433 . S
C858 C854 1.350 . S
C858 C855 1.463 . S
C858 N862 1.427 . S
C859 H849 0.929 . S
C859 C857 1.433 . S
C859 N862 1.384 . S
C860 H851 0.929 . S
C860 C852 1.378 . S
C860 C855 1.350 . S
C861 H848 0.929 . S
C861 C853 1.433 . S
C861 N863 1.384 . S
N862 C858 1.427 . S
N862 C859 1.384 . S
N863 C855 1.427 . S
N863 C861 1.384 . S
H864 C870 0.930 . S
H865 C874 0.930 . S
H866 C879 0.929 . S
H867 C877 0.929 . S
H868 C872 0.929 . S
H869 C878 0.929 . S
C870 H864 0.930 . S
C870 C871 1.367 . S
C870 C878 1.378 . S
C871 C870 1.367 . S
C871 C879 1.433 . S
C872 H868 0.929 . S
C872 C874 1.378 . S
C872 C876 1.350 . S
C873 C876 1.463 . S
C873 C878 1.350 . S
C873 N881 1.427 . S
C874 H865 0.930 . S
C874 C872 1.378 . S
C874 C875 1.367 . S
C875 C874 1.367 . S
C875 C877 1.433 . S
C876 C872 1.350 . S
C876 C873 1.463 . S
C876 N880 1.427 . S
C877 H867 0.929 . S
C877 C875 1.433 . S
C877 N880 1.384 . S
C878 H869 0.929 . S
C878 C870 1.378 . S
C878 C873 1.350 . S
C879 H866 0.929 . S
C879 C871 1.433 . S
C879 N881 1.384 . S
N880 C876 1.427 . S
N880 C877 1.384 . S
N881 C873 1.427 . S
N881 C879 1.384 . S
H882 C888 0.930 . S
H883 C892 0.930 . S
H884 C897 0.929 . S
H885 C895 0.929 . S
H886 C890 0.929 . S
H887 C896 0.929 . S
C888 H882 0.930 . S
C888 C889 1.367 . S
C888 C896 1.378 . S
C889 C888 1.367 . S
C889 C897 1.433 . S
C890 H886 0.929 . S
C890 C892 1.378 . S
C890 C894 1.350 . S
C891 C894 1.463 . S
C891 C896 1.350 . S
C891 N899 1.427 . S
C892 H883 0.930 . S
C892 C890 1.378 . S
C892 C893 1.367 . S
C893 C892 1.367 . S
C893 C895 1.433 . S
C894 C890 1.350 . S
C894 C891 1.463 . S
C894 N898 1.427 . S
C895 H885 0.929 . S
C895 C893 1.433 . S
C895 N898 1.384 . S
C896 H887 0.929 . S
C896 C888 1.378 . S
C896 C891 1.350 . S
C897 H884 0.929 . S
C897 C889 1.433 . S
C897 N899 1.384 . S
N898 C894 1.427 . S
N898 C895 1.384 . S
N899 C891 1.427 . S
N899 C897 1.384 . S
H900 C906 0.930 . S
H901 C910 0.930 . S
H902 C915 0.929 . S
H903 C913 0.929 . S
H904 C908 0.929 . S
H905 C914 0.955 . S
C906 H900 0.930 . S
C906 C907 1.367 . S
C906 C914 1.378 . S
C907 C906 1.367 . S
C907 C915 1.433 . S
C908 H904 0.929 . S
C908 C910 1.378 1_554 S
C908 C912 1.345 1_554 S
C909 C912 1.428 1_554 S
C909 C914 1.350 . S
C909 N917 1.427 . S
C910 H901 0.930 . S
C910 C908 1.378 1_556 S
C910 C911 1.367 . S
C911 C910 1.367 . S
C911 C913 1.433 . S
C912 C908 1.345 1_556 S
C912 C909 1.428 1_556 S
C912 N916 1.469 . S
C913 H903 0.929 . S
C913 C911 1.433 . S
C913 N916 1.384 . S
C914 H905 0.955 . S
C914 C906 1.378 . S
C914 C909 1.350 . S
C915 H902 0.929 . S
C915 C907 1.433 . S
C915 N917 1.384 . S
N916 C912 1.469 . S
N916 C913 1.384 . S
N917 C909 1.427 . S
N917 C915 1.384 . S
H918 C924 0.930 . S
H919 C928 0.930 . S
H920 C933 0.929 . S
H921 C931 0.929 . S
H922 C926 0.929 . S
H923 C932 0.929 . S
C924 H918 0.930 . S
C924 C925 1.367 . S
C924 C932 1.378 . S
C925 C924 1.367 . S
C925 C933 1.433 . S
C926 H922 0.929 . S
C926 C928 1.378 . S
C926 C930 1.350 . S
C927 C930 1.463 . S
C927 C932 1.350 . S
C927 N935 1.427 . S
C928 H919 0.930 . S
C928 C926 1.378 . S
C928 C929 1.367 . S
C929 C928 1.367 . S
C929 C931 1.433 . S
C930 C926 1.350 . S
C930 C927 1.463 . S
C930 N934 1.427 . S
C931 H921 0.929 . S
C931 C929 1.433 . S
C931 N934 1.384 . S
C932 H923 0.929 . S
C932 C924 1.378 . S
C932 C927 1.350 . S
C933 H920 0.929 . S
C933 C925 1.433 . S
C933 N935 1.384 . S
N934 C930 1.427 . S
N934 C931 1.384 . S
N935 C927 1.427 . S
N935 C933 1.384 . S
C515 C471 1.606 . S
C511 C45 1.609 . S
C529 C84 1.641 . S
C533 C291 1.648 . S
C547 C126 1.588 . S
C551 C338 1.595 . S
C565 C189 1.563 . S
C569 C374 1.540 . S
C587 C399 1.591 . S
C583 C228 1.586 . S
C601 C270 1.566 . S
C605 C435 1.598 . S
C619 C69 1.618 . S
C623 C327 1.639 . S
C637 C141 1.591 . S
C641 C363 1.588 . S
C655 C174 1.526 . S
C659 C410 1.523 . S
C677 C446 1.571 . S
C673 C213 1.581 . S
C695 C482 1.583 . S
C691 C285 1.608 . S
C713 C302 1.599 . S
C709 C30 1.583 . S
C727 C36 1.493 . S
C731 C326 1.479 . S
C745 C93 1.501 . S
C749 C362 1.491 . S
C767 C400 1.495 . S
C763 C117 1.500 . S
C781 C180 1.505 . S
C785 C436 1.497 . S
C803 C472 1.464 . S
C799 C237 1.474 . S
C821 C292 1.459 . S
C817 C261 1.463 . S
C839 C470 1.468 . S
C835 C78 1.477 . S
C853 C132 1.487 . S
C857 C290 1.477 . S
C875 C328 1.483 . S
C871 C165 1.486 . S
C889 C222 1.491 . S
C893 C364 1.491 . S
C907 C276 1.532 . S
C911 C398 1.521 . S
C925 C21 1.510 . S
C929 C434 1.498 . S
